# Generated by pormake.
# Topology snz, (6)-cn, num edge types: 1
# Building blocks:
#     Node 0, Type 0, BuildingBlock: UKALOJ_clean_sbu_0, # of connection points: 6
#     Node 1, Type 0, BuildingBlock: UKALOJ_clean_sbu_0, # of connection points: 6
#     Node 2, Type 0, BuildingBlock: UKALOJ_clean_sbu_0, # of connection points: 6
#     Node 3, Type 0, BuildingBlock: UKALOJ_clean_sbu_0, # of connection points: 6
#     Node 4, Type 0, BuildingBlock: UKALOJ_clean_sbu_0, # of connection points: 6
#     Node 5, Type 0, BuildingBlock: UKALOJ_clean_sbu_0, # of connection points: 6
#     Node 6, Type 0, BuildingBlock: UKALOJ_clean_sbu_0, # of connection points: 6
#     Node 7, Type 0, BuildingBlock: UKALOJ_clean_sbu_0, # of connection points: 6
#     Node 8, Type 0, BuildingBlock: UKALOJ_clean_sbu_0, # of connection points: 6
#     Edge 9, Type (0, 0), BuildingBlock: MIFKUJ_clean_linker_0, # of connection points: 2
#     Edge 10, Type (0, 0), BuildingBlock: MIFKUJ_clean_linker_0, # of connection points: 2
#     Edge 11, Type (0, 0), BuildingBlock: MIFKUJ_clean_linker_0, # of connection points: 2
#     Edge 12, Type (0, 0), BuildingBlock: MIFKUJ_clean_linker_0, # of connection points: 2
#     Edge 13, Type (0, 0), BuildingBlock: MIFKUJ_clean_linker_0, # of connection points: 2
#     Edge 14, Type (0, 0), BuildingBlock: MIFKUJ_clean_linker_0, # of connection points: 2
#     Edge 15, Type (0, 0), BuildingBlock: MIFKUJ_clean_linker_0, # of connection points: 2
#     Edge 16, Type (0, 0), BuildingBlock: MIFKUJ_clean_linker_0, # of connection points: 2
#     Edge 17, Type (0, 0), BuildingBlock: MIFKUJ_clean_linker_0, # of connection points: 2
#     Edge 18, Type (0, 0), BuildingBlock: MIFKUJ_clean_linker_0, # of connection points: 2
#     Edge 19, Type (0, 0), BuildingBlock: MIFKUJ_clean_linker_0, # of connection points: 2
#     Edge 20, Type (0, 0), BuildingBlock: MIFKUJ_clean_linker_0, # of connection points: 2
#     Edge 21, Type (0, 0), BuildingBlock: MIFKUJ_clean_linker_0, # of connection points: 2
#     Edge 22, Type (0, 0), BuildingBlock: MIFKUJ_clean_linker_0, # of connection points: 2
#     Edge 23, Type (0, 0), BuildingBlock: MIFKUJ_clean_linker_0, # of connection points: 2
#     Edge 24, Type (0, 0), BuildingBlock: MIFKUJ_clean_linker_0, # of connection points: 2
#     Edge 25, Type (0, 0), BuildingBlock: MIFKUJ_clean_linker_0, # of connection points: 2
#     Edge 26, Type (0, 0), BuildingBlock: MIFKUJ_clean_linker_0, # of connection points: 2
#     Edge 27, Type (0, 0), BuildingBlock: MIFKUJ_clean_linker_0, # of connection points: 2
#     Edge 28, Type (0, 0), BuildingBlock: MIFKUJ_clean_linker_0, # of connection points: 2
#     Edge 29, Type (0, 0), BuildingBlock: MIFKUJ_clean_linker_0, # of connection points: 2
#     Edge 30, Type (0, 0), BuildingBlock: MIFKUJ_clean_linker_0, # of connection points: 2
#     Edge 31, Type (0, 0), BuildingBlock: MIFKUJ_clean_linker_0, # of connection points: 2
#     Edge 32, Type (0, 0), BuildingBlock: MIFKUJ_clean_linker_0, # of connection points: 2
#     Edge 33, Type (0, 0), BuildingBlock: MIFKUJ_clean_linker_0, # of connection points: 2
#     Edge 34, Type (0, 0), BuildingBlock: MIFKUJ_clean_linker_0, # of connection points: 2
#     Edge 35, Type (0, 0), BuildingBlock: MIFKUJ_clean_linker_0, # of connection points: 2
# Relax obj value: 0.411
# Max RMSD: 0.288
# Mean RMSD: 0.254
data_MOF--net-snz--node1-UKALOJ_clean_sbu_0--edge1-MIFKUJ_clean_linker_0
_symmetry_space_group_name_H-M    P1
_symmetry_Int_Tables_number       1
_symmetry_cell_setting            triclinic
loop_
_symmetry_equiv_pos_as_xyz
'x, y, z'
_cell_length_a     63.918956
_cell_length_b     68.637579
_cell_length_c     20.090524
_cell_angle_alpha  90.663491
_cell_angle_beta   90.702755
_cell_angle_gamma 120.3485
loop_
_atom_site_label
_atom_site_type_symbol
_atom_site_fract_x
_atom_site_fract_y
_atom_site_fract_z
_atom_type_partial_charge
Zn0 Zn 0.00371 0.48522 0.07208 0.0
O1 O 0.98435 0.45217 0.03252 0.0
C2 C 0.04213 0.47737 0.1272 0.0
Zn3 Zn 0.03365 0.4949 1.00159 0.0
C4 C 0.9933 0.44654 0.98511 0.0
O5 O 0.0137 0.4611 0.96242 0.0
C6 C 0.04462 0.53355 0.0879 0.0
O7 O 0.01435 0.50439 0.93377 0.0
O8 O 0.98546 0.49451 0.00602 0.0
N9 N 0.06029 0.50133 0.93539 0.0
C10 C 0.06533 0.51185 0.87678 0.0
C11 C 0.08219 0.49203 0.87802 0.0
N12 N 0.07147 0.48956 0.93701 0.0
N13 N 0.07826 0.50563 0.83814 0.0
C14 C 0.96628 0.46133 0.17955 0.0
C15 C 0.96443 0.48865 0.22308 0.0
N16 N 0.97798 0.47903 0.13955 0.0
N17 N 0.97617 0.49587 0.16553 0.0
N18 N 0.95846 0.46709 0.23446 0.0
H19 H 0.95014 0.43267 0.11397 0.0
H20 H 0.94908 0.42559 0.19976 0.0
H21 H 0.97748 0.43738 0.15547 0.0
C22 C 0.96051 0.43784 0.16177 0.0
C23 C 0.05666 0.52755 0.85615 0.0
H24 H 0.0531 0.53514 0.90042 0.0
H25 H 0.04001 0.51824 0.82452 0.0
H26 H 0.07063 0.54163 0.82715 0.0
O27 O 0.05339 0.52807 0.03974 0.0
O28 O 0.02415 0.51901 0.11042 0.0
C29 C 0.99409 0.50219 0.94967 0.0
O30 O 0.02178 0.47534 0.14069 0.0
O31 O 0.05158 0.48523 0.07141 0.0
Zn32 Zn 0.53175 0.51096 0.07362 0.0
O33 O 0.50024 0.49993 0.1327 0.0
C34 C 0.50361 0.46994 0.98868 0.0
Zn35 Zn 0.5107 0.51626 0.99429 0.0
C36 C 0.48072 0.49849 0.11067 0.0
O37 O 0.47968 0.50429 0.05139 0.0
C38 C 0.56132 0.52838 0.95569 0.0
O39 O 0.52298 0.54865 0.03396 0.0
O40 O 0.54648 0.54507 0.10664 0.0
N41 N 0.49482 0.52234 0.9139 0.0
C42 C 0.50495 0.54153 0.87882 0.0
C43 C 0.48415 0.51451 0.81055 0.0
N44 N 0.48137 0.5056 0.87143 0.0
N45 N 0.49937 0.53707 0.81334 0.0
C46 C 0.55153 0.51108 0.21389 0.0
C47 C 0.57876 0.50256 0.19514 0.0
N48 N 0.55027 0.50616 0.14849 0.0
N49 N 0.56711 0.50074 0.13687 0.0
N50 N 0.569 0.50871 0.2441 0.0
H51 H 0.52062 0.50465 0.26997 0.0
H52 H 0.53015 0.52763 0.21369 0.0
H53 H 0.54702 0.53134 0.28962 0.0
C54 C 0.5366 0.51932 0.24826 0.0
C55 C 0.51935 0.56491 0.90864 0.0
H56 H 0.50945 0.56664 0.9511 0.0
H57 H 0.52198 0.57781 0.87166 0.0
H58 H 0.53736 0.56819 0.92649 0.0
O59 O 0.54234 0.52828 0.9359 0.0
O60 O 0.562 0.5215 0.0135 0.0
C61 C 0.53876 0.55704 0.08057 0.0
O62 O 0.51767 0.47739 0.03956 0.0
O63 O 0.49807 0.48292 0.95832 0.0
Zn64 Zn 0.47736 0.01481 0.97467 0.0
O65 O 0.4545 0.02872 0.97185 0.0
C66 C 0.43593 0.97282 0.02777 0.0
Zn67 Zn 0.45467 0.99005 0.89548 0.0
C68 C 0.43712 0.02143 0.92932 0.0
O69 O 0.4335 0.00564 0.88863 0.0
C70 C 0.49429 0.98273 0.94276 0.0
O71 O 0.47903 0.013 0.82487 0.0
O72 O 0.49971 0.0378 0.9046 0.0
N73 N 0.43409 0.96698 0.82311 0.0
C74 C 0.44068 0.95819 0.7729 0.0
C75 C 0.40216 0.94241 0.76809 0.0
N76 N 0.41013 0.95699 0.82056 0.0
N77 N 0.42096 0.94247 0.73824 0.0
C78 C 0.48917 0.03531 0.11071 0.0
C79 C 0.52366 0.03855 0.12633 0.0
N80 N 0.49829 0.03589 0.0505 0.0
N81 N 0.52013 0.03866 0.06022 0.0
N82 N 0.50415 0.03579 0.15969 0.0
H83 H 0.46842 0.0511 0.08844 0.0
H84 H 0.46632 0.04229 0.17352 0.0
H85 H 0.4505 0.02178 0.10676 0.0
C86 C 0.46732 0.03768 0.12099 0.0
C87 C 0.46647 0.96616 0.75435 0.0
H88 H 0.47978 0.98096 0.7839 0.0
H89 H 0.46903 0.97046 0.70085 0.0
H90 H 0.47049 0.95244 0.76251 0.0
O91 O 0.47577 0.97431 0.90436 0.0
O92 O 0.49963 0.00031 0.97698 0.0
C93 C 0.49661 0.0322 0.84324 0.0
O94 O 0.45484 0.99111 0.04518 0.0
O95 O 0.43077 0.96802 0.96641 0.0
Zn96 Zn 0.70015 0.84499 0.14094 0.0
O97 O 0.71971 0.88036 0.14954 0.0
C98 C 0.67908 0.84128 0.27856 0.0
Zn99 Zn 0.66508 0.84441 0.13896 0.0
C100 C 0.70829 0.89091 0.15614 0.0
O101 O 0.68528 0.87995 0.15256 0.0
C102 C 0.65705 0.79825 0.12764 0.0
O103 O 0.66833 0.84691 0.03242 0.0
O104 O 0.70271 0.84705 0.03451 0.0
N105 N 0.63385 0.84568 0.13433 0.0
C106 C 0.62776 0.85838 0.09718 0.0
C107 C 0.59926 0.84062 0.16554 0.0
N108 N 0.61607 0.8346 0.17664 0.0
N109 N 0.60613 0.85535 0.11549 0.0
C110 C 0.74867 0.85186 0.19772 0.0
C111 C 0.7537 0.8287 0.13837 0.0
N112 N 0.73135 0.84374 0.14924 0.0
N113 N 0.73473 0.82959 0.11188 0.0
N114 N 0.76268 0.84239 0.19264 0.0
H115 H 0.74969 0.88277 0.2267 0.0
H116 H 0.77128 0.87799 0.26991 0.0
H117 H 0.73974 0.86199 0.29001 0.0
C118 C 0.75255 0.86965 0.24878 0.0
C119 C 0.64354 0.87497 0.04626 0.0
H120 H 0.66274 0.87974 0.05242 0.0
H121 H 0.6422 0.89046 0.04934 0.0
H122 H 0.63703 0.8673 0.99591 0.0
O123 O 0.64532 0.80869 0.12796 0.0
O124 O 0.68006 0.80943 0.1325 0.0
C125 C 0.68587 0.84751 1.00125 0.0
O126 O 0.69685 0.84245 0.24733 0.0
O127 O 0.66218 0.84158 0.24535 0.0
Zn128 Zn 0.18495 0.84867 0.4243 0.0
O129 O 0.14694 0.83105 0.42622 0.0
C130 C 0.18683 0.83308 0.56304 0.0
Zn131 Zn 0.18507 0.8163 0.42365 0.0
C132 C 0.13522 0.80966 0.42804 0.0
O133 O 0.14669 0.799 0.42682 0.0
C134 C 0.2348 0.85567 0.42095 0.0
O135 O 0.18424 0.81628 0.31689 0.0
O136 O 0.1835 0.84782 0.3175 0.0
N137 N 0.18475 0.78633 0.42177 0.0
C138 C 0.16912 0.76629 0.39232 0.0
C139 C 0.19666 0.76249 0.44093 0.0
N140 N 0.20186 0.78394 0.45189 0.0
N141 N 0.17607 0.7511 0.4042 0.0
C142 C 0.17633 0.88785 0.46566 0.0
C143 C 0.1941 0.91155 0.38895 0.0
N144 N 0.18558 0.87876 0.42388 0.0
N145 N 0.19652 0.89348 0.37612 0.0
N146 N 0.18155 0.90843 0.44502 0.0
H147 H 0.15196 0.85763 0.51863 0.0
H148 H 0.14734 0.88124 0.53206 0.0
H149 H 0.173 0.88134 0.56971 0.0
C150 C 0.16115 0.8762 0.52457 0.0
C151 C 0.14785 0.76177 0.34868 0.0
H152 H 0.14974 0.77748 0.32853 0.0
H153 H 0.13114 0.75332 0.37828 0.0
H154 H 0.14571 0.75022 0.30665 0.0
O155 O 0.22334 0.83422 0.42185 0.0
O156 O 0.22304 0.86606 0.42193 0.0
C157 C 0.18373 0.83192 0.28493 0.0
O158 O 0.18666 0.84899 0.53144 0.0
O159 O 0.18638 0.8169 0.53013 0.0
Zn160 Zn 0.14636 0.32454 0.46727 0.0
O161 O 0.15815 0.30096 0.47038 0.0
C162 C 0.1646 0.33944 0.60792 0.0
Zn163 Zn 0.18456 0.35269 0.46996 0.0
C164 C 0.18064 0.30766 0.4744 0.0
O165 O 0.19592 0.32871 0.47486 0.0
C166 C 0.15004 0.36938 0.46248 0.0
O167 O 0.18485 0.35194 0.36291 0.0
O168 O 0.14715 0.32419 0.36069 0.0
N169 N 0.21972 0.37845 0.4751 0.0
C170 C 0.2388 0.38342 0.43651 0.0
C171 C 0.25128 0.40869 0.51351 0.0
N172 N 0.22753 0.39414 0.52306 0.0
N173 N 0.25867 0.40233 0.4593 0.0
C174 C 0.09777 0.28221 0.504 0.0
C175 C 0.07443 0.27998 0.42395 0.0
N176 N 0.11117 0.29908 0.46227 0.0
N177 N 0.09668 0.29755 0.41228 0.0
N178 N 0.07466 0.27007 0.48118 0.0
H179 H 0.12666 0.28185 0.55977 0.0
H180 H 0.09658 0.25872 0.57629 0.0
H181 H 0.10616 0.28659 0.60832 0.0
C182 C 0.10743 0.27699 0.56541 0.0
C183 C 0.23844 0.36925 0.37867 0.0
H184 H 0.224 0.3514 0.38337 0.0
H185 H 0.25621 0.37015 0.37466 0.0
H186 H 0.23514 0.37593 0.33223 0.0
O187 O 0.17263 0.37635 0.4649 0.0
O188 O 0.13492 0.34833 0.46397 0.0
C189 C 0.16598 0.33797 0.32954 0.0
O190 O 0.14587 0.32552 0.57406 0.0
O191 O 0.18362 0.35312 0.57717 0.0
Zn192 Zn 0.29253 0.16949 0.86992 0.0
O193 O 0.29065 0.16978 0.9771 0.0
C194 C 0.2945 0.12749 0.87849 0.0
Zn195 Zn 0.25565 0.13912 0.8679 0.0
C196 C 0.27191 0.15542 0.00779 0.0
O197 O 0.25372 0.14049 0.974 0.0
C198 C 0.2763 0.15292 0.7302 0.0
O199 O 0.24039 0.16004 0.85725 0.0
O200 O 0.2769 0.18986 0.8614 0.0
N201 N 0.22232 0.11048 0.86215 0.0
C202 C 0.20505 0.10275 0.81364 0.0
C203 C 0.19804 0.07488 0.87367 0.0
N204 N 0.21764 0.09319 0.90013 0.0
N205 N 0.18982 0.08024 0.8187 0.0
C206 C 0.33507 0.21831 0.89751 0.0
C207 C 0.36465 0.21764 0.85189 0.0
N208 N 0.32657 0.19722 0.87304 0.0
N209 N 0.34501 0.19681 0.84499 0.0
N210 N 0.35882 0.23145 0.88443 0.0
H211 H 0.30559 0.21137 0.96286 0.0
H212 H 0.31259 0.23303 0.90319 0.0
H213 H 0.33228 0.23898 0.97445 0.0
C214 C 0.32052 0.22575 0.93713 0.0
C215 C 0.2019 0.11749 0.76468 0.0
H216 H 0.2045 0.13294 0.79008 0.0
H217 H 0.18345 0.1085 0.74158 0.0
H218 H 0.21538 0.12261 0.72491 0.0
O219 O 0.25827 0.13798 0.76161 0.0
O220 O 0.29394 0.16871 0.76334 0.0
C221 C 0.25414 0.18133 0.85443 0.0
O222 O 0.30775 0.14878 0.87555 0.0
O223 O 0.27159 0.11852 0.87783 0.0
Zn224 Zn 0.78954 0.16197 0.67201 0.0
O225 O 0.75239 0.15207 0.66708 0.0
C226 C 0.78358 0.14228 0.80919 0.0
Zn227 Zn 0.78057 0.12601 0.66834 0.0
C228 C 0.73674 0.13107 0.66391 0.0
O229 O 0.74367 0.11666 0.66442 0.0
C230 C 0.83336 0.15703 0.67605 0.0
O231 O 0.78072 0.12704 0.56238 0.0
O232 O 0.79066 0.16254 0.56456 0.0
N233 N 0.77121 0.09283 0.66276 0.0
C234 C 0.77856 0.08206 0.62093 0.0
C235 C 0.74944 0.05685 0.67624 0.0
N236 N 0.75326 0.07713 0.69762 0.0
N237 N 0.76539 0.0596 0.62892 0.0
C238 C 0.81315 0.21267 0.71683 0.0
C239 C 0.81338 0.2282 0.62552 0.0
N240 N 0.80034 0.1959 0.67175 0.0
N241 N 0.80037 0.20566 0.61521 0.0
N242 N 0.82185 0.23308 0.68883 0.0
H243 H 0.79649 0.19837 0.8081 0.0
H244 H 0.82361 0.22489 0.81916 0.0
H245 H 0.82543 0.20013 0.79639 0.0
C246 C 0.81506 0.20896 0.78934 0.0
C247 C 0.79677 0.09296 0.56709 0.0
H248 H 0.78703 0.08972 0.51848 0.0
H249 H 0.80834 0.08521 0.56413 0.0
H250 H 0.80845 0.11135 0.57522 0.0
O251 O 0.81773 0.13612 0.67194 0.0
O252 O 0.82644 0.1714 0.67749 0.0
C253 C 0.78566 0.1448 0.5312 0.0
O254 O 0.78786 0.16005 0.77864 0.0
O255 O 0.77984 0.12499 0.77521 0.0
Zn256 Zn 0.84474 0.64706 0.67127 0.0
O257 O 0.84755 0.64912 0.7784 0.0
C258 C 0.79447 0.63831 0.67882 0.0
Zn259 Zn 0.84366 0.67887 0.67278 0.0
C260 C 0.84695 0.66482 0.81126 0.0
O261 O 0.84527 0.67996 0.77956 0.0
C262 C 0.84143 0.66103 0.53292 0.0
O263 O 0.88165 0.69771 0.67065 0.0
O264 O 0.88276 0.66639 0.66286 0.0
N265 N 0.84172 0.70766 0.67146 0.0
C266 C 0.85009 0.72453 0.62741 0.0
C267 C 0.82743 0.72941 0.69419 0.0
N268 N 0.82785 0.71086 0.7133 0.0
N269 N 0.84111 0.73825 0.64006 0.0
C270 C 0.86288 0.61341 0.69264 0.0
C271 C 0.83523 0.58346 0.64385 0.0
N272 N 0.8459 0.61791 0.66976 0.0
N273 N 0.82872 0.59929 0.63954 0.0
N274 N 0.85673 0.59203 0.67634 0.0
H275 H 0.90043 0.6386 0.70108 0.0
H276 H 0.88929 0.62009 0.77063 0.0
H277 H 0.88174 0.64194 0.7609 0.0
C278 C 0.88473 0.62944 0.73401 0.0
C279 C 0.86777 0.72808 0.57373 0.0
H280 H 0.8803 0.72224 0.58896 0.0
H281 H 0.87859 0.7462 0.56123 0.0
H282 H 0.8578 0.71835 0.52831 0.0
O283 O 0.84179 0.67715 0.56581 0.0
O284 O 0.84193 0.64534 0.56462 0.0
C285 C 0.89374 0.68781 0.66384 0.0
O286 O 0.80652 0.62819 0.67842 0.0
O287 O 0.80557 0.65968 0.67543 0.0
H288 H 0.08955 0.53637 0.7404 0.0
H289 H 0.06637 0.52789 0.6353 0.0
H290 H 0.03469 0.45659 0.66948 0.0
H291 H 0.05609 0.46497 0.77611 0.0
H292 H 0.05751 0.5063 0.52154 0.0
H293 H 0.97316 0.42894 0.63666 0.0
H294 H 0.95295 0.41577 0.74365 0.0
H295 H 0.99241 0.48338 0.8235 0.0
H296 H 0.01214 0.49722 0.71644 0.0
H297 H 0.98106 0.44443 0.27716 0.0
H298 H -0.00254 0.44784 0.38669 0.0
H299 H 0.95872 0.48016 0.45604 0.0
H300 H 0.94038 0.47547 0.34481 0.0
H301 H 0.96927 0.45522 0.55476 0.0
H302 H 0.00841 0.51393 0.3977 0.0
H303 H 0.02301 0.52868 0.28619 0.0
H304 H 0.07169 0.50282 0.29354 0.0
H305 H 0.05647 0.48704 0.40418 0.0
C306 C 0.07782 0.51894 0.7249 0.0
C307 C 0.07367 0.50139 0.76777 0.0
C308 C 0.06473 0.51409 0.6648 0.0
C309 C 0.04793 0.4916 0.64654 0.0
C310 C 0.04684 0.47407 0.68414 0.0
C311 C 0.05946 0.47891 0.74458 0.0
C312 C 0.03 0.48637 0.59216 0.0
C313 C 0.03826 0.49518 0.52904 0.0
C314 C 0.00472 0.47234 0.60223 0.0
C315 C 0.9943 0.46409 0.66854 0.0
C316 C 0.97753 0.44103 0.67716 0.0
C317 C 0.966 0.43348 0.73784 0.0
C318 C 0.97119 0.4488 0.79055 0.0
C319 C 0.98823 0.47161 0.7828 0.0
C320 C -0.00039 0.47933 0.72204 0.0
C321 C 0.97423 0.45073 0.31545 0.0
C322 C 0.95938 0.45997 0.30103 0.0
C323 C 0.98419 0.45304 0.37861 0.0
C324 C 0.97997 0.46501 0.42799 0.0
C325 C 0.9624 0.47117 0.41755 0.0
C326 C 0.9519 0.46841 0.3542 0.0
C327 C -0.003 0.47426 0.48483 0.0
C328 C 0.98857 0.46636 0.54803 0.0
C329 C 0.02196 0.48948 0.47522 0.0
C330 C 0.03134 0.49927 0.40912 0.0
C331 C 0.02206 0.5112 0.37527 0.0
C332 C 0.03037 0.51968 0.31207 0.0
C333 C 0.0482 0.5166 0.28253 0.0
C334 C 0.05777 0.50507 0.31624 0.0
C335 C 0.04931 0.49634 0.37913 0.0
H336 H 0.05471 0.52325 0.23374 0.0
H337 H 0.96206 0.44302 0.83738 0.0
H338 H 0.54841 0.56544 0.81743 0.0
H339 H 0.57485 0.57694 0.72399 0.0
H340 H 0.5128 0.54511 0.58994 0.0
H341 H 0.48574 0.53474 0.68464 0.0
H342 H 0.57436 0.54425 0.65911 0.0
H343 H 0.52818 0.56205 0.43347 0.0
H344 H 0.50917 0.58483 0.40983 0.0
H345 H 0.54891 0.62965 0.57383 0.0
H346 H 0.56848 0.60736 0.59792 0.0
H347 H 0.55255 0.48646 0.35711 0.0
H348 H 0.55796 0.50469 0.46644 0.0
H349 H 0.61071 0.56857 0.38508 0.0
H350 H 0.60542 0.55 0.27594 0.0
H351 H 0.57022 0.56807 0.42998 0.0
H352 H 0.62688 0.54969 0.5099 0.0
H353 H 0.64516 0.52626 0.53083 0.0
H354 H 0.58783 0.48525 0.66307 0.0
H355 H 0.5681 0.50732 0.63936 0.0
C356 C 0.54006 0.56221 0.76851 0.0
C357 C 0.51467 0.54938 0.75889 0.0
C358 C 0.55545 0.56859 0.71466 0.0
C359 C 0.54589 0.56182 0.65003 0.0
C360 C 0.52063 0.55082 0.63943 0.0
C361 C 0.50515 0.54476 0.69352 0.0
C362 C 0.56154 0.56155 0.59688 0.0
C363 C 0.57395 0.54987 0.60923 0.0
C364 C 0.56132 0.56931 0.5323 0.0
C365 C 0.54977 0.58295 0.51764 0.0
C366 C 0.53303 0.57686 0.46424 0.0
C367 C 0.52211 0.58967 0.45082 0.0
C368 C 0.5278 0.60866 0.49035 0.0
C369 C 0.54447 0.6149 0.54334 0.0
C370 C 0.55545 0.60216 0.55697 0.0
C371 C 0.56633 0.50406 0.36402 0.0
C372 C 0.5788 0.5169 0.3093 0.0
C373 C 0.56936 0.51453 0.42609 0.0
C374 C 0.58468 0.538 0.43358 0.0
C375 C 0.59892 0.55044 0.38024 0.0
C376 C 0.59611 0.53986 0.31837 0.0
C377 C 0.58175 0.54961 0.49185 0.0
C378 C 0.57158 0.56329 0.48045 0.0
C379 C 0.58407 0.54371 0.55748 0.0
C380 C 0.59588 0.53025 0.57244 0.0
C381 C 0.61792 0.53551 0.5428 0.0
C382 C 0.62858 0.52244 0.55521 0.0
C383 C 0.61783 0.50442 0.59877 0.0
C384 C 0.5962 0.49926 0.62946 0.0
C385 C 0.58517 0.51199 0.61618 0.0
H386 H 0.62622 0.49441 0.60857 0.0
H387 H 0.51932 0.61855 0.47989 0.0
H388 H 0.39759 0.94473 0.62944 0.0
H389 H 0.4121 0.94652 0.51687 0.0
H390 H 0.46036 0.92422 0.58729 0.0
H391 H 0.44423 0.92055 0.69941 0.0
H392 H 0.47696 0.97594 0.55415 0.0
H393 H 0.44354 0.90117 0.47008 0.0
H394 H 0.41109 0.86203 0.44545 0.0
H395 H 0.37564 0.8861 0.31549 0.0
H396 H 0.40774 0.92534 0.34006 0.0
H397 H 0.5338 0.03742 0.25971 0.0
H398 H 0.52244 0.0112 0.35197 0.0
H399 H 0.44726 0.98092 0.29175 0.0
H400 H 0.45825 0.00511 0.19859 0.0
H401 H 0.45366 0.94928 0.32012 0.0
H402 H 0.47683 0.02132 0.43498 0.0
H403 H 0.50545 0.06116 0.46643 0.0
H404 H 0.55612 0.04289 0.5428 0.0
H405 H 0.52771 0.00293 0.51214 0.0
C406 C 0.41001 0.9387 0.62005 0.0
C407 C 0.42083 0.93366 0.67308 0.0
C408 C 0.41834 0.93974 0.55572 0.0
C409 C 0.43763 0.93596 0.54449 0.0
C410 C 0.44554 0.9273 0.59533 0.0
C411 C 0.43656 0.92551 0.6593 0.0
C412 C 0.45366 0.94782 0.48912 0.0
C413 C 0.47247 0.96996 0.50278 0.0
C414 C 0.44727 0.93994 0.42287 0.0
C415 C 0.42802 0.9163 0.40714 0.0
C416 C 0.42874 0.89815 0.43661 0.0
C417 C 0.41043 0.87591 0.42256 0.0
C418 C 0.39129 0.87158 0.37897 0.0
C419 C 0.39048 0.88948 0.34917 0.0
C420 C 0.40878 0.91172 0.36301 0.0
C421 C 0.51478 0.02546 0.26717 0.0
C422 C 0.49704 0.02413 0.22206 0.0
C423 C 0.5083 0.01042 0.31984 0.0
C424 C 0.48384 0.99416 0.32948 0.0
C425 C 0.46619 0.99332 0.28585 0.0
C426 C 0.47261 0.00787 0.23283 0.0
C427 C 0.47599 0.97803 0.38497 0.0
C428 C 0.45879 0.95513 0.37132 0.0
C429 C 0.48337 0.98533 0.45169 0.0
C430 C 0.50033 0.00926 0.47056 0.0
C431 C 0.49412 0.02585 0.45833 0.0
C432 C 0.51026 0.04842 0.47616 0.0
C433 C 0.53261 0.05456 0.5065 0.0
C434 C 0.53881 0.03812 0.51932 0.0
C435 C 0.52267 0.01551 0.50193 0.0
H436 H 0.54511 0.07204 0.52015 0.0
H437 H 0.37711 0.85437 0.36822 0.0
H438 H 0.70809 0.83336 0.36239 0.0
H439 H 0.70895 0.83385 0.48393 0.0
H440 H 0.64946 0.84664 0.48525 0.0
H441 H 0.64893 0.84673 0.36339 0.0
H442 H 0.6816 0.87337 0.57211 0.0
H443 H 0.64444 0.7939 0.52629 0.0
H444 H 0.63909 0.75787 0.4828 0.0
H445 H 0.70469 0.77112 0.58398 0.0
H446 H 0.71073 0.80743 0.62687 0.0
H447 H 0.65393 0.85083 0.91625 0.0
H448 H 0.6533 0.85018 0.79461 0.0
H449 H 0.71736 0.84433 0.79521 0.0
H450 H 0.7181 0.84495 0.91723 0.0
H451 H 0.68331 0.81441 0.70837 0.0
H452 H 0.72009 0.89379 0.7543 0.0
H453 H 0.72341 0.92812 0.80533 0.0
H454 H 0.65696 0.91385 0.70716 0.0
H455 H 0.65306 0.87926 0.65625 0.0
C456 C 0.69511 0.83622 0.38841 0.0
C457 C 0.67854 0.84016 0.35277 0.0
C458 C 0.69546 0.83625 0.45826 0.0
C459 C 0.67915 0.8401 0.49452 0.0
C460 C 0.66231 0.84368 0.4589 0.0
C461 C 0.66195 0.84364 0.389 0.0
C462 C 0.68029 0.84136 0.56924 0.0
C463 C 0.68161 0.86025 0.6017 0.0
C464 C 0.681 0.82467 0.60865 0.0
C465 C 0.67814 0.80349 0.57936 0.0
C466 C 0.65793 0.7893 0.53842 0.0
C467 C 0.65473 0.76879 0.51403 0.0
C468 C 0.67151 0.7622 0.53078 0.0
C469 C 0.69169 0.77623 0.57114 0.0
C470 C 0.69503 0.79679 0.59537 0.0
C471 C 0.66804 0.84959 0.89071 0.0
C472 C 0.68613 0.84803 0.92693 0.0
C473 C 0.66769 0.84929 0.82088 0.0
C474 C 0.68541 0.84741 0.7853 0.0
C475 C 0.7035 0.84585 0.82129 0.0
C476 C 0.70395 0.84628 0.89121 0.0
C477 C 0.68456 0.8463 0.71075 0.0
C478 C 0.68333 0.82749 0.67848 0.0
C479 C 0.68384 0.86299 0.67157 0.0
C480 C 0.68617 0.88381 0.70199 0.0
C481 C 0.70608 0.89787 0.74403 0.0
C482 C 0.70809 0.9174 0.77285 0.0
C483 C 0.69037 0.92313 0.75964 0.0
C484 C 0.67065 0.90938 0.71742 0.0
C485 C 0.66854 0.88982 0.68853 0.0
H486 H 0.69196 0.93826 0.78199 0.0
H487 H 0.66886 0.74617 0.51285 0.0
H488 H 0.18517 0.86364 0.64906 0.0
H489 H 0.18452 0.86317 0.77044 0.0
H490 H 0.18911 0.8026 0.76774 0.0
H491 H 0.18895 0.80257 0.64595 0.0
H492 H 0.15743 0.7987 0.85613 0.0
H493 H 0.23876 0.85621 0.80867 0.0
H494 H 0.27 0.8908 0.75564 0.0
H495 H 0.24374 0.92959 0.8558 0.0
H496 H 0.21204 0.89514 0.90865 0.0
H497 H 0.18715 0.80197 0.20051 0.0
H498 H 0.18817 0.80226 0.0789 0.0
H499 H 0.18167 0.86182 0.07905 0.0
H500 H 0.18112 0.8619 0.20082 0.0
H501 H 0.21458 0.86613 0.99209 0.0
H502 H 0.13335 0.80827 0.04034 0.0
H503 H 0.10193 0.77342 0.09185 0.0
H504 H 0.12816 0.73503 0.98918 0.0
H505 H 0.16014 0.76974 0.93832 0.0
C506 C 0.18602 0.85019 0.67408 0.0
C507 C 0.18713 0.83317 0.63732 0.0
C508 C 0.1858 0.85002 0.74382 0.0
C509 C 0.18711 0.83302 0.77883 0.0
C510 C 0.18811 0.81593 0.74223 0.0
C511 C 0.18812 0.816 0.67241 0.0
C512 C 0.18723 0.83295 0.85338 0.0
C513 C 0.17019 0.81336 0.88579 0.0
C514 C 0.20348 0.8522 0.89255 0.0
C515 C 0.22286 0.87304 0.86206 0.0
C516 C 0.23955 0.87209 0.8191 0.0
C517 C 0.25733 0.89167 0.78908 0.0
C518 C 0.25876 0.91235 0.80208 0.0
C519 C 0.24254 0.91354 0.8456 0.0
C520 C 0.22467 0.89399 0.87565 0.0
C521 C 0.18586 0.81512 0.17477 0.0
C522 C 0.18391 0.83184 0.21071 0.0
C523 C 0.18638 0.81522 0.10501 0.0
C524 C 0.18469 0.8319 0.06933 0.0
C525 C 0.18297 0.84874 0.10516 0.0
C526 C 0.18255 0.8487 0.17494 0.0
C527 C 0.18478 0.83188 0.99482 0.0
C528 C 0.20186 0.85146 0.96243 0.0
C529 C 0.16862 0.81259 0.95568 0.0
C530 C 0.14933 0.79167 0.98607 0.0
C531 C 0.13258 0.79243 0.02924 0.0
C532 C 0.11467 0.7727 0.05834 0.0
C533 C 0.11313 0.75204 0.04406 0.0
C534 C 0.12944 0.75106 1.00043 0.0
C535 C 0.14748 0.77076 0.9715 0.0
H536 H 0.09926 0.73678 0.06664 0.0
H537 H 0.27246 0.92746 0.77845 0.0
H538 H 0.20323 0.36157 0.69547 0.0
H539 H 0.20308 0.36003 0.81724 0.0
H540 H 0.1255 0.31586 0.81102 0.0
H541 H 0.12556 0.31705 0.68932 0.0
H542 H 0.13906 0.34944 0.90408 0.0
H543 H 0.15881 0.29227 0.85901 0.0
H544 H 0.17958 0.27268 0.81711 0.0
H545 H 0.24725 0.32553 0.89941 0.0
H546 H 0.22675 0.34522 0.94298 0.0
H547 H 0.12691 0.31508 0.24392 0.0
H548 H 0.12637 0.31564 0.1221 0.0
H549 H 0.20361 0.36163 0.12472 0.0
H550 H 0.20429 0.36122 0.24645 0.0
H551 H 0.18955 0.32671 0.03362 0.0
H552 H 0.16485 0.38024 0.09256 0.0
H553 H 0.13948 0.39301 0.14773 0.0
H554 H 0.07658 0.34196 0.04089 0.0
H555 H 0.10148 0.32861 0.9859 0.0
C556 C 0.18612 0.35148 0.71993 0.0
C557 C 0.16443 0.33927 0.68224 0.0
C558 C 0.18608 0.3505 0.78969 0.0
C559 C 0.1643 0.33764 0.82361 0.0
C560 C 0.14257 0.3258 0.7862 0.0
C561 C 0.14265 0.32647 0.71642 0.0
C562 C 0.16412 0.33723 0.89803 0.0
C563 C 0.14991 0.34422 0.93233 0.0
C564 C 0.17843 0.33071 0.93538 0.0
C565 C 0.19131 0.32032 0.90357 0.0
C566 C 0.17818 0.29986 0.86738 0.0
C567 C 0.18984 0.2886 0.84406 0.0
C568 C 0.21469 0.2978 0.85588 0.0
C569 C 0.22798 0.31838 0.89056 0.0
C570 C 0.21634 0.32955 0.9148 0.0
C571 C 0.14381 0.32531 0.21868 0.0
C572 C 0.16568 0.33808 0.2553 0.0
C573 C 0.14344 0.32571 0.1489 0.0
C574 C 0.16492 0.33883 0.11401 0.0
C575 C 0.18679 0.35141 0.15038 0.0
C576 C 0.18714 0.35117 0.22015 0.0
C577 C 0.16471 0.33911 0.03965 0.0
C578 C 0.17886 0.33211 1.00536 0.0
C579 C 0.15 0.34524 1.0025 0.0
C580 C 0.13502 0.3533 0.03548 0.0
C581 C 0.14557 0.37161 0.08122 0.0
C582 C 0.13129 0.37898 0.11238 0.0
C583 C 0.10645 0.36831 0.09776 0.0
C584 C 0.09583 0.35022 0.0521 0.0
C585 C 0.11002 0.34275 0.0209 0.0
H586 H 0.09543 0.37409 0.12177 0.0
H587 H 0.22366 0.28902 0.838 0.0
H588 H 0.24242 0.12051 0.64448 0.0
H589 H 0.24107 0.12087 0.52301 0.0
H590 H 0.30878 0.18418 0.52513 0.0
H591 H 0.30985 0.18428 0.64692 0.0
H592 H 0.27884 0.18608 0.43869 0.0
H593 H 0.30427 0.13229 0.48027 0.0
H594 H 0.30202 0.09833 0.52781 0.0
H595 H 0.23282 0.05659 0.4307 0.0
H596 H 0.23455 0.09035 0.38301 0.0
H597 H 0.30652 0.18624 0.09536 0.0
H598 H 0.30662 0.1856 0.21714 0.0
H599 H 0.23693 0.12432 0.21101 0.0
H600 H 0.23677 0.12475 0.08919 0.0
H601 H 0.267 0.12106 0.29914 0.0
H602 H 0.24244 0.17512 0.25497 0.0
H603 H 0.2454 0.20916 0.20585 0.0
H604 H 0.31365 0.25063 0.30796 0.0
H605 H 0.31126 0.21679 0.35698 0.0
C606 C 0.25706 0.13454 0.61928 0.0
C607 C 0.27623 0.15241 0.65588 0.0
C608 C 0.25635 0.13464 0.54947 0.0
C609 C 0.27496 0.15244 0.51427 0.0
C610 C 0.29418 0.17023 0.55076 0.0
C611 C 0.29484 0.1702 0.62059 0.0
C612 C 0.27423 0.15276 0.43969 0.0
C613 C 0.27661 0.17197 0.40829 0.0
C614 C 0.27065 0.13416 0.39944 0.0
C615 C 0.26946 0.11386 0.42849 0.0
C616 C 0.2885 0.11589 0.46942 0.0
C617 C 0.28735 0.09667 0.49622 0.0
C618 C 0.26732 0.07532 0.48213 0.0
C619 C 0.24835 0.07314 0.44139 0.0
C620 C 0.24942 0.0923 0.4144 0.0
C621 C 0.29113 0.17266 0.11981 0.0
C622 C 0.2716 0.15558 0.08213 0.0
C623 C 0.29118 0.17236 0.18966 0.0
C624 C 0.27168 0.155 0.22372 0.0
C625 C 0.25219 0.13791 0.18619 0.0
C626 C 0.25209 0.13824 0.11636 0.0
C627 C 0.27181 0.15444 0.29825 0.0
C628 C 0.26926 0.13517 0.3296 0.0
C629 C 0.27531 0.17301 0.33845 0.0
C630 C 0.27678 0.19339 0.3091 0.0
C631 C 0.25818 0.19148 0.26651 0.0
C632 C 0.25973 0.21074 0.23877 0.0
C633 C 0.27973 0.23204 0.25363 0.0
C634 C 0.29818 0.23412 0.29641 0.0
C635 C 0.29673 0.2149 0.32423 0.0
H636 H 0.2809 0.24693 0.23211 0.0
H637 H 0.26649 0.06047 0.50289 0.0
H638 H 0.79973 0.18048 0.44706 0.0
H639 H 0.79847 0.17948 0.32497 0.0
H640 H 0.7681 0.10733 0.32522 0.0
H641 H 0.76988 0.10823 0.44678 0.0
H642 H 0.80454 0.12721 0.23599 0.0
H643 H 0.73276 0.12928 0.28978 0.0
H644 H 0.70931 0.14431 0.34415 0.0
H645 H 0.75064 0.20703 0.24355 0.0
H646 H 0.77458 0.19248 0.18923 0.0
H647 H 0.77034 0.10605 0.89065 0.0
H648 H 0.76969 0.10564 0.01255 0.0
H649 H 0.79557 0.17711 0.01821 0.0
H650 H 0.79584 0.17752 0.8972 0.0
H651 H 0.76104 0.1571 0.10505 0.0
H652 H 0.83282 0.15429 0.05175 0.0
H653 H 0.85624 0.13891 0.99919 0.0
H654 H 0.8142 0.07647 0.10068 0.0
H655 H 0.79026 0.09136 0.15299 0.0
C656 C 0.79288 0.1644 0.42115 0.0
C657 C 0.78506 0.14446 0.45698 0.0
C658 C 0.79208 0.16384 0.35125 0.0
C659 C 0.78324 0.14331 0.31563 0.0
C660 C 0.77536 0.12341 0.35136 0.0
C661 C 0.77631 0.12397 0.42107 0.0
C662 C 0.78236 0.1425 0.24122 0.0
C663 C 0.79463 0.13334 0.20741 0.0
C664 C 0.77004 0.1511 0.20359 0.0
C665 C 0.75562 0.15987 0.23595 0.0
C666 C 0.73698 0.14634 0.27965 0.0
C667 C 0.72358 0.15476 0.31039 0.0
C668 C 0.72853 0.17663 0.29745 0.0
C669 C 0.74685 0.19011 0.25359 0.0
C670 C 0.76033 0.18177 0.22277 0.0
C671 C 0.7759 0.1217 0.9178 0.0
C672 C 0.78314 0.14185 0.88353 0.0
C673 C 0.77561 0.12146 0.9877 0.0
C674 C 0.78282 0.14141 0.02509 0.0
C675 C 0.78986 0.16146 0.99089 0.0
C676 C 0.79004 0.16168 0.92123 0.0
C677 C 0.78307 0.14158 0.09963 0.0
C678 C 0.77075 0.15072 0.13356 0.0
C679 C 0.79524 0.13283 0.13742 0.0
C680 C 0.80956 0.12385 0.10568 0.0
C681 C 0.82842 0.13721 0.06237 0.0
C682 C 0.84182 0.12859 0.0327 0.0
C683 C 0.83666 0.1067 0.04641 0.0
C684 C 0.81814 0.09341 0.08996 0.0
C685 C 0.80466 0.10193 0.11965 0.0
H686 H 0.84707 0.10007 0.02342 0.0
H687 H 0.71813 0.18312 0.32129 0.0
H688 H 0.85031 0.63461 0.44769 0.0
H689 H 0.85197 0.63584 0.32601 0.0
H690 H 0.83443 0.6888 0.32784 0.0
H691 H 0.83253 0.68753 0.44942 0.0
H692 H 0.80884 0.65787 0.23145 0.0
H693 H 0.89188 0.70067 0.30153 0.0
H694 H 0.92943 0.70872 0.36128 0.0
H695 H 0.92907 0.65364 0.25673 0.0
H696 H 0.89128 0.64502 0.19706 0.0
H697 H 0.84006 0.69247 0.89681 0.0
H698 H 0.8396 0.69202 0.01858 0.0
H699 H 0.85461 0.63745 0.01659 0.0
H700 H 0.85514 0.6378 0.89465 0.0
H701 H 0.88184 0.66956 0.11298 0.0
H702 H 0.798 0.62703 0.04352 0.0
H703 H 0.76106 0.62031 0.98304 0.0
H704 H 0.76378 0.67662 0.08677 0.0
H705 H 0.80097 0.68389 0.14718 0.0
C706 C 0.8467 0.64647 0.42226 0.0
C707 C 0.84142 0.66107 0.45864 0.0
C708 C 0.84782 0.64726 0.35255 0.0
C709 C 0.84363 0.66262 0.31743 0.0
C710 C 0.83784 0.67686 0.35356 0.0
C711 C 0.83687 0.67619 0.42328 0.0
C712 C 0.84512 0.66372 0.24314 0.0
C713 C 0.82494 0.66073 0.2057 0.0
C714 C 0.86595 0.66705 0.20905 0.0
C715 C 0.88857 0.67204 0.24533 0.0
C716 C 0.89965 0.69012 0.29175 0.0
C717 C 0.92102 0.69482 0.32551 0.0
C718 C 0.9316 0.68167 0.31293 0.0
C719 C 0.92084 0.66379 0.26651 0.0
C720 C 0.89944 0.659 0.23268 0.0
C721 C 0.84336 0.68041 0.92215 0.0
C722 C 0.84754 0.66511 0.88561 0.0
C723 C 0.84299 0.68011 0.99195 0.0
C724 C 0.84682 0.66454 0.02708 0.0
C725 C 0.85156 0.6496 0.99083 0.0
C726 C 0.85177 0.64978 0.92097 0.0
C727 C 0.84554 0.66364 0.10143 0.0
C728 C 0.86575 0.66668 0.13883 0.0
C729 C 0.82481 0.6605 0.13557 0.0
C730 C 0.80242 0.65614 0.09938 0.0
C731 C 0.79085 0.6381 0.05303 0.0
C732 C 0.76984 0.63417 0.01883 0.0
C733 C 0.76011 0.64806 0.03093 0.0
C734 C 0.77135 0.66589 0.07737 0.0
C735 C 0.79239 0.66991 0.11164 0.0
H736 H 0.74383 0.64498 1.00444 0.0
H737 H 0.94817 0.68537 0.33901 0.0
H738 H 0.10526 0.36295 0.48742 0.0
H739 H 0.08831 0.38567 0.44752 0.0
H740 H 0.15748 0.43341 0.36609 0.0
H741 H 0.17481 0.41117 0.40817 0.0
H742 H 0.13492 0.45485 0.40792 0.0
H743 H 0.115 0.39059 0.26998 0.0
H744 H 0.09989 0.35033 0.24513 0.0
H745 H 0.029 0.33349 0.30974 0.0
H746 H 0.04382 0.37365 0.33626 0.0
H747 H 0.08936 0.4878 0.12792 0.0
H748 H 0.10887 0.47358 0.20274 0.0
H749 H 0.04219 0.43616 0.30887 0.0
H750 H 0.02255 0.45049 0.23471 0.0
H751 H 0.06331 0.41044 0.25812 0.0
H752 H 0.08639 0.47728 0.39543 0.0
H753 H 0.10361 0.51838 0.41291 0.0
H754 H 0.17134 0.5308 0.33426 0.0
H755 H 0.15438 0.48983 0.31611 0.0
C756 C 0.117 0.37857 0.46239 0.0
C757 C 0.14124 0.38516 0.45006 0.0
C758 C 0.10729 0.3915 0.43946 0.0
C759 C 0.12148 0.41089 0.4023 0.0
C760 C 0.14619 0.41843 0.39434 0.0
C761 C 0.15605 0.40569 0.41834 0.0
C762 C 0.10996 0.42186 0.3662 0.0
C763 C 0.11936 0.44516 0.3749 0.0
C764 C 0.0897 0.40923 0.32281 0.0
C765 C 0.08058 0.3851 0.30579 0.0
C766 C 0.09623 0.37828 0.27936 0.0
C767 C 0.08772 0.35548 0.26498 0.0
C768 C 0.06351 0.33936 0.27597 0.0
C769 C 0.04776 0.34601 0.3013 0.0
C770 C 0.0562 0.36878 0.31604 0.0
C771 C 0.07891 0.47671 0.16756 0.0
C772 C 0.05437 0.47007 0.17507 0.0
C773 C 0.09013 0.46875 0.21051 0.0
C774 C 0.07695 0.4539 0.26125 0.0
C775 C 0.05263 0.44766 0.26996 0.0
C776 C 0.04145 0.45582 0.22752 0.0
C777 C 0.08796 0.44327 0.30094 0.0
C778 C 0.07864 0.42002 0.29199 0.0
C779 C 0.10864 0.45604 0.34248 0.0
C780 C 0.11901 0.48061 0.35376 0.0
C781 C 0.10485 0.48887 0.38137 0.0
C782 C 0.11458 0.51208 0.39155 0.0
C783 C 0.13851 0.52719 0.37433 0.0
C784 C 0.15279 0.51909 0.3474 0.0
C785 C 0.14314 0.49587 0.33733 0.0
H786 H 0.14599 0.54516 0.38209 0.0
H787 H 0.05696 0.32171 0.26475 0.0
H788 H 0.51771 0.58273 0.0681 0.0
H789 H 0.53713 0.62362 0.08311 0.0
H790 H 0.60337 0.62664 0.14772 0.0
H791 H 0.58372 0.58552 0.13462 0.0
H792 H 0.59674 0.65628 0.21679 0.0
H793 H 0.59471 0.63669 0.98717 0.0
H794 H 0.57537 0.61617 0.88193 0.0
H795 H 0.53126 0.64691 0.8759 0.0
H796 H 0.54985 0.66717 0.98197 0.0
H797 H 0.67663 0.77122 0.14193 0.0
H798 H 0.6556 0.73005 0.13817 0.0
H799 H 0.58768 0.72743 0.09996 0.0
H800 H 0.6086 0.7688 0.10369 0.0
H801 H 0.59541 0.69782 0.01759 0.0
H802 H 0.59959 0.71779 0.25111 0.0
H803 H 0.62125 0.73844 0.35409 0.0
H804 H 0.665 0.70734 0.34775 0.0
H805 H 0.6439 0.68679 0.24407 0.0
C806 C 0.53632 0.59209 0.08632 0.0
C807 C 0.54934 0.58105 0.09937 0.0
C808 C 0.54741 0.61544 0.0947 0.0
C809 C 0.57188 0.62823 0.11487 0.0
C810 C 0.58451 0.6171 0.13171 0.0
C811 C 0.57328 0.59363 0.12427 0.0
C812 C 0.58456 0.65324 0.11473 0.0
C813 C 0.59665 0.66536 0.17304 0.0
C814 C 0.58434 0.66508 0.05763 0.0
C815 C 0.57354 0.65332 0.99291 0.0
C816 C 0.58078 0.63898 0.96364 0.0
C817 C 0.56996 0.6274 0.90384 0.0
C818 C 0.55213 0.63025 0.87229 0.0
C819 C 0.54508 0.64471 0.90043 0.0
C820 C 0.55574 0.65624 0.96041 0.0
C821 C 0.65722 0.76194 0.13247 0.0
C822 C 0.64426 0.7733 0.12332 0.0
C823 C 0.64525 0.7384 0.13053 0.0
C824 C 0.62009 0.72574 0.11936 0.0
C825 C 0.60712 0.73696 0.10876 0.0
C826 C 0.61908 0.76056 0.11113 0.0
C827 C 0.60734 0.70077 0.11978 0.0
C828 C 0.59536 0.68868 0.06135 0.0
C829 C 0.60804 0.68899 0.17631 0.0
C830 C 0.62031 0.70091 0.23951 0.0
C831 C 0.61393 0.71546 0.27146 0.0
C832 C 0.62609 0.72713 0.32995 0.0
C833 C 0.64452 0.72423 0.35726 0.0
C834 C 0.65073 0.70956 0.32644 0.0
C835 C 0.63868 0.6979 0.26784 0.0
H836 H 0.654 0.73337 0.40222 0.0
H837 H 0.54377 0.62126 0.82601 0.0
H838 H 0.38707 0.94688 0.01619 0.0
H839 H 0.35876 0.92602 0.1039 0.0
H840 H 0.41877 0.94447 0.24073 0.0
H841 H 0.4472 0.96594 0.15316 0.0
H842 H 0.35021 0.8916 0.1731 0.0
H843 H 0.39672 0.94928 0.40635 0.0
H844 H 0.42683 0.98876 0.43608 0.0
H845 H 0.41285 0.01038 0.24947 0.0
H846 H 0.38233 0.97107 0.21919 0.0
H847 H 0.26617 0.83949 0.42214 0.0
H848 H 0.30772 0.85881 0.38183 0.0
H849 H 0.30416 0.91932 0.35395 0.0
H850 H 0.26315 0.90049 0.39607 0.0
H851 H 0.34949 0.9302 0.3826 0.0
H852 H 0.28474 0.87875 0.22987 0.0
H853 H 0.25026 0.84153 0.19548 0.0
H854 H 0.29598 0.81251 0.2088 0.0
H855 H 0.33065 0.84956 0.24409 0.0
C856 C 0.3942 0.94628 0.06485 0.0
C857 C 0.41921 0.95822 0.07851 0.0
C858 C 0.37805 0.93439 0.11498 0.0
C859 C 0.38663 0.93397 0.17937 0.0
C860 C 0.41172 0.94499 0.1921 0.0
C861 C 0.4279 0.95722 0.14213 0.0
C862 C 0.36896 0.92227 0.23249 0.0
C863 C 0.35029 0.90002 0.21926 0.0
C864 C 0.36903 0.93324 0.29291 0.0
C865 C 0.38763 0.95705 0.30979 0.0
C866 C 0.40011 0.96243 0.37156 0.0
C867 C 0.41713 0.98482 0.38876 0.0
C868 C 0.42173 0.00209 0.34473 0.0
C869 C 0.40929 0.99698 0.28349 0.0
C870 C 0.39216 0.97461 0.26622 0.0
C871 C 0.27451 0.8571 0.40919 0.0
C872 C 0.26121 0.86832 0.41075 0.0
C873 C 0.29824 0.86812 0.38628 0.0
C874 C 0.30877 0.89032 0.36346 0.0
C875 C 0.29637 0.90217 0.3711 0.0
C876 C 0.2728 0.89129 0.39476 0.0
C877 C 0.33057 0.89999 0.32178 0.0
C878 C 0.34997 0.92171 0.33726 0.0
C879 C 0.33085 0.88897 0.26216 0.0
C880 C 0.31016 0.8668 0.24024 0.0
C881 C 0.28738 0.86439 0.22573 0.0
C882 C 0.26782 0.84334 0.2061 0.0
C883 C 0.27092 0.82465 0.20014 0.0
C884 C 0.2936 0.82699 0.21359 0.0
C885 C 0.31321 0.848 0.23339 0.0
H886 H 0.25576 0.80837 0.18496 0.0
H887 H 0.43502 0.01941 0.35792 0.0
H888 H 0.43023 0.04466 0.02932 0.0
H889 H 0.40213 0.05891 0.02991 0.0
H890 H 0.37921 0.03371 0.82849 0.0
H891 H 0.4066 0.01863 0.82871 0.0
H892 H 0.40056 0.08921 0.96563 0.0
H893 H 0.32156 0.02006 0.79686 0.0
H894 H 0.30118 0.97882 0.77772 0.0
H895 H 0.32512 0.97102 0.97097 0.0
H896 H 0.34527 0.0121 0.99178 0.0
H897 H 0.33825 0.1375 0.83142 0.0
H898 H 0.35892 0.11612 0.84489 0.0
H899 H 0.29786 0.06512 0.95144 0.0
H900 H 0.27644 0.08601 0.93458 0.0
H901 H 0.31544 0.04542 0.88146 0.0
H902 H 0.34979 0.10683 0.03483 0.0
H903 H 0.36767 0.14628 0.07466 0.0
H904 H 0.42885 0.16604 0.94929 0.0
H905 H 0.41117 0.12675 0.90793 0.0
C906 C 0.41919 0.04215 0.98518 0.0
C907 C 0.42065 0.0306 0.92888 0.0
C908 C 0.40309 0.05026 0.98562 0.0
C909 C 0.38831 0.04717 0.92955 0.0
C910 C 0.38996 0.03583 0.87297 0.0
C911 C 0.40578 0.0274 0.87291 0.0
C912 C 0.37208 0.05678 0.92896 0.0
C913 C 0.38192 0.07956 0.94753 0.0
C914 C 0.34746 0.04402 0.90769 0.0
C915 C 0.33516 0.01923 0.89556 0.0
C916 C 0.32239 0.00954 0.83539 0.0
C917 C 0.31088 0.98619 0.82424 0.0
C918 C 0.31194 0.97234 0.87301 0.0
C919 C 0.3244 0.98178 0.93313 0.0
C920 C 0.3359 0.0051 0.94458 0.0
C921 C 0.32916 0.12165 0.85732 0.0
C922 C 0.30595 0.11355 0.88296 0.0
C923 C 0.34102 0.10948 0.86526 0.0
C924 C 0.33028 0.08937 0.90105 0.0
C925 C 0.3066 0.08071 0.92421 0.0
C926 C 0.29442 0.09265 0.91476 0.0
C927 C 0.34428 0.07801 0.91577 0.0
C928 C 0.33402 0.05494 0.90002 0.0
C929 C 0.36818 0.09019 0.94283 0.0
C930 C 0.37906 0.11385 0.96796 0.0
C931 C 0.36699 0.11961 0.01547 0.0
C932 C 0.3771 0.14194 0.03833 0.0
C933 C 0.39936 0.15866 0.01443 0.0
C934 C 0.4116 0.15307 0.96773 0.0
C935 C 0.40156 0.13076 0.94462 0.0
H936 H 0.40715 0.17595 0.03218 0.0
H937 H 0.30309 0.95429 0.86432 0.0
H938 H 0.82404 0.27273 0.66632 0.0
H939 H 0.85574 0.31036 0.70581 0.0
H940 H 0.89169 0.28023 0.80915 0.0
H941 H 0.86158 0.2433 0.76445 0.0
H942 H 0.86885 0.32949 0.81827 0.0
H943 H 0.95027 0.31331 0.8264 0.0
H944 H 0.96365 0.29067 0.76296 0.0
H945 H 0.92419 0.29188 0.59014 0.0
H946 H 0.91086 0.31477 0.6521 0.0
H947 H 0.95433 0.40936 0.0355 0.0
H948 H 0.92783 0.37347 0.97869 0.0
H949 H 0.97361 0.39604 0.80719 0.0
H950 H 0.00091 0.43179 0.86539 0.0
H951 H 0.95634 0.35383 0.81513 0.0
H952 H 0.92014 0.39936 0.81853 0.0
H953 H 0.90622 0.42382 0.86747 0.0
H954 H 0.85565 0.36908 0.98682 0.0
H955 H 0.86965 0.34442 0.93938 0.0
C956 C 0.83884 0.27431 0.69724 0.0
C957 C 0.83987 0.25503 0.71434 0.0
C958 C 0.85688 0.29574 0.71999 0.0
C959 C 0.87629 0.29826 0.76023 0.0
C960 C 0.87724 0.27893 0.77727 0.0
C961 C 0.85962 0.25767 0.75312 0.0
C962 C 0.89527 0.32092 0.78588 0.0
C963 C 0.88797 0.33483 0.81718 0.0
C964 C 0.92036 0.32836 0.7827 0.0
C965 C 0.92939 0.3156 0.74415 0.0
C966 C 0.94464 0.30893 0.77469 0.0
C967 C 0.95216 0.296 0.73903 0.0
C968 C 0.94465 0.28975 0.67272 0.0
C969 C 0.92989 0.29665 0.64161 0.0
C970 C 0.92235 0.3096 0.67696 0.0
C971 C 0.95888 0.40669 0.98591 0.0
C972 C 0.97929 0.42372 0.95415 0.0
C973 C 0.94364 0.38615 0.95327 0.0
C974 C 0.94808 0.3824 0.88743 0.0
C975 C 0.9695 0.39867 0.8575 0.0
C976 C 0.98509 0.41912 0.89081 0.0
C977 C 0.92979 0.36197 0.84941 0.0
C978 C 0.93724 0.34855 0.81565 0.0
C979 C 0.9049 0.35546 0.84762 0.0
C980 C 0.89611 0.3701 0.87569 0.0
C981 C 0.90617 0.39259 0.85546 0.0
C982 C 0.89826 0.40649 0.88295 0.0
C983 C 0.88008 0.39802 0.93032 0.0
C984 C 0.86975 0.37562 0.95015 0.0
C985 C 0.87766 0.36167 0.92293 0.0
H986 H 0.87397 0.4088 0.95158 0.0
H987 H 0.95018 0.2795 0.64542 0.0
H988 H 0.7665 0.5947 0.71793 0.0
H989 H 0.72357 0.57527 0.74487 0.0
H990 H 0.71953 0.6336 0.68618 0.0
H991 H 0.7627 0.65342 0.66119 0.0
H992 H 0.70009 0.62028 0.80194 0.0
H993 H 0.69237 0.58357 0.59249 0.0
H994 H 0.70351 0.56371 0.50987 0.0
H995 H 0.68051 0.50798 0.64152 0.0
H996 H 0.66975 0.52772 0.72559 0.0
H997 H 0.56375 0.53663 0.82203 0.0
H998 H 0.60034 0.5542 0.75436 0.0
H999 H 0.64352 0.55768 0.92534 0.0
H1000 H 0.60734 0.54019 0.99319 0.0
H1001 H 0.63893 0.54176 0.73276 0.0
H1002 H 0.68953 0.61328 0.92971 0.0
H1003 H 0.67983 0.63355 0.01483 0.0
H1004 H 0.61662 0.62066 0.90125 0.0
H1005 H 0.62613 0.60066 0.81495 0.0
C1006 C 0.75639 0.60326 0.7098 0.0
C1007 C 0.76797 0.6256 0.68764 0.0
C1008 C 0.73181 0.5921 0.72493 0.0
C1009 C 0.71826 0.6029 0.71687 0.0
C1010 C 0.72964 0.62495 0.69273 0.0
C1011 C 0.75428 0.63623 0.67838 0.0
C1012 C 0.69277 0.59183 0.73865 0.0
C1013 C 0.68669 0.60323 0.78608 0.0
C1014 C 0.67512 0.56966 0.71738 0.0
C1015 C 0.6804 0.55722 0.66557 0.0
C1016 C 0.68979 0.56712 0.60397 0.0
C1017 C 0.69613 0.55592 0.55696 0.0
C1018 C 0.69286 0.53465 0.5706 0.0
C1019 C 0.68312 0.52449 0.63113 0.0
C1020 C 0.67688 0.53568 0.67847 0.0
C1021 C 0.58103 0.54101 0.84501 0.0
C1022 C 0.58275 0.53727 0.91309 0.0
C1023 C 0.60177 0.55081 0.80615 0.0
C1024 C 0.62445 0.55721 0.83509 0.0
C1025 C 0.62609 0.55284 0.90235 0.0
C1026 C 0.60542 0.54287 0.94098 0.0
C1027 C 0.64686 0.57006 0.79722 0.0
C1028 C 0.6523 0.55899 0.74717 0.0
C1029 C 0.66391 0.59265 0.8154 0.0
C1030 C 0.65845 0.60529 0.86614 0.0
C1031 C 0.67365 0.61489 0.92269 0.0
C1032 C 0.66816 0.62631 0.9712 0.0
C1033 C 0.64756 0.62832 0.96358 0.0
C1034 C 0.63249 0.61901 0.90725 0.0
C1035 C 0.63792 0.60761 0.85855 0.0
H1036 H 0.6433 0.63711 1.00125 0.0
H1037 H 0.69772 0.52598 0.53409 0.0
H1038 H 0.90389 0.6072 0.65262 0.0
H1039 H 0.927 0.58897 0.68402 0.0
H1040 H 0.86188 0.53236 0.75884 0.0
H1041 H 0.83887 0.55086 0.72819 0.0
H1042 H 0.89981 0.55038 0.84961 0.0
H1043 H 0.88636 0.5263 0.61982 0.0
H1044 H 0.88714 0.53134 0.4984 0.0
H1045 H 0.96468 0.57328 0.50807 0.0
H1046 H 0.96435 0.56878 0.62976 0.0
H1047 H 0.9454 0.48208 0.93868 0.0
H1048 H 0.92188 0.49468 0.87487 0.0
H1049 H 0.98783 0.54893 0.79535 0.0
H1050 H 0.01154 0.53576 0.85781 0.0
H1051 H 0.95017 0.53234 0.70385 0.0
H1052 H 0.9643 0.55868 0.9308 0.0
H1053 H 0.96487 0.55484 0.05259 0.0
H1054 H 0.88757 0.51099 0.04873 0.0
H1055 H 0.88658 0.51429 0.9267 0.0
C1056 C 0.89462 0.59089 0.67586 0.0
C1057 C 0.86982 0.58056 0.68958 0.0
C1058 C 0.90771 0.58038 0.69294 0.0
C1059 C 0.89611 0.55932 0.72362 0.0
C1060 C 0.87112 0.54863 0.73517 0.0
C1061 C 0.85802 0.5591 0.71769 0.0
C1062 C 0.91041 0.54938 0.74888 0.0
C1063 C 0.91048 0.54607 0.81755 0.0
C1064 C 0.92506 0.54463 0.70724 0.0
C1065 C 0.9253 0.54738 0.63406 0.0
C1066 C 0.90356 0.53678 0.59618 0.0
C1067 C 0.90393 0.5395 0.52726 0.0
C1068 C 0.92594 0.55267 0.49556 0.0
C1069 C 0.94764 0.56311 0.5327 0.0
C1070 C 0.94737 0.56046 0.60164 0.0
C1071 C 0.95486 0.49653 0.90691 0.0
C1072 C 0.98026 0.50831 0.90412 0.0
C1073 C 0.94143 0.50367 0.87042 0.0
C1074 C 0.95318 0.52309 0.83191 0.0
C1075 C 0.97846 0.534 0.82527 0.0
C1076 C 0.99196 0.52655 0.86103 0.0
C1077 C 0.93918 0.53304 0.80432 0.0
C1078 C 0.93935 0.53655 0.73564 0.0
C1079 C 0.92492 0.5383 0.84597 0.0
C1080 C 0.9254 0.53658 0.91954 0.0
C1081 C 0.94744 0.54812 0.95588 0.0
C1082 C 0.94784 0.54604 0.02495 0.0
C1083 C 0.92628 0.53264 0.05836 0.0
C1084 C 0.90426 0.52134 0.02277 0.0
C1085 C 0.90376 0.52332 0.95366 0.0
H1086 H 0.92662 0.53104 0.11184 0.0
H1087 H 0.92618 0.55475 0.44221 0.0
H1088 H 0.46477 0.44614 0.90425 0.0
H1089 H 0.44237 0.40532 0.88364 0.0
H1090 H 0.49371 0.39841 0.00751 0.0
H1091 H 0.51616 0.43926 0.02917 0.0
H1092 H 0.47793 0.37083 0.88465 0.0
H1093 H 0.44633 0.38857 0.07814 0.0
H1094 H 0.43021 0.40931 0.13952 0.0
H1095 H 0.37003 0.38428 1.00105 0.0
H1096 H 0.38604 0.3637 0.93811 0.0
H1097 H 0.40414 0.25259 0.93648 0.0
H1098 H 0.43107 0.29351 0.95289 0.0
H1099 H 0.37559 0.30476 0.86918 0.0
H1100 H 0.34876 0.26399 0.85401 0.0
H1101 H 0.3949 0.33052 0.97513 0.0
H1102 H 0.4258 0.31338 0.78005 0.0
H1103 H 0.44199 0.29364 0.71391 0.0
H1104 H 0.50293 0.31787 0.84941 0.0
H1105 H 0.48692 0.33752 0.91689 0.0
C1106 C 0.47156 0.43601 0.92625 0.0
C1107 C 0.49211 0.44587 0.9688 0.0
C1108 C 0.4587 0.41271 0.91453 0.0
C1109 C 0.46632 0.39894 0.94462 0.0
C1110 C 0.4876 0.40883 0.98398 0.0
C1111 C 0.50032 0.43212 0.99644 0.0
C1112 C 0.45104 0.37413 0.93892 0.0
C1113 C 0.45989 0.3619 0.90507 0.0
C1114 C 0.42739 0.3627 0.96466 0.0
C1115 C 0.41752 0.37478 1.00302 0.0
C1116 C 0.42977 0.38764 0.06045 0.0
C1117 C 0.42064 0.39934 0.09558 0.0
C1118 C 0.39915 0.39816 0.07411 0.0
C1119 C 0.3867 0.3852 0.01757 0.0
C1120 C 0.39579 0.37351 0.98217 0.0
C1121 C 0.39783 0.26393 0.92204 0.0
C1122 C 0.37434 0.2553 0.89532 0.0
C1123 C 0.41316 0.28722 0.93101 0.0
C1124 C 0.4054 0.30222 0.91181 0.0
C1125 C 0.38191 0.29352 0.88484 0.0
C1126 C 0.36654 0.27027 0.87656 0.0
C1127 C 0.42159 0.327 0.91998 0.0
C1128 C 0.41294 0.33931 0.95463 0.0
C1129 C 0.44534 0.33848 0.89445 0.0
C1130 C 0.45503 0.32672 0.8539 0.0
C1131 C 0.44255 0.31435 0.79603 0.0
C1132 C 0.45172 0.30321 0.75825 0.0
C1133 C 0.47344 0.30445 0.77755 0.0
C1134 C 0.48609 0.31689 0.83458 0.0
C1135 C 0.47699 0.32805 0.87258 0.0
H1136 H 0.48051 0.29581 0.74823 0.0
H1137 H 0.39211 0.40724 0.10136 0.0
H1138 H 0.70012 0.09045 0.61754 0.0
H1139 H 0.65644 0.07605 0.62304 0.0
H1140 H 0.67064 0.13904 0.71268 0.0
H1141 H 0.7144 0.15388 0.7057 0.0
H1142 H 0.63925 0.08696 0.77872 0.0
H1143 H 0.64994 0.13899 0.59756 0.0
H1144 H 0.66267 0.15325 0.48442 0.0
H1145 H 0.61449 0.08709 0.40163 0.0
H1146 H 0.60186 0.07235 0.51449 0.0
H1147 H 0.5315 0.07625 0.86031 0.0
H1148 H 0.56992 0.09536 0.80281 0.0
H1149 H 0.54435 0.03892 0.66508 0.0
H1150 H 0.50556 0.01969 0.7218 0.0
H1151 H 0.58019 0.08535 0.61244 0.0
H1152 H 0.56894 0.03188 0.77824 0.0
H1153 H 0.55514 0.01283 0.8855 0.0
H1154 H 0.60343 0.07486 0.99021 0.0
H1155 H 0.61715 0.09442 0.8834 0.0
C1156 C 0.69393 0.10137 0.63737 0.0
C1157 C 0.7106 0.12324 0.66153 0.0
C1158 C 0.66904 0.09317 0.64001 0.0
C1159 C 0.66051 0.10663 0.66746 0.0
C1160 C 0.67704 0.12861 0.69032 0.0
C1161 C 0.70196 0.13701 0.68649 0.0
C1162 C 0.63451 0.09665 0.68064 0.0
C1163 C 0.62639 0.08687 0.74274 0.0
C1164 C 0.6177 0.09559 0.6322 0.0
C1165 C 0.62528 0.1045 0.56453 0.0
C1166 C 0.64234 0.12742 0.55533 0.0
C1167 C 0.64947 0.13561 0.49122 0.0
C1168 C 0.63949 0.12107 0.43587 0.0
C1169 C 0.62227 0.09832 0.44453 0.0
C1170 C 0.61513 0.09005 0.50856 0.0
C1171 C 0.53365 0.06826 0.8162 0.0
C1172 C 0.51578 0.04627 0.79646 0.0
C1173 C 0.55558 0.07923 0.78329 0.0
C1174 C 0.55996 0.06835 0.73044 0.0
C1175 C 0.54115 0.04759 0.7055 0.0
C1176 C 0.51906 0.03659 0.73828 0.0
C1177 C 0.58522 0.07653 0.71149 0.0
C1178 C 0.59312 0.0856 0.64842 0.0
C1179 C 0.60185 0.07636 0.75827 0.0
C1180 C 0.59383 0.0647 0.8228 0.0
C1181 C 0.57641 0.04154 0.82413 0.0
C1182 C 0.56861 0.03063 0.88484 0.0
C1183 C 0.57831 0.04265 0.94465 0.0
C1184 C 0.59588 0.06559 0.94382 0.0
C1185 C 0.60367 0.0766 0.8832 0.0
H1186 H 0.5723 0.03416 0.99159 0.0
H1187 H 0.64503 0.12744 0.38628 0.0
H1188 H 0.52646 0.98938 0.04278 0.0
H1189 H 0.54715 0.96831 0.06229 0.0
H1190 H 0.51584 0.93003 0.87972 0.0
H1191 H 0.49408 0.95039 0.86167 0.0
H1192 H 0.51143 0.90268 0.97094 0.0
H1193 H 0.57771 0.97134 0.89769 0.0
H1194 H 0.60455 0.01261 0.89304 0.0
H1195 H 0.62682 0.01449 0.09663 0.0
H1196 H 0.59988 0.97323 0.10283 0.0
H1197 H 0.59131 0.85668 0.99066 0.0
H1198 H 0.57355 0.87924 0.95222 0.0
H1199 H 0.57827 0.90446 0.15281 0.0
H1200 H 0.5955 0.88148 0.19124 0.0
H1201 H 0.59796 0.93841 0.04129 0.0
H1202 H 0.52711 0.8686 0.11082 0.0
H1203 H 0.5002 0.82723 0.10869 0.0
H1204 H 0.48805 0.82813 0.89834 0.0
H1205 H 0.5152 0.8695 0.8991 0.0
C1206 C 0.52417 0.97664 0.0064 0.0
C1207 C 0.5086 0.97148 0.95076 0.0
C1208 C 0.53614 0.96468 0.01739 0.0
C1209 C 0.53335 0.94775 0.97202 0.0
C1210 C 0.51827 0.94299 0.91546 0.0
C1211 C 0.50591 0.95467 0.90507 0.0
C1212 C 0.54503 0.93421 0.98588 0.0
C1213 C 0.53047 0.91056 0.98499 0.0
C1214 C 0.56986 0.9444 1.00479 0.0
C1215 C 0.58664 0.96917 1.00084 0.0
C1216 C 0.58826 0.98055 0.94158 0.0
C1217 C 0.60348 0.00395 0.93866 0.0
C1218 C 0.61732 0.01617 0.99456 0.0
C1219 C 0.61607 0.00499 0.05338 0.0
C1220 C 0.60086 0.98159 0.05658 0.0
C1221 C 0.58835 0.86697 0.02622 0.0
C1222 C 0.59455 0.86744 0.09367 0.0
C1223 C 0.57833 0.87982 1.00442 0.0
C1224 C 0.57479 0.89354 0.04977 0.0
C1225 C 0.58102 0.89402 0.1172 0.0
C1226 C 0.59059 0.88083 0.13914 0.0
C1227 C 0.56421 0.90715 0.0271 0.0
C1228 C 0.57901 0.93072 0.02633 0.0
C1229 C 0.53978 0.89691 1.00526 0.0
C1230 C 0.52341 0.87208 1.00488 0.0
C1231 C 0.5189 0.85994 0.064 0.0
C1232 C 0.50356 0.83651 0.06307 0.0
C1233 C 0.49249 0.82505 1.00338 0.0
C1234 C 0.49668 0.83702 0.94452 0.0
C1235 C 0.51203 0.86046 0.94518 0.0
H1236 H 0.48061 0.8069 1.00276 0.0
H1237 H 0.62902 0.0343 0.99226 0.0
H1238 H 0.19618 0.73211 0.3309 0.0
H1239 H 0.17512 0.69381 0.28087 0.0
H1240 H 0.10917 0.68017 0.3768 0.0
H1241 H 0.13022 0.71851 0.426 0.0
H1242 H 0.12013 0.64338 0.37863 0.0
H1243 H 0.11331 0.69499 0.22883 0.0
H1244 H 0.13066 0.72996 0.16439 0.0
H1245 H 0.17287 0.70875 0.05313 0.0
H1246 H 0.15604 0.6738 0.1177 0.0
H1247 H 0.03019 0.55153 0.18686 0.0
H1248 H 0.05436 0.58798 0.2445 0.0
H1249 H 0.11478 0.60335 0.1186 0.0
H1250 H 0.09076 0.56687 0.06082 0.0
H1251 H 0.10853 0.63918 0.13295 0.0
H1252 H 0.1161 0.58802 0.27608 0.0
H1253 H 0.10242 0.55397 0.34321 0.0
H1254 H 0.06171 0.57393 0.46618 0.0
H1255 H 0.07514 0.60812 0.39965 0.0
C1256 C 0.17731 0.7207 0.34189 0.0
C1257 C 0.16462 0.72806 0.3814 0.0
C1258 C 0.16532 0.69897 0.31341 0.0
C1259 C 0.14059 0.6843 0.325 0.0
C1260 C 0.12825 0.69127 0.36741 0.0
C1261 C 0.14016 0.71309 0.39503 0.0
C1262 C 0.12711 0.66236 0.2889 0.0
C1263 C 0.11735 0.64239 0.32503 0.0
C1264 C 0.12409 0.66123 0.21885 0.0
C1265 C 0.13362 0.6819 0.17859 0.0
C1266 C 0.1264 0.69785 0.19091 0.0
C1267 C 0.13613 0.71766 0.15434 0.0
C1268 C 0.15295 0.72162 0.10492 0.0
C1269 C 0.1599 0.70568 0.09156 0.0
C1270 C 0.15026 0.68586 0.12808 0.0
C1271 C 0.04863 0.56263 0.17152 0.0
C1272 C 0.05863 0.55621 0.11975 0.0
C1273 C 0.06244 0.58343 0.20459 0.0
C1274 C 0.08648 0.59821 0.18645 0.0
C1275 C 0.09629 0.59214 0.13352 0.0
C1276 C 0.08252 0.5713 0.10057 0.0
C1277 C 0.10132 0.62004 0.22264 0.0
C1278 C 0.11133 0.64006 0.18653 0.0
C1279 C 0.1048 0.62118 0.29264 0.0
C1280 C 0.0965 0.60056 0.33258 0.0
C1281 C 0.1041 0.58508 0.31717 0.0
C1282 C 0.09647 0.5658 0.35525 0.0
C1283 C 0.08121 0.5618 0.40894 0.0
C1284 C 0.07356 0.57708 0.42464 0.0
C1285 C 0.08124 0.59645 0.38689 0.0
H1286 H 0.07534 0.54688 0.4384 0.0
H1287 H 0.16059 0.73702 0.07696 0.0
H1288 H 0.43647 0.49299 0.07806 0.0
H1289 H 0.40091 0.47856 0.14763 0.0
H1290 H 0.44061 0.47025 0.30925 0.0
H1291 H 0.47629 0.48433 0.23936 0.0
H1292 H 0.39589 0.43392 0.29453 0.0
H1293 H 0.42956 0.51341 0.31439 0.0
H1294 H 0.4469 0.55241 0.27547 0.0
H1295 H 0.38058 0.53387 0.16891 0.0
H1296 H 0.36294 0.49465 0.20641 0.0
H1297 H 0.30102 0.41408 0.52154 0.0
H1298 H 0.34139 0.43256 0.47129 0.0
H1299 H 0.30944 0.43561 0.2841 0.0
H1300 H 0.26924 0.41699 0.33422 0.0
H1301 H 0.35286 0.47658 0.3247 0.0
H1302 H 0.32125 0.39615 0.29855 0.0
H1303 H 0.30428 0.35743 0.33953 0.0
H1304 H 0.36791 0.37874 0.46249 0.0
H1305 H 0.38508 0.41772 0.42301 0.0
C1306 C 0.43772 0.48817 0.12844 0.0
C1307 C 0.45929 0.48996 0.15332 0.0
C1308 C 0.41739 0.48001 0.16826 0.0
C1309 C 0.41825 0.47367 0.23393 0.0
C1310 C 0.43963 0.47517 0.25879 0.0
C1311 C 0.46001 0.4833 0.21886 0.0
C1312 C 0.39657 0.46509 0.27584 0.0
C1313 C 0.38676 0.44344 0.30227 0.0
C1314 C 0.38452 0.47743 0.28526 0.0
C1315 C 0.39499 0.50104 0.26284 0.0
C1316 C 0.41872 0.5176 0.28227 0.0
C1317 C 0.4286 0.53976 0.26052 0.0
C1318 C 0.41487 0.5456 0.21964 0.0
C1319 C 0.3912 0.52931 0.20055 0.0
C1320 C 0.38124 0.50712 0.22211 0.0
C1321 C 0.30283 0.41887 0.46984 0.0
C1322 C 0.28228 0.41399 0.43116 0.0
C1323 C 0.32572 0.42931 0.44126 0.0
C1324 C 0.32826 0.43529 0.37401 0.0
C1325 C 0.30778 0.43107 0.33604 0.0
C1326 C 0.28492 0.42035 0.36434 0.0
C1327 C 0.3521 0.44536 0.3422 0.0
C1328 C 0.36226 0.46726 0.3177 0.0
C1329 C 0.36456 0.43334 0.33504 0.0
C1330 C 0.35431 0.4099 0.3585 0.0
C1331 C 0.33152 0.39264 0.33483 0.0
C1332 C 0.32188 0.37063 0.35768 0.0
C1333 C 0.33498 0.36564 0.40375 0.0
C1334 C 0.35777 0.38264 0.42691 0.0
C1335 C 0.36746 0.40469 0.40432 0.0
H1336 H 0.32749 0.34859 0.42136 0.0
H1337 H 0.42255 0.56277 0.20284 0.0
H1338 H 0.83874 0.73846 0.50505 0.0
H1339 H 0.83467 0.76533 0.43681 0.0
H1340 H 0.83468 0.8016 0.61326 0.0
H1341 H 0.84085 0.77553 0.68254 0.0
H1342 H 0.78996 0.77244 0.48473 0.0
H1343 H 0.86886 0.83645 0.56483 0.0
H1344 H 0.91288 0.85372 0.58569 0.0
H1345 H 0.92282 0.84314 0.38016 0.0
H1346 H 0.87877 0.82548 0.35844 0.0
H1347 H 0.75605 0.83981 0.32589 0.0
H1348 H 0.77795 0.83132 0.40864 0.0
H1349 H 0.8236 0.829 0.25616 0.0
H1350 H 0.80256 0.83929 0.17273 0.0
H1351 H 0.84837 0.84415 0.37776 0.0
H1352 H 0.7746 0.78279 0.29064 0.0
H1353 H 0.73132 0.76241 0.25754 0.0
H1354 H 0.71175 0.76228 0.46107 0.0
H1355 H 0.75496 0.78332 0.49536 0.0
C1356 C 0.8395 0.75288 0.52953 0.0
C1357 C 0.84122 0.75541 0.5993 0.0
C1358 C 0.8368 0.76809 0.4903 0.0
C1359 C 0.83505 0.78572 0.52003 0.0
C1360 C 0.83677 0.78845 0.5895 0.0
C1361 C 0.84007 0.7735 0.62888 0.0
C1362 C 0.82736 0.79858 0.47849 0.0
C1363 C 0.80261 0.78842 0.46263 0.0
C1364 C 0.84412 0.81874 0.44733 0.0
C1365 C 0.87053 0.82938 0.46029 0.0
C1366 C 0.8804 0.83755 0.52433 0.0
C1367 C 0.90536 0.84748 0.53625 0.0
C1368 C 0.92063 0.84945 0.48434 0.0
C1369 C 0.91097 0.84156 0.42036 0.0
C1370 C 0.88602 0.83161 0.40822 0.0
C1371 C 0.77163 0.83891 0.31016 0.0
C1372 C 0.77803 0.84089 0.24282 0.0
C1373 C 0.78393 0.83365 0.3576 0.0
C1374 C 0.8022 0.8293 0.33839 0.0
C1375 C 0.8096 0.83241 0.27197 0.0
C1376 C 0.79752 0.83811 0.22441 0.0
C1377 C 0.81078 0.81835 0.38558 0.0
C1378 C 0.83561 0.82852 0.40129 0.0
C1379 C 0.79413 0.79776 0.41551 0.0
C1380 C 0.76806 0.78492 0.39543 0.0
C1381 C 0.76108 0.77865 0.3283 0.0
C1382 C 0.73656 0.767 0.30933 0.0
C1383 C 0.7188 0.76122 0.35718 0.0
C1384 C 0.72554 0.76697 0.42411 0.0
C1385 C 0.75005 0.77877 0.44334 0.0
H1386 H 0.69984 0.75224 0.3424 0.0
H1387 H 0.93995 0.85715 0.49365 0.0
H1388 H 0.15251 0.03792 0.8343 0.0
H1389 H 0.14073 0.00674 0.75428 0.0
H1390 H 0.18395 0.05419 0.60518 0.0
H1391 H 0.19711 0.08484 0.68477 0.0
H1392 H 0.12551 0.99129 0.61211 0.0
H1393 H 0.22608 0.04415 0.57468 0.0
H1394 H 0.26177 0.07668 0.62916 0.0
H1395 H 0.23143 0.05279 0.82101 0.0
H1396 H 0.19571 0.02014 0.76769 0.0
H1397 H 0.1636 0.93232 0.38751 0.0
H1398 H 0.15711 0.96115 0.44174 0.0
H1399 H 0.18348 0.95019 0.62814 0.0
H1400 H 0.19025 0.92182 0.57386 0.0
H1401 H 0.20489 0.99474 0.59855 0.0
H1402 H 0.12432 0.92983 0.60449 0.0
H1403 H 0.08697 0.89775 0.55594 0.0
H1404 H 0.07544 0.94323 0.43712 0.0
H1405 H 0.11294 0.97557 0.48428 0.0
C1406 C 0.1586 0.04175 0.78355 0.0
C1407 C 0.17586 0.06398 0.76662 0.0
C1408 C 0.1517 0.02393 0.73774 0.0
C1409 C 0.16182 0.02824 0.67432 0.0
C1410 C 0.17598 0.0506 0.65404 0.0
C1411 C 0.18334 0.0683 0.70006 0.0
C1412 C 0.16354 0.0103 0.63791 0.0
C1413 C 0.14281 0.99203 0.60848 0.0
C1414 C 0.1861 0.01117 0.63462 0.0
C1415 C 0.20832 0.02976 0.66722 0.0
C1416 C 0.22723 0.04573 0.62849 0.0
C1417 C 0.24738 0.06422 0.65911 0.0
C1418 C 0.24887 0.06678 0.72844 0.0
C1419 C 0.23028 0.05078 0.76733 0.0
C1420 C 0.21009 0.03229 0.73696 0.0
C1421 C 0.16779 0.93607 0.44013 0.0
C1422 C 0.1769 0.92463 0.47704 0.0
C1423 C 0.16401 0.95237 0.47103 0.0
C1424 C 0.16959 0.95759 0.53907 0.0
C1425 C 0.17888 0.94627 0.57571 0.0
C1426 C 0.1825 0.92992 0.54496 0.0
C1427 C 0.16681 0.97553 0.57198 0.0
C1428 C 0.18752 0.99394 0.60116 0.0
C1429 C 0.14415 0.97451 0.57559 0.0
C1430 C 0.12158 0.95509 0.54737 0.0
C1431 C 0.11394 0.93297 0.56756 0.0
C1432 C 0.09272 0.91474 0.54038 0.0
C1433 C 0.07888 0.91844 0.49333 0.0
C1434 C 0.0862 0.94038 0.47349 0.0
C1435 C 0.10743 0.95867 0.50046 0.0
H1436 H 0.06245 0.90431 0.47236 0.0
H1437 H 0.26441 0.08116 0.75202 0.0
H1438 H 0.85508 0.13667 0.61398 0.0
H1439 H 0.89844 0.15247 0.59757 0.0
H1440 H 0.91367 0.21031 0.72112 0.0
H1441 H 0.8702 0.19518 0.73371 0.0
H1442 H 0.93718 0.22486 0.61827 0.0
H1443 H 0.92873 0.16776 0.76588 0.0
H1444 H 0.91128 0.12953 0.81116 0.0
H1445 H 0.92842 0.10646 0.63164 0.0
H1446 H 0.94569 0.14448 0.58486 0.0
H1447 H 0.06286 0.27266 0.60784 0.0
H1448 H 0.02374 0.24822 0.65865 0.0
H1449 H -0.00118 0.20678 0.47977 0.0
H1450 H 0.03824 0.23132 0.4287 0.0
H1451 H 0.98262 0.18381 0.62055 0.0
H1452 H 0.98384 0.24134 0.4712 0.0
H1453 H 0.00364 0.28071 0.43346 0.0
H1454 H 0.00228 0.30359 0.63238 0.0
H1455 H 0.98269 0.26434 0.67127 0.0
C1456 C 0.86775 0.15256 0.6385 0.0
C1457 C 0.85941 0.1648 0.67476 0.0
C1458 C 0.89257 0.16153 0.62955 0.0
C1459 C 0.90947 0.18253 0.65863 0.0
C1460 C 0.90105 0.19415 0.69787 0.0
C1461 C 0.87624 0.18549 0.7052 0.0
C1462 C 0.93558 0.19351 0.64237 0.0
C1463 C 0.94707 0.21586 0.62028 0.0
C1464 C 0.94867 0.18186 0.64369 0.0
C1465 C 0.93834 0.15896 0.67165 0.0
C1466 C 0.92863 0.1545 0.73584 0.0
C1467 C 0.91879 0.13287 0.76181 0.0
C1468 C 0.91869 0.11557 0.72424 0.0
C1469 C 0.92849 0.11988 0.66067 0.0
C1470 C 0.93834 0.14147 0.63444 0.0
C1471 C 0.04945 0.25777 0.58054 0.0
C1472 C 0.05356 0.25358 0.51482 0.0
C1473 C 0.02711 0.2439 0.60945 0.0
C1474 C 0.00859 0.22568 0.57299 0.0
C1475 C 0.0131 0.22061 0.50884 0.0
C1476 C 0.03542 0.23464 0.47965 0.0
C1477 C 0.98355 0.2147 0.59695 0.0
C1478 C 0.97245 0.19255 0.61986 0.0
C1479 C 0.97084 0.22654 0.59776 0.0
C1480 C 0.98193 0.25 0.5741 0.0
C1481 C 0.98784 0.2548 0.50683 0.0
C1482 C -0.00098 0.27707 0.48526 0.0
C1483 C 0.00425 0.29465 0.53051 0.0
C1484 C -0.00174 0.28997 0.5974 0.0
C1485 C 0.98709 0.26772 0.6192 0.0
H1486 H 0.01291 0.31188 0.51374 0.0
H1487 H 0.91106 0.09883 0.74444 0.0
H1488 H 0.20709 0.16827 0.82097 0.0
H1489 H 0.19378 0.18927 0.75217 0.0
H1490 H 0.26601 0.24731 0.7623 0.0
H1491 H 0.2795 0.22652 0.83056 0.0
H1492 H 0.23153 0.25956 0.76193 0.0
H1493 H 0.25192 0.21249 0.63425 0.0
H1494 H 0.25041 0.17689 0.60415 0.0
H1495 H 0.17417 0.14563 0.55964 0.0
H1496 H 0.1752 0.18108 0.59007 0.0
H1497 H 0.22717 0.3163 0.48701 0.0
H1498 H 0.23997 0.29223 0.54094 0.0
H1499 H 0.16546 0.23857 0.54977 0.0
H1500 H 0.15242 0.2624 0.49538 0.0
H1501 H 0.20137 0.22387 0.53801 0.0
H1502 H 0.18377 0.27434 0.66702 0.0
H1503 H 0.18915 0.31193 0.68927 0.0
H1504 H 0.26524 0.33886 0.72736 0.0
H1505 H 0.26038 0.30142 0.70327 0.0
C1506 C 0.22002 0.18566 0.80993 0.0
C1507 C 0.24449 0.19554 0.83007 0.0
C1508 C 0.21239 0.19761 0.77044 0.0
C1509 C 0.2291 0.2196 0.75086 0.0
C1510 C 0.25291 0.23027 0.77646 0.0
C1511 C 0.26056 0.21833 0.81567 0.0
C1512 C 0.22252 0.23067 0.69873 0.0
C1513 C 0.22509 0.25182 0.71294 0.0
C1514 C 0.21427 0.22059 0.63464 0.0
C1515 C 0.21358 0.19936 0.61507 0.0
C1516 C 0.2348 0.19798 0.61841 0.0
C1517 C 0.23404 0.17784 0.60125 0.0
C1518 C 0.21219 0.15896 0.58027 0.0
C1519 C 0.19108 0.16025 0.57603 0.0
C1520 C 0.19174 0.18038 0.59311 0.0
C1521 C 0.21355 0.29912 0.49833 0.0
C1522 C 0.18874 0.29144 0.48869 0.0
C1523 C 0.22092 0.28536 0.52883 0.0
C1524 C 0.20357 0.26387 0.55042 0.0
C1525 C 0.17906 0.25517 0.53359 0.0
C1526 C 0.17165 0.26889 0.5029 0.0
C1527 C 0.21029 0.25262 0.60152 0.0
C1528 C 0.20773 0.2315 0.58715 0.0
C1529 C 0.21901 0.2629 0.66513 0.0
C1530 C 0.22175 0.28514 0.68275 0.0
C1531 C 0.20169 0.28832 0.67952 0.0
C1532 C 0.20467 0.30964 0.69224 0.0
C1533 C 0.22756 0.32785 0.70944 0.0
C1534 C 0.24753 0.32476 0.71384 0.0
C1535 C 0.24468 0.30349 0.70058 0.0
H1536 H 0.22983 0.34432 0.71978 0.0
H1537 H 0.21164 0.14336 0.56714 0.0
H1538 H 0.75732 0.91925 0.17301 0.0
H1539 H 0.7771 0.95383 0.24189 0.0
H1540 H 0.70834 0.95021 0.26613 0.0
H1541 H 0.68844 0.91598 0.19666 0.0
H1542 H 0.76121 -0.00127 0.25168 0.0
H1543 H 0.71276 0.93033 0.43449 0.0
H1544 H 0.7038 0.89169 0.45908 0.0
H1545 H 0.77318 0.90726 0.38485 0.0
H1546 H 0.78266 0.94607 0.3611 0.0
H1547 H 0.73286 0.0414 0.5294 0.0
H1548 H 0.73237 0.01681 0.43896 0.0
H1549 H 0.79341 0.01637 0.53162 0.0
H1550 H 0.79397 0.04139 0.62181 0.0
H1551 H 0.75659 0.97342 0.48454 0.0
H1552 H 0.806 0.04612 0.40641 0.0
H1553 H 0.82038 0.08591 0.38151 0.0
H1554 H 0.76004 0.06561 0.24621 0.0
H1555 H 0.74496 0.02559 0.27127 0.0
C1556 C 0.74652 0.92619 0.19125 0.0
C1557 C 0.72122 0.91461 0.18055 0.0
C1558 C 0.75787 0.94592 0.23061 0.0
C1559 C 0.74402 0.95418 0.25982 0.0
C1560 C 0.71925 0.94395 0.24398 0.0
C1561 C 0.70792 0.92437 0.20429 0.0
C1562 C 0.75406 0.97103 0.31476 0.0
C1563 C 0.76052 0.9934 0.30262 0.0
C1564 C 0.7539 0.9641 0.38077 0.0
C1565 C 0.74828 0.94091 0.39547 0.0
C1566 C 0.72606 0.92546 0.42357 0.0
C1567 C 0.72092 0.90356 0.4374 0.0
C1568 C 0.73791 0.89704 0.42342 0.0
C1569 C 0.76004 0.91235 0.39554 0.0
C1570 C 0.7653 0.93427 0.38194 0.0
C1571 C 0.74579 0.03562 0.53069 0.0
C1572 C 0.7632 0.04278 0.58223 0.0
C1573 C 0.74572 0.02186 0.47904 0.0
C1574 C 0.76303 0.01503 0.47842 0.0
C1575 C 0.77996 0.02154 0.53131 0.0
C1576 C 0.78021 0.03561 0.58268 0.0
C1577 C 0.76321 0.00117 0.42186 0.0
C1578 C 0.75815 0.97915 0.43377 0.0
C1579 C 0.76574 0.0088 0.35564 0.0
C1580 C 0.77424 0.03281 0.34111 0.0
C1581 C 0.7956 0.05011 0.37193 0.0
C1582 C 0.80392 0.0727 0.35766 0.0
C1583 C 0.79117 0.07825 0.31219 0.0
C1584 C 0.76993 0.06124 0.28128 0.0
C1585 C 0.76148 0.03858 0.2955 0.0
H1586 H 0.79784 0.09574 0.3008 0.0
H1587 H 0.73407 0.8802 0.43455 0.0
H1588 H 0.92351 0.67174 0.62943 0.0
H1589 H 0.96476 0.69342 0.58865 0.0
H1590 H 0.96372 0.75521 0.62009 0.0
H1591 H 0.92256 0.73371 0.66186 0.0
H1592 H 0.97786 0.71928 0.47868 0.0
H1593 H 0.02206 0.79808 0.65325 0.0
H1594 H 0.02026 0.80847 0.77014 0.0
H1595 H -0.00356 0.74055 0.82873 0.0
H1596 H -0.00159 0.72983 0.71241 0.0
H1597 H 0.1066 0.82786 0.45171 0.0
H1598 H 0.06426 0.80791 0.48501 0.0
H1599 H 0.06189 0.74424 0.46252 0.0
H1600 H 0.10421 0.76401 0.42941 0.0
H1601 H 0.04881 0.78244 0.59654 0.0
H1602 H 0.00188 0.70305 0.41995 0.0
H1603 H 0.00292 0.69265 0.30267 0.0
H1604 H 0.03217 0.76173 0.24716 0.0
H1605 H 0.03084 0.77249 0.3638 0.0
C1606 C 0.93222 0.68997 0.62914 0.0
C1607 C 0.91977 0.70101 0.64891 0.0
C1608 C 0.95572 0.70231 0.60533 0.0
C1609 C 0.96722 0.72587 0.60133 0.0
C1610 C 0.95522 0.73703 0.62339 0.0
C1611 C 0.9317 0.72471 0.64718 0.0
C1612 C 0.99118 0.73861 0.57035 0.0
C1613 C 0.99352 0.73288 0.50469 0.0
C1614 C 0.01124 0.75684 0.6037 0.0
C1615 C 0.01012 0.76311 0.67395 0.0
C1616 C 0.0165 0.78538 0.69111 0.0
C1617 C 0.01545 0.79133 0.75727 0.0
C1618 C 0.00816 0.77516 0.80679 0.0
C1619 C 0.00198 0.75303 0.79028 0.0
C1620 C 0.00302 0.747 0.72422 0.0
C1621 C 0.09696 0.80958 0.45257 0.0
C1622 C 0.1088 0.7975 0.43827 0.0
C1623 C 0.0728 0.79824 0.47177 0.0
C1624 C 0.06001 0.77464 0.47616 0.0
C1625 C 0.0714 0.76246 0.45877 0.0
C1626 C 0.09562 0.77379 0.44003 0.0
C1627 C 0.03562 0.76292 0.50506 0.0
C1628 C 0.03317 0.76887 0.57037 0.0
C1629 C 0.01548 0.74487 0.47134 0.0
C1630 C 0.01658 0.73863 0.40096 0.0
C1631 C 0.00851 0.71603 0.38275 0.0
C1632 C 0.00912 0.71007 0.31633 0.0
C1633 C 0.01772 0.72654 0.26755 0.0
C1634 C 0.02564 0.749 0.28505 0.0
C1635 C 0.02501 0.75505 0.35137 0.0
H1636 H 0.01817 0.72188 0.21616 0.0
H1637 H 0.00735 0.7798 0.85797 0.0
loop_
_geom_bond_atom_site_label_1
_geom_bond_atom_site_label_2
_geom_bond_distance
_geom_bond_site_symmetry_2
_ccdc_geom_bond_type
Zn0 O1 2.055 1_455 S
Zn0 O8 2.046 1_455 S
Zn0 N16 2.036 . S
Zn0 O28 2.053 . S
Zn0 O30 2.066 . S
O1 Zn0 2.055 1_655 S
O1 C4 1.259 . S
C2 O30 1.256 . S
C2 O31 1.244 . S
Zn3 O5 2.046 . S
Zn3 O7 2.055 . S
Zn3 N9 2.036 . S
Zn3 O27 2.066 . S
Zn3 O31 2.053 1_556 S
C4 O1 1.259 . S
C4 O5 1.254 1_654 S
O5 Zn3 2.046 . S
O5 C4 1.254 1_456 S
C6 O27 1.256 1_554 S
C6 O28 1.244 . S
O7 Zn3 2.055 . S
O7 C29 1.259 1_456 S
O8 Zn0 2.046 1_655 S
O8 C29 1.254 . S
N9 Zn3 2.036 . S
N9 C10 1.298 . S
N9 N12 1.398 . S
C10 N9 1.298 . S
C10 N13 1.367 . S
C10 C23 1.481 . S
C11 N12 1.299 . S
C11 N13 1.379 . S
N12 N9 1.398 . S
N12 C11 1.299 . S
N13 C10 1.367 . S
N13 C11 1.379 . S
C14 N16 1.298 . S
C14 N18 1.367 . S
C14 C22 1.481 1_455 S
C15 N17 1.299 . S
C15 N18 1.379 . S
N16 Zn0 2.036 . S
N16 C14 1.298 . S
N16 N17 1.398 . S
N17 C15 1.299 . S
N17 N16 1.398 . S
N18 C14 1.367 . S
N18 C15 1.379 . S
H19 C22 0.980 . S
H20 C22 0.981 . S
H21 C22 0.981 1_455 S
C22 C14 1.481 1_655 S
C22 H19 0.980 . S
C22 H20 0.981 . S
C22 H21 0.981 1_655 S
C23 C10 1.481 . S
C23 H24 0.980 . S
C23 H25 0.981 . S
C23 H26 0.981 . S
H24 C23 0.980 . S
H25 C23 0.981 . S
H26 C23 0.981 . S
O27 Zn3 2.066 . S
O27 C6 1.256 1_556 S
O28 Zn0 2.053 . S
O28 C6 1.244 . S
C29 O7 1.259 1_654 S
C29 O8 1.254 . S
O30 Zn0 2.066 . S
O30 C2 1.256 . S
O31 C2 1.244 . S
O31 Zn3 2.053 1_554 S
Zn32 O33 2.055 . S
Zn32 O40 2.046 . S
Zn32 N48 2.036 . S
Zn32 O60 2.053 . S
Zn32 O62 2.066 . S
O33 Zn32 2.055 . S
O33 C36 1.259 . S
C34 O62 1.256 . S
C34 O63 1.244 1_554 S
Zn35 O37 2.046 . S
Zn35 O39 2.055 . S
Zn35 N41 2.036 . S
Zn35 O59 2.066 . S
Zn35 O63 2.053 . S
C36 O33 1.259 . S
C36 O37 1.254 1_554 S
O37 Zn35 2.046 . S
O37 C36 1.254 1_556 S
C38 O59 1.256 . S
C38 O60 1.244 1_556 S
O39 Zn35 2.055 . S
O39 C61 1.259 1_556 S
O40 Zn32 2.046 . S
O40 C61 1.254 . S
N41 Zn35 2.036 . S
N41 C42 1.298 . S
N41 N44 1.398 . S
C42 N41 1.298 . S
C42 N45 1.367 . S
C42 C55 1.481 . S
C43 N44 1.299 . S
C43 N45 1.379 . S
N44 N41 1.398 . S
N44 C43 1.299 . S
N45 C42 1.367 . S
N45 C43 1.379 . S
C46 N48 1.298 . S
C46 N50 1.367 . S
C46 C54 1.481 . S
C47 N49 1.299 . S
C47 N50 1.379 . S
N48 Zn32 2.036 . S
N48 C46 1.298 . S
N48 N49 1.398 . S
N49 C47 1.299 . S
N49 N48 1.398 . S
N50 C46 1.367 . S
N50 C47 1.379 . S
H51 C54 0.980 . S
H52 C54 0.981 . S
H53 C54 0.981 . S
C54 C46 1.481 . S
C54 H51 0.980 . S
C54 H52 0.981 . S
C54 H53 0.981 . S
C55 C42 1.481 . S
C55 H56 0.980 . S
C55 H57 0.981 . S
C55 H58 0.981 . S
H56 C55 0.980 . S
H57 C55 0.981 . S
H58 C55 0.981 . S
O59 Zn35 2.066 . S
O59 C38 1.256 . S
O60 Zn32 2.053 . S
O60 C38 1.244 1_554 S
C61 O39 1.259 1_554 S
C61 O40 1.254 . S
O62 Zn32 2.066 . S
O62 C34 1.256 . S
O63 C34 1.244 1_556 S
O63 Zn35 2.053 . S
Zn64 O65 2.055 . S
Zn64 O72 2.046 . S
Zn64 N80 2.036 . S
Zn64 O92 2.053 1_545 S
Zn64 O94 2.066 1_545 S
O65 Zn64 2.055 . S
O65 C68 1.259 1_554 S
C66 O94 1.256 . S
C66 O95 1.244 1_554 S
Zn67 O69 2.046 . S
Zn67 O71 2.055 . S
Zn67 N73 2.036 1_545 S
Zn67 O91 2.066 1_545 S
Zn67 O95 2.053 1_545 S
C68 O65 1.259 1_556 S
C68 O69 1.254 . S
O69 Zn67 2.046 . S
O69 C68 1.254 . S
C70 O91 1.256 1_554 S
C70 O92 1.244 . S
O71 Zn67 2.055 . S
O71 C93 1.259 . S
O72 Zn64 2.046 . S
O72 C93 1.254 1_554 S
N73 Zn67 2.036 1_565 S
N73 C74 1.298 . S
N73 N76 1.398 . S
C74 N73 1.298 . S
C74 N77 1.367 . S
C74 C87 1.481 1_565 S
C75 N76 1.299 . S
C75 N77 1.379 . S
N76 N73 1.398 . S
N76 C75 1.299 . S
N77 C74 1.367 . S
N77 C75 1.379 . S
C78 N80 1.298 . S
C78 N82 1.367 . S
C78 C86 1.481 . S
C79 N81 1.299 . S
C79 N82 1.379 . S
N80 Zn64 2.036 . S
N80 C78 1.298 . S
N80 N81 1.398 . S
N81 C79 1.299 . S
N81 N80 1.398 . S
N82 C78 1.367 . S
N82 C79 1.379 . S
H83 C86 0.980 . S
H84 C86 0.981 . S
H85 C86 0.981 . S
C86 C78 1.481 . S
C86 H83 0.980 . S
C86 H84 0.981 . S
C86 H85 0.981 . S
C87 C74 1.481 1_545 S
C87 H88 0.980 . S
C87 H89 0.981 . S
C87 H90 0.981 1_545 S
H88 C87 0.980 . S
H89 C87 0.981 . S
H90 C87 0.981 1_565 S
O91 Zn67 2.066 1_565 S
O91 C70 1.256 1_556 S
O92 Zn64 2.053 1_565 S
O92 C70 1.244 . S
C93 O71 1.259 . S
C93 O72 1.254 1_556 S
O94 Zn64 2.066 1_565 S
O94 C66 1.256 . S
O95 C66 1.244 1_556 S
O95 Zn67 2.053 1_565 S
Zn96 O97 2.055 . S
Zn96 O104 2.046 . S
Zn96 N112 2.036 . S
Zn96 O124 2.053 . S
Zn96 O126 2.066 . S
O97 Zn96 2.055 . S
O97 C100 1.259 . S
C98 O126 1.256 . S
C98 O127 1.244 . S
Zn99 O101 2.046 . S
Zn99 O103 2.055 . S
Zn99 N105 2.036 . S
Zn99 O123 2.066 . S
Zn99 O127 2.053 . S
C100 O97 1.259 . S
C100 O101 1.254 . S
O101 Zn99 2.046 . S
O101 C100 1.254 . S
C102 O123 1.256 . S
C102 O124 1.244 . S
O103 Zn99 2.055 . S
O103 C125 1.259 . S
O104 Zn96 2.046 . S
O104 C125 1.254 . S
N105 Zn99 2.036 . S
N105 C106 1.298 . S
N105 N108 1.398 . S
C106 N105 1.298 . S
C106 N109 1.367 . S
C106 C119 1.481 . S
C107 N108 1.299 . S
C107 N109 1.379 . S
N108 N105 1.398 . S
N108 C107 1.299 . S
N109 C106 1.367 . S
N109 C107 1.379 . S
C110 N112 1.298 . S
C110 N114 1.367 . S
C110 C118 1.481 . S
C111 N113 1.299 . S
C111 N114 1.379 . S
N112 Zn96 2.036 . S
N112 C110 1.298 . S
N112 N113 1.398 . S
N113 C111 1.299 . S
N113 N112 1.398 . S
N114 C110 1.367 . S
N114 C111 1.379 . S
H115 C118 0.980 . S
H116 C118 0.981 . S
H117 C118 0.981 . S
C118 C110 1.481 . S
C118 H115 0.980 . S
C118 H116 0.981 . S
C118 H117 0.981 . S
C119 C106 1.481 . S
C119 H120 0.980 . S
C119 H121 0.981 . S
C119 H122 0.981 . S
H120 C119 0.980 . S
H121 C119 0.981 . S
H122 C119 0.981 . S
O123 Zn99 2.066 . S
O123 C102 1.256 . S
O124 Zn96 2.053 . S
O124 C102 1.244 . S
C125 O103 1.259 . S
C125 O104 1.254 . S
O126 Zn96 2.066 . S
O126 C98 1.256 . S
O127 C98 1.244 . S
O127 Zn99 2.053 . S
Zn128 O129 2.055 . S
Zn128 O136 2.046 . S
Zn128 N144 2.036 . S
Zn128 O156 2.053 . S
Zn128 O158 2.066 . S
O129 Zn128 2.055 . S
O129 C132 1.259 . S
C130 O158 1.256 . S
C130 O159 1.244 . S
Zn131 O133 2.046 . S
Zn131 O135 2.055 . S
Zn131 N137 2.036 . S
Zn131 O155 2.066 . S
Zn131 O159 2.053 . S
C132 O129 1.259 . S
C132 O133 1.254 . S
O133 Zn131 2.046 . S
O133 C132 1.254 . S
C134 O155 1.256 . S
C134 O156 1.244 . S
O135 Zn131 2.055 . S
O135 C157 1.259 . S
O136 Zn128 2.046 . S
O136 C157 1.254 . S
N137 Zn131 2.036 . S
N137 C138 1.298 . S
N137 N140 1.398 . S
C138 N137 1.298 . S
C138 N141 1.367 . S
C138 C151 1.481 . S
C139 N140 1.299 . S
C139 N141 1.379 . S
N140 N137 1.398 . S
N140 C139 1.299 . S
N141 C138 1.367 . S
N141 C139 1.379 . S
C142 N144 1.298 . S
C142 N146 1.367 . S
C142 C150 1.481 . S
C143 N145 1.299 . S
C143 N146 1.379 . S
N144 Zn128 2.036 . S
N144 C142 1.298 . S
N144 N145 1.398 . S
N145 C143 1.299 . S
N145 N144 1.398 . S
N146 C142 1.367 . S
N146 C143 1.379 . S
H147 C150 0.980 . S
H148 C150 0.981 . S
H149 C150 0.981 . S
C150 C142 1.481 . S
C150 H147 0.980 . S
C150 H148 0.981 . S
C150 H149 0.981 . S
C151 C138 1.481 . S
C151 H152 0.980 . S
C151 H153 0.981 . S
C151 H154 0.981 . S
H152 C151 0.980 . S
H153 C151 0.981 . S
H154 C151 0.981 . S
O155 Zn131 2.066 . S
O155 C134 1.256 . S
O156 Zn128 2.053 . S
O156 C134 1.244 . S
C157 O135 1.259 . S
C157 O136 1.254 . S
O158 Zn128 2.066 . S
O158 C130 1.256 . S
O159 C130 1.244 . S
O159 Zn131 2.053 . S
Zn160 O161 2.055 . S
Zn160 O168 2.046 . S
Zn160 N176 2.036 . S
Zn160 O188 2.053 . S
Zn160 O190 2.066 . S
O161 Zn160 2.055 . S
O161 C164 1.259 . S
C162 O190 1.256 . S
C162 O191 1.244 . S
Zn163 O165 2.046 . S
Zn163 O167 2.055 . S
Zn163 N169 2.036 . S
Zn163 O187 2.066 . S
Zn163 O191 2.053 . S
C164 O161 1.259 . S
C164 O165 1.254 . S
O165 Zn163 2.046 . S
O165 C164 1.254 . S
C166 O187 1.256 . S
C166 O188 1.244 . S
O167 Zn163 2.055 . S
O167 C189 1.259 . S
O168 Zn160 2.046 . S
O168 C189 1.254 . S
N169 Zn163 2.036 . S
N169 C170 1.298 . S
N169 N172 1.398 . S
C170 N169 1.298 . S
C170 N173 1.367 . S
C170 C183 1.481 . S
C171 N172 1.299 . S
C171 N173 1.379 . S
N172 N169 1.398 . S
N172 C171 1.299 . S
N173 C170 1.367 . S
N173 C171 1.379 . S
C174 N176 1.298 . S
C174 N178 1.367 . S
C174 C182 1.481 . S
C175 N177 1.299 . S
C175 N178 1.379 . S
N176 Zn160 2.036 . S
N176 C174 1.298 . S
N176 N177 1.398 . S
N177 C175 1.299 . S
N177 N176 1.398 . S
N178 C174 1.367 . S
N178 C175 1.379 . S
H179 C182 0.980 . S
H180 C182 0.981 . S
H181 C182 0.981 . S
C182 C174 1.481 . S
C182 H179 0.980 . S
C182 H180 0.981 . S
C182 H181 0.981 . S
C183 C170 1.481 . S
C183 H184 0.980 . S
C183 H185 0.981 . S
C183 H186 0.981 . S
H184 C183 0.980 . S
H185 C183 0.981 . S
H186 C183 0.981 . S
O187 Zn163 2.066 . S
O187 C166 1.256 . S
O188 Zn160 2.053 . S
O188 C166 1.244 . S
C189 O167 1.259 . S
C189 O168 1.254 . S
O190 Zn160 2.066 . S
O190 C162 1.256 . S
O191 C162 1.244 . S
O191 Zn163 2.053 . S
Zn192 O193 2.055 . S
Zn192 O200 2.046 . S
Zn192 N208 2.036 . S
Zn192 O220 2.053 . S
Zn192 O222 2.066 . S
O193 Zn192 2.055 . S
O193 C196 1.259 . S
C194 O222 1.256 . S
C194 O223 1.244 . S
Zn195 O197 2.046 . S
Zn195 O199 2.055 . S
Zn195 N201 2.036 . S
Zn195 O219 2.066 . S
Zn195 O223 2.053 . S
C196 O193 1.259 . S
C196 O197 1.254 . S
O197 Zn195 2.046 . S
O197 C196 1.254 . S
C198 O219 1.256 . S
C198 O220 1.244 . S
O199 Zn195 2.055 . S
O199 C221 1.259 . S
O200 Zn192 2.046 . S
O200 C221 1.254 . S
N201 Zn195 2.036 . S
N201 C202 1.298 . S
N201 N204 1.398 . S
C202 N201 1.298 . S
C202 N205 1.367 . S
C202 C215 1.481 . S
C203 N204 1.299 . S
C203 N205 1.379 . S
N204 N201 1.398 . S
N204 C203 1.299 . S
N205 C202 1.367 . S
N205 C203 1.379 . S
C206 N208 1.298 . S
C206 N210 1.367 . S
C206 C214 1.481 . S
C207 N209 1.299 . S
C207 N210 1.379 . S
N208 Zn192 2.036 . S
N208 C206 1.298 . S
N208 N209 1.398 . S
N209 C207 1.299 . S
N209 N208 1.398 . S
N210 C206 1.367 . S
N210 C207 1.379 . S
H211 C214 0.980 . S
H212 C214 0.981 . S
H213 C214 0.981 . S
C214 C206 1.481 . S
C214 H211 0.980 . S
C214 H212 0.981 . S
C214 H213 0.981 . S
C215 C202 1.481 . S
C215 H216 0.980 . S
C215 H217 0.981 . S
C215 H218 0.981 . S
H216 C215 0.980 . S
H217 C215 0.981 . S
H218 C215 0.981 . S
O219 Zn195 2.066 . S
O219 C198 1.256 . S
O220 Zn192 2.053 . S
O220 C198 1.244 . S
C221 O199 1.259 . S
C221 O200 1.254 . S
O222 Zn192 2.066 . S
O222 C194 1.256 . S
O223 C194 1.244 . S
O223 Zn195 2.053 . S
Zn224 O225 2.055 . S
Zn224 O232 2.046 . S
Zn224 N240 2.036 . S
Zn224 O252 2.053 . S
Zn224 O254 2.066 . S
O225 Zn224 2.055 . S
O225 C228 1.259 . S
C226 O254 1.256 . S
C226 O255 1.244 . S
Zn227 O229 2.046 . S
Zn227 O231 2.055 . S
Zn227 N233 2.036 . S
Zn227 O251 2.066 . S
Zn227 O255 2.053 . S
C228 O225 1.259 . S
C228 O229 1.254 . S
O229 Zn227 2.046 . S
O229 C228 1.254 . S
C230 O251 1.256 . S
C230 O252 1.244 . S
O231 Zn227 2.055 . S
O231 C253 1.259 . S
O232 Zn224 2.046 . S
O232 C253 1.254 . S
N233 Zn227 2.036 . S
N233 C234 1.298 . S
N233 N236 1.398 . S
C234 N233 1.298 . S
C234 N237 1.367 . S
C234 C247 1.481 . S
C235 N236 1.299 . S
C235 N237 1.379 . S
N236 N233 1.398 . S
N236 C235 1.299 . S
N237 C234 1.367 . S
N237 C235 1.379 . S
C238 N240 1.298 . S
C238 N242 1.367 . S
C238 C246 1.481 . S
C239 N241 1.299 . S
C239 N242 1.379 . S
N240 Zn224 2.036 . S
N240 C238 1.298 . S
N240 N241 1.398 . S
N241 C239 1.299 . S
N241 N240 1.398 . S
N242 C238 1.367 . S
N242 C239 1.379 . S
H243 C246 0.980 . S
H244 C246 0.981 . S
H245 C246 0.981 . S
C246 C238 1.481 . S
C246 H243 0.980 . S
C246 H244 0.981 . S
C246 H245 0.981 . S
C247 C234 1.481 . S
C247 H248 0.980 . S
C247 H249 0.981 . S
C247 H250 0.981 . S
H248 C247 0.980 . S
H249 C247 0.981 . S
H250 C247 0.981 . S
O251 Zn227 2.066 . S
O251 C230 1.256 . S
O252 Zn224 2.053 . S
O252 C230 1.244 . S
C253 O231 1.259 . S
C253 O232 1.254 . S
O254 Zn224 2.066 . S
O254 C226 1.256 . S
O255 C226 1.244 . S
O255 Zn227 2.053 . S
Zn256 O257 2.055 . S
Zn256 O264 2.046 . S
Zn256 N272 2.036 . S
Zn256 O284 2.053 . S
Zn256 O286 2.066 . S
O257 Zn256 2.055 . S
O257 C260 1.259 . S
C258 O286 1.256 . S
C258 O287 1.244 . S
Zn259 O261 2.046 . S
Zn259 O263 2.055 . S
Zn259 N265 2.036 . S
Zn259 O283 2.066 . S
Zn259 O287 2.053 . S
C260 O257 1.259 . S
C260 O261 1.254 . S
O261 Zn259 2.046 . S
O261 C260 1.254 . S
C262 O283 1.256 . S
C262 O284 1.244 . S
O263 Zn259 2.055 . S
O263 C285 1.259 . S
O264 Zn256 2.046 . S
O264 C285 1.254 . S
N265 Zn259 2.036 . S
N265 C266 1.298 . S
N265 N268 1.398 . S
C266 N265 1.298 . S
C266 N269 1.367 . S
C266 C279 1.481 . S
C267 N268 1.299 . S
C267 N269 1.379 . S
N268 N265 1.398 . S
N268 C267 1.299 . S
N269 C266 1.367 . S
N269 C267 1.379 . S
C270 N272 1.298 . S
C270 N274 1.367 . S
C270 C278 1.481 . S
C271 N273 1.299 . S
C271 N274 1.379 . S
N272 Zn256 2.036 . S
N272 C270 1.298 . S
N272 N273 1.398 . S
N273 C271 1.299 . S
N273 N272 1.398 . S
N274 C270 1.367 . S
N274 C271 1.379 . S
H275 C278 0.980 . S
H276 C278 0.981 . S
H277 C278 0.981 . S
C278 C270 1.481 . S
C278 H275 0.980 . S
C278 H276 0.981 . S
C278 H277 0.981 . S
C279 C266 1.481 . S
C279 H280 0.980 . S
C279 H281 0.981 . S
C279 H282 0.981 . S
H280 C279 0.980 . S
H281 C279 0.981 . S
H282 C279 0.981 . S
O283 Zn259 2.066 . S
O283 C262 1.256 . S
O284 Zn256 2.053 . S
O284 C262 1.244 . S
C285 O263 1.259 . S
C285 O264 1.254 . S
O286 Zn256 2.066 . S
O286 C258 1.256 . S
O287 C258 1.244 . S
O287 Zn259 2.053 . S
H288 C306 0.951 . S
H289 C308 0.951 . S
H290 C310 0.950 . S
H291 C311 0.950 . S
H292 C313 0.950 . S
H293 C316 0.950 . S
H294 C317 0.950 . S
H295 C319 0.950 . S
H296 C320 0.950 . S
H297 C321 0.951 . S
H298 C323 0.951 . S
H299 C325 0.950 1_655 S
H300 C326 0.950 . S
H301 C328 0.950 1_655 S
H302 C331 0.950 . S
H303 C332 0.950 . S
H304 C334 0.950 . S
H305 C335 0.950 . S
C306 H288 0.951 . S
C306 C307 1.366 . S
C306 C308 1.388 . S
C307 C306 1.366 . S
C307 C311 1.385 . S
C308 H289 0.951 . S
C308 C306 1.388 . S
C308 C309 1.366 . S
C309 C308 1.366 . S
C309 C310 1.414 . S
C309 C312 1.499 . S
C310 H290 0.950 . S
C310 C309 1.414 . S
C310 C311 1.374 . S
C311 H291 0.950 . S
C311 C307 1.385 . S
C311 C310 1.374 . S
C312 C309 1.499 . S
C312 C313 1.373 . S
C312 C314 1.389 . S
C313 H292 0.950 . S
C313 C312 1.373 . S
C313 C329 1.377 . S
C314 C312 1.389 . S
C314 C315 1.524 . S
C314 C328 1.377 . S
C315 C314 1.524 . S
C315 C316 1.397 . S
C315 C320 1.363 1_455 S
C316 H293 0.950 . S
C316 C315 1.397 . S
C316 C317 1.334 1_455 S
C317 H294 0.950 . S
C317 C316 1.334 1_655 S
C317 C318 1.287 . S
C318 C317 1.287 . S
C318 C319 1.524 . S
C318 H337 0.913 . S
C319 H295 0.950 . S
C319 C318 1.524 . S
C319 C320 1.415 . S
C320 H296 0.950 . S
C320 C315 1.363 1_655 S
C320 C319 1.415 . S
C321 H297 0.951 . S
C321 C322 1.366 . S
C321 C323 1.388 . S
C322 C321 1.366 . S
C322 C326 1.385 1_455 S
C323 H298 0.951 . S
C323 C321 1.388 . S
C323 C324 1.366 . S
C324 C323 1.366 . S
C324 C325 1.414 . S
C324 C327 1.499 . S
C325 H299 0.950 1_455 S
C325 C324 1.414 . S
C325 C326 1.374 1_455 S
C326 H300 0.950 . S
C326 C322 1.385 1_655 S
C326 C325 1.374 1_655 S
C327 C324 1.499 . S
C327 C328 1.373 . S
C327 C329 1.389 . S
C328 H301 0.950 1_455 S
C328 C314 1.377 . S
C328 C327 1.373 . S
C329 C313 1.377 . S
C329 C327 1.389 . S
C329 C330 1.524 . S
C330 C329 1.524 . S
C330 C331 1.397 . S
C330 C335 1.363 . S
C331 H302 0.950 . S
C331 C330 1.397 . S
C331 C332 1.334 . S
C332 H303 0.950 . S
C332 C331 1.334 . S
C332 C333 1.287 . S
C333 C332 1.287 . S
C333 C334 1.524 . S
C333 H336 0.999 . S
C334 H304 0.950 . S
C334 C333 1.524 . S
C334 C335 1.415 . S
C335 H305 0.950 . S
C335 C330 1.363 . S
C335 C334 1.415 . S
H336 C333 0.999 . S
H337 C318 0.913 . S
H338 C356 0.951 . S
H339 C358 0.951 . S
H340 C360 0.950 . S
H341 C361 0.950 . S
H342 C363 0.950 . S
H343 C366 0.950 . S
H344 C367 0.950 . S
H345 C369 0.950 . S
H346 C370 0.950 . S
H347 C371 0.951 . S
H348 C373 0.951 . S
H349 C375 0.950 . S
H350 C376 0.950 . S
H351 C378 0.950 . S
H352 C381 0.950 . S
H353 C382 0.950 . S
H354 C384 0.950 . S
H355 C385 0.950 . S
C356 H338 0.951 . S
C356 C357 1.366 . S
C356 C358 1.388 . S
C357 C356 1.366 . S
C357 C361 1.385 . S
C358 H339 0.951 . S
C358 C356 1.388 . S
C358 C359 1.366 . S
C359 C358 1.366 . S
C359 C360 1.414 . S
C359 C362 1.499 . S
C360 H340 0.950 . S
C360 C359 1.414 . S
C360 C361 1.374 . S
C361 H341 0.950 . S
C361 C357 1.385 . S
C361 C360 1.374 . S
C362 C359 1.499 . S
C362 C363 1.373 . S
C362 C364 1.389 . S
C363 H342 0.950 . S
C363 C362 1.373 . S
C363 C379 1.377 . S
C364 C362 1.389 . S
C364 C365 1.524 . S
C364 C378 1.377 . S
C365 C364 1.524 . S
C365 C366 1.397 . S
C365 C370 1.363 . S
C366 H343 0.950 . S
C366 C365 1.397 . S
C366 C367 1.334 . S
C367 H344 0.950 . S
C367 C366 1.334 . S
C367 C368 1.287 . S
C368 C367 1.287 . S
C368 C369 1.524 . S
C368 H387 0.913 . S
C369 H345 0.950 . S
C369 C368 1.524 . S
C369 C370 1.415 . S
C370 H346 0.950 . S
C370 C365 1.363 . S
C370 C369 1.415 . S
C371 H347 0.951 . S
C371 C372 1.366 . S
C371 C373 1.388 . S
C372 C371 1.366 . S
C372 C376 1.385 . S
C373 H348 0.951 . S
C373 C371 1.388 . S
C373 C374 1.366 . S
C374 C373 1.366 . S
C374 C375 1.414 . S
C374 C377 1.499 . S
C375 H349 0.950 . S
C375 C374 1.414 . S
C375 C376 1.374 . S
C376 H350 0.950 . S
C376 C372 1.385 . S
C376 C375 1.374 . S
C377 C374 1.499 . S
C377 C378 1.373 . S
C377 C379 1.389 . S
C378 H351 0.950 . S
C378 C364 1.377 . S
C378 C377 1.373 . S
C379 C363 1.377 . S
C379 C377 1.389 . S
C379 C380 1.524 . S
C380 C379 1.524 . S
C380 C381 1.397 . S
C380 C385 1.363 . S
C381 H352 0.950 . S
C381 C380 1.397 . S
C381 C382 1.334 . S
C382 H353 0.950 . S
C382 C381 1.334 . S
C382 C383 1.287 . S
C383 C382 1.287 . S
C383 C384 1.524 . S
C383 H386 0.999 . S
C384 H354 0.950 . S
C384 C383 1.524 . S
C384 C385 1.415 . S
C385 H355 0.950 . S
C385 C380 1.363 . S
C385 C384 1.415 . S
H386 C383 0.999 . S
H387 C368 0.913 . S
H388 C406 0.951 . S
H389 C408 0.951 . S
H390 C410 0.950 1_545 S
H391 C411 0.950 . S
H392 C413 0.950 . S
H393 C416 0.950 . S
H394 C417 0.950 . S
H395 C419 0.950 . S
H396 C420 0.950 . S
H397 C421 0.951 . S
H398 C423 0.951 . S
H399 C425 0.950 1_565 S
H400 C426 0.950 . S
H401 C428 0.950 . S
H402 C431 0.950 . S
H403 C432 0.950 . S
H404 C434 0.950 . S
H405 C435 0.950 . S
C406 H388 0.951 . S
C406 C407 1.366 . S
C406 C408 1.388 . S
C407 C406 1.366 . S
C407 C411 1.385 . S
C408 H389 0.951 . S
C408 C406 1.388 . S
C408 C409 1.366 . S
C409 C408 1.366 . S
C409 C410 1.414 . S
C409 C412 1.499 . S
C410 H390 0.950 1_565 S
C410 C409 1.414 . S
C410 C411 1.374 . S
C411 H391 0.950 . S
C411 C407 1.385 . S
C411 C410 1.374 . S
C412 C409 1.499 . S
C412 C413 1.373 1_565 S
C412 C414 1.389 . S
C413 H392 0.950 . S
C413 C412 1.373 1_545 S
C413 C429 1.377 . S
C414 C412 1.389 . S
C414 C415 1.524 . S
C414 C428 1.377 . S
C415 C414 1.524 . S
C415 C416 1.397 . S
C415 C420 1.363 . S
C416 H393 0.950 . S
C416 C415 1.397 . S
C416 C417 1.334 . S
C417 H394 0.950 . S
C417 C416 1.334 . S
C417 C418 1.287 . S
C418 C417 1.287 . S
C418 C419 1.524 . S
C418 H437 0.913 . S
C419 H395 0.950 . S
C419 C418 1.524 . S
C419 C420 1.415 . S
C420 H396 0.950 . S
C420 C415 1.363 . S
C420 C419 1.415 . S
C421 H397 0.951 . S
C421 C422 1.366 . S
C421 C423 1.388 . S
C422 C421 1.366 . S
C422 C426 1.385 . S
C423 H398 0.951 . S
C423 C421 1.388 . S
C423 C424 1.366 . S
C424 C423 1.366 . S
C424 C425 1.414 . S
C424 C427 1.499 . S
C425 H399 0.950 1_545 S
C425 C424 1.414 . S
C425 C426 1.374 . S
C426 H400 0.950 . S
C426 C422 1.385 . S
C426 C425 1.374 . S
C427 C424 1.499 . S
C427 C428 1.373 1_545 S
C427 C429 1.389 . S
C428 H401 0.950 . S
C428 C414 1.377 . S
C428 C427 1.373 1_565 S
C429 C413 1.377 . S
C429 C427 1.389 . S
C429 C430 1.524 . S
C430 C429 1.524 . S
C430 C431 1.397 . S
C430 C435 1.363 . S
C431 H402 0.950 . S
C431 C430 1.397 . S
C431 C432 1.334 . S
C432 H403 0.950 . S
C432 C431 1.334 . S
C432 C433 1.287 . S
C433 C432 1.287 . S
C433 C434 1.524 . S
C433 H436 0.999 . S
C434 H404 0.950 . S
C434 C433 1.524 . S
C434 C435 1.415 . S
C435 H405 0.950 . S
C435 C430 1.363 . S
C435 C434 1.415 . S
H436 C433 0.999 . S
H437 C418 0.913 . S
H438 C456 0.951 . S
H439 C458 0.951 . S
H440 C460 0.950 . S
H441 C461 0.950 . S
H442 C463 0.950 . S
H443 C466 0.950 . S
H444 C467 0.950 . S
H445 C469 0.950 . S
H446 C470 0.950 . S
H447 C471 0.951 . S
H448 C473 0.951 . S
H449 C475 0.950 . S
H450 C476 0.950 . S
H451 C478 0.950 . S
H452 C481 0.950 . S
H453 C482 0.950 . S
H454 C484 0.950 . S
H455 C485 0.950 . S
C456 H438 0.951 . S
C456 C457 1.366 . S
C456 C458 1.388 . S
C457 C456 1.366 . S
C457 C461 1.385 . S
C458 H439 0.951 . S
C458 C456 1.388 . S
C458 C459 1.366 . S
C459 C458 1.366 . S
C459 C460 1.414 . S
C459 C462 1.499 . S
C460 H440 0.950 . S
C460 C459 1.414 . S
C460 C461 1.374 . S
C461 H441 0.950 . S
C461 C457 1.385 . S
C461 C460 1.374 . S
C462 C459 1.499 . S
C462 C463 1.373 . S
C462 C464 1.389 . S
C463 H442 0.950 . S
C463 C462 1.373 . S
C463 C479 1.377 . S
C464 C462 1.389 . S
C464 C465 1.524 . S
C464 C478 1.377 . S
C465 C464 1.524 . S
C465 C466 1.397 . S
C465 C470 1.363 . S
C466 H443 0.950 . S
C466 C465 1.397 . S
C466 C467 1.334 . S
C467 H444 0.950 . S
C467 C466 1.334 . S
C467 C468 1.287 . S
C468 C467 1.287 . S
C468 C469 1.524 . S
C468 H487 0.913 . S
C469 H445 0.950 . S
C469 C468 1.524 . S
C469 C470 1.415 . S
C470 H446 0.950 . S
C470 C465 1.363 . S
C470 C469 1.415 . S
C471 H447 0.951 . S
C471 C472 1.366 1_556 S
C471 C473 1.388 . S
C472 C471 1.366 1_554 S
C472 C476 1.385 1_554 S
C473 H448 0.951 . S
C473 C471 1.388 . S
C473 C474 1.366 . S
C474 C473 1.366 . S
C474 C475 1.414 . S
C474 C477 1.499 . S
C475 H449 0.950 . S
C475 C474 1.414 . S
C475 C476 1.374 . S
C476 H450 0.950 . S
C476 C472 1.385 1_556 S
C476 C475 1.374 . S
C477 C474 1.499 . S
C477 C478 1.373 . S
C477 C479 1.389 . S
C478 H451 0.950 . S
C478 C464 1.377 . S
C478 C477 1.373 . S
C479 C463 1.377 . S
C479 C477 1.389 . S
C479 C480 1.524 . S
C480 C479 1.524 . S
C480 C481 1.397 . S
C480 C485 1.363 . S
C481 H452 0.950 . S
C481 C480 1.397 . S
C481 C482 1.334 . S
C482 H453 0.950 . S
C482 C481 1.334 . S
C482 C483 1.287 . S
C483 C482 1.287 . S
C483 C484 1.524 . S
C483 H486 0.999 . S
C484 H454 0.950 . S
C484 C483 1.524 . S
C484 C485 1.415 . S
C485 H455 0.950 . S
C485 C480 1.363 . S
C485 C484 1.415 . S
H486 C483 0.999 . S
H487 C468 0.913 . S
H488 C506 0.951 . S
H489 C508 0.951 . S
H490 C510 0.950 . S
H491 C511 0.950 . S
H492 C513 0.950 . S
H493 C516 0.950 . S
H494 C517 0.950 . S
H495 C519 0.950 . S
H496 C520 0.950 . S
H497 C521 0.951 . S
H498 C523 0.951 . S
H499 C525 0.950 . S
H500 C526 0.950 . S
H501 C528 0.950 . S
H502 C531 0.950 . S
H503 C532 0.950 . S
H504 C534 0.950 . S
H505 C535 0.950 . S
C506 H488 0.951 . S
C506 C507 1.366 . S
C506 C508 1.388 . S
C507 C506 1.366 . S
C507 C511 1.385 . S
C508 H489 0.951 . S
C508 C506 1.388 . S
C508 C509 1.366 . S
C509 C508 1.366 . S
C509 C510 1.414 . S
C509 C512 1.499 . S
C510 H490 0.950 . S
C510 C509 1.414 . S
C510 C511 1.374 . S
C511 H491 0.950 . S
C511 C507 1.385 . S
C511 C510 1.374 . S
C512 C509 1.499 . S
C512 C513 1.373 . S
C512 C514 1.389 . S
C513 H492 0.950 . S
C513 C512 1.373 . S
C513 C529 1.377 . S
C514 C512 1.389 . S
C514 C515 1.524 . S
C514 C528 1.377 . S
C515 C514 1.524 . S
C515 C516 1.397 . S
C515 C520 1.363 . S
C516 H493 0.950 . S
C516 C515 1.397 . S
C516 C517 1.334 . S
C517 H494 0.950 . S
C517 C516 1.334 . S
C517 C518 1.287 . S
C518 C517 1.287 . S
C518 C519 1.524 . S
C518 H537 0.913 . S
C519 H495 0.950 . S
C519 C518 1.524 . S
C519 C520 1.415 . S
C520 H496 0.950 . S
C520 C515 1.363 . S
C520 C519 1.415 . S
C521 H497 0.951 . S
C521 C522 1.366 . S
C521 C523 1.388 1_554 S
C522 C521 1.366 . S
C522 C526 1.385 . S
C523 H498 0.951 . S
C523 C521 1.388 1_556 S
C523 C524 1.366 . S
C524 C523 1.366 . S
C524 C525 1.414 . S
C524 C527 1.499 . S
C525 H499 0.950 . S
C525 C524 1.414 . S
C525 C526 1.374 1_556 S
C526 H500 0.950 . S
C526 C522 1.385 . S
C526 C525 1.374 1_554 S
C527 C524 1.499 . S
C527 C528 1.373 . S
C527 C529 1.389 . S
C528 H501 0.950 . S
C528 C514 1.377 . S
C528 C527 1.373 . S
C529 C513 1.377 . S
C529 C527 1.389 . S
C529 C530 1.524 . S
C530 C529 1.524 . S
C530 C531 1.397 . S
C530 C535 1.363 . S
C531 H502 0.950 . S
C531 C530 1.397 . S
C531 C532 1.334 . S
C532 H503 0.950 . S
C532 C531 1.334 . S
C532 C533 1.287 . S
C533 C532 1.287 . S
C533 C534 1.524 . S
C533 H536 0.999 . S
C534 H504 0.950 . S
C534 C533 1.524 . S
C534 C535 1.415 . S
C535 H505 0.950 . S
C535 C530 1.363 . S
C535 C534 1.415 . S
H536 C533 0.999 . S
H537 C518 0.913 . S
H538 C556 0.951 . S
H539 C558 0.951 . S
H540 C560 0.950 . S
H541 C561 0.950 . S
H542 C563 0.950 . S
H543 C566 0.950 . S
H544 C567 0.950 . S
H545 C569 0.950 . S
H546 C570 0.950 . S
H547 C571 0.951 . S
H548 C573 0.951 1_556 S
H549 C575 0.950 . S
H550 C576 0.950 . S
H551 C578 0.950 . S
H552 C581 0.950 . S
H553 C582 0.950 1_554 S
H554 C584 0.950 . S
H555 C585 0.950 . S
C556 H538 0.951 . S
C556 C557 1.366 . S
C556 C558 1.388 . S
C557 C556 1.366 . S
C557 C561 1.385 . S
C558 H539 0.951 . S
C558 C556 1.388 . S
C558 C559 1.366 . S
C559 C558 1.366 . S
C559 C560 1.414 . S
C559 C562 1.499 . S
C560 H540 0.950 . S
C560 C559 1.414 . S
C560 C561 1.374 . S
C561 H541 0.950 . S
C561 C557 1.385 . S
C561 C560 1.374 . S
C562 C559 1.499 . S
C562 C563 1.373 . S
C562 C564 1.389 . S
C563 H542 0.950 . S
C563 C562 1.373 . S
C563 C579 1.377 . S
C564 C562 1.389 . S
C564 C565 1.524 . S
C564 C578 1.377 . S
C565 C564 1.524 . S
C565 C566 1.397 . S
C565 C570 1.363 . S
C566 H543 0.950 . S
C566 C565 1.397 . S
C566 C567 1.334 . S
C567 H544 0.950 . S
C567 C566 1.334 . S
C567 C568 1.287 . S
C568 C567 1.287 . S
C568 C569 1.524 . S
C568 H587 0.913 . S
C569 H545 0.950 . S
C569 C568 1.524 . S
C569 C570 1.415 . S
C570 H546 0.950 . S
C570 C565 1.363 . S
C570 C569 1.415 . S
C571 H547 0.951 . S
C571 C572 1.366 . S
C571 C573 1.388 . S
C572 C571 1.366 . S
C572 C576 1.385 . S
C573 H548 0.951 1_554 S
C573 C571 1.388 . S
C573 C574 1.366 1_554 S
C574 C573 1.366 1_556 S
C574 C575 1.414 1_556 S
C574 C577 1.499 . S
C575 H549 0.950 . S
C575 C574 1.414 1_554 S
C575 C576 1.374 . S
C576 H550 0.950 . S
C576 C572 1.385 . S
C576 C575 1.374 . S
C577 C574 1.499 . S
C577 C578 1.373 . S
C577 C579 1.389 . S
C578 H551 0.950 . S
C578 C564 1.377 . S
C578 C577 1.373 . S
C579 C563 1.377 . S
C579 C577 1.389 . S
C579 C580 1.524 . S
C580 C579 1.524 . S
C580 C581 1.397 . S
C580 C585 1.363 . S
C581 H552 0.950 . S
C581 C580 1.397 . S
C581 C582 1.334 . S
C582 H553 0.950 1_556 S
C582 C581 1.334 . S
C582 C583 1.287 . S
C583 C582 1.287 . S
C583 C584 1.524 . S
C583 H586 0.999 . S
C584 H554 0.950 . S
C584 C583 1.524 . S
C584 C585 1.415 . S
C585 H555 0.950 . S
C585 C580 1.363 . S
C585 C584 1.415 . S
H586 C583 0.999 . S
H587 C568 0.913 . S
H588 C606 0.951 . S
H589 C608 0.951 . S
H590 C610 0.950 . S
H591 C611 0.950 . S
H592 C613 0.950 . S
H593 C616 0.950 . S
H594 C617 0.950 . S
H595 C619 0.950 . S
H596 C620 0.950 . S
H597 C621 0.951 . S
H598 C623 0.951 . S
H599 C625 0.950 . S
H600 C626 0.950 . S
H601 C628 0.950 . S
H602 C631 0.950 . S
H603 C632 0.950 . S
H604 C634 0.950 . S
H605 C635 0.950 . S
C606 H588 0.951 . S
C606 C607 1.366 . S
C606 C608 1.388 . S
C607 C606 1.366 . S
C607 C611 1.385 . S
C608 H589 0.951 . S
C608 C606 1.388 . S
C608 C609 1.366 . S
C609 C608 1.366 . S
C609 C610 1.414 . S
C609 C612 1.499 . S
C610 H590 0.950 . S
C610 C609 1.414 . S
C610 C611 1.374 . S
C611 H591 0.950 . S
C611 C607 1.385 . S
C611 C610 1.374 . S
C612 C609 1.499 . S
C612 C613 1.373 . S
C612 C614 1.389 . S
C613 H592 0.950 . S
C613 C612 1.373 . S
C613 C629 1.377 . S
C614 C612 1.389 . S
C614 C615 1.524 . S
C614 C628 1.377 . S
C615 C614 1.524 . S
C615 C616 1.397 . S
C615 C620 1.363 . S
C616 H593 0.950 . S
C616 C615 1.397 . S
C616 C617 1.334 . S
C617 H594 0.950 . S
C617 C616 1.334 . S
C617 C618 1.287 . S
C618 C617 1.287 . S
C618 C619 1.524 . S
C618 H637 0.913 . S
C619 H595 0.950 . S
C619 C618 1.524 . S
C619 C620 1.415 . S
C620 H596 0.950 . S
C620 C615 1.363 . S
C620 C619 1.415 . S
C621 H597 0.951 . S
C621 C622 1.366 . S
C621 C623 1.388 . S
C622 C621 1.366 . S
C622 C626 1.385 . S
C623 H598 0.951 . S
C623 C621 1.388 . S
C623 C624 1.366 . S
C624 C623 1.366 . S
C624 C625 1.414 . S
C624 C627 1.499 . S
C625 H599 0.950 . S
C625 C624 1.414 . S
C625 C626 1.374 . S
C626 H600 0.950 . S
C626 C622 1.385 . S
C626 C625 1.374 . S
C627 C624 1.499 . S
C627 C628 1.373 . S
C627 C629 1.389 . S
C628 H601 0.950 . S
C628 C614 1.377 . S
C628 C627 1.373 . S
C629 C613 1.377 . S
C629 C627 1.389 . S
C629 C630 1.524 . S
C630 C629 1.524 . S
C630 C631 1.397 . S
C630 C635 1.363 . S
C631 H602 0.950 . S
C631 C630 1.397 . S
C631 C632 1.334 . S
C632 H603 0.950 . S
C632 C631 1.334 . S
C632 C633 1.287 . S
C633 C632 1.287 . S
C633 C634 1.524 . S
C633 H636 0.999 . S
C634 H604 0.950 . S
C634 C633 1.524 . S
C634 C635 1.415 . S
C635 H605 0.950 . S
C635 C630 1.363 . S
C635 C634 1.415 . S
H636 C633 0.999 . S
H637 C618 0.913 . S
H638 C656 0.951 . S
H639 C658 0.951 . S
H640 C660 0.950 . S
H641 C661 0.950 . S
H642 C663 0.950 . S
H643 C666 0.950 . S
H644 C667 0.950 . S
H645 C669 0.950 . S
H646 C670 0.950 . S
H647 C671 0.951 . S
H648 C673 0.951 . S
H649 C675 0.950 . S
H650 C676 0.950 . S
H651 C678 0.950 . S
H652 C681 0.950 . S
H653 C682 0.950 . S
H654 C684 0.950 . S
H655 C685 0.950 . S
C656 H638 0.951 . S
C656 C657 1.366 . S
C656 C658 1.388 . S
C657 C656 1.366 . S
C657 C661 1.385 . S
C658 H639 0.951 . S
C658 C656 1.388 . S
C658 C659 1.366 . S
C659 C658 1.366 . S
C659 C660 1.414 . S
C659 C662 1.499 . S
C660 H640 0.950 . S
C660 C659 1.414 . S
C660 C661 1.374 . S
C661 H641 0.950 . S
C661 C657 1.385 . S
C661 C660 1.374 . S
C662 C659 1.499 . S
C662 C663 1.373 . S
C662 C664 1.389 . S
C663 H642 0.950 . S
C663 C662 1.373 . S
C663 C679 1.377 . S
C664 C662 1.389 . S
C664 C665 1.524 . S
C664 C678 1.377 . S
C665 C664 1.524 . S
C665 C666 1.397 . S
C665 C670 1.363 . S
C666 H643 0.950 . S
C666 C665 1.397 . S
C666 C667 1.334 . S
C667 H644 0.950 . S
C667 C666 1.334 . S
C667 C668 1.287 . S
C668 C667 1.287 . S
C668 C669 1.524 . S
C668 H687 0.913 . S
C669 H645 0.950 . S
C669 C668 1.524 . S
C669 C670 1.415 . S
C670 H646 0.950 . S
C670 C665 1.363 . S
C670 C669 1.415 . S
C671 H647 0.951 . S
C671 C672 1.366 . S
C671 C673 1.388 1_556 S
C672 C671 1.366 . S
C672 C676 1.385 . S
C673 H648 0.951 . S
C673 C671 1.388 1_554 S
C673 C674 1.366 . S
C674 C673 1.366 . S
C674 C675 1.414 . S
C674 C677 1.499 . S
C675 H649 0.950 . S
C675 C674 1.414 . S
C675 C676 1.374 1_554 S
C676 H650 0.950 . S
C676 C672 1.385 . S
C676 C675 1.374 1_556 S
C677 C674 1.499 . S
C677 C678 1.373 . S
C677 C679 1.389 . S
C678 H651 0.950 . S
C678 C664 1.377 . S
C678 C677 1.373 . S
C679 C663 1.377 . S
C679 C677 1.389 . S
C679 C680 1.524 . S
C680 C679 1.524 . S
C680 C681 1.397 . S
C680 C685 1.363 . S
C681 H652 0.950 . S
C681 C680 1.397 . S
C681 C682 1.334 . S
C682 H653 0.950 . S
C682 C681 1.334 . S
C682 C683 1.287 . S
C683 C682 1.287 . S
C683 C684 1.524 . S
C683 H686 0.999 . S
C684 H654 0.950 . S
C684 C683 1.524 . S
C684 C685 1.415 . S
C685 H655 0.950 . S
C685 C680 1.363 . S
C685 C684 1.415 . S
H686 C683 0.999 . S
H687 C668 0.913 . S
H688 C706 0.951 . S
H689 C708 0.951 . S
H690 C710 0.950 . S
H691 C711 0.950 . S
H692 C713 0.950 . S
H693 C716 0.950 . S
H694 C717 0.950 . S
H695 C719 0.950 . S
H696 C720 0.950 . S
H697 C721 0.951 . S
H698 C723 0.951 . S
H699 C725 0.950 . S
H700 C726 0.950 . S
H701 C728 0.950 . S
H702 C731 0.950 . S
H703 C732 0.950 . S
H704 C734 0.950 . S
H705 C735 0.950 . S
C706 H688 0.951 . S
C706 C707 1.366 . S
C706 C708 1.388 . S
C707 C706 1.366 . S
C707 C711 1.385 . S
C708 H689 0.951 . S
C708 C706 1.388 . S
C708 C709 1.366 . S
C709 C708 1.366 . S
C709 C710 1.414 . S
C709 C712 1.499 . S
C710 H690 0.950 . S
C710 C709 1.414 . S
C710 C711 1.374 . S
C711 H691 0.950 . S
C711 C707 1.385 . S
C711 C710 1.374 . S
C712 C709 1.499 . S
C712 C713 1.373 . S
C712 C714 1.389 . S
C713 H692 0.950 . S
C713 C712 1.373 . S
C713 C729 1.377 . S
C714 C712 1.389 . S
C714 C715 1.524 . S
C714 C728 1.377 . S
C715 C714 1.524 . S
C715 C716 1.397 . S
C715 C720 1.363 . S
C716 H693 0.950 . S
C716 C715 1.397 . S
C716 C717 1.334 . S
C717 H694 0.950 . S
C717 C716 1.334 . S
C717 C718 1.287 . S
C718 C717 1.287 . S
C718 C719 1.524 . S
C718 H737 0.913 . S
C719 H695 0.950 . S
C719 C718 1.524 . S
C719 C720 1.415 . S
C720 H696 0.950 . S
C720 C715 1.363 . S
C720 C719 1.415 . S
C721 H697 0.951 . S
C721 C722 1.366 . S
C721 C723 1.388 1_556 S
C722 C721 1.366 . S
C722 C726 1.385 . S
C723 H698 0.951 . S
C723 C721 1.388 1_554 S
C723 C724 1.366 . S
C724 C723 1.366 . S
C724 C725 1.414 . S
C724 C727 1.499 . S
C725 H699 0.950 . S
C725 C724 1.414 . S
C725 C726 1.374 1_554 S
C726 H700 0.950 . S
C726 C722 1.385 . S
C726 C725 1.374 1_556 S
C727 C724 1.499 . S
C727 C728 1.373 . S
C727 C729 1.389 . S
C728 H701 0.950 . S
C728 C714 1.377 . S
C728 C727 1.373 . S
C729 C713 1.377 . S
C729 C727 1.389 . S
C729 C730 1.524 . S
C730 C729 1.524 . S
C730 C731 1.397 . S
C730 C735 1.363 . S
C731 H702 0.950 . S
C731 C730 1.397 . S
C731 C732 1.334 . S
C732 H703 0.950 . S
C732 C731 1.334 . S
C732 C733 1.287 . S
C733 C732 1.287 . S
C733 C734 1.524 . S
C733 H736 0.999 . S
C734 H704 0.950 . S
C734 C733 1.524 . S
C734 C735 1.415 . S
C735 H705 0.950 . S
C735 C730 1.363 . S
C735 C734 1.415 . S
H736 C733 0.999 . S
H737 C718 0.913 . S
H738 C756 0.951 . S
H739 C758 0.951 . S
H740 C760 0.950 . S
H741 C761 0.950 . S
H742 C763 0.950 . S
H743 C766 0.950 . S
H744 C767 0.950 . S
H745 C769 0.950 . S
H746 C770 0.950 . S
H747 C771 0.951 . S
H748 C773 0.951 . S
H749 C775 0.950 . S
H750 C776 0.950 . S
H751 C778 0.950 . S
H752 C781 0.950 . S
H753 C782 0.950 . S
H754 C784 0.950 . S
H755 C785 0.950 . S
C756 H738 0.951 . S
C756 C757 1.366 . S
C756 C758 1.388 . S
C757 C756 1.366 . S
C757 C761 1.385 . S
C758 H739 0.951 . S
C758 C756 1.388 . S
C758 C759 1.366 . S
C759 C758 1.366 . S
C759 C760 1.414 . S
C759 C762 1.499 . S
C760 H740 0.950 . S
C760 C759 1.414 . S
C760 C761 1.374 . S
C761 H741 0.950 . S
C761 C757 1.385 . S
C761 C760 1.374 . S
C762 C759 1.499 . S
C762 C763 1.373 . S
C762 C764 1.389 . S
C763 H742 0.950 . S
C763 C762 1.373 . S
C763 C779 1.377 . S
C764 C762 1.389 . S
C764 C765 1.524 . S
C764 C778 1.377 . S
C765 C764 1.524 . S
C765 C766 1.397 . S
C765 C770 1.363 . S
C766 H743 0.950 . S
C766 C765 1.397 . S
C766 C767 1.334 . S
C767 H744 0.950 . S
C767 C766 1.334 . S
C767 C768 1.287 . S
C768 C767 1.287 . S
C768 C769 1.524 . S
C768 H787 0.913 . S
C769 H745 0.950 . S
C769 C768 1.524 . S
C769 C770 1.415 . S
C770 H746 0.950 . S
C770 C765 1.363 . S
C770 C769 1.415 . S
C771 H747 0.951 . S
C771 C772 1.366 . S
C771 C773 1.388 . S
C772 C771 1.366 . S
C772 C776 1.385 . S
C773 H748 0.951 . S
C773 C771 1.388 . S
C773 C774 1.366 . S
C774 C773 1.366 . S
C774 C775 1.414 . S
C774 C777 1.499 . S
C775 H749 0.950 . S
C775 C774 1.414 . S
C775 C776 1.374 . S
C776 H750 0.950 . S
C776 C772 1.385 . S
C776 C775 1.374 . S
C777 C774 1.499 . S
C777 C778 1.373 . S
C777 C779 1.389 . S
C778 H751 0.950 . S
C778 C764 1.377 . S
C778 C777 1.373 . S
C779 C763 1.377 . S
C779 C777 1.389 . S
C779 C780 1.524 . S
C780 C779 1.524 . S
C780 C781 1.397 . S
C780 C785 1.363 . S
C781 H752 0.950 . S
C781 C780 1.397 . S
C781 C782 1.334 . S
C782 H753 0.950 . S
C782 C781 1.334 . S
C782 C783 1.287 . S
C783 C782 1.287 . S
C783 C784 1.524 . S
C783 H786 0.999 . S
C784 H754 0.950 . S
C784 C783 1.524 . S
C784 C785 1.415 . S
C785 H755 0.950 . S
C785 C780 1.363 . S
C785 C784 1.415 . S
H786 C783 0.999 . S
H787 C768 0.913 . S
H788 C806 0.951 1_556 S
H789 C808 0.951 1_556 S
H790 C810 0.950 . S
H791 C811 0.950 . S
H792 C813 0.950 . S
H793 C816 0.950 1_554 S
H794 C817 0.950 . S
H795 C819 0.950 . S
H796 C820 0.950 . S
H797 C821 0.951 . S
H798 C823 0.951 . S
H799 C825 0.950 . S
H800 C826 0.950 . S
H801 C828 0.950 . S
H802 C831 0.950 . S
H803 C832 0.950 . S
H804 C834 0.950 . S
H805 C835 0.950 . S
C806 H788 0.951 1_554 S
C806 C807 1.366 . S
C806 C808 1.388 . S
C807 C806 1.366 . S
C807 C811 1.385 . S
C808 H789 0.951 1_554 S
C808 C806 1.388 . S
C808 C809 1.366 . S
C809 C808 1.366 . S
C809 C810 1.414 . S
C809 C812 1.499 . S
C810 H790 0.950 . S
C810 C809 1.414 . S
C810 C811 1.374 . S
C811 H791 0.950 . S
C811 C807 1.385 . S
C811 C810 1.374 . S
C812 C809 1.499 . S
C812 C813 1.373 . S
C812 C814 1.389 . S
C813 H792 0.950 . S
C813 C812 1.373 . S
C813 C829 1.377 . S
C814 C812 1.389 . S
C814 C815 1.524 1_554 S
C814 C828 1.377 . S
C815 C814 1.524 1_556 S
C815 C816 1.397 . S
C815 C820 1.363 . S
C816 H793 0.950 1_556 S
C816 C815 1.397 . S
C816 C817 1.334 . S
C817 H794 0.950 . S
C817 C816 1.334 . S
C817 C818 1.287 . S
C818 C817 1.287 . S
C818 C819 1.524 . S
C818 H837 0.913 . S
C819 H795 0.950 . S
C819 C818 1.524 . S
C819 C820 1.415 . S
C820 H796 0.950 . S
C820 C815 1.363 . S
C820 C819 1.415 . S
C821 H797 0.951 . S
C821 C822 1.366 . S
C821 C823 1.388 . S
C822 C821 1.366 . S
C822 C826 1.385 . S
C823 H798 0.951 . S
C823 C821 1.388 . S
C823 C824 1.366 . S
C824 C823 1.366 . S
C824 C825 1.414 . S
C824 C827 1.499 . S
C825 H799 0.950 . S
C825 C824 1.414 . S
C825 C826 1.374 . S
C826 H800 0.950 . S
C826 C822 1.385 . S
C826 C825 1.374 . S
C827 C824 1.499 . S
C827 C828 1.373 . S
C827 C829 1.389 . S
C828 H801 0.950 . S
C828 C814 1.377 . S
C828 C827 1.373 . S
C829 C813 1.377 . S
C829 C827 1.389 . S
C829 C830 1.524 . S
C830 C829 1.524 . S
C830 C831 1.397 . S
C830 C835 1.363 . S
C831 H802 0.950 . S
C831 C830 1.397 . S
C831 C832 1.334 . S
C832 H803 0.950 . S
C832 C831 1.334 . S
C832 C833 1.287 . S
C833 C832 1.287 . S
C833 C834 1.524 . S
C833 H836 0.999 . S
C834 H804 0.950 . S
C834 C833 1.524 . S
C834 C835 1.415 . S
C835 H805 0.950 . S
C835 C830 1.363 . S
C835 C834 1.415 . S
H836 C833 0.999 . S
H837 C818 0.913 . S
H838 C856 0.951 . S
H839 C858 0.951 . S
H840 C860 0.950 . S
H841 C861 0.950 . S
H842 C863 0.950 . S
H843 C866 0.950 . S
H844 C867 0.950 . S
H845 C869 0.950 . S
H846 C870 0.950 . S
H847 C871 0.951 . S
H848 C873 0.951 . S
H849 C875 0.950 . S
H850 C876 0.950 . S
H851 C878 0.950 . S
H852 C881 0.950 . S
H853 C882 0.950 1_556 S
H854 C884 0.950 . S
H855 C885 0.950 . S
C856 H838 0.951 . S
C856 C857 1.366 . S
C856 C858 1.388 . S
C857 C856 1.366 . S
C857 C861 1.385 . S
C858 H839 0.951 . S
C858 C856 1.388 . S
C858 C859 1.366 . S
C859 C858 1.366 . S
C859 C860 1.414 . S
C859 C862 1.499 . S
C860 H840 0.950 . S
C860 C859 1.414 . S
C860 C861 1.374 . S
C861 H841 0.950 . S
C861 C857 1.385 . S
C861 C860 1.374 . S
C862 C859 1.499 . S
C862 C863 1.373 . S
C862 C864 1.389 . S
C863 H842 0.950 . S
C863 C862 1.373 . S
C863 C879 1.377 . S
C864 C862 1.389 . S
C864 C865 1.524 . S
C864 C878 1.377 . S
C865 C864 1.524 . S
C865 C866 1.397 . S
C865 C870 1.363 . S
C866 H843 0.950 . S
C866 C865 1.397 . S
C866 C867 1.334 . S
C867 H844 0.950 . S
C867 C866 1.334 . S
C867 C868 1.287 . S
C868 C867 1.287 . S
C868 C869 1.524 . S
C868 H887 0.903 1_565 S
C869 H845 0.950 . S
C869 C868 1.524 . S
C869 C870 1.415 . S
C870 H846 0.950 . S
C870 C865 1.363 . S
C870 C869 1.415 . S
C871 H847 0.951 . S
C871 C872 1.366 . S
C871 C873 1.388 . S
C872 C871 1.366 . S
C872 C876 1.385 . S
C873 H848 0.951 . S
C873 C871 1.388 . S
C873 C874 1.366 . S
C874 C873 1.366 . S
C874 C875 1.414 . S
C874 C877 1.499 . S
C875 H849 0.950 . S
C875 C874 1.414 . S
C875 C876 1.374 . S
C876 H850 0.950 . S
C876 C872 1.385 . S
C876 C875 1.374 . S
C877 C874 1.499 . S
C877 C878 1.373 . S
C877 C879 1.389 . S
C878 H851 0.950 . S
C878 C864 1.377 . S
C878 C877 1.373 . S
C879 C863 1.377 . S
C879 C877 1.389 . S
C879 C880 1.524 . S
C880 C879 1.524 . S
C880 C881 1.397 . S
C880 C885 1.363 . S
C881 H852 0.950 . S
C881 C880 1.397 . S
C881 C882 1.334 . S
C882 H853 0.950 1_554 S
C882 C881 1.334 . S
C882 C883 1.287 1_554 S
C883 C882 1.287 1_556 S
C883 C884 1.524 1_556 S
C883 H886 0.999 . S
C884 H854 0.950 . S
C884 C883 1.524 1_554 S
C884 C885 1.415 . S
C885 H855 0.950 . S
C885 C880 1.363 . S
C885 C884 1.415 . S
H886 C883 0.999 . S
H887 C868 0.903 1_545 S
H888 C906 0.951 . S
H889 C908 0.952 . S
H890 C910 0.950 . S
H891 C911 0.950 . S
H892 C913 0.950 . S
H893 C916 0.950 . S
H894 C917 0.950 . S
H895 C919 0.950 . S
H896 C920 0.950 . S
H897 C921 0.951 . S
H898 C923 0.951 . S
H899 C925 0.950 . S
H900 C926 0.950 . S
H901 C928 0.950 . S
H902 C931 0.950 1_554 S
H903 C932 0.950 . S
H904 C934 0.950 . S
H905 C935 0.950 . S
C906 H888 0.951 . S
C906 C907 1.366 1_554 S
C906 C908 1.388 1_554 S
C907 C906 1.366 1_556 S
C907 C911 1.385 . S
C908 H889 0.952 . S
C908 C906 1.388 1_556 S
C908 C909 1.366 . S
C909 C908 1.366 . S
C909 C910 1.414 . S
C909 C912 1.499 . S
C910 H890 0.950 . S
C910 C909 1.414 . S
C910 C911 1.374 . S
C911 H891 0.950 . S
C911 C907 1.385 . S
C911 C910 1.374 . S
C912 C909 1.499 . S
C912 C913 1.373 . S
C912 C914 1.389 . S
C913 H892 0.950 . S
C913 C912 1.373 . S
C913 C929 1.377 . S
C914 C912 1.389 . S
C914 C915 1.524 . S
C914 C928 1.377 . S
C915 C914 1.524 . S
C915 C916 1.397 . S
C915 C920 1.363 . S
C916 H893 0.950 . S
C916 C915 1.397 . S
C916 C917 1.334 . S
C917 H894 0.950 . S
C917 C916 1.334 . S
C917 C918 1.287 . S
C918 C917 1.287 . S
C918 C919 1.524 . S
C918 H937 0.913 . S
C919 H895 0.950 . S
C919 C918 1.524 . S
C919 C920 1.415 . S
C920 H896 0.950 . S
C920 C915 1.363 . S
C920 C919 1.415 . S
C921 H897 0.951 . S
C921 C922 1.366 . S
C921 C923 1.388 . S
C922 C921 1.366 . S
C922 C926 1.385 . S
C923 H898 0.951 . S
C923 C921 1.388 . S
C923 C924 1.366 . S
C924 C923 1.366 . S
C924 C925 1.414 . S
C924 C927 1.499 . S
C925 H899 0.950 . S
C925 C924 1.414 . S
C925 C926 1.374 . S
C926 H900 0.950 . S
C926 C922 1.385 . S
C926 C925 1.374 . S
C927 C924 1.499 . S
C927 C928 1.373 . S
C927 C929 1.389 . S
C928 H901 0.950 . S
C928 C914 1.377 . S
C928 C927 1.373 . S
C929 C913 1.377 . S
C929 C927 1.389 . S
C929 C930 1.524 . S
C930 C929 1.524 . S
C930 C931 1.396 . S
C930 C935 1.363 . S
C931 H902 0.950 1_556 S
C931 C930 1.396 . S
C931 C932 1.334 1_556 S
C932 H903 0.950 . S
C932 C931 1.334 1_554 S
C932 C933 1.287 . S
C933 C932 1.287 . S
C933 C934 1.524 1_554 S
C933 H936 0.999 . S
C934 H904 0.950 . S
C934 C933 1.524 1_556 S
C934 C935 1.415 . S
C935 H905 0.950 . S
C935 C930 1.363 . S
C935 C934 1.415 . S
H936 C933 0.999 . S
H937 C918 0.913 . S
H938 C956 0.951 . S
H939 C958 0.951 . S
H940 C960 0.950 . S
H941 C961 0.950 . S
H942 C963 0.950 1_554 S
H943 C966 0.950 . S
H944 C967 0.950 . S
H945 C969 0.950 . S
H946 C970 0.950 . S
H947 C971 0.951 . S
H948 C973 0.951 . S
H949 C975 0.950 . S
H950 C976 0.950 . S
H951 C978 0.950 . S
H952 C981 0.950 . S
H953 C982 0.950 . S
H954 C984 0.950 . S
H955 C985 0.950 . S
C956 H938 0.951 . S
C956 C957 1.366 . S
C956 C958 1.388 . S
C957 C956 1.366 . S
C957 C961 1.385 . S
C958 H939 0.951 . S
C958 C956 1.388 . S
C958 C959 1.366 . S
C959 C958 1.366 . S
C959 C960 1.414 . S
C959 C962 1.499 . S
C960 H940 0.950 . S
C960 C959 1.414 . S
C960 C961 1.374 . S
C961 H941 0.950 . S
C961 C957 1.385 . S
C961 C960 1.374 . S
C962 C959 1.499 . S
C962 C963 1.373 . S
C962 C964 1.389 . S
C963 H942 0.950 1_556 S
C963 C962 1.373 . S
C963 C979 1.379 . S
C964 C962 1.389 . S
C964 C965 1.524 . S
C964 C978 1.377 . S
C965 C964 1.524 . S
C965 C966 1.397 . S
C965 C970 1.363 . S
C966 H943 0.950 . S
C966 C965 1.397 . S
C966 C967 1.334 . S
C967 H944 0.950 . S
C967 C966 1.334 . S
C967 C968 1.287 . S
C968 C967 1.287 . S
C968 C969 1.524 . S
C968 H987 0.913 . S
C969 H945 0.950 . S
C969 C968 1.524 . S
C969 C970 1.415 . S
C970 H946 0.950 . S
C970 C965 1.363 . S
C970 C969 1.415 . S
C971 H947 0.951 . S
C971 C972 1.366 . S
C971 C973 1.388 . S
C972 C971 1.366 . S
C972 C976 1.385 1_554 S
C973 H948 0.951 . S
C973 C971 1.388 . S
C973 C974 1.366 1_554 S
C974 C973 1.366 1_556 S
C974 C975 1.414 . S
C974 C977 1.499 . S
C975 H949 0.950 . S
C975 C974 1.414 . S
C975 C976 1.374 . S
C976 H950 0.950 . S
C976 C972 1.385 1_556 S
C976 C975 1.374 . S
C977 C974 1.499 . S
C977 C978 1.373 . S
C977 C979 1.396 . S
C978 H951 0.950 . S
C978 C964 1.377 . S
C978 C977 1.373 . S
C979 C963 1.379 . S
C979 C977 1.396 . S
C979 C980 1.515 1_556 S
C980 C979 1.515 1_554 S
C980 C981 1.397 . S
C980 C985 1.363 . S
C981 H952 0.950 . S
C981 C980 1.397 . S
C981 C982 1.334 . S
C982 H953 0.950 . S
C982 C981 1.334 . S
C982 C983 1.287 . S
C983 C982 1.287 . S
C983 C984 1.524 . S
C983 H986 0.999 . S
C984 H954 0.950 . S
C984 C983 1.524 . S
C984 C985 1.415 . S
C985 H955 0.950 . S
C985 C980 1.363 . S
C985 C984 1.415 . S
H986 C983 0.999 . S
H987 C968 0.913 . S
H988 C1006 0.951 . S
H989 C1008 0.951 . S
H990 C1010 0.950 . S
H991 C1011 0.950 . S
H992 C1013 0.950 . S
H993 C1016 0.950 . S
H994 C1017 0.950 . S
H995 C1019 0.950 . S
H996 C1020 0.950 . S
H997 C1021 0.951 1_554 S
H998 C1023 0.951 . S
H999 C1025 0.950 . S
H1000 C1026 0.950 . S
H1001 C1028 0.950 . S
H1002 C1031 0.950 . S
H1003 C1032 0.950 . S
H1004 C1034 0.950 . S
H1005 C1035 0.950 . S
C1006 H988 0.951 . S
C1006 C1007 1.366 . S
C1006 C1008 1.388 . S
C1007 C1006 1.366 . S
C1007 C1011 1.385 . S
C1008 H989 0.951 . S
C1008 C1006 1.388 . S
C1008 C1009 1.366 . S
C1009 C1008 1.366 . S
C1009 C1010 1.414 . S
C1009 C1012 1.499 . S
C1010 H990 0.950 . S
C1010 C1009 1.414 . S
C1010 C1011 1.374 . S
C1011 H991 0.950 . S
C1011 C1007 1.385 . S
C1011 C1010 1.374 . S
C1012 C1009 1.499 . S
C1012 C1013 1.373 . S
C1012 C1014 1.389 . S
C1013 H992 0.950 . S
C1013 C1012 1.373 . S
C1013 C1029 1.377 . S
C1014 C1012 1.389 . S
C1014 C1015 1.524 . S
C1014 C1028 1.377 . S
C1015 C1014 1.524 . S
C1015 C1016 1.397 . S
C1015 C1020 1.363 . S
C1016 H993 0.950 . S
C1016 C1015 1.397 . S
C1016 C1017 1.334 . S
C1017 H994 0.950 . S
C1017 C1016 1.334 . S
C1017 C1018 1.287 . S
C1018 C1017 1.287 . S
C1018 C1019 1.524 . S
C1018 H1037 0.913 . S
C1019 H995 0.950 . S
C1019 C1018 1.524 . S
C1019 C1020 1.415 . S
C1020 H996 0.950 . S
C1020 C1015 1.363 . S
C1020 C1019 1.415 . S
C1021 H997 0.951 1_556 S
C1021 C1022 1.366 . S
C1021 C1023 1.388 . S
C1022 C1021 1.366 . S
C1022 C1026 1.385 . S
C1023 H998 0.951 . S
C1023 C1021 1.388 . S
C1023 C1024 1.366 . S
C1024 C1023 1.366 . S
C1024 C1025 1.414 . S
C1024 C1027 1.499 . S
C1025 H999 0.950 . S
C1025 C1024 1.414 . S
C1025 C1026 1.374 . S
C1026 H1000 0.950 . S
C1026 C1022 1.385 . S
C1026 C1025 1.374 . S
C1027 C1024 1.499 . S
C1027 C1028 1.373 . S
C1027 C1029 1.389 . S
C1028 H1001 0.950 . S
C1028 C1014 1.377 . S
C1028 C1027 1.373 . S
C1029 C1013 1.377 . S
C1029 C1027 1.389 . S
C1029 C1030 1.524 1_556 S
C1030 C1029 1.524 1_554 S
C1030 C1031 1.397 . S
C1030 C1035 1.363 . S
C1031 H1002 0.950 . S
C1031 C1030 1.397 . S
C1031 C1032 1.334 . S
C1032 H1003 0.950 . S
C1032 C1031 1.334 . S
C1032 C1033 1.287 . S
C1033 C1032 1.287 . S
C1033 C1034 1.524 . S
C1033 H1036 0.999 . S
C1034 H1004 0.950 . S
C1034 C1033 1.524 . S
C1034 C1035 1.415 . S
C1035 H1005 0.950 . S
C1035 C1030 1.363 . S
C1035 C1034 1.415 . S
H1036 C1033 0.999 . S
H1037 C1018 0.913 . S
H1038 C1056 0.951 . S
H1039 C1058 0.951 . S
H1040 C1060 0.950 . S
H1041 C1061 0.950 . S
H1042 C1063 0.950 . S
H1043 C1066 0.950 . S
H1044 C1067 0.950 . S
H1045 C1069 0.950 1_455 S
H1046 C1070 0.950 . S
H1047 C1071 0.951 . S
H1048 C1073 0.951 . S
H1049 C1075 0.950 . S
H1050 C1076 0.950 . S
H1051 C1078 0.950 . S
H1052 C1081 0.950 1_554 S
H1053 C1082 0.950 1_554 S
H1054 C1084 0.950 . S
H1055 C1085 0.950 . S
C1056 H1038 0.951 . S
C1056 C1057 1.366 . S
C1056 C1058 1.388 . S
C1057 C1056 1.366 . S
C1057 C1061 1.385 . S
C1058 H1039 0.951 . S
C1058 C1056 1.388 . S
C1058 C1059 1.366 . S
C1059 C1058 1.366 . S
C1059 C1060 1.414 . S
C1059 C1062 1.499 . S
C1060 H1040 0.950 . S
C1060 C1059 1.414 . S
C1060 C1061 1.374 . S
C1061 H1041 0.950 . S
C1061 C1057 1.385 . S
C1061 C1060 1.374 . S
C1062 C1059 1.499 . S
C1062 C1063 1.373 . S
C1062 C1064 1.389 . S
C1063 H1042 0.950 . S
C1063 C1062 1.373 . S
C1063 C1079 1.377 . S
C1064 C1062 1.389 . S
C1064 C1065 1.524 . S
C1064 C1078 1.377 . S
C1065 C1064 1.524 . S
C1065 C1066 1.397 . S
C1065 C1070 1.363 . S
C1066 H1043 0.950 . S
C1066 C1065 1.397 . S
C1066 C1067 1.334 . S
C1067 H1044 0.950 . S
C1067 C1066 1.334 . S
C1067 C1068 1.287 . S
C1068 C1067 1.287 . S
C1068 C1069 1.524 . S
C1068 H1087 0.913 1_655 S
C1069 H1045 0.950 1_655 S
C1069 C1068 1.524 . S
C1069 C1070 1.415 . S
C1070 H1046 0.950 . S
C1070 C1065 1.363 . S
C1070 C1069 1.415 . S
C1071 H1047 0.951 . S
C1071 C1072 1.366 1_556 S
C1071 C1073 1.388 . S
C1072 C1071 1.366 1_554 S
C1072 C1076 1.385 . S
C1073 H1048 0.951 . S
C1073 C1071 1.388 . S
C1073 C1074 1.366 . S
C1074 C1073 1.366 . S
C1074 C1075 1.414 1_556 S
C1074 C1077 1.499 . S
C1075 H1049 0.950 . S
C1075 C1074 1.414 1_554 S
C1075 C1076 1.374 . S
C1076 H1050 0.950 . S
C1076 C1072 1.385 . S
C1076 C1075 1.374 . S
C1077 C1074 1.499 . S
C1077 C1078 1.373 . S
C1077 C1079 1.389 . S
C1078 H1051 0.950 . S
C1078 C1064 1.377 . S
C1078 C1077 1.373 . S
C1079 C1063 1.377 . S
C1079 C1077 1.389 . S
C1079 C1080 1.524 . S
C1080 C1079 1.524 . S
C1080 C1081 1.397 . S
C1080 C1085 1.363 . S
C1081 H1052 0.950 1_556 S
C1081 C1080 1.397 . S
C1081 C1082 1.334 . S
C1082 H1053 0.950 1_556 S
C1082 C1081 1.334 . S
C1082 C1083 1.287 . S
C1083 C1082 1.287 . S
C1083 C1084 1.524 . S
C1083 H1086 0.999 . S
C1084 H1054 0.950 . S
C1084 C1083 1.524 . S
C1084 C1085 1.415 . S
C1085 H1055 0.950 . S
C1085 C1080 1.363 . S
C1085 C1084 1.415 . S
H1086 C1083 0.999 . S
H1087 C1068 0.913 1_455 S
H1088 C1106 0.951 . S
H1089 C1108 0.951 . S
H1090 C1110 0.950 . S
H1091 C1111 0.950 . S
H1092 C1113 0.950 . S
H1093 C1116 0.950 . S
H1094 C1117 0.950 . S
H1095 C1119 0.950 . S
H1096 C1120 0.950 . S
H1097 C1121 0.951 . S
H1098 C1123 0.951 . S
H1099 C1125 0.950 . S
H1100 C1126 0.950 . S
H1101 C1128 0.950 . S
H1102 C1131 0.950 . S
H1103 C1132 0.950 . S
H1104 C1134 0.950 . S
H1105 C1135 0.950 . S
C1106 H1088 0.951 . S
C1106 C1107 1.366 1_556 S
C1106 C1108 1.388 . S
C1107 C1106 1.366 1_554 S
C1107 C1111 1.385 . S
C1108 H1089 0.951 . S
C1108 C1106 1.388 . S
C1108 C1109 1.366 . S
C1109 C1108 1.366 . S
C1109 C1110 1.414 1_556 S
C1109 C1112 1.499 . S
C1110 H1090 0.950 . S
C1110 C1109 1.414 1_554 S
C1110 C1111 1.374 . S
C1111 H1091 0.950 . S
C1111 C1107 1.385 . S
C1111 C1110 1.374 . S
C1112 C1109 1.499 . S
C1112 C1113 1.373 . S
C1112 C1114 1.389 . S
C1113 H1092 0.950 . S
C1113 C1112 1.373 . S
C1113 C1129 1.377 . S
C1114 C1112 1.389 . S
C1114 C1115 1.524 1_556 S
C1114 C1128 1.377 . S
C1115 C1114 1.524 1_554 S
C1115 C1116 1.397 . S
C1115 C1120 1.363 1_554 S
C1116 H1093 0.950 . S
C1116 C1115 1.397 . S
C1116 C1117 1.334 . S
C1117 H1094 0.950 . S
C1117 C1116 1.334 . S
C1117 C1118 1.287 . S
C1118 C1117 1.287 . S
C1118 C1119 1.524 . S
C1118 H1137 0.913 . S
C1119 H1095 0.950 . S
C1119 C1118 1.524 . S
C1119 C1120 1.415 1_554 S
C1120 H1096 0.950 . S
C1120 C1115 1.363 1_556 S
C1120 C1119 1.415 1_556 S
C1121 H1097 0.951 . S
C1121 C1122 1.366 . S
C1121 C1123 1.388 . S
C1122 C1121 1.366 . S
C1122 C1126 1.385 . S
C1123 H1098 0.951 . S
C1123 C1121 1.388 . S
C1123 C1124 1.366 . S
C1124 C1123 1.366 . S
C1124 C1125 1.414 . S
C1124 C1127 1.499 . S
C1125 H1099 0.950 . S
C1125 C1124 1.414 . S
C1125 C1126 1.374 . S
C1126 H1100 0.950 . S
C1126 C1122 1.385 . S
C1126 C1125 1.374 . S
C1127 C1124 1.499 . S
C1127 C1128 1.373 . S
C1127 C1129 1.389 . S
C1128 H1101 0.950 . S
C1128 C1114 1.377 . S
C1128 C1127 1.373 . S
C1129 C1113 1.377 . S
C1129 C1127 1.389 . S
C1129 C1130 1.524 . S
C1130 C1129 1.524 . S
C1130 C1131 1.397 . S
C1130 C1135 1.363 . S
C1131 H1102 0.950 . S
C1131 C1130 1.397 . S
C1131 C1132 1.334 . S
C1132 H1103 0.950 . S
C1132 C1131 1.334 . S
C1132 C1133 1.287 . S
C1133 C1132 1.287 . S
C1133 C1134 1.524 . S
C1133 H1136 0.999 . S
C1134 H1104 0.950 . S
C1134 C1133 1.524 . S
C1134 C1135 1.415 . S
C1135 H1105 0.950 . S
C1135 C1130 1.363 . S
C1135 C1134 1.415 . S
H1136 C1133 0.999 . S
H1137 C1118 0.913 . S
H1138 C1156 0.951 . S
H1139 C1158 0.951 . S
H1140 C1160 0.950 . S
H1141 C1161 0.950 . S
H1142 C1163 0.950 . S
H1143 C1166 0.950 . S
H1144 C1167 0.950 . S
H1145 C1169 0.950 . S
H1146 C1170 0.950 . S
H1147 C1171 0.951 . S
H1148 C1173 0.951 . S
H1149 C1175 0.950 . S
H1150 C1176 0.950 . S
H1151 C1178 0.950 . S
H1152 C1181 0.950 . S
H1153 C1182 0.950 . S
H1154 C1184 0.950 1_556 S
H1155 C1185 0.950 . S
C1156 H1138 0.951 . S
C1156 C1157 1.366 . S
C1156 C1158 1.388 . S
C1157 C1156 1.366 . S
C1157 C1161 1.385 . S
C1158 H1139 0.951 . S
C1158 C1156 1.388 . S
C1158 C1159 1.366 . S
C1159 C1158 1.366 . S
C1159 C1160 1.414 . S
C1159 C1162 1.499 . S
C1160 H1140 0.950 . S
C1160 C1159 1.414 . S
C1160 C1161 1.374 . S
C1161 H1141 0.950 . S
C1161 C1157 1.385 . S
C1161 C1160 1.374 . S
C1162 C1159 1.499 . S
C1162 C1163 1.373 . S
C1162 C1164 1.389 . S
C1163 H1142 0.950 . S
C1163 C1162 1.373 . S
C1163 C1179 1.377 . S
C1164 C1162 1.389 . S
C1164 C1165 1.524 . S
C1164 C1178 1.377 . S
C1165 C1164 1.524 . S
C1165 C1166 1.397 . S
C1165 C1170 1.363 . S
C1166 H1143 0.950 . S
C1166 C1165 1.397 . S
C1166 C1167 1.334 . S
C1167 H1144 0.950 . S
C1167 C1166 1.334 . S
C1167 C1168 1.287 . S
C1168 C1167 1.287 . S
C1168 C1169 1.524 . S
C1168 H1187 0.913 . S
C1169 H1145 0.950 . S
C1169 C1168 1.524 . S
C1169 C1170 1.415 . S
C1170 H1146 0.950 . S
C1170 C1165 1.363 . S
C1170 C1169 1.415 . S
C1171 H1147 0.951 . S
C1171 C1172 1.366 . S
C1171 C1173 1.388 . S
C1172 C1171 1.366 . S
C1172 C1176 1.385 . S
C1173 H1148 0.951 . S
C1173 C1171 1.388 . S
C1173 C1174 1.366 . S
C1174 C1173 1.366 . S
C1174 C1175 1.414 . S
C1174 C1177 1.499 . S
C1175 H1149 0.950 . S
C1175 C1174 1.414 . S
C1175 C1176 1.374 . S
C1176 H1150 0.950 . S
C1176 C1172 1.385 . S
C1176 C1175 1.374 . S
C1177 C1174 1.499 . S
C1177 C1178 1.373 . S
C1177 C1179 1.389 . S
C1178 H1151 0.950 . S
C1178 C1164 1.377 . S
C1178 C1177 1.373 . S
C1179 C1163 1.377 . S
C1179 C1177 1.389 . S
C1179 C1180 1.524 . S
C1180 C1179 1.524 . S
C1180 C1181 1.397 1_556 S
C1180 C1185 1.363 . S
C1181 H1152 0.950 . S
C1181 C1180 1.397 1_554 S
C1181 C1182 1.334 . S
C1182 H1153 0.950 . S
C1182 C1181 1.334 . S
C1182 C1183 1.287 . S
C1183 C1182 1.287 . S
C1183 C1184 1.524 . S
C1183 H1186 0.999 . S
C1184 H1154 0.950 1_554 S
C1184 C1183 1.524 . S
C1184 C1185 1.415 1_554 S
C1185 H1155 0.950 . S
C1185 C1180 1.363 . S
C1185 C1184 1.415 1_556 S
H1186 C1183 0.999 . S
H1187 C1168 0.913 . S
H1188 C1206 0.951 . S
H1189 C1208 0.951 . S
H1190 C1210 0.950 . S
H1191 C1211 0.950 . S
H1192 C1213 0.950 . S
H1193 C1216 0.950 1_556 S
H1194 C1217 0.950 . S
H1195 C1219 0.950 1_545 S
H1196 C1220 0.950 . S
H1197 C1221 0.951 . S
H1198 C1223 0.951 . S
H1199 C1225 0.950 . S
H1200 C1226 0.950 . S
H1201 C1228 0.950 . S
H1202 C1231 0.950 . S
H1203 C1232 0.950 . S
H1204 C1234 0.950 . S
H1205 C1235 0.950 . S
C1206 H1188 0.951 . S
C1206 C1207 1.366 . S
C1206 C1208 1.388 . S
C1207 C1206 1.366 . S
C1207 C1211 1.385 1_554 S
C1208 H1189 0.951 . S
C1208 C1206 1.388 . S
C1208 C1209 1.366 . S
C1209 C1208 1.366 . S
C1209 C1210 1.414 1_554 S
C1209 C1212 1.499 . S
C1210 H1190 0.950 . S
C1210 C1209 1.414 1_556 S
C1210 C1211 1.374 . S
C1211 H1191 0.950 . S
C1211 C1207 1.385 1_556 S
C1211 C1210 1.374 . S
C1212 C1209 1.499 . S
C1212 C1213 1.373 . S
C1212 C1214 1.389 . S
C1213 H1192 0.950 . S
C1213 C1212 1.373 . S
C1213 C1229 1.377 . S
C1214 C1212 1.389 . S
C1214 C1215 1.524 . S
C1214 C1228 1.377 . S
C1215 C1214 1.524 . S
C1215 C1216 1.397 . S
C1215 C1220 1.363 . S
C1216 H1193 0.950 1_554 S
C1216 C1215 1.397 . S
C1216 C1217 1.334 1_554 S
C1217 H1194 0.950 . S
C1217 C1216 1.334 1_556 S
C1217 C1218 1.287 1_566 S
C1218 C1217 1.287 1_544 S
C1218 C1219 1.524 1_545 S
C1218 H1237 0.913 . S
C1219 H1195 0.950 1_565 S
C1219 C1218 1.524 1_565 S
C1219 C1220 1.415 . S
C1220 H1196 0.950 . S
C1220 C1215 1.363 . S
C1220 C1219 1.415 . S
C1221 H1197 0.951 . S
C1221 C1222 1.366 . S
C1221 C1223 1.388 . S
C1222 C1221 1.366 . S
C1222 C1226 1.385 . S
C1223 H1198 0.951 . S
C1223 C1221 1.388 . S
C1223 C1224 1.366 . S
C1224 C1223 1.366 . S
C1224 C1225 1.414 . S
C1224 C1227 1.499 . S
C1225 H1199 0.950 . S
C1225 C1224 1.414 . S
C1225 C1226 1.374 . S
C1226 H1200 0.950 . S
C1226 C1222 1.385 . S
C1226 C1225 1.374 . S
C1227 C1224 1.499 . S
C1227 C1228 1.373 . S
C1227 C1229 1.389 . S
C1228 H1201 0.950 . S
C1228 C1214 1.377 . S
C1228 C1227 1.373 . S
C1229 C1213 1.377 . S
C1229 C1227 1.389 . S
C1229 C1230 1.524 . S
C1230 C1229 1.524 . S
C1230 C1231 1.397 . S
C1230 C1235 1.363 . S
C1231 H1202 0.950 . S
C1231 C1230 1.397 . S
C1231 C1232 1.334 . S
C1232 H1203 0.950 . S
C1232 C1231 1.334 . S
C1232 C1233 1.287 . S
C1233 C1232 1.287 . S
C1233 C1234 1.524 . S
C1233 H1236 0.999 . S
C1234 H1204 0.950 . S
C1234 C1233 1.524 . S
C1234 C1235 1.415 . S
C1235 H1205 0.950 . S
C1235 C1230 1.363 . S
C1235 C1234 1.415 . S
H1236 C1233 0.999 . S
H1237 C1218 0.913 . S
H1238 C1256 0.951 . S
H1239 C1258 0.951 . S
H1240 C1260 0.950 . S
H1241 C1261 0.950 . S
H1242 C1263 0.950 . S
H1243 C1266 0.950 . S
H1244 C1267 0.950 . S
H1245 C1269 0.950 . S
H1246 C1270 0.950 . S
H1247 C1271 0.951 . S
H1248 C1273 0.951 . S
H1249 C1275 0.950 . S
H1250 C1276 0.950 . S
H1251 C1278 0.950 . S
H1252 C1281 0.950 . S
H1253 C1282 0.950 . S
H1254 C1284 0.950 . S
H1255 C1285 0.950 . S
C1256 H1238 0.951 . S
C1256 C1257 1.366 . S
C1256 C1258 1.388 . S
C1257 C1256 1.366 . S
C1257 C1261 1.385 . S
C1258 H1239 0.951 . S
C1258 C1256 1.388 . S
C1258 C1259 1.366 . S
C1259 C1258 1.366 . S
C1259 C1260 1.414 . S
C1259 C1262 1.499 . S
C1260 H1240 0.950 . S
C1260 C1259 1.414 . S
C1260 C1261 1.374 . S
C1261 H1241 0.950 . S
C1261 C1257 1.385 . S
C1261 C1260 1.374 . S
C1262 C1259 1.499 . S
C1262 C1263 1.373 . S
C1262 C1264 1.389 . S
C1263 H1242 0.950 . S
C1263 C1262 1.373 . S
C1263 C1279 1.377 . S
C1264 C1262 1.389 . S
C1264 C1265 1.524 . S
C1264 C1278 1.377 . S
C1265 C1264 1.524 . S
C1265 C1266 1.397 . S
C1265 C1270 1.363 . S
C1266 H1243 0.950 . S
C1266 C1265 1.397 . S
C1266 C1267 1.334 1_554 S
C1267 H1244 0.950 . S
C1267 C1266 1.334 1_556 S
C1267 C1268 1.287 . S
C1268 C1267 1.287 . S
C1268 C1269 1.524 . S
C1268 H1287 0.913 . S
C1269 H1245 0.950 . S
C1269 C1268 1.524 . S
C1269 C1270 1.415 1_556 S
C1270 H1246 0.950 . S
C1270 C1265 1.363 . S
C1270 C1269 1.415 1_554 S
C1271 H1247 0.951 . S
C1271 C1272 1.366 . S
C1271 C1273 1.388 . S
C1272 C1271 1.366 . S
C1272 C1276 1.385 . S
C1273 H1248 0.951 . S
C1273 C1271 1.388 . S
C1273 C1274 1.366 . S
C1274 C1273 1.366 . S
C1274 C1275 1.414 . S
C1274 C1277 1.499 . S
C1275 H1249 0.950 . S
C1275 C1274 1.414 . S
C1275 C1276 1.374 . S
C1276 H1250 0.950 . S
C1276 C1272 1.385 . S
C1276 C1275 1.374 . S
C1277 C1274 1.499 . S
C1277 C1278 1.373 . S
C1277 C1279 1.389 . S
C1278 H1251 0.950 . S
C1278 C1264 1.377 . S
C1278 C1277 1.373 . S
C1279 C1263 1.377 . S
C1279 C1277 1.389 . S
C1279 C1280 1.524 . S
C1280 C1279 1.524 . S
C1280 C1281 1.397 . S
C1280 C1285 1.363 . S
C1281 H1252 0.950 . S
C1281 C1280 1.397 . S
C1281 C1282 1.334 . S
C1282 H1253 0.950 . S
C1282 C1281 1.334 . S
C1282 C1283 1.287 . S
C1283 C1282 1.287 . S
C1283 C1284 1.524 . S
C1283 H1286 0.999 . S
C1284 H1254 0.950 . S
C1284 C1283 1.524 . S
C1284 C1285 1.415 . S
C1285 H1255 0.950 . S
C1285 C1280 1.363 . S
C1285 C1284 1.415 . S
H1286 C1283 0.999 . S
H1287 C1268 0.913 . S
H1288 C1306 0.951 1_556 S
H1289 C1308 0.951 . S
H1290 C1310 0.950 . S
H1291 C1311 0.950 . S
H1292 C1313 0.950 . S
H1293 C1316 0.950 . S
H1294 C1317 0.950 . S
H1295 C1319 0.950 . S
H1296 C1320 0.950 . S
H1297 C1321 0.951 . S
H1298 C1323 0.951 . S
H1299 C1325 0.950 . S
H1300 C1326 0.950 . S
H1301 C1328 0.950 . S
H1302 C1331 0.950 . S
H1303 C1332 0.950 . S
H1304 C1334 0.950 . S
H1305 C1335 0.950 . S
C1306 H1288 0.951 1_554 S
C1306 C1307 1.366 . S
C1306 C1308 1.388 . S
C1307 C1306 1.366 . S
C1307 C1311 1.385 . S
C1308 H1289 0.951 . S
C1308 C1306 1.388 . S
C1308 C1309 1.366 . S
C1309 C1308 1.366 . S
C1309 C1310 1.414 . S
C1309 C1312 1.499 . S
C1310 H1290 0.950 . S
C1310 C1309 1.414 . S
C1310 C1311 1.374 . S
C1311 H1291 0.950 . S
C1311 C1307 1.385 . S
C1311 C1310 1.374 . S
C1312 C1309 1.499 . S
C1312 C1313 1.373 . S
C1312 C1314 1.389 . S
C1313 H1292 0.950 . S
C1313 C1312 1.373 . S
C1313 C1329 1.377 . S
C1314 C1312 1.389 . S
C1314 C1315 1.524 . S
C1314 C1328 1.377 . S
C1315 C1314 1.524 . S
C1315 C1316 1.397 . S
C1315 C1320 1.363 . S
C1316 H1293 0.950 . S
C1316 C1315 1.397 . S
C1316 C1317 1.334 . S
C1317 H1294 0.950 . S
C1317 C1316 1.334 . S
C1317 C1318 1.287 . S
C1318 C1317 1.287 . S
C1318 C1319 1.524 1_554 S
C1318 H1337 0.913 1_554 S
C1319 H1295 0.950 . S
C1319 C1318 1.524 1_556 S
C1319 C1320 1.415 1_556 S
C1320 H1296 0.950 . S
C1320 C1315 1.363 . S
C1320 C1319 1.415 1_554 S
C1321 H1297 0.951 . S
C1321 C1322 1.366 . S
C1321 C1323 1.388 . S
C1322 C1321 1.366 . S
C1322 C1326 1.385 . S
C1323 H1298 0.951 . S
C1323 C1321 1.388 . S
C1323 C1324 1.366 . S
C1324 C1323 1.366 . S
C1324 C1325 1.414 . S
C1324 C1327 1.499 . S
C1325 H1299 0.950 . S
C1325 C1324 1.414 . S
C1325 C1326 1.374 . S
C1326 H1300 0.950 . S
C1326 C1322 1.385 . S
C1326 C1325 1.374 . S
C1327 C1324 1.499 . S
C1327 C1328 1.373 . S
C1327 C1329 1.389 . S
C1328 H1301 0.950 . S
C1328 C1314 1.377 . S
C1328 C1327 1.373 . S
C1329 C1313 1.377 . S
C1329 C1327 1.389 . S
C1329 C1330 1.524 . S
C1330 C1329 1.524 . S
C1330 C1331 1.397 . S
C1330 C1335 1.363 . S
C1331 H1302 0.950 . S
C1331 C1330 1.397 . S
C1331 C1332 1.334 . S
C1332 H1303 0.950 . S
C1332 C1331 1.334 . S
C1332 C1333 1.287 . S
C1333 C1332 1.287 . S
C1333 C1334 1.524 . S
C1333 H1336 0.999 . S
C1334 H1304 0.950 . S
C1334 C1333 1.524 . S
C1334 C1335 1.415 . S
C1335 H1305 0.950 . S
C1335 C1330 1.363 . S
C1335 C1334 1.415 . S
H1336 C1333 0.999 . S
H1337 C1318 0.913 1_556 S
H1338 C1356 0.951 . S
H1339 C1358 0.951 . S
H1340 C1360 0.950 . S
H1341 C1361 0.950 . S
H1342 C1363 0.950 . S
H1343 C1366 0.950 . S
H1344 C1367 0.950 . S
H1345 C1369 0.950 . S
H1346 C1370 0.950 . S
H1347 C1371 0.951 . S
H1348 C1373 0.951 . S
H1349 C1375 0.950 . S
H1350 C1376 0.950 . S
H1351 C1378 0.950 . S
H1352 C1381 0.950 . S
H1353 C1382 0.950 . S
H1354 C1384 0.950 . S
H1355 C1385 0.950 . S
C1356 H1338 0.951 . S
C1356 C1357 1.366 . S
C1356 C1358 1.388 . S
C1357 C1356 1.366 . S
C1357 C1361 1.385 . S
C1358 H1339 0.951 . S
C1358 C1356 1.388 . S
C1358 C1359 1.366 . S
C1359 C1358 1.366 . S
C1359 C1360 1.414 . S
C1359 C1362 1.499 . S
C1360 H1340 0.950 . S
C1360 C1359 1.414 . S
C1360 C1361 1.374 . S
C1361 H1341 0.950 . S
C1361 C1357 1.385 . S
C1361 C1360 1.374 . S
C1362 C1359 1.499 . S
C1362 C1363 1.373 . S
C1362 C1364 1.389 . S
C1363 H1342 0.950 . S
C1363 C1362 1.373 . S
C1363 C1379 1.377 . S
C1364 C1362 1.389 . S
C1364 C1365 1.524 . S
C1364 C1378 1.377 . S
C1365 C1364 1.524 . S
C1365 C1366 1.397 . S
C1365 C1370 1.363 . S
C1366 H1343 0.950 . S
C1366 C1365 1.397 . S
C1366 C1367 1.334 . S
C1367 H1344 0.950 . S
C1367 C1366 1.334 . S
C1367 C1368 1.287 . S
C1368 C1367 1.287 . S
C1368 C1369 1.524 . S
C1368 H1387 0.913 . S
C1369 H1345 0.950 . S
C1369 C1368 1.524 . S
C1369 C1370 1.415 . S
C1370 H1346 0.950 . S
C1370 C1365 1.363 . S
C1370 C1369 1.415 . S
C1371 H1347 0.951 . S
C1371 C1372 1.366 . S
C1371 C1373 1.388 . S
C1372 C1371 1.366 . S
C1372 C1376 1.385 . S
C1373 H1348 0.951 . S
C1373 C1371 1.388 . S
C1373 C1374 1.366 . S
C1374 C1373 1.366 . S
C1374 C1375 1.414 . S
C1374 C1377 1.499 . S
C1375 H1349 0.950 . S
C1375 C1374 1.414 . S
C1375 C1376 1.374 . S
C1376 H1350 0.950 . S
C1376 C1372 1.385 . S
C1376 C1375 1.374 . S
C1377 C1374 1.499 . S
C1377 C1378 1.373 . S
C1377 C1379 1.389 . S
C1378 H1351 0.950 . S
C1378 C1364 1.377 . S
C1378 C1377 1.373 . S
C1379 C1363 1.377 . S
C1379 C1377 1.389 . S
C1379 C1380 1.524 . S
C1380 C1379 1.524 . S
C1380 C1381 1.397 . S
C1380 C1385 1.363 . S
C1381 H1352 0.950 . S
C1381 C1380 1.397 . S
C1381 C1382 1.334 . S
C1382 H1353 0.950 . S
C1382 C1381 1.334 . S
C1382 C1383 1.287 . S
C1383 C1382 1.287 . S
C1383 C1384 1.524 . S
C1383 H1386 0.999 . S
C1384 H1354 0.950 . S
C1384 C1383 1.524 . S
C1384 C1385 1.415 . S
C1385 H1355 0.950 . S
C1385 C1380 1.363 . S
C1385 C1384 1.415 . S
H1386 C1383 0.999 . S
H1387 C1368 0.913 . S
H1388 C1406 0.951 . S
H1389 C1408 0.951 . S
H1390 C1410 0.950 . S
H1391 C1411 0.950 . S
H1392 C1413 0.950 . S
H1393 C1416 0.950 . S
H1394 C1417 0.950 . S
H1395 C1419 0.950 . S
H1396 C1420 0.950 . S
H1397 C1421 0.951 . S
H1398 C1423 0.951 . S
H1399 C1425 0.950 . S
H1400 C1426 0.950 . S
H1401 C1428 0.950 . S
H1402 C1431 0.950 . S
H1403 C1432 0.950 . S
H1404 C1434 0.950 . S
H1405 C1435 0.950 . S
C1406 H1388 0.951 . S
C1406 C1407 1.366 . S
C1406 C1408 1.388 . S
C1407 C1406 1.366 . S
C1407 C1411 1.385 . S
C1408 H1389 0.951 . S
C1408 C1406 1.388 . S
C1408 C1409 1.366 . S
C1409 C1408 1.366 . S
C1409 C1410 1.414 . S
C1409 C1412 1.499 . S
C1410 H1390 0.950 . S
C1410 C1409 1.414 . S
C1410 C1411 1.374 . S
C1411 H1391 0.950 . S
C1411 C1407 1.385 . S
C1411 C1410 1.374 . S
C1412 C1409 1.499 . S
C1412 C1413 1.373 . S
C1412 C1414 1.389 . S
C1413 H1392 0.950 . S
C1413 C1412 1.373 . S
C1413 C1429 1.377 1_545 S
C1414 C1412 1.389 . S
C1414 C1415 1.524 . S
C1414 C1428 1.377 1_545 S
C1415 C1414 1.524 . S
C1415 C1416 1.397 . S
C1415 C1420 1.363 1_545 S
C1416 H1393 0.950 . S
C1416 C1415 1.397 . S
C1416 C1417 1.334 . S
C1417 H1394 0.950 . S
C1417 C1416 1.334 . S
C1417 C1418 1.287 . S
C1418 C1417 1.287 . S
C1418 C1419 1.524 1_545 S
C1418 H1437 0.913 . S
C1419 H1395 0.950 . S
C1419 C1418 1.524 1_565 S
C1419 C1420 1.415 . S
C1420 H1396 0.950 . S
C1420 C1415 1.363 1_565 S
C1420 C1419 1.415 . S
C1421 H1397 0.951 . S
C1421 C1422 1.366 . S
C1421 C1423 1.388 . S
C1422 C1421 1.366 . S
C1422 C1426 1.385 . S
C1423 H1398 0.951 . S
C1423 C1421 1.388 . S
C1423 C1424 1.366 . S
C1424 C1423 1.366 . S
C1424 C1425 1.414 . S
C1424 C1427 1.499 . S
C1425 H1399 0.950 . S
C1425 C1424 1.414 . S
C1425 C1426 1.374 . S
C1426 H1400 0.950 . S
C1426 C1422 1.385 . S
C1426 C1425 1.374 . S
C1427 C1424 1.499 . S
C1427 C1428 1.373 . S
C1427 C1429 1.389 . S
C1428 H1401 0.950 . S
C1428 C1414 1.377 1_565 S
C1428 C1427 1.373 . S
C1429 C1413 1.377 1_565 S
C1429 C1427 1.389 . S
C1429 C1430 1.524 . S
C1430 C1429 1.524 . S
C1430 C1431 1.397 . S
C1430 C1435 1.363 1_565 S
C1431 H1402 0.950 . S
C1431 C1430 1.397 . S
C1431 C1432 1.334 . S
C1432 H1403 0.950 . S
C1432 C1431 1.334 . S
C1432 C1433 1.287 . S
C1433 C1432 1.287 . S
C1433 C1434 1.524 1_565 S
C1433 H1436 0.999 . S
C1434 H1404 0.950 . S
C1434 C1433 1.524 1_545 S
C1434 C1435 1.415 . S
C1435 H1405 0.950 . S
C1435 C1430 1.363 1_545 S
C1435 C1434 1.415 . S
H1436 C1433 0.999 . S
H1437 C1418 0.913 . S
H1438 C1456 0.951 . S
H1439 C1458 0.951 . S
H1440 C1460 0.950 . S
H1441 C1461 0.950 . S
H1442 C1463 0.950 . S
H1443 C1466 0.950 . S
H1444 C1467 0.950 . S
H1445 C1469 0.950 . S
H1446 C1470 0.950 . S
H1447 C1471 0.951 . S
H1448 C1473 0.951 . S
H1449 C1475 0.950 1_655 S
H1450 C1476 0.950 . S
H1451 C1478 0.950 . S
H1452 C1481 0.950 . S
H1453 C1482 0.950 . S
H1454 C1484 0.950 . S
H1455 C1485 0.950 . S
C1456 H1438 0.951 . S
C1456 C1457 1.366 . S
C1456 C1458 1.388 . S
C1457 C1456 1.366 . S
C1457 C1461 1.385 . S
C1458 H1439 0.951 . S
C1458 C1456 1.388 . S
C1458 C1459 1.366 . S
C1459 C1458 1.366 . S
C1459 C1460 1.414 . S
C1459 C1462 1.499 . S
C1460 H1440 0.950 . S
C1460 C1459 1.414 . S
C1460 C1461 1.374 . S
C1461 H1441 0.950 . S
C1461 C1457 1.385 . S
C1461 C1460 1.374 . S
C1462 C1459 1.499 . S
C1462 C1463 1.373 . S
C1462 C1464 1.389 . S
C1463 H1442 0.950 . S
C1463 C1462 1.373 . S
C1463 C1479 1.377 . S
C1464 C1462 1.389 . S
C1464 C1465 1.524 . S
C1464 C1478 1.377 . S
C1465 C1464 1.524 . S
C1465 C1466 1.397 . S
C1465 C1470 1.363 . S
C1466 H1443 0.950 . S
C1466 C1465 1.397 . S
C1466 C1467 1.334 . S
C1467 H1444 0.950 . S
C1467 C1466 1.334 . S
C1467 C1468 1.287 . S
C1468 C1467 1.287 . S
C1468 C1469 1.524 . S
C1468 H1487 0.913 . S
C1469 H1445 0.950 . S
C1469 C1468 1.524 . S
C1469 C1470 1.415 . S
C1470 H1446 0.950 . S
C1470 C1465 1.363 . S
C1470 C1469 1.415 . S
C1471 H1447 0.951 . S
C1471 C1472 1.366 . S
C1471 C1473 1.388 . S
C1472 C1471 1.366 . S
C1472 C1476 1.385 . S
C1473 H1448 0.951 . S
C1473 C1471 1.388 . S
C1473 C1474 1.366 . S
C1474 C1473 1.366 . S
C1474 C1475 1.414 . S
C1474 C1477 1.499 1_455 S
C1475 H1449 0.950 1_455 S
C1475 C1474 1.414 . S
C1475 C1476 1.374 . S
C1476 H1450 0.950 . S
C1476 C1472 1.385 . S
C1476 C1475 1.374 . S
C1477 C1474 1.499 1_655 S
C1477 C1478 1.373 . S
C1477 C1479 1.389 . S
C1478 H1451 0.950 . S
C1478 C1464 1.377 . S
C1478 C1477 1.373 . S
C1479 C1463 1.377 . S
C1479 C1477 1.389 . S
C1479 C1480 1.524 . S
C1480 C1479 1.524 . S
C1480 C1481 1.397 . S
C1480 C1485 1.363 . S
C1481 H1452 0.950 . S
C1481 C1480 1.397 . S
C1481 C1482 1.334 1_655 S
C1482 H1453 0.950 . S
C1482 C1481 1.334 1_455 S
C1482 C1483 1.287 . S
C1483 C1482 1.287 . S
C1483 C1484 1.524 . S
C1483 H1486 0.999 . S
C1484 H1454 0.950 . S
C1484 C1483 1.524 . S
C1484 C1485 1.415 1_455 S
C1485 H1455 0.950 . S
C1485 C1480 1.363 . S
C1485 C1484 1.415 1_655 S
H1486 C1483 0.999 . S
H1487 C1468 0.913 . S
H1488 C1506 0.951 . S
H1489 C1508 0.951 . S
H1490 C1510 0.950 . S
H1491 C1511 0.950 . S
H1492 C1513 0.950 . S
H1493 C1516 0.950 . S
H1494 C1517 0.950 . S
H1495 C1519 0.950 . S
H1496 C1520 0.950 . S
H1497 C1521 0.951 . S
H1498 C1523 0.951 . S
H1499 C1525 0.950 . S
H1500 C1526 0.950 . S
H1501 C1528 0.950 . S
H1502 C1531 0.950 . S
H1503 C1532 0.950 . S
H1504 C1534 0.950 . S
H1505 C1535 0.950 . S
C1506 H1488 0.951 . S
C1506 C1507 1.366 . S
C1506 C1508 1.388 . S
C1507 C1506 1.366 . S
C1507 C1511 1.385 . S
C1508 H1489 0.951 . S
C1508 C1506 1.388 . S
C1508 C1509 1.366 . S
C1509 C1508 1.366 . S
C1509 C1510 1.414 . S
C1509 C1512 1.499 . S
C1510 H1490 0.950 . S
C1510 C1509 1.414 . S
C1510 C1511 1.374 . S
C1511 H1491 0.950 . S
C1511 C1507 1.385 . S
C1511 C1510 1.374 . S
C1512 C1509 1.499 . S
C1512 C1513 1.373 . S
C1512 C1514 1.389 . S
C1513 H1492 0.950 . S
C1513 C1512 1.373 . S
C1513 C1529 1.377 . S
C1514 C1512 1.389 . S
C1514 C1515 1.524 . S
C1514 C1528 1.377 . S
C1515 C1514 1.524 . S
C1515 C1516 1.397 . S
C1515 C1520 1.363 . S
C1516 H1493 0.950 . S
C1516 C1515 1.397 . S
C1516 C1517 1.334 . S
C1517 H1494 0.950 . S
C1517 C1516 1.334 . S
C1517 C1518 1.287 . S
C1518 C1517 1.287 . S
C1518 C1519 1.524 . S
C1518 H1537 0.913 . S
C1519 H1495 0.950 . S
C1519 C1518 1.524 . S
C1519 C1520 1.415 . S
C1520 H1496 0.950 . S
C1520 C1515 1.363 . S
C1520 C1519 1.415 . S
C1521 H1497 0.951 . S
C1521 C1522 1.366 . S
C1521 C1523 1.388 . S
C1522 C1521 1.366 . S
C1522 C1526 1.385 . S
C1523 H1498 0.951 . S
C1523 C1521 1.388 . S
C1523 C1524 1.366 . S
C1524 C1523 1.366 . S
C1524 C1525 1.414 . S
C1524 C1527 1.499 . S
C1525 H1499 0.950 . S
C1525 C1524 1.414 . S
C1525 C1526 1.374 . S
C1526 H1500 0.950 . S
C1526 C1522 1.385 . S
C1526 C1525 1.374 . S
C1527 C1524 1.499 . S
C1527 C1528 1.373 . S
C1527 C1529 1.389 . S
C1528 H1501 0.950 . S
C1528 C1514 1.377 . S
C1528 C1527 1.373 . S
C1529 C1513 1.377 . S
C1529 C1527 1.389 . S
C1529 C1530 1.524 . S
C1530 C1529 1.524 . S
C1530 C1531 1.397 . S
C1530 C1535 1.363 . S
C1531 H1502 0.950 . S
C1531 C1530 1.397 . S
C1531 C1532 1.334 . S
C1532 H1503 0.950 . S
C1532 C1531 1.334 . S
C1532 C1533 1.287 . S
C1533 C1532 1.287 . S
C1533 C1534 1.524 . S
C1533 H1536 0.999 . S
C1534 H1504 0.950 . S
C1534 C1533 1.524 . S
C1534 C1535 1.415 . S
C1535 H1505 0.950 . S
C1535 C1530 1.363 . S
C1535 C1534 1.415 . S
H1536 C1533 0.999 . S
H1537 C1518 0.913 . S
H1538 C1556 0.951 . S
H1539 C1558 0.951 . S
H1540 C1560 0.950 . S
H1541 C1561 0.950 . S
H1542 C1563 0.950 . S
H1543 C1566 0.950 . S
H1544 C1567 0.950 . S
H1545 C1569 0.950 . S
H1546 C1570 0.950 . S
H1547 C1571 0.951 . S
H1548 C1573 0.951 . S
H1549 C1575 0.950 . S
H1550 C1576 0.950 . S
H1551 C1578 0.950 . S
H1552 C1581 0.950 . S
H1553 C1582 0.950 . S
H1554 C1584 0.950 . S
H1555 C1585 0.950 . S
C1556 H1538 0.951 . S
C1556 C1557 1.366 . S
C1556 C1558 1.388 . S
C1557 C1556 1.366 . S
C1557 C1561 1.385 . S
C1558 H1539 0.951 . S
C1558 C1556 1.388 . S
C1558 C1559 1.366 . S
C1559 C1558 1.366 . S
C1559 C1560 1.414 . S
C1559 C1562 1.499 . S
C1560 H1540 0.950 . S
C1560 C1559 1.414 . S
C1560 C1561 1.374 . S
C1561 H1541 0.950 . S
C1561 C1557 1.385 . S
C1561 C1560 1.374 . S
C1562 C1559 1.499 . S
C1562 C1563 1.373 . S
C1562 C1564 1.389 . S
C1563 H1542 0.950 . S
C1563 C1562 1.373 . S
C1563 C1579 1.377 . S
C1564 C1562 1.389 . S
C1564 C1565 1.524 . S
C1564 C1578 1.377 . S
C1565 C1564 1.524 . S
C1565 C1566 1.397 . S
C1565 C1570 1.363 . S
C1566 H1543 0.950 . S
C1566 C1565 1.397 . S
C1566 C1567 1.334 . S
C1567 H1544 0.950 . S
C1567 C1566 1.334 . S
C1567 C1568 1.287 . S
C1568 C1567 1.287 . S
C1568 C1569 1.524 . S
C1568 H1587 0.913 . S
C1569 H1545 0.950 . S
C1569 C1568 1.524 . S
C1569 C1570 1.415 . S
C1570 H1546 0.950 . S
C1570 C1565 1.363 . S
C1570 C1569 1.415 . S
C1571 H1547 0.951 . S
C1571 C1572 1.366 . S
C1571 C1573 1.388 . S
C1572 C1571 1.366 . S
C1572 C1576 1.385 . S
C1573 H1548 0.951 . S
C1573 C1571 1.388 . S
C1573 C1574 1.366 . S
C1574 C1573 1.366 . S
C1574 C1575 1.414 . S
C1574 C1577 1.499 1_545 S
C1575 H1549 0.950 . S
C1575 C1574 1.414 . S
C1575 C1576 1.374 . S
C1576 H1550 0.950 . S
C1576 C1572 1.385 . S
C1576 C1575 1.374 . S
C1577 C1574 1.499 1_565 S
C1577 C1578 1.373 . S
C1577 C1579 1.389 . S
C1578 H1551 0.950 . S
C1578 C1564 1.377 . S
C1578 C1577 1.373 . S
C1579 C1563 1.377 . S
C1579 C1577 1.389 . S
C1579 C1580 1.524 1_565 S
C1580 C1579 1.524 1_545 S
C1580 C1581 1.397 . S
C1580 C1585 1.363 . S
C1581 H1552 0.950 . S
C1581 C1580 1.397 . S
C1581 C1582 1.334 . S
C1582 H1553 0.950 . S
C1582 C1581 1.334 . S
C1582 C1583 1.287 . S
C1583 C1582 1.287 . S
C1583 C1584 1.524 . S
C1583 H1586 0.999 . S
C1584 H1554 0.950 . S
C1584 C1583 1.524 . S
C1584 C1585 1.415 . S
C1585 H1555 0.950 . S
C1585 C1580 1.363 . S
C1585 C1584 1.415 . S
H1586 C1583 0.999 . S
H1587 C1568 0.913 . S
H1588 C1606 0.951 . S
H1589 C1608 0.951 . S
H1590 C1610 0.950 . S
H1591 C1611 0.950 . S
H1592 C1613 0.950 . S
H1593 C1616 0.950 . S
H1594 C1617 0.950 1_655 S
H1595 C1619 0.950 . S
H1596 C1620 0.950 . S
H1597 C1621 0.951 . S
H1598 C1623 0.951 . S
H1599 C1625 0.950 . S
H1600 C1626 0.950 . S
H1601 C1628 0.950 . S
H1602 C1631 0.950 . S
H1603 C1632 0.950 . S
H1604 C1634 0.950 . S
H1605 C1635 0.950 . S
C1606 H1588 0.951 . S
C1606 C1607 1.366 . S
C1606 C1608 1.388 . S
C1607 C1606 1.366 . S
C1607 C1611 1.385 . S
C1608 H1589 0.951 . S
C1608 C1606 1.388 . S
C1608 C1609 1.366 . S
C1609 C1608 1.366 . S
C1609 C1610 1.414 . S
C1609 C1612 1.499 . S
C1610 H1590 0.950 . S
C1610 C1609 1.414 . S
C1610 C1611 1.374 . S
C1611 H1591 0.950 . S
C1611 C1607 1.385 . S
C1611 C1610 1.374 . S
C1612 C1609 1.499 . S
C1612 C1613 1.373 . S
C1612 C1614 1.389 1_655 S
C1613 H1592 0.950 . S
C1613 C1612 1.373 . S
C1613 C1629 1.371 1_655 S
C1614 C1612 1.389 1_455 S
C1614 C1615 1.524 . S
C1614 C1628 1.377 . S
C1615 C1614 1.524 . S
C1615 C1616 1.397 1_455 S
C1615 C1620 1.363 . S
C1616 H1593 0.950 . S
C1616 C1615 1.397 1_655 S
C1616 C1617 1.334 1_655 S
C1617 H1594 0.950 1_455 S
C1617 C1616 1.334 1_455 S
C1617 C1618 1.287 . S
C1618 C1617 1.287 . S
C1618 C1619 1.524 . S
C1618 H1637 0.913 . S
C1619 H1595 0.950 . S
C1619 C1618 1.524 . S
C1619 C1620 1.415 . S
C1620 H1596 0.950 . S
C1620 C1615 1.363 . S
C1620 C1619 1.415 . S
C1621 H1597 0.951 . S
C1621 C1622 1.366 . S
C1621 C1623 1.388 . S
C1622 C1621 1.366 . S
C1622 C1626 1.385 . S
C1623 H1598 0.951 . S
C1623 C1621 1.388 . S
C1623 C1624 1.366 . S
C1624 C1623 1.366 . S
C1624 C1625 1.414 . S
C1624 C1627 1.499 . S
C1625 H1599 0.950 . S
C1625 C1624 1.414 . S
C1625 C1626 1.374 . S
C1626 H1600 0.950 . S
C1626 C1622 1.385 . S
C1626 C1625 1.374 . S
C1627 C1624 1.499 . S
C1627 C1628 1.373 . S
C1627 C1629 1.396 . S
C1628 H1601 0.950 . S
C1628 C1614 1.377 . S
C1628 C1627 1.373 . S
C1629 C1613 1.371 1_455 S
C1629 C1627 1.396 . S
C1629 C1630 1.524 1_455 S
C1630 C1629 1.524 1_655 S
C1630 C1631 1.397 1_655 S
C1630 C1635 1.363 . S
C1631 H1602 0.950 . S
C1631 C1630 1.397 1_455 S
C1631 C1632 1.334 . S
C1632 H1603 0.950 . S
C1632 C1631 1.334 . S
C1632 C1633 1.287 1_455 S
C1633 C1632 1.287 1_655 S
C1633 C1634 1.524 . S
C1633 H1636 0.999 . S
C1634 H1604 0.950 . S
C1634 C1633 1.524 . S
C1634 C1635 1.415 . S
C1635 H1605 0.950 . S
C1635 C1630 1.363 . S
C1635 C1634 1.415 . S
H1636 C1633 0.999 . S
H1637 C1618 0.913 . S
C307 N13 1.058 . S
C322 N18 0.950 . S
C357 N45 0.974 . S
C372 N50 1.079 . S
C407 N77 1.103 . S
C422 N82 1.003 . S
C457 C98 2.021 . S
C472 C125 2.031 . S
C507 C130 2.025 . S
C522 C157 2.035 . S
C557 C162 2.030 . S
C572 C189 2.040 . S
C607 C198 2.010 . S
C622 C196 2.019 1_554 S
C657 C253 2.042 . S
C672 C226 2.032 . S
C707 C262 2.048 . S
C722 C260 2.059 . S
C757 C166 1.484 . S
C772 C2 1.470 . S
C807 C61 1.443 . S
C822 C102 1.426 . S
C857 C66 1.484 . S
C872 C134 1.475 . S
C907 C68 1.633 . S
C922 C194 1.622 . S
C957 N242 0.939 . S
C972 C4 0.979 . S
C1007 C258 1.564 . S
C1022 C38 1.575 . S
C1057 N274 1.086 . S
C1072 C29 1.129 . S
C1107 C34 1.092 . S
C1122 N210 1.044 . S
C1157 C228 1.501 . S
C1172 C93 1.500 . S
C1207 C70 1.170 . S
C1222 N109 1.079 . S
C1257 N141 1.030 . S
C1272 C6 1.062 . S
C1307 C36 1.416 . S
C1322 N173 1.379 . S
C1357 N269 0.392 . S
C1372 N114 0.416 . S
C1407 N205 0.555 . S
C1422 N146 0.543 . S
C1457 C230 0.874 . S
C1472 N178 0.864 . S
C1507 C221 1.094 . S
C1522 C164 1.091 . S
C1557 C100 0.851 . S
C1572 N237 0.842 . S
C1607 C285 0.745 . S
C1622 C132 0.746 . S
