# Generated by pormake.
# Topology snk, (6)-cn, num edge types: 1
# Building blocks:
#     Node 0, Type 0, BuildingBlock: KUMBUR_clean_sbu_0, # of connection points: 6
#     Node 1, Type 0, BuildingBlock: KUMBUR_clean_sbu_0, # of connection points: 6
#     Node 2, Type 0, BuildingBlock: KUMBUR_clean_sbu_0, # of connection points: 6
#     Node 3, Type 0, BuildingBlock: KUMBUR_clean_sbu_0, # of connection points: 6
#     Node 4, Type 0, BuildingBlock: KUMBUR_clean_sbu_0, # of connection points: 6
#     Node 5, Type 0, BuildingBlock: KUMBUR_clean_sbu_0, # of connection points: 6
#     Node 6, Type 0, BuildingBlock: KUMBUR_clean_sbu_0, # of connection points: 6
#     Node 7, Type 0, BuildingBlock: KUMBUR_clean_sbu_0, # of connection points: 6
#     Edge 8, Type (0, 0), BuildingBlock: UVAHIK_clean_linker_0, # of connection points: 2
#     Edge 9, Type (0, 0), BuildingBlock: UVAHIK_clean_linker_0, # of connection points: 2
#     Edge 10, Type (0, 0), BuildingBlock: UVAHIK_clean_linker_0, # of connection points: 2
#     Edge 11, Type (0, 0), BuildingBlock: UVAHIK_clean_linker_0, # of connection points: 2
#     Edge 12, Type (0, 0), BuildingBlock: UVAHIK_clean_linker_0, # of connection points: 2
#     Edge 13, Type (0, 0), BuildingBlock: UVAHIK_clean_linker_0, # of connection points: 2
#     Edge 14, Type (0, 0), BuildingBlock: UVAHIK_clean_linker_0, # of connection points: 2
#     Edge 15, Type (0, 0), BuildingBlock: UVAHIK_clean_linker_0, # of connection points: 2
#     Edge 16, Type (0, 0), BuildingBlock: UVAHIK_clean_linker_0, # of connection points: 2
#     Edge 17, Type (0, 0), BuildingBlock: UVAHIK_clean_linker_0, # of connection points: 2
#     Edge 18, Type (0, 0), BuildingBlock: UVAHIK_clean_linker_0, # of connection points: 2
#     Edge 19, Type (0, 0), BuildingBlock: UVAHIK_clean_linker_0, # of connection points: 2
#     Edge 20, Type (0, 0), BuildingBlock: UVAHIK_clean_linker_0, # of connection points: 2
#     Edge 21, Type (0, 0), BuildingBlock: UVAHIK_clean_linker_0, # of connection points: 2
#     Edge 22, Type (0, 0), BuildingBlock: UVAHIK_clean_linker_0, # of connection points: 2
#     Edge 23, Type (0, 0), BuildingBlock: UVAHIK_clean_linker_0, # of connection points: 2
#     Edge 24, Type (0, 0), BuildingBlock: UVAHIK_clean_linker_0, # of connection points: 2
#     Edge 25, Type (0, 0), BuildingBlock: UVAHIK_clean_linker_0, # of connection points: 2
#     Edge 26, Type (0, 0), BuildingBlock: UVAHIK_clean_linker_0, # of connection points: 2
#     Edge 27, Type (0, 0), BuildingBlock: UVAHIK_clean_linker_0, # of connection points: 2
#     Edge 28, Type (0, 0), BuildingBlock: UVAHIK_clean_linker_0, # of connection points: 2
#     Edge 29, Type (0, 0), BuildingBlock: UVAHIK_clean_linker_0, # of connection points: 2
#     Edge 30, Type (0, 0), BuildingBlock: UVAHIK_clean_linker_0, # of connection points: 2
#     Edge 31, Type (0, 0), BuildingBlock: UVAHIK_clean_linker_0, # of connection points: 2
# Relax obj value: 0.014
# Max RMSD: 0.072
# Mean RMSD: 0.068
data_MOF--net-snk--node1-KUMBUR_clean_sbu_0--edge1-UVAHIK_clean_linker_0
_symmetry_space_group_name_H-M    P1
_symmetry_Int_Tables_number       1
_symmetry_cell_setting            triclinic
loop_
_symmetry_equiv_pos_as_xyz
'x, y, z'
_cell_length_a     49.750492
_cell_length_b     49.722555
_cell_length_c     28.949136
_cell_angle_alpha  87.993131
_cell_angle_beta   87.737452
_cell_angle_gamma 90.033895
loop_
_atom_site_label
_atom_site_type_symbol
_atom_site_fract_x
_atom_site_fract_y
_atom_site_fract_z
_atom_type_partial_charge
Tb0 Tb 1.0014 0.98275 0.4764 0.0
C1 C 0.0093 0.09071 0.56993 0.0
C2 C 0.05582 0.10437 0.55963 0.0
C3 C 0.02072 0.13826 0.56431 0.0
C4 C 0.03601 0.08405 0.56403 0.0
C5 C 1.00128 0.11786 0.5711 0.0
C6 C 0.04799 0.13152 0.5586 0.0
C7 C 0.95593 0.10252 0.58965 0.0
N8 N 0.99129 0.07037 0.57692 0.0
C9 C 0.96495 0.0759 0.58853 0.0
C10 C 0.97411 0.12361 0.58035 0.0
Tb11 Tb 0.00765 0.02734 0.57214 0.0
N12 N 0.04266 0.0576 0.56575 0.0
C13 C 0.06912 0.0502 0.56674 0.0
C14 C 0.08289 0.09679 0.55788 0.0
C15 C 0.08956 0.06959 0.56219 0.0
H16 H 0.95065 0.05979 0.59544 0.0
H17 H 0.11044 0.06349 0.56176 0.0
H18 H 0.06288 0.14743 0.55466 0.0
H19 H 0.93495 0.10675 0.59766 0.0
H20 H 0.07478 0.02933 0.5697 0.0
H21 H 0.89853 0.94684 0.48621 0.0
H22 H 0.09875 0.11175 0.55433 0.0
H23 H 0.05834 0.95017 0.45327 0.0
H24 H 0.93428 0.98093 0.47847 0.0
H25 H 0.07394 0.90316 0.45118 0.0
H26 H 0.01497 0.15927 0.56465 0.0
H27 H 0.9101 0.89856 0.49378 0.0
H28 H 0.94588 0.8628 0.49376 0.0
H29 H 0.9671 0.14422 0.58147 0.0
H30 H 0.99377 0.85084 0.48404 0.0
N31 N 0.96632 0.95258 0.48267 0.0
C32 C 0.93988 0.96004 0.48149 0.0
C33 C 0.92599 0.91349 0.49031 0.0
C34 C 0.95304 0.90584 0.48876 0.0
C35 C 0.9194 0.9407 0.48593 0.0
C36 C 0.97291 0.92611 0.48448 0.0
H37 H 0.0417 0.86578 0.46738 0.0
N38 N 0.01768 0.93968 0.47177 0.0
C39 C 0.05297 0.90744 0.45914 0.0
C40 C 0.99962 0.91939 0.47874 0.0
C41 C 0.04401 0.93409 0.46019 0.0
C42 C 0.03473 0.8864 0.46845 0.0
C43 C 0.00757 0.89222 0.47762 0.0
O44 O 0.01971 0.98382 0.4094 0.0
O45 O 0.01905 0.01909 0.50135 0.0
O46 O 0.98771 0.0496 0.5167 0.0
O47 O 0.96955 0.01389 0.47804 0.0
O48 O 0.04248 0.99705 0.45799 0.0
O49 O 0.97717 0.99009 0.41926 0.0
O50 O 0.98944 0.0262 0.63922 0.0
O51 O 0.98998 0.99105 0.54714 0.0
O52 O 0.02139 0.96054 0.53188 0.0
O53 O 0.03957 0.9963 0.57035 0.0
O54 O 0.96659 0.01301 0.59063 0.0
O55 O 0.03199 0.01999 0.62915 0.0
C56 C 0.04188 0.01876 0.48068 0.0
C57 C 0.99224 0.96997 0.34993 0.0
C58 C 0.99268 0.96309 0.2664 0.0
C59 C 0.99675 0.97983 0.30399 0.0
C60 C 0.98385 0.93648 0.27573 0.0
C61 C 0.98343 0.94338 0.35801 0.0
C62 C 0.97927 0.92678 0.32115 0.0
C63 C 0.9703 0.03974 0.48821 0.0
C64 C 0.99705 0.98739 0.38909 0.0
C65 C 0.98807 0.87186 0.48434 0.0
C66 C 0.96082 0.87867 0.48989 0.0
C67 C 0.96716 0.99134 0.56784 0.0
C68 C 0.017 0.04003 0.69859 0.0
C69 C 0.01249 0.03015 0.74452 0.0
C70 C 0.01659 0.04688 0.78213 0.0
C71 C 0.02546 0.07348 0.77283 0.0
C72 C 0.02584 0.06661 0.69054 0.0
C73 C 0.03003 0.08319 0.72741 0.0
C74 C 0.03888 0.97046 0.56019 0.0
C75 C 0.01215 0.02264 0.65941 0.0
H76 H 1.00374 1.00033 0.29762 0.0
H77 H 0.98007 0.92321 0.24782 0.0
H78 H 0.97969 0.93542 0.39272 0.0
H79 H 0.97238 0.90631 0.32782 0.0
H80 H 0.00548 0.00967 0.75088 0.0
H81 H 0.02926 0.08673 0.80075 0.0
H82 H 0.02958 0.07458 0.65583 0.0
H83 H 0.03695 0.10366 0.72076 0.0
Tb84 Tb 0.27505 0.74735 0.72003 0.0
C85 C 0.17228 0.775 0.83154 0.0
C86 C 0.16602 0.82272 0.81737 0.0
C87 C 0.12712 0.79361 0.8321 0.0
C88 C 0.18297 0.80009 0.82105 0.0
C89 C 0.14428 0.77144 0.83823 0.0
C90 C 0.13799 0.81924 0.82169 0.0
C91 C 0.15262 0.72501 0.86057 0.0
N92 N 0.18958 0.75427 0.8376 0.0
C93 C 0.18026 0.72965 0.85381 0.0
C94 C 0.13451 0.74591 0.85217 0.0
Tb95 Tb 0.23443 0.76338 0.8237 0.0
N96 N 0.21013 0.80254 0.81778 0.0
C97 C 0.22168 0.82755 0.81439 0.0
C98 C 0.17778 0.8482 0.81114 0.0
C99 C 0.20574 0.85064 0.81052 0.0
H100 H 0.19412 0.71333 0.86002 0.0
H101 H 0.21506 0.87031 0.8067 0.0
H102 H 0.12461 0.83632 0.81839 0.0
H103 H 0.14531 0.70531 0.8722 0.0
H104 H 0.24323 0.82995 0.81348 0.0
H105 H 0.29656 0.64095 0.73898 0.0
H106 H 0.16549 0.8661 0.80803 0.0
H107 H 0.314 0.79778 0.68073 0.0
H108 H 0.26761 0.68074 0.7321 0.0
H109 H 0.36244 0.80643 0.66527 0.0
H110 H 0.10551 0.79128 0.83662 0.0
H111 H 0.34607 0.64607 0.73584 0.0
H112 H 0.38632 0.6765 0.72286 0.0
H113 H 0.11312 0.7423 0.85764 0.0
H114 H 0.40435 0.72167 0.70203 0.0
N115 N 0.30017 0.70872 0.72616 0.0
C116 C 0.2891 0.68352 0.73039 0.0
C117 C 0.33342 0.66372 0.73274 0.0
C118 C 0.34466 0.68936 0.72537 0.0
C119 C 0.3055 0.66075 0.73436 0.0
C120 C 0.32726 0.71165 0.7218 0.0
H121 H 0.39553 0.77019 0.6793 0.0
N122 N 0.31957 0.75715 0.70417 0.0
C123 C 0.35566 0.78677 0.67806 0.0
C124 C 0.33735 0.73681 0.71 0.0
C125 C 0.32821 0.78176 0.68674 0.0
C126 C 0.37429 0.76628 0.68615 0.0
C127 C 0.36519 0.74078 0.70168 0.0
O128 O 0.27418 0.76276 0.65125 0.0
O129 O 0.24303 0.77064 0.75086 0.0
O130 O 0.20843 0.7446 0.7756 0.0
O131 O 0.24005 0.72046 0.73202 0.0
O132 O 0.2653 0.78918 0.69905 0.0
O133 O 0.26237 0.72191 0.6685 0.0
O134 O 0.23415 0.74745 0.89225 0.0
O135 O 0.26653 0.7401 0.79308 0.0
O136 O 0.30136 0.76644 0.76744 0.0
O137 O 0.26978 0.78982 0.8125 0.0
O138 O 0.2438 0.72148 0.8444 0.0
O139 O 0.24709 0.7881 0.87622 0.0
C140 C 0.24507 0.79229 0.72722 0.0
C141 C 0.2826 0.7307 0.59411 0.0
C142 C 0.28817 0.72743 0.50994 0.0
C143 C 0.2736 0.73654 0.54927 0.0
C144 C 0.31206 0.71285 0.51636 0.0
C145 C 0.30637 0.71595 0.5993 0.0
C146 C 0.32102 0.7072 0.56068 0.0
C147 C 0.21501 0.7253 0.74701 0.0
C148 C 0.26702 0.73982 0.63516 0.0
C149 C 0.38284 0.71901 0.70775 0.0
C150 C 0.37258 0.6933 0.71964 0.0
C151 C 0.26426 0.71843 0.81668 0.0
C152 C 0.22615 0.77923 0.95 0.0
C153 C 0.23524 0.77363 0.99485 0.0
C154 C 0.22065 0.78281 0.03412 0.0
C155 C 0.1967 0.79727 0.0276 0.0
C156 C 0.2023 0.79381 0.9447 0.0
C157 C 0.18766 0.80267 0.98325 0.0
C158 C 0.29482 0.7851 0.79739 0.0
C159 C 0.24176 0.77005 0.90905 0.0
H160 H 0.25509 0.74769 0.54512 0.0
H161 H 0.32403 0.706 0.487 0.0
H162 H 0.31358 0.71104 0.63313 0.0
H163 H 0.33941 0.69594 0.56513 0.0
H164 H 0.25381 0.76259 0.99906 0.0
H165 H 0.18474 0.80418 0.05691 0.0
H166 H 0.195 0.79847 0.91083 0.0
H167 H 0.1692 0.81382 0.97874 0.0
Tb168 Tb 0.50982 0.98369 0.07359 0.0
C169 C 0.4887 0.08927 0.96512 0.0
C170 C 0.44096 0.09682 0.97633 0.0
C171 C 0.47139 0.13495 0.96484 0.0
C172 C 0.46314 0.07924 0.97353 0.0
C173 C 0.49316 0.11719 0.95946 0.0
C174 C 0.4453 0.12477 0.97333 0.0
C175 C 0.53972 0.10763 0.93946 0.0
N176 N 0.50904 0.07139 0.95975 0.0
C177 C 0.53421 0.08009 0.94536 0.0
C178 C 0.51918 0.1263 0.94714 0.0
Tb179 Tb 0.49836 0.02673 0.97109 0.0
N180 N 0.45987 0.05215 0.97531 0.0
C181 C 0.43455 0.04133 0.97615 0.0
C182 C 0.41509 0.08577 0.98023 0.0
C183 C 0.41187 0.05791 0.97925 0.0
H184 H 0.55025 0.06582 0.93969 0.0
H185 H 0.39192 0.04916 0.98116 0.0
H186 H 0.42856 0.13863 0.97603 0.0
H187 H 0.5598 0.11443 0.9291 0.0
H188 H 0.43159 0.01986 0.97576 0.0
H189 H 0.61643 0.96193 0.06432 0.0
H190 H 0.39749 0.09856 0.98264 0.0
H191 H 0.45805 0.94416 0.10384 0.0
H192 H 0.57658 0.99097 0.06946 0.0
H193 H 0.44877 0.89546 0.11356 0.0
H194 H 0.47441 0.15651 0.96115 0.0
H195 H 0.61118 0.91252 0.0625 0.0
H196 H 0.58036 0.87225 0.06844 0.0
H197 H 0.52347 0.1476 0.94241 0.0
H198 H 0.53457 0.85404 0.0824 0.0
N199 N 0.54849 0.95852 0.06953 0.0
C200 C 0.57374 0.96949 0.06894 0.0
C201 C 0.5935 0.92518 0.06481 0.0
C202 C 0.56769 0.91397 0.06834 0.0
C203 C 0.59654 0.95305 0.066 0.0
C204 C 0.54539 0.93141 0.07104 0.0
H205 H 0.48537 0.86258 0.10037 0.0
N206 N 0.49939 0.93893 0.08427 0.0
C207 C 0.46885 0.90243 0.10361 0.0
C208 C 0.51986 0.9212 0.07897 0.0
C209 C 0.47421 0.93002 0.0982 0.0
C210 C 0.48954 0.88392 0.096 0.0
C211 C 0.51556 0.89324 0.08423 0.0
O212 O 0.49159 0.98315 0.14065 0.0
O213 O 0.48821 0.01684 0.04279 0.0
O214 O 0.51589 0.05158 1.02243 0.0
O215 O 0.53706 0.0187 0.06778 0.0
O216 O 0.46744 0.99336 0.09047 0.0
O217 O 0.53317 0.99423 0.12928 0.0
O218 O 0.51627 0.02707 0.9038 0.0
O219 O 0.52002 0.99377 1.0021 0.0
O220 O 0.49258 0.95892 1.02191 0.0
O221 O 0.47106 0.99177 0.97711 0.0
O222 O 0.54066 0.0167 0.95367 0.0
O223 O 0.47473 0.01602 0.91587 0.0
C224 C 0.4657 0.01444 0.06388 0.0
C225 C 0.52078 0.97246 0.20092 0.0
C226 C 0.52109 0.96519 0.28507 0.0
C227 C 0.51477 0.98133 0.24586 0.0
C228 C 0.5336 0.94016 0.2784 0.0
C229 C 0.53331 0.94747 0.19545 0.0
C230 C 0.53963 0.93144 0.23393 0.0
C231 C 0.5332 0.0441 0.05397 0.0
C232 C 0.51383 0.98928 0.16009 0.0
C233 C 0.53746 0.87563 0.079 0.0
C234 C 0.56352 0.886 0.07103 0.0
C235 C 0.54246 0.99583 0.98072 0.0
C236 C 0.48677 0.03752 0.84386 0.0
C237 C 0.49267 0.02854 0.79896 0.0
C238 C 0.48612 0.04452 0.7597 0.0
C239 C 0.47348 0.06949 0.76627 0.0
C240 C 0.47411 0.06246 0.84924 0.0
C241 C 0.46754 0.07832 0.8107 0.0
C242 C 0.47525 0.96634 0.99039 0.0
C243 C 0.49393 0.02086 0.88475 0.0
H244 H 0.50495 1.00059 0.25021 0.0
H245 H 0.53916 0.92746 0.30764 0.0
H246 H 0.53836 0.94036 0.16153 0.0
H247 H 0.54939 0.91222 0.22927 0.0
H248 H 0.50257 0.00933 0.79467 0.0
H249 H 0.46775 0.08207 0.73698 0.0
H250 H 0.46913 0.06965 0.88314 0.0
H251 H 0.45768 0.0975 0.81529 0.0
Tb252 Tb 0.27529 0.25852 0.31877 0.0
C253 C 0.16791 0.25134 0.2223 0.0
C254 C 0.15348 0.20511 0.23384 0.0
C255 C 0.12021 0.24054 0.22543 0.0
C256 C 0.17409 0.22465 0.22993 0.0
C257 C 0.14096 0.25961 0.2187 0.0
C258 C 0.12647 0.21329 0.23301 0.0
C259 C 0.15727 0.30425 0.19721 0.0
N260 N 0.18859 0.26894 0.21513 0.0
C261 C 0.18368 0.295 0.20104 0.0
C262 C 0.13579 0.28657 0.20672 0.0
Tb263 Tb 0.23125 0.25217 0.22256 0.0
N264 N 0.20043 0.21764 0.22932 0.0
C265 C 0.20747 0.19105 0.22872 0.0
C266 C 0.16068 0.17794 0.23641 0.0
C267 C 0.1878 0.17088 0.23301 0.0
H268 H 0.20007 0.30894 0.19389 0.0
H269 H 0.19361 0.1499 0.23389 0.0
H270 H 0.11034 0.19862 0.23656 0.0
H271 H 0.15352 0.32502 0.18705 0.0
H272 H 0.22827 0.18509 0.22635 0.0
H273 H 0.30981 0.36191 0.3118 0.0
H274 H 0.14549 0.16229 0.23959 0.0
H275 H 0.30855 0.20202 0.34092 0.0
H276 H 0.27619 0.32572 0.31859 0.0
H277 H 0.35579 0.18699 0.34232 0.0
H278 H 0.09934 0.2465 0.22331 0.0
H279 H 0.3582 0.35102 0.30341 0.0
H280 H 0.39442 0.31571 0.30188 0.0
H281 H 0.11536 0.29374 0.20354 0.0
H282 H 0.40701 0.26792 0.31015 0.0
N283 N 0.30495 0.29404 0.31298 0.0
C284 C 0.29714 0.32038 0.31512 0.0
C285 C 0.3435 0.33491 0.30641 0.0
C286 C 0.35149 0.30795 0.30692 0.0
C287 C 0.31621 0.34113 0.31127 0.0
C288 C 0.33149 0.2878 0.31067 0.0
H289 H 0.39272 0.21975 0.32605 0.0
N290 N 0.31855 0.24279 0.32258 0.0
C291 C 0.35123 0.20791 0.33459 0.0
C292 C 0.33857 0.26114 0.31562 0.0
C293 C 0.32448 0.21653 0.33394 0.0
C294 C 0.37202 0.22643 0.32522 0.0
C295 C 0.36584 0.25354 0.31645 0.0
O296 O 0.27519 0.24012 0.38556 0.0
O297 O 0.23891 0.24101 0.29375 0.0
O298 O 0.20858 0.27338 0.27649 0.0
O299 O 0.24391 0.2901 0.31798 0.0
O300 O 0.26092 0.21751 0.33698 0.0
O301 O 0.26724 0.28241 0.37633 0.0
O302 O 0.23338 0.26933 0.15479 0.0
O303 O 0.26729 0.26986 0.24817 0.0
O304 O 0.29759 0.23841 0.26308 0.0
O305 O 0.26182 0.21991 0.22545 0.0
O306 O 0.24613 0.293 0.20356 0.0
O307 O 0.2394 0.22694 0.16679 0.0
C308 C 0.2392 0.21823 0.31452 0.0
C309 C 0.28815 0.26825 0.44498 0.0
C310 C 0.29433 0.2713 0.52825 0.0
C311 C 0.27793 0.26555 0.49105 0.0
C312 C 0.32111 0.27944 0.51847 0.0
C313 C 0.31488 0.27649 0.43644 0.0
C314 C 0.33124 0.28198 0.47292 0.0
C315 C 0.21826 0.29003 0.30661 0.0
C316 C 0.27081 0.26264 0.40619 0.0
C317 C 0.38592 0.27334 0.31008 0.0
C318 C 0.37875 0.30054 0.30536 0.0
C319 C 0.2674 0.29254 0.22717 0.0
C320 C 0.22005 0.24062 0.09647 0.0
C321 C 0.2305 0.24353 0.05056 0.0
C322 C 0.21438 0.23768 1.01304 0.0
C323 C 0.18762 0.22931 1.02235 0.0
C324 C 0.19338 0.23208 0.10452 0.0
C325 C 0.17727 0.22655 0.06772 0.0
C326 C 0.28767 0.22068 0.23515 0.0
C327 C 0.2371 0.24626 0.13565 0.0
H328 H 0.2572 0.25939 0.49779 0.0
H329 H 0.33441 0.28354 0.54612 0.0
H330 H 0.32315 0.27873 0.40165 0.0
H331 H 0.35189 0.28822 0.46587 0.0
H332 H 0.2512 0.24988 0.04419 0.0
H333 H 0.17452 0.22515 0.99444 0.0
H334 H 0.18496 0.22956 0.13918 0.0
H335 H 0.15666 0.22009 0.07441 0.0
Tb336 Tb 0.77636 0.24751 0.21992 0.0
C337 C 0.67275 0.27266 0.33387 0.0
C338 C 0.66575 0.32037 0.32074 0.0
C339 C 0.62741 0.29081 0.33762 0.0
C340 C 0.68301 0.29793 0.32326 0.0
C341 C 0.6449 0.2688 0.3423 0.0
C342 C 0.63783 0.31658 0.32681 0.0
C343 C 0.65411 0.22238 0.36349 0.0
N344 N 0.69037 0.25207 0.33852 0.0
C345 C 0.68159 0.22729 0.35488 0.0
C346 C 0.63564 0.24314 0.35658 0.0
Tb347 Tb 0.73494 0.26187 0.32356 0.0
N348 N 0.71011 0.3007 0.31834 0.0
C349 C 0.72135 0.32583 0.3139 0.0
C350 C 0.67713 0.34597 0.3135 0.0
C351 C 0.70507 0.34872 0.3107 0.0
H352 H 0.6957 0.21109 0.36008 0.0
H353 H 0.71412 0.36847 0.30595 0.0
H354 H 0.6242 0.33352 0.32447 0.0
H355 H 0.64721 0.20258 0.37537 0.0
H356 H 0.74287 0.32846 0.31152 0.0
H357 H 0.79506 0.14034 0.23673 0.0
H358 H 0.66459 0.36373 0.31111 0.0
H359 H 0.81692 0.29624 0.17972 0.0
H360 H 0.76721 0.18081 0.22908 0.0
H361 H 0.86581 0.30387 0.1673 0.0
H362 H 0.6059 0.28825 0.34349 0.0
H363 H 0.8446 0.14426 0.23736 0.0
H364 H 0.88571 0.1738 0.22816 0.0
H365 H 0.61438 0.23932 0.36343 0.0
H366 H 0.90515 0.2186 0.20907 0.0
N367 N 0.80042 0.20813 0.22635 0.0
C368 C 0.78874 0.18315 0.22904 0.0
C369 C 0.83245 0.16225 0.23393 0.0
C370 C 0.84439 0.18766 0.22815 0.0
C371 C 0.80451 0.15996 0.23341 0.0
C372 C 0.82761 0.21039 0.224 0.0
H373 H 0.89784 0.26723 0.18517 0.0
N374 N 0.82131 0.25602 0.20592 0.0
C375 C 0.85841 0.28452 0.18056 0.0
C376 C 0.83849 0.23534 0.2133 0.0
C377 C 0.83074 0.2801 0.1875 0.0
C378 C 0.87643 0.26383 0.19087 0.0
C379 C 0.86651 0.23864 0.20648 0.0
O380 O 0.77653 0.26395 0.15167 0.0
O381 O 0.74372 0.27008 0.25074 0.0
O382 O 0.70903 0.24299 0.27541 0.0
O383 O 0.74104 0.22084 0.22934 0.0
O384 O 0.76667 0.28945 0.20043 0.0
O385 O 0.76427 0.22305 0.16663 0.0
O386 O 0.73544 0.24531 0.39166 0.0
O387 O 0.76767 0.23955 0.29267 0.0
O388 O 0.80214 0.26785 0.26678 0.0
O389 O 0.77004 0.28869 0.31514 0.0
O390 O 0.74476 0.21987 0.3426 0.0
O391 O 0.74648 0.28663 0.37681 0.0
C392 C 0.74589 0.29198 0.22768 0.0
C393 C 0.78563 0.23266 0.09358 0.0
C394 C 0.79164 0.22887 1.00963 0.0
C395 C 0.77651 0.23763 0.0486 0.0
C396 C 0.81616 0.21548 1.01653 0.0
C397 C 0.81003 0.21911 0.09931 0.0
C398 C 0.82522 0.21068 0.06103 0.0
C399 C 0.7159 0.22498 0.24453 0.0
C400 C 0.76948 0.24136 0.13424 0.0
C401 C 0.88352 0.21645 0.21355 0.0
C402 C 0.87245 0.19095 0.22441 0.0
C403 C 0.76553 0.21754 0.3153 0.0
C404 C 0.72608 0.27617 0.45044 0.0
C405 C 0.73555 0.27076 0.49506 0.0
C406 C 0.72066 0.27904 0.53463 0.0
C407 C 0.69599 0.29232 0.52871 0.0
C408 C 0.70158 0.2897 0.44572 0.0
C409 C 0.68659 0.29757 0.48459 0.0
C410 C 0.79498 0.28523 0.29856 0.0
C411 C 0.74203 0.26806 0.40912 0.0
H412 H 0.75751 0.24784 0.04408 0.0
H413 H 0.82852 0.20894 0.98742 0.0
H414 H 0.81734 0.21488 0.1333 0.0
H415 H 0.84409 0.20034 0.06588 0.0
H416 H 0.75466 0.26062 0.49886 0.0
H417 H 0.6838 0.29849 0.5583 0.0
H418 H 0.69405 0.29438 0.41209 0.0
H419 H 0.66763 0.30788 0.48048 0.0
Tb420 Tb 0.77709 0.75799 0.82186 0.0
C421 C 0.66916 0.75053 0.7289 0.0
C422 C 0.65505 0.70412 0.73898 0.0
C423 C 0.62152 0.73956 0.73468 0.0
C424 C 0.67555 0.72376 0.73464 0.0
C425 C 0.6421 0.75881 0.72787 0.0
C426 C 0.62799 0.71222 0.74021 0.0
C427 C 0.65787 0.804 0.70929 0.0
N428 N 0.68966 0.76834 0.72179 0.0
C429 C 0.6844 0.79472 0.71023 0.0
C430 C 0.63661 0.78603 0.71869 0.0
Tb431 Tb 0.73253 0.75157 0.72628 0.0
N432 N 0.70193 0.71686 0.73271 0.0
C433 C 0.70908 0.69032 0.73144 0.0
C434 C 0.66238 0.67697 0.74044 0.0
C435 C 0.68951 0.67006 0.73592 0.0
H436 H 0.70064 0.80885 0.70326 0.0
H437 H 0.69541 0.64911 0.73612 0.0
H438 H 0.61195 0.69747 0.74413 0.0
H439 H 0.65385 0.82501 0.70133 0.0
H440 H 0.72988 0.68447 0.7283 0.0
H441 H 0.81358 0.86069 0.81382 0.0
H442 H 0.64727 0.66125 0.74393 0.0
H443 H 0.80933 0.70084 0.84423 0.0
H444 H 0.77932 0.82512 0.82082 0.0
H445 H 0.85622 0.68495 0.84593 0.0
H446 H 0.60057 0.74551 0.73447 0.0
H447 H 0.86178 0.84888 0.80596 0.0
H448 H 0.89733 0.81289 0.80514 0.0
H449 H 0.61609 0.79324 0.7177 0.0
H450 H 0.90901 0.76489 0.81393 0.0
N451 N 0.80746 0.79291 0.81585 0.0
C452 C 0.80016 0.8194 0.81761 0.0
C453 C 0.84677 0.83306 0.80906 0.0
C454 C 0.85427 0.80595 0.80996 0.0
C455 C 0.8196 0.83979 0.81363 0.0
C456 C 0.83389 0.78618 0.81384 0.0
H457 H 0.89379 0.71701 0.82993 0.0
N458 N 0.82006 0.74147 0.82606 0.0
C459 C 0.85207 0.70596 0.83819 0.0
C460 C 0.84045 0.75942 0.81915 0.0
C461 C 0.82549 0.71509 0.83738 0.0
C462 C 0.87322 0.72409 0.82898 0.0
C463 C 0.86756 0.7513 0.82014 0.0
O464 O 0.77636 0.74001 0.88898 0.0
O465 O 0.74076 0.74034 0.79703 0.0
O466 O 0.71043 0.77187 0.78188 0.0
O467 O 0.74624 0.7901 0.81998 0.0
O468 O 0.76253 0.71707 0.84072 0.0
O469 O 0.76906 0.78235 0.87886 0.0
O470 O 0.73346 0.76932 0.65898 0.0
O471 O 0.76877 0.76923 0.75123 0.0
O472 O 0.79916 0.73776 0.7661 0.0
O473 O 0.76328 0.71939 0.72841 0.0
O474 O 0.74729 0.79242 0.70705 0.0
O475 O 0.74033 0.72692 0.66958 0.0
C476 C 0.74093 0.71762 0.81795 0.0
C477 C 0.78931 0.76825 0.94823 0.0
C478 C 0.79509 0.77129 0.03166 0.0
C479 C 0.77884 0.76565 0.99418 0.0
C480 C 0.82197 0.7792 1.02222 0.0
C481 C 0.81613 0.77625 0.94006 0.0
C482 C 0.83234 0.78163 0.9768 0.0
C483 C 0.72039 0.78942 0.81009 0.0
C484 C 0.77215 0.7627 0.90915 0.0
C485 C 0.88803 0.77071 0.81372 0.0
C486 C 0.88138 0.79803 0.80869 0.0
C487 C 0.76878 0.79189 0.73012 0.0
C488 C 0.7202 0.741 0.60006 0.0
C489 C 0.73057 0.74371 0.55406 0.0
C490 C 0.71426 0.73813 0.51664 0.0
C491 C 0.68739 0.73018 0.52619 0.0
C492 C 0.6934 0.73294 0.60834 0.0
C493 C 0.67712 0.72763 0.57165 0.0
C494 C 0.78913 0.72003 0.73828 0.0
C495 C 0.73743 0.7465 0.63907 0.0
H496 H 0.75804 0.75966 1.00063 0.0
H497 H 0.83518 0.78319 0.05006 0.0
H498 H 0.82459 0.77838 0.90534 0.0
H499 H 0.85307 0.78769 0.97005 0.0
H500 H 0.75135 0.74974 0.54753 0.0
H501 H 0.67414 0.72623 0.49841 0.0
H502 H 0.68501 0.73071 0.64309 0.0
H503 H 0.65641 0.72153 0.57849 0.0
Tb504 Tb 0.50069 0.48281 0.97197 0.0
C505 C 0.50976 0.59017 0.06554 0.0
C506 C 0.55662 0.60292 0.05727 0.0
C507 C 0.52213 0.63749 0.06026 0.0
C508 C 0.5364 0.58298 0.0608 0.0
C509 C 0.50225 0.61747 0.06639 0.0
C510 C 0.54931 0.63022 0.05575 0.0
C511 C 0.4565 0.60304 0.08408 0.0
N512 N 0.49131 0.57021 0.07229 0.0
C513 C 0.46503 0.57625 0.08345 0.0
C514 C 0.47513 0.62376 0.07493 0.0
Tb515 Tb 0.50693 0.52688 0.06845 0.0
N516 N 0.54255 0.5564 0.06302 0.0
C517 C 0.56883 0.5485 0.06527 0.0
C518 C 0.58354 0.59483 0.05691 0.0
C519 C 0.58964 0.56751 0.06166 0.0
H520 H 0.45045 0.56038 0.09027 0.0
H521 H 0.61039 0.56104 0.06229 0.0
H522 H 0.56453 0.64584 0.05245 0.0
H523 H 0.43557 0.60769 0.09164 0.0
H524 H 0.57409 0.52753 0.06869 0.0
H525 H 0.39848 0.44519 0.98579 0.0
H526 H 0.5997 0.60949 0.05409 0.0
H527 H 0.55699 0.45165 0.94006 0.0
H528 H 0.43364 0.47986 0.97719 0.0
H529 H 0.57289 0.40511 0.93169 0.0
H530 H 0.51678 0.65861 0.06036 0.0
H531 H 0.41086 0.39705 0.99118 0.0
H532 H 0.44714 0.36186 0.98683 0.0
H533 H 0.46851 0.6445 0.07576 0.0
H534 H 0.49487 0.35086 0.97152 0.0
N535 N 0.46618 0.45199 0.97931 0.0
C536 C 0.43959 0.45904 0.9794 0.0
C537 C 0.4265 0.41224 0.98752 0.0
C538 C 0.45364 0.40502 0.98408 0.0
C539 C 0.41944 0.43937 0.98431 0.0
C540 C 0.47317 0.42563 0.97962 0.0
H541 H 0.54185 0.36691 0.94948 0.0
N542 N 0.51729 0.44014 0.9633 0.0
C543 C 0.55229 0.40884 0.94303 0.0
C544 C 0.49977 0.41945 0.97102 0.0
C545 C 0.54314 0.43526 0.94777 0.0
C546 C 0.53474 0.38733 0.95329 0.0
C547 C 0.50797 0.39249 0.96673 0.0
O548 O 0.51771 0.48543 0.904 0.0
O549 O 0.51844 0.51884 0.99779 0.0
O550 O 0.48723 0.54923 1.0127 0.0
O551 O 0.46851 0.51347 0.97527 0.0
O552 O 0.54158 0.49754 0.95298 0.0
O553 O 0.47528 0.49074 0.91664 0.0
O554 O 0.48824 0.52699 0.13513 0.0
O555 O 0.4895 0.49041 0.04338 0.0
O556 O 0.52235 0.46013 0.02501 0.0
O557 O 0.53837 0.49539 0.06777 0.0
O558 O 0.46584 0.51268 0.08629 0.0
O559 O 0.53051 0.51888 0.12614 0.0
C560 C 0.54117 0.51879 0.97681 0.0
C561 C 0.48915 0.47162 0.84597 0.0
C562 C 0.48654 0.46573 0.76253 0.0
C563 C 0.49218 0.48198 0.80008 0.0
C564 C 0.47831 0.43893 0.77178 0.0
C565 C 0.4807 0.44491 0.85397 0.0
C566 C 0.47543 0.42867 0.81714 0.0
C567 C 0.46944 0.53935 0.98492 0.0
C568 C 0.49457 0.48878 0.88521 0.0
C569 C 0.48895 0.37173 0.9741 0.0
C570 C 0.46179 0.378 0.98283 0.0
C571 C 0.46663 0.4908 0.06404 0.0
C572 C 0.51611 0.53992 0.19481 0.0
C573 C 0.51365 0.5296 0.24078 0.0
C574 C 0.51929 0.54602 0.27811 0.0
C575 C 0.52707 0.57292 0.26853 0.0
C576 C 0.52398 0.56676 0.18648 0.0
C577 C 0.52937 0.58314 0.22308 0.0
C578 C 0.53861 0.46981 0.05572 0.0
C579 C 0.51063 0.52255 0.1559 0.0
H580 H 0.49843 0.50271 0.79375 0.0
H581 H 0.47433 0.42573 0.74386 0.0
H582 H 0.47804 0.43658 0.88862 0.0
H583 H 0.46905 0.40803 0.82379 0.0
H584 H 0.50778 0.50878 0.24736 0.0
H585 H 0.53106 0.58624 0.29629 0.0
H586 H 0.52602 0.57511 0.15176 0.0
H587 H 0.53533 0.60389 0.21619 0.0
Tb588 Tb 0.01287 0.48309 0.58086 0.0
C589 C 0.98177 0.5854 0.4715 0.0
C590 C 0.93391 0.58906 0.48744 0.0
C591 C 0.96072 0.62948 0.47196 0.0
C592 C 0.9574 0.57336 0.48279 0.0
C593 C 0.98366 0.61352 0.46433 0.0
C594 C 0.93585 0.61725 0.48359 0.0
C595 C 0.02964 0.60748 0.4367 0.0
N596 N 1.00324 0.56921 0.4637 0.0
C597 C 0.02668 0.57966 0.44431 0.0
C598 C 0.0082 0.62455 0.44764 0.0
Tb599 Tb 0.99688 0.52398 0.47769 0.0
N600 N 0.95643 0.54608 0.48522 0.0
C601 C 0.93205 0.53322 0.48846 0.0
C602 C 0.90913 0.57593 0.49379 0.0
C603 C 0.90816 0.54789 0.49332 0.0
H604 H 0.04342 0.56659 0.43621 0.0
H605 H 0.88903 0.53752 0.49707 0.0
H606 H 0.91811 0.62968 0.48778 0.0
H607 H 0.04848 0.61573 0.42259 0.0
H608 H 0.93076 0.51158 0.4886 0.0
H609 H 0.12053 0.46968 0.55686 0.0
H610 H 0.8906 0.58723 0.49761 0.0
H611 H 0.96689 0.44081 0.62503 0.0
H612 H 0.07885 0.49556 0.56605 0.0
H613 H 0.96193 0.39178 0.64014 0.0
H614 H 0.9618 0.65118 0.46728 0.0
H615 H 0.11918 0.41994 0.55971 0.0
H616 H 0.09196 0.37748 0.57295 0.0
H617 H 0.0105 0.64607 0.44155 0.0
H618 H 0.04848 0.35608 0.59539 0.0
N619 N 0.05331 0.46097 0.57262 0.0
C620 C 0.07761 0.47391 0.56746 0.0
C621 C 0.10065 0.43121 0.56363 0.0
C622 C 0.07599 0.41806 0.57181 0.0
C623 C 0.10149 0.45927 0.56218 0.0
C624 C 0.05248 0.43372 0.57651 0.0
H625 H 0.99988 0.36131 0.62154 0.0
N626 N 0.00678 0.43795 0.59634 0.0
C627 C 0.98066 0.39991 0.6253 0.0
C628 C 0.02823 0.42173 0.58873 0.0
C629 C 0.98355 0.42766 0.61679 0.0
C630 C 1.00207 0.38277 0.61459 0.0
C631 C 0.02649 0.39369 0.59709 0.0
O632 O 0.99652 0.48336 0.64932 0.0
O633 O 0.98927 0.51488 0.55043 0.0
O634 O 0.01588 0.55089 0.52455 0.0
O635 O 0.03771 0.51962 0.57255 0.0
O636 O 0.97064 0.49145 0.60091 0.0
O637 O 0.03744 0.49531 0.63371 0.0
O638 O 0.01361 0.52477 0.40947 0.0
O639 O 0.02019 0.49175 0.50769 0.0
O640 O 0.99219 0.45634 0.53611 0.0
O641 O 0.97204 0.48734 0.48494 0.0
O642 O 0.0392 0.5159 0.45852 0.0
O643 O 0.97287 0.51176 0.42401 0.0
C644 C 0.96745 0.51203 0.5736 0.0
C645 C 0.02788 0.47465 0.70723 0.0
C646 C 0.03138 0.46919 0.79125 0.0
C647 C 0.02237 0.48385 0.75213 0.0
C648 C 0.04548 0.44501 0.78459 0.0
C649 C 0.04224 0.45065 0.70176 0.0
C650 C 0.05083 0.43588 0.74019 0.0
C651 C 0.03306 0.5445 0.55691 0.0
C652 C 0.01915 0.49045 0.66637 0.0
C653 C 0.04945 0.37772 0.58975 0.0
C654 C 0.0742 0.38991 0.57706 0.0
C655 C 0.04207 0.49475 0.48467 0.0
C656 C 0.98245 0.53343 0.35126 0.0
C657 C 0.98802 0.5246 0.30615 0.0
C658 C 0.97907 0.53956 0.2673 0.0
C659 C 0.96493 0.56366 0.27448 0.0
C660 C 0.96808 0.55738 0.35724 0.0
C661 C 0.95952 0.57244 0.3191 0.0
C662 C 0.97522 0.46279 0.50343 0.0
C663 C 0.99124 0.51738 0.39179 0.0
H664 H 0.01162 0.50261 0.75647 0.0
H665 H 0.05223 0.43299 0.81381 0.0
H666 H 0.04705 0.44339 0.66783 0.0
H667 H 0.06178 0.4173 0.73552 0.0
H668 H 0.99881 0.5059 0.30142 0.0
H669 H 0.95821 0.5759 0.2455 0.0
H670 H 0.96327 0.5644 0.39133 0.0
H671 H 0.94855 0.59097 0.32416 0.0
C672 C 0.05041 0.06807 0.45864 0.0
C673 C 0.06004 0.0418 0.46697 0.0
C674 C 0.06796 0.08876 0.44171 0.0
C675 C 0.13368 0.09858 0.37678 0.0
H676 H 0.13222 0.17065 0.42363 0.0
C677 C 0.22154 0.17247 0.33654 0.0
C678 C 0.21625 0.19987 0.32776 0.0
C679 C 0.20098 0.15465 0.3518 0.0
C680 C 0.1327 0.15074 0.40964 0.0
H681 H 0.09533 0.01653 0.46261 0.0
H682 H 0.1258 0.05225 0.43364 0.0
H683 H 0.09928 0.13709 0.45392 0.0
H684 H 0.18535 0.23043 0.3312 0.0
H685 H 0.14906 0.19918 0.35746 0.0
H686 H 0.16693 0.11192 0.33265 0.0
C687 C 0.10482 0.05713 0.44018 0.0
C688 C 0.11378 0.13144 0.4271 0.0
C689 C 0.08738 0.03663 0.45717 0.0
C690 C 0.1899 0.20927 0.3363 0.0
C691 C 0.1692 0.19137 0.35194 0.0
C692 C 0.15245 0.11778 0.35934 0.0
C693 C 0.09542 0.0835 0.43173 0.0
C694 C 0.1143 0.1049 0.41149 0.0
C695 C 0.17441 0.16368 0.35962 0.0
C696 C 0.15267 0.14405 0.37601 0.0
H697 H 0.02928 0.07254 0.46443 0.0
H698 H 0.05987 0.10869 0.43528 0.0
H699 H 0.13439 0.07864 0.3629 0.0
H700 H 0.24176 0.16474 0.3314 0.0
H701 H 0.20612 0.13373 0.3583 0.0
C702 C 0.05486 0.92398 0.58173 0.0
C703 C 0.05902 0.95196 0.58037 0.0
C704 C 0.07405 0.9065 0.60014 0.0
C705 C 0.13489 0.9052 0.67256 0.0
H706 H 0.14657 0.83612 0.61706 0.0
C707 C 0.22815 0.83765 0.70338 0.0
C708 C 0.22278 0.8105 0.71509 0.0
C709 C 0.20746 0.85484 0.68955 0.0
C710 C 0.14336 0.85526 0.63314 0.0
H711 H 0.08671 0.98348 0.5973 0.0
H712 H 0.12048 0.95315 0.62788 0.0
H713 H 0.11215 0.86625 0.58753 0.0
H714 H 0.19206 0.77952 0.71778 0.0
H715 H 0.15597 0.80943 0.69343 0.0
H716 H 0.16696 0.89432 0.71703 0.0
C717 C 0.10211 0.94458 0.61593 0.0
C718 C 0.12351 0.87255 0.6164 0.0
C719 C 0.08276 0.96205 0.59804 0.0
C720 C 0.1966 0.80054 0.71079 0.0
C721 C 0.176 0.81761 0.69626 0.0
C722 C 0.15502 0.88806 0.68879 0.0
C723 C 0.09808 0.91651 0.61727 0.0
C724 C 0.11897 0.89783 0.63579 0.0
C725 C 0.1812 0.84495 0.68565 0.0
C726 C 0.15948 0.86294 0.6692 0.0
H727 H 0.03663 0.91553 0.56893 0.0
H728 H 0.06984 0.88512 0.60131 0.0
H729 H 0.13172 0.92418 0.68916 0.0
H730 H 0.24833 0.84561 0.7054 0.0
H731 H 0.2121 0.87575 0.68095 0.0
C732 C 0.34358 0.79621 0.80292 0.0
C733 C 0.31653 0.80123 0.8157 0.0
C734 C 0.36406 0.81148 0.82049 0.0
C735 C 0.39485 0.86463 0.8406 0.0
H736 H 0.40177 0.86673 0.97356 0.0
C737 C 0.44074 0.95199 0.93599 0.0
C738 C 0.46018 0.94517 0.96828 0.0
C739 C 0.42665 0.9319 0.91488 0.0
C740 C 0.40022 0.86604 0.93639 0.0
H741 H 0.28984 0.82573 0.85809 0.0
H742 H 0.32581 0.85172 0.88979 0.0
H743 H 0.36991 0.83535 0.9418 0.0
H744 H 0.48092 0.91191 1.00205 0.0
H745 H 0.4552 0.87692 0.96682 0.0
H746 H 0.4241 0.89638 0.83533 0.0
C747 C 0.33092 0.83622 0.86557 0.0
C748 C 0.38205 0.84828 0.91838 0.0
C749 C 0.31042 0.82139 0.84728 0.0
C750 C 0.46555 0.91788 0.97842 0.0
C751 C 0.45109 0.89783 0.95796 0.0
C752 C 0.41266 0.88278 0.85866 0.0
C753 C 0.35778 0.83142 0.85207 0.0
C754 C 0.37903 0.8478 0.8705 0.0
C755 C 0.43155 0.90475 0.92617 0.0
C756 C 0.41511 0.88382 0.90667 0.0
H757 H 0.34904 0.78037 0.77973 0.0
H758 H 0.38479 0.80751 0.81 0.0
H759 H 0.39257 0.86452 0.80354 0.0
H760 H 0.43623 0.9728 0.92714 0.0
H761 H 0.41142 0.93757 0.89065 0.0
C762 C 0.41999 0.03105 0.08631 0.0
C763 C 0.44729 0.03658 0.07638 0.0
C764 C 0.40253 0.0514 0.10091 0.0
C765 C 0.39709 0.12617 0.10986 0.0
H766 H 0.33982 0.10698 0.19977 0.0
C767 C 0.33405 0.20425 0.2131 0.0
C768 C 0.30602 0.20027 0.21507 0.0
C769 C 0.35131 0.18479 0.19453 0.0
C770 C 0.35561 0.11262 0.17442 0.0
H771 H 0.47816 0.06726 0.07718 0.0
H772 H 0.44803 0.10263 0.1033 0.0
H773 H 0.36978 0.07218 0.1708 0.0
H774 H 0.27422 0.1727 0.19884 0.0
H775 H 0.30432 0.13866 0.16718 0.0
H776 H 0.38318 0.16686 0.11497 0.0
C777 C 0.43967 0.08294 0.09789 0.0
C778 C 0.37275 0.09263 0.15752 0.0
C779 C 0.45704 0.06263 0.08279 0.0
C780 C 0.29567 0.17645 0.19789 0.0
C781 C 0.31292 0.15686 0.17994 0.0
C782 C 0.38015 0.14623 0.12734 0.0
C783 C 0.41214 0.07763 0.10726 0.0
C784 C 0.39372 0.09906 0.12487 0.0
C785 C 0.34092 0.16078 0.17808 0.0
C786 C 0.35916 0.13964 0.15969 0.0
H787 H 0.4121 0.01099 0.08228 0.0
H788 H 0.38146 0.04651 0.10704 0.0
H789 H 0.41265 0.13191 0.08418 0.0
H790 H 0.34269 0.22247 0.22572 0.0
H791 H 0.37281 0.1883 0.1938 0.0
C792 C 0.92154 0.9736 0.59094 0.0
C793 C 0.94889 0.96834 0.5813 0.0
C794 C 0.90398 0.95314 0.60768 0.0
C795 C 0.89463 0.87888 0.61989 0.0
H796 H 0.84138 0.89823 0.71431 0.0
C797 C 0.81807 0.8009 0.70873 0.0
C798 C 0.79178 0.81033 0.71769 0.0
C799 C 0.83883 0.81883 0.69353 0.0
C800 C 0.85588 0.89242 0.68761 0.0
H801 H 0.97953 0.93749 0.58399 0.0
H802 H 0.94871 0.9014 0.61266 0.0
H803 H 0.87414 0.93148 0.68467 0.0
H804 H 0.76639 0.84557 0.71507 0.0
H805 H 0.80214 0.87666 0.68892 0.0
H806 H 0.876 0.83978 0.62266 0.0
C807 C 0.94072 0.92137 0.60629 0.0
C808 C 0.87478 0.9116 0.67054 0.0
C809 C 0.9584 0.94202 0.58962 0.0
C810 C 0.78658 0.83782 0.70969 0.0
C811 C 0.80721 0.85568 0.69484 0.0
C812 C 0.87557 0.85961 0.63695 0.0
C813 C 0.91325 0.92672 0.61604 0.0
C814 C 0.89422 0.90534 0.63588 0.0
C815 C 0.83374 0.8466 0.68663 0.0
C816 C 0.85557 0.86623 0.67057 0.0
H817 H 0.91368 0.99374 0.58555 0.0
H818 H 0.88301 0.9581 0.61408 0.0
H819 H 0.90917 0.87328 0.5931 0.0
H820 H 0.82254 0.77968 0.71308 0.0
H821 H 0.85892 0.81097 0.6877 0.0
C822 C 0.95476 0.08632 0.46634 0.0
C823 C 0.95042 0.05836 0.46757 0.0
C824 C 0.93588 0.10393 0.44734 0.0
C825 C 0.87591 0.10558 0.37294 0.0
H826 H 0.86381 0.1747 0.42815 0.0
C827 C 0.78275 0.17253 0.34016 0.0
C828 C 0.78792 0.1997 0.32834 0.0
C829 C 0.80349 0.15559 0.35456 0.0
C830 C 0.86716 0.15555 0.41213 0.0
H831 H 0.92273 0.02702 0.44985 0.0
H832 H 0.88948 0.05758 0.41824 0.0
H833 H 0.8979 0.14447 0.45865 0.0
H834 H 0.81828 0.23103 0.32582 0.0
H835 H 0.85452 0.20151 0.3515 0.0
H836 H 0.8443 0.11652 0.32758 0.0
C837 C 0.90777 0.06604 0.43074 0.0
C838 C 0.88681 0.13821 0.42944 0.0
C839 C 0.92681 0.04842 0.44922 0.0
C840 C 0.81394 0.20997 0.33316 0.0
C841 C 0.83459 0.19314 0.34833 0.0
C842 C 0.85599 0.12278 0.35613 0.0
C843 C 0.91199 0.09408 0.42948 0.0
C844 C 0.89144 0.1129 0.41023 0.0
C845 C 0.82961 0.16574 0.35892 0.0
C846 C 0.85136 0.14789 0.37566 0.0
H847 H 0.97291 0.09465 0.47966 0.0
H848 H 0.94023 0.12528 0.44629 0.0
H849 H 0.87919 0.0866 0.35643 0.0
H850 H 0.7627 0.16433 0.33771 0.0
H851 H 0.799 0.13465 0.36315 0.0
C852 C 0.66731 0.21346 0.23813 0.0
C853 C 0.69445 0.20887 0.22536 0.0
C854 C 0.64707 0.19812 0.22002 0.0
C855 C 0.63011 0.1605 0.12152 0.0
H856 H 0.58596 0.11492 0.20561 0.0
C857 C 0.5683 0.05818 0.10747 0.0
C858 C 0.54889 0.06516 0.0752 0.0
C859 C 0.58313 0.07812 0.12753 0.0
C860 C 0.59802 0.12779 0.18197 0.0
H861 H 0.72151 0.18519 0.18224 0.0
H862 H 0.68594 0.15901 0.14971 0.0
H863 H 0.61782 0.14663 0.23676 0.0
H864 H 0.52897 0.0986 0.04046 0.0
H865 H 0.55604 0.1333 0.07378 0.0
H866 H 0.61052 0.1415 0.06671 0.0
C867 C 0.68057 0.17425 0.17429 0.0
C868 C 0.61603 0.14587 0.19965 0.0
C869 C 0.70086 0.18917 0.19309 0.0
C870 C 0.54431 0.09248 0.06404 0.0
C871 C 0.55955 0.11237 0.0834 0.0
C872 C 0.61173 0.14281 0.10386 0.0
C873 C 0.65363 0.17852 0.18792 0.0
C874 C 0.63256 0.16185 0.16946 0.0
C875 C 0.57903 0.10527 0.11518 0.0
C876 C 0.59604 0.12597 0.13399 0.0
H877 H 0.66161 0.22897 0.26184 0.0
H878 H 0.62629 0.20174 0.23062 0.0
H879 H 0.64274 0.17278 0.09784 0.0
H880 H 0.57221 0.03736 0.11713 0.0
H881 H 0.59828 0.07232 0.15185 0.0
C882 C 0.67392 0.80564 0.83156 0.0
C883 C 0.70192 0.80959 0.83062 0.0
C884 C 0.65646 0.82483 0.85029 0.0
C885 C 0.65493 0.8849 0.92488 0.0
H886 H 0.58675 0.89807 0.86781 0.0
C887 C 0.58804 0.97838 0.95903 0.0
C888 C 0.56055 0.97339 0.96837 0.0
C889 C 0.60519 0.95765 0.94489 0.0
C890 C 0.60562 0.89444 0.88437 0.0
H891 H 0.73347 0.83691 0.8488 0.0
H892 H 0.70318 0.87066 0.88013 0.0
H893 H 0.61684 0.86364 0.83771 0.0
H894 H 0.5291 0.94333 0.96662 0.0
H895 H 0.55892 0.90719 0.94193 0.0
H896 H 0.64381 0.91647 0.97058 0.0
C897 C 0.69458 0.85246 0.86745 0.0
C898 C 0.62289 0.8746 0.86726 0.0
C899 C 0.71204 0.83313 0.84914 0.0
C900 C 0.55032 0.94756 0.9615 0.0
C901 C 0.56736 0.92693 0.94674 0.0
C902 C 0.63779 0.905 0.94157 0.0
C903 C 0.66651 0.84864 0.86828 0.0
C904 C 0.64785 0.86953 0.88718 0.0
C905 C 0.59499 0.93173 0.93836 0.0
C906 C 0.61298 0.91001 0.92143 0.0
H907 H 0.66543 0.78757 0.81817 0.0
H908 H 0.63506 0.82081 0.85104 0.0
H909 H 0.67366 0.88131 0.94185 0.0
H910 H 0.59628 0.9983 0.96306 0.0
H911 H 0.62633 0.96203 0.93804 0.0
C912 C 0.55022 0.56811 0.95582 0.0
C913 C 0.55963 0.54181 0.96466 0.0
C914 C 0.56819 0.5889 0.94096 0.0
C915 C 0.64173 0.60601 0.93585 0.0
H916 H 0.623 0.65949 0.84189 0.0
C917 C 0.72319 0.67193 0.84039 0.0
C918 C 0.71794 0.6993 0.8311 0.0
C919 C 0.7027 0.65433 0.85686 0.0
C920 C 0.62848 0.6449 0.86854 0.0
H921 H 0.59488 0.51644 0.96198 0.0
H922 H 0.62604 0.55225 0.9364 0.0
H923 H 0.58943 0.62621 0.87076 0.0
H924 H 0.68708 0.72993 0.83417 0.0
H925 H 0.65094 0.69904 0.86235 0.0
H926 H 0.68075 0.62433 0.93344 0.0
C927 C 0.60505 0.55729 0.94222 0.0
C928 C 0.60917 0.62578 0.8852 0.0
C929 C 0.58714 0.53664 0.95675 0.0
C930 C 0.69161 0.70879 0.83952 0.0
C931 C 0.67093 0.69106 0.85591 0.0
C932 C 0.66095 0.62497 0.91917 0.0
C933 C 0.59598 0.58384 0.93425 0.0
C934 C 0.61565 0.60571 0.9186 0.0
C935 C 0.67626 0.66356 0.86527 0.0
C936 C 0.65484 0.64448 0.88472 0.0
H937 H 0.52899 0.57256 0.96005 0.0
H938 H 0.56034 0.60899 0.93528 0.0
H939 H 0.64742 0.59147 0.96242 0.0
H940 H 0.74334 0.66409 0.83493 0.0
H941 H 0.70765 0.63333 0.86298 0.0
C942 C 0.72967 0.33621 0.19676 0.0
C943 C 0.72369 0.31025 0.21476 0.0
C944 C 0.70919 0.35333 0.18182 0.0
C945 C 0.63604 0.35292 0.15212 0.0
H946 H 0.64661 0.43006 0.15132 0.0
C947 C 0.56077 0.42451 0.06397 0.0
C948 C 0.5585 0.45134 0.07718 0.0
C949 C 0.58036 0.40751 0.08224 0.0
C950 C 0.64284 0.40862 0.152 0.0
H951 H 0.69164 0.28121 0.22784 0.0
H952 H 0.65582 0.31139 0.20634 0.0
H953 H 0.68047 0.40073 0.18253 0.0
H954 H 0.57411 0.4807 0.12297 0.0
H955 H 0.60663 0.45072 0.15755 0.0
H956 H 0.59746 0.36078 0.12534 0.0
C957 C 0.67627 0.31876 0.20248 0.0
C958 C 0.66281 0.39157 0.16909 0.0
C959 C 0.69688 0.30144 0.21609 0.0
C960 C 0.57551 0.46031 0.11114 0.0
C961 C 0.59454 0.44304 0.13069 0.0
C962 C 0.61569 0.36998 0.1365 0.0
C963 C 0.68202 0.34503 0.18485 0.0
C964 C 0.66001 0.36337 0.16874 0.0
C965 C 0.59765 0.41642 0.11603 0.0
C966 C 0.61888 0.39816 0.13532 0.0
H967 H 0.75032 0.34323 0.19395 0.0
H968 H 0.71493 0.37288 0.16708 0.0
H969 H 0.6329 0.33147 0.15027 0.0
H970 H 0.5475 0.4165 0.03923 0.0
H971 H 0.58203 0.38748 0.06904 0.0
C972 C 0.95695 0.44046 0.43634 0.0
C973 C 0.95959 0.44122 0.48432 0.0
C974 C 0.94183 0.42023 0.41767 0.0
C975 C 0.88495 0.37697 0.44651 0.0
H976 H 0.90858 0.33851 0.33792 0.0
C977 C 0.81719 0.29909 0.36848 0.0
C978 C 0.8161 0.30005 0.3202 0.0
C979 C 0.83698 0.31332 0.38997 0.0
C980 C 0.90167 0.34925 0.36805 0.0
H981 H 0.94827 0.4221 0.55047 0.0
H982 H 0.92187 0.38652 0.51796 0.0
H983 H 0.93957 0.36917 0.37322 0.0
H984 H 0.83419 0.3165 0.25622 0.0
H985 H 0.86863 0.342 0.2936 0.0
H986 H 0.84682 0.35811 0.44062 0.0
C987 C 0.93174 0.40138 0.49483 0.0
C988 C 0.9194 0.36665 0.38826 0.0
C989 C 0.94706 0.42149 0.51341 0.0
C990 C 0.83511 0.31512 0.29345 0.0
C991 C 0.85477 0.32965 0.31493 0.0
C992 C 0.86717 0.35981 0.42612 0.0
C993 C 0.9289 0.4007 0.44685 0.0
C994 C 0.91106 0.38079 0.42738 0.0
C995 C 0.85574 0.32907 0.36345 0.0
C996 C 0.87526 0.34595 0.38645 0.0
H997 H 0.96662 0.45547 0.41326 0.0
H998 H 0.93963 0.42029 0.38059 0.0
H999 H 0.87796 0.38801 0.47627 0.0
H1000 H 0.80285 0.28716 0.38959 0.0
H1001 H 0.83751 0.31206 0.42735 0.0
C1002 C 0.79702 0.6752 0.70296 0.0
C1003 C 0.8074 0.69937 0.71878 0.0
C1004 C 0.81426 0.65528 0.68608 0.0
C1005 C 0.88114 0.64374 0.63338 0.0
H1006 H 0.87205 0.57075 0.68309 0.0
C1007 C 0.95847 0.56029 0.59157 0.0
C1008 C 0.94901 0.53394 0.58722 0.0
C1009 C 0.94111 0.5806 0.60666 0.0
C1010 C 0.87466 0.59087 0.66808 0.0
H1011 H 0.84408 0.72182 0.72809 0.0
H1012 H 0.87416 0.68711 0.69783 0.0
H1013 H 0.84185 0.60598 0.7098 0.0
H1014 H 0.91445 0.50775 0.59753 0.0
H1015 H 0.88373 0.54323 0.62216 0.0
H1016 H 0.9134 0.62867 0.59062 0.0
C1017 C 0.85266 0.68358 0.69887 0.0
C1018 C 0.85738 0.61111 0.68369 0.0
C1019 C 0.83543 0.70336 0.71645 0.0
C1020 C 0.92209 0.52805 0.59982 0.0
C1021 C 0.90459 0.54839 0.61434 0.0
C1022 C 0.89817 0.62341 0.61715 0.0
C1023 C 0.84226 0.65923 0.68388 0.0
C1024 C 0.86051 0.63778 0.66671 0.0
C1025 C 0.91384 0.57501 0.61805 0.0
C1026 C 0.8953 0.59667 0.63448 0.0
H1027 H 0.77557 0.67142 0.7043 0.0
H1028 H 0.80567 0.63678 0.67446 0.0
H1029 H 0.88382 0.66408 0.6193 0.0
H1030 H 0.97937 0.56522 0.58399 0.0
H1031 H 0.94927 0.60057 0.61017 0.0
C1032 C 0.28564 0.3383 0.20666 0.0
C1033 C 0.29057 0.31076 0.21465 0.0
C1034 C 0.30644 0.35598 0.19188 0.0
C1035 C 0.37475 0.35941 0.13396 0.0
H1036 H 0.37422 0.431 0.18277 0.0
C1037 C 0.45794 0.44145 0.086 0.0
C1038 C 0.44847 0.46783 0.07818 0.0
C1039 C 0.44029 0.42083 0.10295 0.0
C1040 C 0.37462 0.4112 0.16834 0.0
H1041 H 0.32103 0.27981 0.20992 0.0
H1042 H 0.35771 0.31076 0.18461 0.0
H1043 H 0.34119 0.39796 0.21218 0.0
H1044 H 0.41337 0.49334 0.08344 0.0
H1045 H 0.38278 0.45779 0.11243 0.0
H1046 H 0.40834 0.37296 0.08995 0.0
C1047 C 0.3377 0.31882 0.19047 0.0
C1048 C 0.35556 0.39214 0.18528 0.0
C1049 C 0.31676 0.30108 0.20562 0.0
C1050 C 0.42121 0.47317 0.08854 0.0
C1051 C 0.4037 0.45275 0.10554 0.0
C1052 C 0.39396 0.37856 0.11699 0.0
C1053 C 0.33289 0.34664 0.1837 0.0
C1054 C 0.35491 0.36607 0.16782 0.0
C1055 C 0.4129 0.42627 0.11342 0.0
C1056 C 0.39386 0.40494 0.13336 0.0
H1057 H 0.26552 0.34625 0.21204 0.0
H1058 H 0.3016 0.37702 0.18604 0.0
H1059 H 0.37492 0.33965 0.11938 0.0
H1060 H 0.479 0.43685 0.07965 0.0
H1061 H 0.44823 0.4008 0.1089 0.0
C1062 C 0.45354 0.58575 0.96233 0.0
C1063 C 0.44915 0.55778 0.96508 0.0
C1064 C 0.43418 0.6031 0.944 0.0
C1065 C 0.36204 0.60863 0.92745 0.0
H1066 H 0.38087 0.66323 0.83276 0.0
C1067 C 0.28017 0.67297 0.8415 0.0
C1068 C 0.2862 0.69985 0.82893 0.0
C1069 C 0.3004 0.6554 0.85585 0.0
C1070 C 0.37527 0.6484 0.85971 0.0
H1071 H 0.42094 0.52615 0.95068 0.0
H1072 H 0.38702 0.55647 0.9196 0.0
H1073 H 0.41573 0.63362 0.86299 0.0
H1074 H 0.31771 0.72999 0.82468 0.0
H1075 H 0.35291 0.69971 0.85058 0.0
H1076 H 0.32191 0.62373 0.92579 0.0
C1077 C 0.4055 0.56492 0.93142 0.0
C1078 C 0.39528 0.63136 0.87683 0.0
C1079 C 0.425 0.54756 0.94903 0.0
C1080 C 0.31267 0.70913 0.83245 0.0
C1081 C 0.33287 0.69167 0.84739 0.0
C1082 C 0.34215 0.62591 0.91096 0.0
C1083 C 0.40986 0.59286 0.92871 0.0
C1084 C 0.38883 0.61122 0.91073 0.0
C1085 C 0.32704 0.66452 0.85938 0.0
C1086 C 0.3484 0.64601 0.8767 0.0
H1087 H 0.472 0.59426 0.97413 0.0
H1088 H 0.438 0.62457 0.94257 0.0
H1089 H 0.35655 0.5935 0.95399 0.0
H1090 H 0.2598 0.66548 0.83968 0.0
H1091 H 0.29508 0.63462 0.86397 0.0
C1092 C 0.16641 0.71651 0.73584 0.0
C1093 C 0.19336 0.70823 0.73129 0.0
C1094 C 0.14588 0.70029 0.72079 0.0
C1095 C 0.13075 0.63059 0.6963 0.0
H1096 H 0.07729 0.66044 0.61507 0.0
C1097 C 0.04906 0.56422 0.62801 0.0
C1098 C 0.04656 0.56616 0.57992 0.0
C1099 C 0.06303 0.58379 0.65046 0.0
C1100 C 0.09207 0.65193 0.63785 0.0
H1101 H 0.22004 0.6767 0.70722 0.0
H1102 H 0.18419 0.64845 0.68089 0.0
H1103 H 0.11042 0.69022 0.64732 0.0
H1104 H 0.05591 0.59024 0.51776 0.0
H1105 H 0.08065 0.62456 0.55682 0.0
H1106 H 0.11322 0.59226 0.68578 0.0
C1107 C 0.17896 0.66733 0.69652 0.0
C1108 C 0.1108 0.66892 0.65652 0.0
C1109 C 0.19947 0.68357 0.71129 0.0
C1110 C 0.05729 0.5885 0.5548 0.0
C1111 C 0.07141 0.60811 0.57724 0.0
C1112 C 0.11202 0.61367 0.67787 0.0
C1113 C 0.15204 0.67554 0.70123 0.0
C1114 C 0.1306 0.65824 0.6851 0.0
C1115 C 0.07486 0.60557 0.62513 0.0
C1116 C 0.0928 0.62412 0.64789 0.0
H1117 H 0.16114 0.7356 0.75061 0.0
H1118 H 0.12522 0.70697 0.7248 0.0
H1119 H 0.14569 0.62198 0.71868 0.0
H1120 H 0.0403 0.54752 0.64833 0.0
H1121 H 0.065 0.58163 0.68754 0.0
C1122 C 0.17229 0.31056 0.31769 0.0
C1123 C 0.19972 0.31 0.32794 0.0
C1124 C 0.15514 0.33017 0.33588 0.0
C1125 C 0.1395 0.37055 0.43159 0.0
H1126 H 0.11255 0.42582 0.3475 0.0
C1127 C 0.08597 0.47918 0.45074 0.0
C1128 C 0.06018 0.47284 0.46952 0.0
C1129 C 0.10296 0.45894 0.43419 0.0
C1130 C 0.11992 0.41046 0.37123 0.0
H1131 H 0.23011 0.32894 0.36786 0.0
H1132 H 0.19971 0.36247 0.40107 0.0
H1133 H 0.14211 0.3903 0.31753 0.0
H1134 H 0.03127 0.44057 0.48245 0.0
H1135 H 0.0615 0.40499 0.45564 0.0
H1136 H 0.11657 0.39024 0.48507 0.0
C1137 C 0.19187 0.34805 0.37781 0.0
C1138 C 0.13671 0.3902 0.35416 0.0
C1139 C 0.20923 0.32885 0.35868 0.0
C1140 C 0.05138 0.44596 0.46998 0.0
C1141 C 0.06857 0.42563 0.45433 0.0
C1142 C 0.12214 0.39044 0.44851 0.0
C1143 C 0.16481 0.34909 0.366 0.0
C1144 C 0.14677 0.37022 0.38424 0.0
C1145 C 0.09447 0.43199 0.43626 0.0
C1146 C 0.1124 0.41065 0.41847 0.0
H1147 H 0.16397 0.29589 0.29558 0.0
H1148 H 0.13423 0.33045 0.32672 0.0
H1149 H 0.14701 0.35527 0.45533 0.0
H1150 H 0.09301 0.49983 0.449 0.0
H1151 H 0.1228 0.46429 0.42003 0.0
C1152 C 0.02117 0.01148 0.84608 0.0
C1153 C 0.01204 0.03697 0.83112 0.0
C1154 C 0.01886 1.00333 0.89298 0.0
C1155 C 0.01074 0.03146 1.01007 0.0
H1156 H 0.99334 0.95788 0.04854 0.0
C1157 C 0.98809 0.99846 0.20242 0.0
C1158 C 0.99723 0.97298 0.21741 0.0
C1159 C 0.9904 0.0066 0.15552 0.0
C1160 C 0.99855 0.97846 0.03844 0.0
H1161 H 0.99201 0.07325 0.85357 0.0
H1162 H 0.9878 0.05904 0.93487 0.0
H1163 H 0.9956 0.97075 0.96645 0.0
H1164 H 0.01729 0.9367 0.19499 0.0
H1165 H 0.02149 0.9509 0.11368 0.0
H1166 H 0.01369 0.03918 0.08206 0.0
C1167 C 0.99741 0.04557 0.91071 0.0
C1168 C 0.99983 0.98584 0.99125 0.0
C1169 C 0.99975 0.0537 0.86397 0.0
C1170 C 0.00953 0.95625 0.18457 0.0
C1171 C 0.01188 0.96437 0.13783 0.0
C1172 C 0.00946 0.02408 0.05726 0.0
C1173 C 0.00729 0.02045 0.92604 0.0
C1174 C 0.00591 0.01246 0.97638 0.0
C1175 C 1.00199 0.98948 0.12247 0.0
C1176 C 1.00337 0.99746 0.07214 0.0
H1177 H 0.03095 0.99819 0.82181 0.0
H1178 H 0.0269 0.98393 0.90349 0.0
H1179 H 0.01595 0.05205 0.99997 0.0
H1180 H 0.9783 0.01176 0.22667 0.0
H1181 H 0.98236 0.02599 0.14499 0.0
C1182 C 0.26936 0.75844 0.44827 0.0
C1183 C 0.2789 0.73291 0.46211 0.0
C1184 C 0.26271 0.76391 0.40224 0.0
C1185 C 0.24647 0.73076 0.29331 0.0
H1186 H 0.26903 0.79888 0.23502 0.0
C1187 C 0.23958 0.75199 0.0959 0.0
C1188 C 0.22996 0.77747 0.08196 0.0
C1189 C 0.24623 0.7466 0.14195 0.0
C1190 C 0.26235 0.77984 0.25083 0.0
H1191 H 0.28777 0.69279 0.43868 0.0
H1192 H 0.27659 0.70238 0.35874 0.0
H1193 H 0.27766 0.78956 0.31635 0.0
H1194 H 0.22097 0.81759 0.10521 0.0
H1195 H 0.23219 0.80815 0.18521 0.0
H1196 H 0.23117 0.72103 0.22779 0.0
C1197 C 0.27414 0.71822 0.38329 0.0
C1198 C 0.26724 0.77453 0.29759 0.0
C1199 C 0.28083 0.71279 0.42913 0.0
C1200 C 0.22797 0.79763 0.11485 0.0
C1201 C 0.23468 0.79229 0.16072 0.0
C1202 C 0.24158 0.73607 0.24655 0.0
C1203 C 0.26528 0.74393 0.36902 0.0
C1204 C 0.25939 0.7499 0.31949 0.0
C1205 C 0.2436 0.76661 0.17509 0.0
C1206 C 0.24945 0.76069 0.22465 0.0
H1207 H 0.26775 0.77442 0.47269 0.0
H1208 H 0.25561 0.78384 0.39265 0.0
H1209 H 0.23978 0.71172 0.30911 0.0
H1210 H 0.24123 0.73597 0.07155 0.0
H1211 H 0.25338 0.7267 0.15161 0.0
C1212 C 0.50161 0.05377 0.67696 0.0
C1213 C 0.49193 0.03541 0.7118 0.0
C1214 C 0.505 0.04604 0.63114 0.0
C1215 C 0.51123 0.98661 0.55745 0.0
H1216 H 0.4891 0.03703 0.46102 0.0
C1217 C 0.50543 0.95582 0.36771 0.0
C1218 C 0.51521 0.97422 0.33301 0.0
C1219 C 0.50197 0.96348 0.41357 0.0
C1220 C 0.49565 0.02281 0.48743 0.0
H1221 H 0.47879 0.99426 0.72572 0.0
H1222 H 0.48472 0.98069 0.64562 0.0
H1223 H 0.48516 0.04949 0.54169 0.0
H1224 H 0.52846 0.01536 0.31938 0.0
H1225 H 0.5224 0.0288 0.39951 0.0
H1226 H 0.52171 0.95993 0.50318 0.0
C1227 C 0.48989 1.00108 0.65387 0.0
C1228 C 0.49342 0.02996 0.53377 0.0
C1229 C 0.48652 0.00883 0.69985 0.0
C1230 C 0.52065 1.00076 0.34513 0.0
C1231 C 0.5172 0.00844 0.39113 0.0
C1232 C 0.51346 0.97946 0.51111 0.0
C1233 C 0.49882 0.01971 0.61879 0.0
C1234 C 0.50121 0.01198 0.56942 0.0
C1235 C 0.50817 0.98978 0.42607 0.0
C1236 C 0.50569 0.99746 0.47545 0.0
H1237 H 0.50647 0.07426 0.6851 0.0
H1238 H 0.51251 0.06076 0.60532 0.0
H1239 H 0.51779 0.97239 0.58386 0.0
H1240 H 0.50054 0.93536 0.35945 0.0
H1241 H 0.49439 0.94874 0.43929 0.0
C1242 C 0.24042 0.26262 0.94826 0.0
C1243 C 0.22495 0.24024 0.96412 0.0
C1244 C 0.24827 0.26593 0.90132 0.0
C1245 C 0.22942 0.24442 0.78535 0.0
H1246 H 0.29964 0.27242 0.74592 0.0
C1247 C 0.26844 0.24653 0.59337 0.0
C1248 C 0.28402 0.2688 0.57732 0.0
C1249 C 0.26074 0.24329 0.64038 0.0
C1250 C 0.2798 0.26488 0.75628 0.0
H1251 H 0.20689 0.20306 0.94337 0.0
H1252 H 0.22063 0.20872 0.86199 0.0
H1253 H 0.28815 0.26611 0.82824 0.0
H1254 H 0.30248 0.30582 0.59786 0.0
H1255 H 0.28894 0.3003 0.67937 0.0
H1256 H 0.22105 0.24321 0.71342 0.0
C1257 C 0.22614 0.22411 0.88544 0.0
C1258 C 0.27323 0.26125 0.80358 0.0
C1259 C 0.21831 0.22083 0.93221 0.0
C1260 C 0.29095 0.28814 0.60916 0.0
C1261 C 0.28324 0.28494 0.656 0.0
C1262 C 0.23599 0.24807 0.73806 0.0
C1263 C 0.24087 0.2469 0.86917 0.0
C1264 C 0.24796 0.25092 0.81877 0.0
C1265 C 0.26836 0.26228 0.67243 0.0
C1266 C 0.26127 0.25836 0.72285 0.0
H1267 H 0.24569 0.27806 0.97181 0.0
H1268 H 0.25943 0.28383 0.89 0.0
H1269 H 0.20959 0.23687 0.79572 0.0
H1270 H 0.26297 0.23113 0.5699 0.0
H1271 H 0.24947 0.22547 0.65179 0.0
C1272 C 0.78523 0.21329 0.92911 0.0
C1273 C 0.78229 0.23354 0.9617 0.0
C1274 C 0.77834 0.21807 0.8832 0.0
C1275 C 0.76901 0.27342 0.79673 0.0
H1276 H 0.73495 0.21812 0.72799 0.0
C1277 C 0.72776 0.29423 0.61509 0.0
C1278 C 0.73046 0.27414 0.5822 0.0
C1279 C 0.73498 0.28926 0.66076 0.0
C1280 C 0.7448 0.23366 0.74647 0.0
H1281 H 0.76916 0.27456 0.97155 0.0
H1282 H 0.7567 0.28281 0.89142 0.0
H1283 H 0.74419 0.20956 0.80929 0.0
H1284 H 0.74354 0.23319 0.57147 0.0
H1285 H 0.75658 0.22458 0.65128 0.0
H1286 H 0.76961 0.29752 0.73394 0.0
C1287 C 0.76473 0.26331 0.90135 0.0
C1288 C 0.75004 0.22878 0.79319 0.0
C1289 C 0.77157 0.25849 0.94743 0.0
C1290 C 0.74131 0.24914 0.59588 0.0
C1291 C 0.74848 0.24411 0.64175 0.0
C1292 C 0.76377 0.2783 0.75003 0.0
C1293 C 0.76829 0.24323 0.86852 0.0
C1294 C 0.76219 0.24861 0.81897 0.0
C1295 C 0.74514 0.26405 0.6749 0.0
C1296 C 0.75155 0.2585 0.72427 0.0
H1297 H 0.7931 0.19371 0.93904 0.0
H1298 H 0.78156 0.20219 0.85892 0.0
H1299 H 0.77884 0.28898 0.81521 0.0
H1300 H 0.7198 0.31384 0.60561 0.0
H1301 H 0.73191 0.30502 0.6853 0.0
C1302 C 0.7406 0.76274 0.45175 0.0
C1303 C 0.72472 0.74063 0.4676 0.0
C1304 C 0.74842 0.766 0.40477 0.0
C1305 C 0.72925 0.74489 0.28854 0.0
H1306 H 0.79982 0.77209 0.24945 0.0
C1307 C 0.76863 0.74679 0.09654 0.0
C1308 C 0.78454 0.76887 0.08066 0.0
C1309 C 0.76076 0.74358 0.14351 0.0
C1310 C 0.77989 0.76478 0.2597 0.0
H1311 H 0.70586 0.7039 0.44668 0.0
H1312 H 0.71957 0.70946 0.36526 0.0
H1313 H 0.78817 0.76584 0.3317 0.0
H1314 H 0.80339 0.80563 0.10152 0.0
H1315 H 0.78959 0.80017 0.18291 0.0
H1316 H 0.72098 0.74382 0.21653 0.0
C1317 C 0.72543 0.72469 0.38876 0.0
C1318 C 0.77321 0.76117 0.30699 0.0
C1319 C 0.71761 0.72146 0.43557 0.0
C1320 C 0.79161 0.78808 0.11265 0.0
C1321 C 0.78375 0.78491 0.15944 0.0
C1322 C 0.73593 0.74849 0.24125 0.0
C1323 C 0.74061 0.7472 0.37252 0.0
C1324 C 0.7478 0.75114 0.32209 0.0
C1325 C 0.76855 0.76242 0.17572 0.0
C1326 C 0.76134 0.75851 0.22615 0.0
H1327 H 0.74622 0.77801 0.47535 0.0
H1328 H 0.75992 0.7837 0.39353 0.0
H1329 H 0.70932 0.73756 0.29879 0.0
H1330 H 0.76303 0.73149 0.07298 0.0
H1331 H 0.74925 0.7259 0.15477 0.0
C1332 C 0.46985 0.46939 0.68174 0.0
C1333 C 0.48914 0.47623 0.71363 0.0
C1334 C 0.47314 0.47719 0.635 0.0
C1335 C 0.50987 0.5246 0.5533 0.0
H1336 H 0.49238 0.47223 0.46285 0.0
C1337 C 0.53632 0.54275 0.35873 0.0
C1338 C 0.51701 0.53561 0.32708 0.0
C1339 C 0.53329 0.53495 0.40552 0.0
C1340 C 0.49709 0.48721 0.48757 0.0
H1341 H 0.52674 0.49731 0.7213 0.0
H1342 H 0.53252 0.51102 0.63952 0.0
H1343 H 0.48618 0.46068 0.5451 0.0
H1344 H 0.4796 0.51411 0.31992 0.0
H1345 H 0.47424 0.50047 0.40173 0.0
H1346 H 0.52074 0.55115 0.49576 0.0
C1347 C 0.51472 0.4997 0.65084 0.0
C1348 C 0.49352 0.4806 0.53483 0.0
C1349 C 0.5114 0.49188 0.69776 0.0
C1350 C 0.49497 0.51974 0.34325 0.0
C1351 C 0.4919 0.51195 0.39021 0.0
C1352 C 0.51342 0.53122 0.50602 0.0
C1353 C 0.49581 0.4921 0.61873 0.0
C1354 C 0.49981 0.49922 0.56836 0.0
C1355 C 0.51085 0.51978 0.42209 0.0
C1356 C 0.50708 0.51262 0.47249 0.0
H1357 H 0.45216 0.45783 0.6929 0.0
H1358 H 0.45784 0.47152 0.61157 0.0
H1359 H 0.51457 0.53958 0.57804 0.0
H1360 H 0.55383 0.55451 0.34732 0.0
H1361 H 0.54862 0.54083 0.42875 0.0
C1362 C 1.00114 0.48889 0.85344 0.0
C1363 C 0.02637 0.47874 0.8391 0.0
C1364 C 0.99608 0.49584 0.89952 0.0
C1365 C 0.02088 0.48248 1.01744 0.0
H1366 H 0.97814 0.54487 0.04873 0.0
C1367 C 0.00943 0.5203 0.20485 0.0
C1368 C 0.98418 0.53039 0.21924 0.0
C1369 C 0.01456 0.51358 0.15868 0.0
C1370 C 0.98986 0.52717 0.04067 0.0
H1371 H 0.06649 0.46934 0.8615 0.0
H1372 H 0.05776 0.48155 0.94137 0.0
H1373 H 0.98707 0.53487 0.96772 0.0
H1374 H 0.94413 0.54001 0.19674 0.0
H1375 H 0.95298 0.52818 0.1167 0.0
H1376 H 0.02365 0.47476 0.09037 0.0
C1377 C 0.04162 0.4835 0.91746 0.0
C1378 C 0.99499 0.52145 0.99412 0.0
C1379 C 0.04665 0.47655 0.87156 0.0
C1380 C 0.96398 0.53283 0.18667 0.0
C1381 C 0.96908 0.5261 0.14067 0.0
C1382 C 0.01574 0.4882 0.06398 0.0
C1383 C 0.01617 0.49287 0.93228 0.0
C1384 C 0.01059 0.49904 0.98187 0.0
C1385 C 0.99453 0.51671 0.12585 0.0
C1386 C 1.00014 0.51061 0.07625 0.0
H1387 H 0.98503 0.49063 0.82944 0.0
H1388 H 0.97618 0.5028 0.90974 0.0
H1389 H 0.03259 0.46478 1.00938 0.0
H1390 H 0.0255 0.5184 0.22892 0.0
H1391 H 0.03447 0.50663 0.14847 0.0
loop_
_geom_bond_atom_site_label_1
_geom_bond_atom_site_label_2
_geom_bond_distance
_geom_bond_site_symmetry_2
_ccdc_geom_bond_type
Tb0 N31 2.654 1_455 S
Tb0 N38 2.600 1_455 S
Tb0 O44 2.549 . S
Tb0 O45 2.612 1_565 S
Tb0 O47 2.315 1_465 S
Tb0 O48 2.556 1_565 S
Tb0 O49 2.412 1_455 S
Tb0 O51 2.359 1_455 S
Tb0 O52 2.426 . S
Tb0 C64 2.834 . S
C1 C4 1.432 . S
C1 C5 1.414 . S
C1 N8 1.359 . S
C2 C4 1.417 . S
C2 C6 1.432 . S
C2 C14 1.410 . S
C3 C5 1.444 . S
C3 C6 1.317 . S
C3 H26 0.929 . S
C4 C1 1.432 . S
C4 C2 1.417 . S
C4 N12 1.360 . S
C5 C1 1.414 . S
C5 C3 1.444 . S
C5 C10 1.423 . S
C6 C2 1.432 . S
C6 C3 1.317 . S
C6 H18 0.930 . S
C7 C9 1.392 . S
C7 C10 1.332 1_655 S
C7 H19 0.931 . S
N8 C1 1.359 . S
N8 C9 1.327 1_455 S
N8 Tb11 2.600 1_455 S
C9 C7 1.392 . S
C9 N8 1.327 1_655 S
C9 H16 0.930 . S
C10 C5 1.423 . S
C10 C7 1.332 1_455 S
C10 H29 0.929 . S
Tb11 N8 2.600 1_655 S
Tb11 N12 2.663 1_655 S
Tb11 O45 2.363 1_655 S
Tb11 O46 2.418 . S
Tb11 O50 2.544 . S
Tb11 O51 2.609 1_545 S
Tb11 O53 2.322 1_645 S
Tb11 O54 2.550 1_545 S
Tb11 O55 2.414 1_655 S
Tb11 C75 2.832 . S
N12 C4 1.360 . S
N12 Tb11 2.663 1_455 S
N12 C13 1.305 . S
C13 N12 1.305 . S
C13 C15 1.407 . S
C13 H20 0.930 . S
C14 C2 1.410 . S
C14 C15 1.345 . S
C14 H22 0.930 . S
C15 C13 1.407 . S
C15 C14 1.345 . S
C15 H17 0.930 . S
H16 C9 0.930 . S
H17 C15 0.930 . S
H18 C6 0.930 . S
H19 C7 0.931 . S
H20 C13 0.930 . S
H21 C35 0.930 . S
H22 C14 0.930 . S
H23 C41 0.930 . S
H24 C32 0.930 . S
H25 C39 0.931 . S
H26 C3 0.929 . S
H27 C33 0.930 . S
H28 C66 0.930 . S
H29 C10 0.929 . S
H30 C65 0.929 . S
N31 Tb0 2.654 1_655 S
N31 C32 1.305 . S
N31 C36 1.360 . S
C32 H24 0.930 . S
C32 N31 1.305 . S
C32 C35 1.407 . S
C33 H27 0.930 . S
C33 C34 1.410 . S
C33 C35 1.345 . S
C34 C33 1.410 . S
C34 C36 1.417 . S
C34 C66 1.432 . S
C35 H21 0.930 . S
C35 C32 1.407 . S
C35 C33 1.345 . S
C36 N31 1.360 . S
C36 C34 1.417 . S
C36 C40 1.432 . S
H37 C42 0.929 . S
N38 Tb0 2.600 1_655 S
N38 C40 1.359 . S
N38 C41 1.327 1_655 S
C39 H25 0.931 . S
C39 C41 1.392 . S
C39 C42 1.341 1_455 S
C40 C36 1.432 . S
C40 N38 1.359 . S
C40 C43 1.414 . S
C41 H23 0.930 . S
C41 N38 1.327 1_455 S
C41 C39 1.392 . S
C42 H37 0.929 . S
C42 C39 1.341 1_655 S
C42 C43 1.414 . S
C43 C40 1.414 . S
C43 C42 1.414 . S
C43 C65 1.444 . S
O44 Tb0 2.549 . S
O44 C64 1.251 . S
O45 Tb0 2.612 1_545 S
O45 Tb11 2.363 1_455 S
O45 C56 1.283 . S
O46 Tb11 2.418 . S
O46 C63 1.262 . S
O47 Tb0 2.315 1_645 S
O47 C63 1.260 . S
O48 Tb0 2.556 1_545 S
O48 C56 1.243 . S
O49 Tb0 2.412 1_655 S
O49 C64 1.256 1_655 S
O50 Tb11 2.544 . S
O50 C75 1.251 . S
O51 Tb0 2.359 1_655 S
O51 Tb11 2.609 1_565 S
O51 C67 1.283 . S
O52 Tb0 2.426 . S
O52 C74 1.262 . S
O53 Tb11 2.322 1_465 S
O53 C74 1.260 . S
O54 Tb11 2.550 1_565 S
O54 C67 1.243 . S
O55 Tb11 2.414 1_455 S
O55 C75 1.256 1_455 S
C56 O45 1.283 . S
C56 O48 1.243 . S
C57 C59 1.382 . S
C57 C61 1.393 . S
C57 C64 1.500 . S
C58 C59 1.400 . S
C58 C60 1.384 . S
C59 C57 1.382 . S
C59 C58 1.400 . S
C59 H76 0.930 1_465 S
C60 C58 1.384 . S
C60 C62 1.392 . S
C60 H77 0.931 . S
C61 C57 1.393 . S
C61 C62 1.401 . S
C61 H78 0.930 . S
C62 C60 1.392 . S
C62 C61 1.401 . S
C62 H79 0.930 . S
C63 O46 1.262 . S
C63 O47 1.260 . S
C64 Tb0 2.834 . S
C64 O44 1.251 . S
C64 O49 1.256 1_455 S
C64 C57 1.500 . S
C65 H30 0.929 . S
C65 C43 1.444 . S
C65 C66 1.317 . S
C66 H28 0.930 . S
C66 C34 1.432 . S
C66 C65 1.317 . S
C67 O51 1.283 . S
C67 O54 1.243 . S
C68 C69 1.382 . S
C68 C72 1.393 . S
C68 C75 1.500 . S
C69 C68 1.382 . S
C69 C70 1.400 . S
C69 H80 0.930 1_645 S
C70 C69 1.400 . S
C70 C71 1.384 . S
C71 C70 1.384 . S
C71 C73 1.392 . S
C71 H81 0.931 . S
C72 C68 1.393 . S
C72 C73 1.401 . S
C72 H82 0.930 . S
C73 C71 1.392 . S
C73 C72 1.401 . S
C73 H83 0.930 . S
C74 O52 1.262 . S
C74 O53 1.260 . S
C75 Tb11 2.832 . S
C75 O50 1.251 . S
C75 O55 1.256 1_655 S
C75 C68 1.500 . S
H76 C59 0.930 1_645 S
H77 C60 0.931 . S
H78 C61 0.930 . S
H79 C62 0.930 . S
H80 C69 0.930 1_465 S
H81 C71 0.931 . S
H82 C72 0.930 . S
H83 C73 0.930 . S
Tb84 N115 2.660 . S
Tb84 N122 2.600 . S
Tb84 O128 2.546 . S
Tb84 O129 2.610 . S
Tb84 O131 2.320 . S
Tb84 O132 2.552 . S
Tb84 O133 2.413 . S
Tb84 O135 2.362 . S
Tb84 O136 2.421 . S
Tb84 C148 2.833 . S
C85 C88 1.432 . S
C85 C89 1.414 . S
C85 N92 1.359 . S
C86 C88 1.417 . S
C86 C90 1.432 . S
C86 C98 1.410 . S
C87 C89 1.444 . S
C87 C90 1.317 . S
C87 H110 0.929 . S
C88 C85 1.432 . S
C88 C86 1.417 . S
C88 N96 1.360 . S
C89 C85 1.414 . S
C89 C87 1.444 . S
C89 C94 1.385 . S
C90 C86 1.432 . S
C90 C87 1.317 . S
C90 H102 0.930 . S
C91 C93 1.392 . S
C91 C94 1.370 . S
C91 H103 0.931 . S
N92 C85 1.359 . S
N92 C93 1.327 . S
N92 Tb95 2.600 . S
C93 C91 1.392 . S
C93 N92 1.327 . S
C93 H100 0.930 . S
C94 C89 1.385 . S
C94 C91 1.370 . S
C94 H113 0.930 . S
Tb95 N92 2.600 . S
Tb95 N96 2.660 . S
Tb95 O129 2.362 . S
Tb95 O130 2.421 . S
Tb95 O134 2.546 . S
Tb95 O135 2.610 . S
Tb95 O137 2.320 . S
Tb95 O138 2.552 . S
Tb95 O139 2.413 . S
Tb95 C159 2.833 . S
N96 C88 1.360 . S
N96 Tb95 2.660 . S
N96 C97 1.305 . S
C97 N96 1.305 . S
C97 C99 1.407 . S
C97 H104 0.930 . S
C98 C86 1.410 . S
C98 C99 1.345 . S
C98 H106 0.930 . S
C99 C97 1.407 . S
C99 C98 1.345 . S
C99 H101 0.930 . S
H100 C93 0.930 . S
H101 C99 0.930 . S
H102 C90 0.930 . S
H103 C91 0.931 . S
H104 C97 0.930 . S
H105 C119 0.930 . S
H106 C98 0.930 . S
H107 C125 0.930 . S
H108 C116 0.930 . S
H109 C123 0.931 . S
H110 C87 0.929 . S
H111 C117 0.930 . S
H112 C150 0.930 . S
H113 C94 0.930 . S
H114 C149 0.929 . S
N115 Tb84 2.660 . S
N115 C116 1.305 . S
N115 C120 1.360 . S
C116 H108 0.930 . S
C116 N115 1.305 . S
C116 C119 1.407 . S
C117 H111 0.930 . S
C117 C118 1.410 . S
C117 C119 1.345 . S
C118 C117 1.410 . S
C118 C120 1.417 . S
C118 C150 1.432 . S
C119 H105 0.930 . S
C119 C116 1.407 . S
C119 C117 1.345 . S
C120 N115 1.360 . S
C120 C118 1.417 . S
C120 C124 1.432 . S
H121 C126 0.930 . S
N122 Tb84 2.600 . S
N122 C124 1.359 . S
N122 C125 1.327 . S
C123 H109 0.931 . S
C123 C125 1.392 . S
C123 C126 1.370 . S
C124 C120 1.432 . S
C124 N122 1.359 . S
C124 C127 1.414 . S
C125 H107 0.930 . S
C125 N122 1.327 . S
C125 C123 1.392 . S
C126 H121 0.930 . S
C126 C123 1.370 . S
C126 C127 1.385 . S
C127 C124 1.414 . S
C127 C126 1.385 . S
C127 C149 1.444 . S
O128 Tb84 2.546 . S
O128 C148 1.251 . S
O129 Tb84 2.610 . S
O129 Tb95 2.362 . S
O129 C140 1.283 . S
O130 Tb95 2.421 . S
O130 C147 1.262 . S
O131 Tb84 2.320 . S
O131 C147 1.260 . S
O132 Tb84 2.552 . S
O132 C140 1.243 . S
O133 Tb84 2.413 . S
O133 C148 1.256 . S
O134 Tb95 2.546 . S
O134 C159 1.251 . S
O135 Tb84 2.362 . S
O135 Tb95 2.610 . S
O135 C151 1.283 . S
O136 Tb84 2.421 . S
O136 C158 1.262 . S
O137 Tb95 2.320 . S
O137 C158 1.260 . S
O138 Tb95 2.552 . S
O138 C151 1.243 . S
O139 Tb95 2.413 . S
O139 C159 1.256 . S
C140 O129 1.283 . S
C140 O132 1.243 . S
C141 C143 1.382 . S
C141 C145 1.393 . S
C141 C148 1.500 . S
C142 C143 1.400 . S
C142 C144 1.384 . S
C143 C141 1.382 . S
C143 C142 1.400 . S
C143 H160 0.930 . S
C144 C142 1.384 . S
C144 C146 1.392 . S
C144 H161 0.931 . S
C145 C141 1.393 . S
C145 C146 1.401 . S
C145 H162 0.930 . S
C146 C144 1.392 . S
C146 C145 1.401 . S
C146 H163 0.930 . S
C147 O130 1.262 . S
C147 O131 1.260 . S
C148 Tb84 2.833 . S
C148 O128 1.251 . S
C148 O133 1.256 . S
C148 C141 1.500 . S
C149 H114 0.929 . S
C149 C127 1.444 . S
C149 C150 1.317 . S
C150 H112 0.930 . S
C150 C118 1.432 . S
C150 C149 1.317 . S
C151 O135 1.283 . S
C151 O138 1.243 . S
C152 C153 1.382 . S
C152 C156 1.393 . S
C152 C159 1.500 . S
C153 C152 1.382 . S
C153 C154 1.400 1_556 S
C153 H164 0.930 . S
C154 C153 1.400 1_554 S
C154 C155 1.384 . S
C155 C154 1.384 . S
C155 C157 1.392 . S
C155 H165 0.931 . S
C156 C152 1.393 . S
C156 C157 1.401 1_556 S
C156 H166 0.930 . S
C157 C155 1.392 . S
C157 C156 1.401 1_554 S
C157 H167 0.930 . S
C158 O136 1.262 . S
C158 O137 1.260 . S
C159 Tb95 2.833 . S
C159 O134 1.251 . S
C159 O139 1.256 . S
C159 C152 1.500 . S
H160 C143 0.930 . S
H161 C144 0.931 . S
H162 C145 0.930 . S
H163 C146 0.930 . S
H164 C153 0.930 . S
H165 C155 0.931 . S
H166 C156 0.930 . S
H167 C157 0.930 . S
Tb168 N199 2.660 . S
Tb168 N206 2.600 . S
Tb168 O212 2.546 . S
Tb168 O213 2.610 1_565 S
Tb168 O215 2.320 1_565 S
Tb168 O216 2.552 1_565 S
Tb168 O217 2.413 . S
Tb168 O219 2.362 1_554 S
Tb168 O220 2.421 . S
Tb168 C232 2.833 . S
C169 C172 1.432 . S
C169 C173 1.414 . S
C169 N176 1.359 . S
C170 C172 1.417 . S
C170 C174 1.432 . S
C170 C182 1.410 . S
C171 C173 1.444 . S
C171 C174 1.317 . S
C171 H194 0.929 . S
C172 C169 1.432 . S
C172 C170 1.417 . S
C172 N180 1.360 . S
C173 C169 1.414 . S
C173 C171 1.444 . S
C173 C178 1.385 . S
C174 C170 1.432 . S
C174 C171 1.317 . S
C174 H186 0.930 . S
C175 C177 1.392 . S
C175 C178 1.370 . S
C175 H187 0.931 . S
N176 C169 1.359 . S
N176 C177 1.327 . S
N176 Tb179 2.600 . S
C177 C175 1.392 . S
C177 N176 1.327 . S
C177 H184 0.930 . S
C178 C173 1.385 . S
C178 C175 1.370 . S
C178 H197 0.930 . S
Tb179 N176 2.600 . S
Tb179 N180 2.660 . S
Tb179 O213 2.362 1_556 S
Tb179 O214 2.421 . S
Tb179 O218 2.546 . S
Tb179 O219 2.610 1_545 S
Tb179 O221 2.320 1_545 S
Tb179 O222 2.552 1_545 S
Tb179 O223 2.413 . S
Tb179 C243 2.833 . S
N180 C172 1.360 . S
N180 Tb179 2.660 . S
N180 C181 1.305 . S
C181 N180 1.305 . S
C181 C183 1.407 . S
C181 H188 0.930 . S
C182 C170 1.410 . S
C182 C183 1.345 . S
C182 H190 0.930 . S
C183 C181 1.407 . S
C183 C182 1.345 . S
C183 H185 0.930 . S
H184 C177 0.930 . S
H185 C183 0.930 . S
H186 C174 0.930 . S
H187 C175 0.931 . S
H188 C181 0.930 . S
H189 C203 0.930 . S
H190 C182 0.930 . S
H191 C209 0.930 . S
H192 C200 0.930 . S
H193 C207 0.931 . S
H194 C171 0.929 . S
H195 C201 0.930 . S
H196 C234 0.930 . S
H197 C178 0.930 . S
H198 C233 0.929 . S
N199 Tb168 2.660 . S
N199 C200 1.305 . S
N199 C204 1.360 . S
C200 H192 0.930 . S
C200 N199 1.305 . S
C200 C203 1.407 . S
C201 H195 0.930 . S
C201 C202 1.410 . S
C201 C203 1.345 . S
C202 C201 1.410 . S
C202 C204 1.417 . S
C202 C234 1.432 . S
C203 H189 0.930 . S
C203 C200 1.407 . S
C203 C201 1.345 . S
C204 N199 1.360 . S
C204 C202 1.417 . S
C204 C208 1.432 . S
H205 C210 0.930 . S
N206 Tb168 2.600 . S
N206 C208 1.359 . S
N206 C209 1.327 . S
C207 H193 0.931 . S
C207 C209 1.392 . S
C207 C210 1.370 . S
C208 C204 1.432 . S
C208 N206 1.359 . S
C208 C211 1.414 . S
C209 H191 0.930 . S
C209 N206 1.327 . S
C209 C207 1.392 . S
C210 H205 0.930 . S
C210 C207 1.370 . S
C210 C211 1.385 . S
C211 C208 1.414 . S
C211 C210 1.385 . S
C211 C233 1.444 . S
O212 Tb168 2.546 . S
O212 C232 1.251 . S
O213 Tb168 2.610 1_545 S
O213 Tb179 2.362 1_554 S
O213 C224 1.283 . S
O214 Tb179 2.421 . S
O214 C231 1.262 1_556 S
O215 Tb168 2.320 1_545 S
O215 C231 1.260 . S
O216 Tb168 2.552 1_545 S
O216 C224 1.243 . S
O217 Tb168 2.413 . S
O217 C232 1.256 . S
O218 Tb179 2.546 . S
O218 C243 1.251 . S
O219 Tb168 2.362 1_556 S
O219 Tb179 2.610 1_565 S
O219 C235 1.283 . S
O220 Tb168 2.421 . S
O220 C242 1.262 1_554 S
O221 Tb179 2.320 1_565 S
O221 C242 1.260 . S
O222 Tb179 2.552 1_565 S
O222 C235 1.243 . S
O223 Tb179 2.413 . S
O223 C243 1.256 . S
C224 O213 1.283 . S
C224 O216 1.243 . S
C225 C227 1.382 . S
C225 C229 1.393 . S
C225 C232 1.500 . S
C226 C227 1.400 . S
C226 C228 1.384 . S
C227 C225 1.382 . S
C227 C226 1.400 . S
C227 H244 0.930 1_565 S
C228 C226 1.384 . S
C228 C230 1.392 . S
C228 H245 0.931 . S
C229 C225 1.393 . S
C229 C230 1.401 . S
C229 H246 0.930 . S
C230 C228 1.392 . S
C230 C229 1.401 . S
C230 H247 0.930 . S
C231 O214 1.262 1_554 S
C231 O215 1.260 . S
C232 Tb168 2.833 . S
C232 O212 1.251 . S
C232 O217 1.256 . S
C232 C225 1.500 . S
C233 H198 0.929 . S
C233 C211 1.444 . S
C233 C234 1.317 . S
C234 H196 0.930 . S
C234 C202 1.432 . S
C234 C233 1.317 . S
C235 O219 1.283 . S
C235 O222 1.243 . S
C236 C237 1.382 . S
C236 C240 1.393 . S
C236 C243 1.500 . S
C237 C236 1.382 . S
C237 C238 1.400 . S
C237 H248 0.930 1_545 S
C238 C237 1.400 . S
C238 C239 1.384 . S
C239 C238 1.384 . S
C239 C241 1.392 . S
C239 H249 0.931 . S
C240 C236 1.393 . S
C240 C241 1.401 . S
C240 H250 0.930 . S
C241 C239 1.392 . S
C241 C240 1.401 . S
C241 H251 0.930 . S
C242 O220 1.262 1_556 S
C242 O221 1.260 . S
C243 Tb179 2.833 . S
C243 O218 1.251 . S
C243 O223 1.256 . S
C243 C236 1.500 . S
H244 C227 0.930 1_545 S
H245 C228 0.931 . S
H246 C229 0.930 . S
H247 C230 0.930 . S
H248 C237 0.930 1_565 S
H249 C239 0.931 . S
H250 C240 0.930 . S
H251 C241 0.930 . S
Tb252 N283 2.660 . S
Tb252 N290 2.600 . S
Tb252 O296 2.546 . S
Tb252 O297 2.610 . S
Tb252 O299 2.320 . S
Tb252 O300 2.552 . S
Tb252 O301 2.413 . S
Tb252 O303 2.362 . S
Tb252 O304 2.421 . S
Tb252 C316 2.833 . S
C253 C256 1.432 . S
C253 C257 1.414 . S
C253 N260 1.359 . S
C254 C256 1.417 . S
C254 C258 1.432 . S
C254 C266 1.410 . S
C255 C257 1.444 . S
C255 C258 1.317 . S
C255 H278 0.929 . S
C256 C253 1.432 . S
C256 C254 1.417 . S
C256 N264 1.360 . S
C257 C253 1.414 . S
C257 C255 1.444 . S
C257 C262 1.385 . S
C258 C254 1.432 . S
C258 C255 1.317 . S
C258 H270 0.930 . S
C259 C261 1.392 . S
C259 C262 1.370 . S
C259 H271 0.931 . S
N260 C253 1.359 . S
N260 C261 1.327 . S
N260 Tb263 2.600 . S
C261 C259 1.392 . S
C261 N260 1.327 . S
C261 H268 0.930 . S
C262 C257 1.385 . S
C262 C259 1.370 . S
C262 H281 0.930 . S
Tb263 N260 2.600 . S
Tb263 N264 2.660 . S
Tb263 O297 2.362 . S
Tb263 O298 2.421 . S
Tb263 O302 2.546 . S
Tb263 O303 2.610 . S
Tb263 O305 2.320 . S
Tb263 O306 2.552 . S
Tb263 O307 2.413 . S
Tb263 C327 2.833 . S
N264 C256 1.360 . S
N264 Tb263 2.660 . S
N264 C265 1.305 . S
C265 N264 1.305 . S
C265 C267 1.407 . S
C265 H272 0.930 . S
C266 C254 1.410 . S
C266 C267 1.345 . S
C266 H274 0.930 . S
C267 C265 1.407 . S
C267 C266 1.345 . S
C267 H269 0.930 . S
H268 C261 0.930 . S
H269 C267 0.930 . S
H270 C258 0.930 . S
H271 C259 0.931 . S
H272 C265 0.930 . S
H273 C287 0.930 . S
H274 C266 0.930 . S
H275 C293 0.930 . S
H276 C284 0.930 . S
H277 C291 0.931 . S
H278 C255 0.929 . S
H279 C285 0.930 . S
H280 C318 0.930 . S
H281 C262 0.930 . S
H282 C317 0.929 . S
N283 Tb252 2.660 . S
N283 C284 1.305 . S
N283 C288 1.360 . S
C284 H276 0.930 . S
C284 N283 1.305 . S
C284 C287 1.407 . S
C285 H279 0.930 . S
C285 C286 1.410 . S
C285 C287 1.345 . S
C286 C285 1.410 . S
C286 C288 1.417 . S
C286 C318 1.432 . S
C287 H273 0.930 . S
C287 C284 1.407 . S
C287 C285 1.345 . S
C288 N283 1.360 . S
C288 C286 1.417 . S
C288 C292 1.432 . S
H289 C294 0.930 . S
N290 Tb252 2.600 . S
N290 C292 1.359 . S
N290 C293 1.327 . S
C291 H277 0.931 . S
C291 C293 1.392 . S
C291 C294 1.370 . S
C292 C288 1.432 . S
C292 N290 1.359 . S
C292 C295 1.414 . S
C293 H275 0.930 . S
C293 N290 1.327 . S
C293 C291 1.392 . S
C294 H289 0.930 . S
C294 C291 1.370 . S
C294 C295 1.385 . S
C295 C292 1.414 . S
C295 C294 1.385 . S
C295 C317 1.444 . S
O296 Tb252 2.546 . S
O296 C316 1.251 . S
O297 Tb252 2.610 . S
O297 Tb263 2.362 . S
O297 C308 1.283 . S
O298 Tb263 2.421 . S
O298 C315 1.262 . S
O299 Tb252 2.320 . S
O299 C315 1.260 . S
O300 Tb252 2.552 . S
O300 C308 1.243 . S
O301 Tb252 2.413 . S
O301 C316 1.256 . S
O302 Tb263 2.546 . S
O302 C327 1.251 . S
O303 Tb252 2.362 . S
O303 Tb263 2.610 . S
O303 C319 1.283 . S
O304 Tb252 2.421 . S
O304 C326 1.262 . S
O305 Tb263 2.320 . S
O305 C326 1.260 . S
O306 Tb263 2.552 . S
O306 C319 1.243 . S
O307 Tb263 2.413 . S
O307 C327 1.256 . S
C308 O297 1.283 . S
C308 O300 1.243 . S
C309 C311 1.382 . S
C309 C313 1.393 . S
C309 C316 1.500 . S
C310 C311 1.400 . S
C310 C312 1.384 . S
C311 C309 1.382 . S
C311 C310 1.400 . S
C311 H328 0.930 . S
C312 C310 1.384 . S
C312 C314 1.392 . S
C312 H329 0.931 . S
C313 C309 1.393 . S
C313 C314 1.401 . S
C313 H330 0.930 . S
C314 C312 1.392 . S
C314 C313 1.401 . S
C314 H331 0.930 . S
C315 O298 1.262 . S
C315 O299 1.260 . S
C316 Tb252 2.833 . S
C316 O296 1.251 . S
C316 O301 1.256 . S
C316 C309 1.500 . S
C317 H282 0.929 . S
C317 C295 1.444 . S
C317 C318 1.317 . S
C318 H280 0.930 . S
C318 C286 1.432 . S
C318 C317 1.317 . S
C319 O303 1.283 . S
C319 O306 1.243 . S
C320 C321 1.382 . S
C320 C324 1.393 . S
C320 C327 1.500 . S
C321 C320 1.382 . S
C321 C322 1.400 1_554 S
C321 H332 0.930 . S
C322 C321 1.400 1_556 S
C322 C323 1.384 . S
C323 C322 1.384 . S
C323 C325 1.392 . S
C323 H333 0.931 . S
C324 C320 1.393 . S
C324 C325 1.401 1_554 S
C324 H334 0.930 . S
C325 C323 1.392 . S
C325 C324 1.401 1_556 S
C325 H335 0.930 . S
C326 O304 1.262 . S
C326 O305 1.260 . S
C327 Tb263 2.833 . S
C327 O302 1.251 . S
C327 O307 1.256 . S
C327 C320 1.500 . S
H328 C311 0.930 . S
H329 C312 0.931 . S
H330 C313 0.930 . S
H331 C314 0.930 . S
H332 C321 0.930 . S
H333 C323 0.931 . S
H334 C324 0.930 . S
H335 C325 0.930 . S
Tb336 N367 2.660 . S
Tb336 N374 2.600 . S
Tb336 O380 2.546 . S
Tb336 O381 2.610 . S
Tb336 O383 2.320 . S
Tb336 O384 2.552 . S
Tb336 O385 2.413 . S
Tb336 O387 2.362 . S
Tb336 O388 2.421 . S
Tb336 C400 2.833 . S
C337 C340 1.432 . S
C337 C341 1.414 . S
C337 N344 1.359 . S
C338 C340 1.417 . S
C338 C342 1.432 . S
C338 C350 1.410 . S
C339 C341 1.444 . S
C339 C342 1.317 . S
C339 H362 0.929 . S
C340 C337 1.432 . S
C340 C338 1.417 . S
C340 N348 1.360 . S
C341 C337 1.414 . S
C341 C339 1.444 . S
C341 C346 1.385 . S
C342 C338 1.432 . S
C342 C339 1.317 . S
C342 H354 0.930 . S
C343 C345 1.392 . S
C343 C346 1.370 . S
C343 H355 0.931 . S
N344 C337 1.359 . S
N344 C345 1.327 . S
N344 Tb347 2.600 . S
C345 C343 1.392 . S
C345 N344 1.327 . S
C345 H352 0.930 . S
C346 C341 1.385 . S
C346 C343 1.370 . S
C346 H365 0.930 . S
Tb347 N344 2.600 . S
Tb347 N348 2.660 . S
Tb347 O381 2.362 . S
Tb347 O382 2.421 . S
Tb347 O386 2.546 . S
Tb347 O387 2.610 . S
Tb347 O389 2.320 . S
Tb347 O390 2.552 . S
Tb347 O391 2.413 . S
Tb347 C411 2.833 . S
N348 C340 1.360 . S
N348 Tb347 2.660 . S
N348 C349 1.305 . S
C349 N348 1.305 . S
C349 C351 1.407 . S
C349 H356 0.930 . S
C350 C338 1.410 . S
C350 C351 1.345 . S
C350 H358 0.930 . S
C351 C349 1.407 . S
C351 C350 1.345 . S
C351 H353 0.930 . S
H352 C345 0.930 . S
H353 C351 0.930 . S
H354 C342 0.930 . S
H355 C343 0.931 . S
H356 C349 0.930 . S
H357 C371 0.930 . S
H358 C350 0.930 . S
H359 C377 0.930 . S
H360 C368 0.930 . S
H361 C375 0.931 . S
H362 C339 0.929 . S
H363 C369 0.930 . S
H364 C402 0.930 . S
H365 C346 0.930 . S
H366 C401 0.929 . S
N367 Tb336 2.660 . S
N367 C368 1.305 . S
N367 C372 1.360 . S
C368 H360 0.930 . S
C368 N367 1.305 . S
C368 C371 1.407 . S
C369 H363 0.930 . S
C369 C370 1.410 . S
C369 C371 1.345 . S
C370 C369 1.410 . S
C370 C372 1.417 . S
C370 C402 1.432 . S
C371 H357 0.930 . S
C371 C368 1.407 . S
C371 C369 1.345 . S
C372 N367 1.360 . S
C372 C370 1.417 . S
C372 C376 1.432 . S
H373 C378 0.930 . S
N374 Tb336 2.600 . S
N374 C376 1.359 . S
N374 C377 1.327 . S
C375 H361 0.931 . S
C375 C377 1.392 . S
C375 C378 1.370 . S
C376 C372 1.432 . S
C376 N374 1.359 . S
C376 C379 1.414 . S
C377 H359 0.930 . S
C377 N374 1.327 . S
C377 C375 1.392 . S
C378 H373 0.930 . S
C378 C375 1.370 . S
C378 C379 1.385 . S
C379 C376 1.414 . S
C379 C378 1.385 . S
C379 C401 1.444 . S
O380 Tb336 2.546 . S
O380 C400 1.251 . S
O381 Tb336 2.610 . S
O381 Tb347 2.362 . S
O381 C392 1.283 . S
O382 Tb347 2.421 . S
O382 C399 1.262 . S
O383 Tb336 2.320 . S
O383 C399 1.260 . S
O384 Tb336 2.552 . S
O384 C392 1.243 . S
O385 Tb336 2.413 . S
O385 C400 1.256 . S
O386 Tb347 2.546 . S
O386 C411 1.251 . S
O387 Tb336 2.362 . S
O387 Tb347 2.610 . S
O387 C403 1.283 . S
O388 Tb336 2.421 . S
O388 C410 1.262 . S
O389 Tb347 2.320 . S
O389 C410 1.260 . S
O390 Tb347 2.552 . S
O390 C403 1.243 . S
O391 Tb347 2.413 . S
O391 C411 1.256 . S
C392 O381 1.283 . S
C392 O384 1.243 . S
C393 C395 1.382 . S
C393 C397 1.393 . S
C393 C400 1.500 . S
C394 C395 1.400 1_556 S
C394 C396 1.384 . S
C395 C393 1.382 . S
C395 C394 1.400 1_554 S
C395 H412 0.930 . S
C396 C394 1.384 . S
C396 C398 1.392 . S
C396 H413 0.931 . S
C397 C393 1.393 . S
C397 C398 1.401 1_554 S
C397 H414 0.930 . S
C398 C396 1.392 . S
C398 C397 1.401 1_556 S
C398 H415 0.930 . S
C399 O382 1.262 . S
C399 O383 1.260 . S
C400 Tb336 2.833 . S
C400 O380 1.251 . S
C400 O385 1.256 . S
C400 C393 1.500 . S
C401 H366 0.929 . S
C401 C379 1.444 . S
C401 C402 1.317 . S
C402 H364 0.930 . S
C402 C370 1.432 . S
C402 C401 1.317 . S
C403 O387 1.283 . S
C403 O390 1.243 . S
C404 C405 1.382 . S
C404 C408 1.393 . S
C404 C411 1.500 . S
C405 C404 1.382 . S
C405 C406 1.400 . S
C405 H416 0.930 . S
C406 C405 1.400 . S
C406 C407 1.384 . S
C407 C406 1.384 . S
C407 C409 1.392 . S
C407 H417 0.931 . S
C408 C404 1.393 . S
C408 C409 1.401 . S
C408 H418 0.930 . S
C409 C407 1.392 . S
C409 C408 1.401 . S
C409 H419 0.930 . S
C410 O388 1.262 . S
C410 O389 1.260 . S
C411 Tb347 2.833 . S
C411 O386 1.251 . S
C411 O391 1.256 . S
C411 C404 1.500 . S
H412 C395 0.930 . S
H413 C396 0.931 . S
H414 C397 0.930 . S
H415 C398 0.930 . S
H416 C405 0.930 . S
H417 C407 0.931 . S
H418 C408 0.930 . S
H419 C409 0.930 . S
Tb420 N451 2.660 . S
Tb420 N458 2.600 . S
Tb420 O464 2.546 . S
Tb420 O465 2.610 . S
Tb420 O467 2.320 . S
Tb420 O468 2.552 . S
Tb420 O469 2.413 . S
Tb420 O471 2.362 . S
Tb420 O472 2.421 . S
Tb420 C484 2.833 . S
C421 C424 1.432 . S
C421 C425 1.414 . S
C421 N428 1.359 . S
C422 C424 1.417 . S
C422 C426 1.432 . S
C422 C434 1.410 . S
C423 C425 1.444 . S
C423 C426 1.317 . S
C423 H446 0.929 . S
C424 C421 1.432 . S
C424 C422 1.417 . S
C424 N432 1.360 . S
C425 C421 1.414 . S
C425 C423 1.444 . S
C425 C430 1.385 . S
C426 C422 1.432 . S
C426 C423 1.317 . S
C426 H438 0.930 . S
C427 C429 1.392 . S
C427 C430 1.370 . S
C427 H439 0.931 . S
N428 C421 1.359 . S
N428 C429 1.327 . S
N428 Tb431 2.600 . S
C429 C427 1.392 . S
C429 N428 1.327 . S
C429 H436 0.930 . S
C430 C425 1.385 . S
C430 C427 1.370 . S
C430 H449 0.930 . S
Tb431 N428 2.600 . S
Tb431 N432 2.660 . S
Tb431 O465 2.362 . S
Tb431 O466 2.421 . S
Tb431 O470 2.546 . S
Tb431 O471 2.610 . S
Tb431 O473 2.320 . S
Tb431 O474 2.552 . S
Tb431 O475 2.413 . S
Tb431 C495 2.833 . S
N432 C424 1.360 . S
N432 Tb431 2.660 . S
N432 C433 1.305 . S
C433 N432 1.305 . S
C433 C435 1.407 . S
C433 H440 0.930 . S
C434 C422 1.410 . S
C434 C435 1.345 . S
C434 H442 0.930 . S
C435 C433 1.407 . S
C435 C434 1.345 . S
C435 H437 0.930 . S
H436 C429 0.930 . S
H437 C435 0.930 . S
H438 C426 0.930 . S
H439 C427 0.931 . S
H440 C433 0.930 . S
H441 C455 0.930 . S
H442 C434 0.930 . S
H443 C461 0.930 . S
H444 C452 0.930 . S
H445 C459 0.931 . S
H446 C423 0.929 . S
H447 C453 0.930 . S
H448 C486 0.930 . S
H449 C430 0.930 . S
H450 C485 0.929 . S
N451 Tb420 2.660 . S
N451 C452 1.305 . S
N451 C456 1.360 . S
C452 H444 0.930 . S
C452 N451 1.305 . S
C452 C455 1.407 . S
C453 H447 0.930 . S
C453 C454 1.410 . S
C453 C455 1.345 . S
C454 C453 1.410 . S
C454 C456 1.417 . S
C454 C486 1.432 . S
C455 H441 0.930 . S
C455 C452 1.407 . S
C455 C453 1.345 . S
C456 N451 1.360 . S
C456 C454 1.417 . S
C456 C460 1.432 . S
H457 C462 0.930 . S
N458 Tb420 2.600 . S
N458 C460 1.359 . S
N458 C461 1.327 . S
C459 H445 0.931 . S
C459 C461 1.392 . S
C459 C462 1.370 . S
C460 C456 1.432 . S
C460 N458 1.359 . S
C460 C463 1.414 . S
C461 H443 0.930 . S
C461 N458 1.327 . S
C461 C459 1.392 . S
C462 H457 0.930 . S
C462 C459 1.370 . S
C462 C463 1.385 . S
C463 C460 1.414 . S
C463 C462 1.385 . S
C463 C485 1.444 . S
O464 Tb420 2.546 . S
O464 C484 1.251 . S
O465 Tb420 2.610 . S
O465 Tb431 2.362 . S
O465 C476 1.283 . S
O466 Tb431 2.421 . S
O466 C483 1.262 . S
O467 Tb420 2.320 . S
O467 C483 1.260 . S
O468 Tb420 2.552 . S
O468 C476 1.243 . S
O469 Tb420 2.413 . S
O469 C484 1.256 . S
O470 Tb431 2.546 . S
O470 C495 1.251 . S
O471 Tb420 2.362 . S
O471 Tb431 2.610 . S
O471 C487 1.283 . S
O472 Tb420 2.421 . S
O472 C494 1.262 . S
O473 Tb431 2.320 . S
O473 C494 1.260 . S
O474 Tb431 2.552 . S
O474 C487 1.243 . S
O475 Tb431 2.413 . S
O475 C495 1.256 . S
C476 O465 1.283 . S
C476 O468 1.243 . S
C477 C479 1.382 . S
C477 C481 1.393 . S
C477 C484 1.500 . S
C478 C479 1.400 1_554 S
C478 C480 1.384 . S
C479 C477 1.382 . S
C479 C478 1.400 1_556 S
C479 H496 0.930 . S
C480 C478 1.384 . S
C480 C482 1.392 . S
C480 H497 0.931 . S
C481 C477 1.393 . S
C481 C482 1.401 1_556 S
C481 H498 0.930 . S
C482 C480 1.392 . S
C482 C481 1.401 1_554 S
C482 H499 0.930 . S
C483 O466 1.262 . S
C483 O467 1.260 . S
C484 Tb420 2.833 . S
C484 O464 1.251 . S
C484 O469 1.256 . S
C484 C477 1.500 . S
C485 H450 0.929 . S
C485 C463 1.444 . S
C485 C486 1.317 . S
C486 H448 0.930 . S
C486 C454 1.432 . S
C486 C485 1.317 . S
C487 O471 1.283 . S
C487 O474 1.243 . S
C488 C489 1.382 . S
C488 C492 1.393 . S
C488 C495 1.500 . S
C489 C488 1.382 . S
C489 C490 1.400 . S
C489 H500 0.930 . S
C490 C489 1.400 . S
C490 C491 1.384 . S
C491 C490 1.384 . S
C491 C493 1.392 . S
C491 H501 0.931 . S
C492 C488 1.393 . S
C492 C493 1.401 . S
C492 H502 0.930 . S
C493 C491 1.392 . S
C493 C492 1.401 . S
C493 H503 0.930 . S
C494 O472 1.262 . S
C494 O473 1.260 . S
C495 Tb431 2.833 . S
C495 O470 1.251 . S
C495 O475 1.256 . S
C495 C488 1.500 . S
H496 C479 0.930 . S
H497 C480 0.931 . S
H498 C481 0.930 . S
H499 C482 0.930 . S
H500 C489 0.930 . S
H501 C491 0.931 . S
H502 C492 0.930 . S
H503 C493 0.930 . S
Tb504 N535 2.660 . S
Tb504 N542 2.600 . S
Tb504 O548 2.546 . S
Tb504 O549 2.610 . S
Tb504 O551 2.320 . S
Tb504 O552 2.552 . S
Tb504 O553 2.413 . S
Tb504 O555 2.362 1_556 S
Tb504 O556 2.421 . S
Tb504 C568 2.833 . S
C505 C508 1.432 . S
C505 C509 1.414 . S
C505 N512 1.359 . S
C506 C508 1.417 . S
C506 C510 1.432 . S
C506 C518 1.410 . S
C507 C509 1.444 . S
C507 C510 1.317 . S
C507 H530 0.929 . S
C508 C505 1.432 . S
C508 C506 1.417 . S
C508 N516 1.360 . S
C509 C505 1.414 . S
C509 C507 1.444 . S
C509 C514 1.385 . S
C510 C506 1.432 . S
C510 C507 1.317 . S
C510 H522 0.930 . S
C511 C513 1.392 . S
C511 C514 1.370 . S
C511 H523 0.931 . S
N512 C505 1.359 . S
N512 C513 1.327 . S
N512 Tb515 2.600 . S
C513 C511 1.392 . S
C513 N512 1.327 . S
C513 H520 0.930 . S
C514 C509 1.385 . S
C514 C511 1.370 . S
C514 H533 0.930 . S
Tb515 N512 2.600 . S
Tb515 N516 2.660 . S
Tb515 O549 2.362 1_554 S
Tb515 O550 2.421 . S
Tb515 O554 2.546 . S
Tb515 O555 2.610 . S
Tb515 O557 2.320 . S
Tb515 O558 2.552 . S
Tb515 O559 2.413 . S
Tb515 C579 2.833 . S
N516 C508 1.360 . S
N516 Tb515 2.660 . S
N516 C517 1.305 . S
C517 N516 1.305 . S
C517 C519 1.407 . S
C517 H524 0.930 . S
C518 C506 1.410 . S
C518 C519 1.345 . S
C518 H526 0.930 . S
C519 C517 1.407 . S
C519 C518 1.345 . S
C519 H521 0.930 . S
H520 C513 0.930 . S
H521 C519 0.930 . S
H522 C510 0.930 . S
H523 C511 0.931 . S
H524 C517 0.930 . S
H525 C539 0.930 . S
H526 C518 0.930 . S
H527 C545 0.930 . S
H528 C536 0.930 . S
H529 C543 0.931 . S
H530 C507 0.929 . S
H531 C537 0.930 . S
H532 C570 0.930 . S
H533 C514 0.930 . S
H534 C569 0.929 . S
N535 Tb504 2.660 . S
N535 C536 1.305 . S
N535 C540 1.360 . S
C536 H528 0.930 . S
C536 N535 1.305 . S
C536 C539 1.407 . S
C537 H531 0.930 . S
C537 C538 1.410 . S
C537 C539 1.345 . S
C538 C537 1.410 . S
C538 C540 1.417 . S
C538 C570 1.432 . S
C539 H525 0.930 . S
C539 C536 1.407 . S
C539 C537 1.345 . S
C540 N535 1.360 . S
C540 C538 1.417 . S
C540 C544 1.432 . S
H541 C546 0.930 . S
N542 Tb504 2.600 . S
N542 C544 1.359 . S
N542 C545 1.327 . S
C543 H529 0.931 . S
C543 C545 1.392 . S
C543 C546 1.370 . S
C544 C540 1.432 . S
C544 N542 1.359 . S
C544 C547 1.414 . S
C545 H527 0.930 . S
C545 N542 1.327 . S
C545 C543 1.392 . S
C546 H541 0.930 . S
C546 C543 1.370 . S
C546 C547 1.385 . S
C547 C544 1.414 . S
C547 C546 1.385 . S
C547 C569 1.444 . S
O548 Tb504 2.546 . S
O548 C568 1.251 . S
O549 Tb504 2.610 . S
O549 Tb515 2.362 1_556 S
O549 C560 1.283 . S
O550 Tb515 2.421 . S
O550 C567 1.262 1_554 S
O551 Tb504 2.320 . S
O551 C567 1.260 . S
O552 Tb504 2.552 . S
O552 C560 1.243 . S
O553 Tb504 2.413 . S
O553 C568 1.256 . S
O554 Tb515 2.546 . S
O554 C579 1.251 . S
O555 Tb504 2.362 1_554 S
O555 Tb515 2.610 . S
O555 C571 1.283 . S
O556 Tb504 2.421 . S
O556 C578 1.262 1_556 S
O557 Tb515 2.320 . S
O557 C578 1.260 . S
O558 Tb515 2.552 . S
O558 C571 1.243 . S
O559 Tb515 2.413 . S
O559 C579 1.256 . S
C560 O549 1.283 . S
C560 O552 1.243 . S
C561 C563 1.382 . S
C561 C565 1.393 . S
C561 C568 1.500 . S
C562 C563 1.400 . S
C562 C564 1.384 . S
C563 C561 1.382 . S
C563 C562 1.400 . S
C563 H580 0.930 . S
C564 C562 1.384 . S
C564 C566 1.392 . S
C564 H581 0.931 . S
C565 C561 1.393 . S
C565 C566 1.401 . S
C565 H582 0.930 . S
C566 C564 1.392 . S
C566 C565 1.401 . S
C566 H583 0.930 . S
C567 O550 1.262 1_556 S
C567 O551 1.260 . S
C568 Tb504 2.833 . S
C568 O548 1.251 . S
C568 O553 1.256 . S
C568 C561 1.500 . S
C569 H534 0.929 . S
C569 C547 1.444 . S
C569 C570 1.317 . S
C570 H532 0.930 . S
C570 C538 1.432 . S
C570 C569 1.317 . S
C571 O555 1.283 . S
C571 O558 1.243 . S
C572 C573 1.382 . S
C572 C576 1.393 . S
C572 C579 1.500 . S
C573 C572 1.382 . S
C573 C574 1.400 . S
C573 H584 0.930 . S
C574 C573 1.400 . S
C574 C575 1.384 . S
C575 C574 1.384 . S
C575 C577 1.392 . S
C575 H585 0.931 . S
C576 C572 1.393 . S
C576 C577 1.401 . S
C576 H586 0.930 . S
C577 C575 1.392 . S
C577 C576 1.401 . S
C577 H587 0.930 . S
C578 O556 1.262 1_554 S
C578 O557 1.260 . S
C579 Tb515 2.833 . S
C579 O554 1.251 . S
C579 O559 1.256 . S
C579 C572 1.500 . S
H580 C563 0.930 . S
H581 C564 0.931 . S
H582 C565 0.930 . S
H583 C566 0.930 . S
H584 C573 0.930 . S
H585 C575 0.931 . S
H586 C576 0.930 . S
H587 C577 0.930 . S
Tb588 N619 2.663 1_655 S
Tb588 N626 2.600 1_655 S
Tb588 O632 2.544 . S
Tb588 O633 2.609 . S
Tb588 O635 2.322 1_655 S
Tb588 O636 2.550 . S
Tb588 O637 2.414 1_655 S
Tb588 O639 2.363 1_655 S
Tb588 O640 2.418 . S
Tb588 C652 2.832 . S
C589 C592 1.432 . S
C589 C593 1.414 . S
C589 N596 1.359 . S
C590 C592 1.417 . S
C590 C594 1.432 . S
C590 C602 1.410 . S
C591 C593 1.444 . S
C591 C594 1.317 . S
C591 H614 0.929 . S
C592 C589 1.432 . S
C592 C590 1.417 . S
C592 N600 1.360 . S
C593 C589 1.414 . S
C593 C591 1.444 . S
C593 C598 1.415 . S
C594 C590 1.432 . S
C594 C591 1.317 . S
C594 H606 0.930 . S
C595 C597 1.392 . S
C595 C598 1.341 1_455 S
C595 H607 0.931 . S
N596 C589 1.359 . S
N596 C597 1.327 1_655 S
N596 Tb599 2.600 1_655 S
C597 C595 1.392 . S
C597 N596 1.327 1_455 S
C597 H604 0.930 . S
C598 C593 1.415 . S
C598 C595 1.341 1_655 S
C598 H617 0.929 . S
Tb599 N596 2.600 1_455 S
Tb599 N600 2.654 1_455 S
Tb599 O633 2.359 1_455 S
Tb599 O634 2.426 . S
Tb599 O638 2.549 . S
Tb599 O639 2.612 . S
Tb599 O641 2.315 1_455 S
Tb599 O642 2.556 . S
Tb599 O643 2.412 1_455 S
Tb599 C663 2.834 . S
N600 C592 1.360 . S
N600 Tb599 2.654 1_655 S
N600 C601 1.305 . S
C601 N600 1.305 . S
C601 C603 1.407 . S
C601 H608 0.930 . S
C602 C590 1.410 . S
C602 C603 1.345 . S
C602 H610 0.930 . S
C603 C601 1.407 . S
C603 C602 1.345 . S
C603 H605 0.930 . S
H604 C597 0.930 . S
H605 C603 0.930 . S
H606 C594 0.930 . S
H607 C595 0.931 . S
H608 C601 0.930 . S
H609 C623 0.930 . S
H610 C602 0.930 . S
H611 C629 0.930 . S
H612 C620 0.930 . S
H613 C627 0.931 . S
H614 C591 0.929 . S
H615 C621 0.930 . S
H616 C654 0.930 . S
H617 C598 0.929 . S
H618 C653 0.929 . S
N619 Tb588 2.663 1_455 S
N619 C620 1.305 . S
N619 C624 1.360 . S
C620 H612 0.930 . S
C620 N619 1.305 . S
C620 C623 1.407 . S
C621 H615 0.930 . S
C621 C622 1.410 . S
C621 C623 1.345 . S
C622 C621 1.410 . S
C622 C624 1.417 . S
C622 C654 1.432 . S
C623 H609 0.930 . S
C623 C620 1.407 . S
C623 C621 1.345 . S
C624 N619 1.360 . S
C624 C622 1.417 . S
C624 C628 1.432 . S
H625 C630 0.929 . S
N626 Tb588 2.600 1_455 S
N626 C628 1.359 . S
N626 C629 1.327 1_455 S
C627 H613 0.931 . S
C627 C629 1.392 . S
C627 C630 1.332 1_655 S
C628 C624 1.432 . S
C628 N626 1.359 . S
C628 C631 1.414 . S
C629 H611 0.930 . S
C629 N626 1.327 1_655 S
C629 C627 1.392 . S
C630 H625 0.929 . S
C630 C627 1.332 1_455 S
C630 C631 1.423 . S
C631 C628 1.414 . S
C631 C630 1.423 . S
C631 C653 1.444 . S
O632 Tb588 2.544 . S
O632 C652 1.251 . S
O633 Tb588 2.609 . S
O633 Tb599 2.359 1_655 S
O633 C644 1.283 . S
O634 Tb599 2.426 . S
O634 C651 1.262 . S
O635 Tb588 2.322 1_455 S
O635 C651 1.260 . S
O636 Tb588 2.550 . S
O636 C644 1.243 . S
O637 Tb588 2.414 1_455 S
O637 C652 1.256 1_455 S
O638 Tb599 2.549 . S
O638 C663 1.251 . S
O639 Tb588 2.363 1_455 S
O639 Tb599 2.612 . S
O639 C655 1.283 . S
O640 Tb588 2.418 . S
O640 C662 1.262 . S
O641 Tb599 2.315 1_655 S
O641 C662 1.260 . S
O642 Tb599 2.556 . S
O642 C655 1.243 . S
O643 Tb599 2.412 1_655 S
O643 C663 1.256 1_655 S
C644 O633 1.283 . S
C644 O636 1.243 . S
C645 C647 1.382 . S
C645 C649 1.393 . S
C645 C652 1.500 . S
C646 C647 1.400 . S
C646 C648 1.384 . S
C647 C645 1.382 . S
C647 C646 1.400 . S
C647 H664 0.930 1_655 S
C648 C646 1.384 . S
C648 C650 1.392 . S
C648 H665 0.931 . S
C649 C645 1.393 . S
C649 C650 1.401 . S
C649 H666 0.930 . S
C650 C648 1.392 . S
C650 C649 1.401 . S
C650 H667 0.930 . S
C651 O634 1.262 . S
C651 O635 1.260 . S
C652 Tb588 2.832 . S
C652 O632 1.251 . S
C652 O637 1.256 1_655 S
C652 C645 1.500 . S
C653 H618 0.929 . S
C653 C631 1.444 . S
C653 C654 1.317 . S
C654 H616 0.930 . S
C654 C622 1.432 . S
C654 C653 1.317 . S
C655 O639 1.283 . S
C655 O642 1.243 . S
C656 C657 1.382 . S
C656 C660 1.393 . S
C656 C663 1.500 . S
C657 C656 1.382 . S
C657 C658 1.400 . S
C657 H668 0.930 1_455 S
C658 C657 1.400 . S
C658 C659 1.384 . S
C659 C658 1.384 . S
C659 C661 1.392 . S
C659 H669 0.931 . S
C660 C656 1.393 . S
C660 C661 1.401 . S
C660 H670 0.930 . S
C661 C659 1.392 . S
C661 C660 1.401 . S
C661 H671 0.930 . S
C662 O640 1.262 . S
C662 O641 1.260 . S
C663 Tb599 2.834 . S
C663 O638 1.251 . S
C663 O643 1.256 1_455 S
C663 C656 1.500 . S
H664 C647 0.930 1_455 S
H665 C648 0.931 . S
H666 C649 0.930 . S
H667 C650 0.930 . S
H668 C657 0.930 1_655 S
H669 C659 0.931 . S
H670 C660 0.930 . S
H671 C661 0.930 . S
C672 C673 1.349 . S
C672 C674 1.327 . S
C672 H697 0.950 . S
C673 C672 1.349 . S
C673 C689 1.349 . S
C674 C672 1.327 . S
C674 C693 1.429 . S
C674 H698 0.950 . S
C675 C692 1.574 . S
C675 C694 1.368 . S
C675 H699 0.949 . S
H676 C680 0.949 . S
C677 C678 1.349 . S
C677 C679 1.327 . S
C677 H700 0.950 . S
C678 C677 1.349 . S
C678 C690 1.349 . S
C679 C677 1.327 . S
C679 C695 1.429 . S
C679 H701 0.950 . S
C680 H676 0.949 . S
C680 C688 1.574 . S
C680 C696 1.368 . S
H681 C689 0.950 . S
H682 C687 0.950 . S
H683 C688 0.949 . S
H684 C690 0.950 . S
H685 C691 0.950 . S
H686 C692 0.949 . S
C687 H682 0.950 . S
C687 C689 1.327 . S
C687 C693 1.429 . S
C688 C680 1.574 . S
C688 H683 0.949 . S
C688 C694 1.368 . S
C689 C673 1.349 . S
C689 H681 0.950 . S
C689 C687 1.327 . S
C690 C678 1.349 . S
C690 H684 0.950 . S
C690 C691 1.327 . S
C691 H685 0.950 . S
C691 C690 1.327 . S
C691 C695 1.429 . S
C692 C675 1.574 . S
C692 H686 0.949 . S
C692 C696 1.368 . S
C693 C674 1.429 . S
C693 C687 1.429 . S
C693 C694 1.523 . S
C694 C675 1.368 . S
C694 C688 1.368 . S
C694 C693 1.523 . S
C695 C679 1.429 . S
C695 C691 1.429 . S
C695 C696 1.523 . S
C696 C680 1.368 . S
C696 C692 1.368 . S
C696 C695 1.523 . S
H697 C672 0.950 . S
H698 C674 0.950 . S
H699 C675 0.949 . S
H700 C677 0.950 . S
H701 C679 0.950 . S
C702 C703 1.349 . S
C702 C704 1.327 . S
C702 H727 0.950 . S
C703 C702 1.349 . S
C703 C719 1.349 . S
C704 C702 1.327 . S
C704 C723 1.429 . S
C704 H728 0.950 . S
C705 C722 1.574 . S
C705 C724 1.368 . S
C705 H729 0.949 . S
H706 C710 0.949 . S
C707 C708 1.349 . S
C707 C709 1.327 . S
C707 H730 0.950 . S
C708 C707 1.349 . S
C708 C720 1.349 . S
C709 C707 1.327 . S
C709 C725 1.429 . S
C709 H731 0.950 . S
C710 H706 0.949 . S
C710 C718 1.574 . S
C710 C726 1.368 . S
H711 C719 0.950 . S
H712 C717 0.950 . S
H713 C718 0.949 . S
H714 C720 0.950 . S
H715 C721 0.950 . S
H716 C722 0.949 . S
C717 H712 0.950 . S
C717 C719 1.327 . S
C717 C723 1.429 . S
C718 C710 1.574 . S
C718 H713 0.949 . S
C718 C724 1.368 . S
C719 C703 1.349 . S
C719 H711 0.950 . S
C719 C717 1.327 . S
C720 C708 1.349 . S
C720 H714 0.950 . S
C720 C721 1.327 . S
C721 H715 0.950 . S
C721 C720 1.327 . S
C721 C725 1.429 . S
C722 C705 1.574 . S
C722 H716 0.949 . S
C722 C726 1.368 . S
C723 C704 1.429 . S
C723 C717 1.429 . S
C723 C724 1.523 . S
C724 C705 1.368 . S
C724 C718 1.368 . S
C724 C723 1.523 . S
C725 C709 1.429 . S
C725 C721 1.429 . S
C725 C726 1.523 . S
C726 C710 1.368 . S
C726 C722 1.368 . S
C726 C725 1.523 . S
H727 C702 0.950 . S
H728 C704 0.950 . S
H729 C705 0.949 . S
H730 C707 0.950 . S
H731 C709 0.950 . S
C732 C733 1.349 . S
C732 C734 1.327 . S
C732 H757 0.950 . S
C733 C732 1.349 . S
C733 C749 1.349 . S
C734 C732 1.327 . S
C734 C753 1.429 . S
C734 H758 0.950 . S
C735 C752 1.574 . S
C735 C754 1.368 . S
C735 H759 0.949 . S
H736 C740 0.949 . S
C737 C738 1.349 . S
C737 C739 1.327 . S
C737 H760 0.950 . S
C738 C737 1.349 . S
C738 C750 1.349 . S
C739 C737 1.327 . S
C739 C755 1.429 . S
C739 H761 0.950 . S
C740 H736 0.949 . S
C740 C748 1.574 . S
C740 C756 1.368 . S
H741 C749 0.950 . S
H742 C747 0.950 . S
H743 C748 0.949 . S
H744 C750 0.950 . S
H745 C751 0.950 . S
H746 C752 0.949 . S
C747 H742 0.950 . S
C747 C749 1.327 . S
C747 C753 1.429 . S
C748 C740 1.574 . S
C748 H743 0.949 . S
C748 C754 1.368 . S
C749 C733 1.349 . S
C749 H741 0.950 . S
C749 C747 1.327 . S
C750 C738 1.349 . S
C750 H744 0.950 . S
C750 C751 1.327 . S
C751 H745 0.950 . S
C751 C750 1.327 . S
C751 C755 1.429 . S
C752 C735 1.574 . S
C752 H746 0.949 . S
C752 C756 1.368 . S
C753 C734 1.429 . S
C753 C747 1.429 . S
C753 C754 1.523 . S
C754 C735 1.368 . S
C754 C748 1.368 . S
C754 C753 1.523 . S
C755 C739 1.429 . S
C755 C751 1.429 . S
C755 C756 1.523 . S
C756 C740 1.368 . S
C756 C752 1.368 . S
C756 C755 1.523 . S
H757 C732 0.950 . S
H758 C734 0.950 . S
H759 C735 0.949 . S
H760 C737 0.950 . S
H761 C739 0.950 . S
C762 C763 1.349 . S
C762 C764 1.327 . S
C762 H787 0.950 . S
C763 C762 1.349 . S
C763 C779 1.349 . S
C764 C762 1.327 . S
C764 C783 1.429 . S
C764 H788 0.950 . S
C765 C782 1.574 . S
C765 C784 1.368 . S
C765 H789 0.949 . S
H766 C770 0.949 . S
C767 C768 1.349 . S
C767 C769 1.327 . S
C767 H790 0.950 . S
C768 C767 1.349 . S
C768 C780 1.349 . S
C769 C767 1.327 . S
C769 C785 1.429 . S
C769 H791 0.950 . S
C770 H766 0.949 . S
C770 C778 1.574 . S
C770 C786 1.368 . S
H771 C779 0.950 . S
H772 C777 0.950 . S
H773 C778 0.949 . S
H774 C780 0.950 . S
H775 C781 0.950 . S
H776 C782 0.949 . S
C777 H772 0.950 . S
C777 C779 1.327 . S
C777 C783 1.429 . S
C778 C770 1.574 . S
C778 H773 0.949 . S
C778 C784 1.368 . S
C779 C763 1.349 . S
C779 H771 0.950 . S
C779 C777 1.327 . S
C780 C768 1.349 . S
C780 H774 0.950 . S
C780 C781 1.327 . S
C781 H775 0.950 . S
C781 C780 1.327 . S
C781 C785 1.429 . S
C782 C765 1.574 . S
C782 H776 0.949 . S
C782 C786 1.368 . S
C783 C764 1.429 . S
C783 C777 1.429 . S
C783 C784 1.523 . S
C784 C765 1.368 . S
C784 C778 1.368 . S
C784 C783 1.523 . S
C785 C769 1.429 . S
C785 C781 1.429 . S
C785 C786 1.523 . S
C786 C770 1.368 . S
C786 C782 1.368 . S
C786 C785 1.523 . S
H787 C762 0.950 . S
H788 C764 0.950 . S
H789 C765 0.949 . S
H790 C767 0.950 . S
H791 C769 0.950 . S
C792 C793 1.349 . S
C792 C794 1.327 . S
C792 H817 0.950 . S
C793 C792 1.349 . S
C793 C809 1.349 . S
C794 C792 1.327 . S
C794 C813 1.429 . S
C794 H818 0.950 . S
C795 C812 1.574 . S
C795 C814 1.368 . S
C795 H819 0.949 . S
H796 C800 0.949 . S
C797 C798 1.349 . S
C797 C799 1.327 . S
C797 H820 0.950 . S
C798 C797 1.349 . S
C798 C810 1.349 . S
C799 C797 1.327 . S
C799 C815 1.429 . S
C799 H821 0.950 . S
C800 H796 0.949 . S
C800 C808 1.574 . S
C800 C816 1.368 . S
H801 C809 0.950 . S
H802 C807 0.950 . S
H803 C808 0.949 . S
H804 C810 0.950 . S
H805 C811 0.950 . S
H806 C812 0.949 . S
C807 H802 0.950 . S
C807 C809 1.327 . S
C807 C813 1.429 . S
C808 C800 1.574 . S
C808 H803 0.949 . S
C808 C814 1.368 . S
C809 C793 1.349 . S
C809 H801 0.950 . S
C809 C807 1.327 . S
C810 C798 1.349 . S
C810 H804 0.950 . S
C810 C811 1.327 . S
C811 H805 0.950 . S
C811 C810 1.327 . S
C811 C815 1.429 . S
C812 C795 1.574 . S
C812 H806 0.949 . S
C812 C816 1.368 . S
C813 C794 1.429 . S
C813 C807 1.429 . S
C813 C814 1.523 . S
C814 C795 1.368 . S
C814 C808 1.368 . S
C814 C813 1.523 . S
C815 C799 1.429 . S
C815 C811 1.429 . S
C815 C816 1.523 . S
C816 C800 1.368 . S
C816 C812 1.368 . S
C816 C815 1.523 . S
H817 C792 0.950 . S
H818 C794 0.950 . S
H819 C795 0.949 . S
H820 C797 0.950 . S
H821 C799 0.950 . S
C822 C823 1.349 . S
C822 C824 1.327 . S
C822 H847 0.950 . S
C823 C822 1.349 . S
C823 C839 1.349 . S
C824 C822 1.327 . S
C824 C843 1.429 . S
C824 H848 0.950 . S
C825 C842 1.574 . S
C825 C844 1.368 . S
C825 H849 0.949 . S
H826 C830 0.949 . S
C827 C828 1.349 . S
C827 C829 1.327 . S
C827 H850 0.950 . S
C828 C827 1.349 . S
C828 C840 1.349 . S
C829 C827 1.327 . S
C829 C845 1.429 . S
C829 H851 0.950 . S
C830 H826 0.949 . S
C830 C838 1.574 . S
C830 C846 1.368 . S
H831 C839 0.950 . S
H832 C837 0.950 . S
H833 C838 0.949 . S
H834 C840 0.950 . S
H835 C841 0.950 . S
H836 C842 0.949 . S
C837 H832 0.950 . S
C837 C839 1.327 . S
C837 C843 1.429 . S
C838 C830 1.574 . S
C838 H833 0.949 . S
C838 C844 1.368 . S
C839 C823 1.349 . S
C839 H831 0.950 . S
C839 C837 1.327 . S
C840 C828 1.349 . S
C840 H834 0.950 . S
C840 C841 1.327 . S
C841 H835 0.950 . S
C841 C840 1.327 . S
C841 C845 1.429 . S
C842 C825 1.574 . S
C842 H836 0.949 . S
C842 C846 1.368 . S
C843 C824 1.429 . S
C843 C837 1.429 . S
C843 C844 1.523 . S
C844 C825 1.368 . S
C844 C838 1.368 . S
C844 C843 1.523 . S
C845 C829 1.429 . S
C845 C841 1.429 . S
C845 C846 1.523 . S
C846 C830 1.368 . S
C846 C842 1.368 . S
C846 C845 1.523 . S
H847 C822 0.950 . S
H848 C824 0.950 . S
H849 C825 0.949 . S
H850 C827 0.950 . S
H851 C829 0.950 . S
C852 C853 1.349 . S
C852 C854 1.327 . S
C852 H877 0.950 . S
C853 C852 1.349 . S
C853 C869 1.349 . S
C854 C852 1.327 . S
C854 C873 1.429 . S
C854 H878 0.950 . S
C855 C872 1.574 . S
C855 C874 1.368 . S
C855 H879 0.949 . S
H856 C860 0.949 . S
C857 C858 1.349 . S
C857 C859 1.327 . S
C857 H880 0.950 . S
C858 C857 1.349 . S
C858 C870 1.349 . S
C859 C857 1.327 . S
C859 C875 1.429 . S
C859 H881 0.950 . S
C860 H856 0.949 . S
C860 C868 1.574 . S
C860 C876 1.368 . S
H861 C869 0.950 . S
H862 C867 0.950 . S
H863 C868 0.949 . S
H864 C870 0.950 . S
H865 C871 0.950 . S
H866 C872 0.949 . S
C867 H862 0.950 . S
C867 C869 1.327 . S
C867 C873 1.429 . S
C868 C860 1.574 . S
C868 H863 0.949 . S
C868 C874 1.368 . S
C869 C853 1.349 . S
C869 H861 0.950 . S
C869 C867 1.327 . S
C870 C858 1.349 . S
C870 H864 0.950 . S
C870 C871 1.327 . S
C871 H865 0.950 . S
C871 C870 1.327 . S
C871 C875 1.429 . S
C872 C855 1.574 . S
C872 H866 0.949 . S
C872 C876 1.368 . S
C873 C854 1.429 . S
C873 C867 1.429 . S
C873 C874 1.523 . S
C874 C855 1.368 . S
C874 C868 1.368 . S
C874 C873 1.523 . S
C875 C859 1.429 . S
C875 C871 1.429 . S
C875 C876 1.523 . S
C876 C860 1.368 . S
C876 C872 1.368 . S
C876 C875 1.523 . S
H877 C852 0.950 . S
H878 C854 0.950 . S
H879 C855 0.949 . S
H880 C857 0.950 . S
H881 C859 0.950 . S
C882 C883 1.349 . S
C882 C884 1.327 . S
C882 H907 0.950 . S
C883 C882 1.349 . S
C883 C899 1.349 . S
C884 C882 1.327 . S
C884 C903 1.429 . S
C884 H908 0.950 . S
C885 C902 1.574 . S
C885 C904 1.368 . S
C885 H909 0.949 . S
H886 C890 0.949 . S
C887 C888 1.349 . S
C887 C889 1.327 . S
C887 H910 0.950 . S
C888 C887 1.349 . S
C888 C900 1.349 . S
C889 C887 1.327 . S
C889 C905 1.429 . S
C889 H911 0.950 . S
C890 H886 0.949 . S
C890 C898 1.574 . S
C890 C906 1.368 . S
H891 C899 0.950 . S
H892 C897 0.950 . S
H893 C898 0.949 . S
H894 C900 0.950 . S
H895 C901 0.950 . S
H896 C902 0.949 . S
C897 H892 0.950 . S
C897 C899 1.327 . S
C897 C903 1.429 . S
C898 C890 1.574 . S
C898 H893 0.949 . S
C898 C904 1.368 . S
C899 C883 1.349 . S
C899 H891 0.950 . S
C899 C897 1.327 . S
C900 C888 1.349 . S
C900 H894 0.950 . S
C900 C901 1.327 . S
C901 H895 0.950 . S
C901 C900 1.327 . S
C901 C905 1.429 . S
C902 C885 1.574 . S
C902 H896 0.949 . S
C902 C906 1.368 . S
C903 C884 1.429 . S
C903 C897 1.429 . S
C903 C904 1.523 . S
C904 C885 1.368 . S
C904 C898 1.368 . S
C904 C903 1.523 . S
C905 C889 1.429 . S
C905 C901 1.429 . S
C905 C906 1.523 . S
C906 C890 1.368 . S
C906 C902 1.368 . S
C906 C905 1.523 . S
H907 C882 0.950 . S
H908 C884 0.950 . S
H909 C885 0.949 . S
H910 C887 0.950 . S
H911 C889 0.950 . S
C912 C913 1.349 . S
C912 C914 1.327 . S
C912 H937 0.950 . S
C913 C912 1.349 . S
C913 C929 1.349 . S
C914 C912 1.327 . S
C914 C933 1.429 . S
C914 H938 0.950 . S
C915 C932 1.574 . S
C915 C934 1.368 . S
C915 H939 0.949 . S
H916 C920 0.949 . S
C917 C918 1.349 . S
C917 C919 1.327 . S
C917 H940 0.950 . S
C918 C917 1.349 . S
C918 C930 1.349 . S
C919 C917 1.327 . S
C919 C935 1.429 . S
C919 H941 0.950 . S
C920 H916 0.949 . S
C920 C928 1.574 . S
C920 C936 1.368 . S
H921 C929 0.973 . S
H922 C927 0.950 . S
H923 C928 0.949 . S
H924 C930 0.950 . S
H925 C931 0.950 . S
H926 C932 0.949 . S
C927 H922 0.950 . S
C927 C929 1.327 . S
C927 C933 1.429 . S
C928 C920 1.574 . S
C928 H923 0.949 . S
C928 C934 1.368 . S
C929 C913 1.349 . S
C929 H921 0.973 . S
C929 C927 1.327 . S
C930 C918 1.349 . S
C930 H924 0.950 . S
C930 C931 1.327 . S
C931 H925 0.950 . S
C931 C930 1.327 . S
C931 C935 1.429 . S
C932 C915 1.574 . S
C932 H926 0.949 . S
C932 C936 1.368 . S
C933 C914 1.429 . S
C933 C927 1.429 . S
C933 C934 1.523 . S
C934 C915 1.368 . S
C934 C928 1.368 . S
C934 C933 1.523 . S
C935 C919 1.429 . S
C935 C931 1.429 . S
C935 C936 1.523 . S
C936 C920 1.368 . S
C936 C932 1.368 . S
C936 C935 1.523 . S
H937 C912 0.950 . S
H938 C914 0.950 . S
H939 C915 0.949 . S
H940 C917 0.950 . S
H941 C919 0.950 . S
C942 C943 1.349 . S
C942 C944 1.327 . S
C942 H967 0.950 . S
C943 C942 1.349 . S
C943 C959 1.349 . S
C944 C942 1.327 . S
C944 C963 1.429 . S
C944 H968 0.950 . S
C945 C962 1.574 . S
C945 C964 1.368 . S
C945 H969 0.949 . S
H946 C950 0.949 . S
C947 C948 1.349 . S
C947 C949 1.327 . S
C947 H970 0.950 . S
C948 C947 1.349 . S
C948 C960 1.349 . S
C949 C947 1.327 . S
C949 C965 1.429 . S
C949 H971 0.950 . S
C950 H946 0.949 . S
C950 C958 1.574 . S
C950 C966 1.368 . S
H951 C959 0.950 . S
H952 C957 0.950 . S
H953 C958 0.949 . S
H954 C960 0.950 . S
H955 C961 0.950 . S
H956 C962 0.949 . S
C957 H952 0.950 . S
C957 C959 1.327 . S
C957 C963 1.429 . S
C958 C950 1.574 . S
C958 H953 0.949 . S
C958 C964 1.368 . S
C959 C943 1.349 . S
C959 H951 0.950 . S
C959 C957 1.327 . S
C960 C948 1.349 . S
C960 H954 0.950 . S
C960 C961 1.327 . S
C961 H955 0.950 . S
C961 C960 1.327 . S
C961 C965 1.429 . S
C962 C945 1.574 . S
C962 H956 0.949 . S
C962 C966 1.368 . S
C963 C944 1.429 . S
C963 C957 1.429 . S
C963 C964 1.523 . S
C964 C945 1.368 . S
C964 C958 1.368 . S
C964 C963 1.523 . S
C965 C949 1.429 . S
C965 C961 1.429 . S
C965 C966 1.523 . S
C966 C950 1.368 . S
C966 C962 1.368 . S
C966 C965 1.523 . S
H967 C942 0.950 . S
H968 C944 0.950 . S
H969 C945 0.949 . S
H970 C947 0.950 . S
H971 C949 0.950 . S
C972 C973 1.349 . S
C972 C974 1.327 . S
C972 H997 0.950 . S
C973 C972 1.349 . S
C973 C989 1.349 . S
C974 C972 1.327 . S
C974 C993 1.429 . S
C974 H998 0.950 . S
C975 C992 1.574 . S
C975 C994 1.368 . S
C975 H999 0.949 . S
H976 C980 0.949 . S
C977 C978 1.349 . S
C977 C979 1.327 . S
C977 H1000 0.950 . S
C978 C977 1.349 . S
C978 C990 1.349 . S
C979 C977 1.327 . S
C979 C995 1.429 . S
C979 H1001 0.950 . S
C980 H976 0.949 . S
C980 C988 1.574 . S
C980 C996 1.368 . S
H981 C989 0.950 . S
H982 C987 0.950 . S
H983 C988 0.949 . S
H984 C990 0.950 . S
H985 C991 0.950 . S
H986 C992 0.949 . S
C987 H982 0.950 . S
C987 C989 1.327 . S
C987 C993 1.429 . S
C988 C980 1.574 . S
C988 H983 0.949 . S
C988 C994 1.368 . S
C989 C973 1.349 . S
C989 H981 0.950 . S
C989 C987 1.327 . S
C990 C978 1.349 . S
C990 H984 0.950 . S
C990 C991 1.327 . S
C991 H985 0.950 . S
C991 C990 1.327 . S
C991 C995 1.429 . S
C992 C975 1.574 . S
C992 H986 0.949 . S
C992 C996 1.368 . S
C993 C974 1.429 . S
C993 C987 1.429 . S
C993 C994 1.523 . S
C994 C975 1.368 . S
C994 C988 1.368 . S
C994 C993 1.523 . S
C995 C979 1.429 . S
C995 C991 1.429 . S
C995 C996 1.523 . S
C996 C980 1.368 . S
C996 C992 1.368 . S
C996 C995 1.523 . S
H997 C972 0.950 . S
H998 C974 0.950 . S
H999 C975 0.949 . S
H1000 C977 0.950 . S
H1001 C979 0.950 . S
C1002 C1003 1.349 . S
C1002 C1004 1.327 . S
C1002 H1027 0.950 . S
C1003 C1002 1.349 . S
C1003 C1019 1.349 . S
C1004 C1002 1.327 . S
C1004 C1023 1.429 . S
C1004 H1028 0.950 . S
C1005 C1022 1.574 . S
C1005 C1024 1.368 . S
C1005 H1029 0.949 . S
H1006 C1010 0.949 . S
C1007 C1008 1.349 . S
C1007 C1009 1.327 . S
C1007 H1030 0.950 . S
C1008 C1007 1.349 . S
C1008 C1020 1.349 . S
C1009 C1007 1.327 . S
C1009 C1025 1.429 . S
C1009 H1031 0.950 . S
C1010 H1006 0.949 . S
C1010 C1018 1.574 . S
C1010 C1026 1.368 . S
H1011 C1019 0.950 . S
H1012 C1017 0.950 . S
H1013 C1018 0.949 . S
H1014 C1020 0.950 . S
H1015 C1021 0.950 . S
H1016 C1022 0.949 . S
C1017 H1012 0.950 . S
C1017 C1019 1.327 . S
C1017 C1023 1.429 . S
C1018 C1010 1.574 . S
C1018 H1013 0.949 . S
C1018 C1024 1.368 . S
C1019 C1003 1.349 . S
C1019 H1011 0.950 . S
C1019 C1017 1.327 . S
C1020 C1008 1.349 . S
C1020 H1014 0.950 . S
C1020 C1021 1.327 . S
C1021 H1015 0.950 . S
C1021 C1020 1.327 . S
C1021 C1025 1.429 . S
C1022 C1005 1.574 . S
C1022 H1016 0.949 . S
C1022 C1026 1.368 . S
C1023 C1004 1.429 . S
C1023 C1017 1.429 . S
C1023 C1024 1.523 . S
C1024 C1005 1.368 . S
C1024 C1018 1.368 . S
C1024 C1023 1.523 . S
C1025 C1009 1.429 . S
C1025 C1021 1.429 . S
C1025 C1026 1.523 . S
C1026 C1010 1.368 . S
C1026 C1022 1.368 . S
C1026 C1025 1.523 . S
H1027 C1002 0.950 . S
H1028 C1004 0.950 . S
H1029 C1005 0.949 . S
H1030 C1007 0.950 . S
H1031 C1009 0.950 . S
C1032 C1033 1.349 . S
C1032 C1034 1.327 . S
C1032 H1057 0.950 . S
C1033 C1032 1.349 . S
C1033 C1049 1.349 . S
C1034 C1032 1.327 . S
C1034 C1053 1.429 . S
C1034 H1058 0.950 . S
C1035 C1052 1.574 . S
C1035 C1054 1.368 . S
C1035 H1059 0.949 . S
H1036 C1040 0.949 . S
C1037 C1038 1.349 . S
C1037 C1039 1.327 . S
C1037 H1060 0.950 . S
C1038 C1037 1.349 . S
C1038 C1050 1.349 . S
C1039 C1037 1.327 . S
C1039 C1055 1.429 . S
C1039 H1061 0.950 . S
C1040 H1036 0.949 . S
C1040 C1048 1.574 . S
C1040 C1056 1.368 . S
H1041 C1049 0.950 . S
H1042 C1047 0.950 . S
H1043 C1048 0.949 . S
H1044 C1050 0.950 . S
H1045 C1051 0.950 . S
H1046 C1052 0.949 . S
C1047 H1042 0.950 . S
C1047 C1049 1.327 . S
C1047 C1053 1.429 . S
C1048 C1040 1.574 . S
C1048 H1043 0.949 . S
C1048 C1054 1.368 . S
C1049 C1033 1.349 . S
C1049 H1041 0.950 . S
C1049 C1047 1.327 . S
C1050 C1038 1.349 . S
C1050 H1044 0.950 . S
C1050 C1051 1.327 . S
C1051 H1045 0.950 . S
C1051 C1050 1.327 . S
C1051 C1055 1.429 . S
C1052 C1035 1.574 . S
C1052 H1046 0.949 . S
C1052 C1056 1.368 . S
C1053 C1034 1.429 . S
C1053 C1047 1.429 . S
C1053 C1054 1.523 . S
C1054 C1035 1.368 . S
C1054 C1048 1.368 . S
C1054 C1053 1.523 . S
C1055 C1039 1.429 . S
C1055 C1051 1.429 . S
C1055 C1056 1.523 . S
C1056 C1040 1.368 . S
C1056 C1052 1.368 . S
C1056 C1055 1.523 . S
H1057 C1032 0.950 . S
H1058 C1034 0.950 . S
H1059 C1035 0.949 . S
H1060 C1037 0.950 . S
H1061 C1039 0.950 . S
C1062 C1063 1.349 . S
C1062 C1064 1.327 . S
C1062 H1087 0.950 . S
C1063 C1062 1.349 . S
C1063 C1079 1.349 . S
C1064 C1062 1.327 . S
C1064 C1083 1.429 . S
C1064 H1088 0.950 . S
C1065 C1082 1.574 . S
C1065 C1084 1.368 . S
C1065 H1089 0.949 . S
H1066 C1070 0.949 . S
C1067 C1068 1.349 . S
C1067 C1069 1.327 . S
C1067 H1090 0.950 . S
C1068 C1067 1.349 . S
C1068 C1080 1.349 . S
C1069 C1067 1.327 . S
C1069 C1085 1.429 . S
C1069 H1091 0.950 . S
C1070 H1066 0.949 . S
C1070 C1078 1.574 . S
C1070 C1086 1.368 . S
H1071 C1079 0.950 . S
H1072 C1077 0.950 . S
H1073 C1078 0.949 . S
H1074 C1080 0.950 . S
H1075 C1081 0.950 . S
H1076 C1082 0.949 . S
C1077 H1072 0.950 . S
C1077 C1079 1.327 . S
C1077 C1083 1.429 . S
C1078 C1070 1.574 . S
C1078 H1073 0.949 . S
C1078 C1084 1.368 . S
C1079 C1063 1.349 . S
C1079 H1071 0.950 . S
C1079 C1077 1.327 . S
C1080 C1068 1.349 . S
C1080 H1074 0.950 . S
C1080 C1081 1.327 . S
C1081 H1075 0.950 . S
C1081 C1080 1.327 . S
C1081 C1085 1.429 . S
C1082 C1065 1.574 . S
C1082 H1076 0.949 . S
C1082 C1086 1.368 . S
C1083 C1064 1.429 . S
C1083 C1077 1.429 . S
C1083 C1084 1.523 . S
C1084 C1065 1.368 . S
C1084 C1078 1.368 . S
C1084 C1083 1.523 . S
C1085 C1069 1.429 . S
C1085 C1081 1.429 . S
C1085 C1086 1.523 . S
C1086 C1070 1.368 . S
C1086 C1082 1.368 . S
C1086 C1085 1.523 . S
H1087 C1062 0.950 . S
H1088 C1064 0.950 . S
H1089 C1065 0.949 . S
H1090 C1067 0.950 . S
H1091 C1069 0.950 . S
C1092 C1093 1.349 . S
C1092 C1094 1.327 . S
C1092 H1117 0.950 . S
C1093 C1092 1.349 . S
C1093 C1109 1.349 . S
C1094 C1092 1.327 . S
C1094 C1113 1.429 . S
C1094 H1118 0.950 . S
C1095 C1112 1.574 . S
C1095 C1114 1.368 . S
C1095 H1119 0.949 . S
H1096 C1100 0.949 . S
C1097 C1098 1.349 . S
C1097 C1099 1.327 . S
C1097 H1120 0.950 . S
C1098 C1097 1.349 . S
C1098 C1110 1.349 . S
C1099 C1097 1.327 . S
C1099 C1115 1.429 . S
C1099 H1121 0.950 . S
C1100 H1096 0.949 . S
C1100 C1108 1.574 . S
C1100 C1116 1.368 . S
H1101 C1109 0.950 . S
H1102 C1107 0.950 . S
H1103 C1108 0.949 . S
H1104 C1110 0.950 . S
H1105 C1111 0.950 . S
H1106 C1112 0.949 . S
C1107 H1102 0.950 . S
C1107 C1109 1.327 . S
C1107 C1113 1.429 . S
C1108 C1100 1.574 . S
C1108 H1103 0.949 . S
C1108 C1114 1.368 . S
C1109 C1093 1.349 . S
C1109 H1101 0.950 . S
C1109 C1107 1.327 . S
C1110 C1098 1.349 . S
C1110 H1104 0.950 . S
C1110 C1111 1.327 . S
C1111 H1105 0.950 . S
C1111 C1110 1.327 . S
C1111 C1115 1.429 . S
C1112 C1095 1.574 . S
C1112 H1106 0.949 . S
C1112 C1116 1.368 . S
C1113 C1094 1.429 . S
C1113 C1107 1.429 . S
C1113 C1114 1.523 . S
C1114 C1095 1.368 . S
C1114 C1108 1.368 . S
C1114 C1113 1.523 . S
C1115 C1099 1.429 . S
C1115 C1111 1.429 . S
C1115 C1116 1.523 . S
C1116 C1100 1.368 . S
C1116 C1112 1.368 . S
C1116 C1115 1.523 . S
H1117 C1092 0.950 . S
H1118 C1094 0.950 . S
H1119 C1095 0.949 . S
H1120 C1097 0.950 . S
H1121 C1099 0.950 . S
C1122 C1123 1.349 . S
C1122 C1124 1.327 . S
C1122 H1147 0.950 . S
C1123 C1122 1.349 . S
C1123 C1139 1.349 . S
C1124 C1122 1.327 . S
C1124 C1143 1.429 . S
C1124 H1148 0.950 . S
C1125 C1142 1.574 . S
C1125 C1144 1.368 . S
C1125 H1149 0.949 . S
H1126 C1130 0.949 . S
C1127 C1128 1.349 . S
C1127 C1129 1.327 . S
C1127 H1150 0.950 . S
C1128 C1127 1.349 . S
C1128 C1140 1.349 . S
C1129 C1127 1.327 . S
C1129 C1145 1.429 . S
C1129 H1151 0.950 . S
C1130 H1126 0.949 . S
C1130 C1138 1.574 . S
C1130 C1146 1.368 . S
H1131 C1139 0.950 . S
H1132 C1137 0.950 . S
H1133 C1138 0.949 . S
H1134 C1140 0.950 . S
H1135 C1141 0.950 . S
H1136 C1142 0.949 . S
C1137 H1132 0.950 . S
C1137 C1139 1.327 . S
C1137 C1143 1.429 . S
C1138 C1130 1.574 . S
C1138 H1133 0.949 . S
C1138 C1144 1.368 . S
C1139 C1123 1.349 . S
C1139 H1131 0.950 . S
C1139 C1137 1.327 . S
C1140 C1128 1.349 . S
C1140 H1134 0.950 . S
C1140 C1141 1.327 . S
C1141 H1135 0.950 . S
C1141 C1140 1.327 . S
C1141 C1145 1.429 . S
C1142 C1125 1.574 . S
C1142 H1136 0.949 . S
C1142 C1146 1.368 . S
C1143 C1124 1.429 . S
C1143 C1137 1.429 . S
C1143 C1144 1.523 . S
C1144 C1125 1.368 . S
C1144 C1138 1.368 . S
C1144 C1143 1.523 . S
C1145 C1129 1.429 . S
C1145 C1141 1.429 . S
C1145 C1146 1.523 . S
C1146 C1130 1.368 . S
C1146 C1142 1.368 . S
C1146 C1145 1.523 . S
H1147 C1122 0.950 . S
H1148 C1124 0.950 . S
H1149 C1125 0.949 . S
H1150 C1127 0.950 . S
H1151 C1129 0.950 . S
C1152 C1153 1.349 1_455 S
C1152 C1154 1.327 . S
C1152 H1177 0.950 . S
C1153 C1152 1.349 1_655 S
C1153 C1169 1.349 1_565 S
C1154 C1152 1.327 . S
C1154 C1173 1.429 1_455 S
C1154 H1178 0.950 . S
C1155 C1172 1.574 1_556 S
C1155 C1174 1.383 1_545 S
C1155 H1179 0.949 . S
H1156 C1160 0.949 . S
C1157 C1158 1.349 1_655 S
C1157 C1159 1.327 . S
C1157 H1180 0.950 . S
C1158 C1157 1.349 1_455 S
C1158 C1170 1.349 1_545 S
C1159 C1157 1.327 . S
C1159 C1175 1.429 1_655 S
C1159 H1181 0.950 . S
C1160 H1156 0.949 . S
C1160 C1168 1.574 1_554 S
C1160 C1176 1.388 1_565 S
H1161 C1169 0.950 . S
H1162 C1167 0.950 . S
H1163 C1168 0.949 . S
H1164 C1170 0.950 . S
H1165 C1171 0.950 . S
H1166 C1172 0.949 . S
C1167 H1162 0.950 . S
C1167 C1169 1.327 . S
C1167 C1173 1.429 1_545 S
C1168 C1160 1.574 1_556 S
C1168 H1163 0.949 . S
C1168 C1174 1.354 1_455 S
C1169 C1153 1.349 1_545 S
C1169 H1161 0.950 . S
C1169 C1167 1.327 . S
C1170 C1158 1.349 1_565 S
C1170 H1164 0.950 . S
C1170 C1171 1.327 . S
C1171 H1165 0.950 . S
C1171 C1170 1.327 . S
C1171 C1175 1.429 1_565 S
C1172 C1155 1.574 1_554 S
C1172 H1166 0.949 . S
C1172 C1176 1.349 1_655 S
C1173 C1154 1.429 1_655 S
C1173 C1167 1.429 1_565 S
C1173 C1174 1.523 . S
C1174 C1155 1.383 1_565 S
C1174 C1168 1.354 1_655 S
C1174 C1173 1.523 . S
C1175 C1159 1.429 1_455 S
C1175 C1171 1.429 1_545 S
C1175 C1176 1.524 . S
C1176 C1160 1.388 1_545 S
C1176 C1172 1.349 1_455 S
C1176 C1175 1.524 . S
H1177 C1152 0.950 . S
H1178 C1154 0.950 . S
H1179 C1155 0.949 . S
H1180 C1157 0.950 . S
H1181 C1159 0.950 . S
C1182 C1183 1.349 . S
C1182 C1184 1.327 . S
C1182 H1207 0.950 . S
C1183 C1182 1.349 . S
C1183 C1199 1.349 . S
C1184 C1182 1.327 . S
C1184 C1203 1.429 . S
C1184 H1208 0.950 . S
C1185 C1202 1.574 . S
C1185 C1204 1.368 . S
C1185 H1209 0.949 . S
H1186 C1190 0.949 . S
C1187 C1188 1.349 . S
C1187 C1189 1.327 . S
C1187 H1210 0.950 . S
C1188 C1187 1.349 . S
C1188 C1200 1.349 . S
C1189 C1187 1.327 . S
C1189 C1205 1.429 . S
C1189 H1211 0.950 . S
C1190 H1186 0.949 . S
C1190 C1198 1.574 . S
C1190 C1206 1.368 . S
H1191 C1199 0.950 . S
H1192 C1197 0.950 . S
H1193 C1198 0.949 . S
H1194 C1200 0.950 . S
H1195 C1201 0.950 . S
H1196 C1202 0.949 . S
C1197 H1192 0.950 . S
C1197 C1199 1.327 . S
C1197 C1203 1.429 . S
C1198 C1190 1.574 . S
C1198 H1193 0.949 . S
C1198 C1204 1.368 . S
C1199 C1183 1.349 . S
C1199 H1191 0.950 . S
C1199 C1197 1.327 . S
C1200 C1188 1.349 . S
C1200 H1194 0.950 . S
C1200 C1201 1.327 . S
C1201 H1195 0.950 . S
C1201 C1200 1.327 . S
C1201 C1205 1.429 . S
C1202 C1185 1.574 . S
C1202 H1196 0.949 . S
C1202 C1206 1.368 . S
C1203 C1184 1.429 . S
C1203 C1197 1.429 . S
C1203 C1204 1.523 . S
C1204 C1185 1.368 . S
C1204 C1198 1.368 . S
C1204 C1203 1.523 . S
C1205 C1189 1.429 . S
C1205 C1201 1.429 . S
C1205 C1206 1.523 . S
C1206 C1190 1.368 . S
C1206 C1202 1.368 . S
C1206 C1205 1.523 . S
H1207 C1182 0.950 . S
H1208 C1184 0.950 . S
H1209 C1185 0.949 . S
H1210 C1187 0.950 . S
H1211 C1189 0.950 . S
C1212 C1213 1.349 1_545 S
C1212 C1214 1.327 . S
C1212 H1237 0.950 . S
C1213 C1212 1.349 1_565 S
C1213 C1229 1.349 . S
C1214 C1212 1.327 . S
C1214 C1233 1.429 1_545 S
C1214 H1238 0.950 . S
C1215 C1232 1.574 . S
C1215 C1234 1.368 . S
C1215 H1239 0.949 . S
H1216 C1220 0.949 . S
C1217 C1218 1.349 1_565 S
C1217 C1219 1.327 . S
C1217 H1240 0.950 . S
C1218 C1217 1.349 1_545 S
C1218 C1230 1.349 . S
C1219 C1217 1.327 . S
C1219 C1235 1.429 1_565 S
C1219 H1241 0.950 . S
C1220 H1216 0.949 . S
C1220 C1228 1.574 . S
C1220 C1236 1.368 . S
H1221 C1229 0.950 . S
H1222 C1227 0.950 . S
H1223 C1228 0.949 . S
H1224 C1230 0.950 . S
H1225 C1231 0.950 . S
H1226 C1232 0.949 . S
C1227 H1222 0.950 . S
C1227 C1229 1.327 . S
C1227 C1233 1.429 . S
C1228 C1220 1.574 . S
C1228 H1223 0.949 . S
C1228 C1234 1.368 1_545 S
C1229 C1213 1.349 . S
C1229 H1221 0.950 . S
C1229 C1227 1.327 . S
C1230 C1218 1.349 . S
C1230 H1224 0.950 . S
C1230 C1231 1.327 . S
C1231 H1225 0.950 . S
C1231 C1230 1.327 . S
C1231 C1235 1.429 . S
C1232 C1215 1.574 . S
C1232 H1226 0.949 . S
C1232 C1236 1.368 1_565 S
C1233 C1214 1.429 1_565 S
C1233 C1227 1.429 . S
C1233 C1234 1.523 . S
C1234 C1215 1.368 . S
C1234 C1228 1.368 1_565 S
C1234 C1233 1.523 . S
C1235 C1219 1.429 1_545 S
C1235 C1231 1.429 . S
C1235 C1236 1.523 . S
C1236 C1220 1.368 . S
C1236 C1232 1.368 1_545 S
C1236 C1235 1.523 . S
H1237 C1212 0.950 . S
H1238 C1214 0.950 . S
H1239 C1215 0.949 . S
H1240 C1217 0.950 . S
H1241 C1219 0.950 . S
C1242 C1243 1.349 . S
C1242 C1244 1.327 . S
C1242 H1267 0.950 . S
C1243 C1242 1.349 . S
C1243 C1259 1.349 . S
C1244 C1242 1.327 . S
C1244 C1263 1.429 . S
C1244 H1268 0.950 . S
C1245 C1262 1.574 . S
C1245 C1264 1.368 . S
C1245 H1269 0.949 . S
H1246 C1250 0.949 . S
C1247 C1248 1.349 . S
C1247 C1249 1.327 . S
C1247 H1270 0.950 . S
C1248 C1247 1.349 . S
C1248 C1260 1.349 . S
C1249 C1247 1.327 . S
C1249 C1265 1.429 . S
C1249 H1271 0.950 . S
C1250 H1246 0.949 . S
C1250 C1258 1.574 . S
C1250 C1266 1.368 . S
H1251 C1259 0.950 . S
H1252 C1257 0.950 . S
H1253 C1258 0.949 . S
H1254 C1260 0.950 . S
H1255 C1261 0.950 . S
H1256 C1262 0.949 . S
C1257 H1252 0.950 . S
C1257 C1259 1.327 . S
C1257 C1263 1.429 . S
C1258 C1250 1.574 . S
C1258 H1253 0.949 . S
C1258 C1264 1.368 . S
C1259 C1243 1.349 . S
C1259 H1251 0.950 . S
C1259 C1257 1.327 . S
C1260 C1248 1.349 . S
C1260 H1254 0.950 . S
C1260 C1261 1.327 . S
C1261 H1255 0.950 . S
C1261 C1260 1.327 . S
C1261 C1265 1.429 . S
C1262 C1245 1.574 . S
C1262 H1256 0.949 . S
C1262 C1266 1.368 . S
C1263 C1244 1.429 . S
C1263 C1257 1.429 . S
C1263 C1264 1.523 . S
C1264 C1245 1.368 . S
C1264 C1258 1.368 . S
C1264 C1263 1.523 . S
C1265 C1249 1.429 . S
C1265 C1261 1.429 . S
C1265 C1266 1.523 . S
C1266 C1250 1.368 . S
C1266 C1262 1.368 . S
C1266 C1265 1.523 . S
H1267 C1242 0.950 . S
H1268 C1244 0.950 . S
H1269 C1245 0.949 . S
H1270 C1247 0.950 . S
H1271 C1249 0.950 . S
C1272 C1273 1.349 . S
C1272 C1274 1.327 . S
C1272 H1297 0.950 . S
C1273 C1272 1.349 . S
C1273 C1289 1.349 . S
C1274 C1272 1.327 . S
C1274 C1293 1.429 . S
C1274 H1298 0.950 . S
C1275 C1292 1.574 . S
C1275 C1294 1.368 . S
C1275 H1299 0.949 . S
H1276 C1280 0.949 . S
C1277 C1278 1.349 . S
C1277 C1279 1.327 . S
C1277 H1300 0.950 . S
C1278 C1277 1.349 . S
C1278 C1290 1.349 . S
C1279 C1277 1.327 . S
C1279 C1295 1.429 . S
C1279 H1301 0.950 . S
C1280 H1276 0.949 . S
C1280 C1288 1.574 . S
C1280 C1296 1.368 . S
H1281 C1289 0.950 . S
H1282 C1287 0.950 . S
H1283 C1288 0.949 . S
H1284 C1290 0.950 . S
H1285 C1291 0.950 . S
H1286 C1292 0.949 . S
C1287 H1282 0.950 . S
C1287 C1289 1.327 . S
C1287 C1293 1.429 . S
C1288 C1280 1.574 . S
C1288 H1283 0.949 . S
C1288 C1294 1.368 . S
C1289 C1273 1.349 . S
C1289 H1281 0.950 . S
C1289 C1287 1.327 . S
C1290 C1278 1.349 . S
C1290 H1284 0.950 . S
C1290 C1291 1.327 . S
C1291 H1285 0.950 . S
C1291 C1290 1.327 . S
C1291 C1295 1.429 . S
C1292 C1275 1.574 . S
C1292 H1286 0.949 . S
C1292 C1296 1.368 . S
C1293 C1274 1.429 . S
C1293 C1287 1.429 . S
C1293 C1294 1.523 . S
C1294 C1275 1.368 . S
C1294 C1288 1.368 . S
C1294 C1293 1.523 . S
C1295 C1279 1.429 . S
C1295 C1291 1.429 . S
C1295 C1296 1.523 . S
C1296 C1280 1.368 . S
C1296 C1292 1.368 . S
C1296 C1295 1.523 . S
H1297 C1272 0.950 . S
H1298 C1274 0.950 . S
H1299 C1275 0.949 . S
H1300 C1277 0.950 . S
H1301 C1279 0.950 . S
C1302 C1303 1.349 . S
C1302 C1304 1.327 . S
C1302 H1327 0.950 . S
C1303 C1302 1.349 . S
C1303 C1319 1.349 . S
C1304 C1302 1.327 . S
C1304 C1323 1.429 . S
C1304 H1328 0.950 . S
C1305 C1322 1.574 . S
C1305 C1324 1.368 . S
C1305 H1329 0.949 . S
H1306 C1310 0.949 . S
C1307 C1308 1.349 . S
C1307 C1309 1.327 . S
C1307 H1330 0.950 . S
C1308 C1307 1.349 . S
C1308 C1320 1.349 . S
C1309 C1307 1.327 . S
C1309 C1325 1.429 . S
C1309 H1331 0.950 . S
C1310 H1306 0.949 . S
C1310 C1318 1.574 . S
C1310 C1326 1.368 . S
H1311 C1319 0.950 . S
H1312 C1317 0.950 . S
H1313 C1318 0.949 . S
H1314 C1320 0.950 . S
H1315 C1321 0.950 . S
H1316 C1322 0.949 . S
C1317 H1312 0.950 . S
C1317 C1319 1.327 . S
C1317 C1323 1.429 . S
C1318 C1310 1.574 . S
C1318 H1313 0.949 . S
C1318 C1324 1.368 . S
C1319 C1303 1.349 . S
C1319 H1311 0.950 . S
C1319 C1317 1.327 . S
C1320 C1308 1.349 . S
C1320 H1314 0.950 . S
C1320 C1321 1.327 . S
C1321 H1315 0.950 . S
C1321 C1320 1.327 . S
C1321 C1325 1.429 . S
C1322 C1305 1.574 . S
C1322 H1316 0.949 . S
C1322 C1326 1.368 . S
C1323 C1304 1.429 . S
C1323 C1317 1.429 . S
C1323 C1324 1.523 . S
C1324 C1305 1.368 . S
C1324 C1318 1.368 . S
C1324 C1323 1.523 . S
C1325 C1309 1.429 . S
C1325 C1321 1.429 . S
C1325 C1326 1.523 . S
C1326 C1310 1.368 . S
C1326 C1322 1.368 . S
C1326 C1325 1.523 . S
H1327 C1302 0.950 . S
H1328 C1304 0.950 . S
H1329 C1305 0.949 . S
H1330 C1307 0.950 . S
H1331 C1309 0.950 . S
C1332 C1333 1.349 . S
C1332 C1334 1.327 . S
C1332 H1357 0.950 . S
C1333 C1332 1.349 . S
C1333 C1349 1.349 . S
C1334 C1332 1.327 . S
C1334 C1353 1.429 . S
C1334 H1358 0.950 . S
C1335 C1352 1.574 . S
C1335 C1354 1.368 . S
C1335 H1359 0.949 . S
H1336 C1340 0.949 . S
C1337 C1338 1.349 . S
C1337 C1339 1.327 . S
C1337 H1360 0.950 . S
C1338 C1337 1.349 . S
C1338 C1350 1.349 . S
C1339 C1337 1.327 . S
C1339 C1355 1.429 . S
C1339 H1361 0.950 . S
C1340 H1336 0.949 . S
C1340 C1348 1.574 . S
C1340 C1356 1.368 . S
H1341 C1349 0.950 . S
H1342 C1347 0.950 . S
H1343 C1348 0.949 . S
H1344 C1350 0.950 . S
H1345 C1351 0.950 . S
H1346 C1352 0.949 . S
C1347 H1342 0.950 . S
C1347 C1349 1.327 . S
C1347 C1353 1.429 . S
C1348 C1340 1.574 . S
C1348 H1343 0.949 . S
C1348 C1354 1.368 . S
C1349 C1333 1.349 . S
C1349 H1341 0.950 . S
C1349 C1347 1.327 . S
C1350 C1338 1.349 . S
C1350 H1344 0.950 . S
C1350 C1351 1.327 . S
C1351 H1345 0.950 . S
C1351 C1350 1.327 . S
C1351 C1355 1.429 . S
C1352 C1335 1.574 . S
C1352 H1346 0.949 . S
C1352 C1356 1.368 . S
C1353 C1334 1.429 . S
C1353 C1347 1.429 . S
C1353 C1354 1.523 . S
C1354 C1335 1.368 . S
C1354 C1348 1.368 . S
C1354 C1353 1.523 . S
C1355 C1339 1.429 . S
C1355 C1351 1.429 . S
C1355 C1356 1.523 . S
C1356 C1340 1.368 . S
C1356 C1352 1.368 . S
C1356 C1355 1.523 . S
H1357 C1332 0.950 . S
H1358 C1334 0.950 . S
H1359 C1335 0.949 . S
H1360 C1337 0.950 . S
H1361 C1339 0.950 . S
C1362 C1363 1.349 . S
C1362 C1364 1.327 . S
C1362 H1387 0.950 . S
C1363 C1362 1.349 . S
C1363 C1379 1.349 1_655 S
C1364 C1362 1.327 . S
C1364 C1383 1.429 . S
C1364 H1388 0.950 . S
C1365 C1382 1.574 1_556 S
C1365 C1384 1.355 1_455 S
C1365 H1389 0.949 . S
H1366 C1370 0.949 . S
C1367 C1368 1.349 . S
C1367 C1369 1.327 . S
C1367 H1390 0.950 . S
C1368 C1367 1.349 . S
C1368 C1380 1.349 1_455 S
C1369 C1367 1.327 . S
C1369 C1385 1.429 . S
C1369 H1391 0.950 . S
C1370 H1366 0.949 . S
C1370 C1378 1.574 1_554 S
C1370 C1386 1.349 1_655 S
H1371 C1379 0.950 . S
H1372 C1377 0.950 . S
H1373 C1378 0.949 . S
H1374 C1380 0.950 . S
H1375 C1381 0.950 . S
H1376 C1382 0.949 . S
C1377 H1372 0.950 . S
C1377 C1379 1.327 . S
C1377 C1383 1.429 1_455 S
C1378 C1370 1.574 1_556 S
C1378 H1373 0.949 . S
C1378 C1384 1.382 . S
C1379 C1363 1.349 1_455 S
C1379 H1371 0.950 . S
C1379 C1377 1.327 . S
C1380 C1368 1.349 1_655 S
C1380 H1374 0.950 . S
C1380 C1381 1.327 . S
C1381 H1375 0.950 . S
C1381 C1380 1.327 . S
C1381 C1385 1.429 1_655 S
C1382 C1365 1.574 1_554 S
C1382 H1376 0.949 . S
C1382 C1386 1.388 . S
C1383 C1364 1.429 . S
C1383 C1377 1.429 1_655 S
C1383 C1384 1.523 . S
C1384 C1365 1.355 1_655 S
C1384 C1378 1.382 . S
C1384 C1383 1.523 . S
C1385 C1369 1.429 . S
C1385 C1381 1.429 1_455 S
C1385 C1386 1.524 . S
C1386 C1370 1.349 1_455 S
C1386 C1382 1.388 . S
C1386 C1385 1.524 . S
H1387 C1362 0.950 . S
H1388 C1364 0.950 . S
H1389 C1365 0.949 . S
H1390 C1367 0.950 . S
H1391 C1369 0.950 . S
C673 C56 1.618 . S
C678 C308 1.611 . S
C703 C74 1.472 . S
C708 C140 1.455 . S
C733 C158 1.308 . S
C738 C242 1.313 . S
C763 C224 1.456 . S
C768 C326 1.468 . S
C793 C67 1.618 . S
C798 C487 1.625 . S
C823 C63 1.472 . S
C828 C403 1.457 . S
C853 C399 1.308 . S
C858 C231 1.303 . S
C883 C483 1.472 . S
C888 C235 1.461 . S
C913 C560 1.618 . S
C918 C476 1.618 . S
C943 C392 1.456 . S
C948 C578 1.470 . S
C973 C662 1.308 . S
C978 C410 1.312 . S
C1003 C494 1.472 . S
C1008 C644 1.459 . S
C1033 C319 1.618 . S
C1038 C571 1.617 . S
C1063 C567 1.472 . S
C1068 C151 1.457 . S
C1093 C147 1.308 . S
C1098 C651 1.306 . S
C1123 C315 1.472 . S
C1128 C655 1.453 . S
C1153 C70 1.532 1_565 S
C1158 C58 1.532 1_545 S
C1183 C142 1.530 . S
C1188 C154 1.530 . S
C1213 C238 1.530 1_565 S
C1218 C226 1.530 1_545 S
C1243 C322 1.532 . S
C1248 C310 1.532 . S
C1273 C394 1.530 . S
C1278 C406 1.530 . S
C1303 C490 1.532 . S
C1308 C478 1.532 . S
C1333 C562 1.532 . S
C1338 C574 1.532 . S
C1363 C646 1.530 . S
C1368 C658 1.530 . S
