# Generated by pormake.
# Topology umg, (4)-cn, num edge types: 1
# Building blocks:
#     Node 0, Type 0, BuildingBlock: NAWXER_clean_sbu_0, # of connection points: 4
#     Node 1, Type 0, BuildingBlock: NAWXER_clean_sbu_0, # of connection points: 4
#     Node 2, Type 0, BuildingBlock: NAWXER_clean_sbu_0, # of connection points: 4
#     Node 3, Type 0, BuildingBlock: NAWXER_clean_sbu_0, # of connection points: 4
#     Node 4, Type 0, BuildingBlock: NAWXER_clean_sbu_0, # of connection points: 4
#     Node 5, Type 0, BuildingBlock: NAWXER_clean_sbu_0, # of connection points: 4
#     Node 6, Type 0, BuildingBlock: NAWXER_clean_sbu_0, # of connection points: 4
#     Node 7, Type 0, BuildingBlock: NAWXER_clean_sbu_0, # of connection points: 4
#     Node 8, Type 0, BuildingBlock: NAWXER_clean_sbu_0, # of connection points: 4
#     Node 9, Type 0, BuildingBlock: NAWXER_clean_sbu_0, # of connection points: 4
#     Node 10, Type 0, BuildingBlock: NAWXER_clean_sbu_0, # of connection points: 4
#     Node 11, Type 0, BuildingBlock: NAWXER_clean_sbu_0, # of connection points: 4
#     Edge 12, Type (0, 0), BuildingBlock: XUDNAN_clean_linker_2, # of connection points: 2
#     Edge 13, Type (0, 0), BuildingBlock: XUDNAN_clean_linker_2, # of connection points: 2
#     Edge 14, Type (0, 0), BuildingBlock: XUDNAN_clean_linker_2, # of connection points: 2
#     Edge 15, Type (0, 0), BuildingBlock: XUDNAN_clean_linker_2, # of connection points: 2
#     Edge 16, Type (0, 0), BuildingBlock: XUDNAN_clean_linker_2, # of connection points: 2
#     Edge 17, Type (0, 0), BuildingBlock: XUDNAN_clean_linker_2, # of connection points: 2
#     Edge 18, Type (0, 0), BuildingBlock: XUDNAN_clean_linker_2, # of connection points: 2
#     Edge 19, Type (0, 0), BuildingBlock: XUDNAN_clean_linker_2, # of connection points: 2
#     Edge 20, Type (0, 0), BuildingBlock: XUDNAN_clean_linker_2, # of connection points: 2
#     Edge 21, Type (0, 0), BuildingBlock: XUDNAN_clean_linker_2, # of connection points: 2
#     Edge 22, Type (0, 0), BuildingBlock: XUDNAN_clean_linker_2, # of connection points: 2
#     Edge 23, Type (0, 0), BuildingBlock: XUDNAN_clean_linker_2, # of connection points: 2
#     Edge 24, Type (0, 0), BuildingBlock: XUDNAN_clean_linker_2, # of connection points: 2
#     Edge 25, Type (0, 0), BuildingBlock: XUDNAN_clean_linker_2, # of connection points: 2
#     Edge 26, Type (0, 0), BuildingBlock: XUDNAN_clean_linker_2, # of connection points: 2
#     Edge 27, Type (0, 0), BuildingBlock: XUDNAN_clean_linker_2, # of connection points: 2
#     Edge 28, Type (0, 0), BuildingBlock: XUDNAN_clean_linker_2, # of connection points: 2
#     Edge 29, Type (0, 0), BuildingBlock: XUDNAN_clean_linker_2, # of connection points: 2
#     Edge 30, Type (0, 0), BuildingBlock: XUDNAN_clean_linker_2, # of connection points: 2
#     Edge 31, Type (0, 0), BuildingBlock: XUDNAN_clean_linker_2, # of connection points: 2
#     Edge 32, Type (0, 0), BuildingBlock: XUDNAN_clean_linker_2, # of connection points: 2
#     Edge 33, Type (0, 0), BuildingBlock: XUDNAN_clean_linker_2, # of connection points: 2
#     Edge 34, Type (0, 0), BuildingBlock: XUDNAN_clean_linker_2, # of connection points: 2
#     Edge 35, Type (0, 0), BuildingBlock: XUDNAN_clean_linker_2, # of connection points: 2
# Relax obj value: 0.016
# Max RMSD: 0.161
# Mean RMSD: 0.161
data_MOF--net-umg--node1-NAWXER_clean_sbu_0--edge1-XUDNAN_clean_linker_2
_symmetry_space_group_name_H-M    P1
_symmetry_Int_Tables_number       1
_symmetry_cell_setting            triclinic
loop_
_symmetry_equiv_pos_as_xyz
'x, y, z'
_cell_length_a     29.178724
_cell_length_b     29.2135
_cell_length_c     86.75839
_cell_angle_alpha  89.945213
_cell_angle_beta   90.019142
_cell_angle_gamma 120.05079
loop_
_atom_site_label
_atom_site_type_symbol
_atom_site_fract_x
_atom_site_fract_y
_atom_site_fract_z
_atom_type_partial_charge
C0 C 0.19974 0.56774 0.09146 0.0
C1 C 0.34959 0.53621 0.09323 0.0
O2 O 0.19913 0.52409 0.09259 0.0
Zn3 Zn 0.27512 0.55332 0.09252 0.0
O4 O 0.2445 0.61093 0.09066 0.0
Zn5 Zn 0.32798 0.63359 0.09074 0.0
O6 O 0.35237 0.6695 0.07179 0.0
O7 O 0.29625 0.58428 0.06895 0.0
O8 O 0.36556 0.58576 0.09203 0.0
O9 O 0.30026 0.50369 0.09401 0.0
O10 O 0.29826 0.59621 0.11447 0.0
O11 O 0.35443 0.67875 0.10798 0.0
C12 C 0.32648 0.63018 0.06301 0.0
C13 C 0.32894 0.64478 0.11831 0.0
C14 C 0.68976 0.3206 0.45235 0.0
C15 C 0.72559 0.30293 0.39833 0.0
O16 O 0.67696 0.33728 0.44049 0.0
Zn17 Zn 0.70657 0.31191 0.42522 0.0
O18 O 0.71405 0.29442 0.4507 0.0
Zn19 Zn 0.74345 0.2672 0.432 0.0
O20 O 0.81988 0.30422 0.43609 0.0
O21 O 0.78872 0.35714 0.4302 0.0
O22 O 0.74199 0.28006 0.40765 0.0
O23 O 0.70275 0.32689 0.40366 0.0
O24 O 0.65542 0.229 0.42627 0.0
O25 O 0.69961 0.18968 0.4335 0.0
C26 C 0.82742 0.3507 0.43413 0.0
C27 C 0.65625 0.18658 0.42939 0.0
C28 C 0.39367 0.69277 0.78443 0.0
C29 C 0.44424 0.73816 0.73085 0.0
O30 O 0.36349 0.68325 0.77285 0.0
Zn31 Zn 0.41832 0.71572 0.75773 0.0
O32 O 0.44417 0.71734 0.78259 0.0
Zn33 Zn 0.50012 0.75016 0.76369 0.0
O34 O 0.54088 0.8255 0.76884 0.0
O35 O 0.45633 0.79704 0.76424 0.0
O36 O 0.48445 0.75262 0.73967 0.0
O37 O 0.39803 0.71522 0.7366 0.0
O38 O 0.44816 0.66259 0.75782 0.0
O39 O 0.53279 0.70527 0.76398 0.0
C40 C 0.50245 0.83435 0.76808 0.0
C41 C 0.49122 0.66227 0.76039 0.0
C42 C 0.71478 0.41371 0.12078 0.0
C43 C 0.71376 0.40347 0.06477 0.0
O44 O 0.70411 0.37433 0.11226 0.0
Zn45 Zn 0.71624 0.41005 0.0928 0.0
O46 O 0.72967 0.45899 0.11459 0.0
Zn47 Zn 0.74379 0.49116 0.09137 0.0
O48 O 0.69654 0.51936 0.0904 0.0
O49 O 0.65515 0.43244 0.09226 0.0
O50 O 0.7302 0.451 0.06936 0.0
O51 O 0.7011 0.36711 0.07468 0.0
O52 O 0.80175 0.45893 0.09227 0.0
O53 O 0.81882 0.54122 0.09108 0.0
C54 C 0.65348 0.47553 0.09134 0.0
C55 C 0.83551 0.50861 0.09163 0.0
C56 C 0.30792 0.704 0.45448 0.0
C57 C 0.31117 0.69433 0.39856 0.0
O58 O 0.33159 0.68645 0.44619 0.0
Zn59 Zn 0.31057 0.7012 0.42664 0.0
O60 O 0.28315 0.72489 0.44806 0.0
Zn61 Zn 0.26769 0.73984 0.42476 0.0
O62 O 0.19327 0.70506 0.42464 0.0
O63 O 0.22365 0.65005 0.4277 0.0
O64 O 0.28677 0.71821 0.40305 0.0
O65 O 0.33078 0.67728 0.40853 0.0
O66 O 0.35888 0.78777 0.42545 0.0
O67 O 0.3004 0.8141 0.42362 0.0
C68 C 0.18444 0.65849 0.42693 0.0
C69 C 0.34827 0.82538 0.42427 0.0
C70 C 0.54384 0.188 0.76762 0.0
C71 C 0.53358 0.34762 0.76098 0.0
O72 O 0.50539 0.1962 0.76933 0.0
Zn73 Zn 0.54069 0.26852 0.76385 0.0
O74 O 0.58896 0.22617 0.76312 0.0
Zn75 Zn 0.62023 0.31031 0.75745 0.0
O76 O 0.67535 0.34628 0.77272 0.0
O77 O 0.59506 0.30409 0.78268 0.0
O78 O 0.58073 0.35724 0.75801 0.0
O79 O 0.49845 0.30111 0.76472 0.0
O80 O 0.55495 0.26728 0.73961 0.0
O81 O 0.64103 0.31515 0.73589 0.0
C82 C 0.64527 0.33275 0.78445 0.0
C83 C 0.59477 0.28676 0.73043 0.0
C84 C 0.48634 0.83141 0.58047 0.0
C85 C 0.47085 0.65704 0.58711 0.0
O86 O 0.52394 0.82159 0.57884 0.0
Zn87 Zn 0.48226 0.74615 0.58416 0.0
O88 O 0.44078 0.79489 0.58497 0.0
Zn89 Zn 0.40147 0.71364 0.59133 0.0
O90 O 0.38517 0.71409 0.61284 0.0
O91 O 0.47076 0.7495 0.60839 0.0
O92 O 0.42884 0.65862 0.59034 0.0
O93 O 0.51234 0.69928 0.58297 0.0
O94 O 0.42367 0.7164 0.566 0.0
O95 O 0.34466 0.68525 0.57664 0.0
C96 C 0.43238 0.73621 0.61786 0.0
C97 C 0.3732 0.69485 0.56467 0.0
C98 C 0.71198 0.4074 0.8951 0.0
C99 C 0.7125 0.3958 0.95135 0.0
O100 O 0.69088 0.36607 0.90343 0.0
Zn101 Zn 0.7107 0.40139 0.92325 0.0
O102 O 0.7347 0.453 0.90153 0.0
Zn103 Zn 0.74934 0.48353 0.92464 0.0
O104 O 0.8235 0.5268 0.92474 0.0
O105 O 0.79772 0.44198 0.9228 0.0
O106 O 0.73395 0.4436 0.94649 0.0
O107 O 0.69392 0.35816 0.94165 0.0
O108 O 0.65835 0.43435 0.92551 0.0
O109 O 0.71197 0.52066 0.9263 0.0
C110 C 0.8351 0.49056 0.92344 0.0
C111 C 0.66543 0.4813 0.9267 0.0
C112 C 0.32256 0.69933 0.28532 0.0
C113 C 0.32 0.70583 0.22932 0.0
O114 O 0.33561 0.67532 0.27564 0.0
Zn115 Zn 0.32059 0.70212 0.25718 0.0
O116 O 0.30621 0.73016 0.28046 0.0
Zn117 Zn 0.29284 0.75614 0.25858 0.0
O118 O 0.21774 0.73099 0.25885 0.0
O119 O 0.23546 0.66616 0.25747 0.0
O120 O 0.30555 0.73636 0.2356 0.0
O121 O 0.33156 0.67738 0.23771 0.0
O122 O 0.38152 0.78528 0.25695 0.0
O123 O 0.34104 0.83161 0.25907 0.0
C124 C 0.2015 0.68178 0.25807 0.0
C125 C 0.38372 0.83029 0.2577 0.0
C126 C 0.58058 0.28304 0.61695 0.0
C127 C 0.6123 0.32331 0.56175 0.0
O128 O 0.62509 0.31083 0.61036 0.0
Zn129 Zn 0.59788 0.30371 0.58932 0.0
O130 O 0.53821 0.26292 0.60883 0.0
Zn131 Zn 0.51586 0.26142 0.58533 0.0
O132 O 0.47986 0.18827 0.58026 0.0
O133 O 0.56496 0.21964 0.58446 0.0
O134 O 0.56313 0.29688 0.56528 0.0
O135 O 0.64721 0.3353 0.57216 0.0
O136 O 0.55831 0.35081 0.58998 0.0
O137 O 0.47357 0.29378 0.58624 0.0
C138 C 0.51903 0.18078 0.581 0.0
C139 C 0.51025 0.34089 0.58868 0.0
C140 C 0.31963 0.6055 0.89403 0.0
C141 C 0.31818 0.61951 0.94977 0.0
O142 O 0.34426 0.64655 0.90233 0.0
Zn143 Zn 0.32024 0.61279 0.92198 0.0
O144 O 0.29195 0.56007 0.90043 0.0
Zn145 Zn 0.27256 0.52869 0.9235 0.0
O146 O 0.19528 0.49517 0.92339 0.0
O147 O 0.23704 0.58214 0.92132 0.0
O148 O 0.29223 0.5712 0.94522 0.0
O149 O 0.34023 0.65648 0.93991 0.0
O150 O 0.36287 0.57272 0.92529 0.0
O151 O 0.30786 0.48654 0.92542 0.0
C152 C 0.19371 0.53775 0.92196 0.0
C153 C 0.35474 0.5256 0.92648 0.0
C154 C 0.72708 0.29899 0.28484 0.0
C155 C 0.70401 0.32626 0.23052 0.0
O156 O 0.69821 0.31598 0.27917 0.0
Zn157 Zn 0.71351 0.3106 0.25775 0.0
O158 O 0.75317 0.28565 0.27579 0.0
Zn159 Zn 0.76549 0.28318 0.2514 0.0
O160 O 0.84121 0.33141 0.24971 0.0
O161 O 0.79621 0.37049 0.25633 0.0
O162 O 0.73478 0.30714 0.23238 0.0
O163 O 0.68258 0.33404 0.2422 0.0
O164 O 0.67557 0.22589 0.25443 0.0
O165 O 0.73838 0.2088 0.24784 0.0
C166 C 0.84057 0.37334 0.25322 0.0
C167 C 0.68992 0.19234 0.25077 0.0
H168 H 0.276 0.54968 0.97392 0.0
H169 H 0.37325 0.71694 0.96333 0.0
H170 H 0.38521 0.73717 0.99112 0.0
H171 H 0.21043 0.56536 1.00723 0.0
H172 H 0.21011 0.51205 0.0178 0.0
H173 H 0.20836 0.51061 0.99704 0.0
H174 H 0.29172 0.50059 0.99659 0.0
H175 H 0.29385 0.5022 0.01734 0.0
H176 H 0.35088 0.54869 1.0064 0.0
H177 H 0.38864 0.73933 0.01976 0.0
H178 H 0.38154 0.72399 0.04774 0.0
H179 H 0.28128 0.55516 0.04003 0.0
C180 C 0.2996 0.59061 0.97743 0.0
C181 C 0.32369 0.63176 0.96643 0.0
C182 C 0.35435 0.68476 0.97152 0.0
C183 C 0.36142 0.69666 0.98728 0.0
C184 C 0.33748 0.65516 0.99779 0.0
C185 C 0.30701 0.60324 0.99312 0.0
C186 C 0.28596 0.5661 1.00683 0.0
C187 C 0.2251 0.53681 1.00725 0.0
C188 C 0.30687 0.5271 1.00678 0.0
C189 C 0.30958 0.60534 0.01994 0.0
C190 C 0.33919 0.65643 0.01443 0.0
C191 C 0.36544 0.69954 0.02423 0.0
C192 C 0.36118 0.69031 0.04013 0.0
C193 C 0.33078 0.63832 0.04612 0.0
C194 C 0.30469 0.59532 0.03583 0.0
H195 H 0.68534 0.33514 0.37448 0.0
H196 H 0.7817 0.26345 0.38413 0.0
H197 H 0.792 0.25506 0.35632 0.0
H198 H 0.61681 0.25348 0.34192 0.0
H199 H 0.61602 0.30577 0.3311 0.0
H200 H 0.61688 0.30769 0.35185 0.0
H201 H 0.70118 0.40037 0.35124 0.0
H202 H 0.70045 0.39882 0.33048 0.0
H203 H 0.75864 0.40959 0.34081 0.0
H204 H 0.79149 0.25309 0.3278 0.0
H205 H 0.78099 0.25851 0.29985 0.0
H206 H 0.68437 0.33081 0.3081 0.0
C207 C 0.70886 0.31798 0.37074 0.0
C208 C 0.73273 0.29999 0.38153 0.0
C209 C 0.76293 0.27748 0.37613 0.0
C210 C 0.76907 0.27252 0.36034 0.0
C211 C 0.74475 0.29017 0.35003 0.0
C212 C 0.7153 0.31252 0.35495 0.0
C213 C 0.69293 0.32766 0.34133 0.0
C214 C 0.63205 0.2968 0.34157 0.0
C215 C 0.71461 0.38768 0.34095 0.0
C216 C 0.71442 0.31021 0.32805 0.0
C217 C 0.74422 0.28877 0.33339 0.0
C218 C 0.7683 0.26985 0.32344 0.0
C219 C 0.76204 0.27312 0.30757 0.0
C220 C 0.73184 0.29509 0.30173 0.0
C221 C 0.70759 0.3137 0.31217 0.0
H222 H 0.36849 0.7014 0.70804 0.0
H223 H 0.53816 0.79542 0.71569 0.0
H224 H 0.55264 0.80834 0.68769 0.0
H225 H 0.37559 0.63484 0.67475 0.0
H226 H 0.32103 0.63471 0.66496 0.0
H227 H 0.32333 0.63532 0.6857 0.0
H228 H 0.3159 0.72008 0.68609 0.0
H229 H 0.3135 0.71969 0.66534 0.0
H230 H 0.36292 0.77744 0.67537 0.0
H231 H 0.5496 0.80782 0.6591 0.0
H232 H 0.52922 0.79394 0.63138 0.0
H233 H 0.36146 0.7003 0.64198 0.0
C234 C 0.40863 0.72519 0.70384 0.0
C235 C 0.45219 0.74749 0.71407 0.0
C236 C 0.50415 0.77791 0.70809 0.0
C237 C 0.51282 0.78561 0.6922 0.0
C238 C 0.46914 0.76269 0.68244 0.0
C239 C 0.41806 0.73318 0.68798 0.0
C240 C 0.37834 0.71128 0.6749 0.0
C241 C 0.34779 0.65043 0.67509 0.0
C242 C 0.34043 0.73347 0.67546 0.0
C243 C 0.41522 0.73267 0.66117 0.0
C244 C 0.46737 0.76238 0.66581 0.0
C245 C 0.5089 0.78494 0.65529 0.0
C246 C 0.49687 0.77669 0.63957 0.0
C247 C 0.44373 0.74611 0.6345 0.0
C248 C 0.40241 0.72421 0.64549 0.0
H249 H 0.74236 0.47284 0.04047 0.0
H250 H 0.6758 0.30624 0.05122 0.0
H251 H 0.66863 0.28578 0.02341 0.0
H252 H 0.66148 0.45545 1.00739 0.0
H253 H 0.71383 0.50937 0.99679 0.0
H254 H 0.71387 0.51075 0.01754 0.0
H255 H 0.80806 0.5226 0.01786 0.0
H256 H 0.80829 0.52124 0.9971 0.0
H257 H 0.82003 0.4754 1.00793 0.0
H258 H 0.66786 0.2835 0.99419 0.0
H259 H 0.67441 0.30001 0.96608 0.0
H260 H 0.74229 0.46806 0.97474 0.0
C261 C 0.72626 0.43202 0.03701 0.0
C262 C 0.7096 0.39116 0.04807 0.0
C263 C 0.68886 0.33828 0.04299 0.0
C264 C 0.68461 0.32622 0.0272 0.0
C265 C 0.70138 0.36746 0.01662 0.0
C266 C 0.72187 0.4193 0.02132 0.0
C267 C 0.73712 0.45635 1.00765 0.0
C268 C 0.70462 0.48463 1.00733 0.0
C269 C 0.79693 0.49624 1.00764 0.0
C270 C 0.72189 0.41728 0.99452 0.0
C271 C 0.7013 0.36619 0.9999 0.0
C272 C 0.68404 0.3234 0.98986 0.0
C273 C 0.6879 0.33315 0.97391 0.0
C274 C 0.70896 0.3853 0.96817 0.0
C275 C 0.72618 0.42771 0.9787 0.0
H276 H 0.29009 0.739 0.30881 0.0
H277 H 0.36171 0.64239 0.29981 0.0
H278 H 0.36638 0.63 0.32785 0.0
H279 H 0.36636 0.80452 0.34239 0.0
H280 H 0.31192 0.80453 0.35219 0.0
H281 H 0.31439 0.80564 0.33145 0.0
H282 H 0.2214 0.72167 0.33049 0.0
H283 H 0.21865 0.72027 0.35123 0.0
H284 H 0.20984 0.66315 0.34077 0.0
H285 H 0.36391 0.62914 0.35704 0.0
H286 H 0.3535 0.63896 0.38492 0.0
H287 H 0.28233 0.73507 0.37444 0.0
C288 C 0.30686 0.71527 0.31269 0.0
C289 C 0.32564 0.69174 0.30209 0.0
C290 C 0.34707 0.66082 0.3077 0.0
C291 C 0.34991 0.65357 0.32361 0.0
C292 C 0.33099 0.67734 0.33373 0.0
C293 C 0.30979 0.70747 0.32848 0.0
C294 C 0.29195 0.72859 0.34169 0.0
C295 C 0.32302 0.78942 0.34194 0.0
C296 C 0.23189 0.70712 0.341 0.0
C297 C 0.3065 0.70575 0.35523 0.0
C298 C 0.32906 0.67638 0.35043 0.0
C299 C 0.34618 0.65194 0.36092 0.0
C300 C 0.34012 0.65777 0.37673 0.0
C301 C 0.31697 0.68765 0.38188 0.0
C302 C 0.29994 0.71175 0.37091 0.0
H303 H 0.66473 0.33656 0.70629 0.0
H304 H 0.50387 0.21313 0.71657 0.0
H305 H 0.48555 0.1966 0.68886 0.0
H306 H 0.63191 0.38823 0.67356 0.0
H307 H 0.68981 0.40204 0.66254 0.0
H308 H 0.69226 0.40247 0.68328 0.0
H309 H 0.72302 0.33331 0.68272 0.0
H310 H 0.72072 0.33271 0.66195 0.0
H311 H 0.68386 0.27186 0.67258 0.0
H312 H 0.48225 0.19547 0.66048 0.0
H313 H 0.49377 0.21009 0.63253 0.0
H314 H 0.65666 0.33447 0.63965 0.0
C315 C 0.6259 0.30564 0.70269 0.0
C316 C 0.58577 0.27605 0.71366 0.0
C317 C 0.53526 0.2364 0.70845 0.0
C318 C 0.52445 0.22655 0.69271 0.0
C319 C 0.56448 0.25665 0.68223 0.0
C320 C 0.61422 0.29537 0.68692 0.0
C321 C 0.64918 0.3233 0.67308 0.0
C322 C 0.66681 0.38252 0.67312 0.0
C323 C 0.69703 0.31477 0.67255 0.0
C324 C 0.61097 0.29454 0.65994 0.0
C325 C 0.5625 0.2561 0.66558 0.0
C326 C 0.52009 0.22522 0.6559 0.0
C327 C 0.52708 0.234 0.64001 0.0
C328 C 0.57614 0.27342 0.63384 0.0
C329 C 0.61884 0.30375 0.64398 0.0
H330 H 0.30524 0.62362 0.21053 0.0
H331 H 0.34543 0.78818 0.21007 0.0
H332 H 0.35431 0.79018 0.18178 0.0
H333 H 0.39127 0.63099 0.17936 0.0
H334 H 0.34418 0.56782 0.17127 0.0
H335 H 0.3432 0.57943 0.19163 0.0
H336 H 0.24453 0.55365 0.18972 0.0
H337 H 0.24518 0.5419 0.16936 0.0
H338 H 0.22512 0.58755 0.17613 0.0
H339 H 0.36104 0.77586 0.15407 0.0
H340 H 0.35782 0.74406 0.12766 0.0
H341 H 0.30692 0.58641 0.14521 0.0
C342 C 0.31626 0.66006 0.20443 0.0
C343 C 0.32504 0.70591 0.21243 0.0
C344 C 0.33848 0.75267 0.20412 0.0
C345 C 0.34382 0.75425 0.18808 0.0
C346 C 0.33478 0.70848 0.18052 0.0
C347 C 0.32065 0.66203 0.18832 0.0
C348 C 0.31069 0.61792 0.17718 0.0
C349 C 0.34967 0.59787 0.18003 0.0
C350 C 0.25295 0.57258 0.17816 0.0
C351 C 0.32174 0.64708 0.16194 0.0
C352 C 0.33619 0.69942 0.16423 0.0
C353 C 0.34955 0.73492 0.15209 0.0
C354 C 0.34777 0.71645 0.13713 0.0
C355 C 0.33204 0.66274 0.13438 0.0
C356 C 0.31877 0.62757 0.14698 0.0
H357 H 0.72502 0.30465 0.4801 0.0
H358 H 0.62543 0.36039 0.46003 0.0
H359 H 0.60177 0.3753 0.48612 0.0
H360 H 0.64133 0.23473 0.51114 0.0
H361 H 0.69401 0.25208 0.52482 0.0
H362 H 0.70588 0.24921 0.50459 0.0
H363 H 0.78394 0.34574 0.50559 0.0
H364 H 0.77212 0.34898 0.52585 0.0
H365 H 0.77278 0.39726 0.51275 0.0
H366 H 0.58196 0.37564 0.51411 0.0
H367 H 0.56886 0.36331 0.54227 0.0
H368 H 0.68498 0.31238 0.54449 0.0
C369 C 0.69856 0.32041 0.48118 0.0
C370 C 0.67697 0.33126 0.468 0.0
C371 C 0.64255 0.35188 0.46993 0.0
C372 C 0.62896 0.36059 0.48471 0.0
C373 C 0.65068 0.34918 0.49744 0.0
C374 C 0.68503 0.32989 0.49584 0.0
C375 C 0.7013 0.31907 0.51143 0.0
C376 C 0.68461 0.26029 0.51309 0.0
C377 C 0.76109 0.35492 0.51406 0.0
C378 C 0.66958 0.33395 0.52204 0.0
C379 C 0.64078 0.35136 0.51371 0.0
C380 C 0.6051 0.36313 0.52079 0.0
C381 C 0.59792 0.35603 0.53676 0.0
C382 C 0.62675 0.33802 0.5455 0.0
C383 C 0.66378 0.32782 0.53809 0.0
H384 H 0.44092 0.73277 0.81219 0.0
H385 H 0.29585 0.60976 0.7915 0.0
H386 H 0.26082 0.57397 0.81741 0.0
H387 H 0.45109 0.65595 0.84216 0.0
H388 H 0.47471 0.70772 0.8564 0.0
H389 H 0.48792 0.7243 0.83628 0.0
H390 H 0.44402 0.78235 0.83814 0.0
H391 H 0.43104 0.7663 0.8583 0.0
H392 H 0.37745 0.75389 0.84546 0.0
H393 H 0.2448 0.54784 0.84538 0.0
H394 H 0.24451 0.53885 0.87372 0.0
H395 H 0.39758 0.68245 0.8762 0.0
C396 C 0.40166 0.69847 0.81313 0.0
C397 C 0.37111 0.67379 0.79989 0.0
C398 C 0.31975 0.62932 0.80154 0.0
C399 C 0.29966 0.60861 0.81618 0.0
C400 C 0.33113 0.63345 0.82901 0.0
C401 C 0.38065 0.67793 0.82765 0.0
C402 C 0.40614 0.69765 0.84326 0.0
C403 C 0.45802 0.6963 0.8446 0.0
C404 C 0.41517 0.75334 0.84648 0.0
C405 C 0.36357 0.65678 0.85362 0.0
C406 C 0.32085 0.61981 0.84516 0.0
C407 C 0.27773 0.57689 0.85214 0.0
C408 C 0.27806 0.57195 0.86821 0.0
C409 C 0.32088 0.61012 0.8771 0.0
C410 C 0.36407 0.65304 0.86968 0.0
H411 H 0.72451 0.34176 0.13869 0.0
H412 H 0.69236 0.47136 0.14101 0.0
H413 H 0.68061 0.45947 0.16925 0.0
H414 H 0.63406 0.25989 0.16856 0.0
H415 H 0.67854 0.23949 0.17617 0.0
H416 H 0.68144 0.25618 0.15606 0.0
H417 H 0.78112 0.32549 0.1588 0.0
H418 H 0.77859 0.30877 0.17888 0.0
H419 H 0.8019 0.37634 0.17327 0.0
H420 H 0.67089 0.43218 0.19723 0.0
H421 H 0.67417 0.39873 0.22316 0.0
H422 H 0.71878 0.29115 0.2027 0.0
C423 C 0.71465 0.36738 0.14515 0.0
C424 C 0.70889 0.40721 0.13769 0.0
C425 C 0.69696 0.44063 0.14653 0.0
C426 C 0.68992 0.43396 0.16255 0.0
C427 C 0.69573 0.3942 0.16956 0.0
C428 C 0.70859 0.36198 0.16117 0.0
C429 C 0.71582 0.32444 0.1716 0.0
C430 C 0.67503 0.26657 0.16787 0.0
C431 C 0.77274 0.33438 0.17058 0.0
C432 C 0.70504 0.34057 0.18716 0.0
C433 C 0.69267 0.38026 0.18572 0.0
C434 C 0.68071 0.40124 0.1985 0.0
C435 C 0.68242 0.38182 0.21318 0.0
C436 C 0.69686 0.34248 0.21495 0.0
C437 C 0.70781 0.32139 0.20172 0.0
H438 H 0.41797 0.69105 0.53739 0.0
H439 H 0.27593 0.68049 0.55683 0.0
H440 H 0.24197 0.67797 0.53057 0.0
H441 H 0.43398 0.77569 0.50695 0.0
H442 H 0.45605 0.74485 0.49312 0.0
H443 H 0.46727 0.74116 0.51337 0.0
H444 H 0.41847 0.63885 0.51188 0.0
H445 H 0.40763 0.64219 0.49156 0.0
H446 H 0.35228 0.60347 0.50414 0.0
H447 H 0.22869 0.68735 0.50239 0.0
H448 H 0.23219 0.69795 0.47408 0.0
H449 H 0.38077 0.69775 0.47298 0.0
C450 C 0.37929 0.68726 0.53613 0.0
C451 C 0.34955 0.68598 0.54914 0.0
C452 C 0.29918 0.68112 0.54702 0.0
C453 C 0.27968 0.67989 0.53216 0.0
C454 C 0.3107 0.68269 0.51958 0.0
C455 C 0.35898 0.68529 0.5214 0.0
C456 C 0.38515 0.68919 0.50601 0.0
C457 C 0.43877 0.74079 0.5048 0.0
C458 C 0.39122 0.64052 0.50323 0.0
C459 C 0.34465 0.68971 0.49524 0.0
C460 C 0.3021 0.68616 0.5033 0.0
C461 C 0.26133 0.68925 0.49593 0.0
C462 C 0.26387 0.69565 0.47988 0.0
C463 C 0.30659 0.69833 0.47139 0.0
C464 C 0.3473 0.69507 0.47919 0.0
H465 H 0.63866 0.32845 0.87652 0.0
H466 H 0.78593 0.47844 0.87537 0.0
H467 H 0.78759 0.47341 0.84696 0.0
H468 H 0.66612 0.26577 0.84452 0.0
H469 H 0.59938 0.23444 0.8372 0.0
H470 H 0.6115 0.248 0.8575 0.0
H471 H 0.56189 0.30084 0.85683 0.0
H472 H 0.54951 0.28731 0.83655 0.0
H473 H 0.58255 0.35464 0.84334 0.0
H474 H 0.77359 0.45165 0.81863 0.0
H475 H 0.74031 0.41903 0.79234 0.0
H476 H 0.59927 0.28661 0.8119 0.0
C477 C 0.67144 0.35992 0.87027 0.0
C478 C 0.71238 0.40364 0.87811 0.0
C479 C 0.75415 0.44461 0.86956 0.0
C480 C 0.75558 0.44198 0.85344 0.0
C481 C 0.71456 0.39847 0.84602 0.0
C482 C 0.67292 0.35848 0.85414 0.0
C483 C 0.63214 0.31779 0.84331 0.0
C484 C 0.62701 0.26328 0.84578 0.0
C485 C 0.57835 0.31501 0.84512 0.0
C486 C 0.65732 0.34119 0.82788 0.0
C487 C 0.70523 0.38729 0.82969 0.0
C488 C 0.73602 0.41568 0.81707 0.0
C489 C 0.71693 0.3968 0.80219 0.0
C490 C 0.66716 0.35052 0.8001 0.0
C491 C 0.63731 0.32234 0.81315 0.0
H492 H 0.88529 0.4495 0.09297 0.0
H493 H 0.91688 0.61113 0.08982 0.0
H494 H 1.01283 0.64337 0.08935 0.0
H495 H 0.99511 0.47689 0.11786 0.0
H496 H 1.00872 0.42966 0.10865 0.0
H497 H 0.94237 0.4191 0.10869 0.0
H498 H 0.93956 0.41241 0.07889 0.0
H499 H 1.00591 0.423 0.07877 0.0
H500 H 0.99033 0.46565 0.06768 0.0
H501 H 0.10551 0.65835 0.08917 0.0
H502 H 0.18833 0.65506 0.08947 0.0
H503 H 0.09716 0.48379 0.0928 0.0
C504 C 0.91233 0.49169 0.09219 0.0
C505 C 0.89332 0.52775 0.09143 0.0
C506 C 0.93026 0.58265 0.09042 0.0
C507 C 0.98494 0.6014 0.09014 0.0
C508 C 1.00228 0.56484 0.09089 0.0
C509 C 0.96714 0.51115 0.09191 0.0
C510 C 0.99628 0.48032 0.09259 0.0
C511 C 0.98494 0.44969 0.10786 0.0
C512 C 0.98218 0.44316 0.07865 0.0
C513 C 0.05329 0.52508 0.0918 0.0
C514 C 0.0558 0.5735 0.09081 0.0
C515 C 0.10402 0.62065 0.08994 0.0
C516 C 0.15092 0.61834 0.09012 0.0
C517 C 0.1495 0.5692 0.09116 0.0
C518 C 0.09978 0.52202 0.092 0.0
H519 H 0.63671 0.08408 0.43508 0.0
H520 H 0.56193 0.1729 0.41973 0.0
H521 H 0.47816 0.09057 0.4163 0.0
H522 H 0.56551 0.97303 0.40884 0.0
H523 H 0.55794 0.92356 0.42265 0.0
H524 H 0.61392 0.98964 0.4239 0.0
H525 H 0.58894 0.99677 0.45208 0.0
H526 H 0.53297 0.93068 0.45092 0.0
H527 H 0.52337 0.98487 0.4563 0.0
H528 H 0.40266 1.00175 0.41467 0.0
H529 H 0.33623 0.90749 0.41528 0.0
H530 H 0.45537 0.87102 0.43151 0.0
C531 C 0.60268 0.08604 0.43099 0.0
C532 C 0.60628 0.1353 0.42769 0.0
C533 C 0.56066 0.13604 0.42238 0.0
C534 C 0.51261 0.08935 0.42034 0.0
C535 C 0.51032 0.04176 0.42364 0.0
C536 C 0.55374 0.0393 0.42888 0.0
C537 C 0.53906 0.9821 0.43171 0.0
C538 C 0.57102 0.96615 0.42114 0.0
C539 C 0.54653 0.97309 0.44877 0.0
C540 C 0.48074 0.95337 0.42729 0.0
C541 C 0.4655 0.98902 0.42266 0.0
C542 C 0.41393 0.97326 0.41824 0.0
C543 C 0.37643 0.91948 0.41868 0.0
C544 C 0.39041 0.88168 0.42347 0.0
C545 C 0.44354 0.89891 0.42771 0.0
H546 H 0.5997 0.45664 0.76113 0.0
H547 H 0.43448 0.33319 0.75873 0.0
H548 H 0.40779 0.40062 0.75775 0.0
H549 H 0.5785 0.54319 0.78586 0.0
H550 H 0.62747 0.60343 0.7767 0.0
H551 H 0.63497 0.54585 0.77651 0.0
H552 H 0.64113 0.55014 0.74672 0.0
H553 H 0.63373 0.6078 0.74682 0.0
H554 H 0.58898 0.55057 0.73569 0.0
H555 H 0.39767 0.47876 0.75721 0.0
H556 H 0.40372 0.56533 0.75791 0.0
H557 H 0.57515 0.64202 0.76149 0.0
C558 C 0.55799 0.44397 0.76027 0.0
C559 C 0.51916 0.38951 0.75997 0.0
C560 C 0.46495 0.37451 0.75902 0.0
C561 C 0.44933 0.41254 0.75842 0.0
C562 C 0.48829 0.46563 0.75886 0.0
C563 C 0.54148 0.48168 0.75982 0.0
C564 C 0.57466 0.54172 0.76061 0.0
C565 C 0.60573 0.55959 0.77583 0.0
C566 C 0.61182 0.56385 0.74662 0.0
C567 C 0.5316 0.55655 0.76 0.0
C568 C 0.48225 0.51173 0.75887 0.0
C569 C 0.43604 0.51424 0.75807 0.0
C570 C 0.44006 0.56388 0.75846 0.0
C571 C 0.48996 0.61083 0.75973 0.0
C572 C 0.53645 0.60699 0.76053 0.0
H573 H 0.58179 0.13864 0.58946 0.0
H574 H 0.43801 0.10271 0.56482 0.0
H575 H 0.42134 0.01299 0.55953 0.0
H576 H 0.61904 0.05795 0.56503 0.0
H577 H 0.64176 0.03582 0.58119 0.0
H578 H 0.6464 0.09972 0.58173 0.0
H579 H 0.59296 0.07426 0.6072 0.0
H580 H 0.58834 0.01049 0.60678 0.0
H581 H 0.529 0.01493 0.60794 0.0
H582 H 0.41516 0.92635 0.55864 0.0
H583 H 0.41754 0.84443 0.56321 0.0
H584 H 0.56482 0.9327 0.58844 0.0
C585 C 0.54734 0.11207 0.58273 0.0
C586 C 0.51129 0.12777 0.57749 0.0
C587 C 0.46611 0.09161 0.56898 0.0
C588 C 0.45646 0.04062 0.56582 0.0
C589 C 0.49227 0.02612 0.57125 0.0
C590 C 0.53673 0.06048 0.57957 0.0
C591 C 0.56624 0.03289 0.58509 0.0
C592 C 0.62165 0.05811 0.57782 0.0
C593 C 0.56929 0.03315 0.6028 0.0
C594 C 0.53053 0.97741 0.5789 0.0
C595 C 0.48856 0.97497 0.57078 0.0
C596 C 0.44816 0.92781 0.56478 0.0
C597 C 0.44983 0.88152 0.56745 0.0
C598 C 0.49163 0.88253 0.576 0.0
C599 C 0.53319 0.93124 0.58153 0.0
H600 H 0.37585 0.44669 0.91732 0.0
H601 H 0.43763 0.59139 0.94399 0.0
H602 H 0.5201 0.59042 0.9485 0.0
H603 H 0.44121 0.38679 0.94058 0.0
H604 H 0.45543 0.35957 0.92383 0.0
H605 H 0.39777 0.36711 0.92411 0.0
H606 H 0.42962 0.42233 0.899 0.0
H607 H 0.4875 0.41532 0.89871 0.0
H608 H 0.49464 0.48028 0.89837 0.0
H609 H 0.59843 0.58162 0.94773 0.0
H610 H 0.66985 0.56217 0.94288 0.0
H611 H 0.56093 0.42162 0.91722 0.0
C612 C 0.40634 0.47723 0.92442 0.0
C613 C 0.40046 0.51915 0.93031 0.0
C614 C 0.44149 0.55912 0.93929 0.0
C615 C 0.48842 0.55883 0.94199 0.0
C616 C 0.49391 0.51818 0.93568 0.0
C617 C 0.45414 0.47776 0.92719 0.0
C618 C 0.47266 0.4411 0.92092 0.0
C619 C 0.43981 0.38533 0.92778 0.0
C620 C 0.47101 0.4397 0.9032 0.0
C621 C 0.5293 0.46838 0.92687 0.0
C622 C 0.5402 0.51258 0.93541 0.0
C623 C 0.59033 0.54666 0.94129 0.0
C624 C 0.63071 0.53546 0.93837 0.0
C625 C 0.62085 0.49037 0.92972 0.0
C626 C 0.56927 0.45595 0.92404 0.0
H627 H 0.15375 0.57403 0.2542 0.0
H628 H 0.11886 0.70071 0.26102 0.0
H629 H 0.02318 0.63565 0.26028 0.0
H630 H 0.04711 0.49802 0.22769 0.0
H631 H 0.03385 0.43502 0.23523 0.0
H632 H 0.09967 0.49144 0.23637 0.0
H633 H 0.09994 0.47884 0.26593 0.0
H634 H 0.03416 0.42234 0.26488 0.0
H635 H 0.0475 0.4767 0.27746 0.0
H636 H 0.93146 0.55698 0.25907 0.0
H637 H 0.84981 0.47032 0.25731 0.0
H638 H 0.9438 0.39431 0.25089 0.0
C639 C 0.12605 0.58817 0.25556 0.0
C640 C 0.14396 0.64262 0.25769 0.0
C641 C 0.10624 0.65931 0.25937 0.0
C642 C 0.05177 0.62263 0.25896 0.0
C643 C 0.03554 0.56936 0.25682 0.0
C644 C 0.07151 0.55211 0.25512 0.0
C645 C 0.04356 0.49262 0.25293 0.0
C646 C 0.05684 0.47846 0.23711 0.0
C647 C 0.0571 0.46607 0.26609 0.0
C648 C 0.9862 0.47906 0.2537 0.0
C649 C 0.98254 0.52396 0.25597 0.0
C650 C 0.93384 0.52158 0.25726 0.0
C651 C 0.88763 0.47205 0.25625 0.0
C652 C 0.89022 0.42534 0.25393 0.0
C653 C 0.94037 0.42918 0.25259 0.0
H654 H 0.63522 0.55944 0.0899 0.0
H655 H 0.55442 0.38827 0.09361 0.0
H656 H 0.4685 0.38539 0.09461 0.0
H657 H 0.55015 0.57885 0.11578 0.0
H658 H 0.55197 0.632 0.10471 0.0
H659 H 0.60728 0.62077 0.10415 0.0
H660 H 0.60013 0.61304 0.07439 0.0
H661 H 0.54487 0.62436 0.07486 0.0
H662 H 0.53806 0.56596 0.06567 0.0
H663 H 0.39113 0.40096 0.09538 0.0
H664 H 0.32791 0.4337 0.09552 0.0
H665 H 0.4586 0.59487 0.0913 0.0
C666 C 0.59948 0.5213 0.09089 0.0
C667 C 0.60176 0.47404 0.09166 0.0
C668 C 0.5539 0.42503 0.09298 0.0
C669 C 0.50481 0.42297 0.09357 0.0
C670 C 0.50404 0.47024 0.09284 0.0
C671 C 0.55008 0.5185 0.0915 0.0
C672 C 0.53818 0.56346 0.09094 0.0
C673 C 0.56339 0.60097 0.10471 0.0
C674 C 0.55639 0.59346 0.07555 0.0
C675 C 0.47827 0.53293 0.09217 0.0
C676 C 0.45941 0.47922 0.09327 0.0
C677 C 0.40547 0.44295 0.09452 0.0
C678 C 0.36982 0.462 0.0946 0.0
C679 C 0.3881 0.51691 0.09343 0.0
C680 C 0.44321 0.55269 0.09223 0.0
H681 H 0.92832 0.36649 0.42876 0.0
H682 H 0.84305 0.44349 0.44502 0.0
H683 H 0.92628 0.52819 0.44643 0.0
H684 H 0.05153 0.44894 0.45198 0.0
H685 H 0.09458 0.45143 0.43671 0.0
H686 H 0.0292 0.3946 0.43865 0.0
H687 H 1.00846 0.40686 0.41042 0.0
H688 H 0.07348 0.46398 0.40844 0.0
H689 H 0.01567 0.46934 0.40452 0.0
H690 H 1.01363 0.60507 0.44333 0.0
H691 H 0.10532 0.67235 0.43756 0.0
H692 H 0.1394 0.54954 0.42373 0.0
C693 C 0.92768 0.401 0.433 0.0
C694 C 0.8793 0.39852 0.4368 0.0
C695 C 0.87963 0.4446 0.442 0.0
C696 C 0.92672 0.49291 0.44289 0.0
C697 C 0.97343 0.49467 0.4386 0.0
C698 C 0.97481 0.45016 0.43391 0.0
C699 C 0.03065 0.4647 0.42909 0.0
C700 C 0.0528 0.43835 0.43974 0.0
C701 C 0.03212 0.45037 0.41211 0.0
C702 C 0.05961 0.52432 0.4314 0.0
C703 C 0.02545 0.54026 0.43696 0.0
C704 C 0.0411 0.59318 0.4392 0.0
C705 C 0.09327 0.63114 0.43576 0.0
C706 C 0.12958 0.61626 0.4302 0.0
C707 C 0.11261 0.56199 0.42811 0.0
H708 H 0.60376 0.14314 0.75832 0.0
H709 H 0.46475 0.11198 0.78482 0.0
H710 H 0.44589 0.02153 0.7899 0.0
H711 H 0.54574 0.01859 0.74016 0.0
H712 H 0.60393 0.012 0.74065 0.0
H713 H 0.61068 0.0767 0.74033 0.0
H714 H 0.66689 0.10147 0.76527 0.0
H715 H 0.66024 0.0367 0.76567 0.0
H716 H 0.64052 0.06033 0.78214 0.0
H717 H 0.43603 0.9333 0.79022 0.0
H718 H 0.43544 0.84989 0.78554 0.0
H719 H 0.58101 0.93449 0.75931 0.0
C720 C 0.56996 0.11748 0.76542 0.0
C721 C 0.53578 0.13479 0.77119 0.0
C722 C 0.49143 0.09974 0.78021 0.0
C723 C 0.48048 0.04826 0.78326 0.0
C724 C 0.51424 0.03208 0.77724 0.0
C725 C 0.55814 0.06538 0.76853 0.0
C726 C 0.58553 0.03615 0.76262 0.0
C727 C 0.5865 0.03584 0.74489 0.0
C728 C 0.64163 0.0601 0.76933 0.0
C729 C 0.54925 0.98108 0.76906 0.0
C730 C 0.50874 0.98013 0.77757 0.0
C731 C 0.46797 0.93359 0.78381 0.0
C732 C 0.46791 0.88644 0.78106 0.0
C733 C 0.50848 0.88602 0.77226 0.0
C734 C 0.5503 0.93409 0.76641 0.0
H735 H 0.55269 0.63485 0.58335 0.0
H736 H 0.38453 0.56182 0.59344 0.0
H737 H 0.37835 0.47534 0.59553 0.0
H738 H 0.54328 0.52752 0.56033 0.0
H739 H 0.60376 0.53287 0.5675 0.0
H740 H 0.59628 0.59043 0.56691 0.0
H741 H 0.61715 0.60529 0.5961 0.0
H742 H 0.62458 0.54768 0.59678 0.0
H743 H 0.57836 0.5526 0.60948 0.0
H744 H 0.38789 0.39669 0.59594 0.0
H745 H 0.41353 0.32845 0.59485 0.0
H746 H 0.57601 0.44907 0.58512 0.0
C747 C 0.51467 0.60064 0.58601 0.0
C748 C 0.46915 0.60547 0.58823 0.0
C749 C 0.42011 0.55958 0.59171 0.0
C750 C 0.41605 0.51003 0.59293 0.0
C751 C 0.46136 0.50658 0.59072 0.0
C752 C 0.50982 0.55037 0.58736 0.0
C753 C 0.55196 0.53468 0.58546 0.0
C754 C 0.57518 0.54711 0.56907 0.0
C755 C 0.5956 0.56167 0.59768 0.0
C756 C 0.51928 0.47535 0.5882 0.0
C757 C 0.46713 0.46034 0.59119 0.0
C758 C 0.42865 0.40785 0.59368 0.0
C759 C 0.44364 0.36934 0.59301 0.0
C760 C 0.49677 0.38334 0.58995 0.0
C761 C 0.53521 0.43724 0.58764 0.0
H762 H 0.09047 0.45347 0.92468 0.0
H763 H 0.18258 0.62342 0.91724 0.0
H764 H 0.10113 0.62782 0.91637 0.0
H765 H 0.98035 0.4307 0.89954 0.0
H766 H 0.93031 0.38144 0.91191 0.0
H767 H 0.99598 0.39016 0.91164 0.0
H768 H 1.00311 0.40496 0.94117 0.0
H769 H 0.93753 0.39637 0.94153 0.0
H770 H 0.99254 0.45575 0.94927 0.0
H771 H 1.01267 0.61655 0.91712 0.0
H772 H 0.91853 0.58916 0.91887 0.0
H773 H 0.87941 0.42596 0.92545 0.0
C774 C 0.09334 0.49145 0.92279 0.0
C775 C 0.14316 0.53806 0.92106 0.0
C776 C 0.14517 0.58707 0.91864 0.0
C777 C 0.09903 0.59013 0.9181 0.0
C778 C 0.05083 0.54387 0.91995 0.0
C779 C 0.04725 0.49535 0.92219 0.0
C780 C 0.98975 0.45213 0.92402 0.0
C781 C 0.97313 0.41119 0.911 0.0
C782 C 0.98019 0.42576 0.93995 0.0
C783 C 0.96211 0.48434 0.92258 0.0
C784 C 0.99848 0.53713 0.92024 0.0
C785 C 0.98361 0.5753 0.91888 0.0
C786 C 0.92992 0.55925 0.91994 0.0
C787 C 0.89146 0.50539 0.9223 0.0
C788 C 0.90785 0.46736 0.92356 0.0
H789 H 0.40431 0.93309 0.2602 0.0
H790 H 0.48067 0.84031 0.25208 0.0
H791 H 0.56652 0.92244 0.24901 0.0
H792 H 0.4809 0.03638 0.23295 0.0
H793 H 0.48435 0.08852 0.24487 0.0
H794 H 0.42866 0.02244 0.2465 0.0
H795 H 0.44647 0.02228 0.27576 0.0
H796 H 0.50207 0.08844 0.27423 0.0
H797 H 0.51102 0.03646 0.28221 0.0
H798 H 0.64417 0.01473 0.24643 0.0
H799 H 0.70852 0.11046 0.2456 0.0
H800 H 0.58227 0.14363 0.25571 0.0
C801 C 0.43908 0.92999 0.25781 0.0
C802 C 0.43556 0.88004 0.25639 0.0
C803 C 0.48217 0.87794 0.25327 0.0
C804 C 0.5312 0.92444 0.25146 0.0
C805 C 0.53321 0.97292 0.25285 0.0
C806 C 0.48847 0.97607 0.25603 0.0
C807 C 0.50163 0.03324 0.25708 0.0
C808 C 0.47213 0.04587 0.24461 0.0
C809 C 0.48959 0.04583 0.27328 0.0
C810 C 0.56073 0.06169 0.25398 0.0
C811 C 0.57808 0.02614 0.2515 0.0
C812 C 0.63104 0.04294 0.24838 0.0
C813 C 0.66732 0.09748 0.2479 0.0
C814 C 0.65064 0.13477 0.25059 0.0
C815 C 0.59644 0.11631 0.2536 0.0
loop_
_geom_bond_atom_site_label_1
_geom_bond_atom_site_label_2
_geom_bond_distance
_geom_bond_site_symmetry_2
_ccdc_geom_bond_type
C0 O2 1.247 . S
C0 O4 1.258 . S
C1 O8 1.247 . S
C1 O9 1.258 . S
O2 C0 1.247 . S
O2 Zn3 2.028 . S
Zn3 O2 2.028 . S
Zn3 O7 2.035 . S
Zn3 O9 2.035 . S
Zn3 O10 2.028 . S
O4 C0 1.258 . S
O4 Zn5 2.035 . S
Zn5 O4 2.035 . S
Zn5 O6 2.028 . S
Zn5 O8 2.028 . S
Zn5 O11 2.035 . S
O6 Zn5 2.028 . S
O6 C12 1.247 . S
O7 Zn3 2.035 . S
O7 C12 1.258 . S
O8 C1 1.247 . S
O8 Zn5 2.028 . S
O9 C1 1.258 . S
O9 Zn3 2.035 . S
O10 Zn3 2.028 . S
O10 C13 1.247 . S
O11 Zn5 2.035 . S
O11 C13 1.258 . S
C12 O6 1.247 . S
C12 O7 1.258 . S
C13 O10 1.247 . S
C13 O11 1.258 . S
C14 O16 1.247 . S
C14 O18 1.258 . S
C15 O22 1.247 . S
C15 O23 1.258 . S
O16 C14 1.247 . S
O16 Zn17 2.028 . S
Zn17 O16 2.028 . S
Zn17 O21 2.035 . S
Zn17 O23 2.035 . S
Zn17 O24 2.028 . S
O18 C14 1.258 . S
O18 Zn19 2.035 . S
Zn19 O18 2.035 . S
Zn19 O20 2.028 . S
Zn19 O22 2.028 . S
Zn19 O25 2.035 . S
O20 Zn19 2.028 . S
O20 C26 1.247 . S
O21 Zn17 2.035 . S
O21 C26 1.258 . S
O22 C15 1.247 . S
O22 Zn19 2.028 . S
O23 C15 1.258 . S
O23 Zn17 2.035 . S
O24 Zn17 2.028 . S
O24 C27 1.247 . S
O25 Zn19 2.035 . S
O25 C27 1.258 . S
C26 O20 1.247 . S
C26 O21 1.258 . S
C27 O24 1.247 . S
C27 O25 1.258 . S
C28 O30 1.247 . S
C28 O32 1.258 . S
C29 O36 1.247 . S
C29 O37 1.258 . S
O30 C28 1.247 . S
O30 Zn31 2.028 . S
Zn31 O30 2.028 . S
Zn31 O35 2.035 . S
Zn31 O37 2.035 . S
Zn31 O38 2.028 . S
O32 C28 1.258 . S
O32 Zn33 2.035 . S
Zn33 O32 2.035 . S
Zn33 O34 2.028 . S
Zn33 O36 2.028 . S
Zn33 O39 2.035 . S
O34 Zn33 2.028 . S
O34 C40 1.247 . S
O35 Zn31 2.035 . S
O35 C40 1.258 . S
O36 C29 1.247 . S
O36 Zn33 2.028 . S
O37 C29 1.258 . S
O37 Zn31 2.035 . S
O38 Zn31 2.028 . S
O38 C41 1.247 . S
O39 Zn33 2.035 . S
O39 C41 1.258 . S
C40 O34 1.247 . S
C40 O35 1.258 . S
C41 O38 1.247 . S
C41 O39 1.258 . S
C42 O44 1.247 . S
C42 O46 1.258 . S
C43 O50 1.247 . S
C43 O51 1.258 . S
O44 C42 1.247 . S
O44 Zn45 2.028 . S
Zn45 O44 2.028 . S
Zn45 O49 2.035 . S
Zn45 O51 2.035 . S
Zn45 O52 2.028 . S
O46 C42 1.258 . S
O46 Zn47 2.035 . S
Zn47 O46 2.035 . S
Zn47 O48 2.028 . S
Zn47 O50 2.028 . S
Zn47 O53 2.035 . S
O48 Zn47 2.028 . S
O48 C54 1.247 . S
O49 Zn45 2.035 . S
O49 C54 1.258 . S
O50 C43 1.247 . S
O50 Zn47 2.028 . S
O51 C43 1.258 . S
O51 Zn45 2.035 . S
O52 Zn45 2.028 . S
O52 C55 1.247 . S
O53 Zn47 2.035 . S
O53 C55 1.258 . S
C54 O48 1.247 . S
C54 O49 1.258 . S
C55 O52 1.247 . S
C55 O53 1.258 . S
C56 O58 1.247 . S
C56 O60 1.258 . S
C57 O64 1.247 . S
C57 O65 1.258 . S
O58 C56 1.247 . S
O58 Zn59 2.028 . S
Zn59 O58 2.028 . S
Zn59 O63 2.035 . S
Zn59 O65 2.035 . S
Zn59 O66 2.028 . S
O60 C56 1.258 . S
O60 Zn61 2.035 . S
Zn61 O60 2.035 . S
Zn61 O62 2.028 . S
Zn61 O64 2.028 . S
Zn61 O67 2.035 . S
O62 Zn61 2.028 . S
O62 C68 1.247 . S
O63 Zn59 2.035 . S
O63 C68 1.258 . S
O64 C57 1.247 . S
O64 Zn61 2.028 . S
O65 C57 1.258 . S
O65 Zn59 2.035 . S
O66 Zn59 2.028 . S
O66 C69 1.247 . S
O67 Zn61 2.035 . S
O67 C69 1.258 . S
C68 O62 1.247 . S
C68 O63 1.258 . S
C69 O66 1.247 . S
C69 O67 1.258 . S
C70 O72 1.247 . S
C70 O74 1.258 . S
C71 O78 1.247 . S
C71 O79 1.258 . S
O72 C70 1.247 . S
O72 Zn73 2.028 . S
Zn73 O72 2.028 . S
Zn73 O77 2.035 . S
Zn73 O79 2.035 . S
Zn73 O80 2.028 . S
O74 C70 1.258 . S
O74 Zn75 2.035 . S
Zn75 O74 2.035 . S
Zn75 O76 2.028 . S
Zn75 O78 2.028 . S
Zn75 O81 2.035 . S
O76 Zn75 2.028 . S
O76 C82 1.247 . S
O77 Zn73 2.035 . S
O77 C82 1.258 . S
O78 C71 1.247 . S
O78 Zn75 2.028 . S
O79 C71 1.258 . S
O79 Zn73 2.035 . S
O80 Zn73 2.028 . S
O80 C83 1.247 . S
O81 Zn75 2.035 . S
O81 C83 1.258 . S
C82 O76 1.247 . S
C82 O77 1.258 . S
C83 O80 1.247 . S
C83 O81 1.258 . S
C84 O86 1.247 . S
C84 O88 1.258 . S
C85 O92 1.247 . S
C85 O93 1.258 . S
O86 C84 1.247 . S
O86 Zn87 2.028 . S
Zn87 O86 2.028 . S
Zn87 O91 2.035 . S
Zn87 O93 2.035 . S
Zn87 O94 2.028 . S
O88 C84 1.258 . S
O88 Zn89 2.035 . S
Zn89 O88 2.035 . S
Zn89 O90 2.028 . S
Zn89 O92 2.028 . S
Zn89 O95 2.035 . S
O90 Zn89 2.028 . S
O90 C96 1.247 . S
O91 Zn87 2.035 . S
O91 C96 1.258 . S
O92 C85 1.247 . S
O92 Zn89 2.028 . S
O93 C85 1.258 . S
O93 Zn87 2.035 . S
O94 Zn87 2.028 . S
O94 C97 1.247 . S
O95 Zn89 2.035 . S
O95 C97 1.258 . S
C96 O90 1.247 . S
C96 O91 1.258 . S
C97 O94 1.247 . S
C97 O95 1.258 . S
C98 O100 1.247 . S
C98 O102 1.258 . S
C99 O106 1.247 . S
C99 O107 1.258 . S
O100 C98 1.247 . S
O100 Zn101 2.028 . S
Zn101 O100 2.028 . S
Zn101 O105 2.035 . S
Zn101 O107 2.035 . S
Zn101 O108 2.028 . S
O102 C98 1.258 . S
O102 Zn103 2.035 . S
Zn103 O102 2.035 . S
Zn103 O104 2.028 . S
Zn103 O106 2.028 . S
Zn103 O109 2.035 . S
O104 Zn103 2.028 . S
O104 C110 1.247 . S
O105 Zn101 2.035 . S
O105 C110 1.258 . S
O106 C99 1.247 . S
O106 Zn103 2.028 . S
O107 C99 1.258 . S
O107 Zn101 2.035 . S
O108 Zn101 2.028 . S
O108 C111 1.247 . S
O109 Zn103 2.035 . S
O109 C111 1.258 . S
C110 O104 1.247 . S
C110 O105 1.258 . S
C111 O108 1.247 . S
C111 O109 1.258 . S
C112 O114 1.247 . S
C112 O116 1.258 . S
C113 O120 1.247 . S
C113 O121 1.258 . S
O114 C112 1.247 . S
O114 Zn115 2.028 . S
Zn115 O114 2.028 . S
Zn115 O119 2.035 . S
Zn115 O121 2.035 . S
Zn115 O122 2.028 . S
O116 C112 1.258 . S
O116 Zn117 2.035 . S
Zn117 O116 2.035 . S
Zn117 O118 2.028 . S
Zn117 O120 2.028 . S
Zn117 O123 2.035 . S
O118 Zn117 2.028 . S
O118 C124 1.247 . S
O119 Zn115 2.035 . S
O119 C124 1.258 . S
O120 C113 1.247 . S
O120 Zn117 2.028 . S
O121 C113 1.258 . S
O121 Zn115 2.035 . S
O122 Zn115 2.028 . S
O122 C125 1.247 . S
O123 Zn117 2.035 . S
O123 C125 1.258 . S
C124 O118 1.247 . S
C124 O119 1.258 . S
C125 O122 1.247 . S
C125 O123 1.258 . S
C126 O128 1.247 . S
C126 O130 1.258 . S
C127 O134 1.247 . S
C127 O135 1.258 . S
O128 C126 1.247 . S
O128 Zn129 2.028 . S
Zn129 O128 2.028 . S
Zn129 O133 2.035 . S
Zn129 O135 2.035 . S
Zn129 O136 2.028 . S
O130 C126 1.258 . S
O130 Zn131 2.035 . S
Zn131 O130 2.035 . S
Zn131 O132 2.028 . S
Zn131 O134 2.028 . S
Zn131 O137 2.035 . S
O132 Zn131 2.028 . S
O132 C138 1.247 . S
O133 Zn129 2.035 . S
O133 C138 1.258 . S
O134 C127 1.247 . S
O134 Zn131 2.028 . S
O135 C127 1.258 . S
O135 Zn129 2.035 . S
O136 Zn129 2.028 . S
O136 C139 1.247 . S
O137 Zn131 2.035 . S
O137 C139 1.258 . S
C138 O132 1.247 . S
C138 O133 1.258 . S
C139 O136 1.247 . S
C139 O137 1.258 . S
C140 O142 1.247 . S
C140 O144 1.258 . S
C141 O148 1.247 . S
C141 O149 1.258 . S
O142 C140 1.247 . S
O142 Zn143 2.028 . S
Zn143 O142 2.028 . S
Zn143 O147 2.035 . S
Zn143 O149 2.035 . S
Zn143 O150 2.028 . S
O144 C140 1.258 . S
O144 Zn145 2.035 . S
Zn145 O144 2.035 . S
Zn145 O146 2.028 . S
Zn145 O148 2.028 . S
Zn145 O151 2.035 . S
O146 Zn145 2.028 . S
O146 C152 1.247 . S
O147 Zn143 2.035 . S
O147 C152 1.258 . S
O148 C141 1.247 . S
O148 Zn145 2.028 . S
O149 C141 1.258 . S
O149 Zn143 2.035 . S
O150 Zn143 2.028 . S
O150 C153 1.247 . S
O151 Zn145 2.035 . S
O151 C153 1.258 . S
C152 O146 1.247 . S
C152 O147 1.258 . S
C153 O150 1.247 . S
C153 O151 1.258 . S
C154 O156 1.247 . S
C154 O158 1.258 . S
C155 O162 1.247 . S
C155 O163 1.258 . S
O156 C154 1.247 . S
O156 Zn157 2.028 . S
Zn157 O156 2.028 . S
Zn157 O161 2.035 . S
Zn157 O163 2.035 . S
Zn157 O164 2.028 . S
O158 C154 1.258 . S
O158 Zn159 2.035 . S
Zn159 O158 2.035 . S
Zn159 O160 2.028 . S
Zn159 O162 2.028 . S
Zn159 O165 2.035 . S
O160 Zn159 2.028 . S
O160 C166 1.247 . S
O161 Zn157 2.035 . S
O161 C166 1.258 . S
O162 C155 1.247 . S
O162 Zn159 2.028 . S
O163 C155 1.258 . S
O163 Zn157 2.035 . S
O164 Zn157 2.028 . S
O164 C167 1.247 . S
O165 Zn159 2.035 . S
O165 C167 1.258 . S
C166 O160 1.247 . S
C166 O161 1.258 . S
C167 O164 1.247 . S
C167 O165 1.258 . S
H168 C180 0.930 . S
H169 C182 0.930 . S
H170 C183 0.930 . S
H171 C187 0.959 . S
H172 C187 0.959 . S
H173 C187 0.961 1_556 S
H174 C188 0.961 . S
H175 C188 0.960 1_554 S
H176 C188 0.958 1_554 S
H177 C191 0.929 . S
H178 C192 0.931 . S
H179 C194 0.930 . S
C180 H168 0.930 . S
C180 C181 1.399 . S
C180 C185 1.399 . S
C181 C180 1.399 . S
C181 C182 1.376 . S
C182 H169 0.930 . S
C182 C181 1.376 . S
C182 C183 1.388 . S
C183 H170 0.930 . S
C183 C182 1.388 . S
C183 C184 1.390 . S
C184 C183 1.390 . S
C184 C185 1.394 . S
C184 C190 1.465 1_556 S
C185 C180 1.399 . S
C185 C184 1.394 . S
C185 C186 1.504 1_556 S
C186 C185 1.504 1_554 S
C186 C187 1.503 . S
C186 C188 1.561 1_554 S
C186 C189 1.538 . S
C187 H171 0.959 . S
C187 H172 0.959 . S
C187 H173 0.961 1_554 S
C187 C186 1.503 . S
C188 H174 0.961 . S
C188 H175 0.960 1_556 S
C188 H176 0.958 1_556 S
C188 C186 1.561 1_556 S
C189 C186 1.538 . S
C189 C190 1.396 . S
C189 C194 1.390 . S
C190 C184 1.465 1_554 S
C190 C189 1.396 . S
C190 C191 1.399 . S
C191 H177 0.929 . S
C191 C190 1.399 . S
C191 C192 1.385 . S
C192 H178 0.931 . S
C192 C191 1.385 . S
C192 C193 1.389 . S
C193 C192 1.389 . S
C193 C194 1.387 . S
C194 H179 0.930 . S
C194 C189 1.390 . S
C194 C193 1.387 . S
H195 C207 0.930 . S
H196 C209 0.930 . S
H197 C210 0.930 . S
H198 C214 0.959 . S
H199 C214 0.959 . S
H200 C214 0.961 . S
H201 C215 0.960 . S
H202 C215 0.961 . S
H203 C215 0.959 . S
H204 C218 0.929 . S
H205 C219 0.931 . S
H206 C221 0.930 . S
C207 H195 0.930 . S
C207 C208 1.399 . S
C207 C212 1.399 . S
C208 C207 1.399 . S
C208 C209 1.376 . S
C209 H196 0.930 . S
C209 C208 1.376 . S
C209 C210 1.388 . S
C210 H197 0.930 . S
C210 C209 1.388 . S
C210 C211 1.390 . S
C211 C210 1.390 . S
C211 C212 1.394 . S
C211 C217 1.465 . S
C212 C207 1.399 . S
C212 C211 1.394 . S
C212 C213 1.516 . S
C213 C212 1.516 . S
C213 C214 1.502 . S
C213 C215 1.561 . S
C213 C216 1.526 . S
C214 H198 0.959 . S
C214 H199 0.959 . S
C214 H200 0.961 . S
C214 C213 1.502 . S
C215 H201 0.960 . S
C215 H202 0.961 . S
C215 H203 0.959 . S
C215 C213 1.561 . S
C216 C213 1.526 . S
C216 C217 1.396 . S
C216 C221 1.390 . S
C217 C211 1.465 . S
C217 C216 1.396 . S
C217 C218 1.399 . S
C218 H204 0.929 . S
C218 C217 1.399 . S
C218 C219 1.385 . S
C219 H205 0.931 . S
C219 C218 1.385 . S
C219 C220 1.389 . S
C220 C219 1.389 . S
C220 C221 1.387 . S
C221 H206 0.930 . S
C221 C216 1.390 . S
C221 C220 1.387 . S
H222 C234 0.930 . S
H223 C236 0.930 . S
H224 C237 0.930 . S
H225 C241 0.959 . S
H226 C241 0.959 . S
H227 C241 0.961 . S
H228 C242 0.960 . S
H229 C242 0.961 . S
H230 C242 0.959 . S
H231 C245 0.929 . S
H232 C246 0.931 . S
H233 C248 0.930 . S
C234 H222 0.930 . S
C234 C235 1.399 . S
C234 C239 1.399 . S
C235 C234 1.399 . S
C235 C236 1.376 . S
C236 H223 0.930 . S
C236 C235 1.376 . S
C236 C237 1.388 . S
C237 H224 0.930 . S
C237 C236 1.388 . S
C237 C238 1.390 . S
C238 C237 1.390 . S
C238 C239 1.394 . S
C238 C244 1.465 . S
C239 C234 1.399 . S
C239 C238 1.394 . S
C239 C240 1.516 . S
C240 C239 1.516 . S
C240 C241 1.502 . S
C240 C242 1.561 . S
C240 C243 1.526 . S
C241 H225 0.959 . S
C241 H226 0.959 . S
C241 H227 0.961 . S
C241 C240 1.502 . S
C242 H228 0.960 . S
C242 H229 0.961 . S
C242 H230 0.959 . S
C242 C240 1.561 . S
C243 C240 1.526 . S
C243 C244 1.396 . S
C243 C248 1.390 . S
C244 C238 1.465 . S
C244 C243 1.396 . S
C244 C245 1.399 . S
C245 H231 0.929 . S
C245 C244 1.399 . S
C245 C246 1.385 . S
C246 H232 0.931 . S
C246 C245 1.385 . S
C246 C247 1.389 . S
C247 C246 1.389 . S
C247 C248 1.387 . S
C248 H233 0.930 . S
C248 C243 1.390 . S
C248 C247 1.387 . S
H249 C261 0.930 . S
H250 C263 0.930 . S
H251 C264 0.930 . S
H252 C268 0.959 . S
H253 C268 0.959 . S
H254 C268 0.961 1_554 S
H255 C269 0.964 . S
H256 C269 0.957 1_556 S
H257 C269 0.958 1_556 S
H258 C272 0.929 . S
H259 C273 0.931 . S
H260 C275 0.930 . S
C261 H249 0.930 . S
C261 C262 1.399 . S
C261 C266 1.399 . S
C262 C261 1.399 . S
C262 C263 1.376 . S
C263 H250 0.930 . S
C263 C262 1.376 . S
C263 C264 1.388 . S
C264 H251 0.930 . S
C264 C263 1.388 . S
C264 C265 1.390 . S
C265 C264 1.390 . S
C265 C266 1.394 . S
C265 C271 1.465 1_554 S
C266 C261 1.399 . S
C266 C265 1.394 . S
C266 C267 1.506 1_554 S
C267 C266 1.506 1_556 S
C267 C268 1.503 . S
C267 C269 1.561 1_556 S
C267 C270 1.536 . S
C268 H252 0.959 . S
C268 H253 0.959 . S
C268 H254 0.961 1_556 S
C268 C267 1.503 . S
C269 H255 0.964 . S
C269 H256 0.957 1_554 S
C269 H257 0.958 1_554 S
C269 C267 1.561 1_554 S
C270 C267 1.536 . S
C270 C271 1.396 . S
C270 C275 1.390 . S
C271 C265 1.465 1_556 S
C271 C270 1.396 . S
C271 C272 1.399 . S
C272 H258 0.929 . S
C272 C271 1.399 . S
C272 C273 1.385 . S
C273 H259 0.931 . S
C273 C272 1.385 . S
C273 C274 1.389 . S
C274 C273 1.389 . S
C274 C275 1.387 . S
C275 H260 0.930 . S
C275 C270 1.390 . S
C275 C274 1.387 . S
H276 C288 0.930 . S
H277 C290 0.930 . S
H278 C291 0.930 . S
H279 C295 0.959 . S
H280 C295 0.959 . S
H281 C295 0.961 . S
H282 C296 0.960 . S
H283 C296 0.961 . S
H284 C296 0.959 . S
H285 C299 0.929 . S
H286 C300 0.931 . S
H287 C302 0.930 . S
C288 H276 0.930 . S
C288 C289 1.399 . S
C288 C293 1.399 . S
C289 C288 1.399 . S
C289 C290 1.376 . S
C290 H277 0.930 . S
C290 C289 1.376 . S
C290 C291 1.388 . S
C291 H278 0.930 . S
C291 C290 1.388 . S
C291 C292 1.390 . S
C292 C291 1.390 . S
C292 C293 1.394 . S
C292 C298 1.465 . S
C293 C288 1.399 . S
C293 C292 1.394 . S
C293 C294 1.516 . S
C294 C293 1.516 . S
C294 C295 1.502 . S
C294 C296 1.561 . S
C294 C297 1.526 . S
C295 H279 0.959 . S
C295 H280 0.959 . S
C295 H281 0.961 . S
C295 C294 1.502 . S
C296 H282 0.960 . S
C296 H283 0.961 . S
C296 H284 0.959 . S
C296 C294 1.561 . S
C297 C294 1.526 . S
C297 C298 1.396 . S
C297 C302 1.390 . S
C298 C292 1.465 . S
C298 C297 1.396 . S
C298 C299 1.399 . S
C299 H285 0.929 . S
C299 C298 1.399 . S
C299 C300 1.385 . S
C300 H286 0.931 . S
C300 C299 1.385 . S
C300 C301 1.389 . S
C301 C300 1.389 . S
C301 C302 1.387 . S
C302 H287 0.930 . S
C302 C297 1.390 . S
C302 C301 1.387 . S
H303 C315 0.930 . S
H304 C317 0.930 . S
H305 C318 0.930 . S
H306 C322 0.959 . S
H307 C322 0.959 . S
H308 C322 0.961 . S
H309 C323 0.960 . S
H310 C323 0.961 . S
H311 C323 0.959 . S
H312 C326 0.929 . S
H313 C327 0.931 . S
H314 C329 0.930 . S
C315 H303 0.930 . S
C315 C316 1.399 . S
C315 C320 1.399 . S
C316 C315 1.399 . S
C316 C317 1.376 . S
C317 H304 0.930 . S
C317 C316 1.376 . S
C317 C318 1.388 . S
C318 H305 0.930 . S
C318 C317 1.388 . S
C318 C319 1.390 . S
C319 C318 1.390 . S
C319 C320 1.394 . S
C319 C325 1.465 . S
C320 C315 1.399 . S
C320 C319 1.394 . S
C320 C321 1.516 . S
C321 C320 1.516 . S
C321 C322 1.502 . S
C321 C323 1.561 . S
C321 C324 1.526 . S
C322 H306 0.959 . S
C322 H307 0.959 . S
C322 H308 0.961 . S
C322 C321 1.502 . S
C323 H309 0.960 . S
C323 H310 0.961 . S
C323 H311 0.959 . S
C323 C321 1.561 . S
C324 C321 1.526 . S
C324 C325 1.396 . S
C324 C329 1.390 . S
C325 C319 1.465 . S
C325 C324 1.396 . S
C325 C326 1.399 . S
C326 H312 0.929 . S
C326 C325 1.399 . S
C326 C327 1.385 . S
C327 H313 0.931 . S
C327 C326 1.385 . S
C327 C328 1.389 . S
C328 C327 1.389 . S
C328 C329 1.387 . S
C329 H314 0.930 . S
C329 C324 1.390 . S
C329 C328 1.387 . S
H330 C342 0.930 . S
H331 C344 0.930 . S
H332 C345 0.930 . S
H333 C349 0.959 . S
H334 C349 0.959 . S
H335 C349 0.961 . S
H336 C350 0.960 . S
H337 C350 0.961 . S
H338 C350 0.959 . S
H339 C353 0.929 . S
H340 C354 0.931 . S
H341 C356 0.930 . S
C342 H330 0.930 . S
C342 C343 1.399 . S
C342 C347 1.399 . S
C343 C342 1.399 . S
C343 C344 1.376 . S
C344 H331 0.930 . S
C344 C343 1.376 . S
C344 C345 1.388 . S
C345 H332 0.930 . S
C345 C344 1.388 . S
C345 C346 1.390 . S
C346 C345 1.390 . S
C346 C347 1.394 . S
C346 C352 1.465 . S
C347 C342 1.399 . S
C347 C346 1.394 . S
C347 C348 1.516 . S
C348 C347 1.516 . S
C348 C349 1.502 . S
C348 C350 1.561 . S
C348 C351 1.526 . S
C349 H333 0.959 . S
C349 H334 0.959 . S
C349 H335 0.961 . S
C349 C348 1.502 . S
C350 H336 0.960 . S
C350 H337 0.961 . S
C350 H338 0.959 . S
C350 C348 1.561 . S
C351 C348 1.526 . S
C351 C352 1.396 . S
C351 C356 1.390 . S
C352 C346 1.465 . S
C352 C351 1.396 . S
C352 C353 1.399 . S
C353 H339 0.929 . S
C353 C352 1.399 . S
C353 C354 1.385 . S
C354 H340 0.931 . S
C354 C353 1.385 . S
C354 C355 1.389 . S
C355 C354 1.389 . S
C355 C356 1.387 . S
C356 H341 0.930 . S
C356 C351 1.390 . S
C356 C355 1.387 . S
H357 C369 0.930 . S
H358 C371 0.930 . S
H359 C372 0.930 . S
H360 C376 0.959 . S
H361 C376 0.959 . S
H362 C376 0.961 . S
H363 C377 0.960 . S
H364 C377 0.961 . S
H365 C377 0.959 . S
H366 C380 0.929 . S
H367 C381 0.931 . S
H368 C383 0.930 . S
C369 H357 0.930 . S
C369 C370 1.399 . S
C369 C374 1.399 . S
C370 C369 1.399 . S
C370 C371 1.376 . S
C371 H358 0.930 . S
C371 C370 1.376 . S
C371 C372 1.388 . S
C372 H359 0.930 . S
C372 C371 1.388 . S
C372 C373 1.390 . S
C373 C372 1.390 . S
C373 C374 1.394 . S
C373 C379 1.465 . S
C374 C369 1.399 . S
C374 C373 1.394 . S
C374 C375 1.516 . S
C375 C374 1.516 . S
C375 C376 1.502 . S
C375 C377 1.561 . S
C375 C378 1.526 . S
C376 H360 0.959 . S
C376 H361 0.959 . S
C376 H362 0.961 . S
C376 C375 1.502 . S
C377 H363 0.960 . S
C377 H364 0.961 . S
C377 H365 0.959 . S
C377 C375 1.561 . S
C378 C375 1.526 . S
C378 C379 1.396 . S
C378 C383 1.390 . S
C379 C373 1.465 . S
C379 C378 1.396 . S
C379 C380 1.399 . S
C380 H366 0.929 . S
C380 C379 1.399 . S
C380 C381 1.385 . S
C381 H367 0.931 . S
C381 C380 1.385 . S
C381 C382 1.389 . S
C382 C381 1.389 . S
C382 C383 1.387 . S
C383 H368 0.930 . S
C383 C378 1.390 . S
C383 C382 1.387 . S
H384 C396 0.930 . S
H385 C398 0.930 . S
H386 C399 0.930 . S
H387 C403 0.959 . S
H388 C403 0.959 . S
H389 C403 0.961 . S
H390 C404 0.960 . S
H391 C404 0.961 . S
H392 C404 0.959 . S
H393 C407 0.929 . S
H394 C408 0.931 . S
H395 C410 0.930 . S
C396 H384 0.930 . S
C396 C397 1.399 . S
C396 C401 1.399 . S
C397 C396 1.399 . S
C397 C398 1.376 . S
C398 H385 0.930 . S
C398 C397 1.376 . S
C398 C399 1.388 . S
C399 H386 0.930 . S
C399 C398 1.388 . S
C399 C400 1.390 . S
C400 C399 1.390 . S
C400 C401 1.394 . S
C400 C406 1.465 . S
C401 C396 1.399 . S
C401 C400 1.394 . S
C401 C402 1.516 . S
C402 C401 1.516 . S
C402 C403 1.502 . S
C402 C404 1.561 . S
C402 C405 1.526 . S
C403 H387 0.959 . S
C403 H388 0.959 . S
C403 H389 0.961 . S
C403 C402 1.502 . S
C404 H390 0.960 . S
C404 H391 0.961 . S
C404 H392 0.959 . S
C404 C402 1.561 . S
C405 C402 1.526 . S
C405 C406 1.396 . S
C405 C410 1.390 . S
C406 C400 1.465 . S
C406 C405 1.396 . S
C406 C407 1.399 . S
C407 H393 0.929 . S
C407 C406 1.399 . S
C407 C408 1.385 . S
C408 H394 0.931 . S
C408 C407 1.385 . S
C408 C409 1.389 . S
C409 C408 1.389 . S
C409 C410 1.387 . S
C410 H395 0.930 . S
C410 C405 1.390 . S
C410 C409 1.387 . S
H411 C423 0.930 . S
H412 C425 0.930 . S
H413 C426 0.930 . S
H414 C430 0.959 . S
H415 C430 0.959 . S
H416 C430 0.961 . S
H417 C431 0.960 . S
H418 C431 0.961 . S
H419 C431 0.959 . S
H420 C434 0.929 . S
H421 C435 0.931 . S
H422 C437 0.930 . S
C423 H411 0.930 . S
C423 C424 1.399 . S
C423 C428 1.399 . S
C424 C423 1.399 . S
C424 C425 1.376 . S
C425 H412 0.930 . S
C425 C424 1.376 . S
C425 C426 1.388 . S
C426 H413 0.930 . S
C426 C425 1.388 . S
C426 C427 1.390 . S
C427 C426 1.390 . S
C427 C428 1.394 . S
C427 C433 1.465 . S
C428 C423 1.399 . S
C428 C427 1.394 . S
C428 C429 1.516 . S
C429 C428 1.516 . S
C429 C430 1.502 . S
C429 C431 1.561 . S
C429 C432 1.526 . S
C430 H414 0.959 . S
C430 H415 0.959 . S
C430 H416 0.961 . S
C430 C429 1.502 . S
C431 H417 0.960 . S
C431 H418 0.961 . S
C431 H419 0.959 . S
C431 C429 1.561 . S
C432 C429 1.526 . S
C432 C433 1.396 . S
C432 C437 1.390 . S
C433 C427 1.465 . S
C433 C432 1.396 . S
C433 C434 1.399 . S
C434 H420 0.929 . S
C434 C433 1.399 . S
C434 C435 1.385 . S
C435 H421 0.931 . S
C435 C434 1.385 . S
C435 C436 1.389 . S
C436 C435 1.389 . S
C436 C437 1.387 . S
C437 H422 0.930 . S
C437 C432 1.390 . S
C437 C436 1.387 . S
H438 C450 0.930 . S
H439 C452 0.930 . S
H440 C453 0.930 . S
H441 C457 0.959 . S
H442 C457 0.959 . S
H443 C457 0.961 . S
H444 C458 0.960 . S
H445 C458 0.961 . S
H446 C458 0.959 . S
H447 C461 0.929 . S
H448 C462 0.931 . S
H449 C464 0.930 . S
C450 H438 0.930 . S
C450 C451 1.399 . S
C450 C455 1.399 . S
C451 C450 1.399 . S
C451 C452 1.376 . S
C452 H439 0.930 . S
C452 C451 1.376 . S
C452 C453 1.388 . S
C453 H440 0.930 . S
C453 C452 1.388 . S
C453 C454 1.390 . S
C454 C453 1.390 . S
C454 C455 1.394 . S
C454 C460 1.465 . S
C455 C450 1.399 . S
C455 C454 1.394 . S
C455 C456 1.516 . S
C456 C455 1.516 . S
C456 C457 1.502 . S
C456 C458 1.561 . S
C456 C459 1.526 . S
C457 H441 0.959 . S
C457 H442 0.959 . S
C457 H443 0.961 . S
C457 C456 1.502 . S
C458 H444 0.960 . S
C458 H445 0.961 . S
C458 H446 0.959 . S
C458 C456 1.561 . S
C459 C456 1.526 . S
C459 C460 1.396 . S
C459 C464 1.390 . S
C460 C454 1.465 . S
C460 C459 1.396 . S
C460 C461 1.399 . S
C461 H447 0.929 . S
C461 C460 1.399 . S
C461 C462 1.385 . S
C462 H448 0.931 . S
C462 C461 1.385 . S
C462 C463 1.389 . S
C463 C462 1.389 . S
C463 C464 1.387 . S
C464 H449 0.930 . S
C464 C459 1.390 . S
C464 C463 1.387 . S
H465 C477 0.930 . S
H466 C479 0.930 . S
H467 C480 0.930 . S
H468 C484 0.959 . S
H469 C484 0.959 . S
H470 C484 0.961 . S
H471 C485 0.960 . S
H472 C485 0.961 . S
H473 C485 0.959 . S
H474 C488 0.929 . S
H475 C489 0.931 . S
H476 C491 0.930 . S
C477 H465 0.930 . S
C477 C478 1.399 . S
C477 C482 1.399 . S
C478 C477 1.399 . S
C478 C479 1.376 . S
C479 H466 0.930 . S
C479 C478 1.376 . S
C479 C480 1.388 . S
C480 H467 0.930 . S
C480 C479 1.388 . S
C480 C481 1.390 . S
C481 C480 1.390 . S
C481 C482 1.394 . S
C481 C487 1.465 . S
C482 C477 1.399 . S
C482 C481 1.394 . S
C482 C483 1.516 . S
C483 C482 1.516 . S
C483 C484 1.502 . S
C483 C485 1.561 . S
C483 C486 1.526 . S
C484 H468 0.959 . S
C484 H469 0.959 . S
C484 H470 0.961 . S
C484 C483 1.502 . S
C485 H471 0.960 . S
C485 H472 0.961 . S
C485 H473 0.959 . S
C485 C483 1.561 . S
C486 C483 1.526 . S
C486 C487 1.396 . S
C486 C491 1.390 . S
C487 C481 1.465 . S
C487 C486 1.396 . S
C487 C488 1.399 . S
C488 H474 0.929 . S
C488 C487 1.399 . S
C488 C489 1.385 . S
C489 H475 0.931 . S
C489 C488 1.385 . S
C489 C490 1.389 . S
C490 C489 1.389 . S
C490 C491 1.387 . S
C491 H476 0.930 . S
C491 C486 1.390 . S
C491 C490 1.387 . S
H492 C504 0.930 . S
H493 C506 0.930 . S
H494 C507 0.930 . S
H495 C511 0.956 . S
H496 C511 0.959 1_455 S
H497 C511 0.961 . S
H498 C512 0.960 . S
H499 C512 0.961 1_455 S
H500 C512 0.959 . S
H501 C515 0.929 . S
H502 C516 0.931 . S
H503 C518 0.930 . S
C504 H492 0.930 . S
C504 C505 1.399 . S
C504 C509 1.399 . S
C505 C504 1.399 . S
C505 C506 1.376 . S
C506 H493 0.930 . S
C506 C505 1.376 . S
C506 C507 1.388 . S
C507 H494 0.930 . S
C507 C506 1.388 . S
C507 C508 1.390 . S
C508 C507 1.390 . S
C508 C509 1.394 . S
C508 C514 1.465 1_655 S
C509 C504 1.399 . S
C509 C508 1.394 . S
C509 C510 1.516 . S
C510 C509 1.516 . S
C510 C511 1.502 . S
C510 C512 1.561 . S
C510 C513 1.526 1_655 S
C511 H495 0.956 . S
C511 H496 0.959 1_655 S
C511 H497 0.961 . S
C511 C510 1.502 . S
C512 H498 0.960 . S
C512 H499 0.961 1_655 S
C512 H500 0.959 . S
C512 C510 1.561 . S
C513 C510 1.526 1_455 S
C513 C514 1.396 . S
C513 C518 1.390 . S
C514 C508 1.465 1_455 S
C514 C513 1.396 . S
C514 C515 1.399 . S
C515 H501 0.929 . S
C515 C514 1.399 . S
C515 C516 1.385 . S
C516 H502 0.931 . S
C516 C515 1.385 . S
C516 C517 1.389 . S
C517 C516 1.389 . S
C517 C518 1.387 . S
C518 H503 0.930 . S
C518 C513 1.390 . S
C518 C517 1.387 . S
H519 C531 0.930 . S
H520 C533 0.930 . S
H521 C534 0.930 . S
H522 C538 0.959 . S
H523 C538 0.959 . S
H524 C538 0.961 1_545 S
H525 C539 0.960 . S
H526 C539 0.961 1_565 S
H527 C539 0.959 . S
H528 C542 0.929 . S
H529 C543 0.931 . S
H530 C545 0.930 . S
C531 H519 0.930 . S
C531 C532 1.399 . S
C531 C536 1.399 . S
C532 C531 1.399 . S
C532 C533 1.376 . S
C533 H520 0.930 . S
C533 C532 1.376 . S
C533 C534 1.388 . S
C534 H521 0.930 . S
C534 C533 1.388 . S
C534 C535 1.390 . S
C535 C534 1.390 . S
C535 C536 1.394 . S
C535 C541 1.465 1_545 S
C536 C531 1.399 . S
C536 C535 1.394 . S
C536 C537 1.516 1_545 S
C537 C536 1.516 1_565 S
C537 C538 1.502 . S
C537 C539 1.561 1_565 S
C537 C540 1.526 . S
C538 H522 0.959 . S
C538 H523 0.959 . S
C538 H524 0.961 1_565 S
C538 C537 1.502 . S
C539 H525 0.960 . S
C539 H526 0.961 1_545 S
C539 H527 0.959 . S
C539 C537 1.561 1_545 S
C540 C537 1.526 . S
C540 C541 1.396 . S
C540 C545 1.390 . S
C541 C535 1.465 1_565 S
C541 C540 1.396 . S
C541 C542 1.399 . S
C542 H528 0.929 . S
C542 C541 1.399 . S
C542 C543 1.385 . S
C543 H529 0.931 . S
C543 C542 1.385 . S
C543 C544 1.389 . S
C544 C543 1.389 . S
C544 C545 1.387 . S
C545 H530 0.930 . S
C545 C540 1.390 . S
C545 C544 1.387 . S
H546 C558 0.930 . S
H547 C560 0.930 . S
H548 C561 0.930 . S
H549 C565 0.959 . S
H550 C565 0.959 . S
H551 C565 0.961 . S
H552 C566 0.960 . S
H553 C566 0.961 . S
H554 C566 0.959 . S
H555 C569 0.929 . S
H556 C570 0.931 . S
H557 C572 0.930 . S
C558 H546 0.930 . S
C558 C559 1.399 . S
C558 C563 1.399 . S
C559 C558 1.399 . S
C559 C560 1.376 . S
C560 H547 0.930 . S
C560 C559 1.376 . S
C560 C561 1.388 . S
C561 H548 0.930 . S
C561 C560 1.388 . S
C561 C562 1.390 . S
C562 C561 1.390 . S
C562 C563 1.394 . S
C562 C568 1.465 . S
C563 C558 1.399 . S
C563 C562 1.394 . S
C563 C564 1.516 . S
C564 C563 1.516 . S
C564 C565 1.502 . S
C564 C566 1.561 . S
C564 C567 1.526 . S
C565 H549 0.959 . S
C565 H550 0.959 . S
C565 H551 0.961 . S
C565 C564 1.502 . S
C566 H552 0.960 . S
C566 H553 0.961 . S
C566 H554 0.959 . S
C566 C564 1.561 . S
C567 C564 1.526 . S
C567 C568 1.396 . S
C567 C572 1.390 . S
C568 C562 1.465 . S
C568 C567 1.396 . S
C568 C569 1.399 . S
C569 H555 0.929 . S
C569 C568 1.399 . S
C569 C570 1.385 . S
C570 H556 0.931 . S
C570 C569 1.385 . S
C570 C571 1.389 . S
C571 C570 1.389 . S
C571 C572 1.387 . S
C572 H557 0.930 . S
C572 C567 1.390 . S
C572 C571 1.387 . S
H573 C585 0.930 . S
H574 C587 0.930 . S
H575 C588 0.930 . S
H576 C592 0.959 . S
H577 C592 0.959 1_565 S
H578 C592 0.961 . S
H579 C593 0.960 . S
H580 C593 0.944 1_565 S
H581 C593 0.959 . S
H582 C596 0.929 . S
H583 C597 0.931 . S
H584 C599 0.930 . S
C585 H573 0.930 . S
C585 C586 1.399 . S
C585 C590 1.399 . S
C586 C585 1.399 . S
C586 C587 1.376 . S
C587 H574 0.930 . S
C587 C586 1.376 . S
C587 C588 1.388 . S
C588 H575 0.930 . S
C588 C587 1.388 . S
C588 C589 1.390 . S
C589 C588 1.390 . S
C589 C590 1.394 . S
C589 C595 1.465 1_545 S
C590 C585 1.399 . S
C590 C589 1.394 . S
C590 C591 1.516 . S
C591 C590 1.516 . S
C591 C592 1.502 . S
C591 C593 1.561 . S
C591 C594 1.526 1_545 S
C592 H576 0.959 . S
C592 H577 0.959 1_545 S
C592 H578 0.961 . S
C592 C591 1.502 . S
C593 H579 0.960 . S
C593 H580 0.944 1_545 S
C593 H581 0.959 . S
C593 C591 1.561 . S
C594 C591 1.526 1_565 S
C594 C595 1.396 . S
C594 C599 1.390 . S
C595 C589 1.465 1_565 S
C595 C594 1.396 . S
C595 C596 1.399 . S
C596 H582 0.929 . S
C596 C595 1.399 . S
C596 C597 1.385 . S
C597 H583 0.931 . S
C597 C596 1.385 . S
C597 C598 1.389 . S
C598 C597 1.389 . S
C598 C599 1.387 . S
C599 H584 0.930 . S
C599 C594 1.390 . S
C599 C598 1.387 . S
H600 C612 0.930 . S
H601 C614 0.930 . S
H602 C615 0.930 . S
H603 C619 0.959 . S
H604 C619 0.959 . S
H605 C619 0.961 . S
H606 C620 0.960 . S
H607 C620 0.961 . S
H608 C620 0.959 . S
H609 C623 0.929 . S
H610 C624 0.931 . S
H611 C626 0.930 . S
C612 H600 0.930 . S
C612 C613 1.399 . S
C612 C617 1.399 . S
C613 C612 1.399 . S
C613 C614 1.376 . S
C614 H601 0.930 . S
C614 C613 1.376 . S
C614 C615 1.388 . S
C615 H602 0.930 . S
C615 C614 1.388 . S
C615 C616 1.390 . S
C616 C615 1.390 . S
C616 C617 1.394 . S
C616 C622 1.465 . S
C617 C612 1.399 . S
C617 C616 1.394 . S
C617 C618 1.516 . S
C618 C617 1.516 . S
C618 C619 1.502 . S
C618 C620 1.561 . S
C618 C621 1.526 . S
C619 H603 0.959 . S
C619 H604 0.959 . S
C619 H605 0.961 . S
C619 C618 1.502 . S
C620 H606 0.960 . S
C620 H607 0.961 . S
C620 H608 0.959 . S
C620 C618 1.561 . S
C621 C618 1.526 . S
C621 C622 1.396 . S
C621 C626 1.390 . S
C622 C616 1.465 . S
C622 C621 1.396 . S
C622 C623 1.399 . S
C623 H609 0.929 . S
C623 C622 1.399 . S
C623 C624 1.385 . S
C624 H610 0.931 . S
C624 C623 1.385 . S
C624 C625 1.389 . S
C625 C624 1.389 . S
C625 C626 1.387 . S
C626 H611 0.930 . S
C626 C621 1.390 . S
C626 C625 1.387 . S
H627 C639 0.930 . S
H628 C641 0.930 . S
H629 C642 0.930 . S
H630 C646 0.959 . S
H631 C646 0.959 1_655 S
H632 C646 0.961 . S
H633 C647 0.960 1_455 S
H634 C647 0.961 . S
H635 C647 0.959 . S
H636 C650 0.929 . S
H637 C651 0.931 . S
H638 C653 0.930 . S
C639 H627 0.930 . S
C639 C640 1.399 . S
C639 C644 1.399 . S
C640 C639 1.399 . S
C640 C641 1.376 . S
C641 H628 0.930 . S
C641 C640 1.376 . S
C641 C642 1.388 . S
C642 H629 0.930 . S
C642 C641 1.388 . S
C642 C643 1.390 . S
C643 C642 1.390 . S
C643 C644 1.394 . S
C643 C649 1.465 1_455 S
C644 C639 1.399 . S
C644 C643 1.394 . S
C644 C645 1.516 . S
C645 C644 1.516 . S
C645 C646 1.502 . S
C645 C647 1.561 1_455 S
C645 C648 1.526 1_455 S
C646 H630 0.959 . S
C646 H631 0.959 1_455 S
C646 H632 0.961 . S
C646 C645 1.502 . S
C647 H633 0.960 1_655 S
C647 H634 0.961 . S
C647 H635 0.959 . S
C647 C645 1.561 1_655 S
C648 C645 1.526 1_655 S
C648 C649 1.396 . S
C648 C653 1.390 . S
C649 C643 1.465 1_655 S
C649 C648 1.396 . S
C649 C650 1.399 . S
C650 H636 0.929 . S
C650 C649 1.399 . S
C650 C651 1.385 . S
C651 H637 0.931 . S
C651 C650 1.385 . S
C651 C652 1.389 . S
C652 C651 1.389 . S
C652 C653 1.387 . S
C653 H638 0.930 . S
C653 C648 1.390 . S
C653 C652 1.387 . S
H654 C666 0.930 . S
H655 C668 0.930 . S
H656 C669 0.930 . S
H657 C673 0.959 . S
H658 C673 0.959 . S
H659 C673 0.961 . S
H660 C674 0.960 . S
H661 C674 0.961 . S
H662 C674 0.959 . S
H663 C677 0.929 . S
H664 C678 0.931 . S
H665 C680 0.930 . S
C666 H654 0.930 . S
C666 C667 1.399 . S
C666 C671 1.399 . S
C667 C666 1.399 . S
C667 C668 1.376 . S
C668 H655 0.930 . S
C668 C667 1.376 . S
C668 C669 1.388 . S
C669 H656 0.930 . S
C669 C668 1.388 . S
C669 C670 1.390 . S
C670 C669 1.390 . S
C670 C671 1.394 . S
C670 C676 1.465 . S
C671 C666 1.399 . S
C671 C670 1.394 . S
C671 C672 1.516 . S
C672 C671 1.516 . S
C672 C673 1.502 . S
C672 C674 1.561 . S
C672 C675 1.526 . S
C673 H657 0.959 . S
C673 H658 0.959 . S
C673 H659 0.961 . S
C673 C672 1.502 . S
C674 H660 0.960 . S
C674 H661 0.961 . S
C674 H662 0.959 . S
C674 C672 1.561 . S
C675 C672 1.526 . S
C675 C676 1.396 . S
C675 C680 1.390 . S
C676 C670 1.465 . S
C676 C675 1.396 . S
C676 C677 1.399 . S
C677 H663 0.929 . S
C677 C676 1.399 . S
C677 C678 1.385 . S
C678 H664 0.931 . S
C678 C677 1.385 . S
C678 C679 1.389 . S
C679 C678 1.389 . S
C679 C680 1.387 . S
C680 H665 0.930 . S
C680 C675 1.390 . S
C680 C679 1.387 . S
H681 C693 0.930 . S
H682 C695 0.930 . S
H683 C696 0.930 . S
H684 C700 0.959 . S
H685 C700 0.959 . S
H686 C700 0.961 1_655 S
H687 C701 0.960 . S
H688 C701 0.961 1_455 S
H689 C701 0.959 . S
H690 C704 0.929 . S
H691 C705 0.931 . S
H692 C707 0.930 . S
C693 H681 0.930 . S
C693 C694 1.399 . S
C693 C698 1.399 . S
C694 C693 1.399 . S
C694 C695 1.376 . S
C695 H682 0.930 . S
C695 C694 1.376 . S
C695 C696 1.388 . S
C696 H683 0.930 . S
C696 C695 1.388 . S
C696 C697 1.390 . S
C697 C696 1.390 . S
C697 C698 1.394 . S
C697 C703 1.465 1_655 S
C698 C693 1.399 . S
C698 C697 1.394 . S
C698 C699 1.516 1_655 S
C699 C698 1.516 1_455 S
C699 C700 1.502 . S
C699 C701 1.561 1_455 S
C699 C702 1.526 . S
C700 H684 0.959 . S
C700 H685 0.959 . S
C700 H686 0.961 1_455 S
C700 C699 1.502 . S
C701 H687 0.960 . S
C701 H688 0.961 1_655 S
C701 H689 0.959 . S
C701 C699 1.561 1_655 S
C702 C699 1.526 . S
C702 C703 1.396 . S
C702 C707 1.390 . S
C703 C697 1.465 1_455 S
C703 C702 1.396 . S
C703 C704 1.399 . S
C704 H690 0.929 . S
C704 C703 1.399 . S
C704 C705 1.385 . S
C705 H691 0.931 . S
C705 C704 1.385 . S
C705 C706 1.389 . S
C706 C705 1.389 . S
C706 C707 1.387 . S
C707 H692 0.930 . S
C707 C702 1.390 . S
C707 C706 1.387 . S
H708 C720 0.930 . S
H709 C722 0.930 . S
H710 C723 0.930 . S
H711 C727 0.962 1_565 S
H712 C727 0.949 1_565 S
H713 C727 0.969 . S
H714 C728 0.960 . S
H715 C728 0.961 1_565 S
H716 C728 0.959 . S
H717 C731 0.929 . S
H718 C732 0.931 . S
H719 C734 0.930 . S
C720 H708 0.930 . S
C720 C721 1.399 . S
C720 C725 1.399 . S
C721 C720 1.399 . S
C721 C722 1.376 . S
C722 H709 0.930 . S
C722 C721 1.376 . S
C722 C723 1.388 . S
C723 H710 0.930 . S
C723 C722 1.388 . S
C723 C724 1.390 . S
C724 C723 1.390 . S
C724 C725 1.394 . S
C724 C730 1.465 1_545 S
C725 C720 1.399 . S
C725 C724 1.394 . S
C725 C726 1.516 . S
C726 C725 1.516 . S
C726 C727 1.501 . S
C726 C728 1.561 . S
C726 C729 1.526 1_545 S
C727 H711 0.962 1_545 S
C727 H712 0.949 1_545 S
C727 H713 0.969 . S
C727 C726 1.501 . S
C728 H714 0.960 . S
C728 H715 0.961 1_545 S
C728 H716 0.959 . S
C728 C726 1.561 . S
C729 C726 1.526 1_565 S
C729 C730 1.396 . S
C729 C734 1.390 . S
C730 C724 1.465 1_565 S
C730 C729 1.396 . S
C730 C731 1.399 . S
C731 H717 0.929 . S
C731 C730 1.399 . S
C731 C732 1.385 . S
C732 H718 0.931 . S
C732 C731 1.385 . S
C732 C733 1.389 . S
C733 C732 1.389 . S
C733 C734 1.387 . S
C734 H719 0.930 . S
C734 C729 1.390 . S
C734 C733 1.387 . S
H735 C747 0.930 . S
H736 C749 0.930 . S
H737 C750 0.930 . S
H738 C754 0.959 . S
H739 C754 0.959 . S
H740 C754 0.961 . S
H741 C755 0.960 . S
H742 C755 0.961 . S
H743 C755 0.959 . S
H744 C758 0.929 . S
H745 C759 0.931 . S
H746 C761 0.930 . S
C747 H735 0.930 . S
C747 C748 1.399 . S
C747 C752 1.399 . S
C748 C747 1.399 . S
C748 C749 1.376 . S
C749 H736 0.930 . S
C749 C748 1.376 . S
C749 C750 1.388 . S
C750 H737 0.930 . S
C750 C749 1.388 . S
C750 C751 1.390 . S
C751 C750 1.390 . S
C751 C752 1.394 . S
C751 C757 1.465 . S
C752 C747 1.399 . S
C752 C751 1.394 . S
C752 C753 1.516 . S
C753 C752 1.516 . S
C753 C754 1.502 . S
C753 C755 1.561 . S
C753 C756 1.526 . S
C754 H738 0.959 . S
C754 H739 0.959 . S
C754 H740 0.961 . S
C754 C753 1.502 . S
C755 H741 0.960 . S
C755 H742 0.961 . S
C755 H743 0.959 . S
C755 C753 1.561 . S
C756 C753 1.526 . S
C756 C757 1.396 . S
C756 C761 1.390 . S
C757 C751 1.465 . S
C757 C756 1.396 . S
C757 C758 1.399 . S
C758 H744 0.929 . S
C758 C757 1.399 . S
C758 C759 1.385 . S
C759 H745 0.931 . S
C759 C758 1.385 . S
C759 C760 1.389 . S
C760 C759 1.389 . S
C760 C761 1.387 . S
C761 H746 0.930 . S
C761 C756 1.390 . S
C761 C760 1.387 . S
H762 C774 0.930 . S
H763 C776 0.930 . S
H764 C777 0.930 . S
H765 C781 0.959 . S
H766 C781 0.959 . S
H767 C781 0.961 1_455 S
H768 C782 0.960 . S
H769 C782 0.961 1_655 S
H770 C782 0.959 . S
H771 C785 0.929 . S
H772 C786 0.931 . S
H773 C788 0.930 . S
C774 H762 0.930 . S
C774 C775 1.399 . S
C774 C779 1.399 . S
C775 C774 1.399 . S
C775 C776 1.376 . S
C776 H763 0.930 . S
C776 C775 1.376 . S
C776 C777 1.388 . S
C777 H764 0.930 . S
C777 C776 1.388 . S
C777 C778 1.390 . S
C778 C777 1.390 . S
C778 C779 1.394 . S
C778 C784 1.465 1_455 S
C779 C774 1.399 . S
C779 C778 1.394 . S
C779 C780 1.516 1_455 S
C780 C779 1.516 1_655 S
C780 C781 1.502 . S
C780 C782 1.561 1_655 S
C780 C783 1.526 . S
C781 H765 0.959 . S
C781 H766 0.959 . S
C781 H767 0.961 1_655 S
C781 C780 1.502 . S
C782 H768 0.960 . S
C782 H769 0.961 1_455 S
C782 H770 0.959 . S
C782 C780 1.561 1_455 S
C783 C780 1.526 . S
C783 C784 1.396 . S
C783 C788 1.390 . S
C784 C778 1.465 1_655 S
C784 C783 1.396 . S
C784 C785 1.399 . S
C785 H771 0.929 . S
C785 C784 1.399 . S
C785 C786 1.385 . S
C786 H772 0.931 . S
C786 C785 1.385 . S
C786 C787 1.389 . S
C787 C786 1.389 . S
C787 C788 1.387 . S
C788 H773 0.930 . S
C788 C783 1.390 . S
C788 C787 1.387 . S
H789 C801 0.930 . S
H790 C803 0.930 . S
H791 C804 0.930 . S
H792 C808 0.944 1_565 S
H793 C808 0.959 . S
H794 C808 0.961 1_565 S
H795 C809 0.960 1_565 S
H796 C809 0.961 . S
H797 C809 0.959 . S
H798 C812 0.929 . S
H799 C813 0.931 . S
H800 C815 0.930 . S
C801 H789 0.930 . S
C801 C802 1.399 . S
C801 C806 1.399 . S
C802 C801 1.399 . S
C802 C803 1.376 . S
C803 H790 0.930 . S
C803 C802 1.376 . S
C803 C804 1.388 . S
C804 H791 0.930 . S
C804 C803 1.388 . S
C804 C805 1.390 . S
C805 C804 1.390 . S
C805 C806 1.394 . S
C805 C811 1.465 1_565 S
C806 C801 1.399 . S
C806 C805 1.394 . S
C806 C807 1.516 1_565 S
C807 C806 1.516 1_545 S
C807 C808 1.502 . S
C807 C809 1.561 . S
C807 C810 1.526 . S
C808 H792 0.944 1_545 S
C808 H793 0.959 . S
C808 H794 0.961 1_545 S
C808 C807 1.502 . S
C809 H795 0.960 1_545 S
C809 H796 0.961 . S
C809 H797 0.959 . S
C809 C807 1.561 . S
C810 C807 1.526 . S
C810 C811 1.396 . S
C810 C815 1.390 . S
C811 C805 1.465 1_545 S
C811 C810 1.396 . S
C811 C812 1.399 . S
C812 H798 0.929 . S
C812 C811 1.399 . S
C812 C813 1.385 . S
C813 H799 0.931 . S
C813 C812 1.385 . S
C813 C814 1.389 . S
C814 C813 1.389 . S
C814 C815 1.387 . S
C815 H800 0.930 . S
C815 C810 1.390 . S
C815 C814 1.387 . S
C181 C141 1.578 . S
C193 C12 1.597 . S
C208 C15 1.602 . S
C220 C154 1.614 . S
C235 C29 1.610 . S
C247 C96 1.580 . S
C262 C43 1.579 . S
C274 C99 1.598 . S
C289 C112 1.583 . S
C301 C57 1.614 . S
C316 C83 1.611 . S
C328 C126 1.581 . S
C343 C113 1.638 . S
C355 C13 1.608 . S
C370 C14 1.615 . S
C382 C127 1.638 . S
C397 C28 1.604 . S
C409 C140 1.635 . S
C424 C42 1.629 . S
C436 C155 1.626 . S
C451 C97 1.616 . S
C463 C56 1.637 . S
C478 C98 1.624 . S
C490 C82 1.629 . S
C505 C55 1.372 . S
C517 C0 1.400 . S
C532 C27 1.399 . S
C544 C69 1.374 . S
C559 C71 1.378 . S
C571 C41 1.410 . S
C586 C138 1.367 . S
C598 C84 1.405 . S
C613 C153 1.398 . S
C625 C111 1.376 . S
C640 C124 1.377 . S
C652 C166 1.408 . S
C667 C54 1.806 . S
C679 C1 1.810 . S
C694 C26 1.811 . S
C706 C68 1.790 . S
C721 C70 1.798 . S
C733 C40 1.802 . S
C748 C85 1.806 . S
C760 C139 1.811 . S
C775 C152 1.812 . S
C787 C110 1.789 . S
C802 C125 1.812 . S
C814 C167 1.806 . S
