# Generated by pormake.
# Topology ukd, (4)-cn, num edge types: 1
# Building blocks:
#     Node 0, Type 0, BuildingBlock: KUFVIS_clean_sbu_0, # of connection points: 4
#     Node 1, Type 0, BuildingBlock: KUFVIS_clean_sbu_0, # of connection points: 4
#     Node 2, Type 0, BuildingBlock: KUFVIS_clean_sbu_0, # of connection points: 4
#     Node 3, Type 0, BuildingBlock: KUFVIS_clean_sbu_0, # of connection points: 4
#     Node 4, Type 0, BuildingBlock: KUFVIS_clean_sbu_0, # of connection points: 4
#     Node 5, Type 0, BuildingBlock: KUFVIS_clean_sbu_0, # of connection points: 4
#     Node 6, Type 0, BuildingBlock: KUFVIS_clean_sbu_0, # of connection points: 4
#     Node 7, Type 0, BuildingBlock: KUFVIS_clean_sbu_0, # of connection points: 4
#     Node 8, Type 0, BuildingBlock: KUFVIS_clean_sbu_0, # of connection points: 4
#     Node 9, Type 0, BuildingBlock: KUFVIS_clean_sbu_0, # of connection points: 4
#     Node 10, Type 0, BuildingBlock: KUFVIS_clean_sbu_0, # of connection points: 4
#     Node 11, Type 0, BuildingBlock: KUFVIS_clean_sbu_0, # of connection points: 4
#     Node 12, Type 0, BuildingBlock: KUFVIS_clean_sbu_0, # of connection points: 4
#     Node 13, Type 0, BuildingBlock: KUFVIS_clean_sbu_0, # of connection points: 4
#     Node 14, Type 0, BuildingBlock: KUFVIS_clean_sbu_0, # of connection points: 4
#     Node 15, Type 0, BuildingBlock: KUFVIS_clean_sbu_0, # of connection points: 4
#     Node 16, Type 0, BuildingBlock: KUFVIS_clean_sbu_0, # of connection points: 4
#     Node 17, Type 0, BuildingBlock: KUFVIS_clean_sbu_0, # of connection points: 4
#     Node 18, Type 0, BuildingBlock: KUFVIS_clean_sbu_0, # of connection points: 4
#     Node 19, Type 0, BuildingBlock: KUFVIS_clean_sbu_0, # of connection points: 4
#     Node 20, Type 0, BuildingBlock: KUFVIS_clean_sbu_0, # of connection points: 4
#     Node 21, Type 0, BuildingBlock: KUFVIS_clean_sbu_0, # of connection points: 4
#     Node 22, Type 0, BuildingBlock: KUFVIS_clean_sbu_0, # of connection points: 4
#     Node 23, Type 0, BuildingBlock: KUFVIS_clean_sbu_0, # of connection points: 4
#     Node 24, Type 0, BuildingBlock: KUFVIS_clean_sbu_0, # of connection points: 4
#     Node 25, Type 0, BuildingBlock: KUFVIS_clean_sbu_0, # of connection points: 4
#     Node 26, Type 0, BuildingBlock: KUFVIS_clean_sbu_0, # of connection points: 4
#     Node 27, Type 0, BuildingBlock: KUFVIS_clean_sbu_0, # of connection points: 4
#     Node 28, Type 0, BuildingBlock: KUFVIS_clean_sbu_0, # of connection points: 4
#     Node 29, Type 0, BuildingBlock: KUFVIS_clean_sbu_0, # of connection points: 4
#     Node 30, Type 0, BuildingBlock: KUFVIS_clean_sbu_0, # of connection points: 4
#     Node 31, Type 0, BuildingBlock: KUFVIS_clean_sbu_0, # of connection points: 4
#     Edge 32, Type (0, 0), BuildingBlock: OJICUG_clean_linker_0, # of connection points: 2
#     Edge 33, Type (0, 0), BuildingBlock: OJICUG_clean_linker_0, # of connection points: 2
#     Edge 34, Type (0, 0), BuildingBlock: OJICUG_clean_linker_0, # of connection points: 2
#     Edge 35, Type (0, 0), BuildingBlock: OJICUG_clean_linker_0, # of connection points: 2
#     Edge 36, Type (0, 0), BuildingBlock: OJICUG_clean_linker_0, # of connection points: 2
#     Edge 37, Type (0, 0), BuildingBlock: OJICUG_clean_linker_0, # of connection points: 2
#     Edge 38, Type (0, 0), BuildingBlock: OJICUG_clean_linker_0, # of connection points: 2
#     Edge 39, Type (0, 0), BuildingBlock: OJICUG_clean_linker_0, # of connection points: 2
#     Edge 40, Type (0, 0), BuildingBlock: OJICUG_clean_linker_0, # of connection points: 2
#     Edge 41, Type (0, 0), BuildingBlock: OJICUG_clean_linker_0, # of connection points: 2
#     Edge 42, Type (0, 0), BuildingBlock: OJICUG_clean_linker_0, # of connection points: 2
#     Edge 43, Type (0, 0), BuildingBlock: OJICUG_clean_linker_0, # of connection points: 2
#     Edge 44, Type (0, 0), BuildingBlock: OJICUG_clean_linker_0, # of connection points: 2
#     Edge 45, Type (0, 0), BuildingBlock: OJICUG_clean_linker_0, # of connection points: 2
#     Edge 46, Type (0, 0), BuildingBlock: OJICUG_clean_linker_0, # of connection points: 2
#     Edge 47, Type (0, 0), BuildingBlock: OJICUG_clean_linker_0, # of connection points: 2
#     Edge 48, Type (0, 0), BuildingBlock: OJICUG_clean_linker_0, # of connection points: 2
#     Edge 49, Type (0, 0), BuildingBlock: OJICUG_clean_linker_0, # of connection points: 2
#     Edge 50, Type (0, 0), BuildingBlock: OJICUG_clean_linker_0, # of connection points: 2
#     Edge 51, Type (0, 0), BuildingBlock: OJICUG_clean_linker_0, # of connection points: 2
#     Edge 52, Type (0, 0), BuildingBlock: OJICUG_clean_linker_0, # of connection points: 2
#     Edge 53, Type (0, 0), BuildingBlock: OJICUG_clean_linker_0, # of connection points: 2
#     Edge 54, Type (0, 0), BuildingBlock: OJICUG_clean_linker_0, # of connection points: 2
#     Edge 55, Type (0, 0), BuildingBlock: OJICUG_clean_linker_0, # of connection points: 2
#     Edge 56, Type (0, 0), BuildingBlock: OJICUG_clean_linker_0, # of connection points: 2
#     Edge 57, Type (0, 0), BuildingBlock: OJICUG_clean_linker_0, # of connection points: 2
#     Edge 58, Type (0, 0), BuildingBlock: OJICUG_clean_linker_0, # of connection points: 2
#     Edge 59, Type (0, 0), BuildingBlock: OJICUG_clean_linker_0, # of connection points: 2
#     Edge 60, Type (0, 0), BuildingBlock: OJICUG_clean_linker_0, # of connection points: 2
#     Edge 61, Type (0, 0), BuildingBlock: OJICUG_clean_linker_0, # of connection points: 2
#     Edge 62, Type (0, 0), BuildingBlock: OJICUG_clean_linker_0, # of connection points: 2
#     Edge 63, Type (0, 0), BuildingBlock: OJICUG_clean_linker_0, # of connection points: 2
#     Edge 64, Type (0, 0), BuildingBlock: OJICUG_clean_linker_0, # of connection points: 2
#     Edge 65, Type (0, 0), BuildingBlock: OJICUG_clean_linker_0, # of connection points: 2
#     Edge 66, Type (0, 0), BuildingBlock: OJICUG_clean_linker_0, # of connection points: 2
#     Edge 67, Type (0, 0), BuildingBlock: OJICUG_clean_linker_0, # of connection points: 2
#     Edge 68, Type (0, 0), BuildingBlock: OJICUG_clean_linker_0, # of connection points: 2
#     Edge 69, Type (0, 0), BuildingBlock: OJICUG_clean_linker_0, # of connection points: 2
#     Edge 70, Type (0, 0), BuildingBlock: OJICUG_clean_linker_0, # of connection points: 2
#     Edge 71, Type (0, 0), BuildingBlock: OJICUG_clean_linker_0, # of connection points: 2
#     Edge 72, Type (0, 0), BuildingBlock: OJICUG_clean_linker_0, # of connection points: 2
#     Edge 73, Type (0, 0), BuildingBlock: OJICUG_clean_linker_0, # of connection points: 2
#     Edge 74, Type (0, 0), BuildingBlock: OJICUG_clean_linker_0, # of connection points: 2
#     Edge 75, Type (0, 0), BuildingBlock: OJICUG_clean_linker_0, # of connection points: 2
#     Edge 76, Type (0, 0), BuildingBlock: OJICUG_clean_linker_0, # of connection points: 2
#     Edge 77, Type (0, 0), BuildingBlock: OJICUG_clean_linker_0, # of connection points: 2
#     Edge 78, Type (0, 0), BuildingBlock: OJICUG_clean_linker_0, # of connection points: 2
#     Edge 79, Type (0, 0), BuildingBlock: OJICUG_clean_linker_0, # of connection points: 2
#     Edge 80, Type (0, 0), BuildingBlock: OJICUG_clean_linker_0, # of connection points: 2
#     Edge 81, Type (0, 0), BuildingBlock: OJICUG_clean_linker_0, # of connection points: 2
#     Edge 82, Type (0, 0), BuildingBlock: OJICUG_clean_linker_0, # of connection points: 2
#     Edge 83, Type (0, 0), BuildingBlock: OJICUG_clean_linker_0, # of connection points: 2
#     Edge 84, Type (0, 0), BuildingBlock: OJICUG_clean_linker_0, # of connection points: 2
#     Edge 85, Type (0, 0), BuildingBlock: OJICUG_clean_linker_0, # of connection points: 2
#     Edge 86, Type (0, 0), BuildingBlock: OJICUG_clean_linker_0, # of connection points: 2
#     Edge 87, Type (0, 0), BuildingBlock: OJICUG_clean_linker_0, # of connection points: 2
#     Edge 88, Type (0, 0), BuildingBlock: OJICUG_clean_linker_0, # of connection points: 2
#     Edge 89, Type (0, 0), BuildingBlock: OJICUG_clean_linker_0, # of connection points: 2
#     Edge 90, Type (0, 0), BuildingBlock: OJICUG_clean_linker_0, # of connection points: 2
#     Edge 91, Type (0, 0), BuildingBlock: OJICUG_clean_linker_0, # of connection points: 2
#     Edge 92, Type (0, 0), BuildingBlock: OJICUG_clean_linker_0, # of connection points: 2
#     Edge 93, Type (0, 0), BuildingBlock: OJICUG_clean_linker_0, # of connection points: 2
#     Edge 94, Type (0, 0), BuildingBlock: OJICUG_clean_linker_0, # of connection points: 2
#     Edge 95, Type (0, 0), BuildingBlock: OJICUG_clean_linker_0, # of connection points: 2
# Relax obj value: 0.059
# Max RMSD: 0.104
# Mean RMSD: 0.102
data_MOF--net-ukd--node1-KUFVIS_clean_sbu_0--edge1-OJICUG_clean_linker_0
_symmetry_space_group_name_H-M    P1
_symmetry_Int_Tables_number       1
_symmetry_cell_setting            triclinic
loop_
_symmetry_equiv_pos_as_xyz
'x, y, z'
_cell_length_a     32.627216
_cell_length_b     32.625556
_cell_length_c     52.426528
_cell_angle_alpha  90.002436
_cell_angle_beta   89.999453
_cell_angle_gamma 90.007669
loop_
_atom_site_label
_atom_site_type_symbol
_atom_site_fract_x
_atom_site_fract_y
_atom_site_fract_z
_atom_type_partial_charge
Mn0 Mn 0.22137 0.1853 0.35502 0.0
Mn1 Mn 0.13115 0.20141 0.32481 0.0
C2 C 0.16232 0.15402 0.36989 0.0
C3 C 0.28088 0.14652 0.36039 0.0
C4 C 0.17122 0.26337 0.36012 0.0
O5 O 0.23872 0.21103 0.32099 0.0
O6 O 0.17719 0.21347 0.30128 0.0
C7 C 0.13611 0.13437 0.28692 0.0
N8 N 0.11569 0.15356 0.30617 0.0
C9 C 0.0595 0.10603 0.30321 0.0
C10 C 0.07978 0.08592 0.28322 0.0
C11 C 0.11833 0.10006 0.27511 0.0
C12 C 0.07882 0.13994 0.31431 0.0
H13 H 0.16573 0.14519 0.28067 0.0
C14 C 0.21606 0.21879 0.30164 0.0
O15 O 0.27906 0.18419 0.36834 0.0
O16 O 0.24975 0.13299 0.34755 0.0
N17 N 0.08335 0.19122 0.34504 0.0
C18 C 0.0685 0.21318 0.36513 0.0
C19 C 0.03052 0.20245 0.37585 0.0
C20 C 0.00776 0.16996 0.36546 0.0
C21 C 0.02335 0.14824 0.34452 0.0
C22 C 0.06143 0.16023 0.33468 0.0
H23 H 0.0856 0.23851 0.37302 0.0
O24 O 0.19396 0.1581 0.3846 0.0
O25 O 0.16626 0.16777 0.34674 0.0
O26 O 0.20144 0.24146 0.36731 0.0
O27 O 0.14425 0.25185 0.34397 0.0
C28 C 1.00294 0.11475 0.33328 0.0
C29 C 0.02109 0.09351 0.31274 0.0
H30 H 0.06616 0.05946 0.27405 0.0
H31 H 0.13425 0.08459 0.25978 0.0
H32 H 0.01891 0.21901 0.39219 0.0
H33 H 0.97855 0.1617 0.37386 0.0
H34 H 0.97347 0.10477 0.34046 0.0
H35 H 0.00534 0.06747 0.30449 0.0
Mn36 Mn 0.06989 0.97187 0.60677 0.0
Mn37 Mn 0.05819 0.88286 0.57447 0.0
C38 C 0.10487 0.91391 0.6201 0.0
C39 C 0.1033 0.03431 0.61307 0.0
C40 C 0.99433 0.91823 0.61042 0.0
O41 O 0.04207 0.98925 0.57325 0.0
O42 O 0.04595 0.92952 0.55154 0.0
C43 C 0.12636 0.89075 0.53759 0.0
N44 N 0.107 0.8692 0.55627 0.0
C45 C 0.15538 0.81383 0.55282 0.0
C46 C 0.17573 0.83532 0.53341 0.0
C47 C 0.16126 0.87402 0.52585 0.0
C48 C 0.12092 0.83216 0.5639 0.0
H49 H 0.11521 0.92046 0.53171 0.0
C50 C 0.03724 0.96771 0.55302 0.0
O51 O 0.06659 0.02802 0.62172 0.0
O52 O 0.11965 0.00542 0.59945 0.0
N53 N 0.06873 0.83452 0.59412 0.0
C54 C 0.04622 0.81825 0.61355 0.0
C55 C 0.05698 0.77979 0.62357 0.0
C56 C 0.09016 0.75805 0.61318 0.0
C57 C 0.11243 0.77508 0.59291 0.0
C58 C 0.10031 0.81353 0.58372 0.0
H59 H 0.02032 0.83451 0.62141 0.0
O60 O 0.09971 0.94465 0.63542 0.0
O61 O 0.09039 0.91829 0.59715 0.0
O62 O 0.0157 0.94765 0.61921 0.0
O63 O 0.00646 0.89379 0.59295 0.0
C64 C 0.14652 0.75567 0.58167 0.0
C65 C 0.16812 0.77513 0.56175 0.0
H66 H 0.20262 0.82249 0.52428 0.0
H67 H 0.17689 0.89085 0.51095 0.0
H68 H 0.03981 0.76696 0.6393 0.0
H69 H 0.09843 0.72846 0.62102 0.0
H70 H 0.15666 0.72597 0.58839 0.0
H71 H 0.1946 0.76013 0.55349 0.0
Mn72 Mn 0.28542 0.82016 0.85476 0.0
Mn73 Mn 0.37567 0.80419 0.82456 0.0
C74 C 0.34444 0.85144 0.86964 0.0
C75 C 0.22596 0.85896 0.86024 0.0
C76 C 0.33563 0.74208 0.85979 0.0
O77 O 0.26806 0.79465 0.82067 0.0
O78 O 0.32966 0.79215 0.80103 0.0
C79 C 0.37061 0.8713 0.78673 0.0
N80 N 0.39108 0.85208 0.80594 0.0
C81 C 0.44724 0.89962 0.80298 0.0
C82 C 0.42693 0.91976 0.78301 0.0
C83 C 0.38836 0.90564 0.77494 0.0
C84 C 0.42796 0.86569 0.81406 0.0
H85 H 0.34096 0.8605 0.78051 0.0
C86 C 0.29077 0.78695 0.80132 0.0
O87 O 0.22775 0.82124 0.86811 0.0
O88 O 0.25708 0.87252 0.8474 0.0
N89 N 0.42346 0.8144 0.84479 0.0
C90 C 0.43833 0.79245 0.86488 0.0
C91 C 0.47631 0.80318 0.87559 0.0
C92 C 0.49907 0.83567 0.86518 0.0
C93 C 0.48345 0.85739 0.84426 0.0
C94 C 0.44537 0.8454 0.83443 0.0
H95 H 0.42123 0.76712 0.87278 0.0
O96 O 0.31285 0.84724 0.88438 0.0
O97 O 0.34051 0.83774 0.84648 0.0
O98 O 0.30534 0.76393 0.86695 0.0
O99 O 0.36263 0.75368 0.84368 0.0
C100 C 0.50386 0.89088 0.833 0.0
C101 C 0.48567 0.91213 0.81248 0.0
H102 H 0.44052 0.94624 0.77385 0.0
H103 H 0.37239 0.92114 0.75963 0.0
H104 H 0.48795 0.78661 0.89191 0.0
H105 H 0.52829 0.84393 0.87357 0.0
H106 H 0.53333 0.90085 0.84016 0.0
H107 H 0.5014 0.93818 0.80423 0.0
Mn108 Mn 0.43664 0.03546 0.10514 0.0
Mn109 Mn 0.45212 0.12551 0.07459 0.0
C110 C 0.40526 0.09449 0.11991 0.0
C111 C 0.39813 0.97588 0.11086 0.0
C112 C 0.51456 0.08602 0.10981 0.0
O113 O 0.46205 0.01791 0.07108 0.0
O114 O 0.46419 0.07931 0.0512 0.0
C115 C 0.38478 0.11981 0.03695 0.0
N116 N 0.40404 0.14054 0.05604 0.0
C117 C 0.35621 0.19644 0.05303 0.0
C118 C 0.33602 0.17585 0.03319 0.0
C119 C 0.35028 0.13729 0.02519 0.0
C120 C 0.39032 0.17743 0.06408 0.0
H121 H 0.39568 0.09017 0.03079 0.0
C122 C 0.46958 0.04045 0.05165 0.0
O123 O 0.43588 0.97788 0.11866 0.0
O124 O 0.38436 0.00686 0.09798 0.0
N125 N 0.44185 0.17345 0.09467 0.0
C126 C 0.46392 0.18863 0.11462 0.0
C127 C 0.45312 0.22668 0.12522 0.0
C128 C 0.42042 0.24916 0.11485 0.0
C129 C 0.3986 0.23323 0.09406 0.0
C130 C 0.41068 0.19512 0.08433 0.0
H131 H 0.48941 0.17174 0.1225 0.0
O132 O 0.40964 0.06303 0.13473 0.0
O133 O 0.41883 0.09042 0.09673 0.0
O134 O 0.49285 0.05573 0.11714 0.0
O135 O 0.50277 0.11284 0.09364 0.0
C136 C 0.3649 0.25336 0.08285 0.0
C137 C 0.34358 0.23488 0.06245 0.0
H138 H 0.30941 0.18923 0.02407 0.0
H139 H 0.33474 0.12112 0.00998 0.0
H140 H 0.4698 0.23857 0.14143 0.0
H141 H 0.41211 0.27842 0.12315 0.0
H142 H 0.35483 0.28284 0.08995 0.0
H143 H 0.31738 0.25041 0.05423 0.0
Mn144 Mn 0.22173 0.82003 0.1555 0.0
Mn145 Mn 0.13148 0.80385 0.18566 0.0
C146 C 0.16277 0.85161 0.14077 0.0
C147 C 0.2813 0.85875 0.15026 0.0
C148 C 0.17146 0.74207 0.15019 0.0
O149 O 0.23903 0.79402 0.18945 0.0
O150 O 0.17749 0.79162 0.20916 0.0
C151 C 0.13649 0.87063 0.22372 0.0
N152 N 0.11606 0.85158 0.20443 0.0
C153 C 0.05988 0.89907 0.20753 0.0
C154 C 0.08016 0.91904 0.22758 0.0
C155 C 0.11872 0.90485 0.23563 0.0
C156 C 0.07918 0.86525 0.19633 0.0
H157 H 0.16613 0.85978 0.22993 0.0
C158 C 0.21635 0.78625 0.20879 0.0
O159 O 0.27941 0.82115 0.14217 0.0
O160 O 0.2502 0.87221 0.16315 0.0
N161 N 0.08373 0.81423 0.16544 0.0
C162 C 0.06889 0.79245 0.14526 0.0
C163 C 0.03092 0.80326 0.13457 0.0
C164 C 0.00815 0.83565 0.14507 0.0
C165 C 0.02374 0.85719 0.16608 0.0
C166 C 0.06181 0.84513 0.17589 0.0
H167 H 0.086 0.76719 0.13728 0.0
O168 O 0.19436 0.84755 0.12602 0.0
O169 O 0.16668 0.83759 0.16386 0.0
O170 O 0.20169 0.764 0.14303 0.0
O171 O 0.14454 0.75351 0.16639 0.0
C172 C 0.00331 0.89057 0.17744 0.0
C173 C 0.02146 0.91164 0.19805 0.0
H174 H 0.06655 0.94543 0.23682 0.0
H175 H 0.13466 0.92022 0.251 0.0
H176 H 0.01931 0.78682 0.11818 0.0
H177 H 0.97894 0.84397 0.1367 0.0
H178 H 0.97384 0.90059 0.1703 0.0
H179 H 0.00571 0.93762 0.20638 0.0
Mn180 Mn 0.43663 0.97007 0.40539 0.0
Mn181 Mn 0.45236 0.87987 0.43572 0.0
C182 C 0.40535 0.91104 0.39052 0.0
C183 C 0.39793 0.02957 0.39979 0.0
C184 C 0.51466 0.91969 0.40052 0.0
O185 O 0.462 0.98751 0.43951 0.0
O186 O 0.46444 0.92595 0.45919 0.0
C187 C 0.38515 0.88526 0.47346 0.0
N188 N 0.40438 0.86466 0.45431 0.0
C189 C 0.35668 0.80863 0.45731 0.0
C190 C 0.33653 0.82908 0.47722 0.0
C191 C 0.35073 0.86765 0.48524 0.0
C192 C 0.3907 0.82778 0.44623 0.0
H193 H 0.39601 0.91491 0.47965 0.0
C194 C 0.46964 0.96484 0.45887 0.0
O195 O 0.43569 0.02772 0.39198 0.0
O196 O 0.38427 0.9985 0.41262 0.0
N197 N 0.44209 0.83201 0.41556 0.0
C198 C 0.46409 0.81699 0.39553 0.0
C199 C 0.45331 0.77897 0.38488 0.0
C200 C 0.42072 0.75635 0.39527 0.0
C201 C 0.39896 0.77213 0.41614 0.0
C202 C 0.41101 0.81023 0.42591 0.0
H203 H 0.4895 0.83398 0.38764 0.0
O204 O 0.40967 0.94257 0.37576 0.0
O205 O 0.41895 0.91503 0.4137 0.0
O206 O 0.4929 0.95003 0.39333 0.0
O207 O 0.50294 0.89272 0.41662 0.0
C208 C 0.36538 0.75186 0.42739 0.0
C209 C 0.34411 0.77019 0.44785 0.0
H210 H 0.30999 0.8156 0.48636 0.0
H211 H 0.33522 0.88372 0.5005 0.0
H212 H 0.46992 0.7672 0.36861 0.0
H213 H 0.41242 0.72711 0.38694 0.0
H214 H 0.35536 0.72237 0.42027 0.0
H215 H 0.31799 0.75456 0.4561 0.0
Mn216 Mn 0.28419 0.1855 0.65364 0.0
Mn217 Mn 0.37338 0.19818 0.68553 0.0
C218 C 0.34215 0.15053 0.64031 0.0
C219 C 0.22189 0.15136 0.64808 0.0
C220 C 0.3373 0.26129 0.6493 0.0
O221 O 0.26707 0.21402 0.68698 0.0
O222 O 0.32689 0.21041 0.7086 0.0
C223 C 0.36628 0.13042 0.72277 0.0
N224 N 0.38754 0.1497 0.70391 0.0
C225 C 0.44319 0.10165 0.70735 0.0
C226 C 0.42203 0.08141 0.72694 0.0
C227 C 0.38332 0.09576 0.73459 0.0
C228 C 0.42456 0.13588 0.69619 0.0
H229 H 0.33657 0.14147 0.72871 0.0
C230 C 0.2887 0.2191 0.70715 0.0
O231 O 0.22773 0.1879 0.63898 0.0
O232 O 0.25115 0.13579 0.66176 0.0
N233 N 0.42157 0.18768 0.66573 0.0
C234 C 0.43748 0.21 0.6461 0.0
C235 C 0.47587 0.19931 0.63596 0.0
C236 C 0.49793 0.1664 0.64643 0.0
C237 C 0.48126 0.14432 0.66689 0.0
C238 C 0.44286 0.15635 0.6762 0.0
H239 H 0.42098 0.2357 0.63819 0.0
O240 O 0.31118 0.15514 0.62512 0.0
O241 O 0.33795 0.1655 0.66316 0.0
O242 O 0.30801 0.23958 0.64063 0.0
O243 O 0.36186 0.24957 0.66682 0.0
C244 C 0.50099 0.11048 0.67822 0.0
C245 C 0.48187 0.08902 0.69832 0.0
H246 H 0.43509 0.0547 0.73613 0.0
H247 H 0.36673 0.0802 0.74962 0.0
H248 H 0.48841 0.21631 0.62007 0.0
H249 H 0.52746 0.15818 0.63849 0.0
H250 H 0.53067 0.10043 0.67142 0.0
H251 H 0.49711 0.06273 0.70664 0.0
Mn252 Mn 0.07065 0.03566 0.90541 0.0
Mn253 Mn 0.05487 0.1259 0.93568 0.0
C254 C 0.10177 0.0947 0.89041 0.0
C255 C 0.10934 0.97615 0.89986 0.0
C256 C 0.99254 0.08586 0.90062 0.0
O257 O 0.04532 0.01831 0.93954 0.0
O258 O 0.04301 0.07985 0.95925 0.0
C259 C 0.12225 0.1209 0.97333 0.0
N260 N 0.10291 0.14132 0.95415 0.0
C261 C 0.15053 0.19746 0.95691 0.0
C262 C 0.1708 0.17718 0.97684 0.0
C263 C 0.15669 0.13865 0.985 0.0
C264 C 0.11648 0.17818 0.94595 0.0
H265 H 0.11145 0.09129 0.97963 0.0
C266 C 0.03773 0.04097 0.95892 0.0
O267 O 0.07157 0.97798 0.89207 0.0
O268 O 0.12303 0.00728 0.91263 0.0
N269 N 0.0649 0.1737 0.91542 0.0
C270 C 0.04275 0.18858 0.89542 0.0
C271 C 0.05342 0.22654 0.88465 0.0
C272 C 0.08605 0.24926 0.89491 0.0
C273 C 0.10796 0.23364 0.91576 0.0
C274 C 0.09602 0.19558 0.92565 0.0
H275 H 0.01732 0.17151 0.88762 0.0
O276 O 0.09751 0.06307 0.87571 0.0
O277 O 0.08827 0.09077 0.91362 0.0
O278 O 0.01436 0.05561 0.89336 0.0
O279 O 0.00424 0.11284 0.91671 0.0
C280 C 0.14159 0.25402 0.92687 0.0
C281 C 0.163 0.23585 0.94733 0.0
H282 H 0.19736 0.19077 0.9859 0.0
H283 H 0.17228 0.12272 1.00029 0.0
H284 H 0.03669 0.23818 0.86839 0.0
H285 H 0.09426 0.27846 0.88648 0.0
H286 H 0.15154 0.28347 0.91964 0.0
H287 H 0.18914 0.25157 0.95548 0.0
Mn288 Mn 0.79742 0.80505 0.65779 0.0
Mn289 Mn 0.80373 0.89041 0.69329 0.0
C290 C 0.84222 0.85609 0.64584 0.0
C291 C 0.81986 0.73821 0.65104 0.0
C292 C 0.73359 0.87288 0.65639 0.0
O293 O 0.76937 0.78924 0.69095 0.0
O294 O 0.78396 0.8443 0.7153 0.0
C295 C 0.86973 0.86697 0.72923 0.0
N296 N 0.85488 0.89282 0.71104 0.0
C297 C 0.91567 0.9345 0.71303 0.0
C298 C 0.9313 0.90867 0.73205 0.0
C299 C 0.90827 0.8747 0.74013 0.0
C300 C 0.8768 0.9256 0.70311 0.0
H301 H 0.85243 0.8405 0.73526 0.0
C302 C 0.77052 0.80758 0.71244 0.0
O303 O 0.78485 0.7506 0.642 0.0
O304 O 0.84082 0.7642 0.66435 0.0
N305 N 0.82373 0.93635 0.67419 0.0
C306 C 0.80597 0.95616 0.65413 0.0
C307 C 0.82624 0.98946 0.6428 0.0
C308 C 0.86444 1.00221 0.65224 0.0
C309 C 0.8821 0.98144 0.6729 0.0
C310 C 0.86038 0.94858 0.68353 0.0
H311 H 0.77674 0.94648 0.64665 0.0
O312 O 0.83034 0.82869 0.62954 0.0
O313 O 0.82793 0.85218 0.66888 0.0
O314 O 0.74832 0.84009 0.64677 0.0
O315 O 0.75024 0.89186 0.67508 0.0
C316 C 0.92089 0.99144 0.68295 0.0
C317 C 0.93762 0.96804 0.70303 0.0
H318 H 0.96121 0.91427 0.74032 0.0
H319 H 0.92031 0.85437 0.75462 0.0
H320 H 0.81257 0.00511 0.62672 0.0
H321 H 0.88013 0.0277 0.6433 0.0
H322 H 0.93838 0.0167 0.67512 0.0
H323 H 0.96774 0.97564 0.71032 0.0
Mn324 Mn 0.95011 0.04693 0.40878 0.0
Mn325 Mn 0.86471 0.05279 0.44437 0.0
C326 C 0.89854 0.09108 0.39676 0.0
C327 C 0.01683 0.06952 0.40168 0.0
C328 C 0.88253 0.98266 0.40755 0.0
O329 O 0.96632 0.0195 0.4421 0.0
O330 O 0.91098 0.03338 0.46636 0.0
C331 C 0.88796 0.119 0.48023 0.0
N332 N 0.86215 0.10399 0.46207 0.0
C333 C 0.82023 0.16461 0.46402 0.0
C334 C 0.84605 0.18042 0.483 0.0
C335 C 0.88011 0.15755 0.49109 0.0
C336 C 0.82925 0.12575 0.45414 0.0
H337 H 0.91448 0.10181 0.48629 0.0
C338 C 0.94793 0.02055 0.46359 0.0
O339 O 0.00444 0.03435 0.39289 0.0
O340 O 0.9909 0.09064 0.41494 0.0
N341 N 0.81858 0.0725 0.42533 0.0
C342 C 0.79879 0.05459 0.40532 0.0
C343 C 0.7654 0.0747 0.39398 0.0
C344 C 0.75252 0.11287 0.4034 0.0
C345 C 0.77326 0.13068 0.42403 0.0
C346 C 0.80625 0.10913 0.43464 0.0
H347 H 0.80858 0.02539 0.39785 0.0
O348 O 0.92599 0.07935 0.38044 0.0
O349 O 0.90274 0.07714 0.41987 0.0
O350 O 0.91535 0.99747 0.39802 0.0
O351 O 0.86341 0.99925 0.42621 0.0
C352 C 0.76314 0.16946 0.43403 0.0
C353 C 0.78656 0.18638 0.45404 0.0
H354 H 0.84035 0.21034 0.49123 0.0
H355 H 0.90042 0.16972 0.50554 0.0
H356 H 0.74983 0.06097 0.3779 0.0
H357 H 0.72696 0.12844 0.39445 0.0
H358 H 0.7378 0.18682 0.4262 0.0
H359 H 0.77886 0.21649 0.46131 0.0
Mn360 Mn 0.70991 0.20011 0.15762 0.0
Mn361 Mn 0.70395 0.11492 0.19337 0.0
C362 C 0.66548 0.14863 0.14581 0.0
C363 C 0.68732 0.26688 0.15064 0.0
C364 C 0.77402 0.13249 0.15645 0.0
O365 O 0.73782 0.2163 0.19079 0.0
O366 O 0.72349 0.16127 0.21523 0.0
C367 C 0.63772 0.13851 0.22911 0.0
N368 N 0.65276 0.1125 0.21107 0.0
C369 C 0.59208 0.07066 0.21311 0.0
C370 C 0.57627 0.09665 0.232 0.0
C371 C 0.59916 0.13078 0.23997 0.0
C372 C 0.63097 0.07957 0.20323 0.0
H373 H 0.65489 0.16511 0.23505 0.0
C374 C 0.73672 0.19805 0.21231 0.0
O375 O 0.72237 0.25447 0.14167 0.0
O376 O 0.66635 0.24094 0.16398 0.0
N377 N 0.68418 0.06872 0.17442 0.0
C378 C 0.70206 0.0488 0.15445 0.0
C379 C 0.68192 0.01535 0.1432 0.0
C380 C 0.64375 1.00254 0.15264 0.0
C381 C 0.62596 0.02342 0.17323 0.0
C382 C 0.64755 0.05645 0.18377 0.0
H383 H 0.73127 0.05853 0.14696 0.0
O384 O 0.67711 0.17602 0.12942 0.0
O385 O 0.67968 0.15288 0.16884 0.0
O386 O 0.75918 0.16518 0.14677 0.0
O387 O 0.75746 0.11355 0.17519 0.0
C388 C 0.58717 0.0134 0.18325 0.0
C389 C 0.57027 0.03696 0.2032 0.0
H390 H 0.54633 0.09105 0.24023 0.0
H391 H 0.58697 0.15125 0.25434 0.0
H392 H 0.69565 0.99966 0.12715 0.0
H393 H 0.62815 0.97694 0.14375 0.0
H394 H 0.56977 0.98803 0.17547 0.0
H395 H 0.54014 0.02934 0.21047 0.0
Mn396 Mn 0.55656 0.95894 0.90796 0.0
Mn397 Mn 0.64167 0.95306 0.94377 0.0
C398 C 0.60804 0.91451 0.8962 0.0
C399 C 0.48981 0.93643 0.90097 0.0
C400 C 0.62419 0.02303 0.90677 0.0
O401 O 0.54034 0.98693 0.94108 0.0
O402 O 0.59529 0.97265 0.96559 0.0
C403 C 0.618 0.88692 0.97957 0.0
N404 N 0.64404 0.9019 0.96152 0.0
C405 C 0.68584 0.84122 0.96365 0.0
C406 C 0.65982 0.82546 0.98253 0.0
C407 C 0.62569 0.84838 0.99047 0.0
C408 C 0.67697 0.88008 0.95372 0.0
H409 H 0.5914 0.90412 0.98548 0.0
C410 C 0.55853 0.98589 0.96262 0.0
O411 O 0.50227 0.97144 0.89198 0.0
O412 O 0.5157 0.91543 0.91433 0.0
N413 N 0.6879 0.93323 0.92488 0.0
C414 C 0.70787 0.95106 0.90491 0.0
C415 C 0.74132 0.93088 0.89369 0.0
C416 C 0.75409 0.89273 0.90318 0.0
C417 C 0.73317 0.87499 0.92376 0.0
C418 C 0.70013 0.89662 0.93427 0.0
H419 H 0.69817 0.98026 0.89739 0.0
O420 O 0.58066 0.9261 0.8798 0.0
O421 O 0.60377 0.92872 0.91923 0.0
O422 O 0.59151 0.00816 0.89709 0.0
O423 O 0.6431 0.00652 0.92554 0.0
C424 C 0.74315 0.83622 0.93383 0.0
C425 C 0.71955 0.81938 0.95378 0.0
H426 H 0.66539 0.79554 0.99079 0.0
H427 H 0.6052 0.83623 1.00484 0.0
H428 H 0.75704 0.94457 0.87764 0.0
H429 H 0.77969 0.8771 0.89432 0.0
H430 H 0.76853 0.8188 0.92608 0.0
H431 H 0.72714 0.78926 0.96108 0.0
Mn432 Mn 0.79714 0.19948 0.85272 0.0
Mn433 Mn 0.80306 0.11424 0.81702 0.0
C434 C 0.84159 0.14805 0.86455 0.0
C435 C 0.81966 0.26627 0.85962 0.0
C436 C 0.73306 0.13185 0.85398 0.0
O437 O 0.76917 0.21559 0.81957 0.0
O438 O 0.78351 0.16055 0.79514 0.0
C439 C 0.86924 0.13778 0.78123 0.0
N440 N 0.85423 0.1118 0.79929 0.0
C441 C 0.9149 0.06996 0.79724 0.0
C442 C 0.93069 0.09592 0.77833 0.0
C443 C 0.90779 0.13004 0.77035 0.0
C444 C 0.87603 0.07888 0.80714 0.0
H445 H 0.85207 0.16437 0.77528 0.0
C446 C 0.77027 0.19733 0.79805 0.0
O447 O 0.78464 0.25384 0.86863 0.0
O448 O 0.84065 0.24032 0.84629 0.0
N449 N 0.82286 0.06808 0.83599 0.0
C450 C 0.80501 0.0482 0.85599 0.0
C451 C 0.82517 0.01478 0.86725 0.0
C452 C 0.86332 1.00196 0.85779 0.0
C453 C 0.88108 0.02279 0.83718 0.0
C454 C 0.85947 0.0558 0.82662 0.0
H455 H 0.77581 0.05794 0.86349 0.0
O456 O 0.82999 0.17547 0.88092 0.0
O457 O 0.82737 0.15224 0.84151 0.0
O458 O 0.74793 0.16455 0.86363 0.0
O459 O 0.74958 0.11289 0.83523 0.0
C460 C 0.91985 0.01276 0.82715 0.0
C461 C 0.93672 0.03628 0.80717 0.0
H462 H 0.96061 0.09031 0.77009 0.0
H463 H 0.91996 0.15048 0.75596 0.0
H464 H 0.81147 0.99912 0.88332 0.0
H465 H 0.87893 0.97638 0.86669 0.0
H466 H 0.93726 0.98741 0.83493 0.0
H467 H 0.96684 0.02866 0.79988 0.0
Mn468 Mn 0.55628 0.04552 0.60289 0.0
Mn469 Mn 0.64135 0.05187 0.56702 0.0
C470 C 0.60762 0.09024 0.61464 0.0
C471 C 0.48929 0.06754 0.60988 0.0
C472 C 0.62419 0.9817 0.60394 0.0
O473 O 0.54018 0.01751 0.56972 0.0
O474 O 0.59498 0.03233 0.5452 0.0
C475 C 0.61752 0.11817 0.53138 0.0
N476 N 0.64363 0.10312 0.54937 0.0
C477 C 0.68551 0.16376 0.54722 0.0
C478 C 0.65942 0.17959 0.52839 0.0
C479 C 0.62522 0.15673 0.5205 0.0
C480 C 0.67661 0.12489 0.55714 0.0
H481 H 0.59088 0.10101 0.5255 0.0
C482 C 0.5583 0.01888 0.54816 0.0
O483 O 0.50202 0.03262 0.61885 0.0
O484 O 0.5151 0.08877 0.59658 0.0
N485 N 0.6876 0.07167 0.58591 0.0
C486 C 0.70771 0.05371 0.60578 0.0
C487 C 0.74131 0.07378 0.61692 0.0
C488 C 0.75405 0.11197 0.60746 0.0
C489 C 0.73299 0.12982 0.58697 0.0
C490 C 0.69984 0.10829 0.57653 0.0
H491 H 0.69806 0.02447 0.61327 0.0
O492 O 0.58029 0.07855 0.63105 0.0
O493 O 0.60337 0.07598 0.59162 0.0
O494 O 0.59154 0.99647 0.61372 0.0
O495 O 0.64292 0.99829 0.58512 0.0
C496 C 0.74299 0.1686 0.57691 0.0
C497 C 0.71931 0.18553 0.55703 0.0
H498 H 0.66501 0.20951 0.52014 0.0
H499 H 0.60469 0.16892 0.50617 0.0
H500 H 0.75719 0.05996 0.63286 0.0
H501 H 0.77977 0.12751 0.61625 0.0
H502 H 0.76847 0.18595 0.5846 0.0
H503 H 0.72692 0.21564 0.54973 0.0
Mn504 Mn 0.71019 0.80604 0.35268 0.0
Mn505 Mn 0.70446 0.89129 0.31699 0.0
C506 C 0.66567 0.85748 0.36444 0.0
C507 C 0.6876 0.73927 0.35957 0.0
C508 C 0.77422 0.87377 0.35416 0.0
O509 O 0.73831 0.7899 0.31957 0.0
O510 O 0.72418 0.84497 0.29514 0.0
C511 C 0.63853 0.86766 0.28104 0.0
N512 N 0.6534 0.89367 0.29913 0.0
C513 C 0.59268 0.93541 0.29695 0.0
C514 C 0.57704 0.90943 0.278 0.0
C515 C 0.60003 0.87535 0.27007 0.0
C516 C 0.63151 0.92655 0.30694 0.0
H517 H 0.65576 0.84108 0.27514 0.0
C518 C 0.73735 0.80817 0.29805 0.0
O519 O 0.72258 0.75168 0.36863 0.0
O520 O 0.6667 0.7652 0.34619 0.0
N521 N 0.68449 0.93745 0.3359 0.0
C522 C 0.70219 0.95735 0.35594 0.0
C523 C 0.68191 0.99074 0.36716 0.0
C524 C 0.64379 0.0035 0.35762 0.0
C525 C 0.6262 0.98264 0.33696 0.0
C526 C 0.64791 0.94967 0.32646 0.0
H527 H 0.73136 0.94766 0.36351 0.0
O528 O 0.6772 0.83005 0.38082 0.0
O529 O 0.67999 0.85329 0.34143 0.0
O530 O 0.75934 0.841 0.36373 0.0
O531 O 0.75783 0.89272 0.33536 0.0
C532 C 0.58747 0.99261 0.32684 0.0
C533 C 0.57075 0.96906 0.30682 0.0
H534 H 0.54716 0.915 0.26969 0.0
H535 H 0.58798 0.85488 0.25566 0.0
H536 H 0.69549 0.00641 0.38327 0.0
H537 H 0.62809 0.02905 0.36648 0.0
H538 H 0.56998 0.01794 0.33458 0.0
H539 H 0.54066 0.97664 0.29947 0.0
Mn540 Mn 0.9507 0.95947 0.10268 0.0
Mn541 Mn 0.86564 0.95356 0.06684 0.0
C542 C 0.89921 0.91498 0.11442 0.0
C543 C 0.01745 0.93689 0.10967 0.0
C544 C 0.88308 0.02356 0.10385 0.0
O545 O 0.96697 0.9875 0.06957 0.0
O546 O 0.91206 0.97315 0.04503 0.0
C547 C 0.88934 0.88739 0.03108 0.0
N548 N 0.86328 0.9024 0.0491 0.0
C549 C 0.82148 0.84169 0.04699 0.0
C550 C 0.84752 0.82592 0.02813 0.0
C551 C 0.88166 0.84883 0.02019 0.0
C552 C 0.83034 0.88058 0.0569 0.0
H553 H 0.91595 0.90458 0.02518 0.0
C554 C 0.94881 0.98643 0.04801 0.0
O555 O 0.00502 0.9719 0.11868 0.0
O556 O 0.99154 0.91594 0.09629 0.0
N557 N 0.81939 0.93375 0.08572 0.0
C558 C 0.79941 0.9516 0.10568 0.0
C559 C 0.76594 0.93143 0.11689 0.0
C560 C 0.75318 0.89326 0.10742 0.0
C561 C 0.77412 0.87551 0.08685 0.0
C562 C 0.80716 0.89712 0.07634 0.0
H563 H 0.8091 0.98081 0.11319 0.0
O564 O 0.92657 0.92658 0.13083 0.0
O565 O 0.9035 0.92923 0.0914 0.0
O566 O 0.91573 0.00868 0.11356 0.0
O567 O 0.86421 0.00705 0.08505 0.0
C568 C 0.76415 0.83672 0.0768 0.0
C569 C 0.78776 0.81985 0.05686 0.0
H570 H 0.84196 0.79598 0.01988 0.0
H571 H 0.90217 0.83667 0.00584 0.0
H572 H 0.75021 0.94514 0.13293 0.0
H573 H 0.72757 0.87764 0.11627 0.0
H574 H 0.73876 0.8193 0.08454 0.0
H575 H 0.78018 0.78972 0.04957 0.0
Mn576 Mn 0.72071 0.68572 0.85502 0.0
Mn577 Mn 0.63064 0.70167 0.82461 0.0
C578 C 0.66163 0.65433 0.86973 0.0
C579 C 0.78025 0.64708 0.86057 0.0
C580 C 0.67043 0.76374 0.85997 0.0
O581 O 0.73824 0.71138 0.821 0.0
O582 O 0.67679 0.71374 0.80118 0.0
C583 C 0.63588 0.6346 0.78676 0.0
N584 N 0.61532 0.6538 0.80594 0.0
C585 C 0.55916 0.60627 0.80285 0.0
C586 C 0.57957 0.58616 0.7829 0.0
C587 C 0.61817 0.60029 0.77491 0.0
C588 C 0.5784 0.64018 0.81399 0.0
H589 H 0.66555 0.64541 0.78059 0.0
C590 C 0.71566 0.71905 0.8016 0.0
O591 O 0.77831 0.68477 0.86848 0.0
O592 O 0.74922 0.63344 0.84767 0.0
N593 N 0.58275 0.69144 0.84474 0.0
C594 C 0.56778 0.71338 0.86481 0.0
C595 C 0.52974 0.70264 0.87545 0.0
C596 C 0.50704 0.67015 0.86499 0.0
C597 C 0.52276 0.64846 0.84408 0.0
C598 C 0.56089 0.66046 0.83433 0.0
H599 H 0.58484 0.7387 0.87276 0.0
O600 O 0.69313 0.65852 0.88454 0.0
O601 O 0.66569 0.6681 0.8466 0.0
O602 O 0.70064 0.74187 0.86723 0.0
O603 O 0.64356 0.75216 0.84377 0.0
C604 C 0.5024 0.61498 0.83277 0.0
C605 C 0.52069 0.59375 0.81227 0.0
H606 H 0.56601 0.55969 0.77371 0.0
H607 H 0.63421 0.58481 0.75962 0.0
H608 H 0.51803 0.71919 0.89175 0.0
H609 H 0.47778 0.66189 0.87331 0.0
H610 H 0.47289 0.605 0.83987 0.0
H611 H 0.50499 0.56771 0.80398 0.0
Mn612 Mn 0.57057 0.4712 0.10463 0.0
Mn613 Mn 0.55434 0.38087 0.07454 0.0
C614 C 0.60207 0.4122 0.11941 0.0
C615 C 0.60938 0.53075 0.10996 0.0
C616 C 0.49257 0.42091 0.11 0.0
O617 O 0.54464 0.48847 0.07062 0.0
O618 O 0.54206 0.42684 0.05102 0.0
C619 C 0.62108 0.38586 0.03645 0.0
N620 N 0.60205 0.36543 0.05576 0.0
C621 C 0.64956 0.30926 0.05266 0.0
C622 C 0.66949 0.32953 0.03259 0.0
C623 C 0.65529 0.36808 0.02454 0.0
C624 C 0.61574 0.32857 0.06386 0.0
H625 H 0.61021 0.41548 0.03024 0.0
C626 C 0.53677 0.46572 0.05132 0.0
O627 O 0.57174 0.5289 0.11796 0.0
O628 O 0.62284 0.49965 0.09706 0.0
N629 N 0.56474 0.33312 0.09477 0.0
C630 C 0.54296 0.31828 0.11494 0.0
C631 C 0.55378 0.2803 0.12564 0.0
C632 C 0.58618 0.25754 0.11514 0.0
C633 C 0.60771 0.27313 0.09412 0.0
C634 C 0.59564 0.3112 0.08432 0.0
H635 H 0.5177 0.33538 0.12292 0.0
O636 O 0.598 0.44381 0.13414 0.0
O637 O 0.58811 0.41609 0.09631 0.0
O638 O 0.51448 0.45121 0.11707 0.0
O639 O 0.50402 0.39392 0.09384 0.0
C640 C 0.64109 0.25271 0.08276 0.0
C641 C 0.66215 0.27086 0.06215 0.0
H642 H 0.69588 0.31592 0.02335 0.0
H643 H 0.67064 0.38401 0.00916 0.0
H644 H 0.53734 0.26868 0.14201 0.0
H645 H 0.5945 0.22834 0.1235 0.0
H646 H 0.65112 0.22324 0.0899 0.0
H647 H 0.68811 0.2551 0.05381 0.0
Mn648 Mn 0.78601 0.3197 0.35501 0.0
Mn649 Mn 0.87618 0.30367 0.32472 0.0
C650 C 0.84506 0.351 0.36982 0.0
C651 C 0.72652 0.35843 0.36049 0.0
C652 C 0.8362 0.24161 0.36001 0.0
O653 O 0.76858 0.29413 0.32096 0.0
O654 O 0.8301 0.29171 0.30122 0.0
C655 C 0.87116 0.3708 0.2869 0.0
N656 N 0.89162 0.35155 0.3061 0.0
C657 C 0.94785 0.39902 0.30311 0.0
C658 C 0.92754 0.41918 0.28315 0.0
C659 C 0.88894 0.40511 0.27509 0.0
C660 C 0.92853 0.36511 0.31421 0.0
H661 H 0.84149 0.36004 0.28068 0.0
C662 C 0.79121 0.28649 0.30158 0.0
O663 O 0.72837 0.32073 0.3684 0.0
O664 O 0.75761 0.37202 0.34764 0.0
N665 N 0.924 0.31383 0.34493 0.0
C666 C 0.93884 0.29189 0.36503 0.0
C667 C 0.97683 0.3026 0.37574 0.0
C668 C 0.99963 0.33504 0.36532 0.0
C669 C 0.98403 0.35675 0.34438 0.0
C670 C 0.94593 0.3448 0.33456 0.0
H671 H 0.92171 0.26659 0.37295 0.0
O672 O 0.8135 0.34683 0.38459 0.0
O673 O 0.84107 0.33726 0.34668 0.0
O674 O 0.80599 0.26351 0.36724 0.0
O675 O 0.86312 0.25317 0.34384 0.0
C676 C 0.00447 0.39021 0.33312 0.0
C677 C 0.9863 0.41148 0.3126 0.0
H678 H 0.94117 0.44564 0.27398 0.0
H679 H 0.87299 0.42063 0.25979 0.0
H680 H 0.98843 0.28605 0.39209 0.0
H681 H 0.02885 0.34328 0.37371 0.0
H682 H 0.03396 0.40015 0.34028 0.0
H683 H 1.00206 0.43751 0.30434 0.0
Mn684 Mn 0.93698 0.53416 0.60522 0.0
Mn685 Mn 0.95254 0.6243 0.57482 0.0
C686 C 0.90547 0.59312 0.61999 0.0
C687 C 0.89832 0.47457 0.61072 0.0
C688 C 0.01492 0.58464 0.61002 0.0
O689 O 0.96258 0.51678 0.57117 0.0
O690 O 0.9645 0.57823 0.55132 0.0
C691 C 0.88521 0.61904 0.53716 0.0
N692 N 0.9045 0.63957 0.55632 0.0
C693 C 0.85689 0.69567 0.5534 0.0
C694 C 0.83666 0.67528 0.53349 0.0
C695 C 0.85079 0.63671 0.52542 0.0
C696 C 0.89089 0.67645 0.56444 0.0
H697 H 0.89602 0.5894 0.53092 0.0
C698 C 0.97 0.53938 0.55174 0.0
O699 O 0.93601 0.47649 0.61864 0.0
O700 O 0.88472 0.50562 0.59785 0.0
N701 N 0.9424 0.67213 0.59503 0.0
C702 C 0.96458 0.68717 0.61498 0.0
C703 C 0.954 0.72526 0.62561 0.0
C704 C 0.92134 0.74789 0.6153 0.0
C705 C 0.89939 0.73209 0.59451 0.0
C706 C 0.9113 0.69395 0.58474 0.0
H707 H 0.99005 0.67019 0.62279 0.0
O708 O 0.90977 0.56161 0.63478 0.0
O709 O 0.91922 0.58912 0.59685 0.0
O710 O 0.99315 0.5544 0.61738 0.0
O711 O 0.00318 0.61142 0.59381 0.0
C712 C 0.86583 0.75243 0.5833 0.0
C713 C 0.84444 0.73413 0.56287 0.0
H714 H 0.81013 0.68883 0.52438 0.0
H715 H 0.83522 0.6207 0.51016 0.0
H716 H 0.97089 0.73712 0.64175 0.0
H717 H 0.91319 0.77718 0.62361 0.0
H718 H 0.85596 0.78197 0.59039 0.0
H719 H 0.81835 0.74984 0.55464 0.0
Mn720 Mn 0.72137 0.31895 0.65534 0.0
Mn721 Mn 0.63119 0.30332 0.6857 0.0
C722 C 0.6624 0.35041 0.64052 0.0
C723 C 0.78099 0.35759 0.64987 0.0
C724 C 0.67097 0.24096 0.65053 0.0
O725 O 0.73871 0.29339 0.6894 0.0
O726 O 0.67725 0.29146 0.70923 0.0
C727 C 0.63629 0.3707 0.72334 0.0
N728 N 0.61583 0.35136 0.70417 0.0
C729 C 0.55966 0.39891 0.70702 0.0
C730 C 0.57998 0.41918 0.72694 0.0
C731 C 0.61854 0.40511 0.73505 0.0
C732 C 0.57895 0.36492 0.69601 0.0
H733 H 0.66592 0.35993 0.7296 0.0
C734 C 0.71609 0.28599 0.70883 0.0
O735 O 0.77905 0.31989 0.64196 0.0
O736 O 0.7499 0.37122 0.6627 0.0
N737 N 0.5834 0.31338 0.66544 0.0
C738 C 0.56844 0.29119 0.64547 0.0
C739 C 0.53039 0.30174 0.6348 0.0
C740 C 0.5077 0.33438 0.64507 0.0
C741 C 0.5234 0.35634 0.66588 0.0
C742 C 0.56152 0.34447 0.6757 0.0
H743 H 0.58548 0.26574 0.63768 0.0
O744 O 0.69394 0.34613 0.62575 0.0
O745 O 0.66637 0.33668 0.66367 0.0
O746 O 0.70118 0.26277 0.64317 0.0
O747 O 0.64417 0.25267 0.66673 0.0
C748 C 0.503 0.3899 0.67706 0.0
C749 C 0.52122 0.41132 0.6975 0.0
H750 H 0.56638 0.44571 0.73603 0.0
H751 H 0.6345 0.42071 0.75032 0.0
H752 H 0.51861 0.28486 0.61863 0.0
H753 H 0.47842 0.3425 0.63672 0.0
H754 H 0.47348 0.39975 0.66992 0.0
H755 H 0.50547 0.43741 0.7057 0.0
Mn756 Mn 0.93622 0.47081 0.90532 0.0
Mn757 Mn 0.95246 0.38062 0.93554 0.0
C758 C 0.90473 0.41177 0.89062 0.0
C759 C 0.89746 0.53032 0.89996 0.0
C760 C 0.01419 0.42053 0.9 0.0
O761 O 0.96213 0.48823 0.93928 0.0
O762 O 0.96477 0.42669 0.95898 0.0
C763 C 0.88575 0.38582 0.97364 0.0
N764 N 0.90476 0.36529 0.95437 0.0
C765 C 0.85722 0.30915 0.9576 0.0
C766 C 0.83731 0.32953 0.97763 0.0
C767 C 0.85154 0.36812 0.9856 0.0
C768 C 0.89105 0.32839 0.94634 0.0
H769 H 0.89663 0.41548 0.97979 0.0
C770 C 0.97 0.46557 0.95862 0.0
O771 O 0.93509 0.52845 0.89193 0.0
O772 O 0.88398 0.49925 0.91288 0.0
N773 N 0.942 0.33278 0.91541 0.0
C774 C 0.96374 0.31783 0.89524 0.0
C775 C 0.95288 0.27982 0.88462 0.0
C776 C 0.92049 0.25711 0.89519 0.0
C777 C 0.899 0.2728 0.91618 0.0
C778 C 0.91111 0.31091 0.92591 0.0
H779 H 0.989 0.33489 0.88722 0.0
O780 O 0.90879 0.44334 0.87585 0.0
O781 O 0.91869 0.41575 0.91372 0.0
O782 O 0.99227 0.4508 0.8929 0.0
O783 O 1.00276 0.39358 0.91619 0.0
C784 C 0.86562 0.25244 0.9276 0.0
C785 C 0.8446 0.2707 0.94819 0.0
H786 H 0.81093 0.31597 0.98691 0.0
H787 H 0.83621 0.38414 1.00095 0.0
H788 H 0.96927 0.26812 0.86824 0.0
H789 H 0.91213 0.22787 0.88687 0.0
H790 H 0.85556 0.22295 0.92051 0.0
H791 H 0.81863 0.255 0.95657 0.0
Mn792 Mn 0.78615 0.6861 0.15532 0.0
Mn793 Mn 0.87629 0.70176 0.18575 0.0
C794 C 0.8452 0.65475 0.14051 0.0
C795 C 0.72657 0.64748 0.14961 0.0
C796 C 0.83664 0.76409 0.15052 0.0
O797 O 0.76866 0.71154 0.18943 0.0
O798 O 0.83016 0.71386 0.20919 0.0
C799 C 0.87078 0.63452 0.22347 0.0
N800 N 0.89143 0.65375 0.20434 0.0
C801 C 0.9474 0.60599 0.20734 0.0
C802 C 0.92689 0.58584 0.22723 0.0
C803 C 0.88833 0.60007 0.23524 0.0
C804 C 0.92831 0.64005 0.19627 0.0
H805 H 0.84114 0.64539 0.22965 0.0
C806 C 0.79129 0.71917 0.20882 0.0
O807 O 0.72853 0.68524 0.14184 0.0
O808 O 0.75757 0.63376 0.16249 0.0
N809 N 0.92418 0.69149 0.16563 0.0
C810 C 0.93928 0.71351 0.14563 0.0
C811 C 0.97731 0.70273 0.13501 0.0
C812 C 0.99986 0.67009 0.14539 0.0
C813 C 0.98402 0.64831 0.16623 0.0
C814 C 0.94591 0.66037 0.17598 0.0
H815 H 0.92233 0.73895 0.13774 0.0
O816 O 0.8137 0.65909 0.12572 0.0
O817 O 0.84116 0.66836 0.16369 0.0
O818 O 0.80631 0.74234 0.14327 0.0
O819 O 0.86353 0.75235 0.16666 0.0
C820 C 0.00422 0.61468 0.17746 0.0
C821 C 0.98583 0.59339 0.1979 0.0
H822 H 0.94033 0.55927 0.23637 0.0
H823 H 0.87222 0.58455 0.25049 0.0
H824 H 0.98913 0.71937 0.11876 0.0
H825 H 0.02911 0.66178 0.13707 0.0
H826 H 0.0337 0.60463 0.17034 0.0
H827 H 1.00141 0.56724 0.20613 0.0
Mn828 Mn 0.57086 0.53488 0.40543 0.0
Mn829 Mn 0.55487 0.62503 0.43575 0.0
C830 C 0.60231 0.59392 0.39069 0.0
C831 C 0.60953 0.47535 0.39996 0.0
C832 C 0.49287 0.58518 0.40037 0.0
O833 O 0.54512 0.51744 0.43944 0.0
O834 O 0.54271 0.57893 0.45921 0.0
C835 C 0.62185 0.61981 0.47366 0.0
N836 N 0.60272 0.64035 0.45444 0.0
C837 C 0.65032 0.69645 0.45751 0.0
C838 C 0.67036 0.67607 0.47749 0.0
C839 C 0.65617 0.6375 0.48552 0.0
C840 C 0.61639 0.67723 0.44637 0.0
H841 H 0.61099 0.59017 0.47985 0.0
C842 C 0.53739 0.54006 0.45881 0.0
O843 O 0.57186 0.47725 0.39201 0.0
O844 O 0.62312 0.50639 0.41285 0.0
N845 N 0.56519 0.67287 0.41559 0.0
C846 C 0.54331 0.68781 0.39549 0.0
C847 C 0.55411 0.72582 0.38483 0.0
C848 C 0.58661 0.74851 0.39528 0.0
C849 C 0.60824 0.73281 0.41622 0.0
C850 C 0.59618 0.69471 0.426 0.0
H851 H 0.51798 0.67077 0.38754 0.0
O852 O 0.59814 0.56238 0.37591 0.0
O853 O 0.58848 0.58991 0.41382 0.0
O854 O 0.51474 0.55494 0.39316 0.0
O855 O 0.50443 0.61209 0.41655 0.0
C856 C 0.64173 0.75315 0.42753 0.0
C857 C 0.6629 0.73488 0.44806 0.0
H858 H 0.69683 0.68961 0.48669 0.0
H859 H 0.6716 0.62148 0.50083 0.0
H860 H 0.53759 0.73752 0.3685 0.0
H861 H 0.59492 0.77773 0.38694 0.0
H862 H 0.65175 0.78263 0.42041 0.0
H863 H 0.68894 0.75057 0.45636 0.0
Mn864 Mn 0.29768 0.30662 0.15816 0.0
Mn865 Mn 0.30332 0.39167 0.19404 0.0
C866 C 0.34212 0.35819 0.14649 0.0
C867 C 0.32028 0.23989 0.15117 0.0
C868 C 0.23357 0.37424 0.15684 0.0
O869 O 0.26953 0.29028 0.19121 0.0
O870 O 0.28361 0.3452 0.21578 0.0
C871 C 0.36925 0.36793 0.22996 0.0
N872 N 0.35436 0.39402 0.21191 0.0
C873 C 0.415 0.43588 0.21425 0.0
C874 C 0.43065 0.40982 0.23314 0.0
C875 C 0.40771 0.37563 0.24098 0.0
C876 C 0.37621 0.42699 0.20421 0.0
H877 H 0.35204 0.34129 0.23579 0.0
C878 C 0.27043 0.30842 0.21276 0.0
O879 O 0.2853 0.25233 0.14213 0.0
O880 O 0.3412 0.2658 0.16459 0.0
N881 N 0.32324 0.43797 0.17525 0.0
C882 C 0.30554 0.45797 0.15525 0.0
C883 C 0.32577 0.49146 0.14412 0.0
C884 C 0.36385 0.50425 0.15372 0.0
C885 C 0.38145 0.48329 0.17434 0.0
C886 C 0.35979 0.45021 0.18474 0.0
H887 H 0.2764 0.44826 0.14763 0.0
O888 O 0.33065 0.33079 0.13006 0.0
O889 O 0.32783 0.35386 0.1695 0.0
O890 O 0.2485 0.34156 0.1472 0.0
O891 O 0.24996 0.39313 0.17567 0.0
C892 C 0.42014 0.49329 0.18452 0.0
C893 C 0.43687 0.46965 0.20449 0.0
H894 H 0.4605 0.41541 0.2415 0.0
H895 H 0.41977 0.35512 0.25535 0.0
H896 H 0.31221 0.50719 0.12803 0.0
H897 H 0.37952 0.52989 0.14493 0.0
H898 H 0.43759 0.51872 0.17685 0.0
H899 H 0.46692 0.47726 0.21188 0.0
Mn900 Mn 0.44932 0.54666 0.90762 0.0
Mn901 Mn 0.36409 0.5522 0.94333 0.0
C902 C 0.39785 0.59118 0.89593 0.0
C903 C 0.5161 0.56926 0.90075 0.0
C904 C 0.38162 0.48262 0.90604 0.0
O905 O 0.46549 0.51842 0.94068 0.0
O906 O 0.41043 0.53244 0.96515 0.0
C907 C 0.38765 0.618 0.9794 0.0
N908 N 0.36165 0.60318 0.96128 0.0
C909 C 0.31977 0.66379 0.96364 0.0
C910 C 0.34573 0.67936 0.98262 0.0
C911 C 0.37988 0.65641 0.99047 0.0
C912 C 0.32872 0.62505 0.95355 0.0
H913 H 0.41427 0.60079 0.98525 0.0
C914 C 0.44724 0.51932 0.96221 0.0
O915 O 0.50366 0.53431 0.89165 0.0
O916 O 0.49017 0.59014 0.91416 0.0
N917 N 0.31789 0.5722 0.92447 0.0
C918 C 0.29799 0.55458 0.90441 0.0
C919 C 0.26454 0.57485 0.89325 0.0
C920 C 0.25171 0.61288 0.9029 0.0
C921 C 0.27257 0.6304 0.92358 0.0
C922 C 0.30561 0.6087 0.93401 0.0
H923 H 0.30773 0.52547 0.89676 0.0
O924 O 0.4253 0.57974 0.87953 0.0
O925 O 0.40205 0.5768 0.91892 0.0
O926 O 0.41438 0.49755 0.8965 0.0
O927 O 0.36268 0.4989 0.92488 0.0
C928 C 0.2625 0.66904 0.93381 0.0
C929 C 0.28604 0.68569 0.95386 0.0
H930 H 0.34009 0.70917 0.99101 0.0
H931 H 0.40033 0.66842 1.00491 0.0
H932 H 0.24888 0.56133 0.87712 0.0
H933 H 0.2261 0.62857 0.89409 0.0
H934 H 0.23711 0.68651 0.92613 0.0
H935 H 0.27839 0.71571 0.96129 0.0
Mn936 Mn 0.21024 0.69982 0.6574 0.0
Mn937 Mn 0.20407 0.6148 0.69333 0.0
C938 C 0.16553 0.64842 0.64574 0.0
C939 C 0.1881 0.76681 0.65045 0.0
C940 C 0.2741 0.63194 0.6563 0.0
O941 O 0.23833 0.716 0.69053 0.0
O942 O 0.22362 0.66124 0.7151 0.0
C943 C 0.13786 0.63863 0.72903 0.0
N944 N 0.15289 0.6125 0.71105 0.0
C945 C 0.09233 0.57051 0.71334 0.0
C946 C 0.07654 0.59662 0.73217 0.0
C947 C 0.09936 0.63089 0.73999 0.0
C948 C 0.13114 0.57945 0.70335 0.0
H949 H 0.15499 0.66532 0.73486 0.0
C950 C 0.23702 0.69793 0.71211 0.0
O951 O 0.22299 0.75412 0.64142 0.0
O952 O 0.16695 0.74096 0.66376 0.0
N953 N 0.18427 0.56848 0.6745 0.0
C954 C 0.20216 0.54838 0.65461 0.0
C955 C 0.1821 0.51473 0.64353 0.0
C956 C 0.14398 0.50193 0.65306 0.0
C957 C 0.12619 0.52299 0.67357 0.0
C958 C 0.14771 0.5562 0.68395 0.0
H959 H 0.23135 0.55807 0.64706 0.0
O960 O 0.17712 0.67575 0.62929 0.0
O961 O 0.17986 0.65271 0.66874 0.0
O962 O 0.25929 0.66457 0.64652 0.0
O963 O 0.25759 0.61325 0.67516 0.0
C964 C 0.08748 0.51294 0.6837 0.0
C965 C 0.07059 0.53664 0.7036 0.0
H966 H 0.04666 0.591 0.74048 0.0
H967 H 0.08719 0.65144 0.75431 0.0
H968 H 0.19586 0.49886 0.62756 0.0
H969 H 0.12845 0.47617 0.64432 0.0
H970 H 0.07014 0.48742 0.67607 0.0
H971 H 0.04052 0.52899 0.71096 0.0
Mn972 Mn 0.05728 0.45848 0.40803 0.0
Mn973 Mn 0.14242 0.45277 0.44384 0.0
C974 C 0.10883 0.4141 0.3963 0.0
C975 C 0.99054 0.43591 0.40105 0.0
C976 C 0.12485 0.52264 0.40678 0.0
O977 O 0.04102 0.48648 0.44114 0.0
O978 O 0.09601 0.47234 0.46564 0.0
C979 C 0.11884 0.38669 0.4797 0.0
N980 N 0.14486 0.40167 0.46164 0.0
C981 C 0.1868 0.34108 0.46386 0.0
C982 C 0.16081 0.32534 0.48276 0.0
C983 C 0.12662 0.34821 0.49066 0.0
C984 C 0.17784 0.37989 0.45387 0.0
H985 H 0.0922 0.40384 0.48558 0.0
C986 C 0.05921 0.48548 0.46268 0.0
O987 O 1.00299 0.47092 0.39205 0.0
O988 O 0.01645 0.41493 0.41442 0.0
N989 N 0.18867 0.43296 0.42496 0.0
C990 C 0.20858 0.45075 0.40496 0.0
C991 C 0.24206 0.43059 0.39376 0.0
C992 C 0.25492 0.3925 0.40331 0.0
C993 C 0.23405 0.37481 0.42393 0.0
C994 C 0.20098 0.3964 0.4344 0.0
H995 H 0.19882 0.47989 0.39739 0.0
O996 O 0.08143 0.42562 0.37989 0.0
O997 O 0.10453 0.42833 0.41933 0.0
O998 O 0.09217 0.50771 0.39712 0.0
O999 O 0.14378 0.5062 0.42556 0.0
C1000 C 0.24412 0.3361 0.43405 0.0
C1001 C 0.22056 0.31928 0.45403 0.0
H1002 H 0.16645 0.29547 0.49107 0.0
H1003 H 0.10615 0.33607 0.50504 0.0
H1004 H 0.25773 0.44422 0.37767 0.0
H1005 H 0.28055 0.37689 0.39447 0.0
H1006 H 0.26954 0.31871 0.42633 0.0
H1007 H 0.22822 0.28921 0.46138 0.0
Mn1008 Mn 0.29766 0.69894 0.35238 0.0
Mn1009 Mn 0.30335 0.61374 0.31663 0.0
C1010 C 0.34209 0.64745 0.36413 0.0
C1011 C 0.32024 0.76569 0.35929 0.0
C1012 C 0.23353 0.63136 0.35373 0.0
O1013 O 0.26957 0.71511 0.31929 0.0
O1014 O 0.28374 0.66011 0.2948 0.0
C1015 C 0.36937 0.63722 0.28071 0.0
N1016 N 0.35443 0.61126 0.29881 0.0
C1017 C 0.41502 0.56933 0.29661 0.0
C1018 C 0.43074 0.59527 0.27767 0.0
C1019 C 0.40784 0.62942 0.26974 0.0
C1020 C 0.37623 0.57831 0.30661 0.0
H1021 H 0.3522 0.66383 0.2748 0.0
C1022 C 0.27055 0.69689 0.29776 0.0
O1023 O 0.28525 0.75327 0.36833 0.0
O1024 O 0.34118 0.73975 0.34592 0.0
N1025 N 0.32319 0.56754 0.33555 0.0
C1026 C 0.30543 0.54768 0.35559 0.0
C1027 C 0.32562 0.51424 0.36681 0.0
C1028 C 0.3637 0.50137 0.35726 0.0
C1029 C 0.38136 0.52219 0.33661 0.0
C1030 C 0.35974 0.55522 0.32611 0.0
H1031 H 0.27629 0.55746 0.36315 0.0
O1032 O 0.33058 0.67488 0.38052 0.0
O1033 O 0.32782 0.65168 0.34111 0.0
O1034 O 0.24847 0.66404 0.36336 0.0
O1035 O 0.24994 0.61241 0.33494 0.0
C1036 C 0.42006 0.5121 0.32649 0.0
C1037 C 0.43685 0.5356 0.30647 0.0
H1038 H 0.4606 0.5896 0.26935 0.0
H1039 H 0.41995 0.64984 0.25532 0.0
H1040 H 0.312 0.49862 0.38292 0.0
H1041 H 0.37932 0.47578 0.36613 0.0
H1042 H 0.43747 0.48671 0.33422 0.0
H1043 H 0.46691 0.52793 0.29912 0.0
Mn1044 Mn 0.05734 0.54705 0.10223 0.0
Mn1045 Mn 0.1425 0.55258 0.06642 0.0
C1046 C 0.10892 0.59144 0.11391 0.0
C1047 C 0.99061 0.56971 0.10921 0.0
C1048 C 0.12493 0.48289 0.10362 0.0
O1049 O 0.04105 0.51893 0.06916 0.0
O1050 O 0.0961 0.53288 0.04466 0.0
C1051 C 0.11892 0.61844 0.03041 0.0
N1052 N 0.14494 0.60359 0.0485 0.0
C1053 C 0.18693 0.66413 0.04611 0.0
C1054 C 0.16094 0.67975 0.02716 0.0
C1055 C 0.12673 0.65684 0.01933 0.0
C1056 C 0.17793 0.6254 0.05621 0.0
H1057 H 0.09227 0.60126 0.02458 0.0
C1058 C 0.05928 0.51978 0.04763 0.0
O1059 O 1.00302 0.53472 0.11824 0.0
O1060 O 0.01653 0.5906 0.09579 0.0
N1061 N 0.18877 0.57252 0.08524 0.0
C1062 C 0.20869 0.55485 0.10528 0.0
C1063 C 0.2422 0.57507 0.11641 0.0
C1064 C 0.25508 0.61309 0.10676 0.0
C1065 C 0.23419 0.63065 0.08611 0.0
C1066 C 0.20108 0.60901 0.07571 0.0
H1067 H 0.19892 0.52575 0.11293 0.0
O1068 O 0.08151 0.58 0.13033 0.0
O1069 O 0.10462 0.57714 0.0909 0.0
O1070 O 0.09222 0.49783 0.11322 0.0
O1071 O 0.14389 0.49926 0.08482 0.0
C1072 C 0.24429 0.66928 0.07587 0.0
C1073 C 0.22073 0.68597 0.05586 0.0
H1074 H 0.16661 0.70955 0.01876 0.0
H1075 H 0.10627 0.66888 1.00492 0.0
H1076 H 0.25788 0.56153 0.13252 0.0
H1077 H 0.28073 0.62874 0.11554 0.0
H1078 H 0.26974 0.6867 0.08352 0.0
H1079 H 0.22841 0.71598 0.04841 0.0
Mn1080 Mn 0.20877 0.30672 0.85111 0.0
Mn1081 Mn 0.20292 0.39201 0.81542 0.0
C1082 C 0.16457 0.35829 0.86304 0.0
C1083 C 0.18621 0.24001 0.85829 0.0
C1084 C 0.27292 0.37443 0.85239 0.0
O1085 O 0.23632 0.29041 0.81785 0.0
O1086 O 0.2226 0.34571 0.79353 0.0
C1087 C 0.13698 0.36839 0.77946 0.0
N1088 N 0.15181 0.39434 0.79761 0.0
C1089 C 0.09108 0.43607 0.79546 0.0
C1090 C 0.07545 0.41011 0.77649 0.0
C1091 C 0.09847 0.37608 0.76851 0.0
C1092 C 0.12991 0.4272 0.80544 0.0
H1093 H 0.15428 0.34189 0.77348 0.0
C1094 C 0.23543 0.30877 0.79636 0.0
O1095 O 0.22136 0.25245 0.86708 0.0
O1096 O 0.16512 0.26588 0.84496 0.0
N1097 N 0.18298 0.43817 0.83433 0.0
C1098 C 0.20073 0.45812 0.85433 0.0
C1099 C 0.18046 0.49152 0.86556 0.0
C1100 C 0.14231 0.50424 0.85605 0.0
C1101 C 0.12466 0.48333 0.83543 0.0
C1102 C 0.14636 0.45035 0.82492 0.0
H1103 H 0.22992 0.44846 0.86188 0.0
O1104 O 0.17628 0.33088 0.87939 0.0
O1105 O 0.17854 0.35402 0.83994 0.0
O1106 O 0.25816 0.34155 0.86187 0.0
O1107 O 0.25634 0.39353 0.83371 0.0
C1108 C 0.08591 0.49329 0.82533 0.0
C1109 C 0.06916 0.46972 0.80533 0.0
H1110 H 0.04557 0.41569 0.76818 0.0
H1111 H 0.08645 0.35567 0.75406 0.0
H1112 H 0.19407 0.50722 0.88164 0.0
H1113 H 0.12662 0.5298 0.86491 0.0
H1114 H 0.06844 0.51863 0.83307 0.0
H1115 H 0.03907 0.4773 0.79798 0.0
Mn1116 Mn 0.45046 0.45835 0.60244 0.0
Mn1117 Mn 0.36528 0.45232 0.56674 0.0
C1118 C 0.39927 0.41352 0.61416 0.0
C1119 C 0.51725 0.43585 0.60931 0.0
C1120 C 0.3827 0.52229 0.60379 0.0
O1121 O 0.46649 0.48653 0.56934 0.0
O1122 O 0.41155 0.47209 0.54486 0.0
C1123 C 0.38881 0.38641 0.53075 0.0
N1124 N 0.36288 0.40124 0.5489 0.0
C1125 C 0.32111 0.34053 0.54673 0.0
C1126 C 0.34701 0.32492 0.52774 0.0
C1127 C 0.38106 0.34793 0.51977 0.0
C1128 C 0.33002 0.37934 0.55674 0.0
H1129 H 0.41534 0.40368 0.5248 0.0
C1130 C 0.44827 0.48546 0.54781 0.0
O1131 O 0.50481 0.47082 0.61838 0.0
O1132 O 0.49134 0.41495 0.59591 0.0
N1133 N 0.31921 0.43232 0.58572 0.0
C1134 C 0.29936 0.45002 0.60577 0.0
C1135 C 0.26598 0.42975 0.61702 0.0
C1136 C 0.25321 0.39161 0.60749 0.0
C1137 C 0.27403 0.37401 0.58683 0.0
C1138 C 0.30698 0.39573 0.57629 0.0
H1139 H 0.30906 0.4792 0.61332 0.0
O1140 O 0.42658 0.42528 0.63056 0.0
O1141 O 0.40336 0.42794 0.59116 0.0
O1142 O 0.4154 0.50744 0.61346 0.0
O1143 O 0.36382 0.50575 0.58502 0.0
C1144 C 0.26401 0.33528 0.5767 0.0
C1145 C 0.28749 0.31859 0.55664 0.0
H1146 H 0.3414 0.29506 0.51941 0.0
H1147 H 0.40146 0.3359 0.50531 0.0
H1148 H 0.25031 0.44335 0.63311 0.0
H1149 H 0.22766 0.37592 0.61637 0.0
H1150 H 0.23869 0.31779 0.58446 0.0
H1151 H 0.27987 0.28851 0.54928 0.0
C1152 C 0.15323 0.37634 0.36603 0.0
C1153 C 0.13435 0.37847 0.39003 0.0
H1154 H 0.1805 0.33741 0.33774 0.0
C1155 C 0.13227 0.34315 0.40526 0.0
H1156 H 0.1541 0.40299 0.35371 0.0
C1157 C 0.14815 0.30602 0.39641 0.0
C1158 C 0.16498 0.30356 0.37187 0.0
H1159 H 0.11589 0.34358 0.42323 0.0
H1160 H 0.14434 0.27864 0.40787 0.0
C1161 C 0.1683 0.33904 0.35694 0.0
C1162 C 0.91882 0.91317 0.6062 0.0
C1163 C 0.9539 0.91037 0.62152 0.0
H1164 H 0.85482 0.89941 0.60264 0.0
C1165 C 0.95079 0.8944 0.64626 0.0
H1166 H 0.92091 0.92494 0.58691 0.0
C1167 C 0.91338 0.87895 0.65497 0.0
C1168 C 0.87836 0.88087 0.63946 0.0
H1169 H 0.97784 0.89116 0.65809 0.0
H1170 H 0.91246 0.86319 0.67314 0.0
C1171 C 0.88121 0.89873 0.61518 0.0
C1172 C 0.37431 0.66211 0.90495 0.0
C1173 C 0.37232 0.62684 0.88966 0.0
H1174 H 0.36224 0.72662 0.9076 0.0
C1175 C 0.35361 0.62907 0.86561 0.0
H1176 H 0.39055 0.66161 0.92296 0.0
C1177 C 0.33863 0.66641 0.85653 0.0
C1178 C 0.34186 0.70184 0.87151 0.0
H1179 H 0.35282 0.60246 0.85325 0.0
H1180 H 0.32656 0.66811 0.8373 0.0
C1181 C 0.35851 0.69929 0.89609 0.0
C1182 C 0.5573 0.1095 0.14596 0.0
C1183 C 0.55479 0.09255 0.12146 0.0
H1184 H 0.59493 0.14183 0.17271 0.0
C1185 C 0.59022 0.08923 0.10649 0.0
H1186 H 0.52996 0.11331 0.15745 0.0
C1187 C 0.62755 0.10433 0.11552 0.0
C1188 C 0.62975 0.12324 0.13952 0.0
H1189 H 0.58854 0.07694 0.08731 0.0
H1190 H 0.65418 0.10341 0.10319 0.0
C1191 C 0.59445 0.12541 0.15476 0.0
C1192 C 0.16845 0.66641 0.15332 0.0
C1193 C 0.16522 0.7019 0.13839 0.0
H1194 H 0.15414 0.60247 0.15653 0.0
C1195 C 0.14849 0.69946 0.11382 0.0
H1196 H 0.18058 0.66802 0.17253 0.0
C1197 C 0.13259 0.66234 0.10494 0.0
C1198 C 0.13455 0.62702 0.12018 0.0
H1199 H 0.14477 0.72684 0.10236 0.0
H1200 H 0.11628 0.66193 0.08695 0.0
C1201 C 0.15336 0.62913 0.1442 0.0
C1202 C 0.59033 0.91667 0.40381 0.0
C1203 C 0.5549 0.91335 0.38884 0.0
H1204 H 0.6543 0.90258 0.4071 0.0
C1205 C 0.55746 0.89655 0.36429 0.0
H1206 H 0.58862 0.92884 0.42301 0.0
C1207 C 0.59465 0.88076 0.35545 0.0
C1208 C 0.62994 0.88289 0.37072 0.0
H1209 H 0.53013 0.89275 0.35279 0.0
H1210 H 0.59516 0.86444 0.33747 0.0
C1211 C 0.62768 0.90169 0.39475 0.0
C1212 C 0.34172 0.33682 0.65345 0.0
C1213 C 0.34478 0.30174 0.63813 0.0
H1214 H 0.3554 0.40082 0.65712 0.0
C1215 C 0.361 0.30492 0.61346 0.0
H1216 H 0.3298 0.33469 0.67269 0.0
C1217 C 0.37648 0.34238 0.60483 0.0
C1218 C 0.37439 0.37737 0.62037 0.0
H1219 H 0.36447 0.27789 0.60165 0.0
H1220 H 0.39243 0.34336 0.58673 0.0
C1221 C 0.35623 0.37446 0.64456 0.0
C1222 C 0.94977 0.10899 0.86441 0.0
C1223 C 0.9523 0.09216 0.88895 0.0
H1224 H 0.91211 0.14117 0.83762 0.0
C1225 C 0.91688 0.08883 0.90392 0.0
H1226 H 0.97711 0.11281 0.85292 0.0
C1227 C 0.87953 0.10384 0.89486 0.0
C1228 C 0.87731 0.12267 0.87084 0.0
H1229 H 0.91858 0.07664 0.92312 0.0
H1230 H 0.8529 0.10294 0.9072 0.0
C1231 C 0.9126 0.12482 0.85559 0.0
C1232 C 0.89238 0.64839 0.65137 0.0
C1233 C 0.88158 0.62851 0.6287 0.0
H1234 H 0.88126 0.69922 0.67612 0.0
C1235 C 0.84664 0.64131 0.61526 0.0
H1236 H 0.91856 0.63814 0.66237 0.0
C1237 C 0.82465 0.67579 0.62334 0.0
C1238 C 0.83753 0.69779 0.64493 0.0
H1239 H 0.83702 0.62526 0.59818 0.0
H1240 H 0.79901 0.68637 0.61199 0.0
C1241 C 0.8709 0.68312 0.65924 0.0
C1242 C 0.11352 0.09559 0.36542 0.0
C1243 C 0.12675 0.13048 0.37875 0.0
H1244 H 0.06809 0.04827 0.36243 0.0
C1245 C 0.10717 0.14153 0.40148 0.0
H1246 H 0.12933 0.08576 0.34831 0.0
C1247 C 0.07231 0.12039 0.40951 0.0
C1248 C 0.05725 0.08705 0.39533 0.0
H1249 H 0.11774 0.16768 0.41241 0.0
H1250 H 0.05644 0.13094 0.42643 0.0
C1251 C 0.07896 0.0739 0.37369 0.0
C1252 C 0.66061 0.36362 0.11462 0.0
C1253 C 0.62588 0.37673 0.12815 0.0
H1254 H 0.70798 0.31829 0.11133 0.0
C1255 C 0.61521 0.35709 0.15093 0.0
H1256 H 0.67015 0.37947 0.09746 0.0
C1257 C 0.63655 0.32228 0.15882 0.0
C1258 C 0.66971 0.30731 0.14443 0.0
H1259 H 0.58919 0.36757 0.162 0.0
H1260 H 0.62627 0.30636 0.17579 0.0
C1261 C 0.6825 0.32909 0.12274 0.0
C1262 C 0.43441 0.88563 0.90908 0.0
C1263 C 0.44935 0.91888 0.89478 0.0
H1264 H 0.38912 0.83824 0.91217 0.0
C1265 C 0.42752 0.93186 0.87314 0.0
H1266 H 0.45037 0.87522 0.926 0.0
C1267 C 0.39297 0.91004 0.865 0.0
C1268 C 0.3799 0.87519 0.87844 0.0
H1269 H 0.4383 0.95743 0.8618 0.0
H1270 H 0.37707 0.91971 0.84788 0.0
C1271 C 0.39958 0.86434 0.90117 0.0
C1272 C 0.89163 0.35658 0.85917 0.0
C1273 C 0.88095 0.37627 0.88193 0.0
H1274 H 0.88061 0.30575 0.83438 0.0
C1275 C 0.84623 0.36318 0.89548 0.0
H1276 H 0.91763 0.36706 0.84808 0.0
C1277 C 0.82437 0.32859 0.88741 0.0
C1278 C 0.8372 0.30675 0.86575 0.0
H1279 H 0.83668 0.37908 0.91262 0.0
H1280 H 0.79891 0.3178 0.89884 0.0
C1281 C 0.87032 0.32172 0.85133 0.0
C1282 C 0.39842 0.13884 0.60946 0.0
C1283 C 0.37808 0.12718 0.63181 0.0
H1284 H 0.45005 0.12914 0.58513 0.0
C1285 C 0.39103 0.09209 0.64504 0.0
H1286 H 0.3881 0.16515 0.59861 0.0
C1287 C 0.42608 0.07082 0.63709 0.0
C1288 C 0.44852 0.08461 0.61588 0.0
H1289 H 0.37466 0.08181 0.66184 0.0
H1290 H 0.43672 0.04503 0.64828 0.0
C1291 C 0.43369 0.1181 0.60175 0.0
C1292 C 0.68283 0.67694 0.38737 0.0
C1293 C 0.66996 0.69883 0.36573 0.0
H1294 H 0.67053 0.62645 0.41258 0.0
C1295 C 0.63672 0.68396 0.35138 0.0
H1296 H 0.70838 0.68765 0.39874 0.0
C1297 C 0.61536 0.64914 0.35925 0.0
C1298 C 0.62611 0.62939 0.38198 0.0
H1299 H 0.62638 0.69996 0.33446 0.0
H1300 H 0.58927 0.63874 0.34821 0.0
C1301 C 0.66093 0.64239 0.39546 0.0
C1302 C 0.11423 0.91015 0.14562 0.0
C1303 C 0.12731 0.87543 0.13207 0.0
H1304 H 0.0689 0.95752 0.14896 0.0
C1305 C 0.10765 0.8648 0.10929 0.0
H1306 H 0.1301 0.91967 0.16278 0.0
C1307 C 0.07284 0.88616 0.10143 0.0
C1308 C 0.05789 0.91929 0.11584 0.0
H1309 H 0.11811 0.83879 0.0982 0.0
H1310 H 0.0569 0.87591 0.08446 0.0
C1311 C 0.07969 0.93206 0.13754 0.0
C1312 C 0.6472 0.80636 0.89624 0.0
C1313 C 0.66407 0.80392 0.87171 0.0
H1314 H 0.61496 0.84392 0.92307 0.0
C1315 C 0.66743 0.83941 0.8568 0.0
H1316 H 0.64338 0.77897 0.90769 0.0
C1317 C 0.65239 0.87672 0.8659 0.0
C1318 C 0.6335 0.87884 0.8899 0.0
H1319 H 0.67966 0.8378 0.8376 0.0
H1320 H 0.65329 0.90339 0.85359 0.0
C1321 C 0.63135 0.8435 0.90511 0.0
C1322 C 0.45014 0.39779 0.14641 0.0
C1323 C 0.45245 0.41463 0.12186 0.0
H1324 H 0.41276 0.36547 0.17332 0.0
C1325 C 0.41688 0.4179 0.10702 0.0
H1326 H 0.47759 0.39402 0.15781 0.0
C1327 C 0.37965 0.40276 0.11619 0.0
C1328 C 0.37766 0.38386 0.14019 0.0
H1329 H 0.41838 0.4301 0.08782 0.0
H1330 H 0.35293 0.40358 0.10392 0.0
C1331 C 0.41307 0.38185 0.15535 0.0
C1332 C 0.87495 0.1621 0.40544 0.0
C1333 C 0.87308 0.12668 0.39028 0.0
H1334 H 0.8627 0.22659 0.40788 0.0
C1335 C 0.85451 0.12868 0.36617 0.0
H1336 H 0.89111 0.16179 0.42348 0.0
C1337 C 0.8395 0.16592 0.35694 0.0
C1338 C 0.84255 0.20147 0.37182 0.0
H1339 H 0.85382 0.10196 0.3539 0.0
H1340 H 0.82752 0.16744 0.33769 0.0
C1341 C 0.8591 0.19915 0.39645 0.0
C1342 C 0.1278 0.6036 0.61562 0.0
C1343 C 0.1299 0.62281 0.63953 0.0
H1344 H 0.08895 0.5756 0.58756 0.0
C1345 C 0.09462 0.62486 0.6548 0.0
H1346 H 0.15441 0.60275 0.60327 0.0
C1347 C 0.05758 0.60852 0.64611 0.0
C1348 C 0.05514 0.59126 0.62168 0.0
H1349 H 0.09502 0.64147 0.67268 0.0
H1350 H 0.03023 0.61228 0.6576 0.0
C1351 C 0.09057 0.58807 0.60669 0.0
C1352 C 0.65225 0.12803 0.64483 0.0
C1353 C 0.63312 0.12592 0.6209 0.0
H1354 H 0.68007 0.1669 0.67295 0.0
C1355 C 0.63101 0.16123 0.60567 0.0
H1356 H 0.65314 0.10139 0.65716 0.0
C1357 C 0.64722 0.1983 0.6144 0.0
C1358 C 0.6644 0.20074 0.63885 0.0
H1359 H 0.61445 0.16083 0.58777 0.0
H1360 H 0.64343 0.22567 0.60293 0.0
C1361 C 0.66764 0.16529 0.65381 0.0
C1362 C 0.09354 0.38187 0.85441 0.0
C1363 C 0.12901 0.3838 0.86951 0.0
H1364 H 0.029 0.39398 0.85209 0.0
C1365 C 0.1271 0.40244 0.8936 0.0
H1366 H 0.09379 0.36568 0.83638 0.0
C1367 C 0.08989 0.4174 0.90289 0.0
C1368 C 0.05426 0.41424 0.88809 0.0
H1369 H 0.15387 0.40319 0.90582 0.0
H1370 H 0.08845 0.42942 0.92214 0.0
C1371 C 0.05649 0.39766 0.86347 0.0
C1372 C 0.85482 0.8771 0.14468 0.0
C1373 C 0.87376 0.87926 0.12069 0.0
H1374 H 0.82745 0.83814 0.17292 0.0
C1375 C 0.87596 0.84393 0.10548 0.0
H1376 H 0.85389 0.90375 0.157 0.0
C1377 C 0.86007 0.80678 0.11431 0.0
C1378 C 0.8431 0.8043 0.13882 0.0
H1379 H 0.89239 0.84437 0.08753 0.0
H1380 H 0.86392 0.77941 0.10285 0.0
C1381 C 0.83974 0.83978 0.15375 0.0
C1382 C 0.4502 0.60818 0.36406 0.0
C1383 C 0.45268 0.59146 0.38863 0.0
H1384 H 0.4126 0.64029 0.33719 0.0
C1385 C 0.41721 0.58819 0.40357 0.0
H1386 H 0.47757 0.61194 0.35259 0.0
C1387 C 0.3799 0.60319 0.39446 0.0
C1388 C 0.37773 0.62195 0.37042 0.0
H1389 H 0.41886 0.57607 0.42279 0.0
H1390 H 0.35325 0.60236 0.40679 0.0
C1391 C 0.41305 0.62399 0.35518 0.0
C1392 C 0.39257 0.14984 0.15132 0.0
C1393 C 0.38154 0.12997 0.12868 0.0
H1394 H 0.38183 0.20076 0.17607 0.0
C1395 C 0.34655 0.14287 0.11534 0.0
H1396 H 0.4188 0.13951 0.16225 0.0
C1397 C 0.32474 0.17744 0.12347 0.0
C1398 C 0.33787 0.19945 0.145 0.0
H1399 H 0.33673 0.12682 0.09831 0.0
H1400 H 0.29904 0.18807 0.1122 0.0
C1401 C 0.37129 0.18467 0.15923 0.0
C1402 C 0.57144 0.6201 0.90897 0.0
C1403 C 0.55656 0.58686 0.89462 0.0
H1404 H 0.61671 0.66749 0.91217 0.0
C1405 C 0.57851 0.57392 0.87302 0.0
H1406 H 0.55539 0.63049 0.92587 0.0
C1407 C 0.6131 0.59576 0.86495 0.0
C1408 C 0.62611 0.63058 0.87844 0.0
H1409 H 0.56779 0.54836 0.86165 0.0
H1410 H 0.62909 0.5861 0.84787 0.0
C1411 C 0.60631 0.6414 0.90113 0.0
C1412 C 0.18491 0.83027 0.62343 0.0
C1413 C 0.17095 0.80759 0.6445 0.0
H1414 H 0.17404 0.88188 0.59881 0.0
C1415 C 0.13724 0.82219 0.65853 0.0
H1416 H 0.21088 0.81982 0.61233 0.0
C1417 C 0.11647 0.85744 0.65084 0.0
C1418 C 0.12831 0.87803 0.62861 0.0
H1419 H 0.12607 0.80564 0.67504 0.0
H1420 H 0.08998 0.86757 0.66161 0.0
C1421 C 0.16361 0.86533 0.61551 0.0
C1422 C 0.93513 0.38512 0.4092 0.0
C1423 C 0.95009 0.41836 0.39487 0.0
H1424 H 0.88981 0.33778 0.41232 0.0
C1425 C 0.92823 0.43133 0.37325 0.0
H1426 H 0.95111 0.37472 0.42611 0.0
C1427 C 0.89364 0.40954 0.36513 0.0
C1428 C 0.88056 0.37472 0.37858 0.0
H1429 H 0.93901 0.45689 0.36189 0.0
H1430 H 0.87773 0.41922 0.34802 0.0
C1431 C 0.90027 0.36387 0.40131 0.0
C1432 C 0.37116 0.82098 0.35116 0.0
C1433 C 0.33783 0.80614 0.36545 0.0
H1434 H 0.41864 0.86617 0.34808 0.0
C1435 C 0.32481 0.82809 0.38703 0.0
H1436 H 0.38161 0.80493 0.33428 0.0
C1437 C 0.34666 0.86264 0.39515 0.0
C1438 C 0.38157 0.8756 0.38174 0.0
H1439 H 0.29918 0.8174 0.39835 0.0
H1440 H 0.33695 0.87862 0.41223 0.0
C1441 C 0.39247 0.85581 0.35905 0.0
C1442 C 0.93536 0.62073 0.10116 0.0
C1443 C 0.95018 0.58734 0.1154 0.0
H1444 H 0.89017 0.66821 0.09812 0.0
C1445 C 0.92821 0.57426 0.13696 0.0
H1446 H 0.95142 0.63123 0.0843 0.0
C1447 C 0.89364 0.59607 0.1451 0.0
C1448 C 0.88069 0.63103 0.13173 0.0
H1449 H 0.93887 0.54858 0.14825 0.0
H1450 H 0.87764 0.58629 0.16215 0.0
C1451 C 0.90052 0.64201 0.10907 0.0
C1452 C 0.18196 0.17794 0.88632 0.0
C1453 C 0.16867 0.19964 0.86471 0.0
H1454 H 0.17024 0.12761 0.91176 0.0
C1455 C 0.13518 0.18461 0.85064 0.0
H1456 H 0.20771 0.18878 0.89748 0.0
C1457 C 0.11405 0.14981 0.85876 0.0
C1458 C 0.12527 0.13023 0.88146 0.0
H1459 H 0.12452 0.20048 0.83375 0.0
H1460 H 0.08779 0.13926 0.84793 0.0
C1461 C 0.16029 0.14341 0.89467 0.0
C1462 C 0.5796 0.43111 0.63709 0.0
C1463 C 0.55765 0.41818 0.61549 0.0
H1464 H 0.6301 0.41884 0.66228 0.0
C1465 C 0.5724 0.38481 0.6012 0.0
H1466 H 0.56897 0.45675 0.64842 0.0
C1467 C 0.60715 0.36339 0.6091 0.0
C1468 C 0.62698 0.37424 0.63178 0.0
H1469 H 0.55635 0.37441 0.58431 0.0
H1470 H 0.61746 0.33721 0.59811 0.0
C1471 C 0.6141 0.40917 0.6452 0.0
C1472 C 0.2729 0.29445 0.25997 0.0
C1473 C 0.25755 0.28476 0.23559 0.0
H1474 H 0.27304 0.27998 0.29995 0.0
C1475 C 0.231 0.25107 0.23307 0.0
H1476 H 0.29366 0.32 0.26258 0.0
C1477 C 0.21893 0.22855 0.25448 0.0
C1478 C 0.23401 0.23844 0.27882 0.0
H1479 H 0.21875 0.24263 0.21459 0.0
H1480 H 0.19723 0.20372 0.25205 0.0
C1481 C 0.26162 0.27119 0.28133 0.0
C1482 C 0.02917 0.97236 0.50581 0.0
C1483 C 0.0175 0.98577 0.53024 0.0
H1484 H 0.01659 0.97278 0.46577 0.0
C1485 C 0.98314 0.0114 0.53264 0.0
H1486 H 0.05532 0.95226 0.50342 0.0
C1487 C 0.9601 0.02222 0.51107 0.0
C1488 C 0.97148 0.0083 0.48663 0.0
H1489 H 0.97301 0.02152 0.55128 0.0
H1490 H 0.93334 0.04142 0.51359 0.0
C1491 C 0.00675 0.98386 0.48426 0.0
C1492 C 0.23413 0.71169 0.75932 0.0
C1493 C 0.24965 0.72155 0.73501 0.0
H1494 H 0.23374 0.72586 0.79934 0.0
C1495 C 0.27617 0.7553 0.73263 0.0
H1496 H 0.21339 0.6861 0.76181 0.0
C1497 C 0.28808 0.77766 0.75413 0.0
C1498 C 0.27288 0.76756 0.77842 0.0
H1499 H 0.28854 0.76386 0.71421 0.0
H1500 H 0.30978 0.80252 0.75183 0.0
C1501 C 0.24525 0.73479 0.78077 0.0
C1502 C 0.47893 0.03741 1.00448 0.0
C1503 C 0.489 0.02239 0.02881 0.0
H1504 H 0.49274 0.03752 0.96456 0.0
C1505 C 0.52173 0.99475 0.03125 0.0
H1506 H 0.4541 0.05912 1.0021 0.0
C1507 C 0.54482 0.9834 0.00984 0.0
C1508 C 0.53497 0.99874 0.98548 0.0
H1509 H 0.53064 0.98337 0.04986 0.0
H1510 H 0.57037 0.96264 0.01239 0.0
C1511 C 0.50128 0.02529 0.98302 0.0
C1512 C 0.27305 0.71064 0.25054 0.0
C1513 C 0.25772 0.72047 0.2749 0.0
H1514 H 0.2732 0.72496 0.21053 0.0
C1515 C 0.23123 0.75421 0.27738 0.0
H1516 H 0.29376 0.68506 0.24797 0.0
C1517 C 0.21921 0.77666 0.25595 0.0
C1518 C 0.23426 0.76664 0.23162 0.0
H1519 H 0.219 0.76274 0.29584 0.0
H1520 H 0.19757 0.80154 0.25834 0.0
C1521 C 0.26181 0.73383 0.22915 0.0
C1522 C 0.47885 0.96756 0.50607 0.0
C1523 C 0.48895 0.98279 0.48179 0.0
H1524 H 0.49256 0.96714 0.546 0.0
C1525 C 0.52161 0.01055 0.47947 0.0
H1526 H 0.45406 0.94576 0.50835 0.0
C1527 C 0.54462 0.02176 0.50094 0.0
C1528 C 0.53476 0.0062 0.52524 0.0
H1529 H 0.53054 0.0221 0.4609 0.0
H1530 H 0.57013 0.04261 0.49847 0.0
C1531 C 0.50112 0.97955 0.52759 0.0
C1532 C 0.27247 0.25004 0.77583 0.0
C1533 C 0.24788 0.2852 0.77337 0.0
H1534 H 0.30427 0.20147 0.7568 0.0
C1535 C 0.234 0.29642 0.74889 0.0
H1536 H 0.28353 0.24034 0.79435 0.0
C1537 C 0.24494 0.27329 0.72738 0.0
C1538 C 0.27067 0.23903 0.72988 0.0
H1539 H 0.21471 0.32309 0.74631 0.0
H1540 H 0.2348 0.28327 0.70871 0.0
C1541 C 0.2841 0.22755 0.75433 0.0
C1542 C 0.02823 0.03821 0.00611 0.0
C1543 C 0.01831 0.023 0.9818 0.0
H1544 H 0.01434 0.03844 0.04602 0.0
C1545 C 0.98573 0.99515 0.97939 0.0
H1546 H 0.05294 0.06008 0.00846 0.0
C1547 C 0.96266 0.98379 1.00081 0.0
C1548 C 0.97237 0.9993 0.02515 0.0
H1549 H 0.97693 0.98361 0.9608 0.0
H1550 H 0.93723 0.96287 0.99828 0.0
C1551 C 0.00591 0.02607 0.02758 0.0
C1552 C 0.77294 0.79408 0.7597 0.0
C1553 C 0.75754 0.78423 0.73536 0.0
H1554 H 0.77296 0.77997 0.79974 0.0
C1555 C 0.7308 0.75066 0.73295 0.0
H1556 H 0.79384 0.81953 0.76222 0.0
C1557 C 0.71862 0.72841 0.75443 0.0
C1558 C 0.73372 0.73845 0.77874 0.0
H1559 H 0.71851 0.74211 0.71451 0.0
H1560 H 0.6968 0.70366 0.75208 0.0
C1561 C 0.76151 0.77108 0.78115 0.0
C1562 C 0.73409 0.21159 0.25955 0.0
C1563 C 0.74953 0.22151 0.23523 0.0
H1564 H 0.73396 0.22558 0.2996 0.0
C1565 C 0.7762 0.25513 0.23286 0.0
H1566 H 0.71324 0.18609 0.26203 0.0
C1567 C 0.78832 0.27733 0.25438 0.0
C1568 C 0.7732 0.26719 0.27867 0.0
H1569 H 0.78852 0.26372 0.21443 0.0
H1570 H 0.81012 0.30211 0.25208 0.0
C1571 C 0.74543 0.23454 0.28102 0.0
C1572 C 0.7729 0.21083 0.75082 0.0
C1573 C 0.75751 0.22081 0.77514 0.0
H1574 H 0.77307 0.22485 0.71077 0.0
C1575 C 0.731 0.25455 0.77752 0.0
H1576 H 0.79363 0.18525 0.74832 0.0
C1577 C 0.71898 0.27682 0.75602 0.0
C1578 C 0.73405 0.26663 0.73172 0.0
H1579 H 0.71873 0.26318 0.79595 0.0
H1580 H 0.6973 0.3017 0.75833 0.0
C1581 C 0.76165 0.23385 0.72935 0.0
C1582 C 0.7764 0.75074 0.27752 0.0
C1583 C 0.75007 0.78463 0.27513 0.0
H1584 H 0.80988 0.7034 0.25835 0.0
C1585 C 0.73479 0.79466 0.25079 0.0
H1586 H 0.78859 0.74204 0.29596 0.0
C1587 C 0.74593 0.77156 0.22933 0.0
C1588 C 0.77334 0.73861 0.23171 0.0
H1589 H 0.7142 0.82036 0.24827 0.0
H1590 H 0.7346 0.78061 0.21074 0.0
C1591 C 0.78833 0.72838 0.25602 0.0
C1592 C 0.52727 0.4685 1.00414 0.0
C1593 C 0.51713 0.48353 0.02846 0.0
H1594 H 0.51342 0.46814 0.96422 0.0
C1595 C 0.48413 0.51086 0.03088 0.0
H1596 H 0.55229 0.44701 1.00178 0.0
C1597 C 0.46089 0.5219 0.00946 0.0
C1598 C 0.47085 0.5066 0.98511 0.0
H1599 H 0.47515 0.52221 0.04948 0.0
H1600 H 0.43516 0.54243 0.01201 0.0
C1601 C 0.50477 0.48034 0.98267 0.0
C1602 C 1.00172 0.52449 0.48311 0.0
C1603 C 0.03561 0.49818 0.48555 0.0
H1604 H 0.95431 0.55796 0.50221 0.0
C1605 C 0.04558 0.48289 0.5099 0.0
H1606 H 0.99308 0.53668 0.46465 0.0
C1607 C 0.02242 0.49404 0.53132 0.0
C1608 C 0.98949 0.52144 0.52889 0.0
H1609 H 0.07127 0.46231 0.51244 0.0
H1610 H 0.03142 0.48271 0.54992 0.0
C1611 C 0.9793 0.53642 0.50457 0.0
C1612 C 0.04567 0.52216 1.00039 0.0
C1613 C 0.03569 0.50697 0.02476 0.0
H1614 H 0.0315 0.5222 0.96036 0.0
C1615 C 1.00182 0.48064 0.02723 0.0
H1616 H 0.07137 0.54273 0.99781 0.0
C1617 C 0.9794 0.46863 0.00578 0.0
C1618 C 0.98957 0.48353 0.98144 0.0
H1619 H 0.99317 0.46852 0.0457 0.0
H1620 H 0.95441 0.44709 0.00817 0.0
C1621 C 0.02251 0.51093 0.97898 0.0
C1622 C 0.48516 0.49437 0.47918 0.0
C1623 C 0.51785 0.52206 0.48164 0.0
H1624 H 0.43652 0.4622 0.49802 0.0
C1625 C 0.52781 0.53715 0.50597 0.0
H1626 H 0.47633 0.48294 0.46057 0.0
C1627 C 0.50542 0.52503 0.52741 0.0
C1628 C 0.47179 0.4984 0.52494 0.0
H1629 H 0.55261 0.55891 0.50836 0.0
H1630 H 0.51391 0.5373 0.54587 0.0
C1631 C 0.46202 0.48302 0.50058 0.0
C1632 C 0.35279 0.13008 0.37543 0.0
C1633 C 0.31259 0.11763 0.36954 0.0
H1634 H 0.41228 0.11151 0.38922 0.0
C1635 C 0.30111 0.07686 0.37422 0.0
H1636 H 0.36228 0.16146 0.37218 0.0
C1637 C 0.32875 0.04921 0.38484 0.0
C1638 C 0.3691 0.06113 0.3904 0.0
H1639 H 0.27023 0.06643 0.37026 0.0
H1640 H 0.31865 0.01802 0.38818 0.0
C1641 C 0.3812 0.1017 0.38529 0.0
C1642 C 0.14139 0.06805 0.64816 0.0
C1643 C 0.12851 0.06845 0.62261 0.0
H1644 H 0.18165 0.09393 0.67626 0.0
C1645 C 0.1436 0.09873 0.60613 0.0
H1646 H 0.13047 0.04455 0.66109 0.0
C1647 C 0.17182 0.12786 0.61504 0.0
C1648 C 0.18646 0.12605 0.64027 0.0
H1649 H 0.13435 0.09924 0.58629 0.0
H1650 H 0.18404 0.15019 0.60177 0.0
C1651 C 0.17062 0.09619 0.65682 0.0
C1652 C 0.15404 0.87567 0.87513 0.0
C1653 C 0.19442 0.88789 0.86956 0.0
H1654 H 0.0945 0.8945 0.88869 0.0
C1655 C 0.20622 0.92843 0.87467 0.0
H1656 H 0.14431 0.84445 0.87155 0.0
C1657 C 0.17868 0.95611 0.88535 0.0
C1658 C 0.13812 0.94447 0.89054 0.0
H1659 H 0.23726 0.93865 0.87097 0.0
H1660 H 0.18902 0.98713 0.88899 0.0
C1661 C 0.12574 0.90411 0.88505 0.0
C1662 C 0.30158 0.92855 0.13674 0.0
C1663 C 0.31301 0.88769 0.14117 0.0
H1664 H 0.31909 0.9875 0.12297 0.0
C1665 C 0.35311 0.87523 0.13506 0.0
H1666 H 0.27076 0.939 0.14089 0.0
C1667 C 0.38148 0.90366 0.1252 0.0
C1668 C 0.36939 0.94431 0.12032 0.0
H1669 H 0.36256 0.84378 0.13811 0.0
H1670 H 0.41248 0.89383 0.12107 0.0
C1671 C 0.32915 0.95626 0.12612 0.0
C1672 C 0.67206 0.91907 0.65681 0.0
C1673 C 0.69912 0.89367 0.64318 0.0
H1674 H 0.626 0.96584 0.65498 0.0
C1675 C 0.69703 0.89345 0.61638 0.0
H1676 H 0.6731 0.92005 0.67745 0.0
C1677 C 0.67077 0.92041 0.60349 0.0
C1678 C 0.64518 0.94731 0.61712 0.0
H1679 H 0.71782 0.87463 0.60533 0.0
H1680 H 0.67177 0.92149 0.58285 0.0
C1681 C 0.64495 0.94518 0.64392 0.0
C1682 C 0.86248 0.9463 0.36736 0.0
C1683 C 0.86182 0.94828 0.39416 0.0
H1684 H 0.83494 0.9213 0.33358 0.0
C1685 C 0.83607 0.92125 0.40756 0.0
H1686 H 0.88156 0.96708 0.35646 0.0
C1687 C 0.8101 0.89428 0.39443 0.0
C1688 C 0.80844 0.89462 0.36762 0.0
H1689 H 0.83471 0.92221 0.4282 0.0
H1690 H 0.78917 0.87534 0.40532 0.0
C1691 C 0.83565 0.92019 0.35423 0.0
C1692 C 0.83549 0.08618 0.15681 0.0
C1693 C 0.80849 0.1117 0.14323 0.0
H1694 H 0.8814 0.03927 0.15491 0.0
C1695 C 0.81059 0.11201 0.11643 0.0
H1696 H 0.83444 0.08512 0.17746 0.0
C1697 C 0.83676 0.08502 0.10349 0.0
C1698 C 0.86225 0.05799 0.11708 0.0
H1699 H 0.78985 0.13093 0.1054 0.0
H1700 H 0.83575 0.08402 0.08285 0.0
C1701 C 0.86251 0.06004 0.14388 0.0
C1702 C 0.67054 0.08447 0.90704 0.0
C1703 C 0.64498 0.05743 0.8935 0.0
H1704 H 0.71746 0.13036 0.90505 0.0
C1705 C 0.64461 0.05945 0.8667 0.0
H1706 H 0.67163 0.08348 0.92768 0.0
C1707 C 0.67159 0.08557 0.85371 0.0
C1708 C 0.69865 0.11109 0.86725 0.0
H1709 H 0.62566 0.03867 0.85571 0.0
H1710 H 0.67255 0.08449 0.83307 0.0
C1711 C 0.69666 0.11144 0.89405 0.0
C1712 C 0.85231 0.63061 0.87527 0.0
C1713 C 0.81191 0.61828 0.86986 0.0
H1714 H 0.91201 0.61195 0.88864 0.0
C1715 C 0.80023 0.57774 0.87509 0.0
H1716 H 0.86194 0.66182 0.8716 0.0
C1717 C 0.82793 0.55016 0.88572 0.0
C1718 C 0.86852 0.5619 0.89073 0.0
H1719 H 0.76918 0.56745 0.87151 0.0
H1720 H 0.81769 0.51913 0.88944 0.0
C1721 C 0.88076 0.60227 0.88513 0.0
C1722 C 0.65444 0.63093 0.13499 0.0
C1723 C 0.69496 0.61871 0.14016 0.0
H1724 H 0.59467 0.6122 0.12177 0.0
C1725 C 0.70676 0.57833 0.1346 0.0
H1726 H 0.64471 0.66203 0.13891 0.0
C1727 C 0.67906 0.55078 0.12391 0.0
C1728 C 0.63835 0.56238 0.11917 0.0
H1729 H 0.7379 0.56813 0.13799 0.0
H1730 H 0.68941 0.51987 0.11995 0.0
C1731 C 0.62601 0.60262 0.12506 0.0
C1732 C 0.70656 0.42787 0.37484 0.0
C1733 C 0.69488 0.38728 0.36976 0.0
H1734 H 0.68916 0.48656 0.3891 0.0
C1735 C 0.65453 0.37496 0.37532 0.0
H1736 H 0.73758 0.43817 0.37114 0.0
C1737 C 0.62613 0.40334 0.3852 0.0
C1738 C 0.6384 0.44375 0.39066 0.0
H1739 H 0.6449 0.34371 0.37176 0.0
H1740 H 0.59493 0.39365 0.38884 0.0
C1741 C 0.67892 0.4555 0.38548 0.0
C1742 C 0.82889 0.45472 0.62515 0.0
C1743 C 0.86942 0.44294 0.61999 0.0
H1744 H 0.77015 0.4374 0.63937 0.0
C1745 C 0.88158 0.40248 0.62537 0.0
H1746 H 0.81871 0.48581 0.6216 0.0
C1747 C 0.85309 0.37407 0.63514 0.0
C1748 C 0.81273 0.38642 0.64067 0.0
H1749 H 0.91278 0.39276 0.62174 0.0
H1750 H 0.86265 0.34279 0.63864 0.0
C1751 C 0.80116 0.42707 0.63569 0.0
C1752 C 0.17127 0.42144 0.10358 0.0
C1753 C 0.14571 0.44859 0.11702 0.0
H1754 H 0.21812 0.3755 0.10574 0.0
C1755 C 0.1453 0.44678 0.14383 0.0
H1756 H 0.17241 0.42226 0.08294 0.0
C1757 C 0.17222 0.42072 0.15691 0.0
C1758 C 0.19927 0.39505 0.14347 0.0
H1759 H 0.12635 0.46765 0.15475 0.0
H1760 H 0.17313 0.42195 0.17755 0.0
C1761 C 0.19734 0.39453 0.11667 0.0
C1762 C 0.36113 0.44698 0.86568 0.0
C1763 C 0.36078 0.44847 0.8925 0.0
H1764 H 0.33326 0.42251 0.83186 0.0
C1765 C 0.33523 0.42117 0.90583 0.0
H1766 H 0.38006 0.46799 0.85485 0.0
C1767 C 0.30916 0.39438 0.89263 0.0
C1768 C 0.30721 0.39518 0.86583 0.0
H1769 H 0.33411 0.42176 0.92648 0.0
H1770 H 0.28841 0.3752 0.90348 0.0
C1771 C 0.33421 0.42105 0.85249 0.0
C1772 C 0.33649 0.58384 0.60338 0.0
C1773 C 0.36192 0.55679 0.617 0.0
H1774 H 0.28977 0.62996 0.60523 0.0
C1775 C 0.36224 0.55898 0.64379 0.0
H1776 H 0.33543 0.58274 0.58274 0.0
C1777 C 0.33536 0.58532 0.6567 0.0
C1778 C 0.30844 0.61089 0.64309 0.0
H1779 H 0.3811 0.53821 0.65485 0.0
H1780 H 0.33437 0.58439 0.67735 0.0
C1781 C 0.31046 0.61102 0.61628 0.0
C1782 C 0.14514 0.55896 0.36665 0.0
C1783 C 0.14561 0.55701 0.39345 0.0
H1784 H 0.17294 0.58393 0.33295 0.0
C1785 C 0.17122 0.58407 0.40693 0.0
H1786 H 0.12614 0.53817 0.3557 0.0
C1787 C 0.1973 0.61101 0.39388 0.0
C1788 C 0.19918 0.61061 0.36707 0.0
H1789 H 0.17239 0.58313 0.42757 0.0
H1790 H 0.21814 0.62996 0.40482 0.0
C1791 C 0.17206 0.58505 0.3536 0.0
loop_
_geom_bond_atom_site_label_1
_geom_bond_atom_site_label_2
_geom_bond_distance
_geom_bond_site_symmetry_2
_ccdc_geom_bond_type
Mn0 O5 2.095 . S
Mn0 O15 2.162 . S
Mn0 O16 2.297 . S
Mn0 O24 2.385 . S
Mn0 O25 2.209 . S
Mn0 O26 2.094 . S
Mn1 O6 2.121 . S
Mn1 N8 2.257 . S
Mn1 N17 2.282 . S
Mn1 O25 2.215 . S
Mn1 O27 2.117 . S
C2 O24 1.234 . S
C2 O25 1.283 . S
C3 O15 1.281 . S
C3 O16 1.236 . S
C4 O26 1.240 . S
C4 O27 1.264 . S
O5 Mn0 2.095 . S
O5 C14 1.250 . S
O6 Mn1 2.121 . S
O6 C14 1.258 . S
C7 N8 1.326 . S
C7 C11 1.460 . S
C7 H13 0.929 . S
N8 Mn1 2.257 . S
N8 C7 1.326 . S
N8 C12 1.362 . S
C9 C10 1.258 . S
C9 C12 1.431 . S
C9 C29 1.449 1_455 S
C10 C9 1.258 . S
C10 C11 1.477 . S
C10 H30 0.931 . S
C11 C7 1.460 . S
C11 C10 1.477 . S
C11 H31 0.930 . S
C12 N8 1.362 . S
C12 C9 1.431 . S
C12 C22 1.476 . S
H13 C7 0.929 . S
C14 O5 1.250 . S
C14 O6 1.258 . S
O15 Mn0 2.162 . S
O15 C3 1.281 . S
O16 Mn0 2.297 . S
O16 C3 1.236 . S
N17 Mn1 2.282 . S
N17 C18 1.328 . S
N17 C22 1.318 . S
C18 N17 1.328 . S
C18 C19 1.457 . S
C18 H23 0.929 . S
C19 C18 1.457 . S
C19 C20 1.291 . S
C19 H32 0.931 . S
C20 C19 1.291 . S
C20 C21 1.373 . S
C20 H33 0.929 1_455 S
C21 C20 1.373 . S
C21 C22 1.396 . S
C21 C28 1.403 1_455 S
C22 C12 1.476 . S
C22 N17 1.318 . S
C22 C21 1.396 . S
H23 C18 0.929 . S
O24 Mn0 2.385 . S
O24 C2 1.234 . S
O25 Mn0 2.209 . S
O25 Mn1 2.215 . S
O25 C2 1.283 . S
O26 Mn0 2.094 . S
O26 C4 1.240 . S
O27 Mn1 2.117 . S
O27 C4 1.264 . S
C28 C21 1.403 1_655 S
C28 C29 1.399 . S
C28 H34 0.929 . S
C29 C9 1.449 1_655 S
C29 C28 1.399 . S
C29 H35 0.930 . S
H30 C10 0.931 . S
H31 C11 0.930 . S
H32 C19 0.931 . S
H33 C20 0.929 1_655 S
H34 C28 0.929 . S
H35 C29 0.930 . S
Mn36 O41 2.095 . S
Mn36 O51 2.162 1_565 S
Mn36 O52 2.297 1_565 S
Mn36 O60 2.385 . S
Mn36 O61 2.209 . S
Mn36 O62 2.094 1_455 S
Mn37 O42 2.121 . S
Mn37 N44 2.257 . S
Mn37 N53 2.282 . S
Mn37 O61 2.215 . S
Mn37 O63 2.117 1_455 S
C38 O60 1.234 . S
C38 O61 1.283 . S
C39 O51 1.281 . S
C39 O52 1.236 . S
C40 O62 1.240 . S
C40 O63 1.264 . S
O41 Mn36 2.095 . S
O41 C50 1.250 . S
O42 Mn37 2.121 . S
O42 C50 1.258 . S
C43 N44 1.326 . S
C43 C47 1.460 . S
C43 H49 0.929 . S
N44 Mn37 2.257 . S
N44 C43 1.326 . S
N44 C48 1.362 . S
C45 C46 1.258 . S
C45 C48 1.431 . S
C45 C65 1.449 . S
C46 C45 1.258 . S
C46 C47 1.477 . S
C46 H66 0.931 . S
C47 C43 1.460 . S
C47 C46 1.477 . S
C47 H67 0.930 . S
C48 N44 1.362 . S
C48 C45 1.431 . S
C48 C58 1.476 . S
H49 C43 0.929 . S
C50 O41 1.250 . S
C50 O42 1.258 . S
O51 Mn36 2.162 1_545 S
O51 C39 1.281 . S
O52 Mn36 2.297 1_545 S
O52 C39 1.236 . S
N53 Mn37 2.282 . S
N53 C54 1.328 . S
N53 C58 1.318 . S
C54 N53 1.328 . S
C54 C55 1.457 . S
C54 H59 0.929 . S
C55 C54 1.457 . S
C55 C56 1.291 . S
C55 H68 0.931 . S
C56 C55 1.291 . S
C56 C57 1.373 . S
C56 H69 0.929 . S
C57 C56 1.373 . S
C57 C58 1.396 . S
C57 C64 1.403 . S
C58 C48 1.476 . S
C58 N53 1.318 . S
C58 C57 1.396 . S
H59 C54 0.929 . S
O60 Mn36 2.385 . S
O60 C38 1.234 . S
O61 Mn36 2.209 . S
O61 Mn37 2.215 . S
O61 C38 1.283 . S
O62 Mn36 2.094 1_655 S
O62 C40 1.240 . S
O63 Mn37 2.117 1_655 S
O63 C40 1.264 . S
C64 C57 1.403 . S
C64 C65 1.399 . S
C64 H70 0.929 . S
C65 C45 1.449 . S
C65 C64 1.399 . S
C65 H71 0.930 . S
H66 C46 0.931 . S
H67 C47 0.930 . S
H68 C55 0.931 . S
H69 C56 0.929 . S
H70 C64 0.929 . S
H71 C65 0.930 . S
Mn72 O77 2.095 . S
Mn72 O87 2.162 . S
Mn72 O88 2.297 . S
Mn72 O96 2.385 . S
Mn72 O97 2.209 . S
Mn72 O98 2.094 . S
Mn73 O78 2.121 . S
Mn73 N80 2.257 . S
Mn73 N89 2.282 . S
Mn73 O97 2.215 . S
Mn73 O99 2.117 . S
C74 O96 1.234 . S
C74 O97 1.283 . S
C75 O87 1.281 . S
C75 O88 1.236 . S
C76 O98 1.240 . S
C76 O99 1.264 . S
O77 Mn72 2.095 . S
O77 C86 1.250 . S
O78 Mn73 2.121 . S
O78 C86 1.258 . S
C79 N80 1.326 . S
C79 C83 1.460 . S
C79 H85 0.929 . S
N80 Mn73 2.257 . S
N80 C79 1.326 . S
N80 C84 1.362 . S
C81 C82 1.258 . S
C81 C84 1.431 . S
C81 C101 1.449 . S
C82 C81 1.258 . S
C82 C83 1.477 . S
C82 H102 0.931 . S
C83 C79 1.460 . S
C83 C82 1.477 . S
C83 H103 0.930 . S
C84 N80 1.362 . S
C84 C81 1.431 . S
C84 C94 1.476 . S
H85 C79 0.929 . S
C86 O77 1.250 . S
C86 O78 1.258 . S
O87 Mn72 2.162 . S
O87 C75 1.281 . S
O88 Mn72 2.297 . S
O88 C75 1.236 . S
N89 Mn73 2.282 . S
N89 C90 1.328 . S
N89 C94 1.318 . S
C90 N89 1.328 . S
C90 C91 1.457 . S
C90 H95 0.929 . S
C91 C90 1.457 . S
C91 C92 1.291 . S
C91 H104 0.931 . S
C92 C91 1.291 . S
C92 C93 1.373 . S
C92 H105 0.929 . S
C93 C92 1.373 . S
C93 C94 1.396 . S
C93 C100 1.403 . S
C94 C84 1.476 . S
C94 N89 1.318 . S
C94 C93 1.396 . S
H95 C90 0.929 . S
O96 Mn72 2.385 . S
O96 C74 1.234 . S
O97 Mn72 2.209 . S
O97 Mn73 2.215 . S
O97 C74 1.283 . S
O98 Mn72 2.094 . S
O98 C76 1.240 . S
O99 Mn73 2.117 . S
O99 C76 1.264 . S
C100 C93 1.403 . S
C100 C101 1.399 . S
C100 H106 0.929 . S
C101 C81 1.449 . S
C101 C100 1.399 . S
C101 H107 0.930 . S
H102 C82 0.931 . S
H103 C83 0.930 . S
H104 C91 0.931 . S
H105 C92 0.929 . S
H106 C100 0.929 . S
H107 C101 0.930 . S
Mn108 O113 2.095 . S
Mn108 O123 2.162 1_545 S
Mn108 O124 2.297 1_545 S
Mn108 O132 2.385 . S
Mn108 O133 2.209 . S
Mn108 O134 2.094 . S
Mn109 O114 2.121 . S
Mn109 N116 2.257 . S
Mn109 N125 2.282 . S
Mn109 O133 2.215 . S
Mn109 O135 2.117 . S
C110 O132 1.234 . S
C110 O133 1.283 . S
C111 O123 1.281 . S
C111 O124 1.236 . S
C112 O134 1.240 . S
C112 O135 1.264 . S
O113 Mn108 2.095 . S
O113 C122 1.250 . S
O114 Mn109 2.121 . S
O114 C122 1.258 . S
C115 N116 1.326 . S
C115 C119 1.460 . S
C115 H121 0.929 . S
N116 Mn109 2.257 . S
N116 C115 1.326 . S
N116 C120 1.362 . S
C117 C118 1.258 . S
C117 C120 1.431 . S
C117 C137 1.449 . S
C118 C117 1.258 . S
C118 C119 1.477 . S
C118 H138 0.931 . S
C119 C115 1.460 . S
C119 C118 1.477 . S
C119 H139 0.930 1_554 S
C120 N116 1.362 . S
C120 C117 1.431 . S
C120 C130 1.476 . S
H121 C115 0.929 . S
C122 O113 1.250 . S
C122 O114 1.258 . S
O123 Mn108 2.162 1_565 S
O123 C111 1.281 . S
O124 Mn108 2.297 1_565 S
O124 C111 1.236 . S
N125 Mn109 2.282 . S
N125 C126 1.328 . S
N125 C130 1.318 . S
C126 N125 1.328 . S
C126 C127 1.457 . S
C126 H131 0.929 . S
C127 C126 1.457 . S
C127 C128 1.291 . S
C127 H140 0.931 . S
C128 C127 1.291 . S
C128 C129 1.373 . S
C128 H141 0.929 . S
C129 C128 1.373 . S
C129 C130 1.396 . S
C129 C136 1.403 . S
C130 C120 1.476 . S
C130 N125 1.318 . S
C130 C129 1.396 . S
H131 C126 0.929 . S
O132 Mn108 2.385 . S
O132 C110 1.234 . S
O133 Mn108 2.209 . S
O133 Mn109 2.215 . S
O133 C110 1.283 . S
O134 Mn108 2.094 . S
O134 C112 1.240 . S
O135 Mn109 2.117 . S
O135 C112 1.264 . S
C136 C129 1.403 . S
C136 C137 1.399 . S
C136 H142 0.929 . S
C137 C117 1.449 . S
C137 C136 1.399 . S
C137 H143 0.930 . S
H138 C118 0.931 . S
H139 C119 0.930 1_556 S
H140 C127 0.931 . S
H141 C128 0.929 . S
H142 C136 0.929 . S
H143 C137 0.930 . S
Mn144 O149 2.095 . S
Mn144 O159 2.162 . S
Mn144 O160 2.297 . S
Mn144 O168 2.385 . S
Mn144 O169 2.209 . S
Mn144 O170 2.094 . S
Mn145 O150 2.121 . S
Mn145 N152 2.257 . S
Mn145 N161 2.282 . S
Mn145 O169 2.215 . S
Mn145 O171 2.117 . S
C146 O168 1.234 . S
C146 O169 1.283 . S
C147 O159 1.281 . S
C147 O160 1.236 . S
C148 O170 1.240 . S
C148 O171 1.264 . S
O149 Mn144 2.095 . S
O149 C158 1.250 . S
O150 Mn145 2.121 . S
O150 C158 1.258 . S
C151 N152 1.326 . S
C151 C155 1.460 . S
C151 H157 0.929 . S
N152 Mn145 2.257 . S
N152 C151 1.326 . S
N152 C156 1.362 . S
C153 C154 1.258 . S
C153 C156 1.431 . S
C153 C173 1.449 1_455 S
C154 C153 1.258 . S
C154 C155 1.477 . S
C154 H174 0.931 . S
C155 C151 1.460 . S
C155 C154 1.477 . S
C155 H175 0.930 . S
C156 N152 1.362 . S
C156 C153 1.431 . S
C156 C166 1.476 . S
H157 C151 0.929 . S
C158 O149 1.250 . S
C158 O150 1.258 . S
O159 Mn144 2.162 . S
O159 C147 1.281 . S
O160 Mn144 2.297 . S
O160 C147 1.236 . S
N161 Mn145 2.282 . S
N161 C162 1.328 . S
N161 C166 1.318 . S
C162 N161 1.328 . S
C162 C163 1.457 . S
C162 H167 0.929 . S
C163 C162 1.457 . S
C163 C164 1.291 . S
C163 H176 0.931 . S
C164 C163 1.291 . S
C164 C165 1.373 . S
C164 H177 0.929 1_455 S
C165 C164 1.373 . S
C165 C166 1.396 . S
C165 C172 1.403 1_455 S
C166 C156 1.476 . S
C166 N161 1.318 . S
C166 C165 1.396 . S
H167 C162 0.929 . S
O168 Mn144 2.385 . S
O168 C146 1.234 . S
O169 Mn144 2.209 . S
O169 Mn145 2.215 . S
O169 C146 1.283 . S
O170 Mn144 2.094 . S
O170 C148 1.240 . S
O171 Mn145 2.117 . S
O171 C148 1.264 . S
C172 C165 1.403 1_655 S
C172 C173 1.399 . S
C172 H178 0.929 . S
C173 C153 1.449 1_655 S
C173 C172 1.399 . S
C173 H179 0.930 . S
H174 C154 0.931 . S
H175 C155 0.930 . S
H176 C163 0.931 . S
H177 C164 0.929 1_655 S
H178 C172 0.929 . S
H179 C173 0.930 . S
Mn180 O185 2.095 . S
Mn180 O195 2.162 1_565 S
Mn180 O196 2.297 1_565 S
Mn180 O204 2.385 . S
Mn180 O205 2.209 . S
Mn180 O206 2.094 . S
Mn181 O186 2.121 . S
Mn181 N188 2.257 . S
Mn181 N197 2.282 . S
Mn181 O205 2.215 . S
Mn181 O207 2.117 . S
C182 O204 1.234 . S
C182 O205 1.283 . S
C183 O195 1.281 . S
C183 O196 1.236 . S
C184 O206 1.240 . S
C184 O207 1.264 . S
O185 Mn180 2.095 . S
O185 C194 1.250 . S
O186 Mn181 2.121 . S
O186 C194 1.258 . S
C187 N188 1.326 . S
C187 C191 1.460 . S
C187 H193 0.929 . S
N188 Mn181 2.257 . S
N188 C187 1.326 . S
N188 C192 1.362 . S
C189 C190 1.258 . S
C189 C192 1.431 . S
C189 C209 1.449 . S
C190 C189 1.258 . S
C190 C191 1.477 . S
C190 H210 0.931 . S
C191 C187 1.460 . S
C191 C190 1.477 . S
C191 H211 0.930 . S
C192 N188 1.362 . S
C192 C189 1.431 . S
C192 C202 1.476 . S
H193 C187 0.929 . S
C194 O185 1.250 . S
C194 O186 1.258 . S
O195 Mn180 2.162 1_545 S
O195 C183 1.281 . S
O196 Mn180 2.297 1_545 S
O196 C183 1.236 . S
N197 Mn181 2.282 . S
N197 C198 1.328 . S
N197 C202 1.318 . S
C198 N197 1.328 . S
C198 C199 1.457 . S
C198 H203 0.929 . S
C199 C198 1.457 . S
C199 C200 1.291 . S
C199 H212 0.931 . S
C200 C199 1.291 . S
C200 C201 1.373 . S
C200 H213 0.929 . S
C201 C200 1.373 . S
C201 C202 1.396 . S
C201 C208 1.403 . S
C202 C192 1.476 . S
C202 N197 1.318 . S
C202 C201 1.396 . S
H203 C198 0.929 . S
O204 Mn180 2.385 . S
O204 C182 1.234 . S
O205 Mn180 2.209 . S
O205 Mn181 2.215 . S
O205 C182 1.283 . S
O206 Mn180 2.094 . S
O206 C184 1.240 . S
O207 Mn181 2.117 . S
O207 C184 1.264 . S
C208 C201 1.403 . S
C208 C209 1.399 . S
C208 H214 0.929 . S
C209 C189 1.449 . S
C209 C208 1.399 . S
C209 H215 0.930 . S
H210 C190 0.931 . S
H211 C191 0.930 . S
H212 C199 0.931 . S
H213 C200 0.929 . S
H214 C208 0.929 . S
H215 C209 0.930 . S
Mn216 O221 2.095 . S
Mn216 O231 2.162 . S
Mn216 O232 2.297 . S
Mn216 O240 2.385 . S
Mn216 O241 2.209 . S
Mn216 O242 2.094 . S
Mn217 O222 2.121 . S
Mn217 N224 2.257 . S
Mn217 N233 2.282 . S
Mn217 O241 2.215 . S
Mn217 O243 2.117 . S
C218 O240 1.234 . S
C218 O241 1.283 . S
C219 O231 1.281 . S
C219 O232 1.236 . S
C220 O242 1.240 . S
C220 O243 1.264 . S
O221 Mn216 2.095 . S
O221 C230 1.250 . S
O222 Mn217 2.121 . S
O222 C230 1.258 . S
C223 N224 1.326 . S
C223 C227 1.460 . S
C223 H229 0.929 . S
N224 Mn217 2.257 . S
N224 C223 1.326 . S
N224 C228 1.362 . S
C225 C226 1.258 . S
C225 C228 1.431 . S
C225 C245 1.449 . S
C226 C225 1.258 . S
C226 C227 1.477 . S
C226 H246 0.931 . S
C227 C223 1.460 . S
C227 C226 1.477 . S
C227 H247 0.930 . S
C228 N224 1.362 . S
C228 C225 1.431 . S
C228 C238 1.476 . S
H229 C223 0.929 . S
C230 O221 1.250 . S
C230 O222 1.258 . S
O231 Mn216 2.162 . S
O231 C219 1.281 . S
O232 Mn216 2.297 . S
O232 C219 1.236 . S
N233 Mn217 2.282 . S
N233 C234 1.328 . S
N233 C238 1.318 . S
C234 N233 1.328 . S
C234 C235 1.457 . S
C234 H239 0.929 . S
C235 C234 1.457 . S
C235 C236 1.291 . S
C235 H248 0.931 . S
C236 C235 1.291 . S
C236 C237 1.373 . S
C236 H249 0.929 . S
C237 C236 1.373 . S
C237 C238 1.396 . S
C237 C244 1.403 . S
C238 C228 1.476 . S
C238 N233 1.318 . S
C238 C237 1.396 . S
H239 C234 0.929 . S
O240 Mn216 2.385 . S
O240 C218 1.234 . S
O241 Mn216 2.209 . S
O241 Mn217 2.215 . S
O241 C218 1.283 . S
O242 Mn216 2.094 . S
O242 C220 1.240 . S
O243 Mn217 2.117 . S
O243 C220 1.264 . S
C244 C237 1.403 . S
C244 C245 1.399 . S
C244 H250 0.929 . S
C245 C225 1.449 . S
C245 C244 1.399 . S
C245 H251 0.930 . S
H246 C226 0.931 . S
H247 C227 0.930 . S
H248 C235 0.931 . S
H249 C236 0.929 . S
H250 C244 0.929 . S
H251 C245 0.930 . S
Mn252 O257 2.095 . S
Mn252 O267 2.162 1_545 S
Mn252 O268 2.297 1_545 S
Mn252 O276 2.385 . S
Mn252 O277 2.209 . S
Mn252 O278 2.094 1_455 S
Mn253 O258 2.121 . S
Mn253 N260 2.257 . S
Mn253 N269 2.282 . S
Mn253 O277 2.215 . S
Mn253 O279 2.117 1_455 S
C254 O276 1.234 . S
C254 O277 1.283 . S
C255 O267 1.281 . S
C255 O268 1.236 . S
C256 O278 1.240 . S
C256 O279 1.264 . S
O257 Mn252 2.095 . S
O257 C266 1.250 . S
O258 Mn253 2.121 . S
O258 C266 1.258 . S
C259 N260 1.326 . S
C259 C263 1.460 . S
C259 H265 0.929 . S
N260 Mn253 2.257 . S
N260 C259 1.326 . S
N260 C264 1.362 . S
C261 C262 1.258 . S
C261 C264 1.431 . S
C261 C281 1.449 . S
C262 C261 1.258 . S
C262 C263 1.477 . S
C262 H282 0.931 . S
C263 C259 1.460 . S
C263 C262 1.477 . S
C263 H283 0.930 1_556 S
C264 N260 1.362 . S
C264 C261 1.431 . S
C264 C274 1.476 . S
H265 C259 0.929 . S
C266 O257 1.250 . S
C266 O258 1.258 . S
O267 Mn252 2.162 1_565 S
O267 C255 1.281 . S
O268 Mn252 2.297 1_565 S
O268 C255 1.236 . S
N269 Mn253 2.282 . S
N269 C270 1.328 . S
N269 C274 1.318 . S
C270 N269 1.328 . S
C270 C271 1.457 . S
C270 H275 0.929 . S
C271 C270 1.457 . S
C271 C272 1.291 . S
C271 H284 0.931 . S
C272 C271 1.291 . S
C272 C273 1.373 . S
C272 H285 0.929 . S
C273 C272 1.373 . S
C273 C274 1.396 . S
C273 C280 1.403 . S
C274 C264 1.476 . S
C274 N269 1.318 . S
C274 C273 1.396 . S
H275 C270 0.929 . S
O276 Mn252 2.385 . S
O276 C254 1.234 . S
O277 Mn252 2.209 . S
O277 Mn253 2.215 . S
O277 C254 1.283 . S
O278 Mn252 2.094 1_655 S
O278 C256 1.240 . S
O279 Mn253 2.117 1_655 S
O279 C256 1.264 . S
C280 C273 1.403 . S
C280 C281 1.399 . S
C280 H286 0.929 . S
C281 C261 1.449 . S
C281 C280 1.399 . S
C281 H287 0.930 . S
H282 C262 0.931 . S
H283 C263 0.930 1_554 S
H284 C271 0.931 . S
H285 C272 0.929 . S
H286 C280 0.929 . S
H287 C281 0.930 . S
Mn288 O293 2.095 . S
Mn288 O303 2.162 . S
Mn288 O304 2.297 . S
Mn288 O312 2.385 . S
Mn288 O313 2.209 . S
Mn288 O314 2.094 . S
Mn289 O294 2.121 . S
Mn289 N296 2.257 . S
Mn289 N305 2.282 . S
Mn289 O313 2.215 . S
Mn289 O315 2.117 . S
C290 O312 1.234 . S
C290 O313 1.283 . S
C291 O303 1.281 . S
C291 O304 1.236 . S
C292 O314 1.240 . S
C292 O315 1.264 . S
O293 Mn288 2.095 . S
O293 C302 1.250 . S
O294 Mn289 2.121 . S
O294 C302 1.258 . S
C295 N296 1.326 . S
C295 C299 1.460 . S
C295 H301 0.929 . S
N296 Mn289 2.257 . S
N296 C295 1.326 . S
N296 C300 1.362 . S
C297 C298 1.258 . S
C297 C300 1.431 . S
C297 C317 1.449 . S
C298 C297 1.258 . S
C298 C299 1.477 . S
C298 H318 0.931 . S
C299 C295 1.460 . S
C299 C298 1.477 . S
C299 H319 0.930 . S
C300 N296 1.362 . S
C300 C297 1.431 . S
C300 C310 1.476 . S
H301 C295 0.929 . S
C302 O293 1.250 . S
C302 O294 1.258 . S
O303 Mn288 2.162 . S
O303 C291 1.281 . S
O304 Mn288 2.297 . S
O304 C291 1.236 . S
N305 Mn289 2.282 . S
N305 C306 1.328 . S
N305 C310 1.318 . S
C306 N305 1.328 . S
C306 C307 1.457 . S
C306 H311 0.929 . S
C307 C306 1.457 . S
C307 C308 1.291 . S
C307 H320 0.931 . S
C308 C307 1.291 . S
C308 C309 1.373 . S
C308 H321 0.929 1_565 S
C309 C308 1.373 . S
C309 C310 1.396 . S
C309 C316 1.403 1_565 S
C310 C300 1.476 . S
C310 N305 1.318 . S
C310 C309 1.396 . S
H311 C306 0.929 . S
O312 Mn288 2.385 . S
O312 C290 1.234 . S
O313 Mn288 2.209 . S
O313 Mn289 2.215 . S
O313 C290 1.283 . S
O314 Mn288 2.094 . S
O314 C292 1.240 . S
O315 Mn289 2.117 . S
O315 C292 1.264 . S
C316 C309 1.403 1_545 S
C316 C317 1.399 1_545 S
C316 H322 0.929 . S
C317 C297 1.449 . S
C317 C316 1.399 1_565 S
C317 H323 0.930 1_565 S
H318 C298 0.931 . S
H319 C299 0.930 . S
H320 C307 0.931 . S
H321 C308 0.929 1_545 S
H322 C316 0.929 . S
H323 C317 0.930 1_545 S
Mn324 O329 2.095 1_545 S
Mn324 O339 2.162 1_655 S
Mn324 O340 2.297 1_655 S
Mn324 O348 2.385 . S
Mn324 O349 2.209 . S
Mn324 O350 2.094 1_545 S
Mn325 O330 2.121 . S
Mn325 N332 2.257 . S
Mn325 N341 2.282 . S
Mn325 O349 2.215 . S
Mn325 O351 2.117 1_545 S
C326 O348 1.234 . S
C326 O349 1.283 . S
C327 O339 1.281 . S
C327 O340 1.236 . S
C328 O350 1.240 . S
C328 O351 1.264 . S
O329 Mn324 2.095 1_565 S
O329 C338 1.250 1_565 S
O330 Mn325 2.121 . S
O330 C338 1.258 . S
C331 N332 1.326 . S
C331 C335 1.460 . S
C331 H337 0.929 . S
N332 Mn325 2.257 . S
N332 C331 1.326 . S
N332 C336 1.362 . S
C333 C334 1.258 . S
C333 C336 1.431 . S
C333 C353 1.449 . S
C334 C333 1.258 . S
C334 C335 1.477 . S
C334 H354 0.931 . S
C335 C331 1.460 . S
C335 C334 1.477 . S
C335 H355 0.930 . S
C336 N332 1.362 . S
C336 C333 1.431 . S
C336 C346 1.476 . S
H337 C331 0.929 . S
C338 O329 1.250 1_545 S
C338 O330 1.258 . S
O339 Mn324 2.162 1_455 S
O339 C327 1.281 . S
O340 Mn324 2.297 1_455 S
O340 C327 1.236 . S
N341 Mn325 2.282 . S
N341 C342 1.328 . S
N341 C346 1.318 . S
C342 N341 1.328 . S
C342 C343 1.457 . S
C342 H347 0.929 . S
C343 C342 1.457 . S
C343 C344 1.291 . S
C343 H356 0.931 . S
C344 C343 1.291 . S
C344 C345 1.373 . S
C344 H357 0.929 . S
C345 C344 1.373 . S
C345 C346 1.396 . S
C345 C352 1.403 . S
C346 C336 1.476 . S
C346 N341 1.318 . S
C346 C345 1.396 . S
H347 C342 0.929 . S
O348 Mn324 2.385 . S
O348 C326 1.234 . S
O349 Mn324 2.209 . S
O349 Mn325 2.215 . S
O349 C326 1.283 . S
O350 Mn324 2.094 1_565 S
O350 C328 1.240 . S
O351 Mn325 2.117 1_565 S
O351 C328 1.264 . S
C352 C345 1.403 . S
C352 C353 1.399 . S
C352 H358 0.929 . S
C353 C333 1.449 . S
C353 C352 1.399 . S
C353 H359 0.930 . S
H354 C334 0.931 . S
H355 C335 0.930 . S
H356 C343 0.931 . S
H357 C344 0.929 . S
H358 C352 0.929 . S
H359 C353 0.930 . S
Mn360 O365 2.095 . S
Mn360 O375 2.162 . S
Mn360 O376 2.297 . S
Mn360 O384 2.385 . S
Mn360 O385 2.209 . S
Mn360 O386 2.094 . S
Mn361 O366 2.121 . S
Mn361 N368 2.257 . S
Mn361 N377 2.282 . S
Mn361 O385 2.215 . S
Mn361 O387 2.117 . S
C362 O384 1.234 . S
C362 O385 1.283 . S
C363 O375 1.281 . S
C363 O376 1.236 . S
C364 O386 1.240 . S
C364 O387 1.264 . S
O365 Mn360 2.095 . S
O365 C374 1.250 . S
O366 Mn361 2.121 . S
O366 C374 1.258 . S
C367 N368 1.326 . S
C367 C371 1.460 . S
C367 H373 0.929 . S
N368 Mn361 2.257 . S
N368 C367 1.326 . S
N368 C372 1.362 . S
C369 C370 1.258 . S
C369 C372 1.431 . S
C369 C389 1.449 . S
C370 C369 1.258 . S
C370 C371 1.477 . S
C370 H390 0.931 . S
C371 C367 1.460 . S
C371 C370 1.477 . S
C371 H391 0.930 . S
C372 N368 1.362 . S
C372 C369 1.431 . S
C372 C382 1.476 . S
H373 C367 0.929 . S
C374 O365 1.250 . S
C374 O366 1.258 . S
O375 Mn360 2.162 . S
O375 C363 1.281 . S
O376 Mn360 2.297 . S
O376 C363 1.236 . S
N377 Mn361 2.282 . S
N377 C378 1.328 . S
N377 C382 1.318 . S
C378 N377 1.328 . S
C378 C379 1.457 . S
C378 H383 0.929 . S
C379 C378 1.457 . S
C379 C380 1.291 . S
C379 H392 0.931 . S
C380 C379 1.291 . S
C380 C381 1.373 . S
C380 H393 0.929 1_545 S
C381 C380 1.373 . S
C381 C382 1.396 . S
C381 C388 1.403 1_545 S
C382 C372 1.476 . S
C382 N377 1.318 . S
C382 C381 1.396 . S
H383 C378 0.929 . S
O384 Mn360 2.385 . S
O384 C362 1.234 . S
O385 Mn360 2.209 . S
O385 Mn361 2.215 . S
O385 C362 1.283 . S
O386 Mn360 2.094 . S
O386 C364 1.240 . S
O387 Mn361 2.117 . S
O387 C364 1.264 . S
C388 C381 1.403 1_565 S
C388 C389 1.399 1_565 S
C388 H394 0.929 . S
C389 C369 1.449 . S
C389 C388 1.399 1_545 S
C389 H395 0.930 1_545 S
H390 C370 0.931 . S
H391 C371 0.930 . S
H392 C379 0.931 . S
H393 C380 0.929 1_565 S
H394 C388 0.929 . S
H395 C389 0.930 1_565 S
Mn396 O401 2.095 1_565 S
Mn396 O411 2.162 . S
Mn396 O412 2.297 . S
Mn396 O420 2.385 . S
Mn396 O421 2.209 . S
Mn396 O422 2.094 1_565 S
Mn397 O402 2.121 . S
Mn397 N404 2.257 . S
Mn397 N413 2.282 . S
Mn397 O421 2.215 . S
Mn397 O423 2.117 1_565 S
C398 O420 1.234 . S
C398 O421 1.283 . S
C399 O411 1.281 . S
C399 O412 1.236 . S
C400 O422 1.240 . S
C400 O423 1.264 . S
O401 Mn396 2.095 1_545 S
O401 C410 1.250 1_545 S
O402 Mn397 2.121 . S
O402 C410 1.258 . S
C403 N404 1.326 . S
C403 C407 1.460 . S
C403 H409 0.929 . S
N404 Mn397 2.257 . S
N404 C403 1.326 . S
N404 C408 1.362 . S
C405 C406 1.258 . S
C405 C408 1.431 . S
C405 C425 1.449 . S
C406 C405 1.258 . S
C406 C407 1.477 . S
C406 H426 0.931 . S
C407 C403 1.460 . S
C407 C406 1.477 . S
C407 H427 0.930 1_556 S
C408 N404 1.362 . S
C408 C405 1.431 . S
C408 C418 1.476 . S
H409 C403 0.929 . S
C410 O401 1.250 1_565 S
C410 O402 1.258 . S
O411 Mn396 2.162 . S
O411 C399 1.281 . S
O412 Mn396 2.297 . S
O412 C399 1.236 . S
N413 Mn397 2.282 . S
N413 C414 1.328 . S
N413 C418 1.318 . S
C414 N413 1.328 . S
C414 C415 1.457 . S
C414 H419 0.929 . S
C415 C414 1.457 . S
C415 C416 1.291 . S
C415 H428 0.931 . S
C416 C415 1.291 . S
C416 C417 1.373 . S
C416 H429 0.929 . S
C417 C416 1.373 . S
C417 C418 1.396 . S
C417 C424 1.403 . S
C418 C408 1.476 . S
C418 N413 1.318 . S
C418 C417 1.396 . S
H419 C414 0.929 . S
O420 Mn396 2.385 . S
O420 C398 1.234 . S
O421 Mn396 2.209 . S
O421 Mn397 2.215 . S
O421 C398 1.283 . S
O422 Mn396 2.094 1_545 S
O422 C400 1.240 . S
O423 Mn397 2.117 1_545 S
O423 C400 1.264 . S
C424 C417 1.403 . S
C424 C425 1.399 . S
C424 H430 0.929 . S
C425 C405 1.449 . S
C425 C424 1.399 . S
C425 H431 0.930 . S
H426 C406 0.931 . S
H427 C407 0.930 1_554 S
H428 C415 0.931 . S
H429 C416 0.929 . S
H430 C424 0.929 . S
H431 C425 0.930 . S
Mn432 O437 2.095 . S
Mn432 O447 2.162 . S
Mn432 O448 2.297 . S
Mn432 O456 2.385 . S
Mn432 O457 2.209 . S
Mn432 O458 2.094 . S
Mn433 O438 2.121 . S
Mn433 N440 2.257 . S
Mn433 N449 2.282 . S
Mn433 O457 2.215 . S
Mn433 O459 2.117 . S
C434 O456 1.234 . S
C434 O457 1.283 . S
C435 O447 1.281 . S
C435 O448 1.236 . S
C436 O458 1.240 . S
C436 O459 1.264 . S
O437 Mn432 2.095 . S
O437 C446 1.250 . S
O438 Mn433 2.121 . S
O438 C446 1.258 . S
C439 N440 1.326 . S
C439 C443 1.460 . S
C439 H445 0.929 . S
N440 Mn433 2.257 . S
N440 C439 1.326 . S
N440 C444 1.362 . S
C441 C442 1.258 . S
C441 C444 1.431 . S
C441 C461 1.449 . S
C442 C441 1.258 . S
C442 C443 1.477 . S
C442 H462 0.931 . S
C443 C439 1.460 . S
C443 C442 1.477 . S
C443 H463 0.930 . S
C444 N440 1.362 . S
C444 C441 1.431 . S
C444 C454 1.476 . S
H445 C439 0.929 . S
C446 O437 1.250 . S
C446 O438 1.258 . S
O447 Mn432 2.162 . S
O447 C435 1.281 . S
O448 Mn432 2.297 . S
O448 C435 1.236 . S
N449 Mn433 2.282 . S
N449 C450 1.328 . S
N449 C454 1.318 . S
C450 N449 1.328 . S
C450 C451 1.457 . S
C450 H455 0.929 . S
C451 C450 1.457 . S
C451 C452 1.291 . S
C451 H464 0.931 . S
C452 C451 1.291 . S
C452 C453 1.373 . S
C452 H465 0.929 1_545 S
C453 C452 1.373 . S
C453 C454 1.396 . S
C453 C460 1.403 1_545 S
C454 C444 1.476 . S
C454 N449 1.318 . S
C454 C453 1.396 . S
H455 C450 0.929 . S
O456 Mn432 2.385 . S
O456 C434 1.234 . S
O457 Mn432 2.209 . S
O457 Mn433 2.215 . S
O457 C434 1.283 . S
O458 Mn432 2.094 . S
O458 C436 1.240 . S
O459 Mn433 2.117 . S
O459 C436 1.264 . S
C460 C453 1.403 1_565 S
C460 C461 1.399 1_565 S
C460 H466 0.929 . S
C461 C441 1.449 . S
C461 C460 1.399 1_545 S
C461 H467 0.930 1_545 S
H462 C442 0.931 . S
H463 C443 0.930 . S
H464 C451 0.931 . S
H465 C452 0.929 1_565 S
H466 C460 0.929 . S
H467 C461 0.930 1_565 S
Mn468 O473 2.095 1_545 S
Mn468 O483 2.162 . S
Mn468 O484 2.297 . S
Mn468 O492 2.385 . S
Mn468 O493 2.209 . S
Mn468 O494 2.094 1_545 S
Mn469 O474 2.121 . S
Mn469 N476 2.257 . S
Mn469 N485 2.282 . S
Mn469 O493 2.215 . S
Mn469 O495 2.117 1_545 S
C470 O492 1.234 . S
C470 O493 1.283 . S
C471 O483 1.281 . S
C471 O484 1.236 . S
C472 O494 1.240 . S
C472 O495 1.264 . S
O473 Mn468 2.095 1_565 S
O473 C482 1.250 1_565 S
O474 Mn469 2.121 . S
O474 C482 1.258 . S
C475 N476 1.326 . S
C475 C479 1.460 . S
C475 H481 0.929 . S
N476 Mn469 2.257 . S
N476 C475 1.326 . S
N476 C480 1.362 . S
C477 C478 1.258 . S
C477 C480 1.431 . S
C477 C497 1.449 . S
C478 C477 1.258 . S
C478 C479 1.477 . S
C478 H498 0.931 . S
C479 C475 1.460 . S
C479 C478 1.477 . S
C479 H499 0.930 . S
C480 N476 1.362 . S
C480 C477 1.431 . S
C480 C490 1.476 . S
H481 C475 0.929 . S
C482 O473 1.250 1_545 S
C482 O474 1.258 . S
O483 Mn468 2.162 . S
O483 C471 1.281 . S
O484 Mn468 2.297 . S
O484 C471 1.236 . S
N485 Mn469 2.282 . S
N485 C486 1.328 . S
N485 C490 1.318 . S
C486 N485 1.328 . S
C486 C487 1.457 . S
C486 H491 0.929 . S
C487 C486 1.457 . S
C487 C488 1.291 . S
C487 H500 0.931 . S
C488 C487 1.291 . S
C488 C489 1.373 . S
C488 H501 0.929 . S
C489 C488 1.373 . S
C489 C490 1.396 . S
C489 C496 1.403 . S
C490 C480 1.476 . S
C490 N485 1.318 . S
C490 C489 1.396 . S
H491 C486 0.929 . S
O492 Mn468 2.385 . S
O492 C470 1.234 . S
O493 Mn468 2.209 . S
O493 Mn469 2.215 . S
O493 C470 1.283 . S
O494 Mn468 2.094 1_565 S
O494 C472 1.240 . S
O495 Mn469 2.117 1_565 S
O495 C472 1.264 . S
C496 C489 1.403 . S
C496 C497 1.399 . S
C496 H502 0.929 . S
C497 C477 1.449 . S
C497 C496 1.399 . S
C497 H503 0.930 . S
H498 C478 0.931 . S
H499 C479 0.930 . S
H500 C487 0.931 . S
H501 C488 0.929 . S
H502 C496 0.929 . S
H503 C497 0.930 . S
Mn504 O509 2.095 . S
Mn504 O519 2.162 . S
Mn504 O520 2.297 . S
Mn504 O528 2.385 . S
Mn504 O529 2.209 . S
Mn504 O530 2.094 . S
Mn505 O510 2.121 . S
Mn505 N512 2.257 . S
Mn505 N521 2.282 . S
Mn505 O529 2.215 . S
Mn505 O531 2.117 . S
C506 O528 1.234 . S
C506 O529 1.283 . S
C507 O519 1.281 . S
C507 O520 1.236 . S
C508 O530 1.240 . S
C508 O531 1.264 . S
O509 Mn504 2.095 . S
O509 C518 1.250 . S
O510 Mn505 2.121 . S
O510 C518 1.258 . S
C511 N512 1.326 . S
C511 C515 1.460 . S
C511 H517 0.929 . S
N512 Mn505 2.257 . S
N512 C511 1.326 . S
N512 C516 1.362 . S
C513 C514 1.258 . S
C513 C516 1.431 . S
C513 C533 1.449 . S
C514 C513 1.258 . S
C514 C515 1.477 . S
C514 H534 0.931 . S
C515 C511 1.460 . S
C515 C514 1.477 . S
C515 H535 0.930 . S
C516 N512 1.362 . S
C516 C513 1.431 . S
C516 C526 1.476 . S
H517 C511 0.929 . S
C518 O509 1.250 . S
C518 O510 1.258 . S
O519 Mn504 2.162 . S
O519 C507 1.281 . S
O520 Mn504 2.297 . S
O520 C507 1.236 . S
N521 Mn505 2.282 . S
N521 C522 1.328 . S
N521 C526 1.318 . S
C522 N521 1.328 . S
C522 C523 1.457 . S
C522 H527 0.929 . S
C523 C522 1.457 . S
C523 C524 1.291 . S
C523 H536 0.931 . S
C524 C523 1.291 . S
C524 C525 1.373 . S
C524 H537 0.929 1_565 S
C525 C524 1.373 . S
C525 C526 1.396 . S
C525 C532 1.403 1_565 S
C526 C516 1.476 . S
C526 N521 1.318 . S
C526 C525 1.396 . S
H527 C522 0.929 . S
O528 Mn504 2.385 . S
O528 C506 1.234 . S
O529 Mn504 2.209 . S
O529 Mn505 2.215 . S
O529 C506 1.283 . S
O530 Mn504 2.094 . S
O530 C508 1.240 . S
O531 Mn505 2.117 . S
O531 C508 1.264 . S
C532 C525 1.403 1_545 S
C532 C533 1.399 1_545 S
C532 H538 0.929 . S
C533 C513 1.449 . S
C533 C532 1.399 1_565 S
C533 H539 0.930 1_565 S
H534 C514 0.931 . S
H535 C515 0.930 . S
H536 C523 0.931 . S
H537 C524 0.929 1_545 S
H538 C532 0.929 . S
H539 C533 0.930 1_545 S
Mn540 O545 2.095 1_565 S
Mn540 O555 2.162 1_655 S
Mn540 O556 2.297 1_655 S
Mn540 O564 2.385 . S
Mn540 O565 2.209 . S
Mn540 O566 2.094 1_565 S
Mn541 O546 2.121 . S
Mn541 N548 2.257 . S
Mn541 N557 2.282 . S
Mn541 O565 2.215 . S
Mn541 O567 2.117 1_565 S
C542 O564 1.234 . S
C542 O565 1.283 . S
C543 O555 1.281 . S
C543 O556 1.236 . S
C544 O566 1.240 . S
C544 O567 1.264 . S
O545 Mn540 2.095 1_545 S
O545 C554 1.250 1_545 S
O546 Mn541 2.121 . S
O546 C554 1.258 . S
C547 N548 1.326 . S
C547 C551 1.460 . S
C547 H553 0.929 . S
N548 Mn541 2.257 . S
N548 C547 1.326 . S
N548 C552 1.362 . S
C549 C550 1.258 . S
C549 C552 1.431 . S
C549 C569 1.449 . S
C550 C549 1.258 . S
C550 C551 1.477 . S
C550 H570 0.931 . S
C551 C547 1.460 . S
C551 C550 1.477 . S
C551 H571 0.930 1_554 S
C552 N548 1.362 . S
C552 C549 1.431 . S
C552 C562 1.476 . S
H553 C547 0.929 . S
C554 O545 1.250 1_565 S
C554 O546 1.258 . S
O555 Mn540 2.162 1_455 S
O555 C543 1.281 . S
O556 Mn540 2.297 1_455 S
O556 C543 1.236 . S
N557 Mn541 2.282 . S
N557 C558 1.328 . S
N557 C562 1.318 . S
C558 N557 1.328 . S
C558 C559 1.457 . S
C558 H563 0.929 . S
C559 C558 1.457 . S
C559 C560 1.291 . S
C559 H572 0.931 . S
C560 C559 1.291 . S
C560 C561 1.373 . S
C560 H573 0.929 . S
C561 C560 1.373 . S
C561 C562 1.396 . S
C561 C568 1.403 . S
C562 C552 1.476 . S
C562 N557 1.318 . S
C562 C561 1.396 . S
H563 C558 0.929 . S
O564 Mn540 2.385 . S
O564 C542 1.234 . S
O565 Mn540 2.209 . S
O565 Mn541 2.215 . S
O565 C542 1.283 . S
O566 Mn540 2.094 1_545 S
O566 C544 1.240 . S
O567 Mn541 2.117 1_545 S
O567 C544 1.264 . S
C568 C561 1.403 . S
C568 C569 1.399 . S
C568 H574 0.929 . S
C569 C549 1.449 . S
C569 C568 1.399 . S
C569 H575 0.930 . S
H570 C550 0.931 . S
H571 C551 0.930 1_556 S
H572 C559 0.931 . S
H573 C560 0.929 . S
H574 C568 0.929 . S
H575 C569 0.930 . S
Mn576 O581 2.095 . S
Mn576 O591 2.162 . S
Mn576 O592 2.297 . S
Mn576 O600 2.385 . S
Mn576 O601 2.209 . S
Mn576 O602 2.094 . S
Mn577 O582 2.121 . S
Mn577 N584 2.257 . S
Mn577 N593 2.282 . S
Mn577 O601 2.215 . S
Mn577 O603 2.117 . S
C578 O600 1.234 . S
C578 O601 1.283 . S
C579 O591 1.281 . S
C579 O592 1.236 . S
C580 O602 1.240 . S
C580 O603 1.264 . S
O581 Mn576 2.095 . S
O581 C590 1.250 . S
O582 Mn577 2.121 . S
O582 C590 1.258 . S
C583 N584 1.326 . S
C583 C587 1.460 . S
C583 H589 0.929 . S
N584 Mn577 2.257 . S
N584 C583 1.326 . S
N584 C588 1.362 . S
C585 C586 1.258 . S
C585 C588 1.431 . S
C585 C605 1.449 . S
C586 C585 1.258 . S
C586 C587 1.477 . S
C586 H606 0.931 . S
C587 C583 1.460 . S
C587 C586 1.477 . S
C587 H607 0.930 . S
C588 N584 1.362 . S
C588 C585 1.431 . S
C588 C598 1.476 . S
H589 C583 0.929 . S
C590 O581 1.250 . S
C590 O582 1.258 . S
O591 Mn576 2.162 . S
O591 C579 1.281 . S
O592 Mn576 2.297 . S
O592 C579 1.236 . S
N593 Mn577 2.282 . S
N593 C594 1.328 . S
N593 C598 1.318 . S
C594 N593 1.328 . S
C594 C595 1.457 . S
C594 H599 0.929 . S
C595 C594 1.457 . S
C595 C596 1.291 . S
C595 H608 0.931 . S
C596 C595 1.291 . S
C596 C597 1.373 . S
C596 H609 0.929 . S
C597 C596 1.373 . S
C597 C598 1.396 . S
C597 C604 1.403 . S
C598 C588 1.476 . S
C598 N593 1.318 . S
C598 C597 1.396 . S
H599 C594 0.929 . S
O600 Mn576 2.385 . S
O600 C578 1.234 . S
O601 Mn576 2.209 . S
O601 Mn577 2.215 . S
O601 C578 1.283 . S
O602 Mn576 2.094 . S
O602 C580 1.240 . S
O603 Mn577 2.117 . S
O603 C580 1.264 . S
C604 C597 1.403 . S
C604 C605 1.399 . S
C604 H610 0.929 . S
C605 C585 1.449 . S
C605 C604 1.399 . S
C605 H611 0.930 . S
H606 C586 0.931 . S
H607 C587 0.930 . S
H608 C595 0.931 . S
H609 C596 0.929 . S
H610 C604 0.929 . S
H611 C605 0.930 . S
Mn612 O617 2.095 . S
Mn612 O627 2.162 . S
Mn612 O628 2.297 . S
Mn612 O636 2.385 . S
Mn612 O637 2.209 . S
Mn612 O638 2.094 . S
Mn613 O618 2.121 . S
Mn613 N620 2.257 . S
Mn613 N629 2.282 . S
Mn613 O637 2.215 . S
Mn613 O639 2.117 . S
C614 O636 1.234 . S
C614 O637 1.283 . S
C615 O627 1.281 . S
C615 O628 1.236 . S
C616 O638 1.240 . S
C616 O639 1.264 . S
O617 Mn612 2.095 . S
O617 C626 1.250 . S
O618 Mn613 2.121 . S
O618 C626 1.258 . S
C619 N620 1.326 . S
C619 C623 1.460 . S
C619 H625 0.929 . S
N620 Mn613 2.257 . S
N620 C619 1.326 . S
N620 C624 1.362 . S
C621 C622 1.258 . S
C621 C624 1.431 . S
C621 C641 1.449 . S
C622 C621 1.258 . S
C622 C623 1.477 . S
C622 H642 0.931 . S
C623 C619 1.460 . S
C623 C622 1.477 . S
C623 H643 0.930 1_554 S
C624 N620 1.362 . S
C624 C621 1.431 . S
C624 C634 1.476 . S
H625 C619 0.929 . S
C626 O617 1.250 . S
C626 O618 1.258 . S
O627 Mn612 2.162 . S
O627 C615 1.281 . S
O628 Mn612 2.297 . S
O628 C615 1.236 . S
N629 Mn613 2.282 . S
N629 C630 1.328 . S
N629 C634 1.318 . S
C630 N629 1.328 . S
C630 C631 1.457 . S
C630 H635 0.929 . S
C631 C630 1.457 . S
C631 C632 1.291 . S
C631 H644 0.931 . S
C632 C631 1.291 . S
C632 C633 1.373 . S
C632 H645 0.929 . S
C633 C632 1.373 . S
C633 C634 1.396 . S
C633 C640 1.403 . S
C634 C624 1.476 . S
C634 N629 1.318 . S
C634 C633 1.396 . S
H635 C630 0.929 . S
O636 Mn612 2.385 . S
O636 C614 1.234 . S
O637 Mn612 2.209 . S
O637 Mn613 2.215 . S
O637 C614 1.283 . S
O638 Mn612 2.094 . S
O638 C616 1.240 . S
O639 Mn613 2.117 . S
O639 C616 1.264 . S
C640 C633 1.403 . S
C640 C641 1.399 . S
C640 H646 0.929 . S
C641 C621 1.449 . S
C641 C640 1.399 . S
C641 H647 0.930 . S
H642 C622 0.931 . S
H643 C623 0.930 1_556 S
H644 C631 0.931 . S
H645 C632 0.929 . S
H646 C640 0.929 . S
H647 C641 0.930 . S
Mn648 O653 2.095 . S
Mn648 O663 2.162 . S
Mn648 O664 2.297 . S
Mn648 O672 2.385 . S
Mn648 O673 2.209 . S
Mn648 O674 2.094 . S
Mn649 O654 2.121 . S
Mn649 N656 2.257 . S
Mn649 N665 2.282 . S
Mn649 O673 2.215 . S
Mn649 O675 2.117 . S
C650 O672 1.234 . S
C650 O673 1.283 . S
C651 O663 1.281 . S
C651 O664 1.236 . S
C652 O674 1.240 . S
C652 O675 1.264 . S
O653 Mn648 2.095 . S
O653 C662 1.250 . S
O654 Mn649 2.121 . S
O654 C662 1.258 . S
C655 N656 1.326 . S
C655 C659 1.460 . S
C655 H661 0.929 . S
N656 Mn649 2.257 . S
N656 C655 1.326 . S
N656 C660 1.362 . S
C657 C658 1.258 . S
C657 C660 1.431 . S
C657 C677 1.449 1_655 S
C658 C657 1.258 . S
C658 C659 1.477 . S
C658 H678 0.931 . S
C659 C655 1.460 . S
C659 C658 1.477 . S
C659 H679 0.930 . S
C660 N656 1.362 . S
C660 C657 1.431 . S
C660 C670 1.476 . S
H661 C655 0.929 . S
C662 O653 1.250 . S
C662 O654 1.258 . S
O663 Mn648 2.162 . S
O663 C651 1.281 . S
O664 Mn648 2.297 . S
O664 C651 1.236 . S
N665 Mn649 2.282 . S
N665 C666 1.328 . S
N665 C670 1.318 . S
C666 N665 1.328 . S
C666 C667 1.457 . S
C666 H671 0.929 . S
C667 C666 1.457 . S
C667 C668 1.291 . S
C667 H680 0.931 . S
C668 C667 1.291 . S
C668 C669 1.373 . S
C668 H681 0.929 1_655 S
C669 C668 1.373 . S
C669 C670 1.396 . S
C669 C676 1.403 1_655 S
C670 C660 1.476 . S
C670 N665 1.318 . S
C670 C669 1.396 . S
H671 C666 0.929 . S
O672 Mn648 2.385 . S
O672 C650 1.234 . S
O673 Mn648 2.209 . S
O673 Mn649 2.215 . S
O673 C650 1.283 . S
O674 Mn648 2.094 . S
O674 C652 1.240 . S
O675 Mn649 2.117 . S
O675 C652 1.264 . S
C676 C669 1.403 1_455 S
C676 C677 1.399 . S
C676 H682 0.929 . S
C677 C657 1.449 1_455 S
C677 C676 1.399 . S
C677 H683 0.930 . S
H678 C658 0.931 . S
H679 C659 0.930 . S
H680 C667 0.931 . S
H681 C668 0.929 1_455 S
H682 C676 0.929 . S
H683 C677 0.930 . S
Mn684 O689 2.095 . S
Mn684 O699 2.162 . S
Mn684 O700 2.297 . S
Mn684 O708 2.385 . S
Mn684 O709 2.209 . S
Mn684 O710 2.094 1_655 S
Mn685 O690 2.121 . S
Mn685 N692 2.257 . S
Mn685 N701 2.282 . S
Mn685 O709 2.215 . S
Mn685 O711 2.117 1_655 S
C686 O708 1.234 . S
C686 O709 1.283 . S
C687 O699 1.281 . S
C687 O700 1.236 . S
C688 O710 1.240 . S
C688 O711 1.264 . S
O689 Mn684 2.095 . S
O689 C698 1.250 . S
O690 Mn685 2.121 . S
O690 C698 1.258 . S
C691 N692 1.326 . S
C691 C695 1.460 . S
C691 H697 0.929 . S
N692 Mn685 2.257 . S
N692 C691 1.326 . S
N692 C696 1.362 . S
C693 C694 1.258 . S
C693 C696 1.431 . S
C693 C713 1.449 . S
C694 C693 1.258 . S
C694 C695 1.477 . S
C694 H714 0.931 . S
C695 C691 1.460 . S
C695 C694 1.477 . S
C695 H715 0.930 . S
C696 N692 1.362 . S
C696 C693 1.431 . S
C696 C706 1.476 . S
H697 C691 0.929 . S
C698 O689 1.250 . S
C698 O690 1.258 . S
O699 Mn684 2.162 . S
O699 C687 1.281 . S
O700 Mn684 2.297 . S
O700 C687 1.236 . S
N701 Mn685 2.282 . S
N701 C702 1.328 . S
N701 C706 1.318 . S
C702 N701 1.328 . S
C702 C703 1.457 . S
C702 H707 0.929 . S
C703 C702 1.457 . S
C703 C704 1.291 . S
C703 H716 0.931 . S
C704 C703 1.291 . S
C704 C705 1.373 . S
C704 H717 0.929 . S
C705 C704 1.373 . S
C705 C706 1.396 . S
C705 C712 1.403 . S
C706 C696 1.476 . S
C706 N701 1.318 . S
C706 C705 1.396 . S
H707 C702 0.929 . S
O708 Mn684 2.385 . S
O708 C686 1.234 . S
O709 Mn684 2.209 . S
O709 Mn685 2.215 . S
O709 C686 1.283 . S
O710 Mn684 2.094 1_455 S
O710 C688 1.240 . S
O711 Mn685 2.117 1_455 S
O711 C688 1.264 . S
C712 C705 1.403 . S
C712 C713 1.399 . S
C712 H718 0.929 . S
C713 C693 1.449 . S
C713 C712 1.399 . S
C713 H719 0.930 . S
H714 C694 0.931 . S
H715 C695 0.930 . S
H716 C703 0.931 . S
H717 C704 0.929 . S
H718 C712 0.929 . S
H719 C713 0.930 . S
Mn720 O725 2.095 . S
Mn720 O735 2.162 . S
Mn720 O736 2.297 . S
Mn720 O744 2.385 . S
Mn720 O745 2.209 . S
Mn720 O746 2.094 . S
Mn721 O726 2.121 . S
Mn721 N728 2.257 . S
Mn721 N737 2.282 . S
Mn721 O745 2.215 . S
Mn721 O747 2.117 . S
C722 O744 1.234 . S
C722 O745 1.283 . S
C723 O735 1.281 . S
C723 O736 1.236 . S
C724 O746 1.240 . S
C724 O747 1.264 . S
O725 Mn720 2.095 . S
O725 C734 1.250 . S
O726 Mn721 2.121 . S
O726 C734 1.258 . S
C727 N728 1.326 . S
C727 C731 1.460 . S
C727 H733 0.929 . S
N728 Mn721 2.257 . S
N728 C727 1.326 . S
N728 C732 1.362 . S
C729 C730 1.258 . S
C729 C732 1.431 . S
C729 C749 1.449 . S
C730 C729 1.258 . S
C730 C731 1.477 . S
C730 H750 0.931 . S
C731 C727 1.460 . S
C731 C730 1.477 . S
C731 H751 0.930 . S
C732 N728 1.362 . S
C732 C729 1.431 . S
C732 C742 1.476 . S
H733 C727 0.929 . S
C734 O725 1.250 . S
C734 O726 1.258 . S
O735 Mn720 2.162 . S
O735 C723 1.281 . S
O736 Mn720 2.297 . S
O736 C723 1.236 . S
N737 Mn721 2.282 . S
N737 C738 1.328 . S
N737 C742 1.318 . S
C738 N737 1.328 . S
C738 C739 1.457 . S
C738 H743 0.929 . S
C739 C738 1.457 . S
C739 C740 1.291 . S
C739 H752 0.931 . S
C740 C739 1.291 . S
C740 C741 1.373 . S
C740 H753 0.929 . S
C741 C740 1.373 . S
C741 C742 1.396 . S
C741 C748 1.403 . S
C742 C732 1.476 . S
C742 N737 1.318 . S
C742 C741 1.396 . S
H743 C738 0.929 . S
O744 Mn720 2.385 . S
O744 C722 1.234 . S
O745 Mn720 2.209 . S
O745 Mn721 2.215 . S
O745 C722 1.283 . S
O746 Mn720 2.094 . S
O746 C724 1.240 . S
O747 Mn721 2.117 . S
O747 C724 1.264 . S
C748 C741 1.403 . S
C748 C749 1.399 . S
C748 H754 0.929 . S
C749 C729 1.449 . S
C749 C748 1.399 . S
C749 H755 0.930 . S
H750 C730 0.931 . S
H751 C731 0.930 . S
H752 C739 0.931 . S
H753 C740 0.929 . S
H754 C748 0.929 . S
H755 C749 0.930 . S
Mn756 O761 2.095 . S
Mn756 O771 2.162 . S
Mn756 O772 2.297 . S
Mn756 O780 2.385 . S
Mn756 O781 2.209 . S
Mn756 O782 2.094 1_655 S
Mn757 O762 2.121 . S
Mn757 N764 2.257 . S
Mn757 N773 2.282 . S
Mn757 O781 2.215 . S
Mn757 O783 2.117 1_655 S
C758 O780 1.234 . S
C758 O781 1.283 . S
C759 O771 1.281 . S
C759 O772 1.236 . S
C760 O782 1.240 . S
C760 O783 1.264 . S
O761 Mn756 2.095 . S
O761 C770 1.250 . S
O762 Mn757 2.121 . S
O762 C770 1.258 . S
C763 N764 1.326 . S
C763 C767 1.460 . S
C763 H769 0.929 . S
N764 Mn757 2.257 . S
N764 C763 1.326 . S
N764 C768 1.362 . S
C765 C766 1.258 . S
C765 C768 1.431 . S
C765 C785 1.449 . S
C766 C765 1.258 . S
C766 C767 1.477 . S
C766 H786 0.931 . S
C767 C763 1.460 . S
C767 C766 1.477 . S
C767 H787 0.930 1_556 S
C768 N764 1.362 . S
C768 C765 1.431 . S
C768 C778 1.476 . S
H769 C763 0.929 . S
C770 O761 1.250 . S
C770 O762 1.258 . S
O771 Mn756 2.162 . S
O771 C759 1.281 . S
O772 Mn756 2.297 . S
O772 C759 1.236 . S
N773 Mn757 2.282 . S
N773 C774 1.328 . S
N773 C778 1.318 . S
C774 N773 1.328 . S
C774 C775 1.457 . S
C774 H779 0.929 . S
C775 C774 1.457 . S
C775 C776 1.291 . S
C775 H788 0.931 . S
C776 C775 1.291 . S
C776 C777 1.373 . S
C776 H789 0.929 . S
C777 C776 1.373 . S
C777 C778 1.396 . S
C777 C784 1.403 . S
C778 C768 1.476 . S
C778 N773 1.318 . S
C778 C777 1.396 . S
H779 C774 0.929 . S
O780 Mn756 2.385 . S
O780 C758 1.234 . S
O781 Mn756 2.209 . S
O781 Mn757 2.215 . S
O781 C758 1.283 . S
O782 Mn756 2.094 1_455 S
O782 C760 1.240 . S
O783 Mn757 2.117 1_455 S
O783 C760 1.264 . S
C784 C777 1.403 . S
C784 C785 1.399 . S
C784 H790 0.929 . S
C785 C765 1.449 . S
C785 C784 1.399 . S
C785 H791 0.930 . S
H786 C766 0.931 . S
H787 C767 0.930 1_554 S
H788 C775 0.931 . S
H789 C776 0.929 . S
H790 C784 0.929 . S
H791 C785 0.930 . S
Mn792 O797 2.095 . S
Mn792 O807 2.162 . S
Mn792 O808 2.297 . S
Mn792 O816 2.385 . S
Mn792 O817 2.209 . S
Mn792 O818 2.094 . S
Mn793 O798 2.121 . S
Mn793 N800 2.257 . S
Mn793 N809 2.282 . S
Mn793 O817 2.215 . S
Mn793 O819 2.117 . S
C794 O816 1.234 . S
C794 O817 1.283 . S
C795 O807 1.281 . S
C795 O808 1.236 . S
C796 O818 1.240 . S
C796 O819 1.264 . S
O797 Mn792 2.095 . S
O797 C806 1.250 . S
O798 Mn793 2.121 . S
O798 C806 1.258 . S
C799 N800 1.326 . S
C799 C803 1.460 . S
C799 H805 0.929 . S
N800 Mn793 2.257 . S
N800 C799 1.326 . S
N800 C804 1.362 . S
C801 C802 1.258 . S
C801 C804 1.431 . S
C801 C821 1.449 1_655 S
C802 C801 1.258 . S
C802 C803 1.477 . S
C802 H822 0.931 . S
C803 C799 1.460 . S
C803 C802 1.477 . S
C803 H823 0.930 . S
C804 N800 1.362 . S
C804 C801 1.431 . S
C804 C814 1.476 . S
H805 C799 0.929 . S
C806 O797 1.250 . S
C806 O798 1.258 . S
O807 Mn792 2.162 . S
O807 C795 1.281 . S
O808 Mn792 2.297 . S
O808 C795 1.236 . S
N809 Mn793 2.282 . S
N809 C810 1.328 . S
N809 C814 1.318 . S
C810 N809 1.328 . S
C810 C811 1.457 . S
C810 H815 0.929 . S
C811 C810 1.457 . S
C811 C812 1.291 . S
C811 H824 0.931 . S
C812 C811 1.291 . S
C812 C813 1.373 . S
C812 H825 0.929 1_655 S
C813 C812 1.373 . S
C813 C814 1.396 . S
C813 C820 1.403 1_655 S
C814 C804 1.476 . S
C814 N809 1.318 . S
C814 C813 1.396 . S
H815 C810 0.929 . S
O816 Mn792 2.385 . S
O816 C794 1.234 . S
O817 Mn792 2.209 . S
O817 Mn793 2.215 . S
O817 C794 1.283 . S
O818 Mn792 2.094 . S
O818 C796 1.240 . S
O819 Mn793 2.117 . S
O819 C796 1.264 . S
C820 C813 1.403 1_455 S
C820 C821 1.399 . S
C820 H826 0.929 . S
C821 C801 1.449 1_455 S
C821 C820 1.399 . S
C821 H827 0.930 . S
H822 C802 0.931 . S
H823 C803 0.930 . S
H824 C811 0.931 . S
H825 C812 0.929 1_455 S
H826 C820 0.929 . S
H827 C821 0.930 . S
Mn828 O833 2.095 . S
Mn828 O843 2.162 . S
Mn828 O844 2.297 . S
Mn828 O852 2.385 . S
Mn828 O853 2.209 . S
Mn828 O854 2.094 . S
Mn829 O834 2.121 . S
Mn829 N836 2.257 . S
Mn829 N845 2.282 . S
Mn829 O853 2.215 . S
Mn829 O855 2.117 . S
C830 O852 1.234 . S
C830 O853 1.283 . S
C831 O843 1.281 . S
C831 O844 1.236 . S
C832 O854 1.240 . S
C832 O855 1.264 . S
O833 Mn828 2.095 . S
O833 C842 1.250 . S
O834 Mn829 2.121 . S
O834 C842 1.258 . S
C835 N836 1.326 . S
C835 C839 1.460 . S
C835 H841 0.929 . S
N836 Mn829 2.257 . S
N836 C835 1.326 . S
N836 C840 1.362 . S
C837 C838 1.258 . S
C837 C840 1.431 . S
C837 C857 1.449 . S
C838 C837 1.258 . S
C838 C839 1.477 . S
C838 H858 0.931 . S
C839 C835 1.460 . S
C839 C838 1.477 . S
C839 H859 0.930 . S
C840 N836 1.362 . S
C840 C837 1.431 . S
C840 C850 1.476 . S
H841 C835 0.929 . S
C842 O833 1.250 . S
C842 O834 1.258 . S
O843 Mn828 2.162 . S
O843 C831 1.281 . S
O844 Mn828 2.297 . S
O844 C831 1.236 . S
N845 Mn829 2.282 . S
N845 C846 1.328 . S
N845 C850 1.318 . S
C846 N845 1.328 . S
C846 C847 1.457 . S
C846 H851 0.929 . S
C847 C846 1.457 . S
C847 C848 1.291 . S
C847 H860 0.931 . S
C848 C847 1.291 . S
C848 C849 1.373 . S
C848 H861 0.929 . S
C849 C848 1.373 . S
C849 C850 1.396 . S
C849 C856 1.403 . S
C850 C840 1.476 . S
C850 N845 1.318 . S
C850 C849 1.396 . S
H851 C846 0.929 . S
O852 Mn828 2.385 . S
O852 C830 1.234 . S
O853 Mn828 2.209 . S
O853 Mn829 2.215 . S
O853 C830 1.283 . S
O854 Mn828 2.094 . S
O854 C832 1.240 . S
O855 Mn829 2.117 . S
O855 C832 1.264 . S
C856 C849 1.403 . S
C856 C857 1.399 . S
C856 H862 0.929 . S
C857 C837 1.449 . S
C857 C856 1.399 . S
C857 H863 0.930 . S
H858 C838 0.931 . S
H859 C839 0.930 . S
H860 C847 0.931 . S
H861 C848 0.929 . S
H862 C856 0.929 . S
H863 C857 0.930 . S
Mn864 O869 2.095 . S
Mn864 O879 2.162 . S
Mn864 O880 2.297 . S
Mn864 O888 2.385 . S
Mn864 O889 2.209 . S
Mn864 O890 2.094 . S
Mn865 O870 2.121 . S
Mn865 N872 2.257 . S
Mn865 N881 2.282 . S
Mn865 O889 2.215 . S
Mn865 O891 2.117 . S
C866 O888 1.234 . S
C866 O889 1.283 . S
C867 O879 1.281 . S
C867 O880 1.236 . S
C868 O890 1.240 . S
C868 O891 1.264 . S
O869 Mn864 2.095 . S
O869 C878 1.250 . S
O870 Mn865 2.121 . S
O870 C878 1.258 . S
C871 N872 1.326 . S
C871 C875 1.460 . S
C871 H877 0.929 . S
N872 Mn865 2.257 . S
N872 C871 1.326 . S
N872 C876 1.362 . S
C873 C874 1.258 . S
C873 C876 1.431 . S
C873 C893 1.449 . S
C874 C873 1.258 . S
C874 C875 1.477 . S
C874 H894 0.931 . S
C875 C871 1.460 . S
C875 C874 1.477 . S
C875 H895 0.930 . S
C876 N872 1.362 . S
C876 C873 1.431 . S
C876 C886 1.476 . S
H877 C871 0.929 . S
C878 O869 1.250 . S
C878 O870 1.258 . S
O879 Mn864 2.162 . S
O879 C867 1.281 . S
O880 Mn864 2.297 . S
O880 C867 1.236 . S
N881 Mn865 2.282 . S
N881 C882 1.328 . S
N881 C886 1.318 . S
C882 N881 1.328 . S
C882 C883 1.457 . S
C882 H887 0.929 . S
C883 C882 1.457 . S
C883 C884 1.291 . S
C883 H896 0.931 . S
C884 C883 1.291 . S
C884 C885 1.373 . S
C884 H897 0.929 . S
C885 C884 1.373 . S
C885 C886 1.396 . S
C885 C892 1.403 . S
C886 C876 1.476 . S
C886 N881 1.318 . S
C886 C885 1.396 . S
H887 C882 0.929 . S
O888 Mn864 2.385 . S
O888 C866 1.234 . S
O889 Mn864 2.209 . S
O889 Mn865 2.215 . S
O889 C866 1.283 . S
O890 Mn864 2.094 . S
O890 C868 1.240 . S
O891 Mn865 2.117 . S
O891 C868 1.264 . S
C892 C885 1.403 . S
C892 C893 1.399 . S
C892 H898 0.929 . S
C893 C873 1.449 . S
C893 C892 1.399 . S
C893 H899 0.930 . S
H894 C874 0.931 . S
H895 C875 0.930 . S
H896 C883 0.931 . S
H897 C884 0.929 . S
H898 C892 0.929 . S
H899 C893 0.930 . S
Mn900 O905 2.095 . S
Mn900 O915 2.162 . S
Mn900 O916 2.297 . S
Mn900 O924 2.385 . S
Mn900 O925 2.209 . S
Mn900 O926 2.094 . S
Mn901 O906 2.121 . S
Mn901 N908 2.257 . S
Mn901 N917 2.282 . S
Mn901 O925 2.215 . S
Mn901 O927 2.117 . S
C902 O924 1.234 . S
C902 O925 1.283 . S
C903 O915 1.281 . S
C903 O916 1.236 . S
C904 O926 1.240 . S
C904 O927 1.264 . S
O905 Mn900 2.095 . S
O905 C914 1.250 . S
O906 Mn901 2.121 . S
O906 C914 1.258 . S
C907 N908 1.326 . S
C907 C911 1.460 . S
C907 H913 0.929 . S
N908 Mn901 2.257 . S
N908 C907 1.326 . S
N908 C912 1.362 . S
C909 C910 1.258 . S
C909 C912 1.431 . S
C909 C929 1.449 . S
C910 C909 1.258 . S
C910 C911 1.477 . S
C910 H930 0.931 . S
C911 C907 1.460 . S
C911 C910 1.477 . S
C911 H931 0.930 1_556 S
C912 N908 1.362 . S
C912 C909 1.431 . S
C912 C922 1.476 . S
H913 C907 0.929 . S
C914 O905 1.250 . S
C914 O906 1.258 . S
O915 Mn900 2.162 . S
O915 C903 1.281 . S
O916 Mn900 2.297 . S
O916 C903 1.236 . S
N917 Mn901 2.282 . S
N917 C918 1.328 . S
N917 C922 1.318 . S
C918 N917 1.328 . S
C918 C919 1.457 . S
C918 H923 0.929 . S
C919 C918 1.457 . S
C919 C920 1.291 . S
C919 H932 0.931 . S
C920 C919 1.291 . S
C920 C921 1.373 . S
C920 H933 0.929 . S
C921 C920 1.373 . S
C921 C922 1.396 . S
C921 C928 1.403 . S
C922 C912 1.476 . S
C922 N917 1.318 . S
C922 C921 1.396 . S
H923 C918 0.929 . S
O924 Mn900 2.385 . S
O924 C902 1.234 . S
O925 Mn900 2.209 . S
O925 Mn901 2.215 . S
O925 C902 1.283 . S
O926 Mn900 2.094 . S
O926 C904 1.240 . S
O927 Mn901 2.117 . S
O927 C904 1.264 . S
C928 C921 1.403 . S
C928 C929 1.399 . S
C928 H934 0.929 . S
C929 C909 1.449 . S
C929 C928 1.399 . S
C929 H935 0.930 . S
H930 C910 0.931 . S
H931 C911 0.930 1_554 S
H932 C919 0.931 . S
H933 C920 0.929 . S
H934 C928 0.929 . S
H935 C929 0.930 . S
Mn936 O941 2.095 . S
Mn936 O951 2.162 . S
Mn936 O952 2.297 . S
Mn936 O960 2.385 . S
Mn936 O961 2.209 . S
Mn936 O962 2.094 . S
Mn937 O942 2.121 . S
Mn937 N944 2.257 . S
Mn937 N953 2.282 . S
Mn937 O961 2.215 . S
Mn937 O963 2.117 . S
C938 O960 1.234 . S
C938 O961 1.283 . S
C939 O951 1.281 . S
C939 O952 1.236 . S
C940 O962 1.240 . S
C940 O963 1.264 . S
O941 Mn936 2.095 . S
O941 C950 1.250 . S
O942 Mn937 2.121 . S
O942 C950 1.258 . S
C943 N944 1.326 . S
C943 C947 1.460 . S
C943 H949 0.929 . S
N944 Mn937 2.257 . S
N944 C943 1.326 . S
N944 C948 1.362 . S
C945 C946 1.258 . S
C945 C948 1.431 . S
C945 C965 1.449 . S
C946 C945 1.258 . S
C946 C947 1.477 . S
C946 H966 0.931 . S
C947 C943 1.460 . S
C947 C946 1.477 . S
C947 H967 0.930 . S
C948 N944 1.362 . S
C948 C945 1.431 . S
C948 C958 1.476 . S
H949 C943 0.929 . S
C950 O941 1.250 . S
C950 O942 1.258 . S
O951 Mn936 2.162 . S
O951 C939 1.281 . S
O952 Mn936 2.297 . S
O952 C939 1.236 . S
N953 Mn937 2.282 . S
N953 C954 1.328 . S
N953 C958 1.318 . S
C954 N953 1.328 . S
C954 C955 1.457 . S
C954 H959 0.929 . S
C955 C954 1.457 . S
C955 C956 1.291 . S
C955 H968 0.931 . S
C956 C955 1.291 . S
C956 C957 1.373 . S
C956 H969 0.929 . S
C957 C956 1.373 . S
C957 C958 1.396 . S
C957 C964 1.403 . S
C958 C948 1.476 . S
C958 N953 1.318 . S
C958 C957 1.396 . S
H959 C954 0.929 . S
O960 Mn936 2.385 . S
O960 C938 1.234 . S
O961 Mn936 2.209 . S
O961 Mn937 2.215 . S
O961 C938 1.283 . S
O962 Mn936 2.094 . S
O962 C940 1.240 . S
O963 Mn937 2.117 . S
O963 C940 1.264 . S
C964 C957 1.403 . S
C964 C965 1.399 . S
C964 H970 0.929 . S
C965 C945 1.449 . S
C965 C964 1.399 . S
C965 H971 0.930 . S
H966 C946 0.931 . S
H967 C947 0.930 . S
H968 C955 0.931 . S
H969 C956 0.929 . S
H970 C964 0.929 . S
H971 C965 0.930 . S
Mn972 O977 2.095 . S
Mn972 O987 2.162 1_455 S
Mn972 O988 2.297 1_455 S
Mn972 O996 2.385 . S
Mn972 O997 2.209 . S
Mn972 O998 2.094 . S
Mn973 O978 2.121 . S
Mn973 N980 2.257 . S
Mn973 N989 2.282 . S
Mn973 O997 2.215 . S
Mn973 O999 2.117 . S
C974 O996 1.234 . S
C974 O997 1.283 . S
C975 O987 1.281 . S
C975 O988 1.236 . S
C976 O998 1.240 . S
C976 O999 1.264 . S
O977 Mn972 2.095 . S
O977 C986 1.250 . S
O978 Mn973 2.121 . S
O978 C986 1.258 . S
C979 N980 1.326 . S
C979 C983 1.460 . S
C979 H985 0.929 . S
N980 Mn973 2.257 . S
N980 C979 1.326 . S
N980 C984 1.362 . S
C981 C982 1.258 . S
C981 C984 1.431 . S
C981 C1001 1.449 . S
C982 C981 1.258 . S
C982 C983 1.477 . S
C982 H1002 0.931 . S
C983 C979 1.460 . S
C983 C982 1.477 . S
C983 H1003 0.930 . S
C984 N980 1.362 . S
C984 C981 1.431 . S
C984 C994 1.476 . S
H985 C979 0.929 . S
C986 O977 1.250 . S
C986 O978 1.258 . S
O987 Mn972 2.162 1_655 S
O987 C975 1.281 . S
O988 Mn972 2.297 1_655 S
O988 C975 1.236 . S
N989 Mn973 2.282 . S
N989 C990 1.328 . S
N989 C994 1.318 . S
C990 N989 1.328 . S
C990 C991 1.457 . S
C990 H995 0.929 . S
C991 C990 1.457 . S
C991 C992 1.291 . S
C991 H1004 0.931 . S
C992 C991 1.291 . S
C992 C993 1.373 . S
C992 H1005 0.929 . S
C993 C992 1.373 . S
C993 C994 1.396 . S
C993 C1000 1.403 . S
C994 C984 1.476 . S
C994 N989 1.318 . S
C994 C993 1.396 . S
H995 C990 0.929 . S
O996 Mn972 2.385 . S
O996 C974 1.234 . S
O997 Mn972 2.209 . S
O997 Mn973 2.215 . S
O997 C974 1.283 . S
O998 Mn972 2.094 . S
O998 C976 1.240 . S
O999 Mn973 2.117 . S
O999 C976 1.264 . S
C1000 C993 1.403 . S
C1000 C1001 1.399 . S
C1000 H1006 0.929 . S
C1001 C981 1.449 . S
C1001 C1000 1.399 . S
C1001 H1007 0.930 . S
H1002 C982 0.931 . S
H1003 C983 0.930 . S
H1004 C991 0.931 . S
H1005 C992 0.929 . S
H1006 C1000 0.929 . S
H1007 C1001 0.930 . S
Mn1008 O1013 2.095 . S
Mn1008 O1023 2.162 . S
Mn1008 O1024 2.297 . S
Mn1008 O1032 2.385 . S
Mn1008 O1033 2.209 . S
Mn1008 O1034 2.094 . S
Mn1009 O1014 2.121 . S
Mn1009 N1016 2.257 . S
Mn1009 N1025 2.282 . S
Mn1009 O1033 2.215 . S
Mn1009 O1035 2.117 . S
C1010 O1032 1.234 . S
C1010 O1033 1.283 . S
C1011 O1023 1.281 . S
C1011 O1024 1.236 . S
C1012 O1034 1.240 . S
C1012 O1035 1.264 . S
O1013 Mn1008 2.095 . S
O1013 C1022 1.250 . S
O1014 Mn1009 2.121 . S
O1014 C1022 1.258 . S
C1015 N1016 1.326 . S
C1015 C1019 1.460 . S
C1015 H1021 0.929 . S
N1016 Mn1009 2.257 . S
N1016 C1015 1.326 . S
N1016 C1020 1.362 . S
C1017 C1018 1.258 . S
C1017 C1020 1.431 . S
C1017 C1037 1.449 . S
C1018 C1017 1.258 . S
C1018 C1019 1.477 . S
C1018 H1038 0.931 . S
C1019 C1015 1.460 . S
C1019 C1018 1.477 . S
C1019 H1039 0.930 . S
C1020 N1016 1.362 . S
C1020 C1017 1.431 . S
C1020 C1030 1.476 . S
H1021 C1015 0.929 . S
C1022 O1013 1.250 . S
C1022 O1014 1.258 . S
O1023 Mn1008 2.162 . S
O1023 C1011 1.281 . S
O1024 Mn1008 2.297 . S
O1024 C1011 1.236 . S
N1025 Mn1009 2.282 . S
N1025 C1026 1.328 . S
N1025 C1030 1.318 . S
C1026 N1025 1.328 . S
C1026 C1027 1.457 . S
C1026 H1031 0.929 . S
C1027 C1026 1.457 . S
C1027 C1028 1.291 . S
C1027 H1040 0.931 . S
C1028 C1027 1.291 . S
C1028 C1029 1.373 . S
C1028 H1041 0.929 . S
C1029 C1028 1.373 . S
C1029 C1030 1.396 . S
C1029 C1036 1.403 . S
C1030 C1020 1.476 . S
C1030 N1025 1.318 . S
C1030 C1029 1.396 . S
H1031 C1026 0.929 . S
O1032 Mn1008 2.385 . S
O1032 C1010 1.234 . S
O1033 Mn1008 2.209 . S
O1033 Mn1009 2.215 . S
O1033 C1010 1.283 . S
O1034 Mn1008 2.094 . S
O1034 C1012 1.240 . S
O1035 Mn1009 2.117 . S
O1035 C1012 1.264 . S
C1036 C1029 1.403 . S
C1036 C1037 1.399 . S
C1036 H1042 0.929 . S
C1037 C1017 1.449 . S
C1037 C1036 1.399 . S
C1037 H1043 0.930 . S
H1038 C1018 0.931 . S
H1039 C1019 0.930 . S
H1040 C1027 0.931 . S
H1041 C1028 0.929 . S
H1042 C1036 0.929 . S
H1043 C1037 0.930 . S
Mn1044 O1049 2.095 . S
Mn1044 O1059 2.162 1_455 S
Mn1044 O1060 2.297 1_455 S
Mn1044 O1068 2.385 . S
Mn1044 O1069 2.209 . S
Mn1044 O1070 2.094 . S
Mn1045 O1050 2.121 . S
Mn1045 N1052 2.257 . S
Mn1045 N1061 2.282 . S
Mn1045 O1069 2.215 . S
Mn1045 O1071 2.117 . S
C1046 O1068 1.234 . S
C1046 O1069 1.283 . S
C1047 O1059 1.281 . S
C1047 O1060 1.236 . S
C1048 O1070 1.240 . S
C1048 O1071 1.264 . S
O1049 Mn1044 2.095 . S
O1049 C1058 1.250 . S
O1050 Mn1045 2.121 . S
O1050 C1058 1.258 . S
C1051 N1052 1.326 . S
C1051 C1055 1.460 . S
C1051 H1057 0.929 . S
N1052 Mn1045 2.257 . S
N1052 C1051 1.326 . S
N1052 C1056 1.362 . S
C1053 C1054 1.258 . S
C1053 C1056 1.431 . S
C1053 C1073 1.449 . S
C1054 C1053 1.258 . S
C1054 C1055 1.477 . S
C1054 H1074 0.931 . S
C1055 C1051 1.460 . S
C1055 C1054 1.477 . S
C1055 H1075 0.930 1_554 S
C1056 N1052 1.362 . S
C1056 C1053 1.431 . S
C1056 C1066 1.476 . S
H1057 C1051 0.929 . S
C1058 O1049 1.250 . S
C1058 O1050 1.258 . S
O1059 Mn1044 2.162 1_655 S
O1059 C1047 1.281 . S
O1060 Mn1044 2.297 1_655 S
O1060 C1047 1.236 . S
N1061 Mn1045 2.282 . S
N1061 C1062 1.328 . S
N1061 C1066 1.318 . S
C1062 N1061 1.328 . S
C1062 C1063 1.457 . S
C1062 H1067 0.929 . S
C1063 C1062 1.457 . S
C1063 C1064 1.291 . S
C1063 H1076 0.931 . S
C1064 C1063 1.291 . S
C1064 C1065 1.373 . S
C1064 H1077 0.929 . S
C1065 C1064 1.373 . S
C1065 C1066 1.396 . S
C1065 C1072 1.403 . S
C1066 C1056 1.476 . S
C1066 N1061 1.318 . S
C1066 C1065 1.396 . S
H1067 C1062 0.929 . S
O1068 Mn1044 2.385 . S
O1068 C1046 1.234 . S
O1069 Mn1044 2.209 . S
O1069 Mn1045 2.215 . S
O1069 C1046 1.283 . S
O1070 Mn1044 2.094 . S
O1070 C1048 1.240 . S
O1071 Mn1045 2.117 . S
O1071 C1048 1.264 . S
C1072 C1065 1.403 . S
C1072 C1073 1.399 . S
C1072 H1078 0.929 . S
C1073 C1053 1.449 . S
C1073 C1072 1.399 . S
C1073 H1079 0.930 . S
H1074 C1054 0.931 . S
H1075 C1055 0.930 1_556 S
H1076 C1063 0.931 . S
H1077 C1064 0.929 . S
H1078 C1072 0.929 . S
H1079 C1073 0.930 . S
Mn1080 O1085 2.095 . S
Mn1080 O1095 2.162 . S
Mn1080 O1096 2.297 . S
Mn1080 O1104 2.385 . S
Mn1080 O1105 2.209 . S
Mn1080 O1106 2.094 . S
Mn1081 O1086 2.121 . S
Mn1081 N1088 2.257 . S
Mn1081 N1097 2.282 . S
Mn1081 O1105 2.215 . S
Mn1081 O1107 2.117 . S
C1082 O1104 1.234 . S
C1082 O1105 1.283 . S
C1083 O1095 1.281 . S
C1083 O1096 1.236 . S
C1084 O1106 1.240 . S
C1084 O1107 1.264 . S
O1085 Mn1080 2.095 . S
O1085 C1094 1.250 . S
O1086 Mn1081 2.121 . S
O1086 C1094 1.258 . S
C1087 N1088 1.326 . S
C1087 C1091 1.460 . S
C1087 H1093 0.929 . S
N1088 Mn1081 2.257 . S
N1088 C1087 1.326 . S
N1088 C1092 1.362 . S
C1089 C1090 1.258 . S
C1089 C1092 1.431 . S
C1089 C1109 1.449 . S
C1090 C1089 1.258 . S
C1090 C1091 1.477 . S
C1090 H1110 0.931 . S
C1091 C1087 1.460 . S
C1091 C1090 1.477 . S
C1091 H1111 0.930 . S
C1092 N1088 1.362 . S
C1092 C1089 1.431 . S
C1092 C1102 1.476 . S
H1093 C1087 0.929 . S
C1094 O1085 1.250 . S
C1094 O1086 1.258 . S
O1095 Mn1080 2.162 . S
O1095 C1083 1.281 . S
O1096 Mn1080 2.297 . S
O1096 C1083 1.236 . S
N1097 Mn1081 2.282 . S
N1097 C1098 1.328 . S
N1097 C1102 1.318 . S
C1098 N1097 1.328 . S
C1098 C1099 1.457 . S
C1098 H1103 0.929 . S
C1099 C1098 1.457 . S
C1099 C1100 1.291 . S
C1099 H1112 0.931 . S
C1100 C1099 1.291 . S
C1100 C1101 1.373 . S
C1100 H1113 0.929 . S
C1101 C1100 1.373 . S
C1101 C1102 1.396 . S
C1101 C1108 1.403 . S
C1102 C1092 1.476 . S
C1102 N1097 1.318 . S
C1102 C1101 1.396 . S
H1103 C1098 0.929 . S
O1104 Mn1080 2.385 . S
O1104 C1082 1.234 . S
O1105 Mn1080 2.209 . S
O1105 Mn1081 2.215 . S
O1105 C1082 1.283 . S
O1106 Mn1080 2.094 . S
O1106 C1084 1.240 . S
O1107 Mn1081 2.117 . S
O1107 C1084 1.264 . S
C1108 C1101 1.403 . S
C1108 C1109 1.399 . S
C1108 H1114 0.929 . S
C1109 C1089 1.449 . S
C1109 C1108 1.399 . S
C1109 H1115 0.930 . S
H1110 C1090 0.931 . S
H1111 C1091 0.930 . S
H1112 C1099 0.931 . S
H1113 C1100 0.929 . S
H1114 C1108 0.929 . S
H1115 C1109 0.930 . S
Mn1116 O1121 2.095 . S
Mn1116 O1131 2.162 . S
Mn1116 O1132 2.297 . S
Mn1116 O1140 2.385 . S
Mn1116 O1141 2.209 . S
Mn1116 O1142 2.094 . S
Mn1117 O1122 2.121 . S
Mn1117 N1124 2.257 . S
Mn1117 N1133 2.282 . S
Mn1117 O1141 2.215 . S
Mn1117 O1143 2.117 . S
C1118 O1140 1.234 . S
C1118 O1141 1.283 . S
C1119 O1131 1.281 . S
C1119 O1132 1.236 . S
C1120 O1142 1.240 . S
C1120 O1143 1.264 . S
O1121 Mn1116 2.095 . S
O1121 C1130 1.250 . S
O1122 Mn1117 2.121 . S
O1122 C1130 1.258 . S
C1123 N1124 1.326 . S
C1123 C1127 1.460 . S
C1123 H1129 0.929 . S
N1124 Mn1117 2.257 . S
N1124 C1123 1.326 . S
N1124 C1128 1.362 . S
C1125 C1126 1.258 . S
C1125 C1128 1.431 . S
C1125 C1145 1.449 . S
C1126 C1125 1.258 . S
C1126 C1127 1.477 . S
C1126 H1146 0.931 . S
C1127 C1123 1.460 . S
C1127 C1126 1.477 . S
C1127 H1147 0.930 . S
C1128 N1124 1.362 . S
C1128 C1125 1.431 . S
C1128 C1138 1.476 . S
H1129 C1123 0.929 . S
C1130 O1121 1.250 . S
C1130 O1122 1.258 . S
O1131 Mn1116 2.162 . S
O1131 C1119 1.281 . S
O1132 Mn1116 2.297 . S
O1132 C1119 1.236 . S
N1133 Mn1117 2.282 . S
N1133 C1134 1.328 . S
N1133 C1138 1.318 . S
C1134 N1133 1.328 . S
C1134 C1135 1.457 . S
C1134 H1139 0.929 . S
C1135 C1134 1.457 . S
C1135 C1136 1.291 . S
C1135 H1148 0.931 . S
C1136 C1135 1.291 . S
C1136 C1137 1.373 . S
C1136 H1149 0.929 . S
C1137 C1136 1.373 . S
C1137 C1138 1.396 . S
C1137 C1144 1.403 . S
C1138 C1128 1.476 . S
C1138 N1133 1.318 . S
C1138 C1137 1.396 . S
H1139 C1134 0.929 . S
O1140 Mn1116 2.385 . S
O1140 C1118 1.234 . S
O1141 Mn1116 2.209 . S
O1141 Mn1117 2.215 . S
O1141 C1118 1.283 . S
O1142 Mn1116 2.094 . S
O1142 C1120 1.240 . S
O1143 Mn1117 2.117 . S
O1143 C1120 1.264 . S
C1144 C1137 1.403 . S
C1144 C1145 1.399 . S
C1144 H1150 0.929 . S
C1145 C1125 1.449 . S
C1145 C1144 1.399 . S
C1145 H1151 0.930 . S
H1146 C1126 0.931 . S
H1147 C1127 0.930 . S
H1148 C1135 0.931 . S
H1149 C1136 0.929 . S
H1150 C1144 0.929 . S
H1151 C1145 0.930 . S
C1152 C1153 1.387 . S
C1152 H1156 0.950 . S
C1152 C1161 1.390 . S
C1153 C1152 1.387 . S
C1153 C1155 1.387 . S
H1154 C1161 0.950 . S
C1155 C1153 1.387 . S
C1155 C1157 1.390 . S
C1155 H1159 0.950 . S
H1156 C1152 0.950 . S
C1157 C1155 1.390 . S
C1157 C1158 1.387 . S
C1157 H1160 0.950 . S
C1158 C1157 1.387 . S
C1158 C1161 1.387 . S
H1159 C1155 0.950 . S
H1160 C1157 0.950 . S
C1161 C1152 1.390 . S
C1161 H1154 0.950 . S
C1161 C1158 1.387 . S
C1162 C1163 1.387 . S
C1162 H1166 0.950 . S
C1162 C1171 1.390 . S
C1163 C1162 1.387 . S
C1163 C1165 1.387 . S
H1164 C1171 0.950 . S
C1165 C1163 1.387 . S
C1165 C1167 1.390 . S
C1165 H1169 0.950 . S
H1166 C1162 0.950 . S
C1167 C1165 1.390 . S
C1167 C1168 1.387 . S
C1167 H1170 0.950 . S
C1168 C1167 1.387 . S
C1168 C1171 1.387 . S
H1169 C1165 0.950 . S
H1170 C1167 0.950 . S
C1171 C1162 1.390 . S
C1171 H1164 0.950 . S
C1171 C1168 1.387 . S
C1172 C1173 1.387 . S
C1172 H1176 0.950 . S
C1172 C1181 1.390 . S
C1173 C1172 1.387 . S
C1173 C1175 1.387 . S
H1174 C1181 0.950 . S
C1175 C1173 1.387 . S
C1175 C1177 1.390 . S
C1175 H1179 0.950 . S
H1176 C1172 0.950 . S
C1177 C1175 1.390 . S
C1177 C1178 1.387 . S
C1177 H1180 0.950 . S
C1178 C1177 1.387 . S
C1178 C1181 1.387 . S
H1179 C1175 0.950 . S
H1180 C1177 0.950 . S
C1181 C1172 1.390 . S
C1181 H1174 0.950 . S
C1181 C1178 1.387 . S
C1182 C1183 1.387 . S
C1182 H1186 0.950 . S
C1182 C1191 1.390 . S
C1183 C1182 1.387 . S
C1183 C1185 1.387 . S
H1184 C1191 0.950 . S
C1185 C1183 1.387 . S
C1185 C1187 1.390 . S
C1185 H1189 0.950 . S
H1186 C1182 0.950 . S
C1187 C1185 1.390 . S
C1187 C1188 1.387 . S
C1187 H1190 0.950 . S
C1188 C1187 1.387 . S
C1188 C1191 1.387 . S
H1189 C1185 0.950 . S
H1190 C1187 0.950 . S
C1191 C1182 1.390 . S
C1191 H1184 0.950 . S
C1191 C1188 1.387 . S
C1192 C1193 1.387 . S
C1192 H1196 0.950 . S
C1192 C1201 1.390 . S
C1193 C1192 1.387 . S
C1193 C1195 1.387 . S
H1194 C1201 0.950 . S
C1195 C1193 1.387 . S
C1195 C1197 1.390 . S
C1195 H1199 0.950 . S
H1196 C1192 0.950 . S
C1197 C1195 1.390 . S
C1197 C1198 1.387 . S
C1197 H1200 0.950 . S
C1198 C1197 1.387 . S
C1198 C1201 1.387 . S
H1199 C1195 0.950 . S
H1200 C1197 0.950 . S
C1201 C1192 1.390 . S
C1201 H1194 0.950 . S
C1201 C1198 1.387 . S
C1202 C1203 1.387 . S
C1202 H1206 0.950 . S
C1202 C1211 1.390 . S
C1203 C1202 1.387 . S
C1203 C1205 1.387 . S
H1204 C1211 0.950 . S
C1205 C1203 1.387 . S
C1205 C1207 1.390 . S
C1205 H1209 0.950 . S
H1206 C1202 0.950 . S
C1207 C1205 1.390 . S
C1207 C1208 1.387 . S
C1207 H1210 0.950 . S
C1208 C1207 1.387 . S
C1208 C1211 1.387 . S
H1209 C1205 0.950 . S
H1210 C1207 0.950 . S
C1211 C1202 1.390 . S
C1211 H1204 0.950 . S
C1211 C1208 1.387 . S
C1212 C1213 1.387 . S
C1212 H1216 0.950 . S
C1212 C1221 1.390 . S
C1213 C1212 1.387 . S
C1213 C1215 1.387 . S
H1214 C1221 0.950 . S
C1215 C1213 1.387 . S
C1215 C1217 1.390 . S
C1215 H1219 0.950 . S
H1216 C1212 0.950 . S
C1217 C1215 1.390 . S
C1217 C1218 1.387 . S
C1217 H1220 0.950 . S
C1218 C1217 1.387 . S
C1218 C1221 1.387 . S
H1219 C1215 0.950 . S
H1220 C1217 0.950 . S
C1221 C1212 1.390 . S
C1221 H1214 0.950 . S
C1221 C1218 1.387 . S
C1222 C1223 1.387 . S
C1222 H1226 0.950 . S
C1222 C1231 1.390 . S
C1223 C1222 1.387 . S
C1223 C1225 1.387 . S
H1224 C1231 0.950 . S
C1225 C1223 1.387 . S
C1225 C1227 1.390 . S
C1225 H1229 0.950 . S
H1226 C1222 0.950 . S
C1227 C1225 1.390 . S
C1227 C1228 1.387 . S
C1227 H1230 0.950 . S
C1228 C1227 1.387 . S
C1228 C1231 1.387 . S
H1229 C1225 0.950 . S
H1230 C1227 0.950 . S
C1231 C1222 1.390 . S
C1231 H1224 0.950 . S
C1231 C1228 1.387 . S
C1232 C1233 1.387 . S
C1232 H1236 0.950 . S
C1232 C1241 1.390 . S
C1233 C1232 1.387 . S
C1233 C1235 1.387 . S
H1234 C1241 0.950 . S
C1235 C1233 1.387 . S
C1235 C1237 1.390 . S
C1235 H1239 0.950 . S
H1236 C1232 0.950 . S
C1237 C1235 1.390 . S
C1237 C1238 1.387 . S
C1237 H1240 0.950 . S
C1238 C1237 1.387 . S
C1238 C1241 1.387 . S
H1239 C1235 0.950 . S
H1240 C1237 0.950 . S
C1241 C1232 1.390 . S
C1241 H1234 0.950 . S
C1241 C1238 1.387 . S
C1242 C1243 1.387 . S
C1242 H1246 0.950 . S
C1242 C1251 1.390 . S
C1243 C1242 1.387 . S
C1243 C1245 1.387 . S
H1244 C1251 0.950 . S
C1245 C1243 1.387 . S
C1245 C1247 1.390 . S
C1245 H1249 0.950 . S
H1246 C1242 0.950 . S
C1247 C1245 1.390 . S
C1247 C1248 1.387 . S
C1247 H1250 0.950 . S
C1248 C1247 1.387 . S
C1248 C1251 1.387 . S
H1249 C1245 0.950 . S
H1250 C1247 0.950 . S
C1251 C1242 1.390 . S
C1251 H1244 0.950 . S
C1251 C1248 1.387 . S
C1252 C1253 1.387 . S
C1252 H1256 0.950 . S
C1252 C1261 1.390 . S
C1253 C1252 1.387 . S
C1253 C1255 1.387 . S
H1254 C1261 0.950 . S
C1255 C1253 1.387 . S
C1255 C1257 1.390 . S
C1255 H1259 0.950 . S
H1256 C1252 0.950 . S
C1257 C1255 1.390 . S
C1257 C1258 1.387 . S
C1257 H1260 0.950 . S
C1258 C1257 1.387 . S
C1258 C1261 1.387 . S
H1259 C1255 0.950 . S
H1260 C1257 0.950 . S
C1261 C1252 1.390 . S
C1261 H1254 0.950 . S
C1261 C1258 1.387 . S
C1262 C1263 1.387 . S
C1262 H1266 0.950 . S
C1262 C1271 1.390 . S
C1263 C1262 1.387 . S
C1263 C1265 1.387 . S
H1264 C1271 0.950 . S
C1265 C1263 1.387 . S
C1265 C1267 1.390 . S
C1265 H1269 0.950 . S
H1266 C1262 0.950 . S
C1267 C1265 1.390 . S
C1267 C1268 1.387 . S
C1267 H1270 0.950 . S
C1268 C1267 1.387 . S
C1268 C1271 1.387 . S
H1269 C1265 0.950 . S
H1270 C1267 0.950 . S
C1271 C1262 1.390 . S
C1271 H1264 0.950 . S
C1271 C1268 1.387 . S
C1272 C1273 1.387 . S
C1272 H1276 0.950 . S
C1272 C1281 1.390 . S
C1273 C1272 1.387 . S
C1273 C1275 1.387 . S
H1274 C1281 0.950 . S
C1275 C1273 1.387 . S
C1275 C1277 1.390 . S
C1275 H1279 0.950 . S
H1276 C1272 0.950 . S
C1277 C1275 1.390 . S
C1277 C1278 1.387 . S
C1277 H1280 0.950 . S
C1278 C1277 1.387 . S
C1278 C1281 1.387 . S
H1279 C1275 0.950 . S
H1280 C1277 0.950 . S
C1281 C1272 1.390 . S
C1281 H1274 0.950 . S
C1281 C1278 1.387 . S
C1282 C1283 1.387 . S
C1282 H1286 0.950 . S
C1282 C1291 1.390 . S
C1283 C1282 1.387 . S
C1283 C1285 1.387 . S
H1284 C1291 0.950 . S
C1285 C1283 1.387 . S
C1285 C1287 1.390 . S
C1285 H1289 0.950 . S
H1286 C1282 0.950 . S
C1287 C1285 1.390 . S
C1287 C1288 1.387 . S
C1287 H1290 0.950 . S
C1288 C1287 1.387 . S
C1288 C1291 1.387 . S
H1289 C1285 0.950 . S
H1290 C1287 0.950 . S
C1291 C1282 1.390 . S
C1291 H1284 0.950 . S
C1291 C1288 1.387 . S
C1292 C1293 1.387 . S
C1292 H1296 0.950 . S
C1292 C1301 1.390 . S
C1293 C1292 1.387 . S
C1293 C1295 1.387 . S
H1294 C1301 0.950 . S
C1295 C1293 1.387 . S
C1295 C1297 1.390 . S
C1295 H1299 0.950 . S
H1296 C1292 0.950 . S
C1297 C1295 1.390 . S
C1297 C1298 1.387 . S
C1297 H1300 0.950 . S
C1298 C1297 1.387 . S
C1298 C1301 1.387 . S
H1299 C1295 0.950 . S
H1300 C1297 0.950 . S
C1301 C1292 1.390 . S
C1301 H1294 0.950 . S
C1301 C1298 1.387 . S
C1302 C1303 1.387 . S
C1302 H1306 0.950 . S
C1302 C1311 1.390 . S
C1303 C1302 1.387 . S
C1303 C1305 1.387 . S
H1304 C1311 0.950 . S
C1305 C1303 1.387 . S
C1305 C1307 1.390 . S
C1305 H1309 0.950 . S
H1306 C1302 0.950 . S
C1307 C1305 1.390 . S
C1307 C1308 1.387 . S
C1307 H1310 0.950 . S
C1308 C1307 1.387 . S
C1308 C1311 1.387 . S
H1309 C1305 0.950 . S
H1310 C1307 0.950 . S
C1311 C1302 1.390 . S
C1311 H1304 0.950 . S
C1311 C1308 1.387 . S
C1312 C1313 1.387 . S
C1312 H1316 0.950 . S
C1312 C1321 1.390 . S
C1313 C1312 1.387 . S
C1313 C1315 1.387 . S
H1314 C1321 0.950 . S
C1315 C1313 1.387 . S
C1315 C1317 1.390 . S
C1315 H1319 0.950 . S
H1316 C1312 0.950 . S
C1317 C1315 1.390 . S
C1317 C1318 1.387 . S
C1317 H1320 0.950 . S
C1318 C1317 1.387 . S
C1318 C1321 1.387 . S
H1319 C1315 0.950 . S
H1320 C1317 0.950 . S
C1321 C1312 1.390 . S
C1321 H1314 0.950 . S
C1321 C1318 1.387 . S
C1322 C1323 1.387 . S
C1322 H1326 0.950 . S
C1322 C1331 1.390 . S
C1323 C1322 1.387 . S
C1323 C1325 1.387 . S
H1324 C1331 0.950 . S
C1325 C1323 1.387 . S
C1325 C1327 1.390 . S
C1325 H1329 0.950 . S
H1326 C1322 0.950 . S
C1327 C1325 1.390 . S
C1327 C1328 1.387 . S
C1327 H1330 0.950 . S
C1328 C1327 1.387 . S
C1328 C1331 1.387 . S
H1329 C1325 0.950 . S
H1330 C1327 0.950 . S
C1331 C1322 1.390 . S
C1331 H1324 0.950 . S
C1331 C1328 1.387 . S
C1332 C1333 1.387 . S
C1332 H1336 0.950 . S
C1332 C1341 1.390 . S
C1333 C1332 1.387 . S
C1333 C1335 1.387 . S
H1334 C1341 0.950 . S
C1335 C1333 1.387 . S
C1335 C1337 1.390 . S
C1335 H1339 0.950 . S
H1336 C1332 0.950 . S
C1337 C1335 1.390 . S
C1337 C1338 1.387 . S
C1337 H1340 0.950 . S
C1338 C1337 1.387 . S
C1338 C1341 1.387 . S
H1339 C1335 0.950 . S
H1340 C1337 0.950 . S
C1341 C1332 1.390 . S
C1341 H1334 0.950 . S
C1341 C1338 1.387 . S
C1342 C1343 1.387 . S
C1342 H1346 0.950 . S
C1342 C1351 1.390 . S
C1343 C1342 1.387 . S
C1343 C1345 1.387 . S
H1344 C1351 0.950 . S
C1345 C1343 1.387 . S
C1345 C1347 1.390 . S
C1345 H1349 0.950 . S
H1346 C1342 0.950 . S
C1347 C1345 1.390 . S
C1347 C1348 1.387 . S
C1347 H1350 0.950 . S
C1348 C1347 1.387 . S
C1348 C1351 1.387 . S
H1349 C1345 0.950 . S
H1350 C1347 0.950 . S
C1351 C1342 1.390 . S
C1351 H1344 0.950 . S
C1351 C1348 1.387 . S
C1352 C1353 1.387 . S
C1352 H1356 0.950 . S
C1352 C1361 1.390 . S
C1353 C1352 1.387 . S
C1353 C1355 1.387 . S
H1354 C1361 0.950 . S
C1355 C1353 1.387 . S
C1355 C1357 1.390 . S
C1355 H1359 0.950 . S
H1356 C1352 0.950 . S
C1357 C1355 1.390 . S
C1357 C1358 1.387 . S
C1357 H1360 0.950 . S
C1358 C1357 1.387 . S
C1358 C1361 1.387 . S
H1359 C1355 0.950 . S
H1360 C1357 0.950 . S
C1361 C1352 1.390 . S
C1361 H1354 0.950 . S
C1361 C1358 1.387 . S
C1362 C1363 1.387 . S
C1362 H1366 0.950 . S
C1362 C1371 1.390 . S
C1363 C1362 1.387 . S
C1363 C1365 1.387 . S
H1364 C1371 0.950 . S
C1365 C1363 1.387 . S
C1365 C1367 1.390 . S
C1365 H1369 0.950 . S
H1366 C1362 0.950 . S
C1367 C1365 1.390 . S
C1367 C1368 1.387 . S
C1367 H1370 0.950 . S
C1368 C1367 1.387 . S
C1368 C1371 1.387 . S
H1369 C1365 0.950 . S
H1370 C1367 0.950 . S
C1371 C1362 1.390 . S
C1371 H1364 0.950 . S
C1371 C1368 1.387 . S
C1372 C1373 1.387 . S
C1372 H1376 0.950 . S
C1372 C1381 1.390 . S
C1373 C1372 1.387 . S
C1373 C1375 1.387 . S
H1374 C1381 0.950 . S
C1375 C1373 1.387 . S
C1375 C1377 1.390 . S
C1375 H1379 0.950 . S
H1376 C1372 0.950 . S
C1377 C1375 1.390 . S
C1377 C1378 1.387 . S
C1377 H1380 0.950 . S
C1378 C1377 1.387 . S
C1378 C1381 1.387 . S
H1379 C1375 0.950 . S
H1380 C1377 0.950 . S
C1381 C1372 1.390 . S
C1381 H1374 0.950 . S
C1381 C1378 1.387 . S
C1382 C1383 1.387 . S
C1382 H1386 0.950 . S
C1382 C1391 1.390 . S
C1383 C1382 1.387 . S
C1383 C1385 1.387 . S
H1384 C1391 0.950 . S
C1385 C1383 1.387 . S
C1385 C1387 1.390 . S
C1385 H1389 0.950 . S
H1386 C1382 0.950 . S
C1387 C1385 1.390 . S
C1387 C1388 1.387 . S
C1387 H1390 0.950 . S
C1388 C1387 1.387 . S
C1388 C1391 1.387 . S
H1389 C1385 0.950 . S
H1390 C1387 0.950 . S
C1391 C1382 1.390 . S
C1391 H1384 0.950 . S
C1391 C1388 1.387 . S
C1392 C1393 1.387 . S
C1392 H1396 0.950 . S
C1392 C1401 1.390 . S
C1393 C1392 1.387 . S
C1393 C1395 1.387 . S
H1394 C1401 0.950 . S
C1395 C1393 1.387 . S
C1395 C1397 1.390 . S
C1395 H1399 0.950 . S
H1396 C1392 0.950 . S
C1397 C1395 1.390 . S
C1397 C1398 1.387 . S
C1397 H1400 0.950 . S
C1398 C1397 1.387 . S
C1398 C1401 1.387 . S
H1399 C1395 0.950 . S
H1400 C1397 0.950 . S
C1401 C1392 1.390 . S
C1401 H1394 0.950 . S
C1401 C1398 1.387 . S
C1402 C1403 1.387 . S
C1402 H1406 0.950 . S
C1402 C1411 1.390 . S
C1403 C1402 1.387 . S
C1403 C1405 1.387 . S
H1404 C1411 0.950 . S
C1405 C1403 1.387 . S
C1405 C1407 1.390 . S
C1405 H1409 0.950 . S
H1406 C1402 0.950 . S
C1407 C1405 1.390 . S
C1407 C1408 1.387 . S
C1407 H1410 0.950 . S
C1408 C1407 1.387 . S
C1408 C1411 1.387 . S
H1409 C1405 0.950 . S
H1410 C1407 0.950 . S
C1411 C1402 1.390 . S
C1411 H1404 0.950 . S
C1411 C1408 1.387 . S
C1412 C1413 1.387 . S
C1412 H1416 0.950 . S
C1412 C1421 1.390 . S
C1413 C1412 1.387 . S
C1413 C1415 1.387 . S
H1414 C1421 0.950 . S
C1415 C1413 1.387 . S
C1415 C1417 1.390 . S
C1415 H1419 0.950 . S
H1416 C1412 0.950 . S
C1417 C1415 1.390 . S
C1417 C1418 1.387 . S
C1417 H1420 0.950 . S
C1418 C1417 1.387 . S
C1418 C1421 1.387 . S
H1419 C1415 0.950 . S
H1420 C1417 0.950 . S
C1421 C1412 1.390 . S
C1421 H1414 0.950 . S
C1421 C1418 1.387 . S
C1422 C1423 1.387 . S
C1422 H1426 0.950 . S
C1422 C1431 1.390 . S
C1423 C1422 1.387 . S
C1423 C1425 1.387 . S
H1424 C1431 0.950 . S
C1425 C1423 1.387 . S
C1425 C1427 1.390 . S
C1425 H1429 0.950 . S
H1426 C1422 0.950 . S
C1427 C1425 1.390 . S
C1427 C1428 1.387 . S
C1427 H1430 0.950 . S
C1428 C1427 1.387 . S
C1428 C1431 1.387 . S
H1429 C1425 0.950 . S
H1430 C1427 0.950 . S
C1431 C1422 1.390 . S
C1431 H1424 0.950 . S
C1431 C1428 1.387 . S
C1432 C1433 1.387 . S
C1432 H1436 0.950 . S
C1432 C1441 1.390 . S
C1433 C1432 1.387 . S
C1433 C1435 1.387 . S
H1434 C1441 0.950 . S
C1435 C1433 1.387 . S
C1435 C1437 1.390 . S
C1435 H1439 0.950 . S
H1436 C1432 0.950 . S
C1437 C1435 1.390 . S
C1437 C1438 1.387 . S
C1437 H1440 0.950 . S
C1438 C1437 1.387 . S
C1438 C1441 1.387 . S
H1439 C1435 0.950 . S
H1440 C1437 0.950 . S
C1441 C1432 1.390 . S
C1441 H1434 0.950 . S
C1441 C1438 1.387 . S
C1442 C1443 1.387 . S
C1442 H1446 0.950 . S
C1442 C1451 1.390 . S
C1443 C1442 1.387 . S
C1443 C1445 1.387 . S
H1444 C1451 0.950 . S
C1445 C1443 1.387 . S
C1445 C1447 1.390 . S
C1445 H1449 0.950 . S
H1446 C1442 0.950 . S
C1447 C1445 1.390 . S
C1447 C1448 1.387 . S
C1447 H1450 0.950 . S
C1448 C1447 1.387 . S
C1448 C1451 1.387 . S
H1449 C1445 0.950 . S
H1450 C1447 0.950 . S
C1451 C1442 1.390 . S
C1451 H1444 0.950 . S
C1451 C1448 1.387 . S
C1452 C1453 1.387 . S
C1452 H1456 0.950 . S
C1452 C1461 1.390 . S
C1453 C1452 1.387 . S
C1453 C1455 1.387 . S
H1454 C1461 0.950 . S
C1455 C1453 1.387 . S
C1455 C1457 1.390 . S
C1455 H1459 0.950 . S
H1456 C1452 0.950 . S
C1457 C1455 1.390 . S
C1457 C1458 1.387 . S
C1457 H1460 0.950 . S
C1458 C1457 1.387 . S
C1458 C1461 1.387 . S
H1459 C1455 0.950 . S
H1460 C1457 0.950 . S
C1461 C1452 1.390 . S
C1461 H1454 0.950 . S
C1461 C1458 1.387 . S
C1462 C1463 1.387 . S
C1462 H1466 0.950 . S
C1462 C1471 1.390 . S
C1463 C1462 1.387 . S
C1463 C1465 1.387 . S
H1464 C1471 0.950 . S
C1465 C1463 1.387 . S
C1465 C1467 1.390 . S
C1465 H1469 0.950 . S
H1466 C1462 0.950 . S
C1467 C1465 1.390 . S
C1467 C1468 1.387 . S
C1467 H1470 0.950 . S
C1468 C1467 1.387 . S
C1468 C1471 1.387 . S
H1469 C1465 0.950 . S
H1470 C1467 0.950 . S
C1471 C1462 1.390 . S
C1471 H1464 0.950 . S
C1471 C1468 1.387 . S
C1472 C1473 1.387 . S
C1472 H1476 0.950 . S
C1472 C1481 1.390 . S
C1473 C1472 1.387 . S
C1473 C1475 1.387 . S
H1474 C1481 0.950 . S
C1475 C1473 1.387 . S
C1475 C1477 1.390 . S
C1475 H1479 0.950 . S
H1476 C1472 0.950 . S
C1477 C1475 1.390 . S
C1477 C1478 1.387 . S
C1477 H1480 0.950 . S
C1478 C1477 1.387 . S
C1478 C1481 1.387 . S
H1479 C1475 0.950 . S
H1480 C1477 0.950 . S
C1481 C1472 1.390 . S
C1481 H1474 0.950 . S
C1481 C1478 1.387 . S
C1482 C1483 1.387 . S
C1482 H1486 0.950 . S
C1482 C1491 1.390 1_455 S
C1483 C1482 1.387 . S
C1483 C1485 1.387 1_565 S
H1484 C1491 0.950 . S
C1485 C1483 1.387 1_545 S
C1485 C1487 1.390 1_455 S
C1485 H1489 0.950 . S
H1486 C1482 0.950 . S
C1487 C1485 1.390 1_655 S
C1487 C1488 1.387 . S
C1487 H1490 0.950 . S
C1488 C1487 1.387 . S
C1488 C1491 1.387 1_545 S
H1489 C1485 0.950 . S
H1490 C1487 0.950 . S
C1491 C1482 1.390 1_655 S
C1491 H1484 0.950 . S
C1491 C1488 1.387 1_565 S
C1492 C1493 1.387 . S
C1492 H1496 0.950 . S
C1492 C1501 1.390 . S
C1493 C1492 1.387 . S
C1493 C1495 1.387 . S
H1494 C1501 0.950 . S
C1495 C1493 1.387 . S
C1495 C1497 1.390 . S
C1495 H1499 0.950 . S
H1496 C1492 0.950 . S
C1497 C1495 1.390 . S
C1497 C1498 1.387 . S
C1497 H1500 0.950 . S
C1498 C1497 1.387 . S
C1498 C1501 1.387 . S
H1499 C1495 0.950 . S
H1500 C1497 0.950 . S
C1501 C1492 1.390 . S
C1501 H1494 0.950 . S
C1501 C1498 1.387 . S
C1502 C1503 1.387 . S
C1502 H1506 0.950 . S
C1502 C1511 1.390 1_554 S
C1503 C1502 1.387 . S
C1503 C1505 1.387 1_545 S
H1504 C1511 0.950 . S
C1505 C1503 1.387 1_565 S
C1505 C1507 1.390 1_554 S
C1505 H1509 0.950 . S
H1506 C1502 0.950 . S
C1507 C1505 1.390 1_556 S
C1507 C1508 1.387 . S
C1507 H1510 0.950 . S
C1508 C1507 1.387 . S
C1508 C1511 1.387 1_565 S
H1509 C1505 0.950 . S
H1510 C1507 0.950 . S
C1511 C1502 1.390 1_556 S
C1511 H1504 0.950 . S
C1511 C1508 1.387 1_545 S
C1512 C1513 1.387 . S
C1512 H1516 0.950 . S
C1512 C1521 1.390 . S
C1513 C1512 1.387 . S
C1513 C1515 1.387 . S
H1514 C1521 0.950 . S
C1515 C1513 1.387 . S
C1515 C1517 1.390 . S
C1515 H1519 0.950 . S
H1516 C1512 0.950 . S
C1517 C1515 1.390 . S
C1517 C1518 1.387 . S
C1517 H1520 0.950 . S
C1518 C1517 1.387 . S
C1518 C1521 1.387 . S
H1519 C1515 0.950 . S
H1520 C1517 0.950 . S
C1521 C1512 1.390 . S
C1521 H1514 0.950 . S
C1521 C1518 1.387 . S
C1522 C1523 1.387 . S
C1522 H1526 0.950 . S
C1522 C1531 1.390 . S
C1523 C1522 1.387 . S
C1523 C1525 1.384 1_565 S
H1524 C1531 0.950 . S
C1525 C1523 1.384 1_545 S
C1525 C1527 1.392 . S
C1525 H1529 0.951 . S
H1526 C1522 0.950 . S
C1527 C1525 1.392 . S
C1527 C1528 1.387 . S
C1527 H1530 0.950 . S
C1528 C1527 1.387 . S
C1528 C1531 1.387 1_545 S
H1529 C1525 0.951 . S
H1530 C1527 0.950 . S
C1531 C1522 1.390 . S
C1531 H1524 0.950 . S
C1531 C1528 1.387 1_565 S
C1532 C1533 1.387 . S
C1532 H1536 0.950 . S
C1532 C1541 1.390 . S
C1533 C1532 1.387 . S
C1533 C1535 1.387 . S
H1534 C1541 0.950 . S
C1535 C1533 1.387 . S
C1535 C1537 1.390 . S
C1535 H1539 0.950 . S
H1536 C1532 0.950 . S
C1537 C1535 1.390 . S
C1537 C1538 1.387 . S
C1537 H1540 0.950 . S
C1538 C1537 1.387 . S
C1538 C1541 1.387 . S
H1539 C1535 0.950 . S
H1540 C1537 0.950 . S
C1541 C1532 1.390 . S
C1541 H1534 0.950 . S
C1541 C1538 1.387 . S
C1542 C1543 1.387 1_655 S
C1542 H1546 0.950 . S
C1542 C1551 1.390 1_556 S
C1543 C1542 1.387 1_455 S
C1543 C1545 1.387 1_545 S
H1544 C1551 0.950 . S
C1545 C1543 1.387 1_565 S
C1545 C1547 1.390 1_556 S
C1545 H1549 0.950 . S
H1546 C1542 0.950 . S
C1547 C1545 1.390 1_554 S
C1547 C1548 1.387 1_455 S
C1547 H1550 0.950 . S
C1548 C1547 1.387 1_655 S
C1548 C1551 1.387 1_565 S
H1549 C1545 0.950 . S
H1550 C1547 0.950 . S
C1551 C1542 1.390 1_554 S
C1551 H1544 0.950 . S
C1551 C1548 1.387 1_545 S
C1552 C1553 1.387 . S
C1552 H1556 0.950 . S
C1552 C1561 1.390 . S
C1553 C1552 1.387 . S
C1553 C1555 1.387 . S
H1554 C1561 0.950 . S
C1555 C1553 1.387 . S
C1555 C1557 1.390 . S
C1555 H1559 0.950 . S
H1556 C1552 0.950 . S
C1557 C1555 1.390 . S
C1557 C1558 1.387 . S
C1557 H1560 0.950 . S
C1558 C1557 1.387 . S
C1558 C1561 1.387 . S
H1559 C1555 0.950 . S
H1560 C1557 0.950 . S
C1561 C1552 1.390 . S
C1561 H1554 0.950 . S
C1561 C1558 1.387 . S
C1562 C1563 1.387 . S
C1562 H1566 0.950 . S
C1562 C1571 1.390 . S
C1563 C1562 1.387 . S
C1563 C1565 1.387 . S
H1564 C1571 0.950 . S
C1565 C1563 1.387 . S
C1565 C1567 1.390 . S
C1565 H1569 0.950 . S
H1566 C1562 0.950 . S
C1567 C1565 1.390 . S
C1567 C1568 1.387 . S
C1567 H1570 0.950 . S
C1568 C1567 1.387 . S
C1568 C1571 1.387 . S
H1569 C1565 0.950 . S
H1570 C1567 0.950 . S
C1571 C1562 1.390 . S
C1571 H1564 0.950 . S
C1571 C1568 1.387 . S
C1572 C1573 1.387 . S
C1572 H1576 0.950 . S
C1572 C1581 1.390 . S
C1573 C1572 1.387 . S
C1573 C1575 1.387 . S
H1574 C1581 0.950 . S
C1575 C1573 1.387 . S
C1575 C1577 1.390 . S
C1575 H1579 0.950 . S
H1576 C1572 0.950 . S
C1577 C1575 1.390 . S
C1577 C1578 1.387 . S
C1577 H1580 0.950 . S
C1578 C1577 1.387 . S
C1578 C1581 1.387 . S
H1579 C1575 0.950 . S
H1580 C1577 0.950 . S
C1581 C1572 1.390 . S
C1581 H1574 0.950 . S
C1581 C1578 1.387 . S
C1582 C1583 1.387 . S
C1582 H1586 0.950 . S
C1582 C1591 1.390 . S
C1583 C1582 1.387 . S
C1583 C1585 1.387 . S
H1584 C1591 0.950 . S
C1585 C1583 1.387 . S
C1585 C1587 1.390 . S
C1585 H1589 0.950 . S
H1586 C1582 0.950 . S
C1587 C1585 1.390 . S
C1587 C1588 1.387 . S
C1587 H1590 0.950 . S
C1588 C1587 1.387 . S
C1588 C1591 1.387 . S
H1589 C1585 0.950 . S
H1590 C1587 0.950 . S
C1591 C1582 1.390 . S
C1591 H1584 0.950 . S
C1591 C1588 1.387 . S
C1592 C1593 1.387 . S
C1592 H1596 0.950 . S
C1592 C1601 1.390 1_554 S
C1593 C1592 1.387 . S
C1593 C1595 1.387 . S
H1594 C1601 0.950 . S
C1595 C1593 1.387 . S
C1595 C1597 1.390 1_554 S
C1595 H1599 0.950 . S
H1596 C1592 0.950 . S
C1597 C1595 1.390 1_556 S
C1597 C1598 1.387 . S
C1597 H1600 0.950 . S
C1598 C1597 1.387 . S
C1598 C1601 1.387 . S
H1599 C1595 0.950 . S
H1600 C1597 0.950 . S
C1601 C1592 1.390 1_556 S
C1601 H1594 0.950 . S
C1601 C1598 1.387 . S
C1602 C1603 1.387 . S
C1602 H1606 0.950 . S
C1602 C1611 1.390 1_455 S
C1603 C1602 1.387 . S
C1603 C1605 1.387 . S
H1604 C1611 0.950 . S
C1605 C1603 1.387 . S
C1605 C1607 1.390 1_455 S
C1605 H1609 0.950 . S
H1606 C1602 0.950 . S
C1607 C1605 1.390 1_655 S
C1607 C1608 1.387 . S
C1607 H1610 0.950 . S
C1608 C1607 1.387 . S
C1608 C1611 1.387 . S
H1609 C1605 0.950 . S
H1610 C1607 0.950 . S
C1611 C1602 1.390 1_655 S
C1611 H1604 0.950 . S
C1611 C1608 1.387 . S
C1612 C1613 1.387 . S
C1612 H1616 0.950 . S
C1612 C1621 1.390 1_554 S
C1613 C1612 1.387 . S
C1613 C1615 1.387 1_455 S
H1614 C1621 0.950 . S
C1615 C1613 1.387 1_655 S
C1615 C1617 1.390 1_554 S
C1615 H1619 0.950 . S
H1616 C1612 0.950 . S
C1617 C1615 1.390 1_556 S
C1617 C1618 1.387 . S
C1617 H1620 0.950 . S
C1618 C1617 1.387 . S
C1618 C1621 1.387 1_655 S
H1619 C1615 0.950 . S
H1620 C1617 0.950 . S
C1621 C1612 1.390 1_556 S
C1621 H1614 0.950 . S
C1621 C1618 1.387 1_455 S
C1622 C1623 1.387 . S
C1622 H1626 0.950 . S
C1622 C1631 1.390 . S
C1623 C1622 1.387 . S
C1623 C1625 1.387 . S
H1624 C1631 0.950 . S
C1625 C1623 1.387 . S
C1625 C1627 1.390 . S
C1625 H1629 0.950 . S
H1626 C1622 0.950 . S
C1627 C1625 1.390 . S
C1627 C1628 1.387 . S
C1627 H1630 0.950 . S
C1628 C1627 1.387 . S
C1628 C1631 1.387 . S
H1629 C1625 0.950 . S
H1630 C1627 0.950 . S
C1631 C1622 1.390 . S
C1631 H1624 0.950 . S
C1631 C1628 1.387 . S
C1632 C1633 1.387 . S
C1632 H1636 0.950 . S
C1632 C1641 1.390 . S
C1633 C1632 1.387 . S
C1633 C1635 1.387 . S
H1634 C1641 0.950 . S
C1635 C1633 1.387 . S
C1635 C1637 1.390 . S
C1635 H1639 0.950 . S
H1636 C1632 0.950 . S
C1637 C1635 1.390 . S
C1637 C1638 1.387 . S
C1637 H1640 0.950 . S
C1638 C1637 1.387 . S
C1638 C1641 1.387 . S
H1639 C1635 0.950 . S
H1640 C1637 0.950 . S
C1641 C1632 1.390 . S
C1641 H1634 0.950 . S
C1641 C1638 1.387 . S
C1642 C1643 1.387 . S
C1642 H1646 0.950 . S
C1642 C1651 1.390 . S
C1643 C1642 1.387 . S
C1643 C1645 1.387 . S
H1644 C1651 0.950 . S
C1645 C1643 1.387 . S
C1645 C1647 1.390 . S
C1645 H1649 0.950 . S
H1646 C1642 0.950 . S
C1647 C1645 1.390 . S
C1647 C1648 1.387 . S
C1647 H1650 0.950 . S
C1648 C1647 1.387 . S
C1648 C1651 1.387 . S
H1649 C1645 0.950 . S
H1650 C1647 0.950 . S
C1651 C1642 1.390 . S
C1651 H1644 0.950 . S
C1651 C1648 1.387 . S
C1652 C1653 1.387 . S
C1652 H1656 0.950 . S
C1652 C1661 1.390 . S
C1653 C1652 1.387 . S
C1653 C1655 1.387 . S
H1654 C1661 0.950 . S
C1655 C1653 1.387 . S
C1655 C1657 1.390 . S
C1655 H1659 0.950 . S
H1656 C1652 0.950 . S
C1657 C1655 1.390 . S
C1657 C1658 1.387 . S
C1657 H1660 0.950 . S
C1658 C1657 1.387 . S
C1658 C1661 1.387 . S
H1659 C1655 0.950 . S
H1660 C1657 0.950 . S
C1661 C1652 1.390 . S
C1661 H1654 0.950 . S
C1661 C1658 1.387 . S
C1662 C1663 1.387 . S
C1662 H1666 0.950 . S
C1662 C1671 1.390 . S
C1663 C1662 1.387 . S
C1663 C1665 1.387 . S
H1664 C1671 0.950 . S
C1665 C1663 1.387 . S
C1665 C1667 1.390 . S
C1665 H1669 0.950 . S
H1666 C1662 0.950 . S
C1667 C1665 1.390 . S
C1667 C1668 1.387 . S
C1667 H1670 0.950 . S
C1668 C1667 1.387 . S
C1668 C1671 1.387 . S
H1669 C1665 0.950 . S
H1670 C1667 0.950 . S
C1671 C1662 1.390 . S
C1671 H1664 0.950 . S
C1671 C1668 1.387 . S
C1672 C1673 1.387 . S
C1672 H1676 0.950 . S
C1672 C1681 1.390 . S
C1673 C1672 1.387 . S
C1673 C1675 1.387 . S
H1674 C1681 0.950 . S
C1675 C1673 1.387 . S
C1675 C1677 1.390 . S
C1675 H1679 0.950 . S
H1676 C1672 0.950 . S
C1677 C1675 1.390 . S
C1677 C1678 1.387 . S
C1677 H1680 0.950 . S
C1678 C1677 1.387 . S
C1678 C1681 1.387 . S
H1679 C1675 0.950 . S
H1680 C1677 0.950 . S
C1681 C1672 1.390 . S
C1681 H1674 0.950 . S
C1681 C1678 1.387 . S
C1682 C1683 1.387 . S
C1682 H1686 0.950 . S
C1682 C1691 1.390 . S
C1683 C1682 1.387 . S
C1683 C1685 1.387 . S
H1684 C1691 0.950 . S
C1685 C1683 1.387 . S
C1685 C1687 1.390 . S
C1685 H1689 0.950 . S
H1686 C1682 0.950 . S
C1687 C1685 1.390 . S
C1687 C1688 1.387 . S
C1687 H1690 0.950 . S
C1688 C1687 1.387 . S
C1688 C1691 1.387 . S
H1689 C1685 0.950 . S
H1690 C1687 0.950 . S
C1691 C1682 1.390 . S
C1691 H1684 0.950 . S
C1691 C1688 1.387 . S
C1692 C1693 1.387 . S
C1692 H1696 0.950 . S
C1692 C1701 1.390 . S
C1693 C1692 1.387 . S
C1693 C1695 1.387 . S
H1694 C1701 0.950 . S
C1695 C1693 1.387 . S
C1695 C1697 1.390 . S
C1695 H1699 0.950 . S
H1696 C1692 0.950 . S
C1697 C1695 1.390 . S
C1697 C1698 1.387 . S
C1697 H1700 0.950 . S
C1698 C1697 1.387 . S
C1698 C1701 1.387 . S
H1699 C1695 0.950 . S
H1700 C1697 0.950 . S
C1701 C1692 1.390 . S
C1701 H1694 0.950 . S
C1701 C1698 1.387 . S
C1702 C1703 1.387 . S
C1702 H1706 0.950 . S
C1702 C1711 1.390 . S
C1703 C1702 1.387 . S
C1703 C1705 1.387 . S
H1704 C1711 0.950 . S
C1705 C1703 1.387 . S
C1705 C1707 1.390 . S
C1705 H1709 0.950 . S
H1706 C1702 0.950 . S
C1707 C1705 1.390 . S
C1707 C1708 1.387 . S
C1707 H1710 0.950 . S
C1708 C1707 1.387 . S
C1708 C1711 1.387 . S
H1709 C1705 0.950 . S
H1710 C1707 0.950 . S
C1711 C1702 1.390 . S
C1711 H1704 0.950 . S
C1711 C1708 1.387 . S
C1712 C1713 1.387 . S
C1712 H1716 0.950 . S
C1712 C1721 1.390 . S
C1713 C1712 1.387 . S
C1713 C1715 1.387 . S
H1714 C1721 0.950 . S
C1715 C1713 1.387 . S
C1715 C1717 1.390 . S
C1715 H1719 0.950 . S
H1716 C1712 0.950 . S
C1717 C1715 1.390 . S
C1717 C1718 1.387 . S
C1717 H1720 0.950 . S
C1718 C1717 1.387 . S
C1718 C1721 1.387 . S
H1719 C1715 0.950 . S
H1720 C1717 0.950 . S
C1721 C1712 1.390 . S
C1721 H1714 0.950 . S
C1721 C1718 1.387 . S
C1722 C1723 1.387 . S
C1722 H1726 0.950 . S
C1722 C1731 1.390 . S
C1723 C1722 1.387 . S
C1723 C1725 1.387 . S
H1724 C1731 0.950 . S
C1725 C1723 1.387 . S
C1725 C1727 1.390 . S
C1725 H1729 0.950 . S
H1726 C1722 0.950 . S
C1727 C1725 1.390 . S
C1727 C1728 1.387 . S
C1727 H1730 0.950 . S
C1728 C1727 1.387 . S
C1728 C1731 1.387 . S
H1729 C1725 0.950 . S
H1730 C1727 0.950 . S
C1731 C1722 1.390 . S
C1731 H1724 0.950 . S
C1731 C1728 1.387 . S
C1732 C1733 1.387 . S
C1732 H1736 0.950 . S
C1732 C1741 1.390 . S
C1733 C1732 1.387 . S
C1733 C1735 1.387 . S
H1734 C1741 0.950 . S
C1735 C1733 1.387 . S
C1735 C1737 1.390 . S
C1735 H1739 0.950 . S
H1736 C1732 0.950 . S
C1737 C1735 1.390 . S
C1737 C1738 1.387 . S
C1737 H1740 0.950 . S
C1738 C1737 1.387 . S
C1738 C1741 1.387 . S
H1739 C1735 0.950 . S
H1740 C1737 0.950 . S
C1741 C1732 1.390 . S
C1741 H1734 0.950 . S
C1741 C1738 1.387 . S
C1742 C1743 1.387 . S
C1742 H1746 0.950 . S
C1742 C1751 1.390 . S
C1743 C1742 1.387 . S
C1743 C1745 1.387 . S
H1744 C1751 0.950 . S
C1745 C1743 1.387 . S
C1745 C1747 1.390 . S
C1745 H1749 0.950 . S
H1746 C1742 0.950 . S
C1747 C1745 1.390 . S
C1747 C1748 1.387 . S
C1747 H1750 0.950 . S
C1748 C1747 1.387 . S
C1748 C1751 1.387 . S
H1749 C1745 0.950 . S
H1750 C1747 0.950 . S
C1751 C1742 1.390 . S
C1751 H1744 0.950 . S
C1751 C1748 1.387 . S
C1752 C1753 1.387 . S
C1752 H1756 0.950 . S
C1752 C1761 1.390 . S
C1753 C1752 1.387 . S
C1753 C1755 1.387 . S
H1754 C1761 0.950 . S
C1755 C1753 1.387 . S
C1755 C1757 1.390 . S
C1755 H1759 0.950 . S
H1756 C1752 0.950 . S
C1757 C1755 1.390 . S
C1757 C1758 1.387 . S
C1757 H1760 0.950 . S
C1758 C1757 1.387 . S
C1758 C1761 1.387 . S
H1759 C1755 0.950 . S
H1760 C1757 0.950 . S
C1761 C1752 1.390 . S
C1761 H1754 0.950 . S
C1761 C1758 1.387 . S
C1762 C1763 1.387 . S
C1762 H1766 0.950 . S
C1762 C1771 1.390 . S
C1763 C1762 1.387 . S
C1763 C1765 1.387 . S
H1764 C1771 0.950 . S
C1765 C1763 1.387 . S
C1765 C1767 1.390 . S
C1765 H1769 0.950 . S
H1766 C1762 0.950 . S
C1767 C1765 1.390 . S
C1767 C1768 1.387 . S
C1767 H1770 0.950 . S
C1768 C1767 1.387 . S
C1768 C1771 1.387 . S
H1769 C1765 0.950 . S
H1770 C1767 0.950 . S
C1771 C1762 1.390 . S
C1771 H1764 0.950 . S
C1771 C1768 1.387 . S
C1772 C1773 1.387 . S
C1772 H1776 0.950 . S
C1772 C1781 1.390 . S
C1773 C1772 1.387 . S
C1773 C1775 1.387 . S
H1774 C1781 0.950 . S
C1775 C1773 1.387 . S
C1775 C1777 1.390 . S
C1775 H1779 0.950 . S
H1776 C1772 0.950 . S
C1777 C1775 1.390 . S
C1777 C1778 1.387 . S
C1777 H1780 0.950 . S
C1778 C1777 1.387 . S
C1778 C1781 1.387 . S
H1779 C1775 0.950 . S
H1780 C1777 0.950 . S
C1781 C1772 1.390 . S
C1781 H1774 0.950 . S
C1781 C1778 1.387 . S
C1782 C1783 1.387 . S
C1782 H1786 0.950 . S
C1782 C1791 1.390 . S
C1783 C1782 1.387 . S
C1783 C1785 1.387 . S
H1784 C1791 0.950 . S
C1785 C1783 1.387 . S
C1785 C1787 1.390 . S
C1785 H1789 0.950 . S
H1786 C1782 0.950 . S
C1787 C1785 1.390 . S
C1787 C1788 1.387 . S
C1787 H1790 0.950 . S
C1788 C1787 1.387 . S
C1788 C1791 1.387 . S
H1789 C1785 0.950 . S
H1790 C1787 0.950 . S
C1791 C1782 1.390 . S
C1791 H1784 0.950 . S
C1791 C1788 1.387 . S
C1153 C974 1.399 . S
C1158 C4 1.360 . S
C1163 C40 1.360 . S
C1168 C290 1.400 . S
C1173 C902 1.399 . S
C1178 C76 1.357 . S
C1183 C112 1.358 . S
C1188 C362 1.398 . S
C1193 C148 1.360 . S
C1198 C1046 1.399 . S
C1203 C184 1.360 . S
C1208 C506 1.399 . S
C1213 C220 1.360 . S
C1218 C1118 1.399 . S
C1223 C256 1.357 . S
C1228 C434 1.399 . S
C1233 C686 1.355 . S
C1238 C291 1.348 . S
C1243 C2 1.355 . S
C1248 C327 1.350 . S
C1253 C614 1.355 . S
C1258 C363 1.350 . S
C1263 C399 1.349 . S
C1268 C74 1.355 . S
C1273 C758 1.355 . S
C1278 C435 1.349 . S
C1283 C218 1.355 . S
C1288 C471 1.348 . S
C1293 C507 1.350 . S
C1298 C830 1.355 . S
C1303 C146 1.356 . S
C1308 C543 1.349 . S
C1313 C580 1.357 . S
C1318 C398 1.399 . S
C1323 C616 1.358 . S
C1328 C866 1.398 . S
C1333 C326 1.399 . S
C1338 C652 1.357 . S
C1343 C938 1.399 . S
C1348 C688 1.360 . S
C1353 C470 1.399 . S
C1358 C724 1.360 . S
C1363 C1082 1.399 . S
C1368 C760 1.357 . S
C1373 C542 1.399 . S
C1378 C796 1.360 . S
C1383 C832 1.358 . S
C1388 C1010 1.398 . S
C1393 C110 1.355 . S
C1398 C867 1.348 . S
C1403 C903 1.349 . S
C1408 C578 1.355 . S
C1413 C939 1.350 . S
C1418 C38 1.355 . S
C1423 C975 1.349 . S
C1428 C650 1.354 . S
C1433 C1011 1.348 . S
C1438 C182 1.355 . S
C1443 C1047 1.349 . S
C1448 C794 1.355 . S
C1453 C1083 1.350 . S
C1458 C254 1.355 . S
C1463 C1119 1.350 . S
C1468 C722 1.355 . S
C1473 C878 1.498 . S
C1478 C14 1.434 . S
C1483 C50 1.436 . S
C1488 C338 1.496 . S
C1493 C950 1.496 . S
C1498 C86 1.435 . S
C1503 C122 1.436 . S
C1508 C410 1.496 . S
C1513 C1022 1.496 . S
C1518 C158 1.435 . S
C1523 C194 1.437 . S
C1528 C482 1.497 . S
C1533 C1094 1.496 . S
C1538 C230 1.437 . S
C1543 C266 1.436 . S
C1548 C554 1.496 . S
C1553 C302 1.497 . S
C1558 C590 1.434 . S
C1563 C374 1.498 . S
C1568 C662 1.433 . S
C1573 C446 1.498 . S
C1578 C734 1.434 . S
C1583 C518 1.496 . S
C1588 C806 1.436 . S
C1593 C626 1.436 . S
C1598 C914 1.496 . S
C1603 C986 1.496 . S
C1608 C698 1.436 . S
C1613 C1058 1.496 . S
C1618 C770 1.435 . S
C1623 C842 1.434 . S
C1628 C1130 1.498 . S
C1633 C3 1.491 . S
C1638 C183 1.491 . S
C1643 C39 1.491 . S
C1648 C219 1.491 . S
C1653 C75 1.491 . S
C1658 C255 1.490 . S
C1663 C147 1.491 . S
C1668 C111 1.491 . S
C1673 C292 1.390 . S
C1678 C472 1.388 . S
C1683 C328 1.388 . S
C1688 C508 1.389 . S
C1693 C364 1.390 . S
C1698 C544 1.388 . S
C1703 C400 1.390 . S
C1708 C436 1.389 . S
C1713 C579 1.491 . S
C1718 C759 1.490 . S
C1723 C795 1.491 . S
C1728 C615 1.491 . S
C1733 C651 1.491 . S
C1738 C831 1.491 . S
C1743 C687 1.491 . S
C1748 C723 1.491 . S
C1753 C1048 1.390 . S
C1758 C868 1.388 . S
C1763 C904 1.388 . S
C1768 C1084 1.390 . S
C1773 C1120 1.390 . S
C1778 C940 1.388 . S
C1783 C976 1.388 . S
C1788 C1012 1.390 . S
