# Generated by pormake.
# Topology umy, (4)-cn, num edge types: 1
# Building blocks:
#     Node 0, Type 0, BuildingBlock: UXUYUI_clean_sbu_0, # of connection points: 4
#     Node 1, Type 0, BuildingBlock: UXUYUI_clean_sbu_0, # of connection points: 4
#     Node 2, Type 0, BuildingBlock: UXUYUI_clean_sbu_0, # of connection points: 4
#     Node 3, Type 0, BuildingBlock: UXUYUI_clean_sbu_0, # of connection points: 4
#     Node 4, Type 0, BuildingBlock: UXUYUI_clean_sbu_0, # of connection points: 4
#     Node 5, Type 0, BuildingBlock: UXUYUI_clean_sbu_0, # of connection points: 4
#     Node 6, Type 0, BuildingBlock: UXUYUI_clean_sbu_0, # of connection points: 4
#     Node 7, Type 0, BuildingBlock: UXUYUI_clean_sbu_0, # of connection points: 4
#     Node 8, Type 0, BuildingBlock: UXUYUI_clean_sbu_0, # of connection points: 4
#     Node 9, Type 0, BuildingBlock: UXUYUI_clean_sbu_0, # of connection points: 4
#     Node 10, Type 0, BuildingBlock: UXUYUI_clean_sbu_0, # of connection points: 4
#     Node 11, Type 0, BuildingBlock: UXUYUI_clean_sbu_0, # of connection points: 4
#     Edge 12, Type (0, 0), BuildingBlock: XIVTED_clean_linker_0, # of connection points: 2
#     Edge 13, Type (0, 0), BuildingBlock: XIVTED_clean_linker_0, # of connection points: 2
#     Edge 14, Type (0, 0), BuildingBlock: XIVTED_clean_linker_0, # of connection points: 2
#     Edge 15, Type (0, 0), BuildingBlock: XIVTED_clean_linker_0, # of connection points: 2
#     Edge 16, Type (0, 0), BuildingBlock: XIVTED_clean_linker_0, # of connection points: 2
#     Edge 17, Type (0, 0), BuildingBlock: XIVTED_clean_linker_0, # of connection points: 2
#     Edge 18, Type (0, 0), BuildingBlock: XIVTED_clean_linker_0, # of connection points: 2
#     Edge 19, Type (0, 0), BuildingBlock: XIVTED_clean_linker_0, # of connection points: 2
#     Edge 20, Type (0, 0), BuildingBlock: XIVTED_clean_linker_0, # of connection points: 2
#     Edge 21, Type (0, 0), BuildingBlock: XIVTED_clean_linker_0, # of connection points: 2
#     Edge 22, Type (0, 0), BuildingBlock: XIVTED_clean_linker_0, # of connection points: 2
#     Edge 23, Type (0, 0), BuildingBlock: XIVTED_clean_linker_0, # of connection points: 2
#     Edge 24, Type (0, 0), BuildingBlock: XIVTED_clean_linker_0, # of connection points: 2
#     Edge 25, Type (0, 0), BuildingBlock: XIVTED_clean_linker_0, # of connection points: 2
#     Edge 26, Type (0, 0), BuildingBlock: XIVTED_clean_linker_0, # of connection points: 2
#     Edge 27, Type (0, 0), BuildingBlock: XIVTED_clean_linker_0, # of connection points: 2
#     Edge 28, Type (0, 0), BuildingBlock: XIVTED_clean_linker_0, # of connection points: 2
#     Edge 29, Type (0, 0), BuildingBlock: XIVTED_clean_linker_0, # of connection points: 2
#     Edge 30, Type (0, 0), BuildingBlock: XIVTED_clean_linker_0, # of connection points: 2
#     Edge 31, Type (0, 0), BuildingBlock: XIVTED_clean_linker_0, # of connection points: 2
#     Edge 32, Type (0, 0), BuildingBlock: XIVTED_clean_linker_0, # of connection points: 2
#     Edge 33, Type (0, 0), BuildingBlock: XIVTED_clean_linker_0, # of connection points: 2
#     Edge 34, Type (0, 0), BuildingBlock: XIVTED_clean_linker_0, # of connection points: 2
#     Edge 35, Type (0, 0), BuildingBlock: XIVTED_clean_linker_0, # of connection points: 2
# Relax obj value: 0.205
# Max RMSD: 0.156
# Mean RMSD: 0.156
data_MOF--net-umy--node1-UXUYUI_clean_sbu_0--edge1-XIVTED_clean_linker_0
_symmetry_space_group_name_H-M    P1
_symmetry_Int_Tables_number       1
_symmetry_cell_setting            triclinic
loop_
_symmetry_equiv_pos_as_xyz
'x, y, z'
_cell_length_a     58.853014
_cell_length_b     58.864715
_cell_length_c     66.289826
_cell_angle_alpha  90.001449
_cell_angle_beta   89.981823
_cell_angle_gamma 120.01136
loop_
_atom_site_label
_atom_site_type_symbol
_atom_site_fract_x
_atom_site_fract_y
_atom_site_fract_z
_atom_type_partial_charge
Li0 Li 0.0911 0.34675 0.08826 0.0
Li1 Li 0.09409 0.35618 0.12424 0.0
Li2 Li 0.0509 0.32593 0.10696 0.0
Li3 Li 0.07284 0.37358 0.10147 0.0
C4 C 0.09341 0.30777 0.10488 0.0
N5 N 0.11745 0.2807 0.09114 0.0
C6 C 0.11842 0.31444 0.11178 0.0
C7 C 0.08049 0.28716 0.09118 0.0
C8 C 0.13028 0.30055 0.10462 0.0
C9 C 0.09302 0.27377 0.08435 0.0
C10 C 0.12832 0.4063 0.108 0.0
C11 C 0.14014 0.44438 0.12862 0.0
N12 N 0.16475 0.45623 0.12069 0.0
C13 C 0.15367 0.41892 0.09994 0.0
C14 C 0.12146 0.41918 0.12237 0.0
C15 C 0.17183 0.44413 0.1066 0.0
C16 C 0.09952 0.33046 0.04955 0.0
N17 N 0.11076 0.34304 0.06709 0.0
C18 C 0.15258 0.3502 0.05646 0.0
C19 C 0.13674 0.35296 0.07071 0.0
C20 C 0.14159 0.33709 0.03824 0.0
C21 C 0.11467 0.32717 0.03483 0.0
H22 H 0.07881 0.3228 0.04706 0.0
H23 H 0.14502 0.36254 0.08493 0.0
C24 C 0.09921 0.34736 0.16484 0.0
N25 N 0.1132 0.36118 0.14848 0.0
C26 C 0.11175 0.34981 0.18323 0.0
C27 C 0.15302 0.38027 0.16748 0.0
C28 C 0.13965 0.37724 0.14938 0.0
C29 C 0.13903 0.36648 0.18474 0.0
H30 H 0.07824 0.33439 0.16355 0.0
H31 H 0.15042 0.38757 0.13605 0.0
C32 C 0.03425 0.33243 0.07101 0.0
N33 N 0.98647 0.30632 0.05144 0.0
C34 C 0.01903 0.3444 0.06869 0.0
C35 C 0.02528 0.30728 0.06325 0.0
C36 C 0.99491 0.33086 0.05876 0.0
C37 C 0.00102 0.29437 0.05346 0.0
C38 C 0.04817 0.36103 0.14201 0.0
C39 C 0.02097 0.35051 0.14232 0.0
C40 C 0.06347 0.37818 0.15737 0.0
C41 C 0.00958 0.35757 0.15778 0.0
C42 C 0.05134 0.38475 0.17259 0.0
N43 N 0.02487 0.37441 0.17247 0.0
C44 C 0.01967 0.2751 0.1214 0.0
C45 C 0.99463 0.29317 0.10841 0.0
C46 C 0.99702 0.25323 0.12858 0.0
N47 N 0.01817 0.29478 0.11192 0.0
C48 C 0.97144 0.27161 0.11535 0.0
C49 C 0.97257 0.25166 0.12613 0.0
H50 H 0.0386 0.27692 0.12418 0.0
H51 H 0.99389 0.30923 0.10119 0.0
C52 C 0.08564 0.42155 0.0834 0.0
N53 N 0.06868 0.40318 0.09657 0.0
C54 C 0.08494 0.44463 0.08019 0.0
C55 C 0.04878 0.42909 0.10368 0.0
C56 C 0.05016 0.40632 0.10639 0.0
C57 C 0.06652 0.44879 0.0906 0.0
H58 H 0.10002 0.41843 0.07564 0.0
H59 H 0.03661 0.39134 0.1165 0.0
O60 O 0.0818 0.32162 0.11127 0.0
O61 O 0.11036 0.38157 0.10166 0.0
O62 O 0.05795 0.34543 0.08059 0.0
O63 O 0.05962 0.35401 0.12709 0.0
H64 H 0.12869 0.33039 0.12236 0.0
H65 H 0.0611 0.28175 0.08573 0.0
H66 H 0.14971 0.30561 0.10971 0.0
H67 H 0.08334 0.2579 0.07363 0.0
H68 H 0.13505 0.45456 0.13972 0.0
H69 H 0.15929 0.40936 0.08867 0.0
H70 H 0.10183 0.40997 0.12842 0.0
H71 H 0.19154 0.45409 0.10054 0.0
H72 H 0.17311 0.3577 0.0599 0.0
H73 H 0.10546 0.3171 0.02094 0.0
H74 H 0.10026 0.33841 0.19602 0.0
H75 H 0.17404 0.39339 0.16797 0.0
H76 H 0.02574 0.3639 0.07451 0.0
H77 H 0.03678 0.29771 0.06497 0.0
H78 H 0.98288 0.33984 0.05691 0.0
H79 H 0.99376 0.27483 0.04749 0.0
H80 H 0.0088 0.33737 0.13059 0.0
H81 H 0.08448 0.38627 0.1577 0.0
H82 H 0.98857 0.34969 0.15809 0.0
H83 H 0.06298 0.39801 0.18452 0.0
H84 H 0.99874 0.23812 0.1366 0.0
H85 H 0.95305 0.27136 0.11333 0.0
H86 H 0.09869 0.45904 0.06968 0.0
H87 H 0.03438 0.43149 0.11214 0.0
Li88 Li 0.74845 0.08067 0.25382 0.0
Li89 Li 0.74043 0.08786 0.28949 0.0
Li90 Li 0.72149 0.04491 0.27573 0.0
Li91 Li 0.70408 0.07175 0.26548 0.0
C92 C 0.76861 0.05347 0.28109 0.0
N93 N 0.78527 0.01741 0.28565 0.0
C94 C 0.77676 0.04967 0.29997 0.0
C95 C 0.76912 0.03905 0.26451 0.0
C96 C 0.78504 0.03129 0.30197 0.0
C97 C 0.7776 0.02092 0.26711 0.0
C98 C 0.75818 0.13097 0.2623 0.0
C99 C 0.77526 0.17556 0.25107 0.0
N100 N 0.79981 0.18114 0.25649 0.0
C101 C 0.78359 0.13715 0.26777 0.0
C102 C 0.75396 0.1503 0.25387 0.0
C103 C 0.80437 0.16263 0.2647 0.0
C104 C 0.76984 0.1064 0.2165 0.0
N105 N 0.77409 0.09538 0.23305 0.0
C106 C 0.81869 0.11174 0.22344 0.0
C107 C 0.79785 0.09762 0.2366 0.0
C108 C 0.81537 0.1244 0.20668 0.0
C109 C 0.79034 0.12109 0.20301 0.0
H110 H 0.75088 0.10483 0.21433 0.0
H111 H 0.80105 0.08947 0.25016 0.0
C112 C 0.75607 0.09491 0.32964 0.0
N113 N 0.75434 0.1081 0.31344 0.0
C114 C 0.76557 0.10772 0.34802 0.0
C115 C 0.77045 0.14732 0.33297 0.0
C116 C 0.7608 0.1337 0.31487 0.0
C117 C 0.77309 0.13435 0.34983 0.0
H118 H 0.74979 0.07431 0.32829 0.0
H119 H 0.75814 0.14353 0.30212 0.0
C120 C 0.69998 0.02724 0.2381 0.0
N121 N 0.67254 0.97946 0.21874 0.0
C122 C 0.67427 0.00934 0.2439 0.0
C123 C 0.71169 0.02099 0.22235 0.0
C124 C 0.66075 0.98523 0.23396 0.0
C125 C 0.69749 0.99669 0.21277 0.0
C126 C 0.69148 0.06715 0.30586 0.0
C127 C 0.67543 0.05058 0.32119 0.0
C128 C 0.69445 0.09214 0.30372 0.0
C129 C 0.66264 0.05929 0.33413 0.0
C130 C 0.68134 0.10012 0.31697 0.0
N131 N 0.66584 0.08367 0.33178 0.0
C132 C 0.70707 0.00637 0.30426 0.0
C133 C 0.70993 0.9904 0.27212 0.0
C134 C 0.69998 0.98228 0.3131 0.0
N135 N 0.71162 0.00997 0.28411 0.0
C136 C 0.70284 0.96585 0.28035 0.0
C137 C 0.69756 0.96152 0.30111 0.0
H138 H 0.70934 0.02246 0.31356 0.0
H139 H 0.71445 0.99381 0.25626 0.0
C140 C 0.67281 0.09 0.24602 0.0
N141 N 0.6728 0.07185 0.25868 0.0
C142 C 0.64955 0.09031 0.24238 0.0
C143 C 0.62695 0.05329 0.26488 0.0
C144 C 0.65045 0.05346 0.26782 0.0
C145 C 0.62618 0.07191 0.25205 0.0
H146 H 0.69091 0.10434 0.2389 0.0
H147 H 0.65098 0.03921 0.2778 0.0
O148 O 0.75987 0.07095 0.27884 0.0
O149 O 0.73759 0.106 0.26466 0.0
O150 O 0.71354 0.05098 0.24752 0.0
O151 O 0.70414 0.05877 0.29314 0.0
H152 H 0.77675 0.06078 0.31293 0.0
H153 H 0.76265 0.04157 0.24982 0.0
H154 H 0.7913 0.02809 0.31651 0.0
H155 H 0.77792 0.00952 0.25443 0.0
H156 H 0.77227 0.19072 0.24456 0.0
H157 H 0.78727 0.12247 0.27432 0.0
H158 H 0.73443 0.1458 0.24948 0.0
H159 H 0.82413 0.16767 0.26884 0.0
H160 H 0.83746 0.11336 0.22675 0.0
H161 H 0.78694 0.13076 0.19044 0.0
H162 H 0.7673 0.09694 0.36059 0.0
H163 H 0.7754 0.16766 0.33384 0.0
H164 H 0.665 0.01389 0.25609 0.0
H165 H 0.73155 0.03475 0.21764 0.0
H166 H 0.64089 0.9711 0.23837 0.0
H167 H 0.70631 0.99152 0.20061 0.0
H168 H 0.67283 0.03115 0.32304 0.0
H169 H 0.70668 0.10528 0.29196 0.0
H170 H 0.65015 0.04666 0.34605 0.0
H171 H 0.68348 0.1194 0.31547 0.0
H172 H 0.69686 0.98011 0.32925 0.0
H173 H 0.70131 0.95042 0.27056 0.0
H174 H 0.64991 0.10479 0.23211 0.0
H175 H 0.60975 0.03905 0.27304 0.0
Li176 Li 0.65201 0.74148 0.42889 0.0
Li177 Li 0.63755 0.73301 0.46529 0.0
Li178 Li 0.66547 0.71769 0.45125 0.0
Li179 Li 0.62022 0.69598 0.44255 0.0
C180 C 0.69827 0.76758 0.45965 0.0
N181 N 0.74996 0.79211 0.47204 0.0
C182 C 0.7043 0.76959 0.48019 0.0
C183 C 0.71847 0.7782 0.4454 0.0
C184 C 0.73058 0.782 0.48615 0.0
C185 C 0.7445 0.79051 0.45197 0.0
C186 C 0.60006 0.73731 0.44562 0.0
C187 C 0.56403 0.7349 0.46474 0.0
N188 N 0.56873 0.75799 0.45644 0.0
C189 C 0.60436 0.76088 0.43713 0.0
C190 C 0.57958 0.72408 0.45939 0.0
C191 C 0.58837 0.77106 0.44285 0.0
C192 C 0.653 0.75965 0.38865 0.0
N193 N 0.66058 0.76643 0.40814 0.0
C194 C 0.67694 0.81164 0.4008 0.0
C195 C 0.67277 0.79182 0.41431 0.0
C196 C 0.66863 0.80526 0.38073 0.0
C197 C 0.65711 0.77899 0.3745 0.0
H198 H 0.64307 0.7392 0.38428 0.0
H199 H 0.67829 0.79654 0.42997 0.0
C200 C 0.62786 0.73719 0.50645 0.0
N201 N 0.63188 0.74896 0.48814 0.0
C202 C 0.62539 0.74943 0.52367 0.0
C203 C 0.63121 0.78567 0.50284 0.0
C204 C 0.63382 0.77283 0.48607 0.0
C205 C 0.62716 0.77409 0.52204 0.0
H206 H 0.62726 0.7186 0.50778 0.0
H207 H 0.6378 0.78209 0.47141 0.0
C208 C 0.6659 0.69946 0.41416 0.0
N209 N 0.69727 0.68334 0.39525 0.0
C210 C 0.66458 0.67596 0.41983 0.0
C211 C 0.68305 0.7147 0.3988 0.0
C212 C 0.68066 0.66818 0.41013 0.0
C213 C 0.69876 0.70621 0.38943 0.0
C214 C 0.62 0.67507 0.47822 0.0
C215 C 0.62799 0.65634 0.47832 0.0
C216 C 0.59585 0.66891 0.48673 0.0
C217 C 0.61153 0.63166 0.48673 0.0
C218 C 0.57992 0.64399 0.49494 0.0
N219 N 0.58802 0.62603 0.49477 0.0
C220 C 0.6947 0.70753 0.47872 0.0
C221 C 0.71597 0.72004 0.447 0.0
C222 C 0.71565 0.70597 0.4869 0.0
N223 N 0.695 0.71417 0.45906 0.0
C224 C 0.7374 0.71858 0.45454 0.0
C225 C 0.73742 0.71161 0.4748 0.0
H226 H 0.67834 0.70395 0.48825 0.0
H227 H 0.7165 0.72659 0.43172 0.0
C228 C 0.56713 0.66444 0.43137 0.0
N229 N 0.58917 0.66368 0.43631 0.0
C230 C 0.5434 0.64119 0.42839 0.0
C231 C 0.56556 0.61681 0.43533 0.0
C232 C 0.58896 0.64052 0.43769 0.0
C233 C 0.54242 0.61706 0.43081 0.0
H234 H 0.56786 0.68307 0.43 0.0
H235 H 0.60681 0.64037 0.44104 0.0
O236 O 0.6727 0.75478 0.4535 0.0
O237 O 0.61573 0.7272 0.4404 0.0
O238 O 0.65019 0.70733 0.42332 0.0
O239 O 0.63576 0.69931 0.46991 0.0
H240 H 0.68882 0.76134 0.49138 0.0
H241 H 0.71406 0.77664 0.42943 0.0
H242 H 0.73556 0.78354 0.50199 0.0
H243 H 0.76036 0.79868 0.44113 0.0
H244 H 0.54822 0.72494 0.47548 0.0
H245 H 0.6199 0.77127 0.42629 0.0
H246 H 0.57576 0.70568 0.46591 0.0
H247 H 0.59158 0.78935 0.43648 0.0
H248 H 0.68607 0.83172 0.4061 0.0
H249 H 0.65031 0.77338 0.35915 0.0
H250 H 0.62294 0.74001 0.53817 0.0
H251 H 0.63251 0.80452 0.50077 0.0
H252 H 0.65156 0.66405 0.43177 0.0
H253 H 0.68432 0.73294 0.39424 0.0
H254 H 0.67998 0.65013 0.41445 0.0
H255 H 0.71219 0.71783 0.37756 0.0
H256 H 0.64647 0.6606 0.47163 0.0
H257 H 0.58944 0.6832 0.48697 0.0
H258 H 0.61739 0.61692 0.48676 0.0
H259 H 0.56112 0.63894 0.50148 0.0
H260 H 0.71479 0.7004 0.50257 0.0
H261 H 0.75404 0.72356 0.44482 0.0
H262 H 0.52588 0.64204 0.42482 0.0
H263 H 0.56552 0.59849 0.43699 0.0
Li264 Li 0.95666 0.6734 0.60735 0.0
Li265 Li 0.93072 0.62598 0.60152 0.0
Li266 Li 0.91501 0.65644 0.59072 0.0
Li267 Li 0.91418 0.64577 0.62642 0.0
C268 C 0.96807 0.66635 0.56939 0.0
N269 N 0.01332 0.69053 0.54646 0.0
C270 C 0.98154 0.65306 0.56476 0.0
C271 C 0.97743 0.6918 0.56215 0.0
C272 C 0.00442 0.66565 0.55319 0.0
C273 C 0.00041 0.70374 0.55066 0.0
C274 C 0.95672 0.63402 0.64069 0.0
C275 C 0.94998 0.6048 0.66848 0.0
N276 N 0.97611 0.61322 0.66871 0.0
C277 C 0.98357 0.64264 0.64142 0.0
C278 C 0.93983 0.61516 0.65452 0.0
C279 C 0.99297 0.63178 0.65559 0.0
C280 C 0.99395 0.72388 0.62012 0.0
N281 N 0.9913 0.70218 0.6107 0.0
C282 C 0.03779 0.72014 0.61055 0.0
C283 C 0.01258 0.70011 0.60564 0.0
C284 C 0.0411 0.74237 0.62101 0.0
C285 C 0.01878 0.74433 0.6254 0.0
H286 H 0.97669 0.72483 0.6243 0.0
H287 H 0.00997 0.68245 0.59854 0.0
C288 C 0.91229 0.57515 0.58539 0.0
N289 N 0.93246 0.59527 0.59543 0.0
C290 C 0.91241 0.5518 0.582 0.0
C291 C 0.95459 0.57073 0.59854 0.0
C292 C 0.95364 0.59368 0.60158 0.0
C293 C 0.93363 0.54924 0.58885 0.0
H294 H 0.89591 0.57712 0.58027 0.0
H295 H 0.9698 0.6102 0.60892 0.0
C296 C 0.9196 0.69805 0.61013 0.0
N297 N 0.90088 0.73157 0.60118 0.0
C298 C 0.89726 0.6952 0.61987 0.0
C299 C 0.93267 0.7182 0.59607 0.0
C300 C 0.88805 0.71229 0.61509 0.0
C301 C 0.92282 0.73486 0.59168 0.0
C302 C 0.87381 0.59806 0.60977 0.0
C303 C 0.84848 0.59085 0.60328 0.0
C304 C 0.87764 0.58106 0.62216 0.0
C305 C 0.82735 0.56694 0.60961 0.0
C306 C 0.85603 0.5573 0.62813 0.0
N307 N 0.83153 0.5508 0.62181 0.0
C308 C 0.90442 0.67377 0.55312 0.0
C309 C 0.87173 0.65943 0.57853 0.0
C310 C 0.88984 0.68097 0.54069 0.0
N311 N 0.89527 0.66357 0.57174 0.0
C312 C 0.85672 0.66656 0.56676 0.0
C313 C 0.8659 0.67783 0.5477 0.0
H314 H 0.92324 0.67684 0.54812 0.0
H315 H 0.86502 0.65133 0.59342 0.0
C316 C 0.91157 0.65175 0.66827 0.0
N317 N 0.89674 0.64169 0.6514 0.0
C318 C 0.89964 0.6503 0.68681 0.0
C319 C 0.85743 0.6284 0.6702 0.0
C320 C 0.87017 0.63027 0.652 0.0
C321 C 0.8722 0.63863 0.68792 0.0
H322 H 0.93271 0.66122 0.66725 0.0
H323 H 0.85887 0.6231 0.6383 0.0
O324 O 0.94566 0.65434 0.58072 0.0
O325 O 0.94725 0.6447 0.62701 0.0
O326 O 0.92852 0.68108 0.61421 0.0
O327 O 0.89468 0.62152 0.6038 0.0
H328 H 0.97444 0.63327 0.57008 0.0
H329 H 0.96718 0.7023 0.56549 0.0
H330 H 0.01511 0.65566 0.54957 0.0
H331 H 0.00797 0.7235 0.54507 0.0
H332 H 0.93709 0.59016 0.67922 0.0
H333 H 0.99701 0.65735 0.63102 0.0
H334 H 0.91915 0.60879 0.65471 0.0
H335 H 0.01367 0.63813 0.65618 0.0
H336 H 0.05443 0.71788 0.6067 0.0
H337 H 0.02029 0.76084 0.63375 0.0
H338 H 0.89609 0.53595 0.57408 0.0
H339 H 0.97132 0.56967 0.60415 0.0
H340 H 0.88696 0.67977 0.63083 0.0
H341 H 0.95012 0.72083 0.58855 0.0
H342 H 0.87065 0.71017 0.62238 0.0
H343 H 0.93261 0.75041 0.58072 0.0
H344 H 0.84514 0.60359 0.5935 0.0
H345 H 0.89711 0.58594 0.62683 0.0
H346 H 0.80764 0.56118 0.60478 0.0
H347 H 0.85875 0.54398 0.63771 0.0
H348 H 0.89756 0.68965 0.52608 0.0
H349 H 0.83819 0.66347 0.57259 0.0
H350 H 0.91184 0.65887 0.7 0.0
H351 H 0.83624 0.61911 0.67036 0.0
Li352 Li 0.29581 0.92838 0.77182 0.0
Li353 Li 0.27168 0.95032 0.7755 0.0
Li354 Li 0.25496 0.90816 0.79296 0.0
Li355 Li 0.25303 0.91204 0.75566 0.0
C356 C 0.302 0.96307 0.80837 0.0
N357 N 0.32778 0.00925 0.83005 0.0
C358 C 0.32839 0.98101 0.80444 0.0
C359 C 0.28878 0.96851 0.82343 0.0
C360 C 0.34108 0.00425 0.81558 0.0
C361 C 0.30213 0.99202 0.83417 0.0
C362 C 0.29687 0.96877 0.74112 0.0
C363 C 0.29201 0.00237 0.72419 0.0
N364 N 0.31857 0.01774 0.72341 0.0
C365 C 0.32412 0.98487 0.7401 0.0
C366 C 0.28066 0.97752 0.73303 0.0
C367 C 0.33471 0.00957 0.7311 0.0
C368 C 0.33882 0.931 0.75095 0.0
N369 N 0.32888 0.93041 0.76956 0.0
C370 C 0.36467 0.92905 0.78528 0.0
C371 C 0.34123 0.9295 0.78659 0.0
C372 C 0.37539 0.92945 0.76625 0.0
C373 C 0.36221 0.93059 0.74893 0.0
H374 H 0.32833 0.93138 0.73767 0.0
H375 H 0.33254 0.92856 0.80117 0.0
C376 C 0.25242 0.98345 0.78687 0.0
N377 N 0.27438 0.98381 0.78006 0.0
C378 C 0.25368 0.00644 0.79378 0.0
C379 C 0.29993 0.03004 0.7858 0.0
C380 C 0.29778 0.00658 0.77906 0.0
C381 C 0.27782 0.03002 0.79379 0.0
H382 H 0.23412 0.96508 0.78781 0.0
H383 H 0.31514 0.00639 0.7741 0.0
C384 C 0.2772 0.87797 0.76545 0.0
N385 N 0.30438 0.85336 0.75314 0.0
C386 C 0.27966 0.8742 0.74491 0.0
C387 C 0.28865 0.86929 0.77971 0.0
C388 C 0.29342 0.86166 0.739 0.0
C389 C 0.30231 0.85689 0.77319 0.0
C390 C 0.21041 0.90941 0.77005 0.0
C391 C 0.19223 0.88393 0.77618 0.0
C392 C 0.20307 0.92223 0.75597 0.0
C393 C 0.167 0.87158 0.76795 0.0
C394 C 0.17766 0.90919 0.74807 0.0
N395 N 0.16031 0.88434 0.75416 0.0
C396 C 0.22488 0.89745 0.82794 0.0
C397 C 0.23636 0.86515 0.82022 0.0
C398 C 0.21121 0.88356 0.84507 0.0
N399 N 0.23725 0.88818 0.81605 0.0
C400 C 0.22296 0.85062 0.83725 0.0
C401 C 0.21018 0.85983 0.84996 0.0
H402 H 0.22554 0.9156 0.82402 0.0
H403 H 0.24583 0.85792 0.81025 0.0
C404 C 0.23074 0.90518 0.71608 0.0
N405 N 0.23141 0.89321 0.73343 0.0
C406 C 0.21341 0.89054 0.70062 0.0
C407 C 0.19838 0.85157 0.72105 0.0
C408 C 0.21584 0.86694 0.7361 0.0
C409 C 0.19689 0.86336 0.70306 0.0
H410 H 0.24342 0.92608 0.71432 0.0
H411 H 0.21673 0.85801 0.75011 0.0
O412 O 0.28914 0.94041 0.79741 0.0
O413 O 0.28615 0.94445 0.74973 0.0
O414 O 0.26458 0.89102 0.7715 0.0
O415 O 0.23545 0.92154 0.77744 0.0
H416 H 0.33886 0.97724 0.79271 0.0
H417 H 0.26835 0.9549 0.8266 0.0
H418 H 0.36145 0.01839 0.81261 0.0
H419 H 0.29207 0.9966 0.84573 0.0
H420 H 0.2797 0.00946 0.71799 0.0
H421 H 0.33697 0.9785 0.74638 0.0
H422 H 0.25955 0.96542 0.73382 0.0
H423 H 0.35576 0.02228 0.73029 0.0
H424 H 0.37392 0.92773 0.79901 0.0
H425 H 0.36989 0.9312 0.73397 0.0
H426 H 0.2361 0.00559 0.79966 0.0
H427 H 0.31903 0.04765 0.78584 0.0
H428 H 0.2714 0.88124 0.73363 0.0
H429 H 0.28755 0.87262 0.79564 0.0
H430 H 0.29554 0.8587 0.72316 0.0
H431 H 0.31143 0.85025 0.78406 0.0
H432 H 0.19765 0.87366 0.78695 0.0
H433 H 0.21692 0.94195 0.75108 0.0
H434 H 0.15278 0.8518 0.77245 0.0
H435 H 0.17175 0.9188 0.73707 0.0
H436 H 0.20182 0.89149 0.85451 0.0
H437 H 0.22227 0.83221 0.84025 0.0
H438 H 0.21299 0.90034 0.68692 0.0
H439 H 0.1857 0.83077 0.72371 0.0
Li440 Li 0.37621 0.30069 0.93495 0.0
Li441 Li 0.32903 0.28106 0.94164 0.0
Li442 Li 0.35538 0.26338 0.95891 0.0
Li443 Li 0.34359 0.25548 0.92322 0.0
C444 C 0.37059 0.31788 0.97509 0.0
N445 N 0.39452 0.35693 0.00379 0.0
C446 C 0.36297 0.33673 0.97745 0.0
C447 C 0.39009 0.31866 0.98762 0.0
C448 C 0.37539 0.35639 0.99195 0.0
C449 C 0.40202 0.33861 0.00196 0.0
C450 C 0.33647 0.30184 0.90444 0.0
C451 C 0.30006 0.30036 0.88658 0.0
N452 N 0.3144 0.32675 0.8837 0.0
C453 C 0.35093 0.32891 0.90118 0.0
C454 C 0.31091 0.28739 0.89695 0.0
C455 C 0.3394 0.34116 0.8907 0.0
C456 C 0.42647 0.33105 0.91751 0.0
N457 N 0.40806 0.33227 0.92913 0.0
C458 C 0.43638 0.37823 0.93433 0.0
C459 C 0.41233 0.35534 0.9371 0.0
C460 C 0.4561 0.37742 0.92298 0.0
C461 C 0.45079 0.35353 0.91422 0.0
H462 H 0.42245 0.31249 0.91113 0.0
H463 H 0.39711 0.35604 0.94566 0.0
C464 C 0.2792 0.2694 0.95518 0.0
N465 N 0.3014 0.28843 0.94627 0.0
C466 C 0.25942 0.2745 0.96108 0.0
C467 C 0.28534 0.31851 0.94797 0.0
C468 C 0.30467 0.31257 0.94241 0.0
C469 C 0.26255 0.2995 0.95784 0.0
H470 H 0.27728 0.25051 0.95842 0.0
H471 H 0.32269 0.32757 0.93569 0.0
C472 C 0.40126 0.26813 0.94051 0.0
N473 N 0.44701 0.26839 0.95041 0.0
C474 C 0.40594 0.24862 0.93307 0.0
C475 C 0.42003 0.28796 0.95275 0.0
C476 C 0.42912 0.24902 0.93832 0.0
C477 C 0.44299 0.28772 0.95763 0.0
C478 C 0.30136 0.21903 0.94255 0.0
C479 C 0.30247 0.19824 0.95173 0.0
C480 C 0.2816 0.21381 0.92854 0.0
C481 C 0.28402 0.1725 0.94645 0.0
C482 C 0.26354 0.1878 0.92363 0.0
N483 N 0.26513 0.16786 0.9326 0.0
C484 C 0.35181 0.25427 0.00074 0.0
C485 C 0.36897 0.23168 0.98235 0.0
C486 C 0.35402 0.2433 0.01879 0.0
N487 N 0.35949 0.2485 0.98306 0.0
C488 C 0.3715 0.22025 2e-05 0.0
C489 C 0.36395 0.226 0.01857 0.0
H490 H 0.34379 0.26727 0.00079 0.0
H491 H 0.37422 0.22681 0.96805 0.0
C492 C 0.32602 0.23091 0.88452 0.0
N493 N 0.33479 0.22938 0.90317 0.0
C494 C 0.31801 0.2101 0.87092 0.0
C495 C 0.3285 0.1869 0.89598 0.0
C496 C 0.33657 0.20818 0.90893 0.0
C497 C 0.31883 0.18758 0.87678 0.0
H498 H 0.32487 0.24805 0.88034 0.0
H499 H 0.3437 0.20759 0.92384 0.0
O500 O 0.35847 0.29839 0.96101 0.0
O501 O 0.34743 0.28954 0.91469 0.0
O502 O 0.37854 0.2679 0.93558 0.0
O503 O 0.31963 0.24437 0.94717 0.0
H504 H 0.3478 0.33637 0.96807 0.0
H505 H 0.39574 0.30385 0.98653 0.0
H506 H 0.36981 0.3712 0.9938 0.0
H507 H 0.41716 0.33944 0.0117 0.0
H508 H 0.28024 0.28944 0.88081 0.0
H509 H 0.3708 0.34037 0.90674 0.0
H510 H 0.29953 0.26642 0.89922 0.0
H511 H 0.35031 0.36211 0.88814 0.0
H512 H 0.43947 0.39639 0.94094 0.0
H513 H 0.46549 0.35209 0.90538 0.0
H514 H 0.24245 0.25937 0.96894 0.0
H515 H 0.28851 0.33797 0.94499 0.0
H516 H 0.3918 0.23328 0.92338 0.0
H517 H 0.41712 0.3036 0.95815 0.0
H518 H 0.43292 0.23396 0.93276 0.0
H519 H 0.45766 0.30297 0.9671 0.0
H520 H 0.31758 0.20194 0.96266 0.0
H521 H 0.28034 0.22967 0.92143 0.0
H522 H 0.28476 0.15621 0.95331 0.0
H523 H 0.24826 0.18347 0.91269 0.0
H524 H 0.34749 0.24789 0.03269 0.0
H525 H 0.37935 0.20711 0.99914 0.0
H526 H 0.31062 0.21128 0.85623 0.0
H527 H 0.3298 0.17006 0.90095 0.0
Li528 Li 0.66527 0.95421 0.72592 0.0
Li529 Li 0.62133 0.92704 0.73589 0.0
Li530 Li 0.6557 0.91549 0.74559 0.0
Li531 Li 0.63911 0.91191 0.71002 0.0
C532 C 0.66955 0.96824 0.76441 0.0
N533 N 0.70467 0.01316 0.78488 0.0
C534 C 0.66848 0.99132 0.76223 0.0
C535 C 0.68843 0.968 0.77706 0.0
C536 C 0.68644 0.01383 0.77268 0.0
C537 C 0.70601 0.99091 0.78728 0.0
C538 C 0.61535 0.949 0.70455 0.0
C539 C 0.57239 0.93757 0.69213 0.0
N540 N 0.57672 0.9617 0.69756 0.0
C541 C 0.6194 0.97372 0.70994 0.0
C542 C 0.5917 0.93081 0.69549 0.0
C543 C 0.59964 0.97977 0.70628 0.0
C544 C 0.68848 0.99916 0.702 0.0
N545 N 0.69258 0.98912 0.71917 0.0
C546 C 0.73517 0.02708 0.72297 0.0
C547 C 0.71554 0.0024 0.72956 0.0
C548 C 0.73116 0.03805 0.70546 0.0
C549 C 0.70744 0.02369 0.69494 0.0
H550 H 0.67067 0.98783 0.69345 0.0
H551 H 0.71889 0.99367 0.74272 0.0
C552 C 0.56657 0.90303 0.74175 0.0
N553 N 0.58972 0.92551 0.74483 0.0
C554 C 0.54287 0.90209 0.74581 0.0
C555 C 0.56724 0.94715 0.75702 0.0
C556 C 0.59048 0.94717 0.75278 0.0
C557 C 0.54298 0.92453 0.75317 0.0
H558 H 0.56646 0.88599 0.73567 0.0
H559 H 0.60911 0.96478 0.75511 0.0
C560 C 0.6996 0.94125 0.71202 0.0
N561 N 0.74889 0.97175 0.69551 0.0
C562 C 0.70228 0.94829 0.69166 0.0
C563 C 0.72194 0.94952 0.72396 0.0
C564 C 0.72739 0.96379 0.68361 0.0
C565 C 0.7467 0.96497 0.71533 0.0
C566 C 0.60621 0.86681 0.72825 0.0
C567 C 0.61248 0.84862 0.73618 0.0
C568 C 0.5866 0.85878 0.71358 0.0
C569 C 0.59929 0.8228 0.7291 0.0
C570 C 0.57389 0.8328 0.70686 0.0
N571 N 0.58046 0.8155 0.71469 0.0
C572 C 0.6576 0.89406 0.78349 0.0
C573 C 0.68154 0.88882 0.75686 0.0
C574 C 0.66285 0.87823 0.79614 0.0
N575 N 0.6667 0.89869 0.76421 0.0
C576 C 0.68703 0.87274 0.76888 0.0
C577 C 0.67717 0.86683 0.78864 0.0
H578 H 0.64549 0.90188 0.78877 0.0
H579 H 0.68809 0.89249 0.74135 0.0
C580 C 0.62698 0.90061 0.66856 0.0
N581 N 0.63405 0.89296 0.68565 0.0
C582 C 0.62416 0.88736 0.65043 0.0
C583 C 0.63609 0.85874 0.66786 0.0
C584 C 0.63897 0.87273 0.68557 0.0
C585 C 0.62868 0.86609 0.64997 0.0
H586 H 0.62392 0.91724 0.66892 0.0
H587 H 0.64531 0.86758 0.69927 0.0
O588 O 0.652 0.94591 0.75447 0.0
O589 O 0.6342 0.94246 0.70852 0.0
O590 O 0.6752 0.92672 0.7203 0.0
O591 O 0.61913 0.89228 0.73487 0.0
H592 H 0.65426 0.99201 0.75233 0.0
H593 H 0.68963 0.95039 0.77889 0.0
H594 H 0.68595 0.03186 0.77102 0.0
H595 H 0.72076 0.99101 0.79707 0.0
H596 H 0.55393 0.92361 0.68527 0.0
H597 H 0.63743 0.98797 0.71717 0.0
H598 H 0.58813 0.91156 0.6913 0.0
H599 H 0.60246 0.99876 0.7105 0.0
H600 H 0.75326 0.0374 0.73146 0.0
H601 H 0.70382 0.03099 0.68102 0.0
H602 H 0.52465 0.88406 0.74301 0.0
H603 H 0.56829 0.96497 0.76252 0.0
H604 H 0.68514 0.94213 0.68226 0.0
H605 H 0.72014 0.94437 0.73979 0.0
H606 H 0.72978 0.96957 0.66791 0.0
H607 H 0.76418 0.97167 0.72441 0.0
H608 H 0.6273 0.85427 0.7477 0.0
H609 H 0.58155 0.87254 0.70716 0.0
H610 H 0.60403 0.80857 0.73507 0.0
H611 H 0.55887 0.82643 0.69538 0.0
H612 H 0.65472 0.87391 0.81124 0.0
H613 H 0.69829 0.86445 0.76261 0.0
H614 H 0.61845 0.89364 0.63695 0.0
H615 H 0.64025 0.84278 0.66804 0.0
Li616 Li 0.72215 0.67016 0.88793 0.0
Li617 Li 0.70426 0.62498 0.89566 0.0
Li618 Li 0.74523 0.65916 0.91219 0.0
Li619 Li 0.7444 0.64866 0.87588 0.0
C620 C 0.69092 0.65861 0.92179 0.0
N621 N 0.65385 0.67023 0.93612 0.0
C622 C 0.6677 0.65057 0.91106 0.0
C623 C 0.69532 0.6725 0.93981 0.0
C624 C 0.64919 0.65666 0.91855 0.0
C625 C 0.67632 0.67819 0.94681 0.0
C626 C 0.69883 0.62151 0.85431 0.0
C627 C 0.69187 0.58016 0.84144 0.0
N628 N 0.67903 0.5826 0.82527 0.0
C629 C 0.68557 0.6236 0.83756 0.0
C630 C 0.70202 0.59961 0.85628 0.0
C631 C 0.6757 0.60372 0.82305 0.0
C632 C 0.71341 0.69799 0.85888 0.0
N633 N 0.71342 0.6958 0.87926 0.0
C634 C 0.70281 0.72984 0.8832 0.0
C635 C 0.70853 0.71143 0.89151 0.0
C636 C 0.70229 0.73221 0.86212 0.0
C637 C 0.70791 0.7161 0.84996 0.0
H638 H 0.71805 0.68581 0.84952 0.0
H639 H 0.70933 0.70989 0.90769 0.0
C640 C 0.67266 0.57529 0.91365 0.0
N641 N 0.67305 0.5923 0.89961 0.0
C642 C 0.65 0.55096 0.91648 0.0
C643 C 0.62873 0.5622 0.8903 0.0
C644 C 0.65165 0.58634 0.88812 0.0
C645 C 0.62772 0.54413 0.90459 0.0
H646 H 0.68998 0.58062 0.9226 0.0
H647 H 0.65238 0.60031 0.87719 0.0
C648 C 0.76941 0.7098 0.88942 0.0
N649 N 0.78537 0.76264 0.88973 0.0
C650 C 0.78071 0.72507 0.87221 0.0
C651 C 0.76634 0.72143 0.90682 0.0
C652 C 0.7886 0.75174 0.87266 0.0
C653 C 0.77454 0.74817 0.90667 0.0
C654 C 0.75831 0.62093 0.90366 0.0
C655 C 0.78416 0.64118 0.90086 0.0
C656 C 0.75351 0.59671 0.91107 0.0
C657 C 0.8048 0.63681 0.90552 0.0
C658 C 0.7747 0.5931 0.91553 0.0
N659 N 0.79969 0.61306 0.9127 0.0
C660 C 0.75647 0.65125 0.95208 0.0
C661 C 0.79065 0.6884 0.93558 0.0
C662 C 0.77264 0.65528 0.96872 0.0
N663 N 0.76582 0.6676 0.93591 0.0
C664 C 0.80735 0.69332 0.95194 0.0
C665 C 0.79855 0.6764 0.96865 0.0
H666 H 0.73675 0.63459 0.95172 0.0
H667 H 0.79786 0.7006 0.92228 0.0
C668 C 0.767 0.6632 0.83812 0.0
N669 N 0.76288 0.64603 0.85327 0.0
C670 C 0.77887 0.66222 0.8202 0.0
C671 C 0.78174 0.62556 0.83363 0.0
C672 C 0.76975 0.62724 0.85133 0.0
C673 C 0.78632 0.64314 0.81773 0.0
H674 H 0.76051 0.67733 0.83984 0.0
H675 H 0.76536 0.61312 0.86324 0.0
O676 O 0.7094 0.65307 0.91468 0.0
O677 O 0.70871 0.64101 0.86852 0.0
O678 O 0.76089 0.68349 0.88918 0.0
O679 O 0.73773 0.62485 0.89963 0.0
H680 H 0.66421 0.64014 0.89694 0.0
H681 H 0.71326 0.67889 0.94824 0.0
H682 H 0.63118 0.65069 0.91036 0.0
H683 H 0.67945 0.68897 0.96073 0.0
H684 H 0.69421 0.56313 0.84278 0.0
H685 H 0.68292 0.64041 0.8358 0.0
H686 H 0.71217 0.59754 0.86909 0.0
H687 H 0.66539 0.60509 0.81002 0.0
H688 H 0.69862 0.74187 0.89314 0.0
H689 H 0.70845 0.7177 0.83367 0.0
H690 H 0.65002 0.5375 0.9276 0.0
H691 H 0.61185 0.55787 0.88106 0.0
H692 H 0.78335 0.71647 0.85865 0.0
H693 H 0.7573 0.70982 0.92019 0.0
H694 H 0.79729 0.76378 0.85943 0.0
H695 H 0.77212 0.75738 0.91999 0.0
H696 H 0.78829 0.66007 0.89514 0.0
H697 H 0.73361 0.58087 0.91338 0.0
H698 H 0.8249 0.6523 0.90344 0.0
H699 H 0.77127 0.57445 0.92128 0.0
H700 H 0.76515 0.64178 0.98132 0.0
H701 H 0.82736 0.70947 0.95108 0.0
H702 H 0.78213 0.67625 0.8084 0.0
H703 H 0.78668 0.61021 0.83221 0.0
Li704 Li 0.07899 0.73188 0.0397 0.0
Li705 Li 0.07924 0.74125 0.07558 0.0
Li706 Li 0.06303 0.69531 0.06437 0.0
Li707 Li 0.03704 0.71699 0.05963 0.0
C708 C 0.11902 0.72322 0.05471 0.0
N709 N 0.15942 0.71631 0.04077 0.0
C710 C 0.14484 0.74033 0.06077 0.0
C711 C 0.11375 0.70246 0.04174 0.0
C712 C 0.16501 0.73656 0.0535 0.0
C713 C 0.13442 0.69931 0.03482 0.0
C714 C 0.07429 0.7786 0.05746 0.0
C715 C 0.07125 0.81161 0.0769 0.0
N716 N 0.09335 0.83051 0.06773 0.0
C717 C 0.0968 0.79835 0.04807 0.0
C718 C 0.06124 0.78526 0.07184 0.0
C719 C 0.10618 0.82448 0.05352 0.0
C720 C 0.08077 0.74069 0.99785 0.0
N721 N 0.09587 0.74545 0.01456 0.0
C722 C 0.13487 0.77154 0.99544 0.0
C723 C 0.12242 0.76068 0.01373 0.0
C724 C 0.11982 0.76692 0.97787 0.0
C725 C 0.0924 0.75119 0.97923 0.0
H726 H 0.05965 0.72885 0.99903 0.0
H727 H 0.13392 0.7649 0.02734 0.0
C728 C 0.09114 0.7688 0.11341 0.0
N729 N 0.09979 0.76769 0.09461 0.0
C730 C 0.10658 0.79008 0.12605 0.0
C731 C 0.13948 0.80818 0.09979 0.0
C732 C 0.12359 0.78656 0.0878 0.0
C733 C 0.13089 0.81031 0.11909 0.0
H734 H 0.07213 0.75346 0.11844 0.0
H735 H 0.1299 0.78511 0.07277 0.0
C736 C 0.03472 0.67745 0.02588 0.0
N737 N 0.01202 0.63684 0.9983 0.0
C738 C 0.00777 0.65958 0.02658 0.0
C739 C 0.05002 0.67489 0.01089 0.0
C740 C 0.9967 0.63911 0.01259 0.0
C741 C 0.03821 0.65418 0.99716 0.0
C742 C 0.0269 0.69796 0.0977 0.0
C743 C 0.01376 0.67115 0.10214 0.0
C744 C 0.01779 0.71388 0.10575 0.0
C745 C 0.99145 0.66064 0.11439 0.0
C746 C 0.9954 0.70262 0.11791 0.0
N747 N 0.98279 0.67646 0.12194 0.0
C748 C 0.08195 0.66351 0.0804 0.0
C749 C 0.04102 0.63998 0.0637 0.0
C750 C 0.08241 0.64035 0.08387 0.0
N751 N 0.0617 0.66296 0.07012 0.0
C752 C 0.04067 0.61638 0.06679 0.0
C753 C 0.0617 0.61637 0.0768 0.0
H754 H 0.09793 0.68202 0.08569 0.0
H755 H 0.0248 0.63992 0.05611 0.0
C756 C 0.0001 0.73052 0.0471 0.0
N757 N 0.00245 0.71163 0.05707 0.0
C758 C 0.97535 0.72685 0.04251 0.0
C759 C 0.95579 0.68468 0.05911 0.0
C760 C 0.98095 0.6891 0.06326 0.0
C761 C 0.95273 0.70346 0.04821 0.0
H762 H 0.01749 0.74804 0.04202 0.0
H763 H 0.98323 0.67408 0.07074 0.0
O764 O 0.0991 0.72678 0.06161 0.0
O765 O 0.06521 0.75286 0.05274 0.0
O766 O 0.04582 0.69781 0.03936 0.0
O767 O 0.04878 0.70858 0.08576 0.0
H768 H 0.14929 0.75638 0.07096 0.0
H769 H 0.09388 0.68869 0.03731 0.0
H770 H 0.18509 0.74972 0.05801 0.0
H771 H 0.13058 0.68328 0.02478 0.0
H772 H 0.06147 0.81704 0.08812 0.0
H773 H 0.10709 0.79353 0.03688 0.0
H774 H 0.04367 0.77022 0.07911 0.0
H775 H 0.12371 0.83996 0.04651 0.0
H776 H 0.15601 0.78401 0.99517 0.0
H777 H 0.08005 0.74698 0.96606 0.0
H778 H 0.09928 0.79107 0.14083 0.0
H779 H 0.15827 0.82316 0.09397 0.0
H780 H 0.99557 0.66127 0.03795 0.0
H781 H 0.07074 0.68887 0.00966 0.0
H782 H 0.97591 0.62504 0.01309 0.0
H783 H 0.04986 0.65196 0.98553 0.0
H784 H 0.02065 0.65859 0.09617 0.0
H785 H 0.02778 0.73466 0.10253 0.0
H786 H 0.98102 0.63991 0.11789 0.0
H787 H 0.98803 0.71468 0.12414 0.0
H788 H 0.09877 0.64122 0.09202 0.0
H789 H 0.02434 0.59842 0.06099 0.0
H790 H 0.97407 0.74168 0.03374 0.0
H791 H 0.93896 0.66646 0.06396 0.0
Li792 Li 0.33343 0.04624 0.21971 0.0
Li793 Li 0.37796 0.07247 0.22949 0.0
Li794 Li 0.344 0.08414 0.24079 0.0
Li795 Li 0.36015 0.08922 0.20504 0.0
C796 C 0.33099 0.03011 0.25782 0.0
N797 N 0.29828 0.98392 0.27789 0.0
C798 C 0.33256 0.00758 0.254 0.0
C799 C 0.31289 0.0292 0.27192 0.0
C800 C 0.3158 0.9844 0.26426 0.0
C801 C 0.29651 0.00564 0.28191 0.0
C802 C 0.38126 0.05002 0.19642 0.0
C803 C 0.42349 0.05916 0.18383 0.0
N804 N 0.41592 0.03331 0.18563 0.0
C805 C 0.3739 0.02353 0.19813 0.0
C806 C 0.40623 0.06797 0.18915 0.0
C807 C 0.39169 0.01547 0.19258 0.0
C808 C 0.30684 0.0056 0.1926 0.0
N809 N 0.30515 0.01237 0.2119 0.0
C810 C 0.26228 0.97471 0.21527 0.0
C811 C 0.28334 0.99753 0.22326 0.0
C812 C 0.26351 0.96752 0.19528 0.0
C813 C 0.2863 0.98313 0.18401 0.0
H814 H 0.32384 0.01819 0.18357 0.0
H815 H 0.28172 0.0039 0.23818 0.0
C816 C 0.43192 0.09681 0.23913 0.0
N817 N 0.40958 0.07322 0.23727 0.0
C818 C 0.45598 0.09806 0.24225 0.0
C819 C 0.43347 0.05069 0.24208 0.0
C820 C 0.40982 0.05039 0.23936 0.0
C821 C 0.45712 0.07477 0.24325 0.0
H822 H 0.43117 0.11471 0.23779 0.0
H823 H 0.3918 0.03189 0.23804 0.0
C824 C 0.29952 0.06089 0.20788 0.0
N825 N 0.24948 0.03198 0.19231 0.0
C826 C 0.29584 0.0565 0.18712 0.0
C827 C 0.27779 0.05078 0.22073 0.0
C828 C 0.27037 0.04176 0.17954 0.0
C829 C 0.25264 0.03618 0.21255 0.0
C830 C 0.39348 0.13285 0.22321 0.0
C831 C 0.38583 0.15063 0.22968 0.0
C832 C 0.41425 0.14105 0.20957 0.0
C833 C 0.39887 0.17625 0.22218 0.0
C834 C 0.42678 0.16682 0.20239 0.0
N835 N 0.41888 0.18373 0.20878 0.0
C836 C 0.34207 0.1041 0.2796 0.0
C837 C 0.31781 0.10967 0.25342 0.0
C838 C 0.33636 0.11919 0.29274 0.0
N839 N 0.33305 0.10004 0.2603 0.0
C840 C 0.31183 0.12496 0.26592 0.0
C841 C 0.32164 0.13038 0.28569 0.0
H842 H 0.35444 0.09643 0.28454 0.0
H843 H 0.31128 0.10645 0.2379 0.0
C844 C 0.37531 0.1046 0.16451 0.0
N845 N 0.36529 0.10937 0.18139 0.0
C846 C 0.37746 0.11816 0.14669 0.0
C847 C 0.35888 0.14126 0.16399 0.0
C848 C 0.35706 0.12722 0.18146 0.0
C849 C 0.36897 0.13663 0.14623 0.0
H850 H 0.38112 0.08987 0.16473 0.0
H851 H 0.3486 0.13013 0.19501 0.0
O852 O 0.34741 0.05309 0.24813 0.0
O853 O 0.36421 0.05836 0.20199 0.0
O854 O 0.32432 0.07454 0.21565 0.0
O855 O 0.38059 0.10751 0.23006 0.0
H856 H 0.34628 0.00788 0.24302 0.0
H857 H 0.31141 0.04644 0.27506 0.0
H858 H 0.31667 0.96677 0.26136 0.0
H859 H 0.28236 0.00462 0.29282 0.0
H860 H 0.44293 0.07288 0.17832 0.0
H861 H 0.35485 0.00937 0.20401 0.0
H862 H 0.41237 0.08855 0.18785 0.0
H863 H 0.3863 0.99507 0.19393 0.0
H864 H 0.24483 0.96344 0.22432 0.0
H865 H 0.28812 0.97824 0.16856 0.0
H866 H 0.47349 0.1171 0.24363 0.0
H867 H 0.43317 0.03216 0.2425 0.0
H868 H 0.3125 0.06409 0.177 0.0
H869 H 0.28037 0.05385 0.23686 0.0
H870 H 0.26721 0.03802 0.16352 0.0
H871 H 0.23563 0.02806 0.22231 0.0
H872 H 0.36995 0.14476 0.24031 0.0
H873 H 0.42047 0.1276 0.20441 0.0
H874 H 0.39307 0.19017 0.22699 0.0
H875 H 0.44275 0.17335 0.19171 0.0
H876 H 0.34442 0.12313 0.30785 0.0
H877 H 0.30026 0.1331 0.26 0.0
H878 H 0.38552 0.1141 0.13339 0.0
H879 H 0.35167 0.15496 0.16423 0.0
Li880 Li 0.29632 0.37083 0.3984 0.0
Li881 Li 0.27683 0.32606 0.38649 0.0
Li882 Li 0.26138 0.35571 0.37451 0.0
Li883 Li 0.25091 0.33859 0.40854 0.0
C884 C 0.31975 0.37404 0.36183 0.0
N885 N 0.36871 0.40573 0.34502 0.0
C886 C 0.33561 0.36352 0.35651 0.0
C887 C 0.3288 0.40067 0.35849 0.0
C888 C 0.36029 0.37987 0.34805 0.0
C889 C 0.35361 0.41637 0.35002 0.0
C890 C 0.30487 0.33871 0.42456 0.0
C891 C 0.32795 0.34026 0.45505 0.0
N892 N 0.34724 0.34018 0.4438 0.0
C893 C 0.32491 0.33864 0.41331 0.0
C894 C 0.30637 0.33952 0.4456 0.0
C895 C 0.34617 0.33939 0.4233 0.0
C896 C 0.32705 0.42046 0.41673 0.0
N897 N 0.32841 0.40076 0.40711 0.0
C898 C 0.37523 0.42615 0.40633 0.0
C899 C 0.35194 0.40288 0.40254 0.0
C900 C 0.37431 0.44712 0.41545 0.0
C901 C 0.34997 0.44396 0.42121 0.0
H902 H 0.30812 0.41822 0.42038 0.0
H903 H 0.35273 0.38699 0.39513 0.0
C904 C 0.28058 0.29536 0.35719 0.0
N905 N 0.2817 0.2982 0.37754 0.0
C906 C 0.28516 0.27665 0.34824 0.0
C907 C 0.29089 0.26321 0.38143 0.0
C908 C 0.28607 0.28223 0.38979 0.0
C909 C 0.29096 0.26062 0.36034 0.0
H910 H 0.27656 0.30806 0.34791 0.0
H911 H 0.28625 0.28454 0.40598 0.0
C912 C 0.25548 0.39077 0.39301 0.0
N913 N 0.23534 0.42073 0.37773 0.0
C914 C 0.22858 0.38171 0.39416 0.0
C915 C 0.27218 0.41517 0.38427 0.0
C916 C 0.21876 0.39712 0.3863 0.0
C917 C 0.26161 0.43 0.37658 0.0
C918 C 0.22331 0.29236 0.38611 0.0
C919 C 0.20312 0.27786 0.3724 0.0
C920 C 0.22645 0.27994 0.40298 0.0
C921 C 0.1863 0.25111 0.37584 0.0
C922 C 0.20923 0.25316 0.40588 0.0
N923 N 0.18968 0.23942 0.39236 0.0
C924 C 0.26248 0.37984 0.33692 0.0
C925 C 0.22023 0.35 0.34967 0.0
C926 C 0.25157 0.38341 0.31937 0.0
N927 N 0.24679 0.36319 0.35153 0.0
C928 C 0.20845 0.35297 0.33235 0.0
C929 C 0.22421 0.36956 0.31676 0.0
H930 H 0.28349 0.38993 0.33862 0.0
H931 H 0.20822 0.33672 0.36147 0.0
C932 C 0.23055 0.33129 0.44861 0.0
N933 N 0.22442 0.32699 0.42868 0.0
C934 C 0.21063 0.32309 0.46307 0.0
C935 C 0.17866 0.30624 0.43615 0.0
C936 C 0.19911 0.31486 0.42228 0.0
C937 C 0.18426 0.31032 0.45686 0.0
H938 H 0.25087 0.3413 0.45325 0.0
H939 H 0.19479 0.31222 0.40632 0.0
O940 O 0.29557 0.35831 0.37026 0.0
O941 O 0.28386 0.33799 0.41509 0.0
O942 O 0.26534 0.37561 0.40009 0.0
O943 O 0.23996 0.31855 0.38285 0.0
H944 H 0.32906 0.34301 0.359 0.0
H945 H 0.31703 0.40926 0.36277 0.0
H946 H 0.37278 0.37199 0.34393 0.0
H947 H 0.36091 0.43705 0.34752 0.0
H948 H 0.32936 0.34088 0.47134 0.0
H949 H 0.32417 0.33819 0.39703 0.0
H950 H 0.29104 0.33957 0.45457 0.0
H951 H 0.36184 0.33941 0.41476 0.0
H952 H 0.39376 0.42793 0.40184 0.0
H953 H 0.34866 0.45985 0.4283 0.0
H954 H 0.2843 0.27487 0.33196 0.0
H955 H 0.2952 0.25121 0.39132 0.0
H956 H 0.21537 0.36286 0.40083 0.0
H957 H 0.29307 0.42258 0.38338 0.0
H958 H 0.19795 0.39027 0.38696 0.0
H959 H 0.2743 0.44888 0.36969 0.0
H960 H 0.2005 0.2872 0.35924 0.0
H961 H 0.24198 0.29081 0.41374 0.0
H962 H 0.17057 0.23965 0.36536 0.0
H963 H 0.21142 0.24329 0.41886 0.0
H964 H 0.26445 0.39664 0.30786 0.0
H965 H 0.1873 0.34167 0.33089 0.0
H966 H 0.21579 0.3266 0.4789 0.0
H967 H 0.15867 0.29705 0.43065 0.0
Li968 Li 0.94834 0.27323 0.5543 0.0
Li969 Li 0.92706 0.29792 0.56193 0.0
Li970 Li 0.90952 0.25287 0.57555 0.0
Li971 Li 0.90603 0.26073 0.53854 0.0
C972 C 0.96679 0.30546 0.5888 0.0
N973 N 0.01277 0.34742 0.60309 0.0
C974 C 0.98438 0.32458 0.57549 0.0
C975 C 0.97256 0.30769 0.6094 0.0
C976 C 0.00752 0.34564 0.58299 0.0
C977 C 0.99592 0.32904 0.61633 0.0
C978 C 0.94729 0.31155 0.52046 0.0
C979 C 0.93695 0.33328 0.49417 0.0
N980 N 0.96298 0.34865 0.49013 0.0
C981 C 0.97393 0.32732 0.51583 0.0
C982 C 0.92864 0.31435 0.50937 0.0
C983 C 0.98146 0.34605 0.50054 0.0
C984 C 0.98405 0.27292 0.52773 0.0
N985 N 0.98054 0.27479 0.54777 0.0
C986 C 0.02206 0.27857 0.55516 0.0
C987 C 0.9988 0.27736 0.56155 0.0
C988 C 0.02612 0.27664 0.53449 0.0
C989 C 0.00671 0.27369 0.52073 0.0
H990 H 0.96911 0.27081 0.51716 0.0
H991 H 0.99535 0.2785 0.57745 0.0
C992 C 0.91475 0.33249 0.58174 0.0
N993 N 0.93116 0.33146 0.5678 0.0
C994 C 0.91523 0.35606 0.58551 0.0
C995 C 0.95016 0.37728 0.56107 0.0
C996 C 0.94901 0.35332 0.5578 0.0
C997 C 0.93286 0.37881 0.57489 0.0
H998 H 0.90089 0.31482 0.58961 0.0
H999 H 0.96216 0.3522 0.54704 0.0
C1000 C 0.92797 0.22216 0.54969 0.0
N1001 N 0.9528 0.19318 0.54534 0.0
C1002 C 0.93035 0.21349 0.53061 0.0
C1003 C 0.93801 0.21597 0.56658 0.0
C1004 C 0.94303 0.19889 0.52872 0.0
C1005 C 0.95055 0.20132 0.56406 0.0
C1006 C 0.86891 0.2714 0.55851 0.0
C1007 C 0.84436 0.25331 0.5664 0.0
C1008 C 0.87147 0.29238 0.54691 0.0
C1009 C 0.82271 0.25626 0.56224 0.0
C1010 C 0.84937 0.29469 0.54312 0.0
N1011 N 0.82563 0.27671 0.55077 0.0
C1012 C 0.89966 0.23118 0.61554 0.0
C1013 C 0.86688 0.20871 0.59072 0.0
C1014 C 0.88408 0.21282 0.63019 0.0
N1015 N 0.89066 0.22884 0.59632 0.0
C1016 C 0.85059 0.19022 0.60486 0.0
C1017 C 0.85905 0.19224 0.62491 0.0
H1018 H 0.91877 0.24735 0.61949 0.0
H1019 H 0.86052 0.20722 0.57522 0.0
C1020 C 0.89959 0.2497 0.49749 0.0
N1021 N 0.88594 0.24667 0.51476 0.0
C1022 C 0.88639 0.23931 0.47938 0.0
C1023 C 0.84523 0.22252 0.49722 0.0
C1024 C 0.85927 0.2333 0.51501 0.0
C1025 C 0.85883 0.22544 0.47908 0.0
H1026 H 0.92081 0.25997 0.49785 0.0
H1027 H 0.84887 0.2307 0.52902 0.0
O1028 O 0.94393 0.28469 0.58183 0.0
O1029 O 0.93961 0.29303 0.53537 0.0
O1030 O 0.91643 0.2372 0.55179 0.0
O1031 O 0.89029 0.26872 0.56245 0.0
H1032 H 0.98025 0.32315 0.55955 0.0
H1033 H 0.95912 0.29307 0.61992 0.0
H1034 H 0.0213 0.36056 0.57283 0.0
H1035 H 0.00064 0.331 0.63224 0.0
H1036 H 0.9227 0.33566 0.48551 0.0
H1037 H 0.98868 0.32522 0.524 0.0
H1038 H 0.90793 0.30179 0.5122 0.0
H1039 H 0.00201 0.3585 0.49691 0.0
H1040 H 0.03654 0.28073 0.56622 0.0
H1041 H 0.00924 0.27249 0.50465 0.0
H1042 H 0.90186 0.35641 0.59657 0.0
H1043 H 0.96394 0.39422 0.55242 0.0
H1044 H 0.92275 0.21824 0.51739 0.0
H1045 H 0.93642 0.2227 0.58144 0.0
H1046 H 0.94518 0.19218 0.51403 0.0
H1047 H 0.95857 0.19651 0.57697 0.0
H1048 H 0.84201 0.23711 0.5756 0.0
H1049 H 0.89036 0.30697 0.54115 0.0
H1050 H 0.80359 0.24232 0.56817 0.0
H1051 H 0.85111 0.31086 0.53417 0.0
H1052 H 0.89124 0.21497 0.64552 0.0
H1053 H 0.83162 0.17437 0.60012 0.0
H1054 H 0.89767 0.24158 0.46586 0.0
H1055 H 0.82399 0.21205 0.49766 0.0
H1056 H 0.02064 0.56737 0.08586 0.0
H1057 H 0.10847 0.49872 0.08707 0.0
H1058 H 0.10391 0.60872 0.0738 0.0
H1059 H 0.02377 0.45578 0.08884 0.0
H1060 H 0.10747 0.53951 0.08382 0.0
H1061 H 0.02171 0.5266 0.08891 0.0
C1062 C 0.03914 0.56789 0.08377 0.0
C1063 C 0.06221 0.59156 0.0795 0.0
C1064 C 0.0891 0.52115 0.08488 0.0
C1065 C 0.06361 0.54491 0.08322 0.0
C1066 C 0.08964 0.49781 0.0866 0.0
C1067 C 0.06616 0.4737 0.0882 0.0
C1068 C 0.06491 0.52047 0.08485 0.0
C1069 C 0.04238 0.47388 0.08793 0.0
C1070 C 0.03975 0.5446 0.0856 0.0
C1071 C 0.0857 0.59105 0.07736 0.0
N1072 N 0.04237 0.49688 0.08632 0.0
N1073 N 0.08578 0.5681 0.07922 0.0
H1074 H 0.57572 0.03006 0.25124 0.0
H1075 H 0.50488 0.11114 0.2271 0.0
H1076 H 0.61944 0.11464 0.24654 0.0
H1077 H 0.46822 0.04002 0.26265 0.0
H1078 H 0.54628 0.11105 0.22887 0.0
H1079 H 0.53504 0.03138 0.24956 0.0
C1080 C 0.57689 0.04895 0.24994 0.0
C1081 C 0.60125 0.07233 0.24932 0.0
C1082 C 0.52911 0.09556 0.23629 0.0
C1083 C 0.5545 0.07374 0.2468 0.0
C1084 C 0.50545 0.09564 0.23546 0.0
C1085 C 0.48278 0.07553 0.24475 0.0
C1086 C 0.53005 0.07497 0.24613 0.0
C1087 C 0.48486 0.05566 0.25488 0.0
C1088 C 0.55359 0.04961 0.2489 0.0
C1089 C 0.60125 0.09607 0.2469 0.0
N1090 N 0.508 0.05579 0.25516 0.0
N1091 N 0.57823 0.09617 0.24571 0.0
H1092 H 0.51958 0.5777 0.45846 0.0
H1093 H 0.40774 0.4771 0.38587 0.0
H1094 H 0.5084 0.60028 0.39905 0.0
H1095 H 0.39577 0.47473 0.45016 0.0
H1096 H 0.44849 0.51926 0.3897 0.0
H1097 H 0.47767 0.53642 0.45513 0.0
C1098 C 0.50827 0.57385 0.44471 0.0
C1099 C 0.51729 0.59222 0.42897 0.0
C1100 C 0.43689 0.50954 0.40295 0.0
C1101 C 0.46986 0.5453 0.42501 0.0
C1102 C 0.41381 0.48554 0.40079 0.0
C1103 C 0.39859 0.47263 0.41776 0.0
C1104 C 0.44504 0.52033 0.42226 0.0
C1105 C 0.40706 0.48426 0.43676 0.0
C1106 C 0.4844 0.55048 0.44288 0.0
C1107 C 0.50197 0.58655 0.41151 0.0
N1108 N 0.42995 0.50741 0.43856 0.0
N1109 N 0.47907 0.56341 0.40989 0.0
H1110 H 0.97523 0.54235 0.57936 0.0
H1111 H 0.89038 0.38561 0.57999 0.0
H1112 H 0.8923 0.49899 0.59263 0.0
H1113 H 0.97494 0.42902 0.57594 0.0
H1114 H 0.89043 0.42691 0.58346 0.0
H1115 H 0.9752 0.501 0.57654 0.0
C1116 C 0.95702 0.52416 0.58176 0.0
C1117 C 0.93373 0.52421 0.58629 0.0
C1118 C 0.90898 0.4274 0.58187 0.0
C1119 C 0.93353 0.47671 0.58286 0.0
C1120 C 0.90899 0.4038 0.58003 0.0
C1121 C 0.9327 0.40378 0.57769 0.0
C1122 C 0.93284 0.45124 0.58128 0.0
C1123 C 0.95616 0.42805 0.57743 0.0
C1124 C 0.95701 0.50053 0.58007 0.0
C1125 C 0.91065 0.49994 0.58885 0.0
N1126 N 0.95562 0.45077 0.57917 0.0
N1127 N 0.91114 0.4772 0.58712 0.0
H1128 H 0.52962 0.94737 0.78364 0.0
H1129 H 0.38684 0.90181 0.73878 0.0
H1130 H 0.49948 0.90223 0.72894 0.0
H1131 H 0.41972 0.95402 0.78971 0.0
H1132 H 0.42732 0.9002 0.7359 0.0
H1133 H 0.4888 0.94844 0.78713 0.0
C1134 C 0.51446 0.93772 0.77235 0.0
C1135 C 0.51801 0.92465 0.75599 0.0
C1136 C 0.42571 0.91203 0.7477 0.0
C1137 C 0.47115 0.92563 0.75998 0.0
C1138 C 0.40264 0.91309 0.74928 0.0
C1139 C 0.39989 0.92819 0.76445 0.0
C1140 C 0.44625 0.92611 0.76141 0.0
C1141 C 0.42085 0.94192 0.7779 0.0
C1142 C 0.49111 0.93825 0.77439 0.0
C1143 C 0.4975 0.91218 0.74198 0.0
N1144 N 0.44315 0.94058 0.77605 0.0
N1145 N 0.475 0.91301 0.74428 0.0
H1146 H 0.4857 0.41312 0.95192 0.0
H1147 H 0.59632 0.51054 0.87514 0.0
H1148 H 0.48576 0.39606 0.88862 0.0
H1149 H 0.60373 0.5194 0.93981 0.0
H1150 H 0.5551 0.46926 0.87959 0.0
H1151 H 0.52822 0.45297 0.94762 0.0
C1152 C 0.49465 0.41783 0.93709 0.0
C1153 C 0.48214 0.40134 0.92057 0.0
C1154 C 0.5658 0.48016 0.89281 0.0
C1155 C 0.53085 0.44684 0.91556 0.0
C1156 C 0.58924 0.50377 0.89028 0.0
C1157 C 0.60339 0.51846 0.90714 0.0
C1158 C 0.55628 0.47125 0.91234 0.0
C1159 C 0.59353 0.50861 0.92641 0.0
C1160 C 0.51899 0.44048 0.93468 0.0
C1161 C 0.4948 0.40815 0.90178 0.0
N1162 N 0.57048 0.4857 0.92849 0.0
N1163 N 0.5184 0.43048 0.89975 0.0
H1164 H 0.19168 0.37243 0.02642 0.0
H1165 H 0.20871 0.26891 0.95926 0.0
H1166 H 0.1293 0.29305 0.016 0.0
H1167 H 0.27234 0.34543 0.97583 0.0
H1168 H 0.17802 0.27909 0.97633 0.0
H1169 H 0.2201 0.36457 0.00421 0.0
C1170 C 0.18394 0.35334 0.01942 0.0
C1171 C 0.15815 0.33327 0.02327 0.0
C1172 C 0.19868 0.29372 0.97606 0.0
C1173 C 0.19059 0.32417 0.99768 0.0
C1174 C 0.21624 0.28789 0.96639 0.0
C1175 C 0.24322 0.30627 0.96619 0.0
C1176 C 0.20815 0.3181 0.98564 0.0
C1177 C 0.25173 0.33073 0.97537 0.0
C1178 C 0.20015 0.3489 0.00666 0.0
C1179 C 0.149 0.30912 0.0134 0.0
N1180 N 0.2343 0.33583 0.98482 0.0
N1181 N 0.16528 0.30517 0.00119 0.0
H1182 H 0.86538 0.15799 0.2194 0.0
H1183 H 0.92176 0.22334 0.11203 0.0
H1184 H 0.81794 0.13246 0.16545 0.0
H1185 H 0.96956 0.23324 0.16431 0.0
H1186 H 0.88292 0.1914 0.13098 0.0
H1187 H 0.9032 0.18716 0.19914 0.0
C1188 C 0.86293 0.15823 0.20323 0.0
C1189 C 0.8384 0.14236 0.19413 0.0
C1190 C 0.90198 0.20044 0.13819 0.0
C1191 C 0.88186 0.17649 0.17074 0.0
C1192 C 0.9241 0.2187 0.12743 0.0
C1193 C 0.94897 0.23089 0.13657 0.0
C1194 C 0.90477 0.19464 0.15828 0.0
C1195 C 0.9509 0.22407 0.15652 0.0
C1196 C 0.88459 0.17509 0.19165 0.0
C1197 C 0.83641 0.14437 0.17314 0.0
N1198 N 0.92912 0.20656 0.1667 0.0
N1199 N 0.85788 0.16116 0.16213 0.0
H1200 H 0.68861 0.81665 0.34222 0.0
H1201 H 0.66068 0.93581 0.33033 0.0
H1202 H 0.65263 0.84047 0.38793 0.0
H1203 H 0.71699 0.92846 0.29325 0.0
H1204 H 0.65132 0.89578 0.34803 0.0
H1205 H 0.6932 0.85275 0.32062 0.0
C1206 C 0.68153 0.82937 0.3476 0.0
C1207 C 0.67051 0.82587 0.36692 0.0
C1208 C 0.66566 0.90285 0.33597 0.0
C1209 C 0.67543 0.86673 0.34243 0.0
C1210 C 0.67109 0.92577 0.3259 0.0
C1211 C 0.68998 0.93578 0.3105 0.0
C1212 C 0.67908 0.88965 0.3306 0.0
C1213 C 0.70227 0.92145 0.30501 0.0
C1214 C 0.68423 0.84994 0.33536 0.0
C1215 C 0.66162 0.8428 0.37325 0.0
N1216 N 0.69674 0.89917 0.31517 0.0
N1217 N 0.66428 0.86247 0.36105 0.0
H1218 H 0.76563 0.69054 0.45824 0.0
H1219 H 0.844 0.70645 0.5606 0.0
H1220 H 0.76069 0.73023 0.51135 0.0
H1221 H 0.85323 0.66958 0.50743 0.0
H1222 H 0.81587 0.71808 0.54159 0.0
H1223 H 0.80033 0.68565 0.47459 0.0
C1224 C 0.77206 0.69849 0.47323 0.0
C1225 C 0.76001 0.71047 0.48357 0.0
C1226 C 0.82411 0.70758 0.53397 0.0
C1227 C 0.79944 0.7048 0.50238 0.0
C1228 C 0.84009 0.70083 0.54487 0.0
C1229 C 0.85064 0.68673 0.53563 0.0
C1230 C 0.81842 0.70002 0.51367 0.0
C1231 C 0.84542 0.68044 0.5151 0.0
C1232 C 0.79177 0.69559 0.48259 0.0
C1233 C 0.76901 0.72033 0.503 0.0
N1234 N 0.82942 0.68689 0.50483 0.0
N1235 N 0.78802 0.71712 0.5118 0.0
H1236 H 0.06268 0.79596 0.62343 0.0
H1237 H 0.18457 0.81462 0.68948 0.0
H1238 H 0.07895 0.7338 0.63722 0.0
H1239 H 0.16497 0.87549 0.68097 0.0
H1240 H 0.1494 0.78657 0.66631 0.0
H1241 H 0.1034 0.8271 0.64047 0.0
C1242 C 0.07488 0.78887 0.6299 0.0
C1243 C 0.06722 0.76214 0.629 0.0
C1244 C 0.15289 0.80614 0.66937 0.0
C1245 C 0.11391 0.79771 0.64842 0.0
C1246 C 0.17291 0.82212 0.68266 0.0
C1247 C 0.1775 0.84732 0.68736 0.0
C1248 C 0.1372 0.81532 0.66074 0.0
C1249 C 0.16216 0.85623 0.67774 0.0
C1250 C 0.09817 0.80669 0.63956 0.0
C1251 C 0.08409 0.7542 0.63734 0.0
N1252 N 0.14251 0.84014 0.66503 0.0
N1253 N 0.10648 0.77185 0.64682 0.0
H1254 H 0.30653 0.08153 0.78158 0.0
H1255 H 0.28645 0.13619 0.8863 0.0
H1256 H 0.2558 0.03259 0.82935 0.0
H1257 H 0.32966 0.18671 0.83658 0.0
H1258 H 0.27361 0.09806 0.86479 0.0
H1259 H 0.31397 0.12041 0.80054 0.0
C1260 C 0.29681 0.07896 0.79597 0.0
C1261 C 0.28053 0.05376 0.80389 0.0
C1262 C 0.28575 0.11745 0.85848 0.0
C1263 C 0.28899 0.09808 0.82565 0.0
C1264 C 0.29318 0.13921 0.8708 0.0
C1265 C 0.30936 0.16459 0.86325 0.0
C1266 C 0.29475 0.12101 0.83846 0.0
C1267 C 0.31715 0.16744 0.84296 0.0
C1268 C 0.30098 0.10114 0.80674 0.0
C1269 C 0.26823 0.05157 0.82251 0.0
N1270 N 0.30999 0.14587 0.8313 0.0
N1271 N 0.27289 0.07342 0.8328 0.0
H1272 H 0.67276 0.72545 0.82843 0.0
H1273 H 0.69187 0.86983 0.82837 0.0
H1274 H 0.7177 0.78268 0.87421 0.0
H1275 H 0.66863 0.81914 0.77629 0.0
H1276 H 0.69634 0.83656 0.84762 0.0
H1277 H 0.66565 0.75802 0.81141 0.0
C1278 C 0.68121 0.7449 0.8349 0.0
C1279 C 0.69619 0.75141 0.85264 0.0
C1280 C 0.6903 0.83281 0.83197 0.0
C1281 C 0.68776 0.7888 0.83331 0.0
C1282 C 0.68768 0.8517 0.82103 0.0
C1283 C 0.68013 0.84729 0.80068 0.0
C1284 C 0.68492 0.80927 0.82252 0.0
C1285 C 0.67493 0.82351 0.79185 0.0
C1286 C 0.67705 0.76347 0.8252 0.0
C1287 C 0.70596 0.77675 0.86061 0.0
N1288 N 0.67737 0.8054 0.80283 0.0
N1289 N 0.70168 0.79459 0.85083 0.0
H1290 H 0.83417 0.72181 0.98756 0.0
H1291 H 0.91163 0.65657 0.03524 0.0
H1292 H 0.80562 0.63855 0.98656 0.0
H1293 H 0.93375 0.73762 0.04491 0.0
H1294 H 0.87071 0.64888 0.02009 0.0
H1295 H 0.86882 0.72753 0.01089 0.0
C1296 C 0.83505 0.70471 0.99244 0.0
C1297 C 0.81715 0.6797 0.98499 0.0
C1298 C 0.88436 0.66829 0.02574 0.0
C1299 C 0.85681 0.68607 0.01157 0.0
C1300 C 0.90773 0.67268 0.03456 0.0
C1301 C 0.9264 0.69788 0.04124 0.0
C1302 C 0.87964 0.68927 0.02337 0.0
C1303 C 0.92026 0.71801 0.03958 0.0
C1304 C 0.85477 0.70795 0.00581 0.0
C1305 C 0.81894 0.65816 0.99199 0.0
N1306 N 0.89756 0.71334 0.03061 0.0
N1307 N 0.83865 0.66188 0.00468 0.0
H1308 H 0.23232 0.9182 0.21109 0.0
H1309 H 0.15568 0.86137 0.10703 0.0
H1310 H 0.24319 0.96468 0.15781 0.0
H1311 H 0.14314 0.8129 0.15936 0.0
H1312 H 0.18532 0.89994 0.12666 0.0
H1313 H 0.19701 0.87994 0.19378 0.0
C1314 C 0.22711 0.92039 0.19583 0.0
C1315 C 0.24094 0.94452 0.18575 0.0
C1316 C 0.17605 0.88093 0.13395 0.0
C1317 C 0.20079 0.901 0.1659 0.0
C1318 C 0.1592 0.85888 0.1227 0.0
C1319 C 0.14724 0.83388 0.13151 0.0
C1320 C 0.18116 0.87805 0.1542 0.0
C1321 C 0.15201 0.83185 0.152 0.0
C1322 C 0.20706 0.89856 0.18595 0.0
C1323 C 0.23346 0.9463 0.16599 0.0
N1324 N 0.16883 0.85365 0.16263 0.0
N1325 N 0.21403 0.92483 0.1567 0.0
H1326 H 0.30617 0.12589 0.32539 0.0
H1327 H 0.3211 0.2686 0.3269 0.0
H1328 H 0.32985 0.1782 0.27428 0.0
H1329 H 0.27651 0.21017 0.37206 0.0
H1330 H 0.3298 0.23718 0.30984 0.0
H1331 H 0.30025 0.15803 0.34508 0.0
C1332 C 0.31018 0.14415 0.31837 0.0
C1333 C 0.31823 0.14933 0.29815 0.0
C1334 C 0.3181 0.23117 0.32348 0.0
C1335 C 0.31177 0.18602 0.32046 0.0
C1336 C 0.313 0.24908 0.3332 0.0
C1337 C 0.29763 0.24189 0.35076 0.0
C1338 C 0.30793 0.2058 0.33138 0.0
C1339 C 0.28844 0.21656 0.35856 0.0
C1340 C 0.30672 0.16237 0.32955 0.0
C1341 C 0.32318 0.17323 0.28972 0.0
N1342 N 0.29362 0.19932 0.34874 0.0
N1343 N 0.31991 0.19066 0.30091 0.0
H1344 H 0.13703 0.26463 0.45736 0.0
H1345 H 0.07683 0.31198 0.54513 0.0
H1346 H 0.18198 0.33724 0.48994 0.0
H1347 H 0.03112 0.24538 0.50653 0.0
H1348 H 0.11697 0.31766 0.5292 0.0
H1349 H 0.09957 0.25361 0.47923 0.0
C1350 C 0.13905 0.27821 0.46919 0.0
C1351 C 0.16256 0.30208 0.47163 0.0
C1352 C 0.09816 0.30165 0.52437 0.0
C1353 C 0.11971 0.28953 0.49682 0.0
C1354 C 0.07529 0.2983 0.53354 0.0
C1355 C 0.05065 0.27837 0.52695 0.0
C1356 C 0.09631 0.28484 0.5086 0.0
C1357 C 0.04973 0.26129 0.5118 0.0
C1358 C 0.11768 0.27187 0.48173 0.0
C1359 C 0.16425 0.31863 0.48753 0.0
N1360 N 0.07219 0.26502 0.50306 0.0
N1361 N 0.143 0.31218 0.49939 0.0
H1362 H 0.80741 0.17556 0.6315 0.0
H1363 H 0.7844 0.05741 0.70332 0.0
H1364 H 0.87078 0.16491 0.65257 0.0
H1365 H 0.72483 0.07731 0.6894 0.0
H1366 H 0.81706 0.0979 0.68673 0.0
H1367 H 0.77745 0.14074 0.65414 0.0
C1368 C 0.815 0.16591 0.641 0.0
C1369 C 0.84151 0.17289 0.64004 0.0
C1370 C 0.79689 0.09352 0.6875 0.0
C1371 C 0.80732 0.13288 0.66599 0.0
C1372 C 0.77826 0.07047 0.69706 0.0
C1373 C 0.75177 0.0638 0.69753 0.0
C1374 C 0.78892 0.1099 0.67829 0.0
C1375 C 0.74491 0.08137 0.68901 0.0
C1376 C 0.79793 0.1461 0.654 0.0
C1377 C 0.85045 0.16007 0.65289 0.0
N1378 N 0.76329 0.10344 0.6796 0.0
N1379 N 0.8333 0.14042 0.66519 0.0
H1380 H 0.17908 0.37179 0.31119 0.0
H1381 H 0.18644 0.36914 0.19061 0.0
H1382 H 0.24209 0.37112 0.27835 0.0
H1383 H 0.12297 0.36944 0.22305 0.0
H1384 H 0.20809 0.37196 0.22266 0.0
H1385 H 0.15894 0.37256 0.27912 0.0
C1386 C 0.18869 0.37181 0.29725 0.0
C1387 C 0.21232 0.37137 0.29749 0.0
C1388 C 0.18946 0.37149 0.22278 0.0
C1389 C 0.18945 0.37239 0.26072 0.0
C1390 C 0.17715 0.37004 0.20446 0.0
C1391 C 0.1528 0.36899 0.20411 0.0
C1392 C 0.17737 0.37189 0.24095 0.0
C1393 C 0.14154 0.36981 0.22259 0.0
C1394 C 0.17724 0.37237 0.27894 0.0
C1395 C 0.22406 0.3718 0.27894 0.0
N1396 N 0.15388 0.37116 0.24025 0.0
N1397 N 0.21246 0.37218 0.26134 0.0
H1398 H 0.87002 0.24635 0.44097 0.0
H1399 H 0.75657 0.11658 0.38833 0.0
H1400 H 0.81508 0.17707 0.47382 0.0
H1401 H 0.81404 0.18439 0.35537 0.0
H1402 H 0.77595 0.13948 0.41991 0.0
H1403 H 0.84791 0.22506 0.40958 0.0
C1404 C 0.8533 0.22665 0.44159 0.0
C1405 C 0.84451 0.21342 0.46006 0.0
C1406 C 0.78426 0.14939 0.40578 0.0
C1407 C 0.81896 0.18897 0.42416 0.0
C1408 C 0.7733 0.13627 0.38773 0.0
C1409 C 0.7838 0.1485 0.36915 0.0
C1410 C 0.80594 0.17495 0.40529 0.0
C1411 C 0.80516 0.17426 0.36932 0.0
C1412 C 0.84061 0.21455 0.42366 0.0
C1413 C 0.82242 0.18811 0.45997 0.0
N1414 N 0.81559 0.18656 0.3871 0.0
N1415 N 0.8105 0.17666 0.44229 0.0
H1416 H 0.60509 0.8131 0.64368 0.0
H1417 H 0.65523 0.82692 0.53016 0.0
H1418 H 0.64754 0.88736 0.61279 0.0
H1419 H 0.59644 0.75325 0.55585 0.0
H1420 H 0.65394 0.84929 0.5607 0.0
H1421 H 0.60332 0.79059 0.61217 0.0
C1422 C 0.61403 0.82465 0.63025 0.0
C1423 C 0.62651 0.85212 0.63083 0.0
C1424 C 0.64122 0.82824 0.55961 0.0
C1425 C 0.6246 0.82656 0.59478 0.0
C1426 C 0.64181 0.81543 0.54209 0.0
C1427 C 0.6259 0.78807 0.54034 0.0
C1428 C 0.6248 0.81365 0.57564 0.0
C1429 C 0.60937 0.77427 0.55659 0.0
C1430 C 0.61289 0.8118 0.61226 0.0
C1431 C 0.63752 0.86613 0.61295 0.0
N1432 N 0.60936 0.78719 0.57359 0.0
N1433 N 0.63647 0.8532 0.59569 0.0
H1434 H 0.88367 0.62875 0.72599 0.0
H1435 H 0.77248 0.64826 0.77929 0.0
H1436 H 0.83106 0.64723 0.694 0.0
H1437 H 0.82712 0.63363 0.81226 0.0
H1438 H 0.79291 0.6464 0.74782 0.0
H1439 H 0.86249 0.62899 0.75768 0.0
C1440 C 0.86771 0.63291 0.72562 0.0
C1441 C 0.85914 0.63797 0.70727 0.0
C1442 C 0.80045 0.64358 0.76192 0.0
C1443 C 0.83467 0.63807 0.74348 0.0
C1444 C 0.78888 0.6448 0.77993 0.0
C1445 C 0.79822 0.6413 0.79848 0.0
C1446 C 0.82157 0.63882 0.76238 0.0
C1447 C 0.81916 0.63626 0.79831 0.0
C1448 C 0.85555 0.63292 0.74371 0.0
C1449 C 0.83811 0.64286 0.70771 0.0
N1450 N 0.83019 0.63526 0.78054 0.0
N1451 N 0.82666 0.64283 0.7255 0.0
H1452 H 0.16281 0.85111 0.86442 0.0
H1453 H 0.16547 0.77244 0.96214 0.0
H1454 H 0.22491 0.83438 0.87709 0.0
H1455 H 0.10349 0.78928 0.94926 0.0
H1456 H 0.18703 0.79407 0.93065 0.0
H1457 H 0.14029 0.82758 0.89505 0.0
C1458 C 0.17177 0.84256 0.87368 0.0
C1459 C 0.19587 0.84484 0.86821 0.0
C1460 C 0.16867 0.79296 0.93467 0.0
C1461 C 0.17003 0.81763 0.90326 0.0
C1462 C 0.15641 0.78073 0.95271 0.0
C1463 C 0.13265 0.77908 0.9584 0.0
C1464 C 0.15715 0.80374 0.92222 0.0
C1465 C 0.12162 0.78981 0.9454 0.0
C1466 C 0.15881 0.82899 0.89112 0.0
C1467 C 0.20627 0.83292 0.88061 0.0
N1468 N 0.13401 0.80175 0.92798 0.0
N1469 N 0.19334 0.81992 0.89758 0.0
H1470 H 0.35668 0.11577 0.1082 0.0
H1471 H 0.37963 0.24833 0.05605 0.0
H1472 H 0.3823 0.1881 0.14076 0.0
H1473 H 0.35248 0.17523 0.02425 0.0
H1474 H 0.38174 0.22706 0.08711 0.0
H1475 H 0.35662 0.13783 0.07709 0.0
C1476 C 0.36255 0.13638 0.10879 0.0
C1477 C 0.36957 0.15011 0.12714 0.0
C1478 C 0.37538 0.2157 0.07332 0.0
C1479 C 0.36915 0.17544 0.09153 0.0
C1480 C 0.37403 0.22779 0.05561 0.0
C1481 C 0.36585 0.21355 0.0375 0.0
C1482 C 0.36846 0.18914 0.07296 0.0
C1483 C 0.35923 0.18709 0.03778 0.0
C1484 C 0.36232 0.14893 0.09102 0.0
C1485 C 0.37648 0.17667 0.127 0.0
N1486 N 0.36063 0.17575 0.05522 0.0
N1487 N 0.37608 0.18846 0.10948 0.0
loop_
_geom_bond_atom_site_label_1
_geom_bond_atom_site_label_2
_geom_bond_distance
_geom_bond_site_symmetry_2
_ccdc_geom_bond_type
Li0 N17 1.990 . S
Li0 O60 1.956 . S
Li0 O61 1.970 . S
Li0 O62 1.961 . S
Li1 N25 1.990 . S
Li1 O60 1.970 . S
Li1 O61 1.956 . S
Li1 O63 1.961 . S
Li2 N47 1.990 . S
Li2 O60 1.961 . S
Li2 O62 1.956 . S
Li2 O63 1.970 . S
Li3 N53 1.990 . S
Li3 O61 1.961 . S
Li3 O62 1.970 . S
Li3 O63 1.956 . S
C4 C6 1.348 . S
C4 C7 1.356 . S
C4 O60 1.325 . S
N5 C8 1.314 . S
N5 C9 1.279 . S
C6 C4 1.348 . S
C6 C8 1.353 . S
C6 H64 0.929 . S
C7 C4 1.356 . S
C7 C9 1.358 . S
C7 H65 0.930 . S
C8 N5 1.314 . S
C8 C6 1.353 . S
C8 H66 0.930 . S
C9 N5 1.279 . S
C9 C7 1.358 . S
C9 H67 0.930 . S
C10 C13 1.348 . S
C10 C14 1.356 . S
C10 O61 1.325 . S
C11 N12 1.279 . S
C11 C14 1.358 . S
C11 H68 0.930 . S
N12 C11 1.279 . S
N12 C15 1.314 . S
C13 C10 1.348 . S
C13 C15 1.353 . S
C13 H69 0.929 . S
C14 C10 1.356 . S
C14 C11 1.358 . S
C14 H70 0.930 . S
C15 N12 1.314 . S
C15 C13 1.353 . S
C15 H71 0.930 . S
C16 N17 1.314 . S
C16 C21 1.353 . S
C16 H22 0.930 . S
N17 Li0 1.990 . S
N17 C16 1.314 . S
N17 C19 1.279 . S
C18 C19 1.358 . S
C18 C20 1.356 . S
C18 H72 0.930 . S
C19 N17 1.279 . S
C19 C18 1.358 . S
C19 H23 0.930 . S
C20 C18 1.356 . S
C20 C21 1.348 . S
C21 C16 1.353 . S
C21 C20 1.348 . S
C21 H73 0.929 . S
H22 C16 0.930 . S
H23 C19 0.930 . S
C24 N25 1.314 . S
C24 C26 1.353 . S
C24 H30 0.930 . S
N25 Li1 1.990 . S
N25 C24 1.314 . S
N25 C28 1.279 . S
C26 C24 1.353 . S
C26 C29 1.348 . S
C26 H74 0.929 . S
C27 C28 1.358 . S
C27 C29 1.356 . S
C27 H75 0.930 . S
C28 N25 1.279 . S
C28 C27 1.358 . S
C28 H31 0.930 . S
C29 C26 1.348 . S
C29 C27 1.356 . S
H30 C24 0.930 . S
H31 C28 0.930 . S
C32 C34 1.348 . S
C32 C35 1.356 . S
C32 O62 1.325 . S
N33 C36 1.314 . S
N33 C37 1.279 . S
C34 C32 1.348 . S
C34 C36 1.353 . S
C34 H76 0.929 . S
C35 C32 1.356 . S
C35 C37 1.358 . S
C35 H77 0.930 . S
C36 N33 1.314 . S
C36 C34 1.353 . S
C36 H78 0.930 . S
C37 N33 1.279 . S
C37 C35 1.358 . S
C37 H79 0.930 . S
C38 C39 1.348 . S
C38 C40 1.356 . S
C38 O63 1.325 . S
C39 C38 1.348 . S
C39 C41 1.353 . S
C39 H80 0.929 . S
C40 C38 1.356 . S
C40 C42 1.358 . S
C40 H81 0.930 . S
C41 C39 1.353 . S
C41 N43 1.314 . S
C41 H82 0.930 . S
C42 C40 1.358 . S
C42 N43 1.279 . S
C42 H83 0.930 . S
N43 C41 1.314 . S
N43 C42 1.279 . S
C44 C46 1.353 1_455 S
C44 N47 1.314 . S
C44 H50 0.930 . S
C45 N47 1.279 1_655 S
C45 C48 1.358 . S
C45 H51 0.930 . S
C46 C44 1.353 1_655 S
C46 C49 1.348 . S
C46 H84 0.929 . S
N47 Li2 1.990 . S
N47 C44 1.314 . S
N47 C45 1.279 1_455 S
C48 C45 1.358 . S
C48 C49 1.356 . S
C48 H85 0.930 . S
C49 C46 1.348 . S
C49 C48 1.356 . S
H50 C44 0.930 . S
H51 C45 0.930 . S
C52 N53 1.314 . S
C52 C54 1.353 . S
C52 H58 0.930 . S
N53 Li3 1.990 . S
N53 C52 1.314 . S
N53 C56 1.279 . S
C54 C52 1.353 . S
C54 C57 1.348 . S
C54 H86 0.929 . S
C55 C56 1.358 . S
C55 C57 1.356 . S
C55 H87 0.930 . S
C56 N53 1.279 . S
C56 C55 1.358 . S
C56 H59 0.930 . S
C57 C54 1.348 . S
C57 C55 1.356 . S
H58 C52 0.930 . S
H59 C56 0.930 . S
O60 Li0 1.956 . S
O60 Li1 1.970 . S
O60 Li2 1.961 . S
O60 C4 1.325 . S
O61 Li0 1.970 . S
O61 Li1 1.956 . S
O61 Li3 1.961 . S
O61 C10 1.325 . S
O62 Li0 1.961 . S
O62 Li2 1.956 . S
O62 Li3 1.970 . S
O62 C32 1.325 . S
O63 Li1 1.961 . S
O63 Li2 1.970 . S
O63 Li3 1.956 . S
O63 C38 1.325 . S
H64 C6 0.929 . S
H65 C7 0.930 . S
H66 C8 0.930 . S
H67 C9 0.930 . S
H68 C11 0.930 . S
H69 C13 0.929 . S
H70 C14 0.930 . S
H71 C15 0.930 . S
H72 C18 0.930 . S
H73 C21 0.929 . S
H74 C26 0.929 . S
H75 C27 0.930 . S
H76 C34 0.929 . S
H77 C35 0.930 . S
H78 C36 0.930 . S
H79 C37 0.930 . S
H80 C39 0.929 . S
H81 C40 0.930 . S
H82 C41 0.930 . S
H83 C42 0.930 . S
H84 C46 0.929 . S
H85 C48 0.930 . S
H86 C54 0.929 . S
H87 C55 0.930 . S
Li88 N105 1.990 . S
Li88 O148 1.956 . S
Li88 O149 1.970 . S
Li88 O150 1.961 . S
Li89 N113 1.990 . S
Li89 O148 1.970 . S
Li89 O149 1.956 . S
Li89 O151 1.961 . S
Li90 N135 1.990 . S
Li90 O148 1.961 . S
Li90 O150 1.956 . S
Li90 O151 1.970 . S
Li91 N141 1.990 . S
Li91 O149 1.961 . S
Li91 O150 1.970 . S
Li91 O151 1.956 . S
C92 C94 1.348 . S
C92 C95 1.356 . S
C92 O148 1.325 . S
N93 C96 1.314 . S
N93 C97 1.279 . S
C94 C92 1.348 . S
C94 C96 1.353 . S
C94 H152 0.929 . S
C95 C92 1.356 . S
C95 C97 1.358 . S
C95 H153 0.930 . S
C96 N93 1.314 . S
C96 C94 1.353 . S
C96 H154 0.930 . S
C97 N93 1.279 . S
C97 C95 1.358 . S
C97 H155 0.930 . S
C98 C101 1.348 . S
C98 C102 1.356 . S
C98 O149 1.325 . S
C99 N100 1.279 . S
C99 C102 1.358 . S
C99 H156 0.930 . S
N100 C99 1.279 . S
N100 C103 1.314 . S
C101 C98 1.348 . S
C101 C103 1.353 . S
C101 H157 0.929 . S
C102 C98 1.356 . S
C102 C99 1.358 . S
C102 H158 0.930 . S
C103 N100 1.314 . S
C103 C101 1.353 . S
C103 H159 0.930 . S
C104 N105 1.314 . S
C104 C109 1.353 . S
C104 H110 0.930 . S
N105 Li88 1.990 . S
N105 C104 1.314 . S
N105 C107 1.279 . S
C106 C107 1.358 . S
C106 C108 1.356 . S
C106 H160 0.930 . S
C107 N105 1.279 . S
C107 C106 1.358 . S
C107 H111 0.930 . S
C108 C106 1.356 . S
C108 C109 1.348 . S
C109 C104 1.353 . S
C109 C108 1.348 . S
C109 H161 0.929 . S
H110 C104 0.930 . S
H111 C107 0.930 . S
C112 N113 1.314 . S
C112 C114 1.353 . S
C112 H118 0.930 . S
N113 Li89 1.990 . S
N113 C112 1.314 . S
N113 C116 1.279 . S
C114 C112 1.353 . S
C114 C117 1.348 . S
C114 H162 0.929 . S
C115 C116 1.358 . S
C115 C117 1.356 . S
C115 H163 0.930 . S
C116 N113 1.279 . S
C116 C115 1.358 . S
C116 H119 0.930 . S
C117 C114 1.348 . S
C117 C115 1.356 . S
H118 C112 0.930 . S
H119 C116 0.930 . S
C120 C122 1.348 . S
C120 C123 1.356 . S
C120 O150 1.325 . S
N121 C124 1.314 . S
N121 C125 1.279 . S
C122 C120 1.348 . S
C122 C124 1.353 . S
C122 H164 0.929 . S
C123 C120 1.356 . S
C123 C125 1.358 . S
C123 H165 0.930 . S
C124 N121 1.314 . S
C124 C122 1.353 . S
C124 H166 0.930 . S
C125 N121 1.279 . S
C125 C123 1.358 . S
C125 H167 0.930 . S
C126 C127 1.348 . S
C126 C128 1.356 . S
C126 O151 1.325 . S
C127 C126 1.348 . S
C127 C129 1.353 . S
C127 H168 0.929 . S
C128 C126 1.356 . S
C128 C130 1.358 . S
C128 H169 0.930 . S
C129 C127 1.353 . S
C129 N131 1.314 . S
C129 H170 0.930 . S
C130 C128 1.358 . S
C130 N131 1.279 . S
C130 H171 0.930 . S
N131 C129 1.314 . S
N131 C130 1.279 . S
C132 C134 1.353 1_545 S
C132 N135 1.314 . S
C132 H138 0.930 . S
C133 N135 1.279 1_565 S
C133 C136 1.358 . S
C133 H139 0.930 . S
C134 C132 1.353 1_565 S
C134 C137 1.348 . S
C134 H172 0.929 . S
N135 Li90 1.990 . S
N135 C132 1.314 . S
N135 C133 1.279 1_545 S
C136 C133 1.358 . S
C136 C137 1.356 . S
C136 H173 0.930 . S
C137 C134 1.348 . S
C137 C136 1.356 . S
H138 C132 0.930 . S
H139 C133 0.930 . S
C140 N141 1.314 . S
C140 C142 1.353 . S
C140 H146 0.930 . S
N141 Li91 1.990 . S
N141 C140 1.314 . S
N141 C144 1.279 . S
C142 C140 1.353 . S
C142 C145 1.348 . S
C142 H174 0.929 . S
C143 C144 1.358 . S
C143 C145 1.356 . S
C143 H175 0.930 . S
C144 N141 1.279 . S
C144 C143 1.358 . S
C144 H147 0.930 . S
C145 C142 1.348 . S
C145 C143 1.356 . S
H146 C140 0.930 . S
H147 C144 0.930 . S
O148 Li88 1.956 . S
O148 Li89 1.970 . S
O148 Li90 1.961 . S
O148 C92 1.325 . S
O149 Li88 1.970 . S
O149 Li89 1.956 . S
O149 Li91 1.961 . S
O149 C98 1.325 . S
O150 Li88 1.961 . S
O150 Li90 1.956 . S
O150 Li91 1.970 . S
O150 C120 1.325 . S
O151 Li89 1.961 . S
O151 Li90 1.970 . S
O151 Li91 1.956 . S
O151 C126 1.325 . S
H152 C94 0.929 . S
H153 C95 0.930 . S
H154 C96 0.930 . S
H155 C97 0.930 . S
H156 C99 0.930 . S
H157 C101 0.929 . S
H158 C102 0.930 . S
H159 C103 0.930 . S
H160 C106 0.930 . S
H161 C109 0.929 . S
H162 C114 0.929 . S
H163 C115 0.930 . S
H164 C122 0.929 . S
H165 C123 0.930 . S
H166 C124 0.930 . S
H167 C125 0.930 . S
H168 C127 0.929 . S
H169 C128 0.930 . S
H170 C129 0.930 . S
H171 C130 0.930 . S
H172 C134 0.929 . S
H173 C136 0.930 . S
H174 C142 0.929 . S
H175 C143 0.930 . S
Li176 N193 1.990 . S
Li176 O236 1.956 . S
Li176 O237 1.970 . S
Li176 O238 1.961 . S
Li177 N201 1.990 . S
Li177 O236 1.970 . S
Li177 O237 1.956 . S
Li177 O239 1.961 . S
Li178 N223 1.990 . S
Li178 O236 1.961 . S
Li178 O238 1.956 . S
Li178 O239 1.970 . S
Li179 N229 1.990 . S
Li179 O237 1.961 . S
Li179 O238 1.970 . S
Li179 O239 1.956 . S
C180 C182 1.348 . S
C180 C183 1.356 . S
C180 O236 1.325 . S
N181 C184 1.314 . S
N181 C185 1.279 . S
C182 C180 1.348 . S
C182 C184 1.353 . S
C182 H240 0.929 . S
C183 C180 1.356 . S
C183 C185 1.358 . S
C183 H241 0.930 . S
C184 N181 1.314 . S
C184 C182 1.353 . S
C184 H242 0.930 . S
C185 N181 1.279 . S
C185 C183 1.358 . S
C185 H243 0.930 . S
C186 C189 1.348 . S
C186 C190 1.356 . S
C186 O237 1.325 . S
C187 N188 1.279 . S
C187 C190 1.358 . S
C187 H244 0.930 . S
N188 C187 1.279 . S
N188 C191 1.314 . S
C189 C186 1.348 . S
C189 C191 1.353 . S
C189 H245 0.929 . S
C190 C186 1.356 . S
C190 C187 1.358 . S
C190 H246 0.930 . S
C191 N188 1.314 . S
C191 C189 1.353 . S
C191 H247 0.930 . S
C192 N193 1.314 . S
C192 C197 1.353 . S
C192 H198 0.930 . S
N193 Li176 1.990 . S
N193 C192 1.314 . S
N193 C195 1.279 . S
C194 C195 1.358 . S
C194 C196 1.356 . S
C194 H248 0.930 . S
C195 N193 1.279 . S
C195 C194 1.358 . S
C195 H199 0.930 . S
C196 C194 1.356 . S
C196 C197 1.348 . S
C197 C192 1.353 . S
C197 C196 1.348 . S
C197 H249 0.929 . S
H198 C192 0.930 . S
H199 C195 0.930 . S
C200 N201 1.314 . S
C200 C202 1.353 . S
C200 H206 0.930 . S
N201 Li177 1.990 . S
N201 C200 1.314 . S
N201 C204 1.279 . S
C202 C200 1.353 . S
C202 C205 1.348 . S
C202 H250 0.929 . S
C203 C204 1.358 . S
C203 C205 1.356 . S
C203 H251 0.930 . S
C204 N201 1.279 . S
C204 C203 1.358 . S
C204 H207 0.930 . S
C205 C202 1.348 . S
C205 C203 1.356 . S
H206 C200 0.930 . S
H207 C204 0.930 . S
C208 C210 1.348 . S
C208 C211 1.356 . S
C208 O238 1.325 . S
N209 C212 1.314 . S
N209 C213 1.279 . S
C210 C208 1.348 . S
C210 C212 1.353 . S
C210 H252 0.929 . S
C211 C208 1.356 . S
C211 C213 1.358 . S
C211 H253 0.930 . S
C212 N209 1.314 . S
C212 C210 1.353 . S
C212 H254 0.930 . S
C213 N209 1.279 . S
C213 C211 1.358 . S
C213 H255 0.930 . S
C214 C215 1.348 . S
C214 C216 1.356 . S
C214 O239 1.325 . S
C215 C214 1.348 . S
C215 C217 1.353 . S
C215 H256 0.929 . S
C216 C214 1.356 . S
C216 C218 1.358 . S
C216 H257 0.930 . S
C217 C215 1.353 . S
C217 N219 1.314 . S
C217 H258 0.930 . S
C218 C216 1.358 . S
C218 N219 1.279 . S
C218 H259 0.930 . S
N219 C217 1.314 . S
N219 C218 1.279 . S
C220 C222 1.353 . S
C220 N223 1.314 . S
C220 H226 0.930 . S
C221 N223 1.279 . S
C221 C224 1.358 . S
C221 H227 0.930 . S
C222 C220 1.353 . S
C222 C225 1.348 . S
C222 H260 0.929 . S
N223 Li178 1.990 . S
N223 C220 1.314 . S
N223 C221 1.279 . S
C224 C221 1.358 . S
C224 C225 1.356 . S
C224 H261 0.930 . S
C225 C222 1.348 . S
C225 C224 1.356 . S
H226 C220 0.930 . S
H227 C221 0.930 . S
C228 N229 1.314 . S
C228 C230 1.353 . S
C228 H234 0.930 . S
N229 Li179 1.990 . S
N229 C228 1.314 . S
N229 C232 1.279 . S
C230 C228 1.353 . S
C230 C233 1.348 . S
C230 H262 0.929 . S
C231 C232 1.358 . S
C231 C233 1.356 . S
C231 H263 0.930 . S
C232 N229 1.279 . S
C232 C231 1.358 . S
C232 H235 0.930 . S
C233 C230 1.348 . S
C233 C231 1.356 . S
H234 C228 0.930 . S
H235 C232 0.930 . S
O236 Li176 1.956 . S
O236 Li177 1.970 . S
O236 Li178 1.961 . S
O236 C180 1.325 . S
O237 Li176 1.970 . S
O237 Li177 1.956 . S
O237 Li179 1.961 . S
O237 C186 1.325 . S
O238 Li176 1.961 . S
O238 Li178 1.956 . S
O238 Li179 1.970 . S
O238 C208 1.325 . S
O239 Li177 1.961 . S
O239 Li178 1.970 . S
O239 Li179 1.956 . S
O239 C214 1.325 . S
H240 C182 0.929 . S
H241 C183 0.930 . S
H242 C184 0.930 . S
H243 C185 0.930 . S
H244 C187 0.930 . S
H245 C189 0.929 . S
H246 C190 0.930 . S
H247 C191 0.930 . S
H248 C194 0.930 . S
H249 C197 0.929 . S
H250 C202 0.929 . S
H251 C203 0.930 . S
H252 C210 0.929 . S
H253 C211 0.930 . S
H254 C212 0.930 . S
H255 C213 0.930 . S
H256 C215 0.929 . S
H257 C216 0.930 . S
H258 C217 0.930 . S
H259 C218 0.930 . S
H260 C222 0.929 . S
H261 C224 0.930 . S
H262 C230 0.929 . S
H263 C231 0.930 . S
Li264 N281 1.990 . S
Li264 O324 1.956 . S
Li264 O325 1.970 . S
Li264 O326 1.961 . S
Li265 N289 1.990 . S
Li265 O324 1.970 . S
Li265 O325 1.956 . S
Li265 O327 1.961 . S
Li266 N311 1.990 . S
Li266 O324 1.961 . S
Li266 O326 1.956 . S
Li266 O327 1.970 . S
Li267 N317 1.990 . S
Li267 O325 1.961 . S
Li267 O326 1.970 . S
Li267 O327 1.956 . S
C268 C270 1.348 . S
C268 C271 1.356 . S
C268 O324 1.325 . S
N269 C272 1.314 . S
N269 C273 1.279 . S
C270 C268 1.348 . S
C270 C272 1.353 . S
C270 H328 0.929 . S
C271 C268 1.356 . S
C271 C273 1.358 . S
C271 H329 0.930 . S
C272 N269 1.314 . S
C272 C270 1.353 . S
C272 H330 0.930 . S
C273 N269 1.279 . S
C273 C271 1.358 . S
C273 H331 0.930 . S
C274 C277 1.348 . S
C274 C278 1.356 . S
C274 O325 1.325 . S
C275 N276 1.279 . S
C275 C278 1.358 . S
C275 H332 0.930 . S
N276 C275 1.279 . S
N276 C279 1.314 . S
C277 C274 1.348 . S
C277 C279 1.353 . S
C277 H333 0.929 . S
C278 C274 1.356 . S
C278 C275 1.358 . S
C278 H334 0.930 . S
C279 N276 1.314 . S
C279 C277 1.353 . S
C279 H335 0.930 . S
C280 N281 1.314 . S
C280 C285 1.353 1_655 S
C280 H286 0.930 . S
N281 Li264 1.990 . S
N281 C280 1.314 . S
N281 C283 1.279 1_655 S
C282 C283 1.358 . S
C282 C284 1.356 . S
C282 H336 0.930 . S
C283 N281 1.279 1_455 S
C283 C282 1.358 . S
C283 H287 0.930 . S
C284 C282 1.356 . S
C284 C285 1.348 . S
C285 C280 1.353 1_455 S
C285 C284 1.348 . S
C285 H337 0.929 . S
H286 C280 0.930 . S
H287 C283 0.930 . S
C288 N289 1.314 . S
C288 C290 1.353 . S
C288 H294 0.930 . S
N289 Li265 1.990 . S
N289 C288 1.314 . S
N289 C292 1.279 . S
C290 C288 1.353 . S
C290 C293 1.348 . S
C290 H338 0.929 . S
C291 C292 1.358 . S
C291 C293 1.356 . S
C291 H339 0.930 . S
C292 N289 1.279 . S
C292 C291 1.358 . S
C292 H295 0.930 . S
C293 C290 1.348 . S
C293 C291 1.356 . S
H294 C288 0.930 . S
H295 C292 0.930 . S
C296 C298 1.348 . S
C296 C299 1.356 . S
C296 O326 1.325 . S
N297 C300 1.314 . S
N297 C301 1.279 . S
C298 C296 1.348 . S
C298 C300 1.353 . S
C298 H340 0.929 . S
C299 C296 1.356 . S
C299 C301 1.358 . S
C299 H341 0.930 . S
C300 N297 1.314 . S
C300 C298 1.353 . S
C300 H342 0.930 . S
C301 N297 1.279 . S
C301 C299 1.358 . S
C301 H343 0.930 . S
C302 C303 1.348 . S
C302 C304 1.356 . S
C302 O327 1.325 . S
C303 C302 1.348 . S
C303 C305 1.353 . S
C303 H344 0.929 . S
C304 C302 1.356 . S
C304 C306 1.358 . S
C304 H345 0.930 . S
C305 C303 1.353 . S
C305 N307 1.314 . S
C305 H346 0.930 . S
C306 C304 1.358 . S
C306 N307 1.279 . S
C306 H347 0.930 . S
N307 C305 1.314 . S
N307 C306 1.279 . S
C308 C310 1.353 . S
C308 N311 1.314 . S
C308 H314 0.930 . S
C309 N311 1.279 . S
C309 C312 1.358 . S
C309 H315 0.930 . S
C310 C308 1.353 . S
C310 C313 1.348 . S
C310 H348 0.929 . S
N311 Li266 1.990 . S
N311 C308 1.314 . S
N311 C309 1.279 . S
C312 C309 1.358 . S
C312 C313 1.356 . S
C312 H349 0.930 . S
C313 C310 1.348 . S
C313 C312 1.356 . S
H314 C308 0.930 . S
H315 C309 0.930 . S
C316 N317 1.314 . S
C316 C318 1.353 . S
C316 H322 0.930 . S
N317 Li267 1.990 . S
N317 C316 1.314 . S
N317 C320 1.279 . S
C318 C316 1.353 . S
C318 C321 1.348 . S
C318 H350 0.929 . S
C319 C320 1.358 . S
C319 C321 1.356 . S
C319 H351 0.930 . S
C320 N317 1.279 . S
C320 C319 1.358 . S
C320 H323 0.930 . S
C321 C318 1.348 . S
C321 C319 1.356 . S
H322 C316 0.930 . S
H323 C320 0.930 . S
O324 Li264 1.956 . S
O324 Li265 1.970 . S
O324 Li266 1.961 . S
O324 C268 1.325 . S
O325 Li264 1.970 . S
O325 Li265 1.956 . S
O325 Li267 1.961 . S
O325 C274 1.325 . S
O326 Li264 1.961 . S
O326 Li266 1.956 . S
O326 Li267 1.970 . S
O326 C296 1.325 . S
O327 Li265 1.961 . S
O327 Li266 1.970 . S
O327 Li267 1.956 . S
O327 C302 1.325 . S
H328 C270 0.929 . S
H329 C271 0.930 . S
H330 C272 0.930 . S
H331 C273 0.930 . S
H332 C275 0.930 . S
H333 C277 0.929 . S
H334 C278 0.930 . S
H335 C279 0.930 . S
H336 C282 0.930 . S
H337 C285 0.929 . S
H338 C290 0.929 . S
H339 C291 0.930 . S
H340 C298 0.929 . S
H341 C299 0.930 . S
H342 C300 0.930 . S
H343 C301 0.930 . S
H344 C303 0.929 . S
H345 C304 0.930 . S
H346 C305 0.930 . S
H347 C306 0.930 . S
H348 C310 0.929 . S
H349 C312 0.930 . S
H350 C318 0.929 . S
H351 C319 0.930 . S
Li352 N369 1.990 . S
Li352 O412 1.956 . S
Li352 O413 1.970 . S
Li352 O414 1.961 . S
Li353 N377 1.990 . S
Li353 O412 1.970 . S
Li353 O413 1.956 . S
Li353 O415 1.961 . S
Li354 N399 1.990 . S
Li354 O412 1.961 . S
Li354 O414 1.956 . S
Li354 O415 1.970 . S
Li355 N405 1.990 . S
Li355 O413 1.961 . S
Li355 O414 1.970 . S
Li355 O415 1.956 . S
C356 C358 1.348 . S
C356 C359 1.356 . S
C356 O412 1.325 . S
N357 C360 1.314 . S
N357 C361 1.279 . S
C358 C356 1.348 . S
C358 C360 1.353 . S
C358 H416 0.929 . S
C359 C356 1.356 . S
C359 C361 1.358 . S
C359 H417 0.930 . S
C360 N357 1.314 . S
C360 C358 1.353 . S
C360 H418 0.930 . S
C361 N357 1.279 . S
C361 C359 1.358 . S
C361 H419 0.930 . S
C362 C365 1.348 . S
C362 C366 1.356 . S
C362 O413 1.325 . S
C363 N364 1.279 . S
C363 C366 1.358 . S
C363 H420 0.930 . S
N364 C363 1.279 . S
N364 C367 1.314 . S
C365 C362 1.348 . S
C365 C367 1.353 . S
C365 H421 0.929 . S
C366 C362 1.356 . S
C366 C363 1.358 . S
C366 H422 0.930 . S
C367 N364 1.314 . S
C367 C365 1.353 . S
C367 H423 0.930 . S
C368 N369 1.314 . S
C368 C373 1.353 . S
C368 H374 0.930 . S
N369 Li352 1.990 . S
N369 C368 1.314 . S
N369 C371 1.279 . S
C370 C371 1.358 . S
C370 C372 1.356 . S
C370 H424 0.930 . S
C371 N369 1.279 . S
C371 C370 1.358 . S
C371 H375 0.930 . S
C372 C370 1.356 . S
C372 C373 1.348 . S
C373 C368 1.353 . S
C373 C372 1.348 . S
C373 H425 0.929 . S
H374 C368 0.930 . S
H375 C371 0.930 . S
C376 N377 1.314 . S
C376 C378 1.353 1_565 S
C376 H382 0.930 . S
N377 Li353 1.990 . S
N377 C376 1.314 . S
N377 C380 1.279 1_565 S
C378 C376 1.353 1_545 S
C378 C381 1.348 . S
C378 H426 0.929 . S
C379 C380 1.358 . S
C379 C381 1.356 . S
C379 H427 0.930 . S
C380 N377 1.279 1_545 S
C380 C379 1.358 . S
C380 H383 0.930 . S
C381 C378 1.348 . S
C381 C379 1.356 . S
H382 C376 0.930 . S
H383 C380 0.930 . S
C384 C386 1.348 . S
C384 C387 1.356 . S
C384 O414 1.325 . S
N385 C388 1.314 . S
N385 C389 1.279 . S
C386 C384 1.348 . S
C386 C388 1.353 . S
C386 H428 0.929 . S
C387 C384 1.356 . S
C387 C389 1.358 . S
C387 H429 0.930 . S
C388 N385 1.314 . S
C388 C386 1.353 . S
C388 H430 0.930 . S
C389 N385 1.279 . S
C389 C387 1.358 . S
C389 H431 0.930 . S
C390 C391 1.348 . S
C390 C392 1.356 . S
C390 O415 1.325 . S
C391 C390 1.348 . S
C391 C393 1.353 . S
C391 H432 0.929 . S
C392 C390 1.356 . S
C392 C394 1.358 . S
C392 H433 0.930 . S
C393 C391 1.353 . S
C393 N395 1.314 . S
C393 H434 0.930 . S
C394 C392 1.358 . S
C394 N395 1.279 . S
C394 H435 0.930 . S
N395 C393 1.314 . S
N395 C394 1.279 . S
C396 C398 1.353 . S
C396 N399 1.314 . S
C396 H402 0.930 . S
C397 N399 1.279 . S
C397 C400 1.358 . S
C397 H403 0.930 . S
C398 C396 1.353 . S
C398 C401 1.348 . S
C398 H436 0.929 . S
N399 Li354 1.990 . S
N399 C396 1.314 . S
N399 C397 1.279 . S
C400 C397 1.358 . S
C400 C401 1.356 . S
C400 H437 0.930 . S
C401 C398 1.348 . S
C401 C400 1.356 . S
H402 C396 0.930 . S
H403 C397 0.930 . S
C404 N405 1.314 . S
C404 C406 1.353 . S
C404 H410 0.930 . S
N405 Li355 1.990 . S
N405 C404 1.314 . S
N405 C408 1.279 . S
C406 C404 1.353 . S
C406 C409 1.348 . S
C406 H438 0.929 . S
C407 C408 1.358 . S
C407 C409 1.356 . S
C407 H439 0.930 . S
C408 N405 1.279 . S
C408 C407 1.358 . S
C408 H411 0.930 . S
C409 C406 1.348 . S
C409 C407 1.356 . S
H410 C404 0.930 . S
H411 C408 0.930 . S
O412 Li352 1.956 . S
O412 Li353 1.970 . S
O412 Li354 1.961 . S
O412 C356 1.325 . S
O413 Li352 1.970 . S
O413 Li353 1.956 . S
O413 Li355 1.961 . S
O413 C362 1.325 . S
O414 Li352 1.961 . S
O414 Li354 1.956 . S
O414 Li355 1.970 . S
O414 C384 1.325 . S
O415 Li353 1.961 . S
O415 Li354 1.970 . S
O415 Li355 1.956 . S
O415 C390 1.325 . S
H416 C358 0.929 . S
H417 C359 0.930 . S
H418 C360 0.930 . S
H419 C361 0.930 . S
H420 C363 0.930 . S
H421 C365 0.929 . S
H422 C366 0.930 . S
H423 C367 0.930 . S
H424 C370 0.930 . S
H425 C373 0.929 . S
H426 C378 0.929 . S
H427 C379 0.930 . S
H428 C386 0.929 . S
H429 C387 0.930 . S
H430 C388 0.930 . S
H431 C389 0.930 . S
H432 C391 0.929 . S
H433 C392 0.930 . S
H434 C393 0.930 . S
H435 C394 0.930 . S
H436 C398 0.929 . S
H437 C400 0.930 . S
H438 C406 0.929 . S
H439 C407 0.930 . S
Li440 N457 1.990 . S
Li440 O500 1.956 . S
Li440 O501 1.970 . S
Li440 O502 1.961 . S
Li441 N465 1.990 . S
Li441 O500 1.970 . S
Li441 O501 1.956 . S
Li441 O503 1.961 . S
Li442 N487 1.990 . S
Li442 O500 1.961 . S
Li442 O502 1.956 . S
Li442 O503 1.970 . S
Li443 N493 1.990 . S
Li443 O501 1.961 . S
Li443 O502 1.970 . S
Li443 O503 1.956 . S
C444 C446 1.348 . S
C444 C447 1.356 . S
C444 O500 1.325 . S
N445 C448 1.314 1_554 S
N445 C449 1.279 . S
C446 C444 1.348 . S
C446 C448 1.353 . S
C446 H504 0.929 . S
C447 C444 1.356 . S
C447 C449 1.358 1_556 S
C447 H505 0.930 . S
C448 N445 1.314 1_556 S
C448 C446 1.353 . S
C448 H506 0.930 . S
C449 N445 1.279 . S
C449 C447 1.358 1_554 S
C449 H507 0.930 . S
C450 C453 1.348 . S
C450 C454 1.356 . S
C450 O501 1.325 . S
C451 N452 1.279 . S
C451 C454 1.358 . S
C451 H508 0.930 . S
N452 C451 1.279 . S
N452 C455 1.314 . S
C453 C450 1.348 . S
C453 C455 1.353 . S
C453 H509 0.929 . S
C454 C450 1.356 . S
C454 C451 1.358 . S
C454 H510 0.930 . S
C455 N452 1.314 . S
C455 C453 1.353 . S
C455 H511 0.930 . S
C456 N457 1.314 . S
C456 C461 1.353 . S
C456 H462 0.930 . S
N457 Li440 1.990 . S
N457 C456 1.314 . S
N457 C459 1.279 . S
C458 C459 1.358 . S
C458 C460 1.356 . S
C458 H512 0.930 . S
C459 N457 1.279 . S
C459 C458 1.358 . S
C459 H463 0.930 . S
C460 C458 1.356 . S
C460 C461 1.348 . S
C461 C456 1.353 . S
C461 C460 1.348 . S
C461 H513 0.929 . S
H462 C456 0.930 . S
H463 C459 0.930 . S
C464 N465 1.314 . S
C464 C466 1.353 . S
C464 H470 0.930 . S
N465 Li441 1.990 . S
N465 C464 1.314 . S
N465 C468 1.279 . S
C466 C464 1.353 . S
C466 C469 1.348 . S
C466 H514 0.929 . S
C467 C468 1.358 . S
C467 C469 1.356 . S
C467 H515 0.930 . S
C468 N465 1.279 . S
C468 C467 1.358 . S
C468 H471 0.930 . S
C469 C466 1.348 . S
C469 C467 1.356 . S
H470 C464 0.930 . S
H471 C468 0.930 . S
C472 C474 1.348 . S
C472 C475 1.356 . S
C472 O502 1.325 . S
N473 C476 1.314 . S
N473 C477 1.279 . S
C474 C472 1.348 . S
C474 C476 1.353 . S
C474 H516 0.929 . S
C475 C472 1.356 . S
C475 C477 1.358 . S
C475 H517 0.930 . S
C476 N473 1.314 . S
C476 C474 1.353 . S
C476 H518 0.930 . S
C477 N473 1.279 . S
C477 C475 1.358 . S
C477 H519 0.930 . S
C478 C479 1.348 . S
C478 C480 1.356 . S
C478 O503 1.325 . S
C479 C478 1.348 . S
C479 C481 1.353 . S
C479 H520 0.929 . S
C480 C478 1.356 . S
C480 C482 1.358 . S
C480 H521 0.930 . S
C481 C479 1.353 . S
C481 N483 1.314 . S
C481 H522 0.930 . S
C482 C480 1.358 . S
C482 N483 1.279 . S
C482 H523 0.930 . S
N483 C481 1.314 . S
N483 C482 1.279 . S
C484 C486 1.353 . S
C484 N487 1.314 1_554 S
C484 H490 0.930 . S
C485 N487 1.279 . S
C485 C488 1.358 1_556 S
C485 H491 0.930 . S
C486 C484 1.353 . S
C486 C489 1.348 . S
C486 H524 0.929 . S
N487 Li442 1.990 . S
N487 C484 1.314 1_556 S
N487 C485 1.279 . S
C488 C485 1.358 1_554 S
C488 C489 1.356 . S
C488 H525 0.930 . S
C489 C486 1.348 . S
C489 C488 1.356 . S
H490 C484 0.930 . S
H491 C485 0.930 . S
C492 N493 1.314 . S
C492 C494 1.353 . S
C492 H498 0.930 . S
N493 Li443 1.990 . S
N493 C492 1.314 . S
N493 C496 1.279 . S
C494 C492 1.353 . S
C494 C497 1.348 . S
C494 H526 0.929 . S
C495 C496 1.358 . S
C495 C497 1.356 . S
C495 H527 0.930 . S
C496 N493 1.279 . S
C496 C495 1.358 . S
C496 H499 0.930 . S
C497 C494 1.348 . S
C497 C495 1.356 . S
H498 C492 0.930 . S
H499 C496 0.930 . S
O500 Li440 1.956 . S
O500 Li441 1.970 . S
O500 Li442 1.961 . S
O500 C444 1.325 . S
O501 Li440 1.970 . S
O501 Li441 1.956 . S
O501 Li443 1.961 . S
O501 C450 1.325 . S
O502 Li440 1.961 . S
O502 Li442 1.956 . S
O502 Li443 1.970 . S
O502 C472 1.325 . S
O503 Li441 1.961 . S
O503 Li442 1.970 . S
O503 Li443 1.956 . S
O503 C478 1.325 . S
H504 C446 0.929 . S
H505 C447 0.930 . S
H506 C448 0.930 . S
H507 C449 0.930 . S
H508 C451 0.930 . S
H509 C453 0.929 . S
H510 C454 0.930 . S
H511 C455 0.930 . S
H512 C458 0.930 . S
H513 C461 0.929 . S
H514 C466 0.929 . S
H515 C467 0.930 . S
H516 C474 0.929 . S
H517 C475 0.930 . S
H518 C476 0.930 . S
H519 C477 0.930 . S
H520 C479 0.929 . S
H521 C480 0.930 . S
H522 C481 0.930 . S
H523 C482 0.930 . S
H524 C486 0.929 . S
H525 C488 0.930 . S
H526 C494 0.929 . S
H527 C495 0.930 . S
Li528 N545 1.990 . S
Li528 O588 1.956 . S
Li528 O589 1.970 . S
Li528 O590 1.961 . S
Li529 N553 1.990 . S
Li529 O588 1.970 . S
Li529 O589 1.956 . S
Li529 O591 1.961 . S
Li530 N575 1.990 . S
Li530 O588 1.961 . S
Li530 O590 1.956 . S
Li530 O591 1.970 . S
Li531 N581 1.990 . S
Li531 O589 1.961 . S
Li531 O590 1.970 . S
Li531 O591 1.956 . S
C532 C534 1.348 . S
C532 C535 1.356 . S
C532 O588 1.325 . S
N533 C536 1.314 . S
N533 C537 1.279 . S
C534 C532 1.348 . S
C534 C536 1.353 . S
C534 H592 0.929 . S
C535 C532 1.356 . S
C535 C537 1.358 . S
C535 H593 0.930 . S
C536 N533 1.314 . S
C536 C534 1.353 . S
C536 H594 0.930 . S
C537 N533 1.279 . S
C537 C535 1.358 . S
C537 H595 0.930 . S
C538 C541 1.348 . S
C538 C542 1.356 . S
C538 O589 1.325 . S
C539 N540 1.279 . S
C539 C542 1.358 . S
C539 H596 0.930 . S
N540 C539 1.279 . S
N540 C543 1.314 . S
C541 C538 1.348 . S
C541 C543 1.353 . S
C541 H597 0.929 . S
C542 C538 1.356 . S
C542 C539 1.358 . S
C542 H598 0.930 . S
C543 N540 1.314 . S
C543 C541 1.353 . S
C543 H599 0.930 . S
C544 N545 1.314 . S
C544 C549 1.353 1_565 S
C544 H550 0.930 . S
N545 Li528 1.990 . S
N545 C544 1.314 . S
N545 C547 1.279 1_565 S
C546 C547 1.358 . S
C546 C548 1.356 . S
C546 H600 0.930 . S
C547 N545 1.279 1_545 S
C547 C546 1.358 . S
C547 H551 0.930 . S
C548 C546 1.356 . S
C548 C549 1.348 . S
C549 C544 1.353 1_545 S
C549 C548 1.348 . S
C549 H601 0.929 . S
H550 C544 0.930 . S
H551 C547 0.930 . S
C552 N553 1.314 . S
C552 C554 1.353 . S
C552 H558 0.930 . S
N553 Li529 1.990 . S
N553 C552 1.314 . S
N553 C556 1.279 . S
C554 C552 1.353 . S
C554 C557 1.348 . S
C554 H602 0.929 . S
C555 C556 1.358 . S
C555 C557 1.356 . S
C555 H603 0.930 . S
C556 N553 1.279 . S
C556 C555 1.358 . S
C556 H559 0.930 . S
C557 C554 1.348 . S
C557 C555 1.356 . S
H558 C552 0.930 . S
H559 C556 0.930 . S
C560 C562 1.348 . S
C560 C563 1.356 . S
C560 O590 1.325 . S
N561 C564 1.314 . S
N561 C565 1.279 . S
C562 C560 1.348 . S
C562 C564 1.353 . S
C562 H604 0.929 . S
C563 C560 1.356 . S
C563 C565 1.358 . S
C563 H605 0.930 . S
C564 N561 1.314 . S
C564 C562 1.353 . S
C564 H606 0.930 . S
C565 N561 1.279 . S
C565 C563 1.358 . S
C565 H607 0.930 . S
C566 C567 1.348 . S
C566 C568 1.356 . S
C566 O591 1.325 . S
C567 C566 1.348 . S
C567 C569 1.353 . S
C567 H608 0.929 . S
C568 C566 1.356 . S
C568 C570 1.358 . S
C568 H609 0.930 . S
C569 C567 1.353 . S
C569 N571 1.314 . S
C569 H610 0.930 . S
C570 C568 1.358 . S
C570 N571 1.279 . S
C570 H611 0.930 . S
N571 C569 1.314 . S
N571 C570 1.279 . S
C572 C574 1.353 . S
C572 N575 1.314 . S
C572 H578 0.930 . S
C573 N575 1.279 . S
C573 C576 1.358 . S
C573 H579 0.930 . S
C574 C572 1.353 . S
C574 C577 1.348 . S
C574 H612 0.929 . S
N575 Li530 1.990 . S
N575 C572 1.314 . S
N575 C573 1.279 . S
C576 C573 1.358 . S
C576 C577 1.356 . S
C576 H613 0.930 . S
C577 C574 1.348 . S
C577 C576 1.356 . S
H578 C572 0.930 . S
H579 C573 0.930 . S
C580 N581 1.314 . S
C580 C582 1.353 . S
C580 H586 0.930 . S
N581 Li531 1.990 . S
N581 C580 1.314 . S
N581 C584 1.279 . S
C582 C580 1.353 . S
C582 C585 1.348 . S
C582 H614 0.929 . S
C583 C584 1.358 . S
C583 C585 1.356 . S
C583 H615 0.930 . S
C584 N581 1.279 . S
C584 C583 1.358 . S
C584 H587 0.930 . S
C585 C582 1.348 . S
C585 C583 1.356 . S
H586 C580 0.930 . S
H587 C584 0.930 . S
O588 Li528 1.956 . S
O588 Li529 1.970 . S
O588 Li530 1.961 . S
O588 C532 1.325 . S
O589 Li528 1.970 . S
O589 Li529 1.956 . S
O589 Li531 1.961 . S
O589 C538 1.325 . S
O590 Li528 1.961 . S
O590 Li530 1.956 . S
O590 Li531 1.970 . S
O590 C560 1.325 . S
O591 Li529 1.961 . S
O591 Li530 1.970 . S
O591 Li531 1.956 . S
O591 C566 1.325 . S
H592 C534 0.929 . S
H593 C535 0.930 . S
H594 C536 0.930 . S
H595 C537 0.930 . S
H596 C539 0.930 . S
H597 C541 0.929 . S
H598 C542 0.930 . S
H599 C543 0.930 . S
H600 C546 0.930 . S
H601 C549 0.929 . S
H602 C554 0.929 . S
H603 C555 0.930 . S
H604 C562 0.929 . S
H605 C563 0.930 . S
H606 C564 0.930 . S
H607 C565 0.930 . S
H608 C567 0.929 . S
H609 C568 0.930 . S
H610 C569 0.930 . S
H611 C570 0.930 . S
H612 C574 0.929 . S
H613 C576 0.930 . S
H614 C582 0.929 . S
H615 C583 0.930 . S
Li616 N633 1.990 . S
Li616 O676 1.956 . S
Li616 O677 1.970 . S
Li616 O678 1.961 . S
Li617 N641 1.990 . S
Li617 O676 1.970 . S
Li617 O677 1.956 . S
Li617 O679 1.961 . S
Li618 N663 1.990 . S
Li618 O676 1.961 . S
Li618 O678 1.956 . S
Li618 O679 1.970 . S
Li619 N669 1.990 . S
Li619 O677 1.961 . S
Li619 O678 1.970 . S
Li619 O679 1.956 . S
C620 C622 1.348 . S
C620 C623 1.356 . S
C620 O676 1.325 . S
N621 C624 1.314 . S
N621 C625 1.279 . S
C622 C620 1.348 . S
C622 C624 1.353 . S
C622 H680 0.929 . S
C623 C620 1.356 . S
C623 C625 1.358 . S
C623 H681 0.930 . S
C624 N621 1.314 . S
C624 C622 1.353 . S
C624 H682 0.930 . S
C625 N621 1.279 . S
C625 C623 1.358 . S
C625 H683 0.930 . S
C626 C629 1.348 . S
C626 C630 1.356 . S
C626 O677 1.325 . S
C627 N628 1.279 . S
C627 C630 1.358 . S
C627 H684 0.930 . S
N628 C627 1.279 . S
N628 C631 1.314 . S
C629 C626 1.348 . S
C629 C631 1.353 . S
C629 H685 0.929 . S
C630 C626 1.356 . S
C630 C627 1.358 . S
C630 H686 0.930 . S
C631 N628 1.314 . S
C631 C629 1.353 . S
C631 H687 0.930 . S
C632 N633 1.314 . S
C632 C637 1.353 . S
C632 H638 0.930 . S
N633 Li616 1.990 . S
N633 C632 1.314 . S
N633 C635 1.279 . S
C634 C635 1.358 . S
C634 C636 1.356 . S
C634 H688 0.930 . S
C635 N633 1.279 . S
C635 C634 1.358 . S
C635 H639 0.930 . S
C636 C634 1.356 . S
C636 C637 1.348 . S
C637 C632 1.353 . S
C637 C636 1.348 . S
C637 H689 0.929 . S
H638 C632 0.930 . S
H639 C635 0.930 . S
C640 N641 1.314 . S
C640 C642 1.353 . S
C640 H646 0.930 . S
N641 Li617 1.990 . S
N641 C640 1.314 . S
N641 C644 1.279 . S
C642 C640 1.353 . S
C642 C645 1.348 . S
C642 H690 0.929 . S
C643 C644 1.358 . S
C643 C645 1.356 . S
C643 H691 0.930 . S
C644 N641 1.279 . S
C644 C643 1.358 . S
C644 H647 0.930 . S
C645 C642 1.348 . S
C645 C643 1.356 . S
H646 C640 0.930 . S
H647 C644 0.930 . S
C648 C650 1.348 . S
C648 C651 1.356 . S
C648 O678 1.325 . S
N649 C652 1.314 . S
N649 C653 1.279 . S
C650 C648 1.348 . S
C650 C652 1.353 . S
C650 H692 0.929 . S
C651 C648 1.356 . S
C651 C653 1.358 . S
C651 H693 0.930 . S
C652 N649 1.314 . S
C652 C650 1.353 . S
C652 H694 0.930 . S
C653 N649 1.279 . S
C653 C651 1.358 . S
C653 H695 0.930 . S
C654 C655 1.348 . S
C654 C656 1.356 . S
C654 O679 1.325 . S
C655 C654 1.348 . S
C655 C657 1.353 . S
C655 H696 0.929 . S
C656 C654 1.356 . S
C656 C658 1.358 . S
C656 H697 0.930 . S
C657 C655 1.353 . S
C657 N659 1.314 . S
C657 H698 0.930 . S
C658 C656 1.358 . S
C658 N659 1.279 . S
C658 H699 0.930 . S
N659 C657 1.314 . S
N659 C658 1.279 . S
C660 C662 1.353 . S
C660 N663 1.314 . S
C660 H666 0.930 . S
C661 N663 1.279 . S
C661 C664 1.358 . S
C661 H667 0.930 . S
C662 C660 1.353 . S
C662 C665 1.348 . S
C662 H700 0.929 . S
N663 Li618 1.990 . S
N663 C660 1.314 . S
N663 C661 1.279 . S
C664 C661 1.358 . S
C664 C665 1.356 . S
C664 H701 0.930 . S
C665 C662 1.348 . S
C665 C664 1.356 . S
H666 C660 0.930 . S
H667 C661 0.930 . S
C668 N669 1.314 . S
C668 C670 1.353 . S
C668 H674 0.930 . S
N669 Li619 1.990 . S
N669 C668 1.314 . S
N669 C672 1.279 . S
C670 C668 1.353 . S
C670 C673 1.348 . S
C670 H702 0.929 . S
C671 C672 1.358 . S
C671 C673 1.356 . S
C671 H703 0.930 . S
C672 N669 1.279 . S
C672 C671 1.358 . S
C672 H675 0.930 . S
C673 C670 1.348 . S
C673 C671 1.356 . S
H674 C668 0.930 . S
H675 C672 0.930 . S
O676 Li616 1.956 . S
O676 Li617 1.970 . S
O676 Li618 1.961 . S
O676 C620 1.325 . S
O677 Li616 1.970 . S
O677 Li617 1.956 . S
O677 Li619 1.961 . S
O677 C626 1.325 . S
O678 Li616 1.961 . S
O678 Li618 1.956 . S
O678 Li619 1.970 . S
O678 C648 1.325 . S
O679 Li617 1.961 . S
O679 Li618 1.970 . S
O679 Li619 1.956 . S
O679 C654 1.325 . S
H680 C622 0.929 . S
H681 C623 0.930 . S
H682 C624 0.930 . S
H683 C625 0.930 . S
H684 C627 0.930 . S
H685 C629 0.929 . S
H686 C630 0.930 . S
H687 C631 0.930 . S
H688 C634 0.930 . S
H689 C637 0.929 . S
H690 C642 0.929 . S
H691 C643 0.930 . S
H692 C650 0.929 . S
H693 C651 0.930 . S
H694 C652 0.930 . S
H695 C653 0.930 . S
H696 C655 0.929 . S
H697 C656 0.930 . S
H698 C657 0.930 . S
H699 C658 0.930 . S
H700 C662 0.929 . S
H701 C664 0.930 . S
H702 C670 0.929 . S
H703 C671 0.930 . S
Li704 N721 1.990 . S
Li704 O764 1.956 . S
Li704 O765 1.970 . S
Li704 O766 1.961 . S
Li705 N729 1.990 . S
Li705 O764 1.970 . S
Li705 O765 1.956 . S
Li705 O767 1.961 . S
Li706 N751 1.990 . S
Li706 O764 1.961 . S
Li706 O766 1.956 . S
Li706 O767 1.970 . S
Li707 N757 1.990 . S
Li707 O765 1.961 . S
Li707 O766 1.970 . S
Li707 O767 1.956 . S
C708 C710 1.348 . S
C708 C711 1.356 . S
C708 O764 1.325 . S
N709 C712 1.314 . S
N709 C713 1.279 . S
C710 C708 1.348 . S
C710 C712 1.353 . S
C710 H768 0.929 . S
C711 C708 1.356 . S
C711 C713 1.358 . S
C711 H769 0.930 . S
C712 N709 1.314 . S
C712 C710 1.353 . S
C712 H770 0.930 . S
C713 N709 1.279 . S
C713 C711 1.358 . S
C713 H771 0.930 . S
C714 C717 1.348 . S
C714 C718 1.356 . S
C714 O765 1.325 . S
C715 N716 1.279 . S
C715 C718 1.358 . S
C715 H772 0.930 . S
N716 C715 1.279 . S
N716 C719 1.314 . S
C717 C714 1.348 . S
C717 C719 1.353 . S
C717 H773 0.929 . S
C718 C714 1.356 . S
C718 C715 1.358 . S
C718 H774 0.930 . S
C719 N716 1.314 . S
C719 C717 1.353 . S
C719 H775 0.930 . S
C720 N721 1.314 1_556 S
C720 C725 1.353 . S
C720 H726 0.930 . S
N721 Li704 1.990 . S
N721 C720 1.314 1_554 S
N721 C723 1.279 . S
C722 C723 1.358 1_556 S
C722 C724 1.356 . S
C722 H776 0.930 . S
C723 N721 1.279 . S
C723 C722 1.358 1_554 S
C723 H727 0.930 . S
C724 C722 1.356 . S
C724 C725 1.348 . S
C725 C720 1.353 . S
C725 C724 1.348 . S
C725 H777 0.929 . S
H726 C720 0.930 . S
H727 C723 0.930 . S
C728 N729 1.314 . S
C728 C730 1.353 . S
C728 H734 0.930 . S
N729 Li705 1.990 . S
N729 C728 1.314 . S
N729 C732 1.279 . S
C730 C728 1.353 . S
C730 C733 1.348 . S
C730 H778 0.929 . S
C731 C732 1.358 . S
C731 C733 1.356 . S
C731 H779 0.930 . S
C732 N729 1.279 . S
C732 C731 1.358 . S
C732 H735 0.930 . S
C733 C730 1.348 . S
C733 C731 1.356 . S
H734 C728 0.930 . S
H735 C732 0.930 . S
C736 C738 1.348 . S
C736 C739 1.356 . S
C736 O766 1.325 . S
N737 C740 1.314 1_556 S
N737 C741 1.279 . S
C738 C736 1.348 . S
C738 C740 1.353 . S
C738 H780 0.929 . S
C739 C736 1.356 . S
C739 C741 1.358 1_554 S
C739 H781 0.930 . S
C740 N737 1.314 1_554 S
C740 C738 1.353 . S
C740 H782 0.930 . S
C741 N737 1.279 . S
C741 C739 1.358 1_556 S
C741 H783 0.930 . S
C742 C743 1.348 . S
C742 C744 1.356 . S
C742 O767 1.325 . S
C743 C742 1.348 . S
C743 C745 1.353 . S
C743 H784 0.929 . S
C744 C742 1.356 . S
C744 C746 1.358 . S
C744 H785 0.930 . S
C745 C743 1.353 . S
C745 N747 1.314 . S
C745 H786 0.930 . S
C746 C744 1.358 . S
C746 N747 1.279 . S
C746 H787 0.930 . S
N747 C745 1.314 . S
N747 C746 1.279 . S
C748 C750 1.353 . S
C748 N751 1.314 . S
C748 H754 0.930 . S
C749 N751 1.279 . S
C749 C752 1.358 . S
C749 H755 0.930 . S
C750 C748 1.353 . S
C750 C753 1.348 . S
C750 H788 0.929 . S
N751 Li706 1.990 . S
N751 C748 1.314 . S
N751 C749 1.279 . S
C752 C749 1.358 . S
C752 C753 1.356 . S
C752 H789 0.930 . S
C753 C750 1.348 . S
C753 C752 1.356 . S
H754 C748 0.930 . S
H755 C749 0.930 . S
C756 N757 1.314 . S
C756 C758 1.353 1_455 S
C756 H762 0.930 . S
N757 Li707 1.990 . S
N757 C756 1.314 . S
N757 C760 1.279 1_455 S
C758 C756 1.353 1_655 S
C758 C761 1.348 . S
C758 H790 0.929 . S
C759 C760 1.358 . S
C759 C761 1.356 . S
C759 H791 0.930 . S
C760 N757 1.279 1_655 S
C760 C759 1.358 . S
C760 H763 0.930 . S
C761 C758 1.348 . S
C761 C759 1.356 . S
H762 C756 0.930 . S
H763 C760 0.930 . S
O764 Li704 1.956 . S
O764 Li705 1.970 . S
O764 Li706 1.961 . S
O764 C708 1.325 . S
O765 Li704 1.970 . S
O765 Li705 1.956 . S
O765 Li707 1.961 . S
O765 C714 1.325 . S
O766 Li704 1.961 . S
O766 Li706 1.956 . S
O766 Li707 1.970 . S
O766 C736 1.325 . S
O767 Li705 1.961 . S
O767 Li706 1.970 . S
O767 Li707 1.956 . S
O767 C742 1.325 . S
H768 C710 0.929 . S
H769 C711 0.930 . S
H770 C712 0.930 . S
H771 C713 0.930 . S
H772 C715 0.930 . S
H773 C717 0.929 . S
H774 C718 0.930 . S
H775 C719 0.930 . S
H776 C722 0.930 . S
H777 C725 0.929 . S
H778 C730 0.929 . S
H779 C731 0.930 . S
H780 C738 0.929 . S
H781 C739 0.930 . S
H782 C740 0.930 . S
H783 C741 0.930 . S
H784 C743 0.929 . S
H785 C744 0.930 . S
H786 C745 0.930 . S
H787 C746 0.930 . S
H788 C750 0.929 . S
H789 C752 0.930 . S
H790 C758 0.929 . S
H791 C759 0.930 . S
Li792 N809 1.990 . S
Li792 O852 1.956 . S
Li792 O853 1.970 . S
Li792 O854 1.961 . S
Li793 N817 1.990 . S
Li793 O852 1.970 . S
Li793 O853 1.956 . S
Li793 O855 1.961 . S
Li794 N839 1.990 . S
Li794 O852 1.961 . S
Li794 O854 1.956 . S
Li794 O855 1.970 . S
Li795 N845 1.990 . S
Li795 O853 1.961 . S
Li795 O854 1.970 . S
Li795 O855 1.956 . S
C796 C798 1.348 . S
C796 C799 1.356 . S
C796 O852 1.325 . S
N797 C800 1.314 . S
N797 C801 1.279 . S
C798 C796 1.348 . S
C798 C800 1.353 . S
C798 H856 0.929 . S
C799 C796 1.356 . S
C799 C801 1.358 . S
C799 H857 0.930 . S
C800 N797 1.314 . S
C800 C798 1.353 . S
C800 H858 0.930 . S
C801 N797 1.279 . S
C801 C799 1.358 . S
C801 H859 0.930 . S
C802 C805 1.348 . S
C802 C806 1.356 . S
C802 O853 1.325 . S
C803 N804 1.279 . S
C803 C806 1.358 . S
C803 H860 0.930 . S
N804 C803 1.279 . S
N804 C807 1.314 . S
C805 C802 1.348 . S
C805 C807 1.353 . S
C805 H861 0.929 . S
C806 C802 1.356 . S
C806 C803 1.358 . S
C806 H862 0.930 . S
C807 N804 1.314 . S
C807 C805 1.353 . S
C807 H863 0.930 . S
C808 N809 1.314 . S
C808 C813 1.353 1_545 S
C808 H814 0.930 . S
N809 Li792 1.990 . S
N809 C808 1.314 . S
N809 C811 1.279 1_545 S
C810 C811 1.358 . S
C810 C812 1.356 . S
C810 H864 0.930 . S
C811 N809 1.279 1_565 S
C811 C810 1.358 . S
C811 H815 0.930 . S
C812 C810 1.356 . S
C812 C813 1.348 . S
C813 C808 1.353 1_565 S
C813 C812 1.348 . S
C813 H865 0.929 . S
H814 C808 0.930 . S
H815 C811 0.930 . S
C816 N817 1.314 . S
C816 C818 1.353 . S
C816 H822 0.930 . S
N817 Li793 1.990 . S
N817 C816 1.314 . S
N817 C820 1.279 . S
C818 C816 1.353 . S
C818 C821 1.348 . S
C818 H866 0.929 . S
C819 C820 1.358 . S
C819 C821 1.356 . S
C819 H867 0.930 . S
C820 N817 1.279 . S
C820 C819 1.358 . S
C820 H823 0.930 . S
C821 C818 1.348 . S
C821 C819 1.356 . S
H822 C816 0.930 . S
H823 C820 0.930 . S
C824 C826 1.348 . S
C824 C827 1.356 . S
C824 O854 1.325 . S
N825 C828 1.314 . S
N825 C829 1.279 . S
C826 C824 1.348 . S
C826 C828 1.353 . S
C826 H868 0.929 . S
C827 C824 1.356 . S
C827 C829 1.358 . S
C827 H869 0.930 . S
C828 N825 1.314 . S
C828 C826 1.353 . S
C828 H870 0.930 . S
C829 N825 1.279 . S
C829 C827 1.358 . S
C829 H871 0.930 . S
C830 C831 1.348 . S
C830 C832 1.356 . S
C830 O855 1.325 . S
C831 C830 1.348 . S
C831 C833 1.353 . S
C831 H872 0.929 . S
C832 C830 1.356 . S
C832 C834 1.358 . S
C832 H873 0.930 . S
C833 C831 1.353 . S
C833 N835 1.314 . S
C833 H874 0.930 . S
C834 C832 1.358 . S
C834 N835 1.279 . S
C834 H875 0.930 . S
N835 C833 1.314 . S
N835 C834 1.279 . S
C836 C838 1.353 . S
C836 N839 1.314 . S
C836 H842 0.930 . S
C837 N839 1.279 . S
C837 C840 1.358 . S
C837 H843 0.930 . S
C838 C836 1.353 . S
C838 C841 1.348 . S
C838 H876 0.929 . S
N839 Li794 1.990 . S
N839 C836 1.314 . S
N839 C837 1.279 . S
C840 C837 1.358 . S
C840 C841 1.356 . S
C840 H877 0.930 . S
C841 C838 1.348 . S
C841 C840 1.356 . S
H842 C836 0.930 . S
H843 C837 0.930 . S
C844 N845 1.314 . S
C844 C846 1.353 . S
C844 H850 0.930 . S
N845 Li795 1.990 . S
N845 C844 1.314 . S
N845 C848 1.279 . S
C846 C844 1.353 . S
C846 C849 1.348 . S
C846 H878 0.929 . S
C847 C848 1.358 . S
C847 C849 1.356 . S
C847 H879 0.930 . S
C848 N845 1.279 . S
C848 C847 1.358 . S
C848 H851 0.930 . S
C849 C846 1.348 . S
C849 C847 1.356 . S
H850 C844 0.930 . S
H851 C848 0.930 . S
O852 Li792 1.956 . S
O852 Li793 1.970 . S
O852 Li794 1.961 . S
O852 C796 1.325 . S
O853 Li792 1.970 . S
O853 Li793 1.956 . S
O853 Li795 1.961 . S
O853 C802 1.325 . S
O854 Li792 1.961 . S
O854 Li794 1.956 . S
O854 Li795 1.970 . S
O854 C824 1.325 . S
O855 Li793 1.961 . S
O855 Li794 1.970 . S
O855 Li795 1.956 . S
O855 C830 1.325 . S
H856 C798 0.929 . S
H857 C799 0.930 . S
H858 C800 0.930 . S
H859 C801 0.930 . S
H860 C803 0.930 . S
H861 C805 0.929 . S
H862 C806 0.930 . S
H863 C807 0.930 . S
H864 C810 0.930 . S
H865 C813 0.929 . S
H866 C818 0.929 . S
H867 C819 0.930 . S
H868 C826 0.929 . S
H869 C827 0.930 . S
H870 C828 0.930 . S
H871 C829 0.930 . S
H872 C831 0.929 . S
H873 C832 0.930 . S
H874 C833 0.930 . S
H875 C834 0.930 . S
H876 C838 0.929 . S
H877 C840 0.930 . S
H878 C846 0.929 . S
H879 C847 0.930 . S
Li880 N897 1.990 . S
Li880 O940 1.956 . S
Li880 O941 1.970 . S
Li880 O942 1.961 . S
Li881 N905 1.990 . S
Li881 O940 1.970 . S
Li881 O941 1.956 . S
Li881 O943 1.961 . S
Li882 N927 1.990 . S
Li882 O940 1.961 . S
Li882 O942 1.956 . S
Li882 O943 1.970 . S
Li883 N933 1.990 . S
Li883 O941 1.961 . S
Li883 O942 1.970 . S
Li883 O943 1.956 . S
C884 C886 1.348 . S
C884 C887 1.356 . S
C884 O940 1.325 . S
N885 C888 1.314 . S
N885 C889 1.279 . S
C886 C884 1.348 . S
C886 C888 1.353 . S
C886 H944 0.929 . S
C887 C884 1.356 . S
C887 C889 1.358 . S
C887 H945 0.930 . S
C888 N885 1.314 . S
C888 C886 1.353 . S
C888 H946 0.930 . S
C889 N885 1.279 . S
C889 C887 1.358 . S
C889 H947 0.930 . S
C890 C893 1.348 . S
C890 C894 1.356 . S
C890 O941 1.325 . S
C891 N892 1.279 . S
C891 C894 1.358 . S
C891 H948 0.930 . S
N892 C891 1.279 . S
N892 C895 1.314 . S
C893 C890 1.348 . S
C893 C895 1.353 . S
C893 H949 0.929 . S
C894 C890 1.356 . S
C894 C891 1.358 . S
C894 H950 0.930 . S
C895 N892 1.314 . S
C895 C893 1.353 . S
C895 H951 0.930 . S
C896 N897 1.314 . S
C896 C901 1.353 . S
C896 H902 0.930 . S
N897 Li880 1.990 . S
N897 C896 1.314 . S
N897 C899 1.279 . S
C898 C899 1.358 . S
C898 C900 1.356 . S
C898 H952 0.930 . S
C899 N897 1.279 . S
C899 C898 1.358 . S
C899 H903 0.930 . S
C900 C898 1.356 . S
C900 C901 1.348 . S
C901 C896 1.353 . S
C901 C900 1.348 . S
C901 H953 0.929 . S
H902 C896 0.930 . S
H903 C899 0.930 . S
C904 N905 1.314 . S
C904 C906 1.353 . S
C904 H910 0.930 . S
N905 Li881 1.990 . S
N905 C904 1.314 . S
N905 C908 1.279 . S
C906 C904 1.353 . S
C906 C909 1.348 . S
C906 H954 0.929 . S
C907 C908 1.358 . S
C907 C909 1.356 . S
C907 H955 0.930 . S
C908 N905 1.279 . S
C908 C907 1.358 . S
C908 H911 0.930 . S
C909 C906 1.348 . S
C909 C907 1.356 . S
H910 C904 0.930 . S
H911 C908 0.930 . S
C912 C914 1.348 . S
C912 C915 1.356 . S
C912 O942 1.325 . S
N913 C916 1.314 . S
N913 C917 1.279 . S
C914 C912 1.348 . S
C914 C916 1.353 . S
C914 H956 0.929 . S
C915 C912 1.356 . S
C915 C917 1.358 . S
C915 H957 0.930 . S
C916 N913 1.314 . S
C916 C914 1.353 . S
C916 H958 0.930 . S
C917 N913 1.279 . S
C917 C915 1.358 . S
C917 H959 0.930 . S
C918 C919 1.348 . S
C918 C920 1.356 . S
C918 O943 1.325 . S
C919 C918 1.348 . S
C919 C921 1.353 . S
C919 H960 0.929 . S
C920 C918 1.356 . S
C920 C922 1.358 . S
C920 H961 0.930 . S
C921 C919 1.353 . S
C921 N923 1.314 . S
C921 H962 0.930 . S
C922 C920 1.358 . S
C922 N923 1.279 . S
C922 H963 0.930 . S
N923 C921 1.314 . S
N923 C922 1.279 . S
C924 C926 1.353 . S
C924 N927 1.314 . S
C924 H930 0.930 . S
C925 N927 1.279 . S
C925 C928 1.358 . S
C925 H931 0.930 . S
C926 C924 1.353 . S
C926 C929 1.348 . S
C926 H964 0.929 . S
N927 Li882 1.990 . S
N927 C924 1.314 . S
N927 C925 1.279 . S
C928 C925 1.358 . S
C928 C929 1.356 . S
C928 H965 0.930 . S
C929 C926 1.348 . S
C929 C928 1.356 . S
H930 C924 0.930 . S
H931 C925 0.930 . S
C932 N933 1.314 . S
C932 C934 1.353 . S
C932 H938 0.930 . S
N933 Li883 1.990 . S
N933 C932 1.314 . S
N933 C936 1.279 . S
C934 C932 1.353 . S
C934 C937 1.348 . S
C934 H966 0.929 . S
C935 C936 1.358 . S
C935 C937 1.356 . S
C935 H967 0.930 . S
C936 N933 1.279 . S
C936 C935 1.358 . S
C936 H939 0.930 . S
C937 C934 1.348 . S
C937 C935 1.356 . S
H938 C932 0.930 . S
H939 C936 0.930 . S
O940 Li880 1.956 . S
O940 Li881 1.970 . S
O940 Li882 1.961 . S
O940 C884 1.325 . S
O941 Li880 1.970 . S
O941 Li881 1.956 . S
O941 Li883 1.961 . S
O941 C890 1.325 . S
O942 Li880 1.961 . S
O942 Li882 1.956 . S
O942 Li883 1.970 . S
O942 C912 1.325 . S
O943 Li881 1.961 . S
O943 Li882 1.970 . S
O943 Li883 1.956 . S
O943 C918 1.325 . S
H944 C886 0.929 . S
H945 C887 0.930 . S
H946 C888 0.930 . S
H947 C889 0.930 . S
H948 C891 0.930 . S
H949 C893 0.929 . S
H950 C894 0.930 . S
H951 C895 0.930 . S
H952 C898 0.930 . S
H953 C901 0.929 . S
H954 C906 0.929 . S
H955 C907 0.930 . S
H956 C914 0.929 . S
H957 C915 0.930 . S
H958 C916 0.930 . S
H959 C917 0.930 . S
H960 C919 0.929 . S
H961 C920 0.930 . S
H962 C921 0.930 . S
H963 C922 0.930 . S
H964 C926 0.929 . S
H965 C928 0.930 . S
H966 C934 0.929 . S
H967 C935 0.930 . S
Li968 N985 1.990 . S
Li968 O1028 1.956 . S
Li968 O1029 1.970 . S
Li968 O1030 1.961 . S
Li969 N993 1.990 . S
Li969 O1028 1.970 . S
Li969 O1029 1.956 . S
Li969 O1031 1.961 . S
Li970 N1015 1.990 . S
Li970 O1028 1.961 . S
Li970 O1030 1.956 . S
Li970 O1031 1.970 . S
Li971 N1021 1.990 . S
Li971 O1029 1.961 . S
Li971 O1030 1.970 . S
Li971 O1031 1.956 . S
C972 C974 1.348 . S
C972 C975 1.356 . S
C972 O1028 1.325 . S
N973 C976 1.314 . S
N973 C977 1.279 . S
C974 C972 1.348 . S
C974 C976 1.353 . S
C974 H1032 0.929 . S
C975 C972 1.356 . S
C975 C977 1.358 . S
C975 H1033 0.930 . S
C976 N973 1.314 . S
C976 C974 1.353 . S
C976 H1034 0.930 . S
C977 N973 1.279 . S
C977 C975 1.358 . S
C977 H1035 0.930 . S
C978 C981 1.348 . S
C978 C982 1.356 . S
C978 O1029 1.325 . S
C979 N980 1.279 . S
C979 C982 1.358 . S
C979 H1036 0.930 . S
N980 C979 1.279 . S
N980 C983 1.314 . S
C981 C978 1.348 . S
C981 C983 1.353 . S
C981 H1037 0.929 . S
C982 C978 1.356 . S
C982 C979 1.358 . S
C982 H1038 0.930 . S
C983 N980 1.314 . S
C983 C981 1.353 . S
C983 H1039 0.930 . S
C984 N985 1.314 . S
C984 C989 1.353 1_655 S
C984 H990 0.930 . S
N985 Li968 1.990 . S
N985 C984 1.314 . S
N985 C987 1.279 1_655 S
C986 C987 1.358 . S
C986 C988 1.356 . S
C986 H1040 0.930 . S
C987 N985 1.279 1_455 S
C987 C986 1.358 . S
C987 H991 0.930 . S
C988 C986 1.356 . S
C988 C989 1.348 . S
C989 C984 1.353 1_455 S
C989 C988 1.348 . S
C989 H1041 0.929 . S
H990 C984 0.930 . S
H991 C987 0.930 . S
C992 N993 1.314 . S
C992 C994 1.353 . S
C992 H998 0.930 . S
N993 Li969 1.990 . S
N993 C992 1.314 . S
N993 C996 1.279 . S
C994 C992 1.353 . S
C994 C997 1.348 . S
C994 H1042 0.929 . S
C995 C996 1.358 . S
C995 C997 1.356 . S
C995 H1043 0.930 . S
C996 N993 1.279 . S
C996 C995 1.358 . S
C996 H999 0.930 . S
C997 C994 1.348 . S
C997 C995 1.356 . S
H998 C992 0.930 . S
H999 C996 0.930 . S
C1000 C1002 1.348 . S
C1000 C1003 1.356 . S
C1000 O1030 1.325 . S
N1001 C1004 1.314 . S
N1001 C1005 1.279 . S
C1002 C1000 1.348 . S
C1002 C1004 1.353 . S
C1002 H1044 0.929 . S
C1003 C1000 1.356 . S
C1003 C1005 1.358 . S
C1003 H1045 0.930 . S
C1004 N1001 1.314 . S
C1004 C1002 1.353 . S
C1004 H1046 0.930 . S
C1005 N1001 1.279 . S
C1005 C1003 1.358 . S
C1005 H1047 0.930 . S
C1006 C1007 1.348 . S
C1006 C1008 1.356 . S
C1006 O1031 1.325 . S
C1007 C1006 1.348 . S
C1007 C1009 1.353 . S
C1007 H1048 0.929 . S
C1008 C1006 1.356 . S
C1008 C1010 1.358 . S
C1008 H1049 0.930 . S
C1009 C1007 1.353 . S
C1009 N1011 1.314 . S
C1009 H1050 0.930 . S
C1010 C1008 1.358 . S
C1010 N1011 1.279 . S
C1010 H1051 0.930 . S
N1011 C1009 1.314 . S
N1011 C1010 1.279 . S
C1012 C1014 1.353 . S
C1012 N1015 1.314 . S
C1012 H1018 0.930 . S
C1013 N1015 1.279 . S
C1013 C1016 1.358 . S
C1013 H1019 0.930 . S
C1014 C1012 1.353 . S
C1014 C1017 1.348 . S
C1014 H1052 0.929 . S
N1015 Li970 1.990 . S
N1015 C1012 1.314 . S
N1015 C1013 1.279 . S
C1016 C1013 1.358 . S
C1016 C1017 1.356 . S
C1016 H1053 0.930 . S
C1017 C1014 1.348 . S
C1017 C1016 1.356 . S
H1018 C1012 0.930 . S
H1019 C1013 0.930 . S
C1020 N1021 1.314 . S
C1020 C1022 1.353 . S
C1020 H1026 0.930 . S
N1021 Li971 1.990 . S
N1021 C1020 1.314 . S
N1021 C1024 1.279 . S
C1022 C1020 1.353 . S
C1022 C1025 1.348 . S
C1022 H1054 0.929 . S
C1023 C1024 1.358 . S
C1023 C1025 1.356 . S
C1023 H1055 0.930 . S
C1024 N1021 1.279 . S
C1024 C1023 1.358 . S
C1024 H1027 0.930 . S
C1025 C1022 1.348 . S
C1025 C1023 1.356 . S
H1026 C1020 0.930 . S
H1027 C1024 0.930 . S
O1028 Li968 1.956 . S
O1028 Li969 1.970 . S
O1028 Li970 1.961 . S
O1028 C972 1.325 . S
O1029 Li968 1.970 . S
O1029 Li969 1.956 . S
O1029 Li971 1.961 . S
O1029 C978 1.325 . S
O1030 Li968 1.961 . S
O1030 Li970 1.956 . S
O1030 Li971 1.970 . S
O1030 C1000 1.325 . S
O1031 Li969 1.961 . S
O1031 Li970 1.970 . S
O1031 Li971 1.956 . S
O1031 C1006 1.325 . S
H1032 C974 0.929 . S
H1033 C975 0.930 . S
H1034 C976 0.930 . S
H1035 C977 0.930 . S
H1036 C979 0.930 . S
H1037 C981 0.929 . S
H1038 C982 0.930 . S
H1039 C983 0.930 . S
H1040 C986 0.930 . S
H1041 C989 0.929 . S
H1042 C994 0.929 . S
H1043 C995 0.930 . S
H1044 C1002 0.929 . S
H1045 C1003 0.930 . S
H1046 C1004 0.930 . S
H1047 C1005 0.930 . S
H1048 C1007 0.929 . S
H1049 C1008 0.930 . S
H1050 C1009 0.930 . S
H1051 C1010 0.930 . S
H1052 C1014 0.929 . S
H1053 C1016 0.930 . S
H1054 C1022 0.929 . S
H1055 C1023 0.930 . S
H1056 C1062 0.930 . S
H1057 C1066 0.930 . S
H1058 C1071 0.929 . S
H1059 C1069 0.929 . S
H1060 C1064 0.929 . S
H1061 C1070 0.929 . S
C1062 H1056 0.930 . S
C1062 C1063 1.367 . S
C1062 C1070 1.378 . S
C1063 C1062 1.367 . S
C1063 C1071 1.433 . S
C1064 H1060 0.929 . S
C1064 C1066 1.378 . S
C1064 C1068 1.350 . S
C1065 C1068 1.463 . S
C1065 C1070 1.350 . S
C1065 N1073 1.427 . S
C1066 H1057 0.930 . S
C1066 C1064 1.378 . S
C1066 C1067 1.367 . S
C1067 C1066 1.367 . S
C1067 C1069 1.433 . S
C1068 C1064 1.350 . S
C1068 C1065 1.463 . S
C1068 N1072 1.427 . S
C1069 H1059 0.929 . S
C1069 C1067 1.433 . S
C1069 N1072 1.384 . S
C1070 H1061 0.929 . S
C1070 C1062 1.378 . S
C1070 C1065 1.350 . S
C1071 H1058 0.929 . S
C1071 C1063 1.433 . S
C1071 N1073 1.384 . S
N1072 C1068 1.427 . S
N1072 C1069 1.384 . S
N1073 C1065 1.427 . S
N1073 C1071 1.384 . S
H1074 C1080 0.930 . S
H1075 C1084 0.930 . S
H1076 C1089 0.929 . S
H1077 C1087 0.929 . S
H1078 C1082 0.929 . S
H1079 C1088 0.929 . S
C1080 H1074 0.930 . S
C1080 C1081 1.367 . S
C1080 C1088 1.378 . S
C1081 C1080 1.367 . S
C1081 C1089 1.433 . S
C1082 H1078 0.929 . S
C1082 C1084 1.378 . S
C1082 C1086 1.350 . S
C1083 C1086 1.463 . S
C1083 C1088 1.350 . S
C1083 N1091 1.427 . S
C1084 H1075 0.930 . S
C1084 C1082 1.378 . S
C1084 C1085 1.367 . S
C1085 C1084 1.367 . S
C1085 C1087 1.433 . S
C1086 C1082 1.350 . S
C1086 C1083 1.463 . S
C1086 N1090 1.427 . S
C1087 H1077 0.929 . S
C1087 C1085 1.433 . S
C1087 N1090 1.384 . S
C1088 H1079 0.929 . S
C1088 C1080 1.378 . S
C1088 C1083 1.350 . S
C1089 H1076 0.929 . S
C1089 C1081 1.433 . S
C1089 N1091 1.384 . S
N1090 C1086 1.427 . S
N1090 C1087 1.384 . S
N1091 C1083 1.427 . S
N1091 C1089 1.384 . S
H1092 C1098 0.930 . S
H1093 C1102 0.930 . S
H1094 C1107 0.929 . S
H1095 C1105 0.929 . S
H1096 C1100 0.929 . S
H1097 C1106 0.929 . S
C1098 H1092 0.930 . S
C1098 C1099 1.367 . S
C1098 C1106 1.378 . S
C1099 C1098 1.367 . S
C1099 C1107 1.433 . S
C1100 H1096 0.929 . S
C1100 C1102 1.378 . S
C1100 C1104 1.350 . S
C1101 C1104 1.463 . S
C1101 C1106 1.350 . S
C1101 N1109 1.427 . S
C1102 H1093 0.930 . S
C1102 C1100 1.378 . S
C1102 C1103 1.367 . S
C1103 C1102 1.367 . S
C1103 C1105 1.433 . S
C1104 C1100 1.350 . S
C1104 C1101 1.463 . S
C1104 N1108 1.427 . S
C1105 H1095 0.929 . S
C1105 C1103 1.433 . S
C1105 N1108 1.384 . S
C1106 H1097 0.929 . S
C1106 C1098 1.378 . S
C1106 C1101 1.350 . S
C1107 H1094 0.929 . S
C1107 C1099 1.433 . S
C1107 N1109 1.384 . S
N1108 C1104 1.427 . S
N1108 C1105 1.384 . S
N1109 C1101 1.427 . S
N1109 C1107 1.384 . S
H1110 C1116 0.930 . S
H1111 C1120 0.930 . S
H1112 C1125 0.929 . S
H1113 C1123 0.929 . S
H1114 C1118 0.929 . S
H1115 C1124 0.929 . S
C1116 H1110 0.930 . S
C1116 C1117 1.367 . S
C1116 C1124 1.378 . S
C1117 C1116 1.367 . S
C1117 C1125 1.433 . S
C1118 H1114 0.929 . S
C1118 C1120 1.378 . S
C1118 C1122 1.350 . S
C1119 C1122 1.463 . S
C1119 C1124 1.350 . S
C1119 N1127 1.427 . S
C1120 H1111 0.930 . S
C1120 C1118 1.378 . S
C1120 C1121 1.367 . S
C1121 C1120 1.367 . S
C1121 C1123 1.433 . S
C1122 C1118 1.350 . S
C1122 C1119 1.463 . S
C1122 N1126 1.427 . S
C1123 H1113 0.929 . S
C1123 C1121 1.433 . S
C1123 N1126 1.384 . S
C1124 H1115 0.929 . S
C1124 C1116 1.378 . S
C1124 C1119 1.350 . S
C1125 H1112 0.929 . S
C1125 C1117 1.433 . S
C1125 N1127 1.384 . S
N1126 C1122 1.427 . S
N1126 C1123 1.384 . S
N1127 C1119 1.427 . S
N1127 C1125 1.384 . S
H1128 C1134 0.930 . S
H1129 C1138 0.930 . S
H1130 C1143 0.929 . S
H1131 C1141 0.929 . S
H1132 C1136 0.929 . S
H1133 C1142 0.929 . S
C1134 H1128 0.930 . S
C1134 C1135 1.367 . S
C1134 C1142 1.378 . S
C1135 C1134 1.367 . S
C1135 C1143 1.433 . S
C1136 H1132 0.929 . S
C1136 C1138 1.378 . S
C1136 C1140 1.350 . S
C1137 C1140 1.463 . S
C1137 C1142 1.350 . S
C1137 N1145 1.427 . S
C1138 H1129 0.930 . S
C1138 C1136 1.378 . S
C1138 C1139 1.367 . S
C1139 C1138 1.367 . S
C1139 C1141 1.433 . S
C1140 C1136 1.350 . S
C1140 C1137 1.463 . S
C1140 N1144 1.427 . S
C1141 H1131 0.929 . S
C1141 C1139 1.433 . S
C1141 N1144 1.384 . S
C1142 H1133 0.929 . S
C1142 C1134 1.378 . S
C1142 C1137 1.350 . S
C1143 H1130 0.929 . S
C1143 C1135 1.433 . S
C1143 N1145 1.384 . S
N1144 C1140 1.427 . S
N1144 C1141 1.384 . S
N1145 C1137 1.427 . S
N1145 C1143 1.384 . S
H1146 C1152 0.930 . S
H1147 C1156 0.930 . S
H1148 C1161 0.929 . S
H1149 C1159 0.929 . S
H1150 C1154 0.929 . S
H1151 C1160 0.929 . S
C1152 H1146 0.930 . S
C1152 C1153 1.367 . S
C1152 C1160 1.378 . S
C1153 C1152 1.367 . S
C1153 C1161 1.433 . S
C1154 H1150 0.929 . S
C1154 C1156 1.378 . S
C1154 C1158 1.350 . S
C1155 C1158 1.463 . S
C1155 C1160 1.350 . S
C1155 N1163 1.427 . S
C1156 H1147 0.930 . S
C1156 C1154 1.378 . S
C1156 C1157 1.367 . S
C1157 C1156 1.367 . S
C1157 C1159 1.433 . S
C1158 C1154 1.350 . S
C1158 C1155 1.463 . S
C1158 N1162 1.427 . S
C1159 H1149 0.929 . S
C1159 C1157 1.433 . S
C1159 N1162 1.384 . S
C1160 H1151 0.929 . S
C1160 C1152 1.378 . S
C1160 C1155 1.350 . S
C1161 H1148 0.929 . S
C1161 C1153 1.433 . S
C1161 N1163 1.384 . S
N1162 C1158 1.427 . S
N1162 C1159 1.384 . S
N1163 C1155 1.427 . S
N1163 C1161 1.384 . S
H1164 C1170 0.930 . S
H1165 C1174 0.930 . S
H1166 C1179 0.929 . S
H1167 C1177 0.929 . S
H1168 C1172 0.929 . S
H1169 C1178 0.929 . S
C1170 H1164 0.930 . S
C1170 C1171 1.367 . S
C1170 C1178 1.378 . S
C1171 C1170 1.367 . S
C1171 C1179 1.433 . S
C1172 H1168 0.929 . S
C1172 C1174 1.378 . S
C1172 C1176 1.350 . S
C1173 C1176 1.463 1_554 S
C1173 C1178 1.350 . S
C1173 N1181 1.427 1_554 S
C1174 H1165 0.930 . S
C1174 C1172 1.378 . S
C1174 C1175 1.367 . S
C1175 C1174 1.367 . S
C1175 C1177 1.433 . S
C1176 C1172 1.350 . S
C1176 C1173 1.463 1_556 S
C1176 N1180 1.427 . S
C1177 H1167 0.929 . S
C1177 C1175 1.433 . S
C1177 N1180 1.384 . S
C1178 H1169 0.929 . S
C1178 C1170 1.378 . S
C1178 C1173 1.350 . S
C1179 H1166 0.929 . S
C1179 C1171 1.433 . S
C1179 N1181 1.384 1_554 S
N1180 C1176 1.427 . S
N1180 C1177 1.384 . S
N1181 C1173 1.427 1_556 S
N1181 C1179 1.384 1_556 S
H1182 C1188 0.930 . S
H1183 C1192 0.930 . S
H1184 C1197 0.929 . S
H1185 C1195 0.929 . S
H1186 C1190 0.929 . S
H1187 C1196 0.929 . S
C1188 H1182 0.930 . S
C1188 C1189 1.367 . S
C1188 C1196 1.378 . S
C1189 C1188 1.367 . S
C1189 C1197 1.433 . S
C1190 H1186 0.929 . S
C1190 C1192 1.378 . S
C1190 C1194 1.350 . S
C1191 C1194 1.463 . S
C1191 C1196 1.350 . S
C1191 N1199 1.427 . S
C1192 H1183 0.930 . S
C1192 C1190 1.378 . S
C1192 C1193 1.367 . S
C1193 C1192 1.367 . S
C1193 C1195 1.433 . S
C1194 C1190 1.350 . S
C1194 C1191 1.463 . S
C1194 N1198 1.427 . S
C1195 H1185 0.929 . S
C1195 C1193 1.433 . S
C1195 N1198 1.384 . S
C1196 H1187 0.929 . S
C1196 C1188 1.378 . S
C1196 C1191 1.350 . S
C1197 H1184 0.929 . S
C1197 C1189 1.433 . S
C1197 N1199 1.384 . S
N1198 C1194 1.427 . S
N1198 C1195 1.384 . S
N1199 C1191 1.427 . S
N1199 C1197 1.384 . S
H1200 C1206 0.930 . S
H1201 C1210 0.930 . S
H1202 C1215 0.929 . S
H1203 C1213 0.929 . S
H1204 C1208 0.929 . S
H1205 C1214 0.929 . S
C1206 H1200 0.930 . S
C1206 C1207 1.367 . S
C1206 C1214 1.378 . S
C1207 C1206 1.367 . S
C1207 C1215 1.433 . S
C1208 H1204 0.929 . S
C1208 C1210 1.378 . S
C1208 C1212 1.350 . S
C1209 C1212 1.463 . S
C1209 C1214 1.350 . S
C1209 N1217 1.427 . S
C1210 H1201 0.930 . S
C1210 C1208 1.378 . S
C1210 C1211 1.367 . S
C1211 C1210 1.367 . S
C1211 C1213 1.433 . S
C1212 C1208 1.350 . S
C1212 C1209 1.463 . S
C1212 N1216 1.427 . S
C1213 H1203 0.929 . S
C1213 C1211 1.433 . S
C1213 N1216 1.384 . S
C1214 H1205 0.929 . S
C1214 C1206 1.378 . S
C1214 C1209 1.350 . S
C1215 H1202 0.929 . S
C1215 C1207 1.433 . S
C1215 N1217 1.384 . S
N1216 C1212 1.427 . S
N1216 C1213 1.384 . S
N1217 C1209 1.427 . S
N1217 C1215 1.384 . S
H1218 C1224 0.930 . S
H1219 C1228 0.930 . S
H1220 C1233 0.929 . S
H1221 C1231 0.929 . S
H1222 C1226 0.929 . S
H1223 C1232 0.929 . S
C1224 H1218 0.930 . S
C1224 C1225 1.367 . S
C1224 C1232 1.378 . S
C1225 C1224 1.367 . S
C1225 C1233 1.433 . S
C1226 H1222 0.929 . S
C1226 C1228 1.378 . S
C1226 C1230 1.350 . S
C1227 C1230 1.463 . S
C1227 C1232 1.350 . S
C1227 N1235 1.427 . S
C1228 H1219 0.930 . S
C1228 C1226 1.378 . S
C1228 C1229 1.367 . S
C1229 C1228 1.367 . S
C1229 C1231 1.433 . S
C1230 C1226 1.350 . S
C1230 C1227 1.463 . S
C1230 N1234 1.427 . S
C1231 H1221 0.929 . S
C1231 C1229 1.433 . S
C1231 N1234 1.384 . S
C1232 H1223 0.929 . S
C1232 C1224 1.378 . S
C1232 C1227 1.350 . S
C1233 H1220 0.929 . S
C1233 C1225 1.433 . S
C1233 N1235 1.384 . S
N1234 C1230 1.427 . S
N1234 C1231 1.384 . S
N1235 C1227 1.427 . S
N1235 C1233 1.384 . S
H1236 C1242 0.930 . S
H1237 C1246 0.930 . S
H1238 C1251 0.929 . S
H1239 C1249 0.929 . S
H1240 C1244 0.929 . S
H1241 C1250 0.929 . S
C1242 H1236 0.930 . S
C1242 C1243 1.367 . S
C1242 C1250 1.378 . S
C1243 C1242 1.367 . S
C1243 C1251 1.433 . S
C1244 H1240 0.929 . S
C1244 C1246 1.378 . S
C1244 C1248 1.350 . S
C1245 C1248 1.463 . S
C1245 C1250 1.350 . S
C1245 N1253 1.427 . S
C1246 H1237 0.930 . S
C1246 C1244 1.378 . S
C1246 C1247 1.367 . S
C1247 C1246 1.367 . S
C1247 C1249 1.433 . S
C1248 C1244 1.350 . S
C1248 C1245 1.463 . S
C1248 N1252 1.427 . S
C1249 H1239 0.929 . S
C1249 C1247 1.433 . S
C1249 N1252 1.384 . S
C1250 H1241 0.929 . S
C1250 C1242 1.378 . S
C1250 C1245 1.350 . S
C1251 H1238 0.929 . S
C1251 C1243 1.433 . S
C1251 N1253 1.384 . S
N1252 C1248 1.427 . S
N1252 C1249 1.384 . S
N1253 C1245 1.427 . S
N1253 C1251 1.384 . S
H1254 C1260 0.930 . S
H1255 C1264 0.930 . S
H1256 C1269 0.929 . S
H1257 C1267 0.929 . S
H1258 C1262 0.929 . S
H1259 C1268 0.929 . S
C1260 H1254 0.930 . S
C1260 C1261 1.367 . S
C1260 C1268 1.378 . S
C1261 C1260 1.367 . S
C1261 C1269 1.433 . S
C1262 H1258 0.929 . S
C1262 C1264 1.378 . S
C1262 C1266 1.350 . S
C1263 C1266 1.463 . S
C1263 C1268 1.350 . S
C1263 N1271 1.427 . S
C1264 H1255 0.930 . S
C1264 C1262 1.378 . S
C1264 C1265 1.367 . S
C1265 C1264 1.367 . S
C1265 C1267 1.433 . S
C1266 C1262 1.350 . S
C1266 C1263 1.463 . S
C1266 N1270 1.427 . S
C1267 H1257 0.929 . S
C1267 C1265 1.433 . S
C1267 N1270 1.384 . S
C1268 H1259 0.929 . S
C1268 C1260 1.378 . S
C1268 C1263 1.350 . S
C1269 H1256 0.929 . S
C1269 C1261 1.433 . S
C1269 N1271 1.384 . S
N1270 C1266 1.427 . S
N1270 C1267 1.384 . S
N1271 C1263 1.427 . S
N1271 C1269 1.384 . S
H1272 C1278 0.930 . S
H1273 C1282 0.930 . S
H1274 C1287 0.929 . S
H1275 C1285 0.929 . S
H1276 C1280 0.929 . S
H1277 C1286 0.929 . S
C1278 H1272 0.930 . S
C1278 C1279 1.367 . S
C1278 C1286 1.378 . S
C1279 C1278 1.367 . S
C1279 C1287 1.433 . S
C1280 H1276 0.929 . S
C1280 C1282 1.378 . S
C1280 C1284 1.350 . S
C1281 C1284 1.463 . S
C1281 C1286 1.350 . S
C1281 N1289 1.427 . S
C1282 H1273 0.930 . S
C1282 C1280 1.378 . S
C1282 C1283 1.367 . S
C1283 C1282 1.367 . S
C1283 C1285 1.433 . S
C1284 C1280 1.350 . S
C1284 C1281 1.463 . S
C1284 N1288 1.427 . S
C1285 H1275 0.929 . S
C1285 C1283 1.433 . S
C1285 N1288 1.384 . S
C1286 H1277 0.929 . S
C1286 C1278 1.378 . S
C1286 C1281 1.350 . S
C1287 H1274 0.929 . S
C1287 C1279 1.433 . S
C1287 N1289 1.384 . S
N1288 C1284 1.427 . S
N1288 C1285 1.384 . S
N1289 C1281 1.427 . S
N1289 C1287 1.384 . S
H1290 C1296 0.930 . S
H1291 C1300 0.930 . S
H1292 C1305 0.929 . S
H1293 C1303 0.929 . S
H1294 C1298 0.962 . S
H1295 C1304 0.966 . S
C1296 H1290 0.930 . S
C1296 C1297 1.367 . S
C1296 C1304 1.346 1_556 S
C1297 C1296 1.367 . S
C1297 C1305 1.433 . S
C1298 H1294 0.962 . S
C1298 C1300 1.378 . S
C1298 C1302 1.350 . S
C1299 C1302 1.448 1_556 S
C1299 C1304 1.346 1_556 S
C1299 N1307 1.444 . S
C1300 H1291 0.930 . S
C1300 C1298 1.378 . S
C1300 C1301 1.367 . S
C1301 C1300 1.367 . S
C1301 C1303 1.433 . S
C1302 C1298 1.350 . S
C1302 C1299 1.448 1_554 S
C1302 N1306 1.427 . S
C1303 H1293 0.929 . S
C1303 C1301 1.433 . S
C1303 N1306 1.384 . S
C1304 H1295 0.966 . S
C1304 C1296 1.346 1_554 S
C1304 C1299 1.346 1_554 S
C1305 H1292 0.929 . S
C1305 C1297 1.433 . S
C1305 N1307 1.384 . S
N1306 C1302 1.427 . S
N1306 C1303 1.384 . S
N1307 C1299 1.444 . S
N1307 C1305 1.384 . S
H1308 C1314 0.930 . S
H1309 C1318 0.930 . S
H1310 C1323 0.929 . S
H1311 C1321 0.929 . S
H1312 C1316 0.929 . S
H1313 C1322 0.929 . S
C1314 H1308 0.930 . S
C1314 C1315 1.367 . S
C1314 C1322 1.378 . S
C1315 C1314 1.367 . S
C1315 C1323 1.433 . S
C1316 H1312 0.929 . S
C1316 C1318 1.378 . S
C1316 C1320 1.350 . S
C1317 C1320 1.463 . S
C1317 C1322 1.350 . S
C1317 N1325 1.427 . S
C1318 H1309 0.930 . S
C1318 C1316 1.378 . S
C1318 C1319 1.367 . S
C1319 C1318 1.367 . S
C1319 C1321 1.433 . S
C1320 C1316 1.350 . S
C1320 C1317 1.463 . S
C1320 N1324 1.427 . S
C1321 H1311 0.929 . S
C1321 C1319 1.433 . S
C1321 N1324 1.384 . S
C1322 H1313 0.929 . S
C1322 C1314 1.378 . S
C1322 C1317 1.350 . S
C1323 H1310 0.929 . S
C1323 C1315 1.433 . S
C1323 N1325 1.384 . S
N1324 C1320 1.427 . S
N1324 C1321 1.384 . S
N1325 C1317 1.427 . S
N1325 C1323 1.384 . S
H1326 C1332 0.930 . S
H1327 C1336 0.930 . S
H1328 C1341 0.929 . S
H1329 C1339 0.929 . S
H1330 C1334 0.929 . S
H1331 C1340 0.929 . S
C1332 H1326 0.930 . S
C1332 C1333 1.367 . S
C1332 C1340 1.378 . S
C1333 C1332 1.367 . S
C1333 C1341 1.433 . S
C1334 H1330 0.929 . S
C1334 C1336 1.378 . S
C1334 C1338 1.350 . S
C1335 C1338 1.463 . S
C1335 C1340 1.350 . S
C1335 N1343 1.427 . S
C1336 H1327 0.930 . S
C1336 C1334 1.378 . S
C1336 C1337 1.367 . S
C1337 C1336 1.367 . S
C1337 C1339 1.433 . S
C1338 C1334 1.350 . S
C1338 C1335 1.463 . S
C1338 N1342 1.427 . S
C1339 H1329 0.929 . S
C1339 C1337 1.433 . S
C1339 N1342 1.384 . S
C1340 H1331 0.929 . S
C1340 C1332 1.378 . S
C1340 C1335 1.350 . S
C1341 H1328 0.929 . S
C1341 C1333 1.433 . S
C1341 N1343 1.384 . S
N1342 C1338 1.427 . S
N1342 C1339 1.384 . S
N1343 C1335 1.427 . S
N1343 C1341 1.384 . S
H1344 C1350 0.930 . S
H1345 C1354 0.930 . S
H1346 C1359 0.929 . S
H1347 C1357 0.929 . S
H1348 C1352 0.929 . S
H1349 C1358 0.929 . S
C1350 H1344 0.930 . S
C1350 C1351 1.367 . S
C1350 C1358 1.378 . S
C1351 C1350 1.367 . S
C1351 C1359 1.433 . S
C1352 H1348 0.929 . S
C1352 C1354 1.378 . S
C1352 C1356 1.350 . S
C1353 C1356 1.463 . S
C1353 C1358 1.350 . S
C1353 N1361 1.427 . S
C1354 H1345 0.930 . S
C1354 C1352 1.378 . S
C1354 C1355 1.367 . S
C1355 C1354 1.367 . S
C1355 C1357 1.433 . S
C1356 C1352 1.350 . S
C1356 C1353 1.463 . S
C1356 N1360 1.427 . S
C1357 H1347 0.929 . S
C1357 C1355 1.433 . S
C1357 N1360 1.384 . S
C1358 H1349 0.929 . S
C1358 C1350 1.378 . S
C1358 C1353 1.350 . S
C1359 H1346 0.929 . S
C1359 C1351 1.433 . S
C1359 N1361 1.384 . S
N1360 C1356 1.427 . S
N1360 C1357 1.384 . S
N1361 C1353 1.427 . S
N1361 C1359 1.384 . S
H1362 C1368 0.930 . S
H1363 C1372 0.930 . S
H1364 C1377 0.929 . S
H1365 C1375 0.929 . S
H1366 C1370 0.929 . S
H1367 C1376 0.929 . S
C1368 H1362 0.930 . S
C1368 C1369 1.367 . S
C1368 C1376 1.378 . S
C1369 C1368 1.367 . S
C1369 C1377 1.433 . S
C1370 H1366 0.929 . S
C1370 C1372 1.378 . S
C1370 C1374 1.350 . S
C1371 C1374 1.463 . S
C1371 C1376 1.350 . S
C1371 N1379 1.427 . S
C1372 H1363 0.930 . S
C1372 C1370 1.378 . S
C1372 C1373 1.367 . S
C1373 C1372 1.367 . S
C1373 C1375 1.433 . S
C1374 C1370 1.350 . S
C1374 C1371 1.463 . S
C1374 N1378 1.427 . S
C1375 H1365 0.929 . S
C1375 C1373 1.433 . S
C1375 N1378 1.384 . S
C1376 H1367 0.929 . S
C1376 C1368 1.378 . S
C1376 C1371 1.350 . S
C1377 H1364 0.929 . S
C1377 C1369 1.433 . S
C1377 N1379 1.384 . S
N1378 C1374 1.427 . S
N1378 C1375 1.384 . S
N1379 C1371 1.427 . S
N1379 C1377 1.384 . S
H1380 C1386 0.930 . S
H1381 C1390 0.930 . S
H1382 C1395 0.929 . S
H1383 C1393 0.929 . S
H1384 C1388 0.929 . S
H1385 C1394 0.929 . S
C1386 H1380 0.930 . S
C1386 C1387 1.367 . S
C1386 C1394 1.378 . S
C1387 C1386 1.367 . S
C1387 C1395 1.433 . S
C1388 H1384 0.929 . S
C1388 C1390 1.378 . S
C1388 C1392 1.350 . S
C1389 C1392 1.463 . S
C1389 C1394 1.350 . S
C1389 N1397 1.427 . S
C1390 H1381 0.930 . S
C1390 C1388 1.378 . S
C1390 C1391 1.367 . S
C1391 C1390 1.367 . S
C1391 C1393 1.433 . S
C1392 C1388 1.350 . S
C1392 C1389 1.463 . S
C1392 N1396 1.427 . S
C1393 H1383 0.929 . S
C1393 C1391 1.433 . S
C1393 N1396 1.384 . S
C1394 H1385 0.929 . S
C1394 C1386 1.378 . S
C1394 C1389 1.350 . S
C1395 H1382 0.929 . S
C1395 C1387 1.433 . S
C1395 N1397 1.384 . S
N1396 C1392 1.427 . S
N1396 C1393 1.384 . S
N1397 C1389 1.427 . S
N1397 C1395 1.384 . S
H1398 C1404 0.930 . S
H1399 C1408 0.930 . S
H1400 C1413 0.929 . S
H1401 C1411 0.929 . S
H1402 C1406 0.929 . S
H1403 C1412 0.929 . S
C1404 H1398 0.930 . S
C1404 C1405 1.367 . S
C1404 C1412 1.378 . S
C1405 C1404 1.367 . S
C1405 C1413 1.433 . S
C1406 H1402 0.929 . S
C1406 C1408 1.378 . S
C1406 C1410 1.350 . S
C1407 C1410 1.463 . S
C1407 C1412 1.350 . S
C1407 N1415 1.427 . S
C1408 H1399 0.930 . S
C1408 C1406 1.378 . S
C1408 C1409 1.367 . S
C1409 C1408 1.367 . S
C1409 C1411 1.433 . S
C1410 C1406 1.350 . S
C1410 C1407 1.463 . S
C1410 N1414 1.427 . S
C1411 H1401 0.929 . S
C1411 C1409 1.433 . S
C1411 N1414 1.384 . S
C1412 H1403 0.929 . S
C1412 C1404 1.378 . S
C1412 C1407 1.350 . S
C1413 H1400 0.929 . S
C1413 C1405 1.433 . S
C1413 N1415 1.384 . S
N1414 C1410 1.427 . S
N1414 C1411 1.384 . S
N1415 C1407 1.427 . S
N1415 C1413 1.384 . S
H1416 C1422 0.930 . S
H1417 C1426 0.930 . S
H1418 C1431 0.929 . S
H1419 C1429 0.929 . S
H1420 C1424 0.929 . S
H1421 C1430 0.929 . S
C1422 H1416 0.930 . S
C1422 C1423 1.367 . S
C1422 C1430 1.378 . S
C1423 C1422 1.367 . S
C1423 C1431 1.433 . S
C1424 H1420 0.929 . S
C1424 C1426 1.378 . S
C1424 C1428 1.350 . S
C1425 C1428 1.463 . S
C1425 C1430 1.350 . S
C1425 N1433 1.427 . S
C1426 H1417 0.930 . S
C1426 C1424 1.378 . S
C1426 C1427 1.367 . S
C1427 C1426 1.367 . S
C1427 C1429 1.433 . S
C1428 C1424 1.350 . S
C1428 C1425 1.463 . S
C1428 N1432 1.427 . S
C1429 H1419 0.929 . S
C1429 C1427 1.433 . S
C1429 N1432 1.384 . S
C1430 H1421 0.929 . S
C1430 C1422 1.378 . S
C1430 C1425 1.350 . S
C1431 H1418 0.929 . S
C1431 C1423 1.433 . S
C1431 N1433 1.384 . S
N1432 C1428 1.427 . S
N1432 C1429 1.384 . S
N1433 C1425 1.427 . S
N1433 C1431 1.384 . S
H1434 C1440 0.930 . S
H1435 C1444 0.930 . S
H1436 C1449 0.929 . S
H1437 C1447 0.929 . S
H1438 C1442 0.929 . S
H1439 C1448 0.929 . S
C1440 H1434 0.930 . S
C1440 C1441 1.367 . S
C1440 C1448 1.378 . S
C1441 C1440 1.367 . S
C1441 C1449 1.433 . S
C1442 H1438 0.929 . S
C1442 C1444 1.378 . S
C1442 C1446 1.350 . S
C1443 C1446 1.463 . S
C1443 C1448 1.350 . S
C1443 N1451 1.427 . S
C1444 H1435 0.930 . S
C1444 C1442 1.378 . S
C1444 C1445 1.367 . S
C1445 C1444 1.367 . S
C1445 C1447 1.433 . S
C1446 C1442 1.350 . S
C1446 C1443 1.463 . S
C1446 N1450 1.427 . S
C1447 H1437 0.929 . S
C1447 C1445 1.433 . S
C1447 N1450 1.384 . S
C1448 H1439 0.929 . S
C1448 C1440 1.378 . S
C1448 C1443 1.350 . S
C1449 H1436 0.929 . S
C1449 C1441 1.433 . S
C1449 N1451 1.384 . S
N1450 C1446 1.427 . S
N1450 C1447 1.384 . S
N1451 C1443 1.427 . S
N1451 C1449 1.384 . S
H1452 C1458 0.930 . S
H1453 C1462 0.930 . S
H1454 C1467 0.929 . S
H1455 C1465 0.929 . S
H1456 C1460 0.929 . S
H1457 C1466 0.929 . S
C1458 H1452 0.930 . S
C1458 C1459 1.367 . S
C1458 C1466 1.378 . S
C1459 C1458 1.367 . S
C1459 C1467 1.433 . S
C1460 H1456 0.929 . S
C1460 C1462 1.378 . S
C1460 C1464 1.350 . S
C1461 C1464 1.463 . S
C1461 C1466 1.350 . S
C1461 N1469 1.427 . S
C1462 H1453 0.930 . S
C1462 C1460 1.378 . S
C1462 C1463 1.367 . S
C1463 C1462 1.367 . S
C1463 C1465 1.433 . S
C1464 C1460 1.350 . S
C1464 C1461 1.463 . S
C1464 N1468 1.427 . S
C1465 H1455 0.929 . S
C1465 C1463 1.433 . S
C1465 N1468 1.384 . S
C1466 H1457 0.929 . S
C1466 C1458 1.378 . S
C1466 C1461 1.350 . S
C1467 H1454 0.929 . S
C1467 C1459 1.433 . S
C1467 N1469 1.384 . S
N1468 C1464 1.427 . S
N1468 C1465 1.384 . S
N1469 C1461 1.427 . S
N1469 C1467 1.384 . S
H1470 C1476 0.930 . S
H1471 C1480 0.930 . S
H1472 C1485 0.929 . S
H1473 C1483 0.929 . S
H1474 C1478 0.929 . S
H1475 C1484 0.929 . S
C1476 H1470 0.930 . S
C1476 C1477 1.367 . S
C1476 C1484 1.378 . S
C1477 C1476 1.367 . S
C1477 C1485 1.433 . S
C1478 H1474 0.929 . S
C1478 C1480 1.378 . S
C1478 C1482 1.350 . S
C1479 C1482 1.463 . S
C1479 C1484 1.350 . S
C1479 N1487 1.427 . S
C1480 H1471 0.930 . S
C1480 C1478 1.378 . S
C1480 C1481 1.367 . S
C1481 C1480 1.367 . S
C1481 C1483 1.433 . S
C1482 C1478 1.350 . S
C1482 C1479 1.463 . S
C1482 N1486 1.427 . S
C1483 H1473 0.929 . S
C1483 C1481 1.433 . S
C1483 N1486 1.384 . S
C1484 H1475 0.929 . S
C1484 C1476 1.378 . S
C1484 C1479 1.350 . S
C1485 H1472 0.929 . S
C1485 C1477 1.433 . S
C1485 N1487 1.384 . S
N1486 C1482 1.427 . S
N1486 C1483 1.384 . S
N1487 C1479 1.427 . S
N1487 C1485 1.384 . S
C1063 C753 1.380 . S
C1067 C57 1.380 . S
C1081 C145 1.374 . S
C1085 C821 1.374 . S
C1099 C233 1.371 . S
C1103 C900 1.371 . S
C1117 C293 1.373 . S
C1121 C997 1.373 . S
C1135 C557 1.374 . S
C1139 C372 1.374 . S
C1153 C460 1.371 . S
C1157 C645 1.371 . S
C1171 C20 1.466 . S
C1175 C469 1.461 . S
C1189 C108 1.467 . S
C1193 C49 1.465 . S
C1207 C196 1.473 . S
C1211 C137 1.454 . S
C1225 C225 1.465 . S
C1229 C313 1.470 . S
C1243 C284 1.461 . S
C1247 C409 1.466 . S
C1261 C381 1.465 . S
C1265 C497 1.469 . S
C1279 C636 1.455 . S
C1283 C577 1.475 . S
C1297 C665 1.475 . S
C1301 C761 1.459 . S
C1315 C812 1.464 . S
C1319 C733 1.471 . S
C1333 C841 1.474 . S
C1337 C909 1.454 . S
C1351 C937 1.470 . S
C1355 C988 1.465 . S
C1369 C1017 1.466 . S
C1373 C548 1.465 . S
C1387 C929 1.144 . S
C1391 C29 1.140 . S
C1405 C1025 1.141 . S
C1409 C117 1.141 . S
C1423 C585 1.144 . S
C1427 C205 1.140 . S
C1441 C321 1.142 . S
C1445 C673 1.140 . S
C1459 C401 1.139 . S
C1463 C724 1.144 . S
C1477 C849 1.140 . S
C1481 C489 1.143 . S
