# Generated by pormake.
# Topology vbg, (5)-cn, num edge types: 1
# Building blocks:
#     Node 0, Type 0, BuildingBlock: XOMCOT_clean_sbu_0, # of connection points: 5
#     Node 1, Type 0, BuildingBlock: XOMCOT_clean_sbu_0, # of connection points: 5
#     Node 2, Type 0, BuildingBlock: XOMCOT_clean_sbu_0, # of connection points: 5
#     Node 3, Type 0, BuildingBlock: XOMCOT_clean_sbu_0, # of connection points: 5
#     Node 4, Type 0, BuildingBlock: XOMCOT_clean_sbu_0, # of connection points: 5
#     Node 5, Type 0, BuildingBlock: XOMCOT_clean_sbu_0, # of connection points: 5
#     Node 6, Type 0, BuildingBlock: XOMCOT_clean_sbu_0, # of connection points: 5
#     Node 7, Type 0, BuildingBlock: XOMCOT_clean_sbu_0, # of connection points: 5
#     Node 8, Type 0, BuildingBlock: XOMCOT_clean_sbu_0, # of connection points: 5
#     Node 9, Type 0, BuildingBlock: XOMCOT_clean_sbu_0, # of connection points: 5
#     Node 10, Type 0, BuildingBlock: XOMCOT_clean_sbu_0, # of connection points: 5
#     Node 11, Type 0, BuildingBlock: XOMCOT_clean_sbu_0, # of connection points: 5
#     Node 12, Type 0, BuildingBlock: XOMCOT_clean_sbu_0, # of connection points: 5
#     Node 13, Type 0, BuildingBlock: XOMCOT_clean_sbu_0, # of connection points: 5
#     Node 14, Type 0, BuildingBlock: XOMCOT_clean_sbu_0, # of connection points: 5
#     Node 15, Type 0, BuildingBlock: XOMCOT_clean_sbu_0, # of connection points: 5
#     Node 16, Type 0, BuildingBlock: XOMCOT_clean_sbu_0, # of connection points: 5
#     Node 17, Type 0, BuildingBlock: XOMCOT_clean_sbu_0, # of connection points: 5
#     Node 18, Type 0, BuildingBlock: XOMCOT_clean_sbu_0, # of connection points: 5
#     Node 19, Type 0, BuildingBlock: XOMCOT_clean_sbu_0, # of connection points: 5
#     Node 20, Type 0, BuildingBlock: XOMCOT_clean_sbu_0, # of connection points: 5
#     Node 21, Type 0, BuildingBlock: XOMCOT_clean_sbu_0, # of connection points: 5
#     Node 22, Type 0, BuildingBlock: XOMCOT_clean_sbu_0, # of connection points: 5
#     Node 23, Type 0, BuildingBlock: XOMCOT_clean_sbu_0, # of connection points: 5
#     Node 24, Type 0, BuildingBlock: XOMCOT_clean_sbu_0, # of connection points: 5
#     Node 25, Type 0, BuildingBlock: XOMCOT_clean_sbu_0, # of connection points: 5
#     Node 26, Type 0, BuildingBlock: XOMCOT_clean_sbu_0, # of connection points: 5
#     Node 27, Type 0, BuildingBlock: XOMCOT_clean_sbu_0, # of connection points: 5
#     Node 28, Type 0, BuildingBlock: XOMCOT_clean_sbu_0, # of connection points: 5
#     Node 29, Type 0, BuildingBlock: XOMCOT_clean_sbu_0, # of connection points: 5
#     Node 30, Type 0, BuildingBlock: XOMCOT_clean_sbu_0, # of connection points: 5
#     Node 31, Type 0, BuildingBlock: XOMCOT_clean_sbu_0, # of connection points: 5
#     Edge 32, Type (0, 0), BuildingBlock: AJUNOK_clean_linker_0, # of connection points: 2
#     Edge 33, Type (0, 0), BuildingBlock: AJUNOK_clean_linker_0, # of connection points: 2
#     Edge 34, Type (0, 0), BuildingBlock: AJUNOK_clean_linker_0, # of connection points: 2
#     Edge 35, Type (0, 0), BuildingBlock: AJUNOK_clean_linker_0, # of connection points: 2
#     Edge 36, Type (0, 0), BuildingBlock: AJUNOK_clean_linker_0, # of connection points: 2
#     Edge 37, Type (0, 0), BuildingBlock: AJUNOK_clean_linker_0, # of connection points: 2
#     Edge 38, Type (0, 0), BuildingBlock: AJUNOK_clean_linker_0, # of connection points: 2
#     Edge 39, Type (0, 0), BuildingBlock: AJUNOK_clean_linker_0, # of connection points: 2
#     Edge 40, Type (0, 0), BuildingBlock: AJUNOK_clean_linker_0, # of connection points: 2
#     Edge 41, Type (0, 0), BuildingBlock: AJUNOK_clean_linker_0, # of connection points: 2
#     Edge 42, Type (0, 0), BuildingBlock: AJUNOK_clean_linker_0, # of connection points: 2
#     Edge 43, Type (0, 0), BuildingBlock: AJUNOK_clean_linker_0, # of connection points: 2
#     Edge 44, Type (0, 0), BuildingBlock: AJUNOK_clean_linker_0, # of connection points: 2
#     Edge 45, Type (0, 0), BuildingBlock: AJUNOK_clean_linker_0, # of connection points: 2
#     Edge 46, Type (0, 0), BuildingBlock: AJUNOK_clean_linker_0, # of connection points: 2
#     Edge 47, Type (0, 0), BuildingBlock: AJUNOK_clean_linker_0, # of connection points: 2
#     Edge 48, Type (0, 0), BuildingBlock: AJUNOK_clean_linker_0, # of connection points: 2
#     Edge 49, Type (0, 0), BuildingBlock: AJUNOK_clean_linker_0, # of connection points: 2
#     Edge 50, Type (0, 0), BuildingBlock: AJUNOK_clean_linker_0, # of connection points: 2
#     Edge 51, Type (0, 0), BuildingBlock: AJUNOK_clean_linker_0, # of connection points: 2
#     Edge 52, Type (0, 0), BuildingBlock: AJUNOK_clean_linker_0, # of connection points: 2
#     Edge 53, Type (0, 0), BuildingBlock: AJUNOK_clean_linker_0, # of connection points: 2
#     Edge 54, Type (0, 0), BuildingBlock: AJUNOK_clean_linker_0, # of connection points: 2
#     Edge 55, Type (0, 0), BuildingBlock: AJUNOK_clean_linker_0, # of connection points: 2
#     Edge 56, Type (0, 0), BuildingBlock: AJUNOK_clean_linker_0, # of connection points: 2
#     Edge 57, Type (0, 0), BuildingBlock: AJUNOK_clean_linker_0, # of connection points: 2
#     Edge 58, Type (0, 0), BuildingBlock: AJUNOK_clean_linker_0, # of connection points: 2
#     Edge 59, Type (0, 0), BuildingBlock: AJUNOK_clean_linker_0, # of connection points: 2
#     Edge 60, Type (0, 0), BuildingBlock: AJUNOK_clean_linker_0, # of connection points: 2
#     Edge 61, Type (0, 0), BuildingBlock: AJUNOK_clean_linker_0, # of connection points: 2
#     Edge 62, Type (0, 0), BuildingBlock: AJUNOK_clean_linker_0, # of connection points: 2
#     Edge 63, Type (0, 0), BuildingBlock: AJUNOK_clean_linker_0, # of connection points: 2
#     Edge 64, Type (0, 0), BuildingBlock: AJUNOK_clean_linker_0, # of connection points: 2
#     Edge 65, Type (0, 0), BuildingBlock: AJUNOK_clean_linker_0, # of connection points: 2
#     Edge 66, Type (0, 0), BuildingBlock: AJUNOK_clean_linker_0, # of connection points: 2
#     Edge 67, Type (0, 0), BuildingBlock: AJUNOK_clean_linker_0, # of connection points: 2
#     Edge 68, Type (0, 0), BuildingBlock: AJUNOK_clean_linker_0, # of connection points: 2
#     Edge 69, Type (0, 0), BuildingBlock: AJUNOK_clean_linker_0, # of connection points: 2
#     Edge 70, Type (0, 0), BuildingBlock: AJUNOK_clean_linker_0, # of connection points: 2
#     Edge 71, Type (0, 0), BuildingBlock: AJUNOK_clean_linker_0, # of connection points: 2
#     Edge 72, Type (0, 0), BuildingBlock: AJUNOK_clean_linker_0, # of connection points: 2
#     Edge 73, Type (0, 0), BuildingBlock: AJUNOK_clean_linker_0, # of connection points: 2
#     Edge 74, Type (0, 0), BuildingBlock: AJUNOK_clean_linker_0, # of connection points: 2
#     Edge 75, Type (0, 0), BuildingBlock: AJUNOK_clean_linker_0, # of connection points: 2
#     Edge 76, Type (0, 0), BuildingBlock: AJUNOK_clean_linker_0, # of connection points: 2
#     Edge 77, Type (0, 0), BuildingBlock: AJUNOK_clean_linker_0, # of connection points: 2
#     Edge 78, Type (0, 0), BuildingBlock: AJUNOK_clean_linker_0, # of connection points: 2
#     Edge 79, Type (0, 0), BuildingBlock: AJUNOK_clean_linker_0, # of connection points: 2
#     Edge 80, Type (0, 0), BuildingBlock: AJUNOK_clean_linker_0, # of connection points: 2
#     Edge 81, Type (0, 0), BuildingBlock: AJUNOK_clean_linker_0, # of connection points: 2
#     Edge 82, Type (0, 0), BuildingBlock: AJUNOK_clean_linker_0, # of connection points: 2
#     Edge 83, Type (0, 0), BuildingBlock: AJUNOK_clean_linker_0, # of connection points: 2
#     Edge 84, Type (0, 0), BuildingBlock: AJUNOK_clean_linker_0, # of connection points: 2
#     Edge 85, Type (0, 0), BuildingBlock: AJUNOK_clean_linker_0, # of connection points: 2
#     Edge 86, Type (0, 0), BuildingBlock: AJUNOK_clean_linker_0, # of connection points: 2
#     Edge 87, Type (0, 0), BuildingBlock: AJUNOK_clean_linker_0, # of connection points: 2
#     Edge 88, Type (0, 0), BuildingBlock: AJUNOK_clean_linker_0, # of connection points: 2
#     Edge 89, Type (0, 0), BuildingBlock: AJUNOK_clean_linker_0, # of connection points: 2
#     Edge 90, Type (0, 0), BuildingBlock: AJUNOK_clean_linker_0, # of connection points: 2
#     Edge 91, Type (0, 0), BuildingBlock: AJUNOK_clean_linker_0, # of connection points: 2
#     Edge 92, Type (0, 0), BuildingBlock: AJUNOK_clean_linker_0, # of connection points: 2
#     Edge 93, Type (0, 0), BuildingBlock: AJUNOK_clean_linker_0, # of connection points: 2
#     Edge 94, Type (0, 0), BuildingBlock: AJUNOK_clean_linker_0, # of connection points: 2
#     Edge 95, Type (0, 0), BuildingBlock: AJUNOK_clean_linker_0, # of connection points: 2
#     Edge 96, Type (0, 0), BuildingBlock: AJUNOK_clean_linker_0, # of connection points: 2
#     Edge 97, Type (0, 0), BuildingBlock: AJUNOK_clean_linker_0, # of connection points: 2
#     Edge 98, Type (0, 0), BuildingBlock: AJUNOK_clean_linker_0, # of connection points: 2
#     Edge 99, Type (0, 0), BuildingBlock: AJUNOK_clean_linker_0, # of connection points: 2
#     Edge 100, Type (0, 0), BuildingBlock: AJUNOK_clean_linker_0, # of connection points: 2
#     Edge 101, Type (0, 0), BuildingBlock: AJUNOK_clean_linker_0, # of connection points: 2
#     Edge 102, Type (0, 0), BuildingBlock: AJUNOK_clean_linker_0, # of connection points: 2
#     Edge 103, Type (0, 0), BuildingBlock: AJUNOK_clean_linker_0, # of connection points: 2
#     Edge 104, Type (0, 0), BuildingBlock: AJUNOK_clean_linker_0, # of connection points: 2
#     Edge 105, Type (0, 0), BuildingBlock: AJUNOK_clean_linker_0, # of connection points: 2
#     Edge 106, Type (0, 0), BuildingBlock: AJUNOK_clean_linker_0, # of connection points: 2
#     Edge 107, Type (0, 0), BuildingBlock: AJUNOK_clean_linker_0, # of connection points: 2
#     Edge 108, Type (0, 0), BuildingBlock: AJUNOK_clean_linker_0, # of connection points: 2
#     Edge 109, Type (0, 0), BuildingBlock: AJUNOK_clean_linker_0, # of connection points: 2
#     Edge 110, Type (0, 0), BuildingBlock: AJUNOK_clean_linker_0, # of connection points: 2
#     Edge 111, Type (0, 0), BuildingBlock: AJUNOK_clean_linker_0, # of connection points: 2
# Relax obj value: 0.179
# Max RMSD: 0.193
# Mean RMSD: 0.193
data_MOF--net-vbg--node1-XOMCOT_clean_sbu_0--edge1-AJUNOK_clean_linker_0
_symmetry_space_group_name_H-M    P1
_symmetry_Int_Tables_number       1
_symmetry_cell_setting            triclinic
loop_
_symmetry_equiv_pos_as_xyz
'x, y, z'
_cell_length_a     75.03523
_cell_length_b     29.675655
_cell_length_c     31.395254
_cell_angle_alpha  90.001533
_cell_angle_beta   89.957228
_cell_angle_gamma 89.892556
loop_
_atom_site_label
_atom_site_type_symbol
_atom_site_fract_x
_atom_site_fract_y
_atom_site_fract_z
_atom_type_partial_charge
Co0 Co 0.03157 0.17689 0.43844 0.0
C1 C 0.0403 0.13747 0.51846 0.0
C2 C 0.01791 0.10452 0.49043 0.0
C3 C 0.01744 0.09742 0.53361 0.0
N4 N 0.03212 0.1304 0.48097 0.0
N5 N 0.03091 0.12075 0.55145 0.0
H6 H 0.05069 0.16242 0.52223 0.0
H7 H 1.00695 0.09795 0.46897 0.0
C8 C 0.02317 0.08724 0.3849 0.0
O9 O 0.02861 0.06031 0.41538 0.0
N10 N 0.03049 0.22432 0.39646 0.0
C11 C 0.0354 0.26794 0.40019 0.0
C12 C 0.03193 0.28965 0.36245 0.0
C13 C 0.02356 0.22073 0.35717 0.0
N14 N 0.02461 0.25966 0.33547 0.0
C15 C 0.06795 0.20428 0.43429 0.0
C16 C 0.08377 0.12429 0.41046 0.0
C17 C 0.0948 0.16127 0.42005 0.0
C18 C 0.08645 0.20188 0.43073 0.0
C19 C 0.065 0.12838 0.41375 0.0
N20 N 0.05721 0.16815 0.42593 0.0
H21 H 0.06243 0.23547 0.44552 0.0
H22 H 0.05705 0.09906 0.4079 0.0
H23 H 0.0407 0.28365 0.42849 0.0
H24 H 0.01691 0.19115 0.34527 0.0
O25 O 0.03471 0.22259 0.48357 0.0
O26 O 1.00852 0.19946 0.46409 0.0
O27 O 0.02354 0.13069 0.39048 0.0
C28 C 0.01775 0.22578 0.48931 0.0
H29 H 1.00661 0.08151 0.55066 0.0
H30 H 0.03432 0.32489 0.35567 0.0
H31 H 0.08958 0.09206 0.40209 0.0
H32 H 0.09422 0.23175 0.43754 0.0
Co33 Co 0.23623 0.1272 0.44104 0.0
C34 C 0.23536 0.16886 0.52357 0.0
C35 C 0.25694 0.19172 0.48542 0.0
C36 C 0.26224 0.19188 0.52731 0.0
N37 N 0.24046 0.17398 0.48272 0.0
N38 N 0.24881 0.17558 0.55142 0.0
H39 H 0.22302 0.1533 0.5323 0.0
H40 H 0.266 0.19447 0.45874 0.0
C41 C 0.24062 0.21352 0.38547 0.0
O42 O 0.23069 0.23383 0.41412 0.0
N43 N 0.23282 0.08059 0.39993 0.0
C44 C 0.22137 0.04563 0.40118 0.0
C45 C 0.22325 1.02124 0.36398 0.0
C46 C 0.24143 0.07728 0.36269 0.0
N47 N 0.23578 0.04169 0.34009 0.0
C48 C 0.19961 0.13141 0.46669 0.0
C49 C 0.18482 0.16237 0.39183 0.0
C50 C 0.17334 0.15188 0.42593 0.0
C51 C 0.18114 0.13548 0.46331 0.0
C52 C 0.20349 0.15741 0.39646 0.0
N53 N 0.21082 0.14355 0.43429 0.0
H54 H 0.20461 0.11566 0.49502 0.0
H55 H 0.21184 0.16301 0.36899 0.0
H56 H 0.21221 0.03874 0.42697 0.0
H57 H 0.25172 0.10024 0.35222 0.0
O58 O 0.23318 0.08195 0.48706 0.0
O59 O 0.25912 0.0981 0.46052 0.0
O60 O 0.24448 0.17132 0.39171 0.0
C61 C 0.25013 0.07482 0.48868 0.0
H62 H 0.27588 0.1964 0.53731 0.0
H63 H 0.21581 0.99158 0.35478 0.0
H64 H 0.17943 0.17385 0.36173 0.0
H65 H 0.17297 0.12419 0.48966 0.0
Co66 Co 0.03499 0.13347 0.82545 0.0
C67 C 0.04087 0.17454 0.74266 0.0
C68 C 0.02316 0.21476 0.77998 0.0
C69 C 0.02213 0.22877 0.73812 0.0
N70 N 0.03493 0.18039 0.78271 0.0
N71 N 0.03321 0.20282 0.71486 0.0
H72 H 0.04798 0.14505 0.73203 0.0
H73 H 0.01416 0.22496 0.8051 0.0
C74 C 0.03183 0.21861 0.88398 0.0
O75 O 0.04562 0.23549 0.86376 0.0
N76 N 0.03451 0.08695 0.86734 0.0
C77 C 0.04597 0.0524 0.87231 0.0
C78 C 0.04086 0.02823 0.90774 0.0
C79 C 0.02257 0.08336 0.89892 0.0
N80 N 0.02615 0.04791 0.92419 0.0
C81 C 0.07229 0.13576 0.80629 0.0
C82 C 0.08567 0.15213 0.8865 0.0
C83 C 0.09783 0.1441 0.85298 0.0
C84 C 0.09067 0.13658 0.8125 0.0
C85 C 0.06704 0.15154 0.87867 0.0
N86 N 0.06047 0.14409 0.83851 0.0
H87 H 0.06777 0.12556 0.77551 0.0
H88 H 0.05797 0.1552 0.90521 0.0
H89 H 0.05743 0.04599 0.85226 0.0
H90 H 0.01154 0.10643 0.9035 0.0
O91 O 0.03847 0.08663 0.78118 0.0
O92 O 0.01218 0.11011 0.80027 0.0
O93 O 0.02589 0.17949 0.87208 0.0
C94 C 0.02145 0.08344 0.77543 0.0
H95 H 0.01248 0.25221 0.72518 0.0
H96 H 0.04779 0.99957 0.9212 0.0
H97 H 0.09042 0.15698 0.91871 0.0
H98 H 0.09926 0.13001 0.78545 0.0
Co99 Co 0.23826 0.16677 0.82549 0.0
C100 C 0.23803 0.12265 0.74236 0.0
C101 C 0.2565 0.09155 0.7849 0.0
C102 C 0.26082 0.079 0.74391 0.0
N103 N 0.24223 0.11943 0.78401 0.0
N104 N 0.24913 0.09878 0.71744 0.0
H105 H 0.22926 0.14808 0.7294 0.0
H106 H 0.26496 0.08629 0.8123 0.0
C107 C 0.2422 0.0837 0.88418 0.0
O108 O 0.23007 0.065 0.85978 0.0
N109 N 0.23535 0.21407 0.8661 0.0
C110 C 0.22269 0.24628 0.86789 0.0
C111 C 0.22564 0.27194 0.90385 0.0
C112 C 0.2459 0.2207 0.89985 0.0
N113 N 0.24022 0.25548 0.92366 0.0
C114 C 0.20163 0.14689 0.80299 0.0
C115 C 0.18829 0.1424 0.88496 0.0
C116 C 0.1762 0.14103 0.85084 0.0
C117 C 0.18323 0.14243 0.80948 0.0
C118 C 0.20675 0.14589 0.87706 0.0
N119 N 0.21333 0.1484 0.83633 0.0
H120 H 0.20621 0.15165 0.77096 0.0
H121 H 0.21567 0.1488 0.90392 0.0
H122 H 0.21197 0.25023 0.84518 0.0
H123 H 0.25726 0.1997 0.90749 0.0
O124 O 0.23376 0.21098 0.77944 0.0
O125 O 0.26035 0.19702 0.80395 0.0
O126 O 0.24766 0.12392 0.87436 0.0
C127 C 0.25062 0.22002 0.77696 0.0
H128 H 0.27287 0.06179 0.73405 0.0
H129 H 0.21773 0.30031 0.91455 0.0
H130 H 0.18351 0.14141 0.91751 0.0
H131 H 0.17444 0.14221 0.78212 0.0
Co132 Co 0.98743 0.88331 0.57722 0.0
C133 C 0.98201 0.92168 0.49369 0.0
C134 C 1.00162 0.95869 0.52803 0.0
C135 C 1.00349 0.96808 0.48515 0.0
N136 N 0.9882 0.92891 0.53328 0.0
N137 N 0.99114 0.94423 0.46377 0.0
H138 H 0.97361 0.89371 0.48545 0.0
H139 H 0.01115 0.96757 0.55243 0.0
C140 C 0.99173 0.96961 0.63333 0.0
O141 O 0.97834 0.98724 0.61212 0.0
N142 N 0.98724 0.83785 0.6201 0.0
C143 C 0.97553 0.80385 0.62489 0.0
C144 C 0.97931 0.78209 0.6626 0.0
C145 C 0.998 0.8363 0.65406 0.0
N146 N 0.99326 0.80314 0.68085 0.0
C147 C 0.9497 0.8908 0.56055 0.0
C148 C 0.93827 0.90902 0.6423 0.0
C149 C 0.92544 0.90427 0.60999 0.0
C150 C 0.93147 0.89523 0.56879 0.0
C151 C 0.95663 0.90524 0.63241 0.0
N152 N 0.96227 0.89721 0.5915 0.0
H153 H 0.95343 0.87965 0.52941 0.0
H154 H 0.96622 0.90723 0.658 0.0
H155 H 0.96471 0.79647 0.60326 0.0
H156 H 1.00899 0.85918 0.65925 0.0
O157 O 0.98311 0.8357 0.53404 0.0
O158 O 1.00978 0.8573 0.55215 0.0
O159 O 0.99726 0.9297 0.62252 0.0
C160 C 1.0001 0.83115 0.52787 0.0
H161 H 0.01436 0.98646 0.47062 0.0
H162 H 0.97206 0.75408 0.67625 0.0
H163 H 0.93417 0.91521 0.67486 0.0
H164 H 0.92205 0.88995 0.54314 0.0
Co165 Co 0.78459 0.92027 0.58035 0.0
C166 C 0.79062 0.8788 0.49868 0.0
C167 C 0.76967 0.84579 0.53217 0.0
C168 C 0.76791 0.83652 0.48928 0.0
N169 N 0.78379 0.87326 0.53789 0.0
N170 N 0.78103 0.85815 0.46833 0.0
H171 H 0.79991 0.905 0.49096 0.0
H172 H 0.75964 0.83912 0.55609 0.0
C173 C 0.78069 0.83377 0.63601 0.0
O174 O 0.79276 0.8156 0.61101 0.0
N175 N 0.78475 0.96715 0.62174 0.0
C176 C 0.79649 1.00113 0.62599 0.0
C177 C 0.79182 0.02576 0.6615 0.0
C178 C 0.77309 0.97154 0.65374 0.0
N179 N 0.77705 1.00709 0.67847 0.0
C180 C 0.82219 0.92072 0.56257 0.0
C181 C 0.83487 0.89496 0.64126 0.0
C182 C 0.84733 0.90639 0.6094 0.0
C183 C 0.84054 0.91891 0.56963 0.0
C184 C 0.81633 0.89683 0.63263 0.0
N185 N 0.81009 0.90859 0.59308 0.0
H186 H 0.81794 0.9349 0.53291 0.0
H187 H 0.80712 0.89087 0.65844 0.0
H188 H 0.8078 1.00691 0.60534 0.0
H189 H 0.76234 0.94812 0.65973 0.0
O190 O 0.78801 0.96659 0.53538 0.0
O191 O 0.76177 0.94438 0.55575 0.0
O192 O 0.77563 0.87474 0.62772 0.0
C193 C 0.77099 0.97006 0.52999 0.0
H194 H 0.7566 0.82031 0.47439 0.0
H195 H 0.79882 0.05463 0.67425 0.0
H196 H 0.83932 0.88649 0.67307 0.0
H197 H 0.84938 0.92855 0.54392 0.0
Co198 Co 0.98731 0.92623 0.18509 0.0
C199 C 0.9827 0.88636 0.26839 0.0
C200 C 1.00353 0.85343 0.23422 0.0
C201 C 1.00555 0.84422 0.2771 0.0
N202 N 0.98924 0.88061 0.22887 0.0
N203 N 0.99243 0.86558 0.29839 0.0
H204 H 0.97345 0.91259 0.27664 0.0
H205 H 0.01337 0.84651 0.2099 0.0
C206 C 0.99229 0.84014 0.13028 0.0
O207 O 0.97992 0.82181 0.15427 0.0
N208 N 0.98608 0.97164 0.14217 0.0
C209 C 0.97365 1.00395 0.13677 0.0
C210 C 0.97711 0.02574 0.09882 0.0
C211 C 0.99694 0.97428 0.10839 0.0
N212 N 0.99159 1.00636 0.08104 0.0
C213 C 0.94983 0.91656 0.20329 0.0
C214 C 0.93814 0.89456 0.1227 0.0
C215 C 0.92549 0.89927 0.15547 0.0
C216 C 0.93165 0.91029 0.19605 0.0
C217 C 0.95649 0.9002 0.13162 0.0
N218 N 0.96229 0.9099 0.17206 0.0
H219 H 0.95353 0.92957 0.23375 0.0
H220 H 0.9659 0.89841 0.10562 0.0
H221 H 0.96257 1.01009 0.15807 0.0
H222 H 1.00843 0.95277 0.10367 0.0
O223 O 0.98233 0.97237 0.22892 0.0
O224 O 1.00932 0.95519 0.20922 0.0
O225 O 0.99742 0.88079 0.13926 0.0
C226 C 0.99919 0.97911 0.23463 0.0
H227 H 0.01692 0.82791 0.29172 0.0
H228 H 0.96928 0.0525 0.08465 0.0
H229 H 0.93389 0.88706 0.09052 0.0
H230 H 0.92233 0.91588 0.22192 0.0
Co231 Co 0.78513 0.87719 0.19133 0.0
C232 C 0.79048 0.91746 0.27382 0.0
C233 C 0.76999 0.95178 0.23977 0.0
C234 C 0.76814 0.96132 0.28262 0.0
N235 N 0.78392 0.92348 0.23443 0.0
N236 N 0.78103 0.93907 0.30386 0.0
H237 H 0.79946 0.89057 0.2819 0.0
H238 H 0.76018 0.95921 0.21554 0.0
C239 C 0.78104 0.96346 0.13461 0.0
O240 O 0.79378 0.98207 0.15723 0.0
N241 N 0.78586 0.83107 0.14924 0.0
C242 C 0.79766 0.79697 0.14578 0.0
C243 C 0.79456 0.77503 0.10783 0.0
C244 C 0.77573 0.82946 0.11426 0.0
N245 N 0.78096 0.79618 0.08813 0.0
C246 C 0.82277 0.88028 0.20911 0.0
C247 C 0.83484 0.90283 0.12893 0.0
C248 C 0.84754 0.89362 0.16082 0.0
C249 C 0.84107 0.8827 0.20137 0.0
C250 C 0.81641 0.90044 0.13825 0.0
N251 N 0.81045 0.89028 0.17845 0.0
H252 H 0.81874 0.86726 0.2394 0.0
H253 H 0.80703 0.90454 0.11247 0.0
H254 H 0.80813 0.7897 0.16844 0.0
H255 H 0.76487 0.85249 0.10776 0.0
O256 O 0.78879 0.83013 0.23563 0.0
O257 O 0.76246 0.85188 0.21508 0.0
O258 O 0.77584 0.92311 0.1448 0.0
C259 C 0.77174 0.82594 0.2405 0.0
H260 H 0.75695 0.97844 0.2973 0.0
H261 H 0.80205 0.74694 0.09497 0.0
H262 H 0.83904 0.90987 0.09662 0.0
H263 H 0.85014 0.87471 0.22712 0.0
Co264 Co 0.0348 0.67654 0.93734 0.0
C265 C 0.04048 0.63607 0.0199 0.0
C266 C 0.02133 0.59882 0.98415 0.0
C267 C 0.01956 0.58766 0.02658 0.0
N268 N 0.03435 0.62985 0.9801 0.0
N269 N 0.03136 0.61227 0.04899 0.0
H270 H 0.04897 0.66367 0.02889 0.0
H271 H 0.012 0.58987 0.95934 0.0
C272 C 0.03118 0.59038 0.8806 0.0
O273 O 0.0439 0.57188 0.90345 0.0
N274 N 0.03476 0.72302 0.89556 0.0
C275 C 0.04627 0.7575 0.89136 0.0
C276 C 0.04154 0.78181 0.85571 0.0
C277 C 0.0232 0.72669 0.8633 0.0
N278 N 0.02707 0.76213 0.83837 0.0
C279 C 0.07233 0.67626 0.95494 0.0
C280 C 0.08467 0.64971 0.87601 0.0
C281 C 0.09716 0.66038 0.9078 0.0
C282 C 0.09067 0.67394 0.94751 0.0
C283 C 0.06623 0.65327 0.88462 0.0
N284 N 0.06017 0.66495 0.92434 0.0
H285 H 0.0681 0.68954 0.98505 0.0
H286 H 0.05695 0.64815 0.85882 0.0
H287 H 0.05749 0.76382 0.91213 0.0
H288 H 0.01225 0.7037 0.85795 0.0
O289 O 0.03813 0.7233 0.98181 0.0
O290 O 0.01194 0.7004 0.96162 0.0
O291 O 0.02585 0.63071 0.89057 0.0
C292 C 0.02107 0.72666 0.98699 0.0
H293 H 1.00907 0.56717 0.04011 0.0
H294 H 0.04855 0.81054 0.84271 0.0
H295 H 0.08909 0.64029 0.8444 0.0
H296 H 0.09976 0.68332 0.97279 0.0
Co297 Co 0.23671 0.63194 0.94148 0.0
C298 C 0.22835 0.67044 0.02358 0.0
C299 C 0.24974 0.70565 0.99359 0.0
C300 C 0.25007 0.71505 0.03652 0.0
N301 N 0.23619 0.67709 0.98557 0.0
N302 N 0.2368 0.69188 0.05539 0.0
H303 H 0.21906 0.64355 0.02952 0.0
H304 H 0.26032 0.71337 0.97136 0.0
C305 C 0.24233 0.72166 0.89026 0.0
O306 O 0.23161 0.74213 0.91713 0.0
N307 N 0.23785 0.58703 0.89823 0.0
C308 C 0.2253 0.55734 0.88621 0.0
C309 C 0.23141 0.5351 0.8506 0.0
C310 C 0.25143 0.58207 0.87089 0.0
N311 N 0.24778 0.55107 0.84087 0.0
C312 C 0.19883 0.62756 0.95447 0.0
C313 C 0.18768 0.66612 0.87908 0.0
C314 C 0.17477 0.65094 0.90812 0.0
C315 C 0.18061 0.63125 0.94596 0.0
C316 C 0.20598 0.66125 0.88865 0.0
N317 N 0.21146 0.64345 0.92679 0.0
H318 H 0.2026 0.61004 0.983 0.0
H319 H 0.21555 0.67042 0.86459 0.0
H320 H 0.21245 0.55325 0.90129 0.0
H321 H 0.26363 0.60125 0.8731 0.0
O322 O 0.2329 0.58369 0.98437 0.0
O323 O 0.25928 0.60799 0.96754 0.0
O324 O 0.24592 0.67925 0.89613 0.0
C325 C 0.24983 0.58079 0.99135 0.0
H326 H 0.26071 0.73224 0.05316 0.0
H327 H 0.22407 0.51047 0.83224 0.0
H328 H 0.18368 0.68062 0.84891 0.0
H329 H 0.17109 0.61825 0.96884 0.0
Co330 Co 0.03188 0.63116 0.32675 0.0
C331 C 0.03879 0.67101 0.24531 0.0
C332 C 0.01777 0.70585 0.27742 0.0
C333 C 0.01658 0.71498 0.23449 0.0
N334 N 0.03152 0.67738 0.28394 0.0
N335 N 0.02946 0.69145 0.21432 0.0
H336 H 0.04851 0.64504 0.23881 0.0
H337 H 1.00767 0.71377 0.30086 0.0
C338 C 0.02716 0.71933 0.38139 0.0
O339 O 0.03834 0.73979 0.35565 0.0
N340 N 0.03196 0.5849 0.36862 0.0
C341 C 0.04312 0.54948 0.37204 0.0
C342 C 0.03844 0.52536 0.40779 0.0
C343 C 0.02062 0.5819 0.40138 0.0
N344 N 0.02433 0.54606 0.4259 0.0
C345 C 0.06906 0.62043 0.30992 0.0
C346 C 0.08348 0.66759 0.37703 0.0
C347 C 0.09519 0.64814 0.34697 0.0
C348 C 0.08746 0.62228 0.31468 0.0
C349 C 0.06477 0.66266 0.37245 0.0
N350 N 0.05763 0.64126 0.33767 0.0
H351 H 0.06427 0.60058 0.2838 0.0
H352 H 0.05629 0.6755 0.39734 0.0
H353 H 0.054 0.54211 0.35051 0.0
H354 H 1.00991 0.60554 0.4073 0.0
O355 O 0.03461 0.58425 0.28247 0.0
O356 O 1.00864 0.60764 0.30302 0.0
O357 O 0.0233 0.6774 0.3739 0.0
C358 C 0.01765 0.58091 0.27772 0.0
H359 H 1.00579 0.73289 0.21908 0.0
H360 H 0.04521 0.49593 0.42024 0.0
H361 H 0.08867 0.68642 0.4038 0.0
H362 H 0.09557 0.60298 0.29271 0.0
Co363 Co 0.23746 0.67583 0.32921 0.0
C364 C 0.22855 0.63185 0.25112 0.0
C365 C 0.25073 0.59938 0.28104 0.0
C366 C 0.25068 0.58811 0.2385 0.0
N367 N 0.23702 0.62765 0.28856 0.0
N368 N 0.23702 0.6099 0.21951 0.0
H369 H 0.21871 0.65778 0.24541 0.0
H370 H 0.26159 0.59335 0.30295 0.0
C371 C 0.24235 0.58899 0.38637 0.0
O372 O 0.23157 0.56684 0.36095 0.0
N373 N 0.23792 0.72441 0.36902 0.0
C374 C 0.22904 0.76392 0.36673 0.0
C375 C 0.23269 0.78842 0.40292 0.0
C376 C 0.24684 0.72527 0.40594 0.0
N377 N 0.24379 0.76371 0.42724 0.0
C378 C 0.20038 0.69335 0.31594 0.0
C379 C 0.18534 0.63899 0.37715 0.0
C380 C 0.17391 0.66254 0.34927 0.0
C381 C 0.18194 0.69199 0.32033 0.0
C382 C 0.2041 0.64336 0.37329 0.0
N383 N 0.21156 0.66832 0.34107 0.0
H384 H 0.20536 0.71571 0.29193 0.0
H385 H 0.21227 0.62707 0.39674 0.0
H386 H 0.22034 0.77396 0.34099 0.0
H387 H 0.25539 0.69847 0.41728 0.0
O388 O 0.23511 0.72029 0.2826 0.0
O389 O 0.26089 0.69692 0.30397 0.0
O390 O 0.2458 0.63101 0.37795 0.0
C391 C 0.25206 0.72292 0.27768 0.0
H392 H 0.26136 0.57093 0.22188 0.0
H393 H 0.22724 0.82104 0.41132 0.0
H394 H 0.1799 0.61722 0.40156 0.0
H395 H 0.17405 0.71417 0.30048 0.0
Co396 Co 0.98761 0.38279 0.07522 0.0
C397 C 0.98223 0.42589 0.99384 0.0
C398 C 1.00125 0.46195 0.03091 0.0
C399 C 1.00318 0.47443 0.98882 0.0
N400 N 0.98818 0.43085 0.03388 0.0
N401 N 0.99134 0.4508 0.96567 0.0
H402 H 0.97405 0.39813 0.98367 0.0
H403 H 1.01054 0.46996 0.05608 0.0
C404 C 0.99027 0.46695 0.13385 0.0
O405 O 0.97707 0.48416 0.11168 0.0
N406 N 0.98762 0.33494 0.11558 0.0
C407 C 0.9772 0.29798 0.1162 0.0
C408 C 0.98138 0.27326 0.15201 0.0
C409 C 0.99794 0.33246 0.1502 0.0
N410 N 0.99433 0.29541 0.17301 0.0
C411 C 0.94995 0.38951 0.05792 0.0
C412 C 0.93828 0.40339 0.14028 0.0
C413 C 0.92559 0.40075 0.10749 0.0
C414 C 0.93172 0.3937 0.066 0.0
C415 C 0.95661 0.39996 0.13058 0.0
N416 N 0.96236 0.39439 0.08941 0.0
H417 H 0.95382 0.38005 0.02636 0.0
H418 H 0.96612 0.40055 0.1564 0.0
H419 H 0.96706 0.29021 0.09288 0.0
H420 H 1.00778 0.35741 0.15896 0.0
O421 O 0.98405 0.33739 0.02963 0.0
O422 O 1.01038 0.35923 0.05002 0.0
O423 O 0.99643 0.42769 0.12283 0.0
C424 C 1.00111 0.33352 0.02442 0.0
H425 H 0.01383 0.49483 0.97587 0.0
H426 H 0.97502 0.24253 0.16264 0.0
H427 H 0.93407 0.40793 0.17301 0.0
H428 H 0.92237 0.3899 0.03996 0.0
Co429 Co 0.78541 0.41571 0.0753 0.0
C430 C 0.7918 0.37441 0.99318 0.0
C431 C 0.77225 0.33759 0.02811 0.0
C432 C 0.7713 0.32501 0.98582 0.0
N433 N 0.78509 0.36906 0.03251 0.0
N434 N 0.78362 0.34865 0.96406 0.0
H435 H 0.79982 0.40277 0.98392 0.0
H436 H 0.76255 0.3292 0.05231 0.0
C437 C 0.78235 0.32968 0.13228 0.0
O438 O 0.79561 0.31245 0.11027 0.0
N439 N 0.78531 0.46202 0.11727 0.0
C440 C 0.79655 0.49718 0.12073 0.0
C441 C 0.79284 0.51932 0.15829 0.0
C442 C 0.7749 0.4632 0.15188 0.0
N443 N 0.77942 0.49729 0.17777 0.0
C444 C 0.82295 0.4138 0.05784 0.0
C445 C 0.83521 0.39384 0.13845 0.0
C446 C 0.84778 0.40271 0.10618 0.0
C447 C 0.84124 0.41225 0.06545 0.0
C448 C 0.81676 0.39536 0.12926 0.0
N449 N 0.81074 0.40423 0.08885 0.0
H450 H 0.81883 0.42571 0.02725 0.0
H451 H 0.80739 0.39142 0.15512 0.0
H452 H 0.80703 0.50514 0.09831 0.0
H453 H 0.76434 0.43934 0.15824 0.0
O454 O 0.78901 0.46269 0.03113 0.0
O455 O 0.76266 0.43996 0.05035 0.0
O456 O 0.77644 0.36933 0.12167 0.0
C457 C 0.77199 0.46653 0.02563 0.0
H458 H 0.76094 0.30468 0.97152 0.0
H459 H 0.79981 0.54824 0.17103 0.0
H460 H 0.83952 0.3877 0.17083 0.0
H461 H 0.85024 0.41987 0.03943 0.0
Co462 Co 0.98778 0.42726 0.6892 0.0
C463 C 0.98213 0.38844 0.7714 0.0
C464 C 1.00283 0.35364 0.73819 0.0
C465 C 1.00474 0.34554 0.78116 0.0
N466 N 0.98885 0.38157 0.73237 0.0
N467 N 0.99206 0.36914 0.80199 0.0
H468 H 0.9724 0.41423 0.77816 0.0
H469 H 0.01259 0.34549 0.71402 0.0
C470 C 0.99149 0.33875 0.63518 0.0
O471 O 0.98014 0.31907 0.66105 0.0
N472 N 0.98698 0.47276 0.64663 0.0
C473 C 0.97552 0.50761 0.64339 0.0
C474 C 0.97866 0.52912 0.60525 0.0
C475 C 0.99696 0.47353 0.61134 0.0
N476 N 0.99195 0.507 0.58522 0.0
C477 C 0.95072 0.4359 0.7086 0.0
C478 C 0.9361 0.3904 0.64067 0.0
C479 C 0.92451 0.4081 0.67189 0.0
C480 C 0.93229 0.43321 0.70468 0.0
C481 C 0.95477 0.39613 0.64455 0.0
N482 N 0.96203 0.41634 0.67979 0.0
H483 H 0.95565 0.45552 0.73474 0.0
H484 H 0.96312 0.38499 0.6187 0.0
H485 H 0.96537 0.51604 0.66653 0.0
H486 H 1.00763 0.44996 0.6048 0.0
O487 O 0.98537 0.47482 0.73311 0.0
O488 O 0.01118 0.4514 0.7112 0.0
O489 O 0.9959 0.38033 0.64251 0.0
C490 C 1.0024 0.47818 0.73691 0.0
H491 H 0.0158 0.32805 0.79587 0.0
H492 H 0.97147 0.55782 0.59263 0.0
H493 H 0.93085 0.3724 0.61346 0.0
H494 H 0.92422 0.45142 0.72752 0.0
Co495 Co 0.78255 0.37252 0.68884 0.0
C496 C 0.79091 0.4131 0.76838 0.0
C497 C 0.76837 0.4453 0.73992 0.0
C498 C 0.76794 0.45309 0.78315 0.0
N499 N 0.78257 0.41907 0.73106 0.0
N500 N 0.78186 0.4314 0.80107 0.0
H501 H 0.8011 0.38778 0.77271 0.0
H502 H 0.7575 0.45164 0.7181 0.0
C503 C 0.77779 0.46117 0.63439 0.0
O504 O 0.78799 0.48278 0.66152 0.0
N505 N 0.78243 0.32579 0.64731 0.0
C506 C 0.79279 0.28867 0.64571 0.0
C507 C 0.78945 0.2667 0.60794 0.0
C508 C 0.77284 0.32582 0.6114 0.0
N509 N 0.77713 0.29072 0.58648 0.0
C510 C 0.81972 0.35662 0.70293 0.0
C511 C 0.83446 0.41243 0.64248 0.0
C512 C 0.846 0.38922 0.67031 0.0
C513 C 0.83815 0.35904 0.69888 0.0
C514 C 0.81576 0.40697 0.64595 0.0
N515 N 0.80843 0.38133 0.67783 0.0
H516 H 0.8148 0.33365 0.72654 0.0
H517 H 0.80754 0.42297 0.62242 0.0
H518 H 0.80233 0.27879 0.66974 0.0
H519 H 0.76295 0.35102 0.60352 0.0
O520 O 0.78487 0.32612 0.73389 0.0
O521 O 0.75911 0.35017 0.71289 0.0
O522 O 0.77444 0.41882 0.64126 0.0
C523 C 0.76789 0.32349 0.73863 0.0
H524 H 0.75686 0.46768 0.80049 0.0
H525 H 0.79589 0.23634 0.59653 0.0
H526 H 0.83976 0.43474 0.61833 0.0
H527 H 0.84617 0.337 0.71859 0.0
Co528 Co 0.53144 0.17336 0.9421 0.0
C529 C 0.53945 0.12997 0.02139 0.0
C530 C 0.51798 0.09652 0.98973 0.0
C531 C 0.51775 0.08452 0.03211 0.0
N532 N 0.53145 0.12573 0.98339 0.0
N533 N 0.53091 0.10707 0.05211 0.0
H534 H 0.54909 0.15597 0.02824 0.0
H535 H 0.50751 0.08977 0.96699 0.0
C536 C 0.52721 0.08631 0.8855 0.0
O537 O 0.5383 0.06532 0.91111 0.0
N538 N 0.53138 0.22119 0.90164 0.0
C539 C 0.54184 0.25805 0.90121 0.0
C540 C 0.53834 0.28191 0.86455 0.0
C541 C 0.52157 0.22315 0.8661 0.0
N542 N 0.52568 0.25954 0.84269 0.0
C543 C 0.5686 0.18632 0.9581 0.0
C544 C 0.58332 0.13697 0.89265 0.0
C545 C 0.59491 0.15727 0.92234 0.0
C546 C 0.58703 0.18441 0.9536 0.0
C547 C 0.5646 0.14217 0.89673 0.0
N548 N 0.55729 0.16441 0.9309 0.0
H549 H 0.56367 0.20683 0.98367 0.0
H550 H 0.55629 0.12879 0.87191 0.0
H551 H 0.55153 0.26655 0.92537 0.0
H552 H 0.51202 0.19774 0.85673 0.0
O553 O 0.53373 0.21869 0.98822 0.0
O554 O 0.50801 0.19552 0.96634 0.0
O555 O 0.52317 0.12807 0.89367 0.0
C556 C 0.51672 0.22148 0.9928 0.0
H557 H 0.50727 0.06573 0.04782 0.0
H558 H 0.54466 0.31295 0.85463 0.0
H559 H 0.5886 0.11723 0.86652 0.0
H560 H 0.59501 0.20458 0.975 0.0
Co561 Co 0.73714 0.12392 0.94023 0.0
C562 C 0.72965 0.16394 0.02144 0.0
C563 C 0.7499 0.20087 0.98869 0.0
C564 C 0.75069 0.21149 0.03133 0.0
N565 N 0.73686 0.17034 0.98278 0.0
N566 N 0.73839 0.18659 0.05201 0.0
H567 H 0.72056 0.13675 0.02839 0.0
H568 H 0.75985 0.20962 0.96519 0.0
C569 C 0.74084 0.21236 0.88519 0.0
O570 O 0.72949 0.23251 0.91079 0.0
N571 N 0.73761 0.07752 0.89832 0.0
C572 C 0.72664 0.04182 0.89481 0.0
C573 C 0.73079 1.01928 0.85776 0.0
C574 C 0.74838 0.07609 0.86432 0.0
N575 N 0.74437 0.04125 0.83881 0.0
C576 C 0.70005 0.11075 0.95689 0.0
C577 C 0.68515 0.15961 0.8914 0.0
C578 C 0.67365 0.13952 0.92146 0.0
C579 C 0.68161 0.1126 0.95272 0.0
C580 C 0.70389 0.15448 0.89516 0.0
N581 N 0.71127 0.13245 0.92932 0.0
H582 H 0.70507 0.09046 0.98251 0.0
H583 H 0.71216 0.16783 0.8702 0.0
H584 H 0.71618 0.0333 0.91709 0.0
H585 H 0.75855 0.10086 0.85755 0.0
O586 O 0.73498 0.07697 0.98484 0.0
O587 O 0.76065 0.10194 0.96434 0.0
O588 O 0.74513 0.17069 0.89299 0.0
C589 C 0.75197 0.07479 0.98985 0.0
H590 H 0.761 0.23136 0.04637 0.0
H591 H 0.72429 0.98944 0.84554 0.0
H592 H 0.67979 0.1792 0.86528 0.0
H593 H 0.67369 0.09261 0.97442 0.0
Co594 Co 0.53386 0.12563 0.33071 0.0
C595 C 0.54196 0.16253 0.24815 0.0
C596 C 0.52268 0.20317 0.2805 0.0
C597 C 0.52211 0.21333 0.23775 0.0
N598 N 0.535 0.17074 0.28684 0.0
N599 N 0.53378 0.18623 0.21734 0.0
H600 H 0.55044 0.13397 0.24145 0.0
H601 H 0.513 0.21398 0.3039 0.0
C602 C 0.531 0.21545 0.38366 0.0
O603 O 0.54289 0.23332 0.35802 0.0
N604 N 0.53238 0.08067 0.37393 0.0
C605 C 0.54342 0.04557 0.38071 0.0
C606 C 0.53808 1.02404 0.41741 0.0
C607 C 0.52042 0.07988 0.40567 0.0
N608 N 0.5236 0.0457 0.4327 0.0
C609 C 0.5709 0.11054 0.31513 0.0
C610 C 0.58591 0.15881 0.38077 0.0
C611 C 0.59735 0.13844 0.35068 0.0
C612 C 0.58933 0.11174 0.31942 0.0
C613 C 0.56714 0.15432 0.37688 0.0
N614 N 0.55973 0.13264 0.34259 0.0
H615 H 0.56588 0.09059 0.28934 0.0
H616 H 0.55885 0.16805 0.4017 0.0
H617 H 0.55475 0.03693 0.36105 0.0
H618 H 0.51007 0.10494 0.40991 0.0
O619 O 0.53606 0.07722 0.28756 0.0
O620 O 0.51044 0.10472 0.30556 0.0
O621 O 0.52594 0.17428 0.37645 0.0
C622 C 0.51916 0.07651 0.28107 0.0
H623 H 0.51237 0.23493 0.22256 0.0
H624 H 0.54447 0.99528 0.43218 0.0
H625 H 0.59134 0.17821 0.40691 0.0
H626 H 0.59722 0.09165 0.29766 0.0
Co627 Co 0.73959 0.16677 0.32613 0.0
C628 C 0.73143 0.12491 0.24641 0.0
C629 C 0.75273 0.09018 0.27758 0.0
C630 C 0.75304 0.0792 0.23499 0.0
N631 N 0.73932 0.11957 0.28442 0.0
N632 N 0.74006 0.1028 0.21524 0.0
H633 H 0.72184 0.15129 0.24013 0.0
H634 H 0.76315 0.0826 0.30027 0.0
C635 C 0.744 0.07892 0.38131 0.0
O636 O 0.73323 0.05849 0.35465 0.0
N637 N 0.73998 0.21419 0.36688 0.0
C638 C 0.7297 0.25146 0.36801 0.0
C639 C 0.73412 0.2758 0.40378 0.0
C640 C 0.75056 0.2163 0.40108 0.0
N641 N 0.74719 0.25336 0.42425 0.0
C642 C 0.7024 0.18127 0.31145 0.0
C643 C 0.68778 0.13126 0.37646 0.0
C644 C 0.67614 0.15288 0.34767 0.0
C645 C 0.684 0.18025 0.31665 0.0
C646 C 0.70652 0.13558 0.37178 0.0
N647 N 0.71375 0.15839 0.33789 0.0
H648 H 0.70727 0.20198 0.28599 0.0
H649 H 0.71488 0.12106 0.39594 0.0
H650 H 0.71955 0.25996 0.34494 0.0
H651 H 0.76047 0.19114 0.4091 0.0
O652 O 0.73713 0.21263 0.28068 0.0
O653 O 0.76296 0.18876 0.30128 0.0
O654 O 0.74789 0.12094 0.37415 0.0
C655 C 0.75409 0.21538 0.27562 0.0
H656 H 0.76344 0.06019 0.21916 0.0
H657 H 0.72783 0.30657 0.41466 0.0
H658 H 0.68254 0.11115 0.40234 0.0
H659 H 0.67602 0.20128 0.29593 0.0
Co660 Co 0.48891 0.88129 0.07601 0.0
C661 C 0.48574 0.92211 0.99357 0.0
C662 C 0.50867 0.9447 0.02716 0.0
C663 C 0.51244 0.94493 0.98425 0.0
N664 N 0.49227 0.92728 0.03319 0.0
N665 N 0.49821 0.9284 0.96328 0.0
H666 H 0.47287 0.90813 0.98721 0.0
H667 H 0.51858 0.9477 0.05199 0.0
C668 C 0.49356 0.96802 0.13126 0.0
O669 O 0.48287 0.98858 0.10442 0.0
N670 N 0.4861 0.83562 0.11797 0.0
C671 C 0.47362 0.80308 0.12004 0.0
C672 C 0.47531 0.7814 0.15869 0.0
C673 C 0.49524 0.83332 0.1544 0.0
N674 N 0.48871 0.80128 0.18012 0.0
C675 C 0.45171 0.88425 0.05451 0.0
C676 C 0.43867 0.91851 0.13004 0.0
C677 C 0.4264 0.90657 0.09811 0.0
C678 C 0.43332 0.88896 0.06012 0.0
C679 C 0.45712 0.9126 0.12328 0.0
N680 N 0.46361 0.89747 0.085 0.0
H681 H 0.45613 0.86717 0.02623 0.0
H682 H 0.46598 0.91846 0.14971 0.0
H683 H 0.46367 0.79664 0.09589 0.0
H684 H 0.50634 0.85502 0.16223 0.0
O685 O 0.48555 0.83473 0.03118 0.0
O686 O 0.51166 0.85246 0.05585 0.0
O687 O 0.49778 0.92628 0.12377 0.0
C688 C 0.50255 0.82795 0.02896 0.0
H689 H 0.52553 0.94994 0.97055 0.0
H690 H 0.46706 0.75435 0.17071 0.0
H691 H 0.43415 0.93192 0.16023 0.0
H692 H 0.42454 0.87723 0.03512 0.0
Co693 Co 0.28502 0.9263 0.08168 0.0
C694 C 0.30109 0.88973 1.00671 0.0
C695 C 0.27758 0.85275 0.02319 0.0
C696 C 0.2817 0.84421 0.98122 0.0
N697 N 0.28967 0.88183 0.03886 0.0
N698 N 0.2962 0.86862 0.9707 0.0
H699 H 0.31068 0.91689 1.00726 0.0
H700 H 0.2652 0.84409 0.03883 0.0
C701 C 0.2792 0.83388 0.13148 0.0
O702 O 0.28882 0.81168 0.10348 0.0
N703 N 0.28031 0.97152 0.12387 0.0
C704 C 0.28717 1.01337 0.12674 0.0
C705 C 0.28017 0.03398 0.16225 0.0
C706 C 0.26901 0.96757 0.15688 0.0
N707 N 0.2689 1.00486 0.18118 0.0
C708 C 0.32115 0.95766 0.08382 0.0
C709 C 0.33693 0.88721 0.12674 0.0
C710 C 0.34801 0.9204 0.10881 0.0
C711 C 0.33965 0.95662 0.08839 0.0
C712 C 0.31824 0.89003 0.1222 0.0
N713 N 0.31044 0.92414 0.09938 0.0
H714 H 0.31567 0.98531 0.06599 0.0
H715 H 0.31045 0.86406 0.13657 0.0
H716 H 0.29645 0.02827 0.10461 0.0
H717 H 0.26071 0.93849 0.16255 0.0
O718 O 0.28736 0.97393 0.03777 0.0
O719 O 0.26204 0.94229 0.05218 0.0
O720 O 0.27686 0.877 0.12648 0.0
C721 C 0.27061 0.97187 0.02901 0.0
H722 H 0.27305 0.82751 0.95861 0.0
H723 H 0.28327 0.06751 0.17359 0.0
H724 H 0.34259 0.85827 0.14281 0.0
H725 H 0.34741 0.98381 0.07479 0.0
Co726 Co 0.4874 0.9223 0.69006 0.0
C727 C 0.48676 0.87652 0.77205 0.0
C728 C 0.5059 0.84762 0.72973 0.0
C729 C 0.51015 0.83488 0.77065 0.0
N730 N 0.4913 0.87439 0.73062 0.0
N731 N 0.49804 0.8533 0.79693 0.0
H732 H 0.4777 0.90116 0.78512 0.0
H733 H 0.5146 0.84368 0.70253 0.0
C734 C 0.49142 0.8388 0.63087 0.0
O735 O 0.47989 0.81869 0.65596 0.0
N736 N 0.48456 0.96978 0.64968 0.0
C737 C 0.47162 1.00111 0.64646 0.0
C738 C 0.47483 0.02635 0.61028 0.0
C739 C 0.49546 0.97644 0.61654 0.0
N740 N 0.4898 1.01041 0.59171 0.0
C741 C 0.45084 0.90999 0.71487 0.0
C742 C 0.43658 0.89228 0.63567 0.0
C743 C 0.42481 0.89661 0.67048 0.0
C744 C 0.43239 0.90542 0.7104 0.0
C745 C 0.45515 0.8974 0.64153 0.0
N746 N 0.4622 0.90531 0.68111 0.0
H747 H 0.45575 0.92003 0.74549 0.0
H748 H 0.46373 0.89662 0.61389 0.0
H749 H 0.46054 1.00471 0.66826 0.0
H750 H 0.50705 0.9558 0.60999 0.0
O751 O 0.48353 0.96636 0.7367 0.0
O752 O 0.50987 0.95118 0.71157 0.0
O753 O 0.49623 0.87966 0.64032 0.0
C754 C 0.50046 0.97409 0.73931 0.0
H755 H 0.5224 0.81875 0.78073 0.0
H756 H 0.46679 0.054 0.59857 0.0
H757 H 0.43155 0.88536 0.60405 0.0
H758 H 0.42404 0.91058 0.73814 0.0
Co759 Co 0.283 0.88047 0.69314 0.0
C760 C 0.29881 0.92178 0.76567 0.0
C761 C 0.27327 0.951 0.75274 0.0
C762 C 0.27746 0.95858 0.79479 0.0
N763 N 0.28651 0.92686 0.73485 0.0
N764 N 0.29324 0.93854 0.80325 0.0
H765 H 0.31017 0.89962 0.7623 0.0
H766 H 0.2603 0.95614 0.7385 0.0
C767 C 0.27538 0.97078 0.64095 0.0
O768 O 0.2814 0.99595 0.67213 0.0
N769 N 0.27947 0.83284 0.65233 0.0
C770 C 0.2837 0.78875 0.65593 0.0
C771 C 0.27906 0.76716 0.61886 0.0
C772 C 0.27179 0.837 0.61388 0.0
N773 N 0.27175 0.79782 0.59245 0.0
C774 C 0.31888 0.84764 0.68472 0.0
C775 C 0.33517 0.92573 0.65754 0.0
C776 C 0.34602 0.88804 0.66621 0.0
C777 C 0.3374 0.8485 0.67931 0.0
C778 C 0.3165 0.92325 0.66284 0.0
N779 N 0.30844 0.8845 0.67658 0.0
H780 H 0.3131 0.8174 0.69749 0.0
H781 H 0.30886 0.9533 0.65769 0.0
H782 H 0.28953 0.77288 0.68359 0.0
H783 H 0.26567 0.86748 0.60223 0.0
O784 O 0.28562 0.83523 0.73912 0.0
O785 O 0.25987 0.86343 0.72114 0.0
O786 O 0.27506 0.9273 0.64572 0.0
C787 C 0.26863 0.83583 0.74602 0.0
H788 H 0.26833 0.97139 0.81864 0.0
H789 H 0.28093 0.73175 0.61186 0.0
H790 H 0.34105 0.95762 0.64857 0.0
H791 H 0.34497 0.81834 0.68647 0.0
Co792 Co 0.53348 0.67799 0.4356 0.0
C793 C 0.54409 0.63986 0.51502 0.0
C794 C 0.52051 0.60824 0.49118 0.0
C795 C 0.52108 0.60251 0.53461 0.0
N796 N 0.5347 0.63294 0.47918 0.0
N797 N 0.53559 0.62405 0.54964 0.0
H798 H 0.55541 0.66218 0.51649 0.0
H799 H 0.50905 0.60178 0.47124 0.0
C800 C 0.52747 0.5871 0.38483 0.0
O801 O 0.53723 0.56559 0.41301 0.0
N802 N 0.53203 0.72352 0.39308 0.0
C803 C 0.5422 0.76057 0.38848 0.0
C804 C 0.53603 0.78439 0.35392 0.0
C805 C 0.51973 0.72545 0.36228 0.0
N806 N 0.5219 0.76213 0.33782 0.0
C807 C 0.57068 0.69751 0.44493 0.0
C808 C 0.5852 0.63602 0.38908 0.0
C809 C 0.59686 0.66228 0.41393 0.0
C810 C 0.58913 0.69481 0.44038 0.0
C811 C 0.56648 0.64106 0.39337 0.0
N812 N 0.5593 0.67016 0.42273 0.0
H813 H 0.56578 0.7224 0.46684 0.0
H814 H 0.55812 0.62155 0.37273 0.0
H815 H 0.55326 0.76977 0.40866 0.0
H816 H 0.50931 0.70071 0.35803 0.0
O817 O 0.5358 0.72585 0.4793 0.0
O818 O 0.5101 0.69927 0.46053 0.0
O819 O 0.52503 0.63021 0.38964 0.0
C820 C 0.5188 0.72743 0.48486 0.0
H821 H 0.51031 0.58963 0.55406 0.0
H822 H 0.54176 0.81492 0.34102 0.0
H823 H 0.59043 0.61132 0.36695 0.0
H824 H 0.59728 0.71822 0.45819 0.0
Co825 Co 0.7385 0.622 0.4362 0.0
C826 C 0.72941 0.66368 0.51603 0.0
C827 C 0.75216 0.6953 0.48793 0.0
C828 C 0.75159 0.7064 0.5305 0.0
N829 N 0.73834 0.66788 0.47918 0.0
N830 N 0.73743 0.68564 0.54805 0.0
H831 H 0.71935 0.63837 0.52148 0.0
H832 H 0.76333 0.701 0.4668 0.0
C833 C 0.74358 0.71135 0.38406 0.0
O834 O 0.73271 0.73094 0.41118 0.0
N835 N 0.73882 0.5759 0.39405 0.0
C836 C 0.72808 0.53969 0.39115 0.0
C837 C 0.73285 0.51566 0.3554 0.0
C838 C 0.74998 0.57351 0.36084 0.0
N839 N 0.74659 0.53718 0.33666 0.0
C840 C 0.7011 0.6106 0.45082 0.0
C841 C 0.68726 0.66148 0.38535 0.0
C842 C 0.67534 0.64189 0.41472 0.0
C843 C 0.68271 0.61441 0.4463 0.0
C844 C 0.70591 0.65535 0.39011 0.0
N845 N 0.71278 0.63213 0.42419 0.0
H846 H 0.70569 0.58929 0.47617 0.0
H847 H 0.71455 0.6689 0.36595 0.0
H848 H 0.71746 0.53164 0.41312 0.0
H849 H 0.76038 0.59782 0.35443 0.0
O850 O 0.73558 0.57498 0.48041 0.0
O851 O 0.76162 0.59837 0.4608 0.0
O852 O 0.74729 0.66896 0.38976 0.0
C853 C 0.75253 0.57146 0.48565 0.0
H854 H 0.76222 0.7223 0.5483 0.0
H855 H 0.72641 0.48561 0.34344 0.0
H856 H 0.68227 0.68161 0.35917 0.0
H857 H 0.67428 0.59565 0.46797 0.0
Co858 Co 0.5354 0.6249 0.83215 0.0
C859 C 0.54429 0.66653 0.75186 0.0
C860 C 0.5221 0.69956 0.78115 0.0
C861 C 0.52246 0.71098 0.7386 0.0
N862 N 0.5357 0.67104 0.78918 0.0
N863 N 0.53627 0.68932 0.72034 0.0
H864 H 0.55403 0.64067 0.74558 0.0
H865 H 0.51116 0.70601 0.80279 0.0
C866 C 0.5307 0.7135 0.88513 0.0
O867 O 0.54237 0.73196 0.85932 0.0
N868 N 0.53494 0.57873 0.87424 0.0
C869 C 0.54618 0.54353 0.87813 0.0
C870 C 0.54196 0.5207 0.91493 0.0
C871 C 0.52397 0.57684 0.90786 0.0
N872 N 0.52808 0.54204 0.93341 0.0
C873 C 0.57323 0.61829 0.81808 0.0
C874 C 0.58521 0.65823 0.89195 0.0
C875 C 0.59788 0.64226 0.86251 0.0
C876 C 0.59155 0.62159 0.82555 0.0
C877 C 0.56679 0.65337 0.88358 0.0
N878 N 0.56088 0.63541 0.84591 0.0
H879 H 0.56917 0.6002 0.79011 0.0
H880 H 0.55749 0.66288 0.90816 0.0
H881 H 0.55689 0.53565 0.85627 0.0
H882 H 0.51359 0.60126 0.91432 0.0
O883 O 0.53874 0.57779 0.78787 0.0
O884 O 0.51254 0.60157 0.80685 0.0
O885 O 0.52625 0.67181 0.87828 0.0
C886 C 0.52173 0.57465 0.78213 0.0
H887 H 0.5119 0.72795 0.72138 0.0
H888 H 0.5486 0.49103 0.92726 0.0
H889 H 0.58949 0.67314 0.92171 0.0
H890 H 0.60075 0.60788 0.80228 0.0
Co891 Co 0.73822 0.67217 0.83136 0.0
C892 C 0.7285 0.63189 0.75176 0.0
C893 C 0.75233 0.6029 0.77706 0.0
C894 C 0.7524 0.59737 0.73355 0.0
N895 N 0.73765 0.62631 0.7882 0.0
N896 N 0.73769 0.61737 0.71765 0.0
H897 H 0.71668 0.65218 0.74934 0.0
H898 H 0.7637 0.59768 0.79765 0.0
C899 C 0.74368 0.58274 0.88345 0.0
O900 O 0.73235 0.56302 0.85761 0.0
N901 N 0.73908 0.71811 0.87349 0.0
C902 C 0.72817 0.75392 0.87781 0.0
C903 C 0.73349 0.77788 0.91311 0.0
C904 C 0.75088 0.72068 0.90532 0.0
N905 N 0.74774 0.75674 0.93006 0.0
C906 C 0.70042 0.68284 0.81934 0.0
C907 C 0.68827 0.63718 0.89007 0.0
C908 C 0.67569 0.65665 0.86245 0.0
C909 C 0.68209 0.68006 0.82703 0.0
C910 C 0.70671 0.64163 0.88165 0.0
N911 N 0.71269 0.66259 0.84542 0.0
H912 H 0.70458 0.70261 0.79241 0.0
H913 H 0.71594 0.6293 0.90514 0.0
H914 H 0.71704 0.76164 0.85721 0.0
H915 H 0.76152 0.69661 0.9104 0.0
O916 O 0.73525 0.71972 0.78717 0.0
O917 O 0.76122 0.69453 0.80622 0.0
O918 O 0.74735 0.62501 0.87711 0.0
C919 C 0.75228 0.72182 0.78143 0.0
H920 H 0.76365 0.58591 0.71481 0.0
H921 H 0.72705 0.80753 0.92608 0.0
H922 H 0.68392 0.61975 0.91853 0.0
H923 H 0.67293 0.69619 0.80513 0.0
Co924 Co 0.48886 0.37708 0.57938 0.0
C925 C 0.47981 0.41955 0.50056 0.0
C926 C 0.50216 0.45196 0.52951 0.0
C927 C 0.5021 0.4621 0.4867 0.0
N928 N 0.48834 0.42439 0.53782 0.0
N929 N 0.48827 0.4405 0.46843 0.0
H930 H 0.46989 0.39382 0.49536 0.0
H931 H 0.5131 0.45811 0.55115 0.0
C932 C 0.49394 0.46485 0.63514 0.0
O933 O 0.48314 0.48656 0.60937 0.0
N934 N 0.48958 0.3296 0.6201 0.0
C935 C 0.4791 0.29288 0.62235 0.0
C936 C 0.48368 0.26903 0.65833 0.0
C937 C 0.50048 0.32752 0.65377 0.0
N938 N 0.49716 0.29096 0.67765 0.0
C939 C 0.45156 0.3622 0.56579 0.0
C940 C 0.4372 0.41342 0.63036 0.0
C941 C 0.42534 0.39047 0.60296 0.0
C942 C 0.43314 0.36348 0.57136 0.0
C943 C 0.4559 0.40915 0.62508 0.0
N944 N 0.46302 0.38536 0.59167 0.0
H945 H 0.45637 0.34119 0.54043 0.0
H946 H 0.46436 0.42467 0.64843 0.0
H947 H 0.46866 0.2845 0.6 0.0
H948 H 0.51014 0.35319 0.66161 0.0
O949 O 0.48642 0.33126 0.53367 0.0
O950 O 0.51219 0.35568 0.55427 0.0
O951 O 0.49735 0.42265 0.62733 0.0
C952 C 0.50341 0.32918 0.52841 0.0
H953 H 0.51282 0.47842 0.46955 0.0
H954 H 0.47743 0.23853 0.66986 0.0
H955 H 0.43229 0.43496 0.65552 0.0
H956 H 0.42511 0.34282 0.55048 0.0
Co957 Co 0.28318 0.42553 0.58103 0.0
C958 C 0.28645 0.38049 0.4993 0.0
C959 C 0.26577 0.35141 0.53716 0.0
C960 C 0.26344 0.33797 0.49553 0.0
N961 N 0.28013 0.37865 0.53932 0.0
N962 N 0.27644 0.35674 0.47197 0.0
H963 H 0.29601 0.40506 0.48854 0.0
H964 H 0.25611 0.34721 0.56241 0.0
C965 C 0.27813 0.34029 0.6383 0.0
O966 O 0.28993 0.31952 0.61439 0.0
N967 N 0.28586 0.47202 0.62248 0.0
C968 C 0.29979 0.49999 0.62781 0.0
C969 C 0.29777 0.52178 0.66623 0.0
C970 C 0.27544 0.4776 0.65672 0.0
N971 N 0.28244 0.50749 0.68427 0.0
C972 C 0.3201 0.42174 0.55846 0.0
C973 C 0.3341 0.38898 0.63345 0.0
C974 C 0.34611 0.40168 0.60091 0.0
C975 C 0.33854 0.41892 0.56341 0.0
C976 C 0.31549 0.39452 0.6279 0.0
N977 N 0.30854 0.40922 0.58996 0.0
H978 H 0.31534 0.43702 0.52966 0.0
H979 H 0.30687 0.38833 0.65476 0.0
H980 H 0.31109 0.50245 0.60656 0.0
H981 H 0.26326 0.45895 0.66191 0.0
O982 O 0.28682 0.47097 0.53553 0.0
O983 O 0.26053 0.45419 0.55952 0.0
O984 O 0.2739 0.38167 0.62927 0.0
C985 C 0.26989 0.47823 0.53266 0.0
H986 H 0.25176 0.32143 0.48274 0.0
H987 H 0.30737 0.54424 0.68064 0.0
H988 H 0.33883 0.37512 0.6632 0.0
H989 H 0.34676 0.43173 0.53782 0.0
Co990 Co 0.48526 0.42353 0.19154 0.0
C991 C 0.47758 0.3835 0.27309 0.0
C992 C 0.49821 0.34726 0.24087 0.0
C993 C 0.49882 0.33647 0.28354 0.0
N994 N 0.48501 0.37743 0.23458 0.0
N995 N 0.48602 0.36021 0.30379 0.0
H996 H 0.4686 0.41087 0.28015 0.0
H997 H 0.50837 0.33904 0.21769 0.0
C998 C 0.48867 0.33536 0.13685 0.0
O999 O 0.47656 0.31693 0.16153 0.0
N1000 N 0.48582 0.46951 0.14933 0.0
C1001 C 0.47452 0.50443 0.14441 0.0
C1002 C 0.47959 0.52809 0.10867 0.0
C1003 C 0.49763 0.47238 0.11748 0.0
N1004 N 0.49416 0.50786 0.09222 0.0
C1005 C 0.44785 0.43237 0.20799 0.0
C1006 C 0.43426 0.39139 0.13634 0.0
C1007 C 0.4221 0.40837 0.16678 0.0
C1008 C 0.42945 0.43026 0.20222 0.0
C1009 C 0.45286 0.39612 0.1425 0.0
N1010 N 0.45958 0.41427 0.1793 0.0
H1011 H 0.45247 0.45035 0.2355 0.0
H1012 H 0.46165 0.38571 0.11719 0.0
H1013 H 0.46328 0.51168 0.16486 0.0
H1014 H 0.50816 0.44806 0.11206 0.0
O1015 O 0.48255 0.47107 0.23555 0.0
O1016 O 0.50846 0.44594 0.21603 0.0
O1017 O 0.49374 0.37631 0.1451 0.0
C1018 C 0.49957 0.47341 0.24083 0.0
H1019 H 0.50934 0.31766 0.2991 0.0
H1020 H 0.47302 0.55744 0.09548 0.0
H1021 H 0.42962 0.37428 0.10806 0.0
H1022 H 0.42105 0.44642 0.22577 0.0
Co1023 Co 0.2799 0.37408 0.18691 0.0
C1024 C 0.28715 0.41084 0.26944 0.0
C1025 C 0.26452 0.44189 0.24038 0.0
C1026 C 0.26275 0.44514 0.28384 0.0
N1027 N 0.27948 0.41854 0.23141 0.0
N1028 N 0.27665 0.42371 0.30206 0.0
H1029 H 0.2989 0.39046 0.27319 0.0
H1030 H 0.25398 0.44843 0.2177 0.0
C1031 C 0.27522 0.46497 0.13699 0.0
O1032 O 0.28562 0.48391 0.16544 0.0
N1033 N 0.27981 0.32965 0.14313 0.0
C1034 C 0.29136 0.29545 0.13714 0.0
C1035 C 0.2868 0.27362 0.10002 0.0
C1036 C 0.26832 0.32805 0.1105 0.0
N1037 N 0.27229 0.29419 0.0837 0.0
C1038 C 0.31728 0.36307 0.2026 0.0
C1039 C 0.33115 0.41326 0.13671 0.0
C1040 C 0.34319 0.39223 0.16504 0.0
C1041 C 0.3357 0.36585 0.19746 0.0
C1042 C 0.31251 0.40784 0.14191 0.0
N1043 N 0.30564 0.38466 0.17594 0.0
H1044 H 0.31258 0.3421 0.22812 0.0
H1045 H 0.30389 0.42184 0.11795 0.0
H1046 H 0.30247 0.28751 0.15775 0.0
H1047 H 0.25769 0.3522 0.10564 0.0
O1048 O 0.28255 0.32525 0.22984 0.0
O1049 O 0.25667 0.35007 0.21009 0.0
O1050 O 0.27147 0.4225 0.1415 0.0
C1051 C 0.26555 0.32258 0.23487 0.0
H1052 H 0.25085 0.45615 0.30038 0.0
H1053 H 0.29369 0.24527 0.08581 0.0
H1054 H 0.3359 0.43409 0.11086 0.0
H1055 H 0.344 0.34677 0.21914 0.0
C1056 C 1.00252 0.3191 0.24481 0.0
C1057 C 1.00165 0.28522 0.21372 0.0
C1058 C 1.01023 0.31066 0.28438 0.0
C1059 C 0.01752 0.2682 0.29385 0.0
H1060 H 0.997 0.35219 0.2385 0.0
H1061 H 1.01018 0.3373 0.30791 0.0
S1062 S 0.01999 0.16982 0.2208 0.0
N1063 N 1.00923 0.20882 0.19341 0.0
N1064 N 0.02455 0.1929 0.26739 0.0
C1065 C 0.01711 0.23434 0.26236 0.0
C1066 C 1.00893 0.24286 0.22235 0.0
C1067 C 0.25216 0.05496 0.2288 0.0
C1068 C 0.25909 1.01204 0.2198 0.0
C1069 C 0.24378 0.06379 0.2676 0.0
C1070 C 0.24196 0.02993 0.29852 0.0
H1071 H 0.25348 0.08204 0.20591 0.0
H1072 H 0.23902 0.0976 0.27401 0.0
S1073 S 0.25817 0.91241 0.29129 0.0
N1074 N 0.26384 0.93543 0.24533 0.0
N1075 N 0.24767 0.95225 0.31821 0.0
C1076 C 0.24833 0.98658 0.28964 0.0
C1077 C 0.25703 0.97756 0.25022 0.0
C1078 C 1.0018 0.06097 0.02769 0.0
C1079 C 0.99943 1.01613 0.04051 0.0
C1080 C 1.01048 0.07107 0.98946 0.0
C1081 C 0.01698 0.0366 0.96281 0.0
H1082 H 0.99735 0.08832 0.04794 0.0
H1083 H 0.01247 0.10612 0.98117 0.0
S1084 S 0.01202 0.91367 0.97972 0.0
N1085 N 1.0028 0.93692 0.02216 0.0
N1086 N 0.01914 0.95601 0.95013 0.0
C1087 C 0.01418 0.99161 0.97466 0.0
C1088 C 1.00536 0.98133 0.01357 0.0
C1089 C 0.27441 0.27584 1.00776 0.0
C1090 C 0.26392 0.28539 0.04363 0.0
C1091 C 0.26653 0.26787 0.96824 0.0
C1092 C 0.24792 0.269 0.96334 0.0
H1093 H 0.2888 0.27491 0.01027 0.0
H1094 H 0.27504 0.26036 0.94127 0.0
S1095 S 0.2146 0.29041 0.04813 0.0
N1096 N 0.23406 0.29462 0.07237 0.0
N1097 N 0.21918 0.27915 0.99777 0.0
C1098 C 0.23727 0.27881 0.99891 0.0
C1099 C 0.24531 0.28705 0.0392 0.0
C1100 C 0.01277 0.73874 0.77171 0.0
C1101 C 0.01838 0.77332 0.79924 0.0
C1102 C 1.00428 0.7487 0.7333 0.0
C1103 C 1.00119 0.79351 0.72124 0.0
H1104 H 0.01526 0.70377 0.77963 0.0
H1105 H 1.00046 0.72132 0.71243 0.0
S1106 S 0.01137 0.89587 0.78447 0.0
N1107 N 0.01905 0.85371 0.81354 0.0
N1108 N 1.00296 0.87263 0.74113 0.0
C1109 C 1.00629 0.82838 0.74897 0.0
C1110 C 0.01496 0.81821 0.78806 0.0
C1111 C 0.77081 0.03699 0.79308 0.0
C1112 C 0.7523 0.03238 0.79825 0.0
C1113 C 0.77881 0.03 0.75345 0.0
C1114 C 0.76852 1.01838 0.71781 0.0
H1115 H 0.77914 0.04542 0.82007 0.0
H1116 H 0.79317 0.03244 0.75089 0.0
S1117 S 0.71933 1.00796 0.71368 0.0
N1118 N 0.72375 1.0193 0.76407 0.0
N1119 N 0.73881 1.00638 0.68921 0.0
C1120 C 0.74994 1.01512 0.72229 0.0
C1121 C 0.74182 1.02201 0.76267 0.0
C1122 C 0.77029 0.74204 0.0352 0.0
C1123 C 0.77374 0.78669 0.04706 0.0
C1124 C 0.76191 0.73248 0.99659 0.0
C1125 C 0.7568 0.76735 0.96877 0.0
H1126 H 0.7736 0.71458 0.05651 0.0
H1127 H 0.75899 0.6977 0.98891 0.0
S1128 S 0.76528 0.88932 0.98273 0.0
N1129 N 0.77314 0.86573 0.02652 0.0
N1130 N 0.75726 0.8476 0.95371 0.0
C1131 C 0.76079 0.81199 0.97958 0.0
C1132 C 0.76934 0.82172 0.01883 0.0
C1133 C 0.25691 0.49658 0.78622 0.0
C1134 C 0.25821 0.53989 0.80388 0.0
C1135 C 0.26538 0.48591 0.74797 0.0
C1136 C 0.27539 0.51824 0.72562 0.0
H1137 H 0.24913 0.47078 0.80193 0.0
H1138 H 0.26392 0.45205 0.73566 0.0
S1139 S 0.28433 0.63561 0.75984 0.0
N1140 N 0.27136 0.61471 0.79742 0.0
N1141 N 0.28707 0.59455 0.72505 0.0
C1142 C 0.2775 0.56113 0.74375 0.0
C1143 C 0.26894 0.57201 0.78298 0.0
C1144 C 1.0027 0.56085 0.53213 0.0
C1145 C 0.99924 0.51625 0.54414 0.0
C1146 C 0.01091 0.5703 0.49329 0.0
C1147 C 0.01584 0.53538 0.46534 0.0
H1148 H 0.99947 0.5884 0.55342 0.0
H1149 H 0.01375 0.60508 0.4854 0.0
S1150 S 1.00756 0.41342 0.4799 0.0
N1151 N 0.99984 0.43711 0.52382 0.0
N1152 N 0.01542 0.45508 0.45055 0.0
C1153 C 0.01198 0.49075 0.47643 0.0
C1154 C 1.0036 0.48112 0.51594 0.0
C1155 C 0.24979 0.74046 0.50052 0.0
C1156 C 0.25022 0.77384 0.46886 0.0
C1157 C 0.25683 0.74858 0.54086 0.0
C1158 C 0.26469 0.7902 0.55066 0.0
H1159 H 0.24386 0.70794 0.49397 0.0
H1160 H 0.25596 0.72226 0.56463 0.0
S1161 S 0.27017 0.88735 0.4771 0.0
N1162 N 0.25944 0.84915 0.44882 0.0
N1163 N 0.27335 0.8644 0.5244 0.0
C1164 C 0.26538 0.82375 0.5189 0.0
C1165 C 0.25794 0.81556 0.47801 0.0
C1166 C 0.75962 0.56101 0.26867 0.0
C1167 C 0.75512 0.52633 0.29723 0.0
C1168 C 0.76788 0.55136 0.22988 0.0
C1169 C 0.77182 0.50678 0.21852 0.0
H1170 H 0.75642 0.59574 0.27607 0.0
H1171 H 0.77084 0.57871 0.20818 0.0
S1172 S 0.76466 0.40462 0.28435 0.0
N1173 N 0.75641 0.44631 0.31317 0.0
N1174 N 0.77204 0.428 0.23999 0.0
C1175 C 0.76784 0.4719 0.24726 0.0
C1176 C 0.75942 0.48173 0.28672 0.0
C1177 C 0.76563 0.23773 0.53363 0.0
C1178 C 0.7702 0.28185 0.54502 0.0
C1179 C 0.75805 0.22875 0.49401 0.0
C1180 C 0.75489 0.26364 0.46465 0.0
H1181 H 0.76757 0.21028 0.55588 0.0
H1182 H 0.75436 0.19439 0.48651 0.0
S1183 S 0.76636 0.3841 0.47765 0.0
N1184 N 0.77236 0.36031 0.523 0.0
N1185 N 0.75796 0.34319 0.44823 0.0
C1186 C 0.75975 0.30774 0.47529 0.0
C1187 C 0.76749 0.31692 0.5156 0.0
C1188 C 0.49372 0.26762 0.75203 0.0
C1189 C 0.50473 0.28167 0.71847 0.0
C1190 C 0.50063 0.26151 0.79286 0.0
C1191 C 0.51874 0.26929 0.80133 0.0
H1192 H 0.47962 0.26228 0.74686 0.0
H1193 H 0.49175 0.25085 0.81811 0.0
S1194 S 0.55334 0.303 0.72342 0.0
N1195 N 0.53471 0.30097 0.69553 0.0
N1196 N 0.54775 0.28939 0.77264 0.0
C1197 C 0.52994 0.28289 0.76797 0.0
C1198 C 0.52291 0.28902 0.72636 0.0
C1199 C 0.51658 1.02161 0.54823 0.0
C1200 C 0.49792 1.02335 0.55222 0.0
C1201 C 0.52487 0.02861 0.509 0.0
C1202 C 0.51479 0.03793 0.47246 0.0
H1203 H 0.52482 1.01431 0.57569 0.0
H1204 H 0.53927 0.0271 0.50724 0.0
S1205 S 0.46558 0.04473 0.46534 0.0
N1206 N 0.46958 0.03398 0.51606 0.0
N1207 N 0.48529 0.04795 0.44209 0.0
C1208 C 0.49616 0.0404 0.47594 0.0
C1209 C 0.48768 0.033 0.51593 0.0
C1210 C 0.49827 0.74697 0.23411 0.0
C1211 C 0.49493 0.79162 0.22204 0.0
C1212 C 0.50677 0.73753 0.27262 0.0
C1213 C 0.51208 0.77251 0.30008 0.0
H1214 H 0.49505 0.71951 0.21277 0.0
H1215 H 0.50986 0.70278 0.28017 0.0
S1216 S 0.50366 0.89457 0.28551 0.0
N1217 N 0.49562 0.87075 0.24207 0.0
N1218 N 0.5116 0.8529 0.31482 0.0
C1219 C 0.50791 0.81711 0.28933 0.0
C1220 C 0.49928 0.8267 0.25017 0.0
C1221 C 0.49297 0.52985 0.017 0.0
C1222 C 0.503 0.51817 0.05307 0.0
C1223 C 0.50128 0.53691 0.97777 0.0
C1224 C 0.51984 0.53246 0.97346 0.0
H1225 H 0.4786 0.5325 0.01897 0.0
H1226 H 0.49315 0.5455 0.95046 0.0
S1227 S 0.55212 0.50698 0.05938 0.0
N1228 N 0.53245 0.50542 0.08294 0.0
N1229 N 0.54811 0.51877 1.00888 0.0
C1230 C 0.53004 0.52163 1.00944 0.0
C1231 C 0.52159 0.51453 0.0494 0.0
C1232 C 0.0472 0.15502 0.61094 0.0
C1233 C 0.03091 0.1418 0.59282 0.0
C1234 C 0.04773 0.17941 0.64896 0.0
C1235 C 0.03203 0.19123 0.67065 0.0
H1236 H 0.05965 0.14595 0.59572 0.0
H1237 H 0.06057 0.18705 0.66294 0.0
S1238 S 0.98581 0.16713 0.63619 0.0
N1239 N 0.99846 0.14546 0.59836 0.0
N1240 N 0.9997 0.18907 0.67115 0.0
C1241 C 0.01561 0.17958 0.65244 0.0
C1242 C 0.01499 0.15512 0.61339 0.0
C1243 C 0.2384 0.11864 0.604 0.0
C1244 C 0.25025 0.15384 0.59274 0.0
C1245 C 0.23905 0.09795 0.64389 0.0
C1246 C 0.25192 0.11015 0.67372 0.0
H1247 H 0.2283 0.10662 0.58242 0.0
H1248 H 0.22898 0.07336 0.65223 0.0
S1249 S 0.28784 0.19396 0.65965 0.0
N1250 N 0.27628 0.19687 0.61505 0.0
N1251 N 0.27793 0.15537 0.68914 0.0
C1252 C 0.26467 0.14244 0.66241 0.0
C1253 C 0.26375 0.16483 0.62219 0.0
C1254 C 1.00827 0.89452 0.36178 0.0
C1255 C 0.99237 0.88072 0.3419 0.0
C1256 C 1.0079 0.91806 0.40059 0.0
C1257 C 0.99161 0.92926 0.42025 0.0
H1258 H 0.02101 0.88811 0.34678 0.0
H1259 H 0.0204 0.92645 0.4158 0.0
S1260 S 0.94641 0.90135 0.38082 0.0
N1261 N 0.96006 0.87868 0.34553 0.0
N1262 N 0.95933 0.92613 0.41626 0.0
C1263 C 0.97571 0.91639 0.40013 0.0
C1264 C 0.9761 0.89105 0.36182 0.0
C1265 C 0.76475 0.91122 0.36703 0.0
C1266 C 0.78085 0.92383 0.34732 0.0
C1267 C 0.76476 0.88707 0.40548 0.0
C1268 C 0.78087 0.87419 0.42509 0.0
H1269 H 0.75211 0.91891 0.35211 0.0
H1270 H 0.75212 0.87941 0.42037 0.0
S1271 S 0.82647 0.89875 0.38602 0.0
N1272 N 0.81317 0.92313 0.35106 0.0
N1273 N 0.81319 0.87456 0.42112 0.0
C1274 C 0.79696 0.88603 0.40519 0.0
C1275 C 0.79695 0.91195 0.3672 0.0
C1276 C 0.04602 0.63975 0.11345 0.0
C1277 C 0.03028 0.6267 0.09262 0.0
C1278 C 0.04552 0.66335 0.15186 0.0
C1279 C 0.02926 0.67432 0.1715 0.0
H1280 H 0.05885 0.63276 0.09905 0.0
H1281 H 0.05798 0.67267 0.1668 0.0
S1282 S 0.98413 0.64564 0.13143 0.0
N1283 N 0.99785 0.62611 0.09469 0.0
N1284 N 0.99693 0.66804 0.16849 0.0
C1285 C 0.01335 0.66052 0.15165 0.0
C1286 C 0.01386 0.637 0.11202 0.0
C1287 C 0.25286 0.63891 0.15649 0.0
C1288 C 0.23681 0.62633 0.17646 0.0
C1289 C 0.2528 0.66266 0.11804 0.0
C1290 C 0.2367 0.67497 0.09825 0.0
H1291 H 0.26557 0.63155 0.17121 0.0
H1292 H 0.26546 0.6704 0.10322 0.0
S1293 S 0.19117 0.65029 0.13753 0.0
N1294 N 0.20449 0.62738 0.17338 0.0
N1295 N 0.20438 0.67335 0.10155 0.0
C1296 C 0.22061 0.66283 0.11798 0.0
C1297 C 0.22067 0.6381 0.1568 0.0
C1298 C 0.97658 0.40103 0.86353 0.0
C1299 C 0.99264 0.3873 0.84444 0.0
C1300 C 0.97647 0.42621 0.90093 0.0
C1301 C 0.99238 0.4374 0.92186 0.0
H1302 H 0.96394 0.39265 0.84895 0.0
H1303 H 0.96376 0.43516 0.91499 0.0
S1304 S 0.03818 0.41002 0.88551 0.0
N1305 N 0.02508 0.38872 0.84843 0.0
N1306 N 0.02474 0.43292 0.9211 0.0
C1307 C 1.00862 0.42418 0.90329 0.0
C1308 C 1.00878 0.39943 0.86431 0.0
C1309 C 0.76647 0.39741 0.8627 0.0
C1310 C 0.78232 0.41204 0.843 0.0
C1311 C 0.76691 0.37286 0.90076 0.0
C1312 C 0.78321 0.36166 0.9201 0.0
H1313 H 0.75364 0.40446 0.84842 0.0
H1314 H 0.75443 0.36443 0.9161 0.0
S1315 S 0.82834 0.38968 0.88029 0.0
N1316 N 0.81467 0.41281 0.84536 0.0
N1317 N 0.81547 0.36461 0.91575 0.0
C1318 C 0.79909 0.37442 0.89977 0.0
C1319 C 0.79865 0.40033 0.86176 0.0
C1320 C 0.54735 0.1305 0.11562 0.0
C1321 C 0.53097 0.12259 0.0954 0.0
C1322 C 0.54819 0.15367 0.15431 0.0
C1323 C 0.53268 0.16983 0.17433 0.0
H1324 H 0.55963 0.11945 0.10074 0.0
H1325 H 0.56107 0.15857 0.16913 0.0
S1326 S 0.48641 0.15871 0.13385 0.0
N1327 N 0.49888 0.13419 0.09728 0.0
N1328 N 0.50033 0.17574 0.17113 0.0
C1329 C 0.51615 0.16213 0.15443 0.0
C1330 C 0.51532 0.13879 0.11483 0.0
C1331 C 0.72399 0.13151 0.15307 0.0
C1332 C 0.74022 0.1197 0.17236 0.0
C1333 C 0.72355 0.15614 0.1152 0.0
C1334 C 0.73934 0.16965 0.09482 0.0
H1335 H 0.7115 0.12236 0.16808 0.0
H1336 H 0.71075 0.164 0.10108 0.0
S1337 S 0.78548 0.14716 0.13208 0.0
N1338 N 0.77259 0.12444 0.16881 0.0
N1339 N 0.77179 0.16842 0.09622 0.0
C1340 C 0.75574 0.15787 0.11358 0.0
C1341 C 0.75618 0.13321 0.15251 0.0
C1342 C 0.51109 0.90352 0.84997 0.0
C1343 C 0.50081 0.86543 0.84033 0.0
C1344 C 0.51007 0.92401 0.89006 0.0
C1345 C 0.49876 0.90688 0.92194 0.0
H1346 H 0.51923 0.91872 0.82548 0.0
H1347 H 0.51781 0.95418 0.89573 0.0
S1348 S 0.47047 0.80393 0.91183 0.0
N1349 N 0.47993 0.80964 0.86474 0.0
N1350 N 0.47822 0.84579 0.94096 0.0
C1351 C 0.48906 0.86699 0.91276 0.0
C1352 C 0.49009 0.84677 0.87174 0.0
C1353 C 0.29629 0.95036 0.88016 0.0
C1354 C 0.29817 0.92194 0.84473 0.0
C1355 C 0.29691 0.93309 0.92155 0.0
C1356 C 0.2992 0.88663 0.92895 0.0
H1357 H 0.29338 0.98581 0.87568 0.0
H1358 H 0.29443 0.95584 0.94783 0.0
S1359 S 0.30624 0.79801 0.84815 0.0
N1360 N 0.30391 0.84491 0.82043 0.0
N1361 N 0.30451 0.81304 0.8986 0.0
C1362 C 0.30203 0.85817 0.89427 0.0
C1363 C 0.30174 0.87569 0.85202 0.0
C1364 C 0.53311 0.61223 0.62658 0.0
C1365 C 0.53735 0.64072 0.59245 0.0
C1366 C 0.53285 0.6285 0.66825 0.0
C1367 C 0.53658 0.67391 0.67724 0.0
H1368 H 0.52982 0.57722 0.62087 0.0
H1369 H 0.52956 0.60559 0.69373 0.0
S1370 S 0.54877 0.76262 0.60057 0.0
N1371 N 0.54562 0.71725 0.57108 0.0
N1372 N 0.54495 0.74691 0.65014 0.0
C1373 C 0.54093 0.70279 0.64397 0.0
C1374 C 0.54141 0.6864 0.60134 0.0
C1375 C 0.7416 0.60752 0.64073 0.0
C1376 C 0.73609 0.63454 0.67494 0.0
C1377 C 0.74191 0.62462 0.59935 0.0
C1378 C 0.73695 0.66935 0.59078 0.0
H1379 H 0.74582 0.57307 0.64613 0.0
H1380 H 0.74617 0.60297 0.57373 0.0
S1381 S 0.72107 0.75422 0.66754 0.0
N1382 N 0.72523 0.70907 0.69663 0.0
N1383 N 0.72602 0.74008 0.61812 0.0
C1384 C 0.73129 0.69673 0.62404 0.0
C1385 C 0.73077 0.67955 0.66636 0.0
C1386 C 0.50339 0.40966 0.40511 0.0
C1387 C 0.48763 0.42369 0.42557 0.0
C1388 C 0.5028 0.38625 0.36647 0.0
C1389 C 0.48643 0.37569 0.34711 0.0
H1390 H 0.51626 0.41583 0.41948 0.0
H1391 H 0.51526 0.37764 0.35107 0.0
S1392 S 0.44147 0.4038 0.38831 0.0
N1393 N 0.4553 0.42532 0.42378 0.0
N1394 N 0.45417 0.37984 0.35173 0.0
C1395 C 0.47062 0.38884 0.36763 0.0
C1396 C 0.47123 0.41329 0.40655 0.0
C1397 C 0.26873 0.4301 0.37772 0.0
C1398 C 0.27667 0.40536 0.3446 0.0
C1399 C 0.26775 0.41256 0.41888 0.0
C1400 C 0.27472 0.36989 0.4285 0.0
H1401 H 0.26346 0.46352 0.37187 0.0
H1402 H 0.26202 0.43282 0.44391 0.0
S1403 S 0.29581 0.28963 0.35442 0.0
N1404 N 0.29066 0.33362 0.32466 0.0
N1405 N 0.28915 0.30244 0.40303 0.0
C1406 C 0.28227 0.34419 0.39618 0.0
C1407 C 0.28323 0.36156 0.35395 0.0
C1408 C 0.12479 0.13942 0.38777 0.0
C1409 C 0.11483 0.15797 0.42167 0.0
C1410 C 0.14367 0.13875 0.38847 0.0
C1411 C 0.15336 0.15626 0.42327 0.0
H1412 H 0.11796 0.12581 0.36026 0.0
H1413 H 0.1507 0.12358 0.36195 0.0
S1414 S 0.13369 0.20828 0.52022 0.0
N1415 N 0.11629 0.19324 0.49148 0.0
N1416 N 0.15133 0.19363 0.49201 0.0
C1417 C 0.1435 0.17506 0.45714 0.0
C1418 C 0.12441 0.17545 0.45657 0.0
C1419 C 0.1462 0.10647 0.83613 0.0
C1420 C 0.15635 0.13938 0.8573 0.0
C1421 C 0.12745 0.10701 0.83715 0.0
C1422 C 0.11779 0.141 0.85875 0.0
H1423 H 0.15284 0.08041 0.81784 0.0
H1424 H 0.12044 0.08097 0.81979 0.0
S1425 S 0.13802 0.23456 0.92047 0.0
N1426 N 0.15534 0.20606 0.90212 0.0
N1427 N 0.12014 0.20778 0.90319 0.0
C1428 C 0.12779 0.17323 0.88145 0.0
C1429 C 0.14699 0.17233 0.88082 0.0
C1430 C 0.87733 0.94369 0.59927 0.0
C1431 C 0.86724 0.90791 0.61664 0.0
C1432 C 0.89609 0.94335 0.59947 0.0
C1433 C 0.90577 0.90771 0.61781 0.0
H1434 H 0.87066 0.97182 0.58409 0.0
H1435 H 0.90311 0.97063 0.58386 0.0
S1436 S 0.88632 0.80689 0.66968 0.0
N1437 N 0.86876 0.83636 0.65423 0.0
N1438 N 0.90398 0.83645 0.65538 0.0
C1439 C 0.89602 0.8728 0.63721 0.0
C1440 C 0.87682 0.87282 0.63663 0.0
C1441 C 0.89666 0.85931 0.16942 0.0
C1442 C 0.90583 0.89434 0.14877 0.0
C1443 C 0.87792 0.85826 0.17099 0.0
C1444 C 0.86738 0.8927 0.15269 0.0
H1445 H 0.90408 0.8332 0.18581 0.0
H1446 H 0.87165 0.8307 0.18789 0.0
S1447 S 0.885 0.99166 0.09386 0.0
N1448 N 0.90306 0.96354 0.10821 0.0
N1449 N 0.86788 0.96232 0.11183 0.0
C1450 C 0.87642 0.9271 0.13046 0.0
C1451 C 0.89559 0.92783 0.1285 0.0
C1452 C 0.12742 0.69716 0.9097 0.0
C1453 C 0.1169 0.659 0.90044 0.0
C1454 C 0.14619 0.69513 0.90927 0.0
C1455 C 0.15522 0.65474 0.89998 0.0
H1456 H 0.12106 0.72856 0.91867 0.0
H1457 H 0.15368 0.72481 0.91826 0.0
S1458 S 0.13415 0.5456 0.87262 0.0
N1459 N 0.11711 0.58002 0.8803 0.0
N1460 N 0.15229 0.57604 0.88029 0.0
C1461 C 0.14493 0.61676 0.88943 0.0
C1462 C 0.12582 0.61895 0.88934 0.0
C1463 C 0.12496 0.65223 0.38664 0.0
C1464 C 0.11522 0.65371 0.34814 0.0
C1465 C 0.14384 0.65418 0.38713 0.0
C1466 C 0.15386 0.65729 0.3491 0.0
H1467 H 0.11797 0.6489 0.41667 0.0
H1468 H 0.1506 0.65379 0.41757 0.0
S1469 S 0.13496 0.66203 0.23956 0.0
N1470 N 0.11739 0.66128 0.27105 0.0
N1471 N 0.15229 0.65901 0.27164 0.0
C1472 C 0.14422 0.6579 0.31046 0.0
C1473 C 0.12515 0.65776 0.31007 0.0
C1474 C 0.87762 0.43975 0.09514 0.0
C1475 C 0.86757 0.40475 0.11385 0.0
C1476 C 0.89635 0.43937 0.09542 0.0
C1477 C 0.90597 0.40445 0.1151 0.0
H1478 H 0.87096 0.46712 0.07876 0.0
H1479 H 0.90339 0.46594 0.07879 0.0
S1480 S 0.88647 0.30625 0.17116 0.0
N1481 N 0.86895 0.33505 0.15443 0.0
N1482 N 0.90416 0.33504 0.1557 0.0
C1483 C 0.89623 0.37054 0.13603 0.0
C1484 C 0.87706 0.37061 0.13537 0.0
C1485 C 0.87587 0.4002 0.63245 0.0
C1486 C 0.86599 0.3955 0.67051 0.0
C1487 C 0.8947 0.40342 0.63274 0.0
C1488 C 0.90453 0.40165 0.67107 0.0
H1489 H 0.86905 0.40086 0.60208 0.0
H1490 H 0.90155 0.40794 0.60269 0.0
S1491 S 0.88518 0.38941 0.77969 0.0
N1492 N 0.86775 0.39201 0.7479 0.0
N1493 N 0.90266 0.39213 0.74801 0.0
C1494 C 0.89476 0.39605 0.70919 0.0
C1495 C 0.8757 0.39461 0.70903 0.0
C1496 C 0.62478 0.14974 0.88331 0.0
C1497 C 0.61496 0.15119 0.92174 0.0
C1498 C 0.64364 0.14678 0.88309 0.0
C1499 C 0.6536 0.14566 0.92128 0.0
H1500 H 0.61788 0.15144 0.85308 0.0
H1501 H 0.65043 0.1448 0.85271 0.0
S1502 S 0.63448 0.14893 0.03076 0.0
N1503 N 0.61697 0.14833 0.99914 0.0
N1504 N 0.65187 0.14924 0.9987 0.0
C1505 C 0.64389 0.14811 0.95981 0.0
C1506 C 0.62481 0.1491 0.96005 0.0
C1507 C 0.64644 0.14613 0.38759 0.0
C1508 C 0.65606 0.14784 0.34887 0.0
C1509 C 0.62756 0.14408 0.38838 0.0
C1510 C 0.6174 0.14415 0.35048 0.0
H1511 H 0.65352 0.14686 0.41762 0.0
H1512 H 0.62091 0.14179 0.41891 0.0
S1513 S 0.63591 0.14876 0.24048 0.0
N1514 N 0.65359 0.14667 0.27151 0.0
N1515 N 0.61871 0.14926 0.27312 0.0
C1516 C 0.62691 0.147 0.3117 0.0
C1517 C 0.64598 0.14705 0.31086 0.0
C1518 C 0.37747 0.92861 0.07099 0.0
C1519 C 0.36806 0.91678 0.10825 0.0
C1520 C 0.39613 0.92619 0.0687 0.0
C1521 C 0.40651 0.91132 0.10337 0.0
H1522 H 0.37034 0.93938 0.04277 0.0
H1523 H 0.40248 0.93608 0.03915 0.0
S1524 S 0.3887 0.87636 0.2088 0.0
N1525 N 0.37078 0.89058 0.18135 0.0
N1526 N 0.40579 0.8841 0.17647 0.0
C1527 C 0.39736 0.89941 0.14103 0.0
C1528 C 0.37822 0.90231 0.14351 0.0
C1529 C 0.37618 0.86908 0.6975 0.0
C1530 C 0.36615 0.89007 0.66503 0.0
C1531 C 0.39492 0.87042 0.6981 0.0
C1532 C 0.40479 0.89302 0.66639 0.0
H1533 H 0.36948 0.85197 0.72342 0.0
H1534 H 0.40174 0.85363 0.72403 0.0
S1535 S 0.38528 0.95288 0.57341 0.0
N1536 N 0.36778 0.93307 0.59922 0.0
N1537 N 0.4029 0.93695 0.60115 0.0
C1538 C 0.39501 0.91383 0.63336 0.0
C1539 C 0.37581 0.91225 0.63263 0.0
C1540 C 0.64549 0.64698 0.37565 0.0
C1541 C 0.65541 0.64931 0.4138 0.0
C1542 C 0.62663 0.65032 0.37564 0.0
C1543 C 0.61687 0.65617 0.41378 0.0
H1544 H 0.65229 0.64172 0.34563 0.0
H1545 H 0.61967 0.64881 0.34547 0.0
S1546 S 0.63643 0.66456 0.52237 0.0
N1547 N 0.65382 0.65999 0.49055 0.0
N1548 N 0.61887 0.66233 0.49093 0.0
C1549 C 0.62671 0.65817 0.45204 0.0
C1550 C 0.64577 0.65586 0.45194 0.0
C1551 C 0.64742 0.61094 0.86706 0.0
C1552 C 0.65597 0.65303 0.86953 0.0
C1553 C 0.62865 0.6076 0.8666 0.0
C1554 C 0.61763 0.64612 0.86944 0.0
H1555 H 0.65528 0.58053 0.86338 0.0
H1556 H 0.62269 0.57461 0.86285 0.0
S1557 S 0.63342 0.76398 0.87931 0.0
N1558 N 0.65194 0.73389 0.87667 0.0
N1559 N 0.61684 0.7275 0.87678 0.0
C1560 C 0.62605 0.68816 0.87395 0.0
C1561 C 0.64513 0.69163 0.87367 0.0
C1562 C 0.3951 0.3899 0.56729 0.0
C1563 C 0.40513 0.39425 0.60511 0.0
C1564 C 0.37642 0.39036 0.5671 0.0
C1565 C 0.36629 0.39782 0.60434 0.0
H1566 H 0.40164 0.38621 0.53677 0.0
H1567 H 0.36995 0.38475 0.53678 0.0
S1568 S 0.38555 0.41282 0.71268 0.0
N1569 N 0.40311 0.4049 0.68187 0.0
N1570 N 0.36808 0.41097 0.6808 0.0
C1571 C 0.37602 0.40316 0.64264 0.0
C1572 C 0.39528 0.4007 0.64311 0.0
C1573 C 0.37325 0.39696 0.20098 0.0
C1574 C 0.3633 0.39742 0.16285 0.0
C1575 C 0.39191 0.39888 0.20128 0.0
C1576 C 0.402 0.40353 0.16359 0.0
H1577 H 0.36662 0.39517 0.23156 0.0
H1578 H 0.39842 0.39655 0.23194 0.0
S1579 S 0.38286 0.40785 0.05436 0.0
N1580 N 0.36531 0.40171 0.08555 0.0
N1581 N 0.40029 0.40972 0.08637 0.0
C1582 C 0.39233 0.40487 0.12494 0.0
C1583 C 0.37312 0.40129 0.12454 0.0
C1584 C 1.0007 0.03945 0.34426 0.0
C1585 C 0.01654 0.06514 0.34398 0.0
C1586 C 0.99531 1.01292 0.30883 0.0
C1587 C 1.00572 1.00889 0.27131 0.0
H1588 H 0.99244 0.03929 0.37257 0.0
H1589 H 0.98298 0.9942 0.31149 0.0
S1590 S 0.04891 0.06737 0.25435 0.0
N1591 N 0.04277 0.08396 0.30247 0.0
N1592 N 0.03306 0.03332 0.23705 0.0
C1593 C 0.02174 0.03393 0.27078 0.0
C1594 C 0.02702 0.06199 0.3066 0.0
C1595 C 0.26435 0.24944 0.27923 0.0
C1596 C 0.25759 0.29318 0.27029 0.0
C1597 C 0.25869 0.22353 0.31523 0.0
C1598 C 0.24632 0.24032 0.34546 0.0
H1599 H 0.27435 0.23513 0.25832 0.0
H1600 H 0.26444 0.1904 0.3199 0.0
S1601 S 0.22529 0.35435 0.33868 0.0
N1602 N 0.23797 0.35198 0.29577 0.0
N1603 N 0.22789 0.30552 0.36312 0.0
C1604 C 0.2396 0.28435 0.3368 0.0
C1605 C 0.24504 0.31002 0.29963 0.0
C1606 C 0.02569 0.31168 0.97077 0.0
C1607 C 1.00907 0.30258 0.99005 0.0
C1608 C 0.03268 0.28464 0.93711 0.0
C1609 C 0.0237 0.24611 0.92085 0.0
H1610 H 0.03327 0.34071 0.98111 0.0
H1611 H 0.0454 0.2943 0.92366 0.0
S1612 S 0.97991 0.20588 0.96098 0.0
N1613 N 0.9839 0.25113 0.9901 0.0
N1614 N 0.99712 0.20041 0.92851 0.0
C1615 C 1.00719 0.23621 0.94039 0.0
C1616 C 0.99992 0.26424 0.97423 0.0
C1617 C 0.26571 0.06501 0.94199 0.0
C1618 C 0.24899 0.05683 0.92283 0.0
C1619 C 0.27233 0.03789 0.97607 0.0
C1620 C 0.26255 1.00134 0.99373 0.0
H1621 H 0.274 0.09199 0.92994 0.0
H1622 H 0.28541 0.04564 0.98859 0.0
S1623 S 0.21768 0.96614 0.95704 0.0
N1624 N 0.22262 1.00914 0.92584 0.0
N1625 N 0.2349 0.95972 0.98919 0.0
C1626 C 0.2457 0.99344 0.97552 0.0
C1627 C 0.23902 1.02058 0.94052 0.0
C1628 C 0.99702 0.06146 0.72152 0.0
C1629 C 0.01364 0.05253 0.7409 0.0
C1630 C 0.9903 0.03471 0.68739 0.0
C1631 C 0.99956 0.99671 0.67073 0.0
H1632 H 0.98925 0.09015 0.73209 0.0
H1633 H 0.97756 0.0442 0.67389 0.0
S1634 S 0.04356 0.95744 0.71047 0.0
N1635 N 0.03916 1.00192 0.74036 0.0
N1636 N 0.02644 0.95184 0.67787 0.0
C1637 C 0.01606 0.98698 0.69034 0.0
C1638 C 0.02307 1.01467 0.72466 0.0
C1639 C 0.75288 0.79377 0.73507 0.0
C1640 C 0.76046 0.75156 0.74649 0.0
C1641 C 0.75944 0.8204 0.70043 0.0
C1642 C 0.7738 0.80609 0.67438 0.0
H1643 H 0.74158 0.80635 0.75298 0.0
H1644 H 0.75294 0.85219 0.69361 0.0
S1645 S 0.79822 0.69744 0.68971 0.0
N1646 N 0.7832 0.6971 0.72812 0.0
N1647 N 0.79526 0.74526 0.66377 0.0
C1648 C 0.78146 0.76377 0.68574 0.0
C1649 C 0.77494 0.73722 0.72132 0.0
C1650 C 0.02327 0.79182 0.04099 0.0
C1651 C 0.01307 0.75711 0.02162 0.0
C1652 C 0.01653 0.81935 0.07471 0.0
C1653 C 0.99929 0.81314 0.09193 0.0
H1654 H 0.03675 0.79785 0.03004 0.0
H1655 H 0.02512 0.84499 0.0881 0.0
S1656 S 0.96668 0.72823 0.0523 0.0
N1657 N 0.9844 0.71975 0.02213 0.0
N1658 N 0.97196 0.76967 0.085 0.0
C1659 C 0.98891 0.77879 0.07248 0.0
C1660 C 0.99568 0.75144 0.03773 0.0
C1661 C 0.77625 0.0544 0.04513 0.0
C1662 C 0.76006 0.04425 0.02438 0.0
C1663 C 0.78274 0.02828 0.08006 0.0
C1664 C 0.77364 0.9898 0.09618 0.0
H1665 H 0.78379 0.08365 0.03517 0.0
H1666 H 0.79512 0.03868 0.09471 0.0
S1667 S 0.7308 0.94734 0.05278 0.0
N1668 N 0.73517 0.99186 0.02298 0.0
N1669 N 0.74745 0.94313 0.08692 0.0
C1670 C 0.75762 0.97882 0.07511 0.0
C1671 C 0.75086 1.00579 0.04 0.0
C1672 C 0.02628 0.49789 0.79292 0.0
C1673 C 1.01051 0.50912 0.77082 0.0
C1674 C 0.03267 0.5242 0.82771 0.0
C1675 C 0.02389 0.56386 0.8423 0.0
H1676 H 0.0335 0.46763 0.7842 0.0
H1677 H 0.0447 0.51295 0.84351 0.0
S1678 S 0.98243 0.60982 0.79423 0.0
N1679 N 0.98647 0.56392 0.76602 0.0
N1680 N 0.99862 0.61316 0.82971 0.0
C1681 C 1.00834 0.57599 0.81972 0.0
C1682 C 1.00167 0.54881 0.78475 0.0
C1683 C 0.26052 0.82226 0.8241 0.0
C1684 C 0.26044 0.80726 0.7814 0.0
C1685 C 0.25505 0.79421 0.85849 0.0
C1686 C 0.24943 0.74906 0.85253 0.0
H1687 H 0.26498 0.85611 0.83114 0.0
H1688 H 0.25534 0.80814 0.89036 0.0
S1689 S 0.2443 0.69493 0.74649 0.0
N1690 N 0.25275 0.7449 0.73507 0.0
N1691 N 0.2425 0.69279 0.79895 0.0
C1692 C 0.24885 0.73401 0.80979 0.0
C1693 C 0.25432 0.76278 0.77468 0.0
C1694 C 0.02268 0.81227 0.46875 0.0
C1695 C 1.00747 0.80037 0.49273 0.0
C1696 C 0.02873 0.78603 0.43354 0.0
C1697 C 0.02024 0.74553 0.42042 0.0
H1698 H 0.02973 0.84304 0.4764 0.0
H1699 H 0.04031 0.79792 0.41633 0.0
S1700 S 0.9802 0.69768 0.47336 0.0
N1701 N 0.98417 0.74425 0.50061 0.0
N1702 N 0.9958 0.6948 0.43627 0.0
C1703 C 1.00524 0.73271 0.44481 0.0
C1704 C 0.99883 0.76001 0.48014 0.0
C1705 C 0.245 0.50454 0.48144 0.0
C1706 C 0.26226 0.51017 0.4986 0.0
C1707 C 0.23879 0.53034 0.44604 0.0
C1708 C 0.24914 0.56467 0.42646 0.0
H1709 H 0.23644 0.47845 0.49415 0.0
H1710 H 0.22565 0.52297 0.43366 0.0
S1711 S 0.29478 0.59614 0.46077 0.0
N1712 N 0.28937 0.55465 0.49339 0.0
N1713 N 0.27742 0.60377 0.42925 0.0
C1714 C 0.26608 0.57205 0.44455 0.0
C1715 C 0.27265 0.54486 0.47975 0.0
C1716 C 0.98785 0.53248 0.18718 0.0
C1717 C 0.99724 0.49389 0.17217 0.0
C1718 C 0.99392 0.55926 0.22197 0.0
C1719 C 1.00993 0.54955 0.24366 0.0
H1720 H 0.97558 0.54254 0.1717 0.0
H1721 H 0.98623 0.58865 0.23103 0.0
S1722 S 0.03953 0.4519 0.21922 0.0
N1723 N 0.02331 0.44716 0.18398 0.0
N1724 N 0.03483 0.49715 0.24778 0.0
C1725 C 0.01936 0.51084 0.22938 0.0
C1726 C 0.01303 0.48324 0.19437 0.0
C1727 C 0.77831 0.23764 0.22083 0.0
C1728 C 0.76193 0.24656 0.24135 0.0
C1729 C 0.7846 0.26451 0.18626 0.0
C1730 C 0.77511 0.30251 0.1703 0.0
H1731 H 0.78615 0.20881 0.23071 0.0
H1732 H 0.79716 0.25506 0.17176 0.0
S1733 S 0.73169 0.34195 0.21343 0.0
N1734 N 0.73646 0.29743 0.24289 0.0
N1735 N 0.74838 0.34747 0.17953 0.0
C1736 C 0.7589 0.31229 0.19117 0.0
C1737 C 0.75235 0.28459 0.22595 0.0
C1738 C 0.99407 0.24829 0.54519 0.0
C1739 C 1.01028 0.25701 0.52391 0.0
C1740 C 0.98821 0.27488 0.58039 0.0
C1741 C 0.99797 0.31241 0.59603 0.0
H1742 H 0.98607 0.21974 0.53551 0.0
H1743 H 0.9758 0.26564 0.59566 0.0
S1744 S 0.04095 0.35156 0.55068 0.0
N1745 N 0.0358 0.30739 0.52116 0.0
N1746 N 0.02461 0.35711 0.58556 0.0
C1747 C 0.01392 0.32226 0.5742 0.0
C1748 C 0.02007 0.29475 0.5389 0.0
C1749 C 0.77575 0.55036 0.54303 0.0
C1750 C 0.76013 0.53999 0.52 0.0
C1751 C 0.78126 0.52465 0.57914 0.0
C1752 C 0.77179 0.48622 0.59397 0.0
H1753 H 0.78342 0.57984 0.53431 0.0
H1754 H 0.79313 0.53541 0.59588 0.0
S1755 S 0.73046 0.44259 0.54386 0.0
N1756 N 0.73551 0.48709 0.51467 0.0
N1757 N 0.74614 0.43878 0.58059 0.0
C1758 C 0.75652 0.47458 0.57023 0.0
C1759 C 0.75068 0.5013 0.53406 0.0
C1760 C 0.49687 0.03623 0.79615 0.0
C1761 C 0.50805 1.00544 0.77387 0.0
C1762 C 0.50312 0.06369 0.83043 0.0
C1763 C 0.52085 0.06117 0.84548 0.0
H1764 H 0.48297 0.03897 0.78725 0.0
H1765 H 0.49376 0.08588 0.84629 0.0
S1766 S 0.55593 0.98726 0.79854 0.0
N1767 N 0.53817 0.97621 0.76933 0.0
N1768 N 0.54959 1.02529 0.83388 0.0
C1769 C 0.53219 0.03088 0.8232 0.0
C1770 C 0.52595 1.00395 0.7876 0.0
C1771 C 0.73894 0.27903 0.83277 0.0
C1772 C 0.7475 0.23849 0.84592 0.0
C1773 C 0.74487 0.30513 0.79732 0.0
C1774 C 0.75998 0.29283 0.7731 0.0
H1775 H 0.72745 0.29114 0.85027 0.0
H1776 H 0.7379 0.3361 0.7898 0.0
S1777 S 0.7873 0.18986 0.79238 0.0
N1778 N 0.77186 0.18744 0.82983 0.0
N1779 N 0.78319 0.23623 0.76496 0.0
C1780 C 0.7686 0.2523 0.78564 0.0
C1781 C 0.76236 0.22534 0.82125 0.0
C1782 C 0.50217 0.26059 0.47847 0.0
C1783 C 0.51147 0.2991 0.49357 0.0
C1784 C 0.50858 0.23326 0.44426 0.0
C1785 C 0.52449 0.24337 0.42208 0.0
H1786 H 0.48966 0.25134 0.49328 0.0
H1787 H 0.50073 0.20446 0.43454 0.0
S1788 S 0.5539 0.34101 0.44776 0.0
N1789 N 0.53759 0.3454 0.48286 0.0
N1790 N 0.54938 0.29594 0.41888 0.0
C1791 C 0.53388 0.28197 0.43692 0.0
C1792 C 0.52751 0.30914 0.4723 0.0
C1793 C 0.76596 0.06432 0.44381 0.0
C1794 C 0.75036 0.05277 0.42097 0.0
C1795 C 0.7723 0.03803 0.47887 0.0
C1796 C 0.76318 0.99937 0.49424 0.0
H1797 H 0.77364 0.09332 0.43386 0.0
H1798 H 0.78459 0.04821 0.49412 0.0
S1799 S 0.72158 0.95403 0.44701 0.0
N1800 N 0.72601 0.99869 0.41749 0.0
N1801 N 0.73756 0.95142 0.48306 0.0
C1802 C 0.74743 0.98801 0.47233 0.0
C1803 C 0.74118 1.01398 0.43609 0.0
C1804 C 0.52178 1.01167 0.22721 0.0
C1805 C 0.5114 0.04691 0.24547 0.0
C1806 C 0.51588 0.98544 0.19183 0.0
C1807 C 0.49936 0.99346 0.17164 0.0
H1808 H 0.53483 1.00435 0.2402 0.0
H1809 H 0.52463 0.9595 0.17944 0.0
S1810 S 0.4663 0.07937 0.20776 0.0
N1811 N 0.48312 0.08611 0.24103 0.0
N1812 N 0.47225 0.0385 0.17494 0.0
C1813 C 0.4887 0.02804 0.19007 0.0
C1814 C 0.49459 0.05414 0.2266 0.0
C1815 C 0.28208 0.76998 0.18649 0.0
C1816 C 0.27265 0.80823 0.17095 0.0
C1817 C 0.27601 0.74379 0.22177 0.0
C1818 C 0.25989 0.75362 0.24312 0.0
H1819 H 0.29436 0.75988 0.17106 0.0
H1820 H 0.28374 0.71468 0.2314 0.0
S1821 S 0.22969 0.84908 0.21526 0.0
N1822 N 0.24618 0.85388 0.1807 0.0
N1823 N 0.23461 0.80507 0.24526 0.0
C1824 C 0.25037 0.79182 0.22793 0.0
C1825 C 0.25674 0.81889 0.1926 0.0
C1826 C 0.49087 0.76986 0.58125 0.0
C1827 C 0.49815 0.81277 0.59155 0.0
C1828 C 0.49684 0.74361 0.54597 0.0
C1829 C 0.51066 0.75825 0.51887 0.0
H1830 H 0.48043 0.75582 0.601 0.0
H1831 H 0.49097 0.71074 0.54088 0.0
S1832 S 0.53406 0.86828 0.52922 0.0
N1833 N 0.51973 0.8688 0.56922 0.0
N1834 N 0.5311 0.81978 0.50436 0.0
C1835 C 0.51788 0.80132 0.52817 0.0
C1836 C 0.51163 0.82833 0.56383 0.0
C1837 C 0.25502 0.98125 0.57511 0.0
C1838 C 0.27007 0.99427 0.59922 0.0
C1839 C 0.24905 1.00655 0.5391 0.0
C1840 C 0.25815 0.04527 0.52387 0.0
H1841 H 0.24732 0.95232 0.58516 0.0
H1842 H 0.23697 0.99583 0.52321 0.0
S1843 S 0.29878 0.09299 0.57376 0.0
N1844 N 0.29402 0.0491 0.60403 0.0
N1845 N 0.28347 0.09408 0.53601 0.0
C1846 C 0.27357 0.05752 0.54668 0.0
C1847 C 0.2793 0.03284 0.58416 0.0
C1848 C 0.52836 0.5181 0.33507 0.0
C1849 C 0.52067 0.56045 0.34599 0.0
C1850 C 0.52217 0.49128 0.30038 0.0
C1851 C 0.5076 0.50454 0.2748 0.0
H1852 H 0.53936 0.50514 0.35374 0.0
H1853 H 0.52851 0.45905 0.29453 0.0
S1854 S 0.48257 0.61213 0.2882 0.0
N1855 N 0.49771 0.61416 0.32633 0.0
N1856 N 0.48582 0.56391 0.263 0.0
C1857 C 0.49982 0.5468 0.28514 0.0
C1858 C 0.50638 0.57456 0.3199 0.0
C1859 C 0.766 0.72802 0.32283 0.0
C1860 C 0.75032 0.73911 0.34574 0.0
C1861 C 0.77267 0.75571 0.28909 0.0
C1862 C 0.76381 0.79543 0.27516 0.0
H1863 H 0.77348 0.69823 0.3317 0.0
H1864 H 0.78497 0.74574 0.27365 0.0
S1865 S 0.72226 0.8404 0.32344 0.0
N1866 N 0.72628 0.79412 0.35103 0.0
N1867 N 0.73842 0.84399 0.28791 0.0
C1868 C 0.74803 0.80643 0.29721 0.0
C1869 C 0.74145 0.77902 0.33213 0.0
C1870 C 0.50869 0.72935 0.94754 0.0
C1871 C 0.52391 0.74143 0.92341 0.0
C1872 C 0.50215 0.75666 0.98175 0.0
C1873 C 0.51067 0.79705 0.99485 0.0
H1874 H 0.50147 0.69902 0.93935 0.0
H1875 H 0.49013 0.74607 0.998 0.0
S1876 S 0.55084 0.84507 0.94313 0.0
N1877 N 0.5471 0.79836 0.91604 0.0
N1878 N 0.53519 0.84742 0.98001 0.0
C1879 C 0.526 0.80906 0.97161 0.0
C1880 C 0.53245 0.78205 0.93625 0.0
C1881 C 0.74252 0.51434 0.93384 0.0
C1882 C 0.75087 0.55533 0.92147 0.0
C1883 C 0.74887 0.48697 0.968 0.0
C1884 C 0.76425 0.49819 0.9916 0.0
H1885 H 0.73082 0.50294 0.91682 0.0
H1886 H 0.7419 0.45594 0.97511 0.0
S1887 S 0.79122 0.60182 0.97403 0.0
N1888 N 0.77535 0.60573 0.93773 0.0
N1889 N 0.78751 0.55434 1.00006 0.0
C1890 C 0.77272 0.53908 0.97979 0.0
C1891 C 0.76602 0.56747 0.94557 0.0
C1892 C 0.49189 0.52905 0.69009 0.0
C1893 C 0.50083 0.48994 0.67482 0.0
C1894 C 0.49809 0.55475 0.72551 0.0
C1895 C 0.51393 0.54376 0.74751 0.0
H1896 H 0.47985 0.54032 0.67432 0.0
H1897 H 0.49068 0.58456 0.73473 0.0
S1898 S 0.54249 0.4444 0.72225 0.0
N1899 N 0.52632 0.44119 0.68671 0.0
N1900 N 0.53823 0.48959 0.75131 0.0
C1901 C 0.52295 0.50454 0.73291 0.0
C1902 C 0.51639 0.47777 0.69742 0.0
C1903 C 0.24637 0.27453 0.71392 0.0
C1904 C 0.25788 0.25365 0.744 0.0
C1905 C 0.25266 0.30434 0.68157 0.0
C1906 C 0.27091 0.315 0.67711 0.0
H1907 H 0.23225 0.26709 0.71474 0.0
H1908 H 0.2432 0.31776 0.65882 0.0
S1909 S 0.30685 0.27204 0.74791 0.0
N1910 N 0.28865 0.24844 0.76735 0.0
N1911 N 0.30034 0.30295 0.70698 0.0
C1912 C 0.2825 0.29532 0.70747 0.0
C1913 C 0.27608 0.26531 0.74062 0.0
C1914 C 0.51278 0.31277 0.08184 0.0
C1915 C 0.49532 0.30838 0.09809 0.0
C1916 C 0.51929 0.28511 0.04801 0.0
C1917 C 0.50866 0.25195 0.02746 0.0
H1918 H 0.52174 0.33698 0.09617 0.0
H1919 H 0.53297 0.28976 0.03797 0.0
S1920 S 0.46149 0.22841 0.05523 0.0
N1921 N 0.46726 0.26848 0.08903 0.0
N1922 N 0.47929 0.21826 0.02576 0.0
C1923 C 0.49102 0.24814 0.04255 0.0
C1924 C 0.48448 0.27568 0.07752 0.0
C1925 C 0.24815 0.51024 0.03917 0.0
C1926 C 0.25724 0.55002 0.0265 0.0
C1927 C 0.25411 0.48236 0.0735 0.0
C1928 C 0.26925 0.49326 0.0983 0.0
H1929 H 0.2362 0.50039 0.02229 0.0
H1930 H 0.24649 0.45253 0.08129 0.0
S1931 S 0.29772 0.59442 0.07972 0.0
N1932 N 0.28232 0.59835 0.04237 0.0
N1933 N 0.29314 0.54806 0.10664 0.0
C1934 C 0.27838 0.5332 0.08594 0.0
C1935 C 0.27254 0.56083 0.0504 0.0
loop_
_geom_bond_atom_site_label_1
_geom_bond_atom_site_label_2
_geom_bond_distance
_geom_bond_site_symmetry_2
_ccdc_geom_bond_type
Co0 N4 2.148 . S
Co0 N10 2.128 . S
Co0 N20 2.194 . S
Co0 O25 2.351 . S
Co0 O26 2.155 . S
Co0 O27 2.096 . S
C1 N4 1.301 . S
C1 N5 1.328 . S
C1 H6 0.930 . S
C2 C3 1.333 . S
C2 N4 1.317 . S
C2 H7 0.930 . S
C3 C2 1.333 . S
C3 N5 1.350 . S
C3 H29 0.931 . S
N4 Co0 2.148 . S
N4 C1 1.301 . S
N4 C2 1.317 . S
N5 C1 1.328 . S
N5 C3 1.350 . S
H6 C1 0.930 . S
H7 C2 0.930 . S
C8 O9 1.224 . S
C8 O27 1.247 . S
O9 C8 1.224 . S
N10 Co0 2.128 . S
N10 C11 1.355 . S
N10 C13 1.311 . S
C11 N10 1.355 . S
C11 C12 1.363 . S
C11 H23 0.929 . S
C12 C11 1.363 . S
C12 N14 1.375 . S
C12 H30 0.931 . S
C13 N10 1.311 . S
C13 N14 1.347 . S
C13 H24 0.929 . S
N14 C12 1.375 . S
N14 C13 1.347 . S
C15 C18 1.365 . S
C15 N20 1.328 . S
C15 H21 0.929 . S
C16 C17 1.362 . S
C16 C19 1.378 . S
C16 H31 0.929 . S
C17 C16 1.362 . S
C17 C18 1.366 . S
C18 C15 1.365 . S
C18 C17 1.366 . S
C18 H32 0.930 . S
C19 C16 1.378 . S
C19 N20 1.315 . S
C19 H22 0.930 . S
N20 Co0 2.194 . S
N20 C15 1.328 . S
N20 C19 1.315 . S
H21 C15 0.929 . S
H22 C19 0.930 . S
H23 C11 0.929 . S
H24 C13 0.929 . S
O25 Co0 2.351 . S
O25 C28 1.244 . S
O26 Co0 2.155 . S
O26 C28 1.240 . S
O27 Co0 2.096 . S
O27 C8 1.247 . S
C28 O25 1.244 . S
C28 O26 1.240 . S
H29 C3 0.931 . S
H30 C12 0.931 . S
H31 C16 0.929 . S
H32 C18 0.930 . S
Co33 N37 2.148 . S
Co33 N43 2.128 . S
Co33 N53 2.194 . S
Co33 O58 2.351 . S
Co33 O59 2.155 . S
Co33 O60 2.096 . S
C34 N37 1.301 . S
C34 N38 1.328 . S
C34 H39 0.930 . S
C35 C36 1.333 . S
C35 N37 1.317 . S
C35 H40 0.930 . S
C36 C35 1.333 . S
C36 N38 1.350 . S
C36 H62 0.931 . S
N37 Co33 2.148 . S
N37 C34 1.301 . S
N37 C35 1.317 . S
N38 C34 1.328 . S
N38 C36 1.350 . S
H39 C34 0.930 . S
H40 C35 0.930 . S
C41 O42 1.224 . S
C41 O60 1.247 . S
O42 C41 1.224 . S
N43 Co33 2.128 . S
N43 C44 1.355 . S
N43 C46 1.311 . S
C44 N43 1.355 . S
C44 C45 1.363 1_545 S
C44 H56 0.929 . S
C45 C44 1.363 1_565 S
C45 N47 1.375 1_565 S
C45 H63 0.931 . S
C46 N43 1.311 . S
C46 N47 1.347 . S
C46 H57 0.929 . S
N47 C45 1.375 1_545 S
N47 C46 1.347 . S
C48 C51 1.365 . S
C48 N53 1.328 . S
C48 H54 0.929 . S
C49 C50 1.362 . S
C49 C52 1.378 . S
C49 H64 0.929 . S
C50 C49 1.362 . S
C50 C51 1.366 . S
C51 C48 1.365 . S
C51 C50 1.366 . S
C51 H65 0.930 . S
C52 C49 1.378 . S
C52 N53 1.315 . S
C52 H55 0.930 . S
N53 Co33 2.194 . S
N53 C48 1.328 . S
N53 C52 1.315 . S
H54 C48 0.929 . S
H55 C52 0.930 . S
H56 C44 0.929 . S
H57 C46 0.929 . S
O58 Co33 2.351 . S
O58 C61 1.244 . S
O59 Co33 2.155 . S
O59 C61 1.240 . S
O60 Co33 2.096 . S
O60 C41 1.247 . S
C61 O58 1.244 . S
C61 O59 1.240 . S
H62 C36 0.931 . S
H63 C45 0.931 . S
H64 C49 0.929 . S
H65 C51 0.930 . S
Co66 N70 2.148 . S
Co66 N76 2.128 . S
Co66 N86 2.194 . S
Co66 O91 2.351 . S
Co66 O92 2.155 . S
Co66 O93 2.096 . S
C67 N70 1.301 . S
C67 N71 1.328 . S
C67 H72 0.930 . S
C68 C69 1.333 . S
C68 N70 1.317 . S
C68 H73 0.930 . S
C69 C68 1.333 . S
C69 N71 1.350 . S
C69 H95 0.931 . S
N70 Co66 2.148 . S
N70 C67 1.301 . S
N70 C68 1.317 . S
N71 C67 1.328 . S
N71 C69 1.350 . S
H72 C67 0.930 . S
H73 C68 0.930 . S
C74 O75 1.224 . S
C74 O93 1.247 . S
O75 C74 1.224 . S
N76 Co66 2.128 . S
N76 C77 1.355 . S
N76 C79 1.311 . S
C77 N76 1.355 . S
C77 C78 1.363 1_545 S
C77 H89 0.929 . S
C78 C77 1.363 1_565 S
C78 N80 1.375 1_565 S
C78 H96 0.931 . S
C79 N76 1.311 . S
C79 N80 1.347 . S
C79 H90 0.929 . S
N80 C78 1.375 1_545 S
N80 C79 1.347 . S
C81 C84 1.365 . S
C81 N86 1.328 . S
C81 H87 0.929 . S
C82 C83 1.362 . S
C82 C85 1.378 . S
C82 H97 0.929 . S
C83 C82 1.362 . S
C83 C84 1.366 . S
C84 C81 1.365 . S
C84 C83 1.366 . S
C84 H98 0.930 . S
C85 C82 1.378 . S
C85 N86 1.315 . S
C85 H88 0.930 . S
N86 Co66 2.194 . S
N86 C81 1.328 . S
N86 C85 1.315 . S
H87 C81 0.929 . S
H88 C85 0.930 . S
H89 C77 0.929 . S
H90 C79 0.929 . S
O91 Co66 2.351 . S
O91 C94 1.244 . S
O92 Co66 2.155 . S
O92 C94 1.240 . S
O93 Co66 2.096 . S
O93 C74 1.247 . S
C94 O91 1.244 . S
C94 O92 1.240 . S
H95 C69 0.931 . S
H96 C78 0.931 . S
H97 C82 0.929 . S
H98 C84 0.930 . S
Co99 N103 2.148 . S
Co99 N109 2.128 . S
Co99 N119 2.194 . S
Co99 O124 2.351 . S
Co99 O125 2.155 . S
Co99 O126 2.096 . S
C100 N103 1.301 . S
C100 N104 1.328 . S
C100 H105 0.930 . S
C101 C102 1.333 . S
C101 N103 1.317 . S
C101 H106 0.930 . S
C102 C101 1.333 . S
C102 N104 1.350 . S
C102 H128 0.931 . S
N103 Co99 2.148 . S
N103 C100 1.301 . S
N103 C101 1.317 . S
N104 C100 1.328 . S
N104 C102 1.350 . S
H105 C100 0.930 . S
H106 C101 0.930 . S
C107 O108 1.224 . S
C107 O126 1.247 . S
O108 C107 1.224 . S
N109 Co99 2.128 . S
N109 C110 1.355 . S
N109 C112 1.311 . S
C110 N109 1.355 . S
C110 C111 1.363 . S
C110 H122 0.929 . S
C111 C110 1.363 . S
C111 N113 1.375 . S
C111 H129 0.931 . S
C112 N109 1.311 . S
C112 N113 1.347 . S
C112 H123 0.929 . S
N113 C111 1.375 . S
N113 C112 1.347 . S
C114 C117 1.365 . S
C114 N119 1.328 . S
C114 H120 0.929 . S
C115 C116 1.362 . S
C115 C118 1.378 . S
C115 H130 0.929 . S
C116 C115 1.362 . S
C116 C117 1.366 . S
C117 C114 1.365 . S
C117 C116 1.366 . S
C117 H131 0.930 . S
C118 C115 1.378 . S
C118 N119 1.315 . S
C118 H121 0.930 . S
N119 Co99 2.194 . S
N119 C114 1.328 . S
N119 C118 1.315 . S
H120 C114 0.929 . S
H121 C118 0.930 . S
H122 C110 0.929 . S
H123 C112 0.929 . S
O124 Co99 2.351 . S
O124 C127 1.244 . S
O125 Co99 2.155 . S
O125 C127 1.240 . S
O126 Co99 2.096 . S
O126 C107 1.247 . S
C127 O124 1.244 . S
C127 O125 1.240 . S
H128 C102 0.931 . S
H129 C111 0.931 . S
H130 C115 0.929 . S
H131 C117 0.930 . S
Co132 N136 2.148 . S
Co132 N142 2.128 . S
Co132 N152 2.194 . S
Co132 O157 2.351 . S
Co132 O158 2.155 . S
Co132 O159 2.096 . S
C133 N136 1.301 . S
C133 N137 1.328 . S
C133 H138 0.930 . S
C134 C135 1.333 . S
C134 N136 1.317 . S
C134 H139 0.930 . S
C135 C134 1.333 . S
C135 N137 1.350 . S
C135 H161 0.931 . S
N136 Co132 2.148 . S
N136 C133 1.301 . S
N136 C134 1.317 . S
N137 C133 1.328 . S
N137 C135 1.350 . S
H138 C133 0.930 . S
H139 C134 0.930 . S
C140 O141 1.224 . S
C140 O159 1.247 . S
O141 C140 1.224 . S
N142 Co132 2.128 . S
N142 C143 1.355 . S
N142 C145 1.311 . S
C143 N142 1.355 . S
C143 C144 1.363 . S
C143 H155 0.929 . S
C144 C143 1.363 . S
C144 N146 1.375 . S
C144 H162 0.931 . S
C145 N142 1.311 . S
C145 N146 1.347 . S
C145 H156 0.929 . S
N146 C144 1.375 . S
N146 C145 1.347 . S
C147 C150 1.365 . S
C147 N152 1.328 . S
C147 H153 0.929 . S
C148 C149 1.362 . S
C148 C151 1.378 . S
C148 H163 0.929 . S
C149 C148 1.362 . S
C149 C150 1.366 . S
C150 C147 1.365 . S
C150 C149 1.366 . S
C150 H164 0.930 . S
C151 C148 1.378 . S
C151 N152 1.315 . S
C151 H154 0.930 . S
N152 Co132 2.194 . S
N152 C147 1.328 . S
N152 C151 1.315 . S
H153 C147 0.929 . S
H154 C151 0.930 . S
H155 C143 0.929 . S
H156 C145 0.929 . S
O157 Co132 2.351 . S
O157 C160 1.244 . S
O158 Co132 2.155 . S
O158 C160 1.240 . S
O159 Co132 2.096 . S
O159 C140 1.247 . S
C160 O157 1.244 . S
C160 O158 1.240 . S
H161 C135 0.931 . S
H162 C144 0.931 . S
H163 C148 0.929 . S
H164 C150 0.930 . S
Co165 N169 2.148 . S
Co165 N175 2.128 . S
Co165 N185 2.194 . S
Co165 O190 2.351 . S
Co165 O191 2.155 . S
Co165 O192 2.096 . S
C166 N169 1.301 . S
C166 N170 1.328 . S
C166 H171 0.930 . S
C167 C168 1.333 . S
C167 N169 1.317 . S
C167 H172 0.930 . S
C168 C167 1.333 . S
C168 N170 1.350 . S
C168 H194 0.931 . S
N169 Co165 2.148 . S
N169 C166 1.301 . S
N169 C167 1.317 . S
N170 C166 1.328 . S
N170 C168 1.350 . S
H171 C166 0.930 . S
H172 C167 0.930 . S
C173 O174 1.224 . S
C173 O192 1.247 . S
O174 C173 1.224 . S
N175 Co165 2.128 . S
N175 C176 1.355 . S
N175 C178 1.311 . S
C176 N175 1.355 . S
C176 C177 1.363 1_565 S
C176 H188 0.929 . S
C177 C176 1.363 1_545 S
C177 N179 1.375 1_545 S
C177 H195 0.931 . S
C178 N175 1.311 . S
C178 N179 1.347 . S
C178 H189 0.929 . S
N179 C177 1.375 1_565 S
N179 C178 1.347 . S
C180 C183 1.365 . S
C180 N185 1.328 . S
C180 H186 0.929 . S
C181 C182 1.362 . S
C181 C184 1.378 . S
C181 H196 0.929 . S
C182 C181 1.362 . S
C182 C183 1.366 . S
C183 C180 1.365 . S
C183 C182 1.366 . S
C183 H197 0.930 . S
C184 C181 1.378 . S
C184 N185 1.315 . S
C184 H187 0.930 . S
N185 Co165 2.194 . S
N185 C180 1.328 . S
N185 C184 1.315 . S
H186 C180 0.929 . S
H187 C184 0.930 . S
H188 C176 0.929 . S
H189 C178 0.929 . S
O190 Co165 2.351 . S
O190 C193 1.244 . S
O191 Co165 2.155 . S
O191 C193 1.240 . S
O192 Co165 2.096 . S
O192 C173 1.247 . S
C193 O190 1.244 . S
C193 O191 1.240 . S
H194 C168 0.931 . S
H195 C177 0.931 . S
H196 C181 0.929 . S
H197 C183 0.930 . S
Co198 N202 2.148 . S
Co198 N208 2.128 . S
Co198 N218 2.194 . S
Co198 O223 2.351 . S
Co198 O224 2.155 . S
Co198 O225 2.096 . S
C199 N202 1.301 . S
C199 N203 1.328 . S
C199 H204 0.930 . S
C200 C201 1.333 . S
C200 N202 1.317 . S
C200 H205 0.930 . S
C201 C200 1.333 . S
C201 N203 1.350 . S
C201 H227 0.931 . S
N202 Co198 2.148 . S
N202 C199 1.301 . S
N202 C200 1.317 . S
N203 C199 1.328 . S
N203 C201 1.350 . S
H204 C199 0.930 . S
H205 C200 0.930 . S
C206 O207 1.224 . S
C206 O225 1.247 . S
O207 C206 1.224 . S
N208 Co198 2.128 . S
N208 C209 1.355 . S
N208 C211 1.311 . S
C209 N208 1.355 . S
C209 C210 1.363 1_565 S
C209 H221 0.929 . S
C210 C209 1.363 1_545 S
C210 N212 1.375 1_545 S
C210 H228 0.931 . S
C211 N208 1.311 . S
C211 N212 1.347 . S
C211 H222 0.929 . S
N212 C210 1.375 1_565 S
N212 C211 1.347 . S
C213 C216 1.365 . S
C213 N218 1.328 . S
C213 H219 0.929 . S
C214 C215 1.362 . S
C214 C217 1.378 . S
C214 H229 0.929 . S
C215 C214 1.362 . S
C215 C216 1.366 . S
C216 C213 1.365 . S
C216 C215 1.366 . S
C216 H230 0.930 . S
C217 C214 1.378 . S
C217 N218 1.315 . S
C217 H220 0.930 . S
N218 Co198 2.194 . S
N218 C213 1.328 . S
N218 C217 1.315 . S
H219 C213 0.929 . S
H220 C217 0.930 . S
H221 C209 0.929 . S
H222 C211 0.929 . S
O223 Co198 2.351 . S
O223 C226 1.244 . S
O224 Co198 2.155 . S
O224 C226 1.240 . S
O225 Co198 2.096 . S
O225 C206 1.247 . S
C226 O223 1.244 . S
C226 O224 1.240 . S
H227 C201 0.931 . S
H228 C210 0.931 . S
H229 C214 0.929 . S
H230 C216 0.930 . S
Co231 N235 2.148 . S
Co231 N241 2.128 . S
Co231 N251 2.194 . S
Co231 O256 2.351 . S
Co231 O257 2.155 . S
Co231 O258 2.096 . S
C232 N235 1.301 . S
C232 N236 1.328 . S
C232 H237 0.930 . S
C233 C234 1.333 . S
C233 N235 1.317 . S
C233 H238 0.930 . S
C234 C233 1.333 . S
C234 N236 1.350 . S
C234 H260 0.931 . S
N235 Co231 2.148 . S
N235 C232 1.301 . S
N235 C233 1.317 . S
N236 C232 1.328 . S
N236 C234 1.350 . S
H237 C232 0.930 . S
H238 C233 0.930 . S
C239 O240 1.224 . S
C239 O258 1.247 . S
O240 C239 1.224 . S
N241 Co231 2.128 . S
N241 C242 1.355 . S
N241 C244 1.311 . S
C242 N241 1.355 . S
C242 C243 1.363 . S
C242 H254 0.929 . S
C243 C242 1.363 . S
C243 N245 1.375 . S
C243 H261 0.931 . S
C244 N241 1.311 . S
C244 N245 1.347 . S
C244 H255 0.929 . S
N245 C243 1.375 . S
N245 C244 1.347 . S
C246 C249 1.365 . S
C246 N251 1.328 . S
C246 H252 0.929 . S
C247 C248 1.362 . S
C247 C250 1.378 . S
C247 H262 0.929 . S
C248 C247 1.362 . S
C248 C249 1.366 . S
C249 C246 1.365 . S
C249 C248 1.366 . S
C249 H263 0.930 . S
C250 C247 1.378 . S
C250 N251 1.315 . S
C250 H253 0.930 . S
N251 Co231 2.194 . S
N251 C246 1.328 . S
N251 C250 1.315 . S
H252 C246 0.929 . S
H253 C250 0.930 . S
H254 C242 0.929 . S
H255 C244 0.929 . S
O256 Co231 2.351 . S
O256 C259 1.244 . S
O257 Co231 2.155 . S
O257 C259 1.240 . S
O258 Co231 2.096 . S
O258 C239 1.247 . S
C259 O256 1.244 . S
C259 O257 1.240 . S
H260 C234 0.931 . S
H261 C243 0.931 . S
H262 C247 0.929 . S
H263 C249 0.930 . S
Co264 N268 2.148 . S
Co264 N274 2.128 . S
Co264 N284 2.194 . S
Co264 O289 2.351 . S
Co264 O290 2.155 . S
Co264 O291 2.096 . S
C265 N268 1.301 1_554 S
C265 N269 1.328 . S
C265 H270 0.930 . S
C266 C267 1.333 1_556 S
C266 N268 1.317 . S
C266 H271 0.930 . S
C267 C266 1.333 1_554 S
C267 N269 1.350 . S
C267 H293 0.931 . S
N268 Co264 2.148 . S
N268 C265 1.301 1_556 S
N268 C266 1.317 . S
N269 C265 1.328 . S
N269 C267 1.350 . S
H270 C265 0.930 . S
H271 C266 0.930 . S
C272 O273 1.224 . S
C272 O291 1.247 . S
O273 C272 1.224 . S
N274 Co264 2.128 . S
N274 C275 1.355 . S
N274 C277 1.311 . S
C275 N274 1.355 . S
C275 C276 1.363 . S
C275 H287 0.929 . S
C276 C275 1.363 . S
C276 N278 1.375 . S
C276 H294 0.931 . S
C277 N274 1.311 . S
C277 N278 1.347 . S
C277 H288 0.929 . S
N278 C276 1.375 . S
N278 C277 1.347 . S
C279 C282 1.365 . S
C279 N284 1.328 . S
C279 H285 0.929 . S
C280 C281 1.362 . S
C280 C283 1.378 . S
C280 H295 0.929 . S
C281 C280 1.362 . S
C281 C282 1.366 . S
C282 C279 1.365 . S
C282 C281 1.366 . S
C282 H296 0.930 . S
C283 C280 1.378 . S
C283 N284 1.315 . S
C283 H286 0.930 . S
N284 Co264 2.194 . S
N284 C279 1.328 . S
N284 C283 1.315 . S
H285 C279 0.929 . S
H286 C283 0.930 . S
H287 C275 0.929 . S
H288 C277 0.929 . S
O289 Co264 2.351 . S
O289 C292 1.244 . S
O290 Co264 2.155 . S
O290 C292 1.240 . S
O291 Co264 2.096 . S
O291 C272 1.247 . S
C292 O289 1.244 . S
C292 O290 1.240 . S
H293 C267 0.931 . S
H294 C276 0.931 . S
H295 C280 0.929 . S
H296 C282 0.930 . S
Co297 N301 2.148 . S
Co297 N307 2.128 . S
Co297 N317 2.194 . S
Co297 O322 2.351 . S
Co297 O323 2.155 . S
Co297 O324 2.096 . S
C298 N301 1.301 1_554 S
C298 N302 1.328 . S
C298 H303 0.930 . S
C299 C300 1.333 1_556 S
C299 N301 1.317 . S
C299 H304 0.930 . S
C300 C299 1.333 1_554 S
C300 N302 1.350 . S
C300 H326 0.931 . S
N301 Co297 2.148 . S
N301 C298 1.301 1_556 S
N301 C299 1.317 . S
N302 C298 1.328 . S
N302 C300 1.350 . S
H303 C298 0.930 . S
H304 C299 0.930 . S
C305 O306 1.224 . S
C305 O324 1.247 . S
O306 C305 1.224 . S
N307 Co297 2.128 . S
N307 C308 1.355 . S
N307 C310 1.311 . S
C308 N307 1.355 . S
C308 C309 1.363 . S
C308 H320 0.929 . S
C309 C308 1.363 . S
C309 N311 1.375 . S
C309 H327 0.931 . S
C310 N307 1.311 . S
C310 N311 1.347 . S
C310 H321 0.929 . S
N311 C309 1.375 . S
N311 C310 1.347 . S
C312 C315 1.365 . S
C312 N317 1.328 . S
C312 H318 0.929 . S
C313 C314 1.362 . S
C313 C316 1.378 . S
C313 H328 0.929 . S
C314 C313 1.362 . S
C314 C315 1.366 . S
C315 C312 1.365 . S
C315 C314 1.366 . S
C315 H329 0.930 . S
C316 C313 1.378 . S
C316 N317 1.315 . S
C316 H319 0.930 . S
N317 Co297 2.194 . S
N317 C312 1.328 . S
N317 C316 1.315 . S
H318 C312 0.929 . S
H319 C316 0.930 . S
H320 C308 0.929 . S
H321 C310 0.929 . S
O322 Co297 2.351 . S
O322 C325 1.244 . S
O323 Co297 2.155 . S
O323 C325 1.240 . S
O324 Co297 2.096 . S
O324 C305 1.247 . S
C325 O322 1.244 . S
C325 O323 1.240 . S
H326 C300 0.931 . S
H327 C309 0.931 . S
H328 C313 0.929 . S
H329 C315 0.930 . S
Co330 N334 2.148 . S
Co330 N340 2.128 . S
Co330 N350 2.194 . S
Co330 O355 2.351 . S
Co330 O356 2.155 . S
Co330 O357 2.096 . S
C331 N334 1.301 . S
C331 N335 1.328 . S
C331 H336 0.930 . S
C332 C333 1.333 . S
C332 N334 1.317 . S
C332 H337 0.930 . S
C333 C332 1.333 . S
C333 N335 1.350 . S
C333 H359 0.931 . S
N334 Co330 2.148 . S
N334 C331 1.301 . S
N334 C332 1.317 . S
N335 C331 1.328 . S
N335 C333 1.350 . S
H336 C331 0.930 . S
H337 C332 0.930 . S
C338 O339 1.224 . S
C338 O357 1.247 . S
O339 C338 1.224 . S
N340 Co330 2.128 . S
N340 C341 1.355 . S
N340 C343 1.311 . S
C341 N340 1.355 . S
C341 C342 1.363 . S
C341 H353 0.929 . S
C342 C341 1.363 . S
C342 N344 1.375 . S
C342 H360 0.931 . S
C343 N340 1.311 . S
C343 N344 1.347 . S
C343 H354 0.929 . S
N344 C342 1.375 . S
N344 C343 1.347 . S
C345 C348 1.365 . S
C345 N350 1.328 . S
C345 H351 0.929 . S
C346 C347 1.362 . S
C346 C349 1.378 . S
C346 H361 0.929 . S
C347 C346 1.362 . S
C347 C348 1.366 . S
C348 C345 1.365 . S
C348 C347 1.366 . S
C348 H362 0.930 . S
C349 C346 1.378 . S
C349 N350 1.315 . S
C349 H352 0.930 . S
N350 Co330 2.194 . S
N350 C345 1.328 . S
N350 C349 1.315 . S
H351 C345 0.929 . S
H352 C349 0.930 . S
H353 C341 0.929 . S
H354 C343 0.929 . S
O355 Co330 2.351 . S
O355 C358 1.244 . S
O356 Co330 2.155 . S
O356 C358 1.240 . S
O357 Co330 2.096 . S
O357 C338 1.247 . S
C358 O355 1.244 . S
C358 O356 1.240 . S
H359 C333 0.931 . S
H360 C342 0.931 . S
H361 C346 0.929 . S
H362 C348 0.930 . S
Co363 N367 2.148 . S
Co363 N373 2.128 . S
Co363 N383 2.194 . S
Co363 O388 2.351 . S
Co363 O389 2.155 . S
Co363 O390 2.096 . S
C364 N367 1.301 . S
C364 N368 1.328 . S
C364 H369 0.930 . S
C365 C366 1.333 . S
C365 N367 1.317 . S
C365 H370 0.930 . S
C366 C365 1.333 . S
C366 N368 1.350 . S
C366 H392 0.931 . S
N367 Co363 2.148 . S
N367 C364 1.301 . S
N367 C365 1.317 . S
N368 C364 1.328 . S
N368 C366 1.350 . S
H369 C364 0.930 . S
H370 C365 0.930 . S
C371 O372 1.224 . S
C371 O390 1.247 . S
O372 C371 1.224 . S
N373 Co363 2.128 . S
N373 C374 1.355 . S
N373 C376 1.311 . S
C374 N373 1.355 . S
C374 C375 1.363 . S
C374 H386 0.929 . S
C375 C374 1.363 . S
C375 N377 1.375 . S
C375 H393 0.931 . S
C376 N373 1.311 . S
C376 N377 1.347 . S
C376 H387 0.929 . S
N377 C375 1.375 . S
N377 C376 1.347 . S
C378 C381 1.365 . S
C378 N383 1.328 . S
C378 H384 0.929 . S
C379 C380 1.362 . S
C379 C382 1.378 . S
C379 H394 0.929 . S
C380 C379 1.362 . S
C380 C381 1.366 . S
C381 C378 1.365 . S
C381 C380 1.366 . S
C381 H395 0.930 . S
C382 C379 1.378 . S
C382 N383 1.315 . S
C382 H385 0.930 . S
N383 Co363 2.194 . S
N383 C378 1.328 . S
N383 C382 1.315 . S
H384 C378 0.929 . S
H385 C382 0.930 . S
H386 C374 0.929 . S
H387 C376 0.929 . S
O388 Co363 2.351 . S
O388 C391 1.244 . S
O389 Co363 2.155 . S
O389 C391 1.240 . S
O390 Co363 2.096 . S
O390 C371 1.247 . S
C391 O388 1.244 . S
C391 O389 1.240 . S
H392 C366 0.931 . S
H393 C375 0.931 . S
H394 C379 0.929 . S
H395 C381 0.930 . S
Co396 N400 2.148 . S
Co396 N406 2.128 . S
Co396 N416 2.194 . S
Co396 O421 2.351 . S
Co396 O422 2.155 . S
Co396 O423 2.096 . S
C397 N400 1.301 1_556 S
C397 N401 1.328 . S
C397 H402 0.930 . S
C398 C399 1.333 1_554 S
C398 N400 1.317 . S
C398 H403 0.930 . S
C399 C398 1.333 1_556 S
C399 N401 1.350 . S
C399 H425 0.931 . S
N400 Co396 2.148 . S
N400 C397 1.301 1_554 S
N400 C398 1.317 . S
N401 C397 1.328 . S
N401 C399 1.350 . S
H402 C397 0.930 . S
H403 C398 0.930 . S
C404 O405 1.224 . S
C404 O423 1.247 . S
O405 C404 1.224 . S
N406 Co396 2.128 . S
N406 C407 1.355 . S
N406 C409 1.311 . S
C407 N406 1.355 . S
C407 C408 1.363 . S
C407 H419 0.929 . S
C408 C407 1.363 . S
C408 N410 1.375 . S
C408 H426 0.931 . S
C409 N406 1.311 . S
C409 N410 1.347 . S
C409 H420 0.929 . S
N410 C408 1.375 . S
N410 C409 1.347 . S
C411 C414 1.365 . S
C411 N416 1.328 . S
C411 H417 0.929 . S
C412 C413 1.362 . S
C412 C415 1.378 . S
C412 H427 0.929 . S
C413 C412 1.362 . S
C413 C414 1.366 . S
C414 C411 1.365 . S
C414 C413 1.366 . S
C414 H428 0.930 . S
C415 C412 1.378 . S
C415 N416 1.315 . S
C415 H418 0.930 . S
N416 Co396 2.194 . S
N416 C411 1.328 . S
N416 C415 1.315 . S
H417 C411 0.929 . S
H418 C415 0.930 . S
H419 C407 0.929 . S
H420 C409 0.929 . S
O421 Co396 2.351 . S
O421 C424 1.244 . S
O422 Co396 2.155 . S
O422 C424 1.240 . S
O423 Co396 2.096 . S
O423 C404 1.247 . S
C424 O421 1.244 . S
C424 O422 1.240 . S
H425 C399 0.931 . S
H426 C408 0.931 . S
H427 C412 0.929 . S
H428 C414 0.930 . S
Co429 N433 2.148 . S
Co429 N439 2.128 . S
Co429 N449 2.194 . S
Co429 O454 2.351 . S
Co429 O455 2.155 . S
Co429 O456 2.096 . S
C430 N433 1.301 1_556 S
C430 N434 1.328 . S
C430 H435 0.930 . S
C431 C432 1.333 1_554 S
C431 N433 1.317 . S
C431 H436 0.930 . S
C432 C431 1.333 1_556 S
C432 N434 1.350 . S
C432 H458 0.931 . S
N433 Co429 2.148 . S
N433 C430 1.301 1_554 S
N433 C431 1.317 . S
N434 C430 1.328 . S
N434 C432 1.350 . S
H435 C430 0.930 . S
H436 C431 0.930 . S
C437 O438 1.224 . S
C437 O456 1.247 . S
O438 C437 1.224 . S
N439 Co429 2.128 . S
N439 C440 1.355 . S
N439 C442 1.311 . S
C440 N439 1.355 . S
C440 C441 1.363 . S
C440 H452 0.929 . S
C441 C440 1.363 . S
C441 N443 1.375 . S
C441 H459 0.931 . S
C442 N439 1.311 . S
C442 N443 1.347 . S
C442 H453 0.929 . S
N443 C441 1.375 . S
N443 C442 1.347 . S
C444 C447 1.365 . S
C444 N449 1.328 . S
C444 H450 0.929 . S
C445 C446 1.362 . S
C445 C448 1.378 . S
C445 H460 0.929 . S
C446 C445 1.362 . S
C446 C447 1.366 . S
C447 C444 1.365 . S
C447 C446 1.366 . S
C447 H461 0.930 . S
C448 C445 1.378 . S
C448 N449 1.315 . S
C448 H451 0.930 . S
N449 Co429 2.194 . S
N449 C444 1.328 . S
N449 C448 1.315 . S
H450 C444 0.929 . S
H451 C448 0.930 . S
H452 C440 0.929 . S
H453 C442 0.929 . S
O454 Co429 2.351 . S
O454 C457 1.244 . S
O455 Co429 2.155 . S
O455 C457 1.240 . S
O456 Co429 2.096 . S
O456 C437 1.247 . S
C457 O454 1.244 . S
C457 O455 1.240 . S
H458 C432 0.931 . S
H459 C441 0.931 . S
H460 C445 0.929 . S
H461 C447 0.930 . S
Co462 N466 2.148 . S
Co462 N472 2.128 . S
Co462 N482 2.194 . S
Co462 O487 2.351 . S
Co462 O488 2.155 . S
Co462 O489 2.096 . S
C463 N466 1.301 . S
C463 N467 1.328 . S
C463 H468 0.930 . S
C464 C465 1.333 . S
C464 N466 1.317 . S
C464 H469 0.930 . S
C465 C464 1.333 . S
C465 N467 1.350 . S
C465 H491 0.931 . S
N466 Co462 2.148 . S
N466 C463 1.301 . S
N466 C464 1.317 . S
N467 C463 1.328 . S
N467 C465 1.350 . S
H468 C463 0.930 . S
H469 C464 0.930 . S
C470 O471 1.224 . S
C470 O489 1.247 . S
O471 C470 1.224 . S
N472 Co462 2.128 . S
N472 C473 1.355 . S
N472 C475 1.311 . S
C473 N472 1.355 . S
C473 C474 1.363 . S
C473 H485 0.929 . S
C474 C473 1.363 . S
C474 N476 1.375 . S
C474 H492 0.931 . S
C475 N472 1.311 . S
C475 N476 1.347 . S
C475 H486 0.929 . S
N476 C474 1.375 . S
N476 C475 1.347 . S
C477 C480 1.365 . S
C477 N482 1.328 . S
C477 H483 0.929 . S
C478 C479 1.362 . S
C478 C481 1.378 . S
C478 H493 0.929 . S
C479 C478 1.362 . S
C479 C480 1.366 . S
C480 C477 1.365 . S
C480 C479 1.366 . S
C480 H494 0.930 . S
C481 C478 1.378 . S
C481 N482 1.315 . S
C481 H484 0.930 . S
N482 Co462 2.194 . S
N482 C477 1.328 . S
N482 C481 1.315 . S
H483 C477 0.929 . S
H484 C481 0.930 . S
H485 C473 0.929 . S
H486 C475 0.929 . S
O487 Co462 2.351 . S
O487 C490 1.244 . S
O488 Co462 2.155 . S
O488 C490 1.240 . S
O489 Co462 2.096 . S
O489 C470 1.247 . S
C490 O487 1.244 . S
C490 O488 1.240 . S
H491 C465 0.931 . S
H492 C474 0.931 . S
H493 C478 0.929 . S
H494 C480 0.930 . S
Co495 N499 2.148 . S
Co495 N505 2.128 . S
Co495 N515 2.194 . S
Co495 O520 2.351 . S
Co495 O521 2.155 . S
Co495 O522 2.096 . S
C496 N499 1.301 . S
C496 N500 1.328 . S
C496 H501 0.930 . S
C497 C498 1.333 . S
C497 N499 1.317 . S
C497 H502 0.930 . S
C498 C497 1.333 . S
C498 N500 1.350 . S
C498 H524 0.931 . S
N499 Co495 2.148 . S
N499 C496 1.301 . S
N499 C497 1.317 . S
N500 C496 1.328 . S
N500 C498 1.350 . S
H501 C496 0.930 . S
H502 C497 0.930 . S
C503 O504 1.224 . S
C503 O522 1.247 . S
O504 C503 1.224 . S
N505 Co495 2.128 . S
N505 C506 1.355 . S
N505 C508 1.311 . S
C506 N505 1.355 . S
C506 C507 1.363 . S
C506 H518 0.929 . S
C507 C506 1.363 . S
C507 N509 1.375 . S
C507 H525 0.931 . S
C508 N505 1.311 . S
C508 N509 1.347 . S
C508 H519 0.929 . S
N509 C507 1.375 . S
N509 C508 1.347 . S
C510 C513 1.365 . S
C510 N515 1.328 . S
C510 H516 0.929 . S
C511 C512 1.362 . S
C511 C514 1.378 . S
C511 H526 0.929 . S
C512 C511 1.362 . S
C512 C513 1.366 . S
C513 C510 1.365 . S
C513 C512 1.366 . S
C513 H527 0.930 . S
C514 C511 1.378 . S
C514 N515 1.315 . S
C514 H517 0.930 . S
N515 Co495 2.194 . S
N515 C510 1.328 . S
N515 C514 1.315 . S
H516 C510 0.929 . S
H517 C514 0.930 . S
H518 C506 0.929 . S
H519 C508 0.929 . S
O520 Co495 2.351 . S
O520 C523 1.244 . S
O521 Co495 2.155 . S
O521 C523 1.240 . S
O522 Co495 2.096 . S
O522 C503 1.247 . S
C523 O520 1.244 . S
C523 O521 1.240 . S
H524 C498 0.931 . S
H525 C507 0.931 . S
H526 C511 0.929 . S
H527 C513 0.930 . S
Co528 N532 2.148 . S
Co528 N538 2.128 . S
Co528 N548 2.194 . S
Co528 O553 2.351 . S
Co528 O554 2.155 . S
Co528 O555 2.096 . S
C529 N532 1.301 1_554 S
C529 N533 1.328 . S
C529 H534 0.930 . S
C530 C531 1.333 1_556 S
C530 N532 1.317 . S
C530 H535 0.930 . S
C531 C530 1.333 1_554 S
C531 N533 1.350 . S
C531 H557 0.931 . S
N532 Co528 2.148 . S
N532 C529 1.301 1_556 S
N532 C530 1.317 . S
N533 C529 1.328 . S
N533 C531 1.350 . S
H534 C529 0.930 . S
H535 C530 0.930 . S
C536 O537 1.224 . S
C536 O555 1.247 . S
O537 C536 1.224 . S
N538 Co528 2.128 . S
N538 C539 1.355 . S
N538 C541 1.311 . S
C539 N538 1.355 . S
C539 C540 1.363 . S
C539 H551 0.929 . S
C540 C539 1.363 . S
C540 N542 1.375 . S
C540 H558 0.931 . S
C541 N538 1.311 . S
C541 N542 1.347 . S
C541 H552 0.929 . S
N542 C540 1.375 . S
N542 C541 1.347 . S
C543 C546 1.365 . S
C543 N548 1.328 . S
C543 H549 0.929 . S
C544 C545 1.362 . S
C544 C547 1.378 . S
C544 H559 0.929 . S
C545 C544 1.362 . S
C545 C546 1.366 . S
C546 C543 1.365 . S
C546 C545 1.366 . S
C546 H560 0.930 . S
C547 C544 1.378 . S
C547 N548 1.315 . S
C547 H550 0.930 . S
N548 Co528 2.194 . S
N548 C543 1.328 . S
N548 C547 1.315 . S
H549 C543 0.929 . S
H550 C547 0.930 . S
H551 C539 0.929 . S
H552 C541 0.929 . S
O553 Co528 2.351 . S
O553 C556 1.244 . S
O554 Co528 2.155 . S
O554 C556 1.240 . S
O555 Co528 2.096 . S
O555 C536 1.247 . S
C556 O553 1.244 . S
C556 O554 1.240 . S
H557 C531 0.931 . S
H558 C540 0.931 . S
H559 C544 0.929 . S
H560 C546 0.930 . S
Co561 N565 2.148 . S
Co561 N571 2.128 . S
Co561 N581 2.194 . S
Co561 O586 2.351 . S
Co561 O587 2.155 . S
Co561 O588 2.096 . S
C562 N565 1.301 1_554 S
C562 N566 1.328 . S
C562 H567 0.930 . S
C563 C564 1.333 1_556 S
C563 N565 1.317 . S
C563 H568 0.930 . S
C564 C563 1.333 1_554 S
C564 N566 1.350 . S
C564 H590 0.931 . S
N565 Co561 2.148 . S
N565 C562 1.301 1_556 S
N565 C563 1.317 . S
N566 C562 1.328 . S
N566 C564 1.350 . S
H567 C562 0.930 . S
H568 C563 0.930 . S
C569 O570 1.224 . S
C569 O588 1.247 . S
O570 C569 1.224 . S
N571 Co561 2.128 . S
N571 C572 1.355 . S
N571 C574 1.311 . S
C572 N571 1.355 . S
C572 C573 1.363 1_545 S
C572 H584 0.929 . S
C573 C572 1.363 1_565 S
C573 N575 1.375 1_565 S
C573 H591 0.931 . S
C574 N571 1.311 . S
C574 N575 1.347 . S
C574 H585 0.929 . S
N575 C573 1.375 1_545 S
N575 C574 1.347 . S
C576 C579 1.365 . S
C576 N581 1.328 . S
C576 H582 0.929 . S
C577 C578 1.362 . S
C577 C580 1.378 . S
C577 H592 0.929 . S
C578 C577 1.362 . S
C578 C579 1.366 . S
C579 C576 1.365 . S
C579 C578 1.366 . S
C579 H593 0.930 . S
C580 C577 1.378 . S
C580 N581 1.315 . S
C580 H583 0.930 . S
N581 Co561 2.194 . S
N581 C576 1.328 . S
N581 C580 1.315 . S
H582 C576 0.929 . S
H583 C580 0.930 . S
H584 C572 0.929 . S
H585 C574 0.929 . S
O586 Co561 2.351 . S
O586 C589 1.244 . S
O587 Co561 2.155 . S
O587 C589 1.240 . S
O588 Co561 2.096 . S
O588 C569 1.247 . S
C589 O586 1.244 . S
C589 O587 1.240 . S
H590 C564 0.931 . S
H591 C573 0.931 . S
H592 C577 0.929 . S
H593 C579 0.930 . S
Co594 N598 2.148 . S
Co594 N604 2.128 . S
Co594 N614 2.194 . S
Co594 O619 2.351 . S
Co594 O620 2.155 . S
Co594 O621 2.096 . S
C595 N598 1.301 . S
C595 N599 1.328 . S
C595 H600 0.930 . S
C596 C597 1.333 . S
C596 N598 1.317 . S
C596 H601 0.930 . S
C597 C596 1.333 . S
C597 N599 1.350 . S
C597 H623 0.931 . S
N598 Co594 2.148 . S
N598 C595 1.301 . S
N598 C596 1.317 . S
N599 C595 1.328 . S
N599 C597 1.350 . S
H600 C595 0.930 . S
H601 C596 0.930 . S
C602 O603 1.224 . S
C602 O621 1.247 . S
O603 C602 1.224 . S
N604 Co594 2.128 . S
N604 C605 1.355 . S
N604 C607 1.311 . S
C605 N604 1.355 . S
C605 C606 1.363 1_545 S
C605 H617 0.929 . S
C606 C605 1.363 1_565 S
C606 N608 1.375 1_565 S
C606 H624 0.931 . S
C607 N604 1.311 . S
C607 N608 1.347 . S
C607 H618 0.929 . S
N608 C606 1.375 1_545 S
N608 C607 1.347 . S
C609 C612 1.365 . S
C609 N614 1.328 . S
C609 H615 0.929 . S
C610 C611 1.362 . S
C610 C613 1.378 . S
C610 H625 0.929 . S
C611 C610 1.362 . S
C611 C612 1.366 . S
C612 C609 1.365 . S
C612 C611 1.366 . S
C612 H626 0.930 . S
C613 C610 1.378 . S
C613 N614 1.315 . S
C613 H616 0.930 . S
N614 Co594 2.194 . S
N614 C609 1.328 . S
N614 C613 1.315 . S
H615 C609 0.929 . S
H616 C613 0.930 . S
H617 C605 0.929 . S
H618 C607 0.929 . S
O619 Co594 2.351 . S
O619 C622 1.244 . S
O620 Co594 2.155 . S
O620 C622 1.240 . S
O621 Co594 2.096 . S
O621 C602 1.247 . S
C622 O619 1.244 . S
C622 O620 1.240 . S
H623 C597 0.931 . S
H624 C606 0.931 . S
H625 C610 0.929 . S
H626 C612 0.930 . S
Co627 N631 2.148 . S
Co627 N637 2.128 . S
Co627 N647 2.194 . S
Co627 O652 2.351 . S
Co627 O653 2.155 . S
Co627 O654 2.096 . S
C628 N631 1.301 . S
C628 N632 1.328 . S
C628 H633 0.930 . S
C629 C630 1.333 . S
C629 N631 1.317 . S
C629 H634 0.930 . S
C630 C629 1.333 . S
C630 N632 1.350 . S
C630 H656 0.931 . S
N631 Co627 2.148 . S
N631 C628 1.301 . S
N631 C629 1.317 . S
N632 C628 1.328 . S
N632 C630 1.350 . S
H633 C628 0.930 . S
H634 C629 0.930 . S
C635 O636 1.224 . S
C635 O654 1.247 . S
O636 C635 1.224 . S
N637 Co627 2.128 . S
N637 C638 1.355 . S
N637 C640 1.311 . S
C638 N637 1.355 . S
C638 C639 1.363 . S
C638 H650 0.929 . S
C639 C638 1.363 . S
C639 N641 1.375 . S
C639 H657 0.931 . S
C640 N637 1.311 . S
C640 N641 1.347 . S
C640 H651 0.929 . S
N641 C639 1.375 . S
N641 C640 1.347 . S
C642 C645 1.365 . S
C642 N647 1.328 . S
C642 H648 0.929 . S
C643 C644 1.362 . S
C643 C646 1.378 . S
C643 H658 0.929 . S
C644 C643 1.362 . S
C644 C645 1.366 . S
C645 C642 1.365 . S
C645 C644 1.366 . S
C645 H659 0.930 . S
C646 C643 1.378 . S
C646 N647 1.315 . S
C646 H649 0.930 . S
N647 Co627 2.194 . S
N647 C642 1.328 . S
N647 C646 1.315 . S
H648 C642 0.929 . S
H649 C646 0.930 . S
H650 C638 0.929 . S
H651 C640 0.929 . S
O652 Co627 2.351 . S
O652 C655 1.244 . S
O653 Co627 2.155 . S
O653 C655 1.240 . S
O654 Co627 2.096 . S
O654 C635 1.247 . S
C655 O652 1.244 . S
C655 O653 1.240 . S
H656 C630 0.931 . S
H657 C639 0.931 . S
H658 C643 0.929 . S
H659 C645 0.930 . S
Co660 N664 2.148 . S
Co660 N670 2.128 . S
Co660 N680 2.194 . S
Co660 O685 2.351 . S
Co660 O686 2.155 . S
Co660 O687 2.096 . S
C661 N664 1.301 1_556 S
C661 N665 1.328 . S
C661 H666 0.930 . S
C662 C663 1.333 1_554 S
C662 N664 1.317 . S
C662 H667 0.930 . S
C663 C662 1.333 1_556 S
C663 N665 1.350 . S
C663 H689 0.931 . S
N664 Co660 2.148 . S
N664 C661 1.301 1_554 S
N664 C662 1.317 . S
N665 C661 1.328 . S
N665 C663 1.350 . S
H666 C661 0.930 . S
H667 C662 0.930 . S
C668 O669 1.224 . S
C668 O687 1.247 . S
O669 C668 1.224 . S
N670 Co660 2.128 . S
N670 C671 1.355 . S
N670 C673 1.311 . S
C671 N670 1.355 . S
C671 C672 1.363 . S
C671 H683 0.929 . S
C672 C671 1.363 . S
C672 N674 1.375 . S
C672 H690 0.931 . S
C673 N670 1.311 . S
C673 N674 1.347 . S
C673 H684 0.929 . S
N674 C672 1.375 . S
N674 C673 1.347 . S
C675 C678 1.365 . S
C675 N680 1.328 . S
C675 H681 0.929 . S
C676 C677 1.362 . S
C676 C679 1.378 . S
C676 H691 0.929 . S
C677 C676 1.362 . S
C677 C678 1.366 . S
C678 C675 1.365 . S
C678 C677 1.366 . S
C678 H692 0.930 . S
C679 C676 1.378 . S
C679 N680 1.315 . S
C679 H682 0.930 . S
N680 Co660 2.194 . S
N680 C675 1.328 . S
N680 C679 1.315 . S
H681 C675 0.929 . S
H682 C679 0.930 . S
H683 C671 0.929 . S
H684 C673 0.929 . S
O685 Co660 2.351 . S
O685 C688 1.244 . S
O686 Co660 2.155 . S
O686 C688 1.240 . S
O687 Co660 2.096 . S
O687 C668 1.247 . S
C688 O685 1.244 . S
C688 O686 1.240 . S
H689 C663 0.931 . S
H690 C672 0.931 . S
H691 C676 0.929 . S
H692 C678 0.930 . S
Co693 N697 2.148 . S
Co693 N703 2.128 . S
Co693 N713 2.194 . S
Co693 O718 2.351 . S
Co693 O719 2.155 . S
Co693 O720 2.096 . S
C694 N697 1.301 1_556 S
C694 N698 1.328 . S
C694 H699 0.930 . S
C695 C696 1.333 1_554 S
C695 N697 1.317 . S
C695 H700 0.930 . S
C696 C695 1.333 1_556 S
C696 N698 1.350 . S
C696 H722 0.931 . S
N697 Co693 2.148 . S
N697 C694 1.301 1_554 S
N697 C695 1.317 . S
N698 C694 1.328 . S
N698 C696 1.350 . S
H699 C694 0.930 . S
H700 C695 0.930 . S
C701 O702 1.224 . S
C701 O720 1.247 . S
O702 C701 1.224 . S
N703 Co693 2.128 . S
N703 C704 1.355 . S
N703 C706 1.311 . S
C704 N703 1.355 . S
C704 C705 1.363 1_565 S
C704 H716 0.929 . S
C705 C704 1.363 1_545 S
C705 N707 1.375 1_545 S
C705 H723 0.931 . S
C706 N703 1.311 . S
C706 N707 1.347 . S
C706 H717 0.929 . S
N707 C705 1.375 1_565 S
N707 C706 1.347 . S
C708 C711 1.365 . S
C708 N713 1.328 . S
C708 H714 0.929 . S
C709 C710 1.362 . S
C709 C712 1.378 . S
C709 H724 0.929 . S
C710 C709 1.362 . S
C710 C711 1.366 . S
C711 C708 1.365 . S
C711 C710 1.366 . S
C711 H725 0.930 . S
C712 C709 1.378 . S
C712 N713 1.315 . S
C712 H715 0.930 . S
N713 Co693 2.194 . S
N713 C708 1.328 . S
N713 C712 1.315 . S
H714 C708 0.929 . S
H715 C712 0.930 . S
H716 C704 0.929 . S
H717 C706 0.929 . S
O718 Co693 2.351 . S
O718 C721 1.244 . S
O719 Co693 2.155 . S
O719 C721 1.240 . S
O720 Co693 2.096 . S
O720 C701 1.247 . S
C721 O718 1.244 . S
C721 O719 1.240 . S
H722 C696 0.931 . S
H723 C705 0.931 . S
H724 C709 0.929 . S
H725 C711 0.930 . S
Co726 N730 2.148 . S
Co726 N736 2.128 . S
Co726 N746 2.194 . S
Co726 O751 2.351 . S
Co726 O752 2.155 . S
Co726 O753 2.096 . S
C727 N730 1.301 . S
C727 N731 1.328 . S
C727 H732 0.930 . S
C728 C729 1.333 . S
C728 N730 1.317 . S
C728 H733 0.930 . S
C729 C728 1.333 . S
C729 N731 1.350 . S
C729 H755 0.931 . S
N730 Co726 2.148 . S
N730 C727 1.301 . S
N730 C728 1.317 . S
N731 C727 1.328 . S
N731 C729 1.350 . S
H732 C727 0.930 . S
H733 C728 0.930 . S
C734 O735 1.224 . S
C734 O753 1.247 . S
O735 C734 1.224 . S
N736 Co726 2.128 . S
N736 C737 1.355 . S
N736 C739 1.311 . S
C737 N736 1.355 . S
C737 C738 1.363 1_565 S
C737 H749 0.929 . S
C738 C737 1.363 1_545 S
C738 N740 1.375 1_545 S
C738 H756 0.931 . S
C739 N736 1.311 . S
C739 N740 1.347 . S
C739 H750 0.929 . S
N740 C738 1.375 1_565 S
N740 C739 1.347 . S
C741 C744 1.365 . S
C741 N746 1.328 . S
C741 H747 0.929 . S
C742 C743 1.362 . S
C742 C745 1.378 . S
C742 H757 0.929 . S
C743 C742 1.362 . S
C743 C744 1.366 . S
C744 C741 1.365 . S
C744 C743 1.366 . S
C744 H758 0.930 . S
C745 C742 1.378 . S
C745 N746 1.315 . S
C745 H748 0.930 . S
N746 Co726 2.194 . S
N746 C741 1.328 . S
N746 C745 1.315 . S
H747 C741 0.929 . S
H748 C745 0.930 . S
H749 C737 0.929 . S
H750 C739 0.929 . S
O751 Co726 2.351 . S
O751 C754 1.244 . S
O752 Co726 2.155 . S
O752 C754 1.240 . S
O753 Co726 2.096 . S
O753 C734 1.247 . S
C754 O751 1.244 . S
C754 O752 1.240 . S
H755 C729 0.931 . S
H756 C738 0.931 . S
H757 C742 0.929 . S
H758 C744 0.930 . S
Co759 N763 2.148 . S
Co759 N769 2.128 . S
Co759 N779 2.194 . S
Co759 O784 2.351 . S
Co759 O785 2.155 . S
Co759 O786 2.096 . S
C760 N763 1.301 . S
C760 N764 1.328 . S
C760 H765 0.930 . S
C761 C762 1.333 . S
C761 N763 1.317 . S
C761 H766 0.930 . S
C762 C761 1.333 . S
C762 N764 1.350 . S
C762 H788 0.931 . S
N763 Co759 2.148 . S
N763 C760 1.301 . S
N763 C761 1.317 . S
N764 C760 1.328 . S
N764 C762 1.350 . S
H765 C760 0.930 . S
H766 C761 0.930 . S
C767 O768 1.224 . S
C767 O786 1.247 . S
O768 C767 1.224 . S
N769 Co759 2.128 . S
N769 C770 1.355 . S
N769 C772 1.311 . S
C770 N769 1.355 . S
C770 C771 1.363 . S
C770 H782 0.929 . S
C771 C770 1.363 . S
C771 N773 1.375 . S
C771 H789 0.931 . S
C772 N769 1.311 . S
C772 N773 1.347 . S
C772 H783 0.929 . S
N773 C771 1.375 . S
N773 C772 1.347 . S
C774 C777 1.365 . S
C774 N779 1.328 . S
C774 H780 0.929 . S
C775 C776 1.362 . S
C775 C778 1.378 . S
C775 H790 0.929 . S
C776 C775 1.362 . S
C776 C777 1.366 . S
C777 C774 1.365 . S
C777 C776 1.366 . S
C777 H791 0.930 . S
C778 C775 1.378 . S
C778 N779 1.315 . S
C778 H781 0.930 . S
N779 Co759 2.194 . S
N779 C774 1.328 . S
N779 C778 1.315 . S
H780 C774 0.929 . S
H781 C778 0.930 . S
H782 C770 0.929 . S
H783 C772 0.929 . S
O784 Co759 2.351 . S
O784 C787 1.244 . S
O785 Co759 2.155 . S
O785 C787 1.240 . S
O786 Co759 2.096 . S
O786 C767 1.247 . S
C787 O784 1.244 . S
C787 O785 1.240 . S
H788 C762 0.931 . S
H789 C771 0.931 . S
H790 C775 0.929 . S
H791 C777 0.930 . S
Co792 N796 2.148 . S
Co792 N802 2.128 . S
Co792 N812 2.194 . S
Co792 O817 2.351 . S
Co792 O818 2.155 . S
Co792 O819 2.096 . S
C793 N796 1.301 . S
C793 N797 1.328 . S
C793 H798 0.930 . S
C794 C795 1.333 . S
C794 N796 1.317 . S
C794 H799 0.930 . S
C795 C794 1.333 . S
C795 N797 1.350 . S
C795 H821 0.931 . S
N796 Co792 2.148 . S
N796 C793 1.301 . S
N796 C794 1.317 . S
N797 C793 1.328 . S
N797 C795 1.350 . S
H798 C793 0.930 . S
H799 C794 0.930 . S
C800 O801 1.224 . S
C800 O819 1.247 . S
O801 C800 1.224 . S
N802 Co792 2.128 . S
N802 C803 1.355 . S
N802 C805 1.311 . S
C803 N802 1.355 . S
C803 C804 1.363 . S
C803 H815 0.929 . S
C804 C803 1.363 . S
C804 N806 1.375 . S
C804 H822 0.931 . S
C805 N802 1.311 . S
C805 N806 1.347 . S
C805 H816 0.929 . S
N806 C804 1.375 . S
N806 C805 1.347 . S
C807 C810 1.365 . S
C807 N812 1.328 . S
C807 H813 0.929 . S
C808 C809 1.362 . S
C808 C811 1.378 . S
C808 H823 0.929 . S
C809 C808 1.362 . S
C809 C810 1.366 . S
C810 C807 1.365 . S
C810 C809 1.366 . S
C810 H824 0.930 . S
C811 C808 1.378 . S
C811 N812 1.315 . S
C811 H814 0.930 . S
N812 Co792 2.194 . S
N812 C807 1.328 . S
N812 C811 1.315 . S
H813 C807 0.929 . S
H814 C811 0.930 . S
H815 C803 0.929 . S
H816 C805 0.929 . S
O817 Co792 2.351 . S
O817 C820 1.244 . S
O818 Co792 2.155 . S
O818 C820 1.240 . S
O819 Co792 2.096 . S
O819 C800 1.247 . S
C820 O817 1.244 . S
C820 O818 1.240 . S
H821 C795 0.931 . S
H822 C804 0.931 . S
H823 C808 0.929 . S
H824 C810 0.930 . S
Co825 N829 2.148 . S
Co825 N835 2.128 . S
Co825 N845 2.194 . S
Co825 O850 2.351 . S
Co825 O851 2.155 . S
Co825 O852 2.096 . S
C826 N829 1.301 . S
C826 N830 1.328 . S
C826 H831 0.930 . S
C827 C828 1.333 . S
C827 N829 1.317 . S
C827 H832 0.930 . S
C828 C827 1.333 . S
C828 N830 1.350 . S
C828 H854 0.931 . S
N829 Co825 2.148 . S
N829 C826 1.301 . S
N829 C827 1.317 . S
N830 C826 1.328 . S
N830 C828 1.350 . S
H831 C826 0.930 . S
H832 C827 0.930 . S
C833 O834 1.224 . S
C833 O852 1.247 . S
O834 C833 1.224 . S
N835 Co825 2.128 . S
N835 C836 1.355 . S
N835 C838 1.311 . S
C836 N835 1.355 . S
C836 C837 1.363 . S
C836 H848 0.929 . S
C837 C836 1.363 . S
C837 N839 1.375 . S
C837 H855 0.931 . S
C838 N835 1.311 . S
C838 N839 1.347 . S
C838 H849 0.929 . S
N839 C837 1.375 . S
N839 C838 1.347 . S
C840 C843 1.365 . S
C840 N845 1.328 . S
C840 H846 0.929 . S
C841 C842 1.362 . S
C841 C844 1.378 . S
C841 H856 0.929 . S
C842 C841 1.362 . S
C842 C843 1.366 . S
C843 C840 1.365 . S
C843 C842 1.366 . S
C843 H857 0.930 . S
C844 C841 1.378 . S
C844 N845 1.315 . S
C844 H847 0.930 . S
N845 Co825 2.194 . S
N845 C840 1.328 . S
N845 C844 1.315 . S
H846 C840 0.929 . S
H847 C844 0.930 . S
H848 C836 0.929 . S
H849 C838 0.929 . S
O850 Co825 2.351 . S
O850 C853 1.244 . S
O851 Co825 2.155 . S
O851 C853 1.240 . S
O852 Co825 2.096 . S
O852 C833 1.247 . S
C853 O850 1.244 . S
C853 O851 1.240 . S
H854 C828 0.931 . S
H855 C837 0.931 . S
H856 C841 0.929 . S
H857 C843 0.930 . S
Co858 N862 2.148 . S
Co858 N868 2.128 . S
Co858 N878 2.194 . S
Co858 O883 2.351 . S
Co858 O884 2.155 . S
Co858 O885 2.096 . S
C859 N862 1.301 . S
C859 N863 1.328 . S
C859 H864 0.930 . S
C860 C861 1.333 . S
C860 N862 1.317 . S
C860 H865 0.930 . S
C861 C860 1.333 . S
C861 N863 1.350 . S
C861 H887 0.931 . S
N862 Co858 2.148 . S
N862 C859 1.301 . S
N862 C860 1.317 . S
N863 C859 1.328 . S
N863 C861 1.350 . S
H864 C859 0.930 . S
H865 C860 0.930 . S
C866 O867 1.224 . S
C866 O885 1.247 . S
O867 C866 1.224 . S
N868 Co858 2.128 . S
N868 C869 1.355 . S
N868 C871 1.311 . S
C869 N868 1.355 . S
C869 C870 1.363 . S
C869 H881 0.929 . S
C870 C869 1.363 . S
C870 N872 1.375 . S
C870 H888 0.931 . S
C871 N868 1.311 . S
C871 N872 1.347 . S
C871 H882 0.929 . S
N872 C870 1.375 . S
N872 C871 1.347 . S
C873 C876 1.365 . S
C873 N878 1.328 . S
C873 H879 0.929 . S
C874 C875 1.362 . S
C874 C877 1.378 . S
C874 H889 0.929 . S
C875 C874 1.362 . S
C875 C876 1.366 . S
C876 C873 1.365 . S
C876 C875 1.366 . S
C876 H890 0.930 . S
C877 C874 1.378 . S
C877 N878 1.315 . S
C877 H880 0.930 . S
N878 Co858 2.194 . S
N878 C873 1.328 . S
N878 C877 1.315 . S
H879 C873 0.929 . S
H880 C877 0.930 . S
H881 C869 0.929 . S
H882 C871 0.929 . S
O883 Co858 2.351 . S
O883 C886 1.244 . S
O884 Co858 2.155 . S
O884 C886 1.240 . S
O885 Co858 2.096 . S
O885 C866 1.247 . S
C886 O883 1.244 . S
C886 O884 1.240 . S
H887 C861 0.931 . S
H888 C870 0.931 . S
H889 C874 0.929 . S
H890 C876 0.930 . S
Co891 N895 2.148 . S
Co891 N901 2.128 . S
Co891 N911 2.194 . S
Co891 O916 2.351 . S
Co891 O917 2.155 . S
Co891 O918 2.096 . S
C892 N895 1.301 . S
C892 N896 1.328 . S
C892 H897 0.930 . S
C893 C894 1.333 . S
C893 N895 1.317 . S
C893 H898 0.930 . S
C894 C893 1.333 . S
C894 N896 1.350 . S
C894 H920 0.931 . S
N895 Co891 2.148 . S
N895 C892 1.301 . S
N895 C893 1.317 . S
N896 C892 1.328 . S
N896 C894 1.350 . S
H897 C892 0.930 . S
H898 C893 0.930 . S
C899 O900 1.224 . S
C899 O918 1.247 . S
O900 C899 1.224 . S
N901 Co891 2.128 . S
N901 C902 1.355 . S
N901 C904 1.311 . S
C902 N901 1.355 . S
C902 C903 1.363 . S
C902 H914 0.929 . S
C903 C902 1.363 . S
C903 N905 1.375 . S
C903 H921 0.931 . S
C904 N901 1.311 . S
C904 N905 1.347 . S
C904 H915 0.929 . S
N905 C903 1.375 . S
N905 C904 1.347 . S
C906 C909 1.365 . S
C906 N911 1.328 . S
C906 H912 0.929 . S
C907 C908 1.362 . S
C907 C910 1.378 . S
C907 H922 0.929 . S
C908 C907 1.362 . S
C908 C909 1.366 . S
C909 C906 1.365 . S
C909 C908 1.366 . S
C909 H923 0.930 . S
C910 C907 1.378 . S
C910 N911 1.315 . S
C910 H913 0.930 . S
N911 Co891 2.194 . S
N911 C906 1.328 . S
N911 C910 1.315 . S
H912 C906 0.929 . S
H913 C910 0.930 . S
H914 C902 0.929 . S
H915 C904 0.929 . S
O916 Co891 2.351 . S
O916 C919 1.244 . S
O917 Co891 2.155 . S
O917 C919 1.240 . S
O918 Co891 2.096 . S
O918 C899 1.247 . S
C919 O916 1.244 . S
C919 O917 1.240 . S
H920 C894 0.931 . S
H921 C903 0.931 . S
H922 C907 0.929 . S
H923 C909 0.930 . S
Co924 N928 2.148 . S
Co924 N934 2.128 . S
Co924 N944 2.194 . S
Co924 O949 2.351 . S
Co924 O950 2.155 . S
Co924 O951 2.096 . S
C925 N928 1.301 . S
C925 N929 1.328 . S
C925 H930 0.930 . S
C926 C927 1.333 . S
C926 N928 1.317 . S
C926 H931 0.930 . S
C927 C926 1.333 . S
C927 N929 1.350 . S
C927 H953 0.931 . S
N928 Co924 2.148 . S
N928 C925 1.301 . S
N928 C926 1.317 . S
N929 C925 1.328 . S
N929 C927 1.350 . S
H930 C925 0.930 . S
H931 C926 0.930 . S
C932 O933 1.224 . S
C932 O951 1.247 . S
O933 C932 1.224 . S
N934 Co924 2.128 . S
N934 C935 1.355 . S
N934 C937 1.311 . S
C935 N934 1.355 . S
C935 C936 1.363 . S
C935 H947 0.929 . S
C936 C935 1.363 . S
C936 N938 1.375 . S
C936 H954 0.931 . S
C937 N934 1.311 . S
C937 N938 1.347 . S
C937 H948 0.929 . S
N938 C936 1.375 . S
N938 C937 1.347 . S
C939 C942 1.365 . S
C939 N944 1.328 . S
C939 H945 0.929 . S
C940 C941 1.362 . S
C940 C943 1.378 . S
C940 H955 0.929 . S
C941 C940 1.362 . S
C941 C942 1.366 . S
C942 C939 1.365 . S
C942 C941 1.366 . S
C942 H956 0.930 . S
C943 C940 1.378 . S
C943 N944 1.315 . S
C943 H946 0.930 . S
N944 Co924 2.194 . S
N944 C939 1.328 . S
N944 C943 1.315 . S
H945 C939 0.929 . S
H946 C943 0.930 . S
H947 C935 0.929 . S
H948 C937 0.929 . S
O949 Co924 2.351 . S
O949 C952 1.244 . S
O950 Co924 2.155 . S
O950 C952 1.240 . S
O951 Co924 2.096 . S
O951 C932 1.247 . S
C952 O949 1.244 . S
C952 O950 1.240 . S
H953 C927 0.931 . S
H954 C936 0.931 . S
H955 C940 0.929 . S
H956 C942 0.930 . S
Co957 N961 2.148 . S
Co957 N967 2.128 . S
Co957 N977 2.194 . S
Co957 O982 2.351 . S
Co957 O983 2.155 . S
Co957 O984 2.096 . S
C958 N961 1.301 . S
C958 N962 1.328 . S
C958 H963 0.930 . S
C959 C960 1.333 . S
C959 N961 1.317 . S
C959 H964 0.930 . S
C960 C959 1.333 . S
C960 N962 1.350 . S
C960 H986 0.931 . S
N961 Co957 2.148 . S
N961 C958 1.301 . S
N961 C959 1.317 . S
N962 C958 1.328 . S
N962 C960 1.350 . S
H963 C958 0.930 . S
H964 C959 0.930 . S
C965 O966 1.224 . S
C965 O984 1.247 . S
O966 C965 1.224 . S
N967 Co957 2.128 . S
N967 C968 1.355 . S
N967 C970 1.311 . S
C968 N967 1.355 . S
C968 C969 1.363 . S
C968 H980 0.929 . S
C969 C968 1.363 . S
C969 N971 1.375 . S
C969 H987 0.931 . S
C970 N967 1.311 . S
C970 N971 1.347 . S
C970 H981 0.929 . S
N971 C969 1.375 . S
N971 C970 1.347 . S
C972 C975 1.365 . S
C972 N977 1.328 . S
C972 H978 0.929 . S
C973 C974 1.362 . S
C973 C976 1.378 . S
C973 H988 0.929 . S
C974 C973 1.362 . S
C974 C975 1.366 . S
C975 C972 1.365 . S
C975 C974 1.366 . S
C975 H989 0.930 . S
C976 C973 1.378 . S
C976 N977 1.315 . S
C976 H979 0.930 . S
N977 Co957 2.194 . S
N977 C972 1.328 . S
N977 C976 1.315 . S
H978 C972 0.929 . S
H979 C976 0.930 . S
H980 C968 0.929 . S
H981 C970 0.929 . S
O982 Co957 2.351 . S
O982 C985 1.244 . S
O983 Co957 2.155 . S
O983 C985 1.240 . S
O984 Co957 2.096 . S
O984 C965 1.247 . S
C985 O982 1.244 . S
C985 O983 1.240 . S
H986 C960 0.931 . S
H987 C969 0.931 . S
H988 C973 0.929 . S
H989 C975 0.930 . S
Co990 N994 2.148 . S
Co990 N1000 2.128 . S
Co990 N1010 2.194 . S
Co990 O1015 2.351 . S
Co990 O1016 2.155 . S
Co990 O1017 2.096 . S
C991 N994 1.301 . S
C991 N995 1.328 . S
C991 H996 0.930 . S
C992 C993 1.333 . S
C992 N994 1.317 . S
C992 H997 0.930 . S
C993 C992 1.333 . S
C993 N995 1.350 . S
C993 H1019 0.931 . S
N994 Co990 2.148 . S
N994 C991 1.301 . S
N994 C992 1.317 . S
N995 C991 1.328 . S
N995 C993 1.350 . S
H996 C991 0.930 . S
H997 C992 0.930 . S
C998 O999 1.224 . S
C998 O1017 1.247 . S
O999 C998 1.224 . S
N1000 Co990 2.128 . S
N1000 C1001 1.355 . S
N1000 C1003 1.311 . S
C1001 N1000 1.355 . S
C1001 C1002 1.363 . S
C1001 H1013 0.929 . S
C1002 C1001 1.363 . S
C1002 N1004 1.375 . S
C1002 H1020 0.931 . S
C1003 N1000 1.311 . S
C1003 N1004 1.347 . S
C1003 H1014 0.929 . S
N1004 C1002 1.375 . S
N1004 C1003 1.347 . S
C1005 C1008 1.365 . S
C1005 N1010 1.328 . S
C1005 H1011 0.929 . S
C1006 C1007 1.362 . S
C1006 C1009 1.378 . S
C1006 H1021 0.929 . S
C1007 C1006 1.362 . S
C1007 C1008 1.366 . S
C1008 C1005 1.365 . S
C1008 C1007 1.366 . S
C1008 H1022 0.930 . S
C1009 C1006 1.378 . S
C1009 N1010 1.315 . S
C1009 H1012 0.930 . S
N1010 Co990 2.194 . S
N1010 C1005 1.328 . S
N1010 C1009 1.315 . S
H1011 C1005 0.929 . S
H1012 C1009 0.930 . S
H1013 C1001 0.929 . S
H1014 C1003 0.929 . S
O1015 Co990 2.351 . S
O1015 C1018 1.244 . S
O1016 Co990 2.155 . S
O1016 C1018 1.240 . S
O1017 Co990 2.096 . S
O1017 C998 1.247 . S
C1018 O1015 1.244 . S
C1018 O1016 1.240 . S
H1019 C993 0.931 . S
H1020 C1002 0.931 . S
H1021 C1006 0.929 . S
H1022 C1008 0.930 . S
Co1023 N1027 2.148 . S
Co1023 N1033 2.128 . S
Co1023 N1043 2.194 . S
Co1023 O1048 2.351 . S
Co1023 O1049 2.155 . S
Co1023 O1050 2.096 . S
C1024 N1027 1.301 . S
C1024 N1028 1.328 . S
C1024 H1029 0.930 . S
C1025 C1026 1.333 . S
C1025 N1027 1.317 . S
C1025 H1030 0.930 . S
C1026 C1025 1.333 . S
C1026 N1028 1.350 . S
C1026 H1052 0.931 . S
N1027 Co1023 2.148 . S
N1027 C1024 1.301 . S
N1027 C1025 1.317 . S
N1028 C1024 1.328 . S
N1028 C1026 1.350 . S
H1029 C1024 0.930 . S
H1030 C1025 0.930 . S
C1031 O1032 1.224 . S
C1031 O1050 1.247 . S
O1032 C1031 1.224 . S
N1033 Co1023 2.128 . S
N1033 C1034 1.355 . S
N1033 C1036 1.311 . S
C1034 N1033 1.355 . S
C1034 C1035 1.363 . S
C1034 H1046 0.929 . S
C1035 C1034 1.363 . S
C1035 N1037 1.375 . S
C1035 H1053 0.931 . S
C1036 N1033 1.311 . S
C1036 N1037 1.347 . S
C1036 H1047 0.929 . S
N1037 C1035 1.375 . S
N1037 C1036 1.347 . S
C1038 C1041 1.365 . S
C1038 N1043 1.328 . S
C1038 H1044 0.929 . S
C1039 C1040 1.362 . S
C1039 C1042 1.378 . S
C1039 H1054 0.929 . S
C1040 C1039 1.362 . S
C1040 C1041 1.366 . S
C1041 C1038 1.365 . S
C1041 C1040 1.366 . S
C1041 H1055 0.930 . S
C1042 C1039 1.378 . S
C1042 N1043 1.315 . S
C1042 H1045 0.930 . S
N1043 Co1023 2.194 . S
N1043 C1038 1.328 . S
N1043 C1042 1.315 . S
H1044 C1038 0.929 . S
H1045 C1042 0.930 . S
H1046 C1034 0.929 . S
H1047 C1036 0.929 . S
O1048 Co1023 2.351 . S
O1048 C1051 1.244 . S
O1049 Co1023 2.155 . S
O1049 C1051 1.240 . S
O1050 Co1023 2.096 . S
O1050 C1031 1.247 . S
C1051 O1048 1.244 . S
C1051 O1049 1.240 . S
H1052 C1026 0.931 . S
H1053 C1035 0.931 . S
H1054 C1039 0.929 . S
H1055 C1041 0.930 . S
C1056 C1057 1.369 . S
C1056 C1058 1.419 1_655 S
C1056 H1060 0.930 . S
C1057 C1056 1.369 . S
C1057 C1066 1.429 . S
C1058 C1056 1.419 1_455 S
C1058 C1059 1.363 . S
C1058 H1061 0.929 . S
C1059 C1058 1.363 . S
C1059 C1065 1.428 . S
H1060 C1056 0.930 . S
H1061 C1058 0.929 . S
S1062 N1063 1.613 . S
S1062 N1064 1.615 . S
N1063 S1062 1.613 . S
N1063 C1066 1.350 . S
N1064 S1062 1.615 . S
N1064 C1065 1.351 1_655 S
C1065 C1059 1.428 . S
C1065 N1064 1.351 1_455 S
C1065 C1066 1.434 1_455 S
C1066 C1057 1.429 . S
C1066 N1063 1.350 . S
C1066 C1065 1.434 1_655 S
C1067 C1068 1.369 1_545 S
C1067 C1069 1.419 . S
C1067 H1071 0.930 . S
C1068 C1067 1.369 1_565 S
C1068 C1077 1.429 . S
C1069 C1067 1.419 . S
C1069 C1070 1.363 . S
C1069 H1072 0.929 . S
C1070 C1069 1.363 . S
C1070 C1076 1.428 1_545 S
H1071 C1067 0.930 . S
H1072 C1069 0.929 . S
S1073 N1074 1.613 . S
S1073 N1075 1.610 . S
N1074 S1073 1.613 . S
N1074 C1077 1.350 . S
N1075 S1073 1.610 . S
N1075 C1076 1.351 . S
C1076 C1070 1.428 1_565 S
C1076 N1075 1.351 . S
C1076 C1077 1.434 . S
C1077 C1068 1.429 . S
C1077 N1074 1.350 . S
C1077 C1076 1.434 . S
C1078 C1079 1.369 1_545 S
C1078 C1080 1.419 1_654 S
C1078 H1082 0.930 . S
C1079 C1078 1.369 1_565 S
C1079 C1088 1.429 . S
C1080 C1078 1.419 1_456 S
C1080 C1081 1.363 . S
C1080 H1083 0.929 . S
C1081 C1080 1.363 . S
C1081 C1087 1.428 1_545 S
H1082 C1078 0.930 . S
H1083 C1080 0.929 . S
S1084 N1085 1.613 1_456 S
S1084 N1086 1.610 . S
N1085 S1084 1.613 1_654 S
N1085 C1088 1.350 . S
N1086 S1084 1.610 . S
N1086 C1087 1.351 . S
C1087 C1081 1.428 1_565 S
C1087 N1086 1.351 . S
C1087 C1088 1.434 1_456 S
C1088 C1079 1.429 . S
C1088 N1085 1.350 . S
C1088 C1087 1.434 1_654 S
C1089 C1090 1.369 1_556 S
C1089 C1091 1.419 . S
C1089 H1093 0.930 . S
C1090 C1089 1.369 1_554 S
C1090 C1099 1.429 . S
C1091 C1089 1.419 . S
C1091 C1092 1.363 . S
C1091 H1094 0.929 . S
C1092 C1091 1.363 . S
C1092 C1098 1.428 1_556 S
H1093 C1089 0.930 . S
H1094 C1091 0.929 . S
S1095 N1096 1.613 . S
S1095 N1097 1.610 . S
N1096 S1095 1.613 . S
N1096 C1099 1.350 . S
N1097 S1095 1.610 . S
N1097 C1098 1.351 . S
C1098 C1092 1.428 1_554 S
C1098 N1097 1.351 . S
C1098 C1099 1.434 . S
C1099 C1090 1.429 . S
C1099 N1096 1.350 . S
C1099 C1098 1.434 . S
C1100 C1101 1.369 . S
C1100 C1102 1.419 1_455 S
C1100 H1104 0.930 . S
C1101 C1100 1.369 . S
C1101 C1110 1.429 . S
C1102 C1100 1.419 1_655 S
C1102 C1103 1.363 . S
C1102 H1105 0.929 . S
C1103 C1102 1.363 . S
C1103 C1109 1.428 . S
H1104 C1100 0.930 . S
H1105 C1102 0.929 . S
S1106 N1107 1.613 . S
S1106 N1108 1.610 1_455 S
N1107 S1106 1.613 . S
N1107 C1110 1.350 . S
N1108 S1106 1.610 1_655 S
N1108 C1109 1.351 . S
C1109 C1103 1.428 . S
C1109 N1108 1.351 . S
C1109 C1110 1.434 1_655 S
C1110 C1101 1.429 . S
C1110 N1107 1.350 . S
C1110 C1109 1.434 1_455 S
C1111 C1112 1.369 . S
C1111 C1113 1.419 1_545 S
C1111 H1115 0.930 . S
C1112 C1111 1.369 . S
C1112 C1121 1.429 . S
C1113 C1111 1.419 1_565 S
C1113 C1114 1.363 . S
C1113 H1116 0.929 . S
C1114 C1113 1.363 . S
C1114 C1120 1.428 . S
H1115 C1111 0.930 . S
H1116 C1113 0.929 . S
S1117 N1118 1.613 . S
S1117 N1119 1.610 1_545 S
N1118 S1117 1.613 . S
N1118 C1121 1.350 . S
N1119 S1117 1.610 1_565 S
N1119 C1120 1.351 . S
C1120 C1114 1.428 . S
C1120 N1119 1.351 . S
C1120 C1121 1.434 1_565 S
C1121 C1112 1.429 . S
C1121 N1118 1.350 . S
C1121 C1120 1.434 1_545 S
C1122 C1123 1.369 . S
C1122 C1124 1.424 . S
C1122 H1126 0.930 . S
C1123 C1122 1.369 . S
C1123 C1132 1.415 1_554 S
C1124 C1122 1.424 . S
C1124 C1125 1.358 1_554 S
C1124 H1127 0.930 . S
C1125 C1124 1.358 1_556 S
C1125 C1131 1.428 . S
H1126 C1122 0.930 . S
H1127 C1124 0.930 . S
S1128 N1129 1.613 . S
S1128 N1130 1.610 . S
N1129 S1128 1.613 . S
N1129 C1132 1.352 . S
N1130 S1128 1.610 . S
N1130 C1131 1.351 . S
C1131 C1125 1.428 . S
C1131 N1130 1.351 . S
C1131 C1132 1.447 . S
C1132 C1123 1.415 1_556 S
C1132 N1129 1.352 . S
C1132 C1131 1.447 . S
C1133 C1134 1.369 . S
C1133 C1135 1.419 . S
C1133 H1137 0.930 . S
C1134 C1133 1.369 . S
C1134 C1143 1.429 . S
C1135 C1133 1.419 . S
C1135 C1136 1.363 . S
C1135 H1138 0.929 . S
C1136 C1135 1.363 . S
C1136 C1142 1.428 . S
H1137 C1133 0.930 . S
H1138 C1135 0.929 . S
S1139 N1140 1.613 . S
S1139 N1141 1.610 . S
N1140 S1139 1.613 . S
N1140 C1143 1.350 . S
N1141 S1139 1.610 . S
N1141 C1142 1.351 . S
C1142 C1136 1.428 . S
C1142 N1141 1.351 . S
C1142 C1143 1.434 . S
C1143 C1134 1.429 . S
C1143 N1140 1.350 . S
C1143 C1142 1.434 . S
C1144 C1145 1.369 . S
C1144 C1146 1.419 1_655 S
C1144 H1148 0.930 . S
C1145 C1144 1.369 . S
C1145 C1154 1.429 . S
C1146 C1144 1.419 1_455 S
C1146 C1147 1.363 . S
C1146 H1149 0.929 . S
C1147 C1146 1.363 . S
C1147 C1153 1.428 . S
H1148 C1144 0.930 . S
H1149 C1146 0.929 . S
S1150 N1151 1.613 . S
S1150 N1152 1.610 1_655 S
N1151 S1150 1.613 . S
N1151 C1154 1.350 . S
N1152 S1150 1.610 1_455 S
N1152 C1153 1.351 . S
C1153 C1147 1.428 . S
C1153 N1152 1.351 . S
C1153 C1154 1.434 1_455 S
C1154 C1145 1.429 . S
C1154 N1151 1.350 . S
C1154 C1153 1.434 1_655 S
C1155 C1156 1.369 . S
C1155 C1157 1.419 . S
C1155 H1159 0.930 . S
C1156 C1155 1.369 . S
C1156 C1165 1.429 . S
C1157 C1155 1.419 . S
C1157 C1158 1.363 . S
C1157 H1160 0.929 . S
C1158 C1157 1.363 . S
C1158 C1164 1.428 . S
H1159 C1155 0.930 . S
H1160 C1157 0.929 . S
S1161 N1162 1.613 . S
S1161 N1163 1.610 . S
N1162 S1161 1.613 . S
N1162 C1165 1.350 . S
N1163 S1161 1.610 . S
N1163 C1164 1.351 . S
C1164 C1158 1.428 . S
C1164 N1163 1.351 . S
C1164 C1165 1.434 . S
C1165 C1156 1.429 . S
C1165 N1162 1.350 . S
C1165 C1164 1.434 . S
C1166 C1167 1.369 . S
C1166 C1168 1.419 . S
C1166 H1170 0.930 . S
C1167 C1166 1.369 . S
C1167 C1176 1.429 . S
C1168 C1166 1.419 . S
C1168 C1169 1.363 . S
C1168 H1171 0.929 . S
C1169 C1168 1.363 . S
C1169 C1175 1.428 . S
H1170 C1166 0.930 . S
H1171 C1168 0.929 . S
S1172 N1173 1.613 . S
S1172 N1174 1.610 . S
N1173 S1172 1.613 . S
N1173 C1176 1.350 . S
N1174 S1172 1.610 . S
N1174 C1175 1.351 . S
C1175 C1169 1.428 . S
C1175 N1174 1.351 . S
C1175 C1176 1.434 . S
C1176 C1167 1.429 . S
C1176 N1173 1.350 . S
C1176 C1175 1.434 . S
C1177 C1178 1.369 . S
C1177 C1179 1.419 . S
C1177 H1181 0.930 . S
C1178 C1177 1.369 . S
C1178 C1187 1.429 . S
C1179 C1177 1.419 . S
C1179 C1180 1.363 . S
C1179 H1182 0.929 . S
C1180 C1179 1.363 . S
C1180 C1186 1.428 . S
H1181 C1177 0.930 . S
H1182 C1179 0.929 . S
S1183 N1184 1.613 . S
S1183 N1185 1.610 . S
N1184 S1183 1.613 . S
N1184 C1187 1.350 . S
N1185 S1183 1.610 . S
N1185 C1186 1.351 . S
C1186 C1180 1.428 . S
C1186 N1185 1.351 . S
C1186 C1187 1.434 . S
C1187 C1178 1.429 . S
C1187 N1184 1.350 . S
C1187 C1186 1.434 . S
C1188 C1189 1.369 . S
C1188 C1190 1.419 . S
C1188 H1192 0.930 . S
C1189 C1188 1.369 . S
C1189 C1198 1.429 . S
C1190 C1188 1.419 . S
C1190 C1191 1.363 . S
C1190 H1193 0.929 . S
C1191 C1190 1.363 . S
C1191 C1197 1.428 . S
H1192 C1188 0.930 . S
H1193 C1190 0.929 . S
S1194 N1195 1.613 . S
S1194 N1196 1.610 . S
N1195 S1194 1.613 . S
N1195 C1198 1.350 . S
N1196 S1194 1.610 . S
N1196 C1197 1.351 . S
C1197 C1191 1.428 . S
C1197 N1196 1.351 . S
C1197 C1198 1.434 . S
C1198 C1189 1.429 . S
C1198 N1195 1.350 . S
C1198 C1197 1.434 . S
C1199 C1200 1.369 . S
C1199 C1201 1.419 1_565 S
C1199 H1203 0.930 . S
C1200 C1199 1.369 . S
C1200 C1209 1.429 . S
C1201 C1199 1.419 1_545 S
C1201 C1202 1.363 . S
C1201 H1204 0.929 . S
C1202 C1201 1.363 . S
C1202 C1208 1.428 . S
H1203 C1199 0.930 . S
H1204 C1201 0.929 . S
S1205 N1206 1.613 1_545 S
S1205 N1207 1.610 . S
N1206 S1205 1.613 1_565 S
N1206 C1209 1.350 . S
N1207 S1205 1.610 . S
N1207 C1208 1.351 . S
C1208 C1202 1.428 . S
C1208 N1207 1.351 . S
C1208 C1209 1.434 1_545 S
C1209 C1200 1.429 . S
C1209 N1206 1.350 . S
C1209 C1208 1.434 1_565 S
C1210 C1211 1.369 . S
C1210 C1212 1.419 . S
C1210 H1214 0.930 . S
C1211 C1210 1.369 . S
C1211 C1220 1.429 . S
C1212 C1210 1.419 . S
C1212 C1213 1.363 . S
C1212 H1215 0.929 . S
C1213 C1212 1.363 . S
C1213 C1219 1.428 . S
H1214 C1210 0.930 . S
H1215 C1212 0.929 . S
S1216 N1217 1.613 . S
S1216 N1218 1.610 . S
N1217 S1216 1.613 . S
N1217 C1220 1.350 . S
N1218 S1216 1.610 . S
N1218 C1219 1.351 . S
C1219 C1213 1.428 . S
C1219 N1218 1.351 . S
C1219 C1220 1.434 . S
C1220 C1211 1.429 . S
C1220 N1217 1.350 . S
C1220 C1219 1.434 . S
C1221 C1222 1.369 1_556 S
C1221 C1223 1.419 . S
C1221 H1225 0.930 . S
C1222 C1221 1.369 1_554 S
C1222 C1231 1.429 . S
C1223 C1221 1.419 . S
C1223 C1224 1.363 . S
C1223 H1226 0.929 . S
C1224 C1223 1.363 . S
C1224 C1230 1.428 1_556 S
H1225 C1221 0.930 . S
H1226 C1223 0.929 . S
S1227 N1228 1.613 . S
S1227 N1229 1.610 . S
N1228 S1227 1.613 . S
N1228 C1231 1.350 . S
N1229 S1227 1.610 . S
N1229 C1230 1.351 . S
C1230 C1224 1.428 1_554 S
C1230 N1229 1.351 . S
C1230 C1231 1.434 . S
C1231 C1222 1.429 . S
C1231 N1228 1.350 . S
C1231 C1230 1.434 . S
C1232 C1233 1.369 . S
C1232 C1234 1.419 . S
C1232 H1236 0.930 . S
C1233 C1232 1.369 . S
C1233 C1242 1.429 . S
C1234 C1232 1.419 . S
C1234 C1235 1.363 . S
C1234 H1237 0.929 . S
C1235 C1234 1.363 . S
C1235 C1241 1.428 . S
H1236 C1232 0.930 . S
H1237 C1234 0.929 . S
S1238 N1239 1.613 . S
S1238 N1240 1.610 . S
N1239 S1238 1.613 . S
N1239 C1242 1.350 . S
N1240 S1238 1.610 . S
N1240 C1241 1.351 . S
C1241 C1235 1.428 . S
C1241 N1240 1.351 . S
C1241 C1242 1.434 . S
C1242 C1233 1.429 . S
C1242 N1239 1.350 . S
C1242 C1241 1.434 . S
C1243 C1244 1.369 . S
C1243 C1245 1.419 . S
C1243 H1247 0.930 . S
C1244 C1243 1.369 . S
C1244 C1253 1.429 . S
C1245 C1243 1.419 . S
C1245 C1246 1.363 . S
C1245 H1248 0.929 . S
C1246 C1245 1.363 . S
C1246 C1252 1.428 . S
H1247 C1243 0.930 . S
H1248 C1245 0.929 . S
S1249 N1250 1.613 . S
S1249 N1251 1.610 . S
N1250 S1249 1.613 . S
N1250 C1253 1.350 . S
N1251 S1249 1.610 . S
N1251 C1252 1.351 . S
C1252 C1246 1.428 . S
C1252 N1251 1.351 . S
C1252 C1253 1.434 . S
C1253 C1244 1.429 . S
C1253 N1250 1.350 . S
C1253 C1252 1.434 . S
C1254 C1255 1.369 . S
C1254 C1256 1.419 . S
C1254 H1258 0.930 . S
C1255 C1254 1.369 . S
C1255 C1264 1.429 . S
C1256 C1254 1.419 . S
C1256 C1257 1.363 . S
C1256 H1259 0.929 . S
C1257 C1256 1.363 . S
C1257 C1263 1.428 . S
H1258 C1254 0.930 . S
H1259 C1256 0.929 . S
S1260 N1261 1.613 . S
S1260 N1262 1.610 . S
N1261 S1260 1.613 . S
N1261 C1264 1.350 . S
N1262 S1260 1.610 . S
N1262 C1263 1.351 . S
C1263 C1257 1.428 . S
C1263 N1262 1.351 . S
C1263 C1264 1.434 . S
C1264 C1255 1.429 . S
C1264 N1261 1.350 . S
C1264 C1263 1.434 . S
C1265 C1266 1.369 . S
C1265 C1267 1.419 . S
C1265 H1269 0.930 . S
C1266 C1265 1.369 . S
C1266 C1275 1.429 . S
C1267 C1265 1.419 . S
C1267 C1268 1.363 . S
C1267 H1270 0.929 . S
C1268 C1267 1.363 . S
C1268 C1274 1.428 . S
H1269 C1265 0.930 . S
H1270 C1267 0.929 . S
S1271 N1272 1.613 . S
S1271 N1273 1.610 . S
N1272 S1271 1.613 . S
N1272 C1275 1.350 . S
N1273 S1271 1.610 . S
N1273 C1274 1.351 . S
C1274 C1268 1.428 . S
C1274 N1273 1.351 . S
C1274 C1275 1.434 . S
C1275 C1266 1.429 . S
C1275 N1272 1.350 . S
C1275 C1274 1.434 . S
C1276 C1277 1.369 . S
C1276 C1278 1.419 . S
C1276 H1280 0.930 . S
C1277 C1276 1.369 . S
C1277 C1286 1.429 . S
C1278 C1276 1.419 . S
C1278 C1279 1.363 . S
C1278 H1281 0.929 . S
C1279 C1278 1.363 . S
C1279 C1285 1.428 . S
H1280 C1276 0.930 . S
H1281 C1278 0.929 . S
S1282 N1283 1.652 . S
S1282 N1284 1.649 . S
N1283 S1282 1.652 . S
N1283 C1286 1.294 1_655 S
N1284 S1282 1.649 . S
N1284 C1285 1.297 1_655 S
C1285 C1279 1.428 . S
C1285 N1284 1.297 1_455 S
C1285 C1286 1.434 . S
C1286 C1277 1.429 . S
C1286 N1283 1.294 1_455 S
C1286 C1285 1.434 . S
C1287 C1288 1.369 . S
C1287 C1289 1.419 . S
C1287 H1291 0.930 . S
C1288 C1287 1.369 . S
C1288 C1297 1.429 . S
C1289 C1287 1.419 . S
C1289 C1290 1.363 . S
C1289 H1292 0.929 . S
C1290 C1289 1.363 . S
C1290 C1296 1.428 . S
H1291 C1287 0.930 . S
H1292 C1289 0.929 . S
S1293 N1294 1.613 . S
S1293 N1295 1.610 . S
N1294 S1293 1.613 . S
N1294 C1297 1.350 . S
N1295 S1293 1.610 . S
N1295 C1296 1.351 . S
C1296 C1290 1.428 . S
C1296 N1295 1.351 . S
C1296 C1297 1.434 . S
C1297 C1288 1.429 . S
C1297 N1294 1.350 . S
C1297 C1296 1.434 . S
C1298 C1299 1.369 . S
C1298 C1300 1.419 . S
C1298 H1302 0.930 . S
C1299 C1298 1.369 . S
C1299 C1308 1.429 . S
C1300 C1298 1.419 . S
C1300 C1301 1.363 . S
C1300 H1303 0.929 . S
C1301 C1300 1.363 . S
C1301 C1307 1.428 . S
H1302 C1298 0.930 . S
H1303 C1300 0.929 . S
S1304 N1305 1.613 . S
S1304 N1306 1.610 . S
N1305 S1304 1.613 . S
N1305 C1308 1.350 . S
N1306 S1304 1.610 . S
N1306 C1307 1.351 . S
C1307 C1301 1.428 . S
C1307 N1306 1.351 . S
C1307 C1308 1.434 . S
C1308 C1299 1.429 . S
C1308 N1305 1.350 . S
C1308 C1307 1.434 . S
C1309 C1310 1.369 . S
C1309 C1311 1.419 . S
C1309 H1313 0.930 . S
C1310 C1309 1.369 . S
C1310 C1319 1.429 . S
C1311 C1309 1.419 . S
C1311 C1312 1.363 . S
C1311 H1314 0.929 . S
C1312 C1311 1.363 . S
C1312 C1318 1.428 . S
H1313 C1309 0.930 . S
H1314 C1311 0.929 . S
S1315 N1316 1.613 . S
S1315 N1317 1.610 . S
N1316 S1315 1.613 . S
N1316 C1319 1.350 . S
N1317 S1315 1.610 . S
N1317 C1318 1.351 . S
C1318 C1312 1.428 . S
C1318 N1317 1.351 . S
C1318 C1319 1.434 . S
C1319 C1310 1.429 . S
C1319 N1316 1.350 . S
C1319 C1318 1.434 . S
C1320 C1321 1.369 . S
C1320 C1322 1.419 . S
C1320 H1324 0.930 . S
C1321 C1320 1.369 . S
C1321 C1330 1.429 . S
C1322 C1320 1.419 . S
C1322 C1323 1.363 . S
C1322 H1325 0.929 . S
C1323 C1322 1.363 . S
C1323 C1329 1.428 . S
H1324 C1320 0.930 . S
H1325 C1322 0.929 . S
S1326 N1327 1.613 . S
S1326 N1328 1.610 . S
N1327 S1326 1.613 . S
N1327 C1330 1.350 . S
N1328 S1326 1.610 . S
N1328 C1329 1.351 . S
C1329 C1323 1.428 . S
C1329 N1328 1.351 . S
C1329 C1330 1.434 . S
C1330 C1321 1.429 . S
C1330 N1327 1.350 . S
C1330 C1329 1.434 . S
C1331 C1332 1.369 . S
C1331 C1333 1.419 . S
C1331 H1335 0.930 . S
C1332 C1331 1.369 . S
C1332 C1341 1.429 . S
C1333 C1331 1.419 . S
C1333 C1334 1.363 . S
C1333 H1336 0.929 . S
C1334 C1333 1.363 . S
C1334 C1340 1.428 . S
H1335 C1331 0.930 . S
H1336 C1333 0.929 . S
S1337 N1338 1.613 . S
S1337 N1339 1.610 . S
N1338 S1337 1.613 . S
N1338 C1341 1.350 . S
N1339 S1337 1.610 . S
N1339 C1340 1.351 . S
C1340 C1334 1.428 . S
C1340 N1339 1.351 . S
C1340 C1341 1.434 . S
C1341 C1332 1.429 . S
C1341 N1338 1.350 . S
C1341 C1340 1.434 . S
C1342 C1343 1.369 . S
C1342 C1344 1.419 . S
C1342 H1346 0.930 . S
C1343 C1342 1.369 . S
C1343 C1352 1.429 . S
C1344 C1342 1.419 . S
C1344 C1345 1.363 . S
C1344 H1347 0.929 . S
C1345 C1344 1.363 . S
C1345 C1351 1.428 . S
H1346 C1342 0.930 . S
H1347 C1344 0.929 . S
S1348 N1349 1.613 . S
S1348 N1350 1.610 . S
N1349 S1348 1.613 . S
N1349 C1352 1.350 . S
N1350 S1348 1.610 . S
N1350 C1351 1.351 . S
C1351 C1345 1.428 . S
C1351 N1350 1.351 . S
C1351 C1352 1.434 . S
C1352 C1343 1.429 . S
C1352 N1349 1.350 . S
C1352 C1351 1.434 . S
C1353 C1354 1.369 . S
C1353 C1355 1.419 . S
C1353 H1357 0.930 . S
C1354 C1353 1.369 . S
C1354 C1363 1.429 . S
C1355 C1353 1.419 . S
C1355 C1356 1.363 . S
C1355 H1358 0.929 . S
C1356 C1355 1.363 . S
C1356 C1362 1.428 . S
H1357 C1353 0.930 . S
H1358 C1355 0.929 . S
S1359 N1360 1.613 . S
S1359 N1361 1.610 . S
N1360 S1359 1.613 . S
N1360 C1363 1.350 . S
N1361 S1359 1.610 . S
N1361 C1362 1.351 . S
C1362 C1356 1.428 . S
C1362 N1361 1.351 . S
C1362 C1363 1.434 . S
C1363 C1354 1.429 . S
C1363 N1360 1.350 . S
C1363 C1362 1.434 . S
C1364 C1365 1.369 . S
C1364 C1366 1.419 . S
C1364 H1368 0.930 . S
C1365 C1364 1.369 . S
C1365 C1374 1.429 . S
C1366 C1364 1.419 . S
C1366 C1367 1.363 . S
C1366 H1369 0.929 . S
C1367 C1366 1.363 . S
C1367 C1373 1.428 . S
H1368 C1364 0.930 . S
H1369 C1366 0.929 . S
S1370 N1371 1.613 . S
S1370 N1372 1.610 . S
N1371 S1370 1.613 . S
N1371 C1374 1.350 . S
N1372 S1370 1.610 . S
N1372 C1373 1.351 . S
C1373 C1367 1.428 . S
C1373 N1372 1.351 . S
C1373 C1374 1.434 . S
C1374 C1365 1.429 . S
C1374 N1371 1.350 . S
C1374 C1373 1.434 . S
C1375 C1376 1.369 . S
C1375 C1377 1.419 . S
C1375 H1379 0.930 . S
C1376 C1375 1.369 . S
C1376 C1385 1.429 . S
C1377 C1375 1.419 . S
C1377 C1378 1.363 . S
C1377 H1380 0.929 . S
C1378 C1377 1.363 . S
C1378 C1384 1.428 . S
H1379 C1375 0.930 . S
H1380 C1377 0.929 . S
S1381 N1382 1.613 . S
S1381 N1383 1.610 . S
N1382 S1381 1.613 . S
N1382 C1385 1.350 . S
N1383 S1381 1.610 . S
N1383 C1384 1.351 . S
C1384 C1378 1.428 . S
C1384 N1383 1.351 . S
C1384 C1385 1.434 . S
C1385 C1376 1.429 . S
C1385 N1382 1.350 . S
C1385 C1384 1.434 . S
C1386 C1387 1.369 . S
C1386 C1388 1.419 . S
C1386 H1390 0.930 . S
C1387 C1386 1.369 . S
C1387 C1396 1.429 . S
C1388 C1386 1.419 . S
C1388 C1389 1.363 . S
C1388 H1391 0.929 . S
C1389 C1388 1.363 . S
C1389 C1395 1.428 . S
H1390 C1386 0.930 . S
H1391 C1388 0.929 . S
S1392 N1393 1.613 . S
S1392 N1394 1.610 . S
N1393 S1392 1.613 . S
N1393 C1396 1.350 . S
N1394 S1392 1.610 . S
N1394 C1395 1.351 . S
C1395 C1389 1.428 . S
C1395 N1394 1.351 . S
C1395 C1396 1.434 . S
C1396 C1387 1.429 . S
C1396 N1393 1.350 . S
C1396 C1395 1.434 . S
C1397 C1398 1.369 . S
C1397 C1399 1.419 . S
C1397 H1401 0.930 . S
C1398 C1397 1.369 . S
C1398 C1407 1.429 . S
C1399 C1397 1.419 . S
C1399 C1400 1.363 . S
C1399 H1402 0.929 . S
C1400 C1399 1.363 . S
C1400 C1406 1.428 . S
H1401 C1397 0.930 . S
H1402 C1399 0.929 . S
S1403 N1404 1.613 . S
S1403 N1405 1.610 . S
N1404 S1403 1.613 . S
N1404 C1407 1.350 . S
N1405 S1403 1.610 . S
N1405 C1406 1.351 . S
C1406 C1400 1.428 . S
C1406 N1405 1.351 . S
C1406 C1407 1.434 . S
C1407 C1398 1.429 . S
C1407 N1404 1.350 . S
C1407 C1406 1.434 . S
C1408 C1409 1.369 . S
C1408 C1410 1.419 . S
C1408 H1412 0.930 . S
C1409 C1408 1.369 . S
C1409 C1418 1.429 . S
C1410 C1408 1.419 . S
C1410 C1411 1.363 . S
C1410 H1413 0.929 . S
C1411 C1410 1.363 . S
C1411 C1417 1.428 . S
H1412 C1408 0.930 . S
H1413 C1410 0.929 . S
S1414 N1415 1.613 . S
S1414 N1416 1.610 . S
N1415 S1414 1.613 . S
N1415 C1418 1.350 . S
N1416 S1414 1.610 . S
N1416 C1417 1.351 . S
C1417 C1411 1.428 . S
C1417 N1416 1.351 . S
C1417 C1418 1.434 . S
C1418 C1409 1.429 . S
C1418 N1415 1.350 . S
C1418 C1417 1.434 . S
C1419 C1420 1.369 . S
C1419 C1421 1.419 . S
C1419 H1423 0.930 . S
C1420 C1419 1.369 . S
C1420 C1429 1.429 . S
C1421 C1419 1.419 . S
C1421 C1422 1.363 . S
C1421 H1424 0.929 . S
C1422 C1421 1.363 . S
C1422 C1428 1.428 . S
H1423 C1419 0.930 . S
H1424 C1421 0.929 . S
S1425 N1426 1.613 . S
S1425 N1427 1.610 . S
N1426 S1425 1.613 . S
N1426 C1429 1.350 . S
N1427 S1425 1.610 . S
N1427 C1428 1.351 . S
C1428 C1422 1.428 . S
C1428 N1427 1.351 . S
C1428 C1429 1.434 . S
C1429 C1420 1.429 . S
C1429 N1426 1.350 . S
C1429 C1428 1.434 . S
C1430 C1431 1.369 . S
C1430 C1432 1.419 . S
C1430 H1434 0.930 . S
C1431 C1430 1.369 . S
C1431 C1440 1.429 . S
C1432 C1430 1.419 . S
C1432 C1433 1.363 . S
C1432 H1435 0.929 . S
C1433 C1432 1.363 . S
C1433 C1439 1.428 . S
H1434 C1430 0.930 . S
H1435 C1432 0.929 . S
S1436 N1437 1.613 . S
S1436 N1438 1.610 . S
N1437 S1436 1.613 . S
N1437 C1440 1.350 . S
N1438 S1436 1.610 . S
N1438 C1439 1.351 . S
C1439 C1433 1.428 . S
C1439 N1438 1.351 . S
C1439 C1440 1.434 . S
C1440 C1431 1.429 . S
C1440 N1437 1.350 . S
C1440 C1439 1.434 . S
C1441 C1442 1.369 . S
C1441 C1443 1.419 . S
C1441 H1445 0.930 . S
C1442 C1441 1.369 . S
C1442 C1451 1.429 . S
C1443 C1441 1.419 . S
C1443 C1444 1.363 . S
C1443 H1446 0.929 . S
C1444 C1443 1.363 . S
C1444 C1450 1.428 . S
H1445 C1441 0.930 . S
H1446 C1443 0.929 . S
S1447 N1448 1.613 . S
S1447 N1449 1.610 . S
N1448 S1447 1.613 . S
N1448 C1451 1.350 . S
N1449 S1447 1.610 . S
N1449 C1450 1.351 . S
C1450 C1444 1.428 . S
C1450 N1449 1.351 . S
C1450 C1451 1.434 . S
C1451 C1442 1.429 . S
C1451 N1448 1.350 . S
C1451 C1450 1.434 . S
C1452 C1453 1.369 . S
C1452 C1454 1.419 . S
C1452 H1456 0.930 . S
C1453 C1452 1.369 . S
C1453 C1462 1.429 . S
C1454 C1452 1.419 . S
C1454 C1455 1.363 . S
C1454 H1457 0.929 . S
C1455 C1454 1.363 . S
C1455 C1461 1.428 . S
H1456 C1452 0.930 . S
H1457 C1454 0.929 . S
S1458 N1459 1.613 . S
S1458 N1460 1.610 . S
N1459 S1458 1.613 . S
N1459 C1462 1.350 . S
N1460 S1458 1.610 . S
N1460 C1461 1.351 . S
C1461 C1455 1.428 . S
C1461 N1460 1.351 . S
C1461 C1462 1.434 . S
C1462 C1453 1.429 . S
C1462 N1459 1.350 . S
C1462 C1461 1.434 . S
C1463 C1464 1.369 . S
C1463 C1465 1.419 . S
C1463 H1467 0.930 . S
C1464 C1463 1.369 . S
C1464 C1473 1.429 . S
C1465 C1463 1.419 . S
C1465 C1466 1.363 . S
C1465 H1468 0.929 . S
C1466 C1465 1.363 . S
C1466 C1472 1.428 . S
H1467 C1463 0.930 . S
H1468 C1465 0.929 . S
S1469 N1470 1.613 . S
S1469 N1471 1.610 . S
N1470 S1469 1.613 . S
N1470 C1473 1.350 . S
N1471 S1469 1.610 . S
N1471 C1472 1.351 . S
C1472 C1466 1.428 . S
C1472 N1471 1.351 . S
C1472 C1473 1.434 . S
C1473 C1464 1.429 . S
C1473 N1470 1.350 . S
C1473 C1472 1.434 . S
C1474 C1475 1.369 . S
C1474 C1476 1.419 . S
C1474 H1478 0.930 . S
C1475 C1474 1.369 . S
C1475 C1484 1.429 . S
C1476 C1474 1.419 . S
C1476 C1477 1.363 . S
C1476 H1479 0.929 . S
C1477 C1476 1.363 . S
C1477 C1483 1.428 . S
H1478 C1474 0.930 . S
H1479 C1476 0.929 . S
S1480 N1481 1.613 . S
S1480 N1482 1.610 . S
N1481 S1480 1.613 . S
N1481 C1484 1.350 . S
N1482 S1480 1.610 . S
N1482 C1483 1.351 . S
C1483 C1477 1.428 . S
C1483 N1482 1.351 . S
C1483 C1484 1.434 . S
C1484 C1475 1.429 . S
C1484 N1481 1.350 . S
C1484 C1483 1.434 . S
C1485 C1486 1.369 . S
C1485 C1487 1.419 . S
C1485 H1489 0.930 . S
C1486 C1485 1.369 . S
C1486 C1495 1.429 . S
C1487 C1485 1.419 . S
C1487 C1488 1.363 . S
C1487 H1490 0.929 . S
C1488 C1487 1.363 . S
C1488 C1494 1.428 . S
H1489 C1485 0.930 . S
H1490 C1487 0.929 . S
S1491 N1492 1.613 . S
S1491 N1493 1.610 . S
N1492 S1491 1.613 . S
N1492 C1495 1.350 . S
N1493 S1491 1.610 . S
N1493 C1494 1.351 . S
C1494 C1488 1.428 . S
C1494 N1493 1.351 . S
C1494 C1495 1.434 . S
C1495 C1486 1.429 . S
C1495 N1492 1.350 . S
C1495 C1494 1.434 . S
C1496 C1497 1.369 . S
C1496 C1498 1.419 . S
C1496 H1500 0.930 . S
C1497 C1496 1.369 . S
C1497 C1506 1.429 . S
C1498 C1496 1.419 . S
C1498 C1499 1.363 . S
C1498 H1501 0.929 . S
C1499 C1498 1.363 . S
C1499 C1505 1.428 . S
H1500 C1496 0.930 . S
H1501 C1498 0.929 . S
S1502 N1503 1.613 1_554 S
S1502 N1504 1.610 1_554 S
N1503 S1502 1.613 1_556 S
N1503 C1506 1.350 . S
N1504 S1502 1.610 1_556 S
N1504 C1505 1.351 . S
C1505 C1499 1.428 . S
C1505 N1504 1.351 . S
C1505 C1506 1.434 . S
C1506 C1497 1.429 . S
C1506 N1503 1.350 . S
C1506 C1505 1.434 . S
C1507 C1508 1.369 . S
C1507 C1509 1.419 . S
C1507 H1511 0.930 . S
C1508 C1507 1.369 . S
C1508 C1517 1.429 . S
C1509 C1507 1.419 . S
C1509 C1510 1.363 . S
C1509 H1512 0.929 . S
C1510 C1509 1.363 . S
C1510 C1516 1.428 . S
H1511 C1507 0.930 . S
H1512 C1509 0.929 . S
S1513 N1514 1.613 . S
S1513 N1515 1.610 . S
N1514 S1513 1.613 . S
N1514 C1517 1.350 . S
N1515 S1513 1.610 . S
N1515 C1516 1.351 . S
C1516 C1510 1.428 . S
C1516 N1515 1.351 . S
C1516 C1517 1.434 . S
C1517 C1508 1.429 . S
C1517 N1514 1.350 . S
C1517 C1516 1.434 . S
C1518 C1519 1.369 . S
C1518 C1520 1.419 . S
C1518 H1522 0.930 . S
C1519 C1518 1.369 . S
C1519 C1528 1.429 . S
C1520 C1518 1.419 . S
C1520 C1521 1.363 . S
C1520 H1523 0.929 . S
C1521 C1520 1.363 . S
C1521 C1527 1.428 . S
H1522 C1518 0.930 . S
H1523 C1520 0.929 . S
S1524 N1525 1.613 . S
S1524 N1526 1.610 . S
N1525 S1524 1.613 . S
N1525 C1528 1.350 . S
N1526 S1524 1.610 . S
N1526 C1527 1.351 . S
C1527 C1521 1.428 . S
C1527 N1526 1.351 . S
C1527 C1528 1.434 . S
C1528 C1519 1.429 . S
C1528 N1525 1.350 . S
C1528 C1527 1.434 . S
C1529 C1530 1.369 . S
C1529 C1531 1.419 . S
C1529 H1533 0.930 . S
C1530 C1529 1.369 . S
C1530 C1539 1.429 . S
C1531 C1529 1.419 . S
C1531 C1532 1.363 . S
C1531 H1534 0.929 . S
C1532 C1531 1.363 . S
C1532 C1538 1.428 . S
H1533 C1529 0.930 . S
H1534 C1531 0.929 . S
S1535 N1536 1.613 . S
S1535 N1537 1.610 . S
N1536 S1535 1.613 . S
N1536 C1539 1.350 . S
N1537 S1535 1.610 . S
N1537 C1538 1.351 . S
C1538 C1532 1.428 . S
C1538 N1537 1.351 . S
C1538 C1539 1.434 . S
C1539 C1530 1.429 . S
C1539 N1536 1.350 . S
C1539 C1538 1.434 . S
C1540 C1541 1.369 . S
C1540 C1542 1.419 . S
C1540 H1544 0.930 . S
C1541 C1540 1.369 . S
C1541 C1550 1.429 . S
C1542 C1540 1.419 . S
C1542 C1543 1.363 . S
C1542 H1545 0.929 . S
C1543 C1542 1.363 . S
C1543 C1549 1.428 . S
H1544 C1540 0.930 . S
H1545 C1542 0.929 . S
S1546 N1547 1.613 . S
S1546 N1548 1.610 . S
N1547 S1546 1.613 . S
N1547 C1550 1.350 . S
N1548 S1546 1.610 . S
N1548 C1549 1.351 . S
C1549 C1543 1.428 . S
C1549 N1548 1.351 . S
C1549 C1550 1.434 . S
C1550 C1541 1.429 . S
C1550 N1547 1.350 . S
C1550 C1549 1.434 . S
C1551 C1552 1.369 . S
C1551 C1553 1.419 . S
C1551 H1555 0.930 . S
C1552 C1551 1.369 . S
C1552 C1561 1.429 . S
C1553 C1551 1.419 . S
C1553 C1554 1.363 . S
C1553 H1556 0.929 . S
C1554 C1553 1.363 . S
C1554 C1560 1.428 . S
H1555 C1551 0.930 . S
H1556 C1553 0.929 . S
S1557 N1558 1.613 . S
S1557 N1559 1.610 . S
N1558 S1557 1.613 . S
N1558 C1561 1.350 . S
N1559 S1557 1.610 . S
N1559 C1560 1.351 . S
C1560 C1554 1.428 . S
C1560 N1559 1.351 . S
C1560 C1561 1.434 . S
C1561 C1552 1.429 . S
C1561 N1558 1.350 . S
C1561 C1560 1.434 . S
C1562 C1563 1.369 . S
C1562 C1564 1.419 . S
C1562 H1566 0.930 . S
C1563 C1562 1.369 . S
C1563 C1572 1.429 . S
C1564 C1562 1.419 . S
C1564 C1565 1.363 . S
C1564 H1567 0.929 . S
C1565 C1564 1.363 . S
C1565 C1571 1.428 . S
H1566 C1562 0.930 . S
H1567 C1564 0.929 . S
S1568 N1569 1.613 . S
S1568 N1570 1.610 . S
N1569 S1568 1.613 . S
N1569 C1572 1.350 . S
N1570 S1568 1.610 . S
N1570 C1571 1.351 . S
C1571 C1565 1.428 . S
C1571 N1570 1.351 . S
C1571 C1572 1.434 . S
C1572 C1563 1.429 . S
C1572 N1569 1.350 . S
C1572 C1571 1.434 . S
C1573 C1574 1.369 . S
C1573 C1575 1.419 . S
C1573 H1577 0.930 . S
C1574 C1573 1.369 . S
C1574 C1583 1.429 . S
C1575 C1573 1.419 . S
C1575 C1576 1.363 . S
C1575 H1578 0.929 . S
C1576 C1575 1.363 . S
C1576 C1582 1.428 . S
H1577 C1573 0.930 . S
H1578 C1575 0.929 . S
S1579 N1580 1.613 . S
S1579 N1581 1.610 . S
N1580 S1579 1.613 . S
N1580 C1583 1.350 . S
N1581 S1579 1.610 . S
N1581 C1582 1.351 . S
C1582 C1576 1.428 . S
C1582 N1581 1.351 . S
C1582 C1583 1.434 . S
C1583 C1574 1.429 . S
C1583 N1580 1.350 . S
C1583 C1582 1.434 . S
C1584 C1585 1.369 1_655 S
C1584 C1586 1.419 . S
C1584 H1588 0.934 . S
C1585 C1584 1.369 1_455 S
C1585 C1594 1.431 . S
C1586 C1584 1.419 . S
C1586 C1587 1.363 . S
C1586 H1589 0.929 1_545 S
C1587 C1586 1.363 . S
C1587 C1593 1.428 . S
H1588 C1584 0.934 . S
H1589 C1586 0.929 1_565 S
S1590 N1591 1.613 1_655 S
S1590 N1592 1.610 . S
N1591 S1590 1.613 1_455 S
N1591 C1594 1.353 . S
N1592 S1590 1.610 . S
N1592 C1593 1.351 . S
C1593 C1587 1.428 . S
C1593 N1592 1.351 . S
C1593 C1594 1.427 1_655 S
C1594 C1585 1.431 . S
C1594 N1591 1.353 . S
C1594 C1593 1.427 1_455 S
C1595 C1596 1.369 . S
C1595 C1597 1.419 . S
C1595 H1599 0.930 . S
C1596 C1595 1.369 . S
C1596 C1605 1.429 . S
C1597 C1595 1.419 . S
C1597 C1598 1.363 . S
C1597 H1600 0.929 . S
C1598 C1597 1.363 . S
C1598 C1604 1.428 . S
H1599 C1595 0.930 . S
H1600 C1597 0.929 . S
S1601 N1602 1.613 . S
S1601 N1603 1.610 . S
N1602 S1601 1.613 . S
N1602 C1605 1.350 . S
N1603 S1601 1.610 . S
N1603 C1604 1.351 . S
C1604 C1598 1.428 . S
C1604 N1603 1.351 . S
C1604 C1605 1.434 . S
C1605 C1596 1.429 . S
C1605 N1602 1.350 . S
C1605 C1604 1.434 . S
C1606 C1607 1.369 1_455 S
C1606 C1608 1.419 . S
C1606 H1610 0.930 1_556 S
C1607 C1606 1.369 1_655 S
C1607 C1616 1.429 . S
C1608 C1606 1.419 . S
C1608 C1609 1.363 . S
C1608 H1611 0.929 . S
C1609 C1608 1.363 . S
C1609 C1615 1.428 1_455 S
H1610 C1606 0.930 1_554 S
H1611 C1608 0.929 . S
S1612 N1613 1.613 . S
S1612 N1614 1.610 . S
N1613 S1612 1.613 . S
N1613 C1616 1.350 . S
N1614 S1612 1.610 . S
N1614 C1615 1.351 . S
C1615 C1609 1.428 1_655 S
C1615 N1614 1.351 . S
C1615 C1616 1.434 . S
C1616 C1607 1.429 . S
C1616 N1613 1.350 . S
C1616 C1615 1.434 . S
C1617 C1618 1.369 . S
C1617 C1619 1.419 . S
C1617 H1621 0.930 . S
C1618 C1617 1.369 . S
C1618 C1627 1.429 . S
C1619 C1617 1.419 . S
C1619 C1620 1.363 . S
C1619 H1622 0.929 1_556 S
C1620 C1619 1.363 . S
C1620 C1626 1.428 . S
H1621 C1617 0.930 . S
H1622 C1619 0.929 1_554 S
S1623 N1624 1.613 1_565 S
S1623 N1625 1.610 . S
N1624 S1623 1.613 1_545 S
N1624 C1627 1.350 . S
N1625 S1623 1.610 . S
N1625 C1626 1.351 1_565 S
C1626 C1620 1.428 . S
C1626 N1625 1.351 1_545 S
C1626 C1627 1.434 . S
C1627 C1618 1.429 . S
C1627 N1624 1.350 . S
C1627 C1626 1.434 . S
C1628 C1629 1.369 1_655 S
C1628 C1630 1.419 . S
C1628 H1632 0.930 . S
C1629 C1628 1.369 1_455 S
C1629 C1638 1.429 . S
C1630 C1628 1.419 . S
C1630 C1631 1.363 . S
C1630 H1633 0.929 . S
C1631 C1630 1.363 . S
C1631 C1637 1.428 1_655 S
H1632 C1628 0.930 . S
H1633 C1630 0.929 . S
S1634 N1635 1.613 . S
S1634 N1636 1.610 1_545 S
N1635 S1634 1.613 . S
N1635 C1638 1.350 1_545 S
N1636 S1634 1.610 1_565 S
N1636 C1637 1.351 . S
C1637 C1631 1.428 1_455 S
C1637 N1636 1.351 . S
C1637 C1638 1.434 . S
C1638 C1629 1.429 . S
C1638 N1635 1.350 1_565 S
C1638 C1637 1.434 . S
C1639 C1640 1.369 . S
C1639 C1641 1.419 . S
C1639 H1643 0.930 . S
C1640 C1639 1.369 . S
C1640 C1649 1.429 . S
C1641 C1639 1.419 . S
C1641 C1642 1.363 . S
C1641 H1644 0.929 . S
C1642 C1641 1.363 . S
C1642 C1648 1.428 . S
H1643 C1639 0.930 . S
H1644 C1641 0.929 . S
S1645 N1646 1.613 . S
S1645 N1647 1.610 . S
N1646 S1645 1.613 . S
N1646 C1649 1.350 . S
N1647 S1645 1.610 . S
N1647 C1648 1.351 . S
C1648 C1642 1.428 . S
C1648 N1647 1.351 . S
C1648 C1649 1.434 . S
C1649 C1640 1.429 . S
C1649 N1646 1.350 . S
C1649 C1648 1.434 . S
C1650 C1651 1.369 . S
C1650 C1652 1.419 . S
C1650 H1654 0.930 . S
C1651 C1650 1.369 . S
C1651 C1660 1.429 1_455 S
C1652 C1650 1.419 . S
C1652 C1653 1.363 1_455 S
C1652 H1655 0.929 . S
C1653 C1652 1.363 1_655 S
C1653 C1659 1.428 . S
H1654 C1650 0.930 . S
H1655 C1652 0.929 . S
S1656 N1657 1.613 . S
S1656 N1658 1.610 1_556 S
N1657 S1656 1.613 . S
N1657 C1660 1.350 1_556 S
N1658 S1656 1.610 1_554 S
N1658 C1659 1.351 . S
C1659 C1653 1.428 . S
C1659 N1658 1.351 . S
C1659 C1660 1.434 . S
C1660 C1651 1.429 1_655 S
C1660 N1657 1.350 1_554 S
C1660 C1659 1.434 . S
C1661 C1662 1.369 . S
C1661 C1663 1.419 . S
C1661 H1665 0.930 . S
C1662 C1661 1.369 . S
C1662 C1671 1.429 . S
C1663 C1661 1.419 . S
C1663 C1664 1.363 . S
C1663 H1666 0.929 . S
C1664 C1663 1.363 . S
C1664 C1670 1.428 . S
H1665 C1661 0.930 . S
H1666 C1663 0.929 . S
S1667 N1668 1.613 . S
S1667 N1669 1.610 . S
N1668 S1667 1.613 . S
N1668 C1671 1.350 . S
N1669 S1667 1.610 . S
N1669 C1670 1.351 . S
C1670 C1664 1.428 . S
C1670 N1669 1.351 . S
C1670 C1671 1.434 . S
C1671 C1662 1.429 . S
C1671 N1668 1.350 . S
C1671 C1670 1.434 . S
C1672 C1673 1.359 1_455 S
C1672 C1674 1.425 . S
C1672 H1676 0.935 . S
C1673 C1672 1.359 1_655 S
C1673 C1682 1.429 . S
C1674 C1672 1.425 . S
C1674 C1675 1.363 . S
C1674 H1677 0.929 . S
C1675 C1674 1.363 . S
C1675 C1681 1.428 1_455 S
H1676 C1672 0.935 . S
H1677 C1674 0.929 . S
S1678 N1679 1.613 . S
S1678 N1680 1.610 . S
N1679 S1678 1.613 . S
N1679 C1682 1.350 . S
N1680 S1678 1.610 . S
N1680 C1681 1.351 . S
C1681 C1675 1.428 1_655 S
C1681 N1680 1.351 . S
C1681 C1682 1.434 . S
C1682 C1673 1.429 . S
C1682 N1679 1.350 . S
C1682 C1681 1.434 . S
C1683 C1684 1.369 . S
C1683 C1685 1.419 . S
C1683 H1687 0.930 . S
C1684 C1683 1.369 . S
C1684 C1693 1.429 . S
C1685 C1683 1.419 . S
C1685 C1686 1.363 . S
C1685 H1688 0.929 . S
C1686 C1685 1.363 . S
C1686 C1692 1.428 . S
H1687 C1683 0.930 . S
H1688 C1685 0.929 . S
S1689 N1690 1.613 . S
S1689 N1691 1.610 . S
N1690 S1689 1.613 . S
N1690 C1693 1.350 . S
N1691 S1689 1.610 . S
N1691 C1692 1.351 . S
C1692 C1686 1.428 . S
C1692 N1691 1.351 . S
C1692 C1693 1.434 . S
C1693 C1684 1.429 . S
C1693 N1690 1.350 . S
C1693 C1692 1.434 . S
C1694 C1695 1.369 1_455 S
C1694 C1696 1.419 . S
C1694 H1698 0.930 . S
C1695 C1694 1.369 1_655 S
C1695 C1704 1.429 . S
C1696 C1694 1.419 . S
C1696 C1697 1.363 . S
C1696 H1699 0.929 . S
C1697 C1696 1.363 . S
C1697 C1703 1.428 1_455 S
H1698 C1694 0.930 . S
H1699 C1696 0.929 . S
S1700 N1701 1.613 . S
S1700 N1702 1.610 . S
N1701 S1700 1.613 . S
N1701 C1704 1.350 . S
N1702 S1700 1.610 . S
N1702 C1703 1.351 . S
C1703 C1697 1.428 1_655 S
C1703 N1702 1.351 . S
C1703 C1704 1.434 . S
C1704 C1695 1.429 . S
C1704 N1701 1.350 . S
C1704 C1703 1.434 . S
C1705 C1706 1.369 . S
C1705 C1707 1.419 . S
C1705 H1709 0.930 . S
C1706 C1705 1.369 . S
C1706 C1715 1.429 . S
C1707 C1705 1.419 . S
C1707 C1708 1.363 . S
C1707 H1710 0.929 . S
C1708 C1707 1.363 . S
C1708 C1714 1.428 . S
H1709 C1705 0.930 . S
H1710 C1707 0.929 . S
S1711 N1712 1.613 . S
S1711 N1713 1.610 . S
N1712 S1711 1.613 . S
N1712 C1715 1.350 . S
N1713 S1711 1.610 . S
N1713 C1714 1.351 . S
C1714 C1708 1.428 . S
C1714 N1713 1.351 . S
C1714 C1715 1.434 . S
C1715 C1706 1.429 . S
C1715 N1712 1.350 . S
C1715 C1714 1.434 . S
C1716 C1717 1.369 . S
C1716 C1718 1.419 . S
C1716 H1720 0.930 . S
C1717 C1716 1.369 . S
C1717 C1726 1.429 1_655 S
C1718 C1716 1.419 . S
C1718 C1719 1.363 1_655 S
C1718 H1721 0.929 . S
C1719 C1718 1.363 1_455 S
C1719 C1725 1.428 . S
H1720 C1716 0.930 . S
H1721 C1718 0.929 . S
S1722 N1723 1.613 . S
S1722 N1724 1.610 . S
N1723 S1722 1.613 . S
N1723 C1726 1.350 . S
N1724 S1722 1.610 . S
N1724 C1725 1.351 . S
C1725 C1719 1.428 . S
C1725 N1724 1.351 . S
C1725 C1726 1.434 . S
C1726 C1717 1.429 1_455 S
C1726 N1723 1.350 . S
C1726 C1725 1.434 . S
C1727 C1728 1.369 . S
C1727 C1729 1.419 . S
C1727 H1731 0.930 . S
C1728 C1727 1.369 . S
C1728 C1737 1.429 . S
C1729 C1727 1.419 . S
C1729 C1730 1.363 . S
C1729 H1732 0.929 . S
C1730 C1729 1.363 . S
C1730 C1736 1.428 . S
H1731 C1727 0.930 . S
H1732 C1729 0.929 . S
S1733 N1734 1.613 . S
S1733 N1735 1.610 . S
N1734 S1733 1.613 . S
N1734 C1737 1.350 . S
N1735 S1733 1.610 . S
N1735 C1736 1.351 . S
C1736 C1730 1.428 . S
C1736 N1735 1.351 . S
C1736 C1737 1.434 . S
C1737 C1728 1.429 . S
C1737 N1734 1.350 . S
C1737 C1736 1.434 . S
C1738 C1739 1.369 1_655 S
C1738 C1740 1.419 . S
C1738 H1742 0.930 . S
C1739 C1738 1.369 1_455 S
C1739 C1748 1.429 . S
C1740 C1738 1.419 . S
C1740 C1741 1.363 . S
C1740 H1743 0.929 . S
C1741 C1740 1.363 . S
C1741 C1747 1.428 1_655 S
H1742 C1738 0.930 . S
H1743 C1740 0.929 . S
S1744 N1745 1.613 . S
S1744 N1746 1.610 . S
N1745 S1744 1.613 . S
N1745 C1748 1.350 . S
N1746 S1744 1.610 . S
N1746 C1747 1.351 . S
C1747 C1741 1.428 1_455 S
C1747 N1746 1.351 . S
C1747 C1748 1.434 . S
C1748 C1739 1.429 . S
C1748 N1745 1.350 . S
C1748 C1747 1.434 . S
C1749 C1750 1.369 . S
C1749 C1751 1.419 . S
C1749 H1753 0.930 . S
C1750 C1749 1.369 . S
C1750 C1759 1.429 . S
C1751 C1749 1.419 . S
C1751 C1752 1.363 . S
C1751 H1754 0.929 . S
C1752 C1751 1.363 . S
C1752 C1758 1.428 . S
H1753 C1749 0.930 . S
H1754 C1751 0.929 . S
S1755 N1756 1.613 . S
S1755 N1757 1.610 . S
N1756 S1755 1.613 . S
N1756 C1759 1.350 . S
N1757 S1755 1.610 . S
N1757 C1758 1.351 . S
C1758 C1752 1.428 . S
C1758 N1757 1.351 . S
C1758 C1759 1.434 . S
C1759 C1750 1.429 . S
C1759 N1756 1.350 . S
C1759 C1758 1.434 . S
C1760 C1761 1.369 . S
C1760 C1762 1.419 . S
C1760 H1764 0.930 . S
C1761 C1760 1.369 . S
C1761 C1770 1.429 . S
C1762 C1760 1.419 . S
C1762 C1763 1.363 . S
C1762 H1765 0.929 . S
C1763 C1762 1.363 . S
C1763 C1769 1.428 . S
H1764 C1760 0.930 . S
H1765 C1762 0.929 . S
S1766 N1767 1.613 . S
S1766 N1768 1.610 . S
N1767 S1766 1.613 . S
N1767 C1770 1.350 . S
N1768 S1766 1.610 . S
N1768 C1769 1.351 . S
C1769 C1763 1.428 . S
C1769 N1768 1.351 . S
C1769 C1770 1.434 . S
C1770 C1761 1.429 . S
C1770 N1767 1.350 . S
C1770 C1769 1.434 . S
C1771 C1772 1.369 . S
C1771 C1773 1.419 . S
C1771 H1775 0.930 . S
C1772 C1771 1.369 . S
C1772 C1781 1.429 . S
C1773 C1771 1.419 . S
C1773 C1774 1.363 . S
C1773 H1776 0.929 . S
C1774 C1773 1.363 . S
C1774 C1780 1.428 . S
H1775 C1771 0.930 . S
H1776 C1773 0.929 . S
S1777 N1778 1.613 . S
S1777 N1779 1.610 . S
N1778 S1777 1.613 . S
N1778 C1781 1.350 . S
N1779 S1777 1.610 . S
N1779 C1780 1.351 . S
C1780 C1774 1.428 . S
C1780 N1779 1.351 . S
C1780 C1781 1.434 . S
C1781 C1772 1.429 . S
C1781 N1778 1.350 . S
C1781 C1780 1.434 . S
C1782 C1783 1.369 . S
C1782 C1784 1.419 . S
C1782 H1786 0.930 . S
C1783 C1782 1.369 . S
C1783 C1792 1.429 . S
C1784 C1782 1.419 . S
C1784 C1785 1.363 . S
C1784 H1787 0.929 . S
C1785 C1784 1.363 . S
C1785 C1791 1.428 . S
H1786 C1782 0.930 . S
H1787 C1784 0.929 . S
S1788 N1789 1.613 . S
S1788 N1790 1.610 . S
N1789 S1788 1.613 . S
N1789 C1792 1.350 . S
N1790 S1788 1.610 . S
N1790 C1791 1.351 . S
C1791 C1785 1.428 . S
C1791 N1790 1.351 . S
C1791 C1792 1.434 . S
C1792 C1783 1.429 . S
C1792 N1789 1.350 . S
C1792 C1791 1.434 . S
C1793 C1794 1.369 . S
C1793 C1795 1.419 . S
C1793 H1797 0.930 . S
C1794 C1793 1.369 . S
C1794 C1803 1.429 . S
C1795 C1793 1.419 . S
C1795 C1796 1.363 . S
C1795 H1798 0.929 . S
C1796 C1795 1.363 . S
C1796 C1802 1.428 . S
H1797 C1793 0.930 . S
H1798 C1795 0.929 . S
S1799 N1800 1.613 1_565 S
S1799 N1801 1.610 . S
N1800 S1799 1.613 1_545 S
N1800 C1803 1.350 . S
N1801 S1799 1.610 . S
N1801 C1802 1.351 1_565 S
C1802 C1796 1.428 . S
C1802 N1801 1.351 1_545 S
C1802 C1803 1.434 . S
C1803 C1794 1.429 . S
C1803 N1800 1.350 . S
C1803 C1802 1.434 . S
C1804 C1805 1.369 . S
C1804 C1806 1.419 . S
C1804 H1808 0.930 . S
C1805 C1804 1.369 . S
C1805 C1814 1.430 . S
C1806 C1804 1.419 . S
C1806 C1807 1.363 . S
C1806 H1809 0.929 . S
C1807 C1806 1.363 . S
C1807 C1813 1.428 . S
H1808 C1804 0.930 . S
H1809 C1806 0.929 . S
S1810 N1811 1.613 . S
S1810 N1812 1.610 1_545 S
N1811 S1810 1.613 . S
N1811 C1814 1.347 1_545 S
N1812 S1810 1.610 1_565 S
N1812 C1813 1.351 . S
C1813 C1807 1.428 . S
C1813 N1812 1.351 . S
C1813 C1814 1.436 . S
C1814 C1805 1.430 . S
C1814 N1811 1.347 1_565 S
C1814 C1813 1.436 . S
C1815 C1816 1.369 . S
C1815 C1817 1.419 . S
C1815 H1819 0.930 . S
C1816 C1815 1.369 . S
C1816 C1825 1.429 . S
C1817 C1815 1.419 . S
C1817 C1818 1.363 . S
C1817 H1820 0.929 . S
C1818 C1817 1.363 . S
C1818 C1824 1.428 . S
H1819 C1815 0.930 . S
H1820 C1817 0.929 . S
S1821 N1822 1.613 . S
S1821 N1823 1.610 . S
N1822 S1821 1.613 . S
N1822 C1825 1.350 . S
N1823 S1821 1.610 . S
N1823 C1824 1.351 . S
C1824 C1818 1.428 . S
C1824 N1823 1.351 . S
C1824 C1825 1.434 . S
C1825 C1816 1.429 . S
C1825 N1822 1.350 . S
C1825 C1824 1.434 . S
C1826 C1827 1.369 . S
C1826 C1828 1.419 . S
C1826 H1830 0.930 . S
C1827 C1826 1.369 . S
C1827 C1836 1.429 . S
C1828 C1826 1.419 . S
C1828 C1829 1.363 . S
C1828 H1831 0.929 . S
C1829 C1828 1.363 . S
C1829 C1835 1.428 . S
H1830 C1826 0.930 . S
H1831 C1828 0.929 . S
S1832 N1833 1.613 . S
S1832 N1834 1.610 . S
N1833 S1832 1.613 . S
N1833 C1836 1.350 . S
N1834 S1832 1.610 . S
N1834 C1835 1.351 . S
C1835 C1829 1.428 . S
C1835 N1834 1.351 . S
C1835 C1836 1.434 . S
C1836 C1827 1.429 . S
C1836 N1833 1.350 . S
C1836 C1835 1.434 . S
C1837 C1838 1.369 . S
C1837 C1839 1.419 . S
C1837 H1841 0.930 . S
C1838 C1837 1.369 . S
C1838 C1847 1.429 . S
C1839 C1837 1.419 . S
C1839 C1840 1.363 . S
C1839 H1842 0.929 1_565 S
C1840 C1839 1.363 . S
C1840 C1846 1.428 . S
H1841 C1837 0.930 . S
H1842 C1839 0.929 1_545 S
S1843 N1844 1.613 . S
S1843 N1845 1.610 . S
N1844 S1843 1.613 . S
N1844 C1847 1.350 . S
N1845 S1843 1.610 . S
N1845 C1846 1.351 . S
C1846 C1840 1.428 . S
C1846 N1845 1.351 . S
C1846 C1847 1.434 . S
C1847 C1838 1.429 . S
C1847 N1844 1.350 . S
C1847 C1846 1.434 . S
C1848 C1849 1.369 . S
C1848 C1850 1.419 . S
C1848 H1852 0.930 . S
C1849 C1848 1.369 . S
C1849 C1858 1.429 . S
C1850 C1848 1.419 . S
C1850 C1851 1.363 . S
C1850 H1853 0.929 . S
C1851 C1850 1.363 . S
C1851 C1857 1.428 . S
H1852 C1848 0.930 . S
H1853 C1850 0.929 . S
S1854 N1855 1.613 . S
S1854 N1856 1.610 . S
N1855 S1854 1.613 . S
N1855 C1858 1.350 . S
N1856 S1854 1.610 . S
N1856 C1857 1.351 . S
C1857 C1851 1.428 . S
C1857 N1856 1.351 . S
C1857 C1858 1.434 . S
C1858 C1849 1.429 . S
C1858 N1855 1.350 . S
C1858 C1857 1.434 . S
C1859 C1860 1.369 . S
C1859 C1861 1.419 . S
C1859 H1863 0.930 . S
C1860 C1859 1.369 . S
C1860 C1869 1.429 . S
C1861 C1859 1.419 . S
C1861 C1862 1.363 . S
C1861 H1864 0.929 . S
C1862 C1861 1.363 . S
C1862 C1868 1.428 . S
H1863 C1859 0.930 . S
H1864 C1861 0.929 . S
S1865 N1866 1.613 . S
S1865 N1867 1.610 . S
N1866 S1865 1.613 . S
N1866 C1869 1.350 . S
N1867 S1865 1.610 . S
N1867 C1868 1.351 . S
C1868 C1862 1.428 . S
C1868 N1867 1.351 . S
C1868 C1869 1.434 . S
C1869 C1860 1.429 . S
C1869 N1866 1.350 . S
C1869 C1868 1.434 . S
C1870 C1871 1.369 . S
C1870 C1872 1.419 . S
C1870 H1874 0.930 . S
C1871 C1870 1.369 . S
C1871 C1880 1.429 . S
C1872 C1870 1.419 . S
C1872 C1873 1.363 . S
C1872 H1875 0.929 . S
C1873 C1872 1.363 . S
C1873 C1879 1.428 . S
H1874 C1870 0.930 . S
H1875 C1872 0.929 . S
S1876 N1877 1.613 . S
S1876 N1878 1.610 . S
N1877 S1876 1.613 . S
N1877 C1880 1.350 . S
N1878 S1876 1.610 . S
N1878 C1879 1.351 . S
C1879 C1873 1.428 . S
C1879 N1878 1.351 . S
C1879 C1880 1.434 . S
C1880 C1871 1.429 . S
C1880 N1877 1.350 . S
C1880 C1879 1.434 . S
C1881 C1882 1.369 . S
C1881 C1883 1.419 . S
C1881 H1885 0.930 . S
C1882 C1881 1.369 . S
C1882 C1891 1.429 . S
C1883 C1881 1.419 . S
C1883 C1884 1.363 . S
C1883 H1886 0.929 . S
C1884 C1883 1.363 . S
C1884 C1890 1.428 . S
H1885 C1881 0.930 . S
H1886 C1883 0.929 . S
S1887 N1888 1.613 . S
S1887 N1889 1.610 . S
N1888 S1887 1.613 . S
N1888 C1891 1.350 . S
N1889 S1887 1.610 . S
N1889 C1890 1.351 . S
C1890 C1884 1.428 . S
C1890 N1889 1.351 . S
C1890 C1891 1.434 . S
C1891 C1882 1.429 . S
C1891 N1888 1.350 . S
C1891 C1890 1.434 . S
C1892 C1893 1.369 . S
C1892 C1894 1.419 . S
C1892 H1896 0.930 . S
C1893 C1892 1.369 . S
C1893 C1902 1.429 . S
C1894 C1892 1.419 . S
C1894 C1895 1.363 . S
C1894 H1897 0.929 . S
C1895 C1894 1.363 . S
C1895 C1901 1.428 . S
H1896 C1892 0.930 . S
H1897 C1894 0.929 . S
S1898 N1899 1.613 . S
S1898 N1900 1.610 . S
N1899 S1898 1.613 . S
N1899 C1902 1.350 . S
N1900 S1898 1.610 . S
N1900 C1901 1.351 . S
C1901 C1895 1.428 . S
C1901 N1900 1.351 . S
C1901 C1902 1.434 . S
C1902 C1893 1.429 . S
C1902 N1899 1.350 . S
C1902 C1901 1.434 . S
C1903 C1904 1.369 . S
C1903 C1905 1.419 . S
C1903 H1907 0.930 . S
C1904 C1903 1.369 . S
C1904 C1913 1.429 . S
C1905 C1903 1.419 . S
C1905 C1906 1.363 . S
C1905 H1908 0.929 . S
C1906 C1905 1.363 . S
C1906 C1912 1.428 . S
H1907 C1903 0.930 . S
H1908 C1905 0.929 . S
S1909 N1910 1.613 . S
S1909 N1911 1.610 . S
N1910 S1909 1.613 . S
N1910 C1913 1.350 . S
N1911 S1909 1.610 . S
N1911 C1912 1.351 . S
C1912 C1906 1.428 . S
C1912 N1911 1.351 . S
C1912 C1913 1.434 . S
C1913 C1904 1.429 . S
C1913 N1910 1.350 . S
C1913 C1912 1.434 . S
C1914 C1915 1.369 . S
C1914 C1916 1.419 . S
C1914 H1918 0.930 . S
C1915 C1914 1.369 . S
C1915 C1924 1.429 . S
C1916 C1914 1.419 . S
C1916 C1917 1.363 . S
C1916 H1919 0.929 . S
C1917 C1916 1.363 . S
C1917 C1923 1.428 . S
H1918 C1914 0.930 . S
H1919 C1916 0.929 . S
S1920 N1921 1.613 . S
S1920 N1922 1.610 1_554 S
N1921 S1920 1.613 . S
N1921 C1924 1.350 . S
N1922 S1920 1.610 1_556 S
N1922 C1923 1.351 1_556 S
C1923 C1917 1.428 . S
C1923 N1922 1.351 1_554 S
C1923 C1924 1.434 . S
C1924 C1915 1.429 . S
C1924 N1921 1.350 . S
C1924 C1923 1.434 . S
C1925 C1926 1.369 . S
C1925 C1927 1.419 . S
C1925 H1929 0.930 . S
C1926 C1925 1.369 . S
C1926 C1935 1.429 . S
C1927 C1925 1.419 . S
C1927 C1928 1.363 . S
C1927 H1930 0.929 . S
C1928 C1927 1.363 . S
C1928 C1934 1.428 . S
H1929 C1925 0.930 . S
H1930 C1927 0.929 . S
S1931 N1932 1.613 . S
S1931 N1933 1.610 . S
N1932 S1931 1.613 . S
N1932 C1935 1.350 . S
N1933 S1931 1.610 . S
N1933 C1934 1.351 . S
C1934 C1928 1.428 . S
C1934 N1933 1.351 . S
C1934 C1935 1.434 . S
C1935 C1926 1.429 . S
C1935 N1932 1.350 . S
C1935 C1934 1.434 . S
C1057 N410 1.282 . S
C1059 N14 1.279 . S
C1068 N707 1.281 . S
C1070 N47 1.279 . S
C1079 N212 1.280 . S
C1081 N80 1.280 . S
C1090 N1037 1.275 . S
C1092 N113 1.284 . S
C1101 N278 1.277 . S
C1103 N146 1.282 . S
C1112 N575 1.285 . S
C1114 N179 1.276 . S
C1123 N245 1.281 . S
C1125 N905 1.279 . S
C1134 N311 1.281 . S
C1136 N971 1.280 . S
C1145 N476 1.284 . S
C1147 N344 1.277 . S
C1156 N377 1.278 . S
C1158 N773 1.281 . S
C1167 N839 1.274 . S
C1169 N443 1.284 . S
C1178 N509 1.282 . S
C1180 N641 1.278 . S
C1189 N938 1.276 . S
C1191 N542 1.283 . S
C1200 N740 1.286 . S
C1202 N608 1.276 . S
C1211 N674 1.283 . S
C1213 N806 1.278 . S
C1222 N1004 1.275 . S
C1224 N872 1.284 . S
C1233 N5 1.120 . S
C1235 N71 1.129 . S
C1244 N38 1.128 . S
C1246 N104 1.121 . S
C1255 N203 1.126 . S
C1257 N137 1.129 . S
C1266 N236 1.131 . S
C1268 N170 1.124 . S
C1277 N269 1.121 . S
C1279 N335 1.124 . S
C1288 N368 1.131 . S
C1290 N302 1.124 . S
C1299 N467 1.130 . S
C1301 N401 1.121 . S
C1310 N500 1.121 . S
C1312 N434 1.130 . S
C1321 N533 1.121 . S
C1323 N599 1.129 . S
C1332 N632 1.123 . S
C1334 N566 1.122 . S
C1343 N731 1.131 . S
C1345 N665 1.122 . S
C1354 N764 1.120 . S
C1356 N698 1.129 . S
C1365 N797 1.121 . S
C1367 N863 1.130 . S
C1376 N896 1.121 . S
C1378 N830 1.130 . S
C1387 N929 1.130 . S
C1389 N995 1.126 . S
C1398 N1028 1.119 . S
C1400 N962 1.127 . S
C1409 C17 1.595 . S
C1411 C50 1.596 . S
C1420 C116 1.600 . S
C1422 C83 1.596 . S
C1431 C182 1.595 . S
C1433 C149 1.600 . S
C1442 C215 1.600 . S
C1444 C248 1.593 . S
C1453 C281 1.592 . S
C1455 C314 1.599 . S
C1464 C347 1.594 . S
C1466 C380 1.596 . S
C1475 C446 1.594 . S
C1477 C413 1.600 . S
C1486 C512 1.596 . S
C1488 C479 1.595 . S
C1497 C545 1.595 . S
C1499 C578 1.596 . S
C1508 C644 1.596 . S
C1510 C611 1.595 . S
C1519 C710 1.597 . S
C1521 C677 1.599 . S
C1530 C776 1.599 . S
C1532 C743 1.597 . S
C1541 C842 1.598 . S
C1543 C809 1.594 . S
C1552 C908 1.601 . S
C1554 C875 1.594 . S
C1563 C941 1.598 . S
C1565 C974 1.598 . S
C1574 C1040 1.599 . S
C1576 C1007 1.597 . S
C1585 C8 1.783 . S
C1587 C226 1.830 1_545 S
C1596 C1051 1.828 . S
C1598 C41 1.785 . S
C1607 C424 1.827 1_556 S
C1609 C74 1.787 . S
C1618 C107 1.786 . S
C1620 C721 1.828 1_546 S
C1629 C94 1.827 1_565 S
C1631 C140 1.786 . S
C1640 C919 1.829 . S
C1642 C173 1.784 . S
C1651 C292 1.831 1_554 S
C1653 C206 1.781 . S
C1662 C589 1.827 1_564 S
C1664 C239 1.787 . S
C1673 C490 1.831 . S
C1675 C272 1.782 . S
C1684 C787 1.831 . S
C1686 C305 1.781 . S
C1695 C160 1.829 . S
C1697 C338 1.784 . S
C1706 C985 1.828 . S
C1708 C371 1.786 . S
C1717 C404 1.787 . S
C1719 C358 1.828 . S
C1728 C655 1.827 . S
C1730 C437 1.787 . S
C1739 C28 1.827 . S
C1741 C470 1.786 . S
C1750 C853 1.827 . S
C1752 C503 1.787 . S
C1761 C754 1.830 1_545 S
C1763 C536 1.781 . S
C1772 C569 1.788 . S
C1774 C523 1.828 . S
C1783 C952 1.828 . S
C1785 C602 1.785 . S
C1794 C635 1.786 . S
C1796 C193 1.828 1_545 S
C1805 C622 1.829 1_565 S
C1807 C668 1.784 . S
C1816 C701 1.785 . S
C1818 C391 1.829 . S
C1827 C734 1.781 . S
C1829 C820 1.830 . S
C1838 C767 1.780 . S
C1840 C61 1.831 1_565 S
C1849 C800 1.788 . S
C1851 C1018 1.828 . S
C1860 C833 1.781 . S
C1862 C259 1.830 . S
C1871 C866 1.780 . S
C1873 C688 1.830 1_556 S
C1882 C899 1.788 . S
C1884 C457 1.828 1_556 S
C1893 C932 1.783 . S
C1895 C886 1.830 . S
C1904 C127 1.831 . S
C1906 C965 1.781 . S
C1915 C998 1.781 . S
C1917 C556 1.830 1_554 S
C1926 C325 1.831 1_554 S
C1928 C1031 1.781 . S
