# Generated by pormake.
# Topology wjf, (4)-cn, num edge types: 1
# Building blocks:
#     Node 0, Type 0, BuildingBlock: GALJAG_clean_sbu_0, # of connection points: 4
#     Node 1, Type 0, BuildingBlock: GALJAG_clean_sbu_0, # of connection points: 4
#     Node 2, Type 0, BuildingBlock: GALJAG_clean_sbu_0, # of connection points: 4
#     Node 3, Type 0, BuildingBlock: GALJAG_clean_sbu_0, # of connection points: 4
#     Node 4, Type 0, BuildingBlock: GALJAG_clean_sbu_0, # of connection points: 4
#     Node 5, Type 0, BuildingBlock: GALJAG_clean_sbu_0, # of connection points: 4
#     Node 6, Type 0, BuildingBlock: GALJAG_clean_sbu_0, # of connection points: 4
#     Node 7, Type 0, BuildingBlock: GALJAG_clean_sbu_0, # of connection points: 4
#     Node 8, Type 0, BuildingBlock: GALJAG_clean_sbu_0, # of connection points: 4
#     Node 9, Type 0, BuildingBlock: GALJAG_clean_sbu_0, # of connection points: 4
#     Node 10, Type 0, BuildingBlock: GALJAG_clean_sbu_0, # of connection points: 4
#     Node 11, Type 0, BuildingBlock: GALJAG_clean_sbu_0, # of connection points: 4
#     Edge 12, Type (0, 0), BuildingBlock: UVAHIK_clean_linker_0, # of connection points: 2
#     Edge 13, Type (0, 0), BuildingBlock: UVAHIK_clean_linker_0, # of connection points: 2
#     Edge 14, Type (0, 0), BuildingBlock: UVAHIK_clean_linker_0, # of connection points: 2
#     Edge 15, Type (0, 0), BuildingBlock: UVAHIK_clean_linker_0, # of connection points: 2
#     Edge 16, Type (0, 0), BuildingBlock: UVAHIK_clean_linker_0, # of connection points: 2
#     Edge 17, Type (0, 0), BuildingBlock: UVAHIK_clean_linker_0, # of connection points: 2
#     Edge 18, Type (0, 0), BuildingBlock: UVAHIK_clean_linker_0, # of connection points: 2
#     Edge 19, Type (0, 0), BuildingBlock: UVAHIK_clean_linker_0, # of connection points: 2
#     Edge 20, Type (0, 0), BuildingBlock: UVAHIK_clean_linker_0, # of connection points: 2
#     Edge 21, Type (0, 0), BuildingBlock: UVAHIK_clean_linker_0, # of connection points: 2
#     Edge 22, Type (0, 0), BuildingBlock: UVAHIK_clean_linker_0, # of connection points: 2
#     Edge 23, Type (0, 0), BuildingBlock: UVAHIK_clean_linker_0, # of connection points: 2
#     Edge 24, Type (0, 0), BuildingBlock: UVAHIK_clean_linker_0, # of connection points: 2
#     Edge 25, Type (0, 0), BuildingBlock: UVAHIK_clean_linker_0, # of connection points: 2
#     Edge 26, Type (0, 0), BuildingBlock: UVAHIK_clean_linker_0, # of connection points: 2
#     Edge 27, Type (0, 0), BuildingBlock: UVAHIK_clean_linker_0, # of connection points: 2
#     Edge 28, Type (0, 0), BuildingBlock: UVAHIK_clean_linker_0, # of connection points: 2
#     Edge 29, Type (0, 0), BuildingBlock: UVAHIK_clean_linker_0, # of connection points: 2
#     Edge 30, Type (0, 0), BuildingBlock: UVAHIK_clean_linker_0, # of connection points: 2
#     Edge 31, Type (0, 0), BuildingBlock: UVAHIK_clean_linker_0, # of connection points: 2
#     Edge 32, Type (0, 0), BuildingBlock: UVAHIK_clean_linker_0, # of connection points: 2
#     Edge 33, Type (0, 0), BuildingBlock: UVAHIK_clean_linker_0, # of connection points: 2
#     Edge 34, Type (0, 0), BuildingBlock: UVAHIK_clean_linker_0, # of connection points: 2
#     Edge 35, Type (0, 0), BuildingBlock: UVAHIK_clean_linker_0, # of connection points: 2
# Relax obj value: 0.086
# Max RMSD: 0.104
# Mean RMSD: 0.104
data_MOF--net-wjf--node1-GALJAG_clean_sbu_0--edge1-UVAHIK_clean_linker_0
_symmetry_space_group_name_H-M    P1
_symmetry_Int_Tables_number       1
_symmetry_cell_setting            triclinic
loop_
_symmetry_equiv_pos_as_xyz
'x, y, z'
_cell_length_a     64.192822
_cell_length_b     64.133716
_cell_length_c     36.778539
_cell_angle_alpha  90.039756
_cell_angle_beta   90.013229
_cell_angle_gamma 120.03465
loop_
_atom_site_label
_atom_site_type_symbol
_atom_site_fract_x
_atom_site_fract_y
_atom_site_fract_z
_atom_type_partial_charge
In0 In 0.32146 0.37296 0.08007 0.0
O1 O 0.30443 0.39644 0.07371 0.0
O2 O 0.28246 0.3585 0.06549 0.0
C3 C 0.36739 0.40723 0.09338 0.0
C4 C 0.32316 0.35868 0.01197 0.0
C5 C 0.30751 0.3482 0.14291 0.0
O6 O 0.3504 0.41176 0.09249 0.0
O7 O 0.36114 0.38548 0.08795 0.0
O8 O 0.3151 0.34133 0.11642 0.0
O9 O 0.30691 0.36729 0.1375 0.0
C10 C 0.28406 0.37896 0.06496 0.0
O11 O 0.32017 0.34526 0.03897 0.0
O12 O 0.32604 0.37909 0.01966 0.0
In13 In 0.94897 0.32668 0.41151 0.0
O14 O 0.97499 0.32305 0.37229 0.0
O15 O 0.94188 0.31764 0.35153 0.0
C16 C 0.96949 0.32075 0.47197 0.0
C17 C 0.90145 0.2953 0.41642 0.0
C18 C 0.96055 0.37316 0.41412 0.0
O19 O 0.95652 0.30349 0.45102 0.0
O20 O 0.97243 0.34082 0.46207 0.0
O21 O 0.94217 0.3567 0.42996 0.0
O22 O 0.97284 0.36607 0.39678 0.0
C23 C 0.96136 0.31817 0.34507 0.0
O24 O 0.90961 0.3167 0.40577 0.0
O25 O 0.91725 0.29021 0.42599 0.0
In26 In 0.61787 0.94962 0.74966 0.0
O27 O 0.59298 0.90908 0.74594 0.0
O28 O 0.63054 0.92249 0.75332 0.0
C29 C 0.58401 0.96275 0.74979 0.0
C30 C 0.6368 0.9627 0.68241 0.0
C31 C 0.63868 0.9639 0.81553 0.0
O32 O 0.57892 0.94111 0.75285 0.0
O33 O 0.60615 0.97771 0.74646 0.0
O34 O 0.6507 0.97143 0.78648 0.0
O35 O 0.61652 0.94953 0.81104 0.0
C36 C 0.60982 0.90438 0.749 0.0
O37 O 0.64561 0.97675 0.7093 0.0
O38 O 0.61873 0.94258 0.68959 0.0
In39 In 0.66512 0.61917 0.08642 0.0
O40 O 0.66757 0.64644 0.04363 0.0
O41 O 0.66796 0.61507 0.02587 0.0
C42 C 0.67526 0.64385 0.1493 0.0
C43 C 0.70256 0.61176 0.08326 0.0
C44 C 0.61807 0.58609 0.09359 0.0
O45 O 0.67349 0.65273 0.11958 0.0
O46 O 0.67178 0.62273 0.14709 0.0
O47 O 0.63443 0.58075 0.09614 0.0
O48 O 0.62545 0.60801 0.08741 0.0
C49 C 0.669 0.63456 0.01728 0.0
O50 O 0.68105 0.59454 0.08358 0.0
O51 O 0.70502 0.63255 0.08547 0.0
In52 In 0.03785 0.66805 0.41956 0.0
O53 O 0.07246 0.67706 0.38939 0.0
O54 O 0.07116 0.705 0.41873 0.0
C55 C 0.02975 0.6233 0.43309 0.0
C56 C 0.01327 0.66806 0.35971 0.0
C57 C 0.02969 0.68188 0.48461 0.0
O58 O 0.04963 0.63991 0.42123 0.0
O59 O 0.01421 0.62945 0.43897 0.0
O60 O 0.01479 0.67575 0.45877 0.0
O61 O 0.04838 0.68087 0.47756 0.0
C62 C 0.08321 0.69895 0.3987 0.0
O63 O 0.02769 0.68715 0.37613 0.0
O64 O 0.01045 0.64915 0.37449 0.0
In65 In 0.36811 0.04377 0.75434 0.0
O66 O 0.34024 0.01424 0.71685 0.0
O67 O 0.36885 0.04583 0.69301 0.0
C68 C 0.34653 0.03297 0.81992 0.0
C69 C 0.37342 0.08737 0.74256 0.0
C70 C 0.40298 0.03216 0.76015 0.0
O71 O 0.33608 0.02117 0.79163 0.0
O72 O 0.36767 0.05009 0.81497 0.0
O73 O 0.40754 0.05371 0.75937 0.0
O74 O 0.38094 0.01663 0.75847 0.0
C75 C 0.35012 0.02577 0.68811 0.0
O76 O 0.39123 0.08426 0.74681 0.0
O77 O 0.35305 0.0686 0.74573 0.0
In78 In 0.62351 0.66904 0.57592 0.0
O79 O 0.59967 0.68535 0.58565 0.0
O80 O 0.63756 0.70762 0.59331 0.0
C81 C 0.58882 0.62355 0.56062 0.0
C82 C 0.63904 0.66579 0.64247 0.0
C83 C 0.64772 0.68375 0.51259 0.0
O84 O 0.58471 0.64081 0.5623 0.0
O85 O 0.6104 0.62929 0.56633 0.0
O86 O 0.65411 0.67477 0.53778 0.0
O87 O 0.62943 0.68548 0.51959 0.0
C88 C 0.61698 0.70564 0.59509 0.0
O89 O 0.65254 0.67122 0.6149 0.0
O90 O 0.61792 0.66131 0.63601 0.0
In91 In 0.95167 0.6262 0.91079 0.0
O92 O 0.91107 0.60249 0.91725 0.0
O93 O 0.92698 0.64004 0.928 0.0
C94 C 0.96133 0.59103 0.89433 0.0
C95 C 0.96911 0.63858 0.97875 0.0
C96 C 0.96562 0.65268 0.84952 0.0
O97 O 0.94012 0.58743 0.89564 0.0
O98 O 0.9776 0.61246 0.90049 0.0
O99 O 0.97927 0.6578 0.87682 0.0
O100 O 0.94501 0.63445 0.8534 0.0
C101 C 0.90814 0.61962 0.92767 0.0
O102 O 0.97408 0.65425 0.95435 0.0
O103 O 0.95622 0.61711 0.96834 0.0
In104 In 0.32505 0.9466 0.24453 0.0
O105 O 0.30782 0.90573 0.24348 0.0
O106 O 0.28632 0.92107 0.25909 0.0
C107 C 0.3713 0.95935 0.23162 0.0
C108 C 0.32578 0.96002 0.31409 0.0
C109 C 0.31227 0.96057 0.18343 0.0
O110 O 0.35468 0.93763 0.2324 0.0
O111 O 0.36451 0.97444 0.23699 0.0
O112 O 0.32069 0.97421 0.21078 0.0
O113 O 0.3102 0.94009 0.18713 0.0
C114 C 0.28765 0.90224 0.2545 0.0
O115 O 0.32108 0.96999 0.28821 0.0
O116 O 0.33074 0.94412 0.30462 0.0
In117 In 0.37131 0.32822 0.56813 0.0
O118 O 0.39447 0.31073 0.57377 0.0
O119 O 0.35629 0.28821 0.5748 0.0
C120 C 0.40532 0.37464 0.55751 0.0
C121 C 0.35633 0.32812 0.63651 0.0
C122 C 0.34666 0.317 0.50519 0.0
O123 O 0.41006 0.35777 0.55694 0.0
O124 O 0.38354 0.36804 0.56331 0.0
O125 O 0.3384 0.32058 0.53421 0.0
O126 O 0.36721 0.31909 0.50808 0.0
C127 C 0.37663 0.2897 0.57714 0.0
O128 O 0.34377 0.32684 0.60922 0.0
O129 O 0.37635 0.32998 0.62911 0.0
In130 In 0.03797 0.37249 0.90709 0.0
O131 O 0.01033 0.34313 0.94532 0.0
O132 O 0.04349 0.3705 0.96722 0.0
C133 C 0.02729 0.35354 0.8397 0.0
C134 C 0.08358 0.38199 0.91067 0.0
C135 C 0.02398 0.40572 0.90601 0.0
O136 O 0.01807 0.34065 0.86761 0.0
O137 O 0.04131 0.37556 0.8461 0.0
O138 O 0.04578 0.41119 0.9057 0.0
O139 O 0.00915 0.38341 0.90733 0.0
C140 C 0.02369 0.35168 0.97297 0.0
O141 O 0.07806 0.39826 0.91401 0.0
O142 O 0.06609 0.3611 0.90472 0.0
In143 In 0.66937 0.04797 0.24383 0.0
O144 O 0.68449 0.08823 0.25183 0.0
O145 O 0.70813 0.07422 0.25878 0.0
C146 C 0.6226 0.03388 0.23311 0.0
C147 C 0.66802 0.02976 0.31025 0.0
C148 C 0.6826 0.03918 0.17857 0.0
O149 O 0.6388 0.05574 0.23476 0.0
O150 O 0.63 0.01912 0.23672 0.0
O151 O 0.68053 0.02668 0.20631 0.0
O152 O 0.67836 0.0561 0.18409 0.0
C153 C 0.70526 0.0923 0.26036 0.0
O154 O 0.67184 0.02091 0.282 0.0
O155 O 0.66427 0.04699 0.30458 0.0
C156 C 0.31112 0.32165 0.1891 0.0
C157 C 0.30157 0.33618 0.17857 0.0
C158 C 0.30858 0.31344 0.22493 0.0
C159 C 0.29967 0.3313 0.31632 0.0
H160 H 0.30184 0.27435 0.34555 0.0
C161 C 0.31424 0.31542 0.46551 0.0
C162 C 0.334 0.31192 0.47004 0.0
C163 C 0.30401 0.3131 0.43111 0.0
C164 C 0.30106 0.29023 0.33774 0.0
H165 H 0.28012 0.35182 0.19598 0.0
H166 H 0.27477 0.3367 0.25799 0.0
H167 H 0.29429 0.2794 0.28191 0.0
H168 H 0.35766 0.30189 0.44282 0.0
H169 H 0.33977 0.29775 0.38291 0.0
H170 H 0.3069 0.34233 0.37193 0.0
C171 C 0.28504 0.33237 0.23919 0.0
C172 C 0.29687 0.2932 0.30131 0.0
C173 C 0.28797 0.34092 0.20362 0.0
C174 C 0.34252 0.30483 0.44005 0.0
C175 C 0.33215 0.30225 0.40582 0.0
C176 C 0.30357 0.32818 0.3527 0.0
C177 C 0.2961 0.31932 0.25071 0.0
C178 C 0.29682 0.31413 0.28997 0.0
C179 C 0.31319 0.30695 0.40083 0.0
C180 C 0.30499 0.30797 0.36359 0.0
H181 H 0.32172 0.31778 0.17027 0.0
H182 H 0.31755 0.30366 0.23278 0.0
H183 H 0.30021 0.34786 0.30868 0.0
H184 H 0.30726 0.32083 0.48822 0.0
H185 H 0.28932 0.3167 0.428 0.0
C186 C -0.00294 0.33796 0.52491 0.0
C187 C 0.97896 0.3177 0.50684 0.0
C188 C 0.00423 0.33584 0.55982 0.0
C189 C 0.98005 0.30167 0.642 0.0
H190 H 0.04636 0.33835 0.67432 0.0
C191 C 0.00625 0.31967 0.79475 0.0
C192 C 0.02264 0.34402 0.80222 0.0
C193 C 0.00199 0.31127 0.75879 0.0
C194 C 0.02775 0.32794 0.66573 0.0
H195 H 0.95466 0.27916 0.51044 0.0
H196 H 0.96695 0.27554 0.57224 0.0
H197 H 0.03742 0.33275 0.6094 0.0
H198 H 0.0476 0.37855 0.77811 0.0
H199 H 0.04004 0.3641 0.71597 0.0
H200 H 0.9703 0.29811 0.69829 0.0
C201 C 0.97565 0.29299 0.55911 0.0
C202 C 0.02267 0.32468 0.62862 0.0
C203 C 0.96873 0.29506 0.5238 0.0
C204 C 0.03487 0.35967 0.77328 0.0
C205 C 0.03072 0.35132 0.73761 0.0
C206 C 0.98514 0.30507 0.67923 0.0
C207 C 0.99324 0.31346 0.57759 0.0
C208 C -0.00125 0.31232 0.61638 0.0
C209 C 0.01422 0.32707 0.72985 0.0
C210 C 0.009 0.3191 0.69138 0.0
H211 H 0.00524 0.35562 0.51245 0.0
H212 H 0.0176 0.35198 0.57358 0.0
H213 H 0.96143 0.29217 0.63328 0.0
H214 H -0.00338 0.30721 0.81659 0.0
H215 H 0.98918 0.29248 0.75361 0.0
C216 C 0.63452 0.96174 0.88288 0.0
C217 C 0.64934 0.97112 0.85218 0.0
C218 C 0.64403 0.96868 0.91772 0.0
C219 C 0.69381 0.01801 0.96728 0.0
H220 H 0.66652 0.97277 0.04713 0.0
C221 C 0.69056 0.01349 0.13577 0.0
C222 C 0.68759 0.03347 0.14181 0.0
C223 C 0.69239 0.00663 0.1003 0.0
C224 C 0.6748 0.98563 0.02525 0.0
H225 H 0.68586 0.99483 0.83383 0.0
H226 H 0.70264 0.00699 0.89516 0.0
H227 H 0.65752 0.95819 0.98493 0.0
H228 H 0.68549 0.06268 0.11572 0.0
H229 H 0.68809 0.0505 0.05423 0.0
H230 H 0.71097 0.04549 0.00768 0.0
C231 C 0.68358 0.99437 0.89211 0.0
C232 C 0.66935 0.97728 0.98952 0.0
C233 C 0.67401 0.98738 0.85705 0.0
C234 C 0.6877 0.04714 0.11194 0.0
C235 C 0.68942 0.04026 0.0766 0.0
C236 C 0.69941 0.02636 0.00307 0.0
C237 C 0.66863 0.98514 0.92284 0.0
C238 C 0.67801 0.99347 0.96016 0.0
C239 C 0.69121 0.01959 0.07025 0.0
C240 C 0.68923 0.01038 0.03251 0.0
H241 H 0.61542 0.94921 0.88004 0.0
H242 H 0.63187 0.9616 0.94067 0.0
H243 H 0.70081 0.03098 0.94532 0.0
H244 H 0.6907 0.00271 0.15833 0.0
H245 H 0.69411 0.99082 0.09641 0.0
C246 C 0.687 0.64795 0.21452 0.0
C247 C 0.68027 0.65665 0.18434 0.0
C248 C 0.68987 0.6586 0.24859 0.0
C249 C 0.66544 0.68839 0.30188 0.0
H250 H 0.71472 0.69731 0.37133 0.0
C251 C 0.65433 0.70362 0.45212 0.0
C252 C 0.65922 0.68979 0.4765 0.0
C253 C 0.66241 0.70664 0.41624 0.0
C254 C 0.70078 0.69484 0.35232 0.0
H255 H 0.67213 0.68383 0.16569 0.0
H256 H 0.67664 0.70221 0.2258 0.0
H257 H 0.719 0.68956 0.30751 0.0
H258 H 0.67741 0.66929 0.48321 0.0
H259 H 0.69076 0.67369 0.42031 0.0
H260 H 0.64635 0.69202 0.34657 0.0
C261 C 0.67982 0.68723 0.22287 0.0
C262 C 0.70333 0.69055 0.31578 0.0
C263 C 0.67728 0.67676 0.18856 0.0
C264 C 0.67342 0.68007 0.46495 0.0
C265 C 0.6812 0.68276 0.42888 0.0
C266 C 0.66274 0.69239 0.33843 0.0
C267 C 0.68579 0.67799 0.25328 0.0
C268 C 0.68536 0.68666 0.29042 0.0
C269 C 0.67521 0.69552 0.40379 0.0
C270 C 0.68006 0.69503 0.36432 0.0
H271 H 0.68956 0.63254 0.21198 0.0
H272 H 0.69419 0.65091 0.2716 0.0
H273 H 0.65116 0.68516 0.28301 0.0
H274 H 0.64366 0.71158 0.4605 0.0
H275 H 0.65798 0.71708 0.39797 0.0
C276 C -0.00197 0.68256 0.80886 0.0
C277 C 0.97366 0.6656 0.81463 0.0
C278 C 0.00611 0.69216 0.77422 0.0
C279 C 0.98655 0.69785 0.68158 0.0
H280 H 0.03887 0.68823 0.6507 0.0
C281 C 0.00193 0.68181 0.53232 0.0
C282 C 0.02532 0.68853 0.52097 0.0
C283 C -0.00239 0.68549 0.56836 0.0
C284 C 0.02465 0.69166 0.65884 0.0
H285 H 0.93838 0.64665 0.78952 0.0
H286 H 0.95248 0.66333 0.72912 0.0
H287 H 0.02788 0.68403 0.71438 0.0
H288 H 0.06278 0.70607 0.53723 0.0
H289 H 0.05543 0.7133 0.59964 0.0
H290 H 0.98297 0.70491 0.6257 0.0
C291 C 0.96534 0.66929 0.75125 0.0
C292 C 0.01833 0.68921 0.69548 0.0
C293 C 0.95729 0.65959 0.78578 0.0
C294 C 0.0445 0.70037 0.54549 0.0
C295 C 0.04026 0.7044 0.58129 0.0
C296 C 0.99301 0.70051 0.64484 0.0
C297 C 0.98993 0.68509 0.74487 0.0
C298 C -0.00116 0.69166 0.70711 0.0
C299 C 0.01667 0.69627 0.59352 0.0
C300 C 0.01175 0.69683 0.63291 0.0
H301 H 0.01102 0.68761 0.83068 0.0
H302 H 0.02514 0.70449 0.77011 0.0
H303 H 0.97159 0.70005 0.6899 0.0
H304 H 0.98683 0.67265 0.51388 0.0
H305 H 0.97918 0.67877 0.57685 0.0
C306 C 0.29172 0.95104 0.12334 0.0
C307 C 0.30702 0.96833 0.14863 0.0
C308 C 0.28924 0.95793 0.08836 0.0
C309 C 0.30595 0.01138 0.02869 0.0
H310 H 0.30759 0.96911 0.95468 0.0
C311 C 0.34696 0.04201 0.88598 0.0
C312 C 0.33555 0.02658 0.85639 0.0
C313 C 0.33801 0.03507 0.92116 0.0
C314 C 0.30666 0.98091 0.97492 0.0
H315 H 0.33083 0.00643 0.15807 0.0
H316 H 0.32745 0.01848 0.0965 0.0
H317 H 0.30176 0.95654 0.01774 0.0
H318 H 0.30522 0.9923 0.84006 0.0
H319 H 0.28973 0.97996 0.90182 0.0
H320 H 0.31239 0.03634 0.98546 0.0
C321 C 0.31679 -0.00035 0.10374 0.0
C322 C 0.30324 0.97369 0.01121 0.0
C323 C 0.31887 0.99276 0.13902 0.0
C324 C 0.31442 0.0045 0.86241 0.0
C325 C 0.3056 -0.00257 0.89769 0.0
C326 C 0.30969 0.01873 0.99232 0.0
C327 C 0.30248 0.98222 0.07763 0.0
C328 C 0.30326 0.98898 0.03871 0.0
C329 C 0.3176 0.01246 0.92747 0.0
C330 C 0.31049 0.00371 0.9652 0.0
H331 H 0.28211 0.93209 0.1303 0.0
H332 H 0.27751 0.94408 0.06939 0.0
H333 H 0.30565 0.02345 0.04901 0.0
H334 H 0.36322 0.05921 0.8821 0.0
H335 H 0.34776 0.04691 0.94362 0.0
C336 C 0.11278 0.36733 0.91519 0.0
C337 C 0.10808 0.38643 0.91742 0.0
C338 C 0.13487 0.37045 0.92657 0.0
C339 C 0.18339 0.40679 0.99036 0.0
H340 H 0.21239 0.37227 0.94699 0.0
C341 C 0.26711 0.40542 0.04884 0.0
C342 C 0.26454 0.38236 0.05063 0.0
C343 C 0.2498 0.40885 0.03104 0.0
C344 C 0.20445 0.38199 0.95937 0.0
H345 H 0.12319 0.42415 0.93128 0.0
H346 H 0.16204 0.42971 0.95087 0.0
H347 H 0.18011 0.37417 0.91501 0.0
H348 H 0.24157 0.34473 0.03641 0.0
H349 H 0.21147 0.35074 0.00547 0.0
H350 H 0.20763 0.41427 0.03499 0.0
C351 C 0.14848 0.41223 0.94084 0.0
C352 C 0.18601 0.38309 0.9411 0.0
C353 C 0.12632 0.40909 0.92941 0.0
C354 C 0.24405 0.36271 0.03544 0.0
C355 C 0.22694 0.36617 0.01743 0.0
C356 C 0.202 0.40582 0.00854 0.0
C357 C 0.15275 0.39277 0.94035 0.0
C358 C 0.17479 0.3949 0.95687 0.0
C359 C 0.22987 0.38931 0.01448 0.0
C360 C 0.21218 0.39281 0.99365 0.0
H361 H 0.09905 0.34966 0.90605 0.0
H362 H 0.13745 0.35501 0.92624 0.0
H363 H 0.17495 0.41582 0.00343 0.0
H364 H 0.28278 0.42089 0.06029 0.0
H365 H 0.2524 0.42686 0.02917 0.0
C366 C 0.86878 0.25252 0.4202 0.0
C367 C 0.87598 0.27658 0.41219 0.0
C368 C 0.84629 0.23401 0.40917 0.0
C369 C 0.80225 0.22187 0.33697 0.0
H370 H 0.76878 0.15955 0.3843 0.0
C371 C 0.72065 0.13568 0.27534 0.0
C372 C 0.72373 0.11548 0.27577 0.0
C373 C 0.73684 0.15673 0.2938 0.0
C374 C 0.77793 0.17691 0.37088 0.0
H375 H 0.86456 0.30038 0.38924 0.0
H376 H 0.82488 0.26798 0.37068 0.0
H377 H 0.79964 0.19425 0.41752 0.0
H378 H 0.74634 0.10155 0.29505 0.0
H379 H 0.77438 0.13816 0.32749 0.0
H380 H 0.7805 0.20424 0.29021 0.0
C381 C 0.83689 0.26338 0.38465 0.0
C382 C 0.7956 0.19675 0.38982 0.0
C383 C 0.85952 0.28195 0.39555 0.0
C384 C 0.74355 0.11686 0.29415 0.0
C385 C 0.75946 0.1377 0.313 0.0
C386 C 0.78431 0.20204 0.31819 0.0
C387 C 0.83039 0.23916 0.39012 0.0
C388 C 0.80858 0.21929 0.37267 0.0
C389 C 0.75605 0.15767 0.31343 0.0
C390 C 0.7726 0.17927 0.33463 0.0
H391 H 0.88107 0.24783 0.43305 0.0
H392 H 0.84208 0.21562 0.41357 0.0
H393 H 0.81204 0.23885 0.32272 0.0
H394 H 0.70547 0.13505 0.26142 0.0
H395 H 0.73394 0.17199 0.29368 0.0
C396 C 0.62583 0.87622 0.74511 0.0
C397 C 0.60614 0.88002 0.74335 0.0
C398 C 0.62337 0.85426 0.73431 0.0
C399 C 0.58724 0.80441 0.67237 0.0
H400 H 0.62422 0.77778 0.7147 0.0
C401 C 0.59018 0.72177 0.61334 0.0
C402 C 0.61334 0.7247 0.61082 0.0
C403 C 0.58658 0.73881 0.63169 0.0
C404 C 0.61383 0.78507 0.70258 0.0
H405 H 0.56808 0.86341 0.73108 0.0
H406 H 0.56368 0.8248 0.71254 0.0
H407 H 0.62173 0.80989 0.74636 0.0
H408 H 0.65095 0.74798 0.62463 0.0
H409 H 0.64468 0.77768 0.65646 0.0
H410 H 0.57971 0.77977 0.62828 0.0
C411 C 0.58111 0.83897 0.72173 0.0
C412 C 0.61238 0.80341 0.72069 0.0
C413 C 0.58359 0.86099 0.73257 0.0
C414 C 0.63289 0.74523 0.62613 0.0
C415 C 0.62928 0.76211 0.64467 0.0
C416 C 0.58858 0.78595 0.65434 0.0
C417 C 0.60114 0.83561 0.72159 0.0
C418 C 0.59961 0.81373 0.70532 0.0
C419 C 0.60607 0.7589 0.64808 0.0
C420 C 0.60243 0.77658 0.66883 0.0
H421 H 0.64344 0.89057 0.75333 0.0
H422 H 0.63922 0.85239 0.73417 0.0
H423 H 0.57749 0.81217 0.65957 0.0
H424 H 0.57477 0.70606 0.60184 0.0
H425 H 0.56851 0.73594 0.63394 0.0
C426 C 0.74662 0.62809 0.07697 0.0
C427 C 0.72319 0.60821 0.07661 0.0
C428 C 0.76598 0.62563 0.06562 0.0
C429 C 0.77921 0.5891 0.00425 0.0
H430 H 0.8431 0.62649 0.04565 0.0
C431 C 0.86496 0.59262 0.94457 0.0
C432 C 0.88518 0.61585 0.94241 0.0
C433 C 0.8442 0.5889 0.96262 0.0
C434 C 0.82535 0.61599 0.03378 0.0
H435 H 0.7017 0.56988 0.06595 0.0
H436 H 0.73571 0.56553 0.04621 0.0
H437 H 0.80869 0.62397 0.07777 0.0
H438 H 0.89929 0.65347 0.95613 0.0
H439 H 0.86311 0.64698 0.98735 0.0
H440 H 0.79607 0.58155 0.95987 0.0
C441 C 0.73901 0.58307 0.05492 0.0
C442 C 0.80568 0.61451 0.05217 0.0
C443 C 0.7196 0.58553 0.06643 0.0
C444 C 0.88401 0.63536 0.95746 0.0
C445 C 0.86339 0.63162 0.97562 0.0
C446 C 0.79893 0.5905 0.98589 0.0
C447 C 0.76231 0.60322 0.05363 0.0
C448 C 0.7825 0.60162 0.03712 0.0
C449 C 0.84347 0.60832 0.97899 0.0
C450 C 0.82224 0.60453 3e-05 0.0
H451 H 0.74991 0.6458 0.0847 0.0
H452 H 0.78365 0.64157 0.06456 0.0
H453 H 0.76159 0.57922 0.99177 0.0
H454 H 0.86541 0.57726 0.93324 0.0
H455 H 0.82904 0.57076 0.96481 0.0
C456 C 0.11975 0.70994 0.36087 0.0
C457 C 0.10752 0.71656 0.38586 0.0
C458 C 0.1421 0.72727 0.34701 0.0
C459 C 0.19215 0.7896 0.36331 0.0
H460 H 0.20086 0.79166 0.25871 0.0
C461 C 0.24877 0.87666 0.28591 0.0
C462 C 0.26786 0.87833 0.26508 0.0
C463 C 0.2313 0.85457 0.29977 0.0
C464 C 0.1988 0.79102 0.28799 0.0
H465 H 0.10921 0.74624 0.41659 0.0
H466 H 0.14778 0.77635 0.39224 0.0
H467 H 0.16657 0.75658 0.2866 0.0
H468 H 0.28315 0.8581 0.24101 0.0
H469 H 0.25181 0.81895 0.26463 0.0
H470 H 0.2235 0.82467 0.36436 0.0
C471 C 0.14047 0.75782 0.38366 0.0
C472 C 0.17928 0.77098 0.30399 0.0
C473 C 0.11824 0.74058 0.39743 0.0
C474 C 0.2686 0.85727 0.25705 0.0
C475 C 0.25078 0.83497 0.27048 0.0
C476 C 0.2114 0.80966 0.3473 0.0
C477 C 0.15258 0.75145 0.35806 0.0
C478 C 0.17533 0.77046 0.34172 0.0
C479 C 0.23236 0.83365 0.29262 0.0
C480 C 0.21444 0.81081 0.30947 0.0
H481 H 0.11187 0.6915 0.35152 0.0
H482 H 0.15108 0.72179 0.3275 0.0
H483 H 0.18994 0.78948 0.39252 0.0
H484 H 0.24773 0.89257 0.2926 0.0
H485 H 0.21705 0.85384 0.31649 0.0
C486 C 0.39893 0.13024 0.72295 0.0
C487 C 0.37604 0.11032 0.72973 0.0
C488 C 0.4012 0.15065 0.70555 0.0
C489 C 0.36839 0.16715 0.64162 0.0
H490 H 0.41079 0.23284 0.67329 0.0
C491 C 0.35846 0.24616 0.59159 0.0
C492 C 0.37911 0.26881 0.58704 0.0
C493 C 0.36029 0.22694 0.60552 0.0
C494 C 0.39922 0.21462 0.66369 0.0
H495 H 0.33762 0.09655 0.72543 0.0
H496 H 0.3416 0.13215 0.69522 0.0
H497 H 0.40972 0.19952 0.70713 0.0
H498 H 0.41799 0.28894 0.5919 0.0
H499 H 0.42124 0.25511 0.6159 0.0
H500 H 0.35777 0.18204 0.59833 0.0
C501 C 0.35776 0.13187 0.70287 0.0
C502 C 0.39853 0.19558 0.68318 0.0
C503 C 0.3555 0.11159 0.72043 0.0
C504 C 0.40177 0.27164 0.59519 0.0
C505 C 0.40361 0.25236 0.60918 0.0
C506 C 0.36918 0.18612 0.62204 0.0
C507 C 0.3806 0.15132 0.69445 0.0
C508 C 0.3827 0.17168 0.67275 0.0
C509 C 0.38282 0.22993 0.61513 0.0
C510 C 0.38421 0.21004 0.6333 0.0
H511 H 0.41507 0.12972 0.72983 0.0
H512 H 0.41901 0.16544 0.69937 0.0
H513 H 0.35643 0.14887 0.63252 0.0
H514 H 0.34075 0.24345 0.5856 0.0
H515 H 0.34389 0.21 0.61019 0.0
C516 C 0.33033 0.33262 0.68296 0.0
C517 C 0.34841 0.32721 0.67434 0.0
C518 C 0.32401 0.33297 0.71926 0.0
C519 C 0.32488 0.31105 0.81066 0.0
H520 H 0.33257 0.37185 0.84391 0.0
C521 C 0.33009 0.33531 0.96351 0.0
C522 C 0.32204 0.3511 0.97395 0.0
C523 C 0.33052 0.32997 0.92666 0.0
C524 C 0.32974 0.3545 0.83516 0.0
H525 H 0.37329 0.31689 0.69642 0.0
H526 H 0.36185 0.31703 0.75968 0.0
H527 H 0.3369 0.36606 0.77971 0.0
H528 H 0.30655 0.37235 0.95497 0.0
H529 H 0.30595 0.36206 0.89136 0.0
H530 H 0.31735 0.29926 0.86595 0.0
C531 C 0.35275 0.32118 0.7385 0.0
C532 C 0.33235 0.35129 0.7983 0.0
C533 C 0.3594 0.3213 0.70238 0.0
C534 C 0.31331 0.36049 0.94744 0.0
C535 C 0.31314 0.3547 0.91091 0.0
C536 C 0.3218 0.31408 0.84756 0.0
C537 C 0.33529 0.32738 0.74729 0.0
C538 C 0.33023 0.32967 0.7858 0.0
C539 C 0.32237 0.33992 0.89982 0.0
C540 C 0.32445 0.33597 0.86037 0.0
H541 H 0.32158 0.3372 0.6618 0.0
H542 H 0.31046 0.33779 0.7255 0.0
H543 H 0.32313 0.29418 0.80152 0.0
H544 H 0.33689 0.32787 0.98361 0.0
H545 H 0.33797 0.3187 0.91924 0.0
C546 C 0.95066 0.30692 0.2801 0.0
C547 C 0.96789 0.31468 0.30803 0.0
C548 C 0.95711 0.30584 0.24422 0.0
C549 C 0.00908 0.33558 0.18488 0.0
H550 H 0.96832 0.28659 0.11515 0.0
C551 C 0.03544 0.34641 0.03503 0.0
C552 C 0.01713 0.34117 0.00966 0.0
C553 C 0.02984 0.33893 0.07102 0.0
C554 C 0.97981 0.30049 0.13425 0.0
H555 H 0.00511 0.32634 0.32071 0.0
H556 H 0.0165 0.32462 0.2577 0.0
H557 H 0.95793 0.28077 0.17976 0.0
H558 H 0.97859 0.32313 0.00139 0.0
H559 H 0.96865 0.31072 0.06495 0.0
H560 H 0.03038 0.35585 0.13975 0.0
C561 C -0.00199 0.31948 0.26365 0.0
C562 C 0.97393 0.29709 0.17123 0.0
C563 C 0.9915 0.32038 0.29966 0.0
C564 C 0.99302 0.32737 0.02052 0.0
C565 C 0.98738 0.32019 0.05686 0.0
C566 C 0.01485 0.33906 0.14802 0.0
C567 C 0.98097 0.31265 0.23548 0.0
C568 C 0.98837 0.31476 0.19685 0.0
C569 C 0.00579 0.32644 0.08273 0.0
C570 C 0.00019 0.32168 0.12214 0.0
H571 H 0.93228 0.30229 0.28578 0.0
H572 H 0.94364 0.30074 0.22312 0.0
H573 H 0.0203 0.34974 0.20384 0.0
H574 H 0.0542 0.3567 0.02719 0.0
H575 H 0.04447 0.34345 0.08988 0.0
C576 C 0.64061 0.9508 0.6195 0.0
C577 C 0.64604 0.96912 0.645 0.0
C578 C 0.64714 0.9564 0.58312 0.0
C579 C 0.68332 0.00747 0.51955 0.0
H580 H 0.63512 0.96531 0.44988 0.0
C581 C 0.67209 0.03694 0.37693 0.0
C582 C 0.66886 0.02166 0.34745 0.0
C583 C 0.67272 0.02969 0.41242 0.0
C584 C 0.64892 0.97703 0.46896 0.0
H585 H 0.66318 0.00767 0.65292 0.0
H586 H 0.67374 0.01757 0.589 0.0
H587 H 0.63 0.95451 0.51395 0.0
H588 H 0.66396 0.98691 0.33182 0.0
H589 H 0.66427 0.9738 0.39453 0.0
H590 H 0.70139 0.03063 0.47433 0.0
C591 C 0.66502 -0.00115 0.59712 0.0
C592 C 0.64608 0.97085 0.50575 0.0
C593 C 0.65887 0.99323 0.63376 0.0
C594 C 0.66644 -0.00101 0.35411 0.0
C595 C 0.6666 0.99152 0.38985 0.0
C596 C 0.68595 0.0138 0.48279 0.0
C597 C 0.65882 0.98045 0.57118 0.0
C598 C 0.66305 0.98615 0.53166 0.0
C599 C 0.66975 0.00685 0.41927 0.0
C600 C 0.66859 -0.00119 0.45728 0.0
H601 H 0.63099 0.93205 0.6276 0.0
H602 H 0.64264 0.94177 0.56425 0.0
H603 H 0.69701 0.01945 0.5385 0.0
H604 H 0.67416 0.05459 0.37259 0.0
H605 H 0.67488 0.04173 0.43462 0.0
C606 C 0.63503 0.6693 0.70897 0.0
C607 C 0.64731 0.66605 0.6799 0.0
C608 C 0.64238 0.66957 0.74468 0.0
C609 C 0.6677 0.6437 0.80263 0.0
H610 H 0.67816 0.69433 0.87061 0.0
C611 C 0.68256 0.63427 0.95414 0.0
C612 C 0.67179 0.6425 0.97917 0.0
C613 C 0.68407 0.64035 0.91746 0.0
C614 C 0.67504 0.6799 0.85213 0.0
H615 H 0.67696 0.66068 0.66515 0.0
H616 H 0.6893 0.66012 0.72836 0.0
H617 H 0.67252 0.69904 0.80609 0.0
H618 H 0.6546 0.6639 0.98594 0.0
H619 H 0.65597 0.67354 0.92148 0.0
H620 H 0.66845 0.62371 0.84835 0.0
C621 C 0.67424 0.66288 0.72313 0.0
C622 C 0.67207 0.68275 0.81518 0.0
C623 C 0.66721 0.66318 0.68716 0.0
C624 C 0.66305 0.65741 0.9671 0.0
C625 C 0.66403 0.66305 0.93016 0.0
C626 C 0.67019 0.64062 0.83963 0.0
C627 C 0.66186 0.66612 0.7521 0.0
C628 C 0.66807 0.66453 0.79025 0.0
C629 C 0.67428 0.65431 0.90474 0.0
C630 C 0.67356 0.65853 0.86501 0.0
H631 H 0.61974 0.67175 0.70411 0.0
H632 H 0.63242 0.67185 0.76662 0.0
H633 H 0.66429 0.62928 0.7839 0.0
H634 H 0.68978 0.62303 0.96293 0.0
H635 H 0.69272 0.63384 0.89907 0.0
C636 C 0.98869 0.64574 0.30599 0.0
C637 C 0.00389 0.66785 0.32304 0.0
C638 C 0.9841 0.64484 0.26883 0.0
C639 C 0.98746 0.67896 0.18688 0.0
H640 H 0.00073 0.63262 0.14003 0.0
C641 C 0.98797 0.66843 0.02969 0.0
C642 C 0.97606 0.64449 0.01723 0.0
C643 C 0.99268 0.67341 0.06685 0.0
C644 C -0.00324 0.64551 0.15265 0.0
H645 H 0.02457 0.70655 0.31535 0.0
H646 H 0.0164 0.70492 0.25003 0.0
H647 H 0.00371 0.63697 0.20575 0.0
H648 H 0.95992 0.60709 0.03365 0.0
H649 H 0.96781 0.61568 0.09791 0.0
H650 H 0.98002 0.6871 0.13352 0.0
C651 C 0.00814 0.68834 0.26552 0.0
C652 C -0.00156 0.64797 0.19029 0.0
C653 C 0.01279 0.68925 0.30285 0.0
C654 C 0.96928 0.62573 0.04236 0.0
C655 C 0.97392 0.63068 0.07925 0.0
C656 C 0.98556 0.67634 0.149 0.0
C657 C 0.99461 0.66602 0.24799 0.0
C658 C 0.9934 0.66438 0.20785 0.0
C659 C 0.98559 0.65453 0.09201 0.0
C660 C 0.98979 0.65926 0.13159 0.0
H661 H 0.98139 0.62898 0.32093 0.0
H662 H 0.97319 0.62744 0.25604 0.0
H663 H 0.98361 0.69183 0.19983 0.0
H664 H 0.9933 0.68322 0.01087 0.0
H665 H 0.00186 0.69199 0.07586 0.0
C666 C 0.32095 0.94814 0.37917 0.0
C667 C 0.32438 0.96533 0.35271 0.0
C668 C 0.31958 0.95272 0.41589 0.0
C669 C 0.31286 0.99457 0.47921 0.0
H670 H 0.34179 0.97055 0.54778 0.0
C671 C 0.34723 0.03317 0.62254 0.0
C672 C 0.34112 0.01674 0.6513 0.0
C673 C 0.34075 0.02501 0.58693 0.0
C674 C 0.33331 0.97704 0.52899 0.0
H675 H 0.32891 0.0007 0.34363 0.0
H676 H 0.32782 0.00938 0.40808 0.0
H677 H 0.34027 0.96074 0.48365 0.0
H678 H 0.32293 0.97895 0.6658 0.0
H679 H 0.31224 0.96454 0.60288 0.0
H680 H 0.30737 0.01213 0.52488 0.0
C681 C 0.3254 0.99199 0.40051 0.0
C682 C 0.33235 0.9714 0.49217 0.0
C683 C 0.32625 0.98716 0.36358 0.0
C684 C 0.32779 0.99194 0.64403 0.0
C685 C 0.32175 0.98374 0.60818 0.0
C686 C 0.31424 0.00059 0.51603 0.0
C687 C 0.32216 0.97485 0.4272 0.0
C688 C 0.32226 0.9802 0.46667 0.0
C689 C 0.32845 0.00025 0.57934 0.0
C690 C 0.32462 0.99199 0.54115 0.0
H691 H 0.31904 0.93096 0.37147 0.0
H692 H 0.31641 0.93878 0.43536 0.0
H693 H 0.30451 0.0013 0.46063 0.0
H694 H 0.3574 0.0524 0.6275 0.0
H695 H 0.34628 0.03807 0.56513 0.0
C696 C 0.3993 0.45041 0.10055 0.0
C697 C 0.39274 0.42601 0.09871 0.0
C698 C 0.42351 0.46823 0.1033 0.0
C699 C 0.48369 0.47847 0.12779 0.0
H700 H 0.50641 0.5332 0.06286 0.0
C701 C 0.58465 0.54358 0.10102 0.0
C702 C 0.59228 0.56815 0.09717 0.0
C703 C 0.56016 0.5266 0.10355 0.0
C704 C 0.50032 0.51823 0.08157 0.0
H705 H 0.40622 0.40102 0.09923 0.0
H706 H 0.44845 0.43211 0.10398 0.0
H707 H 0.46378 0.50307 0.06409 0.0
H708 H 0.58038 0.59432 0.09362 0.0
H709 H 0.53769 0.56478 0.09863 0.0
H710 H 0.52025 0.49359 0.1452 0.0
C711 C 0.43492 0.43749 0.10352 0.0
C712 C 0.47589 0.50097 0.08225 0.0
C713 C 0.41075 0.4197 0.1006 0.0
C714 C 0.57501 0.57547 0.09636 0.0
C715 C 0.55055 0.55853 0.09903 0.0
C716 C 0.50813 0.4958 0.12722 0.0
C717 C 0.44158 0.46195 0.10445 0.0
C718 C 0.46734 0.48083 0.10518 0.0
C719 C 0.54282 0.53388 0.10241 0.0
C720 C 0.51675 0.5158 0.10393 0.0
H721 H 0.38578 0.45578 0.09924 0.0
H722 H 0.4281 0.48693 0.10437 0.0
H723 H 0.47755 0.46327 0.14604 0.0
H724 H 0.59758 0.53742 0.10164 0.0
H725 H 0.55481 0.50773 0.10565 0.0
C726 C 0.04097 0.59149 0.42473 0.0
C727 C 0.02436 0.59816 0.43673 0.0
C728 C 0.03488 0.56731 0.42463 0.0
C729 C 0.9926 0.50752 0.46248 0.0
H730 H 0.00608 0.48393 0.37355 0.0
C731 C 0.95278 0.40596 0.43414 0.0
C732 C 0.96774 0.39886 0.41686 0.0
C733 C 0.95997 0.43037 0.43743 0.0
C734 C 0.00246 0.49025 0.39879 0.0
H735 H 0.98872 0.58495 0.45931 0.0
H736 H 0.97812 0.5427 0.45927 0.0
H737 H 0.01895 0.52651 0.37939 0.0
H738 H 0.00197 0.41164 0.38966 0.0
H739 H 0.01473 0.45417 0.39599 0.0
H740 H 0.97621 0.47128 0.48199 0.0
C741 C -0.00415 0.55615 0.45002 0.0
C742 C 0.00985 0.51466 0.40211 0.0
C743 C 0.00189 0.58032 0.44992 0.0
C744 C 0.98999 0.41658 0.4029 0.0
C745 C -0.00276 0.44096 0.40639 0.0
C746 C 0.98533 0.48309 0.45926 0.0
C747 C 0.01212 0.54935 0.43674 0.0
C748 C 0.00494 0.52355 0.43394 0.0
C749 C 0.98233 0.44817 0.4237 0.0
C750 C 0.99012 0.47415 0.42731 0.0
H751 H 0.05844 0.60486 0.41447 0.0
H752 H 0.04789 0.56261 0.4147 0.0
H753 H 0.98877 0.51392 0.48747 0.0
H754 H 0.93549 0.39267 0.44507 0.0
H755 H 0.94788 0.43527 0.45042 0.0
C756 C 0.5411 0.95269 0.75387 0.0
C757 C 0.56558 0.97006 0.75066 0.0
C758 C 0.52369 0.95965 0.7552 0.0
C759 C 0.51568 0.01135 0.77624 0.0
H760 H 0.45653 0.97546 0.72135 0.0
C761 C 0.44632 0.04325 0.76013 0.0
C762 C 0.42188 0.0255 0.76148 0.0
C763 C 0.46409 0.03672 0.75957 0.0
C764 C 0.47282 0.98549 0.73719 0.0
H765 H 0.59107 0.0083 0.74616 0.0
H766 H 0.56063 0.02046 0.74827 0.0
H767 H 0.48707 0.96355 0.71849 0.0
H768 H 0.39685 0.98706 0.76416 0.0
H769 H 0.42781 0.97569 0.76377 0.0
H770 H 0.50138 0.03325 0.79504 0.0
C771 C 0.55492 0.00148 0.75014 0.0
C772 C 0.49032 0.97868 0.73551 0.0
C773 C 0.57232 0.99451 0.74871 0.0
C774 C 0.41555 0.00114 0.76293 0.0
C775 C 0.43328 0.99463 0.76245 0.0
C776 C 0.49814 0.01814 0.77799 0.0
C777 C 0.53042 0.98413 0.75343 0.0
C778 C 0.51192 0.99151 0.75505 0.0
C779 C 0.45774 0.01232 0.76041 0.0
C780 C 0.47649 0.00525 0.75854 0.0
H781 H 0.53539 0.93371 0.75553 0.0
H782 H 0.50498 0.94588 0.75815 0.0
H783 H 0.53202 0.0214 0.79198 0.0
H784 H 0.45171 0.06216 0.75889 0.0
H785 H 0.48276 0.05078 0.75764 0.0
C786 C 0.57545 0.57997 0.5524 0.0
C787 C 0.56974 0.59842 0.55418 0.0
C788 C 0.55728 0.55598 0.54857 0.0
C789 C 0.49313 0.51625 0.56708 0.0
H790 H 0.50029 0.47105 0.50567 0.0
C791 C 0.41712 0.41795 0.55189 0.0
C792 C 0.4238 0.40018 0.5527 0.0
C793 C 0.43457 0.44224 0.54882 0.0
C794 C 0.49812 0.48341 0.52318 0.0
H795 H 0.54067 0.60638 0.55234 0.0
H796 H 0.5089 0.56443 0.54554 0.0
H797 H 0.53146 0.51351 0.50563 0.0
H798 H 0.45388 0.39379 0.55035 0.0
H799 H 0.48447 0.4363 0.54559 0.0
H800 H 0.46009 0.48622 0.58521 0.0
C801 C 0.5274 0.5685 0.54748 0.0
C802 C 0.51594 0.50772 0.52309 0.0
C803 C 0.54559 0.59251 0.55118 0.0
C804 C 0.44823 0.40712 0.54974 0.0
C805 C 0.46572 0.43145 0.5468 0.0
C806 C 0.47537 0.49197 0.56725 0.0
C807 C 0.53304 0.54996 0.54657 0.0
C808 C 0.51368 0.52437 0.54519 0.0
C809 C 0.4591 0.44931 0.54665 0.0
C810 C 0.4777 0.47524 0.54544 0.0
H811 H 0.59392 0.584 0.55464 0.0
H812 H 0.56218 0.54209 0.54833 0.0
H813 H 0.49106 0.52856 0.58488 0.0
H814 H 0.3984 0.41312 0.55387 0.0
H815 H 0.42883 0.45549 0.54817 0.0
C816 C 0.99065 0.57642 0.88864 0.0
C817 C 0.9667 0.5714 0.88896 0.0
C818 C -0.0042 0.55773 0.88695 0.0
C819 C 0.96943 0.49373 0.90928 0.0
H820 H 0.02295 0.49896 0.8531 0.0
C821 C 0.99201 0.41707 0.90189 0.0
C822 C 0.01649 0.42399 0.90367 0.0
C823 C 0.98505 0.43442 0.89834 0.0
C824 C 0.00808 0.49733 0.86919 0.0
H825 H 0.92936 0.54298 0.8866 0.0
H826 H 0.93838 0.51026 0.88341 0.0
H827 H 0.01222 0.53035 0.84835 0.0
H828 H 0.05287 0.45444 0.90369 0.0
H829 H 0.04074 0.48472 0.89803 0.0
H830 H 0.96551 0.4609 0.93054 0.0
C831 C 0.95315 0.52865 0.88489 0.0
C832 C 0.00191 0.51528 0.8664 0.0
C833 C 0.948 0.54737 0.88647 0.0
C834 C 0.03386 0.44856 0.90224 0.0
C835 C 0.02692 0.46589 0.89872 0.0
C836 C 0.97562 0.47578 0.91211 0.0
C837 C 0.97711 0.53362 0.88562 0.0
C838 C 0.98267 0.51379 0.88669 0.0
C839 C 0.00244 0.45902 0.8965 0.0
C840 C -0.00482 0.47752 0.89238 0.0
H841 H 0.00544 0.59478 0.8906 0.0
H842 H 0.01443 0.56214 0.88796 0.0
H843 H 0.95473 0.49224 0.92567 0.0
H844 H 0.97823 0.39823 0.90282 0.0
H845 H 0.96606 0.42854 0.89639 0.0
C846 C 0.58954 0.04338 0.22585 0.0
C847 C 0.59691 0.02619 0.22841 0.0
C848 C 0.56516 0.03614 0.22302 0.0
C849 C 0.50555 0.98447 0.19985 0.0
H850 H 0.48205 0.01785 0.26034 0.0
C851 C 0.40421 0.94947 0.22457 0.0
C852 C 0.39686 0.96671 0.22647 0.0
C853 C 0.42864 0.95669 0.22207 0.0
C854 C 0.48835 0.00855 0.24287 0.0
H855 H 0.58465 0.98795 0.22928 0.0
H856 H 0.54199 0.97528 0.22461 0.0
H857 H 0.52468 0.03062 0.26075 0.0
H858 H 0.40917 0.00497 0.22598 0.0
H859 H 0.45168 0.01755 0.22108 0.0
H860 H 0.46909 0.96229 0.18215 0.0
C861 C 0.55507 0.99435 0.22446 0.0
C862 C 0.5128 0.01587 0.24313 0.0
C863 C 0.57948 0.0016 0.22735 0.0
C864 C 0.41431 0.99126 0.22482 0.0
C865 C 0.43867 -0.00153 0.22223 0.0
C866 C 0.48105 0.97715 0.19954 0.0
C867 C 0.54764 0.01155 0.22267 0.0
C868 C 0.52168 0.00392 0.22166 0.0
C869 C 0.44616 0.98129 0.22137 0.0
C870 C 0.47219 0.98912 0.22108 0.0
H871 H 0.6026 0.06246 0.22642 0.0
H872 H 0.56001 0.04981 0.22116 0.0
H873 H 0.51191 0.97507 0.18272 0.0
H874 H 0.39113 0.93041 0.22583 0.0
H875 H 0.43384 0.94302 0.22176 0.0
loop_
_geom_bond_atom_site_label_1
_geom_bond_atom_site_label_2
_geom_bond_distance
_geom_bond_site_symmetry_2
_ccdc_geom_bond_type
In0 O1 2.294 . S
In0 O2 2.326 . S
In0 O6 2.266 . S
In0 O7 2.326 . S
In0 O8 2.266 . S
In0 O9 2.326 . S
In0 O11 2.294 . S
In0 O12 2.326 . S
O1 In0 2.294 . S
O1 C10 1.240 . S
O2 In0 2.326 . S
O2 C10 1.252 . S
C3 O6 1.252 . S
C3 O7 1.260 . S
C4 O11 1.240 . S
C4 O12 1.252 . S
C5 O8 1.252 . S
C5 O9 1.260 . S
O6 In0 2.266 . S
O6 C3 1.252 . S
O7 In0 2.326 . S
O7 C3 1.260 . S
O8 In0 2.266 . S
O8 C5 1.252 . S
O9 In0 2.326 . S
O9 C5 1.260 . S
C10 O1 1.240 . S
C10 O2 1.252 . S
O11 In0 2.294 . S
O11 C4 1.240 . S
O12 In0 2.326 . S
O12 C4 1.252 . S
In13 O14 2.294 . S
In13 O15 2.326 . S
In13 O19 2.266 . S
In13 O20 2.326 . S
In13 O21 2.266 . S
In13 O22 2.326 . S
In13 O24 2.294 . S
In13 O25 2.326 . S
O14 In13 2.294 . S
O14 C23 1.240 . S
O15 In13 2.326 . S
O15 C23 1.252 . S
C16 O19 1.252 . S
C16 O20 1.260 . S
C17 O24 1.240 . S
C17 O25 1.252 . S
C18 O21 1.252 . S
C18 O22 1.260 . S
O19 In13 2.266 . S
O19 C16 1.252 . S
O20 In13 2.326 . S
O20 C16 1.260 . S
O21 In13 2.266 . S
O21 C18 1.252 . S
O22 In13 2.326 . S
O22 C18 1.260 . S
C23 O14 1.240 . S
C23 O15 1.252 . S
O24 In13 2.294 . S
O24 C17 1.240 . S
O25 In13 2.326 . S
O25 C17 1.252 . S
In26 O27 2.294 . S
In26 O28 2.326 . S
In26 O32 2.266 . S
In26 O33 2.326 . S
In26 O34 2.266 . S
In26 O35 2.326 . S
In26 O37 2.294 . S
In26 O38 2.326 . S
O27 In26 2.294 . S
O27 C36 1.240 . S
O28 In26 2.326 . S
O28 C36 1.252 . S
C29 O32 1.252 . S
C29 O33 1.260 . S
C30 O37 1.240 . S
C30 O38 1.252 . S
C31 O34 1.252 . S
C31 O35 1.260 . S
O32 In26 2.266 . S
O32 C29 1.252 . S
O33 In26 2.326 . S
O33 C29 1.260 . S
O34 In26 2.266 . S
O34 C31 1.252 . S
O35 In26 2.326 . S
O35 C31 1.260 . S
C36 O27 1.240 . S
C36 O28 1.252 . S
O37 In26 2.294 . S
O37 C30 1.240 . S
O38 In26 2.326 . S
O38 C30 1.252 . S
In39 O40 2.294 . S
In39 O41 2.326 . S
In39 O45 2.266 . S
In39 O46 2.326 . S
In39 O47 2.266 . S
In39 O48 2.326 . S
In39 O50 2.294 . S
In39 O51 2.326 . S
O40 In39 2.294 . S
O40 C49 1.240 . S
O41 In39 2.326 . S
O41 C49 1.252 . S
C42 O45 1.252 . S
C42 O46 1.260 . S
C43 O50 1.240 . S
C43 O51 1.252 . S
C44 O47 1.252 . S
C44 O48 1.260 . S
O45 In39 2.266 . S
O45 C42 1.252 . S
O46 In39 2.326 . S
O46 C42 1.260 . S
O47 In39 2.266 . S
O47 C44 1.252 . S
O48 In39 2.326 . S
O48 C44 1.260 . S
C49 O40 1.240 . S
C49 O41 1.252 . S
O50 In39 2.294 . S
O50 C43 1.240 . S
O51 In39 2.326 . S
O51 C43 1.252 . S
In52 O53 2.294 . S
In52 O54 2.326 . S
In52 O58 2.266 . S
In52 O59 2.326 . S
In52 O60 2.266 . S
In52 O61 2.326 . S
In52 O63 2.294 . S
In52 O64 2.326 . S
O53 In52 2.294 . S
O53 C62 1.240 . S
O54 In52 2.326 . S
O54 C62 1.252 . S
C55 O58 1.252 . S
C55 O59 1.260 . S
C56 O63 1.240 . S
C56 O64 1.252 . S
C57 O60 1.252 . S
C57 O61 1.260 . S
O58 In52 2.266 . S
O58 C55 1.252 . S
O59 In52 2.326 . S
O59 C55 1.260 . S
O60 In52 2.266 . S
O60 C57 1.252 . S
O61 In52 2.326 . S
O61 C57 1.260 . S
C62 O53 1.240 . S
C62 O54 1.252 . S
O63 In52 2.294 . S
O63 C56 1.240 . S
O64 In52 2.326 . S
O64 C56 1.252 . S
In65 O66 2.294 . S
In65 O67 2.326 . S
In65 O71 2.266 . S
In65 O72 2.326 . S
In65 O73 2.266 . S
In65 O74 2.326 . S
In65 O76 2.294 . S
In65 O77 2.326 . S
O66 In65 2.294 . S
O66 C75 1.240 . S
O67 In65 2.326 . S
O67 C75 1.252 . S
C68 O71 1.252 . S
C68 O72 1.260 . S
C69 O76 1.240 . S
C69 O77 1.252 . S
C70 O73 1.252 . S
C70 O74 1.260 . S
O71 In65 2.266 . S
O71 C68 1.252 . S
O72 In65 2.326 . S
O72 C68 1.260 . S
O73 In65 2.266 . S
O73 C70 1.252 . S
O74 In65 2.326 . S
O74 C70 1.260 . S
C75 O66 1.240 . S
C75 O67 1.252 . S
O76 In65 2.294 . S
O76 C69 1.240 . S
O77 In65 2.326 . S
O77 C69 1.252 . S
In78 O79 2.294 . S
In78 O80 2.326 . S
In78 O84 2.266 . S
In78 O85 2.326 . S
In78 O86 2.266 . S
In78 O87 2.326 . S
In78 O89 2.294 . S
In78 O90 2.326 . S
O79 In78 2.294 . S
O79 C88 1.240 . S
O80 In78 2.326 . S
O80 C88 1.252 . S
C81 O84 1.252 . S
C81 O85 1.260 . S
C82 O89 1.240 . S
C82 O90 1.252 . S
C83 O86 1.252 . S
C83 O87 1.260 . S
O84 In78 2.266 . S
O84 C81 1.252 . S
O85 In78 2.326 . S
O85 C81 1.260 . S
O86 In78 2.266 . S
O86 C83 1.252 . S
O87 In78 2.326 . S
O87 C83 1.260 . S
C88 O79 1.240 . S
C88 O80 1.252 . S
O89 In78 2.294 . S
O89 C82 1.240 . S
O90 In78 2.326 . S
O90 C82 1.252 . S
In91 O92 2.294 . S
In91 O93 2.326 . S
In91 O97 2.266 . S
In91 O98 2.326 . S
In91 O99 2.266 . S
In91 O100 2.326 . S
In91 O102 2.294 . S
In91 O103 2.326 . S
O92 In91 2.294 . S
O92 C101 1.240 . S
O93 In91 2.326 . S
O93 C101 1.252 . S
C94 O97 1.252 . S
C94 O98 1.260 . S
C95 O102 1.240 . S
C95 O103 1.252 . S
C96 O99 1.252 . S
C96 O100 1.260 . S
O97 In91 2.266 . S
O97 C94 1.252 . S
O98 In91 2.326 . S
O98 C94 1.260 . S
O99 In91 2.266 . S
O99 C96 1.252 . S
O100 In91 2.326 . S
O100 C96 1.260 . S
C101 O92 1.240 . S
C101 O93 1.252 . S
O102 In91 2.294 . S
O102 C95 1.240 . S
O103 In91 2.326 . S
O103 C95 1.252 . S
In104 O105 2.294 . S
In104 O106 2.326 . S
In104 O110 2.266 . S
In104 O111 2.326 . S
In104 O112 2.266 . S
In104 O113 2.326 . S
In104 O115 2.294 . S
In104 O116 2.326 . S
O105 In104 2.294 . S
O105 C114 1.240 . S
O106 In104 2.326 . S
O106 C114 1.252 . S
C107 O110 1.252 . S
C107 O111 1.260 . S
C108 O115 1.240 . S
C108 O116 1.252 . S
C109 O112 1.252 . S
C109 O113 1.260 . S
O110 In104 2.266 . S
O110 C107 1.252 . S
O111 In104 2.326 . S
O111 C107 1.260 . S
O112 In104 2.266 . S
O112 C109 1.252 . S
O113 In104 2.326 . S
O113 C109 1.260 . S
C114 O105 1.240 . S
C114 O106 1.252 . S
O115 In104 2.294 . S
O115 C108 1.240 . S
O116 In104 2.326 . S
O116 C108 1.252 . S
In117 O118 2.294 . S
In117 O119 2.326 . S
In117 O123 2.266 . S
In117 O124 2.326 . S
In117 O125 2.266 . S
In117 O126 2.326 . S
In117 O128 2.294 . S
In117 O129 2.326 . S
O118 In117 2.294 . S
O118 C127 1.240 . S
O119 In117 2.326 . S
O119 C127 1.252 . S
C120 O123 1.252 . S
C120 O124 1.260 . S
C121 O128 1.240 . S
C121 O129 1.252 . S
C122 O125 1.252 . S
C122 O126 1.260 . S
O123 In117 2.266 . S
O123 C120 1.252 . S
O124 In117 2.326 . S
O124 C120 1.260 . S
O125 In117 2.266 . S
O125 C122 1.252 . S
O126 In117 2.326 . S
O126 C122 1.260 . S
C127 O118 1.240 . S
C127 O119 1.252 . S
O128 In117 2.294 . S
O128 C121 1.240 . S
O129 In117 2.326 . S
O129 C121 1.252 . S
In130 O131 2.294 . S
In130 O132 2.326 . S
In130 O136 2.266 . S
In130 O137 2.326 . S
In130 O138 2.266 . S
In130 O139 2.326 . S
In130 O141 2.294 . S
In130 O142 2.326 . S
O131 In130 2.294 . S
O131 C140 1.240 . S
O132 In130 2.326 . S
O132 C140 1.252 . S
C133 O136 1.252 . S
C133 O137 1.260 . S
C134 O141 1.240 . S
C134 O142 1.252 . S
C135 O138 1.252 . S
C135 O139 1.260 . S
O136 In130 2.266 . S
O136 C133 1.252 . S
O137 In130 2.326 . S
O137 C133 1.260 . S
O138 In130 2.266 . S
O138 C135 1.252 . S
O139 In130 2.326 . S
O139 C135 1.260 . S
C140 O131 1.240 . S
C140 O132 1.252 . S
O141 In130 2.294 . S
O141 C134 1.240 . S
O142 In130 2.326 . S
O142 C134 1.252 . S
In143 O144 2.294 . S
In143 O145 2.326 . S
In143 O149 2.266 . S
In143 O150 2.326 . S
In143 O151 2.266 . S
In143 O152 2.326 . S
In143 O154 2.294 . S
In143 O155 2.326 . S
O144 In143 2.294 . S
O144 C153 1.240 . S
O145 In143 2.326 . S
O145 C153 1.252 . S
C146 O149 1.252 . S
C146 O150 1.260 . S
C147 O154 1.240 . S
C147 O155 1.252 . S
C148 O151 1.252 . S
C148 O152 1.260 . S
O149 In143 2.266 . S
O149 C146 1.252 . S
O150 In143 2.326 . S
O150 C146 1.260 . S
O151 In143 2.266 . S
O151 C148 1.252 . S
O152 In143 2.326 . S
O152 C148 1.260 . S
C153 O144 1.240 . S
C153 O145 1.252 . S
O154 In143 2.294 . S
O154 C147 1.240 . S
O155 In143 2.326 . S
O155 C147 1.252 . S
C156 C157 1.349 . S
C156 C158 1.327 . S
C156 H181 0.950 . S
C157 C156 1.349 . S
C157 C173 1.349 . S
C158 C156 1.327 . S
C158 C177 1.429 . S
C158 H182 0.950 . S
C159 C176 1.574 . S
C159 C178 1.368 . S
C159 H183 0.949 . S
H160 C164 0.949 . S
C161 C162 1.349 . S
C161 C163 1.327 . S
C161 H184 0.950 . S
C162 C161 1.349 . S
C162 C174 1.349 . S
C163 C161 1.327 . S
C163 C179 1.429 . S
C163 H185 0.950 . S
C164 H160 0.949 . S
C164 C172 1.574 . S
C164 C180 1.368 . S
H165 C173 0.950 . S
H166 C171 0.950 . S
H167 C172 0.949 . S
H168 C174 0.950 . S
H169 C175 0.950 . S
H170 C176 0.949 . S
C171 H166 0.950 . S
C171 C173 1.327 . S
C171 C177 1.429 . S
C172 C164 1.574 . S
C172 H167 0.949 . S
C172 C178 1.368 . S
C173 C157 1.349 . S
C173 H165 0.950 . S
C173 C171 1.327 . S
C174 C162 1.349 . S
C174 H168 0.950 . S
C174 C175 1.327 . S
C175 H169 0.950 . S
C175 C174 1.327 . S
C175 C179 1.429 . S
C176 C159 1.574 . S
C176 H170 0.949 . S
C176 C180 1.368 . S
C177 C158 1.429 . S
C177 C171 1.429 . S
C177 C178 1.523 . S
C178 C159 1.368 . S
C178 C172 1.368 . S
C178 C177 1.523 . S
C179 C163 1.429 . S
C179 C175 1.429 . S
C179 C180 1.523 . S
C180 C164 1.368 . S
C180 C176 1.368 . S
C180 C179 1.523 . S
H181 C156 0.950 . S
H182 C158 0.950 . S
H183 C159 0.949 . S
H184 C161 0.950 . S
H185 C163 0.950 . S
C186 C187 1.349 . S
C186 C188 1.327 . S
C186 H211 0.950 . S
C187 C186 1.349 . S
C187 C203 1.349 . S
C188 C186 1.327 . S
C188 C207 1.429 . S
C188 H212 0.950 . S
C189 C206 1.575 . S
C189 C208 1.361 1_455 S
C189 H213 0.946 . S
H190 C194 0.946 . S
C191 C192 1.349 . S
C191 C193 1.327 . S
C191 H214 0.950 . S
C192 C191 1.349 . S
C192 C204 1.349 . S
C193 C191 1.327 . S
C193 C209 1.429 . S
C193 H215 0.950 . S
C194 H190 0.946 . S
C194 C202 1.575 . S
C194 C210 1.361 1_655 S
H195 C203 0.950 . S
H196 C201 0.950 . S
H197 C202 0.949 . S
H198 C204 0.950 . S
H199 C205 0.950 . S
H200 C206 0.949 . S
C201 H196 0.950 . S
C201 C203 1.327 . S
C201 C207 1.429 . S
C202 C194 1.575 . S
C202 H197 0.949 . S
C202 C208 1.368 . S
C203 C187 1.349 . S
C203 H195 0.950 . S
C203 C201 1.327 . S
C204 C192 1.349 . S
C204 H198 0.950 . S
C204 C205 1.327 . S
C205 H199 0.950 . S
C205 C204 1.327 . S
C205 C209 1.429 . S
C206 C189 1.575 . S
C206 H200 0.949 . S
C206 C210 1.368 . S
C207 C188 1.429 . S
C207 C201 1.429 . S
C207 C208 1.523 . S
C208 C189 1.361 1_655 S
C208 C202 1.368 . S
C208 C207 1.523 . S
C209 C193 1.429 . S
C209 C205 1.429 . S
C209 C210 1.523 . S
C210 C194 1.361 1_455 S
C210 C206 1.368 . S
C210 C209 1.523 . S
H211 C186 0.950 . S
H212 C188 0.950 . S
H213 C189 0.946 . S
H214 C191 0.950 . S
H215 C193 0.950 . S
C216 C217 1.349 . S
C216 C218 1.327 . S
C216 H241 0.950 . S
C217 C216 1.349 . S
C217 C233 1.349 . S
C218 C216 1.327 . S
C218 C237 1.429 . S
C218 H242 0.950 . S
C219 C236 1.574 1_556 S
C219 C238 1.368 1_545 S
C219 H243 0.949 . S
H220 C224 0.949 . S
C221 C222 1.349 . S
C221 C223 1.327 . S
C221 H244 0.950 . S
C222 C221 1.349 . S
C222 C234 1.349 . S
C223 C221 1.327 . S
C223 C239 1.429 . S
C223 H245 0.950 . S
C224 H220 0.949 . S
C224 C232 1.574 1_554 S
C224 C240 1.368 1_565 S
H225 C233 0.950 . S
H226 C231 0.950 . S
H227 C232 0.949 . S
H228 C234 0.950 . S
H229 C235 0.950 . S
H230 C236 0.949 . S
C231 H226 0.950 . S
C231 C233 1.327 . S
C231 C237 1.429 . S
C232 C224 1.574 1_556 S
C232 H227 0.949 . S
C232 C238 1.368 . S
C233 C217 1.349 . S
C233 H225 0.950 . S
C233 C231 1.327 . S
C234 C222 1.349 . S
C234 H228 0.950 . S
C234 C235 1.327 . S
C235 H229 0.950 . S
C235 C234 1.327 . S
C235 C239 1.429 . S
C236 C219 1.574 1_554 S
C236 H230 0.949 . S
C236 C240 1.368 . S
C237 C218 1.429 . S
C237 C231 1.429 . S
C237 C238 1.523 . S
C238 C219 1.368 1_565 S
C238 C232 1.368 . S
C238 C237 1.523 . S
C239 C223 1.429 . S
C239 C235 1.429 . S
C239 C240 1.523 . S
C240 C224 1.368 1_545 S
C240 C236 1.368 . S
C240 C239 1.523 . S
H241 C216 0.950 . S
H242 C218 0.950 . S
H243 C219 0.949 . S
H244 C221 0.950 . S
H245 C223 0.950 . S
C246 C247 1.349 . S
C246 C248 1.327 . S
C246 H271 0.950 . S
C247 C246 1.349 . S
C247 C263 1.349 . S
C248 C246 1.327 . S
C248 C267 1.429 . S
C248 H272 0.950 . S
C249 C266 1.574 . S
C249 C268 1.368 . S
C249 H273 0.949 . S
H250 C254 0.949 . S
C251 C252 1.349 . S
C251 C253 1.327 . S
C251 H274 0.950 . S
C252 C251 1.349 . S
C252 C264 1.349 . S
C253 C251 1.327 . S
C253 C269 1.429 . S
C253 H275 0.950 . S
C254 H250 0.949 . S
C254 C262 1.574 . S
C254 C270 1.368 . S
H255 C263 0.950 . S
H256 C261 0.950 . S
H257 C262 0.949 . S
H258 C264 0.950 . S
H259 C265 0.950 . S
H260 C266 0.949 . S
C261 H256 0.950 . S
C261 C263 1.327 . S
C261 C267 1.429 . S
C262 C254 1.574 . S
C262 H257 0.949 . S
C262 C268 1.368 . S
C263 C247 1.349 . S
C263 H255 0.950 . S
C263 C261 1.327 . S
C264 C252 1.349 . S
C264 H258 0.950 . S
C264 C265 1.327 . S
C265 H259 0.950 . S
C265 C264 1.327 . S
C265 C269 1.429 . S
C266 C249 1.574 . S
C266 H260 0.949 . S
C266 C270 1.368 . S
C267 C248 1.429 . S
C267 C261 1.429 . S
C267 C268 1.523 . S
C268 C249 1.368 . S
C268 C262 1.368 . S
C268 C267 1.523 . S
C269 C253 1.429 . S
C269 C265 1.429 . S
C269 C270 1.523 . S
C270 C254 1.368 . S
C270 C266 1.368 . S
C270 C269 1.523 . S
H271 C246 0.950 . S
H272 C248 0.950 . S
H273 C249 0.949 . S
H274 C251 0.950 . S
H275 C253 0.950 . S
C276 C277 1.349 1_455 S
C276 C278 1.327 . S
C276 H301 0.950 . S
C277 C276 1.349 1_655 S
C277 C293 1.349 . S
C278 C276 1.327 . S
C278 C297 1.429 1_455 S
C278 H302 0.950 . S
C279 C296 1.574 . S
C279 C298 1.368 . S
C279 H303 0.949 . S
H280 C284 0.949 . S
C281 C282 1.349 1_655 S
C281 C283 1.327 . S
C281 H304 0.950 . S
C282 C281 1.349 1_455 S
C282 C294 1.349 . S
C283 C281 1.327 . S
C283 C299 1.429 1_655 S
C283 H305 0.950 . S
C284 H280 0.949 . S
C284 C292 1.574 . S
C284 C300 1.368 . S
H285 C293 0.950 . S
H286 C291 0.950 . S
H287 C292 0.949 . S
H288 C294 0.950 . S
H289 C295 0.950 . S
H290 C296 0.949 . S
C291 H286 0.950 . S
C291 C293 1.327 . S
C291 C297 1.429 . S
C292 C284 1.574 . S
C292 H287 0.949 . S
C292 C298 1.368 1_455 S
C293 C277 1.349 . S
C293 H285 0.950 . S
C293 C291 1.327 . S
C294 C282 1.349 . S
C294 H288 0.950 . S
C294 C295 1.327 . S
C295 H289 0.950 . S
C295 C294 1.327 . S
C295 C299 1.429 . S
C296 C279 1.574 . S
C296 H290 0.949 . S
C296 C300 1.368 1_655 S
C297 C278 1.429 1_655 S
C297 C291 1.429 . S
C297 C298 1.523 . S
C298 C279 1.368 . S
C298 C292 1.368 1_655 S
C298 C297 1.523 . S
C299 C283 1.429 1_455 S
C299 C295 1.429 . S
C299 C300 1.523 . S
C300 C284 1.368 . S
C300 C296 1.368 1_455 S
C300 C299 1.523 . S
H301 C276 0.950 . S
H302 C278 0.950 . S
H303 C279 0.949 . S
H304 C281 0.950 . S
H305 C283 0.950 . S
C306 C307 1.349 . S
C306 C308 1.327 . S
C306 H331 0.950 . S
C307 C306 1.349 . S
C307 C323 1.349 1_565 S
C308 C306 1.327 . S
C308 C327 1.429 . S
C308 H332 0.950 . S
C309 C326 1.574 1_554 S
C309 C328 1.368 1_545 S
C309 H333 0.949 . S
H310 C314 0.949 . S
C311 C312 1.349 . S
C311 C313 1.327 . S
C311 H334 0.950 . S
C312 C311 1.349 . S
C312 C324 1.349 1_545 S
C313 C311 1.327 . S
C313 C329 1.429 . S
C313 H335 0.950 . S
C314 H310 0.949 . S
C314 C322 1.574 1_556 S
C314 C330 1.368 1_565 S
H315 C323 0.950 . S
H316 C321 0.950 . S
H317 C322 0.949 . S
H318 C324 0.950 . S
H319 C325 0.950 . S
H320 C326 0.949 . S
C321 H316 0.950 . S
C321 C323 1.327 . S
C321 C327 1.429 1_545 S
C322 C314 1.574 1_554 S
C322 H317 0.949 . S
C322 C328 1.368 . S
C323 C307 1.349 1_545 S
C323 H315 0.950 . S
C323 C321 1.327 . S
C324 C312 1.349 1_565 S
C324 H318 0.950 . S
C324 C325 1.327 . S
C325 H319 0.950 . S
C325 C324 1.327 . S
C325 C329 1.429 1_565 S
C326 C309 1.574 1_556 S
C326 H320 0.949 . S
C326 C330 1.368 . S
C327 C308 1.429 . S
C327 C321 1.429 1_565 S
C327 C328 1.523 . S
C328 C309 1.368 1_565 S
C328 C322 1.368 . S
C328 C327 1.523 . S
C329 C313 1.429 . S
C329 C325 1.429 1_545 S
C329 C330 1.523 . S
C330 C314 1.368 1_545 S
C330 C326 1.368 . S
C330 C329 1.523 . S
H331 C306 0.950 . S
H332 C308 0.950 . S
H333 C309 0.949 . S
H334 C311 0.950 . S
H335 C313 0.950 . S
C336 C337 1.349 . S
C336 C338 1.327 . S
C336 H361 0.950 . S
C337 C336 1.349 . S
C337 C353 1.349 . S
C338 C336 1.327 . S
C338 C357 1.429 . S
C338 H362 0.950 . S
C339 C356 1.574 . S
C339 C358 1.368 1_554 S
C339 H363 0.949 . S
H340 C344 0.949 . S
C341 C342 1.349 . S
C341 C343 1.327 . S
C341 H364 0.950 . S
C342 C341 1.349 . S
C342 C354 1.349 . S
C343 C341 1.327 . S
C343 C359 1.429 . S
C343 H365 0.950 . S
C344 H340 0.949 . S
C344 C352 1.574 . S
C344 C360 1.368 1_556 S
H345 C353 0.950 . S
H346 C351 0.950 1_554 S
H347 C352 0.949 . S
H348 C354 0.950 . S
H349 C355 0.950 1_556 S
H350 C356 0.949 . S
C351 H346 0.950 1_556 S
C351 C353 1.327 . S
C351 C357 1.429 . S
C352 C344 1.574 . S
C352 H347 0.949 . S
C352 C358 1.368 . S
C353 C337 1.349 . S
C353 H345 0.950 . S
C353 C351 1.327 . S
C354 C342 1.349 . S
C354 H348 0.950 . S
C354 C355 1.327 . S
C355 H349 0.950 1_554 S
C355 C354 1.327 . S
C355 C359 1.429 . S
C356 C339 1.574 . S
C356 H350 0.949 . S
C356 C360 1.368 . S
C357 C338 1.429 . S
C357 C351 1.429 . S
C357 C358 1.523 . S
C358 C339 1.368 1_556 S
C358 C352 1.368 . S
C358 C357 1.523 . S
C359 C343 1.429 . S
C359 C355 1.429 . S
C359 C360 1.523 . S
C360 C344 1.368 1_554 S
C360 C356 1.368 . S
C360 C359 1.523 . S
H361 C336 0.950 . S
H362 C338 0.950 . S
H363 C339 0.949 . S
H364 C341 0.950 . S
H365 C343 0.950 . S
C366 C367 1.349 . S
C366 C368 1.327 . S
C366 H391 0.950 . S
C367 C366 1.349 . S
C367 C383 1.349 . S
C368 C366 1.327 . S
C368 C387 1.429 . S
C368 H392 0.950 . S
C369 C386 1.574 . S
C369 C388 1.368 . S
C369 H393 0.949 . S
H370 C374 0.949 . S
C371 C372 1.349 . S
C371 C373 1.327 . S
C371 H394 0.950 . S
C372 C371 1.349 . S
C372 C384 1.349 . S
C373 C371 1.327 . S
C373 C389 1.429 . S
C373 H395 0.950 . S
C374 H370 0.949 . S
C374 C382 1.574 . S
C374 C390 1.368 . S
H375 C383 0.950 . S
H376 C381 0.950 . S
H377 C382 0.949 . S
H378 C384 0.950 . S
H379 C385 0.950 . S
H380 C386 0.949 . S
C381 H376 0.950 . S
C381 C383 1.327 . S
C381 C387 1.429 . S
C382 C374 1.574 . S
C382 H377 0.949 . S
C382 C388 1.368 . S
C383 C367 1.349 . S
C383 H375 0.950 . S
C383 C381 1.327 . S
C384 C372 1.349 . S
C384 H378 0.950 . S
C384 C385 1.327 . S
C385 H379 0.950 . S
C385 C384 1.327 . S
C385 C389 1.429 . S
C386 C369 1.574 . S
C386 H380 0.949 . S
C386 C390 1.368 . S
C387 C368 1.429 . S
C387 C381 1.429 . S
C387 C388 1.523 . S
C388 C369 1.368 . S
C388 C382 1.368 . S
C388 C387 1.523 . S
C389 C373 1.429 . S
C389 C385 1.429 . S
C389 C390 1.523 . S
C390 C374 1.368 . S
C390 C386 1.368 . S
C390 C389 1.523 . S
H391 C366 0.950 . S
H392 C368 0.950 . S
H393 C369 0.949 . S
H394 C371 0.950 . S
H395 C373 0.950 . S
C396 C397 1.349 . S
C396 C398 1.327 . S
C396 H421 0.950 . S
C397 C396 1.349 . S
C397 C413 1.349 . S
C398 C396 1.327 . S
C398 C417 1.429 . S
C398 H422 0.950 . S
C399 C416 1.574 . S
C399 C418 1.368 . S
C399 H423 0.949 . S
H400 C404 0.949 . S
C401 C402 1.349 . S
C401 C403 1.327 . S
C401 H424 0.950 . S
C402 C401 1.349 . S
C402 C414 1.349 . S
C403 C401 1.327 . S
C403 C419 1.429 . S
C403 H425 0.950 . S
C404 H400 0.949 . S
C404 C412 1.574 . S
C404 C420 1.368 . S
H405 C413 0.950 . S
H406 C411 0.950 . S
H407 C412 0.949 . S
H408 C414 0.950 . S
H409 C415 0.950 . S
H410 C416 0.949 . S
C411 H406 0.950 . S
C411 C413 1.327 . S
C411 C417 1.429 . S
C412 C404 1.574 . S
C412 H407 0.949 . S
C412 C418 1.368 . S
C413 C397 1.349 . S
C413 H405 0.950 . S
C413 C411 1.327 . S
C414 C402 1.349 . S
C414 H408 0.950 . S
C414 C415 1.327 . S
C415 H409 0.950 . S
C415 C414 1.327 . S
C415 C419 1.429 . S
C416 C399 1.574 . S
C416 H410 0.949 . S
C416 C420 1.368 . S
C417 C398 1.429 . S
C417 C411 1.429 . S
C417 C418 1.523 . S
C418 C399 1.368 . S
C418 C412 1.368 . S
C418 C417 1.523 . S
C419 C403 1.429 . S
C419 C415 1.429 . S
C419 C420 1.523 . S
C420 C404 1.368 . S
C420 C416 1.368 . S
C420 C419 1.523 . S
H421 C396 0.950 . S
H422 C398 0.950 . S
H423 C399 0.949 . S
H424 C401 0.950 . S
H425 C403 0.950 . S
C426 C427 1.349 . S
C426 C428 1.327 . S
C426 H451 0.950 . S
C427 C426 1.349 . S
C427 C443 1.349 . S
C428 C426 1.327 . S
C428 C447 1.429 . S
C428 H452 0.950 . S
C429 C446 1.574 . S
C429 C448 1.368 1_556 S
C429 H453 0.949 . S
H430 C434 0.949 . S
C431 C432 1.349 . S
C431 C433 1.327 . S
C431 H454 0.950 . S
C432 C431 1.349 . S
C432 C444 1.349 . S
C433 C431 1.327 . S
C433 C449 1.429 . S
C433 H455 0.950 . S
C434 H430 0.949 . S
C434 C442 1.574 . S
C434 C450 1.368 1_554 S
H435 C443 0.950 . S
H436 C441 0.950 1_556 S
H437 C442 0.949 . S
H438 C444 0.950 . S
H439 C445 0.950 1_554 S
H440 C446 0.949 . S
C441 H436 0.950 1_554 S
C441 C443 1.327 . S
C441 C447 1.429 . S
C442 C434 1.574 . S
C442 H437 0.949 . S
C442 C448 1.368 . S
C443 C427 1.349 . S
C443 H435 0.950 . S
C443 C441 1.327 . S
C444 C432 1.349 . S
C444 H438 0.950 . S
C444 C445 1.327 . S
C445 H439 0.950 1_556 S
C445 C444 1.327 . S
C445 C449 1.429 . S
C446 C429 1.574 . S
C446 H440 0.949 . S
C446 C450 1.368 . S
C447 C428 1.429 . S
C447 C441 1.429 . S
C447 C448 1.523 . S
C448 C429 1.368 1_554 S
C448 C442 1.368 . S
C448 C447 1.523 . S
C449 C433 1.429 . S
C449 C445 1.429 . S
C449 C450 1.523 . S
C450 C434 1.368 1_556 S
C450 C446 1.368 . S
C450 C449 1.523 . S
H451 C426 0.950 . S
H452 C428 0.950 . S
H453 C429 0.949 . S
H454 C431 0.950 . S
H455 C433 0.950 . S
C456 C457 1.349 . S
C456 C458 1.327 . S
C456 H481 0.950 . S
C457 C456 1.349 . S
C457 C473 1.349 . S
C458 C456 1.327 . S
C458 C477 1.429 . S
C458 H482 0.950 . S
C459 C476 1.574 . S
C459 C478 1.368 . S
C459 H483 0.949 . S
H460 C464 0.949 . S
C461 C462 1.349 . S
C461 C463 1.327 . S
C461 H484 0.950 . S
C462 C461 1.349 . S
C462 C474 1.349 . S
C463 C461 1.327 . S
C463 C479 1.429 . S
C463 H485 0.950 . S
C464 H460 0.949 . S
C464 C472 1.574 . S
C464 C480 1.368 . S
H465 C473 0.950 . S
H466 C471 0.950 . S
H467 C472 0.949 . S
H468 C474 0.950 . S
H469 C475 0.950 . S
H470 C476 0.949 . S
C471 H466 0.950 . S
C471 C473 1.327 . S
C471 C477 1.429 . S
C472 C464 1.574 . S
C472 H467 0.949 . S
C472 C478 1.368 . S
C473 C457 1.349 . S
C473 H465 0.950 . S
C473 C471 1.327 . S
C474 C462 1.349 . S
C474 H468 0.950 . S
C474 C475 1.327 . S
C475 H469 0.950 . S
C475 C474 1.327 . S
C475 C479 1.429 . S
C476 C459 1.574 . S
C476 H470 0.949 . S
C476 C480 1.368 . S
C477 C458 1.429 . S
C477 C471 1.429 . S
C477 C478 1.523 . S
C478 C459 1.368 . S
C478 C472 1.368 . S
C478 C477 1.523 . S
C479 C463 1.429 . S
C479 C475 1.429 . S
C479 C480 1.523 . S
C480 C464 1.368 . S
C480 C476 1.368 . S
C480 C479 1.523 . S
H481 C456 0.950 . S
H482 C458 0.950 . S
H483 C459 0.949 . S
H484 C461 0.950 . S
H485 C463 0.950 . S
C486 C487 1.349 . S
C486 C488 1.327 . S
C486 H511 0.950 . S
C487 C486 1.349 . S
C487 C503 1.349 . S
C488 C486 1.327 . S
C488 C507 1.429 . S
C488 H512 0.950 . S
C489 C506 1.574 . S
C489 C508 1.368 . S
C489 H513 0.949 . S
H490 C494 0.949 . S
C491 C492 1.349 . S
C491 C493 1.327 . S
C491 H514 0.950 . S
C492 C491 1.349 . S
C492 C504 1.349 . S
C493 C491 1.327 . S
C493 C509 1.429 . S
C493 H515 0.950 . S
C494 H490 0.949 . S
C494 C502 1.574 . S
C494 C510 1.368 . S
H495 C503 0.950 . S
H496 C501 0.950 . S
H497 C502 0.949 . S
H498 C504 0.950 . S
H499 C505 0.950 . S
H500 C506 0.949 . S
C501 H496 0.950 . S
C501 C503 1.327 . S
C501 C507 1.429 . S
C502 C494 1.574 . S
C502 H497 0.949 . S
C502 C508 1.368 . S
C503 C487 1.349 . S
C503 H495 0.950 . S
C503 C501 1.327 . S
C504 C492 1.349 . S
C504 H498 0.950 . S
C504 C505 1.327 . S
C505 H499 0.950 . S
C505 C504 1.327 . S
C505 C509 1.429 . S
C506 C489 1.574 . S
C506 H500 0.949 . S
C506 C510 1.368 . S
C507 C488 1.429 . S
C507 C501 1.429 . S
C507 C508 1.523 . S
C508 C489 1.368 . S
C508 C502 1.368 . S
C508 C507 1.523 . S
C509 C493 1.429 . S
C509 C505 1.429 . S
C509 C510 1.523 . S
C510 C494 1.368 . S
C510 C506 1.368 . S
C510 C509 1.523 . S
H511 C486 0.950 . S
H512 C488 0.950 . S
H513 C489 0.949 . S
H514 C491 0.950 . S
H515 C493 0.950 . S
C516 C517 1.349 . S
C516 C518 1.327 . S
C516 H541 0.950 . S
C517 C516 1.349 . S
C517 C533 1.349 . S
C518 C516 1.327 . S
C518 C537 1.429 . S
C518 H542 0.950 . S
C519 C536 1.574 . S
C519 C538 1.368 . S
C519 H543 0.949 . S
H520 C524 0.949 . S
C521 C522 1.349 . S
C521 C523 1.327 . S
C521 H544 0.950 . S
C522 C521 1.349 . S
C522 C534 1.349 . S
C523 C521 1.327 . S
C523 C539 1.429 . S
C523 H545 0.950 . S
C524 H520 0.949 . S
C524 C532 1.574 . S
C524 C540 1.368 . S
H525 C533 0.950 . S
H526 C531 0.950 . S
H527 C532 0.949 . S
H528 C534 0.950 . S
H529 C535 0.950 . S
H530 C536 0.949 . S
C531 H526 0.950 . S
C531 C533 1.327 . S
C531 C537 1.429 . S
C532 C524 1.574 . S
C532 H527 0.949 . S
C532 C538 1.368 . S
C533 C517 1.349 . S
C533 H525 0.950 . S
C533 C531 1.327 . S
C534 C522 1.349 . S
C534 H528 0.950 . S
C534 C535 1.327 . S
C535 H529 0.950 . S
C535 C534 1.327 . S
C535 C539 1.429 . S
C536 C519 1.574 . S
C536 H530 0.949 . S
C536 C540 1.368 . S
C537 C518 1.429 . S
C537 C531 1.429 . S
C537 C538 1.523 . S
C538 C519 1.368 . S
C538 C532 1.368 . S
C538 C537 1.523 . S
C539 C523 1.429 . S
C539 C535 1.429 . S
C539 C540 1.523 . S
C540 C524 1.368 . S
C540 C536 1.368 . S
C540 C539 1.523 . S
H541 C516 0.950 . S
H542 C518 0.950 . S
H543 C519 0.949 . S
H544 C521 0.950 . S
H545 C523 0.950 . S
C546 C547 1.349 . S
C546 C548 1.327 . S
C546 H571 0.950 . S
C547 C546 1.349 . S
C547 C563 1.349 1_655 S
C548 C546 1.327 . S
C548 C567 1.429 . S
C548 H572 0.950 . S
C549 C566 1.574 . S
C549 C568 1.368 1_455 S
C549 H573 0.949 . S
H550 C554 0.949 . S
C551 C552 1.349 . S
C551 C553 1.327 . S
C551 H574 0.950 . S
C552 C551 1.349 . S
C552 C564 1.349 1_455 S
C553 C551 1.327 . S
C553 C569 1.429 . S
C553 H575 0.950 . S
C554 H550 0.949 . S
C554 C562 1.574 . S
C554 C570 1.368 1_655 S
H555 C563 0.950 . S
H556 C561 0.950 . S
H557 C562 0.949 . S
H558 C564 0.950 . S
H559 C565 0.950 . S
H560 C566 0.949 . S
C561 H556 0.950 . S
C561 C563 1.327 . S
C561 C567 1.429 1_455 S
C562 C554 1.574 . S
C562 H557 0.949 . S
C562 C568 1.368 . S
C563 C547 1.349 1_455 S
C563 H555 0.950 . S
C563 C561 1.327 . S
C564 C552 1.349 1_655 S
C564 H558 0.950 . S
C564 C565 1.327 . S
C565 H559 0.950 . S
C565 C564 1.327 . S
C565 C569 1.429 1_655 S
C566 C549 1.574 . S
C566 H560 0.949 . S
C566 C570 1.368 . S
C567 C548 1.429 . S
C567 C561 1.429 1_655 S
C567 C568 1.523 . S
C568 C549 1.368 1_655 S
C568 C562 1.368 . S
C568 C567 1.523 . S
C569 C553 1.429 . S
C569 C565 1.429 1_455 S
C569 C570 1.523 . S
C570 C554 1.368 1_455 S
C570 C566 1.368 . S
C570 C569 1.523 . S
H571 C546 0.950 . S
H572 C548 0.950 . S
H573 C549 0.949 . S
H574 C551 0.950 . S
H575 C553 0.950 . S
C576 C577 1.349 . S
C576 C578 1.327 . S
C576 H601 0.950 . S
C577 C576 1.349 . S
C577 C593 1.349 1_565 S
C578 C576 1.327 . S
C578 C597 1.429 . S
C578 H602 0.950 . S
C579 C596 1.574 . S
C579 C598 1.368 1_545 S
C579 H603 0.949 . S
H580 C584 0.949 . S
C581 C582 1.349 . S
C581 C583 1.327 . S
C581 H604 0.950 . S
C582 C581 1.349 . S
C582 C594 1.349 1_545 S
C583 C581 1.327 . S
C583 C599 1.429 . S
C583 H605 0.950 . S
C584 H580 0.949 . S
C584 C592 1.574 . S
C584 C600 1.368 1_565 S
H585 C593 0.950 . S
H586 C591 0.950 . S
H587 C592 0.949 . S
H588 C594 0.950 . S
H589 C595 0.950 . S
H590 C596 0.949 . S
C591 H586 0.950 . S
C591 C593 1.327 . S
C591 C597 1.429 1_545 S
C592 C584 1.574 . S
C592 H587 0.949 . S
C592 C598 1.368 . S
C593 C577 1.349 1_545 S
C593 H585 0.950 . S
C593 C591 1.327 . S
C594 C582 1.349 1_565 S
C594 H588 0.950 . S
C594 C595 1.327 . S
C595 H589 0.950 . S
C595 C594 1.327 . S
C595 C599 1.429 1_565 S
C596 C579 1.574 . S
C596 H590 0.949 . S
C596 C600 1.368 . S
C597 C578 1.429 . S
C597 C591 1.429 1_565 S
C597 C598 1.523 . S
C598 C579 1.368 1_565 S
C598 C592 1.368 . S
C598 C597 1.523 . S
C599 C583 1.429 . S
C599 C595 1.429 1_545 S
C599 C600 1.523 . S
C600 C584 1.368 1_545 S
C600 C596 1.368 . S
C600 C599 1.523 . S
H601 C576 0.950 . S
H602 C578 0.950 . S
H603 C579 0.949 . S
H604 C581 0.950 . S
H605 C583 0.950 . S
C606 C607 1.349 . S
C606 C608 1.327 . S
C606 H631 0.950 . S
C607 C606 1.349 . S
C607 C623 1.349 . S
C608 C606 1.327 . S
C608 C627 1.429 . S
C608 H632 0.950 . S
C609 C626 1.574 . S
C609 C628 1.368 . S
C609 H633 0.949 . S
H610 C614 0.949 . S
C611 C612 1.349 . S
C611 C613 1.327 . S
C611 H634 0.950 . S
C612 C611 1.349 . S
C612 C624 1.349 . S
C613 C611 1.327 . S
C613 C629 1.429 . S
C613 H635 0.950 . S
C614 H610 0.949 . S
C614 C622 1.574 . S
C614 C630 1.368 . S
H615 C623 0.950 . S
H616 C621 0.950 . S
H617 C622 0.949 . S
H618 C624 0.950 . S
H619 C625 0.950 . S
H620 C626 0.949 . S
C621 H616 0.950 . S
C621 C623 1.327 . S
C621 C627 1.429 . S
C622 C614 1.574 . S
C622 H617 0.949 . S
C622 C628 1.368 . S
C623 C607 1.349 . S
C623 H615 0.950 . S
C623 C621 1.327 . S
C624 C612 1.349 . S
C624 H618 0.950 . S
C624 C625 1.327 . S
C625 H619 0.950 . S
C625 C624 1.327 . S
C625 C629 1.429 . S
C626 C609 1.574 . S
C626 H620 0.949 . S
C626 C630 1.368 . S
C627 C608 1.429 . S
C627 C621 1.429 . S
C627 C628 1.523 . S
C628 C609 1.368 . S
C628 C622 1.368 . S
C628 C627 1.523 . S
C629 C613 1.429 . S
C629 C625 1.429 . S
C629 C630 1.523 . S
C630 C614 1.368 . S
C630 C626 1.368 . S
C630 C629 1.523 . S
H631 C606 0.950 . S
H632 C608 0.950 . S
H633 C609 0.949 . S
H634 C611 0.950 . S
H635 C613 0.950 . S
C636 C637 1.349 1_655 S
C636 C638 1.327 . S
C636 H661 0.950 . S
C637 C636 1.349 1_455 S
C637 C653 1.349 . S
C638 C636 1.327 . S
C638 C657 1.429 1_655 S
C638 H662 0.950 . S
C639 C656 1.574 . S
C639 C658 1.368 . S
C639 H663 0.949 . S
H640 C644 0.949 . S
C641 C642 1.349 1_455 S
C641 C643 1.327 . S
C641 H664 0.950 . S
C642 C641 1.349 1_655 S
C642 C654 1.349 . S
C643 C641 1.327 . S
C643 C659 1.429 1_455 S
C643 H665 0.950 . S
C644 H640 0.949 . S
C644 C652 1.574 . S
C644 C660 1.368 . S
H645 C653 0.950 . S
H646 C651 0.950 . S
H647 C652 0.949 . S
H648 C654 0.950 . S
H649 C655 0.950 . S
H650 C656 0.949 . S
C651 H646 0.950 . S
C651 C653 1.327 . S
C651 C657 1.429 . S
C652 C644 1.574 . S
C652 H647 0.949 . S
C652 C658 1.368 1_655 S
C653 C637 1.349 . S
C653 H645 0.950 . S
C653 C651 1.327 . S
C654 C642 1.349 . S
C654 H648 0.950 . S
C654 C655 1.327 . S
C655 H649 0.950 . S
C655 C654 1.327 . S
C655 C659 1.429 . S
C656 C639 1.574 . S
C656 H650 0.949 . S
C656 C660 1.368 1_455 S
C657 C638 1.429 1_455 S
C657 C651 1.429 . S
C657 C658 1.523 . S
C658 C639 1.368 . S
C658 C652 1.368 1_455 S
C658 C657 1.523 . S
C659 C643 1.429 1_655 S
C659 C655 1.429 . S
C659 C660 1.523 . S
C660 C644 1.368 . S
C660 C656 1.368 1_655 S
C660 C659 1.523 . S
H661 C636 0.950 . S
H662 C638 0.950 . S
H663 C639 0.949 . S
H664 C641 0.950 . S
H665 C643 0.950 . S
C666 C667 1.349 . S
C666 C668 1.327 . S
C666 H691 0.950 . S
C667 C666 1.349 . S
C667 C683 1.349 1_565 S
C668 C666 1.327 . S
C668 C687 1.429 . S
C668 H692 0.950 . S
C669 C686 1.574 . S
C669 C688 1.368 1_545 S
C669 H693 0.949 . S
H670 C674 0.949 . S
C671 C672 1.349 . S
C671 C673 1.327 . S
C671 H694 0.950 . S
C672 C671 1.349 . S
C672 C684 1.349 1_545 S
C673 C671 1.327 . S
C673 C689 1.429 . S
C673 H695 0.950 . S
C674 H670 0.949 . S
C674 C682 1.574 . S
C674 C690 1.368 1_565 S
H675 C683 0.950 . S
H676 C681 0.950 . S
H677 C682 0.949 . S
H678 C684 0.950 . S
H679 C685 0.950 . S
H680 C686 0.949 . S
C681 H676 0.950 . S
C681 C683 1.327 . S
C681 C687 1.429 1_545 S
C682 C674 1.574 . S
C682 H677 0.949 . S
C682 C688 1.368 . S
C683 C667 1.349 1_545 S
C683 H675 0.950 . S
C683 C681 1.327 . S
C684 C672 1.349 1_565 S
C684 H678 0.950 . S
C684 C685 1.327 . S
C685 H679 0.950 . S
C685 C684 1.327 . S
C685 C689 1.429 1_565 S
C686 C669 1.574 . S
C686 H680 0.949 . S
C686 C690 1.368 . S
C687 C668 1.429 . S
C687 C681 1.429 1_565 S
C687 C688 1.523 . S
C688 C669 1.368 1_565 S
C688 C682 1.368 . S
C688 C687 1.523 . S
C689 C673 1.429 . S
C689 C685 1.429 1_545 S
C689 C690 1.523 . S
C690 C674 1.368 1_545 S
C690 C686 1.368 . S
C690 C689 1.523 . S
H691 C666 0.950 . S
H692 C668 0.950 . S
H693 C669 0.949 . S
H694 C671 0.950 . S
H695 C673 0.950 . S
C696 C697 1.349 . S
C696 C698 1.327 . S
C696 H721 0.950 . S
C697 C696 1.349 . S
C697 C713 1.349 . S
C698 C696 1.327 . S
C698 C717 1.429 . S
C698 H722 0.950 . S
C699 C716 1.574 . S
C699 C718 1.368 . S
C699 H723 0.949 . S
H700 C704 0.949 . S
C701 C702 1.349 . S
C701 C703 1.327 . S
C701 H724 0.950 . S
C702 C701 1.349 . S
C702 C714 1.349 . S
C703 C701 1.327 . S
C703 C719 1.429 . S
C703 H725 0.950 . S
C704 H700 0.949 . S
C704 C712 1.574 . S
C704 C720 1.368 . S
H705 C713 0.950 . S
H706 C711 0.950 . S
H707 C712 0.949 . S
H708 C714 0.950 . S
H709 C715 0.950 . S
H710 C716 0.949 . S
C711 H706 0.950 . S
C711 C713 1.327 . S
C711 C717 1.429 . S
C712 C704 1.574 . S
C712 H707 0.949 . S
C712 C718 1.368 . S
C713 C697 1.349 . S
C713 H705 0.950 . S
C713 C711 1.327 . S
C714 C702 1.349 . S
C714 H708 0.950 . S
C714 C715 1.327 . S
C715 H709 0.950 . S
C715 C714 1.327 . S
C715 C719 1.429 . S
C716 C699 1.574 . S
C716 H710 0.949 . S
C716 C720 1.368 . S
C717 C698 1.429 . S
C717 C711 1.429 . S
C717 C718 1.523 . S
C718 C699 1.368 . S
C718 C712 1.368 . S
C718 C717 1.523 . S
C719 C703 1.429 . S
C719 C715 1.429 . S
C719 C720 1.523 . S
C720 C704 1.368 . S
C720 C716 1.368 . S
C720 C719 1.523 . S
H721 C696 0.950 . S
H722 C698 0.950 . S
H723 C699 0.949 . S
H724 C701 0.950 . S
H725 C703 0.950 . S
C726 C727 1.349 . S
C726 C728 1.327 . S
C726 H751 0.950 . S
C727 C726 1.349 . S
C727 C743 1.349 . S
C728 C726 1.327 . S
C728 C747 1.429 . S
C728 H752 0.950 . S
C729 C746 1.574 . S
C729 C748 1.368 1_655 S
C729 H753 0.949 . S
H730 C734 0.949 . S
C731 C732 1.349 . S
C731 C733 1.327 . S
C731 H754 0.950 . S
C732 C731 1.349 . S
C732 C744 1.349 . S
C733 C731 1.327 . S
C733 C749 1.429 . S
C733 H755 0.950 . S
C734 H730 0.949 . S
C734 C742 1.574 . S
C734 C750 1.368 1_455 S
H735 C743 0.950 1_655 S
H736 C741 0.951 . S
H737 C742 0.949 . S
H738 C744 0.950 1_455 S
H739 C745 0.951 . S
H740 C746 0.949 . S
C741 H736 0.951 . S
C741 C743 1.328 1_655 S
C741 C747 1.426 1_655 S
C742 C734 1.574 . S
C742 H737 0.949 . S
C742 C748 1.368 . S
C743 C727 1.349 . S
C743 H735 0.950 1_455 S
C743 C741 1.328 1_455 S
C744 C732 1.349 . S
C744 H738 0.950 1_655 S
C744 C745 1.328 1_655 S
C745 H739 0.951 . S
C745 C744 1.328 1_455 S
C745 C749 1.426 1_455 S
C746 C729 1.574 . S
C746 H740 0.949 . S
C746 C750 1.368 . S
C747 C728 1.429 . S
C747 C741 1.426 1_455 S
C747 C748 1.523 . S
C748 C729 1.368 1_455 S
C748 C742 1.368 . S
C748 C747 1.523 . S
C749 C733 1.429 . S
C749 C745 1.426 1_655 S
C749 C750 1.523 . S
C750 C734 1.368 1_655 S
C750 C746 1.368 . S
C750 C749 1.523 . S
H751 C726 0.950 . S
H752 C728 0.950 . S
H753 C729 0.949 . S
H754 C731 0.950 . S
H755 C733 0.950 . S
C756 C757 1.349 . S
C756 C758 1.327 . S
C756 H781 0.950 . S
C757 C756 1.349 . S
C757 C773 1.349 . S
C758 C756 1.327 . S
C758 C777 1.429 . S
C758 H782 0.950 . S
C759 C776 1.574 . S
C759 C778 1.368 1_545 S
C759 H783 0.949 . S
H760 C764 0.949 . S
C761 C762 1.349 . S
C761 C763 1.327 . S
C761 H784 0.950 . S
C762 C761 1.349 . S
C762 C774 1.349 . S
C763 C761 1.327 . S
C763 C779 1.429 . S
C763 H785 0.950 . S
C764 H760 0.949 . S
C764 C772 1.574 . S
C764 C780 1.368 1_565 S
H765 C773 0.950 1_545 S
H766 C771 0.952 . S
H767 C772 0.949 . S
H768 C774 0.950 1_565 S
H769 C775 0.952 . S
H770 C776 0.949 . S
C771 H766 0.952 . S
C771 C773 1.325 1_545 S
C771 C777 1.429 1_545 S
C772 C764 1.574 . S
C772 H767 0.949 . S
C772 C778 1.368 . S
C773 C757 1.349 . S
C773 H765 0.950 1_565 S
C773 C771 1.325 1_565 S
C774 C762 1.349 . S
C774 H768 0.950 1_545 S
C774 C775 1.325 1_545 S
C775 H769 0.952 . S
C775 C774 1.325 1_565 S
C775 C779 1.429 1_565 S
C776 C759 1.574 . S
C776 H770 0.949 . S
C776 C780 1.368 . S
C777 C758 1.429 . S
C777 C771 1.429 1_565 S
C777 C778 1.523 . S
C778 C759 1.368 1_565 S
C778 C772 1.368 . S
C778 C777 1.523 . S
C779 C763 1.429 . S
C779 C775 1.429 1_545 S
C779 C780 1.523 . S
C780 C764 1.368 1_545 S
C780 C776 1.368 . S
C780 C779 1.523 . S
H781 C756 0.950 . S
H782 C758 0.950 . S
H783 C759 0.949 . S
H784 C761 0.950 . S
H785 C763 0.950 . S
C786 C787 1.349 . S
C786 C788 1.327 . S
C786 H811 0.950 . S
C787 C786 1.349 . S
C787 C803 1.349 . S
C788 C786 1.327 . S
C788 C807 1.429 . S
C788 H812 0.950 . S
C789 C806 1.574 . S
C789 C808 1.368 . S
C789 H813 0.949 . S
H790 C794 0.949 . S
C791 C792 1.349 . S
C791 C793 1.327 . S
C791 H814 0.950 . S
C792 C791 1.349 . S
C792 C804 1.349 . S
C793 C791 1.327 . S
C793 C809 1.429 . S
C793 H815 0.950 . S
C794 H790 0.949 . S
C794 C802 1.574 . S
C794 C810 1.368 . S
H795 C803 0.950 . S
H796 C801 0.950 . S
H797 C802 0.949 . S
H798 C804 0.950 . S
H799 C805 0.950 . S
H800 C806 0.949 . S
C801 H796 0.950 . S
C801 C803 1.327 . S
C801 C807 1.429 . S
C802 C794 1.574 . S
C802 H797 0.949 . S
C802 C808 1.368 . S
C803 C787 1.349 . S
C803 H795 0.950 . S
C803 C801 1.327 . S
C804 C792 1.349 . S
C804 H798 0.950 . S
C804 C805 1.327 . S
C805 H799 0.950 . S
C805 C804 1.327 . S
C805 C809 1.429 . S
C806 C789 1.574 . S
C806 H800 0.949 . S
C806 C810 1.368 . S
C807 C788 1.429 . S
C807 C801 1.429 . S
C807 C808 1.523 . S
C808 C789 1.368 . S
C808 C802 1.368 . S
C808 C807 1.523 . S
C809 C793 1.429 . S
C809 C805 1.429 . S
C809 C810 1.523 . S
C810 C794 1.368 . S
C810 C806 1.368 . S
C810 C809 1.523 . S
H811 C786 0.950 . S
H812 C788 0.950 . S
H813 C789 0.949 . S
H814 C791 0.950 . S
H815 C793 0.950 . S
C816 C817 1.349 . S
C816 C818 1.325 1_655 S
C816 H841 0.950 1_655 S
C817 C816 1.349 . S
C817 C833 1.349 . S
C818 C816 1.325 1_455 S
C818 C837 1.429 1_455 S
C818 H842 0.952 . S
C819 C836 1.574 . S
C819 C838 1.368 . S
C819 H843 0.949 . S
H820 C824 0.949 . S
C821 C822 1.349 . S
C821 C823 1.325 1_455 S
C821 H844 0.950 1_455 S
C822 C821 1.349 . S
C822 C834 1.349 . S
C823 C821 1.325 1_655 S
C823 C839 1.429 1_655 S
C823 H845 0.952 . S
C824 H820 0.949 . S
C824 C832 1.574 . S
C824 C840 1.368 . S
H825 C833 0.950 . S
H826 C831 0.950 . S
H827 C832 0.949 . S
H828 C834 0.950 . S
H829 C835 0.950 . S
H830 C836 0.949 . S
C831 H826 0.950 . S
C831 C833 1.327 . S
C831 C837 1.429 . S
C832 C824 1.574 . S
C832 H827 0.949 . S
C832 C838 1.368 1_455 S
C833 C817 1.349 . S
C833 H825 0.950 . S
C833 C831 1.327 . S
C834 C822 1.349 . S
C834 H828 0.950 . S
C834 C835 1.327 . S
C835 H829 0.950 . S
C835 C834 1.327 . S
C835 C839 1.429 . S
C836 C819 1.574 . S
C836 H830 0.949 . S
C836 C840 1.368 1_655 S
C837 C818 1.429 1_655 S
C837 C831 1.429 . S
C837 C838 1.523 . S
C838 C819 1.368 . S
C838 C832 1.368 1_655 S
C838 C837 1.523 . S
C839 C823 1.429 1_455 S
C839 C835 1.429 . S
C839 C840 1.523 . S
C840 C824 1.368 . S
C840 C836 1.368 1_455 S
C840 C839 1.523 . S
H841 C816 0.950 1_455 S
H842 C818 0.952 . S
H843 C819 0.949 . S
H844 C821 0.950 1_655 S
H845 C823 0.952 . S
C846 C847 1.349 . S
C846 C848 1.327 . S
C846 H871 0.950 . S
C847 C846 1.349 . S
C847 C863 1.349 . S
C848 C846 1.327 . S
C848 C867 1.429 . S
C848 H872 0.950 . S
C849 C866 1.574 . S
C849 C868 1.368 1_565 S
C849 H873 0.949 . S
H850 C854 0.949 . S
C851 C852 1.349 . S
C851 C853 1.327 . S
C851 H874 0.950 . S
C852 C851 1.349 . S
C852 C864 1.349 . S
C853 C851 1.327 . S
C853 C869 1.429 . S
C853 H875 0.950 . S
C854 H850 0.949 . S
C854 C862 1.574 . S
C854 C870 1.368 1_545 S
H855 C863 0.950 1_565 S
H856 C861 0.951 . S
H857 C862 0.949 . S
H858 C864 0.950 1_545 S
H859 C865 0.951 . S
H860 C866 0.949 . S
C861 H856 0.951 . S
C861 C863 1.328 1_565 S
C861 C867 1.426 1_565 S
C862 C854 1.574 . S
C862 H857 0.949 . S
C862 C868 1.368 . S
C863 C847 1.349 . S
C863 H855 0.950 1_545 S
C863 C861 1.328 1_545 S
C864 C852 1.349 . S
C864 H858 0.950 1_565 S
C864 C865 1.328 1_565 S
C865 H859 0.951 . S
C865 C864 1.328 1_545 S
C865 C869 1.426 1_545 S
C866 C849 1.574 . S
C866 H860 0.949 . S
C866 C870 1.368 . S
C867 C848 1.429 . S
C867 C861 1.426 1_545 S
C867 C868 1.523 . S
C868 C849 1.368 1_545 S
C868 C862 1.368 . S
C868 C867 1.523 . S
C869 C853 1.429 . S
C869 C865 1.426 1_565 S
C869 C870 1.523 . S
C870 C854 1.368 1_565 S
C870 C866 1.368 . S
C870 C869 1.523 . S
H871 C846 0.950 . S
H872 C848 0.950 . S
H873 C849 0.949 . S
H874 C851 0.950 . S
H875 C853 0.950 . S
C157 C5 1.363 . S
C162 C122 1.363 . S
C187 C16 1.363 . S
C192 C133 1.363 . S
C217 C31 1.363 . S
C222 C148 1.363 . S
C247 C42 1.363 . S
C252 C83 1.363 . S
C277 C96 1.363 . S
C282 C57 1.363 . S
C307 C109 1.363 . S
C312 C68 1.363 . S
C337 C134 1.639 . S
C342 C10 1.639 . S
C367 C17 1.639 . S
C372 C153 1.639 . S
C397 C36 1.639 . S
C402 C88 1.639 . S
C427 C43 1.639 . S
C432 C101 1.639 . S
C457 C62 1.639 . S
C462 C114 1.639 . S
C487 C69 1.639 . S
C492 C127 1.639 . S
C517 C121 0.940 . S
C522 C4 0.940 1_556 S
C547 C23 0.940 . S
C552 C140 0.940 1_554 S
C577 C30 0.940 . S
C582 C147 0.940 . S
C607 C82 0.940 . S
C612 C49 0.940 1_556 S
C637 C56 0.940 . S
C642 C95 0.940 1_554 S
C667 C108 0.940 . S
C672 C75 0.940 . S
C697 C3 1.631 . S
C702 C44 1.631 . S
C727 C55 1.631 . S
C732 C18 1.631 . S
C757 C29 1.631 . S
C762 C70 1.631 . S
C787 C81 1.631 . S
C792 C120 1.631 . S
C817 C94 1.631 . S
C822 C135 1.631 . S
C847 C146 1.631 . S
C852 C107 1.631 . S
