# Generated by pormake.
# Topology wli, (5)-cn, num edge types: 1
# Building blocks:
#     Node 0, Type 0, BuildingBlock: XOMCOT_clean_sbu_1, # of connection points: 5
#     Node 1, Type 0, BuildingBlock: XOMCOT_clean_sbu_1, # of connection points: 5
#     Node 2, Type 0, BuildingBlock: XOMCOT_clean_sbu_1, # of connection points: 5
#     Node 3, Type 0, BuildingBlock: XOMCOT_clean_sbu_1, # of connection points: 5
#     Node 4, Type 0, BuildingBlock: XOMCOT_clean_sbu_1, # of connection points: 5
#     Node 5, Type 0, BuildingBlock: XOMCOT_clean_sbu_1, # of connection points: 5
#     Edge 6, Type (0, 0), BuildingBlock: AJUNOK_clean_linker_0, # of connection points: 2
#     Edge 7, Type (0, 0), BuildingBlock: AJUNOK_clean_linker_0, # of connection points: 2
#     Edge 8, Type (0, 0), BuildingBlock: AJUNOK_clean_linker_0, # of connection points: 2
#     Edge 9, Type (0, 0), BuildingBlock: AJUNOK_clean_linker_0, # of connection points: 2
#     Edge 10, Type (0, 0), BuildingBlock: AJUNOK_clean_linker_0, # of connection points: 2
#     Edge 11, Type (0, 0), BuildingBlock: AJUNOK_clean_linker_0, # of connection points: 2
#     Edge 12, Type (0, 0), BuildingBlock: AJUNOK_clean_linker_0, # of connection points: 2
#     Edge 13, Type (0, 0), BuildingBlock: AJUNOK_clean_linker_0, # of connection points: 2
#     Edge 14, Type (0, 0), BuildingBlock: AJUNOK_clean_linker_0, # of connection points: 2
#     Edge 15, Type (0, 0), BuildingBlock: AJUNOK_clean_linker_0, # of connection points: 2
#     Edge 16, Type (0, 0), BuildingBlock: AJUNOK_clean_linker_0, # of connection points: 2
#     Edge 17, Type (0, 0), BuildingBlock: AJUNOK_clean_linker_0, # of connection points: 2
#     Edge 18, Type (0, 0), BuildingBlock: AJUNOK_clean_linker_0, # of connection points: 2
#     Edge 19, Type (0, 0), BuildingBlock: AJUNOK_clean_linker_0, # of connection points: 2
#     Edge 20, Type (0, 0), BuildingBlock: AJUNOK_clean_linker_0, # of connection points: 2
# Relax obj value: 0.117
# Max RMSD: 0.139
# Mean RMSD: 0.139
data_MOF--net-wli--node1-XOMCOT_clean_sbu_1--edge1-AJUNOK_clean_linker_0
_symmetry_space_group_name_H-M    P1
_symmetry_Int_Tables_number       1
_symmetry_cell_setting            triclinic
loop_
_symmetry_equiv_pos_as_xyz
'x, y, z'
_cell_length_a     25.987485
_cell_length_b     26.101923
_cell_length_c     21.518634
_cell_angle_alpha  90.299806
_cell_angle_beta   89.974025
_cell_angle_gamma 119.57607
loop_
_atom_site_label
_atom_site_type_symbol
_atom_site_fract_x
_atom_site_fract_y
_atom_site_fract_z
_atom_type_partial_charge
C0 C 0.26521 0.55754 0.03963 0.0
C1 C 0.30483 0.60747 0.0084 0.0
N2 N 0.35811 0.61045 0.00908 0.0
N3 N 0.29312 0.52872 0.05925 0.0
C4 C 0.34953 0.56176 0.03989 0.0
H5 H 0.21947 0.54409 0.04949 0.0
Co6 Co 0.26049 0.46577 0.11371 0.0
C7 C 0.31039 0.38991 0.0783 0.0
O8 O 0.2565 0.34604 0.0872 0.0
N9 N 0.22646 0.40415 0.17378 0.0
C10 C 0.21878 0.34975 0.25694 0.0
C11 C 0.25569 0.38496 0.21052 0.0
C12 C 0.17276 0.38212 0.20141 0.0
N13 N 0.16636 0.34774 0.25071 0.0
O14 O 0.30928 0.51813 0.17762 0.0
H15 H 0.30212 0.39846 0.20629 0.0
H16 H 0.14109 0.39609 0.19081 0.0
O17 O 0.32145 0.44288 0.0894 0.0
C18 C 0.27944 0.53641 0.20832 0.0
O19 O 0.22284 0.51376 0.19595 0.0
N20 N 0.20987 0.41764 0.04904 0.0
C21 C 0.13426 0.35774 0.9497 0.0
C22 C 0.19569 0.38449 0.94269 0.0
C23 C 0.23262 0.41472 0.99257 0.0
C24 C 0.15037 0.39511 0.05506 0.0
C25 C 0.11171 0.36328 0.00694 0.0
H26 H 0.27975 0.43808 0.98465 0.0
H27 H 0.13241 0.40479 0.09533 0.0
H28 H 0.38358 0.55049 0.04903 0.0
H29 H 0.29551 0.63999 0.9884 0.0
H30 H 0.23035 0.32925 0.29387 0.0
H31 H 0.21536 0.38483 0.89821 0.0
H32 H 0.06463 0.34537 0.01375 0.0
C33 C 0.54957 0.72976 0.6922 0.0
C34 C 0.50093 0.72273 0.65952 0.0
N35 N 0.49154 0.76783 0.67399 0.0
N36 N 0.57179 0.77985 0.72592 0.0
C37 C 0.53522 0.80159 0.71458 0.0
H38 H 0.56845 0.70098 0.69043 0.0
Co39 Co 0.6365 0.80957 0.77961 0.0
C40 C 0.71231 0.93322 0.7404 0.0
O41 O 0.75659 0.92345 0.75051 0.0
N42 N 0.69955 0.83674 0.83857 0.0
C43 C 0.75432 0.88331 0.92206 0.0
C44 C 0.72034 0.88586 0.8743 0.0
C45 C 0.71969 0.80406 0.86784 0.0
N46 N 0.75361 0.83159 0.91787 0.0
O47 O 0.58568 0.80733 0.8448 0.0
H48 H 0.70842 0.91982 0.86875 0.0
H49 H 0.70467 0.75833 0.85761 0.0
O50 O 0.65954 0.89287 0.75451 0.0
C51 C 0.56734 0.75835 0.87263 0.0
O52 O 0.58769 0.72345 0.85504 0.0
N53 N 0.6833 0.8057 0.71373 0.0
C54 C 0.73452 0.7842 0.61043 0.0
C55 C 0.70802 0.81912 0.60509 0.0
C56 C 0.68194 0.82864 0.65701 0.0
C57 C 0.70776 0.77009 0.71871 0.0
C58 C 0.7348 0.75975 0.66785 0.0
H59 H 0.65761 0.85184 0.65043 0.0
H60 H 0.70265 0.74564 0.76026 0.0
H61 H 0.54077 0.84164 0.73588 0.0
H62 H 0.47639 0.68842 0.62567 0.0
H63 H 0.77579 0.91587 0.95843 0.0
H64 H 0.70482 0.83637 0.56043 0.0
H65 H 0.75226 0.72985 0.67231 0.0
C66 C 0.38658 0.84404 0.37157 0.0
C67 C 0.39754 0.80443 0.34011 0.0
N68 N 0.34708 0.75213 0.33819 0.0
N69 N 0.32955 0.81697 0.38961 0.0
C70 C 0.30669 0.76093 0.36913 0.0
H71 H 0.41847 0.88944 0.38204 0.0
Co72 Co 0.29703 0.8522 0.4398 0.0
C73 C 0.17533 0.80588 0.39132 0.0
O74 O 0.18608 0.86043 0.39723 0.0
N75 N 0.26756 0.88887 0.49553 0.0
C76 C 0.21704 0.90282 0.57167 0.0
C77 C 0.2152 0.86468 0.52589 0.0
C78 C 0.30118 0.94018 0.52665 0.0
N79 N 0.27123 0.95067 0.57149 0.0
O80 O 0.29785 0.80515 0.50735 0.0
H81 H 0.17894 0.82059 0.51812 0.0
H82 H 0.34844 0.96712 0.52084 0.0
O83 O 0.21414 0.7926 0.41101 0.0
C84 C 0.34948 0.83702 0.53049 0.0
O85 O 0.3828 0.88969 0.50695 0.0
N86 N 0.30372 0.90198 0.37246 0.0
C87 C 0.32957 0.9744 0.26884 0.0
C88 C 0.29942 0.91323 0.26201 0.0
C89 C 0.28705 0.87788 0.31425 0.0
C90 C 0.33444 0.96178 0.37924 0.0
C91 C 0.34616 0.99871 0.32843 0.0
H92 H 0.26554 0.83077 0.30733 0.0
H93 H 0.35313 0.982 0.42295 0.0
H94 H 0.26132 0.72719 0.37694 0.0
H95 H 0.43995 0.81324 0.322 0.0
H96 H 0.18201 0.89504 0.60398 0.0
H97 H 0.28707 0.89277 0.21647 0.0
H98 H 0.36995 0.04598 0.33559 0.0
C99 C 0.58558 0.24368 0.94586 0.0
C100 C 0.63469 0.2813 0.98016 0.0
N101 N 0.63537 0.33304 0.98646 0.0
N102 N 0.55537 0.27143 0.93057 0.0
C103 C 0.58693 0.32592 0.95544 0.0
H104 H 0.57339 0.19937 0.93139 0.0
Co105 Co 0.48983 0.23883 0.87827 0.0
C106 C 0.41462 0.28837 0.91941 0.0
O107 O 0.37023 0.23531 0.90819 0.0
N108 N 0.42546 0.20459 0.82062 0.0
C109 C 0.3723 0.19937 0.73672 0.0
C110 C 0.40794 0.23516 0.78391 0.0
C111 C 0.40097 0.15067 0.79301 0.0
N112 N 0.36812 0.14624 0.74265 0.0
O113 O 0.54003 0.28687 0.81317 0.0
H114 H 0.42364 0.28186 0.78826 0.0
H115 H 0.41248 0.11737 0.80404 0.0
O116 O 0.46745 0.29967 0.90562 0.0
C117 C 0.55595 0.25613 0.7806 0.0
O118 O 0.5321 0.1996 0.79217 0.0
N119 N 0.44467 0.18911 0.94405 0.0
C120 C 0.39757 0.1178 0.04785 0.0
C121 C 0.42098 0.17853 0.05284 0.0
C122 C 0.44549 0.21346 0.00084 0.0
C123 C 0.42369 0.12991 0.93934 0.0
C124 C 0.39833 0.09309 0.99036 0.0
H125 H 0.4683 0.26057 0.00758 0.0
H126 H 0.43097 0.11129 0.898 0.0
H127 H 0.57487 0.35988 0.95052 0.0
H128 H 0.66827 0.27179 0.99706 0.0
H129 H 0.35371 0.21235 0.699 0.0
H130 H 0.423 0.19913 0.09732 0.0
H131 H 0.38336 0.04644 0.98602 0.0
C132 C 0.86814 0.34834 0.64044 0.0
C133 C 0.8279 0.3597 0.67014 0.0
N134 N 0.77328 0.31342 0.66097 0.0
N135 N 0.83921 0.29484 0.61326 0.0
C136 C 0.78161 0.2745 0.62663 0.0
H137 H 0.9153 0.37791 0.63705 0.0
Co138 Co 0.87325 0.26507 0.55813 0.0
C139 C 0.81886 0.13892 0.58745 0.0
O140 O 0.87276 0.14724 0.581 0.0
N141 N 0.9086 0.2385 0.49756 0.0
C142 C 0.91683 0.19441 0.41176 0.0
C143 C 0.88007 0.19115 0.45948 0.0
C144 C 0.96177 0.27124 0.46943 0.0
N145 N 0.96819 0.24512 0.41798 0.0
O146 O 0.82984 0.2756 0.49246 0.0
H147 H 0.83391 0.15817 0.46324 0.0
H148 H 0.9929 0.31627 0.4819 0.0
O149 O 0.80921 0.18191 0.57655 0.0
C150 C 0.86343 0.32816 0.47367 0.0
O151 O 0.9162 0.35824 0.49904 0.0
N152 N 0.9194 0.26116 0.62446 0.0
C153 C 0.98721 0.2738 0.72967 0.0
C154 C 0.92559 0.24188 0.73259 0.0
C155 C 0.89252 0.2365 0.67969 0.0
C156 C 0.97966 0.29283 0.62148 0.0
C157 C 1.01449 0.2986 0.67323 0.0
H158 H 0.84509 0.21541 0.68437 0.0
H159 H 1.00142 0.31765 0.58088 0.0
H160 H 0.74669 0.23207 0.61099 0.0
H161 H 0.83799 0.39969 0.69513 0.0
H162 H 0.90559 0.16319 0.37391 0.0
H163 H 0.9032 0.22385 0.77619 0.0
H164 H 1.06214 0.32587 0.67037 0.0
C165 C 0.75503 0.5259 0.30719 0.0
C166 C 0.74905 0.47858 0.34085 0.0
N167 N 0.79663 0.47211 0.32988 0.0
N168 N 0.80669 0.54998 0.27613 0.0
C169 C 0.83086 0.51615 0.29046 0.0
H170 H 0.72394 0.54209 0.30575 0.0
Co171 Co 0.833 0.61229 0.22092 0.0
C172 C 0.95875 0.69141 0.25152 0.0
O173 O 0.94616 0.73403 0.24466 0.0
N174 N 0.85711 0.67368 0.16075 0.0
C175 C 0.90087 0.7266 0.07604 0.0
C176 C 0.90366 0.69135 0.12176 0.0
C177 C 0.82557 0.69726 0.13558 0.0
N178 N 0.85167 0.73043 0.08495 0.0
O179 O 0.82952 0.56031 0.15629 0.0
H180 H 0.93589 0.67664 0.124 0.0
H181 H 0.78126 0.68553 0.14921 0.0
O182 O 0.918 0.63777 0.24218 0.0
C183 C 0.78054 0.54193 0.12755 0.0
O184 O 0.7463 0.56381 0.14282 0.0
N185 N 0.82962 0.65947 0.28587 0.0
C186 C 0.80389 0.70908 0.38796 0.0
C187 C 0.84715 0.69226 0.39231 0.0
C188 C 0.8584 0.6663 0.34122 0.0
C189 C 0.7862 0.67416 0.28185 0.0
C190 C 0.774 0.70087 0.3315 0.0
H191 H 0.8874 0.6482 0.34783 0.0
H192 H 0.75716 0.66066 0.24232 0.0
H193 H 0.87254 0.52334 0.27171 0.0
H194 H 0.71337 0.45247 0.37254 0.0
H195 H 0.93124 0.74571 0.03758 0.0
H196 H 0.86942 0.69566 0.43597 0.0
H197 H 0.73928 0.71212 0.32672 0.0
C198 C 0.29508 0.64338 0.33422 0.0
C199 C 0.33763 0.6979 0.30963 0.0
C200 C 0.2799 0.59035 0.30344 0.0
C201 C 0.30758 0.5896 0.24765 0.0
H202 H 0.27193 0.64174 0.37664 0.0
H203 H 0.24438 0.54972 0.32206 0.0
S204 S 0.42254 0.71918 0.1638 0.0
N205 N 0.40773 0.74724 0.22573 0.0
N206 N 0.3804 0.64706 0.16953 0.0
C207 C 0.35238 0.64315 0.2241 0.0
C208 C 0.36717 0.69745 0.25473 0.0
C209 C 0.46131 0.72307 0.89453 0.0
C210 C 0.51703 0.73436 0.91567 0.0
C211 C 0.40966 0.68425 0.92671 0.0
C212 C 0.41207 0.65557 0.98114 0.0
H213 H 0.45726 0.74077 0.85049 0.0
H214 H 0.36743 0.67409 0.90677 0.0
S215 S 0.54914 0.6794 0.06054 0.0
N216 N 0.57279 0.71951 0.99694 0.0
N217 N 0.47631 0.64866 0.0591 0.0
C218 C 0.46822 0.67043 0.00506 0.0
C219 C 0.52055 0.70933 0.97186 0.0
C220 C 0.42894 0.85781 0.60659 0.0
C221 C 0.37709 0.81568 0.57626 0.0
C222 C 0.46451 0.84156 0.64015 0.0
C223 C 0.44978 0.78222 0.64562 0.0
H224 H 0.44396 0.90442 0.60211 0.0
H225 H 0.5055 0.87639 0.6592 0.0
S226 S 0.31334 0.65374 0.58335 0.0
N227 N 0.30931 0.71153 0.55883 0.0
N228 N 0.37508 0.68029 0.62434 0.0
C229 C 0.39561 0.73906 0.61936 0.0
C230 C 0.35941 0.75591 0.5844 0.0
C231 C 0.66426 0.32153 0.77038 0.0
C232 C 0.60972 0.28305 0.74239 0.0
C233 C 0.71764 0.33305 0.74226 0.0
C234 C 0.71832 0.3067 0.68506 0.0
H235 H 0.66559 0.33913 0.81646 0.0
H236 H 0.75842 0.36005 0.76737 0.0
S237 S 0.58655 0.21087 0.58841 0.0
N238 N 0.55903 0.22351 0.65212 0.0
N239 N 0.65915 0.24744 0.59741 0.0
C240 C 0.66388 0.27191 0.65447 0.0
C241 C 0.60964 0.25954 0.68364 0.0
C242 C 0.87112 0.44949 0.37225 0.0
C243 C 0.81159 0.43163 0.35958 0.0
C244 C 0.88695 0.41401 0.4064 0.0
C245 C 0.84404 0.359 0.42979 0.0
H246 H 0.9059 0.49245 0.35799 0.0
H247 H 0.93351 0.43106 0.41617 0.0
S248 S 0.68222 0.28813 0.40317 0.0
N249 N 0.70956 0.35221 0.36754 0.0
N250 N 0.73951 0.28606 0.43357 0.0
C251 C 0.78444 0.33896 0.4149 0.0
C252 C 0.76817 0.37521 0.37959 0.0
C253 C 0.69142 0.44142 0.99674 0.0
C254 C 0.67902 0.38562 0.01815 0.0
C255 C 0.72865 0.49279 0.03019 0.0
C256 C 0.75594 0.49054 0.08563 0.0
H257 H 0.67084 0.44534 0.95467 0.0
H258 H 0.73423 0.53446 0.01391 0.0
S259 S 0.73902 0.35643 0.1622 0.0
N260 N 0.69768 0.33171 0.09896 0.0
N261 N 0.7692 0.42884 0.16042 0.0
C262 C 0.74645 0.43569 0.10625 0.0
C263 C 0.70765 0.38304 0.0728 0.0
C264 C 1.01353 0.3243 0.83177 0.0
C265 C 1.02228 0.28991 0.78726 0.0
C266 C 1.04916 0.34485 0.88472 0.0
C267 C 0.09439 0.33108 0.8955 0.0
H268 H 0.98014 0.33708 0.82451 0.0
H269 H 1.04236 0.37339 0.91631 0.0
S270 S 0.13104 0.23761 0.79486 0.0
N271 N 0.07689 0.24047 0.75771 0.0
N272 N 0.14294 0.27712 0.85892 0.0
C273 C 0.10215 0.29488 0.85208 0.0
C274 C 0.06629 0.27475 0.79753 0.0
C275 C 0.8285 0.77316 0.48266 0.0
C276 C 0.78568 0.72895 0.44403 0.0
C277 C 0.81197 0.79107 0.53706 0.0
C278 C 0.75225 0.7652 0.55409 0.0
H279 H 0.87496 0.79412 0.47056 0.0
H280 H 0.84582 0.82538 0.56575 0.0
S281 S 0.62374 0.6454 0.47201 0.0
N282 N 0.68133 0.65767 0.42903 0.0
N283 N 0.65058 0.69261 0.53051 0.0
C284 C 0.7092 0.72083 0.5165 0.0
C285 C 0.72584 0.70237 0.46153 0.0
C286 C 0.32219 1.03568 0.11186 0.0
C287 C 0.38036 0.08185 0.10431 0.0
C288 C 0.30571 1.00152 0.16584 0.0
C289 C 0.34712 1.01237 0.21341 0.0
H290 H 0.28931 1.02635 0.07613 0.0
H291 H 0.26031 0.96652 0.17049 0.0
S292 S 0.50637 0.12524 0.21227 0.0
N293 N 0.48 0.13521 0.14644 0.0
N294 N 0.44964 0.07018 0.24729 0.0
C295 C 0.40572 0.05791 0.20555 0.0
C296 C 0.42222 0.09284 0.15102 0.0
C297 C 0.37128 0.29481 0.01964 0.0
C298 C 0.4034 0.32401 0.96619 0.0
C299 C 0.34704 0.31997 0.05917 0.0
C300 C 0.35283 0.37541 0.04695 0.0
H301 H 0.36158 0.25026 0.02928 0.0
H302 H 0.31989 0.29376 0.0975 0.0
S303 S 0.43794 0.4734 0.91666 0.0
N304 N 0.4445 0.41406 0.90602 0.0
N305 N 0.39795 0.46154 0.98026 0.0
C306 C 0.38865 0.40742 0.99633 0.0
C307 C 0.41399 0.38159 0.95585 0.0
C308 C 0.77946 1.03219 0.60206 0.0
C309 C 0.7746 0.08225 0.61615 0.0
C310 C 0.75494 0.98276 0.64051 0.0
C311 C 0.72338 0.98025 0.69464 0.0
H312 H 0.80651 1.03288 0.56335 0.0
H313 H 0.76423 0.94761 0.62961 0.0
S314 S 0.69046 0.09612 0.74841 0.0
N315 N 0.73031 0.12398 0.6849 0.0
N316 N 0.68322 1.02994 0.75712 0.0
C317 C 0.71334 1.02764 0.70662 0.0
C318 C 0.73899 0.07882 0.66725 0.0
C319 C 0.07844 0.71207 0.36771 0.0
C320 C 0.1258 0.76675 0.34871 0.0
C321 C 1.02524 0.68326 0.33258 0.0
C322 C 1.01823 0.70818 0.2773 0.0
H323 H 0.08073 0.6938 0.41202 0.0
H324 H 0.98803 0.64401 0.35132 0.0
S325 S 0.13165 0.84579 0.20339 0.0
N326 N 0.16322 0.84107 0.26793 0.0
N327 N 0.06553 0.78657 0.20209 0.0
C328 C 0.06711 0.75986 0.25563 0.0
C329 C 0.12022 0.78928 0.29131 0.0
C330 C 0.07586 0.29787 0.39771 0.0
C331 C 1.01735 0.26996 0.37521 0.0
C332 C 0.12439 0.32225 0.35691 0.0
C333 C 0.11618 0.32068 0.2921 0.0
H334 H 0.08402 0.30032 0.44728 0.0
H335 H 0.16865 0.34351 0.37624 0.0
S336 S 0.97199 0.25411 0.20961 0.0
N337 N 0.95408 0.24313 0.28391 0.0
N338 N 1.04501 0.28888 0.20746 0.0
C339 C 1.05789 0.29322 0.2691 0.0
C340 C 1.00857 0.26783 0.31053 0.0
C341 C 0.80823 0.77826 0.93819 0.0
C342 C 0.77859 0.80734 0.96076 0.0
C343 C 0.83271 0.75404 0.9789 0.0
C344 C 0.82748 0.75694 0.04383 0.0
H345 H 0.81288 0.77472 0.88858 0.0
H346 H 0.85493 0.73188 0.95937 0.0
S347 S 0.75222 0.82656 0.12646 0.0
N348 N 0.74421 0.83655 0.05212 0.0
N349 N 0.78999 0.79098 0.12861 0.0
C350 C 0.79744 0.78545 0.06694 0.0
C351 C 0.77315 0.81073 0.02547 0.0
C352 C 0.30496 0.04014 0.71943 0.0
C353 C 0.34286 0.09789 0.69887 0.0
C354 C 0.28066 0.9923 0.67752 0.0
C355 C 0.29463 1.00038 0.61379 0.0
H356 H 0.29388 1.03214 0.76824 0.0
H357 H 0.2518 0.94853 0.69527 0.0
S358 S 0.39329 0.14278 0.53707 0.0
N359 N 0.39395 0.16038 0.61103 0.0
N360 N 0.34902 0.07079 0.53245 0.0
C361 C 0.33288 0.05796 0.5929 0.0
C362 C 0.35678 0.10663 0.63535 0.0
loop_
_geom_bond_atom_site_label_1
_geom_bond_atom_site_label_2
_geom_bond_distance
_geom_bond_site_symmetry_2
_ccdc_geom_bond_type
C0 C1 1.351 . S
C0 N3 1.368 1_556 S
C0 H5 0.931 1_556 S
C1 C0 1.351 . S
C1 N2 1.373 . S
C1 H29 0.930 . S
N2 C1 1.373 . S
N2 C4 1.340 . S
N3 C0 1.368 1_554 S
N3 C4 1.321 1_554 S
N3 Co6 2.135 . S
C4 N2 1.340 . S
C4 N3 1.321 1_556 S
C4 H28 0.930 . S
H5 C0 0.931 1_554 S
Co6 N3 2.135 . S
Co6 N9 2.121 . S
Co6 O14 2.055 . S
Co6 O17 2.039 . S
Co6 N20 2.140 . S
C7 O8 1.227 . S
C7 O17 1.265 . S
O8 C7 1.227 . S
N9 Co6 2.121 . S
N9 C11 1.375 . S
N9 C12 1.313 . S
C10 C11 1.338 . S
C10 N13 1.377 . S
C10 H30 0.930 . S
C11 N9 1.375 . S
C11 C10 1.338 . S
C11 H15 0.931 . S
C12 N9 1.313 . S
C12 N13 1.344 . S
C12 H16 0.930 . S
N13 C10 1.377 . S
N13 C12 1.344 . S
O14 Co6 2.055 . S
O14 C18 1.253 . S
H15 C11 0.931 . S
H16 C12 0.930 . S
O17 Co6 2.039 . S
O17 C7 1.265 . S
C18 O14 1.253 . S
C18 O19 1.227 . S
O19 C18 1.227 . S
N20 Co6 2.140 . S
N20 C23 1.346 1_554 S
N20 C24 1.345 . S
C21 C22 1.387 . S
C21 C25 1.391 . S
C22 C21 1.387 . S
C22 C23 1.369 . S
C22 H31 0.929 . S
C23 N20 1.346 1_556 S
C23 C22 1.369 . S
C23 H26 0.928 . S
C24 N20 1.345 . S
C24 C25 1.371 1_554 S
C24 H27 0.931 . S
C25 C21 1.391 . S
C25 C24 1.371 1_556 S
C25 H32 0.930 . S
H26 C23 0.928 . S
H27 C24 0.931 . S
H28 C4 0.930 . S
H29 C1 0.930 . S
H30 C10 0.930 . S
H31 C22 0.929 . S
H32 C25 0.930 . S
C33 C34 1.351 . S
C33 N36 1.368 . S
C33 H38 0.931 . S
C34 C33 1.351 . S
C34 N35 1.373 . S
C34 H62 0.930 . S
N35 C34 1.373 . S
N35 C37 1.340 . S
N36 C33 1.368 . S
N36 C37 1.321 . S
N36 Co39 2.135 . S
C37 N35 1.340 . S
C37 N36 1.321 . S
C37 H61 0.930 . S
H38 C33 0.931 . S
Co39 N36 2.135 . S
Co39 N42 2.121 . S
Co39 O47 2.055 . S
Co39 O50 2.039 . S
Co39 N53 2.140 . S
C40 O41 1.227 . S
C40 O50 1.265 . S
O41 C40 1.227 . S
N42 Co39 2.121 . S
N42 C44 1.375 . S
N42 C45 1.313 . S
C43 C44 1.338 . S
C43 N46 1.377 . S
C43 H63 0.930 . S
C44 N42 1.375 . S
C44 C43 1.338 . S
C44 H48 0.931 . S
C45 N42 1.313 . S
C45 N46 1.344 . S
C45 H49 0.930 . S
N46 C43 1.377 . S
N46 C45 1.344 . S
O47 Co39 2.055 . S
O47 C51 1.253 . S
H48 C44 0.931 . S
H49 C45 0.930 . S
O50 Co39 2.039 . S
O50 C40 1.265 . S
C51 O47 1.253 . S
C51 O52 1.227 . S
O52 C51 1.227 . S
N53 Co39 2.140 . S
N53 C56 1.346 . S
N53 C57 1.345 . S
C54 C55 1.387 . S
C54 C58 1.391 . S
C55 C54 1.387 . S
C55 C56 1.369 . S
C55 H64 0.929 . S
C56 N53 1.346 . S
C56 C55 1.369 . S
C56 H59 0.928 . S
C57 N53 1.345 . S
C57 C58 1.371 . S
C57 H60 0.931 . S
C58 C54 1.391 . S
C58 C57 1.371 . S
C58 H65 0.930 . S
H59 C56 0.928 . S
H60 C57 0.931 . S
H61 C37 0.930 . S
H62 C34 0.930 . S
H63 C43 0.930 . S
H64 C55 0.929 . S
H65 C58 0.930 . S
C66 C67 1.351 . S
C66 N69 1.368 . S
C66 H71 0.931 . S
C67 C66 1.351 . S
C67 N68 1.373 . S
C67 H95 0.930 . S
N68 C67 1.373 . S
N68 C70 1.340 . S
N69 C66 1.368 . S
N69 C70 1.321 . S
N69 Co72 2.135 . S
C70 N68 1.340 . S
C70 N69 1.321 . S
C70 H94 0.930 . S
H71 C66 0.931 . S
Co72 N69 2.135 . S
Co72 N75 2.121 . S
Co72 O80 2.055 . S
Co72 O83 2.039 . S
Co72 N86 2.140 . S
C73 O74 1.227 . S
C73 O83 1.265 . S
O74 C73 1.227 . S
N75 Co72 2.121 . S
N75 C77 1.375 . S
N75 C78 1.313 . S
C76 C77 1.338 . S
C76 N79 1.377 . S
C76 H96 0.930 . S
C77 N75 1.375 . S
C77 C76 1.338 . S
C77 H81 0.931 . S
C78 N75 1.313 . S
C78 N79 1.344 . S
C78 H82 0.930 . S
N79 C76 1.377 . S
N79 C78 1.344 . S
O80 Co72 2.055 . S
O80 C84 1.253 . S
H81 C77 0.931 . S
H82 C78 0.930 . S
O83 Co72 2.039 . S
O83 C73 1.265 . S
C84 O80 1.253 . S
C84 O85 1.227 . S
O85 C84 1.227 . S
N86 Co72 2.140 . S
N86 C89 1.346 . S
N86 C90 1.345 . S
C87 C88 1.387 . S
C87 C91 1.391 . S
C88 C87 1.387 . S
C88 C89 1.369 . S
C88 H97 0.929 . S
C89 N86 1.346 . S
C89 C88 1.369 . S
C89 H92 0.928 . S
C90 N86 1.345 . S
C90 C91 1.371 . S
C90 H93 0.931 . S
C91 C87 1.391 . S
C91 C90 1.371 . S
C91 H98 0.930 . S
H92 C89 0.928 . S
H93 C90 0.931 . S
H94 C70 0.930 . S
H95 C67 0.930 . S
H96 C76 0.930 . S
H97 C88 0.929 . S
H98 C91 0.930 . S
C99 C100 1.351 . S
C99 N102 1.368 1_554 S
C99 H104 0.931 1_554 S
C100 C99 1.351 . S
C100 N101 1.373 . S
C100 H128 0.930 . S
N101 C100 1.373 . S
N101 C103 1.340 . S
N102 C99 1.368 1_556 S
N102 C103 1.321 1_556 S
N102 Co105 2.135 . S
C103 N101 1.340 . S
C103 N102 1.321 1_554 S
C103 H127 0.930 . S
H104 C99 0.931 1_556 S
Co105 N102 2.135 . S
Co105 N108 2.121 . S
Co105 O113 2.055 . S
Co105 O116 2.039 . S
Co105 N119 2.140 . S
C106 O107 1.227 . S
C106 O116 1.265 . S
O107 C106 1.227 . S
N108 Co105 2.121 . S
N108 C110 1.375 . S
N108 C111 1.313 . S
C109 C110 1.338 . S
C109 N112 1.377 . S
C109 H129 0.930 . S
C110 N108 1.375 . S
C110 C109 1.338 . S
C110 H114 0.931 . S
C111 N108 1.313 . S
C111 N112 1.344 . S
C111 H115 0.930 . S
N112 C109 1.377 . S
N112 C111 1.344 . S
O113 Co105 2.055 . S
O113 C117 1.253 . S
H114 C110 0.931 . S
H115 C111 0.930 . S
O116 Co105 2.039 . S
O116 C106 1.265 . S
C117 O113 1.253 . S
C117 O118 1.227 . S
O118 C117 1.227 . S
N119 Co105 2.140 . S
N119 C122 1.346 1_556 S
N119 C123 1.345 . S
C120 C121 1.387 . S
C120 C124 1.391 . S
C121 C120 1.387 . S
C121 C122 1.369 . S
C121 H130 0.929 . S
C122 N119 1.346 1_554 S
C122 C121 1.369 . S
C122 H125 0.928 . S
C123 N119 1.345 . S
C123 C124 1.371 1_556 S
C123 H126 0.931 . S
C124 C120 1.391 . S
C124 C123 1.371 1_554 S
C124 H131 0.930 . S
H125 C122 0.928 . S
H126 C123 0.931 . S
H127 C103 0.930 . S
H128 C100 0.930 . S
H129 C109 0.930 . S
H130 C121 0.929 . S
H131 C124 0.930 . S
C132 C133 1.351 . S
C132 N135 1.368 . S
C132 H137 0.931 . S
C133 C132 1.351 . S
C133 N134 1.373 . S
C133 H161 0.930 . S
N134 C133 1.373 . S
N134 C136 1.340 . S
N135 C132 1.368 . S
N135 C136 1.321 . S
N135 Co138 2.135 . S
C136 N134 1.340 . S
C136 N135 1.321 . S
C136 H160 0.930 . S
H137 C132 0.931 . S
Co138 N135 2.135 . S
Co138 N141 2.121 . S
Co138 O146 2.055 . S
Co138 O149 2.039 . S
Co138 N152 2.140 . S
C139 O140 1.227 . S
C139 O149 1.265 . S
O140 C139 1.227 . S
N141 Co138 2.121 . S
N141 C143 1.375 . S
N141 C144 1.313 . S
C142 C143 1.338 . S
C142 N145 1.377 . S
C142 H162 0.930 . S
C143 N141 1.375 . S
C143 C142 1.338 . S
C143 H147 0.931 . S
C144 N141 1.313 . S
C144 N145 1.344 . S
C144 H148 0.930 . S
N145 C142 1.377 . S
N145 C144 1.344 . S
O146 Co138 2.055 . S
O146 C150 1.253 . S
H147 C143 0.931 . S
H148 C144 0.930 . S
O149 Co138 2.039 . S
O149 C139 1.265 . S
C150 O146 1.253 . S
C150 O151 1.227 . S
O151 C150 1.227 . S
N152 Co138 2.140 . S
N152 C155 1.346 . S
N152 C156 1.345 . S
C153 C154 1.387 . S
C153 C157 1.391 . S
C154 C153 1.387 . S
C154 C155 1.369 . S
C154 H163 0.929 . S
C155 N152 1.346 . S
C155 C154 1.369 . S
C155 H158 0.928 . S
C156 N152 1.345 . S
C156 C157 1.371 . S
C156 H159 0.931 . S
C157 C153 1.391 . S
C157 C156 1.371 . S
C157 H164 0.930 . S
H158 C155 0.928 . S
H159 C156 0.931 . S
H160 C136 0.930 . S
H161 C133 0.930 . S
H162 C142 0.930 . S
H163 C154 0.929 . S
H164 C157 0.930 . S
C165 C166 1.351 . S
C165 N168 1.368 . S
C165 H170 0.931 . S
C166 C165 1.351 . S
C166 N167 1.373 . S
C166 H194 0.930 . S
N167 C166 1.373 . S
N167 C169 1.340 . S
N168 C165 1.368 . S
N168 C169 1.321 . S
N168 Co171 2.135 . S
C169 N167 1.340 . S
C169 N168 1.321 . S
C169 H193 0.930 . S
H170 C165 0.931 . S
Co171 N168 2.135 . S
Co171 N174 2.121 . S
Co171 O179 2.055 . S
Co171 O182 2.039 . S
Co171 N185 2.140 . S
C172 O173 1.227 . S
C172 O182 1.265 . S
O173 C172 1.227 . S
N174 Co171 2.121 . S
N174 C176 1.375 . S
N174 C177 1.313 . S
C175 C176 1.338 . S
C175 N178 1.377 . S
C175 H195 0.930 . S
C176 N174 1.375 . S
C176 C175 1.338 . S
C176 H180 0.931 . S
C177 N174 1.313 . S
C177 N178 1.344 . S
C177 H181 0.930 . S
N178 C175 1.377 . S
N178 C177 1.344 . S
O179 Co171 2.055 . S
O179 C183 1.253 . S
H180 C176 0.931 . S
H181 C177 0.930 . S
O182 Co171 2.039 . S
O182 C172 1.265 . S
C183 O179 1.253 . S
C183 O184 1.227 . S
O184 C183 1.227 . S
N185 Co171 2.140 . S
N185 C188 1.346 . S
N185 C189 1.345 . S
C186 C187 1.387 . S
C186 C190 1.391 . S
C187 C186 1.387 . S
C187 C188 1.369 . S
C187 H196 0.929 . S
C188 N185 1.346 . S
C188 C187 1.369 . S
C188 H191 0.928 . S
C189 N185 1.345 . S
C189 C190 1.371 . S
C189 H192 0.931 . S
C190 C186 1.391 . S
C190 C189 1.371 . S
C190 H197 0.930 . S
H191 C188 0.928 . S
H192 C189 0.931 . S
H193 C169 0.930 . S
H194 C166 0.930 . S
H195 C175 0.930 . S
H196 C187 0.929 . S
H197 C190 0.930 . S
C198 C199 1.369 . S
C198 C200 1.419 . S
C198 H202 0.930 . S
C199 C198 1.369 . S
C199 C208 1.429 . S
C200 C198 1.419 . S
C200 C201 1.363 . S
C200 H203 0.929 . S
C201 C200 1.363 . S
C201 C207 1.428 . S
H202 C198 0.930 . S
H203 C200 0.929 . S
S204 N205 1.613 . S
S204 N206 1.610 . S
N205 S204 1.613 . S
N205 C208 1.350 . S
N206 S204 1.610 . S
N206 C207 1.351 . S
C207 C201 1.428 . S
C207 N206 1.351 . S
C207 C208 1.434 . S
C208 C199 1.429 . S
C208 N205 1.350 . S
C208 C207 1.434 . S
C209 C210 1.369 . S
C209 C211 1.419 . S
C209 H213 0.930 . S
C210 C209 1.369 . S
C210 C219 1.429 . S
C211 C209 1.419 . S
C211 C212 1.363 . S
C211 H214 0.929 . S
C212 C211 1.363 . S
C212 C218 1.428 . S
H213 C209 0.930 . S
H214 C211 0.929 . S
S215 N216 1.613 . S
S215 N217 1.610 . S
N216 S215 1.613 . S
N216 C219 1.350 . S
N217 S215 1.610 . S
N217 C218 1.351 . S
C218 C212 1.428 . S
C218 N217 1.351 . S
C218 C219 1.434 . S
C219 C210 1.429 . S
C219 N216 1.350 . S
C219 C218 1.434 . S
C220 C221 1.369 . S
C220 C222 1.419 . S
C220 H224 0.930 . S
C221 C220 1.369 . S
C221 C230 1.429 . S
C222 C220 1.419 . S
C222 C223 1.363 . S
C222 H225 0.929 . S
C223 C222 1.363 . S
C223 C229 1.428 . S
H224 C220 0.930 . S
H225 C222 0.929 . S
S226 N227 1.613 . S
S226 N228 1.610 . S
N227 S226 1.613 . S
N227 C230 1.350 . S
N228 S226 1.610 . S
N228 C229 1.351 . S
C229 C223 1.428 . S
C229 N228 1.351 . S
C229 C230 1.434 . S
C230 C221 1.429 . S
C230 N227 1.350 . S
C230 C229 1.434 . S
C231 C232 1.369 . S
C231 C233 1.419 . S
C231 H235 0.930 . S
C232 C231 1.369 . S
C232 C241 1.429 . S
C233 C231 1.419 . S
C233 C234 1.363 . S
C233 H236 0.929 . S
C234 C233 1.363 . S
C234 C240 1.428 . S
H235 C231 0.930 . S
H236 C233 0.929 . S
S237 N238 1.613 . S
S237 N239 1.610 . S
N238 S237 1.613 . S
N238 C241 1.350 . S
N239 S237 1.610 . S
N239 C240 1.351 . S
C240 C234 1.428 . S
C240 N239 1.351 . S
C240 C241 1.434 . S
C241 C232 1.429 . S
C241 N238 1.350 . S
C241 C240 1.434 . S
C242 C243 1.369 . S
C242 C244 1.419 . S
C242 H246 0.930 . S
C243 C242 1.369 . S
C243 C252 1.429 . S
C244 C242 1.419 . S
C244 C245 1.363 . S
C244 H247 0.929 . S
C245 C244 1.363 . S
C245 C251 1.428 . S
H246 C242 0.930 . S
H247 C244 0.929 . S
S248 N249 1.613 . S
S248 N250 1.610 . S
N249 S248 1.613 . S
N249 C252 1.350 . S
N250 S248 1.610 . S
N250 C251 1.351 . S
C251 C245 1.428 . S
C251 N250 1.351 . S
C251 C252 1.434 . S
C252 C243 1.429 . S
C252 N249 1.350 . S
C252 C251 1.434 . S
C253 C254 1.369 . S
C253 C255 1.419 . S
C253 H257 0.930 . S
C254 C253 1.369 . S
C254 C263 1.429 . S
C255 C253 1.419 . S
C255 C256 1.363 . S
C255 H258 0.929 . S
C256 C255 1.363 . S
C256 C262 1.428 . S
H257 C253 0.930 . S
H258 C255 0.929 . S
S259 N260 1.613 . S
S259 N261 1.610 . S
N260 S259 1.613 . S
N260 C263 1.350 . S
N261 S259 1.610 . S
N261 C262 1.351 . S
C262 C256 1.428 . S
C262 N261 1.351 . S
C262 C263 1.434 . S
C263 C254 1.429 . S
C263 N260 1.350 . S
C263 C262 1.434 . S
C264 C265 1.369 . S
C264 C266 1.419 . S
C264 H268 0.930 . S
C265 C264 1.369 . S
C265 C274 1.429 1_655 S
C266 C264 1.419 . S
C266 C267 1.363 1_655 S
C266 H269 0.929 . S
C267 C266 1.363 1_455 S
C267 C273 1.428 . S
H268 C264 0.930 . S
H269 C266 0.929 . S
S270 N271 1.613 . S
S270 N272 1.610 . S
N271 S270 1.613 . S
N271 C274 1.350 . S
N272 S270 1.610 . S
N272 C273 1.351 . S
C273 C267 1.428 . S
C273 N272 1.351 . S
C273 C274 1.434 . S
C274 C265 1.429 1_455 S
C274 N271 1.350 . S
C274 C273 1.434 . S
C275 C276 1.369 . S
C275 C277 1.419 . S
C275 H279 0.930 . S
C276 C275 1.369 . S
C276 C285 1.429 . S
C277 C275 1.419 . S
C277 C278 1.363 . S
C277 H280 0.929 . S
C278 C277 1.363 . S
C278 C284 1.428 . S
H279 C275 0.930 . S
H280 C277 0.929 . S
S281 N282 1.613 . S
S281 N283 1.610 . S
N282 S281 1.613 . S
N282 C285 1.350 . S
N283 S281 1.610 . S
N283 C284 1.351 . S
C284 C278 1.428 . S
C284 N283 1.351 . S
C284 C285 1.434 . S
C285 C276 1.429 . S
C285 N282 1.350 . S
C285 C284 1.434 . S
C286 C287 1.369 1_565 S
C286 C288 1.419 . S
C286 H290 0.930 . S
C287 C286 1.369 1_545 S
C287 C296 1.429 . S
C288 C286 1.419 . S
C288 C289 1.363 . S
C288 H291 0.929 . S
C289 C288 1.363 . S
C289 C295 1.428 1_565 S
H290 C286 0.930 . S
H291 C288 0.929 . S
S292 N293 1.613 . S
S292 N294 1.610 . S
N293 S292 1.613 . S
N293 C296 1.350 . S
N294 S292 1.610 . S
N294 C295 1.351 . S
C295 C289 1.428 1_545 S
C295 N294 1.351 . S
C295 C296 1.434 . S
C296 C287 1.429 . S
C296 N293 1.350 . S
C296 C295 1.434 . S
C297 C298 1.369 . S
C297 C299 1.419 1_556 S
C297 H301 0.930 . S
C298 C297 1.369 . S
C298 C307 1.429 . S
C299 C297 1.419 1_554 S
C299 C300 1.363 . S
C299 H302 0.929 . S
C300 C299 1.363 . S
C300 C306 1.428 . S
H301 C297 0.930 . S
H302 C299 0.929 . S
S303 N304 1.613 . S
S303 N305 1.610 1_556 S
N304 S303 1.613 . S
N304 C307 1.350 . S
N305 S303 1.610 1_554 S
N305 C306 1.351 . S
C306 C300 1.428 . S
C306 N305 1.351 . S
C306 C307 1.434 1_554 S
C307 C298 1.429 . S
C307 N304 1.350 . S
C307 C306 1.434 1_556 S
C308 C309 1.369 . S
C308 C310 1.419 1_545 S
C308 H312 0.930 . S
C309 C308 1.369 . S
C309 C318 1.429 . S
C310 C308 1.419 1_565 S
C310 C311 1.363 . S
C310 H313 0.929 . S
C311 C310 1.363 . S
C311 C317 1.428 . S
H312 C308 0.930 . S
H313 C310 0.929 . S
S314 N315 1.613 . S
S314 N316 1.610 1_545 S
N315 S314 1.613 . S
N315 C318 1.350 . S
N316 S314 1.610 1_565 S
N316 C317 1.351 . S
C317 C311 1.428 . S
C317 N316 1.351 . S
C317 C318 1.434 1_565 S
C318 C309 1.429 . S
C318 N315 1.350 . S
C318 C317 1.434 1_545 S
C319 C320 1.369 . S
C319 C321 1.419 1_455 S
C319 H323 0.930 . S
C320 C319 1.369 . S
C320 C329 1.429 . S
C321 C319 1.419 1_655 S
C321 C322 1.363 . S
C321 H324 0.929 . S
C322 C321 1.363 . S
C322 C328 1.428 . S
H323 C319 0.930 . S
H324 C321 0.929 . S
S325 N326 1.613 . S
S325 N327 1.610 1_455 S
N326 S325 1.613 . S
N326 C329 1.350 . S
N327 S325 1.610 1_655 S
N327 C328 1.351 . S
C328 C322 1.428 . S
C328 N327 1.351 . S
C328 C329 1.434 1_655 S
C329 C320 1.429 . S
C329 N326 1.350 . S
C329 C328 1.434 1_455 S
C330 C331 1.369 1_455 S
C330 C332 1.419 . S
C330 H334 0.930 . S
C331 C330 1.369 1_655 S
C331 C340 1.429 . S
C332 C330 1.419 . S
C332 C333 1.363 . S
C332 H335 0.929 . S
C333 C332 1.363 . S
C333 C339 1.428 1_455 S
H334 C330 0.930 . S
H335 C332 0.929 . S
S336 N337 1.613 . S
S336 N338 1.610 . S
N337 S336 1.613 . S
N337 C340 1.350 . S
N338 S336 1.610 . S
N338 C339 1.351 . S
C339 C333 1.428 1_655 S
C339 N338 1.351 . S
C339 C340 1.434 . S
C340 C331 1.429 . S
C340 N337 1.350 . S
C340 C339 1.434 . S
C341 C342 1.369 . S
C341 C343 1.419 1_556 S
C341 H345 0.930 . S
C342 C341 1.369 . S
C342 C351 1.429 . S
C343 C341 1.419 1_554 S
C343 C344 1.363 . S
C343 H346 0.929 . S
C344 C343 1.363 . S
C344 C350 1.428 . S
H345 C341 0.930 . S
H346 C343 0.929 . S
S347 N348 1.613 1_554 S
S347 N349 1.610 . S
N348 S347 1.613 1_556 S
N348 C351 1.350 . S
N349 S347 1.610 . S
N349 C350 1.351 . S
C350 C344 1.428 . S
C350 N349 1.351 . S
C350 C351 1.434 1_554 S
C351 C342 1.429 . S
C351 N348 1.350 . S
C351 C350 1.434 1_556 S
C352 C353 1.369 1_565 S
C352 C354 1.419 . S
C352 H356 0.930 . S
C353 C352 1.369 1_545 S
C353 C362 1.429 . S
C354 C352 1.419 . S
C354 C355 1.363 . S
C354 H357 0.929 . S
C355 C354 1.363 . S
C355 C361 1.428 1_565 S
H356 C352 0.930 . S
H357 C354 0.929 . S
S358 N359 1.613 . S
S358 N360 1.610 . S
N359 S358 1.613 . S
N359 C362 1.350 . S
N360 S358 1.610 . S
N360 C361 1.351 . S
C361 C355 1.428 1_545 S
C361 N360 1.351 . S
C361 C362 1.434 . S
C362 C353 1.429 . S
C362 N359 1.350 . S
C362 C361 1.434 . S
C199 N68 1.266 . S
C201 C18 1.358 . S
C210 C51 1.358 . S
C212 N2 1.261 . S
C221 C84 1.362 . S
C223 N35 1.255 . S
C232 C117 1.358 . S
C234 N134 1.261 . S
C243 N167 1.254 . S
C245 C150 1.362 . S
C254 N101 1.256 . S
C256 C183 1.361 . S
C265 C153 0.864 . S
C267 C21 0.863 . S
C276 C186 0.865 . S
C278 C54 0.863 . S
C287 C120 0.863 . S
C289 C87 0.865 . S
C298 C106 1.616 . S
C300 C7 1.618 . S
C309 C139 1.612 . S
C311 C40 1.621 . S
C320 C73 1.616 . S
C322 C172 1.619 . S
C331 N145 1.879 . S
C333 N13 1.879 . S
C342 N46 1.878 . S
C344 N178 1.879 . S
C353 N112 1.879 . S
C355 N79 1.879 . S
