# Generated by pormake.
# Topology uoj, (4)-cn, num edge types: 1
# Building blocks:
#     Node 0, Type 0, BuildingBlock: ESEHIV_clean_sbu_0, # of connection points: 4
#     Node 1, Type 0, BuildingBlock: ESEHIV_clean_sbu_0, # of connection points: 4
#     Node 2, Type 0, BuildingBlock: ESEHIV_clean_sbu_0, # of connection points: 4
#     Node 3, Type 0, BuildingBlock: ESEHIV_clean_sbu_0, # of connection points: 4
#     Node 4, Type 0, BuildingBlock: ESEHIV_clean_sbu_0, # of connection points: 4
#     Node 5, Type 0, BuildingBlock: ESEHIV_clean_sbu_0, # of connection points: 4
#     Node 6, Type 0, BuildingBlock: ESEHIV_clean_sbu_0, # of connection points: 4
#     Node 7, Type 0, BuildingBlock: ESEHIV_clean_sbu_0, # of connection points: 4
#     Edge 8, Type (0, 0), BuildingBlock: OJICUG_clean_linker_0, # of connection points: 2
#     Edge 9, Type (0, 0), BuildingBlock: OJICUG_clean_linker_0, # of connection points: 2
#     Edge 10, Type (0, 0), BuildingBlock: OJICUG_clean_linker_0, # of connection points: 2
#     Edge 11, Type (0, 0), BuildingBlock: OJICUG_clean_linker_0, # of connection points: 2
#     Edge 12, Type (0, 0), BuildingBlock: OJICUG_clean_linker_0, # of connection points: 2
#     Edge 13, Type (0, 0), BuildingBlock: OJICUG_clean_linker_0, # of connection points: 2
#     Edge 14, Type (0, 0), BuildingBlock: OJICUG_clean_linker_0, # of connection points: 2
#     Edge 15, Type (0, 0), BuildingBlock: OJICUG_clean_linker_0, # of connection points: 2
#     Edge 16, Type (0, 0), BuildingBlock: OJICUG_clean_linker_0, # of connection points: 2
#     Edge 17, Type (0, 0), BuildingBlock: OJICUG_clean_linker_0, # of connection points: 2
#     Edge 18, Type (0, 0), BuildingBlock: OJICUG_clean_linker_0, # of connection points: 2
#     Edge 19, Type (0, 0), BuildingBlock: OJICUG_clean_linker_0, # of connection points: 2
#     Edge 20, Type (0, 0), BuildingBlock: OJICUG_clean_linker_0, # of connection points: 2
#     Edge 21, Type (0, 0), BuildingBlock: OJICUG_clean_linker_0, # of connection points: 2
#     Edge 22, Type (0, 0), BuildingBlock: OJICUG_clean_linker_0, # of connection points: 2
#     Edge 23, Type (0, 0), BuildingBlock: OJICUG_clean_linker_0, # of connection points: 2
# Relax obj value: 0.039
# Max RMSD: 0.231
# Mean RMSD: 0.231
data_MOF--net-uoj--node1-ESEHIV_clean_sbu_0--edge1-OJICUG_clean_linker_0
_symmetry_space_group_name_H-M    P1
_symmetry_Int_Tables_number       1
_symmetry_cell_setting            triclinic
loop_
_symmetry_equiv_pos_as_xyz
'x, y, z'
_cell_length_a     25.638899
_cell_length_b     25.628126
_cell_length_c     34.608835
_cell_angle_alpha  89.81805
_cell_angle_beta   89.755266
_cell_angle_gamma 90.01591
loop_
_atom_site_label
_atom_site_type_symbol
_atom_site_fract_x
_atom_site_fract_y
_atom_site_fract_z
_atom_type_partial_charge
Cu0 Cu 0.03395 0.31212 0.43459 0.0
N1 N 0.96892 0.2802 0.44022 0.0
N2 N 0.90447 0.22952 0.46217 0.0
C3 C 0.9566 0.23489 0.45801 0.0
C4 C 0.88328 0.27274 0.44656 0.0
C5 C 0.92312 0.30378 0.43283 0.0
O6 O 0.08538 0.27646 0.46607 0.0
C7 C 0.06017 0.41712 0.45583 0.0
O8 O 0.10906 0.40182 0.45477 0.0
H9 H 0.98511 0.20814 0.46982 0.0
H10 H 0.91924 0.34223 0.42018 0.0
N11 N 0.05541 0.31079 0.38294 0.0
N12 N 0.09477 0.33346 0.32748 0.0
C13 C 0.08625 0.34591 0.36492 0.0
C14 C 0.04388 0.27483 0.3561 0.0
C15 C 0.06803 0.2887 0.32186 0.0
C16 C 0.08296 0.27587 0.50278 0.0
O17 O 0.0452 0.30141 0.52019 0.0
H18 H 0.10161 0.38023 0.37893 0.0
H19 H 1.01983 0.24079 0.36118 0.0
O20 O 1.02409 0.3843 0.44944 0.0
H21 H 0.84205 0.28188 0.44632 0.0
H22 H 0.06667 0.26692 0.29515 0.0
Cu23 Cu 0.32008 1.02714 0.60947 0.0
N24 N 0.28264 0.08971 0.60937 0.0
N25 N 0.22922 0.15433 0.59141 0.0
C26 C 0.2521 0.10888 0.58108 0.0
C27 C 0.24639 0.16408 0.62751 0.0
C28 C 0.27936 0.12426 0.63843 0.0
O29 O 0.28992 0.97998 0.57177 0.0
C30 C 0.42462 1.00633 0.58847 0.0
O31 O 0.40781 0.95805 0.58562 0.0
H32 H 0.2458 0.08915 0.55389 0.0
H33 H 0.29922 0.12043 0.66581 0.0
N34 N 0.31649 0.997 0.65875 0.0
N35 N 0.33841 0.95512 0.71318 0.0
C36 C 0.3538 0.96972 0.67731 0.0
C37 C 0.27616 0.99968 0.68364 0.0
C38 C 0.28951 0.97397 0.71719 0.0
C39 C 0.24135 0.96985 0.57342 0.0
O40 O 0.21313 0.99116 0.60094 0.0
H41 H 0.39185 0.96173 0.66508 0.0
H42 H 0.23968 1.01934 0.67786 0.0
O43 O 0.3925 0.04214 0.59744 0.0
H44 H 0.23613 0.1977 0.64478 0.0
H45 H 0.26488 0.96915 0.74242 0.0
Cu46 Cu 1.02364 0.7408 0.43099 0.0
N47 N 0.08364 0.78136 0.43635 0.0
N48 N 0.14232 0.83504 0.46276 0.0
C49 C 0.09581 0.81085 0.46713 0.0
C50 C 0.16006 0.81994 0.42772 0.0
C51 C 0.12377 0.78684 0.41152 0.0
O52 O 0.96976 0.77155 0.46329 0.0
C53 C 1.00529 0.63582 0.45329 0.0
O54 O 0.95603 0.64996 0.45323 0.0
H55 H 0.0713 0.81371 0.49252 0.0
H56 H 0.12641 0.76805 0.38364 0.0
N57 N 1.00123 0.74144 0.37963 0.0
N58 N 0.96372 0.71721 0.32417 0.0
C59 C 0.97485 0.70363 0.36103 0.0
C60 C 1.00698 0.78031 0.35378 0.0
C61 C 0.98403 0.76549 0.31956 0.0
C62 C 0.96846 0.76596 0.49982 0.0
O63 O 1.00266 0.73521 0.51654 0.0
H64 H 0.96437 0.66679 0.37425 0.0
H65 H 1.0261 0.81707 0.35957 0.0
O66 O 0.04016 0.66959 0.44561 0.0
H67 H 0.19634 0.83228 0.41447 0.0
H68 H 0.98155 0.78902 0.29362 0.0
Cu69 Cu 0.74868 1.02527 0.61382 0.0
N70 N 0.78357 0.96115 0.61189 0.0
N71 N 0.83225 0.89363 0.5924 0.0
C72 C 0.81781 0.94346 0.5853 0.0
C73 C 0.80652 0.87966 0.62491 0.0
C74 C 0.77647 0.92127 0.63674 0.0
O75 O 0.78311 0.07738 0.58161 0.0
C76 C 0.64567 0.05099 0.59078 0.0
O77 O 0.66284 0.09929 0.59129 0.0
H78 H 0.83211 0.96653 0.56133 0.0
H79 H 0.7504 0.92218 0.66138 0.0
N80 N 0.74841 0.04893 0.66489 0.0
N81 N 0.72399 0.08786 0.71988 0.0
C82 C 0.71182 0.07823 0.68259 0.0
C83 C 0.78498 0.03973 0.69181 0.0
C84 C 0.77003 0.06357 0.72575 0.0
C85 C 0.79062 0.07253 0.54543 0.0
O86 O 0.77316 0.031 0.5275 0.0
H87 H 0.67667 0.09161 0.66856 0.0
H88 H 0.82014 1.0173 0.687 0.0
O89 O 0.67704 1.01391 0.59825 0.0
H90 H 0.80803 0.84161 0.63851 0.0
H91 H 0.79187 0.06373 0.75243 0.0
Cu92 Cu 0.50854 0.81045 0.93289 0.0
N93 N 0.57001 0.77218 0.93811 0.0
N94 N 0.63293 0.72386 0.96496 0.0
C95 C 0.58523 0.74544 0.96964 0.0
C96 C 0.6482 0.73774 0.92896 0.0
C97 C 0.60935 0.76759 0.91252 0.0
O98 O 0.45507 0.7771 0.96441 0.0
C99 C 0.48907 0.91616 0.95435 0.0
O100 O 0.43952 0.90338 0.95239 0.0
H101 H 0.56218 0.74297 0.99581 0.0
H102 H 0.60989 0.78513 0.88405 0.0
N103 N 0.48734 0.8108 0.88123 0.0
N104 N 0.4519 0.83651 0.8253 0.0
C105 C 0.46117 0.84887 0.86261 0.0
C106 C 0.49485 0.77303 0.85489 0.0
C107 C 0.47318 0.78879 0.82036 0.0
C108 C 0.45289 0.7819 1.00097 0.0
O109 O 0.48579 0.81343 1.01819 0.0
H110 H 0.44965 0.88513 0.87604 0.0
H111 H 0.51449 0.73645 0.8605 0.0
O112 O 0.5236 0.88151 0.94835 0.0
H113 H 0.68464 0.72692 0.91529 0.0
H114 H 0.47228 0.76637 0.79393 0.0
Cu115 Cu 0.82742 0.54009 0.1054 0.0
N116 N 0.79194 0.47691 0.09965 0.0
N117 N 0.74027 0.41625 0.07344 0.0
C118 C 0.76364 0.46314 0.06865 0.0
C119 C 0.75504 0.39977 0.10887 0.0
C120 C 0.78687 0.43731 0.12497 0.0
O121 O 0.79413 0.59084 0.07178 0.0
C122 C 0.92802 0.56802 0.07915 0.0
O123 O 0.90636 0.61386 0.0735 0.0
H124 H 0.76024 0.48739 0.04315 0.0
H125 H 0.80428 0.43628 0.15337 0.0
N126 N 0.82476 0.5629 0.15663 0.0
N127 N 0.84828 0.60065 0.21217 0.0
C128 C 0.86131 0.5913 0.17492 0.0
C129 C 0.78722 0.55393 0.18307 0.0
C130 C 0.80159 0.5771 0.21734 0.0
C131 C 0.7453 0.59859 0.07519 0.0
O132 O 0.71951 0.57378 0.10252 0.0
H133 H 0.89716 0.60405 0.16124 0.0
H134 H 0.75193 0.53198 0.1778 0.0
O135 O 0.9001 0.53052 0.09163 0.0
H136 H 0.74266 0.3639 0.1227 0.0
H137 H 0.779 0.57709 0.24383 0.0
Cu138 Cu 0.54035 0.23802 0.93252 0.0
N139 N 0.47959 0.27812 0.93179 0.0
N140 N 0.4144 0.3305 0.95032 0.0
C141 C 0.45952 0.30705 0.96068 0.0
C142 C 0.40593 0.31542 0.91351 0.0
C143 C 0.44608 0.28308 0.90225 0.0
O144 O 0.58906 0.2676 0.96948 0.0
C145 C 0.55355 0.13231 0.95541 0.0
O146 O 0.60311 0.14484 0.95806 0.0
H147 H 0.47803 0.31114 0.98855 0.0
H148 H 0.45042 0.26414 0.87453 0.0
N149 N 0.57049 0.23805 0.88318 0.0
N150 N 0.61103 0.21175 0.82924 0.0
C151 C 0.59544 0.1985 0.86535 0.0
C152 C 0.57033 0.27763 0.85757 0.0
C153 C 0.59523 0.26158 0.82432 0.0
C154 C 0.60028 0.31589 0.96691 0.0
O155 O 0.57882 0.34375 0.9393 0.0
H156 H 0.60112 0.16049 0.87832 0.0
H157 H 0.55301 0.31547 0.86268 0.0
O158 O 0.52072 0.16718 0.94594 0.0
H159 H 0.37262 0.32612 0.89611 0.0
H160 H 0.60165 0.28504 0.79868 0.0
Cu161 Cu 0.24625 0.50957 0.11212 0.0
N162 N 0.27627 0.57611 0.11121 0.0
N163 N 0.3207 0.64679 0.09191 0.0
C164 C 0.30623 0.59745 0.08323 0.0
C165 C 0.29901 0.65662 0.12676 0.0
C166 C 0.27161 0.61304 0.13852 0.0
O167 O 0.28643 0.46295 0.0795 0.0
C168 C 0.1527 0.55084 0.07898 0.0
O169 O 0.18168 0.59068 0.06837 0.0
H170 H 0.31756 0.577 0.05722 0.0
H171 H 0.2495 0.6086 0.16502 0.0
N172 N 0.24679 0.48355 0.16254 0.0
N173 N 0.2204 0.44447 0.21716 0.0
C174 C 0.20774 0.45787 0.18055 0.0
C175 C 0.28555 0.48657 0.18846 0.0
C176 C 0.26942 0.46257 0.22218 0.0
C177 C 0.2841 0.46464 0.04282 0.0
O178 O 0.25269 0.49839 0.02625 0.0
H179 H 0.17056 0.44989 0.16712 0.0
H180 H 0.32291 0.50492 0.18313 0.0
O181 O 0.17368 0.51235 0.09626 0.0
H182 H 0.30196 0.69297 0.14242 0.0
H183 H 0.29239 0.4582 0.24814 0.0
C184 C 0.14796 0.3836 0.23279 0.0
C185 C 0.18846 0.41668 0.24498 0.0
H186 H 0.08632 0.33169 0.24923 0.0
C187 C 0.19733 0.42197 0.28486 0.0
H188 H 0.14023 0.37808 0.20238 0.0
C189 C 0.16665 0.39489 0.31179 0.0
C190 C 0.12626 0.36168 0.29962 0.0
H191 H 0.22772 0.44744 0.29541 0.0
H192 H 0.17515 0.39958 0.34217 0.0
C193 C 0.11733 0.35644 0.25974 0.0
C194 C 0.35774 0.93188 0.78116 0.0
C195 C 0.36784 0.9259 0.74144 0.0
H196 H 0.37622 0.90821 0.83883 0.0
C197 C 0.40675 0.89051 0.72985 0.0
H198 H 0.32852 0.95918 0.79117 0.0
C199 C 0.43436 0.86138 0.75728 0.0
C200 C 0.42403 0.86718 0.797 0.0
H201 H 0.4153 0.88463 0.69953 0.0
H202 H 0.46407 0.83455 0.74735 0.0
C203 C 0.38556 0.90303 0.80857 0.0
C204 C 0.89923 0.64868 0.30758 0.0
C205 C 0.93518 0.68718 0.29592 0.0
H206 H 0.84387 0.59089 0.29034 0.0
C207 C 0.94232 0.69624 0.25612 0.0
H208 H 0.89226 0.64088 0.33791 0.0
C209 C 0.91412 0.66781 0.22877 0.0
C210 C 0.87789 0.62959 0.24043 0.0
H211 H 0.97 0.7251 0.24599 0.0
H212 H 0.92026 0.6764 0.19847 0.0
C213 C 0.87093 0.62035 0.28022 0.0
C214 C 0.67145 0.13906 0.81412 0.0
C215 C 0.63868 0.17969 0.80166 0.0
H216 H 0.72399 0.07791 0.798 0.0
C217 C 0.63383 0.18891 0.76174 0.0
H218 H 0.67643 0.1311 0.84461 0.0
C219 C 0.66131 0.15856 0.735 0.0
C220 C 0.6946 0.11836 0.74746 0.0
H221 H 0.6085 0.21943 0.75106 0.0
H222 H 0.65713 0.16727 0.70456 0.0
C223 C 0.69918 0.10889 0.78738 0.0
C224 C 0.15582 0.21697 0.58765 0.0
C225 C 0.19299 0.18524 0.56912 0.0
H226 H 0.09201 0.27016 0.58142 0.0
C227 C 0.19399 0.18409 0.52851 0.0
H228 H 0.15347 0.21833 0.61885 0.0
C229 C 0.15869 0.21387 0.50698 0.0
C230 C 0.1213 0.2453 0.52555 0.0
H231 H 0.22244 0.16059 0.5133 0.0
H232 H 0.16057 0.212 0.47574 0.0
C233 C 0.12034 0.24652 0.56615 0.0
C234 C 0.246 0.90971 0.51614 0.0
C235 C 0.21634 0.93536 0.54458 0.0
H236 H 0.24593 0.85724 0.46813 0.0
C237 C 0.16204 0.92794 0.54526 0.0
H238 H 0.28794 0.91455 0.51483 0.0
C239 C 0.13793 0.89551 0.51834 0.0
C240 C 0.16745 0.86937 0.49004 0.0
H241 H 0.1379 0.94736 0.56657 0.0
H242 H 0.09597 0.89145 0.51958 0.0
C243 C 0.22183 0.87705 0.4892 0.0
C244 C 0.86987 0.86913 0.52903 0.0
C245 C 0.86596 0.86121 0.56915 0.0
H246 H 0.9045 0.84492 0.47565 0.0
C247 C 0.89505 0.82073 0.58612 0.0
H248 H 0.84743 0.89943 0.51497 0.0
C249 C 0.92781 0.78937 0.56358 0.0
C250 C 0.93187 0.79746 0.52348 0.0
H251 H 0.89319 0.81387 0.61696 0.0
H252 H 0.95018 0.75899 0.57766 0.0
C253 C 0.90225 0.8375 0.50644 0.0
C254 C 0.85237 0.09908 0.49259 0.0
C255 C 0.8202 0.11284 0.52396 0.0
H256 H 0.90601 0.12607 0.44886 0.0
C257 C 0.81705 0.16543 0.53501 0.0
H258 H 0.85577 0.05873 0.48369 0.0
C259 C 0.84464 0.2037 0.51454 0.0
C260 C 0.8771 0.18986 0.48347 0.0
H261 H 0.79254 0.17708 0.55906 0.0
H262 H 0.8411 0.24416 0.52309 0.0
C263 C 0.88126 0.13727 0.47287 0.0
C264 C 0.3822 0.72111 0.08661 0.0
C265 C 0.35262 0.68164 0.06894 0.0
H266 H 0.43683 0.78359 0.07917 0.0
C267 C 0.355 0.67668 0.02851 0.0
H268 H 0.38173 0.72577 0.11766 0.0
C269 C 0.38659 0.70994 1.00637 0.0
C270 C 0.41682 0.74883 0.02413 0.0
H271 H 0.3322 0.64727 1.01388 0.0
H272 H 0.3878 0.70467 0.97534 0.0
C273 C 0.41399 0.75419 0.0645 0.0
C274 C 0.6624 0.63659 0.04959 0.0
C275 C 0.71696 0.63213 0.04733 0.0
H276 H 0.59298 0.66815 0.02499 0.0
C277 C 0.74359 0.65867 1.01761 0.0
H278 H 0.64055 0.61643 0.07194 0.0
C279 C 0.71616 0.68879 0.99067 0.0
C280 C 0.66147 0.69302 0.99279 0.0
H281 H 0.78563 0.65609 1.01507 0.0
H282 H 0.73795 0.70911 0.96842 0.0
C283 C 0.63503 0.66655 0.02267 0.0
C284 C 0.69682 0.33636 0.04871 0.0
C285 C 0.70519 0.39064 0.04691 0.0
H286 H 0.65734 0.27003 0.02494 0.0
C287 C 0.6784 0.41969 1.01872 0.0
H288 H 0.71705 0.31262 0.06976 0.0
C289 C 0.6446 0.39526 0.99292 0.0
C290 C 0.63635 0.34109 0.99462 0.0
H291 H 0.68285 0.46158 1.01678 0.0
H292 H 0.62468 0.41911 0.97173 0.0
C293 C 0.66275 0.31186 0.02288 0.0
C294 C 0.34793 0.40027 0.95608 0.0
C295 C 0.38182 0.36416 0.97359 0.0
H296 H 0.29074 0.46016 0.964 0.0
C297 C 0.38309 0.36138 1.01418 0.0
H298 H 0.34636 0.40409 0.92497 0.0
C299 C 0.35128 0.39379 0.03663 0.0
C300 C 0.31743 0.42984 1.01905 0.0
H301 H 0.40812 0.33366 0.0287 0.0
H302 H 0.35322 0.39049 0.0678 0.0
C303 C 0.31615 0.43268 0.97851 0.0
C304 C 0.98096 0.5417 0.46145 0.0
C305 C 1.01978 0.58019 0.45827 0.0
H306 H 0.96324 0.4602 0.46344 0.0
C307 C 0.07242 0.56463 0.45751 0.0
H308 H 0.94007 0.55226 0.46227 0.0
C309 C 0.08579 0.51168 0.45833 0.0
C310 C 0.0468 0.47316 0.45974 0.0
H311 H 0.10334 0.5933 0.45526 0.0
H312 H 0.12659 0.50098 0.45653 0.0
C313 C 0.9943 0.48883 0.4621 0.0
C314 C 0.5526 0.08075 0.58682 0.0
C315 C 0.58927 0.03999 0.5861 0.0
H316 H 0.47189 0.10217 0.58817 0.0
C317 C 0.57125 0.9883 0.58342 0.0
H318 H 0.56513 0.12101 0.58887 0.0
C319 C 0.51779 0.9775 0.58281 0.0
C320 C 0.48109 1.01812 0.58516 0.0
H321 H 0.59845 0.95597 0.58264 0.0
H322 H 0.5053 0.93717 0.58167 0.0
C323 C 0.49911 0.06993 0.58651 0.0
C324 C 0.57361 0.03701 0.9627 0.0
C325 C 0.53663 0.0772 0.95934 0.0
H326 H 0.58764 0.95472 0.96393 0.0
C327 C 0.48345 0.06394 0.9574 0.0
H328 H 0.61486 0.0458 0.96435 0.0
C329 C 0.46777 1.01164 0.95735 0.0
C330 C 0.50495 0.97143 0.95898 0.0
H331 H 0.45389 0.09395 0.95499 0.0
H332 H 0.42663 1.0028 0.95474 0.0
C333 C 0.55797 0.98473 0.96241 0.0
C334 C 0.07081 0.59881 0.0615 0.0
C335 C 0.09522 0.55312 0.07487 0.0
H336 H 0.99892 0.63934 0.05224 0.0
C337 C 0.06395 0.5109 0.0868 0.0
H338 H 0.0937 0.63202 0.052 0.0
C339 C 1.00958 0.51505 0.08683 0.0
C340 C 0.98523 0.56159 0.07508 0.0
H341 H 0.08145 0.47504 0.09713 0.0
H342 H 0.98674 0.48228 0.0972 0.0
C343 C 1.01642 0.60304 0.06169 0.0
loop_
_geom_bond_atom_site_label_1
_geom_bond_atom_site_label_2
_geom_bond_distance
_geom_bond_site_symmetry_2
_ccdc_geom_bond_type
Cu0 N1 1.999 1_455 S
Cu0 O6 1.974 . S
Cu0 N11 1.985 . S
Cu0 O20 1.955 1_455 S
N1 Cu0 1.999 1_655 S
N1 C3 1.263 . S
N1 C5 1.389 . S
N2 C3 1.358 . S
N2 C4 1.400 . S
C3 N1 1.263 . S
C3 N2 1.358 . S
C3 H9 0.930 1_655 S
C4 N2 1.400 . S
C4 C5 1.351 . S
C4 H21 0.930 . S
C5 N1 1.389 . S
C5 C4 1.351 . S
C5 H10 0.930 . S
O6 Cu0 1.974 . S
O6 C16 1.282 . S
C7 O8 1.261 . S
C7 O20 1.249 1_455 S
O8 C7 1.261 . S
H9 C3 0.930 1_455 S
H10 C5 0.930 . S
N11 Cu0 1.985 . S
N11 C13 1.335 . S
N11 C14 1.390 . S
N12 C13 1.345 . S
N12 C15 1.336 . S
C13 N11 1.335 . S
C13 N12 1.345 . S
C13 H18 0.930 . S
C14 N11 1.390 . S
C14 C15 1.346 . S
C14 H19 0.930 . S
C15 N12 1.336 . S
C15 C14 1.346 . S
C15 H22 0.929 . S
C16 O6 1.282 . S
C16 O17 1.216 . S
O17 C16 1.216 . S
H18 C13 0.930 . S
H19 C14 0.930 . S
O20 Cu0 1.955 1_655 S
O20 C7 1.249 1_655 S
H21 C4 0.930 . S
H22 C15 0.929 . S
Cu23 N24 1.999 1_565 S
Cu23 O29 1.974 . S
Cu23 N34 1.985 . S
Cu23 O43 1.955 1_565 S
N24 Cu23 1.999 1_545 S
N24 C26 1.263 . S
N24 C28 1.389 . S
N25 C26 1.358 . S
N25 C27 1.400 . S
C26 N24 1.263 . S
C26 N25 1.358 . S
C26 H32 0.930 1_545 S
C27 N25 1.400 . S
C27 C28 1.351 . S
C27 H44 0.930 . S
C28 N24 1.389 . S
C28 C27 1.351 . S
C28 H33 0.930 . S
O29 Cu23 1.974 . S
O29 C39 1.282 . S
C30 O31 1.261 . S
C30 O43 1.249 1_565 S
O31 C30 1.261 . S
H32 C26 0.930 1_565 S
H33 C28 0.930 . S
N34 Cu23 1.985 . S
N34 C36 1.335 . S
N34 C37 1.390 . S
N35 C36 1.345 . S
N35 C38 1.336 . S
C36 N34 1.335 . S
C36 N35 1.345 . S
C36 H41 0.930 . S
C37 N34 1.390 . S
C37 C38 1.346 . S
C37 H42 0.930 . S
C38 N35 1.336 . S
C38 C37 1.346 . S
C38 H45 0.929 . S
C39 O29 1.282 . S
C39 O40 1.216 . S
O40 C39 1.216 . S
H41 C36 0.930 . S
H42 C37 0.930 . S
O43 Cu23 1.955 1_545 S
O43 C30 1.249 1_545 S
H44 C27 0.930 . S
H45 C38 0.929 . S
Cu46 N47 1.999 1_655 S
Cu46 O52 1.974 . S
Cu46 N57 1.985 . S
Cu46 O66 1.955 1_655 S
N47 Cu46 1.999 1_455 S
N47 C49 1.263 . S
N47 C51 1.389 . S
N48 C49 1.358 . S
N48 C50 1.400 . S
C49 N47 1.263 . S
C49 N48 1.358 . S
C49 H55 0.930 1_455 S
C50 N48 1.400 . S
C50 C51 1.351 . S
C50 H67 0.930 . S
C51 N47 1.389 . S
C51 C50 1.351 . S
C51 H56 0.930 . S
O52 Cu46 1.974 . S
O52 C62 1.282 . S
C53 O54 1.261 . S
C53 O66 1.249 1_655 S
O54 C53 1.261 . S
H55 C49 0.930 1_655 S
H56 C51 0.930 . S
N57 Cu46 1.985 . S
N57 C59 1.335 . S
N57 C60 1.390 . S
N58 C59 1.345 . S
N58 C61 1.336 . S
C59 N57 1.335 . S
C59 N58 1.345 . S
C59 H64 0.930 . S
C60 N57 1.390 . S
C60 C61 1.346 . S
C60 H65 0.930 . S
C61 N58 1.336 . S
C61 C60 1.346 . S
C61 H68 0.929 . S
C62 O52 1.282 . S
C62 O63 1.216 . S
O63 C62 1.216 . S
H64 C59 0.930 . S
H65 C60 0.930 . S
O66 Cu46 1.955 1_455 S
O66 C53 1.249 1_455 S
H67 C50 0.930 . S
H68 C61 0.929 . S
Cu69 N70 1.999 1_545 S
Cu69 O75 1.974 . S
Cu69 N80 1.985 . S
Cu69 O89 1.955 1_545 S
N70 Cu69 1.999 1_565 S
N70 C72 1.263 . S
N70 C74 1.389 . S
N71 C72 1.358 . S
N71 C73 1.400 . S
C72 N70 1.263 . S
C72 N71 1.358 . S
C72 H78 0.930 1_565 S
C73 N71 1.400 . S
C73 C74 1.351 . S
C73 H90 0.930 . S
C74 N70 1.389 . S
C74 C73 1.351 . S
C74 H79 0.930 . S
O75 Cu69 1.974 . S
O75 C85 1.282 . S
C76 O77 1.261 . S
C76 O89 1.249 1_545 S
O77 C76 1.261 . S
H78 C72 0.930 1_545 S
H79 C74 0.930 . S
N80 Cu69 1.985 . S
N80 C82 1.335 . S
N80 C83 1.390 . S
N81 C82 1.345 . S
N81 C84 1.336 . S
C82 N80 1.335 . S
C82 N81 1.345 . S
C82 H87 0.930 . S
C83 N80 1.390 . S
C83 C84 1.346 . S
C83 H88 0.930 . S
C84 N81 1.336 . S
C84 C83 1.346 . S
C84 H91 0.929 . S
C85 O75 1.282 . S
C85 O86 1.216 . S
O86 C85 1.216 . S
H87 C82 0.930 . S
H88 C83 0.930 . S
O89 Cu69 1.955 1_565 S
O89 C76 1.249 1_565 S
H90 C73 0.930 . S
H91 C84 0.929 . S
Cu92 N93 1.999 . S
Cu92 O98 1.974 . S
Cu92 N103 1.985 . S
Cu92 O112 1.959 . S
N93 Cu92 1.999 . S
N93 C95 1.263 . S
N93 C97 1.389 . S
N94 C95 1.358 . S
N94 C96 1.400 . S
C95 N93 1.263 . S
C95 N94 1.358 . S
C95 H101 0.930 . S
C96 N94 1.400 . S
C96 C97 1.351 . S
C96 H113 0.930 . S
C97 N93 1.389 . S
C97 C96 1.351 . S
C97 H102 0.930 . S
O98 Cu92 1.974 . S
O98 C108 1.282 . S
C99 O100 1.261 . S
C99 O112 1.251 . S
O100 C99 1.261 . S
H101 C95 0.930 . S
H102 C97 0.930 . S
N103 Cu92 1.985 . S
N103 C105 1.335 . S
N103 C106 1.390 . S
N104 C105 1.345 . S
N104 C107 1.336 . S
C105 N103 1.335 . S
C105 N104 1.345 . S
C105 H110 0.930 . S
C106 N103 1.390 . S
C106 C107 1.346 . S
C106 H111 0.930 . S
C107 N104 1.336 . S
C107 C106 1.346 . S
C107 H114 0.929 . S
C108 O98 1.282 . S
C108 O109 1.216 . S
O109 C108 1.216 . S
H110 C105 0.930 . S
H111 C106 0.930 . S
O112 Cu92 1.959 . S
O112 C99 1.251 . S
H113 C96 0.930 . S
H114 C107 0.929 . S
Cu115 N116 1.999 . S
Cu115 O121 1.974 . S
Cu115 N126 1.985 . S
Cu115 O135 1.959 . S
N116 Cu115 1.999 . S
N116 C118 1.263 . S
N116 C120 1.389 . S
N117 C118 1.358 . S
N117 C119 1.400 . S
C118 N116 1.263 . S
C118 N117 1.358 . S
C118 H124 0.930 . S
C119 N117 1.400 . S
C119 C120 1.351 . S
C119 H136 0.930 . S
C120 N116 1.389 . S
C120 C119 1.351 . S
C120 H125 0.930 . S
O121 Cu115 1.974 . S
O121 C131 1.282 . S
C122 O123 1.261 . S
C122 O135 1.251 . S
O123 C122 1.261 . S
H124 C118 0.930 . S
H125 C120 0.930 . S
N126 Cu115 1.985 . S
N126 C128 1.335 . S
N126 C129 1.390 . S
N127 C128 1.345 . S
N127 C130 1.336 . S
C128 N126 1.335 . S
C128 N127 1.345 . S
C128 H133 0.930 . S
C129 N126 1.390 . S
C129 C130 1.346 . S
C129 H134 0.930 . S
C130 N127 1.336 . S
C130 C129 1.346 . S
C130 H137 0.929 . S
C131 O121 1.282 . S
C131 O132 1.216 . S
O132 C131 1.216 . S
H133 C128 0.930 . S
H134 C129 0.930 . S
O135 Cu115 1.959 . S
O135 C122 1.251 . S
H136 C119 0.930 . S
H137 C130 0.929 . S
Cu138 N139 1.999 . S
Cu138 O144 1.974 . S
Cu138 N149 1.985 . S
Cu138 O158 1.959 . S
N139 Cu138 1.999 . S
N139 C141 1.263 . S
N139 C143 1.389 . S
N140 C141 1.358 . S
N140 C142 1.400 . S
C141 N139 1.263 . S
C141 N140 1.358 . S
C141 H147 0.930 . S
C142 N140 1.400 . S
C142 C143 1.351 . S
C142 H159 0.930 . S
C143 N139 1.389 . S
C143 C142 1.351 . S
C143 H148 0.930 . S
O144 Cu138 1.974 . S
O144 C154 1.282 . S
C145 O146 1.261 . S
C145 O158 1.251 . S
O146 C145 1.261 . S
H147 C141 0.930 . S
H148 C143 0.930 . S
N149 Cu138 1.985 . S
N149 C151 1.335 . S
N149 C152 1.390 . S
N150 C151 1.345 . S
N150 C153 1.336 . S
C151 N149 1.335 . S
C151 N150 1.345 . S
C151 H156 0.930 . S
C152 N149 1.390 . S
C152 C153 1.346 . S
C152 H157 0.930 . S
C153 N150 1.336 . S
C153 C152 1.346 . S
C153 H160 0.929 . S
C154 O144 1.282 . S
C154 O155 1.216 . S
O155 C154 1.216 . S
H156 C151 0.930 . S
H157 C152 0.930 . S
O158 Cu138 1.959 . S
O158 C145 1.251 . S
H159 C142 0.930 . S
H160 C153 0.929 . S
Cu161 N162 1.999 . S
Cu161 O167 1.974 . S
Cu161 N172 1.985 . S
Cu161 O181 1.959 . S
N162 Cu161 1.999 . S
N162 C164 1.263 . S
N162 C166 1.389 . S
N163 C164 1.358 . S
N163 C165 1.400 . S
C164 N162 1.263 . S
C164 N163 1.358 . S
C164 H170 0.930 . S
C165 N163 1.400 . S
C165 C166 1.351 . S
C165 H182 0.930 . S
C166 N162 1.389 . S
C166 C165 1.351 . S
C166 H171 0.930 . S
O167 Cu161 1.974 . S
O167 C177 1.282 . S
C168 O169 1.261 . S
C168 O181 1.251 . S
O169 C168 1.261 . S
H170 C164 0.930 . S
H171 C166 0.930 . S
N172 Cu161 1.985 . S
N172 C174 1.335 . S
N172 C175 1.390 . S
N173 C174 1.345 . S
N173 C176 1.336 . S
C174 N172 1.335 . S
C174 N173 1.345 . S
C174 H179 0.930 . S
C175 N172 1.390 . S
C175 C176 1.346 . S
C175 H180 0.930 . S
C176 N173 1.336 . S
C176 C175 1.346 . S
C176 H183 0.929 . S
C177 O167 1.282 . S
C177 O178 1.216 . S
O178 C177 1.216 . S
H179 C174 0.930 . S
H180 C175 0.930 . S
O181 Cu161 1.959 . S
O181 C168 1.251 . S
H182 C165 0.930 . S
H183 C176 0.929 . S
C184 C185 1.387 . S
C184 H188 0.950 . S
C184 C193 1.390 . S
C185 C184 1.387 . S
C185 C187 1.387 . S
H186 C193 0.950 . S
C187 C185 1.387 . S
C187 C189 1.390 . S
C187 H191 0.950 . S
H188 C184 0.950 . S
C189 C187 1.390 . S
C189 C190 1.387 . S
C189 H192 0.950 . S
C190 C189 1.387 . S
C190 C193 1.387 . S
H191 C187 0.950 . S
H192 C189 0.950 . S
C193 C184 1.390 . S
C193 H186 0.950 . S
C193 C190 1.387 . S
C194 C195 1.387 . S
C194 H198 0.950 . S
C194 C203 1.390 . S
C195 C194 1.387 . S
C195 C197 1.387 . S
H196 C203 0.950 . S
C197 C195 1.387 . S
C197 C199 1.390 . S
C197 H201 0.950 . S
H198 C194 0.950 . S
C199 C197 1.390 . S
C199 C200 1.387 . S
C199 H202 0.950 . S
C200 C199 1.387 . S
C200 C203 1.387 . S
H201 C197 0.950 . S
H202 C199 0.950 . S
C203 C194 1.390 . S
C203 H196 0.950 . S
C203 C200 1.387 . S
C204 C205 1.387 . S
C204 H208 0.950 . S
C204 C213 1.390 . S
C205 C204 1.387 . S
C205 C207 1.387 . S
H206 C213 0.950 . S
C207 C205 1.387 . S
C207 C209 1.390 . S
C207 H211 0.950 . S
H208 C204 0.950 . S
C209 C207 1.390 . S
C209 C210 1.387 . S
C209 H212 0.950 . S
C210 C209 1.387 . S
C210 C213 1.387 . S
H211 C207 0.950 . S
H212 C209 0.950 . S
C213 C204 1.390 . S
C213 H206 0.950 . S
C213 C210 1.387 . S
C214 C215 1.387 . S
C214 H218 0.950 . S
C214 C223 1.390 . S
C215 C214 1.387 . S
C215 C217 1.387 . S
H216 C223 0.950 . S
C217 C215 1.387 . S
C217 C219 1.390 . S
C217 H221 0.950 . S
H218 C214 0.950 . S
C219 C217 1.390 . S
C219 C220 1.387 . S
C219 H222 0.950 . S
C220 C219 1.387 . S
C220 C223 1.387 . S
H221 C217 0.950 . S
H222 C219 0.950 . S
C223 C214 1.390 . S
C223 H216 0.950 . S
C223 C220 1.387 . S
C224 C225 1.387 . S
C224 H228 0.950 . S
C224 C233 1.390 . S
C225 C224 1.387 . S
C225 C227 1.387 . S
H226 C233 0.950 . S
C227 C225 1.387 . S
C227 C229 1.390 . S
C227 H231 0.950 . S
H228 C224 0.950 . S
C229 C227 1.390 . S
C229 C230 1.387 . S
C229 H232 0.950 . S
C230 C229 1.387 . S
C230 C233 1.387 . S
H231 C227 0.950 . S
H232 C229 0.950 . S
C233 C224 1.390 . S
C233 H226 0.950 . S
C233 C230 1.387 . S
C234 C235 1.387 . S
C234 H238 0.950 . S
C234 C243 1.390 . S
C235 C234 1.387 . S
C235 C237 1.387 . S
H236 C243 0.950 . S
C237 C235 1.387 . S
C237 C239 1.390 . S
C237 H241 0.950 . S
H238 C234 0.950 . S
C239 C237 1.390 . S
C239 C240 1.387 . S
C239 H242 0.950 . S
C240 C239 1.387 . S
C240 C243 1.387 . S
H241 C237 0.950 . S
H242 C239 0.950 . S
C243 C234 1.390 . S
C243 H236 0.950 . S
C243 C240 1.387 . S
C244 C245 1.387 . S
C244 H248 0.950 . S
C244 C253 1.390 . S
C245 C244 1.387 . S
C245 C247 1.387 . S
H246 C253 0.950 . S
C247 C245 1.387 . S
C247 C249 1.390 . S
C247 H251 0.950 . S
H248 C244 0.950 . S
C249 C247 1.390 . S
C249 C250 1.387 . S
C249 H252 0.950 . S
C250 C249 1.387 . S
C250 C253 1.387 . S
H251 C247 0.950 . S
H252 C249 0.950 . S
C253 C244 1.390 . S
C253 H246 0.950 . S
C253 C250 1.387 . S
C254 C255 1.387 . S
C254 H258 0.950 . S
C254 C263 1.390 . S
C255 C254 1.387 . S
C255 C257 1.387 . S
H256 C263 0.950 . S
C257 C255 1.387 . S
C257 C259 1.390 . S
C257 H261 0.950 . S
H258 C254 0.950 . S
C259 C257 1.390 . S
C259 C260 1.387 . S
C259 H262 0.950 . S
C260 C259 1.387 . S
C260 C263 1.387 . S
H261 C257 0.950 . S
H262 C259 0.950 . S
C263 C254 1.390 . S
C263 H256 0.950 . S
C263 C260 1.387 . S
C264 C265 1.387 1_554 S
C264 H268 0.950 . S
C264 C273 1.390 1_554 S
C265 C264 1.387 1_556 S
C265 C267 1.387 . S
H266 C273 0.950 1_554 S
C267 C265 1.387 . S
C267 C269 1.390 . S
C267 H271 0.950 . S
H268 C264 0.950 . S
C269 C267 1.390 . S
C269 C270 1.387 . S
C269 H272 0.950 . S
C270 C269 1.387 . S
C270 C273 1.387 . S
H271 C267 0.950 . S
H272 C269 0.950 . S
C273 C264 1.390 1_556 S
C273 H266 0.950 1_556 S
C273 C270 1.387 . S
C274 C275 1.387 . S
C274 H278 0.950 . S
C274 C283 1.390 . S
C275 C274 1.387 . S
C275 C277 1.387 . S
H276 C283 0.950 . S
C277 C275 1.387 . S
C277 C279 1.390 . S
C277 H281 0.950 . S
H278 C274 0.950 . S
C279 C277 1.390 . S
C279 C280 1.387 . S
C279 H282 0.950 1_554 S
C280 C279 1.387 . S
C280 C283 1.387 . S
H281 C277 0.950 . S
H282 C279 0.950 1_556 S
C283 C274 1.390 . S
C283 H276 0.950 . S
C283 C280 1.387 . S
C284 C285 1.387 . S
C284 H288 0.950 . S
C284 C293 1.390 . S
C285 C284 1.387 . S
C285 C287 1.387 1_556 S
H286 C293 0.950 . S
C287 C285 1.387 1_554 S
C287 C289 1.390 1_554 S
C287 H291 0.950 . S
H288 C284 0.950 . S
C289 C287 1.390 1_556 S
C289 C290 1.387 . S
C289 H292 0.950 1_556 S
C290 C289 1.387 . S
C290 C293 1.387 . S
H291 C287 0.950 . S
H292 C289 0.950 1_554 S
C293 C284 1.390 . S
C293 H286 0.950 . S
C293 C290 1.387 . S
C294 C295 1.387 1_556 S
C294 H298 0.950 . S
C294 C303 1.390 1_556 S
C295 C294 1.387 1_554 S
C295 C297 1.387 . S
H296 C303 0.950 1_556 S
C297 C295 1.387 . S
C297 C299 1.390 . S
C297 H301 0.950 . S
H298 C294 0.950 . S
C299 C297 1.390 . S
C299 C300 1.387 . S
C299 H302 0.950 . S
C300 C299 1.387 . S
C300 C303 1.387 . S
H301 C297 0.950 . S
H302 C299 0.950 . S
C303 C294 1.390 1_554 S
C303 H296 0.950 1_554 S
C303 C300 1.387 . S
C304 C305 1.388 . S
C304 H308 0.950 . S
C304 C313 1.390 1_655 S
C305 C304 1.388 . S
C305 C307 1.388 . S
H306 C313 0.950 . S
C307 C305 1.388 . S
C307 C309 1.390 1_655 S
C307 H311 0.950 . S
H308 C304 0.950 . S
C309 C307 1.390 1_455 S
C309 C310 1.388 . S
C309 H312 0.950 . S
C310 C309 1.388 . S
C310 C313 1.388 . S
H311 C307 0.950 . S
H312 C309 0.950 . S
C313 C304 1.390 1_455 S
C313 H306 0.950 . S
C313 C310 1.388 . S
C314 C315 1.388 . S
C314 H318 0.950 . S
C314 C323 1.390 1_545 S
C315 C314 1.388 . S
C315 C317 1.388 . S
H316 C323 0.950 . S
C317 C315 1.388 . S
C317 C319 1.390 1_545 S
C317 H321 0.950 . S
H318 C314 0.950 . S
C319 C317 1.390 1_565 S
C319 C320 1.388 . S
C319 H322 0.950 . S
C320 C319 1.388 . S
C320 C323 1.388 . S
H321 C317 0.950 . S
H322 C319 0.950 . S
C323 C314 1.390 1_565 S
C323 H316 0.950 . S
C323 C320 1.388 . S
C324 C325 1.387 . S
C324 H328 0.950 . S
C324 C333 1.390 1_545 S
C325 C324 1.387 . S
C325 C327 1.387 . S
H326 C333 0.950 . S
C327 C325 1.387 . S
C327 C329 1.390 1_545 S
C327 H331 0.950 . S
H328 C324 0.950 . S
C329 C327 1.390 1_565 S
C329 C330 1.387 . S
C329 H332 0.950 . S
C330 C329 1.387 . S
C330 C333 1.387 . S
H331 C327 0.950 . S
H332 C329 0.950 . S
C333 C324 1.390 1_565 S
C333 H326 0.950 . S
C333 C330 1.387 . S
C334 C335 1.387 . S
C334 H338 0.950 . S
C334 C343 1.390 1_455 S
C335 C334 1.387 . S
C335 C337 1.387 . S
H336 C343 0.950 . S
C337 C335 1.387 . S
C337 C339 1.390 1_455 S
C337 H341 0.950 . S
H338 C334 0.950 . S
C339 C337 1.390 1_655 S
C339 C340 1.387 . S
C339 H342 0.950 . S
C340 C339 1.387 . S
C340 C343 1.387 . S
H341 C337 0.950 . S
H342 C339 0.950 . S
C343 C334 1.390 1_655 S
C343 H336 0.950 . S
C343 C340 1.387 . S
C185 N173 1.834 . S
C190 N12 1.833 . S
C195 N35 1.833 . S
C200 N104 1.832 . S
C205 N58 1.834 . S
C210 N127 1.833 . S
C215 N150 1.836 . S
C220 N81 1.836 . S
C225 N25 1.608 . S
C230 C16 1.697 . S
C235 C39 1.697 . S
C240 N48 1.609 . S
C245 N71 1.608 . S
C250 C62 1.699 . S
C255 C85 1.699 . S
C260 N2 1.606 . S
C265 N163 1.607 1_556 S
C270 C108 1.699 . S
C275 C131 1.699 . S
C280 N94 1.606 1_554 S
C285 N117 1.609 1_556 S
C290 C154 1.697 . S
C295 N140 1.608 1_554 S
C300 C177 1.697 . S
C305 C53 1.803 . S
C310 C7 1.803 . S
C315 C76 1.803 . S
C320 C30 1.803 . S
C325 C145 1.804 . S
C330 C99 1.804 . S
C335 C168 1.804 . S
C340 C122 1.804 . S
