# Generated by pormake.
# Topology umg, (4)-cn, num edge types: 1
# Building blocks:
#     Node 0, Type 0, BuildingBlock: GALJAG_clean_sbu_0, # of connection points: 4
#     Node 1, Type 0, BuildingBlock: GALJAG_clean_sbu_0, # of connection points: 4
#     Node 2, Type 0, BuildingBlock: GALJAG_clean_sbu_0, # of connection points: 4
#     Node 3, Type 0, BuildingBlock: GALJAG_clean_sbu_0, # of connection points: 4
#     Node 4, Type 0, BuildingBlock: GALJAG_clean_sbu_0, # of connection points: 4
#     Node 5, Type 0, BuildingBlock: GALJAG_clean_sbu_0, # of connection points: 4
#     Node 6, Type 0, BuildingBlock: GALJAG_clean_sbu_0, # of connection points: 4
#     Node 7, Type 0, BuildingBlock: GALJAG_clean_sbu_0, # of connection points: 4
#     Node 8, Type 0, BuildingBlock: GALJAG_clean_sbu_0, # of connection points: 4
#     Node 9, Type 0, BuildingBlock: GALJAG_clean_sbu_0, # of connection points: 4
#     Node 10, Type 0, BuildingBlock: GALJAG_clean_sbu_0, # of connection points: 4
#     Node 11, Type 0, BuildingBlock: GALJAG_clean_sbu_0, # of connection points: 4
#     Edge 12, Type (0, 0), BuildingBlock: XUDNAN_clean_linker_2, # of connection points: 2
#     Edge 13, Type (0, 0), BuildingBlock: XUDNAN_clean_linker_2, # of connection points: 2
#     Edge 14, Type (0, 0), BuildingBlock: XUDNAN_clean_linker_2, # of connection points: 2
#     Edge 15, Type (0, 0), BuildingBlock: XUDNAN_clean_linker_2, # of connection points: 2
#     Edge 16, Type (0, 0), BuildingBlock: XUDNAN_clean_linker_2, # of connection points: 2
#     Edge 17, Type (0, 0), BuildingBlock: XUDNAN_clean_linker_2, # of connection points: 2
#     Edge 18, Type (0, 0), BuildingBlock: XUDNAN_clean_linker_2, # of connection points: 2
#     Edge 19, Type (0, 0), BuildingBlock: XUDNAN_clean_linker_2, # of connection points: 2
#     Edge 20, Type (0, 0), BuildingBlock: XUDNAN_clean_linker_2, # of connection points: 2
#     Edge 21, Type (0, 0), BuildingBlock: XUDNAN_clean_linker_2, # of connection points: 2
#     Edge 22, Type (0, 0), BuildingBlock: XUDNAN_clean_linker_2, # of connection points: 2
#     Edge 23, Type (0, 0), BuildingBlock: XUDNAN_clean_linker_2, # of connection points: 2
#     Edge 24, Type (0, 0), BuildingBlock: XUDNAN_clean_linker_2, # of connection points: 2
#     Edge 25, Type (0, 0), BuildingBlock: XUDNAN_clean_linker_2, # of connection points: 2
#     Edge 26, Type (0, 0), BuildingBlock: XUDNAN_clean_linker_2, # of connection points: 2
#     Edge 27, Type (0, 0), BuildingBlock: XUDNAN_clean_linker_2, # of connection points: 2
#     Edge 28, Type (0, 0), BuildingBlock: XUDNAN_clean_linker_2, # of connection points: 2
#     Edge 29, Type (0, 0), BuildingBlock: XUDNAN_clean_linker_2, # of connection points: 2
#     Edge 30, Type (0, 0), BuildingBlock: XUDNAN_clean_linker_2, # of connection points: 2
#     Edge 31, Type (0, 0), BuildingBlock: XUDNAN_clean_linker_2, # of connection points: 2
#     Edge 32, Type (0, 0), BuildingBlock: XUDNAN_clean_linker_2, # of connection points: 2
#     Edge 33, Type (0, 0), BuildingBlock: XUDNAN_clean_linker_2, # of connection points: 2
#     Edge 34, Type (0, 0), BuildingBlock: XUDNAN_clean_linker_2, # of connection points: 2
#     Edge 35, Type (0, 0), BuildingBlock: XUDNAN_clean_linker_2, # of connection points: 2
# Relax obj value: 0.078
# Max RMSD: 0.313
# Mean RMSD: 0.210
data_MOF--net-umg--node1-GALJAG_clean_sbu_0--edge1-XUDNAN_clean_linker_2
_symmetry_space_group_name_H-M    P1
_symmetry_Int_Tables_number       1
_symmetry_cell_setting            triclinic
loop_
_symmetry_equiv_pos_as_xyz
'x, y, z'
_cell_length_a     28.832993
_cell_length_b     28.703092
_cell_length_c     85.481424
_cell_angle_alpha  92.298343
_cell_angle_beta   92.337595
_cell_angle_gamma 120.53666
loop_
_atom_site_label
_atom_site_type_symbol
_atom_site_fract_x
_atom_site_fract_y
_atom_site_fract_z
_atom_type_partial_charge
In0 In 0.23756 0.48028 0.07515 0.0
O1 O 0.24002 0.5279 0.05454 0.0
O2 O 0.19675 0.44053 0.05156 0.0
C3 C 0.28363 0.51991 0.10359 0.0
C4 C 0.31896 0.46714 0.06865 0.0
C5 C 0.14292 0.45747 0.08487 0.0
O6 O 0.28406 0.55077 0.0932 0.0
O7 O 0.26002 0.46963 0.09943 0.0
O8 O 0.15267 0.41962 0.08162 0.0
O9 O 0.18059 0.50528 0.08297 0.0
C10 C 0.21177 0.48521 0.04547 0.0
O11 O 0.27393 0.42708 0.07202 0.0
O12 O 0.3212 0.51237 0.06816 0.0
In13 In 0.73734 0.29389 0.41662 0.0
O14 O 0.81612 0.29467 0.4138 0.0
O15 O 0.81756 0.37008 0.41473 0.0
C16 C 0.65438 0.19195 0.41854 0.0
C17 C 0.71432 0.31122 0.38746 0.0
C18 C 0.74958 0.33103 0.44665 0.0
O19 O 0.70201 0.20199 0.41683 0.0
O20 O 0.64929 0.23316 0.41933 0.0
O21 O 0.72457 0.34233 0.43632 0.0
O22 O 0.76656 0.30067 0.44178 0.0
C23 C 0.84388 0.34595 0.41354 0.0
O24 O 0.7063 0.33351 0.39935 0.0
O25 O 0.73223 0.28034 0.39053 0.0
In26 In 0.38849 0.69998 0.74766 0.0
O27 O 0.32948 0.67152 0.72561 0.0
O28 O 0.41402 0.72096 0.7233 0.0
C29 C 0.32512 0.66699 0.77183 0.0
C30 C 0.43184 0.80803 0.7536 0.0
C31 C 0.43834 0.64125 0.74933 0.0
O32 O 0.30658 0.64652 0.75801 0.0
O33 O 0.37438 0.70307 0.77319 0.0
O34 O 0.46352 0.6924 0.75097 0.0
O35 O 0.38794 0.61955 0.74692 0.0
C36 C 0.36714 0.69622 0.71662 0.0
O37 O 0.45722 0.7838 0.75665 0.0
O38 O 0.38427 0.77767 0.74757 0.0
In39 In 0.66973 0.33974 0.07639 0.0
O40 O 0.64276 0.29188 0.0522 0.0
O41 O 0.70512 0.37549 0.05419 0.0
C42 C 0.6287 0.28571 0.10178 0.0
C43 C 0.60772 0.38338 0.07398 0.0
C44 C 0.77178 0.37168 0.08537 0.0
O45 O 0.62763 0.26071 0.089 0.0
O46 O 0.64941 0.33632 0.10133 0.0
O47 O 0.75315 0.40317 0.08672 0.0
O48 O 0.73871 0.32426 0.07948 0.0
C49 C 0.67543 0.33344 0.04529 0.0
O50 O 0.65789 0.41209 0.07789 0.0
O51 O 0.58941 0.33307 0.07152 0.0
In52 In 0.33412 0.69253 0.41223 0.0
O53 O 0.24311 0.65883 0.41315 0.0
O54 O 0.27109 0.6036 0.40921 0.0
C55 C 0.38795 0.80165 0.41603 0.0
C56 C 0.34966 0.68279 0.38199 0.0
C57 C 0.3667 0.67382 0.43969 0.0
O58 O 0.33694 0.77359 0.41609 0.0
O59 O 0.41092 0.77451 0.4142 0.0
O60 O 0.38771 0.67171 0.42714 0.0
O61 O 0.32992 0.68521 0.43818 0.0
C62 C 0.23128 0.60995 0.41084 0.0
O63 O 0.36914 0.66629 0.39247 0.0
O64 O 0.32332 0.70387 0.38694 0.0
In65 In 0.59264 0.30422 0.75599 0.0
O66 O 0.52441 0.21373 0.75524 0.0
O67 O 0.60603 0.23604 0.76126 0.0
C68 C 0.56426 0.37954 0.75268 0.0
C69 C 0.63346 0.31416 0.72788 0.0
C70 C 0.6302 0.33866 0.78582 0.0
O71 O 0.52838 0.32982 0.75337 0.0
O72 O 0.61226 0.38935 0.75341 0.0
O73 O 0.6611 0.34245 0.77518 0.0
O74 O 0.58073 0.31694 0.78137 0.0
C75 C 0.55736 0.19843 0.75916 0.0
O76 O 0.66365 0.33342 0.74046 0.0
O77 O 0.58333 0.28928 0.72967 0.0
In78 In 0.48617 0.76644 0.58084 0.0
O79 O 0.56468 0.76721 0.58731 0.0
O80 O 0.48986 0.6918 0.58543 0.0
C81 C 0.50523 0.86746 0.57738 0.0
C82 C 0.43143 0.7455 0.60669 0.0
C83 C 0.46554 0.72932 0.55076 0.0
O84 O 0.54231 0.85908 0.58229 0.0
O85 O 0.45979 0.82518 0.57415 0.0
O86 O 0.42784 0.71768 0.55978 0.0
O87 O 0.51274 0.7604 0.55689 0.0
C88 C 0.54054 0.71606 0.5879 0.0
O89 O 0.40863 0.71997 0.5936 0.0
O90 O 0.48082 0.781 0.60647 0.0
In91 In 0.71918 0.55393 0.92147 0.0
O92 O 0.79677 0.60405 0.90939 0.0
O93 O 0.80142 0.61534 0.93422 0.0
C94 C 0.65331 0.59621 0.9229 0.0
C95 C 0.69911 0.48626 0.94483 0.0
C96 C 0.70559 0.49736 0.89399 0.0
O97 O 0.70339 0.62544 0.9216 0.0
O98 O 0.63718 0.54667 0.92372 0.0
O99 O 0.73452 0.49825 0.90561 0.0
O100 O 0.68274 0.52445 0.89626 0.0
C101 C 0.82639 0.6267 0.92183 0.0
O102 O 0.73352 0.53626 0.94648 0.0
O103 O 0.67409 0.47034 0.93149 0.0
In104 In 0.27344 0.66618 0.23832 0.0
O105 O 0.28094 0.74911 0.24023 0.0
O106 O 0.35317 0.74646 0.23912 0.0
C107 C 0.16448 0.60375 0.23469 0.0
C108 C 0.29931 0.65567 0.26795 0.0
C109 C 0.3028 0.63868 0.2117 0.0
O110 O 0.18989 0.65303 0.23176 0.0
O111 O 0.194 0.5857 0.23938 0.0
O112 O 0.30613 0.62043 0.22463 0.0
O113 O 0.28459 0.67036 0.21228 0.0
C114 C 0.33183 0.77533 0.24034 0.0
O115 O 0.31349 0.63817 0.2564 0.0
O116 O 0.27143 0.67668 0.26442 0.0
In117 In 0.66934 0.36196 0.58513 0.0
O118 O 0.72561 0.37887 0.60712 0.0
O119 O 0.64071 0.34451 0.6092 0.0
C120 C 0.71449 0.38199 0.55764 0.0
C121 C 0.65454 0.44687 0.58728 0.0
C122 C 0.61752 0.25373 0.58017 0.0
O123 O 0.74177 0.38734 0.57035 0.0
O124 O 0.66558 0.36744 0.55906 0.0
O125 O 0.59261 0.27958 0.5791 0.0
O126 O 0.6678 0.28274 0.58353 0.0
C127 C 0.68665 0.36074 0.61601 0.0
O128 O 0.6153 0.39879 0.58416 0.0
O129 O 0.70044 0.45139 0.58919 0.0
In130 In 0.24132 0.63126 0.91139 0.0
O131 O 0.16189 0.62662 0.90719 0.0
O132 O 0.22681 0.70077 0.91844 0.0
C133 C 0.34189 0.64839 0.91513 0.0
C134 C 0.20847 0.5786 0.9373 0.0
C135 C 0.23391 0.61917 0.8802 0.0
O136 O 0.3002 0.60213 0.91217 0.0
O137 O 0.33329 0.68769 0.91615 0.0
O138 O 0.26271 0.6645 0.8879 0.0
O139 O 0.20825 0.57874 0.88836 0.0
C140 C 0.17746 0.6735 0.91333 0.0
O141 O 0.238 0.62956 0.93733 0.0
O142 O 0.19448 0.55308 0.92384 0.0
In143 In 0.6767 0.26444 0.24317 0.0
O144 O 0.64768 0.17577 0.24645 0.0
O145 O 0.59131 0.20408 0.24717 0.0
C146 C 0.77721 0.3405 0.23824 0.0
C147 C 0.68211 0.29835 0.27298 0.0
C148 C 0.64343 0.24688 0.21295 0.0
O149 O 0.76591 0.29306 0.24149 0.0
O150 O 0.73779 0.3485 0.23756 0.0
O151 O 0.63555 0.27824 0.22202 0.0
O152 O 0.66853 0.22598 0.21924 0.0
C153 C 0.59926 0.16456 0.24785 0.0
O154 O 0.65642 0.30795 0.26233 0.0
O155 O 0.70479 0.27282 0.2683 0.0
H156 H 0.23446 0.6283 0.96658 0.0
H157 H 0.1528 0.4692 0.94162 0.0
H158 H 0.13799 0.4268 0.96707 0.0
H159 H 0.3056 0.60077 0.99476 0.0
H160 H 0.30062 0.6413 0.01052 0.0
H161 H 0.29891 0.65822 0.99056 0.0
H162 H 0.20728 0.65277 0.99383 0.0
H163 H 0.20883 0.63611 0.01387 0.0
H164 H 0.15162 0.59194 0.00045 0.0
H165 H 0.1392 0.40307 0.99528 0.0
H166 H 0.15622 0.39952 0.02365 0.0
H167 H 0.23849 0.57512 0.02952 0.0
C168 C 0.21261 0.58446 0.96642 0.0
C169 C 0.19457 0.5519 0.95216 0.0
C170 C 0.16664 0.49477 0.95245 0.0
C171 C 0.15806 0.47044 0.96683 0.0
C172 C 0.17747 0.50399 0.98068 0.0
C173 C 0.20394 0.55978 0.98055 0.0
C174 C 0.22407 0.58719 0.99686 0.0
C175 C 0.28596 0.62401 -0.00175 0.0
C176 C 0.19627 0.61886 0.00153 0.0
C177 C 0.20596 0.53818 0.00626 0.0
C178 C 0.17864 0.49049 0.99678 0.0
C179 C 0.16003 0.44011 0.00281 0.0
C180 C 0.16998 0.43855 0.01893 0.0
C181 C 0.19862 0.4871 0.02875 0.0
C182 C 0.21625 0.53737 0.02231 0.0
H183 H 0.75635 0.2907 0.36232 0.0
H184 H 0.65344 0.35317 0.37542 0.0
H185 H 0.63712 0.36288 0.34723 0.0
H186 H 0.81662 0.37784 0.33042 0.0
H187 H 0.81885 0.32523 0.31884 0.0
H188 H 0.82395 0.32681 0.33995 0.0
H189 H 0.7427 0.22821 0.33888 0.0
H190 H 0.73733 0.22633 0.31781 0.0
H191 H 0.67976 0.21199 0.32867 0.0
H192 H 0.62796 0.35867 0.31669 0.0
H193 H 0.62838 0.34267 0.2879 0.0
H194 H 0.7397 0.28536 0.2964 0.0
C195 C 0.73057 0.30678 0.35933 0.0
C196 C 0.70584 0.32087 0.37101 0.0
C197 C 0.6728 0.34219 0.3666 0.0
C198 C 0.66337 0.3478 0.35065 0.0
C199 C 0.68801 0.33266 0.33938 0.0
C200 C 0.72136 0.31308 0.34366 0.0
C201 C 0.74234 0.2982 0.32959 0.0
C202 C 0.8041 0.33418 0.32971 0.0
C203 C 0.72443 0.2376 0.32869 0.0
C204 C 0.71456 0.31097 0.31657 0.0
C205 C 0.68357 0.33114 0.32229 0.0
C206 C 0.65261 0.34345 0.31215 0.0
C207 C 0.65309 0.3343 0.29584 0.0
C208 C 0.68415 0.3129 0.28991 0.0
C209 C 0.71566 0.30197 0.3005 0.0
H210 H 0.43541 0.77293 0.69854 0.0
H211 H 0.28067 0.62335 0.69644 0.0
H212 H 0.27422 0.62392 0.66735 0.0
H213 H 0.4034 0.83361 0.66546 0.0
H214 H 0.4712 0.8638 0.6593 0.0
H215 H 0.45919 0.85413 0.67977 0.0
H216 H 0.50861 0.79976 0.68059 0.0
H217 H 0.52054 0.80901 0.66018 0.0
H218 H 0.48602 0.74158 0.66693 0.0
H219 H 0.29193 0.63654 0.63811 0.0
H220 H 0.33064 0.66056 0.6122 0.0
H221 H 0.47219 0.80264 0.6347 0.0
C222 C 0.39966 0.74069 0.69199 0.0
C223 C 0.35863 0.69796 0.69962 0.0
C224 C 0.3124 0.65657 0.69072 0.0
C225 C 0.30848 0.65665 0.67425 0.0
C226 C 0.35064 0.69898 0.66704 0.0
C227 C 0.39496 0.74058 0.67574 0.0
C228 C 0.43662 0.77971 0.66545 0.0
C229 C 0.44294 0.83615 0.66762 0.0
C230 C 0.49112 0.78262 0.66847 0.0
C231 C 0.41013 0.75263 0.64951 0.0
C232 C 0.36028 0.70649 0.65053 0.0
C233 C 0.33047 0.6731 0.6372 0.0
C234 C 0.35271 0.68698 0.62255 0.0
C235 C 0.4043 0.73347 0.62149 0.0
C236 C 0.43251 0.76701 0.63512 0.0
H237 H 0.75114 0.41425 0.02958 0.0
H238 H 0.59874 0.26234 0.02236 0.0
H239 H 0.59214 0.28052 0.99445 0.0
H240 H 0.71253 0.48942 0.00924 0.0
H241 H 0.77634 0.53192 0.0011 0.0
H242 H 0.77444 0.50201 0.01931 0.0
H243 H 0.82543 0.45719 0.00784 0.0
H244 H 0.82847 0.48782 0.98962 0.0
H245 H 0.7995 0.41547 0.98968 0.0
H246 H 0.59755 0.32235 0.96818 0.0
H247 H 0.61486 0.38203 0.94631 0.0
H248 H 0.76152 0.50758 0.97195 0.0
C249 C 0.71709 0.38387 0.02203 0.0
C250 C 0.67557 0.3367 0.02808 0.0
C251 C 0.63136 0.29837 0.01789 0.0
C252 C 0.62725 0.30854 0.00205 0.0
C253 C 0.66789 0.35693 0.99667 0.0
C254 C 0.71229 0.39359 0.00638 0.0
C255 C 0.74791 0.44498 -0.00153 0.0
C256 C 0.75305 0.49499 0.00757 0.0
C257 C 0.80362 0.45174 0.99627 0.0
C258 C 0.71574 0.43266 0.98293 0.0
C259 C 0.67022 0.38138 0.98193 0.0
C260 C 0.63341 0.36226 0.96881 0.0
C261 C 0.64346 0.39646 0.95648 0.0
C262 C 0.68942 0.44943 0.9575 0.0
C263 C 0.72601 0.46733 0.97086 0.0
H264 H 0.28778 0.70768 0.29316 0.0
H265 H 0.34775 0.60153 0.27981 0.0
H266 H 0.3734 0.60055 0.30785 0.0
H267 H 0.39116 0.78703 0.32424 0.0
H268 H 0.34461 0.79363 0.33627 0.0
H269 H 0.3336 0.78709 0.3152 0.0
H270 H 0.23763 0.70393 0.31709 0.0
H271 H 0.24826 0.71034 0.33812 0.0
H272 H 0.22972 0.64714 0.32746 0.0
H273 H 0.38795 0.60875 0.338 0.0
H274 H 0.38873 0.62437 0.36684 0.0
H275 H 0.32039 0.72636 0.35897 0.0
C276 C 0.30641 0.68423 0.29608 0.0
C277 C 0.31556 0.65441 0.2844 0.0
C278 C 0.34038 0.62459 0.28867 0.0
C279 C 0.35515 0.62394 0.30452 0.0
C280 C 0.34529 0.65384 0.31578 0.0
C281 C 0.32167 0.68358 0.31166 0.0
C282 C 0.31396 0.71143 0.32578 0.0
C283 C 0.34787 0.77347 0.32534 0.0
C284 C 0.25383 0.69201 0.32719 0.0
C285 C 0.33564 0.69174 0.33862 0.0
C286 C 0.35404 0.65894 0.33275 0.0
C287 C 0.37405 0.63475 0.34269 0.0
C288 C 0.37443 0.64386 0.35901 0.0
C289 C 0.3546 0.67651 0.36507 0.0
C290 C 0.33587 0.70122 0.35469 0.0
H291 H 0.57452 0.28391 0.69989 0.0
H292 H 0.73941 0.36472 0.72027 0.0
H293 H 0.77277 0.38321 0.6936 0.0
H294 H 0.59423 0.22215 0.66494 0.0
H295 H 0.54827 0.23281 0.65281 0.0
H296 H 0.53854 0.22338 0.67338 0.0
H297 H 0.54029 0.31447 0.67686 0.0
H298 H 0.55027 0.32429 0.65634 0.0
H299 H 0.59743 0.37555 0.67092 0.0
H300 H 0.78706 0.39547 0.66413 0.0
H301 H 0.78037 0.40071 0.63523 0.0
H302 H 0.60574 0.31311 0.63542 0.0
C303 C 0.61769 0.3049 0.69878 0.0
C304 C 0.65441 0.32263 0.71212 0.0
C305 C 0.71058 0.35056 0.71016 0.0
C306 C 0.72984 0.36122 0.69508 0.0
C307 C 0.69234 0.34369 0.68215 0.0
C308 C 0.63742 0.31605 0.68393 0.0
C309 C 0.60511 0.30338 0.66841 0.0
C310 C 0.56946 0.24178 0.66467 0.0
C311 C 0.57131 0.33109 0.66813 0.0
C312 C 0.65029 0.32848 0.65755 0.0
C313 C 0.70043 0.35135 0.66556 0.0
C314 C 0.74793 0.37749 0.65776 0.0
C315 C 0.74382 0.38033 0.64139 0.0
C316 C 0.6926 0.35747 0.63311 0.0
C317 C 0.64556 0.33113 0.64139 0.0
H318 H 0.3035 0.67774 0.18316 0.0
H319 H 0.33121 0.56197 0.20668 0.0
H320 H 0.34381 0.528 0.18113 0.0
H321 H 0.22491 0.59276 0.15187 0.0
H322 H 0.25038 0.6423 0.13738 0.0
H323 H 0.25296 0.66367 0.1576 0.0
H324 H 0.35627 0.72928 0.15748 0.0
H325 H 0.35399 0.70812 0.13718 0.0
H326 H 0.39874 0.70346 0.15154 0.0
H327 H 0.33812 0.49699 0.15313 0.0
H328 H 0.3164 0.47224 0.12468 0.0
H329 H 0.29558 0.61023 0.11934 0.0
C330 C 0.31357 0.64616 0.18297 0.0
C331 C 0.31647 0.62243 0.19684 0.0
C332 C 0.32907 0.5808 0.19616 0.0
C333 C 0.33649 0.56144 0.18172 0.0
C334 C 0.33197 0.58479 0.16818 0.0
C335 C 0.32137 0.62666 0.16871 0.0
C336 C 0.31336 0.64127 0.1524 0.0
C337 C 0.25707 0.63456 0.14966 0.0
C338 C 0.35828 0.69896 0.14948 0.0
C339 C 0.31836 0.59923 0.1426 0.0
C340 C 0.32988 0.56755 0.15192 0.0
C341 C 0.3305 0.52233 0.14567 0.0
C342 C 0.31792 0.50847 0.12954 0.0
C343 C 0.30506 0.53983 0.11989 0.0
C344 C 0.30675 0.58655 0.12643 0.0
H345 H 0.68594 0.35472 0.46444 0.0
H346 H 0.83428 0.3506 0.4664 0.0
H347 H 0.84769 0.37525 0.49488 0.0
H348 H 0.72796 0.4657 0.49592 0.0
H349 H 0.66213 0.43286 0.50355 0.0
H350 H 0.66867 0.42387 0.48293 0.0
H351 H 0.61646 0.3196 0.48463 0.0
H352 H 0.60987 0.32828 0.50521 0.0
H353 H 0.64039 0.29014 0.49873 0.0
H354 H 0.84075 0.39141 0.52343 0.0
H355 H 0.811 0.39298 0.5501 0.0
H356 H 0.66556 0.38303 0.5298 0.0
C357 C 0.72194 0.36061 0.47084 0.0
C358 C 0.7594 0.35142 0.46327 0.0
C359 C 0.80524 0.35772 0.47203 0.0
C360 C 0.81336 0.37199 0.48819 0.0
C361 C 0.77509 0.37953 0.49544 0.0
C362 C 0.73019 0.37397 0.48708 0.0
C363 C 0.69223 0.37829 0.49798 0.0
C364 C 0.68749 0.42816 0.49491 0.0
C365 C 0.63647 0.32596 0.49655 0.0
C366 C 0.72201 0.38547 0.51373 0.0
C367 C 0.77025 0.38719 0.51201 0.0
C368 C 0.80337 0.3908 0.52494 0.0
C369 C 0.78623 0.3917 0.54003 0.0
C370 C 0.73612 0.38822 0.542 0.0
C371 C 0.70427 0.38608 0.52866 0.0
H372 H 0.34328 0.72853 0.7985 0.0
H373 H 0.23747 0.56707 0.77657 0.0
H374 H 0.19551 0.537 0.80186 0.0
H375 H 0.37148 0.69132 0.83347 0.0
H376 H 0.3724 0.74485 0.84551 0.0
H377 H 0.38814 0.75457 0.82534 0.0
H378 H 0.31272 0.77712 0.82003 0.0
H379 H 0.29711 0.76813 0.84028 0.0
H380 H 0.24486 0.73 0.82487 0.0
H381 H 0.17482 0.5231 0.83086 0.0
H382 H 0.17301 0.52843 0.85988 0.0
H383 H 0.29162 0.7003 0.86152 0.0
C384 C 0.31041 0.68711 0.79892 0.0
C385 C 0.29345 0.64999 0.78571 0.0
C386 C 0.25052 0.59613 0.78662 0.0
C387 C 0.2267 0.57878 0.80092 0.0
C388 C 0.24577 0.61624 0.81395 0.0
C389 C 0.28604 0.66958 0.81292 0.0
C390 C 0.30191 0.70155 0.8286 0.0
C391 C 0.36202 0.72437 0.83351 0.0
C392 C 0.28831 0.74687 0.82843 0.0
C393 C 0.26579 0.65755 0.83884 0.0
C394 C 0.23333 0.60859 0.83028 0.0
C395 C 0.19937 0.5615 0.83761 0.0
C396 C 0.19874 0.56481 0.85407 0.0
C397 C 0.23198 0.61481 0.86291 0.0
C398 C 0.26531 0.66157 0.85509 0.0
H399 H 0.61127 0.32915 0.128 0.0
H400 H 0.61208 0.18657 0.10962 0.0
H401 H 0.60252 0.15411 0.13639 0.0
H402 H 0.69282 0.35477 0.16064 0.0
H403 H 0.65928 0.37747 0.17357 0.0
H404 H 0.65486 0.38381 0.15282 0.0
H405 H 0.55042 0.32875 0.15214 0.0
H406 H 0.55439 0.32275 0.17301 0.0
H407 H 0.51691 0.26276 0.15987 0.0
H408 H 0.60992 0.14648 0.16541 0.0
H409 H 0.62866 0.1611 0.19416 0.0
H410 H 0.62159 0.30835 0.19359 0.0
C411 C 0.60769 0.2902 0.12951 0.0
C412 C 0.61221 0.26016 0.11677 0.0
C413 C 0.60805 0.2098 0.11921 0.0
C414 C 0.60271 0.19119 0.13437 0.0
C415 C 0.60072 0.22309 0.14682 0.0
C416 C 0.6022 0.27114 0.14448 0.0
C417 C 0.60488 0.30072 0.15988 0.0
C418 C 0.656 0.35751 0.16183 0.0
C419 C 0.55358 0.30391 0.16131 0.0
C420 C 0.60745 0.26323 0.17135 0.0
C421 C 0.60429 0.21832 0.16358 0.0
C422 C 0.61112 0.18074 0.17161 0.0
C423 C 0.62208 0.18959 0.18793 0.0
C424 C 0.62611 0.23565 0.19607 0.0
C425 C 0.61755 0.27224 0.18769 0.0
H426 H 0.37295 0.69126 0.53196 0.0
H427 H 0.53739 0.7243 0.53216 0.0
H428 H 0.52465 0.69887 0.50371 0.0
H429 H 0.31249 0.57791 0.50038 0.0
H430 H 0.26963 0.6009 0.49217 0.0
H431 H 0.28818 0.61161 0.51297 0.0
H432 H 0.32589 0.71469 0.51146 0.0
H433 H 0.3075 0.7043 0.49075 0.0
H434 H 0.37633 0.7515 0.49789 0.0
H435 H 0.49795 0.68064 0.47494 0.0
H436 H 0.46107 0.67678 0.44794 0.0
H437 H 0.3155 0.6587 0.46656 0.0
C438 C 0.40565 0.69158 0.52606 0.0
C439 C 0.45591 0.70924 0.53417 0.0
C440 C 0.49845 0.7107 0.52608 0.0
C441 C 0.49149 0.69596 0.50997 0.0
C442 C 0.44178 0.67992 0.50217 0.0
C443 C 0.39957 0.6777 0.50995 0.0
C444 C 0.35272 0.66587 0.49859 0.0
C445 C 0.3028 0.61079 0.50119 0.0
C446 C 0.33991 0.71183 0.49974 0.0
C447 C 0.37604 0.66407 0.48321 0.0
C448 C 0.42689 0.67089 0.4855 0.0
C449 C 0.45781 0.67439 0.47298 0.0
C450 C 0.43663 0.67216 0.45771 0.0
C451 C 0.38559 0.66747 0.45525 0.0
C452 C 0.35456 0.66202 0.46813 0.0
H453 H 0.62767 0.46579 0.87002 0.0
H454 H 0.77506 0.46708 0.88346 0.0
H455 H 0.77175 0.42549 0.85722 0.0
H456 H 0.56276 0.33536 0.84744 0.0
H457 H 0.53096 0.35594 0.83291 0.0
H458 H 0.54503 0.38546 0.85277 0.0
H459 H 0.59916 0.4815 0.84261 0.0
H460 H 0.58545 0.45228 0.82273 0.0
H461 H 0.65416 0.49715 0.83042 0.0
H462 H 0.75555 0.38979 0.82882 0.0
H463 H 0.72278 0.35454 0.8012 0.0
H464 H 0.58289 0.3708 0.80718 0.0
C465 C 0.65905 0.45702 0.86744 0.0
C466 C 0.70169 0.46969 0.87868 0.0
C467 C 0.74191 0.4574 0.87498 0.0
C468 C 0.74047 0.43399 0.86012 0.0
C469 C 0.69808 0.42238 0.84922 0.0
C470 C 0.65767 0.43275 0.85278 0.0
C471 C 0.61618 0.4157 0.83908 0.0
C472 C 0.56044 0.37041 0.84331 0.0
C473 C 0.61362 0.46458 0.83338 0.0
C474 C 0.63995 0.39484 0.82717 0.0
C475 C 0.68745 0.39947 0.83318 0.0
C476 C 0.71803 0.38528 0.82406 0.0
C477 C 0.69929 0.36553 0.80841 0.0
C478 C 0.65016 0.35949 0.8022 0.0
C479 C 0.62019 0.37421 0.81174 0.0
H480 H 0.82438 0.31704 0.07908 0.0
H481 H 0.84758 0.46701 0.10108 0.0
H482 H 0.94443 0.49966 0.10659 0.0
H483 H 0.92599 0.30759 0.10504 0.0
H484 H 0.94731 0.28197 0.08899 0.0
H485 H 0.8785 0.26697 0.08882 0.0
H486 H 0.88768 0.30717 0.06173 0.0
H487 H 0.95632 0.32225 0.06181 0.0
H488 H 0.94139 0.37551 0.05947 0.0
H489 H 0.03884 0.52028 0.10691 0.0
H490 H 0.12606 0.52912 0.10146 0.0
H491 H 0.0428 0.36581 0.07925 0.0
C492 C 0.84965 0.35624 0.08537 0.0
C493 C 0.82861 0.38947 0.08975 0.0
C494 C 0.86297 0.44091 0.09768 0.0
C495 C 0.9179 0.45963 0.10093 0.0
C496 C 0.9376 0.42626 0.09623 0.0
C497 C 0.90459 0.3756 0.08864 0.0
C498 C 0.93684 0.35002 0.0835 0.0
C499 C 0.92122 0.29859 0.0921 0.0
C500 C 0.93016 0.33808 0.06557 0.0
C501 C 0.99343 0.39512 0.08884 0.0
C502 C 0.99271 0.4383 0.09639 0.0
C503 C 0.03994 0.48644 0.10128 0.0
C504 C 0.08923 0.49111 0.09807 0.0
C505 C 0.09093 0.44797 0.09003 0.0
C506 C 0.0425 0.39888 0.08571 0.0
H507 H 0.65267 0.09507 0.41625 0.0
H508 H 0.54994 0.16337 0.42241 0.0
H509 H 0.4708 0.07131 0.42305 0.0
H510 H 0.55859 0.9804 0.39084 0.0
H511 H 0.57701 0.9347 0.39907 0.0
H512 H 0.62592 0.00609 0.39956 0.0
H513 H 0.64111 0.00881 0.42976 0.0
H514 H 0.59223 0.93737 0.42936 0.0
H515 H 0.58418 0.98489 0.44167 0.0
H516 H 0.402 0.97127 0.42236 0.0
H517 H 0.34937 0.87085 0.42047 0.0
H518 H 0.49694 0.86812 0.41491 0.0
C519 C 0.61357 0.09064 0.41782 0.0
C520 C 0.60753 0.13644 0.41929 0.0
C521 C 0.55561 0.1289 0.42126 0.0
C522 C 0.51035 0.07674 0.42165 0.0
C523 C 0.51758 0.03241 0.42009 0.0
C524 C 0.56789 0.03879 0.41824 0.0
C525 C 0.56448 0.98437 0.41658 0.0
C526 C 0.58256 0.97591 0.40056 0.0
C527 C 0.59745 0.97853 0.43015 0.0
C528 C 0.50443 0.94649 0.41768 0.0
C529 C 0.47805 0.97493 0.41973 0.0
C530 C 0.42227 0.94855 0.42081 0.0
C531 C 0.3927 0.89156 0.41973 0.0
C532 C 0.419 0.86169 0.41758 0.0
C533 C 0.47563 0.88977 0.41661 0.0
H534 H 0.46535 0.37554 0.75095 0.0
H535 H 0.63873 0.48623 0.75235 0.0
H536 H 0.62467 0.56348 0.75168 0.0
H537 H 0.42985 0.45048 0.72428 0.0
H538 H 0.37033 0.43738 0.73391 0.0
H539 H 0.39317 0.38949 0.73443 0.0
H540 H 0.39661 0.39597 0.7648 0.0
H541 H 0.37394 0.44399 0.76437 0.0
H542 H 0.43586 0.46136 0.77543 0.0
H543 H 0.59389 0.6295 0.75157 0.0
H544 H 0.54667 0.6809 0.75097 0.0
H545 H 0.39251 0.53006 0.74901 0.0
C546 C 0.5002 0.41602 0.75104 0.0
C547 C 0.55317 0.42459 0.75171 0.0
C548 C 0.59773 0.47831 0.75183 0.0
C549 C 0.59026 0.52271 0.75147 0.0
C550 C 0.53789 0.51313 0.75091 0.0
C551 C 0.49347 0.46129 0.7506 0.0
C552 C 0.44162 0.4631 0.74994 0.0
C553 C 0.40668 0.43335 0.73473 0.0
C554 C 0.41016 0.43972 0.7645 0.0
C555 C 0.46416 0.52391 0.74999 0.0
C556 C 0.51985 0.5518 0.75061 0.0
C557 C 0.55024 0.6082 0.75101 0.0
C558 C 0.52305 0.63707 0.7507 0.0
C559 C 0.46598 0.60961 0.74991 0.0
C560 C 0.43621 0.55219 0.74956 0.0
H561 H 0.66244 0.19142 0.58547 0.0
H562 H 0.51178 0.181 0.57029 0.0
H563 H 0.46743 0.08091 0.56718 0.0
H564 H 0.64801 0.08159 0.55958 0.0
H565 H 0.67745 0.05818 0.57399 0.0
H566 H 0.69744 0.12878 0.57454 0.0
H567 H 0.67161 0.12507 0.60333 0.0
H568 H 0.65158 0.05449 0.60288 0.0
H569 H 0.6045 0.07531 0.60807 0.0
H570 H 0.4397 0.98216 0.56606 0.0
H571 H 0.42933 0.8918 0.56763 0.0
H572 H 0.59815 0.96677 0.58401 0.0
C573 C 0.62016 0.16815 0.5814 0.0
C574 C 0.59051 0.19395 0.57805 0.0
C575 C 0.53521 0.16204 0.57289 0.0
C576 C 0.50977 0.10524 0.57108 0.0
C577 C 0.54022 0.08114 0.57452 0.0
C578 C 0.59417 0.11159 0.57962 0.0
C579 C 0.61752 0.07582 0.58295 0.0
C580 C 0.66278 0.08675 0.57211 0.0
C581 C 0.63746 0.08311 0.60034 0.0
C582 C 0.56821 0.02028 0.57897 0.0
C583 C 0.52414 0.02431 0.57406 0.0
C584 C 0.47394 0.97856 0.56986 0.0
C585 C 0.46851 0.92739 0.57079 0.0
C586 C 0.51295 0.92219 0.57594 0.0
C587 C 0.5635 0.96941 0.58 0.0
H588 H 0.36402 0.56734 0.91705 0.0
H589 H 0.442 0.74251 0.91792 0.0
H590 H 0.53157 0.7496 0.92064 0.0
H591 H 0.4567 0.56268 0.94561 0.0
H592 H 0.45299 0.50421 0.93564 0.0
H593 H 0.39609 0.51401 0.93404 0.0
H594 H 0.39648 0.50837 0.9037 0.0
H595 H 0.45336 0.49858 0.90521 0.0
H596 H 0.45736 0.55327 0.89454 0.0
H597 H 0.61328 0.73559 0.92226 0.0
H598 H 0.67777 0.70244 0.92331 0.0
H599 H 0.5435 0.5369 0.92196 0.0
C600 C 0.39984 0.60735 0.91785 0.0
C601 C 0.39606 0.65444 0.91723 0.0
C602 C 0.444 0.70592 0.91838 0.0
C603 C 0.49496 0.71026 0.91992 0.0
C604 C 0.49711 0.66275 0.92039 0.0
C605 C 0.45058 0.61234 0.91947 0.0
C606 C 0.46304 0.56722 0.92016 0.0
C607 C 0.4409 0.53516 0.93473 0.0
C608 C 0.44128 0.52967 0.905 0.0
C609 C 0.52401 0.59984 0.92148 0.0
C610 C 0.54321 0.65489 0.92158 0.0
C611 C 0.59851 0.69259 0.9223 0.0
C612 C 0.63485 0.67344 0.92288 0.0
C613 C 0.61569 0.61714 0.92281 0.0
C614 C 0.55952 0.58021 0.92217 0.0
H615 H 0.10026 0.49803 0.24197 0.0
H616 H 0.09415 0.63424 0.22395 0.0
H617 H 0.9946 0.58004 0.22199 0.0
H618 H 0.98434 0.39195 0.21783 0.0
H619 H 0.96103 0.34575 0.23323 0.0
H620 H 0.03197 0.3944 0.23266 0.0
H621 H 0.03421 0.43117 0.26103 0.0
H622 H 0.96332 0.38269 0.26169 0.0
H623 H 0.98815 0.45399 0.26559 0.0
H624 H 0.89663 0.51326 0.22297 0.0
H625 H 0.80535 0.4375 0.22666 0.0
H626 H 0.87361 0.34325 0.24388 0.0
C627 C 0.07793 0.51626 0.23749 0.0
C628 C 0.1049 0.57034 0.23307 0.0
C629 C 0.07432 0.5929 0.22738 0.0
C630 C 0.01778 0.56242 0.22621 0.0
C631 C 0.99243 0.5094 0.23075 0.0
C632 C 0.02136 0.48637 0.23625 0.0
C633 C 0.98395 0.42897 0.24074 0.0
C634 C 0.99074 0.38784 0.2305 0.0
C635 C 0.99295 0.42394 0.2583 0.0
C636 C 0.92948 0.42357 0.23702 0.0
C637 C 0.93548 0.4705 0.23125 0.0
C638 C 0.89136 0.47618 0.22739 0.0
C639 C 0.83967 0.43291 0.22956 0.0
C640 C 0.83235 0.38441 0.23552 0.0
C641 C 0.87795 0.37963 0.23918 0.0
H642 H 0.49795 0.32885 0.07293 0.0
H643 H 0.63842 0.4896 0.07113 0.0
H644 H 0.57858 0.52734 0.06756 0.0
H645 H 0.41009 0.34274 0.0444 0.0
H646 H 0.35083 0.30534 0.05509 0.0
H647 H 0.40451 0.29056 0.0566 0.0
H648 H 0.41212 0.30713 0.08688 0.0
H649 H 0.35829 0.32159 0.08547 0.0
H650 H 0.42249 0.37053 0.09536 0.0
H651 H 0.50393 0.54718 0.06444 0.0
H652 H 0.42005 0.55009 0.06442 0.0
H653 H 0.32816 0.37651 0.0693 0.0
C654 C 0.51609 0.37196 0.07168 0.0
C655 C 0.57266 0.40644 0.0722 0.0
C656 C 0.59508 0.46266 0.07076 0.0
C657 C 0.56147 0.48431 0.06864 0.0
C658 C 0.50576 0.44911 0.06811 0.0
C659 C 0.48323 0.39424 0.06975 0.0
C660 C 0.42233 0.36572 0.06967 0.0
C661 C 0.39537 0.3236 0.0556 0.0
C662 C 0.40267 0.33974 0.08527 0.0
C663 C 0.41408 0.41325 0.06787 0.0
C664 C 0.46269 0.46079 0.06677 0.0
C665 C 0.46563 0.51026 0.06527 0.0
C666 C 0.4177 0.5114 0.06524 0.0
C667 C 0.36762 0.46346 0.06686 0.0
C668 C 0.36581 0.41368 0.06797 0.0
H669 H 0.91114 0.45591 0.41532 0.0
H670 H 0.90991 0.3045 0.40892 0.0
H671 H 0.00891 0.35596 0.40705 0.0
H672 H 0.01375 0.53102 0.38875 0.0
H673 H 0.04387 0.59358 0.4009 0.0
H674 H 0.97297 0.54481 0.4014 0.0
H675 H 0.98543 0.54272 0.43151 0.0
H676 H 0.05635 0.59146 0.43111 0.0
H677 H 0.03471 0.52745 0.43945 0.0
H678 H 0.10775 0.42391 0.40613 0.0
H679 H 0.19989 0.50313 0.40659 0.0
H680 H 0.1368 0.61057 0.41392 0.0
C681 C 0.93163 0.43351 0.41345 0.0
C682 C 0.90289 0.37617 0.41221 0.0
C683 C 0.93118 0.3484 0.40988 0.0
C684 C 0.98733 0.37728 0.40879 0.0
C685 C 0.01443 0.43382 0.4101 0.0
C686 C 0.98755 0.46165 0.41241 0.0
C687 C 0.02621 0.52245 0.41372 0.0
C688 C 0.01343 0.54954 0.4004 0.0
C689 C 0.02563 0.54747 0.42991 0.0
C690 C 0.07922 0.52458 0.41182 0.0
C691 C 0.07144 0.47299 0.4097 0.0
C692 C 0.1143 0.46446 0.40776 0.0
C693 C 0.1665 0.50978 0.40805 0.0
C694 C 0.17553 0.56305 0.41029 0.0
C695 C 0.13116 0.57038 0.41216 0.0
H696 H 0.46412 0.10242 0.748 0.0
H697 H 0.61765 0.16579 0.77493 0.0
H698 H 0.59984 0.07324 0.77726 0.0
H699 H 0.38907 0.97852 0.76937 0.0
H700 H 0.35118 0.93665 0.75193 0.0
H701 H 0.37356 0.00793 0.7532 0.0
H702 H 0.42169 0.01915 0.7275 0.0
H703 H 0.3997 0.94802 0.72621 0.0
H704 H 0.47052 0.99786 0.72615 0.0
H705 H 0.56987 0.97589 0.77545 0.0
H706 H 0.52719 0.87708 0.77012 0.0
H707 H 0.39202 0.87315 0.74445 0.0
C708 C 0.49341 0.09656 0.75459 0.0
C709 C 0.54229 0.14148 0.7613 0.0
C710 C 0.58002 0.13218 0.76965 0.0
C711 C 0.57027 0.07967 0.77108 0.0
C712 C 0.52249 0.03639 0.76411 0.0
C713 C 0.48441 0.04389 0.75608 0.0
C714 C 0.43748 0.9898 0.7492 0.0
C715 C 0.38469 0.97751 0.75636 0.0
C716 C 0.43205 0.98866 0.7312 0.0
C717 C 0.45573 0.95126 0.75447 0.0
C718 C 0.50485 0.97926 0.76309 0.0
C719 C 0.53114 0.95334 0.76883 0.0
C720 C 0.50664 0.89718 0.7657 0.0
C721 C 0.45624 0.86732 0.75692 0.0
C722 C 0.43038 0.89484 0.7513 0.0
H723 H 0.4949 0.60634 0.58664 0.0
H724 H 0.6495 0.75634 0.59347 0.0
H725 H 0.69559 0.70339 0.59496 0.0
H726 H 0.52689 0.52686 0.61234 0.0
H727 H 0.48946 0.46583 0.5996 0.0
H728 H 0.46909 0.51568 0.60017 0.0
H729 H 0.47522 0.52115 0.57007 0.0
H730 H 0.49594 0.47162 0.56941 0.0
H731 H 0.53745 0.53669 0.56168 0.0
H732 H 0.72443 0.63351 0.59455 0.0
H733 H 0.73427 0.55299 0.5924 0.0
H734 H 0.56027 0.44908 0.58527 0.0
C735 C 0.53844 0.62819 0.58867 0.0
C736 C 0.5687 0.6855 0.59004 0.0
C737 C 0.62559 0.71247 0.59248 0.0
C738 C 0.65203 0.68272 0.59333 0.0
C739 C 0.6209 0.62618 0.59169 0.0
C740 C 0.56532 0.59925 0.58945 0.0
C741 C 0.54116 0.53842 0.5874 0.0
C742 C 0.50449 0.51004 0.60067 0.0
C743 C 0.51066 0.51566 0.57117 0.0
C744 C 0.59188 0.53513 0.58867 0.0
C745 C 0.63743 0.58616 0.59124 0.0
C746 C 0.68902 0.59342 0.59261 0.0
C747 C 0.69416 0.54739 0.59135 0.0
C748 C 0.64801 0.49475 0.58866 0.0
C749 C 0.59627 0.48875 0.58733 0.0
H750 H 0.09188 0.64989 0.89347 0.0
H751 H 0.17281 0.7338 0.93828 0.0
H752 H 0.09459 0.74384 0.94413 0.0
H753 H 0.02125 0.72875 0.88596 0.0
H754 H 0.96257 0.66881 0.87691 0.0
H755 H 0.02873 0.67775 0.8753 0.0
H756 H 0.99611 0.58483 0.88688 0.0
H757 H 0.93029 0.57585 0.88869 0.0
H758 H 0.96745 0.57279 0.9057 0.0
H759 H 0.99955 0.72642 0.94713 0.0
H760 H 0.90102 0.69105 0.94594 0.0
H761 H 0.88582 0.62458 0.89833 0.0
C762 C 0.09393 0.67223 0.90425 0.0
C763 C 0.13829 0.6915 0.91539 0.0
C764 C 0.13947 0.71966 0.9295 0.0
C765 C 0.09511 0.72528 0.93292 0.0
C766 C 0.05077 0.70372 0.92191 0.0
C767 C 0.05062 0.67896 0.90767 0.0
C768 C 0.9968 0.6551 0.89834 0.0
C769 C 0.00271 0.68437 0.88323 0.0
C770 C 0.97119 0.59353 0.89471 0.0
C771 C 0.96551 0.66757 0.90987 0.0
C772 C 0.99718 0.69593 0.92338 0.0
C773 C 0.97489 0.70579 0.93641 0.0
C774 C 0.9189 0.6855 0.93566 0.0
C775 C 0.88601 0.65603 0.92194 0.0
C776 C 0.91012 0.64839 0.9088 0.0
H777 H 0.44125 0.84081 0.23901 0.0
H778 H 0.29503 0.84457 0.24633 0.0
H779 H 0.34882 0.94436 0.25046 0.0
H780 H 0.52887 0.95008 0.26777 0.0
H781 H 0.5862 0.97715 0.25596 0.0
H782 H 0.53658 0.90577 0.25395 0.0
H783 H 0.52203 0.91154 0.22414 0.0
H784 H 0.57184 0.98281 0.22603 0.0
H785 H 0.50485 0.96017 0.21757 0.0
H786 H 0.41747 0.04285 0.25345 0.0
H787 H 0.49637 0.13517 0.25378 0.0
H788 H 0.5988 0.06846 0.24434 0.0
C789 C 0.4206 0.86267 0.2415 0.0
C790 C 0.36399 0.83506 0.24238 0.0
C791 C 0.33835 0.86498 0.24559 0.0
C792 C 0.36856 0.9216 0.24802 0.0
C793 C 0.4243 0.94757 0.24716 0.0
C794 C 0.45013 0.91925 0.24389 0.0
C795 C 0.51035 0.9573 0.24316 0.0
C796 C 0.54238 0.94695 0.25598 0.0
C797 C 0.5283 0.95267 0.22675 0.0
C798 C 0.51425 0.01149 0.24642 0.0
C799 C 0.46412 0.00477 0.24879 0.0
C800 C 0.45696 0.04867 0.25166 0.0
C801 C 0.50208 0.10094 0.25183 0.0
C802 C 0.55372 0.10895 0.24912 0.0
C803 C 0.55992 0.06354 0.24659 0.0
loop_
_geom_bond_atom_site_label_1
_geom_bond_atom_site_label_2
_geom_bond_distance
_geom_bond_site_symmetry_2
_ccdc_geom_bond_type
In0 O1 2.294 . S
In0 O2 2.326 . S
In0 O6 2.266 . S
In0 O7 2.326 . S
In0 O8 2.266 . S
In0 O9 2.326 . S
In0 O11 2.294 . S
In0 O12 2.326 . S
O1 In0 2.294 . S
O1 C10 1.240 . S
O2 In0 2.326 . S
O2 C10 1.252 . S
C3 O6 1.252 . S
C3 O7 1.260 . S
C4 O11 1.240 . S
C4 O12 1.252 . S
C5 O8 1.252 . S
C5 O9 1.260 . S
O6 In0 2.266 . S
O6 C3 1.252 . S
O7 In0 2.326 . S
O7 C3 1.260 . S
O8 In0 2.266 . S
O8 C5 1.252 . S
O9 In0 2.326 . S
O9 C5 1.260 . S
C10 O1 1.240 . S
C10 O2 1.252 . S
O11 In0 2.294 . S
O11 C4 1.240 . S
O12 In0 2.326 . S
O12 C4 1.252 . S
In13 O14 2.294 . S
In13 O15 2.326 . S
In13 O19 2.266 . S
In13 O20 2.326 . S
In13 O21 2.266 . S
In13 O22 2.326 . S
In13 O24 2.294 . S
In13 O25 2.326 . S
O14 In13 2.294 . S
O14 C23 1.240 . S
O15 In13 2.326 . S
O15 C23 1.252 . S
C16 O19 1.252 . S
C16 O20 1.260 . S
C17 O24 1.240 . S
C17 O25 1.252 . S
C18 O21 1.252 . S
C18 O22 1.260 . S
O19 In13 2.266 . S
O19 C16 1.252 . S
O20 In13 2.326 . S
O20 C16 1.260 . S
O21 In13 2.266 . S
O21 C18 1.252 . S
O22 In13 2.326 . S
O22 C18 1.260 . S
C23 O14 1.240 . S
C23 O15 1.252 . S
O24 In13 2.294 . S
O24 C17 1.240 . S
O25 In13 2.326 . S
O25 C17 1.252 . S
In26 O27 2.294 . S
In26 O28 2.326 . S
In26 O32 2.266 . S
In26 O33 2.326 . S
In26 O34 2.266 . S
In26 O35 2.326 . S
In26 O37 2.294 . S
In26 O38 2.326 . S
O27 In26 2.294 . S
O27 C36 1.240 . S
O28 In26 2.326 . S
O28 C36 1.252 . S
C29 O32 1.252 . S
C29 O33 1.260 . S
C30 O37 1.240 . S
C30 O38 1.252 . S
C31 O34 1.252 . S
C31 O35 1.260 . S
O32 In26 2.266 . S
O32 C29 1.252 . S
O33 In26 2.326 . S
O33 C29 1.260 . S
O34 In26 2.266 . S
O34 C31 1.252 . S
O35 In26 2.326 . S
O35 C31 1.260 . S
C36 O27 1.240 . S
C36 O28 1.252 . S
O37 In26 2.294 . S
O37 C30 1.240 . S
O38 In26 2.326 . S
O38 C30 1.252 . S
In39 O40 2.294 . S
In39 O41 2.326 . S
In39 O45 2.266 . S
In39 O46 2.326 . S
In39 O47 2.266 . S
In39 O48 2.326 . S
In39 O50 2.294 . S
In39 O51 2.326 . S
O40 In39 2.294 . S
O40 C49 1.240 . S
O41 In39 2.326 . S
O41 C49 1.252 . S
C42 O45 1.252 . S
C42 O46 1.260 . S
C43 O50 1.240 . S
C43 O51 1.252 . S
C44 O47 1.252 . S
C44 O48 1.260 . S
O45 In39 2.266 . S
O45 C42 1.252 . S
O46 In39 2.326 . S
O46 C42 1.260 . S
O47 In39 2.266 . S
O47 C44 1.252 . S
O48 In39 2.326 . S
O48 C44 1.260 . S
C49 O40 1.240 . S
C49 O41 1.252 . S
O50 In39 2.294 . S
O50 C43 1.240 . S
O51 In39 2.326 . S
O51 C43 1.252 . S
In52 O53 2.294 . S
In52 O54 2.326 . S
In52 O58 2.266 . S
In52 O59 2.326 . S
In52 O60 2.266 . S
In52 O61 2.326 . S
In52 O63 2.294 . S
In52 O64 2.326 . S
O53 In52 2.294 . S
O53 C62 1.240 . S
O54 In52 2.326 . S
O54 C62 1.252 . S
C55 O58 1.252 . S
C55 O59 1.260 . S
C56 O63 1.240 . S
C56 O64 1.252 . S
C57 O60 1.252 . S
C57 O61 1.260 . S
O58 In52 2.266 . S
O58 C55 1.252 . S
O59 In52 2.326 . S
O59 C55 1.260 . S
O60 In52 2.266 . S
O60 C57 1.252 . S
O61 In52 2.326 . S
O61 C57 1.260 . S
C62 O53 1.240 . S
C62 O54 1.252 . S
O63 In52 2.294 . S
O63 C56 1.240 . S
O64 In52 2.326 . S
O64 C56 1.252 . S
In65 O66 2.294 . S
In65 O67 2.326 . S
In65 O71 2.266 . S
In65 O72 2.326 . S
In65 O73 2.266 . S
In65 O74 2.326 . S
In65 O76 2.294 . S
In65 O77 2.326 . S
O66 In65 2.294 . S
O66 C75 1.240 . S
O67 In65 2.326 . S
O67 C75 1.252 . S
C68 O71 1.252 . S
C68 O72 1.260 . S
C69 O76 1.240 . S
C69 O77 1.252 . S
C70 O73 1.252 . S
C70 O74 1.260 . S
O71 In65 2.266 . S
O71 C68 1.252 . S
O72 In65 2.326 . S
O72 C68 1.260 . S
O73 In65 2.266 . S
O73 C70 1.252 . S
O74 In65 2.326 . S
O74 C70 1.260 . S
C75 O66 1.240 . S
C75 O67 1.252 . S
O76 In65 2.294 . S
O76 C69 1.240 . S
O77 In65 2.326 . S
O77 C69 1.252 . S
In78 O79 2.294 . S
In78 O80 2.326 . S
In78 O84 2.266 . S
In78 O85 2.326 . S
In78 O86 2.266 . S
In78 O87 2.326 . S
In78 O89 2.294 . S
In78 O90 2.326 . S
O79 In78 2.294 . S
O79 C88 1.240 . S
O80 In78 2.326 . S
O80 C88 1.252 . S
C81 O84 1.252 . S
C81 O85 1.260 . S
C82 O89 1.240 . S
C82 O90 1.252 . S
C83 O86 1.252 . S
C83 O87 1.260 . S
O84 In78 2.266 . S
O84 C81 1.252 . S
O85 In78 2.326 . S
O85 C81 1.260 . S
O86 In78 2.266 . S
O86 C83 1.252 . S
O87 In78 2.326 . S
O87 C83 1.260 . S
C88 O79 1.240 . S
C88 O80 1.252 . S
O89 In78 2.294 . S
O89 C82 1.240 . S
O90 In78 2.326 . S
O90 C82 1.252 . S
In91 O92 2.294 . S
In91 O93 2.326 . S
In91 O97 2.266 . S
In91 O98 2.326 . S
In91 O99 2.266 . S
In91 O100 2.326 . S
In91 O102 2.294 . S
In91 O103 2.326 . S
O92 In91 2.294 . S
O92 C101 1.240 . S
O93 In91 2.326 . S
O93 C101 1.252 . S
C94 O97 1.252 . S
C94 O98 1.260 . S
C95 O102 1.240 . S
C95 O103 1.252 . S
C96 O99 1.252 . S
C96 O100 1.260 . S
O97 In91 2.266 . S
O97 C94 1.252 . S
O98 In91 2.326 . S
O98 C94 1.260 . S
O99 In91 2.266 . S
O99 C96 1.252 . S
O100 In91 2.326 . S
O100 C96 1.260 . S
C101 O92 1.240 . S
C101 O93 1.252 . S
O102 In91 2.294 . S
O102 C95 1.240 . S
O103 In91 2.326 . S
O103 C95 1.252 . S
In104 O105 2.294 . S
In104 O106 2.326 . S
In104 O110 2.266 . S
In104 O111 2.326 . S
In104 O112 2.266 . S
In104 O113 2.326 . S
In104 O115 2.294 . S
In104 O116 2.326 . S
O105 In104 2.294 . S
O105 C114 1.240 . S
O106 In104 2.326 . S
O106 C114 1.252 . S
C107 O110 1.252 . S
C107 O111 1.260 . S
C108 O115 1.240 . S
C108 O116 1.252 . S
C109 O112 1.252 . S
C109 O113 1.260 . S
O110 In104 2.266 . S
O110 C107 1.252 . S
O111 In104 2.326 . S
O111 C107 1.260 . S
O112 In104 2.266 . S
O112 C109 1.252 . S
O113 In104 2.326 . S
O113 C109 1.260 . S
C114 O105 1.240 . S
C114 O106 1.252 . S
O115 In104 2.294 . S
O115 C108 1.240 . S
O116 In104 2.326 . S
O116 C108 1.252 . S
In117 O118 2.294 . S
In117 O119 2.326 . S
In117 O123 2.266 . S
In117 O124 2.326 . S
In117 O125 2.266 . S
In117 O126 2.326 . S
In117 O128 2.294 . S
In117 O129 2.326 . S
O118 In117 2.294 . S
O118 C127 1.240 . S
O119 In117 2.326 . S
O119 C127 1.252 . S
C120 O123 1.252 . S
C120 O124 1.260 . S
C121 O128 1.240 . S
C121 O129 1.252 . S
C122 O125 1.252 . S
C122 O126 1.260 . S
O123 In117 2.266 . S
O123 C120 1.252 . S
O124 In117 2.326 . S
O124 C120 1.260 . S
O125 In117 2.266 . S
O125 C122 1.252 . S
O126 In117 2.326 . S
O126 C122 1.260 . S
C127 O118 1.240 . S
C127 O119 1.252 . S
O128 In117 2.294 . S
O128 C121 1.240 . S
O129 In117 2.326 . S
O129 C121 1.252 . S
In130 O131 2.294 . S
In130 O132 2.326 . S
In130 O136 2.266 . S
In130 O137 2.326 . S
In130 O138 2.266 . S
In130 O139 2.326 . S
In130 O141 2.294 . S
In130 O142 2.326 . S
O131 In130 2.294 . S
O131 C140 1.240 . S
O132 In130 2.326 . S
O132 C140 1.252 . S
C133 O136 1.252 . S
C133 O137 1.260 . S
C134 O141 1.240 . S
C134 O142 1.252 . S
C135 O138 1.252 . S
C135 O139 1.260 . S
O136 In130 2.266 . S
O136 C133 1.252 . S
O137 In130 2.326 . S
O137 C133 1.260 . S
O138 In130 2.266 . S
O138 C135 1.252 . S
O139 In130 2.326 . S
O139 C135 1.260 . S
C140 O131 1.240 . S
C140 O132 1.252 . S
O141 In130 2.294 . S
O141 C134 1.240 . S
O142 In130 2.326 . S
O142 C134 1.252 . S
In143 O144 2.294 . S
In143 O145 2.326 . S
In143 O149 2.266 . S
In143 O150 2.326 . S
In143 O151 2.266 . S
In143 O152 2.326 . S
In143 O154 2.294 . S
In143 O155 2.326 . S
O144 In143 2.294 . S
O144 C153 1.240 . S
O145 In143 2.326 . S
O145 C153 1.252 . S
C146 O149 1.252 . S
C146 O150 1.260 . S
C147 O154 1.240 . S
C147 O155 1.252 . S
C148 O151 1.252 . S
C148 O152 1.260 . S
O149 In143 2.266 . S
O149 C146 1.252 . S
O150 In143 2.326 . S
O150 C146 1.260 . S
O151 In143 2.266 . S
O151 C148 1.252 . S
O152 In143 2.326 . S
O152 C148 1.260 . S
C153 O144 1.240 . S
C153 O145 1.252 . S
O154 In143 2.294 . S
O154 C147 1.240 . S
O155 In143 2.326 . S
O155 C147 1.252 . S
H156 C168 0.930 . S
H157 C170 0.930 . S
H158 C171 0.930 . S
H159 C175 0.959 . S
H160 C175 0.959 . S
H161 C175 0.961 . S
H162 C176 0.960 . S
H163 C176 0.961 . S
H164 C176 0.959 . S
H165 C179 0.929 . S
H166 C180 0.931 . S
H167 C182 0.930 . S
C168 H156 0.930 . S
C168 C169 1.399 . S
C168 C173 1.399 . S
C169 C168 1.399 . S
C169 C170 1.376 . S
C170 H157 0.930 . S
C170 C169 1.376 . S
C170 C171 1.388 . S
C171 H158 0.930 . S
C171 C170 1.388 . S
C171 C172 1.390 . S
C172 C171 1.390 . S
C172 C173 1.394 . S
C172 C178 1.465 1_556 S
C173 C168 1.399 . S
C173 C172 1.394 . S
C173 C174 1.516 1_556 S
C174 C173 1.516 1_554 S
C174 C175 1.502 . S
C174 C176 1.561 . S
C174 C177 1.526 . S
C175 H159 0.959 . S
C175 H160 0.959 . S
C175 H161 0.961 . S
C175 C174 1.502 . S
C176 H162 0.960 . S
C176 H163 0.961 . S
C176 H164 0.959 . S
C176 C174 1.561 . S
C177 C174 1.526 . S
C177 C178 1.396 . S
C177 C182 1.390 . S
C178 C172 1.465 1_554 S
C178 C177 1.396 . S
C178 C179 1.399 . S
C179 H165 0.929 . S
C179 C178 1.399 . S
C179 C180 1.385 . S
C180 H166 0.931 . S
C180 C179 1.385 . S
C180 C181 1.389 . S
C181 C180 1.389 . S
C181 C182 1.387 . S
C182 H167 0.930 . S
C182 C177 1.390 . S
C182 C181 1.387 . S
H183 C195 0.930 . S
H184 C197 0.930 . S
H185 C198 0.930 . S
H186 C202 0.959 . S
H187 C202 0.959 . S
H188 C202 0.961 . S
H189 C203 0.960 . S
H190 C203 0.961 . S
H191 C203 0.959 . S
H192 C206 0.929 . S
H193 C207 0.931 . S
H194 C209 0.930 . S
C195 H183 0.930 . S
C195 C196 1.399 . S
C195 C200 1.399 . S
C196 C195 1.399 . S
C196 C197 1.376 . S
C197 H184 0.930 . S
C197 C196 1.376 . S
C197 C198 1.388 . S
C198 H185 0.930 . S
C198 C197 1.388 . S
C198 C199 1.390 . S
C199 C198 1.390 . S
C199 C200 1.394 . S
C199 C205 1.465 . S
C200 C195 1.399 . S
C200 C199 1.394 . S
C200 C201 1.516 . S
C201 C200 1.516 . S
C201 C202 1.502 . S
C201 C203 1.561 . S
C201 C204 1.526 . S
C202 H186 0.959 . S
C202 H187 0.959 . S
C202 H188 0.961 . S
C202 C201 1.502 . S
C203 H189 0.960 . S
C203 H190 0.961 . S
C203 H191 0.959 . S
C203 C201 1.561 . S
C204 C201 1.526 . S
C204 C205 1.396 . S
C204 C209 1.390 . S
C205 C199 1.465 . S
C205 C204 1.396 . S
C205 C206 1.399 . S
C206 H192 0.929 . S
C206 C205 1.399 . S
C206 C207 1.385 . S
C207 H193 0.931 . S
C207 C206 1.385 . S
C207 C208 1.389 . S
C208 C207 1.389 . S
C208 C209 1.387 . S
C209 H194 0.930 . S
C209 C204 1.390 . S
C209 C208 1.387 . S
H210 C222 0.930 . S
H211 C224 0.930 . S
H212 C225 0.930 . S
H213 C229 0.959 . S
H214 C229 0.959 . S
H215 C229 0.961 . S
H216 C230 0.960 . S
H217 C230 0.961 . S
H218 C230 0.959 . S
H219 C233 0.929 . S
H220 C234 0.931 . S
H221 C236 0.930 . S
C222 H210 0.930 . S
C222 C223 1.399 . S
C222 C227 1.399 . S
C223 C222 1.399 . S
C223 C224 1.376 . S
C224 H211 0.930 . S
C224 C223 1.376 . S
C224 C225 1.388 . S
C225 H212 0.930 . S
C225 C224 1.388 . S
C225 C226 1.390 . S
C226 C225 1.390 . S
C226 C227 1.394 . S
C226 C232 1.465 . S
C227 C222 1.399 . S
C227 C226 1.394 . S
C227 C228 1.516 . S
C228 C227 1.516 . S
C228 C229 1.502 . S
C228 C230 1.561 . S
C228 C231 1.526 . S
C229 H213 0.959 . S
C229 H214 0.959 . S
C229 H215 0.961 . S
C229 C228 1.502 . S
C230 H216 0.960 . S
C230 H217 0.961 . S
C230 H218 0.959 . S
C230 C228 1.561 . S
C231 C228 1.526 . S
C231 C232 1.396 . S
C231 C236 1.390 . S
C232 C226 1.465 . S
C232 C231 1.396 . S
C232 C233 1.399 . S
C233 H219 0.929 . S
C233 C232 1.399 . S
C233 C234 1.385 . S
C234 H220 0.931 . S
C234 C233 1.385 . S
C234 C235 1.389 . S
C235 C234 1.389 . S
C235 C236 1.387 . S
C236 H221 0.930 . S
C236 C231 1.390 . S
C236 C235 1.387 . S
H237 C249 0.930 . S
H238 C251 0.930 . S
H239 C252 0.930 . S
H240 C256 0.959 . S
H241 C256 0.959 . S
H242 C256 0.961 . S
H243 C257 0.960 . S
H244 C257 0.961 . S
H245 C257 0.959 . S
H246 C260 0.929 . S
H247 C261 0.931 . S
H248 C263 0.930 . S
C249 H237 0.930 . S
C249 C250 1.399 . S
C249 C254 1.399 . S
C250 C249 1.399 . S
C250 C251 1.376 . S
C251 H238 0.930 . S
C251 C250 1.376 . S
C251 C252 1.388 . S
C252 H239 0.930 . S
C252 C251 1.388 . S
C252 C253 1.390 . S
C253 C252 1.390 . S
C253 C254 1.394 . S
C253 C259 1.465 1_554 S
C254 C249 1.399 . S
C254 C253 1.394 . S
C254 C255 1.516 1_554 S
C255 C254 1.516 1_556 S
C255 C256 1.502 . S
C255 C257 1.561 . S
C255 C258 1.526 . S
C256 H240 0.959 . S
C256 H241 0.959 . S
C256 H242 0.961 . S
C256 C255 1.502 . S
C257 H243 0.960 . S
C257 H244 0.961 . S
C257 H245 0.959 . S
C257 C255 1.561 . S
C258 C255 1.526 . S
C258 C259 1.396 . S
C258 C263 1.390 . S
C259 C253 1.465 1_556 S
C259 C258 1.396 . S
C259 C260 1.399 . S
C260 H246 0.929 . S
C260 C259 1.399 . S
C260 C261 1.385 . S
C261 H247 0.931 . S
C261 C260 1.385 . S
C261 C262 1.389 . S
C262 C261 1.389 . S
C262 C263 1.387 . S
C263 H248 0.930 . S
C263 C258 1.390 . S
C263 C262 1.387 . S
H264 C276 0.930 . S
H265 C278 0.930 . S
H266 C279 0.930 . S
H267 C283 0.959 . S
H268 C283 0.959 . S
H269 C283 0.961 . S
H270 C284 0.960 . S
H271 C284 0.961 . S
H272 C284 0.959 . S
H273 C287 0.929 . S
H274 C288 0.931 . S
H275 C290 0.930 . S
C276 H264 0.930 . S
C276 C277 1.399 . S
C276 C281 1.399 . S
C277 C276 1.399 . S
C277 C278 1.376 . S
C278 H265 0.930 . S
C278 C277 1.376 . S
C278 C279 1.388 . S
C279 H266 0.930 . S
C279 C278 1.388 . S
C279 C280 1.390 . S
C280 C279 1.390 . S
C280 C281 1.394 . S
C280 C286 1.465 . S
C281 C276 1.399 . S
C281 C280 1.394 . S
C281 C282 1.516 . S
C282 C281 1.516 . S
C282 C283 1.502 . S
C282 C284 1.561 . S
C282 C285 1.526 . S
C283 H267 0.959 . S
C283 H268 0.959 . S
C283 H269 0.961 . S
C283 C282 1.502 . S
C284 H270 0.960 . S
C284 H271 0.961 . S
C284 H272 0.959 . S
C284 C282 1.561 . S
C285 C282 1.526 . S
C285 C286 1.396 . S
C285 C290 1.390 . S
C286 C280 1.465 . S
C286 C285 1.396 . S
C286 C287 1.399 . S
C287 H273 0.929 . S
C287 C286 1.399 . S
C287 C288 1.385 . S
C288 H274 0.931 . S
C288 C287 1.385 . S
C288 C289 1.389 . S
C289 C288 1.389 . S
C289 C290 1.387 . S
C290 H275 0.930 . S
C290 C285 1.390 . S
C290 C289 1.387 . S
H291 C303 0.930 . S
H292 C305 0.930 . S
H293 C306 0.930 . S
H294 C310 0.959 . S
H295 C310 0.959 . S
H296 C310 0.961 . S
H297 C311 0.960 . S
H298 C311 0.961 . S
H299 C311 0.959 . S
H300 C314 0.929 . S
H301 C315 0.931 . S
H302 C317 0.930 . S
C303 H291 0.930 . S
C303 C304 1.399 . S
C303 C308 1.399 . S
C304 C303 1.399 . S
C304 C305 1.376 . S
C305 H292 0.930 . S
C305 C304 1.376 . S
C305 C306 1.388 . S
C306 H293 0.930 . S
C306 C305 1.388 . S
C306 C307 1.390 . S
C307 C306 1.390 . S
C307 C308 1.394 . S
C307 C313 1.465 . S
C308 C303 1.399 . S
C308 C307 1.394 . S
C308 C309 1.516 . S
C309 C308 1.516 . S
C309 C310 1.502 . S
C309 C311 1.561 . S
C309 C312 1.526 . S
C310 H294 0.959 . S
C310 H295 0.959 . S
C310 H296 0.961 . S
C310 C309 1.502 . S
C311 H297 0.960 . S
C311 H298 0.961 . S
C311 H299 0.959 . S
C311 C309 1.561 . S
C312 C309 1.526 . S
C312 C313 1.396 . S
C312 C317 1.390 . S
C313 C307 1.465 . S
C313 C312 1.396 . S
C313 C314 1.399 . S
C314 H300 0.929 . S
C314 C313 1.399 . S
C314 C315 1.385 . S
C315 H301 0.931 . S
C315 C314 1.385 . S
C315 C316 1.389 . S
C316 C315 1.389 . S
C316 C317 1.387 . S
C317 H302 0.930 . S
C317 C312 1.390 . S
C317 C316 1.387 . S
H318 C330 0.930 . S
H319 C332 0.930 . S
H320 C333 0.930 . S
H321 C337 0.959 . S
H322 C337 0.959 . S
H323 C337 0.961 . S
H324 C338 0.960 . S
H325 C338 0.961 . S
H326 C338 0.959 . S
H327 C341 0.929 . S
H328 C342 0.931 . S
H329 C344 0.930 . S
C330 H318 0.930 . S
C330 C331 1.399 . S
C330 C335 1.399 . S
C331 C330 1.399 . S
C331 C332 1.376 . S
C332 H319 0.930 . S
C332 C331 1.376 . S
C332 C333 1.388 . S
C333 H320 0.930 . S
C333 C332 1.388 . S
C333 C334 1.390 . S
C334 C333 1.390 . S
C334 C335 1.394 . S
C334 C340 1.465 . S
C335 C330 1.399 . S
C335 C334 1.394 . S
C335 C336 1.516 . S
C336 C335 1.516 . S
C336 C337 1.502 . S
C336 C338 1.561 . S
C336 C339 1.526 . S
C337 H321 0.959 . S
C337 H322 0.959 . S
C337 H323 0.961 . S
C337 C336 1.502 . S
C338 H324 0.960 . S
C338 H325 0.961 . S
C338 H326 0.959 . S
C338 C336 1.561 . S
C339 C336 1.526 . S
C339 C340 1.396 . S
C339 C344 1.390 . S
C340 C334 1.465 . S
C340 C339 1.396 . S
C340 C341 1.399 . S
C341 H327 0.929 . S
C341 C340 1.399 . S
C341 C342 1.385 . S
C342 H328 0.931 . S
C342 C341 1.385 . S
C342 C343 1.389 . S
C343 C342 1.389 . S
C343 C344 1.387 . S
C344 H329 0.930 . S
C344 C339 1.390 . S
C344 C343 1.387 . S
H345 C357 0.930 . S
H346 C359 0.930 . S
H347 C360 0.930 . S
H348 C364 0.959 . S
H349 C364 0.959 . S
H350 C364 0.961 . S
H351 C365 0.960 . S
H352 C365 0.961 . S
H353 C365 0.959 . S
H354 C368 0.929 . S
H355 C369 0.931 . S
H356 C371 0.930 . S
C357 H345 0.930 . S
C357 C358 1.399 . S
C357 C362 1.399 . S
C358 C357 1.399 . S
C358 C359 1.376 . S
C359 H346 0.930 . S
C359 C358 1.376 . S
C359 C360 1.388 . S
C360 H347 0.930 . S
C360 C359 1.388 . S
C360 C361 1.390 . S
C361 C360 1.390 . S
C361 C362 1.394 . S
C361 C367 1.465 . S
C362 C357 1.399 . S
C362 C361 1.394 . S
C362 C363 1.516 . S
C363 C362 1.516 . S
C363 C364 1.502 . S
C363 C365 1.561 . S
C363 C366 1.526 . S
C364 H348 0.959 . S
C364 H349 0.959 . S
C364 H350 0.961 . S
C364 C363 1.502 . S
C365 H351 0.960 . S
C365 H352 0.961 . S
C365 H353 0.959 . S
C365 C363 1.561 . S
C366 C363 1.526 . S
C366 C367 1.396 . S
C366 C371 1.390 . S
C367 C361 1.465 . S
C367 C366 1.396 . S
C367 C368 1.399 . S
C368 H354 0.929 . S
C368 C367 1.399 . S
C368 C369 1.385 . S
C369 H355 0.931 . S
C369 C368 1.385 . S
C369 C370 1.389 . S
C370 C369 1.389 . S
C370 C371 1.387 . S
C371 H356 0.930 . S
C371 C366 1.390 . S
C371 C370 1.387 . S
H372 C384 0.930 . S
H373 C386 0.930 . S
H374 C387 0.930 . S
H375 C391 0.959 . S
H376 C391 0.959 . S
H377 C391 0.961 . S
H378 C392 0.960 . S
H379 C392 0.961 . S
H380 C392 0.959 . S
H381 C395 0.929 . S
H382 C396 0.931 . S
H383 C398 0.930 . S
C384 H372 0.930 . S
C384 C385 1.399 . S
C384 C389 1.399 . S
C385 C384 1.399 . S
C385 C386 1.376 . S
C386 H373 0.930 . S
C386 C385 1.376 . S
C386 C387 1.388 . S
C387 H374 0.930 . S
C387 C386 1.388 . S
C387 C388 1.390 . S
C388 C387 1.390 . S
C388 C389 1.394 . S
C388 C394 1.465 . S
C389 C384 1.399 . S
C389 C388 1.394 . S
C389 C390 1.516 . S
C390 C389 1.516 . S
C390 C391 1.502 . S
C390 C392 1.561 . S
C390 C393 1.526 . S
C391 H375 0.959 . S
C391 H376 0.959 . S
C391 H377 0.961 . S
C391 C390 1.502 . S
C392 H378 0.960 . S
C392 H379 0.961 . S
C392 H380 0.959 . S
C392 C390 1.561 . S
C393 C390 1.526 . S
C393 C394 1.396 . S
C393 C398 1.390 . S
C394 C388 1.465 . S
C394 C393 1.396 . S
C394 C395 1.399 . S
C395 H381 0.929 . S
C395 C394 1.399 . S
C395 C396 1.385 . S
C396 H382 0.931 . S
C396 C395 1.385 . S
C396 C397 1.389 . S
C397 C396 1.389 . S
C397 C398 1.387 . S
C398 H383 0.930 . S
C398 C393 1.390 . S
C398 C397 1.387 . S
H399 C411 0.930 . S
H400 C413 0.930 . S
H401 C414 0.930 . S
H402 C418 0.959 . S
H403 C418 0.959 . S
H404 C418 0.961 . S
H405 C419 0.960 . S
H406 C419 0.961 . S
H407 C419 0.959 . S
H408 C422 0.929 . S
H409 C423 0.931 . S
H410 C425 0.930 . S
C411 H399 0.930 . S
C411 C412 1.399 . S
C411 C416 1.399 . S
C412 C411 1.399 . S
C412 C413 1.376 . S
C413 H400 0.930 . S
C413 C412 1.376 . S
C413 C414 1.388 . S
C414 H401 0.930 . S
C414 C413 1.388 . S
C414 C415 1.390 . S
C415 C414 1.390 . S
C415 C416 1.394 . S
C415 C421 1.465 . S
C416 C411 1.399 . S
C416 C415 1.394 . S
C416 C417 1.516 . S
C417 C416 1.516 . S
C417 C418 1.502 . S
C417 C419 1.561 . S
C417 C420 1.526 . S
C418 H402 0.959 . S
C418 H403 0.959 . S
C418 H404 0.961 . S
C418 C417 1.502 . S
C419 H405 0.960 . S
C419 H406 0.961 . S
C419 H407 0.959 . S
C419 C417 1.561 . S
C420 C417 1.526 . S
C420 C421 1.396 . S
C420 C425 1.390 . S
C421 C415 1.465 . S
C421 C420 1.396 . S
C421 C422 1.399 . S
C422 H408 0.929 . S
C422 C421 1.399 . S
C422 C423 1.385 . S
C423 H409 0.931 . S
C423 C422 1.385 . S
C423 C424 1.389 . S
C424 C423 1.389 . S
C424 C425 1.387 . S
C425 H410 0.930 . S
C425 C420 1.390 . S
C425 C424 1.387 . S
H426 C438 0.930 . S
H427 C440 0.930 . S
H428 C441 0.930 . S
H429 C445 0.959 . S
H430 C445 0.959 . S
H431 C445 0.961 . S
H432 C446 0.960 . S
H433 C446 0.961 . S
H434 C446 0.959 . S
H435 C449 0.929 . S
H436 C450 0.931 . S
H437 C452 0.930 . S
C438 H426 0.930 . S
C438 C439 1.399 . S
C438 C443 1.399 . S
C439 C438 1.399 . S
C439 C440 1.376 . S
C440 H427 0.930 . S
C440 C439 1.376 . S
C440 C441 1.388 . S
C441 H428 0.930 . S
C441 C440 1.388 . S
C441 C442 1.390 . S
C442 C441 1.390 . S
C442 C443 1.394 . S
C442 C448 1.465 . S
C443 C438 1.399 . S
C443 C442 1.394 . S
C443 C444 1.516 . S
C444 C443 1.516 . S
C444 C445 1.502 . S
C444 C446 1.561 . S
C444 C447 1.526 . S
C445 H429 0.959 . S
C445 H430 0.959 . S
C445 H431 0.961 . S
C445 C444 1.502 . S
C446 H432 0.960 . S
C446 H433 0.961 . S
C446 H434 0.959 . S
C446 C444 1.561 . S
C447 C444 1.526 . S
C447 C448 1.396 . S
C447 C452 1.390 . S
C448 C442 1.465 . S
C448 C447 1.396 . S
C448 C449 1.399 . S
C449 H435 0.929 . S
C449 C448 1.399 . S
C449 C450 1.385 . S
C450 H436 0.931 . S
C450 C449 1.385 . S
C450 C451 1.389 . S
C451 C450 1.389 . S
C451 C452 1.387 . S
C452 H437 0.930 . S
C452 C447 1.390 . S
C452 C451 1.387 . S
H453 C465 0.930 . S
H454 C467 0.930 . S
H455 C468 0.930 . S
H456 C472 0.959 . S
H457 C472 0.959 . S
H458 C472 0.961 . S
H459 C473 0.960 . S
H460 C473 0.961 . S
H461 C473 0.959 . S
H462 C476 0.929 . S
H463 C477 0.931 . S
H464 C479 0.930 . S
C465 H453 0.930 . S
C465 C466 1.399 . S
C465 C470 1.399 . S
C466 C465 1.399 . S
C466 C467 1.376 . S
C467 H454 0.930 . S
C467 C466 1.376 . S
C467 C468 1.388 . S
C468 H455 0.930 . S
C468 C467 1.388 . S
C468 C469 1.390 . S
C469 C468 1.390 . S
C469 C470 1.394 . S
C469 C475 1.465 . S
C470 C465 1.399 . S
C470 C469 1.394 . S
C470 C471 1.516 . S
C471 C470 1.516 . S
C471 C472 1.502 . S
C471 C473 1.561 . S
C471 C474 1.526 . S
C472 H456 0.959 . S
C472 H457 0.959 . S
C472 H458 0.961 . S
C472 C471 1.502 . S
C473 H459 0.960 . S
C473 H460 0.961 . S
C473 H461 0.959 . S
C473 C471 1.561 . S
C474 C471 1.526 . S
C474 C475 1.396 . S
C474 C479 1.390 . S
C475 C469 1.465 . S
C475 C474 1.396 . S
C475 C476 1.399 . S
C476 H462 0.929 . S
C476 C475 1.399 . S
C476 C477 1.385 . S
C477 H463 0.931 . S
C477 C476 1.385 . S
C477 C478 1.389 . S
C478 C477 1.389 . S
C478 C479 1.387 . S
C479 H464 0.930 . S
C479 C474 1.390 . S
C479 C478 1.387 . S
H480 C492 0.930 . S
H481 C494 0.930 . S
H482 C495 0.930 . S
H483 C499 0.959 . S
H484 C499 0.959 . S
H485 C499 0.961 . S
H486 C500 0.960 . S
H487 C500 0.961 . S
H488 C500 0.959 . S
H489 C503 0.929 . S
H490 C504 0.931 . S
H491 C506 0.930 . S
C492 H480 0.930 . S
C492 C493 1.399 . S
C492 C497 1.399 . S
C493 C492 1.399 . S
C493 C494 1.376 . S
C494 H481 0.930 . S
C494 C493 1.376 . S
C494 C495 1.388 . S
C495 H482 0.930 . S
C495 C494 1.388 . S
C495 C496 1.390 . S
C496 C495 1.390 . S
C496 C497 1.394 . S
C496 C502 1.465 . S
C497 C492 1.399 . S
C497 C496 1.394 . S
C497 C498 1.516 . S
C498 C497 1.516 . S
C498 C499 1.502 . S
C498 C500 1.561 . S
C498 C501 1.526 . S
C499 H483 0.959 . S
C499 H484 0.959 . S
C499 H485 0.961 . S
C499 C498 1.502 . S
C500 H486 0.960 . S
C500 H487 0.961 . S
C500 H488 0.959 . S
C500 C498 1.561 . S
C501 C498 1.526 . S
C501 C502 1.396 . S
C501 C506 1.390 1_655 S
C502 C496 1.465 . S
C502 C501 1.396 . S
C502 C503 1.399 1_655 S
C503 H489 0.929 . S
C503 C502 1.399 1_455 S
C503 C504 1.385 . S
C504 H490 0.931 . S
C504 C503 1.385 . S
C504 C505 1.389 . S
C505 C504 1.389 . S
C505 C506 1.387 . S
C506 H491 0.930 . S
C506 C501 1.390 1_455 S
C506 C505 1.387 . S
H507 C519 0.930 . S
H508 C521 0.930 . S
H509 C522 0.930 . S
H510 C526 0.959 1_565 S
H511 C526 0.959 1_565 S
H512 C526 0.961 . S
H513 C527 0.960 . S
H514 C527 0.961 . S
H515 C527 0.959 . S
H516 C530 0.929 . S
H517 C531 0.931 . S
H518 C533 0.930 . S
C519 H507 0.930 . S
C519 C520 1.399 . S
C519 C524 1.399 . S
C520 C519 1.399 . S
C520 C521 1.376 . S
C521 H508 0.930 . S
C521 C520 1.376 . S
C521 C522 1.388 . S
C522 H509 0.930 . S
C522 C521 1.388 . S
C522 C523 1.390 . S
C523 C522 1.390 . S
C523 C524 1.394 . S
C523 C529 1.465 1_545 S
C524 C519 1.399 . S
C524 C523 1.394 . S
C524 C525 1.516 . S
C525 C524 1.516 . S
C525 C526 1.502 . S
C525 C527 1.561 . S
C525 C528 1.526 1_545 S
C526 H510 0.959 1_545 S
C526 H511 0.959 1_545 S
C526 H512 0.961 . S
C526 C525 1.502 . S
C527 H513 0.960 . S
C527 H514 0.961 . S
C527 H515 0.959 . S
C527 C525 1.561 . S
C528 C525 1.526 1_565 S
C528 C529 1.396 . S
C528 C533 1.390 . S
C529 C523 1.465 1_565 S
C529 C528 1.396 . S
C529 C530 1.399 . S
C530 H516 0.929 . S
C530 C529 1.399 . S
C530 C531 1.385 . S
C531 H517 0.931 . S
C531 C530 1.385 . S
C531 C532 1.389 . S
C532 C531 1.389 . S
C532 C533 1.387 . S
C533 H518 0.930 . S
C533 C528 1.390 . S
C533 C532 1.387 . S
H534 C546 0.930 . S
H535 C548 0.930 . S
H536 C549 0.930 . S
H537 C553 0.959 . S
H538 C553 0.959 . S
H539 C553 0.961 . S
H540 C554 0.960 . S
H541 C554 0.961 . S
H542 C554 0.959 . S
H543 C557 0.929 . S
H544 C558 0.931 . S
H545 C560 0.930 . S
C546 H534 0.930 . S
C546 C547 1.399 . S
C546 C551 1.399 . S
C547 C546 1.399 . S
C547 C548 1.376 . S
C548 H535 0.930 . S
C548 C547 1.376 . S
C548 C549 1.388 . S
C549 H536 0.930 . S
C549 C548 1.388 . S
C549 C550 1.390 . S
C550 C549 1.390 . S
C550 C551 1.394 . S
C550 C556 1.465 . S
C551 C546 1.399 . S
C551 C550 1.394 . S
C551 C552 1.516 . S
C552 C551 1.516 . S
C552 C553 1.502 . S
C552 C554 1.561 . S
C552 C555 1.526 . S
C553 H537 0.959 . S
C553 H538 0.959 . S
C553 H539 0.961 . S
C553 C552 1.502 . S
C554 H540 0.960 . S
C554 H541 0.961 . S
C554 H542 0.959 . S
C554 C552 1.561 . S
C555 C552 1.526 . S
C555 C556 1.396 . S
C555 C560 1.390 . S
C556 C550 1.465 . S
C556 C555 1.396 . S
C556 C557 1.399 . S
C557 H543 0.929 . S
C557 C556 1.399 . S
C557 C558 1.385 . S
C558 H544 0.931 . S
C558 C557 1.385 . S
C558 C559 1.389 . S
C559 C558 1.389 . S
C559 C560 1.387 . S
C560 H545 0.930 . S
C560 C555 1.390 . S
C560 C559 1.387 . S
H561 C573 0.930 . S
H562 C575 0.930 . S
H563 C576 0.930 . S
H564 C580 0.959 . S
H565 C580 0.959 . S
H566 C580 0.961 . S
H567 C581 0.960 . S
H568 C581 0.961 . S
H569 C581 0.959 . S
H570 C584 0.929 . S
H571 C585 0.931 . S
H572 C587 0.930 . S
C573 H561 0.930 . S
C573 C574 1.399 . S
C573 C578 1.399 . S
C574 C573 1.399 . S
C574 C575 1.376 . S
C575 H562 0.930 . S
C575 C574 1.376 . S
C575 C576 1.388 . S
C576 H563 0.930 . S
C576 C575 1.388 . S
C576 C577 1.390 . S
C577 C576 1.390 . S
C577 C578 1.394 . S
C577 C583 1.465 . S
C578 C573 1.399 . S
C578 C577 1.394 . S
C578 C579 1.516 . S
C579 C578 1.516 . S
C579 C580 1.502 . S
C579 C581 1.561 . S
C579 C582 1.526 . S
C580 H564 0.959 . S
C580 H565 0.959 . S
C580 H566 0.961 . S
C580 C579 1.502 . S
C581 H567 0.960 . S
C581 H568 0.961 . S
C581 H569 0.959 . S
C581 C579 1.561 . S
C582 C579 1.526 . S
C582 C583 1.396 . S
C582 C587 1.390 1_545 S
C583 C577 1.465 . S
C583 C582 1.396 . S
C583 C584 1.399 1_545 S
C584 H570 0.929 . S
C584 C583 1.399 1_565 S
C584 C585 1.385 . S
C585 H571 0.931 . S
C585 C584 1.385 . S
C585 C586 1.389 . S
C586 C585 1.389 . S
C586 C587 1.387 . S
C587 H572 0.930 . S
C587 C582 1.390 1_565 S
C587 C586 1.387 . S
H588 C600 0.930 . S
H589 C602 0.930 . S
H590 C603 0.930 . S
H591 C607 0.959 . S
H592 C607 0.959 . S
H593 C607 0.961 . S
H594 C608 0.960 . S
H595 C608 0.961 . S
H596 C608 0.959 . S
H597 C611 0.929 . S
H598 C612 0.931 . S
H599 C614 0.930 . S
C600 H588 0.930 . S
C600 C601 1.399 . S
C600 C605 1.399 . S
C601 C600 1.399 . S
C601 C602 1.376 . S
C602 H589 0.930 . S
C602 C601 1.376 . S
C602 C603 1.388 . S
C603 H590 0.930 . S
C603 C602 1.388 . S
C603 C604 1.390 . S
C604 C603 1.390 . S
C604 C605 1.394 . S
C604 C610 1.465 . S
C605 C600 1.399 . S
C605 C604 1.394 . S
C605 C606 1.516 . S
C606 C605 1.516 . S
C606 C607 1.502 . S
C606 C608 1.561 . S
C606 C609 1.526 . S
C607 H591 0.959 . S
C607 H592 0.959 . S
C607 H593 0.961 . S
C607 C606 1.502 . S
C608 H594 0.960 . S
C608 H595 0.961 . S
C608 H596 0.959 . S
C608 C606 1.561 . S
C609 C606 1.526 . S
C609 C610 1.396 . S
C609 C614 1.390 . S
C610 C604 1.465 . S
C610 C609 1.396 . S
C610 C611 1.399 . S
C611 H597 0.929 . S
C611 C610 1.399 . S
C611 C612 1.385 . S
C612 H598 0.931 . S
C612 C611 1.385 . S
C612 C613 1.389 . S
C613 C612 1.389 . S
C613 C614 1.387 . S
C614 H599 0.930 . S
C614 C609 1.390 . S
C614 C613 1.387 . S
H615 C627 0.930 . S
H616 C629 0.930 . S
H617 C630 0.930 . S
H618 C634 0.959 . S
H619 C634 0.959 1_655 S
H620 C634 0.961 . S
H621 C635 0.960 1_455 S
H622 C635 0.961 . S
H623 C635 0.959 . S
H624 C638 0.929 . S
H625 C639 0.931 . S
H626 C641 0.930 . S
C627 H615 0.930 . S
C627 C628 1.399 . S
C627 C632 1.399 . S
C628 C627 1.399 . S
C628 C629 1.376 . S
C629 H616 0.930 . S
C629 C628 1.376 . S
C629 C630 1.388 . S
C630 H617 0.930 . S
C630 C629 1.388 . S
C630 C631 1.390 . S
C631 C630 1.390 . S
C631 C632 1.394 . S
C631 C637 1.465 1_455 S
C632 C627 1.399 . S
C632 C631 1.394 . S
C632 C633 1.523 . S
C633 C632 1.523 . S
C633 C634 1.517 . S
C633 C635 1.553 1_455 S
C633 C636 1.510 1_455 S
C634 H618 0.959 . S
C634 H619 0.959 1_455 S
C634 H620 0.961 . S
C634 C633 1.517 . S
C635 H621 0.960 1_655 S
C635 H622 0.961 . S
C635 H623 0.959 . S
C635 C633 1.553 1_655 S
C636 C633 1.510 1_655 S
C636 C637 1.396 . S
C636 C641 1.390 . S
C637 C631 1.465 1_655 S
C637 C636 1.396 . S
C637 C638 1.399 . S
C638 H624 0.929 . S
C638 C637 1.399 . S
C638 C639 1.385 . S
C639 H625 0.931 . S
C639 C638 1.385 . S
C639 C640 1.389 . S
C640 C639 1.389 . S
C640 C641 1.387 . S
C641 H626 0.930 . S
C641 C636 1.390 . S
C641 C640 1.387 . S
H642 C654 0.930 . S
H643 C656 0.930 . S
H644 C657 0.930 . S
H645 C661 0.959 . S
H646 C661 0.959 . S
H647 C661 0.961 . S
H648 C662 0.960 . S
H649 C662 0.961 . S
H650 C662 0.959 . S
H651 C665 0.929 . S
H652 C666 0.931 . S
H653 C668 0.930 . S
C654 H642 0.930 . S
C654 C655 1.399 . S
C654 C659 1.399 . S
C655 C654 1.399 . S
C655 C656 1.376 . S
C656 H643 0.930 . S
C656 C655 1.376 . S
C656 C657 1.388 . S
C657 H644 0.930 . S
C657 C656 1.388 . S
C657 C658 1.390 . S
C658 C657 1.390 . S
C658 C659 1.394 . S
C658 C664 1.465 . S
C659 C654 1.399 . S
C659 C658 1.394 . S
C659 C660 1.516 . S
C660 C659 1.516 . S
C660 C661 1.502 . S
C660 C662 1.561 . S
C660 C663 1.526 . S
C661 H645 0.959 . S
C661 H646 0.959 . S
C661 H647 0.961 . S
C661 C660 1.502 . S
C662 H648 0.960 . S
C662 H649 0.961 . S
C662 H650 0.959 . S
C662 C660 1.561 . S
C663 C660 1.526 . S
C663 C664 1.396 . S
C663 C668 1.390 . S
C664 C658 1.465 . S
C664 C663 1.396 . S
C664 C665 1.399 . S
C665 H651 0.929 . S
C665 C664 1.399 . S
C665 C666 1.385 . S
C666 H652 0.931 . S
C666 C665 1.385 . S
C666 C667 1.389 . S
C667 C666 1.389 . S
C667 C668 1.387 . S
C668 H653 0.930 . S
C668 C663 1.390 . S
C668 C667 1.387 . S
H669 C681 0.930 . S
H670 C683 0.930 . S
H671 C684 0.930 . S
H672 C688 0.959 . S
H673 C688 0.959 . S
H674 C688 0.961 1_655 S
H675 C689 0.960 . S
H676 C689 0.961 . S
H677 C689 0.959 . S
H678 C692 0.929 . S
H679 C693 0.931 . S
H680 C695 0.930 . S
C681 H669 0.930 . S
C681 C682 1.399 . S
C681 C686 1.399 . S
C682 C681 1.399 . S
C682 C683 1.376 . S
C683 H670 0.930 . S
C683 C682 1.376 . S
C683 C684 1.388 . S
C684 H671 0.930 . S
C684 C683 1.388 . S
C684 C685 1.390 1_655 S
C685 C684 1.390 1_455 S
C685 C686 1.394 1_455 S
C685 C691 1.465 . S
C686 C681 1.399 . S
C686 C685 1.394 1_655 S
C686 C687 1.516 1_655 S
C687 C686 1.516 1_455 S
C687 C688 1.502 . S
C687 C689 1.561 . S
C687 C690 1.526 . S
C688 H672 0.959 . S
C688 H673 0.959 . S
C688 H674 0.961 1_455 S
C688 C687 1.502 . S
C689 H675 0.960 . S
C689 H676 0.961 . S
C689 H677 0.959 . S
C689 C687 1.561 . S
C690 C687 1.526 . S
C690 C691 1.396 . S
C690 C695 1.390 . S
C691 C685 1.465 . S
C691 C690 1.396 . S
C691 C692 1.399 . S
C692 H678 0.929 . S
C692 C691 1.399 . S
C692 C693 1.385 . S
C693 H679 0.931 . S
C693 C692 1.385 . S
C693 C694 1.389 . S
C694 C693 1.389 . S
C694 C695 1.387 . S
C695 H680 0.930 . S
C695 C690 1.390 . S
C695 C694 1.387 . S
H696 C708 0.930 . S
H697 C710 0.930 . S
H698 C711 0.930 . S
H699 C715 0.959 . S
H700 C715 0.959 . S
H701 C715 0.961 . S
H702 C716 0.960 . S
H703 C716 0.961 1_565 S
H704 C716 0.959 . S
H705 C719 0.929 . S
H706 C720 0.931 . S
H707 C722 0.930 . S
C708 H696 0.930 . S
C708 C709 1.399 . S
C708 C713 1.399 . S
C709 C708 1.399 . S
C709 C710 1.376 . S
C710 H697 0.930 . S
C710 C709 1.376 . S
C710 C711 1.388 . S
C711 H698 0.930 . S
C711 C710 1.388 . S
C711 C712 1.390 . S
C712 C711 1.390 . S
C712 C713 1.394 . S
C712 C718 1.465 1_545 S
C713 C708 1.399 . S
C713 C712 1.394 . S
C713 C714 1.516 1_545 S
C714 C713 1.516 1_565 S
C714 C715 1.502 . S
C714 C716 1.561 1_565 S
C714 C717 1.526 . S
C715 H699 0.959 . S
C715 H700 0.959 . S
C715 H701 0.961 . S
C715 C714 1.502 . S
C716 H702 0.960 . S
C716 H703 0.961 1_545 S
C716 H704 0.959 . S
C716 C714 1.561 1_545 S
C717 C714 1.526 . S
C717 C718 1.396 . S
C717 C722 1.390 . S
C718 C712 1.465 1_565 S
C718 C717 1.396 . S
C718 C719 1.399 . S
C719 H705 0.929 . S
C719 C718 1.399 . S
C719 C720 1.385 . S
C720 H706 0.931 . S
C720 C719 1.385 . S
C720 C721 1.389 . S
C721 C720 1.389 . S
C721 C722 1.387 . S
C722 H707 0.930 . S
C722 C717 1.390 . S
C722 C721 1.387 . S
H723 C735 0.930 . S
H724 C737 0.930 . S
H725 C738 0.930 . S
H726 C742 0.959 . S
H727 C742 0.959 . S
H728 C742 0.961 . S
H729 C743 0.960 . S
H730 C743 0.961 . S
H731 C743 0.959 . S
H732 C746 0.929 . S
H733 C747 0.931 . S
H734 C749 0.930 . S
C735 H723 0.930 . S
C735 C736 1.399 . S
C735 C740 1.399 . S
C736 C735 1.399 . S
C736 C737 1.376 . S
C737 H724 0.930 . S
C737 C736 1.376 . S
C737 C738 1.388 . S
C738 H725 0.930 . S
C738 C737 1.388 . S
C738 C739 1.390 . S
C739 C738 1.390 . S
C739 C740 1.394 . S
C739 C745 1.465 . S
C740 C735 1.399 . S
C740 C739 1.394 . S
C740 C741 1.516 . S
C741 C740 1.516 . S
C741 C742 1.502 . S
C741 C743 1.561 . S
C741 C744 1.526 . S
C742 H726 0.959 . S
C742 H727 0.959 . S
C742 H728 0.961 . S
C742 C741 1.502 . S
C743 H729 0.960 . S
C743 H730 0.961 . S
C743 H731 0.959 . S
C743 C741 1.561 . S
C744 C741 1.526 . S
C744 C745 1.396 . S
C744 C749 1.390 . S
C745 C739 1.465 . S
C745 C744 1.396 . S
C745 C746 1.399 . S
C746 H732 0.929 . S
C746 C745 1.399 . S
C746 C747 1.385 . S
C747 H733 0.931 . S
C747 C746 1.385 . S
C747 C748 1.389 . S
C748 C747 1.389 . S
C748 C749 1.387 . S
C749 H734 0.930 . S
C749 C744 1.390 . S
C749 C748 1.387 . S
H750 C762 0.930 . S
H751 C764 0.930 . S
H752 C765 0.930 . S
H753 C769 0.959 . S
H754 C769 0.959 . S
H755 C769 0.961 . S
H756 C770 0.960 1_455 S
H757 C770 0.961 . S
H758 C770 0.959 . S
H759 C773 0.929 . S
H760 C774 0.931 . S
H761 C776 0.930 . S
C762 H750 0.930 . S
C762 C763 1.399 . S
C762 C767 1.399 . S
C763 C762 1.399 . S
C763 C764 1.376 . S
C764 H751 0.930 . S
C764 C763 1.376 . S
C764 C765 1.388 . S
C765 H752 0.930 . S
C765 C764 1.388 . S
C765 C766 1.390 . S
C766 C765 1.390 . S
C766 C767 1.394 . S
C766 C772 1.465 1_455 S
C767 C762 1.399 . S
C767 C766 1.394 . S
C767 C768 1.516 . S
C768 C767 1.516 . S
C768 C769 1.502 . S
C768 C770 1.561 1_455 S
C768 C771 1.526 1_455 S
C769 H753 0.959 . S
C769 H754 0.959 . S
C769 H755 0.961 . S
C769 C768 1.502 . S
C770 H756 0.960 1_655 S
C770 H757 0.961 . S
C770 H758 0.959 . S
C770 C768 1.561 1_655 S
C771 C768 1.526 1_655 S
C771 C772 1.396 . S
C771 C776 1.390 . S
C772 C766 1.465 1_655 S
C772 C771 1.396 . S
C772 C773 1.399 . S
C773 H759 0.929 . S
C773 C772 1.399 . S
C773 C774 1.385 . S
C774 H760 0.931 . S
C774 C773 1.385 . S
C774 C775 1.389 . S
C775 C774 1.389 . S
C775 C776 1.387 . S
C776 H761 0.930 . S
C776 C771 1.390 . S
C776 C775 1.387 . S
H777 C789 0.930 . S
H778 C791 0.930 . S
H779 C792 0.930 . S
H780 C796 0.959 . S
H781 C796 0.959 . S
H782 C796 0.961 . S
H783 C797 0.960 . S
H784 C797 0.961 . S
H785 C797 0.959 . S
H786 C800 0.929 . S
H787 C801 0.931 . S
H788 C803 0.930 . S
C789 H777 0.930 . S
C789 C790 1.399 . S
C789 C794 1.399 . S
C790 C789 1.399 . S
C790 C791 1.376 . S
C791 H778 0.930 . S
C791 C790 1.376 . S
C791 C792 1.388 . S
C792 H779 0.930 . S
C792 C791 1.388 . S
C792 C793 1.390 . S
C793 C792 1.390 . S
C793 C794 1.394 . S
C793 C799 1.465 1_565 S
C794 C789 1.399 . S
C794 C793 1.394 . S
C794 C795 1.516 . S
C795 C794 1.516 . S
C795 C796 1.502 . S
C795 C797 1.561 . S
C795 C798 1.526 1_565 S
C796 H780 0.959 . S
C796 H781 0.959 . S
C796 H782 0.961 . S
C796 C795 1.502 . S
C797 H783 0.960 . S
C797 H784 0.961 . S
C797 H785 0.959 . S
C797 C795 1.561 . S
C798 C795 1.526 1_545 S
C798 C799 1.396 . S
C798 C803 1.390 . S
C799 C793 1.465 1_545 S
C799 C798 1.396 . S
C799 C800 1.399 . S
C800 H786 0.929 . S
C800 C799 1.399 . S
C800 C801 1.385 . S
C801 H787 0.931 . S
C801 C800 1.385 . S
C801 C802 1.389 . S
C802 C801 1.389 . S
C802 C803 1.387 . S
C803 H788 0.930 . S
C803 C798 1.390 . S
C803 C802 1.387 . S
C169 C134 1.431 . S
C181 C10 1.557 . S
C196 C17 1.341 . S
C208 C147 1.346 . S
C223 C36 1.455 . S
C235 C82 1.562 . S
C250 C49 1.396 . S
C262 C95 1.498 . S
C277 C108 1.249 . S
C289 C56 1.276 . S
C304 C69 1.506 . S
C316 C127 1.410 . S
C331 C109 1.310 . S
C343 C3 1.277 . S
C358 C18 1.542 . S
C370 C120 1.448 . S
C385 C29 1.750 . S
C397 C135 1.666 . S
C412 C42 1.509 . S
C424 C148 1.516 . S
C439 C83 1.295 . S
C451 C57 1.269 . S
C466 C96 1.285 . S
C478 C70 1.281 . S
C493 C44 1.227 . S
C505 C5 1.177 . S
C520 C16 1.174 . S
C532 C55 1.184 . S
C547 C68 1.154 . S
C559 C31 1.175 . S
C574 C122 1.223 . S
C586 C81 1.197 . S
C601 C133 1.155 . S
C613 C94 1.205 . S
C628 C107 1.211 . S
C640 C146 1.184 . S
C655 C43 1.580 . S
C667 C4 1.579 . S
C682 C23 1.614 . S
C694 C62 1.600 . S
C709 C75 1.605 . S
C721 C30 1.620 . S
C736 C88 1.593 . S
C748 C121 1.566 . S
C763 C140 1.621 . S
C775 C101 1.604 . S
C790 C114 1.614 . S
C802 C153 1.600 . S
