# Generated by pormake.
# Topology upc, (4)-cn, num edge types: 1
# Building blocks:
#     Node 0, Type 0, BuildingBlock: MUDLON_clean_sbu_0, # of connection points: 4
#     Node 1, Type 0, BuildingBlock: MUDLON_clean_sbu_0, # of connection points: 4
#     Node 2, Type 0, BuildingBlock: MUDLON_clean_sbu_0, # of connection points: 4
#     Node 3, Type 0, BuildingBlock: MUDLON_clean_sbu_0, # of connection points: 4
#     Node 4, Type 0, BuildingBlock: MUDLON_clean_sbu_0, # of connection points: 4
#     Node 5, Type 0, BuildingBlock: MUDLON_clean_sbu_0, # of connection points: 4
#     Node 6, Type 0, BuildingBlock: MUDLON_clean_sbu_0, # of connection points: 4
#     Node 7, Type 0, BuildingBlock: MUDLON_clean_sbu_0, # of connection points: 4
#     Node 8, Type 0, BuildingBlock: MUDLON_clean_sbu_0, # of connection points: 4
#     Node 9, Type 0, BuildingBlock: MUDLON_clean_sbu_0, # of connection points: 4
#     Node 10, Type 0, BuildingBlock: MUDLON_clean_sbu_0, # of connection points: 4
#     Node 11, Type 0, BuildingBlock: MUDLON_clean_sbu_0, # of connection points: 4
#     Node 12, Type 0, BuildingBlock: MUDLON_clean_sbu_0, # of connection points: 4
#     Node 13, Type 0, BuildingBlock: MUDLON_clean_sbu_0, # of connection points: 4
#     Node 14, Type 0, BuildingBlock: MUDLON_clean_sbu_0, # of connection points: 4
#     Node 15, Type 0, BuildingBlock: MUDLON_clean_sbu_0, # of connection points: 4
#     Edge 16, Type (0, 0), BuildingBlock: OJICUG_clean_linker_0, # of connection points: 2
#     Edge 17, Type (0, 0), BuildingBlock: OJICUG_clean_linker_0, # of connection points: 2
#     Edge 18, Type (0, 0), BuildingBlock: OJICUG_clean_linker_0, # of connection points: 2
#     Edge 19, Type (0, 0), BuildingBlock: OJICUG_clean_linker_0, # of connection points: 2
#     Edge 20, Type (0, 0), BuildingBlock: OJICUG_clean_linker_0, # of connection points: 2
#     Edge 21, Type (0, 0), BuildingBlock: OJICUG_clean_linker_0, # of connection points: 2
#     Edge 22, Type (0, 0), BuildingBlock: OJICUG_clean_linker_0, # of connection points: 2
#     Edge 23, Type (0, 0), BuildingBlock: OJICUG_clean_linker_0, # of connection points: 2
#     Edge 24, Type (0, 0), BuildingBlock: OJICUG_clean_linker_0, # of connection points: 2
#     Edge 25, Type (0, 0), BuildingBlock: OJICUG_clean_linker_0, # of connection points: 2
#     Edge 26, Type (0, 0), BuildingBlock: OJICUG_clean_linker_0, # of connection points: 2
#     Edge 27, Type (0, 0), BuildingBlock: OJICUG_clean_linker_0, # of connection points: 2
#     Edge 28, Type (0, 0), BuildingBlock: OJICUG_clean_linker_0, # of connection points: 2
#     Edge 29, Type (0, 0), BuildingBlock: OJICUG_clean_linker_0, # of connection points: 2
#     Edge 30, Type (0, 0), BuildingBlock: OJICUG_clean_linker_0, # of connection points: 2
#     Edge 31, Type (0, 0), BuildingBlock: OJICUG_clean_linker_0, # of connection points: 2
#     Edge 32, Type (0, 0), BuildingBlock: OJICUG_clean_linker_0, # of connection points: 2
#     Edge 33, Type (0, 0), BuildingBlock: OJICUG_clean_linker_0, # of connection points: 2
#     Edge 34, Type (0, 0), BuildingBlock: OJICUG_clean_linker_0, # of connection points: 2
#     Edge 35, Type (0, 0), BuildingBlock: OJICUG_clean_linker_0, # of connection points: 2
#     Edge 36, Type (0, 0), BuildingBlock: OJICUG_clean_linker_0, # of connection points: 2
#     Edge 37, Type (0, 0), BuildingBlock: OJICUG_clean_linker_0, # of connection points: 2
#     Edge 38, Type (0, 0), BuildingBlock: OJICUG_clean_linker_0, # of connection points: 2
#     Edge 39, Type (0, 0), BuildingBlock: OJICUG_clean_linker_0, # of connection points: 2
#     Edge 40, Type (0, 0), BuildingBlock: OJICUG_clean_linker_0, # of connection points: 2
#     Edge 41, Type (0, 0), BuildingBlock: OJICUG_clean_linker_0, # of connection points: 2
#     Edge 42, Type (0, 0), BuildingBlock: OJICUG_clean_linker_0, # of connection points: 2
#     Edge 43, Type (0, 0), BuildingBlock: OJICUG_clean_linker_0, # of connection points: 2
#     Edge 44, Type (0, 0), BuildingBlock: OJICUG_clean_linker_0, # of connection points: 2
#     Edge 45, Type (0, 0), BuildingBlock: OJICUG_clean_linker_0, # of connection points: 2
#     Edge 46, Type (0, 0), BuildingBlock: OJICUG_clean_linker_0, # of connection points: 2
#     Edge 47, Type (0, 0), BuildingBlock: OJICUG_clean_linker_0, # of connection points: 2
# Relax obj value: 0.269
# Max RMSD: 0.207
# Mean RMSD: 0.207
data_MOF--net-upc--node1-MUDLON_clean_sbu_0--edge1-OJICUG_clean_linker_0
_symmetry_space_group_name_H-M    P1
_symmetry_Int_Tables_number       1
_symmetry_cell_setting            triclinic
loop_
_symmetry_equiv_pos_as_xyz
'x, y, z'
_cell_length_a     26.288899
_cell_length_b     25.985938
_cell_length_c     31.166977
_cell_angle_alpha  90.087686
_cell_angle_beta   91.515624
_cell_angle_gamma 89.638358
loop_
_atom_site_label
_atom_site_type_symbol
_atom_site_fract_x
_atom_site_fract_y
_atom_site_fract_z
_atom_type_partial_charge
Mg0 Mg 0.12133 0.6242 0.16761 0.0
C1 C 0.10736 0.51822 0.20634 0.0
O2 O 0.08415 0.50978 0.16923 0.0
C3 C 0.19941 0.68998 0.12343 0.0
O4 O 0.15912 0.70392 0.10033 0.0
C5 C 0.09256 0.56521 0.086 0.0
O6 O 0.14081 0.55203 0.0898 0.0
O7 O 0.07462 0.59741 0.11262 0.0
O8 O 0.1303 0.56067 0.21234 0.0
O9 O 0.08418 0.68232 0.2072 0.0
C10 C 0.04896 0.66709 0.23125 0.0
O11 O 0.03333 0.61932 0.22751 0.0
O12 O 0.19493 0.65535 0.15182 0.0
Mg13 Mg 0.93813 0.11143 0.15506 0.0
C14 C 0.03827 0.08085 0.19848 0.0
O15 O 0.04929 0.06683 0.15934 0.0
C16 C 0.87047 0.19436 0.12127 0.0
O17 O 0.85905 0.15557 0.09575 0.0
C18 C 0.98221 0.04272 0.08446 0.0
O19 O 0.97417 1.00611 0.11247 0.0
O20 O 0.96856 0.08855 0.09315 0.0
O21 O 0.99779 0.10657 0.20451 0.0
O22 O 0.87573 0.06529 0.17953 0.0
C23 C 0.88074 0.04316 0.21593 0.0
O24 O 0.92594 0.04146 0.23482 0.0
O25 O 0.90546 0.18825 0.14982 0.0
Mg26 Mg 0.46974 0.87387 0.16427 0.0
C27 C 0.45244 0.96685 0.22008 0.0
O28 O 0.44103 0.98744 0.18258 0.0
C29 C 0.37779 0.81906 0.12432 0.0
O30 O 0.38446 0.85299 0.0938 0.0
C31 C 0.50828 0.95731 0.1062 0.0
O32 O 0.54606 0.95439 0.13458 0.0
O33 O 0.47049 0.92736 0.11002 0.0
O34 O 0.46344 0.91919 0.22229 0.0
O35 O 0.54357 0.83528 0.16576 0.0
C36 C 0.57116 0.81175 0.19382 0.0
O37 O 0.61648 0.79607 0.18244 0.0
O38 O 0.40775 0.81907 0.15706 0.0
Mg39 Mg 0.69354 0.47604 0.14449 0.0
C40 C 0.64809 0.52694 0.22079 0.0
O41 O 0.67583 0.5649 0.20679 0.0
C42 C 0.74393 0.37756 0.11426 0.0
O43 O 0.71561 0.38764 0.07989 0.0
C44 C 0.60187 0.50687 0.09206 0.0
O45 O 0.60369 0.54322 0.12139 0.0
O46 O 0.63633 0.4722 0.09272 0.0
O47 O 0.64897 0.48382 0.20169 0.0
O48 O 0.74005 0.54396 0.13359 0.0
C49 C 0.77589 0.56805 0.15325 0.0
O50 O 0.7939 0.60914 0.13453 0.0
O51 O 0.74181 0.40761 0.14639 0.0
Mg52 Mg 0.06634 0.85991 0.39522 0.0
C53 C 0.08816 0.95587 0.34409 0.0
O54 O 0.09837 0.97416 0.38263 0.0
C55 C 0.15414 0.79612 0.43356 0.0
O56 O 0.14135 0.82117 0.46835 0.0
C57 C 0.02589 0.94206 0.45365 0.0
O58 O 0.99021 0.94045 0.42335 0.0
O59 O 0.06378 0.91135 0.45119 0.0
O60 O 0.07507 0.90905 0.33969 0.0
O61 O 0.99191 0.82331 0.39192 0.0
C62 C 0.968 0.78886 0.37048 0.0
O63 O 0.92103 0.77912 0.38126 0.0
O64 O 0.12883 0.80411 0.39884 0.0
Mg65 Mg 0.65071 0.08481 0.39398 0.0
C66 C 0.53966 0.07626 0.3609 0.0
O67 O 0.5291 0.06986 0.40145 0.0
C68 C 0.70317 0.1784 0.43511 0.0
O69 O 0.69637 0.15334 0.47106 0.0
C70 C 0.60113 1.01448 0.45904 0.0
O71 O 0.59649 0.98446 0.4252 0.0
O72 O 0.62583 0.05625 0.45591 0.0
O73 O 0.58474 0.08732 0.3506 0.0
O74 O 0.70923 0.04106 0.36051 0.0
C75 C 0.70375 0.03647 0.31988 0.0
O76 O 0.66033 0.05068 0.30163 0.0
O77 O 0.68532 0.16011 0.40001 0.0
Mg78 Mg 0.44066 0.6467 0.39472 0.0
C79 C 0.51624 0.5795 0.35823 0.0
O80 O 0.53689 0.59631 0.39435 0.0
C81 C 0.34446 0.68322 0.43116 0.0
O82 O 0.37875 0.6949 0.46099 0.0
C83 C 0.46371 0.5771 0.46844 0.0
O84 O 0.42961 0.55154 0.44552 0.0
O85 O 0.47451 0.62281 0.45695 0.0
O86 O 0.46957 0.58985 0.34996 0.0
O87 O 0.46567 0.71656 0.3621 0.0
C88 C 0.51202 0.7271 0.35569 0.0
O89 O 0.54763 0.70123 0.37686 0.0
O90 O 0.3586 0.65781 0.39858 0.0
Mg91 Mg 0.90441 0.43119 0.3845 0.0
C92 C 1.01159 0.43955 0.35235 0.0
O93 O 1.01676 0.46792 0.38704 0.0
C94 C 0.83697 0.35425 0.43148 0.0
O95 O 0.8351 0.39022 0.46107 0.0
C96 C 0.96049 0.45695 0.46778 0.0
O97 O 0.97226 0.40794 0.46416 0.0
O98 O 0.92969 0.47691 0.44016 0.0
O99 O 0.97007 0.41568 0.34558 0.0
O100 O 0.85411 0.47134 0.33875 0.0
C101 C 0.87216 0.50609 0.31497 0.0
O102 O 0.91896 0.5218 0.32256 0.0
O103 O 0.86463 0.36072 0.3991 0.0
Mg104 Mg 0.92879 0.39933 0.88388 0.0
C105 C 0.99946 0.36148 0.81732 0.0
O106 O 1.01509 0.40887 0.82386 0.0
C107 C 0.95894 0.45424 0.96689 0.0
O108 O 0.91018 0.4657 0.96473 0.0
C109 C 0.85167 0.33079 0.92681 0.0
O110 O 0.89275 0.31262 0.94654 0.0
O111 O 0.85571 0.3681 0.90082 0.0
O112 O 0.96473 0.34407 0.84085 0.0
O113 O 0.91713 0.46527 0.84204 0.0
C114 C 0.93687 0.50887 0.85015 0.0
O115 O 0.95927 0.51655 0.88771 0.0
O116 O 0.97701 0.42427 0.93859 0.0
Mg117 Mg 0.14377 0.9235 0.86778 0.0
C118 C 0.18401 1.00102 0.80627 0.0
O119 O 0.13886 1.02034 0.81395 0.0
C120 C 0.10093 1.00054 0.93383 0.0
O121 O 0.09809 0.03203 0.90092 0.0
C122 C 0.19375 0.8346 0.91371 0.0
O123 O 0.19943 0.87103 0.9427 0.0
O124 O 0.17037 0.84511 0.87852 0.0
O125 O 0.19978 0.96282 0.8286 0.0
O126 O 0.07796 0.92768 0.82479 0.0
C127 C 0.03512 0.94608 0.83529 0.0
O128 O 0.02411 0.94885 0.87608 0.0
O129 O 0.12141 0.95642 0.92921 0.0
Mg130 Mg 0.54872 0.20018 0.91734 0.0
C131 C 0.47688 0.30013 0.90771 0.0
O132 O 0.44531 0.3317 0.9267 0.0
C133 C 0.51064 0.11227 0.97211 0.0
O134 O 0.47347 0.11433 0.94316 0.0
C135 C 0.65875 0.22694 0.94171 0.0
O136 O 0.6487 0.2001 0.97611 0.0
O137 O 0.6249 0.23147 0.91202 0.0
O138 O 0.49719 0.26417 0.93036 0.0
O139 O 0.52245 0.16065 0.85973 0.0
C140 C 0.47562 0.165 0.84911 0.0
O141 O 0.44584 0.19369 0.87254 0.0
O142 O 0.5471 0.14413 0.96976 0.0
Mg143 Mg 0.35385 0.54355 0.90582 0.0
C144 C 0.28087 0.44643 0.88389 0.0
O145 O 0.2687 0.39968 0.89578 0.0
C146 C 0.43749 0.50587 0.96434 0.0
O147 O 0.43536 0.46935 0.93514 0.0
C148 C 0.30119 0.64115 0.93587 0.0
O149 O 0.33206 0.63429 0.96925 0.0
O150 O 0.30133 0.60841 0.90554 0.0
O151 O 0.31574 0.46927 0.90567 0.0
O152 O 0.40176 0.54975 0.85079 0.0
C153 C 0.44762 0.56489 0.85425 0.0
O154 O 0.4666 0.57848 0.89193 0.0
O155 O 0.40591 0.54316 0.9614 0.0
Mg156 Mg 0.97818 0.17758 0.648 0.0
C157 C 0.06997 0.25924 0.66382 0.0
O158 O 0.11239 0.27628 0.64772 0.0
C159 C 1.01357 0.0948 0.58966 0.0
O160 O 0.04898 0.09554 0.62022 0.0
C161 C 0.87916 0.23104 0.62197 0.0
O162 O 0.88953 0.20833 0.58551 0.0
O163 O 0.90954 0.22474 0.654 0.0
O164 O 0.04652 0.22389 0.64308 0.0
O165 O 0.98962 0.12267 0.69915 0.0
C166 C 0.9563 0.10349 0.72307 0.0
O167 O 0.90939 0.12121 0.7215 0.0
O168 O 0.97687 0.12704 0.59154 0.0
Mg169 Mg 0.35996 0.97538 0.64143 0.0
C170 C 0.25962 0.04656 0.63769 0.0
O171 O 0.23023 0.07697 0.61406 0.0
C172 C 0.45962 0.99878 0.59765 0.0
O173 O 0.46602 0.02712 0.63227 0.0
C174 C 0.32342 0.86847 0.61807 0.0
O175 O 0.34388 0.88072 0.58149 0.0
O176 O 0.32687 0.89967 0.64946 0.0
O177 O 0.29786 0.02588 0.61976 0.0
O178 O 0.39301 1.00791 0.69985 0.0
C179 C 0.38809 0.0563 0.70439 0.0
O180 O 0.36366 0.08289 0.67449 0.0
O181 O 0.41889 0.97282 0.59291 0.0
Mg182 Mg 0.60567 0.40505 0.67747 0.0
C183 C 0.52591 0.36018 0.73495 0.0
O184 O 0.50031 0.39971 0.71919 0.0
C185 C 0.58455 0.46644 0.59772 0.0
O186 O 0.62618 0.48769 0.61364 0.0
C187 C 0.69146 0.3476 0.63704 0.0
O188 O 0.65389 0.33842 0.60949 0.0
O189 O 0.68324 0.37699 0.66884 0.0
O190 O 0.56879 0.3491 0.71913 0.0
O191 O 0.5999 0.4728 0.71823 0.0
C192 C 0.56146 0.50181 0.71086 0.0
O193 O 0.53445 0.49475 0.67538 0.0
O194 O 0.56754 0.4265 0.61621 0.0
Mg195 Mg 0.13103 0.60981 0.67288 0.0
C196 C 0.16751 0.5336 0.73882 0.0
O197 O 0.11959 0.52033 0.73351 0.0
C198 C 0.07384 0.58481 0.58942 0.0
O199 O 0.06328 0.63418 0.59223 0.0
C200 C 0.2032 0.68378 0.63137 0.0
O201 O 0.2168 0.64157 0.61131 0.0
O202 O 0.16658 0.68209 0.65714 0.0
O203 O 0.18499 0.56866 0.71502 0.0
O204 O 0.06741 0.62251 0.71462 0.0
C205 C 0.02409 0.60265 0.70669 0.0
O206 O 1.01549 0.58062 0.6693 0.0
O207 O 0.10389 0.56463 0.61749 0.0
C208 C 0.25358 0.75648 0.0887 0.0
C209 C 0.24751 0.71916 0.12074 0.0
H210 H 0.29962 0.81699 0.06443 0.0
C211 C 0.2863 0.71276 0.15226 0.0
H212 H 0.22454 0.76222 0.06383 0.0
C213 C 0.32908 0.74445 0.15286 0.0
C214 C 0.33431 0.78301 0.12174 0.0
H215 H 0.28292 0.68436 0.17741 0.0
H216 H 0.35759 0.73932 0.17825 0.0
C217 C 0.29663 0.78792 0.08908 0.0
C218 C 0.80449 0.25001 0.08481 0.0
C219 C 0.84024 0.24265 0.11861 0.0
H220 H 0.74641 0.29829 0.05675 0.0
C221 C 0.8449 0.28066 0.15059 0.0
H222 H 0.79985 0.22141 0.05975 0.0
C223 C 0.81374 0.32457 0.14919 0.0
C224 C 0.77764 0.33161 0.11554 0.0
H225 H 0.87194 0.27609 0.17716 0.0
H226 H 0.81786 0.35291 0.17455 0.0
C227 C 0.77377 0.29409 0.08313 0.0
C228 C 0.23204 0.75986 0.47082 0.0
C229 C 0.20001 0.76241 0.43405 0.0
H230 H 0.30243 0.73275 0.49858 0.0
C231 C 0.21378 0.73457 0.39728 0.0
H232 H 0.22264 0.78055 0.49978 0.0
C233 C 0.25956 0.70657 0.39681 0.0
C234 C 0.29267 0.70617 0.433 0.0
H235 H 0.18982 0.73542 0.36848 0.0
H236 H 0.26986 0.68694 0.36759 0.0
C237 C 0.27784 0.7323 0.4702 0.0
C238 C 0.79221 0.28071 0.39556 0.0
C239 C 0.8032 0.30893 0.43315 0.0
H240 H 0.75133 0.21831 0.36657 0.0
C241 C 0.78017 0.29449 0.47147 0.0
H242 H 0.80892 0.29107 0.3654 0.0
C243 C 0.74738 0.25217 0.47222 0.0
C244 C 0.73621 0.22429 0.4345 0.0
H245 H 0.78776 0.31564 0.50089 0.0
H246 H 0.73055 0.24138 0.50218 0.0
C247 C 0.75878 0.23923 0.39615 0.0
C248 C 0.76071 0.31736 0.90379 0.0
C249 C 0.80187 0.3054 0.93182 0.0
H250 H 0.68363 0.30161 0.88459 0.0
C251 C 0.79551 0.26751 0.96333 0.0
H252 H 0.76436 0.34617 0.87901 0.0
C253 C 0.74898 0.24209 0.96668 0.0
C254 C 0.7081 0.25361 0.93826 0.0
H255 H 0.82651 0.25735 0.98534 0.0
H256 H 0.74522 0.21304 0.99125 0.0
C257 C 0.71448 0.29157 0.90682 0.0
C258 C 0.27152 0.7262 0.96436 0.0
C259 C 0.27004 0.68872 0.93179 0.0
H260 H 0.24847 0.80143 0.9843 0.0
C261 C 0.24058 0.69838 0.89429 0.0
H262 H 0.29361 0.71994 0.99375 0.0
C263 C 0.21469 0.74519 0.88885 0.0
C264 C 0.21762 0.78337 0.9208 0.0
H265 H 0.23845 0.67026 0.86862 0.0
H266 H 0.19329 0.75184 0.85917 0.0
C267 C 0.2456 0.77298 0.95893 0.0
C268 C 0.77813 0.32096 0.66602 0.0
C269 C 0.74102 0.32056 0.63265 0.0
H270 H 0.85074 0.29277 0.68907 0.0
C271 C 0.75052 0.2917 0.59551 0.0
H272 H 0.77197 0.34267 0.69514 0.0
C273 C 0.79556 0.26329 0.59199 0.0
C274 C 0.83221 0.2627 0.62563 0.0
H275 H 0.72283 0.29061 0.56921 0.0
H276 H 0.80125 0.24108 0.56307 0.0
C277 C 0.82317 0.29216 0.66262 0.0
C278 C 0.228 0.77171 0.65701 0.0
C279 C 0.23307 0.73152 0.62714 0.0
H280 H 0.25317 0.84599 0.67801 0.0
C281 C 0.26847 0.73656 0.59443 0.0
H282 H 0.20132 0.76891 0.68279 0.0
C283 C 0.29793 0.78102 0.59148 0.0
C284 C 0.29322 0.8209 0.62164 0.0
H285 H 0.27337 0.70614 0.5711 0.0
H286 H 0.32474 0.78397 0.56582 0.0
C287 C 0.25802 0.81573 0.65449 0.0
C288 C 0.08723 0.48193 0.32135 0.0
C289 C 0.04654 0.44738 0.31656 0.0
H290 H 0.13936 0.53107 0.2899 0.0
C291 C 0.03439 0.42784 0.27551 0.0
H292 H 0.09815 0.4971 0.35263 0.0
C293 C 0.05816 0.44728 0.23946 0.0
C294 C 0.09438 0.48664 0.24389 0.0
H295 H 1.00372 0.4006 0.27076 0.0
H296 H 0.04509 0.43442 0.20801 0.0
C297 C 0.11094 0.50142 0.28532 0.0
C298 C 0.08072 1.00315 0.22979 0.0
C299 C 0.06201 0.05347 0.23533 0.0
H300 H 0.10285 0.93229 0.26022 0.0
C301 C 0.05826 0.07338 0.27704 0.0
H302 H 0.08363 0.98658 0.19803 0.0
C303 C 0.07022 0.0425 0.31262 0.0
C304 C 0.08478 0.99087 0.30699 0.0
H305 H 0.04379 0.11198 0.28216 0.0
H306 H 0.06484 0.05806 0.34447 0.0
C307 C 0.09132 0.97188 0.26533 0.0
C308 C 0.48078 1.00846 0.334 0.0
C309 C 0.50546 0.05542 0.32718 0.0
H310 H 0.44503 0.94277 0.30476 0.0
C311 C 0.50533 0.07647 0.28577 0.0
H312 H 0.48096 0.99114 0.36561 0.0
C313 C 0.48374 0.04939 0.25119 0.0
C314 C 0.46347 1.00015 0.2574 0.0
H315 H 0.52447 0.11247 0.2798 0.0
H316 H 0.48664 0.06522 0.21921 0.0
C317 C 0.46058 0.98063 0.29922 0.0
C318 C 0.63291 0.56557 0.29184 0.0
C319 C 0.61517 0.53543 0.25745 0.0
H320 H 0.61573 0.6018 0.35108 0.0
C321 C 0.56507 0.5168 0.25722 0.0
H322 H 0.67142 0.58027 0.29262 0.0
C323 C 0.53238 0.53025 0.29031 0.0
C324 C 0.55014 0.56102 0.32453 0.0
H325 H 0.55063 0.49376 0.23064 0.0
H326 H 0.49334 0.51714 0.28895 0.0
C327 C 0.60099 0.57761 0.32534 0.0
C328 C 1.004 0.60737 0.78453 0.0
C329 C 0.99068 0.59097 0.74276 0.0
H330 H 0.99637 0.59475 0.85176 0.0
C331 C 0.95075 0.55569 0.73704 0.0
H332 H 0.03405 0.63514 0.79001 0.0
C333 C 0.92928 0.53229 0.7725 0.0
C334 C 0.94721 0.54403 0.81423 0.0
H335 H 0.93898 0.54281 0.70526 0.0
H336 H 0.90158 0.50215 0.767 0.0
C337 C 0.98233 0.58417 0.81999 0.0
C338 C 0.0274 0.98609 0.76282 0.0
C339 C 1.00719 0.97887 0.80367 0.0
H340 H 0.02761 0.03169 0.70596 0.0
C341 C 0.96572 1.00964 0.81593 0.0
H342 H 0.05909 0.96302 0.75207 0.0
C343 C 0.94721 0.04904 0.78897 0.0
C344 C 0.97053 0.05867 0.74981 0.0
H345 H 0.94926 1.00504 0.84718 0.0
H346 H 0.9166 0.07358 0.79971 0.0
C347 C 1.00968 0.02585 0.73648 0.0
C348 C 0.47599 0.09076 0.79792 0.0
C349 C 0.4541 0.13714 0.81179 0.0
H350 H 0.47129 0.02783 0.75335 0.0
C351 C 0.41024 0.15621 0.7905 0.0
H352 H 0.50964 0.07512 0.81407 0.0
C353 C 0.3889 0.12972 0.75559 0.0
C354 C 0.41036 0.08309 0.74194 0.0
H355 H 0.3927 0.19193 0.80056 0.0
H356 H 0.35527 0.14552 0.7395 0.0
C357 C 0.45387 0.06356 0.76353 0.0
C358 C 0.56045 0.5305 0.78772 0.0
C359 C 0.53798 0.53039 0.7463 0.0
H360 H 0.54913 0.54246 0.85488 0.0
C361 C 0.48829 0.55006 0.7404 0.0
H362 H 0.59871 0.5158 0.79326 0.0
C363 C 0.45974 0.56407 0.77559 0.0
C364 C 0.48075 0.56007 0.81721 0.0
H365 H 0.46993 0.55111 0.70889 0.0
H366 H 0.42042 0.57579 0.77037 0.0
C367 C 0.53208 0.54567 0.82297 0.0
C368 C 0.0537 0.74519 0.27989 0.0
C369 C 0.0283 0.70053 0.26546 0.0
H370 H 0.05533 0.80804 0.32492 0.0
C371 C 0.9838 0.6858 0.2859 0.0
H372 H 0.0884 0.75734 0.26502 0.0
C373 C 0.96502 0.71466 0.3198 0.0
C374 C 0.99038 0.75899 0.33476 0.0
H375 H 0.96333 0.65165 0.27579 0.0
H376 H 0.93052 0.7017 0.33454 0.0
C377 C 0.03506 0.77401 0.31445 0.0
C378 C 0.78617 0.03421 0.22216 0.0
C379 C 0.8352 0.03025 0.2409 0.0
H380 H 0.70617 0.03799 0.2323 0.0
C381 C 0.84006 1.02026 0.28525 0.0
H382 H 0.781 0.04142 0.1881 0.0
C383 C 0.79707 1.01879 0.31083 0.0
C384 C 0.74827 0.02679 0.29253 0.0
H385 H 0.87725 1.01663 0.30078 0.0
H386 H 0.80236 1.01412 0.34519 0.0
C387 C 0.74321 0.03222 0.24764 0.0
C388 C 0.57718 0.76672 0.3091 0.0
C389 C 0.52575 0.75878 0.31797 0.0
H390 H 0.63142 0.79025 0.2634 0.0
C391 C 0.48852 0.77529 0.28748 0.0
H392 H 0.60693 0.75493 0.33179 0.0
C393 C 0.50271 0.79571 0.24782 0.0
C394 C 0.55434 0.79995 0.23792 0.0
H395 H 0.44846 0.76978 0.2932 0.0
H396 H 0.47337 0.80516 0.22413 0.0
C397 C 0.59124 0.7869 0.26966 0.0
C398 C 0.83666 0.5823 0.21516 0.0
C399 C 0.79793 0.55225 0.19583 0.0
H400 H 0.88984 0.59163 0.2677 0.0
C401 C 0.78197 0.50802 0.2175 0.0
H402 H 0.85011 0.61679 0.19975 0.0
C403 C 0.80439 0.49409 0.25721 0.0
C404 C 0.84398 0.52361 0.27573 0.0
H405 H 0.75272 0.48373 0.20377 0.0
H406 H 0.79187 0.45925 0.27266 0.0
C407 C 0.85951 0.56804 0.25436 0.0
C408 C 0.07704 0.32597 0.72116 0.0
C409 C 0.0516 0.28262 0.7043 0.0
H410 H 0.08094 0.38397 0.7696 0.0
C411 C 1.00993 0.26329 0.72653 0.0
H412 H 0.10943 0.34207 0.70527 0.0
C413 C 0.99364 0.2876 0.76423 0.0
C414 C 1.01861 0.33179 0.78019 0.0
H415 H 0.9898 0.22974 0.71487 0.0
H416 H 0.96085 0.27253 0.78024 0.0
C417 C 0.06074 0.35018 0.75833 0.0
C418 C 0.20968 0.06971 0.70219 0.0
C419 C 0.24654 0.03789 0.68345 0.0
H420 H 0.16204 0.08375 0.75552 0.0
C421 C 0.26708 0.99703 0.70799 0.0
H422 H 0.19324 0.10203 0.68471 0.0
C423 C 0.24923 0.98661 0.7492 0.0
C424 C 0.21027 1.01685 0.7667 0.0
H425 H 0.29534 0.9718 0.69495 0.0
H426 H 0.26423 0.95341 0.76639 0.0
C427 C 0.19184 0.05937 0.7431 0.0
C428 C 0.45323 0.33886 0.83657 0.0
C429 C 0.48703 0.30811 0.86134 0.0
H430 H 0.43827 0.3782 0.77739 0.0
C431 C 0.53118 0.28936 0.84203 0.0
H432 H 0.41846 0.35359 0.85005 0.0
C433 C 0.54268 0.30356 0.79987 0.0
C434 C 0.51011 0.3368 0.77612 0.0
H435 H 0.55799 0.26576 0.85997 0.0
H436 H 0.57821 0.29045 0.78671 0.0
C437 C 0.4645 0.35286 0.79463 0.0
C438 C 0.20831 0.44661 0.83075 0.0
C439 C 0.25315 0.47003 0.84657 0.0
H440 H 0.14672 0.44806 0.78471 0.0
C441 C 0.27067 0.51418 0.82568 0.0
H442 H 0.19347 0.41255 0.84589 0.0
C443 C 0.24384 0.5343 0.78982 0.0
C444 C 0.19864 0.51097 0.77454 0.0
H445 H 0.30509 0.53297 0.83671 0.0
H446 H 0.25797 0.56862 0.77459 0.0
C447 C 0.18136 0.46691 0.79548 0.0
C448 C 0.07827 0.50092 1.0265 0.0
C449 C 0.05845 0.53784 0.05476 0.0
H450 H 0.06271 0.44533 0.97703 0.0
C451 C 1.00555 0.54625 0.05431 0.0
H452 H 0.11878 0.49321 1.02605 0.0
C453 C 0.97334 0.51843 1.02639 0.0
C454 C 0.99314 0.48153 0.9981 0.0
H455 H 0.98887 0.57408 0.07578 0.0
H456 H 0.93282 0.52616 0.02686 0.0
C457 C 0.04605 0.47316 0.99851 0.0
C458 C 0.06681 0.97459 1.0051 0.0
C459 C 0.07288 1.01246 0.97346 0.0
H460 H 0.03298 0.95408 0.06437 0.0
C461 C 0.04872 0.06043 0.97864 0.0
H462 H 0.08457 0.93708 1.00209 0.0
C463 C 1.019 0.07017 1.01445 0.0
C464 C 1.0124 0.03203 0.04577 0.0
H465 H 0.05235 0.0904 0.95482 0.0
H466 H 1.00098 0.10756 1.01744 0.0
C467 C 0.0368 0.98419 0.0407 0.0
C468 C 0.55003 0.03088 0.06886 0.0
C469 C 0.50904 0.99653 0.07156 0.0
H470 H 0.58273 0.09427 0.03565 0.0
C471 C 0.46866 1.00066 0.04127 0.0
H472 H 0.58178 0.02888 0.09167 0.0
C473 C 0.46924 0.03824 1.00912 0.0
C474 C 0.51016 0.07268 1.00649 0.0
H475 H 0.43647 0.97492 0.0424 0.0
H476 H 0.43746 0.04026 0.98635 0.0
C477 C 0.55057 0.0685 0.03675 0.0
C478 C 0.48257 0.54513 0.02831 0.0
C479 C 0.47866 0.50541 0.99781 0.0
H480 H 0.52443 0.57677 0.08179 0.0
C481 C 0.51554 0.46589 0.99868 0.0
H482 H 0.45491 0.5762 0.02851 0.0
C483 C 0.55561 0.4663 0.02915 0.0
C484 C 0.55966 0.50618 0.05951 0.0
H485 H 0.51375 0.43471 0.97559 0.0
H486 H 0.58341 0.43537 0.02884 0.0
C487 C 0.52256 0.54548 0.05882 0.0
C488 C 0.06078 0.98406 0.521 0.0
C489 C 0.02264 0.98082 0.4887 0.0
H490 H 0.08788 1.0224 0.57787 0.0
C491 C 0.98141 1.01569 0.48977 0.0
H492 H 0.09309 0.95798 0.52118 0.0
C493 C 0.9784 0.05284 0.52228 0.0
C494 C 1.01654 0.05605 0.55458 0.0
H495 H 0.95133 1.01444 0.46538 0.0
H496 H 0.94612 0.07896 0.52212 0.0
C497 C 0.05775 1.02116 0.55351 0.0
C498 C 0.52939 0.96958 0.49497 0.0
C499 C 0.56892 1.00589 0.4968 0.0
H500 H 0.46367 0.93905 0.52506 0.0
C501 C 0.57391 0.03746 0.53331 0.0
H502 H 0.52424 0.94478 0.46726 0.0
C503 C 0.53924 0.03405 0.56648 0.0
C504 C 0.49842 0.99931 0.56382 0.0
H505 H 0.60387 0.06582 0.53581 0.0
H506 H 0.54369 0.05978 0.59368 0.0
C507 C 0.49441 0.96649 0.52801 0.0
C508 C 0.5686 0.54327 0.55018 0.0
C509 C 0.55392 0.49402 0.56396 0.0
H510 H 0.55148 0.60845 0.51005 0.0
C511 C 0.50849 0.47321 0.54694 0.0
H512 H 0.60314 0.5608 0.5628 0.0
C513 C 0.47881 0.50073 0.51667 0.0
C514 C 0.49353 0.54995 0.50289 0.0
H515 H 0.4958 0.43565 0.557 0.0
H516 H 0.44431 0.48322 0.50392 0.0
C517 C 0.53871 0.57094 0.52018 0.0
C518 C 0.02456 0.46765 0.52837 0.0
C519 C 0.98825 0.48961 0.49975 0.0
H520 H 0.08031 0.48021 0.57865 0.0
C521 C 0.98101 0.54326 0.50048 0.0
H522 H 0.03137 0.4265 0.52861 0.0
C523 C 1.00941 0.57413 0.52903 0.0
C524 C 0.04575 0.55217 0.55762 0.0
H525 H 0.95366 0.56156 0.47874 0.0
H526 H 1.00263 0.61528 0.52878 0.0
C527 C 0.05293 0.49851 0.55694 0.0
loop_
_geom_bond_atom_site_label_1
_geom_bond_atom_site_label_2
_geom_bond_distance
_geom_bond_site_symmetry_2
_ccdc_geom_bond_type
Mg0 O7 2.141 . S
Mg0 O8 2.067 . S
Mg0 O9 2.048 . S
Mg0 O12 2.141 . S
C1 O2 1.313 . S
C1 O8 1.171 1_655 S
O2 C1 1.313 . S
C3 O4 1.245 . S
C3 O12 1.289 . S
O4 C3 1.245 . S
C5 O6 1.245 . S
C5 O7 1.289 . S
O6 C5 1.245 . S
O7 Mg0 2.141 . S
O7 C5 1.289 . S
O8 Mg0 2.067 . S
O8 C1 1.171 1_455 S
O9 Mg0 2.048 . S
O9 C10 1.195 . S
C10 O9 1.195 . S
C10 O11 1.313 . S
O11 C10 1.313 . S
O12 Mg0 2.141 . S
O12 C3 1.289 . S
Mg13 O20 2.141 . S
Mg13 O21 2.066 . S
Mg13 O22 2.048 . S
Mg13 O25 2.141 . S
C14 O15 1.313 . S
C14 O21 1.171 1_565 S
O15 C14 1.313 . S
C16 O17 1.245 . S
C16 O25 1.289 . S
O17 C16 1.245 . S
C18 O19 1.245 . S
C18 O20 1.289 . S
O19 C18 1.245 . S
O20 Mg13 2.141 . S
O20 C18 1.289 . S
O21 Mg13 2.066 . S
O21 C14 1.171 1_545 S
O22 Mg13 2.048 . S
O22 C23 1.195 . S
C23 O22 1.195 . S
C23 O24 1.313 . S
O24 C23 1.313 . S
O25 Mg13 2.141 . S
O25 C16 1.289 . S
Mg26 O33 2.141 . S
Mg26 O34 2.048 . S
Mg26 O35 2.048 . S
Mg26 O38 2.141 . S
C27 O28 1.313 . S
C27 O34 1.195 . S
O28 C27 1.313 . S
C29 O30 1.245 . S
C29 O38 1.289 . S
O30 C29 1.245 . S
C31 O32 1.245 . S
C31 O33 1.289 . S
O32 C31 1.245 . S
O33 Mg26 2.141 . S
O33 C31 1.289 . S
O34 Mg26 2.048 . S
O34 C27 1.195 . S
O35 Mg26 2.048 . S
O35 C36 1.195 . S
C36 O35 1.195 . S
C36 O37 1.313 . S
O37 C36 1.313 . S
O38 Mg26 2.141 . S
O38 C29 1.289 . S
Mg39 O46 2.141 . S
Mg39 O47 2.048 . S
Mg39 O48 2.048 . S
Mg39 O51 2.141 . S
C40 O41 1.313 . S
C40 O47 1.195 . S
O41 C40 1.313 . S
C42 O43 1.245 . S
C42 O51 1.289 . S
O43 C42 1.245 . S
C44 O45 1.245 . S
C44 O46 1.289 . S
O45 C44 1.245 . S
O46 Mg39 2.141 . S
O46 C44 1.289 . S
O47 Mg39 2.048 . S
O47 C40 1.195 . S
O48 Mg39 2.048 . S
O48 C49 1.195 . S
C49 O48 1.195 . S
C49 O50 1.313 . S
O50 C49 1.313 . S
O51 Mg39 2.141 . S
O51 C42 1.289 . S
Mg52 O59 2.141 . S
Mg52 O60 2.066 . S
Mg52 O61 2.048 . S
Mg52 O64 2.141 . S
C53 O54 1.313 . S
C53 O60 1.171 1_655 S
O54 C53 1.313 . S
C55 O56 1.245 . S
C55 O64 1.289 . S
O56 C55 1.245 . S
C57 O58 1.245 . S
C57 O59 1.289 . S
O58 C57 1.245 . S
O59 Mg52 2.141 . S
O59 C57 1.289 . S
O60 Mg52 2.066 . S
O60 C53 1.171 1_455 S
O61 Mg52 2.048 . S
O61 C62 1.195 . S
C62 O61 1.195 . S
C62 O63 1.313 . S
O63 C62 1.313 . S
O64 Mg52 2.141 . S
O64 C55 1.289 . S
Mg65 O72 2.141 . S
Mg65 O73 2.067 . S
Mg65 O74 2.048 . S
Mg65 O77 2.141 . S
C66 O67 1.313 . S
C66 O73 1.171 1_565 S
O67 C66 1.313 . S
C68 O69 1.245 . S
C68 O77 1.289 . S
O69 C68 1.245 . S
C70 O71 1.245 . S
C70 O72 1.289 . S
O71 C70 1.245 . S
O72 Mg65 2.141 . S
O72 C70 1.289 . S
O73 Mg65 2.067 . S
O73 C66 1.171 1_545 S
O74 Mg65 2.048 . S
O74 C75 1.195 . S
C75 O74 1.195 . S
C75 O76 1.313 . S
O76 C75 1.313 . S
O77 Mg65 2.141 . S
O77 C68 1.289 . S
Mg78 O85 2.141 . S
Mg78 O86 2.048 . S
Mg78 O87 2.048 . S
Mg78 O90 2.141 . S
C79 O80 1.313 . S
C79 O86 1.195 . S
O80 C79 1.313 . S
C81 O82 1.245 . S
C81 O90 1.289 . S
O82 C81 1.245 . S
C83 O84 1.245 . S
C83 O85 1.289 . S
O84 C83 1.245 . S
O85 Mg78 2.141 . S
O85 C83 1.289 . S
O86 Mg78 2.048 . S
O86 C79 1.195 . S
O87 Mg78 2.048 . S
O87 C88 1.195 . S
C88 O87 1.195 . S
C88 O89 1.313 . S
O89 C88 1.313 . S
O90 Mg78 2.141 . S
O90 C81 1.289 . S
Mg91 O98 2.141 . S
Mg91 O99 2.048 . S
Mg91 O100 2.048 . S
Mg91 O103 2.141 . S
C92 O93 1.313 . S
C92 O99 1.195 . S
O93 C92 1.313 . S
C94 O95 1.245 . S
C94 O103 1.289 . S
O95 C94 1.245 . S
C96 O97 1.245 . S
C96 O98 1.289 . S
O97 C96 1.245 . S
O98 Mg91 2.141 . S
O98 C96 1.289 . S
O99 Mg91 2.048 . S
O99 C92 1.195 . S
O100 Mg91 2.048 . S
O100 C101 1.195 . S
C101 O100 1.195 . S
C101 O102 1.313 . S
O102 C101 1.313 . S
O103 Mg91 2.141 . S
O103 C94 1.289 . S
Mg104 O111 2.141 . S
Mg104 O112 2.048 . S
Mg104 O113 2.067 . S
Mg104 O116 2.141 . S
C105 O106 1.313 . S
C105 O112 1.195 . S
O106 C105 1.313 . S
C107 O108 1.245 . S
C107 O116 1.289 . S
O108 C107 1.245 . S
C109 O110 1.245 . S
C109 O111 1.289 . S
O110 C109 1.245 . S
O111 Mg104 2.141 . S
O111 C109 1.289 . S
O112 Mg104 2.048 . S
O112 C105 1.195 . S
O113 Mg104 2.067 . S
O113 C114 1.171 1_655 S
C114 O113 1.171 1_455 S
C114 O115 1.313 . S
O115 C114 1.313 . S
O116 Mg104 2.141 . S
O116 C107 1.289 . S
Mg117 O124 2.141 . S
Mg117 O125 2.048 . S
Mg117 O126 2.066 . S
Mg117 O129 2.141 . S
C118 O119 1.313 . S
C118 O125 1.195 . S
O119 C118 1.313 . S
C120 O121 1.245 . S
C120 O129 1.289 . S
O121 C120 1.245 . S
C122 O123 1.245 . S
C122 O124 1.289 . S
O123 C122 1.245 . S
O124 Mg117 2.141 . S
O124 C122 1.289 . S
O125 Mg117 2.048 . S
O125 C118 1.195 . S
O126 Mg117 2.066 . S
O126 C127 1.171 1_565 S
C127 O126 1.171 1_545 S
C127 O128 1.313 . S
O128 C127 1.313 . S
O129 Mg117 2.141 . S
O129 C120 1.289 . S
Mg130 O137 2.141 . S
Mg130 O138 2.048 . S
Mg130 O139 2.048 . S
Mg130 O142 2.141 . S
C131 O132 1.313 . S
C131 O138 1.195 . S
O132 C131 1.313 . S
C133 O134 1.245 . S
C133 O142 1.289 . S
O134 C133 1.245 . S
C135 O136 1.245 . S
C135 O137 1.289 . S
O136 C135 1.245 . S
O137 Mg130 2.141 . S
O137 C135 1.289 . S
O138 Mg130 2.048 . S
O138 C131 1.195 . S
O139 Mg130 2.048 . S
O139 C140 1.195 . S
C140 O139 1.195 . S
C140 O141 1.313 . S
O141 C140 1.313 . S
O142 Mg130 2.141 . S
O142 C133 1.289 . S
Mg143 O150 2.141 . S
Mg143 O151 2.048 . S
Mg143 O152 2.048 . S
Mg143 O155 2.141 . S
C144 O145 1.313 . S
C144 O151 1.195 . S
O145 C144 1.313 . S
C146 O147 1.245 . S
C146 O155 1.289 . S
O147 C146 1.245 . S
C148 O149 1.245 . S
C148 O150 1.289 . S
O149 C148 1.245 . S
O150 Mg143 2.141 . S
O150 C148 1.289 . S
O151 Mg143 2.048 . S
O151 C144 1.195 . S
O152 Mg143 2.048 . S
O152 C153 1.195 . S
C153 O152 1.195 . S
C153 O154 1.313 . S
O154 C153 1.313 . S
O155 Mg143 2.141 . S
O155 C146 1.289 . S
Mg156 O163 2.141 . S
Mg156 O164 2.048 . S
Mg156 O165 2.066 . S
Mg156 O168 2.141 . S
C157 O158 1.313 . S
C157 O164 1.195 . S
O158 C157 1.313 . S
C159 O160 1.245 . S
C159 O168 1.289 . S
O160 C159 1.245 . S
C161 O162 1.245 . S
C161 O163 1.289 . S
O162 C161 1.245 . S
O163 Mg156 2.141 . S
O163 C161 1.289 . S
O164 Mg156 2.048 . S
O164 C157 1.195 . S
O165 Mg156 2.066 . S
O165 C166 1.171 1_655 S
C166 O165 1.171 1_455 S
C166 O167 1.313 . S
O167 C166 1.313 . S
O168 Mg156 2.141 . S
O168 C159 1.289 . S
Mg169 O176 2.141 . S
Mg169 O177 2.048 . S
Mg169 O178 2.067 . S
Mg169 O181 2.141 . S
C170 O171 1.313 . S
C170 O177 1.195 . S
O171 C170 1.313 . S
C172 O173 1.245 . S
C172 O181 1.289 . S
O173 C172 1.245 . S
C174 O175 1.245 . S
C174 O176 1.289 . S
O175 C174 1.245 . S
O176 Mg169 2.141 . S
O176 C174 1.289 . S
O177 Mg169 2.048 . S
O177 C170 1.195 . S
O178 Mg169 2.067 . S
O178 C179 1.171 1_565 S
C179 O178 1.171 1_545 S
C179 O180 1.313 . S
O180 C179 1.313 . S
O181 Mg169 2.141 . S
O181 C172 1.289 . S
Mg182 O189 2.141 . S
Mg182 O190 2.048 . S
Mg182 O191 2.048 . S
Mg182 O194 2.141 . S
C183 O184 1.313 . S
C183 O190 1.195 . S
O184 C183 1.313 . S
C185 O186 1.245 . S
C185 O194 1.289 . S
O186 C185 1.245 . S
C187 O188 1.245 . S
C187 O189 1.289 . S
O188 C187 1.245 . S
O189 Mg182 2.141 . S
O189 C187 1.289 . S
O190 Mg182 2.048 . S
O190 C183 1.195 . S
O191 Mg182 2.048 . S
O191 C192 1.195 . S
C192 O191 1.195 . S
C192 O193 1.313 . S
O193 C192 1.313 . S
O194 Mg182 2.141 . S
O194 C185 1.289 . S
Mg195 O202 2.141 . S
Mg195 O203 2.048 . S
Mg195 O204 2.048 . S
Mg195 O207 2.141 . S
C196 O197 1.313 . S
C196 O203 1.195 . S
O197 C196 1.313 . S
C198 O199 1.245 . S
C198 O207 1.289 . S
O199 C198 1.245 . S
C200 O201 1.245 . S
C200 O202 1.289 . S
O201 C200 1.245 . S
O202 Mg195 2.141 . S
O202 C200 1.289 . S
O203 Mg195 2.048 . S
O203 C196 1.195 . S
O204 Mg195 2.048 . S
O204 C205 1.195 . S
C205 O204 1.195 . S
C205 O206 1.313 . S
O206 C205 1.313 . S
O207 Mg195 2.141 . S
O207 C198 1.289 . S
C208 C209 1.387 . S
C208 H212 0.950 . S
C208 C217 1.390 . S
C209 C208 1.387 . S
C209 C211 1.387 . S
H210 C217 0.950 . S
C211 C209 1.387 . S
C211 C213 1.390 . S
C211 H215 0.950 . S
H212 C208 0.950 . S
C213 C211 1.390 . S
C213 C214 1.387 . S
C213 H216 0.950 . S
C214 C213 1.387 . S
C214 C217 1.387 . S
H215 C211 0.950 . S
H216 C213 0.950 . S
C217 C208 1.390 . S
C217 H210 0.950 . S
C217 C214 1.387 . S
C218 C219 1.387 . S
C218 H222 0.950 . S
C218 C227 1.390 . S
C219 C218 1.387 . S
C219 C221 1.387 . S
H220 C227 0.950 . S
C221 C219 1.387 . S
C221 C223 1.390 . S
C221 H225 0.950 . S
H222 C218 0.950 . S
C223 C221 1.390 . S
C223 C224 1.387 . S
C223 H226 0.950 . S
C224 C223 1.387 . S
C224 C227 1.387 . S
H225 C221 0.950 . S
H226 C223 0.950 . S
C227 C218 1.390 . S
C227 H220 0.950 . S
C227 C224 1.387 . S
C228 C229 1.387 . S
C228 H232 0.950 . S
C228 C237 1.390 . S
C229 C228 1.387 . S
C229 C231 1.387 . S
H230 C237 0.950 . S
C231 C229 1.387 . S
C231 C233 1.390 . S
C231 H235 0.950 . S
H232 C228 0.950 . S
C233 C231 1.390 . S
C233 C234 1.387 . S
C233 H236 0.950 . S
C234 C233 1.387 . S
C234 C237 1.387 . S
H235 C231 0.950 . S
H236 C233 0.950 . S
C237 C228 1.390 . S
C237 H230 0.950 . S
C237 C234 1.387 . S
C238 C239 1.387 . S
C238 H242 0.950 . S
C238 C247 1.390 . S
C239 C238 1.387 . S
C239 C241 1.387 . S
H240 C247 0.950 . S
C241 C239 1.387 . S
C241 C243 1.390 . S
C241 H245 0.950 . S
H242 C238 0.950 . S
C243 C241 1.390 . S
C243 C244 1.387 . S
C243 H246 0.950 . S
C244 C243 1.387 . S
C244 C247 1.387 . S
H245 C241 0.950 . S
H246 C243 0.950 . S
C247 C238 1.390 . S
C247 H240 0.950 . S
C247 C244 1.387 . S
C248 C249 1.387 . S
C248 H252 0.950 . S
C248 C257 1.390 . S
C249 C248 1.387 . S
C249 C251 1.387 . S
H250 C257 0.950 . S
C251 C249 1.387 . S
C251 C253 1.390 . S
C251 H255 0.950 . S
H252 C248 0.950 . S
C253 C251 1.390 . S
C253 C254 1.387 . S
C253 H256 0.950 . S
C254 C253 1.387 . S
C254 C257 1.387 . S
H255 C251 0.950 . S
H256 C253 0.950 . S
C257 C248 1.390 . S
C257 H250 0.950 . S
C257 C254 1.387 . S
C258 C259 1.387 . S
C258 H262 0.950 . S
C258 C267 1.390 . S
C259 C258 1.387 . S
C259 C261 1.387 . S
H260 C267 0.950 . S
C261 C259 1.387 . S
C261 C263 1.390 . S
C261 H265 0.950 . S
H262 C258 0.950 . S
C263 C261 1.390 . S
C263 C264 1.387 . S
C263 H266 0.950 . S
C264 C263 1.387 . S
C264 C267 1.387 . S
H265 C261 0.950 . S
H266 C263 0.950 . S
C267 C258 1.390 . S
C267 H260 0.950 . S
C267 C264 1.387 . S
C268 C269 1.387 . S
C268 H272 0.950 . S
C268 C277 1.390 . S
C269 C268 1.387 . S
C269 C271 1.387 . S
H270 C277 0.950 . S
C271 C269 1.387 . S
C271 C273 1.390 . S
C271 H275 0.950 . S
H272 C268 0.950 . S
C273 C271 1.390 . S
C273 C274 1.387 . S
C273 H276 0.950 . S
C274 C273 1.387 . S
C274 C277 1.387 . S
H275 C271 0.950 . S
H276 C273 0.950 . S
C277 C268 1.390 . S
C277 H270 0.950 . S
C277 C274 1.387 . S
C278 C279 1.387 . S
C278 H282 0.950 . S
C278 C287 1.390 . S
C279 C278 1.387 . S
C279 C281 1.387 . S
H280 C287 0.950 . S
C281 C279 1.387 . S
C281 C283 1.390 . S
C281 H285 0.950 . S
H282 C278 0.950 . S
C283 C281 1.390 . S
C283 C284 1.387 . S
C283 H286 0.950 . S
C284 C283 1.387 . S
C284 C287 1.387 . S
H285 C281 0.950 . S
H286 C283 0.950 . S
C287 C278 1.390 . S
C287 H280 0.950 . S
C287 C284 1.387 . S
C288 C289 1.387 . S
C288 H292 0.950 . S
C288 C297 1.390 . S
C289 C288 1.387 . S
C289 C291 1.387 . S
H290 C297 0.950 . S
C291 C289 1.387 . S
C291 C293 1.390 . S
C291 H295 0.950 . S
H292 C288 0.950 . S
C293 C291 1.390 . S
C293 C294 1.387 . S
C293 H296 0.950 . S
C294 C293 1.387 . S
C294 C297 1.387 . S
H295 C291 0.950 . S
H296 C293 0.950 . S
C297 C288 1.390 . S
C297 H290 0.950 . S
C297 C294 1.387 . S
C298 C299 1.387 . S
C298 H302 0.950 . S
C298 C307 1.390 . S
C299 C298 1.387 . S
C299 C301 1.387 . S
H300 C307 0.950 . S
C301 C299 1.387 . S
C301 C303 1.390 . S
C301 H305 0.950 . S
H302 C298 0.950 . S
C303 C301 1.390 . S
C303 C304 1.387 . S
C303 H306 0.950 . S
C304 C303 1.387 . S
C304 C307 1.387 . S
H305 C301 0.950 . S
H306 C303 0.950 . S
C307 C298 1.390 . S
C307 H300 0.950 . S
C307 C304 1.387 . S
C308 C309 1.387 . S
C308 H312 0.950 . S
C308 C317 1.390 . S
C309 C308 1.387 . S
C309 C311 1.387 . S
H310 C317 0.950 . S
C311 C309 1.387 . S
C311 C313 1.390 . S
C311 H315 0.934 1_565 S
H312 C308 0.950 . S
C313 C311 1.390 . S
C313 C314 1.387 . S
C313 H316 0.950 . S
C314 C313 1.387 . S
C314 C317 1.387 . S
H315 C311 0.934 1_545 S
H316 C313 0.950 . S
C317 C308 1.390 . S
C317 H310 0.950 . S
C317 C314 1.387 . S
C318 C319 1.387 . S
C318 H322 0.950 . S
C318 C327 1.390 . S
C319 C318 1.387 . S
C319 C321 1.387 . S
H320 C327 0.950 . S
C321 C319 1.387 . S
C321 C323 1.390 . S
C321 H325 0.950 . S
H322 C318 0.950 . S
C323 C321 1.390 . S
C323 C324 1.387 . S
C323 H326 0.950 . S
C324 C323 1.387 . S
C324 C327 1.387 . S
H325 C321 0.950 . S
H326 C323 0.950 . S
C327 C318 1.390 . S
C327 H320 0.950 . S
C327 C324 1.387 . S
C328 C329 1.387 . S
C328 H332 0.950 . S
C328 C337 1.390 . S
C329 C328 1.387 . S
C329 C331 1.387 . S
H330 C337 0.950 . S
C331 C329 1.387 . S
C331 C333 1.390 . S
C331 H335 0.950 . S
H332 C328 0.950 . S
C333 C331 1.390 . S
C333 C334 1.387 . S
C333 H336 0.950 . S
C334 C333 1.387 . S
C334 C337 1.387 . S
H335 C331 0.950 . S
H336 C333 0.950 . S
C337 C328 1.390 . S
C337 H330 0.950 . S
C337 C334 1.387 . S
C338 C339 1.387 . S
C338 H342 0.955 . S
C338 C347 1.390 . S
C339 C338 1.387 . S
C339 C341 1.387 . S
H340 C347 0.950 . S
C341 C339 1.387 . S
C341 C343 1.390 . S
C341 H345 0.950 . S
H342 C338 0.955 . S
C343 C341 1.390 . S
C343 C344 1.387 . S
C343 H346 0.950 . S
C344 C343 1.387 . S
C344 C347 1.387 . S
H345 C341 0.950 . S
H346 C343 0.950 . S
C347 C338 1.390 . S
C347 H340 0.950 . S
C347 C344 1.387 . S
C348 C349 1.387 . S
C348 H352 0.950 . S
C348 C357 1.390 . S
C349 C348 1.387 . S
C349 C351 1.387 . S
H350 C357 0.934 1_565 S
C351 C349 1.387 . S
C351 C353 1.390 . S
C351 H355 0.950 . S
H352 C348 0.950 . S
C353 C351 1.390 . S
C353 C354 1.387 . S
C353 H356 0.950 . S
C354 C353 1.387 . S
C354 C357 1.387 . S
H355 C351 0.950 . S
H356 C353 0.950 . S
C357 C348 1.390 . S
C357 H350 0.934 1_545 S
C357 C354 1.387 . S
C358 C359 1.387 . S
C358 H362 0.950 . S
C358 C367 1.390 . S
C359 C358 1.387 . S
C359 C361 1.387 . S
H360 C367 0.950 . S
C361 C359 1.387 . S
C361 C363 1.390 . S
C361 H365 0.950 . S
H362 C358 0.950 . S
C363 C361 1.390 . S
C363 C364 1.387 . S
C363 H366 0.950 . S
C364 C363 1.387 . S
C364 C367 1.387 . S
H365 C361 0.950 . S
H366 C363 0.950 . S
C367 C358 1.390 . S
C367 H360 0.950 . S
C367 C364 1.387 . S
C368 C369 1.387 . S
C368 H372 0.950 . S
C368 C377 1.390 . S
C369 C368 1.387 . S
C369 C371 1.387 . S
H370 C377 0.950 . S
C371 C369 1.387 . S
C371 C373 1.390 . S
C371 H375 0.950 1_455 S
H372 C368 0.950 . S
C373 C371 1.390 . S
C373 C374 1.387 . S
C373 H376 0.950 1_455 S
C374 C373 1.387 . S
C374 C377 1.387 . S
H375 C371 0.950 1_655 S
H376 C373 0.950 1_655 S
C377 C368 1.390 . S
C377 H370 0.950 . S
C377 C374 1.387 . S
C378 C379 1.387 . S
C378 H382 0.950 . S
C378 C387 1.390 . S
C379 C378 1.387 . S
C379 C381 1.387 . S
H380 C387 0.950 . S
C381 C379 1.387 . S
C381 C383 1.390 . S
C381 H385 0.950 1_545 S
H382 C378 0.950 . S
C383 C381 1.390 . S
C383 C384 1.387 . S
C383 H386 0.950 1_545 S
C384 C383 1.387 . S
C384 C387 1.387 . S
H385 C381 0.950 1_565 S
H386 C383 0.950 1_565 S
C387 C378 1.390 . S
C387 H380 0.950 . S
C387 C384 1.387 . S
C388 C389 1.387 . S
C388 H392 0.950 . S
C388 C397 1.390 . S
C389 C388 1.387 . S
C389 C391 1.387 . S
H390 C397 0.950 . S
C391 C389 1.387 . S
C391 C393 1.390 . S
C391 H395 0.950 . S
H392 C388 0.950 . S
C393 C391 1.390 . S
C393 C394 1.387 . S
C393 H396 0.950 . S
C394 C393 1.387 . S
C394 C397 1.387 . S
H395 C391 0.950 . S
H396 C393 0.950 . S
C397 C388 1.390 . S
C397 H390 0.950 . S
C397 C394 1.387 . S
C398 C399 1.387 . S
C398 H402 0.950 . S
C398 C407 1.390 . S
C399 C398 1.387 . S
C399 C401 1.387 . S
H400 C407 0.950 . S
C401 C399 1.387 . S
C401 C403 1.390 . S
C401 H405 0.950 . S
H402 C398 0.950 . S
C403 C401 1.390 . S
C403 C404 1.387 . S
C403 H406 0.950 . S
C404 C403 1.387 . S
C404 C407 1.387 . S
H405 C401 0.950 . S
H406 C403 0.950 . S
C407 C398 1.390 . S
C407 H400 0.950 . S
C407 C404 1.387 . S
C408 C409 1.387 . S
C408 H412 0.950 1_655 S
C408 C417 1.390 . S
C409 C408 1.387 . S
C409 C411 1.387 . S
H410 C417 0.950 1_455 S
C411 C409 1.387 . S
C411 C413 1.390 . S
C411 H415 0.950 . S
H412 C408 0.950 1_455 S
C413 C411 1.390 . S
C413 C414 1.387 . S
C413 H416 0.950 . S
C414 C413 1.387 . S
C414 C417 1.387 . S
H415 C411 0.950 . S
H416 C413 0.950 . S
C417 C408 1.390 . S
C417 H410 0.950 1_655 S
C417 C414 1.387 . S
C418 C419 1.387 . S
C418 H422 0.950 1_565 S
C418 C427 1.390 . S
C419 C418 1.387 . S
C419 C421 1.387 . S
H420 C427 0.950 1_545 S
C421 C419 1.387 . S
C421 C423 1.390 . S
C421 H425 0.950 . S
H422 C418 0.950 1_545 S
C423 C421 1.390 . S
C423 C424 1.387 . S
C423 H426 0.950 . S
C424 C423 1.387 . S
C424 C427 1.387 . S
H425 C421 0.950 . S
H426 C423 0.950 . S
C427 C418 1.390 . S
C427 H420 0.950 1_565 S
C427 C424 1.387 . S
C428 C429 1.387 . S
C428 H432 0.950 . S
C428 C437 1.390 . S
C429 C428 1.387 . S
C429 C431 1.387 . S
H430 C437 0.950 . S
C431 C429 1.387 . S
C431 C433 1.390 . S
C431 H435 0.950 . S
H432 C428 0.950 . S
C433 C431 1.390 . S
C433 C434 1.387 . S
C433 H436 0.950 . S
C434 C433 1.387 . S
C434 C437 1.387 . S
H435 C431 0.950 . S
H436 C433 0.950 . S
C437 C428 1.390 . S
C437 H430 0.950 . S
C437 C434 1.387 . S
C438 C439 1.387 . S
C438 H442 0.950 . S
C438 C447 1.390 . S
C439 C438 1.387 . S
C439 C441 1.387 . S
H440 C447 0.950 . S
C441 C439 1.387 . S
C441 C443 1.390 . S
C441 H445 0.950 . S
H442 C438 0.950 . S
C443 C441 1.390 . S
C443 C444 1.387 . S
C443 H446 0.950 . S
C444 C443 1.387 . S
C444 C447 1.387 . S
H445 C441 0.950 . S
H446 C443 0.950 . S
C447 C438 1.390 . S
C447 H440 0.950 . S
C447 C444 1.387 . S
C448 C449 1.387 1_655 S
C448 H452 0.950 . S
C448 C457 1.390 . S
C449 C448 1.387 1_455 S
C449 C451 1.387 1_554 S
H450 C457 0.950 . S
C451 C449 1.387 1_556 S
C451 C453 1.390 . S
C451 H455 0.950 . S
H452 C448 0.950 . S
C453 C451 1.390 . S
C453 C454 1.387 1_455 S
C453 H456 0.950 . S
C454 C453 1.387 1_655 S
C454 C457 1.387 1_556 S
H455 C451 0.950 . S
H456 C453 0.950 . S
C457 C448 1.390 . S
C457 H450 0.950 . S
C457 C454 1.387 1_554 S
C458 C459 1.387 1_554 S
C458 H462 0.950 . S
C458 C467 1.390 1_455 S
C459 C458 1.387 1_556 S
C459 C461 1.387 1_565 S
H460 C467 0.950 . S
C461 C459 1.387 1_545 S
C461 C463 1.390 1_455 S
C461 H465 0.950 . S
H462 C458 0.950 . S
C463 C461 1.390 1_655 S
C463 C464 1.387 1_556 S
C463 H466 0.950 . S
C464 C463 1.387 1_554 S
C464 C467 1.387 1_545 S
H465 C461 0.950 . S
H466 C463 0.950 . S
C467 C458 1.390 1_655 S
C467 H460 0.950 . S
C467 C464 1.387 1_565 S
C468 C469 1.387 . S
C468 H472 0.950 . S
C468 C477 1.390 1_565 S
C469 C468 1.387 . S
C469 C471 1.387 1_554 S
H470 C477 0.950 . S
C471 C469 1.387 1_556 S
C471 C473 1.390 1_565 S
C471 H475 0.950 . S
H472 C468 0.950 . S
C473 C471 1.390 1_545 S
C473 C474 1.387 . S
C473 H476 0.950 . S
C474 C473 1.387 . S
C474 C477 1.387 1_556 S
H475 C471 0.950 . S
H476 C473 0.950 . S
C477 C468 1.390 1_545 S
C477 H470 0.950 . S
C477 C474 1.387 1_554 S
C478 C479 1.387 . S
C478 H482 0.950 . S
C478 C487 1.390 1_556 S
C479 C478 1.387 . S
C479 C481 1.387 . S
H480 C487 0.950 . S
C481 C479 1.387 . S
C481 C483 1.390 1_556 S
C481 H485 0.950 . S
H482 C478 0.950 . S
C483 C481 1.390 1_554 S
C483 C484 1.387 . S
C483 H486 0.950 . S
C484 C483 1.387 . S
C484 C487 1.387 . S
H485 C481 0.950 . S
H486 C483 0.950 . S
C487 C478 1.390 1_554 S
C487 H480 0.950 . S
C487 C484 1.387 . S
C488 C489 1.387 . S
C488 H492 0.950 . S
C488 C497 1.390 1_565 S
C489 C488 1.387 . S
C489 C491 1.387 1_455 S
H490 C497 0.950 . S
C491 C489 1.387 1_655 S
C491 C493 1.390 1_565 S
C491 H495 0.950 . S
H492 C488 0.950 . S
C493 C491 1.390 1_545 S
C493 C494 1.387 . S
C493 H496 0.950 . S
C494 C493 1.387 . S
C494 C497 1.387 1_655 S
H495 C491 0.950 . S
H496 C493 0.950 . S
C497 C488 1.390 1_545 S
C497 H490 0.950 . S
C497 C494 1.387 1_455 S
C498 C499 1.387 1_565 S
C498 H502 0.950 . S
C498 C507 1.390 . S
C499 C498 1.387 1_545 S
C499 C501 1.387 . S
H500 C507 0.950 . S
C501 C499 1.387 . S
C501 C503 1.390 . S
C501 H505 0.950 . S
H502 C498 0.950 . S
C503 C501 1.390 . S
C503 C504 1.387 1_545 S
C503 H506 0.950 . S
C504 C503 1.387 1_565 S
C504 C507 1.387 . S
H505 C501 0.950 . S
H506 C503 0.950 . S
C507 C498 1.390 . S
C507 H500 0.950 . S
C507 C504 1.387 . S
C508 C509 1.387 . S
C508 H512 0.950 . S
C508 C517 1.390 . S
C509 C508 1.387 . S
C509 C511 1.387 . S
H510 C517 0.950 . S
C511 C509 1.387 . S
C511 C513 1.390 . S
C511 H515 0.950 . S
H512 C508 0.950 . S
C513 C511 1.390 . S
C513 C514 1.387 . S
C513 H516 0.950 . S
C514 C513 1.387 . S
C514 C517 1.387 . S
H515 C511 0.950 . S
H516 C513 0.950 . S
C517 C508 1.390 . S
C517 H510 0.950 . S
C517 C514 1.387 . S
C518 C519 1.387 . S
C518 H522 0.950 . S
C518 C527 1.390 1_655 S
C519 C518 1.387 . S
C519 C521 1.387 . S
H520 C527 0.950 . S
C521 C519 1.387 . S
C521 C523 1.390 1_655 S
C521 H525 0.950 . S
H522 C518 0.950 . S
C523 C521 1.390 1_455 S
C523 C524 1.387 . S
C523 H526 0.950 . S
C524 C523 1.387 . S
C524 C527 1.387 . S
H525 C521 0.950 . S
H526 C523 0.950 . S
C527 C518 1.390 1_455 S
C527 H520 0.950 . S
C527 C524 1.387 . S
C209 C3 2.179 . S
C214 C29 2.179 . S
C219 C16 2.179 . S
C224 C42 2.179 . S
C229 C55 2.179 . S
C234 C81 2.179 . S
C239 C94 2.180 . S
C244 C68 2.180 . S
C249 C109 2.179 . S
C254 C135 2.179 . S
C259 C148 2.180 . S
C264 C122 2.180 . S
C269 C187 2.179 . S
C274 C161 2.179 . S
C279 C200 2.179 . S
C284 C174 2.179 . S
C289 C92 1.975 . S
C294 C1 1.975 . S
C299 C14 1.976 . S
C304 C53 1.976 . S
C309 C66 1.975 . S
C314 C27 1.975 . S
C319 C40 1.975 . S
C324 C79 1.975 . S
C329 C205 1.976 . S
C334 C114 1.976 . S
C339 C127 1.975 . S
C344 C166 1.975 . S
C349 C140 1.975 . S
C354 C179 1.975 . S
C359 C192 1.978 . S
C364 C153 1.978 . S
C369 C10 0.800 . S
C374 C62 0.800 . S
C379 C23 0.800 . S
C384 C75 0.800 . S
C389 C88 0.805 . S
C394 C36 0.805 . S
C399 C49 0.805 . S
C404 C101 0.805 . S
C409 C157 0.800 . S
C414 C105 0.800 . S
C419 C170 0.800 . S
C424 C118 0.800 . S
C429 C131 0.800 . S
C434 C183 0.800 . S
C439 C144 0.800 . S
C444 C196 0.800 . S
C449 C5 1.789 . S
C454 C107 1.789 . S
C459 C120 1.789 . S
C464 C18 1.789 . S
C469 C31 1.788 . S
C474 C133 1.788 . S
C479 C146 1.788 . S
C484 C44 1.788 . S
C489 C57 1.789 . S
C494 C159 1.789 . S
C499 C70 1.789 . S
C504 C172 1.789 . S
C509 C185 1.789 . S
C514 C83 1.789 . S
C519 C96 1.788 . S
C524 C198 1.788 . S
