# Generated by pormake.
# Topology vbn, (6)-cn, num edge types: 1
# Building blocks:
#     Node 0, Type 0, BuildingBlock: VOLQOD_clean_sbu_1, # of connection points: 6
#     Node 1, Type 0, BuildingBlock: VOLQOD_clean_sbu_1, # of connection points: 6
#     Node 2, Type 0, BuildingBlock: VOLQOD_clean_sbu_1, # of connection points: 6
#     Node 3, Type 0, BuildingBlock: VOLQOD_clean_sbu_1, # of connection points: 6
#     Node 4, Type 0, BuildingBlock: VOLQOD_clean_sbu_1, # of connection points: 6
#     Node 5, Type 0, BuildingBlock: VOLQOD_clean_sbu_1, # of connection points: 6
#     Node 6, Type 0, BuildingBlock: VOLQOD_clean_sbu_1, # of connection points: 6
#     Node 7, Type 0, BuildingBlock: VOLQOD_clean_sbu_1, # of connection points: 6
#     Edge 8, Type (0, 0), BuildingBlock: ZUJKAS_clean_linker_0, # of connection points: 2
#     Edge 9, Type (0, 0), BuildingBlock: ZUJKAS_clean_linker_0, # of connection points: 2
#     Edge 10, Type (0, 0), BuildingBlock: ZUJKAS_clean_linker_0, # of connection points: 2
#     Edge 11, Type (0, 0), BuildingBlock: ZUJKAS_clean_linker_0, # of connection points: 2
#     Edge 12, Type (0, 0), BuildingBlock: ZUJKAS_clean_linker_0, # of connection points: 2
#     Edge 13, Type (0, 0), BuildingBlock: ZUJKAS_clean_linker_0, # of connection points: 2
#     Edge 14, Type (0, 0), BuildingBlock: ZUJKAS_clean_linker_0, # of connection points: 2
#     Edge 15, Type (0, 0), BuildingBlock: ZUJKAS_clean_linker_0, # of connection points: 2
#     Edge 16, Type (0, 0), BuildingBlock: ZUJKAS_clean_linker_0, # of connection points: 2
#     Edge 17, Type (0, 0), BuildingBlock: ZUJKAS_clean_linker_0, # of connection points: 2
#     Edge 18, Type (0, 0), BuildingBlock: ZUJKAS_clean_linker_0, # of connection points: 2
#     Edge 19, Type (0, 0), BuildingBlock: ZUJKAS_clean_linker_0, # of connection points: 2
#     Edge 20, Type (0, 0), BuildingBlock: ZUJKAS_clean_linker_0, # of connection points: 2
#     Edge 21, Type (0, 0), BuildingBlock: ZUJKAS_clean_linker_0, # of connection points: 2
#     Edge 22, Type (0, 0), BuildingBlock: ZUJKAS_clean_linker_0, # of connection points: 2
#     Edge 23, Type (0, 0), BuildingBlock: ZUJKAS_clean_linker_0, # of connection points: 2
#     Edge 24, Type (0, 0), BuildingBlock: ZUJKAS_clean_linker_0, # of connection points: 2
#     Edge 25, Type (0, 0), BuildingBlock: ZUJKAS_clean_linker_0, # of connection points: 2
#     Edge 26, Type (0, 0), BuildingBlock: ZUJKAS_clean_linker_0, # of connection points: 2
#     Edge 27, Type (0, 0), BuildingBlock: ZUJKAS_clean_linker_0, # of connection points: 2
#     Edge 28, Type (0, 0), BuildingBlock: ZUJKAS_clean_linker_0, # of connection points: 2
#     Edge 29, Type (0, 0), BuildingBlock: ZUJKAS_clean_linker_0, # of connection points: 2
#     Edge 30, Type (0, 0), BuildingBlock: ZUJKAS_clean_linker_0, # of connection points: 2
#     Edge 31, Type (0, 0), BuildingBlock: ZUJKAS_clean_linker_0, # of connection points: 2
# Relax obj value: 0.302
# Max RMSD: 0.245
# Mean RMSD: 0.245
data_MOF--net-vbn--node1-VOLQOD_clean_sbu_1--edge1-ZUJKAS_clean_linker_0
_symmetry_space_group_name_H-M    P1
_symmetry_Int_Tables_number       1
_symmetry_cell_setting            triclinic
loop_
_symmetry_equiv_pos_as_xyz
'x, y, z'
_cell_length_a     34.470562
_cell_length_b     37.132196
_cell_length_c     62.092212
_cell_angle_alpha  90.0399
_cell_angle_beta   90.043632
_cell_angle_gamma 90.02542
loop_
_atom_site_label
_atom_site_type_symbol
_atom_site_fract_x
_atom_site_fract_y
_atom_site_fract_z
_atom_type_partial_charge
O0 O 0.39114 0.33789 0.43951 0.0
Zn1 Zn 0.36937 0.29029 0.43006 0.0
O2 O 0.36629 0.28825 0.39877 0.0
Zn3 Zn 0.31242 0.28285 0.38938 0.0
Zn4 Zn 0.38914 0.33154 0.38681 0.0
Zn5 Zn 0.39667 0.24804 0.38859 0.0
O6 O 0.3044 0.23431 0.37449 0.0
O7 O 0.3619 0.20817 0.37922 0.0
O8 O 0.3166 0.28468 0.44389 0.0
O9 O 0.27773 0.28225 0.41536 0.0
O10 O 0.29488 0.32624 0.37152 0.0
O11 O 0.3477 0.36056 0.37316 0.0
O12 O 0.42628 0.32099 0.36284 0.0
O13 O 0.40825 0.25432 0.44137 0.0
O14 O 0.4274 0.26137 0.36245 0.0
O15 O 0.43329 0.2309 0.41154 0.0
C16 C 0.40982 0.36273 0.42992 0.0
C17 C 0.3267 0.20692 0.37304 0.0
C18 C 0.31271 0.35559 0.3674 0.0
C19 C 0.28274 0.28275 0.43569 0.0
C20 C 0.43725 0.29149 0.3544 0.0
C21 C 0.43337 0.23467 0.43194 0.0
O22 O 0.4139 0.36261 0.40953 0.0
O23 O 0.10791 0.16392 0.94047 0.0
Zn24 Zn 0.12843 0.21124 0.92972 0.0
O25 O 0.12853 0.21209 0.89836 0.0
Zn26 Zn 0.18106 0.21888 0.88708 0.0
Zn27 Zn 0.10617 0.16774 0.88768 0.0
Zn28 Zn 0.09561 0.25071 0.88867 0.0
O29 O 0.18585 0.26769 0.87173 0.0
O30 O 0.12789 0.29155 0.87842 0.0
O31 O 0.18253 0.21771 0.94171 0.0
O32 O 0.21836 0.22067 0.912 0.0
O33 O 0.19806 0.17514 0.86912 0.0
O34 O 0.1476 0.13871 0.87407 0.0
O35 O 0.06748 0.17617 0.86414 0.0
O36 O 0.09017 0.24721 0.94182 0.0
O37 O 0.06336 0.23565 0.86338 0.0
O38 O 0.06057 0.26732 0.91242 0.0
C39 C 0.08847 0.13874 0.93166 0.0
C40 C 0.16227 0.29428 0.87113 0.0
C41 C 0.18146 0.14458 0.86675 0.0
C42 C 0.21545 0.22021 0.93246 0.0
C43 C 0.05446 0.20495 0.85574 0.0
C44 C 0.06306 0.26512 0.93284 0.0
O45 O 0.08296 0.13794 0.91138 0.0
O46 O 0.88848 0.16186 0.55089 0.0
Zn47 Zn 0.86812 0.20997 0.56012 0.0
O48 O 0.8638 0.21168 0.59137 0.0
Zn49 Zn 0.81031 0.22098 0.59996 0.0
Zn50 Zn 0.8817 0.16647 0.60356 0.0
Zn51 Zn 0.89679 0.24972 0.60215 0.0
O52 O 0.80554 0.2692 0.61535 0.0
O53 O 0.86475 0.29195 0.61118 0.0
O54 O 0.81623 0.21724 0.54555 0.0
O55 O 0.77696 0.2242 0.57358 0.0
O56 O 0.78784 0.17881 0.61676 0.0
O57 O 0.83669 0.13962 0.61565 0.0
O58 O 0.91765 0.1744 0.62849 0.0
O59 O 0.90876 0.24478 0.54938 0.0
O60 O 0.92545 0.23366 0.62855 0.0
O61 O 0.93529 0.26507 0.57966 0.0
C62 C 0.90459 0.1357 0.56065 0.0
C63 C 0.82955 0.29527 0.61708 0.0
C64 C 0.8021 0.14784 0.62074 0.0
C65 C 0.78243 0.2221 0.55335 0.0
C66 C 0.9315 0.20289 0.6369 0.0
C67 C 0.93516 0.26241 0.5592 0.0
O68 O 0.90651 0.13474 0.58113 0.0
O69 O 0.60774 0.34364 0.05136 0.0
Zn70 Zn 0.62878 0.29554 0.06033 0.0
O71 O 0.62964 0.29184 0.09159 0.0
Zn72 Zn 0.6827 0.28558 0.10209 0.0
Zn73 Zn 0.60647 0.33468 0.10388 0.0
Zn74 Zn 0.59813 0.25141 0.10029 0.0
O75 O 0.68897 0.23649 0.11657 0.0
O76 O 0.63194 0.2108 0.10961 0.0
O77 O 0.68247 0.29033 0.0476 0.0
O78 O 0.71918 0.28557 0.07689 0.0
O79 O 0.69966 0.32836 0.1207 0.0
O80 O 0.64738 0.36324 0.11841 0.0
O81 O 0.56832 0.32319 0.12714 0.0
O82 O 0.59047 0.26045 0.04741 0.0
O83 O 0.56586 0.26363 0.1261 0.0
O84 O 0.56294 0.23587 0.0762 0.0
C85 C 0.58809 0.36773 0.06104 0.0
C86 C 0.66647 0.2091 0.11684 0.0
C87 C 0.68197 0.35783 0.12473 0.0
C88 C 0.71567 0.28738 0.0565 0.0
C89 C 0.55626 0.29341 0.13469 0.0
C90 C 0.56441 0.24065 0.0559 0.0
O91 O 0.58259 0.36647 0.0813 0.0
O92 O 0.60443 0.66411 0.55026 0.0
Zn93 Zn 0.62517 0.71159 0.56065 0.0
O94 O 0.62677 0.71248 0.59206 0.0
Zn95 Zn 0.68014 0.71833 0.60208 0.0
Zn96 Zn 0.60475 0.66816 0.60317 0.0
Zn97 Zn 0.59511 0.7518 0.60257 0.0
O98 O 0.68719 0.76685 0.61682 0.0
O99 O 0.6287 0.79178 0.6134 0.0
O100 O 0.67851 0.71819 0.54749 0.0
O101 O 0.71575 0.71941 0.57668 0.0
O102 O 0.69786 0.67533 0.6201 0.0
O103 O 0.64629 0.63965 0.61721 0.0
O104 O 0.56586 0.67691 0.62654 0.0
O105 O 0.58628 0.74757 0.54938 0.0
O106 O 0.56284 0.73644 0.62776 0.0
O107 O 0.55963 0.76964 0.57917 0.0
C108 C 0.58636 0.63837 0.55933 0.0
C109 C 0.66412 0.79347 0.61913 0.0
C110 C 0.68076 0.64542 0.62365 0.0
C111 C 0.7119 0.71975 0.5563 0.0
C112 C 0.55335 0.70574 0.63513 0.0
C113 C 0.56054 0.76665 0.55872 0.0
O114 O 0.58198 0.6374 0.57969 0.0
O115 O 0.88801 0.84336 0.05199 0.0
Zn116 Zn 0.86707 0.79509 0.06068 0.0
O117 O 0.86523 0.79133 0.09191 0.0
Zn118 Zn 0.81198 0.78438 0.10185 0.0
Zn119 Zn 0.88746 0.83438 0.10449 0.0
Zn120 Zn 0.89679 0.75116 0.10089 0.0
O121 O 0.80612 0.73564 0.11684 0.0
O122 O 0.86302 0.71011 0.10955 0.0
O123 O 0.81388 0.78931 0.04738 0.0
O124 O 0.77633 0.78317 0.07622 0.0
O125 O 0.79364 0.82739 0.11975 0.0
O126 O 0.84555 0.8629 0.11817 0.0
O127 O 0.92453 0.8231 0.12838 0.0
O128 O 0.90604 0.76031 0.04817 0.0
O129 O 0.92789 0.76357 0.12718 0.0
O130 O 0.93306 0.73611 0.07722 0.0
C131 C 0.90741 0.86743 0.06187 0.0
C132 C 0.82858 0.70824 0.11688 0.0
C133 C 0.81067 0.85717 0.12387 0.0
C134 C 0.78048 0.78538 0.05587 0.0
C135 C 0.93669 0.79341 0.13601 0.0
C136 C 0.93209 0.74081 0.05691 0.0
O137 O 0.91235 0.86611 0.08219 0.0
O138 O 0.10387 0.83787 0.44047 0.0
Zn139 Zn 0.12597 0.79058 0.4309 0.0
O140 O 0.12749 0.7884 0.39963 0.0
Zn141 Zn 0.18067 0.7822 0.38944 0.0
Zn142 Zn 0.10473 0.83178 0.38778 0.0
Zn143 Zn 0.09612 0.74843 0.39018 0.0
O144 O 0.18708 0.73348 0.37448 0.0
O145 O 0.13007 0.70774 0.38125 0.0
O146 O 0.17945 0.78584 0.44395 0.0
O147 O 0.21677 0.7818 0.41489 0.0
O148 O 0.19798 0.82541 0.37145 0.0
O149 O 0.14626 0.86095 0.37419 0.0
O150 O 0.06741 0.82108 0.36385 0.0
O151 O 0.08807 0.75444 0.44301 0.0
O152 O 0.06511 0.76147 0.36403 0.0
O153 O 0.05985 0.7326 0.41361 0.0
C154 C 0.08453 0.86248 0.43107 0.0
C155 C 0.16467 0.70602 0.37415 0.0
C156 C 0.18084 0.85533 0.36792 0.0
C157 C 0.21285 0.78332 0.43527 0.0
C158 C 0.05577 0.79154 0.35572 0.0
C159 C 0.06151 0.73583 0.43402 0.0
O160 O 0.07994 0.86247 0.41071 0.0
O161 O 0.38864 0.66599 0.94058 0.0
Zn162 Zn 0.36735 0.713 0.9298 0.0
O163 O 0.36626 0.71337 0.89848 0.0
Zn164 Zn 0.31341 0.71949 0.88755 0.0
Zn165 Zn 0.38858 0.66909 0.88788 0.0
Zn166 Zn 0.39865 0.75198 0.88831 0.0
O167 O 0.30781 0.76814 0.87211 0.0
O168 O 0.36569 0.79261 0.87842 0.0
O169 O 0.31356 0.71921 0.94223 0.0
O170 O 0.27689 0.72132 0.91278 0.0
O171 O 0.29618 0.67528 0.86997 0.0
O172 O 0.34677 0.63925 0.87533 0.0
O173 O 0.4255 0.67737 0.8635 0.0
O174 O 0.40575 0.74941 0.94135 0.0
O175 O 0.42943 0.73686 0.8625 0.0
O176 O 0.43483 0.76868 0.9116 0.0
C177 C 0.40833 0.64104 0.93174 0.0
C178 C 0.3311 0.79496 0.87135 0.0
C179 C 0.31277 0.64464 0.86807 0.0
C180 C 0.28037 0.72123 0.93322 0.0
C181 C 0.43781 0.70613 0.85474 0.0
C182 C 0.43282 0.76693 0.93206 0.0
O183 O 0.4134 0.64014 0.91143 0.0
H184 H 0.25808 0.87121 0.37183 0.0
H185 H 0.2879 0.93032 0.3654 0.0
H186 H 0.1809 0.9686 0.33772 0.0
H187 H 0.15089 0.90999 0.34422 0.0
H188 H 0.2611 0.9943 0.31822 0.0
H189 H 0.23447 0.01225 0.40617 0.0
H190 H 0.25881 0.9719 0.39741 0.0
H191 H 0.20889 0.97889 0.39046 0.0
C192 C 0.24143 0.89179 0.36363 0.0
C193 C 0.20209 0.88621 0.35872 0.0
C194 C 0.25842 0.92553 0.36004 0.0
C195 C 0.23638 0.95373 0.35126 0.0
C196 C 0.19831 0.9471 0.34448 0.0
H197 H 0.25107 0.18405 0.37149 0.0
H198 H 0.22802 0.12304 0.36317 0.0
C199 C 0.18122 0.91365 0.34827 0.0
C200 C 0.25039 0.99128 0.35231 0.0
H201 H 0.26079 0.06136 0.38742 0.0
C202 C 0.26137 0.00899 0.33332 0.0
C203 C 0.24985 0.01036 0.37201 0.0
C204 C 0.23722 0.99264 0.39273 0.0
C205 C 0.27237 0.04547 0.33364 0.0
C206 C 0.27206 0.06441 0.35339 0.0
C207 C 0.26077 0.0467 0.3723 0.0
C208 C 0.28486 0.10229 0.35518 0.0
C209 C 0.28376 0.06373 0.31291 0.0
C210 C 0.32428 0.11073 0.35315 0.0
C211 C 0.33752 0.14528 0.35809 0.0
C212 C 0.31154 0.17209 0.36507 0.0
C213 C 0.27174 0.16403 0.36607 0.0
C214 C 0.25856 0.12925 0.36136 0.0
H215 H 0.27566 0.04747 0.29857 0.0
H216 H 0.2698 0.09061 0.3117 0.0
H217 H 0.31565 0.06785 0.31273 0.0
H218 H 0.34505 0.09016 0.34868 0.0
H219 H 0.36835 0.15068 0.35704 0.0
H220 H 0.11645 0.35209 0.86217 0.0
H221 H 0.13666 0.4132 0.85352 0.0
H222 H 0.2563 0.37943 0.85319 0.0
H223 H 0.23631 0.31767 0.86188 0.0
H224 H 0.18557 0.45195 0.88159 0.0
H225 H 0.24655 0.4447 0.79898 0.0
H226 H 0.21392 0.41098 0.8096 0.0
H227 H 0.26411 0.41107 0.81739 0.0
C228 C 0.1471 0.35736 0.85996 0.0
C229 C 0.17483 0.32995 0.86294 0.0
C230 C 0.15853 0.39238 0.85493 0.0
C231 C 0.19789 0.40082 0.8526 0.0
C232 C 0.22568 0.37332 0.85459 0.0
H233 H 0.34459 0.58202 0.85407 0.0
H234 H 0.31152 0.52553 0.84692 0.0
C235 C 0.21424 0.33808 0.85964 0.0
C236 C 0.20982 0.43902 0.85063 0.0
H237 H 0.25906 0.49842 0.81885 0.0
C238 C 0.2012 0.46232 0.86776 0.0
C239 C 0.23016 0.4523 0.83256 0.0
C240 C 0.23902 0.42861 0.81346 0.0
C241 C 0.21396 0.49819 0.86783 0.0
C242 C 0.23503 0.51145 0.84993 0.0
C243 C 0.2426 0.48837 0.83246 0.0
C244 C 0.25374 0.54747 0.85042 0.0
C245 C 0.20664 0.52084 0.88762 0.0
C246 C 0.23223 0.57921 0.85371 0.0
C247 C 0.25121 0.61185 0.85809 0.0
C248 C 0.29194 0.61312 0.85905 0.0
C249 C 0.31316 0.58192 0.85383 0.0
C250 C 0.29428 0.54952 0.8496 0.0
H251 H 0.19715 0.5043 0.90157 0.0
H252 H 0.23316 0.53589 0.89233 0.0
H253 H 0.18339 0.54065 0.88412 0.0
H254 H 0.20083 0.57841 0.85387 0.0
H255 H 0.23406 0.63544 0.86189 0.0
H256 H 0.75828 0.62973 0.62084 0.0
H257 H 0.78783 0.57064 0.62776 0.0
H258 H 0.67979 0.53254 0.65421 0.0
H259 H 0.65008 0.59107 0.64724 0.0
H260 H 0.78693 0.51543 0.66778 0.0
H261 H 0.70458 0.47905 0.59363 0.0
H262 H 0.71677 0.52505 0.60021 0.0
H263 H 0.6785 0.50256 0.61442 0.0
C264 C 0.74134 0.60919 0.62889 0.0
C265 C 0.70179 0.61475 0.63324 0.0
C266 C 0.7582 0.57548 0.63279 0.0
C267 C 0.73575 0.5473 0.64125 0.0
C268 C 0.69745 0.55399 0.64758 0.0
H269 H 0.75594 0.31531 0.62901 0.0
H270 H 0.73352 0.37583 0.63844 0.0
C271 C 0.68055 0.5874 0.64355 0.0
C272 C 0.74972 0.50977 0.64016 0.0
H273 H 0.7386 0.43264 0.61096 0.0
C274 C 0.77651 0.49722 0.6554 0.0
C275 C 0.73579 0.48624 0.624 0.0
C276 C 0.7075 0.49876 0.607 0.0
C277 C 0.78954 0.46133 0.65496 0.0
C278 C 0.7758 0.43786 0.63866 0.0
C279 C 0.74886 0.45056 0.62353 0.0
C280 C 0.79025 0.40052 0.63606 0.0
C281 C 0.8174 0.44874 0.67211 0.0
C282 C 0.8296 0.39428 0.6318 0.0
C283 C 0.84249 0.3598 0.62643 0.0
C284 C 0.8162 0.33085 0.62499 0.0
C285 C 0.77695 0.33695 0.62994 0.0
C286 C 0.7641 0.37151 0.63536 0.0
H287 H 0.81572 0.46588 0.68676 0.0
H288 H 0.81156 0.42036 0.67673 0.0
H289 H 0.84746 0.4504 0.66581 0.0
H290 H 0.85014 0.41636 0.63173 0.0
H291 H 0.87293 0.35616 0.62272 0.0
H292 H 0.62298 0.15112 0.12863 0.0
H293 H 0.64559 0.09065 0.13736 0.0
H294 H 0.76421 0.12613 0.13145 0.0
H295 H 0.74181 0.18709 0.12262 0.0
H296 H 0.7423 0.06576 0.10521 0.0
H297 H 0.70026 0.04608 0.19077 0.0
H298 H 0.66303 0.06434 0.17367 0.0
H299 H 0.70611 0.09015 0.17884 0.0
C300 C 0.65394 0.1463 0.12951 0.0
C301 C 0.68064 0.17389 0.12478 0.0
C302 C 0.66677 0.11174 0.13469 0.0
C303 C 0.70652 0.10404 0.13525 0.0
C304 C 0.73336 0.13171 0.13126 0.0
H305 H 0.83949 0.91086 0.14882 0.0
H306 H 0.80978 0.96967 0.15509 0.0
C307 C 0.72054 0.16649 0.12624 0.0
C308 C 0.71968 0.0663 0.1375 0.0
H309 H 0.71966 0.99368 0.17134 0.0
C310 C 0.73755 0.05007 0.1197 0.0
C311 C 0.71315 0.04592 0.1564 0.0
C312 C 0.69486 0.06248 0.17611 0.0
C313 C 0.7487 0.01381 0.12019 0.0
C314 C 0.74181 0.99331 0.13896 0.0
C315 C 0.72435 0.0095 0.1569 0.0
C316 C 0.75513 0.95561 0.14025 0.0
C317 C 0.76795 0.99749 0.10066 0.0
C318 C 0.73338 0.92784 0.13075 0.0
C319 C 0.75018 0.89399 0.12728 0.0
C320 C 0.78907 0.88789 0.13301 0.0
C321 C 0.8095 0.9149 0.14416 0.0
C322 C 0.79259 0.94847 0.14781 0.0
H323 H 0.77238 0.01746 0.08757 0.0
H324 H 0.79655 0.98601 0.10521 0.0
H325 H 0.74983 0.97512 0.09436 0.0
H326 H 0.70444 0.9331 0.1247 0.0
H327 H 0.73392 0.87377 0.11851 0.0
H328 H 0.80446 0.1135 0.65941 0.0
H329 H 0.77416 0.05532 0.6678 0.0
H330 H 0.7182 0.05578 0.60554 0.0
H331 H 0.74587 0.11503 0.59807 0.0
H332 H 0.67381 0.02363 0.6318 0.0
H333 H 0.82143 0.96757 0.64407 0.0
H334 H 0.80862 0.00097 0.66363 0.0
H335 H 0.8136 0.01336 0.6357 0.0
C336 C 0.78444 0.10161 0.64798 0.0
C337 C 0.77703 0.11856 0.62823 0.0
C338 C 0.76773 0.06813 0.65256 0.0
C339 C 0.74507 0.0504 0.63697 0.0
C340 C 0.73573 0.06866 0.61782 0.0
H341 H 0.73126 0.82648 0.60764 0.0
H342 H 0.74985 0.8888 0.61518 0.0
C343 C 0.75137 0.10259 0.61356 0.0
C344 C 0.73337 0.01204 0.63955 0.0
H345 H 0.76938 0.92725 0.64714 0.0
C346 C 0.6947 0.00255 0.63523 0.0
C347 C 0.76074 0.98438 0.64375 0.0
C348 C 0.80345 0.99197 0.64684 0.0
C349 C 0.68296 0.9664 0.634 0.0
C350 C 0.71019 0.93878 0.63853 0.0
C351 C 0.74845 0.94833 0.6438 0.0
C352 C 0.70069 0.89989 0.63594 0.0
C353 C 0.64212 0.95844 0.62653 0.0
C354 C 0.66776 0.88476 0.64572 0.0
C355 C 0.65651 0.84951 0.64083 0.0
C356 C 0.679 0.82828 0.6269 0.0
C357 C 0.7136 0.84232 0.61853 0.0
C358 C 0.72414 0.87795 0.62283 0.0
H359 H 0.62917 0.98171 0.61789 0.0
H360 H 0.64136 0.93476 0.61562 0.0
H361 H 0.62358 0.95274 0.64072 0.0
H362 H 0.65005 0.90049 0.6566 0.0
H363 H 0.62986 0.83903 0.64763 0.0
H364 H 0.75583 0.69048 0.13175 0.0
H365 H 0.73243 0.63056 0.14204 0.0
H366 H 0.84586 0.58625 0.12963 0.0
H367 H 0.86961 0.64562 0.11983 0.0
H368 H 0.73008 0.57346 0.11516 0.0
H369 H 0.81981 0.53774 0.18588 0.0
H370 H 0.81592 0.58333 0.17599 0.0
H371 H 0.84873 0.55198 0.16345 0.0
C372 C 0.77595 0.66809 0.13159 0.0
C373 C 0.81455 0.67292 0.12488 0.0
C374 C 0.76256 0.63389 0.1375 0.0
C375 C 0.78758 0.60401 0.13696 0.0
C376 C 0.82629 0.60898 0.13076 0.0
H377 H 0.75868 0.37614 0.12103 0.0
H378 H 0.78622 0.43597 0.1283 0.0
C379 C 0.83969 0.64303 0.12491 0.0
C380 C 0.77242 0.56706 0.14037 0.0
H381 H 0.78887 0.48827 0.1674 0.0
C382 C 0.74251 0.55505 0.12683 0.0
C383 C 0.78892 0.54295 0.15549 0.0
C384 C 0.81987 0.55476 0.17117 0.0
C385 C 0.72953 0.51932 0.12747 0.0
C386 C 0.74659 0.49502 0.14223 0.0
C387 C 0.77603 0.50702 0.15607 0.0
C388 C 0.73401 0.45698 0.14298 0.0
C389 C 0.69838 0.50749 0.11187 0.0
C390 C 0.69645 0.44862 0.14995 0.0
C391 C 0.6807 0.41475 0.14574 0.0
C392 C 0.7024 0.38859 0.13465 0.0
C393 C 0.74142 0.39574 0.1297 0.0
C394 C 0.75711 0.4299 0.13377 0.0
H395 H 0.69339 0.52766 0.09895 0.0
H396 H 0.70619 0.48139 0.10428 0.0
H397 H 0.67073 0.50366 0.12072 0.0
H398 H 0.67836 0.46912 0.15725 0.0
H399 H 0.65063 0.40984 0.14989 0.0
H400 H 0.3439 0.40813 0.34259 0.0
H401 H 0.31595 0.46732 0.33539 0.0
H402 H 0.20823 0.43364 0.36427 0.0
H403 H 0.23601 0.37389 0.37145 0.0
H404 H 0.20672 0.48592 0.32429 0.0
H405 H 0.29876 0.52578 0.39416 0.0
H406 H 0.32211 0.50119 0.37284 0.0
H407 H 0.28572 0.47951 0.38891 0.0
C408 C 0.31383 0.41292 0.34681 0.0
C409 C 0.29223 0.38661 0.35783 0.0
C410 C 0.29796 0.44672 0.34266 0.0
C411 C 0.26033 0.45486 0.34959 0.0
C412 C 0.23738 0.4277 0.35881 0.0
H413 H 0.12359 0.64356 0.3703 0.0
H414 H 0.14773 0.58414 0.3609 0.0
C415 C 0.25321 0.3936 0.36285 0.0
C416 C 0.24751 0.49281 0.35021 0.0
H417 H 0.26258 0.57137 0.37746 0.0
C418 C 0.2189 0.50472 0.33584 0.0
C419 C 0.26376 0.51717 0.36523 0.0
C420 C 0.29413 0.50542 0.3813 0.0
C421 C 0.20602 0.54065 0.33614 0.0
C422 C 0.2217 0.56485 0.35151 0.0
C423 C 0.25079 0.5529 0.3656 0.0
C424 C 0.20644 0.60182 0.35459 0.0
C425 C 0.17603 0.55239 0.31991 0.0
C426 C 0.23154 0.63167 0.35445 0.0
C427 C 0.21791 0.6659 0.36014 0.0
C428 C 0.17898 0.67078 0.36621 0.0
C429 C 0.15377 0.64092 0.36572 0.0
C430 C 0.16741 0.60685 0.3601 0.0
H431 H 0.1769 0.53527 0.30523 0.0
H432 H 0.14673 0.54967 0.32711 0.0
H433 H 0.18031 0.58092 0.31512 0.0
H434 H 0.2619 0.62829 0.35044 0.0
H435 H 0.23809 0.68826 0.36034 0.0
H436 H 0.2602 0.13371 0.86354 0.0
H437 H 0.29256 0.07643 0.85531 0.0
H438 H 0.18156 0.02786 0.84156 0.0
H439 H 0.14946 0.08465 0.84916 0.0
H440 H 0.27943 0.01809 0.87963 0.0
H441 H 0.24601 0.98242 0.79531 0.0
H442 H 0.24026 0.02763 0.80557 0.0
H443 H 0.20281 0.99444 0.80965 0.0
C444 C 0.24293 0.11116 0.85798 0.0
C445 C 0.20228 0.11361 0.85718 0.0
C446 C 0.2614 0.07841 0.85337 0.0
C447 C 0.23953 0.04784 0.84765 0.0
C448 C 0.19922 0.0511 0.84544 0.0
H449 H 0.25642 0.81841 0.86399 0.0
H450 H 0.23597 0.88018 0.85544 0.0
C451 C 0.18084 0.08363 0.85004 0.0
C452 C 0.25741 0.01146 0.84739 0.0
H453 H 0.26053 0.93238 0.81916 0.0
C454 C 0.27599 0.99962 0.86622 0.0
C455 C 0.25254 0.98717 0.82999 0.0
C456 C 0.23464 0.99872 0.80892 0.0
C457 C 0.28837 0.96387 0.86847 0.0
C458 C 0.28234 0.93934 0.85137 0.0
C459 C 0.26473 0.95124 0.8323 0.0
C460 C 0.29437 0.90124 0.85332 0.0
C461 C 0.30664 0.9522 0.88945 0.0
C462 C 0.33385 0.8926 0.85423 0.0
C463 C 0.34555 0.85762 0.85914 0.0
C464 C 0.31798 0.83045 0.86319 0.0
C465 C 0.27835 0.8387 0.861 0.0
C466 C 0.26663 0.87392 0.85611 0.0
H467 H 0.30288 0.97263 0.90236 0.0
H468 H 0.29391 0.92633 0.89498 0.0
H469 H 0.33818 0.94793 0.88698 0.0
H470 H 0.35564 0.91328 0.8519 0.0
H471 H 0.37634 0.85218 0.86039 0.0
H472 H 0.40876 0.37046 0.47369 0.0
H473 H 0.43881 0.41797 0.49511 0.0
H474 H 0.48091 0.46866 0.4372 0.0
H475 H 0.45129 0.42094 0.41551 0.0
H476 H 0.53721 0.46098 0.46995 0.0
H477 H 0.40164 0.5225 0.50115 0.0
H478 H 0.40505 0.47477 0.50537 0.0
H479 H 0.40218 0.49218 0.47841 0.0
C480 C 0.42422 0.39177 0.46543 0.0
C481 C 0.42748 0.39195 0.44284 0.0
C482 C 0.4412 0.41899 0.47773 0.0
C483 C 0.46152 0.44704 0.46769 0.0
C484 C 0.4651 0.44728 0.4452 0.0
H485 H 0.58866 0.63233 0.51545 0.0
H486 H 0.55932 0.58552 0.49313 0.0
C487 C 0.44813 0.42003 0.43285 0.0
C488 C 0.47999 0.47552 0.48079 0.0
H489 H 0.46063 0.54194 0.51722 0.0
C490 C 0.52052 0.47888 0.48019 0.0
C491 C 0.45803 0.49866 0.49413 0.0
C492 C 0.41429 0.49717 0.49472 0.0
C493 C 0.53981 0.50436 0.49299 0.0
C494 C 0.51785 0.52734 0.50643 0.0
C495 C 0.47732 0.52411 0.50694 0.0
C496 C 0.53632 0.55521 0.51999 0.0
C497 C 0.58355 0.50593 0.4924 0.0
C498 C 0.53246 0.55394 0.54246 0.0
C499 C 0.54903 0.58075 0.5553 0.0
C500 C 0.56954 0.60943 0.54585 0.0
C501 C 0.57325 0.61056 0.52329 0.0
C502 C 0.55668 0.58374 0.51048 0.0
H503 H 0.59626 0.48095 0.48552 0.0
H504 H 0.59273 0.52889 0.48216 0.0
H505 H 0.59564 0.51015 0.50879 0.0
H506 H 0.51664 0.53217 0.55005 0.0
H507 H 0.54554 0.57908 0.5726 0.0
H508 H 0.90392 0.87799 0.01837 0.0
H509 H 0.93545 0.92521 -0.00258 0.0
H510 H 0.98271 0.97097 0.05565 0.0
H511 H 0.95161 0.92354 0.07685 0.0
H512 H 0.9267 1.00064 0.00087 0.0
H513 H 0.07836 0.9569 0.01667 0.0
H514 H 0.03705 0.92831 0.02189 0.0
H515 H 0.04905 0.96408 0.04021 0.0
C516 C 0.92099 0.89805 0.02679 0.0
C517 C 0.92542 0.89685 0.04931 0.0
C518 C 0.93896 0.92502 0.01476 0.0
C519 C 0.96179 0.95117 0.02498 0.0
C520 C 0.96575 0.95056 0.04746 0.0
H521 H 0.09373 0.132 0.97544 0.0
H522 H 0.06251 0.08693 -0.00176 0.0
C523 C 0.94778 0.92356 0.05954 0.0
C524 C 0.98116 0.9792 0.01199 0.0
H525 H 0.07007 0.01083 -0.00304 0.0
C526 C 0.95803 0.0029 -2e-05 0.0
C527 C 0.02203 0.98197 0.01095 0.0
C528 C 0.04819 0.95632 0.02296 0.0
C529 C 0.97473 0.02959 0.98699 0.0
C530 C 0.01559 0.03212 0.98577 0.0
C531 C 0.03873 0.00867 -0.00205 0.0
C532 C 0.03488 0.05888 0.97183 0.0
C533 C 0.94856 0.05516 0.97493 0.0
C534 C 0.03017 0.05751 0.94941 0.0
C535 C 0.04796 0.08319 0.93629 0.0
C536 C 0.07091 0.11059 0.9454 0.0
C537 C 0.07616 0.11136 0.96788 0.0
C538 C 0.05838 0.08565 0.98096 0.0
H539 H 0.91871 0.05539 0.98167 0.0
H540 H 0.9603 0.08301 0.97534 0.0
H541 H 0.94666 0.04656 0.95784 0.0
H542 H 0.01271 0.03658 0.94206 0.0
H543 H 0.04346 0.08169 0.91905 0.0
H544 H 0.94371 0.07614 0.57517 0.0
H545 H 0.97415 0.02894 0.55345 0.0
H546 H 0.93607 0.08195 0.49541 0.0
H547 H 0.90528 0.12899 0.51684 0.0
H548 H 0.92235 0.00653 0.49635 0.0
H549 H 0.07446 0.04151 0.51773 0.0
H550 H 0.04246 0.03432 0.54016 0.0
H551 H 0.03436 0.07178 0.52243 0.0
C552 C 0.94176 0.07776 0.55779 0.0
C553 C 0.92221 0.10646 0.54775 0.0
C554 C 0.95934 0.05088 0.54542 0.0
C555 C 0.95776 0.05234 0.52286 0.0
C556 C 0.93772 0.08051 0.51281 0.0
H557 H 0.04251 0.92074 0.41722 0.0
H558 H 0.01143 0.9669 0.43941 0.0
C559 C 0.92018 0.10738 0.52512 0.0
C560 C 0.97676 0.02442 0.50962 0.0
H561 H 0.06507 0.98924 0.49656 0.0
C562 C 0.95355 0.00273 0.49633 0.0
C563 C 0.01744 0.0197 0.5097 0.0
C564 C 0.04378 0.04321 0.52311 0.0
C565 C 0.96996 0.97595 0.48327 0.0
C566 C 0.01067 0.97133 0.48327 0.0
C567 C 0.03386 0.99297 0.49661 0.0
C568 C 0.0298 0.94382 0.46975 0.0
C569 C 0.94355 0.95238 0.46993 0.0
C570 C 0.05125 0.91622 0.47947 0.0
C571 C 0.06927 0.89001 0.46687 0.0
C572 C 0.06627 0.89099 0.44428 0.0
C573 C 0.0452 0.91906 0.43457 0.0
C574 C 0.02723 0.94534 0.44721 0.0
H575 H 0.9131 0.95337 0.47576 0.0
H576 H 0.94388 0.96188 0.453 0.0
H577 H 0.95353 0.92395 0.47014 0.0
H578 H 0.05371 0.91475 0.49684 0.0
H579 H 0.08529 0.86882 0.47491 0.0
H580 H 0.40502 0.63514 0.97561 0.0
H581 H 0.43555 0.58943 -0.00178 0.0
H582 H 0.48296 0.5381 0.94177 0.0
H583 H 0.45222 0.58345 0.91891 0.0
H584 H 0.44677 0.49058 0.9712 0.0
H585 H 0.55222 0.58141 0.01178 0.0
H586 H 0.50254 0.59588 0.01299 0.0
H587 H 0.52689 0.59393 0.98744 0.0
C588 C 0.42195 0.61418 0.96796 0.0
C589 C 0.42629 0.61304 0.94543 0.0
C590 C 0.43956 0.58822 0.98094 0.0
C591 C 0.46195 0.56082 0.97165 0.0
C592 C 0.46594 0.55924 0.9492 0.0
H593 H 0.5915 0.37745 0.01746 0.0
H594 H 0.56043 0.4246 -0.00377 0.0
C595 C 0.44836 0.58519 0.93619 0.0
C596 C 0.48057 0.53327 0.98533 0.0
H597 H 0.54829 0.52156 0.02483 0.0
C598 C 0.46905 0.49728 0.98288 0.0
C599 C 0.50948 0.54228 0.00058 0.0
C600 C 0.52384 0.58041 0.0033 0.0
C601 C 0.48548 0.46994 -0.00452 0.0
C602 C 0.51459 0.4789 0.01062 0.0
C603 C 0.52592 0.51492 0.01319 0.0
C604 C 0.53416 0.45105 0.02363 0.0
C605 C 0.47119 0.43179 0.99272 0.0
C606 C 0.53052 0.45102 0.04611 0.0
C607 C 0.54837 0.42417 0.05836 0.0
C608 C 0.57037 0.39707 0.04829 0.0
C609 C 0.57461 0.39777 0.02575 0.0
C610 C 0.55673 0.42457 0.01356 0.0
H611 H 0.44252 0.43084 0.98455 0.0
H612 H 0.49219 0.41656 0.9827 0.0
H613 H 0.46876 0.41801 0.00853 0.0
H614 H 0.51339 0.47147 0.05414 0.0
H615 H 0.54465 0.42451 0.07568 0.0
H616 H 0.53483 0.35145 0.1591 0.0
H617 H 0.51339 0.3506 0.19658 0.0
H618 H 0.51024 0.23455 0.1953 0.0
H619 H 0.532 0.23492 0.15786 0.0
H620 H 0.44815 0.31803 0.21824 0.0
H621 H 0.59034 0.26059 0.24304 0.0
H622 H 0.58239 0.2803 0.21683 0.0
H623 H 0.56477 0.23581 0.22259 0.0
C624 C 0.52891 0.32571 0.16662 0.0
C625 C 0.53572 0.29322 0.15558 0.0
C626 C 0.51672 0.32532 0.18804 0.0
C627 C 0.51121 0.29251 0.19873 0.0
C628 C 0.51517 0.26011 0.18735 0.0
H629 H 0.45952 0.23398 0.32981 0.0
H630 H 0.4799 0.23521 0.29217 0.0
C631 C 0.52735 0.26043 0.16593 0.0
C632 C 0.50358 0.29221 0.22209 0.0
H633 H 0.54318 0.2679 0.27033 0.0
C634 C 0.46888 0.30716 0.22967 0.0
C635 C 0.53092 0.27811 0.23684 0.0
C636 C 0.56937 0.26304 0.22952 0.0
C637 C 0.46037 0.30777 0.25174 0.0
C638 C 0.48773 0.29369 0.26651 0.0
C639 C 0.52244 0.27876 0.25891 0.0
C640 C 0.48016 0.29333 0.28988 0.0
C641 C 0.42183 0.32271 0.25904 0.0
C642 C 0.47542 0.32567 0.30124 0.0
C643 C 0.46379 0.32512 0.32276 0.0
C644 C 0.45686 0.29217 0.33325 0.0
C645 C 0.46436 0.25982 0.32219 0.0
C646 C 0.47594 0.26044 0.30067 0.0
H647 H 0.40077 0.32468 0.24553 0.0
H648 H 0.40903 0.30566 0.27189 0.0
H649 H 0.42624 0.35014 0.2657 0.0
H650 H 0.47946 0.35132 0.29324 0.0
H651 H 0.4586 0.35053 0.33084 0.0
H652 H 0.02923 0.26085 0.83078 0.0
H653 H 0.00615 0.2575 0.79365 0.0
H654 H 0.01004 0.14154 0.79631 0.0
H655 H 0.03302 0.14443 0.8335 0.0
H656 H 0.05359 0.22185 0.76139 0.0
H657 H 0.90431 0.16539 0.76675 0.0
H658 H 0.92762 0.18776 0.78915 0.0
H659 H 0.94126 0.14266 0.78205 0.0
C660 C 0.02431 0.23457 0.82369 0.0
C661 C 0.0333 0.20289 0.83506 0.0
C662 C 0.01123 0.23276 0.80246 0.0
C663 C 0.00648 0.19931 0.79234 0.0
C664 C 0.01319 0.16759 0.80397 0.0
H665 H 0.94677 0.14241 0.66063 0.0
H666 H 0.96939 0.13986 0.69791 0.0
C667 C 0.0264 0.16934 0.82521 0.0
C668 C -0.00155 0.19775 0.76903 0.0
H669 H 0.93104 0.17194 0.73193 0.0
C670 C 0.02678 0.21102 0.7549 0.0
C671 C 0.9637 0.18314 0.76076 0.0
C672 C 0.93226 0.1691 0.7754 0.0
C673 C 0.02124 0.21014 0.73256 0.0
C674 C 0.9861 0.19628 0.72425 0.0
C675 C 0.958 0.18249 0.7384 0.0
C676 C 0.97695 0.19746 0.70102 0.0
C677 C 0.05321 0.22365 0.71807 0.0
C678 C 0.97444 0.23066 0.69037 0.0
C679 C 0.96176 0.23225 0.66905 0.0
C680 C 0.95091 0.20064 0.6581 0.0
C681 C 0.9549 0.16726 0.66858 0.0
C682 C 0.96768 0.16573 0.6899 0.0
H683 H 0.08185 0.22288 0.72627 0.0
H684 H 0.05499 0.20748 0.70305 0.0
H685 H 0.04718 0.25203 0.7136 0.0
H686 H 0.98078 0.25552 0.6988 0.0
H687 H 0.95888 0.25841 0.66152 0.0
H688 H 0.45559 0.64557 0.83161 0.0
H689 H 0.47526 0.64283 0.79388 0.0
H690 H 0.48241 0.7587 0.79182 0.0
H691 H 0.46251 0.7619 0.8295 0.0
H692 H 0.43279 0.72628 0.76017 0.0
H693 H 0.57904 0.66313 0.76258 0.0
H694 H 0.54191 0.64069 0.77785 0.0
H695 H 0.55764 0.68487 0.78574 0.0
C696 C 0.46223 0.67048 0.82332 0.0
C697 C 0.45718 0.70399 0.83355 0.0
C698 C 0.47353 0.66881 0.80176 0.0
C699 C 0.48023 0.70056 0.79016 0.0
C700 C 0.47728 0.73393 0.80059 0.0
H701 H 0.52752 0.76155 0.65999 0.0
H702 H 0.50462 0.75825 0.69705 0.0
C703 C 0.46605 0.73566 0.82214 0.0
C704 C 0.48679 0.69922 0.7667 0.0
H705 H 0.55051 0.6711 0.72829 0.0
C706 C 0.45854 0.71428 0.75315 0.0
C707 C 0.52016 0.68312 0.75772 0.0
C708 C 0.55164 0.66723 0.77167 0.0
C709 C 0.46284 0.71379 0.73071 0.0
C710 C 0.4966 0.69837 0.72172 0.0
C711 C 0.52456 0.68277 0.73528 0.0
C712 C 0.50485 0.70001 0.6984 0.0
C713 C 0.43108 0.72945 0.71686 0.0
C714 C 0.5121 0.66832 0.68681 0.0
C715 C 0.52544 0.67007 0.66561 0.0
C716 C 0.53207 0.70363 0.65575 0.0
C717 C 0.52269 0.73527 0.66707 0.0
C718 C 0.50942 0.73346 0.68825 0.0
H719 H 0.40284 0.72987 0.72547 0.0
H720 H 0.43864 0.75763 0.71265 0.0
H721 H 0.4276 0.71395 0.70168 0.0
H722 H 0.50876 0.64225 0.69442 0.0
H723 H 0.53231 0.64517 0.65737 0.0
H724 H 0.9577 0.85157 0.16043 0.0
H725 H 0.9795 0.85103 0.19782 0.0
H726 H 0.98211 0.73494 0.19697 0.0
H727 H 0.95994 0.73504 0.15959 0.0
H728 H 0.93682 0.76537 0.23032 0.0
H729 H 0.08367 0.8267 0.22668 0.0
H730 H 0.04658 0.85169 0.21291 0.0
H731 H 0.05994 0.80774 0.20333 0.0
C732 C 0.96373 0.8259 0.168 0.0
C733 C 0.95682 0.79333 0.15704 0.0
C734 C 0.97631 0.82568 0.18936 0.0
C735 C 0.98248 0.79296 0.20006 0.0
C736 C 0.97749 0.76046 0.18891 0.0
H737 H 0.03281 0.73379 0.3315 0.0
H738 H 0.0111 0.73459 0.29411 0.0
C739 C 0.96495 0.76061 0.16753 0.0
C740 C 0.99057 0.79263 0.22341 0.0
H741 H 0.05554 0.82031 0.26137 0.0
C742 C 0.96288 0.77716 0.23715 0.0
C743 C 0.0244 0.80833 0.23216 0.0
C744 C 0.05556 0.8243 0.21803 0.0
C745 C 0.9679 0.77742 0.25955 0.0
C746 C 0.00177 0.79307 0.26831 0.0
C747 C 0.02946 0.80854 0.25456 0.0
C748 C 0.00992 0.79271 0.29167 0.0
C749 C 0.9366 0.7616 0.27365 0.0
C750 C 0.016 0.82515 0.30273 0.0
C751 C 0.0286 0.82484 0.32409 0.0
C752 C 0.03563 0.79201 0.33469 0.0
C753 C 0.0276 0.75955 0.32385 0.0
C754 C 0.01505 0.75992 0.30248 0.0
H755 H 0.90836 0.75995 0.26507 0.0
H756 H 0.94505 0.7339 0.27842 0.0
H757 H 0.93268 0.77779 0.28854 0.0
H758 H 0.01218 0.85072 0.29459 0.0
H759 H 0.03446 0.85033 0.33194 0.0
H760 H 0.49763 0.19952 0.41678 0.0
H761 H 0.55795 0.18813 0.4363 0.0
H762 H 0.50573 0.22798 0.49471 0.0
H763 H 0.44525 0.23928 0.47546 0.0
H764 H 0.5984 0.24502 0.45567 0.0
H765 H 0.56477 0.13843 0.51524 0.0
H766 H 0.5352 0.14633 0.49167 0.0
H767 H 0.53017 0.17456 0.51505 0.0
C768 C 0.49855 0.20497 0.43391 0.0
C769 C 0.46663 0.22062 0.44451 0.0
C770 C 0.53312 0.1985 0.44501 0.0
C771 C 0.53624 0.20711 0.46694 0.0
C772 C 0.50375 0.22062 0.47786 0.0
H773 H 0.70809 0.24025 0.56376 0.0
H774 H 0.65041 0.23556 0.54118 0.0
C775 C 0.4692 0.22721 0.46678 0.0
C776 C 0.57448 0.20625 0.47777 0.0
H777 H 0.62179 0.17361 0.52188 0.0
C778 C 0.60381 0.22901 0.46997 0.0
C779 C 0.58126 0.18546 0.49643 0.0
C780 C 0.55132 0.15955 0.50501 0.0
C781 C 0.63922 0.23277 0.48091 0.0
C782 C 0.64562 0.21269 0.49991 0.0
C783 C 0.61671 0.18909 0.50734 0.0
C784 C 0.68129 0.217 0.51297 0.0
C785 C 0.66871 0.25938 0.47256 0.0
C786 C 0.71791 0.20849 0.50449 0.0
C787 C 0.75114 0.21145 0.51733 0.0
C788 C 0.74819 0.22256 0.53894 0.0
C789 C 0.71146 0.23157 0.54721 0.0
C790 C 0.6784 0.22879 0.53436 0.0
H791 H 0.65578 0.27847 0.4608 0.0
H792 H 0.68169 0.27507 0.48599 0.0
H793 H 0.69238 0.24455 0.46433 0.0
H794 H 0.72069 0.19878 0.48812 0.0
H795 H 0.77892 0.20398 0.51052 0.0
H796 H 0.05378 0.25958 0.97658 0.0
H797 H 0.99453 0.27123 -0.00295 0.0
H798 H 0.93944 0.3129 0.93994 0.0
H799 H -0.00163 0.30134 0.91924 0.0
H800 H 0.9443 0.33596 0.00257 0.0
H801 H 0.87486 0.22201 0.95871 0.0
H802 H 0.92675 0.22864 0.95915 0.0
H803 H 0.89673 0.25654 0.94244 0.0
C804 C 0.02941 0.27196 0.96843 0.0
C805 C 0.03069 0.27902 0.94617 0.0
C806 C 0.99557 0.27857 0.98017 0.0
C807 C 0.96253 0.29226 0.96987 0.0
C808 C 0.96456 0.30181 0.94807 0.0
H809 H 0.72175 0.29985 0.01306 0.0
H810 H 0.78124 0.30382 0.99167 0.0
C811 C -0.00165 0.29528 0.9363 0.0
C812 C 0.92512 0.29359 0.98145 0.0
H813 H 0.8367 0.25245 0.98427 0.0
C814 C 0.92066 0.31786 -0.00144 0.0
C815 C 0.89445 0.26989 0.97609 0.0
C816 C 0.89829 0.24256 0.95821 0.0
C817 C 0.8861 0.31912 0.0105 0.0
C818 C 0.8557 0.29486 0.00544 0.0
C819 C 0.86003 0.271 0.98809 0.0
C820 C 0.81972 0.2928 0.01842 0.0
C821 C 0.88232 0.34667 0.02825 0.0
C822 C 0.82162 0.28446 0.04041 0.0
C823 C 0.78778 0.28219 0.05266 0.0
C824 C 0.75124 0.28785 0.04311 0.0
C825 C 0.74937 0.29534 0.02093 0.0
C826 C 0.78333 0.29774 0.00869 0.0
H827 H 0.90244 0.36969 0.0258 0.0
H828 H 0.85222 0.35717 0.0293 0.0
H829 H 0.88974 0.33389 0.04387 0.0
H830 H 0.84931 0.27951 0.04811 0.0
H831 H 0.79034 0.27609 0.06966 0.0
H832 H 0.00192 0.29253 0.57499 0.0
H833 H 0.06184 0.30438 0.55521 0.0
H834 H 0.00574 0.2734 0.49594 0.0
H835 H 0.94564 0.2616 0.51548 0.0
H836 H 0.09975 0.24902 0.53207 0.0
H837 H 0.06573 0.36539 0.47938 0.0
H838 H 0.03766 0.35466 0.50309 0.0
H839 H 0.03025 0.32997 0.47852 0.0
C840 C 0.00196 0.28905 0.55767 0.0
C841 C 0.96896 0.27588 0.54684 0.0
C842 C 0.0363 0.29577 0.54641 0.0
C843 C 0.03814 0.28992 0.52413 0.0
C844 C 0.00475 0.27861 0.5131 0.0
H845 H 0.20734 0.27099 0.42413 0.0
H846 H 0.14989 0.27381 0.44695 0.0
C847 C 0.97044 0.27173 0.52433 0.0
C848 C 0.07582 0.29175 0.51277 0.0
H849 H 0.12223 0.33133 0.47045 0.0
C850 C 0.10496 0.26733 0.51877 0.0
C851 C 0.0823 0.31553 0.4954 0.0
C852 C 0.05248 0.34312 0.48879 0.0
C853 C 0.13991 0.26504 0.50729 0.0
C854 C 0.14614 0.28836 0.48962 0.0
C855 C 0.11735 0.31342 0.48397 0.0
C856 C 0.18152 0.28612 0.47615 0.0
C857 C 0.1691 0.23665 0.5136 0.0
C858 C 0.21847 0.29206 0.48501 0.0
C859 C 0.25155 0.29014 0.47201 0.0
C860 C 0.24818 0.2827 0.44987 0.0
C861 C 0.21106 0.27678 0.4411 0.0
C862 C 0.17813 0.27848 0.45411 0.0
H863 H 0.15599 0.21551 0.52396 0.0
H864 H 0.18174 0.22355 0.49914 0.0
H865 H 0.19303 0.24947 0.52278 0.0
H866 H 0.22168 0.29866 0.50191 0.0
H867 H 0.27964 0.2952 0.47924 0.0
H868 H 0.55522 0.24827 0.01227 0.0
H869 H 0.49596 0.23788 0.99151 0.0
H870 H 0.44033 0.19406 0.04784 0.0
H871 H 0.49932 0.20429 0.06882 0.0
H872 H 0.44513 0.17278 0.98531 0.0
H873 H 0.37675 0.28662 0.02968 0.0
H874 H 0.42861 0.27986 0.02906 0.0
H875 H 0.3987 0.25179 0.0457 0.0
C876 C 0.53072 0.2357 0.02018 0.0
C877 C 0.53191 0.22758 0.04232 0.0
C878 C 0.49688 0.22981 0.00827 0.0
C879 C 0.46372 0.21582 0.01829 0.0
C880 C 0.46558 0.20532 0.03994 0.0
H881 H 0.22276 0.2091 0.97595 0.0
H882 H 0.28279 0.20585 -0.00307 0.0
C883 C 0.49941 0.21108 0.05186 0.0
C884 C 0.42637 0.21506 0.00658 0.0
H885 H 0.33834 0.25686 0.00389 0.0
C886 C 0.42167 0.19103 0.98936 0.0
C887 C 0.39597 0.23896 0.01199 0.0
C888 C 0.4001 0.26601 0.03001 0.0
C889 C 0.38705 0.19009 0.97743 0.0
C890 C 0.35686 0.21449 0.98258 0.0
C891 C 0.3615 0.23821 -2e-05 0.0
C892 C 0.32054 0.21648 0.96983 0.0
C893 C 0.38295 0.16265 0.95964 0.0
C894 C 0.32182 0.22442 0.94776 0.0
C895 C 0.28764 0.22622 0.93573 0.0
C896 C 0.25139 0.22055 0.94558 0.0
C897 C 0.25014 0.21362 0.96785 0.0
C898 C 0.28442 0.21163 0.97985 0.0
H899 H 0.40304 0.13958 0.96196 0.0
H900 H 0.35282 0.15219 0.95868 0.0
H901 H 0.39018 0.1755 0.94402 0.0
H902 H 0.34928 0.22931 0.93983 0.0
H903 H 0.2897 0.23192 0.91866 0.0
H904 H 0.49571 0.80169 0.57331 0.0
H905 H 0.43602 0.81312 0.55318 0.0
H906 H 0.49033 0.77428 0.49515 0.0
H907 H 0.55027 0.76285 0.51502 0.0
H908 H 0.43901 0.83752 0.49038 0.0
H909 H 0.37236 0.72222 0.53419 0.0
H910 H 0.39362 0.75714 0.55045 0.0
H911 H 0.42409 0.72976 0.53368 0.0
C912 C 0.49535 0.7963 0.55617 0.0
C913 C 0.52767 0.78082 0.54586 0.0
C914 C 0.46112 0.80272 0.54473 0.0
C915 C 0.45865 0.79384 0.52282 0.0
C916 C 0.49167 0.78106 0.51211 0.0
H917 H 0.28807 0.77358 0.42265 0.0
H918 H 0.3465 0.77854 0.44461 0.0
C919 C 0.52591 0.77456 0.52351 0.0
C920 C 0.42093 0.79477 0.51148 0.0
H921 H 0.33365 0.75157 0.50847 0.0
C922 C 0.41583 0.81892 0.49438 0.0
C923 C 0.39085 0.77042 0.5168 0.0
C924 C 0.39536 0.74318 0.53467 0.0
C925 C 0.38131 0.81933 0.48236 0.0
C926 C 0.35162 0.7943 0.4873 0.0
C927 C 0.35647 0.77068 0.50472 0.0
C928 C 0.31595 0.79112 0.4741 0.0
C929 C 0.37687 0.84672 0.46459 0.0
C930 C 0.27923 0.79507 0.48358 0.0
C931 C 0.2456 0.79177 0.47111 0.0
C932 C 0.24813 0.78435 0.44892 0.0
C933 C 0.285 0.77959 0.43963 0.0
C934 C 0.31851 0.78275 0.45212 0.0
H935 H 0.39617 0.87032 0.46716 0.0
H936 H 0.38497 0.83414 0.44901 0.0
H937 H 0.34645 0.85634 0.46337 0.0
H938 H 0.27663 0.80114 0.50058 0.0
H939 H 0.21771 0.79562 0.47879 0.0
H940 H -0.00242 0.70574 0.07048 0.0
H941 H 0.05686 0.69548 0.04982 0.0
H942 H 0.00127 0.73704 0.99284 0.0
H943 H 0.94172 0.74745 0.01327 0.0
H944 H 0.05244 0.67225 0.98747 0.0
H945 H 0.12008 0.78768 0.03083 0.0
H946 H 0.09832 0.75311 0.04713 0.0
H947 H 0.06826 0.78061 0.03021 0.0
C948 C -0.00242 0.71204 0.05346 0.0
C949 C 0.96497 0.72788 0.04361 0.0
C950 C 0.03157 0.70627 0.04171 0.0
C951 C 0.03351 0.71611 0.01995 0.0
C952 C 0.00029 0.72949 0.00968 0.0
H953 H 0.20569 0.7319 0.91985 0.0
H954 H 0.14666 0.72894 0.9414 0.0
C955 C 0.9663 0.7354 0.02141 0.0
C956 C 0.0709 0.71523 0.00834 0.0
H957 H 0.15851 0.75776 0.00518 0.0
C958 C 0.07575 0.69079 0.99134 0.0
C959 C 0.10113 0.7395 0.01353 0.0
C960 C 0.09685 0.76695 0.03131 0.0
C961 C 0.11029 0.68989 0.97938 0.0
C962 C 0.14024 0.71473 0.98425 0.0
C963 C 0.13552 0.73879 0.00148 0.0
C964 C 0.17626 0.71697 0.9713 0.0
C965 C 0.11452 0.66207 0.96181 0.0
C966 C 0.21266 0.71275 0.98112 0.0
C967 C 0.24664 0.71492 0.96888 0.0
C968 C 0.24477 0.72144 0.94659 0.0
C969 C 0.20823 0.72653 0.93694 0.0
C970 C 0.17437 0.72452 0.94919 0.0
H971 H 0.09482 0.63879 0.96443 0.0
H972 H 0.10686 0.67443 0.94611 0.0
H973 H 0.1448 0.652 0.96082 0.0
H974 H 0.21476 0.70728 -0.00178 0.0
H975 H 0.27427 0.71086 0.97684 0.0
H976 H 0.05396 0.73845 0.47789 0.0
H977 H 0.99473 0.72883 0.49864 0.0
H978 H 0.93484 0.69579 0.44092 0.0
H979 H 0.994 0.70467 0.42007 0.0
H980 H 0.92944 0.7688 0.49028 0.0
H981 H 0.89531 0.62302 0.48468 0.0
H982 H 0.94281 0.64091 0.47866 0.0
H983 H 0.90439 0.64409 0.45916 0.0
C984 C 0.02853 0.72817 0.46967 0.0
C985 C 0.0287 0.72264 0.44726 0.0
C986 C 0.99467 0.72276 0.48157 0.0
C987 C 0.96042 0.71155 0.47133 0.0
C988 C 0.96108 0.70388 0.44922 0.0
H989 H 0.71803 0.71 0.51253 0.0
H990 H 0.77776 0.70846 0.49104 0.0
C991 C 0.99498 0.70913 0.4373 0.0
C992 C 0.92318 0.71227 0.48321 0.0
H993 H 0.84527 0.6612 0.49811 0.0
C994 C 0.91118 0.7452 0.49211 0.0
C995 C 0.89918 0.68157 0.48531 0.0
C996 C 0.91116 0.64531 0.47662 0.0
C997 C 0.8758 0.74831 0.50304 0.0
C998 C 0.85198 0.71759 0.50532 0.0
C999 C 0.86364 0.68472 0.49622 0.0
C1000 C 0.81581 0.7188 0.51806 0.0
C1001 C 0.86396 0.78454 0.51189 0.0
C1002 C 0.81764 0.72501 0.54029 0.0
C1003 C 0.7838 0.72592 0.55255 0.0
C1004 C 0.74735 0.72055 0.54283 0.0
C1005 C 0.74559 0.71446 0.52048 0.0
C1006 C 0.77963 0.7134 0.50821 0.0
H1007 H 0.88043 0.80687 0.50427 0.0
H1008 H 0.83246 0.7893 0.50942 0.0
H1009 H 0.86982 0.78523 0.52946 0.0
H1010 H 0.84537 0.72882 0.54821 0.0
H1011 H 0.78633 0.73059 0.56972 0.0
H1012 H 0.7058 0.77118 0.06794 0.0
H1013 H 0.64743 0.77414 0.04576 0.0
H1014 H 0.7166 0.80375 0.9907 0.0
H1015 H 0.77542 0.8002 0.01267 0.0
H1016 H 0.61754 0.83249 0.02375 0.0
H1017 H 0.65211 0.72052 0.96754 0.0
H1018 H 0.67843 0.72765 0.99231 0.0
H1019 H 0.68864 0.75491 0.96908 0.0
C1020 C 0.70875 0.77802 0.05107 0.0
C1021 C 0.74539 0.78526 0.04207 0.0
C1022 C 0.67529 0.77982 0.03844 0.0
C1023 C 0.6777 0.78884 0.01656 0.0
C1024 C 0.71416 0.79608 0.00747 0.0
H1025 H 0.49909 0.7997 0.91772 0.0
H1026 H 0.55818 0.81114 0.93834 0.0
C1027 C 0.74775 0.7941 0.02007 0.0
C1028 C 0.64185 0.79118 0.00345 0.0
H1029 H 0.59564 0.75428 0.96011 0.0
C1030 C 0.61274 0.81544 0.00981 0.0
C1031 C 0.63572 0.76895 0.98526 0.0
C1032 C 0.66518 0.7413 0.97821 0.0
C1033 C 0.57759 0.81799 -0.00153 0.0
C1034 C 0.57135 0.79546 0.98046 0.0
C1035 C 0.60068 0.77168 0.97387 0.0
C1036 C 0.53386 0.79441 0.96883 0.0
C1037 C 0.54749 0.8448 0.00578 0.0
C1038 C 0.50031 0.78212 0.97928 0.0
C1039 C 0.46642 0.7755 0.96755 0.0
C1040 C 0.46559 0.78084 0.94512 0.0
C1041 C 0.49864 0.79521 0.93495 0.0
C1042 C 0.53252 0.80172 0.94669 0.0
H1043 H 0.56045 0.86636 0.01591 0.0
H1044 H 0.53271 0.85739 0.99179 0.0
H1045 H 0.52525 0.83067 0.01555 0.0
H1046 H 0.50091 0.77581 -0.0037 0.0
H1047 H 0.44158 0.76441 0.97591 0.0
loop_
_geom_bond_atom_site_label_1
_geom_bond_atom_site_label_2
_geom_bond_distance
_geom_bond_site_symmetry_2
_ccdc_geom_bond_type
O0 Zn1 1.953 . S
O0 C16 1.225 . S
Zn1 O0 1.953 . S
Zn1 O2 1.949 . S
Zn1 O8 1.919 . S
Zn1 O13 1.924 . S
O2 Zn1 1.949 . S
O2 Zn3 1.923 . S
O2 Zn4 1.950 . S
O2 Zn5 1.945 . S
Zn3 O2 1.923 . S
Zn3 O6 1.933 . S
Zn3 O9 1.941 . S
Zn3 O10 1.965 . S
Zn4 O2 1.950 . S
Zn4 O11 1.938 . S
Zn4 O12 1.906 . S
Zn4 O22 1.953 . S
Zn5 O2 1.945 . S
Zn5 O7 1.932 . S
Zn5 O14 1.977 . S
Zn5 O15 1.910 . S
O6 Zn3 1.933 . S
O6 C17 1.226 . S
O7 Zn5 1.932 . S
O7 C17 1.307 . S
O8 Zn1 1.919 . S
O8 C19 1.253 . S
O9 Zn3 1.941 . S
O9 C19 1.283 . S
O10 Zn3 1.965 . S
O10 C18 1.303 . S
O11 Zn4 1.938 . S
O11 C18 1.247 . S
O12 Zn4 1.906 . S
O12 C20 1.304 . S
O13 Zn1 1.924 . S
O13 C21 1.311 . S
O14 Zn5 1.977 . S
O14 C20 1.272 . S
O15 Zn5 1.910 . S
O15 C21 1.231 . S
C16 O0 1.225 . S
C16 O22 1.298 . S
C17 O6 1.226 . S
C17 O7 1.307 . S
C18 O10 1.303 . S
C18 O11 1.247 . S
C19 O8 1.253 . S
C19 O9 1.283 . S
C20 O12 1.304 . S
C20 O14 1.272 . S
C21 O13 1.311 . S
C21 O15 1.231 . S
O22 Zn4 1.953 . S
O22 C16 1.298 . S
O23 Zn24 1.953 . S
O23 C39 1.225 . S
Zn24 O23 1.953 . S
Zn24 O25 1.949 . S
Zn24 O31 1.919 . S
Zn24 O36 1.924 . S
O25 Zn24 1.949 . S
O25 Zn26 1.923 . S
O25 Zn27 1.950 . S
O25 Zn28 1.945 . S
Zn26 O25 1.923 . S
Zn26 O29 1.933 . S
Zn26 O32 1.941 . S
Zn26 O33 1.965 . S
Zn27 O25 1.950 . S
Zn27 O34 1.938 . S
Zn27 O35 1.906 . S
Zn27 O45 1.953 . S
Zn28 O25 1.945 . S
Zn28 O30 1.932 . S
Zn28 O37 1.977 . S
Zn28 O38 1.910 . S
O29 Zn26 1.933 . S
O29 C40 1.226 . S
O30 Zn28 1.932 . S
O30 C40 1.307 . S
O31 Zn24 1.919 . S
O31 C42 1.253 . S
O32 Zn26 1.941 . S
O32 C42 1.283 . S
O33 Zn26 1.965 . S
O33 C41 1.303 . S
O34 Zn27 1.938 . S
O34 C41 1.247 . S
O35 Zn27 1.906 . S
O35 C43 1.304 . S
O36 Zn24 1.924 . S
O36 C44 1.311 . S
O37 Zn28 1.977 . S
O37 C43 1.272 . S
O38 Zn28 1.910 . S
O38 C44 1.231 . S
C39 O23 1.225 . S
C39 O45 1.298 . S
C40 O29 1.226 . S
C40 O30 1.307 . S
C41 O33 1.303 . S
C41 O34 1.247 . S
C42 O31 1.253 . S
C42 O32 1.283 . S
C43 O35 1.304 . S
C43 O37 1.272 . S
C44 O36 1.311 . S
C44 O38 1.231 . S
O45 Zn27 1.953 . S
O45 C39 1.298 . S
O46 Zn47 1.953 . S
O46 C62 1.225 . S
Zn47 O46 1.953 . S
Zn47 O48 1.949 . S
Zn47 O54 1.919 . S
Zn47 O59 1.924 . S
O48 Zn47 1.949 . S
O48 Zn49 1.923 . S
O48 Zn50 1.950 . S
O48 Zn51 1.945 . S
Zn49 O48 1.923 . S
Zn49 O52 1.933 . S
Zn49 O55 1.941 . S
Zn49 O56 1.965 . S
Zn50 O48 1.950 . S
Zn50 O57 1.938 . S
Zn50 O58 1.906 . S
Zn50 O68 1.953 . S
Zn51 O48 1.945 . S
Zn51 O53 1.932 . S
Zn51 O60 1.977 . S
Zn51 O61 1.910 . S
O52 Zn49 1.933 . S
O52 C63 1.226 . S
O53 Zn51 1.932 . S
O53 C63 1.307 . S
O54 Zn47 1.919 . S
O54 C65 1.253 . S
O55 Zn49 1.941 . S
O55 C65 1.283 . S
O56 Zn49 1.965 . S
O56 C64 1.303 . S
O57 Zn50 1.938 . S
O57 C64 1.247 . S
O58 Zn50 1.906 . S
O58 C66 1.304 . S
O59 Zn47 1.924 . S
O59 C67 1.311 . S
O60 Zn51 1.977 . S
O60 C66 1.272 . S
O61 Zn51 1.910 . S
O61 C67 1.231 . S
C62 O46 1.225 . S
C62 O68 1.298 . S
C63 O52 1.226 . S
C63 O53 1.307 . S
C64 O56 1.303 . S
C64 O57 1.247 . S
C65 O54 1.253 . S
C65 O55 1.283 . S
C66 O58 1.304 . S
C66 O60 1.272 . S
C67 O59 1.311 . S
C67 O61 1.231 . S
O68 Zn50 1.953 . S
O68 C62 1.298 . S
O69 Zn70 1.953 . S
O69 C85 1.225 . S
Zn70 O69 1.953 . S
Zn70 O71 1.949 . S
Zn70 O77 1.919 . S
Zn70 O82 1.924 . S
O71 Zn70 1.949 . S
O71 Zn72 1.923 . S
O71 Zn73 1.950 . S
O71 Zn74 1.945 . S
Zn72 O71 1.923 . S
Zn72 O75 1.933 . S
Zn72 O78 1.941 . S
Zn72 O79 1.965 . S
Zn73 O71 1.950 . S
Zn73 O80 1.938 . S
Zn73 O81 1.906 . S
Zn73 O91 1.953 . S
Zn74 O71 1.945 . S
Zn74 O76 1.932 . S
Zn74 O83 1.977 . S
Zn74 O84 1.910 . S
O75 Zn72 1.933 . S
O75 C86 1.226 . S
O76 Zn74 1.932 . S
O76 C86 1.307 . S
O77 Zn70 1.919 . S
O77 C88 1.253 . S
O78 Zn72 1.941 . S
O78 C88 1.283 . S
O79 Zn72 1.965 . S
O79 C87 1.303 . S
O80 Zn73 1.938 . S
O80 C87 1.247 . S
O81 Zn73 1.906 . S
O81 C89 1.304 . S
O82 Zn70 1.924 . S
O82 C90 1.311 . S
O83 Zn74 1.977 . S
O83 C89 1.272 . S
O84 Zn74 1.910 . S
O84 C90 1.231 . S
C85 O69 1.225 . S
C85 O91 1.298 . S
C86 O75 1.226 . S
C86 O76 1.307 . S
C87 O79 1.303 . S
C87 O80 1.247 . S
C88 O77 1.253 . S
C88 O78 1.283 . S
C89 O81 1.304 . S
C89 O83 1.272 . S
C90 O82 1.311 . S
C90 O84 1.231 . S
O91 Zn73 1.953 . S
O91 C85 1.298 . S
O92 Zn93 1.953 . S
O92 C108 1.225 . S
Zn93 O92 1.953 . S
Zn93 O94 1.949 . S
Zn93 O100 1.919 . S
Zn93 O105 1.924 . S
O94 Zn93 1.949 . S
O94 Zn95 1.923 . S
O94 Zn96 1.950 . S
O94 Zn97 1.945 . S
Zn95 O94 1.923 . S
Zn95 O98 1.933 . S
Zn95 O101 1.941 . S
Zn95 O102 1.965 . S
Zn96 O94 1.950 . S
Zn96 O103 1.938 . S
Zn96 O104 1.906 . S
Zn96 O114 1.953 . S
Zn97 O94 1.945 . S
Zn97 O99 1.932 . S
Zn97 O106 1.977 . S
Zn97 O107 1.910 . S
O98 Zn95 1.933 . S
O98 C109 1.226 . S
O99 Zn97 1.932 . S
O99 C109 1.307 . S
O100 Zn93 1.919 . S
O100 C111 1.253 . S
O101 Zn95 1.941 . S
O101 C111 1.283 . S
O102 Zn95 1.965 . S
O102 C110 1.303 . S
O103 Zn96 1.938 . S
O103 C110 1.247 . S
O104 Zn96 1.906 . S
O104 C112 1.304 . S
O105 Zn93 1.924 . S
O105 C113 1.311 . S
O106 Zn97 1.977 . S
O106 C112 1.272 . S
O107 Zn97 1.910 . S
O107 C113 1.231 . S
C108 O92 1.225 . S
C108 O114 1.298 . S
C109 O98 1.226 . S
C109 O99 1.307 . S
C110 O102 1.303 . S
C110 O103 1.247 . S
C111 O100 1.253 . S
C111 O101 1.283 . S
C112 O104 1.304 . S
C112 O106 1.272 . S
C113 O105 1.311 . S
C113 O107 1.231 . S
O114 Zn96 1.953 . S
O114 C108 1.298 . S
O115 Zn116 1.953 . S
O115 C131 1.225 . S
Zn116 O115 1.953 . S
Zn116 O117 1.949 . S
Zn116 O123 1.919 . S
Zn116 O128 1.924 . S
O117 Zn116 1.949 . S
O117 Zn118 1.923 . S
O117 Zn119 1.950 . S
O117 Zn120 1.945 . S
Zn118 O117 1.923 . S
Zn118 O121 1.933 . S
Zn118 O124 1.941 . S
Zn118 O125 1.965 . S
Zn119 O117 1.950 . S
Zn119 O126 1.938 . S
Zn119 O127 1.906 . S
Zn119 O137 1.953 . S
Zn120 O117 1.945 . S
Zn120 O122 1.932 . S
Zn120 O129 1.977 . S
Zn120 O130 1.910 . S
O121 Zn118 1.933 . S
O121 C132 1.226 . S
O122 Zn120 1.932 . S
O122 C132 1.307 . S
O123 Zn116 1.919 . S
O123 C134 1.253 . S
O124 Zn118 1.941 . S
O124 C134 1.283 . S
O125 Zn118 1.965 . S
O125 C133 1.303 . S
O126 Zn119 1.938 . S
O126 C133 1.247 . S
O127 Zn119 1.906 . S
O127 C135 1.304 . S
O128 Zn116 1.924 . S
O128 C136 1.311 . S
O129 Zn120 1.977 . S
O129 C135 1.272 . S
O130 Zn120 1.910 . S
O130 C136 1.231 . S
C131 O115 1.225 . S
C131 O137 1.298 . S
C132 O121 1.226 . S
C132 O122 1.307 . S
C133 O125 1.303 . S
C133 O126 1.247 . S
C134 O123 1.253 . S
C134 O124 1.283 . S
C135 O127 1.304 . S
C135 O129 1.272 . S
C136 O128 1.311 . S
C136 O130 1.231 . S
O137 Zn119 1.953 . S
O137 C131 1.298 . S
O138 Zn139 1.953 . S
O138 C154 1.225 . S
Zn139 O138 1.953 . S
Zn139 O140 1.949 . S
Zn139 O146 1.919 . S
Zn139 O151 1.924 . S
O140 Zn139 1.949 . S
O140 Zn141 1.923 . S
O140 Zn142 1.950 . S
O140 Zn143 1.945 . S
Zn141 O140 1.923 . S
Zn141 O144 1.933 . S
Zn141 O147 1.941 . S
Zn141 O148 1.965 . S
Zn142 O140 1.950 . S
Zn142 O149 1.938 . S
Zn142 O150 1.906 . S
Zn142 O160 1.953 . S
Zn143 O140 1.945 . S
Zn143 O145 1.932 . S
Zn143 O152 1.977 . S
Zn143 O153 1.910 . S
O144 Zn141 1.933 . S
O144 C155 1.226 . S
O145 Zn143 1.932 . S
O145 C155 1.307 . S
O146 Zn139 1.919 . S
O146 C157 1.253 . S
O147 Zn141 1.941 . S
O147 C157 1.283 . S
O148 Zn141 1.965 . S
O148 C156 1.303 . S
O149 Zn142 1.938 . S
O149 C156 1.247 . S
O150 Zn142 1.906 . S
O150 C158 1.304 . S
O151 Zn139 1.924 . S
O151 C159 1.311 . S
O152 Zn143 1.977 . S
O152 C158 1.272 . S
O153 Zn143 1.910 . S
O153 C159 1.231 . S
C154 O138 1.225 . S
C154 O160 1.298 . S
C155 O144 1.226 . S
C155 O145 1.307 . S
C156 O148 1.303 . S
C156 O149 1.247 . S
C157 O146 1.253 . S
C157 O147 1.283 . S
C158 O150 1.304 . S
C158 O152 1.272 . S
C159 O151 1.311 . S
C159 O153 1.231 . S
O160 Zn142 1.953 . S
O160 C154 1.298 . S
O161 Zn162 1.953 . S
O161 C177 1.225 . S
Zn162 O161 1.953 . S
Zn162 O163 1.949 . S
Zn162 O169 1.919 . S
Zn162 O174 1.924 . S
O163 Zn162 1.949 . S
O163 Zn164 1.923 . S
O163 Zn165 1.950 . S
O163 Zn166 1.945 . S
Zn164 O163 1.923 . S
Zn164 O167 1.933 . S
Zn164 O170 1.941 . S
Zn164 O171 1.965 . S
Zn165 O163 1.950 . S
Zn165 O172 1.938 . S
Zn165 O173 1.906 . S
Zn165 O183 1.953 . S
Zn166 O163 1.945 . S
Zn166 O168 1.932 . S
Zn166 O175 1.977 . S
Zn166 O176 1.910 . S
O167 Zn164 1.933 . S
O167 C178 1.226 . S
O168 Zn166 1.932 . S
O168 C178 1.307 . S
O169 Zn162 1.919 . S
O169 C180 1.253 . S
O170 Zn164 1.941 . S
O170 C180 1.283 . S
O171 Zn164 1.965 . S
O171 C179 1.303 . S
O172 Zn165 1.938 . S
O172 C179 1.247 . S
O173 Zn165 1.906 . S
O173 C181 1.304 . S
O174 Zn162 1.924 . S
O174 C182 1.311 . S
O175 Zn166 1.977 . S
O175 C181 1.272 . S
O176 Zn166 1.910 . S
O176 C182 1.231 . S
C177 O161 1.225 . S
C177 O183 1.298 . S
C178 O167 1.226 . S
C178 O168 1.307 . S
C179 O171 1.303 . S
C179 O172 1.247 . S
C180 O169 1.253 . S
C180 O170 1.283 . S
C181 O173 1.304 . S
C181 O175 1.272 . S
C182 O174 1.311 . S
C182 O176 1.231 . S
O183 Zn165 1.953 . S
O183 C177 1.298 . S
H184 C192 0.929 . S
H185 C194 0.930 . S
H186 C196 0.930 1_545 S
H187 C199 0.929 . S
H188 C202 0.930 . S
H189 C204 0.960 . S
H190 C204 0.960 . S
H191 C204 0.960 . S
C192 H184 0.929 . S
C192 C193 1.377 . S
C192 C194 1.384 . S
C193 C192 1.377 . S
C193 C199 1.390 . S
C194 H185 0.930 . S
C194 C192 1.384 . S
C194 C195 1.372 . S
C195 C194 1.372 . S
C195 C196 1.400 . S
C195 C200 1.490 1_565 S
C196 H186 0.930 1_565 S
C196 C195 1.400 . S
C196 C199 1.386 . S
H197 C213 0.930 . S
H198 C214 0.931 . S
C199 H187 0.929 . S
C199 C193 1.390 . S
C199 C196 1.386 . S
C200 C195 1.490 1_545 S
C200 C202 1.395 . S
C200 C203 1.403 . S
H201 C207 0.930 . S
C202 H188 0.930 . S
C202 C200 1.395 . S
C202 C205 1.403 . S
C203 C200 1.403 . S
C203 C204 1.524 . S
C203 C207 1.400 . S
C204 H189 0.960 . S
C204 H190 0.960 . S
C204 H191 0.960 . S
C204 C203 1.524 . S
C205 C202 1.403 . S
C205 C206 1.392 . S
C205 C209 1.495 . S
C206 C205 1.392 . S
C206 C207 1.385 . S
C206 C208 1.478 . S
C207 H201 0.930 . S
C207 C203 1.400 . S
C207 C206 1.385 . S
C208 C206 1.478 . S
C208 C210 1.381 . S
C208 C214 1.383 . S
C209 C205 1.495 . S
C209 H215 0.959 . S
C209 H216 0.961 . S
C209 H217 0.960 . S
C210 C208 1.381 . S
C210 C211 1.394 . S
C210 H218 0.930 . S
C211 C210 1.394 . S
C211 C212 1.383 . S
C211 H219 0.929 . S
C212 C211 1.383 . S
C212 C213 1.377 . S
C213 H197 0.930 . S
C213 C212 1.377 . S
C213 C214 1.379 . S
C214 H198 0.931 . S
C214 C208 1.383 . S
C214 C213 1.379 . S
H215 C209 0.959 . S
H216 C209 0.961 . S
H217 C209 0.960 . S
H218 C210 0.930 . S
H219 C211 0.929 . S
H220 C228 0.929 . S
H221 C230 0.930 . S
H222 C232 0.930 . S
H223 C235 0.929 . S
H224 C238 0.930 . S
H225 C240 0.960 . S
H226 C240 0.960 . S
H227 C240 0.960 . S
C228 H220 0.929 . S
C228 C229 1.377 . S
C228 C230 1.384 . S
C229 C228 1.377 . S
C229 C235 1.390 . S
C230 H221 0.930 . S
C230 C228 1.384 . S
C230 C231 1.372 . S
C231 C230 1.372 . S
C231 C232 1.400 . S
C231 C236 1.490 . S
C232 H222 0.930 . S
C232 C231 1.400 . S
C232 C235 1.386 . S
H233 C249 0.930 . S
H234 C250 0.931 . S
C235 H223 0.929 . S
C235 C229 1.390 . S
C235 C232 1.386 . S
C236 C231 1.490 . S
C236 C238 1.395 . S
C236 C239 1.403 . S
H237 C243 0.930 . S
C238 H224 0.930 . S
C238 C236 1.395 . S
C238 C241 1.403 . S
C239 C236 1.403 . S
C239 C240 1.524 . S
C239 C243 1.400 . S
C240 H225 0.960 . S
C240 H226 0.960 . S
C240 H227 0.960 . S
C240 C239 1.524 . S
C241 C238 1.403 . S
C241 C242 1.392 . S
C241 C245 1.495 . S
C242 C241 1.392 . S
C242 C243 1.385 . S
C242 C244 1.478 . S
C243 H237 0.930 . S
C243 C239 1.400 . S
C243 C242 1.385 . S
C244 C242 1.478 . S
C244 C246 1.381 . S
C244 C250 1.383 . S
C245 C241 1.495 . S
C245 H251 0.959 . S
C245 H252 0.961 . S
C245 H253 0.960 . S
C246 C244 1.381 . S
C246 C247 1.394 . S
C246 H254 0.930 . S
C247 C246 1.394 . S
C247 C248 1.383 . S
C247 H255 0.929 . S
C248 C247 1.383 . S
C248 C249 1.377 . S
C249 H233 0.930 . S
C249 C248 1.377 . S
C249 C250 1.379 . S
C250 H234 0.931 . S
C250 C244 1.383 . S
C250 C249 1.379 . S
H251 C245 0.959 . S
H252 C245 0.961 . S
H253 C245 0.960 . S
H254 C246 0.930 . S
H255 C247 0.929 . S
H256 C264 0.929 . S
H257 C266 0.930 . S
H258 C268 0.930 . S
H259 C271 0.929 . S
H260 C274 0.930 . S
H261 C276 0.960 . S
H262 C276 0.960 . S
H263 C276 0.960 . S
C264 H256 0.929 . S
C264 C265 1.377 . S
C264 C266 1.384 . S
C265 C264 1.377 . S
C265 C271 1.390 . S
C266 H257 0.930 . S
C266 C264 1.384 . S
C266 C267 1.372 . S
C267 C266 1.372 . S
C267 C268 1.400 . S
C267 C272 1.490 . S
C268 H258 0.930 . S
C268 C267 1.400 . S
C268 C271 1.386 . S
H269 C285 0.930 . S
H270 C286 0.931 . S
C271 H259 0.929 . S
C271 C265 1.390 . S
C271 C268 1.386 . S
C272 C267 1.490 . S
C272 C274 1.395 . S
C272 C275 1.403 . S
H273 C279 0.930 . S
C274 H260 0.930 . S
C274 C272 1.395 . S
C274 C277 1.403 . S
C275 C272 1.403 . S
C275 C276 1.524 . S
C275 C279 1.400 . S
C276 H261 0.960 . S
C276 H262 0.960 . S
C276 H263 0.960 . S
C276 C275 1.524 . S
C277 C274 1.403 . S
C277 C278 1.392 . S
C277 C281 1.495 . S
C278 C277 1.392 . S
C278 C279 1.385 . S
C278 C280 1.478 . S
C279 H273 0.930 . S
C279 C275 1.400 . S
C279 C278 1.385 . S
C280 C278 1.478 . S
C280 C282 1.381 . S
C280 C286 1.383 . S
C281 C277 1.495 . S
C281 H287 0.959 . S
C281 H288 0.961 . S
C281 H289 0.960 . S
C282 C280 1.381 . S
C282 C283 1.394 . S
C282 H290 0.930 . S
C283 C282 1.394 . S
C283 C284 1.383 . S
C283 H291 0.929 . S
C284 C283 1.383 . S
C284 C285 1.377 . S
C285 H269 0.930 . S
C285 C284 1.377 . S
C285 C286 1.379 . S
C286 H270 0.931 . S
C286 C280 1.383 . S
C286 C285 1.379 . S
H287 C281 0.959 . S
H288 C281 0.961 . S
H289 C281 0.960 . S
H290 C282 0.930 . S
H291 C283 0.929 . S
H292 C300 0.929 . S
H293 C302 0.930 . S
H294 C304 0.930 . S
H295 C307 0.929 . S
H296 C310 0.930 . S
H297 C312 0.960 . S
H298 C312 0.960 . S
H299 C312 0.960 . S
C300 H292 0.929 . S
C300 C301 1.377 . S
C300 C302 1.384 . S
C301 C300 1.377 . S
C301 C307 1.390 . S
C302 H293 0.930 . S
C302 C300 1.384 . S
C302 C303 1.372 . S
C303 C302 1.372 . S
C303 C304 1.400 . S
C303 C308 1.490 . S
C304 H294 0.930 . S
C304 C303 1.400 . S
C304 C307 1.386 . S
H305 C321 0.930 . S
H306 C322 0.923 1_545 S
C307 H295 0.929 . S
C307 C301 1.390 . S
C307 C304 1.386 . S
C308 C303 1.490 . S
C308 C310 1.395 . S
C308 C311 1.403 . S
H309 C315 0.930 . S
C310 H296 0.930 . S
C310 C308 1.395 . S
C310 C313 1.403 . S
C311 C308 1.403 . S
C311 C312 1.524 . S
C311 C315 1.400 . S
C312 H297 0.960 . S
C312 H298 0.960 . S
C312 H299 0.960 . S
C312 C311 1.524 . S
C313 C310 1.403 . S
C313 C314 1.392 . S
C313 C317 1.495 . S
C314 C313 1.392 . S
C314 C315 1.385 . S
C314 C316 1.478 1_545 S
C315 H309 0.930 . S
C315 C311 1.400 . S
C315 C314 1.385 . S
C316 C314 1.478 1_565 S
C316 C318 1.381 . S
C316 C322 1.383 . S
C317 C313 1.495 . S
C317 H323 0.959 . S
C317 H324 0.961 . S
C317 H325 0.960 . S
C318 C316 1.381 . S
C318 C319 1.394 . S
C318 H326 0.930 . S
C319 C318 1.394 . S
C319 C320 1.383 . S
C319 H327 0.929 . S
C320 C319 1.383 . S
C320 C321 1.377 . S
C321 H305 0.930 . S
C321 C320 1.377 . S
C321 C322 1.379 . S
C322 H306 0.923 1_565 S
C322 C316 1.383 . S
C322 C321 1.379 . S
H323 C317 0.959 . S
H324 C317 0.961 . S
H325 C317 0.960 . S
H326 C318 0.930 . S
H327 C319 0.929 . S
H328 C336 0.929 . S
H329 C338 0.930 . S
H330 C340 0.943 . S
H331 C343 0.929 . S
H332 C346 0.930 . S
H333 C348 0.960 . S
H334 C348 0.960 . S
H335 C348 0.960 . S
C336 H328 0.929 . S
C336 C337 1.377 . S
C336 C338 1.384 . S
C337 C336 1.377 . S
C337 C343 1.390 . S
C338 H329 0.930 . S
C338 C336 1.384 . S
C338 C339 1.372 . S
C339 C338 1.372 . S
C339 C340 1.400 . S
C339 C344 1.490 1_545 S
C340 H330 0.943 . S
C340 C339 1.400 . S
C340 C343 1.386 . S
H341 C357 0.930 . S
H342 C358 0.931 . S
C343 H331 0.929 . S
C343 C337 1.390 . S
C343 C340 1.386 . S
C344 C339 1.490 1_565 S
C344 C346 1.395 . S
C344 C347 1.403 . S
H345 C351 0.930 . S
C346 H332 0.930 . S
C346 C344 1.395 . S
C346 C349 1.403 . S
C347 C344 1.403 . S
C347 C348 1.524 . S
C347 C351 1.400 . S
C348 H333 0.960 . S
C348 H334 0.960 . S
C348 H335 0.960 . S
C348 C347 1.524 . S
C349 C346 1.403 . S
C349 C350 1.392 . S
C349 C353 1.495 . S
C350 C349 1.392 . S
C350 C351 1.385 . S
C350 C352 1.478 . S
C351 H345 0.930 . S
C351 C347 1.400 . S
C351 C350 1.385 . S
C352 C350 1.478 . S
C352 C354 1.381 . S
C352 C358 1.383 . S
C353 C349 1.495 . S
C353 H359 0.959 . S
C353 H360 0.961 . S
C353 H361 0.960 . S
C354 C352 1.381 . S
C354 C355 1.394 . S
C354 H362 0.930 . S
C355 C354 1.394 . S
C355 C356 1.383 . S
C355 H363 0.929 . S
C356 C355 1.383 . S
C356 C357 1.377 . S
C357 H341 0.930 . S
C357 C356 1.377 . S
C357 C358 1.379 . S
C358 H342 0.931 . S
C358 C352 1.383 . S
C358 C357 1.379 . S
H359 C353 0.959 . S
H360 C353 0.961 . S
H361 C353 0.960 . S
H362 C354 0.930 . S
H363 C355 0.929 . S
H364 C372 0.929 . S
H365 C374 0.930 . S
H366 C376 0.930 . S
H367 C379 0.929 . S
H368 C382 0.930 . S
H369 C384 0.960 . S
H370 C384 0.960 . S
H371 C384 0.960 . S
C372 H364 0.929 . S
C372 C373 1.377 . S
C372 C374 1.384 . S
C373 C372 1.377 . S
C373 C379 1.390 . S
C374 H365 0.930 . S
C374 C372 1.384 . S
C374 C375 1.372 . S
C375 C374 1.372 . S
C375 C376 1.400 . S
C375 C380 1.490 . S
C376 H366 0.930 . S
C376 C375 1.400 . S
C376 C379 1.386 . S
H377 C393 0.930 . S
H378 C394 0.931 . S
C379 H367 0.929 . S
C379 C373 1.390 . S
C379 C376 1.386 . S
C380 C375 1.490 . S
C380 C382 1.395 . S
C380 C383 1.403 . S
H381 C387 0.930 . S
C382 H368 0.930 . S
C382 C380 1.395 . S
C382 C385 1.403 . S
C383 C380 1.403 . S
C383 C384 1.524 . S
C383 C387 1.400 . S
C384 H369 0.960 . S
C384 H370 0.960 . S
C384 H371 0.960 . S
C384 C383 1.524 . S
C385 C382 1.403 . S
C385 C386 1.392 . S
C385 C389 1.495 . S
C386 C385 1.392 . S
C386 C387 1.385 . S
C386 C388 1.478 . S
C387 H381 0.930 . S
C387 C383 1.400 . S
C387 C386 1.385 . S
C388 C386 1.478 . S
C388 C390 1.381 . S
C388 C394 1.383 . S
C389 C385 1.495 . S
C389 H395 0.959 . S
C389 H396 0.961 . S
C389 H397 0.960 . S
C390 C388 1.381 . S
C390 C391 1.394 . S
C390 H398 0.930 . S
C391 C390 1.394 . S
C391 C392 1.383 . S
C391 H399 0.929 . S
C392 C391 1.383 . S
C392 C393 1.377 . S
C393 H377 0.930 . S
C393 C392 1.377 . S
C393 C394 1.379 . S
C394 H378 0.931 . S
C394 C388 1.383 . S
C394 C393 1.379 . S
H395 C389 0.959 . S
H396 C389 0.961 . S
H397 C389 0.960 . S
H398 C390 0.930 . S
H399 C391 0.929 . S
H400 C408 0.929 . S
H401 C410 0.930 . S
H402 C412 0.930 . S
H403 C415 0.929 . S
H404 C418 0.930 . S
H405 C420 0.960 . S
H406 C420 0.960 . S
H407 C420 0.960 . S
C408 H400 0.929 . S
C408 C409 1.377 . S
C408 C410 1.384 . S
C409 C408 1.377 . S
C409 C415 1.390 . S
C410 H401 0.930 . S
C410 C408 1.384 . S
C410 C411 1.372 . S
C411 C410 1.372 . S
C411 C412 1.400 . S
C411 C416 1.490 . S
C412 H402 0.930 . S
C412 C411 1.400 . S
C412 C415 1.386 . S
H413 C429 0.930 . S
H414 C430 0.931 . S
C415 H403 0.929 . S
C415 C409 1.390 . S
C415 C412 1.386 . S
C416 C411 1.490 . S
C416 C418 1.395 . S
C416 C419 1.403 . S
H417 C423 0.930 . S
C418 H404 0.930 . S
C418 C416 1.395 . S
C418 C421 1.403 . S
C419 C416 1.403 . S
C419 C420 1.524 . S
C419 C423 1.400 . S
C420 H405 0.960 . S
C420 H406 0.960 . S
C420 H407 0.960 . S
C420 C419 1.524 . S
C421 C418 1.403 . S
C421 C422 1.392 . S
C421 C425 1.495 . S
C422 C421 1.392 . S
C422 C423 1.385 . S
C422 C424 1.478 . S
C423 H417 0.930 . S
C423 C419 1.400 . S
C423 C422 1.385 . S
C424 C422 1.478 . S
C424 C426 1.381 . S
C424 C430 1.383 . S
C425 C421 1.495 . S
C425 H431 0.959 . S
C425 H432 0.961 . S
C425 H433 0.960 . S
C426 C424 1.381 . S
C426 C427 1.394 . S
C426 H434 0.930 . S
C427 C426 1.394 . S
C427 C428 1.383 . S
C427 H435 0.929 . S
C428 C427 1.383 . S
C428 C429 1.377 . S
C429 H413 0.930 . S
C429 C428 1.377 . S
C429 C430 1.379 . S
C430 H414 0.931 . S
C430 C424 1.383 . S
C430 C429 1.379 . S
H431 C425 0.959 . S
H432 C425 0.961 . S
H433 C425 0.960 . S
H434 C426 0.930 . S
H435 C427 0.929 . S
H436 C444 0.929 . S
H437 C446 0.930 . S
H438 C448 0.930 1_565 S
H439 C451 0.929 . S
H440 C454 0.930 . S
H441 C456 0.960 . S
H442 C456 0.960 . S
H443 C456 0.960 . S
C444 H436 0.929 . S
C444 C445 1.377 . S
C444 C446 1.384 . S
C445 C444 1.377 . S
C445 C451 1.390 . S
C446 H437 0.930 . S
C446 C444 1.384 . S
C446 C447 1.372 . S
C447 C446 1.372 . S
C447 C448 1.400 . S
C447 C452 1.490 1_545 S
C448 H438 0.930 1_545 S
C448 C447 1.400 . S
C448 C451 1.386 . S
H449 C465 0.930 . S
H450 C466 0.931 . S
C451 H439 0.929 . S
C451 C445 1.390 . S
C451 C448 1.386 . S
C452 C447 1.490 1_565 S
C452 C454 1.395 . S
C452 C455 1.403 . S
H453 C459 0.930 . S
C454 H440 0.930 . S
C454 C452 1.395 . S
C454 C457 1.403 . S
C455 C452 1.403 . S
C455 C456 1.524 . S
C455 C459 1.400 . S
C456 H441 0.960 . S
C456 H442 0.960 . S
C456 H443 0.960 . S
C456 C455 1.524 . S
C457 C454 1.403 . S
C457 C458 1.392 . S
C457 C461 1.495 . S
C458 C457 1.392 . S
C458 C459 1.385 . S
C458 C460 1.478 . S
C459 H453 0.930 . S
C459 C455 1.400 . S
C459 C458 1.385 . S
C460 C458 1.478 . S
C460 C462 1.381 . S
C460 C466 1.383 . S
C461 C457 1.495 . S
C461 H467 0.959 . S
C461 H468 0.961 . S
C461 H469 0.960 . S
C462 C460 1.381 . S
C462 C463 1.394 . S
C462 H470 0.930 . S
C463 C462 1.394 . S
C463 C464 1.383 . S
C463 H471 0.929 . S
C464 C463 1.383 . S
C464 C465 1.377 . S
C465 H449 0.930 . S
C465 C464 1.377 . S
C465 C466 1.379 . S
C466 H450 0.931 . S
C466 C460 1.383 . S
C466 C465 1.379 . S
H467 C461 0.959 . S
H468 C461 0.961 . S
H469 C461 0.960 . S
H470 C462 0.930 . S
H471 C463 0.929 . S
H472 C480 0.929 . S
H473 C482 0.930 . S
H474 C484 0.930 . S
H475 C487 0.929 . S
H476 C490 0.930 . S
H477 C492 0.960 . S
H478 C492 0.960 . S
H479 C492 0.960 . S
C480 H472 0.929 . S
C480 C481 1.377 . S
C480 C482 1.384 . S
C481 C480 1.377 . S
C481 C487 1.390 . S
C482 H473 0.930 . S
C482 C480 1.384 . S
C482 C483 1.372 . S
C483 C482 1.372 . S
C483 C484 1.400 . S
C483 C488 1.490 . S
C484 H474 0.930 . S
C484 C483 1.400 . S
C484 C487 1.386 . S
H485 C501 0.930 . S
H486 C502 0.931 . S
C487 H475 0.929 . S
C487 C481 1.390 . S
C487 C484 1.386 . S
C488 C483 1.490 . S
C488 C490 1.395 . S
C488 C491 1.403 . S
H489 C495 0.930 . S
C490 H476 0.930 . S
C490 C488 1.395 . S
C490 C493 1.403 . S
C491 C488 1.403 . S
C491 C492 1.524 . S
C491 C495 1.400 . S
C492 H477 0.960 . S
C492 H478 0.960 . S
C492 H479 0.960 . S
C492 C491 1.524 . S
C493 C490 1.403 . S
C493 C494 1.392 . S
C493 C497 1.495 . S
C494 C493 1.392 . S
C494 C495 1.385 . S
C494 C496 1.478 . S
C495 H489 0.930 . S
C495 C491 1.400 . S
C495 C494 1.385 . S
C496 C494 1.478 . S
C496 C498 1.381 . S
C496 C502 1.383 . S
C497 C493 1.495 . S
C497 H503 0.959 . S
C497 H504 0.961 . S
C497 H505 0.960 . S
C498 C496 1.381 . S
C498 C499 1.394 . S
C498 H506 0.930 . S
C499 C498 1.394 . S
C499 C500 1.383 . S
C499 H507 0.929 . S
C500 C499 1.383 . S
C500 C501 1.377 . S
C501 H485 0.930 . S
C501 C500 1.377 . S
C501 C502 1.379 . S
C502 H486 0.931 . S
C502 C496 1.383 . S
C502 C501 1.379 . S
H503 C497 0.959 . S
H504 C497 0.961 . S
H505 C497 0.960 . S
H506 C498 0.930 . S
H507 C499 0.929 . S
H508 C516 0.929 . S
H509 C518 0.930 . S
H510 C520 0.930 1_455 S
H511 C523 0.929 . S
H512 C526 0.930 . S
H513 C528 0.940 1_556 S
H514 C528 0.960 . S
H515 C528 0.960 . S
C516 H508 0.929 . S
C516 C517 1.377 . S
C516 C518 1.384 . S
C517 C516 1.377 . S
C517 C523 1.390 . S
C518 H509 0.930 . S
C518 C516 1.384 . S
C518 C519 1.372 . S
C519 C518 1.372 . S
C519 C520 1.400 . S
C519 C524 1.490 . S
C520 H510 0.930 1_655 S
C520 C519 1.400 . S
C520 C523 1.386 . S
H521 C537 0.930 . S
H522 C538 0.931 . S
C523 H511 0.929 . S
C523 C517 1.390 . S
C523 C520 1.386 . S
C524 C519 1.490 . S
C524 C526 1.395 1_565 S
C524 C527 1.403 1_655 S
H525 C531 0.930 . S
C526 H512 0.930 . S
C526 C524 1.395 1_545 S
C526 C529 1.403 1_554 S
C527 C524 1.403 1_455 S
C527 C528 1.524 . S
C527 C531 1.400 1_554 S
C528 H513 0.940 1_554 S
C528 H514 0.960 . S
C528 H515 0.960 . S
C528 C527 1.524 . S
C529 C526 1.403 1_556 S
C529 C530 1.392 1_655 S
C529 C533 1.495 . S
C530 C529 1.392 1_455 S
C530 C531 1.385 1_545 S
C530 C532 1.478 . S
C531 H525 0.930 . S
C531 C527 1.400 1_556 S
C531 C530 1.385 1_565 S
C532 C530 1.478 . S
C532 C534 1.381 . S
C532 C538 1.383 . S
C533 C529 1.495 . S
C533 H539 0.959 . S
C533 H540 0.961 . S
C533 H541 0.960 . S
C534 C532 1.381 . S
C534 C535 1.394 . S
C534 H542 0.930 1_455 S
C535 C534 1.394 . S
C535 C536 1.383 . S
C535 H543 0.929 . S
C536 C535 1.383 . S
C536 C537 1.377 . S
C537 H521 0.930 . S
C537 C536 1.377 . S
C537 C538 1.379 . S
C538 H522 0.931 . S
C538 C532 1.383 . S
C538 C537 1.379 . S
H539 C533 0.959 . S
H540 C533 0.961 . S
H541 C533 0.960 . S
H542 C534 0.930 1_655 S
H543 C535 0.929 . S
H544 C552 0.929 . S
H545 C554 0.930 . S
H546 C556 0.930 1_455 S
H547 C559 0.929 . S
H548 C562 0.930 . S
H549 C564 0.960 . S
H550 C564 0.960 . S
H551 C564 0.960 . S
C552 H544 0.929 . S
C552 C553 1.377 . S
C552 C554 1.384 . S
C553 C552 1.377 . S
C553 C559 1.390 . S
C554 H545 0.930 . S
C554 C552 1.384 . S
C554 C555 1.372 . S
C555 C554 1.372 . S
C555 C556 1.400 . S
C555 C560 1.490 . S
C556 H546 0.930 1_655 S
C556 C555 1.400 . S
C556 C559 1.386 . S
H557 C573 0.930 . S
H558 C574 0.931 . S
C559 H547 0.929 . S
C559 C553 1.390 . S
C559 C556 1.386 . S
C560 C555 1.490 . S
C560 C562 1.395 . S
C560 C563 1.403 1_655 S
H561 C567 0.930 . S
C562 H548 0.930 . S
C562 C560 1.395 . S
C562 C565 1.403 1_545 S
C563 C560 1.403 1_455 S
C563 C564 1.524 . S
C563 C567 1.400 1_545 S
C564 H549 0.960 . S
C564 H550 0.960 . S
C564 H551 0.960 . S
C564 C563 1.524 . S
C565 C562 1.403 1_565 S
C565 C566 1.392 1_655 S
C565 C569 1.495 . S
C566 C565 1.392 1_455 S
C566 C567 1.385 . S
C566 C568 1.478 . S
C567 H561 0.930 . S
C567 C563 1.400 1_565 S
C567 C566 1.385 . S
C568 C566 1.478 . S
C568 C570 1.381 . S
C568 C574 1.383 . S
C569 C565 1.495 . S
C569 H575 0.959 . S
C569 H576 0.961 . S
C569 H577 0.960 . S
C570 C568 1.381 . S
C570 C571 1.394 . S
C570 H578 0.930 1_455 S
C571 C570 1.394 . S
C571 C572 1.383 . S
C571 H579 0.929 . S
C572 C571 1.383 . S
C572 C573 1.377 . S
C573 H557 0.930 . S
C573 C572 1.377 . S
C573 C574 1.379 . S
C574 H558 0.931 . S
C574 C568 1.383 . S
C574 C573 1.379 . S
H575 C569 0.959 . S
H576 C569 0.961 . S
H577 C569 0.960 . S
H578 C570 0.930 1_655 S
H579 C571 0.929 . S
H580 C588 0.929 . S
H581 C590 0.930 . S
H582 C592 0.930 . S
H583 C595 0.929 . S
H584 C598 0.930 . S
H585 C600 0.944 1_554 S
H586 C600 0.955 1_554 S
H587 C600 0.980 . S
C588 H580 0.929 . S
C588 C589 1.377 . S
C588 C590 1.384 . S
C589 C588 1.377 . S
C589 C595 1.390 . S
C590 H581 0.930 . S
C590 C588 1.384 . S
C590 C591 1.372 . S
C591 C590 1.372 . S
C591 C592 1.400 . S
C591 C596 1.490 . S
C592 H582 0.930 . S
C592 C591 1.400 . S
C592 C595 1.386 . S
H593 C609 0.930 . S
H594 C610 0.931 . S
C595 H583 0.929 . S
C595 C589 1.390 . S
C595 C592 1.386 . S
C596 C591 1.490 . S
C596 C598 1.395 . S
C596 C599 1.436 . S
H597 C603 0.930 . S
C598 H584 0.930 . S
C598 C596 1.395 . S
C598 C601 1.403 1_556 S
C599 C596 1.436 . S
C599 C600 1.523 . S
C599 C603 1.367 1_556 S
C600 H585 0.944 1_556 S
C600 H586 0.955 1_556 S
C600 H587 0.980 . S
C600 C599 1.523 . S
C601 C598 1.403 1_554 S
C601 C602 1.392 . S
C601 C605 1.495 . S
C602 C601 1.392 . S
C602 C603 1.385 . S
C602 C604 1.478 . S
C603 H597 0.930 . S
C603 C599 1.367 1_554 S
C603 C602 1.385 . S
C604 C602 1.478 . S
C604 C606 1.381 . S
C604 C610 1.383 . S
C605 C601 1.495 . S
C605 H611 0.959 1_554 S
C605 H612 0.961 1_554 S
C605 H613 0.960 . S
C606 C604 1.381 . S
C606 C607 1.394 . S
C606 H614 0.930 . S
C607 C606 1.394 . S
C607 C608 1.383 . S
C607 H615 0.929 . S
C608 C607 1.383 . S
C608 C609 1.377 . S
C609 H593 0.930 . S
C609 C608 1.377 . S
C609 C610 1.379 . S
C610 H594 0.931 . S
C610 C604 1.383 . S
C610 C609 1.379 . S
H611 C605 0.959 1_556 S
H612 C605 0.961 1_556 S
H613 C605 0.960 . S
H614 C606 0.930 . S
H615 C607 0.929 . S
H616 C624 0.929 . S
H617 C626 0.930 . S
H618 C628 0.930 . S
H619 C631 0.929 . S
H620 C634 0.930 . S
H621 C636 0.960 . S
H622 C636 0.960 . S
H623 C636 0.960 . S
C624 H616 0.929 . S
C624 C625 1.377 . S
C624 C626 1.384 . S
C625 C624 1.377 . S
C625 C631 1.390 . S
C626 H617 0.930 . S
C626 C624 1.384 . S
C626 C627 1.372 . S
C627 C626 1.372 . S
C627 C628 1.400 . S
C627 C632 1.490 . S
C628 H618 0.930 . S
C628 C627 1.400 . S
C628 C631 1.386 . S
H629 C645 0.930 . S
H630 C646 0.931 . S
C631 H619 0.929 . S
C631 C625 1.390 . S
C631 C628 1.386 . S
C632 C627 1.490 . S
C632 C634 1.395 . S
C632 C635 1.403 . S
H633 C639 0.930 . S
C634 H620 0.930 . S
C634 C632 1.395 . S
C634 C637 1.403 . S
C635 C632 1.403 . S
C635 C636 1.524 . S
C635 C639 1.400 . S
C636 H621 0.960 . S
C636 H622 0.960 . S
C636 H623 0.960 . S
C636 C635 1.524 . S
C637 C634 1.403 . S
C637 C638 1.392 . S
C637 C641 1.495 . S
C638 C637 1.392 . S
C638 C639 1.385 . S
C638 C640 1.478 . S
C639 H633 0.930 . S
C639 C635 1.400 . S
C639 C638 1.385 . S
C640 C638 1.478 . S
C640 C642 1.381 . S
C640 C646 1.383 . S
C641 C637 1.495 . S
C641 H647 0.959 . S
C641 H648 0.961 . S
C641 H649 0.960 . S
C642 C640 1.381 . S
C642 C643 1.394 . S
C642 H650 0.930 . S
C643 C642 1.394 . S
C643 C644 1.383 . S
C643 H651 0.929 . S
C644 C643 1.383 . S
C644 C645 1.377 . S
C645 H629 0.930 . S
C645 C644 1.377 . S
C645 C646 1.379 . S
C646 H630 0.931 . S
C646 C640 1.383 . S
C646 C645 1.379 . S
H647 C641 0.959 . S
H648 C641 0.961 . S
H649 C641 0.960 . S
H650 C642 0.930 . S
H651 C643 0.929 . S
H652 C660 0.929 . S
H653 C662 0.930 . S
H654 C664 0.930 . S
H655 C667 0.929 . S
H656 C670 0.930 . S
H657 C672 0.960 . S
H658 C672 0.960 . S
H659 C672 0.960 . S
C660 H652 0.929 . S
C660 C661 1.377 . S
C660 C662 1.384 . S
C661 C660 1.377 . S
C661 C667 1.390 . S
C662 H653 0.930 . S
C662 C660 1.384 . S
C662 C663 1.372 . S
C663 C662 1.372 . S
C663 C664 1.400 . S
C663 C668 1.490 . S
C664 H654 0.930 . S
C664 C663 1.400 . S
C664 C667 1.386 . S
H665 C681 0.930 . S
H666 C682 0.931 . S
C667 H655 0.929 . S
C667 C661 1.390 . S
C667 C664 1.386 . S
C668 C663 1.490 . S
C668 C670 1.395 . S
C668 C671 1.403 1_455 S
H669 C675 0.930 . S
C670 H656 0.930 . S
C670 C668 1.395 . S
C670 C673 1.403 . S
C671 C668 1.403 1_655 S
C671 C672 1.524 . S
C671 C675 1.400 . S
C672 H657 0.960 . S
C672 H658 0.960 . S
C672 H659 0.960 . S
C672 C671 1.524 . S
C673 C670 1.403 . S
C673 C674 1.392 1_455 S
C673 C677 1.495 . S
C674 C673 1.392 1_655 S
C674 C675 1.385 . S
C674 C676 1.478 . S
C675 H669 0.930 . S
C675 C671 1.400 . S
C675 C674 1.385 . S
C676 C674 1.478 . S
C676 C678 1.381 . S
C676 C682 1.383 . S
C677 C673 1.495 . S
C677 H683 0.959 . S
C677 H684 0.961 . S
C677 H685 0.960 . S
C678 C676 1.381 . S
C678 C679 1.394 . S
C678 H686 0.935 . S
C679 C678 1.394 . S
C679 C680 1.383 . S
C679 H687 0.929 . S
C680 C679 1.383 . S
C680 C681 1.377 . S
C681 H665 0.930 . S
C681 C680 1.377 . S
C681 C682 1.379 . S
C682 H666 0.931 . S
C682 C676 1.383 . S
C682 C681 1.379 . S
H683 C677 0.959 . S
H684 C677 0.961 . S
H685 C677 0.960 . S
H686 C678 0.935 . S
H687 C679 0.929 . S
H688 C696 0.929 . S
H689 C698 0.930 . S
H690 C700 0.930 . S
H691 C703 0.929 . S
H692 C706 0.930 . S
H693 C708 0.960 . S
H694 C708 0.960 . S
H695 C708 0.960 . S
C696 H688 0.929 . S
C696 C697 1.377 . S
C696 C698 1.384 . S
C697 C696 1.377 . S
C697 C703 1.390 . S
C698 H689 0.930 . S
C698 C696 1.384 . S
C698 C699 1.372 . S
C699 C698 1.372 . S
C699 C700 1.400 . S
C699 C704 1.490 . S
C700 H690 0.930 . S
C700 C699 1.400 . S
C700 C703 1.386 . S
H701 C717 0.930 . S
H702 C718 0.931 . S
C703 H691 0.929 . S
C703 C697 1.390 . S
C703 C700 1.386 . S
C704 C699 1.490 . S
C704 C706 1.395 . S
C704 C707 1.403 . S
H705 C711 0.930 . S
C706 H692 0.930 . S
C706 C704 1.395 . S
C706 C709 1.403 . S
C707 C704 1.403 . S
C707 C708 1.524 . S
C707 C711 1.400 . S
C708 H693 0.960 . S
C708 H694 0.960 . S
C708 H695 0.960 . S
C708 C707 1.524 . S
C709 C706 1.403 . S
C709 C710 1.392 . S
C709 C713 1.495 . S
C710 C709 1.392 . S
C710 C711 1.385 . S
C710 C712 1.478 . S
C711 H705 0.930 . S
C711 C707 1.400 . S
C711 C710 1.385 . S
C712 C710 1.478 . S
C712 C714 1.381 . S
C712 C718 1.383 . S
C713 C709 1.495 . S
C713 H719 0.959 . S
C713 H720 0.961 . S
C713 H721 0.960 . S
C714 C712 1.381 . S
C714 C715 1.394 . S
C714 H722 0.930 . S
C715 C714 1.394 . S
C715 C716 1.383 . S
C715 H723 0.929 . S
C716 C715 1.383 . S
C716 C717 1.377 . S
C717 H701 0.930 . S
C717 C716 1.377 . S
C717 C718 1.379 . S
C718 H702 0.931 . S
C718 C712 1.383 . S
C718 C717 1.379 . S
H719 C713 0.959 . S
H720 C713 0.961 . S
H721 C713 0.960 . S
H722 C714 0.930 . S
H723 C715 0.929 . S
H724 C732 0.929 . S
H725 C734 0.930 . S
H726 C736 0.930 1_455 S
H727 C739 0.939 . S
H728 C742 0.930 . S
H729 C744 0.960 . S
H730 C744 0.960 . S
H731 C744 0.960 . S
C732 H724 0.929 . S
C732 C733 1.377 . S
C732 C734 1.384 . S
C733 C732 1.377 . S
C733 C739 1.390 . S
C734 H725 0.930 . S
C734 C732 1.384 . S
C734 C735 1.372 . S
C735 C734 1.372 . S
C735 C736 1.400 . S
C735 C740 1.490 . S
C736 H726 0.930 1_655 S
C736 C735 1.400 . S
C736 C739 1.386 . S
H737 C753 0.930 . S
H738 C754 0.931 . S
C739 H727 0.939 . S
C739 C733 1.390 . S
C739 C736 1.386 . S
C740 C735 1.490 . S
C740 C742 1.395 . S
C740 C743 1.403 1_655 S
H741 C747 0.930 . S
C742 H728 0.930 . S
C742 C740 1.395 . S
C742 C745 1.403 . S
C743 C740 1.403 1_455 S
C743 C744 1.524 . S
C743 C747 1.400 . S
C744 H729 0.960 . S
C744 H730 0.960 . S
C744 H731 0.960 . S
C744 C743 1.524 . S
C745 C742 1.403 . S
C745 C746 1.392 1_655 S
C745 C749 1.495 . S
C746 C745 1.392 1_455 S
C746 C747 1.385 . S
C746 C748 1.478 . S
C747 H741 0.930 . S
C747 C743 1.400 . S
C747 C746 1.385 . S
C748 C746 1.478 . S
C748 C750 1.389 . S
C748 C754 1.383 . S
C749 C745 1.495 . S
C749 H755 0.959 . S
C749 H756 0.961 . S
C749 H757 0.960 . S
C750 C748 1.389 . S
C750 C751 1.401 . S
C750 H758 0.916 1_455 S
C751 C750 1.401 . S
C751 C752 1.383 . S
C751 H759 0.929 . S
C752 C751 1.383 . S
C752 C753 1.377 . S
C753 H737 0.930 . S
C753 C752 1.377 . S
C753 C754 1.379 . S
C754 H738 0.931 . S
C754 C748 1.383 . S
C754 C753 1.379 . S
H755 C749 0.959 . S
H756 C749 0.961 . S
H757 C749 0.960 . S
H758 C750 0.916 1_655 S
H759 C751 0.929 . S
H760 C768 0.929 . S
H761 C770 0.930 . S
H762 C772 0.930 . S
H763 C775 0.929 . S
H764 C778 0.930 . S
H765 C780 0.960 . S
H766 C780 0.960 . S
H767 C780 0.960 . S
C768 H760 0.929 . S
C768 C769 1.377 . S
C768 C770 1.384 . S
C769 C768 1.377 . S
C769 C775 1.390 . S
C770 H761 0.930 . S
C770 C768 1.384 . S
C770 C771 1.372 . S
C771 C770 1.372 . S
C771 C772 1.400 . S
C771 C776 1.490 . S
C772 H762 0.930 . S
C772 C771 1.400 . S
C772 C775 1.386 . S
H773 C789 0.930 . S
H774 C790 0.931 . S
C775 H763 0.929 . S
C775 C769 1.390 . S
C775 C772 1.386 . S
C776 C771 1.490 . S
C776 C778 1.395 . S
C776 C779 1.403 . S
H777 C783 0.930 . S
C778 H764 0.930 . S
C778 C776 1.395 . S
C778 C781 1.403 . S
C779 C776 1.403 . S
C779 C780 1.524 . S
C779 C783 1.400 . S
C780 H765 0.960 . S
C780 H766 0.960 . S
C780 H767 0.960 . S
C780 C779 1.524 . S
C781 C778 1.403 . S
C781 C782 1.392 . S
C781 C785 1.495 . S
C782 C781 1.392 . S
C782 C783 1.385 . S
C782 C784 1.478 . S
C783 H777 0.930 . S
C783 C779 1.400 . S
C783 C782 1.385 . S
C784 C782 1.478 . S
C784 C786 1.381 . S
C784 C790 1.383 . S
C785 C781 1.495 . S
C785 H791 0.959 . S
C785 H792 0.961 . S
C785 H793 0.960 . S
C786 C784 1.381 . S
C786 C787 1.394 . S
C786 H794 0.930 . S
C787 C786 1.394 . S
C787 C788 1.383 . S
C787 H795 0.929 . S
C788 C787 1.383 . S
C788 C789 1.377 . S
C789 H773 0.930 . S
C789 C788 1.377 . S
C789 C790 1.379 . S
C790 H774 0.931 . S
C790 C784 1.383 . S
C790 C789 1.379 . S
H791 C785 0.959 . S
H792 C785 0.961 . S
H793 C785 0.960 . S
H794 C786 0.930 . S
H795 C787 0.929 . S
H796 C804 0.936 . S
H797 C806 0.930 . S
H798 C808 0.930 . S
H799 C811 0.929 . S
H800 C814 0.930 . S
H801 C816 0.960 . S
H802 C816 0.960 . S
H803 C816 0.960 . S
C804 H796 0.936 . S
C804 C805 1.377 1_455 S
C804 C806 1.378 1_455 S
C805 C804 1.377 1_655 S
C805 C811 1.402 . S
C806 H797 0.930 . S
C806 C804 1.378 1_655 S
C806 C807 1.372 . S
C807 C806 1.372 . S
C807 C808 1.400 . S
C807 C812 1.490 . S
C808 H798 0.930 . S
C808 C807 1.400 . S
C808 C811 1.386 . S
H809 C825 0.930 . S
H810 C826 0.931 1_556 S
C811 H799 0.929 . S
C811 C805 1.402 . S
C811 C808 1.386 . S
C812 C807 1.490 . S
C812 C814 1.395 . S
C812 C815 1.403 . S
H813 C819 0.930 . S
C814 H800 0.930 . S
C814 C812 1.395 . S
C814 C817 1.403 1_556 S
C815 C812 1.403 . S
C815 C816 1.524 . S
C815 C819 1.400 . S
C816 H801 0.960 . S
C816 H802 0.960 . S
C816 H803 0.960 . S
C816 C815 1.524 . S
C817 C814 1.403 1_554 S
C817 C818 1.392 . S
C817 C821 1.495 . S
C818 C817 1.392 . S
C818 C819 1.385 1_554 S
C818 C820 1.478 . S
C819 H813 0.930 . S
C819 C815 1.400 . S
C819 C818 1.385 1_556 S
C820 C818 1.478 . S
C820 C822 1.381 . S
C820 C826 1.383 . S
C821 C817 1.495 . S
C821 H827 0.959 . S
C821 H828 0.961 . S
C821 H829 0.960 . S
C822 C820 1.381 . S
C822 C823 1.394 . S
C822 H830 0.930 . S
C823 C822 1.394 . S
C823 C824 1.383 . S
C823 H831 0.929 . S
C824 C823 1.383 . S
C824 C825 1.377 . S
C825 H809 0.930 . S
C825 C824 1.377 . S
C825 C826 1.379 . S
C826 H810 0.931 1_554 S
C826 C820 1.383 . S
C826 C825 1.379 . S
H827 C821 0.959 . S
H828 C821 0.961 . S
H829 C821 0.960 . S
H830 C822 0.930 . S
H831 C823 0.929 . S
H832 C840 0.929 . S
H833 C842 0.930 . S
H834 C844 0.930 . S
H835 C847 0.929 1_655 S
H836 C850 0.930 . S
H837 C852 0.960 . S
H838 C852 0.960 . S
H839 C852 0.960 . S
C840 H832 0.929 . S
C840 C841 1.389 . S
C840 C842 1.384 . S
C841 C840 1.389 . S
C841 C847 1.392 . S
C842 H833 0.930 . S
C842 C840 1.384 . S
C842 C843 1.372 . S
C843 C842 1.372 . S
C843 C844 1.400 . S
C843 C848 1.490 . S
C844 H834 0.930 . S
C844 C843 1.400 . S
C844 C847 1.386 . S
H845 C861 0.930 . S
H846 C862 0.931 . S
C847 H835 0.929 1_455 S
C847 C841 1.392 . S
C847 C844 1.386 . S
C848 C843 1.490 . S
C848 C850 1.395 . S
C848 C851 1.403 . S
H849 C855 0.930 . S
C850 H836 0.930 . S
C850 C848 1.395 . S
C850 C853 1.403 . S
C851 C848 1.403 . S
C851 C852 1.524 . S
C851 C855 1.400 . S
C852 H837 0.960 . S
C852 H838 0.960 . S
C852 H839 0.960 . S
C852 C851 1.524 . S
C853 C850 1.403 . S
C853 C854 1.392 . S
C853 C857 1.495 . S
C854 C853 1.392 . S
C854 C855 1.385 . S
C854 C856 1.478 . S
C855 H849 0.930 . S
C855 C851 1.400 . S
C855 C854 1.385 . S
C856 C854 1.478 . S
C856 C858 1.381 . S
C856 C862 1.383 . S
C857 C853 1.495 . S
C857 H863 0.959 . S
C857 H864 0.961 . S
C857 H865 0.960 . S
C858 C856 1.381 . S
C858 C859 1.394 . S
C858 H866 0.930 . S
C859 C858 1.394 . S
C859 C860 1.383 . S
C859 H867 0.929 . S
C860 C859 1.383 . S
C860 C861 1.377 . S
C861 H845 0.930 . S
C861 C860 1.377 . S
C861 C862 1.379 . S
C862 H846 0.931 . S
C862 C856 1.383 . S
C862 C861 1.379 . S
H863 C857 0.959 . S
H864 C857 0.961 . S
H865 C857 0.960 . S
H866 C858 0.930 . S
H867 C859 0.929 . S
H868 C876 0.929 . S
H869 C878 0.930 . S
H870 C880 0.930 . S
H871 C883 0.929 . S
H872 C886 0.930 . S
H873 C888 0.960 . S
H874 C888 0.960 . S
H875 C888 0.960 . S
C876 H868 0.929 . S
C876 C877 1.377 . S
C876 C878 1.384 . S
C877 C876 1.377 . S
C877 C883 1.390 . S
C878 H869 0.930 . S
C878 C876 1.384 . S
C878 C879 1.372 . S
C879 C878 1.372 . S
C879 C880 1.400 . S
C879 C884 1.490 . S
C880 H870 0.930 . S
C880 C879 1.400 . S
C880 C883 1.386 . S
H881 C897 0.930 . S
H882 C898 0.931 . S
C883 H871 0.929 . S
C883 C877 1.390 . S
C883 C880 1.386 . S
C884 C879 1.490 . S
C884 C886 1.395 1_554 S
C884 C887 1.403 . S
H885 C891 0.930 . S
C886 H872 0.930 . S
C886 C884 1.395 1_556 S
C886 C889 1.403 . S
C887 C884 1.403 . S
C887 C888 1.524 . S
C887 C891 1.400 . S
C888 H873 0.960 . S
C888 H874 0.960 . S
C888 H875 0.960 . S
C888 C887 1.524 . S
C889 C886 1.403 . S
C889 C890 1.392 . S
C889 C893 1.495 . S
C890 C889 1.392 . S
C890 C891 1.385 1_556 S
C890 C892 1.478 . S
C891 H885 0.930 . S
C891 C887 1.400 . S
C891 C890 1.385 1_554 S
C892 C890 1.478 . S
C892 C894 1.381 . S
C892 C898 1.383 . S
C893 C889 1.495 . S
C893 H899 0.959 . S
C893 H900 0.961 . S
C893 H901 0.960 . S
C894 C892 1.381 . S
C894 C895 1.394 . S
C894 H902 0.930 . S
C895 C894 1.394 . S
C895 C896 1.383 . S
C895 H903 0.929 . S
C896 C895 1.383 . S
C896 C897 1.377 . S
C897 H881 0.930 . S
C897 C896 1.377 . S
C897 C898 1.379 . S
C898 H882 0.931 . S
C898 C892 1.383 . S
C898 C897 1.379 . S
H899 C893 0.959 . S
H900 C893 0.961 . S
H901 C893 0.960 . S
H902 C894 0.930 . S
H903 C895 0.929 . S
H904 C912 0.929 . S
H905 C914 0.930 . S
H906 C916 0.930 . S
H907 C919 0.929 . S
H908 C922 0.930 . S
H909 C924 0.960 . S
H910 C924 0.960 . S
H911 C924 0.960 . S
C912 H904 0.929 . S
C912 C913 1.377 . S
C912 C914 1.384 . S
C913 C912 1.377 . S
C913 C919 1.390 . S
C914 H905 0.930 . S
C914 C912 1.384 . S
C914 C915 1.372 . S
C915 C914 1.372 . S
C915 C916 1.400 . S
C915 C920 1.490 . S
C916 H906 0.930 . S
C916 C915 1.400 . S
C916 C919 1.386 . S
H917 C933 0.930 . S
H918 C934 0.931 . S
C919 H907 0.929 . S
C919 C913 1.390 . S
C919 C916 1.386 . S
C920 C915 1.490 . S
C920 C922 1.395 . S
C920 C923 1.403 . S
H921 C927 0.930 . S
C922 H908 0.930 . S
C922 C920 1.395 . S
C922 C925 1.403 . S
C923 C920 1.403 . S
C923 C924 1.524 . S
C923 C927 1.400 . S
C924 H909 0.960 . S
C924 H910 0.960 . S
C924 H911 0.960 . S
C924 C923 1.524 . S
C925 C922 1.403 . S
C925 C926 1.392 . S
C925 C929 1.495 . S
C926 C925 1.392 . S
C926 C927 1.385 . S
C926 C928 1.478 . S
C927 H921 0.930 . S
C927 C923 1.400 . S
C927 C926 1.385 . S
C928 C926 1.478 . S
C928 C930 1.381 . S
C928 C934 1.383 . S
C929 C925 1.495 . S
C929 H935 0.959 . S
C929 H936 0.961 . S
C929 H937 0.960 . S
C930 C928 1.381 . S
C930 C931 1.394 . S
C930 H938 0.930 . S
C931 C930 1.394 . S
C931 C932 1.383 . S
C931 H939 0.929 . S
C932 C931 1.383 . S
C932 C933 1.377 . S
C933 H917 0.930 . S
C933 C932 1.377 . S
C933 C934 1.379 . S
C934 H918 0.931 . S
C934 C928 1.383 . S
C934 C933 1.379 . S
H935 C929 0.959 . S
H936 C929 0.961 . S
H937 C929 0.960 . S
H938 C930 0.930 . S
H939 C931 0.929 . S
H940 C948 0.914 1_655 S
H941 C950 0.930 . S
H942 C952 0.930 . S
H943 C955 0.929 . S
H944 C958 0.917 1_556 S
H945 C960 0.960 . S
H946 C960 0.960 . S
H947 C960 0.960 . S
C948 H940 0.914 1_455 S
C948 C949 1.386 . S
C948 C950 1.384 . S
C949 C948 1.386 . S
C949 C955 1.404 . S
C950 H941 0.930 . S
C950 C948 1.384 . S
C950 C951 1.372 . S
C951 C950 1.372 . S
C951 C952 1.400 . S
C951 C956 1.490 . S
C952 H942 0.930 . S
C952 C951 1.400 . S
C952 C955 1.386 . S
H953 C969 0.930 . S
H954 C970 0.931 . S
C955 H943 0.929 . S
C955 C949 1.404 . S
C955 C952 1.386 . S
C956 C951 1.490 . S
C956 C958 1.437 . S
C956 C959 1.403 . S
H957 C963 0.930 . S
C958 H944 0.917 1_554 S
C958 C956 1.437 . S
C958 C961 1.376 1_554 S
C959 C956 1.403 . S
C959 C960 1.524 . S
C959 C963 1.400 . S
C960 H945 0.960 . S
C960 H946 0.960 . S
C960 H947 0.960 . S
C960 C959 1.524 . S
C961 C958 1.376 1_556 S
C961 C962 1.392 . S
C961 C965 1.495 . S
C962 C961 1.392 . S
C962 C963 1.385 1_556 S
C962 C964 1.478 . S
C963 H957 0.930 . S
C963 C959 1.400 . S
C963 C962 1.385 1_554 S
C964 C962 1.478 . S
C964 C966 1.381 . S
C964 C970 1.383 . S
C965 C961 1.495 . S
C965 H971 0.959 . S
C965 H972 0.961 . S
C965 H973 0.960 . S
C966 C964 1.381 . S
C966 C967 1.394 . S
C966 H974 0.930 . S
C967 C966 1.394 . S
C967 C968 1.383 . S
C967 H975 0.929 . S
C968 C967 1.383 . S
C968 C969 1.377 . S
C969 H953 0.930 . S
C969 C968 1.377 . S
C969 C970 1.379 . S
C970 H954 0.931 . S
C970 C964 1.383 . S
C970 C969 1.379 . S
H971 C965 0.959 . S
H972 C965 0.961 . S
H973 C965 0.960 . S
H974 C966 0.930 . S
H975 C967 0.929 . S
H976 C984 0.945 . S
H977 C986 0.930 . S
H978 C988 0.930 . S
H979 C991 0.929 . S
H980 C994 0.930 . S
H981 C996 0.960 . S
H982 C996 0.960 . S
H983 C996 0.960 . S
C984 H976 0.945 . S
C984 C985 1.377 1_455 S
C984 C986 1.369 1_455 S
C985 C984 1.377 1_655 S
C985 C991 1.401 . S
C986 H977 0.930 . S
C986 C984 1.369 1_655 S
C986 C987 1.372 . S
C987 C986 1.372 . S
C987 C988 1.400 . S
C987 C992 1.490 . S
C988 H978 0.930 . S
C988 C987 1.400 . S
C988 C991 1.386 . S
H989 C1005 0.930 . S
H990 C1006 0.931 . S
C991 H979 0.929 . S
C991 C985 1.401 . S
C991 C988 1.386 . S
C992 C987 1.490 . S
C992 C994 1.395 . S
C992 C995 1.403 . S
H993 C999 0.930 . S
C994 H980 0.930 . S
C994 C992 1.395 . S
C994 C997 1.403 . S
C995 C992 1.403 . S
C995 C996 1.524 . S
C995 C999 1.400 . S
C996 H981 0.960 . S
C996 H982 0.960 . S
C996 H983 0.960 . S
C996 C995 1.524 . S
C997 C994 1.403 . S
C997 C998 1.392 . S
C997 C1001 1.495 . S
C998 C997 1.392 . S
C998 C999 1.385 . S
C998 C1000 1.478 . S
C999 H993 0.930 . S
C999 C995 1.400 . S
C999 C998 1.385 . S
C1000 C998 1.478 . S
C1000 C1002 1.381 . S
C1000 C1006 1.383 . S
C1001 C997 1.495 . S
C1001 H1007 0.959 . S
C1001 H1008 0.961 . S
C1001 H1009 0.960 . S
C1002 C1000 1.381 . S
C1002 C1003 1.394 . S
C1002 H1010 0.930 . S
C1003 C1002 1.394 . S
C1003 C1004 1.383 . S
C1003 H1011 0.929 . S
C1004 C1003 1.383 . S
C1004 C1005 1.377 . S
C1005 H989 0.930 . S
C1005 C1004 1.377 . S
C1005 C1006 1.379 . S
C1006 H990 0.931 . S
C1006 C1000 1.383 . S
C1006 C1005 1.379 . S
H1007 C1001 0.959 . S
H1008 C1001 0.961 . S
H1009 C1001 0.960 . S
H1010 C1002 0.930 . S
H1011 C1003 0.929 . S
H1012 C1020 0.929 . S
H1013 C1022 0.930 . S
H1014 C1024 0.930 1_556 S
H1015 C1027 0.929 . S
H1016 C1030 0.943 . S
H1017 C1032 0.960 . S
H1018 C1032 0.960 1_554 S
H1019 C1032 0.960 . S
C1020 H1012 0.929 . S
C1020 C1021 1.377 . S
C1020 C1022 1.384 . S
C1021 C1020 1.377 . S
C1021 C1027 1.390 . S
C1022 H1013 0.930 . S
C1022 C1020 1.384 . S
C1022 C1023 1.372 . S
C1023 C1022 1.372 . S
C1023 C1024 1.400 . S
C1023 C1028 1.490 . S
C1024 H1014 0.930 1_554 S
C1024 C1023 1.400 . S
C1024 C1027 1.386 . S
H1025 C1041 0.930 . S
H1026 C1042 0.931 . S
C1027 H1015 0.929 . S
C1027 C1021 1.390 . S
C1027 C1024 1.386 . S
C1028 C1023 1.490 . S
C1028 C1030 1.399 . S
C1028 C1031 1.403 1_554 S
H1029 C1035 0.930 . S
C1030 H1016 0.943 . S
C1030 C1028 1.399 . S
C1030 C1033 1.388 1_554 S
C1031 C1028 1.403 1_556 S
C1031 C1032 1.524 . S
C1031 C1035 1.400 . S
C1032 H1017 0.960 . S
C1032 H1018 0.960 1_556 S
C1032 H1019 0.960 . S
C1032 C1031 1.524 . S
C1033 C1030 1.388 1_556 S
C1033 C1034 1.392 . S
C1033 C1037 1.495 . S
C1034 C1033 1.392 . S
C1034 C1035 1.385 . S
C1034 C1036 1.478 . S
C1035 H1029 0.930 . S
C1035 C1031 1.400 . S
C1035 C1034 1.385 . S
C1036 C1034 1.478 . S
C1036 C1038 1.381 . S
C1036 C1042 1.383 . S
C1037 C1033 1.495 . S
C1037 H1043 0.959 . S
C1037 H1044 0.961 . S
C1037 H1045 0.960 . S
C1038 C1036 1.381 . S
C1038 C1039 1.394 . S
C1038 H1046 0.930 . S
C1039 C1038 1.394 . S
C1039 C1040 1.383 . S
C1039 H1047 0.929 . S
C1040 C1039 1.383 . S
C1040 C1041 1.377 . S
C1041 H1025 0.930 . S
C1041 C1040 1.377 . S
C1041 C1042 1.379 . S
C1042 H1026 0.931 . S
C1042 C1036 1.383 . S
C1042 C1041 1.379 . S
H1043 C1037 0.959 . S
H1044 C1037 0.961 . S
H1045 C1037 0.960 . S
H1046 C1038 0.930 . S
H1047 C1039 0.929 . S
C193 C156 1.528 . S
C212 C17 1.526 . S
C229 C40 1.512 . S
C248 C179 1.534 . S
C265 C110 1.526 . S
C284 C63 1.513 . S
C301 C86 1.508 . S
C320 C133 1.521 . S
C337 C64 1.523 . S
C356 C109 1.496 . S
C373 C132 1.511 . S
C392 C87 1.506 . S
C409 C18 1.522 . S
C428 C155 1.506 . S
C445 C41 1.526 . S
C464 C178 1.485 . S
C481 C16 0.628 . S
C500 C108 0.626 . S
C517 C131 0.628 . S
C536 C39 0.627 . S
C553 C62 0.647 . S
C572 C154 0.669 . S
C589 C177 0.628 . S
C608 C85 0.615 . S
C625 C89 1.257 . S
C644 C20 1.258 . S
C661 C43 1.257 . S
C680 C66 1.248 . S
C697 C181 1.256 . S
C716 C112 1.253 . S
C733 C135 1.256 . S
C752 C158 1.252 . S
C769 C21 1.642 . S
C788 C65 1.613 . S
C805 C44 1.629 1_655 S
C824 C88 1.580 . S
C841 C67 1.628 1_455 S
C860 C19 1.618 . S
C877 C90 1.642 . S
C896 C42 1.593 . S
C913 C113 1.643 . S
C932 C157 1.580 . S
C949 C136 1.621 1_455 S
C968 C180 1.583 . S
C985 C159 1.631 1_655 S
C1004 C111 1.606 . S
C1021 C134 1.604 . S
C1040 C182 1.640 . S
