# Generated by pormake.
# Topology sxg, (6)-cn, num edge types: 1
# Building blocks:
#     Node 0, Type 0, BuildingBlock: CIFDUS_clean_sbu_1, # of connection points: 6
#     Node 1, Type 0, BuildingBlock: CIFDUS_clean_sbu_1, # of connection points: 6
#     Node 2, Type 0, BuildingBlock: CIFDUS_clean_sbu_1, # of connection points: 6
#     Node 3, Type 0, BuildingBlock: CIFDUS_clean_sbu_1, # of connection points: 6
#     Node 4, Type 0, BuildingBlock: CIFDUS_clean_sbu_1, # of connection points: 6
#     Node 5, Type 0, BuildingBlock: CIFDUS_clean_sbu_1, # of connection points: 6
#     Node 6, Type 0, BuildingBlock: CIFDUS_clean_sbu_1, # of connection points: 6
#     Node 7, Type 0, BuildingBlock: CIFDUS_clean_sbu_1, # of connection points: 6
#     Node 8, Type 0, BuildingBlock: CIFDUS_clean_sbu_1, # of connection points: 6
#     Node 9, Type 0, BuildingBlock: CIFDUS_clean_sbu_1, # of connection points: 6
#     Node 10, Type 0, BuildingBlock: CIFDUS_clean_sbu_1, # of connection points: 6
#     Node 11, Type 0, BuildingBlock: CIFDUS_clean_sbu_1, # of connection points: 6
#     Node 12, Type 0, BuildingBlock: CIFDUS_clean_sbu_1, # of connection points: 6
#     Node 13, Type 0, BuildingBlock: CIFDUS_clean_sbu_1, # of connection points: 6
#     Node 14, Type 0, BuildingBlock: CIFDUS_clean_sbu_1, # of connection points: 6
#     Node 15, Type 0, BuildingBlock: CIFDUS_clean_sbu_1, # of connection points: 6
#     Node 16, Type 0, BuildingBlock: CIFDUS_clean_sbu_1, # of connection points: 6
#     Node 17, Type 0, BuildingBlock: CIFDUS_clean_sbu_1, # of connection points: 6
#     Node 18, Type 0, BuildingBlock: CIFDUS_clean_sbu_1, # of connection points: 6
#     Node 19, Type 0, BuildingBlock: CIFDUS_clean_sbu_1, # of connection points: 6
#     Node 20, Type 0, BuildingBlock: CIFDUS_clean_sbu_1, # of connection points: 6
#     Node 21, Type 0, BuildingBlock: CIFDUS_clean_sbu_1, # of connection points: 6
#     Node 22, Type 0, BuildingBlock: CIFDUS_clean_sbu_1, # of connection points: 6
#     Node 23, Type 0, BuildingBlock: CIFDUS_clean_sbu_1, # of connection points: 6
#     Edge 24, Type (0, 0), BuildingBlock: OJICUG_clean_linker_0, # of connection points: 2
#     Edge 25, Type (0, 0), BuildingBlock: OJICUG_clean_linker_0, # of connection points: 2
#     Edge 26, Type (0, 0), BuildingBlock: OJICUG_clean_linker_0, # of connection points: 2
#     Edge 27, Type (0, 0), BuildingBlock: OJICUG_clean_linker_0, # of connection points: 2
#     Edge 28, Type (0, 0), BuildingBlock: OJICUG_clean_linker_0, # of connection points: 2
#     Edge 29, Type (0, 0), BuildingBlock: OJICUG_clean_linker_0, # of connection points: 2
#     Edge 30, Type (0, 0), BuildingBlock: OJICUG_clean_linker_0, # of connection points: 2
#     Edge 31, Type (0, 0), BuildingBlock: OJICUG_clean_linker_0, # of connection points: 2
#     Edge 32, Type (0, 0), BuildingBlock: OJICUG_clean_linker_0, # of connection points: 2
#     Edge 33, Type (0, 0), BuildingBlock: OJICUG_clean_linker_0, # of connection points: 2
#     Edge 34, Type (0, 0), BuildingBlock: OJICUG_clean_linker_0, # of connection points: 2
#     Edge 35, Type (0, 0), BuildingBlock: OJICUG_clean_linker_0, # of connection points: 2
#     Edge 36, Type (0, 0), BuildingBlock: OJICUG_clean_linker_0, # of connection points: 2
#     Edge 37, Type (0, 0), BuildingBlock: OJICUG_clean_linker_0, # of connection points: 2
#     Edge 38, Type (0, 0), BuildingBlock: OJICUG_clean_linker_0, # of connection points: 2
#     Edge 39, Type (0, 0), BuildingBlock: OJICUG_clean_linker_0, # of connection points: 2
#     Edge 40, Type (0, 0), BuildingBlock: OJICUG_clean_linker_0, # of connection points: 2
#     Edge 41, Type (0, 0), BuildingBlock: OJICUG_clean_linker_0, # of connection points: 2
#     Edge 42, Type (0, 0), BuildingBlock: OJICUG_clean_linker_0, # of connection points: 2
#     Edge 43, Type (0, 0), BuildingBlock: OJICUG_clean_linker_0, # of connection points: 2
#     Edge 44, Type (0, 0), BuildingBlock: OJICUG_clean_linker_0, # of connection points: 2
#     Edge 45, Type (0, 0), BuildingBlock: OJICUG_clean_linker_0, # of connection points: 2
#     Edge 46, Type (0, 0), BuildingBlock: OJICUG_clean_linker_0, # of connection points: 2
#     Edge 47, Type (0, 0), BuildingBlock: OJICUG_clean_linker_0, # of connection points: 2
#     Edge 48, Type (0, 0), BuildingBlock: OJICUG_clean_linker_0, # of connection points: 2
#     Edge 49, Type (0, 0), BuildingBlock: OJICUG_clean_linker_0, # of connection points: 2
#     Edge 50, Type (0, 0), BuildingBlock: OJICUG_clean_linker_0, # of connection points: 2
#     Edge 51, Type (0, 0), BuildingBlock: OJICUG_clean_linker_0, # of connection points: 2
#     Edge 52, Type (0, 0), BuildingBlock: OJICUG_clean_linker_0, # of connection points: 2
#     Edge 53, Type (0, 0), BuildingBlock: OJICUG_clean_linker_0, # of connection points: 2
#     Edge 54, Type (0, 0), BuildingBlock: OJICUG_clean_linker_0, # of connection points: 2
#     Edge 55, Type (0, 0), BuildingBlock: OJICUG_clean_linker_0, # of connection points: 2
#     Edge 56, Type (0, 0), BuildingBlock: OJICUG_clean_linker_0, # of connection points: 2
#     Edge 57, Type (0, 0), BuildingBlock: OJICUG_clean_linker_0, # of connection points: 2
#     Edge 58, Type (0, 0), BuildingBlock: OJICUG_clean_linker_0, # of connection points: 2
#     Edge 59, Type (0, 0), BuildingBlock: OJICUG_clean_linker_0, # of connection points: 2
#     Edge 60, Type (0, 0), BuildingBlock: OJICUG_clean_linker_0, # of connection points: 2
#     Edge 61, Type (0, 0), BuildingBlock: OJICUG_clean_linker_0, # of connection points: 2
#     Edge 62, Type (0, 0), BuildingBlock: OJICUG_clean_linker_0, # of connection points: 2
#     Edge 63, Type (0, 0), BuildingBlock: OJICUG_clean_linker_0, # of connection points: 2
#     Edge 64, Type (0, 0), BuildingBlock: OJICUG_clean_linker_0, # of connection points: 2
#     Edge 65, Type (0, 0), BuildingBlock: OJICUG_clean_linker_0, # of connection points: 2
#     Edge 66, Type (0, 0), BuildingBlock: OJICUG_clean_linker_0, # of connection points: 2
#     Edge 67, Type (0, 0), BuildingBlock: OJICUG_clean_linker_0, # of connection points: 2
#     Edge 68, Type (0, 0), BuildingBlock: OJICUG_clean_linker_0, # of connection points: 2
#     Edge 69, Type (0, 0), BuildingBlock: OJICUG_clean_linker_0, # of connection points: 2
#     Edge 70, Type (0, 0), BuildingBlock: OJICUG_clean_linker_0, # of connection points: 2
#     Edge 71, Type (0, 0), BuildingBlock: OJICUG_clean_linker_0, # of connection points: 2
#     Edge 72, Type (0, 0), BuildingBlock: OJICUG_clean_linker_0, # of connection points: 2
#     Edge 73, Type (0, 0), BuildingBlock: OJICUG_clean_linker_0, # of connection points: 2
#     Edge 74, Type (0, 0), BuildingBlock: OJICUG_clean_linker_0, # of connection points: 2
#     Edge 75, Type (0, 0), BuildingBlock: OJICUG_clean_linker_0, # of connection points: 2
#     Edge 76, Type (0, 0), BuildingBlock: OJICUG_clean_linker_0, # of connection points: 2
#     Edge 77, Type (0, 0), BuildingBlock: OJICUG_clean_linker_0, # of connection points: 2
#     Edge 78, Type (0, 0), BuildingBlock: OJICUG_clean_linker_0, # of connection points: 2
#     Edge 79, Type (0, 0), BuildingBlock: OJICUG_clean_linker_0, # of connection points: 2
#     Edge 80, Type (0, 0), BuildingBlock: OJICUG_clean_linker_0, # of connection points: 2
#     Edge 81, Type (0, 0), BuildingBlock: OJICUG_clean_linker_0, # of connection points: 2
#     Edge 82, Type (0, 0), BuildingBlock: OJICUG_clean_linker_0, # of connection points: 2
#     Edge 83, Type (0, 0), BuildingBlock: OJICUG_clean_linker_0, # of connection points: 2
#     Edge 84, Type (0, 0), BuildingBlock: OJICUG_clean_linker_0, # of connection points: 2
#     Edge 85, Type (0, 0), BuildingBlock: OJICUG_clean_linker_0, # of connection points: 2
#     Edge 86, Type (0, 0), BuildingBlock: OJICUG_clean_linker_0, # of connection points: 2
#     Edge 87, Type (0, 0), BuildingBlock: OJICUG_clean_linker_0, # of connection points: 2
#     Edge 88, Type (0, 0), BuildingBlock: OJICUG_clean_linker_0, # of connection points: 2
#     Edge 89, Type (0, 0), BuildingBlock: OJICUG_clean_linker_0, # of connection points: 2
#     Edge 90, Type (0, 0), BuildingBlock: OJICUG_clean_linker_0, # of connection points: 2
#     Edge 91, Type (0, 0), BuildingBlock: OJICUG_clean_linker_0, # of connection points: 2
#     Edge 92, Type (0, 0), BuildingBlock: OJICUG_clean_linker_0, # of connection points: 2
#     Edge 93, Type (0, 0), BuildingBlock: OJICUG_clean_linker_0, # of connection points: 2
#     Edge 94, Type (0, 0), BuildingBlock: OJICUG_clean_linker_0, # of connection points: 2
#     Edge 95, Type (0, 0), BuildingBlock: OJICUG_clean_linker_0, # of connection points: 2
# Relax obj value: 0.175
# Max RMSD: 0.239
# Mean RMSD: 0.239
data_MOF--net-sxg--node1-CIFDUS_clean_sbu_1--edge1-OJICUG_clean_linker_0
_symmetry_space_group_name_H-M    P1
_symmetry_Int_Tables_number       1
_symmetry_cell_setting            triclinic
loop_
_symmetry_equiv_pos_as_xyz
'x, y, z'
_cell_length_a     32.572711
_cell_length_b     32.6416
_cell_length_c     32.447329
_cell_angle_alpha  90.473825
_cell_angle_beta   90.431726
_cell_angle_gamma 89.946862
loop_
_atom_site_label
_atom_site_type_symbol
_atom_site_fract_x
_atom_site_fract_y
_atom_site_fract_z
_atom_type_partial_charge
O0 O 0.06942 0.30973 0.1865 0.0
Mn1 Mn 0.02544 0.30576 0.23284 0.0
O2 O 0.06364 0.24833 0.15341 0.0
Mn3 Mn 0.01876 0.22526 0.18031 0.0
O4 O 0.98039 0.29779 0.27814 0.0
O5 O 0.0582 0.34616 0.26765 0.0
Mn6 Mn 0.02226 0.37811 0.2929 0.0
O7 O 0.99016 0.35309 0.208 0.0
O8 O 0.98818 0.34752 0.32546 0.0
O9 O 0.05899 0.25629 0.25879 0.0
O10 O 0.03167 0.19965 0.22941 0.0
O11 O 0.07211 0.39649 0.31068 0.0
O12 O 0.99459 0.40633 0.25207 0.0
C13 C 0.96358 0.26202 0.1722 0.0
C14 C 0.08059 0.28344 0.15887 0.0
C15 C 0.97022 0.31556 0.31194 0.0
C16 C 0.08591 0.36955 0.28467 0.0
C17 C 0.98095 0.38977 0.21902 0.0
C18 C 0.05399 0.217 0.25698 0.0
O19 O 0.99273 0.26831 0.19802 0.0
O20 O 0.96754 0.2272 0.15349 0.0
O21 O 0.52702 0.66652 0.71627 0.0
Mn22 Mn 0.48852 0.71214 0.73872 0.0
O23 O 0.53812 0.62849 0.77345 0.0
Mn24 Mn 0.50103 0.65275 0.80975 0.0
O25 O 0.45134 0.75828 0.76503 0.0
O26 O 0.51341 0.75062 0.69891 0.0
Mn27 Mn 0.47979 0.79055 0.6874 0.0
O28 O 0.44279 0.69966 0.69569 0.0
O29 O 0.47406 0.81638 0.73762 0.0
O30 O 0.53555 0.72869 0.78025 0.0
O31 O 0.52192 0.69698 0.839 0.0
O32 O 0.52443 0.79616 0.65285 0.0
O33 O 0.43376 0.7624 0.66718 0.0
C34 C 0.43749 0.64629 0.79432 0.0
C35 C 0.54521 0.63748 0.73579 0.0
C36 C 0.45521 0.79751 0.76582 0.0
C37 C 0.53619 0.76202 0.66906 0.0
C38 C 0.42397 0.72462 0.67158 0.0
C39 C 0.54092 0.72429 0.81909 0.0
O40 O 0.46238 0.6717 0.77708 0.0
O41 O 0.45369 0.62591 0.82436 0.0
O42 O 0.49672 0.16447 0.79802 0.0
Mn43 Mn 0.5312 0.21522 0.78168 0.0
O44 O 0.48446 0.13572 0.73508 0.0
Mn45 Mn 0.52125 0.16451 0.70188 0.0
O46 O 0.56421 0.26656 0.76064 0.0
O47 O 0.50566 0.24665 0.8278 0.0
Mn48 Mn 0.53814 0.28652 0.84362 0.0
O49 O 0.58013 0.20085 0.82135 0.0
O50 O 0.54096 0.31925 0.79794 0.0
O51 O 0.4816 0.23272 0.74266 0.0
O52 O 0.49992 0.212 0.67981 0.0
O53 O 0.49459 0.28669 0.87974 0.0
O54 O 0.58665 0.25958 0.85871 0.0
C55 C 0.58453 0.15828 0.72076 0.0
C56 C 0.47846 0.13846 0.77408 0.0
C57 C 0.55884 0.30526 0.76617 0.0
C58 C 0.48323 0.25437 0.85936 0.0
C59 C 0.59889 0.22369 0.84814 0.0
C60 C 0.47739 0.23373 0.70314 0.0
O61 O 0.55776 0.1819 0.73759 0.0
O62 O 0.571 0.14074 0.68749 0.0
O63 O 0.95183 0.80627 0.3365 0.0
Mn64 Mn 0.99396 0.8034 0.28862 0.0
O65 O 0.9493 0.74044 0.35835 0.0
Mn66 Mn 0.99261 0.71682 0.32893 0.0
O67 O 0.03649 0.79779 0.24114 0.0
O68 O 0.96391 0.85056 0.25945 0.0
Mn69 Mn 1.00541 0.88515 0.25146 0.0
O70 O 0.03581 0.84205 0.31985 0.0
O71 O 0.04614 0.86175 0.21905 0.0
O72 O 0.95481 0.76072 0.25739 0.0
O73 O 0.9787 0.69887 0.27658 0.0
O74 O 0.96294 0.91089 0.22758 0.0
O75 O 0.0228 0.90549 0.30148 0.0
C76 C 0.04965 0.74784 0.34379 0.0
C77 C 0.9371 0.77779 0.35926 0.0
C78 C 0.05533 0.82381 0.21874 0.0
C79 C 0.94291 0.87954 0.2412 0.0
C80 C 0.04262 0.88053 0.32346 0.0
C81 C 0.95668 0.72123 0.25307 0.0
O82 O 0.0231 0.75862 0.31678 0.0
O83 O 0.0423 0.71167 0.35774 0.0
O84 O 0.18553 0.07345 0.31399 0.0
Mn85 Mn 0.23016 0.02791 0.30504 0.0
O86 O 0.14582 0.06705 0.25635 0.0
Mn87 Mn 0.16862 0.0204 0.23155 0.0
O88 O 0.27305 0.98116 0.29161 0.0
O89 O 0.26998 0.06089 0.33922 0.0
Mn90 Mn 0.30742 0.02691 0.35797 0.0
O91 O 0.21427 0.99571 0.35713 0.0
O92 O 0.33333 1.00553 0.31223 0.0
O93 O 0.2497 0.05871 0.25205 0.0
O94 O 0.21437 0.0301 0.19959 0.0
O95 O 0.32011 0.07751 0.38016 0.0
O96 O 0.27662 0.98882 0.38784 0.0
C97 C 0.16384 0.96615 0.26961 0.0
C98 C 0.15558 0.08496 0.2904 0.0
C99 C 0.31241 0.9805 0.29068 0.0
C100 C 0.28668 0.08908 0.36188 0.0
C101 C 0.23831 0.98009 0.38439 0.0
C102 C 0.24419 0.0517 0.21332 0.0
O103 O 0.18994 0.99509 0.27358 0.0
O104 O 0.14152 0.97014 0.23682 0.0
O105 O 0.31937 0.03314 0.8473 0.0
Mn106 Mn 0.28732 0.9912 0.80938 0.0
O107 O 0.29635 0.02515 0.91065 0.0
Mn108 Mn 0.24573 0.01027 0.89016 0.0
O109 O 0.25449 0.95166 0.76784 0.0
O110 O 0.32083 0.01313 0.76374 0.0
Mn111 Mn 0.32886 0.97674 0.72492 0.0
O112 O 0.33059 0.94552 0.81819 0.0
O113 O 0.27607 0.97064 0.70534 0.0
O114 O 0.24379 0.03719 0.79909 0.0
O115 O 0.21764 0.05087 0.86162 0.0
O116 O 0.36561 0.01933 0.71618 0.0
O117 O 0.34959 0.93098 0.75269 0.0
C118 C 0.23398 0.94731 0.88423 0.0
C119 C 0.32052 0.04227 0.8858 0.0
C120 C 0.25042 0.95224 0.72807 0.0
C121 C 0.35216 0.03307 0.75102 0.0
C122 C 0.34957 0.92359 0.7914 0.0
C123 C 0.22067 0.05829 0.82321 0.0
O124 O 0.25413 0.96797 0.85682 0.0
O125 O 0.21906 0.96832 0.91469 0.0
O126 O 0.68553 0.4503 0.71007 0.0
Mn127 Mn 0.73297 0.49234 0.7157 0.0
O128 O 0.66026 0.44802 0.77501 0.0
Mn129 Mn 0.68838 0.49148 0.80048 0.0
O130 O 0.77998 0.53493 0.72438 0.0
O131 O 0.76377 0.46193 0.66964 0.0
Mn132 Mn 0.77668 0.50264 0.63591 0.0
O133 O 0.70441 0.53357 0.67506 0.0
O134 O 0.80875 0.54192 0.66237 0.0
O135 O 0.76157 0.45383 0.76013 0.0
O136 O 0.73956 0.47838 0.82118 0.0
O137 O 0.79963 0.45847 0.6117 0.0
O138 O 0.72931 0.52292 0.61266 0.0
C139 C 0.67544 0.5483 0.7691 0.0
C140 C 0.66134 0.4357 0.7374 0.0
C141 C 0.80524 0.5523 0.70009 0.0
C142 C 0.78245 0.43944 0.64194 0.0
C143 C 0.70474 0.54137 0.63644 0.0
C144 C 0.76412 0.45643 0.79995 0.0
O145 O 0.70251 0.52171 0.75913 0.0
O146 O 0.65987 0.54101 0.80477 0.0
O147 O 0.82166 0.57854 0.20314 0.0
Mn148 Mn 0.78084 0.5307 0.21579 0.0
O149 O 0.85692 0.58377 0.26362 0.0
Mn150 Mn 0.84099 0.53537 0.28972 0.0
O151 O 0.74119 0.48222 0.23229 0.0
O152 O 0.73821 0.5578 0.18113 0.0
Mn153 Mn 0.7029 0.5216 0.16277 0.0
O154 O 0.79825 0.49549 0.16518 0.0
O155 O 0.67928 0.50082 0.20967 0.0
O156 O 0.75909 0.56422 0.26699 0.0
O157 O 0.79406 0.53951 0.32091 0.0
O158 O 0.68873 0.57111 0.13901 0.0
O159 O 0.73634 0.48429 0.13438 0.0
C160 C 0.85599 0.48132 0.25396 0.0
C161 C 0.84773 0.59653 0.22742 0.0
C162 C 0.70187 0.47867 0.23248 0.0
C163 C 0.72134 0.58455 0.1576 0.0
C164 C 0.775 0.47753 0.13828 0.0
C165 C 0.76331 0.55856 0.30598 0.0
O166 O 0.82454 0.50428 0.24878 0.0
O167 O 0.87653 0.49074 0.28692 0.0
O168 O 0.30643 0.18069 0.0725 0.0
Mn169 Mn 0.30161 0.22803 0.03009 0.0
O170 O 0.24652 0.14614 0.06224 0.0
Mn171 Mn 0.22371 0.17365 0.01723 0.0
O172 O 0.29129 0.27278 0.9851 0.0
O173 O 0.33981 0.26262 0.06658 0.0
Mn174 Mn 0.35879 0.29865 0.03081 0.0
O175 O 0.35178 0.20829 0.99694 0.0
O176 O 0.31619 0.33022 1.01082 0.0
O177 O 0.25001 0.25047 0.06216 0.0
O178 O 0.19564 0.22131 0.03047 0.0
O179 O 0.38339 0.3127 0.07931 0.0
O180 O 0.38666 0.2676 0.99101 0.0
C181 C 0.26315 0.16867 0.96361 0.0
C182 C 0.28089 0.15185 0.08104 0.0
C183 C 0.2926 0.31182 0.98579 0.0
C184 C 0.36381 0.28121 0.09309 0.0
C185 C 0.38044 0.22995 0.98137 0.0
C186 C 0.2111 0.24827 0.05474 0.0
O187 O 0.26738 0.19307 0.99425 0.0
O188 O 0.22872 0.14918 0.96493 0.0
O189 O 0.81395 0.32735 0.94682 0.0
Mn190 Mn 0.80632 0.28385 0.99293 0.0
O191 O 0.7482 0.34582 0.93326 0.0
Mn192 Mn 0.72169 0.32553 0.97997 0.0
O193 O 0.79671 0.23999 0.03893 0.0
O194 O 0.8535 0.25038 0.9687 0.0
Mn195 Mn 0.88678 0.24262 0.01135 0.0
O196 O 0.84429 0.31577 0.03519 0.0
O197 O 0.8594 0.21453 0.05237 0.0
O198 O 0.76473 0.25123 0.95343 0.0
O199 O 0.70264 0.27278 0.97389 0.0
O200 O 0.91168 0.21525 0.9699 0.0
O201 O 0.90741 0.293 0.02597 0.0
C202 C 0.74896 0.34882 0.03631 0.0
C203 C 0.7866 0.34593 0.925 0.0
C204 C 0.82108 0.21689 0.05981 0.0
C205 C 0.88127 0.22975 0.94855 0.0
C206 C 0.88274 0.31702 0.04386 0.0
C207 C 0.72518 0.24718 0.95473 0.0
O208 O 0.76101 0.31731 0.01584 0.0
O209 O 0.71403 0.36253 0.02327 0.0
O210 O 0.66785 0.71695 0.52819 0.0
Mn211 Mn 0.7186 0.73356 0.49472 0.0
O212 O 0.63725 0.77868 0.53646 0.0
Mn213 Mn 0.6663 0.80904 0.4974 0.0
O214 O 0.77075 0.75311 0.46216 0.0
O215 O 0.75108 0.69472 0.52789 0.0
Mn216 Mn 0.79261 0.67367 0.50192 0.0
O217 O 0.7089 0.68813 0.45036 0.0
O218 O 0.82381 0.71951 0.49078 0.0
O219 O 0.73289 0.77667 0.54125 0.0
O220 O 0.71186 0.83634 0.51772 0.0
O221 O 0.78837 0.64705 0.5525 0.0
O222 O 0.76678 0.64954 0.45617 0.0
C223 C 0.6593 0.79085 0.43468 0.0
C224 C 0.64094 0.74046 0.54468 0.0
C225 C 0.80958 0.74818 0.46833 0.0
C226 C 0.7552 0.66838 0.55656 0.0
C227 C 0.73211 0.65808 0.43923 0.0
C228 C 0.73396 0.81582 0.54226 0.0
O229 O 0.68259 0.77193 0.4611 0.0
O230 O 0.64222 0.82393 0.44867 0.0
O231 O 0.16791 0.8031 0.49458 0.0
Mn232 Mn 0.21468 0.78121 0.53244 0.0
O233 O 0.13145 0.74495 0.48182 0.0
Mn234 Mn 0.15634 0.7082 0.51792 0.0
O235 O 0.26127 0.75467 0.56862 0.0
O236 O 0.25196 0.82384 0.51005 0.0
Mn237 Mn 0.29194 0.83344 0.54516 0.0
O238 O 0.20152 0.82149 0.5812 0.0
O239 O 0.31897 0.7839 0.54741 0.0
O240 O 0.23167 0.74153 0.48324 0.0
O241 O 0.20145 0.68166 0.49633 0.0
O242 O 0.29703 0.87139 0.50339 0.0
O243 O 0.26439 0.84918 0.59333 0.0
C244 C 0.15151 0.72396 0.58199 0.0
C245 C 0.13937 0.78289 0.47568 0.0
C246 C 0.30045 0.75454 0.56471 0.0
C247 C 0.26317 0.85551 0.48974 0.0
C248 C 0.22664 0.84364 0.60281 0.0
C249 C 0.22776 0.7027 0.47703 0.0
O250 O 0.17615 0.74051 0.55625 0.0
O251 O 0.13083 0.69369 0.56647 0.0
O252 O 0.94756 0.70979 0.83021 0.0
Mn253 Mn 0.99207 0.71739 0.78486 0.0
O254 O 0.95223 0.76946 0.86674 0.0
Mn255 Mn 0.997 0.79481 0.84189 0.0
O256 O 0.03903 0.73063 0.74278 0.0
O257 O 0.95905 0.6784 0.74708 0.0
Mn258 Mn 0.99953 0.66121 0.71477 0.0
O259 O 0.02682 0.66857 0.80633 0.0
O260 O 0.01961 0.7034 0.68373 0.0
O261 O 0.95829 0.76757 0.76167 0.0
O262 O 0.98451 0.82297 0.79406 0.0
O263 O 0.956 0.63407 0.69442 0.0
O264 O 0.03778 0.63383 0.74728 0.0
C265 C 0.0524 0.75813 0.8489 0.0
C266 C 0.93601 0.73432 0.85933 0.0
C267 C 0.04152 0.72857 0.70361 0.0
C268 C 0.93723 0.65377 0.72359 0.0
C269 C 0.04464 0.64021 0.78558 0.0
C270 C 0.96278 0.80669 0.76539 0.0
O271 O 0.02361 0.75284 0.82257 0.0
O272 O 0.0479 0.79195 0.86928 0.0
O273 O 0.58436 0.31741 0.32726 0.0
Mn274 Mn 0.53496 0.30233 0.28858 0.0
O275 O 0.5951 0.25749 0.36062 0.0
Mn276 Mn 0.54734 0.22898 0.34603 0.0
O277 O 0.48497 0.28388 0.25044 0.0
O278 O 0.55861 0.33884 0.24571 0.0
Mn279 Mn 0.51968 0.35652 0.21302 0.0
O280 O 0.49888 0.35037 0.30957 0.0
O281 O 0.49832 0.30984 0.18858 0.0
O282 O 0.5694 0.25371 0.26338 0.0
O283 O 0.54954 0.1986 0.29815 0.0
O284 O 0.56772 0.38202 0.19685 0.0
O285 O 0.48377 0.38258 0.24955 0.0
C286 C 0.49124 0.25752 0.36499 0.0
C287 C 0.60518 0.29432 0.35178 0.0
C288 C 0.47882 0.28508 0.21123 0.0
C289 C 0.58385 0.36322 0.22792 0.0
C290 C 0.47908 0.37713 0.28836 0.0
C291 C 0.56535 0.21471 0.26653 0.0
O292 O 0.5126 0.2679 0.33363 0.0
O293 O 0.50507 0.22539 0.38355 0.0
O294 O 0.43728 0.81884 0.19846 0.0
Mn295 Mn 0.48556 0.80614 0.23951 0.0
O296 O 0.42914 0.75727 0.16633 0.0
Mn297 Mn 0.47702 0.73025 0.1833 0.0
O298 O 0.53448 0.78949 0.27952 0.0
O299 O 0.45987 0.84361 0.28101 0.0
Mn300 Mn 0.49762 0.86243 0.3148 0.0
O301 O 0.52199 0.85406 0.21931 0.0
O302 O 0.51909 0.81684 0.34063 0.0
O303 O 0.4508 0.758 0.26417 0.0
O304 O 0.47338 0.70182 0.23192 0.0
O305 O 0.4489 0.88762 0.32962 0.0
O306 O 0.53423 0.88835 0.27935 0.0
C307 C 0.53281 0.76037 0.16567 0.0
C308 C 0.41786 0.79423 0.17378 0.0
C309 C 0.53958 0.79176 0.31883 0.0
C310 C 0.43388 0.86796 0.29822 0.0
C311 C 0.54052 0.88185 0.24085 0.0
C312 C 0.45562 0.71897 0.26223 0.0
O313 O 0.51017 0.77047 0.19631 0.0
O314 O 0.52091 0.72707 0.14736 0.0
O315 O 0.06526 0.20553 0.68723 0.0
Mn316 Mn 0.02356 0.20811 0.73539 0.0
O317 O 0.06303 0.27001 0.66151 0.0
Mn318 Mn 0.01966 0.29302 0.69137 0.0
O319 O 0.98131 0.21365 0.78312 0.0
O320 O 0.05568 0.16301 0.76515 0.0
Mn321 Mn 0.01625 0.12738 0.77763 0.0
O322 O 0.98364 0.16644 0.70659 0.0
O323 O 0.97685 0.15137 0.81104 0.0
O324 O 0.06107 0.25358 0.76443 0.0
O325 O 0.03493 0.31369 0.74256 0.0
O326 O 0.06168 0.10475 0.79968 0.0
O327 O 0.99559 0.10421 0.72999 0.0
C328 C 0.96348 0.25878 0.67969 0.0
C329 C 0.07763 0.23352 0.66253 0.0
C330 C 0.96507 0.18846 0.80831 0.0
C331 C 0.07936 0.13613 0.7832 0.0
C332 C 0.97647 0.12793 0.70594 0.0
C333 C 0.05808 0.29315 0.76675 0.0
O334 O 0.99171 0.25027 0.70588 0.0
O335 O 0.96851 0.29477 0.66434 0.0
O336 O 0.82672 0.94669 0.71119 0.0
Mn337 Mn 0.7811 0.99089 0.72064 0.0
O338 O 0.86468 0.95223 0.77011 0.0
Mn339 Mn 0.84113 0.99824 0.7953 0.0
O340 O 0.73773 0.03683 0.73441 0.0
O341 O 0.74193 0.95773 0.68571 0.0
Mn342 Mn 0.70421 0.99169 0.66732 0.0
O343 O 0.79674 0.02427 0.66896 0.0
O344 O 0.67767 0.01299 0.71279 0.0
O345 O 0.76179 0.95854 0.77304 0.0
O346 O 0.79509 0.98766 0.82648 0.0
O347 O 0.69161 0.94134 0.64471 0.0
O348 O 0.73471 0.02977 0.63724 0.0
C349 C 0.84736 0.05187 0.75687 0.0
C350 C 0.85636 0.93532 0.73518 0.0
C351 C 0.69842 0.03794 0.7346 0.0
C352 C 0.72524 0.9298 0.66265 0.0
C353 C 0.77284 0.03911 0.64107 0.0
C354 C 0.76646 0.96497 0.81201 0.0
O355 O 0.8203 0.02381 0.75323 0.0
O356 O 0.86875 0.04814 0.79033 0.0
O357 O 0.68783 0.06789 0.20641 0.0
Mn358 Mn 0.73336 0.02417 0.21229 0.0
O359 O 0.6661 0.07575 0.27222 0.0
Mn360 Mn 0.69135 0.03096 0.2978 0.0
O361 O 0.77891 0.97987 0.22025 0.0
O362 O 0.76443 0.05145 0.16533 0.0
Mn363 Mn 0.7756 0.01019 0.13119 0.0
O364 O 0.70264 0.98291 0.17297 0.0
O365 O 0.80693 0.97076 0.15793 0.0
O366 O 0.76455 0.06303 0.25551 0.0
O367 O 0.74374 0.04056 0.31723 0.0
O368 O 0.79905 0.05408 0.10706 0.0
O369 O 0.72653 0.99149 0.10994 0.0
C370 C 0.67283 0.97437 0.26836 0.0
C371 C 0.66619 0.08578 0.23411 0.0
C372 C 0.80358 0.96123 0.19578 0.0
C373 C 0.78298 0.07367 0.13788 0.0
C374 C 0.70229 0.97397 0.13447 0.0
C375 C 0.76845 0.06108 0.29525 0.0
O376 O 0.702 0.99789 0.25689 0.0
O377 O 0.65891 0.98449 0.3042 0.0
O378 O 0.32973 0.57347 0.31397 0.0
Mn379 Mn 0.28759 0.5273 0.30154 0.0
O380 O 0.3638 0.57788 0.25337 0.0
Mn381 Mn 0.34384 0.53191 0.22502 0.0
O382 O 0.24692 0.47958 0.28559 0.0
O383 O 0.24822 0.55494 0.34068 0.0
Mn384 Mn 0.21633 0.51674 0.36097 0.0
O385 O 0.30951 0.49099 0.34912 0.0
O386 O 0.18806 0.49299 0.31744 0.0
O387 O 0.26296 0.5623 0.25252 0.0
O388 O 0.29555 0.53958 0.1961 0.0
O389 O 0.20039 0.56495 0.38593 0.0
O390 O 0.25261 0.48112 0.3874 0.0
C391 C 0.35797 0.47642 0.25776 0.0
C392 C 0.3564 0.58996 0.29028 0.0
C393 C 0.20849 0.47328 0.29065 0.0
C394 C 0.23036 0.5806 0.36538 0.0
C395 C 0.29024 0.47387 0.37875 0.0
C396 C 0.26594 0.55871 0.21301 0.0
O397 O 0.32781 0.50051 0.26488 0.0
O398 O 0.37722 0.4856 0.22441 0.0
O399 O 0.19265 0.43711 0.82062 0.0
Mn400 Mn 0.23469 0.48459 0.8094 0.0
O401 O 0.16267 0.42949 0.75752 0.0
Mn402 Mn 0.18079 0.47684 0.73108 0.0
O403 O 0.27523 0.53262 0.79338 0.0
O404 O 0.27469 0.45871 0.84878 0.0
Mn405 Mn 0.30792 0.49697 0.86722 0.0
O406 O 0.2134 0.52222 0.85678 0.0
O407 O 0.33529 0.51665 0.82204 0.0
O408 O 0.26031 0.44895 0.76173 0.0
O409 O 0.23028 0.47203 0.7043 0.0
O410 O 0.32337 0.44987 0.8939 0.0
O411 O 0.27259 0.53466 0.89208 0.0
C412 C 0.16315 0.53255 0.76248 0.0
C413 C 0.16863 0.41815 0.79484 0.0
C414 C 0.31436 0.53695 0.7962 0.0
C415 C 0.29262 0.43398 0.87403 0.0
C416 C 0.23442 0.54127 0.88476 0.0
C417 C 0.25963 0.4536 0.72243 0.0
O418 O 0.19347 0.50946 0.77209 0.0
O419 O 0.14535 0.52148 0.72846 0.0
O420 O 0.71231 0.8306 0.95248 0.0
Mn421 Mn 0.71968 0.78415 0.99578 0.0
O422 O 0.77243 0.86566 0.95902 0.0
Mn423 Mn 0.79727 0.83974 1.00397 0.0
O424 O 0.73225 0.74039 0.04132 0.0
O425 O 0.6814 0.74783 0.9621 0.0
Mn426 Mn 0.66384 0.71179 0.99828 0.0
O427 O 0.67009 0.80339 0.03039 0.0
O428 O 0.70803 0.68191 0.01725 0.0
O429 O 0.77013 0.76197 0.96205 0.0
O430 O 0.82545 0.79205 0.99093 0.0
O431 O 0.63832 0.6975 0.95013 0.0
O432 O 0.63664 0.74331 0.03814 0.0
C433 C 0.75931 0.84596 0.0586 0.0
C434 C 0.73726 0.85934 0.94199 0.0
C435 C 0.73156 0.70128 0.04161 0.0
C436 C 0.65706 0.72938 0.93609 0.0
C437 C 0.64219 0.7813 0.04687 0.0
C438 C 0.80923 0.7646 0.96775 0.0
O439 O 0.75481 0.8203 0.02915 0.0
O440 O 0.79333 0.86593 0.05557 0.0
O441 O 0.20628 0.68822 0.06936 0.0
Mn442 Mn 0.21094 0.73455 0.02594 0.0
O443 O 0.27221 0.66659 0.07576 0.0
Mn444 Mn 0.29675 0.69268 0.03102 0.0
O445 O 0.21814 0.78081 0.98227 0.0
O446 O 0.16406 0.76559 0.05434 0.0
Mn447 Mn 0.12984 0.77502 0.01249 0.0
O448 O 0.17201 0.70402 0.9838 0.0
O449 O 0.15499 0.80623 0.97233 0.0
O450 O 0.25373 0.76538 0.06539 0.0
O451 O 0.31546 0.74491 0.04235 0.0
O452 O 0.10489 0.79961 0.05536 0.0
O453 O 0.10885 0.72575 0.99466 0.0
C454 C 0.26647 0.67508 0.97399 0.0
C455 C 0.23444 0.66644 0.08657 0.0
C456 C 0.19297 0.80458 0.96336 0.0
C457 C 0.13589 0.78475 0.0756 0.0
C458 C 0.1335 0.70248 0.97577 0.0
C459 C 0.29327 0.76926 0.06358 0.0
O460 O 0.25552 0.70391 0.99854 0.0
O461 O 0.30241 0.66098 0.9832 0.0
O462 O 0.31172 0.3248 0.5779 0.0
Mn463 Mn 0.2984 0.28243 0.53165 0.0
O464 O 0.25361 0.36327 0.57912 0.0
Mn465 Mn 0.22602 0.34372 0.53229 0.0
O466 O 0.2815 0.24149 0.48393 0.0
O467 O 0.33328 0.24126 0.56148 0.0
Mn468 Mn 0.34967 0.20466 0.52519 0.0
O469 O 0.34889 0.29865 0.49724 0.0
O470 O 0.30242 0.18033 0.5048 0.0
O471 O 0.24683 0.26232 0.56501 0.0
O472 O 0.19383 0.29801 0.5395 0.0
O473 O 0.37398 0.1908 0.57489 0.0
O474 O 0.37802 0.23634 0.48663 0.0
C475 C 0.26034 0.35423 0.47702 0.0
C476 C 0.2893 0.35364 0.59295 0.0
C477 C 0.28007 0.20228 0.48159 0.0
C478 C 0.35674 0.22391 0.58846 0.0
C479 C 0.37488 0.27486 0.47949 0.0
C480 C 0.20799 0.2676 0.55936 0.0
O481 O 0.26611 0.32485 0.50237 0.0
O482 O 0.22774 0.37535 0.48506 0.0
O483 O 0.8192 0.18769 0.44531 0.0
Mn484 Mn 0.81066 0.23042 0.49283 0.0
O485 O 0.75344 0.17058 0.4298 0.0
Mn486 Mn 0.72642 0.1896 0.47714 0.0
O487 O 0.7999 0.27354 0.54001 0.0
O488 O 0.85714 0.26439 0.47043 0.0
Mn489 Mn 0.89045 0.27629 0.51177 0.0
O490 O 0.84931 0.19948 0.53472 0.0
O491 O 0.86074 0.30433 0.5517 0.0
O492 O 0.76966 0.26348 0.45401 0.0
O493 O 0.70745 0.24255 0.47361 0.0
O494 O 0.91299 0.30149 0.46735 0.0
O495 O 0.91142 0.22652 0.52743 0.0
C496 C 0.7518 0.16457 0.53319 0.0
C497 C 0.79198 0.17019 0.42211 0.0
C498 C 0.82292 0.2989 0.56012 0.0
C499 C 0.88299 0.28392 0.44768 0.0
C500 C 0.88755 0.20141 0.54466 0.0
C501 C 0.73034 0.26844 0.45584 0.0
O502 O 0.76542 0.19587 0.51391 0.0
O503 O 0.71699 0.15186 0.51866 0.0
C504 C 0.16001 0.37098 0.29609 0.0
C505 C 0.12717 0.37648 0.26848 0.0
H506 H 0.21307 0.39846 0.3242 0.0
C507 C 0.13011 0.40742 0.2387 0.0
H508 H 0.15822 0.3478 0.31973 0.0
C509 C 0.16056 0.43756 0.24234 0.0
C510 C 0.18952 0.43556 0.2744 0.0
H511 H 0.10486 0.41262 0.21742 0.0
H512 H 0.15858 0.46458 0.22325 0.0
C513 C 0.19112 0.40041 0.29901 0.0
C514 C 0.33062 0.6108 0.80054 0.0
C515 C 0.33478 0.57336 0.77927 0.0
H516 H 0.36113 0.66557 0.82106 0.0
C517 C 0.36799 0.56812 0.75244 0.0
H518 H 0.30574 0.61517 0.82213 0.0
C519 C 0.3991 0.59769 0.75085 0.0
C520 C 0.39802 0.63216 0.77707 0.0
H521 H 0.37224 0.53924 0.73634 0.0
H522 H 0.42674 0.59055 0.73382 0.0
C523 C 0.36228 0.63984 0.79978 0.0
C524 C 0.6589 0.14447 0.72575 0.0
C525 C 0.61957 0.1397 0.74233 0.0
H526 H 0.71632 0.11546 0.71214 0.0
C527 C 0.61138 0.10523 0.76655 0.0
H528 H 0.66555 0.17032 0.70616 0.0
C529 C 0.63971 0.07304 0.76855 0.0
C530 C 0.67714 0.07571 0.74764 0.0
H531 H 0.58091 0.10051 0.77887 0.0
H532 H 0.63068 0.04457 0.7828 0.0
C533 C 0.68785 0.11288 0.72899 0.0
C534 C 0.88231 0.8766 0.19679 0.0
C535 C 0.89818 0.88054 0.23688 0.0
H536 H 0.83962 0.89946 0.15218 0.0
C537 C 0.87642 0.90399 0.26593 0.0
H538 H 0.89892 0.85922 0.17369 0.0
C539 C 0.84286 0.92793 0.25351 0.0
C540 C 0.83091 0.92864 0.21182 0.0
H541 H 0.88861 0.90814 0.29686 0.0
H542 H 0.82911 0.94877 0.2756 0.0
C543 C 0.84899 0.90053 0.18429 0.0
C544 C 0.24164 0.14573 0.44701 0.0
C545 C 0.26407 0.18223 0.44391 0.0
H546 H 0.22823 0.08741 0.41951 0.0
C547 C 0.28151 0.19241 0.40588 0.0
H548 H 0.2282 0.13714 0.47613 0.0
C549 C 0.28248 0.16345 0.37382 0.0
C550 C 0.26498 0.1246 0.37912 0.0
H551 H 0.29935 0.22022 0.40289 0.0
H552 H 0.30158 0.16937 0.34733 0.0
C553 C 0.24133 0.11744 0.41436 0.0
C554 C 0.1911 0.88588 0.88149 0.0
C555 C 0.23052 0.90257 0.88571 0.0
H556 H 0.14834 0.84127 0.90267 0.0
C557 C 0.26022 0.88113 0.90866 0.0
H558 H 0.16749 0.90224 0.86461 0.0
C559 C 0.24911 0.84656 0.93145 0.0
C560 C 0.20808 0.83324 0.93159 0.0
H561 H 0.29061 0.89398 0.91312 0.0
H562 H 0.27163 0.83289 0.95188 0.0
C563 C 0.17996 0.85147 0.90414 0.0
C564 C 0.76544 0.34117 0.58972 0.0
C565 C 0.80544 0.32538 0.593 0.0
H566 H 0.72525 0.3907 0.60606 0.0
C567 C 0.83142 0.3406 0.62443 0.0
H568 H 0.74466 0.32992 0.56599 0.0
C569 C 0.81996 0.37482 0.64786 0.0
C570 C 0.78246 0.39449 0.64018 0.0
H571 H 0.86216 0.32844 0.62833 0.0
H572 H 0.84266 0.38905 0.66792 0.0
C573 C 0.75407 0.37562 0.61319 0.0
C574 C 0.72496 0.65903 0.1472 0.0
C575 C 0.74229 0.62022 0.14065 0.0
H576 H 0.70964 0.71679 0.12025 0.0
C577 C 0.76634 0.61337 0.10552 0.0
H578 H 0.70551 0.6646 0.17361 0.0
C579 C 0.76723 0.64248 0.07417 0.0
C580 C 0.74546 0.6793 0.07852 0.0
H581 H 0.77925 0.5833 0.09951 0.0
H582 H 0.7813 0.6345 0.04503 0.0
C583 C 0.72708 0.68875 0.11646 0.0
C584 C 0.37303 0.28585 0.16839 0.0
C585 C 0.37904 0.26336 0.13183 0.0
H586 H 0.40058 0.30896 0.22411 0.0
C587 C 0.4137 0.23782 0.12898 0.0
H588 H 0.34718 0.30661 0.17095 0.0
C589 C 0.44506 0.2403 0.15874 0.0
C590 C 0.44141 0.26714 0.19254 0.0
H591 H 0.41959 0.22096 0.10071 0.0
H592 H 0.47395 0.22491 0.15287 0.0
C593 C 0.40386 0.28741 0.19877 0.0
C594 C 0.90427 0.25514 0.88176 0.0
C595 C 0.883 0.22505 0.90374 0.0
H596 H 0.94787 0.26708 0.83405 0.0
C597 C 0.88184 0.18491 0.88818 0.0
H598 H 0.90627 0.28617 0.89375 0.0
C599 C 0.90632 0.17371 0.85483 0.0
C600 C 0.93224 0.2026 0.8364 0.0
H601 H 0.86617 0.16109 0.90499 0.0
H602 H 0.90731 0.14175 0.8456 0.0
C603 C 0.92879 0.244 0.84814 0.0
C604 C 0.61494 0.79293 0.33011 0.0
C605 C 0.57687 0.77472 0.33851 0.0
H606 H 0.67331 0.81134 0.35507 0.0
C607 C 0.57318 0.75059 0.3739 0.0
H608 H 0.6183 0.81238 0.30345 0.0
C609 C 0.60541 0.74867 0.40272 0.0
C610 C 0.6411 0.77216 0.39733 0.0
H611 H 0.54395 0.73682 0.38139 0.0
H612 H 0.59983 0.73393 0.43197 0.0
C613 C 0.64667 0.79208 0.35958 0.0
C614 C 0.14475 0.72198 0.65736 0.0
C615 C 0.13748 0.74289 0.62044 0.0
H616 H 0.11931 0.7026 0.71469 0.0
C617 C 0.10345 0.76918 0.61755 0.0
H618 H 0.17031 0.70084 0.65985 0.0
C619 C 0.07348 0.76901 0.64817 0.0
C620 C 0.07817 0.74374 0.6826 0.0
H621 H 0.09686 0.78492 0.58896 0.0
H622 H 0.04477 0.78496 0.64276 0.0
C623 C 0.11539 0.72281 0.68861 0.0
C624 C 0.86712 0.64891 0.6976 0.0
C625 C 0.89428 0.64292 0.73072 0.0
H626 H 0.81761 0.62403 0.66172 0.0
C627 C 0.88583 0.61194 0.75929 0.0
H628 H 0.87341 0.67215 0.67483 0.0
C629 C 0.85389 0.58396 0.75163 0.0
C630 C 0.83068 0.58671 0.71511 0.0
H631 H 0.90697 0.60616 0.78454 0.0
H632 H 0.85021 0.55802 0.77188 0.0
C633 C 0.83579 0.62084 0.68964 0.0
C634 C 0.65879 0.37389 0.22492 0.0
C635 C 0.62191 0.37952 0.24633 0.0
H636 H 0.71513 0.40137 0.20557 0.0
C637 C 0.6182 0.41332 0.27313 0.0
H638 H 0.66194 0.34863 0.20329 0.0
C639 C 0.64798 0.44426 0.27335 0.0
C640 C 0.68246 0.44104 0.24784 0.0
H641 H 0.58964 0.41879 0.28921 0.0
H642 H 0.64179 0.47259 0.28981 0.0
C643 C 0.6892 0.40424 0.22614 0.0
C644 C 0.39983 0.91721 0.25287 0.0
C645 C 0.39602 0.88329 0.27891 0.0
H646 H 0.37537 0.97592 0.23635 0.0
C647 C 0.35863 0.87682 0.29903 0.0
H648 H 0.42876 0.9233 0.2378 0.0
C649 C 0.32757 0.9065 0.29735 0.0
C650 C 0.3342 0.94345 0.27651 0.0
H651 H 0.35538 0.85143 0.32006 0.0
H652 H 0.30096 0.90296 0.31683 0.0
C653 C 0.3694 0.9475 0.25224 0.0
C654 C 0.17808 0.12121 0.83283 0.0
C655 C 0.19377 0.09079 0.80627 0.0
H656 H 0.12886 0.16309 0.84442 0.0
C657 C 0.17851 0.08831 0.76573 0.0
H658 H 0.18998 0.12466 0.86395 0.0
C659 C 0.14389 0.11125 0.75433 0.0
C660 C 0.12429 0.13669 0.78332 0.0
H661 H 0.19029 0.06556 0.74439 0.0
H662 H 0.12913 0.10456 0.72499 0.0
C663 C 0.14363 0.14406 0.82136 0.0
C664 C 0.73054 0.85556 0.65007 0.0
C665 C 0.74713 0.89478 0.64465 0.0
H666 H 0.71488 0.79834 0.62122 0.0
C667 C 0.76998 0.90262 0.60901 0.0
H668 H 0.712 0.84913 0.67684 0.0
C669 C 0.76996 0.87436 0.57634 0.0
C670 C 0.74865 0.83724 0.57975 0.0
H671 H 0.78231 0.93296 0.60379 0.0
H672 H 0.78295 0.88324 0.5471 0.0
C673 C 0.73184 0.82665 0.61797 0.0
C674 C 0.76485 0.17306 0.08893 0.0
C675 C 0.80482 0.18901 0.09178 0.0
H676 H 0.72527 0.12308 0.10446 0.0
C677 C 0.83178 0.17297 0.12174 0.0
H678 H 0.74327 0.18487 0.06639 0.0
C679 C 0.82118 0.13805 0.14393 0.0
C680 C 0.78344 0.11863 0.13672 0.0
H681 H 0.86255 0.18515 0.12539 0.0
H682 H 0.84448 0.12339 0.16275 0.0
C683 C 0.75429 0.13799 0.11126 0.0
C684 C 0.27212 0.64979 0.44447 0.0
C685 C 0.24496 0.68287 0.43993 0.0
H686 H 0.29119 0.59133 0.42091 0.0
C687 C 0.22345 0.6871 0.40249 0.0
H688 H 0.28837 0.6454 0.47336 0.0
C689 C 0.22437 0.65565 0.37279 0.0
C690 C 0.24745 0.62 0.37979 0.0
H691 H 0.20158 0.71184 0.39863 0.0
H692 H 0.20293 0.65686 0.34713 0.0
C693 C 0.27388 0.6189 0.41422 0.0
C694 C 0.29678 0.32851 0.91163 0.0
C695 C 0.27793 0.33499 0.94993 0.0
H696 H 0.3152 0.35622 0.85501 0.0
C697 C 0.2531 0.36959 0.95571 0.0
H698 H 0.31651 0.30218 0.90679 0.0
C699 C 0.25091 0.39961 0.92528 0.0
C700 C 0.27486 0.39603 0.88961 0.0
H701 H 0.23854 0.37521 0.98514 0.0
H702 H 0.23539 0.42818 0.93237 0.0
C703 C 0.29567 0.35919 0.88176 0.0
C704 C 0.57278 0.7677 0.87383 0.0
C705 C 0.57735 0.7421 0.8393 0.0
H706 H 0.59852 0.78697 0.93167 0.0
C707 C 0.61575 0.72416 0.83153 0.0
H708 H 0.54326 0.78143 0.88057 0.0
C709 C 0.64712 0.72666 0.86115 0.0
C710 C 0.64055 0.74771 0.89838 0.0
H711 H 0.61969 0.70378 0.80533 0.0
H712 H 0.67406 0.70752 0.85743 0.0
C713 C 0.60465 0.77123 0.90282 0.0
C714 C 0.08924 0.76865 0.17626 0.0
C715 C 0.08744 0.80967 0.1897 0.0
H716 H 0.10952 0.72743 0.12876 0.0
C717 C 0.11407 0.83831 0.17185 0.0
H718 H 0.06959 0.74569 0.18976 0.0
C719 C 0.13757 0.82753 0.1376 0.0
C720 C 0.13483 0.78801 0.1206 0.0
H721 H 0.11436 0.86995 0.18224 0.0
H722 H 0.15376 0.85143 0.1214 0.0
C723 C 0.11281 0.75793 0.14183 0.0
C724 C 0.40219 0.22752 0.69306 0.0
C725 C 0.43874 0.24836 0.68408 0.0
H726 H 0.34551 0.20383 0.66864 0.0
C727 C 0.44045 0.27178 0.64799 0.0
H728 H 0.40037 0.20855 0.72022 0.0
C729 C 0.40827 0.27021 0.61906 0.0
C730 C 0.37461 0.24413 0.6252 0.0
H731 H 0.46852 0.28753 0.64001 0.0
H732 H 0.41263 0.28457 0.58941 0.0
C733 C 0.3706 0.22492 0.66353 0.0
C734 C 0.88069 0.32055 0.38281 0.0
C735 C 0.88434 0.28278 0.40264 0.0
H736 H 0.90606 0.36059 0.33782 0.0
C737 C 0.9083 0.25177 0.38437 0.0
H738 H 0.86284 0.34505 0.39659 0.0
C739 C 0.9337 0.26079 0.35091 0.0
C740 C 0.93491 0.30083 0.33568 0.0
H741 H 0.91208 0.22257 0.39962 0.0
H742 H 0.95556 0.23805 0.34035 0.0
C743 C 0.90608 0.32965 0.34971 0.0
C744 C 0.14797 0.161 0.29443 0.0
C745 C 0.13115 0.12183 0.30039 0.0
H746 H 0.136 0.22325 0.27657 0.0
C747 C 0.08835 0.11777 0.30235 0.0
H748 H 0.18091 0.16473 0.29195 0.0
C749 C 0.06278 0.15101 0.29358 0.0
C750 C 0.07947 0.18899 0.28235 0.0
H751 H 0.07464 0.08783 0.30637 0.0
H752 H 0.02997 0.14584 0.29143 0.0
C753 C 0.12222 0.19451 0.28554 0.0
C754 C 0.35869 0.84877 0.79649 0.0
C755 C 0.3739 0.88827 0.80455 0.0
H756 H 0.37378 0.78704 0.77946 0.0
C757 C 0.41595 0.8938 0.81185 0.0
H758 H 0.3263 0.84417 0.79012 0.0
C759 C 0.44311 0.8613 0.80542 0.0
C760 C 0.42837 0.82308 0.79164 0.0
H761 H 0.42823 0.9242 0.81748 0.0
H762 H 0.47582 0.86738 0.80631 0.0
C763 C 0.38587 0.81607 0.79051 0.0
C764 C 0.59129 0.40832 0.73116 0.0
C765 C 0.63353 0.40197 0.72661 0.0
H766 H 0.53355 0.38132 0.74576 0.0
C767 C 0.64885 0.36181 0.72418 0.0
H768 H 0.57902 0.43913 0.73342 0.0
C769 C 0.62283 0.32851 0.73156 0.0
C770 C 0.5815 0.33545 0.74165 0.0
H771 H 0.68155 0.35644 0.72129 0.0
H772 H 0.63606 0.29817 0.73419 0.0
C773 C 0.56538 0.37524 0.73834 0.0
C774 C 0.91059 0.62973 0.20184 0.0
C775 C 0.86972 0.63376 0.21454 0.0
H776 H 0.97079 0.65605 0.20282 0.0
C777 C 0.85609 0.67216 0.22895 0.0
H778 H 0.92209 0.60023 0.19156 0.0
C779 C 0.88404 0.70443 0.23525 0.0
C780 C 0.92609 0.69837 0.22787 0.0
H781 H 0.82493 0.67571 0.23989 0.0
H782 H 0.87364 0.73189 0.25101 0.0
C783 C 0.93852 0.66177 0.20838 0.0
C784 C 0.27233 0.05738 0.14276 0.0
C785 C 0.26839 0.07415 0.18252 0.0
H786 H 0.28105 0.06955 0.0788 0.0
C787 C 0.28018 0.11509 0.18957 0.0
H788 H 0.26401 0.02577 0.13657 0.0
C789 C 0.29029 0.14022 0.15625 0.0
C790 C 0.28879 0.12441 0.11587 0.0
H791 H 0.27741 0.12877 0.21996 0.0
H792 H 0.29468 0.17274 0.16159 0.0
C793 C 0.28238 0.08232 0.10972 0.0
C794 C 0.20532 0.93434 0.66875 0.0
C795 C 0.22447 0.92206 0.7057 0.0
H796 H 0.18965 0.91777 0.60648 0.0
C797 C 0.2321 0.88013 0.71162 0.0
H798 H 0.19973 0.96655 0.66311 0.0
C799 C 0.22673 0.85222 0.67886 0.0
C800 C 0.21285 0.86571 0.64012 0.0
H801 H 0.24766 0.86987 0.73931 0.0
H802 H 0.23801 0.82119 0.68236 0.0
C803 C 0.19956 0.90638 0.63622 0.0
C804 C 0.80505 0.43894 0.86224 0.0
C805 C 0.78797 0.42636 0.82418 0.0
H806 H 0.81911 0.42222 0.92461 0.0
C807 C 0.78143 0.38437 0.81705 0.0
H808 H 0.80985 0.47121 0.86871 0.0
C809 C 0.7862 0.35643 0.84935 0.0
C810 C 0.79853 0.36997 0.88878 0.0
H811 H 0.76753 0.37389 0.78841 0.0
H812 H 0.77622 0.32506 0.84466 0.0
C813 C 0.81033 0.41093 0.8943 0.0
C814 C 0.73111 0.56454 0.37455 0.0
C815 C 0.73804 0.58163 0.33568 0.0
H816 H 0.72212 0.5764 0.43874 0.0
C817 C 0.73032 0.62359 0.32981 0.0
H818 H 0.73659 0.53223 0.37973 0.0
C819 C 0.72183 0.64898 0.3638 0.0
C820 C 0.72088 0.63238 0.40358 0.0
H821 H 0.73569 0.6375 0.30013 0.0
H822 H 0.72108 0.68188 0.35963 0.0
C823 C 0.72263 0.58976 0.40827 0.0
C824 C 0.14225 0.28001 0.06328 0.0
C825 C 0.18161 0.27246 0.07958 0.0
H826 H 0.07885 0.29081 0.07642 0.0
C827 C 0.18883 0.27998 0.12179 0.0
H828 H 0.13586 0.27489 0.03083 0.0
C829 C 0.15594 0.28955 0.14797 0.0
C830 C 0.11576 0.29188 0.13205 0.0
H831 H 0.21881 0.27424 0.13524 0.0
H832 H 0.16125 0.29064 0.18097 0.0
C833 C 0.10962 0.28945 0.0893 0.0
C834 C 0.66624 0.2022 0.93767 0.0
C835 C 0.70266 0.22112 0.92468 0.0
H836 H 0.60399 0.18692 0.92218 0.0
C837 C 0.70785 0.22832 0.88238 0.0
H838 H 0.66119 0.19687 0.97016 0.0
C839 C 0.67479 0.22281 0.85484 0.0
C840 C 0.6365 0.20942 0.86919 0.0
H841 H 0.73518 0.24368 0.8716 0.0
H842 H 0.67768 0.23383 0.82359 0.0
C843 C 0.63338 0.1965 0.91016 0.0
C844 C 0.88044 0.77411 0.45787 0.0
C845 C 0.8398 0.77072 0.44335 0.0
H846 H 0.94375 0.78019 0.4418 0.0
C847 C 0.83108 0.78065 0.40209 0.0
H848 H 0.88802 0.767 0.48959 0.0
C849 C 0.86323 0.78855 0.37472 0.0
C850 C 0.90416 0.78697 0.38855 0.0
H851 H 0.80009 0.77808 0.39001 0.0
H852 H 0.85638 0.79166 0.34217 0.0
C853 C 0.91236 0.78194 0.43064 0.0
C854 C 0.3496 0.71605 0.66037 0.0
C855 C 0.3897 0.71046 0.64589 0.0
H856 H 0.28807 0.73351 0.64458 0.0
C857 C 0.39645 0.70715 0.60339 0.0
H858 H 0.34402 0.7194 0.69312 0.0
C859 C 0.36475 0.71577 0.57568 0.0
C860 C 0.32603 0.72757 0.59031 0.0
H861 H 0.42733 0.70341 0.5917 0.0
H862 H 0.37182 0.71806 0.54319 0.0
C863 C 0.31765 0.72426 0.63256 0.0
C864 C 0.86762 0.86014 0.72746 0.0
C865 C 0.88274 0.90028 0.72418 0.0
H866 H 0.88201 0.79772 0.74254 0.0
C867 C 0.92534 0.90658 0.72411 0.0
H868 H 0.83483 0.8547 0.72837 0.0
C869 C 0.95217 0.8743 0.73245 0.0
C870 C 0.9369 0.83509 0.74109 0.0
H871 H 0.93766 0.93733 0.72206 0.0
H872 H 0.9846 0.88091 0.73618 0.0
C873 C 0.89465 0.82757 0.73572 0.0
C874 C 0.65599 0.16008 0.22462 0.0
C875 C 0.63987 0.12024 0.22287 0.0
H876 H 0.64359 0.22311 0.23888 0.0
C877 C 0.59731 0.11451 0.22357 0.0
H878 H 0.68892 0.16486 0.22471 0.0
C879 C 0.57148 0.14762 0.23163 0.0
C880 C 0.58809 0.18663 0.23944 0.0
H881 H 0.58445 0.08389 0.22266 0.0
H882 H 0.53915 0.14182 0.23668 0.0
C883 C 0.63006 0.19337 0.23264 0.0
C884 C 0.38938 0.698 0.29302 0.0
C885 C 0.43184 0.69177 0.28888 0.0
H886 H 0.33069 0.66868 0.29808 0.0
C887 C 0.44874 0.65362 0.29921 0.0
H888 H 0.37567 0.72711 0.28488 0.0
C889 C 0.42312 0.62047 0.30702 0.0
C890 C 0.38041 0.62521 0.30459 0.0
H891 H 0.48144 0.64822 0.29629 0.0
H892 H 0.43657 0.5902 0.30959 0.0
C893 C 0.36363 0.66461 0.30067 0.0
C894 C 0.07487 0.35555 0.80832 0.0
C895 C 0.08785 0.31791 0.79137 0.0
H896 H 0.09151 0.41718 0.82459 0.0
C897 C 0.13022 0.3108 0.78736 0.0
H898 H 0.0424 0.36208 0.81137 0.0
C899 C 0.15844 0.34267 0.79481 0.0
C900 C 0.14477 0.38179 0.80711 0.0
H901 H 0.14115 0.28248 0.77366 0.0
H902 H 0.19027 0.33805 0.78649 0.0
C903 C 0.10305 0.38713 0.81616 0.0
C904 C 0.73039 0.92916 0.91478 0.0
C905 C 0.72712 0.88685 0.9077 0.0
H906 H 0.74449 0.98758 0.88927 0.0
C907 C 0.727 0.87193 0.86697 0.0
H908 H 0.73083 0.94126 0.946 0.0
C909 C 0.73511 0.89855 0.83422 0.0
C910 C 0.74365 0.94016 0.84216 0.0
H911 H 0.7252 0.83928 0.8609 0.0
H912 H 0.73901 0.8858 0.80357 0.0
C913 C 0.7385 0.95559 0.88232 0.0
C914 C 0.81206 0.07877 0.35586 0.0
C915 C 0.79329 0.09129 0.31877 0.0
H916 H 0.8275 0.09507 0.41833 0.0
C917 C 0.78536 0.13317 0.31313 0.0
H918 H 0.81789 0.04656 0.36124 0.0
C919 C 0.79025 0.1608 0.34614 0.0
C920 C 0.8041 0.14713 0.38483 0.0
H921 H 0.77012 0.1436 0.28532 0.0
H922 H 0.77909 0.19189 0.34271 0.0
C923 C 0.8175 0.10652 0.38864 0.0
C924 C 0.22439 0.59671 0.11307 0.0
C925 C 0.22428 0.63902 0.12066 0.0
H926 H 0.2364 0.53729 0.13769 0.0
C927 C 0.2275 0.65349 0.16145 0.0
H928 H 0.22261 0.58498 0.08176 0.0
C929 C 0.23542 0.62613 0.19368 0.0
C930 C 0.24077 0.58419 0.18513 0.0
H931 H 0.22834 0.68613 0.16777 0.0
H932 H 0.24219 0.63834 0.22413 0.0
C933 C 0.23242 0.56948 0.14509 0.0
C934 C 0.28994 0.38668 0.70186 0.0
C935 C 0.2867 0.42914 0.69578 0.0
H936 H 0.29479 0.3279 0.67212 0.0
C937 C 0.29848 0.44563 0.65787 0.0
H938 H 0.28072 0.37329 0.7308 0.0
C939 C 0.30674 0.41976 0.62457 0.0
C940 C 0.30332 0.37723 0.62892 0.0
H941 H 0.29633 0.47831 0.6526 0.0
H942 H 0.31041 0.43305 0.59431 0.0
C943 C 0.29809 0.36069 0.66832 0.0
C944 C 0.86117 0.72671 0.87166 0.0
C945 C 0.90171 0.72348 0.88632 0.0
H946 H 0.79885 0.74177 0.88686 0.0
C947 C 0.90903 0.72364 0.92897 0.0
H948 H 0.85497 0.72742 0.83882 0.0
C949 C 0.87726 0.73219 0.95631 0.0
C950 C 0.83761 0.74078 0.94144 0.0
H951 H 0.94014 0.7216 0.94089 0.0
H952 H 0.88457 0.73599 0.98876 0.0
C953 C 0.82912 0.73513 0.89918 0.0
C954 C 0.30993 0.78818 0.13628 0.0
C955 C 0.31628 0.79452 0.09402 0.0
H956 H 0.3384 0.78413 0.19604 0.0
C957 C 0.35318 0.81297 0.08162 0.0
H958 H 0.2822 0.77325 0.14666 0.0
C959 C 0.3852 0.81947 0.10996 0.0
C960 C 0.38086 0.80766 0.15114 0.0
H961 H 0.35909 0.81771 0.04919 0.0
H962 H 0.41492 0.82886 0.0986 0.0
C963 C 0.34219 0.79437 0.16462 0.0
C964 C 0.13763 0.23977 0.56619 0.0
C965 C 0.17766 0.2433 0.58231 0.0
H966 H 0.07384 0.23283 0.57977 0.0
C967 C 0.18508 0.23226 0.62349 0.0
H968 H 0.13113 0.24773 0.53445 0.0
C969 C 0.15205 0.22328 0.64943 0.0
C970 C 0.11159 0.22512 0.63421 0.0
H971 H 0.2156 0.23492 0.63673 0.0
H972 H 0.15778 0.21937 0.6821 0.0
C973 C 0.10484 0.23103 0.59201 0.0
C974 C 0.63965 0.32184 0.41375 0.0
C975 C 0.64261 0.30946 0.37241 0.0
H976 H 0.6674 0.31967 0.47369 0.0
C977 C 0.68082 0.29632 0.35739 0.0
H978 H 0.6103 0.33132 0.42617 0.0
C979 C 0.7138 0.28989 0.38462 0.0
C980 C 0.70848 0.29589 0.42717 0.0
H981 H 0.68355 0.28585 0.32574 0.0
H982 H 0.74098 0.2745 0.37319 0.0
C983 C 0.67241 0.31512 0.44099 0.0
C984 C 0.89609 0.29015 0.15076 0.0
C985 C 0.9388 0.2946 0.15327 0.0
H986 H 0.84236 0.29902 0.11393 0.0
C987 C 0.95838 0.32166 0.12634 0.0
H988 H 0.88042 0.26916 0.171 0.0
C989 C 0.93667 0.3385 0.09318 0.0
C990 C 0.8954 0.32774 0.08636 0.0
H991 H 0.99146 0.32512 0.12735 0.0
H992 H 0.95379 0.3538 0.0693 0.0
C993 C 0.8742 0.3078 0.11812 0.0
C994 C 0.57506 0.71752 0.57362 0.0
C995 C 0.61691 0.72544 0.57931 0.0
H996 H 0.51554 0.72043 0.60078 0.0
C997 C 0.63247 0.73199 0.61933 0.0
H998 H 0.56252 0.71292 0.54291 0.0
C999 C 0.60557 0.73715 0.65235 0.0
C1000 C 0.56316 0.73503 0.64541 0.0
H1001 H 0.6648 0.73844 0.6241 0.0
H1002 H 0.61754 0.74802 0.6817 0.0
C1003 C 0.54831 0.72168 0.6068 0.0
C1004 C 0.4443 0.2039 0.94995 0.0
C1005 C 0.40284 0.21425 0.9456 0.0
H1006 H 0.50351 0.20567 0.92213 0.0
C1007 C 0.38704 0.22326 0.90628 0.0
H1008 H 0.45708 0.19726 0.98009 0.0
C1009 C 0.41372 0.22901 0.87324 0.0
C1010 C 0.45612 0.22507 0.87945 0.0
H1011 H 0.35501 0.23156 0.90249 0.0
H1012 H 0.40183 0.24221 0.84504 0.0
C1013 C 0.47076 0.20852 0.91664 0.0
C1014 C 0.0768 0.80416 0.43928 0.0
C1015 C 0.11958 0.79967 0.43883 0.0
H1016 H 0.02043 0.79181 0.40726 0.0
C1017 C 0.13905 0.79089 0.40122 0.0
H1018 H 0.06112 0.81026 0.46803 0.0
C1019 C 0.11578 0.77837 0.36694 0.0
C1020 C 0.07295 0.77687 0.36954 0.0
H1021 H 0.17207 0.78685 0.40032 0.0
H1022 H 0.13128 0.76572 0.34029 0.0
C1023 C 0.05356 0.79303 0.40461 0.0
C1024 C 0.12271 0.95795 0.332 0.0
C1025 C 0.14962 0.9402 0.30334 0.0
H1026 H 0.06571 0.95095 0.36359 0.0
C1027 C 0.14877 0.8977 0.2972 0.0
H1028 H 0.12274 0.99082 0.33702 0.0
C1029 C 0.1169 0.87449 0.31372 0.0
C1030 C 0.08451 0.89419 0.33451 0.0
H1031 H 0.16913 0.88342 0.27505 0.0
H1032 H 0.11371 0.84305 0.30323 0.0
C1033 C 0.09006 0.93501 0.34747 0.0
C1034 C 0.4511 0.07075 0.79258 0.0
C1035 C 0.44492 0.11308 0.78973 0.0
H1036 H 0.42447 0.01134 0.78416 0.0
C1037 C 0.40463 0.12828 0.78614 0.0
H1038 H 0.48194 0.05839 0.7945 0.0
C1039 C 0.37173 0.10135 0.77927 0.0
C1040 C 0.37895 0.05909 0.77674 0.0
H1041 H 0.39933 0.1609 0.78317 0.0
H1042 H 0.34191 0.11372 0.77114 0.0
C1043 C 0.4182 0.0439 0.78645 0.0
C1044 C 0.65376 0.61463 0.73955 0.0
C1045 C 0.65129 0.57183 0.73925 0.0
H1046 H 0.62031 0.67072 0.73362 0.0
C1047 C 0.6165 0.55272 0.72199 0.0
H1048 H 0.68017 0.62991 0.75313 0.0
C1049 C 0.58178 0.57593 0.71216 0.0
C1050 C 0.58211 0.61841 0.71869 0.0
H1051 H 0.61394 0.51961 0.72187 0.0
H1052 H 0.5532 0.5602 0.70541 0.0
C1053 C 0.61951 0.63793 0.72815 0.0
C1054 C 0.94522 0.45153 0.1943 0.0
C1055 C 0.94419 0.40927 0.20147 0.0
H1056 H 0.91456 0.50871 0.20384 0.0
C1057 C 0.9063 0.39071 0.21031 0.0
H1058 H 0.97407 0.46652 0.18768 0.0
C1059 C 0.87251 0.41501 0.221 0.0
C1060 C 0.87622 0.45774 0.22127 0.0
H1061 H 0.90481 0.35815 0.21636 0.0
H1062 H 0.84603 0.40057 0.23471 0.0
C1063 C 0.91108 0.47567 0.20373 0.0
C1064 C 0.32482 0.12525 0.96043 0.0
C1065 C 0.29746 0.15151 0.93989 0.0
H1066 H 0.35723 0.06829 0.95732 0.0
C1067 C 0.29392 0.14873 0.89692 0.0
H1068 H 0.32771 0.12657 0.99372 0.0
C1069 C 0.31213 0.11599 0.87577 0.0
C1070 C 0.33168 0.0845 0.89796 0.0
H1071 H 0.27282 0.16854 0.88048 0.0
H1072 H 0.30376 0.11144 0.84367 0.0
C1073 C 0.3421 0.09189 0.93947 0.0
C1074 C 0.78601 0.41386 0.04497 0.0
C1075 C 0.77552 0.37564 0.06146 0.0
H1076 H 0.7956 0.47767 0.05766 0.0
C1077 C 0.7785 0.36989 0.10412 0.0
H1078 H 0.78347 0.41897 0.01208 0.0
C1079 C 0.78651 0.40344 0.13021 0.0
C1080 C 0.79066 0.44297 0.11378 0.0
H1081 H 0.7699 0.34086 0.11749 0.0
H1082 H 0.78373 0.39944 0.1632 0.0
C1083 C 0.79323 0.44745 0.07099 0.0
C1084 C 0.69561 0.62296 0.56028 0.0
C1085 C 0.72116 0.65153 0.58046 0.0
H1086 H 0.66836 0.56341 0.56367 0.0
C1087 C 0.72534 0.64976 0.62339 0.0
H1088 H 0.69222 0.62361 0.52703 0.0
C1089 C 0.71032 0.61592 0.64471 0.0
C1090 C 0.69279 0.58277 0.62282 0.0
H1091 H 0.74518 0.67127 0.63953 0.0
H1092 H 0.71947 0.61251 0.67668 0.0
C1093 C 0.68178 0.58841 0.58132 0.0
C1094 C 0.22485 0.91899 0.47869 0.0
C1095 C 0.23629 0.88026 0.46336 0.0
H1096 H 0.21597 0.98243 0.46456 0.0
C1097 C 0.23549 0.87312 0.42074 0.0
H1098 H 0.2258 0.92519 0.51157 0.0
C1099 C 0.22899 0.90587 0.3938 0.0
C1100 C 0.22395 0.94587 0.40945 0.0
H1101 H 0.2449 0.8437 0.40829 0.0
H1102 H 0.23327 0.90084 0.36106 0.0
C1103 C 0.21922 0.95179 0.45188 0.0
C1104 C 0.05755 0.69761 0.89322 0.0
C1105 C 0.07712 0.72482 0.86644 0.0
H1106 H 0.06203 0.66598 0.95059 0.0
C1107 C 0.11983 0.72911 0.86876 0.0
H1108 H 0.02446 0.69411 0.89213 0.0
C1109 C 0.14168 0.7116 0.90146 0.0
C1110 C 0.12042 0.69195 0.93336 0.0
H1111 H 0.13547 0.75013 0.84854 0.0
H1112 H 0.17354 0.72035 0.90557 0.0
C1113 C 0.07916 0.68114 0.92662 0.0
C1114 C 0.47073 0.29881 0.42448 0.0
C1115 C 0.46037 0.28304 0.38533 0.0
H1116 H 0.45035 0.30908 0.4864 0.0
C1117 C 0.41898 0.27724 0.37496 0.0
H1118 H 0.50267 0.30288 0.43318 0.0
C1119 C 0.38901 0.2811 0.40541 0.0
C1120 C 0.40042 0.29059 0.44624 0.0
H1121 H 0.41045 0.26443 0.34519 0.0
H1122 H 0.35787 0.27166 0.39824 0.0
C1123 C 0.44088 0.30225 0.455 0.0
C1124 C 0.57686 0.80751 0.07456 0.0
C1125 C 0.61818 0.79768 0.08127 0.0
H1126 H 0.5162 0.80552 0.09916 0.0
C1127 C 0.6319 0.78923 0.12148 0.0
H1128 H 0.56564 0.81356 0.04368 0.0
C1129 C 0.60352 0.78387 0.15315 0.0
C1130 C 0.56146 0.78758 0.14471 0.0
H1131 H 0.66374 0.78122 0.12709 0.0
H1132 H 0.61399 0.77148 0.18228 0.0
C1133 C 0.54864 0.80296 0.10639 0.0
C1134 C 0.94152 0.18398 0.59499 0.0
C1135 C 0.89985 0.19246 0.58749 0.0
H1136 H 0.99486 0.19994 0.63041 0.0
C1137 C 0.87717 0.21221 0.61871 0.0
H1138 H 0.95981 0.16918 0.5714 0.0
C1139 C 0.89748 0.23079 0.65218 0.0
C1140 C 0.94024 0.22771 0.65603 0.0
H1141 H 0.84505 0.21951 0.61379 0.0
H1142 H 0.88037 0.25075 0.67265 0.0
C1143 C 0.96171 0.20216 0.62859 0.0
C1144 C 0.86725 0.11676 0.72468 0.0
C1145 C 0.86492 0.07402 0.72211 0.0
H1146 H 0.9055 0.16901 0.71777 0.0
C1147 C 0.8935 0.0527 0.6978 0.0
H1148 H 0.84565 0.13373 0.74348 0.0
C1149 C 0.92872 0.07268 0.68398 0.0
C1150 C 0.93493 0.1142 0.69379 0.0
H1151 H 0.89228 0.01957 0.69558 0.0
H1152 H 0.95365 0.05443 0.67167 0.0
C1153 C 0.90176 0.13698 0.70964 0.0
C1154 C 0.60955 0.96934 0.22726 0.0
C1155 C 0.64629 0.95072 0.24024 0.0
H1156 H 0.54522 0.9608 0.21593 0.0
C1157 C 0.64953 0.90796 0.23895 0.0
H1158 H 0.60633 1.00238 0.22861 0.0
C1159 C 0.61479 0.88413 0.23012 0.0
C1160 C 0.57638 0.90297 0.22415 0.0
H1161 H 0.67736 0.89301 0.24951 0.0
H1162 H 0.61673 0.85126 0.23425 0.0
C1163 C 0.57457 0.94559 0.21973 0.0
C1164 C 0.44848 0.44122 0.31367 0.0
C1165 C 0.44432 0.39908 0.30647 0.0
H1166 H 0.42106 0.50014 0.30547 0.0
C1167 C 0.40508 0.38289 0.29821 0.0
H1168 H 0.47851 0.45436 0.31958 0.0
C1169 C 0.37243 0.40915 0.28875 0.0
C1170 C 0.37879 0.45154 0.2889 0.0
H1171 H 0.40135 0.35037 0.2923 0.0
H1172 H 0.34444 0.39633 0.27582 0.0
C1173 C 0.41555 0.46738 0.30538 0.0
C1174 C 0.1502 0.60239 0.7891 0.0
C1175 C 0.14191 0.56036 0.79084 0.0
H1176 H 0.124 0.66259 0.78895 0.0
C1177 C 0.10388 0.54717 0.80593 0.0
H1178 H 0.17916 0.61314 0.77703 0.0
C1179 C 0.07212 0.5753 0.81196 0.0
C1180 C 0.07854 0.6168 0.80366 0.0
H1181 H 0.09683 0.51475 0.80705 0.0
H1182 H 0.04139 0.56394 0.81736 0.0
C1183 C 0.11859 0.63064 0.79595 0.0
C1184 C 0.69837 0.89025 0.06036 0.0
C1185 C 0.72505 0.86389 0.08167 0.0
H1186 H 0.66696 0.94781 0.06224 0.0
C1187 C 0.72802 0.86708 0.12461 0.0
H1188 H 0.69584 0.88841 0.02707 0.0
C1189 C 0.70998 0.9003 0.14506 0.0
C1190 C 0.69125 0.9318 0.12217 0.0
H1191 H 0.74858 0.84715 0.14158 0.0
H1192 H 0.71792 0.90509 0.17723 0.0
C1193 C 0.68145 0.9242 0.08058 0.0
C1194 C 0.21378 0.57827 0.94763 0.0
C1195 C 0.21804 0.57828 0.90468 0.0
H1196 H 0.22464 0.61134 1.00389 0.0
C1197 C 0.22553 0.61562 0.88474 0.0
H1198 H 0.20882 0.54975 0.96371 0.0
C1199 C 0.23625 0.65054 0.90777 0.0
C1200 C 0.23777 0.64871 0.95086 0.0
H1201 H 0.22961 0.61618 0.85162 0.0
H1202 H 0.24784 0.67719 0.89195 0.0
C1203 C 0.22324 0.61349 0.97059 0.0
C1204 C 0.28998 0.36694 0.40885 0.0
C1205 C 0.29224 0.37266 0.45162 0.0
H1206 H 0.29095 0.39654 0.35028 0.0
C1207 C 0.31037 0.40859 0.46749 0.0
H1208 H 0.27572 0.33966 0.396 0.0
C1209 C 0.31764 0.44172 0.44154 0.0
C1210 C 0.30825 0.43837 0.39948 0.0
H1211 H 0.31209 0.41366 0.50052 0.0
H1212 H 0.32467 0.47134 0.45516 0.0
C1213 C 0.29862 0.39966 0.38273 0.0
C1214 C 0.77966 0.14533 0.602 0.0
C1215 C 0.7763 0.13739 0.55959 0.0
H1216 H 0.78328 0.11877 0.66224 0.0
C1217 C 0.78401 0.09762 0.54467 0.0
H1218 H 0.77309 0.17562 0.61417 0.0
C1219 C 0.78914 0.06516 0.57198 0.0
C1220 C 0.78734 0.07223 0.61453 0.0
H1221 H 0.78109 0.09082 0.51202 0.0
H1222 H 0.78989 0.03412 0.55987 0.0
C1223 C 0.78546 0.11278 0.62943 0.0
loop_
_geom_bond_atom_site_label_1
_geom_bond_atom_site_label_2
_geom_bond_distance
_geom_bond_site_symmetry_2
_ccdc_geom_bond_type
O0 Mn1 2.163 . S
O0 C14 1.244 . S
Mn1 O0 2.163 . S
Mn1 O4 2.160 1_455 S
Mn1 O5 2.221 . S
Mn1 O7 2.163 1_455 S
Mn1 O9 2.160 . S
Mn1 O19 2.221 1_455 S
O2 Mn3 2.087 . S
O2 C14 1.256 . S
Mn3 O2 2.087 . S
Mn3 O10 2.089 . S
Mn3 O19 2.290 1_455 S
Mn3 O20 2.251 1_455 S
O4 Mn1 2.160 1_655 S
O4 C15 1.239 . S
O5 Mn1 2.221 . S
O5 Mn6 2.290 . S
O5 C16 1.278 . S
Mn6 O5 2.290 . S
Mn6 O8 2.089 1_455 S
Mn6 O11 2.251 . S
Mn6 O12 2.087 1_455 S
O7 Mn1 2.163 1_655 S
O7 C17 1.244 . S
O8 Mn6 2.089 1_655 S
O8 C15 1.256 . S
O9 Mn1 2.160 . S
O9 C18 1.239 . S
O10 Mn3 2.089 . S
O10 C18 1.256 . S
O11 Mn6 2.251 . S
O11 C16 1.241 . S
O12 Mn6 2.087 1_655 S
O12 C17 1.256 . S
C13 O19 1.278 . S
C13 O20 1.241 . S
C14 O0 1.244 . S
C14 O2 1.256 . S
C15 O4 1.239 . S
C15 O8 1.256 . S
C16 O5 1.278 . S
C16 O11 1.241 . S
C17 O7 1.244 . S
C17 O12 1.256 . S
C18 O9 1.239 . S
C18 O10 1.256 . S
O19 Mn1 2.221 1_655 S
O19 Mn3 2.290 1_655 S
O19 C13 1.278 . S
O20 Mn3 2.251 1_655 S
O20 C13 1.241 . S
O21 Mn22 2.163 . S
O21 C35 1.244 . S
Mn22 O21 2.163 . S
Mn22 O25 2.160 . S
Mn22 O26 2.221 . S
Mn22 O28 2.163 . S
Mn22 O30 2.160 . S
Mn22 O40 2.221 . S
O23 Mn24 2.087 . S
O23 C35 1.256 . S
Mn24 O23 2.087 . S
Mn24 O31 2.089 . S
Mn24 O40 2.290 . S
Mn24 O41 2.251 . S
O25 Mn22 2.160 . S
O25 C36 1.239 . S
O26 Mn22 2.221 . S
O26 Mn27 2.290 . S
O26 C37 1.278 . S
Mn27 O26 2.290 . S
Mn27 O29 2.089 . S
Mn27 O32 2.251 . S
Mn27 O33 2.087 . S
O28 Mn22 2.163 . S
O28 C38 1.244 . S
O29 Mn27 2.089 . S
O29 C36 1.256 . S
O30 Mn22 2.160 . S
O30 C39 1.239 . S
O31 Mn24 2.089 . S
O31 C39 1.256 . S
O32 Mn27 2.251 . S
O32 C37 1.241 . S
O33 Mn27 2.087 . S
O33 C38 1.256 . S
C34 O40 1.278 . S
C34 O41 1.241 . S
C35 O21 1.244 . S
C35 O23 1.256 . S
C36 O25 1.239 . S
C36 O29 1.256 . S
C37 O26 1.278 . S
C37 O32 1.241 . S
C38 O28 1.244 . S
C38 O33 1.256 . S
C39 O30 1.239 . S
C39 O31 1.256 . S
O40 Mn22 2.221 . S
O40 Mn24 2.290 . S
O40 C34 1.278 . S
O41 Mn24 2.251 . S
O41 C34 1.241 . S
O42 Mn43 2.163 . S
O42 C56 1.244 . S
Mn43 O42 2.163 . S
Mn43 O46 2.160 . S
Mn43 O47 2.221 . S
Mn43 O49 2.163 . S
Mn43 O51 2.160 . S
Mn43 O61 2.221 . S
O44 Mn45 2.087 . S
O44 C56 1.256 . S
Mn45 O44 2.087 . S
Mn45 O52 2.089 . S
Mn45 O61 2.290 . S
Mn45 O62 2.251 . S
O46 Mn43 2.160 . S
O46 C57 1.239 . S
O47 Mn43 2.221 . S
O47 Mn48 2.290 . S
O47 C58 1.278 . S
Mn48 O47 2.290 . S
Mn48 O50 2.089 . S
Mn48 O53 2.251 . S
Mn48 O54 2.087 . S
O49 Mn43 2.163 . S
O49 C59 1.244 . S
O50 Mn48 2.089 . S
O50 C57 1.256 . S
O51 Mn43 2.160 . S
O51 C60 1.239 . S
O52 Mn45 2.089 . S
O52 C60 1.256 . S
O53 Mn48 2.251 . S
O53 C58 1.241 . S
O54 Mn48 2.087 . S
O54 C59 1.256 . S
C55 O61 1.278 . S
C55 O62 1.241 . S
C56 O42 1.244 . S
C56 O44 1.256 . S
C57 O46 1.239 . S
C57 O50 1.256 . S
C58 O47 1.278 . S
C58 O53 1.241 . S
C59 O49 1.244 . S
C59 O54 1.256 . S
C60 O51 1.239 . S
C60 O52 1.256 . S
O61 Mn43 2.221 . S
O61 Mn45 2.290 . S
O61 C55 1.278 . S
O62 Mn45 2.251 . S
O62 C55 1.241 . S
O63 Mn64 2.163 . S
O63 C77 1.244 . S
Mn64 O63 2.163 . S
Mn64 O67 2.160 1_655 S
Mn64 O68 2.221 . S
Mn64 O70 2.163 1_655 S
Mn64 O72 2.160 . S
Mn64 O82 2.221 1_655 S
O65 Mn66 2.087 . S
O65 C77 1.256 . S
Mn66 O65 2.087 . S
Mn66 O73 2.089 . S
Mn66 O82 2.290 1_655 S
Mn66 O83 2.251 1_655 S
O67 Mn64 2.160 1_455 S
O67 C78 1.239 . S
O68 Mn64 2.221 . S
O68 Mn69 2.290 . S
O68 C79 1.278 . S
Mn69 O68 2.290 . S
Mn69 O71 2.089 1_655 S
Mn69 O74 2.251 . S
Mn69 O75 2.087 1_655 S
O70 Mn64 2.163 1_455 S
O70 C80 1.244 . S
O71 Mn69 2.089 1_455 S
O71 C78 1.256 . S
O72 Mn64 2.160 . S
O72 C81 1.239 . S
O73 Mn66 2.089 . S
O73 C81 1.256 . S
O74 Mn69 2.251 . S
O74 C79 1.241 . S
O75 Mn69 2.087 1_455 S
O75 C80 1.256 . S
C76 O82 1.278 . S
C76 O83 1.241 . S
C77 O63 1.244 . S
C77 O65 1.256 . S
C78 O67 1.239 . S
C78 O71 1.256 . S
C79 O68 1.278 . S
C79 O74 1.241 . S
C80 O70 1.244 . S
C80 O75 1.256 . S
C81 O72 1.239 . S
C81 O73 1.256 . S
O82 Mn64 2.221 1_455 S
O82 Mn66 2.290 1_455 S
O82 C76 1.278 . S
O83 Mn66 2.251 1_455 S
O83 C76 1.241 . S
O84 Mn85 2.163 . S
O84 C98 1.244 . S
Mn85 O84 2.163 . S
Mn85 O88 2.160 1_545 S
Mn85 O89 2.221 . S
Mn85 O91 2.163 1_545 S
Mn85 O93 2.160 . S
Mn85 O103 2.221 1_545 S
O86 Mn87 2.087 . S
O86 C98 1.256 . S
Mn87 O86 2.087 . S
Mn87 O94 2.089 . S
Mn87 O103 2.290 1_545 S
Mn87 O104 2.251 1_545 S
O88 Mn85 2.160 1_565 S
O88 C99 1.239 . S
O89 Mn85 2.221 . S
O89 Mn90 2.290 . S
O89 C100 1.278 . S
Mn90 O89 2.290 . S
Mn90 O92 2.089 1_545 S
Mn90 O95 2.251 . S
Mn90 O96 2.087 1_545 S
O91 Mn85 2.163 1_565 S
O91 C101 1.244 . S
O92 Mn90 2.089 1_565 S
O92 C99 1.256 . S
O93 Mn85 2.160 . S
O93 C102 1.239 . S
O94 Mn87 2.089 . S
O94 C102 1.256 . S
O95 Mn90 2.251 . S
O95 C100 1.241 . S
O96 Mn90 2.087 1_565 S
O96 C101 1.256 . S
C97 O103 1.278 . S
C97 O104 1.241 . S
C98 O84 1.244 . S
C98 O86 1.256 . S
C99 O88 1.239 . S
C99 O92 1.256 . S
C100 O89 1.278 . S
C100 O95 1.241 . S
C101 O91 1.244 . S
C101 O96 1.256 . S
C102 O93 1.239 . S
C102 O94 1.256 . S
O103 Mn85 2.221 1_565 S
O103 Mn87 2.290 1_565 S
O103 C97 1.278 . S
O104 Mn87 2.251 1_565 S
O104 C97 1.241 . S
O105 Mn106 2.163 1_545 S
O105 C119 1.244 . S
Mn106 O105 2.163 1_565 S
Mn106 O109 2.160 . S
Mn106 O110 2.221 1_565 S
Mn106 O112 2.163 . S
Mn106 O114 2.160 1_565 S
Mn106 O124 2.221 . S
O107 Mn108 2.087 1_545 S
O107 C119 1.256 . S
Mn108 O107 2.087 1_565 S
Mn108 O115 2.089 1_565 S
Mn108 O124 2.290 . S
Mn108 O125 2.251 . S
O109 Mn106 2.160 . S
O109 C120 1.239 . S
O110 Mn106 2.221 1_545 S
O110 Mn111 2.290 1_545 S
O110 C121 1.278 . S
Mn111 O110 2.290 1_565 S
Mn111 O113 2.089 . S
Mn111 O116 2.251 1_565 S
Mn111 O117 2.087 . S
O112 Mn106 2.163 . S
O112 C122 1.244 . S
O113 Mn111 2.089 . S
O113 C120 1.256 . S
O114 Mn106 2.160 1_545 S
O114 C123 1.239 . S
O115 Mn108 2.089 1_545 S
O115 C123 1.256 . S
O116 Mn111 2.251 1_545 S
O116 C121 1.241 . S
O117 Mn111 2.087 . S
O117 C122 1.256 . S
C118 O124 1.278 . S
C118 O125 1.241 . S
C119 O105 1.244 . S
C119 O107 1.256 . S
C120 O109 1.239 . S
C120 O113 1.256 . S
C121 O110 1.278 . S
C121 O116 1.241 . S
C122 O112 1.244 . S
C122 O117 1.256 . S
C123 O114 1.239 . S
C123 O115 1.256 . S
O124 Mn106 2.221 . S
O124 Mn108 2.290 . S
O124 C118 1.278 . S
O125 Mn108 2.251 . S
O125 C118 1.241 . S
O126 Mn127 2.163 . S
O126 C140 1.244 . S
Mn127 O126 2.163 . S
Mn127 O130 2.160 . S
Mn127 O131 2.221 . S
Mn127 O133 2.163 . S
Mn127 O135 2.160 . S
Mn127 O145 2.221 . S
O128 Mn129 2.087 . S
O128 C140 1.256 . S
Mn129 O128 2.087 . S
Mn129 O136 2.089 . S
Mn129 O145 2.290 . S
Mn129 O146 2.251 . S
O130 Mn127 2.160 . S
O130 C141 1.239 . S
O131 Mn127 2.221 . S
O131 Mn132 2.290 . S
O131 C142 1.278 . S
Mn132 O131 2.290 . S
Mn132 O134 2.089 . S
Mn132 O137 2.251 . S
Mn132 O138 2.087 . S
O133 Mn127 2.163 . S
O133 C143 1.244 . S
O134 Mn132 2.089 . S
O134 C141 1.256 . S
O135 Mn127 2.160 . S
O135 C144 1.239 . S
O136 Mn129 2.089 . S
O136 C144 1.256 . S
O137 Mn132 2.251 . S
O137 C142 1.241 . S
O138 Mn132 2.087 . S
O138 C143 1.256 . S
C139 O145 1.278 . S
C139 O146 1.241 . S
C140 O126 1.244 . S
C140 O128 1.256 . S
C141 O130 1.239 . S
C141 O134 1.256 . S
C142 O131 1.278 . S
C142 O137 1.241 . S
C143 O133 1.244 . S
C143 O138 1.256 . S
C144 O135 1.239 . S
C144 O136 1.256 . S
O145 Mn127 2.221 . S
O145 Mn129 2.290 . S
O145 C139 1.278 . S
O146 Mn129 2.251 . S
O146 C139 1.241 . S
O147 Mn148 2.163 . S
O147 C161 1.244 . S
Mn148 O147 2.163 . S
Mn148 O151 2.160 . S
Mn148 O152 2.221 . S
Mn148 O154 2.163 . S
Mn148 O156 2.160 . S
Mn148 O166 2.221 . S
O149 Mn150 2.087 . S
O149 C161 1.256 . S
Mn150 O149 2.087 . S
Mn150 O157 2.089 . S
Mn150 O166 2.290 . S
Mn150 O167 2.251 . S
O151 Mn148 2.160 . S
O151 C162 1.239 . S
O152 Mn148 2.221 . S
O152 Mn153 2.290 . S
O152 C163 1.278 . S
Mn153 O152 2.290 . S
Mn153 O155 2.089 . S
Mn153 O158 2.251 . S
Mn153 O159 2.087 . S
O154 Mn148 2.163 . S
O154 C164 1.244 . S
O155 Mn153 2.089 . S
O155 C162 1.256 . S
O156 Mn148 2.160 . S
O156 C165 1.239 . S
O157 Mn150 2.089 . S
O157 C165 1.256 . S
O158 Mn153 2.251 . S
O158 C163 1.241 . S
O159 Mn153 2.087 . S
O159 C164 1.256 . S
C160 O166 1.278 . S
C160 O167 1.241 . S
C161 O147 1.244 . S
C161 O149 1.256 . S
C162 O151 1.239 . S
C162 O155 1.256 . S
C163 O152 1.278 . S
C163 O158 1.241 . S
C164 O154 1.244 . S
C164 O159 1.256 . S
C165 O156 1.239 . S
C165 O157 1.256 . S
O166 Mn148 2.221 . S
O166 Mn150 2.290 . S
O166 C160 1.278 . S
O167 Mn150 2.251 . S
O167 C160 1.241 . S
O168 Mn169 2.163 . S
O168 C182 1.244 . S
Mn169 O168 2.163 . S
Mn169 O172 2.160 1_554 S
Mn169 O173 2.221 . S
Mn169 O175 2.163 1_554 S
Mn169 O177 2.160 . S
Mn169 O187 2.221 1_554 S
O170 Mn171 2.087 . S
O170 C182 1.256 . S
Mn171 O170 2.087 . S
Mn171 O178 2.089 . S
Mn171 O187 2.290 1_554 S
Mn171 O188 2.251 1_554 S
O172 Mn169 2.160 1_556 S
O172 C183 1.239 . S
O173 Mn169 2.221 . S
O173 Mn174 2.290 . S
O173 C184 1.278 . S
Mn174 O173 2.290 . S
Mn174 O176 2.089 1_554 S
Mn174 O179 2.251 . S
Mn174 O180 2.087 1_554 S
O175 Mn169 2.163 1_556 S
O175 C185 1.244 . S
O176 Mn174 2.089 1_556 S
O176 C183 1.256 . S
O177 Mn169 2.160 . S
O177 C186 1.239 . S
O178 Mn171 2.089 . S
O178 C186 1.256 . S
O179 Mn174 2.251 . S
O179 C184 1.241 . S
O180 Mn174 2.087 1_556 S
O180 C185 1.256 . S
C181 O187 1.278 . S
C181 O188 1.241 . S
C182 O168 1.244 . S
C182 O170 1.256 . S
C183 O172 1.239 . S
C183 O176 1.256 . S
C184 O173 1.278 . S
C184 O179 1.241 . S
C185 O175 1.244 . S
C185 O180 1.256 . S
C186 O177 1.239 . S
C186 O178 1.256 . S
O187 Mn169 2.221 1_556 S
O187 Mn171 2.290 1_556 S
O187 C181 1.278 . S
O188 Mn171 2.251 1_556 S
O188 C181 1.241 . S
O189 Mn190 2.163 . S
O189 C203 1.244 . S
Mn190 O189 2.163 . S
Mn190 O193 2.160 1_556 S
Mn190 O194 2.221 . S
Mn190 O196 2.163 1_556 S
Mn190 O198 2.160 . S
Mn190 O208 2.221 1_556 S
O191 Mn192 2.087 . S
O191 C203 1.256 . S
Mn192 O191 2.087 . S
Mn192 O199 2.089 . S
Mn192 O208 2.290 1_556 S
Mn192 O209 2.251 1_556 S
O193 Mn190 2.160 1_554 S
O193 C204 1.239 . S
O194 Mn190 2.221 . S
O194 Mn195 2.290 . S
O194 C205 1.278 . S
Mn195 O194 2.290 . S
Mn195 O197 2.089 1_556 S
Mn195 O200 2.251 . S
Mn195 O201 2.087 1_556 S
O196 Mn190 2.163 1_554 S
O196 C206 1.244 . S
O197 Mn195 2.089 1_554 S
O197 C204 1.256 . S
O198 Mn190 2.160 . S
O198 C207 1.239 . S
O199 Mn192 2.089 . S
O199 C207 1.256 . S
O200 Mn195 2.251 . S
O200 C205 1.241 . S
O201 Mn195 2.087 1_554 S
O201 C206 1.256 . S
C202 O208 1.278 . S
C202 O209 1.241 . S
C203 O189 1.244 . S
C203 O191 1.256 . S
C204 O193 1.239 . S
C204 O197 1.256 . S
C205 O194 1.278 . S
C205 O200 1.241 . S
C206 O196 1.244 . S
C206 O201 1.256 . S
C207 O198 1.239 . S
C207 O199 1.256 . S
O208 Mn190 2.221 1_554 S
O208 Mn192 2.290 1_554 S
O208 C202 1.278 . S
O209 Mn192 2.251 1_554 S
O209 C202 1.241 . S
O210 Mn211 2.163 . S
O210 C224 1.244 . S
Mn211 O210 2.163 . S
Mn211 O214 2.160 . S
Mn211 O215 2.221 . S
Mn211 O217 2.163 . S
Mn211 O219 2.160 . S
Mn211 O229 2.221 . S
O212 Mn213 2.087 . S
O212 C224 1.256 . S
Mn213 O212 2.087 . S
Mn213 O220 2.089 . S
Mn213 O229 2.290 . S
Mn213 O230 2.251 . S
O214 Mn211 2.160 . S
O214 C225 1.239 . S
O215 Mn211 2.221 . S
O215 Mn216 2.290 . S
O215 C226 1.278 . S
Mn216 O215 2.290 . S
Mn216 O218 2.089 . S
Mn216 O221 2.251 . S
Mn216 O222 2.087 . S
O217 Mn211 2.163 . S
O217 C227 1.244 . S
O218 Mn216 2.089 . S
O218 C225 1.256 . S
O219 Mn211 2.160 . S
O219 C228 1.239 . S
O220 Mn213 2.089 . S
O220 C228 1.256 . S
O221 Mn216 2.251 . S
O221 C226 1.241 . S
O222 Mn216 2.087 . S
O222 C227 1.256 . S
C223 O229 1.278 . S
C223 O230 1.241 . S
C224 O210 1.244 . S
C224 O212 1.256 . S
C225 O214 1.239 . S
C225 O218 1.256 . S
C226 O215 1.278 . S
C226 O221 1.241 . S
C227 O217 1.244 . S
C227 O222 1.256 . S
C228 O219 1.239 . S
C228 O220 1.256 . S
O229 Mn211 2.221 . S
O229 Mn213 2.290 . S
O229 C223 1.278 . S
O230 Mn213 2.251 . S
O230 C223 1.241 . S
O231 Mn232 2.163 . S
O231 C245 1.244 . S
Mn232 O231 2.163 . S
Mn232 O235 2.160 . S
Mn232 O236 2.221 . S
Mn232 O238 2.163 . S
Mn232 O240 2.160 . S
Mn232 O250 2.221 . S
O233 Mn234 2.087 . S
O233 C245 1.256 . S
Mn234 O233 2.087 . S
Mn234 O241 2.089 . S
Mn234 O250 2.290 . S
Mn234 O251 2.251 . S
O235 Mn232 2.160 . S
O235 C246 1.239 . S
O236 Mn232 2.221 . S
O236 Mn237 2.290 . S
O236 C247 1.278 . S
Mn237 O236 2.290 . S
Mn237 O239 2.089 . S
Mn237 O242 2.251 . S
Mn237 O243 2.087 . S
O238 Mn232 2.163 . S
O238 C248 1.244 . S
O239 Mn237 2.089 . S
O239 C246 1.256 . S
O240 Mn232 2.160 . S
O240 C249 1.239 . S
O241 Mn234 2.089 . S
O241 C249 1.256 . S
O242 Mn237 2.251 . S
O242 C247 1.241 . S
O243 Mn237 2.087 . S
O243 C248 1.256 . S
C244 O250 1.278 . S
C244 O251 1.241 . S
C245 O231 1.244 . S
C245 O233 1.256 . S
C246 O235 1.239 . S
C246 O239 1.256 . S
C247 O236 1.278 . S
C247 O242 1.241 . S
C248 O238 1.244 . S
C248 O243 1.256 . S
C249 O240 1.239 . S
C249 O241 1.256 . S
O250 Mn232 2.221 . S
O250 Mn234 2.290 . S
O250 C244 1.278 . S
O251 Mn234 2.251 . S
O251 C244 1.241 . S
O252 Mn253 2.163 . S
O252 C266 1.244 . S
Mn253 O252 2.163 . S
Mn253 O256 2.160 1_655 S
Mn253 O257 2.221 . S
Mn253 O259 2.163 1_655 S
Mn253 O261 2.160 . S
Mn253 O271 2.221 1_655 S
O254 Mn255 2.087 . S
O254 C266 1.256 . S
Mn255 O254 2.087 . S
Mn255 O262 2.089 . S
Mn255 O271 2.290 1_655 S
Mn255 O272 2.251 1_655 S
O256 Mn253 2.160 1_455 S
O256 C267 1.239 . S
O257 Mn253 2.221 . S
O257 Mn258 2.290 . S
O257 C268 1.278 . S
Mn258 O257 2.290 . S
Mn258 O260 2.089 1_655 S
Mn258 O263 2.251 . S
Mn258 O264 2.087 1_655 S
O259 Mn253 2.163 1_455 S
O259 C269 1.244 . S
O260 Mn258 2.089 1_455 S
O260 C267 1.256 . S
O261 Mn253 2.160 . S
O261 C270 1.239 . S
O262 Mn255 2.089 . S
O262 C270 1.256 . S
O263 Mn258 2.251 . S
O263 C268 1.241 . S
O264 Mn258 2.087 1_455 S
O264 C269 1.256 . S
C265 O271 1.278 . S
C265 O272 1.241 . S
C266 O252 1.244 . S
C266 O254 1.256 . S
C267 O256 1.239 . S
C267 O260 1.256 . S
C268 O257 1.278 . S
C268 O263 1.241 . S
C269 O259 1.244 . S
C269 O264 1.256 . S
C270 O261 1.239 . S
C270 O262 1.256 . S
O271 Mn253 2.221 1_455 S
O271 Mn255 2.290 1_455 S
O271 C265 1.278 . S
O272 Mn255 2.251 1_455 S
O272 C265 1.241 . S
O273 Mn274 2.163 . S
O273 C287 1.244 . S
Mn274 O273 2.163 . S
Mn274 O277 2.160 . S
Mn274 O278 2.221 . S
Mn274 O280 2.163 . S
Mn274 O282 2.160 . S
Mn274 O292 2.221 . S
O275 Mn276 2.087 . S
O275 C287 1.256 . S
Mn276 O275 2.087 . S
Mn276 O283 2.089 . S
Mn276 O292 2.290 . S
Mn276 O293 2.251 . S
O277 Mn274 2.160 . S
O277 C288 1.239 . S
O278 Mn274 2.221 . S
O278 Mn279 2.290 . S
O278 C289 1.278 . S
Mn279 O278 2.290 . S
Mn279 O281 2.089 . S
Mn279 O284 2.251 . S
Mn279 O285 2.087 . S
O280 Mn274 2.163 . S
O280 C290 1.244 . S
O281 Mn279 2.089 . S
O281 C288 1.256 . S
O282 Mn274 2.160 . S
O282 C291 1.239 . S
O283 Mn276 2.089 . S
O283 C291 1.256 . S
O284 Mn279 2.251 . S
O284 C289 1.241 . S
O285 Mn279 2.087 . S
O285 C290 1.256 . S
C286 O292 1.278 . S
C286 O293 1.241 . S
C287 O273 1.244 . S
C287 O275 1.256 . S
C288 O277 1.239 . S
C288 O281 1.256 . S
C289 O278 1.278 . S
C289 O284 1.241 . S
C290 O280 1.244 . S
C290 O285 1.256 . S
C291 O282 1.239 . S
C291 O283 1.256 . S
O292 Mn274 2.221 . S
O292 Mn276 2.290 . S
O292 C286 1.278 . S
O293 Mn276 2.251 . S
O293 C286 1.241 . S
O294 Mn295 2.163 . S
O294 C308 1.244 . S
Mn295 O294 2.163 . S
Mn295 O298 2.160 . S
Mn295 O299 2.221 . S
Mn295 O301 2.163 . S
Mn295 O303 2.160 . S
Mn295 O313 2.221 . S
O296 Mn297 2.087 . S
O296 C308 1.256 . S
Mn297 O296 2.087 . S
Mn297 O304 2.089 . S
Mn297 O313 2.290 . S
Mn297 O314 2.251 . S
O298 Mn295 2.160 . S
O298 C309 1.239 . S
O299 Mn295 2.221 . S
O299 Mn300 2.290 . S
O299 C310 1.278 . S
Mn300 O299 2.290 . S
Mn300 O302 2.089 . S
Mn300 O305 2.251 . S
Mn300 O306 2.087 . S
O301 Mn295 2.163 . S
O301 C311 1.244 . S
O302 Mn300 2.089 . S
O302 C309 1.256 . S
O303 Mn295 2.160 . S
O303 C312 1.239 . S
O304 Mn297 2.089 . S
O304 C312 1.256 . S
O305 Mn300 2.251 . S
O305 C310 1.241 . S
O306 Mn300 2.087 . S
O306 C311 1.256 . S
C307 O313 1.278 . S
C307 O314 1.241 . S
C308 O294 1.244 . S
C308 O296 1.256 . S
C309 O298 1.239 . S
C309 O302 1.256 . S
C310 O299 1.278 . S
C310 O305 1.241 . S
C311 O301 1.244 . S
C311 O306 1.256 . S
C312 O303 1.239 . S
C312 O304 1.256 . S
O313 Mn295 2.221 . S
O313 Mn297 2.290 . S
O313 C307 1.278 . S
O314 Mn297 2.251 . S
O314 C307 1.241 . S
O315 Mn316 2.163 . S
O315 C329 1.244 . S
Mn316 O315 2.163 . S
Mn316 O319 2.160 1_455 S
Mn316 O320 2.221 . S
Mn316 O322 2.163 1_455 S
Mn316 O324 2.160 . S
Mn316 O334 2.221 1_455 S
O317 Mn318 2.087 . S
O317 C329 1.256 . S
Mn318 O317 2.087 . S
Mn318 O325 2.089 . S
Mn318 O334 2.290 1_455 S
Mn318 O335 2.251 1_455 S
O319 Mn316 2.160 1_655 S
O319 C330 1.239 . S
O320 Mn316 2.221 . S
O320 Mn321 2.290 . S
O320 C331 1.278 . S
Mn321 O320 2.290 . S
Mn321 O323 2.089 1_455 S
Mn321 O326 2.251 . S
Mn321 O327 2.087 1_455 S
O322 Mn316 2.163 1_655 S
O322 C332 1.244 . S
O323 Mn321 2.089 1_655 S
O323 C330 1.256 . S
O324 Mn316 2.160 . S
O324 C333 1.239 . S
O325 Mn318 2.089 . S
O325 C333 1.256 . S
O326 Mn321 2.251 . S
O326 C331 1.241 . S
O327 Mn321 2.087 1_655 S
O327 C332 1.256 . S
C328 O334 1.278 . S
C328 O335 1.241 . S
C329 O315 1.244 . S
C329 O317 1.256 . S
C330 O319 1.239 . S
C330 O323 1.256 . S
C331 O320 1.278 . S
C331 O326 1.241 . S
C332 O322 1.244 . S
C332 O327 1.256 . S
C333 O324 1.239 . S
C333 O325 1.256 . S
O334 Mn316 2.221 1_655 S
O334 Mn318 2.290 1_655 S
O334 C328 1.278 . S
O335 Mn318 2.251 1_655 S
O335 C328 1.241 . S
O336 Mn337 2.163 . S
O336 C350 1.244 . S
Mn337 O336 2.163 . S
Mn337 O340 2.160 1_565 S
Mn337 O341 2.221 . S
Mn337 O343 2.163 1_565 S
Mn337 O345 2.160 . S
Mn337 O355 2.221 1_565 S
O338 Mn339 2.087 . S
O338 C350 1.256 . S
Mn339 O338 2.087 . S
Mn339 O346 2.089 . S
Mn339 O355 2.290 1_565 S
Mn339 O356 2.251 1_565 S
O340 Mn337 2.160 1_545 S
O340 C351 1.239 . S
O341 Mn337 2.221 . S
O341 Mn342 2.290 . S
O341 C352 1.278 . S
Mn342 O341 2.290 . S
Mn342 O344 2.089 1_565 S
Mn342 O347 2.251 . S
Mn342 O348 2.087 1_565 S
O343 Mn337 2.163 1_545 S
O343 C353 1.244 . S
O344 Mn342 2.089 1_545 S
O344 C351 1.256 . S
O345 Mn337 2.160 . S
O345 C354 1.239 . S
O346 Mn339 2.089 . S
O346 C354 1.256 . S
O347 Mn342 2.251 . S
O347 C352 1.241 . S
O348 Mn342 2.087 1_545 S
O348 C353 1.256 . S
C349 O355 1.278 . S
C349 O356 1.241 . S
C350 O336 1.244 . S
C350 O338 1.256 . S
C351 O340 1.239 . S
C351 O344 1.256 . S
C352 O341 1.278 . S
C352 O347 1.241 . S
C353 O343 1.244 . S
C353 O348 1.256 . S
C354 O345 1.239 . S
C354 O346 1.256 . S
O355 Mn337 2.221 1_545 S
O355 Mn339 2.290 1_545 S
O355 C349 1.278 . S
O356 Mn339 2.251 1_545 S
O356 C349 1.241 . S
O357 Mn358 2.163 . S
O357 C371 1.244 . S
Mn358 O357 2.163 . S
Mn358 O361 2.160 1_545 S
Mn358 O362 2.221 . S
Mn358 O364 2.163 1_545 S
Mn358 O366 2.160 . S
Mn358 O376 2.221 1_545 S
O359 Mn360 2.087 . S
O359 C371 1.256 . S
Mn360 O359 2.087 . S
Mn360 O367 2.089 . S
Mn360 O376 2.290 1_545 S
Mn360 O377 2.251 1_545 S
O361 Mn358 2.160 1_565 S
O361 C372 1.239 . S
O362 Mn358 2.221 . S
O362 Mn363 2.290 . S
O362 C373 1.278 . S
Mn363 O362 2.290 . S
Mn363 O365 2.089 1_545 S
Mn363 O368 2.251 . S
Mn363 O369 2.087 1_545 S
O364 Mn358 2.163 1_565 S
O364 C374 1.244 . S
O365 Mn363 2.089 1_565 S
O365 C372 1.256 . S
O366 Mn358 2.160 . S
O366 C375 1.239 . S
O367 Mn360 2.089 . S
O367 C375 1.256 . S
O368 Mn363 2.251 . S
O368 C373 1.241 . S
O369 Mn363 2.087 1_565 S
O369 C374 1.256 . S
C370 O376 1.278 . S
C370 O377 1.241 . S
C371 O357 1.244 . S
C371 O359 1.256 . S
C372 O361 1.239 . S
C372 O365 1.256 . S
C373 O362 1.278 . S
C373 O368 1.241 . S
C374 O364 1.244 . S
C374 O369 1.256 . S
C375 O366 1.239 . S
C375 O367 1.256 . S
O376 Mn358 2.221 1_565 S
O376 Mn360 2.290 1_565 S
O376 C370 1.278 . S
O377 Mn360 2.251 1_565 S
O377 C370 1.241 . S
O378 Mn379 2.163 . S
O378 C392 1.244 . S
Mn379 O378 2.163 . S
Mn379 O382 2.160 . S
Mn379 O383 2.221 . S
Mn379 O385 2.163 . S
Mn379 O387 2.160 . S
Mn379 O397 2.221 . S
O380 Mn381 2.087 . S
O380 C392 1.256 . S
Mn381 O380 2.087 . S
Mn381 O388 2.089 . S
Mn381 O397 2.290 . S
Mn381 O398 2.251 . S
O382 Mn379 2.160 . S
O382 C393 1.239 . S
O383 Mn379 2.221 . S
O383 Mn384 2.290 . S
O383 C394 1.278 . S
Mn384 O383 2.290 . S
Mn384 O386 2.089 . S
Mn384 O389 2.251 . S
Mn384 O390 2.087 . S
O385 Mn379 2.163 . S
O385 C395 1.244 . S
O386 Mn384 2.089 . S
O386 C393 1.256 . S
O387 Mn379 2.160 . S
O387 C396 1.239 . S
O388 Mn381 2.089 . S
O388 C396 1.256 . S
O389 Mn384 2.251 . S
O389 C394 1.241 . S
O390 Mn384 2.087 . S
O390 C395 1.256 . S
C391 O397 1.278 . S
C391 O398 1.241 . S
C392 O378 1.244 . S
C392 O380 1.256 . S
C393 O382 1.239 . S
C393 O386 1.256 . S
C394 O383 1.278 . S
C394 O389 1.241 . S
C395 O385 1.244 . S
C395 O390 1.256 . S
C396 O387 1.239 . S
C396 O388 1.256 . S
O397 Mn379 2.221 . S
O397 Mn381 2.290 . S
O397 C391 1.278 . S
O398 Mn381 2.251 . S
O398 C391 1.241 . S
O399 Mn400 2.163 . S
O399 C413 1.244 . S
Mn400 O399 2.163 . S
Mn400 O403 2.160 . S
Mn400 O404 2.221 . S
Mn400 O406 2.163 . S
Mn400 O408 2.160 . S
Mn400 O418 2.221 . S
O401 Mn402 2.087 . S
O401 C413 1.256 . S
Mn402 O401 2.087 . S
Mn402 O409 2.089 . S
Mn402 O418 2.290 . S
Mn402 O419 2.251 . S
O403 Mn400 2.160 . S
O403 C414 1.239 . S
O404 Mn400 2.221 . S
O404 Mn405 2.290 . S
O404 C415 1.278 . S
Mn405 O404 2.290 . S
Mn405 O407 2.089 . S
Mn405 O410 2.251 . S
Mn405 O411 2.087 . S
O406 Mn400 2.163 . S
O406 C416 1.244 . S
O407 Mn405 2.089 . S
O407 C414 1.256 . S
O408 Mn400 2.160 . S
O408 C417 1.239 . S
O409 Mn402 2.089 . S
O409 C417 1.256 . S
O410 Mn405 2.251 . S
O410 C415 1.241 . S
O411 Mn405 2.087 . S
O411 C416 1.256 . S
C412 O418 1.278 . S
C412 O419 1.241 . S
C413 O399 1.244 . S
C413 O401 1.256 . S
C414 O403 1.239 . S
C414 O407 1.256 . S
C415 O404 1.278 . S
C415 O410 1.241 . S
C416 O406 1.244 . S
C416 O411 1.256 . S
C417 O408 1.239 . S
C417 O409 1.256 . S
O418 Mn400 2.221 . S
O418 Mn402 2.290 . S
O418 C412 1.278 . S
O419 Mn402 2.251 . S
O419 C412 1.241 . S
O420 Mn421 2.163 . S
O420 C434 1.244 . S
Mn421 O420 2.163 . S
Mn421 O424 2.160 1_556 S
Mn421 O425 2.221 . S
Mn421 O427 2.163 1_556 S
Mn421 O429 2.160 . S
Mn421 O439 2.221 1_556 S
O422 Mn423 2.087 . S
O422 C434 1.256 . S
Mn423 O422 2.087 . S
Mn423 O430 2.089 . S
Mn423 O439 2.290 1_556 S
Mn423 O440 2.251 1_556 S
O424 Mn421 2.160 1_554 S
O424 C435 1.239 . S
O425 Mn421 2.221 . S
O425 Mn426 2.290 . S
O425 C436 1.278 . S
Mn426 O425 2.290 . S
Mn426 O428 2.089 1_556 S
Mn426 O431 2.251 . S
Mn426 O432 2.087 1_556 S
O427 Mn421 2.163 1_554 S
O427 C437 1.244 . S
O428 Mn426 2.089 1_554 S
O428 C435 1.256 . S
O429 Mn421 2.160 . S
O429 C438 1.239 . S
O430 Mn423 2.089 . S
O430 C438 1.256 . S
O431 Mn426 2.251 . S
O431 C436 1.241 . S
O432 Mn426 2.087 1_554 S
O432 C437 1.256 . S
C433 O439 1.278 . S
C433 O440 1.241 . S
C434 O420 1.244 . S
C434 O422 1.256 . S
C435 O424 1.239 . S
C435 O428 1.256 . S
C436 O425 1.278 . S
C436 O431 1.241 . S
C437 O427 1.244 . S
C437 O432 1.256 . S
C438 O429 1.239 . S
C438 O430 1.256 . S
O439 Mn421 2.221 1_554 S
O439 Mn423 2.290 1_554 S
O439 C433 1.278 . S
O440 Mn423 2.251 1_554 S
O440 C433 1.241 . S
O441 Mn442 2.163 . S
O441 C455 1.244 . S
Mn442 O441 2.163 . S
Mn442 O445 2.160 1_554 S
Mn442 O446 2.221 . S
Mn442 O448 2.163 1_554 S
Mn442 O450 2.160 . S
Mn442 O460 2.221 1_554 S
O443 Mn444 2.087 . S
O443 C455 1.256 . S
Mn444 O443 2.087 . S
Mn444 O451 2.089 . S
Mn444 O460 2.290 1_554 S
Mn444 O461 2.251 1_554 S
O445 Mn442 2.160 1_556 S
O445 C456 1.239 . S
O446 Mn442 2.221 . S
O446 Mn447 2.290 . S
O446 C457 1.278 . S
Mn447 O446 2.290 . S
Mn447 O449 2.089 1_554 S
Mn447 O452 2.251 . S
Mn447 O453 2.087 1_554 S
O448 Mn442 2.163 1_556 S
O448 C458 1.244 . S
O449 Mn447 2.089 1_556 S
O449 C456 1.256 . S
O450 Mn442 2.160 . S
O450 C459 1.239 . S
O451 Mn444 2.089 . S
O451 C459 1.256 . S
O452 Mn447 2.251 . S
O452 C457 1.241 . S
O453 Mn447 2.087 1_556 S
O453 C458 1.256 . S
C454 O460 1.278 . S
C454 O461 1.241 . S
C455 O441 1.244 . S
C455 O443 1.256 . S
C456 O445 1.239 . S
C456 O449 1.256 . S
C457 O446 1.278 . S
C457 O452 1.241 . S
C458 O448 1.244 . S
C458 O453 1.256 . S
C459 O450 1.239 . S
C459 O451 1.256 . S
O460 Mn442 2.221 1_556 S
O460 Mn444 2.290 1_556 S
O460 C454 1.278 . S
O461 Mn444 2.251 1_556 S
O461 C454 1.241 . S
O462 Mn463 2.163 . S
O462 C476 1.244 . S
Mn463 O462 2.163 . S
Mn463 O466 2.160 . S
Mn463 O467 2.221 . S
Mn463 O469 2.163 . S
Mn463 O471 2.160 . S
Mn463 O481 2.221 . S
O464 Mn465 2.087 . S
O464 C476 1.256 . S
Mn465 O464 2.087 . S
Mn465 O472 2.089 . S
Mn465 O481 2.290 . S
Mn465 O482 2.251 . S
O466 Mn463 2.160 . S
O466 C477 1.239 . S
O467 Mn463 2.221 . S
O467 Mn468 2.290 . S
O467 C478 1.278 . S
Mn468 O467 2.290 . S
Mn468 O470 2.089 . S
Mn468 O473 2.251 . S
Mn468 O474 2.087 . S
O469 Mn463 2.163 . S
O469 C479 1.244 . S
O470 Mn468 2.089 . S
O470 C477 1.256 . S
O471 Mn463 2.160 . S
O471 C480 1.239 . S
O472 Mn465 2.089 . S
O472 C480 1.256 . S
O473 Mn468 2.251 . S
O473 C478 1.241 . S
O474 Mn468 2.087 . S
O474 C479 1.256 . S
C475 O481 1.278 . S
C475 O482 1.241 . S
C476 O462 1.244 . S
C476 O464 1.256 . S
C477 O466 1.239 . S
C477 O470 1.256 . S
C478 O467 1.278 . S
C478 O473 1.241 . S
C479 O469 1.244 . S
C479 O474 1.256 . S
C480 O471 1.239 . S
C480 O472 1.256 . S
O481 Mn463 2.221 . S
O481 Mn465 2.290 . S
O481 C475 1.278 . S
O482 Mn465 2.251 . S
O482 C475 1.241 . S
O483 Mn484 2.163 . S
O483 C497 1.244 . S
Mn484 O483 2.163 . S
Mn484 O487 2.160 . S
Mn484 O488 2.221 . S
Mn484 O490 2.163 . S
Mn484 O492 2.160 . S
Mn484 O502 2.221 . S
O485 Mn486 2.087 . S
O485 C497 1.256 . S
Mn486 O485 2.087 . S
Mn486 O493 2.089 . S
Mn486 O502 2.290 . S
Mn486 O503 2.251 . S
O487 Mn484 2.160 . S
O487 C498 1.239 . S
O488 Mn484 2.221 . S
O488 Mn489 2.290 . S
O488 C499 1.278 . S
Mn489 O488 2.290 . S
Mn489 O491 2.089 . S
Mn489 O494 2.251 . S
Mn489 O495 2.087 . S
O490 Mn484 2.163 . S
O490 C500 1.244 . S
O491 Mn489 2.089 . S
O491 C498 1.256 . S
O492 Mn484 2.160 . S
O492 C501 1.239 . S
O493 Mn486 2.089 . S
O493 C501 1.256 . S
O494 Mn489 2.251 . S
O494 C499 1.241 . S
O495 Mn489 2.087 . S
O495 C500 1.256 . S
C496 O502 1.278 . S
C496 O503 1.241 . S
C497 O483 1.244 . S
C497 O485 1.256 . S
C498 O487 1.239 . S
C498 O491 1.256 . S
C499 O488 1.278 . S
C499 O494 1.241 . S
C500 O490 1.244 . S
C500 O495 1.256 . S
C501 O492 1.239 . S
C501 O493 1.256 . S
O502 Mn484 2.221 . S
O502 Mn486 2.290 . S
O502 C496 1.278 . S
O503 Mn486 2.251 . S
O503 C496 1.241 . S
C504 C505 1.387 . S
C504 H508 0.950 . S
C504 C513 1.390 . S
C505 C504 1.387 . S
C505 C507 1.387 . S
H506 C513 0.950 . S
C507 C505 1.387 . S
C507 C509 1.390 . S
C507 H511 0.950 . S
H508 C504 0.950 . S
C509 C507 1.390 . S
C509 C510 1.387 . S
C509 H512 0.950 . S
C510 C509 1.387 . S
C510 C513 1.387 . S
H511 C507 0.950 . S
H512 C509 0.950 . S
C513 C504 1.390 . S
C513 H506 0.950 . S
C513 C510 1.387 . S
C514 C515 1.387 . S
C514 H518 0.950 . S
C514 C523 1.390 . S
C515 C514 1.387 . S
C515 C517 1.387 . S
H516 C523 0.950 . S
C517 C515 1.387 . S
C517 C519 1.390 . S
C517 H521 0.950 . S
H518 C514 0.950 . S
C519 C517 1.390 . S
C519 C520 1.387 . S
C519 H522 0.950 . S
C520 C519 1.387 . S
C520 C523 1.387 . S
H521 C517 0.950 . S
H522 C519 0.950 . S
C523 C514 1.390 . S
C523 H516 0.950 . S
C523 C520 1.387 . S
C524 C525 1.387 . S
C524 H528 0.950 . S
C524 C533 1.390 . S
C525 C524 1.387 . S
C525 C527 1.387 . S
H526 C533 0.950 . S
C527 C525 1.387 . S
C527 C529 1.390 . S
C527 H531 0.950 . S
H528 C524 0.950 . S
C529 C527 1.390 . S
C529 C530 1.387 . S
C529 H532 0.950 . S
C530 C529 1.387 . S
C530 C533 1.387 . S
H531 C527 0.950 . S
H532 C529 0.950 . S
C533 C524 1.390 . S
C533 H526 0.950 . S
C533 C530 1.387 . S
C534 C535 1.387 . S
C534 H538 0.950 . S
C534 C543 1.390 . S
C535 C534 1.387 . S
C535 C537 1.387 . S
H536 C543 0.950 . S
C537 C535 1.387 . S
C537 C539 1.390 . S
C537 H541 0.950 . S
H538 C534 0.950 . S
C539 C537 1.390 . S
C539 C540 1.387 . S
C539 H542 0.950 . S
C540 C539 1.387 . S
C540 C543 1.387 . S
H541 C537 0.950 . S
H542 C539 0.950 . S
C543 C534 1.390 . S
C543 H536 0.950 . S
C543 C540 1.387 . S
C544 C545 1.387 . S
C544 H548 0.950 . S
C544 C553 1.390 . S
C545 C544 1.387 . S
C545 C547 1.387 . S
H546 C553 0.950 . S
C547 C545 1.387 . S
C547 C549 1.390 . S
C547 H551 0.950 . S
H548 C544 0.950 . S
C549 C547 1.390 . S
C549 C550 1.387 . S
C549 H552 0.950 . S
C550 C549 1.387 . S
C550 C553 1.387 . S
H551 C547 0.950 . S
H552 C549 0.950 . S
C553 C544 1.390 . S
C553 H546 0.950 . S
C553 C550 1.387 . S
C554 C555 1.387 . S
C554 H558 0.950 . S
C554 C563 1.390 . S
C555 C554 1.387 . S
C555 C557 1.387 . S
H556 C563 0.950 . S
C557 C555 1.387 . S
C557 C559 1.390 . S
C557 H561 0.950 . S
H558 C554 0.950 . S
C559 C557 1.390 . S
C559 C560 1.387 . S
C559 H562 0.950 . S
C560 C559 1.387 . S
C560 C563 1.387 . S
H561 C557 0.950 . S
H562 C559 0.950 . S
C563 C554 1.390 . S
C563 H556 0.950 . S
C563 C560 1.387 . S
C564 C565 1.387 . S
C564 H568 0.950 . S
C564 C573 1.390 . S
C565 C564 1.387 . S
C565 C567 1.387 . S
H566 C573 0.950 . S
C567 C565 1.387 . S
C567 C569 1.390 . S
C567 H571 0.950 . S
H568 C564 0.950 . S
C569 C567 1.390 . S
C569 C570 1.387 . S
C569 H572 0.950 . S
C570 C569 1.387 . S
C570 C573 1.387 . S
H571 C567 0.950 . S
H572 C569 0.950 . S
C573 C564 1.390 . S
C573 H566 0.950 . S
C573 C570 1.387 . S
C574 C575 1.387 . S
C574 H578 0.950 . S
C574 C583 1.390 . S
C575 C574 1.387 . S
C575 C577 1.387 . S
H576 C583 0.950 . S
C577 C575 1.387 . S
C577 C579 1.390 . S
C577 H581 0.950 . S
H578 C574 0.950 . S
C579 C577 1.390 . S
C579 C580 1.387 . S
C579 H582 0.950 . S
C580 C579 1.387 . S
C580 C583 1.387 . S
H581 C577 0.950 . S
H582 C579 0.950 . S
C583 C574 1.390 . S
C583 H576 0.950 . S
C583 C580 1.387 . S
C584 C585 1.387 . S
C584 H588 0.950 . S
C584 C593 1.390 . S
C585 C584 1.387 . S
C585 C587 1.387 . S
H586 C593 0.950 . S
C587 C585 1.387 . S
C587 C589 1.390 . S
C587 H591 0.950 . S
H588 C584 0.950 . S
C589 C587 1.390 . S
C589 C590 1.387 . S
C589 H592 0.950 . S
C590 C589 1.387 . S
C590 C593 1.387 . S
H591 C587 0.950 . S
H592 C589 0.950 . S
C593 C584 1.390 . S
C593 H586 0.950 . S
C593 C590 1.387 . S
C594 C595 1.387 . S
C594 H598 0.950 . S
C594 C603 1.390 . S
C595 C594 1.387 . S
C595 C597 1.387 . S
H596 C603 0.950 . S
C597 C595 1.387 . S
C597 C599 1.390 . S
C597 H601 0.950 . S
H598 C594 0.950 . S
C599 C597 1.390 . S
C599 C600 1.387 . S
C599 H602 0.950 . S
C600 C599 1.387 . S
C600 C603 1.387 . S
H601 C597 0.950 . S
H602 C599 0.950 . S
C603 C594 1.390 . S
C603 H596 0.950 . S
C603 C600 1.387 . S
C604 C605 1.387 . S
C604 H608 0.950 . S
C604 C613 1.390 . S
C605 C604 1.387 . S
C605 C607 1.387 . S
H606 C613 0.950 . S
C607 C605 1.387 . S
C607 C609 1.390 . S
C607 H611 0.950 . S
H608 C604 0.950 . S
C609 C607 1.390 . S
C609 C610 1.387 . S
C609 H612 0.950 . S
C610 C609 1.387 . S
C610 C613 1.387 . S
H611 C607 0.950 . S
H612 C609 0.950 . S
C613 C604 1.390 . S
C613 H606 0.950 . S
C613 C610 1.387 . S
C614 C615 1.387 . S
C614 H618 0.950 . S
C614 C623 1.390 . S
C615 C614 1.387 . S
C615 C617 1.387 . S
H616 C623 0.950 . S
C617 C615 1.387 . S
C617 C619 1.390 . S
C617 H621 0.950 . S
H618 C614 0.950 . S
C619 C617 1.390 . S
C619 C620 1.387 . S
C619 H622 0.950 . S
C620 C619 1.387 . S
C620 C623 1.387 . S
H621 C617 0.950 . S
H622 C619 0.950 . S
C623 C614 1.390 . S
C623 H616 0.950 . S
C623 C620 1.387 . S
C624 C625 1.387 . S
C624 H628 0.950 . S
C624 C633 1.390 . S
C625 C624 1.387 . S
C625 C627 1.387 . S
H626 C633 0.950 . S
C627 C625 1.387 . S
C627 C629 1.390 . S
C627 H631 0.950 . S
H628 C624 0.950 . S
C629 C627 1.390 . S
C629 C630 1.387 . S
C629 H632 0.950 . S
C630 C629 1.387 . S
C630 C633 1.387 . S
H631 C627 0.950 . S
H632 C629 0.950 . S
C633 C624 1.390 . S
C633 H626 0.950 . S
C633 C630 1.387 . S
C634 C635 1.387 . S
C634 H638 0.950 . S
C634 C643 1.390 . S
C635 C634 1.387 . S
C635 C637 1.387 . S
H636 C643 0.950 . S
C637 C635 1.387 . S
C637 C639 1.390 . S
C637 H641 0.950 . S
H638 C634 0.950 . S
C639 C637 1.390 . S
C639 C640 1.387 . S
C639 H642 0.950 . S
C640 C639 1.387 . S
C640 C643 1.387 . S
H641 C637 0.950 . S
H642 C639 0.950 . S
C643 C634 1.390 . S
C643 H636 0.950 . S
C643 C640 1.387 . S
C644 C645 1.387 . S
C644 H648 0.950 . S
C644 C653 1.390 . S
C645 C644 1.387 . S
C645 C647 1.387 . S
H646 C653 0.950 . S
C647 C645 1.387 . S
C647 C649 1.390 . S
C647 H651 0.950 . S
H648 C644 0.950 . S
C649 C647 1.390 . S
C649 C650 1.387 . S
C649 H652 0.950 . S
C650 C649 1.387 . S
C650 C653 1.387 . S
H651 C647 0.950 . S
H652 C649 0.950 . S
C653 C644 1.390 . S
C653 H646 0.950 . S
C653 C650 1.387 . S
C654 C655 1.387 . S
C654 H658 0.950 . S
C654 C663 1.390 . S
C655 C654 1.387 . S
C655 C657 1.387 . S
H656 C663 0.950 . S
C657 C655 1.387 . S
C657 C659 1.390 . S
C657 H661 0.950 . S
H658 C654 0.950 . S
C659 C657 1.390 . S
C659 C660 1.387 . S
C659 H662 0.950 . S
C660 C659 1.387 . S
C660 C663 1.387 . S
H661 C657 0.950 . S
H662 C659 0.950 . S
C663 C654 1.390 . S
C663 H656 0.950 . S
C663 C660 1.387 . S
C664 C665 1.387 . S
C664 H668 0.950 . S
C664 C673 1.390 . S
C665 C664 1.387 . S
C665 C667 1.387 . S
H666 C673 0.950 . S
C667 C665 1.387 . S
C667 C669 1.390 . S
C667 H671 0.950 . S
H668 C664 0.950 . S
C669 C667 1.390 . S
C669 C670 1.387 . S
C669 H672 0.950 . S
C670 C669 1.387 . S
C670 C673 1.387 . S
H671 C667 0.950 . S
H672 C669 0.950 . S
C673 C664 1.390 . S
C673 H666 0.950 . S
C673 C670 1.387 . S
C674 C675 1.387 . S
C674 H678 0.950 . S
C674 C683 1.390 . S
C675 C674 1.387 . S
C675 C677 1.387 . S
H676 C683 0.950 . S
C677 C675 1.387 . S
C677 C679 1.390 . S
C677 H681 0.950 . S
H678 C674 0.950 . S
C679 C677 1.390 . S
C679 C680 1.387 . S
C679 H682 0.950 . S
C680 C679 1.387 . S
C680 C683 1.387 . S
H681 C677 0.950 . S
H682 C679 0.950 . S
C683 C674 1.390 . S
C683 H676 0.950 . S
C683 C680 1.387 . S
C684 C685 1.387 . S
C684 H688 0.950 . S
C684 C693 1.390 . S
C685 C684 1.387 . S
C685 C687 1.387 . S
H686 C693 0.950 . S
C687 C685 1.387 . S
C687 C689 1.390 . S
C687 H691 0.950 . S
H688 C684 0.950 . S
C689 C687 1.390 . S
C689 C690 1.387 . S
C689 H692 0.950 . S
C690 C689 1.387 . S
C690 C693 1.387 . S
H691 C687 0.950 . S
H692 C689 0.950 . S
C693 C684 1.390 . S
C693 H686 0.950 . S
C693 C690 1.387 . S
C694 C695 1.387 . S
C694 H698 0.950 . S
C694 C703 1.390 . S
C695 C694 1.387 . S
C695 C697 1.387 . S
H696 C703 0.950 . S
C697 C695 1.387 . S
C697 C699 1.390 . S
C697 H701 0.950 . S
H698 C694 0.950 . S
C699 C697 1.390 . S
C699 C700 1.387 . S
C699 H702 0.950 . S
C700 C699 1.387 . S
C700 C703 1.387 . S
H701 C697 0.950 . S
H702 C699 0.950 . S
C703 C694 1.390 . S
C703 H696 0.950 . S
C703 C700 1.387 . S
C704 C705 1.387 . S
C704 H708 0.950 . S
C704 C713 1.390 . S
C705 C704 1.387 . S
C705 C707 1.387 . S
H706 C713 0.950 . S
C707 C705 1.387 . S
C707 C709 1.390 . S
C707 H711 0.950 . S
H708 C704 0.950 . S
C709 C707 1.390 . S
C709 C710 1.387 . S
C709 H712 0.950 . S
C710 C709 1.387 . S
C710 C713 1.387 . S
H711 C707 0.950 . S
H712 C709 0.950 . S
C713 C704 1.390 . S
C713 H706 0.950 . S
C713 C710 1.387 . S
C714 C715 1.387 . S
C714 H718 0.950 . S
C714 C723 1.390 . S
C715 C714 1.387 . S
C715 C717 1.387 . S
H716 C723 0.950 . S
C717 C715 1.387 . S
C717 C719 1.390 . S
C717 H721 0.950 . S
H718 C714 0.950 . S
C719 C717 1.390 . S
C719 C720 1.387 . S
C719 H722 0.950 . S
C720 C719 1.387 . S
C720 C723 1.387 . S
H721 C717 0.950 . S
H722 C719 0.950 . S
C723 C714 1.390 . S
C723 H716 0.950 . S
C723 C720 1.387 . S
C724 C725 1.387 . S
C724 H728 0.950 . S
C724 C733 1.390 . S
C725 C724 1.387 . S
C725 C727 1.387 . S
H726 C733 0.950 . S
C727 C725 1.387 . S
C727 C729 1.390 . S
C727 H731 0.950 . S
H728 C724 0.950 . S
C729 C727 1.390 . S
C729 C730 1.387 . S
C729 H732 0.950 . S
C730 C729 1.387 . S
C730 C733 1.387 . S
H731 C727 0.950 . S
H732 C729 0.950 . S
C733 C724 1.390 . S
C733 H726 0.950 . S
C733 C730 1.387 . S
C734 C735 1.387 . S
C734 H738 0.950 . S
C734 C743 1.390 . S
C735 C734 1.387 . S
C735 C737 1.387 . S
H736 C743 0.950 . S
C737 C735 1.387 . S
C737 C739 1.390 . S
C737 H741 0.950 . S
H738 C734 0.950 . S
C739 C737 1.390 . S
C739 C740 1.387 . S
C739 H742 0.950 . S
C740 C739 1.387 . S
C740 C743 1.387 . S
H741 C737 0.950 . S
H742 C739 0.950 . S
C743 C734 1.390 . S
C743 H736 0.950 . S
C743 C740 1.387 . S
C744 C745 1.387 . S
C744 H748 0.950 . S
C744 C753 1.390 . S
C745 C744 1.387 . S
C745 C747 1.387 . S
H746 C753 0.950 . S
C747 C745 1.387 . S
C747 C749 1.390 . S
C747 H751 0.950 . S
H748 C744 0.950 . S
C749 C747 1.390 . S
C749 C750 1.387 . S
C749 H752 0.950 . S
C750 C749 1.387 . S
C750 C753 1.387 . S
H751 C747 0.950 . S
H752 C749 0.950 . S
C753 C744 1.390 . S
C753 H746 0.950 . S
C753 C750 1.387 . S
C754 C755 1.387 . S
C754 H758 0.950 . S
C754 C763 1.390 . S
C755 C754 1.387 . S
C755 C757 1.387 . S
H756 C763 0.950 . S
C757 C755 1.387 . S
C757 C759 1.390 . S
C757 H761 0.950 . S
H758 C754 0.950 . S
C759 C757 1.390 . S
C759 C760 1.387 . S
C759 H762 0.950 . S
C760 C759 1.387 . S
C760 C763 1.387 . S
H761 C757 0.950 . S
H762 C759 0.950 . S
C763 C754 1.390 . S
C763 H756 0.950 . S
C763 C760 1.387 . S
C764 C765 1.387 . S
C764 H768 0.950 . S
C764 C773 1.390 . S
C765 C764 1.387 . S
C765 C767 1.387 . S
H766 C773 0.950 . S
C767 C765 1.387 . S
C767 C769 1.390 . S
C767 H771 0.950 . S
H768 C764 0.950 . S
C769 C767 1.390 . S
C769 C770 1.387 . S
C769 H772 0.950 . S
C770 C769 1.387 . S
C770 C773 1.387 . S
H771 C767 0.950 . S
H772 C769 0.950 . S
C773 C764 1.390 . S
C773 H766 0.950 . S
C773 C770 1.387 . S
C774 C775 1.387 . S
C774 H778 0.950 . S
C774 C783 1.390 . S
C775 C774 1.387 . S
C775 C777 1.387 . S
H776 C783 0.950 . S
C777 C775 1.387 . S
C777 C779 1.390 . S
C777 H781 0.950 . S
H778 C774 0.950 . S
C779 C777 1.390 . S
C779 C780 1.387 . S
C779 H782 0.950 . S
C780 C779 1.387 . S
C780 C783 1.387 . S
H781 C777 0.950 . S
H782 C779 0.950 . S
C783 C774 1.390 . S
C783 H776 0.950 . S
C783 C780 1.387 . S
C784 C785 1.387 . S
C784 H788 0.950 . S
C784 C793 1.390 . S
C785 C784 1.387 . S
C785 C787 1.387 . S
H786 C793 0.950 . S
C787 C785 1.387 . S
C787 C789 1.390 . S
C787 H791 0.950 . S
H788 C784 0.950 . S
C789 C787 1.390 . S
C789 C790 1.387 . S
C789 H792 0.950 . S
C790 C789 1.387 . S
C790 C793 1.387 . S
H791 C787 0.950 . S
H792 C789 0.950 . S
C793 C784 1.390 . S
C793 H786 0.950 . S
C793 C790 1.387 . S
C794 C795 1.387 . S
C794 H798 0.950 . S
C794 C803 1.390 . S
C795 C794 1.387 . S
C795 C797 1.387 . S
H796 C803 0.950 . S
C797 C795 1.387 . S
C797 C799 1.390 . S
C797 H801 0.950 . S
H798 C794 0.950 . S
C799 C797 1.390 . S
C799 C800 1.387 . S
C799 H802 0.950 . S
C800 C799 1.387 . S
C800 C803 1.387 . S
H801 C797 0.950 . S
H802 C799 0.950 . S
C803 C794 1.390 . S
C803 H796 0.950 . S
C803 C800 1.387 . S
C804 C805 1.387 . S
C804 H808 0.950 . S
C804 C813 1.390 . S
C805 C804 1.387 . S
C805 C807 1.387 . S
H806 C813 0.950 . S
C807 C805 1.387 . S
C807 C809 1.390 . S
C807 H811 0.950 . S
H808 C804 0.950 . S
C809 C807 1.390 . S
C809 C810 1.387 . S
C809 H812 0.950 . S
C810 C809 1.387 . S
C810 C813 1.387 . S
H811 C807 0.950 . S
H812 C809 0.950 . S
C813 C804 1.390 . S
C813 H806 0.950 . S
C813 C810 1.387 . S
C814 C815 1.387 . S
C814 H818 0.950 . S
C814 C823 1.390 . S
C815 C814 1.387 . S
C815 C817 1.387 . S
H816 C823 0.950 . S
C817 C815 1.387 . S
C817 C819 1.390 . S
C817 H821 0.950 . S
H818 C814 0.950 . S
C819 C817 1.390 . S
C819 C820 1.387 . S
C819 H822 0.950 . S
C820 C819 1.387 . S
C820 C823 1.387 . S
H821 C817 0.950 . S
H822 C819 0.950 . S
C823 C814 1.390 . S
C823 H816 0.950 . S
C823 C820 1.387 . S
C824 C825 1.387 . S
C824 H828 0.950 . S
C824 C833 1.390 . S
C825 C824 1.387 . S
C825 C827 1.387 . S
H826 C833 0.950 . S
C827 C825 1.387 . S
C827 C829 1.390 . S
C827 H831 0.950 . S
H828 C824 0.950 . S
C829 C827 1.390 . S
C829 C830 1.387 . S
C829 H832 0.950 . S
C830 C829 1.387 . S
C830 C833 1.387 . S
H831 C827 0.950 . S
H832 C829 0.950 . S
C833 C824 1.390 . S
C833 H826 0.950 . S
C833 C830 1.387 . S
C834 C835 1.387 . S
C834 H838 0.950 . S
C834 C843 1.390 . S
C835 C834 1.387 . S
C835 C837 1.387 . S
H836 C843 0.950 . S
C837 C835 1.387 . S
C837 C839 1.390 . S
C837 H841 0.950 . S
H838 C834 0.950 . S
C839 C837 1.390 . S
C839 C840 1.387 . S
C839 H842 0.950 . S
C840 C839 1.387 . S
C840 C843 1.387 . S
H841 C837 0.950 . S
H842 C839 0.950 . S
C843 C834 1.390 . S
C843 H836 0.950 . S
C843 C840 1.387 . S
C844 C845 1.387 . S
C844 H848 0.950 . S
C844 C853 1.390 . S
C845 C844 1.387 . S
C845 C847 1.387 . S
H846 C853 0.950 . S
C847 C845 1.387 . S
C847 C849 1.390 . S
C847 H851 0.950 . S
H848 C844 0.950 . S
C849 C847 1.390 . S
C849 C850 1.387 . S
C849 H852 0.950 . S
C850 C849 1.387 . S
C850 C853 1.387 . S
H851 C847 0.950 . S
H852 C849 0.950 . S
C853 C844 1.390 . S
C853 H846 0.950 . S
C853 C850 1.387 . S
C854 C855 1.387 . S
C854 H858 0.950 . S
C854 C863 1.390 . S
C855 C854 1.387 . S
C855 C857 1.387 . S
H856 C863 0.950 . S
C857 C855 1.387 . S
C857 C859 1.390 . S
C857 H861 0.950 . S
H858 C854 0.950 . S
C859 C857 1.390 . S
C859 C860 1.387 . S
C859 H862 0.950 . S
C860 C859 1.387 . S
C860 C863 1.387 . S
H861 C857 0.950 . S
H862 C859 0.950 . S
C863 C854 1.390 . S
C863 H856 0.950 . S
C863 C860 1.387 . S
C864 C865 1.387 . S
C864 H868 0.950 . S
C864 C873 1.390 . S
C865 C864 1.387 . S
C865 C867 1.387 . S
H866 C873 0.950 . S
C867 C865 1.387 . S
C867 C869 1.390 . S
C867 H871 0.950 . S
H868 C864 0.950 . S
C869 C867 1.390 . S
C869 C870 1.387 . S
C869 H872 0.950 . S
C870 C869 1.387 . S
C870 C873 1.387 . S
H871 C867 0.950 . S
H872 C869 0.950 . S
C873 C864 1.390 . S
C873 H866 0.950 . S
C873 C870 1.387 . S
C874 C875 1.387 . S
C874 H878 0.950 . S
C874 C883 1.390 . S
C875 C874 1.387 . S
C875 C877 1.387 . S
H876 C883 0.950 . S
C877 C875 1.387 . S
C877 C879 1.390 . S
C877 H881 0.950 . S
H878 C874 0.950 . S
C879 C877 1.390 . S
C879 C880 1.387 . S
C879 H882 0.950 . S
C880 C879 1.387 . S
C880 C883 1.387 . S
H881 C877 0.950 . S
H882 C879 0.950 . S
C883 C874 1.390 . S
C883 H876 0.950 . S
C883 C880 1.387 . S
C884 C885 1.387 . S
C884 H888 0.950 . S
C884 C893 1.390 . S
C885 C884 1.387 . S
C885 C887 1.387 . S
H886 C893 0.950 . S
C887 C885 1.387 . S
C887 C889 1.390 . S
C887 H891 0.950 . S
H888 C884 0.950 . S
C889 C887 1.390 . S
C889 C890 1.387 . S
C889 H892 0.950 . S
C890 C889 1.387 . S
C890 C893 1.387 . S
H891 C887 0.950 . S
H892 C889 0.950 . S
C893 C884 1.390 . S
C893 H886 0.950 . S
C893 C890 1.387 . S
C894 C895 1.387 . S
C894 H898 0.950 . S
C894 C903 1.390 . S
C895 C894 1.387 . S
C895 C897 1.387 . S
H896 C903 0.950 . S
C897 C895 1.387 . S
C897 C899 1.390 . S
C897 H901 0.950 . S
H898 C894 0.950 . S
C899 C897 1.390 . S
C899 C900 1.387 . S
C899 H902 0.950 . S
C900 C899 1.387 . S
C900 C903 1.387 . S
H901 C897 0.950 . S
H902 C899 0.950 . S
C903 C894 1.390 . S
C903 H896 0.950 . S
C903 C900 1.387 . S
C904 C905 1.387 . S
C904 H908 0.950 . S
C904 C913 1.390 . S
C905 C904 1.387 . S
C905 C907 1.387 . S
H906 C913 0.950 . S
C907 C905 1.387 . S
C907 C909 1.390 . S
C907 H911 0.950 . S
H908 C904 0.950 . S
C909 C907 1.390 . S
C909 C910 1.387 . S
C909 H912 0.950 . S
C910 C909 1.387 . S
C910 C913 1.387 . S
H911 C907 0.950 . S
H912 C909 0.950 . S
C913 C904 1.390 . S
C913 H906 0.950 . S
C913 C910 1.387 . S
C914 C915 1.387 . S
C914 H918 0.950 . S
C914 C923 1.390 . S
C915 C914 1.387 . S
C915 C917 1.387 . S
H916 C923 0.950 . S
C917 C915 1.387 . S
C917 C919 1.390 . S
C917 H921 0.950 . S
H918 C914 0.950 . S
C919 C917 1.390 . S
C919 C920 1.387 . S
C919 H922 0.950 . S
C920 C919 1.387 . S
C920 C923 1.387 . S
H921 C917 0.950 . S
H922 C919 0.950 . S
C923 C914 1.390 . S
C923 H916 0.950 . S
C923 C920 1.387 . S
C924 C925 1.387 . S
C924 H928 0.950 . S
C924 C933 1.390 . S
C925 C924 1.387 . S
C925 C927 1.387 . S
H926 C933 0.950 . S
C927 C925 1.387 . S
C927 C929 1.390 . S
C927 H931 0.950 . S
H928 C924 0.950 . S
C929 C927 1.390 . S
C929 C930 1.387 . S
C929 H932 0.950 . S
C930 C929 1.387 . S
C930 C933 1.387 . S
H931 C927 0.950 . S
H932 C929 0.950 . S
C933 C924 1.390 . S
C933 H926 0.950 . S
C933 C930 1.387 . S
C934 C935 1.387 . S
C934 H938 0.950 . S
C934 C943 1.390 . S
C935 C934 1.387 . S
C935 C937 1.387 . S
H936 C943 0.950 . S
C937 C935 1.387 . S
C937 C939 1.390 . S
C937 H941 0.950 . S
H938 C934 0.950 . S
C939 C937 1.390 . S
C939 C940 1.387 . S
C939 H942 0.950 . S
C940 C939 1.387 . S
C940 C943 1.387 . S
H941 C937 0.950 . S
H942 C939 0.950 . S
C943 C934 1.390 . S
C943 H936 0.950 . S
C943 C940 1.387 . S
C944 C945 1.387 . S
C944 H948 0.950 . S
C944 C953 1.390 . S
C945 C944 1.387 . S
C945 C947 1.387 . S
H946 C953 0.950 . S
C947 C945 1.387 . S
C947 C949 1.390 . S
C947 H951 0.950 . S
H948 C944 0.950 . S
C949 C947 1.390 . S
C949 C950 1.387 . S
C949 H952 0.950 . S
C950 C949 1.387 . S
C950 C953 1.387 . S
H951 C947 0.950 . S
H952 C949 0.950 . S
C953 C944 1.390 . S
C953 H946 0.950 . S
C953 C950 1.387 . S
C954 C955 1.387 . S
C954 H958 0.950 . S
C954 C963 1.390 . S
C955 C954 1.387 . S
C955 C957 1.387 . S
H956 C963 0.950 . S
C957 C955 1.387 . S
C957 C959 1.390 . S
C957 H961 0.950 . S
H958 C954 0.950 . S
C959 C957 1.390 . S
C959 C960 1.387 . S
C959 H962 0.950 . S
C960 C959 1.387 . S
C960 C963 1.387 . S
H961 C957 0.950 . S
H962 C959 0.950 . S
C963 C954 1.390 . S
C963 H956 0.950 . S
C963 C960 1.387 . S
C964 C965 1.387 . S
C964 H968 0.950 . S
C964 C973 1.390 . S
C965 C964 1.387 . S
C965 C967 1.387 . S
H966 C973 0.950 . S
C967 C965 1.387 . S
C967 C969 1.390 . S
C967 H971 0.950 . S
H968 C964 0.950 . S
C969 C967 1.390 . S
C969 C970 1.387 . S
C969 H972 0.950 . S
C970 C969 1.387 . S
C970 C973 1.387 . S
H971 C967 0.950 . S
H972 C969 0.950 . S
C973 C964 1.390 . S
C973 H966 0.950 . S
C973 C970 1.387 . S
C974 C975 1.387 . S
C974 H978 0.950 . S
C974 C983 1.390 . S
C975 C974 1.387 . S
C975 C977 1.387 . S
H976 C983 0.950 . S
C977 C975 1.387 . S
C977 C979 1.390 . S
C977 H981 0.950 . S
H978 C974 0.950 . S
C979 C977 1.390 . S
C979 C980 1.387 . S
C979 H982 0.950 . S
C980 C979 1.387 . S
C980 C983 1.387 . S
H981 C977 0.950 . S
H982 C979 0.950 . S
C983 C974 1.390 . S
C983 H976 0.950 . S
C983 C980 1.387 . S
C984 C985 1.387 . S
C984 H988 0.950 . S
C984 C993 1.390 . S
C985 C984 1.387 . S
C985 C987 1.387 . S
H986 C993 0.950 . S
C987 C985 1.387 . S
C987 C989 1.390 . S
C987 H991 0.950 . S
H988 C984 0.950 . S
C989 C987 1.390 . S
C989 C990 1.387 . S
C989 H992 0.950 . S
C990 C989 1.387 . S
C990 C993 1.387 . S
H991 C987 0.950 . S
H992 C989 0.950 . S
C993 C984 1.390 . S
C993 H986 0.950 . S
C993 C990 1.387 . S
C994 C995 1.387 . S
C994 H998 0.950 . S
C994 C1003 1.390 . S
C995 C994 1.387 . S
C995 C997 1.387 . S
H996 C1003 0.950 . S
C997 C995 1.387 . S
C997 C999 1.390 . S
C997 H1001 0.950 . S
H998 C994 0.950 . S
C999 C997 1.390 . S
C999 C1000 1.387 . S
C999 H1002 0.950 . S
C1000 C999 1.387 . S
C1000 C1003 1.387 . S
H1001 C997 0.950 . S
H1002 C999 0.950 . S
C1003 C994 1.390 . S
C1003 H996 0.950 . S
C1003 C1000 1.387 . S
C1004 C1005 1.387 . S
C1004 H1008 0.950 . S
C1004 C1013 1.390 . S
C1005 C1004 1.387 . S
C1005 C1007 1.387 . S
H1006 C1013 0.950 . S
C1007 C1005 1.387 . S
C1007 C1009 1.390 . S
C1007 H1011 0.950 . S
H1008 C1004 0.950 . S
C1009 C1007 1.390 . S
C1009 C1010 1.387 . S
C1009 H1012 0.950 . S
C1010 C1009 1.387 . S
C1010 C1013 1.387 . S
H1011 C1007 0.950 . S
H1012 C1009 0.950 . S
C1013 C1004 1.390 . S
C1013 H1006 0.950 . S
C1013 C1010 1.387 . S
C1014 C1015 1.387 . S
C1014 H1018 0.950 . S
C1014 C1023 1.390 . S
C1015 C1014 1.387 . S
C1015 C1017 1.387 . S
H1016 C1023 0.950 . S
C1017 C1015 1.387 . S
C1017 C1019 1.390 . S
C1017 H1021 0.950 . S
H1018 C1014 0.950 . S
C1019 C1017 1.390 . S
C1019 C1020 1.387 . S
C1019 H1022 0.950 . S
C1020 C1019 1.387 . S
C1020 C1023 1.387 . S
H1021 C1017 0.950 . S
H1022 C1019 0.950 . S
C1023 C1014 1.390 . S
C1023 H1016 0.950 . S
C1023 C1020 1.387 . S
C1024 C1025 1.387 . S
C1024 H1028 0.950 . S
C1024 C1033 1.390 . S
C1025 C1024 1.387 . S
C1025 C1027 1.387 . S
H1026 C1033 0.950 . S
C1027 C1025 1.387 . S
C1027 C1029 1.390 . S
C1027 H1031 0.950 . S
H1028 C1024 0.950 . S
C1029 C1027 1.390 . S
C1029 C1030 1.387 . S
C1029 H1032 0.950 . S
C1030 C1029 1.387 . S
C1030 C1033 1.387 . S
H1031 C1027 0.950 . S
H1032 C1029 0.950 . S
C1033 C1024 1.390 . S
C1033 H1026 0.950 . S
C1033 C1030 1.387 . S
C1034 C1035 1.387 . S
C1034 H1038 0.950 . S
C1034 C1043 1.390 . S
C1035 C1034 1.387 . S
C1035 C1037 1.387 . S
H1036 C1043 0.950 . S
C1037 C1035 1.387 . S
C1037 C1039 1.390 . S
C1037 H1041 0.950 . S
H1038 C1034 0.950 . S
C1039 C1037 1.390 . S
C1039 C1040 1.387 . S
C1039 H1042 0.950 . S
C1040 C1039 1.387 . S
C1040 C1043 1.387 . S
H1041 C1037 0.950 . S
H1042 C1039 0.950 . S
C1043 C1034 1.390 . S
C1043 H1036 0.950 . S
C1043 C1040 1.387 . S
C1044 C1045 1.387 . S
C1044 H1048 0.950 . S
C1044 C1053 1.390 . S
C1045 C1044 1.387 . S
C1045 C1047 1.387 . S
H1046 C1053 0.950 . S
C1047 C1045 1.387 . S
C1047 C1049 1.390 . S
C1047 H1051 0.950 . S
H1048 C1044 0.950 . S
C1049 C1047 1.390 . S
C1049 C1050 1.387 . S
C1049 H1052 0.950 . S
C1050 C1049 1.387 . S
C1050 C1053 1.387 . S
H1051 C1047 0.950 . S
H1052 C1049 0.950 . S
C1053 C1044 1.390 . S
C1053 H1046 0.950 . S
C1053 C1050 1.387 . S
C1054 C1055 1.387 . S
C1054 H1058 0.950 . S
C1054 C1063 1.390 . S
C1055 C1054 1.387 . S
C1055 C1057 1.387 . S
H1056 C1063 0.950 . S
C1057 C1055 1.387 . S
C1057 C1059 1.390 . S
C1057 H1061 0.950 . S
H1058 C1054 0.950 . S
C1059 C1057 1.390 . S
C1059 C1060 1.387 . S
C1059 H1062 0.950 . S
C1060 C1059 1.387 . S
C1060 C1063 1.387 . S
H1061 C1057 0.950 . S
H1062 C1059 0.950 . S
C1063 C1054 1.390 . S
C1063 H1056 0.950 . S
C1063 C1060 1.387 . S
C1064 C1065 1.387 . S
C1064 H1068 0.950 . S
C1064 C1073 1.390 . S
C1065 C1064 1.387 . S
C1065 C1067 1.387 . S
H1066 C1073 0.950 . S
C1067 C1065 1.387 . S
C1067 C1069 1.390 . S
C1067 H1071 0.950 . S
H1068 C1064 0.950 . S
C1069 C1067 1.390 . S
C1069 C1070 1.387 . S
C1069 H1072 0.950 . S
C1070 C1069 1.387 . S
C1070 C1073 1.387 . S
H1071 C1067 0.950 . S
H1072 C1069 0.950 . S
C1073 C1064 1.390 . S
C1073 H1066 0.950 . S
C1073 C1070 1.387 . S
C1074 C1075 1.387 . S
C1074 H1078 0.950 . S
C1074 C1083 1.390 . S
C1075 C1074 1.387 . S
C1075 C1077 1.387 . S
H1076 C1083 0.950 . S
C1077 C1075 1.387 . S
C1077 C1079 1.390 . S
C1077 H1081 0.950 . S
H1078 C1074 0.950 . S
C1079 C1077 1.390 . S
C1079 C1080 1.387 . S
C1079 H1082 0.950 . S
C1080 C1079 1.387 . S
C1080 C1083 1.387 . S
H1081 C1077 0.950 . S
H1082 C1079 0.950 . S
C1083 C1074 1.390 . S
C1083 H1076 0.950 . S
C1083 C1080 1.387 . S
C1084 C1085 1.387 . S
C1084 H1088 0.950 . S
C1084 C1093 1.390 . S
C1085 C1084 1.387 . S
C1085 C1087 1.387 . S
H1086 C1093 0.950 . S
C1087 C1085 1.387 . S
C1087 C1089 1.390 . S
C1087 H1091 0.950 . S
H1088 C1084 0.950 . S
C1089 C1087 1.390 . S
C1089 C1090 1.387 . S
C1089 H1092 0.950 . S
C1090 C1089 1.387 . S
C1090 C1093 1.387 . S
H1091 C1087 0.950 . S
H1092 C1089 0.950 . S
C1093 C1084 1.390 . S
C1093 H1086 0.950 . S
C1093 C1090 1.387 . S
C1094 C1095 1.387 . S
C1094 H1098 0.950 . S
C1094 C1103 1.390 . S
C1095 C1094 1.387 . S
C1095 C1097 1.387 . S
H1096 C1103 0.950 . S
C1097 C1095 1.387 . S
C1097 C1099 1.390 . S
C1097 H1101 0.950 . S
H1098 C1094 0.950 . S
C1099 C1097 1.390 . S
C1099 C1100 1.387 . S
C1099 H1102 0.950 . S
C1100 C1099 1.387 . S
C1100 C1103 1.387 . S
H1101 C1097 0.950 . S
H1102 C1099 0.950 . S
C1103 C1094 1.390 . S
C1103 H1096 0.950 . S
C1103 C1100 1.387 . S
C1104 C1105 1.387 . S
C1104 H1108 0.950 . S
C1104 C1113 1.390 . S
C1105 C1104 1.387 . S
C1105 C1107 1.387 . S
H1106 C1113 0.950 . S
C1107 C1105 1.387 . S
C1107 C1109 1.390 . S
C1107 H1111 0.950 . S
H1108 C1104 0.950 . S
C1109 C1107 1.390 . S
C1109 C1110 1.387 . S
C1109 H1112 0.950 . S
C1110 C1109 1.387 . S
C1110 C1113 1.387 . S
H1111 C1107 0.950 . S
H1112 C1109 0.950 . S
C1113 C1104 1.390 . S
C1113 H1106 0.950 . S
C1113 C1110 1.387 . S
C1114 C1115 1.387 . S
C1114 H1118 0.950 . S
C1114 C1123 1.390 . S
C1115 C1114 1.387 . S
C1115 C1117 1.387 . S
H1116 C1123 0.950 . S
C1117 C1115 1.387 . S
C1117 C1119 1.390 . S
C1117 H1121 0.950 . S
H1118 C1114 0.950 . S
C1119 C1117 1.390 . S
C1119 C1120 1.387 . S
C1119 H1122 0.950 . S
C1120 C1119 1.387 . S
C1120 C1123 1.387 . S
H1121 C1117 0.950 . S
H1122 C1119 0.950 . S
C1123 C1114 1.390 . S
C1123 H1116 0.950 . S
C1123 C1120 1.387 . S
C1124 C1125 1.387 . S
C1124 H1128 0.950 . S
C1124 C1133 1.390 . S
C1125 C1124 1.387 . S
C1125 C1127 1.387 . S
H1126 C1133 0.950 . S
C1127 C1125 1.387 . S
C1127 C1129 1.390 . S
C1127 H1131 0.950 . S
H1128 C1124 0.950 . S
C1129 C1127 1.390 . S
C1129 C1130 1.387 . S
C1129 H1132 0.950 . S
C1130 C1129 1.387 . S
C1130 C1133 1.387 . S
H1131 C1127 0.950 . S
H1132 C1129 0.950 . S
C1133 C1124 1.390 . S
C1133 H1126 0.950 . S
C1133 C1130 1.387 . S
C1134 C1135 1.387 . S
C1134 H1138 0.950 . S
C1134 C1143 1.390 . S
C1135 C1134 1.387 . S
C1135 C1137 1.387 . S
H1136 C1143 0.950 . S
C1137 C1135 1.387 . S
C1137 C1139 1.390 . S
C1137 H1141 0.950 . S
H1138 C1134 0.950 . S
C1139 C1137 1.390 . S
C1139 C1140 1.387 . S
C1139 H1142 0.950 . S
C1140 C1139 1.387 . S
C1140 C1143 1.387 . S
H1141 C1137 0.950 . S
H1142 C1139 0.950 . S
C1143 C1134 1.390 . S
C1143 H1136 0.950 . S
C1143 C1140 1.387 . S
C1144 C1145 1.387 . S
C1144 H1148 0.950 . S
C1144 C1153 1.390 . S
C1145 C1144 1.387 . S
C1145 C1147 1.387 . S
H1146 C1153 0.950 . S
C1147 C1145 1.387 . S
C1147 C1149 1.390 . S
C1147 H1151 0.950 . S
H1148 C1144 0.950 . S
C1149 C1147 1.390 . S
C1149 C1150 1.387 . S
C1149 H1152 0.950 . S
C1150 C1149 1.387 . S
C1150 C1153 1.387 . S
H1151 C1147 0.950 . S
H1152 C1149 0.950 . S
C1153 C1144 1.390 . S
C1153 H1146 0.950 . S
C1153 C1150 1.387 . S
C1154 C1155 1.387 . S
C1154 H1158 0.950 . S
C1154 C1163 1.390 . S
C1155 C1154 1.387 . S
C1155 C1157 1.387 . S
H1156 C1163 0.950 . S
C1157 C1155 1.387 . S
C1157 C1159 1.390 . S
C1157 H1161 0.950 . S
H1158 C1154 0.950 . S
C1159 C1157 1.390 . S
C1159 C1160 1.387 . S
C1159 H1162 0.950 . S
C1160 C1159 1.387 . S
C1160 C1163 1.387 . S
H1161 C1157 0.950 . S
H1162 C1159 0.950 . S
C1163 C1154 1.390 . S
C1163 H1156 0.950 . S
C1163 C1160 1.387 . S
C1164 C1165 1.387 . S
C1164 H1168 0.950 . S
C1164 C1173 1.390 . S
C1165 C1164 1.387 . S
C1165 C1167 1.387 . S
H1166 C1173 0.950 . S
C1167 C1165 1.387 . S
C1167 C1169 1.390 . S
C1167 H1171 0.950 . S
H1168 C1164 0.950 . S
C1169 C1167 1.390 . S
C1169 C1170 1.387 . S
C1169 H1172 0.950 . S
C1170 C1169 1.387 . S
C1170 C1173 1.387 . S
H1171 C1167 0.950 . S
H1172 C1169 0.950 . S
C1173 C1164 1.390 . S
C1173 H1166 0.950 . S
C1173 C1170 1.387 . S
C1174 C1175 1.387 . S
C1174 H1178 0.950 . S
C1174 C1183 1.390 . S
C1175 C1174 1.387 . S
C1175 C1177 1.387 . S
H1176 C1183 0.950 . S
C1177 C1175 1.387 . S
C1177 C1179 1.390 . S
C1177 H1181 0.950 . S
H1178 C1174 0.950 . S
C1179 C1177 1.390 . S
C1179 C1180 1.387 . S
C1179 H1182 0.950 . S
C1180 C1179 1.387 . S
C1180 C1183 1.387 . S
H1181 C1177 0.950 . S
H1182 C1179 0.950 . S
C1183 C1174 1.390 . S
C1183 H1176 0.950 . S
C1183 C1180 1.387 . S
C1184 C1185 1.387 . S
C1184 H1188 0.950 . S
C1184 C1193 1.390 . S
C1185 C1184 1.387 . S
C1185 C1187 1.387 . S
H1186 C1193 0.950 . S
C1187 C1185 1.387 . S
C1187 C1189 1.390 . S
C1187 H1191 0.950 . S
H1188 C1184 0.950 . S
C1189 C1187 1.390 . S
C1189 C1190 1.387 . S
C1189 H1192 0.950 . S
C1190 C1189 1.387 . S
C1190 C1193 1.387 . S
H1191 C1187 0.950 . S
H1192 C1189 0.950 . S
C1193 C1184 1.390 . S
C1193 H1186 0.950 . S
C1193 C1190 1.387 . S
C1194 C1195 1.387 . S
C1194 H1198 0.950 . S
C1194 C1203 1.390 . S
C1195 C1194 1.387 . S
C1195 C1197 1.387 . S
H1196 C1203 0.950 . S
C1197 C1195 1.387 . S
C1197 C1199 1.390 . S
C1197 H1201 0.950 . S
H1198 C1194 0.950 . S
C1199 C1197 1.390 . S
C1199 C1200 1.387 . S
C1199 H1202 0.950 . S
C1200 C1199 1.387 . S
C1200 C1203 1.387 . S
H1201 C1197 0.950 . S
H1202 C1199 0.950 . S
C1203 C1194 1.390 . S
C1203 H1196 0.950 . S
C1203 C1200 1.387 . S
C1204 C1205 1.387 . S
C1204 H1208 0.950 . S
C1204 C1213 1.390 . S
C1205 C1204 1.387 . S
C1205 C1207 1.387 . S
H1206 C1213 0.950 . S
C1207 C1205 1.387 . S
C1207 C1209 1.390 . S
C1207 H1211 0.950 . S
H1208 C1204 0.950 . S
C1209 C1207 1.390 . S
C1209 C1210 1.387 . S
C1209 H1212 0.950 . S
C1210 C1209 1.387 . S
C1210 C1213 1.387 . S
H1211 C1207 0.950 . S
H1212 C1209 0.950 . S
C1213 C1204 1.390 . S
C1213 H1206 0.950 . S
C1213 C1210 1.387 . S
C1214 C1215 1.387 . S
C1214 H1218 0.950 . S
C1214 C1223 1.390 . S
C1215 C1214 1.387 . S
C1215 C1217 1.387 . S
H1216 C1223 0.950 . S
C1217 C1215 1.387 . S
C1217 C1219 1.390 . S
C1217 H1221 0.950 . S
H1218 C1214 0.950 . S
C1219 C1217 1.390 . S
C1219 C1220 1.387 . S
C1219 H1222 0.950 . S
C1220 C1219 1.387 . S
C1220 C1223 1.387 . S
H1221 C1217 0.950 . S
H1222 C1219 0.950 . S
C1223 C1214 1.390 . S
C1223 H1216 0.950 . S
C1223 C1220 1.387 . S
C505 C16 1.177 . S
C510 C393 1.332 . S
C515 C414 1.332 . S
C520 C34 1.177 . S
C525 C55 1.177 . S
C530 C351 1.332 . S
C535 C79 1.177 . S
C540 C372 1.332 . S
C545 C477 1.331 . S
C550 C100 1.184 . S
C555 C118 1.177 . S
C560 C456 1.332 . S
C565 C498 1.331 . S
C570 C142 1.184 . S
C575 C163 1.177 . S
C580 C435 1.332 . S
C585 C184 1.177 . S
C590 C288 1.332 . S
C595 C205 1.184 . S
C600 C330 1.331 . S
C605 C309 1.332 . S
C610 C223 1.177 . S
C615 C244 1.177 . S
C620 C267 1.332 . S
C625 C268 1.184 . S
C630 C141 1.331 . S
C635 C289 1.184 . S
C640 C162 1.331 . S
C645 C310 1.177 . S
C650 C99 1.332 . S
C655 C123 1.331 . S
C660 C331 1.184 . S
C665 C352 1.184 . S
C670 C228 1.331 . S
C675 C204 1.332 . S
C680 C373 1.177 . S
C685 C249 1.332 . S
C690 C394 1.177 . S
C695 C183 1.332 . S
C700 C415 1.184 . S
C705 C39 1.332 . S
C710 C436 1.177 . S
C715 C78 1.332 . S
C720 C457 1.177 . S
C725 C60 1.331 . S
C730 C478 1.184 . S
C735 C499 1.184 . S
C740 C15 1.332 . S
C745 C98 1.395 . S
C750 C18 1.497 . S
C755 C122 1.396 . S
C760 C36 1.497 . S
C765 C140 1.395 . S
C770 C57 1.498 . S
C775 C161 1.396 . S
C780 C81 1.498 . S
C785 C102 1.498 . S
C790 C182 1.394 . S
C795 C120 1.499 . S
C800 C248 1.394 . S
C805 C144 1.498 . S
C810 C203 1.396 . S
C815 C165 1.498 . S
C820 C227 1.395 . S
C825 C186 1.499 . S
C830 C14 1.394 . S
C835 C207 1.498 . S
C840 C59 1.395 . S
C845 C225 1.498 . S
C850 C77 1.395 . S
C855 C38 1.397 . S
C860 C246 1.497 . S
C865 C350 1.395 . S
C870 C270 1.498 . S
C875 C371 1.394 . S
C880 C291 1.498 . S
C885 C312 1.498 . S
C890 C392 1.396 . S
C895 C333 1.497 . S
C900 C413 1.396 . S
C905 C434 1.397 . S
C910 C354 1.497 . S
C915 C375 1.497 . S
C920 C497 1.397 . S
C925 C455 1.398 . S
C930 C396 1.497 . S
C935 C417 1.499 . S
C940 C476 1.393 . S
C945 C266 1.395 . S
C950 C438 1.498 . S
C955 C459 1.499 . S
C960 C308 1.394 . S
C965 C480 1.497 . S
C970 C329 1.397 . S
C975 C287 1.396 . S
C980 C501 1.497 . S
C985 C13 1.372 . S
C990 C206 1.524 . S
C995 C224 1.522 . S
C1000 C37 1.376 . S
C1005 C185 1.524 . S
C1010 C58 1.377 . S
C1015 C245 1.524 . S
C1020 C76 1.377 . S
C1025 C97 1.377 . S
C1030 C80 1.524 . S
C1035 C56 1.523 . S
C1040 C121 1.377 . S
C1045 C139 1.372 . S
C1050 C35 1.525 . S
C1055 C17 1.524 . S
C1060 C160 1.377 . S
C1065 C181 1.375 . S
C1070 C119 1.522 . S
C1075 C202 1.375 . S
C1080 C164 1.522 . S
C1085 C226 1.377 . S
C1090 C143 1.525 . S
C1095 C247 1.376 . S
C1100 C101 1.522 . S
C1105 C265 1.371 . S
C1110 C458 1.524 . S
C1115 C286 1.372 . S
C1120 C479 1.523 . S
C1125 C437 1.526 . S
C1130 C307 1.374 . S
C1135 C500 1.525 . S
C1140 C328 1.372 . S
C1145 C349 1.377 . S
C1150 C332 1.524 . S
C1155 C370 1.372 . S
C1160 C311 1.525 . S
C1165 C290 1.525 . S
C1170 C391 1.371 . S
C1175 C412 1.374 . S
C1180 C269 1.522 . S
C1185 C433 1.376 . S
C1190 C374 1.526 . S
C1195 C416 1.526 . S
C1200 C454 1.375 . S
C1205 C475 1.375 . S
C1210 C395 1.522 . S
C1215 C496 1.377 . S
C1220 C353 1.525 . S
