# Generated by pormake.
# Topology wgs, (5)-cn, num edge types: 1
# Building blocks:
#     Node 0, Type 0, BuildingBlock: BEQFEK_clean_sbu_0, # of connection points: 5
#     Node 1, Type 0, BuildingBlock: BEQFEK_clean_sbu_0, # of connection points: 5
#     Node 2, Type 0, BuildingBlock: BEQFEK_clean_sbu_0, # of connection points: 5
#     Node 3, Type 0, BuildingBlock: BEQFEK_clean_sbu_0, # of connection points: 5
#     Node 4, Type 0, BuildingBlock: BEQFEK_clean_sbu_0, # of connection points: 5
#     Node 5, Type 0, BuildingBlock: BEQFEK_clean_sbu_0, # of connection points: 5
#     Node 6, Type 0, BuildingBlock: BEQFEK_clean_sbu_0, # of connection points: 5
#     Node 7, Type 0, BuildingBlock: BEQFEK_clean_sbu_0, # of connection points: 5
#     Node 8, Type 0, BuildingBlock: BEQFEK_clean_sbu_0, # of connection points: 5
#     Node 9, Type 0, BuildingBlock: BEQFEK_clean_sbu_0, # of connection points: 5
#     Node 10, Type 0, BuildingBlock: BEQFEK_clean_sbu_0, # of connection points: 5
#     Node 11, Type 0, BuildingBlock: BEQFEK_clean_sbu_0, # of connection points: 5
#     Node 12, Type 0, BuildingBlock: BEQFEK_clean_sbu_0, # of connection points: 5
#     Node 13, Type 0, BuildingBlock: BEQFEK_clean_sbu_0, # of connection points: 5
#     Node 14, Type 0, BuildingBlock: BEQFEK_clean_sbu_0, # of connection points: 5
#     Node 15, Type 0, BuildingBlock: BEQFEK_clean_sbu_0, # of connection points: 5
#     Node 16, Type 0, BuildingBlock: BEQFEK_clean_sbu_0, # of connection points: 5
#     Node 17, Type 0, BuildingBlock: BEQFEK_clean_sbu_0, # of connection points: 5
#     Node 18, Type 0, BuildingBlock: BEQFEK_clean_sbu_0, # of connection points: 5
#     Node 19, Type 0, BuildingBlock: BEQFEK_clean_sbu_0, # of connection points: 5
#     Node 20, Type 0, BuildingBlock: BEQFEK_clean_sbu_0, # of connection points: 5
#     Node 21, Type 0, BuildingBlock: BEQFEK_clean_sbu_0, # of connection points: 5
#     Node 22, Type 0, BuildingBlock: BEQFEK_clean_sbu_0, # of connection points: 5
#     Node 23, Type 0, BuildingBlock: BEQFEK_clean_sbu_0, # of connection points: 5
#     Node 24, Type 0, BuildingBlock: BEQFEK_clean_sbu_0, # of connection points: 5
#     Node 25, Type 0, BuildingBlock: BEQFEK_clean_sbu_0, # of connection points: 5
#     Node 26, Type 0, BuildingBlock: BEQFEK_clean_sbu_0, # of connection points: 5
#     Node 27, Type 0, BuildingBlock: BEQFEK_clean_sbu_0, # of connection points: 5
#     Node 28, Type 0, BuildingBlock: BEQFEK_clean_sbu_0, # of connection points: 5
#     Node 29, Type 0, BuildingBlock: BEQFEK_clean_sbu_0, # of connection points: 5
#     Node 30, Type 0, BuildingBlock: BEQFEK_clean_sbu_0, # of connection points: 5
#     Node 31, Type 0, BuildingBlock: BEQFEK_clean_sbu_0, # of connection points: 5
#     Edge 32, Type (0, 0), BuildingBlock: XIVTED_clean_linker_0, # of connection points: 2
#     Edge 33, Type (0, 0), BuildingBlock: XIVTED_clean_linker_0, # of connection points: 2
#     Edge 34, Type (0, 0), BuildingBlock: XIVTED_clean_linker_0, # of connection points: 2
#     Edge 35, Type (0, 0), BuildingBlock: XIVTED_clean_linker_0, # of connection points: 2
#     Edge 36, Type (0, 0), BuildingBlock: XIVTED_clean_linker_0, # of connection points: 2
#     Edge 37, Type (0, 0), BuildingBlock: XIVTED_clean_linker_0, # of connection points: 2
#     Edge 38, Type (0, 0), BuildingBlock: XIVTED_clean_linker_0, # of connection points: 2
#     Edge 39, Type (0, 0), BuildingBlock: XIVTED_clean_linker_0, # of connection points: 2
#     Edge 40, Type (0, 0), BuildingBlock: XIVTED_clean_linker_0, # of connection points: 2
#     Edge 41, Type (0, 0), BuildingBlock: XIVTED_clean_linker_0, # of connection points: 2
#     Edge 42, Type (0, 0), BuildingBlock: XIVTED_clean_linker_0, # of connection points: 2
#     Edge 43, Type (0, 0), BuildingBlock: XIVTED_clean_linker_0, # of connection points: 2
#     Edge 44, Type (0, 0), BuildingBlock: XIVTED_clean_linker_0, # of connection points: 2
#     Edge 45, Type (0, 0), BuildingBlock: XIVTED_clean_linker_0, # of connection points: 2
#     Edge 46, Type (0, 0), BuildingBlock: XIVTED_clean_linker_0, # of connection points: 2
#     Edge 47, Type (0, 0), BuildingBlock: XIVTED_clean_linker_0, # of connection points: 2
#     Edge 48, Type (0, 0), BuildingBlock: XIVTED_clean_linker_0, # of connection points: 2
#     Edge 49, Type (0, 0), BuildingBlock: XIVTED_clean_linker_0, # of connection points: 2
#     Edge 50, Type (0, 0), BuildingBlock: XIVTED_clean_linker_0, # of connection points: 2
#     Edge 51, Type (0, 0), BuildingBlock: XIVTED_clean_linker_0, # of connection points: 2
#     Edge 52, Type (0, 0), BuildingBlock: XIVTED_clean_linker_0, # of connection points: 2
#     Edge 53, Type (0, 0), BuildingBlock: XIVTED_clean_linker_0, # of connection points: 2
#     Edge 54, Type (0, 0), BuildingBlock: XIVTED_clean_linker_0, # of connection points: 2
#     Edge 55, Type (0, 0), BuildingBlock: XIVTED_clean_linker_0, # of connection points: 2
#     Edge 56, Type (0, 0), BuildingBlock: XIVTED_clean_linker_0, # of connection points: 2
#     Edge 57, Type (0, 0), BuildingBlock: XIVTED_clean_linker_0, # of connection points: 2
#     Edge 58, Type (0, 0), BuildingBlock: XIVTED_clean_linker_0, # of connection points: 2
#     Edge 59, Type (0, 0), BuildingBlock: XIVTED_clean_linker_0, # of connection points: 2
#     Edge 60, Type (0, 0), BuildingBlock: XIVTED_clean_linker_0, # of connection points: 2
#     Edge 61, Type (0, 0), BuildingBlock: XIVTED_clean_linker_0, # of connection points: 2
#     Edge 62, Type (0, 0), BuildingBlock: XIVTED_clean_linker_0, # of connection points: 2
#     Edge 63, Type (0, 0), BuildingBlock: XIVTED_clean_linker_0, # of connection points: 2
#     Edge 64, Type (0, 0), BuildingBlock: XIVTED_clean_linker_0, # of connection points: 2
#     Edge 65, Type (0, 0), BuildingBlock: XIVTED_clean_linker_0, # of connection points: 2
#     Edge 66, Type (0, 0), BuildingBlock: XIVTED_clean_linker_0, # of connection points: 2
#     Edge 67, Type (0, 0), BuildingBlock: XIVTED_clean_linker_0, # of connection points: 2
#     Edge 68, Type (0, 0), BuildingBlock: XIVTED_clean_linker_0, # of connection points: 2
#     Edge 69, Type (0, 0), BuildingBlock: XIVTED_clean_linker_0, # of connection points: 2
#     Edge 70, Type (0, 0), BuildingBlock: XIVTED_clean_linker_0, # of connection points: 2
#     Edge 71, Type (0, 0), BuildingBlock: XIVTED_clean_linker_0, # of connection points: 2
#     Edge 72, Type (0, 0), BuildingBlock: XIVTED_clean_linker_0, # of connection points: 2
#     Edge 73, Type (0, 0), BuildingBlock: XIVTED_clean_linker_0, # of connection points: 2
#     Edge 74, Type (0, 0), BuildingBlock: XIVTED_clean_linker_0, # of connection points: 2
#     Edge 75, Type (0, 0), BuildingBlock: XIVTED_clean_linker_0, # of connection points: 2
#     Edge 76, Type (0, 0), BuildingBlock: XIVTED_clean_linker_0, # of connection points: 2
#     Edge 77, Type (0, 0), BuildingBlock: XIVTED_clean_linker_0, # of connection points: 2
#     Edge 78, Type (0, 0), BuildingBlock: XIVTED_clean_linker_0, # of connection points: 2
#     Edge 79, Type (0, 0), BuildingBlock: XIVTED_clean_linker_0, # of connection points: 2
#     Edge 80, Type (0, 0), BuildingBlock: XIVTED_clean_linker_0, # of connection points: 2
#     Edge 81, Type (0, 0), BuildingBlock: XIVTED_clean_linker_0, # of connection points: 2
#     Edge 82, Type (0, 0), BuildingBlock: XIVTED_clean_linker_0, # of connection points: 2
#     Edge 83, Type (0, 0), BuildingBlock: XIVTED_clean_linker_0, # of connection points: 2
#     Edge 84, Type (0, 0), BuildingBlock: XIVTED_clean_linker_0, # of connection points: 2
#     Edge 85, Type (0, 0), BuildingBlock: XIVTED_clean_linker_0, # of connection points: 2
#     Edge 86, Type (0, 0), BuildingBlock: XIVTED_clean_linker_0, # of connection points: 2
#     Edge 87, Type (0, 0), BuildingBlock: XIVTED_clean_linker_0, # of connection points: 2
#     Edge 88, Type (0, 0), BuildingBlock: XIVTED_clean_linker_0, # of connection points: 2
#     Edge 89, Type (0, 0), BuildingBlock: XIVTED_clean_linker_0, # of connection points: 2
#     Edge 90, Type (0, 0), BuildingBlock: XIVTED_clean_linker_0, # of connection points: 2
#     Edge 91, Type (0, 0), BuildingBlock: XIVTED_clean_linker_0, # of connection points: 2
#     Edge 92, Type (0, 0), BuildingBlock: XIVTED_clean_linker_0, # of connection points: 2
#     Edge 93, Type (0, 0), BuildingBlock: XIVTED_clean_linker_0, # of connection points: 2
#     Edge 94, Type (0, 0), BuildingBlock: XIVTED_clean_linker_0, # of connection points: 2
#     Edge 95, Type (0, 0), BuildingBlock: XIVTED_clean_linker_0, # of connection points: 2
#     Edge 96, Type (0, 0), BuildingBlock: XIVTED_clean_linker_0, # of connection points: 2
#     Edge 97, Type (0, 0), BuildingBlock: XIVTED_clean_linker_0, # of connection points: 2
#     Edge 98, Type (0, 0), BuildingBlock: XIVTED_clean_linker_0, # of connection points: 2
#     Edge 99, Type (0, 0), BuildingBlock: XIVTED_clean_linker_0, # of connection points: 2
#     Edge 100, Type (0, 0), BuildingBlock: XIVTED_clean_linker_0, # of connection points: 2
#     Edge 101, Type (0, 0), BuildingBlock: XIVTED_clean_linker_0, # of connection points: 2
#     Edge 102, Type (0, 0), BuildingBlock: XIVTED_clean_linker_0, # of connection points: 2
#     Edge 103, Type (0, 0), BuildingBlock: XIVTED_clean_linker_0, # of connection points: 2
#     Edge 104, Type (0, 0), BuildingBlock: XIVTED_clean_linker_0, # of connection points: 2
#     Edge 105, Type (0, 0), BuildingBlock: XIVTED_clean_linker_0, # of connection points: 2
#     Edge 106, Type (0, 0), BuildingBlock: XIVTED_clean_linker_0, # of connection points: 2
#     Edge 107, Type (0, 0), BuildingBlock: XIVTED_clean_linker_0, # of connection points: 2
#     Edge 108, Type (0, 0), BuildingBlock: XIVTED_clean_linker_0, # of connection points: 2
#     Edge 109, Type (0, 0), BuildingBlock: XIVTED_clean_linker_0, # of connection points: 2
#     Edge 110, Type (0, 0), BuildingBlock: XIVTED_clean_linker_0, # of connection points: 2
#     Edge 111, Type (0, 0), BuildingBlock: XIVTED_clean_linker_0, # of connection points: 2
# Relax obj value: 0.108
# Max RMSD: 0.161
# Mean RMSD: 0.161
data_MOF--net-wgs--node1-BEQFEK_clean_sbu_0--edge1-XIVTED_clean_linker_0
_symmetry_space_group_name_H-M    P1
_symmetry_Int_Tables_number       1
_symmetry_cell_setting            triclinic
loop_
_symmetry_equiv_pos_as_xyz
'x, y, z'
_cell_length_a     28.937731
_cell_length_b     28.91532
_cell_length_c     155.65331
_cell_angle_alpha  89.996191
_cell_angle_beta   89.996658
_cell_angle_gamma 90.007123
loop_
_atom_site_label
_atom_site_type_symbol
_atom_site_fract_x
_atom_site_fract_y
_atom_site_fract_z
_atom_type_partial_charge
Co0 Co 0.33595 0.08438 0.32359 0.0
Co1 Co 0.32753 0.08328 0.3035 0.0
C2 C 0.40264 0.13588 0.31279 0.0
O3 O 0.38891 0.12221 0.32014 0.0
O4 O 0.38256 0.12296 0.3059 0.0
C5 C 0.3681 0.07793 0.34136 0.0
O6 O 0.41044 0.07784 0.33832 0.0
C7 C 0.35284 0.05887 0.28563 0.0
C8 C 0.29023 0.08238 0.27876 0.0
C9 C 0.33343 0.06302 0.27752 0.0
N10 N 0.32228 0.07515 0.29141 0.0
N11 N 0.28494 0.08893 0.28725 0.0
C12 C 0.40063 0.04313 0.28779 0.0
H13 H 0.40679 0.0453 0.29482 0.0
H14 H 0.40563 0.00697 0.28561 0.0
H15 H 0.42612 0.06495 0.28433 0.0
C16 C 0.34024 0.98337 0.32084 0.0
N17 N 0.3364 0.02683 0.31785 0.0
N18 N 0.33018 0.02578 0.30948 0.0
C19 C 0.32786 0.98128 0.30692 0.0
C20 C 0.33469 0.95282 0.31402 0.0
C21 C 0.35148 0.97193 0.32998 0.0
H22 H 0.37902 0.99538 0.3323 0.0
H23 H 0.36363 0.93577 0.33069 0.0
H24 H 0.32036 0.97742 0.33402 0.0
O25 O 0.28005 0.12085 0.32101 0.0
O26 O 0.27292 0.11973 0.30688 0.0
H27 H 0.29178 0.99254 0.29502 0.0
H28 H 0.29613 0.93274 0.29817 0.0
C29 C 0.31453 0.9664 0.29804 0.0
H30 H 0.34614 0.96244 0.29409 0.0
H31 H 0.25598 0.10348 0.29019 0.0
O32 O 0.33398 0.07836 0.33624 0.0
C33 C 0.25893 0.13288 0.31421 0.0
Co34 Co 0.20084 0.08816 0.575 0.0
Co35 Co 0.20491 0.06785 0.55515 0.0
C36 C 0.15299 0.14877 0.56228 0.0
O37 O 0.16509 0.13859 0.56991 0.0
O38 O 0.16602 0.12464 0.55587 0.0
C39 C 0.16968 0.11417 0.59135 0.0
O40 O 0.13408 0.12698 0.58668 0.0
C41 C 0.2272 0.08192 0.53681 0.0
C42 C 0.20604 0.01444 0.53142 0.0
C43 C 0.22221 0.0578 0.52917 0.0
N44 N 0.2143 0.05401 0.5433 0.0
N45 N 0.20214 0.01363 0.54003 0.0
C46 C 0.23979 0.13173 0.53786 0.0
H47 H 0.24073 0.14139 0.54476 0.0
H48 H 0.27408 0.13827 0.53492 0.0
H49 H 0.21416 0.15354 0.53443 0.0
C50 C 0.30153 0.09068 0.5728 0.0
N51 N 0.25884 0.0846 0.56962 0.0
N52 N 0.26143 0.07468 0.56138 0.0
C53 C 0.30638 0.07262 0.55912 0.0
C54 C 0.33334 0.08302 0.56628 0.0
C55 C 0.31096 0.10618 0.58181 0.0
H56 H 0.28496 0.13231 0.58378 0.0
H57 H 0.34599 0.12143 0.58244 0.0
H58 H 0.30788 0.07611 0.58621 0.0
O59 O 0.16497 0.03085 0.57365 0.0
O60 O 0.16734 0.0163 0.55971 0.0
H61 H 0.35807 0.04217 0.55083 0.0
H62 H 0.32432 0.08801 0.54612 0.0
C63 C 0.32303 0.05757 0.55045 0.0
H64 H 0.29902 0.03174 0.54767 0.0
H65 H 0.18968 0.98591 0.54364 0.0
O66 O 0.20501 0.09742 0.58762 0.0
C67 C 0.15366 0.00618 0.56724 0.0
Co68 Co 0.17571 0.91565 0.82312 0.0
Co69 Co 0.17595 0.92282 0.80298 0.0
C70 C 0.10555 0.86633 0.81254 0.0
O71 O 0.12269 0.87716 0.8198 0.0
O72 O 0.12215 0.88219 0.80554 0.0
C73 C 0.1458 0.91342 0.84086 0.0
O74 O 0.10388 0.90937 0.8377 0.0
C75 C 0.14585 0.94991 0.78549 0.0
C76 C 0.20679 0.92811 0.77794 0.0
C77 C 0.16306 0.94694 0.77719 0.0
N78 N 0.17812 0.93339 0.7909 0.0
N79 N 0.21443 0.92058 0.78633 0.0
C80 C 0.09846 0.96462 0.78815 0.0
H81 H 0.09456 0.96256 0.79524 0.0
H82 H 0.09186 0.00053 0.78597 0.0
H83 H 0.07248 0.942 0.78501 0.0
C84 C 0.16681 0.01711 0.8214 0.0
N85 N 0.17145 0.97475 0.81795 0.0
N86 N 0.17413 0.97841 0.80953 0.0
C87 C 0.17333 0.02359 0.80739 0.0
C88 C 0.16808 0.04971 0.81484 0.0
C89 C 0.15843 0.02545 0.83076 0.0
H90 H 0.19127 0.02077 0.83434 0.0
H91 H 0.1332 -0.00017 0.83321 0.0
H92 H 0.14461 0.06062 0.83198 0.0
O93 O 0.23225 0.8819 0.81973 0.0
O94 O 0.23163 0.88662 0.80556 0.0
H95 H 0.20414 0.01713 0.79487 0.0
H96 H 0.19924 0.07573 0.7987 0.0
C97 C 0.182 0.04147 0.79851 0.0
H98 H 0.14857 0.04536 0.79511 0.0
H99 H 0.24431 0.90599 0.78893 0.0
O100 O 0.1798 0.91868 0.83579 0.0
C101 C 0.2499 0.87222 0.81248 0.0
Co102 Co 0.31776 0.93066 0.07422 0.0
Co103 Co 0.31029 0.92431 0.05411 0.0
C104 C 0.36762 0.85775 0.06329 0.0
O105 O 0.35732 0.87768 0.07037 0.0
O106 O 0.35042 0.87091 0.05615 0.0
C107 C 0.30438 0.89939 0.09192 0.0
O108 O 0.28852 0.86065 0.08864 0.0
C109 C 0.28872 0.90404 0.03564 0.0
C110 C 0.26061 0.9725 0.03205 0.0
C111 C 0.2678 0.9282 0.02898 0.0
N112 N 0.29281 0.93288 0.04241 0.0
N113 N 0.27671 0.97383 0.04013 0.0
C114 C 0.3004 0.85369 0.03586 0.0
H115 H 0.33478 0.84852 0.03286 0.0
H116 H 0.30187 0.84098 0.04258 0.0
H117 H 0.27464 0.83346 0.03214 0.0
C118 C 0.21466 0.92738 0.07244 0.0
N119 N 0.25808 0.92696 0.06926 0.0
N120 N 0.25616 0.92024 0.06091 0.0
C121 C 0.21193 0.91375 0.05858 0.0
C122 C 0.18386 0.9191 0.06573 0.0
C123 C 0.203 0.93854 0.08156 0.0
H124 H 0.23046 0.96025 0.08447 0.0
H125 H 0.20025 0.90589 0.08527 0.0
H126 H 0.16942 0.95694 0.08197 0.0
O127 O 0.3501 0.98751 0.07086 0.0
O128 O 0.34817 0.97963 0.05674 0.0
H129 H 0.19552 0.92876 0.04546 0.0
H130 H 0.1629 0.88139 0.04995 0.0
C131 C 0.19725 0.89842 0.0498 0.0
H132 H 0.22269 0.87347 0.04722 0.0
H133 H 0.27502 0.0023 0.04423 0.0
O134 O 0.31661 0.93198 0.08695 0.0
C135 C 0.36142 0.00131 0.06341 0.0
Co136 Co 0.31987 0.91116 0.17344 0.0
Co137 Co 0.32321 0.91368 0.19363 0.0
C138 C 0.39169 0.85931 0.18402 0.0
O139 O 0.37313 0.87157 0.17693 0.0
O140 O 0.37676 0.87404 0.19123 0.0
C141 C 0.34944 0.92775 0.15563 0.0
O142 O 0.38912 0.94213 0.15875 0.0
C143 C 0.34691 0.93127 0.21201 0.0
C144 C 0.27859 0.95514 0.21656 0.0
C145 C 0.324 0.94918 0.21909 0.0
N146 N 0.31625 0.92739 0.20553 0.0
N147 N 0.27537 0.94076 0.20838 0.0
C148 C 0.39765 0.92258 0.21116 0.0
H149 H 0.40839 0.92402 0.20433 0.0
H150 H 0.41757 0.94818 0.21498 0.0
H151 H 0.40552 0.88762 0.21371 0.0
C152 C 0.32217 0.0133 0.17595 0.0
N153 N 0.32234 0.96944 0.17889 0.0
N154 N 0.32721 0.96991 0.18729 0.0
C155 C 0.33261 0.01392 0.18992 0.0
C156 C 0.32882 0.04309 0.18286 0.0
C157 C 0.31225 0.02625 0.16683 0.0
H158 H 0.29022 -0.00036 0.16375 0.0
H159 H 0.3453 0.02861 0.16325 0.0
H160 H 0.29456 0.06024 0.16647 0.0
O161 O 0.26375 0.87762 0.17654 0.0
O162 O 0.26747 0.8765 0.19073 0.0
H163 H 0.31417 0.02611 0.20305 0.0
H164 H 0.36035 0.06267 0.19917 0.0
C165 C 0.34533 0.02741 0.19891 0.0
H166 H 0.3713 0.00291 0.20144 0.0
H167 H 0.24566 0.94217 0.2046 0.0
O168 O 0.31758 0.91518 0.16074 0.0
C169 C 0.24777 0.8648 0.18375 0.0
Co170 Co 0.30325 0.06026 0.42144 0.0
Co171 Co 0.29731 0.04959 0.4415 0.0
C172 C 0.35399 0.12391 0.43321 0.0
O173 O 0.34215 0.11034 0.42575 0.0
O174 O 0.33878 0.10419 0.43997 0.0
C175 C 0.30491 0.10054 0.40438 0.0
O176 O 0.30553 0.14078 0.4083 0.0
C177 C 0.27496 0.07143 0.45962 0.0
C178 C 0.29225 0.00483 0.46581 0.0
C179 C 0.27827 0.0496 0.46752 0.0
N180 N 0.28676 0.04083 0.45348 0.0
N181 N 0.2966 0.00102 0.45724 0.0
C182 C 0.26472 0.1213 0.45799 0.0
H183 H 0.26351 0.12849 0.45098 0.0
H184 H 0.23117 0.13063 0.46097 0.0
H185 H 0.29184 0.14293 0.46104 0.0
C186 C 0.20247 0.06842 0.42334 0.0
N187 N 0.24475 0.06226 0.4267 0.0
N188 N 0.24135 0.05604 0.43506 0.0
C189 C 0.19623 0.05663 0.43724 0.0
C190 C 0.17005 0.06473 0.42988 0.0
C191 C 0.19404 0.08025 0.41411 0.0
H192 H 0.20054 0.04927 0.41008 0.0
H193 H 0.21846 0.10766 0.4121 0.0
H194 H 0.15836 0.0929 0.41301 0.0
O195 O 0.33553 0.0019 0.42374 0.0
O196 O 0.33303 0.99465 0.43786 0.0
H197 H 0.20119 0.02031 0.44924 0.0
H198 H 0.14281 0.03239 0.44585 0.0
C199 C 0.17859 0.04609 0.44607 0.0
H200 H 0.17881 0.07826 0.44995 0.0
H201 H 0.3077 0.97153 0.45397 0.0
O202 O 0.30131 0.06364 0.40876 0.0
C203 C 0.34596 0.9801 0.43055 0.0
Co204 Co 0.14582 0.07451 0.67232 0.0
Co205 Co 0.15986 0.07362 0.69232 0.0
C206 C 0.08224 0.12593 0.68379 0.0
O207 O 0.09401 0.11207 0.67635 0.0
O208 O 0.10425 0.11336 0.69049 0.0
C209 C 0.13312 0.10313 0.65532 0.0
O210 O 0.12308 0.14169 0.65937 0.0
C211 C 0.13763 0.04918 0.71024 0.0
C212 C 0.20018 0.0741 0.71695 0.0
C213 C 0.1574 0.05399 0.71831 0.0
N214 N 0.16751 0.06576 0.70438 0.0
N215 N 0.20482 0.08048 0.70844 0.0
C216 C 0.08984 0.0329 0.70819 0.0
H217 H 0.08218 0.0376 0.70126 0.0
H218 H 0.08634 0.99579 0.70985 0.0
H219 H 0.06442 0.05234 0.71212 0.0
C220 C 0.14172 0.97422 0.67503 0.0
N221 N 0.14673 0.0174 0.67806 0.0
N222 N 0.15522 0.01597 0.68636 0.0
C223 C 0.15795 0.97127 0.68881 0.0
C224 C 0.14903 0.94323 0.68172 0.0
C225 C 0.12801 0.96356 0.66597 0.0
H226 H 0.10275 0.98961 0.66367 0.0
H227 H 0.11237 0.92864 0.66544 0.0
H228 H 0.159 0.96542 0.66179 0.0
O229 O 0.20251 0.11074 0.67427 0.0
O230 O 0.21357 0.10999 0.68834 0.0
H231 H 0.19299 0.92274 0.69708 0.0
H232 H 0.14298 0.95013 0.70167 0.0
C233 C 0.1736 0.95576 0.69752 0.0
H234 H 0.19605 0.98228 0.70051 0.0
H235 H 0.23323 0.09562 0.70541 0.0
O236 O 0.14262 0.06721 0.65968 0.0
C237 C 0.22551 0.1229 0.68085 0.0
Co238 Co 0.18306 0.91076 0.92149 0.0
Co239 Co 0.18229 0.91519 0.9416 0.0
C240 C 0.12924 0.84307 0.93256 0.0
O241 O 0.14304 0.85888 0.92535 0.0
O242 O 0.14264 0.86072 0.93964 0.0
C243 C 0.20255 0.87673 0.90395 0.0
O244 O 0.2212 0.83933 0.90725 0.0
C245 C 0.1929 0.89608 0.96025 0.0
C246 C 0.20261 0.96739 0.96506 0.0
C247 C 0.19937 0.9218 0.96767 0.0
N248 N 0.19247 0.9254 0.95353 0.0
N249 N 0.19852 0.96785 0.95646 0.0
C250 C 0.18399 0.84527 0.95958 0.0
H251 H 0.14628 0.83905 0.96015 0.0
H252 H 0.19554 0.83213 0.95323 0.0
H253 H 0.20166 0.82616 0.96481 0.0
C254 C 0.28474 0.91085 0.92454 0.0
N255 N 0.24051 0.91073 0.92725 0.0
N256 N 0.23977 0.90953 0.9357 0.0
C257 C 0.28344 0.90675 0.93863 0.0
C258 C 0.31363 0.90805 0.93167 0.0
C259 C 0.29878 0.91794 0.91538 0.0
H260 H 0.27173 0.93739 0.91187 0.0
H261 H 0.30345 0.88377 0.91226 0.0
H262 H 0.33188 0.93721 0.91498 0.0
O263 O 0.14907 0.96783 0.92363 0.0
O264 O 0.14579 0.97007 0.93781 0.0
H265 H 0.29193 0.93335 0.95136 0.0
H266 H 0.33135 0.88688 0.94869 0.0
C267 C 0.29559 0.90001 0.9479 0.0
H268 H 0.27161 0.87467 0.95082 0.0
H269 H 0.19923 0.99729 0.95259 0.0
O270 O 0.18758 0.90844 0.90885 0.0
C271 C 0.13525 0.98684 0.93051 0.0
Co272 Co 0.64368 0.95577 0.67048 0.0
Co273 Co 0.67254 0.95955 0.68985 0.0
C274 C 0.58904 0.90704 0.68403 0.0
O275 O 0.59594 0.91973 0.67631 0.0
O276 O 0.61566 0.91986 0.69013 0.0
C277 C 0.61364 0.92521 0.65431 0.0
O278 O 0.60061 0.88947 0.65893 0.0
C279 C 0.67093 0.983 0.70832 0.0
C280 C 0.7459 0.98461 0.71106 0.0
C281 C 0.70298 0.99166 0.71477 0.0
N282 N 0.69414 0.97171 0.70114 0.0
N283 N 0.73884 0.97233 0.70285 0.0
C284 C 0.61963 0.98873 0.7087 0.0
H285 H 0.60548 0.9948 0.70217 0.0
H286 H 0.61023 0.01785 0.71301 0.0
H287 H 0.604 0.95657 0.71129 0.0
C288 C 0.63949 0.05652 0.67279 0.0
N289 N 0.64888 0.01384 0.67572 0.0
N290 N 0.6624 0.01622 0.68378 0.0
C291 C 0.66361 0.0611 0.68615 0.0
C292 C 0.6486 0.08816 0.67928 0.0
C293 C 0.61895 0.06593 0.66414 0.0
H294 H 0.5935 0.03861 0.66251 0.0
H295 H 0.60153 0.10009 0.66394 0.0
H296 H 0.64677 0.06512 0.65923 0.0
O297 O 0.70121 0.91958 0.67092 0.0
O298 O 0.72168 0.92166 0.68458 0.0
H299 H 0.69267 0.11462 0.69426 0.0
H300 H 0.6548 0.07406 0.69956 0.0
C301 C 0.68195 0.07785 0.69459 0.0
H302 H 0.71231 0.057 0.6965 0.0
H303 H 0.76463 0.96536 0.69834 0.0
O304 O 0.63057 0.96032 0.65808 0.0
C305 C 0.72839 0.90784 0.67694 0.0
Co306 Co 0.79936 0.90168 0.42135 0.0
Co307 Co 0.7932 0.92198 0.44107 0.0
C308 C 0.84789 0.84254 0.43436 0.0
O309 O 0.83663 0.85315 0.42669 0.0
O310 O 0.83301 0.86547 0.44081 0.0
C311 C 0.83473 0.89053 0.40499 0.0
O312 O 0.87277 0.89034 0.4096 0.0
C313 C 0.77197 0.91703 0.45973 0.0
C314 C 0.7716 0.99172 0.46274 0.0
C315 C 0.76601 0.94847 0.46644 0.0
N316 N 0.78063 0.94105 0.4525 0.0
N317 N 0.78035 0.98557 0.45436 0.0
C318 C 0.76732 0.86556 0.45994 0.0
H319 H 0.76052 0.85201 0.45338 0.0
H320 H 0.73892 0.85517 0.46433 0.0
H321 H 0.80011 0.85021 0.46229 0.0
C322 C 0.69882 0.8937 0.42331 0.0
N323 N 0.7409 0.90324 0.42649 0.0
N324 N 0.73748 0.9133 0.43471 0.0
C325 C 0.6925 0.91204 0.43697 0.0
C326 C 0.66647 0.8991 0.42983 0.0
C327 C 0.69079 0.87622 0.41438 0.0
H328 H 0.71879 0.85196 0.41255 0.0
H329 H 0.6571 0.85816 0.41382 0.0
H330 H 0.69156 0.90581 0.40984 0.0
O331 O 0.8336 0.96007 0.42253 0.0
O332 O 0.83152 0.97269 0.4365 0.0
H333 H 0.63773 0.93522 0.44544 0.0
H334 H 0.67959 0.8965 0.45017 0.0
C335 C 0.67483 0.92573 0.44564 0.0
H336 H 0.69454 0.95581 0.44808 0.0
H337 H 0.78609 0.01187 0.44989 0.0
O338 O 0.79601 0.89232 0.40882 0.0
C339 C 0.84519 0.98381 0.42904 0.0
Co340 Co 0.80367 0.0346 0.17107 0.0
Co341 Co 0.81048 0.02755 0.19105 0.0
C342 C 0.87421 0.08817 0.1817 0.0
O343 O 0.85512 0.07673 0.17461 0.0
O344 O 0.86139 0.07063 0.18882 0.0
C345 C 0.83504 0.02924 0.15344 0.0
O346 O 0.87605 0.01988 0.15661 0.0
C347 C 0.83471 0.01951 0.20948 0.0
C348 C 0.77678 0.97614 0.21407 0.0
C349 C 0.81683 -0.00198 0.21673 0.0
N350 N 0.80649 0.01042 0.20283 0.0
N351 N 0.77184 0.98476 0.20564 0.0
C352 C 0.87897 0.04591 0.20874 0.0
H353 H 0.87102 0.08333 0.20817 0.0
H354 H 0.89761 0.03515 0.20284 0.0
H355 H 0.90151 0.04024 0.21441 0.0
C356 C 0.81339 0.93204 0.17271 0.0
N357 N 0.8107 0.97519 0.17596 0.0
N358 N 0.81747 0.97344 0.1843 0.0
C359 C 0.82732 0.92968 0.18657 0.0
C360 C 0.82398 0.90152 0.17936 0.0
C361 C 0.80328 0.92037 0.16354 0.0
H362 H 0.77996 0.9466 0.16068 0.0
H363 H 0.83612 0.92012 0.15986 0.0
H364 H 0.78704 0.88572 0.16302 0.0
O365 O 0.74593 0.06417 0.17454 0.0
O366 O 0.75273 0.06261 0.18867 0.0
H367 H 0.81471 0.90869 0.19955 0.0
H368 H 0.86638 0.88454 0.19492 0.0
C369 C 0.8445 0.916 0.19529 0.0
H370 H 0.86512 0.94446 0.19813 0.0
H371 H 0.74501 0.97274 0.20175 0.0
O372 O 0.80089 0.03404 0.15846 0.0
C373 C 0.73109 0.07499 0.18194 0.0
Co374 Co 0.68291 0.07854 0.92131 0.0
Co375 Co 0.68995 0.07074 0.94136 0.0
C376 C 0.63472 0.14547 0.933 0.0
O377 O 0.64566 0.13057 0.92557 0.0
O378 O 0.65015 0.12647 0.93982 0.0
C379 C 0.65134 0.09291 0.90441 0.0
O380 O 0.61411 0.10599 0.90858 0.0
C381 C 0.7182 0.09159 0.9592 0.0
C382 C 0.72007 0.02092 0.96462 0.0
C383 C 0.72922 0.06675 0.96655 0.0
N384 N 0.70374 0.06153 0.95318 0.0
N385 N 0.70425 0.01951 0.95651 0.0
C386 C 0.72525 0.14212 0.95765 0.0
H387 H 0.72735 0.14932 0.95065 0.0
H388 H 0.7571 0.15429 0.96092 0.0
H389 H 0.69548 0.16144 0.96035 0.0
C390 C 0.78427 0.08617 0.92305 0.0
N391 N 0.74191 0.07991 0.92642 0.0
N392 N 0.7454 0.07448 0.93479 0.0
C393 C 0.79051 0.07514 0.93697 0.0
C394 C 0.81671 0.08332 0.92962 0.0
C395 C 0.79271 0.09759 0.9138 0.0
H396 H 0.79106 0.06534 0.90995 0.0
H397 H 0.76541 0.12131 0.91144 0.0
H398 H 0.82693 0.11414 0.91287 0.0
O399 O 0.64786 0.02135 0.92385 0.0
O400 O 0.65177 0.01741 0.93802 0.0
H401 H 0.7868 0.0365 0.94871 0.0
H402 H 0.84447 0.05113 0.94553 0.0
C403 C 0.80833 0.0638 0.94575 0.0
H404 H 0.80694 0.09519 0.94983 0.0
H405 H 0.69543 0.9896 0.95314 0.0
O406 O 0.68691 0.08084 0.90864 0.0
C407 C 0.63708 0.00185 0.93089 0.0
Co408 Co 0.67485 0.03821 0.82379 0.0
Co409 Co 0.68618 0.04194 0.80375 0.0
C410 C 0.61145 0.09369 0.81192 0.0
O411 O 0.62514 0.0792 0.81923 0.0
O412 O 0.63107 0.08093 0.80499 0.0
C413 C 0.65111 0.06541 0.84034 0.0
O414 O 0.64393 0.1039 0.83606 0.0
C415 C 0.67942 0.04085 0.78476 0.0
C416 C 0.74986 0.01701 0.78146 0.0
C417 C 0.7083 0.03079 0.77789 0.0
N418 N 0.70299 0.03303 0.79207 0.0
N419 N 0.74496 0.01873 0.79004 0.0
C420 C 0.63187 0.06109 0.7845 0.0
H421 H 0.63208 0.09479 0.7879 0.0
H422 H 0.60763 0.03795 0.78797 0.0
H423 H 0.6196 0.06666 0.77783 0.0
C424 C 0.67157 0.93704 0.81995 0.0
N425 N 0.67589 0.98173 0.81761 0.0
N426 N 0.67737 0.98422 0.80918 0.0
C427 C 0.67229 0.94163 0.80586 0.0
C428 C 0.66912 0.90995 0.81255 0.0
C429 C 0.67172 0.9209 0.82908 0.0
H430 H 0.69169 0.94521 0.83315 0.0
H431 H 0.63564 0.91979 0.83148 0.0
H432 H 0.68689 0.88577 0.82961 0.0
O433 O 0.7332 0.07298 0.82285 0.0
O434 O 0.73822 0.07727 0.8087 0.0
H435 H 0.70056 0.9313 0.79331 0.0
H436 H 0.64819 0.899 0.79533 0.0
C437 C 0.66619 0.93232 0.79646 0.0
H438 H 0.64562 0.96041 0.79349 0.0
H439 H 0.77046 0.01062 0.79453 0.0
O440 O 0.66411 0.02956 0.83627 0.0
C441 C 0.75342 0.08747 0.81612 0.0
Co442 Co 0.70117 0.90579 0.57526 0.0
Co443 Co 0.70884 0.92673 0.55558 0.0
C444 C 0.65569 0.84571 0.56202 0.0
O445 O 0.66618 0.85616 0.56972 0.0
O446 O 0.67023 0.8695 0.55566 0.0
C447 C 0.66505 0.8836 0.5913 0.0
O448 O 0.62925 0.87423 0.58641 0.0
C449 C 0.73132 0.92016 0.53706 0.0
C450 C 0.72979 0.99428 0.53363 0.0
C451 C 0.73637 0.95057 0.53017 0.0
N452 N 0.72208 0.94514 0.54415 0.0
N453 N 0.72131 0.98933 0.54204 0.0
C454 C 0.73707 0.86878 0.53716 0.0
H455 H 0.74431 0.85657 0.54379 0.0
H456 H 0.76563 0.85824 0.53283 0.0
H457 H 0.70456 0.8523 0.53495 0.0
C458 C 0.80239 0.90248 0.57373 0.0
N459 N 0.76023 0.90953 0.57037 0.0
N460 N 0.76409 0.91937 0.56215 0.0
C461 C 0.8093 0.92019 0.56006 0.0
C462 C 0.83512 0.90909 0.56733 0.0
C463 C 0.81043 0.88686 0.58278 0.0
H464 H 0.78392 0.86098 0.58461 0.0
H465 H 0.84523 0.87134 0.58357 0.0
H466 H 0.80699 0.91694 0.58716 0.0
O467 O 0.66551 0.96322 0.57397 0.0
O468 O 0.66934 0.97694 0.56003 0.0
H469 H 0.807 0.96411 0.54897 0.0
H470 H 0.86411 0.94468 0.55171 0.0
C471 C 0.82723 0.93442 0.55143 0.0
H472 H 0.82329 0.9052 0.54687 0.0
H473 H 0.71474 0.01616 0.54636 0.0
O474 O 0.70279 0.89581 0.58779 0.0
C475 C 0.65454 0.9873 0.56746 0.0
Co476 Co 0.81452 0.96825 0.32518 0.0
Co477 Co 0.81846 0.97664 0.30515 0.0
C478 C 0.88303 0.91517 0.31388 0.0
O479 O 0.86446 0.92593 0.32104 0.0
O480 O 0.87009 0.93382 0.30687 0.0
C481 C 0.85305 0.96041 0.34206 0.0
O482 O 0.89201 0.95389 0.3379 0.0
C483 C 0.83956 0.98639 0.28664 0.0
C484 C 0.77977 0.02817 0.2824 0.0
C485 C 0.82006 0.00759 0.27952 0.0
N486 N 0.81199 0.99433 0.29344 0.0
N487 N 0.77625 0.01909 0.29084 0.0
C488 C 0.88477 0.96146 0.28714 0.0
H489 H 0.90373 0.97247 0.29299 0.0
H490 H 0.90644 0.9683 0.2814 0.0
H491 H 0.87815 0.92376 0.28765 0.0
C492 C 0.82255 0.07086 0.32368 0.0
N493 N 0.82038 0.02789 0.32033 0.0
N494 N 0.826 0.03037 0.31197 0.0
C495 C 0.83445 0.07452 0.30976 0.0
C496 C 0.83148 0.10212 0.31706 0.0
C497 C 0.8133 0.08157 0.33292 0.0
H498 H 0.79077 0.05469 0.3358 0.0
H499 H 0.84655 0.08205 0.33647 0.0
H500 H 0.79651 0.11587 0.33361 0.0
O501 O 0.75592 0.93855 0.3221 0.0
O502 O 0.76179 0.94058 0.30793 0.0
H503 H 0.81882 0.09588 0.29691 0.0
H504 H 0.87067 0.12124 0.30126 0.0
C505 C 0.8496 0.0892 0.30097 0.0
H506 H 0.87042 0.06148 0.29793 0.0
H507 H 0.74963 0.03015 0.29487 0.0
O508 O 0.8165 0.96935 0.33785 0.0
C509 C 0.7408 0.92765 0.31471 0.0
Co510 Co 0.8129 0.08134 0.07332 0.0
Co511 Co 0.81492 0.08321 0.05324 0.0
C512 C 0.86758 0.15225 0.06312 0.0
O513 O 0.85373 0.13426 0.07016 0.0
O514 O 0.85414 0.13692 0.05586 0.0
C515 C 0.79414 0.10882 0.09131 0.0
O516 O 0.77975 0.14955 0.0887 0.0
C517 C 0.80993 0.10407 0.03455 0.0
C518 C 0.79586 0.03369 0.02963 0.0
C519 C 0.80377 0.07878 0.02707 0.0
N520 N 0.80594 0.07491 0.04125 0.0
N521 N 0.7972 0.03307 0.03825 0.0
C522 C 0.82287 0.15394 0.03533 0.0
H523 H 0.86104 0.15667 0.03578 0.0
H524 H 0.80787 0.1688 0.04128 0.0
H525 H 0.81117 0.17389 0.02965 0.0
C526 C 0.71135 0.08527 0.06996 0.0
N527 N 0.7558 0.08402 0.06739 0.0
N528 N 0.75731 0.08759 0.05897 0.0
C529 C 0.71415 0.09307 0.05593 0.0
C530 C 0.68331 0.09131 0.06277 0.0
C531 C 0.69618 0.07744 0.07904 0.0
H532 H 0.72136 0.05512 0.08244 0.0
H533 H 0.69427 0.11121 0.0824 0.0
H534 H 0.6616 0.06091 0.07926 0.0
O535 O 0.84709 0.0246 0.07078 0.0
O536 O 0.85086 0.02783 0.05664 0.0
H537 H 0.70472 0.0706 0.04296 0.0
H538 H 0.66866 0.11908 0.04598 0.0
C539 C 0.70333 0.10319 0.04671 0.0
H540 H 0.72944 0.12732 0.04407 0.0
H541 H 0.79308 0.00384 0.0421 0.0
O542 O 0.80658 0.07863 0.08588 0.0
C543 C 0.86122 0.00832 0.0637 0.0
Co544 Co 0.81724 0.54663 0.82259 0.0
Co545 Co 0.82604 0.53465 0.80275 0.0
C546 C 0.89018 0.59563 0.81152 0.0
O547 O 0.86933 0.58639 0.81855 0.0
O548 O 0.87857 0.57651 0.80447 0.0
C549 C 0.84814 0.53773 0.84029 0.0
O550 O 0.88584 0.51842 0.83725 0.0
C551 C 0.84629 0.51773 0.78424 0.0
C552 C 0.78484 0.47584 0.78094 0.0
C553 C 0.82529 0.49377 0.77756 0.0
N554 N 0.81937 0.51365 0.79126 0.0
N555 N 0.78263 0.48891 0.7892 0.0
C556 C 0.89214 0.54156 0.78416 0.0
H557 H 0.91038 0.53539 0.79032 0.0
H558 H 0.91386 0.5293 0.77875 0.0
H559 H 0.88656 0.57936 0.7835 0.0
C560 C 0.82382 0.44352 0.82188 0.0
N561 N 0.82301 0.48595 0.81828 0.0
N562 N 0.83124 0.48215 0.81002 0.0
C563 C 0.84032 0.43767 0.80815 0.0
C564 C 0.83494 0.41126 0.81555 0.0
C565 C 0.81077 0.43402 0.83101 0.0
H566 H 0.78872 0.46223 0.83356 0.0
H567 H 0.84257 0.43177 0.83497 0.0
H568 H 0.79198 0.40068 0.83153 0.0
O569 O 0.75985 0.57602 0.81891 0.0
O570 O 0.76964 0.57247 0.80485 0.0
H571 H 0.82916 0.41369 0.7953 0.0
H572 H 0.87995 0.39016 0.80037 0.0
C573 C 0.85847 0.42171 0.79964 0.0
H574 H 0.87971 0.44928 0.79665 0.0
H575 H 0.7563 0.4804 0.7935 0.0
O576 O 0.81608 0.54972 0.8352 0.0
C577 C 0.74684 0.58617 0.81136 0.0
Co578 Co 0.69691 0.57797 0.07373 0.0
Co579 Co 0.69924 0.58138 0.05365 0.0
C580 C 0.64293 0.64836 0.06304 0.0
O581 O 0.65544 0.62969 0.07011 0.0
O582 O 0.6585 0.63439 0.05583 0.0
C583 C 0.69319 0.61208 0.09111 0.0
O584 O 0.68119 0.65155 0.08757 0.0
C585 C 0.71187 0.602 0.03505 0.0
C586 C 0.74556 0.53678 0.03105 0.0
C587 C 0.73224 0.5799 0.02811 0.0
N588 N 0.71373 0.57318 0.04184 0.0
N589 N 0.7332 0.53409 0.03935 0.0
C590 C 0.69475 0.65074 0.03547 0.0
H591 H 0.70394 0.66639 0.04175 0.0
H592 H 0.70923 0.67187 0.03016 0.0
H593 H 0.65651 0.65058 0.03493 0.0
C594 C 0.79855 0.58447 0.07125 0.0
N595 N 0.75488 0.58227 0.06828 0.0
N596 N 0.75521 0.58739 0.05989 0.0
C597 C 0.79887 0.59518 0.05728 0.0
C598 C 0.82811 0.59282 0.06436 0.0
C599 C 0.81146 0.57604 0.08043 0.0
H600 H 0.78661 0.55179 0.08345 0.0
H601 H 0.81023 0.60928 0.08398 0.0
H602 H 0.84681 0.56144 0.08094 0.0
O603 O 0.66462 0.52037 0.07097 0.0
O604 O 0.6629 0.52557 0.05681 0.0
H605 H 0.81485 0.57768 0.04426 0.0
H606 H 0.84493 0.62809 0.04819 0.0
C607 C 0.81166 0.60902 0.04832 0.0
H608 H 0.78444 0.63156 0.04559 0.0
H609 H 0.73957 0.50615 0.04342 0.0
O610 O 0.70295 0.57784 0.08634 0.0
C611 C 0.65152 0.50508 0.06373 0.0
Co612 Co 0.66656 0.47143 0.32524 0.0
Co613 Co 0.67541 0.47304 0.30522 0.0
C614 C 0.60303 0.41731 0.31312 0.0
O615 O 0.6174 0.43032 0.32048 0.0
O616 O 0.62122 0.43253 0.30623 0.0
C617 C 0.6493 0.43653 0.34132 0.0
O618 O 0.64667 0.39951 0.33645 0.0
C619 C 0.66542 0.47934 0.28639 0.0
C620 C 0.73624 0.50075 0.28279 0.0
C621 C 0.69357 0.48913 0.27942 0.0
N622 N 0.69047 0.4851 0.29358 0.0
N623 N 0.73258 0.49826 0.29139 0.0
C624 C 0.61718 0.46077 0.28626 0.0
H625 H 0.61815 0.42339 0.28786 0.0
H626 H 0.59619 0.47838 0.29125 0.0
H627 H 0.60076 0.46507 0.27988 0.0
C628 C 0.66263 0.57372 0.3224 0.0
N629 N 0.66603 0.52963 0.31964 0.0
N630 N 0.6665 0.52934 0.3112 0.0
C631 C 0.66159 0.57282 0.30829 0.0
C632 C 0.65975 0.6028 0.31527 0.0
C633 C 0.66458 0.58746 0.33166 0.0
H634 H 0.68376 0.56121 0.33543 0.0
H635 H 0.62886 0.58973 0.33422 0.0
H636 H 0.68147 0.62167 0.33242 0.0
O637 O 0.72554 0.43853 0.32379 0.0
O638 O 0.7286 0.43688 0.3096 0.0
H639 H 0.689 0.58573 0.29575 0.0
H640 H 0.6375 0.61858 0.29822 0.0
C641 C 0.6549 0.58465 0.299 0.0
H642 H 0.63348 0.55777 0.29586 0.0
H643 H 0.75917 0.50444 0.29577 0.0
O644 O 0.65698 0.47549 0.33781 0.0
C645 C 0.74494 0.42545 0.31689 0.0
Co646 Co 0.82928 0.42386 0.57197 0.0
Co647 Co 0.82435 0.43278 0.55202 0.0
C648 C 0.88088 0.35925 0.56081 0.0
O649 O 0.86827 0.37268 0.56823 0.0
O650 O 0.86615 0.37895 0.55402 0.0
C651 C 0.83 0.38969 0.5895 0.0
O652 O 0.83265 0.34794 0.58621 0.0
C653 C 0.79864 0.40417 0.53459 0.0
C654 C 0.81912 0.46581 0.52709 0.0
C655 C 0.80142 0.42156 0.52632 0.0
N656 N 0.81414 0.43678 0.54002 0.0
N657 N 0.82618 0.47355 0.53551 0.0
C658 C 0.78544 0.35622 0.53723 0.0
H659 H 0.78824 0.35204 0.5443 0.0
H660 H 0.74951 0.34878 0.53518 0.0
H661 H 0.80835 0.33094 0.53396 0.0
C662 C 0.7286 0.41408 0.56995 0.0
N663 N 0.77099 0.42089 0.56667 0.0
N664 N 0.76794 0.42731 0.55832 0.0
C665 C 0.72291 0.4267 0.55607 0.0
C666 C 0.69644 0.41782 0.56337 0.0
C667 C 0.71991 0.40133 0.57913 0.0
H668 H 0.74575 0.37541 0.58121 0.0
H669 H 0.68494 0.38647 0.58006 0.0
H670 H 0.72393 0.4325 0.58322 0.0
O671 O 0.86245 0.48138 0.56928 0.0
O672 O 0.85939 0.48886 0.55517 0.0
H673 H 0.7297 0.46223 0.54399 0.0
H674 H 0.67095 0.45531 0.54767 0.0
C675 C 0.70539 0.43856 0.5473 0.0
H676 H 0.70198 0.40644 0.54346 0.0
H677 H 0.84008 0.50368 0.53815 0.0
O678 O 0.82591 0.4245 0.58459 0.0
C679 C 0.8728 0.5032 0.56246 0.0
Co680 Co 0.8147 0.45103 0.66948 0.0
Co681 Co 0.80335 0.4618 0.68934 0.0
C682 C 0.87801 0.40321 0.68175 0.0
O683 O 0.865 0.41353 0.67418 0.0
O684 O 0.85781 0.41981 0.68834 0.0
C685 C 0.85555 0.44671 0.65255 0.0
O686 O 0.89573 0.44876 0.65645 0.0
C687 C 0.82539 0.48125 0.70742 0.0
C688 C 0.75524 0.48528 0.71299 0.0
C689 C 0.80169 0.48628 0.71509 0.0
N690 N 0.79423 0.4775 0.70105 0.0
N691 N 0.75241 0.48063 0.70441 0.0
C692 C 0.87626 0.47501 0.70625 0.0
H693 H 0.88681 0.48719 0.69977 0.0
H694 H 0.89579 0.49393 0.71127 0.0
H695 H 0.88469 0.43767 0.70677 0.0
C696 C 0.82197 0.55275 0.67048 0.0
N697 N 0.81604 0.51099 0.67411 0.0
N698 N 0.81026 0.51594 0.68244 0.0
C699 C 0.81147 0.56137 0.68438 0.0
C700 C 0.8192 0.58629 0.67685 0.0
C701 C 0.83243 0.55969 0.66115 0.0
H702 H 0.80167 0.5501 0.65728 0.0
H703 H 0.86117 0.53657 0.65925 0.0
H704 H 0.84257 0.59584 0.65971 0.0
O705 O 0.75666 0.41868 0.672 0.0
O706 O 0.74854 0.42462 0.68608 0.0
H707 H 0.77132 0.56279 0.69592 0.0
H708 H 0.79532 0.618 0.69304 0.0
C709 C 0.80198 0.58027 0.69316 0.0
H710 H 0.83199 0.57301 0.69738 0.0
H711 H 0.72188 0.47766 0.70088 0.0
O712 O 0.8185 0.44981 0.65687 0.0
C713 C 0.73466 0.40956 0.67885 0.0
Co714 Co 0.80332 0.56633 0.92073 0.0
Co715 Co 0.79606 0.56223 0.94074 0.0
C716 C 0.85394 0.63361 0.93182 0.0
O717 O 0.84264 0.61807 0.92445 0.0
O718 O 0.83768 0.61607 0.93871 0.0
C719 C 0.80732 0.59802 0.90307 0.0
O720 O 0.81281 0.6398 0.90622 0.0
C721 C 0.77633 0.5895 0.95864 0.0
C722 C 0.78056 0.52144 0.96507 0.0
C723 C 0.77433 0.56814 0.9666 0.0
N724 N 0.78352 0.5567 0.95266 0.0
N725 N 0.78544 0.5161 0.95655 0.0
C726 C 0.77564 0.64022 0.95682 0.0
H727 H 0.81033 0.65485 0.95819 0.0
H728 H 0.76709 0.6466 0.94997 0.0
H729 H 0.75025 0.65786 0.96104 0.0
C730 C 0.70183 0.57646 0.92245 0.0
N731 N 0.74418 0.57024 0.92583 0.0
N732 N 0.74073 0.56661 0.93422 0.0
C733 C 0.69579 0.56884 0.93646 0.0
C734 C 0.66948 0.5756 0.92907 0.0
C735 C 0.69336 0.58604 0.91314 0.0
H736 H 0.71979 0.61051 0.91072 0.0
H737 H 0.65866 0.60121 0.91204 0.0
H738 H 0.69661 0.55335 0.90945 0.0
O739 O 0.83658 0.50888 0.92369 0.0
O740 O 0.83219 0.50667 0.93784 0.0
H741 H 0.64168 0.55059 0.94549 0.0
H742 H 0.68265 0.59341 0.94917 0.0
C743 C 0.67852 0.56107 0.94541 0.0
H744 H 0.69902 0.53351 0.94856 0.0
H745 H 0.79152 0.48483 0.9534 0.0
O746 O 0.8005 0.56419 0.90811 0.0
C747 C 0.84652 0.4898 0.9308 0.0
Co748 Co 0.6673 0.53114 0.17054 0.0
Co749 Co 0.67566 0.53086 0.19057 0.0
C750 C 0.60348 0.58601 0.18249 0.0
O751 O 0.61797 0.57239 0.17517 0.0
O752 O 0.6217 0.57165 0.18945 0.0
C753 C 0.65712 0.56713 0.15455 0.0
O754 O 0.65766 0.60369 0.15956 0.0
C755 C 0.6668 0.51881 0.20949 0.0
C756 C 0.73683 0.49215 0.21231 0.0
C757 C 0.69466 0.50215 0.21608 0.0
N758 N 0.69151 0.51802 0.20217 0.0
N759 N 0.7334 0.50259 0.20393 0.0
C760 C 0.61669 0.53131 0.20995 0.0
H761 H 0.6135 0.56825 0.21179 0.0
H762 H 0.59995 0.52651 0.2036 0.0
H763 H 0.59869 0.51 0.21485 0.0
C764 C 0.66214 0.42907 0.17357 0.0
N765 N 0.66607 0.47332 0.17621 0.0
N766 N 0.6662 0.4743 0.18466 0.0
C767 C 0.66048 0.4311 0.18766 0.0
C768 C 0.65864 0.40067 0.18077 0.0
C769 C 0.66377 0.41449 0.16435 0.0
H770 H 0.68316 0.44019 0.16048 0.0
H771 H 0.62797 0.41236 0.16183 0.0
H772 H 0.6802 0.37999 0.1637 0.0
O773 O 0.72647 0.5635 0.17203 0.0
O774 O 0.72914 0.56646 0.1862 0.0
H775 H 0.68609 0.41907 0.20037 0.0
H776 H 0.63517 0.38585 0.19772 0.0
C777 C 0.65252 0.41981 0.19694 0.0
H778 H 0.63034 0.44664 0.19988 0.0
H779 H 0.75933 0.49806 0.19935 0.0
O780 O 0.65907 0.52723 0.15797 0.0
C781 C 0.7458 0.57705 0.1789 0.0
Co782 Co 0.67634 0.40057 0.42197 0.0
Co783 Co 0.67725 0.41456 0.44188 0.0
C784 C 0.62546 0.33651 0.43339 0.0
O785 O 0.63906 0.34822 0.42592 0.0
O786 O 0.63791 0.35886 0.44006 0.0
C787 C 0.65062 0.38396 0.40482 0.0
O788 O 0.61346 0.3679 0.40865 0.0
C789 C 0.70085 0.39111 0.45967 0.0
C790 C 0.67694 0.45365 0.46653 0.0
C791 C 0.69622 0.41037 0.46777 0.0
N792 N 0.68493 0.42173 0.45389 0.0
N793 N 0.67076 0.45902 0.45803 0.0
C794 C 0.7163 0.34315 0.45751 0.0
H795 H 0.71424 0.337 0.45048 0.0
H796 H 0.75235 0.33778 0.4597 0.0
H797 H 0.69424 0.31777 0.46095 0.0
C798 C 0.77662 0.39487 0.42475 0.0
N799 N 0.73349 0.40128 0.4277 0.0
N800 N 0.73483 0.40975 0.436 0.0
C801 C 0.77939 0.41106 0.43853 0.0
C802 C 0.80745 0.40111 0.43149 0.0
C803 C 0.78728 0.38017 0.41574 0.0
H804 H 0.76029 0.35598 0.41341 0.0
H805 H 0.82146 0.36295 0.41533 0.0
H806 H 0.78715 0.41103 0.4115 0.0
O807 O 0.6398 0.45717 0.42395 0.0
O808 O 0.64117 0.4684 0.438 0.0
H809 H 0.82869 0.44387 0.44696 0.0
H810 H 0.79896 0.39486 0.45142 0.0
C811 C 0.7949 0.42581 0.44729 0.0
H812 H 0.76913 0.44926 0.45024 0.0
H813 H 0.65618 0.48792 0.45506 0.0
O814 O 0.68414 0.39828 0.40937 0.0
C815 C 0.62795 0.48027 0.43054 0.0
Co816 Co 0.15949 0.41139 0.17357 0.0
Co817 Co 0.16015 0.41206 0.19379 0.0
C818 C 0.08889 0.35955 0.18341 0.0
O819 O 0.10561 0.37275 0.17625 0.0
O820 O 0.10617 0.37279 0.19054 0.0
C821 C 0.13474 0.41592 0.15539 0.0
O822 O 0.09162 0.4107 0.15785 0.0
C823 C 0.12968 0.43744 0.21142 0.0
C824 C 0.18806 0.40999 0.21902 0.0
C825 C 0.14599 0.43231 0.21976 0.0
N826 N 0.16096 0.41896 0.206 0.0
N827 N 0.19564 0.40259 0.21062 0.0
C828 C 0.08379 0.45607 0.20868 0.0
H829 H 0.0559 0.43553 0.21175 0.0
H830 H 0.08013 0.45453 0.20159 0.0
H831 H 0.07986 0.49231 0.21088 0.0
C832 C 0.152 0.51205 0.17644 0.0
N833 N 0.15591 0.46863 0.17943 0.0
N834 N 0.15955 0.46967 0.18786 0.0
C835 C 0.16057 0.51416 0.19046 0.0
C836 C 0.15517 0.54262 0.18331 0.0
C837 C 0.14262 0.5233 0.16722 0.0
H838 H 0.11783 0.49793 0.16454 0.0
H839 H 0.12789 0.55848 0.16647 0.0
H840 H 0.17528 0.52077 0.16351 0.0
O841 O 0.21502 0.37549 0.17675 0.0
O842 O 0.21592 0.37645 0.19095 0.0
H843 H 0.19234 0.50221 0.20277 0.0
H844 H 0.19197 0.56184 0.19937 0.0
C845 C 0.1719 0.52913 0.19942 0.0
H846 H 0.13943 0.53526 0.20302 0.0
H847 H 0.22455 0.38611 0.20803 0.0
O848 O 0.16649 0.419 0.16099 0.0
C849 C 0.23332 0.36374 0.18384 0.0
Co850 Co 0.30111 0.40999 0.92095 0.0
Co851 Co 0.29917 0.4209 0.94104 0.0
C852 C 0.35474 0.34738 0.9333 0.0
O853 O 0.34166 0.36094 0.92588 0.0
O854 O 0.33985 0.36648 0.94015 0.0
C855 C 0.33217 0.38889 0.90434 0.0
O856 O 0.37007 0.38059 0.90872 0.0
C857 C 0.28257 0.41166 0.95987 0.0
C858 C 0.25766 0.48244 0.9626 0.0
C859 C 0.26471 0.43957 0.96634 0.0
N860 N 0.28513 0.43698 0.95262 0.0
N861 N 0.27089 0.47935 0.95436 0.0
C862 C 0.29261 0.36096 0.96032 0.0
H863 H 0.29032 0.34508 0.95385 0.0
H864 H 0.26821 0.34346 0.96476 0.0
H865 H 0.32822 0.35592 0.96279 0.0
C866 C 0.1995 0.40751 0.92356 0.0
N867 N 0.24324 0.41055 0.92648 0.0
N868 N 0.24288 0.41153 0.93492 0.0
C869 C 0.19898 0.40705 0.93767 0.0
C870 C 0.16976 0.40512 0.93058 0.0
C871 C 0.18677 0.40974 0.91425 0.0
H872 H 0.21253 0.43052 0.91066 0.0
H873 H 0.18652 0.37419 0.91156 0.0
H874 H 0.15202 0.42525 0.91337 0.0
O875 O 0.33392 0.46851 0.92242 0.0
O876 O 0.33607 0.47406 0.93659 0.0
H877 H 0.18588 0.43431 0.95021 0.0
H878 H 0.1512 0.38435 0.94753 0.0
C879 C 0.18584 0.40039 0.94689 0.0
H880 H 0.21126 0.37746 0.95005 0.0
H881 H 0.26863 0.50577 0.94981 0.0
O882 O 0.29582 0.40084 0.90835 0.0
C883 C 0.3473 0.48903 0.92919 0.0
Co884 Co 0.32645 0.57681 0.67214 0.0
Co885 Co 0.31608 0.57035 0.69221 0.0
C886 C 0.39122 0.62632 0.68374 0.0
O887 O 0.37825 0.61473 0.67622 0.0
O888 O 0.37086 0.61096 0.69042 0.0
C889 C 0.36154 0.57475 0.65449 0.0
O890 O 0.40321 0.57335 0.65783 0.0
C891 C 0.34145 0.53988 0.70966 0.0
C892 C 0.28058 0.56323 0.71706 0.0
C893 C 0.32316 0.54195 0.71787 0.0
N894 N 0.3109 0.55909 0.70421 0.0
N895 N 0.27463 0.57293 0.70869 0.0
C896 C 0.38842 0.52323 0.70713 0.0
H897 H 0.39263 0.52412 0.70004 0.0
H898 H 0.39395 0.48754 0.70953 0.0
H899 H 0.41494 0.54564 0.71016 0.0
C900 C 0.33164 0.47507 0.67403 0.0
N901 N 0.32705 0.51775 0.67736 0.0
N902 N 0.31995 0.51455 0.6857 0.0
C903 C 0.31789 0.46944 0.68787 0.0
C904 C 0.32591 0.44286 0.68057 0.0
C905 C 0.34345 0.46592 0.66482 0.0
H906 H 0.37147 0.48958 0.66279 0.0
H907 H 0.35514 0.42982 0.6638 0.0
H908 H 0.31273 0.47297 0.66076 0.0
O909 O 0.26964 0.61156 0.67489 0.0
O910 O 0.26138 0.60718 0.689 0.0
H911 H 0.2844 0.41883 0.69594 0.0
H912 H 0.33435 0.44614 0.70054 0.0
C913 C 0.30331 0.45208 0.69652 0.0
H914 H 0.28063 0.4776 0.69974 0.0
H915 H 0.24593 0.58952 0.70604 0.0
O916 O 0.32642 0.57435 0.65939 0.0
C917 C 0.24783 0.62179 0.68172 0.0
Co918 Co 0.17366 0.57249 0.42219 0.0
Co919 Co 0.1786 0.5618 0.44226 0.0
C920 C 0.12389 0.63741 0.43371 0.0
O921 O 0.13592 0.62433 0.42623 0.0
O922 O 0.13832 0.61677 0.44044 0.0
C923 C 0.175 0.60861 0.40467 0.0
O924 O 0.17493 0.65006 0.40813 0.0
C925 C 0.20421 0.58685 0.46 0.0
C926 C 0.18211 0.52407 0.46699 0.0
C927 C 0.20051 0.56779 0.46814 0.0
N928 N 0.18854 0.55568 0.45429 0.0
N929 N 0.17559 0.51822 0.45851 0.0
C930 C 0.21852 0.63503 0.45776 0.0
H931 H 0.19565 0.66003 0.46111 0.0
H932 H 0.21662 0.64068 0.45071 0.0
H933 H 0.25432 0.64138 0.46001 0.0
C934 C 0.27483 0.57849 0.4243 0.0
N935 N 0.23213 0.57313 0.42755 0.0
N936 N 0.23489 0.56636 0.4359 0.0
C937 C 0.27985 0.56547 0.43818 0.0
C938 C 0.30671 0.57361 0.43091 0.0
C939 C 0.2842 0.59073 0.41512 0.0
H940 H 0.25984 0.61805 0.41305 0.0
H941 H 0.31995 0.60359 0.41419 0.0
H942 H 0.2784 0.55985 0.41103 0.0
O943 O 0.13899 0.51551 0.42473 0.0
O944 O 0.14213 0.50715 0.43884 0.0
H945 H 0.3311 0.53581 0.44663 0.0
H946 H 0.30022 0.58472 0.45087 0.0
C947 C 0.2968 0.55288 0.44696 0.0
H948 H 0.27209 0.5292 0.45016 0.0
H949 H 0.16136 0.48891 0.45563 0.0
O950 O 0.17679 0.57312 0.40947 0.0
C951 C 0.12828 0.49356 0.43152 0.0
Co952 Co 0.15452 0.58464 0.32346 0.0
Co953 Co 0.16074 0.58392 0.30327 0.0
C954 C 0.0863 0.63571 0.31301 0.0
O955 O 0.10083 0.62197 0.32029 0.0
O956 O 0.10589 0.62324 0.30603 0.0
C957 C 0.1243 0.57841 0.34133 0.0
O958 O 0.0818 0.57852 0.33836 0.0
C959 C 0.13247 0.55782 0.2856 0.0
C960 C 0.19185 0.58429 0.27815 0.0
C961 C 0.14957 0.5624 0.27731 0.0
N962 N 0.16345 0.57616 0.29109 0.0
N963 N 0.19878 0.59189 0.28657 0.0
C964 C 0.0861 0.53988 0.28822 0.0
H965 H 0.08075 0.5443 0.29524 0.0
H966 H 0.08316 0.50272 0.28657 0.0
H967 H 0.05873 0.55856 0.28463 0.0
C968 C 0.15066 0.48385 0.32068 0.0
N969 N 0.15372 0.5273 0.31767 0.0
N970 N 0.1593 0.52626 0.30928 0.0
C971 C 0.16211 0.48172 0.30674 0.0
C972 C 0.1562 0.45328 0.31387 0.0
C973 C 0.14025 0.47244 0.32986 0.0
H974 H 0.11295 0.4959 0.33228 0.0
H975 H 0.12814 0.43628 0.33061 0.0
H976 H 0.17175 0.47789 0.3338 0.0
O977 O 0.20982 0.62132 0.32058 0.0
O978 O 0.21582 0.62047 0.30641 0.0
H979 H 0.1958 0.43429 0.29807 0.0
H980 H 0.14374 0.46027 0.29405 0.0
C981 C 0.17541 0.46677 0.29787 0.0
H982 H 0.19617 0.49392 0.29465 0.0
H983 H 0.2276 0.60822 0.28923 0.0
O984 O 0.15811 0.57858 0.33613 0.0
C985 C 0.23039 0.63346 0.31373 0.0
Co986 Co 0.19482 0.43262 0.07497 0.0
Co987 Co 0.19853 0.43099 0.05486 0.0
C988 C 0.14219 0.36273 0.06394 0.0
O989 O 0.15395 0.3808 0.07111 0.0
O990 O 0.15827 0.37755 0.05683 0.0
C991 C 0.20971 0.3995 0.09264 0.0
O992 O 0.22773 0.36158 0.08943 0.0
C993 C 0.20791 0.41288 0.03613 0.0
C994 C 0.22877 0.4827 0.03179 0.0
C995 C 0.21853 0.4387 0.02888 0.0
N996 N 0.21182 0.44063 0.04303 0.0
N997 N 0.22463 0.48212 0.04038 0.0
C998 C 0.19073 0.36416 0.03648 0.0
H999 H 0.15257 0.36461 0.03719 0.0
H1000 H 0.20534 0.34632 0.04217 0.0
H1001 H 0.19966 0.34492 0.03054 0.0
C1002 C 0.29772 0.42817 0.07246 0.0
N1003 N 0.25373 0.42936 0.06959 0.0
N1004 N 0.25402 0.42538 0.06117 0.0
C1005 C 0.29765 0.41941 0.05845 0.0
C1006 C 0.32717 0.42181 0.06547 0.0
C1007 C 0.31122 0.43616 0.08162 0.0
H1008 H 0.2844 0.45677 0.08497 0.0
H1009 H 0.31469 0.40231 0.08491 0.0
H1010 H 0.34488 0.45444 0.08201 0.0
O1011 O 0.16229 0.49041 0.07224 0.0
O1012 O 0.16213 0.48624 0.05807 0.0
H1013 H 0.31104 0.44009 0.04549 0.0
H1014 H 0.34431 0.39061 0.04897 0.0
C1015 C 0.31015 0.40789 0.04936 0.0
H1016 H 0.28377 0.38449 0.04658 0.0
H1017 H 0.2296 0.51036 0.04445 0.0
O1018 O 0.19681 0.43177 0.08766 0.0
C1019 C 0.15013 0.50631 0.06498 0.0
Co1020 Co 0.33295 0.42169 0.82298 0.0
Co1021 Co 0.3272 0.4181 0.80279 0.0
C1022 C 0.4003 0.3672 0.81211 0.0
O1023 O 0.38529 0.38191 0.81931 0.0
O1024 O 0.38159 0.37921 0.80505 0.0
C1025 C 0.34787 0.39551 0.84004 0.0
O1026 O 0.35768 0.35662 0.83608 0.0
C1027 C 0.34992 0.42951 0.78436 0.0
C1028 C 0.27999 0.4284 0.77865 0.0
C1029 C 0.32638 0.43199 0.77662 0.0
N1030 N 0.31871 0.42479 0.79071 0.0
N1031 N 0.27704 0.42391 0.78724 0.0
C1032 C 0.40117 0.42898 0.78564 0.0
H1033 H 0.41 0.43389 0.79251 0.0
H1034 H 0.41783 0.45636 0.78173 0.0
H1035 H 0.41499 0.39518 0.78345 0.0
C1036 C 0.33482 0.52229 0.81941 0.0
N1037 N 0.33278 0.47794 0.81681 0.0
N1038 N 0.33249 0.4765 0.80836 0.0
C1039 C 0.33564 0.51994 0.80529 0.0
C1040 C 0.33699 0.55057 0.81219 0.0
C1041 C 0.33179 0.53692 0.82861 0.0
H1042 H 0.30885 0.51307 0.83221 0.0
H1043 H 0.36674 0.53534 0.83153 0.0
H1044 H 0.31824 0.57265 0.82922 0.0
O1045 O 0.27618 0.38624 0.82104 0.0
O1046 O 0.27274 0.38251 0.80685 0.0
H1047 H 0.30807 0.52304 0.79254 0.0
H1048 H 0.34995 0.56801 0.79487 0.0
C1049 C 0.34071 0.53131 0.79595 0.0
H1050 H 0.36859 0.50989 0.79319 0.0
H1051 H 0.24649 0.42035 0.79074 0.0
O1052 O 0.33701 0.43079 0.8356 0.0
C1053 C 0.25674 0.37207 0.81421 0.0
Co1054 Co 0.32743 0.57676 0.57328 0.0
Co1055 Co 0.32415 0.56675 0.55316 0.0
C1056 C 0.37946 0.64106 0.56197 0.0
O1057 O 0.36655 0.62798 0.56941 0.0
O1058 O 0.36517 0.62097 0.55518 0.0
C1059 C 0.32526 0.61204 0.59089 0.0
O1060 O 0.32728 0.65367 0.58754 0.0
C1061 C 0.30074 0.59175 0.53527 0.0
C1062 C 0.32212 0.52815 0.52847 0.0
C1063 C 0.30466 0.57212 0.52718 0.0
N1064 N 0.31541 0.56064 0.54109 0.0
N1065 N 0.32798 0.52271 0.53697 0.0
C1066 C 0.28706 0.64029 0.53738 0.0
H1067 H 0.31113 0.66467 0.53417 0.0
H1068 H 0.28778 0.6461 0.54443 0.0
H1069 H 0.25188 0.6474 0.53488 0.0
C1070 C 0.22671 0.58621 0.57075 0.0
N1071 N 0.26952 0.57891 0.56769 0.0
N1072 N 0.26744 0.57221 0.55933 0.0
C1073 C 0.22278 0.5731 0.55686 0.0
C1074 C 0.19543 0.5826 0.56401 0.0
C1075 C 0.21687 0.59959 0.57986 0.0
H1076 H 0.2201 0.56866 0.58403 0.0
H1077 H 0.24261 0.62544 0.582 0.0
H1078 H 0.18189 0.61475 0.58059 0.0
O1079 O 0.3617 0.51937 0.57078 0.0
O1080 O 0.35935 0.51161 0.55666 0.0
H1081 H 0.23072 0.53665 0.54491 0.0
H1082 H 0.17161 0.54492 0.54824 0.0
C1083 C 0.20639 0.56102 0.54802 0.0
H1084 H 0.20423 0.59295 0.5441 0.0
H1085 H 0.34136 0.49329 0.53996 0.0
O1086 O 0.32286 0.57692 0.58601 0.0
C1087 C 0.37265 0.49761 0.56398 0.0
H1088 H 0.37207 0.88958 0.30284 0.0
H1089 H 0.26374 0.67585 0.32816 0.0
H1090 H 0.29047 0.8999 0.32596 0.0
H1091 H 0.27633 0.6767 0.30049 0.0
H1092 H 0.3023 0.75072 0.32867 0.0
H1093 H 0.36148 0.80517 0.3031 0.0
C1094 C 0.35233 0.87409 0.308 0.0
C1095 C 0.33202 0.90173 0.31438 0.0
C1096 C 0.29745 0.73396 0.32251 0.0
C1097 C 0.32141 0.80581 0.31488 0.0
C1098 C 0.27565 0.69109 0.3222 0.0
C1099 C 0.26552 0.67053 0.31424 0.0
C1100 C 0.30954 0.75623 0.31483 0.0
C1101 C 0.28259 0.69173 0.30676 0.0
C1102 C 0.3467 0.82609 0.30818 0.0
C1103 C 0.30746 0.87993 0.321 0.0
N1104 N 0.30309 0.73398 0.30722 0.0
N1105 N 0.30283 0.83329 0.32107 0.0
H1106 H 0.39782 0.11934 0.55525 0.0
H1107 H 0.6069 0.01138 0.58198 0.0
H1108 H 0.38447 0.04404 0.57904 0.0
H1109 H 0.61486 0.04008 0.55478 0.0
H1110 H 0.53128 0.04838 0.58239 0.0
H1111 H 0.48223 0.11167 0.55628 0.0
C1112 C 0.41269 0.10152 0.56071 0.0
C1113 C 0.38425 0.08201 0.56704 0.0
C1114 C 0.55002 0.04735 0.57636 0.0
C1115 C 0.48014 0.07431 0.56837 0.0
C1116 C 0.59337 0.02649 0.57613 0.0
C1117 C 0.61671 0.02139 0.56828 0.0
C1118 C 0.52993 0.06324 0.56871 0.0
C1119 C 0.59765 0.04235 0.56094 0.0
C1120 C 0.46069 0.09753 0.56132 0.0
C1121 C 0.40512 0.06007 0.57407 0.0
N1122 N 0.55486 0.0616 0.5613 0.0
N1123 N 0.45177 0.05664 0.57453 0.0
H1124 H 0.2137 0.10205 0.82668 0.0
H1125 H 0.2087 0.32931 0.8012 0.0
H1126 H 0.1231 0.11339 0.80476 0.0
H1127 H 0.22662 0.32839 0.82876 0.0
H1128 H 0.17277 0.2529 0.80213 0.0
H1129 H 0.2172 0.18604 0.82751 0.0
C1130 C 0.19376 0.12223 0.82214 0.0
C1131 C 0.16798 0.10071 0.81566 0.0
C1132 C 0.18342 0.2701 0.80799 0.0
C1133 C 0.17319 0.19699 0.81638 0.0
C1134 C 0.20388 0.31375 0.80747 0.0
C1135 C 0.22197 0.33474 0.81489 0.0
C1136 C 0.1819 0.24724 0.81593 0.0
C1137 C 0.21417 0.31316 0.82284 0.0
C1138 C 0.19586 0.17022 0.8226 0.0
C1139 C 0.14402 0.12869 0.80978 0.0
N1140 N 0.1959 0.26999 0.82313 0.0
N1141 N 0.14783 0.17553 0.81018 0.0
H1142 H 0.12203 0.88291 0.07749 0.0
H1143 H 0.90718 0.97149 0.04995 0.0
H1144 H 0.12945 0.9618 0.054 0.0
H1145 H 0.90152 0.96634 0.07767 0.0
H1146 H 0.98374 0.93648 0.05046 0.0
H1147 H 0.03695 0.88845 0.0769 0.0
C1148 C 0.10585 0.9011 0.07221 0.0
C1149 C 0.13276 0.92152 0.06573 0.0
C1150 C 0.96519 0.94209 0.05642 0.0
C1151 C 0.03651 0.92616 0.06485 0.0
C1152 C 0.92134 0.9618 0.05613 0.0
C1153 C 0.89854 0.97337 0.06379 0.0
C1154 C 0.98621 0.93375 0.06439 0.0
C1155 C 0.91839 0.95908 0.07161 0.0
C1156 C 0.05754 0.90376 0.07183 0.0
C1157 C 0.11015 0.94439 0.059 0.0
N1158 N 0.96172 0.94091 0.07173 0.0
N1159 N 0.06346 0.94587 0.05871 0.0
H1160 H 0.27212 0.32104 0.19776 0.0
H1161 H 0.36755 0.10498 0.17145 0.0
H1162 H 0.27468 0.32147 0.17 0.0
H1163 H 0.28486 0.09761 0.19449 0.0
H1164 H 0.36033 0.18992 0.17179 0.0
H1165 H 0.30936 0.24545 0.19765 0.0
C1166 C 0.28168 0.30598 0.19164 0.0
C1167 C 0.26881 0.32695 0.18387 0.0
C1168 C 0.34463 0.1694 0.17682 0.0
C1169 C 0.31128 0.24055 0.18375 0.0
C1170 C 0.34824 0.12115 0.1766 0.0
C1171 C 0.32693 0.09425 0.18298 0.0
C1172 C 0.32049 0.1905 0.18359 0.0
C1173 C 0.30284 0.11691 0.18956 0.0
C1174 C 0.30274 0.26273 0.1916 0.0
C1175 C 0.28296 0.30601 0.17615 0.0
N1176 N 0.30043 0.16365 0.18971 0.0
N1177 N 0.30265 0.26332 0.17627 0.0
H1178 H 0.11922 0.02048 0.41772 0.0
H1179 H 0.88459 0.03755 0.44162 0.0
H1180 H 0.10538 0.10789 0.44003 0.0
H1181 H 0.8944 0.00547 0.41458 0.0
H1182 H 0.9623 0.07044 0.44106 0.0
H1183 H 0.03555 0.01843 0.41633 0.0
C1184 C 0.09849 0.03992 0.42225 0.0
C1185 C 0.11919 0.0646 0.42897 0.0
C1186 C 0.9469 0.05733 0.4352 0.0
C1187 C 0.0231 0.06129 0.42758 0.0
C1188 C 0.90243 0.03865 0.4355 0.0
C1189 C 0.88347 0.01739 0.42819 0.0
C1190 C 0.97251 0.05409 0.42757 0.0
C1191 C 0.90797 0.02049 0.42043 0.0
C1192 C 0.05066 0.03873 0.42146 0.0
C1193 C 0.09062 0.08802 0.43481 0.0
N1194 N 0.95173 0.03729 0.42037 0.0
N1195 N 0.04384 0.08529 0.43406 0.0
H1196 H 0.18937 0.89169 0.66913 0.0
H1197 H 0.20145 0.66295 0.69512 0.0
H1198 H 0.11546 0.87865 0.69308 0.0
H1199 H 0.21547 0.66691 0.6675 0.0
H1200 H 0.16431 0.73885 0.69465 0.0
H1201 H 0.19625 0.80803 0.66843 0.0
C1202 C 0.17378 0.87116 0.67417 0.0
C1203 C 0.15161 0.89218 0.68116 0.0
C1204 C 0.17448 0.7225 0.68868 0.0
C1205 C 0.16076 0.79611 0.68054 0.0
C1206 C 0.19557 0.67907 0.68893 0.0
C1207 C 0.21287 0.65907 0.68135 0.0
C1208 C 0.17129 0.74609 0.68082 0.0
C1209 C 0.20373 0.68141 0.67353 0.0
C1210 C 0.17784 0.82329 0.67378 0.0
C1211 C 0.13343 0.86379 0.68765 0.0
N1212 N 0.18462 0.72423 0.67348 0.0
N1213 N 0.13898 0.8171 0.68725 0.0
H1214 H 0.59191 0.96258 0.91714 0.0
H1215 H 0.3666 0.95813 0.94275 0.0
H1216 H 0.59383 0.96464 0.94489 0.0
H1217 H 0.37703 0.86612 0.92101 0.0
H1218 H 0.45043 0.96435 0.94306 0.0
H1219 H 0.51498 0.92722 0.91763 0.0
C1220 C 0.57688 0.9544 0.92333 0.0
C1221 C 0.59893 0.96774 0.93098 0.0
C1222 C 0.43442 0.94222 0.9383 0.0
C1223 C 0.51095 0.92847 0.93154 0.0
C1224 C 0.38654 0.9385 0.93813 0.0
C1225 C 0.36475 0.91107 0.93192 0.0
C1226 C 0.46082 0.91967 0.93202 0.0
C1227 C 0.39245 0.88801 0.92586 0.0
C1228 C 0.53297 0.9343 0.92359 0.0
C1229 C 0.57787 0.95587 0.93881 0.0
N1230 N 0.4392 0.89338 0.92597 0.0
N1231 N 0.53449 0.93814 0.93889 0.0
H1232 H 0.69755 0.36813 0.66464 0.0
H1233 H 0.61344 0.14821 0.69128 0.0
H1234 H 0.69176 0.36583 0.69237 0.0
H1235 H 0.67699 0.14409 0.66622 0.0
H1236 H 0.61682 0.23312 0.69088 0.0
H1237 H 0.66079 0.29231 0.66433 0.0
C1238 C 0.68741 0.35235 0.67067 0.0
C1239 C 0.69915 0.37276 0.67856 0.0
C1240 C 0.62921 0.21346 0.68542 0.0
C1241 C 0.65743 0.28586 0.67821 0.0
C1242 C 0.62771 0.16519 0.68567 0.0
C1243 C 0.64562 0.1392 0.67882 0.0
C1244 C 0.648 0.23566 0.67821 0.0
C1245 C 0.66259 0.16277 0.67162 0.0
C1246 C 0.66665 0.30893 0.67047 0.0
C1247 C 0.68425 0.35097 0.68614 0.0
N1248 N 0.66361 0.20966 0.67152 0.0
N1249 N 0.66502 0.30811 0.68579 0.0
H1250 H 0.61158 0.93133 0.41697 0.0
H1251 H 0.38874 0.93423 0.44381 0.0
H1252 H 0.60591 0.85793 0.44107 0.0
H1253 H 0.38674 0.94452 0.41613 0.0
H1254 H 0.46456 0.89745 0.44296 0.0
H1255 H 0.52763 0.93022 0.41631 0.0
C1256 C 0.59264 0.91418 0.42205 0.0
C1257 C 0.61567 0.89507 0.42912 0.0
C1258 C 0.44688 0.90654 0.43707 0.0
C1259 C 0.51933 0.89487 0.42855 0.0
C1260 C 0.40348 0.92747 0.43754 0.0
C1261 C 0.38207 0.94403 0.43005 0.0
C1262 C 0.46896 0.90284 0.42907 0.0
C1263 C 0.40254 0.93359 0.4221 0.0
C1264 C 0.54463 0.91357 0.42168 0.0
C1265 C 0.58931 0.87406 0.43561 0.0
N1266 N 0.44547 0.91486 0.42183 0.0
N1267 N 0.54237 0.87532 0.43526 0.0
H1268 H 0.78789 0.84314 0.19125 0.0
H1269 H 0.77802 0.62275 0.16459 0.0
H1270 H 0.86126 0.84288 0.16711 0.0
H1271 H 0.792 0.61797 0.19221 0.0
H1272 H 0.8119 0.70029 0.16465 0.0
H1273 H 0.78884 0.75941 0.19128 0.0
C1274 C 0.80514 0.82553 0.18603 0.0
C1275 C 0.82518 0.85025 0.17924 0.0
C1276 C 0.80887 0.68155 0.17065 0.0
C1277 C 0.82451 0.75369 0.17905 0.0
C1278 C 0.78964 0.6372 0.17064 0.0
C1279 C 0.7807 0.61439 0.17845 0.0
C1280 C 0.81851 0.70306 0.17852 0.0
C1281 C 0.797 0.63471 0.18605 0.0
C1282 C 0.8055 0.77755 0.18603 0.0
C1283 C 0.84499 0.82518 0.17243 0.0
N1284 N 0.81387 0.67845 0.18593 0.0
N1285 N 0.84353 0.77805 0.17243 0.0
H1286 H 0.09648 0.02269 0.91594 0.0
H1287 H 0.87815 0.12709 0.9403 0.0
H1288 H 0.08964 0.03162 0.94362 0.0
H1289 H 0.87137 0.04334 0.9174 0.0
H1290 H 0.96277 0.11987 0.94012 0.0
H1291 H 0.02188 0.06151 0.91504 0.0
C1292 C 0.08005 0.03394 0.92183 0.0
C1293 C 0.09877 0.02256 0.92989 0.0
C1294 C 0.94258 0.10397 0.93506 0.0
C1295 C 0.01352 0.06714 0.92884 0.0
C1296 C 0.89447 0.10768 0.93518 0.0
C1297 C 0.86773 0.0851 0.92893 0.0
C1298 C 0.96391 0.07853 0.9285 0.0
C1299 C 0.89058 0.06154 0.92231 0.0
C1300 C 0.03736 0.05593 0.92129 0.0
C1301 C 0.07606 0.03882 0.93728 0.0
N1302 N 0.93737 0.05866 0.92229 0.0
N1303 N 0.03407 0.05961 0.93659 0.0
H1304 H 0.725 0.63329 0.79666 0.0
H1305 H 0.6177 0.84759 0.82198 0.0
H1306 H 0.6913 0.6257 0.82366 0.0
H1307 H 0.7175 0.85601 0.80144 0.0
H1308 H 0.61954 0.76269 0.82077 0.0
H1309 H 0.69174 0.71071 0.79617 0.0
C1310 C 0.70926 0.64713 0.80243 0.0
C1311 C 0.7124 0.62355 0.81029 0.0
C1312 C 0.64028 0.78346 0.81645 0.0
C1313 C 0.6747 0.71217 0.80975 0.0
C1314 C 0.63972 0.8317 0.8172 0.0
C1315 C 0.66754 0.8589 0.8118 0.0
C1316 C 0.66812 0.76269 0.81016 0.0
C1317 C 0.69476 0.83659 0.80561 0.0
C1318 C 0.69061 0.69152 0.80215 0.0
C1319 C 0.6907 0.64316 0.81751 0.0
N1320 N 0.69432 0.78988 0.80495 0.0
N1321 N 0.67363 0.6869 0.81712 0.0
H1322 H 0.10939 0.98142 0.58208 0.0
H1323 H 0.89859 0.86871 0.55662 0.0
H1324 H 0.11309 0.95179 0.55488 0.0
H1325 H 0.88701 0.94726 0.58008 0.0
H1326 H 0.98309 0.87568 0.55748 0.0
H1327 H 0.03492 0.94236 0.58303 0.0
C1328 C 0.09521 0.96569 0.57634 0.0
C1329 C 0.11689 0.97116 0.56833 0.0
C1330 C 0.96194 0.89062 0.5625 0.0
C1331 C 0.03153 0.9268 0.56939 0.0
C1332 C 0.9139 0.88701 0.56198 0.0
C1333 C 0.88595 0.9081 0.56822 0.0
C1334 C 0.98191 0.91495 0.56936 0.0
C1335 C 0.90732 0.93037 0.57515 0.0
C1336 C 0.05255 0.9436 0.57689 0.0
C1337 C 0.09712 0.9493 0.56116 0.0
N1338 N 0.95403 0.93353 0.5755 0.0
N1339 N 0.055 0.92883 0.56182 0.0
H1340 H 0.86875 0.1606 0.32933 0.0
H1341 H 0.79009 0.38472 0.30344 0.0
H1342 H 0.79278 0.16078 0.30546 0.0
H1343 H 0.77845 0.37965 0.3311 0.0
H1344 H 0.82519 0.3081 0.30366 0.0
H1345 H 0.8637 0.24576 0.3296 0.0
C1346 C 0.85141 0.17837 0.32413 0.0
C1347 C 0.8314 0.15344 0.31733 0.0
C1348 C 0.816 0.3244 0.30969 0.0
C1349 C 0.82763 0.25004 0.31741 0.0
C1350 C 0.79616 0.36824 0.30959 0.0
C1351 C 0.7799 0.38809 0.31724 0.0
C1352 C 0.81998 0.30043 0.31748 0.0
C1353 C 0.78957 0.36523 0.32502 0.0
C1354 C 0.84904 0.22678 0.32425 0.0
C1355 C 0.80997 0.17831 0.3107 0.0
N1356 N 0.80814 0.32199 0.32494 0.0
N1357 N 0.80884 0.2251 0.31089 0.0
H1358 H 0.62156 0.13502 0.07349 0.0
H1359 H 0.4046 0.02977 0.04869 0.0
H1360 H 0.62867 0.04722 0.05112 0.0
H1361 H 0.40439 0.05119 0.07616 0.0
H1362 H 0.48069 0.06572 0.04793 0.0
H1363 H 0.53676 0.12923 0.07307 0.0
C1364 C 0.60534 0.11488 0.06847 0.0
C1365 C 0.63218 0.09141 0.06235 0.0
C1366 C 0.46342 0.06346 0.05409 0.0
C1367 C 0.53588 0.08631 0.06165 0.0
C1368 C 0.41983 0.04321 0.05454 0.0
C1369 C 0.39866 0.03608 0.06255 0.0
C1370 C 0.48576 0.07701 0.06168 0.0
C1371 C 0.41991 0.055 0.06987 0.0
C1372 C 0.55712 0.11203 0.06819 0.0
C1373 C 0.60943 0.06656 0.05587 0.0
N1374 N 0.46285 0.07383 0.06929 0.0
N1375 N 0.56265 0.06463 0.0557 0.0
H1376 H 0.86839 0.35588 0.82866 0.0
H1377 H 0.80463 0.12588 0.80323 0.0
H1378 H 0.80173 0.34972 0.80388 0.0
H1379 H 0.78012 0.13577 0.83054 0.0
H1380 H 0.83875 0.20295 0.80351 0.0
H1381 H 0.86482 0.27078 0.82943 0.0
C1382 C 0.85338 0.33682 0.82337 0.0
C1383 C 0.83557 0.36005 0.81616 0.0
C1384 C 0.82699 0.18761 0.80947 0.0
C1385 C 0.83365 0.2635 0.81684 0.0
C1386 C 0.80768 0.14356 0.80934 0.0
C1387 C 0.78806 0.12493 0.81682 0.0
C1388 C 0.827 0.21303 0.81714 0.0
C1389 C 0.79395 0.14921 0.82458 0.0
C1390 C 0.85189 0.28844 0.82378 0.0
C1391 C 0.8172 0.33353 0.80944 0.0
N1392 N 0.81201 0.19267 0.82451 0.0
N1393 N 0.81691 0.2868 0.80993 0.0
H1394 H 0.10908 0.54272 0.05067 0.0
H1395 H 0.88754 0.63416 0.07592 0.0
H1396 H 0.10574 0.54961 0.07839 0.0
H1397 H 0.88536 0.55304 0.05265 0.0
H1398 H 0.97257 0.62997 0.07586 0.0
H1399 H 0.03292 0.57866 0.05023 0.0
C1400 C 0.09306 0.55299 0.05667 0.0
C1401 C 0.1132 0.54166 0.0646 0.0
C1402 C 0.95317 0.61395 0.07071 0.0
C1403 C 0.02606 0.58259 0.06409 0.0
C1404 C 0.90484 0.61584 0.07078 0.0
C1405 C 0.87932 0.59382 0.06428 0.0
C1406 C 0.97579 0.59083 0.06399 0.0
C1407 C 0.90348 0.57135 0.05768 0.0
C1408 C 0.04947 0.57329 0.0564 0.0
C1409 C 0.09102 0.55671 0.07214 0.0
N1410 N 0.95027 0.57046 0.05771 0.0
N1411 N 0.04802 0.57556 0.07172 0.0
H1412 H 0.71241 0.88191 0.30025 0.0
H1413 H 0.61199 0.66431 0.32556 0.0
H1414 H 0.69159 0.88602 0.32772 0.0
H1415 H 0.70807 0.65824 0.30438 0.0
H1416 H 0.61555 0.74941 0.32495 0.0
H1417 H 0.67949 0.80432 0.29998 0.0
C1418 C 0.69957 0.86727 0.3062 0.0
C1419 C 0.70621 0.89002 0.31407 0.0
C1420 C 0.6351 0.72911 0.32037 0.0
C1421 C 0.66876 0.80116 0.31376 0.0
C1422 C 0.63356 0.68073 0.32076 0.0
C1423 C 0.65963 0.65409 0.31498 0.0
C1424 C 0.66205 0.75061 0.31402 0.0
C1425 C 0.68643 0.67719 0.30882 0.0
C1426 C 0.6811 0.82279 0.30603 0.0
C1427 C 0.68815 0.86933 0.32153 0.0
N1428 N 0.6868 0.724 0.30849 0.0
N1429 N 0.67108 0.82551 0.32123 0.0
H1430 H 0.41373 0.45006 0.55073 0.0
H1431 H 0.64349 0.45795 0.57574 0.0
H1432 H 0.41823 0.46693 0.57829 0.0
H1433 H 0.63353 0.37591 0.55267 0.0
H1434 H 0.55968 0.4583 0.57681 0.0
H1435 H 0.49105 0.41621 0.5512 0.0
C1436 C 0.43027 0.44535 0.55691 0.0
C1437 C 0.41006 0.46285 0.56445 0.0
C1438 C 0.57572 0.4395 0.57158 0.0
C1439 C 0.49863 0.42508 0.56498 0.0
C1440 C 0.62364 0.43925 0.57098 0.0
C1441 C 0.64549 0.41666 0.56413 0.0
C1442 C 0.54922 0.41822 0.56515 0.0
C1443 C 0.61793 0.39428 0.55798 0.0
C1444 C 0.47451 0.42613 0.55716 0.0
C1445 C 0.43289 0.45511 0.57228 0.0
N1446 N 0.57104 0.3962 0.55856 0.0
N1447 N 0.47653 0.438 0.57231 0.0
H1448 H 0.743 0.86009 0.662 0.0
H1449 H 0.86696 0.6509 0.68619 0.0
H1450 H 0.78895 0.86816 0.68836 0.0
H1451 H 0.77212 0.63679 0.66498 0.0
H1452 H 0.86049 0.73547 0.685 0.0
H1453 H 0.77897 0.78415 0.66082 0.0
C1454 C 0.76172 0.84657 0.66748 0.0
C1455 C 0.76176 0.87 0.67538 0.0
C1456 C 0.8418 0.71372 0.68053 0.0
C1457 C 0.8026 0.78294 0.67405 0.0
C1458 C 0.84519 0.66567 0.68124 0.0
C1459 C 0.81964 0.63704 0.67573 0.0
C1460 C 0.81317 0.73298 0.67419 0.0
C1461 C 0.79262 0.65766 0.66932 0.0
C1462 C 0.78199 0.80303 0.6668 0.0
C1463 C 0.7872 0.85089 0.6822 0.0
N1464 N 0.7899 0.70439 0.66875 0.0
N1465 N 0.80588 0.80796 0.68144 0.0
H1466 H 0.60786 0.62276 0.93925 0.0
H1467 H 0.39006 0.51914 0.91454 0.0
H1468 H 0.61502 0.5324 0.91724 0.0
H1469 H 0.39128 0.53695 0.9421 0.0
H1470 H 0.46632 0.5547 0.9138 0.0
H1471 H 0.52302 0.6179 0.93873 0.0
C1472 C 0.59161 0.60232 0.93427 0.0
C1473 C 0.61846 0.5775 0.92834 0.0
C1474 C 0.44929 0.55181 0.91998 0.0
C1475 C 0.52215 0.57356 0.9275 0.0
C1476 C 0.4056 0.53176 0.92042 0.0
C1477 C 0.38474 0.52372 0.92844 0.0
C1478 C 0.47201 0.5644 0.92758 0.0
C1479 C 0.40649 0.54154 0.9358 0.0
C1480 C 0.5434 0.59996 0.93394 0.0
C1481 C 0.59574 0.55248 0.92188 0.0
N1482 N 0.44947 0.56032 0.93522 0.0
N1483 N 0.54891 0.55105 0.92165 0.0
H1484 H 0.67951 0.11378 0.16897 0.0
H1485 H 0.70807 0.347 0.19169 0.0
H1486 H 0.70467 0.12311 0.19627 0.0
H1487 H 0.6097 0.33786 0.17093 0.0
H1488 H 0.7066 0.26346 0.19308 0.0
H1489 H 0.64851 0.19242 0.16921 0.0
C1490 C 0.67707 0.13164 0.17507 0.0
C1491 C 0.69631 0.11238 0.18256 0.0
C1492 C 0.68471 0.27963 0.1883 0.0
C1493 C 0.66179 0.20234 0.1828 0.0
C1494 C 0.68554 0.32741 0.1875 0.0
C1495 C 0.65838 0.34952 0.18128 0.0
C1496 C 0.65774 0.25326 0.18265 0.0
C1497 C 0.63137 0.3221 0.17578 0.0
C1498 C 0.65948 0.17662 0.17518 0.0
C1499 C 0.69141 0.1369 0.19029 0.0
N1500 N 0.63214 0.27513 0.17652 0.0
N1501 N 0.67595 0.18118 0.19016 0.0
H1502 H 0.08605 0.45983 0.4171 0.0
H1503 H 0.86874 0.36419 0.4431 0.0
H1504 H 0.08519 0.44771 0.44476 0.0
H1505 H 0.86243 0.43777 0.41901 0.0
H1506 H 0.95345 0.37014 0.44272 0.0
H1507 H 0.0105 0.42267 0.41663 0.0
C1508 C 0.07065 0.44825 0.42307 0.0
C1509 C 0.09136 0.45829 0.43101 0.0
C1510 C 0.93333 0.38418 0.43746 0.0
C1511 C 0.00482 0.41608 0.43048 0.0
C1512 C 0.88514 0.38125 0.43771 0.0
C1513 C 0.85855 0.40081 0.4311 0.0
C1514 C 0.95482 0.4061 0.43049 0.0
C1515 C 0.88151 0.42159 0.42417 0.0
C1516 C 0.02738 0.42727 0.42278 0.0
C1517 C 0.07003 0.44159 0.43851 0.0
N1518 N 0.92829 0.42381 0.42406 0.0
N1519 N 0.02733 0.42212 0.43808 0.0
H1520 H 0.21082 0.8196 0.19772 0.0
H1521 H 0.19944 0.59678 0.17157 0.0
H1522 H 0.20576 0.8238 0.16999 0.0
H1523 H 0.11542 0.60497 0.19443 0.0
H1524 H 0.20399 0.68077 0.17128 0.0
H1525 H 0.17442 0.74315 0.19734 0.0
C1526 C 0.20084 0.8052 0.19157 0.0
C1527 C 0.21269 0.82757 0.18386 0.0
C1528 C 0.18391 0.66423 0.17629 0.0
C1529 C 0.17215 0.74018 0.18342 0.0
C1530 C 0.18116 0.61625 0.17644 0.0
C1531 C 0.15668 0.59379 0.18299 0.0
C1532 C 0.16337 0.69004 0.18289 0.0
C1533 C 0.13522 0.62092 0.18933 0.0
C1534 C 0.18014 0.76155 0.19137 0.0
C1535 C 0.19838 0.80742 0.17609 0.0
N1536 N 0.1397 0.66777 0.18922 0.0
N1537 N 0.18011 0.76424 0.17606 0.0
H1538 H 0.8894 0.45354 0.94493 0.0
H1539 H 0.10936 0.35727 0.92009 0.0
H1540 H 0.89017 0.44747 0.91719 0.0
H1541 H 0.11338 0.45425 0.94116 0.0
H1542 H 0.02426 0.36172 0.92027 0.0
H1543 H 0.96636 0.41922 0.94507 0.0
C1544 C 0.90495 0.44363 0.93887 0.0
C1545 C 0.88387 0.45484 0.93102 0.0
C1546 C 0.04414 0.38121 0.92492 0.0
C1547 C 0.97174 0.41551 0.9312 0.0
C1548 C 0.09248 0.37918 0.92477 0.0
C1549 C 0.11852 0.4053 0.93065 0.0
C1550 C 0.02211 0.4085 0.93114 0.0
C1551 C 0.09487 0.43256 0.93666 0.0
C1552 C 0.94899 0.42428 0.93898 0.0
C1553 C 0.90563 0.44043 0.92339 0.0
N1554 N 0.04808 0.43325 0.93678 0.0
N1555 N 0.94898 0.42231 0.92365 0.0
H1556 H 0.25189 0.16715 0.6661 0.0
H1557 H 0.36518 0.37889 0.6913 0.0
H1558 H 0.27735 0.16473 0.69345 0.0
H1559 H 0.28308 0.39093 0.66828 0.0
H1560 H 0.35599 0.29449 0.69068 0.0
H1561 H 0.28984 0.24227 0.66528 0.0
C1562 C 0.26652 0.18172 0.67191 0.0
C1563 C 0.26022 0.16013 0.67991 0.0
C1564 C 0.34075 0.31573 0.6857 0.0
C1565 C 0.3034 0.24622 0.67898 0.0
C1566 C 0.34563 0.36374 0.68608 0.0
C1567 C 0.32463 0.39185 0.67985 0.0
C1568 C 0.31525 0.29588 0.67898 0.0
C1569 C 0.30039 0.37055 0.67314 0.0
C1570 C 0.28793 0.22478 0.67143 0.0
C1571 C 0.28059 0.18054 0.68718 0.0
N1572 N 0.29622 0.32384 0.6729 0.0
N1573 N 0.30058 0.22296 0.68657 0.0
H1574 H 0.58268 0.5065 0.41589 0.0
H1575 H 0.37009 0.61433 0.44162 0.0
H1576 H 0.58671 0.53185 0.44324 0.0
H1577 H 0.35917 0.5313 0.41869 0.0
H1578 H 0.45468 0.60754 0.44084 0.0
H1579 H 0.5069 0.54311 0.41529 0.0
C1580 C 0.56832 0.52087 0.42174 0.0
C1581 C 0.59052 0.51479 0.42968 0.0
C1582 C 0.43359 0.59158 0.43591 0.0
C1583 C 0.50369 0.55636 0.429 0.0
C1584 C 0.3855 0.59505 0.43639 0.0
C1585 C 0.35769 0.57317 0.43023 0.0
C1586 C 0.45375 0.56664 0.42915 0.0
C1587 C 0.37929 0.5493 0.4235 0.0
C1588 C 0.52489 0.5415 0.42138 0.0
C1589 C 0.57039 0.53487 0.43701 0.0
N1590 N 0.42602 0.54657 0.42315 0.0
N1591 N 0.52757 0.554 0.43652 0.0
H1592 H 0.22828 0.17747 0.32862 0.0
H1593 H 0.11895 0.38919 0.30284 0.0
H1594 H 0.21121 0.17469 0.30105 0.0
H1595 H 0.20183 0.40133 0.32577 0.0
H1596 H 0.12937 0.30479 0.30334 0.0
H1597 H 0.19073 0.25289 0.32899 0.0
C1598 C 0.21557 0.19204 0.32266 0.0
C1599 C 0.22416 0.17027 0.31476 0.0
C1600 C 0.14452 0.32611 0.30831 0.0
C1601 C 0.18142 0.25664 0.31517 0.0
C1602 C 0.139 0.37412 0.308 0.0
C1603 C 0.15955 0.40224 0.31428 0.0
C1604 C 0.17004 0.30635 0.31504 0.0
C1605 C 0.18457 0.38098 0.3209 0.0
C1606 C 0.1944 0.23524 0.32289 0.0
C1607 C 0.20616 0.19065 0.30727 0.0
N1608 N 0.18909 0.33433 0.32111 0.0
N1609 N 0.18633 0.23323 0.30764 0.0
H1610 H 0.60468 0.47325 0.04964 0.0
H1611 H 0.38921 0.38044 0.07655 0.0
H1612 H 0.6108 0.45936 0.07726 0.0
H1613 H 0.38171 0.46606 0.05389 0.0
H1614 H 0.47423 0.38455 0.07581 0.0
H1615 H 0.52734 0.43985 0.04985 0.0
C1616 C 0.59047 0.46192 0.05573 0.0
C1617 C 0.61372 0.4706 0.06348 0.0
C1618 C 0.45364 0.40167 0.07095 0.0
C1619 C 0.52513 0.43274 0.06372 0.0
C1620 C 0.40533 0.39982 0.07141 0.0
C1621 C 0.37836 0.42268 0.06523 0.0
C1622 C 0.47469 0.42575 0.06416 0.0
C1623 C 0.40099 0.44685 0.05865 0.0
C1624 C 0.54616 0.44316 0.05584 0.0
C1625 C 0.59367 0.45434 0.07114 0.0
N1626 N 0.44772 0.44759 0.05827 0.0
N1627 N 0.54996 0.43707 0.07111 0.0
H1628 H 0.38762 0.61135 0.822 0.0
H1629 H 0.28377 0.83055 0.79803 0.0
H1630 H 0.28583 0.60604 0.80176 0.0
H1631 H 0.29558 0.82862 0.8257 0.0
H1632 H 0.31922 0.75414 0.79751 0.0
H1633 H 0.383 0.69646 0.82172 0.0
C1634 C 0.36471 0.62803 0.81745 0.0
C1635 C 0.33714 0.6017 0.81187 0.0
C1636 C 0.31519 0.77118 0.80366 0.0
C1637 C 0.33358 0.69801 0.81127 0.0
C1638 C 0.29516 0.81488 0.80398 0.0
C1639 C 0.28521 0.83538 0.81195 0.0
C1640 C 0.32594 0.74825 0.81133 0.0
C1641 C 0.30156 0.81356 0.81943 0.0
C1642 C 0.36253 0.67633 0.81726 0.0
C1643 C 0.30849 0.62493 0.80604 0.0
N1644 N 0.32035 0.77054 0.81896 0.0
N1645 N 0.30759 0.67176 0.80586 0.0
H1646 H 0.91746 0.54716 0.54917 0.0
H1647 H 0.13922 0.54474 0.57615 0.0
H1648 H 0.91338 0.53895 0.57687 0.0
H1649 H 0.13558 0.6251 0.55281 0.0
H1650 H 0.05518 0.54523 0.57651 0.0
H1651 H 0.99429 0.58196 0.55012 0.0
C1652 C 0.93195 0.55402 0.55546 0.0
C1653 C 0.9096 0.53861 0.56295 0.0
C1654 C 0.07268 0.56351 0.57138 0.0
C1655 C -0.00245 0.5774 0.56403 0.0
C1656 C 0.12072 0.56329 0.57119 0.0
C1657 C 0.1444 0.58498 0.56445 0.0
C1658 C 0.04799 0.58433 0.56466 0.0
C1659 C 0.11855 0.60727 0.55804 0.0
C1660 C 0.97592 0.57377 0.55599 0.0
C1661 C 0.92986 0.54903 0.57091 0.0
N1662 N 0.07158 0.60571 0.55821 0.0
N1663 N 0.97329 0.56653 0.57124 0.0
H1664 H 0.56731 0.37509 0.29873 0.0
H1665 H 0.45307 0.17114 0.3261 0.0
H1666 H 0.56309 0.37077 0.32647 0.0
H1667 H 0.43183 0.18582 0.29876 0.0
H1668 H 0.50047 0.24055 0.32596 0.0
H1669 H 0.52133 0.30406 0.29831 0.0
C1670 C 0.55627 0.35963 0.30473 0.0
C1671 C 0.56934 0.3789 0.31265 0.0
C1672 C 0.48566 0.22852 0.31998 0.0
C1673 C 0.51759 0.29725 0.3122 0.0
C1674 C 0.45883 0.18859 0.32003 0.0
C1675 C 0.43801 0.17276 0.31244 0.0
C1676 C 0.49192 0.25295 0.31227 0.0
C1677 C 0.44706 0.19681 0.30477 0.0
C1678 C 0.53027 0.31893 0.30448 0.0
C1679 C 0.55405 0.35723 0.32021 0.0
N1680 N 0.47311 0.23596 0.3049 0.0
N1681 N 0.52935 0.31744 0.31979 0.0
H1682 H 0.12421 0.21117 0.57421 0.0
H1683 H 0.92366 0.32462 0.54633 0.0
H1684 H 0.10178 0.16983 0.54786 0.0
H1685 H 0.92373 0.31511 0.57405 0.0
H1686 H 0.99319 0.27584 0.54599 0.0
H1687 H 0.05739 0.26161 0.57331 0.0
C1688 C 0.10556 0.21308 0.56819 0.0
C1689 C 0.11824 0.18564 0.56114 0.0
C1690 C 0.97756 0.28431 0.55211 0.0
C1691 C 0.0411 0.24317 0.56011 0.0
C1692 C 0.93783 0.31188 0.55232 0.0
C1693 C 0.918 0.32431 0.56024 0.0
C1694 C -0.00238 0.26981 0.55986 0.0
C1695 C 0.93784 0.30681 0.56779 0.0
C1696 C 0.06715 0.24168 0.5677 0.0
C1697 C 0.09301 0.19019 0.55347 0.0
N1698 N 0.97674 0.28092 0.56741 0.0
N1699 N 0.05522 0.21819 0.55317 0.0
H1700 H 0.9347 0.63398 0.79765 0.0
H1701 H 0.05853 0.82852 0.82604 0.0
H1702 H 0.92415 0.64351 0.82528 0.0
H1703 H 0.07084 0.82114 0.79842 0.0
H1704 H 0.00717 0.76193 0.82572 0.0
H1705 H 0.98493 0.70201 0.79769 0.0
C1706 C 0.9433 0.65001 0.80373 0.0
C1707 C 0.92502 0.63303 0.81147 0.0
C1708 C 0.02087 0.77496 0.81971 0.0
C1709 C 0.98191 0.7112 0.81155 0.0
C1710 C 0.05007 0.81321 0.81989 0.0
C1711 C 0.06929 0.83035 0.81225 0.0
C1712 C 0.01082 0.75345 0.81185 0.0
C1713 C 0.05686 0.8091 0.80447 0.0
C1714 C 0.97173 0.68904 0.80374 0.0
C1715 C 0.93726 0.65537 0.81915 0.0
N1716 N 0.02864 0.77151 0.80447 0.0
N1717 N 0.96475 0.69335 0.81898 0.0
H1718 H 0.40559 0.81356 0.04939 0.0
H1719 H 0.60123 0.68731 0.07709 0.0
H1720 H 0.41525 0.82269 0.07704 0.0
H1721 H 0.59796 0.6874 0.04934 0.0
H1722 H 0.53262 0.73622 0.07721 0.0
H1723 H 0.47388 0.7641 0.04931 0.0
C1724 C 0.42169 0.80476 0.05546 0.0
C1725 C 0.40471 0.82257 0.06324 0.0
C1726 C 0.54706 0.72575 0.07109 0.0
C1727 C 0.48335 0.7664 0.06316 0.0
C1728 C 0.58644 0.698 0.07101 0.0
C1729 C 0.60538 0.68303 0.06319 0.0
C1730 C 0.52628 0.73853 0.0633 0.0
C1731 C 0.5846 0.69804 0.05553 0.0
C1732 C 0.46092 0.77676 0.05539 0.0
C1733 C 0.42713 0.80993 0.07089 0.0
N1734 N 0.546 0.72472 0.05578 0.0
N1735 N 0.46541 0.78282 0.07065 0.0
H1736 H 0.55823 0.62616 0.16899 0.0
H1737 H 0.43587 0.81971 0.19778 0.0
H1738 H 0.5704 0.63211 0.19664 0.0
H1739 H 0.42795 0.81449 0.17008 0.0
H1740 H 0.48617 0.75193 0.19754 0.0
H1741 H 0.50898 0.69433 0.16938 0.0
C1742 C 0.55017 0.64147 0.17516 0.0
C1743 C 0.56868 0.62338 0.18279 0.0
C1744 C 0.47362 0.76581 0.19152 0.0
C1745 C 0.51264 0.70206 0.18327 0.0
C1746 C 0.44511 0.80471 0.19164 0.0
C1747 C 0.42739 0.82274 0.18393 0.0
C1748 C 0.48443 0.74474 0.18365 0.0
C1749 C 0.44061 0.80178 0.17618 0.0
C1750 C 0.52223 0.68065 0.17537 0.0
C1751 C 0.55695 0.64483 0.19059 0.0
N1752 N 0.46808 0.76375 0.17624 0.0
N1753 N 0.52984 0.6832 0.19062 0.0
H1754 H 0.58049 0.30593 0.44792 0.0
H1755 H 0.38966 0.17566 0.4202 0.0
H1756 H 0.58758 0.28552 0.42045 0.0
H1757 H 0.40194 0.15299 0.44754 0.0
H1758 H 0.45724 0.22516 0.42069 0.0
H1759 H 0.51237 0.2554 0.44839 0.0
C1760 C 0.56822 0.29038 0.44202 0.0
C1761 C 0.58958 0.30036 0.43412 0.0
C1762 C 0.44518 0.20947 0.4266 0.0
C1763 C 0.5115 0.24363 0.43461 0.0
C1764 C 0.4063 0.1814 0.42634 0.0
C1765 C 0.39033 0.15964 0.43383 0.0
C1766 C 0.46842 0.21621 0.4344 0.0
C1767 C 0.41319 0.16894 0.44161 0.0
C1768 C 0.52926 0.26179 0.4423 0.0
C1769 C 0.57218 0.27922 0.42668 0.0
N1770 N 0.45138 0.19644 0.44169 0.0
N1771 N 0.53395 0.25232 0.42711 0.0
H1772 H 0.05414 0.17473 0.6981 0.0
H1773 H 0.93086 0.3648 0.66917 0.0
H1774 H 0.03061 0.16202 0.67078 0.0
H1775 H 0.90475 0.35725 0.69647 0.0
H1776 H 0.97834 0.29591 0.67022 0.0
H1777 H 0.006 0.24471 0.69817 0.0
C1778 C 0.03833 0.18612 0.69216 0.0
C1779 C 0.04685 0.16266 0.6844 0.0
C1780 C 0.96236 0.30933 0.676 0.0
C1781 C 0.99301 0.24286 0.68444 0.0
C1782 C 0.93548 0.34897 0.67542 0.0
C1783 C 0.91323 0.36658 0.68273 0.0
C1784 C 0.96741 0.28699 0.68394 0.0
C1785 C 0.92109 0.3447 0.69067 0.0
C1786 C 0.01115 0.22615 0.69221 0.0
C1787 C 0.02548 0.17905 0.6769 0.0
N1788 N 0.94741 0.30571 0.69106 0.0
N1789 N 7e-05 0.21834 0.6771 0.0
H1790 H 0.89613 0.66906 0.94623 0.0
H1791 H 0.09042 0.79915 0.91878 0.0
H1792 H 0.89772 0.67694 0.91852 0.0
H1793 H 0.0828 0.80723 0.94646 0.0
H1794 H 0.02225 0.74995 0.91878 0.0
H1795 H 0.96506 0.71813 0.94664 0.0
C1796 C 0.91054 0.68154 0.94024 0.0
C1797 C 0.89116 0.6686 0.93232 0.0
C1798 C 0.03554 0.76229 0.92487 0.0
C1799 C 0.97039 0.72401 0.93276 0.0
C1800 C 0.07476 0.79018 0.92488 0.0
C1801 C 0.09231 0.80767 0.93263 0.0
C1802 C 0.01353 0.75164 0.93266 0.0
C1803 C 0.07045 0.79466 0.94033 0.0
C1804 C 0.95007 0.70929 0.94049 0.0
C1805 C 0.91146 0.68576 0.92477 0.0
N1806 N 0.03201 0.76761 0.94014 0.0
N1807 N 0.95006 0.71225 0.92518 0.0
H1808 H 0.51811 0.88437 0.67342 0.0
H1809 H 0.42843 0.66327 0.69855 0.0
H1810 H 0.57946 0.84737 0.69777 0.0
H1811 H 0.43092 0.67657 0.6709 0.0
H1812 H 0.47409 0.73479 0.69964 0.0
H1813 H 0.47123 0.81478 0.674 0.0
C1814 C 0.52122 0.86197 0.67898 0.0
C1815 C 0.55337 0.87134 0.68549 0.0
C1816 C 0.46484 0.72155 0.69337 0.0
C1817 C 0.49998 0.7911 0.68612 0.0
C1818 C 0.43907 0.68073 0.69272 0.0
C1819 C 0.42547 0.66401 0.68462 0.0
C1820 C 0.47617 0.74597 0.68587 0.0
C1821 C 0.44026 0.68807 0.67729 0.0
C1822 C 0.49469 0.82202 0.67926 0.0
C1823 C 0.55527 0.8413 0.69259 0.0
N1824 N 0.46423 0.72806 0.6781 0.0
N1825 N 0.52919 0.80204 0.69268 0.0
H1826 H 0.89946 0.82236 0.44881 0.0
H1827 H 0.08377 0.68637 0.42075 0.0
H1828 H 0.8797 0.78246 0.42231 0.0
H1829 H 0.08004 0.66884 0.44832 0.0
H1830 H 0.01502 0.73418 0.42163 0.0
H1831 H 0.96935 0.77391 0.44927 0.0
C1832 C 0.90923 0.80284 0.44316 0.0
C1833 C 0.88401 0.80695 0.43548 0.0
C1834 C 0.02929 0.72 0.4275 0.0
C1835 C 0.96395 0.75297 0.43591 0.0
C1836 C 0.06886 0.69298 0.42702 0.0
C1837 C 0.08743 0.67297 0.43447 0.0
C1838 C 0.00809 0.72749 0.43548 0.0
C1839 C 0.06666 0.68331 0.44241 0.0
C1840 C 0.9492 0.77557 0.44341 0.0
C1841 C 0.89831 0.78098 0.42834 0.0
N1842 N 0.02778 0.70976 0.44272 0.0
N1843 N 0.93756 0.75566 0.42871 0.0
H1844 H 0.05102 0.3143 0.19722 0.0
H1845 H 0.90782 0.13726 0.16798 0.0
H1846 H 0.04462 0.32191 0.16952 0.0
H1847 H 0.91766 0.12675 0.19561 0.0
H1848 H 0.95736 0.20548 0.16845 0.0
H1849 H -0.00072 0.24762 0.19682 0.0
C1850 C 0.03831 0.30238 0.19106 0.0
C1851 C 0.05247 0.32365 0.18339 0.0
C1852 C 0.94882 0.18814 0.17441 0.0
C1853 C 0.99373 0.24689 0.18288 0.0
C1854 C 0.92072 0.14898 0.17414 0.0
C1855 C 0.90841 0.1262 0.18177 0.0
C1856 C 0.96472 0.20476 0.18235 0.0
C1857 C 0.92616 0.14313 0.18956 0.0
C1858 C 0.00901 0.26407 0.19083 0.0
C1859 C 0.03486 0.30655 0.1756 0.0
N1860 N 0.95325 0.18149 0.18965 0.0
N1861 N 0.00666 0.26904 0.17555 0.0
H1862 H 0.39913 0.31468 0.94774 0.0
H1863 H 0.59875 0.19682 0.91992 0.0
H1864 H 0.39848 0.30372 0.92005 0.0
H1865 H 0.58645 0.17453 0.94727 0.0
H1866 H 0.52979 0.24459 0.92033 0.0
H1867 H 0.47 0.26823 0.9481 0.0
C1868 C 0.41344 0.30205 0.94175 0.0
C1869 C 0.39288 0.31342 0.93384 0.0
C1870 C 0.5422 0.22946 0.92626 0.0
C1871 C 0.47425 0.26128 0.93423 0.0
C1872 C 0.58189 0.20241 0.92605 0.0
C1873 C 0.59825 0.18117 0.93356 0.0
C1874 C 0.51849 0.23557 0.93404 0.0
C1875 C 0.57501 0.19012 0.94132 0.0
C1876 C 0.45402 0.27581 0.94197 0.0
C1877 C 0.41307 0.29615 0.9263 0.0
N1878 N 0.536 0.21644 0.94135 0.0
N1879 N 0.45276 0.27135 0.92668 0.0
H1880 H 0.5768 0.1384 0.79774 0.0
H1881 H 0.44268 0.32664 0.8259 0.0
H1882 H 0.56675 0.13436 0.82543 0.0
H1883 H 0.43835 0.32348 0.79816 0.0
H1884 H 0.49242 0.25875 0.82574 0.0
H1885 H 0.52749 0.20695 0.79766 0.0
C1886 C 0.56384 0.15153 0.8038 0.0
C1887 C 0.57625 0.13068 0.81161 0.0
C1888 C 0.48076 0.27301 0.81968 0.0
C1889 C 0.52042 0.20953 0.81155 0.0
C1890 C 0.45261 0.31206 0.81976 0.0
C1891 C 0.43601 0.33069 0.81203 0.0
C1892 C 0.49253 0.25239 0.81182 0.0
C1893 C 0.45015 0.31021 0.80428 0.0
C1894 C 0.53589 0.19085 0.80374 0.0
C1895 C 0.55834 0.1493 0.81925 0.0
N1896 N 0.47742 0.27198 0.80437 0.0
N1897 N 0.53163 0.18782 0.81903 0.0
H1898 H 0.42124 0.68696 0.57514 0.0
H1899 H 0.60449 0.82638 0.5475 0.0
H1900 H 0.42346 0.67377 0.54748 0.0
H1901 H 0.62548 0.7832 0.57378 0.0
H1902 H 0.53511 0.77732 0.54689 0.0
H1903 H 0.49072 0.73377 0.57441 0.0
C1904 C 0.43598 0.69431 0.56889 0.0
C1905 C 0.4167 0.67588 0.56136 0.0
C1906 C 0.55544 0.77833 0.55273 0.0
C1907 C 0.4969 0.72925 0.56051 0.0
C1908 C 0.59513 0.80596 0.55307 0.0
C1909 C 0.62045 0.80941 0.56074 0.0
C1910 C 0.54108 0.75469 0.56014 0.0
C1911 C 0.60672 0.78226 0.56777 0.0
C1912 C 0.47599 0.72073 0.56849 0.0
C1913 C 0.43735 0.68705 0.55345 0.0
N1914 N 0.56768 0.75662 0.56733 0.0
N1915 N 0.47661 0.71297 0.55322 0.0
H1916 H 0.03454 0.66792 0.32642 0.0
H1917 H 0.92669 0.87836 0.29979 0.0
H1918 H 0.05712 0.68734 0.29922 0.0
H1919 H 0.91355 0.862 0.32727 0.0
H1920 H 0.97287 0.80769 0.29928 0.0
H1921 H 0.98566 0.73637 0.32655 0.0
C1922 C 0.02876 0.68621 0.32044 0.0
C1923 C 0.05034 0.672 0.3128 0.0
C1924 C 0.96003 0.81973 0.30542 0.0
C1925 C 0.9948 0.75105 0.31295 0.0
C1926 C 0.93389 0.86026 0.30573 0.0
C1927 C 0.91605 0.87617 0.31359 0.0
C1928 C 0.96828 0.79487 0.31302 0.0
C1929 C 0.92649 0.85113 0.32107 0.0
C1930 C 0.00104 0.72555 0.32054 0.0
C1931 C 0.0413 0.69705 0.30526 0.0
N1932 N 0.95169 0.81165 0.32058 0.0
N1933 N 0.01449 0.73563 0.30554 0.0
H1934 H 0.10348 0.32035 0.04993 0.0
H1935 H 0.90783 0.19172 0.07728 0.0
H1936 H 0.09463 0.32651 0.07762 0.0
H1937 H 0.91263 0.19236 0.04954 0.0
H1938 H 0.97601 0.24135 0.07756 0.0
H1939 H 0.03506 0.27115 0.04972 0.0
C1940 C 0.08751 0.31097 0.05598 0.0
C1941 C 0.10481 0.32783 0.06381 0.0
C1942 C 0.96197 0.23085 0.07141 0.0
C1943 C 0.02596 0.27192 0.06359 0.0
C1944 C 0.92284 0.2027 0.07124 0.0
C1945 C 0.90451 0.1876 0.06338 0.0
C1946 C 0.98308 0.24391 0.06366 0.0
C1947 C 0.92553 0.20301 0.05576 0.0
C1948 C 0.0482 0.2831 0.05585 0.0
C1949 C 0.08254 0.31445 0.07143 0.0
N1950 N 0.96386 0.23005 0.0561 0.0
N1951 N 0.04414 0.28748 0.07113 0.0
H1952 H 0.42205 0.04457 0.35443 0.0
H1953 H 0.28297 0.16447 0.39207 0.0
H1954 H 0.29478 0.11752 0.34944 0.0
H1955 H 0.34513 0.03011 0.39552 0.0
H1956 H 0.29851 0.15884 0.37657 0.0
H1957 H 0.40609 0.04986 0.36993 0.0
C1958 C 0.39091 0.06176 0.35661 0.0
C1959 C 0.35954 0.0804 0.35069 0.0
C1960 C 0.30857 0.13066 0.38075 0.0
C1961 C 0.34177 0.08739 0.36825 0.0
C1962 C 0.29983 0.13387 0.38956 0.0
C1963 C 0.31252 0.09757 0.39504 0.0
C1964 C 0.3313 0.09152 0.37749 0.0
C1965 C 0.33437 0.05865 0.39149 0.0
C1966 C 0.38178 0.0646 0.36541 0.0
C1967 C 0.31962 0.10232 0.35381 0.0
N1968 N 0.34354 0.05682 0.38294 0.0
N1969 N 0.31205 0.10563 0.36239 0.0
H1970 H 0.10882 0.16321 0.60112 0.0
H1971 H 0.17517 0.03846 0.64507 0.0
H1972 H 0.22224 0.06685 0.60309 0.0
H1973 H 0.10101 0.16788 0.64405 0.0
H1974 H 0.18581 0.04215 0.62946 0.0
H1975 H 0.09942 0.1601 0.61671 0.0
C1976 C 0.13192 0.14158 0.60484 0.0
C1977 C 0.16639 0.11526 0.60081 0.0
C1978 C 0.16721 0.06967 0.63267 0.0
C1979 C 0.15532 0.11101 0.61863 0.0
C1980 C 0.16082 0.06744 0.64156 0.0
C1981 C 0.13721 0.10297 0.64586 0.0
C1982 C 0.14926 0.10733 0.62805 0.0
C1983 C 0.11956 0.13982 0.64099 0.0
C1984 C 0.12653 0.13984 0.61374 0.0
C1985 C 0.19537 0.08787 0.60595 0.0
N1986 N 0.12581 0.14097 0.63235 0.0
N1987 N 0.18893 0.08613 0.6146 0.0
H1988 H 0.08403 0.9264 0.85394 0.0
H1989 H 0.24925 0.83295 0.89089 0.0
H1990 H 0.22619 0.8901 0.84895 0.0
H1991 H 0.13996 0.93115 0.89574 0.0
H1992 H 0.23592 0.8422 0.87537 0.0
H1993 H 0.09844 0.91703 0.86937 0.0
C1994 C 0.11822 0.9165 0.85609 0.0
C1995 C 0.15401 0.90924 0.85018 0.0
C1996 C 0.21504 0.8617 0.87987 0.0
C1997 C 0.17045 0.89772 0.86773 0.0
C1998 C 0.22249 0.85632 0.88869 0.0
C1999 C 0.19581 0.88145 0.89459 0.0
C2000 C 0.18002 0.89156 0.87698 0.0
C2001 C 0.16158 0.91136 0.89141 0.0
C2002 C 0.12644 0.91126 0.86488 0.0
C2003 C 0.19772 0.89641 0.85331 0.0
N2004 N 0.15444 0.91532 0.88283 0.0
N2005 N 0.20466 0.89069 0.86187 0.0
H2006 H 0.35374 0.96565 0.10044 0.0
H2007 H 0.28033 0.88184 0.14727 0.0
H2008 H 0.26803 0.84572 0.10481 0.0
H2009 H 0.40091 0.96616 0.14263 0.0
H2010 H 0.26852 0.87541 0.13178 0.0
H2011 H 0.36444 0.9734 0.11594 0.0
C2012 C 0.33698 0.94102 0.10466 0.0
C2013 C 0.30996 0.90489 0.10131 0.0
C2014 C 0.29757 0.89528 0.13415 0.0
C2015 C 0.322 0.91381 0.11907 0.0
C2016 C 0.30427 0.89918 0.14299 0.0
C2017 C 0.34176 0.92456 0.14625 0.0
C2018 C 0.32817 0.91743 0.1285 0.0
C2019 C 0.37169 0.94611 0.1404 0.0
C2020 C 0.34332 0.94539 0.1135 0.0
C2021 C 0.28927 0.87396 0.1071 0.0
N2022 N 0.36413 0.94222 0.1318 0.0
N2023 N 0.29556 0.87925 0.11571 0.0
H2024 H 0.57114 0.86156 0.644 0.0
H2025 H 0.72183 0.92599 0.60293 0.0
H2026 H 0.66338 0.97886 0.6432 0.0
H2027 H 0.59458 0.84867 0.60102 0.0
H2028 H 0.70709 0.93743 0.61826 0.0
H2029 H 0.58383 0.84978 0.62859 0.0
C2030 C 0.59368 0.8851 0.64057 0.0
C2031 C 0.61628 0.92121 0.64488 0.0
C2032 C 0.68249 0.91788 0.61447 0.0
C2033 C 0.63164 0.90732 0.62736 0.0
C2034 C 0.69107 0.91097 0.60575 0.0
C2035 C 0.65928 0.88645 0.6007 0.0
C2036 C 0.6422 0.89962 0.61818 0.0
C2037 C 0.61988 0.86796 0.60468 0.0
C2038 C 0.60095 0.87829 0.63179 0.0
C2039 C 0.64514 0.95067 0.64013 0.0
N2040 N 0.61245 0.87486 0.6132 0.0
N2041 N 0.65239 0.94277 0.63163 0.0
H2042 H 0.77667 0.96486 0.35239 0.0
H2043 H 0.91191 0.88824 0.39487 0.0
H2044 H 0.92304 0.93595 0.35301 0.0
H2045 H 0.76384 0.90555 0.39365 0.0
H2046 H 0.91676 0.90537 0.37955 0.0
H2047 H 0.77171 0.94495 0.36759 0.0
C2048 C 0.80786 0.95461 0.35573 0.0
C2049 C 0.85036 0.95202 0.35141 0.0
C2050 C 0.88317 0.90516 0.38262 0.0
C2051 C 0.8448 0.92882 0.36882 0.0
C2052 C 0.88034 0.89523 0.39137 0.0
C2053 C 0.8374 0.89565 0.39556 0.0
C2054 C 0.84281 0.91583 0.37802 0.0
C2055 C 0.79768 0.90489 0.39068 0.0
C2056 C 0.80493 0.94301 0.36441 0.0
C2057 C 0.88957 0.93845 0.35608 0.0
N2058 N 0.80138 0.91491 0.38218 0.0
N2059 N 0.88582 0.9273 0.36453 0.0
H2060 H 0.75361 0.15231 0.10511 0.0
H2061 H 0.89338 0.00778 0.14014 0.0
H2062 H 0.84615 0.04072 0.09849 0.0
H2063 H 0.76306 0.07389 0.14576 0.0
H2064 H 0.8832 0.02776 0.12495 0.0
H2065 H 0.76329 0.13242 0.12035 0.0
C2066 C 0.77593 0.12377 0.10686 0.0
C2067 C 0.79892 0.09803 0.10054 0.0
C2068 C 0.85681 0.03768 0.12953 0.0
C2069 C 0.81052 0.07556 0.11785 0.0
C2070 C 0.86264 0.02635 0.13818 0.0
C2071 C 0.82896 0.039 0.1442 0.0
C2072 C 0.81747 0.06254 0.12694 0.0
C2073 C 0.78975 0.06314 0.14132 0.0
C2074 C 0.78132 0.11234 0.11553 0.0
C2075 C 0.82746 0.0613 0.10314 0.0
N2076 N 0.78523 0.07442 0.1329 0.0
N2077 N 0.83266 0.05134 0.1116 0.0
H2078 H 0.68932 0.00405 0.85175 0.0
H2079 H 0.58886 0.13069 0.8933 0.0
H2080 H 0.6059 0.12759 0.85043 0.0
H2081 H 0.71163 0.04596 0.89402 0.0
H2082 H 0.58634 0.12155 0.87768 0.0
H2083 H 0.68875 0.00981 0.86748 0.0
C2084 C 0.6705 0.03205 0.85477 0.0
C2085 C 0.6478 0.06554 0.8498 0.0
C2086 C 0.61386 0.10506 0.88127 0.0
C2087 C 0.64698 0.07221 0.8677 0.0
C2088 C 0.61532 0.11023 0.89017 0.0
C2089 C 0.6506 0.08919 0.89495 0.0
C2090 C 0.6475 0.07807 0.87714 0.0
C2091 C 0.68399 0.06302 0.89057 0.0
C2092 C 0.67047 0.03549 0.86372 0.0
C2093 C 0.6241 0.10122 0.85403 0.0
N2094 N 0.68148 0.05797 0.8819 0.0
N2095 N 0.62424 0.10359 0.86274 0.0
H2096 H 0.79448 0.60377 0.84771 0.0
H2097 H 0.82915 0.51639 0.89536 0.0
H2098 H 0.89006 0.49404 0.85383 0.0
H2099 H 0.79874 0.65939 0.88973 0.0
H2100 H 0.84082 0.50219 0.88004 0.0
H2101 H 0.78518 0.61951 0.86304 0.0
C2102 C 0.81343 0.58291 0.85229 0.0
C2103 C 0.84303 0.54745 0.84953 0.0
C2104 C 0.83166 0.53664 0.88217 0.0
C2105 C 0.83211 0.56505 0.86702 0.0
C2106 C 0.82463 0.54475 0.89089 0.0
C2107 C 0.81284 0.58917 0.8938 0.0
C2108 C 0.82594 0.57295 0.87631 0.0
C2109 C 0.80786 0.62469 0.88775 0.0
C2110 C 0.80828 0.59212 0.86102 0.0
C2111 C 0.86702 0.52174 0.85572 0.0
N2112 N 0.81407 0.61573 0.87925 0.0
N2113 N 0.86068 0.53075 0.86421 0.0
H2114 H 0.71014 0.53321 0.10029 0.0
H2115 H 0.64684 0.64723 0.14554 0.0
H2116 H 0.66942 0.67595 0.10334 0.0
H2117 H 0.67257 0.50128 0.14216 0.0
H2118 H 0.65655 0.65859 0.13014 0.0
H2119 H 0.69972 0.5215 0.11568 0.0
C2120 C 0.69927 0.56221 0.1042 0.0
C2121 C 0.6905 0.60565 0.10051 0.0
C2122 C 0.65988 0.62403 0.13275 0.0
C2123 C 0.67826 0.5923 0.11815 0.0
C2124 C 0.65427 0.61746 0.14155 0.0
C2125 C 0.65902 0.57322 0.14515 0.0
C2126 C 0.6706 0.58612 0.12749 0.0
C2127 C 0.66854 0.53596 0.13965 0.0
C2128 C 0.69313 0.55539 0.11299 0.0
C2129 C 0.67653 0.64189 0.1059 0.0
N2130 N 0.67427 0.54331 0.13109 0.0
N2131 N 0.67076 0.63436 0.11445 0.0
H2132 H 0.59439 0.34273 0.39302 0.0
H2133 H 0.68084 0.49645 0.35366 0.0
H2134 H 0.70744 0.43941 0.39526 0.0
H2135 H 0.61259 0.3649 0.35035 0.0
H2136 H 0.6816 0.48345 0.36925 0.0
H2137 H 0.59232 0.35699 0.37753 0.0
C2138 C 0.6189 0.3668 0.39024 0.0
C2139 C 0.65121 0.38983 0.39541 0.0
C2140 C 0.66639 0.45757 0.36509 0.0
C2141 C 0.64848 0.40686 0.37777 0.0
C2142 C 0.66562 0.46511 0.35622 0.0
C2143 C 0.64676 0.4316 0.35073 0.0
C2144 C 0.64749 0.41665 0.36845 0.0
C2145 C 0.62772 0.39149 0.35436 0.0
C2146 C 0.61769 0.37491 0.38142 0.0
C2147 C 0.68216 0.4207 0.39149 0.0
N2148 N 0.62846 0.38517 0.363 0.0
N2149 N 0.6798 0.42862 0.38289 0.0
H2150 H 0.78768 0.40033 0.64413 0.0
H2151 H 0.86698 0.46455 0.59747 0.0
H2152 H 0.91704 0.47116 0.63997 0.0
H2153 H 0.8048 0.33174 0.60261 0.0
H2154 H 0.87565 0.477 0.61294 0.0
H2155 H 0.78316 0.38397 0.62871 0.0
C2156 C 0.81501 0.41262 0.63995 0.0
C2157 C 0.85275 0.43728 0.64328 0.0
C2158 C 0.86027 0.44513 0.61066 0.0
C2159 C 0.84739 0.41915 0.62573 0.0
C2160 C 0.85498 0.43811 0.60187 0.0
C2161 C 0.83499 0.3971 0.5988 0.0
C2162 C 0.84434 0.41146 0.61641 0.0
C2163 C 0.82043 0.36375 0.60475 0.0
C2164 C 0.81253 0.40296 0.6312 0.0
C2165 C 0.88746 0.45201 0.63763 0.0
N2166 N 0.82485 0.37191 0.61331 0.0
N2167 N 0.88368 0.44322 0.62908 0.0
H2168 H 0.21835 0.39496 0.14829 0.0
H2169 H 0.14704 0.45586 0.10043 0.0
H2170 H 0.07929 0.43497 0.14156 0.0
H2171 H 0.25037 0.35245 0.10599 0.0
H2172 H 0.12913 0.46076 0.11575 0.0
H2173 H 0.23784 0.39127 0.13299 0.0
C2174 C 0.192 0.40329 0.14359 0.0
C2175 C 0.14708 0.41531 0.14619 0.0
C2176 C 0.15574 0.43706 0.11361 0.0
C2177 C 0.16938 0.41149 0.12874 0.0
C2178 C 0.16623 0.4344 0.10488 0.0
C2179 C 0.20028 0.40363 0.10194 0.0
C2180 C 0.18006 0.40946 0.11946 0.0
C2181 C 0.22378 0.37647 0.108 0.0
C2182 C 0.20312 0.40087 0.13489 0.0
C2183 C 0.11425 0.42542 0.13983 0.0
N2184 N 0.21344 0.38023 0.1165 0.0
N2185 N 0.12614 0.4236 0.13139 0.0
H2186 H 0.30504 0.45887 0.85048 0.0
H2187 H 0.39555 0.34643 0.89406 0.0
H2188 H 0.38762 0.33463 0.85118 0.0
H2189 H 0.272 0.42986 0.89305 0.0
H2190 H 0.4 0.34898 0.87839 0.0
H2191 H 0.29999 0.45678 0.86622 0.0
C2192 C 0.32238 0.43141 0.85395 0.0
C2193 C 0.34672 0.39681 0.84953 0.0
C2194 C 0.37181 0.36654 0.8816 0.0
C2195 C 0.34119 0.39435 0.86745 0.0
C2196 C 0.36925 0.36514 0.89054 0.0
C2197 C 0.33329 0.38787 0.89486 0.0
C2198 C 0.33863 0.39154 0.87694 0.0
C2199 C 0.30014 0.41161 0.88996 0.0
C2200 C 0.31921 0.43006 0.86291 0.0
C2201 C 0.36834 0.36188 0.85432 0.0
N2202 N 0.30381 0.41317 0.88125 0.0
N2203 N 0.36523 0.36164 0.86303 0.0
H2204 H 0.36101 0.53777 0.59937 0.0
H2205 H 0.29014 0.61635 0.6461 0.0
H2206 H 0.29884 0.67135 0.60372 0.0
H2207 H 0.41826 0.54398 0.64161 0.0
H2208 H 0.28065 0.62577 0.63054 0.0
H2209 H 0.37013 0.52825 0.61493 0.0
C2210 C 0.34894 0.56492 0.6036 0.0
C2211 C 0.32913 0.60545 0.60027 0.0
C2212 C 0.31076 0.60782 0.63299 0.0
C2213 C 0.33894 0.59439 0.618 0.0
C2214 C 0.3161 0.60217 0.64184 0.0
C2215 C 0.35509 0.57936 0.64513 0.0
C2216 C 0.34399 0.58945 0.6274 0.0
C2217 C 0.38784 0.56194 0.63932 0.0
C2218 C 0.35445 0.55955 0.61245 0.0
C2219 C 0.31443 0.63969 0.60604 0.0
N2220 N 0.38134 0.56694 0.63072 0.0
N2221 N 0.31922 0.63321 0.61465 0.0
H2222 H 0.13564 0.53594 0.39629 0.0
H2223 H 0.1989 0.61668 0.34928 0.0
H2224 H 0.20091 0.66795 0.39182 0.0
H2225 H 0.06994 0.54728 0.35453 0.0
H2226 H 0.21223 0.62405 0.36478 0.0
H2227 H 0.12331 0.52775 0.38079 0.0
C2228 C 0.14773 0.56301 0.39204 0.0
C2229 C 0.16933 0.60273 0.39532 0.0
C2230 C 0.18111 0.60717 0.36251 0.0
C2231 C 0.15583 0.59318 0.37765 0.0
C2232 C 0.17358 0.60266 0.3537 0.0
C2233 C 0.13321 0.58134 0.35065 0.0
C2234 C 0.14865 0.58915 0.36829 0.0
C2235 C 0.10138 0.5641 0.35664 0.0
C2236 C 0.14039 0.5584 0.38322 0.0
C2237 C 0.18398 0.63691 0.38953 0.0
N2238 N 0.10998 0.56799 0.3652 0.0
N2239 N 0.17733 0.63118 0.38095 0.0
H2240 H 0.37273 0.9037 0.23165 0.0
H2241 H 0.33791 0.11727 0.26346 0.0
H2242 H 0.31811 0.03708 0.22466 0.0
H2243 H 0.36916 0.97965 0.27234 0.0
H2244 H 0.35216 0.09236 0.24873 0.0
H2245 H 0.39156 0.93441 0.24602 0.0
C2246 C 0.36576 0.93967 0.2331 0.0
C2247 C 0.34344 0.96794 0.22709 0.0
C2248 C 0.3568 0.06766 0.25389 0.0
C2249 C 0.36468 0.00308 0.24331 0.0
C2250 C 0.34885 0.08198 0.26229 0.0
C2251 C 0.35234 0.05041 0.26907 0.0
C2252 C 0.36717 0.02104 0.25222 0.0
C2253 C 0.36658 0.00508 0.26726 0.0
C2254 C 0.37629 0.9571 0.24128 0.0
C2255 C 0.33483 0.01416 0.2292 0.0
N2256 N 0.37266 0.9914 0.25896 0.0
N2257 N 0.34515 0.03017 0.23715 0.0
H2258 H 0.3011 0.09297 0.52208 0.0
H2259 H 0.19965 0.08719 0.47424 0.0
H2260 H 0.16031 0.05659 0.51612 0.0
H2261 H 0.34051 0.05264 0.48049 0.0
H2262 H 0.18513 0.10374 0.48952 0.0
H2263 H 0.31563 0.10582 0.50669 0.0
C2264 C 0.27299 0.08904 0.51755 0.0
C2265 C 0.22952 0.07374 0.5203 0.0
C2266 C 0.21946 0.09358 0.48749 0.0
C2267 C 0.24568 0.08825 0.50284 0.0
C2268 C 0.22778 0.0845 0.4788 0.0
C2269 C 0.27126 0.06859 0.47619 0.0
C2270 C 0.25512 0.08725 0.49351 0.0
C2271 C 0.3065 0.06476 0.48232 0.0
C2272 C 0.28132 0.09604 0.5088 0.0
C2273 C 0.19434 0.06823 0.51419 0.0
N2274 N 0.29764 0.07382 0.49072 0.0
N2275 N 0.20319 0.07532 0.50573 0.0
H2276 H 0.12894 0.03206 0.77301 0.0
H2277 H 0.1211 0.97032 0.72296 0.0
H2278 H 0.15279 0.89571 0.76275 0.0
H2279 H 0.15544 0.10512 0.73291 0.0
H2280 H 0.10541 0.94388 0.73765 0.0
H2281 H 0.1112 0.05967 0.75845 0.0
C2282 C 0.12878 0.00766 0.76773 0.0
C2283 C 0.14214 0.96162 0.76902 0.0
C2284 C 0.11529 0.97955 0.73658 0.0
C2285 C 0.12265 0.9928 0.75246 0.0
C2286 C 0.12378 0.99474 0.72821 0.0
C2287 C 0.13937 0.03996 0.72677 0.0
C2288 C 0.12221 0.00994 0.74351 0.0
C2289 C 0.14362 0.06991 0.7338 0.0
C2290 C 0.11915 0.02346 0.75943 0.0
C2291 C 0.14266 0.93152 0.76197 0.0
N2292 N 0.13537 0.05431 0.74189 0.0
N2293 N 0.13339 0.94769 0.75396 0.0
H2294 H 0.18471 0.94574 0.02184 0.0
H2295 H 0.25972 0.86075 0.97511 0.0
H2296 H 0.31277 0.87416 0.01702 0.0
H2297 H 0.14491 0.95078 0.98065 0.0
H2298 H 0.271 0.84898 0.99064 0.0
H2299 H 0.16076 0.9306 0.00712 0.0
C2300 C 0.20755 0.92625 0.01768 0.0
C2301 C 0.25094 0.9116 0.02059 0.0
C2302 C 0.24274 0.87047 0.98844 0.0
C2303 C 0.22424 0.89492 0.00364 0.0
C2304 C 0.23609 0.87684 0.97961 0.0
C2305 C 0.20125 0.9066 0.97668 0.0
C2306 C 0.21419 0.89403 0.99429 0.0
C2307 C 0.17216 0.92759 0.98269 0.0
C2308 C 0.19391 0.91762 0.00927 0.0
C2309 C 0.27901 0.88597 0.01499 0.0
N2310 N 0.17944 0.92112 0.99121 0.0
N2311 N 0.26551 0.87908 0.0067 0.0
H2312 H 0.63372 -0.00173 0.76882 0.0
H2313 H 0.75594 0.0513 0.72383 0.0
H2314 H 0.76402 0.06879 0.76588 0.0
H2315 H 0.63496 0.96503 0.72618 0.0
H2316 H 0.75107 0.06904 0.73909 0.0
H2317 H 0.62545 0.99653 0.75311 0.0
C2318 C 0.65997 0.01436 0.76486 0.0
C2319 C 0.69939 0.03412 0.7686 0.0
C2320 C 0.72519 0.04664 0.73627 0.0
C2321 C 0.69074 0.03148 0.75074 0.0
C2322 C 0.72797 0.0365 0.72755 0.0
C2323 C 0.6958 0.00669 0.72374 0.0
C2324 C 0.69031 0.02631 0.74127 0.0
C2325 C 0.66009 0.98871 0.72884 0.0
C2326 C 0.65547 0.01301 0.75592 0.0
C2327 C 0.73311 0.05327 0.76322 0.0
N2328 N 0.65856 -0.00159 0.73739 0.0
N2329 N 0.72808 0.05136 0.75457 0.0
H2330 H 0.72588 0.00929 0.4773 0.0
H2331 H 0.71823 0.87184 0.52025 0.0
H2332 H 0.78673 0.87278 0.47693 0.0
H2333 H 0.77185 0.01117 0.5187 0.0
H2334 H 0.72551 0.86537 0.50461 0.0
H2335 H 0.72029 0.00451 0.49285 0.0
C2336 C 0.73751 0.97796 0.48044 0.0
C2337 C 0.75685 0.9414 0.47572 0.0
C2338 C 0.73623 0.89691 0.50779 0.0
C2339 C 0.74992 0.93579 0.49357 0.0
C2340 C 0.73262 0.90061 0.51674 0.0
C2341 C 0.74484 0.94208 0.52089 0.0
C2342 C 0.75075 0.93534 0.50302 0.0
C2343 C 0.76158 0.97865 0.51583 0.0
C2344 C 0.7343 0.9754 0.48932 0.0
C2345 C 0.77078 0.9015 0.48022 0.0
N2346 N 0.76337 0.97465 0.50718 0.0
N2347 N 0.76712 0.89974 0.48894 0.0
H2348 H 0.85117 0.93366 0.27021 0.0
H2349 H 0.84623 0.07321 0.22588 0.0
H2350 H 0.8215 0.07943 0.2683 0.0
H2351 H 0.82261 0.92638 0.22792 0.0
H2352 H 0.86095 0.07616 0.24139 0.0
H2353 H 0.86448 0.93137 0.25466 0.0
C2354 C 0.84874 0.9654 0.26655 0.0
C2355 C 0.83539 0.00684 0.2705 0.0
C2356 C 0.85344 0.04318 0.2384 0.0
C2357 C 0.84987 0.00438 0.2528 0.0
C2358 C 0.84545 0.04143 0.22956 0.0
C2359 C 0.83334 -0.00055 0.22566 0.0
C2360 C 0.84946 0.00264 0.24331 0.0
C2361 C 0.8317 0.95941 0.23073 0.0
C2362 C 0.85593 0.96401 0.25769 0.0
C2363 C 0.83159 0.0468 0.26545 0.0
N2364 N 0.83943 0.96199 0.23931 0.0
N2365 N 0.83858 0.04457 0.25684 0.0
H2366 H 0.70475 0.14094 0.97664 0.0
H2367 H 0.86109 0.04563 0.0149 0.0
H2368 H 0.80123 0.02778 0.97484 0.0
H2369 H 0.7505 0.14308 0.01879 0.0
H2370 H 0.85331 0.05546 -0.00059 0.0
H2371 H 0.73355 0.15746 0.9912 0.0
C2372 C 0.73273 0.12038 0.97924 0.0
C2373 C 0.75045 0.08271 0.97462 0.0
C2374 C 0.83122 0.07547 0.00362 0.0
C2375 C 0.78326 0.10111 0.99114 0.0
C2376 C 0.83589 0.07001 0.01245 0.0
C2377 C 0.80635 0.09357 0.01805 0.0
C2378 C 0.79587 0.10379 0.00036 0.0
C2379 C 0.77408 0.12462 0.01462 0.0
C2380 C 0.74896 0.12962 0.98754 0.0
C2381 C 0.78627 0.05675 0.97826 0.0
N2382 N 0.76903 0.12825 0.00595 0.0
N2383 N 0.80124 0.06623 0.98631 0.0
H2384 H 0.81996 0.41598 0.76803 0.0
H2385 H 0.85876 0.54713 0.72342 0.0
H2386 H 0.86093 0.55914 0.76655 0.0
H2387 H 0.78445 0.4192 0.72665 0.0
H2388 H 0.879 0.54549 0.73881 0.0
H2389 H 0.82784 0.40973 0.75248 0.0
C2390 C 0.8315 0.44588 0.76442 0.0
C2391 C 0.83959 0.48816 0.76854 0.0
C2392 C 0.85894 0.51745 0.7361 0.0
C2393 C 0.84764 0.48166 0.75073 0.0
C2394 C 0.8476 0.51832 0.72735 0.0
C2395 C 0.81983 0.48334 0.72387 0.0
C2396 C 0.84261 0.48108 0.74127 0.0
C2397 C 0.80571 0.4469 0.72916 0.0
C2398 C 0.83587 0.44237 0.75555 0.0
C2399 C 0.85473 0.52582 0.7636 0.0
N2400 N 0.8171 0.4468 0.7376 0.0
N2401 N 0.85757 0.52193 0.7549 0.0
H2402 H 0.70434 0.61838 0.97389 0.0
H2403 H 0.81485 0.57881 0.02013 0.0
H2404 H 0.83999 0.56309 0.9788 0.0
H2405 H 0.67301 0.61958 0.01647 0.0
H2406 H 0.82981 0.59302 0.00496 0.0
H2407 H 0.69717 0.63787 0.98924 0.0
C2408 C 0.73303 0.61164 0.97818 0.0
C2409 C 0.77271 0.58904 0.97518 0.0
C2410 C 0.79549 0.5996 0.00745 0.0
C2411 C 0.76481 0.61053 0.99259 0.0
C2412 C 0.78704 0.59155 0.01611 0.0
C2413 C 0.7426 0.59761 0.01947 0.0
C2414 C 0.7589 0.61264 0.00204 0.0
C2415 C 0.70774 0.61451 0.01406 0.0
C2416 C 0.72889 0.62246 0.98691 0.0
C2417 C 0.80878 0.58032 0.98093 0.0
N2418 N 0.71638 0.6206 0.00553 0.0
N2419 N 0.80383 0.59073 0.98936 0.0
H2420 H 0.72554 0.4315 0.22589 0.0
H2421 H 0.62511 0.53073 0.27005 0.0
H2422 H 0.6403 0.55377 0.22707 0.0
H2423 H 0.74097 0.43779 0.26796 0.0
H2424 H 0.61621 0.52837 0.25431 0.0
H2425 H 0.71666 0.42181 0.24134 0.0
C2426 C 0.70447 0.45605 0.2294 0.0
C2427 C 0.68371 0.49355 0.2252 0.0
C2428 C 0.64311 0.50803 0.25733 0.0
C2429 C 0.67374 0.48292 0.24291 0.0
C2430 C 0.64797 0.50914 0.26627 0.0
C2431 C 0.68368 0.48424 0.27021 0.0
C2432 C 0.67403 0.48155 0.25241 0.0
C2433 C 0.71306 0.45746 0.2651 0.0
C2434 C 0.69941 0.45049 0.23821 0.0
C2435 C 0.6564 0.52405 0.23003 0.0
N2436 N 0.70762 0.45685 0.25646 0.0
N2437 N 0.65255 0.51835 0.23868 0.0
H2438 H 0.78054 0.37607 0.47231 0.0
H2439 H 0.71822 0.38305 0.52223 0.0
H2440 H 0.64457 0.40502 0.48225 0.0
H2441 H 0.853 0.41348 0.51189 0.0
H2442 H 0.69179 0.36209 0.50777 0.0
H2443 H 0.80735 0.36062 0.48698 0.0
C2444 C 0.75599 0.3775 0.47755 0.0
C2445 C 0.71034 0.39164 0.47613 0.0
C2446 C 0.72747 0.37219 0.50872 0.0
C2447 C 0.74071 0.37486 0.49282 0.0
C2448 C 0.74262 0.38372 0.51696 0.0
C2449 C 0.78776 0.39986 0.51818 0.0
C2450 C 0.75788 0.37667 0.50174 0.0
C2451 C 0.81783 0.40133 0.51114 0.0
C2452 C 0.77136 0.36914 0.4859 0.0
C2453 C 0.68011 0.39433 0.48314 0.0
N2454 N 0.80226 0.39023 0.50318 0.0
N2455 N 0.69591 0.38638 0.49122 0.0
H2456 H 0.13474 0.3845 0.23459 0.0
H2457 H 0.14213 0.61034 0.2624 0.0
H2458 H 0.11744 0.52009 0.22357 0.0
H2459 H 0.1165 0.47614 0.27346 0.0
H2460 H 0.12519 0.57884 0.24817 0.0
H2461 H 0.11987 0.41687 0.24884 0.0
C2462 C 0.12652 0.42092 0.23517 0.0
C2463 C 0.12685 0.44964 0.22792 0.0
C2464 C 0.12211 0.55647 0.25372 0.0
C2465 C 0.11131 0.48728 0.2442 0.0
C2466 C 0.13179 0.57445 0.26183 0.0
C2467 C 0.13032 0.54584 0.26909 0.0
C2468 C 0.1122 0.50916 0.25283 0.0
C2469 C 0.11715 0.49954 0.26804 0.0
C2470 C 0.11809 0.43942 0.2433 0.0
C2471 C 0.11658 0.49665 0.22899 0.0
N2472 N 0.10941 0.48239 0.26003 0.0
N2473 N 0.11006 0.5142 0.23701 0.0
H2474 H 0.18878 0.46939 0.97478 0.0
H2475 H 0.26689 0.37076 0.02052 0.0
H2476 H 0.30937 0.38354 0.97808 0.0
H2477 H 0.16699 0.47916 0.01659 0.0
H2478 H 0.27241 0.36064 0.00483 0.0
H2479 H 0.16979 0.45847 0.98987 0.0
C2480 C 0.21107 0.44783 0.97869 0.0
C2481 C 0.25085 0.42758 0.9752 0.0
C2482 C 0.24867 0.38599 0.00742 0.0
C2483 C 0.22964 0.41532 0.99255 0.0
C2484 C 0.24527 0.39147 0.01634 0.0
C2485 C 0.21636 0.42571 0.01976 0.0
C2486 C 0.22273 0.41489 0.00199 0.0
C2487 C 0.18967 0.4524 0.01415 0.0
C2488 C 0.20018 0.44154 0.98731 0.0
C2489 C 0.27819 0.39948 0.98051 0.0
N2490 N 0.19365 0.44657 0.00554 0.0
N2491 N 0.26739 0.39462 0.98898 0.0
H2492 H 0.34666 0.453 0.72163 0.0
H2493 H 0.37632 0.50714 0.77169 0.0
H2494 H 0.33993 0.5899 0.73249 0.0
H2495 H 0.31394 0.38226 0.76201 0.0
H2496 H 0.39125 0.53199 0.75687 0.0
H2497 H 0.36266 0.4217 0.73603 0.0
C2498 C 0.35009 0.47652 0.72701 0.0
C2499 C 0.34218 0.52396 0.72595 0.0
C2500 C 0.37541 0.49861 0.75801 0.0
C2501 C 0.36015 0.48877 0.74228 0.0
C2502 C 0.36733 0.48426 0.76644 0.0
C2503 C 0.34428 0.4425 0.76801 0.0
C2504 C 0.36057 0.47076 0.75116 0.0
C2505 C 0.33194 0.41465 0.76101 0.0
C2506 C 0.35882 0.4587 0.7352 0.0
C2507 C 0.34588 0.55308 0.73311 0.0
N2508 N 0.34004 0.42937 0.75286 0.0
N2509 N 0.35443 0.535 0.741 0.0
H2510 H 0.14692 0.57417 0.48236 0.0
H2511 H 0.35856 0.57722 0.51299 0.0
H2512 H 0.28391 0.6035 0.47298 0.0
H2513 H 0.22137 0.60728 0.52218 0.0
H2514 H 0.33287 0.59302 0.49831 0.0
H2515 H 0.17263 0.59233 0.49695 0.0
C2516 C 0.18218 0.58556 0.48338 0.0
C2517 C 0.21339 0.58759 0.47651 0.0
C2518 C 0.30863 0.59741 0.50355 0.0
C2519 C 0.24341 0.60705 0.49315 0.0
C2520 C 0.32328 0.58836 0.51191 0.0
C2521 C 0.292 0.59123 0.51875 0.0
C2522 C 0.26198 0.6079 0.50201 0.0
C2523 C 0.2466 0.60534 0.51706 0.0
C2524 C 0.19683 0.596 0.49168 0.0
C2525 C 0.25874 0.60215 0.47811 0.0
N2526 N 0.23263 0.61224 0.50882 0.0
N2527 N 0.27272 0.61044 0.48631 0.0
loop_
_geom_bond_atom_site_label_1
_geom_bond_atom_site_label_2
_geom_bond_distance
_geom_bond_site_symmetry_2
_ccdc_geom_bond_type
Co0 O3 1.970 . S
Co0 N17 1.989 . S
Co0 O25 1.967 . S
Co0 O32 1.920 . S
Co1 O4 1.966 . S
Co1 N10 2.022 . S
Co1 N18 1.993 . S
Co1 O26 1.941 . S
C2 O3 1.258 . S
C2 O4 1.263 . S
O3 Co0 1.970 . S
O3 C2 1.258 . S
O4 Co1 1.966 . S
O4 C2 1.263 . S
C5 O6 1.235 . S
C5 O32 1.289 . S
O6 C5 1.235 . S
C7 C9 1.400 . S
C7 N10 1.351 . S
C7 C12 1.501 . S
C8 C9 1.387 . S
C8 N11 1.341 . S
C9 C7 1.400 . S
C9 C8 1.387 . S
N10 Co1 2.022 . S
N10 C7 1.351 . S
N10 N11 1.365 . S
N11 C8 1.341 . S
N11 N10 1.365 . S
N11 H31 0.862 . S
C12 C7 1.501 . S
C12 H13 0.961 . S
C12 H14 0.961 . S
C12 H15 0.960 . S
H13 C12 0.961 . S
H14 C12 0.961 . S
H15 C12 0.960 . S
C16 N17 1.342 1_565 S
C16 C20 1.401 . S
C16 C21 1.499 . S
N17 Co0 1.989 . S
N17 C16 1.342 1_545 S
N17 N18 1.388 . S
N18 Co1 1.993 . S
N18 N17 1.388 . S
N18 C19 1.346 1_545 S
C19 N18 1.346 1_565 S
C19 C20 1.396 . S
C19 C29 1.510 . S
C20 C16 1.401 . S
C20 C19 1.396 . S
C21 C16 1.499 . S
C21 H22 0.959 1_565 S
C21 H23 0.960 . S
C21 H24 0.961 . S
H22 C21 0.959 1_545 S
H23 C21 0.960 . S
H24 C21 0.961 . S
O25 Co0 1.967 . S
O25 C33 1.258 . S
O26 Co1 1.941 . S
O26 C33 1.266 . S
H27 C29 0.959 . S
H28 C29 0.961 . S
C29 C19 1.510 . S
C29 H27 0.959 . S
C29 H28 0.961 . S
C29 H30 0.960 . S
H30 C29 0.960 . S
H31 N11 0.862 . S
O32 Co0 1.920 . S
O32 C5 1.289 . S
C33 O25 1.258 . S
C33 O26 1.266 . S
Co34 O37 1.970 . S
Co34 N51 1.989 . S
Co34 O59 1.967 . S
Co34 O66 1.920 . S
Co35 O38 1.966 . S
Co35 N44 2.022 . S
Co35 N52 1.993 . S
Co35 O60 1.941 . S
C36 O37 1.258 . S
C36 O38 1.263 . S
O37 Co34 1.970 . S
O37 C36 1.258 . S
O38 Co35 1.966 . S
O38 C36 1.263 . S
C39 O40 1.235 . S
C39 O66 1.289 . S
O40 C39 1.235 . S
C41 C43 1.400 . S
C41 N44 1.351 . S
C41 C46 1.501 . S
C42 C43 1.387 . S
C42 N45 1.341 . S
C43 C41 1.400 . S
C43 C42 1.387 . S
N44 Co35 2.022 . S
N44 C41 1.351 . S
N44 N45 1.365 . S
N45 C42 1.341 . S
N45 N44 1.365 . S
N45 H65 0.862 . S
C46 C41 1.501 . S
C46 H47 0.961 . S
C46 H48 0.961 . S
C46 H49 0.960 . S
H47 C46 0.961 . S
H48 C46 0.961 . S
H49 C46 0.960 . S
C50 N51 1.342 . S
C50 C54 1.401 . S
C50 C55 1.499 . S
N51 Co34 1.989 . S
N51 C50 1.342 . S
N51 N52 1.388 . S
N52 Co35 1.993 . S
N52 N51 1.388 . S
N52 C53 1.346 . S
C53 N52 1.346 . S
C53 C54 1.396 . S
C53 C63 1.510 . S
C54 C50 1.401 . S
C54 C53 1.396 . S
C55 C50 1.499 . S
C55 H56 0.959 . S
C55 H57 0.960 . S
C55 H58 0.961 . S
H56 C55 0.959 . S
H57 C55 0.960 . S
H58 C55 0.961 . S
O59 Co34 1.967 . S
O59 C67 1.258 . S
O60 Co35 1.941 . S
O60 C67 1.266 . S
H61 C63 0.959 . S
H62 C63 0.961 . S
C63 C53 1.510 . S
C63 H61 0.959 . S
C63 H62 0.961 . S
C63 H64 0.960 . S
H64 C63 0.960 . S
H65 N45 0.862 . S
O66 Co34 1.920 . S
O66 C39 1.289 . S
C67 O59 1.258 . S
C67 O60 1.266 . S
Co68 O71 1.970 . S
Co68 N85 1.989 . S
Co68 O93 1.967 . S
Co68 O100 1.920 . S
Co69 O72 1.966 . S
Co69 N78 2.022 . S
Co69 N86 1.993 . S
Co69 O94 1.941 . S
C70 O71 1.258 . S
C70 O72 1.263 . S
O71 Co68 1.970 . S
O71 C70 1.258 . S
O72 Co69 1.966 . S
O72 C70 1.263 . S
C73 O74 1.235 . S
C73 O100 1.289 . S
O74 C73 1.235 . S
C75 C77 1.400 . S
C75 N78 1.351 . S
C75 C80 1.501 . S
C76 C77 1.387 . S
C76 N79 1.341 . S
C77 C75 1.400 . S
C77 C76 1.387 . S
N78 Co69 2.022 . S
N78 C75 1.351 . S
N78 N79 1.365 . S
N79 C76 1.341 . S
N79 N78 1.365 . S
N79 H99 0.862 . S
C80 C75 1.501 . S
C80 H81 0.961 . S
C80 H82 0.961 . S
C80 H83 0.960 . S
H81 C80 0.961 . S
H82 C80 0.961 . S
H83 C80 0.960 . S
C84 N85 1.342 1_545 S
C84 C88 1.401 . S
C84 C89 1.499 . S
N85 Co68 1.989 . S
N85 C84 1.342 1_565 S
N85 N86 1.388 . S
N86 Co69 1.993 . S
N86 N85 1.388 . S
N86 C87 1.346 1_565 S
C87 N86 1.346 1_545 S
C87 C88 1.396 . S
C87 C97 1.510 . S
C88 C84 1.401 . S
C88 C87 1.396 . S
C89 C84 1.499 . S
C89 H90 0.959 1_545 S
C89 H91 0.960 . S
C89 H92 0.961 . S
H90 C89 0.959 1_565 S
H91 C89 0.960 . S
H92 C89 0.961 . S
O93 Co68 1.967 . S
O93 C101 1.258 . S
O94 Co69 1.941 . S
O94 C101 1.266 . S
H95 C97 0.959 . S
H96 C97 0.961 . S
C97 C87 1.510 . S
C97 H95 0.959 . S
C97 H96 0.961 . S
C97 H98 0.960 . S
H98 C97 0.960 . S
H99 N79 0.862 . S
O100 Co68 1.920 . S
O100 C73 1.289 . S
C101 O93 1.258 . S
C101 O94 1.266 . S
Co102 O105 1.970 . S
Co102 N119 1.989 . S
Co102 O127 1.967 . S
Co102 O134 1.920 . S
Co103 O106 1.966 . S
Co103 N112 2.022 . S
Co103 N120 1.993 . S
Co103 O128 1.941 . S
C104 O105 1.258 . S
C104 O106 1.263 . S
O105 Co102 1.970 . S
O105 C104 1.258 . S
O106 Co103 1.966 . S
O106 C104 1.263 . S
C107 O108 1.235 . S
C107 O134 1.289 . S
O108 C107 1.235 . S
C109 C111 1.400 . S
C109 N112 1.351 . S
C109 C114 1.501 . S
C110 C111 1.387 . S
C110 N113 1.341 . S
C111 C109 1.400 . S
C111 C110 1.387 . S
N112 Co103 2.022 . S
N112 C109 1.351 . S
N112 N113 1.365 . S
N113 C110 1.341 . S
N113 N112 1.365 . S
N113 H133 0.862 . S
C114 C109 1.501 . S
C114 H115 0.961 . S
C114 H116 0.961 . S
C114 H117 0.960 . S
H115 C114 0.961 . S
H116 C114 0.961 . S
H117 C114 0.960 . S
C118 N119 1.342 . S
C118 C122 1.401 . S
C118 C123 1.499 . S
N119 Co102 1.989 . S
N119 C118 1.342 . S
N119 N120 1.388 . S
N120 Co103 1.993 . S
N120 N119 1.388 . S
N120 C121 1.346 . S
C121 N120 1.346 . S
C121 C122 1.396 . S
C121 C131 1.510 . S
C122 C118 1.401 . S
C122 C121 1.396 . S
C123 C118 1.499 . S
C123 H124 0.959 . S
C123 H125 0.960 . S
C123 H126 0.961 . S
H124 C123 0.959 . S
H125 C123 0.960 . S
H126 C123 0.961 . S
O127 Co102 1.967 . S
O127 C135 1.258 . S
O128 Co103 1.941 . S
O128 C135 1.266 . S
H129 C131 0.959 . S
H130 C131 0.961 . S
C131 C121 1.510 . S
C131 H129 0.959 . S
C131 H130 0.961 . S
C131 H132 0.960 . S
H132 C131 0.960 . S
H133 N113 0.862 . S
O134 Co102 1.920 . S
O134 C107 1.289 . S
C135 O127 1.258 . S
C135 O128 1.266 . S
Co136 O139 1.970 . S
Co136 N153 1.989 . S
Co136 O161 1.967 . S
Co136 O168 1.920 . S
Co137 O140 1.966 . S
Co137 N146 2.022 . S
Co137 N154 1.993 . S
Co137 O162 1.941 . S
C138 O139 1.258 . S
C138 O140 1.263 . S
O139 Co136 1.970 . S
O139 C138 1.258 . S
O140 Co137 1.966 . S
O140 C138 1.263 . S
C141 O142 1.235 . S
C141 O168 1.289 . S
O142 C141 1.235 . S
C143 C145 1.400 . S
C143 N146 1.351 . S
C143 C148 1.501 . S
C144 C145 1.387 . S
C144 N147 1.341 . S
C145 C143 1.400 . S
C145 C144 1.387 . S
N146 Co137 2.022 . S
N146 C143 1.351 . S
N146 N147 1.365 . S
N147 C144 1.341 . S
N147 N146 1.365 . S
N147 H167 0.862 . S
C148 C143 1.501 . S
C148 H149 0.961 . S
C148 H150 0.961 . S
C148 H151 0.960 . S
H149 C148 0.961 . S
H150 C148 0.961 . S
H151 C148 0.960 . S
C152 N153 1.342 1_545 S
C152 C156 1.401 . S
C152 C157 1.499 . S
N153 Co136 1.989 . S
N153 C152 1.342 1_565 S
N153 N154 1.388 . S
N154 Co137 1.993 . S
N154 N153 1.388 . S
N154 C155 1.346 1_565 S
C155 N154 1.346 1_545 S
C155 C156 1.396 . S
C155 C165 1.510 . S
C156 C152 1.401 . S
C156 C155 1.396 . S
C157 C152 1.499 . S
C157 H158 0.959 1_545 S
C157 H159 0.960 . S
C157 H160 0.961 . S
H158 C157 0.959 1_565 S
H159 C157 0.960 . S
H160 C157 0.961 . S
O161 Co136 1.967 . S
O161 C169 1.258 . S
O162 Co137 1.941 . S
O162 C169 1.266 . S
H163 C165 0.959 . S
H164 C165 0.961 . S
C165 C155 1.510 . S
C165 H163 0.959 . S
C165 H164 0.961 . S
C165 H166 0.960 . S
H166 C165 0.960 . S
H167 N147 0.862 . S
O168 Co136 1.920 . S
O168 C141 1.289 . S
C169 O161 1.258 . S
C169 O162 1.266 . S
Co170 O173 1.970 . S
Co170 N187 1.989 . S
Co170 O195 1.967 . S
Co170 O202 1.920 . S
Co171 O174 1.966 . S
Co171 N180 2.022 . S
Co171 N188 1.993 . S
Co171 O196 1.941 . S
C172 O173 1.258 . S
C172 O174 1.263 . S
O173 Co170 1.970 . S
O173 C172 1.258 . S
O174 Co171 1.966 . S
O174 C172 1.263 . S
C175 O176 1.235 . S
C175 O202 1.289 . S
O176 C175 1.235 . S
C177 C179 1.400 . S
C177 N180 1.351 . S
C177 C182 1.501 . S
C178 C179 1.387 . S
C178 N181 1.341 . S
C179 C177 1.400 . S
C179 C178 1.387 . S
N180 Co171 2.022 . S
N180 C177 1.351 . S
N180 N181 1.365 . S
N181 C178 1.341 . S
N181 N180 1.365 . S
N181 H201 0.862 . S
C182 C177 1.501 . S
C182 H183 0.961 . S
C182 H184 0.961 . S
C182 H185 0.960 . S
H183 C182 0.961 . S
H184 C182 0.961 . S
H185 C182 0.960 . S
C186 N187 1.342 . S
C186 C190 1.401 . S
C186 C191 1.499 . S
N187 Co170 1.989 . S
N187 C186 1.342 . S
N187 N188 1.388 . S
N188 Co171 1.993 . S
N188 N187 1.388 . S
N188 C189 1.346 . S
C189 N188 1.346 . S
C189 C190 1.396 . S
C189 C199 1.510 . S
C190 C186 1.401 . S
C190 C189 1.396 . S
C191 C186 1.499 . S
C191 H192 0.959 . S
C191 H193 0.960 . S
C191 H194 0.961 . S
H192 C191 0.959 . S
H193 C191 0.960 . S
H194 C191 0.961 . S
O195 Co170 1.967 . S
O195 C203 1.258 . S
O196 Co171 1.941 . S
O196 C203 1.266 . S
H197 C199 0.959 . S
H198 C199 0.961 . S
C199 C189 1.510 . S
C199 H197 0.959 . S
C199 H198 0.961 . S
C199 H200 0.960 . S
H200 C199 0.960 . S
H201 N181 0.862 . S
O202 Co170 1.920 . S
O202 C175 1.289 . S
C203 O195 1.258 . S
C203 O196 1.266 . S
Co204 O207 1.970 . S
Co204 N221 1.989 . S
Co204 O229 1.967 . S
Co204 O236 1.920 . S
Co205 O208 1.966 . S
Co205 N214 2.022 . S
Co205 N222 1.993 . S
Co205 O230 1.941 . S
C206 O207 1.258 . S
C206 O208 1.263 . S
O207 Co204 1.970 . S
O207 C206 1.258 . S
O208 Co205 1.966 . S
O208 C206 1.263 . S
C209 O210 1.235 . S
C209 O236 1.289 . S
O210 C209 1.235 . S
C211 C213 1.400 . S
C211 N214 1.351 . S
C211 C216 1.501 . S
C212 C213 1.387 . S
C212 N215 1.341 . S
C213 C211 1.400 . S
C213 C212 1.387 . S
N214 Co205 2.022 . S
N214 C211 1.351 . S
N214 N215 1.365 . S
N215 C212 1.341 . S
N215 N214 1.365 . S
N215 H235 0.862 . S
C216 C211 1.501 . S
C216 H217 0.961 . S
C216 H218 0.961 . S
C216 H219 0.960 . S
H217 C216 0.961 . S
H218 C216 0.961 . S
H219 C216 0.960 . S
C220 N221 1.342 1_565 S
C220 C224 1.401 . S
C220 C225 1.499 . S
N221 Co204 1.989 . S
N221 C220 1.342 1_545 S
N221 N222 1.388 . S
N222 Co205 1.993 . S
N222 N221 1.388 . S
N222 C223 1.346 1_545 S
C223 N222 1.346 1_565 S
C223 C224 1.396 . S
C223 C233 1.510 . S
C224 C220 1.401 . S
C224 C223 1.396 . S
C225 C220 1.499 . S
C225 H226 0.959 1_565 S
C225 H227 0.960 . S
C225 H228 0.961 . S
H226 C225 0.959 1_545 S
H227 C225 0.960 . S
H228 C225 0.961 . S
O229 Co204 1.967 . S
O229 C237 1.258 . S
O230 Co205 1.941 . S
O230 C237 1.266 . S
H231 C233 0.959 . S
H232 C233 0.961 . S
C233 C223 1.510 . S
C233 H231 0.959 . S
C233 H232 0.961 . S
C233 H234 0.960 . S
H234 C233 0.960 . S
H235 N215 0.862 . S
O236 Co204 1.920 . S
O236 C209 1.289 . S
C237 O229 1.258 . S
C237 O230 1.266 . S
Co238 O241 1.970 . S
Co238 N255 1.989 . S
Co238 O263 1.967 . S
Co238 O270 1.920 . S
Co239 O242 1.966 . S
Co239 N248 2.022 . S
Co239 N256 1.993 . S
Co239 O264 1.941 . S
C240 O241 1.258 . S
C240 O242 1.263 . S
O241 Co238 1.970 . S
O241 C240 1.258 . S
O242 Co239 1.966 . S
O242 C240 1.263 . S
C243 O244 1.235 . S
C243 O270 1.289 . S
O244 C243 1.235 . S
C245 C247 1.400 . S
C245 N248 1.351 . S
C245 C250 1.501 . S
C246 C247 1.387 . S
C246 N249 1.341 . S
C247 C245 1.400 . S
C247 C246 1.387 . S
N248 Co239 2.022 . S
N248 C245 1.351 . S
N248 N249 1.365 . S
N249 C246 1.341 . S
N249 N248 1.365 . S
N249 H269 0.862 . S
C250 C245 1.501 . S
C250 H251 0.961 . S
C250 H252 0.961 . S
C250 H253 0.960 . S
H251 C250 0.961 . S
H252 C250 0.961 . S
H253 C250 0.960 . S
C254 N255 1.342 . S
C254 C258 1.401 . S
C254 C259 1.499 . S
N255 Co238 1.989 . S
N255 C254 1.342 . S
N255 N256 1.388 . S
N256 Co239 1.993 . S
N256 N255 1.388 . S
N256 C257 1.346 . S
C257 N256 1.346 . S
C257 C258 1.396 . S
C257 C267 1.510 . S
C258 C254 1.401 . S
C258 C257 1.396 . S
C259 C254 1.499 . S
C259 H260 0.959 . S
C259 H261 0.960 . S
C259 H262 0.961 . S
H260 C259 0.959 . S
H261 C259 0.960 . S
H262 C259 0.961 . S
O263 Co238 1.967 . S
O263 C271 1.258 . S
O264 Co239 1.941 . S
O264 C271 1.266 . S
H265 C267 0.959 . S
H266 C267 0.961 . S
C267 C257 1.510 . S
C267 H265 0.959 . S
C267 H266 0.961 . S
C267 H268 0.960 . S
H268 C267 0.960 . S
H269 N249 0.862 . S
O270 Co238 1.920 . S
O270 C243 1.289 . S
C271 O263 1.258 . S
C271 O264 1.266 . S
Co272 O275 1.970 . S
Co272 N289 1.989 . S
Co272 O297 1.967 . S
Co272 O304 1.920 . S
Co273 O276 1.966 . S
Co273 N282 2.022 . S
Co273 N290 1.993 . S
Co273 O298 1.941 . S
C274 O275 1.258 . S
C274 O276 1.263 . S
O275 Co272 1.970 . S
O275 C274 1.258 . S
O276 Co273 1.966 . S
O276 C274 1.263 . S
C277 O278 1.235 . S
C277 O304 1.289 . S
O278 C277 1.235 . S
C279 C281 1.400 . S
C279 N282 1.351 . S
C279 C284 1.501 . S
C280 C281 1.387 . S
C280 N283 1.341 . S
C281 C279 1.400 . S
C281 C280 1.387 . S
N282 Co273 2.022 . S
N282 C279 1.351 . S
N282 N283 1.365 . S
N283 C280 1.341 . S
N283 N282 1.365 . S
N283 H303 0.862 . S
C284 C279 1.501 . S
C284 H285 0.961 . S
C284 H286 0.961 . S
C284 H287 0.960 . S
H285 C284 0.961 . S
H286 C284 0.961 . S
H287 C284 0.960 . S
C288 N289 1.342 1_545 S
C288 C292 1.401 . S
C288 C293 1.499 . S
N289 Co272 1.989 . S
N289 C288 1.342 1_565 S
N289 N290 1.388 . S
N290 Co273 1.993 . S
N290 N289 1.388 . S
N290 C291 1.346 1_565 S
C291 N290 1.346 1_545 S
C291 C292 1.396 . S
C291 C301 1.510 . S
C292 C288 1.401 . S
C292 C291 1.396 . S
C293 C288 1.499 . S
C293 H294 0.959 1_545 S
C293 H295 0.960 . S
C293 H296 0.961 . S
H294 C293 0.959 1_565 S
H295 C293 0.960 . S
H296 C293 0.961 . S
O297 Co272 1.967 . S
O297 C305 1.258 . S
O298 Co273 1.941 . S
O298 C305 1.266 . S
H299 C301 0.959 . S
H300 C301 0.961 . S
C301 C291 1.510 . S
C301 H299 0.959 . S
C301 H300 0.961 . S
C301 H302 0.960 . S
H302 C301 0.960 . S
H303 N283 0.862 . S
O304 Co272 1.920 . S
O304 C277 1.289 . S
C305 O297 1.258 . S
C305 O298 1.266 . S
Co306 O309 1.970 . S
Co306 N323 1.989 . S
Co306 O331 1.967 . S
Co306 O338 1.920 . S
Co307 O310 1.966 . S
Co307 N316 2.022 . S
Co307 N324 1.993 . S
Co307 O332 1.941 . S
C308 O309 1.258 . S
C308 O310 1.263 . S
O309 Co306 1.970 . S
O309 C308 1.258 . S
O310 Co307 1.966 . S
O310 C308 1.263 . S
C311 O312 1.235 . S
C311 O338 1.289 . S
O312 C311 1.235 . S
C313 C315 1.400 . S
C313 N316 1.351 . S
C313 C318 1.501 . S
C314 C315 1.387 . S
C314 N317 1.341 . S
C315 C313 1.400 . S
C315 C314 1.387 . S
N316 Co307 2.022 . S
N316 C313 1.351 . S
N316 N317 1.365 . S
N317 C314 1.341 . S
N317 N316 1.365 . S
N317 H337 0.862 . S
C318 C313 1.501 . S
C318 H319 0.961 . S
C318 H320 0.961 . S
C318 H321 0.960 . S
H319 C318 0.961 . S
H320 C318 0.961 . S
H321 C318 0.960 . S
C322 N323 1.342 . S
C322 C326 1.401 . S
C322 C327 1.499 . S
N323 Co306 1.989 . S
N323 C322 1.342 . S
N323 N324 1.388 . S
N324 Co307 1.993 . S
N324 N323 1.388 . S
N324 C325 1.346 . S
C325 N324 1.346 . S
C325 C326 1.396 . S
C325 C335 1.510 . S
C326 C322 1.401 . S
C326 C325 1.396 . S
C327 C322 1.499 . S
C327 H328 0.959 . S
C327 H329 0.960 . S
C327 H330 0.961 . S
H328 C327 0.959 . S
H329 C327 0.960 . S
H330 C327 0.961 . S
O331 Co306 1.967 . S
O331 C339 1.258 . S
O332 Co307 1.941 . S
O332 C339 1.266 . S
H333 C335 0.959 . S
H334 C335 0.961 . S
C335 C325 1.510 . S
C335 H333 0.959 . S
C335 H334 0.961 . S
C335 H336 0.960 . S
H336 C335 0.960 . S
H337 N317 0.862 . S
O338 Co306 1.920 . S
O338 C311 1.289 . S
C339 O331 1.258 . S
C339 O332 1.266 . S
Co340 O343 1.970 . S
Co340 N357 1.989 . S
Co340 O365 1.967 . S
Co340 O372 1.920 . S
Co341 O344 1.966 . S
Co341 N350 2.022 . S
Co341 N358 1.993 . S
Co341 O366 1.941 . S
C342 O343 1.258 . S
C342 O344 1.263 . S
O343 Co340 1.970 . S
O343 C342 1.258 . S
O344 Co341 1.966 . S
O344 C342 1.263 . S
C345 O346 1.235 . S
C345 O372 1.289 . S
O346 C345 1.235 . S
C347 C349 1.400 . S
C347 N350 1.351 . S
C347 C352 1.501 . S
C348 C349 1.387 . S
C348 N351 1.341 . S
C349 C347 1.400 . S
C349 C348 1.387 . S
N350 Co341 2.022 . S
N350 C347 1.351 . S
N350 N351 1.365 . S
N351 C348 1.341 . S
N351 N350 1.365 . S
N351 H371 0.862 . S
C352 C347 1.501 . S
C352 H353 0.961 . S
C352 H354 0.961 . S
C352 H355 0.960 . S
H353 C352 0.961 . S
H354 C352 0.961 . S
H355 C352 0.960 . S
C356 N357 1.342 1_565 S
C356 C360 1.401 . S
C356 C361 1.499 . S
N357 Co340 1.989 . S
N357 C356 1.342 1_545 S
N357 N358 1.388 . S
N358 Co341 1.993 . S
N358 N357 1.388 . S
N358 C359 1.346 1_545 S
C359 N358 1.346 1_565 S
C359 C360 1.396 . S
C359 C369 1.510 . S
C360 C356 1.401 . S
C360 C359 1.396 . S
C361 C356 1.499 . S
C361 H362 0.959 1_565 S
C361 H363 0.960 . S
C361 H364 0.961 . S
H362 C361 0.959 1_545 S
H363 C361 0.960 . S
H364 C361 0.961 . S
O365 Co340 1.967 . S
O365 C373 1.258 . S
O366 Co341 1.941 . S
O366 C373 1.266 . S
H367 C369 0.959 . S
H368 C369 0.961 . S
C369 C359 1.510 . S
C369 H367 0.959 . S
C369 H368 0.961 . S
C369 H370 0.960 . S
H370 C369 0.960 . S
H371 N351 0.862 . S
O372 Co340 1.920 . S
O372 C345 1.289 . S
C373 O365 1.258 . S
C373 O366 1.266 . S
Co374 O377 1.970 . S
Co374 N391 1.989 . S
Co374 O399 1.967 . S
Co374 O406 1.920 . S
Co375 O378 1.966 . S
Co375 N384 2.022 . S
Co375 N392 1.993 . S
Co375 O400 1.941 . S
C376 O377 1.258 . S
C376 O378 1.263 . S
O377 Co374 1.970 . S
O377 C376 1.258 . S
O378 Co375 1.966 . S
O378 C376 1.263 . S
C379 O380 1.235 . S
C379 O406 1.289 . S
O380 C379 1.235 . S
C381 C383 1.400 . S
C381 N384 1.351 . S
C381 C386 1.501 . S
C382 C383 1.387 . S
C382 N385 1.341 . S
C383 C381 1.400 . S
C383 C382 1.387 . S
N384 Co375 2.022 . S
N384 C381 1.351 . S
N384 N385 1.365 . S
N385 C382 1.341 . S
N385 N384 1.365 . S
N385 H405 0.862 . S
C386 C381 1.501 . S
C386 H387 0.961 . S
C386 H388 0.961 . S
C386 H389 0.960 . S
H387 C386 0.961 . S
H388 C386 0.961 . S
H389 C386 0.960 . S
C390 N391 1.342 . S
C390 C394 1.401 . S
C390 C395 1.499 . S
N391 Co374 1.989 . S
N391 C390 1.342 . S
N391 N392 1.388 . S
N392 Co375 1.993 . S
N392 N391 1.388 . S
N392 C393 1.346 . S
C393 N392 1.346 . S
C393 C394 1.396 . S
C393 C403 1.510 . S
C394 C390 1.401 . S
C394 C393 1.396 . S
C395 C390 1.499 . S
C395 H396 0.959 . S
C395 H397 0.960 . S
C395 H398 0.961 . S
H396 C395 0.959 . S
H397 C395 0.960 . S
H398 C395 0.961 . S
O399 Co374 1.967 . S
O399 C407 1.258 . S
O400 Co375 1.941 . S
O400 C407 1.266 . S
H401 C403 0.959 . S
H402 C403 0.961 . S
C403 C393 1.510 . S
C403 H401 0.959 . S
C403 H402 0.961 . S
C403 H404 0.960 . S
H404 C403 0.960 . S
H405 N385 0.862 . S
O406 Co374 1.920 . S
O406 C379 1.289 . S
C407 O399 1.258 . S
C407 O400 1.266 . S
Co408 O411 1.970 . S
Co408 N425 1.989 . S
Co408 O433 1.967 . S
Co408 O440 1.920 . S
Co409 O412 1.966 . S
Co409 N418 2.022 . S
Co409 N426 1.993 . S
Co409 O434 1.941 . S
C410 O411 1.258 . S
C410 O412 1.263 . S
O411 Co408 1.970 . S
O411 C410 1.258 . S
O412 Co409 1.966 . S
O412 C410 1.263 . S
C413 O414 1.235 . S
C413 O440 1.289 . S
O414 C413 1.235 . S
C415 C417 1.400 . S
C415 N418 1.351 . S
C415 C420 1.501 . S
C416 C417 1.387 . S
C416 N419 1.341 . S
C417 C415 1.400 . S
C417 C416 1.387 . S
N418 Co409 2.022 . S
N418 C415 1.351 . S
N418 N419 1.365 . S
N419 C416 1.341 . S
N419 N418 1.365 . S
N419 H439 0.862 . S
C420 C415 1.501 . S
C420 H421 0.961 . S
C420 H422 0.961 . S
C420 H423 0.960 . S
H421 C420 0.961 . S
H422 C420 0.961 . S
H423 C420 0.960 . S
C424 N425 1.342 1_565 S
C424 C428 1.401 . S
C424 C429 1.499 . S
N425 Co408 1.989 . S
N425 C424 1.342 1_545 S
N425 N426 1.388 . S
N426 Co409 1.993 . S
N426 N425 1.388 . S
N426 C427 1.346 1_545 S
C427 N426 1.346 1_565 S
C427 C428 1.396 . S
C427 C437 1.510 . S
C428 C424 1.401 . S
C428 C427 1.396 . S
C429 C424 1.499 . S
C429 H430 0.959 1_565 S
C429 H431 0.960 . S
C429 H432 0.961 . S
H430 C429 0.959 1_545 S
H431 C429 0.960 . S
H432 C429 0.961 . S
O433 Co408 1.967 . S
O433 C441 1.258 . S
O434 Co409 1.941 . S
O434 C441 1.266 . S
H435 C437 0.959 . S
H436 C437 0.961 . S
C437 C427 1.510 . S
C437 H435 0.959 . S
C437 H436 0.961 . S
C437 H438 0.960 . S
H438 C437 0.960 . S
H439 N419 0.862 . S
O440 Co408 1.920 . S
O440 C413 1.289 . S
C441 O433 1.258 . S
C441 O434 1.266 . S
Co442 O445 1.970 . S
Co442 N459 1.989 . S
Co442 O467 1.967 . S
Co442 O474 1.920 . S
Co443 O446 1.966 . S
Co443 N452 2.022 . S
Co443 N460 1.993 . S
Co443 O468 1.941 . S
C444 O445 1.258 . S
C444 O446 1.263 . S
O445 Co442 1.970 . S
O445 C444 1.258 . S
O446 Co443 1.966 . S
O446 C444 1.263 . S
C447 O448 1.235 . S
C447 O474 1.289 . S
O448 C447 1.235 . S
C449 C451 1.400 . S
C449 N452 1.351 . S
C449 C454 1.501 . S
C450 C451 1.387 . S
C450 N453 1.341 . S
C451 C449 1.400 . S
C451 C450 1.387 . S
N452 Co443 2.022 . S
N452 C449 1.351 . S
N452 N453 1.365 . S
N453 C450 1.341 . S
N453 N452 1.365 . S
N453 H473 0.862 . S
C454 C449 1.501 . S
C454 H455 0.961 . S
C454 H456 0.961 . S
C454 H457 0.960 . S
H455 C454 0.961 . S
H456 C454 0.961 . S
H457 C454 0.960 . S
C458 N459 1.342 . S
C458 C462 1.401 . S
C458 C463 1.499 . S
N459 Co442 1.989 . S
N459 C458 1.342 . S
N459 N460 1.388 . S
N460 Co443 1.993 . S
N460 N459 1.388 . S
N460 C461 1.346 . S
C461 N460 1.346 . S
C461 C462 1.396 . S
C461 C471 1.510 . S
C462 C458 1.401 . S
C462 C461 1.396 . S
C463 C458 1.499 . S
C463 H464 0.959 . S
C463 H465 0.960 . S
C463 H466 0.961 . S
H464 C463 0.959 . S
H465 C463 0.960 . S
H466 C463 0.961 . S
O467 Co442 1.967 . S
O467 C475 1.258 . S
O468 Co443 1.941 . S
O468 C475 1.266 . S
H469 C471 0.959 . S
H470 C471 0.961 . S
C471 C461 1.510 . S
C471 H469 0.959 . S
C471 H470 0.961 . S
C471 H472 0.960 . S
H472 C471 0.960 . S
H473 N453 0.862 . S
O474 Co442 1.920 . S
O474 C447 1.289 . S
C475 O467 1.258 . S
C475 O468 1.266 . S
Co476 O479 1.970 . S
Co476 N493 1.989 . S
Co476 O501 1.967 . S
Co476 O508 1.920 . S
Co477 O480 1.966 . S
Co477 N486 2.022 . S
Co477 N494 1.993 . S
Co477 O502 1.941 . S
C478 O479 1.258 . S
C478 O480 1.263 . S
O479 Co476 1.970 . S
O479 C478 1.258 . S
O480 Co477 1.966 . S
O480 C478 1.263 . S
C481 O482 1.235 . S
C481 O508 1.289 . S
O482 C481 1.235 . S
C483 C485 1.400 . S
C483 N486 1.351 . S
C483 C488 1.501 . S
C484 C485 1.387 . S
C484 N487 1.341 . S
C485 C483 1.400 . S
C485 C484 1.387 . S
N486 Co477 2.022 . S
N486 C483 1.351 . S
N486 N487 1.365 . S
N487 C484 1.341 . S
N487 N486 1.365 . S
N487 H507 0.862 . S
C488 C483 1.501 . S
C488 H489 0.961 . S
C488 H490 0.961 . S
C488 H491 0.960 . S
H489 C488 0.961 . S
H490 C488 0.961 . S
H491 C488 0.960 . S
C492 N493 1.342 1_545 S
C492 C496 1.401 . S
C492 C497 1.499 . S
N493 Co476 1.989 . S
N493 C492 1.342 1_565 S
N493 N494 1.388 . S
N494 Co477 1.993 . S
N494 N493 1.388 . S
N494 C495 1.346 1_565 S
C495 N494 1.346 1_545 S
C495 C496 1.396 . S
C495 C505 1.510 . S
C496 C492 1.401 . S
C496 C495 1.396 . S
C497 C492 1.499 . S
C497 H498 0.959 1_545 S
C497 H499 0.960 . S
C497 H500 0.961 . S
H498 C497 0.959 1_565 S
H499 C497 0.960 . S
H500 C497 0.961 . S
O501 Co476 1.967 . S
O501 C509 1.258 . S
O502 Co477 1.941 . S
O502 C509 1.266 . S
H503 C505 0.959 . S
H504 C505 0.961 . S
C505 C495 1.510 . S
C505 H503 0.959 . S
C505 H504 0.961 . S
C505 H506 0.960 . S
H506 C505 0.960 . S
H507 N487 0.862 . S
O508 Co476 1.920 . S
O508 C481 1.289 . S
C509 O501 1.258 . S
C509 O502 1.266 . S
Co510 O513 1.970 . S
Co510 N527 1.989 . S
Co510 O535 1.967 . S
Co510 O542 1.920 . S
Co511 O514 1.966 . S
Co511 N520 2.022 . S
Co511 N528 1.993 . S
Co511 O536 1.941 . S
C512 O513 1.258 . S
C512 O514 1.263 . S
O513 Co510 1.970 . S
O513 C512 1.258 . S
O514 Co511 1.966 . S
O514 C512 1.263 . S
C515 O516 1.235 . S
C515 O542 1.289 . S
O516 C515 1.235 . S
C517 C519 1.400 . S
C517 N520 1.351 . S
C517 C522 1.501 . S
C518 C519 1.387 . S
C518 N521 1.341 . S
C519 C517 1.400 . S
C519 C518 1.387 . S
N520 Co511 2.022 . S
N520 C517 1.351 . S
N520 N521 1.365 . S
N521 C518 1.341 . S
N521 N520 1.365 . S
N521 H541 0.862 . S
C522 C517 1.501 . S
C522 H523 0.961 . S
C522 H524 0.961 . S
C522 H525 0.960 . S
H523 C522 0.961 . S
H524 C522 0.961 . S
H525 C522 0.960 . S
C526 N527 1.342 . S
C526 C530 1.401 . S
C526 C531 1.499 . S
N527 Co510 1.989 . S
N527 C526 1.342 . S
N527 N528 1.388 . S
N528 Co511 1.993 . S
N528 N527 1.388 . S
N528 C529 1.346 . S
C529 N528 1.346 . S
C529 C530 1.396 . S
C529 C539 1.510 . S
C530 C526 1.401 . S
C530 C529 1.396 . S
C531 C526 1.499 . S
C531 H532 0.959 . S
C531 H533 0.960 . S
C531 H534 0.961 . S
H532 C531 0.959 . S
H533 C531 0.960 . S
H534 C531 0.961 . S
O535 Co510 1.967 . S
O535 C543 1.258 . S
O536 Co511 1.941 . S
O536 C543 1.266 . S
H537 C539 0.959 . S
H538 C539 0.961 . S
C539 C529 1.510 . S
C539 H537 0.959 . S
C539 H538 0.961 . S
C539 H540 0.960 . S
H540 C539 0.960 . S
H541 N521 0.862 . S
O542 Co510 1.920 . S
O542 C515 1.289 . S
C543 O535 1.258 . S
C543 O536 1.266 . S
Co544 O547 1.970 . S
Co544 N561 1.989 . S
Co544 O569 1.967 . S
Co544 O576 1.920 . S
Co545 O548 1.966 . S
Co545 N554 2.022 . S
Co545 N562 1.993 . S
Co545 O570 1.941 . S
C546 O547 1.258 . S
C546 O548 1.263 . S
O547 Co544 1.970 . S
O547 C546 1.258 . S
O548 Co545 1.966 . S
O548 C546 1.263 . S
C549 O550 1.235 . S
C549 O576 1.289 . S
O550 C549 1.235 . S
C551 C553 1.400 . S
C551 N554 1.351 . S
C551 C556 1.501 . S
C552 C553 1.387 . S
C552 N555 1.341 . S
C553 C551 1.400 . S
C553 C552 1.387 . S
N554 Co545 2.022 . S
N554 C551 1.351 . S
N554 N555 1.365 . S
N555 C552 1.341 . S
N555 N554 1.365 . S
N555 H575 0.862 . S
C556 C551 1.501 . S
C556 H557 0.961 . S
C556 H558 0.961 . S
C556 H559 0.960 . S
H557 C556 0.961 . S
H558 C556 0.961 . S
H559 C556 0.960 . S
C560 N561 1.342 . S
C560 C564 1.401 . S
C560 C565 1.499 . S
N561 Co544 1.989 . S
N561 C560 1.342 . S
N561 N562 1.388 . S
N562 Co545 1.993 . S
N562 N561 1.388 . S
N562 C563 1.346 . S
C563 N562 1.346 . S
C563 C564 1.396 . S
C563 C573 1.510 . S
C564 C560 1.401 . S
C564 C563 1.396 . S
C565 C560 1.499 . S
C565 H566 0.959 . S
C565 H567 0.960 . S
C565 H568 0.961 . S
H566 C565 0.959 . S
H567 C565 0.960 . S
H568 C565 0.961 . S
O569 Co544 1.967 . S
O569 C577 1.258 . S
O570 Co545 1.941 . S
O570 C577 1.266 . S
H571 C573 0.959 . S
H572 C573 0.961 . S
C573 C563 1.510 . S
C573 H571 0.959 . S
C573 H572 0.961 . S
C573 H574 0.960 . S
H574 C573 0.960 . S
H575 N555 0.862 . S
O576 Co544 1.920 . S
O576 C549 1.289 . S
C577 O569 1.258 . S
C577 O570 1.266 . S
Co578 O581 1.970 . S
Co578 N595 1.989 . S
Co578 O603 1.967 . S
Co578 O610 1.920 . S
Co579 O582 1.966 . S
Co579 N588 2.022 . S
Co579 N596 1.993 . S
Co579 O604 1.941 . S
C580 O581 1.258 . S
C580 O582 1.263 . S
O581 Co578 1.970 . S
O581 C580 1.258 . S
O582 Co579 1.966 . S
O582 C580 1.263 . S
C583 O584 1.235 . S
C583 O610 1.289 . S
O584 C583 1.235 . S
C585 C587 1.400 . S
C585 N588 1.351 . S
C585 C590 1.501 . S
C586 C587 1.387 . S
C586 N589 1.341 . S
C587 C585 1.400 . S
C587 C586 1.387 . S
N588 Co579 2.022 . S
N588 C585 1.351 . S
N588 N589 1.365 . S
N589 C586 1.341 . S
N589 N588 1.365 . S
N589 H609 0.862 . S
C590 C585 1.501 . S
C590 H591 0.961 . S
C590 H592 0.961 . S
C590 H593 0.960 . S
H591 C590 0.961 . S
H592 C590 0.961 . S
H593 C590 0.960 . S
C594 N595 1.342 . S
C594 C598 1.401 . S
C594 C599 1.499 . S
N595 Co578 1.989 . S
N595 C594 1.342 . S
N595 N596 1.388 . S
N596 Co579 1.993 . S
N596 N595 1.388 . S
N596 C597 1.346 . S
C597 N596 1.346 . S
C597 C598 1.396 . S
C597 C607 1.510 . S
C598 C594 1.401 . S
C598 C597 1.396 . S
C599 C594 1.499 . S
C599 H600 0.959 . S
C599 H601 0.960 . S
C599 H602 0.961 . S
H600 C599 0.959 . S
H601 C599 0.960 . S
H602 C599 0.961 . S
O603 Co578 1.967 . S
O603 C611 1.258 . S
O604 Co579 1.941 . S
O604 C611 1.266 . S
H605 C607 0.959 . S
H606 C607 0.961 . S
C607 C597 1.510 . S
C607 H605 0.959 . S
C607 H606 0.961 . S
C607 H608 0.960 . S
H608 C607 0.960 . S
H609 N589 0.862 . S
O610 Co578 1.920 . S
O610 C583 1.289 . S
C611 O603 1.258 . S
C611 O604 1.266 . S
Co612 O615 1.970 . S
Co612 N629 1.989 . S
Co612 O637 1.967 . S
Co612 O644 1.920 . S
Co613 O616 1.966 . S
Co613 N622 2.022 . S
Co613 N630 1.993 . S
Co613 O638 1.941 . S
C614 O615 1.258 . S
C614 O616 1.263 . S
O615 Co612 1.970 . S
O615 C614 1.258 . S
O616 Co613 1.966 . S
O616 C614 1.263 . S
C617 O618 1.235 . S
C617 O644 1.289 . S
O618 C617 1.235 . S
C619 C621 1.400 . S
C619 N622 1.351 . S
C619 C624 1.501 . S
C620 C621 1.387 . S
C620 N623 1.341 . S
C621 C619 1.400 . S
C621 C620 1.387 . S
N622 Co613 2.022 . S
N622 C619 1.351 . S
N622 N623 1.365 . S
N623 C620 1.341 . S
N623 N622 1.365 . S
N623 H643 0.862 . S
C624 C619 1.501 . S
C624 H625 0.961 . S
C624 H626 0.961 . S
C624 H627 0.960 . S
H625 C624 0.961 . S
H626 C624 0.961 . S
H627 C624 0.960 . S
C628 N629 1.342 . S
C628 C632 1.401 . S
C628 C633 1.499 . S
N629 Co612 1.989 . S
N629 C628 1.342 . S
N629 N630 1.388 . S
N630 Co613 1.993 . S
N630 N629 1.388 . S
N630 C631 1.346 . S
C631 N630 1.346 . S
C631 C632 1.396 . S
C631 C641 1.510 . S
C632 C628 1.401 . S
C632 C631 1.396 . S
C633 C628 1.499 . S
C633 H634 0.959 . S
C633 H635 0.960 . S
C633 H636 0.961 . S
H634 C633 0.959 . S
H635 C633 0.960 . S
H636 C633 0.961 . S
O637 Co612 1.967 . S
O637 C645 1.258 . S
O638 Co613 1.941 . S
O638 C645 1.266 . S
H639 C641 0.959 . S
H640 C641 0.961 . S
C641 C631 1.510 . S
C641 H639 0.959 . S
C641 H640 0.961 . S
C641 H642 0.960 . S
H642 C641 0.960 . S
H643 N623 0.862 . S
O644 Co612 1.920 . S
O644 C617 1.289 . S
C645 O637 1.258 . S
C645 O638 1.266 . S
Co646 O649 1.970 . S
Co646 N663 1.989 . S
Co646 O671 1.967 . S
Co646 O678 1.920 . S
Co647 O650 1.966 . S
Co647 N656 2.022 . S
Co647 N664 1.993 . S
Co647 O672 1.941 . S
C648 O649 1.258 . S
C648 O650 1.263 . S
O649 Co646 1.970 . S
O649 C648 1.258 . S
O650 Co647 1.966 . S
O650 C648 1.263 . S
C651 O652 1.235 . S
C651 O678 1.289 . S
O652 C651 1.235 . S
C653 C655 1.400 . S
C653 N656 1.351 . S
C653 C658 1.501 . S
C654 C655 1.387 . S
C654 N657 1.341 . S
C655 C653 1.400 . S
C655 C654 1.387 . S
N656 Co647 2.022 . S
N656 C653 1.351 . S
N656 N657 1.365 . S
N657 C654 1.341 . S
N657 N656 1.365 . S
N657 H677 0.862 . S
C658 C653 1.501 . S
C658 H659 0.961 . S
C658 H660 0.961 . S
C658 H661 0.960 . S
H659 C658 0.961 . S
H660 C658 0.961 . S
H661 C658 0.960 . S
C662 N663 1.342 . S
C662 C666 1.401 . S
C662 C667 1.499 . S
N663 Co646 1.989 . S
N663 C662 1.342 . S
N663 N664 1.388 . S
N664 Co647 1.993 . S
N664 N663 1.388 . S
N664 C665 1.346 . S
C665 N664 1.346 . S
C665 C666 1.396 . S
C665 C675 1.510 . S
C666 C662 1.401 . S
C666 C665 1.396 . S
C667 C662 1.499 . S
C667 H668 0.959 . S
C667 H669 0.960 . S
C667 H670 0.961 . S
H668 C667 0.959 . S
H669 C667 0.960 . S
H670 C667 0.961 . S
O671 Co646 1.967 . S
O671 C679 1.258 . S
O672 Co647 1.941 . S
O672 C679 1.266 . S
H673 C675 0.959 . S
H674 C675 0.961 . S
C675 C665 1.510 . S
C675 H673 0.959 . S
C675 H674 0.961 . S
C675 H676 0.960 . S
H676 C675 0.960 . S
H677 N657 0.862 . S
O678 Co646 1.920 . S
O678 C651 1.289 . S
C679 O671 1.258 . S
C679 O672 1.266 . S
Co680 O683 1.970 . S
Co680 N697 1.989 . S
Co680 O705 1.967 . S
Co680 O712 1.920 . S
Co681 O684 1.966 . S
Co681 N690 2.022 . S
Co681 N698 1.993 . S
Co681 O706 1.941 . S
C682 O683 1.258 . S
C682 O684 1.263 . S
O683 Co680 1.970 . S
O683 C682 1.258 . S
O684 Co681 1.966 . S
O684 C682 1.263 . S
C685 O686 1.235 . S
C685 O712 1.289 . S
O686 C685 1.235 . S
C687 C689 1.400 . S
C687 N690 1.351 . S
C687 C692 1.501 . S
C688 C689 1.387 . S
C688 N691 1.341 . S
C689 C687 1.400 . S
C689 C688 1.387 . S
N690 Co681 2.022 . S
N690 C687 1.351 . S
N690 N691 1.365 . S
N691 C688 1.341 . S
N691 N690 1.365 . S
N691 H711 0.862 . S
C692 C687 1.501 . S
C692 H693 0.961 . S
C692 H694 0.961 . S
C692 H695 0.960 . S
H693 C692 0.961 . S
H694 C692 0.961 . S
H695 C692 0.960 . S
C696 N697 1.342 . S
C696 C700 1.401 . S
C696 C701 1.499 . S
N697 Co680 1.989 . S
N697 C696 1.342 . S
N697 N698 1.388 . S
N698 Co681 1.993 . S
N698 N697 1.388 . S
N698 C699 1.346 . S
C699 N698 1.346 . S
C699 C700 1.396 . S
C699 C709 1.510 . S
C700 C696 1.401 . S
C700 C699 1.396 . S
C701 C696 1.499 . S
C701 H702 0.959 . S
C701 H703 0.960 . S
C701 H704 0.961 . S
H702 C701 0.959 . S
H703 C701 0.960 . S
H704 C701 0.961 . S
O705 Co680 1.967 . S
O705 C713 1.258 . S
O706 Co681 1.941 . S
O706 C713 1.266 . S
H707 C709 0.959 . S
H708 C709 0.961 . S
C709 C699 1.510 . S
C709 H707 0.959 . S
C709 H708 0.961 . S
C709 H710 0.960 . S
H710 C709 0.960 . S
H711 N691 0.862 . S
O712 Co680 1.920 . S
O712 C685 1.289 . S
C713 O705 1.258 . S
C713 O706 1.266 . S
Co714 O717 1.970 . S
Co714 N731 1.989 . S
Co714 O739 1.967 . S
Co714 O746 1.920 . S
Co715 O718 1.966 . S
Co715 N724 2.022 . S
Co715 N732 1.993 . S
Co715 O740 1.941 . S
C716 O717 1.258 . S
C716 O718 1.263 . S
O717 Co714 1.970 . S
O717 C716 1.258 . S
O718 Co715 1.966 . S
O718 C716 1.263 . S
C719 O720 1.235 . S
C719 O746 1.289 . S
O720 C719 1.235 . S
C721 C723 1.400 . S
C721 N724 1.351 . S
C721 C726 1.501 . S
C722 C723 1.387 . S
C722 N725 1.341 . S
C723 C721 1.400 . S
C723 C722 1.387 . S
N724 Co715 2.022 . S
N724 C721 1.351 . S
N724 N725 1.365 . S
N725 C722 1.341 . S
N725 N724 1.365 . S
N725 H745 0.862 . S
C726 C721 1.501 . S
C726 H727 0.961 . S
C726 H728 0.961 . S
C726 H729 0.960 . S
H727 C726 0.961 . S
H728 C726 0.961 . S
H729 C726 0.960 . S
C730 N731 1.342 . S
C730 C734 1.401 . S
C730 C735 1.499 . S
N731 Co714 1.989 . S
N731 C730 1.342 . S
N731 N732 1.388 . S
N732 Co715 1.993 . S
N732 N731 1.388 . S
N732 C733 1.346 . S
C733 N732 1.346 . S
C733 C734 1.396 . S
C733 C743 1.510 . S
C734 C730 1.401 . S
C734 C733 1.396 . S
C735 C730 1.499 . S
C735 H736 0.959 . S
C735 H737 0.960 . S
C735 H738 0.961 . S
H736 C735 0.959 . S
H737 C735 0.960 . S
H738 C735 0.961 . S
O739 Co714 1.967 . S
O739 C747 1.258 . S
O740 Co715 1.941 . S
O740 C747 1.266 . S
H741 C743 0.959 . S
H742 C743 0.961 . S
C743 C733 1.510 . S
C743 H741 0.959 . S
C743 H742 0.961 . S
C743 H744 0.960 . S
H744 C743 0.960 . S
H745 N725 0.862 . S
O746 Co714 1.920 . S
O746 C719 1.289 . S
C747 O739 1.258 . S
C747 O740 1.266 . S
Co748 O751 1.970 . S
Co748 N765 1.989 . S
Co748 O773 1.967 . S
Co748 O780 1.920 . S
Co749 O752 1.966 . S
Co749 N758 2.022 . S
Co749 N766 1.993 . S
Co749 O774 1.941 . S
C750 O751 1.258 . S
C750 O752 1.263 . S
O751 Co748 1.970 . S
O751 C750 1.258 . S
O752 Co749 1.966 . S
O752 C750 1.263 . S
C753 O754 1.235 . S
C753 O780 1.289 . S
O754 C753 1.235 . S
C755 C757 1.400 . S
C755 N758 1.351 . S
C755 C760 1.501 . S
C756 C757 1.387 . S
C756 N759 1.341 . S
C757 C755 1.400 . S
C757 C756 1.387 . S
N758 Co749 2.022 . S
N758 C755 1.351 . S
N758 N759 1.365 . S
N759 C756 1.341 . S
N759 N758 1.365 . S
N759 H779 0.862 . S
C760 C755 1.501 . S
C760 H761 0.961 . S
C760 H762 0.961 . S
C760 H763 0.960 . S
H761 C760 0.961 . S
H762 C760 0.961 . S
H763 C760 0.960 . S
C764 N765 1.342 . S
C764 C768 1.401 . S
C764 C769 1.499 . S
N765 Co748 1.989 . S
N765 C764 1.342 . S
N765 N766 1.388 . S
N766 Co749 1.993 . S
N766 N765 1.388 . S
N766 C767 1.346 . S
C767 N766 1.346 . S
C767 C768 1.396 . S
C767 C777 1.510 . S
C768 C764 1.401 . S
C768 C767 1.396 . S
C769 C764 1.499 . S
C769 H770 0.959 . S
C769 H771 0.960 . S
C769 H772 0.961 . S
H770 C769 0.959 . S
H771 C769 0.960 . S
H772 C769 0.961 . S
O773 Co748 1.967 . S
O773 C781 1.258 . S
O774 Co749 1.941 . S
O774 C781 1.266 . S
H775 C777 0.959 . S
H776 C777 0.961 . S
C777 C767 1.510 . S
C777 H775 0.959 . S
C777 H776 0.961 . S
C777 H778 0.960 . S
H778 C777 0.960 . S
H779 N759 0.862 . S
O780 Co748 1.920 . S
O780 C753 1.289 . S
C781 O773 1.258 . S
C781 O774 1.266 . S
Co782 O785 1.970 . S
Co782 N799 1.989 . S
Co782 O807 1.967 . S
Co782 O814 1.920 . S
Co783 O786 1.966 . S
Co783 N792 2.022 . S
Co783 N800 1.993 . S
Co783 O808 1.941 . S
C784 O785 1.258 . S
C784 O786 1.263 . S
O785 Co782 1.970 . S
O785 C784 1.258 . S
O786 Co783 1.966 . S
O786 C784 1.263 . S
C787 O788 1.235 . S
C787 O814 1.289 . S
O788 C787 1.235 . S
C789 C791 1.400 . S
C789 N792 1.351 . S
C789 C794 1.501 . S
C790 C791 1.387 . S
C790 N793 1.341 . S
C791 C789 1.400 . S
C791 C790 1.387 . S
N792 Co783 2.022 . S
N792 C789 1.351 . S
N792 N793 1.365 . S
N793 C790 1.341 . S
N793 N792 1.365 . S
N793 H813 0.862 . S
C794 C789 1.501 . S
C794 H795 0.961 . S
C794 H796 0.961 . S
C794 H797 0.960 . S
H795 C794 0.961 . S
H796 C794 0.961 . S
H797 C794 0.960 . S
C798 N799 1.342 . S
C798 C802 1.401 . S
C798 C803 1.499 . S
N799 Co782 1.989 . S
N799 C798 1.342 . S
N799 N800 1.388 . S
N800 Co783 1.993 . S
N800 N799 1.388 . S
N800 C801 1.346 . S
C801 N800 1.346 . S
C801 C802 1.396 . S
C801 C811 1.510 . S
C802 C798 1.401 . S
C802 C801 1.396 . S
C803 C798 1.499 . S
C803 H804 0.959 . S
C803 H805 0.960 . S
C803 H806 0.961 . S
H804 C803 0.959 . S
H805 C803 0.960 . S
H806 C803 0.961 . S
O807 Co782 1.967 . S
O807 C815 1.258 . S
O808 Co783 1.941 . S
O808 C815 1.266 . S
H809 C811 0.959 . S
H810 C811 0.961 . S
C811 C801 1.510 . S
C811 H809 0.959 . S
C811 H810 0.961 . S
C811 H812 0.960 . S
H812 C811 0.960 . S
H813 N793 0.862 . S
O814 Co782 1.920 . S
O814 C787 1.289 . S
C815 O807 1.258 . S
C815 O808 1.266 . S
Co816 O819 1.970 . S
Co816 N833 1.989 . S
Co816 O841 1.967 . S
Co816 O848 1.920 . S
Co817 O820 1.966 . S
Co817 N826 2.022 . S
Co817 N834 1.993 . S
Co817 O842 1.941 . S
C818 O819 1.258 . S
C818 O820 1.263 . S
O819 Co816 1.970 . S
O819 C818 1.258 . S
O820 Co817 1.966 . S
O820 C818 1.263 . S
C821 O822 1.235 . S
C821 O848 1.289 . S
O822 C821 1.235 . S
C823 C825 1.400 . S
C823 N826 1.351 . S
C823 C828 1.501 . S
C824 C825 1.387 . S
C824 N827 1.341 . S
C825 C823 1.400 . S
C825 C824 1.387 . S
N826 Co817 2.022 . S
N826 C823 1.351 . S
N826 N827 1.365 . S
N827 C824 1.341 . S
N827 N826 1.365 . S
N827 H847 0.862 . S
C828 C823 1.501 . S
C828 H829 0.961 . S
C828 H830 0.961 . S
C828 H831 0.960 . S
H829 C828 0.961 . S
H830 C828 0.961 . S
H831 C828 0.960 . S
C832 N833 1.342 . S
C832 C836 1.401 . S
C832 C837 1.499 . S
N833 Co816 1.989 . S
N833 C832 1.342 . S
N833 N834 1.388 . S
N834 Co817 1.993 . S
N834 N833 1.388 . S
N834 C835 1.346 . S
C835 N834 1.346 . S
C835 C836 1.396 . S
C835 C845 1.510 . S
C836 C832 1.401 . S
C836 C835 1.396 . S
C837 C832 1.499 . S
C837 H838 0.959 . S
C837 H839 0.960 . S
C837 H840 0.961 . S
H838 C837 0.959 . S
H839 C837 0.960 . S
H840 C837 0.961 . S
O841 Co816 1.967 . S
O841 C849 1.258 . S
O842 Co817 1.941 . S
O842 C849 1.266 . S
H843 C845 0.959 . S
H844 C845 0.961 . S
C845 C835 1.510 . S
C845 H843 0.959 . S
C845 H844 0.961 . S
C845 H846 0.960 . S
H846 C845 0.960 . S
H847 N827 0.862 . S
O848 Co816 1.920 . S
O848 C821 1.289 . S
C849 O841 1.258 . S
C849 O842 1.266 . S
Co850 O853 1.970 . S
Co850 N867 1.989 . S
Co850 O875 1.967 . S
Co850 O882 1.920 . S
Co851 O854 1.966 . S
Co851 N860 2.022 . S
Co851 N868 1.993 . S
Co851 O876 1.941 . S
C852 O853 1.258 . S
C852 O854 1.263 . S
O853 Co850 1.970 . S
O853 C852 1.258 . S
O854 Co851 1.966 . S
O854 C852 1.263 . S
C855 O856 1.235 . S
C855 O882 1.289 . S
O856 C855 1.235 . S
C857 C859 1.400 . S
C857 N860 1.351 . S
C857 C862 1.501 . S
C858 C859 1.387 . S
C858 N861 1.341 . S
C859 C857 1.400 . S
C859 C858 1.387 . S
N860 Co851 2.022 . S
N860 C857 1.351 . S
N860 N861 1.365 . S
N861 C858 1.341 . S
N861 N860 1.365 . S
N861 H881 0.862 . S
C862 C857 1.501 . S
C862 H863 0.961 . S
C862 H864 0.961 . S
C862 H865 0.960 . S
H863 C862 0.961 . S
H864 C862 0.961 . S
H865 C862 0.960 . S
C866 N867 1.342 . S
C866 C870 1.401 . S
C866 C871 1.499 . S
N867 Co850 1.989 . S
N867 C866 1.342 . S
N867 N868 1.388 . S
N868 Co851 1.993 . S
N868 N867 1.388 . S
N868 C869 1.346 . S
C869 N868 1.346 . S
C869 C870 1.396 . S
C869 C879 1.510 . S
C870 C866 1.401 . S
C870 C869 1.396 . S
C871 C866 1.499 . S
C871 H872 0.959 . S
C871 H873 0.960 . S
C871 H874 0.961 . S
H872 C871 0.959 . S
H873 C871 0.960 . S
H874 C871 0.961 . S
O875 Co850 1.967 . S
O875 C883 1.258 . S
O876 Co851 1.941 . S
O876 C883 1.266 . S
H877 C879 0.959 . S
H878 C879 0.961 . S
C879 C869 1.510 . S
C879 H877 0.959 . S
C879 H878 0.961 . S
C879 H880 0.960 . S
H880 C879 0.960 . S
H881 N861 0.862 . S
O882 Co850 1.920 . S
O882 C855 1.289 . S
C883 O875 1.258 . S
C883 O876 1.266 . S
Co884 O887 1.970 . S
Co884 N901 1.989 . S
Co884 O909 1.967 . S
Co884 O916 1.920 . S
Co885 O888 1.966 . S
Co885 N894 2.022 . S
Co885 N902 1.993 . S
Co885 O910 1.941 . S
C886 O887 1.258 . S
C886 O888 1.263 . S
O887 Co884 1.970 . S
O887 C886 1.258 . S
O888 Co885 1.966 . S
O888 C886 1.263 . S
C889 O890 1.235 . S
C889 O916 1.289 . S
O890 C889 1.235 . S
C891 C893 1.400 . S
C891 N894 1.351 . S
C891 C896 1.501 . S
C892 C893 1.387 . S
C892 N895 1.341 . S
C893 C891 1.400 . S
C893 C892 1.387 . S
N894 Co885 2.022 . S
N894 C891 1.351 . S
N894 N895 1.365 . S
N895 C892 1.341 . S
N895 N894 1.365 . S
N895 H915 0.862 . S
C896 C891 1.501 . S
C896 H897 0.961 . S
C896 H898 0.961 . S
C896 H899 0.960 . S
H897 C896 0.961 . S
H898 C896 0.961 . S
H899 C896 0.960 . S
C900 N901 1.342 . S
C900 C904 1.401 . S
C900 C905 1.499 . S
N901 Co884 1.989 . S
N901 C900 1.342 . S
N901 N902 1.388 . S
N902 Co885 1.993 . S
N902 N901 1.388 . S
N902 C903 1.346 . S
C903 N902 1.346 . S
C903 C904 1.396 . S
C903 C913 1.510 . S
C904 C900 1.401 . S
C904 C903 1.396 . S
C905 C900 1.499 . S
C905 H906 0.959 . S
C905 H907 0.960 . S
C905 H908 0.961 . S
H906 C905 0.959 . S
H907 C905 0.960 . S
H908 C905 0.961 . S
O909 Co884 1.967 . S
O909 C917 1.258 . S
O910 Co885 1.941 . S
O910 C917 1.266 . S
H911 C913 0.959 . S
H912 C913 0.961 . S
C913 C903 1.510 . S
C913 H911 0.959 . S
C913 H912 0.961 . S
C913 H914 0.960 . S
H914 C913 0.960 . S
H915 N895 0.862 . S
O916 Co884 1.920 . S
O916 C889 1.289 . S
C917 O909 1.258 . S
C917 O910 1.266 . S
Co918 O921 1.970 . S
Co918 N935 1.989 . S
Co918 O943 1.967 . S
Co918 O950 1.920 . S
Co919 O922 1.966 . S
Co919 N928 2.022 . S
Co919 N936 1.993 . S
Co919 O944 1.941 . S
C920 O921 1.258 . S
C920 O922 1.263 . S
O921 Co918 1.970 . S
O921 C920 1.258 . S
O922 Co919 1.966 . S
O922 C920 1.263 . S
C923 O924 1.235 . S
C923 O950 1.289 . S
O924 C923 1.235 . S
C925 C927 1.400 . S
C925 N928 1.351 . S
C925 C930 1.501 . S
C926 C927 1.387 . S
C926 N929 1.341 . S
C927 C925 1.400 . S
C927 C926 1.387 . S
N928 Co919 2.022 . S
N928 C925 1.351 . S
N928 N929 1.365 . S
N929 C926 1.341 . S
N929 N928 1.365 . S
N929 H949 0.862 . S
C930 C925 1.501 . S
C930 H931 0.961 . S
C930 H932 0.961 . S
C930 H933 0.960 . S
H931 C930 0.961 . S
H932 C930 0.961 . S
H933 C930 0.960 . S
C934 N935 1.342 . S
C934 C938 1.401 . S
C934 C939 1.499 . S
N935 Co918 1.989 . S
N935 C934 1.342 . S
N935 N936 1.388 . S
N936 Co919 1.993 . S
N936 N935 1.388 . S
N936 C937 1.346 . S
C937 N936 1.346 . S
C937 C938 1.396 . S
C937 C947 1.510 . S
C938 C934 1.401 . S
C938 C937 1.396 . S
C939 C934 1.499 . S
C939 H940 0.959 . S
C939 H941 0.960 . S
C939 H942 0.961 . S
H940 C939 0.959 . S
H941 C939 0.960 . S
H942 C939 0.961 . S
O943 Co918 1.967 . S
O943 C951 1.258 . S
O944 Co919 1.941 . S
O944 C951 1.266 . S
H945 C947 0.959 . S
H946 C947 0.961 . S
C947 C937 1.510 . S
C947 H945 0.959 . S
C947 H946 0.961 . S
C947 H948 0.960 . S
H948 C947 0.960 . S
H949 N929 0.862 . S
O950 Co918 1.920 . S
O950 C923 1.289 . S
C951 O943 1.258 . S
C951 O944 1.266 . S
Co952 O955 1.970 . S
Co952 N969 1.989 . S
Co952 O977 1.967 . S
Co952 O984 1.920 . S
Co953 O956 1.966 . S
Co953 N962 2.022 . S
Co953 N970 1.993 . S
Co953 O978 1.941 . S
C954 O955 1.258 . S
C954 O956 1.263 . S
O955 Co952 1.970 . S
O955 C954 1.258 . S
O956 Co953 1.966 . S
O956 C954 1.263 . S
C957 O958 1.235 . S
C957 O984 1.289 . S
O958 C957 1.235 . S
C959 C961 1.400 . S
C959 N962 1.351 . S
C959 C964 1.501 . S
C960 C961 1.387 . S
C960 N963 1.341 . S
C961 C959 1.400 . S
C961 C960 1.387 . S
N962 Co953 2.022 . S
N962 C959 1.351 . S
N962 N963 1.365 . S
N963 C960 1.341 . S
N963 N962 1.365 . S
N963 H983 0.862 . S
C964 C959 1.501 . S
C964 H965 0.961 . S
C964 H966 0.961 . S
C964 H967 0.960 . S
H965 C964 0.961 . S
H966 C964 0.961 . S
H967 C964 0.960 . S
C968 N969 1.342 . S
C968 C972 1.401 . S
C968 C973 1.499 . S
N969 Co952 1.989 . S
N969 C968 1.342 . S
N969 N970 1.388 . S
N970 Co953 1.993 . S
N970 N969 1.388 . S
N970 C971 1.346 . S
C971 N970 1.346 . S
C971 C972 1.396 . S
C971 C981 1.510 . S
C972 C968 1.401 . S
C972 C971 1.396 . S
C973 C968 1.499 . S
C973 H974 0.959 . S
C973 H975 0.960 . S
C973 H976 0.961 . S
H974 C973 0.959 . S
H975 C973 0.960 . S
H976 C973 0.961 . S
O977 Co952 1.967 . S
O977 C985 1.258 . S
O978 Co953 1.941 . S
O978 C985 1.266 . S
H979 C981 0.959 . S
H980 C981 0.961 . S
C981 C971 1.510 . S
C981 H979 0.959 . S
C981 H980 0.961 . S
C981 H982 0.960 . S
H982 C981 0.960 . S
H983 N963 0.862 . S
O984 Co952 1.920 . S
O984 C957 1.289 . S
C985 O977 1.258 . S
C985 O978 1.266 . S
Co986 O989 1.970 . S
Co986 N1003 1.989 . S
Co986 O1011 1.967 . S
Co986 O1018 1.920 . S
Co987 O990 1.966 . S
Co987 N996 2.022 . S
Co987 N1004 1.993 . S
Co987 O1012 1.941 . S
C988 O989 1.258 . S
C988 O990 1.263 . S
O989 Co986 1.970 . S
O989 C988 1.258 . S
O990 Co987 1.966 . S
O990 C988 1.263 . S
C991 O992 1.235 . S
C991 O1018 1.289 . S
O992 C991 1.235 . S
C993 C995 1.400 . S
C993 N996 1.351 . S
C993 C998 1.501 . S
C994 C995 1.387 . S
C994 N997 1.341 . S
C995 C993 1.400 . S
C995 C994 1.387 . S
N996 Co987 2.022 . S
N996 C993 1.351 . S
N996 N997 1.365 . S
N997 C994 1.341 . S
N997 N996 1.365 . S
N997 H1017 0.862 . S
C998 C993 1.501 . S
C998 H999 0.961 . S
C998 H1000 0.961 . S
C998 H1001 0.960 . S
H999 C998 0.961 . S
H1000 C998 0.961 . S
H1001 C998 0.960 . S
C1002 N1003 1.342 . S
C1002 C1006 1.401 . S
C1002 C1007 1.499 . S
N1003 Co986 1.989 . S
N1003 C1002 1.342 . S
N1003 N1004 1.388 . S
N1004 Co987 1.993 . S
N1004 N1003 1.388 . S
N1004 C1005 1.346 . S
C1005 N1004 1.346 . S
C1005 C1006 1.396 . S
C1005 C1015 1.510 . S
C1006 C1002 1.401 . S
C1006 C1005 1.396 . S
C1007 C1002 1.499 . S
C1007 H1008 0.959 . S
C1007 H1009 0.960 . S
C1007 H1010 0.961 . S
H1008 C1007 0.959 . S
H1009 C1007 0.960 . S
H1010 C1007 0.961 . S
O1011 Co986 1.967 . S
O1011 C1019 1.258 . S
O1012 Co987 1.941 . S
O1012 C1019 1.266 . S
H1013 C1015 0.959 . S
H1014 C1015 0.961 . S
C1015 C1005 1.510 . S
C1015 H1013 0.959 . S
C1015 H1014 0.961 . S
C1015 H1016 0.960 . S
H1016 C1015 0.960 . S
H1017 N997 0.862 . S
O1018 Co986 1.920 . S
O1018 C991 1.289 . S
C1019 O1011 1.258 . S
C1019 O1012 1.266 . S
Co1020 O1023 1.970 . S
Co1020 N1037 1.989 . S
Co1020 O1045 1.967 . S
Co1020 O1052 1.920 . S
Co1021 O1024 1.966 . S
Co1021 N1030 2.022 . S
Co1021 N1038 1.993 . S
Co1021 O1046 1.941 . S
C1022 O1023 1.258 . S
C1022 O1024 1.263 . S
O1023 Co1020 1.970 . S
O1023 C1022 1.258 . S
O1024 Co1021 1.966 . S
O1024 C1022 1.263 . S
C1025 O1026 1.235 . S
C1025 O1052 1.289 . S
O1026 C1025 1.235 . S
C1027 C1029 1.400 . S
C1027 N1030 1.351 . S
C1027 C1032 1.501 . S
C1028 C1029 1.387 . S
C1028 N1031 1.341 . S
C1029 C1027 1.400 . S
C1029 C1028 1.387 . S
N1030 Co1021 2.022 . S
N1030 C1027 1.351 . S
N1030 N1031 1.365 . S
N1031 C1028 1.341 . S
N1031 N1030 1.365 . S
N1031 H1051 0.862 . S
C1032 C1027 1.501 . S
C1032 H1033 0.961 . S
C1032 H1034 0.961 . S
C1032 H1035 0.960 . S
H1033 C1032 0.961 . S
H1034 C1032 0.961 . S
H1035 C1032 0.960 . S
C1036 N1037 1.342 . S
C1036 C1040 1.401 . S
C1036 C1041 1.499 . S
N1037 Co1020 1.989 . S
N1037 C1036 1.342 . S
N1037 N1038 1.388 . S
N1038 Co1021 1.993 . S
N1038 N1037 1.388 . S
N1038 C1039 1.346 . S
C1039 N1038 1.346 . S
C1039 C1040 1.396 . S
C1039 C1049 1.510 . S
C1040 C1036 1.401 . S
C1040 C1039 1.396 . S
C1041 C1036 1.499 . S
C1041 H1042 0.959 . S
C1041 H1043 0.960 . S
C1041 H1044 0.961 . S
H1042 C1041 0.959 . S
H1043 C1041 0.960 . S
H1044 C1041 0.961 . S
O1045 Co1020 1.967 . S
O1045 C1053 1.258 . S
O1046 Co1021 1.941 . S
O1046 C1053 1.266 . S
H1047 C1049 0.959 . S
H1048 C1049 0.961 . S
C1049 C1039 1.510 . S
C1049 H1047 0.959 . S
C1049 H1048 0.961 . S
C1049 H1050 0.960 . S
H1050 C1049 0.960 . S
H1051 N1031 0.862 . S
O1052 Co1020 1.920 . S
O1052 C1025 1.289 . S
C1053 O1045 1.258 . S
C1053 O1046 1.266 . S
Co1054 O1057 1.970 . S
Co1054 N1071 1.989 . S
Co1054 O1079 1.967 . S
Co1054 O1086 1.920 . S
Co1055 O1058 1.966 . S
Co1055 N1064 2.022 . S
Co1055 N1072 1.993 . S
Co1055 O1080 1.941 . S
C1056 O1057 1.258 . S
C1056 O1058 1.263 . S
O1057 Co1054 1.970 . S
O1057 C1056 1.258 . S
O1058 Co1055 1.966 . S
O1058 C1056 1.263 . S
C1059 O1060 1.235 . S
C1059 O1086 1.289 . S
O1060 C1059 1.235 . S
C1061 C1063 1.400 . S
C1061 N1064 1.351 . S
C1061 C1066 1.501 . S
C1062 C1063 1.387 . S
C1062 N1065 1.341 . S
C1063 C1061 1.400 . S
C1063 C1062 1.387 . S
N1064 Co1055 2.022 . S
N1064 C1061 1.351 . S
N1064 N1065 1.365 . S
N1065 C1062 1.341 . S
N1065 N1064 1.365 . S
N1065 H1085 0.862 . S
C1066 C1061 1.501 . S
C1066 H1067 0.961 . S
C1066 H1068 0.961 . S
C1066 H1069 0.960 . S
H1067 C1066 0.961 . S
H1068 C1066 0.961 . S
H1069 C1066 0.960 . S
C1070 N1071 1.342 . S
C1070 C1074 1.401 . S
C1070 C1075 1.499 . S
N1071 Co1054 1.989 . S
N1071 C1070 1.342 . S
N1071 N1072 1.388 . S
N1072 Co1055 1.993 . S
N1072 N1071 1.388 . S
N1072 C1073 1.346 . S
C1073 N1072 1.346 . S
C1073 C1074 1.396 . S
C1073 C1083 1.510 . S
C1074 C1070 1.401 . S
C1074 C1073 1.396 . S
C1075 C1070 1.499 . S
C1075 H1076 0.959 . S
C1075 H1077 0.960 . S
C1075 H1078 0.961 . S
H1076 C1075 0.959 . S
H1077 C1075 0.960 . S
H1078 C1075 0.961 . S
O1079 Co1054 1.967 . S
O1079 C1087 1.258 . S
O1080 Co1055 1.941 . S
O1080 C1087 1.266 . S
H1081 C1083 0.959 . S
H1082 C1083 0.961 . S
C1083 C1073 1.510 . S
C1083 H1081 0.959 . S
C1083 H1082 0.961 . S
C1083 H1084 0.960 . S
H1084 C1083 0.960 . S
H1085 N1065 0.862 . S
O1086 Co1054 1.920 . S
O1086 C1059 1.289 . S
C1087 O1079 1.258 . S
C1087 O1080 1.266 . S
H1088 C1094 0.930 . S
H1089 C1098 0.930 . S
H1090 C1103 0.929 . S
H1091 C1101 0.929 . S
H1092 C1096 0.929 . S
H1093 C1102 0.929 . S
C1094 H1088 0.930 . S
C1094 C1095 1.367 . S
C1094 C1102 1.378 . S
C1095 C1094 1.367 . S
C1095 C1103 1.433 . S
C1096 H1092 0.929 . S
C1096 C1098 1.378 . S
C1096 C1100 1.350 . S
C1097 C1100 1.463 . S
C1097 C1102 1.350 . S
C1097 N1105 1.427 . S
C1098 H1089 0.930 . S
C1098 C1096 1.378 . S
C1098 C1099 1.367 . S
C1099 C1098 1.367 . S
C1099 C1101 1.433 . S
C1100 C1096 1.350 . S
C1100 C1097 1.463 . S
C1100 N1104 1.427 . S
C1101 H1091 0.929 . S
C1101 C1099 1.433 . S
C1101 N1104 1.384 . S
C1102 H1093 0.929 . S
C1102 C1094 1.378 . S
C1102 C1097 1.350 . S
C1103 H1090 0.929 . S
C1103 C1095 1.433 . S
C1103 N1105 1.384 . S
N1104 C1100 1.427 . S
N1104 C1101 1.384 . S
N1105 C1097 1.427 . S
N1105 C1103 1.384 . S
H1106 C1112 0.930 . S
H1107 C1116 0.930 . S
H1108 C1121 0.929 . S
H1109 C1119 0.929 1_545 S
H1110 C1114 0.929 . S
H1111 C1120 0.929 . S
C1112 H1106 0.930 . S
C1112 C1113 1.367 . S
C1112 C1120 1.378 . S
C1113 C1112 1.367 . S
C1113 C1121 1.433 . S
C1114 H1110 0.929 . S
C1114 C1116 1.378 . S
C1114 C1118 1.357 . S
C1115 C1118 1.458 1_545 S
C1115 C1120 1.350 . S
C1115 N1123 1.427 . S
C1116 H1107 0.930 . S
C1116 C1114 1.378 . S
C1116 C1117 1.367 . S
C1117 C1116 1.367 . S
C1117 C1119 1.433 . S
C1118 C1114 1.357 . S
C1118 C1115 1.458 1_565 S
C1118 N1122 1.424 1_565 S
C1119 H1109 0.929 1_565 S
C1119 C1117 1.433 . S
C1119 N1122 1.384 1_565 S
C1120 H1111 0.929 . S
C1120 C1112 1.378 . S
C1120 C1115 1.350 . S
C1121 H1108 0.929 . S
C1121 C1113 1.433 . S
C1121 N1123 1.384 . S
N1122 C1118 1.424 1_545 S
N1122 C1119 1.384 1_545 S
N1123 C1115 1.427 . S
N1123 C1121 1.384 . S
H1124 C1130 0.930 . S
H1125 C1134 0.930 . S
H1126 C1139 0.929 . S
H1127 C1137 0.929 . S
H1128 C1132 0.929 . S
H1129 C1138 0.929 . S
C1130 H1124 0.930 . S
C1130 C1131 1.367 . S
C1130 C1138 1.378 . S
C1131 C1130 1.367 . S
C1131 C1139 1.433 . S
C1132 H1128 0.929 . S
C1132 C1134 1.378 . S
C1132 C1136 1.350 . S
C1133 C1136 1.463 . S
C1133 C1138 1.350 . S
C1133 N1141 1.427 . S
C1134 H1125 0.930 . S
C1134 C1132 1.378 . S
C1134 C1135 1.367 . S
C1135 C1134 1.367 . S
C1135 C1137 1.433 . S
C1136 C1132 1.350 . S
C1136 C1133 1.463 . S
C1136 N1140 1.427 . S
C1137 H1127 0.929 . S
C1137 C1135 1.433 . S
C1137 N1140 1.384 . S
C1138 H1129 0.929 . S
C1138 C1130 1.378 . S
C1138 C1133 1.350 . S
C1139 H1126 0.929 . S
C1139 C1131 1.433 . S
C1139 N1141 1.384 . S
N1140 C1136 1.427 . S
N1140 C1137 1.384 . S
N1141 C1133 1.427 . S
N1141 C1139 1.384 . S
H1142 C1148 0.930 . S
H1143 C1152 0.930 . S
H1144 C1157 0.929 . S
H1145 C1155 0.929 . S
H1146 C1150 0.929 1_565 S
H1147 C1156 0.929 . S
C1148 H1142 0.930 . S
C1148 C1149 1.367 . S
C1148 C1156 1.378 . S
C1149 C1148 1.367 . S
C1149 C1157 1.433 . S
C1150 H1146 0.929 1_545 S
C1150 C1152 1.378 1_455 S
C1150 C1154 1.350 1_545 S
C1151 C1154 1.464 . S
C1151 C1156 1.350 . S
C1151 N1159 1.427 . S
C1152 H1143 0.930 . S
C1152 C1150 1.378 1_655 S
C1152 C1153 1.367 . S
C1153 C1152 1.367 . S
C1153 C1155 1.433 . S
C1154 C1150 1.350 1_565 S
C1154 C1151 1.464 . S
C1154 N1158 1.426 1_565 S
C1155 H1145 0.929 . S
C1155 C1153 1.433 . S
C1155 N1158 1.384 1_655 S
C1156 H1147 0.929 . S
C1156 C1148 1.378 . S
C1156 C1151 1.350 . S
C1157 H1144 0.929 . S
C1157 C1149 1.433 . S
C1157 N1159 1.384 . S
N1158 C1154 1.426 1_545 S
N1158 C1155 1.384 1_455 S
N1159 C1151 1.427 . S
N1159 C1157 1.384 . S
H1160 C1166 0.930 . S
H1161 C1170 0.930 . S
H1162 C1175 0.929 . S
H1163 C1173 0.929 . S
H1164 C1168 0.929 . S
H1165 C1174 0.929 . S
C1166 H1160 0.930 . S
C1166 C1167 1.367 . S
C1166 C1174 1.378 . S
C1167 C1166 1.367 . S
C1167 C1175 1.433 . S
C1168 H1164 0.929 . S
C1168 C1170 1.378 . S
C1168 C1172 1.350 . S
C1169 C1172 1.463 . S
C1169 C1174 1.350 . S
C1169 N1177 1.427 . S
C1170 H1161 0.930 . S
C1170 C1168 1.378 . S
C1170 C1171 1.367 . S
C1171 C1170 1.367 . S
C1171 C1173 1.433 . S
C1172 C1168 1.350 . S
C1172 C1169 1.463 . S
C1172 N1176 1.427 . S
C1173 H1163 0.929 . S
C1173 C1171 1.433 . S
C1173 N1176 1.384 . S
C1174 H1165 0.929 . S
C1174 C1166 1.378 . S
C1174 C1169 1.350 . S
C1175 H1162 0.929 . S
C1175 C1167 1.433 . S
C1175 N1177 1.384 . S
N1176 C1172 1.427 . S
N1176 C1173 1.384 . S
N1177 C1169 1.427 . S
N1177 C1175 1.384 . S
H1178 C1184 0.930 1_565 S
H1179 C1188 0.930 . S
H1180 C1193 0.929 . S
H1181 C1191 0.929 . S
H1182 C1186 0.929 1_455 S
H1183 C1192 0.929 . S
C1184 H1178 0.930 1_545 S
C1184 C1185 1.367 . S
C1184 C1192 1.378 1_545 S
C1185 C1184 1.367 . S
C1185 C1193 1.433 . S
C1186 H1182 0.929 1_655 S
C1186 C1188 1.378 . S
C1186 C1190 1.350 1_655 S
C1187 C1190 1.463 . S
C1187 C1192 1.350 1_545 S
C1187 N1195 1.427 . S
C1188 H1179 0.930 . S
C1188 C1186 1.378 . S
C1188 C1189 1.367 1_545 S
C1189 C1188 1.367 1_565 S
C1189 C1191 1.433 . S
C1190 C1186 1.350 1_455 S
C1190 C1187 1.463 . S
C1190 N1194 1.427 1_545 S
C1191 H1181 0.929 . S
C1191 C1189 1.433 . S
C1191 N1194 1.384 1_655 S
C1192 H1183 0.929 . S
C1192 C1184 1.378 1_565 S
C1192 C1187 1.350 1_565 S
C1193 H1180 0.929 . S
C1193 C1185 1.433 . S
C1193 N1195 1.384 . S
N1194 C1190 1.427 1_565 S
N1194 C1191 1.384 1_455 S
N1195 C1187 1.427 . S
N1195 C1193 1.384 . S
H1196 C1202 0.930 . S
H1197 C1206 0.930 . S
H1198 C1211 0.929 . S
H1199 C1209 0.929 . S
H1200 C1204 0.929 . S
H1201 C1210 0.929 . S
C1202 H1196 0.930 . S
C1202 C1203 1.367 . S
C1202 C1210 1.378 . S
C1203 C1202 1.367 . S
C1203 C1211 1.433 . S
C1204 H1200 0.929 . S
C1204 C1206 1.378 . S
C1204 C1208 1.350 . S
C1205 C1208 1.463 . S
C1205 C1210 1.350 . S
C1205 N1213 1.427 . S
C1206 H1197 0.930 . S
C1206 C1204 1.378 . S
C1206 C1207 1.367 . S
C1207 C1206 1.367 . S
C1207 C1209 1.433 . S
C1208 C1204 1.350 . S
C1208 C1205 1.463 . S
C1208 N1212 1.427 . S
C1209 H1199 0.929 . S
C1209 C1207 1.433 . S
C1209 N1212 1.384 . S
C1210 H1201 0.929 . S
C1210 C1202 1.378 . S
C1210 C1205 1.350 . S
C1211 H1198 0.929 . S
C1211 C1203 1.433 . S
C1211 N1213 1.384 . S
N1212 C1208 1.427 . S
N1212 C1209 1.384 . S
N1213 C1205 1.427 . S
N1213 C1211 1.384 . S
H1214 C1220 0.930 . S
H1215 C1224 0.930 . S
H1216 C1229 0.929 . S
H1217 C1227 0.929 . S
H1218 C1222 0.929 . S
H1219 C1228 0.929 . S
C1220 H1214 0.930 . S
C1220 C1221 1.367 . S
C1220 C1228 1.378 . S
C1221 C1220 1.367 . S
C1221 C1229 1.433 . S
C1222 H1218 0.929 . S
C1222 C1224 1.378 . S
C1222 C1226 1.350 . S
C1223 C1226 1.462 . S
C1223 C1228 1.350 1_565 S
C1223 N1231 1.427 1_565 S
C1224 H1215 0.930 . S
C1224 C1222 1.378 . S
C1224 C1225 1.367 . S
C1225 C1224 1.367 . S
C1225 C1227 1.433 . S
C1226 C1222 1.350 . S
C1226 C1223 1.462 . S
C1226 N1230 1.427 . S
C1227 H1217 0.929 . S
C1227 C1225 1.433 . S
C1227 N1230 1.384 . S
C1228 H1219 0.929 . S
C1228 C1220 1.378 . S
C1228 C1223 1.350 1_545 S
C1229 H1216 0.929 . S
C1229 C1221 1.433 . S
C1229 N1231 1.384 . S
N1230 C1226 1.427 . S
N1230 C1227 1.384 . S
N1231 C1223 1.427 1_545 S
N1231 C1229 1.384 . S
H1232 C1238 0.930 . S
H1233 C1242 0.930 . S
H1234 C1247 0.929 . S
H1235 C1245 0.929 . S
H1236 C1240 0.929 . S
H1237 C1246 0.929 . S
C1238 H1232 0.930 . S
C1238 C1239 1.367 . S
C1238 C1246 1.378 . S
C1239 C1238 1.367 . S
C1239 C1247 1.433 . S
C1240 H1236 0.929 . S
C1240 C1242 1.378 . S
C1240 C1244 1.350 . S
C1241 C1244 1.463 . S
C1241 C1246 1.350 . S
C1241 N1249 1.427 . S
C1242 H1233 0.930 . S
C1242 C1240 1.378 . S
C1242 C1243 1.367 . S
C1243 C1242 1.367 . S
C1243 C1245 1.433 . S
C1244 C1240 1.350 . S
C1244 C1241 1.463 . S
C1244 N1248 1.427 . S
C1245 H1235 0.929 . S
C1245 C1243 1.433 . S
C1245 N1248 1.384 . S
C1246 H1237 0.929 . S
C1246 C1238 1.378 . S
C1246 C1241 1.350 . S
C1247 H1234 0.929 . S
C1247 C1239 1.433 . S
C1247 N1249 1.384 . S
N1248 C1244 1.427 . S
N1248 C1245 1.384 . S
N1249 C1241 1.427 . S
N1249 C1247 1.384 . S
H1250 C1256 0.930 . S
H1251 C1260 0.930 . S
H1252 C1265 0.929 . S
H1253 C1263 0.929 . S
H1254 C1258 0.929 . S
H1255 C1264 0.931 . S
C1256 H1250 0.930 . S
C1256 C1257 1.367 . S
C1256 C1264 1.376 1_565 S
C1257 C1256 1.367 . S
C1257 C1265 1.433 . S
C1258 H1254 0.929 . S
C1258 C1260 1.378 . S
C1258 C1262 1.357 . S
C1259 C1262 1.469 . S
C1259 C1264 1.348 1_565 S
C1259 N1267 1.427 . S
C1260 H1251 0.930 . S
C1260 C1258 1.378 . S
C1260 C1261 1.367 1_565 S
C1261 C1260 1.367 1_545 S
C1261 C1263 1.433 . S
C1262 C1258 1.357 . S
C1262 C1259 1.469 . S
C1262 N1266 1.413 1_565 S
C1263 H1253 0.929 . S
C1263 C1261 1.433 . S
C1263 N1266 1.384 . S
C1264 H1255 0.931 . S
C1264 C1256 1.376 1_545 S
C1264 C1259 1.348 1_545 S
C1265 H1252 0.929 . S
C1265 C1257 1.433 . S
C1265 N1267 1.384 . S
N1266 C1262 1.413 1_545 S
N1266 C1263 1.384 . S
N1267 C1259 1.427 . S
N1267 C1265 1.384 . S
H1268 C1274 0.930 . S
H1269 C1278 0.930 . S
H1270 C1283 0.929 . S
H1271 C1281 0.929 . S
H1272 C1276 0.929 . S
H1273 C1282 0.929 . S
C1274 H1268 0.930 . S
C1274 C1275 1.367 . S
C1274 C1282 1.378 . S
C1275 C1274 1.367 . S
C1275 C1283 1.433 . S
C1276 H1272 0.929 . S
C1276 C1278 1.378 . S
C1276 C1280 1.350 . S
C1277 C1280 1.463 . S
C1277 C1282 1.350 . S
C1277 N1285 1.427 . S
C1278 H1269 0.930 . S
C1278 C1276 1.378 . S
C1278 C1279 1.367 . S
C1279 C1278 1.367 . S
C1279 C1281 1.433 . S
C1280 C1276 1.350 . S
C1280 C1277 1.463 . S
C1280 N1284 1.427 . S
C1281 H1271 0.929 . S
C1281 C1279 1.433 . S
C1281 N1284 1.384 . S
C1282 H1273 0.929 . S
C1282 C1274 1.378 . S
C1282 C1277 1.350 . S
C1283 H1270 0.929 . S
C1283 C1275 1.433 . S
C1283 N1285 1.384 . S
N1284 C1280 1.427 . S
N1284 C1281 1.384 . S
N1285 C1277 1.427 . S
N1285 C1283 1.384 . S
H1286 C1292 0.930 . S
H1287 C1296 0.930 . S
H1288 C1301 0.929 . S
H1289 C1299 0.929 . S
H1290 C1294 0.929 . S
H1291 C1300 0.929 . S
C1292 H1286 0.930 . S
C1292 C1293 1.367 . S
C1292 C1300 1.378 1_455 S
C1293 C1292 1.367 . S
C1293 C1301 1.433 1_565 S
C1294 H1290 0.929 . S
C1294 C1296 1.378 . S
C1294 C1298 1.350 . S
C1295 C1298 1.463 1_565 S
C1295 C1300 1.350 . S
C1295 N1303 1.427 1_665 S
C1296 H1287 0.930 . S
C1296 C1294 1.378 . S
C1296 C1297 1.367 . S
C1297 C1296 1.367 . S
C1297 C1299 1.433 1_545 S
C1298 C1294 1.350 . S
C1298 C1295 1.463 1_545 S
C1298 N1302 1.427 1_545 S
C1299 H1289 0.929 . S
C1299 C1297 1.433 1_565 S
C1299 N1302 1.384 . S
C1300 H1291 0.929 . S
C1300 C1292 1.378 1_655 S
C1300 C1295 1.350 . S
C1301 H1288 0.929 . S
C1301 C1293 1.433 1_545 S
C1301 N1303 1.384 . S
N1302 C1298 1.427 1_565 S
N1302 C1299 1.384 . S
N1303 C1295 1.427 1_445 S
N1303 C1301 1.384 . S
H1304 C1310 0.930 . S
H1305 C1314 0.930 . S
H1306 C1319 0.929 . S
H1307 C1317 0.929 . S
H1308 C1312 0.929 . S
H1309 C1318 0.929 . S
C1310 H1304 0.930 . S
C1310 C1311 1.367 . S
C1310 C1318 1.378 . S
C1311 C1310 1.367 . S
C1311 C1319 1.433 . S
C1312 H1308 0.929 . S
C1312 C1314 1.378 . S
C1312 C1316 1.350 . S
C1313 C1316 1.463 . S
C1313 C1318 1.350 . S
C1313 N1321 1.427 . S
C1314 H1305 0.930 . S
C1314 C1312 1.378 . S
C1314 C1315 1.367 . S
C1315 C1314 1.367 . S
C1315 C1317 1.433 . S
C1316 C1312 1.350 . S
C1316 C1313 1.463 . S
C1316 N1320 1.427 . S
C1317 H1307 0.929 . S
C1317 C1315 1.433 . S
C1317 N1320 1.384 . S
C1318 H1309 0.929 . S
C1318 C1310 1.378 . S
C1318 C1313 1.350 . S
C1319 H1306 0.929 . S
C1319 C1311 1.433 . S
C1319 N1321 1.384 . S
N1320 C1316 1.427 . S
N1320 C1317 1.384 . S
N1321 C1313 1.427 . S
N1321 C1319 1.384 . S
H1322 C1328 0.930 . S
H1323 C1332 0.930 . S
H1324 C1337 0.929 . S
H1325 C1335 0.929 1_545 S
H1326 C1330 0.929 . S
H1327 C1336 0.929 . S
C1328 H1322 0.930 . S
C1328 C1329 1.367 . S
C1328 C1336 1.378 1_455 S
C1329 C1328 1.367 . S
C1329 C1337 1.433 1_545 S
C1330 H1326 0.929 . S
C1330 C1332 1.378 . S
C1330 C1334 1.350 . S
C1331 C1334 1.463 1_545 S
C1331 C1336 1.350 . S
C1331 N1339 1.425 1_645 S
C1332 H1323 0.930 . S
C1332 C1330 1.378 . S
C1332 C1333 1.367 . S
C1333 C1332 1.367 . S
C1333 C1335 1.433 . S
C1334 C1330 1.350 . S
C1334 C1331 1.463 1_565 S
C1334 N1338 1.427 1_565 S
C1335 H1325 0.929 1_565 S
C1335 C1333 1.433 . S
C1335 N1338 1.384 1_565 S
C1336 H1327 0.929 . S
C1336 C1328 1.378 1_655 S
C1336 C1331 1.350 . S
C1337 H1324 0.929 . S
C1337 C1329 1.433 1_565 S
C1337 N1339 1.387 . S
N1338 C1334 1.427 1_545 S
N1338 C1335 1.384 1_545 S
N1339 C1331 1.425 1_465 S
N1339 C1337 1.387 . S
H1340 C1346 0.930 . S
H1341 C1350 0.930 . S
H1342 C1355 0.929 . S
H1343 C1353 0.929 . S
H1344 C1348 0.929 . S
H1345 C1354 0.929 . S
C1346 H1340 0.930 . S
C1346 C1347 1.367 . S
C1346 C1354 1.378 . S
C1347 C1346 1.367 . S
C1347 C1355 1.433 . S
C1348 H1344 0.929 . S
C1348 C1350 1.378 . S
C1348 C1352 1.350 . S
C1349 C1352 1.463 . S
C1349 C1354 1.350 . S
C1349 N1357 1.427 . S
C1350 H1341 0.930 . S
C1350 C1348 1.378 . S
C1350 C1351 1.367 . S
C1351 C1350 1.367 . S
C1351 C1353 1.433 . S
C1352 C1348 1.350 . S
C1352 C1349 1.463 . S
C1352 N1356 1.427 . S
C1353 H1343 0.929 . S
C1353 C1351 1.433 . S
C1353 N1356 1.384 . S
C1354 H1345 0.929 . S
C1354 C1346 1.378 . S
C1354 C1349 1.350 . S
C1355 H1342 0.929 . S
C1355 C1347 1.433 . S
C1355 N1357 1.384 . S
N1356 C1352 1.427 . S
N1356 C1353 1.384 . S
N1357 C1349 1.427 . S
N1357 C1355 1.384 . S
H1358 C1364 0.930 . S
H1359 C1368 0.930 . S
H1360 C1373 0.929 . S
H1361 C1371 0.924 1_545 S
H1362 C1366 0.929 . S
H1363 C1372 0.929 . S
C1364 H1358 0.930 . S
C1364 C1365 1.367 . S
C1364 C1372 1.378 . S
C1365 C1364 1.367 . S
C1365 C1373 1.433 . S
C1366 H1362 0.929 . S
C1366 C1368 1.378 . S
C1366 C1370 1.359 . S
C1367 C1370 1.458 1_545 S
C1367 C1372 1.350 . S
C1367 N1375 1.427 . S
C1368 H1359 0.930 . S
C1368 C1366 1.378 . S
C1368 C1369 1.367 . S
C1369 C1368 1.367 . S
C1369 C1371 1.444 . S
C1370 C1366 1.359 . S
C1370 C1367 1.458 1_565 S
C1370 N1374 1.423 1_565 S
C1371 H1361 0.924 1_565 S
C1371 C1369 1.444 . S
C1371 N1374 1.378 1_565 S
C1372 H1363 0.929 . S
C1372 C1364 1.378 . S
C1372 C1367 1.350 . S
C1373 H1360 0.929 . S
C1373 C1365 1.433 . S
C1373 N1375 1.384 . S
N1374 C1370 1.423 1_545 S
N1374 C1371 1.378 1_545 S
N1375 C1367 1.427 . S
N1375 C1373 1.384 . S
H1376 C1382 0.930 . S
H1377 C1386 0.930 . S
H1378 C1391 0.929 . S
H1379 C1389 0.929 . S
H1380 C1384 0.929 . S
H1381 C1390 0.929 . S
C1382 H1376 0.930 . S
C1382 C1383 1.367 . S
C1382 C1390 1.378 . S
C1383 C1382 1.367 . S
C1383 C1391 1.433 . S
C1384 H1380 0.929 . S
C1384 C1386 1.378 . S
C1384 C1388 1.350 . S
C1385 C1388 1.463 . S
C1385 C1390 1.350 . S
C1385 N1393 1.427 . S
C1386 H1377 0.930 . S
C1386 C1384 1.378 . S
C1386 C1387 1.367 . S
C1387 C1386 1.367 . S
C1387 C1389 1.433 . S
C1388 C1384 1.350 . S
C1388 C1385 1.463 . S
C1388 N1392 1.427 . S
C1389 H1379 0.929 . S
C1389 C1387 1.433 . S
C1389 N1392 1.384 . S
C1390 H1381 0.929 . S
C1390 C1382 1.378 . S
C1390 C1385 1.350 . S
C1391 H1378 0.929 . S
C1391 C1383 1.433 . S
C1391 N1393 1.384 . S
N1392 C1388 1.427 . S
N1392 C1389 1.384 . S
N1393 C1385 1.427 . S
N1393 C1391 1.384 . S
H1394 C1400 0.930 . S
H1395 C1404 0.930 . S
H1396 C1409 0.929 . S
H1397 C1407 0.929 . S
H1398 C1402 0.929 . S
H1399 C1408 0.929 . S
C1400 H1394 0.930 . S
C1400 C1401 1.367 . S
C1400 C1408 1.378 1_455 S
C1401 C1400 1.367 . S
C1401 C1409 1.433 . S
C1402 H1398 0.929 . S
C1402 C1404 1.378 . S
C1402 C1406 1.350 . S
C1403 C1406 1.463 . S
C1403 C1408 1.350 . S
C1403 N1411 1.427 . S
C1404 H1395 0.930 . S
C1404 C1402 1.378 . S
C1404 C1405 1.367 . S
C1405 C1404 1.367 . S
C1405 C1407 1.433 . S
C1406 C1402 1.350 . S
C1406 C1403 1.463 . S
C1406 N1410 1.427 . S
C1407 H1397 0.929 . S
C1407 C1405 1.433 . S
C1407 N1410 1.384 . S
C1408 H1399 0.929 . S
C1408 C1400 1.378 1_655 S
C1408 C1403 1.350 . S
C1409 H1396 0.929 . S
C1409 C1401 1.433 . S
C1409 N1411 1.384 1_455 S
N1410 C1406 1.427 . S
N1410 C1407 1.384 . S
N1411 C1403 1.427 . S
N1411 C1409 1.384 1_655 S
H1412 C1418 0.930 . S
H1413 C1422 0.930 . S
H1414 C1427 0.929 . S
H1415 C1425 0.929 . S
H1416 C1420 0.929 . S
H1417 C1426 0.929 . S
C1418 H1412 0.930 . S
C1418 C1419 1.367 . S
C1418 C1426 1.378 . S
C1419 C1418 1.367 . S
C1419 C1427 1.433 . S
C1420 H1416 0.929 . S
C1420 C1422 1.378 . S
C1420 C1424 1.350 . S
C1421 C1424 1.463 . S
C1421 C1426 1.350 . S
C1421 N1429 1.427 . S
C1422 H1413 0.930 . S
C1422 C1420 1.378 . S
C1422 C1423 1.367 . S
C1423 C1422 1.367 . S
C1423 C1425 1.433 . S
C1424 C1420 1.350 . S
C1424 C1421 1.463 . S
C1424 N1428 1.427 . S
C1425 H1415 0.929 . S
C1425 C1423 1.433 . S
C1425 N1428 1.384 . S
C1426 H1417 0.929 . S
C1426 C1418 1.378 . S
C1426 C1421 1.350 . S
C1427 H1414 0.929 . S
C1427 C1419 1.433 . S
C1427 N1429 1.384 . S
N1428 C1424 1.427 . S
N1428 C1425 1.384 . S
N1429 C1421 1.427 . S
N1429 C1427 1.384 . S
H1430 C1436 0.930 . S
H1431 C1440 0.930 . S
H1432 C1445 0.929 . S
H1433 C1443 0.929 . S
H1434 C1438 0.929 . S
H1435 C1444 0.929 . S
C1436 H1430 0.930 . S
C1436 C1437 1.367 . S
C1436 C1444 1.378 . S
C1437 C1436 1.367 . S
C1437 C1445 1.433 . S
C1438 H1434 0.929 . S
C1438 C1440 1.378 . S
C1438 C1442 1.350 . S
C1439 C1442 1.463 . S
C1439 C1444 1.350 . S
C1439 N1447 1.427 . S
C1440 H1431 0.930 . S
C1440 C1438 1.378 . S
C1440 C1441 1.367 . S
C1441 C1440 1.367 . S
C1441 C1443 1.433 . S
C1442 C1438 1.350 . S
C1442 C1439 1.463 . S
C1442 N1446 1.427 . S
C1443 H1433 0.929 . S
C1443 C1441 1.433 . S
C1443 N1446 1.384 . S
C1444 H1435 0.929 . S
C1444 C1436 1.378 . S
C1444 C1439 1.350 . S
C1445 H1432 0.929 . S
C1445 C1437 1.433 . S
C1445 N1447 1.384 . S
N1446 C1442 1.427 . S
N1446 C1443 1.384 . S
N1447 C1439 1.427 . S
N1447 C1445 1.384 . S
H1448 C1454 0.930 . S
H1449 C1458 0.930 . S
H1450 C1463 0.929 . S
H1451 C1461 0.929 . S
H1452 C1456 0.929 . S
H1453 C1462 0.929 . S
C1454 H1448 0.930 . S
C1454 C1455 1.367 . S
C1454 C1462 1.378 . S
C1455 C1454 1.367 . S
C1455 C1463 1.433 . S
C1456 H1452 0.929 . S
C1456 C1458 1.378 . S
C1456 C1460 1.350 . S
C1457 C1460 1.463 . S
C1457 C1462 1.350 . S
C1457 N1465 1.427 . S
C1458 H1449 0.930 . S
C1458 C1456 1.378 . S
C1458 C1459 1.367 . S
C1459 C1458 1.367 . S
C1459 C1461 1.433 . S
C1460 C1456 1.350 . S
C1460 C1457 1.463 . S
C1460 N1464 1.427 . S
C1461 H1451 0.929 . S
C1461 C1459 1.433 . S
C1461 N1464 1.384 . S
C1462 H1453 0.929 . S
C1462 C1454 1.378 . S
C1462 C1457 1.350 . S
C1463 H1450 0.929 . S
C1463 C1455 1.433 . S
C1463 N1465 1.384 . S
N1464 C1460 1.427 . S
N1464 C1461 1.384 . S
N1465 C1457 1.427 . S
N1465 C1463 1.384 . S
H1466 C1472 0.930 . S
H1467 C1476 0.930 . S
H1468 C1481 0.929 . S
H1469 C1479 0.929 . S
H1470 C1474 0.929 . S
H1471 C1480 0.929 . S
C1472 H1466 0.930 . S
C1472 C1473 1.367 . S
C1472 C1480 1.378 . S
C1473 C1472 1.367 . S
C1473 C1481 1.433 . S
C1474 H1470 0.929 . S
C1474 C1476 1.378 . S
C1474 C1478 1.350 . S
C1475 C1478 1.463 . S
C1475 C1480 1.350 . S
C1475 N1483 1.427 . S
C1476 H1467 0.930 . S
C1476 C1474 1.378 . S
C1476 C1477 1.367 . S
C1477 C1476 1.367 . S
C1477 C1479 1.433 . S
C1478 C1474 1.350 . S
C1478 C1475 1.463 . S
C1478 N1482 1.427 . S
C1479 H1469 0.929 . S
C1479 C1477 1.433 . S
C1479 N1482 1.384 . S
C1480 H1471 0.929 . S
C1480 C1472 1.378 . S
C1480 C1475 1.350 . S
C1481 H1468 0.929 . S
C1481 C1473 1.433 . S
C1481 N1483 1.384 . S
N1482 C1478 1.427 . S
N1482 C1479 1.384 . S
N1483 C1475 1.427 . S
N1483 C1481 1.384 . S
H1484 C1490 0.930 . S
H1485 C1494 0.930 . S
H1486 C1499 0.929 . S
H1487 C1497 0.929 . S
H1488 C1492 0.929 . S
H1489 C1498 0.929 . S
C1490 H1484 0.930 . S
C1490 C1491 1.367 . S
C1490 C1498 1.378 . S
C1491 C1490 1.367 . S
C1491 C1499 1.433 . S
C1492 H1488 0.929 . S
C1492 C1494 1.378 . S
C1492 C1496 1.350 . S
C1493 C1496 1.463 . S
C1493 C1498 1.350 . S
C1493 N1501 1.427 . S
C1494 H1485 0.930 . S
C1494 C1492 1.378 . S
C1494 C1495 1.367 . S
C1495 C1494 1.367 . S
C1495 C1497 1.433 . S
C1496 C1492 1.350 . S
C1496 C1493 1.463 . S
C1496 N1500 1.427 . S
C1497 H1487 0.929 . S
C1497 C1495 1.433 . S
C1497 N1500 1.384 . S
C1498 H1489 0.929 . S
C1498 C1490 1.378 . S
C1498 C1493 1.350 . S
C1499 H1486 0.929 . S
C1499 C1491 1.433 . S
C1499 N1501 1.384 . S
N1500 C1496 1.427 . S
N1500 C1497 1.384 . S
N1501 C1493 1.427 . S
N1501 C1499 1.384 . S
H1502 C1508 0.930 . S
H1503 C1512 0.930 . S
H1504 C1517 0.929 . S
H1505 C1515 0.929 . S
H1506 C1510 0.929 . S
H1507 C1516 0.929 . S
C1508 H1502 0.930 . S
C1508 C1509 1.367 . S
C1508 C1516 1.378 1_455 S
C1509 C1508 1.367 . S
C1509 C1517 1.433 . S
C1510 H1506 0.929 . S
C1510 C1512 1.378 . S
C1510 C1514 1.350 . S
C1511 C1514 1.463 . S
C1511 C1516 1.350 . S
C1511 N1519 1.443 . S
C1512 H1503 0.930 . S
C1512 C1510 1.378 . S
C1512 C1513 1.367 . S
C1513 C1512 1.367 . S
C1513 C1515 1.433 . S
C1514 C1510 1.350 . S
C1514 C1511 1.463 . S
C1514 N1518 1.427 . S
C1515 H1505 0.929 . S
C1515 C1513 1.433 . S
C1515 N1518 1.384 . S
C1516 H1507 0.929 . S
C1516 C1508 1.378 1_655 S
C1516 C1511 1.350 . S
C1517 H1504 0.929 . S
C1517 C1509 1.433 . S
C1517 N1519 1.360 1_455 S
N1518 C1514 1.427 . S
N1518 C1515 1.384 . S
N1519 C1511 1.443 . S
N1519 C1517 1.360 1_655 S
H1520 C1526 0.930 . S
H1521 C1530 0.930 . S
H1522 C1535 0.929 . S
H1523 C1533 0.929 . S
H1524 C1528 0.929 . S
H1525 C1534 0.929 . S
C1526 H1520 0.930 . S
C1526 C1527 1.367 . S
C1526 C1534 1.378 . S
C1527 C1526 1.367 . S
C1527 C1535 1.433 . S
C1528 H1524 0.929 . S
C1528 C1530 1.378 . S
C1528 C1532 1.350 . S
C1529 C1532 1.463 . S
C1529 C1534 1.350 . S
C1529 N1537 1.427 . S
C1530 H1521 0.930 . S
C1530 C1528 1.378 . S
C1530 C1531 1.367 . S
C1531 C1530 1.367 . S
C1531 C1533 1.433 . S
C1532 C1528 1.350 . S
C1532 C1529 1.463 . S
C1532 N1536 1.427 . S
C1533 H1523 0.929 . S
C1533 C1531 1.433 . S
C1533 N1536 1.384 . S
C1534 H1525 0.929 . S
C1534 C1526 1.378 . S
C1534 C1529 1.350 . S
C1535 H1522 0.929 . S
C1535 C1527 1.433 . S
C1535 N1537 1.384 . S
N1536 C1532 1.427 . S
N1536 C1533 1.384 . S
N1537 C1529 1.427 . S
N1537 C1535 1.384 . S
H1538 C1544 0.930 . S
H1539 C1548 0.930 . S
H1540 C1553 0.929 . S
H1541 C1551 0.929 . S
H1542 C1546 0.929 . S
H1543 C1552 0.929 . S
C1544 H1538 0.930 . S
C1544 C1545 1.367 . S
C1544 C1552 1.378 1_655 S
C1545 C1544 1.367 . S
C1545 C1553 1.433 . S
C1546 H1542 0.929 . S
C1546 C1548 1.378 . S
C1546 C1550 1.350 . S
C1547 C1550 1.463 . S
C1547 C1552 1.350 . S
C1547 N1555 1.427 . S
C1548 H1539 0.930 . S
C1548 C1546 1.378 . S
C1548 C1549 1.367 . S
C1549 C1548 1.367 . S
C1549 C1551 1.433 . S
C1550 C1546 1.350 . S
C1550 C1547 1.463 . S
C1550 N1554 1.427 . S
C1551 H1541 0.929 . S
C1551 C1549 1.433 . S
C1551 N1554 1.384 . S
C1552 H1543 0.929 . S
C1552 C1544 1.378 1_455 S
C1552 C1547 1.350 . S
C1553 H1540 0.929 . S
C1553 C1545 1.433 . S
C1553 N1555 1.384 1_655 S
N1554 C1550 1.427 . S
N1554 C1551 1.384 . S
N1555 C1547 1.427 . S
N1555 C1553 1.384 1_455 S
H1556 C1562 0.930 . S
H1557 C1566 0.930 . S
H1558 C1571 0.929 . S
H1559 C1569 0.929 . S
H1560 C1564 0.929 . S
H1561 C1570 0.929 . S
C1562 H1556 0.930 . S
C1562 C1563 1.367 . S
C1562 C1570 1.378 . S
C1563 C1562 1.367 . S
C1563 C1571 1.433 . S
C1564 H1560 0.929 . S
C1564 C1566 1.378 . S
C1564 C1568 1.350 . S
C1565 C1568 1.463 . S
C1565 C1570 1.350 . S
C1565 N1573 1.427 . S
C1566 H1557 0.930 . S
C1566 C1564 1.378 . S
C1566 C1567 1.367 . S
C1567 C1566 1.367 . S
C1567 C1569 1.433 . S
C1568 C1564 1.350 . S
C1568 C1565 1.463 . S
C1568 N1572 1.427 . S
C1569 H1559 0.929 . S
C1569 C1567 1.433 . S
C1569 N1572 1.384 . S
C1570 H1561 0.929 . S
C1570 C1562 1.378 . S
C1570 C1565 1.350 . S
C1571 H1558 0.929 . S
C1571 C1563 1.433 . S
C1571 N1573 1.384 . S
N1572 C1568 1.427 . S
N1572 C1569 1.384 . S
N1573 C1565 1.427 . S
N1573 C1571 1.384 . S
H1574 C1580 0.930 . S
H1575 C1584 0.930 . S
H1576 C1589 0.929 . S
H1577 C1587 0.929 . S
H1578 C1582 0.929 . S
H1579 C1588 0.929 . S
C1580 H1574 0.930 . S
C1580 C1581 1.367 . S
C1580 C1588 1.378 . S
C1581 C1580 1.367 . S
C1581 C1589 1.433 . S
C1582 H1578 0.929 . S
C1582 C1584 1.378 . S
C1582 C1586 1.350 . S
C1583 C1586 1.463 . S
C1583 C1588 1.350 . S
C1583 N1591 1.427 . S
C1584 H1575 0.930 . S
C1584 C1582 1.378 . S
C1584 C1585 1.367 . S
C1585 C1584 1.367 . S
C1585 C1587 1.433 . S
C1586 C1582 1.350 . S
C1586 C1583 1.463 . S
C1586 N1590 1.427 . S
C1587 H1577 0.929 . S
C1587 C1585 1.433 . S
C1587 N1590 1.384 . S
C1588 H1579 0.929 . S
C1588 C1580 1.378 . S
C1588 C1583 1.350 . S
C1589 H1576 0.929 . S
C1589 C1581 1.433 . S
C1589 N1591 1.384 . S
N1590 C1586 1.427 . S
N1590 C1587 1.384 . S
N1591 C1583 1.427 . S
N1591 C1589 1.384 . S
H1592 C1598 0.930 . S
H1593 C1602 0.930 . S
H1594 C1607 0.929 . S
H1595 C1605 0.929 . S
H1596 C1600 0.929 . S
H1597 C1606 0.929 . S
C1598 H1592 0.930 . S
C1598 C1599 1.367 . S
C1598 C1606 1.378 . S
C1599 C1598 1.367 . S
C1599 C1607 1.433 . S
C1600 H1596 0.929 . S
C1600 C1602 1.378 . S
C1600 C1604 1.350 . S
C1601 C1604 1.463 . S
C1601 C1606 1.350 . S
C1601 N1609 1.427 . S
C1602 H1593 0.930 . S
C1602 C1600 1.378 . S
C1602 C1603 1.367 . S
C1603 C1602 1.367 . S
C1603 C1605 1.433 . S
C1604 C1600 1.350 . S
C1604 C1601 1.463 . S
C1604 N1608 1.427 . S
C1605 H1595 0.929 . S
C1605 C1603 1.433 . S
C1605 N1608 1.384 . S
C1606 H1597 0.929 . S
C1606 C1598 1.378 . S
C1606 C1601 1.350 . S
C1607 H1594 0.929 . S
C1607 C1599 1.433 . S
C1607 N1609 1.384 . S
N1608 C1604 1.427 . S
N1608 C1605 1.384 . S
N1609 C1601 1.427 . S
N1609 C1607 1.384 . S
H1610 C1616 0.930 . S
H1611 C1620 0.930 . S
H1612 C1625 0.929 . S
H1613 C1623 0.929 . S
H1614 C1618 0.929 . S
H1615 C1624 0.929 . S
C1616 H1610 0.930 . S
C1616 C1617 1.367 . S
C1616 C1624 1.378 . S
C1617 C1616 1.367 . S
C1617 C1625 1.433 . S
C1618 H1614 0.929 . S
C1618 C1620 1.378 . S
C1618 C1622 1.350 . S
C1619 C1622 1.463 . S
C1619 C1624 1.350 . S
C1619 N1627 1.427 . S
C1620 H1611 0.930 . S
C1620 C1618 1.378 . S
C1620 C1621 1.367 . S
C1621 C1620 1.367 . S
C1621 C1623 1.433 . S
C1622 C1618 1.350 . S
C1622 C1619 1.463 . S
C1622 N1626 1.427 . S
C1623 H1613 0.929 . S
C1623 C1621 1.433 . S
C1623 N1626 1.384 . S
C1624 H1615 0.929 . S
C1624 C1616 1.378 . S
C1624 C1619 1.350 . S
C1625 H1612 0.929 . S
C1625 C1617 1.433 . S
C1625 N1627 1.384 . S
N1626 C1622 1.427 . S
N1626 C1623 1.384 . S
N1627 C1619 1.427 . S
N1627 C1625 1.384 . S
H1628 C1634 0.930 . S
H1629 C1638 0.930 . S
H1630 C1643 0.929 . S
H1631 C1641 0.929 . S
H1632 C1636 0.929 . S
H1633 C1642 0.929 . S
C1634 H1628 0.930 . S
C1634 C1635 1.367 . S
C1634 C1642 1.378 . S
C1635 C1634 1.367 . S
C1635 C1643 1.433 . S
C1636 H1632 0.929 . S
C1636 C1638 1.378 . S
C1636 C1640 1.350 . S
C1637 C1640 1.463 . S
C1637 C1642 1.350 . S
C1637 N1645 1.427 . S
C1638 H1629 0.930 . S
C1638 C1636 1.378 . S
C1638 C1639 1.367 . S
C1639 C1638 1.367 . S
C1639 C1641 1.433 . S
C1640 C1636 1.350 . S
C1640 C1637 1.463 . S
C1640 N1644 1.427 . S
C1641 H1631 0.929 . S
C1641 C1639 1.433 . S
C1641 N1644 1.384 . S
C1642 H1633 0.929 . S
C1642 C1634 1.378 . S
C1642 C1637 1.350 . S
C1643 H1630 0.929 . S
C1643 C1635 1.433 . S
C1643 N1645 1.384 . S
N1644 C1640 1.427 . S
N1644 C1641 1.384 . S
N1645 C1637 1.427 . S
N1645 C1643 1.384 . S
H1646 C1652 0.930 . S
H1647 C1656 0.930 . S
H1648 C1661 0.929 . S
H1649 C1659 0.929 . S
H1650 C1654 0.929 . S
H1651 C1660 0.929 1_455 S
C1652 H1646 0.930 . S
C1652 C1653 1.367 . S
C1652 C1660 1.378 . S
C1653 C1652 1.367 . S
C1653 C1661 1.433 . S
C1654 H1650 0.929 . S
C1654 C1656 1.378 . S
C1654 C1658 1.350 . S
C1655 C1658 1.463 . S
C1655 C1660 1.350 1_455 S
C1655 N1663 1.427 . S
C1656 H1647 0.930 . S
C1656 C1654 1.378 . S
C1656 C1657 1.367 . S
C1657 C1656 1.367 . S
C1657 C1659 1.433 . S
C1658 C1654 1.350 . S
C1658 C1655 1.463 . S
C1658 N1662 1.427 . S
C1659 H1649 0.929 . S
C1659 C1657 1.433 . S
C1659 N1662 1.384 . S
C1660 H1651 0.929 1_655 S
C1660 C1652 1.378 . S
C1660 C1655 1.350 1_655 S
C1661 H1648 0.929 . S
C1661 C1653 1.433 . S
C1661 N1663 1.384 1_655 S
N1662 C1658 1.427 . S
N1662 C1659 1.384 . S
N1663 C1655 1.427 . S
N1663 C1661 1.384 1_455 S
H1664 C1670 0.930 . S
H1665 C1674 0.930 . S
H1666 C1679 0.929 . S
H1667 C1677 0.929 . S
H1668 C1672 0.929 . S
H1669 C1678 0.929 . S
C1670 H1664 0.930 . S
C1670 C1671 1.367 . S
C1670 C1678 1.378 . S
C1671 C1670 1.367 . S
C1671 C1679 1.433 . S
C1672 H1668 0.929 . S
C1672 C1674 1.378 . S
C1672 C1676 1.350 . S
C1673 C1676 1.463 . S
C1673 C1678 1.350 . S
C1673 N1681 1.427 . S
C1674 H1665 0.930 . S
C1674 C1672 1.378 . S
C1674 C1675 1.367 . S
C1675 C1674 1.367 . S
C1675 C1677 1.433 . S
C1676 C1672 1.350 . S
C1676 C1673 1.463 . S
C1676 N1680 1.427 . S
C1677 H1667 0.929 . S
C1677 C1675 1.433 . S
C1677 N1680 1.384 . S
C1678 H1669 0.929 . S
C1678 C1670 1.378 . S
C1678 C1673 1.350 . S
C1679 H1666 0.929 . S
C1679 C1671 1.433 . S
C1679 N1681 1.384 . S
N1680 C1676 1.427 . S
N1680 C1677 1.384 . S
N1681 C1673 1.427 . S
N1681 C1679 1.384 . S
H1682 C1688 0.930 . S
H1683 C1692 0.930 . S
H1684 C1697 0.929 . S
H1685 C1695 0.929 . S
H1686 C1690 0.929 . S
H1687 C1696 0.929 . S
C1688 H1682 0.930 . S
C1688 C1689 1.367 . S
C1688 C1696 1.378 . S
C1689 C1688 1.367 . S
C1689 C1697 1.433 . S
C1690 H1686 0.929 . S
C1690 C1692 1.378 . S
C1690 C1694 1.350 . S
C1691 C1694 1.463 1_455 S
C1691 C1696 1.350 . S
C1691 N1699 1.427 . S
C1692 H1683 0.930 . S
C1692 C1690 1.378 . S
C1692 C1693 1.367 . S
C1693 C1692 1.367 . S
C1693 C1695 1.433 . S
C1694 C1690 1.350 . S
C1694 C1691 1.463 1_655 S
C1694 N1698 1.427 . S
C1695 H1685 0.929 . S
C1695 C1693 1.433 . S
C1695 N1698 1.384 . S
C1696 H1687 0.929 . S
C1696 C1688 1.378 . S
C1696 C1691 1.350 . S
C1697 H1684 0.929 . S
C1697 C1689 1.433 . S
C1697 N1699 1.384 . S
N1698 C1694 1.427 . S
N1698 C1695 1.384 . S
N1699 C1691 1.427 . S
N1699 C1697 1.384 . S
H1700 C1706 0.930 . S
H1701 C1710 0.930 . S
H1702 C1715 0.929 . S
H1703 C1713 0.929 . S
H1704 C1708 0.929 1_655 S
H1705 C1714 0.929 1_455 S
C1706 H1700 0.930 . S
C1706 C1707 1.367 . S
C1706 C1714 1.378 . S
C1707 C1706 1.367 . S
C1707 C1715 1.433 . S
C1708 H1704 0.929 1_455 S
C1708 C1710 1.378 . S
C1708 C1712 1.350 . S
C1709 C1712 1.463 1_655 S
C1709 C1714 1.350 . S
C1709 N1717 1.427 . S
C1710 H1701 0.930 . S
C1710 C1708 1.378 . S
C1710 C1711 1.367 . S
C1711 C1710 1.367 . S
C1711 C1713 1.433 . S
C1712 C1708 1.350 . S
C1712 C1709 1.463 1_455 S
C1712 N1716 1.427 . S
C1713 H1703 0.929 . S
C1713 C1711 1.433 . S
C1713 N1716 1.384 . S
C1714 H1705 0.929 1_655 S
C1714 C1706 1.378 . S
C1714 C1709 1.350 . S
C1715 H1702 0.929 . S
C1715 C1707 1.433 . S
C1715 N1717 1.384 . S
N1716 C1712 1.427 . S
N1716 C1713 1.384 . S
N1717 C1709 1.427 . S
N1717 C1715 1.384 . S
H1718 C1724 0.930 . S
H1719 C1728 0.930 . S
H1720 C1733 0.929 . S
H1721 C1731 0.929 . S
H1722 C1726 0.929 . S
H1723 C1732 0.929 . S
C1724 H1718 0.930 . S
C1724 C1725 1.367 . S
C1724 C1732 1.378 . S
C1725 C1724 1.367 . S
C1725 C1733 1.433 . S
C1726 H1722 0.929 . S
C1726 C1728 1.378 . S
C1726 C1730 1.350 . S
C1727 C1730 1.463 . S
C1727 C1732 1.350 . S
C1727 N1735 1.427 . S
C1728 H1719 0.930 . S
C1728 C1726 1.378 . S
C1728 C1729 1.367 . S
C1729 C1728 1.367 . S
C1729 C1731 1.433 . S
C1730 C1726 1.350 . S
C1730 C1727 1.463 . S
C1730 N1734 1.427 . S
C1731 H1721 0.929 . S
C1731 C1729 1.433 . S
C1731 N1734 1.384 . S
C1732 H1723 0.929 . S
C1732 C1724 1.378 . S
C1732 C1727 1.350 . S
C1733 H1720 0.929 . S
C1733 C1725 1.433 . S
C1733 N1735 1.384 . S
N1734 C1730 1.427 . S
N1734 C1731 1.384 . S
N1735 C1727 1.427 . S
N1735 C1733 1.384 . S
H1736 C1742 0.930 . S
H1737 C1746 0.930 . S
H1738 C1751 0.929 . S
H1739 C1749 0.929 . S
H1740 C1744 0.929 . S
H1741 C1750 0.929 . S
C1742 H1736 0.930 . S
C1742 C1743 1.367 . S
C1742 C1750 1.378 . S
C1743 C1742 1.367 . S
C1743 C1751 1.433 . S
C1744 H1740 0.929 . S
C1744 C1746 1.378 . S
C1744 C1748 1.350 . S
C1745 C1748 1.463 . S
C1745 C1750 1.350 . S
C1745 N1753 1.427 . S
C1746 H1737 0.930 . S
C1746 C1744 1.378 . S
C1746 C1747 1.367 . S
C1747 C1746 1.367 . S
C1747 C1749 1.433 . S
C1748 C1744 1.350 . S
C1748 C1745 1.463 . S
C1748 N1752 1.427 . S
C1749 H1739 0.929 . S
C1749 C1747 1.433 . S
C1749 N1752 1.384 . S
C1750 H1741 0.929 . S
C1750 C1742 1.378 . S
C1750 C1745 1.350 . S
C1751 H1738 0.929 . S
C1751 C1743 1.433 . S
C1751 N1753 1.384 . S
N1752 C1748 1.427 . S
N1752 C1749 1.384 . S
N1753 C1745 1.427 . S
N1753 C1751 1.384 . S
H1754 C1760 0.930 . S
H1755 C1764 0.930 . S
H1756 C1769 0.929 . S
H1757 C1767 0.929 . S
H1758 C1762 0.929 . S
H1759 C1768 0.929 . S
C1760 H1754 0.930 . S
C1760 C1761 1.367 . S
C1760 C1768 1.378 . S
C1761 C1760 1.367 . S
C1761 C1769 1.433 . S
C1762 H1758 0.929 . S
C1762 C1764 1.378 . S
C1762 C1766 1.350 . S
C1763 C1766 1.463 . S
C1763 C1768 1.350 . S
C1763 N1771 1.427 . S
C1764 H1755 0.930 . S
C1764 C1762 1.378 . S
C1764 C1765 1.367 . S
C1765 C1764 1.367 . S
C1765 C1767 1.433 . S
C1766 C1762 1.350 . S
C1766 C1763 1.463 . S
C1766 N1770 1.427 . S
C1767 H1757 0.929 . S
C1767 C1765 1.433 . S
C1767 N1770 1.384 . S
C1768 H1759 0.929 . S
C1768 C1760 1.378 . S
C1768 C1763 1.350 . S
C1769 H1756 0.929 . S
C1769 C1761 1.433 . S
C1769 N1771 1.384 . S
N1770 C1766 1.427 . S
N1770 C1767 1.384 . S
N1771 C1763 1.427 . S
N1771 C1769 1.384 . S
H1772 C1778 0.930 . S
H1773 C1782 0.930 . S
H1774 C1787 0.929 . S
H1775 C1785 0.929 . S
H1776 C1780 0.929 . S
H1777 C1786 0.929 . S
C1778 H1772 0.930 . S
C1778 C1779 1.367 . S
C1778 C1786 1.378 . S
C1779 C1778 1.367 . S
C1779 C1787 1.433 . S
C1780 H1776 0.929 . S
C1780 C1782 1.378 . S
C1780 C1784 1.350 . S
C1781 C1784 1.463 1_455 S
C1781 C1786 1.350 . S
C1781 N1789 1.427 . S
C1782 H1773 0.930 . S
C1782 C1780 1.378 . S
C1782 C1783 1.367 . S
C1783 C1782 1.367 . S
C1783 C1785 1.433 . S
C1784 C1780 1.350 . S
C1784 C1781 1.463 1_655 S
C1784 N1788 1.427 . S
C1785 H1775 0.929 . S
C1785 C1783 1.433 . S
C1785 N1788 1.384 . S
C1786 H1777 0.929 . S
C1786 C1778 1.378 . S
C1786 C1781 1.350 . S
C1787 H1774 0.929 . S
C1787 C1779 1.433 . S
C1787 N1789 1.384 . S
N1788 C1784 1.427 . S
N1788 C1785 1.384 . S
N1789 C1781 1.427 . S
N1789 C1787 1.384 . S
H1790 C1796 0.930 . S
H1791 C1800 0.930 . S
H1792 C1805 0.929 . S
H1793 C1803 0.929 . S
H1794 C1798 0.929 . S
H1795 C1804 0.929 . S
C1796 H1790 0.930 . S
C1796 C1797 1.367 . S
C1796 C1804 1.378 . S
C1797 C1796 1.367 . S
C1797 C1805 1.433 . S
C1798 H1794 0.929 . S
C1798 C1800 1.378 . S
C1798 C1802 1.350 . S
C1799 C1802 1.463 1_655 S
C1799 C1804 1.350 . S
C1799 N1807 1.427 . S
C1800 H1791 0.930 . S
C1800 C1798 1.378 . S
C1800 C1801 1.367 . S
C1801 C1800 1.367 . S
C1801 C1803 1.433 . S
C1802 C1798 1.350 . S
C1802 C1799 1.463 1_455 S
C1802 N1806 1.427 . S
C1803 H1793 0.929 . S
C1803 C1801 1.433 . S
C1803 N1806 1.384 . S
C1804 H1795 0.929 . S
C1804 C1796 1.378 . S
C1804 C1799 1.350 . S
C1805 H1792 0.929 . S
C1805 C1797 1.433 . S
C1805 N1807 1.384 . S
N1806 C1802 1.427 . S
N1806 C1803 1.384 . S
N1807 C1799 1.427 . S
N1807 C1805 1.384 . S
H1808 C1814 0.930 . S
H1809 C1818 0.930 . S
H1810 C1823 0.929 . S
H1811 C1821 0.929 . S
H1812 C1816 0.929 . S
H1813 C1822 0.929 . S
C1814 H1808 0.930 . S
C1814 C1815 1.367 . S
C1814 C1822 1.378 . S
C1815 C1814 1.367 . S
C1815 C1823 1.433 . S
C1816 H1812 0.929 . S
C1816 C1818 1.378 . S
C1816 C1820 1.350 . S
C1817 C1820 1.463 . S
C1817 C1822 1.350 . S
C1817 N1825 1.427 . S
C1818 H1809 0.930 . S
C1818 C1816 1.378 . S
C1818 C1819 1.367 . S
C1819 C1818 1.367 . S
C1819 C1821 1.433 . S
C1820 C1816 1.350 . S
C1820 C1817 1.463 . S
C1820 N1824 1.427 . S
C1821 H1811 0.929 . S
C1821 C1819 1.433 . S
C1821 N1824 1.384 . S
C1822 H1813 0.929 . S
C1822 C1814 1.378 . S
C1822 C1817 1.350 . S
C1823 H1810 0.929 . S
C1823 C1815 1.433 . S
C1823 N1825 1.384 . S
N1824 C1820 1.427 . S
N1824 C1821 1.384 . S
N1825 C1817 1.427 . S
N1825 C1823 1.384 . S
H1826 C1832 0.930 . S
H1827 C1836 0.930 . S
H1828 C1841 0.929 . S
H1829 C1839 0.929 . S
H1830 C1834 0.929 . S
H1831 C1840 0.929 . S
C1832 H1826 0.930 . S
C1832 C1833 1.367 . S
C1832 C1840 1.378 . S
C1833 C1832 1.367 . S
C1833 C1841 1.433 . S
C1834 H1830 0.929 . S
C1834 C1836 1.378 . S
C1834 C1838 1.350 . S
C1835 C1838 1.463 1_655 S
C1835 C1840 1.350 . S
C1835 N1843 1.427 . S
C1836 H1827 0.930 . S
C1836 C1834 1.378 . S
C1836 C1837 1.367 . S
C1837 C1836 1.367 . S
C1837 C1839 1.433 . S
C1838 C1834 1.350 . S
C1838 C1835 1.463 1_455 S
C1838 N1842 1.427 . S
C1839 H1829 0.929 . S
C1839 C1837 1.433 . S
C1839 N1842 1.384 . S
C1840 H1831 0.929 . S
C1840 C1832 1.378 . S
C1840 C1835 1.350 . S
C1841 H1828 0.929 . S
C1841 C1833 1.433 . S
C1841 N1843 1.384 . S
N1842 C1838 1.427 . S
N1842 C1839 1.384 . S
N1843 C1835 1.427 . S
N1843 C1841 1.384 . S
H1844 C1850 0.930 . S
H1845 C1854 0.930 . S
H1846 C1859 0.929 . S
H1847 C1857 0.929 . S
H1848 C1852 0.929 . S
H1849 C1858 0.929 . S
C1850 H1844 0.930 . S
C1850 C1851 1.367 1_655 S
C1850 C1858 1.378 . S
C1851 C1850 1.367 1_455 S
C1851 C1859 1.433 . S
C1852 H1848 0.929 . S
C1852 C1854 1.378 . S
C1852 C1856 1.350 1_455 S
C1853 C1856 1.463 1_455 S
C1853 C1858 1.350 1_455 S
C1853 N1861 1.427 . S
C1854 H1845 0.930 . S
C1854 C1852 1.378 . S
C1854 C1855 1.367 1_455 S
C1855 C1854 1.367 1_655 S
C1855 C1857 1.433 . S
C1856 C1852 1.350 1_655 S
C1856 C1853 1.463 1_655 S
C1856 N1860 1.427 . S
C1857 H1847 0.929 . S
C1857 C1855 1.433 . S
C1857 N1860 1.384 . S
C1858 H1849 0.929 . S
C1858 C1850 1.378 . S
C1858 C1853 1.350 1_655 S
C1859 H1846 0.929 . S
C1859 C1851 1.433 . S
C1859 N1861 1.384 . S
N1860 C1856 1.427 . S
N1860 C1857 1.384 . S
N1861 C1853 1.427 . S
N1861 C1859 1.384 . S
H1862 C1868 0.930 . S
H1863 C1872 0.930 . S
H1864 C1877 0.929 . S
H1865 C1875 0.929 . S
H1866 C1870 0.929 . S
H1867 C1876 0.929 . S
C1868 H1862 0.930 . S
C1868 C1869 1.367 . S
C1868 C1876 1.378 . S
C1869 C1868 1.367 . S
C1869 C1877 1.433 . S
C1870 H1866 0.929 . S
C1870 C1872 1.378 . S
C1870 C1874 1.350 . S
C1871 C1874 1.463 . S
C1871 C1876 1.350 . S
C1871 N1879 1.427 . S
C1872 H1863 0.930 . S
C1872 C1870 1.378 . S
C1872 C1873 1.367 . S
C1873 C1872 1.367 . S
C1873 C1875 1.433 . S
C1874 C1870 1.350 . S
C1874 C1871 1.463 . S
C1874 N1878 1.427 . S
C1875 H1865 0.929 . S
C1875 C1873 1.433 . S
C1875 N1878 1.384 . S
C1876 H1867 0.929 . S
C1876 C1868 1.378 . S
C1876 C1871 1.350 . S
C1877 H1864 0.929 . S
C1877 C1869 1.433 . S
C1877 N1879 1.384 . S
N1878 C1874 1.427 . S
N1878 C1875 1.384 . S
N1879 C1871 1.427 . S
N1879 C1877 1.384 . S
H1880 C1886 0.930 . S
H1881 C1890 0.930 . S
H1882 C1895 0.929 . S
H1883 C1893 0.929 . S
H1884 C1888 0.929 . S
H1885 C1894 0.929 . S
C1886 H1880 0.930 . S
C1886 C1887 1.367 . S
C1886 C1894 1.378 . S
C1887 C1886 1.367 . S
C1887 C1895 1.433 . S
C1888 H1884 0.929 . S
C1888 C1890 1.378 . S
C1888 C1892 1.350 . S
C1889 C1892 1.463 . S
C1889 C1894 1.350 . S
C1889 N1897 1.427 . S
C1890 H1881 0.930 . S
C1890 C1888 1.378 . S
C1890 C1891 1.367 . S
C1891 C1890 1.367 . S
C1891 C1893 1.433 . S
C1892 C1888 1.350 . S
C1892 C1889 1.463 . S
C1892 N1896 1.427 . S
C1893 H1883 0.929 . S
C1893 C1891 1.433 . S
C1893 N1896 1.384 . S
C1894 H1885 0.929 . S
C1894 C1886 1.378 . S
C1894 C1889 1.350 . S
C1895 H1882 0.929 . S
C1895 C1887 1.433 . S
C1895 N1897 1.384 . S
N1896 C1892 1.427 . S
N1896 C1893 1.384 . S
N1897 C1889 1.427 . S
N1897 C1895 1.384 . S
H1898 C1904 0.930 . S
H1899 C1908 0.930 . S
H1900 C1913 0.929 . S
H1901 C1911 0.929 . S
H1902 C1906 0.929 . S
H1903 C1912 0.929 . S
C1904 H1898 0.930 . S
C1904 C1905 1.367 . S
C1904 C1912 1.378 . S
C1905 C1904 1.367 . S
C1905 C1913 1.433 . S
C1906 H1902 0.929 . S
C1906 C1908 1.378 . S
C1906 C1910 1.350 . S
C1907 C1910 1.463 . S
C1907 C1912 1.350 . S
C1907 N1915 1.427 . S
C1908 H1899 0.930 . S
C1908 C1906 1.378 . S
C1908 C1909 1.367 . S
C1909 C1908 1.367 . S
C1909 C1911 1.433 . S
C1910 C1906 1.350 . S
C1910 C1907 1.463 . S
C1910 N1914 1.427 . S
C1911 H1901 0.929 . S
C1911 C1909 1.433 . S
C1911 N1914 1.384 . S
C1912 H1903 0.929 . S
C1912 C1904 1.378 . S
C1912 C1907 1.350 . S
C1913 H1900 0.929 . S
C1913 C1905 1.433 . S
C1913 N1915 1.384 . S
N1914 C1910 1.427 . S
N1914 C1911 1.384 . S
N1915 C1907 1.427 . S
N1915 C1913 1.384 . S
H1916 C1922 0.930 . S
H1917 C1926 0.930 . S
H1918 C1931 0.929 . S
H1919 C1929 0.929 . S
H1920 C1924 0.924 1_455 S
H1921 C1930 0.924 1_655 S
C1922 H1916 0.930 . S
C1922 C1923 1.367 . S
C1922 C1930 1.378 . S
C1923 C1922 1.367 . S
C1923 C1931 1.433 . S
C1924 H1920 0.924 1_655 S
C1924 C1926 1.378 . S
C1924 C1928 1.350 . S
C1925 C1928 1.463 1_455 S
C1925 C1930 1.350 . S
C1925 N1933 1.427 . S
C1926 H1917 0.930 . S
C1926 C1924 1.378 . S
C1926 C1927 1.367 . S
C1927 C1926 1.367 . S
C1927 C1929 1.433 . S
C1928 C1924 1.350 . S
C1928 C1925 1.463 1_655 S
C1928 N1932 1.427 . S
C1929 H1919 0.929 . S
C1929 C1927 1.433 . S
C1929 N1932 1.384 . S
C1930 H1921 0.924 1_455 S
C1930 C1922 1.378 . S
C1930 C1925 1.350 . S
C1931 H1918 0.929 . S
C1931 C1923 1.433 . S
C1931 N1933 1.384 . S
N1932 C1928 1.427 . S
N1932 C1929 1.384 . S
N1933 C1925 1.427 . S
N1933 C1931 1.384 . S
H1934 C1940 0.930 . S
H1935 C1944 0.930 . S
H1936 C1949 0.929 . S
H1937 C1947 0.929 . S
H1938 C1942 0.929 . S
H1939 C1948 0.929 . S
C1940 H1934 0.930 . S
C1940 C1941 1.367 . S
C1940 C1948 1.378 . S
C1941 C1940 1.367 . S
C1941 C1949 1.433 . S
C1942 H1938 0.929 . S
C1942 C1944 1.378 . S
C1942 C1946 1.350 . S
C1943 C1946 1.463 1_455 S
C1943 C1948 1.350 . S
C1943 N1951 1.427 . S
C1944 H1935 0.930 . S
C1944 C1942 1.378 . S
C1944 C1945 1.367 . S
C1945 C1944 1.367 . S
C1945 C1947 1.433 . S
C1946 C1942 1.350 . S
C1946 C1943 1.463 1_655 S
C1946 N1950 1.427 . S
C1947 H1937 0.929 . S
C1947 C1945 1.433 . S
C1947 N1950 1.384 . S
C1948 H1939 0.929 . S
C1948 C1940 1.378 . S
C1948 C1943 1.350 . S
C1949 H1936 0.929 . S
C1949 C1941 1.433 . S
C1949 N1951 1.384 . S
N1950 C1946 1.427 . S
N1950 C1947 1.384 . S
N1951 C1943 1.427 . S
N1951 C1949 1.384 . S
H1952 C1958 0.930 . S
H1953 C1962 0.930 . S
H1954 C1967 0.929 . S
H1955 C1965 0.929 . S
H1956 C1960 0.929 . S
H1957 C1966 0.929 . S
C1958 H1952 0.930 . S
C1958 C1959 1.367 . S
C1958 C1966 1.378 . S
C1959 C1958 1.367 . S
C1959 C1967 1.433 . S
C1960 H1956 0.929 . S
C1960 C1962 1.378 . S
C1960 C1964 1.350 . S
C1961 C1964 1.463 . S
C1961 C1966 1.350 . S
C1961 N1969 1.427 . S
C1962 H1953 0.930 . S
C1962 C1960 1.378 . S
C1962 C1963 1.367 . S
C1963 C1962 1.367 . S
C1963 C1965 1.433 . S
C1964 C1960 1.350 . S
C1964 C1961 1.463 . S
C1964 N1968 1.427 . S
C1965 H1955 0.929 . S
C1965 C1963 1.433 . S
C1965 N1968 1.384 . S
C1966 H1957 0.929 . S
C1966 C1958 1.378 . S
C1966 C1961 1.350 . S
C1967 H1954 0.929 . S
C1967 C1959 1.433 . S
C1967 N1969 1.384 . S
N1968 C1964 1.427 . S
N1968 C1965 1.384 . S
N1969 C1961 1.427 . S
N1969 C1967 1.384 . S
H1970 C1976 0.930 . S
H1971 C1980 0.930 . S
H1972 C1985 0.929 . S
H1973 C1983 0.929 . S
H1974 C1978 0.929 . S
H1975 C1984 0.929 . S
C1976 H1970 0.930 . S
C1976 C1977 1.367 . S
C1976 C1984 1.378 . S
C1977 C1976 1.367 . S
C1977 C1985 1.433 . S
C1978 H1974 0.929 . S
C1978 C1980 1.378 . S
C1978 C1982 1.350 . S
C1979 C1982 1.463 . S
C1979 C1984 1.350 . S
C1979 N1987 1.427 . S
C1980 H1971 0.930 . S
C1980 C1978 1.378 . S
C1980 C1981 1.367 . S
C1981 C1980 1.367 . S
C1981 C1983 1.433 . S
C1982 C1978 1.350 . S
C1982 C1979 1.463 . S
C1982 N1986 1.427 . S
C1983 H1973 0.929 . S
C1983 C1981 1.433 . S
C1983 N1986 1.384 . S
C1984 H1975 0.929 . S
C1984 C1976 1.378 . S
C1984 C1979 1.350 . S
C1985 H1972 0.929 . S
C1985 C1977 1.433 . S
C1985 N1987 1.384 . S
N1986 C1982 1.427 . S
N1986 C1983 1.384 . S
N1987 C1979 1.427 . S
N1987 C1985 1.384 . S
H1988 C1994 0.930 . S
H1989 C1998 0.930 . S
H1990 C2003 0.929 . S
H1991 C2001 0.929 . S
H1992 C1996 0.929 . S
H1993 C2002 0.929 . S
C1994 H1988 0.930 . S
C1994 C1995 1.367 . S
C1994 C2002 1.378 . S
C1995 C1994 1.367 . S
C1995 C2003 1.433 . S
C1996 H1992 0.929 . S
C1996 C1998 1.378 . S
C1996 C2000 1.350 . S
C1997 C2000 1.463 . S
C1997 C2002 1.350 . S
C1997 N2005 1.427 . S
C1998 H1989 0.930 . S
C1998 C1996 1.378 . S
C1998 C1999 1.367 . S
C1999 C1998 1.367 . S
C1999 C2001 1.433 . S
C2000 C1996 1.350 . S
C2000 C1997 1.463 . S
C2000 N2004 1.427 . S
C2001 H1991 0.929 . S
C2001 C1999 1.433 . S
C2001 N2004 1.384 . S
C2002 H1993 0.929 . S
C2002 C1994 1.378 . S
C2002 C1997 1.350 . S
C2003 H1990 0.929 . S
C2003 C1995 1.433 . S
C2003 N2005 1.384 . S
N2004 C2000 1.427 . S
N2004 C2001 1.384 . S
N2005 C1997 1.427 . S
N2005 C2003 1.384 . S
H2006 C2012 0.930 . S
H2007 C2016 0.930 . S
H2008 C2021 0.929 . S
H2009 C2019 0.929 . S
H2010 C2014 0.929 . S
H2011 C2020 0.929 . S
C2012 H2006 0.930 . S
C2012 C2013 1.367 . S
C2012 C2020 1.378 . S
C2013 C2012 1.367 . S
C2013 C2021 1.433 . S
C2014 H2010 0.929 . S
C2014 C2016 1.378 . S
C2014 C2018 1.350 . S
C2015 C2018 1.463 . S
C2015 C2020 1.350 . S
C2015 N2023 1.427 . S
C2016 H2007 0.930 . S
C2016 C2014 1.378 . S
C2016 C2017 1.367 . S
C2017 C2016 1.367 . S
C2017 C2019 1.433 . S
C2018 C2014 1.350 . S
C2018 C2015 1.463 . S
C2018 N2022 1.427 . S
C2019 H2009 0.929 . S
C2019 C2017 1.433 . S
C2019 N2022 1.384 . S
C2020 H2011 0.929 . S
C2020 C2012 1.378 . S
C2020 C2015 1.350 . S
C2021 H2008 0.929 . S
C2021 C2013 1.433 . S
C2021 N2023 1.384 . S
N2022 C2018 1.427 . S
N2022 C2019 1.384 . S
N2023 C2015 1.427 . S
N2023 C2021 1.384 . S
H2024 C2030 0.930 . S
H2025 C2034 0.930 . S
H2026 C2039 0.929 . S
H2027 C2037 0.929 . S
H2028 C2032 0.929 . S
H2029 C2038 0.929 . S
C2030 H2024 0.930 . S
C2030 C2031 1.367 . S
C2030 C2038 1.378 . S
C2031 C2030 1.367 . S
C2031 C2039 1.433 . S
C2032 H2028 0.929 . S
C2032 C2034 1.378 . S
C2032 C2036 1.350 . S
C2033 C2036 1.463 . S
C2033 C2038 1.350 . S
C2033 N2041 1.427 . S
C2034 H2025 0.930 . S
C2034 C2032 1.378 . S
C2034 C2035 1.367 . S
C2035 C2034 1.367 . S
C2035 C2037 1.433 . S
C2036 C2032 1.350 . S
C2036 C2033 1.463 . S
C2036 N2040 1.427 . S
C2037 H2027 0.929 . S
C2037 C2035 1.433 . S
C2037 N2040 1.384 . S
C2038 H2029 0.929 . S
C2038 C2030 1.378 . S
C2038 C2033 1.350 . S
C2039 H2026 0.929 . S
C2039 C2031 1.433 . S
C2039 N2041 1.384 . S
N2040 C2036 1.427 . S
N2040 C2037 1.384 . S
N2041 C2033 1.427 . S
N2041 C2039 1.384 . S
H2042 C2048 0.930 . S
H2043 C2052 0.930 . S
H2044 C2057 0.929 . S
H2045 C2055 0.929 . S
H2046 C2050 0.929 . S
H2047 C2056 0.929 . S
C2048 H2042 0.930 . S
C2048 C2049 1.367 . S
C2048 C2056 1.378 . S
C2049 C2048 1.367 . S
C2049 C2057 1.433 . S
C2050 H2046 0.929 . S
C2050 C2052 1.378 . S
C2050 C2054 1.350 . S
C2051 C2054 1.463 . S
C2051 C2056 1.350 . S
C2051 N2059 1.427 . S
C2052 H2043 0.930 . S
C2052 C2050 1.378 . S
C2052 C2053 1.367 . S
C2053 C2052 1.367 . S
C2053 C2055 1.433 . S
C2054 C2050 1.350 . S
C2054 C2051 1.463 . S
C2054 N2058 1.427 . S
C2055 H2045 0.929 . S
C2055 C2053 1.433 . S
C2055 N2058 1.384 . S
C2056 H2047 0.929 . S
C2056 C2048 1.378 . S
C2056 C2051 1.350 . S
C2057 H2044 0.929 . S
C2057 C2049 1.433 . S
C2057 N2059 1.384 . S
N2058 C2054 1.427 . S
N2058 C2055 1.384 . S
N2059 C2051 1.427 . S
N2059 C2057 1.384 . S
H2060 C2066 0.930 . S
H2061 C2070 0.930 . S
H2062 C2075 0.929 . S
H2063 C2073 0.929 . S
H2064 C2068 0.929 . S
H2065 C2074 0.929 . S
C2066 H2060 0.930 . S
C2066 C2067 1.367 . S
C2066 C2074 1.378 . S
C2067 C2066 1.367 . S
C2067 C2075 1.433 . S
C2068 H2064 0.929 . S
C2068 C2070 1.378 . S
C2068 C2072 1.350 . S
C2069 C2072 1.463 . S
C2069 C2074 1.350 . S
C2069 N2077 1.427 . S
C2070 H2061 0.930 . S
C2070 C2068 1.378 . S
C2070 C2071 1.367 . S
C2071 C2070 1.367 . S
C2071 C2073 1.433 . S
C2072 C2068 1.350 . S
C2072 C2069 1.463 . S
C2072 N2076 1.427 . S
C2073 H2063 0.929 . S
C2073 C2071 1.433 . S
C2073 N2076 1.384 . S
C2074 H2065 0.929 . S
C2074 C2066 1.378 . S
C2074 C2069 1.350 . S
C2075 H2062 0.929 . S
C2075 C2067 1.433 . S
C2075 N2077 1.384 . S
N2076 C2072 1.427 . S
N2076 C2073 1.384 . S
N2077 C2069 1.427 . S
N2077 C2075 1.384 . S
H2078 C2084 0.930 . S
H2079 C2088 0.930 . S
H2080 C2093 0.929 . S
H2081 C2091 0.929 . S
H2082 C2086 0.929 . S
H2083 C2092 0.929 . S
C2084 H2078 0.930 . S
C2084 C2085 1.367 . S
C2084 C2092 1.378 . S
C2085 C2084 1.367 . S
C2085 C2093 1.433 . S
C2086 H2082 0.929 . S
C2086 C2088 1.378 . S
C2086 C2090 1.350 . S
C2087 C2090 1.463 . S
C2087 C2092 1.350 . S
C2087 N2095 1.427 . S
C2088 H2079 0.930 . S
C2088 C2086 1.378 . S
C2088 C2089 1.367 . S
C2089 C2088 1.367 . S
C2089 C2091 1.433 . S
C2090 C2086 1.350 . S
C2090 C2087 1.463 . S
C2090 N2094 1.427 . S
C2091 H2081 0.929 . S
C2091 C2089 1.433 . S
C2091 N2094 1.384 . S
C2092 H2083 0.929 . S
C2092 C2084 1.378 . S
C2092 C2087 1.350 . S
C2093 H2080 0.929 . S
C2093 C2085 1.433 . S
C2093 N2095 1.384 . S
N2094 C2090 1.427 . S
N2094 C2091 1.384 . S
N2095 C2087 1.427 . S
N2095 C2093 1.384 . S
H2096 C2102 0.930 . S
H2097 C2106 0.930 . S
H2098 C2111 0.929 . S
H2099 C2109 0.929 . S
H2100 C2104 0.929 . S
H2101 C2110 0.929 . S
C2102 H2096 0.930 . S
C2102 C2103 1.367 . S
C2102 C2110 1.378 . S
C2103 C2102 1.367 . S
C2103 C2111 1.433 . S
C2104 H2100 0.929 . S
C2104 C2106 1.378 . S
C2104 C2108 1.350 . S
C2105 C2108 1.463 . S
C2105 C2110 1.350 . S
C2105 N2113 1.427 . S
C2106 H2097 0.930 . S
C2106 C2104 1.378 . S
C2106 C2107 1.367 . S
C2107 C2106 1.367 . S
C2107 C2109 1.433 . S
C2108 C2104 1.350 . S
C2108 C2105 1.463 . S
C2108 N2112 1.427 . S
C2109 H2099 0.929 . S
C2109 C2107 1.433 . S
C2109 N2112 1.384 . S
C2110 H2101 0.929 . S
C2110 C2102 1.378 . S
C2110 C2105 1.350 . S
C2111 H2098 0.929 . S
C2111 C2103 1.433 . S
C2111 N2113 1.384 . S
N2112 C2108 1.427 . S
N2112 C2109 1.384 . S
N2113 C2105 1.427 . S
N2113 C2111 1.384 . S
H2114 C2120 0.930 . S
H2115 C2124 0.930 . S
H2116 C2129 0.929 . S
H2117 C2127 0.929 . S
H2118 C2122 0.929 . S
H2119 C2128 0.929 . S
C2120 H2114 0.930 . S
C2120 C2121 1.367 . S
C2120 C2128 1.378 . S
C2121 C2120 1.367 . S
C2121 C2129 1.433 . S
C2122 H2118 0.929 . S
C2122 C2124 1.378 . S
C2122 C2126 1.350 . S
C2123 C2126 1.463 . S
C2123 C2128 1.350 . S
C2123 N2131 1.427 . S
C2124 H2115 0.930 . S
C2124 C2122 1.378 . S
C2124 C2125 1.367 . S
C2125 C2124 1.367 . S
C2125 C2127 1.433 . S
C2126 C2122 1.350 . S
C2126 C2123 1.463 . S
C2126 N2130 1.427 . S
C2127 H2117 0.929 . S
C2127 C2125 1.433 . S
C2127 N2130 1.384 . S
C2128 H2119 0.929 . S
C2128 C2120 1.378 . S
C2128 C2123 1.350 . S
C2129 H2116 0.929 . S
C2129 C2121 1.433 . S
C2129 N2131 1.384 . S
N2130 C2126 1.427 . S
N2130 C2127 1.384 . S
N2131 C2123 1.427 . S
N2131 C2129 1.384 . S
H2132 C2138 0.930 . S
H2133 C2142 0.930 . S
H2134 C2147 0.929 . S
H2135 C2145 0.929 . S
H2136 C2140 0.929 . S
H2137 C2146 0.929 . S
C2138 H2132 0.930 . S
C2138 C2139 1.367 . S
C2138 C2146 1.378 . S
C2139 C2138 1.367 . S
C2139 C2147 1.433 . S
C2140 H2136 0.929 . S
C2140 C2142 1.378 . S
C2140 C2144 1.350 . S
C2141 C2144 1.463 . S
C2141 C2146 1.350 . S
C2141 N2149 1.427 . S
C2142 H2133 0.930 . S
C2142 C2140 1.378 . S
C2142 C2143 1.367 . S
C2143 C2142 1.367 . S
C2143 C2145 1.433 . S
C2144 C2140 1.350 . S
C2144 C2141 1.463 . S
C2144 N2148 1.427 . S
C2145 H2135 0.929 . S
C2145 C2143 1.433 . S
C2145 N2148 1.384 . S
C2146 H2137 0.929 . S
C2146 C2138 1.378 . S
C2146 C2141 1.350 . S
C2147 H2134 0.929 . S
C2147 C2139 1.433 . S
C2147 N2149 1.384 . S
N2148 C2144 1.427 . S
N2148 C2145 1.384 . S
N2149 C2141 1.427 . S
N2149 C2147 1.384 . S
H2150 C2156 0.930 . S
H2151 C2160 0.930 . S
H2152 C2165 0.929 . S
H2153 C2163 0.929 . S
H2154 C2158 0.929 . S
H2155 C2164 0.929 . S
C2156 H2150 0.930 . S
C2156 C2157 1.367 . S
C2156 C2164 1.378 . S
C2157 C2156 1.367 . S
C2157 C2165 1.433 . S
C2158 H2154 0.929 . S
C2158 C2160 1.378 . S
C2158 C2162 1.350 . S
C2159 C2162 1.463 . S
C2159 C2164 1.350 . S
C2159 N2167 1.427 . S
C2160 H2151 0.930 . S
C2160 C2158 1.378 . S
C2160 C2161 1.367 . S
C2161 C2160 1.367 . S
C2161 C2163 1.433 . S
C2162 C2158 1.350 . S
C2162 C2159 1.463 . S
C2162 N2166 1.427 . S
C2163 H2153 0.929 . S
C2163 C2161 1.433 . S
C2163 N2166 1.384 . S
C2164 H2155 0.929 . S
C2164 C2156 1.378 . S
C2164 C2159 1.350 . S
C2165 H2152 0.929 . S
C2165 C2157 1.433 . S
C2165 N2167 1.384 . S
N2166 C2162 1.427 . S
N2166 C2163 1.384 . S
N2167 C2159 1.427 . S
N2167 C2165 1.384 . S
H2168 C2174 0.930 . S
H2169 C2178 0.930 . S
H2170 C2183 0.929 . S
H2171 C2181 0.929 . S
H2172 C2176 0.929 . S
H2173 C2182 0.929 . S
C2174 H2168 0.930 . S
C2174 C2175 1.367 . S
C2174 C2182 1.378 . S
C2175 C2174 1.367 . S
C2175 C2183 1.433 . S
C2176 H2172 0.929 . S
C2176 C2178 1.378 . S
C2176 C2180 1.350 . S
C2177 C2180 1.463 . S
C2177 C2182 1.350 . S
C2177 N2185 1.427 . S
C2178 H2169 0.930 . S
C2178 C2176 1.378 . S
C2178 C2179 1.367 . S
C2179 C2178 1.367 . S
C2179 C2181 1.433 . S
C2180 C2176 1.350 . S
C2180 C2177 1.463 . S
C2180 N2184 1.427 . S
C2181 H2171 0.929 . S
C2181 C2179 1.433 . S
C2181 N2184 1.384 . S
C2182 H2173 0.929 . S
C2182 C2174 1.378 . S
C2182 C2177 1.350 . S
C2183 H2170 0.929 . S
C2183 C2175 1.433 . S
C2183 N2185 1.384 . S
N2184 C2180 1.427 . S
N2184 C2181 1.384 . S
N2185 C2177 1.427 . S
N2185 C2183 1.384 . S
H2186 C2192 0.930 . S
H2187 C2196 0.930 . S
H2188 C2201 0.929 . S
H2189 C2199 0.929 . S
H2190 C2194 0.929 . S
H2191 C2200 0.929 . S
C2192 H2186 0.930 . S
C2192 C2193 1.367 . S
C2192 C2200 1.378 . S
C2193 C2192 1.367 . S
C2193 C2201 1.433 . S
C2194 H2190 0.929 . S
C2194 C2196 1.378 . S
C2194 C2198 1.350 . S
C2195 C2198 1.463 . S
C2195 C2200 1.350 . S
C2195 N2203 1.427 . S
C2196 H2187 0.930 . S
C2196 C2194 1.378 . S
C2196 C2197 1.367 . S
C2197 C2196 1.367 . S
C2197 C2199 1.433 . S
C2198 C2194 1.350 . S
C2198 C2195 1.463 . S
C2198 N2202 1.427 . S
C2199 H2189 0.929 . S
C2199 C2197 1.433 . S
C2199 N2202 1.384 . S
C2200 H2191 0.929 . S
C2200 C2192 1.378 . S
C2200 C2195 1.350 . S
C2201 H2188 0.929 . S
C2201 C2193 1.433 . S
C2201 N2203 1.384 . S
N2202 C2198 1.427 . S
N2202 C2199 1.384 . S
N2203 C2195 1.427 . S
N2203 C2201 1.384 . S
H2204 C2210 0.930 . S
H2205 C2214 0.930 . S
H2206 C2219 0.929 . S
H2207 C2217 0.929 . S
H2208 C2212 0.929 . S
H2209 C2218 0.929 . S
C2210 H2204 0.930 . S
C2210 C2211 1.367 . S
C2210 C2218 1.378 . S
C2211 C2210 1.367 . S
C2211 C2219 1.433 . S
C2212 H2208 0.929 . S
C2212 C2214 1.378 . S
C2212 C2216 1.350 . S
C2213 C2216 1.463 . S
C2213 C2218 1.350 . S
C2213 N2221 1.427 . S
C2214 H2205 0.930 . S
C2214 C2212 1.378 . S
C2214 C2215 1.367 . S
C2215 C2214 1.367 . S
C2215 C2217 1.433 . S
C2216 C2212 1.350 . S
C2216 C2213 1.463 . S
C2216 N2220 1.427 . S
C2217 H2207 0.929 . S
C2217 C2215 1.433 . S
C2217 N2220 1.384 . S
C2218 H2209 0.929 . S
C2218 C2210 1.378 . S
C2218 C2213 1.350 . S
C2219 H2206 0.929 . S
C2219 C2211 1.433 . S
C2219 N2221 1.384 . S
N2220 C2216 1.427 . S
N2220 C2217 1.384 . S
N2221 C2213 1.427 . S
N2221 C2219 1.384 . S
H2222 C2228 0.930 . S
H2223 C2232 0.930 . S
H2224 C2237 0.929 . S
H2225 C2235 0.929 . S
H2226 C2230 0.929 . S
H2227 C2236 0.929 . S
C2228 H2222 0.930 . S
C2228 C2229 1.367 . S
C2228 C2236 1.378 . S
C2229 C2228 1.367 . S
C2229 C2237 1.433 . S
C2230 H2226 0.929 . S
C2230 C2232 1.378 . S
C2230 C2234 1.350 . S
C2231 C2234 1.463 . S
C2231 C2236 1.350 . S
C2231 N2239 1.427 . S
C2232 H2223 0.930 . S
C2232 C2230 1.378 . S
C2232 C2233 1.367 . S
C2233 C2232 1.367 . S
C2233 C2235 1.433 . S
C2234 C2230 1.350 . S
C2234 C2231 1.463 . S
C2234 N2238 1.427 . S
C2235 H2225 0.929 . S
C2235 C2233 1.433 . S
C2235 N2238 1.384 . S
C2236 H2227 0.929 . S
C2236 C2228 1.378 . S
C2236 C2231 1.350 . S
C2237 H2224 0.929 . S
C2237 C2229 1.433 . S
C2237 N2239 1.384 . S
N2238 C2234 1.427 . S
N2238 C2235 1.384 . S
N2239 C2231 1.427 . S
N2239 C2237 1.384 . S
H2240 C2246 0.930 . S
H2241 C2250 0.930 . S
H2242 C2255 0.929 1_545 S
H2243 C2253 0.929 1_565 S
H2244 C2248 0.929 . S
H2245 C2254 0.929 . S
C2246 H2240 0.930 . S
C2246 C2247 1.367 . S
C2246 C2254 1.378 . S
C2247 C2246 1.367 . S
C2247 C2255 1.433 . S
C2248 H2244 0.929 . S
C2248 C2250 1.378 . S
C2248 C2252 1.350 . S
C2249 C2252 1.463 1_565 S
C2249 C2254 1.350 . S
C2249 N2257 1.427 1_565 S
C2250 H2241 0.930 . S
C2250 C2248 1.378 . S
C2250 C2251 1.367 . S
C2251 C2250 1.367 . S
C2251 C2253 1.433 . S
C2252 C2248 1.350 . S
C2252 C2249 1.463 1_545 S
C2252 N2256 1.427 1_545 S
C2253 H2243 0.929 1_545 S
C2253 C2251 1.433 . S
C2253 N2256 1.384 1_545 S
C2254 H2245 0.929 . S
C2254 C2246 1.378 . S
C2254 C2249 1.350 . S
C2255 H2242 0.929 1_565 S
C2255 C2247 1.433 . S
C2255 N2257 1.384 1_565 S
N2256 C2252 1.427 1_565 S
N2256 C2253 1.384 1_565 S
N2257 C2249 1.427 1_545 S
N2257 C2255 1.384 1_545 S
H2258 C2264 0.930 . S
H2259 C2268 0.930 . S
H2260 C2273 0.929 . S
H2261 C2271 0.929 . S
H2262 C2266 0.929 . S
H2263 C2272 0.929 . S
C2264 H2258 0.930 . S
C2264 C2265 1.367 . S
C2264 C2272 1.378 . S
C2265 C2264 1.367 . S
C2265 C2273 1.433 . S
C2266 H2262 0.929 . S
C2266 C2268 1.378 . S
C2266 C2270 1.350 . S
C2267 C2270 1.463 . S
C2267 C2272 1.350 . S
C2267 N2275 1.427 . S
C2268 H2259 0.930 . S
C2268 C2266 1.378 . S
C2268 C2269 1.367 . S
C2269 C2268 1.367 . S
C2269 C2271 1.433 . S
C2270 C2266 1.350 . S
C2270 C2267 1.463 . S
C2270 N2274 1.427 . S
C2271 H2261 0.929 . S
C2271 C2269 1.433 . S
C2271 N2274 1.384 . S
C2272 H2263 0.929 . S
C2272 C2264 1.378 . S
C2272 C2267 1.350 . S
C2273 H2260 0.929 . S
C2273 C2265 1.433 . S
C2273 N2275 1.384 . S
N2274 C2270 1.427 . S
N2274 C2271 1.384 . S
N2275 C2267 1.427 . S
N2275 C2273 1.384 . S
H2276 C2282 0.930 . S
H2277 C2286 0.930 . S
H2278 C2291 0.929 . S
H2279 C2289 0.929 . S
H2280 C2284 0.929 . S
H2281 C2290 0.929 . S
C2282 H2276 0.930 . S
C2282 C2283 1.367 1_545 S
C2282 C2290 1.378 . S
C2283 C2282 1.367 1_565 S
C2283 C2291 1.433 . S
C2284 H2280 0.929 . S
C2284 C2286 1.378 . S
C2284 C2288 1.350 1_565 S
C2285 C2288 1.463 1_565 S
C2285 C2290 1.350 1_565 S
C2285 N2293 1.427 . S
C2286 H2277 0.930 . S
C2286 C2284 1.378 . S
C2286 C2287 1.367 1_565 S
C2287 C2286 1.367 1_545 S
C2287 C2289 1.433 . S
C2288 C2284 1.350 1_545 S
C2288 C2285 1.463 1_545 S
C2288 N2292 1.427 . S
C2289 H2279 0.929 . S
C2289 C2287 1.433 . S
C2289 N2292 1.384 . S
C2290 H2281 0.929 . S
C2290 C2282 1.378 . S
C2290 C2285 1.350 1_545 S
C2291 H2278 0.929 . S
C2291 C2283 1.433 . S
C2291 N2293 1.384 . S
N2292 C2288 1.427 . S
N2292 C2289 1.384 . S
N2293 C2285 1.427 . S
N2293 C2291 1.384 . S
H2294 C2300 0.930 . S
H2295 C2304 0.930 . S
H2296 C2309 0.929 . S
H2297 C2307 0.929 . S
H2298 C2302 0.929 . S
H2299 C2308 0.929 . S
C2300 H2294 0.930 . S
C2300 C2301 1.367 . S
C2300 C2308 1.378 . S
C2301 C2300 1.367 . S
C2301 C2309 1.433 . S
C2302 H2298 0.929 . S
C2302 C2304 1.378 . S
C2302 C2306 1.350 . S
C2303 C2306 1.463 1_554 S
C2303 C2308 1.350 . S
C2303 N2311 1.427 . S
C2304 H2295 0.930 . S
C2304 C2302 1.378 . S
C2304 C2305 1.367 . S
C2305 C2304 1.367 . S
C2305 C2307 1.433 . S
C2306 C2302 1.350 . S
C2306 C2303 1.463 1_556 S
C2306 N2310 1.427 . S
C2307 H2297 0.929 . S
C2307 C2305 1.433 . S
C2307 N2310 1.384 . S
C2308 H2299 0.929 . S
C2308 C2300 1.378 . S
C2308 C2303 1.350 . S
C2309 H2296 0.929 . S
C2309 C2301 1.433 . S
C2309 N2311 1.384 . S
N2310 C2306 1.427 . S
N2310 C2307 1.384 . S
N2311 C2303 1.427 . S
N2311 C2309 1.384 . S
H2312 C2318 0.930 . S
H2313 C2322 0.930 . S
H2314 C2327 0.929 . S
H2315 C2325 0.929 . S
H2316 C2320 0.929 . S
H2317 C2326 0.929 . S
C2318 H2312 0.930 . S
C2318 C2319 1.367 . S
C2318 C2326 1.378 . S
C2319 C2318 1.367 . S
C2319 C2327 1.433 . S
C2320 H2316 0.929 . S
C2320 C2322 1.378 . S
C2320 C2324 1.350 . S
C2321 C2324 1.463 1_545 S
C2321 C2326 1.350 . S
C2321 N2329 1.427 . S
C2322 H2313 0.930 . S
C2322 C2320 1.378 . S
C2322 C2323 1.367 . S
C2323 C2322 1.367 . S
C2323 C2325 1.433 . S
C2324 C2320 1.350 . S
C2324 C2321 1.463 1_565 S
C2324 N2328 1.427 . S
C2325 H2315 0.929 . S
C2325 C2323 1.433 . S
C2325 N2328 1.384 . S
C2326 H2317 0.929 . S
C2326 C2318 1.378 . S
C2326 C2321 1.350 . S
C2327 H2314 0.929 . S
C2327 C2319 1.433 . S
C2327 N2329 1.384 . S
N2328 C2324 1.427 . S
N2328 C2325 1.384 . S
N2329 C2321 1.427 . S
N2329 C2327 1.384 . S
H2330 C2336 0.930 . S
H2331 C2340 0.930 . S
H2332 C2345 0.929 . S
H2333 C2343 0.929 . S
H2334 C2338 0.929 . S
H2335 C2344 0.929 . S
C2336 H2330 0.930 . S
C2336 C2337 1.367 . S
C2336 C2344 1.378 . S
C2337 C2336 1.367 . S
C2337 C2345 1.433 . S
C2338 H2334 0.929 . S
C2338 C2340 1.378 . S
C2338 C2342 1.350 . S
C2339 C2342 1.463 . S
C2339 C2344 1.350 . S
C2339 N2347 1.427 . S
C2340 H2331 0.930 . S
C2340 C2338 1.378 . S
C2340 C2341 1.367 . S
C2341 C2340 1.367 . S
C2341 C2343 1.433 . S
C2342 C2338 1.350 . S
C2342 C2339 1.463 . S
C2342 N2346 1.427 . S
C2343 H2333 0.929 . S
C2343 C2341 1.433 . S
C2343 N2346 1.384 . S
C2344 H2335 0.929 . S
C2344 C2336 1.378 . S
C2344 C2339 1.350 . S
C2345 H2332 0.929 . S
C2345 C2337 1.433 . S
C2345 N2347 1.384 . S
N2346 C2342 1.427 . S
N2346 C2343 1.384 . S
N2347 C2339 1.427 . S
N2347 C2345 1.384 . S
H2348 C2354 0.930 . S
H2349 C2358 0.930 . S
H2350 C2363 0.929 . S
H2351 C2361 0.929 . S
H2352 C2356 0.929 . S
H2353 C2362 0.929 . S
C2354 H2348 0.930 . S
C2354 C2355 1.367 . S
C2354 C2362 1.378 . S
C2355 C2354 1.367 . S
C2355 C2363 1.433 1_565 S
C2356 H2352 0.929 . S
C2356 C2358 1.378 . S
C2356 C2360 1.350 . S
C2357 C2360 1.463 1_565 S
C2357 C2362 1.350 . S
C2357 N2365 1.427 1_565 S
C2358 H2349 0.930 . S
C2358 C2356 1.378 . S
C2358 C2359 1.367 . S
C2359 C2358 1.367 . S
C2359 C2361 1.433 1_545 S
C2360 C2356 1.350 . S
C2360 C2357 1.463 1_545 S
C2360 N2364 1.427 1_545 S
C2361 H2351 0.929 . S
C2361 C2359 1.433 1_565 S
C2361 N2364 1.384 . S
C2362 H2353 0.929 . S
C2362 C2354 1.378 . S
C2362 C2357 1.350 . S
C2363 H2350 0.929 . S
C2363 C2355 1.433 1_545 S
C2363 N2365 1.384 . S
N2364 C2360 1.427 1_565 S
N2364 C2361 1.384 . S
N2365 C2357 1.427 1_545 S
N2365 C2363 1.384 . S
H2366 C2372 0.930 . S
H2367 C2376 0.930 . S
H2368 C2381 0.929 . S
H2369 C2379 0.929 . S
H2370 C2374 0.929 . S
H2371 C2380 0.929 . S
C2372 H2366 0.930 . S
C2372 C2373 1.367 . S
C2372 C2380 1.378 . S
C2373 C2372 1.367 . S
C2373 C2381 1.433 . S
C2374 H2370 0.929 . S
C2374 C2376 1.378 . S
C2374 C2378 1.350 . S
C2375 C2378 1.463 1_556 S
C2375 C2380 1.350 . S
C2375 N2383 1.427 . S
C2376 H2367 0.930 . S
C2376 C2374 1.378 . S
C2376 C2377 1.367 . S
C2377 C2376 1.367 . S
C2377 C2379 1.433 . S
C2378 C2374 1.350 . S
C2378 C2375 1.463 1_554 S
C2378 N2382 1.427 . S
C2379 H2369 0.929 . S
C2379 C2377 1.433 . S
C2379 N2382 1.384 . S
C2380 H2371 0.929 . S
C2380 C2372 1.378 . S
C2380 C2375 1.350 . S
C2381 H2368 0.929 . S
C2381 C2373 1.433 . S
C2381 N2383 1.384 . S
N2382 C2378 1.427 . S
N2382 C2379 1.384 . S
N2383 C2375 1.427 . S
N2383 C2381 1.384 . S
H2384 C2390 0.930 . S
H2385 C2394 0.930 . S
H2386 C2399 0.929 . S
H2387 C2397 0.929 . S
H2388 C2392 0.929 . S
H2389 C2398 0.929 . S
C2390 H2384 0.930 . S
C2390 C2391 1.367 . S
C2390 C2398 1.378 . S
C2391 C2390 1.367 . S
C2391 C2399 1.433 . S
C2392 H2388 0.929 . S
C2392 C2394 1.378 . S
C2392 C2396 1.350 . S
C2393 C2396 1.463 . S
C2393 C2398 1.350 . S
C2393 N2401 1.427 . S
C2394 H2385 0.930 . S
C2394 C2392 1.378 . S
C2394 C2395 1.367 . S
C2395 C2394 1.367 . S
C2395 C2397 1.433 . S
C2396 C2392 1.350 . S
C2396 C2393 1.463 . S
C2396 N2400 1.427 . S
C2397 H2387 0.929 . S
C2397 C2395 1.433 . S
C2397 N2400 1.384 . S
C2398 H2389 0.929 . S
C2398 C2390 1.378 . S
C2398 C2393 1.350 . S
C2399 H2386 0.929 . S
C2399 C2391 1.433 . S
C2399 N2401 1.384 . S
N2400 C2396 1.427 . S
N2400 C2397 1.384 . S
N2401 C2393 1.427 . S
N2401 C2399 1.384 . S
H2402 C2408 0.930 . S
H2403 C2412 0.930 . S
H2404 C2417 0.929 . S
H2405 C2415 0.929 . S
H2406 C2410 0.929 . S
H2407 C2416 0.929 . S
C2408 H2402 0.930 . S
C2408 C2409 1.367 . S
C2408 C2416 1.378 . S
C2409 C2408 1.367 . S
C2409 C2417 1.433 . S
C2410 H2406 0.929 . S
C2410 C2412 1.378 . S
C2410 C2414 1.350 . S
C2411 C2414 1.463 1_556 S
C2411 C2416 1.350 . S
C2411 N2419 1.427 . S
C2412 H2403 0.930 . S
C2412 C2410 1.378 . S
C2412 C2413 1.367 . S
C2413 C2412 1.367 . S
C2413 C2415 1.433 . S
C2414 C2410 1.350 . S
C2414 C2411 1.463 1_554 S
C2414 N2418 1.427 . S
C2415 H2405 0.929 . S
C2415 C2413 1.433 . S
C2415 N2418 1.384 . S
C2416 H2407 0.929 . S
C2416 C2408 1.378 . S
C2416 C2411 1.350 . S
C2417 H2404 0.929 . S
C2417 C2409 1.433 . S
C2417 N2419 1.384 . S
N2418 C2414 1.427 . S
N2418 C2415 1.384 . S
N2419 C2411 1.427 . S
N2419 C2417 1.384 . S
H2420 C2426 0.930 . S
H2421 C2430 0.930 . S
H2422 C2435 0.929 . S
H2423 C2433 0.929 . S
H2424 C2428 0.929 . S
H2425 C2434 0.929 . S
C2426 H2420 0.930 . S
C2426 C2427 1.367 . S
C2426 C2434 1.378 . S
C2427 C2426 1.367 . S
C2427 C2435 1.433 . S
C2428 H2424 0.929 . S
C2428 C2430 1.378 . S
C2428 C2432 1.350 . S
C2429 C2432 1.463 . S
C2429 C2434 1.350 . S
C2429 N2437 1.427 . S
C2430 H2421 0.930 . S
C2430 C2428 1.378 . S
C2430 C2431 1.367 . S
C2431 C2430 1.367 . S
C2431 C2433 1.433 . S
C2432 C2428 1.350 . S
C2432 C2429 1.463 . S
C2432 N2436 1.427 . S
C2433 H2423 0.929 . S
C2433 C2431 1.433 . S
C2433 N2436 1.384 . S
C2434 H2425 0.929 . S
C2434 C2426 1.378 . S
C2434 C2429 1.350 . S
C2435 H2422 0.929 . S
C2435 C2427 1.433 . S
C2435 N2437 1.384 . S
N2436 C2432 1.427 . S
N2436 C2433 1.384 . S
N2437 C2429 1.427 . S
N2437 C2435 1.384 . S
H2438 C2444 0.930 . S
H2439 C2448 0.930 . S
H2440 C2453 0.929 . S
H2441 C2451 0.929 . S
H2442 C2446 0.929 . S
H2443 C2452 0.929 . S
C2444 H2438 0.930 . S
C2444 C2445 1.367 . S
C2444 C2452 1.378 . S
C2445 C2444 1.367 . S
C2445 C2453 1.433 . S
C2446 H2442 0.929 . S
C2446 C2448 1.378 . S
C2446 C2450 1.350 . S
C2447 C2450 1.463 . S
C2447 C2452 1.350 . S
C2447 N2455 1.427 . S
C2448 H2439 0.930 . S
C2448 C2446 1.378 . S
C2448 C2449 1.367 . S
C2449 C2448 1.367 . S
C2449 C2451 1.433 . S
C2450 C2446 1.350 . S
C2450 C2447 1.463 . S
C2450 N2454 1.427 . S
C2451 H2441 0.929 . S
C2451 C2449 1.433 . S
C2451 N2454 1.384 . S
C2452 H2443 0.929 . S
C2452 C2444 1.378 . S
C2452 C2447 1.350 . S
C2453 H2440 0.929 . S
C2453 C2445 1.433 . S
C2453 N2455 1.384 . S
N2454 C2450 1.427 . S
N2454 C2451 1.384 . S
N2455 C2447 1.427 . S
N2455 C2453 1.384 . S
H2456 C2462 0.930 . S
H2457 C2466 0.930 . S
H2458 C2471 0.929 . S
H2459 C2469 0.929 . S
H2460 C2464 0.929 . S
H2461 C2470 0.929 . S
C2462 H2456 0.930 . S
C2462 C2463 1.367 . S
C2462 C2470 1.378 . S
C2463 C2462 1.367 . S
C2463 C2471 1.433 . S
C2464 H2460 0.929 . S
C2464 C2466 1.378 . S
C2464 C2468 1.350 . S
C2465 C2468 1.463 . S
C2465 C2470 1.350 . S
C2465 N2473 1.427 . S
C2466 H2457 0.930 . S
C2466 C2464 1.378 . S
C2466 C2467 1.367 . S
C2467 C2466 1.367 . S
C2467 C2469 1.433 . S
C2468 C2464 1.350 . S
C2468 C2465 1.463 . S
C2468 N2472 1.427 . S
C2469 H2459 0.929 . S
C2469 C2467 1.433 . S
C2469 N2472 1.384 . S
C2470 H2461 0.929 . S
C2470 C2462 1.378 . S
C2470 C2465 1.350 . S
C2471 H2458 0.929 . S
C2471 C2463 1.433 . S
C2471 N2473 1.384 . S
N2472 C2468 1.427 . S
N2472 C2469 1.384 . S
N2473 C2465 1.427 . S
N2473 C2471 1.384 . S
H2474 C2480 0.930 . S
H2475 C2484 0.930 . S
H2476 C2489 0.929 . S
H2477 C2487 0.929 . S
H2478 C2482 0.929 . S
H2479 C2488 0.929 . S
C2480 H2474 0.930 . S
C2480 C2481 1.367 . S
C2480 C2488 1.378 . S
C2481 C2480 1.367 . S
C2481 C2489 1.433 . S
C2482 H2478 0.929 . S
C2482 C2484 1.378 . S
C2482 C2486 1.350 . S
C2483 C2486 1.463 1_556 S
C2483 C2488 1.350 . S
C2483 N2491 1.427 . S
C2484 H2475 0.930 . S
C2484 C2482 1.378 . S
C2484 C2485 1.367 . S
C2485 C2484 1.367 . S
C2485 C2487 1.433 . S
C2486 C2482 1.350 . S
C2486 C2483 1.463 1_554 S
C2486 N2490 1.427 . S
C2487 H2477 0.929 . S
C2487 C2485 1.433 . S
C2487 N2490 1.384 . S
C2488 H2479 0.929 . S
C2488 C2480 1.378 . S
C2488 C2483 1.350 . S
C2489 H2476 0.929 . S
C2489 C2481 1.433 . S
C2489 N2491 1.384 . S
N2490 C2486 1.427 . S
N2490 C2487 1.384 . S
N2491 C2483 1.427 . S
N2491 C2489 1.384 . S
H2492 C2498 0.930 . S
H2493 C2502 0.930 . S
H2494 C2507 0.929 . S
H2495 C2505 0.929 . S
H2496 C2500 0.929 . S
H2497 C2506 0.929 . S
C2498 H2492 0.930 . S
C2498 C2499 1.367 . S
C2498 C2506 1.378 . S
C2499 C2498 1.367 . S
C2499 C2507 1.433 . S
C2500 H2496 0.929 . S
C2500 C2502 1.378 . S
C2500 C2504 1.350 . S
C2501 C2504 1.463 . S
C2501 C2506 1.350 . S
C2501 N2509 1.427 . S
C2502 H2493 0.930 . S
C2502 C2500 1.378 . S
C2502 C2503 1.367 . S
C2503 C2502 1.367 . S
C2503 C2505 1.433 . S
C2504 C2500 1.350 . S
C2504 C2501 1.463 . S
C2504 N2508 1.427 . S
C2505 H2495 0.929 . S
C2505 C2503 1.433 . S
C2505 N2508 1.384 . S
C2506 H2497 0.929 . S
C2506 C2498 1.378 . S
C2506 C2501 1.350 . S
C2507 H2494 0.929 . S
C2507 C2499 1.433 . S
C2507 N2509 1.384 . S
N2508 C2504 1.427 . S
N2508 C2505 1.384 . S
N2509 C2501 1.427 . S
N2509 C2507 1.384 . S
H2510 C2516 0.930 . S
H2511 C2520 0.930 . S
H2512 C2525 0.929 . S
H2513 C2523 0.929 . S
H2514 C2518 0.929 . S
H2515 C2524 0.929 . S
C2516 H2510 0.930 . S
C2516 C2517 1.367 . S
C2516 C2524 1.378 . S
C2517 C2516 1.367 . S
C2517 C2525 1.433 . S
C2518 H2514 0.929 . S
C2518 C2520 1.378 . S
C2518 C2522 1.350 . S
C2519 C2522 1.463 . S
C2519 C2524 1.350 . S
C2519 N2527 1.427 . S
C2520 H2511 0.930 . S
C2520 C2518 1.378 . S
C2520 C2521 1.367 . S
C2521 C2520 1.367 . S
C2521 C2523 1.433 . S
C2522 C2518 1.350 . S
C2522 C2519 1.463 . S
C2522 N2526 1.427 . S
C2523 H2513 0.929 . S
C2523 C2521 1.433 . S
C2523 N2526 1.384 . S
C2524 H2515 0.929 . S
C2524 C2516 1.378 . S
C2524 C2519 1.350 . S
C2525 H2512 0.929 . S
C2525 C2517 1.433 . S
C2525 N2527 1.384 . S
N2526 C2522 1.427 . S
N2526 C2523 1.384 . S
N2527 C2519 1.427 . S
N2527 C2525 1.384 . S
C1095 C20 1.290 . S
C1099 C985 1.269 . S
C1113 C54 1.290 . S
C1117 C475 1.270 . S
C1131 C88 1.294 . S
C1135 C1053 1.278 . S
C1149 C122 1.293 . S
C1153 C543 1.273 . S
C1167 C849 1.266 . S
C1171 C156 1.289 . S
C1185 C190 1.294 . S
C1189 C339 1.278 . S
C1203 C224 1.294 . S
C1207 C917 1.275 . S
C1221 C407 1.273 . S
C1225 C258 1.291 . S
C1239 C713 1.270 . S
C1243 C292 1.290 . S
C1257 C326 1.294 . S
C1261 C203 1.276 . S
C1275 C360 1.293 . S
C1279 C781 1.277 . S
C1293 C271 1.266 . S
C1297 C394 1.289 . S
C1311 C577 1.272 . S
C1315 C428 1.293 . S
C1329 C67 1.268 . S
C1333 C462 1.289 . S
C1347 C496 1.291 . S
C1351 C645 1.269 . S
C1365 C530 1.291 . S
C1369 C135 1.269 . S
C1383 C564 1.290 . S
C1387 C441 1.266 . S
C1401 C1019 1.270 . S
C1405 C598 1.292 . S
C1419 C509 1.269 . S
C1423 C632 1.291 . S
C1437 C1087 1.277 . S
C1441 C666 1.294 . S
C1455 C305 1.268 . S
C1459 C700 1.289 . S
C1473 C734 1.290 . S
C1477 C883 1.270 . S
C1491 C373 1.276 . S
C1495 C768 1.293 . S
C1509 C951 1.269 . S
C1513 C802 1.290 . S
C1527 C169 1.277 . S
C1531 C836 1.294 . S
C1545 C747 1.270 . S
C1549 C870 1.292 . S
C1563 C237 1.270 . S
C1567 C904 1.290 . S
C1581 C815 1.270 . S
C1585 C938 1.290 . S
C1599 C33 1.268 . S
C1603 C972 1.289 . S
C1617 C611 1.266 . S
C1621 C1006 1.289 . S
C1635 C1040 1.290 . S
C1639 C101 1.267 . S
C1653 C679 1.278 . S
C1657 C1074 1.295 . S
C1671 C614 0.819 . S
C1675 C2 0.815 . S
C1689 C36 0.818 . S
C1693 C648 0.821 . S
C1707 C546 0.818 . S
C1711 C70 0.814 . S
C1725 C104 0.797 . S
C1729 C580 0.795 . S
C1743 C750 0.825 . S
C1747 C138 0.827 . S
C1761 C784 0.819 . S
C1765 C172 0.815 . S
C1779 C206 0.808 . S
C1783 C682 0.805 . S
C1797 C716 0.801 . S
C1801 C240 0.798 . S
C1815 C274 0.811 . S
C1819 C886 0.815 . S
C1833 C308 0.827 . S
C1837 C920 0.826 . S
C1851 C818 0.828 . S
C1855 C342 0.828 . S
C1869 C852 0.820 . S
C1873 C376 0.816 . S
C1887 C410 0.820 . S
C1891 C1022 0.816 . S
C1905 C1056 0.799 . S
C1909 C444 0.801 . S
C1923 C954 0.813 . S
C1927 C478 0.817 . S
C1941 C988 0.828 . S
C1945 C512 0.828 . S
C1959 C5 1.546 . S
C1963 C175 1.546 . S
C1977 C39 1.545 . S
C1981 C209 1.546 . S
C1995 C73 1.545 . S
C1999 C243 1.545 . S
C2013 C107 1.546 . S
C2017 C141 1.545 . S
C2031 C277 1.545 . S
C2035 C447 1.546 . S
C2049 C481 1.545 . S
C2053 C311 1.545 . S
C2067 C515 1.545 . S
C2071 C345 1.545 . S
C2085 C413 1.546 . S
C2089 C379 1.545 . S
C2103 C549 1.545 . S
C2107 C719 1.545 . S
C2121 C583 1.546 . S
C2125 C753 1.545 . S
C2139 C787 1.545 . S
C2143 C617 1.546 . S
C2157 C685 1.545 . S
C2161 C651 1.546 . S
C2175 C821 1.545 . S
C2179 C991 1.545 . S
C2193 C1025 1.546 . S
C2197 C855 1.545 . S
C2211 C1059 1.546 . S
C2215 C889 1.545 . S
C2229 C923 1.545 . S
C2233 C957 1.545 . S
C2247 C145 1.449 . S
C2251 C9 1.434 . S
C2265 C43 1.448 . S
C2269 C179 1.443 . S
C2283 C77 1.440 . S
C2287 C213 1.451 . S
C2301 C111 1.436 . S
C2305 C247 1.452 . S
C2319 C417 1.451 . S
C2323 C281 1.434 . S
C2337 C315 1.434 . S
C2341 C451 1.452 . S
C2355 C485 1.435 . S
C2359 C349 1.447 . S
C2373 C383 1.450 . S
C2377 C519 1.434 . S
C2391 C553 1.439 . S
C2395 C689 1.451 . S
C2409 C723 1.452 . S
C2413 C587 1.437 . S
C2427 C757 1.440 . S
C2431 C621 1.450 . S
C2445 C791 1.436 . S
C2449 C655 1.452 . S
C2463 C825 1.435 . S
C2467 C961 1.448 . S
C2481 C859 1.438 . S
C2485 C995 1.451 . S
C2499 C893 1.450 . S
C2503 C1029 1.441 . S
C2517 C927 1.441 . S
C2521 C1063 1.439 . S
