# Generated by pormake.
# Topology zfj, (5)-cn, num edge types: 1
# Building blocks:
#     Node 0, Type 0, BuildingBlock: XOMCOT_clean_sbu_1, # of connection points: 5
#     Node 1, Type 0, BuildingBlock: XOMCOT_clean_sbu_1, # of connection points: 5
#     Node 2, Type 0, BuildingBlock: XOMCOT_clean_sbu_1, # of connection points: 5
#     Node 3, Type 0, BuildingBlock: XOMCOT_clean_sbu_1, # of connection points: 5
#     Node 4, Type 0, BuildingBlock: XOMCOT_clean_sbu_1, # of connection points: 5
#     Node 5, Type 0, BuildingBlock: XOMCOT_clean_sbu_1, # of connection points: 5
#     Node 6, Type 0, BuildingBlock: XOMCOT_clean_sbu_1, # of connection points: 5
#     Node 7, Type 0, BuildingBlock: XOMCOT_clean_sbu_1, # of connection points: 5
#     Node 8, Type 0, BuildingBlock: XOMCOT_clean_sbu_1, # of connection points: 5
#     Node 9, Type 0, BuildingBlock: XOMCOT_clean_sbu_1, # of connection points: 5
#     Node 10, Type 0, BuildingBlock: XOMCOT_clean_sbu_1, # of connection points: 5
#     Node 11, Type 0, BuildingBlock: XOMCOT_clean_sbu_1, # of connection points: 5
#     Node 12, Type 0, BuildingBlock: XOMCOT_clean_sbu_1, # of connection points: 5
#     Node 13, Type 0, BuildingBlock: XOMCOT_clean_sbu_1, # of connection points: 5
#     Node 14, Type 0, BuildingBlock: XOMCOT_clean_sbu_1, # of connection points: 5
#     Node 15, Type 0, BuildingBlock: XOMCOT_clean_sbu_1, # of connection points: 5
#     Edge 16, Type (0, 0), None
#     Edge 17, Type (0, 0), None
#     Edge 18, Type (0, 0), None
#     Edge 19, Type (0, 0), None
#     Edge 20, Type (0, 0), None
#     Edge 21, Type (0, 0), None
#     Edge 22, Type (0, 0), None
#     Edge 23, Type (0, 0), None
#     Edge 24, Type (0, 0), None
#     Edge 25, Type (0, 0), None
#     Edge 26, Type (0, 0), None
#     Edge 27, Type (0, 0), None
#     Edge 28, Type (0, 0), None
#     Edge 29, Type (0, 0), None
#     Edge 30, Type (0, 0), None
#     Edge 31, Type (0, 0), None
#     Edge 32, Type (0, 0), None
#     Edge 33, Type (0, 0), None
#     Edge 34, Type (0, 0), None
#     Edge 35, Type (0, 0), None
#     Edge 36, Type (0, 0), None
#     Edge 37, Type (0, 0), None
#     Edge 38, Type (0, 0), None
#     Edge 39, Type (0, 0), None
#     Edge 40, Type (0, 0), None
#     Edge 41, Type (0, 0), None
#     Edge 42, Type (0, 0), None
#     Edge 43, Type (0, 0), None
#     Edge 44, Type (0, 0), None
#     Edge 45, Type (0, 0), None
#     Edge 46, Type (0, 0), None
#     Edge 47, Type (0, 0), None
#     Edge 48, Type (0, 0), None
#     Edge 49, Type (0, 0), None
#     Edge 50, Type (0, 0), None
#     Edge 51, Type (0, 0), None
#     Edge 52, Type (0, 0), None
#     Edge 53, Type (0, 0), None
#     Edge 54, Type (0, 0), None
#     Edge 55, Type (0, 0), None
# Relax obj value: 0.189
# Max RMSD: 0.157
# Mean RMSD: 0.157
data_MOF--net-zfj--node1-XOMCOT_clean_sbu_1--edge1-none
_symmetry_space_group_name_H-M    P1
_symmetry_Int_Tables_number       1
_symmetry_cell_setting            triclinic
loop_
_symmetry_equiv_pos_as_xyz
'x, y, z'
_cell_length_a     18.702088
_cell_length_b     18.702277
_cell_length_c     22.655676
_cell_angle_alpha  89.948064
_cell_angle_beta   90.052254
_cell_angle_gamma 90.006771
loop_
_atom_site_label
_atom_site_type_symbol
_atom_site_fract_x
_atom_site_fract_y
_atom_site_fract_z
_atom_type_partial_charge
C0 C 0.52582 0.33296 0.22319 0.0
C1 C 0.53205 0.40593 0.22042 0.0
N2 N 0.48805 0.4296 0.17799 0.0
N3 N 0.48018 0.30938 0.18103 0.0
C4 C 0.45461 0.37073 0.15666 0.0
H5 H 0.55677 0.29921 0.25218 0.0
Co6 Co 0.47943 0.21092 0.15681 0.0
C7 C 0.45257 0.28266 0.03652 0.0
O8 O 0.50024 0.33312 0.04548 0.0
N9 N 0.48256 0.11391 0.13433 0.0
C10 C 0.52003 0.01549 0.08778 0.0
C11 C 0.50331 0.08707 0.08162 0.0
C12 C 0.48561 0.05735 0.17125 0.0
N13 N 0.50882 0.99721 0.14435 0.0
O14 O 0.38483 0.19747 0.18802 0.0
H15 H 0.51166 0.11867 0.04227 0.0
H16 H 0.4754 0.06156 0.21738 0.0
O17 O 0.44095 0.235 0.0763 0.0
C18 C 0.37993 0.19285 0.2444 0.0
O19 O 0.43319 0.21581 0.27705 0.0
N20 N 0.57412 0.21785 0.13487 0.0
C21 C 0.72057 0.23055 0.13306 0.0
C22 C 0.68146 0.23953 0.08101 0.0
C23 C 0.60764 0.23045 0.0825 0.0
C24 C 0.61271 0.20031 0.18367 0.0
C25 C 0.6863 0.20674 0.18401 0.0
H26 H 0.57874 0.23305 0.04191 0.0
H27 H 0.58529 0.18415 0.22345 0.0
H28 H 0.41522 0.37232 0.12184 0.0
H29 H 0.56962 0.43813 0.24478 0.0
H30 H 0.54235 0.98105 0.05433 0.0
H31 H 0.70737 0.25558 0.04045 0.0
H32 H 0.71587 0.19546 0.22403 0.0
C33 C 0.18347 0.50711 0.7313 0.0
C34 C 0.11145 0.51908 0.72544 0.0
N35 N 0.09121 0.49738 0.67158 0.0
N36 N 0.20972 0.47833 0.68109 0.0
C37 C 0.15137 0.47256 0.64544 0.0
H38 H 0.21606 0.52895 0.76633 0.0
Co39 Co 0.30718 0.49397 0.66275 0.0
C40 C 0.27346 0.42544 0.53866 0.0
O41 O 0.23633 0.36728 0.54933 0.0
N42 N 0.40442 0.51422 0.64404 0.0
C43 C 0.49931 0.5723 0.60735 0.0
C44 C 0.42712 0.55926 0.60101 0.0
C45 C 0.4647 0.49825 0.67422 0.0
N46 N 0.52241 0.53449 0.65402 0.0
O47 O 0.33377 0.399 0.68889 0.0
H48 H 0.39268 0.58403 0.56852 0.0
H49 H 0.46598 0.46155 0.71051 0.0
O50 O 0.29485 0.46518 0.5809 0.0
C51 C 0.33713 0.38868 0.74492 0.0
O52 O 0.31187 0.43773 0.78054 0.0
N53 N 0.28325 0.5862 0.64441 0.0
C54 C 0.24523 0.72791 0.63664 0.0
C55 C 0.21811 0.67886 0.59589 0.0
C56 C 0.23807 0.60749 0.60051 0.0
C57 C 0.30913 0.63324 0.68474 0.0
C58 C 0.29183 0.70493 0.68101 0.0
H59 H 0.21502 0.56922 0.57059 0.0
H60 H 0.34287 0.61444 0.72024 0.0
H61 H 0.15407 0.45994 0.59913 0.0
H62 H 0.07911 0.54995 0.75518 0.0
H63 H 0.53157 0.60769 0.58058 0.0
H64 H 0.1807 0.69529 0.56196 0.0
H65 H 0.3144 0.74196 0.71257 0.0
C66 C 0.0129 0.18366 0.23133 0.0
C67 C 0.99888 0.11196 0.22491 0.0
N68 N 0.02018 0.0921 0.1708 0.0
N69 N 0.0433 0.20981 0.18161 0.0
C70 C 0.04769 0.15175 0.1456 0.0
H71 H 0.99215 0.21635 0.26671 0.0
Co72 Co 0.03086 0.308 0.16245 0.0
C73 C 0.09894 0.27262 0.03903 0.0
O74 O 0.1572 0.2355 0.0494 0.0
N75 N 0.01335 0.40575 0.14231 0.0
C76 C 0.95399 0.50021 0.10608 0.0
C77 C 0.96675 0.42803 0.10021 0.0
C78 C 0.03152 0.4667 0.17067 0.0
N79 N 0.99391 0.52411 0.15118 0.0
O80 O 0.12697 0.33211 0.18831 0.0
H81 H 0.94011 0.39324 0.06907 0.0
H82 H 0.07044 0.46843 0.20534 0.0
O83 O 0.05971 0.29416 0.08138 0.0
C84 C 0.13944 0.33131 0.24407 0.0
O85 O 0.09128 0.30432 0.27967 0.0
N86 N 0.93799 0.28639 0.1441 0.0
C87 C 0.79587 0.25024 0.13583 0.0
C88 C 0.84478 0.22223 0.09552 0.0
C89 C 0.91627 0.24136 0.10029 0.0
C90 C 0.89103 0.31342 0.18398 0.0
C91 C 0.81909 0.29694 0.18005 0.0
H92 H 0.95431 0.21754 0.07065 0.0
H93 H 0.91008 0.34731 0.21932 0.0
H94 H 0.06156 0.1546 0.09954 0.0
H95 H 0.9689 0.07923 0.2553 0.0
H96 H 0.91671 0.53178 0.08048 0.0
H97 H 0.82819 0.1844 0.06203 0.0
H98 H 0.7821 0.31978 0.21154 0.0
C99 C 0.33108 0.99572 0.72235 0.0
C100 C 0.40386 0.98686 0.71889 0.0
N101 N 0.42823 0.0295 0.67583 0.0
N102 N 0.30836 0.0422 0.6804 0.0
C103 C 0.37024 0.06537 0.65539 0.0
H104 H 0.29664 0.96615 0.75174 0.0
Co105 Co 0.2096 0.04528 0.65579 0.0
C106 C 0.2818 0.07102 0.53576 0.0
O107 O 0.33172 0.02265 0.54423 0.0
N108 N 0.11246 0.04402 0.63216 0.0
C109 C 0.01488 1.00102 0.58738 0.0
C110 C 0.08633 0.01782 0.58079 0.0
C111 C 0.05504 0.04564 0.66809 0.0
N112 N 0.99563 0.01819 0.64267 0.0
O113 O 0.19803 0.14097 0.68673 0.0
H114 H 0.11836 1.00547 0.54248 0.0
H115 H 0.05801 0.0633 0.71251 0.0
O116 O 0.23449 0.08287 0.5756 0.0
C117 C 0.1983 0.14802 0.74312 0.0
O118 O 0.22353 0.09573 0.77569 0.0
N119 N 0.21477 0.95004 0.63452 0.0
C120 C 0.22594 0.80333 0.63355 0.0
C121 C 0.23647 0.84204 0.58157 0.0
C122 C 0.2285 0.91596 0.58262 0.0
C123 C 0.19591 0.91198 0.68329 0.0
C124 C 0.20201 0.83828 0.68417 0.0
H125 H 0.23267 0.94445 0.54197 0.0
H126 H 0.17921 0.93984 0.72275 0.0
H127 H 0.3727 0.10499 0.62081 0.0
H128 H 0.43546 0.94929 0.74383 0.0
H129 H 0.9814 0.97423 0.55544 0.0
H130 H 0.25329 0.81572 0.54144 0.0
H131 H 0.19067 0.80925 0.72447 0.0
C132 C 0.50717 0.18345 0.7832 0.0
C133 C 0.51914 0.11143 0.78905 0.0
N134 N 0.49742 0.09119 0.84291 0.0
N135 N 0.47837 0.20969 0.83339 0.0
C136 C 0.47259 0.15135 0.86904 0.0
H137 H 0.52902 0.21604 0.74817 0.0
Co138 Co 0.494 0.30716 0.85174 0.0
C139 C 0.42546 0.27344 0.97583 0.0
O140 O 0.3673 0.2363 0.96516 0.0
N141 N 0.51425 0.4044 0.87045 0.0
C142 C 0.57231 0.49929 0.90715 0.0
C143 C 0.55927 0.4271 0.91349 0.0
C144 C 0.49828 0.46468 0.84026 0.0
N145 N 0.53452 0.52239 0.86048 0.0
O146 O 0.39903 0.33375 0.82558 0.0
H147 H 0.58403 0.39267 0.94599 0.0
H148 H 0.46159 0.46595 0.80397 0.0
O149 O 0.4652 0.29483 0.93358 0.0
C150 C 0.38871 0.33707 0.76955 0.0
O151 O 0.43772 0.31177 0.73392 0.0
N152 N 0.58623 0.28324 0.87009 0.0
C153 C 0.72793 0.24521 0.87786 0.0
C154 C 0.67889 0.21809 0.91861 0.0
C155 C 0.60751 0.23805 0.91399 0.0
C156 C 0.63327 0.30912 0.82977 0.0
C157 C 0.70496 0.29181 0.8335 0.0
H158 H 0.56925 0.215 0.94391 0.0
H159 H 0.61448 0.34286 0.79426 0.0
H160 H 0.45996 0.15405 0.91535 0.0
H161 H 0.55002 0.07909 0.75933 0.0
H162 H 0.6077 0.53155 0.93393 0.0
H163 H 0.69532 0.18068 0.95254 0.0
H164 H 0.742 0.31438 0.80193 0.0
C165 C 0.33299 0.52581 0.2913 0.0
C166 C 0.40596 0.53204 0.29408 0.0
N167 N 0.42963 0.48804 0.3365 0.0
N168 N 0.30941 0.48016 0.33346 0.0
C169 C 0.37076 0.45458 0.35783 0.0
H170 H 0.29923 0.55676 0.26232 0.0
Co171 Co 0.21094 0.47941 0.35768 0.0
C172 C 0.28269 0.45254 0.47796 0.0
O173 O 0.33315 0.50021 0.46901 0.0
N174 N 0.11394 0.48254 0.38016 0.0
C175 C 0.01551 0.52 0.42672 0.0
C176 C 0.08709 0.50328 0.43288 0.0
C177 C 0.05738 0.4856 0.34324 0.0
N178 N 0.99723 0.5088 0.37014 0.0
O179 O 0.19749 0.38481 0.32646 0.0
H180 H 0.11869 0.51162 0.47223 0.0
H181 H 0.06159 0.4754 0.2971 0.0
O182 O 0.23502 0.44092 0.43819 0.0
C183 C 0.19292 0.3799 0.27008 0.0
O184 O 0.21592 0.43312 0.2374 0.0
N185 N 0.21788 0.5741 0.37963 0.0
C186 C 0.23057 0.72054 0.38144 0.0
C187 C 0.23955 0.68144 0.43349 0.0
C188 C 0.23048 0.60761 0.432 0.0
C189 C 0.20033 0.61269 0.33083 0.0
C190 C 0.20676 0.68628 0.3305 0.0
H191 H 0.23308 0.57871 0.47259 0.0
H192 H 0.18417 0.58527 0.29105 0.0
H193 H 0.37235 0.4152 0.39265 0.0
H194 H 0.43815 0.56962 0.26972 0.0
H195 H 0.98108 0.54232 0.46016 0.0
H196 H 0.25561 0.70733 0.47405 0.0
H197 H 0.19548 0.71585 0.29047 0.0
C198 C 0.99573 0.33106 0.79215 0.0
C199 C 0.98687 0.40384 0.79561 0.0
N200 N 0.02951 0.42821 0.83867 0.0
N201 N 0.04221 0.30835 0.8341 0.0
C202 C 0.06539 0.37023 0.8591 0.0
H203 H 0.96616 0.29662 0.76276 0.0
Co204 Co 0.04531 0.20958 0.8587 0.0
C205 C 0.07106 0.28178 0.97873 0.0
O206 O 0.02268 0.3317 0.97027 0.0
N207 N 0.04405 0.11244 0.88232 0.0
C208 C 1.00106 0.01486 0.92711 0.0
C209 C 0.01786 0.0863 0.9337 0.0
C210 C 0.04565 0.05503 0.84639 0.0
N211 N 0.01821 0.99561 0.87181 0.0
O212 O 0.141 0.19801 0.82775 0.0
H213 H 1.00553 0.11834 0.97201 0.0
H214 H 0.06328 0.05799 0.80196 0.0
O215 O 0.0829 0.23447 0.93888 0.0
C216 C 0.14806 0.19834 0.77136 0.0
O217 O 0.09582 0.22364 0.73876 0.0
N218 N 0.95007 0.21475 0.87998 0.0
C219 C 0.80335 0.22591 0.88095 0.0
C220 C 0.84207 0.23644 0.93293 0.0
C221 C 0.91599 0.22848 0.93188 0.0
C222 C 0.912 0.19588 0.83121 0.0
C223 C 0.83831 0.20199 0.83033 0.0
H224 H 0.94448 0.23264 0.97253 0.0
H225 H 0.93986 0.1792 0.79174 0.0
H226 H 0.10502 0.37268 0.89368 0.0
H227 H 0.94929 0.43543 0.77067 0.0
H228 H 0.97428 0.98138 0.95906 0.0
H229 H 0.81575 0.25326 0.97307 0.0
H230 H 0.80927 0.19065 0.79003 0.0
C231 C 0.18369 0.01283 0.28317 0.0
C232 C 0.11199 0.99881 0.2896 0.0
N233 N 0.09213 0.02013 0.34369 0.0
N234 N 0.20984 0.04326 0.33288 0.0
C235 C 0.15178 0.04766 0.36889 0.0
H236 H 0.21638 0.99207 0.2478 0.0
Co237 Co 0.30803 0.03082 0.35204 0.0
C238 C 0.27266 0.09892 0.47546 0.0
O239 O 0.23552 0.15717 0.4651 0.0
N240 N 0.40578 0.01332 0.37218 0.0
C241 C 0.50023 0.95397 0.40841 0.0
C242 C 0.42806 0.96673 0.41428 0.0
C243 C 0.46672 0.03149 0.34382 0.0
N244 N 0.52414 0.99388 0.36331 0.0
O245 O 0.33214 0.12693 0.32617 0.0
H246 H 0.39327 0.94009 0.44543 0.0
H247 H 0.46845 0.0704 0.30915 0.0
O248 O 0.29419 0.05968 0.43311 0.0
C249 C 0.33128 0.13943 0.27042 0.0
O250 O 0.3042 0.09135 0.23479 0.0
N251 N 0.28641 0.93796 0.3704 0.0
C252 C 0.25026 0.79584 0.37867 0.0
C253 C 0.22225 0.84475 0.41899 0.0
C254 C 0.24139 0.91625 0.41421 0.0
C255 C 0.31344 0.891 0.33052 0.0
C256 C 0.29696 0.81906 0.33445 0.0
H257 H 0.21757 0.95428 0.44385 0.0
H258 H 0.34734 0.91005 0.29518 0.0
H259 H 0.15462 0.06155 0.41495 0.0
H260 H 0.07926 0.96882 0.25921 0.0
H261 H 0.53181 0.91669 0.43402 0.0
H262 H 0.18442 0.82817 0.45247 0.0
H263 H 0.3198 0.78206 0.30296 0.0
C264 C 0.49629 0.68904 0.79127 0.0
C265 C 0.49 0.61608 0.79409 0.0
N266 N 0.53385 0.59243 0.83662 0.0
N267 N 0.54188 0.71263 0.83349 0.0
C268 C 0.56735 0.65128 0.85793 0.0
H269 H 0.46544 0.72279 0.76221 0.0
Co270 Co 0.54265 0.81111 0.8577 0.0
C271 C 0.56937 0.73938 0.97801 0.0
O272 O 0.52159 0.68902 0.96906 0.0
N273 N 0.53954 0.90811 0.88018 0.0
C274 C 0.50219 1.00656 0.92677 0.0
C275 C 0.51898 0.93499 0.93293 0.0
C276 C 0.53629 0.96462 0.84323 0.0
N277 N 0.51313 0.02478 0.87014 0.0
O278 O 0.63725 0.82452 0.8265 0.0
H279 H 0.5108 0.90342 0.97232 0.0
H280 H 0.54629 0.96036 0.79707 0.0
O281 O 0.5811 0.787 0.93822 0.0
C282 C 0.64214 0.82916 0.77012 0.0
O283 O 0.58887 0.80622 0.73748 0.0
N284 N 0.44795 0.80421 0.87962 0.0
C285 C 0.3015 0.7915 0.8814 0.0
C286 C 0.34059 0.78267 0.93348 0.0
C287 C 0.41441 0.79177 0.932 0.0
C288 C 0.40938 0.82164 0.83078 0.0
C289 C 0.3358 0.8152 0.83043 0.0
H290 H 0.4433 0.78931 0.97261 0.0
H291 H 0.43682 0.83773 0.79099 0.0
H292 H 0.60669 0.64968 0.89278 0.0
H293 H 0.45248 0.58388 0.76966 0.0
H294 H 0.47999 0.04102 0.96025 0.0
H295 H 0.31467 0.76672 0.97406 0.0
H296 H 0.30624 0.82641 0.79038 0.0
C297 C 0.83857 0.51484 0.28315 0.0
C298 C 0.91058 0.50279 0.28903 0.0
N299 N 0.93078 0.5244 0.34292 0.0
N300 N 0.81232 0.54362 0.33336 0.0
C301 C 0.87065 0.54935 0.36903 0.0
H302 H 0.80599 0.49306 0.2481 0.0
Co303 Co 0.71486 0.52798 0.35171 0.0
C304 C 0.74857 0.59648 0.47581 0.0
O305 O 0.78565 0.65468 0.46513 0.0
N306 N 0.61762 0.50772 0.37043 0.0
C307 C 0.52274 0.44958 0.40706 0.0
C308 C 0.59492 0.46265 0.41343 0.0
C309 C 0.55734 0.5237 0.34024 0.0
N310 N 0.49963 0.48742 0.36042 0.0
O311 O 0.68826 0.62296 0.32559 0.0
H312 H 0.62935 0.43785 0.44591 0.0
H313 H 0.55607 0.56043 0.30398 0.0
O314 O 0.7272 0.55674 0.43356 0.0
C315 C 0.68489 0.63329 0.26956 0.0
O316 O 0.71015 0.58425 0.23393 0.0
N317 N 0.73879 0.43574 0.37004 0.0
C318 C 0.77683 0.29404 0.37779 0.0
C319 C 0.80396 0.34309 0.41854 0.0
C320 C 0.78397 0.41445 0.41393 0.0
C321 C 0.71292 0.3887 0.3297 0.0
C322 C 0.73023 0.31701 0.33343 0.0
H323 H 0.80701 0.45272 0.44386 0.0
H324 H 0.67918 0.4075 0.2942 0.0
H325 H 0.86795 0.56199 0.41533 0.0
H326 H 0.94293 0.47196 0.25928 0.0
H327 H 0.49048 0.41414 0.4338 0.0
H328 H 0.84138 0.32667 0.45246 0.0
H329 H 0.70766 0.27998 0.30187 0.0
C330 C 1.00917 0.83834 0.78311 0.0
C331 C 0.02324 0.91003 0.78955 0.0
N332 N 1.00204 0.92985 0.84369 0.0
N333 N 0.97879 0.81218 0.83284 0.0
C334 C 0.97444 0.87023 0.86886 0.0
H335 H 0.02987 0.80566 0.74771 0.0
Co336 Co 0.99122 0.71399 0.85201 0.0
C337 C 0.92313 0.74937 0.97543 0.0
O338 O 0.86485 0.78646 0.96507 0.0
N339 N 1.00873 0.61624 0.87217 0.0
C340 C 0.06811 0.52179 0.90837 0.0
C341 C 0.05534 0.59396 0.91426 0.0
C342 C 0.99055 0.55531 0.8438 0.0
N343 N 0.0282 0.4979 0.86325 0.0
O344 O 0.89512 0.68988 0.82615 0.0
H345 H 0.08198 0.62874 0.94539 0.0
H346 H 0.95163 0.55359 0.80915 0.0
O347 O 0.96237 0.72785 0.93308 0.0
C348 C 0.88264 0.69069 0.77039 0.0
O349 O 0.9308 0.71766 0.73479 0.0
N350 N 0.08409 0.73561 0.87037 0.0
C351 C 0.22621 0.77179 0.87863 0.0
C352 C 0.17729 0.79979 0.91894 0.0
C353 C 0.1058 0.78063 0.91417 0.0
C354 C 0.13106 0.70857 0.83049 0.0
C355 C 0.20299 0.72507 0.83442 0.0
H356 H 0.06777 0.80445 0.94381 0.0
H357 H 0.11202 0.67467 0.79515 0.0
H358 H 0.96054 0.86737 0.91492 0.0
H359 H 0.05319 0.94277 0.75914 0.0
H360 H 0.10541 0.49021 0.93395 0.0
H361 H 0.19387 0.83764 0.95242 0.0
H362 H 0.24 0.70222 0.80293 0.0
C363 C 0.69095 0.02618 0.2921 0.0
C364 C 0.61818 0.03507 0.29558 0.0
N365 N 0.59384 0.99259 0.33875 0.0
N366 N 0.71368 0.97977 0.33411 0.0
C367 C 0.65181 0.95669 0.35918 0.0
H368 H 0.7254 0.05566 0.26265 0.0
Co369 Co 0.81245 0.97667 0.35872 0.0
C370 C 0.74028 0.95104 0.47877 0.0
O371 O 0.69044 0.9995 0.47031 0.0
N372 N 0.90959 0.97792 0.38236 0.0
C373 C 1.00717 0.02089 0.42717 0.0
C374 C 0.93574 1.00402 0.43377 0.0
C375 C 0.96698 0.97645 0.34641 0.0
N376 N 0.02638 1.00391 0.37183 0.0
O377 O 0.82401 0.88098 0.32777 0.0
H378 H 0.90372 0.01625 0.47211 0.0
H379 H 0.96398 0.95891 0.30196 0.0
O380 O 0.78755 0.9391 0.43891 0.0
C381 C 0.82373 0.87396 0.27138 0.0
O382 O 0.79851 0.92627 0.23882 0.0
N383 N 0.80731 0.07191 0.37998 0.0
C384 C 0.79614 0.21862 0.38089 0.0
C385 C 0.78572 0.17994 0.43291 0.0
C386 C 0.7937 0.10603 0.43188 0.0
C387 C 0.82609 0.10994 0.33116 0.0
C388 C 0.81998 0.18364 0.33026 0.0
H389 H 0.78964 0.07755 0.47255 0.0
H390 H 0.84273 0.08206 0.29169 0.0
H391 H 0.64935 0.91711 0.3938 0.0
H392 H 0.58657 0.07257 0.27057 0.0
H393 H 0.04066 0.04761 0.45915 0.0
H394 H 0.76898 0.20628 0.47305 0.0
H395 H 0.83126 0.21264 0.28994 0.0
C396 C 0.51483 0.83855 0.23134 0.0
C397 C 0.50278 0.91055 0.22546 0.0
N398 N 0.5244 0.93076 0.17157 0.0
N399 N 0.54363 0.8123 0.18114 0.0
C400 C 0.54936 0.87063 0.14547 0.0
H401 H 0.49304 0.80596 0.26639 0.0
Co402 Co 0.52799 0.71484 0.16278 0.0
C403 C 0.59651 0.74854 0.03869 0.0
O404 O 0.65471 0.78563 0.04936 0.0
N405 N 0.50774 0.61759 0.14406 0.0
C406 C 0.44962 0.52271 0.10742 0.0
C407 C 0.46268 0.59489 0.10105 0.0
C408 C 0.52371 0.55732 0.17426 0.0
N409 N 0.48744 0.49961 0.15408 0.0
O410 O 0.62297 0.68824 0.18892 0.0
H411 H 0.43789 0.62932 0.06857 0.0
H412 H 0.56042 0.55605 0.21053 0.0
O413 O 0.55677 0.72718 0.08094 0.0
C414 C 0.63331 0.68491 0.24495 0.0
O415 O 0.58431 0.7102 0.2806 0.0
N416 N 0.43576 0.73876 0.14445 0.0
C417 C 0.29406 0.77681 0.13669 0.0
C418 C 0.34311 0.80393 0.09594 0.0
C419 C 0.41447 0.78394 0.10056 0.0
C420 C 0.38871 0.71289 0.18478 0.0
C421 C 0.31703 0.7302 0.18105 0.0
H422 H 0.45274 0.80699 0.07063 0.0
H423 H 0.4075 0.67915 0.22028 0.0
H424 H 0.56202 0.86793 0.09917 0.0
H425 H 0.47194 0.9429 0.25521 0.0
H426 H 0.41418 0.49045 0.08067 0.0
H427 H 0.32669 0.84135 0.06202 0.0
H428 H 0.27999 0.70764 0.21262 0.0
C429 C 0.68907 0.49626 0.72321 0.0
C430 C 0.6161 0.48996 0.7204 0.0
N431 N 0.59245 0.53382 0.67787 0.0
N432 N 0.71265 0.54185 0.68101 0.0
C433 C 0.6513 0.56732 0.65657 0.0
H434 H 0.72282 0.46541 0.75227 0.0
Co435 Co 0.81113 0.54262 0.6568 0.0
C436 C 0.7394 0.56935 0.53649 0.0
O437 O 0.68903 0.52158 0.54544 0.0
N438 N 0.90813 0.53952 0.63432 0.0
C439 C 1.00658 0.50217 0.58772 0.0
C440 C 0.93501 0.51897 0.58156 0.0
C441 C 0.96464 0.53625 0.67127 0.0
N442 N 0.0248 0.5131 0.64435 0.0
O443 O 0.82455 0.63723 0.688 0.0
H444 H 0.90344 0.5108 0.54217 0.0
H445 H 0.96038 0.54624 0.71743 0.0
O446 O 0.78702 0.58108 0.57628 0.0
C447 C 0.82914 0.64212 0.74439 0.0
O448 O 0.80615 0.58889 0.77705 0.0
N449 N 0.80423 0.44793 0.63487 0.0
C450 C 0.79152 0.30149 0.63308 0.0
C451 C 0.78269 0.34057 0.58101 0.0
C452 C 0.79179 0.41439 0.58249 0.0
C453 C 0.82166 0.40936 0.68371 0.0
C454 C 0.81523 0.33577 0.68405 0.0
H455 H 0.78932 0.44329 0.54188 0.0
H456 H 0.83776 0.43679 0.7235 0.0
H457 H 0.6497 0.60667 0.62172 0.0
H458 H 0.5839 0.45244 0.74482 0.0
H459 H 0.04104 0.47997 0.55424 0.0
H460 H 0.76673 0.31466 0.54042 0.0
H461 H 0.82643 0.30621 0.7241 0.0
C462 C 0.02621 0.69093 0.22238 0.0
C463 C 0.03511 0.61816 0.2189 0.0
N464 N 0.99262 0.59381 0.17574 0.0
N465 N 0.9798 0.71366 0.18038 0.0
C466 C 0.95671 0.65178 0.15531 0.0
H467 H 0.0557 0.72537 0.25183 0.0
Co468 Co 0.97669 0.81243 0.15577 0.0
C469 C 0.95105 0.74026 0.03573 0.0
O470 O 0.99951 0.69042 0.04418 0.0
N471 N 0.97794 0.90957 0.13214 0.0
C472 C 0.02089 1.00715 0.08733 0.0
C473 C 1.00402 0.93572 0.08073 0.0
C474 C 0.97648 0.96695 0.1681 0.0
N475 N 1.00394 0.02635 0.14267 0.0
O476 O 0.881 0.82398 0.18673 0.0
H477 H 0.01623 0.9037 0.04238 0.0
H478 H 0.95897 0.96395 0.21255 0.0
O479 O 0.93912 0.78752 0.07559 0.0
C480 C 0.87396 0.82365 0.24312 0.0
O481 O 0.92622 0.79836 0.2757 0.0
N482 N 0.07193 0.80729 0.13451 0.0
C483 C 0.21864 0.79612 0.13359 0.0
C484 C 0.17996 0.7857 0.08157 0.0
C485 C 0.10604 0.79368 0.0826 0.0
C486 C 0.10996 0.82607 0.18332 0.0
C487 C 0.18366 0.81996 0.18423 0.0
H488 H 0.07756 0.78962 0.04194 0.0
H489 H 0.08208 0.8427 0.2228 0.0
H490 H 0.91713 0.64932 0.12069 0.0
H491 H 0.07261 0.58654 0.24391 0.0
H492 H 0.04761 0.04064 0.05534 0.0
H493 H 0.20629 0.76896 0.04143 0.0
H494 H 0.21267 0.83124 0.22455 0.0
C495 C 0.83835 1.00919 0.73138 0.0
C496 C 0.91005 0.02326 0.72493 0.0
N497 N 0.92986 1.00204 0.6708 0.0
N498 N 0.81219 0.97878 0.68166 0.0
C499 C 0.87025 0.97442 0.64563 0.0
H500 H 0.80567 0.02991 0.76677 0.0
Co501 Co 0.714 0.99121 0.66248 0.0
C502 C 0.74938 0.92311 0.53906 0.0
O503 O 0.78648 0.86483 0.54942 0.0
N504 N 0.61626 1.00871 0.64232 0.0
C505 C 0.5218 0.06809 0.60613 0.0
C506 C 0.59398 0.05532 0.60023 0.0
C507 C 0.55533 0.99054 0.67069 0.0
N508 N 0.49791 0.02818 0.65124 0.0
O509 O 0.68989 0.89511 0.68836 0.0
H510 H 0.62876 0.08196 0.56909 0.0
H511 H 0.55361 0.95162 0.70535 0.0
O512 O 0.72787 0.96234 0.58142 0.0
C513 C 0.69077 0.8826 0.74411 0.0
O514 O 0.71784 0.93069 0.77974 0.0
N515 N 0.73562 0.08408 0.64412 0.0
C516 C 0.77181 0.22619 0.63585 0.0
C517 C 0.79981 0.17727 0.59554 0.0
C518 C 0.78065 0.10578 0.60031 0.0
C519 C 0.70859 0.13104 0.684 0.0
C520 C 0.72509 0.20298 0.68006 0.0
H521 H 0.80447 0.06775 0.57068 0.0
H522 H 0.67469 0.11201 0.71933 0.0
H523 H 0.86739 0.96051 0.59958 0.0
H524 H 0.94279 0.05322 0.75533 0.0
H525 H 0.49023 0.10539 0.58054 0.0
H526 H 0.83766 0.19385 0.56206 0.0
H527 H 0.70225 0.23998 0.71155 0.0
loop_
_geom_bond_atom_site_label_1
_geom_bond_atom_site_label_2
_geom_bond_distance
_geom_bond_site_symmetry_2
_ccdc_geom_bond_type
C0 C1 1.351 . S
C0 N3 1.368 . S
C0 H5 0.931 . S
C1 C0 1.351 . S
C1 N2 1.373 . S
C1 H29 0.930 . S
N2 C1 1.373 . S
N2 C4 1.340 . S
N3 C0 1.368 . S
N3 C4 1.321 . S
N3 Co6 2.135 . S
C4 N2 1.340 . S
C4 N3 1.321 . S
C4 H28 0.930 . S
H5 C0 0.931 . S
Co6 N3 2.135 . S
Co6 N9 2.121 . S
Co6 O14 2.055 . S
Co6 O17 2.039 . S
Co6 N20 2.140 . S
C7 O8 1.227 . S
C7 O17 1.265 . S
O8 C7 1.227 . S
N9 Co6 2.121 . S
N9 C11 1.375 . S
N9 C12 1.313 . S
C10 C11 1.338 . S
C10 N13 1.377 1_545 S
C10 H30 0.930 1_545 S
C11 N9 1.375 . S
C11 C10 1.338 . S
C11 H15 0.931 . S
C12 N9 1.313 . S
C12 N13 1.344 1_545 S
C12 H16 0.930 . S
N13 C10 1.377 1_565 S
N13 C12 1.344 1_565 S
O14 Co6 2.055 . S
O14 C18 1.253 . S
H15 C11 0.931 . S
H16 C12 0.930 . S
O17 Co6 2.039 . S
O17 C7 1.265 . S
C18 O14 1.253 . S
C18 O19 1.227 . S
O19 C18 1.227 . S
N20 Co6 2.140 . S
N20 C23 1.346 . S
N20 C24 1.345 . S
C21 C22 1.387 . S
C21 C25 1.391 . S
C22 C21 1.387 . S
C22 C23 1.369 . S
C22 H31 0.929 . S
C23 N20 1.346 . S
C23 C22 1.369 . S
C23 H26 0.928 . S
C24 N20 1.345 . S
C24 C25 1.371 . S
C24 H27 0.931 . S
C25 C21 1.391 . S
C25 C24 1.371 . S
C25 H32 0.930 . S
H26 C23 0.928 . S
H27 C24 0.931 . S
H28 C4 0.930 . S
H29 C1 0.930 . S
H30 C10 0.930 1_565 S
H31 C22 0.929 . S
H32 C25 0.930 . S
C33 C34 1.351 . S
C33 N36 1.368 . S
C33 H38 0.931 . S
C34 C33 1.351 . S
C34 N35 1.373 . S
C34 H62 0.930 . S
N35 C34 1.373 . S
N35 C37 1.340 . S
N36 C33 1.368 . S
N36 C37 1.321 . S
N36 Co39 2.135 . S
C37 N35 1.340 . S
C37 N36 1.321 . S
C37 H61 0.930 . S
H38 C33 0.931 . S
Co39 N36 2.135 . S
Co39 N42 2.121 . S
Co39 O47 2.055 . S
Co39 O50 2.039 . S
Co39 N53 2.140 . S
C40 O41 1.227 . S
C40 O50 1.265 . S
O41 C40 1.227 . S
N42 Co39 2.121 . S
N42 C44 1.375 . S
N42 C45 1.313 . S
C43 C44 1.338 . S
C43 N46 1.377 . S
C43 H63 0.930 . S
C44 N42 1.375 . S
C44 C43 1.338 . S
C44 H48 0.931 . S
C45 N42 1.313 . S
C45 N46 1.344 . S
C45 H49 0.930 . S
N46 C43 1.377 . S
N46 C45 1.344 . S
O47 Co39 2.055 . S
O47 C51 1.253 . S
H48 C44 0.931 . S
H49 C45 0.930 . S
O50 Co39 2.039 . S
O50 C40 1.265 . S
C51 O47 1.253 . S
C51 O52 1.227 . S
O52 C51 1.227 . S
N53 Co39 2.140 . S
N53 C56 1.346 . S
N53 C57 1.345 . S
C54 C55 1.387 . S
C54 C58 1.391 . S
C55 C54 1.387 . S
C55 C56 1.369 . S
C55 H64 0.929 . S
C56 N53 1.346 . S
C56 C55 1.369 . S
C56 H59 0.928 . S
C57 N53 1.345 . S
C57 C58 1.371 . S
C57 H60 0.931 . S
C58 C54 1.391 . S
C58 C57 1.371 . S
C58 H65 0.930 . S
H59 C56 0.928 . S
H60 C57 0.931 . S
H61 C37 0.930 . S
H62 C34 0.930 . S
H63 C43 0.930 . S
H64 C55 0.929 . S
H65 C58 0.930 . S
C66 C67 1.351 . S
C66 N69 1.368 . S
C66 H71 0.931 . S
C67 C66 1.351 . S
C67 N68 1.373 . S
C67 H95 0.930 . S
N68 C67 1.373 . S
N68 C70 1.340 . S
N69 C66 1.368 . S
N69 C70 1.321 . S
N69 Co72 2.135 . S
C70 N68 1.340 . S
C70 N69 1.321 . S
C70 H94 0.930 . S
H71 C66 0.931 . S
Co72 N69 2.135 . S
Co72 N75 2.121 . S
Co72 O80 2.055 . S
Co72 O83 2.039 . S
Co72 N86 2.140 1_455 S
C73 O74 1.227 1_455 S
C73 O83 1.265 . S
O74 C73 1.227 1_655 S
N75 Co72 2.121 . S
N75 C77 1.375 1_455 S
N75 C78 1.313 . S
C76 C77 1.338 . S
C76 N79 1.377 1_655 S
C76 H96 0.930 . S
C77 N75 1.375 1_655 S
C77 C76 1.338 . S
C77 H81 0.931 . S
C78 N75 1.313 . S
C78 N79 1.344 . S
C78 H82 0.930 . S
N79 C76 1.377 1_455 S
N79 C78 1.344 . S
O80 Co72 2.055 . S
O80 C84 1.253 . S
H81 C77 0.931 . S
H82 C78 0.930 . S
O83 Co72 2.039 . S
O83 C73 1.265 . S
C84 O80 1.253 . S
C84 O85 1.227 . S
O85 C84 1.227 . S
N86 Co72 2.140 1_655 S
N86 C89 1.346 . S
N86 C90 1.345 . S
C87 C88 1.387 . S
C87 C91 1.391 . S
C88 C87 1.387 . S
C88 C89 1.369 . S
C88 H97 0.929 . S
C89 N86 1.346 . S
C89 C88 1.369 . S
C89 H92 0.928 . S
C90 N86 1.345 . S
C90 C91 1.371 . S
C90 H93 0.931 . S
C91 C87 1.391 . S
C91 C90 1.371 . S
C91 H98 0.930 . S
H92 C89 0.928 . S
H93 C90 0.931 . S
H94 C70 0.930 . S
H95 C67 0.930 . S
H96 C76 0.930 . S
H97 C88 0.929 . S
H98 C91 0.930 . S
C99 C100 1.351 . S
C99 N102 1.368 . S
C99 H104 0.931 . S
C100 C99 1.351 . S
C100 N101 1.373 . S
C100 H128 0.930 . S
N101 C100 1.373 . S
N101 C103 1.340 . S
N102 C99 1.368 . S
N102 C103 1.321 . S
N102 Co105 2.135 . S
C103 N101 1.340 . S
C103 N102 1.321 . S
C103 H127 0.930 . S
H104 C99 0.931 . S
Co105 N102 2.135 . S
Co105 N108 2.121 . S
Co105 O113 2.055 . S
Co105 O116 2.039 . S
Co105 N119 2.140 1_545 S
C106 O107 1.227 1_545 S
C106 O116 1.265 . S
O107 C106 1.227 1_565 S
N108 Co105 2.121 . S
N108 C110 1.375 1_545 S
N108 C111 1.313 . S
C109 C110 1.338 . S
C109 N112 1.377 1_465 S
C109 H129 0.930 1_455 S
C110 N108 1.375 1_565 S
C110 C109 1.338 . S
C110 H114 0.931 . S
C111 N108 1.313 . S
C111 N112 1.344 1_455 S
C111 H115 0.930 . S
N112 C109 1.377 1_645 S
N112 C111 1.344 1_655 S
O113 Co105 2.055 . S
O113 C117 1.253 . S
H114 C110 0.931 . S
H115 C111 0.930 . S
O116 Co105 2.039 . S
O116 C106 1.265 . S
C117 O113 1.253 . S
C117 O118 1.227 . S
O118 C117 1.227 . S
N119 Co105 2.140 1_565 S
N119 C122 1.346 . S
N119 C123 1.345 . S
C120 C121 1.387 . S
C120 C124 1.391 . S
C121 C120 1.387 . S
C121 C122 1.369 . S
C121 H130 0.929 . S
C122 N119 1.346 . S
C122 C121 1.369 . S
C122 H125 0.928 . S
C123 N119 1.345 . S
C123 C124 1.371 . S
C123 H126 0.931 . S
C124 C120 1.391 . S
C124 C123 1.371 . S
C124 H131 0.930 . S
H125 C122 0.928 . S
H126 C123 0.931 . S
H127 C103 0.930 . S
H128 C100 0.930 . S
H129 C109 0.930 1_655 S
H130 C121 0.929 . S
H131 C124 0.930 . S
C132 C133 1.351 . S
C132 N135 1.368 . S
C132 H137 0.931 . S
C133 C132 1.351 . S
C133 N134 1.373 . S
C133 H161 0.930 . S
N134 C133 1.373 . S
N134 C136 1.340 . S
N135 C132 1.368 . S
N135 C136 1.321 . S
N135 Co138 2.135 . S
C136 N134 1.340 . S
C136 N135 1.321 . S
C136 H160 0.930 . S
H137 C132 0.931 . S
Co138 N135 2.135 . S
Co138 N141 2.121 . S
Co138 O146 2.055 . S
Co138 O149 2.039 . S
Co138 N152 2.140 . S
C139 O140 1.227 . S
C139 O149 1.265 . S
O140 C139 1.227 . S
N141 Co138 2.121 . S
N141 C143 1.375 . S
N141 C144 1.313 . S
C142 C143 1.338 . S
C142 N145 1.377 . S
C142 H162 0.930 . S
C143 N141 1.375 . S
C143 C142 1.338 . S
C143 H147 0.931 . S
C144 N141 1.313 . S
C144 N145 1.344 . S
C144 H148 0.930 . S
N145 C142 1.377 . S
N145 C144 1.344 . S
O146 Co138 2.055 . S
O146 C150 1.253 . S
H147 C143 0.931 . S
H148 C144 0.930 . S
O149 Co138 2.039 . S
O149 C139 1.265 . S
C150 O146 1.253 . S
C150 O151 1.227 . S
O151 C150 1.227 . S
N152 Co138 2.140 . S
N152 C155 1.346 . S
N152 C156 1.345 . S
C153 C154 1.387 . S
C153 C157 1.391 . S
C154 C153 1.387 . S
C154 C155 1.369 . S
C154 H163 0.929 . S
C155 N152 1.346 . S
C155 C154 1.369 . S
C155 H158 0.928 . S
C156 N152 1.345 . S
C156 C157 1.371 . S
C156 H159 0.931 . S
C157 C153 1.391 . S
C157 C156 1.371 . S
C157 H164 0.930 . S
H158 C155 0.928 . S
H159 C156 0.931 . S
H160 C136 0.930 . S
H161 C133 0.930 . S
H162 C142 0.930 . S
H163 C154 0.929 . S
H164 C157 0.930 . S
C165 C166 1.351 . S
C165 N168 1.368 . S
C165 H170 0.931 . S
C166 C165 1.351 . S
C166 N167 1.373 . S
C166 H194 0.930 . S
N167 C166 1.373 . S
N167 C169 1.340 . S
N168 C165 1.368 . S
N168 C169 1.321 . S
N168 Co171 2.135 . S
C169 N167 1.340 . S
C169 N168 1.321 . S
C169 H193 0.930 . S
H170 C165 0.931 . S
Co171 N168 2.135 . S
Co171 N174 2.121 . S
Co171 O179 2.055 . S
Co171 O182 2.039 . S
Co171 N185 2.140 . S
C172 O173 1.227 . S
C172 O182 1.265 . S
O173 C172 1.227 . S
N174 Co171 2.121 . S
N174 C176 1.375 . S
N174 C177 1.313 . S
C175 C176 1.338 . S
C175 N178 1.377 1_455 S
C175 H195 0.930 1_455 S
C176 N174 1.375 . S
C176 C175 1.338 . S
C176 H180 0.931 . S
C177 N174 1.313 . S
C177 N178 1.344 1_455 S
C177 H181 0.930 . S
N178 C175 1.377 1_655 S
N178 C177 1.344 1_655 S
O179 Co171 2.055 . S
O179 C183 1.253 . S
H180 C176 0.931 . S
H181 C177 0.930 . S
O182 Co171 2.039 . S
O182 C172 1.265 . S
C183 O179 1.253 . S
C183 O184 1.227 . S
O184 C183 1.227 . S
N185 Co171 2.140 . S
N185 C188 1.346 . S
N185 C189 1.345 . S
C186 C187 1.387 . S
C186 C190 1.391 . S
C187 C186 1.387 . S
C187 C188 1.369 . S
C187 H196 0.929 . S
C188 N185 1.346 . S
C188 C187 1.369 . S
C188 H191 0.928 . S
C189 N185 1.345 . S
C189 C190 1.371 . S
C189 H192 0.931 . S
C190 C186 1.391 . S
C190 C189 1.371 . S
C190 H197 0.930 . S
H191 C188 0.928 . S
H192 C189 0.931 . S
H193 C169 0.930 . S
H194 C166 0.930 . S
H195 C175 0.930 1_655 S
H196 C187 0.929 . S
H197 C190 0.930 . S
C198 C199 1.351 . S
C198 N201 1.368 . S
C198 H203 0.931 . S
C199 C198 1.351 . S
C199 N200 1.373 . S
C199 H227 0.930 . S
N200 C199 1.373 . S
N200 C202 1.340 . S
N201 C198 1.368 . S
N201 C202 1.321 . S
N201 Co204 2.135 . S
C202 N200 1.340 . S
C202 N201 1.321 . S
C202 H226 0.930 . S
H203 C198 0.931 . S
Co204 N201 2.135 . S
Co204 N207 2.121 . S
Co204 O212 2.055 . S
Co204 O215 2.039 . S
Co204 N218 2.140 1_455 S
C205 O206 1.227 1_455 S
C205 O215 1.265 . S
O206 C205 1.227 1_655 S
N207 Co204 2.121 . S
N207 C209 1.375 1_455 S
N207 C210 1.313 . S
C208 C209 1.338 . S
C208 N211 1.377 1_645 S
C208 H228 0.930 1_545 S
C209 N207 1.375 1_655 S
C209 C208 1.338 . S
C209 H213 0.931 . S
C210 N207 1.313 . S
C210 N211 1.344 1_545 S
C210 H214 0.930 . S
N211 C208 1.377 1_465 S
N211 C210 1.344 1_565 S
O212 Co204 2.055 . S
O212 C216 1.253 . S
H213 C209 0.931 . S
H214 C210 0.930 . S
O215 Co204 2.039 . S
O215 C205 1.265 . S
C216 O212 1.253 . S
C216 O217 1.227 . S
O217 C216 1.227 . S
N218 Co204 2.140 1_655 S
N218 C221 1.346 . S
N218 C222 1.345 . S
C219 C220 1.387 . S
C219 C223 1.391 . S
C220 C219 1.387 . S
C220 C221 1.369 . S
C220 H229 0.929 . S
C221 N218 1.346 . S
C221 C220 1.369 . S
C221 H224 0.928 . S
C222 N218 1.345 . S
C222 C223 1.371 . S
C222 H225 0.931 . S
C223 C219 1.391 . S
C223 C222 1.371 . S
C223 H230 0.930 . S
H224 C221 0.928 . S
H225 C222 0.931 . S
H226 C202 0.930 . S
H227 C199 0.930 . S
H228 C208 0.930 1_565 S
H229 C220 0.929 . S
H230 C223 0.930 . S
C231 C232 1.351 . S
C231 N234 1.368 . S
C231 H236 0.931 . S
C232 C231 1.351 . S
C232 N233 1.373 . S
C232 H260 0.930 . S
N233 C232 1.373 . S
N233 C235 1.340 . S
N234 C231 1.368 . S
N234 C235 1.321 . S
N234 Co237 2.135 . S
C235 N233 1.340 . S
C235 N234 1.321 . S
C235 H259 0.930 . S
H236 C231 0.931 . S
Co237 N234 2.135 . S
Co237 N240 2.121 . S
Co237 O245 2.055 . S
Co237 O248 2.039 . S
Co237 N251 2.140 1_545 S
C238 O239 1.227 1_545 S
C238 O248 1.265 . S
O239 C238 1.227 1_565 S
N240 Co237 2.121 . S
N240 C242 1.375 1_545 S
N240 C243 1.313 . S
C241 C242 1.338 . S
C241 N244 1.377 1_565 S
C241 H261 0.930 . S
C242 N240 1.375 1_565 S
C242 C241 1.338 . S
C242 H246 0.931 . S
C243 N240 1.313 . S
C243 N244 1.344 . S
C243 H247 0.930 . S
N244 C241 1.377 1_545 S
N244 C243 1.344 . S
O245 Co237 2.055 . S
O245 C249 1.253 . S
H246 C242 0.931 . S
H247 C243 0.930 . S
O248 Co237 2.039 . S
O248 C238 1.265 . S
C249 O245 1.253 . S
C249 O250 1.227 . S
O250 C249 1.227 . S
N251 Co237 2.140 1_565 S
N251 C254 1.346 . S
N251 C255 1.345 . S
C252 C253 1.387 . S
C252 C256 1.391 . S
C253 C252 1.387 . S
C253 C254 1.369 . S
C253 H262 0.929 . S
C254 N251 1.346 . S
C254 C253 1.369 . S
C254 H257 0.928 . S
C255 N251 1.345 . S
C255 C256 1.371 . S
C255 H258 0.931 . S
C256 C252 1.391 . S
C256 C255 1.371 . S
C256 H263 0.930 . S
H257 C254 0.928 . S
H258 C255 0.931 . S
H259 C235 0.930 . S
H260 C232 0.930 . S
H261 C241 0.930 . S
H262 C253 0.929 . S
H263 C256 0.930 . S
C264 C265 1.351 . S
C264 N267 1.368 . S
C264 H269 0.931 . S
C265 C264 1.351 . S
C265 N266 1.373 . S
C265 H293 0.930 . S
N266 C265 1.373 . S
N266 C268 1.340 . S
N267 C264 1.368 . S
N267 C268 1.321 . S
N267 Co270 2.135 . S
C268 N266 1.340 . S
C268 N267 1.321 . S
C268 H292 0.930 . S
H269 C264 0.931 . S
Co270 N267 2.135 . S
Co270 N273 2.121 . S
Co270 O278 2.055 . S
Co270 O281 2.039 . S
Co270 N284 2.140 . S
C271 O272 1.227 . S
C271 O281 1.265 . S
O272 C271 1.227 . S
N273 Co270 2.121 . S
N273 C275 1.375 . S
N273 C276 1.313 . S
C274 C275 1.338 . S
C274 N277 1.377 1_565 S
C274 H294 0.930 1_565 S
C275 N273 1.375 . S
C275 C274 1.338 . S
C275 H279 0.931 . S
C276 N273 1.313 . S
C276 N277 1.344 1_565 S
C276 H280 0.930 . S
N277 C274 1.377 1_545 S
N277 C276 1.344 1_545 S
O278 Co270 2.055 . S
O278 C282 1.253 . S
H279 C275 0.931 . S
H280 C276 0.930 . S
O281 Co270 2.039 . S
O281 C271 1.265 . S
C282 O278 1.253 . S
C282 O283 1.227 . S
O283 C282 1.227 . S
N284 Co270 2.140 . S
N284 C287 1.346 . S
N284 C288 1.345 . S
C285 C286 1.387 . S
C285 C289 1.391 . S
C286 C285 1.387 . S
C286 C287 1.369 . S
C286 H295 0.929 . S
C287 N284 1.346 . S
C287 C286 1.369 . S
C287 H290 0.928 . S
C288 N284 1.345 . S
C288 C289 1.371 . S
C288 H291 0.931 . S
C289 C285 1.391 . S
C289 C288 1.371 . S
C289 H296 0.930 . S
H290 C287 0.928 . S
H291 C288 0.931 . S
H292 C268 0.930 . S
H293 C265 0.930 . S
H294 C274 0.930 1_545 S
H295 C286 0.929 . S
H296 C289 0.930 . S
C297 C298 1.351 . S
C297 N300 1.368 . S
C297 H302 0.931 . S
C298 C297 1.351 . S
C298 N299 1.373 . S
C298 H326 0.930 . S
N299 C298 1.373 . S
N299 C301 1.340 . S
N300 C297 1.368 . S
N300 C301 1.321 . S
N300 Co303 2.135 . S
C301 N299 1.340 . S
C301 N300 1.321 . S
C301 H325 0.930 . S
H302 C297 0.931 . S
Co303 N300 2.135 . S
Co303 N306 2.121 . S
Co303 O311 2.055 . S
Co303 O314 2.039 . S
Co303 N317 2.140 . S
C304 O305 1.227 . S
C304 O314 1.265 . S
O305 C304 1.227 . S
N306 Co303 2.121 . S
N306 C308 1.375 . S
N306 C309 1.313 . S
C307 C308 1.338 . S
C307 N310 1.377 . S
C307 H327 0.930 . S
C308 N306 1.375 . S
C308 C307 1.338 . S
C308 H312 0.931 . S
C309 N306 1.313 . S
C309 N310 1.344 . S
C309 H313 0.930 . S
N310 C307 1.377 . S
N310 C309 1.344 . S
O311 Co303 2.055 . S
O311 C315 1.253 . S
H312 C308 0.931 . S
H313 C309 0.930 . S
O314 Co303 2.039 . S
O314 C304 1.265 . S
C315 O311 1.253 . S
C315 O316 1.227 . S
O316 C315 1.227 . S
N317 Co303 2.140 . S
N317 C320 1.346 . S
N317 C321 1.345 . S
C318 C319 1.387 . S
C318 C322 1.391 . S
C319 C318 1.387 . S
C319 C320 1.369 . S
C319 H328 0.929 . S
C320 N317 1.346 . S
C320 C319 1.369 . S
C320 H323 0.928 . S
C321 N317 1.345 . S
C321 C322 1.371 . S
C321 H324 0.931 . S
C322 C318 1.391 . S
C322 C321 1.371 . S
C322 H329 0.930 . S
H323 C320 0.928 . S
H324 C321 0.931 . S
H325 C301 0.930 . S
H326 C298 0.930 . S
H327 C307 0.930 . S
H328 C319 0.929 . S
H329 C322 0.930 . S
C330 C331 1.351 . S
C330 N333 1.368 . S
C330 H335 0.931 . S
C331 C330 1.351 . S
C331 N332 1.373 . S
C331 H359 0.930 . S
N332 C331 1.373 . S
N332 C334 1.340 . S
N333 C330 1.368 . S
N333 C334 1.321 . S
N333 Co336 2.135 . S
C334 N332 1.340 . S
C334 N333 1.321 . S
C334 H358 0.930 . S
H335 C330 0.931 . S
Co336 N333 2.135 . S
Co336 N339 2.121 . S
Co336 O344 2.055 . S
Co336 O347 2.039 . S
Co336 N350 2.140 1_655 S
C337 O338 1.227 1_655 S
C337 O347 1.265 . S
O338 C337 1.227 1_455 S
N339 Co336 2.121 . S
N339 C341 1.375 1_655 S
N339 C342 1.313 . S
C340 C341 1.338 . S
C340 N343 1.377 1_455 S
C340 H360 0.930 . S
C341 N339 1.375 1_455 S
C341 C340 1.338 . S
C341 H345 0.931 . S
C342 N339 1.313 . S
C342 N343 1.344 . S
C342 H346 0.930 . S
N343 C340 1.377 1_655 S
N343 C342 1.344 . S
O344 Co336 2.055 . S
O344 C348 1.253 . S
H345 C341 0.931 . S
H346 C342 0.930 . S
O347 Co336 2.039 . S
O347 C337 1.265 . S
C348 O344 1.253 . S
C348 O349 1.227 . S
O349 C348 1.227 . S
N350 Co336 2.140 1_455 S
N350 C353 1.346 . S
N350 C354 1.345 . S
C351 C352 1.387 . S
C351 C355 1.391 . S
C352 C351 1.387 . S
C352 C353 1.369 . S
C352 H361 0.929 . S
C353 N350 1.346 . S
C353 C352 1.369 . S
C353 H356 0.928 . S
C354 N350 1.345 . S
C354 C355 1.371 . S
C354 H357 0.931 . S
C355 C351 1.391 . S
C355 C354 1.371 . S
C355 H362 0.930 . S
H356 C353 0.928 . S
H357 C354 0.931 . S
H358 C334 0.930 . S
H359 C331 0.930 . S
H360 C340 0.930 . S
H361 C352 0.929 . S
H362 C355 0.930 . S
C363 C364 1.351 . S
C363 N366 1.368 . S
C363 H368 0.931 . S
C364 C363 1.351 . S
C364 N365 1.373 . S
C364 H392 0.930 . S
N365 C364 1.373 . S
N365 C367 1.340 . S
N366 C363 1.368 . S
N366 C367 1.321 . S
N366 Co369 2.135 . S
C367 N365 1.340 . S
C367 N366 1.321 . S
C367 H391 0.930 . S
H368 C363 0.931 . S
Co369 N366 2.135 . S
Co369 N372 2.121 . S
Co369 O377 2.055 . S
Co369 O380 2.039 . S
Co369 N383 2.140 1_565 S
C370 O371 1.227 1_565 S
C370 O380 1.265 . S
O371 C370 1.227 1_545 S
N372 Co369 2.121 . S
N372 C374 1.375 1_565 S
N372 C375 1.313 . S
C373 C374 1.338 . S
C373 N376 1.377 1_645 S
C373 H393 0.930 1_655 S
C374 N372 1.375 1_545 S
C374 C373 1.338 . S
C374 H378 0.931 . S
C375 N372 1.313 . S
C375 N376 1.344 1_655 S
C375 H379 0.930 . S
N376 C373 1.377 1_465 S
N376 C375 1.344 1_455 S
O377 Co369 2.055 . S
O377 C381 1.253 . S
H378 C374 0.931 . S
H379 C375 0.930 . S
O380 Co369 2.039 . S
O380 C370 1.265 . S
C381 O377 1.253 . S
C381 O382 1.227 . S
O382 C381 1.227 . S
N383 Co369 2.140 1_545 S
N383 C386 1.346 . S
N383 C387 1.345 . S
C384 C385 1.387 . S
C384 C388 1.391 . S
C385 C384 1.387 . S
C385 C386 1.369 . S
C385 H394 0.929 . S
C386 N383 1.346 . S
C386 C385 1.369 . S
C386 H389 0.928 . S
C387 N383 1.345 . S
C387 C388 1.371 . S
C387 H390 0.931 . S
C388 C384 1.391 . S
C388 C387 1.371 . S
C388 H395 0.930 . S
H389 C386 0.928 . S
H390 C387 0.931 . S
H391 C367 0.930 . S
H392 C364 0.930 . S
H393 C373 0.930 1_455 S
H394 C385 0.929 . S
H395 C388 0.930 . S
C396 C397 1.351 . S
C396 N399 1.368 . S
C396 H401 0.931 . S
C397 C396 1.351 . S
C397 N398 1.373 . S
C397 H425 0.930 . S
N398 C397 1.373 . S
N398 C400 1.340 . S
N399 C396 1.368 . S
N399 C400 1.321 . S
N399 Co402 2.135 . S
C400 N398 1.340 . S
C400 N399 1.321 . S
C400 H424 0.930 . S
H401 C396 0.931 . S
Co402 N399 2.135 . S
Co402 N405 2.121 . S
Co402 O410 2.055 . S
Co402 O413 2.039 . S
Co402 N416 2.140 . S
C403 O404 1.227 . S
C403 O413 1.265 . S
O404 C403 1.227 . S
N405 Co402 2.121 . S
N405 C407 1.375 . S
N405 C408 1.313 . S
C406 C407 1.338 . S
C406 N409 1.377 . S
C406 H426 0.930 . S
C407 N405 1.375 . S
C407 C406 1.338 . S
C407 H411 0.931 . S
C408 N405 1.313 . S
C408 N409 1.344 . S
C408 H412 0.930 . S
N409 C406 1.377 . S
N409 C408 1.344 . S
O410 Co402 2.055 . S
O410 C414 1.253 . S
H411 C407 0.931 . S
H412 C408 0.930 . S
O413 Co402 2.039 . S
O413 C403 1.265 . S
C414 O410 1.253 . S
C414 O415 1.227 . S
O415 C414 1.227 . S
N416 Co402 2.140 . S
N416 C419 1.346 . S
N416 C420 1.345 . S
C417 C418 1.387 . S
C417 C421 1.391 . S
C418 C417 1.387 . S
C418 C419 1.369 . S
C418 H427 0.929 . S
C419 N416 1.346 . S
C419 C418 1.369 . S
C419 H422 0.928 . S
C420 N416 1.345 . S
C420 C421 1.371 . S
C420 H423 0.931 . S
C421 C417 1.391 . S
C421 C420 1.371 . S
C421 H428 0.930 . S
H422 C419 0.928 . S
H423 C420 0.931 . S
H424 C400 0.930 . S
H425 C397 0.930 . S
H426 C406 0.930 . S
H427 C418 0.929 . S
H428 C421 0.930 . S
C429 C430 1.351 . S
C429 N432 1.368 . S
C429 H434 0.931 . S
C430 C429 1.351 . S
C430 N431 1.373 . S
C430 H458 0.930 . S
N431 C430 1.373 . S
N431 C433 1.340 . S
N432 C429 1.368 . S
N432 C433 1.321 . S
N432 Co435 2.135 . S
C433 N431 1.340 . S
C433 N432 1.321 . S
C433 H457 0.930 . S
H434 C429 0.931 . S
Co435 N432 2.135 . S
Co435 N438 2.121 . S
Co435 O443 2.055 . S
Co435 O446 2.039 . S
Co435 N449 2.140 . S
C436 O437 1.227 . S
C436 O446 1.265 . S
O437 C436 1.227 . S
N438 Co435 2.121 . S
N438 C440 1.375 . S
N438 C441 1.313 . S
C439 C440 1.338 . S
C439 N442 1.377 1_655 S
C439 H459 0.930 1_655 S
C440 N438 1.375 . S
C440 C439 1.338 . S
C440 H444 0.931 . S
C441 N438 1.313 . S
C441 N442 1.344 1_655 S
C441 H445 0.930 . S
N442 C439 1.377 1_455 S
N442 C441 1.344 1_455 S
O443 Co435 2.055 . S
O443 C447 1.253 . S
H444 C440 0.931 . S
H445 C441 0.930 . S
O446 Co435 2.039 . S
O446 C436 1.265 . S
C447 O443 1.253 . S
C447 O448 1.227 . S
O448 C447 1.227 . S
N449 Co435 2.140 . S
N449 C452 1.346 . S
N449 C453 1.345 . S
C450 C451 1.387 . S
C450 C454 1.391 . S
C451 C450 1.387 . S
C451 C452 1.369 . S
C451 H460 0.929 . S
C452 N449 1.346 . S
C452 C451 1.369 . S
C452 H455 0.928 . S
C453 N449 1.345 . S
C453 C454 1.371 . S
C453 H456 0.931 . S
C454 C450 1.391 . S
C454 C453 1.371 . S
C454 H461 0.930 . S
H455 C452 0.928 . S
H456 C453 0.931 . S
H457 C433 0.930 . S
H458 C430 0.930 . S
H459 C439 0.930 1_455 S
H460 C451 0.929 . S
H461 C454 0.930 . S
C462 C463 1.351 . S
C462 N465 1.368 . S
C462 H467 0.931 . S
C463 C462 1.351 . S
C463 N464 1.373 . S
C463 H491 0.930 . S
N464 C463 1.373 . S
N464 C466 1.340 . S
N465 C462 1.368 . S
N465 C466 1.321 . S
N465 Co468 2.135 . S
C466 N464 1.340 . S
C466 N465 1.321 . S
C466 H490 0.930 . S
H467 C462 0.931 . S
Co468 N465 2.135 . S
Co468 N471 2.121 . S
Co468 O476 2.055 . S
Co468 O479 2.039 . S
Co468 N482 2.140 1_655 S
C469 O470 1.227 1_655 S
C469 O479 1.265 . S
O470 C469 1.227 1_455 S
N471 Co468 2.121 . S
N471 C473 1.375 1_655 S
N471 C474 1.313 . S
C472 C473 1.338 . S
C472 N475 1.377 1_465 S
C472 H492 0.930 1_565 S
C473 N471 1.375 1_455 S
C473 C472 1.338 . S
C473 H477 0.931 . S
C474 N471 1.313 . S
C474 N475 1.344 1_565 S
C474 H478 0.930 . S
N475 C472 1.377 1_645 S
N475 C474 1.344 1_545 S
O476 Co468 2.055 . S
O476 C480 1.253 . S
H477 C473 0.931 . S
H478 C474 0.930 . S
O479 Co468 2.039 . S
O479 C469 1.265 . S
C480 O476 1.253 . S
C480 O481 1.227 . S
O481 C480 1.227 . S
N482 Co468 2.140 1_455 S
N482 C485 1.346 . S
N482 C486 1.345 . S
C483 C484 1.387 . S
C483 C487 1.391 . S
C484 C483 1.387 . S
C484 C485 1.369 . S
C484 H493 0.929 . S
C485 N482 1.346 . S
C485 C484 1.369 . S
C485 H488 0.928 . S
C486 N482 1.345 . S
C486 C487 1.371 . S
C486 H489 0.931 . S
C487 C483 1.391 . S
C487 C486 1.371 . S
C487 H494 0.930 . S
H488 C485 0.928 . S
H489 C486 0.931 . S
H490 C466 0.930 . S
H491 C463 0.930 . S
H492 C472 0.930 1_545 S
H493 C484 0.929 . S
H494 C487 0.930 . S
C495 C496 1.351 . S
C495 N498 1.368 . S
C495 H500 0.931 . S
C496 C495 1.351 . S
C496 N497 1.373 . S
C496 H524 0.930 . S
N497 C496 1.373 . S
N497 C499 1.340 . S
N498 C495 1.368 . S
N498 C499 1.321 . S
N498 Co501 2.135 . S
C499 N497 1.340 . S
C499 N498 1.321 . S
C499 H523 0.930 . S
H500 C495 0.931 . S
Co501 N498 2.135 . S
Co501 N504 2.121 . S
Co501 O509 2.055 . S
Co501 O512 2.039 . S
Co501 N515 2.140 1_565 S
C502 O503 1.227 1_565 S
C502 O512 1.265 . S
O503 C502 1.227 1_545 S
N504 Co501 2.121 . S
N504 C506 1.375 1_565 S
N504 C507 1.313 . S
C505 C506 1.338 . S
C505 N508 1.377 1_545 S
C505 H525 0.930 . S
C506 N504 1.375 1_545 S
C506 C505 1.338 . S
C506 H510 0.931 . S
C507 N504 1.313 . S
C507 N508 1.344 . S
C507 H511 0.930 . S
N508 C505 1.377 1_565 S
N508 C507 1.344 . S
O509 Co501 2.055 . S
O509 C513 1.253 . S
H510 C506 0.931 . S
H511 C507 0.930 . S
O512 Co501 2.039 . S
O512 C502 1.265 . S
C513 O509 1.253 . S
C513 O514 1.227 . S
O514 C513 1.227 . S
N515 Co501 2.140 1_545 S
N515 C518 1.346 . S
N515 C519 1.345 . S
C516 C517 1.387 . S
C516 C520 1.391 . S
C517 C516 1.387 . S
C517 C518 1.369 . S
C517 H526 0.929 . S
C518 N515 1.346 . S
C518 C517 1.369 . S
C518 H521 0.928 . S
C519 N515 1.345 . S
C519 C520 1.371 . S
C519 H522 0.931 . S
C520 C516 1.391 . S
C520 C519 1.371 . S
C520 H527 0.930 . S
H521 C518 0.928 . S
H522 C519 0.931 . S
H523 C499 0.930 . S
H524 C496 0.930 . S
H525 C505 0.930 . S
H526 C517 0.929 . S
H527 C520 0.930 . S
C7 C139 1.647 1_554 S
C172 C40 1.647 . S
C205 C73 1.644 1_556 S
C238 C106 1.644 . S
C271 C403 1.647 1_556 S
C304 C436 1.647 . S
C469 C337 1.644 1_554 S
C370 C502 1.644 . S
N398 N13 2.156 . S
N431 N46 2.166 . S
N79 N464 2.121 1_455 S
N497 N112 2.111 1_565 S
N266 N145 2.166 . S
N299 N178 2.156 . S
N211 N332 2.111 1_455 S
N244 N365 2.121 1_545 S
N134 N277 2.156 . S
N167 N310 2.166 . S
N200 N343 2.121 1_455 S
N376 N233 2.111 1_565 S
N2 N409 2.166 . S
N35 N442 2.156 . S
N475 N68 2.111 1_655 S
N101 N508 2.121 1_545 S
C87 C21 1.462 . S
C54 C120 1.462 . S
C219 C153 1.462 . S
C252 C186 1.462 . S
C351 C285 1.462 . S
C384 C318 1.462 . S
C417 C483 1.462 . S
C516 C450 1.462 . S
C249 C18 1.840 . S
C150 C51 1.828 . S
C183 C84 1.840 . S
C216 C117 1.854 . S
C513 C282 1.840 . S
C414 C315 1.828 . S
C447 C348 1.840 . S
C480 C381 1.854 . S
