# Generated by pormake.
# Topology snk, (6)-cn, num edge types: 1
# Building blocks:
#     Node 0, Type 0, BuildingBlock: BETDAH_clean_sbu_0, # of connection points: 6
#     Node 1, Type 0, BuildingBlock: BETDAH_clean_sbu_0, # of connection points: 6
#     Node 2, Type 0, BuildingBlock: BETDAH_clean_sbu_0, # of connection points: 6
#     Node 3, Type 0, BuildingBlock: BETDAH_clean_sbu_0, # of connection points: 6
#     Node 4, Type 0, BuildingBlock: BETDAH_clean_sbu_0, # of connection points: 6
#     Node 5, Type 0, BuildingBlock: BETDAH_clean_sbu_0, # of connection points: 6
#     Node 6, Type 0, BuildingBlock: BETDAH_clean_sbu_0, # of connection points: 6
#     Node 7, Type 0, BuildingBlock: BETDAH_clean_sbu_0, # of connection points: 6
#     Edge 8, Type (0, 0), BuildingBlock: AJUNOK_clean_linker_0, # of connection points: 2
#     Edge 9, Type (0, 0), BuildingBlock: AJUNOK_clean_linker_0, # of connection points: 2
#     Edge 10, Type (0, 0), BuildingBlock: AJUNOK_clean_linker_0, # of connection points: 2
#     Edge 11, Type (0, 0), BuildingBlock: AJUNOK_clean_linker_0, # of connection points: 2
#     Edge 12, Type (0, 0), BuildingBlock: AJUNOK_clean_linker_0, # of connection points: 2
#     Edge 13, Type (0, 0), BuildingBlock: AJUNOK_clean_linker_0, # of connection points: 2
#     Edge 14, Type (0, 0), BuildingBlock: AJUNOK_clean_linker_0, # of connection points: 2
#     Edge 15, Type (0, 0), BuildingBlock: AJUNOK_clean_linker_0, # of connection points: 2
#     Edge 16, Type (0, 0), BuildingBlock: AJUNOK_clean_linker_0, # of connection points: 2
#     Edge 17, Type (0, 0), BuildingBlock: AJUNOK_clean_linker_0, # of connection points: 2
#     Edge 18, Type (0, 0), BuildingBlock: AJUNOK_clean_linker_0, # of connection points: 2
#     Edge 19, Type (0, 0), BuildingBlock: AJUNOK_clean_linker_0, # of connection points: 2
#     Edge 20, Type (0, 0), BuildingBlock: AJUNOK_clean_linker_0, # of connection points: 2
#     Edge 21, Type (0, 0), BuildingBlock: AJUNOK_clean_linker_0, # of connection points: 2
#     Edge 22, Type (0, 0), BuildingBlock: AJUNOK_clean_linker_0, # of connection points: 2
#     Edge 23, Type (0, 0), BuildingBlock: AJUNOK_clean_linker_0, # of connection points: 2
#     Edge 24, Type (0, 0), BuildingBlock: AJUNOK_clean_linker_0, # of connection points: 2
#     Edge 25, Type (0, 0), BuildingBlock: AJUNOK_clean_linker_0, # of connection points: 2
#     Edge 26, Type (0, 0), BuildingBlock: AJUNOK_clean_linker_0, # of connection points: 2
#     Edge 27, Type (0, 0), BuildingBlock: AJUNOK_clean_linker_0, # of connection points: 2
#     Edge 28, Type (0, 0), BuildingBlock: AJUNOK_clean_linker_0, # of connection points: 2
#     Edge 29, Type (0, 0), BuildingBlock: AJUNOK_clean_linker_0, # of connection points: 2
#     Edge 30, Type (0, 0), BuildingBlock: AJUNOK_clean_linker_0, # of connection points: 2
#     Edge 31, Type (0, 0), BuildingBlock: AJUNOK_clean_linker_0, # of connection points: 2
# Relax obj value: 0.114
# Max RMSD: 0.187
# Mean RMSD: 0.147
data_MOF--net-snk--node1-BETDAH_clean_sbu_0--edge1-AJUNOK_clean_linker_0
_symmetry_space_group_name_H-M    P1
_symmetry_Int_Tables_number       1
_symmetry_cell_setting            triclinic
loop_
_symmetry_equiv_pos_as_xyz
'x, y, z'
_cell_length_a     26.38303
_cell_length_b     26.479656
_cell_length_c     20.948824
_cell_angle_alpha  82.891786
_cell_angle_beta   97.013246
_cell_angle_gamma 89.380856
loop_
_atom_site_label
_atom_site_type_symbol
_atom_site_fract_x
_atom_site_fract_y
_atom_site_fract_z
_atom_type_partial_charge
Ho0 Ho 0.99212 0.97612 0.47158 0.0
Ho1 Ho 0.03483 0.03211 0.58657 0.0
C2 C 0.0843 0.05721 0.45694 0.0
C3 C 0.9582 0.95068 0.35915 0.0
C4 C 0.97001 0.96262 0.2917 0.0
C5 C 0.9619 0.01175 0.25735 0.0
C6 C 0.97395 0.02184 0.1938 0.0
C7 C 0.99483 0.98324 0.16371 0.0
C8 C 1.00229 0.93411 0.19782 0.0
C9 C 0.98989 0.92391 0.26102 0.0
C10 C 0.05921 0.92233 0.56227 0.0
C11 C 0.9429 0.95075 0.60123 0.0
C12 C 0.06972 0.0577 0.69863 0.0
C13 C 0.06053 0.0452 0.76705 0.0
C14 C 0.07074 0.99622 0.80107 0.0
C15 C 0.06167 0.98584 0.86584 0.0
C16 C 0.04204 0.02409 0.89766 0.0
C17 C 0.03195 0.07294 0.86357 0.0
C18 C 0.04139 0.08344 0.79914 0.0
C19 C 0.96615 0.08517 0.49676 0.0
O20 O 0.04562 0.03319 0.4288 0.0
O21 O 0.09279 0.05668 0.52057 0.0
O22 O 0.99339 0.92447 0.39957 0.0
O23 O 0.93707 0.98682 0.38518 0.0
O24 O 0.02069 0.90275 0.53036 0.0
O25 O 0.06243 0.96882 0.54133 0.0
O26 O 0.98194 0.97437 0.62932 0.0
O27 O 0.93376 0.95235 0.53744 0.0
O28 O 0.03263 0.08251 0.65984 0.0
O29 O 0.0915 0.02262 0.67141 0.0
O30 O 1.00506 0.10523 0.52733 0.0
O31 O 0.96409 0.03865 0.51787 0.0
H32 H 0.94657 0.04247 0.27953 0.0
H33 H 0.96779 0.06005 0.16854 0.0
H34 H 0.01725 0.90337 0.17532 0.0
H35 H 0.99597 0.88561 0.28608 0.0
H36 H 0.08535 0.96582 0.77768 0.0
H37 H 0.06905 0.94762 0.89065 0.0
H38 H 0.01715 0.10322 0.887 0.0
H39 H 0.03358 0.12159 0.77423 0.0
Ho40 Ho 0.24711 0.72535 0.83746 0.0
Ho41 Ho 0.28348 0.783 0.71413 0.0
C42 C 0.32376 0.82067 0.84716 0.0
C43 C 0.23985 0.6805 0.953 0.0
C44 C 0.24822 0.69516 1.01929 0.0
C45 C 0.29314 0.71885 0.04212 0.0
C46 C 0.29931 0.73375 0.1044 0.0
C47 C 0.26054 0.72577 0.14484 0.0
C48 C 0.21593 0.7016 0.12202 0.0
C49 C 0.20988 0.68646 0.05995 0.0
C50 C 0.18409 0.80165 0.77452 0.0
C51 C 0.20473 0.68884 0.70418 0.0
C52 C 0.29159 0.82843 0.59907 0.0
C53 C 0.28643 0.81419 0.53249 0.0
C54 C 0.24261 0.79042 0.50635 0.0
C55 C 0.23887 0.77716 0.44331 0.0
C56 C 0.2788 0.78729 0.40512 0.0
C57 C 0.32273 0.81065 0.43166 0.0
C58 C 0.32635 0.82416 0.49453 0.0
C59 C 0.34662 0.70702 0.77801 0.0
O60 O 0.30854 0.77677 0.87486 0.0
O61 O 0.31077 0.83683 0.78489 0.0
O62 O 0.2013 0.70333 0.91492 0.0
O63 O 0.28011 0.67626 0.92312 0.0
O64 O 0.16888 0.76019 0.80512 0.0
O65 O 0.23222 0.80213 0.78269 0.0
O66 O 0.2225 0.73153 0.67639 0.0
O67 O 0.21675 0.67259 0.76663 0.0
O68 O 0.33044 0.8078 0.63873 0.0
O69 O 0.24996 0.82986 0.62695 0.0
O70 O 0.36175 0.74841 0.74716 0.0
O71 O 0.29849 0.7064 0.76905 0.0
H72 H 0.32342 0.72609 1.01187 0.0
H73 H 0.33459 0.75127 0.12104 0.0
H74 H 0.18529 0.69508 0.15186 0.0
H75 H 0.1749 0.66837 0.04337 0.0
H76 H 0.21124 0.78199 0.5345 0.0
H77 H 0.20451 0.75928 0.42422 0.0
H78 H 0.35465 0.81789 0.40415 0.0
H79 H 0.36062 0.84216 0.51374 0.0
Ho80 Ho 0.53305 0.97355 0.09229 0.0
Ho81 Ho 0.49054 0.03429 0.9609 0.0
C82 C 0.44373 0.06134 0.08444 0.0
C83 C 0.56485 0.94461 0.21346 0.0
C84 C 0.5534 0.95882 0.27656 0.0
C85 C 0.59321 0.97326 0.32093 0.0
C86 C 0.5834 0.98611 0.3812 0.0
C87 C 0.53349 0.98479 0.39842 0.0
C88 C 0.49368 0.97016 0.35403 0.0
C89 C 0.50343 0.95755 0.29365 0.0
C90 C 0.46221 0.92674 1.01822 0.0
C91 C 0.58379 0.94962 0.97023 0.0
C92 C 0.45552 0.0609 0.84014 0.0
C93 C 0.46842 0.04994 0.77636 0.0
C94 C 0.42921 0.03884 0.72898 0.0
C95 C 0.44029 0.02876 0.66805 0.0
C96 C 0.49081 0.02998 0.65306 0.0
C97 C 0.53016 0.0406 0.70079 0.0
C98 C 0.51911 0.05034 0.76193 0.0
C99 C 0.56028 0.08253 0.0346 0.0
O100 O 0.48275 0.03472 0.11841 0.0
O101 O 0.4334 0.06156 1.02088 0.0
O102 O 0.52907 0.92182 0.17975 0.0
O103 O 0.58792 0.97848 0.17721 0.0
O104 O 0.5012 0.90347 0.05396 0.0
O105 O 0.46143 0.97327 1.02572 0.0
O106 O 0.54519 0.97618 0.93473 0.0
O107 O 0.59153 0.94785 0.03406 0.0
O108 O 0.48787 0.08768 0.87352 0.0
O109 O 0.43777 0.02308 0.87634 0.0
O110 O 0.5223 0.1052 0.99615 0.0
O111 O 0.56168 0.03569 1.02824 0.0
H112 H 0.63207 0.97426 0.30911 0.0
H113 H 0.61507 0.99621 0.41481 0.0
H114 H 0.4548 0.96905 0.36574 0.0
H115 H 0.47178 0.94688 0.26044 0.0
H116 H 0.3899 0.03811 0.7391 0.0
H117 H 0.40922 0.02064 0.63226 0.0
H118 H 0.56955 0.04078 0.69106 0.0
H119 H 0.55024 0.05811 0.79784 0.0
Ho120 Ho 0.22853 0.27304 0.21074 0.0
Ho121 Ho 0.29549 0.23685 0.34216 0.0
C122 C 0.32004 0.18651 0.21984 0.0
C123 C 0.19754 0.30538 0.09028 0.0
C124 C 0.21048 0.29585 1.0256 0.0
C125 C 0.25441 0.31599 1.00111 0.0
C126 C 0.26557 0.3071 0.93968 0.0
C127 C 0.23283 0.27836 0.90097 0.0
C128 C 0.18893 0.2583 0.92543 0.0
C129 C 0.17777 0.26716 0.98681 0.0
C130 C 0.18771 0.20232 0.29094 0.0
C131 C 0.20478 0.32326 0.33391 0.0
C132 C 0.32632 0.20665 0.4632 0.0
C133 C 0.31134 0.21689 0.52671 0.0
C134 C 0.26753 0.19562 0.55032 0.0
C135 C 0.2539 0.20599 0.61006 0.0
C136 C 0.28399 0.23744 0.64793 0.0
C137 C 0.32826 0.25789 0.62497 0.0
C138 C 0.34172 0.2478 0.56508 0.0
C139 C 0.33588 0.30751 0.26134 0.0
O140 O 0.2897 0.22201 0.18367 0.0
O141 O 0.32404 0.18017 0.28394 0.0
O142 O 0.17633 0.26815 0.12372 0.0
O143 O 0.23098 0.32904 0.12665 0.0
O144 O 0.16064 0.23667 0.25117 0.0
O145 O 0.23403 0.20409 0.2819 0.0
O146 O 0.23373 0.28636 0.36898 0.0
O147 O 0.20032 0.33003 0.26972 0.0
O148 O 0.34652 0.24436 0.42936 0.0
O149 O 0.29476 0.18102 0.42688 0.0
O150 O 0.36316 0.2731 0.30074 0.0
O151 O 0.28979 0.30573 0.27121 0.0
H152 H 0.28015 0.33885 0.02911 0.0
H153 H 0.29954 0.3233 0.92207 0.0
H154 H 0.16341 0.23522 0.8974 0.0
H155 H 0.14346 0.25143 1.004 0.0
H156 H 0.24383 0.17069 0.52298 0.0
H157 H 0.22019 0.18873 0.6271 0.0
H158 H 0.35222 0.28223 0.65306 0.0
H159 H 0.376 0.2643 0.54873 0.0
Ho160 Ho 0.74008 0.22347 0.34218 0.0
Ho161 Ho 0.77829 0.28046 0.21907 0.0
C162 C 0.81756 0.31916 0.35282 0.0
C163 C 0.73432 0.17706 0.4573 0.0
C164 C 0.73735 0.192 0.52323 0.0
C165 C 0.76049 0.15851 0.57609 0.0
C166 C 0.76423 0.17206 0.63896 0.0
C167 C 0.74463 0.21934 0.65024 0.0
C168 C 0.72193 0.25309 0.597 0.0
C169 C 0.71836 0.23958 0.53407 0.0
C170 C 0.67872 0.30103 0.27959 0.0
C171 C 0.69901 0.18703 0.20835 0.0
C172 C 0.7853 0.32475 0.10317 0.0
C173 C 0.7791 0.30853 0.03771 0.0
C174 C 0.75565 0.34183 0.9848 0.0
C175 C 0.74897 0.32689 0.92253 0.0
C176 C 0.76551 0.27825 0.912 0.0
C177 C 0.78918 0.24503 0.96518 0.0
C178 C 0.7956 0.25987 1.02745 0.0
C179 C 0.83917 0.20292 0.2831 0.0
O180 O 0.79912 0.27684 0.38078 0.0
O181 O 0.80808 0.33351 0.28952 0.0
O182 O 0.69438 0.19389 0.41662 0.0
O183 O 0.77664 0.18005 0.43062 0.0
O184 O 0.66255 0.2606 0.31155 0.0
O185 O 0.72688 0.3002 0.28731 0.0
O186 O 0.71678 0.22979 0.18096 0.0
O187 O 0.71072 0.17065 0.27079 0.0
O188 O 0.82452 0.30523 0.1432 0.0
O189 O 0.74377 0.32617 0.13112 0.0
O190 O 0.85577 0.24366 0.25232 0.0
O191 O 0.7911 0.20384 0.27386 0.0
H192 H 0.77594 0.1219 0.56867 0.0
H193 H 0.78304 0.14574 0.6787 0.0
H194 H 0.70662 0.28983 0.60411 0.0
H195 H 0.70087 0.26637 0.49393 0.0
H196 H 0.74236 0.37941 0.99168 0.0
H197 H 0.73039 0.35325 0.88266 0.0
H198 H 0.80332 0.20773 0.95857 0.0
H199 H 0.81358 0.23333 0.06753 0.0
Ho200 Ho 0.72568 0.7731 0.70919 0.0
Ho201 Ho 0.79249 0.73351 0.8392 0.0
C202 C 0.81579 0.68564 0.71491 0.0
C203 C 0.6923 0.8024 0.58839 0.0
C204 C 0.70524 0.79211 0.5238 0.0
C205 C 0.74816 0.81321 0.4977 0.0
C206 C 0.75958 0.80277 0.43689 0.0
C207 C 0.72831 0.77116 0.40045 0.0
C208 C 0.68472 0.7512 0.42589 0.0
C209 C 0.67342 0.76146 0.48671 0.0
C210 C 0.68457 0.70228 0.78917 0.0
C211 C 0.7051 0.82397 0.83241 0.0
C212 C 0.82011 0.70043 0.9603 0.0
C213 C 0.80516 0.71076 1.02392 0.0
C214 C 0.75987 0.69179 0.04598 0.0
C215 C 0.74698 0.70098 0.1066 0.0
C216 C 0.77914 0.7291 0.14687 0.0
C217 C 0.82419 0.7483 0.12467 0.0
C218 C 0.83716 0.73902 0.06417 0.0
C219 C 0.83574 0.80339 0.76042 0.0
O220 O 0.78725 0.72354 0.68107 0.0
O221 O 0.81965 0.67715 0.77901 0.0
O222 O 0.67328 0.76465 0.62348 0.0
O223 O 0.72447 0.8284 0.62336 0.0
O224 O 0.65808 0.7394 0.75381 0.0
O225 O 0.73029 0.70298 0.77799 0.0
O226 O 0.7331 0.78589 0.86658 0.0
O227 O 0.70032 0.83129 0.76824 0.0
O228 O 0.84325 0.73685 0.92798 0.0
O229 O 0.7872 0.67739 0.92246 0.0
O230 O 0.86161 0.76827 0.80045 0.0
O231 O 0.78928 0.80317 0.76931 0.0
H232 H 0.77307 0.83776 0.52411 0.0
H233 H 0.79341 0.81888 0.41879 0.0
H234 H 0.65888 0.72802 0.39846 0.0
H235 H 0.6395 0.74545 0.5047 0.0
H236 H 0.73431 0.66975 1.01656 0.0
H237 H 0.71153 0.68644 0.12169 0.0
H238 H 0.84985 0.76995 0.15458 0.0
H239 H 0.87249 0.75382 0.04898 0.0
Ho240 Ho 0.49297 0.47811 0.97263 0.0
Ho241 Ho 0.53369 0.53417 0.08914 0.0
C242 C 0.58593 0.55845 0.96103 0.0
C243 C 0.46009 0.45183 0.86031 0.0
C244 C 0.47199 0.46357 0.79326 0.0
C245 C 0.48888 0.5117 0.76992 0.0
C246 C 0.50183 0.52106 0.70673 0.0
C247 C 0.49872 0.48231 0.66623 0.0
C248 C 0.48133 0.43439 0.68969 0.0
C249 C 0.46815 0.42514 0.75264 0.0
C250 C 0.55683 0.42373 0.06668 0.0
C251 C 0.43975 0.45494 0.09977 0.0
C252 C 0.56928 0.55991 0.20087 0.0
C253 C 0.56347 0.54568 0.26971 0.0
C254 C 0.55058 0.49621 0.29365 0.0
C255 C 0.54284 0.48462 0.35877 0.0
C256 C 0.5476 0.52237 0.40076 0.0
C257 C 0.56118 0.5716 0.37657 0.0
C258 C 0.56916 0.58307 0.31172 0.0
C259 C 0.46946 0.5887 0.9953 0.0
O260 O 0.54881 0.53326 0.93158 0.0
O261 O 0.59226 0.55951 1.02443 0.0
O262 O 0.49579 0.42648 0.90083 0.0
O263 O 0.43873 0.48833 0.88551 0.0
O264 O 0.51875 0.40458 0.0334 0.0
O265 O 0.56132 0.46997 0.04557 0.0
O266 O 0.47846 0.47788 0.12975 0.0
O267 O 0.43258 0.45595 0.03598 0.0
O268 O 0.52927 0.58202 0.1648 0.0
O269 O 0.59206 0.52654 0.17199 0.0
O270 O 0.50704 0.60796 0.02939 0.0
O271 O 0.46539 0.54236 1.01619 0.0
H272 H 0.49249 0.54186 0.80061 0.0
H273 H 0.51512 0.55834 0.68987 0.0
H274 H 0.47752 0.40416 0.65914 0.0
H275 H 0.45519 0.38777 0.76979 0.0
H276 H 0.54569 0.46683 0.26187 0.0
H277 H 0.53172 0.44655 0.37579 0.0
H278 H 0.56548 0.60133 0.40787 0.0
H279 H 0.57917 0.62143 0.29409 0.0
Ho280 Ho 0.03039 0.47407 0.59073 0.0
Ho281 Ho 0.99271 0.53675 0.45866 0.0
C282 C 0.94079 0.56155 0.57962 0.0
C283 C 0.06076 0.44192 0.71148 0.0
C284 C 0.05383 0.45669 0.77569 0.0
C285 C 0.05614 0.50762 0.78817 0.0
C286 C 0.04895 0.52026 0.84954 0.0
C287 C 0.03913 0.4823 0.8995 0.0
C288 C 0.03617 0.43151 0.88629 0.0
C289 C 0.04378 0.41887 0.82524 0.0
C290 C 0.96241 0.42819 0.51222 0.0
C291 C 0.08197 0.44887 0.46937 0.0
C292 C 0.96251 0.56873 0.33766 0.0
C293 C 0.97299 0.55603 0.27331 0.0
C294 C 0.96461 0.50727 0.2547 0.0
C295 C 0.97653 0.49581 0.19475 0.0
C296 C 0.9964 0.53304 0.15157 0.0
C297 C 1.00342 0.58223 0.16915 0.0
C298 C 0.99207 0.59351 0.22955 0.0
C299 C 0.05982 0.58356 0.53809 0.0
O300 O 0.9794 0.53562 0.61584 0.0
O301 O 0.9332 0.56209 0.51589 0.0
O302 O 0.02028 0.4253 0.67894 0.0
O303 O 0.08743 0.47184 0.67467 0.0
O304 O 0.99851 0.40392 0.55207 0.0
O305 O 0.9614 0.47468 0.51957 0.0
O306 O 0.04432 0.47615 0.43318 0.0
O307 O 0.08892 0.4469 0.53327 0.0
O308 O 1.00021 0.58844 0.37197 0.0
O309 O 0.93746 0.53593 0.37317 0.0
O310 O 0.02249 0.60656 0.49893 0.0
O311 O 0.06177 0.537 0.53037 0.0
H312 H 0.0634 0.53765 0.75058 0.0
H313 H 0.0514 0.55973 0.85804 0.0
H314 H 0.02713 0.40151 0.92285 0.0
H315 H 0.04136 0.37942 0.8165 0.0
H316 H 0.94877 0.47787 0.28602 0.0
H317 H 0.96971 0.45787 0.18183 0.0
H318 H 0.01848 0.6117 0.13659 0.0
H319 H 0.99846 0.63157 0.24226 0.0
C320 C 0.14462 0.12895 0.44037 0.0
C321 C 0.11555 0.08999 0.41494 0.0
C322 C 0.16913 0.16455 0.40001 0.0
C323 C 0.16582 0.16213 0.33317 0.0
H324 H 0.14688 0.13334 0.49135 0.0
H325 H 0.18923 0.19524 0.4208 0.0
S326 S 0.09876 0.06605 0.24245 0.0
N327 N 0.08796 0.04985 0.3182 0.0
N328 N 0.13404 0.11716 0.24318 0.0
C329 C 0.13853 0.12283 0.30721 0.0
C330 C 0.11352 0.08653 0.34797 0.0
C331 C 0.13975 0.90847 0.63997 0.0
C332 C 0.08916 0.89537 0.62093 0.0
C333 C 0.16991 0.87931 0.69185 0.0
C334 C 0.15034 0.83626 0.7261 0.0
H335 H 0.15667 0.94024 0.61322 0.0
H336 H 0.2092 0.88967 0.70394 0.0
S337 S 0.01688 0.79225 0.70255 0.0
N338 N 0.01873 0.8409 0.64556 0.0
N339 N 0.07493 0.78643 0.74268 0.0
C340 C 0.09858 0.82528 0.7104 0.0
C341 C 0.06814 0.85467 0.65766 0.0
C342 C 0.40294 0.82569 0.92224 0.0
C343 C 0.35874 0.85013 0.88744 0.0
C344 C 0.43618 0.85118 0.96385 0.0
C345 C 0.42573 0.90168 0.97357 0.0
H346 H 0.41195 0.78649 0.91716 0.0
H347 H 0.4702 0.8309 0.98886 0.0
S348 S 0.31132 0.98028 0.89926 0.0
N349 N 0.30457 0.92645 0.8671 0.0
N350 N 0.36533 0.97366 0.94893 0.0
C351 C 0.38064 0.92606 0.94049 0.0
C352 C 0.34754 0.90045 0.89644 0.0
C353 C 0.36669 0.1171 0.08856 0.0
C354 C 0.41229 0.09271 0.1198 0.0
C355 C 0.33694 0.14712 0.12133 0.0
C356 C 0.35143 0.15365 0.18674 0.0
H357 H 0.35373 0.11302 0.03841 0.0
H358 H 0.30214 0.16513 0.09516 0.0
S359 S 0.46924 0.10125 0.28981 0.0
N360 N 0.47171 0.07953 0.21976 0.0
N361 N 0.41555 0.13528 0.2807 0.0
C362 C 0.39708 0.1299 0.21846 0.0
C363 C 0.42755 0.09966 0.18518 0.0
C364 C 0.87458 0.88627 0.61494 0.0
C365 C 0.91196 0.91729 0.64309 0.0
C366 C 0.84897 0.85027 0.6534 0.0
C367 C 0.85958 0.84416 0.72114 0.0
H368 H 0.86607 0.88852 0.56275 0.0
H369 H 0.82243 0.8255 0.62995 0.0
S370 S 0.95173 0.91617 0.82 0.0
N371 N 0.95654 0.93994 0.74439 0.0
N372 N 0.90837 0.87188 0.8155 0.0
C373 C 0.89587 0.87512 0.7502 0.0
C374 C 0.92188 0.91196 0.71146 0.0
C375 C 0.95 0.15827 0.41004 0.0
C376 C 0.93317 0.11243 0.44082 0.0
C377 C 0.91976 0.18627 0.35789 0.0
C378 C 0.87124 0.1698 0.33479 0.0
H379 H 0.98689 0.17287 0.42647 0.0
H380 H 0.93418 0.22178 0.33655 0.0
S381 S 0.81002 0.05145 0.39715 0.0
N382 N 0.86526 0.05114 0.44384 0.0
N383 N 0.80846 0.10368 0.34477 0.0
C384 C 0.85429 0.12344 0.36406 0.0
C385 C 0.88523 0.09478 0.41741 0.0
C386 C 0.66796 0.10682 0.16542 0.0
C387 C 0.66256 0.15948 0.16702 0.0
C388 C 0.63551 0.08202 0.1214 0.0
C389 C 0.59555 0.10877 0.07956 0.0
H390 H 0.69845 0.0851 0.19663 0.0
H391 H 0.64226 0.04193 0.1195 0.0
S392 S 0.56579 0.24743 0.066 0.0
N393 N 0.61527 0.23771 0.12274 0.0
N394 N 0.553 0.19113 0.04284 0.0
C395 C 0.58972 0.16141 0.08156 0.0
C396 C 0.62344 0.1867 0.12479 0.0
C397 C 0.63835 0.89164 0.83494 0.0
C398 C 0.67708 0.85801 0.86826 0.0
C399 C 0.60929 0.92172 0.86829 0.0
C400 C 0.61774 0.91965 0.93639 0.0
H401 H 0.62955 0.89407 0.78284 0.0
H402 H 0.57934 0.94629 0.84007 0.0
S403 S 0.71724 0.84053 0.04636 0.0
N404 N 0.7243 0.82648 0.97337 0.0
N405 N 0.66962 0.8828 0.03563 0.0
C406 C 0.65739 0.88728 0.97019 0.0
C407 C 0.68698 0.85655 0.93626 0.0
C408 C 0.6322 0.63922 0.93831 0.0
C409 C 0.61704 0.59168 0.92003 0.0
C410 C 0.65461 0.67489 0.89575 0.0
C411 C 0.66363 0.66361 0.83436 0.0
H412 H 0.62454 0.64994 0.98454 0.0
H413 H 0.66426 0.71172 0.91061 0.0
S414 S 0.63508 0.54366 0.76501 0.0
N415 N 0.61496 0.53468 0.83712 0.0
N416 N 0.65853 0.60142 0.75822 0.0
C417 C 0.65071 0.61574 0.81641 0.0
C418 C 0.62705 0.57977 0.85906 0.0
C419 C 0.66635 0.37854 0.19671 0.0
C420 C 0.64567 0.33623 0.23114 0.0
C421 C 0.63689 0.40823 0.14472 0.0
C422 C 0.58593 0.39638 0.12566 0.0
H423 H 0.70596 0.38785 0.20874 0.0
H424 H 0.65465 0.43934 0.11782 0.0
S425 S 0.51095 0.29584 0.20769 0.0
N426 N 0.56893 0.28862 0.24793 0.0
N427 N 0.51404 0.34405 0.1504 0.0
C428 C 0.56385 0.3565 0.16252 0.0
C429 C 0.59358 0.3266 0.21547 0.0
C430 C 0.92026 0.41045 0.40513 0.0
C431 C 0.92286 0.40313 0.47275 0.0
C432 C 0.88481 0.38464 0.36625 0.0
C433 C 0.85115 0.34999 0.39421 0.0
H434 H 0.94732 0.43476 0.38271 0.0
H435 H 0.88512 0.39055 0.31421 0.0
S436 S 0.84259 0.31904 0.57067 0.0
N437 N 0.88896 0.36028 0.56677 0.0
N438 N 0.82205 0.3114 0.49489 0.0
C439 C 0.85317 0.34304 0.46244 0.0
C440 C 0.88926 0.36953 0.50154 0.0
C441 C 0.88236 0.6177 0.71326 0.0
C442 C 0.84541 0.65292 0.67915 0.0
C443 C 0.91235 0.588 0.68063 0.0
C444 C 0.90658 0.59206 0.61234 0.0
H445 H 0.8889 0.61339 0.76579 0.0
H446 H 0.94056 0.56195 0.70949 0.0
S447 S 0.81385 0.67718 0.49977 0.0
N448 N 0.80366 0.68904 0.57267 0.0
N449 N 0.86007 0.63337 0.51169 0.0
C450 C 0.86914 0.62645 0.57752 0.0
C451 C 0.83861 0.65684 0.61075 0.0
C452 C 0.35743 0.3447 0.15345 0.0
C453 C 0.35745 0.34824 0.21967 0.0
C454 C 0.38184 0.38105 0.11402 0.0
C455 C 0.40755 0.42182 0.13986 0.0
H456 H 0.33986 0.31277 0.13248 0.0
H457 H 0.38244 0.37578 0.06366 0.0
S458 S 0.41433 0.44935 0.31035 0.0
N459 N 0.38206 0.39632 0.30912 0.0
N460 N 0.42801 0.46497 0.23568 0.0
C461 C 0.40606 0.42643 0.20595 0.0
C462 C 0.38109 0.38943 0.24577 0.0
C463 C 0.39131 0.60044 0.91298 0.0
C464 C 0.43992 0.61641 0.93669 0.0
C465 C 0.36172 0.62898 0.86004 0.0
C466 C 0.37991 0.67421 0.82909 0.0
H467 H 0.37547 0.56655 0.9366 0.0
H468 H 0.32394 0.61617 0.84416 0.0
S469 S 0.50782 0.72829 0.86748 0.0
N470 N 0.50679 0.67759 0.92162 0.0
N471 N 0.45186 0.73065 0.82224 0.0
C472 C 0.42967 0.68884 0.85025 0.0
C473 C 0.45944 0.66017 0.90423 0.0
C474 C 0.16929 0.60815 0.66659 0.0
C475 C 0.1673 0.66147 0.66365 0.0
C476 C 0.13513 0.58295 0.62493 0.0
C477 C 0.09672 0.61008 0.58091 0.0
H478 H 0.1983 0.586 0.69981 0.0
H479 H 0.13922 0.54215 0.62681 0.0
S480 S 0.07543 0.75046 0.55556 0.0
N481 N 0.12449 0.74061 0.61288 0.0
N482 N 0.05919 0.69351 0.53727 0.0
C483 C 0.09421 0.66342 0.57836 0.0
C484 C 0.12968 0.68901 0.61921 0.0
C485 C 0.13368 0.3862 0.33593 0.0
C486 C 0.17588 0.35705 0.36881 0.0
C487 C 0.10415 0.4161 0.36884 0.0
C488 C 0.11566 0.41832 0.43602 0.0
H489 H 0.1226 0.38516 0.28461 0.0
H490 H 0.0715 0.43706 0.34112 0.0
S491 S 0.2252 0.35263 0.5436 0.0
N492 N 0.2298 0.33472 0.47182 0.0
N493 N 0.17425 0.3908 0.53343 0.0
C494 C 0.15866 0.39043 0.4692 0.0
C495 C 0.18874 0.35987 0.43568 0.0
C496 C 0.98343 0.02767 0.98271 0.0
C497 C 0.0311 0.01322 0.96592 0.0
C498 C 0.97218 0.01825 0.04679 0.0
C499 C 1.00813 0.99393 0.09651 0.0
H500 H 0.95435 0.04591 0.94584 0.0
H501 H 0.93475 0.02938 0.05732 0.0
S502 S 0.14 0.95247 0.07916 0.0
N503 N 0.1155 0.97598 1.00495 0.0
N504 N 0.09434 0.95822 0.12535 0.0
C505 C 0.0562 0.97998 0.0806 0.0
C506 C 0.06766 0.98958 1.01535 0.0
C507 C 0.25827 0.72384 0.32661 0.0
C508 C 0.27487 0.77259 0.33828 0.0
C509 C 0.25409 0.709 0.26419 0.0
C510 C 0.26632 0.74229 0.21079 0.0
H511 H 0.24893 0.69665 0.36623 0.0
H512 H 0.24159 0.67091 0.25783 0.0
S513 S 0.30823 0.8754 0.21437 0.0
N514 N 0.30147 0.85495 0.29051 0.0
N515 N 0.29357 0.8271 0.17331 0.0
C516 C 0.28262 0.7913 0.22164 0.0
C517 C 0.28689 0.80642 0.28525 0.0
C518 C 0.48309 0.97587 0.56224 0.0
C519 C 0.50228 0.01947 0.588 0.0
C520 C 0.49328 0.96507 0.50103 0.0
C521 C 0.52296 0.99751 0.463 0.0
H522 H 0.46049 0.94951 0.58999 0.0
H523 H 0.47829 0.93064 0.4837 0.0
S524 S 0.57849 0.1189 0.50588 0.0
N525 N 0.55014 0.0967 0.5693 0.0
N526 N 0.56895 0.07667 0.45414 0.0
C527 C 0.54172 0.04168 0.48777 0.0
C528 C 0.53148 0.05258 0.55022 0.0
C529 C 0.29441 0.25217 0.82775 0.0
C530 C 0.24493 0.26875 0.8357 0.0
C531 C 0.30665 0.24224 0.76702 0.0
C532 C 0.26989 0.24832 0.71177 0.0
H533 H 0.32379 0.24612 0.86902 0.0
H534 H 0.34509 0.229 0.76349 0.0
S535 S 0.13605 0.29525 0.70515 0.0
N536 N 0.15983 0.29393 0.78203 0.0
N537 N 0.18265 0.27461 0.6683 0.0
C538 C 0.22046 0.2655 0.71882 0.0
C539 C 0.20804 0.27587 0.78058 0.0
C540 C 0.77217 0.29582 0.79263 0.0
C541 C 0.75884 0.26263 0.84551 0.0
C542 C 0.76709 0.28173 0.72976 0.0
C543 C 0.74861 0.2338 0.71718 0.0
H544 H 0.78747 0.33274 0.80004 0.0
H545 H 0.77853 0.3083 0.69087 0.0
S546 S 0.70364 0.13487 0.8374 0.0
N547 N 0.72303 0.181 0.88012 0.0
N548 N 0.71379 0.15447 0.76219 0.0
C549 C 0.73421 0.20064 0.76935 0.0
C550 C 0.73926 0.21503 0.83335 0.0
C551 C 0.75595 0.7984 0.29055 0.0
C552 C 0.74104 0.75939 0.33604 0.0
C553 C 0.76811 0.78832 0.22976 0.0
C554 C 0.76575 0.73882 0.21168 0.0
H555 H 0.75767 0.83726 0.30168 0.0
H556 H 0.77891 0.81973 0.19631 0.0
S557 S 0.73283 0.62239 0.31459 0.0
N558 N 0.72732 0.66862 0.35964 0.0
N559 N 0.74984 0.64991 0.24559 0.0
C560 C 0.75143 0.69936 0.25685 0.0
C561 C 0.73918 0.70956 0.31883 0.0
C562 C 0.49218 0.53506 0.55752 0.0
C563 C 0.51271 0.49207 0.59924 0.0
C564 C 0.50376 0.54449 0.49361 0.0
C565 C 0.53643 0.51138 0.46894 0.0
H566 H 0.46624 0.56118 0.57405 0.0
H567 H 0.48637 0.57764 0.46294 0.0
S568 S 0.60367 0.39589 0.56023 0.0
N569 N 0.56958 0.41763 0.61258 0.0
N570 N 0.59142 0.43544 0.49248 0.0
C571 C 0.55789 0.4687 0.51047 0.0
C572 C 0.54606 0.45906 0.57558 0.0
C573 C 0.99853 0.53767 0.96957 0.0
C574 C 0.03054 0.49574 0.96458 0.0
C575 C 0.98827 0.54996 0.03015 0.0
C576 C 1.00929 0.52057 0.08808 0.0
H577 H 0.98034 0.56061 0.92626 0.0
H578 H 0.96279 0.58204 0.03162 0.0
S579 S 0.09951 0.41019 0.1026 0.0
N580 N 0.08638 0.42731 1.02371 0.0
N581 N 0.06608 0.44982 0.13715 0.0
C582 C 0.04217 0.47928 0.08403 0.0
C583 C 0.05302 0.467 1.02246 0.0
loop_
_geom_bond_atom_site_label_1
_geom_bond_atom_site_label_2
_geom_bond_distance
_geom_bond_site_symmetry_2
_ccdc_geom_bond_type
Ho0 C3 2.811 1_655 S
Ho0 O20 2.322 1_665 S
Ho0 O22 2.378 1_655 S
Ho0 O23 2.524 1_565 S
Ho0 O24 2.381 1_655 S
Ho0 O25 2.669 1_655 S
Ho0 O27 2.346 . S
Ho0 O31 2.305 1_565 S
Ho1 C12 2.811 1_455 S
Ho1 O21 2.346 . S
Ho1 O25 2.305 1_545 S
Ho1 O26 2.322 1_445 S
Ho1 O28 2.378 1_455 S
Ho1 O29 2.524 1_545 S
Ho1 O30 2.381 1_455 S
Ho1 O31 2.669 1_455 S
C2 O20 1.259 . S
C2 O21 1.268 . S
C3 Ho0 2.811 1_455 S
C3 C4 1.488 . S
C3 O22 1.215 . S
C3 O23 1.289 1_465 S
C4 C3 1.488 . S
C4 C5 1.348 1_565 S
C4 C9 1.413 . S
C5 C4 1.348 1_545 S
C5 C6 1.442 . S
C5 H32 0.930 1_455 S
C6 C5 1.442 . S
C6 C7 1.381 1_545 S
C6 H33 0.931 . S
C7 C6 1.381 1_565 S
C7 C8 1.321 . S
C8 C7 1.321 . S
C8 C9 1.403 . S
C8 H34 0.934 . S
C9 C4 1.413 . S
C9 C8 1.403 . S
C9 H35 0.930 . S
C10 O24 1.275 . S
C10 O25 1.256 . S
C11 O26 1.259 . S
C11 O27 1.268 . S
C12 Ho1 2.811 1_655 S
C12 C13 1.488 . S
C12 O28 1.215 . S
C12 O29 1.289 1_645 S
C13 C12 1.488 . S
C13 C14 1.348 1_545 S
C13 C18 1.413 . S
C14 C13 1.348 1_565 S
C14 C15 1.442 . S
C14 H36 0.930 1_655 S
C15 C14 1.442 . S
C15 C16 1.381 1_565 S
C15 H37 0.931 . S
C16 C15 1.381 1_545 S
C16 C17 1.321 . S
C17 C16 1.321 . S
C17 C18 1.403 . S
C17 H38 0.934 . S
C18 C13 1.413 . S
C18 C17 1.403 . S
C18 H39 0.930 . S
C19 O30 1.275 . S
C19 O31 1.256 . S
O20 Ho0 2.322 1_445 S
O20 C2 1.259 . S
O21 Ho1 2.346 . S
O21 C2 1.268 . S
O22 Ho0 2.378 1_455 S
O22 C3 1.215 . S
O23 Ho0 2.524 1_545 S
O23 C3 1.289 1_645 S
O24 Ho0 2.381 1_455 S
O24 C10 1.275 . S
O25 Ho0 2.669 1_455 S
O25 Ho1 2.305 1_565 S
O25 C10 1.256 . S
O26 Ho1 2.322 1_665 S
O26 C11 1.259 . S
O27 Ho0 2.346 . S
O27 C11 1.268 . S
O28 Ho1 2.378 1_655 S
O28 C12 1.215 . S
O29 Ho1 2.524 1_565 S
O29 C12 1.289 1_465 S
O30 Ho1 2.381 1_655 S
O30 C19 1.275 . S
O31 Ho0 2.305 1_545 S
O31 Ho1 2.669 1_655 S
O31 C19 1.256 . S
H32 C5 0.930 1_655 S
H33 C6 0.931 . S
H34 C8 0.934 . S
H35 C9 0.930 . S
H36 C14 0.930 1_455 S
H37 C15 0.931 . S
H38 C17 0.934 . S
H39 C18 0.930 . S
Ho40 C43 2.811 . S
Ho40 O60 2.322 . S
Ho40 O62 2.378 . S
Ho40 O63 2.524 . S
Ho40 O64 2.381 . S
Ho40 O65 2.669 . S
Ho40 O67 2.346 . S
Ho40 O71 2.305 . S
Ho41 C52 2.811 . S
Ho41 O61 2.346 . S
Ho41 O65 2.305 . S
Ho41 O66 2.322 . S
Ho41 O68 2.378 . S
Ho41 O69 2.524 . S
Ho41 O70 2.381 . S
Ho41 O71 2.669 . S
C42 O60 1.259 . S
C42 O61 1.268 . S
C43 Ho40 2.811 . S
C43 C44 1.481 1_556 S
C43 O62 1.215 . S
C43 O63 1.289 . S
C44 C43 1.481 1_554 S
C44 C45 1.352 . S
C44 C49 1.416 . S
C45 C44 1.352 . S
C45 C46 1.442 . S
C45 H72 0.930 . S
C46 C45 1.442 . S
C46 C47 1.381 . S
C46 H73 0.931 . S
C47 C46 1.381 . S
C47 C48 1.321 . S
C48 C47 1.321 . S
C48 C49 1.403 . S
C48 H74 0.934 . S
C49 C44 1.416 . S
C49 C48 1.403 . S
C49 H75 0.930 1_554 S
C50 O64 1.275 . S
C50 O65 1.256 . S
C51 O66 1.259 . S
C51 O67 1.268 . S
C52 Ho41 2.811 . S
C52 C53 1.488 . S
C52 O68 1.215 . S
C52 O69 1.289 . S
C53 C52 1.488 . S
C53 C54 1.348 . S
C53 C58 1.413 . S
C54 C53 1.348 . S
C54 C55 1.442 . S
C54 H76 0.930 . S
C55 C54 1.442 . S
C55 C56 1.381 . S
C55 H77 0.931 . S
C56 C55 1.381 . S
C56 C57 1.321 . S
C57 C56 1.321 . S
C57 C58 1.403 . S
C57 H78 0.934 . S
C58 C53 1.413 . S
C58 C57 1.403 . S
C58 H79 0.930 . S
C59 O70 1.275 . S
C59 O71 1.256 . S
O60 Ho40 2.322 . S
O60 C42 1.259 . S
O61 Ho41 2.346 . S
O61 C42 1.268 . S
O62 Ho40 2.378 . S
O62 C43 1.215 . S
O63 Ho40 2.524 . S
O63 C43 1.289 . S
O64 Ho40 2.381 . S
O64 C50 1.275 . S
O65 Ho40 2.669 . S
O65 Ho41 2.305 . S
O65 C50 1.256 . S
O66 Ho41 2.322 . S
O66 C51 1.259 . S
O67 Ho40 2.346 . S
O67 C51 1.268 . S
O68 Ho41 2.378 . S
O68 C52 1.215 . S
O69 Ho41 2.524 . S
O69 C52 1.289 . S
O70 Ho41 2.381 . S
O70 C59 1.275 . S
O71 Ho40 2.305 . S
O71 Ho41 2.669 . S
O71 C59 1.256 . S
H72 C45 0.930 . S
H73 C46 0.931 . S
H74 C48 0.934 . S
H75 C49 0.930 1_556 S
H76 C54 0.930 . S
H77 C55 0.931 . S
H78 C57 0.934 . S
H79 C58 0.930 . S
Ho80 C83 2.811 . S
Ho80 O100 2.322 1_565 S
Ho80 O102 2.378 . S
Ho80 O103 2.524 . S
Ho80 O104 2.381 . S
Ho80 O105 2.669 1_554 S
Ho80 O107 2.346 . S
Ho80 O111 2.305 1_565 S
Ho81 C92 2.811 . S
Ho81 O101 2.346 . S
Ho81 O105 2.305 1_545 S
Ho81 O106 2.322 1_545 S
Ho81 O108 2.378 . S
Ho81 O109 2.524 . S
Ho81 O110 2.381 . S
Ho81 O111 2.669 1_556 S
C82 O100 1.259 . S
C82 O101 1.268 1_554 S
C83 Ho80 2.811 . S
C83 C84 1.488 . S
C83 O102 1.215 . S
C83 O103 1.289 . S
C84 C83 1.488 . S
C84 C85 1.348 . S
C84 C89 1.413 . S
C85 C84 1.348 . S
C85 C86 1.442 . S
C85 H112 0.930 1_565 S
C86 C85 1.442 . S
C86 C87 1.381 . S
C86 H113 0.931 1_565 S
C87 C86 1.381 . S
C87 C88 1.321 . S
C88 C87 1.321 . S
C88 C89 1.403 . S
C88 H114 0.934 . S
C89 C84 1.413 . S
C89 C88 1.403 . S
C89 H115 0.930 . S
C90 O104 1.275 1_556 S
C90 O105 1.256 . S
C91 O106 1.259 . S
C91 O107 1.268 1_556 S
C92 Ho81 2.811 . S
C92 C93 1.488 . S
C92 O108 1.215 . S
C92 O109 1.289 . S
C93 C92 1.488 . S
C93 C94 1.348 . S
C93 C98 1.413 . S
C94 C93 1.348 . S
C94 C95 1.442 . S
C94 H116 0.930 1_545 S
C95 C94 1.442 . S
C95 C96 1.381 . S
C95 H117 0.931 1_545 S
C96 C95 1.381 . S
C96 C97 1.321 . S
C97 C96 1.321 . S
C97 C98 1.403 . S
C97 H118 0.934 . S
C98 C93 1.413 . S
C98 C97 1.403 . S
C98 H119 0.930 . S
C99 O110 1.275 1_554 S
C99 O111 1.256 . S
O100 Ho80 2.322 1_545 S
O100 C82 1.259 . S
O101 Ho81 2.346 . S
O101 C82 1.268 1_556 S
O102 Ho80 2.378 . S
O102 C83 1.215 . S
O103 Ho80 2.524 . S
O103 C83 1.289 . S
O104 Ho80 2.381 . S
O104 C90 1.275 1_554 S
O105 Ho80 2.669 1_556 S
O105 Ho81 2.305 1_565 S
O105 C90 1.256 . S
O106 Ho81 2.322 1_565 S
O106 C91 1.259 . S
O107 Ho80 2.346 . S
O107 C91 1.268 1_554 S
O108 Ho81 2.378 . S
O108 C92 1.215 . S
O109 Ho81 2.524 . S
O109 C92 1.289 . S
O110 Ho81 2.381 . S
O110 C99 1.275 1_556 S
O111 Ho80 2.305 1_545 S
O111 Ho81 2.669 1_554 S
O111 C99 1.256 . S
H112 C85 0.930 1_545 S
H113 C86 0.931 1_545 S
H114 C88 0.934 . S
H115 C89 0.930 . S
H116 C94 0.930 1_565 S
H117 C95 0.931 1_565 S
H118 C97 0.934 . S
H119 C98 0.930 . S
Ho120 C123 2.811 . S
Ho120 O140 2.322 . S
Ho120 O142 2.378 . S
Ho120 O143 2.524 . S
Ho120 O144 2.381 . S
Ho120 O145 2.669 . S
Ho120 O147 2.346 . S
Ho120 O151 2.305 . S
Ho121 C132 2.811 . S
Ho121 O141 2.346 . S
Ho121 O145 2.305 . S
Ho121 O146 2.322 . S
Ho121 O148 2.378 . S
Ho121 O149 2.524 . S
Ho121 O150 2.381 . S
Ho121 O151 2.669 . S
C122 O140 1.259 . S
C122 O141 1.268 . S
C123 Ho120 2.811 . S
C123 C124 1.488 1_554 S
C123 O142 1.215 . S
C123 O143 1.289 . S
C124 C123 1.488 1_556 S
C124 C125 1.348 . S
C124 C129 1.413 . S
C125 C124 1.348 . S
C125 C126 1.442 . S
C125 H152 0.930 . S
C126 C125 1.442 . S
C126 C127 1.381 . S
C126 H153 0.931 . S
C127 C126 1.381 . S
C127 C128 1.321 . S
C128 C127 1.321 . S
C128 C129 1.403 . S
C128 H154 0.934 . S
C129 C124 1.413 . S
C129 C128 1.403 . S
C129 H155 0.930 . S
C130 O144 1.275 . S
C130 O145 1.256 . S
C131 O146 1.259 . S
C131 O147 1.268 . S
C132 Ho121 2.811 . S
C132 C133 1.488 . S
C132 O148 1.215 . S
C132 O149 1.289 . S
C133 C132 1.488 . S
C133 C134 1.348 . S
C133 C138 1.413 . S
C134 C133 1.348 . S
C134 C135 1.442 . S
C134 H156 0.930 . S
C135 C134 1.442 . S
C135 C136 1.381 . S
C135 H157 0.931 . S
C136 C135 1.381 . S
C136 C137 1.321 . S
C137 C136 1.321 . S
C137 C138 1.403 . S
C137 H158 0.934 . S
C138 C133 1.413 . S
C138 C137 1.403 . S
C138 H159 0.930 . S
C139 O150 1.275 . S
C139 O151 1.256 . S
O140 Ho120 2.322 . S
O140 C122 1.259 . S
O141 Ho121 2.346 . S
O141 C122 1.268 . S
O142 Ho120 2.378 . S
O142 C123 1.215 . S
O143 Ho120 2.524 . S
O143 C123 1.289 . S
O144 Ho120 2.381 . S
O144 C130 1.275 . S
O145 Ho120 2.669 . S
O145 Ho121 2.305 . S
O145 C130 1.256 . S
O146 Ho121 2.322 . S
O146 C131 1.259 . S
O147 Ho120 2.346 . S
O147 C131 1.268 . S
O148 Ho121 2.378 . S
O148 C132 1.215 . S
O149 Ho121 2.524 . S
O149 C132 1.289 . S
O150 Ho121 2.381 . S
O150 C139 1.275 . S
O151 Ho120 2.305 . S
O151 Ho121 2.669 . S
O151 C139 1.256 . S
H152 C125 0.930 . S
H153 C126 0.931 . S
H154 C128 0.934 . S
H155 C129 0.930 . S
H156 C134 0.930 . S
H157 C135 0.931 . S
H158 C137 0.934 . S
H159 C138 0.930 . S
Ho160 C163 2.811 . S
Ho160 O180 2.322 . S
Ho160 O182 2.378 . S
Ho160 O183 2.524 . S
Ho160 O184 2.381 . S
Ho160 O185 2.669 . S
Ho160 O187 2.346 . S
Ho160 O191 2.305 . S
Ho161 C172 2.811 . S
Ho161 O181 2.346 . S
Ho161 O185 2.305 . S
Ho161 O186 2.322 . S
Ho161 O188 2.378 . S
Ho161 O189 2.524 . S
Ho161 O190 2.381 . S
Ho161 O191 2.669 . S
C162 O180 1.259 . S
C162 O181 1.268 . S
C163 Ho160 2.811 . S
C163 C164 1.488 . S
C163 O182 1.215 . S
C163 O183 1.289 . S
C164 C163 1.488 . S
C164 C165 1.348 . S
C164 C169 1.413 . S
C165 C164 1.348 . S
C165 C166 1.442 . S
C165 H192 0.930 . S
C166 C165 1.442 . S
C166 C167 1.381 . S
C166 H193 0.931 . S
C167 C166 1.381 . S
C167 C168 1.321 . S
C168 C167 1.321 . S
C168 C169 1.403 . S
C168 H194 0.934 . S
C169 C164 1.413 . S
C169 C168 1.403 . S
C169 H195 0.930 . S
C170 O184 1.275 . S
C170 O185 1.256 . S
C171 O186 1.259 . S
C171 O187 1.268 . S
C172 Ho161 2.811 . S
C172 C173 1.485 1_554 S
C172 O188 1.215 . S
C172 O189 1.289 . S
C173 C172 1.485 1_556 S
C173 C174 1.350 . S
C173 C178 1.414 . S
C174 C173 1.350 . S
C174 C175 1.442 . S
C174 H196 0.930 . S
C175 C174 1.442 . S
C175 C176 1.381 . S
C175 H197 0.931 . S
C176 C175 1.381 . S
C176 C177 1.321 . S
C177 C176 1.321 . S
C177 C178 1.403 . S
C177 H198 0.934 . S
C178 C173 1.414 . S
C178 C177 1.403 . S
C178 H199 0.930 1_556 S
C179 O190 1.275 . S
C179 O191 1.256 . S
O180 Ho160 2.322 . S
O180 C162 1.259 . S
O181 Ho161 2.346 . S
O181 C162 1.268 . S
O182 Ho160 2.378 . S
O182 C163 1.215 . S
O183 Ho160 2.524 . S
O183 C163 1.289 . S
O184 Ho160 2.381 . S
O184 C170 1.275 . S
O185 Ho160 2.669 . S
O185 Ho161 2.305 . S
O185 C170 1.256 . S
O186 Ho161 2.322 . S
O186 C171 1.259 . S
O187 Ho160 2.346 . S
O187 C171 1.268 . S
O188 Ho161 2.378 . S
O188 C172 1.215 . S
O189 Ho161 2.524 . S
O189 C172 1.289 . S
O190 Ho161 2.381 . S
O190 C179 1.275 . S
O191 Ho160 2.305 . S
O191 Ho161 2.669 . S
O191 C179 1.256 . S
H192 C165 0.930 . S
H193 C166 0.931 . S
H194 C168 0.934 . S
H195 C169 0.930 . S
H196 C174 0.930 . S
H197 C175 0.931 . S
H198 C177 0.934 . S
H199 C178 0.930 1_554 S
Ho200 C203 2.811 . S
Ho200 O220 2.322 . S
Ho200 O222 2.378 . S
Ho200 O223 2.524 . S
Ho200 O224 2.381 . S
Ho200 O225 2.669 . S
Ho200 O227 2.346 . S
Ho200 O231 2.305 . S
Ho201 C212 2.811 . S
Ho201 O221 2.346 . S
Ho201 O225 2.305 . S
Ho201 O226 2.322 . S
Ho201 O228 2.378 . S
Ho201 O229 2.524 . S
Ho201 O230 2.381 . S
Ho201 O231 2.669 . S
C202 O220 1.259 . S
C202 O221 1.268 . S
C203 Ho200 2.811 . S
C203 C204 1.488 . S
C203 O222 1.215 . S
C203 O223 1.289 . S
C204 C203 1.488 . S
C204 C205 1.348 . S
C204 C209 1.413 . S
C205 C204 1.348 . S
C205 C206 1.442 . S
C205 H232 0.930 . S
C206 C205 1.442 . S
C206 C207 1.381 . S
C206 H233 0.931 . S
C207 C206 1.381 . S
C207 C208 1.321 . S
C208 C207 1.321 . S
C208 C209 1.403 . S
C208 H234 0.934 . S
C209 C204 1.413 . S
C209 C208 1.403 . S
C209 H235 0.930 . S
C210 O224 1.275 . S
C210 O225 1.256 . S
C211 O226 1.259 . S
C211 O227 1.268 . S
C212 Ho201 2.811 . S
C212 C213 1.488 1_556 S
C212 O228 1.215 . S
C212 O229 1.289 . S
C213 C212 1.488 1_554 S
C213 C214 1.348 . S
C213 C218 1.413 . S
C214 C213 1.348 . S
C214 C215 1.442 . S
C214 H236 0.930 . S
C215 C214 1.442 . S
C215 C216 1.381 . S
C215 H237 0.931 . S
C216 C215 1.381 . S
C216 C217 1.321 . S
C217 C216 1.321 . S
C217 C218 1.403 . S
C217 H238 0.934 . S
C218 C213 1.413 . S
C218 C217 1.403 . S
C218 H239 0.930 . S
C219 O230 1.275 . S
C219 O231 1.256 . S
O220 Ho200 2.322 . S
O220 C202 1.259 . S
O221 Ho201 2.346 . S
O221 C202 1.268 . S
O222 Ho200 2.378 . S
O222 C203 1.215 . S
O223 Ho200 2.524 . S
O223 C203 1.289 . S
O224 Ho200 2.381 . S
O224 C210 1.275 . S
O225 Ho200 2.669 . S
O225 Ho201 2.305 . S
O225 C210 1.256 . S
O226 Ho201 2.322 . S
O226 C211 1.259 . S
O227 Ho200 2.346 . S
O227 C211 1.268 . S
O228 Ho201 2.378 . S
O228 C212 1.215 . S
O229 Ho201 2.524 . S
O229 C212 1.289 . S
O230 Ho201 2.381 . S
O230 C219 1.275 . S
O231 Ho200 2.305 . S
O231 Ho201 2.669 . S
O231 C219 1.256 . S
H232 C205 0.930 . S
H233 C206 0.931 . S
H234 C208 0.934 . S
H235 C209 0.930 . S
H236 C214 0.930 . S
H237 C215 0.931 . S
H238 C217 0.934 . S
H239 C218 0.930 . S
Ho240 C243 2.811 . S
Ho240 O260 2.322 . S
Ho240 O262 2.378 . S
Ho240 O263 2.524 . S
Ho240 O264 2.381 . S
Ho240 O265 2.669 1_556 S
Ho240 O267 2.346 1_556 S
Ho240 O271 2.305 . S
Ho241 C252 2.811 . S
Ho241 O261 2.346 1_554 S
Ho241 O265 2.305 . S
Ho241 O266 2.322 . S
Ho241 O268 2.378 . S
Ho241 O269 2.524 . S
Ho241 O270 2.381 . S
Ho241 O271 2.669 1_554 S
C242 O260 1.259 . S
C242 O261 1.268 . S
C243 Ho240 2.811 . S
C243 C244 1.488 . S
C243 O262 1.215 . S
C243 O263 1.289 . S
C244 C243 1.488 . S
C244 C245 1.348 . S
C244 C249 1.413 . S
C245 C244 1.348 . S
C245 C246 1.442 . S
C245 H272 0.930 . S
C246 C245 1.442 . S
C246 C247 1.381 . S
C246 H273 0.931 . S
C247 C246 1.381 . S
C247 C248 1.321 . S
C248 C247 1.321 . S
C248 C249 1.403 . S
C248 H274 0.934 . S
C249 C244 1.413 . S
C249 C248 1.403 . S
C249 H275 0.930 . S
C250 O264 1.275 1_554 S
C250 O265 1.256 . S
C251 O266 1.259 . S
C251 O267 1.268 . S
C252 Ho241 2.811 . S
C252 C253 1.488 . S
C252 O268 1.215 . S
C252 O269 1.289 . S
C253 C252 1.488 . S
C253 C254 1.348 . S
C253 C258 1.413 . S
C254 C253 1.348 . S
C254 C255 1.442 . S
C254 H276 0.930 . S
C255 C254 1.442 . S
C255 C256 1.381 . S
C255 H277 0.931 . S
C256 C255 1.381 . S
C256 C257 1.321 . S
C257 C256 1.321 . S
C257 C258 1.403 . S
C257 H278 0.934 . S
C258 C253 1.413 . S
C258 C257 1.403 . S
C258 H279 0.930 . S
C259 O270 1.275 1_556 S
C259 O271 1.256 . S
O260 Ho240 2.322 . S
O260 C242 1.259 . S
O261 Ho241 2.346 1_556 S
O261 C242 1.268 . S
O262 Ho240 2.378 . S
O262 C243 1.215 . S
O263 Ho240 2.524 . S
O263 C243 1.289 . S
O264 Ho240 2.381 . S
O264 C250 1.275 1_556 S
O265 Ho240 2.669 1_554 S
O265 Ho241 2.305 . S
O265 C250 1.256 . S
O266 Ho241 2.322 . S
O266 C251 1.259 . S
O267 Ho240 2.346 1_554 S
O267 C251 1.268 . S
O268 Ho241 2.378 . S
O268 C252 1.215 . S
O269 Ho241 2.524 . S
O269 C252 1.289 . S
O270 Ho241 2.381 . S
O270 C259 1.275 1_554 S
O271 Ho240 2.305 . S
O271 Ho241 2.669 1_556 S
O271 C259 1.256 . S
H272 C245 0.930 . S
H273 C246 0.931 . S
H274 C248 0.934 . S
H275 C249 0.930 . S
H276 C254 0.930 . S
H277 C255 0.931 . S
H278 C257 0.934 . S
H279 C258 0.930 . S
Ho280 C283 2.811 1_455 S
Ho280 O300 2.322 1_455 S
Ho280 O302 2.378 1_455 S
Ho280 O303 2.524 . S
Ho280 O304 2.381 1_455 S
Ho280 O305 2.669 1_455 S
Ho280 O307 2.346 . S
Ho280 O311 2.305 . S
Ho281 C292 2.811 1_655 S
Ho281 O301 2.346 . S
Ho281 O305 2.305 . S
Ho281 O306 2.322 1_655 S
Ho281 O308 2.378 1_655 S
Ho281 O309 2.524 . S
Ho281 O310 2.381 1_655 S
Ho281 O311 2.669 1_655 S
C282 O300 1.259 . S
C282 O301 1.268 . S
C283 Ho280 2.811 1_655 S
C283 C284 1.488 . S
C283 O302 1.215 . S
C283 O303 1.289 1_655 S
C284 C283 1.488 . S
C284 C285 1.348 . S
C284 C289 1.413 . S
C285 C284 1.348 . S
C285 C286 1.442 . S
C285 H312 0.930 1_655 S
C286 C285 1.442 . S
C286 C287 1.381 . S
C286 H313 0.931 . S
C287 C286 1.381 . S
C287 C288 1.321 . S
C288 C287 1.321 . S
C288 C289 1.403 . S
C288 H314 0.934 . S
C289 C284 1.413 . S
C289 C288 1.403 . S
C289 H315 0.930 . S
C290 O304 1.275 . S
C290 O305 1.256 . S
C291 O306 1.259 . S
C291 O307 1.268 . S
C292 Ho281 2.811 1_455 S
C292 C293 1.488 . S
C292 O308 1.215 . S
C292 O309 1.289 1_455 S
C293 C292 1.488 . S
C293 C294 1.348 . S
C293 C298 1.413 . S
C294 C293 1.348 . S
C294 C295 1.442 . S
C294 H316 0.930 1_455 S
C295 C294 1.442 . S
C295 C296 1.381 . S
C295 H317 0.931 . S
C296 C295 1.381 . S
C296 C297 1.321 . S
C297 C296 1.321 . S
C297 C298 1.403 . S
C297 H318 0.934 . S
C298 C293 1.413 . S
C298 C297 1.403 . S
C298 H319 0.930 . S
C299 O310 1.275 . S
C299 O311 1.256 . S
O300 Ho280 2.322 1_655 S
O300 C282 1.259 . S
O301 Ho281 2.346 . S
O301 C282 1.268 . S
O302 Ho280 2.378 1_655 S
O302 C283 1.215 . S
O303 Ho280 2.524 . S
O303 C283 1.289 1_455 S
O304 Ho280 2.381 1_655 S
O304 C290 1.275 . S
O305 Ho280 2.669 1_655 S
O305 Ho281 2.305 . S
O305 C290 1.256 . S
O306 Ho281 2.322 1_455 S
O306 C291 1.259 . S
O307 Ho280 2.346 . S
O307 C291 1.268 . S
O308 Ho281 2.378 1_455 S
O308 C292 1.215 . S
O309 Ho281 2.524 . S
O309 C292 1.289 1_655 S
O310 Ho281 2.381 1_455 S
O310 C299 1.275 . S
O311 Ho280 2.305 . S
O311 Ho281 2.669 1_455 S
O311 C299 1.256 . S
H312 C285 0.930 1_455 S
H313 C286 0.931 . S
H314 C288 0.934 . S
H315 C289 0.930 . S
H316 C294 0.930 1_655 S
H317 C295 0.931 . S
H318 C297 0.934 . S
H319 C298 0.930 . S
C320 C321 1.369 . S
C320 C322 1.419 . S
C320 H324 0.930 . S
C321 C320 1.369 . S
C321 C330 1.429 . S
C322 C320 1.419 . S
C322 C323 1.363 . S
C322 H325 0.929 . S
C323 C322 1.363 . S
C323 C329 1.428 . S
H324 C320 0.930 . S
H325 C322 0.929 . S
S326 N327 1.613 . S
S326 N328 1.610 . S
N327 S326 1.613 . S
N327 C330 1.350 . S
N328 S326 1.610 . S
N328 C329 1.351 . S
C329 C323 1.428 . S
C329 N328 1.351 . S
C329 C330 1.434 . S
C330 C321 1.429 . S
C330 N327 1.350 . S
C330 C329 1.434 . S
C331 C332 1.369 . S
C331 C333 1.419 . S
C331 H335 0.930 . S
C332 C331 1.369 . S
C332 C341 1.429 . S
C333 C331 1.419 . S
C333 C334 1.363 . S
C333 H336 0.929 . S
C334 C333 1.363 . S
C334 C340 1.428 . S
H335 C331 0.930 . S
H336 C333 0.929 . S
S337 N338 1.613 . S
S337 N339 1.610 . S
N338 S337 1.613 . S
N338 C341 1.350 . S
N339 S337 1.610 . S
N339 C340 1.351 . S
C340 C334 1.428 . S
C340 N339 1.351 . S
C340 C341 1.434 . S
C341 C332 1.429 . S
C341 N338 1.350 . S
C341 C340 1.434 . S
C342 C343 1.369 . S
C342 C344 1.419 . S
C342 H346 0.930 . S
C343 C342 1.369 . S
C343 C352 1.429 . S
C344 C342 1.419 . S
C344 C345 1.363 . S
C344 H347 0.929 . S
C345 C344 1.363 . S
C345 C351 1.428 . S
H346 C342 0.930 . S
H347 C344 0.929 . S
S348 N349 1.613 . S
S348 N350 1.610 . S
N349 S348 1.613 . S
N349 C352 1.350 . S
N350 S348 1.610 . S
N350 C351 1.351 . S
C351 C345 1.428 . S
C351 N350 1.351 . S
C351 C352 1.434 . S
C352 C343 1.429 . S
C352 N349 1.350 . S
C352 C351 1.434 . S
C353 C354 1.369 . S
C353 C355 1.419 . S
C353 H357 0.930 . S
C354 C353 1.369 . S
C354 C363 1.429 . S
C355 C353 1.419 . S
C355 C356 1.363 . S
C355 H358 0.929 . S
C356 C355 1.363 . S
C356 C362 1.428 . S
H357 C353 0.930 . S
H358 C355 0.929 . S
S359 N360 1.613 . S
S359 N361 1.610 . S
N360 S359 1.613 . S
N360 C363 1.350 . S
N361 S359 1.610 . S
N361 C362 1.351 . S
C362 C356 1.428 . S
C362 N361 1.351 . S
C362 C363 1.434 . S
C363 C354 1.429 . S
C363 N360 1.350 . S
C363 C362 1.434 . S
C364 C365 1.369 . S
C364 C366 1.419 . S
C364 H368 0.930 . S
C365 C364 1.369 . S
C365 C374 1.429 . S
C366 C364 1.419 . S
C366 C367 1.363 . S
C366 H369 0.929 . S
C367 C366 1.363 . S
C367 C373 1.428 . S
H368 C364 0.930 . S
H369 C366 0.929 . S
S370 N371 1.613 . S
S370 N372 1.610 . S
N371 S370 1.613 . S
N371 C374 1.350 . S
N372 S370 1.610 . S
N372 C373 1.351 . S
C373 C367 1.428 . S
C373 N372 1.351 . S
C373 C374 1.434 . S
C374 C365 1.429 . S
C374 N371 1.350 . S
C374 C373 1.434 . S
C375 C376 1.369 . S
C375 C377 1.419 . S
C375 H379 0.930 . S
C376 C375 1.369 . S
C376 C385 1.429 . S
C377 C375 1.419 . S
C377 C378 1.363 . S
C377 H380 0.929 . S
C378 C377 1.363 . S
C378 C384 1.428 . S
H379 C375 0.930 . S
H380 C377 0.929 . S
S381 N382 1.613 . S
S381 N383 1.610 . S
N382 S381 1.613 . S
N382 C385 1.350 . S
N383 S381 1.610 . S
N383 C384 1.351 . S
C384 C378 1.428 . S
C384 N383 1.351 . S
C384 C385 1.434 . S
C385 C376 1.429 . S
C385 N382 1.350 . S
C385 C384 1.434 . S
C386 C387 1.369 . S
C386 C388 1.419 . S
C386 H390 0.930 . S
C387 C386 1.369 . S
C387 C396 1.429 . S
C388 C386 1.419 . S
C388 C389 1.363 . S
C388 H391 0.929 . S
C389 C388 1.363 . S
C389 C395 1.428 . S
H390 C386 0.930 . S
H391 C388 0.929 . S
S392 N393 1.613 1_556 S
S392 N394 1.610 . S
N393 S392 1.613 1_554 S
N393 C396 1.350 . S
N394 S392 1.610 . S
N394 C395 1.351 1_556 S
C395 C389 1.428 . S
C395 N394 1.351 1_554 S
C395 C396 1.434 . S
C396 C387 1.429 . S
C396 N393 1.350 . S
C396 C395 1.434 . S
C397 C398 1.369 . S
C397 C399 1.419 . S
C397 H401 0.930 . S
C398 C397 1.369 . S
C398 C407 1.429 . S
C399 C397 1.419 . S
C399 C400 1.363 . S
C399 H402 0.929 . S
C400 C399 1.363 . S
C400 C406 1.428 . S
H401 C397 0.930 . S
H402 C399 0.929 . S
S403 N404 1.613 . S
S403 N405 1.610 . S
N404 S403 1.613 . S
N404 C407 1.350 . S
N405 S403 1.610 . S
N405 C406 1.351 . S
C406 C400 1.428 . S
C406 N405 1.351 . S
C406 C407 1.434 . S
C407 C398 1.429 . S
C407 N404 1.350 . S
C407 C406 1.434 . S
C408 C409 1.369 . S
C408 C410 1.419 . S
C408 H412 0.930 . S
C409 C408 1.369 . S
C409 C418 1.429 . S
C410 C408 1.419 . S
C410 C411 1.363 . S
C410 H413 0.929 . S
C411 C410 1.363 . S
C411 C417 1.428 . S
H412 C408 0.930 . S
H413 C410 0.929 . S
S414 N415 1.613 . S
S414 N416 1.610 . S
N415 S414 1.613 . S
N415 C418 1.350 . S
N416 S414 1.610 . S
N416 C417 1.351 . S
C417 C411 1.428 . S
C417 N416 1.351 . S
C417 C418 1.434 . S
C418 C409 1.429 . S
C418 N415 1.350 . S
C418 C417 1.434 . S
C419 C420 1.369 . S
C419 C421 1.419 . S
C419 H423 0.930 . S
C420 C419 1.369 . S
C420 C429 1.429 . S
C421 C419 1.419 . S
C421 C422 1.363 . S
C421 H424 0.929 . S
C422 C421 1.363 . S
C422 C428 1.428 . S
H423 C419 0.930 . S
H424 C421 0.929 . S
S425 N426 1.613 . S
S425 N427 1.610 . S
N426 S425 1.613 . S
N426 C429 1.350 . S
N427 S425 1.610 . S
N427 C428 1.351 . S
C428 C422 1.428 . S
C428 N427 1.351 . S
C428 C429 1.434 . S
C429 C420 1.429 . S
C429 N426 1.350 . S
C429 C428 1.434 . S
C430 C431 1.369 . S
C430 C432 1.419 . S
C430 H434 0.930 . S
C431 C430 1.369 . S
C431 C440 1.429 . S
C432 C430 1.419 . S
C432 C433 1.363 . S
C432 H435 0.929 . S
C433 C432 1.363 . S
C433 C439 1.428 . S
H434 C430 0.930 . S
H435 C432 0.929 . S
S436 N437 1.613 . S
S436 N438 1.610 . S
N437 S436 1.613 . S
N437 C440 1.350 . S
N438 S436 1.610 . S
N438 C439 1.351 . S
C439 C433 1.428 . S
C439 N438 1.351 . S
C439 C440 1.434 . S
C440 C431 1.429 . S
C440 N437 1.350 . S
C440 C439 1.434 . S
C441 C442 1.369 . S
C441 C443 1.419 . S
C441 H445 0.930 . S
C442 C441 1.369 . S
C442 C451 1.429 . S
C443 C441 1.419 . S
C443 C444 1.363 . S
C443 H446 0.929 . S
C444 C443 1.363 . S
C444 C450 1.428 . S
H445 C441 0.930 . S
H446 C443 0.929 . S
S447 N448 1.613 . S
S447 N449 1.610 . S
N448 S447 1.613 . S
N448 C451 1.350 . S
N449 S447 1.610 . S
N449 C450 1.351 . S
C450 C444 1.428 . S
C450 N449 1.351 . S
C450 C451 1.434 . S
C451 C442 1.429 . S
C451 N448 1.350 . S
C451 C450 1.434 . S
C452 C453 1.369 . S
C452 C454 1.419 . S
C452 H456 0.930 . S
C453 C452 1.369 . S
C453 C462 1.429 . S
C454 C452 1.419 . S
C454 C455 1.363 . S
C454 H457 0.929 . S
C455 C454 1.363 . S
C455 C461 1.428 . S
H456 C452 0.930 . S
H457 C454 0.929 . S
S458 N459 1.613 . S
S458 N460 1.610 . S
N459 S458 1.613 . S
N459 C462 1.350 . S
N460 S458 1.610 . S
N460 C461 1.351 . S
C461 C455 1.428 . S
C461 N460 1.351 . S
C461 C462 1.434 . S
C462 C453 1.429 . S
C462 N459 1.350 . S
C462 C461 1.434 . S
C463 C464 1.369 . S
C463 C465 1.419 . S
C463 H467 0.930 . S
C464 C463 1.369 . S
C464 C473 1.429 . S
C465 C463 1.419 . S
C465 C466 1.363 . S
C465 H468 0.929 . S
C466 C465 1.363 . S
C466 C472 1.428 . S
H467 C463 0.930 . S
H468 C465 0.929 . S
S469 N470 1.613 . S
S469 N471 1.610 . S
N470 S469 1.613 . S
N470 C473 1.350 . S
N471 S469 1.610 . S
N471 C472 1.351 . S
C472 C466 1.428 . S
C472 N471 1.351 . S
C472 C473 1.434 . S
C473 C464 1.429 . S
C473 N470 1.350 . S
C473 C472 1.434 . S
C474 C475 1.369 . S
C474 C476 1.419 . S
C474 H478 0.930 . S
C475 C474 1.369 . S
C475 C484 1.429 . S
C476 C474 1.419 . S
C476 C477 1.363 . S
C476 H479 0.929 . S
C477 C476 1.363 . S
C477 C483 1.428 . S
H478 C474 0.930 . S
H479 C476 0.929 . S
S480 N481 1.613 . S
S480 N482 1.610 . S
N481 S480 1.613 . S
N481 C484 1.350 . S
N482 S480 1.610 . S
N482 C483 1.351 . S
C483 C477 1.428 . S
C483 N482 1.351 . S
C483 C484 1.434 . S
C484 C475 1.429 . S
C484 N481 1.350 . S
C484 C483 1.434 . S
C485 C486 1.369 . S
C485 C487 1.419 . S
C485 H489 0.930 . S
C486 C485 1.369 . S
C486 C495 1.429 . S
C487 C485 1.419 . S
C487 C488 1.363 . S
C487 H490 0.929 . S
C488 C487 1.363 . S
C488 C494 1.428 . S
H489 C485 0.930 . S
H490 C487 0.929 . S
S491 N492 1.613 . S
S491 N493 1.610 . S
N492 S491 1.613 . S
N492 C495 1.350 . S
N493 S491 1.610 . S
N493 C494 1.351 . S
C494 C488 1.428 . S
C494 N493 1.351 . S
C494 C495 1.434 . S
C495 C486 1.429 . S
C495 N492 1.350 . S
C495 C494 1.434 . S
C496 C497 1.369 . S
C496 C498 1.419 1_556 S
C496 H500 0.930 . S
C497 C496 1.369 . S
C497 C506 1.429 1_645 S
C498 C496 1.419 1_554 S
C498 C499 1.363 1_645 S
C498 H501 0.929 . S
C499 C498 1.363 1_465 S
C499 C505 1.428 . S
H500 C496 0.930 . S
H501 C498 0.929 . S
S502 N503 1.613 . S
S502 N504 1.610 1_556 S
N503 S502 1.613 . S
N503 C506 1.350 . S
N504 S502 1.610 1_554 S
N504 C505 1.351 . S
C505 C499 1.428 . S
C505 N504 1.351 . S
C505 C506 1.434 1_554 S
C506 C497 1.429 1_465 S
C506 N503 1.350 . S
C506 C505 1.434 1_556 S
C507 C508 1.369 . S
C507 C509 1.419 . S
C507 H511 0.930 . S
C508 C507 1.369 . S
C508 C517 1.429 . S
C509 C507 1.419 . S
C509 C510 1.363 . S
C509 H512 0.929 . S
C510 C509 1.363 . S
C510 C516 1.428 . S
H511 C507 0.930 . S
H512 C509 0.929 . S
S513 N514 1.613 . S
S513 N515 1.610 . S
N514 S513 1.613 . S
N514 C517 1.350 . S
N515 S513 1.610 . S
N515 C516 1.351 . S
C516 C510 1.428 . S
C516 N515 1.351 . S
C516 C517 1.434 . S
C517 C508 1.429 . S
C517 N514 1.350 . S
C517 C516 1.434 . S
C518 C519 1.369 1_565 S
C518 C520 1.419 . S
C518 H522 0.930 . S
C519 C518 1.369 1_545 S
C519 C528 1.429 . S
C520 C518 1.419 . S
C520 C521 1.363 . S
C520 H523 0.929 . S
C521 C520 1.363 . S
C521 C527 1.428 1_565 S
H522 C518 0.930 . S
H523 C520 0.929 . S
S524 N525 1.613 . S
S524 N526 1.610 . S
N525 S524 1.613 . S
N525 C528 1.350 . S
N526 S524 1.610 . S
N526 C527 1.351 . S
C527 C521 1.428 1_545 S
C527 N526 1.351 . S
C527 C528 1.434 . S
C528 C519 1.429 . S
C528 N525 1.350 . S
C528 C527 1.434 . S
C529 C530 1.369 . S
C529 C531 1.419 . S
C529 H533 0.930 . S
C530 C529 1.369 . S
C530 C539 1.429 . S
C531 C529 1.419 . S
C531 C532 1.363 . S
C531 H534 0.929 . S
C532 C531 1.363 . S
C532 C538 1.428 . S
H533 C529 0.930 . S
H534 C531 0.929 . S
S535 N536 1.613 . S
S535 N537 1.610 . S
N536 S535 1.613 . S
N536 C539 1.350 . S
N537 S535 1.610 . S
N537 C538 1.351 . S
C538 C532 1.428 . S
C538 N537 1.351 . S
C538 C539 1.434 . S
C539 C530 1.429 . S
C539 N536 1.350 . S
C539 C538 1.434 . S
C540 C541 1.369 . S
C540 C542 1.419 . S
C540 H544 0.930 . S
C541 C540 1.369 . S
C541 C550 1.429 . S
C542 C540 1.419 . S
C542 C543 1.363 . S
C542 H545 0.929 . S
C543 C542 1.363 . S
C543 C549 1.428 . S
H544 C540 0.930 . S
H545 C542 0.929 . S
S546 N547 1.613 . S
S546 N548 1.610 . S
N547 S546 1.613 . S
N547 C550 1.350 . S
N548 S546 1.610 . S
N548 C549 1.351 . S
C549 C543 1.428 . S
C549 N548 1.351 . S
C549 C550 1.434 . S
C550 C541 1.429 . S
C550 N547 1.350 . S
C550 C549 1.434 . S
C551 C552 1.369 . S
C551 C553 1.419 . S
C551 H555 0.930 . S
C552 C551 1.369 . S
C552 C561 1.429 . S
C553 C551 1.419 . S
C553 C554 1.363 . S
C553 H556 0.929 . S
C554 C553 1.363 . S
C554 C560 1.428 . S
H555 C551 0.930 . S
H556 C553 0.929 . S
S557 N558 1.613 . S
S557 N559 1.610 . S
N558 S557 1.613 . S
N558 C561 1.350 . S
N559 S557 1.610 . S
N559 C560 1.351 . S
C560 C554 1.428 . S
C560 N559 1.351 . S
C560 C561 1.434 . S
C561 C552 1.429 . S
C561 N558 1.350 . S
C561 C560 1.434 . S
C562 C563 1.369 . S
C562 C564 1.419 . S
C562 H566 0.930 . S
C563 C562 1.369 . S
C563 C572 1.429 . S
C564 C562 1.419 . S
C564 C565 1.363 . S
C564 H567 0.929 . S
C565 C564 1.363 . S
C565 C571 1.428 . S
H566 C562 0.930 . S
H567 C564 0.929 . S
S568 N569 1.613 . S
S568 N570 1.610 . S
N569 S568 1.613 . S
N569 C572 1.350 . S
N570 S568 1.610 . S
N570 C571 1.351 . S
C571 C565 1.428 . S
C571 N570 1.351 . S
C571 C572 1.434 . S
C572 C563 1.429 . S
C572 N569 1.350 . S
C572 C571 1.434 . S
C573 C574 1.369 . S
C573 C575 1.419 1_556 S
C573 H577 0.930 . S
C574 C573 1.369 . S
C574 C583 1.429 1_656 S
C575 C573 1.419 1_554 S
C575 C576 1.363 1_655 S
C575 H578 0.930 1_554 S
C576 C575 1.363 1_455 S
C576 C582 1.428 . S
H577 C573 0.930 . S
H578 C575 0.930 1_556 S
S579 N580 1.613 . S
S579 N581 1.610 . S
N580 S579 1.613 . S
N580 C583 1.350 . S
N581 S579 1.610 . S
N581 C582 1.351 . S
C582 C576 1.428 . S
C582 N581 1.351 . S
C582 C583 1.434 . S
C583 C574 1.429 1_454 S
C583 N580 1.350 . S
C583 C582 1.434 . S
C321 C2 1.563 . S
C323 C130 1.550 . S
C332 C10 1.034 . S
C334 C50 1.035 . S
C343 C42 1.563 . S
C345 C90 1.552 . S
C354 C82 1.981 . S
C356 C122 1.980 . S
C365 C11 1.565 . S
C367 C219 1.550 . S
C376 C19 1.039 . S
C378 C179 1.038 . S
C387 C171 1.565 . S
C389 C99 1.547 . S
C398 C211 1.980 . S
C400 C91 1.981 . S
C409 C242 1.562 . S
C411 C210 1.552 . S
C420 C170 1.034 . S
C422 C250 1.034 . S
C431 C290 1.549 . S
C433 C162 1.564 . S
C442 C202 1.981 . S
C444 C282 1.981 . S
C453 C139 1.551 . S
C455 C251 1.563 . S
C464 C259 1.034 . S
C466 C59 1.035 . S
C475 C51 1.565 . S
C477 C299 1.548 . S
C486 C131 1.980 . S
C488 C291 1.980 . S
C497 C16 1.509 . S
C499 C7 1.518 . S
C508 C56 1.509 . S
C510 C47 1.518 . S
C519 C96 1.898 . S
C521 C87 1.894 . S
C530 C127 1.901 . S
C532 C136 1.892 . S
C541 C176 1.519 . S
C543 C167 1.510 . S
C552 C207 1.900 . S
C554 C216 1.893 . S
C563 C247 1.519 . S
C565 C256 1.510 . S
C574 C287 1.899 . S
C576 C296 1.894 . S
