# Generated by pormake.
# Topology wjf, (4)-cn, num edge types: 1
# Building blocks:
#     Node 0, Type 0, BuildingBlock: QUQFOY_clean_sbu_1, # of connection points: 4
#     Node 1, Type 0, BuildingBlock: QUQFOY_clean_sbu_1, # of connection points: 4
#     Node 2, Type 0, BuildingBlock: QUQFOY_clean_sbu_1, # of connection points: 4
#     Node 3, Type 0, BuildingBlock: QUQFOY_clean_sbu_1, # of connection points: 4
#     Node 4, Type 0, BuildingBlock: QUQFOY_clean_sbu_1, # of connection points: 4
#     Node 5, Type 0, BuildingBlock: QUQFOY_clean_sbu_1, # of connection points: 4
#     Node 6, Type 0, BuildingBlock: QUQFOY_clean_sbu_1, # of connection points: 4
#     Node 7, Type 0, BuildingBlock: QUQFOY_clean_sbu_1, # of connection points: 4
#     Node 8, Type 0, BuildingBlock: QUQFOY_clean_sbu_1, # of connection points: 4
#     Node 9, Type 0, BuildingBlock: QUQFOY_clean_sbu_1, # of connection points: 4
#     Node 10, Type 0, BuildingBlock: QUQFOY_clean_sbu_1, # of connection points: 4
#     Node 11, Type 0, BuildingBlock: QUQFOY_clean_sbu_1, # of connection points: 4
#     Edge 12, Type (0, 0), BuildingBlock: OJICUG_clean_linker_0, # of connection points: 2
#     Edge 13, Type (0, 0), BuildingBlock: OJICUG_clean_linker_0, # of connection points: 2
#     Edge 14, Type (0, 0), BuildingBlock: OJICUG_clean_linker_0, # of connection points: 2
#     Edge 15, Type (0, 0), BuildingBlock: OJICUG_clean_linker_0, # of connection points: 2
#     Edge 16, Type (0, 0), BuildingBlock: OJICUG_clean_linker_0, # of connection points: 2
#     Edge 17, Type (0, 0), BuildingBlock: OJICUG_clean_linker_0, # of connection points: 2
#     Edge 18, Type (0, 0), BuildingBlock: OJICUG_clean_linker_0, # of connection points: 2
#     Edge 19, Type (0, 0), BuildingBlock: OJICUG_clean_linker_0, # of connection points: 2
#     Edge 20, Type (0, 0), BuildingBlock: OJICUG_clean_linker_0, # of connection points: 2
#     Edge 21, Type (0, 0), BuildingBlock: OJICUG_clean_linker_0, # of connection points: 2
#     Edge 22, Type (0, 0), BuildingBlock: OJICUG_clean_linker_0, # of connection points: 2
#     Edge 23, Type (0, 0), BuildingBlock: OJICUG_clean_linker_0, # of connection points: 2
#     Edge 24, Type (0, 0), BuildingBlock: OJICUG_clean_linker_0, # of connection points: 2
#     Edge 25, Type (0, 0), BuildingBlock: OJICUG_clean_linker_0, # of connection points: 2
#     Edge 26, Type (0, 0), BuildingBlock: OJICUG_clean_linker_0, # of connection points: 2
#     Edge 27, Type (0, 0), BuildingBlock: OJICUG_clean_linker_0, # of connection points: 2
#     Edge 28, Type (0, 0), BuildingBlock: OJICUG_clean_linker_0, # of connection points: 2
#     Edge 29, Type (0, 0), BuildingBlock: OJICUG_clean_linker_0, # of connection points: 2
#     Edge 30, Type (0, 0), BuildingBlock: OJICUG_clean_linker_0, # of connection points: 2
#     Edge 31, Type (0, 0), BuildingBlock: OJICUG_clean_linker_0, # of connection points: 2
#     Edge 32, Type (0, 0), BuildingBlock: OJICUG_clean_linker_0, # of connection points: 2
#     Edge 33, Type (0, 0), BuildingBlock: OJICUG_clean_linker_0, # of connection points: 2
#     Edge 34, Type (0, 0), BuildingBlock: OJICUG_clean_linker_0, # of connection points: 2
#     Edge 35, Type (0, 0), BuildingBlock: OJICUG_clean_linker_0, # of connection points: 2
# Relax obj value: 0.016
# Max RMSD: 0.063
# Mean RMSD: 0.063
data_MOF--net-wjf--node1-QUQFOY_clean_sbu_1--edge1-OJICUG_clean_linker_0
_symmetry_space_group_name_H-M    P1
_symmetry_Int_Tables_number       1
_symmetry_cell_setting            triclinic
loop_
_symmetry_equiv_pos_as_xyz
'x, y, z'
_cell_length_a     40.010112
_cell_length_b     39.967524
_cell_length_c     20.814359
_cell_angle_alpha  89.99388
_cell_angle_beta   90.002856
_cell_angle_gamma 120.00294
loop_
_atom_site_label
_atom_site_type_symbol
_atom_site_fract_x
_atom_site_fract_y
_atom_site_fract_z
_atom_type_partial_charge
O0 O 0.34034 0.39317 0.97108 0.0
Cd1 Cd 0.34717 0.42704 0.04955 0.0
Cd2 Cd 0.35851 0.37192 0.10328 0.0
O3 O 0.33389 0.34131 1.02011 0.0
O4 O 0.32621 0.46036 1.01902 0.0
O5 O 0.29693 0.4138 0.09126 0.0
C6 C 0.29629 0.43933 0.05393 0.0
C7 C 0.33996 0.34764 0.20692 0.0
C8 C 0.33212 0.3581 0.9694 0.0
C9 C 0.42693 0.45164 0.09322 0.0
O10 O 0.41509 0.41571 0.09709 0.0
O11 O 0.40307 0.46331 0.08234 0.0
O12 O 0.35875 0.33656 0.1706 0.0
O13 O 0.32927 0.37057 0.18246 0.0
O14 O 0.95436 0.33098 0.33558 0.0
Cd15 Cd 0.92484 0.34272 0.40428 0.0
Cd16 Cd 0.99332 0.35628 0.46812 0.0
O17 O 1.00378 0.33349 0.38708 0.0
O18 O 0.87612 0.32603 0.35481 0.0
O19 O 0.8781 0.29758 0.44455 0.0
C20 C 0.85872 0.29834 0.39548 0.0
C21 C 1.0004 0.33915 0.57238 0.0
C22 C 0.98396 0.32709 0.33619 0.0
C23 C 0.98066 0.42402 0.44542 0.0
O24 O 1.00374 0.41197 0.45941 0.0
O25 O 0.94615 0.40048 0.42789 0.0
O26 O 0.02993 0.35971 0.53633 0.0
O27 O 0.96649 0.32632 0.5477 0.0
O28 O 0.62971 0.95053 0.65185 0.0
Cd29 Cd 0.58825 0.92176 0.72067 0.0
Cd30 Cd 0.64318 0.99067 0.7835 0.0
O31 O 0.67696 0.99979 0.7031 0.0
O32 O 0.55611 0.87272 0.67202 0.0
O33 O 0.58652 0.87518 0.76199 0.0
C34 C 0.56643 0.85553 0.71305 0.0
C35 C 0.66565 0.9973 0.8891 0.0
C36 C 0.66351 0.97967 0.65241 0.0
C37 C 0.56305 0.97818 0.75944 0.0
O38 O 0.59826 1.00148 0.77268 0.0
O39 O 0.55198 0.94339 0.74336 0.0
O40 O 0.67582 0.027 0.85274 0.0
O41 O 0.6445 0.96346 0.86403 0.0
O42 O 0.67797 0.61965 0.97238 0.0
Cd43 Cd 0.67116 0.58554 0.05049 0.0
Cd44 Cd 0.65963 0.64053 0.10483 0.0
O45 O 0.6841 0.6713 1.02172 0.0
O46 O 0.69209 0.55232 1.01933 0.0
O47 O 0.7214 0.59859 0.09201 0.0
C48 C 0.72202 0.57319 0.05432 0.0
C49 C 0.67805 0.66488 0.20849 0.0
C50 C 0.686 0.65467 0.97091 0.0
C51 C 0.59133 0.56067 0.09412 0.0
O52 O 0.60313 0.59658 0.09852 0.0
O53 O 0.61522 0.54909 0.08294 0.0
O54 O 0.65911 0.67576 0.17212 0.0
O55 O 0.68893 0.64209 0.1841 0.0
O56 O 0.06416 0.68166 0.33385 0.0
Cd57 Cd 0.09349 0.66998 0.40303 0.0
Cd58 Cd 0.02507 0.65666 0.46623 0.0
O59 O 0.01487 0.67958 0.38507 0.0
O60 O 0.1424 0.68671 0.35416 0.0
O61 O 0.14 0.71519 0.44358 0.0
C62 C 0.1596 0.71445 0.39482 0.0
C63 C 0.0181 0.6739 0.57045 0.0
C64 C 0.0347 0.68577 0.33424 0.0
C65 C 0.03754 0.58878 0.44434 0.0
O66 O 0.01443 0.60089 0.45774 0.0
O67 O 0.07213 0.61228 0.42711 0.0
O68 O 0.98854 0.65347 0.53439 0.0
O69 O 0.052 0.68657 0.54577 0.0
O70 O 0.38794 0.06215 0.65258 0.0
Cd71 Cd 0.42951 0.09098 0.7212 0.0
Cd72 Cd 0.37462 0.02202 0.78423 0.0
O73 O 0.34078 0.01283 0.70389 0.0
O74 O 0.46163 0.1399 0.67222 0.0
O75 O 0.43142 0.1377 0.76229 0.0
C76 C 0.45144 0.15722 0.7132 0.0
C77 C 0.3522 0.01542 0.88985 0.0
C78 C 0.35416 0.03297 0.6532 0.0
C79 C 0.45476 0.03455 0.75987 0.0
O80 O 0.41957 0.01126 0.7733 0.0
O81 O 0.46579 0.06932 0.74371 0.0
O82 O 0.34205 0.98571 0.85354 0.0
O83 O 0.37332 0.04925 0.86472 0.0
O84 O 0.62881 0.68157 0.71884 0.0
Cd85 Cd 0.58792 0.66998 0.64951 0.0
Cd86 Cd 0.64303 0.65675 0.58644 0.0
O87 O 0.67613 0.67971 0.66759 0.0
O88 O 0.55578 0.68688 0.69812 0.0
O89 O 0.58687 0.71531 0.60883 0.0
C90 C 0.56652 0.71467 0.6575 0.0
C91 C 0.66722 0.67401 0.48221 0.0
C92 C 0.66242 0.68578 0.71845 0.0
C93 C 0.56278 0.5888 0.60828 0.0
O94 O 0.59801 0.60095 0.59496 0.0
O95 O 0.55161 0.61227 0.62541 0.0
O96 O 0.67641 0.65361 0.51829 0.0
O97 O 0.64594 0.68663 0.50688 0.0
O98 O 0.95325 0.61949 0.08028 0.0
Cd99 Cd 0.92609 0.58541 1.00209 0.0
Cd100 Cd 0.99246 0.64046 0.94786 0.0
O101 O 0.99863 0.6712 0.03096 0.0
O102 O 0.87192 0.55217 0.03302 0.0
O103 O 0.88896 0.59851 0.96042 0.0
C104 C 0.86291 0.57309 0.99801 0.0
C105 C 0.99826 0.66476 0.84419 0.0
C106 C 0.98013 0.65453 0.08176 0.0
C107 C 0.9812 0.56069 0.95857 0.0
O108 O 1.00521 0.59661 0.95421 0.0
O109 O 0.94571 0.54904 0.96969 0.0
O110 O 0.02809 0.67574 0.88052 0.0
O111 O 0.96464 0.64189 0.86863 0.0
O112 O 0.33233 0.9495 0.40179 0.0
Cd113 Cd 0.34521 0.92108 0.33258 0.0
Cd114 Cd 0.35856 0.98969 0.27024 0.0
O115 O 0.33362 0.99847 0.35063 0.0
O116 O 0.32839 0.87186 0.3806 0.0
O117 O 0.30043 0.87468 0.29087 0.0
C118 C 0.30088 0.85485 0.33955 0.0
C119 C 0.34249 0.99598 0.16463 0.0
C120 C 0.32725 0.9784 0.40131 0.0
C121 C 0.42664 0.97789 0.29398 0.0
O122 O 0.41446 1.00103 0.28104 0.0
O123 O 0.40312 0.943 0.3098 0.0
O124 O 0.36177 0.02577 0.2009 0.0
O125 O 0.33019 0.96222 0.1898 0.0
O126 O 0.38891 0.33101 0.71737 0.0
Cd127 Cd 0.42999 0.34268 0.64837 0.0
Cd128 Cd 0.37503 0.3561 0.58494 0.0
O129 O 0.3418 0.33319 0.66597 0.0
O130 O 0.46202 0.3258 0.6974 0.0
O131 O 0.43125 0.2974 0.60789 0.0
C132 C 0.45145 0.29804 0.65678 0.0
C133 C 0.3509 0.33887 0.48068 0.0
C134 C 0.35536 0.32694 0.71685 0.0
C135 C 0.4553 0.42396 0.60737 0.0
O136 O 0.42012 0.41185 0.59365 0.0
O137 O 0.46638 0.40044 0.62465 0.0
O138 O 0.34178 0.35935 0.51667 0.0
O139 O 0.3721 0.32618 0.50543 0.0
O140 O 0.06525 0.39362 0.08202 0.0
Cd141 Cd 0.09223 0.42742 1.00346 0.0
Cd142 Cd 0.02594 0.37225 0.94976 0.0
O143 O 0.02004 0.34168 0.03298 0.0
O144 O 0.14653 0.46069 0.03374 0.0
O145 O 0.12909 0.41401 0.96167 0.0
C146 C 0.15532 0.43956 0.99887 0.0
C147 C 0.02026 0.34798 0.84612 0.0
C148 C 0.03852 0.35852 0.08371 0.0
C149 C 0.037 0.45191 0.9597 0.0
O150 O 0.01299 0.41597 0.9559 0.0
O151 O 0.07252 0.46364 0.97056 0.0
O152 O 0.9904 0.33684 0.88246 0.0
O153 O 0.05385 0.37096 0.87056 0.0
O154 O 0.68571 0.0634 0.40115 0.0
Cd155 Cd 0.67292 0.09199 0.33211 0.0
Cd156 Cd 0.65944 0.02336 0.26946 0.0
O157 O 0.68427 0.01441 0.34983 0.0
O158 O 0.6898 0.14114 0.38038 0.0
O159 O 0.71776 0.13843 0.29059 0.0
C160 C 0.71734 0.15819 0.33939 0.0
C161 C 0.6754 0.01693 0.16384 0.0
C162 C 0.69068 0.03444 0.40057 0.0
C163 C 0.59146 0.03532 0.29351 0.0
O164 O 0.60359 0.01218 0.28035 0.0
O165 O 0.61501 0.07018 0.30945 0.0
O166 O 0.65605 0.98718 0.20017 0.0
O167 O 0.68783 0.05072 0.18896 0.0
C168 C 0.35198 0.3178 0.30367 0.0
C169 C 0.3354 0.33836 0.27648 0.0
H170 H 0.36963 0.3015 0.3897 0.0
C171 C 0.31902 0.35419 0.31749 0.0
H172 H 0.36471 0.30506 0.27347 0.0
C173 C 0.32179 0.35206 0.38421 0.0
C174 C 0.34107 0.33412 0.41134 0.0
H175 H 0.30587 0.37005 0.29818 0.0
H176 H 0.3106 0.3663 0.41437 0.0
C177 C 0.35484 0.31575 0.3704 0.0
C178 C 0.04278 0.35251 0.66878 0.0
C179 C 1.00557 0.33444 0.64171 0.0
H180 H 0.07672 0.37062 0.75475 0.0
C181 C 0.97348 0.31595 0.68271 0.0
H182 H 0.06817 0.36685 0.63858 0.0
C183 C 0.97842 0.31801 0.74943 0.0
C184 C 0.01555 0.3387 0.77656 0.0
H185 H 0.94444 0.30159 0.66346 0.0
H186 H 0.95298 0.30518 0.77967 0.0
C187 C 0.04772 0.35466 0.73549 0.0
C188 C 0.65959 0.97002 0.99996 0.0
C189 C 0.67442 1.00223 0.95893 0.0
H190 H 0.64872 0.9494 0.0969 0.0
C191 C 0.694 0.03943 0.9862 0.0
H192 H 0.64447 0.94098 0.98062 0.0
C193 C 0.69639 0.0443 0.05298 0.0
C194 C 0.6793 0.01207 0.09401 0.0
H195 H 0.70594 0.06492 0.95604 0.0
H196 H 0.71005 0.07333 0.07232 0.0
C197 C 0.66203 0.97489 0.06673 0.0
C198 C 0.69912 0.6586 0.31912 0.0
C199 C 0.6826 0.67425 0.27802 0.0
H200 H 0.7077 0.64674 0.41606 0.0
C201 C 0.66591 0.69473 0.3051 0.0
H202 H 0.71236 0.64282 0.29989 0.0
C203 C 0.6631 0.69689 0.37182 0.0
C204 C 0.67701 0.67869 0.41286 0.0
H205 H 0.65307 0.70733 0.27482 0.0
H206 H 0.64821 0.71107 0.39103 0.0
C207 C 0.6964 0.66084 0.38583 0.0
C208 C 0.97083 0.65838 0.73359 0.0
C209 C 1.00301 0.67412 0.77466 0.0
H210 H 0.95037 0.64644 0.63667 0.0
C211 C 0.04015 0.6947 0.74753 0.0
H212 H 0.94184 0.64251 0.75286 0.0
C213 C 0.04508 0.69686 0.6808 0.0
C214 C 0.01298 0.67857 0.63981 0.0
H215 H 0.06559 0.70738 0.77777 0.0
H216 H 0.07413 0.71111 0.66156 0.0
C217 C 0.97577 0.66062 0.66688 0.0
C218 C 0.32155 0.96851 0.05382 0.0
C219 C 0.33857 1.00077 0.09478 0.0
H220 H 0.31205 0.94783 0.95693 0.0
C221 C 0.35575 0.03793 0.06742 0.0
H222 H 0.30796 0.9395 0.07323 0.0
C223 C 0.35819 0.04275 1.00063 0.0
C224 C 0.34344 0.01052 0.95968 0.0
H225 H 0.36901 0.06345 0.09753 0.0
H226 H 0.37325 0.07179 0.98123 0.0
C227 C 0.32393 0.97334 0.98703 0.0
C228 C 0.19194 0.40543 1.01753 0.0
C229 C 0.19216 0.4404 1.00941 0.0
H230 H 0.22461 0.37797 0.04112 0.0
C231 C 0.22675 0.47542 1.01866 0.0
H232 H 0.16545 0.37806 1.01192 0.0
C233 C 0.26087 0.47536 0.03394 0.0
C234 C 0.26035 0.44029 0.04334 0.0
H235 H 0.22743 0.50272 1.01348 0.0
H236 H 0.28753 0.50262 0.03899 0.0
C237 C 0.22557 0.40538 0.03538 0.0
C238 C 0.79534 0.2428 0.43127 0.0
C239 C 0.81957 0.2659 0.38158 0.0
H240 H 0.74316 0.19117 0.45649 0.0
C241 C 0.80786 0.25531 0.31745 0.0
H242 H 0.8037 0.25024 0.48103 0.0
C243 C 0.77377 0.22094 0.30328 0.0
C244 C 0.75015 0.1972 0.353 0.0
H245 H 0.82615 0.27243 0.2781 0.0
H246 H 0.76644 0.21243 0.25355 0.0
C247 C 0.76064 0.20909 0.41709 0.0
C248 C 0.55886 0.8046 0.63539 0.0
C249 C 0.56003 0.81643 0.69946 0.0
H250 H 0.56063 0.76328 0.57164 0.0
C251 C 0.55939 0.79247 0.74926 0.0
H252 H 0.55968 0.82269 0.59595 0.0
C253 C 0.5588 0.75792 0.73521 0.0
C254 C 0.56011 0.74735 0.67114 0.0
H255 H 0.5604 0.80094 0.79898 0.0
H256 H 0.55957 0.74062 0.77464 0.0
C257 C 0.55953 0.77069 0.62135 0.0
C258 C 0.75743 0.5372 0.03389 0.0
C259 C 0.75794 0.57225 0.0434 0.0
H260 H 0.79087 0.50988 1.01308 0.0
C261 C 0.79268 0.60718 0.03522 0.0
H262 H 0.7308 0.50993 0.03911 0.0
C263 C 0.82628 0.60716 1.01706 0.0
C264 C 0.82607 0.57221 1.00885 0.0
H265 H 0.79363 0.63458 0.04103 0.0
H266 H 0.85274 0.63454 1.01129 0.0
C267 C 0.79153 0.53717 1.01831 0.0
C268 C 0.22281 0.77006 0.43099 0.0
C269 C 0.19874 0.74695 0.38116 0.0
H270 H 0.27485 0.82176 0.45651 0.0
C271 C 0.2106 0.75761 0.3171 0.0
H272 H 0.21433 0.76257 0.4807 0.0
C273 C 0.24466 0.79205 0.30313 0.0
C274 C 0.26811 0.81579 0.35299 0.0
H275 H 0.19242 0.74049 0.27765 0.0
H276 H 0.25209 0.80062 0.25344 0.0
C277 C 0.25749 0.80384 0.41702 0.0
C278 C 0.45851 0.22034 0.74905 0.0
C279 C 0.45789 0.19632 0.6994 0.0
H280 H 0.45833 0.27223 0.77412 0.0
C281 C 0.45912 0.20808 0.63526 0.0
H282 H 0.45747 0.21193 0.79882 0.0
C283 C 0.45847 0.24198 0.62102 0.0
C284 C 0.45786 0.26538 0.67066 0.0
H285 H 0.45831 0.18994 0.59592 0.0
H286 H 0.45741 0.24933 0.57125 0.0
C287 C 0.45913 0.25488 0.7348 0.0
C288 C 0.31748 0.34366 0.79142 0.0
C289 C 0.33636 0.32271 0.77929 0.0
H290 H 0.30133 0.3715 0.86273 0.0
C291 C 0.34525 0.30589 0.83106 0.0
H292 H 0.31034 0.35696 0.75245 0.0
C293 C 0.33971 0.31386 0.89424 0.0
C294 C 0.32586 0.3393 0.90622 0.0
H295 H 0.35963 0.2894 0.82282 0.0
H296 H 0.34992 0.30333 0.9332 0.0
C297 C 0.31262 0.35223 0.85455 0.0
C298 C 0.03865 0.34407 0.26172 0.0
C299 C 0.99885 0.32296 0.27378 0.0
H300 H 0.08264 0.37211 0.1905 0.0
C301 C 0.97321 0.30607 0.22195 0.0
H302 H 0.05903 0.35743 0.30073 0.0
C303 C 0.98676 0.31411 0.15881 0.0
C304 C 0.026 0.3397 0.1469 0.0
H305 H 0.94236 0.28944 0.23013 0.0
H306 H 0.96606 0.30351 0.1198 0.0
C307 C 0.05211 0.35272 0.19861 0.0
C308 C 0.67275 0.96744 0.53822 0.0
C309 C 0.68335 0.99342 0.59006 0.0
H310 H 0.66788 0.96033 0.43609 0.0
C311 C 0.70564 0.03318 0.57797 0.0
H312 H 0.65593 0.93655 0.54632 0.0
C313 C 0.71215 0.04678 0.51475 0.0
C314 C 0.69692 0.02078 0.46292 0.0
H315 H 0.71435 0.05387 0.6169 0.0
H316 H 0.726 0.07766 0.50667 0.0
C317 C 0.67973 0.98104 0.47501 0.0
C318 C 0.70063 0.66944 0.79299 0.0
C319 C 0.68139 0.69004 0.78095 0.0
H320 H 0.7172 0.64188 0.86418 0.0
C321 C 0.67223 0.70659 0.8328 0.0
H322 H 0.70799 0.65636 0.75396 0.0
C323 C 0.67789 0.69867 0.89594 0.0
C324 C 0.69214 0.67355 0.90781 0.0
H325 H 0.65758 0.72283 0.82463 0.0
H326 H 0.66747 0.70896 0.93495 0.0
C327 C 0.70561 0.66091 0.85609 0.0
C328 C 0.98015 0.66928 0.25967 0.0
C329 C 0.01997 0.69 0.27173 0.0
H330 H 0.93609 0.6416 0.18845 0.0
C331 C 0.04566 0.70661 0.2199 0.0
H332 H 0.95972 0.65614 0.29868 0.0
C333 C 0.03211 0.69865 0.15675 0.0
C334 C 0.99279 0.67342 0.14486 0.0
H335 H 0.07653 0.72294 0.22809 0.0
H336 H 0.05281 0.709 0.11775 0.0
C337 C 0.96667 0.66071 0.19656 0.0
C338 C 0.30577 0.96588 0.51548 0.0
C339 C 0.32091 0.99193 0.46369 0.0
H340 H 0.30358 0.95871 0.6176 0.0
C341 C 0.33789 0.03165 0.47585 0.0
H342 H 0.29207 0.93502 0.50734 0.0
C343 C 0.34478 0.0452 0.53908 0.0
C344 C 0.3343 0.0192 0.59088 0.0
H345 H 0.34966 0.05238 0.43695 0.0
H346 H 0.36146 0.07609 0.54722 0.0
C347 C 0.31219 0.97943 0.57872 0.0
C348 C 0.48284 0.51958 0.09918 0.0
C349 C 0.46892 0.47962 0.09803 0.0
H350 H 0.53223 0.57639 0.09957 0.0
C351 C 0.49568 0.46649 0.09883 0.0
H352 H 0.4631 0.53069 0.09882 0.0
C353 C 0.5354 0.49268 0.09879 0.0
C354 C 0.54933 0.53266 0.09853 0.0
H355 H 0.48601 0.43587 0.098 0.0
H356 H 0.55515 0.48158 0.09808 0.0
C357 C 0.52256 0.54577 0.09973 0.0
C358 C 0.04889 0.53243 0.44715 0.0
C359 C 0.02316 0.54668 0.44665 0.0
H360 H 0.05563 0.48261 0.44804 0.0
C361 C 0.9832 0.52019 0.44702 0.0
H362 H 0.07979 0.55202 0.44699 0.0
C363 C 0.96929 0.48038 0.44678 0.0
C364 C 0.99501 0.46613 0.44724 0.0
H365 H 0.96255 0.5302 0.44635 0.0
H366 H 0.93839 0.46079 0.4463 0.0
C367 C 0.03497 0.49262 0.44798 0.0
C368 C 0.54854 0.03241 0.76151 0.0
C369 C 0.53521 0.99244 0.76107 0.0
H370 H 0.53376 0.07708 0.76085 0.0
C371 C 0.49527 0.96656 0.7612 0.0
H372 H 0.57917 0.05318 0.76117 0.0
C373 C 0.46926 0.98032 0.76182 0.0
C374 C 0.48259 0.02029 0.76131 0.0
H375 H 0.48405 0.93565 0.761 0.0
H376 H 0.43864 0.95955 0.76171 0.0
C377 C 0.52254 0.04617 0.76112 0.0
C378 C 0.49517 0.53235 0.60566 0.0
C379 C 0.53514 0.54667 0.60602 0.0
H380 H 0.43872 0.48246 0.60493 0.0
C381 C 0.54872 0.52024 0.60555 0.0
H382 H 0.48379 0.55189 0.6059 0.0
C383 C 0.52292 0.48041 0.60583 0.0
C384 C 0.48295 0.46609 0.60551 0.0
H385 H 0.57938 0.53031 0.60611 0.0
H386 H 0.5343 0.46087 0.60623 0.0
C387 C 0.46937 0.49252 0.60488 0.0
C388 C 0.96935 0.49275 0.95396 0.0
C389 C 0.99529 0.53274 0.95421 0.0
H390 H 0.96211 0.43599 0.95482 0.0
C391 C 0.03518 0.54593 0.95306 0.0
H392 H 0.9385 0.48159 0.95463 0.0
C393 C 0.04881 0.5198 0.95366 0.0
C394 C 0.02287 0.47982 0.95482 0.0
H395 H 0.05606 0.57657 0.95321 0.0
H396 H 0.07967 0.53097 0.95405 0.0
C397 C 0.98298 0.46662 0.95397 0.0
C398 C 0.53497 0.04647 0.29226 0.0
C399 C 0.54932 0.0208 0.29204 0.0
H400 H 0.4851 0.05306 0.29227 0.0
C401 C 0.52293 0.98079 0.2915 0.0
H402 H 0.55447 0.07741 0.29255 0.0
C403 C 0.48313 0.96676 0.29212 0.0
C404 C 0.46877 0.99243 0.2923 0.0
H405 H 0.533 0.96017 0.29157 0.0
H406 H 0.46363 0.93582 0.2923 0.0
C407 C 0.49517 0.03245 0.29189 0.0
loop_
_geom_bond_atom_site_label_1
_geom_bond_atom_site_label_2
_geom_bond_distance
_geom_bond_site_symmetry_2
_ccdc_geom_bond_type
O0 Cd1 2.223 1_556 S
O0 C8 1.315 . S
Cd1 O0 2.223 1_554 S
Cd1 O4 2.297 1_554 S
Cd1 O5 2.439 . S
Cd1 O11 2.240 . S
Cd2 O3 2.240 1_554 S
Cd2 O10 2.223 . S
Cd2 O12 2.297 . S
Cd2 O13 2.439 . S
O3 Cd2 2.240 1_556 S
O3 C8 1.279 . S
O4 Cd1 2.297 1_556 S
O4 C6 1.247 1_556 S
O5 Cd1 2.439 . S
O5 C6 1.208 . S
C6 O4 1.247 1_554 S
C6 O5 1.208 . S
C7 O12 1.247 . S
C7 O13 1.208 . S
C8 O0 1.315 . S
C8 O3 1.279 . S
C9 O10 1.315 . S
C9 O11 1.279 . S
O10 Cd2 2.223 . S
O10 C9 1.315 . S
O11 Cd1 2.240 . S
O11 C9 1.279 . S
O12 Cd2 2.297 . S
O12 C7 1.247 . S
O13 Cd2 2.439 . S
O13 C7 1.208 . S
O14 Cd15 2.223 . S
O14 C22 1.315 . S
Cd15 O14 2.223 . S
Cd15 O18 2.297 . S
Cd15 O19 2.439 . S
Cd15 O25 2.240 . S
Cd16 O17 2.240 1_455 S
Cd16 O24 2.223 . S
Cd16 O26 2.297 . S
Cd16 O27 2.439 1_455 S
O17 Cd16 2.240 1_655 S
O17 C22 1.279 . S
O18 Cd15 2.297 . S
O18 C20 1.247 . S
O19 Cd15 2.439 . S
O19 C20 1.208 . S
C20 O18 1.247 . S
C20 O19 1.208 . S
C21 O26 1.247 1_655 S
C21 O27 1.208 . S
C22 O14 1.315 . S
C22 O17 1.279 . S
C23 O24 1.315 1_655 S
C23 O25 1.279 . S
O24 Cd16 2.223 . S
O24 C23 1.315 1_455 S
O25 Cd15 2.240 . S
O25 C23 1.279 . S
O26 Cd16 2.297 . S
O26 C21 1.247 1_455 S
O27 Cd16 2.439 1_655 S
O27 C21 1.208 . S
O28 Cd29 2.223 . S
O28 C36 1.315 . S
Cd29 O28 2.223 . S
Cd29 O32 2.297 . S
Cd29 O33 2.439 . S
Cd29 O39 2.240 . S
Cd30 O31 2.240 1_545 S
Cd30 O38 2.223 . S
Cd30 O40 2.297 . S
Cd30 O41 2.439 1_545 S
O31 Cd30 2.240 1_565 S
O31 C36 1.279 . S
O32 Cd29 2.297 . S
O32 C34 1.247 . S
O33 Cd29 2.439 . S
O33 C34 1.208 . S
C34 O32 1.247 . S
C34 O33 1.208 . S
C35 O40 1.247 1_565 S
C35 O41 1.208 . S
C36 O28 1.315 . S
C36 O31 1.279 . S
C37 O38 1.315 1_565 S
C37 O39 1.279 . S
O38 Cd30 2.223 . S
O38 C37 1.315 1_545 S
O39 Cd29 2.240 . S
O39 C37 1.279 . S
O40 Cd30 2.297 . S
O40 C35 1.247 1_545 S
O41 Cd30 2.439 1_565 S
O41 C35 1.208 . S
O42 Cd43 2.223 1_556 S
O42 C50 1.315 . S
Cd43 O42 2.223 1_554 S
Cd43 O46 2.297 1_554 S
Cd43 O47 2.439 . S
Cd43 O53 2.240 . S
Cd44 O45 2.240 1_554 S
Cd44 O52 2.223 . S
Cd44 O54 2.297 . S
Cd44 O55 2.439 . S
O45 Cd44 2.240 1_556 S
O45 C50 1.279 . S
O46 Cd43 2.297 1_556 S
O46 C48 1.247 1_556 S
O47 Cd43 2.439 . S
O47 C48 1.208 . S
C48 O46 1.247 1_554 S
C48 O47 1.208 . S
C49 O54 1.247 . S
C49 O55 1.208 . S
C50 O42 1.315 . S
C50 O45 1.279 . S
C51 O52 1.315 . S
C51 O53 1.279 . S
O52 Cd44 2.223 . S
O52 C51 1.315 . S
O53 Cd43 2.240 . S
O53 C51 1.279 . S
O54 Cd44 2.297 . S
O54 C49 1.247 . S
O55 Cd44 2.439 . S
O55 C49 1.208 . S
O56 Cd57 2.223 . S
O56 C64 1.315 . S
Cd57 O56 2.223 . S
Cd57 O60 2.297 . S
Cd57 O61 2.439 . S
Cd57 O67 2.240 . S
Cd58 O59 2.240 1_655 S
Cd58 O66 2.223 . S
Cd58 O68 2.297 . S
Cd58 O69 2.439 1_655 S
O59 Cd58 2.240 1_455 S
O59 C64 1.279 . S
O60 Cd57 2.297 . S
O60 C62 1.247 . S
O61 Cd57 2.439 . S
O61 C62 1.208 . S
C62 O60 1.247 . S
C62 O61 1.208 . S
C63 O68 1.247 1_455 S
C63 O69 1.208 . S
C64 O56 1.315 . S
C64 O59 1.279 . S
C65 O66 1.315 1_455 S
C65 O67 1.279 . S
O66 Cd58 2.223 . S
O66 C65 1.315 1_655 S
O67 Cd57 2.240 . S
O67 C65 1.279 . S
O68 Cd58 2.297 . S
O68 C63 1.247 1_655 S
O69 Cd58 2.439 1_455 S
O69 C63 1.208 . S
O70 Cd71 2.223 . S
O70 C78 1.315 . S
Cd71 O70 2.223 . S
Cd71 O74 2.297 . S
Cd71 O75 2.439 . S
Cd71 O81 2.240 . S
Cd72 O73 2.240 1_565 S
Cd72 O80 2.223 . S
Cd72 O82 2.297 . S
Cd72 O83 2.439 1_565 S
O73 Cd72 2.240 1_545 S
O73 C78 1.279 . S
O74 Cd71 2.297 . S
O74 C76 1.247 . S
O75 Cd71 2.439 . S
O75 C76 1.208 . S
C76 O74 1.247 . S
C76 O75 1.208 . S
C77 O82 1.247 1_545 S
C77 O83 1.208 . S
C78 O70 1.315 . S
C78 O73 1.279 . S
C79 O80 1.315 1_545 S
C79 O81 1.279 . S
O80 Cd72 2.223 . S
O80 C79 1.315 1_565 S
O81 Cd71 2.240 . S
O81 C79 1.279 . S
O82 Cd72 2.297 . S
O82 C77 1.247 1_565 S
O83 Cd72 2.439 1_545 S
O83 C77 1.208 . S
O84 Cd85 2.223 . S
O84 C92 1.315 . S
Cd85 O84 2.223 . S
Cd85 O88 2.297 . S
Cd85 O89 2.439 . S
Cd85 O95 2.240 . S
Cd86 O87 2.240 . S
Cd86 O94 2.223 . S
Cd86 O96 2.297 . S
Cd86 O97 2.439 . S
O87 Cd86 2.240 . S
O87 C92 1.279 . S
O88 Cd85 2.297 . S
O88 C90 1.247 . S
O89 Cd85 2.439 . S
O89 C90 1.208 . S
C90 O88 1.247 . S
C90 O89 1.208 . S
C91 O96 1.247 . S
C91 O97 1.208 . S
C92 O84 1.315 . S
C92 O87 1.279 . S
C93 O94 1.315 . S
C93 O95 1.279 . S
O94 Cd86 2.223 . S
O94 C93 1.315 . S
O95 Cd85 2.240 . S
O95 C93 1.279 . S
O96 Cd86 2.297 . S
O96 C91 1.247 . S
O97 Cd86 2.439 . S
O97 C91 1.208 . S
O98 Cd99 2.223 1_554 S
O98 C106 1.315 . S
Cd99 O98 2.223 1_556 S
Cd99 O102 2.297 1_556 S
Cd99 O103 2.439 . S
Cd99 O109 2.240 . S
Cd100 O101 2.240 1_456 S
Cd100 O108 2.223 . S
Cd100 O110 2.297 . S
Cd100 O111 2.439 1_455 S
O101 Cd100 2.240 1_654 S
O101 C106 1.279 . S
O102 Cd99 2.297 1_554 S
O102 C104 1.247 1_554 S
O103 Cd99 2.439 . S
O103 C104 1.208 . S
C104 O102 1.247 1_556 S
C104 O103 1.208 . S
C105 O110 1.247 1_655 S
C105 O111 1.208 . S
C106 O98 1.315 . S
C106 O101 1.279 . S
C107 O108 1.315 1_655 S
C107 O109 1.279 . S
O108 Cd100 2.223 . S
O108 C107 1.315 1_455 S
O109 Cd99 2.240 . S
O109 C107 1.279 . S
O110 Cd100 2.297 . S
O110 C105 1.247 1_455 S
O111 Cd100 2.439 1_655 S
O111 C105 1.208 . S
O112 Cd113 2.223 . S
O112 C120 1.315 . S
Cd113 O112 2.223 . S
Cd113 O116 2.297 . S
Cd113 O117 2.439 . S
Cd113 O123 2.240 . S
Cd114 O115 2.240 1_545 S
Cd114 O122 2.223 . S
Cd114 O124 2.297 . S
Cd114 O125 2.439 1_545 S
O115 Cd114 2.240 1_565 S
O115 C120 1.279 . S
O116 Cd113 2.297 . S
O116 C118 1.247 . S
O117 Cd113 2.439 . S
O117 C118 1.208 . S
C118 O116 1.247 . S
C118 O117 1.208 . S
C119 O124 1.247 1_565 S
C119 O125 1.208 . S
C120 O112 1.315 . S
C120 O115 1.279 . S
C121 O122 1.315 1_565 S
C121 O123 1.279 . S
O122 Cd114 2.223 . S
O122 C121 1.315 1_545 S
O123 Cd113 2.240 . S
O123 C121 1.279 . S
O124 Cd114 2.297 . S
O124 C119 1.247 1_545 S
O125 Cd114 2.439 1_565 S
O125 C119 1.208 . S
O126 Cd127 2.223 . S
O126 C134 1.315 . S
Cd127 O126 2.223 . S
Cd127 O130 2.297 . S
Cd127 O131 2.439 . S
Cd127 O137 2.240 . S
Cd128 O129 2.240 . S
Cd128 O136 2.223 . S
Cd128 O138 2.297 . S
Cd128 O139 2.439 . S
O129 Cd128 2.240 . S
O129 C134 1.279 . S
O130 Cd127 2.297 . S
O130 C132 1.247 . S
O131 Cd127 2.439 . S
O131 C132 1.208 . S
C132 O130 1.247 . S
C132 O131 1.208 . S
C133 O138 1.247 . S
C133 O139 1.208 . S
C134 O126 1.315 . S
C134 O129 1.279 . S
C135 O136 1.315 . S
C135 O137 1.279 . S
O136 Cd128 2.223 . S
O136 C135 1.315 . S
O137 Cd127 2.240 . S
O137 C135 1.279 . S
O138 Cd128 2.297 . S
O138 C133 1.247 . S
O139 Cd128 2.439 . S
O139 C133 1.208 . S
O140 Cd141 2.223 1_554 S
O140 C148 1.315 . S
Cd141 O140 2.223 1_556 S
Cd141 O144 2.297 1_556 S
Cd141 O145 2.439 . S
Cd141 O151 2.240 . S
Cd142 O143 2.240 1_656 S
Cd142 O150 2.223 . S
Cd142 O152 2.297 . S
Cd142 O153 2.439 1_655 S
O143 Cd142 2.240 1_454 S
O143 C148 1.279 . S
O144 Cd141 2.297 1_554 S
O144 C146 1.247 1_554 S
O145 Cd141 2.439 . S
O145 C146 1.208 . S
C146 O144 1.247 1_556 S
C146 O145 1.208 . S
C147 O152 1.247 1_455 S
C147 O153 1.208 . S
C148 O140 1.315 . S
C148 O143 1.279 . S
C149 O150 1.315 1_455 S
C149 O151 1.279 . S
O150 Cd142 2.223 . S
O150 C149 1.315 1_655 S
O151 Cd141 2.240 . S
O151 C149 1.279 . S
O152 Cd142 2.297 . S
O152 C147 1.247 1_655 S
O153 Cd142 2.439 1_455 S
O153 C147 1.208 . S
O154 Cd155 2.223 . S
O154 C162 1.315 . S
Cd155 O154 2.223 . S
Cd155 O158 2.297 . S
Cd155 O159 2.439 . S
Cd155 O165 2.240 . S
Cd156 O157 2.240 1_565 S
Cd156 O164 2.223 . S
Cd156 O166 2.297 . S
Cd156 O167 2.439 1_565 S
O157 Cd156 2.240 1_545 S
O157 C162 1.279 . S
O158 Cd155 2.297 . S
O158 C160 1.247 . S
O159 Cd155 2.439 . S
O159 C160 1.208 . S
C160 O158 1.247 . S
C160 O159 1.208 . S
C161 O166 1.247 1_545 S
C161 O167 1.208 . S
C162 O154 1.315 . S
C162 O157 1.279 . S
C163 O164 1.315 1_545 S
C163 O165 1.279 . S
O164 Cd156 2.223 . S
O164 C163 1.315 1_565 S
O165 Cd155 2.240 . S
O165 C163 1.279 . S
O166 Cd156 2.297 . S
O166 C161 1.247 1_565 S
O167 Cd156 2.439 1_545 S
O167 C161 1.208 . S
C168 C169 1.387 . S
C168 H172 0.950 . S
C168 C177 1.390 . S
C169 C168 1.387 . S
C169 C171 1.387 . S
H170 C177 0.950 . S
C171 C169 1.387 . S
C171 C173 1.390 . S
C171 H175 0.950 . S
H172 C168 0.950 . S
C173 C171 1.390 . S
C173 C174 1.387 . S
C173 H176 0.950 . S
C174 C173 1.387 . S
C174 C177 1.387 . S
H175 C171 0.950 . S
H176 C173 0.950 . S
C177 C168 1.390 . S
C177 H170 0.950 . S
C177 C174 1.387 . S
C178 C179 1.387 1_455 S
C178 H182 0.950 . S
C178 C187 1.390 . S
C179 C178 1.387 1_655 S
C179 C181 1.387 . S
H180 C187 0.950 . S
C181 C179 1.387 . S
C181 C183 1.390 . S
C181 H185 0.950 . S
H182 C178 0.950 . S
C183 C181 1.390 . S
C183 C184 1.387 1_655 S
C183 H186 0.950 . S
C184 C183 1.387 1_455 S
C184 C187 1.387 . S
H185 C181 0.950 . S
H186 C183 0.950 . S
C187 C178 1.390 . S
C187 H180 0.950 . S
C187 C184 1.387 . S
C188 C189 1.387 . S
C188 H192 0.950 . S
C188 C197 1.390 1_566 S
C189 C188 1.387 . S
C189 C191 1.387 . S
H190 C197 0.950 . S
C191 C189 1.387 . S
C191 C193 1.390 1_566 S
C191 H195 0.950 . S
H192 C188 0.950 . S
C193 C191 1.390 1_544 S
C193 C194 1.387 . S
C193 H196 0.950 . S
C194 C193 1.387 . S
C194 C197 1.387 . S
H195 C191 0.950 . S
H196 C193 0.950 . S
C197 C188 1.390 1_544 S
C197 H190 0.950 . S
C197 C194 1.387 . S
C198 C199 1.387 . S
C198 H202 0.950 . S
C198 C207 1.390 . S
C199 C198 1.387 . S
C199 C201 1.387 . S
H200 C207 0.950 . S
C201 C199 1.387 . S
C201 C203 1.390 . S
C201 H205 0.950 . S
H202 C198 0.950 . S
C203 C201 1.390 . S
C203 C204 1.387 . S
C203 H206 0.950 . S
C204 C203 1.387 . S
C204 C207 1.387 . S
H205 C201 0.950 . S
H206 C203 0.950 . S
C207 C198 1.390 . S
C207 H200 0.950 . S
C207 C204 1.387 . S
C208 C209 1.387 . S
C208 H212 0.950 . S
C208 C217 1.390 . S
C209 C208 1.387 . S
C209 C211 1.387 1_655 S
H210 C217 0.950 . S
C211 C209 1.387 1_455 S
C211 C213 1.390 . S
C211 H215 0.950 . S
H212 C208 0.950 . S
C213 C211 1.390 . S
C213 C214 1.387 . S
C213 H216 0.950 . S
C214 C213 1.387 . S
C214 C217 1.387 1_455 S
H215 C211 0.950 . S
H216 C213 0.950 . S
C217 C208 1.390 . S
C217 H210 0.950 . S
C217 C214 1.387 1_655 S
C218 C219 1.387 . S
C218 H222 0.950 . S
C218 C227 1.390 1_564 S
C219 C218 1.387 . S
C219 C221 1.387 . S
H220 C227 0.950 . S
C221 C219 1.387 . S
C221 C223 1.390 1_564 S
C221 H225 0.950 . S
H222 C218 0.950 . S
C223 C221 1.390 1_546 S
C223 C224 1.387 . S
C223 H226 0.950 . S
C224 C223 1.387 . S
C224 C227 1.387 . S
H225 C221 0.950 . S
H226 C223 0.950 . S
C227 C218 1.390 1_546 S
C227 H220 0.950 . S
C227 C224 1.387 . S
C228 C229 1.387 . S
C228 H232 0.950 . S
C228 C237 1.390 1_556 S
C229 C228 1.387 . S
C229 C231 1.387 . S
H230 C237 0.950 . S
C231 C229 1.387 . S
C231 C233 1.390 1_556 S
C231 H235 0.950 . S
H232 C228 0.950 . S
C233 C231 1.390 1_554 S
C233 C234 1.387 . S
C233 H236 0.950 . S
C234 C233 1.387 . S
C234 C237 1.387 . S
H235 C231 0.950 . S
H236 C233 0.950 . S
C237 C228 1.390 1_554 S
C237 H230 0.950 . S
C237 C234 1.387 . S
C238 C239 1.387 . S
C238 H242 0.950 . S
C238 C247 1.390 . S
C239 C238 1.387 . S
C239 C241 1.387 . S
H240 C247 0.950 . S
C241 C239 1.387 . S
C241 C243 1.390 . S
C241 H245 0.950 . S
H242 C238 0.950 . S
C243 C241 1.390 . S
C243 C244 1.387 . S
C243 H246 0.950 . S
C244 C243 1.387 . S
C244 C247 1.387 . S
H245 C241 0.950 . S
H246 C243 0.950 . S
C247 C238 1.390 . S
C247 H240 0.950 . S
C247 C244 1.387 . S
C248 C249 1.387 . S
C248 H252 0.950 . S
C248 C257 1.390 . S
C249 C248 1.387 . S
C249 C251 1.387 . S
H250 C257 0.950 . S
C251 C249 1.387 . S
C251 C253 1.390 . S
C251 H255 0.950 . S
H252 C248 0.950 . S
C253 C251 1.390 . S
C253 C254 1.387 . S
C253 H256 0.950 . S
C254 C253 1.387 . S
C254 C257 1.387 . S
H255 C251 0.950 . S
H256 C253 0.950 . S
C257 C248 1.390 . S
C257 H250 0.950 . S
C257 C254 1.387 . S
C258 C259 1.387 . S
C258 H262 0.950 . S
C258 C267 1.390 1_554 S
C259 C258 1.387 . S
C259 C261 1.387 . S
H260 C267 0.950 . S
C261 C259 1.387 . S
C261 C263 1.390 1_554 S
C261 H265 0.950 . S
H262 C258 0.950 . S
C263 C261 1.390 1_556 S
C263 C264 1.387 . S
C263 H266 0.950 . S
C264 C263 1.387 . S
C264 C267 1.387 . S
H265 C261 0.950 . S
H266 C263 0.950 . S
C267 C258 1.390 1_556 S
C267 H260 0.950 . S
C267 C264 1.387 . S
C268 C269 1.387 . S
C268 H272 0.950 . S
C268 C277 1.390 . S
C269 C268 1.387 . S
C269 C271 1.387 . S
H270 C277 0.950 . S
C271 C269 1.387 . S
C271 C273 1.390 . S
C271 H275 0.950 . S
H272 C268 0.950 . S
C273 C271 1.390 . S
C273 C274 1.387 . S
C273 H276 0.950 . S
C274 C273 1.387 . S
C274 C277 1.387 . S
H275 C271 0.950 . S
H276 C273 0.950 . S
C277 C268 1.390 . S
C277 H270 0.950 . S
C277 C274 1.387 . S
C278 C279 1.387 . S
C278 H282 0.950 . S
C278 C287 1.390 . S
C279 C278 1.387 . S
C279 C281 1.387 . S
H280 C287 0.950 . S
C281 C279 1.387 . S
C281 C283 1.390 . S
C281 H285 0.950 . S
H282 C278 0.950 . S
C283 C281 1.390 . S
C283 C284 1.387 . S
C283 H286 0.950 . S
C284 C283 1.387 . S
C284 C287 1.387 . S
H285 C281 0.950 . S
H286 C283 0.950 . S
C287 C278 1.390 . S
C287 H280 0.950 . S
C287 C284 1.387 . S
C288 C289 1.387 . S
C288 H292 0.950 . S
C288 C297 1.390 . S
C289 C288 1.387 . S
C289 C291 1.387 . S
H290 C297 0.950 . S
C291 C289 1.387 . S
C291 C293 1.390 . S
C291 H295 0.950 . S
H292 C288 0.950 . S
C293 C291 1.390 . S
C293 C294 1.387 . S
C293 H296 0.950 . S
C294 C293 1.387 . S
C294 C297 1.387 . S
H295 C291 0.950 . S
H296 C293 0.950 . S
C297 C288 1.390 . S
C297 H290 0.950 . S
C297 C294 1.387 . S
C298 C299 1.387 1_455 S
C298 H302 0.950 . S
C298 C307 1.390 . S
C299 C298 1.387 1_655 S
C299 C301 1.387 . S
H300 C307 0.950 . S
C301 C299 1.387 . S
C301 C303 1.390 . S
C301 H305 0.950 . S
H302 C298 0.950 . S
C303 C301 1.390 . S
C303 C304 1.387 1_655 S
C303 H306 0.950 . S
C304 C303 1.387 1_455 S
C304 C307 1.387 . S
H305 C301 0.950 . S
H306 C303 0.950 . S
C307 C298 1.390 . S
C307 H300 0.950 . S
C307 C304 1.387 . S
C308 C309 1.387 . S
C308 H312 0.950 . S
C308 C317 1.390 1_565 S
C309 C308 1.387 . S
C309 C311 1.387 . S
H310 C317 0.950 . S
C311 C309 1.387 . S
C311 C313 1.390 1_565 S
C311 H315 0.950 . S
H312 C308 0.950 . S
C313 C311 1.390 1_545 S
C313 C314 1.387 . S
C313 H316 0.950 . S
C314 C313 1.387 . S
C314 C317 1.387 . S
H315 C311 0.950 . S
H316 C313 0.950 . S
C317 C308 1.390 1_545 S
C317 H310 0.950 . S
C317 C314 1.387 . S
C318 C319 1.387 . S
C318 H322 0.950 . S
C318 C327 1.390 . S
C319 C318 1.387 . S
C319 C321 1.387 . S
H320 C327 0.950 . S
C321 C319 1.387 . S
C321 C323 1.390 . S
C321 H325 0.950 . S
H322 C318 0.950 . S
C323 C321 1.390 . S
C323 C324 1.387 . S
C323 H326 0.950 . S
C324 C323 1.387 . S
C324 C327 1.387 . S
H325 C321 0.950 . S
H326 C323 0.950 . S
C327 C318 1.390 . S
C327 H320 0.950 . S
C327 C324 1.387 . S
C328 C329 1.387 1_655 S
C328 H332 0.950 . S
C328 C337 1.390 . S
C329 C328 1.387 1_455 S
C329 C331 1.387 . S
H330 C337 0.950 . S
C331 C329 1.387 . S
C331 C333 1.390 . S
C331 H335 0.950 . S
H332 C328 0.950 . S
C333 C331 1.390 . S
C333 C334 1.387 1_455 S
C333 H336 0.950 . S
C334 C333 1.387 1_655 S
C334 C337 1.387 . S
H335 C331 0.950 . S
H336 C333 0.950 . S
C337 C328 1.390 . S
C337 H330 0.950 . S
C337 C334 1.387 . S
C338 C339 1.387 . S
C338 H342 0.950 . S
C338 C347 1.390 1_565 S
C339 C338 1.387 . S
C339 C341 1.387 . S
H340 C347 0.950 . S
C341 C339 1.387 . S
C341 C343 1.390 1_565 S
C341 H345 0.950 . S
H342 C338 0.950 . S
C343 C341 1.390 1_545 S
C343 C344 1.387 . S
C343 H346 0.950 . S
C344 C343 1.387 . S
C344 C347 1.387 . S
H345 C341 0.950 . S
H346 C343 0.950 . S
C347 C338 1.390 1_545 S
C347 H340 0.950 . S
C347 C344 1.387 . S
C348 C349 1.387 . S
C348 H352 0.950 . S
C348 C357 1.390 . S
C349 C348 1.387 . S
C349 C351 1.387 1_554 S
H350 C357 0.950 . S
C351 C349 1.387 1_556 S
C351 C353 1.390 . S
C351 H355 0.950 . S
H352 C348 0.950 . S
C353 C351 1.390 . S
C353 C354 1.387 1_556 S
C353 H356 0.950 . S
C354 C353 1.387 1_554 S
C354 C357 1.387 . S
H355 C351 0.950 . S
H356 C353 0.950 . S
C357 C348 1.390 . S
C357 H350 0.950 . S
C357 C354 1.387 . S
C358 C359 1.387 . S
C358 H362 0.950 . S
C358 C367 1.390 1_455 S
C359 C358 1.387 . S
C359 C361 1.387 . S
H360 C367 0.950 . S
C361 C359 1.387 . S
C361 C363 1.390 1_455 S
C361 H365 0.950 . S
H362 C358 0.950 . S
C363 C361 1.390 1_655 S
C363 C364 1.387 . S
C363 H366 0.950 . S
C364 C363 1.387 . S
C364 C367 1.387 . S
H365 C361 0.950 . S
H366 C363 0.950 . S
C367 C358 1.390 1_655 S
C367 H360 0.950 . S
C367 C364 1.387 . S
C368 C369 1.387 . S
C368 H372 0.950 . S
C368 C377 1.390 1_565 S
C369 C368 1.387 . S
C369 C371 1.387 . S
H370 C377 0.950 . S
C371 C369 1.387 . S
C371 C373 1.390 1_565 S
C371 H375 0.950 . S
H372 C368 0.950 . S
C373 C371 1.390 1_545 S
C373 C374 1.387 . S
C373 H376 0.950 . S
C374 C373 1.387 . S
C374 C377 1.387 . S
H375 C371 0.950 . S
H376 C373 0.950 . S
C377 C368 1.390 1_545 S
C377 H370 0.950 . S
C377 C374 1.387 . S
C378 C379 1.387 . S
C378 H382 0.950 . S
C378 C387 1.390 . S
C379 C378 1.387 . S
C379 C381 1.387 . S
H380 C387 0.950 . S
C381 C379 1.387 . S
C381 C383 1.390 . S
C381 H385 0.950 . S
H382 C378 0.950 . S
C383 C381 1.390 . S
C383 C384 1.387 . S
C383 H386 0.950 . S
C384 C383 1.387 . S
C384 C387 1.387 . S
H385 C381 0.950 . S
H386 C383 0.950 . S
C387 C378 1.390 . S
C387 H380 0.950 . S
C387 C384 1.387 . S
C388 C389 1.387 1_554 S
C388 H392 0.950 . S
C388 C397 1.390 1_655 S
C389 C388 1.387 1_556 S
C389 C391 1.387 . S
H390 C397 0.950 . S
C391 C389 1.387 . S
C391 C393 1.390 1_655 S
C391 H395 0.950 . S
H392 C388 0.950 . S
C393 C391 1.390 1_455 S
C393 C394 1.387 . S
C393 H396 0.950 . S
C394 C393 1.387 . S
C394 C397 1.387 1_556 S
H395 C391 0.950 . S
H396 C393 0.950 . S
C397 C388 1.390 1_455 S
C397 H390 0.950 . S
C397 C394 1.387 1_554 S
C398 C399 1.387 . S
C398 H402 0.950 . S
C398 C407 1.390 1_545 S
C399 C398 1.387 . S
C399 C401 1.387 . S
H400 C407 0.950 . S
C401 C399 1.387 . S
C401 C403 1.390 1_545 S
C401 H405 0.950 . S
H402 C398 0.950 . S
C403 C401 1.390 1_565 S
C403 C404 1.387 . S
C403 H406 0.950 . S
C404 C403 1.387 . S
C404 C407 1.387 . S
H405 C401 0.950 . S
H406 C403 0.950 . S
C407 C398 1.390 1_565 S
C407 H400 0.950 . S
C407 C404 1.387 . S
C169 C7 1.479 . S
C174 C133 1.479 . S
C179 C21 1.478 . S
C184 C147 1.478 . S
C189 C35 1.479 . S
C194 C161 1.479 . S
C199 C49 1.478 . S
C204 C91 1.478 . S
C209 C105 1.478 . S
C214 C63 1.478 . S
C219 C119 1.478 . S
C224 C77 1.478 . S
C229 C146 1.480 . S
C234 C6 1.480 . S
C239 C20 1.482 . S
C244 C160 1.480 . S
C249 C34 1.479 . S
C254 C90 1.481 . S
C259 C48 1.481 . S
C264 C104 1.481 . S
C269 C62 1.482 . S
C274 C118 1.480 . S
C279 C76 1.482 . S
C284 C132 1.480 . S
C289 C134 1.289 . S
C294 C8 1.290 . S
C299 C22 1.289 . S
C304 C148 1.289 . S
C309 C36 1.292 . S
C314 C162 1.292 . S
C319 C92 1.290 . S
C324 C50 1.291 . S
C329 C64 1.289 . S
C334 C106 1.290 . S
C339 C120 1.289 . S
C344 C78 1.289 . S
C349 C9 1.491 . S
C354 C51 1.491 . S
C359 C65 1.491 . S
C364 C23 1.491 . S
C369 C37 1.489 . S
C374 C79 1.489 . S
C379 C93 1.491 . S
C384 C135 1.491 . S
C389 C107 1.489 . S
C394 C149 1.489 . S
C399 C163 1.489 . S
C404 C121 1.489 . S
