# Generated by pormake.
# Topology uop, (4)-cn, num edge types: 1
# Building blocks:
#     Node 0, Type 0, BuildingBlock: NAWXER_clean_sbu_0, # of connection points: 4
#     Node 1, Type 0, BuildingBlock: NAWXER_clean_sbu_0, # of connection points: 4
#     Node 2, Type 0, BuildingBlock: NAWXER_clean_sbu_0, # of connection points: 4
#     Node 3, Type 0, BuildingBlock: NAWXER_clean_sbu_0, # of connection points: 4
#     Node 4, Type 0, BuildingBlock: NAWXER_clean_sbu_0, # of connection points: 4
#     Node 5, Type 0, BuildingBlock: NAWXER_clean_sbu_0, # of connection points: 4
#     Node 6, Type 0, BuildingBlock: NAWXER_clean_sbu_0, # of connection points: 4
#     Node 7, Type 0, BuildingBlock: NAWXER_clean_sbu_0, # of connection points: 4
#     Node 8, Type 0, BuildingBlock: NAWXER_clean_sbu_0, # of connection points: 4
#     Node 9, Type 0, BuildingBlock: NAWXER_clean_sbu_0, # of connection points: 4
#     Node 10, Type 0, BuildingBlock: NAWXER_clean_sbu_0, # of connection points: 4
#     Node 11, Type 0, BuildingBlock: NAWXER_clean_sbu_0, # of connection points: 4
#     Edge 12, Type (0, 0), BuildingBlock: OJICUG_clean_linker_0, # of connection points: 2
#     Edge 13, Type (0, 0), BuildingBlock: OJICUG_clean_linker_0, # of connection points: 2
#     Edge 14, Type (0, 0), BuildingBlock: OJICUG_clean_linker_0, # of connection points: 2
#     Edge 15, Type (0, 0), BuildingBlock: OJICUG_clean_linker_0, # of connection points: 2
#     Edge 16, Type (0, 0), BuildingBlock: OJICUG_clean_linker_0, # of connection points: 2
#     Edge 17, Type (0, 0), BuildingBlock: OJICUG_clean_linker_0, # of connection points: 2
#     Edge 18, Type (0, 0), BuildingBlock: OJICUG_clean_linker_0, # of connection points: 2
#     Edge 19, Type (0, 0), BuildingBlock: OJICUG_clean_linker_0, # of connection points: 2
#     Edge 20, Type (0, 0), BuildingBlock: OJICUG_clean_linker_0, # of connection points: 2
#     Edge 21, Type (0, 0), BuildingBlock: OJICUG_clean_linker_0, # of connection points: 2
#     Edge 22, Type (0, 0), BuildingBlock: OJICUG_clean_linker_0, # of connection points: 2
#     Edge 23, Type (0, 0), BuildingBlock: OJICUG_clean_linker_0, # of connection points: 2
#     Edge 24, Type (0, 0), BuildingBlock: OJICUG_clean_linker_0, # of connection points: 2
#     Edge 25, Type (0, 0), BuildingBlock: OJICUG_clean_linker_0, # of connection points: 2
#     Edge 26, Type (0, 0), BuildingBlock: OJICUG_clean_linker_0, # of connection points: 2
#     Edge 27, Type (0, 0), BuildingBlock: OJICUG_clean_linker_0, # of connection points: 2
#     Edge 28, Type (0, 0), BuildingBlock: OJICUG_clean_linker_0, # of connection points: 2
#     Edge 29, Type (0, 0), BuildingBlock: OJICUG_clean_linker_0, # of connection points: 2
#     Edge 30, Type (0, 0), BuildingBlock: OJICUG_clean_linker_0, # of connection points: 2
#     Edge 31, Type (0, 0), BuildingBlock: OJICUG_clean_linker_0, # of connection points: 2
#     Edge 32, Type (0, 0), BuildingBlock: OJICUG_clean_linker_0, # of connection points: 2
#     Edge 33, Type (0, 0), BuildingBlock: OJICUG_clean_linker_0, # of connection points: 2
#     Edge 34, Type (0, 0), BuildingBlock: OJICUG_clean_linker_0, # of connection points: 2
#     Edge 35, Type (0, 0), BuildingBlock: OJICUG_clean_linker_0, # of connection points: 2
# Relax obj value: 0.102
# Max RMSD: 0.272
# Mean RMSD: 0.272
data_MOF--net-uop--node1-NAWXER_clean_sbu_0--edge1-OJICUG_clean_linker_0
_symmetry_space_group_name_H-M    P1
_symmetry_Int_Tables_number       1
_symmetry_cell_setting            triclinic
loop_
_symmetry_equiv_pos_as_xyz
'x, y, z'
_cell_length_a     24.445524
_cell_length_b     24.40571
_cell_length_c     33.857127
_cell_angle_alpha  89.997637
_cell_angle_beta   90.003977
_cell_angle_gamma 120.04489
loop_
_atom_site_label
_atom_site_type_symbol
_atom_site_fract_x
_atom_site_fract_y
_atom_site_fract_z
_atom_type_partial_charge
C0 C 0.25081 0.34673 0.27184 0.0
C1 C 0.24402 0.51277 0.19745 0.0
O2 O 0.25472 0.33959 0.23451 0.0
Zn3 Zn 0.25131 0.38704 0.18081 0.0
O4 O 0.24233 0.39103 0.28423 0.0
Zn5 Zn 0.24437 0.42717 0.23414 0.0
O6 O 0.15529 0.35882 0.20934 0.0
O7 O 0.17569 0.32525 0.15384 0.0
O8 O 0.24128 0.50413 0.23451 0.0
O9 O 0.2477 0.47293 0.17449 0.0
O10 O 0.33198 0.41068 0.15698 0.0
O11 O 0.33956 0.45684 0.21445 0.0
C12 C 0.13584 0.32369 0.17852 0.0
C13 C 0.36597 0.447 0.18464 0.0
C14 C 0.80746 0.13467 0.51616 0.0
C15 C 0.92082 0.36535 0.52378 0.0
O16 O 0.78867 0.15461 0.54524 0.0
Zn17 Zn 0.81465 0.24418 0.57184 0.0
O18 O 0.85236 0.1739 0.49444 0.0
Zn19 Zn 0.86486 0.25032 0.52005 0.0
O20 O 0.9119 0.2525 0.57458 0.0
O21 O 0.84573 0.2392 0.62279 0.0
O22 O 0.92427 0.33101 0.49678 0.0
O23 O 0.8827 0.33923 0.55285 0.0
O24 O 0.73702 0.24496 0.57081 0.0
O25 O 0.77612 0.24875 0.51145 0.0
C26 C 0.89893 0.24762 0.6116 0.0
C27 C 0.73255 0.24704 0.53356 0.0
C28 C 0.65382 0.90202 0.94225 0.0
C29 C 0.48831 0.73116 0.86653 0.0
O30 O 0.6614 0.91383 0.905 0.0
Zn31 Zn 0.6142 0.86432 0.85084 0.0
O32 O 0.60904 0.8492 0.95423 0.0
Zn33 Zn 0.57363 0.81649 0.9038 0.0
O34 O 0.6423 0.79615 0.87894 0.0
O35 O 0.67601 0.85095 0.82372 0.0
O36 O 0.49673 0.73656 0.9036 0.0
O37 O 0.52831 0.77497 0.84379 0.0
O38 O 0.59144 0.92235 0.82749 0.0
O39 O 0.54479 0.88313 0.88472 0.0
C40 C 0.67761 0.81241 0.84821 0.0
C41 C 0.55517 0.92001 0.85513 0.0
C42 C 0.75263 0.6569 0.27194 0.0
C43 C 0.75927 0.49098 0.19739 0.0
O44 O 0.74869 0.66414 0.23463 0.0
Zn45 Zn 0.75205 0.61678 0.18087 0.0
O46 O 0.76106 0.61255 0.28426 0.0
Zn47 Zn 0.75897 0.57654 0.23414 0.0
O48 O 0.84806 0.64492 0.20938 0.0
O49 O 0.82768 0.67861 0.15392 0.0
O50 O 0.76202 0.49957 0.23444 0.0
O51 O 0.75562 0.53087 0.17445 0.0
O52 O 0.6714 0.59326 0.15704 0.0
O53 O 0.66378 0.54695 0.21447 0.0
C54 C 0.86752 0.68012 0.17859 0.0
C55 C 0.63739 0.55689 0.18467 0.0
C56 C 0.10398 0.75535 0.61137 0.0
C57 C 0.27057 0.75579 0.53364 0.0
O58 O 0.09106 0.75032 0.57434 0.0
Zn59 Zn 0.13822 0.75236 0.51989 0.0
O60 O 0.15719 0.76386 0.62263 0.0
Zn61 Zn 0.18838 0.75874 0.57174 0.0
O62 O 0.21435 0.84821 0.54497 0.0
O63 O 0.15071 0.82864 0.4941 0.0
O64 O 0.26607 0.75805 0.57088 0.0
O65 O 0.227 0.75394 0.51146 0.0
O66 O 0.07893 0.67161 0.49667 0.0
O67 O 0.12044 0.66359 0.55282 0.0
C68 C 0.19555 0.86798 0.51582 0.0
C69 C 0.08239 0.63736 0.52373 0.0
C70 C 0.34936 0.10194 0.94244 0.0
C71 C 0.51469 0.27286 0.86665 0.0
O72 O 0.34172 0.09015 0.90519 0.0
Zn73 Zn 0.3888 0.13967 0.85102 0.0
O74 O 0.39414 0.15477 0.95441 0.0
Zn75 Zn 0.42946 0.18751 0.90397 0.0
O76 O 0.36074 0.20784 0.87918 0.0
O77 O 0.32691 0.15301 0.82397 0.0
O78 O 0.50636 0.26747 0.90372 0.0
O79 O 0.47464 0.22904 0.84393 0.0
O80 O 0.41154 0.08167 0.82761 0.0
O81 O 0.4583 0.12091 0.88482 0.0
C82 C 0.32536 0.19157 0.84847 0.0
C83 C 0.44787 0.08403 0.85522 0.0
C84 C 0.48668 0.75571 0.46433 0.0
C85 C 0.65264 0.75532 0.38642 0.0
O86 O 0.52846 0.75394 0.48648 0.0
Zn87 Zn 0.61563 0.75233 0.47794 0.0
O88 O 0.49332 0.75786 0.42709 0.0
Zn89 Zn 0.57172 0.75862 0.42613 0.0
O90 O 0.5447 0.6635 0.44502 0.0
O91 O 0.59432 0.67159 0.50114 0.0
O92 O 0.60786 0.76373 0.37521 0.0
O93 O 0.66065 0.75034 0.42344 0.0
O94 O 0.67948 0.8286 0.50367 0.0
O95 O 0.63533 0.84814 0.45282 0.0
C96 C 0.55663 0.63731 0.47409 0.0
C97 C 0.67398 0.86793 0.48193 0.0
C98 C 0.90552 0.65712 0.72583 0.0
C99 C 0.73315 0.49127 0.80059 0.0
O100 O 0.91676 0.66438 0.76314 0.0
Zn101 Zn 0.86618 0.61712 0.81695 0.0
O102 O 0.85269 0.61279 0.71356 0.0
Zn103 Zn 0.81885 0.57679 0.76372 0.0
O104 O 0.79809 0.64511 0.78858 0.0
O105 O 0.85238 0.67892 0.84395 0.0
O106 O 0.73884 0.49979 0.76353 0.0
O107 O 0.77676 0.53121 0.82346 0.0
O108 O 0.92333 0.59358 0.84072 0.0
O109 O 0.88447 0.54717 0.78334 0.0
C110 C 0.81388 0.68031 0.81937 0.0
C111 C 0.92086 0.55712 0.8131 0.0
C112 C 0.24389 0.73147 0.13191 0.0
C113 C 0.24978 0.90287 0.05649 0.0
O114 O 0.2477 0.77521 0.15472 0.0
Zn115 Zn 0.2513 0.86467 0.14782 0.0
O116 O 0.24098 0.73704 0.09485 0.0
Zn117 Zn 0.24414 0.81704 0.09477 0.0
O118 O 0.33953 0.88342 0.11402 0.0
O119 O 0.33206 0.92249 0.17131 0.0
O120 O 0.24167 0.85006 0.04442 0.0
O121 O 0.25391 0.9145 0.09375 0.0
O122 O 0.17601 0.85124 0.17486 0.0
O123 O 0.15514 0.79671 0.11954 0.0
C124 C 0.36601 0.92016 0.14367 0.0
C125 C 0.13596 0.81283 0.15027 0.0
C126 C 0.51651 0.24695 0.46399 0.0
C127 C 0.35071 0.24777 0.38607 0.0
O128 O 0.47469 0.24869 0.48612 0.0
Zn129 Zn 0.38754 0.25032 0.47758 0.0
O130 O 0.50992 0.24486 0.42674 0.0
Zn131 Zn 0.43153 0.24417 0.42576 0.0
O132 O 0.45861 0.33924 0.4448 0.0
O133 O 0.40887 0.33099 0.5009 0.0
O134 O 0.39545 0.23931 0.37483 0.0
O135 O 0.34267 0.25261 0.4231 0.0
O136 O 0.32362 0.17394 0.50319 0.0
O137 O 0.36788 0.15458 0.45234 0.0
C138 C 0.44665 0.36535 0.4739 0.0
C139 C 0.32918 0.13468 0.48143 0.0
C140 C 0.09734 0.34649 0.72611 0.0
C141 C 0.26971 0.51266 0.80068 0.0
O142 O 0.08613 0.33933 0.76342 0.0
Zn143 Zn 0.13674 0.38682 0.81717 0.0
O144 O 0.15012 0.39083 0.71379 0.0
Zn145 Zn 0.18398 0.42701 0.7639 0.0
O146 O 0.20482 0.35879 0.78884 0.0
O147 O 0.15064 0.32514 0.84426 0.0
O148 O 0.26396 0.50404 0.76362 0.0
O149 O 0.22614 0.47277 0.82358 0.0
O150 O 0.07957 0.41038 0.84088 0.0
O151 O 0.11833 0.4566 0.78345 0.0
C152 C 0.1891 0.32369 0.81967 0.0
C153 C 0.08197 0.44672 0.81321 0.0
C154 C 0.7594 0.27234 0.13179 0.0
C155 C 0.75353 0.10099 0.05634 0.0
O156 O 0.75562 0.2286 0.15459 0.0
Zn157 Zn 0.75205 0.13916 0.14769 0.0
O158 O 0.7623 0.26678 0.09473 0.0
Zn159 Zn 0.75917 0.18679 0.09465 0.0
O160 O 0.66379 0.1204 0.11393 0.0
O161 O 0.67133 0.08133 0.1712 0.0
O162 O 0.76163 0.15381 0.04429 0.0
O163 O 0.74942 0.08934 0.09361 0.0
O164 O 0.82736 0.1526 0.17472 0.0
O165 O 0.8482 0.20716 0.11941 0.0
C166 C 0.63735 0.08366 0.14358 0.0
C167 C 0.8674 0.19103 0.15014 0.0
C168 C 0.24305 0.62905 0.12379 0.0
C169 C 0.2433 0.67524 0.14871 0.0
H170 H 0.24316 0.54169 0.1196 0.0
C171 C 0.24335 0.66734 0.18983 0.0
H172 H 0.24303 0.63372 0.09198 0.0
C173 C 0.24328 0.61445 0.20569 0.0
C174 C 0.24336 0.56844 0.18076 0.0
H175 H 0.24348 0.70201 0.20985 0.0
H176 H 0.24344 0.60983 0.2375 0.0
C177 C 0.24318 0.57629 0.13965 0.0
C178 C 0.63059 0.24731 0.53982 0.0
C179 C 0.67741 0.24724 0.51575 0.0
H180 H 0.54319 0.24735 0.54242 0.0
C181 C 0.67092 0.2472 0.47451 0.0
H182 H 0.63416 0.24736 0.57171 0.0
C183 C 0.61869 0.24711 0.45771 0.0
C184 C 0.57187 0.24718 0.48178 0.0
H185 H 0.70612 0.2471 0.45512 0.0
H186 H 0.6151 0.24702 0.42582 0.0
C187 C 0.57842 0.24733 0.52302 0.0
C188 C 0.38668 0.62879 0.8745 0.0
C189 C 0.43268 0.67502 0.84965 0.0
H190 H 0.29921 0.54142 0.87856 0.0
C191 C 0.42484 0.66724 0.80852 0.0
H192 H 0.39126 0.63336 0.90632 0.0
C193 C 0.37208 0.6144 0.79258 0.0
C194 C 0.32593 0.56832 0.81744 0.0
H195 H 0.45944 0.70197 0.78854 0.0
H196 H 0.36739 0.60986 0.76076 0.0
C197 C 0.33384 0.57608 0.85857 0.0
C198 C 0.76007 0.42749 0.13955 0.0
C199 C 0.7599 0.43532 0.18067 0.0
H200 H 0.76021 0.37009 0.09187 0.0
C201 C 0.75999 0.3893 0.20559 0.0
H202 H 0.76008 0.4621 0.11952 0.0
C203 C 0.75992 0.33643 0.18972 0.0
C204 C 0.75996 0.32855 0.14859 0.0
H205 H 0.75984 0.3939 0.2374 0.0
H206 H 0.75981 0.30174 0.20973 0.0
C207 C 0.7602 0.37474 0.12369 0.0
C208 C 0.38424 0.75499 0.45795 0.0
C209 C 0.43129 0.75548 0.48208 0.0
H210 H 0.29663 0.7546 0.45525 0.0
C211 C 0.42495 0.75592 0.52331 0.0
H212 H 0.38765 0.7546 0.42606 0.0
C213 C 0.37276 0.756 0.54005 0.0
C214 C 0.32572 0.75553 0.51591 0.0
H215 H 0.46037 0.75636 0.54274 0.0
H216 H 0.36937 0.75643 0.57193 0.0
C217 C 0.332 0.75495 0.47468 0.0
C218 C 0.61632 0.37527 0.87453 0.0
C219 C 0.57027 0.329 0.84972 0.0
H220 H 0.7038 0.46264 0.87851 0.0
C221 C 0.57802 0.33673 0.80858 0.0
H222 H 0.61181 0.37074 0.90635 0.0
C223 C 0.63074 0.38955 0.79259 0.0
C224 C 0.67694 0.43565 0.81741 0.0
H225 H 0.54336 0.30197 0.78864 0.0
H226 H 0.63535 0.39403 0.76077 0.0
C227 C 0.66912 0.42796 0.85855 0.0
C228 C 0.53437 0.51467 0.21964 0.0
C229 C 0.56795 0.52848 0.18393 0.0
H230 H 0.4445 0.47927 0.24769 0.0
C231 C 0.53466 0.51559 0.1481 0.0
H232 H 0.55882 0.52451 0.24771 0.0
C233 C 0.46873 0.48839 0.14809 0.0
C234 C 0.43541 0.47543 0.18391 0.0
H235 H 0.55945 0.52573 0.12016 0.0
H236 H 0.44396 0.4783 0.12014 0.0
C237 C 0.46897 0.48917 0.21963 0.0
C238 C 0.02086 0.53438 0.48721 0.0
C239 C 0.04117 0.56779 0.52302 0.0
H240 H 0.96777 0.44342 0.45928 0.0
C241 C 0.02155 0.53415 0.55874 0.0
H242 H 0.03547 0.55922 0.45926 0.0
C243 C 0.9818 0.46857 0.55875 0.0
C244 C 0.96213 0.4349 0.52304 0.0
H245 H 0.03616 0.55871 0.58679 0.0
H246 H 0.96721 0.44403 0.58681 0.0
C247 C 0.98241 0.46828 0.48722 0.0
C248 C 0.48824 0.02171 0.81876 0.0
C249 C 0.47572 0.04244 0.85458 0.0
H250 H 0.52458 0.96747 0.79077 0.0
C251 C 0.48918 0.02233 0.89029 0.0
H252 H 0.47835 0.03659 0.79081 0.0
C253 C 0.51396 0.98173 0.89027 0.0
C254 C 0.52734 0.96161 0.85453 0.0
H255 H 0.47959 0.03718 0.91835 0.0
H256 H 0.5236 0.96688 0.91831 0.0
C257 C 0.51475 0.98235 0.81873 0.0
C258 C 0.51535 0.53431 0.51056 0.0
C259 C 0.52846 0.56776 0.47476 0.0
H260 H 0.47757 0.44332 0.53844 0.0
C261 C 0.51462 0.53419 0.43902 0.0
H262 H 0.52546 0.5591 0.53851 0.0
C263 C 0.48891 0.46862 0.43898 0.0
C264 C 0.47487 0.4349 0.47467 0.0
H265 H 0.52458 0.55878 0.41099 0.0
H266 H 0.47908 0.44413 0.41091 0.0
C267 C 0.48783 0.46822 0.51051 0.0
C268 C 0.98145 0.51464 0.77815 0.0
C269 C 0.96177 0.52857 0.81385 0.0
H270 H 0.03576 0.479 0.75012 0.0
C271 C 0.98214 0.51566 0.84969 0.0
H272 H 0.96687 0.52449 0.75007 0.0
C273 C 0.02073 0.48831 0.84971 0.0
C274 C 0.04102 0.47523 0.81391 0.0
H275 H 0.96756 0.5259 0.87762 0.0
H276 H 0.03539 0.47822 0.87767 0.0
C277 C 0.02124 0.48899 0.77817 0.0
C278 C 0.46895 0.9817 0.10857 0.0
C279 C 0.43544 0.96165 0.1443 0.0
H280 H 0.55877 0.03694 0.08049 0.0
C281 C 0.46877 0.98231 0.18011 0.0
H282 H 0.44446 0.96691 0.08052 0.0
C283 C 0.53465 0.02153 0.18009 0.0
C284 C 0.56792 0.04219 0.14426 0.0
H285 H 0.44405 0.96748 0.20807 0.0
H286 H 0.55943 0.03636 0.20803 0.0
C287 C 0.53433 0.02214 0.10855 0.0
C288 C 0.29622 0.27773 0.28819 0.0
C289 C 0.26448 0.30945 0.30042 0.0
H290 H 0.34841 0.2329 0.30587 0.0
C291 C 0.25328 0.31203 0.34089 0.0
H292 H 0.30547 0.27484 0.2572 0.0
C293 C 0.27745 0.28758 0.36875 0.0
C294 C 0.3139 0.26072 0.35669 0.0
H295 H 0.22845 0.33567 0.35119 0.0
H296 H 0.27079 0.29331 0.39979 0.0
C297 C 0.32101 0.25386 0.3161 0.0
C298 C 0.01194 0.28742 0.62907 0.0
C299 C 0.94859 0.26049 0.64104 0.0
H300 H 0.10895 0.33556 0.64677 0.0
C301 C 0.93447 0.25351 0.68161 0.0
H302 H 0.02443 0.29323 0.59804 0.0
C303 C 0.98302 0.27735 0.70959 0.0
C304 C 0.04652 0.30917 0.69745 0.0
H305 H 0.88608 0.23248 0.69176 0.0
H306 H 0.97076 0.27438 0.74057 0.0
C307 C 0.06044 0.31184 0.657 0.0
C308 C 0.72568 0.01585 0.95901 0.0
C309 C 0.69123 0.95236 0.97118 0.0
H310 H 0.77293 0.11305 0.97663 0.0
C311 C 0.68624 0.93837 0.01175 0.0
H312 H 0.73059 0.02818 0.92797 0.0
C313 C 0.71091 0.98704 0.03965 0.0
C314 C 0.74044 0.05054 0.02747 0.0
H315 H 0.66047 0.88984 0.02202 0.0
H316 H 0.7032 0.97472 0.07069 0.0
C317 C 0.74979 0.06451 0.98691 0.0
C318 C 0.72603 0.71573 0.36898 0.0
C319 C 0.68954 0.74258 0.357 0.0
H320 H 0.77508 0.66777 0.35128 0.0
C321 C 0.68244 0.74961 0.31643 0.0
H322 H 0.73269 0.7099 0.4 0.0
C323 C 0.70725 0.72588 0.28845 0.0
C324 C 0.73901 0.69413 0.30059 0.0
H325 H 0.65501 0.77058 0.30626 0.0
H326 H 0.69799 0.72886 0.25747 0.0
C327 C 0.75023 0.69143 0.34105 0.0
C328 C 0.99095 0.71556 0.62875 0.0
C329 C 0.05429 0.74259 0.64075 0.0
H330 H 0.89393 0.66753 0.64644 0.0
C331 C 0.06839 0.74983 0.68132 0.0
H332 H 0.97847 0.70955 0.59772 0.0
C333 C 0.01984 0.72616 0.70929 0.0
C334 C 0.95634 0.69425 0.69715 0.0
H335 H 0.11679 0.77094 0.6915 0.0
H336 H 0.03209 0.72933 0.74028 0.0
C337 C 0.94243 0.69132 0.65668 0.0
C338 C 0.29241 0.01684 0.03983 0.0
C339 C 0.26287 0.95334 0.02763 0.0
H340 H 0.34282 0.11405 0.02223 0.0
C341 C 0.25348 0.93941 0.98707 0.0
H342 H 0.30014 0.02913 0.07087 0.0
C343 C 0.27756 0.9881 0.95919 0.0
C344 C 0.31201 0.05158 0.97137 0.0
H345 H 0.23033 0.89088 0.97677 0.0
H346 H 0.27261 0.97578 0.92814 0.0
C347 C 0.31705 0.06553 0.01194 0.0
C348 C 0.95943 0.22961 0.19615 0.0
C349 C 0.93586 0.21955 0.15741 0.0
H350 H 0.0416 0.27146 0.23316 0.0
C351 C 0.97856 0.24038 0.12561 0.0
H352 H 0.92755 0.21428 0.22119 0.0
C353 C 0.04372 0.27174 0.13244 0.0
C354 C 0.06731 0.28435 0.17119 0.0
H355 H 0.96156 0.23299 0.09544 0.0
H356 H 0.07561 0.28834 0.10741 0.0
C357 C 0.0246 0.2625 0.20298 0.0
C358 C 0.70817 0.03326 0.50441 0.0
C359 C 0.77432 0.0666 0.5071 0.0
H360 H 0.62477 0.94399 0.49319 0.0
C361 C 0.80774 0.03421 0.50172 0.0
H362 H 0.68157 0.05747 0.50841 0.0
C363 C 0.77508 0.96887 0.49449 0.0
C364 C 0.70896 0.93593 0.49108 0.0
H365 H 0.85881 0.05916 0.50388 0.0
H366 H 0.8014 0.94435 0.49079 0.0
C367 C 0.67582 0.96866 0.49571 0.0
C368 C 0.77351 0.73188 0.86562 0.0
C369 C 0.78453 0.71949 0.82682 0.0
H370 H 0.72996 0.77031 0.90276 0.0
C371 C 0.76354 0.74136 0.7951 0.0
H372 H 0.7889 0.71526 0.89059 0.0
C373 C 0.73112 0.77408 0.80205 0.0
C374 C 0.7176 0.78395 0.84083 0.0
H375 H 0.7716 0.73254 0.76489 0.0
H376 H 0.7145 0.78945 0.77707 0.0
C377 C 0.73957 0.76308 0.87255 0.0
C378 C 0.97874 0.74129 0.20308 0.0
C379 C 0.93605 0.71949 0.17128 0.0
H380 H 0.07578 0.78948 0.22131 0.0
C381 C 0.95965 0.73217 0.13253 0.0
H382 H 0.96172 0.73227 0.23326 0.0
C383 C 0.02482 0.76356 0.12572 0.0
C384 C 0.0675 0.78433 0.15753 0.0
H385 H 0.92778 0.71562 0.1075 0.0
H386 H 0.04182 0.771 0.09555 0.0
C387 C 0.04392 0.7742 0.19627 0.0
C388 C 0.29462 0.96874 0.50239 0.0
C389 C 0.22868 0.93597 0.5066 0.0
H390 H 0.37783 0.05756 0.48999 0.0
C391 C 0.19552 0.96887 0.50268 0.0
H392 H 0.32099 0.94411 0.50529 0.0
C393 C 0.22827 0.0342 0.4954 0.0
C394 C 0.29416 0.06661 0.49048 0.0
H395 H 0.14462 0.94433 0.50604 0.0
H396 H 0.20216 0.05912 0.49287 0.0
C397 C 0.32697 0.03332 0.49364 0.0
C398 C 0.2393 0.26252 0.79541 0.0
C399 C 0.21844 0.28452 0.82713 0.0
H400 H 0.28822 0.21432 0.77736 0.0
C401 C 0.2296 0.27224 0.86593 0.0
H402 H 0.23113 0.27124 0.7652 0.0
C403 C 0.26354 0.24103 0.87285 0.0
C404 C 0.28538 0.22004 0.84112 0.0
H405 H 0.21432 0.28896 0.8909 0.0
H406 H 0.27326 0.23389 0.90305 0.0
C407 C 0.27171 0.22979 0.80235 0.0
loop_
_geom_bond_atom_site_label_1
_geom_bond_atom_site_label_2
_geom_bond_distance
_geom_bond_site_symmetry_2
_ccdc_geom_bond_type
C0 O2 1.247 . S
C0 O4 1.258 . S
C1 O8 1.247 . S
C1 O9 1.258 . S
O2 C0 1.247 . S
O2 Zn3 2.028 . S
Zn3 O2 2.028 . S
Zn3 O7 2.035 . S
Zn3 O9 2.035 . S
Zn3 O10 2.028 . S
O4 C0 1.258 . S
O4 Zn5 2.035 . S
Zn5 O4 2.035 . S
Zn5 O6 2.028 . S
Zn5 O8 2.028 . S
Zn5 O11 2.035 . S
O6 Zn5 2.028 . S
O6 C12 1.247 . S
O7 Zn3 2.035 . S
O7 C12 1.258 . S
O8 C1 1.247 . S
O8 Zn5 2.028 . S
O9 C1 1.258 . S
O9 Zn3 2.035 . S
O10 Zn3 2.028 . S
O10 C13 1.247 . S
O11 Zn5 2.035 . S
O11 C13 1.258 . S
C12 O6 1.247 . S
C12 O7 1.258 . S
C13 O10 1.247 . S
C13 O11 1.258 . S
C14 O16 1.247 . S
C14 O18 1.258 . S
C15 O22 1.247 . S
C15 O23 1.258 . S
O16 C14 1.247 . S
O16 Zn17 2.028 . S
Zn17 O16 2.028 . S
Zn17 O21 2.035 . S
Zn17 O23 2.035 . S
Zn17 O24 2.028 . S
O18 C14 1.258 . S
O18 Zn19 2.035 . S
Zn19 O18 2.035 . S
Zn19 O20 2.028 . S
Zn19 O22 2.028 . S
Zn19 O25 2.035 . S
O20 Zn19 2.028 . S
O20 C26 1.247 . S
O21 Zn17 2.035 . S
O21 C26 1.258 . S
O22 C15 1.247 . S
O22 Zn19 2.028 . S
O23 C15 1.258 . S
O23 Zn17 2.035 . S
O24 Zn17 2.028 . S
O24 C27 1.247 . S
O25 Zn19 2.035 . S
O25 C27 1.258 . S
C26 O20 1.247 . S
C26 O21 1.258 . S
C27 O24 1.247 . S
C27 O25 1.258 . S
C28 O30 1.247 . S
C28 O32 1.258 . S
C29 O36 1.247 . S
C29 O37 1.258 . S
O30 C28 1.247 . S
O30 Zn31 2.028 . S
Zn31 O30 2.028 . S
Zn31 O35 2.035 . S
Zn31 O37 2.035 . S
Zn31 O38 2.028 . S
O32 C28 1.258 . S
O32 Zn33 2.035 . S
Zn33 O32 2.035 . S
Zn33 O34 2.028 . S
Zn33 O36 2.028 . S
Zn33 O39 2.035 . S
O34 Zn33 2.028 . S
O34 C40 1.247 . S
O35 Zn31 2.035 . S
O35 C40 1.258 . S
O36 C29 1.247 . S
O36 Zn33 2.028 . S
O37 C29 1.258 . S
O37 Zn31 2.035 . S
O38 Zn31 2.028 . S
O38 C41 1.247 . S
O39 Zn33 2.035 . S
O39 C41 1.258 . S
C40 O34 1.247 . S
C40 O35 1.258 . S
C41 O38 1.247 . S
C41 O39 1.258 . S
C42 O44 1.247 . S
C42 O46 1.258 . S
C43 O50 1.247 . S
C43 O51 1.258 . S
O44 C42 1.247 . S
O44 Zn45 2.028 . S
Zn45 O44 2.028 . S
Zn45 O49 2.035 . S
Zn45 O51 2.035 . S
Zn45 O52 2.028 . S
O46 C42 1.258 . S
O46 Zn47 2.035 . S
Zn47 O46 2.035 . S
Zn47 O48 2.028 . S
Zn47 O50 2.028 . S
Zn47 O53 2.035 . S
O48 Zn47 2.028 . S
O48 C54 1.247 . S
O49 Zn45 2.035 . S
O49 C54 1.258 . S
O50 C43 1.247 . S
O50 Zn47 2.028 . S
O51 C43 1.258 . S
O51 Zn45 2.035 . S
O52 Zn45 2.028 . S
O52 C55 1.247 . S
O53 Zn47 2.035 . S
O53 C55 1.258 . S
C54 O48 1.247 . S
C54 O49 1.258 . S
C55 O52 1.247 . S
C55 O53 1.258 . S
C56 O58 1.247 . S
C56 O60 1.258 . S
C57 O64 1.247 . S
C57 O65 1.258 . S
O58 C56 1.247 . S
O58 Zn59 2.028 . S
Zn59 O58 2.028 . S
Zn59 O63 2.035 . S
Zn59 O65 2.035 . S
Zn59 O66 2.028 . S
O60 C56 1.258 . S
O60 Zn61 2.035 . S
Zn61 O60 2.035 . S
Zn61 O62 2.028 . S
Zn61 O64 2.028 . S
Zn61 O67 2.035 . S
O62 Zn61 2.028 . S
O62 C68 1.247 . S
O63 Zn59 2.035 . S
O63 C68 1.258 . S
O64 C57 1.247 . S
O64 Zn61 2.028 . S
O65 C57 1.258 . S
O65 Zn59 2.035 . S
O66 Zn59 2.028 . S
O66 C69 1.247 . S
O67 Zn61 2.035 . S
O67 C69 1.258 . S
C68 O62 1.247 . S
C68 O63 1.258 . S
C69 O66 1.247 . S
C69 O67 1.258 . S
C70 O72 1.247 . S
C70 O74 1.258 . S
C71 O78 1.247 . S
C71 O79 1.258 . S
O72 C70 1.247 . S
O72 Zn73 2.028 . S
Zn73 O72 2.028 . S
Zn73 O77 2.035 . S
Zn73 O79 2.035 . S
Zn73 O80 2.028 . S
O74 C70 1.258 . S
O74 Zn75 2.035 . S
Zn75 O74 2.035 . S
Zn75 O76 2.028 . S
Zn75 O78 2.028 . S
Zn75 O81 2.035 . S
O76 Zn75 2.028 . S
O76 C82 1.247 . S
O77 Zn73 2.035 . S
O77 C82 1.258 . S
O78 C71 1.247 . S
O78 Zn75 2.028 . S
O79 C71 1.258 . S
O79 Zn73 2.035 . S
O80 Zn73 2.028 . S
O80 C83 1.247 . S
O81 Zn75 2.035 . S
O81 C83 1.258 . S
C82 O76 1.247 . S
C82 O77 1.258 . S
C83 O80 1.247 . S
C83 O81 1.258 . S
C84 O86 1.247 . S
C84 O88 1.258 . S
C85 O92 1.247 . S
C85 O93 1.258 . S
O86 C84 1.247 . S
O86 Zn87 2.028 . S
Zn87 O86 2.028 . S
Zn87 O91 2.035 . S
Zn87 O93 2.035 . S
Zn87 O94 2.028 . S
O88 C84 1.258 . S
O88 Zn89 2.035 . S
Zn89 O88 2.035 . S
Zn89 O90 2.028 . S
Zn89 O92 2.028 . S
Zn89 O95 2.035 . S
O90 Zn89 2.028 . S
O90 C96 1.247 . S
O91 Zn87 2.035 . S
O91 C96 1.258 . S
O92 C85 1.247 . S
O92 Zn89 2.028 . S
O93 C85 1.258 . S
O93 Zn87 2.035 . S
O94 Zn87 2.028 . S
O94 C97 1.247 . S
O95 Zn89 2.035 . S
O95 C97 1.258 . S
C96 O90 1.247 . S
C96 O91 1.258 . S
C97 O94 1.247 . S
C97 O95 1.258 . S
C98 O100 1.247 . S
C98 O102 1.258 . S
C99 O106 1.247 . S
C99 O107 1.258 . S
O100 C98 1.247 . S
O100 Zn101 2.028 . S
Zn101 O100 2.028 . S
Zn101 O105 2.035 . S
Zn101 O107 2.035 . S
Zn101 O108 2.028 . S
O102 C98 1.258 . S
O102 Zn103 2.035 . S
Zn103 O102 2.035 . S
Zn103 O104 2.028 . S
Zn103 O106 2.028 . S
Zn103 O109 2.035 . S
O104 Zn103 2.028 . S
O104 C110 1.247 . S
O105 Zn101 2.035 . S
O105 C110 1.258 . S
O106 C99 1.247 . S
O106 Zn103 2.028 . S
O107 C99 1.258 . S
O107 Zn101 2.035 . S
O108 Zn101 2.028 . S
O108 C111 1.247 . S
O109 Zn103 2.035 . S
O109 C111 1.258 . S
C110 O104 1.247 . S
C110 O105 1.258 . S
C111 O108 1.247 . S
C111 O109 1.258 . S
C112 O114 1.247 . S
C112 O116 1.258 . S
C113 O120 1.247 . S
C113 O121 1.258 . S
O114 C112 1.247 . S
O114 Zn115 2.028 . S
Zn115 O114 2.028 . S
Zn115 O119 2.035 . S
Zn115 O121 2.035 . S
Zn115 O122 2.028 . S
O116 C112 1.258 . S
O116 Zn117 2.035 . S
Zn117 O116 2.035 . S
Zn117 O118 2.028 . S
Zn117 O120 2.028 . S
Zn117 O123 2.035 . S
O118 Zn117 2.028 . S
O118 C124 1.247 . S
O119 Zn115 2.035 . S
O119 C124 1.258 . S
O120 C113 1.247 . S
O120 Zn117 2.028 . S
O121 C113 1.258 . S
O121 Zn115 2.035 . S
O122 Zn115 2.028 . S
O122 C125 1.247 . S
O123 Zn117 2.035 . S
O123 C125 1.258 . S
C124 O118 1.247 . S
C124 O119 1.258 . S
C125 O122 1.247 . S
C125 O123 1.258 . S
C126 O128 1.247 . S
C126 O130 1.258 . S
C127 O134 1.247 . S
C127 O135 1.258 . S
O128 C126 1.247 . S
O128 Zn129 2.028 . S
Zn129 O128 2.028 . S
Zn129 O133 2.035 . S
Zn129 O135 2.035 . S
Zn129 O136 2.028 . S
O130 C126 1.258 . S
O130 Zn131 2.035 . S
Zn131 O130 2.035 . S
Zn131 O132 2.028 . S
Zn131 O134 2.028 . S
Zn131 O137 2.035 . S
O132 Zn131 2.028 . S
O132 C138 1.247 . S
O133 Zn129 2.035 . S
O133 C138 1.258 . S
O134 C127 1.247 . S
O134 Zn131 2.028 . S
O135 C127 1.258 . S
O135 Zn129 2.035 . S
O136 Zn129 2.028 . S
O136 C139 1.247 . S
O137 Zn131 2.035 . S
O137 C139 1.258 . S
C138 O132 1.247 . S
C138 O133 1.258 . S
C139 O136 1.247 . S
C139 O137 1.258 . S
C140 O142 1.247 . S
C140 O144 1.258 . S
C141 O148 1.247 . S
C141 O149 1.258 . S
O142 C140 1.247 . S
O142 Zn143 2.028 . S
Zn143 O142 2.028 . S
Zn143 O147 2.035 . S
Zn143 O149 2.035 . S
Zn143 O150 2.028 . S
O144 C140 1.258 . S
O144 Zn145 2.035 . S
Zn145 O144 2.035 . S
Zn145 O146 2.028 . S
Zn145 O148 2.028 . S
Zn145 O151 2.035 . S
O146 Zn145 2.028 . S
O146 C152 1.247 . S
O147 Zn143 2.035 . S
O147 C152 1.258 . S
O148 C141 1.247 . S
O148 Zn145 2.028 . S
O149 C141 1.258 . S
O149 Zn143 2.035 . S
O150 Zn143 2.028 . S
O150 C153 1.247 . S
O151 Zn145 2.035 . S
O151 C153 1.258 . S
C152 O146 1.247 . S
C152 O147 1.258 . S
C153 O150 1.247 . S
C153 O151 1.258 . S
C154 O156 1.247 . S
C154 O158 1.258 . S
C155 O162 1.247 . S
C155 O163 1.258 . S
O156 C154 1.247 . S
O156 Zn157 2.028 . S
Zn157 O156 2.028 . S
Zn157 O161 2.035 . S
Zn157 O163 2.035 . S
Zn157 O164 2.028 . S
O158 C154 1.258 . S
O158 Zn159 2.035 . S
Zn159 O158 2.035 . S
Zn159 O160 2.028 . S
Zn159 O162 2.028 . S
Zn159 O165 2.035 . S
O160 Zn159 2.028 . S
O160 C166 1.247 . S
O161 Zn157 2.035 . S
O161 C166 1.258 . S
O162 C155 1.247 . S
O162 Zn159 2.028 . S
O163 C155 1.258 . S
O163 Zn157 2.035 . S
O164 Zn157 2.028 . S
O164 C167 1.247 . S
O165 Zn159 2.035 . S
O165 C167 1.258 . S
C166 O160 1.247 . S
C166 O161 1.258 . S
C167 O164 1.247 . S
C167 O165 1.258 . S
C168 C169 1.387 . S
C168 H172 0.950 . S
C168 C177 1.390 . S
C169 C168 1.387 . S
C169 C171 1.387 . S
H170 C177 0.950 . S
C171 C169 1.387 . S
C171 C173 1.390 . S
C171 H175 0.950 . S
H172 C168 0.950 . S
C173 C171 1.390 . S
C173 C174 1.387 . S
C173 H176 0.950 . S
C174 C173 1.387 . S
C174 C177 1.387 . S
H175 C171 0.950 . S
H176 C173 0.950 . S
C177 C168 1.390 . S
C177 H170 0.950 . S
C177 C174 1.387 . S
C178 C179 1.387 . S
C178 H182 0.950 . S
C178 C187 1.390 . S
C179 C178 1.387 . S
C179 C181 1.387 . S
H180 C187 0.950 . S
C181 C179 1.387 . S
C181 C183 1.390 . S
C181 H185 0.950 . S
H182 C178 0.950 . S
C183 C181 1.390 . S
C183 C184 1.387 . S
C183 H186 0.950 . S
C184 C183 1.387 . S
C184 C187 1.387 . S
H185 C181 0.950 . S
H186 C183 0.950 . S
C187 C178 1.390 . S
C187 H180 0.950 . S
C187 C184 1.387 . S
C188 C189 1.387 . S
C188 H192 0.950 . S
C188 C197 1.390 . S
C189 C188 1.387 . S
C189 C191 1.387 . S
H190 C197 0.950 . S
C191 C189 1.387 . S
C191 C193 1.390 . S
C191 H195 0.950 . S
H192 C188 0.950 . S
C193 C191 1.390 . S
C193 C194 1.387 . S
C193 H196 0.950 . S
C194 C193 1.387 . S
C194 C197 1.387 . S
H195 C191 0.950 . S
H196 C193 0.950 . S
C197 C188 1.390 . S
C197 H190 0.950 . S
C197 C194 1.387 . S
C198 C199 1.387 . S
C198 H202 0.950 . S
C198 C207 1.390 . S
C199 C198 1.387 . S
C199 C201 1.387 . S
H200 C207 0.950 . S
C201 C199 1.387 . S
C201 C203 1.390 . S
C201 H205 0.950 . S
H202 C198 0.950 . S
C203 C201 1.390 . S
C203 C204 1.387 . S
C203 H206 0.950 . S
C204 C203 1.387 . S
C204 C207 1.387 . S
H205 C201 0.950 . S
H206 C203 0.950 . S
C207 C198 1.390 . S
C207 H200 0.950 . S
C207 C204 1.387 . S
C208 C209 1.387 . S
C208 H212 0.950 . S
C208 C217 1.390 . S
C209 C208 1.387 . S
C209 C211 1.387 . S
H210 C217 0.950 . S
C211 C209 1.387 . S
C211 C213 1.390 . S
C211 H215 0.950 . S
H212 C208 0.950 . S
C213 C211 1.390 . S
C213 C214 1.387 . S
C213 H216 0.950 . S
C214 C213 1.387 . S
C214 C217 1.387 . S
H215 C211 0.950 . S
H216 C213 0.950 . S
C217 C208 1.390 . S
C217 H210 0.950 . S
C217 C214 1.387 . S
C218 C219 1.387 . S
C218 H222 0.950 . S
C218 C227 1.390 . S
C219 C218 1.387 . S
C219 C221 1.387 . S
H220 C227 0.950 . S
C221 C219 1.387 . S
C221 C223 1.390 . S
C221 H225 0.950 . S
H222 C218 0.950 . S
C223 C221 1.390 . S
C223 C224 1.387 . S
C223 H226 0.950 . S
C224 C223 1.387 . S
C224 C227 1.387 . S
H225 C221 0.950 . S
H226 C223 0.950 . S
C227 C218 1.390 . S
C227 H220 0.950 . S
C227 C224 1.387 . S
C228 C229 1.387 . S
C228 H232 0.950 . S
C228 C237 1.390 . S
C229 C228 1.387 . S
C229 C231 1.387 . S
H230 C237 0.950 . S
C231 C229 1.387 . S
C231 C233 1.390 . S
C231 H235 0.950 . S
H232 C228 0.950 . S
C233 C231 1.390 . S
C233 C234 1.387 . S
C233 H236 0.950 . S
C234 C233 1.387 . S
C234 C237 1.387 . S
H235 C231 0.950 . S
H236 C233 0.950 . S
C237 C228 1.390 . S
C237 H230 0.950 . S
C237 C234 1.387 . S
C238 C239 1.387 . S
C238 H242 0.950 . S
C238 C247 1.390 1_455 S
C239 C238 1.387 . S
C239 C241 1.387 . S
H240 C247 0.950 . S
C241 C239 1.387 . S
C241 C243 1.390 1_455 S
C241 H245 0.950 . S
H242 C238 0.950 . S
C243 C241 1.390 1_655 S
C243 C244 1.387 . S
C243 H246 0.950 . S
C244 C243 1.387 . S
C244 C247 1.387 . S
H245 C241 0.950 . S
H246 C243 0.950 . S
C247 C238 1.390 1_655 S
C247 H240 0.950 . S
C247 C244 1.387 . S
C248 C249 1.387 . S
C248 H252 0.950 . S
C248 C257 1.390 1_545 S
C249 C248 1.387 . S
C249 C251 1.387 . S
H250 C257 0.950 . S
C251 C249 1.387 . S
C251 C253 1.390 1_545 S
C251 H255 0.950 . S
H252 C248 0.950 . S
C253 C251 1.390 1_565 S
C253 C254 1.387 . S
C253 H256 0.950 . S
C254 C253 1.387 . S
C254 C257 1.387 . S
H255 C251 0.950 . S
H256 C253 0.950 . S
C257 C248 1.390 1_565 S
C257 H250 0.950 . S
C257 C254 1.387 . S
C258 C259 1.387 . S
C258 H262 0.950 . S
C258 C267 1.390 . S
C259 C258 1.387 . S
C259 C261 1.387 . S
H260 C267 0.950 . S
C261 C259 1.387 . S
C261 C263 1.390 . S
C261 H265 0.950 . S
H262 C258 0.950 . S
C263 C261 1.390 . S
C263 C264 1.387 . S
C263 H266 0.950 . S
C264 C263 1.387 . S
C264 C267 1.387 . S
H265 C261 0.950 . S
H266 C263 0.950 . S
C267 C258 1.390 . S
C267 H260 0.950 . S
C267 C264 1.387 . S
C268 C269 1.387 . S
C268 H272 0.950 . S
C268 C277 1.390 1_655 S
C269 C268 1.387 . S
C269 C271 1.387 . S
H270 C277 0.950 . S
C271 C269 1.387 . S
C271 C273 1.390 1_655 S
C271 H275 0.950 . S
H272 C268 0.950 . S
C273 C271 1.390 1_455 S
C273 C274 1.387 . S
C273 H276 0.950 . S
C274 C273 1.387 . S
C274 C277 1.387 . S
H275 C271 0.950 . S
H276 C273 0.950 . S
C277 C268 1.390 1_455 S
C277 H270 0.950 . S
C277 C274 1.387 . S
C278 C279 1.387 . S
C278 H282 0.950 . S
C278 C287 1.390 1_565 S
C279 C278 1.387 . S
C279 C281 1.387 . S
H280 C287 0.950 . S
C281 C279 1.387 . S
C281 C283 1.390 1_565 S
C281 H285 0.950 . S
H282 C278 0.950 . S
C283 C281 1.390 1_545 S
C283 C284 1.387 . S
C283 H286 0.950 . S
C284 C283 1.387 . S
C284 C287 1.387 . S
H285 C281 0.950 . S
H286 C283 0.950 . S
C287 C278 1.390 1_545 S
C287 H280 0.950 . S
C287 C284 1.387 . S
C288 C289 1.387 . S
C288 H292 0.950 . S
C288 C297 1.390 . S
C289 C288 1.387 . S
C289 C291 1.387 . S
H290 C297 0.950 . S
C291 C289 1.387 . S
C291 C293 1.390 . S
C291 H295 0.950 . S
H292 C288 0.950 . S
C293 C291 1.390 . S
C293 C294 1.387 . S
C293 H296 0.950 . S
C294 C293 1.387 . S
C294 C297 1.387 . S
H295 C291 0.950 . S
H296 C293 0.950 . S
C297 C288 1.390 . S
C297 H290 0.950 . S
C297 C294 1.387 . S
C298 C299 1.387 1_455 S
C298 H302 0.950 . S
C298 C307 1.390 . S
C299 C298 1.387 1_655 S
C299 C301 1.387 . S
H300 C307 0.950 . S
C301 C299 1.387 . S
C301 C303 1.390 . S
C301 H305 0.950 . S
H302 C298 0.950 . S
C303 C301 1.390 . S
C303 C304 1.387 1_655 S
C303 H306 0.950 . S
C304 C303 1.387 1_455 S
C304 C307 1.387 . S
H305 C301 0.950 . S
H306 C303 0.950 . S
C307 C298 1.390 . S
C307 H300 0.950 . S
C307 C304 1.387 . S
C308 C309 1.387 . S
C308 H312 0.950 . S
C308 C317 1.390 1_566 S
C309 C308 1.387 . S
C309 C311 1.387 . S
H310 C317 0.950 . S
C311 C309 1.387 . S
C311 C313 1.390 1_566 S
C311 H315 0.950 . S
H312 C308 0.950 . S
C313 C311 1.390 1_544 S
C313 C314 1.387 . S
C313 H316 0.950 . S
C314 C313 1.387 . S
C314 C317 1.387 . S
H315 C311 0.950 . S
H316 C313 0.950 . S
C317 C308 1.390 1_544 S
C317 H310 0.950 . S
C317 C314 1.387 . S
C318 C319 1.387 . S
C318 H322 0.950 . S
C318 C327 1.390 . S
C319 C318 1.387 . S
C319 C321 1.387 . S
H320 C327 0.950 . S
C321 C319 1.387 . S
C321 C323 1.390 . S
C321 H325 0.950 . S
H322 C318 0.950 . S
C323 C321 1.390 . S
C323 C324 1.387 . S
C323 H326 0.950 . S
C324 C323 1.387 . S
C324 C327 1.387 . S
H325 C321 0.950 . S
H326 C323 0.950 . S
C327 C318 1.390 . S
C327 H320 0.950 . S
C327 C324 1.387 . S
C328 C329 1.387 1_655 S
C328 H332 0.950 . S
C328 C337 1.390 . S
C329 C328 1.387 1_455 S
C329 C331 1.387 . S
H330 C337 0.950 . S
C331 C329 1.387 . S
C331 C333 1.390 . S
C331 H335 0.950 . S
H332 C328 0.950 . S
C333 C331 1.390 . S
C333 C334 1.387 1_455 S
C333 H336 0.950 . S
C334 C333 1.387 1_655 S
C334 C337 1.387 . S
H335 C331 0.950 . S
H336 C333 0.950 . S
C337 C328 1.390 . S
C337 H330 0.950 . S
C337 C334 1.387 . S
C338 C339 1.387 . S
C338 H342 0.950 . S
C338 C347 1.390 1_564 S
C339 C338 1.387 . S
C339 C341 1.387 . S
H340 C347 0.950 . S
C341 C339 1.387 . S
C341 C343 1.390 1_564 S
C341 H345 0.950 . S
H342 C338 0.950 . S
C343 C341 1.390 1_546 S
C343 C344 1.387 . S
C343 H346 0.950 . S
C344 C343 1.387 . S
C344 C347 1.387 . S
H345 C341 0.950 . S
H346 C343 0.950 . S
C347 C338 1.390 1_546 S
C347 H340 0.950 . S
C347 C344 1.387 . S
C348 C349 1.387 . S
C348 H352 0.950 . S
C348 C357 1.390 1_655 S
C349 C348 1.387 . S
C349 C351 1.387 . S
H350 C357 0.950 . S
C351 C349 1.387 . S
C351 C353 1.390 1_655 S
C351 H355 0.950 . S
H352 C348 0.950 . S
C353 C351 1.390 1_455 S
C353 C354 1.387 . S
C353 H356 0.950 . S
C354 C353 1.387 . S
C354 C357 1.387 . S
H355 C351 0.950 . S
H356 C353 0.950 . S
C357 C348 1.390 1_455 S
C357 H350 0.950 . S
C357 C354 1.387 . S
C358 C359 1.387 . S
C358 H362 0.950 . S
C358 C367 1.390 1_545 S
C359 C358 1.387 . S
C359 C361 1.387 . S
H360 C367 0.950 . S
C361 C359 1.387 . S
C361 C363 1.390 1_545 S
C361 H365 0.950 . S
H362 C358 0.950 . S
C363 C361 1.390 1_565 S
C363 C364 1.387 . S
C363 H366 0.950 . S
C364 C363 1.387 . S
C364 C367 1.387 . S
H365 C361 0.950 . S
H366 C363 0.950 . S
C367 C358 1.390 1_565 S
C367 H360 0.950 . S
C367 C364 1.387 . S
C368 C369 1.387 . S
C368 H372 0.950 . S
C368 C377 1.390 . S
C369 C368 1.387 . S
C369 C371 1.387 . S
H370 C377 0.950 . S
C371 C369 1.387 . S
C371 C373 1.390 . S
C371 H375 0.950 . S
H372 C368 0.950 . S
C373 C371 1.390 . S
C373 C374 1.387 . S
C373 H376 0.950 . S
C374 C373 1.387 . S
C374 C377 1.387 . S
H375 C371 0.950 . S
H376 C373 0.950 . S
C377 C368 1.390 . S
C377 H370 0.950 . S
C377 C374 1.387 . S
C378 C379 1.387 . S
C378 H382 0.950 . S
C378 C387 1.390 1_655 S
C379 C378 1.387 . S
C379 C381 1.387 . S
H380 C387 0.950 . S
C381 C379 1.387 . S
C381 C383 1.390 1_655 S
C381 H385 0.950 . S
H382 C378 0.950 . S
C383 C381 1.390 1_455 S
C383 C384 1.387 . S
C383 H386 0.950 . S
C384 C383 1.387 . S
C384 C387 1.387 . S
H385 C381 0.950 . S
H386 C383 0.950 . S
C387 C378 1.390 1_455 S
C387 H380 0.950 . S
C387 C384 1.387 . S
C388 C389 1.387 . S
C388 H392 0.950 . S
C388 C397 1.390 1_565 S
C389 C388 1.387 . S
C389 C391 1.387 . S
H390 C397 0.950 . S
C391 C389 1.387 . S
C391 C393 1.390 1_565 S
C391 H395 0.950 . S
H392 C388 0.950 . S
C393 C391 1.390 1_545 S
C393 C394 1.387 . S
C393 H396 0.950 . S
C394 C393 1.387 . S
C394 C397 1.387 . S
H395 C391 0.950 . S
H396 C393 0.950 . S
C397 C388 1.390 1_545 S
C397 H390 0.950 . S
C397 C394 1.387 . S
C398 C399 1.387 . S
C398 H402 0.950 . S
C398 C407 1.390 . S
C399 C398 1.387 . S
C399 C401 1.387 . S
H400 C407 0.950 . S
C401 C399 1.387 . S
C401 C403 1.390 . S
C401 H405 0.950 . S
H402 C398 0.950 . S
C403 C401 1.390 . S
C403 C404 1.387 . S
C403 H406 0.950 . S
C404 C403 1.387 . S
C404 C407 1.387 . S
H405 C401 0.950 . S
H406 C403 0.950 . S
C407 C398 1.390 . S
C407 H400 0.950 . S
C407 C404 1.387 . S
C169 C112 2.130 . S
C174 C1 2.124 . S
C179 C27 2.123 . S
C184 C126 2.128 . S
C189 C29 2.126 . S
C194 C141 2.125 . S
C199 C43 2.124 . S
C204 C154 2.130 . S
C209 C84 2.128 . S
C214 C57 2.123 . S
C219 C71 2.124 . S
C224 C99 2.123 . S
C229 C55 1.489 . S
C234 C13 1.489 . S
C239 C69 1.488 . S
C244 C15 1.488 . S
C249 C83 1.488 . S
C254 C41 1.488 . S
C259 C96 1.489 . S
C264 C138 1.489 . S
C269 C111 1.489 . S
C274 C153 1.489 . S
C279 C124 1.490 . S
C284 C166 1.490 . S
C289 C0 1.904 . S
C294 C127 1.899 . S
C299 C26 1.907 . S
C304 C140 1.906 . S
C309 C28 1.904 . S
C314 C155 1.900 . S
C319 C85 1.903 . S
C324 C42 1.906 . S
C329 C56 1.907 . S
C334 C98 1.906 . S
C339 C113 1.903 . S
C344 C70 1.907 . S
C349 C167 1.485 . S
C354 C12 1.486 . S
C359 C14 1.488 . S
C364 C97 1.486 . S
C369 C110 1.487 . S
C374 C40 1.486 . S
C379 C54 1.486 . S
C384 C125 1.485 . S
C389 C68 1.488 . S
C394 C139 1.486 . S
C399 C152 1.486 . S
C404 C82 1.486 . S
