# Generated by pormake.
# Topology ukc, (4)-cn, num edge types: 1
# Building blocks:
#     Node 0, Type 0, BuildingBlock: QUQFOY_clean_sbu_1, # of connection points: 4
#     Node 1, Type 0, BuildingBlock: QUQFOY_clean_sbu_1, # of connection points: 4
#     Node 2, Type 0, BuildingBlock: QUQFOY_clean_sbu_1, # of connection points: 4
#     Node 3, Type 0, BuildingBlock: QUQFOY_clean_sbu_1, # of connection points: 4
#     Node 4, Type 0, BuildingBlock: QUQFOY_clean_sbu_1, # of connection points: 4
#     Node 5, Type 0, BuildingBlock: QUQFOY_clean_sbu_1, # of connection points: 4
#     Node 6, Type 0, BuildingBlock: QUQFOY_clean_sbu_1, # of connection points: 4
#     Node 7, Type 0, BuildingBlock: QUQFOY_clean_sbu_1, # of connection points: 4
#     Node 8, Type 0, BuildingBlock: QUQFOY_clean_sbu_1, # of connection points: 4
#     Node 9, Type 0, BuildingBlock: QUQFOY_clean_sbu_1, # of connection points: 4
#     Node 10, Type 0, BuildingBlock: QUQFOY_clean_sbu_1, # of connection points: 4
#     Node 11, Type 0, BuildingBlock: QUQFOY_clean_sbu_1, # of connection points: 4
#     Node 12, Type 0, BuildingBlock: QUQFOY_clean_sbu_1, # of connection points: 4
#     Node 13, Type 0, BuildingBlock: QUQFOY_clean_sbu_1, # of connection points: 4
#     Node 14, Type 0, BuildingBlock: QUQFOY_clean_sbu_1, # of connection points: 4
#     Node 15, Type 0, BuildingBlock: QUQFOY_clean_sbu_1, # of connection points: 4
#     Node 16, Type 0, BuildingBlock: QUQFOY_clean_sbu_1, # of connection points: 4
#     Node 17, Type 0, BuildingBlock: QUQFOY_clean_sbu_1, # of connection points: 4
#     Node 18, Type 0, BuildingBlock: QUQFOY_clean_sbu_1, # of connection points: 4
#     Node 19, Type 0, BuildingBlock: QUQFOY_clean_sbu_1, # of connection points: 4
#     Node 20, Type 0, BuildingBlock: QUQFOY_clean_sbu_1, # of connection points: 4
#     Node 21, Type 0, BuildingBlock: QUQFOY_clean_sbu_1, # of connection points: 4
#     Node 22, Type 0, BuildingBlock: QUQFOY_clean_sbu_1, # of connection points: 4
#     Node 23, Type 0, BuildingBlock: QUQFOY_clean_sbu_1, # of connection points: 4
#     Node 24, Type 0, BuildingBlock: QUQFOY_clean_sbu_1, # of connection points: 4
#     Node 25, Type 0, BuildingBlock: QUQFOY_clean_sbu_1, # of connection points: 4
#     Node 26, Type 0, BuildingBlock: QUQFOY_clean_sbu_1, # of connection points: 4
#     Node 27, Type 0, BuildingBlock: QUQFOY_clean_sbu_1, # of connection points: 4
#     Node 28, Type 0, BuildingBlock: QUQFOY_clean_sbu_1, # of connection points: 4
#     Node 29, Type 0, BuildingBlock: QUQFOY_clean_sbu_1, # of connection points: 4
#     Node 30, Type 0, BuildingBlock: QUQFOY_clean_sbu_1, # of connection points: 4
#     Node 31, Type 0, BuildingBlock: QUQFOY_clean_sbu_1, # of connection points: 4
#     Edge 32, Type (0, 0), BuildingBlock: TEMPAE_clean_linker_10, # of connection points: 2
#     Edge 33, Type (0, 0), BuildingBlock: TEMPAE_clean_linker_10, # of connection points: 2
#     Edge 34, Type (0, 0), BuildingBlock: TEMPAE_clean_linker_10, # of connection points: 2
#     Edge 35, Type (0, 0), BuildingBlock: TEMPAE_clean_linker_10, # of connection points: 2
#     Edge 36, Type (0, 0), BuildingBlock: TEMPAE_clean_linker_10, # of connection points: 2
#     Edge 37, Type (0, 0), BuildingBlock: TEMPAE_clean_linker_10, # of connection points: 2
#     Edge 38, Type (0, 0), BuildingBlock: TEMPAE_clean_linker_10, # of connection points: 2
#     Edge 39, Type (0, 0), BuildingBlock: TEMPAE_clean_linker_10, # of connection points: 2
#     Edge 40, Type (0, 0), BuildingBlock: TEMPAE_clean_linker_10, # of connection points: 2
#     Edge 41, Type (0, 0), BuildingBlock: TEMPAE_clean_linker_10, # of connection points: 2
#     Edge 42, Type (0, 0), BuildingBlock: TEMPAE_clean_linker_10, # of connection points: 2
#     Edge 43, Type (0, 0), BuildingBlock: TEMPAE_clean_linker_10, # of connection points: 2
#     Edge 44, Type (0, 0), BuildingBlock: TEMPAE_clean_linker_10, # of connection points: 2
#     Edge 45, Type (0, 0), BuildingBlock: TEMPAE_clean_linker_10, # of connection points: 2
#     Edge 46, Type (0, 0), BuildingBlock: TEMPAE_clean_linker_10, # of connection points: 2
#     Edge 47, Type (0, 0), BuildingBlock: TEMPAE_clean_linker_10, # of connection points: 2
#     Edge 48, Type (0, 0), BuildingBlock: TEMPAE_clean_linker_10, # of connection points: 2
#     Edge 49, Type (0, 0), BuildingBlock: TEMPAE_clean_linker_10, # of connection points: 2
#     Edge 50, Type (0, 0), BuildingBlock: TEMPAE_clean_linker_10, # of connection points: 2
#     Edge 51, Type (0, 0), BuildingBlock: TEMPAE_clean_linker_10, # of connection points: 2
#     Edge 52, Type (0, 0), BuildingBlock: TEMPAE_clean_linker_10, # of connection points: 2
#     Edge 53, Type (0, 0), BuildingBlock: TEMPAE_clean_linker_10, # of connection points: 2
#     Edge 54, Type (0, 0), BuildingBlock: TEMPAE_clean_linker_10, # of connection points: 2
#     Edge 55, Type (0, 0), BuildingBlock: TEMPAE_clean_linker_10, # of connection points: 2
#     Edge 56, Type (0, 0), BuildingBlock: TEMPAE_clean_linker_10, # of connection points: 2
#     Edge 57, Type (0, 0), BuildingBlock: TEMPAE_clean_linker_10, # of connection points: 2
#     Edge 58, Type (0, 0), BuildingBlock: TEMPAE_clean_linker_10, # of connection points: 2
#     Edge 59, Type (0, 0), BuildingBlock: TEMPAE_clean_linker_10, # of connection points: 2
#     Edge 60, Type (0, 0), BuildingBlock: TEMPAE_clean_linker_10, # of connection points: 2
#     Edge 61, Type (0, 0), BuildingBlock: TEMPAE_clean_linker_10, # of connection points: 2
#     Edge 62, Type (0, 0), BuildingBlock: TEMPAE_clean_linker_10, # of connection points: 2
#     Edge 63, Type (0, 0), BuildingBlock: TEMPAE_clean_linker_10, # of connection points: 2
#     Edge 64, Type (0, 0), BuildingBlock: TEMPAE_clean_linker_10, # of connection points: 2
#     Edge 65, Type (0, 0), BuildingBlock: TEMPAE_clean_linker_10, # of connection points: 2
#     Edge 66, Type (0, 0), BuildingBlock: TEMPAE_clean_linker_10, # of connection points: 2
#     Edge 67, Type (0, 0), BuildingBlock: TEMPAE_clean_linker_10, # of connection points: 2
#     Edge 68, Type (0, 0), BuildingBlock: TEMPAE_clean_linker_10, # of connection points: 2
#     Edge 69, Type (0, 0), BuildingBlock: TEMPAE_clean_linker_10, # of connection points: 2
#     Edge 70, Type (0, 0), BuildingBlock: TEMPAE_clean_linker_10, # of connection points: 2
#     Edge 71, Type (0, 0), BuildingBlock: TEMPAE_clean_linker_10, # of connection points: 2
#     Edge 72, Type (0, 0), BuildingBlock: TEMPAE_clean_linker_10, # of connection points: 2
#     Edge 73, Type (0, 0), BuildingBlock: TEMPAE_clean_linker_10, # of connection points: 2
#     Edge 74, Type (0, 0), BuildingBlock: TEMPAE_clean_linker_10, # of connection points: 2
#     Edge 75, Type (0, 0), BuildingBlock: TEMPAE_clean_linker_10, # of connection points: 2
#     Edge 76, Type (0, 0), BuildingBlock: TEMPAE_clean_linker_10, # of connection points: 2
#     Edge 77, Type (0, 0), BuildingBlock: TEMPAE_clean_linker_10, # of connection points: 2
#     Edge 78, Type (0, 0), BuildingBlock: TEMPAE_clean_linker_10, # of connection points: 2
#     Edge 79, Type (0, 0), BuildingBlock: TEMPAE_clean_linker_10, # of connection points: 2
#     Edge 80, Type (0, 0), BuildingBlock: TEMPAE_clean_linker_10, # of connection points: 2
#     Edge 81, Type (0, 0), BuildingBlock: TEMPAE_clean_linker_10, # of connection points: 2
#     Edge 82, Type (0, 0), BuildingBlock: TEMPAE_clean_linker_10, # of connection points: 2
#     Edge 83, Type (0, 0), BuildingBlock: TEMPAE_clean_linker_10, # of connection points: 2
#     Edge 84, Type (0, 0), BuildingBlock: TEMPAE_clean_linker_10, # of connection points: 2
#     Edge 85, Type (0, 0), BuildingBlock: TEMPAE_clean_linker_10, # of connection points: 2
#     Edge 86, Type (0, 0), BuildingBlock: TEMPAE_clean_linker_10, # of connection points: 2
#     Edge 87, Type (0, 0), BuildingBlock: TEMPAE_clean_linker_10, # of connection points: 2
#     Edge 88, Type (0, 0), BuildingBlock: TEMPAE_clean_linker_10, # of connection points: 2
#     Edge 89, Type (0, 0), BuildingBlock: TEMPAE_clean_linker_10, # of connection points: 2
#     Edge 90, Type (0, 0), BuildingBlock: TEMPAE_clean_linker_10, # of connection points: 2
#     Edge 91, Type (0, 0), BuildingBlock: TEMPAE_clean_linker_10, # of connection points: 2
#     Edge 92, Type (0, 0), BuildingBlock: TEMPAE_clean_linker_10, # of connection points: 2
#     Edge 93, Type (0, 0), BuildingBlock: TEMPAE_clean_linker_10, # of connection points: 2
#     Edge 94, Type (0, 0), BuildingBlock: TEMPAE_clean_linker_10, # of connection points: 2
#     Edge 95, Type (0, 0), BuildingBlock: TEMPAE_clean_linker_10, # of connection points: 2
# Relax obj value: 0.073
# Max RMSD: 0.149
# Mean RMSD: 0.149
data_MOF--net-ukc--node1-QUQFOY_clean_sbu_1--edge1-TEMPAE_clean_linker_10
_symmetry_space_group_name_H-M    P1
_symmetry_Int_Tables_number       1
_symmetry_cell_setting            triclinic
loop_
_symmetry_equiv_pos_as_xyz
'x, y, z'
_cell_length_a     49.803327
_cell_length_b     49.803848
_cell_length_c     85.130231
_cell_angle_alpha  90.007984
_cell_angle_beta   90.008164
_cell_angle_gamma 89.988529
loop_
_atom_site_label
_atom_site_type_symbol
_atom_site_fract_x
_atom_site_fract_y
_atom_site_fract_z
_atom_type_partial_charge
O0 O 0.12182 0.36806 0.05679 0.0
Cd1 Cd 0.11952 0.35787 0.03348 0.0
Cd2 Cd 0.0709 0.38889 0.03633 0.0
O3 O 0.08384 0.39051 0.0595 0.0
O4 O 0.15496 0.34012 0.03038 0.0
O5 O 0.14322 0.37701 0.01777 0.0
C6 C 0.16119 0.359 0.02073 0.0
C7 C 0.05308 0.42751 0.02471 0.0
C8 C 0.10529 0.38084 0.06531 0.0
C9 C 0.06655 0.33121 0.02558 0.0
O10 O 0.05477 0.35333 0.02835 0.0
O11 O 0.09182 0.32877 0.02717 0.0
O12 O 0.04052 0.41505 0.03573 0.0
O13 O 0.07626 0.41846 0.02043 0.0
O14 O 0.87867 0.8651 0.30872 0.0
Cd15 Cd 0.89188 0.86496 0.28589 0.0
Cd16 Cd 0.86483 0.8134 0.2873 0.0
O17 O 0.86313 0.82369 0.3109 0.0
O18 O 0.90768 0.9016 0.28433 0.0
O19 O 0.87369 0.88839 0.26961 0.0
C20 C 0.89015 0.90716 0.27372 0.0
C21 C 0.82768 0.79153 0.27635 0.0
C22 C 0.8688 0.84633 0.31698 0.0
C23 C 0.92298 0.81521 0.27693 0.0
O24 O 0.90129 0.80198 0.27806 0.0
O25 O 0.92381 0.84007 0.28028 0.0
O26 O 0.84404 0.77929 0.28561 0.0
O27 O 0.83197 0.81664 0.27351 0.0
O28 O 0.38891 0.6301 0.55757 0.0
Cd29 Cd 0.39019 0.64023 0.53402 0.0
Cd30 Cd 0.44014 0.61065 0.53853 0.0
O31 O 0.42668 0.60759 0.56129 0.0
O32 O 0.35463 0.65835 0.53214 0.0
O33 O 0.36481 0.62175 0.51882 0.0
C34 C 0.34732 0.63982 0.52253 0.0
C35 C 0.46096 0.57374 0.52674 0.0
C36 C 0.40486 0.61735 0.56652 0.0
C37 C 0.44266 0.66867 0.52745 0.0
O38 O 0.45461 0.64749 0.53192 0.0
O39 O 0.41715 0.66964 0.52677 0.0
O40 O 0.47306 0.58797 0.53719 0.0
O41 O 0.43652 0.57996 0.52318 0.0
O42 O 0.61421 0.13902 0.80439 0.0
Cd43 Cd 0.6077 0.14179 0.78047 0.0
Cd44 Cd 0.63882 0.1898 0.78727 0.0
O45 O 0.6398 0.17417 0.80966 0.0
O46 O 0.58913 0.1068 0.77703 0.0
O47 O 0.62791 0.11663 0.76591 0.0
C48 C 0.60902 0.0994 0.76842 0.0
C49 C 0.67666 0.21107 0.77679 0.0
C50 C 0.62748 0.15315 0.8141 0.0
C51 C 0.58201 0.19551 0.77435 0.0
O52 O 0.6029 0.20602 0.78029 0.0
O53 O 0.58035 0.17021 0.77245 0.0
O54 O 0.66229 0.22226 0.78752 0.0
O55 O 0.67021 0.18714 0.77232 0.0
O56 O 0.11967 0.65262 0.44434 0.0
Cd57 Cd 0.11622 0.65207 0.46844 0.0
Cd58 Cd 0.0782 0.61612 0.46071 0.0
O59 O 0.09964 0.61396 0.43992 0.0
O60 O 0.14975 0.67057 0.47509 0.0
O61 O 0.14098 0.62826 0.48104 0.0
C62 C 0.15746 0.6483 0.48133 0.0
C63 C 0.06183 0.57746 0.47285 0.0
C64 C 0.11351 0.63368 0.43505 0.0
C65 C 0.06066 0.67016 0.47277 0.0
O66 O 0.05481 0.64991 0.46433 0.0
O67 O 0.08449 0.67333 0.4778 0.0
O68 O 0.05216 0.58575 0.45968 0.0
O69 O 0.08166 0.59056 0.47893 0.0
O70 O 0.6061 0.8692 0.69167 0.0
Cd71 Cd 0.6051 0.86675 0.71582 0.0
Cd72 Cd 0.64102 0.82719 0.70903 0.0
O73 O 0.64387 0.84719 0.68779 0.0
O74 O 0.58574 0.90046 0.72133 0.0
O75 O 0.62749 0.89243 0.72873 0.0
C76 C 0.6073 0.90869 0.72815 0.0
C77 C 0.67943 0.81069 0.72147 0.0
C78 C 0.62485 0.86168 0.68259 0.0
C79 C 0.58604 0.81139 0.72073 0.0
O80 O 0.60674 0.80466 0.7129 0.0
O81 O 0.58285 0.8356 0.72509 0.0
O82 O 0.67081 0.80041 0.70853 0.0
O83 O 0.66674 0.83112 0.72717 0.0
O84 O 0.38596 0.36915 0.93823 0.0
Cd85 Cd 0.38929 0.35835 0.96141 0.0
Cd86 Cd 0.43708 0.38968 0.95819 0.0
O87 O 0.42355 0.3921 0.93521 0.0
O88 O 0.35408 0.3403 0.96478 0.0
O89 O 0.36598 0.37701 0.97752 0.0
C90 C 0.34801 0.35899 0.97459 0.0
C91 C 0.45387 0.42795 0.97052 0.0
C92 C 0.40197 0.38238 0.92962 0.0
C93 C 0.44289 0.33191 0.96818 0.0
O94 O 0.45426 0.35421 0.96535 0.0
O95 O 0.41753 0.32933 0.96712 0.0
O96 O 0.4666 0.41666 0.95913 0.0
O97 O 0.43106 0.41795 0.97474 0.0
O98 O 0.89886 0.13321 0.18964 0.0
Cd99 Cd 0.90372 0.13382 0.21349 0.0
Cd100 Cd 0.87038 0.17983 0.20983 0.0
O101 O 0.86975 0.16636 0.18669 0.0
O102 O 0.91963 0.09791 0.21776 0.0
O103 O 0.8806 0.11074 0.22753 0.0
C104 C 0.89864 0.09229 0.22595 0.0
C105 C 0.83161 0.19967 0.22019 0.0
C106 C 0.88393 0.14751 0.18094 0.0
C107 C 0.92772 0.18629 0.22241 0.0
O108 O 0.90551 0.19676 0.21835 0.0
O109 O 0.9313 0.16107 0.22169 0.0
O110 O 0.84646 0.21197 0.21014 0.0
O111 O 0.83811 0.17545 0.22404 0.0
O112 O 0.88312 0.63709 0.94063 0.0
Cd113 Cd 0.88493 0.64632 0.9643 0.0
Cd114 Cd 0.93416 0.61635 0.95959 0.0
O115 O 0.92046 0.61393 0.93681 0.0
O116 O 0.84911 0.66354 0.96725 0.0
O117 O 0.86093 0.62649 0.97964 0.0
C118 C 0.84284 0.64438 0.97669 0.0
C119 C 0.95505 0.57913 0.97108 0.0
C120 C 0.89888 0.62425 0.9316 0.0
C121 C 0.93745 0.67438 0.97079 0.0
O122 O 0.94905 0.65296 0.96637 0.0
O123 O 0.91196 0.67571 0.97145 0.0
O124 O 0.96707 0.59355 0.96069 0.0
O125 O 0.93064 0.58528 0.97473 0.0
O126 O 0.11211 0.12877 0.69039 0.0
Cd127 Cd 0.10373 0.13282 0.71404 0.0
Cd128 Cd 0.13523 0.17918 0.70892 0.0
O129 O 0.1394 0.16314 0.68677 0.0
O130 O 0.08586 0.09775 0.71828 0.0
O131 O 0.1239 0.10962 0.72962 0.0
C132 C 0.10555 0.09169 0.7274 0.0
C133 C 0.17243 0.19695 0.72194 0.0
C134 C 0.12719 0.14264 0.68151 0.0
C135 C 0.07761 0.187 0.71875 0.0
O136 O 0.09918 0.19742 0.71361 0.0
O137 O 0.07578 0.16172 0.72073 0.0
O138 O 0.1626 0.2084 0.70965 0.0
O139 O 0.16153 0.1749 0.72674 0.0
O140 O 0.62672 0.36385 0.43929 0.0
Cd141 Cd 0.62277 0.35503 0.46291 0.0
Cd142 Cd 0.57624 0.38682 0.45798 0.0
O143 O 0.59209 0.39092 0.43581 0.0
O144 O 0.65778 0.33691 0.46705 0.0
O145 O 0.64614 0.37486 0.47856 0.0
C146 C 0.66397 0.35643 0.47627 0.0
C147 C 0.5583 0.42419 0.47078 0.0
C148 C 0.61267 0.37892 0.43049 0.0
C149 C 0.56845 0.32912 0.46774 0.0
O150 O 0.55803 0.3508 0.46276 0.0
O151 O 0.59376 0.32714 0.46956 0.0
O152 O 0.54684 0.41399 0.4586 0.0
O153 O 0.58045 0.41351 0.47562 0.0
O154 O 0.38659 0.8721 0.19089 0.0
Cd155 Cd 0.39579 0.86827 0.21447 0.0
Cd156 Cd 0.36448 0.82112 0.20957 0.0
O157 O 0.36015 0.83699 0.18742 0.0
O158 O 0.41402 0.90328 0.2184 0.0
O159 O 0.37623 0.89183 0.23015 0.0
C160 C 0.39467 0.90959 0.22772 0.0
C161 C 0.32726 0.80263 0.22225 0.0
C162 C 0.37172 0.85781 0.18211 0.0
C163 C 0.42228 0.81414 0.21934 0.0
O164 O 0.40073 0.80341 0.21439 0.0
O165 O 0.42395 0.83948 0.2211 0.0
O166 O 0.33775 0.79133 0.21011 0.0
O167 O 0.33759 0.82491 0.22714 0.0
O168 O 0.89297 0.36205 0.55704 0.0
Cd169 Cd 0.89434 0.35744 0.53294 0.0
Cd170 Cd 0.9388 0.39208 0.53859 0.0
O171 O 0.9212 0.39578 0.56045 0.0
O172 O 0.85966 0.33855 0.52897 0.0
O173 O 0.86876 0.37853 0.51915 0.0
C174 C 0.85192 0.35905 0.52095 0.0
C175 C 0.96003 0.42937 0.52736 0.0
C176 C 0.90388 0.3795 0.56587 0.0
C177 C 0.94851 0.33488 0.52686 0.0
O178 O 0.95738 0.35605 0.53338 0.0
O179 O 0.92359 0.33223 0.52402 0.0
O180 O 0.97054 0.4165 0.53894 0.0
O181 O 0.93674 0.42175 0.5224 0.0
O182 O 0.39085 0.13975 0.3078 0.0
Cd183 Cd 0.39599 0.14033 0.28373 0.0
Cd184 Cd 0.36191 0.18511 0.28854 0.0
O185 O 0.35766 0.16879 0.3107 0.0
O186 O 0.41421 0.10518 0.2802 0.0
O187 O 0.3747 0.11498 0.26993 0.0
C188 C 0.39377 0.09776 0.27202 0.0
C189 C 0.32491 0.20547 0.27652 0.0
C190 C 0.37354 0.15136 0.31641 0.0
C191 C 0.41958 0.19385 0.27732 0.0
O192 O 0.39821 0.2032 0.28338 0.0
O193 O 0.42208 0.16879 0.27488 0.0
O194 O 0.33757 0.2169 0.28788 0.0
O195 O 0.3326 0.18183 0.27221 0.0
O196 O 0.61482 0.64412 0.05837 0.0
Cd197 Cd 0.61341 0.649 0.03429 0.0
Cd198 Cd 0.57003 0.61418 0.03929 0.0
O199 O 0.587 0.60994 0.06126 0.0
O200 O 0.64841 0.66698 0.03 0.0
O201 O 0.63803 0.62713 0.02038 0.0
C202 C 0.6554 0.64621 0.02197 0.0
C203 C 0.55029 0.57695 0.02724 0.0
C204 C 0.60399 0.62629 0.06697 0.0
C205 C 0.55941 0.67155 0.02832 0.0
O206 O 0.55077 0.64999 0.03449 0.0
O207 O 0.58432 0.67459 0.0256 0.0
O208 O 0.5389 0.58905 0.03882 0.0
O209 O 0.57358 0.58532 0.02273 0.0
O210 O 0.11137 0.8623 0.80788 0.0
Cd211 Cd 0.1078 0.86122 0.78371 0.0
Cd212 Cd 0.14299 0.81794 0.78941 0.0
O213 O 0.14579 0.83499 0.81146 0.0
O214 O 0.08867 0.89569 0.77957 0.0
O215 O 0.12919 0.88713 0.77033 0.0
C216 C 0.10942 0.90371 0.77187 0.0
C217 C 0.181 0.79861 0.7779 0.0
C218 C 0.12883 0.85171 0.81683 0.0
C219 C 0.0865 0.80685 0.77712 0.0
O220 O 0.10763 0.79839 0.78387 0.0
O221 O 0.08343 0.83173 0.77432 0.0
O222 O 0.16855 0.78712 0.78931 0.0
O223 O 0.17256 0.82184 0.7733 0.0
O224 O 0.61025 0.86171 0.55719 0.0
Cd225 Cd 0.60916 0.85768 0.53307 0.0
Cd226 Cd 0.56489 0.89216 0.53876 0.0
O227 O 0.58243 0.89575 0.56065 0.0
O228 O 0.64379 0.83869 0.52924 0.0
O229 O 0.63508 0.87889 0.5196 0.0
C230 C 0.6518 0.85931 0.52143 0.0
C231 C 0.54398 0.92955 0.52747 0.0
C232 C 0.59951 0.8792 0.56606 0.0
C233 C 0.55516 0.83519 0.52675 0.0
O234 O 0.54627 0.85618 0.53346 0.0
O235 O 0.58006 0.83268 0.52385 0.0
O236 O 0.53329 0.91677 0.53903 0.0
O237 O 0.56726 0.92178 0.52258 0.0
O238 O 0.3849 0.36645 0.80518 0.0
Cd239 Cd 0.39183 0.36365 0.78129 0.0
Cd240 Cd 0.36016 0.31576 0.78779 0.0
O241 O 0.35949 0.33108 0.81024 0.0
O242 O 0.41117 0.39823 0.77792 0.0
O243 O 0.37228 0.38924 0.7667 0.0
C244 C 0.39154 0.40605 0.76923 0.0
C245 C 0.32187 0.29527 0.77734 0.0
C246 C 0.37163 0.35214 0.81478 0.0
C247 C 0.41679 0.30953 0.77482 0.0
O248 O 0.39573 0.29909 0.78059 0.0
O249 O 0.4188 0.33486 0.77325 0.0
O250 O 0.33616 0.28371 0.78798 0.0
O251 O 0.3287 0.31913 0.77294 0.0
O252 O 0.88755 0.14738 0.05558 0.0
Cd253 Cd 0.88676 0.1528 0.03178 0.0
Cd254 Cd 0.93369 0.11948 0.0344 0.0
O255 O 0.92055 0.11777 0.05758 0.0
O256 O 0.85056 0.1687 0.02835 0.0
O257 O 0.86298 0.13004 0.01791 0.0
C258 C 0.84457 0.14797 0.02002 0.0
C259 C 0.95504 0.08149 0.02394 0.0
C260 C 0.90205 0.13185 0.06379 0.0
C261 C 0.93867 0.1775 0.0224 0.0
O262 O 0.94957 0.15533 0.02616 0.0
O263 O 0.91343 0.18069 0.02336 0.0
O264 O 0.96669 0.09671 0.03406 0.0
O265 O 0.93066 0.08722 0.02001 0.0
O266 O 0.11208 0.63973 0.31027 0.0
Cd267 Cd 0.1046 0.63901 0.28663 0.0
Cd268 Cd 0.1384 0.68579 0.28846 0.0
O269 O 0.14111 0.67326 0.31172 0.0
O270 O 0.08785 0.60304 0.28374 0.0
O271 O 0.12574 0.61478 0.27214 0.0
C272 C 0.1077 0.59669 0.27479 0.0
C273 C 0.17626 0.70586 0.27717 0.0
C274 C 0.12774 0.65454 0.31821 0.0
C275 C 0.07997 0.69121 0.27737 0.0
O276 O 0.10249 0.70194 0.28051 0.0
O277 O 0.0765 0.66606 0.2788 0.0
O278 O 0.1617 0.7183 0.28731 0.0
O279 O 0.16992 0.68144 0.27368 0.0
O280 O 0.61742 0.132 0.9377 0.0
Cd281 Cd 0.61659 0.14386 0.96078 0.0
Cd282 Cd 0.56597 0.11608 0.95855 0.0
O283 O 0.57667 0.11502 0.93501 0.0
O284 O 0.65299 0.16004 0.96291 0.0
O285 O 0.63995 0.1251 0.97688 0.0
C286 C 0.65859 0.14199 0.97321 0.0
C287 C 0.54526 0.07843 0.9696 0.0
C288 C 0.59917 0.12182 0.92917 0.0
C289 C 0.56611 0.17399 0.96935 0.0
O290 O 0.55328 0.15217 0.96768 0.0
O291 O 0.59116 0.17523 0.96659 0.0
O292 O 0.53254 0.09423 0.96023 0.0
O293 O 0.57024 0.08346 0.97242 0.0
O294 O 0.11525 0.37336 0.19017 0.0
Cd295 Cd 0.10545 0.37026 0.21351 0.0
Cd296 Cd 0.13659 0.32223 0.21019 0.0
O297 O 0.13815 0.33573 0.18714 0.0
O298 O 0.08818 0.40573 0.21734 0.0
O299 O 0.1252 0.39294 0.22948 0.0
C300 C 0.10734 0.41125 0.22696 0.0
C301 C 0.1752 0.30444 0.22179 0.0
C302 C 0.12818 0.35718 0.1815 0.0
C303 C 0.07899 0.31708 0.2209 0.0
O304 O 0.10119 0.30557 0.21796 0.0
O305 O 0.07637 0.34239 0.21961 0.0
O306 O 0.16299 0.29207 0.21059 0.0
O307 O 0.16594 0.32745 0.22622 0.0
O308 O 0.8784 0.85912 0.44204 0.0
Cd309 Cd 0.88241 0.85331 0.46593 0.0
Cd310 Cd 0.928 0.88537 0.45976 0.0
O311 O 0.91156 0.88751 0.43759 0.0
O312 O 0.8477 0.83508 0.47058 0.0
O313 O 0.85853 0.87441 0.48072 0.0
C314 C 0.84104 0.8555 0.47899 0.0
C315 C 0.94571 0.92373 0.47169 0.0
C316 C 0.89162 0.87397 0.43271 0.0
C317 C 0.93691 0.82868 0.47124 0.0
O318 O 0.9468 0.84994 0.46535 0.0
O319 O 0.91173 0.8266 0.4735 0.0
O320 O 0.95705 0.91298 0.45963 0.0
O321 O 0.92374 0.91312 0.47683 0.0
O322 O 0.3906 0.63294 0.69057 0.0
Cd323 Cd 0.39829 0.63715 0.71427 0.0
Cd324 Cd 0.36732 0.68377 0.70837 0.0
O325 O 0.36338 0.66718 0.68636 0.0
O326 O 0.41655 0.60227 0.71846 0.0
O327 O 0.37803 0.61336 0.72951 0.0
C328 C 0.39666 0.5957 0.72731 0.0
C329 C 0.3301 0.70182 0.72123 0.0
C330 C 0.37573 0.64653 0.68143 0.0
C331 C 0.42463 0.69123 0.71885 0.0
O332 O 0.40349 0.70172 0.71317 0.0
O333 O 0.42601 0.66603 0.72125 0.0
O334 O 0.34007 0.71313 0.70894 0.0
O335 O 0.34086 0.67974 0.72611 0.0
O336 O 0.38495 0.15067 0.44213 0.0
Cd337 Cd 0.38869 0.15191 0.46623 0.0
Cd338 Cd 0.42705 0.11551 0.45915 0.0
O339 O 0.40574 0.11219 0.43839 0.0
O340 O 0.35514 0.17074 0.47264 0.0
O341 O 0.36421 0.12892 0.47953 0.0
C342 C 0.34764 0.1489 0.47947 0.0
C343 C 0.4435 0.07735 0.47183 0.0
C344 C 0.39148 0.13136 0.43317 0.0
C345 C 0.44445 0.17035 0.47007 0.0
O346 O 0.45039 0.14949 0.46217 0.0
O347 O 0.42056 0.1739 0.47493 0.0
O348 O 0.45318 0.08516 0.45856 0.0
O349 O 0.42367 0.09069 0.47774 0.0
O350 O 0.60317 0.63435 0.19265 0.0
Cd351 Cd 0.60139 0.63692 0.21679 0.0
Cd352 Cd 0.63795 0.67605 0.21055 0.0
O353 O 0.64145 0.65579 0.18946 0.0
O354 O 0.58238 0.60307 0.22241 0.0
O355 O 0.62397 0.61176 0.2299 0.0
C356 C 0.604 0.59522 0.22935 0.0
C357 C 0.67638 0.69277 0.22286 0.0
C358 C 0.62253 0.64155 0.18392 0.0
C359 C 0.58268 0.6924 0.22156 0.0
O360 O 0.60373 0.69891 0.21401 0.0
O361 O 0.57906 0.66822 0.22586 0.0
O362 O 0.66767 0.70284 0.2099 0.0
O363 O 0.66368 0.6725 0.22873 0.0
O364 O 0.11471 0.85609 0.94249 0.0
Cd365 Cd 0.11177 0.85513 0.96665 0.0
Cd366 Cd 0.07225 0.89134 0.95947 0.0
O367 O 0.09291 0.89395 0.93844 0.0
O368 O 0.14521 0.83547 0.97244 0.0
O369 O 0.13743 0.87735 0.97969 0.0
C370 C 0.15351 0.85699 0.97928 0.0
C371 C 0.05528 0.93004 0.97141 0.0
C372 C 0.10749 0.8749 0.93336 0.0
C373 C 0.05604 0.83665 0.97138 0.0
O374 O 0.04955 0.85717 0.96333 0.0
O375 O 0.08017 0.83342 0.9759 0.0
O376 O 0.04544 0.92108 0.95843 0.0
O377 O 0.07552 0.91751 0.97745 0.0
O378 O 0.8987 0.36873 0.69154 0.0
Cd379 Cd 0.89956 0.36548 0.71568 0.0
Cd380 Cd 0.86334 0.32694 0.70857 0.0
O381 O 0.8604 0.3477 0.6876 0.0
O382 O 0.91874 0.39896 0.72187 0.0
O383 O 0.87682 0.39052 0.7288 0.0
C384 C 0.897 0.40683 0.72866 0.0
C385 C 0.82504 0.31093 0.7213 0.0
C386 C 0.87967 0.36191 0.68246 0.0
C387 C 0.91796 0.30979 0.71994 0.0
O388 O 0.89728 0.30367 0.71193 0.0
O389 O 0.92136 0.33375 0.7247 0.0
O390 O 0.83296 0.30085 0.70815 0.0
O391 O 0.83834 0.33092 0.72704 0.0
O392 O 0.38156 0.8683 0.05794 0.0
Cd393 Cd 0.3849 0.85889 0.03435 0.0
Cd394 Cd 0.43156 0.89115 0.03887 0.0
O395 O 0.41606 0.89564 0.06109 0.0
O396 O 0.35007 0.83994 0.031 0.0
O397 O 0.36039 0.87766 0.01882 0.0
C398 C 0.34305 0.859 0.02166 0.0
C399 C 0.44927 0.92835 0.02581 0.0
C400 C 0.39563 0.88363 0.06657 0.0
C401 C 0.43944 0.8334 0.02928 0.0
O402 O 0.44981 0.85512 0.03423 0.0
O403 O 0.41412 0.83128 0.02753 0.0
O404 O 0.46093 0.91829 0.03796 0.0
O405 O 0.42704 0.91761 0.02114 0.0
O406 O 0.88488 0.63688 0.80714 0.0
Cd407 Cd 0.89432 0.63844 0.78349 0.0
Cd408 Cd 0.86417 0.68813 0.78834 0.0
O409 O 0.86142 0.67403 0.81101 0.0
O410 O 0.91208 0.60276 0.78104 0.0
O411 O 0.87511 0.61364 0.76828 0.0
C412 C 0.89314 0.59588 0.77159 0.0
C413 C 0.82738 0.70999 0.77696 0.0
C414 C 0.87184 0.65248 0.81617 0.0
C415 C 0.92223 0.69115 0.77709 0.0
O416 O 0.90097 0.70275 0.78174 0.0
O417 O 0.92346 0.66566 0.7762 0.0
O418 O 0.84182 0.72138 0.78758 0.0
O419 O 0.83323 0.68563 0.77303 0.0
O420 O 0.11676 0.1306 0.55722 0.0
Cd421 Cd 0.11566 0.1413 0.53373 0.0
Cd422 Cd 0.06569 0.11101 0.53776 0.0
O423 O 0.0791 0.10771 0.56053 0.0
O424 O 0.15125 0.15945 0.53186 0.0
O425 O 0.14095 0.12309 0.51837 0.0
C426 C 0.15847 0.14111 0.5221 0.0
C427 C 0.0445 0.07424 0.52595 0.0
C428 C 0.10075 0.11752 0.56597 0.0
C429 C 0.06293 0.16938 0.52715 0.0
O430 O 0.05115 0.14792 0.53132 0.0
O431 O 0.08844 0.17067 0.52666 0.0
O432 O 0.03258 0.08855 0.53644 0.0
O433 O 0.06896 0.08029 0.52235 0.0
O434 O 0.62173 0.36615 0.30641 0.0
Cd435 Cd 0.61156 0.36293 0.28292 0.0
Cd436 Cd 0.64305 0.315 0.28758 0.0
O437 O 0.64789 0.33077 0.30972 0.0
O438 O 0.59212 0.39765 0.28017 0.0
O439 O 0.62935 0.38803 0.26731 0.0
C440 C 0.61065 0.4051 0.27059 0.0
C441 C 0.67996 0.29626 0.27468 0.0
C442 C 0.63664 0.35172 0.31508 0.0
C443 C 0.58506 0.30865 0.27802 0.0
O444 O 0.60652 0.29771 0.28293 0.0
O445 O 0.58354 0.33401 0.27629 0.0
O446 O 0.66954 0.28497 0.28685 0.0
O447 O 0.66972 0.31863 0.26987 0.0
C448 C 0.99676 0.55987 0.98253 0.0
C449 C 0.96945 0.55698 0.97893 0.0
C450 C 0.01095 0.53937 0.9902 0.0
C451 C 0.99778 0.51495 0.9938 0.0
C452 C 0.97026 0.51175 0.98991 0.0
C453 C 0.95626 0.53306 0.98281 0.0
C454 C 0.03993 0.54401 0.99468 0.0
C455 C 0.95573 0.48571 0.99308 0.0
C456 C 0.04218 0.45377 0.00058 0.0
C457 C 0.04051 0.45078 0.0169 0.0
C458 C 0.02802 0.47433 0.99286 0.0
C459 C 0.01274 0.49289 0.00177 0.0
C460 C 0.01181 0.49043 0.01834 0.0
C461 C 0.02526 0.46904 0.02567 0.0
C462 C 0.02882 0.47574 0.97515 0.0
C463 C 0.99664 0.51037 0.02833 0.0
H464 H 0.00688 0.57851 0.97966 0.0
H465 H 0.93518 0.5308 0.97992 0.0
H466 H 0.04254 0.54103 0.00751 0.0
H467 H 0.05301 0.52922 0.98867 0.0
H468 H 0.0469 0.56453 0.99159 0.0
H469 H 0.93477 0.48598 0.98862 0.0
H470 H 0.96662 0.4688 0.98746 0.0
H471 H 0.95526 0.48166 0.00588 0.0
H472 H 0.05368 0.43938 0.99379 0.0
H473 H 0.02404 0.46671 0.03831 0.0
H474 H 0.03729 0.49525 0.97132 0.0
H475 H 0.00811 0.47447 0.97038 0.0
H476 H 0.04103 0.45934 0.96993 0.0
H477 H 0.00356 0.53107 0.0257 0.0
H478 H 0.99928 0.50655 0.0411 0.0
H479 H 0.97491 0.50948 0.02554 0.0
C480 C 0.70097 0.7052 0.24741 0.0
C481 C 0.69949 0.70515 0.23098 0.0
C482 C 0.72146 0.71927 0.25524 0.0
C483 C 0.74136 0.73285 0.24638 0.0
C484 C 0.7404 0.73205 0.22976 0.0
C485 C 0.71923 0.71858 0.22227 0.0
C486 C 0.72142 0.7202 0.27297 0.0
C487 C 0.76168 0.74554 0.21989 0.0
C488 C 0.78183 0.79004 0.26428 0.0
C489 C 0.80531 0.77674 0.26891 0.0
C490 C 0.76052 0.77586 0.2573 0.0
C491 C 0.7632 0.74794 0.25445 0.0
C492 C 0.78703 0.73453 0.25896 0.0
C493 C 0.80762 0.74902 0.26635 0.0
C494 C 0.73514 0.79073 0.25301 0.0
C495 C 0.79102 0.70499 0.25571 0.0
H496 H 0.68552 0.69509 0.25416 0.0
H497 H 0.71816 0.71847 0.20955 0.0
H498 H 0.74044 0.7118 0.27762 0.0
H499 H 0.72017 0.74137 0.27699 0.0
H500 H 0.70438 0.70882 0.27811 0.0
H501 H 0.7588 0.74183 0.20713 0.0
H502 H 0.76136 0.76752 0.22196 0.0
H503 H 0.78188 0.73818 0.22333 0.0
H504 H 0.77995 0.81143 0.26635 0.0
H505 H 0.82588 0.73873 0.2698 0.0
H506 H 0.71754 0.78085 0.25854 0.0
H507 H 0.73206 0.79007 0.24012 0.0
H508 H 0.73568 0.81208 0.25679 0.0
H509 H 0.77512 0.69309 0.26159 0.0
H510 H 0.81089 0.69764 0.2598 0.0
H511 H 0.78931 0.70113 0.2429 0.0
C512 C 0.53167 0.46651 0.47067 0.0
C513 C 0.54567 0.44686 0.47914 0.0
C514 C 0.5183 0.48749 0.47842 0.0
C515 C 0.51807 0.48821 0.49505 0.0
C516 C 0.53206 0.46826 0.50366 0.0
C517 C 0.54615 0.44808 0.49557 0.0
C518 C 0.50449 0.50891 0.4688 0.0
C519 C 0.5316 0.46786 0.52139 0.0
C520 C 0.5029 0.55391 0.51592 0.0
C521 C 0.47527 0.55167 0.51874 0.0
C522 C 0.517 0.53356 0.50806 0.0
C523 C 0.5033 0.50995 0.50341 0.0
C524 C 0.47545 0.50737 0.50652 0.0
C525 C 0.46163 0.52853 0.51389 0.0
C526 C 0.54643 0.53754 0.50447 0.0
C527 C 0.46031 0.48218 0.50218 0.0
H528 H 0.53139 0.46558 0.45795 0.0
H529 H 0.55669 0.43265 0.5021 0.0
H530 H 0.48258 0.50856 0.4711 0.0
H531 H 0.51196 0.52905 0.47227 0.0
H532 H 0.5078 0.50622 0.45599 0.0
H533 H 0.54288 0.45055 0.52631 0.0
H534 H 0.54042 0.48665 0.52609 0.0
H535 H 0.51054 0.46684 0.5256 0.0
H536 H 0.51341 0.57194 0.51954 0.0
H537 H 0.44029 0.52675 0.51616 0.0
H538 H 0.54988 0.53583 0.49163 0.0
H539 H 0.55852 0.52163 0.51022 0.0
H540 H 0.55391 0.5574 0.50849 0.0
H541 H 0.46058 0.47937 0.48926 0.0
H542 H 0.43909 0.48275 0.50617 0.0
H543 H 0.47027 0.4644 0.50747 0.0
C544 C 0.80271 0.29698 0.74626 0.0
C545 C 0.80234 0.29866 0.72983 0.0
C546 C 0.78274 0.28267 0.75439 0.0
C547 C 0.76144 0.27059 0.74589 0.0
C548 C 0.76051 0.27313 0.72933 0.0
C549 C 0.78125 0.28671 0.72148 0.0
C550 C 0.78486 0.27977 0.772 0.0
C551 C 0.73769 0.26139 0.71988 0.0
C552 C 0.72124 0.21263 0.76317 0.0
C553 C 0.69886 0.22604 0.76931 0.0
C554 C 0.74218 0.22697 0.75593 0.0
C555 C 0.74014 0.25524 0.75429 0.0
C556 C 0.71739 0.26878 0.76034 0.0
C557 C 0.69727 0.25407 0.76801 0.0
C558 C 0.76648 0.2119 0.75004 0.0
C559 C 0.71399 0.29873 0.75837 0.0
H560 H 0.81924 0.30589 0.7527 0.0
H561 H 0.78094 0.28807 0.70877 0.0
H562 H 0.76671 0.28812 0.77774 0.0
H563 H 0.78594 0.25818 0.77516 0.0
H564 H 0.80282 0.29011 0.77683 0.0
H565 H 0.7391 0.26656 0.70722 0.0
H566 H 0.73764 0.23921 0.72104 0.0
H567 H 0.71819 0.26879 0.72447 0.0
H568 H 0.72255 0.19098 0.76425 0.0
H569 H 0.67981 0.26445 0.7726 0.0
H570 H 0.78503 0.22075 0.75508 0.0
H571 H 0.76792 0.21377 0.73709 0.0
H572 H 0.76576 0.19024 0.75312 0.0
H573 H 0.73096 0.3095 0.76397 0.0
H574 H 0.69493 0.30616 0.76359 0.0
H575 H 0.71422 0.30396 0.7457 0.0
C576 C 0.9618 0.47322 0.513 0.0
C577 C 0.9751 0.45119 0.51961 0.0
C578 C 0.97632 0.49406 0.50576 0.0
C579 C 0.00467 0.4922 0.50462 0.0
C580 C 0.01808 0.46969 0.51105 0.0
C581 C 0.00317 0.44971 0.51872 0.0
C582 C 0.96137 0.51814 0.49948 0.0
C583 C 0.04813 0.46644 0.50959 0.0
C584 C 0.03782 0.53355 0.47247 0.0
C585 C 0.04919 0.55465 0.48108 0.0
C586 C 0.02387 0.51273 0.48002 0.0
C587 C 0.02033 0.51362 0.49653 0.0
C588 C 0.03178 0.53496 0.50527 0.0
C589 C 0.04651 0.55498 0.49746 0.0
C590 C 0.01284 0.48985 0.47034 0.0
C591 C 0.0278 0.53706 0.52281 0.0
H592 H 0.9401 0.47442 0.51376 0.0
H593 H 0.01345 0.4325 0.52369 0.0
H594 H 0.96963 0.53681 0.50471 0.0
H595 H 0.96413 0.51958 0.48658 0.0
H596 H 0.93952 0.51717 0.50203 0.0
H597 H 0.05537 0.44733 0.51482 0.0
H598 H 0.05403 0.46693 0.49702 0.0
H599 H 0.05851 0.48336 0.51548 0.0
H600 H 0.03992 0.53329 0.45979 0.0
H601 H 0.05497 0.57153 0.50409 0.0
H602 H 0.99061 0.48964 0.47104 0.0
H603 H 0.02009 0.47039 0.47507 0.0
H604 H 0.01876 0.49131 0.45778 0.0
H605 H 0.00602 0.53784 0.52554 0.0
H606 H 0.03759 0.55516 0.52785 0.0
H607 H 0.03607 0.51903 0.52873 0.0
C608 C 0.70264 0.79732 0.74628 0.0
C609 C 0.70223 0.79822 0.72983 0.0
C610 C 0.72268 0.78292 0.7543 0.0
C611 C 0.74325 0.76992 0.74567 0.0
C612 C 0.7434 0.77165 0.72906 0.0
C613 C 0.72261 0.78536 0.72134 0.0
C614 C 0.72138 0.78094 0.77198 0.0
C615 C 0.76546 0.75889 0.71944 0.0
C616 C 0.80788 0.75292 0.76722 0.0
C617 C 0.80557 0.72506 0.76914 0.0
C618 C 0.7879 0.76771 0.75946 0.0
C619 C 0.76458 0.75445 0.75396 0.0
C620 C 0.7619 0.72635 0.75617 0.0
C621 C 0.78269 0.71189 0.76349 0.0
C622 C 0.79199 0.79743 0.75687 0.0
C623 C 0.737 0.71161 0.75089 0.0
H624 H 0.68667 0.80696 0.75284 0.0
H625 H 0.72232 0.78611 0.70861 0.0
H626 H 0.72001 0.75954 0.77554 0.0
H627 H 0.73999 0.78917 0.77727 0.0
H628 H 0.7039 0.79191 0.77694 0.0
H629 H 0.76353 0.76347 0.70672 0.0
H630 H 0.78535 0.76603 0.72357 0.0
H631 H 0.76505 0.73678 0.72097 0.0
H632 H 0.82572 0.7631 0.77145 0.0
H633 H 0.78083 0.69037 0.76506 0.0
H634 H 0.77567 0.80895 0.76262 0.0
H635 H 0.79111 0.80201 0.74412 0.0
H636 H 0.81154 0.80458 0.76156 0.0
H637 H 0.71891 0.72106 0.75612 0.0
H638 H 0.73739 0.69005 0.75423 0.0
H639 H 0.73493 0.71303 0.73794 0.0
C640 C 0.46566 0.45186 0.99528 0.0
C641 C 0.46599 0.45086 0.97885 0.0
C642 C 0.47969 0.47202 0.00341 0.0
C643 C 0.49341 0.4922 0.99484 0.0
C644 C 0.49291 0.49175 0.9782 0.0
C645 C 0.47969 0.47072 0.97041 0.0
C646 C 0.48049 0.47129 0.02113 0.0
C647 C 0.50634 0.51345 0.96863 0.0
C648 C 0.50844 0.55728 0.01635 0.0
C649 C 0.53614 0.55515 0.01896 0.0
C650 C 0.49439 0.53716 0.00826 0.0
C651 C 0.5082 0.51385 0.00325 0.0
C652 C 0.53614 0.51138 0.00614 0.0
C653 C 0.54992 0.53238 0.01369 0.0
C654 C 0.46488 0.54108 0.00487 0.0
C655 C 0.55138 0.48643 0.00146 0.0
H656 H 0.45538 0.43622 0.00178 0.0
H657 H 0.47987 0.46988 0.95768 0.0
H658 H 0.50165 0.47031 0.0252 0.0
H659 H 0.47166 0.48994 0.02602 0.0
H660 H 0.46942 0.45382 0.02601 0.0
H661 H 0.50262 0.51108 0.95584 0.0
H662 H 0.49892 0.53349 0.97236 0.0
H663 H 0.52832 0.51311 0.97068 0.0
H664 H 0.49787 0.57507 0.02031 0.0
H665 H 0.57132 0.53073 0.01582 0.0
H666 H 0.45297 0.52507 0.01063 0.0
H667 H 0.4612 0.53951 0.99204 0.0
H668 H 0.4574 0.56087 0.00902 0.0
H669 H 0.54169 0.46844 0.00666 0.0
H670 H 0.57269 0.48706 0.0053 0.0
H671 H 0.55085 0.48395 0.98852 0.0
C672 C 0.78553 0.19987 0.232 0.0
C673 C 0.80881 0.21373 0.22763 0.0
C674 C 0.76389 0.21346 0.23905 0.0
C675 C 0.76614 0.24127 0.24237 0.0
C676 C 0.78984 0.25521 0.23815 0.0
C677 C 0.81066 0.24136 0.23058 0.0
C678 C 0.73862 0.19809 0.24291 0.0
C679 C 0.79348 0.2846 0.24198 0.0
C680 C 0.7041 0.28405 0.24997 0.0
C681 C 0.70254 0.28333 0.26639 0.0
C682 C 0.72438 0.26997 0.24195 0.0
C683 C 0.74406 0.25572 0.25062 0.0
C684 C 0.74293 0.25562 0.26725 0.0
C685 C 0.72186 0.26899 0.27491 0.0
C686 C 0.72442 0.26988 0.22422 0.0
C687 C 0.76406 0.24155 0.27695 0.0
H688 H 0.78405 0.17853 0.22963 0.0
H689 H 0.82882 0.25204 0.22735 0.0
H690 H 0.73541 0.19786 0.2558 0.0
H691 H 0.72097 0.20818 0.23756 0.0
H692 H 0.7394 0.17702 0.23865 0.0
H693 H 0.81337 0.29233 0.23819 0.0
H694 H 0.77761 0.29668 0.23619 0.0
H695 H 0.79144 0.28775 0.25484 0.0
H696 H 0.68893 0.29487 0.24338 0.0
H697 H 0.72068 0.26854 0.28763 0.0
H698 H 0.72372 0.2489 0.21983 0.0
H699 H 0.74324 0.27897 0.21975 0.0
H700 H 0.70713 0.2811 0.21923 0.0
H701 H 0.76389 0.21972 0.27439 0.0
H702 H 0.76093 0.24441 0.28976 0.0
H703 H 0.78428 0.24921 0.27381 0.0
C704 C 0.30014 0.2527 0.76879 0.0
C705 C 0.2993 0.28078 0.76991 0.0
C706 C 0.27968 0.2384 0.76115 0.0
C707 C 0.25738 0.25245 0.75493 0.0
C708 C 0.25608 0.28078 0.7564 0.0
C709 C 0.27734 0.29468 0.76363 0.0
C710 C 0.28229 0.20833 0.75938 0.0
C711 C 0.23226 0.2964 0.75034 0.0
C712 C 0.21608 0.22123 0.72213 0.0
C713 C 0.19487 0.20956 0.73048 0.0
C714 C 0.23689 0.23468 0.72998 0.0
C715 C 0.2358 0.23751 0.74653 0.0
C716 C 0.21422 0.22592 0.755 0.0
C717 C 0.19425 0.21158 0.74688 0.0
C718 C 0.26006 0.24581 0.72057 0.0
C719 C 0.21185 0.22928 0.77257 0.0
H720 H 0.31726 0.24192 0.7735 0.0
H721 H 0.27662 0.31638 0.76456 0.0
H722 H 0.265 0.19813 0.765 0.0
H723 H 0.28202 0.20287 0.74674 0.0
H724 H 0.3011 0.20049 0.7647 0.0
H725 H 0.23348 0.31807 0.75333 0.0
H726 H 0.23094 0.29442 0.73738 0.0
H727 H 0.21342 0.28808 0.75532 0.0
H728 H 0.21649 0.21959 0.70943 0.0
H729 H 0.17758 0.20287 0.75328 0.0
H730 H 0.27934 0.23798 0.72524 0.0
H731 H 0.26064 0.26798 0.72166 0.0
H732 H 0.25864 0.24054 0.70791 0.0
H733 H 0.22959 0.22042 0.77849 0.0
H734 H 0.19346 0.21965 0.77735 0.0
H735 H 0.21145 0.25096 0.77558 0.0
C736 C 0.19656 0.74745 0.26624 0.0
C737 C 0.19868 0.71989 0.26935 0.0
C738 C 0.21721 0.76133 0.25853 0.0
C739 C 0.241 0.74751 0.25434 0.0
C740 C 0.24346 0.71974 0.25775 0.0
C741 C 0.22201 0.70612 0.26495 0.0
C742 C 0.21335 0.79065 0.2546 0.0
C743 C 0.26883 0.70451 0.25391 0.0
C744 C 0.28538 0.77534 0.2219 0.0
C745 C 0.30459 0.78975 0.23047 0.0
C746 C 0.2643 0.76192 0.22951 0.0
C747 C 0.26303 0.76206 0.24613 0.0
C748 C 0.28257 0.77642 0.25485 0.0
C749 C 0.30286 0.79053 0.24688 0.0
C750 C 0.24332 0.74772 0.21976 0.0
C751 C 0.28236 0.77639 0.27258 0.0
H752 H 0.17838 0.75805 0.2695 0.0
H753 H 0.22369 0.68484 0.26746 0.0
H754 H 0.22902 0.80291 0.26046 0.0
H755 H 0.21557 0.79374 0.24176 0.0
H756 H 0.19333 0.79823 0.25827 0.0
H757 H 0.26811 0.6834 0.2581 0.0
H758 H 0.27216 0.70441 0.24103 0.0
H759 H 0.28638 0.71462 0.25935 0.0
H760 H 0.2867 0.77483 0.20919 0.0
H761 H 0.31795 0.8014 0.25351 0.0
H762 H 0.22303 0.75528 0.22284 0.0
H763 H 0.2436 0.72589 0.22233 0.0
H764 H 0.24653 0.75057 0.20695 0.0
H765 H 0.26344 0.78538 0.27698 0.0
H766 H 0.29953 0.78775 0.27761 0.0
H767 H 0.28317 0.75543 0.27699 0.0
C768 C 0.27955 0.20664 0.26391 0.0
C769 C 0.30317 0.21986 0.26832 0.0
C770 C 0.25851 0.22074 0.25659 0.0
C771 C 0.26177 0.24837 0.25301 0.0
C772 C 0.28598 0.26154 0.25708 0.0
C773 C 0.30615 0.24724 0.26499 0.0
C774 C 0.23266 0.20622 0.25292 0.0
C775 C 0.29073 0.29063 0.25292 0.0
C776 C 0.21685 0.27678 0.22094 0.0
C777 C 0.1983 0.29174 0.22968 0.0
C778 C 0.23802 0.26313 0.22835 0.0
C779 C 0.23995 0.26352 0.24495 0.0
C780 C 0.2211 0.27851 0.25383 0.0
C781 C 0.20078 0.2929 0.24605 0.0
C782 C 0.2583 0.24831 0.21842 0.0
C783 C 0.22194 0.27874 0.27156 0.0
H784 H 0.27724 0.18549 0.2666 0.0
H785 H 0.32459 0.25736 0.26828 0.0
H786 H 0.21552 0.21683 0.25849 0.0
H787 H 0.22904 0.20621 0.24007 0.0
H788 H 0.23287 0.1851 0.25712 0.0
H789 H 0.31117 0.29751 0.25625 0.0
H790 H 0.28805 0.29361 0.24009 0.0
H791 H 0.2758 0.30354 0.25894 0.0
H792 H 0.2149 0.27596 0.20826 0.0
H793 H 0.18616 0.30416 0.25281 0.0
H794 H 0.25735 0.22649 0.22095 0.0
H795 H 0.2789 0.25516 0.22136 0.0
H796 H 0.25489 0.25136 0.20564 0.0
H797 H 0.22063 0.25787 0.27608 0.0
H798 H 0.20532 0.2907 0.27674 0.0
H799 H 0.24129 0.28717 0.27569 0.0
C800 C 0.20179 0.75674 0.76773 0.0
C801 C 0.20318 0.7846 0.76985 0.0
C802 C 0.2221 0.74283 0.75971 0.0
C803 C 0.24488 0.75701 0.75423 0.0
C804 C 0.24664 0.78513 0.75665 0.0
C805 C 0.22545 0.79871 0.76416 0.0
C806 C 0.21891 0.71307 0.75685 0.0
C807 C 0.27101 0.8008 0.75145 0.0
C808 C 0.30741 0.71528 0.74614 0.0
C809 C 0.30764 0.71459 0.7297 0.0
C810 C 0.28741 0.72951 0.75429 0.0
C811 C 0.26661 0.74239 0.74577 0.0
C812 C 0.26638 0.74099 0.72915 0.0
C813 C 0.28724 0.72758 0.72131 0.0
C814 C 0.28886 0.73128 0.77198 0.0
C815 C 0.24404 0.75352 0.71966 0.0
H816 H 0.18438 0.74587 0.77198 0.0
H817 H 0.22655 0.82025 0.76589 0.0
H818 H 0.22005 0.70882 0.74407 0.0
H819 H 0.2355 0.70189 0.76257 0.0
H820 H 0.19953 0.70523 0.76141 0.0
H821 H 0.26994 0.82225 0.755 0.0
H822 H 0.28943 0.7918 0.75656 0.0
H823 H 0.27303 0.7998 0.73849 0.0
H824 H 0.32345 0.70554 0.7526 0.0
H825 H 0.28744 0.72696 0.70858 0.0
H826 H 0.27073 0.72209 0.77728 0.0
H827 H 0.28929 0.75265 0.77567 0.0
H828 H 0.30689 0.72102 0.77679 0.0
H829 H 0.22434 0.7457 0.72368 0.0
H830 H 0.24612 0.74944 0.70689 0.0
H831 H 0.24383 0.77557 0.72147 0.0
C832 C 0.54262 0.97323 0.5129 0.0
C833 C 0.5291 0.95145 0.51966 0.0
C834 C 0.52829 0.99408 0.50555 0.0
C835 C 0.49992 0.99251 0.50443 0.0
C836 C 0.48629 0.97028 0.51103 0.0
C837 C 0.50102 0.95028 0.51881 0.0
C838 C 0.54348 0.01786 0.49908 0.0
C839 C 0.45621 0.96733 0.50961 0.0
C840 C 0.45869 0.0555 0.49667 0.0
C841 C 0.45601 0.05472 0.4803 0.0
C842 C 0.47323 0.03555 0.50468 0.0
C843 C 0.48449 0.01387 0.49614 0.0
C844 C 0.48096 0.01255 0.47964 0.0
C845 C 0.4672 0.03328 0.47189 0.0
C846 C 0.47722 0.0381 0.52219 0.0
C847 C 0.49178 0.98929 0.47018 0.0
H848 H 0.56433 0.9742 0.51364 0.0
H849 H 0.49056 0.93327 0.52388 0.0
H850 H 0.54079 0.019 0.48617 0.0
H851 H 0.53537 0.03674 0.50413 0.0
H852 H 0.56532 0.01676 0.50168 0.0
H853 H 0.44876 0.94846 0.51504 0.0
H854 H 0.44601 0.98454 0.51532 0.0
H855 H 0.45031 0.96749 0.49703 0.0
H856 H 0.45036 0.0723 0.50314 0.0
H857 H 0.46508 0.03268 0.45922 0.0
H858 H 0.499 0.03873 0.52492 0.0
H859 H 0.46877 0.02032 0.52828 0.0
H860 H 0.4676 0.05643 0.52705 0.0
H861 H 0.514 0.98887 0.47091 0.0
H862 H 0.48591 0.99048 0.45761 0.0
H863 H 0.48431 0.97004 0.47508 0.0
C864 C 0.04133 0.95417 0.99581 0.0
C865 C 0.04261 0.95313 0.97938 0.0
C866 C 0.02688 0.9746 0.00346 0.0
C867 C 0.01421 0.99492 0.99446 0.0
C868 C 0.01626 0.99439 0.97787 0.0
C869 C 0.03003 0.97323 0.97053 0.0
C870 C 0.02455 0.97404 0.02114 0.0
C871 C 0.00387 0.01615 0.96786 0.0
C872 C 0.95647 0.03601 0.01133 0.0
C873 C 0.96988 0.05901 0.01663 0.0
C874 C 0.97075 0.01465 0.00445 0.0
C875 C 0.99892 0.01682 0.00236 0.0
C876 C 0.01243 0.04021 0.00752 0.0
C877 C 0.99781 0.0608 0.01483 0.0
C878 C 0.95573 0.98972 -0.0005 0.0
C879 C 0.04225 0.04373 0.00505 0.0
H880 H 0.05075 0.93842 0.00266 0.0
H881 H 0.03107 0.97246 0.95781 0.0
H882 H 0.03299 0.99273 0.02622 0.0
H883 H 0.00307 0.97315 0.02458 0.0
H884 H 0.03516 0.9566 0.0264 0.0
H885 H 0.00852 0.01356 0.95519 0.0
H886 H 0.98175 0.01612 0.96934 0.0
H887 H 0.01125 0.03613 0.97169 0.0
H888 H 0.9349 0.03454 0.0128 0.0
H889 H 0.00819 0.0787 0.01878 0.0
H890 H 0.96486 0.97175 0.00507 0.0
H891 H 0.95729 0.98703 0.9866 0.0
H892 H 0.93414 0.99057 0.00275 0.0
H893 H 0.05343 0.02749 0.0111 0.0
H894 H 0.04963 0.06337 0.00949 0.0
H895 H 0.04703 0.04224 0.99235 0.0
C896 C 0.54457 0.03239 0.98143 0.0
C897 C 0.53103 0.05602 0.97734 0.0
C898 C 0.5309 0.0111 0.98876 0.0
C899 C 0.50333 0.01399 0.99257 0.0
C900 C 0.48972 0.038 0.98861 0.0
C901 C 0.50363 0.05853 0.9808 0.0
C902 C 0.5459 0.98549 0.99237 0.0
C903 C 0.46061 0.04228 0.99294 0.0
C904 C 0.46012 0.95258 0.00091 0.0
C905 C 0.46174 0.95096 0.01731 0.0
C906 C 0.47393 0.97275 0.99266 0.0
C907 C 0.48886 0.99224 0.00108 0.0
C908 C 0.48982 0.99109 0.01769 0.0
C909 C 0.47665 0.97017 0.02558 0.0
C910 C 0.47306 0.97284 0.97493 0.0
C911 C 0.50471 0.012 0.02714 0.0
H912 H 0.56572 0.03039 0.97866 0.0
H913 H 0.4932 0.07693 0.97778 0.0
H914 H 0.54667 0.98228 0.00526 0.0
H915 H 0.5352 0.96807 0.98719 0.0
H916 H 0.56678 0.98582 0.98778 0.0
H917 H 0.45309 0.0623 0.98923 0.0
H918 H 0.44793 0.02662 0.9874 0.0
H919 H 0.45808 0.04039 0.00584 0.0
H920 H 0.44886 0.9375 0.99451 0.0
H921 H 0.4778 0.96895 0.03828 0.0
H922 H 0.49377 0.97156 0.97017 0.0
H923 H 0.46425 0.99192 0.97063 0.0
H924 H 0.46111 0.95587 0.97014 0.0
H925 H 0.52641 0.01141 0.02424 0.0
H926 H 0.50238 0.00898 0.04 0.0
H927 H 0.49728 0.03236 0.02409 0.0
C928 C 0.04332 0.02874 0.51347 0.0
C929 C 0.02999 0.05225 0.518 0.0
C930 C 0.02925 0.00756 0.50627 0.0
C931 C 1.00148 0.01048 0.503 0.0
C932 C 0.98813 0.03449 0.50728 0.0
C933 C 0.00245 0.05486 0.51499 0.0
C934 C 0.04402 0.98195 0.50235 0.0
C935 C 0.95882 0.03885 0.50349 0.0
C936 C 0.97273 0.96583 0.47091 0.0
C937 C 0.95842 0.94678 0.47966 0.0
C938 C 0.98629 0.98703 0.47834 0.0
C939 C 0.98641 0.98859 0.49495 0.0
C940 C 0.97206 0.96928 0.50385 0.0
C941 C 0.9578 0.94887 0.49607 0.0
C942 C 1.00049 0.00775 0.46841 0.0
C943 C 0.97236 0.96977 0.52158 0.0
H944 H 0.06458 0.02666 0.51591 0.0
H945 H 0.99219 0.07318 0.51837 0.0
H946 H 0.03379 0.96458 0.50791 0.0
H947 H 0.04372 0.97854 0.48948 0.0
H948 H 0.06524 0.98237 0.50635 0.0
H949 H 0.95168 0.05905 0.50711 0.0
H950 H 0.95547 0.03651 0.49067 0.0
H951 H 0.94638 0.0235 0.50948 0.0
H952 H 0.97313 0.96424 0.45821 0.0
H953 H 0.94703 0.93391 0.50284 0.0
H954 H 0.02239 0.00714 0.47075 0.0
H955 H 0.99335 0.02817 0.47153 0.0
H956 H 0.99719 0.0045 0.45564 0.0
H957 H 0.99337 0.96861 0.52588 0.0
H958 H 0.96075 0.95291 0.52676 0.0
H959 H 0.96382 0.98894 0.52593 0.0
C960 C 0.97995 0.19749 0.01052 0.0
C961 C 0.95603 0.20074 0.01897 0.0
C962 C 0.99831 0.21876 0.00908 0.0
C963 C 0.99312 0.24331 0.01691 0.0
C964 C 0.96861 0.24685 0.0251 0.0
C965 C 0.95012 0.22565 0.02576 0.0
C966 C 0.02365 0.21462 -0.00034 0.0
C967 C 0.96264 0.27237 0.03403 0.0
C968 C 0.05196 0.28475 0.0315 0.0
C969 C 0.05013 0.3075 0.02194 0.0
C970 C 0.03381 0.26342 0.02977 0.0
C971 C 0.01412 0.2645 0.01776 0.0
C972 C 0.01335 0.2868 0.00744 0.0
C973 C 0.03098 0.30841 0.00992 0.0
C974 C 0.03474 0.24049 0.04137 0.0
C975 C 0.99348 0.28815 0.99407 0.0
H976 H 0.98444 0.1782 0.00523 0.0
H977 H 0.93176 0.22803 0.03247 0.0
H978 H 0.02734 0.23211 0.99188 0.0
H979 H 0.04108 0.21291 0.00771 0.0
H980 H 0.0227 0.19615 0.99237 0.0
H981 H 0.94238 0.27214 0.03949 0.0
H982 H 0.97782 0.27517 0.04344 0.0
H983 H 0.964 0.28999 0.02613 0.0
H984 H 0.06663 0.28433 0.04091 0.0
H985 H 0.02971 0.32609 0.00252 0.0
H986 H 0.03708 0.22112 0.03511 0.0
H987 H 0.01554 0.23956 0.04797 0.0
H988 H 0.05147 0.24259 0.04992 0.0
H989 H 0.9934 0.26896 0.98744 0.0
H990 H 0.99805 0.30482 0.98583 0.0
H991 H 0.97295 0.29121 0.99879 0.0
C992 C 0.0601 0.73187 0.26468 0.0
C993 C 0.05687 0.70869 0.27382 0.0
C994 C 0.03883 0.7501 0.2627 0.0
C995 C 0.01426 0.74558 0.27065 0.0
C996 C 0.01083 0.72191 0.27967 0.0
C997 C 0.03203 0.7035 0.28088 0.0
C998 C 0.04285 0.77447 0.25243 0.0
C999 C 0.98527 0.71669 0.28872 0.0
C1000 C 0.97058 0.80438 0.28289 0.0
C1001 C 0.94794 0.80052 0.27342 0.0
C1002 C 0.99278 0.78712 0.28175 0.0
C1003 C 0.99265 0.76621 0.27045 0.0
C1004 C 0.9706 0.76359 0.26006 0.0
C1005 C 0.94819 0.7804 0.26192 0.0
C1006 C 0.01548 0.79011 0.29339 0.0
C1007 C 0.97019 0.74233 0.24742 0.0
H1008 H 0.07934 0.7358 0.25918 0.0
H1009 H 0.02966 0.68572 0.28811 0.0
H1010 H 0.02563 0.7769 0.24428 0.0
H1011 H 0.04381 0.79277 0.25983 0.0
H1012 H 0.06165 0.77317 0.24544 0.0
H1013 H 0.98584 0.69732 0.29519 0.0
H1014 H 0.98187 0.73313 0.2973 0.0
H1015 H 0.96781 0.71643 0.28064 0.0
H1016 H 0.97019 0.81975 0.2919 0.0
H1017 H 0.93064 0.77753 0.25457 0.0
H1018 H 0.03498 0.7916 0.28718 0.0
H1019 H 0.01639 0.77205 0.301 0.0
H1020 H 0.01305 0.80809 0.30098 0.0
H1021 H 0.98966 0.74184 0.24109 0.0
H1022 H 0.95381 0.74576 0.23879 0.0
H1023 H 0.96719 0.7223 0.25284 0.0
C1024 C 0.48371 0.69598 0.53202 0.0
C1025 C 0.45888 0.69303 0.52444 0.0
C1026 C 0.49868 0.71965 0.5306 0.0
C1027 C 0.489 0.74069 0.52097 0.0
C1028 C 0.46452 0.73742 0.51269 0.0
C1029 C 0.44947 0.71375 0.51474 0.0
C1030 C 0.5243 0.72253 0.53997 0.0
C1031 C 0.45401 0.75909 0.50194 0.0
C1032 C 0.5135 0.80967 0.533 0.0
C1033 C 0.53658 0.81258 0.52372 0.0
C1034 C 0.49721 0.78683 0.53177 0.0
C1035 C 0.5037 0.76671 0.52065 0.0
C1036 C 0.52601 0.77032 0.51055 0.0
C1037 C 0.54249 0.79303 0.51238 0.0
C1038 C 0.47405 0.78348 0.54306 0.0
C1039 C 0.53307 0.74972 0.49822 0.0
H1040 H 0.49101 0.68013 0.53964 0.0
H1041 H 0.43038 0.71146 0.50877 0.0
H1042 H 0.54137 0.72709 0.53205 0.0
H1043 H 0.52238 0.73957 0.5483 0.0
H1044 H 0.5292 0.70413 0.54676 0.0
H1045 H 0.43643 0.75222 0.49498 0.0
H1046 H 0.44792 0.77683 0.50896 0.0
H1047 H 0.47001 0.76573 0.49374 0.0
H1048 H 0.50889 0.82465 0.54185 0.0
H1049 H 0.56016 0.79534 0.50507 0.0
H1050 H 0.47807 0.76622 0.55097 0.0
H1051 H 0.45527 0.779 0.53659 0.0
H1052 H 0.47076 0.80165 0.55039 0.0
H1053 H 0.54118 0.73145 0.50396 0.0
H1054 H 0.54833 0.75735 0.48981 0.0
H1055 H 0.51488 0.74367 0.49157 0.0
C1056 C 0.55558 0.23684 0.77973 0.0
C1057 C 0.55861 0.21298 0.77115 0.0
C1058 C 0.53248 0.25265 0.77826 0.0
C1059 C 0.51214 0.24488 0.76757 0.0
C1060 C 0.51568 0.2216 0.75822 0.0
C1061 C 0.53871 0.20561 0.76032 0.0
C1062 C 0.52923 0.27687 0.78879 0.0
C1063 C 0.49482 0.21318 0.74635 0.0
C1064 C 0.44246 0.2674 0.77941 0.0
C1065 C 0.43997 0.29187 0.77138 0.0
C1066 C 0.46544 0.25144 0.77779 0.0
C1067 C 0.4862 0.25972 0.76753 0.0
C1068 C 0.48314 0.28361 0.75867 0.0
C1069 C 0.46022 0.2997 0.7609 0.0
C1070 C 0.46815 0.22653 0.78781 0.0
C1071 C 0.50446 0.29262 0.74723 0.0
H1072 H 0.5708 0.24258 0.7882 0.0
H1073 H 0.54109 0.18731 0.75357 0.0
H1074 H 0.52512 0.29505 0.78168 0.0
H1075 H 0.51179 0.27384 0.79671 0.0
H1076 H 0.54731 0.28064 0.79611 0.0
H1077 H 0.50227 0.19701 0.73849 0.0
H1078 H 0.47667 0.20576 0.75252 0.0
H1079 H 0.48863 0.23061 0.73907 0.0
H1080 H 0.42695 0.26128 0.7876 0.0
H1081 H 0.45826 0.31846 0.75455 0.0
H1082 H 0.48514 0.22905 0.79613 0.0
H1083 H 0.47271 0.20883 0.78038 0.0
H1084 H 0.44968 0.22226 0.79469 0.0
H1085 H 0.52236 0.29972 0.75378 0.0
H1086 H 0.49732 0.30921 0.73957 0.0
H1087 H 0.51095 0.27559 0.73973 0.0
C1088 C 0.94651 0.78395 0.48371 0.0
C1089 C 0.95486 0.80554 0.47432 0.0
C1090 C 0.96293 0.76121 0.48568 0.0
C1091 C 0.9879 0.75984 0.47777 0.0
C1092 C 0.99663 0.78182 0.46856 0.0
C1093 C 0.98015 0.80447 0.46709 0.0
C1094 C 0.95328 0.73842 0.49591 0.0
C1095 C 0.02291 0.78101 0.4597 0.0
C1096 C 0.04384 0.71065 0.48728 0.0
C1097 C 0.04024 0.69127 0.47551 0.0
C1098 C 0.0259 0.73227 0.48883 0.0
C1099 C 0.00429 0.73487 0.47813 0.0
C1100 C 1.00001 0.7148 0.46661 0.0
C1101 C 0.01786 0.69311 0.46556 0.0
C1102 C 0.03072 0.75291 0.50151 0.0
C1103 C 0.9775 0.71705 0.45479 0.0
H1104 H 0.92708 0.78473 0.48943 0.0
H1105 H 0.98673 0.821 0.45975 0.0
H1106 H 0.94891 0.72061 0.48852 0.0
H1107 H 0.96917 0.73254 0.50438 0.0
H1108 H 0.93483 0.74376 0.50255 0.0
H1109 H 0.02707 0.80005 0.45336 0.0
H1110 H 0.03975 0.77703 0.4679 0.0
H1111 H 0.02254 0.76437 0.45103 0.0
H1112 H 0.06095 0.70919 0.4951 0.0
H1113 H 0.01496 0.67825 0.45641 0.0
H1114 H 0.01175 0.75746 0.50781 0.0
H1115 H 0.03785 0.77188 0.49612 0.0
H1116 H 0.04595 0.7461 0.51018 0.0
H1117 H 0.95805 0.72021 0.46084 0.0
H1118 H 0.97585 0.69891 0.44725 0.0
H1119 H 0.981 0.73473 0.44712 0.0
C1120 C 0.54417 0.79629 0.73452 0.0
C1121 C 0.56445 0.79146 0.72344 0.0
C1122 C 0.52213 0.77884 0.73592 0.0
C1123 C 0.52004 0.75645 0.72574 0.0
C1124 C 0.54097 0.75093 0.71496 0.0
C1125 C 0.56304 0.76834 0.71407 0.0
C1126 C 0.50054 0.785 0.74783 0.0
C1127 C 0.53931 0.72755 0.7037 0.0
C1128 C 0.46916 0.70032 0.73168 0.0
C1129 C 0.44837 0.70849 0.72164 0.0
C1130 C 0.49224 0.71624 0.73367 0.0
C1131 C 0.49481 0.74048 0.72509 0.0
C1132 C 0.47372 0.74893 0.7151 0.0
C1133 C 0.45067 0.73301 0.71365 0.0
C1134 C 0.51403 0.70696 0.74473 0.0
C1135 C 0.47586 0.77436 0.7055 0.0
H1136 H 0.54527 0.81398 0.74191 0.0
H1137 H 0.57859 0.76448 0.70544 0.0
H1138 H 0.48217 0.79199 0.7417 0.0
H1139 H 0.49513 0.76664 0.7545 0.0
H1140 H 0.50687 0.80081 0.75626 0.0
H1141 H 0.55807 0.72494 0.6968 0.0
H1142 H 0.53517 0.70866 0.71015 0.0
H1143 H 0.52244 0.73079 0.69539 0.0
H1144 H 0.46739 0.68148 0.73797 0.0
H1145 H 0.43478 0.73938 0.70579 0.0
H1146 H 0.51934 0.72328 0.75304 0.0
H1147 H 0.53241 0.702 0.73797 0.0
H1148 H 0.50793 0.68896 0.75157 0.0
H1149 H 0.47938 0.79184 0.71331 0.0
H1150 H 0.45751 0.77825 0.69843 0.0
H1151 H 0.49327 0.77295 0.69741 0.0
C1152 C 0.55571 0.22185 0.96386 0.0
C1153 C 0.55084 0.19866 0.97269 0.0
C1154 C 0.53826 0.24392 0.9647 0.0
C1155 C 0.51603 0.24308 0.97509 0.0
C1156 C 0.51219 0.2204 0.98486 0.0
C1157 C 0.52931 0.19817 0.98328 0.0
C1158 C 0.54262 0.26736 0.95374 0.0
C1159 C 0.48943 0.21921 0.99655 0.0
C1160 C 0.48196 0.31043 0.9815 0.0
C1161 C 0.45975 0.3083 0.97147 0.0
C1162 C 0.49968 0.28877 0.98351 0.0
C1163 C 0.49571 0.26497 0.97472 0.0
C1164 C 0.47302 0.26265 0.96475 0.0
C1165 C 0.455 0.2842 0.9635 0.0
C1166 C 0.52294 0.29157 0.99476 0.0
C1167 C 0.46848 0.23795 0.9548 0.0
H1168 H 0.57217 0.22204 0.95552 0.0
H1169 H 0.52563 0.1802 0.99014 0.0
H1170 H 0.52537 0.26902 0.94554 0.0
H1171 H 0.54366 0.28639 0.96046 0.0
H1172 H 0.56132 0.26526 0.94673 0.0
H1173 H 0.4916 0.20208 0.00481 0.0
H1174 H 0.48838 0.23812 0.00342 0.0
H1175 H 0.47008 0.21699 0.99023 0.0
H1176 H 0.4855 0.32911 0.98771 0.0
H1177 H 0.43796 0.28274 0.95561 0.0
H1178 H 0.54205 0.29258 0.9881 0.0
H1179 H 0.52411 0.27377 0.00257 0.0
H1180 H 0.52126 0.30991 0.00213 0.0
H1181 H 0.48574 0.23507 0.94672 0.0
H1182 H 0.44982 0.23932 0.94769 0.0
H1183 H 0.46723 0.21984 0.96233 0.0
C1184 C 0.03236 0.30269 0.21517 0.0
C1185 C 0.05545 0.30033 0.22442 0.0
C1186 C 0.01129 0.28416 0.21662 0.0
C1187 C 0.01299 0.26353 0.22805 0.0
C1188 C 0.03559 0.26223 0.23812 0.0
C1189 C 0.05692 0.28028 0.23591 0.0
C1190 C 0.98801 0.28572 0.20528 0.0
C1191 C 0.03761 0.24131 0.25089 0.0
C1192 C 0.94695 0.22729 0.23498 0.0
C1193 C 0.95055 0.20407 0.22594 0.0
C1194 C 0.9678 0.24607 0.23666 0.0
C1195 C 0.99222 0.24208 0.22845 0.0
C1196 C 0.99606 0.21831 0.21958 0.0
C1197 C 0.97534 0.19932 0.21871 0.0
C1198 C 0.9634 0.27054 0.2468 0.0
C1199 C 0.02141 0.21366 0.21022 0.0
H1200 H 0.0315 0.31806 0.20617 0.0
H1201 H 0.07485 0.27861 0.24307 0.0
H1202 H 0.98729 0.26716 0.19807 0.0
H1203 H 0.96877 0.28705 0.21178 0.0
H1204 H 0.98953 0.30327 0.19727 0.0
H1205 H 0.05437 0.24553 0.25914 0.0
H1206 H 0.01857 0.24029 0.25765 0.0
H1207 H 0.04097 0.22126 0.24557 0.0
H1208 H 0.92773 0.23087 0.24058 0.0
H1209 H 0.97793 0.1815 0.21154 0.0
H1210 H 0.96116 0.28856 0.23926 0.0
H1211 H 0.98099 0.27394 0.25455 0.0
H1212 H 0.94512 0.26864 0.2542 0.0
H1213 H 0.0237 0.22978 0.20131 0.0
H1214 H 0.02135 0.19397 0.20409 0.0
H1215 H 0.03923 0.21454 0.218 0.0
C1216 C 0.9797 0.70024 0.96696 0.0
C1217 C 0.95407 0.69853 0.97372 0.0
C1218 C 0.99516 0.72361 0.96825 0.0
C1219 C 0.9851 0.74571 0.97689 0.0
C1220 C 0.95972 0.74378 0.98433 0.0
C1221 C 0.94428 0.72032 0.98246 0.0
C1222 C 0.02185 0.72498 0.95983 0.0
C1223 C 0.9487 0.76666 0.994 0.0
C1224 C 0.03946 0.79661 0.98637 0.0
C1225 C 0.03592 0.81533 0.97424 0.0
C1226 C 0.02181 0.77478 0.98811 0.0
C1227 C 1.00067 0.77121 0.97717 0.0
C1228 C 0.99644 0.79063 0.96528 0.0
C1229 C 0.01391 0.81262 0.96409 0.0
C1230 C 0.02651 0.75494 0.00122 0.0
C1231 C 0.97455 0.78729 0.95315 0.0
H1232 H 0.98736 0.68359 0.96008 0.0
H1233 H 0.92456 0.71904 0.9878 0.0
H1234 H 0.02144 0.7414 0.95102 0.0
H1235 H 0.03814 0.72963 0.96828 0.0
H1236 H 0.02688 0.70592 0.95372 0.0
H1237 H 0.93004 0.76098 0.00034 0.0
H1238 H 0.96387 0.77341 0.0027 0.0
H1239 H 0.9442 0.78401 0.98627 0.0
H1240 H 0.05627 0.79877 0.99436 0.0
H1241 H 0.0111 0.82696 0.95465 0.0
H1242 H 0.03457 0.73595 0.9963 0.0
H1243 H 0.00733 0.75009 0.00722 0.0
H1244 H 0.041 0.76265 0.01006 0.0
H1245 H 0.97893 0.76944 0.94577 0.0
H1246 H 0.97271 0.80509 0.94536 0.0
H1247 H 0.95493 0.78376 0.95894 0.0
C1248 C 0.95859 0.2929 0.73428 0.0
C1249 C 0.93922 0.28946 0.72249 0.0
C1250 C 0.98024 0.27497 0.73574 0.0
C1251 C 0.98293 0.25358 0.72489 0.0
C1252 C 0.96294 0.24951 0.71331 0.0
C1253 C 0.94117 0.26731 0.71237 0.0
C1254 C 1.00078 0.27954 0.7485 0.0
C1255 C 0.9653 0.2273 0.7013 0.0
C1256 C 0.05288 0.22984 0.71422 0.0
C1257 C 0.05399 0.20452 0.72141 0.0
C1258 C 0.03005 0.24612 0.71551 0.0
C1259 C 0.0079 0.23717 0.72451 0.0
C1260 C 0.00922 0.21208 0.73231 0.0
C1261 C 0.03215 0.19586 0.73051 0.0
C1262 C 0.0293 0.27251 0.70676 0.0
C1263 C 0.98625 0.20219 0.74232 0.0
H1264 H 0.95703 0.30983 0.74223 0.0
H1265 H 0.92633 0.26458 0.70319 0.0
H1266 H 0.0052 0.26046 0.75472 0.0
H1267 H 0.01984 0.28667 0.74321 0.0
H1268 H 0.99396 0.29467 0.75722 0.0
H1269 H 0.94724 0.22582 0.6937 0.0
H1270 H 0.98306 0.23099 0.69373 0.0
H1271 H 0.96843 0.2077 0.70721 0.0
H1272 H 0.06959 0.23664 0.70709 0.0
H1273 H 0.03296 0.1764 0.73619 0.0
H1274 H 0.02533 0.28925 0.71503 0.0
H1275 H 0.01268 0.27228 0.69807 0.0
H1276 H 0.04837 0.27672 0.70045 0.0
H1277 H 0.9804 0.2178 0.75097 0.0
H1278 H 0.99138 0.18346 0.74873 0.0
H1279 H 0.96847 0.19825 0.73481 0.0
C1280 C 0.52567 0.30441 0.46307 0.0
C1281 C 0.55085 0.30558 0.47043 0.0
C1282 C 0.50923 0.28172 0.46448 0.0
C1283 C 0.51785 0.25981 0.47378 0.0
C1284 C 0.54282 0.26119 0.48172 0.0
C1285 C 0.55922 0.28395 0.47978 0.0
C1286 C 0.483 0.28088 0.45556 0.0
C1287 C 0.55235 0.23848 0.49205 0.0
C1288 C 0.4615 0.21142 0.48391 0.0
C1289 C 0.4649 0.19157 0.4724 0.0
C1290 C 0.4796 0.23296 0.48517 0.0
C1291 C 0.50118 0.23502 0.47439 0.0
C1292 C 0.5052 0.21455 0.4631 0.0
C1293 C 0.4872 0.19293 0.46236 0.0
C1294 C 0.47505 0.25405 0.49763 0.0
C1295 C 0.52761 0.21623 0.45119 0.0
H1296 H 0.51911 0.32096 0.45574 0.0
H1297 H 0.57857 0.28482 0.48559 0.0
H1298 H 0.48322 0.26391 0.44711 0.0
H1299 H 0.46607 0.27742 0.46377 0.0
H1300 H 0.4791 0.29973 0.44896 0.0
H1301 H 0.5711 0.2436 0.49844 0.0
H1302 H 0.5366 0.23318 0.50073 0.0
H1303 H 0.5561 0.22036 0.4848 0.0
H1304 H 0.44446 0.21034 0.49181 0.0
H1305 H 0.48993 0.17772 0.45339 0.0
H1306 H 0.46823 0.27297 0.49204 0.0
H1307 H 0.49407 0.25848 0.50391 0.0
H1308 H 0.45969 0.24774 0.50634 0.0
H1309 H 0.5242 0.23371 0.44335 0.0
H1310 H 0.52903 0.19785 0.44383 0.0
H1311 H 0.54715 0.21939 0.45715 0.0
C1312 C 0.46738 0.80543 0.23158 0.0
C1313 C 0.44604 0.79687 0.22206 0.0
C1314 C 0.49037 0.78934 0.23356 0.0
C1315 C 0.49227 0.76453 0.2255 0.0
C1316 C 0.47065 0.75573 0.21601 0.0
C1317 C 0.44772 0.77184 0.21457 0.0
C1318 C 0.51274 0.79903 0.24409 0.0
C1319 C 0.47206 0.72968 0.20694 0.0
C1320 C 0.55977 0.73515 0.2142 0.0
C1321 C 0.56127 0.7126 0.22404 0.0
C1322 C 0.5379 0.75284 0.21498 0.0
C1323 C 0.51732 0.74825 0.22614 0.0
C1324 C 0.51953 0.72646 0.23675 0.0
C1325 C 0.54132 0.70865 0.23543 0.0
C1326 C 0.53605 0.77549 0.20323 0.0
C1327 C 0.49837 0.72134 0.24907 0.0
H1328 H 0.46611 0.82467 0.23749 0.0
H1329 H 0.43139 0.76515 0.20711 0.0
H1330 H 0.51817 0.78319 0.25269 0.0
H1331 H 0.5309 0.80326 0.23698 0.0
H1332 H 0.50718 0.81756 0.2506 0.0
H1333 H 0.4534 0.72563 0.20019 0.0
H1334 H 0.48919 0.73031 0.19861 0.0
H1335 H 0.47562 0.71266 0.21507 0.0
H1336 H 0.57505 0.73828 0.20533 0.0
H1337 H 0.54252 0.69141 0.24317 0.0
H1338 H 0.53247 0.79484 0.20932 0.0
H1339 H 0.51876 0.77197 0.19527 0.0
H1340 H 0.55452 0.77736 0.196 0.0
H1341 H 0.4935 0.74017 0.25543 0.0
H1342 H 0.50483 0.70595 0.25773 0.0
H1343 H 0.47965 0.71427 0.24335 0.0
C1344 C 0.99026 0.30959 0.53324 0.0
C1345 C 0.96718 0.3123 0.52392 0.0
C1346 C 0.00679 0.2869 0.532 0.0
C1347 C 1.00056 0.26676 0.52085 0.0
C1348 C 0.9782 0.27015 0.51075 0.0
C1349 C 0.96147 0.2927 0.51259 0.0
C1350 C 0.02996 0.28377 0.54331 0.0
C1351 C 0.9714 0.24953 0.49838 0.0
C1352 C 0.05556 0.21462 0.51473 0.0
C1353 C 0.04644 0.19364 0.52432 0.0
C1354 C 0.04018 0.23811 0.51279 0.0
C1355 C 0.01566 0.24096 0.52109 0.0
C1356 C 0.00631 0.21966 0.53063 0.0
C1357 C 0.0216 0.19617 0.53194 0.0
C1358 C 0.05036 0.26005 0.50212 0.0
C1359 C 0.98068 0.22209 0.54004 0.0
H1360 H 0.99471 0.3246 0.54208 0.0
H1361 H 0.9438 0.29486 0.50525 0.0
H1362 H 0.0262 0.26635 0.55114 0.0
H1363 H 0.04883 0.27966 0.53683 0.0
H1364 H 0.03296 0.3019 0.55072 0.0
H1365 H 0.95596 0.25696 0.49003 0.0
H1366 H 0.98965 0.24383 0.49169 0.0
H1367 H 0.96365 0.23108 0.5041 0.0
H1368 H 0.07466 0.21265 0.50873 0.0
H1369 H 0.01453 0.18012 0.53948 0.0
H1370 H 0.0561 0.27784 0.50919 0.0
H1371 H 0.03427 0.26648 0.49392 0.0
H1372 H 0.06808 0.25354 0.49517 0.0
H1373 H 0.98237 0.23908 0.54842 0.0
H1374 H 0.97608 0.20355 0.54678 0.0
H1375 H 0.96352 0.22647 0.53215 0.0
C1376 C 0.44484 0.23571 0.28347 0.0
C1377 C 0.44253 0.21213 0.27456 0.0
C1378 C 0.46775 0.25196 0.28244 0.0
C1379 C 0.48858 0.24489 0.27192 0.0
C1380 C 0.48572 0.22191 0.26224 0.0
C1381 C 0.46289 0.20552 0.26386 0.0
C1382 C 0.47026 0.27587 0.29327 0.0
C1383 C 0.50714 0.21419 0.25054 0.0
C1384 C 0.54056 0.29969 0.26515 0.0
C1385 C 0.56112 0.29163 0.27538 0.0
C1386 C 0.51731 0.28397 0.26327 0.0
C1387 C 0.51426 0.26017 0.27221 0.0
C1388 C 0.53513 0.25184 0.28239 0.0
C1389 C 0.55842 0.26746 0.28367 0.0
C1390 C 0.49583 0.29307 0.25195 0.0
C1391 C 0.53243 0.22698 0.29245 0.0
H1392 H 0.42926 0.24085 0.29184 0.0
H1393 H 0.46108 0.18743 0.25686 0.0
H1394 H 0.48732 0.27273 0.30146 0.0
H1395 H 0.47459 0.2943 0.28643 0.0
H1396 H 0.45178 0.27928 0.3003 0.0
H1397 H 0.50036 0.19795 0.24253 0.0
H1398 H 0.51308 0.23187 0.24341 0.0
H1399 H 0.5253 0.20716 0.25687 0.0
H1400 H 0.54267 0.31825 0.25862 0.0
H1401 H 0.57416 0.26122 0.29168 0.0
H1402 H 0.47761 0.29911 0.25856 0.0
H1403 H 0.49002 0.27631 0.24406 0.0
H1404 H 0.50248 0.31034 0.24467 0.0
H1405 H 0.5151 0.22926 0.30053 0.0
H1406 H 0.55071 0.22303 0.29956 0.0
H1407 H 0.52844 0.20919 0.28498 0.0
C1408 C 0.48145 0.80803 0.03484 0.0
C1409 C 0.45711 0.80994 0.02663 0.0
C1410 C 0.49781 0.78525 0.03351 0.0
C1411 C 0.49003 0.7641 0.02339 0.0
C1412 C 0.46603 0.76635 0.01455 0.0
C1413 C 0.44959 0.7891 0.01646 0.0
C1414 C 0.52287 0.7834 0.04347 0.0
C1415 C 0.45749 0.74453 0.0033 0.0
C1416 C 0.54625 0.71449 0.01491 0.0
C1417 C 0.54045 0.69399 0.02567 0.0
C1418 C 0.5291 0.73677 0.01331 0.0
C1419 C 0.50615 0.73892 0.02307 0.0
C1420 C 0.49991 0.71795 0.03367 0.0
C1421 C 0.51693 0.6956 0.03468 0.0
C1422 C 0.53596 0.75836 0.00154 0.0
C1423 C 0.47605 0.71973 0.04459 0.0
H1424 H 0.48729 0.82398 0.0428 0.0
H1425 H 0.4309 0.7906 0.00999 0.0
H1426 H 0.52126 0.76603 0.05158 0.0
H1427 H 0.54069 0.77994 0.03593 0.0
H1428 H 0.52632 0.80182 0.05054 0.0
H1429 H 0.4399 0.75059 0.99609 0.0
H1430 H 0.47433 0.73925 0.99534 0.0
H1431 H 0.45216 0.72615 0.00995 0.0
H1432 H 0.56429 0.71322 0.00782 0.0
H1433 H 0.5124 0.6799 0.04309 0.0
H1434 H 0.54244 0.77678 0.0078 0.0
H1435 H 0.51801 0.76366 0.99447 0.0
H1436 H 0.55233 0.75207 0.99348 0.0
H1437 H 0.47873 0.73693 0.05273 0.0
H1438 H 0.47334 0.70119 0.05167 0.0
H1439 H 0.45741 0.72343 0.03781 0.0
C1440 C 0.94889 0.73258 0.7818 0.0
C1441 C 0.94638 0.70775 0.77417 0.0
C1442 C 0.9723 0.74795 0.78045 0.0
C1443 C 0.99356 0.73868 0.77084 0.0
C1444 C 0.99075 0.71418 0.76253 0.0
C1445 C 0.96731 0.69873 0.7645 0.0
C1446 C 0.9747 0.77358 0.78986 0.0
C1447 C 0.01266 0.70409 0.7518 0.0
C1448 C 0.04483 0.79331 0.76253 0.0
C1449 C 0.06437 0.78777 0.77393 0.0
C1450 C 0.02253 0.77632 0.76056 0.0
C1451 C 0.01931 0.75385 0.77059 0.0
C1452 C 0.03946 0.74773 0.78176 0.0
C1453 C 0.06191 0.76454 0.78313 0.0
C1454 C 1.00191 0.78301 0.74817 0.0
C1455 C 0.03651 0.72443 0.793 0.0
H1456 H 0.93288 0.73959 0.7894 0.0
H1457 H 0.96537 0.67964 0.75849 0.0
H1458 H 0.99175 0.77195 0.7982 0.0
H1459 H 0.97895 0.79077 0.78196 0.0
H1460 H 0.95618 0.77811 0.79664 0.0
H1461 H 0.00613 0.68642 0.74481 0.0
H1462 H 0.01907 0.72024 0.74364 0.0
H1463 H 0.03046 0.69828 0.75885 0.0
H1464 H 0.04681 0.81109 0.75528 0.0
H1465 H 0.07688 0.76021 0.79202 0.0
H1466 H 0.98345 0.79078 0.75387 0.0
H1467 H 0.99624 0.76472 0.7415 0.0
H1468 H 0.00933 0.79842 0.7398 0.0
H1469 H 0.01916 0.72808 0.8009 0.0
H1470 H 0.05472 0.72142 0.80033 0.0
H1471 H 0.03239 0.70562 0.78647 0.0
C1472 C 0.30044 0.34341 0.97573 0.0
C1473 C 0.3208 0.36009 0.98162 0.0
C1474 C 0.2743 0.34441 0.98182 0.0
C1475 C 0.26836 0.36231 0.99425 0.0
C1476 C 0.28879 0.37923 0.00027 0.0
C1477 C 0.31477 0.37804 0.99381 0.0
C1478 C 0.25305 0.32618 0.97497 0.0
C1479 C 0.28328 0.39833 0.01366 0.0
C1480 C 0.19473 0.37846 0.00184 0.0
C1481 C 0.1885 0.36021 0.01384 0.0
C1482 C 0.22075 0.37962 0.99544 0.0
C1483 C 0.24102 0.36236 0.00133 0.0
C1484 C 0.23489 0.34418 0.01358 0.0
C1485 C 0.20871 0.34323 0.01961 0.0
C1486 C 0.22646 0.39904 0.98225 0.0
C1487 C 0.25595 0.32557 0.02026 0.0
H1488 H 0.30484 0.32963 0.96622 0.0
H1489 H 0.33039 0.39101 0.99839 0.0
H1490 H 0.2457 0.31213 0.98412 0.0
H1491 H 0.23559 0.33821 0.97098 0.0
H1492 H 0.26066 0.31424 0.96489 0.0
H1493 H 0.30118 0.41051 0.01679 0.0
H1494 H 0.26662 0.4121 0.01051 0.0
H1495 H 0.27682 0.38687 0.02418 0.0
H1496 H 0.17922 0.39166 0.99735 0.0
H1497 H 0.20416 0.32921 0.02898 0.0
H1498 H 0.23276 0.3878 0.97161 0.0
H1499 H 0.2433 0.4125 0.98552 0.0
H1500 H 0.20871 0.41153 0.97925 0.0
H1501 H 0.26314 0.31166 0.011 0.0
H1502 H 0.24823 0.31347 0.03025 0.0
H1503 H 0.27355 0.33731 0.02435 0.0
C1504 C 0.87467 0.05973 0.2436 0.0
C1505 C 0.89536 0.06521 0.23289 0.0
C1506 C 0.87181 0.03403 0.25024 0.0
C1507 C 0.88989 0.01332 0.24593 0.0
C1508 C 0.91046 0.01865 0.23491 0.0
C1509 C 0.91303 0.04452 0.2286 0.0
C1510 C 0.84979 0.02915 0.26209 0.0
C1511 C 0.93004 0.9971 0.22992 0.0
C1512 C 0.90404 0.95528 0.27354 0.0
C1513 C 0.88903 0.93442 0.26677 0.0
C1514 C 0.90379 0.98121 0.26714 0.0
C1515 C 0.88837 0.98643 0.25352 0.0
C1516 C 0.87286 0.96559 0.24673 0.0
C1517 C 0.87326 0.93982 0.2535 0.0
C1518 C 0.92045 0.0029 0.27481 0.0
C1519 C 0.85637 0.97036 0.23212 0.0
H1520 H 0.86093 0.07561 0.24695 0.0
H1521 H 0.92894 0.04849 0.22023 0.0
H1522 H 0.83712 0.01201 0.25832 0.0
H1523 H 0.85875 0.02371 0.27359 0.0
H1524 H 0.83676 0.04704 0.26373 0.0
H1525 H 0.94402 0.00414 0.22062 0.0
H1526 H 0.94206 0.99046 0.24018 0.0
H1527 H 0.91902 0.9793 0.22547 0.0
H1528 H 0.9161 0.95136 0.28389 0.0
H1529 H 0.86159 0.9238 0.24823 0.0
H1530 H 0.90776 0.02063 0.27749 0.0
H1531 H 0.93643 0.00962 0.26662 0.0
H1532 H 0.93007 0.99596 0.28587 0.0
H1533 H 0.84247 0.98748 0.23395 0.0
H1534 H 0.84446 0.95242 0.22871 0.0
H1535 H 0.8698 0.97577 0.22222 0.0
C1536 C 0.19206 0.62417 0.49753 0.0
C1537 C 0.185 0.64566 0.48772 0.0
C1538 C 0.21841 0.62155 0.50332 0.0
C1539 C 0.23821 0.64055 0.4989 0.0
C1540 C 0.23122 0.662 0.4888 0.0
C1541 C 0.20469 0.66443 0.48347 0.0
C1542 C 0.22497 0.59872 0.51432 0.0
C1543 C 0.25179 0.68247 0.48362 0.0
C1544 C 0.2993 0.65352 0.52441 0.0
C1545 C 0.31941 0.63911 0.51653 0.0
C1546 C 0.27266 0.65336 0.51909 0.0
C1547 C 0.26598 0.63887 0.50534 0.0
C1548 C 0.28614 0.6241 0.49736 0.0
C1549 C 0.31261 0.62417 0.50315 0.0
C1550 C 0.25172 0.66902 0.52809 0.0
C1551 C 0.27987 0.60881 0.4825 0.0
H1552 H 0.17693 0.60959 0.50084 0.0
H1553 H 0.19948 0.68092 0.47574 0.0
H1554 H 0.24159 0.58646 0.50944 0.0
H1555 H 0.23195 0.60683 0.52576 0.0
H1556 H 0.20742 0.58544 0.51645 0.0
H1557 H 0.24343 0.69712 0.47507 0.0
H1558 H 0.2594 0.69368 0.49396 0.0
H1559 H 0.26921 0.67222 0.47813 0.0
H1560 H 0.30434 0.66485 0.53488 0.0
H1561 H 0.32808 0.61301 0.49702 0.0
H1562 H 0.23448 0.65585 0.53105 0.0
H1563 H 0.2439 0.68561 0.5207 0.0
H1564 H 0.25982 0.67773 0.53913 0.0
H1565 H 0.26332 0.59435 0.48462 0.0
H1566 H 0.29757 0.59764 0.47797 0.0
H1567 H 0.27294 0.62296 0.47328 0.0
C1568 C 0.62711 0.06472 0.74975 0.0
C1569 C 0.61043 0.07153 0.7624 0.0
C1570 C 0.62812 0.0382 0.74406 0.0
C1571 C 0.61255 0.01798 0.75144 0.0
C1572 C 0.59621 0.02469 0.76446 0.0
C1573 C 0.59513 0.05138 0.76965 0.0
C1574 C 0.64535 0.03192 0.72994 0.0
C1575 C 0.57966 0.0037 0.77284 0.0
C1576 C 0.59061 0.95587 0.72901 0.0
C1577 C 0.609 0.9365 0.73426 0.0
C1578 C 0.59209 0.98257 0.73416 0.0
C1579 C 0.6121 0.99007 0.74512 0.0
C1580 C 0.63073 0.97061 0.75052 0.0
C1581 C 0.62914 0.94408 0.74488 0.0
C1582 C 0.5721 0.00275 0.72792 0.0
C1583 C 0.652 0.97771 0.76244 0.0
H1584 H 0.63898 0.08022 0.74412 0.0
H1585 H 0.58245 0.05643 0.77958 0.0
H1586 H 0.6598 0.01569 0.73281 0.0
H1587 H 0.63254 0.02453 0.7202 0.0
H1588 H 0.65674 0.04973 0.72578 0.0
H1589 H 0.56937 0.01187 0.78339 0.0
H1590 H 0.56424 0.99551 0.76475 0.0
H1591 H 0.59263 0.9867 0.77652 0.0
H1592 H 0.57519 0.95025 0.72065 0.0
H1593 H 0.6434 0.9292 0.74897 0.0
H1594 H 0.5828 0.02025 0.72284 0.0
H1595 H 0.5594 0.01034 0.73766 0.0
H1596 H 0.55879 0.99405 0.71877 0.0
H1597 H 0.66457 0.99446 0.75802 0.0
H1598 H 0.66525 0.96042 0.76524 0.0
H1599 H 0.64233 0.98471 0.77345 0.0
C1600 C 0.68937 0.62464 0.00414 0.0
C1601 C 0.68286 0.64424 0.01534 0.0
C1602 C 0.71545 0.62298 0.99784 0.0
C1603 C 0.73553 0.64107 0.00306 0.0
C1604 C 0.72915 0.66051 0.01459 0.0
C1605 C 0.7029 0.66199 0.02049 0.0
C1606 C 0.72138 0.60223 0.98538 0.0
C1607 C 0.75002 0.67998 0.02061 0.0
C1608 C 0.80959 0.6258 0.99607 0.0
C1609 C 0.81543 0.64284 0.98342 0.0
C1610 C 0.78357 0.62471 0.0025 0.0
C1611 C 0.76288 0.64072 0.99594 0.0
C1612 C 0.76858 0.6575 0.98295 0.0
C1613 C 0.79478 0.65851 0.97694 0.0
C1614 C 0.77835 0.60688 0.0165 0.0
C1615 C 0.74706 0.67464 0.97548 0.0
H1616 H 0.67399 0.61085 0.00013 0.0
H1617 H 0.69813 0.67703 0.02926 0.0
H1618 H 0.72739 0.61238 0.97433 0.0
H1619 H 0.73846 0.58943 0.98909 0.0
H1620 H 0.7038 0.58916 0.98292 0.0
H1621 H 0.74221 0.6929 0.03022 0.0
H1622 H 0.7678 0.66887 0.02501 0.0
H1623 H 0.75694 0.6931 0.01089 0.0
H1624 H 0.82545 0.61364 0.00112 0.0
H1625 H 0.79904 0.67153 0.96705 0.0
H1626 H 0.76173 0.59275 0.01389 0.0
H1627 H 0.77197 0.61929 0.02667 0.0
H1628 H 0.79637 0.59511 0.01994 0.0
H1629 H 0.72968 0.66199 0.97203 0.0
H1630 H 0.75443 0.68546 0.96491 0.0
H1631 H 0.73965 0.68965 0.98407 0.0
C1632 C 0.09245 0.95084 0.77112 0.0
C1633 C 0.11054 0.93143 0.76557 0.0
C1634 C 0.09302 0.97729 0.76547 0.0
C1635 C 0.11183 0.98448 0.75375 0.0
C1636 C 0.13028 0.96504 0.74813 0.0
C1637 C 0.12958 0.93877 0.75422 0.0
C1638 C 0.07325 0.99747 0.77194 0.0
C1639 C 0.15033 0.97182 0.73545 0.0
C1640 C 0.09181 0.04356 0.72813 0.0
C1641 C 0.10743 0.06446 0.73435 0.0
C1642 C 0.09359 0.01737 0.73409 0.0
C1643 C 0.11107 0.01195 0.7468 0.0
C1644 C 0.12688 0.03295 0.75319 0.0
C1645 C 0.12506 0.05895 0.74678 0.0
C1646 C 0.07667 0.99551 0.72678 0.0
C1647 C 0.14538 0.02805 0.76694 0.0
H1648 H 0.07786 0.94541 0.78002 0.0
H1649 H 0.14361 0.92387 0.74989 0.0
H1650 H 0.08403 0.01552 0.77625 0.0
H1651 H 0.05944 0.00414 0.76248 0.0
H1652 H 0.06106 0.98912 0.78171 0.0
H1653 H 0.16383 0.9547 0.73269 0.0
H1654 H 0.13956 0.97773 0.72457 0.0
H1655 H 0.16276 0.98922 0.73909 0.0
H1656 H 0.07835 0.04757 0.7184 0.0
H1657 H 0.13719 0.07501 0.75162 0.0
H1658 H 0.06233 0.98752 0.73559 0.0
H1659 H 0.08962 0.97857 0.723 0.0
H1660 H 0.06509 0.00276 0.71646 0.0
H1661 H 0.13358 0.02094 0.77718 0.0
H1662 H 0.15659 0.0464 0.7704 0.0
H1663 H 0.16002 0.01203 0.76401 0.0
C1664 C 0.81717 0.3789 0.50296 0.0
C1665 C 0.82424 0.36025 0.51458 0.0
C1666 C 0.79093 0.37972 0.49684 0.0
C1667 C 0.77122 0.36179 0.5027 0.0
C1668 C 0.77814 0.34337 0.51469 0.0
C1669 C 0.80458 0.34267 0.52037 0.0
C1670 C 0.78443 0.39933 0.48387 0.0
C1671 C 0.75768 0.32417 0.52143 0.0
C1672 C 0.69697 0.37595 0.4955 0.0
C1673 C 0.6912 0.358 0.48326 0.0
C1674 C 0.72297 0.37755 0.50192 0.0
C1675 C 0.74373 0.36117 0.49576 0.0
C1676 C 0.73805 0.34331 0.48326 0.0
C1677 C 0.71186 0.34179 0.47727 0.0
C1678 C 0.72816 0.39649 0.51543 0.0
C1679 C 0.75964 0.32573 0.47622 0.0
H1680 H 0.83227 0.39254 0.49845 0.0
H1681 H 0.80979 0.32838 0.52948 0.0
H1682 H 0.77834 0.38821 0.47315 0.0
H1683 H 0.76724 0.41219 0.48734 0.0
H1684 H 0.80176 0.41244 0.48092 0.0
H1685 H 0.76586 0.31224 0.53136 0.0
H1686 H 0.73981 0.3354 0.5256 0.0
H1687 H 0.75079 0.3101 0.51216 0.0
H1688 H 0.68111 0.38854 0.50017 0.0
H1689 H 0.70766 0.32806 0.4677 0.0
H1690 H 0.74436 0.4108 0.5123 0.0
H1691 H 0.73513 0.38499 0.52582 0.0
H1692 H 0.70997 0.40809 0.51875 0.0
H1693 H 0.77676 0.33825 0.47224 0.0
H1694 H 0.7522 0.31382 0.46608 0.0
H1695 H 0.76742 0.31167 0.48524 0.0
C1696 C 0.40911 0.05006 0.27187 0.0
C1697 C 0.39219 0.07003 0.26576 0.0
C1698 C 0.40812 0.02361 0.26625 0.0
C1699 C 0.3901 0.01698 0.25399 0.0
C1700 C 0.37282 0.03699 0.24782 0.0
C1701 C 0.37389 0.06326 0.25389 0.0
C1702 C 0.42662 0.00282 0.27331 0.0
C1703 C 0.35365 0.03079 0.23457 0.0
C1704 C 0.4101 0.95721 0.2289 0.0
C1705 C 0.39331 0.93685 0.23468 0.0
C1706 C 0.40881 0.98343 0.23486 0.0
C1707 C 0.39054 0.98946 0.24709 0.0
C1708 C 0.37355 0.96901 0.25304 0.0
C1709 C 0.37499 0.94297 0.24667 0.0
C1710 C 0.42708 0.00468 0.22807 0.0
C1711 C 0.35412 0.97459 0.26624 0.0
H1712 H 0.4231 0.05506 0.28118 0.0
H1713 H 0.36077 0.0786 0.24913 0.0
H1714 H 0.41489 0.98517 0.27732 0.0
H1715 H 0.44098 0.99563 0.26428 0.0
H1716 H 0.43823 0.01082 0.28342 0.0
H1717 H 0.34095 0.04833 0.23143 0.0
H1718 H 0.36513 0.02451 0.22402 0.0
H1719 H 0.34038 0.01381 0.23786 0.0
H1720 H 0.42415 0.95275 0.21953 0.0
H1721 H 0.36194 0.92735 0.25117 0.0
H1722 H 0.44086 0.01225 0.2373 0.0
H1723 H 0.41504 0.02201 0.22388 0.0
H1724 H 0.43932 0.99699 0.21813 0.0
H1725 H 0.36528 0.9814 0.2768 0.0
H1726 H 0.34207 0.95662 0.26941 0.0
H1727 H 0.34023 0.99102 0.26288 0.0
C1728 C 0.7931 0.84118 0.47955 0.0
C1729 C 0.8136 0.85749 0.48561 0.0
C1730 C 0.76671 0.84303 0.48519 0.0
C1731 C 0.76069 0.86127 0.49744 0.0
C1732 C 0.78129 0.87778 0.50366 0.0
C1733 C 0.80749 0.87589 0.49756 0.0
C1734 C 0.74529 0.82535 0.47805 0.0
C1735 C 0.77574 0.89709 0.51694 0.0
C1736 C 0.68704 0.87904 0.50375 0.0
C1737 C 0.67966 0.86054 0.51538 0.0
C1738 C 0.71347 0.87982 0.49792 0.0
C1739 C 0.73303 0.86205 0.50411 0.0
C1740 C 0.7258 0.84384 0.51614 0.0
C1741 C 0.69919 0.84313 0.52151 0.0
C1742 C 0.72031 0.89918 0.48488 0.0
C1743 C 0.7461 0.82483 0.52323 0.0
H1744 H 0.79757 0.82713 0.47018 0.0
H1745 H 0.82326 0.88854 0.50227 0.0
H1746 H 0.73728 0.81143 0.48708 0.0
H1747 H 0.72826 0.8378 0.47386 0.0
H1748 H 0.75298 0.81326 0.46805 0.0
H1749 H 0.79383 0.90881 0.5203 0.0
H1750 H 0.75958 0.91127 0.51354 0.0
H1751 H 0.76856 0.88586 0.52738 0.0
H1752 H 0.67203 0.89254 0.49898 0.0
H1753 H 0.69373 0.82899 0.53065 0.0
H1754 H 0.72665 0.88784 0.47429 0.0
H1755 H 0.73743 0.91208 0.48841 0.0
H1756 H 0.70307 0.91225 0.48169 0.0
H1757 H 0.75322 0.81051 0.51416 0.0
H1758 H 0.73768 0.81318 0.5332 0.0
H1759 H 0.76387 0.83617 0.52745 0.0
C1760 C 0.37619 0.56182 0.74564 0.0
C1761 C 0.39484 0.5682 0.73387 0.0
C1762 C 0.37425 0.53552 0.75157 0.0
C1763 C 0.39101 0.51508 0.74538 0.0
C1764 C 0.40959 0.52139 0.73336 0.0
C1765 C 0.41142 0.54786 0.72787 0.0
C1766 C 0.35453 0.52964 0.76458 0.0
C1767 C 0.42761 0.50017 0.72631 0.0
C1768 C 0.40814 0.45329 0.76946 0.0
C1769 C 0.39091 0.43386 0.76305 0.0
C1770 C 0.40778 0.47992 0.76412 0.0
C1771 C 0.39008 0.4873 0.75185 0.0
C1772 C 0.37256 0.46783 0.74534 0.0
C1773 C 0.37301 0.44135 0.75112 0.0
C1774 C 0.42655 0.50011 0.77152 0.0
C1775 C 0.35372 0.47485 0.73207 0.0
H1776 H 0.3633 0.57744 0.75031 0.0
H1777 H 0.4257 0.55254 0.71865 0.0
H1778 H 0.34046 0.51357 0.76089 0.0
H1779 H 0.36542 0.52219 0.77508 0.0
H1780 H 0.34269 0.54764 0.76797 0.0
H1781 H 0.44008 0.50811 0.71654 0.0
H1782 H 0.44117 0.49197 0.73547 0.0
H1783 H 0.41537 0.48323 0.7218 0.0
H1784 H 0.42183 0.44775 0.77881 0.0
H1785 H 0.35964 0.42644 0.74614 0.0
H1786 H 0.41504 0.51774 0.77579 0.0
H1787 H 0.44106 0.50749 0.76264 0.0
H1788 H 0.43799 0.4915 0.78153 0.0
H1789 H 0.34054 0.49178 0.73555 0.0
H1790 H 0.34093 0.4576 0.72854 0.0
H1791 H 0.36546 0.48153 0.7217 0.0
C1792 C 0.79659 0.16213 0.01841 0.0
C1793 C 0.8172 0.1449 0.01343 0.0
C1794 C 0.77052 0.15991 0.01234 0.0
C1795 C 0.7649 0.14017 0.00085 0.0
C1796 C 0.78551 0.12246 0.99589 0.0
C1797 C 0.81141 0.12494 0.00232 0.0
C1798 C 0.74909 0.17905 0.01803 0.0
C1799 C 0.78033 0.10134 0.98354 0.0
C1800 C 0.69132 0.12402 0.99308 0.0
C1801 C 0.68581 0.14069 0.9802 0.0
C1802 C 0.71712 0.12325 -0.0002 0.0
C1803 C 0.73788 0.13931 0.99338 0.0
C1804 C 0.73251 0.15573 0.98019 0.0
C1805 C 0.70656 0.15633 0.97383 0.0
C1806 C 0.72204 0.10569 0.01397 0.0
C1807 C 0.75411 0.17302 0.9729 0.0
H1808 H 0.80081 0.17746 0.02711 0.0
H1809 H 0.82723 0.11153 0.99844 0.0
H1810 H 0.74231 0.19197 0.00818 0.0
H1811 H 0.73133 0.16768 0.02224 0.0
H1812 H 0.75631 0.19219 0.0277 0.0
H1813 H 0.79812 0.08834 0.98149 0.0
H1814 H 0.76316 0.0885 0.98707 0.0
H1815 H 0.77479 0.11115 0.9723 0.0
H1816 H 0.67539 0.11187 0.99805 0.0
H1817 H 0.70256 0.16911 0.96379 0.0
H1818 H 0.72772 0.11836 0.02416 0.0
H1819 H 0.73904 0.09184 0.01168 0.0
H1820 H 0.7041 0.09364 0.01718 0.0
H1821 H 0.761 0.18825 0.98152 0.0
H1822 H 0.74701 0.18359 0.96219 0.0
H1823 H 0.77176 0.16054 0.96976 0.0
C1824 C 0.12809 0.56335 0.25613 0.0
C1825 C 0.10968 0.56929 0.2681 0.0
C1826 C 0.12945 0.53745 0.24958 0.0
C1827 C 0.11222 0.517 0.25527 0.0
C1828 C 0.09409 0.52277 0.26761 0.0
C1829 C 0.09292 0.54885 0.27379 0.0
C1830 C 0.14882 0.53213 0.2363 0.0
C1831 C 0.07556 0.5015 0.27413 0.0
C1832 C 0.09245 0.45897 0.22883 0.0
C1833 C 0.10899 0.43818 0.23431 0.0
C1834 C 0.09379 0.48481 0.23531 0.0
C1835 C 0.11189 0.48999 0.24776 0.0
C1836 C 0.12872 0.46914 0.25336 0.0
C1837 C 0.12719 0.44348 0.2465 0.0
C1838 C 0.07566 0.50653 0.2289 0.0
C1839 C 0.14803 0.47384 0.26675 0.0
H1840 H 0.14111 0.57904 0.25169 0.0
H1841 H 0.07881 0.55319 0.28315 0.0
H1842 H 0.16197 0.51487 0.23923 0.0
H1843 H 0.1375 0.52668 0.22553 0.0
H1844 H 0.16164 0.54982 0.23367 0.0
H1845 H 0.06382 0.5088 0.28437 0.0
H1846 H 0.06131 0.4949 0.26488 0.0
H1847 H 0.08728 0.48361 0.27778 0.0
H1848 H 0.07848 0.45514 0.21932 0.0
H1849 H 0.14005 0.42751 0.25078 0.0
H1850 H 0.08778 0.52409 0.22516 0.0
H1851 H 0.06174 0.51352 0.23821 0.0
H1852 H 0.06357 0.49952 0.21873 0.0
H1853 H 0.16183 0.49059 0.26384 0.0
H1854 H 0.16016 0.45572 0.2695 0.0
H1855 H 0.13675 0.4798 0.27744 0.0
C1856 C 0.20645 0.15528 0.52357 0.0
C1857 C 0.18629 0.14057 0.51592 0.0
C1858 C 0.233 0.15521 0.51808 0.0
C1859 C 0.23956 0.14048 0.50439 0.0
C1860 C 0.21934 0.12544 0.49663 0.0
C1861 C 0.19297 0.12545 0.50258 0.0
C1862 C 0.25399 0.17118 0.52685 0.0
C1863 C 0.22545 0.10985 0.48185 0.0
C1864 C 0.3005 0.16535 0.48188 0.0
C1865 C 0.32025 0.14663 0.48616 0.0
C1866 C 0.27408 0.16318 0.48746 0.0
C1867 C 0.26726 0.14204 0.49782 0.0
C1868 C 0.28713 0.12313 0.50228 0.0
C1869 C 0.31335 0.1255 0.49627 0.0
C1870 C 0.25345 0.18355 0.48223 0.0
C1871 C 0.28076 0.10061 0.51354 0.0
H1872 H 0.20152 0.16678 0.53399 0.0
H1873 H 0.17748 0.11406 0.49662 0.0
H1874 H 0.27129 0.15813 0.52988 0.0
H1875 H 0.2617 0.18756 0.51926 0.0
H1876 H 0.24599 0.1802 0.53783 0.0
H1877 H 0.20771 0.09862 0.47746 0.0
H1878 H 0.23232 0.12381 0.47252 0.0
H1879 H 0.242 0.09542 0.48402 0.0
H1880 H 0.30556 0.18158 0.47393 0.0
H1881 H 0.32852 0.11095 0.4996 0.0
H1882 H 0.24593 0.19494 0.49253 0.0
H1883 H 0.23597 0.17319 0.47687 0.0
H1884 H 0.26169 0.19805 0.47357 0.0
H1885 H 0.27384 0.10905 0.52491 0.0
H1886 H 0.29838 0.08747 0.51576 0.0
H1887 H 0.26415 0.08815 0.50883 0.0
C1888 C 0.59538 0.45276 0.27168 0.0
C1889 C 0.61084 0.43285 0.2643 0.0
C1890 C 0.59554 0.47937 0.2663 0.0
C1891 C 0.61114 0.48625 0.25301 0.0
C1892 C 0.62678 0.46626 0.24547 0.0
C1893 C 0.62667 0.43982 0.25131 0.0
C1894 C 0.5789 0.50013 0.27484 0.0
C1895 C 0.64327 0.47272 0.23108 0.0
C1896 C 0.58766 0.54793 0.23067 0.0
C1897 C 0.60603 0.56754 0.23562 0.0
C1898 C 0.58957 0.52131 0.23592 0.0
C1899 C 0.61003 0.51414 0.24667 0.0
C1900 C 0.6286 0.53385 0.25179 0.0
C1901 C 0.62655 0.56029 0.24608 0.0
C1902 C 0.5696 0.50085 0.22999 0.0
C1903 C 0.65037 0.5271 0.26348 0.0
H1904 H 0.58333 0.44762 0.28184 0.0
H1905 H 0.63865 0.42453 0.24557 0.0
H1906 H 0.59172 0.5173 0.2784 0.0
H1907 H 0.56315 0.5081 0.26689 0.0
H1908 H 0.56902 0.49182 0.28548 0.0
H1909 H 0.65464 0.45503 0.22672 0.0
H1910 H 0.62994 0.48002 0.22155 0.0
H1911 H 0.65769 0.48907 0.23374 0.0
H1912 H 0.57193 0.55328 0.22244 0.0
H1913 H 0.64081 0.57535 0.24993 0.0
H1914 H 0.55746 0.49306 0.23991 0.0
H1915 H 0.58033 0.4835 0.22474 0.0
H1916 H 0.55576 0.50935 0.22105 0.0
H1917 H 0.6412 0.51991 0.27459 0.0
H1918 H 0.66341 0.54461 0.26615 0.0
H1919 H 0.66309 0.51058 0.25889 0.0
C1920 C 0.20053 0.83987 0.98059 0.0
C1921 C 0.18118 0.85845 0.98564 0.0
C1922 C 0.22712 0.84114 0.98598 0.0
C1923 C 0.2345 0.86113 0.99698 0.0
C1924 C 0.21505 0.87993 0.00219 0.0
C1925 C 0.18866 0.87854 0.99631 0.0
C1926 C 0.2473 0.82099 0.97993 0.0
C1927 C 0.22201 0.90119 0.01415 0.0
C1928 C 0.29513 0.84449 0.02221 0.0
C1929 C 0.31545 0.85984 0.01516 0.0
C1930 C 0.26863 0.84531 0.01666 0.0
C1931 C 0.26229 0.86148 0.00351 0.0
C1932 C 0.2827 0.87701 0.99628 0.0
C1933 C 0.30902 0.87623 0.00231 0.0
C1934 C 0.24742 0.82878 0.02487 0.0
C1935 C 0.27683 0.89407 0.98204 0.0
H1936 H 0.195 0.82448 0.97219 0.0
H1937 H 0.17379 0.89295 0.00025 0.0
H1938 H 0.26495 0.83156 0.97494 0.0
H1939 H 0.25465 0.80834 0.98976 0.0
H1940 H 0.2387 0.80765 0.97076 0.0
H1941 H 0.20472 0.91451 0.01683 0.0
H1942 H 0.22879 0.89152 0.0252 0.0
H1943 H 0.23888 0.91369 0.00981 0.0
H1944 H 0.29986 0.83201 0.03227 0.0
H1945 H 0.32463 0.88813 0.99682 0.0
H1946 H 0.23931 0.81345 0.01669 0.0
H1947 H 0.23041 0.8418 0.02846 0.0
H1948 H 0.25534 0.81839 0.03544 0.0
H1949 H 0.26944 0.8812 0.97232 0.0
H1950 H 0.29482 0.90521 0.97791 0.0
H1951 H 0.26072 0.90873 0.98476 0.0
C1952 C 0.91402 0.45378 0.73087 0.0
C1953 C 0.89511 0.4343 0.73527 0.0
C1954 C 0.91233 0.48022 0.73646 0.0
C1955 C 0.8915 0.48733 0.74697 0.0
C1956 C 0.87237 0.46775 0.75153 0.0
C1957 C 0.87425 0.4415 0.7455 0.0
C1958 C 0.93291 0.50055 0.73112 0.0
C1959 C 0.85019 0.47444 0.76296 0.0
C1960 C 0.90647 0.54766 0.77279 0.0
C1961 C 0.89195 0.56815 0.76531 0.0
C1962 C 0.90576 0.52116 0.76723 0.0
C1963 C 0.89057 0.515 0.75365 0.0
C1964 C 0.87573 0.53556 0.74607 0.0
C1965 C 0.87637 0.56187 0.7521 0.0
C1966 C 0.92152 0.49979 0.77581 0.0
C1967 C 0.8597 0.52987 0.73139 0.0
H1968 H 0.93004 0.44848 0.72282 0.0
H1969 H 0.85957 0.42655 0.74893 0.0
H1970 H 0.92272 0.51827 0.72593 0.0
H1971 H 0.9447 0.50774 0.74134 0.0
H1972 H 0.94703 0.49214 0.72229 0.0
H1973 H 0.83673 0.45706 0.76518 0.0
H1974 H 0.85896 0.48103 0.77431 0.0
H1975 H 0.83798 0.49135 0.7584 0.0
H1976 H 0.9183 0.55228 0.78313 0.0
H1977 H 0.86511 0.57763 0.74628 0.0
H1978 H 0.9376 0.49186 0.76808 0.0
H1979 H 0.90823 0.4827 0.77887 0.0
H1980 H 0.93091 0.50752 0.78675 0.0
H1981 H 0.87332 0.52286 0.72193 0.0
H1982 H 0.84867 0.54785 0.72715 0.0
H1983 H 0.84504 0.51355 0.73362 0.0
C1984 C 0.13663 0.38117 0.08819 0.0
C1985 C 0.11028 0.38226 0.0824 0.0
C1986 C 0.14169 0.37924 0.10436 0.0
C1987 C 0.11984 0.37758 0.11495 0.0
C1988 C 0.0932 0.3794 0.1092 0.0
C1989 C 0.08875 0.38209 0.09298 0.0
C1990 C 0.17037 0.37819 0.11008 0.0
C1991 C 0.06936 0.37723 0.12008 0.0
C1992 C 0.12969 0.34116 0.15373 0.0
C1993 C 0.12944 0.36251 0.16444 0.0
C1994 C 0.12699 0.34582 0.13754 0.0
C1995 C 0.12472 0.37253 0.13194 0.0
C1996 C 0.1259 0.39422 0.14265 0.0
C1997 C 0.12785 0.38893 0.15881 0.0
C1998 C 0.12533 0.32213 0.12651 0.0
C1999 C 0.12439 0.42297 0.1371 0.0
H2000 H 0.15334 0.38146 0.08002 0.0
H2001 H 0.06836 0.38267 0.08853 0.0
H2002 H 0.17347 0.39292 0.11969 0.0
H2003 H 0.17475 0.358 0.11493 0.0
H2004 H 0.18498 0.38246 0.10054 0.0
H2005 H 0.04997 0.37976 0.1138 0.0
H2006 H 0.06942 0.35729 0.1259 0.0
H2007 H 0.07066 0.39262 0.12946 0.0
H2008 H 0.13065 0.32071 0.15806 0.0
H2009 H 0.12782 0.4055 0.16707 0.0
H2010 H 0.14087 0.3238 0.11724 0.0
H2011 H 0.1055 0.32201 0.12057 0.0
H2012 H 0.12803 0.30267 0.1327 0.0
H2013 H 0.13923 0.42651 0.1276 0.0
H2014 H 0.12819 0.4375 0.14675 0.0
H2015 H 0.1042 0.42704 0.13214 0.0
C2016 C 0.85917 0.86658 0.41073 0.0
C2017 C 0.88509 0.8734 0.41578 0.0
C2018 C 0.85341 0.86325 0.3947 0.0
C2019 C 0.87428 0.86606 0.38354 0.0
C2020 C 0.90037 0.87348 0.38856 0.0
C2021 C 0.90537 0.87741 0.40462 0.0
C2022 C 0.82518 0.85619 0.38974 0.0
C2023 C 0.92328 0.87622 0.37705 0.0
C2024 C 0.87056 0.82928 0.34453 0.0
C2025 C 0.8662 0.85056 0.33408 0.0
C2026 C 0.87249 0.83393 0.36076 0.0
C2027 C 0.86926 0.86036 0.36665 0.0
C2028 C 0.86316 0.8816 0.3562 0.0
C2029 C 0.86209 0.8765 0.34001 0.0
C2030 C 0.8795 0.81084 0.3715 0.0
C2031 C 0.85879 0.90988 0.36206 0.0
H2032 H 0.84341 0.8636 0.41934 0.0
H2033 H 0.92549 0.88243 0.40849 0.0
H2034 H 0.81822 0.87012 0.38042 0.0
H2035 H 0.8248 0.83564 0.38474 0.0
H2036 H 0.81081 0.85703 0.39971 0.0
H2037 H 0.94231 0.8823 0.38286 0.0
H2038 H 0.9266 0.85681 0.37095 0.0
H2039 H 0.91826 0.89133 0.36794 0.0
H2040 H 0.87397 0.80925 0.33996 0.0
H2041 H 0.85852 0.89296 0.33194 0.0
H2042 H 0.86475 0.8094 0.38122 0.0
H2043 H 0.89949 0.81442 0.37687 0.0
H2044 H 0.88003 0.79132 0.36519 0.0
H2045 H 0.84438 0.90996 0.372 0.0
H2046 H 0.85107 0.92337 0.35269 0.0
H2047 H 0.87801 0.9182 0.36648 0.0
C2048 C 0.37361 0.65997 0.65329 0.0
C2049 C 0.37506 0.63958 0.66458 0.0
C2050 C 0.37699 0.6542 0.63729 0.0
C2051 C 0.38106 0.62727 0.63246 0.0
C2052 C 0.38093 0.60642 0.64375 0.0
C2053 C 0.37841 0.61288 0.65974 0.0
C2054 C 0.37761 0.67708 0.62565 0.0
C2055 C 0.38424 0.5774 0.63901 0.0
C2056 C 0.37215 0.6159 0.5887 0.0
C2057 C 0.39884 0.61614 0.58347 0.0
C2058 C 0.36605 0.61797 0.60475 0.0
C2059 C 0.38714 0.62132 0.61572 0.0
C2060 C 0.41417 0.62083 0.61052 0.0
C2061 C 0.4197 0.61781 0.59446 0.0
C2062 C 0.33705 0.61746 0.6099 0.0
C2063 C 0.43721 0.62496 0.62181 0.0
H2064 H 0.37129 0.68065 0.65704 0.0
H2065 H 0.37938 0.59708 0.66848 0.0
H2066 H 0.39762 0.67796 0.61993 0.0
H2067 H 0.36255 0.67377 0.61625 0.0
H2068 H 0.37353 0.69679 0.63127 0.0
H2069 H 0.38051 0.56345 0.64895 0.0
H2070 H 0.37025 0.57238 0.62929 0.0
H2071 H 0.40493 0.57401 0.63462 0.0
H2072 H 0.356 0.61443 0.5802 0.0
H2073 H 0.44033 0.61826 0.59041 0.0
H2074 H 0.33099 0.63769 0.61403 0.0
H2075 H 0.33439 0.60338 0.61988 0.0
H2076 H 0.32337 0.61138 0.60022 0.0
H2077 H 0.43567 0.64517 0.62722 0.0
H2078 H 0.45707 0.62323 0.61595 0.0
H2079 H 0.43626 0.61003 0.63145 0.0
C2080 C 0.62898 0.16577 0.84248 0.0
C2081 C 0.62668 0.14587 0.83093 0.0
C2082 C 0.625 0.15964 0.8584 0.0
C2083 C 0.61926 0.13285 0.86288 0.0
C2084 C 0.61811 0.11246 0.85133 0.0
C2085 C 0.62149 0.11928 0.83545 0.0
C2086 C 0.62599 0.18202 0.87036 0.0
C2087 C 0.61281 0.08356 0.85569 0.0
C2088 C 0.62994 0.11841 0.90616 0.0
C2089 C 0.60371 0.12045 0.91204 0.0
C2090 C 0.63515 0.121 0.89004 0.0
C2091 C 0.61369 0.12646 0.87963 0.0
C2092 C 0.58704 0.12753 0.88543 0.0
C2093 C 0.58233 0.12418 0.90157 0.0
C2094 C 0.66374 0.11894 0.88426 0.0
C2095 C 0.56366 0.13371 0.87473 0.0
H2096 H 0.63275 0.18637 0.83901 0.0
H2097 H 0.61987 0.1038 0.82655 0.0
H2098 H 0.6063 0.18368 0.87639 0.0
H2099 H 0.64125 0.17751 0.87947 0.0
H2100 H 0.63087 0.20173 0.86496 0.0
H2101 H 0.61458 0.06985 0.84545 0.0
H2102 H 0.62712 0.07695 0.86491 0.0
H2103 H 0.5923 0.08161 0.86065 0.0
H2104 H 0.6465 0.11535 0.91423 0.0
H2105 H 0.56207 0.126 0.90611 0.0
H2106 H 0.67076 0.13894 0.88026 0.0
H2107 H 0.66492 0.10516 0.87404 0.0
H2108 H 0.67762 0.11162 0.89353 0.0
H2109 H 0.56597 0.15424 0.86984 0.0
H2110 H 0.54407 0.13252 0.88093 0.0
H2111 H 0.56333 0.11957 0.86467 0.0
C2112 C 0.15272 0.65322 0.34375 0.0
C2113 C 0.12864 0.65086 0.33538 0.0
C2114 C 0.15329 0.64917 0.36011 0.0
C2115 C 0.12903 0.64372 0.36821 0.0
C2116 C 0.10465 0.6417 0.35975 0.0
C2117 C 0.10486 0.64481 0.34341 0.0
C2118 C 0.17976 0.65058 0.36869 0.0
C2119 C 0.07821 0.63683 0.36797 0.0
C2120 C 0.12432 0.61313 0.40896 0.0
C2121 C 0.12035 0.63602 0.41823 0.0
C2122 C 0.129 0.61543 0.39273 0.0
C2123 C 0.12863 0.64114 0.38561 0.0
C2124 C 0.12517 0.66432 0.39501 0.0
C2125 C 0.12152 0.66148 0.41125 0.0
C2126 C 0.13348 0.59032 0.38316 0.0
C2127 C 0.12374 0.69202 0.38783 0.0
H2128 H 0.17113 0.65768 0.33748 0.0
H2129 H 0.08618 0.64322 0.33692 0.0
H2130 H 0.17954 0.66749 0.37717 0.0
H2131 H 0.18295 0.6319 0.37555 0.0
H2132 H 0.19698 0.65335 0.36056 0.0
H2133 H 0.06098 0.63652 0.35968 0.0
H2134 H 0.07878 0.61738 0.37431 0.0
H2135 H 0.07463 0.65277 0.37684 0.0
H2136 H 0.12366 0.59344 0.41438 0.0
H2137 H 0.11825 0.67921 0.41839 0.0
H2138 H 0.15104 0.59289 0.37527 0.0
H2139 H 0.11572 0.58649 0.37562 0.0
H2140 H 0.13684 0.57241 0.39068 0.0
H2141 H 0.14167 0.69588 0.38046 0.0
H2142 H 0.12231 0.70806 0.39686 0.0
H2143 H 0.1059 0.69336 0.38006 0.0
C2144 C 0.59765 0.87029 0.65863 0.0
C2145 C 0.62299 0.86784 0.66566 0.0
C2146 C 0.59503 0.87382 0.64238 0.0
C2147 C 0.61837 0.87584 0.63297 0.0
C2148 C 0.64406 0.8746 0.64009 0.0
C2149 C 0.64608 0.87011 0.65635 0.0
C2150 C 0.56728 0.87418 0.63521 0.0
C2151 C 0.66938 0.87753 0.6305 0.0
C2152 C 0.61115 0.85442 0.59046 0.0
C2153 C 0.60584 0.87892 0.58299 0.0
C2154 C 0.61562 0.85322 0.60669 0.0
C2155 C 0.61568 0.87724 0.61559 0.0
C2156 C 0.6114 0.90219 0.608 0.0
C2157 C 0.60601 0.90269 0.59179 0.0
C2158 C 0.61922 0.82613 0.6144 0.0
C2159 C 0.6122 0.92827 0.61702 0.0
H2160 H 0.57974 0.8683 0.66578 0.0
H2161 H 0.66569 0.86841 0.66179 0.0
H2162 H 0.56427 0.89283 0.62832 0.0
H2163 H 0.56507 0.85704 0.62698 0.0
H2164 H 0.55118 0.87285 0.64422 0.0
H2165 H 0.68757 0.87909 0.63799 0.0
H2166 H 0.67171 0.85993 0.62263 0.0
H2167 H 0.66812 0.89563 0.62293 0.0
H2168 H 0.61082 0.83599 0.58368 0.0
H2169 H 0.60215 0.92167 0.58598 0.0
H2170 H 0.60297 0.8228 0.62311 0.0
H2171 H 0.63854 0.82543 0.62085 0.0
H2172 H 0.61886 0.8094 0.60577 0.0
H2173 H 0.59506 0.92917 0.62532 0.0
H2174 H 0.61119 0.94603 0.60915 0.0
H2175 H 0.63088 0.92946 0.6241 0.0
C2176 C 0.37569 0.386 0.83629 0.0
C2177 C 0.37221 0.35922 0.83163 0.0
C2178 C 0.37887 0.39275 0.85219 0.0
C2179 C 0.37941 0.37211 0.86361 0.0
C2180 C 0.37541 0.34507 0.85898 0.0
C2181 C 0.37146 0.339 0.84305 0.0
C2182 C 0.38218 0.42187 0.85673 0.0
C2183 C 0.37639 0.32242 0.87076 0.0
C2184 C 0.41743 0.38239 0.90178 0.0
C2185 C 0.39636 0.38401 0.91263 0.0
C2186 C 0.4122 0.37922 0.88568 0.0
C2187 C 0.38527 0.37848 0.88032 0.0
C2188 C 0.36398 0.38192 0.89115 0.0
C2189 C 0.36977 0.38419 0.90722 0.0
C2190 C 0.43545 0.37507 0.87455 0.0
C2191 C 0.33505 0.38216 0.88583 0.0
H2192 H 0.37611 0.4017 0.82746 0.0
H2193 H 0.36903 0.31825 0.83946 0.0
H2194 H 0.36793 0.42716 0.86626 0.0
H2195 H 0.40274 0.42528 0.86132 0.0
H2196 H 0.3788 0.43562 0.84665 0.0
H2197 H 0.37274 0.30253 0.86526 0.0
H2198 H 0.39635 0.32203 0.87656 0.0
H2199 H 0.36116 0.32564 0.88007 0.0
H2200 H 0.43799 0.38198 0.90597 0.0
H2201 H 0.35346 0.38561 0.91562 0.0
H2202 H 0.43433 0.38956 0.86468 0.0
H2203 H 0.43434 0.35461 0.86943 0.0
H2204 H 0.45519 0.37741 0.88047 0.0
H2205 H 0.33245 0.39601 0.87574 0.0
H2206 H 0.32118 0.38836 0.89539 0.0
H2207 H 0.32919 0.3618 0.88181 0.0
C2208 C 0.90919 0.13536 0.15684 0.0
C2209 C 0.88492 0.14316 0.16381 0.0
C2210 C 0.91135 0.13227 0.14054 0.0
C2211 C 0.88841 0.1362 0.13101 0.0
C2212 C 0.86356 0.14317 0.13804 0.0
C2213 C 0.86222 0.14709 0.15438 0.0
C2214 C 0.93843 0.12581 0.13348 0.0
C2215 C 0.83849 0.14672 0.12829 0.0
C2216 C 0.89977 0.15704 0.08874 0.0
C2217 C 0.89869 0.13236 0.08092 0.0
C2218 C 0.89654 0.15852 0.10505 0.0
C2219 C 0.89103 0.13482 0.11364 0.0
C2220 C 0.88928 0.10984 0.1057 0.0
C2221 C 0.89369 0.10883 0.08939 0.0
C2222 C 0.89959 0.18537 0.11312 0.0
C2223 C 0.88258 0.08431 0.1144 0.0
H2224 H 0.92684 0.13256 0.16412 0.0
H2225 H 0.8434 0.15291 0.1598 0.0
H2226 H 0.93722 0.1072 0.12637 0.0
H2227 H 0.94467 0.14226 0.12548 0.0
H2228 H 0.95422 0.12313 0.14257 0.0
H2229 H 0.82031 0.14952 0.13567 0.0
H2230 H 0.84069 0.16447 0.12053 0.0
H2231 H 0.83545 0.12898 0.1206 0.0
H2232 H 0.90374 0.17518 0.08208 0.0
H2233 H 0.89259 0.08983 0.08321 0.0
H2234 H 0.91576 0.18423 0.12207 0.0
H2235 H 0.88078 0.1907 0.11935 0.0
H2236 H 0.9045 0.20176 0.10474 0.0
H2237 H 0.89864 0.07964 0.123 0.0
H2238 H 0.88025 0.0669 0.10636 0.0
H2239 H 0.86368 0.08697 0.12113 0.0
C2240 C 0.87121 0.66727 0.84415 0.0
C2241 C 0.871 0.64637 0.83314 0.0
C2242 C 0.87427 0.66192 0.86024 0.0
C2243 C 0.87637 0.63497 0.86544 0.0
C2244 C 0.87465 0.61374 0.85444 0.0
C2245 C 0.87242 0.61971 0.83837 0.0
C2246 C 0.87658 0.68515 0.87157 0.0
C2247 C 0.87592 0.58475 0.85958 0.0
C2248 C 0.91396 0.62369 0.90367 0.0
C2249 C 0.89295 0.62354 0.9146 0.0
C2250 C 0.90879 0.62689 0.88757 0.0
C2251 C 0.88191 0.62922 0.88228 0.0
C2252 C 0.86056 0.62756 0.8932 0.0
C2253 C 0.86635 0.62517 0.90928 0.0
C2254 C 0.93215 0.6291 0.87633 0.0
C2255 C 0.83164 0.6291 0.88796 0.0
H2256 H 0.87038 0.6879 0.84012 0.0
H2257 H 0.87209 0.6035 0.82987 0.0
H2258 H 0.86136 0.68328 0.88101 0.0
H2259 H 0.89663 0.68481 0.87726 0.0
H2260 H 0.87389 0.70487 0.86568 0.0
H2261 H 0.87141 0.57068 0.8498 0.0
H2262 H 0.89627 0.58015 0.86414 0.0
H2263 H 0.86149 0.58107 0.86927 0.0
H2264 H 0.93455 0.62268 0.90777 0.0
H2265 H 0.85005 0.62489 0.91772 0.0
H2266 H 0.93205 0.64921 0.87071 0.0
H2267 H 0.93025 0.61399 0.86683 0.0
H2268 H 0.95179 0.62618 0.88228 0.0
H2269 H 0.82722 0.64952 0.88345 0.0
H2270 H 0.81744 0.62459 0.89767 0.0
H2271 H 0.82795 0.61478 0.8782 0.0
C2272 C 0.13303 0.11576 0.58839 0.0
C2273 C 0.10645 0.11592 0.58296 0.0
C2274 C 0.13875 0.11728 0.60452 0.0
C2275 C 0.11739 0.11999 0.61537 0.0
C2276 C 0.09049 0.11947 0.60995 0.0
C2277 C 0.08535 0.117 0.59381 0.0
C2278 C 0.16763 0.11681 0.60988 0.0
C2279 C 0.06716 0.12297 0.6211 0.0
C2280 C 0.12515 0.10982 0.65935 0.0
C2281 C 0.12822 0.13633 0.66459 0.0
C2282 C 0.12306 0.10399 0.64325 0.0
C2283 C 0.12304 0.12529 0.63224 0.0
C2284 C 0.12677 0.15204 0.63748 0.0
C2285 C 0.12976 0.15717 0.65358 0.0
C2286 C 0.12011 0.07515 0.63808 0.0
C2287 C 0.12621 0.17539 0.62616 0.0
H2288 H 0.14938 0.11475 0.58 0.0
H2289 H 0.06479 0.11739 0.58961 0.0
H2290 H 0.1734 0.13691 0.61438 0.0
H2291 H 0.17021 0.10232 0.61967 0.0
H2292 H 0.1816 0.1113 0.60023 0.0
H2293 H 0.04745 0.12137 0.61505 0.0
H2294 H 0.06799 0.10764 0.63053 0.0
H2295 H 0.06843 0.14295 0.62683 0.0
H2296 H 0.1241 0.09366 0.66786 0.0
H2297 H 0.13185 0.17771 0.65763 0.0
H2298 H 0.13436 0.07064 0.62841 0.0
H2299 H 0.09955 0.07177 0.63347 0.0
H2300 H 0.12372 0.06083 0.64785 0.0
H2301 H 0.14152 0.1726 0.61685 0.0
H2302 H 0.12998 0.1949 0.63209 0.0
H2303 H 0.10633 0.17634 0.6203 0.0
C2304 C 0.59781 0.3809 0.40263 0.0
C2305 C 0.61881 0.38014 0.41356 0.0
C2306 C 0.60287 0.37805 0.38651 0.0
C2307 C 0.62968 0.37534 0.38118 0.0
C2308 C 0.65109 0.37624 0.39212 0.0
C2309 C 0.64536 0.37808 0.40824 0.0
C2310 C 0.57941 0.37646 0.37529 0.0
C2311 C 0.67997 0.37444 0.38683 0.0
C2312 C 0.63876 0.33717 0.343 0.0
C2313 C 0.63856 0.35803 0.33198 0.0
C2314 C 0.6365 0.34258 0.35912 0.0
C2315 C 0.63497 0.36956 0.36432 0.0
C2316 C 0.63647 0.39076 0.35328 0.0
C2317 C 0.6377 0.38472 0.33718 0.0
C2318 C 0.63421 0.31938 0.37047 0.0
C2319 C 0.63593 0.41976 0.35841 0.0
H2320 H 0.57725 0.3822 0.40675 0.0
H2321 H 0.66163 0.37765 0.4167 0.0
H2322 H 0.58147 0.39177 0.36592 0.0
H2323 H 0.5792 0.35649 0.3695 0.0
H2324 H 0.55984 0.37951 0.3813 0.0
H2325 H 0.69422 0.37896 0.39652 0.0
H2326 H 0.68422 0.35393 0.38242 0.0
H2327 H 0.68372 0.38861 0.37701 0.0
H2328 H 0.63914 0.31652 0.33897 0.0
H2329 H 0.63771 0.40086 0.32863 0.0
H2330 H 0.61433 0.32 0.37635 0.0
H2331 H 0.64972 0.32102 0.37976 0.0
H2332 H 0.63645 0.29962 0.36456 0.0
H2333 H 0.61567 0.42491 0.36289 0.0
H2334 H 0.64089 0.43367 0.34863 0.0
H2335 H 0.65038 0.42309 0.36815 0.0
C2336 C 0.41081 0.8859 0.09437 0.0
C2337 C 0.38968 0.88516 0.08352 0.0
C2338 C 0.40589 0.88333 0.11051 0.0
C2339 C 0.37911 0.88093 0.11595 0.0
C2340 C 0.35759 0.88187 0.10508 0.0
C2341 C 0.36318 0.88341 0.08894 0.0
C2342 C 0.42944 0.88165 0.12166 0.0
C2343 C 0.32876 0.8804 0.11047 0.0
C2344 C 0.3698 0.84313 0.15422 0.0
C2345 C 0.37014 0.86405 0.1652 0.0
C2346 C 0.37216 0.84841 0.1381 0.0
C2347 C 0.37393 0.87533 0.13284 0.0
C2348 C 0.37266 0.89661 0.14384 0.0
C2349 C 0.37133 0.8907 0.15995 0.0
C2350 C 0.37422 0.8251 0.1268 0.0
C2351 C 0.37346 0.92557 0.13864 0.0
H2352 H 0.43133 0.88696 0.09016 0.0
H2353 H 0.34682 0.883 0.08053 0.0
H2354 H 0.42757 0.89702 0.13101 0.0
H2355 H 0.42959 0.86171 0.12748 0.0
H2356 H 0.44897 0.88454 0.11558 0.0
H2357 H 0.31445 0.88498 0.10082 0.0
H2358 H 0.32436 0.85996 0.11495 0.0
H2359 H 0.32524 0.89468 0.12027 0.0
H2360 H 0.36917 0.8225 0.15829 0.0
H2361 H 0.37144 0.90689 0.16847 0.0
H2362 H 0.39402 0.82557 0.12082 0.0
H2363 H 0.35859 0.82674 0.11757 0.0
H2364 H 0.37197 0.8054 0.13277 0.0
H2365 H 0.39371 0.93046 0.13404 0.0
H2366 H 0.3688 0.93961 0.14841 0.0
H2367 H 0.35891 0.92899 0.12896 0.0
C2368 C 0.90674 0.37014 0.6584 0.0
C2369 C 0.88146 0.36842 0.66556 0.0
C2370 C 0.90918 0.37376 0.64214 0.0
C2371 C 0.88575 0.37664 0.63288 0.0
C2372 C 0.86016 0.37622 0.64015 0.0
C2373 C 0.85829 0.37159 0.65641 0.0
C2374 C 0.9368 0.37324 0.63481 0.0
C2375 C 0.83479 0.38009 0.63073 0.0
C2376 C 0.89829 0.40317 0.59164 0.0
C2377 C 0.89756 0.37942 0.58282 0.0
C2378 C 0.89314 0.40281 0.60787 0.0
C2379 C 0.88816 0.378 0.61548 0.0
C2380 C 0.88725 0.35402 0.60656 0.0
C2381 C 0.89151 0.35511 0.5903 0.0
C2382 C 0.89339 0.42887 0.61692 0.0
C2383 C 0.88285 0.32705 0.61426 0.0
H2384 H 0.92469 0.36745 0.66544 0.0
H2385 H 0.83873 0.37046 0.66196 0.0
H2386 H 0.9383 0.35605 0.62656 0.0
H2387 H 0.94027 0.39179 0.62791 0.0
H2388 H 0.953 0.37137 0.64371 0.0
H2389 H 0.81682 0.38233 0.63835 0.0
H2390 H 0.83656 0.39814 0.62315 0.0
H2391 H 0.83164 0.36259 0.62288 0.0
H2392 H 0.90273 0.42202 0.58582 0.0
H2393 H 0.89115 0.33669 0.58351 0.0
H2394 H 0.91075 0.4292 0.62508 0.0
H2395 H 0.87493 0.43066 0.62415 0.0
H2396 H 0.89478 0.44662 0.60906 0.0
H2397 H 0.89913 0.32312 0.62286 0.0
H2398 H 0.88246 0.31034 0.60561 0.0
H2399 H 0.86363 0.32701 0.62083 0.0
C2400 C 0.39775 0.14021 0.34107 0.0
C2401 C 0.37347 0.14583 0.33344 0.0
C2402 C 0.39873 0.13664 0.35739 0.0
C2403 C 0.37468 0.1378 0.36622 0.0
C2404 C 0.3499 0.14238 0.35848 0.0
C2405 C 0.34965 0.14688 0.34218 0.0
C2406 C 0.42567 0.13266 0.36522 0.0
C2407 C 0.32377 0.14286 0.36745 0.0
C2408 C 0.38137 0.10922 0.40742 0.0
C2409 C 0.38458 0.13266 0.41632 0.0
C2410 C 0.37653 0.11058 0.39117 0.0
C2411 C 0.37593 0.13595 0.38364 0.0
C2412 C 0.37873 0.15966 0.39266 0.0
C2413 C 0.38258 0.15772 0.40893 0.0
C2414 C 0.37274 0.08491 0.38201 0.0
C2415 C 0.37906 0.18706 0.38504 0.0
H2416 H 0.41622 0.13961 0.33434 0.0
H2417 H 0.33084 0.151 0.33624 0.0
H2418 H 0.42939 0.14919 0.37369 0.0
H2419 H 0.4258 0.11361 0.37196 0.0
H2420 H 0.44246 0.13217 0.35663 0.0
H2421 H 0.30608 0.14399 0.35952 0.0
H2422 H 0.32197 0.12461 0.37485 0.0
H2423 H 0.32334 0.16045 0.37544 0.0
H2424 H 0.38269 0.08982 0.41315 0.0
H2425 H 0.38527 0.17589 0.41577 0.0
H2426 H 0.39032 0.08151 0.37427 0.0
H2427 H 0.35477 0.08643 0.37435 0.0
H2428 H 0.37044 0.0672 0.38983 0.0
H2429 H 0.39633 0.18847 0.37685 0.0
H2430 H 0.38068 0.20354 0.39379 0.0
H2431 H 0.36055 0.19016 0.37803 0.0
C2432 C 0.64532 0.63257 0.15823 0.0
C2433 C 0.62165 0.63535 0.16698 0.0
C2434 C 0.64435 0.62828 0.14192 0.0
C2435 C 0.61917 0.6278 0.13419 0.0
C2436 C 0.59523 0.63026 0.14304 0.0
C2437 C 0.59677 0.63356 0.15935 0.0
C2438 C 0.67025 0.62484 0.13294 0.0
C2439 C 0.56801 0.63068 0.1352 0.0
C2440 C 0.61533 0.65022 0.09171 0.0
C2441 C 0.60983 0.62602 0.08396 0.0
C2442 C 0.61883 0.65098 0.10804 0.0
C2443 C 0.6177 0.6268 0.11675 0.0
C2444 C 0.61336 0.60211 0.10889 0.0
C2445 C 0.60896 0.60207 0.09258 0.0
C2446 C 0.6226 0.67782 0.11602 0.0
C2447 C 0.61291 0.57585 0.11773 0.0
H2448 H 0.66456 0.63375 0.16414 0.0
H2449 H 0.57844 0.63594 0.16608 0.0
H2450 H 0.66905 0.60695 0.12519 0.0
H2451 H 0.67364 0.64254 0.12529 0.0
H2452 H 0.68783 0.62259 0.14086 0.0
H2453 H 0.55132 0.63222 0.14382 0.0
H2454 H 0.56678 0.64803 0.12705 0.0
H2455 H 0.56508 0.61224 0.12811 0.0
H2456 H 0.61579 0.6688 0.08508 0.0
H2457 H 0.60493 0.58332 0.08656 0.0
H2458 H 0.64142 0.67786 0.12297 0.0
H2459 H 0.6058 0.68145 0.12432 0.0
H2460 H 0.62335 0.69471 0.1075 0.0
H2461 H 0.63096 0.57412 0.12531 0.0
H2462 H 0.61219 0.55826 0.1097 0.0
H2463 H 0.59509 0.57513 0.12553 0.0
C2464 C 0.15151 0.8578 0.84286 0.0
C2465 C 0.12801 0.85767 0.83381 0.0
C2466 C 0.15048 0.86277 0.85911 0.0
C2467 C 0.12528 0.86666 0.86649 0.0
C2468 C 0.10153 0.86661 0.85735 0.0
C2469 C 0.10325 0.86257 0.84109 0.0
C2470 C 0.17628 0.86356 0.8684 0.0
C2471 C 0.07419 0.86983 0.8648 0.0
C2472 C 0.11711 0.848 0.90939 0.0
C2473 C 0.11425 0.87323 0.91649 0.0
C2474 C 0.12121 0.84562 0.89316 0.0
C2475 C 0.12335 0.86909 0.88387 0.0
C2476 C 0.12171 0.89468 0.89109 0.0
C2477 C 0.11668 0.89645 0.90731 0.0
C2478 C 0.12201 0.81796 0.88588 0.0
C2479 C 0.12475 0.92014 0.88164 0.0
H2480 H 0.17069 0.85424 0.83721 0.0
H2481 H 0.08503 0.86225 0.83412 0.0
H2482 H 0.17716 0.88214 0.87559 0.0
H2483 H 0.17703 0.84631 0.87662 0.0
H2484 H 0.19429 0.86277 0.86071 0.0
H2485 H 0.05771 0.86944 0.856 0.0
H2486 H 0.07077 0.85343 0.87339 0.0
H2487 H 0.07312 0.88905 0.87134 0.0
H2488 H 0.11502 0.82999 0.91644 0.0
H2489 H 0.11468 0.91599 0.91281 0.0
H2490 H 0.14085 0.81522 0.87914 0.0
H2491 H 0.10509 0.81571 0.87749 0.0
H2492 H 0.12059 0.80175 0.8948 0.0
H2493 H 0.14309 0.9191 0.87426 0.0
H2494 H 0.12596 0.93824 0.88923 0.0
H2495 H 0.10737 0.92246 0.8736 0.0
loop_
_geom_bond_atom_site_label_1
_geom_bond_atom_site_label_2
_geom_bond_distance
_geom_bond_site_symmetry_2
_ccdc_geom_bond_type
O0 Cd1 2.223 . S
O0 C8 1.315 . S
Cd1 O0 2.223 . S
Cd1 O4 2.297 . S
Cd1 O5 2.439 . S
Cd1 O11 2.240 . S
Cd2 O3 2.240 . S
Cd2 O10 2.223 . S
Cd2 O12 2.297 . S
Cd2 O13 2.439 . S
O3 Cd2 2.240 . S
O3 C8 1.279 . S
O4 Cd1 2.297 . S
O4 C6 1.247 . S
O5 Cd1 2.439 . S
O5 C6 1.208 . S
C6 O4 1.247 . S
C6 O5 1.208 . S
C7 O12 1.247 . S
C7 O13 1.208 . S
C8 O0 1.315 . S
C8 O3 1.279 . S
C9 O10 1.315 . S
C9 O11 1.279 . S
O10 Cd2 2.223 . S
O10 C9 1.315 . S
O11 Cd1 2.240 . S
O11 C9 1.279 . S
O12 Cd2 2.297 . S
O12 C7 1.247 . S
O13 Cd2 2.439 . S
O13 C7 1.208 . S
O14 Cd15 2.223 . S
O14 C22 1.315 . S
Cd15 O14 2.223 . S
Cd15 O18 2.297 . S
Cd15 O19 2.439 . S
Cd15 O25 2.240 . S
Cd16 O17 2.240 . S
Cd16 O24 2.223 . S
Cd16 O26 2.297 . S
Cd16 O27 2.439 . S
O17 Cd16 2.240 . S
O17 C22 1.279 . S
O18 Cd15 2.297 . S
O18 C20 1.247 . S
O19 Cd15 2.439 . S
O19 C20 1.208 . S
C20 O18 1.247 . S
C20 O19 1.208 . S
C21 O26 1.247 . S
C21 O27 1.208 . S
C22 O14 1.315 . S
C22 O17 1.279 . S
C23 O24 1.315 . S
C23 O25 1.279 . S
O24 Cd16 2.223 . S
O24 C23 1.315 . S
O25 Cd15 2.240 . S
O25 C23 1.279 . S
O26 Cd16 2.297 . S
O26 C21 1.247 . S
O27 Cd16 2.439 . S
O27 C21 1.208 . S
O28 Cd29 2.223 . S
O28 C36 1.315 . S
Cd29 O28 2.223 . S
Cd29 O32 2.297 . S
Cd29 O33 2.439 . S
Cd29 O39 2.240 . S
Cd30 O31 2.240 . S
Cd30 O38 2.223 . S
Cd30 O40 2.297 . S
Cd30 O41 2.439 . S
O31 Cd30 2.240 . S
O31 C36 1.279 . S
O32 Cd29 2.297 . S
O32 C34 1.247 . S
O33 Cd29 2.439 . S
O33 C34 1.208 . S
C34 O32 1.247 . S
C34 O33 1.208 . S
C35 O40 1.247 . S
C35 O41 1.208 . S
C36 O28 1.315 . S
C36 O31 1.279 . S
C37 O38 1.315 . S
C37 O39 1.279 . S
O38 Cd30 2.223 . S
O38 C37 1.315 . S
O39 Cd29 2.240 . S
O39 C37 1.279 . S
O40 Cd30 2.297 . S
O40 C35 1.247 . S
O41 Cd30 2.439 . S
O41 C35 1.208 . S
O42 Cd43 2.223 . S
O42 C50 1.315 . S
Cd43 O42 2.223 . S
Cd43 O46 2.297 . S
Cd43 O47 2.439 . S
Cd43 O53 2.240 . S
Cd44 O45 2.240 . S
Cd44 O52 2.223 . S
Cd44 O54 2.297 . S
Cd44 O55 2.439 . S
O45 Cd44 2.240 . S
O45 C50 1.279 . S
O46 Cd43 2.297 . S
O46 C48 1.247 . S
O47 Cd43 2.439 . S
O47 C48 1.208 . S
C48 O46 1.247 . S
C48 O47 1.208 . S
C49 O54 1.247 . S
C49 O55 1.208 . S
C50 O42 1.315 . S
C50 O45 1.279 . S
C51 O52 1.315 . S
C51 O53 1.279 . S
O52 Cd44 2.223 . S
O52 C51 1.315 . S
O53 Cd43 2.240 . S
O53 C51 1.279 . S
O54 Cd44 2.297 . S
O54 C49 1.247 . S
O55 Cd44 2.439 . S
O55 C49 1.208 . S
O56 Cd57 2.223 . S
O56 C64 1.315 . S
Cd57 O56 2.223 . S
Cd57 O60 2.297 . S
Cd57 O61 2.439 . S
Cd57 O67 2.240 . S
Cd58 O59 2.240 . S
Cd58 O66 2.223 . S
Cd58 O68 2.297 . S
Cd58 O69 2.439 . S
O59 Cd58 2.240 . S
O59 C64 1.279 . S
O60 Cd57 2.297 . S
O60 C62 1.247 . S
O61 Cd57 2.439 . S
O61 C62 1.208 . S
C62 O60 1.247 . S
C62 O61 1.208 . S
C63 O68 1.247 . S
C63 O69 1.208 . S
C64 O56 1.315 . S
C64 O59 1.279 . S
C65 O66 1.315 . S
C65 O67 1.279 . S
O66 Cd58 2.223 . S
O66 C65 1.315 . S
O67 Cd57 2.240 . S
O67 C65 1.279 . S
O68 Cd58 2.297 . S
O68 C63 1.247 . S
O69 Cd58 2.439 . S
O69 C63 1.208 . S
O70 Cd71 2.223 . S
O70 C78 1.315 . S
Cd71 O70 2.223 . S
Cd71 O74 2.297 . S
Cd71 O75 2.439 . S
Cd71 O81 2.240 . S
Cd72 O73 2.240 . S
Cd72 O80 2.223 . S
Cd72 O82 2.297 . S
Cd72 O83 2.439 . S
O73 Cd72 2.240 . S
O73 C78 1.279 . S
O74 Cd71 2.297 . S
O74 C76 1.247 . S
O75 Cd71 2.439 . S
O75 C76 1.208 . S
C76 O74 1.247 . S
C76 O75 1.208 . S
C77 O82 1.247 . S
C77 O83 1.208 . S
C78 O70 1.315 . S
C78 O73 1.279 . S
C79 O80 1.315 . S
C79 O81 1.279 . S
O80 Cd72 2.223 . S
O80 C79 1.315 . S
O81 Cd71 2.240 . S
O81 C79 1.279 . S
O82 Cd72 2.297 . S
O82 C77 1.247 . S
O83 Cd72 2.439 . S
O83 C77 1.208 . S
O84 Cd85 2.223 . S
O84 C92 1.315 . S
Cd85 O84 2.223 . S
Cd85 O88 2.297 . S
Cd85 O89 2.439 . S
Cd85 O95 2.240 . S
Cd86 O87 2.240 . S
Cd86 O94 2.223 . S
Cd86 O96 2.297 . S
Cd86 O97 2.439 . S
O87 Cd86 2.240 . S
O87 C92 1.279 . S
O88 Cd85 2.297 . S
O88 C90 1.247 . S
O89 Cd85 2.439 . S
O89 C90 1.208 . S
C90 O88 1.247 . S
C90 O89 1.208 . S
C91 O96 1.247 . S
C91 O97 1.208 . S
C92 O84 1.315 . S
C92 O87 1.279 . S
C93 O94 1.315 . S
C93 O95 1.279 . S
O94 Cd86 2.223 . S
O94 C93 1.315 . S
O95 Cd85 2.240 . S
O95 C93 1.279 . S
O96 Cd86 2.297 . S
O96 C91 1.247 . S
O97 Cd86 2.439 . S
O97 C91 1.208 . S
O98 Cd99 2.223 . S
O98 C106 1.315 . S
Cd99 O98 2.223 . S
Cd99 O102 2.297 . S
Cd99 O103 2.439 . S
Cd99 O109 2.240 . S
Cd100 O101 2.240 . S
Cd100 O108 2.223 . S
Cd100 O110 2.297 . S
Cd100 O111 2.439 . S
O101 Cd100 2.240 . S
O101 C106 1.279 . S
O102 Cd99 2.297 . S
O102 C104 1.247 . S
O103 Cd99 2.439 . S
O103 C104 1.208 . S
C104 O102 1.247 . S
C104 O103 1.208 . S
C105 O110 1.247 . S
C105 O111 1.208 . S
C106 O98 1.315 . S
C106 O101 1.279 . S
C107 O108 1.315 . S
C107 O109 1.279 . S
O108 Cd100 2.223 . S
O108 C107 1.315 . S
O109 Cd99 2.240 . S
O109 C107 1.279 . S
O110 Cd100 2.297 . S
O110 C105 1.247 . S
O111 Cd100 2.439 . S
O111 C105 1.208 . S
O112 Cd113 2.223 . S
O112 C120 1.315 . S
Cd113 O112 2.223 . S
Cd113 O116 2.297 . S
Cd113 O117 2.439 . S
Cd113 O123 2.240 . S
Cd114 O115 2.240 . S
Cd114 O122 2.223 . S
Cd114 O124 2.297 . S
Cd114 O125 2.439 . S
O115 Cd114 2.240 . S
O115 C120 1.279 . S
O116 Cd113 2.297 . S
O116 C118 1.247 . S
O117 Cd113 2.439 . S
O117 C118 1.208 . S
C118 O116 1.247 . S
C118 O117 1.208 . S
C119 O124 1.247 . S
C119 O125 1.208 . S
C120 O112 1.315 . S
C120 O115 1.279 . S
C121 O122 1.315 . S
C121 O123 1.279 . S
O122 Cd114 2.223 . S
O122 C121 1.315 . S
O123 Cd113 2.240 . S
O123 C121 1.279 . S
O124 Cd114 2.297 . S
O124 C119 1.247 . S
O125 Cd114 2.439 . S
O125 C119 1.208 . S
O126 Cd127 2.223 . S
O126 C134 1.315 . S
Cd127 O126 2.223 . S
Cd127 O130 2.297 . S
Cd127 O131 2.439 . S
Cd127 O137 2.240 . S
Cd128 O129 2.240 . S
Cd128 O136 2.223 . S
Cd128 O138 2.297 . S
Cd128 O139 2.439 . S
O129 Cd128 2.240 . S
O129 C134 1.279 . S
O130 Cd127 2.297 . S
O130 C132 1.247 . S
O131 Cd127 2.439 . S
O131 C132 1.208 . S
C132 O130 1.247 . S
C132 O131 1.208 . S
C133 O138 1.247 . S
C133 O139 1.208 . S
C134 O126 1.315 . S
C134 O129 1.279 . S
C135 O136 1.315 . S
C135 O137 1.279 . S
O136 Cd128 2.223 . S
O136 C135 1.315 . S
O137 Cd127 2.240 . S
O137 C135 1.279 . S
O138 Cd128 2.297 . S
O138 C133 1.247 . S
O139 Cd128 2.439 . S
O139 C133 1.208 . S
O140 Cd141 2.223 . S
O140 C148 1.315 . S
Cd141 O140 2.223 . S
Cd141 O144 2.297 . S
Cd141 O145 2.439 . S
Cd141 O151 2.240 . S
Cd142 O143 2.240 . S
Cd142 O150 2.223 . S
Cd142 O152 2.297 . S
Cd142 O153 2.439 . S
O143 Cd142 2.240 . S
O143 C148 1.279 . S
O144 Cd141 2.297 . S
O144 C146 1.247 . S
O145 Cd141 2.439 . S
O145 C146 1.208 . S
C146 O144 1.247 . S
C146 O145 1.208 . S
C147 O152 1.247 . S
C147 O153 1.208 . S
C148 O140 1.315 . S
C148 O143 1.279 . S
C149 O150 1.315 . S
C149 O151 1.279 . S
O150 Cd142 2.223 . S
O150 C149 1.315 . S
O151 Cd141 2.240 . S
O151 C149 1.279 . S
O152 Cd142 2.297 . S
O152 C147 1.247 . S
O153 Cd142 2.439 . S
O153 C147 1.208 . S
O154 Cd155 2.223 . S
O154 C162 1.315 . S
Cd155 O154 2.223 . S
Cd155 O158 2.297 . S
Cd155 O159 2.439 . S
Cd155 O165 2.240 . S
Cd156 O157 2.240 . S
Cd156 O164 2.223 . S
Cd156 O166 2.297 . S
Cd156 O167 2.439 . S
O157 Cd156 2.240 . S
O157 C162 1.279 . S
O158 Cd155 2.297 . S
O158 C160 1.247 . S
O159 Cd155 2.439 . S
O159 C160 1.208 . S
C160 O158 1.247 . S
C160 O159 1.208 . S
C161 O166 1.247 . S
C161 O167 1.208 . S
C162 O154 1.315 . S
C162 O157 1.279 . S
C163 O164 1.315 . S
C163 O165 1.279 . S
O164 Cd156 2.223 . S
O164 C163 1.315 . S
O165 Cd155 2.240 . S
O165 C163 1.279 . S
O166 Cd156 2.297 . S
O166 C161 1.247 . S
O167 Cd156 2.439 . S
O167 C161 1.208 . S
O168 Cd169 2.223 . S
O168 C176 1.315 . S
Cd169 O168 2.223 . S
Cd169 O172 2.297 . S
Cd169 O173 2.439 . S
Cd169 O179 2.240 . S
Cd170 O171 2.240 . S
Cd170 O178 2.223 . S
Cd170 O180 2.297 . S
Cd170 O181 2.439 . S
O171 Cd170 2.240 . S
O171 C176 1.279 . S
O172 Cd169 2.297 . S
O172 C174 1.247 . S
O173 Cd169 2.439 . S
O173 C174 1.208 . S
C174 O172 1.247 . S
C174 O173 1.208 . S
C175 O180 1.247 . S
C175 O181 1.208 . S
C176 O168 1.315 . S
C176 O171 1.279 . S
C177 O178 1.315 . S
C177 O179 1.279 . S
O178 Cd170 2.223 . S
O178 C177 1.315 . S
O179 Cd169 2.240 . S
O179 C177 1.279 . S
O180 Cd170 2.297 . S
O180 C175 1.247 . S
O181 Cd170 2.439 . S
O181 C175 1.208 . S
O182 Cd183 2.223 . S
O182 C190 1.315 . S
Cd183 O182 2.223 . S
Cd183 O186 2.297 . S
Cd183 O187 2.439 . S
Cd183 O193 2.240 . S
Cd184 O185 2.240 . S
Cd184 O192 2.223 . S
Cd184 O194 2.297 . S
Cd184 O195 2.439 . S
O185 Cd184 2.240 . S
O185 C190 1.279 . S
O186 Cd183 2.297 . S
O186 C188 1.247 . S
O187 Cd183 2.439 . S
O187 C188 1.208 . S
C188 O186 1.247 . S
C188 O187 1.208 . S
C189 O194 1.247 . S
C189 O195 1.208 . S
C190 O182 1.315 . S
C190 O185 1.279 . S
C191 O192 1.315 . S
C191 O193 1.279 . S
O192 Cd184 2.223 . S
O192 C191 1.315 . S
O193 Cd183 2.240 . S
O193 C191 1.279 . S
O194 Cd184 2.297 . S
O194 C189 1.247 . S
O195 Cd184 2.439 . S
O195 C189 1.208 . S
O196 Cd197 2.223 . S
O196 C204 1.315 . S
Cd197 O196 2.223 . S
Cd197 O200 2.297 . S
Cd197 O201 2.439 . S
Cd197 O207 2.240 . S
Cd198 O199 2.240 . S
Cd198 O206 2.223 . S
Cd198 O208 2.297 . S
Cd198 O209 2.439 . S
O199 Cd198 2.240 . S
O199 C204 1.279 . S
O200 Cd197 2.297 . S
O200 C202 1.247 . S
O201 Cd197 2.439 . S
O201 C202 1.208 . S
C202 O200 1.247 . S
C202 O201 1.208 . S
C203 O208 1.247 . S
C203 O209 1.208 . S
C204 O196 1.315 . S
C204 O199 1.279 . S
C205 O206 1.315 . S
C205 O207 1.279 . S
O206 Cd198 2.223 . S
O206 C205 1.315 . S
O207 Cd197 2.240 . S
O207 C205 1.279 . S
O208 Cd198 2.297 . S
O208 C203 1.247 . S
O209 Cd198 2.439 . S
O209 C203 1.208 . S
O210 Cd211 2.223 . S
O210 C218 1.315 . S
Cd211 O210 2.223 . S
Cd211 O214 2.297 . S
Cd211 O215 2.439 . S
Cd211 O221 2.240 . S
Cd212 O213 2.240 . S
Cd212 O220 2.223 . S
Cd212 O222 2.297 . S
Cd212 O223 2.439 . S
O213 Cd212 2.240 . S
O213 C218 1.279 . S
O214 Cd211 2.297 . S
O214 C216 1.247 . S
O215 Cd211 2.439 . S
O215 C216 1.208 . S
C216 O214 1.247 . S
C216 O215 1.208 . S
C217 O222 1.247 . S
C217 O223 1.208 . S
C218 O210 1.315 . S
C218 O213 1.279 . S
C219 O220 1.315 . S
C219 O221 1.279 . S
O220 Cd212 2.223 . S
O220 C219 1.315 . S
O221 Cd211 2.240 . S
O221 C219 1.279 . S
O222 Cd212 2.297 . S
O222 C217 1.247 . S
O223 Cd212 2.439 . S
O223 C217 1.208 . S
O224 Cd225 2.223 . S
O224 C232 1.315 . S
Cd225 O224 2.223 . S
Cd225 O228 2.297 . S
Cd225 O229 2.439 . S
Cd225 O235 2.240 . S
Cd226 O227 2.240 . S
Cd226 O234 2.223 . S
Cd226 O236 2.297 . S
Cd226 O237 2.439 . S
O227 Cd226 2.240 . S
O227 C232 1.279 . S
O228 Cd225 2.297 . S
O228 C230 1.247 . S
O229 Cd225 2.439 . S
O229 C230 1.208 . S
C230 O228 1.247 . S
C230 O229 1.208 . S
C231 O236 1.247 . S
C231 O237 1.208 . S
C232 O224 1.315 . S
C232 O227 1.279 . S
C233 O234 1.315 . S
C233 O235 1.279 . S
O234 Cd226 2.223 . S
O234 C233 1.315 . S
O235 Cd225 2.240 . S
O235 C233 1.279 . S
O236 Cd226 2.297 . S
O236 C231 1.247 . S
O237 Cd226 2.439 . S
O237 C231 1.208 . S
O238 Cd239 2.223 . S
O238 C246 1.315 . S
Cd239 O238 2.223 . S
Cd239 O242 2.297 . S
Cd239 O243 2.439 . S
Cd239 O249 2.240 . S
Cd240 O241 2.240 . S
Cd240 O248 2.223 . S
Cd240 O250 2.297 . S
Cd240 O251 2.439 . S
O241 Cd240 2.240 . S
O241 C246 1.279 . S
O242 Cd239 2.297 . S
O242 C244 1.247 . S
O243 Cd239 2.439 . S
O243 C244 1.208 . S
C244 O242 1.247 . S
C244 O243 1.208 . S
C245 O250 1.247 . S
C245 O251 1.208 . S
C246 O238 1.315 . S
C246 O241 1.279 . S
C247 O248 1.315 . S
C247 O249 1.279 . S
O248 Cd240 2.223 . S
O248 C247 1.315 . S
O249 Cd239 2.240 . S
O249 C247 1.279 . S
O250 Cd240 2.297 . S
O250 C245 1.247 . S
O251 Cd240 2.439 . S
O251 C245 1.208 . S
O252 Cd253 2.223 . S
O252 C260 1.315 . S
Cd253 O252 2.223 . S
Cd253 O256 2.297 . S
Cd253 O257 2.439 . S
Cd253 O263 2.240 . S
Cd254 O255 2.240 . S
Cd254 O262 2.223 . S
Cd254 O264 2.297 . S
Cd254 O265 2.439 . S
O255 Cd254 2.240 . S
O255 C260 1.279 . S
O256 Cd253 2.297 . S
O256 C258 1.247 . S
O257 Cd253 2.439 . S
O257 C258 1.208 . S
C258 O256 1.247 . S
C258 O257 1.208 . S
C259 O264 1.247 . S
C259 O265 1.208 . S
C260 O252 1.315 . S
C260 O255 1.279 . S
C261 O262 1.315 . S
C261 O263 1.279 . S
O262 Cd254 2.223 . S
O262 C261 1.315 . S
O263 Cd253 2.240 . S
O263 C261 1.279 . S
O264 Cd254 2.297 . S
O264 C259 1.247 . S
O265 Cd254 2.439 . S
O265 C259 1.208 . S
O266 Cd267 2.223 . S
O266 C274 1.315 . S
Cd267 O266 2.223 . S
Cd267 O270 2.297 . S
Cd267 O271 2.439 . S
Cd267 O277 2.240 . S
Cd268 O269 2.240 . S
Cd268 O276 2.223 . S
Cd268 O278 2.297 . S
Cd268 O279 2.439 . S
O269 Cd268 2.240 . S
O269 C274 1.279 . S
O270 Cd267 2.297 . S
O270 C272 1.247 . S
O271 Cd267 2.439 . S
O271 C272 1.208 . S
C272 O270 1.247 . S
C272 O271 1.208 . S
C273 O278 1.247 . S
C273 O279 1.208 . S
C274 O266 1.315 . S
C274 O269 1.279 . S
C275 O276 1.315 . S
C275 O277 1.279 . S
O276 Cd268 2.223 . S
O276 C275 1.315 . S
O277 Cd267 2.240 . S
O277 C275 1.279 . S
O278 Cd268 2.297 . S
O278 C273 1.247 . S
O279 Cd268 2.439 . S
O279 C273 1.208 . S
O280 Cd281 2.223 . S
O280 C288 1.315 . S
Cd281 O280 2.223 . S
Cd281 O284 2.297 . S
Cd281 O285 2.439 . S
Cd281 O291 2.240 . S
Cd282 O283 2.240 . S
Cd282 O290 2.223 . S
Cd282 O292 2.297 . S
Cd282 O293 2.439 . S
O283 Cd282 2.240 . S
O283 C288 1.279 . S
O284 Cd281 2.297 . S
O284 C286 1.247 . S
O285 Cd281 2.439 . S
O285 C286 1.208 . S
C286 O284 1.247 . S
C286 O285 1.208 . S
C287 O292 1.247 . S
C287 O293 1.208 . S
C288 O280 1.315 . S
C288 O283 1.279 . S
C289 O290 1.315 . S
C289 O291 1.279 . S
O290 Cd282 2.223 . S
O290 C289 1.315 . S
O291 Cd281 2.240 . S
O291 C289 1.279 . S
O292 Cd282 2.297 . S
O292 C287 1.247 . S
O293 Cd282 2.439 . S
O293 C287 1.208 . S
O294 Cd295 2.223 . S
O294 C302 1.315 . S
Cd295 O294 2.223 . S
Cd295 O298 2.297 . S
Cd295 O299 2.439 . S
Cd295 O305 2.240 . S
Cd296 O297 2.240 . S
Cd296 O304 2.223 . S
Cd296 O306 2.297 . S
Cd296 O307 2.439 . S
O297 Cd296 2.240 . S
O297 C302 1.279 . S
O298 Cd295 2.297 . S
O298 C300 1.247 . S
O299 Cd295 2.439 . S
O299 C300 1.208 . S
C300 O298 1.247 . S
C300 O299 1.208 . S
C301 O306 1.247 . S
C301 O307 1.208 . S
C302 O294 1.315 . S
C302 O297 1.279 . S
C303 O304 1.315 . S
C303 O305 1.279 . S
O304 Cd296 2.223 . S
O304 C303 1.315 . S
O305 Cd295 2.240 . S
O305 C303 1.279 . S
O306 Cd296 2.297 . S
O306 C301 1.247 . S
O307 Cd296 2.439 . S
O307 C301 1.208 . S
O308 Cd309 2.223 . S
O308 C316 1.315 . S
Cd309 O308 2.223 . S
Cd309 O312 2.297 . S
Cd309 O313 2.439 . S
Cd309 O319 2.240 . S
Cd310 O311 2.240 . S
Cd310 O318 2.223 . S
Cd310 O320 2.297 . S
Cd310 O321 2.439 . S
O311 Cd310 2.240 . S
O311 C316 1.279 . S
O312 Cd309 2.297 . S
O312 C314 1.247 . S
O313 Cd309 2.439 . S
O313 C314 1.208 . S
C314 O312 1.247 . S
C314 O313 1.208 . S
C315 O320 1.247 . S
C315 O321 1.208 . S
C316 O308 1.315 . S
C316 O311 1.279 . S
C317 O318 1.315 . S
C317 O319 1.279 . S
O318 Cd310 2.223 . S
O318 C317 1.315 . S
O319 Cd309 2.240 . S
O319 C317 1.279 . S
O320 Cd310 2.297 . S
O320 C315 1.247 . S
O321 Cd310 2.439 . S
O321 C315 1.208 . S
O322 Cd323 2.223 . S
O322 C330 1.315 . S
Cd323 O322 2.223 . S
Cd323 O326 2.297 . S
Cd323 O327 2.439 . S
Cd323 O333 2.240 . S
Cd324 O325 2.240 . S
Cd324 O332 2.223 . S
Cd324 O334 2.297 . S
Cd324 O335 2.439 . S
O325 Cd324 2.240 . S
O325 C330 1.279 . S
O326 Cd323 2.297 . S
O326 C328 1.247 . S
O327 Cd323 2.439 . S
O327 C328 1.208 . S
C328 O326 1.247 . S
C328 O327 1.208 . S
C329 O334 1.247 . S
C329 O335 1.208 . S
C330 O322 1.315 . S
C330 O325 1.279 . S
C331 O332 1.315 . S
C331 O333 1.279 . S
O332 Cd324 2.223 . S
O332 C331 1.315 . S
O333 Cd323 2.240 . S
O333 C331 1.279 . S
O334 Cd324 2.297 . S
O334 C329 1.247 . S
O335 Cd324 2.439 . S
O335 C329 1.208 . S
O336 Cd337 2.223 . S
O336 C344 1.315 . S
Cd337 O336 2.223 . S
Cd337 O340 2.297 . S
Cd337 O341 2.439 . S
Cd337 O347 2.240 . S
Cd338 O339 2.240 . S
Cd338 O346 2.223 . S
Cd338 O348 2.297 . S
Cd338 O349 2.439 . S
O339 Cd338 2.240 . S
O339 C344 1.279 . S
O340 Cd337 2.297 . S
O340 C342 1.247 . S
O341 Cd337 2.439 . S
O341 C342 1.208 . S
C342 O340 1.247 . S
C342 O341 1.208 . S
C343 O348 1.247 . S
C343 O349 1.208 . S
C344 O336 1.315 . S
C344 O339 1.279 . S
C345 O346 1.315 . S
C345 O347 1.279 . S
O346 Cd338 2.223 . S
O346 C345 1.315 . S
O347 Cd337 2.240 . S
O347 C345 1.279 . S
O348 Cd338 2.297 . S
O348 C343 1.247 . S
O349 Cd338 2.439 . S
O349 C343 1.208 . S
O350 Cd351 2.223 . S
O350 C358 1.315 . S
Cd351 O350 2.223 . S
Cd351 O354 2.297 . S
Cd351 O355 2.439 . S
Cd351 O361 2.240 . S
Cd352 O353 2.240 . S
Cd352 O360 2.223 . S
Cd352 O362 2.297 . S
Cd352 O363 2.439 . S
O353 Cd352 2.240 . S
O353 C358 1.279 . S
O354 Cd351 2.297 . S
O354 C356 1.247 . S
O355 Cd351 2.439 . S
O355 C356 1.208 . S
C356 O354 1.247 . S
C356 O355 1.208 . S
C357 O362 1.247 . S
C357 O363 1.208 . S
C358 O350 1.315 . S
C358 O353 1.279 . S
C359 O360 1.315 . S
C359 O361 1.279 . S
O360 Cd352 2.223 . S
O360 C359 1.315 . S
O361 Cd351 2.240 . S
O361 C359 1.279 . S
O362 Cd352 2.297 . S
O362 C357 1.247 . S
O363 Cd352 2.439 . S
O363 C357 1.208 . S
O364 Cd365 2.223 . S
O364 C372 1.315 . S
Cd365 O364 2.223 . S
Cd365 O368 2.297 . S
Cd365 O369 2.439 . S
Cd365 O375 2.240 . S
Cd366 O367 2.240 . S
Cd366 O374 2.223 . S
Cd366 O376 2.297 . S
Cd366 O377 2.439 . S
O367 Cd366 2.240 . S
O367 C372 1.279 . S
O368 Cd365 2.297 . S
O368 C370 1.247 . S
O369 Cd365 2.439 . S
O369 C370 1.208 . S
C370 O368 1.247 . S
C370 O369 1.208 . S
C371 O376 1.247 . S
C371 O377 1.208 . S
C372 O364 1.315 . S
C372 O367 1.279 . S
C373 O374 1.315 . S
C373 O375 1.279 . S
O374 Cd366 2.223 . S
O374 C373 1.315 . S
O375 Cd365 2.240 . S
O375 C373 1.279 . S
O376 Cd366 2.297 . S
O376 C371 1.247 . S
O377 Cd366 2.439 . S
O377 C371 1.208 . S
O378 Cd379 2.223 . S
O378 C386 1.315 . S
Cd379 O378 2.223 . S
Cd379 O382 2.297 . S
Cd379 O383 2.439 . S
Cd379 O389 2.240 . S
Cd380 O381 2.240 . S
Cd380 O388 2.223 . S
Cd380 O390 2.297 . S
Cd380 O391 2.439 . S
O381 Cd380 2.240 . S
O381 C386 1.279 . S
O382 Cd379 2.297 . S
O382 C384 1.247 . S
O383 Cd379 2.439 . S
O383 C384 1.208 . S
C384 O382 1.247 . S
C384 O383 1.208 . S
C385 O390 1.247 . S
C385 O391 1.208 . S
C386 O378 1.315 . S
C386 O381 1.279 . S
C387 O388 1.315 . S
C387 O389 1.279 . S
O388 Cd380 2.223 . S
O388 C387 1.315 . S
O389 Cd379 2.240 . S
O389 C387 1.279 . S
O390 Cd380 2.297 . S
O390 C385 1.247 . S
O391 Cd380 2.439 . S
O391 C385 1.208 . S
O392 Cd393 2.223 . S
O392 C400 1.315 . S
Cd393 O392 2.223 . S
Cd393 O396 2.297 . S
Cd393 O397 2.439 . S
Cd393 O403 2.240 . S
Cd394 O395 2.240 . S
Cd394 O402 2.223 . S
Cd394 O404 2.297 . S
Cd394 O405 2.439 . S
O395 Cd394 2.240 . S
O395 C400 1.279 . S
O396 Cd393 2.297 . S
O396 C398 1.247 . S
O397 Cd393 2.439 . S
O397 C398 1.208 . S
C398 O396 1.247 . S
C398 O397 1.208 . S
C399 O404 1.247 . S
C399 O405 1.208 . S
C400 O392 1.315 . S
C400 O395 1.279 . S
C401 O402 1.315 . S
C401 O403 1.279 . S
O402 Cd394 2.223 . S
O402 C401 1.315 . S
O403 Cd393 2.240 . S
O403 C401 1.279 . S
O404 Cd394 2.297 . S
O404 C399 1.247 . S
O405 Cd394 2.439 . S
O405 C399 1.208 . S
O406 Cd407 2.223 . S
O406 C414 1.315 . S
Cd407 O406 2.223 . S
Cd407 O410 2.297 . S
Cd407 O411 2.439 . S
Cd407 O417 2.240 . S
Cd408 O409 2.240 . S
Cd408 O416 2.223 . S
Cd408 O418 2.297 . S
Cd408 O419 2.439 . S
O409 Cd408 2.240 . S
O409 C414 1.279 . S
O410 Cd407 2.297 . S
O410 C412 1.247 . S
O411 Cd407 2.439 . S
O411 C412 1.208 . S
C412 O410 1.247 . S
C412 O411 1.208 . S
C413 O418 1.247 . S
C413 O419 1.208 . S
C414 O406 1.315 . S
C414 O409 1.279 . S
C415 O416 1.315 . S
C415 O417 1.279 . S
O416 Cd408 2.223 . S
O416 C415 1.315 . S
O417 Cd407 2.240 . S
O417 C415 1.279 . S
O418 Cd408 2.297 . S
O418 C413 1.247 . S
O419 Cd408 2.439 . S
O419 C413 1.208 . S
O420 Cd421 2.223 . S
O420 C428 1.315 . S
Cd421 O420 2.223 . S
Cd421 O424 2.297 . S
Cd421 O425 2.439 . S
Cd421 O431 2.240 . S
Cd422 O423 2.240 . S
Cd422 O430 2.223 . S
Cd422 O432 2.297 . S
Cd422 O433 2.439 . S
O423 Cd422 2.240 . S
O423 C428 1.279 . S
O424 Cd421 2.297 . S
O424 C426 1.247 . S
O425 Cd421 2.439 . S
O425 C426 1.208 . S
C426 O424 1.247 . S
C426 O425 1.208 . S
C427 O432 1.247 . S
C427 O433 1.208 . S
C428 O420 1.315 . S
C428 O423 1.279 . S
C429 O430 1.315 . S
C429 O431 1.279 . S
O430 Cd422 2.223 . S
O430 C429 1.315 . S
O431 Cd421 2.240 . S
O431 C429 1.279 . S
O432 Cd422 2.297 . S
O432 C427 1.247 . S
O433 Cd422 2.439 . S
O433 C427 1.208 . S
O434 Cd435 2.223 . S
O434 C442 1.315 . S
Cd435 O434 2.223 . S
Cd435 O438 2.297 . S
Cd435 O439 2.439 . S
Cd435 O445 2.240 . S
Cd436 O437 2.240 . S
Cd436 O444 2.223 . S
Cd436 O446 2.297 . S
Cd436 O447 2.439 . S
O437 Cd436 2.240 . S
O437 C442 1.279 . S
O438 Cd435 2.297 . S
O438 C440 1.247 . S
O439 Cd435 2.439 . S
O439 C440 1.208 . S
C440 O438 1.247 . S
C440 O439 1.208 . S
C441 O446 1.247 . S
C441 O447 1.208 . S
C442 O434 1.315 . S
C442 O437 1.279 . S
C443 O444 1.315 . S
C443 O445 1.279 . S
O444 Cd436 2.223 . S
O444 C443 1.315 . S
O445 Cd435 2.240 . S
O445 C443 1.279 . S
O446 Cd436 2.297 . S
O446 C441 1.247 . S
O447 Cd436 2.439 . S
O447 C441 1.208 . S
C448 C449 1.391 . S
C448 C450 1.405 1_556 S
C448 H464 0.935 . S
C449 C448 1.391 . S
C449 C453 1.376 . S
C450 C448 1.405 1_554 S
C450 C451 1.387 . S
C450 C454 1.510 1_655 S
C451 C450 1.387 . S
C451 C452 1.384 1_554 S
C451 C459 1.517 1_655 S
C452 C451 1.384 1_556 S
C452 C453 1.392 . S
C452 C455 1.511 . S
C453 C449 1.376 . S
C453 C452 1.392 . S
C453 H465 0.929 . S
C454 C450 1.510 1_455 S
C454 H466 0.960 . S
C454 H467 0.962 . S
C454 H468 0.960 . S
C455 C452 1.511 . S
C455 H469 0.961 . S
C455 H470 0.961 . S
C455 H471 0.961 . S
C456 C457 1.370 1_556 S
C456 C458 1.363 . S
C456 H472 0.931 . S
C457 C456 1.370 1_554 S
C457 C461 1.408 . S
C458 C456 1.363 . S
C458 C459 1.370 1_556 S
C458 C462 1.524 . S
C459 C451 1.517 1_455 S
C459 C458 1.370 1_554 S
C459 C460 1.403 . S
C460 C459 1.403 . S
C460 C461 1.404 . S
C460 C463 1.539 1_455 S
C461 C457 1.408 . S
C461 C460 1.404 . S
C461 H473 0.930 . S
C462 C458 1.524 . S
C462 H474 0.956 . S
C462 H475 0.961 . S
C462 H476 0.961 . S
C463 C460 1.539 1_655 S
C463 H477 0.958 . S
C463 H478 0.961 . S
C463 H479 0.960 . S
H464 C448 0.935 . S
H465 C453 0.929 . S
H466 C454 0.960 . S
H467 C454 0.962 . S
H468 C454 0.960 . S
H469 C455 0.961 . S
H470 C455 0.961 . S
H471 C455 0.961 . S
H472 C456 0.931 . S
H473 C461 0.930 . S
H474 C462 0.956 . S
H475 C462 0.961 . S
H476 C462 0.961 . S
H477 C463 0.958 . S
H478 C463 0.961 . S
H479 C463 0.960 . S
C480 C481 1.391 . S
C480 C482 1.394 . S
C480 H496 0.931 . S
C481 C480 1.391 . S
C481 C485 1.376 . S
C482 C480 1.394 . S
C482 C483 1.369 . S
C482 C486 1.531 . S
C483 C482 1.369 . S
C483 C484 1.410 . S
C483 C491 1.503 . S
C484 C483 1.410 . S
C484 C485 1.392 . S
C484 C487 1.511 . S
C485 C481 1.376 . S
C485 C484 1.392 . S
C485 H497 0.929 . S
C486 C482 1.531 . S
C486 H498 0.960 . S
C486 H499 0.962 . S
C486 H500 0.960 . S
C487 C484 1.511 . S
C487 H501 0.961 . S
C487 H502 0.961 . S
C487 H503 0.961 . S
C488 C489 1.370 . S
C488 C490 1.363 . S
C488 H504 0.931 . S
C489 C488 1.370 . S
C489 C493 1.408 . S
C490 C488 1.363 . S
C490 C491 1.370 . S
C490 C494 1.524 . S
C491 C483 1.503 . S
C491 C490 1.370 . S
C491 C492 1.403 . S
C492 C491 1.403 . S
C492 C493 1.404 . S
C492 C495 1.539 . S
C493 C489 1.408 . S
C493 C492 1.404 . S
C493 H505 0.930 . S
C494 C490 1.524 . S
C494 H506 0.956 . S
C494 H507 0.961 . S
C494 H508 0.961 . S
C495 C492 1.539 . S
C495 H509 0.958 . S
C495 H510 0.961 . S
C495 H511 0.960 . S
H496 C480 0.931 . S
H497 C485 0.929 . S
H498 C486 0.960 . S
H499 C486 0.962 . S
H500 C486 0.960 . S
H501 C487 0.961 . S
H502 C487 0.961 . S
H503 C487 0.961 . S
H504 C488 0.931 . S
H505 C493 0.930 . S
H506 C494 0.956 . S
H507 C494 0.961 . S
H508 C494 0.961 . S
H509 C495 0.958 . S
H510 C495 0.961 . S
H511 C495 0.960 . S
C512 C513 1.391 . S
C512 C514 1.394 . S
C512 H528 0.931 . S
C513 C512 1.391 . S
C513 C517 1.376 . S
C514 C512 1.394 . S
C514 C515 1.369 . S
C514 C518 1.531 . S
C515 C514 1.369 . S
C515 C516 1.410 . S
C515 C523 1.503 . S
C516 C515 1.410 . S
C516 C517 1.392 . S
C516 C519 1.511 . S
C517 C513 1.376 . S
C517 C516 1.392 . S
C517 H529 0.929 . S
C518 C514 1.531 . S
C518 H530 0.960 . S
C518 H531 0.962 . S
C518 H532 0.960 . S
C519 C516 1.511 . S
C519 H533 0.961 . S
C519 H534 0.961 . S
C519 H535 0.961 . S
C520 C521 1.370 . S
C520 C522 1.363 . S
C520 H536 0.931 . S
C521 C520 1.370 . S
C521 C525 1.408 . S
C522 C520 1.363 . S
C522 C523 1.370 . S
C522 C526 1.524 . S
C523 C515 1.503 . S
C523 C522 1.370 . S
C523 C524 1.403 . S
C524 C523 1.403 . S
C524 C525 1.404 . S
C524 C527 1.539 . S
C525 C521 1.408 . S
C525 C524 1.404 . S
C525 H537 0.930 . S
C526 C522 1.524 . S
C526 H538 0.956 . S
C526 H539 0.961 . S
C526 H540 0.961 . S
C527 C524 1.539 . S
C527 H541 0.958 . S
C527 H542 0.961 . S
C527 H543 0.960 . S
H528 C512 0.931 . S
H529 C517 0.929 . S
H530 C518 0.960 . S
H531 C518 0.962 . S
H532 C518 0.960 . S
H533 C519 0.961 . S
H534 C519 0.961 . S
H535 C519 0.961 . S
H536 C520 0.931 . S
H537 C525 0.930 . S
H538 C526 0.956 . S
H539 C526 0.961 . S
H540 C526 0.961 . S
H541 C527 0.958 . S
H542 C527 0.961 . S
H543 C527 0.960 . S
C544 C545 1.391 . S
C544 C546 1.394 . S
C544 H560 0.931 . S
C545 C544 1.391 . S
C545 C549 1.376 . S
C546 C544 1.394 . S
C546 C547 1.369 . S
C546 C550 1.531 . S
C547 C546 1.369 . S
C547 C548 1.410 . S
C547 C555 1.503 . S
C548 C547 1.410 . S
C548 C549 1.392 . S
C548 C551 1.511 . S
C549 C545 1.376 . S
C549 C548 1.392 . S
C549 H561 0.929 . S
C550 C546 1.531 . S
C550 H562 0.960 . S
C550 H563 0.962 . S
C550 H564 0.960 . S
C551 C548 1.511 . S
C551 H565 0.961 . S
C551 H566 0.961 . S
C551 H567 0.961 . S
C552 C553 1.370 . S
C552 C554 1.363 . S
C552 H568 0.931 . S
C553 C552 1.370 . S
C553 C557 1.408 . S
C554 C552 1.363 . S
C554 C555 1.370 . S
C554 C558 1.524 . S
C555 C547 1.503 . S
C555 C554 1.370 . S
C555 C556 1.403 . S
C556 C555 1.403 . S
C556 C557 1.404 . S
C556 C559 1.539 . S
C557 C553 1.408 . S
C557 C556 1.404 . S
C557 H569 0.930 . S
C558 C554 1.524 . S
C558 H570 0.956 . S
C558 H571 0.961 . S
C558 H572 0.961 . S
C559 C556 1.539 . S
C559 H573 0.958 . S
C559 H574 0.961 . S
C559 H575 0.960 . S
H560 C544 0.931 . S
H561 C549 0.929 . S
H562 C550 0.960 . S
H563 C550 0.962 . S
H564 C550 0.960 . S
H565 C551 0.961 . S
H566 C551 0.961 . S
H567 C551 0.961 . S
H568 C552 0.931 . S
H569 C557 0.930 . S
H570 C558 0.956 . S
H571 C558 0.961 . S
H572 C558 0.961 . S
H573 C559 0.958 . S
H574 C559 0.961 . S
H575 C559 0.960 . S
C576 C577 1.391 . S
C576 C578 1.394 . S
C576 H592 0.931 . S
C577 C576 1.391 . S
C577 C581 1.376 . S
C578 C576 1.394 . S
C578 C579 1.369 . S
C578 C582 1.531 . S
C579 C578 1.369 . S
C579 C580 1.410 1_655 S
C579 C587 1.503 1_655 S
C580 C579 1.410 1_455 S
C580 C581 1.392 1_455 S
C580 C583 1.511 . S
C581 C577 1.376 . S
C581 C580 1.392 1_655 S
C581 H593 0.918 1_655 S
C582 C578 1.531 . S
C582 H594 0.960 . S
C582 H595 0.962 . S
C582 H596 0.960 . S
C583 C580 1.511 . S
C583 H597 0.961 . S
C583 H598 0.961 . S
C583 H599 0.961 . S
C584 C585 1.370 . S
C584 C586 1.363 . S
C584 H600 0.931 . S
C585 C584 1.370 . S
C585 C589 1.408 . S
C586 C584 1.363 . S
C586 C587 1.370 . S
C586 C590 1.524 . S
C587 C579 1.503 1_455 S
C587 C586 1.370 . S
C587 C588 1.403 . S
C588 C587 1.403 . S
C588 C589 1.404 . S
C588 C591 1.539 . S
C589 C585 1.408 . S
C589 C588 1.404 . S
C589 H601 0.930 . S
C590 C586 1.524 . S
C590 H602 0.956 1_455 S
C590 H603 0.961 . S
C590 H604 0.961 . S
C591 C588 1.539 . S
C591 H605 0.958 1_455 S
C591 H606 0.961 . S
C591 H607 0.960 . S
H592 C576 0.931 . S
H593 C581 0.918 1_455 S
H594 C582 0.960 . S
H595 C582 0.962 . S
H596 C582 0.960 . S
H597 C583 0.961 . S
H598 C583 0.961 . S
H599 C583 0.961 . S
H600 C584 0.931 . S
H601 C589 0.930 . S
H602 C590 0.956 1_655 S
H603 C590 0.961 . S
H604 C590 0.961 . S
H605 C591 0.958 1_655 S
H606 C591 0.961 . S
H607 C591 0.960 . S
C608 C609 1.391 . S
C608 C610 1.394 . S
C608 H624 0.931 . S
C609 C608 1.391 . S
C609 C613 1.376 . S
C610 C608 1.394 . S
C610 C611 1.369 . S
C610 C614 1.531 . S
C611 C610 1.369 . S
C611 C612 1.410 . S
C611 C619 1.503 . S
C612 C611 1.410 . S
C612 C613 1.392 . S
C612 C615 1.511 . S
C613 C609 1.376 . S
C613 C612 1.392 . S
C613 H625 0.929 . S
C614 C610 1.531 . S
C614 H626 0.960 . S
C614 H627 0.962 . S
C614 H628 0.960 . S
C615 C612 1.511 . S
C615 H629 0.961 . S
C615 H630 0.961 . S
C615 H631 0.961 . S
C616 C617 1.370 . S
C616 C618 1.363 . S
C616 H632 0.931 . S
C617 C616 1.370 . S
C617 C621 1.408 . S
C618 C616 1.363 . S
C618 C619 1.370 . S
C618 C622 1.524 . S
C619 C611 1.503 . S
C619 C618 1.370 . S
C619 C620 1.403 . S
C620 C619 1.403 . S
C620 C621 1.404 . S
C620 C623 1.539 . S
C621 C617 1.408 . S
C621 C620 1.404 . S
C621 H633 0.930 . S
C622 C618 1.524 . S
C622 H634 0.956 . S
C622 H635 0.961 . S
C622 H636 0.961 . S
C623 C620 1.539 . S
C623 H637 0.958 . S
C623 H638 0.961 . S
C623 H639 0.960 . S
H624 C608 0.931 . S
H625 C613 0.929 . S
H626 C614 0.960 . S
H627 C614 0.962 . S
H628 C614 0.960 . S
H629 C615 0.961 . S
H630 C615 0.961 . S
H631 C615 0.961 . S
H632 C616 0.931 . S
H633 C621 0.930 . S
H634 C622 0.956 . S
H635 C622 0.961 . S
H636 C622 0.961 . S
H637 C623 0.958 . S
H638 C623 0.961 . S
H639 C623 0.960 . S
C640 C641 1.391 1_554 S
C640 C642 1.394 . S
C640 H656 0.931 . S
C641 C640 1.391 1_556 S
C641 C645 1.376 . S
C642 C640 1.394 . S
C642 C643 1.369 1_554 S
C642 C646 1.531 . S
C643 C642 1.369 1_556 S
C643 C644 1.410 . S
C643 C651 1.503 1_556 S
C644 C643 1.410 . S
C644 C645 1.392 . S
C644 C647 1.511 . S
C645 C641 1.376 . S
C645 C644 1.392 . S
C645 H657 0.929 . S
C646 C642 1.531 . S
C646 H658 0.960 . S
C646 H659 0.962 . S
C646 H660 0.960 . S
C647 C644 1.511 . S
C647 H661 0.961 . S
C647 H662 0.961 . S
C647 H663 0.961 . S
C648 C649 1.370 . S
C648 C650 1.363 . S
C648 H664 0.931 . S
C649 C648 1.370 . S
C649 C653 1.408 . S
C650 C648 1.363 . S
C650 C651 1.370 . S
C650 C654 1.524 . S
C651 C643 1.503 1_554 S
C651 C650 1.370 . S
C651 C652 1.403 . S
C652 C651 1.403 . S
C652 C653 1.404 . S
C652 C655 1.538 . S
C653 C649 1.408 . S
C653 C652 1.404 . S
C653 H665 0.930 . S
C654 C650 1.524 . S
C654 H666 0.956 . S
C654 H667 0.961 1_554 S
C654 H668 0.961 . S
C655 C652 1.538 . S
C655 H669 0.953 . S
C655 H670 0.963 1_554 S
C655 H671 0.964 1_554 S
H656 C640 0.931 . S
H657 C645 0.929 . S
H658 C646 0.960 . S
H659 C646 0.962 . S
H660 C646 0.960 . S
H661 C647 0.961 . S
H662 C647 0.961 . S
H663 C647 0.961 . S
H664 C648 0.931 . S
H665 C653 0.930 . S
H666 C654 0.956 . S
H667 C654 0.961 1_556 S
H668 C654 0.961 . S
H669 C655 0.953 . S
H670 C655 0.963 1_556 S
H671 C655 0.964 1_556 S
C672 C673 1.391 . S
C672 C674 1.394 . S
C672 H688 0.931 . S
C673 C672 1.391 . S
C673 C677 1.376 . S
C674 C672 1.394 . S
C674 C675 1.369 . S
C674 C678 1.531 . S
C675 C674 1.369 . S
C675 C676 1.410 . S
C675 C683 1.503 . S
C676 C675 1.410 . S
C676 C677 1.392 . S
C676 C679 1.511 . S
C677 C673 1.376 . S
C677 C676 1.392 . S
C677 H689 0.929 . S
C678 C674 1.531 . S
C678 H690 0.960 . S
C678 H691 0.962 . S
C678 H692 0.960 . S
C679 C676 1.511 . S
C679 H693 0.961 . S
C679 H694 0.961 . S
C679 H695 0.961 . S
C680 C681 1.370 . S
C680 C682 1.363 . S
C680 H696 0.931 . S
C681 C680 1.370 . S
C681 C685 1.408 . S
C682 C680 1.363 . S
C682 C683 1.370 . S
C682 C686 1.524 . S
C683 C675 1.503 . S
C683 C682 1.370 . S
C683 C684 1.403 . S
C684 C683 1.403 . S
C684 C685 1.404 . S
C684 C687 1.539 . S
C685 C681 1.408 . S
C685 C684 1.404 . S
C685 H697 0.930 . S
C686 C682 1.524 . S
C686 H698 0.956 . S
C686 H699 0.961 . S
C686 H700 0.961 . S
C687 C684 1.539 . S
C687 H701 0.958 . S
C687 H702 0.961 . S
C687 H703 0.960 . S
H688 C672 0.931 . S
H689 C677 0.929 . S
H690 C678 0.960 . S
H691 C678 0.962 . S
H692 C678 0.960 . S
H693 C679 0.961 . S
H694 C679 0.961 . S
H695 C679 0.961 . S
H696 C680 0.931 . S
H697 C685 0.930 . S
H698 C686 0.956 . S
H699 C686 0.961 . S
H700 C686 0.961 . S
H701 C687 0.958 . S
H702 C687 0.961 . S
H703 C687 0.960 . S
C704 C705 1.391 . S
C704 C706 1.394 . S
C704 H720 0.931 . S
C705 C704 1.391 . S
C705 C709 1.376 . S
C706 C704 1.394 . S
C706 C707 1.369 . S
C706 C710 1.531 . S
C707 C706 1.369 . S
C707 C708 1.410 . S
C707 C715 1.503 . S
C708 C707 1.410 . S
C708 C709 1.392 . S
C708 C711 1.511 . S
C709 C705 1.376 . S
C709 C708 1.392 . S
C709 H721 0.929 . S
C710 C706 1.531 . S
C710 H722 0.960 . S
C710 H723 0.962 . S
C710 H724 0.960 . S
C711 C708 1.511 . S
C711 H725 0.961 . S
C711 H726 0.961 . S
C711 H727 0.961 . S
C712 C713 1.370 . S
C712 C714 1.363 . S
C712 H728 0.931 . S
C713 C712 1.370 . S
C713 C717 1.408 . S
C714 C712 1.363 . S
C714 C715 1.370 . S
C714 C718 1.524 . S
C715 C707 1.503 . S
C715 C714 1.370 . S
C715 C716 1.403 . S
C716 C715 1.403 . S
C716 C717 1.404 . S
C716 C719 1.539 . S
C717 C713 1.408 . S
C717 C716 1.404 . S
C717 H729 0.930 . S
C718 C714 1.524 . S
C718 H730 0.956 . S
C718 H731 0.961 . S
C718 H732 0.961 . S
C719 C716 1.539 . S
C719 H733 0.958 . S
C719 H734 0.961 . S
C719 H735 0.960 . S
H720 C704 0.931 . S
H721 C709 0.929 . S
H722 C710 0.960 . S
H723 C710 0.962 . S
H724 C710 0.960 . S
H725 C711 0.961 . S
H726 C711 0.961 . S
H727 C711 0.961 . S
H728 C712 0.931 . S
H729 C717 0.930 . S
H730 C718 0.956 . S
H731 C718 0.961 . S
H732 C718 0.961 . S
H733 C719 0.958 . S
H734 C719 0.961 . S
H735 C719 0.960 . S
C736 C737 1.391 . S
C736 C738 1.394 . S
C736 H752 0.931 . S
C737 C736 1.391 . S
C737 C741 1.376 . S
C738 C736 1.394 . S
C738 C739 1.369 . S
C738 C742 1.531 . S
C739 C738 1.369 . S
C739 C740 1.410 . S
C739 C747 1.503 . S
C740 C739 1.410 . S
C740 C741 1.392 . S
C740 C743 1.511 . S
C741 C737 1.376 . S
C741 C740 1.392 . S
C741 H753 0.929 . S
C742 C738 1.531 . S
C742 H754 0.960 . S
C742 H755 0.962 . S
C742 H756 0.960 . S
C743 C740 1.511 . S
C743 H757 0.961 . S
C743 H758 0.961 . S
C743 H759 0.961 . S
C744 C745 1.370 . S
C744 C746 1.363 . S
C744 H760 0.931 . S
C745 C744 1.370 . S
C745 C749 1.408 . S
C746 C744 1.363 . S
C746 C747 1.370 . S
C746 C750 1.524 . S
C747 C739 1.503 . S
C747 C746 1.370 . S
C747 C748 1.403 . S
C748 C747 1.403 . S
C748 C749 1.404 . S
C748 C751 1.539 . S
C749 C745 1.408 . S
C749 C748 1.404 . S
C749 H761 0.930 . S
C750 C746 1.524 . S
C750 H762 0.956 . S
C750 H763 0.961 . S
C750 H764 0.961 . S
C751 C748 1.539 . S
C751 H765 0.958 . S
C751 H766 0.961 . S
C751 H767 0.960 . S
H752 C736 0.931 . S
H753 C741 0.929 . S
H754 C742 0.960 . S
H755 C742 0.962 . S
H756 C742 0.960 . S
H757 C743 0.961 . S
H758 C743 0.961 . S
H759 C743 0.961 . S
H760 C744 0.931 . S
H761 C749 0.930 . S
H762 C750 0.956 . S
H763 C750 0.961 . S
H764 C750 0.961 . S
H765 C751 0.958 . S
H766 C751 0.961 . S
H767 C751 0.960 . S
C768 C769 1.391 . S
C768 C770 1.394 . S
C768 H784 0.931 . S
C769 C768 1.391 . S
C769 C773 1.376 . S
C770 C768 1.394 . S
C770 C771 1.369 . S
C770 C774 1.531 . S
C771 C770 1.369 . S
C771 C772 1.410 . S
C771 C779 1.503 . S
C772 C771 1.410 . S
C772 C773 1.392 . S
C772 C775 1.511 . S
C773 C769 1.376 . S
C773 C772 1.392 . S
C773 H785 0.929 . S
C774 C770 1.531 . S
C774 H786 0.960 . S
C774 H787 0.962 . S
C774 H788 0.960 . S
C775 C772 1.511 . S
C775 H789 0.961 . S
C775 H790 0.961 . S
C775 H791 0.961 . S
C776 C777 1.370 . S
C776 C778 1.363 . S
C776 H792 0.931 . S
C777 C776 1.370 . S
C777 C781 1.408 . S
C778 C776 1.363 . S
C778 C779 1.370 . S
C778 C782 1.524 . S
C779 C771 1.503 . S
C779 C778 1.370 . S
C779 C780 1.403 . S
C780 C779 1.403 . S
C780 C781 1.404 . S
C780 C783 1.539 . S
C781 C777 1.408 . S
C781 C780 1.404 . S
C781 H793 0.930 . S
C782 C778 1.524 . S
C782 H794 0.956 . S
C782 H795 0.961 . S
C782 H796 0.961 . S
C783 C780 1.539 . S
C783 H797 0.958 . S
C783 H798 0.961 . S
C783 H799 0.960 . S
H784 C768 0.931 . S
H785 C773 0.929 . S
H786 C774 0.960 . S
H787 C774 0.962 . S
H788 C774 0.960 . S
H789 C775 0.961 . S
H790 C775 0.961 . S
H791 C775 0.961 . S
H792 C776 0.931 . S
H793 C781 0.930 . S
H794 C782 0.956 . S
H795 C782 0.961 . S
H796 C782 0.961 . S
H797 C783 0.958 . S
H798 C783 0.961 . S
H799 C783 0.960 . S
C800 C801 1.391 . S
C800 C802 1.394 . S
C800 H816 0.931 . S
C801 C800 1.391 . S
C801 C805 1.376 . S
C802 C800 1.394 . S
C802 C803 1.369 . S
C802 C806 1.531 . S
C803 C802 1.369 . S
C803 C804 1.410 . S
C803 C811 1.503 . S
C804 C803 1.410 . S
C804 C805 1.392 . S
C804 C807 1.511 . S
C805 C801 1.376 . S
C805 C804 1.392 . S
C805 H817 0.929 . S
C806 C802 1.531 . S
C806 H818 0.960 . S
C806 H819 0.962 . S
C806 H820 0.960 . S
C807 C804 1.511 . S
C807 H821 0.961 . S
C807 H822 0.961 . S
C807 H823 0.961 . S
C808 C809 1.370 . S
C808 C810 1.363 . S
C808 H824 0.931 . S
C809 C808 1.370 . S
C809 C813 1.408 . S
C810 C808 1.363 . S
C810 C811 1.370 . S
C810 C814 1.524 . S
C811 C803 1.503 . S
C811 C810 1.370 . S
C811 C812 1.403 . S
C812 C811 1.403 . S
C812 C813 1.404 . S
C812 C815 1.539 . S
C813 C809 1.408 . S
C813 C812 1.404 . S
C813 H825 0.930 . S
C814 C810 1.524 . S
C814 H826 0.956 . S
C814 H827 0.961 . S
C814 H828 0.961 . S
C815 C812 1.539 . S
C815 H829 0.958 . S
C815 H830 0.961 . S
C815 H831 0.960 . S
H816 C800 0.931 . S
H817 C805 0.929 . S
H818 C806 0.960 . S
H819 C806 0.962 . S
H820 C806 0.960 . S
H821 C807 0.961 . S
H822 C807 0.961 . S
H823 C807 0.961 . S
H824 C808 0.931 . S
H825 C813 0.930 . S
H826 C814 0.956 . S
H827 C814 0.961 . S
H828 C814 0.961 . S
H829 C815 0.958 . S
H830 C815 0.961 . S
H831 C815 0.960 . S
C832 C833 1.391 . S
C832 C834 1.394 . S
C832 H848 0.931 . S
C833 C832 1.391 . S
C833 C837 1.376 . S
C834 C832 1.394 . S
C834 C835 1.369 . S
C834 C838 1.531 1_565 S
C835 C834 1.369 . S
C835 C836 1.410 . S
C835 C843 1.503 1_565 S
C836 C835 1.410 . S
C836 C837 1.392 . S
C836 C839 1.511 . S
C837 C833 1.376 . S
C837 C836 1.392 . S
C837 H849 0.929 . S
C838 C834 1.531 1_545 S
C838 H850 0.960 . S
C838 H851 0.962 . S
C838 H852 0.960 1_545 S
C839 C836 1.511 . S
C839 H853 0.961 . S
C839 H854 0.961 . S
C839 H855 0.961 . S
C840 C841 1.370 . S
C840 C842 1.363 . S
C840 H856 0.931 . S
C841 C840 1.370 . S
C841 C845 1.408 . S
C842 C840 1.363 . S
C842 C843 1.370 . S
C842 C846 1.524 . S
C843 C835 1.503 1_545 S
C843 C842 1.370 . S
C843 C844 1.403 . S
C844 C843 1.403 . S
C844 C845 1.404 . S
C844 C847 1.539 1_545 S
C845 C841 1.408 . S
C845 C844 1.404 . S
C845 H857 0.930 . S
C846 C842 1.524 . S
C846 H858 0.956 . S
C846 H859 0.961 . S
C846 H860 0.961 . S
C847 C844 1.539 1_565 S
C847 H861 0.958 . S
C847 H862 0.961 . S
C847 H863 0.960 . S
H848 C832 0.931 . S
H849 C837 0.929 . S
H850 C838 0.960 . S
H851 C838 0.962 . S
H852 C838 0.960 1_565 S
H853 C839 0.961 . S
H854 C839 0.961 . S
H855 C839 0.961 . S
H856 C840 0.931 . S
H857 C845 0.930 . S
H858 C846 0.956 . S
H859 C846 0.961 . S
H860 C846 0.961 . S
H861 C847 0.958 . S
H862 C847 0.961 . S
H863 C847 0.960 . S
C864 C865 1.391 1_554 S
C864 C866 1.394 . S
C864 H880 0.931 . S
C865 C864 1.391 1_556 S
C865 C869 1.376 . S
C866 C864 1.394 . S
C866 C867 1.362 1_554 S
C866 C870 1.531 1_455 S
C867 C866 1.362 1_556 S
C867 C868 1.420 . S
C867 C875 1.500 1_466 S
C868 C867 1.420 . S
C868 C869 1.392 . S
C868 C871 1.511 1_565 S
C869 C865 1.376 . S
C869 C868 1.392 . S
C869 H881 0.929 . S
C870 C866 1.531 1_655 S
C870 H882 0.960 . S
C870 H883 0.962 . S
C870 H884 0.968 . S
C871 C868 1.511 1_545 S
C871 H885 0.961 . S
C871 H886 0.961 . S
C871 H887 0.961 . S
C872 C873 1.370 . S
C872 C874 1.363 1_554 S
C872 H888 0.931 1_554 S
C873 C872 1.370 . S
C873 C877 1.408 . S
C874 C872 1.363 1_556 S
C874 C875 1.370 1_556 S
C874 C878 1.524 1_545 S
C875 C867 1.500 1_644 S
C875 C874 1.370 1_554 S
C875 C876 1.403 1_655 S
C876 C875 1.403 1_455 S
C876 C877 1.404 1_455 S
C876 C879 1.539 . S
C877 C873 1.408 . S
C877 C876 1.404 1_655 S
C877 H889 0.930 . S
C878 C874 1.524 1_565 S
C878 H890 0.956 . S
C878 H891 0.961 . S
C878 H892 0.961 1_565 S
C879 C876 1.539 . S
C879 H893 0.958 . S
C879 H894 0.961 . S
C879 H895 0.960 . S
H880 C864 0.931 . S
H881 C869 0.929 . S
H882 C870 0.960 . S
H883 C870 0.962 . S
H884 C870 0.968 . S
H885 C871 0.961 . S
H886 C871 0.961 . S
H887 C871 0.961 . S
H888 C872 0.931 1_556 S
H889 C877 0.930 . S
H890 C878 0.956 . S
H891 C878 0.961 . S
H892 C878 0.961 1_545 S
H893 C879 0.958 . S
H894 C879 0.961 . S
H895 C879 0.960 . S
C896 C897 1.391 . S
C896 C898 1.394 . S
C896 H912 0.931 . S
C897 C896 1.391 . S
C897 C901 1.376 . S
C898 C896 1.394 . S
C898 C899 1.354 1_556 S
C898 C902 1.538 1_545 S
C899 C898 1.354 1_554 S
C899 C900 1.404 1_554 S
C899 C907 1.521 1_545 S
C900 C899 1.404 1_556 S
C900 C901 1.409 . S
C900 C903 1.501 1_556 S
C901 C897 1.376 . S
C901 C900 1.409 . S
C901 H913 0.929 . S
C902 C898 1.538 1_565 S
C902 H914 0.921 1_556 S
C902 H915 1.006 . S
C902 H916 0.951 1_556 S
C903 C900 1.501 1_554 S
C903 H917 0.961 1_554 S
C903 H918 0.961 . S
C903 H919 0.961 . S
C904 C905 1.370 1_556 S
C904 C906 1.363 . S
C904 H920 0.931 . S
C905 C904 1.370 1_554 S
C905 C909 1.408 . S
C906 C904 1.363 . S
C906 C907 1.370 1_556 S
C906 C910 1.524 . S
C907 C899 1.521 1_565 S
C907 C906 1.370 1_554 S
C907 C908 1.403 . S
C908 C907 1.403 . S
C908 C909 1.404 . S
C908 C911 1.539 . S
C909 C905 1.408 . S
C909 C908 1.404 . S
C909 H921 0.930 . S
C910 C906 1.524 . S
C910 H922 0.956 . S
C910 H923 0.961 1_565 S
C910 H924 0.961 . S
C911 C908 1.539 . S
C911 H925 0.958 . S
C911 H926 0.961 . S
C911 H927 0.960 1_565 S
H912 C896 0.931 . S
H913 C901 0.929 . S
H914 C902 0.921 1_554 S
H915 C902 1.006 . S
H916 C902 0.951 1_554 S
H917 C903 0.961 1_556 S
H918 C903 0.961 . S
H919 C903 0.961 . S
H920 C904 0.931 . S
H921 C909 0.930 . S
H922 C910 0.956 . S
H923 C910 0.961 1_545 S
H924 C910 0.961 . S
H925 C911 0.958 . S
H926 C911 0.961 . S
H927 C911 0.960 1_545 S
C928 C929 1.391 . S
C928 C930 1.394 . S
C928 H944 0.931 . S
C929 C928 1.391 . S
C929 C933 1.376 . S
C930 C928 1.394 . S
C930 C931 1.369 . S
C930 C934 1.531 1_545 S
C931 C930 1.369 . S
C931 C932 1.410 1_455 S
C931 C939 1.503 1_445 S
C932 C931 1.410 1_655 S
C932 C933 1.392 1_655 S
C932 C935 1.511 . S
C933 C929 1.376 . S
C933 C932 1.392 1_455 S
C933 H945 0.929 . S
C934 C930 1.531 1_565 S
C934 H946 0.960 . S
C934 H947 0.962 . S
C934 H948 0.960 . S
C935 C932 1.511 . S
C935 H949 0.961 . S
C935 H950 0.961 . S
C935 H951 0.961 . S
C936 C937 1.370 . S
C936 C938 1.363 . S
C936 H952 0.931 . S
C937 C936 1.370 . S
C937 C941 1.408 . S
C938 C936 1.363 . S
C938 C939 1.370 . S
C938 C942 1.524 1_655 S
C939 C931 1.503 1_665 S
C939 C938 1.370 . S
C939 C940 1.403 . S
C940 C939 1.403 . S
C940 C941 1.404 . S
C940 C943 1.539 . S
C941 C937 1.408 . S
C941 C940 1.404 . S
C941 H953 0.930 . S
C942 C938 1.524 1_455 S
C942 H954 0.956 . S
C942 H955 0.961 1_565 S
C942 H956 0.961 . S
C943 C940 1.539 . S
C943 H957 0.958 . S
C943 H958 0.961 . S
C943 H959 0.960 1_565 S
H944 C928 0.931 . S
H945 C933 0.929 . S
H946 C934 0.960 . S
H947 C934 0.962 . S
H948 C934 0.960 . S
H949 C935 0.961 . S
H950 C935 0.961 . S
H951 C935 0.961 . S
H952 C936 0.931 . S
H953 C941 0.930 . S
H954 C942 0.956 . S
H955 C942 0.961 1_545 S
H956 C942 0.961 . S
H957 C943 0.958 . S
H958 C943 0.961 . S
H959 C943 0.960 1_545 S
C960 C961 1.391 . S
C960 C962 1.394 1_655 S
C960 H976 0.931 . S
C961 C960 1.391 . S
C961 C965 1.376 . S
C962 C960 1.394 1_455 S
C962 C963 1.369 1_455 S
C962 C966 1.531 . S
C963 C962 1.369 1_655 S
C963 C964 1.410 . S
C963 C971 1.503 1_655 S
C964 C963 1.410 . S
C964 C965 1.392 . S
C964 C967 1.511 . S
C965 C961 1.376 . S
C965 C964 1.392 . S
C965 H977 0.929 . S
C966 C962 1.531 . S
C966 H978 0.960 . S
C966 H979 0.962 . S
C966 H980 0.960 . S
C967 C964 1.511 . S
C967 H981 0.961 . S
C967 H982 0.961 . S
C967 H983 0.961 . S
C968 C969 1.370 . S
C968 C970 1.363 . S
C968 H984 0.931 . S
C969 C968 1.370 . S
C969 C973 1.408 . S
C970 C968 1.363 . S
C970 C971 1.370 . S
C970 C974 1.524 . S
C971 C963 1.503 1_455 S
C971 C970 1.370 . S
C971 C972 1.403 . S
C972 C971 1.403 . S
C972 C973 1.404 . S
C972 C975 1.539 1_455 S
C973 C969 1.408 . S
C973 C972 1.404 . S
C973 H985 0.930 . S
C974 C970 1.524 . S
C974 H986 0.956 . S
C974 H987 0.995 . S
C974 H988 0.961 . S
C975 C972 1.539 1_655 S
C975 H989 0.958 1_655 S
C975 H990 0.961 . S
C975 H991 0.960 . S
H976 C960 0.931 . S
H977 C965 0.929 . S
H978 C966 0.960 . S
H979 C966 0.962 . S
H980 C966 0.960 . S
H981 C967 0.961 . S
H982 C967 0.961 . S
H983 C967 0.961 . S
H984 C968 0.931 . S
H985 C973 0.930 . S
H986 C974 0.956 . S
H987 C974 0.995 . S
H988 C974 0.961 . S
H989 C975 0.958 1_455 S
H990 C975 0.961 . S
H991 C975 0.960 . S
C992 C993 1.391 . S
C992 C994 1.394 . S
C992 H1008 0.931 . S
C993 C992 1.391 . S
C993 C997 1.376 . S
C994 C992 1.394 . S
C994 C995 1.369 . S
C994 C998 1.531 . S
C995 C994 1.369 . S
C995 C996 1.410 . S
C995 C1003 1.503 1_455 S
C996 C995 1.410 . S
C996 C997 1.392 . S
C996 C999 1.511 1_455 S
C997 C993 1.376 . S
C997 C996 1.392 . S
C997 H1009 0.929 . S
C998 C994 1.531 . S
C998 H1010 0.960 . S
C998 H1011 0.962 . S
C998 H1012 0.960 . S
C999 C996 1.511 1_655 S
C999 H1013 0.961 . S
C999 H1014 0.961 . S
C999 H1015 0.961 . S
C1000 C1001 1.370 . S
C1000 C1002 1.363 . S
C1000 H1016 0.931 . S
C1001 C1000 1.370 . S
C1001 C1005 1.408 . S
C1002 C1000 1.363 . S
C1002 C1003 1.370 . S
C1002 C1006 1.524 1_655 S
C1003 C995 1.503 1_655 S
C1003 C1002 1.370 . S
C1003 C1004 1.403 . S
C1004 C1003 1.403 . S
C1004 C1005 1.404 . S
C1004 C1007 1.539 . S
C1005 C1001 1.408 . S
C1005 C1004 1.404 . S
C1005 H1017 0.930 . S
C1006 C1002 1.524 1_455 S
C1006 H1018 0.956 . S
C1006 H1019 0.961 . S
C1006 H1020 0.961 1_455 S
C1007 C1004 1.539 . S
C1007 H1021 0.958 . S
C1007 H1022 0.961 . S
C1007 H1023 0.960 . S
H1008 C992 0.931 . S
H1009 C997 0.929 . S
H1010 C998 0.960 . S
H1011 C998 0.962 . S
H1012 C998 0.960 . S
H1013 C999 0.961 . S
H1014 C999 0.961 . S
H1015 C999 0.961 . S
H1016 C1000 0.931 . S
H1017 C1005 0.930 . S
H1018 C1006 0.956 . S
H1019 C1006 0.961 . S
H1020 C1006 0.961 1_655 S
H1021 C1007 0.958 . S
H1022 C1007 0.961 . S
H1023 C1007 0.960 . S
C1024 C1025 1.391 . S
C1024 C1026 1.394 . S
C1024 H1040 0.931 . S
C1025 C1024 1.391 . S
C1025 C1029 1.376 . S
C1026 C1024 1.394 . S
C1026 C1027 1.369 . S
C1026 C1030 1.531 . S
C1027 C1026 1.369 . S
C1027 C1028 1.410 . S
C1027 C1035 1.503 . S
C1028 C1027 1.410 . S
C1028 C1029 1.392 . S
C1028 C1031 1.511 . S
C1029 C1025 1.376 . S
C1029 C1028 1.392 . S
C1029 H1041 0.929 . S
C1030 C1026 1.531 . S
C1030 H1042 0.960 . S
C1030 H1043 0.962 . S
C1030 H1044 0.960 . S
C1031 C1028 1.511 . S
C1031 H1045 0.961 . S
C1031 H1046 0.961 . S
C1031 H1047 0.961 . S
C1032 C1033 1.370 . S
C1032 C1034 1.363 . S
C1032 H1048 0.931 . S
C1033 C1032 1.370 . S
C1033 C1037 1.408 . S
C1034 C1032 1.363 . S
C1034 C1035 1.370 . S
C1034 C1038 1.524 . S
C1035 C1027 1.503 . S
C1035 C1034 1.370 . S
C1035 C1036 1.403 . S
C1036 C1035 1.403 . S
C1036 C1037 1.404 . S
C1036 C1039 1.539 . S
C1037 C1033 1.408 . S
C1037 C1036 1.404 . S
C1037 H1049 0.930 . S
C1038 C1034 1.524 . S
C1038 H1050 0.956 . S
C1038 H1051 0.961 . S
C1038 H1052 0.961 . S
C1039 C1036 1.539 . S
C1039 H1053 0.958 . S
C1039 H1054 0.961 . S
C1039 H1055 0.960 . S
H1040 C1024 0.931 . S
H1041 C1029 0.929 . S
H1042 C1030 0.960 . S
H1043 C1030 0.962 . S
H1044 C1030 0.960 . S
H1045 C1031 0.961 . S
H1046 C1031 0.961 . S
H1047 C1031 0.961 . S
H1048 C1032 0.931 . S
H1049 C1037 0.930 . S
H1050 C1038 0.956 . S
H1051 C1038 0.961 . S
H1052 C1038 0.961 . S
H1053 C1039 0.958 . S
H1054 C1039 0.961 . S
H1055 C1039 0.960 . S
C1056 C1057 1.391 . S
C1056 C1058 1.394 . S
C1056 H1072 0.931 . S
C1057 C1056 1.391 . S
C1057 C1061 1.376 . S
C1058 C1056 1.394 . S
C1058 C1059 1.369 . S
C1058 C1062 1.531 . S
C1059 C1058 1.369 . S
C1059 C1060 1.410 . S
C1059 C1067 1.503 . S
C1060 C1059 1.410 . S
C1060 C1061 1.392 . S
C1060 C1063 1.511 . S
C1061 C1057 1.376 . S
C1061 C1060 1.392 . S
C1061 H1073 0.929 . S
C1062 C1058 1.531 . S
C1062 H1074 0.960 . S
C1062 H1075 0.962 . S
C1062 H1076 0.960 . S
C1063 C1060 1.511 . S
C1063 H1077 0.961 . S
C1063 H1078 0.961 . S
C1063 H1079 0.961 . S
C1064 C1065 1.370 . S
C1064 C1066 1.363 . S
C1064 H1080 0.931 . S
C1065 C1064 1.370 . S
C1065 C1069 1.408 . S
C1066 C1064 1.363 . S
C1066 C1067 1.370 . S
C1066 C1070 1.524 . S
C1067 C1059 1.503 . S
C1067 C1066 1.370 . S
C1067 C1068 1.403 . S
C1068 C1067 1.403 . S
C1068 C1069 1.404 . S
C1068 C1071 1.539 . S
C1069 C1065 1.408 . S
C1069 C1068 1.404 . S
C1069 H1081 0.930 . S
C1070 C1066 1.524 . S
C1070 H1082 0.956 . S
C1070 H1083 0.961 . S
C1070 H1084 0.961 . S
C1071 C1068 1.539 . S
C1071 H1085 0.958 . S
C1071 H1086 0.961 . S
C1071 H1087 0.960 . S
H1072 C1056 0.931 . S
H1073 C1061 0.929 . S
H1074 C1062 0.960 . S
H1075 C1062 0.962 . S
H1076 C1062 0.960 . S
H1077 C1063 0.961 . S
H1078 C1063 0.961 . S
H1079 C1063 0.961 . S
H1080 C1064 0.931 . S
H1081 C1069 0.930 . S
H1082 C1070 0.956 . S
H1083 C1070 0.961 . S
H1084 C1070 0.961 . S
H1085 C1071 0.958 . S
H1086 C1071 0.961 . S
H1087 C1071 0.960 . S
C1088 C1089 1.391 . S
C1088 C1090 1.394 . S
C1088 H1104 0.931 . S
C1089 C1088 1.391 . S
C1089 C1093 1.376 . S
C1090 C1088 1.394 . S
C1090 C1091 1.369 . S
C1090 C1094 1.531 . S
C1091 C1090 1.369 . S
C1091 C1092 1.410 1_655 S
C1091 C1099 1.503 1_655 S
C1092 C1091 1.410 1_455 S
C1092 C1093 1.392 1_455 S
C1092 C1095 1.511 . S
C1093 C1089 1.376 . S
C1093 C1092 1.392 1_655 S
C1093 H1105 0.929 . S
C1094 C1090 1.531 . S
C1094 H1106 0.960 . S
C1094 H1107 0.962 . S
C1094 H1108 0.960 . S
C1095 C1092 1.511 . S
C1095 H1109 0.961 . S
C1095 H1110 0.961 . S
C1095 H1111 0.961 . S
C1096 C1097 1.370 . S
C1096 C1098 1.363 . S
C1096 H1112 0.931 . S
C1097 C1096 1.370 . S
C1097 C1101 1.408 . S
C1098 C1096 1.363 . S
C1098 C1099 1.370 . S
C1098 C1102 1.524 . S
C1099 C1091 1.503 1_455 S
C1099 C1098 1.370 . S
C1099 C1100 1.403 . S
C1100 C1099 1.403 . S
C1100 C1101 1.404 . S
C1100 C1103 1.539 1_455 S
C1101 C1097 1.408 . S
C1101 C1100 1.404 . S
C1101 H1113 0.930 . S
C1102 C1098 1.524 . S
C1102 H1114 0.956 1_455 S
C1102 H1115 0.961 . S
C1102 H1116 0.961 . S
C1103 C1100 1.539 1_655 S
C1103 H1117 0.958 . S
C1103 H1118 0.961 1_655 S
C1103 H1119 0.960 . S
H1104 C1088 0.931 . S
H1105 C1093 0.929 . S
H1106 C1094 0.960 . S
H1107 C1094 0.962 . S
H1108 C1094 0.960 . S
H1109 C1095 0.961 . S
H1110 C1095 0.961 . S
H1111 C1095 0.961 . S
H1112 C1096 0.931 . S
H1113 C1101 0.930 . S
H1114 C1102 0.956 1_655 S
H1115 C1102 0.961 . S
H1116 C1102 0.961 . S
H1117 C1103 0.958 . S
H1118 C1103 0.961 1_455 S
H1119 C1103 0.960 . S
C1120 C1121 1.391 . S
C1120 C1122 1.394 . S
C1120 H1136 0.931 . S
C1121 C1120 1.391 . S
C1121 C1125 1.376 . S
C1122 C1120 1.394 . S
C1122 C1123 1.369 . S
C1122 C1126 1.531 . S
C1123 C1122 1.369 . S
C1123 C1124 1.410 . S
C1123 C1131 1.503 . S
C1124 C1123 1.410 . S
C1124 C1125 1.392 . S
C1124 C1127 1.511 . S
C1125 C1121 1.376 . S
C1125 C1124 1.392 . S
C1125 H1137 0.929 . S
C1126 C1122 1.531 . S
C1126 H1138 0.960 . S
C1126 H1139 0.962 . S
C1126 H1140 0.960 . S
C1127 C1124 1.511 . S
C1127 H1141 0.961 . S
C1127 H1142 0.961 . S
C1127 H1143 0.961 . S
C1128 C1129 1.370 . S
C1128 C1130 1.363 . S
C1128 H1144 0.931 . S
C1129 C1128 1.370 . S
C1129 C1133 1.408 . S
C1130 C1128 1.363 . S
C1130 C1131 1.370 . S
C1130 C1134 1.524 . S
C1131 C1123 1.503 . S
C1131 C1130 1.370 . S
C1131 C1132 1.403 . S
C1132 C1131 1.403 . S
C1132 C1133 1.404 . S
C1132 C1135 1.539 . S
C1133 C1129 1.408 . S
C1133 C1132 1.404 . S
C1133 H1145 0.930 . S
C1134 C1130 1.524 . S
C1134 H1146 0.956 . S
C1134 H1147 0.961 . S
C1134 H1148 0.961 . S
C1135 C1132 1.539 . S
C1135 H1149 0.958 . S
C1135 H1150 0.961 . S
C1135 H1151 0.960 . S
H1136 C1120 0.931 . S
H1137 C1125 0.929 . S
H1138 C1126 0.960 . S
H1139 C1126 0.962 . S
H1140 C1126 0.960 . S
H1141 C1127 0.961 . S
H1142 C1127 0.961 . S
H1143 C1127 0.961 . S
H1144 C1128 0.931 . S
H1145 C1133 0.930 . S
H1146 C1134 0.956 . S
H1147 C1134 0.961 . S
H1148 C1134 0.961 . S
H1149 C1135 0.958 . S
H1150 C1135 0.961 . S
H1151 C1135 0.960 . S
C1152 C1153 1.391 . S
C1152 C1154 1.394 . S
C1152 H1168 0.931 . S
C1153 C1152 1.391 . S
C1153 C1157 1.376 . S
C1154 C1152 1.394 . S
C1154 C1155 1.369 . S
C1154 C1158 1.531 . S
C1155 C1154 1.369 . S
C1155 C1156 1.410 . S
C1155 C1163 1.503 . S
C1156 C1155 1.410 . S
C1156 C1157 1.392 . S
C1156 C1159 1.511 . S
C1157 C1153 1.376 . S
C1157 C1156 1.392 . S
C1157 H1169 0.929 . S
C1158 C1154 1.531 . S
C1158 H1170 0.960 . S
C1158 H1171 0.962 . S
C1158 H1172 0.960 . S
C1159 C1156 1.511 . S
C1159 H1173 0.961 . S
C1159 H1174 0.961 . S
C1159 H1175 0.961 . S
C1160 C1161 1.370 . S
C1160 C1162 1.363 . S
C1160 H1176 0.931 . S
C1161 C1160 1.370 . S
C1161 C1165 1.408 . S
C1162 C1160 1.363 . S
C1162 C1163 1.370 . S
C1162 C1166 1.524 . S
C1163 C1155 1.503 . S
C1163 C1162 1.370 . S
C1163 C1164 1.403 . S
C1164 C1163 1.403 . S
C1164 C1165 1.404 . S
C1164 C1167 1.539 . S
C1165 C1161 1.408 . S
C1165 C1164 1.404 . S
C1165 H1177 0.930 . S
C1166 C1162 1.524 . S
C1166 H1178 0.956 . S
C1166 H1179 0.961 . S
C1166 H1180 0.961 . S
C1167 C1164 1.539 . S
C1167 H1181 0.958 . S
C1167 H1182 0.961 . S
C1167 H1183 0.960 . S
H1168 C1152 0.931 . S
H1169 C1157 0.929 . S
H1170 C1158 0.960 . S
H1171 C1158 0.962 . S
H1172 C1158 0.960 . S
H1173 C1159 0.961 . S
H1174 C1159 0.961 . S
H1175 C1159 0.961 . S
H1176 C1160 0.931 . S
H1177 C1165 0.930 . S
H1178 C1166 0.956 . S
H1179 C1166 0.961 . S
H1180 C1166 0.961 . S
H1181 C1167 0.958 . S
H1182 C1167 0.961 . S
H1183 C1167 0.960 . S
C1184 C1185 1.391 . S
C1184 C1186 1.394 . S
C1184 H1200 0.931 . S
C1185 C1184 1.391 . S
C1185 C1189 1.376 . S
C1186 C1184 1.394 . S
C1186 C1187 1.369 . S
C1186 C1190 1.531 1_455 S
C1187 C1186 1.369 . S
C1187 C1188 1.410 . S
C1187 C1195 1.503 1_455 S
C1188 C1187 1.410 . S
C1188 C1189 1.392 . S
C1188 C1191 1.511 . S
C1189 C1185 1.376 . S
C1189 C1188 1.392 . S
C1189 H1201 0.929 . S
C1190 C1186 1.531 1_655 S
C1190 H1202 0.960 . S
C1190 H1203 0.962 . S
C1190 H1204 0.960 1_655 S
C1191 C1188 1.511 . S
C1191 H1205 0.961 . S
C1191 H1206 0.961 . S
C1191 H1207 0.961 . S
C1192 C1193 1.370 . S
C1192 C1194 1.363 . S
C1192 H1208 0.931 . S
C1193 C1192 1.370 . S
C1193 C1197 1.408 . S
C1194 C1192 1.363 . S
C1194 C1195 1.370 . S
C1194 C1198 1.524 . S
C1195 C1187 1.503 1_655 S
C1195 C1194 1.370 . S
C1195 C1196 1.403 . S
C1196 C1195 1.403 . S
C1196 C1197 1.404 . S
C1196 C1199 1.539 1_655 S
C1197 C1193 1.408 . S
C1197 C1196 1.404 . S
C1197 H1209 0.930 . S
C1198 C1194 1.524 . S
C1198 H1210 0.956 . S
C1198 H1211 0.961 . S
C1198 H1212 0.961 . S
C1199 C1196 1.539 1_455 S
C1199 H1213 0.958 . S
C1199 H1214 0.961 . S
C1199 H1215 0.960 . S
H1200 C1184 0.931 . S
H1201 C1189 0.929 . S
H1202 C1190 0.960 . S
H1203 C1190 0.962 . S
H1204 C1190 0.960 1_455 S
H1205 C1191 0.961 . S
H1206 C1191 0.961 . S
H1207 C1191 0.961 . S
H1208 C1192 0.931 . S
H1209 C1197 0.930 . S
H1210 C1198 0.956 . S
H1211 C1198 0.961 . S
H1212 C1198 0.961 . S
H1213 C1199 0.958 . S
H1214 C1199 0.961 . S
H1215 C1199 0.960 . S
C1216 C1217 1.391 . S
C1216 C1218 1.394 1_655 S
C1216 H1232 0.934 . S
C1217 C1216 1.391 . S
C1217 C1221 1.376 . S
C1218 C1216 1.394 1_455 S
C1218 C1219 1.369 1_455 S
C1218 C1222 1.531 . S
C1219 C1218 1.369 1_655 S
C1219 C1220 1.410 . S
C1219 C1227 1.503 1_655 S
C1220 C1219 1.410 . S
C1220 C1221 1.392 . S
C1220 C1223 1.511 . S
C1221 C1217 1.376 . S
C1221 C1220 1.392 . S
C1221 H1233 0.929 . S
C1222 C1218 1.531 . S
C1222 H1234 0.960 . S
C1222 H1235 0.962 . S
C1222 H1236 0.960 . S
C1223 C1220 1.511 . S
C1223 H1237 0.961 . S
C1223 H1238 0.961 . S
C1223 H1239 0.961 . S
C1224 C1225 1.370 . S
C1224 C1226 1.363 . S
C1224 H1240 0.931 . S
C1225 C1224 1.370 . S
C1225 C1229 1.408 . S
C1226 C1224 1.363 . S
C1226 C1227 1.370 . S
C1226 C1230 1.524 . S
C1227 C1219 1.503 1_455 S
C1227 C1226 1.370 . S
C1227 C1228 1.403 . S
C1228 C1227 1.403 . S
C1228 C1229 1.404 . S
C1228 C1231 1.529 1_455 S
C1229 C1225 1.408 . S
C1229 C1228 1.404 . S
C1229 H1241 0.930 . S
C1230 C1226 1.524 . S
C1230 H1242 0.956 . S
C1230 H1243 0.961 1_455 S
C1230 H1244 0.961 . S
C1231 C1228 1.529 1_655 S
C1231 H1245 0.941 1_655 S
C1231 H1246 0.968 . S
C1231 H1247 0.982 . S
H1232 C1216 0.934 . S
H1233 C1221 0.929 . S
H1234 C1222 0.960 . S
H1235 C1222 0.962 . S
H1236 C1222 0.960 . S
H1237 C1223 0.961 . S
H1238 C1223 0.961 . S
H1239 C1223 0.961 . S
H1240 C1224 0.931 . S
H1241 C1229 0.930 . S
H1242 C1230 0.956 . S
H1243 C1230 0.961 1_655 S
H1244 C1230 0.961 . S
H1245 C1231 0.941 1_455 S
H1246 C1231 0.968 . S
H1247 C1231 0.982 . S
C1248 C1249 1.391 . S
C1248 C1250 1.394 . S
C1248 H1264 0.931 . S
C1249 C1248 1.391 . S
C1249 C1253 1.376 . S
C1250 C1248 1.394 . S
C1250 C1251 1.369 . S
C1250 C1254 1.531 . S
C1251 C1250 1.369 . S
C1251 C1252 1.410 . S
C1251 C1259 1.503 1_655 S
C1252 C1251 1.410 . S
C1252 C1253 1.392 . S
C1252 C1255 1.511 . S
C1253 C1249 1.376 . S
C1253 C1252 1.392 . S
C1253 H1265 0.929 . S
C1254 C1250 1.531 . S
C1254 H1266 0.960 . S
C1254 H1267 0.962 . S
C1254 H1268 0.960 . S
C1255 C1252 1.511 . S
C1255 H1269 0.961 . S
C1255 H1270 0.961 1_655 S
C1255 H1271 0.961 . S
C1256 C1257 1.370 . S
C1256 C1258 1.363 . S
C1256 H1272 0.931 . S
C1257 C1256 1.370 . S
C1257 C1261 1.408 . S
C1258 C1256 1.363 . S
C1258 C1259 1.370 . S
C1258 C1262 1.524 . S
C1259 C1251 1.503 1_455 S
C1259 C1258 1.370 . S
C1259 C1260 1.403 . S
C1260 C1259 1.403 . S
C1260 C1261 1.404 . S
C1260 C1263 1.539 1_455 S
C1261 C1257 1.408 . S
C1261 C1260 1.404 . S
C1261 H1273 0.930 . S
C1262 C1258 1.524 . S
C1262 H1274 0.956 . S
C1262 H1275 0.961 . S
C1262 H1276 0.961 . S
C1263 C1260 1.539 1_655 S
C1263 H1277 0.958 . S
C1263 H1278 0.961 . S
C1263 H1279 0.960 . S
H1264 C1248 0.931 . S
H1265 C1253 0.929 . S
H1266 C1254 0.960 . S
H1267 C1254 0.962 . S
H1268 C1254 0.960 . S
H1269 C1255 0.961 . S
H1270 C1255 0.961 1_455 S
H1271 C1255 0.961 . S
H1272 C1256 0.931 . S
H1273 C1261 0.930 . S
H1274 C1262 0.956 . S
H1275 C1262 0.961 . S
H1276 C1262 0.961 . S
H1277 C1263 0.958 . S
H1278 C1263 0.961 . S
H1279 C1263 0.960 . S
C1280 C1281 1.391 . S
C1280 C1282 1.394 . S
C1280 H1296 0.931 . S
C1281 C1280 1.391 . S
C1281 C1285 1.376 . S
C1282 C1280 1.394 . S
C1282 C1283 1.369 . S
C1282 C1286 1.531 . S
C1283 C1282 1.369 . S
C1283 C1284 1.410 . S
C1283 C1291 1.503 . S
C1284 C1283 1.410 . S
C1284 C1285 1.392 . S
C1284 C1287 1.511 . S
C1285 C1281 1.376 . S
C1285 C1284 1.392 . S
C1285 H1297 0.929 . S
C1286 C1282 1.531 . S
C1286 H1298 0.960 . S
C1286 H1299 0.962 . S
C1286 H1300 0.960 . S
C1287 C1284 1.511 . S
C1287 H1301 0.961 . S
C1287 H1302 0.961 . S
C1287 H1303 0.961 . S
C1288 C1289 1.370 . S
C1288 C1290 1.363 . S
C1288 H1304 0.931 . S
C1289 C1288 1.370 . S
C1289 C1293 1.408 . S
C1290 C1288 1.363 . S
C1290 C1291 1.370 . S
C1290 C1294 1.524 . S
C1291 C1283 1.503 . S
C1291 C1290 1.370 . S
C1291 C1292 1.403 . S
C1292 C1291 1.403 . S
C1292 C1293 1.404 . S
C1292 C1295 1.539 . S
C1293 C1289 1.408 . S
C1293 C1292 1.404 . S
C1293 H1305 0.930 . S
C1294 C1290 1.524 . S
C1294 H1306 0.956 . S
C1294 H1307 0.961 . S
C1294 H1308 0.961 . S
C1295 C1292 1.539 . S
C1295 H1309 0.958 . S
C1295 H1310 0.961 . S
C1295 H1311 0.960 . S
H1296 C1280 0.931 . S
H1297 C1285 0.929 . S
H1298 C1286 0.960 . S
H1299 C1286 0.962 . S
H1300 C1286 0.960 . S
H1301 C1287 0.961 . S
H1302 C1287 0.961 . S
H1303 C1287 0.961 . S
H1304 C1288 0.931 . S
H1305 C1293 0.930 . S
H1306 C1294 0.956 . S
H1307 C1294 0.961 . S
H1308 C1294 0.961 . S
H1309 C1295 0.958 . S
H1310 C1295 0.961 . S
H1311 C1295 0.960 . S
C1312 C1313 1.391 . S
C1312 C1314 1.394 . S
C1312 H1328 0.931 . S
C1313 C1312 1.391 . S
C1313 C1317 1.376 . S
C1314 C1312 1.394 . S
C1314 C1315 1.369 . S
C1314 C1318 1.531 . S
C1315 C1314 1.369 . S
C1315 C1316 1.410 . S
C1315 C1323 1.503 . S
C1316 C1315 1.410 . S
C1316 C1317 1.392 . S
C1316 C1319 1.511 . S
C1317 C1313 1.376 . S
C1317 C1316 1.392 . S
C1317 H1329 0.929 . S
C1318 C1314 1.531 . S
C1318 H1330 0.960 . S
C1318 H1331 0.962 . S
C1318 H1332 0.960 . S
C1319 C1316 1.511 . S
C1319 H1333 0.961 . S
C1319 H1334 0.961 . S
C1319 H1335 0.961 . S
C1320 C1321 1.370 . S
C1320 C1322 1.363 . S
C1320 H1336 0.931 . S
C1321 C1320 1.370 . S
C1321 C1325 1.408 . S
C1322 C1320 1.363 . S
C1322 C1323 1.370 . S
C1322 C1326 1.524 . S
C1323 C1315 1.503 . S
C1323 C1322 1.370 . S
C1323 C1324 1.403 . S
C1324 C1323 1.403 . S
C1324 C1325 1.404 . S
C1324 C1327 1.539 . S
C1325 C1321 1.408 . S
C1325 C1324 1.404 . S
C1325 H1337 0.930 . S
C1326 C1322 1.524 . S
C1326 H1338 0.956 . S
C1326 H1339 0.961 . S
C1326 H1340 0.961 . S
C1327 C1324 1.539 . S
C1327 H1341 0.958 . S
C1327 H1342 0.961 . S
C1327 H1343 0.960 . S
H1328 C1312 0.931 . S
H1329 C1317 0.929 . S
H1330 C1318 0.960 . S
H1331 C1318 0.962 . S
H1332 C1318 0.960 . S
H1333 C1319 0.961 . S
H1334 C1319 0.961 . S
H1335 C1319 0.961 . S
H1336 C1320 0.931 . S
H1337 C1325 0.930 . S
H1338 C1326 0.956 . S
H1339 C1326 0.961 . S
H1340 C1326 0.961 . S
H1341 C1327 0.958 . S
H1342 C1327 0.961 . S
H1343 C1327 0.960 . S
C1344 C1345 1.391 . S
C1344 C1346 1.394 . S
C1344 H1360 0.931 . S
C1345 C1344 1.391 . S
C1345 C1349 1.376 . S
C1346 C1344 1.394 . S
C1346 C1347 1.369 . S
C1346 C1350 1.531 1_655 S
C1347 C1346 1.369 . S
C1347 C1348 1.410 . S
C1347 C1355 1.503 1_655 S
C1348 C1347 1.410 . S
C1348 C1349 1.392 . S
C1348 C1351 1.511 . S
C1349 C1345 1.376 . S
C1349 C1348 1.392 . S
C1349 H1361 0.929 . S
C1350 C1346 1.531 1_455 S
C1350 H1362 0.960 . S
C1350 H1363 0.962 . S
C1350 H1364 0.965 . S
C1351 C1348 1.511 . S
C1351 H1365 0.961 . S
C1351 H1366 0.961 . S
C1351 H1367 0.961 . S
C1352 C1353 1.370 . S
C1352 C1354 1.363 . S
C1352 H1368 0.931 . S
C1353 C1352 1.370 . S
C1353 C1357 1.408 . S
C1354 C1352 1.363 . S
C1354 C1355 1.370 . S
C1354 C1358 1.524 . S
C1355 C1347 1.503 1_455 S
C1355 C1354 1.370 . S
C1355 C1356 1.403 1_455 S
C1356 C1355 1.403 1_655 S
C1356 C1357 1.404 1_655 S
C1356 C1359 1.539 . S
C1357 C1353 1.408 . S
C1357 C1356 1.404 1_455 S
C1357 H1369 0.930 . S
C1358 C1354 1.524 . S
C1358 H1370 0.956 . S
C1358 H1371 0.961 . S
C1358 H1372 0.961 . S
C1359 C1356 1.539 . S
C1359 H1373 0.958 . S
C1359 H1374 0.961 . S
C1359 H1375 0.960 . S
H1360 C1344 0.931 . S
H1361 C1349 0.929 . S
H1362 C1350 0.960 . S
H1363 C1350 0.962 . S
H1364 C1350 0.965 . S
H1365 C1351 0.961 . S
H1366 C1351 0.961 . S
H1367 C1351 0.961 . S
H1368 C1352 0.931 . S
H1369 C1357 0.930 . S
H1370 C1358 0.956 . S
H1371 C1358 0.961 . S
H1372 C1358 0.961 . S
H1373 C1359 0.958 . S
H1374 C1359 0.961 . S
H1375 C1359 0.960 . S
C1376 C1377 1.391 . S
C1376 C1378 1.394 . S
C1376 H1392 0.931 . S
C1377 C1376 1.391 . S
C1377 C1381 1.376 . S
C1378 C1376 1.394 . S
C1378 C1379 1.369 . S
C1378 C1382 1.531 . S
C1379 C1378 1.369 . S
C1379 C1380 1.410 . S
C1379 C1387 1.503 . S
C1380 C1379 1.410 . S
C1380 C1381 1.392 . S
C1380 C1383 1.511 . S
C1381 C1377 1.376 . S
C1381 C1380 1.392 . S
C1381 H1393 0.929 . S
C1382 C1378 1.531 . S
C1382 H1394 0.960 . S
C1382 H1395 0.962 . S
C1382 H1396 0.960 . S
C1383 C1380 1.511 . S
C1383 H1397 0.961 . S
C1383 H1398 0.961 . S
C1383 H1399 0.961 . S
C1384 C1385 1.370 . S
C1384 C1386 1.363 . S
C1384 H1400 0.931 . S
C1385 C1384 1.370 . S
C1385 C1389 1.408 . S
C1386 C1384 1.363 . S
C1386 C1387 1.370 . S
C1386 C1390 1.524 . S
C1387 C1379 1.503 . S
C1387 C1386 1.370 . S
C1387 C1388 1.403 . S
C1388 C1387 1.403 . S
C1388 C1389 1.404 . S
C1388 C1391 1.539 . S
C1389 C1385 1.408 . S
C1389 C1388 1.404 . S
C1389 H1401 0.930 . S
C1390 C1386 1.524 . S
C1390 H1402 0.956 . S
C1390 H1403 0.961 . S
C1390 H1404 0.961 . S
C1391 C1388 1.539 . S
C1391 H1405 0.958 . S
C1391 H1406 0.961 . S
C1391 H1407 0.960 . S
H1392 C1376 0.931 . S
H1393 C1381 0.929 . S
H1394 C1382 0.960 . S
H1395 C1382 0.962 . S
H1396 C1382 0.960 . S
H1397 C1383 0.961 . S
H1398 C1383 0.961 . S
H1399 C1383 0.961 . S
H1400 C1384 0.931 . S
H1401 C1389 0.930 . S
H1402 C1390 0.956 . S
H1403 C1390 0.961 . S
H1404 C1390 0.961 . S
H1405 C1391 0.958 . S
H1406 C1391 0.961 . S
H1407 C1391 0.960 . S
C1408 C1409 1.391 . S
C1408 C1410 1.394 . S
C1408 H1424 0.931 . S
C1409 C1408 1.391 . S
C1409 C1413 1.376 . S
C1410 C1408 1.394 . S
C1410 C1411 1.369 . S
C1410 C1414 1.531 . S
C1411 C1410 1.369 . S
C1411 C1412 1.410 . S
C1411 C1419 1.503 . S
C1412 C1411 1.410 . S
C1412 C1413 1.392 . S
C1412 C1415 1.511 . S
C1413 C1409 1.376 . S
C1413 C1412 1.392 . S
C1413 H1425 0.929 . S
C1414 C1410 1.531 . S
C1414 H1426 0.960 . S
C1414 H1427 0.962 . S
C1414 H1428 0.960 . S
C1415 C1412 1.511 . S
C1415 H1429 0.961 . S
C1415 H1430 0.961 . S
C1415 H1431 0.961 . S
C1416 C1417 1.370 . S
C1416 C1418 1.363 . S
C1416 H1432 0.931 . S
C1417 C1416 1.370 . S
C1417 C1421 1.408 . S
C1418 C1416 1.363 . S
C1418 C1419 1.370 . S
C1418 C1422 1.524 . S
C1419 C1411 1.503 . S
C1419 C1418 1.370 . S
C1419 C1420 1.403 . S
C1420 C1419 1.403 . S
C1420 C1421 1.404 . S
C1420 C1423 1.539 . S
C1421 C1417 1.408 . S
C1421 C1420 1.404 . S
C1421 H1433 0.930 . S
C1422 C1418 1.524 . S
C1422 H1434 0.956 . S
C1422 H1435 0.961 . S
C1422 H1436 0.961 . S
C1423 C1420 1.539 . S
C1423 H1437 0.958 . S
C1423 H1438 0.961 . S
C1423 H1439 0.960 . S
H1424 C1408 0.931 . S
H1425 C1413 0.929 . S
H1426 C1414 0.960 . S
H1427 C1414 0.962 . S
H1428 C1414 0.960 . S
H1429 C1415 0.961 . S
H1430 C1415 0.961 . S
H1431 C1415 0.961 . S
H1432 C1416 0.931 . S
H1433 C1421 0.930 . S
H1434 C1422 0.956 . S
H1435 C1422 0.961 . S
H1436 C1422 0.961 . S
H1437 C1423 0.958 . S
H1438 C1423 0.961 . S
H1439 C1423 0.960 . S
C1440 C1441 1.391 . S
C1440 C1442 1.394 . S
C1440 H1456 0.931 . S
C1441 C1440 1.391 . S
C1441 C1445 1.376 . S
C1442 C1440 1.394 . S
C1442 C1443 1.369 . S
C1442 C1446 1.531 . S
C1443 C1442 1.369 . S
C1443 C1444 1.410 . S
C1443 C1451 1.503 1_655 S
C1444 C1443 1.410 . S
C1444 C1445 1.392 . S
C1444 C1447 1.511 1_655 S
C1445 C1441 1.376 . S
C1445 C1444 1.392 . S
C1445 H1457 0.929 . S
C1446 C1442 1.531 . S
C1446 H1458 0.960 . S
C1446 H1459 0.962 . S
C1446 H1460 0.960 . S
C1447 C1444 1.511 1_455 S
C1447 H1461 0.961 . S
C1447 H1462 0.961 . S
C1447 H1463 0.961 . S
C1448 C1449 1.370 . S
C1448 C1450 1.363 . S
C1448 H1464 0.931 . S
C1449 C1448 1.370 . S
C1449 C1453 1.408 . S
C1450 C1448 1.363 . S
C1450 C1451 1.370 . S
C1450 C1454 1.537 . S
C1451 C1443 1.503 1_455 S
C1451 C1450 1.370 . S
C1451 C1452 1.403 . S
C1452 C1451 1.403 . S
C1452 C1453 1.404 . S
C1452 C1455 1.539 . S
C1453 C1449 1.408 . S
C1453 C1452 1.404 . S
C1453 H1465 0.930 . S
C1454 C1450 1.537 . S
C1454 H1466 0.938 1_455 S
C1454 H1467 0.957 1_455 S
C1454 H1468 0.970 . S
C1455 C1452 1.539 . S
C1455 H1469 0.958 . S
C1455 H1470 0.961 . S
C1455 H1471 0.960 . S
H1456 C1440 0.931 . S
H1457 C1445 0.929 . S
H1458 C1446 0.960 . S
H1459 C1446 0.962 . S
H1460 C1446 0.960 . S
H1461 C1447 0.961 . S
H1462 C1447 0.961 . S
H1463 C1447 0.961 . S
H1464 C1448 0.931 . S
H1465 C1453 0.930 . S
H1466 C1454 0.938 1_655 S
H1467 C1454 0.957 1_655 S
H1468 C1454 0.970 . S
H1469 C1455 0.958 . S
H1470 C1455 0.961 . S
H1471 C1455 0.960 . S
C1472 C1473 1.391 . S
C1472 C1474 1.394 . S
C1472 H1488 0.931 . S
C1473 C1472 1.391 . S
C1473 C1477 1.376 . S
C1474 C1472 1.394 . S
C1474 C1475 1.369 . S
C1474 C1478 1.531 . S
C1475 C1474 1.369 . S
C1475 C1476 1.410 1_556 S
C1475 C1483 1.503 1_556 S
C1476 C1475 1.410 1_554 S
C1476 C1477 1.392 1_554 S
C1476 C1479 1.511 . S
C1477 C1473 1.376 . S
C1477 C1476 1.392 1_556 S
C1477 H1489 0.900 1_556 S
C1478 C1474 1.531 . S
C1478 H1490 0.960 . S
C1478 H1491 0.962 . S
C1478 H1492 0.960 . S
C1479 C1476 1.511 . S
C1479 H1493 0.961 . S
C1479 H1494 0.961 . S
C1479 H1495 0.961 . S
C1480 C1481 1.370 . S
C1480 C1482 1.363 . S
C1480 H1496 0.931 . S
C1481 C1480 1.370 . S
C1481 C1485 1.408 . S
C1482 C1480 1.363 . S
C1482 C1483 1.370 . S
C1482 C1486 1.524 . S
C1483 C1475 1.503 1_554 S
C1483 C1482 1.370 . S
C1483 C1484 1.403 . S
C1484 C1483 1.403 . S
C1484 C1485 1.404 . S
C1484 C1487 1.539 1_554 S
C1485 C1481 1.408 . S
C1485 C1484 1.404 . S
C1485 H1497 0.930 . S
C1486 C1482 1.524 . S
C1486 H1498 0.920 1_554 S
C1486 H1499 0.961 . S
C1486 H1500 0.961 . S
C1487 C1484 1.539 1_556 S
C1487 H1501 0.958 . S
C1487 H1502 0.961 1_556 S
C1487 H1503 0.960 . S
H1488 C1472 0.931 . S
H1489 C1477 0.900 1_554 S
H1490 C1478 0.960 . S
H1491 C1478 0.962 . S
H1492 C1478 0.960 . S
H1493 C1479 0.961 . S
H1494 C1479 0.961 . S
H1495 C1479 0.961 . S
H1496 C1480 0.931 . S
H1497 C1485 0.930 . S
H1498 C1486 0.920 1_556 S
H1499 C1486 0.961 . S
H1500 C1486 0.961 . S
H1501 C1487 0.958 . S
H1502 C1487 0.961 1_554 S
H1503 C1487 0.960 . S
C1504 C1505 1.391 . S
C1504 C1506 1.394 . S
C1504 H1520 0.931 . S
C1505 C1504 1.391 . S
C1505 C1509 1.376 . S
C1506 C1504 1.394 . S
C1506 C1507 1.369 . S
C1506 C1510 1.531 . S
C1507 C1506 1.369 . S
C1507 C1508 1.410 . S
C1507 C1515 1.503 1_545 S
C1508 C1507 1.410 . S
C1508 C1509 1.392 . S
C1508 C1511 1.511 . S
C1509 C1505 1.376 . S
C1509 C1508 1.392 . S
C1509 H1521 0.929 . S
C1510 C1506 1.531 . S
C1510 H1522 0.960 1_545 S
C1510 H1523 0.962 . S
C1510 H1524 0.960 . S
C1511 C1508 1.511 . S
C1511 H1525 0.961 . S
C1511 H1526 0.961 . S
C1511 H1527 0.961 . S
C1512 C1513 1.370 . S
C1512 C1514 1.363 . S
C1512 H1528 0.931 . S
C1513 C1512 1.370 . S
C1513 C1517 1.408 . S
C1514 C1512 1.363 . S
C1514 C1515 1.370 . S
C1514 C1518 1.524 1_565 S
C1515 C1507 1.503 1_565 S
C1515 C1514 1.370 . S
C1515 C1516 1.403 . S
C1516 C1515 1.403 . S
C1516 C1517 1.404 . S
C1516 C1519 1.539 . S
C1517 C1513 1.408 . S
C1517 C1516 1.404 . S
C1517 H1529 0.930 . S
C1518 C1514 1.524 1_545 S
C1518 H1530 0.956 . S
C1518 H1531 0.961 . S
C1518 H1532 0.961 . S
C1519 C1516 1.539 . S
C1519 H1533 0.958 . S
C1519 H1534 0.961 . S
C1519 H1535 0.960 . S
H1520 C1504 0.931 . S
H1521 C1509 0.929 . S
H1522 C1510 0.960 1_565 S
H1523 C1510 0.962 . S
H1524 C1510 0.960 . S
H1525 C1511 0.961 . S
H1526 C1511 0.961 . S
H1527 C1511 0.961 . S
H1528 C1512 0.931 . S
H1529 C1517 0.930 . S
H1530 C1518 0.956 . S
H1531 C1518 0.961 . S
H1532 C1518 0.961 . S
H1533 C1519 0.958 . S
H1534 C1519 0.961 . S
H1535 C1519 0.960 . S
C1536 C1537 1.391 . S
C1536 C1538 1.394 . S
C1536 H1552 0.931 . S
C1537 C1536 1.391 . S
C1537 C1541 1.376 . S
C1538 C1536 1.394 . S
C1538 C1539 1.369 . S
C1538 C1542 1.531 . S
C1539 C1538 1.369 . S
C1539 C1540 1.410 . S
C1539 C1547 1.503 . S
C1540 C1539 1.410 . S
C1540 C1541 1.392 . S
C1540 C1543 1.511 . S
C1541 C1537 1.376 . S
C1541 C1540 1.392 . S
C1541 H1553 0.929 . S
C1542 C1538 1.531 . S
C1542 H1554 0.960 . S
C1542 H1555 0.962 . S
C1542 H1556 0.960 . S
C1543 C1540 1.511 . S
C1543 H1557 0.961 . S
C1543 H1558 0.961 . S
C1543 H1559 0.961 . S
C1544 C1545 1.370 . S
C1544 C1546 1.363 . S
C1544 H1560 0.931 . S
C1545 C1544 1.370 . S
C1545 C1549 1.408 . S
C1546 C1544 1.363 . S
C1546 C1547 1.370 . S
C1546 C1550 1.524 . S
C1547 C1539 1.503 . S
C1547 C1546 1.370 . S
C1547 C1548 1.403 . S
C1548 C1547 1.403 . S
C1548 C1549 1.404 . S
C1548 C1551 1.539 . S
C1549 C1545 1.408 . S
C1549 C1548 1.404 . S
C1549 H1561 0.930 . S
C1550 C1546 1.524 . S
C1550 H1562 0.956 . S
C1550 H1563 0.961 . S
C1550 H1564 0.961 . S
C1551 C1548 1.539 . S
C1551 H1565 0.958 . S
C1551 H1566 0.961 . S
C1551 H1567 0.960 . S
H1552 C1536 0.931 . S
H1553 C1541 0.929 . S
H1554 C1542 0.960 . S
H1555 C1542 0.962 . S
H1556 C1542 0.960 . S
H1557 C1543 0.961 . S
H1558 C1543 0.961 . S
H1559 C1543 0.961 . S
H1560 C1544 0.931 . S
H1561 C1549 0.930 . S
H1562 C1550 0.956 . S
H1563 C1550 0.961 . S
H1564 C1550 0.961 . S
H1565 C1551 0.958 . S
H1566 C1551 0.961 . S
H1567 C1551 0.960 . S
C1568 C1569 1.391 . S
C1568 C1570 1.394 . S
C1568 H1584 0.931 . S
C1569 C1568 1.391 . S
C1569 C1573 1.376 . S
C1570 C1568 1.394 . S
C1570 C1571 1.369 . S
C1570 C1574 1.531 . S
C1571 C1570 1.369 . S
C1571 C1572 1.410 . S
C1571 C1579 1.503 1_545 S
C1572 C1571 1.410 . S
C1572 C1573 1.392 . S
C1572 C1575 1.511 1_545 S
C1573 C1569 1.376 . S
C1573 C1572 1.392 . S
C1573 H1585 0.929 . S
C1574 C1570 1.531 . S
C1574 H1586 0.960 . S
C1574 H1587 0.962 . S
C1574 H1588 0.960 . S
C1575 C1572 1.511 1_565 S
C1575 H1589 0.961 . S
C1575 H1590 0.961 . S
C1575 H1591 0.961 . S
C1576 C1577 1.370 . S
C1576 C1578 1.363 . S
C1576 H1592 0.931 . S
C1577 C1576 1.370 . S
C1577 C1581 1.408 . S
C1578 C1576 1.363 . S
C1578 C1579 1.370 . S
C1578 C1582 1.524 . S
C1579 C1571 1.503 1_565 S
C1579 C1578 1.370 . S
C1579 C1580 1.403 . S
C1580 C1579 1.403 . S
C1580 C1581 1.404 . S
C1580 C1583 1.539 . S
C1581 C1577 1.408 . S
C1581 C1580 1.404 . S
C1581 H1593 0.930 . S
C1582 C1578 1.524 . S
C1582 H1594 0.956 . S
C1582 H1595 0.961 . S
C1582 H1596 0.961 . S
C1583 C1580 1.539 . S
C1583 H1597 0.958 1_565 S
C1583 H1598 0.961 . S
C1583 H1599 0.960 1_565 S
H1584 C1568 0.931 . S
H1585 C1573 0.929 . S
H1586 C1574 0.960 . S
H1587 C1574 0.962 . S
H1588 C1574 0.960 . S
H1589 C1575 0.961 . S
H1590 C1575 0.961 . S
H1591 C1575 0.961 . S
H1592 C1576 0.931 . S
H1593 C1581 0.930 . S
H1594 C1582 0.956 . S
H1595 C1582 0.961 . S
H1596 C1582 0.961 . S
H1597 C1583 0.958 1_545 S
H1598 C1583 0.961 . S
H1599 C1583 0.960 1_545 S
C1600 C1601 1.391 . S
C1600 C1602 1.394 . S
C1600 H1616 0.931 . S
C1601 C1600 1.391 . S
C1601 C1605 1.376 . S
C1602 C1600 1.394 . S
C1602 C1603 1.395 . S
C1602 C1606 1.531 . S
C1603 C1602 1.395 . S
C1603 C1604 1.424 . S
C1603 C1611 1.474 1_554 S
C1604 C1603 1.424 . S
C1604 C1605 1.392 . S
C1604 C1607 1.511 1_554 S
C1605 C1601 1.376 . S
C1605 C1604 1.392 . S
C1605 H1617 0.929 . S
C1606 C1602 1.531 . S
C1606 H1618 0.960 1_554 S
C1606 H1619 0.962 . S
C1606 H1620 0.960 . S
C1607 C1604 1.511 1_556 S
C1607 H1621 0.961 1_556 S
C1607 H1622 0.961 . S
C1607 H1623 0.961 . S
C1608 C1609 1.370 . S
C1608 C1610 1.363 1_556 S
C1608 H1624 0.931 1_556 S
C1609 C1608 1.370 . S
C1609 C1613 1.408 . S
C1610 C1608 1.363 1_554 S
C1610 C1611 1.370 1_554 S
C1610 C1614 1.524 . S
C1611 C1603 1.474 1_556 S
C1611 C1610 1.370 1_556 S
C1611 C1612 1.403 . S
C1612 C1611 1.403 . S
C1612 C1613 1.404 . S
C1612 C1615 1.539 . S
C1613 C1609 1.408 . S
C1613 C1612 1.404 . S
C1613 H1625 0.930 . S
C1614 C1610 1.524 . S
C1614 H1626 0.956 . S
C1614 H1627 0.961 . S
C1614 H1628 0.961 . S
C1615 C1612 1.539 . S
C1615 H1629 0.958 . S
C1615 H1630 0.961 . S
C1615 H1631 0.960 . S
H1616 C1600 0.931 . S
H1617 C1605 0.929 . S
H1618 C1606 0.960 1_556 S
H1619 C1606 0.962 . S
H1620 C1606 0.960 . S
H1621 C1607 0.961 1_554 S
H1622 C1607 0.961 . S
H1623 C1607 0.961 . S
H1624 C1608 0.931 1_554 S
H1625 C1613 0.930 . S
H1626 C1614 0.956 . S
H1627 C1614 0.961 . S
H1628 C1614 0.961 . S
H1629 C1615 0.958 . S
H1630 C1615 0.961 . S
H1631 C1615 0.960 . S
C1632 C1633 1.391 . S
C1632 C1634 1.394 . S
C1632 H1648 0.931 . S
C1633 C1632 1.391 . S
C1633 C1637 1.376 . S
C1634 C1632 1.394 . S
C1634 C1635 1.369 . S
C1634 C1638 1.531 . S
C1635 C1634 1.369 . S
C1635 C1636 1.410 . S
C1635 C1643 1.503 1_565 S
C1636 C1635 1.410 . S
C1636 C1637 1.392 . S
C1636 C1639 1.511 . S
C1637 C1633 1.376 . S
C1637 C1636 1.392 . S
C1637 H1649 0.929 . S
C1638 C1634 1.531 . S
C1638 H1650 0.960 1_565 S
C1638 H1651 0.962 . S
C1638 H1652 0.960 . S
C1639 C1636 1.511 . S
C1639 H1653 0.961 . S
C1639 H1654 0.961 1_565 S
C1639 H1655 0.961 1_565 S
C1640 C1641 1.370 . S
C1640 C1642 1.363 . S
C1640 H1656 0.931 . S
C1641 C1640 1.370 . S
C1641 C1645 1.408 . S
C1642 C1640 1.363 . S
C1642 C1643 1.370 . S
C1642 C1646 1.524 1_545 S
C1643 C1635 1.503 1_545 S
C1643 C1642 1.370 . S
C1643 C1644 1.403 . S
C1644 C1643 1.403 . S
C1644 C1645 1.404 . S
C1644 C1647 1.539 . S
C1645 C1641 1.408 . S
C1645 C1644 1.404 . S
C1645 H1657 0.930 . S
C1646 C1642 1.524 1_565 S
C1646 H1658 0.956 . S
C1646 H1659 0.961 . S
C1646 H1660 0.961 . S
C1647 C1644 1.539 . S
C1647 H1661 0.958 . S
C1647 H1662 0.961 . S
C1647 H1663 0.960 . S
H1648 C1632 0.931 . S
H1649 C1637 0.929 . S
H1650 C1638 0.960 1_545 S
H1651 C1638 0.962 . S
H1652 C1638 0.960 . S
H1653 C1639 0.961 . S
H1654 C1639 0.961 1_545 S
H1655 C1639 0.961 1_545 S
H1656 C1640 0.931 . S
H1657 C1645 0.930 . S
H1658 C1646 0.956 . S
H1659 C1646 0.961 . S
H1660 C1646 0.961 . S
H1661 C1647 0.958 . S
H1662 C1647 0.961 . S
H1663 C1647 0.960 . S
C1664 C1665 1.391 . S
C1664 C1666 1.394 . S
C1664 H1680 0.931 . S
C1665 C1664 1.391 . S
C1665 C1669 1.376 . S
C1666 C1664 1.394 . S
C1666 C1667 1.369 . S
C1666 C1670 1.531 . S
C1667 C1666 1.369 . S
C1667 C1668 1.410 . S
C1667 C1675 1.503 . S
C1668 C1667 1.410 . S
C1668 C1669 1.392 . S
C1668 C1671 1.511 . S
C1669 C1665 1.376 . S
C1669 C1668 1.392 . S
C1669 H1681 0.929 . S
C1670 C1666 1.531 . S
C1670 H1682 0.960 . S
C1670 H1683 0.962 . S
C1670 H1684 0.960 . S
C1671 C1668 1.511 . S
C1671 H1685 0.961 . S
C1671 H1686 0.961 . S
C1671 H1687 0.961 . S
C1672 C1673 1.370 . S
C1672 C1674 1.363 . S
C1672 H1688 0.931 . S
C1673 C1672 1.370 . S
C1673 C1677 1.408 . S
C1674 C1672 1.363 . S
C1674 C1675 1.370 . S
C1674 C1678 1.524 . S
C1675 C1667 1.503 . S
C1675 C1674 1.370 . S
C1675 C1676 1.403 . S
C1676 C1675 1.403 . S
C1676 C1677 1.404 . S
C1676 C1679 1.539 . S
C1677 C1673 1.408 . S
C1677 C1676 1.404 . S
C1677 H1689 0.930 . S
C1678 C1674 1.524 . S
C1678 H1690 0.956 . S
C1678 H1691 0.961 . S
C1678 H1692 0.961 . S
C1679 C1676 1.539 . S
C1679 H1693 0.958 . S
C1679 H1694 0.961 . S
C1679 H1695 0.960 . S
H1680 C1664 0.931 . S
H1681 C1669 0.929 . S
H1682 C1670 0.960 . S
H1683 C1670 0.962 . S
H1684 C1670 0.960 . S
H1685 C1671 0.961 . S
H1686 C1671 0.961 . S
H1687 C1671 0.961 . S
H1688 C1672 0.931 . S
H1689 C1677 0.930 . S
H1690 C1678 0.956 . S
H1691 C1678 0.961 . S
H1692 C1678 0.961 . S
H1693 C1679 0.958 . S
H1694 C1679 0.961 . S
H1695 C1679 0.960 . S
C1696 C1697 1.391 . S
C1696 C1698 1.394 . S
C1696 H1712 0.931 . S
C1697 C1696 1.391 . S
C1697 C1701 1.376 . S
C1698 C1696 1.394 . S
C1698 C1699 1.369 . S
C1698 C1702 1.531 1_545 S
C1699 C1698 1.369 . S
C1699 C1700 1.410 . S
C1699 C1707 1.503 1_545 S
C1700 C1699 1.410 . S
C1700 C1701 1.392 . S
C1700 C1703 1.511 . S
C1701 C1697 1.376 . S
C1701 C1700 1.392 . S
C1701 H1713 0.929 . S
C1702 C1698 1.531 1_565 S
C1702 H1714 0.960 . S
C1702 H1715 0.962 . S
C1702 H1716 0.949 1_565 S
C1703 C1700 1.511 . S
C1703 H1717 0.961 . S
C1703 H1718 0.961 . S
C1703 H1719 0.961 . S
C1704 C1705 1.370 . S
C1704 C1706 1.363 . S
C1704 H1720 0.931 . S
C1705 C1704 1.370 . S
C1705 C1709 1.408 . S
C1706 C1704 1.363 . S
C1706 C1707 1.370 . S
C1706 C1710 1.524 . S
C1707 C1699 1.503 1_565 S
C1707 C1706 1.370 . S
C1707 C1708 1.403 . S
C1708 C1707 1.403 . S
C1708 C1709 1.404 . S
C1708 C1711 1.542 . S
C1709 C1705 1.408 . S
C1709 C1708 1.404 . S
C1709 H1721 0.930 . S
C1710 C1706 1.524 . S
C1710 H1722 0.956 . S
C1710 H1723 0.961 . S
C1710 H1724 0.961 . S
C1711 C1708 1.542 . S
C1711 H1725 0.959 . S
C1711 H1726 0.962 . S
C1711 H1727 0.955 1_565 S
H1712 C1696 0.931 . S
H1713 C1701 0.929 . S
H1714 C1702 0.960 . S
H1715 C1702 0.962 . S
H1716 C1702 0.949 1_545 S
H1717 C1703 0.961 . S
H1718 C1703 0.961 . S
H1719 C1703 0.961 . S
H1720 C1704 0.931 . S
H1721 C1709 0.930 . S
H1722 C1710 0.956 . S
H1723 C1710 0.961 . S
H1724 C1710 0.961 . S
H1725 C1711 0.959 . S
H1726 C1711 0.962 . S
H1727 C1711 0.955 1_545 S
C1728 C1729 1.391 . S
C1728 C1730 1.394 . S
C1728 H1744 0.931 . S
C1729 C1728 1.391 . S
C1729 C1733 1.376 . S
C1730 C1728 1.394 . S
C1730 C1731 1.369 . S
C1730 C1734 1.531 . S
C1731 C1730 1.369 . S
C1731 C1732 1.410 . S
C1731 C1739 1.503 . S
C1732 C1731 1.410 . S
C1732 C1733 1.392 . S
C1732 C1735 1.511 . S
C1733 C1729 1.376 . S
C1733 C1732 1.392 . S
C1733 H1745 0.929 . S
C1734 C1730 1.531 . S
C1734 H1746 0.960 . S
C1734 H1747 0.962 . S
C1734 H1748 0.960 . S
C1735 C1732 1.511 . S
C1735 H1749 0.961 . S
C1735 H1750 0.961 . S
C1735 H1751 0.961 . S
C1736 C1737 1.370 . S
C1736 C1738 1.363 . S
C1736 H1752 0.931 . S
C1737 C1736 1.370 . S
C1737 C1741 1.408 . S
C1738 C1736 1.363 . S
C1738 C1739 1.370 . S
C1738 C1742 1.524 . S
C1739 C1731 1.503 . S
C1739 C1738 1.370 . S
C1739 C1740 1.403 . S
C1740 C1739 1.403 . S
C1740 C1741 1.404 . S
C1740 C1743 1.539 . S
C1741 C1737 1.408 . S
C1741 C1740 1.404 . S
C1741 H1753 0.930 . S
C1742 C1738 1.524 . S
C1742 H1754 0.956 . S
C1742 H1755 0.961 . S
C1742 H1756 0.961 . S
C1743 C1740 1.539 . S
C1743 H1757 0.958 . S
C1743 H1758 0.961 . S
C1743 H1759 0.960 . S
H1744 C1728 0.931 . S
H1745 C1733 0.929 . S
H1746 C1734 0.960 . S
H1747 C1734 0.962 . S
H1748 C1734 0.960 . S
H1749 C1735 0.961 . S
H1750 C1735 0.961 . S
H1751 C1735 0.961 . S
H1752 C1736 0.931 . S
H1753 C1741 0.930 . S
H1754 C1742 0.956 . S
H1755 C1742 0.961 . S
H1756 C1742 0.961 . S
H1757 C1743 0.958 . S
H1758 C1743 0.961 . S
H1759 C1743 0.960 . S
C1760 C1761 1.391 . S
C1760 C1762 1.394 . S
C1760 H1776 0.931 . S
C1761 C1760 1.391 . S
C1761 C1765 1.376 . S
C1762 C1760 1.394 . S
C1762 C1763 1.369 . S
C1762 C1766 1.531 . S
C1763 C1762 1.369 . S
C1763 C1764 1.410 . S
C1763 C1771 1.503 . S
C1764 C1763 1.410 . S
C1764 C1765 1.392 . S
C1764 C1767 1.511 . S
C1765 C1761 1.376 . S
C1765 C1764 1.392 . S
C1765 H1777 0.929 . S
C1766 C1762 1.531 . S
C1766 H1778 0.960 . S
C1766 H1779 0.962 . S
C1766 H1780 0.960 . S
C1767 C1764 1.511 . S
C1767 H1781 0.961 . S
C1767 H1782 0.961 . S
C1767 H1783 0.961 . S
C1768 C1769 1.370 . S
C1768 C1770 1.363 . S
C1768 H1784 0.931 . S
C1769 C1768 1.370 . S
C1769 C1773 1.408 . S
C1770 C1768 1.363 . S
C1770 C1771 1.370 . S
C1770 C1774 1.524 . S
C1771 C1763 1.503 . S
C1771 C1770 1.370 . S
C1771 C1772 1.403 . S
C1772 C1771 1.403 . S
C1772 C1773 1.404 . S
C1772 C1775 1.539 . S
C1773 C1769 1.408 . S
C1773 C1772 1.404 . S
C1773 H1785 0.930 . S
C1774 C1770 1.524 . S
C1774 H1786 0.956 . S
C1774 H1787 0.961 . S
C1774 H1788 0.961 . S
C1775 C1772 1.539 . S
C1775 H1789 0.958 . S
C1775 H1790 0.961 . S
C1775 H1791 0.960 . S
H1776 C1760 0.931 . S
H1777 C1765 0.929 . S
H1778 C1766 0.960 . S
H1779 C1766 0.962 . S
H1780 C1766 0.960 . S
H1781 C1767 0.961 . S
H1782 C1767 0.961 . S
H1783 C1767 0.961 . S
H1784 C1768 0.931 . S
H1785 C1773 0.930 . S
H1786 C1774 0.956 . S
H1787 C1774 0.961 . S
H1788 C1774 0.961 . S
H1789 C1775 0.958 . S
H1790 C1775 0.961 . S
H1791 C1775 0.960 . S
C1792 C1793 1.391 . S
C1792 C1794 1.394 . S
C1792 H1808 0.931 . S
C1793 C1792 1.391 . S
C1793 C1797 1.376 . S
C1794 C1792 1.394 . S
C1794 C1795 1.369 . S
C1794 C1798 1.531 . S
C1795 C1794 1.369 . S
C1795 C1796 1.410 1_554 S
C1795 C1803 1.503 1_554 S
C1796 C1795 1.410 1_556 S
C1796 C1797 1.392 1_556 S
C1796 C1799 1.511 . S
C1797 C1793 1.376 . S
C1797 C1796 1.392 1_554 S
C1797 H1809 0.929 1_554 S
C1798 C1794 1.531 . S
C1798 H1810 0.960 . S
C1798 H1811 0.962 . S
C1798 H1812 0.960 . S
C1799 C1796 1.511 . S
C1799 H1813 0.961 . S
C1799 H1814 0.961 . S
C1799 H1815 0.961 . S
C1800 C1801 1.370 . S
C1800 C1802 1.363 . S
C1800 H1816 0.931 . S
C1801 C1800 1.370 . S
C1801 C1805 1.408 . S
C1802 C1800 1.363 . S
C1802 C1803 1.370 . S
C1802 C1806 1.524 1_556 S
C1803 C1795 1.503 1_556 S
C1803 C1802 1.370 . S
C1803 C1804 1.403 . S
C1804 C1803 1.403 . S
C1804 C1805 1.404 . S
C1804 C1807 1.539 . S
C1805 C1801 1.408 . S
C1805 C1804 1.404 . S
C1805 H1817 0.930 . S
C1806 C1802 1.524 1_554 S
C1806 H1818 0.956 . S
C1806 H1819 0.950 1_554 S
C1806 H1820 0.961 . S
C1807 C1804 1.539 . S
C1807 H1821 0.958 . S
C1807 H1822 0.961 . S
C1807 H1823 0.960 . S
H1808 C1792 0.931 . S
H1809 C1797 0.929 1_556 S
H1810 C1798 0.960 . S
H1811 C1798 0.962 . S
H1812 C1798 0.960 . S
H1813 C1799 0.961 . S
H1814 C1799 0.961 . S
H1815 C1799 0.961 . S
H1816 C1800 0.931 . S
H1817 C1805 0.930 . S
H1818 C1806 0.956 . S
H1819 C1806 0.950 1_556 S
H1820 C1806 0.961 . S
H1821 C1807 0.958 . S
H1822 C1807 0.961 . S
H1823 C1807 0.960 . S
C1824 C1825 1.391 . S
C1824 C1826 1.394 . S
C1824 H1840 0.931 . S
C1825 C1824 1.391 . S
C1825 C1829 1.376 . S
C1826 C1824 1.394 . S
C1826 C1827 1.369 . S
C1826 C1830 1.531 . S
C1827 C1826 1.369 . S
C1827 C1828 1.410 . S
C1827 C1835 1.503 . S
C1828 C1827 1.410 . S
C1828 C1829 1.392 . S
C1828 C1831 1.511 . S
C1829 C1825 1.376 . S
C1829 C1828 1.392 . S
C1829 H1841 0.929 . S
C1830 C1826 1.531 . S
C1830 H1842 0.960 . S
C1830 H1843 0.962 . S
C1830 H1844 0.960 . S
C1831 C1828 1.511 . S
C1831 H1845 0.961 . S
C1831 H1846 0.961 . S
C1831 H1847 0.961 . S
C1832 C1833 1.370 . S
C1832 C1834 1.363 . S
C1832 H1848 0.931 . S
C1833 C1832 1.370 . S
C1833 C1837 1.408 . S
C1834 C1832 1.363 . S
C1834 C1835 1.370 . S
C1834 C1838 1.524 . S
C1835 C1827 1.503 . S
C1835 C1834 1.370 . S
C1835 C1836 1.403 . S
C1836 C1835 1.403 . S
C1836 C1837 1.404 . S
C1836 C1839 1.539 . S
C1837 C1833 1.408 . S
C1837 C1836 1.404 . S
C1837 H1849 0.930 . S
C1838 C1834 1.524 . S
C1838 H1850 0.956 . S
C1838 H1851 0.961 . S
C1838 H1852 0.961 . S
C1839 C1836 1.539 . S
C1839 H1853 0.958 . S
C1839 H1854 0.961 . S
C1839 H1855 0.960 . S
H1840 C1824 0.931 . S
H1841 C1829 0.929 . S
H1842 C1830 0.960 . S
H1843 C1830 0.962 . S
H1844 C1830 0.960 . S
H1845 C1831 0.961 . S
H1846 C1831 0.961 . S
H1847 C1831 0.961 . S
H1848 C1832 0.931 . S
H1849 C1837 0.930 . S
H1850 C1838 0.956 . S
H1851 C1838 0.961 . S
H1852 C1838 0.961 . S
H1853 C1839 0.958 . S
H1854 C1839 0.961 . S
H1855 C1839 0.960 . S
C1856 C1857 1.391 . S
C1856 C1858 1.394 . S
C1856 H1872 0.931 . S
C1857 C1856 1.391 . S
C1857 C1861 1.376 . S
C1858 C1856 1.394 . S
C1858 C1859 1.369 . S
C1858 C1862 1.531 . S
C1859 C1858 1.369 . S
C1859 C1860 1.410 . S
C1859 C1867 1.503 . S
C1860 C1859 1.410 . S
C1860 C1861 1.392 . S
C1860 C1863 1.511 . S
C1861 C1857 1.376 . S
C1861 C1860 1.392 . S
C1861 H1873 0.929 . S
C1862 C1858 1.531 . S
C1862 H1874 0.960 . S
C1862 H1875 0.962 . S
C1862 H1876 0.960 . S
C1863 C1860 1.511 . S
C1863 H1877 0.961 . S
C1863 H1878 0.961 . S
C1863 H1879 0.961 . S
C1864 C1865 1.370 . S
C1864 C1866 1.363 . S
C1864 H1880 0.931 . S
C1865 C1864 1.370 . S
C1865 C1869 1.408 . S
C1866 C1864 1.363 . S
C1866 C1867 1.370 . S
C1866 C1870 1.524 . S
C1867 C1859 1.503 . S
C1867 C1866 1.370 . S
C1867 C1868 1.403 . S
C1868 C1867 1.403 . S
C1868 C1869 1.404 . S
C1868 C1871 1.539 . S
C1869 C1865 1.408 . S
C1869 C1868 1.404 . S
C1869 H1881 0.930 . S
C1870 C1866 1.524 . S
C1870 H1882 0.956 . S
C1870 H1883 0.961 . S
C1870 H1884 0.961 . S
C1871 C1868 1.539 . S
C1871 H1885 0.958 . S
C1871 H1886 0.961 . S
C1871 H1887 0.960 . S
H1872 C1856 0.931 . S
H1873 C1861 0.929 . S
H1874 C1862 0.960 . S
H1875 C1862 0.962 . S
H1876 C1862 0.960 . S
H1877 C1863 0.961 . S
H1878 C1863 0.961 . S
H1879 C1863 0.961 . S
H1880 C1864 0.931 . S
H1881 C1869 0.930 . S
H1882 C1870 0.956 . S
H1883 C1870 0.961 . S
H1884 C1870 0.961 . S
H1885 C1871 0.958 . S
H1886 C1871 0.961 . S
H1887 C1871 0.960 . S
C1888 C1889 1.391 . S
C1888 C1890 1.394 . S
C1888 H1904 0.931 . S
C1889 C1888 1.391 . S
C1889 C1893 1.376 . S
C1890 C1888 1.394 . S
C1890 C1891 1.369 . S
C1890 C1894 1.531 . S
C1891 C1890 1.369 . S
C1891 C1892 1.410 . S
C1891 C1899 1.503 . S
C1892 C1891 1.410 . S
C1892 C1893 1.392 . S
C1892 C1895 1.511 . S
C1893 C1889 1.376 . S
C1893 C1892 1.392 . S
C1893 H1905 0.929 . S
C1894 C1890 1.531 . S
C1894 H1906 0.960 . S
C1894 H1907 0.962 . S
C1894 H1908 0.960 . S
C1895 C1892 1.511 . S
C1895 H1909 0.961 . S
C1895 H1910 0.961 . S
C1895 H1911 0.961 . S
C1896 C1897 1.370 . S
C1896 C1898 1.363 . S
C1896 H1912 0.931 . S
C1897 C1896 1.370 . S
C1897 C1901 1.408 . S
C1898 C1896 1.363 . S
C1898 C1899 1.370 . S
C1898 C1902 1.524 . S
C1899 C1891 1.503 . S
C1899 C1898 1.370 . S
C1899 C1900 1.403 . S
C1900 C1899 1.403 . S
C1900 C1901 1.404 . S
C1900 C1903 1.539 . S
C1901 C1897 1.408 . S
C1901 C1900 1.404 . S
C1901 H1913 0.930 . S
C1902 C1898 1.524 . S
C1902 H1914 0.956 . S
C1902 H1915 0.961 . S
C1902 H1916 0.961 . S
C1903 C1900 1.539 . S
C1903 H1917 0.958 . S
C1903 H1918 0.961 . S
C1903 H1919 0.960 . S
H1904 C1888 0.931 . S
H1905 C1893 0.929 . S
H1906 C1894 0.960 . S
H1907 C1894 0.962 . S
H1908 C1894 0.960 . S
H1909 C1895 0.961 . S
H1910 C1895 0.961 . S
H1911 C1895 0.961 . S
H1912 C1896 0.931 . S
H1913 C1901 0.930 . S
H1914 C1902 0.956 . S
H1915 C1902 0.961 . S
H1916 C1902 0.961 . S
H1917 C1903 0.958 . S
H1918 C1903 0.961 . S
H1919 C1903 0.960 . S
C1920 C1921 1.391 . S
C1920 C1922 1.394 . S
C1920 H1936 0.931 . S
C1921 C1920 1.391 . S
C1921 C1925 1.376 . S
C1922 C1920 1.394 . S
C1922 C1923 1.369 . S
C1922 C1926 1.531 . S
C1923 C1922 1.369 . S
C1923 C1924 1.410 1_556 S
C1923 C1931 1.503 1_556 S
C1924 C1923 1.410 1_554 S
C1924 C1925 1.392 1_554 S
C1924 C1927 1.511 . S
C1925 C1921 1.376 . S
C1925 C1924 1.392 1_556 S
C1925 H1937 0.929 1_556 S
C1926 C1922 1.531 . S
C1926 H1938 0.960 . S
C1926 H1939 0.962 . S
C1926 H1940 0.960 . S
C1927 C1924 1.511 . S
C1927 H1941 0.961 . S
C1927 H1942 0.961 . S
C1927 H1943 0.961 . S
C1928 C1929 1.370 . S
C1928 C1930 1.363 . S
C1928 H1944 0.931 . S
C1929 C1928 1.370 . S
C1929 C1933 1.408 . S
C1930 C1928 1.363 . S
C1930 C1931 1.370 . S
C1930 C1934 1.524 . S
C1931 C1923 1.503 1_554 S
C1931 C1930 1.370 . S
C1931 C1932 1.403 . S
C1932 C1931 1.403 . S
C1932 C1933 1.404 . S
C1932 C1935 1.539 . S
C1933 C1929 1.408 . S
C1933 C1932 1.404 . S
C1933 H1945 0.930 . S
C1934 C1930 1.524 . S
C1934 H1946 0.956 1_554 S
C1934 H1947 0.961 . S
C1934 H1948 0.961 . S
C1935 C1932 1.539 . S
C1935 H1949 0.958 1_554 S
C1935 H1950 0.961 . S
C1935 H1951 0.960 . S
H1936 C1920 0.931 . S
H1937 C1925 0.929 1_554 S
H1938 C1926 0.960 . S
H1939 C1926 0.962 . S
H1940 C1926 0.960 . S
H1941 C1927 0.961 . S
H1942 C1927 0.961 . S
H1943 C1927 0.961 . S
H1944 C1928 0.931 . S
H1945 C1933 0.930 . S
H1946 C1934 0.956 1_556 S
H1947 C1934 0.961 . S
H1948 C1934 0.961 . S
H1949 C1935 0.958 1_556 S
H1950 C1935 0.961 . S
H1951 C1935 0.960 . S
C1952 C1953 1.391 . S
C1952 C1954 1.394 . S
C1952 H1968 0.931 . S
C1953 C1952 1.391 . S
C1953 C1957 1.376 . S
C1954 C1952 1.394 . S
C1954 C1955 1.369 . S
C1954 C1958 1.531 . S
C1955 C1954 1.369 . S
C1955 C1956 1.410 . S
C1955 C1963 1.503 . S
C1956 C1955 1.410 . S
C1956 C1957 1.392 . S
C1956 C1959 1.511 . S
C1957 C1953 1.376 . S
C1957 C1956 1.392 . S
C1957 H1969 0.929 . S
C1958 C1954 1.531 . S
C1958 H1970 0.960 . S
C1958 H1971 0.962 . S
C1958 H1972 0.960 . S
C1959 C1956 1.511 . S
C1959 H1973 0.961 . S
C1959 H1974 0.961 . S
C1959 H1975 0.961 . S
C1960 C1961 1.370 . S
C1960 C1962 1.363 . S
C1960 H1976 0.931 . S
C1961 C1960 1.370 . S
C1961 C1965 1.408 . S
C1962 C1960 1.363 . S
C1962 C1963 1.370 . S
C1962 C1966 1.524 . S
C1963 C1955 1.503 . S
C1963 C1962 1.370 . S
C1963 C1964 1.403 . S
C1964 C1963 1.403 . S
C1964 C1965 1.404 . S
C1964 C1967 1.539 . S
C1965 C1961 1.408 . S
C1965 C1964 1.404 . S
C1965 H1977 0.930 . S
C1966 C1962 1.524 . S
C1966 H1978 0.956 . S
C1966 H1979 0.961 . S
C1966 H1980 0.961 . S
C1967 C1964 1.539 . S
C1967 H1981 0.958 . S
C1967 H1982 0.961 . S
C1967 H1983 0.960 . S
H1968 C1952 0.931 . S
H1969 C1957 0.929 . S
H1970 C1958 0.960 . S
H1971 C1958 0.962 . S
H1972 C1958 0.960 . S
H1973 C1959 0.961 . S
H1974 C1959 0.961 . S
H1975 C1959 0.961 . S
H1976 C1960 0.931 . S
H1977 C1965 0.930 . S
H1978 C1966 0.956 . S
H1979 C1966 0.961 . S
H1980 C1966 0.961 . S
H1981 C1967 0.958 . S
H1982 C1967 0.961 . S
H1983 C1967 0.960 . S
C1984 C1985 1.391 . S
C1984 C1986 1.394 . S
C1984 H2000 0.931 . S
C1985 C1984 1.391 . S
C1985 C1989 1.376 . S
C1986 C1984 1.394 . S
C1986 C1987 1.369 . S
C1986 C1990 1.531 . S
C1987 C1986 1.369 . S
C1987 C1988 1.410 . S
C1987 C1995 1.503 . S
C1988 C1987 1.410 . S
C1988 C1989 1.392 . S
C1988 C1991 1.511 . S
C1989 C1985 1.376 . S
C1989 C1988 1.392 . S
C1989 H2001 0.929 . S
C1990 C1986 1.531 . S
C1990 H2002 0.960 . S
C1990 H2003 0.962 . S
C1990 H2004 0.960 . S
C1991 C1988 1.511 . S
C1991 H2005 0.961 . S
C1991 H2006 0.961 . S
C1991 H2007 0.961 . S
C1992 C1993 1.370 . S
C1992 C1994 1.363 . S
C1992 H2008 0.931 . S
C1993 C1992 1.370 . S
C1993 C1997 1.408 . S
C1994 C1992 1.363 . S
C1994 C1995 1.370 . S
C1994 C1998 1.524 . S
C1995 C1987 1.503 . S
C1995 C1994 1.370 . S
C1995 C1996 1.403 . S
C1996 C1995 1.403 . S
C1996 C1997 1.404 . S
C1996 C1999 1.539 . S
C1997 C1993 1.408 . S
C1997 C1996 1.404 . S
C1997 H2009 0.930 . S
C1998 C1994 1.524 . S
C1998 H2010 0.956 . S
C1998 H2011 0.961 . S
C1998 H2012 0.961 . S
C1999 C1996 1.539 . S
C1999 H2013 0.958 . S
C1999 H2014 0.961 . S
C1999 H2015 0.960 . S
H2000 C1984 0.931 . S
H2001 C1989 0.929 . S
H2002 C1990 0.960 . S
H2003 C1990 0.962 . S
H2004 C1990 0.960 . S
H2005 C1991 0.961 . S
H2006 C1991 0.961 . S
H2007 C1991 0.961 . S
H2008 C1992 0.931 . S
H2009 C1997 0.930 . S
H2010 C1998 0.956 . S
H2011 C1998 0.961 . S
H2012 C1998 0.961 . S
H2013 C1999 0.958 . S
H2014 C1999 0.961 . S
H2015 C1999 0.960 . S
C2016 C2017 1.391 . S
C2016 C2018 1.394 . S
C2016 H2032 0.931 . S
C2017 C2016 1.391 . S
C2017 C2021 1.376 . S
C2018 C2016 1.394 . S
C2018 C2019 1.369 . S
C2018 C2022 1.531 . S
C2019 C2018 1.369 . S
C2019 C2020 1.410 . S
C2019 C2027 1.503 . S
C2020 C2019 1.410 . S
C2020 C2021 1.392 . S
C2020 C2023 1.511 . S
C2021 C2017 1.376 . S
C2021 C2020 1.392 . S
C2021 H2033 0.929 . S
C2022 C2018 1.531 . S
C2022 H2034 0.960 . S
C2022 H2035 0.962 . S
C2022 H2036 0.960 . S
C2023 C2020 1.511 . S
C2023 H2037 0.961 . S
C2023 H2038 0.961 . S
C2023 H2039 0.961 . S
C2024 C2025 1.370 . S
C2024 C2026 1.363 . S
C2024 H2040 0.931 . S
C2025 C2024 1.370 . S
C2025 C2029 1.408 . S
C2026 C2024 1.363 . S
C2026 C2027 1.370 . S
C2026 C2030 1.524 . S
C2027 C2019 1.503 . S
C2027 C2026 1.370 . S
C2027 C2028 1.403 . S
C2028 C2027 1.403 . S
C2028 C2029 1.404 . S
C2028 C2031 1.539 . S
C2029 C2025 1.408 . S
C2029 C2028 1.404 . S
C2029 H2041 0.930 . S
C2030 C2026 1.524 . S
C2030 H2042 0.956 . S
C2030 H2043 0.961 . S
C2030 H2044 0.961 . S
C2031 C2028 1.539 . S
C2031 H2045 0.958 . S
C2031 H2046 0.961 . S
C2031 H2047 0.960 . S
H2032 C2016 0.931 . S
H2033 C2021 0.929 . S
H2034 C2022 0.960 . S
H2035 C2022 0.962 . S
H2036 C2022 0.960 . S
H2037 C2023 0.961 . S
H2038 C2023 0.961 . S
H2039 C2023 0.961 . S
H2040 C2024 0.931 . S
H2041 C2029 0.930 . S
H2042 C2030 0.956 . S
H2043 C2030 0.961 . S
H2044 C2030 0.961 . S
H2045 C2031 0.958 . S
H2046 C2031 0.961 . S
H2047 C2031 0.960 . S
C2048 C2049 1.391 . S
C2048 C2050 1.394 . S
C2048 H2064 0.931 . S
C2049 C2048 1.391 . S
C2049 C2053 1.376 . S
C2050 C2048 1.394 . S
C2050 C2051 1.369 . S
C2050 C2054 1.531 . S
C2051 C2050 1.369 . S
C2051 C2052 1.410 . S
C2051 C2059 1.503 . S
C2052 C2051 1.410 . S
C2052 C2053 1.392 . S
C2052 C2055 1.511 . S
C2053 C2049 1.376 . S
C2053 C2052 1.392 . S
C2053 H2065 0.929 . S
C2054 C2050 1.531 . S
C2054 H2066 0.960 . S
C2054 H2067 0.962 . S
C2054 H2068 0.960 . S
C2055 C2052 1.511 . S
C2055 H2069 0.961 . S
C2055 H2070 0.961 . S
C2055 H2071 0.961 . S
C2056 C2057 1.370 . S
C2056 C2058 1.363 . S
C2056 H2072 0.931 . S
C2057 C2056 1.370 . S
C2057 C2061 1.408 . S
C2058 C2056 1.363 . S
C2058 C2059 1.370 . S
C2058 C2062 1.524 . S
C2059 C2051 1.503 . S
C2059 C2058 1.370 . S
C2059 C2060 1.403 . S
C2060 C2059 1.403 . S
C2060 C2061 1.404 . S
C2060 C2063 1.539 . S
C2061 C2057 1.408 . S
C2061 C2060 1.404 . S
C2061 H2073 0.930 . S
C2062 C2058 1.524 . S
C2062 H2074 0.956 . S
C2062 H2075 0.961 . S
C2062 H2076 0.961 . S
C2063 C2060 1.539 . S
C2063 H2077 0.958 . S
C2063 H2078 0.961 . S
C2063 H2079 0.960 . S
H2064 C2048 0.931 . S
H2065 C2053 0.929 . S
H2066 C2054 0.960 . S
H2067 C2054 0.962 . S
H2068 C2054 0.960 . S
H2069 C2055 0.961 . S
H2070 C2055 0.961 . S
H2071 C2055 0.961 . S
H2072 C2056 0.931 . S
H2073 C2061 0.930 . S
H2074 C2062 0.956 . S
H2075 C2062 0.961 . S
H2076 C2062 0.961 . S
H2077 C2063 0.958 . S
H2078 C2063 0.961 . S
H2079 C2063 0.960 . S
C2080 C2081 1.391 . S
C2080 C2082 1.394 . S
C2080 H2096 0.931 . S
C2081 C2080 1.391 . S
C2081 C2085 1.376 . S
C2082 C2080 1.394 . S
C2082 C2083 1.369 . S
C2082 C2086 1.531 . S
C2083 C2082 1.369 . S
C2083 C2084 1.410 . S
C2083 C2091 1.503 . S
C2084 C2083 1.410 . S
C2084 C2085 1.392 . S
C2084 C2087 1.511 . S
C2085 C2081 1.376 . S
C2085 C2084 1.392 . S
C2085 H2097 0.929 . S
C2086 C2082 1.531 . S
C2086 H2098 0.960 . S
C2086 H2099 0.962 . S
C2086 H2100 0.960 . S
C2087 C2084 1.511 . S
C2087 H2101 0.961 . S
C2087 H2102 0.961 . S
C2087 H2103 0.961 . S
C2088 C2089 1.370 . S
C2088 C2090 1.363 . S
C2088 H2104 0.931 . S
C2089 C2088 1.370 . S
C2089 C2093 1.408 . S
C2090 C2088 1.363 . S
C2090 C2091 1.370 . S
C2090 C2094 1.524 . S
C2091 C2083 1.503 . S
C2091 C2090 1.370 . S
C2091 C2092 1.403 . S
C2092 C2091 1.403 . S
C2092 C2093 1.404 . S
C2092 C2095 1.539 . S
C2093 C2089 1.408 . S
C2093 C2092 1.404 . S
C2093 H2105 0.930 . S
C2094 C2090 1.524 . S
C2094 H2106 0.956 . S
C2094 H2107 0.961 . S
C2094 H2108 0.961 . S
C2095 C2092 1.539 . S
C2095 H2109 0.958 . S
C2095 H2110 0.961 . S
C2095 H2111 0.960 . S
H2096 C2080 0.931 . S
H2097 C2085 0.929 . S
H2098 C2086 0.960 . S
H2099 C2086 0.962 . S
H2100 C2086 0.960 . S
H2101 C2087 0.961 . S
H2102 C2087 0.961 . S
H2103 C2087 0.961 . S
H2104 C2088 0.931 . S
H2105 C2093 0.930 . S
H2106 C2094 0.956 . S
H2107 C2094 0.961 . S
H2108 C2094 0.961 . S
H2109 C2095 0.958 . S
H2110 C2095 0.961 . S
H2111 C2095 0.960 . S
C2112 C2113 1.391 . S
C2112 C2114 1.394 . S
C2112 H2128 0.931 . S
C2113 C2112 1.391 . S
C2113 C2117 1.376 . S
C2114 C2112 1.394 . S
C2114 C2115 1.369 . S
C2114 C2118 1.531 . S
C2115 C2114 1.369 . S
C2115 C2116 1.410 . S
C2115 C2123 1.503 . S
C2116 C2115 1.410 . S
C2116 C2117 1.392 . S
C2116 C2119 1.511 . S
C2117 C2113 1.376 . S
C2117 C2116 1.392 . S
C2117 H2129 0.929 . S
C2118 C2114 1.531 . S
C2118 H2130 0.960 . S
C2118 H2131 0.962 . S
C2118 H2132 0.960 . S
C2119 C2116 1.511 . S
C2119 H2133 0.961 . S
C2119 H2134 0.961 . S
C2119 H2135 0.961 . S
C2120 C2121 1.370 . S
C2120 C2122 1.363 . S
C2120 H2136 0.931 . S
C2121 C2120 1.370 . S
C2121 C2125 1.408 . S
C2122 C2120 1.363 . S
C2122 C2123 1.370 . S
C2122 C2126 1.524 . S
C2123 C2115 1.503 . S
C2123 C2122 1.370 . S
C2123 C2124 1.403 . S
C2124 C2123 1.403 . S
C2124 C2125 1.404 . S
C2124 C2127 1.539 . S
C2125 C2121 1.408 . S
C2125 C2124 1.404 . S
C2125 H2137 0.930 . S
C2126 C2122 1.524 . S
C2126 H2138 0.956 . S
C2126 H2139 0.961 . S
C2126 H2140 0.961 . S
C2127 C2124 1.539 . S
C2127 H2141 0.958 . S
C2127 H2142 0.961 . S
C2127 H2143 0.960 . S
H2128 C2112 0.931 . S
H2129 C2117 0.929 . S
H2130 C2118 0.960 . S
H2131 C2118 0.962 . S
H2132 C2118 0.960 . S
H2133 C2119 0.961 . S
H2134 C2119 0.961 . S
H2135 C2119 0.961 . S
H2136 C2120 0.931 . S
H2137 C2125 0.930 . S
H2138 C2126 0.956 . S
H2139 C2126 0.961 . S
H2140 C2126 0.961 . S
H2141 C2127 0.958 . S
H2142 C2127 0.961 . S
H2143 C2127 0.960 . S
C2144 C2145 1.391 . S
C2144 C2146 1.394 . S
C2144 H2160 0.931 . S
C2145 C2144 1.391 . S
C2145 C2149 1.376 . S
C2146 C2144 1.394 . S
C2146 C2147 1.369 . S
C2146 C2150 1.531 . S
C2147 C2146 1.369 . S
C2147 C2148 1.410 . S
C2147 C2155 1.503 . S
C2148 C2147 1.410 . S
C2148 C2149 1.392 . S
C2148 C2151 1.511 . S
C2149 C2145 1.376 . S
C2149 C2148 1.392 . S
C2149 H2161 0.929 . S
C2150 C2146 1.531 . S
C2150 H2162 0.960 . S
C2150 H2163 0.962 . S
C2150 H2164 0.960 . S
C2151 C2148 1.511 . S
C2151 H2165 0.961 . S
C2151 H2166 0.961 . S
C2151 H2167 0.961 . S
C2152 C2153 1.370 . S
C2152 C2154 1.363 . S
C2152 H2168 0.931 . S
C2153 C2152 1.370 . S
C2153 C2157 1.408 . S
C2154 C2152 1.363 . S
C2154 C2155 1.370 . S
C2154 C2158 1.524 . S
C2155 C2147 1.503 . S
C2155 C2154 1.370 . S
C2155 C2156 1.403 . S
C2156 C2155 1.403 . S
C2156 C2157 1.404 . S
C2156 C2159 1.539 . S
C2157 C2153 1.408 . S
C2157 C2156 1.404 . S
C2157 H2169 0.930 . S
C2158 C2154 1.524 . S
C2158 H2170 0.956 . S
C2158 H2171 0.961 . S
C2158 H2172 0.961 . S
C2159 C2156 1.539 . S
C2159 H2173 0.958 . S
C2159 H2174 0.961 . S
C2159 H2175 0.960 . S
H2160 C2144 0.931 . S
H2161 C2149 0.929 . S
H2162 C2150 0.960 . S
H2163 C2150 0.962 . S
H2164 C2150 0.960 . S
H2165 C2151 0.961 . S
H2166 C2151 0.961 . S
H2167 C2151 0.961 . S
H2168 C2152 0.931 . S
H2169 C2157 0.930 . S
H2170 C2158 0.956 . S
H2171 C2158 0.961 . S
H2172 C2158 0.961 . S
H2173 C2159 0.958 . S
H2174 C2159 0.961 . S
H2175 C2159 0.960 . S
C2176 C2177 1.391 . S
C2176 C2178 1.394 . S
C2176 H2192 0.931 . S
C2177 C2176 1.391 . S
C2177 C2181 1.376 . S
C2178 C2176 1.394 . S
C2178 C2179 1.369 . S
C2178 C2182 1.531 . S
C2179 C2178 1.369 . S
C2179 C2180 1.410 . S
C2179 C2187 1.503 . S
C2180 C2179 1.410 . S
C2180 C2181 1.392 . S
C2180 C2183 1.511 . S
C2181 C2177 1.376 . S
C2181 C2180 1.392 . S
C2181 H2193 0.929 . S
C2182 C2178 1.531 . S
C2182 H2194 0.960 . S
C2182 H2195 0.962 . S
C2182 H2196 0.960 . S
C2183 C2180 1.511 . S
C2183 H2197 0.961 . S
C2183 H2198 0.961 . S
C2183 H2199 0.961 . S
C2184 C2185 1.370 . S
C2184 C2186 1.363 . S
C2184 H2200 0.931 . S
C2185 C2184 1.370 . S
C2185 C2189 1.408 . S
C2186 C2184 1.363 . S
C2186 C2187 1.370 . S
C2186 C2190 1.524 . S
C2187 C2179 1.503 . S
C2187 C2186 1.370 . S
C2187 C2188 1.403 . S
C2188 C2187 1.403 . S
C2188 C2189 1.404 . S
C2188 C2191 1.539 . S
C2189 C2185 1.408 . S
C2189 C2188 1.404 . S
C2189 H2201 0.930 . S
C2190 C2186 1.524 . S
C2190 H2202 0.956 . S
C2190 H2203 0.961 . S
C2190 H2204 0.961 . S
C2191 C2188 1.539 . S
C2191 H2205 0.958 . S
C2191 H2206 0.961 . S
C2191 H2207 0.960 . S
H2192 C2176 0.931 . S
H2193 C2181 0.929 . S
H2194 C2182 0.960 . S
H2195 C2182 0.962 . S
H2196 C2182 0.960 . S
H2197 C2183 0.961 . S
H2198 C2183 0.961 . S
H2199 C2183 0.961 . S
H2200 C2184 0.931 . S
H2201 C2189 0.930 . S
H2202 C2190 0.956 . S
H2203 C2190 0.961 . S
H2204 C2190 0.961 . S
H2205 C2191 0.958 . S
H2206 C2191 0.961 . S
H2207 C2191 0.960 . S
C2208 C2209 1.391 . S
C2208 C2210 1.394 . S
C2208 H2224 0.931 . S
C2209 C2208 1.391 . S
C2209 C2213 1.376 . S
C2210 C2208 1.394 . S
C2210 C2211 1.369 . S
C2210 C2214 1.531 . S
C2211 C2210 1.369 . S
C2211 C2212 1.410 . S
C2211 C2219 1.503 . S
C2212 C2211 1.410 . S
C2212 C2213 1.392 . S
C2212 C2215 1.511 . S
C2213 C2209 1.376 . S
C2213 C2212 1.392 . S
C2213 H2225 0.929 . S
C2214 C2210 1.531 . S
C2214 H2226 0.960 . S
C2214 H2227 0.962 . S
C2214 H2228 0.960 . S
C2215 C2212 1.511 . S
C2215 H2229 0.961 . S
C2215 H2230 0.961 . S
C2215 H2231 0.961 . S
C2216 C2217 1.370 . S
C2216 C2218 1.363 . S
C2216 H2232 0.931 . S
C2217 C2216 1.370 . S
C2217 C2221 1.408 . S
C2218 C2216 1.363 . S
C2218 C2219 1.370 . S
C2218 C2222 1.524 . S
C2219 C2211 1.503 . S
C2219 C2218 1.370 . S
C2219 C2220 1.403 . S
C2220 C2219 1.403 . S
C2220 C2221 1.404 . S
C2220 C2223 1.539 . S
C2221 C2217 1.408 . S
C2221 C2220 1.404 . S
C2221 H2233 0.930 . S
C2222 C2218 1.524 . S
C2222 H2234 0.956 . S
C2222 H2235 0.961 . S
C2222 H2236 0.961 . S
C2223 C2220 1.539 . S
C2223 H2237 0.958 . S
C2223 H2238 0.961 . S
C2223 H2239 0.960 . S
H2224 C2208 0.931 . S
H2225 C2213 0.929 . S
H2226 C2214 0.960 . S
H2227 C2214 0.962 . S
H2228 C2214 0.960 . S
H2229 C2215 0.961 . S
H2230 C2215 0.961 . S
H2231 C2215 0.961 . S
H2232 C2216 0.931 . S
H2233 C2221 0.930 . S
H2234 C2222 0.956 . S
H2235 C2222 0.961 . S
H2236 C2222 0.961 . S
H2237 C2223 0.958 . S
H2238 C2223 0.961 . S
H2239 C2223 0.960 . S
C2240 C2241 1.391 . S
C2240 C2242 1.394 . S
C2240 H2256 0.931 . S
C2241 C2240 1.391 . S
C2241 C2245 1.376 . S
C2242 C2240 1.394 . S
C2242 C2243 1.369 . S
C2242 C2246 1.531 . S
C2243 C2242 1.369 . S
C2243 C2244 1.410 . S
C2243 C2251 1.503 . S
C2244 C2243 1.410 . S
C2244 C2245 1.392 . S
C2244 C2247 1.511 . S
C2245 C2241 1.376 . S
C2245 C2244 1.392 . S
C2245 H2257 0.929 . S
C2246 C2242 1.531 . S
C2246 H2258 0.960 . S
C2246 H2259 0.962 . S
C2246 H2260 0.960 . S
C2247 C2244 1.511 . S
C2247 H2261 0.961 . S
C2247 H2262 0.961 . S
C2247 H2263 0.961 . S
C2248 C2249 1.370 . S
C2248 C2250 1.363 . S
C2248 H2264 0.931 . S
C2249 C2248 1.370 . S
C2249 C2253 1.408 . S
C2250 C2248 1.363 . S
C2250 C2251 1.370 . S
C2250 C2254 1.524 . S
C2251 C2243 1.503 . S
C2251 C2250 1.370 . S
C2251 C2252 1.403 . S
C2252 C2251 1.403 . S
C2252 C2253 1.404 . S
C2252 C2255 1.539 . S
C2253 C2249 1.408 . S
C2253 C2252 1.404 . S
C2253 H2265 0.930 . S
C2254 C2250 1.524 . S
C2254 H2266 0.956 . S
C2254 H2267 0.961 . S
C2254 H2268 0.961 . S
C2255 C2252 1.539 . S
C2255 H2269 0.958 . S
C2255 H2270 0.961 . S
C2255 H2271 0.960 . S
H2256 C2240 0.931 . S
H2257 C2245 0.929 . S
H2258 C2246 0.960 . S
H2259 C2246 0.962 . S
H2260 C2246 0.960 . S
H2261 C2247 0.961 . S
H2262 C2247 0.961 . S
H2263 C2247 0.961 . S
H2264 C2248 0.931 . S
H2265 C2253 0.930 . S
H2266 C2254 0.956 . S
H2267 C2254 0.961 . S
H2268 C2254 0.961 . S
H2269 C2255 0.958 . S
H2270 C2255 0.961 . S
H2271 C2255 0.960 . S
C2272 C2273 1.391 . S
C2272 C2274 1.394 . S
C2272 H2288 0.931 . S
C2273 C2272 1.391 . S
C2273 C2277 1.376 . S
C2274 C2272 1.394 . S
C2274 C2275 1.369 . S
C2274 C2278 1.531 . S
C2275 C2274 1.369 . S
C2275 C2276 1.410 . S
C2275 C2283 1.503 . S
C2276 C2275 1.410 . S
C2276 C2277 1.392 . S
C2276 C2279 1.511 . S
C2277 C2273 1.376 . S
C2277 C2276 1.392 . S
C2277 H2289 0.929 . S
C2278 C2274 1.531 . S
C2278 H2290 0.960 . S
C2278 H2291 0.962 . S
C2278 H2292 0.960 . S
C2279 C2276 1.511 . S
C2279 H2293 0.961 . S
C2279 H2294 0.961 . S
C2279 H2295 0.961 . S
C2280 C2281 1.370 . S
C2280 C2282 1.363 . S
C2280 H2296 0.931 . S
C2281 C2280 1.370 . S
C2281 C2285 1.408 . S
C2282 C2280 1.363 . S
C2282 C2283 1.370 . S
C2282 C2286 1.524 . S
C2283 C2275 1.503 . S
C2283 C2282 1.370 . S
C2283 C2284 1.403 . S
C2284 C2283 1.403 . S
C2284 C2285 1.404 . S
C2284 C2287 1.539 . S
C2285 C2281 1.408 . S
C2285 C2284 1.404 . S
C2285 H2297 0.930 . S
C2286 C2282 1.524 . S
C2286 H2298 0.956 . S
C2286 H2299 0.961 . S
C2286 H2300 0.961 . S
C2287 C2284 1.539 . S
C2287 H2301 0.958 . S
C2287 H2302 0.961 . S
C2287 H2303 0.960 . S
H2288 C2272 0.931 . S
H2289 C2277 0.929 . S
H2290 C2278 0.960 . S
H2291 C2278 0.962 . S
H2292 C2278 0.960 . S
H2293 C2279 0.961 . S
H2294 C2279 0.961 . S
H2295 C2279 0.961 . S
H2296 C2280 0.931 . S
H2297 C2285 0.930 . S
H2298 C2286 0.956 . S
H2299 C2286 0.961 . S
H2300 C2286 0.961 . S
H2301 C2287 0.958 . S
H2302 C2287 0.961 . S
H2303 C2287 0.960 . S
C2304 C2305 1.391 . S
C2304 C2306 1.394 . S
C2304 H2320 0.931 . S
C2305 C2304 1.391 . S
C2305 C2309 1.376 . S
C2306 C2304 1.394 . S
C2306 C2307 1.369 . S
C2306 C2310 1.531 . S
C2307 C2306 1.369 . S
C2307 C2308 1.410 . S
C2307 C2315 1.503 . S
C2308 C2307 1.410 . S
C2308 C2309 1.392 . S
C2308 C2311 1.511 . S
C2309 C2305 1.376 . S
C2309 C2308 1.392 . S
C2309 H2321 0.929 . S
C2310 C2306 1.531 . S
C2310 H2322 0.960 . S
C2310 H2323 0.962 . S
C2310 H2324 0.960 . S
C2311 C2308 1.511 . S
C2311 H2325 0.961 . S
C2311 H2326 0.961 . S
C2311 H2327 0.961 . S
C2312 C2313 1.370 . S
C2312 C2314 1.363 . S
C2312 H2328 0.931 . S
C2313 C2312 1.370 . S
C2313 C2317 1.408 . S
C2314 C2312 1.363 . S
C2314 C2315 1.370 . S
C2314 C2318 1.524 . S
C2315 C2307 1.503 . S
C2315 C2314 1.370 . S
C2315 C2316 1.403 . S
C2316 C2315 1.403 . S
C2316 C2317 1.404 . S
C2316 C2319 1.539 . S
C2317 C2313 1.408 . S
C2317 C2316 1.404 . S
C2317 H2329 0.930 . S
C2318 C2314 1.524 . S
C2318 H2330 0.956 . S
C2318 H2331 0.961 . S
C2318 H2332 0.961 . S
C2319 C2316 1.539 . S
C2319 H2333 0.958 . S
C2319 H2334 0.961 . S
C2319 H2335 0.960 . S
H2320 C2304 0.931 . S
H2321 C2309 0.929 . S
H2322 C2310 0.960 . S
H2323 C2310 0.962 . S
H2324 C2310 0.960 . S
H2325 C2311 0.961 . S
H2326 C2311 0.961 . S
H2327 C2311 0.961 . S
H2328 C2312 0.931 . S
H2329 C2317 0.930 . S
H2330 C2318 0.956 . S
H2331 C2318 0.961 . S
H2332 C2318 0.961 . S
H2333 C2319 0.958 . S
H2334 C2319 0.961 . S
H2335 C2319 0.960 . S
C2336 C2337 1.391 . S
C2336 C2338 1.394 . S
C2336 H2352 0.931 . S
C2337 C2336 1.391 . S
C2337 C2341 1.376 . S
C2338 C2336 1.394 . S
C2338 C2339 1.369 . S
C2338 C2342 1.531 . S
C2339 C2338 1.369 . S
C2339 C2340 1.410 . S
C2339 C2347 1.503 . S
C2340 C2339 1.410 . S
C2340 C2341 1.392 . S
C2340 C2343 1.511 . S
C2341 C2337 1.376 . S
C2341 C2340 1.392 . S
C2341 H2353 0.929 . S
C2342 C2338 1.531 . S
C2342 H2354 0.960 . S
C2342 H2355 0.962 . S
C2342 H2356 0.960 . S
C2343 C2340 1.511 . S
C2343 H2357 0.961 . S
C2343 H2358 0.961 . S
C2343 H2359 0.961 . S
C2344 C2345 1.370 . S
C2344 C2346 1.363 . S
C2344 H2360 0.931 . S
C2345 C2344 1.370 . S
C2345 C2349 1.408 . S
C2346 C2344 1.363 . S
C2346 C2347 1.370 . S
C2346 C2350 1.524 . S
C2347 C2339 1.503 . S
C2347 C2346 1.370 . S
C2347 C2348 1.403 . S
C2348 C2347 1.403 . S
C2348 C2349 1.404 . S
C2348 C2351 1.539 . S
C2349 C2345 1.408 . S
C2349 C2348 1.404 . S
C2349 H2361 0.930 . S
C2350 C2346 1.524 . S
C2350 H2362 0.956 . S
C2350 H2363 0.961 . S
C2350 H2364 0.961 . S
C2351 C2348 1.539 . S
C2351 H2365 0.958 . S
C2351 H2366 0.961 . S
C2351 H2367 0.960 . S
H2352 C2336 0.931 . S
H2353 C2341 0.929 . S
H2354 C2342 0.960 . S
H2355 C2342 0.962 . S
H2356 C2342 0.960 . S
H2357 C2343 0.961 . S
H2358 C2343 0.961 . S
H2359 C2343 0.961 . S
H2360 C2344 0.931 . S
H2361 C2349 0.930 . S
H2362 C2350 0.956 . S
H2363 C2350 0.961 . S
H2364 C2350 0.961 . S
H2365 C2351 0.958 . S
H2366 C2351 0.961 . S
H2367 C2351 0.960 . S
C2368 C2369 1.391 . S
C2368 C2370 1.394 . S
C2368 H2384 0.931 . S
C2369 C2368 1.391 . S
C2369 C2373 1.376 . S
C2370 C2368 1.394 . S
C2370 C2371 1.369 . S
C2370 C2374 1.531 . S
C2371 C2370 1.369 . S
C2371 C2372 1.410 . S
C2371 C2379 1.503 . S
C2372 C2371 1.410 . S
C2372 C2373 1.392 . S
C2372 C2375 1.511 . S
C2373 C2369 1.376 . S
C2373 C2372 1.392 . S
C2373 H2385 0.929 . S
C2374 C2370 1.531 . S
C2374 H2386 0.960 . S
C2374 H2387 0.962 . S
C2374 H2388 0.960 . S
C2375 C2372 1.511 . S
C2375 H2389 0.961 . S
C2375 H2390 0.961 . S
C2375 H2391 0.961 . S
C2376 C2377 1.370 . S
C2376 C2378 1.363 . S
C2376 H2392 0.931 . S
C2377 C2376 1.370 . S
C2377 C2381 1.408 . S
C2378 C2376 1.363 . S
C2378 C2379 1.370 . S
C2378 C2382 1.524 . S
C2379 C2371 1.503 . S
C2379 C2378 1.370 . S
C2379 C2380 1.403 . S
C2380 C2379 1.403 . S
C2380 C2381 1.404 . S
C2380 C2383 1.539 . S
C2381 C2377 1.408 . S
C2381 C2380 1.404 . S
C2381 H2393 0.930 . S
C2382 C2378 1.524 . S
C2382 H2394 0.956 . S
C2382 H2395 0.961 . S
C2382 H2396 0.961 . S
C2383 C2380 1.539 . S
C2383 H2397 0.958 . S
C2383 H2398 0.961 . S
C2383 H2399 0.960 . S
H2384 C2368 0.931 . S
H2385 C2373 0.929 . S
H2386 C2374 0.960 . S
H2387 C2374 0.962 . S
H2388 C2374 0.960 . S
H2389 C2375 0.961 . S
H2390 C2375 0.961 . S
H2391 C2375 0.961 . S
H2392 C2376 0.931 . S
H2393 C2381 0.930 . S
H2394 C2382 0.956 . S
H2395 C2382 0.961 . S
H2396 C2382 0.961 . S
H2397 C2383 0.958 . S
H2398 C2383 0.961 . S
H2399 C2383 0.960 . S
C2400 C2401 1.391 . S
C2400 C2402 1.394 . S
C2400 H2416 0.931 . S
C2401 C2400 1.391 . S
C2401 C2405 1.376 . S
C2402 C2400 1.394 . S
C2402 C2403 1.369 . S
C2402 C2406 1.531 . S
C2403 C2402 1.369 . S
C2403 C2404 1.410 . S
C2403 C2411 1.503 . S
C2404 C2403 1.410 . S
C2404 C2405 1.392 . S
C2404 C2407 1.511 . S
C2405 C2401 1.376 . S
C2405 C2404 1.392 . S
C2405 H2417 0.929 . S
C2406 C2402 1.531 . S
C2406 H2418 0.960 . S
C2406 H2419 0.962 . S
C2406 H2420 0.960 . S
C2407 C2404 1.511 . S
C2407 H2421 0.961 . S
C2407 H2422 0.961 . S
C2407 H2423 0.961 . S
C2408 C2409 1.370 . S
C2408 C2410 1.363 . S
C2408 H2424 0.931 . S
C2409 C2408 1.370 . S
C2409 C2413 1.408 . S
C2410 C2408 1.363 . S
C2410 C2411 1.370 . S
C2410 C2414 1.524 . S
C2411 C2403 1.503 . S
C2411 C2410 1.370 . S
C2411 C2412 1.403 . S
C2412 C2411 1.403 . S
C2412 C2413 1.404 . S
C2412 C2415 1.539 . S
C2413 C2409 1.408 . S
C2413 C2412 1.404 . S
C2413 H2425 0.930 . S
C2414 C2410 1.524 . S
C2414 H2426 0.956 . S
C2414 H2427 0.961 . S
C2414 H2428 0.961 . S
C2415 C2412 1.539 . S
C2415 H2429 0.958 . S
C2415 H2430 0.961 . S
C2415 H2431 0.960 . S
H2416 C2400 0.931 . S
H2417 C2405 0.929 . S
H2418 C2406 0.960 . S
H2419 C2406 0.962 . S
H2420 C2406 0.960 . S
H2421 C2407 0.961 . S
H2422 C2407 0.961 . S
H2423 C2407 0.961 . S
H2424 C2408 0.931 . S
H2425 C2413 0.930 . S
H2426 C2414 0.956 . S
H2427 C2414 0.961 . S
H2428 C2414 0.961 . S
H2429 C2415 0.958 . S
H2430 C2415 0.961 . S
H2431 C2415 0.960 . S
C2432 C2433 1.391 . S
C2432 C2434 1.394 . S
C2432 H2448 0.931 . S
C2433 C2432 1.391 . S
C2433 C2437 1.376 . S
C2434 C2432 1.394 . S
C2434 C2435 1.369 . S
C2434 C2438 1.531 . S
C2435 C2434 1.369 . S
C2435 C2436 1.410 . S
C2435 C2443 1.503 . S
C2436 C2435 1.410 . S
C2436 C2437 1.392 . S
C2436 C2439 1.511 . S
C2437 C2433 1.376 . S
C2437 C2436 1.392 . S
C2437 H2449 0.929 . S
C2438 C2434 1.531 . S
C2438 H2450 0.960 . S
C2438 H2451 0.962 . S
C2438 H2452 0.960 . S
C2439 C2436 1.511 . S
C2439 H2453 0.961 . S
C2439 H2454 0.961 . S
C2439 H2455 0.961 . S
C2440 C2441 1.370 . S
C2440 C2442 1.363 . S
C2440 H2456 0.931 . S
C2441 C2440 1.370 . S
C2441 C2445 1.408 . S
C2442 C2440 1.363 . S
C2442 C2443 1.370 . S
C2442 C2446 1.524 . S
C2443 C2435 1.503 . S
C2443 C2442 1.370 . S
C2443 C2444 1.403 . S
C2444 C2443 1.403 . S
C2444 C2445 1.404 . S
C2444 C2447 1.539 . S
C2445 C2441 1.408 . S
C2445 C2444 1.404 . S
C2445 H2457 0.930 . S
C2446 C2442 1.524 . S
C2446 H2458 0.956 . S
C2446 H2459 0.961 . S
C2446 H2460 0.961 . S
C2447 C2444 1.539 . S
C2447 H2461 0.958 . S
C2447 H2462 0.961 . S
C2447 H2463 0.960 . S
H2448 C2432 0.931 . S
H2449 C2437 0.929 . S
H2450 C2438 0.960 . S
H2451 C2438 0.962 . S
H2452 C2438 0.960 . S
H2453 C2439 0.961 . S
H2454 C2439 0.961 . S
H2455 C2439 0.961 . S
H2456 C2440 0.931 . S
H2457 C2445 0.930 . S
H2458 C2446 0.956 . S
H2459 C2446 0.961 . S
H2460 C2446 0.961 . S
H2461 C2447 0.958 . S
H2462 C2447 0.961 . S
H2463 C2447 0.960 . S
C2464 C2465 1.391 . S
C2464 C2466 1.394 . S
C2464 H2480 0.931 . S
C2465 C2464 1.391 . S
C2465 C2469 1.376 . S
C2466 C2464 1.394 . S
C2466 C2467 1.369 . S
C2466 C2470 1.531 . S
C2467 C2466 1.369 . S
C2467 C2468 1.410 . S
C2467 C2475 1.503 . S
C2468 C2467 1.410 . S
C2468 C2469 1.392 . S
C2468 C2471 1.511 . S
C2469 C2465 1.376 . S
C2469 C2468 1.392 . S
C2469 H2481 0.929 . S
C2470 C2466 1.531 . S
C2470 H2482 0.960 . S
C2470 H2483 0.962 . S
C2470 H2484 0.960 . S
C2471 C2468 1.511 . S
C2471 H2485 0.961 . S
C2471 H2486 0.961 . S
C2471 H2487 0.961 . S
C2472 C2473 1.370 . S
C2472 C2474 1.363 . S
C2472 H2488 0.931 . S
C2473 C2472 1.370 . S
C2473 C2477 1.408 . S
C2474 C2472 1.363 . S
C2474 C2475 1.370 . S
C2474 C2478 1.524 . S
C2475 C2467 1.503 . S
C2475 C2474 1.370 . S
C2475 C2476 1.403 . S
C2476 C2475 1.403 . S
C2476 C2477 1.404 . S
C2476 C2479 1.539 . S
C2477 C2473 1.408 . S
C2477 C2476 1.404 . S
C2477 H2489 0.930 . S
C2478 C2474 1.524 . S
C2478 H2490 0.956 . S
C2478 H2491 0.961 . S
C2478 H2492 0.961 . S
C2479 C2476 1.539 . S
C2479 H2493 0.958 . S
C2479 H2494 0.961 . S
C2479 H2495 0.960 . S
H2480 C2464 0.931 . S
H2481 C2469 0.929 . S
H2482 C2470 0.960 . S
H2483 C2470 0.962 . S
H2484 C2470 0.960 . S
H2485 C2471 0.961 . S
H2486 C2471 0.961 . S
H2487 C2471 0.961 . S
H2488 C2472 0.931 . S
H2489 C2477 0.930 . S
H2490 C2478 0.956 . S
H2491 C2478 0.961 . S
H2492 C2478 0.961 . S
H2493 C2479 0.958 . S
H2494 C2479 0.961 . S
H2495 C2479 0.960 . S
C449 C119 1.432 . S
C457 C7 1.393 . S
C481 C357 1.397 . S
C489 C21 1.409 . S
C513 C147 1.385 . S
C521 C35 1.409 . S
C545 C385 1.395 . S
C553 C49 1.410 . S
C577 C175 1.367 . S
C585 C63 1.419 . S
C609 C77 1.404 . S
C617 C413 1.406 . S
C641 C91 1.399 . S
C649 C203 1.408 . S
C673 C105 1.432 . S
C681 C441 1.391 . S
C705 C245 1.374 . S
C713 C133 1.415 . S
C737 C273 1.368 . S
C745 C161 1.419 . S
C769 C189 1.371 . S
C777 C301 1.416 . S
C801 C217 1.435 . S
C809 C329 1.391 . S
C833 C231 1.432 . S
C841 C343 1.393 . S
C865 C371 1.422 . S
C873 C259 1.398 . S
C897 C287 1.435 . S
C905 C399 1.391 . S
C929 C427 1.373 . S
C937 C315 1.415 . S
C961 C261 2.001 . S
C969 C9 2.001 . S
C993 C275 2.002 . S
C1001 C23 2.001 . S
C1025 C37 1.996 . S
C1033 C233 2.003 . S
C1057 C51 1.992 . S
C1065 C247 2.004 . S
C1089 C317 1.996 . S
C1097 C65 2.001 . S
C1121 C79 1.993 . S
C1129 C331 2.002 . S
C1153 C289 1.992 . S
C1161 C93 2.003 . S
C1185 C303 1.991 . S
C1193 C107 2.003 . S
C1217 C121 1.996 . S
C1225 C373 2.000 . S
C1249 C387 1.991 . S
C1257 C135 2.003 . S
C1281 C149 1.996 . S
C1289 C345 2.000 . S
C1313 C163 2.001 . S
C1321 C359 2.002 . S
C1345 C177 2.001 . S
C1353 C429 1.999 . S
C1377 C191 2.002 . S
C1385 C443 2.000 . S
C1409 C401 1.995 . S
C1417 C205 2.000 . S
C1441 C415 1.997 . S
C1449 C219 2.000 . S
C1473 C90 1.540 . S
C1481 C6 1.555 . S
C1505 C104 1.565 . S
C1513 C20 1.559 . S
C1537 C62 1.588 . S
C1545 C34 1.574 . S
C1569 C48 1.579 . S
C1577 C76 1.577 . S
C1601 C202 1.556 . S
C1609 C118 1.569 . S
C1633 C216 1.567 . S
C1641 C132 1.563 . S
C1665 C174 1.537 . S
C1673 C146 1.555 . S
C1697 C188 1.578 . S
C1705 C160 1.576 . S
C1729 C314 1.537 . S
C1737 C230 1.556 . S
C1761 C328 1.569 . S
C1769 C244 1.560 . S
C1793 C258 1.536 . S
C1801 C286 1.558 . S
C1825 C272 1.584 . S
C1833 C300 1.568 . S
C1857 C426 1.586 . S
C1865 C342 1.577 . S
C1889 C440 1.585 . S
C1897 C356 1.572 . S
C1921 C370 1.587 . S
C1929 C398 1.577 . S
C1953 C384 1.574 . S
C1961 C412 1.566 . S
C1985 C8 1.567 . S
C1993 C302 1.563 . S
C2017 C316 1.568 . S
C2025 C22 1.563 . S
C2049 C330 1.556 . S
C2057 C36 1.568 . S
C2081 C50 1.556 . S
C2089 C288 1.568 . S
C2113 C274 1.567 . S
C2121 C64 1.564 . S
C2145 C78 1.557 . S
C2153 C232 1.566 . S
C2177 C246 1.561 . S
C2185 C92 1.565 . S
C2209 C106 1.558 . S
C2217 C260 1.566 . S
C2241 C414 1.568 . S
C2249 C120 1.563 . S
C2273 C428 1.563 . S
C2281 C134 1.565 . S
C2305 C148 1.563 . S
C2313 C442 1.565 . S
C2337 C400 1.565 . S
C2345 C162 1.564 . S
C2369 C386 1.567 . S
C2377 C176 1.563 . S
C2401 C190 1.567 . S
C2409 C344 1.564 . S
C2433 C358 1.556 . S
C2441 C204 1.568 . S
C2465 C218 1.556 . S
C2473 C372 1.568 . S
