# Generated by pormake.
# Topology wme, (6)-cn, num edge types: 1
# Building blocks:
#     Node 0, Type 0, BuildingBlock: MIFKUJ_clean_sbu_0, # of connection points: 6
#     Node 1, Type 0, BuildingBlock: MIFKUJ_clean_sbu_0, # of connection points: 6
#     Node 2, Type 0, BuildingBlock: MIFKUJ_clean_sbu_0, # of connection points: 6
#     Node 3, Type 0, BuildingBlock: MIFKUJ_clean_sbu_0, # of connection points: 6
#     Node 4, Type 0, BuildingBlock: MIFKUJ_clean_sbu_0, # of connection points: 6
#     Node 5, Type 0, BuildingBlock: MIFKUJ_clean_sbu_0, # of connection points: 6
#     Node 6, Type 0, BuildingBlock: MIFKUJ_clean_sbu_0, # of connection points: 6
#     Node 7, Type 0, BuildingBlock: MIFKUJ_clean_sbu_0, # of connection points: 6
#     Node 8, Type 0, BuildingBlock: MIFKUJ_clean_sbu_0, # of connection points: 6
#     Node 9, Type 0, BuildingBlock: MIFKUJ_clean_sbu_0, # of connection points: 6
#     Node 10, Type 0, BuildingBlock: MIFKUJ_clean_sbu_0, # of connection points: 6
#     Node 11, Type 0, BuildingBlock: MIFKUJ_clean_sbu_0, # of connection points: 6
#     Edge 12, Type (0, 0), BuildingBlock: UVAHIK_clean_linker_0, # of connection points: 2
#     Edge 13, Type (0, 0), BuildingBlock: UVAHIK_clean_linker_0, # of connection points: 2
#     Edge 14, Type (0, 0), BuildingBlock: UVAHIK_clean_linker_0, # of connection points: 2
#     Edge 15, Type (0, 0), BuildingBlock: UVAHIK_clean_linker_0, # of connection points: 2
#     Edge 16, Type (0, 0), BuildingBlock: UVAHIK_clean_linker_0, # of connection points: 2
#     Edge 17, Type (0, 0), BuildingBlock: UVAHIK_clean_linker_0, # of connection points: 2
#     Edge 18, Type (0, 0), BuildingBlock: UVAHIK_clean_linker_0, # of connection points: 2
#     Edge 19, Type (0, 0), BuildingBlock: UVAHIK_clean_linker_0, # of connection points: 2
#     Edge 20, Type (0, 0), BuildingBlock: UVAHIK_clean_linker_0, # of connection points: 2
#     Edge 21, Type (0, 0), BuildingBlock: UVAHIK_clean_linker_0, # of connection points: 2
#     Edge 22, Type (0, 0), BuildingBlock: UVAHIK_clean_linker_0, # of connection points: 2
#     Edge 23, Type (0, 0), BuildingBlock: UVAHIK_clean_linker_0, # of connection points: 2
#     Edge 24, Type (0, 0), BuildingBlock: UVAHIK_clean_linker_0, # of connection points: 2
#     Edge 25, Type (0, 0), BuildingBlock: UVAHIK_clean_linker_0, # of connection points: 2
#     Edge 26, Type (0, 0), BuildingBlock: UVAHIK_clean_linker_0, # of connection points: 2
#     Edge 27, Type (0, 0), BuildingBlock: UVAHIK_clean_linker_0, # of connection points: 2
#     Edge 28, Type (0, 0), BuildingBlock: UVAHIK_clean_linker_0, # of connection points: 2
#     Edge 29, Type (0, 0), BuildingBlock: UVAHIK_clean_linker_0, # of connection points: 2
#     Edge 30, Type (0, 0), BuildingBlock: UVAHIK_clean_linker_0, # of connection points: 2
#     Edge 31, Type (0, 0), BuildingBlock: UVAHIK_clean_linker_0, # of connection points: 2
#     Edge 32, Type (0, 0), BuildingBlock: UVAHIK_clean_linker_0, # of connection points: 2
#     Edge 33, Type (0, 0), BuildingBlock: UVAHIK_clean_linker_0, # of connection points: 2
#     Edge 34, Type (0, 0), BuildingBlock: UVAHIK_clean_linker_0, # of connection points: 2
#     Edge 35, Type (0, 0), BuildingBlock: UVAHIK_clean_linker_0, # of connection points: 2
#     Edge 36, Type (0, 0), BuildingBlock: UVAHIK_clean_linker_0, # of connection points: 2
#     Edge 37, Type (0, 0), BuildingBlock: UVAHIK_clean_linker_0, # of connection points: 2
#     Edge 38, Type (0, 0), BuildingBlock: UVAHIK_clean_linker_0, # of connection points: 2
#     Edge 39, Type (0, 0), BuildingBlock: UVAHIK_clean_linker_0, # of connection points: 2
#     Edge 40, Type (0, 0), BuildingBlock: UVAHIK_clean_linker_0, # of connection points: 2
#     Edge 41, Type (0, 0), BuildingBlock: UVAHIK_clean_linker_0, # of connection points: 2
#     Edge 42, Type (0, 0), BuildingBlock: UVAHIK_clean_linker_0, # of connection points: 2
#     Edge 43, Type (0, 0), BuildingBlock: UVAHIK_clean_linker_0, # of connection points: 2
#     Edge 44, Type (0, 0), BuildingBlock: UVAHIK_clean_linker_0, # of connection points: 2
#     Edge 45, Type (0, 0), BuildingBlock: UVAHIK_clean_linker_0, # of connection points: 2
#     Edge 46, Type (0, 0), BuildingBlock: UVAHIK_clean_linker_0, # of connection points: 2
#     Edge 47, Type (0, 0), BuildingBlock: UVAHIK_clean_linker_0, # of connection points: 2
# Relax obj value: 0.072
# Max RMSD: 0.160
# Mean RMSD: 0.160
data_MOF--net-wme--node1-MIFKUJ_clean_sbu_0--edge1-UVAHIK_clean_linker_0
_symmetry_space_group_name_H-M    P1
_symmetry_Int_Tables_number       1
_symmetry_cell_setting            triclinic
loop_
_symmetry_equiv_pos_as_xyz
'x, y, z'
_cell_length_a     42.952064
_cell_length_b     42.915729
_cell_length_c     69.088969
_cell_angle_alpha  89.990035
_cell_angle_beta   90.001764
_cell_angle_gamma 119.8953
loop_
_atom_site_label
_atom_site_type_symbol
_atom_site_fract_x
_atom_site_fract_y
_atom_site_fract_z
_atom_type_partial_charge
Zn0 Zn 0.21882 0.30551 0.11533 0.0
Zn1 Zn 0.21457 0.375 0.10248 0.0
C2 C 0.14507 0.26859 0.12468 0.0
O3 O 0.15965 0.26869 0.14141 0.0
C4 C 0.28382 0.42889 0.08942 0.0
O5 O 0.26612 0.42199 0.07302 0.0
O6 O 0.22434 0.26204 0.12025 0.0
O7 O 0.24842 0.32994 0.09245 0.0
O8 O 0.20792 0.34095 0.08008 0.0
C9 C 0.2142 0.2395 0.10641 0.0
O10 O 0.20199 0.24641 0.0905 0.0
O11 O 0.16554 0.28457 0.11037 0.0
C12 C 0.19331 0.42699 0.10827 0.0
O13 O 0.20651 0.42646 0.12534 0.0
O14 O 0.19268 0.40579 0.09518 0.0
O15 O 0.19681 0.35678 0.12991 0.0
O16 O 0.2334 0.33694 0.13833 0.0
O17 O 0.26754 0.41085 0.10439 0.0
C18 C 0.23129 0.33126 0.07789 0.0
C19 C 0.21454 0.35103 0.14283 0.0
Zn20 Zn 0.90938 0.20606 0.60658 0.0
Zn21 Zn 0.83322 0.19467 0.5972 0.0
C22 C 0.88062 0.13288 0.61682 0.0
O23 O 0.89703 0.14896 0.63293 0.0
C24 C 0.84879 0.26423 0.58422 0.0
O25 O 0.83614 0.24604 0.56808 0.0
O26 O 0.96037 0.21638 0.61039 0.0
O27 O 0.90855 0.23236 0.58308 0.0
O28 O 0.85737 0.1861 0.57397 0.0
C29 C 0.97569 0.2111 0.596 0.0
O30 O 0.95864 0.20152 0.57937 0.0
O31 O 0.88092 0.152 0.60267 0.0
C32 C 0.76052 0.1727 0.60575 0.0
O33 O 0.77527 0.18349 0.62289 0.0
O34 O 0.78009 0.17365 0.59167 0.0
O35 O 0.83696 0.17713 0.62398 0.0
O36 O 0.89256 0.21892 0.63046 0.0
O37 O 0.85142 0.24812 0.59906 0.0
C38 C 0.88802 0.21251 0.56976 0.0
C39 C 0.86095 0.19703 0.63615 0.0
Zn40 Zn 0.72031 0.91883 0.11361 0.0
Zn41 Zn 0.65348 0.84394 0.10175 0.0
C42 C 0.76163 0.88583 0.12251 0.0
O43 O 0.76172 0.90048 0.13923 0.0
C44 C 0.59943 0.85907 0.08845 0.0
O45 O 0.60711 0.84872 0.0721 0.0
O46 O 0.76172 0.96913 0.11786 0.0
O47 O 0.69289 0.92058 0.09107 0.0
O48 O 0.68747 0.87088 0.07922 0.0
C49 C 0.78328 0.98346 0.10374 0.0
O50 O 0.77661 0.96555 0.08742 0.0
O51 O 0.74409 0.88887 0.10849 0.0
C52 C 0.60259 0.77174 0.10894 0.0
O53 O 0.60439 0.78701 0.12569 0.0
O54 O 0.62271 0.79102 0.09519 0.0
O55 O 0.6728 0.84541 0.12902 0.0
O56 O 0.6906 0.90148 0.13722 0.0
O57 O 0.61707 0.86072 0.10359 0.0
C58 C 0.69417 0.90302 0.0767 0.0
C59 C 0.67803 0.8688 0.14188 0.0
Zn60 Zn 0.80551 0.70611 0.60835 0.0
Zn61 Zn 0.81641 0.64104 0.59902 0.0
C62 C 0.87966 0.75005 0.61704 0.0
O63 O 0.86511 0.75216 0.63337 0.0
C64 C 0.74744 0.58635 0.58591 0.0
O65 O 0.76573 0.59266 0.56974 0.0
O66 O 0.79639 0.74766 0.61206 0.0
O67 O 0.7774 0.67795 0.58561 0.0
O68 O 0.82358 0.67359 0.57573 0.0
C69 C 0.80147 0.76806 0.59761 0.0
O70 O 0.81019 0.75998 0.58088 0.0
O71 O 0.85922 0.73023 0.60355 0.0
C72 C 0.8376 0.58939 0.60657 0.0
O73 O 0.8245 0.59101 0.62348 0.0
O74 O 0.83848 0.60997 0.59304 0.0
O75 O 0.83356 0.66157 0.62613 0.0
O76 O 0.79307 0.67744 0.63241 0.0
O77 O 0.76325 0.60485 0.60086 0.0
C78 C 0.7966 0.67723 0.57193 0.0
C79 C 0.81422 0.66681 0.63821 0.0
Zn80 Zn 0.10715 0.80243 0.10817 0.0
Zn81 Zn 0.18349 0.81344 0.09848 0.0
C82 C 0.13714 0.87501 0.1197 0.0
O83 O 0.1206 0.85813 0.13562 0.0
C84 C 0.16896 0.74456 0.08462 0.0
O85 O 0.18131 0.76322 0.06859 0.0
O86 O 0.05654 0.79317 0.11227 0.0
O87 O 0.10729 0.77704 0.08414 0.0
O88 O 0.15935 0.82266 0.07543 0.0
C89 C 0.04199 0.80036 0.09822 0.0
O90 O 0.05943 0.81096 0.08173 0.0
O91 O 0.13648 0.8566 0.1051 0.0
C92 C 0.25577 0.83372 0.10671 0.0
O93 O 0.24023 0.81949 0.1233 0.0
O94 O 0.23678 0.83549 0.09306 0.0
O95 O 0.17937 0.82949 0.1256 0.0
O96 O 0.12349 0.78779 0.1316 0.0
O97 O 0.16598 0.76008 0.09962 0.0
C98 C 0.12843 0.7969 0.07101 0.0
C99 C 0.15505 0.80924 0.13754 0.0
Zn100 Zn 0.30326 0.10114 0.60457 0.0
Zn101 Zn 0.36931 0.17725 0.59569 0.0
C102 C 0.2613 0.13261 0.61527 0.0
O103 O 0.26108 0.11644 0.63147 0.0
C104 C 0.42424 0.16251 0.58299 0.0
O105 O 0.42019 0.17659 0.56696 0.0
O106 O 0.2617 0.05048 0.60825 0.0
O107 O 0.33013 0.10158 0.58112 0.0
O108 O 0.3371 0.15378 0.57215 0.0
C109 C 0.24245 0.03448 0.59356 0.0
O110 O 0.25159 0.05056 0.57665 0.0
O111 O 0.2792 0.13117 0.60096 0.0
C112 C 0.42222 0.24906 0.60429 0.0
O113 O 0.42009 0.23322 0.62091 0.0
O114 O 0.40156 0.23049 0.59054 0.0
O115 O 0.34861 0.17296 0.62273 0.0
O116 O 0.33341 0.11655 0.62818 0.0
O117 O 0.40421 0.15866 0.59741 0.0
C118 C 0.33242 0.12294 0.56785 0.0
C119 C 0.34472 0.14823 0.63435 0.0
Zn120 Zn 0.71165 0.80566 0.37629 0.0
Zn121 Zn 0.64635 0.81686 0.38443 0.0
C122 C 0.75525 0.87891 0.36561 0.0
O123 O 0.7558 0.86282 0.34954 0.0
C124 C 0.59142 0.74743 0.39728 0.0
O125 O 0.59546 0.76578 0.41321 0.0
O126 O 0.75275 0.79573 0.37292 0.0
O127 O 0.68446 0.77992 0.39987 0.0
O128 O 0.67854 0.82615 0.40799 0.0
C129 C 0.77178 0.79872 0.38768 0.0
O130 O 0.76261 0.8058 0.40455 0.0
O131 O 0.73656 0.85979 0.37978 0.0
C132 C 0.5938 0.83642 0.37556 0.0
O133 O 0.5963 0.82325 0.35884 0.0
O134 O 0.61407 0.83791 0.3894 0.0
O135 O 0.66756 0.83333 0.35754 0.0
O136 O 0.68213 0.79155 0.35239 0.0
O137 O 0.61149 0.76337 0.38283 0.0
C138 C 0.6829 0.79999 0.41279 0.0
C139 C 0.67187 0.81266 0.34599 0.0
Zn140 Zn 0.9164 0.70951 0.87297 0.0
Zn141 Zn 0.84053 0.64327 0.88232 0.0
C142 C 0.88486 0.75227 0.86409 0.0
O143 O 0.90152 0.75428 0.84779 0.0
C144 C 0.85378 0.58755 0.8953 0.0
O145 O 0.84213 0.59405 0.91154 0.0
O146 O 0.96691 0.75136 0.86968 0.0
O147 O 0.91654 0.6809 0.89553 0.0
O148 O 0.86569 0.67542 0.90571 0.0
C149 C 0.98162 0.77112 0.88441 0.0
O150 O 0.9642 0.76236 0.90094 0.0
O151 O 0.88613 0.73307 0.87777 0.0
C152 C 0.76842 0.5922 0.87424 0.0
O153 O 0.7842 0.59313 0.85779 0.0
O154 O 0.7873 0.61293 0.8879 0.0
O155 O 0.84427 0.66415 0.8553 0.0
O156 O 0.90079 0.68136 0.8487 0.0
O157 O 0.8568 0.60639 0.88044 0.0
C158 C 0.89649 0.6794 0.90933 0.0
C159 C 0.86881 0.67001 0.84308 0.0
Zn160 Zn 0.20916 0.90805 0.37351 0.0
Zn161 Zn 0.19803 0.83147 0.38139 0.0
C162 C 0.13507 0.87854 0.36457 0.0
O163 O 0.14973 0.89574 0.3484 0.0
C164 C 0.26703 0.84576 0.39444 0.0
O165 O 0.2485 0.83274 0.41045 0.0
O166 O 0.21882 0.95908 0.37075 0.0
O167 O 0.23648 0.90624 0.39627 0.0
O168 O 0.18991 0.8551 0.40507 0.0
C169 C 0.21612 0.97469 0.38579 0.0
O170 O 0.20933 0.95793 0.4025 0.0
O171 O 0.1554 0.87868 0.37801 0.0
C172 C 0.17535 0.7586 0.37239 0.0
O173 O 0.1861 0.77345 0.35527 0.0
O174 O 0.17649 0.77815 0.38653 0.0
O175 O 0.18101 0.83634 0.35458 0.0
O176 O 0.22163 0.89286 0.34902 0.0
O177 O 0.25134 0.84906 0.3796 0.0
C178 C 0.21668 0.88538 0.4095 0.0
C179 C 0.20052 0.86141 0.34282 0.0
Zn180 Zn 0.30002 0.20792 0.86482 0.0
Zn181 Zn 0.37127 0.20651 0.87827 0.0
C182 C 0.26338 0.13302 0.85826 0.0
O183 O 0.26163 0.14528 0.84111 0.0
C184 C 0.42429 0.27597 0.89129 0.0
O185 O 0.41527 0.25869 0.90788 0.0
O186 O 0.25587 0.2122 0.86007 0.0
O187 O 0.32623 0.24078 0.88628 0.0
O188 O 0.33728 0.20168 0.90044 0.0
C189 C 0.23366 0.20239 0.87405 0.0
O190 O 0.24111 0.19094 0.89007 0.0
O191 O 0.28058 0.15545 0.87165 0.0
C192 C 0.42268 0.18469 0.8733 0.0
O193 O 0.42249 0.19791 0.85618 0.0
O194 O 0.4014 0.18427 0.88627 0.0
O195 O 0.35346 0.18772 0.85081 0.0
O196 O 0.32958 0.22036 0.8413 0.0
O197 O 0.40793 0.25935 0.876 0.0
C198 C 0.32758 0.22524 0.90152 0.0
C199 C 0.34563 0.2031 0.83743 0.0
Zn200 Zn 0.10768 0.3041 0.37616 0.0
Zn201 Zn 0.18349 0.36897 0.38507 0.0
C202 C 0.13766 0.2601 0.36686 0.0
O203 O 0.12082 0.25831 0.35065 0.0
C204 C 0.16831 0.42402 0.39684 0.0
O205 O 0.18207 0.4203 0.41308 0.0
O206 O 0.05705 0.26287 0.37223 0.0
O207 O 0.10792 0.33154 0.39931 0.0
O208 O 0.15934 0.33724 0.40872 0.0
C209 C 0.04132 0.24233 0.38655 0.0
O210 O 0.05766 0.25003 0.4034 0.0
O211 O 0.13715 0.27969 0.38054 0.0
C212 C 0.25587 0.42019 0.37631 0.0
O213 O 0.24083 0.41591 0.35923 0.0
O214 O 0.23662 0.40154 0.39047 0.0
O215 O 0.17968 0.34732 0.35831 0.0
O216 O 0.12392 0.33361 0.35236 0.0
O217 O 0.16489 0.40377 0.38259 0.0
C218 C 0.12865 0.33316 0.41278 0.0
C219 C 0.15547 0.34374 0.34641 0.0
Zn220 Zn 0.79718 0.09482 0.87008 0.0
Zn221 Zn 0.80695 0.17146 0.88043 0.0
C222 C 0.8701 0.12654 0.8595 0.0
O223 O 0.85392 0.11042 0.84335 0.0
C224 C 0.73916 0.15859 0.89496 0.0
O225 O 0.75838 0.17061 0.91084 0.0
O226 O 0.78867 0.04413 0.86705 0.0
O227 O 0.76953 0.0956 0.89283 0.0
O228 O 0.81545 0.14564 0.90304 0.0
C229 C 0.79562 0.03075 0.88175 0.0
O230 O 0.80578 0.04948 0.89785 0.0
O231 O 0.85104 0.12497 0.87397 0.0
C232 C 0.82911 0.24464 0.87305 0.0
O233 O 0.8151 0.22998 0.85626 0.0
O234 O 0.83011 0.22476 0.88644 0.0
O235 O 0.82192 0.16761 0.8528 0.0
O236 O 0.78375 0.1106 0.84621 0.0
O237 O 0.75391 0.15519 0.87975 0.0
C238 C 0.78963 0.11421 0.90659 0.0
C239 C 0.80343 0.14283 0.84065 0.0
C240 C 0.16036 0.93219 0.10064 0.0
C241 C 0.15364 0.91456 0.11857 0.0
C242 C 0.17225 0.96906 0.09979 0.0
C243 C 0.17294 0.0414 0.12956 0.0
H244 H 0.23547 0.10345 0.089 0.0
C245 C 0.21828 0.19272 0.12641 0.0
C246 C 0.21412 0.20508 0.10829 0.0
C247 C 0.21535 0.15885 0.12816 0.0
C248 C 0.21792 0.0864 0.10039 0.0
H249 H 0.15613 0.92209 0.14968 0.0
H250 H 0.17789 0.98633 0.14825 0.0
H251 H 0.22281 0.0414 0.09114 0.0
H252 H 0.20501 0.19219 0.0777 0.0
H253 H 0.20009 0.13336 0.08077 0.0
H254 H 0.16802 0.08638 0.13876 0.0
C255 C 0.17287 0.97165 0.13479 0.0
C256 C 0.21054 0.05079 0.10158 0.0
C257 C 0.16061 0.93481 0.13562 0.0
C258 C 0.20819 0.18341 0.09189 0.0
C259 C 0.20562 0.14977 0.09362 0.0
C260 C 0.18056 0.07703 0.12845 0.0
C261 C 0.17804 0.98916 0.11687 0.0
C262 C 0.18764 0.02768 0.11608 0.0
C263 C 0.20861 0.13685 0.1118 0.0
C264 C 0.20281 0.09983 0.11374 0.0
H265 H 0.15509 0.91726 0.08724 0.0
H266 H 0.17557 0.98146 0.08572 0.0
H267 H 0.1546 0.02433 0.14068 0.0
H268 H 0.22288 0.2088 0.1393 0.0
H269 H 0.21809 0.14973 0.14235 0.0
C270 C 0.22404 0.15611 0.63012 0.0
C271 C 0.23854 0.1494 0.61347 0.0
C272 C 0.19969 0.16859 0.62859 0.0
C273 C 0.16122 0.20774 0.59434 0.0
H274 H 0.08018 0.1638 0.62953 0.0
C275 C 0.02788 0.20796 0.58204 0.0
C276 C 0.01046 0.21203 0.59828 0.0
C277 C 0.05884 0.2053 0.58424 0.0
C278 C 0.10288 0.17677 0.61978 0.0
H279 H 0.23977 0.15168 0.58212 0.0
H280 H 0.19653 0.17267 0.57938 0.0
H281 H 0.1283 0.14988 0.63256 0.0
H282 H 0.01272 0.2178 0.62951 0.0
H283 H 0.0668 0.21314 0.63334 0.0
H284 H 0.13491 0.23376 0.58123 0.0
C285 C 0.20442 0.16887 0.59368 0.0
C286 C 0.13059 0.16883 0.62152 0.0
C287 C 0.22913 0.15669 0.59523 0.0
C288 C 0.02541 0.2146 0.61671 0.0
C289 C 0.05627 0.21171 0.61891 0.0
C290 C 0.13331 0.21551 0.59252 0.0
C291 C 0.18884 0.17431 0.61035 0.0
C292 C 0.16011 0.18408 0.60879 0.0
C293 C 0.073 0.20643 0.60273 0.0
C294 C 0.10374 0.19997 0.60518 0.0
H295 H 0.23108 0.15119 0.64441 0.0
H296 H 0.189 0.17333 0.64176 0.0
H297 H 0.18371 0.22037 0.58444 0.0
H298 H 0.01714 0.20597 0.56762 0.0
H299 H 0.07088 0.20097 0.57149 0.0
C300 C 0.8279 0.03474 0.12419 0.0
C301 C 0.81691 0.01833 0.10596 0.0
C302 C 0.86125 0.06598 0.12643 0.0
C303 C 0.93572 0.14115 0.09962 0.0
H304 H 0.99374 0.14021 0.14233 0.0
C305 C 0.08996 0.23594 0.10395 0.0
C306 C 0.10562 0.24702 0.12234 0.0
C307 C 0.0531 0.21171 0.10212 0.0
C308 C 0.97778 0.14137 0.13052 0.0
H309 H 0.83169 0.02271 0.07563 0.0
H310 H 0.88977 0.077 0.07956 0.0
H311 H 0.93214 0.09165 0.13904 0.0
H312 H 0.09461 0.24333 0.15314 0.0
H313 H 0.03043 0.20206 0.14995 0.0
H314 H 0.98161 0.19079 0.09101 0.0
C315 C 0.87261 0.06588 0.09212 0.0
C316 C 0.94238 0.11342 0.12863 0.0
C317 C 0.83939 0.03458 0.0899 0.0
C318 C 0.08343 0.23492 0.13877 0.0
C319 C 0.04663 0.21104 0.13694 0.0
C320 C 0.97116 0.16929 0.10157 0.0
C321 C 0.88423 0.08158 0.11046 0.0
C322 C 0.92102 0.11277 0.11307 0.0
C323 C 0.03112 0.19831 0.11864 0.0
C324 C 0.99275 0.1696 0.11697 0.0
H325 H 0.81117 0.02298 0.13684 0.0
H326 H 0.86925 0.0777 0.14071 0.0
H327 H 0.9198 0.14159 0.08758 0.0
H328 H 0.1064 0.24473 0.09102 0.0
H329 H 0.04219 0.20232 0.0878 0.0
C330 C 0.80482 0.82349 0.58357 0.0
C331 C 0.80121 0.80228 0.59987 0.0
C332 C 0.80798 0.85735 0.58572 0.0
C333 C 0.83861 0.93076 0.62085 0.0
H334 H 0.79341 0.9677 0.58631 0.0
C335 C 0.85884 0.07236 0.6316 0.0
C336 C 0.86453 0.09343 0.61499 0.0
C337 C 0.84676 0.03564 0.63002 0.0
C338 C 0.8065 0.95792 0.59597 0.0
H339 H 0.79682 0.79955 0.63117 0.0
H340 H 0.80238 0.85872 0.6349 0.0
H341 H 0.77981 0.90543 0.58313 0.0
H342 H 0.86094 0.09225 0.58368 0.0
H343 H 0.84063 0.02819 0.58085 0.0
H344 H 0.8661 0.9832 0.63336 0.0
C345 C 0.80305 0.84921 0.62047 0.0
C346 C 0.79862 0.9222 0.59417 0.0
C347 C 0.79965 0.81522 0.61832 0.0
C348 C 0.85672 0.0767 0.59676 0.0
C349 C 0.84493 0.03992 0.59516 0.0
C350 C 0.84666 0.96644 0.62256 0.0
C351 C 0.80783 0.8709 0.60421 0.0
C352 C 0.81467 0.90826 0.60657 0.0
C353 C 0.84042 0.01903 0.61177 0.0
C354 C 0.83079 0.98058 0.61013 0.0
H355 H 0.80603 0.8143 0.56914 0.0
H356 H 0.8119 0.87347 0.57291 0.0
H357 H 0.85198 0.92109 0.63038 0.0
H358 H 0.86418 0.08434 0.64588 0.0
H359 H 0.84274 0.02032 0.64316 0.0
C360 C 0.99111 0.80652 0.08483 0.0
C361 C 1.00777 0.80048 0.10079 0.0
C362 C 0.96075 0.81011 0.08736 0.0
C363 C 0.91747 0.83751 0.12403 0.0
H364 H 0.83736 0.79867 0.08817 0.0
C365 C 0.79798 0.86026 0.13618 0.0
C366 C 0.78402 0.86877 0.11991 0.0
C367 C 0.82191 0.84739 0.134 0.0
C368 C 0.85967 0.80999 0.09822 0.0
H369 H 1.00477 0.79225 0.13185 0.0
H370 H 0.95172 0.79854 0.13626 0.0
H371 H 0.88515 0.78401 0.08416 0.0
H372 H 0.78334 0.86934 0.08855 0.0
H373 H 0.82585 0.84762 0.0847 0.0
H374 H 0.89286 0.86432 0.13779 0.0
C375 C 0.96239 0.80078 0.12181 0.0
C376 C 0.88701 0.80149 0.09595 0.0
C377 C 0.99265 0.79694 0.11926 0.0
C378 C 0.79357 0.86293 0.10137 0.0
C379 C 0.81786 0.85034 0.09918 0.0
C380 C 0.89033 0.84618 0.12623 0.0
C381 C 0.94643 0.80797 0.10592 0.0
C382 C 0.9163 0.81528 0.1088 0.0
C383 C 0.83287 0.84304 0.11549 0.0
C384 C 0.86108 0.83264 0.11334 0.0
H385 H 1.002 0.8093 0.07039 0.0
H386 H 0.94932 0.81593 0.07484 0.0
H387 H 0.93998 0.84916 0.13396 0.0
H388 H 0.79082 0.86403 0.15067 0.0
H389 H 0.83215 0.84122 0.14689 0.0
C390 C 0.94137 0.79142 0.62976 0.0
C391 C 0.91892 0.77278 0.61407 0.0
C392 C 0.97794 0.81535 0.6269 0.0
C393 C 0.04062 0.87385 0.58972 0.0
H394 H 0.11358 0.88296 0.62602 0.0
C395 C 0.18927 0.98102 0.57901 0.0
C396 C 0.20841 0.99986 0.59557 0.0
C397 C 0.15561 0.95006 0.5807 0.0
C398 C 0.09352 0.88099 0.61583 0.0
H399 H 0.91753 0.76387 0.58311 0.0
H400 H 0.98153 0.80588 0.5781 0.0
H401 H 0.05171 0.83432 0.6299 0.0
H402 H 0.20757 1.00036 0.62694 0.0
H403 H 0.14855 0.94677 0.62991 0.0
H404 H 0.08194 0.921 0.57597 0.0
C405 C 0.97069 0.80205 0.59262 0.0
C406 C 0.05807 0.85303 0.61803 0.0
C407 C 0.93409 0.77783 0.5955 0.0
C408 C 0.19359 0.98641 0.61389 0.0
C409 C 0.15977 0.95553 0.61559 0.0
C410 C 0.07598 0.9019 0.58758 0.0
C411 C 0.99293 0.82143 0.60826 0.0
C412 C 0.03114 0.84935 0.60511 0.0
C413 C 0.14007 0.93726 0.59899 0.0
C414 C 0.10287 0.90608 0.60071 0.0
H415 H 0.93058 0.78809 0.64427 0.0
H416 H 0.99421 0.83008 0.63923 0.0
H417 H 0.02044 0.87214 0.5797 0.0
H418 H 0.20004 0.99047 0.56466 0.0
H419 H 0.14163 0.93633 0.56761 0.0
C420 C 0.07339 0.85835 0.3518 0.0
C421 C 0.09578 0.86181 0.36747 0.0
C422 C 0.03675 0.84541 0.35463 0.0
C423 C 0.97357 0.8398 0.39186 0.0
H424 H 0.9011 0.77642 0.35527 0.0
C425 C 0.82471 0.79795 0.40233 0.0
C426 C 0.80574 0.79792 0.38574 0.0
C427 C 0.85839 0.80061 0.40069 0.0
C428 C 0.92102 0.79437 0.36555 0.0
H429 H 0.09699 0.85337 0.39835 0.0
H430 H 0.03286 0.83088 0.40331 0.0
H431 H 0.96317 0.79012 0.3514 0.0
H432 H 0.80688 0.79964 0.35437 0.0
H433 H 0.86593 0.80502 0.3515 0.0
H434 H 0.93195 0.84511 0.40568 0.0
C435 C 0.04381 0.83838 0.38884 0.0
C436 C 0.95657 0.80213 0.36335 0.0
C437 C 0.08048 0.85106 0.38598 0.0
C438 C 0.82072 0.79945 0.36744 0.0
C439 C 0.85457 0.80238 0.3658 0.0
C440 C 0.93811 0.83225 0.39399 0.0
C441 C 0.02162 0.83584 0.37322 0.0
C442 C 0.98333 0.82523 0.37637 0.0
C443 C 0.87412 0.80359 0.38242 0.0
C444 C 0.9114 0.80972 0.38076 0.0
H445 H 0.08428 0.8663 0.33735 0.0
H446 H 0.0205 0.84412 0.34233 0.0
H447 H 0.99362 0.85815 0.40197 0.0
H448 H 0.8138 0.7965 0.41665 0.0
H449 H 0.87226 0.80069 0.41379 0.0
C450 C 0.03185 0.81883 0.8646 0.0
C451 C 0.01635 0.80513 0.88277 0.0
C452 C 0.06294 0.85252 0.86309 0.0
C453 C 0.11321 0.93812 0.88991 0.0
H454 H 0.18563 0.95958 0.85063 0.0
C455 C 0.23571 0.08068 0.88128 0.0
C456 C 0.24231 0.09391 0.86222 0.0
C457 C 0.21226 0.04412 0.88489 0.0
C458 C 0.16558 0.95401 0.86165 0.0
H459 H 0.0223 0.81539 0.91368 0.0
H460 H 0.07674 0.87367 0.91107 0.0
H461 H 0.13684 0.89784 0.85488 0.0
H462 H 0.23089 0.07884 0.83198 0.0
H463 H 0.19021 0.01536 0.83826 0.0
H464 H 0.14163 0.99432 0.8965 0.0
C465 C 0.06449 0.85884 0.89793 0.0
C466 C 0.13755 0.91864 0.86405 0.0
C467 C 0.03334 0.82528 0.89943 0.0
C468 C 0.22629 0.06957 0.84685 0.0
C469 C 0.20311 0.03308 0.85044 0.0
C470 C 0.14129 0.97342 0.88756 0.0
C471 C 0.07935 0.87322 0.87972 0.0
C472 C 0.1107 0.91032 0.87803 0.0
C473 C 0.19522 0.02001 0.86951 0.0
C474 C 0.16751 0.9819 0.87322 0.0
H475 H 0.01938 0.80404 0.85148 0.0
H476 H 0.07335 0.86286 0.84881 0.0
H477 H 0.09275 0.93291 0.90061 0.0
H478 H 0.24766 0.09873 0.89344 0.0
H479 H 0.20704 0.0348 0.89974 0.0
C480 C 0.15821 0.21918 0.35356 0.0
C481 C 0.1544 0.23742 0.36947 0.0
C482 C 0.17113 0.19533 0.35608 0.0
C483 C 0.17604 0.13613 0.39257 0.0
H484 H 0.23973 0.12811 0.35567 0.0
C485 C 0.21706 0.02791 0.40127 0.0
C486 C 0.21706 0.00961 0.38439 0.0
C487 C 0.21464 0.05915 0.40012 0.0
C488 C 0.2217 0.12979 0.36603 0.0
H489 H 0.16222 0.24574 0.40045 0.0
H490 H 0.1847 0.20385 0.40486 0.0
H491 H 0.22634 0.17689 0.35252 0.0
H492 H 0.21553 0.0104 0.35303 0.0
H493 H 0.21059 0.06447 0.35102 0.0
H494 H 0.17036 0.08851 0.40574 0.0
C495 C 0.17748 0.20794 0.39045 0.0
C496 C 0.21413 0.15782 0.36425 0.0
C497 C 0.16481 0.23207 0.3879 0.0
C498 C 0.21573 0.02391 0.36631 0.0
C499 C 0.21306 0.05506 0.36517 0.0
C500 C 0.18343 0.10799 0.39428 0.0
C501 C 0.18034 0.18895 0.37459 0.0
C502 C 0.19088 0.16107 0.37737 0.0
C503 C 0.2119 0.07278 0.38207 0.0
C504 C 0.20604 0.10419 0.38091 0.0
H505 H 0.15054 0.22276 0.33915 0.0
H506 H 0.17267 0.18089 0.34359 0.0
H507 H 0.15759 0.13753 0.40274 0.0
H508 H 0.21837 0.01779 0.41543 0.0
H509 H 0.21457 0.07244 0.41343 0.0
C510 C 0.18696 0.2067 0.85417 0.0
C511 C 0.19917 0.2021 0.87224 0.0
C512 C 0.15318 0.2039 0.85246 0.0
C513 C 0.08061 0.2059 0.88039 0.0
H514 H 0.01929 0.14452 0.83931 0.0
C515 C 0.92655 0.14904 0.87909 0.0
C516 C 0.90958 0.14329 0.86101 0.0
C517 C 0.96335 0.16084 0.88021 0.0
C518 C 0.03616 0.16232 0.85066 0.0
H519 H 0.18606 0.19228 0.90278 0.0
H520 H 0.12732 0.18748 0.89977 0.0
H521 H 0.08105 0.15734 0.84145 0.0
H522 H 0.9182 0.14757 0.82997 0.0
H523 H 0.98231 0.16917 0.8319 0.0
H524 H 0.03563 0.21078 0.88965 0.0
C525 C 0.14381 0.1933 0.88694 0.0
C526 C 0.07162 0.1696 0.85189 0.0
C527 C 0.1774 0.1958 0.88863 0.0
C528 C 0.93042 0.15128 0.84413 0.0
C529 C 0.96717 0.16344 0.84524 0.0
C530 C 0.04514 0.19883 0.87908 0.0
C531 C 0.13108 0.1968 0.8688 0.0
C532 C 0.09417 0.19119 0.86686 0.0
C533 C 0.98399 0.16749 0.86327 0.0
C534 C 0.02234 0.17669 0.86428 0.0
H535 H 0.20313 0.21166 0.84128 0.0
H536 H 0.14423 0.20707 0.83832 0.0
H537 H 0.09746 0.22293 0.89199 0.0
H538 H 0.91115 0.14299 0.89235 0.0
H539 H 0.97525 0.16335 0.89435 0.0
C540 C 0.98877 0.18695 0.40017 0.0
C541 C 1.00682 0.20835 0.38402 0.0
C542 C 0.958 0.15332 0.39777 0.0
C543 C 0.9155 0.08059 0.36224 0.0
H544 H 0.83292 0.04402 0.39633 0.0
C545 C 0.7941 0.93947 0.35092 0.0
C546 C 0.77847 0.91836 0.36747 0.0
C547 C 0.81874 0.97615 0.35257 0.0
C548 C 0.85591 0.05369 0.38679 0.0
H549 H 1.00593 0.21166 0.35272 0.0
H550 H 0.95221 0.15289 0.34855 0.0
H551 H 0.88177 0.106 0.39984 0.0
H552 H 0.77559 0.91945 0.39877 0.0
H553 H 0.8193 0.98341 0.40174 0.0
H554 H 0.89049 0.0283 0.34953 0.0
C555 C 0.96208 0.16207 0.36306 0.0
C556 C 0.88385 0.08925 0.38878 0.0
C557 C 0.99273 0.19584 0.36546 0.0
C558 C 0.7871 0.93503 0.38573 0.0
C559 C 0.81208 0.97176 0.38741 0.0
C560 C 0.88776 0.04505 0.36034 0.0
C561 C 0.94468 0.14019 0.37917 0.0
C562 C 0.91403 0.10305 0.37656 0.0
C563 C 0.82873 0.99267 0.37085 0.0
C564 C 0.8576 0.03103 0.37261 0.0
H565 H 0.99885 0.19581 0.41468 0.0
H566 H 0.94543 0.13704 0.41047 0.0
H567 H 0.93866 0.09015 0.35284 0.0
H568 H 0.7877 0.92754 0.33662 0.0
H569 H 0.83027 0.9915 0.33947 0.0
C570 C 0.85774 0.78029 0.88521 0.0
C571 C 0.86728 0.77421 0.86671 0.0
C572 C 0.84428 0.80381 0.88766 0.0
C573 C 0.8035 0.85013 0.86146 0.0
H574 H 0.84856 0.92247 0.90142 0.0
C575 C 0.79579 0.9811 0.86253 0.0
C576 C 0.79575 0.99634 0.88052 0.0
C577 C 0.79981 0.95069 0.86151 0.0
C578 C 0.83511 0.90213 0.89041 0.0
H579 H 0.86872 0.78686 0.8362 0.0
H580 H 0.84514 0.82757 0.84047 0.0
H581 H 0.86313 0.87465 0.89875 0.0
H582 H 0.79797 0.99048 0.91159 0.0
H583 H 0.80394 0.93707 0.90986 0.0
H584 H 0.77561 0.8777 0.85303 0.0
C585 C 0.84802 0.81423 0.85309 0.0
C586 C 0.84355 0.87469 0.88888 0.0
C587 C 0.86177 0.79105 0.85067 0.0
C588 C 0.79829 0.97964 0.89748 0.0
C589 C 0.80197 0.94911 0.89648 0.0
C590 C 0.79484 0.87746 0.86308 0.0
C591 C 0.83968 0.82139 0.87163 0.0
C592 C 0.82822 0.84863 0.87423 0.0
C593 C 0.80357 0.93464 0.87848 0.0
C594 C 0.81088 0.90411 0.87742 0.0
H595 H 0.86164 0.76772 0.89786 0.0
H596 H 0.83778 0.80853 0.90212 0.0
H597 H 0.7909 0.8302 0.85016 0.0
H598 H 0.79406 0.99343 0.84919 0.0
H599 H 0.80129 0.94061 0.84738 0.0
C600 C 0.15705 0.68973 0.10352 0.0
C601 C 0.16213 0.70716 0.08561 0.0
C602 C 0.15423 0.65585 0.10456 0.0
C603 C 0.17906 0.59738 0.07707 0.0
H604 H 0.12081 0.52695 0.11584 0.0
C605 C 0.17693 0.46196 0.08521 0.0
C606 C 0.18186 0.45372 0.10426 0.0
C607 C 0.16931 0.48963 0.08163 0.0
C608 C 0.13725 0.54638 0.10494 0.0
H609 H 0.16644 0.70187 0.05465 0.0
H610 H 0.16072 0.64253 0.05641 0.0
H611 H 0.11653 0.58121 0.11191 0.0
H612 H 0.18125 0.46708 0.13449 0.0
H613 H 0.16786 0.51496 0.12825 0.0
H614 H 0.20002 0.56267 0.07027 0.0
C615 C 0.15983 0.65537 0.06973 0.0
C616 C 0.1349 0.57755 0.10273 0.0
C617 C 0.16289 0.68934 0.06871 0.0
C618 C 0.17773 0.4728 0.11964 0.0
C619 C 0.16979 0.50013 0.11608 0.0
C620 C 0.18123 0.56611 0.07921 0.0
C621 C 0.15616 0.63846 0.0877 0.0
C622 C 0.15625 0.60379 0.08899 0.0
C623 C 0.16605 0.50928 0.09703 0.0
C624 C 0.16083 0.54055 0.0934 0.0
H625 H 0.15646 0.70276 0.11683 0.0
H626 H 0.15186 0.64393 0.11869 0.0
H627 H 0.19633 0.61715 0.06654 0.0
H628 H 0.17996 0.44777 0.07305 0.0
H629 H 0.16629 0.49588 0.0668 0.0
C630 C 0.70011 0.15632 0.61891 0.0
C631 C 0.72253 0.16286 0.60282 0.0
C632 C 0.66536 0.15062 0.61657 0.0
C633 C 0.59387 0.13109 0.58018 0.0
H634 H 0.56485 0.17868 0.61786 0.0
C635 C 0.47572 0.15836 0.56872 0.0
C636 C 0.45413 0.15481 0.58481 0.0
C637 C 0.50606 0.15455 0.57078 0.0
C638 C 0.57226 0.16476 0.60736 0.0
H639 H 0.72565 0.16736 0.57154 0.0
H640 H 0.66514 0.15818 0.56744 0.0
H641 H 0.62221 0.18101 0.62153 0.0
H642 H 0.44671 0.14301 0.61555 0.0
H643 H 0.49963 0.13636 0.61912 0.0
H644 H 0.54404 0.11577 0.56576 0.0
C645 C 0.67421 0.15689 0.58189 0.0
C646 C 0.6052 0.16604 0.60947 0.0
C647 C 0.70896 0.16228 0.58423 0.0
C648 C 0.46283 0.14607 0.60287 0.0
C649 C 0.49327 0.14247 0.60495 0.0
C650 C 0.56091 0.13 0.57801 0.0
C651 C 0.65222 0.1517 0.59808 0.0
C652 C 0.61652 0.14926 0.59592 0.0
C653 C 0.51559 0.14729 0.589 0.0
C654 C 0.54978 0.14689 0.59157 0.0
H655 H 0.70959 0.15617 0.63342 0.0
H656 H 0.64894 0.14581 0.62934 0.0
H657 H 0.60148 0.11751 0.56959 0.0
H658 H 0.46973 0.16497 0.55459 0.0
H659 H 0.52281 0.15868 0.55824 0.0
C660 C 0.55943 0.71144 0.12234 0.0
C661 C 0.57548 0.7334 0.10612 0.0
C662 C 0.53113 0.67633 0.12015 0.0
C663 C 0.48169 0.60273 0.08459 0.0
H664 H 0.40395 0.57455 0.12138 0.0
C665 C 0.33857 0.48003 0.07433 0.0
C666 C 0.32087 0.45977 0.09086 0.0
C667 C 0.37204 0.5113 0.07592 0.0
C668 C 0.4256 0.58173 0.11116 0.0
H669 H 0.57532 0.73533 0.07478 0.0
H670 H 0.52513 0.67399 0.0709 0.0
H671 H 0.45773 0.63297 0.12439 0.0
H672 H 0.32524 0.45567 0.12193 0.0
H673 H 0.38365 0.51014 0.12469 0.0
H674 H 0.44875 0.55147 0.07112 0.0
C675 C 0.53483 0.68381 0.08535 0.0
C676 C 0.45654 0.61529 0.11288 0.0
C677 C 0.56352 0.71899 0.08755 0.0
C678 C 0.33803 0.47073 0.10892 0.0
C679 C 0.37141 0.50206 0.11052 0.0
C680 C 0.45053 0.56909 0.08281 0.0
C681 C 0.51777 0.66233 0.10168 0.0
C682 C 0.48507 0.62624 0.09968 0.0
C683 C 0.38849 0.52308 0.0941 0.0
C684 C 0.42217 0.55822 0.09611 0.0
H685 H 0.56835 0.72157 0.13685 0.0
H686 H 0.51934 0.6603 0.13303 0.0
H687 H 0.50324 0.61013 0.07428 0.0
H688 H 0.32615 0.47229 0.06018 0.0
H689 H 0.38437 0.52699 0.06302 0.0
C690 C 0.85307 0.55286 0.5842 0.0
C691 C 0.84802 0.56173 0.60309 0.0
C692 C 0.85932 0.5242 0.58102 0.0
C693 C 0.88676 0.46448 0.60525 0.0
H694 H 0.82722 0.39529 0.56632 0.0
C695 C 0.86167 0.31902 0.60346 0.0
C696 C 0.85669 0.30196 0.58544 0.0
C697 C 0.86564 0.35338 0.60464 0.0
C698 C 0.8446 0.41458 0.57701 0.0
H699 H 0.84707 0.54843 0.63346 0.0
H700 H 0.85808 0.49874 0.62791 0.0
H701 H 0.82603 0.45109 0.56985 0.0
H702 H 0.85379 0.30834 0.55447 0.0
H703 H 0.86155 0.36846 0.55648 0.0
H704 H 0.90511 0.42784 0.61254 0.0
C705 C 0.85729 0.51388 0.61556 0.0
C706 C 0.84387 0.44662 0.57904 0.0
C707 C 0.85074 0.54226 0.61872 0.0
C708 C 0.8572 0.32057 0.5686 0.0
C709 C 0.86143 0.355 0.56976 0.0
C710 C 0.88767 0.43252 0.60315 0.0
C711 C 0.86102 0.50409 0.59666 0.0
C712 C 0.86451 0.4717 0.59336 0.0
C713 C 0.865 0.3716 0.58782 0.0
C714 C 0.8662 0.40688 0.58919 0.0
H715 H 0.85112 0.56733 0.57185 0.0
H716 H 0.86243 0.51751 0.5663 0.0
H717 H 0.90333 0.4835 0.61627 0.0
H718 H 0.8613 0.30538 0.61672 0.0
H719 H 0.86791 0.36507 0.61882 0.0
C720 C 0.55462 0.8681 0.10738 0.0
C721 C 0.56844 0.86525 0.08945 0.0
C722 C 0.52328 0.87043 0.10827 0.0
C723 C 0.44217 0.84839 0.07937 0.0
H724 H 0.42657 0.90252 0.11936 0.0
C725 C 0.30926 0.85152 0.08513 0.0
C726 C 0.29413 0.84487 0.10377 0.0
C727 C 0.34463 0.85886 0.08245 0.0
C728 C 0.43051 0.88721 0.10813 0.0
H729 H 0.56111 0.86432 0.05835 0.0
H730 H 0.50708 0.86923 0.05987 0.0
H731 H 0.48524 0.90687 0.11637 0.0
H732 H 0.30472 0.84208 0.13424 0.0
H733 H 0.36617 0.85499 0.12956 0.0
H734 H 0.38734 0.82853 0.07125 0.0
C735 C 0.51984 0.86873 0.0733 0.0
C736 C 0.46411 0.8896 0.10645 0.0
C737 C 0.55101 0.86616 0.07242 0.0
C738 C 0.3155 0.84697 0.11968 0.0
C739 C 0.35085 0.85462 0.11702 0.0
C740 C 0.40867 0.84618 0.08098 0.0
C741 C 0.50515 0.87022 0.09124 0.0
C742 C 0.47024 0.86981 0.09222 0.0
C743 C 0.36569 0.8601 0.09835 0.0
C744 C 0.40227 0.86514 0.09556 0.0
H745 H 0.56732 0.86734 0.12078 0.0
H746 H 0.5126 0.8711 0.12236 0.0
H747 H 0.44561 0.83228 0.06844 0.0
H748 H 0.2935 0.85008 0.07257 0.0
H749 H 0.35542 0.86329 0.0679 0.0
C750 C 0.6915 0.53873 0.56998 0.0
C751 C 0.70996 0.55617 0.58697 0.0
C752 C 0.65729 0.50834 0.57092 0.0
C753 C 0.57991 0.45531 0.60405 0.0
H754 H 0.56169 0.37706 0.56928 0.0
C755 C 0.46978 0.30813 0.61737 0.0
C756 C 0.45033 0.2871 0.60141 0.0
C757 C 0.49838 0.34304 0.61475 0.0
C758 C 0.56608 0.39883 0.57889 0.0
H759 H 0.70651 0.55593 0.61828 0.0
H760 H 0.64718 0.50248 0.61998 0.0
H761 H 0.61742 0.43412 0.56645 0.0
H762 H 0.44509 0.28664 0.57019 0.0
H763 H 0.49532 0.34774 0.56559 0.0
H764 H 0.52891 0.41936 0.61687 0.0
C765 C 0.65882 0.51258 0.60586 0.0
C766 C 0.59807 0.43164 0.57727 0.0
C767 C 0.69297 0.54318 0.60491 0.0
C768 C 0.45953 0.30215 0.58278 0.0
C769 C 0.48842 0.33704 0.58013 0.0
C770 C 0.548 0.42238 0.60575 0.0
C771 C 0.64074 0.49442 0.58888 0.0
C772 C 0.60561 0.46024 0.58994 0.0
C773 C 0.50843 0.35772 0.59608 0.0
C774 C 0.54089 0.39364 0.59332 0.0
H775 H 0.70368 0.54827 0.5559 0.0
H776 H 0.64393 0.49558 0.55752 0.0
H777 H 0.58446 0.47688 0.61384 0.0
H778 H 0.46336 0.2974 0.63193 0.0
H779 H 0.51344 0.35808 0.62732 0.0
C780 C 0.32195 0.85834 0.37546 0.0
C781 C 0.30468 0.85353 0.39339 0.0
C782 C 0.35627 0.86224 0.37447 0.0
C783 C 0.41713 0.84159 0.40273 0.0
H784 H 0.48655 0.89992 0.36358 0.0
C785 C 0.55613 0.85157 0.39718 0.0
C786 C 0.5656 0.84626 0.3785 0.0
C787 C 0.52711 0.85741 0.39988 0.0
C788 C 0.46739 0.88346 0.37457 0.0
H789 H 0.31065 0.85088 0.42442 0.0
H790 H 0.37071 0.85859 0.42275 0.0
H791 H 0.43072 0.90147 0.36674 0.0
H792 H 0.55295 0.84436 0.34796 0.0
H793 H 0.50262 0.85467 0.35268 0.0
H794 H 0.45372 0.82343 0.41046 0.0
C795 C 0.35744 0.85834 0.40938 0.0
C796 C 0.43532 0.88423 0.37635 0.0
C797 C 0.32304 0.85414 0.41035 0.0
C798 C 0.54632 0.84826 0.36256 0.0
C799 C 0.51758 0.85439 0.36524 0.0
C800 C 0.44927 0.84102 0.40104 0.0
C801 C 0.37425 0.86172 0.39141 0.0
C802 C 0.40953 0.86293 0.39029 0.0
C803 C 0.50722 0.85842 0.38395 0.0
C804 C 0.47456 0.86156 0.38677 0.0
H805 H 0.30848 0.85788 0.36211 0.0
H806 H 0.36812 0.86437 0.36035 0.0
H807 H 0.39773 0.82432 0.41341 0.0
H808 H 0.57044 0.85019 0.40976 0.0
H809 H 0.51999 0.86076 0.41446 0.0
C810 C 0.71429 0.5576 0.89553 0.0
C811 C 0.72993 0.56546 0.87701 0.0
C812 C 0.67875 0.52997 0.89809 0.0
C813 C 0.59355 0.47232 0.87185 0.0
H814 H 0.57687 0.40328 0.9124 0.0
C815 C 0.47002 0.32919 0.8724 0.0
C816 C 0.45525 0.31305 0.89031 0.0
C817 C 0.50128 0.36284 0.87162 0.0
C818 C 0.58076 0.42257 0.90122 0.0
H819 H 0.72006 0.55139 0.84658 0.0
H820 H 0.65835 0.50349 0.85104 0.0
H821 H 0.63528 0.45754 0.9098 0.0
H822 H 0.46082 0.32037 0.92144 0.0
H823 H 0.5148 0.37926 0.92007 0.0
H824 H 0.53916 0.43717 0.86312 0.0
C825 C 0.67339 0.51865 0.86359 0.0
C826 C 0.61433 0.45372 0.89973 0.0
C827 C 0.7089 0.54599 0.86106 0.0
C828 C 0.47167 0.33189 0.9074 0.0
C829 C 0.50278 0.3656 0.90661 0.0
C830 C 0.5599 0.44125 0.87339 0.0
C831 C 0.65804 0.50991 0.88216 0.0
C832 C 0.6213 0.47868 0.88485 0.0
C833 C 0.51838 0.38124 0.88873 0.0
C834 C 0.55323 0.41568 0.88792 0.0
H835 H 0.72978 0.57211 0.90811 0.0
H836 H 0.66756 0.52408 0.91256 0.0
H837 H 0.59793 0.49129 0.86038 0.0
H838 H 0.4581 0.31535 0.85897 0.0
H839 H 0.51271 0.37381 0.85758 0.0
C840 C 0.16469 0.70695 0.39391 0.0
C841 C 0.16558 0.7206 0.37529 0.0
C842 C 0.15944 0.67223 0.39628 0.0
C843 C 0.16976 0.60365 0.36899 0.0
H844 H 0.11907 0.54231 0.4126 0.0
C845 C 0.15179 0.46198 0.37643 0.0
C846 C 0.16028 0.45365 0.39465 0.0
C847 C 0.14774 0.49214 0.37406 0.0
C848 C 0.13342 0.55923 0.40038 0.0
H849 H 0.15961 0.70781 0.34467 0.0
H850 H 0.14952 0.6472 0.34882 0.0
H851 H 0.12015 0.59942 0.40847 0.0
H852 H 0.16955 0.46957 0.42485 0.0
H853 H 0.16249 0.52213 0.4207 0.0
H854 H 0.18322 0.56369 0.36096 0.0
C855 C 0.15394 0.66354 0.36158 0.0
C856 C 0.13412 0.59199 0.39804 0.0
C857 C 0.15949 0.69826 0.3592 0.0
C858 C 0.16315 0.47529 0.4106 0.0
C859 C 0.1589 0.50533 0.40825 0.0
C860 C 0.16888 0.57089 0.37128 0.0
C861 C 0.15471 0.65034 0.3801 0.0
C862 C 0.15249 0.61473 0.38236 0.0
C863 C 0.15185 0.5145 0.38989 0.0
C864 C 0.1509 0.54838 0.38705 0.0
H865 H 0.16942 0.72355 0.4066 0.0
H866 H 0.1605 0.66313 0.41076 0.0
H867 H 0.18486 0.62073 0.35698 0.0
H868 H 0.14925 0.4458 0.36386 0.0
H869 H 0.14182 0.49822 0.35978 0.0
C870 C 0.68522 0.1543 0.9115 0.0
C871 C 0.70197 0.15235 0.89443 0.0
C872 C 0.65136 0.15149 0.91087 0.0
C873 C 0.57182 0.12469 0.87905 0.0
H874 H 0.55898 0.19216 0.91064 0.0
C875 C 0.46744 0.16767 0.86207 0.0
C876 C 0.44909 0.17292 0.87744 0.0
C877 C 0.49461 0.15957 0.86566 0.0
C878 C 0.56185 0.17272 0.90197 0.0
H879 H 0.69581 0.14495 0.86333 0.0
H880 H 0.63717 0.14074 0.86216 0.0
H881 H 0.61351 0.18848 0.91396 0.0
H882 H 0.44427 0.17284 0.90867 0.0
H883 H 0.49219 0.15891 0.91498 0.0
H884 H 0.52061 0.10992 0.8666 0.0
C885 C 0.64985 0.14385 0.87612 0.0
C886 C 0.59315 0.17056 0.90387 0.0
C887 C 0.68363 0.14646 0.87677 0.0
C888 C 0.45789 0.16891 0.89653 0.0
C889 C 0.48544 0.16115 0.90014 0.0
C890 C 0.54062 0.12702 0.87708 0.0
C891 C 0.63348 0.14685 0.89313 0.0
C892 C 0.59882 0.14692 0.89222 0.0
C893 C 0.50436 0.15679 0.88472 0.0
C894 C 0.53555 0.15147 0.88829 0.0
H895 H 0.69848 0.15855 0.92538 0.0
H896 H 0.63934 0.15326 0.9243 0.0
H897 H 0.5749 0.10567 0.87012 0.0
H898 H 0.46127 0.17045 0.84719 0.0
H899 H 0.50888 0.15678 0.85347 0.0
C900 C 0.30754 0.4619 0.39758 0.0
C901 C 0.29377 0.44863 0.37906 0.0
C902 C 0.34218 0.49148 0.39975 0.0
C903 C 0.41042 0.56946 0.37176 0.0
H904 H 0.47237 0.58129 0.41528 0.0
C905 C 0.55265 0.69221 0.37762 0.0
C906 C 0.56155 0.70985 0.39561 0.0
C907 C 0.52224 0.65814 0.37571 0.0
C908 C 0.45528 0.5784 0.40308 0.0
H909 H 0.30627 0.45465 0.34841 0.0
H910 H 0.36672 0.50528 0.35219 0.0
H911 H 0.41508 0.52544 0.41178 0.0
H912 H 0.54635 0.70479 0.42589 0.0
H913 H 0.49336 0.6454 0.42254 0.0
H914 H 0.45042 0.62234 0.3631 0.0
C915 C 0.35054 0.49373 0.36503 0.0
C916 C 0.4224 0.54644 0.4011 0.0
C917 C 0.3159 0.46448 0.36287 0.0
C918 C 0.5402 0.69202 0.4118 0.0
C919 C 0.50991 0.65787 0.40991 0.0
C920 C 0.44329 0.60122 0.37368 0.0
C921 C 0.36387 0.50821 0.38345 0.0
C922 C 0.39946 0.54161 0.38544 0.0
C923 C 0.50017 0.64084 0.39177 0.0
C924 C 0.46605 0.60617 0.3894 0.0
H925 H 0.29109 0.45034 0.41034 0.0
H926 H 0.3514 0.50203 0.41415 0.0
H927 H 0.3932 0.56716 0.35975 0.0
H928 H 0.56858 0.7051 0.36486 0.0
H929 H 0.51573 0.64551 0.36159 0.0
C930 C 0.86008 0.53826 0.91088 0.0
C931 C 0.86007 0.55663 0.89403 0.0
C932 C 0.86282 0.50718 0.9097 0.0
C933 C 0.88564 0.45332 0.87617 0.0
H934 H 0.82303 0.37461 0.90997 0.0
C935 C 0.84366 0.30531 0.86089 0.0
C936 C 0.8406 0.28298 0.87653 0.0
C937 C 0.85134 0.3406 0.86403 0.0
C938 C 0.84112 0.39647 0.90063 0.0
H939 H 0.86393 0.55726 0.86273 0.0
H940 H 0.86796 0.50268 0.86061 0.0
H941 H 0.82648 0.43268 0.91344 0.0
H942 H 0.84424 0.28061 0.90774 0.0
H943 H 0.85753 0.34242 0.91324 0.0
H944 H 0.89929 0.41651 0.86297 0.0
C945 C 0.86646 0.51256 0.8748 0.0
C946 C 0.84315 0.42987 0.90262 0.0
C947 C 0.86398 0.54382 0.876 0.0
C948 C 0.84643 0.29712 0.89538 0.0
C949 C 0.85382 0.33243 0.89854 0.0
C950 C 0.88342 0.41983 0.8741 0.0
C951 C 0.86536 0.4935 0.89163 0.0
C952 C 0.86512 0.45866 0.89027 0.0
C953 C 0.85592 0.35442 0.8829 0.0
C954 C 0.8608 0.39088 0.88616 0.0
H955 H 0.85745 0.54759 0.92502 0.0
H956 H 0.86262 0.4937 0.92299 0.0
H957 H 0.90335 0.475 0.86663 0.0
H958 H 0.83941 0.29531 0.84617 0.0
H959 H 0.8524 0.35665 0.85167 0.0
C960 C 0.19529 0.35368 0.31786 0.0
C961 C 0.16338 0.35003 0.32555 0.0
C962 C 0.20196 0.35857 0.29798 0.0
C963 C 0.15432 0.34366 0.25147 0.0
H964 H 0.25036 0.40393 0.23116 0.0
C965 C 0.18312 0.36376 0.16959 0.0
C966 C 0.21067 0.35745 0.16343 0.0
C967 C 0.17835 0.36755 0.18928 0.0
C968 C 0.22341 0.38703 0.23667 0.0
H969 H 0.11406 0.34995 0.3186 0.0
H970 H 0.12604 0.35925 0.2841 0.0
H971 H 0.24013 0.40168 0.26603 0.0
H972 H 0.25568 0.35161 0.17293 0.0
H973 H 0.24735 0.35832 0.2072 0.0
H974 H 0.13769 0.32889 0.22211 0.0
C975 C 0.1455 0.35741 0.29328 0.0
C976 C 0.21757 0.38559 0.25661 0.0
C977 C 0.1387 0.35221 0.31308 0.0
C978 C 0.23406 0.35622 0.17723 0.0
C979 C 0.2295 0.36036 0.19685 0.0
C980 C 0.16012 0.34533 0.23155 0.0
C981 C 0.17698 0.36021 0.28546 0.0
C982 C 0.18304 0.3635 0.26425 0.0
C983 C 0.20132 0.36554 0.20307 0.0
C984 C 0.19479 0.36662 0.22399 0.0
H985 H 0.2148 0.35209 0.32712 0.0
H986 H 0.22626 0.36016 0.29239 0.0
H987 H 0.12749 0.32591 0.25688 0.0
H988 H 0.16474 0.36494 0.15927 0.0
H989 H 0.15655 0.37177 0.19374 0.0
C990 C 0.87774 0.21771 0.67031 0.0
C991 C 0.8528 0.19311 0.65704 0.0
C992 C 0.87051 0.2136 0.69012 0.0
C993 C 0.81937 0.14518 0.72624 0.0
H994 H 0.83743 0.22583 0.75906 0.0
C995 C 0.78227 0.12529 0.8067 0.0
C996 C 0.80695 0.15071 0.81973 0.0
C997 C 0.78626 0.13168 0.78684 0.0
C998 C 0.83262 0.20313 0.75012 0.0
H999 H 0.80051 0.14518 0.65409 0.0
H1000 H 0.78807 0.13789 0.68878 0.0
H1001 H 0.84736 0.23474 0.72419 0.0
H1002 H 0.85484 0.20309 0.82223 0.0
H1003 H 0.8624 0.2139 0.78742 0.0
H1004 H 0.80554 0.11369 0.75203 0.0
C1005 C 0.81322 0.16027 0.68379 0.0
C1006 C 0.83819 0.20823 0.73018 0.0
C1007 C 0.8203 0.16454 0.66396 0.0
C1008 C 0.83535 0.18303 0.81252 0.0
C1009 C 0.83956 0.18928 0.79259 0.0
C1010 C 0.81408 0.14014 0.74615 0.0
C1011 C 0.83834 0.18466 0.69704 0.0
C1012 C 0.8316 0.17928 0.71808 0.0
C1013 C 0.81526 0.16347 0.77952 0.0
C1014 C 0.82061 0.16903 0.75833 0.0
H1015 H 0.90298 0.24008 0.66543 0.0
H1016 H 0.89046 0.23259 0.70005 0.0
H1017 H 0.81466 0.12255 0.71726 0.0
H1018 H 0.75983 0.10031 0.81182 0.0
H1019 H 0.76662 0.1116 0.7772 0.0
C1020 C 0.67225 0.88295 0.17625 0.0
C1021 C 0.67174 0.85858 0.16249 0.0
C1022 C 0.66731 0.87397 0.19582 0.0
C1023 C 0.68006 0.81883 0.23118 0.0
H1024 H 0.62006 0.84071 0.26391 0.0
C1025 C 0.66622 0.78806 0.31265 0.0
C1026 C 0.667 0.81448 0.32497 0.0
C1027 C 0.66269 0.79012 0.2927 0.0
C1028 C 0.63716 0.83473 0.25499 0.0
H1029 H 0.66505 0.80544 0.15841 0.0
H1030 H 0.65685 0.78994 0.19281 0.0
H1031 H 0.62098 0.84998 0.229 0.0
H1032 H 0.66416 0.86351 0.3261 0.0
H1033 H 0.65901 0.86769 0.29119 0.0
H1034 H 0.69729 0.80479 0.25708 0.0
C1035 C 0.66108 0.81597 0.18834 0.0
C1036 C 0.63755 0.83989 0.23503 0.0
C1037 C 0.66567 0.82481 0.16868 0.0
C1038 C 0.6636 0.84271 0.31697 0.0
C1039 C 0.66039 0.84496 0.29697 0.0
C1040 C 0.67991 0.81394 0.25114 0.0
C1041 C 0.66204 0.84057 0.20207 0.0
C1042 C 0.65929 0.83234 0.22298 0.0
C1043 C 0.6602 0.81882 0.2846 0.0
C1044 C 0.65874 0.82219 0.2633 0.0
H1045 H 0.67669 0.90912 0.17193 0.0
H1046 H 0.66857 0.89358 0.20614 0.0
H1047 H 0.69744 0.81327 0.22223 0.0
H1048 H 0.66836 0.76571 0.3184 0.0
H1049 H 0.66195 0.76919 0.28362 0.0
C1050 C 0.84675 0.66022 0.66663 0.0
C1051 C 0.81765 0.66272 0.65917 0.0
C1052 C 0.85055 0.6581 0.6866 0.0
C1053 C 0.8215 0.67865 0.73292 0.0
H1054 H 0.85846 0.62041 0.75494 0.0
C1055 C 0.8276 0.66014 0.81522 0.0
C1056 C 0.86074 0.66571 0.82217 0.0
C1057 C 0.82063 0.65724 0.79536 0.0
C1058 C 0.84822 0.63687 0.74894 0.0
H1059 H 0.76897 0.66348 0.66668 0.0
H1060 H 0.7751 0.65886 0.70135 0.0
H1061 H 0.84936 0.61969 0.72001 0.0
H1062 H 0.91218 0.6717 0.81381 0.0
H1063 H 0.89986 0.66648 0.77919 0.0
H1064 H 0.8202 0.69564 0.76187 0.0
C1065 C 0.79556 0.65959 0.69189 0.0
C1066 C 0.84315 0.63659 0.72896 0.0
C1067 C 0.79196 0.66206 0.672 0.0
C1068 C 0.88643 0.66757 0.80891 0.0
C1069 C 0.87932 0.66433 0.78909 0.0
C1070 C 0.82628 0.67868 0.75288 0.0
C1071 C 0.82516 0.65812 0.69946 0.0
C1072 C 0.82989 0.65762 0.72071 0.0
C1073 C 0.8465 0.65946 0.78213 0.0
C1074 C 0.83989 0.65798 0.76106 0.0
H1075 H 0.867 0.66073 0.65708 0.0
H1076 H 0.87388 0.65739 0.69197 0.0
H1077 H 0.81191 0.69572 0.72703 0.0
H1078 H 0.80723 0.6585 0.82508 0.0
H1079 H 0.79499 0.65321 0.79033 0.0
C1080 C 0.1945 0.84163 0.16578 0.0
C1081 C 0.16248 0.81287 0.15852 0.0
C1082 C 0.20057 0.84595 0.1857 0.0
C1083 C 0.1733 0.7981 0.23214 0.0
H1084 H 0.20321 0.89241 0.25354 0.0
C1085 C 0.1698 0.82238 0.31412 0.0
C1086 C 0.19766 0.85456 0.32179 0.0
C1087 C 0.16684 0.81657 0.29414 0.0
C1088 C 0.1954 0.86603 0.2478 0.0
H1089 H 0.11222 0.7655 0.16639 0.0
H1090 H 0.123 0.77304 0.20116 0.0
H1091 H 0.19675 0.88351 0.21866 0.0
H1092 H 0.24489 0.90542 0.3146 0.0
H1093 H 0.24022 0.89495 0.2799 0.0
H1094 H 0.17212 0.78061 0.26127 0.0
C1095 C 0.14334 0.79217 0.19143 0.0
C1096 C 0.19167 0.86096 0.22782 0.0
C1097 C 0.1371 0.78803 0.17154 0.0
C1098 C 0.22286 0.88049 0.30913 0.0
C1099 C 0.22009 0.87457 0.28922 0.0
C1100 C 0.17731 0.80322 0.25214 0.0
C1101 C 0.17493 0.82139 0.1987 0.0
C1102 C 0.1804 0.82693 0.21982 0.0
C1103 C 0.19187 0.84271 0.28146 0.0
C1104 C 0.18824 0.83722 0.26021 0.0
H1105 H 0.2146 0.86119 0.15611 0.0
H1106 H 0.2253 0.86854 0.19096 0.0
H1107 H 0.16488 0.77165 0.22629 0.0
H1108 H 0.14992 0.80191 0.32351 0.0
H1109 H 0.14452 0.79192 0.28862 0.0
C1110 C 0.36113 0.17248 0.81137 0.0
C1111 C 0.35314 0.19918 0.81703 0.0
C1112 C 0.36636 0.16795 0.79184 0.0
C1113 C 0.3877 0.21322 0.74452 0.0
H1114 H 0.32834 0.11753 0.72356 0.0
C1115 C 0.35549 0.1874 0.66329 0.0
C1116 C 0.35159 0.15563 0.65522 0.0
C1117 C 0.36063 0.19349 0.68319 0.0
C1118 C 0.34568 0.1443 0.72918 0.0
H1119 H 0.34578 0.24293 0.80681 0.0
H1120 H 0.35512 0.2351 0.77285 0.0
H1121 H 0.32994 0.1269 0.75837 0.0
H1122 H 0.35153 0.10604 0.66148 0.0
H1123 H 0.36135 0.11706 0.69605 0.0
H1124 H 0.40328 0.23077 0.71535 0.0
C1125 C 0.3573 0.2177 0.78347 0.0
C1126 C 0.34654 0.14962 0.74913 0.0
C1127 C 0.35164 0.22194 0.8029 0.0
C1128 C 0.35395 0.13058 0.66732 0.0
C1129 C 0.35946 0.13683 0.68715 0.0
C1130 C 0.38712 0.20787 0.72457 0.0
C1131 C 0.36425 0.1904 0.77773 0.0
C1132 C 0.36698 0.18422 0.75693 0.0
C1133 C 0.36236 0.16811 0.69537 0.0
C1134 C 0.36554 0.17346 0.71664 0.0
H1135 H 0.36253 0.1546 0.82196 0.0
H1136 H 0.37183 0.14678 0.78773 0.0
H1137 H 0.40397 0.24013 0.75024 0.0
H1138 H 0.35376 0.20718 0.65431 0.0
H1139 H 0.36225 0.21764 0.68907 0.0
C1140 C 0.32002 0.22117 0.93773 0.0
C1141 C 0.31457 0.2328 0.91971 0.0
C1142 C 0.3079 0.22957 0.9547 0.0
C1143 C 0.28108 0.29394 0.97313 0.0
H1144 H 0.24217 0.22729 0.0161 0.0
C1145 C 0.22224 0.3227 0.04189 0.0
C1146 C 0.2368 0.3182 0.05916 0.0
C1147 C 0.22824 0.31014 0.02436 0.0
C1148 C 0.25293 0.2461 0.00415 0.0
H1149 H 0.29116 0.26134 0.9053 0.0
H1150 H 0.26926 0.2747 0.93451 0.0
H1151 H 0.26028 0.20919 0.98659 0.0
H1152 H 0.26864 0.29659 0.07162 0.0
H1153 H 0.27855 0.27461 0.04131 0.0
H1154 H 0.27366 0.33078 0.99073 0.0
C1155 C 0.28379 0.26017 0.93576 0.0
C1156 C 0.26355 0.23586 0.98734 0.0
C1157 C 0.29623 0.25227 0.91896 0.0
C1158 C 0.25701 0.30058 0.0586 0.0
C1159 C 0.26249 0.28766 0.04125 0.0
C1160 C 0.27015 0.30401 0.98985 0.0
C1161 C 0.28989 0.24944 0.95387 0.0
C1162 C 0.27804 0.2598 0.9717 0.0
C1163 C 0.24837 0.29244 0.02397 0.0
C1164 C 0.25637 0.28034 0.00558 0.0
H1165 H 0.3341 0.20617 0.93873 0.0
H1166 H 0.3133 0.22117 0.96848 0.0
H1167 H 0.29272 0.31332 0.9615 0.0
H1168 H 0.2066 0.33617 0.04189 0.0
H1169 H 0.21709 0.31411 0.01115 0.0
C1170 C 0.09811 0.34342 0.44002 0.0
C1171 C 0.1135 0.32409 0.43226 0.0
C1172 C 0.07384 0.32925 0.45528 0.0
C1173 C 0.03294 0.25614 0.49172 0.0
H1174 H 0.95155 0.27079 0.48425 0.0
C1175 C 0.90748 0.19148 0.54116 0.0
C1176 C 0.90275 0.2181 0.55019 0.0
C1177 C 0.92999 0.20017 0.52502 0.0
C1178 C 0.97401 0.26632 0.48641 0.0
H1179 H 0.11756 0.27601 0.43473 0.0
H1180 H 0.07431 0.25054 0.46134 0.0
H1181 H 1.00101 0.29633 0.46121 0.0
H1182 H 0.91555 0.27362 0.5492 0.0
H1183 H 0.95348 0.28845 0.52048 0.0
H1184 H 1.00541 0.22592 0.51701 0.0
C1185 C 0.08148 0.27698 0.45594 0.0
C1186 C 1.00256 0.28128 0.4734 0.0
C1187 C 0.1064 0.29159 0.44083 0.0
C1188 C 0.91859 0.25267 0.54221 0.0
C1189 C 0.94029 0.26111 0.52587 0.0
C1190 C 1.00408 0.24081 0.50467 0.0
C1191 C 0.06375 0.29499 0.46271 0.0
C1192 C 0.03281 0.27721 0.47618 0.0
C1193 C 0.94717 0.23531 0.51755 0.0
C1194 C 0.97478 0.24648 0.50232 0.0
H1195 H 0.1032 0.36849 0.43347 0.0
H1196 H 0.06157 0.34435 0.46059 0.0
H1197 H 0.0558 0.25249 0.49426 0.0
H1198 H 0.89598 0.16484 0.5474 0.0
H1199 H 0.93495 0.17989 0.51877 0.0
C1200 C 0.72092 0.909 0.04353 0.0
C1201 C 0.7083 0.9224 0.05827 0.0
C1202 C 0.73717 0.92976 0.02699 0.0
C1203 C 0.77941 0.02393 0.00919 0.0
H1204 H 0.74744 0.98046 0.95866 0.0
C1205 C 0.81542 0.10685 0.93779 0.0
C1206 C 0.78609 0.09604 0.92522 0.0
C1207 C 0.81248 0.08578 0.95394 0.0
C1208 C 0.75674 0.99296 0.97269 0.0
H1209 H 0.70178 0.96746 0.06701 0.0
H1210 H 0.72922 1.0029 0.03834 0.0
H1211 H 0.73016 0.9423 0.98732 0.0
H1212 H 0.73032 0.056 0.92017 0.0
H1213 H 0.72502 0.02006 0.94834 0.0
H1214 H 0.80403 0.07474 -0.00533 0.0
C1215 C 0.72766 0.977 0.03965 0.0
C1216 C 0.7472 0.97106 0.98907 0.0
C1217 C 0.71151 0.95642 0.05601 0.0
C1218 C 0.75352 0.06481 0.92949 0.0
C1219 C 0.7506 0.04395 0.94551 0.0
C1220 C 0.78882 0.04584 -0.00718 0.0
C1221 C 0.74107 0.96419 0.02505 0.0
C1222 C 0.75719 0.98644 0.00755 0.0
C1223 C 0.78019 0.05371 0.95769 0.0
C1224 C 0.7763 0.03063 0.9745 0.0
H1225 H 0.71897 0.88295 0.04495 0.0
H1226 H 0.74715 0.91917 0.01589 0.0
H1227 H 0.78815 0.03646 0.02326 0.0
H1228 H 0.84091 0.13069 0.93473 0.0
H1229 H 0.83567 0.09404 0.96317 0.0
C1230 C 0.75505 0.6694 0.54547 0.0
C1231 C 0.79021 0.68693 0.55264 0.0
C1232 C 0.74563 0.6842 0.5302 0.0
C1233 C 0.78026 0.75495 0.49236 0.0
H1234 H 0.687 0.74696 0.5 0.0
C1235 C 0.72366 0.82151 0.4412 0.0
C1236 C 0.69166 0.79527 0.43261 0.0
C1237 C 0.73695 0.81305 0.45766 0.0
C1238 C 0.71318 0.7496 0.49779 0.0
H1239 H 0.84371 0.7324 0.54909 0.0
H1240 H 0.82715 0.75903 0.52247 0.0
H1241 H 0.70938 0.72091 0.5237 0.0
H1242 H 0.64738 0.74073 0.43464 0.0
H1243 H 0.66961 0.72643 0.46394 0.0
H1244 H 0.78374 0.78385 0.46636 0.0
C1245 C 0.80695 0.73349 0.52837 0.0
C1246 C 0.72588 0.73433 0.5112 0.0
C1247 C 0.81654 0.7182 0.54349 0.0
C1248 C 0.67185 0.76144 0.4413 0.0
C1249 C 0.68462 0.75329 0.45796 0.0
C1250 C 0.76767 0.77063 0.47903 0.0
C1251 C 0.771 0.71736 0.52214 0.0
C1252 C 0.75909 0.7359 0.50837 0.0
C1253 C 0.71787 0.77857 0.46587 0.0
C1254 C 0.73367 0.76732 0.48144 0.0
H1255 H 0.73438 0.64523 0.5524 0.0
H1256 H 0.71799 0.67043 0.5253 0.0
H1257 H 0.80592 0.75664 0.48976 0.0
H1258 H 0.73962 0.84752 0.43439 0.0
H1259 H 0.76265 0.83291 0.46356 0.0
C1260 C 0.92996 0.6704 0.93556 0.0
C1261 C 0.91233 0.68821 0.9287 0.0
C1262 C 0.95345 0.68419 0.95117 0.0
C1263 C 0.98715 0.75258 0.99038 0.0
H1264 H 0.07263 0.74454 0.98373 0.0
C1265 C 0.10871 0.81817 0.04263 0.0
C1266 C 0.11444 0.79189 0.05129 0.0
C1267 C 0.08713 0.80976 0.02611 0.0
C1268 C 0.049 0.74715 0.98567 0.0
H1269 H 0.90371 0.73325 0.93305 0.0
H1270 H 0.94571 0.75824 0.96022 0.0
H1271 H 0.02562 0.71976 0.95926 0.0
H1272 H 0.10411 0.73724 0.04938 0.0
H1273 H 0.06787 0.72301 0.01998 0.0
H1274 H 0.0112 0.7804 0.01683 0.0
C1275 C 0.94086 0.73315 0.95386 0.0
C1276 C 0.02183 0.7326 0.97182 0.0
C1277 C 0.91667 0.71882 0.9384 0.0
C1278 C 0.10036 0.75798 0.04268 0.0
C1279 C 0.07962 0.74987 0.02596 0.0
C1280 C 0.01466 0.76761 0.00414 0.0
C1281 C 0.96057 0.71671 0.9599 0.0
C1282 C 0.99013 0.73426 0.97424 0.0
C1283 C 0.07186 0.77528 0.01791 0.0
C1284 C 0.04542 0.76431 0.00207 0.0
H1285 H 0.9269 0.64672 0.9282 0.0
H1286 H 0.96718 0.67013 0.95588 0.0
H1287 H 0.96312 0.75429 -0.00728 0.0
H1288 H 0.11881 0.84426 0.04937 0.0
H1289 H 0.08145 0.82971 0.0201 0.0
C1290 C 0.25706 0.91649 0.43688 0.0
C1291 C 0.22228 0.89974 0.42917 0.0
C1292 C 0.26529 0.93796 0.4533 0.0
C1293 C 0.2429 0.99969 0.47528 0.0
H1294 H 0.30041 0.99825 0.51812 0.0
C1295 C 0.29117 0.1006 0.53972 0.0
C1296 C 0.324 0.10863 0.54818 0.0
C1297 C 0.2773 0.07606 0.5244 0.0
C1298 C 0.28481 0.99937 0.5061 0.0
H1299 H 0.16842 0.89104 0.43258 0.0
H1300 H 0.18308 0.9296 0.46136 0.0
H1301 H 0.27584 0.94904 0.49492 0.0
H1302 H 0.36967 0.10041 0.54659 0.0
H1303 H 0.34678 0.0595 0.5191 0.0
H1304 H 0.253 0.05074 0.48604 0.0
C1305 C 0.20372 0.92554 0.45483 0.0
C1306 C 0.2704 0.97094 0.49299 0.0
C1307 C 0.19526 0.90326 0.43859 0.0
C1308 C 0.34435 0.09463 0.54012 0.0
C1309 C 0.3309 0.07075 0.52464 0.0
C1310 C 0.25767 0.02843 0.48832 0.0
C1311 C 0.23903 0.94369 0.462 0.0
C1312 C 0.2498 0.97111 0.47732 0.0
C1313 C 0.29637 0.05965 0.51731 0.0
C1314 C 0.27941 0.0289 0.50366 0.0
H1315 H 0.2783 0.91436 0.42962 0.0
H1316 H 0.29276 0.95189 0.45848 0.0
H1317 H 0.22743 1.00056 0.46311 0.0
H1318 H 0.27481 0.11065 0.54607 0.0
H1319 H 0.25063 0.06809 0.5191 0.0
loop_
_geom_bond_atom_site_label_1
_geom_bond_atom_site_label_2
_geom_bond_distance
_geom_bond_site_symmetry_2
_ccdc_geom_bond_type
Zn0 O6 1.969 . S
Zn0 O7 1.965 . S
Zn0 O11 2.024 . S
Zn0 O16 1.969 . S
Zn1 O8 1.969 . S
Zn1 O14 1.969 . S
Zn1 O15 1.965 . S
Zn1 O17 2.024 . S
C2 O3 1.229 . S
C2 O11 1.058 . S
O3 C2 1.229 . S
C4 O5 1.229 . S
C4 O17 1.058 . S
O5 C4 1.229 . S
O6 Zn0 1.969 . S
O6 C9 1.267 . S
O7 Zn0 1.965 . S
O7 C18 1.260 . S
O8 Zn1 1.969 . S
O8 C18 1.258 . S
C9 O6 1.267 . S
C9 O10 1.228 . S
O10 C9 1.228 . S
O11 Zn0 2.024 . S
O11 C2 1.058 . S
C12 O13 1.228 . S
C12 O14 1.267 . S
O13 C12 1.228 . S
O14 Zn1 1.969 . S
O14 C12 1.267 . S
O15 Zn1 1.965 . S
O15 C19 1.260 . S
O16 Zn0 1.969 . S
O16 C19 1.258 . S
O17 Zn1 2.024 . S
O17 C4 1.058 . S
C18 O7 1.260 . S
C18 O8 1.258 . S
C19 O15 1.260 . S
C19 O16 1.258 . S
Zn20 O26 1.969 . S
Zn20 O27 1.965 . S
Zn20 O31 2.024 . S
Zn20 O36 1.969 . S
Zn21 O28 1.969 . S
Zn21 O34 1.969 . S
Zn21 O35 1.965 . S
Zn21 O37 2.024 . S
C22 O23 1.229 . S
C22 O31 1.058 . S
O23 C22 1.229 . S
C24 O25 1.229 . S
C24 O37 1.058 . S
O25 C24 1.229 . S
O26 Zn20 1.969 . S
O26 C29 1.267 . S
O27 Zn20 1.965 . S
O27 C38 1.260 . S
O28 Zn21 1.969 . S
O28 C38 1.258 . S
C29 O26 1.267 . S
C29 O30 1.228 . S
O30 C29 1.228 . S
O31 Zn20 2.024 . S
O31 C22 1.058 . S
C32 O33 1.228 . S
C32 O34 1.267 . S
O33 C32 1.228 . S
O34 Zn21 1.969 . S
O34 C32 1.267 . S
O35 Zn21 1.965 . S
O35 C39 1.260 . S
O36 Zn20 1.969 . S
O36 C39 1.258 . S
O37 Zn21 2.024 . S
O37 C24 1.058 . S
C38 O27 1.260 . S
C38 O28 1.258 . S
C39 O35 1.260 . S
C39 O36 1.258 . S
Zn40 O46 1.969 . S
Zn40 O47 1.965 . S
Zn40 O51 2.024 . S
Zn40 O56 1.969 . S
Zn41 O48 1.969 . S
Zn41 O54 1.969 . S
Zn41 O55 1.965 . S
Zn41 O57 2.024 . S
C42 O43 1.229 . S
C42 O51 1.058 . S
O43 C42 1.229 . S
C44 O45 1.229 . S
C44 O57 1.058 . S
O45 C44 1.229 . S
O46 Zn40 1.969 . S
O46 C49 1.267 . S
O47 Zn40 1.965 . S
O47 C58 1.260 . S
O48 Zn41 1.969 . S
O48 C58 1.258 . S
C49 O46 1.267 . S
C49 O50 1.228 . S
O50 C49 1.228 . S
O51 Zn40 2.024 . S
O51 C42 1.058 . S
C52 O53 1.228 . S
C52 O54 1.267 . S
O53 C52 1.228 . S
O54 Zn41 1.969 . S
O54 C52 1.267 . S
O55 Zn41 1.965 . S
O55 C59 1.260 . S
O56 Zn40 1.969 . S
O56 C59 1.258 . S
O57 Zn41 2.024 . S
O57 C44 1.058 . S
C58 O47 1.260 . S
C58 O48 1.258 . S
C59 O55 1.260 . S
C59 O56 1.258 . S
Zn60 O66 1.969 . S
Zn60 O67 1.965 . S
Zn60 O71 2.024 . S
Zn60 O76 1.969 . S
Zn61 O68 1.969 . S
Zn61 O74 1.969 . S
Zn61 O75 1.965 . S
Zn61 O77 2.024 . S
C62 O63 1.229 . S
C62 O71 1.058 . S
O63 C62 1.229 . S
C64 O65 1.229 . S
C64 O77 1.058 . S
O65 C64 1.229 . S
O66 Zn60 1.969 . S
O66 C69 1.267 . S
O67 Zn60 1.965 . S
O67 C78 1.260 . S
O68 Zn61 1.969 . S
O68 C78 1.258 . S
C69 O66 1.267 . S
C69 O70 1.228 . S
O70 C69 1.228 . S
O71 Zn60 2.024 . S
O71 C62 1.058 . S
C72 O73 1.228 . S
C72 O74 1.267 . S
O73 C72 1.228 . S
O74 Zn61 1.969 . S
O74 C72 1.267 . S
O75 Zn61 1.965 . S
O75 C79 1.260 . S
O76 Zn60 1.969 . S
O76 C79 1.258 . S
O77 Zn61 2.024 . S
O77 C64 1.058 . S
C78 O67 1.260 . S
C78 O68 1.258 . S
C79 O75 1.260 . S
C79 O76 1.258 . S
Zn80 O86 1.969 . S
Zn80 O87 1.965 . S
Zn80 O91 2.024 . S
Zn80 O96 1.969 . S
Zn81 O88 1.969 . S
Zn81 O94 1.969 . S
Zn81 O95 1.965 . S
Zn81 O97 2.024 . S
C82 O83 1.229 . S
C82 O91 1.058 . S
O83 C82 1.229 . S
C84 O85 1.229 . S
C84 O97 1.058 . S
O85 C84 1.229 . S
O86 Zn80 1.969 . S
O86 C89 1.267 . S
O87 Zn80 1.965 . S
O87 C98 1.260 . S
O88 Zn81 1.969 . S
O88 C98 1.258 . S
C89 O86 1.267 . S
C89 O90 1.228 . S
O90 C89 1.228 . S
O91 Zn80 2.024 . S
O91 C82 1.058 . S
C92 O93 1.228 . S
C92 O94 1.267 . S
O93 C92 1.228 . S
O94 Zn81 1.969 . S
O94 C92 1.267 . S
O95 Zn81 1.965 . S
O95 C99 1.260 . S
O96 Zn80 1.969 . S
O96 C99 1.258 . S
O97 Zn81 2.024 . S
O97 C84 1.058 . S
C98 O87 1.260 . S
C98 O88 1.258 . S
C99 O95 1.260 . S
C99 O96 1.258 . S
Zn100 O106 1.969 . S
Zn100 O107 1.965 . S
Zn100 O111 2.024 . S
Zn100 O116 1.969 . S
Zn101 O108 1.969 . S
Zn101 O114 1.969 . S
Zn101 O115 1.965 . S
Zn101 O117 2.024 . S
C102 O103 1.229 . S
C102 O111 1.058 . S
O103 C102 1.229 . S
C104 O105 1.229 . S
C104 O117 1.058 . S
O105 C104 1.229 . S
O106 Zn100 1.969 . S
O106 C109 1.267 . S
O107 Zn100 1.965 . S
O107 C118 1.260 . S
O108 Zn101 1.969 . S
O108 C118 1.258 . S
C109 O106 1.267 . S
C109 O110 1.228 . S
O110 C109 1.228 . S
O111 Zn100 2.024 . S
O111 C102 1.058 . S
C112 O113 1.228 . S
C112 O114 1.267 . S
O113 C112 1.228 . S
O114 Zn101 1.969 . S
O114 C112 1.267 . S
O115 Zn101 1.965 . S
O115 C119 1.260 . S
O116 Zn100 1.969 . S
O116 C119 1.258 . S
O117 Zn101 2.024 . S
O117 C104 1.058 . S
C118 O107 1.260 . S
C118 O108 1.258 . S
C119 O115 1.260 . S
C119 O116 1.258 . S
Zn120 O126 1.969 . S
Zn120 O127 1.965 . S
Zn120 O131 2.024 . S
Zn120 O136 1.969 . S
Zn121 O128 1.969 . S
Zn121 O134 1.969 . S
Zn121 O135 1.965 . S
Zn121 O137 2.024 . S
C122 O123 1.229 . S
C122 O131 1.058 . S
O123 C122 1.229 . S
C124 O125 1.229 . S
C124 O137 1.058 . S
O125 C124 1.229 . S
O126 Zn120 1.969 . S
O126 C129 1.267 . S
O127 Zn120 1.965 . S
O127 C138 1.260 . S
O128 Zn121 1.969 . S
O128 C138 1.258 . S
C129 O126 1.267 . S
C129 O130 1.228 . S
O130 C129 1.228 . S
O131 Zn120 2.024 . S
O131 C122 1.058 . S
C132 O133 1.228 . S
C132 O134 1.267 . S
O133 C132 1.228 . S
O134 Zn121 1.969 . S
O134 C132 1.267 . S
O135 Zn121 1.965 . S
O135 C139 1.260 . S
O136 Zn120 1.969 . S
O136 C139 1.258 . S
O137 Zn121 2.024 . S
O137 C124 1.058 . S
C138 O127 1.260 . S
C138 O128 1.258 . S
C139 O135 1.260 . S
C139 O136 1.258 . S
Zn140 O146 1.969 . S
Zn140 O147 1.965 . S
Zn140 O151 2.024 . S
Zn140 O156 1.969 . S
Zn141 O148 1.969 . S
Zn141 O154 1.969 . S
Zn141 O155 1.965 . S
Zn141 O157 2.024 . S
C142 O143 1.229 . S
C142 O151 1.058 . S
O143 C142 1.229 . S
C144 O145 1.229 . S
C144 O157 1.058 . S
O145 C144 1.229 . S
O146 Zn140 1.969 . S
O146 C149 1.267 . S
O147 Zn140 1.965 . S
O147 C158 1.260 . S
O148 Zn141 1.969 . S
O148 C158 1.258 . S
C149 O146 1.267 . S
C149 O150 1.228 . S
O150 C149 1.228 . S
O151 Zn140 2.024 . S
O151 C142 1.058 . S
C152 O153 1.228 . S
C152 O154 1.267 . S
O153 C152 1.228 . S
O154 Zn141 1.969 . S
O154 C152 1.267 . S
O155 Zn141 1.965 . S
O155 C159 1.260 . S
O156 Zn140 1.969 . S
O156 C159 1.258 . S
O157 Zn141 2.024 . S
O157 C144 1.058 . S
C158 O147 1.260 . S
C158 O148 1.258 . S
C159 O155 1.260 . S
C159 O156 1.258 . S
Zn160 O166 1.969 . S
Zn160 O167 1.965 . S
Zn160 O171 2.024 . S
Zn160 O176 1.969 . S
Zn161 O168 1.969 . S
Zn161 O174 1.969 . S
Zn161 O175 1.965 . S
Zn161 O177 2.024 . S
C162 O163 1.229 . S
C162 O171 1.058 . S
O163 C162 1.229 . S
C164 O165 1.229 . S
C164 O177 1.058 . S
O165 C164 1.229 . S
O166 Zn160 1.969 . S
O166 C169 1.267 . S
O167 Zn160 1.965 . S
O167 C178 1.260 . S
O168 Zn161 1.969 . S
O168 C178 1.258 . S
C169 O166 1.267 . S
C169 O170 1.228 . S
O170 C169 1.228 . S
O171 Zn160 2.024 . S
O171 C162 1.058 . S
C172 O173 1.228 . S
C172 O174 1.267 . S
O173 C172 1.228 . S
O174 Zn161 1.969 . S
O174 C172 1.267 . S
O175 Zn161 1.965 . S
O175 C179 1.260 . S
O176 Zn160 1.969 . S
O176 C179 1.258 . S
O177 Zn161 2.024 . S
O177 C164 1.058 . S
C178 O167 1.260 . S
C178 O168 1.258 . S
C179 O175 1.260 . S
C179 O176 1.258 . S
Zn180 O186 1.969 . S
Zn180 O187 1.965 . S
Zn180 O191 2.024 . S
Zn180 O196 1.969 . S
Zn181 O188 1.969 . S
Zn181 O194 1.969 . S
Zn181 O195 1.965 . S
Zn181 O197 2.024 . S
C182 O183 1.229 . S
C182 O191 1.058 . S
O183 C182 1.229 . S
C184 O185 1.229 . S
C184 O197 1.058 . S
O185 C184 1.229 . S
O186 Zn180 1.969 . S
O186 C189 1.267 . S
O187 Zn180 1.965 . S
O187 C198 1.260 . S
O188 Zn181 1.969 . S
O188 C198 1.258 . S
C189 O186 1.267 . S
C189 O190 1.228 . S
O190 C189 1.228 . S
O191 Zn180 2.024 . S
O191 C182 1.058 . S
C192 O193 1.228 . S
C192 O194 1.267 . S
O193 C192 1.228 . S
O194 Zn181 1.969 . S
O194 C192 1.267 . S
O195 Zn181 1.965 . S
O195 C199 1.260 . S
O196 Zn180 1.969 . S
O196 C199 1.258 . S
O197 Zn181 2.024 . S
O197 C184 1.058 . S
C198 O187 1.260 . S
C198 O188 1.258 . S
C199 O195 1.260 . S
C199 O196 1.258 . S
Zn200 O206 1.969 . S
Zn200 O207 1.965 . S
Zn200 O211 2.024 . S
Zn200 O216 1.969 . S
Zn201 O208 1.969 . S
Zn201 O214 1.969 . S
Zn201 O215 1.965 . S
Zn201 O217 2.024 . S
C202 O203 1.229 . S
C202 O211 1.058 . S
O203 C202 1.229 . S
C204 O205 1.229 . S
C204 O217 1.058 . S
O205 C204 1.229 . S
O206 Zn200 1.969 . S
O206 C209 1.267 . S
O207 Zn200 1.965 . S
O207 C218 1.260 . S
O208 Zn201 1.969 . S
O208 C218 1.258 . S
C209 O206 1.267 . S
C209 O210 1.228 . S
O210 C209 1.228 . S
O211 Zn200 2.024 . S
O211 C202 1.058 . S
C212 O213 1.228 . S
C212 O214 1.267 . S
O213 C212 1.228 . S
O214 Zn201 1.969 . S
O214 C212 1.267 . S
O215 Zn201 1.965 . S
O215 C219 1.260 . S
O216 Zn200 1.969 . S
O216 C219 1.258 . S
O217 Zn201 2.024 . S
O217 C204 1.058 . S
C218 O207 1.260 . S
C218 O208 1.258 . S
C219 O215 1.260 . S
C219 O216 1.258 . S
Zn220 O226 1.969 . S
Zn220 O227 1.965 . S
Zn220 O231 2.024 . S
Zn220 O236 1.969 . S
Zn221 O228 1.969 . S
Zn221 O234 1.969 . S
Zn221 O235 1.965 . S
Zn221 O237 2.024 . S
C222 O223 1.229 . S
C222 O231 1.058 . S
O223 C222 1.229 . S
C224 O225 1.229 . S
C224 O237 1.058 . S
O225 C224 1.229 . S
O226 Zn220 1.969 . S
O226 C229 1.267 . S
O227 Zn220 1.965 . S
O227 C238 1.260 . S
O228 Zn221 1.969 . S
O228 C238 1.258 . S
C229 O226 1.267 . S
C229 O230 1.228 . S
O230 C229 1.228 . S
O231 Zn220 2.024 . S
O231 C222 1.058 . S
C232 O233 1.228 . S
C232 O234 1.267 . S
O233 C232 1.228 . S
O234 Zn221 1.969 . S
O234 C232 1.267 . S
O235 Zn221 1.965 . S
O235 C239 1.260 . S
O236 Zn220 1.969 . S
O236 C239 1.258 . S
O237 Zn221 2.024 . S
O237 C224 1.058 . S
C238 O227 1.260 . S
C238 O228 1.258 . S
C239 O235 1.260 . S
C239 O236 1.258 . S
C240 C241 1.349 . S
C240 C242 1.327 . S
C240 H265 0.950 . S
C241 C240 1.349 . S
C241 C257 1.349 . S
C242 C240 1.327 . S
C242 C261 1.429 . S
C242 H266 0.950 . S
C243 C260 1.574 . S
C243 C262 1.368 . S
C243 H267 0.949 . S
H244 C248 0.949 . S
C245 C246 1.349 . S
C245 C247 1.327 . S
C245 H268 0.950 . S
C246 C245 1.349 . S
C246 C258 1.349 . S
C247 C245 1.327 . S
C247 C263 1.429 . S
C247 H269 0.950 . S
C248 H244 0.949 . S
C248 C256 1.574 . S
C248 C264 1.368 . S
H249 C257 0.950 . S
H250 C255 0.950 . S
H251 C256 0.949 . S
H252 C258 0.950 . S
H253 C259 0.950 . S
H254 C260 0.949 . S
C255 H250 0.950 . S
C255 C257 1.327 . S
C255 C261 1.429 . S
C256 C248 1.574 . S
C256 H251 0.949 . S
C256 C262 1.368 . S
C257 C241 1.349 . S
C257 H249 0.950 . S
C257 C255 1.327 . S
C258 C246 1.349 . S
C258 H252 0.950 . S
C258 C259 1.327 . S
C259 H253 0.950 . S
C259 C258 1.327 . S
C259 C263 1.429 . S
C260 C243 1.574 . S
C260 H254 0.949 . S
C260 C264 1.368 . S
C261 C242 1.429 . S
C261 C255 1.429 . S
C261 C262 1.523 1_565 S
C262 C243 1.368 . S
C262 C256 1.368 . S
C262 C261 1.523 1_545 S
C263 C247 1.429 . S
C263 C259 1.429 . S
C263 C264 1.523 . S
C264 C248 1.368 . S
C264 C260 1.368 . S
C264 C263 1.523 . S
H265 C240 0.950 . S
H266 C242 0.950 . S
H267 C243 0.949 . S
H268 C245 0.950 . S
H269 C247 0.950 . S
C270 C271 1.349 . S
C270 C272 1.327 . S
C270 H295 0.950 . S
C271 C270 1.349 . S
C271 C287 1.349 . S
C272 C270 1.327 . S
C272 C291 1.429 . S
C272 H296 0.950 . S
C273 C290 1.574 . S
C273 C292 1.368 . S
C273 H297 0.949 . S
H274 C278 0.949 . S
C275 C276 1.349 . S
C275 C277 1.327 1_655 S
C275 H298 0.950 . S
C276 C275 1.349 . S
C276 C288 1.349 1_655 S
C277 C275 1.327 1_455 S
C277 C293 1.429 . S
C277 H299 0.950 . S
C278 H274 0.949 . S
C278 C286 1.574 . S
C278 C294 1.368 . S
H279 C287 0.950 . S
H280 C285 0.950 . S
H281 C286 0.949 . S
H282 C288 0.950 . S
H283 C289 0.950 . S
H284 C290 0.949 . S
C285 H280 0.950 . S
C285 C287 1.327 . S
C285 C291 1.429 . S
C286 C278 1.574 . S
C286 H281 0.949 . S
C286 C292 1.368 . S
C287 C271 1.349 . S
C287 H279 0.950 . S
C287 C285 1.327 . S
C288 C276 1.349 1_455 S
C288 H282 0.950 . S
C288 C289 1.327 . S
C289 H283 0.950 . S
C289 C288 1.327 . S
C289 C293 1.429 . S
C290 C273 1.574 . S
C290 H284 0.949 . S
C290 C294 1.368 . S
C291 C272 1.429 . S
C291 C285 1.429 . S
C291 C292 1.523 . S
C292 C273 1.368 . S
C292 C286 1.368 . S
C292 C291 1.523 . S
C293 C277 1.429 . S
C293 C289 1.429 . S
C293 C294 1.523 . S
C294 C278 1.368 . S
C294 C290 1.368 . S
C294 C293 1.523 . S
H295 C270 0.950 . S
H296 C272 0.950 . S
H297 C273 0.949 . S
H298 C275 0.950 . S
H299 C277 0.950 . S
C300 C301 1.349 . S
C300 C302 1.327 1_565 S
C300 H325 0.950 . S
C301 C300 1.349 . S
C301 C317 1.349 1_565 S
C302 C300 1.327 1_545 S
C302 C321 1.429 . S
C302 H326 0.950 . S
C303 C320 1.574 . S
C303 C322 1.368 . S
C303 H327 0.949 . S
H304 C308 0.949 . S
C305 C306 1.349 . S
C305 C307 1.327 . S
C305 H328 0.950 . S
C306 C305 1.349 . S
C306 C318 1.349 . S
C307 C305 1.327 . S
C307 C323 1.429 . S
C307 H329 0.962 . S
C308 H304 0.949 . S
C308 C316 1.574 . S
C308 C324 1.368 . S
H309 C317 0.950 . S
H310 C315 0.950 . S
H311 C316 0.949 . S
H312 C318 0.950 . S
H313 C319 0.950 . S
H314 C320 0.949 . S
C315 H310 0.950 . S
C315 C317 1.327 . S
C315 C321 1.429 . S
C316 C308 1.574 . S
C316 H311 0.949 . S
C316 C322 1.368 . S
C317 C301 1.349 1_545 S
C317 H309 0.950 . S
C317 C315 1.327 . S
C318 C306 1.349 . S
C318 H312 0.950 . S
C318 C319 1.327 . S
C319 H313 0.950 . S
C319 C318 1.327 . S
C319 C323 1.429 . S
C320 C303 1.574 . S
C320 H314 0.949 . S
C320 C324 1.368 . S
C321 C302 1.429 . S
C321 C315 1.429 . S
C321 C322 1.523 . S
C322 C303 1.368 . S
C322 C316 1.368 . S
C322 C321 1.523 . S
C323 C307 1.429 . S
C323 C319 1.429 . S
C323 C324 1.523 1_455 S
C324 C308 1.368 . S
C324 C320 1.368 . S
C324 C323 1.523 1_655 S
H325 C300 0.950 . S
H326 C302 0.950 . S
H327 C303 0.949 . S
H328 C305 0.950 . S
H329 C307 0.962 . S
C330 C331 1.349 . S
C330 C332 1.327 . S
C330 H355 0.950 . S
C331 C330 1.349 . S
C331 C347 1.349 . S
C332 C330 1.327 . S
C332 C351 1.429 . S
C332 H356 0.950 . S
C333 C350 1.574 . S
C333 C352 1.368 . S
C333 H357 0.949 . S
H334 C338 0.949 . S
C335 C336 1.349 . S
C335 C337 1.327 . S
C335 H358 0.950 . S
C336 C335 1.349 . S
C336 C348 1.349 . S
C337 C335 1.327 . S
C337 C353 1.429 . S
C337 H359 0.950 . S
C338 H334 0.949 . S
C338 C346 1.574 . S
C338 C354 1.368 . S
H339 C347 0.950 . S
H340 C345 0.950 . S
H341 C346 0.949 . S
H342 C348 0.950 . S
H343 C349 0.943 1_565 S
H344 C350 0.949 . S
C345 H340 0.950 . S
C345 C347 1.327 . S
C345 C351 1.429 . S
C346 C338 1.574 . S
C346 H341 0.949 . S
C346 C352 1.368 . S
C347 C331 1.349 . S
C347 H339 0.950 . S
C347 C345 1.327 . S
C348 C336 1.349 . S
C348 H342 0.950 . S
C348 C349 1.327 . S
C349 H343 0.943 1_545 S
C349 C348 1.327 . S
C349 C353 1.429 . S
C350 C333 1.574 . S
C350 H344 0.949 . S
C350 C354 1.368 . S
C351 C332 1.429 . S
C351 C345 1.429 . S
C351 C352 1.523 . S
C352 C333 1.368 . S
C352 C346 1.368 . S
C352 C351 1.523 . S
C353 C337 1.429 . S
C353 C349 1.429 . S
C353 C354 1.523 1_545 S
C354 C338 1.368 . S
C354 C350 1.368 . S
C354 C353 1.523 1_565 S
H355 C330 0.950 . S
H356 C332 0.950 . S
H357 C333 0.949 . S
H358 C335 0.950 . S
H359 C337 0.950 . S
C360 C361 1.349 1_655 S
C360 C362 1.327 . S
C360 H385 0.950 1_655 S
C361 C360 1.349 1_455 S
C361 C377 1.358 . S
C362 C360 1.327 . S
C362 C381 1.429 . S
C362 H386 0.950 . S
C363 C380 1.574 . S
C363 C382 1.368 . S
C363 H387 0.949 . S
H364 C368 0.949 . S
C365 C366 1.349 . S
C365 C367 1.327 . S
C365 H388 0.950 . S
C366 C365 1.349 . S
C366 C378 1.349 . S
C367 C365 1.327 . S
C367 C383 1.429 . S
C367 H389 0.950 . S
C368 H364 0.949 . S
C368 C376 1.574 . S
C368 C384 1.368 . S
H369 C377 0.959 . S
H370 C375 0.950 . S
H371 C376 0.949 . S
H372 C378 0.950 . S
H373 C379 0.950 . S
H374 C380 0.949 . S
C375 H370 0.950 . S
C375 C377 1.309 1_655 S
C375 C381 1.429 . S
C376 C368 1.574 . S
C376 H371 0.949 . S
C376 C382 1.368 . S
C377 C361 1.358 . S
C377 H369 0.959 . S
C377 C375 1.309 1_455 S
C378 C366 1.349 . S
C378 H372 0.950 . S
C378 C379 1.327 . S
C379 H373 0.950 . S
C379 C378 1.327 . S
C379 C383 1.429 . S
C380 C363 1.574 . S
C380 H374 0.949 . S
C380 C384 1.368 . S
C381 C362 1.429 . S
C381 C375 1.429 . S
C381 C382 1.523 . S
C382 C363 1.368 . S
C382 C376 1.368 . S
C382 C381 1.523 . S
C383 C367 1.429 . S
C383 C379 1.429 . S
C383 C384 1.523 . S
C384 C368 1.368 . S
C384 C380 1.368 . S
C384 C383 1.523 . S
H385 C360 0.950 1_455 S
H386 C362 0.950 . S
H387 C363 0.949 . S
H388 C365 0.950 . S
H389 C367 0.950 . S
C390 C391 1.349 . S
C390 C392 1.327 . S
C390 H415 0.950 . S
C391 C390 1.349 . S
C391 C407 1.349 . S
C392 C390 1.327 . S
C392 C411 1.429 . S
C392 H416 0.950 . S
C393 C410 1.574 . S
C393 C412 1.368 . S
C393 H417 0.949 . S
H394 C398 0.949 . S
C395 C396 1.349 . S
C395 C397 1.327 1_545 S
C395 H418 0.950 . S
C396 C395 1.349 . S
C396 C408 1.349 1_545 S
C397 C395 1.327 1_565 S
C397 C413 1.429 . S
C397 H419 0.950 . S
C398 H394 0.949 . S
C398 C406 1.574 . S
C398 C414 1.368 . S
H399 C407 0.950 . S
H400 C405 0.950 . S
H401 C406 0.949 . S
H402 C408 0.950 . S
H403 C409 0.950 . S
H404 C410 0.949 . S
C405 H400 0.950 . S
C405 C407 1.327 . S
C405 C411 1.429 . S
C406 C398 1.574 . S
C406 H401 0.949 . S
C406 C412 1.368 . S
C407 C391 1.349 . S
C407 H399 0.950 . S
C407 C405 1.327 . S
C408 C396 1.349 1_565 S
C408 H402 0.950 . S
C408 C409 1.327 . S
C409 H403 0.950 . S
C409 C408 1.327 . S
C409 C413 1.429 . S
C410 C393 1.574 . S
C410 H404 0.949 . S
C410 C414 1.368 . S
C411 C392 1.429 . S
C411 C405 1.429 . S
C411 C412 1.523 1_655 S
C412 C393 1.368 . S
C412 C406 1.368 . S
C412 C411 1.523 1_455 S
C413 C397 1.429 . S
C413 C409 1.429 . S
C413 C414 1.523 . S
C414 C398 1.368 . S
C414 C410 1.368 . S
C414 C413 1.523 . S
H415 C390 0.950 . S
H416 C392 0.950 . S
H417 C393 0.949 . S
H418 C395 0.950 . S
H419 C397 0.950 . S
C420 C421 1.349 . S
C420 C422 1.327 . S
C420 H445 0.950 . S
C421 C420 1.349 . S
C421 C437 1.349 . S
C422 C420 1.327 . S
C422 C441 1.429 . S
C422 H446 0.950 . S
C423 C440 1.574 . S
C423 C442 1.368 . S
C423 H447 0.949 . S
H424 C428 0.949 . S
C425 C426 1.349 . S
C425 C427 1.327 . S
C425 H448 0.950 . S
C426 C425 1.349 . S
C426 C438 1.349 . S
C427 C425 1.327 . S
C427 C443 1.429 . S
C427 H449 0.950 . S
C428 H424 0.949 . S
C428 C436 1.574 . S
C428 C444 1.368 . S
H429 C437 0.950 . S
H430 C435 0.950 . S
H431 C436 0.949 . S
H432 C438 0.950 . S
H433 C439 0.950 . S
H434 C440 0.949 . S
C435 H430 0.950 . S
C435 C437 1.327 . S
C435 C441 1.429 . S
C436 C428 1.574 . S
C436 H431 0.949 . S
C436 C442 1.368 . S
C437 C421 1.349 . S
C437 H429 0.950 . S
C437 C435 1.327 . S
C438 C426 1.349 . S
C438 H432 0.950 . S
C438 C439 1.327 . S
C439 H433 0.950 . S
C439 C438 1.327 . S
C439 C443 1.429 . S
C440 C423 1.574 . S
C440 H434 0.949 . S
C440 C444 1.368 . S
C441 C422 1.429 . S
C441 C435 1.429 . S
C441 C442 1.523 1_455 S
C442 C423 1.368 . S
C442 C436 1.368 . S
C442 C441 1.523 1_655 S
C443 C427 1.429 . S
C443 C439 1.429 . S
C443 C444 1.523 . S
C444 C428 1.368 . S
C444 C440 1.368 . S
C444 C443 1.523 . S
H445 C420 0.950 . S
H446 C422 0.950 . S
H447 C423 0.949 . S
H448 C425 0.950 . S
H449 C427 0.950 . S
C450 C451 1.349 1_455 S
C450 C452 1.327 . S
C450 H475 0.950 . S
C451 C450 1.349 1_655 S
C451 C467 1.349 . S
C452 C450 1.327 . S
C452 C471 1.429 . S
C452 H476 0.950 . S
C453 C470 1.574 . S
C453 C472 1.368 . S
C453 H477 0.949 . S
H454 C458 0.949 . S
C455 C456 1.349 . S
C455 C457 1.327 . S
C455 H478 0.950 . S
C456 C455 1.349 . S
C456 C468 1.349 . S
C457 C455 1.327 . S
C457 C473 1.429 . S
C457 H479 0.950 . S
C458 H454 0.949 . S
C458 C466 1.574 . S
C458 C474 1.368 . S
H459 C467 0.950 . S
H460 C465 0.950 . S
H461 C466 0.949 . S
H462 C468 0.950 . S
H463 C469 0.950 . S
H464 C470 0.949 . S
C465 H460 0.950 . S
C465 C467 1.327 1_455 S
C465 C471 1.429 . S
C466 C458 1.574 . S
C466 H461 0.949 . S
C466 C472 1.368 . S
C467 C451 1.349 . S
C467 H459 0.950 . S
C467 C465 1.327 1_655 S
C468 C456 1.349 . S
C468 H462 0.950 . S
C468 C469 1.327 . S
C469 H463 0.950 . S
C469 C468 1.327 . S
C469 C473 1.429 . S
C470 C453 1.574 . S
C470 H464 0.949 . S
C470 C474 1.368 . S
C471 C452 1.429 . S
C471 C465 1.429 . S
C471 C472 1.523 . S
C472 C453 1.368 . S
C472 C466 1.368 . S
C472 C471 1.523 . S
C473 C457 1.429 . S
C473 C469 1.429 . S
C473 C474 1.523 1_545 S
C474 C458 1.368 . S
C474 C470 1.368 . S
C474 C473 1.523 1_565 S
H475 C450 0.950 . S
H476 C452 0.950 . S
H477 C453 0.949 . S
H478 C455 0.950 . S
H479 C457 0.950 . S
C480 C481 1.349 . S
C480 C482 1.327 . S
C480 H505 0.950 . S
C481 C480 1.349 . S
C481 C497 1.349 . S
C482 C480 1.327 . S
C482 C501 1.429 . S
C482 H506 0.950 . S
C483 C500 1.574 . S
C483 C502 1.368 . S
C483 H507 0.949 . S
H484 C488 0.949 . S
C485 C486 1.349 . S
C485 C487 1.327 1_565 S
C485 H508 0.950 . S
C486 C485 1.349 . S
C486 C498 1.349 1_565 S
C487 C485 1.327 1_545 S
C487 C503 1.429 . S
C487 H509 0.950 . S
C488 H484 0.949 . S
C488 C496 1.574 . S
C488 C504 1.368 . S
H489 C497 0.950 . S
H490 C495 0.950 . S
H491 C496 0.949 . S
H492 C498 0.950 . S
H493 C499 0.950 . S
H494 C500 0.949 . S
C495 H490 0.950 . S
C495 C497 1.327 . S
C495 C501 1.429 . S
C496 C488 1.574 . S
C496 H491 0.949 . S
C496 C502 1.368 . S
C497 C481 1.349 . S
C497 H489 0.950 . S
C497 C495 1.327 . S
C498 C486 1.349 1_545 S
C498 H492 0.950 . S
C498 C499 1.327 . S
C499 H493 0.950 . S
C499 C498 1.327 . S
C499 C503 1.429 . S
C500 C483 1.574 . S
C500 H494 0.949 . S
C500 C504 1.368 . S
C501 C482 1.429 . S
C501 C495 1.429 . S
C501 C502 1.523 . S
C502 C483 1.368 . S
C502 C496 1.368 . S
C502 C501 1.523 . S
C503 C487 1.429 . S
C503 C499 1.429 . S
C503 C504 1.523 . S
C504 C488 1.368 . S
C504 C500 1.368 . S
C504 C503 1.523 . S
H505 C480 0.950 . S
H506 C482 0.950 . S
H507 C483 0.949 . S
H508 C485 0.950 . S
H509 C487 0.950 . S
C510 C511 1.349 . S
C510 C512 1.327 . S
C510 H535 0.950 . S
C511 C510 1.349 . S
C511 C527 1.349 . S
C512 C510 1.327 . S
C512 C531 1.429 . S
C512 H536 0.950 . S
C513 C530 1.574 . S
C513 C532 1.368 . S
C513 H537 0.949 . S
H514 C518 0.949 . S
C515 C516 1.349 . S
C515 C517 1.327 . S
C515 H538 0.950 . S
C516 C515 1.349 . S
C516 C528 1.349 . S
C517 C515 1.327 . S
C517 C533 1.429 . S
C517 H539 0.950 1_655 S
C518 H514 0.949 . S
C518 C526 1.574 . S
C518 C534 1.368 . S
H519 C527 0.950 . S
H520 C525 0.950 . S
H521 C526 0.949 . S
H522 C528 0.950 . S
H523 C529 0.950 . S
H524 C530 0.949 . S
C525 H520 0.950 . S
C525 C527 1.327 . S
C525 C531 1.429 . S
C526 C518 1.574 . S
C526 H521 0.949 . S
C526 C532 1.368 . S
C527 C511 1.349 . S
C527 H519 0.950 . S
C527 C525 1.327 . S
C528 C516 1.349 . S
C528 H522 0.950 . S
C528 C529 1.327 . S
C529 H523 0.950 . S
C529 C528 1.327 . S
C529 C533 1.429 . S
C530 C513 1.574 . S
C530 H524 0.949 . S
C530 C534 1.368 . S
C531 C512 1.429 . S
C531 C525 1.429 . S
C531 C532 1.523 . S
C532 C513 1.368 . S
C532 C526 1.368 . S
C532 C531 1.523 . S
C533 C517 1.429 . S
C533 C529 1.429 . S
C533 C534 1.523 1_655 S
C534 C518 1.368 . S
C534 C530 1.368 . S
C534 C533 1.523 1_455 S
H535 C510 0.950 . S
H536 C512 0.950 . S
H537 C513 0.949 . S
H538 C515 0.950 . S
H539 C517 0.950 1_455 S
C540 C541 1.349 1_655 S
C540 C542 1.327 . S
C540 H565 0.950 . S
C541 C540 1.349 1_455 S
C541 C557 1.349 . S
C542 C540 1.327 . S
C542 C561 1.429 . S
C542 H566 0.950 . S
C543 C560 1.574 . S
C543 C562 1.368 . S
C543 H567 0.949 . S
H544 C548 0.949 . S
C545 C546 1.349 . S
C545 C547 1.327 . S
C545 H568 0.950 . S
C546 C545 1.349 . S
C546 C558 1.349 . S
C547 C545 1.327 . S
C547 C563 1.429 . S
C547 H569 0.950 . S
C548 H544 0.949 . S
C548 C556 1.574 . S
C548 C564 1.368 . S
H549 C557 0.950 . S
H550 C555 0.950 . S
H551 C556 0.949 . S
H552 C558 0.950 . S
H553 C559 0.950 1_545 S
H554 C560 0.949 . S
C555 H550 0.950 . S
C555 C557 1.327 1_655 S
C555 C561 1.429 . S
C556 C548 1.574 . S
C556 H551 0.949 . S
C556 C562 1.368 . S
C557 C541 1.349 . S
C557 H549 0.950 . S
C557 C555 1.327 1_455 S
C558 C546 1.349 . S
C558 H552 0.950 . S
C558 C559 1.327 . S
C559 H553 0.950 1_565 S
C559 C558 1.327 . S
C559 C563 1.429 . S
C560 C543 1.574 . S
C560 H554 0.949 . S
C560 C564 1.368 . S
C561 C542 1.429 . S
C561 C555 1.429 . S
C561 C562 1.523 . S
C562 C543 1.368 . S
C562 C556 1.368 . S
C562 C561 1.523 . S
C563 C547 1.429 . S
C563 C559 1.429 . S
C563 C564 1.523 1_565 S
C564 C548 1.368 . S
C564 C560 1.368 . S
C564 C563 1.523 1_545 S
H565 C540 0.950 . S
H566 C542 0.950 . S
H567 C543 0.949 . S
H568 C545 0.950 . S
H569 C547 0.950 . S
C570 C571 1.349 . S
C570 C572 1.327 . S
C570 H595 0.950 . S
C571 C570 1.349 . S
C571 C587 1.349 . S
C572 C570 1.327 . S
C572 C591 1.429 . S
C572 H596 0.950 . S
C573 C590 1.574 . S
C573 C592 1.368 . S
C573 H597 0.949 . S
H574 C578 0.949 . S
C575 C576 1.349 1_565 S
C575 C577 1.327 . S
C575 H598 0.950 . S
C576 C575 1.349 1_545 S
C576 C588 1.349 . S
C577 C575 1.327 . S
C577 C593 1.429 . S
C577 H599 0.950 . S
C578 H574 0.949 . S
C578 C586 1.574 . S
C578 C594 1.368 . S
H579 C587 0.950 . S
H580 C585 0.950 . S
H581 C586 0.949 . S
H582 C588 0.950 . S
H583 C589 0.950 . S
H584 C590 0.949 . S
C585 H580 0.950 . S
C585 C587 1.327 . S
C585 C591 1.429 . S
C586 C578 1.574 . S
C586 H581 0.949 . S
C586 C592 1.368 . S
C587 C571 1.349 . S
C587 H579 0.950 . S
C587 C585 1.327 . S
C588 C576 1.349 . S
C588 H582 0.950 . S
C588 C589 1.327 1_545 S
C589 H583 0.950 . S
C589 C588 1.327 1_565 S
C589 C593 1.429 . S
C590 C573 1.574 . S
C590 H584 0.949 . S
C590 C594 1.368 . S
C591 C572 1.429 . S
C591 C585 1.429 . S
C591 C592 1.523 . S
C592 C573 1.368 . S
C592 C586 1.368 . S
C592 C591 1.523 . S
C593 C577 1.429 . S
C593 C589 1.429 . S
C593 C594 1.523 . S
C594 C578 1.368 . S
C594 C590 1.368 . S
C594 C593 1.523 . S
H595 C570 0.950 . S
H596 C572 0.950 . S
H597 C573 0.949 . S
H598 C575 0.950 . S
H599 C577 0.950 . S
C600 C601 1.349 . S
C600 C602 1.327 . S
C600 H625 0.950 . S
C601 C600 1.349 . S
C601 C617 1.349 . S
C602 C600 1.327 . S
C602 C621 1.429 . S
C602 H626 0.950 . S
C603 C620 1.574 . S
C603 C622 1.368 . S
C603 H627 0.949 . S
H604 C608 0.949 . S
C605 C606 1.349 . S
C605 C607 1.327 . S
C605 H628 0.950 . S
C606 C605 1.349 . S
C606 C618 1.349 . S
C607 C605 1.327 . S
C607 C623 1.429 . S
C607 H629 0.950 . S
C608 H604 0.949 . S
C608 C616 1.574 . S
C608 C624 1.368 . S
H609 C617 0.950 . S
H610 C615 0.950 . S
H611 C616 0.949 . S
H612 C618 0.950 . S
H613 C619 0.950 . S
H614 C620 0.949 . S
C615 H610 0.950 . S
C615 C617 1.327 . S
C615 C621 1.429 . S
C616 C608 1.574 . S
C616 H611 0.949 . S
C616 C622 1.368 . S
C617 C601 1.349 . S
C617 H609 0.950 . S
C617 C615 1.327 . S
C618 C606 1.349 . S
C618 H612 0.950 . S
C618 C619 1.327 . S
C619 H613 0.950 . S
C619 C618 1.327 . S
C619 C623 1.429 . S
C620 C603 1.574 . S
C620 H614 0.949 . S
C620 C624 1.368 . S
C621 C602 1.429 . S
C621 C615 1.429 . S
C621 C622 1.523 . S
C622 C603 1.368 . S
C622 C616 1.368 . S
C622 C621 1.523 . S
C623 C607 1.429 . S
C623 C619 1.429 . S
C623 C624 1.523 . S
C624 C608 1.368 . S
C624 C620 1.368 . S
C624 C623 1.523 . S
H625 C600 0.950 . S
H626 C602 0.950 . S
H627 C603 0.949 . S
H628 C605 0.950 . S
H629 C607 0.950 . S
C630 C631 1.349 . S
C630 C632 1.327 . S
C630 H655 0.950 . S
C631 C630 1.349 . S
C631 C647 1.349 . S
C632 C630 1.327 . S
C632 C651 1.429 . S
C632 H656 0.950 . S
C633 C650 1.574 . S
C633 C652 1.368 . S
C633 H657 0.949 . S
H634 C638 0.949 . S
C635 C636 1.349 . S
C635 C637 1.327 . S
C635 H658 0.950 . S
C636 C635 1.349 . S
C636 C648 1.349 . S
C637 C635 1.327 . S
C637 C653 1.429 . S
C637 H659 0.950 . S
C638 H634 0.949 . S
C638 C646 1.574 . S
C638 C654 1.368 . S
H639 C647 0.950 . S
H640 C645 0.950 . S
H641 C646 0.949 . S
H642 C648 0.950 . S
H643 C649 0.950 . S
H644 C650 0.949 . S
C645 H640 0.950 . S
C645 C647 1.327 . S
C645 C651 1.429 . S
C646 C638 1.574 . S
C646 H641 0.949 . S
C646 C652 1.368 . S
C647 C631 1.349 . S
C647 H639 0.950 . S
C647 C645 1.327 . S
C648 C636 1.349 . S
C648 H642 0.950 . S
C648 C649 1.327 . S
C649 H643 0.950 . S
C649 C648 1.327 . S
C649 C653 1.429 . S
C650 C633 1.574 . S
C650 H644 0.949 . S
C650 C654 1.368 . S
C651 C632 1.429 . S
C651 C645 1.429 . S
C651 C652 1.523 . S
C652 C633 1.368 . S
C652 C646 1.368 . S
C652 C651 1.523 . S
C653 C637 1.429 . S
C653 C649 1.429 . S
C653 C654 1.523 . S
C654 C638 1.368 . S
C654 C650 1.368 . S
C654 C653 1.523 . S
H655 C630 0.950 . S
H656 C632 0.950 . S
H657 C633 0.949 . S
H658 C635 0.950 . S
H659 C637 0.950 . S
C660 C661 1.349 . S
C660 C662 1.327 . S
C660 H685 0.950 . S
C661 C660 1.349 . S
C661 C677 1.349 . S
C662 C660 1.327 . S
C662 C681 1.429 . S
C662 H686 0.950 . S
C663 C680 1.574 . S
C663 C682 1.368 . S
C663 H687 0.949 . S
H664 C668 0.949 . S
C665 C666 1.349 . S
C665 C667 1.327 . S
C665 H688 0.950 . S
C666 C665 1.349 . S
C666 C678 1.349 . S
C667 C665 1.327 . S
C667 C683 1.429 . S
C667 H689 0.950 . S
C668 H664 0.949 . S
C668 C676 1.574 . S
C668 C684 1.368 . S
H669 C677 0.950 . S
H670 C675 0.950 . S
H671 C676 0.949 . S
H672 C678 0.950 . S
H673 C679 0.950 . S
H674 C680 0.949 . S
C675 H670 0.950 . S
C675 C677 1.327 . S
C675 C681 1.429 . S
C676 C668 1.574 . S
C676 H671 0.949 . S
C676 C682 1.368 . S
C677 C661 1.349 . S
C677 H669 0.950 . S
C677 C675 1.327 . S
C678 C666 1.349 . S
C678 H672 0.950 . S
C678 C679 1.327 . S
C679 H673 0.950 . S
C679 C678 1.327 . S
C679 C683 1.429 . S
C680 C663 1.574 . S
C680 H674 0.949 . S
C680 C684 1.368 . S
C681 C662 1.429 . S
C681 C675 1.429 . S
C681 C682 1.523 . S
C682 C663 1.368 . S
C682 C676 1.368 . S
C682 C681 1.523 . S
C683 C667 1.429 . S
C683 C679 1.429 . S
C683 C684 1.523 . S
C684 C668 1.368 . S
C684 C680 1.368 . S
C684 C683 1.523 . S
H685 C660 0.950 . S
H686 C662 0.950 . S
H687 C663 0.949 . S
H688 C665 0.950 . S
H689 C667 0.950 . S
C690 C691 1.349 . S
C690 C692 1.327 . S
C690 H715 0.950 . S
C691 C690 1.349 . S
C691 C707 1.349 . S
C692 C690 1.327 . S
C692 C711 1.429 . S
C692 H716 0.950 . S
C693 C710 1.574 . S
C693 C712 1.368 . S
C693 H717 0.949 . S
H694 C698 0.949 . S
C695 C696 1.349 . S
C695 C697 1.327 . S
C695 H718 0.950 . S
C696 C695 1.349 . S
C696 C708 1.349 . S
C697 C695 1.327 . S
C697 C713 1.429 . S
C697 H719 0.950 . S
C698 H694 0.949 . S
C698 C706 1.574 . S
C698 C714 1.368 . S
H699 C707 0.950 . S
H700 C705 0.950 . S
H701 C706 0.949 . S
H702 C708 0.950 . S
H703 C709 0.950 . S
H704 C710 0.949 . S
C705 H700 0.950 . S
C705 C707 1.327 . S
C705 C711 1.429 . S
C706 C698 1.574 . S
C706 H701 0.949 . S
C706 C712 1.368 . S
C707 C691 1.349 . S
C707 H699 0.950 . S
C707 C705 1.327 . S
C708 C696 1.349 . S
C708 H702 0.950 . S
C708 C709 1.327 . S
C709 H703 0.950 . S
C709 C708 1.327 . S
C709 C713 1.429 . S
C710 C693 1.574 . S
C710 H704 0.949 . S
C710 C714 1.368 . S
C711 C692 1.429 . S
C711 C705 1.429 . S
C711 C712 1.523 . S
C712 C693 1.368 . S
C712 C706 1.368 . S
C712 C711 1.523 . S
C713 C697 1.429 . S
C713 C709 1.429 . S
C713 C714 1.523 . S
C714 C698 1.368 . S
C714 C710 1.368 . S
C714 C713 1.523 . S
H715 C690 0.950 . S
H716 C692 0.950 . S
H717 C693 0.949 . S
H718 C695 0.950 . S
H719 C697 0.950 . S
C720 C721 1.349 . S
C720 C722 1.327 . S
C720 H745 0.950 . S
C721 C720 1.349 . S
C721 C737 1.349 . S
C722 C720 1.327 . S
C722 C741 1.429 . S
C722 H746 0.950 . S
C723 C740 1.574 . S
C723 C742 1.368 . S
C723 H747 0.949 . S
H724 C728 0.949 . S
C725 C726 1.349 . S
C725 C727 1.327 . S
C725 H748 0.950 . S
C726 C725 1.349 . S
C726 C738 1.349 . S
C727 C725 1.327 . S
C727 C743 1.429 . S
C727 H749 0.950 . S
C728 H724 0.949 . S
C728 C736 1.574 . S
C728 C744 1.368 . S
H729 C737 0.950 . S
H730 C735 0.950 . S
H731 C736 0.949 . S
H732 C738 0.950 . S
H733 C739 0.950 . S
H734 C740 0.949 . S
C735 H730 0.950 . S
C735 C737 1.327 . S
C735 C741 1.429 . S
C736 C728 1.574 . S
C736 H731 0.949 . S
C736 C742 1.368 . S
C737 C721 1.349 . S
C737 H729 0.950 . S
C737 C735 1.327 . S
C738 C726 1.349 . S
C738 H732 0.950 . S
C738 C739 1.327 . S
C739 H733 0.950 . S
C739 C738 1.327 . S
C739 C743 1.429 . S
C740 C723 1.574 . S
C740 H734 0.949 . S
C740 C744 1.368 . S
C741 C722 1.429 . S
C741 C735 1.429 . S
C741 C742 1.523 . S
C742 C723 1.368 . S
C742 C736 1.368 . S
C742 C741 1.523 . S
C743 C727 1.429 . S
C743 C739 1.429 . S
C743 C744 1.523 . S
C744 C728 1.368 . S
C744 C740 1.368 . S
C744 C743 1.523 . S
H745 C720 0.950 . S
H746 C722 0.950 . S
H747 C723 0.949 . S
H748 C725 0.950 . S
H749 C727 0.950 . S
C750 C751 1.349 . S
C750 C752 1.327 . S
C750 H775 0.950 . S
C751 C750 1.349 . S
C751 C767 1.349 . S
C752 C750 1.327 . S
C752 C771 1.429 . S
C752 H776 0.950 . S
C753 C770 1.574 . S
C753 C772 1.368 . S
C753 H777 0.949 . S
H754 C758 0.949 . S
C755 C756 1.349 . S
C755 C757 1.327 . S
C755 H778 0.950 . S
C756 C755 1.349 . S
C756 C768 1.349 . S
C757 C755 1.327 . S
C757 C773 1.429 . S
C757 H779 0.950 . S
C758 H754 0.949 . S
C758 C766 1.574 . S
C758 C774 1.368 . S
H759 C767 0.950 . S
H760 C765 0.950 . S
H761 C766 0.949 . S
H762 C768 0.950 . S
H763 C769 0.950 . S
H764 C770 0.949 . S
C765 H760 0.950 . S
C765 C767 1.327 . S
C765 C771 1.429 . S
C766 C758 1.574 . S
C766 H761 0.949 . S
C766 C772 1.368 . S
C767 C751 1.349 . S
C767 H759 0.950 . S
C767 C765 1.327 . S
C768 C756 1.349 . S
C768 H762 0.950 . S
C768 C769 1.327 . S
C769 H763 0.950 . S
C769 C768 1.327 . S
C769 C773 1.429 . S
C770 C753 1.574 . S
C770 H764 0.949 . S
C770 C774 1.368 . S
C771 C752 1.429 . S
C771 C765 1.429 . S
C771 C772 1.523 . S
C772 C753 1.368 . S
C772 C766 1.368 . S
C772 C771 1.523 . S
C773 C757 1.429 . S
C773 C769 1.429 . S
C773 C774 1.523 . S
C774 C758 1.368 . S
C774 C770 1.368 . S
C774 C773 1.523 . S
H775 C750 0.950 . S
H776 C752 0.950 . S
H777 C753 0.949 . S
H778 C755 0.950 . S
H779 C757 0.950 . S
C780 C781 1.349 . S
C780 C782 1.327 . S
C780 H805 0.950 . S
C781 C780 1.349 . S
C781 C797 1.349 . S
C782 C780 1.327 . S
C782 C801 1.429 . S
C782 H806 0.950 . S
C783 C800 1.574 . S
C783 C802 1.368 . S
C783 H807 0.949 . S
H784 C788 0.949 . S
C785 C786 1.349 . S
C785 C787 1.327 . S
C785 H808 0.950 . S
C786 C785 1.349 . S
C786 C798 1.349 . S
C787 C785 1.327 . S
C787 C803 1.429 . S
C787 H809 0.950 . S
C788 H784 0.949 . S
C788 C796 1.574 . S
C788 C804 1.368 . S
H789 C797 0.950 . S
H790 C795 0.950 . S
H791 C796 0.949 . S
H792 C798 0.950 . S
H793 C799 0.950 . S
H794 C800 0.949 . S
C795 H790 0.950 . S
C795 C797 1.327 . S
C795 C801 1.429 . S
C796 C788 1.574 . S
C796 H791 0.949 . S
C796 C802 1.368 . S
C797 C781 1.349 . S
C797 H789 0.950 . S
C797 C795 1.327 . S
C798 C786 1.349 . S
C798 H792 0.950 . S
C798 C799 1.327 . S
C799 H793 0.950 . S
C799 C798 1.327 . S
C799 C803 1.429 . S
C800 C783 1.574 . S
C800 H794 0.949 . S
C800 C804 1.368 . S
C801 C782 1.429 . S
C801 C795 1.429 . S
C801 C802 1.523 . S
C802 C783 1.368 . S
C802 C796 1.368 . S
C802 C801 1.523 . S
C803 C787 1.429 . S
C803 C799 1.429 . S
C803 C804 1.523 . S
C804 C788 1.368 . S
C804 C800 1.368 . S
C804 C803 1.523 . S
H805 C780 0.950 . S
H806 C782 0.950 . S
H807 C783 0.949 . S
H808 C785 0.950 . S
H809 C787 0.950 . S
C810 C811 1.349 . S
C810 C812 1.327 . S
C810 H835 0.950 . S
C811 C810 1.349 . S
C811 C827 1.349 . S
C812 C810 1.327 . S
C812 C831 1.429 . S
C812 H836 0.950 . S
C813 C830 1.574 . S
C813 C832 1.368 . S
C813 H837 0.949 . S
H814 C818 0.949 . S
C815 C816 1.349 . S
C815 C817 1.327 . S
C815 H838 0.950 . S
C816 C815 1.349 . S
C816 C828 1.349 . S
C817 C815 1.327 . S
C817 C833 1.429 . S
C817 H839 0.950 . S
C818 H814 0.949 . S
C818 C826 1.574 . S
C818 C834 1.368 . S
H819 C827 0.950 . S
H820 C825 0.950 . S
H821 C826 0.949 . S
H822 C828 0.950 . S
H823 C829 0.950 . S
H824 C830 0.949 . S
C825 H820 0.950 . S
C825 C827 1.327 . S
C825 C831 1.429 . S
C826 C818 1.574 . S
C826 H821 0.949 . S
C826 C832 1.368 . S
C827 C811 1.349 . S
C827 H819 0.950 . S
C827 C825 1.327 . S
C828 C816 1.349 . S
C828 H822 0.950 . S
C828 C829 1.327 . S
C829 H823 0.950 . S
C829 C828 1.327 . S
C829 C833 1.429 . S
C830 C813 1.574 . S
C830 H824 0.949 . S
C830 C834 1.368 . S
C831 C812 1.429 . S
C831 C825 1.429 . S
C831 C832 1.523 . S
C832 C813 1.368 . S
C832 C826 1.368 . S
C832 C831 1.523 . S
C833 C817 1.429 . S
C833 C829 1.429 . S
C833 C834 1.523 . S
C834 C818 1.368 . S
C834 C830 1.368 . S
C834 C833 1.523 . S
H835 C810 0.950 . S
H836 C812 0.950 . S
H837 C813 0.949 . S
H838 C815 0.950 . S
H839 C817 0.950 . S
C840 C841 1.349 . S
C840 C842 1.327 . S
C840 H865 0.950 . S
C841 C840 1.349 . S
C841 C857 1.349 . S
C842 C840 1.327 . S
C842 C861 1.429 . S
C842 H866 0.950 . S
C843 C860 1.574 . S
C843 C862 1.368 . S
C843 H867 0.949 . S
H844 C848 0.949 . S
C845 C846 1.349 . S
C845 C847 1.327 . S
C845 H868 0.950 . S
C846 C845 1.349 . S
C846 C858 1.349 . S
C847 C845 1.327 . S
C847 C863 1.429 . S
C847 H869 0.950 . S
C848 H844 0.949 . S
C848 C856 1.574 . S
C848 C864 1.368 . S
H849 C857 0.950 . S
H850 C855 0.950 . S
H851 C856 0.949 . S
H852 C858 0.950 . S
H853 C859 0.950 . S
H854 C860 0.949 . S
C855 H850 0.950 . S
C855 C857 1.327 . S
C855 C861 1.429 . S
C856 C848 1.574 . S
C856 H851 0.949 . S
C856 C862 1.368 . S
C857 C841 1.349 . S
C857 H849 0.950 . S
C857 C855 1.327 . S
C858 C846 1.349 . S
C858 H852 0.950 . S
C858 C859 1.327 . S
C859 H853 0.950 . S
C859 C858 1.327 . S
C859 C863 1.429 . S
C860 C843 1.574 . S
C860 H854 0.949 . S
C860 C864 1.368 . S
C861 C842 1.429 . S
C861 C855 1.429 . S
C861 C862 1.523 . S
C862 C843 1.368 . S
C862 C856 1.368 . S
C862 C861 1.523 . S
C863 C847 1.429 . S
C863 C859 1.429 . S
C863 C864 1.523 . S
C864 C848 1.368 . S
C864 C860 1.368 . S
C864 C863 1.523 . S
H865 C840 0.950 . S
H866 C842 0.950 . S
H867 C843 0.949 . S
H868 C845 0.950 . S
H869 C847 0.950 . S
C870 C871 1.349 . S
C870 C872 1.327 . S
C870 H895 0.950 . S
C871 C870 1.349 . S
C871 C887 1.349 . S
C872 C870 1.327 . S
C872 C891 1.429 . S
C872 H896 0.950 . S
C873 C890 1.574 . S
C873 C892 1.368 . S
C873 H897 0.949 . S
H874 C878 0.949 . S
C875 C876 1.349 . S
C875 C877 1.327 . S
C875 H898 0.950 . S
C876 C875 1.349 . S
C876 C888 1.349 . S
C877 C875 1.327 . S
C877 C893 1.429 . S
C877 H899 0.950 . S
C878 H874 0.949 . S
C878 C886 1.574 . S
C878 C894 1.368 . S
H879 C887 0.950 . S
H880 C885 0.950 . S
H881 C886 0.949 . S
H882 C888 0.950 . S
H883 C889 0.950 . S
H884 C890 0.949 . S
C885 H880 0.950 . S
C885 C887 1.327 . S
C885 C891 1.429 . S
C886 C878 1.574 . S
C886 H881 0.949 . S
C886 C892 1.368 . S
C887 C871 1.349 . S
C887 H879 0.950 . S
C887 C885 1.327 . S
C888 C876 1.349 . S
C888 H882 0.950 . S
C888 C889 1.327 . S
C889 H883 0.950 . S
C889 C888 1.327 . S
C889 C893 1.429 . S
C890 C873 1.574 . S
C890 H884 0.949 . S
C890 C894 1.368 . S
C891 C872 1.429 . S
C891 C885 1.429 . S
C891 C892 1.523 . S
C892 C873 1.368 . S
C892 C886 1.368 . S
C892 C891 1.523 . S
C893 C877 1.429 . S
C893 C889 1.429 . S
C893 C894 1.523 . S
C894 C878 1.368 . S
C894 C890 1.368 . S
C894 C893 1.523 . S
H895 C870 0.950 . S
H896 C872 0.950 . S
H897 C873 0.949 . S
H898 C875 0.950 . S
H899 C877 0.950 . S
C900 C901 1.349 . S
C900 C902 1.327 . S
C900 H925 0.950 . S
C901 C900 1.349 . S
C901 C917 1.349 . S
C902 C900 1.327 . S
C902 C921 1.429 . S
C902 H926 0.950 . S
C903 C920 1.574 . S
C903 C922 1.368 . S
C903 H927 0.949 . S
H904 C908 0.949 . S
C905 C906 1.349 . S
C905 C907 1.327 . S
C905 H928 0.950 . S
C906 C905 1.349 . S
C906 C918 1.349 . S
C907 C905 1.327 . S
C907 C923 1.429 . S
C907 H929 0.950 . S
C908 H904 0.949 . S
C908 C916 1.574 . S
C908 C924 1.368 . S
H909 C917 0.950 . S
H910 C915 0.950 . S
H911 C916 0.949 . S
H912 C918 0.950 . S
H913 C919 0.950 . S
H914 C920 0.949 . S
C915 H910 0.950 . S
C915 C917 1.327 . S
C915 C921 1.429 . S
C916 C908 1.574 . S
C916 H911 0.949 . S
C916 C922 1.368 . S
C917 C901 1.349 . S
C917 H909 0.950 . S
C917 C915 1.327 . S
C918 C906 1.349 . S
C918 H912 0.950 . S
C918 C919 1.327 . S
C919 H913 0.950 . S
C919 C918 1.327 . S
C919 C923 1.429 . S
C920 C903 1.574 . S
C920 H914 0.949 . S
C920 C924 1.368 . S
C921 C902 1.429 . S
C921 C915 1.429 . S
C921 C922 1.523 . S
C922 C903 1.368 . S
C922 C916 1.368 . S
C922 C921 1.523 . S
C923 C907 1.429 . S
C923 C919 1.429 . S
C923 C924 1.523 . S
C924 C908 1.368 . S
C924 C920 1.368 . S
C924 C923 1.523 . S
H925 C900 0.950 . S
H926 C902 0.950 . S
H927 C903 0.949 . S
H928 C905 0.950 . S
H929 C907 0.950 . S
C930 C931 1.349 . S
C930 C932 1.327 . S
C930 H955 0.950 . S
C931 C930 1.349 . S
C931 C947 1.349 . S
C932 C930 1.327 . S
C932 C951 1.429 . S
C932 H956 0.950 . S
C933 C950 1.574 . S
C933 C952 1.368 . S
C933 H957 0.949 . S
H934 C938 0.949 . S
C935 C936 1.349 . S
C935 C937 1.327 . S
C935 H958 0.950 . S
C936 C935 1.349 . S
C936 C948 1.349 . S
C937 C935 1.327 . S
C937 C953 1.429 . S
C937 H959 0.950 . S
C938 H934 0.949 . S
C938 C946 1.574 . S
C938 C954 1.368 . S
H939 C947 0.950 . S
H940 C945 0.950 . S
H941 C946 0.949 . S
H942 C948 0.950 . S
H943 C949 0.950 . S
H944 C950 0.949 . S
C945 H940 0.950 . S
C945 C947 1.327 . S
C945 C951 1.429 . S
C946 C938 1.574 . S
C946 H941 0.949 . S
C946 C952 1.368 . S
C947 C931 1.349 . S
C947 H939 0.950 . S
C947 C945 1.327 . S
C948 C936 1.349 . S
C948 H942 0.950 . S
C948 C949 1.327 . S
C949 H943 0.950 . S
C949 C948 1.327 . S
C949 C953 1.429 . S
C950 C933 1.574 . S
C950 H944 0.949 . S
C950 C954 1.368 . S
C951 C932 1.429 . S
C951 C945 1.429 . S
C951 C952 1.523 . S
C952 C933 1.368 . S
C952 C946 1.368 . S
C952 C951 1.523 . S
C953 C937 1.429 . S
C953 C949 1.429 . S
C953 C954 1.523 . S
C954 C938 1.368 . S
C954 C950 1.368 . S
C954 C953 1.523 . S
H955 C930 0.950 . S
H956 C932 0.950 . S
H957 C933 0.949 . S
H958 C935 0.950 . S
H959 C937 0.950 . S
C960 C961 1.349 . S
C960 C962 1.327 . S
C960 H985 0.950 . S
C961 C960 1.349 . S
C961 C977 1.349 . S
C962 C960 1.327 . S
C962 C981 1.429 . S
C962 H986 0.950 . S
C963 C980 1.574 . S
C963 C982 1.368 . S
C963 H987 0.949 . S
H964 C968 0.949 . S
C965 C966 1.349 . S
C965 C967 1.327 . S
C965 H988 0.950 . S
C966 C965 1.349 . S
C966 C978 1.349 . S
C967 C965 1.327 . S
C967 C983 1.429 . S
C967 H989 0.950 . S
C968 H964 0.949 . S
C968 C976 1.574 . S
C968 C984 1.368 . S
H969 C977 0.950 . S
H970 C975 0.950 . S
H971 C976 0.949 . S
H972 C978 0.950 . S
H973 C979 0.950 . S
H974 C980 0.949 . S
C975 H970 0.950 . S
C975 C977 1.327 . S
C975 C981 1.429 . S
C976 C968 1.574 . S
C976 H971 0.949 . S
C976 C982 1.368 . S
C977 C961 1.349 . S
C977 H969 0.950 . S
C977 C975 1.327 . S
C978 C966 1.349 . S
C978 H972 0.950 . S
C978 C979 1.327 . S
C979 H973 0.950 . S
C979 C978 1.327 . S
C979 C983 1.429 . S
C980 C963 1.574 . S
C980 H974 0.949 . S
C980 C984 1.368 . S
C981 C962 1.429 . S
C981 C975 1.429 . S
C981 C982 1.523 . S
C982 C963 1.368 . S
C982 C976 1.368 . S
C982 C981 1.523 . S
C983 C967 1.429 . S
C983 C979 1.429 . S
C983 C984 1.523 . S
C984 C968 1.368 . S
C984 C980 1.368 . S
C984 C983 1.523 . S
H985 C960 0.950 . S
H986 C962 0.950 . S
H987 C963 0.949 . S
H988 C965 0.950 . S
H989 C967 0.950 . S
C990 C991 1.349 . S
C990 C992 1.327 . S
C990 H1015 0.950 . S
C991 C990 1.349 . S
C991 C1007 1.349 . S
C992 C990 1.327 . S
C992 C1011 1.429 . S
C992 H1016 0.950 . S
C993 C1010 1.574 . S
C993 C1012 1.368 . S
C993 H1017 0.949 . S
H994 C998 0.949 . S
C995 C996 1.349 . S
C995 C997 1.327 . S
C995 H1018 0.950 . S
C996 C995 1.349 . S
C996 C1008 1.349 . S
C997 C995 1.327 . S
C997 C1013 1.429 . S
C997 H1019 0.950 . S
C998 H994 0.949 . S
C998 C1006 1.574 . S
C998 C1014 1.368 . S
H999 C1007 0.950 . S
H1000 C1005 0.950 . S
H1001 C1006 0.949 . S
H1002 C1008 0.950 . S
H1003 C1009 0.950 . S
H1004 C1010 0.949 . S
C1005 H1000 0.950 . S
C1005 C1007 1.327 . S
C1005 C1011 1.429 . S
C1006 C998 1.574 . S
C1006 H1001 0.949 . S
C1006 C1012 1.368 . S
C1007 C991 1.349 . S
C1007 H999 0.950 . S
C1007 C1005 1.327 . S
C1008 C996 1.349 . S
C1008 H1002 0.950 . S
C1008 C1009 1.327 . S
C1009 H1003 0.950 . S
C1009 C1008 1.327 . S
C1009 C1013 1.429 . S
C1010 C993 1.574 . S
C1010 H1004 0.949 . S
C1010 C1014 1.368 . S
C1011 C992 1.429 . S
C1011 C1005 1.429 . S
C1011 C1012 1.523 . S
C1012 C993 1.368 . S
C1012 C1006 1.368 . S
C1012 C1011 1.523 . S
C1013 C997 1.429 . S
C1013 C1009 1.429 . S
C1013 C1014 1.523 . S
C1014 C998 1.368 . S
C1014 C1010 1.368 . S
C1014 C1013 1.523 . S
H1015 C990 0.950 . S
H1016 C992 0.950 . S
H1017 C993 0.949 . S
H1018 C995 0.950 . S
H1019 C997 0.950 . S
C1020 C1021 1.349 . S
C1020 C1022 1.327 . S
C1020 H1045 0.950 . S
C1021 C1020 1.349 . S
C1021 C1037 1.349 . S
C1022 C1020 1.327 . S
C1022 C1041 1.429 . S
C1022 H1046 0.950 . S
C1023 C1040 1.574 . S
C1023 C1042 1.368 . S
C1023 H1047 0.949 . S
H1024 C1028 0.949 . S
C1025 C1026 1.349 . S
C1025 C1027 1.327 . S
C1025 H1048 0.950 . S
C1026 C1025 1.349 . S
C1026 C1038 1.349 . S
C1027 C1025 1.327 . S
C1027 C1043 1.429 . S
C1027 H1049 0.950 . S
C1028 H1024 0.949 . S
C1028 C1036 1.574 . S
C1028 C1044 1.368 . S
H1029 C1037 0.950 . S
H1030 C1035 0.950 . S
H1031 C1036 0.949 . S
H1032 C1038 0.950 . S
H1033 C1039 0.950 . S
H1034 C1040 0.949 . S
C1035 H1030 0.950 . S
C1035 C1037 1.327 . S
C1035 C1041 1.429 . S
C1036 C1028 1.574 . S
C1036 H1031 0.949 . S
C1036 C1042 1.368 . S
C1037 C1021 1.349 . S
C1037 H1029 0.950 . S
C1037 C1035 1.327 . S
C1038 C1026 1.349 . S
C1038 H1032 0.950 . S
C1038 C1039 1.327 . S
C1039 H1033 0.950 . S
C1039 C1038 1.327 . S
C1039 C1043 1.429 . S
C1040 C1023 1.574 . S
C1040 H1034 0.949 . S
C1040 C1044 1.368 . S
C1041 C1022 1.429 . S
C1041 C1035 1.429 . S
C1041 C1042 1.523 . S
C1042 C1023 1.368 . S
C1042 C1036 1.368 . S
C1042 C1041 1.523 . S
C1043 C1027 1.429 . S
C1043 C1039 1.429 . S
C1043 C1044 1.523 . S
C1044 C1028 1.368 . S
C1044 C1040 1.368 . S
C1044 C1043 1.523 . S
H1045 C1020 0.950 . S
H1046 C1022 0.950 . S
H1047 C1023 0.949 . S
H1048 C1025 0.950 . S
H1049 C1027 0.950 . S
C1050 C1051 1.349 . S
C1050 C1052 1.327 . S
C1050 H1075 0.950 . S
C1051 C1050 1.349 . S
C1051 C1067 1.349 . S
C1052 C1050 1.327 . S
C1052 C1071 1.429 . S
C1052 H1076 0.950 . S
C1053 C1070 1.574 . S
C1053 C1072 1.368 . S
C1053 H1077 0.949 . S
H1054 C1058 0.949 . S
C1055 C1056 1.349 . S
C1055 C1057 1.327 . S
C1055 H1078 0.950 . S
C1056 C1055 1.349 . S
C1056 C1068 1.349 . S
C1057 C1055 1.327 . S
C1057 C1073 1.429 . S
C1057 H1079 0.950 . S
C1058 H1054 0.949 . S
C1058 C1066 1.574 . S
C1058 C1074 1.368 . S
H1059 C1067 0.950 . S
H1060 C1065 0.950 . S
H1061 C1066 0.949 . S
H1062 C1068 0.950 . S
H1063 C1069 0.950 . S
H1064 C1070 0.949 . S
C1065 H1060 0.950 . S
C1065 C1067 1.327 . S
C1065 C1071 1.429 . S
C1066 C1058 1.574 . S
C1066 H1061 0.949 . S
C1066 C1072 1.368 . S
C1067 C1051 1.349 . S
C1067 H1059 0.950 . S
C1067 C1065 1.327 . S
C1068 C1056 1.349 . S
C1068 H1062 0.950 . S
C1068 C1069 1.327 . S
C1069 H1063 0.950 . S
C1069 C1068 1.327 . S
C1069 C1073 1.429 . S
C1070 C1053 1.574 . S
C1070 H1064 0.949 . S
C1070 C1074 1.368 . S
C1071 C1052 1.429 . S
C1071 C1065 1.429 . S
C1071 C1072 1.523 . S
C1072 C1053 1.368 . S
C1072 C1066 1.368 . S
C1072 C1071 1.523 . S
C1073 C1057 1.429 . S
C1073 C1069 1.429 . S
C1073 C1074 1.523 . S
C1074 C1058 1.368 . S
C1074 C1070 1.368 . S
C1074 C1073 1.523 . S
H1075 C1050 0.950 . S
H1076 C1052 0.950 . S
H1077 C1053 0.949 . S
H1078 C1055 0.950 . S
H1079 C1057 0.950 . S
C1080 C1081 1.349 . S
C1080 C1082 1.327 . S
C1080 H1105 0.950 . S
C1081 C1080 1.349 . S
C1081 C1097 1.349 . S
C1082 C1080 1.327 . S
C1082 C1101 1.429 . S
C1082 H1106 0.950 . S
C1083 C1100 1.574 . S
C1083 C1102 1.368 . S
C1083 H1107 0.949 . S
H1084 C1088 0.949 . S
C1085 C1086 1.349 . S
C1085 C1087 1.327 . S
C1085 H1108 0.950 . S
C1086 C1085 1.349 . S
C1086 C1098 1.349 . S
C1087 C1085 1.327 . S
C1087 C1103 1.429 . S
C1087 H1109 0.950 . S
C1088 H1084 0.949 . S
C1088 C1096 1.574 . S
C1088 C1104 1.368 . S
H1089 C1097 0.950 . S
H1090 C1095 0.950 . S
H1091 C1096 0.949 . S
H1092 C1098 0.950 . S
H1093 C1099 0.950 . S
H1094 C1100 0.949 . S
C1095 H1090 0.950 . S
C1095 C1097 1.327 . S
C1095 C1101 1.429 . S
C1096 C1088 1.574 . S
C1096 H1091 0.949 . S
C1096 C1102 1.368 . S
C1097 C1081 1.349 . S
C1097 H1089 0.950 . S
C1097 C1095 1.327 . S
C1098 C1086 1.349 . S
C1098 H1092 0.950 . S
C1098 C1099 1.327 . S
C1099 H1093 0.950 . S
C1099 C1098 1.327 . S
C1099 C1103 1.429 . S
C1100 C1083 1.574 . S
C1100 H1094 0.949 . S
C1100 C1104 1.368 . S
C1101 C1082 1.429 . S
C1101 C1095 1.429 . S
C1101 C1102 1.523 . S
C1102 C1083 1.368 . S
C1102 C1096 1.368 . S
C1102 C1101 1.523 . S
C1103 C1087 1.429 . S
C1103 C1099 1.429 . S
C1103 C1104 1.523 . S
C1104 C1088 1.368 . S
C1104 C1100 1.368 . S
C1104 C1103 1.523 . S
H1105 C1080 0.950 . S
H1106 C1082 0.950 . S
H1107 C1083 0.949 . S
H1108 C1085 0.950 . S
H1109 C1087 0.950 . S
C1110 C1111 1.349 . S
C1110 C1112 1.327 . S
C1110 H1135 0.950 . S
C1111 C1110 1.349 . S
C1111 C1127 1.349 . S
C1112 C1110 1.327 . S
C1112 C1131 1.429 . S
C1112 H1136 0.950 . S
C1113 C1130 1.574 . S
C1113 C1132 1.368 . S
C1113 H1137 0.949 . S
H1114 C1118 0.949 . S
C1115 C1116 1.349 . S
C1115 C1117 1.327 . S
C1115 H1138 0.950 . S
C1116 C1115 1.349 . S
C1116 C1128 1.349 . S
C1117 C1115 1.327 . S
C1117 C1133 1.429 . S
C1117 H1139 0.950 . S
C1118 H1114 0.949 . S
C1118 C1126 1.574 . S
C1118 C1134 1.368 . S
H1119 C1127 0.950 . S
H1120 C1125 0.950 . S
H1121 C1126 0.949 . S
H1122 C1128 0.950 . S
H1123 C1129 0.950 . S
H1124 C1130 0.949 . S
C1125 H1120 0.950 . S
C1125 C1127 1.327 . S
C1125 C1131 1.429 . S
C1126 C1118 1.574 . S
C1126 H1121 0.949 . S
C1126 C1132 1.368 . S
C1127 C1111 1.349 . S
C1127 H1119 0.950 . S
C1127 C1125 1.327 . S
C1128 C1116 1.349 . S
C1128 H1122 0.950 . S
C1128 C1129 1.327 . S
C1129 H1123 0.950 . S
C1129 C1128 1.327 . S
C1129 C1133 1.429 . S
C1130 C1113 1.574 . S
C1130 H1124 0.949 . S
C1130 C1134 1.368 . S
C1131 C1112 1.429 . S
C1131 C1125 1.429 . S
C1131 C1132 1.523 . S
C1132 C1113 1.368 . S
C1132 C1126 1.368 . S
C1132 C1131 1.523 . S
C1133 C1117 1.429 . S
C1133 C1129 1.429 . S
C1133 C1134 1.523 . S
C1134 C1118 1.368 . S
C1134 C1130 1.368 . S
C1134 C1133 1.523 . S
H1135 C1110 0.950 . S
H1136 C1112 0.950 . S
H1137 C1113 0.949 . S
H1138 C1115 0.950 . S
H1139 C1117 0.950 . S
C1140 C1141 1.349 . S
C1140 C1142 1.327 . S
C1140 H1165 0.950 . S
C1141 C1140 1.349 . S
C1141 C1157 1.349 . S
C1142 C1140 1.327 . S
C1142 C1161 1.429 . S
C1142 H1166 0.950 . S
C1143 C1160 1.574 . S
C1143 C1162 1.368 . S
C1143 H1167 0.949 . S
H1144 C1148 0.949 . S
C1145 C1146 1.349 . S
C1145 C1147 1.327 . S
C1145 H1168 0.950 . S
C1146 C1145 1.349 . S
C1146 C1158 1.349 . S
C1147 C1145 1.327 . S
C1147 C1163 1.429 . S
C1147 H1169 0.950 . S
C1148 H1144 0.949 . S
C1148 C1156 1.574 . S
C1148 C1164 1.368 . S
H1149 C1157 0.950 . S
H1150 C1155 0.950 . S
H1151 C1156 0.949 . S
H1152 C1158 0.950 . S
H1153 C1159 0.950 . S
H1154 C1160 0.949 . S
C1155 H1150 0.950 . S
C1155 C1157 1.327 . S
C1155 C1161 1.429 . S
C1156 C1148 1.574 . S
C1156 H1151 0.949 . S
C1156 C1162 1.368 1_554 S
C1157 C1141 1.349 . S
C1157 H1149 0.950 . S
C1157 C1155 1.327 . S
C1158 C1146 1.349 . S
C1158 H1152 0.950 . S
C1158 C1159 1.327 . S
C1159 H1153 0.950 . S
C1159 C1158 1.327 . S
C1159 C1163 1.429 . S
C1160 C1143 1.574 . S
C1160 H1154 0.949 . S
C1160 C1164 1.368 1_556 S
C1161 C1142 1.429 . S
C1161 C1155 1.429 . S
C1161 C1162 1.523 . S
C1162 C1143 1.368 . S
C1162 C1156 1.368 1_556 S
C1162 C1161 1.523 . S
C1163 C1147 1.429 . S
C1163 C1159 1.429 . S
C1163 C1164 1.523 . S
C1164 C1148 1.368 . S
C1164 C1160 1.368 1_554 S
C1164 C1163 1.523 . S
H1165 C1140 0.950 . S
H1166 C1142 0.950 . S
H1167 C1143 0.949 . S
H1168 C1145 0.950 . S
H1169 C1147 0.950 . S
C1170 C1171 1.349 . S
C1170 C1172 1.327 . S
C1170 H1195 0.950 . S
C1171 C1170 1.349 . S
C1171 C1187 1.349 . S
C1172 C1170 1.327 . S
C1172 C1191 1.429 . S
C1172 H1196 0.950 . S
C1173 C1190 1.574 1_455 S
C1173 C1192 1.368 . S
C1173 H1197 0.949 . S
H1174 C1178 0.949 . S
C1175 C1176 1.349 . S
C1175 C1177 1.327 . S
C1175 H1198 0.950 . S
C1176 C1175 1.349 . S
C1176 C1188 1.349 . S
C1177 C1175 1.327 . S
C1177 C1193 1.429 . S
C1177 H1199 0.950 . S
C1178 H1174 0.949 . S
C1178 C1186 1.574 1_655 S
C1178 C1194 1.368 . S
H1179 C1187 0.950 . S
H1180 C1185 0.950 . S
H1181 C1186 0.949 . S
H1182 C1188 0.950 . S
H1183 C1189 0.950 . S
H1184 C1190 0.949 . S
C1185 H1180 0.950 . S
C1185 C1187 1.327 . S
C1185 C1191 1.429 . S
C1186 C1178 1.574 1_455 S
C1186 H1181 0.949 . S
C1186 C1192 1.368 . S
C1187 C1171 1.349 . S
C1187 H1179 0.950 . S
C1187 C1185 1.327 . S
C1188 C1176 1.349 . S
C1188 H1182 0.950 . S
C1188 C1189 1.327 . S
C1189 H1183 0.950 . S
C1189 C1188 1.327 . S
C1189 C1193 1.429 . S
C1190 C1173 1.574 1_655 S
C1190 H1184 0.949 . S
C1190 C1194 1.368 . S
C1191 C1172 1.429 . S
C1191 C1185 1.429 . S
C1191 C1192 1.523 . S
C1192 C1173 1.368 . S
C1192 C1186 1.368 . S
C1192 C1191 1.523 . S
C1193 C1177 1.429 . S
C1193 C1189 1.429 . S
C1193 C1194 1.523 . S
C1194 C1178 1.368 . S
C1194 C1190 1.368 . S
C1194 C1193 1.523 . S
H1195 C1170 0.950 . S
H1196 C1172 0.950 . S
H1197 C1173 0.949 . S
H1198 C1175 0.950 . S
H1199 C1177 0.950 . S
C1200 C1201 1.349 . S
C1200 C1202 1.327 . S
C1200 H1225 0.950 . S
C1201 C1200 1.349 . S
C1201 C1217 1.349 . S
C1202 C1200 1.327 . S
C1202 C1221 1.429 . S
C1202 H1226 0.950 . S
C1203 C1220 1.555 1_554 S
C1203 C1222 1.368 1_545 S
C1203 H1227 0.949 . S
H1204 C1208 0.949 . S
C1205 C1206 1.349 . S
C1205 C1207 1.327 . S
C1205 H1228 0.950 . S
C1206 C1205 1.349 . S
C1206 C1218 1.349 . S
C1207 C1205 1.327 . S
C1207 C1223 1.429 . S
C1207 H1229 0.950 . S
C1208 H1204 0.949 . S
C1208 C1216 1.555 1_556 S
C1208 C1224 1.368 1_565 S
H1209 C1217 0.950 . S
H1210 C1215 0.950 . S
H1211 C1216 0.950 . S
H1212 C1218 0.950 . S
H1213 C1219 0.950 . S
H1214 C1220 0.950 . S
C1215 H1210 0.950 . S
C1215 C1217 1.327 . S
C1215 C1221 1.429 . S
C1216 C1208 1.555 1_554 S
C1216 H1211 0.950 . S
C1216 C1222 1.385 . S
C1217 C1201 1.349 . S
C1217 H1209 0.950 . S
C1217 C1215 1.327 . S
C1218 C1206 1.349 . S
C1218 H1212 0.950 . S
C1218 C1219 1.327 . S
C1219 H1213 0.950 . S
C1219 C1218 1.327 . S
C1219 C1223 1.429 . S
C1220 C1203 1.555 1_556 S
C1220 H1214 0.950 . S
C1220 C1224 1.386 . S
C1221 C1202 1.429 . S
C1221 C1215 1.429 . S
C1221 C1222 1.523 . S
C1222 C1203 1.368 1_565 S
C1222 C1216 1.385 . S
C1222 C1221 1.523 . S
C1223 C1207 1.429 . S
C1223 C1219 1.429 . S
C1223 C1224 1.523 . S
C1224 C1208 1.368 1_545 S
C1224 C1220 1.386 . S
C1224 C1223 1.523 . S
H1225 C1200 0.950 . S
H1226 C1202 0.950 . S
H1227 C1203 0.949 . S
H1228 C1205 0.950 . S
H1229 C1207 0.950 . S
C1230 C1231 1.349 . S
C1230 C1232 1.327 . S
C1230 H1255 0.950 . S
C1231 C1230 1.349 . S
C1231 C1247 1.349 . S
C1232 C1230 1.327 . S
C1232 C1251 1.429 . S
C1232 H1256 0.950 . S
C1233 C1250 1.574 . S
C1233 C1252 1.368 . S
C1233 H1257 0.949 . S
H1234 C1238 0.949 . S
C1235 C1236 1.349 . S
C1235 C1237 1.327 . S
C1235 H1258 0.950 . S
C1236 C1235 1.349 . S
C1236 C1248 1.349 . S
C1237 C1235 1.327 . S
C1237 C1253 1.429 . S
C1237 H1259 0.950 . S
C1238 H1234 0.949 . S
C1238 C1246 1.574 . S
C1238 C1254 1.368 . S
H1239 C1247 0.950 . S
H1240 C1245 0.950 . S
H1241 C1246 0.949 . S
H1242 C1248 0.950 . S
H1243 C1249 0.950 . S
H1244 C1250 0.949 . S
C1245 H1240 0.950 . S
C1245 C1247 1.327 . S
C1245 C1251 1.429 . S
C1246 C1238 1.574 . S
C1246 H1241 0.949 . S
C1246 C1252 1.368 . S
C1247 C1231 1.349 . S
C1247 H1239 0.950 . S
C1247 C1245 1.327 . S
C1248 C1236 1.349 . S
C1248 H1242 0.950 . S
C1248 C1249 1.327 . S
C1249 H1243 0.950 . S
C1249 C1248 1.327 . S
C1249 C1253 1.429 . S
C1250 C1233 1.574 . S
C1250 H1244 0.949 . S
C1250 C1254 1.368 . S
C1251 C1232 1.429 . S
C1251 C1245 1.429 . S
C1251 C1252 1.523 . S
C1252 C1233 1.368 . S
C1252 C1246 1.368 . S
C1252 C1251 1.523 . S
C1253 C1237 1.429 . S
C1253 C1249 1.429 . S
C1253 C1254 1.523 . S
C1254 C1238 1.368 . S
C1254 C1250 1.368 . S
C1254 C1253 1.523 . S
H1255 C1230 0.950 . S
H1256 C1232 0.950 . S
H1257 C1233 0.949 . S
H1258 C1235 0.950 . S
H1259 C1237 0.950 . S
C1260 C1261 1.349 . S
C1260 C1262 1.327 . S
C1260 H1285 0.950 . S
C1261 C1260 1.349 . S
C1261 C1277 1.349 . S
C1262 C1260 1.327 . S
C1262 C1281 1.429 . S
C1262 H1286 0.950 . S
C1263 C1280 1.574 1_656 S
C1263 C1282 1.368 . S
C1263 H1287 0.949 . S
H1264 C1268 0.949 . S
C1265 C1266 1.349 . S
C1265 C1267 1.327 . S
C1265 H1288 0.950 . S
C1266 C1265 1.349 . S
C1266 C1278 1.349 . S
C1267 C1265 1.327 . S
C1267 C1283 1.429 . S
C1267 H1289 0.950 . S
C1268 H1264 0.949 . S
C1268 C1276 1.574 1_454 S
C1268 C1284 1.368 . S
H1269 C1277 0.950 . S
H1270 C1275 0.950 . S
H1271 C1276 0.949 . S
H1272 C1278 0.950 . S
H1273 C1279 0.950 . S
H1274 C1280 0.949 . S
C1275 H1270 0.950 . S
C1275 C1277 1.327 . S
C1275 C1281 1.429 . S
C1276 C1268 1.574 1_656 S
C1276 H1271 0.949 . S
C1276 C1282 1.368 . S
C1277 C1261 1.349 . S
C1277 H1269 0.950 . S
C1277 C1275 1.327 . S
C1278 C1266 1.349 . S
C1278 H1272 0.950 . S
C1278 C1279 1.327 . S
C1279 H1273 0.950 . S
C1279 C1278 1.327 . S
C1279 C1283 1.429 . S
C1280 C1263 1.574 1_454 S
C1280 H1274 0.949 . S
C1280 C1284 1.368 . S
C1281 C1262 1.429 . S
C1281 C1275 1.429 . S
C1281 C1282 1.523 . S
C1282 C1263 1.368 . S
C1282 C1276 1.368 . S
C1282 C1281 1.523 . S
C1283 C1267 1.429 . S
C1283 C1279 1.429 . S
C1283 C1284 1.523 . S
C1284 C1268 1.368 . S
C1284 C1280 1.368 . S
C1284 C1283 1.523 . S
H1285 C1260 0.950 . S
H1286 C1262 0.950 . S
H1287 C1263 0.949 . S
H1288 C1265 0.950 . S
H1289 C1267 0.950 . S
C1290 C1291 1.349 . S
C1290 C1292 1.327 . S
C1290 H1315 0.950 . S
C1291 C1290 1.349 . S
C1291 C1307 1.349 . S
C1292 C1290 1.327 . S
C1292 C1311 1.429 . S
C1292 H1316 0.950 . S
C1293 C1310 1.574 1_565 S
C1293 C1312 1.368 . S
C1293 H1317 0.949 . S
H1294 C1298 0.949 . S
C1295 C1296 1.349 . S
C1295 C1297 1.327 . S
C1295 H1318 0.950 . S
C1296 C1295 1.349 . S
C1296 C1308 1.349 . S
C1297 C1295 1.327 . S
C1297 C1313 1.429 . S
C1297 H1319 0.950 . S
C1298 H1294 0.949 . S
C1298 C1306 1.574 1_545 S
C1298 C1314 1.368 . S
H1299 C1307 0.950 . S
H1300 C1305 0.950 . S
H1301 C1306 0.949 . S
H1302 C1308 0.950 . S
H1303 C1309 0.950 . S
H1304 C1310 0.949 . S
C1305 H1300 0.950 . S
C1305 C1307 1.327 . S
C1305 C1311 1.429 . S
C1306 C1298 1.574 1_565 S
C1306 H1301 0.949 . S
C1306 C1312 1.368 . S
C1307 C1291 1.349 . S
C1307 H1299 0.950 . S
C1307 C1305 1.327 . S
C1308 C1296 1.349 . S
C1308 H1302 0.950 . S
C1308 C1309 1.327 . S
C1309 H1303 0.950 . S
C1309 C1308 1.327 . S
C1309 C1313 1.429 . S
C1310 C1293 1.574 1_545 S
C1310 H1304 0.949 . S
C1310 C1314 1.368 . S
C1311 C1292 1.429 . S
C1311 C1305 1.429 . S
C1311 C1312 1.523 . S
C1312 C1293 1.368 . S
C1312 C1306 1.368 . S
C1312 C1311 1.523 . S
C1313 C1297 1.429 . S
C1313 C1309 1.429 . S
C1313 C1314 1.523 . S
C1314 C1298 1.368 . S
C1314 C1310 1.368 . S
C1314 C1313 1.523 . S
H1315 C1290 0.950 . S
H1316 C1292 0.950 . S
H1317 C1293 0.949 . S
H1318 C1295 0.950 . S
H1319 C1297 0.950 . S
C241 C82 1.042 . S
C246 C9 1.029 . S
C271 C102 1.042 . S
C276 C29 1.029 . S
C301 C49 1.029 . S
C306 C2 1.042 . S
C331 C69 1.029 . S
C336 C22 1.042 . S
C361 C89 1.029 . S
C366 C42 1.042 . S
C391 C62 1.042 . S
C396 C109 1.029 . S
C421 C162 1.042 . S
C426 C129 1.029 . S
C451 C149 1.029 . S
C456 C182 1.042 . S
C481 C202 1.042 . S
C486 C169 1.029 . S
C511 C189 1.029 . S
C516 C222 1.042 . S
C541 C209 1.029 . S
C546 C122 1.042 . S
C571 C142 1.042 . S
C576 C229 1.029 . S
C601 C84 1.265 . S
C606 C12 1.369 . S
C631 C32 1.369 . S
C636 C104 1.265 . S
C661 C52 1.369 . S
C666 C4 1.266 . S
C691 C72 1.369 . S
C696 C24 1.265 . S
C721 C44 1.265 . S
C726 C92 1.369 . S
C751 C64 1.266 . S
C756 C112 1.369 . S
C781 C164 1.265 . S
C786 C132 1.369 . S
C811 C152 1.369 . S
C816 C184 1.266 . S
C841 C172 1.369 . S
C846 C204 1.265 . S
C871 C224 1.265 . S
C876 C192 1.369 . S
C901 C212 1.369 . S
C906 C124 1.266 . S
C931 C144 1.265 . S
C936 C232 1.369 . S
C961 C219 1.684 . S
C966 C19 1.684 . S
C991 C39 1.684 . S
C996 C239 1.684 . S
C1021 C59 1.684 . S
C1026 C139 1.684 . S
C1051 C79 1.684 . S
C1056 C159 1.684 . S
C1081 C99 1.684 . S
C1086 C179 1.684 . S
C1111 C199 1.684 . S
C1116 C119 1.684 . S
C1141 C198 1.833 . S
C1146 C18 1.833 . S
C1171 C218 1.833 . S
C1176 C38 1.833 . S
C1201 C58 1.833 . S
C1206 C238 1.833 . S
C1231 C78 1.833 . S
C1236 C138 1.833 . S
C1261 C158 1.833 . S
C1266 C98 1.833 . S
C1291 C178 1.833 . S
C1296 C118 1.833 . S
