# Generated by pormake.
# Topology wna, (6)-cn, num edge types: 1
# Building blocks:
#     Node 0, Type 0, BuildingBlock: BETFAJ_clean_sbu_0, # of connection points: 6
#     Node 1, Type 0, BuildingBlock: BETFAJ_clean_sbu_0, # of connection points: 6
#     Node 2, Type 0, BuildingBlock: BETFAJ_clean_sbu_0, # of connection points: 6
#     Node 3, Type 0, BuildingBlock: BETFAJ_clean_sbu_0, # of connection points: 6
#     Node 4, Type 0, BuildingBlock: BETFAJ_clean_sbu_0, # of connection points: 6
#     Node 5, Type 0, BuildingBlock: BETFAJ_clean_sbu_0, # of connection points: 6
#     Node 6, Type 0, BuildingBlock: BETFAJ_clean_sbu_0, # of connection points: 6
#     Node 7, Type 0, BuildingBlock: BETFAJ_clean_sbu_0, # of connection points: 6
#     Node 8, Type 0, BuildingBlock: BETFAJ_clean_sbu_0, # of connection points: 6
#     Node 9, Type 0, BuildingBlock: BETFAJ_clean_sbu_0, # of connection points: 6
#     Node 10, Type 0, BuildingBlock: BETFAJ_clean_sbu_0, # of connection points: 6
#     Node 11, Type 0, BuildingBlock: BETFAJ_clean_sbu_0, # of connection points: 6
#     Node 12, Type 0, BuildingBlock: BETFAJ_clean_sbu_0, # of connection points: 6
#     Node 13, Type 0, BuildingBlock: BETFAJ_clean_sbu_0, # of connection points: 6
#     Node 14, Type 0, BuildingBlock: BETFAJ_clean_sbu_0, # of connection points: 6
#     Node 15, Type 0, BuildingBlock: BETFAJ_clean_sbu_0, # of connection points: 6
#     Node 16, Type 0, BuildingBlock: BETFAJ_clean_sbu_0, # of connection points: 6
#     Node 17, Type 0, BuildingBlock: BETFAJ_clean_sbu_0, # of connection points: 6
#     Node 18, Type 0, BuildingBlock: BETFAJ_clean_sbu_0, # of connection points: 6
#     Node 19, Type 0, BuildingBlock: BETFAJ_clean_sbu_0, # of connection points: 6
#     Node 20, Type 0, BuildingBlock: BETFAJ_clean_sbu_0, # of connection points: 6
#     Node 21, Type 0, BuildingBlock: BETFAJ_clean_sbu_0, # of connection points: 6
#     Node 22, Type 0, BuildingBlock: BETFAJ_clean_sbu_0, # of connection points: 6
#     Node 23, Type 0, BuildingBlock: BETFAJ_clean_sbu_0, # of connection points: 6
#     Node 24, Type 0, BuildingBlock: BETFAJ_clean_sbu_0, # of connection points: 6
#     Node 25, Type 0, BuildingBlock: BETFAJ_clean_sbu_0, # of connection points: 6
#     Node 26, Type 0, BuildingBlock: BETFAJ_clean_sbu_0, # of connection points: 6
#     Node 27, Type 0, BuildingBlock: BETFAJ_clean_sbu_0, # of connection points: 6
#     Node 28, Type 0, BuildingBlock: BETFAJ_clean_sbu_0, # of connection points: 6
#     Node 29, Type 0, BuildingBlock: BETFAJ_clean_sbu_0, # of connection points: 6
#     Node 30, Type 0, BuildingBlock: BETFAJ_clean_sbu_0, # of connection points: 6
#     Node 31, Type 0, BuildingBlock: BETFAJ_clean_sbu_0, # of connection points: 6
#     Node 32, Type 0, BuildingBlock: BETFAJ_clean_sbu_0, # of connection points: 6
#     Node 33, Type 0, BuildingBlock: BETFAJ_clean_sbu_0, # of connection points: 6
#     Node 34, Type 0, BuildingBlock: BETFAJ_clean_sbu_0, # of connection points: 6
#     Node 35, Type 0, BuildingBlock: BETFAJ_clean_sbu_0, # of connection points: 6
#     Edge 36, Type (0, 0), BuildingBlock: KIFKEQ_clean_linker_1, # of connection points: 2
#     Edge 37, Type (0, 0), BuildingBlock: KIFKEQ_clean_linker_1, # of connection points: 2
#     Edge 38, Type (0, 0), BuildingBlock: KIFKEQ_clean_linker_1, # of connection points: 2
#     Edge 39, Type (0, 0), BuildingBlock: KIFKEQ_clean_linker_1, # of connection points: 2
#     Edge 40, Type (0, 0), BuildingBlock: KIFKEQ_clean_linker_1, # of connection points: 2
#     Edge 41, Type (0, 0), BuildingBlock: KIFKEQ_clean_linker_1, # of connection points: 2
#     Edge 42, Type (0, 0), BuildingBlock: KIFKEQ_clean_linker_1, # of connection points: 2
#     Edge 43, Type (0, 0), BuildingBlock: KIFKEQ_clean_linker_1, # of connection points: 2
#     Edge 44, Type (0, 0), BuildingBlock: KIFKEQ_clean_linker_1, # of connection points: 2
#     Edge 45, Type (0, 0), BuildingBlock: KIFKEQ_clean_linker_1, # of connection points: 2
#     Edge 46, Type (0, 0), BuildingBlock: KIFKEQ_clean_linker_1, # of connection points: 2
#     Edge 47, Type (0, 0), BuildingBlock: KIFKEQ_clean_linker_1, # of connection points: 2
#     Edge 48, Type (0, 0), BuildingBlock: KIFKEQ_clean_linker_1, # of connection points: 2
#     Edge 49, Type (0, 0), BuildingBlock: KIFKEQ_clean_linker_1, # of connection points: 2
#     Edge 50, Type (0, 0), BuildingBlock: KIFKEQ_clean_linker_1, # of connection points: 2
#     Edge 51, Type (0, 0), BuildingBlock: KIFKEQ_clean_linker_1, # of connection points: 2
#     Edge 52, Type (0, 0), BuildingBlock: KIFKEQ_clean_linker_1, # of connection points: 2
#     Edge 53, Type (0, 0), BuildingBlock: KIFKEQ_clean_linker_1, # of connection points: 2
#     Edge 54, Type (0, 0), BuildingBlock: KIFKEQ_clean_linker_1, # of connection points: 2
#     Edge 55, Type (0, 0), BuildingBlock: KIFKEQ_clean_linker_1, # of connection points: 2
#     Edge 56, Type (0, 0), BuildingBlock: KIFKEQ_clean_linker_1, # of connection points: 2
#     Edge 57, Type (0, 0), BuildingBlock: KIFKEQ_clean_linker_1, # of connection points: 2
#     Edge 58, Type (0, 0), BuildingBlock: KIFKEQ_clean_linker_1, # of connection points: 2
#     Edge 59, Type (0, 0), BuildingBlock: KIFKEQ_clean_linker_1, # of connection points: 2
#     Edge 60, Type (0, 0), BuildingBlock: KIFKEQ_clean_linker_1, # of connection points: 2
#     Edge 61, Type (0, 0), BuildingBlock: KIFKEQ_clean_linker_1, # of connection points: 2
#     Edge 62, Type (0, 0), BuildingBlock: KIFKEQ_clean_linker_1, # of connection points: 2
#     Edge 63, Type (0, 0), BuildingBlock: KIFKEQ_clean_linker_1, # of connection points: 2
#     Edge 64, Type (0, 0), BuildingBlock: KIFKEQ_clean_linker_1, # of connection points: 2
#     Edge 65, Type (0, 0), BuildingBlock: KIFKEQ_clean_linker_1, # of connection points: 2
#     Edge 66, Type (0, 0), BuildingBlock: KIFKEQ_clean_linker_1, # of connection points: 2
#     Edge 67, Type (0, 0), BuildingBlock: KIFKEQ_clean_linker_1, # of connection points: 2
#     Edge 68, Type (0, 0), BuildingBlock: KIFKEQ_clean_linker_1, # of connection points: 2
#     Edge 69, Type (0, 0), BuildingBlock: KIFKEQ_clean_linker_1, # of connection points: 2
#     Edge 70, Type (0, 0), BuildingBlock: KIFKEQ_clean_linker_1, # of connection points: 2
#     Edge 71, Type (0, 0), BuildingBlock: KIFKEQ_clean_linker_1, # of connection points: 2
#     Edge 72, Type (0, 0), BuildingBlock: KIFKEQ_clean_linker_1, # of connection points: 2
#     Edge 73, Type (0, 0), BuildingBlock: KIFKEQ_clean_linker_1, # of connection points: 2
#     Edge 74, Type (0, 0), BuildingBlock: KIFKEQ_clean_linker_1, # of connection points: 2
#     Edge 75, Type (0, 0), BuildingBlock: KIFKEQ_clean_linker_1, # of connection points: 2
#     Edge 76, Type (0, 0), BuildingBlock: KIFKEQ_clean_linker_1, # of connection points: 2
#     Edge 77, Type (0, 0), BuildingBlock: KIFKEQ_clean_linker_1, # of connection points: 2
#     Edge 78, Type (0, 0), BuildingBlock: KIFKEQ_clean_linker_1, # of connection points: 2
#     Edge 79, Type (0, 0), BuildingBlock: KIFKEQ_clean_linker_1, # of connection points: 2
#     Edge 80, Type (0, 0), BuildingBlock: KIFKEQ_clean_linker_1, # of connection points: 2
#     Edge 81, Type (0, 0), BuildingBlock: KIFKEQ_clean_linker_1, # of connection points: 2
#     Edge 82, Type (0, 0), BuildingBlock: KIFKEQ_clean_linker_1, # of connection points: 2
#     Edge 83, Type (0, 0), BuildingBlock: KIFKEQ_clean_linker_1, # of connection points: 2
#     Edge 84, Type (0, 0), BuildingBlock: KIFKEQ_clean_linker_1, # of connection points: 2
#     Edge 85, Type (0, 0), BuildingBlock: KIFKEQ_clean_linker_1, # of connection points: 2
#     Edge 86, Type (0, 0), BuildingBlock: KIFKEQ_clean_linker_1, # of connection points: 2
#     Edge 87, Type (0, 0), BuildingBlock: KIFKEQ_clean_linker_1, # of connection points: 2
#     Edge 88, Type (0, 0), BuildingBlock: KIFKEQ_clean_linker_1, # of connection points: 2
#     Edge 89, Type (0, 0), BuildingBlock: KIFKEQ_clean_linker_1, # of connection points: 2
#     Edge 90, Type (0, 0), BuildingBlock: KIFKEQ_clean_linker_1, # of connection points: 2
#     Edge 91, Type (0, 0), BuildingBlock: KIFKEQ_clean_linker_1, # of connection points: 2
#     Edge 92, Type (0, 0), BuildingBlock: KIFKEQ_clean_linker_1, # of connection points: 2
#     Edge 93, Type (0, 0), BuildingBlock: KIFKEQ_clean_linker_1, # of connection points: 2
#     Edge 94, Type (0, 0), BuildingBlock: KIFKEQ_clean_linker_1, # of connection points: 2
#     Edge 95, Type (0, 0), BuildingBlock: KIFKEQ_clean_linker_1, # of connection points: 2
#     Edge 96, Type (0, 0), BuildingBlock: KIFKEQ_clean_linker_1, # of connection points: 2
#     Edge 97, Type (0, 0), BuildingBlock: KIFKEQ_clean_linker_1, # of connection points: 2
#     Edge 98, Type (0, 0), BuildingBlock: KIFKEQ_clean_linker_1, # of connection points: 2
#     Edge 99, Type (0, 0), BuildingBlock: KIFKEQ_clean_linker_1, # of connection points: 2
#     Edge 100, Type (0, 0), BuildingBlock: KIFKEQ_clean_linker_1, # of connection points: 2
#     Edge 101, Type (0, 0), BuildingBlock: KIFKEQ_clean_linker_1, # of connection points: 2
#     Edge 102, Type (0, 0), BuildingBlock: KIFKEQ_clean_linker_1, # of connection points: 2
#     Edge 103, Type (0, 0), BuildingBlock: KIFKEQ_clean_linker_1, # of connection points: 2
#     Edge 104, Type (0, 0), BuildingBlock: KIFKEQ_clean_linker_1, # of connection points: 2
#     Edge 105, Type (0, 0), BuildingBlock: KIFKEQ_clean_linker_1, # of connection points: 2
#     Edge 106, Type (0, 0), BuildingBlock: KIFKEQ_clean_linker_1, # of connection points: 2
#     Edge 107, Type (0, 0), BuildingBlock: KIFKEQ_clean_linker_1, # of connection points: 2
#     Edge 108, Type (0, 0), BuildingBlock: KIFKEQ_clean_linker_1, # of connection points: 2
#     Edge 109, Type (0, 0), BuildingBlock: KIFKEQ_clean_linker_1, # of connection points: 2
#     Edge 110, Type (0, 0), BuildingBlock: KIFKEQ_clean_linker_1, # of connection points: 2
#     Edge 111, Type (0, 0), BuildingBlock: KIFKEQ_clean_linker_1, # of connection points: 2
#     Edge 112, Type (0, 0), BuildingBlock: KIFKEQ_clean_linker_1, # of connection points: 2
#     Edge 113, Type (0, 0), BuildingBlock: KIFKEQ_clean_linker_1, # of connection points: 2
#     Edge 114, Type (0, 0), BuildingBlock: KIFKEQ_clean_linker_1, # of connection points: 2
#     Edge 115, Type (0, 0), BuildingBlock: KIFKEQ_clean_linker_1, # of connection points: 2
#     Edge 116, Type (0, 0), BuildingBlock: KIFKEQ_clean_linker_1, # of connection points: 2
#     Edge 117, Type (0, 0), BuildingBlock: KIFKEQ_clean_linker_1, # of connection points: 2
#     Edge 118, Type (0, 0), BuildingBlock: KIFKEQ_clean_linker_1, # of connection points: 2
#     Edge 119, Type (0, 0), BuildingBlock: KIFKEQ_clean_linker_1, # of connection points: 2
#     Edge 120, Type (0, 0), BuildingBlock: KIFKEQ_clean_linker_1, # of connection points: 2
#     Edge 121, Type (0, 0), BuildingBlock: KIFKEQ_clean_linker_1, # of connection points: 2
#     Edge 122, Type (0, 0), BuildingBlock: KIFKEQ_clean_linker_1, # of connection points: 2
#     Edge 123, Type (0, 0), BuildingBlock: KIFKEQ_clean_linker_1, # of connection points: 2
#     Edge 124, Type (0, 0), BuildingBlock: KIFKEQ_clean_linker_1, # of connection points: 2
#     Edge 125, Type (0, 0), BuildingBlock: KIFKEQ_clean_linker_1, # of connection points: 2
#     Edge 126, Type (0, 0), BuildingBlock: KIFKEQ_clean_linker_1, # of connection points: 2
#     Edge 127, Type (0, 0), BuildingBlock: KIFKEQ_clean_linker_1, # of connection points: 2
#     Edge 128, Type (0, 0), BuildingBlock: KIFKEQ_clean_linker_1, # of connection points: 2
#     Edge 129, Type (0, 0), BuildingBlock: KIFKEQ_clean_linker_1, # of connection points: 2
#     Edge 130, Type (0, 0), BuildingBlock: KIFKEQ_clean_linker_1, # of connection points: 2
#     Edge 131, Type (0, 0), BuildingBlock: KIFKEQ_clean_linker_1, # of connection points: 2
#     Edge 132, Type (0, 0), BuildingBlock: KIFKEQ_clean_linker_1, # of connection points: 2
#     Edge 133, Type (0, 0), BuildingBlock: KIFKEQ_clean_linker_1, # of connection points: 2
#     Edge 134, Type (0, 0), BuildingBlock: KIFKEQ_clean_linker_1, # of connection points: 2
#     Edge 135, Type (0, 0), BuildingBlock: KIFKEQ_clean_linker_1, # of connection points: 2
#     Edge 136, Type (0, 0), BuildingBlock: KIFKEQ_clean_linker_1, # of connection points: 2
#     Edge 137, Type (0, 0), BuildingBlock: KIFKEQ_clean_linker_1, # of connection points: 2
#     Edge 138, Type (0, 0), BuildingBlock: KIFKEQ_clean_linker_1, # of connection points: 2
#     Edge 139, Type (0, 0), BuildingBlock: KIFKEQ_clean_linker_1, # of connection points: 2
#     Edge 140, Type (0, 0), BuildingBlock: KIFKEQ_clean_linker_1, # of connection points: 2
#     Edge 141, Type (0, 0), BuildingBlock: KIFKEQ_clean_linker_1, # of connection points: 2
#     Edge 142, Type (0, 0), BuildingBlock: KIFKEQ_clean_linker_1, # of connection points: 2
#     Edge 143, Type (0, 0), BuildingBlock: KIFKEQ_clean_linker_1, # of connection points: 2
# Relax obj value: 0.160
# Max RMSD: 0.225
# Mean RMSD: 0.209
data_MOF--net-wna--node1-BETFAJ_clean_sbu_0--edge1-KIFKEQ_clean_linker_1
_symmetry_space_group_name_H-M    P1
_symmetry_Int_Tables_number       1
_symmetry_cell_setting            triclinic
loop_
_symmetry_equiv_pos_as_xyz
'x, y, z'
_cell_length_a     41.831066
_cell_length_b     41.82056
_cell_length_c     153.01757
_cell_angle_alpha  89.966102
_cell_angle_beta   89.973287
_cell_angle_gamma 120.07095
loop_
_atom_site_label
_atom_site_type_symbol
_atom_site_fract_x
_atom_site_fract_y
_atom_site_fract_z
_atom_type_partial_charge
Sm0 Sm 0.12076 0.25941 0.17321 0.0
Sm1 Sm 0.12674 0.24856 0.1947 0.0
C2 C 0.11149 0.2841 0.15799 0.0
C3 C 0.12531 0.29373 0.14885 0.0
C4 C 0.14335 0.33081 0.14612 0.0
C5 C 0.15287 0.34015 0.13732 0.0
C6 C 0.14437 0.31261 0.13099 0.0
C7 C 0.12709 0.27552 0.13377 0.0
C8 C 0.11762 0.2662 0.14257 0.0
C9 C 0.14428 0.20941 0.17679 0.0
C10 C 0.20267 0.30216 0.18303 0.0
C11 C 0.13176 0.22705 0.21069 0.0
C12 C 0.1148 0.22228 0.21946 0.0
C13 C 0.10747 0.19128 0.22449 0.0
C14 C 0.09167 0.18601 0.23282 0.0
C15 C 0.08282 0.21172 0.23636 0.0
C16 C 0.08999 0.24272 0.23126 0.0
C17 C 0.10575 0.24792 0.2229 0.0
C18 C 0.09764 0.2948 0.19083 0.0
C19 C 0.0514 0.19098 0.18385 0.0
O20 O 0.13193 0.3061 0.16431 0.0
O21 O 0.09389 0.24909 0.16023 0.0
O22 O 0.13666 0.22759 0.18212 0.0
O23 O 0.14068 0.21876 0.16887 0.0
O24 O 0.18235 0.30116 0.17622 0.0
O25 O 0.18802 0.28271 0.19029 0.0
O26 O 0.11083 0.2041 0.20459 0.0
O27 O 0.15296 0.26094 0.20782 0.0
O28 O 0.10856 0.27886 0.18569 0.0
O29 O 0.10263 0.28654 0.19869 0.0
O30 O 0.07311 0.19665 0.19066 0.0
O31 O 0.06117 0.21432 0.17714 0.0
H32 H 0.14938 0.35266 0.15076 0.0
H33 H 0.16665 0.36903 0.13548 0.0
H34 H 0.11965 0.25347 0.12909 0.0
H35 H 0.10338 0.23729 0.1444 0.0
H36 H 0.11397 0.171 0.22196 0.0
H37 H 0.08599 0.16147 0.23644 0.0
H38 H 0.08393 0.26331 0.23376 0.0
H39 H 0.11097 0.27203 0.21914 0.0
Sm40 Sm 0.76993 0.86944 0.17273 0.0
Sm41 Sm 0.77938 0.88493 0.1934 0.0
C42 C 0.74578 0.8422 0.15686 0.0
C43 C 0.73258 0.84647 0.14818 0.0
C44 C 0.70031 0.81678 0.1447 0.0
C45 C 0.69008 0.81753 0.13602 0.0
C46 C 0.71203 0.84798 0.13058 0.0
C47 C 0.74361 0.87836 0.1342 0.0
C48 C 0.75379 0.87762 0.1429 0.0
C49 C 0.82799 0.93716 0.17744 0.0
C50 C 0.72664 0.90913 0.18218 0.0
C51 C 0.80143 0.91054 0.20944 0.0
C52 C 0.80703 0.89787 0.21809 0.0
C53 C 0.84123 0.91805 0.22233 0.0
C54 C 0.8469 0.90756 0.23064 0.0
C55 C 0.8184 0.87662 0.23496 0.0
C56 C 0.78421 0.85619 0.23065 0.0
C57 C 0.7786 0.86665 0.22232 0.0
C58 C 0.73179 0.80947 0.19002 0.0
C59 C 0.83137 0.85869 0.18315 0.0
O60 O 0.72378 0.83371 0.16363 0.0
O61 O 0.7806 0.86415 0.15879 0.0
O62 O 0.79679 0.92115 0.1812 0.0
O63 O 0.82787 0.91909 0.17053 0.0
O64 O 0.731 0.89349 0.17506 0.0
O65 O 0.74351 0.91089 0.18967 0.0
O66 O 0.82439 0.91415 0.20315 0.0
O67 O 0.76733 0.89727 0.20671 0.0
O68 O 0.74829 0.8355 0.18469 0.0
O69 O 0.73977 0.82355 0.19779 0.0
O70 O 0.82934 0.87884 0.18956 0.0
O71 O 0.80647 0.84505 0.17681 0.0
H72 H 0.68372 0.79226 0.14859 0.0
H73 H 0.66584 0.79346 0.13346 0.0
H74 H 0.76086 0.90251 0.13026 0.0
H75 H 0.77886 0.90097 0.14539 0.0
H76 H 0.86365 0.94219 0.21923 0.0
H77 H 0.8738 0.92366 0.23364 0.0
H78 H 0.76142 0.83248 0.23377 0.0
H79 H 0.75187 0.85044 0.21924 0.0
Sm80 Sm 0.1554 0.90451 0.17264 0.0
Sm81 Sm 0.1392 0.9004 0.19416 0.0
C82 C 0.18976 0.913 0.15751 0.0
C83 C 0.1868 0.89895 0.14846 0.0
C84 C 0.21439 0.89221 0.14531 0.0
C85 C 0.21502 0.88325 0.13651 0.0
C86 C 0.18812 0.88094 0.13061 0.0
C87 C 0.1597 0.88644 0.13385 0.0
C88 C 0.15908 0.89542 0.14267 0.0
C89 C 0.08207 0.88131 0.17632 0.0
C90 C 0.1156 0.82323 0.18269 0.0
C91 C 0.11176 0.89504 0.21008 0.0
C92 C 0.12328 0.91182 0.21886 0.0
C93 C 0.09624 0.90594 0.22507 0.0
C94 C 0.10628 0.92117 0.23346 0.0
C95 C 0.14372 0.94272 0.23585 0.0
C96 C 0.17083 0.9488 0.22955 0.0
C97 C 0.1607 0.9335 0.22114 0.0
C98 C 0.21413 0.92767 0.1903 0.0
C99 C 0.15972 0.97636 0.18304 0.0
O100 O 0.19166 0.89336 0.16398 0.0
O101 O 0.17124 0.92972 0.15947 0.0
O102 O 0.1082 0.88986 0.18161 0.0
O103 O 0.09459 0.88403 0.16838 0.0
O104 O 0.1339 0.84288 0.17571 0.0
O105 O 0.11225 0.83852 0.19002 0.0
O106 O 0.1099 0.91589 0.20393 0.0
O107 O 0.12546 0.87463 0.20734 0.0
O108 O 0.18733 0.91698 0.18512 0.0
O109 O 0.20098 0.92336 0.19816 0.0
O110 O 0.14516 0.95633 0.1902 0.0
O111 O 0.16997 0.96427 0.17614 0.0
H112 H 0.23615 0.89485 0.14961 0.0
H113 H 0.23695 0.87857 0.13431 0.0
H114 H 0.13867 0.88519 0.12951 0.0
H115 H 0.13748 0.90057 0.14489 0.0
H116 H 0.0672 0.8895 0.22344 0.0
H117 H 0.08459 0.91638 0.23804 0.0
H118 H 0.1999 0.96492 0.23115 0.0
H119 H 0.18206 0.93844 0.21643 0.0
Sm120 Sm 0.25841 0.11282 0.35736 0.0
Sm121 Sm 0.25123 0.11825 0.33783 0.0
C122 C 0.2814 0.11006 0.37341 0.0
C123 C 0.29666 0.12737 0.38201 0.0
C124 C 0.32243 0.12021 0.3861 0.0
C125 C 0.33331 0.13113 0.39475 0.0
C126 C 0.31868 0.14957 0.39957 0.0
C127 C 0.29383 0.15794 0.39532 0.0
C128 C 0.28288 0.1469 0.38665 0.0
C129 C 0.20194 0.12545 0.35299 0.0
C130 C 0.30304 0.19559 0.34801 0.0
C131 C 0.23108 0.11603 0.32123 0.0
C132 C 0.22164 0.09411 0.31304 0.0
C133 C 0.19165 0.08981 0.30803 0.0
C134 C 0.18341 0.07156 0.29997 0.0
C135 C 0.20504 0.05713 0.29667 0.0
C136 C 0.23485 0.06102 0.30178 0.0
C137 C 0.24303 0.07927 0.30988 0.0
C138 C 0.30367 0.09922 0.34273 0.0
C139 C 0.19551 0.03958 0.34768 0.0
O140 O 0.30315 0.11976 0.36657 0.0
O141 O 0.2476 0.10166 0.37152 0.0
O142 O 0.23304 0.14031 0.34918 0.0
O143 O 0.20152 0.10625 0.35969 0.0
O144 O 0.30145 0.17493 0.35476 0.0
O145 O 0.28247 0.1804 0.34101 0.0
O146 O 0.2075 0.10284 0.32769 0.0
O147 O 0.26545 0.13264 0.32384 0.0
O148 O 0.27226 0.08717 0.34612 0.0
O149 O 0.30754 0.12071 0.33623 0.0
O150 O 0.20086 0.06118 0.34089 0.0
O151 O 0.21803 0.05137 0.35447 0.0
H152 H 0.33311 0.10478 0.38271 0.0
H153 H 0.35204 0.12363 0.39778 0.0
H154 H 0.28239 0.17261 0.39874 0.0
H155 H 0.26287 0.15274 0.38367 0.0
H156 H 0.17491 0.10126 0.31029 0.0
H157 H 0.1606 0.06965 0.2962 0.0
H158 H 0.25184 0.04988 0.29953 0.0
H159 H 0.26631 0.0821 0.31361 0.0
Sm160 Sm 0.91008 0.14818 0.35748 0.0
Sm161 Sm 0.90205 0.13886 0.33816 0.0
C162 C 0.91354 0.17024 0.37393 0.0
C163 C 0.89546 0.16626 0.38254 0.0
C164 C 0.89166 0.19559 0.3858 0.0
C165 C 0.88041 0.19528 0.39445 0.0
C166 C 0.87291 0.1657 0.40009 0.0
C167 C 0.87537 0.13569 0.39671 0.0
C168 C 0.88654 0.13596 0.38805 0.0
C169 C 0.89832 0.08047 0.35213 0.0
C170 C 0.82582 0.11063 0.3489 0.0
C171 C 0.90382 0.1255 0.32117 0.0
C172 C 0.92625 0.14005 0.31305 0.0
C173 C 0.95572 0.1339 0.31122 0.0
C174 C 0.9742 0.14443 0.30316 0.0
C175 C 0.9636 0.16123 0.29668 0.0
C176 C 0.93459 0.16801 0.29859 0.0
C177 C 0.91612 0.15746 0.30664 0.0
C178 C 0.92121 0.20947 0.34393 0.0
C179 C 0.98227 0.1613 0.34711 0.0
O180 O 0.905 0.18473 0.36737 0.0
O181 O 0.92118 0.14481 0.37151 0.0
O182 O 0.88152 0.09613 0.34904 0.0
O183 O 0.9201 0.09936 0.35849 0.0
O184 O 0.84741 0.12832 0.35564 0.0
O185 O 0.84005 0.10701 0.34152 0.0
O186 O 0.91568 0.11223 0.32731 0.0
O187 O 0.88801 0.1432 0.32432 0.0
O188 O 0.93451 0.19016 0.34663 0.0
O189 O 0.89727 0.19184 0.33784 0.0
O190 O 0.95956 0.14486 0.3405 0.0
O191 O 0.97126 0.17197 0.35403 0.0
H192 H 0.89888 0.21958 0.38177 0.0
H193 H 0.87927 0.21908 0.39682 0.0
H194 H 0.86929 0.11219 0.40081 0.0
H195 H 0.88933 0.11296 0.38578 0.0
H196 H 0.96404 0.12014 0.31594 0.0
H197 H 0.99604 0.1383 0.30192 0.0
H198 H 0.92594 0.18135 0.29384 0.0
H199 H 0.89334 0.16232 0.30778 0.0
Sm200 Sm 0.87199 0.76381 0.35672 0.0
Sm201 Sm 0.88292 0.76539 0.33722 0.0
C202 C 0.84734 0.74406 0.373 0.0
C203 C 0.85115 0.73095 0.38177 0.0
C204 C 0.82228 0.69751 0.38507 0.0
C205 C 0.82231 0.68731 0.3938 0.0
C206 C 0.85114 0.71044 0.3995 0.0
C207 C 0.88071 0.7433 0.3961 0.0
C208 C 0.88072 0.75345 0.38736 0.0
C209 C 0.94132 0.81755 0.35163 0.0
C210 C 0.90828 0.71556 0.3482 0.0
C211 C 0.89784 0.7812 0.32029 0.0
C212 C 0.88445 0.79024 0.31213 0.0
C213 C 0.89838 0.82722 0.30957 0.0
C214 C 0.88874 0.83585 0.30149 0.0
C215 C 0.86509 0.80774 0.29569 0.0
C216 C 0.85068 0.77074 0.29833 0.0
C217 C 0.86029 0.76212 0.30641 0.0
C218 C 0.81158 0.71537 0.34279 0.0
C219 C 0.8641 0.82579 0.34614 0.0
O220 O 0.83536 0.72084 0.36642 0.0
O221 O 0.87147 0.77783 0.37066 0.0
O222 O 0.92398 0.7855 0.34836 0.0
O223 O 0.92417 0.82036 0.35839 0.0
O224 O 0.89053 0.71988 0.35488 0.0
O225 O 0.91295 0.73375 0.34081 0.0
O226 O 0.9113 0.80603 0.32649 0.0
O227 O 0.87913 0.74755 0.32336 0.0
O228 O 0.83148 0.74784 0.34557 0.0
O229 O 0.82892 0.70867 0.33671 0.0
O230 O 0.88037 0.81852 0.33968 0.0
O231 O 0.8515 0.80395 0.35304 0.0
H232 H 0.79884 0.67986 0.38098 0.0
H233 H 0.79886 0.66202 0.39618 0.0
H234 H 0.90367 0.76156 0.40024 0.0
H235 H 0.90338 0.77951 0.38507 0.0
H236 H 0.91753 0.84963 0.31373 0.0
H237 H 0.90084 0.86464 0.29967 0.0
H238 H 0.83203 0.74831 0.29411 0.0
H239 H 0.84928 0.73332 0.3081 0.0
Sm240 Sm 0.90537 0.77251 0.83659 0.0
Sm241 Sm 0.91226 0.76217 0.85719 0.0
C242 C 0.89958 0.79522 0.82078 0.0
C243 C 0.91726 0.80196 0.81209 0.0
C244 C 0.90721 0.81871 0.80555 0.0
C245 C 0.92347 0.82536 0.79725 0.0
C246 C 0.95026 0.81541 0.79529 0.0
C247 C 0.96017 0.79845 0.80189 0.0
C248 C 0.94387 0.79186 0.81021 0.0
C249 C 0.93402 0.72542 0.83962 0.0
C250 C 0.98399 0.82424 0.84663 0.0
C251 C 0.91612 0.73692 0.87287 0.0
C252 C 0.89949 0.72448 0.88164 0.0
C253 C 0.90197 0.69578 0.88574 0.0
C254 C 0.89118 0.6865 0.89446 0.0
C255 C 0.8776 0.70574 0.89933 0.0
C256 C 0.87399 0.73374 0.89511 0.0
C257 C 0.88485 0.74304 0.88636 0.0
C258 C 0.90171 0.82017 0.8529 0.0
C259 C 0.82889 0.71848 0.84789 0.0
O260 O 0.91928 0.81784 0.82707 0.0
O261 O 0.88041 0.76069 0.82334 0.0
O262 O 0.92435 0.74136 0.84507 0.0
O263 O 0.92801 0.73404 0.83191 0.0
O264 O 0.96134 0.82245 0.84038 0.0
O265 O 0.97306 0.79905 0.85291 0.0
O266 O 0.90046 0.71516 0.86615 0.0
O267 O 0.9305 0.772 0.87099 0.0
O268 O 0.88701 0.78933 0.84896 0.0
O269 O 0.91925 0.81919 0.85981 0.0
O270 O 0.84904 0.72411 0.85505 0.0
O271 O 0.84388 0.7344 0.8403 0.0
H272 H 0.88663 0.82659 0.80685 0.0
H273 H 0.91467 0.83792 0.79233 0.0
H274 H 0.98094 0.79077 0.80067 0.0
H275 H 0.95211 0.77897 0.81518 0.0
H276 H 0.91355 0.68134 0.88227 0.0
H277 H 0.89491 0.66517 0.89748 0.0
H278 H 0.86314 0.7488 0.89859 0.0
H279 H 0.88266 0.76534 0.88336 0.0
Sm280 Sm 0.25162 0.13906 0.83822 0.0
Sm281 Sm 0.25719 0.15028 0.85755 0.0
C282 C 0.234 0.12381 0.82139 0.0
C283 C 0.22604 0.13789 0.81322 0.0
C284 C 0.19277 0.13811 0.81206 0.0
C285 C 0.18437 0.14818 0.80399 0.0
C286 C 0.20897 0.15826 0.79688 0.0
C287 C 0.24254 0.15872 0.79812 0.0
C288 C 0.25086 0.14855 0.80616 0.0
C289 C 0.3033 0.21055 0.84338 0.0
C290 C 0.19422 0.15996 0.84789 0.0
C291 C 0.27909 0.17483 0.87371 0.0
C292 C 0.29391 0.17175 0.8823 0.0
C293 C 0.32832 0.20054 0.88513 0.0
C294 C 0.33999 0.20173 0.89376 0.0
C295 C 0.31741 0.17426 0.89983 0.0
C296 C 0.2837 0.14452 0.89688 0.0
C297 C 0.27205 0.14331 0.88823 0.0
C298 C 0.20161 0.08074 0.85305 0.0
C299 C 0.30333 0.11369 0.84837 0.0
O300 O 0.20963 0.11227 0.82771 0.0
O301 O 0.26797 0.14085 0.82428 0.0
O302 O 0.27142 0.191 0.84653 0.0
O303 O 0.30867 0.19272 0.83719 0.0
O304 O 0.19994 0.14394 0.84112 0.0
O305 O 0.21693 0.17119 0.85463 0.0
O306 O 0.30121 0.18746 0.86694 0.0
O307 O 0.24527 0.14992 0.87166 0.0
O308 O 0.23292 0.09742 0.84932 0.0
O309 O 0.20041 0.09948 0.85966 0.0
O310 O 0.30135 0.13266 0.85507 0.0
O311 O 0.28267 0.10794 0.84137 0.0
H312 H 0.17288 0.12992 0.81733 0.0
H313 H 0.15848 0.14794 0.80333 0.0
H314 H 0.26198 0.16579 0.79279 0.0
H315 H 0.27648 0.1482 0.8068 0.0
H316 H 0.34563 0.22302 0.88075 0.0
H317 H 0.3664 0.22472 0.89574 0.0
H318 H 0.26539 0.12302 0.90135 0.0
H319 H 0.2452 0.12087 0.88631 0.0
Sm320 Sm 0.88676 0.11711 0.83615 0.0
Sm321 Sm 0.86946 0.11191 0.85769 0.0
C322 C 0.91389 0.12086 0.8203 0.0
C323 C 0.90169 0.1022 0.81167 0.0
C324 C 0.91288 0.07719 0.80895 0.0
C325 C 0.90244 0.06002 0.80077 0.0
C326 C 0.88075 0.06762 0.79505 0.0
C327 C 0.86964 0.09275 0.79776 0.0
C328 C 0.87997 0.10983 0.80596 0.0
C329 C 0.8122 0.09128 0.84 0.0
C330 C 0.86514 0.04045 0.8471 0.0
C331 C 0.83454 0.10273 0.87274 0.0
C332 C 0.83797 0.11723 0.88175 0.0
C333 C 0.81158 0.12588 0.88482 0.0
C334 C 0.81139 0.1354 0.89359 0.0
C335 C 0.83752 0.13632 0.89954 0.0
C336 C 0.86477 0.12889 0.89637 0.0
C337 C 0.86498 0.11942 0.88759 0.0
C338 C 0.94293 0.1357 0.85411 0.0
C339 C 0.90922 0.19342 0.84769 0.0
O340 O 0.91689 0.10156 0.82669 0.0
O341 O 0.90073 0.14199 0.82287 0.0
O342 O 0.8387 0.09988 0.84512 0.0
O343 O 0.82532 0.09688 0.83211 0.0
O344 O 0.87994 0.06087 0.84001 0.0
O345 O 0.8547 0.0522 0.85403 0.0
O346 O 0.8323 0.1221 0.86625 0.0
O347 O 0.85327 0.08621 0.87079 0.0
O348 O 0.91691 0.12715 0.8488 0.0
O349 O 0.93024 0.13266 0.86204 0.0
O350 O 0.89002 0.17351 0.85457 0.0
O351 O 0.91395 0.17843 0.84048 0.0
H352 H 0.93002 0.07107 0.81313 0.0
H353 H 0.91201 0.0413 0.79886 0.0
H354 H 0.85266 0.09902 0.79356 0.0
H355 H 0.87097 0.12907 0.80781 0.0
H356 H 0.79039 0.12432 0.88048 0.0
H357 H 0.79039 0.14158 0.89573 0.0
H358 H 0.88514 0.12899 0.90076 0.0
H359 H 0.88566 0.11281 0.88545 0.0
Sm360 Sm 0.77766 0.89789 0.69406 0.0
Sm361 Sm 0.76552 0.90346 0.67253 0.0
C362 C 0.80128 0.89389 0.70985 0.0
C363 C 0.80769 0.91242 0.71848 0.0
C364 C 0.84396 0.93453 0.72157 0.0
C365 C 0.85069 0.9518 0.72974 0.0
C366 C 0.82128 0.9472 0.73508 0.0
C367 C 0.78493 0.92497 0.732 0.0
C368 C 0.7782 0.90782 0.7238 0.0
C369 C 0.72869 0.92337 0.69036 0.0
C370 C 0.83194 0.97512 0.68321 0.0
C371 C 0.74 0.91292 0.65747 0.0
C372 C 0.72944 0.89902 0.64838 0.0
C373 C 0.69239 0.88294 0.64574 0.0
C374 C 0.68244 0.87368 0.63697 0.0
C375 C 0.70937 0.88053 0.63057 0.0
C376 C 0.74636 0.89574 0.63326 0.0
C377 C 0.75628 0.90491 0.64204 0.0
C378 C 0.81575 0.88032 0.67607 0.0
C379 C 0.72365 0.82185 0.68244 0.0
O380 O 0.82354 0.91343 0.70347 0.0
O381 O 0.76696 0.87266 0.70729 0.0
O382 O 0.74644 0.91487 0.68516 0.0
O383 O 0.73642 0.91773 0.69823 0.0
O384 O 0.82644 0.95477 0.69031 0.0
O385 O 0.8101 0.96319 0.67623 0.0
O386 O 0.71829 0.89292 0.66389 0.0
O387 O 0.7752 0.92992 0.65952 0.0
O388 O 0.79798 0.8885 0.68137 0.0
O389 O 0.80605 0.8833 0.66815 0.0
O390 O 0.72436 0.8419 0.6756 0.0
O391 O 0.74349 0.83666 0.68965 0.0
H392 H 0.86723 0.93831 0.71767 0.0
H393 H 0.879 0.96825 0.73194 0.0
H394 H 0.76163 0.92109 0.7359 0.0
H395 H 0.74988 0.89096 0.72165 0.0
H396 H 0.67111 0.87833 0.65044 0.0
H397 H 0.65361 0.86149 0.63519 0.0
H398 H 0.76797 0.90187 0.62854 0.0
H399 H 0.78517 0.91759 0.6438 0.0
Sm400 Sm 0.12332 0.88259 0.69295 0.0
Sm401 Sm 0.11802 0.87041 0.67349 0.0
C402 C 0.12121 0.90064 0.70954 0.0
C403 C 0.09973 0.88825 0.71781 0.0
C404 C 0.09108 0.9124 0.7222 0.0
C405 C 0.0739 0.90315 0.7304 0.0
C406 C 0.06501 0.86947 0.73447 0.0
C407 C 0.07281 0.8448 0.72995 0.0
C408 C 0.09003 0.8541 0.72172 0.0
C409 C 0.10408 0.81094 0.68814 0.0
C410 C 0.04467 0.8596 0.68306 0.0
C411 C 0.11533 0.8461 0.65731 0.0
C412 C 0.13332 0.84819 0.64882 0.0
C413 C 0.12523 0.81519 0.64462 0.0
C414 C 0.13683 0.81551 0.63602 0.0
C415 C 0.15687 0.84894 0.63139 0.0
C416 C 0.16621 0.88219 0.63576 0.0
C417 C 0.15451 0.88182 0.64437 0.0
C418 C 0.13025 0.93911 0.67813 0.0
C419 C 0.2006 0.90744 0.68276 0.0
O420 O 0.10756 0.91057 0.70309 0.0
O421 O 0.13828 0.88339 0.70691 0.0
O422 O 0.0922 0.83031 0.68467 0.0
O423 O 0.12543 0.82865 0.69465 0.0
O424 O 0.06614 0.87609 0.68985 0.0
O425 O 0.05661 0.84851 0.67637 0.0
O426 O 0.1229 0.83199 0.6641 0.0
O427 O 0.10892 0.87276 0.65932 0.0
O428 O 0.14594 0.92321 0.68167 0.0
O429 O 0.10961 0.91999 0.67164 0.0
O430 O 0.17977 0.88838 0.67604 0.0
O431 O 0.18559 0.91322 0.68975 0.0
H432 H 0.09828 0.93891 0.71935 0.0
H433 H 0.06774 0.92257 0.73358 0.0
H434 H 0.06666 0.81875 0.73288 0.0
H435 H 0.09641 0.83488 0.71851 0.0
H436 H 0.10855 0.78888 0.64787 0.0
H437 H 0.12859 0.7893 0.63289 0.0
H438 H 0.18209 0.90851 0.63247 0.0
H439 H 0.1611 0.90773 0.64745 0.0
Sm440 Sm 0.13817 0.24841 0.69489 0.0
Sm441 Sm 0.15509 0.25495 0.67413 0.0
C442 C 0.11059 0.22775 0.71084 0.0
C443 C 0.12214 0.22153 0.71954 0.0
C444 C 0.09594 0.1939 0.72501 0.0
C445 C 0.10601 0.1875 0.73329 0.0
C446 C 0.14263 0.20864 0.7363 0.0
C447 C 0.1689 0.23633 0.73077 0.0
C448 C 0.15879 0.24263 0.72247 0.0
C449 C 0.21403 0.29325 0.69163 0.0
C450 C 0.16091 0.19228 0.68527 0.0
C451 C 0.18473 0.27866 0.65841 0.0
C452 C 0.18185 0.29143 0.64953 0.0
C453 C 0.20991 0.32601 0.64657 0.0
C454 C 0.21121 0.33656 0.63783 0.0
C455 C 0.18455 0.31269 0.63178 0.0
C456 C 0.15554 0.27866 0.63484 0.0
C457 C 0.15425 0.26811 0.6436 0.0
C458 C 0.08586 0.19957 0.67889 0.0
C459 C 0.11667 0.30118 0.68282 0.0
O460 O 0.10642 0.20423 0.70467 0.0
O461 O 0.12598 0.262 0.70805 0.0
O462 O 0.18819 0.27686 0.68625 0.0
O463 O 0.19957 0.28622 0.69937 0.0
O464 O 0.14088 0.19634 0.69139 0.0
O465 O 0.1766 0.2166 0.67885 0.0
O466 O 0.19164 0.30089 0.66508 0.0
O467 O 0.16313 0.24377 0.66039 0.0
O468 O 0.10345 0.23088 0.68253 0.0
O469 O 0.10253 0.19899 0.67176 0.0
O470 O 0.13075 0.29385 0.67582 0.0
O471 O 0.11578 0.28684 0.69064 0.0
H472 H 0.06751 0.17728 0.7229 0.0
H473 H 0.08489 0.16629 0.73738 0.0
H474 H 0.19743 0.25285 0.7328 0.0
H475 H 0.17963 0.26396 0.71835 0.0
H476 H 0.23169 0.34446 0.65097 0.0
H477 H 0.2336 0.36323 0.63577 0.0
H478 H 0.13466 0.25941 0.63039 0.0
H479 H 0.13234 0.24114 0.64564 0.0
Sm480 Sm 0.78099 0.58661 0.50673 0.0
Sm481 Sm 0.78949 0.58321 0.52605 0.0
C482 C 0.77666 0.60688 0.49046 0.0
C483 C 0.79399 0.6199 0.48169 0.0
C484 C 0.81049 0.65742 0.47938 0.0
C485 C 0.82152 0.66891 0.47073 0.0
C486 C 0.81608 0.64314 0.46414 0.0
C487 C 0.80064 0.60576 0.46653 0.0
C488 C 0.78968 0.59431 0.47517 0.0
C489 C 0.79535 0.53143 0.51129 0.0
C490 C 0.86513 0.63359 0.51538 0.0
C491 C 0.7901 0.567 0.54288 0.0
C492 C 0.76991 0.55875 0.55128 0.0
C493 C 0.77354 0.53536 0.55726 0.0
C494 C 0.75711 0.52886 0.56553 0.0
C495 C 0.73657 0.54563 0.56804 0.0
C496 C 0.73218 0.56843 0.56194 0.0
C497 C 0.74878 0.575 0.55364 0.0
C498 C 0.76862 0.63397 0.52076 0.0
C499 C 0.71017 0.52438 0.51714 0.0
O500 O 0.78808 0.62989 0.49707 0.0
O501 O 0.76637 0.57296 0.49276 0.0
O502 O 0.81058 0.5631 0.51484 0.0
O503 O 0.77473 0.52972 0.50478 0.0
O504 O 0.84349 0.63081 0.50874 0.0
O505 O 0.85097 0.61378 0.52252 0.0
O506 O 0.77633 0.542 0.53673 0.0
O507 O 0.80504 0.60068 0.53984 0.0
O508 O 0.75597 0.60171 0.51787 0.0
O509 O 0.79263 0.64022 0.52682 0.0
O510 O 0.73358 0.53075 0.52357 0.0
O511 O 0.71991 0.54683 0.51034 0.0
H512 H 0.81383 0.67785 0.48419 0.0
H513 H 0.83381 0.698 0.4692 0.0
H514 H 0.79546 0.58495 0.46166 0.0
H515 H 0.7765 0.56509 0.47665 0.0
H516 H 0.78964 0.52247 0.55558 0.0
H517 H 0.76054 0.51061 0.56996 0.0
H518 H 0.71675 0.58197 0.56365 0.0
H519 H 0.74559 0.5932 0.54914 0.0
Sm520 Sm 0.43405 0.20104 0.50708 0.0
Sm521 Sm 0.43647 0.21257 0.52636 0.0
C522 C 0.41492 0.17668 0.49079 0.0
C523 C 0.39963 0.17834 0.48216 0.0
C524 C 0.37502 0.14514 0.47797 0.0
C525 C 0.36411 0.14509 0.46931 0.0
C526 C 0.37754 0.17834 0.4646 0.0
C527 C 0.40126 0.21176 0.46893 0.0
C528 C 0.41223 0.21176 0.47761 0.0
C529 C 0.48939 0.26991 0.51192 0.0
C530 C 0.38703 0.23849 0.51563 0.0
C531 C 0.45206 0.22738 0.54328 0.0
C532 C 0.45896 0.21284 0.55153 0.0
C533 C 0.49528 0.2243 0.55424 0.0
C534 C 0.50215 0.21361 0.56239 0.0
C535 C 0.47292 0.19134 0.5681 0.0
C536 C 0.43655 0.17942 0.56533 0.0
C537 C 0.42968 0.19009 0.55718 0.0
C538 C 0.3859 0.14092 0.52104 0.0
C539 C 0.4962 0.19295 0.51752 0.0
O540 O 0.39254 0.1619 0.49746 0.0
O541 O 0.44742 0.20394 0.49299 0.0
O542 O 0.45719 0.254 0.51518 0.0
O543 O 0.49223 0.25064 0.50564 0.0
O544 O 0.38997 0.21958 0.50901 0.0
O545 O 0.40654 0.24401 0.52281 0.0
O546 O 0.4772 0.23882 0.53715 0.0
O547 O 0.4185 0.21088 0.54013 0.0
O548 O 0.4183 0.16054 0.51821 0.0
O549 O 0.37936 0.15878 0.52701 0.0
O550 O 0.48937 0.20976 0.52392 0.0
O551 O 0.47403 0.18014 0.51068 0.0
H552 H 0.36528 0.11896 0.48128 0.0
H553 H 0.3463 0.11875 0.46621 0.0
H554 H 0.41174 0.23796 0.46559 0.0
H555 H 0.43132 0.23783 0.48067 0.0
H556 H 0.51857 0.24232 0.55014 0.0
H557 H 0.53055 0.22382 0.56432 0.0
H558 H 0.41329 0.1619 0.56949 0.0
H559 H 0.40137 0.18102 0.55537 0.0
Sm560 Sm 0.81949 0.24052 0.50677 0.0
Sm561 Sm 0.80919 0.23194 0.52607 0.0
C562 C 0.84174 0.24428 0.49031 0.0
C563 C 0.8372 0.22615 0.48167 0.0
C564 C 0.85674 0.20786 0.47962 0.0
C565 C 0.85701 0.19601 0.47105 0.0
C566 C 0.83797 0.20238 0.4643 0.0
C567 C 0.81746 0.2196 0.46644 0.0
C568 C 0.81717 0.23139 0.47499 0.0
C569 C 0.75143 0.22835 0.51195 0.0
C570 C 0.7819 0.15601 0.51528 0.0
C571 C 0.79419 0.23289 0.54297 0.0
C572 C 0.80654 0.25522 0.55112 0.0
C573 C 0.78205 0.26349 0.55549 0.0
C574 C 0.79135 0.28143 0.5636 0.0
C575 C 0.82542 0.29147 0.5676 0.0
C576 C 0.85037 0.28399 0.56311 0.0
C577 C 0.84103 0.26601 0.55498 0.0
C578 C 0.88007 0.25132 0.52047 0.0
C579 C 0.83243 0.31259 0.51717 0.0
O580 O 0.85568 0.23508 0.49687 0.0
O581 O 0.81686 0.25265 0.49275 0.0
O582 O 0.76704 0.21156 0.51508 0.0
O583 O 0.77064 0.25041 0.50566 0.0
O584 O 0.79972 0.17782 0.50857 0.0
O585 O 0.778 0.16999 0.52267 0.0
O586 O 0.78018 0.24361 0.53677 0.0
O587 O 0.81395 0.21909 0.53995 0.0
O588 O 0.86088 0.26469 0.51772 0.0
O589 O 0.86215 0.22715 0.52651 0.0
O590 O 0.81565 0.28971 0.52374 0.0
O591 O 0.84333 0.30167 0.51027 0.0
H592 H 0.87283 0.20371 0.48456 0.0
H593 H 0.8727 0.18239 0.4697 0.0
H594 H 0.80288 0.22551 0.46143 0.0
H595 H 0.80236 0.24598 0.47628 0.0
H596 H 0.75525 0.25541 0.5527 0.0
H597 H 0.77166 0.28728 0.56675 0.0
H598 H 0.87672 0.29099 0.56599 0.0
H599 H 0.86052 0.25991 0.55181 0.0
Sm600 Sm 0.9243 0.44559 0.68992 0.0
Sm601 Sm 0.91914 0.45634 0.66919 0.0
C602 C 0.94513 0.43956 0.70597 0.0
C603 C 0.95986 0.45666 0.71463 0.0
C604 C 0.99305 0.45985 0.71765 0.0
C605 C 1.00453 0.47005 0.7263 0.0
C606 C 0.98297 0.47712 0.73221 0.0
C607 C 0.95052 0.47546 0.72908 0.0
C608 C 0.93906 0.46529 0.72041 0.0
C609 C 0.86769 0.45661 0.68476 0.0
C610 C 0.96959 0.53061 0.68131 0.0
C611 C 0.89893 0.46293 0.65317 0.0
C612 C 0.89317 0.4454 0.64448 0.0
C613 C 0.87602 0.45465 0.63787 0.0
C614 C 0.86963 0.43799 0.62963 0.0
C615 C 0.88023 0.41159 0.62779 0.0
C616 C 0.89771 0.40259 0.63445 0.0
C617 C 0.90403 0.41927 0.64271 0.0
C618 C 0.96611 0.42814 0.67278 0.0
C619 C 0.86421 0.37611 0.67854 0.0
O620 O 0.96749 0.44972 0.69922 0.0
O621 O 0.91149 0.43135 0.70391 0.0
O622 O 0.89978 0.47265 0.68145 0.0
O623 O 0.86575 0.43645 0.69143 0.0
O624 O 0.96417 0.5092 0.68824 0.0
O625 O 0.95393 0.51706 0.67363 0.0
O626 O 0.87536 0.44311 0.6593 0.0
O627 O 0.93309 0.4819 0.65598 0.0
O628 O 0.94792 0.43595 0.67798 0.0
O629 O 0.96041 0.43638 0.66499 0.0
O630 O 0.86828 0.40007 0.67238 0.0
O631 O 0.88779 0.38536 0.68515 0.0
H632 H 1.00952 0.45311 0.71338 0.0
H633 H 0.03001 0.47167 0.72841 0.0
H634 H 0.93299 0.48036 0.73342 0.0
H635 H 0.91317 0.46283 0.71834 0.0
H636 H 0.86748 0.47479 0.63909 0.0
H637 H 0.85664 0.44609 0.62466 0.0
H638 H 0.9059 0.38213 0.63332 0.0
H639 H 0.91716 0.41159 0.64774 0.0
Sm640 Sm 0.57749 0.48219 0.68986 0.0
Sm641 Sm 0.56683 0.47002 0.67061 0.0
C642 C 0.58347 0.50689 0.70615 0.0
C643 C 0.5665 0.50444 0.71485 0.0
C644 C 0.5665 0.53564 0.71824 0.0
C645 C 0.55626 0.53629 0.72694 0.0
C646 C 0.54595 0.50578 0.73249 0.0
C647 C 0.54463 0.47401 0.72898 0.0
C648 C 0.5548 0.47334 0.72027 0.0
C649 C 0.56381 0.41331 0.68502 0.0
C650 C 0.49222 0.44369 0.68175 0.0
C651 C 0.56576 0.45406 0.65371 0.0
C652 C 0.58666 0.467 0.64539 0.0
C653 C 0.5904 0.44155 0.64015 0.0
C654 C 0.60806 0.45206 0.63202 0.0
C655 C 0.62247 0.48841 0.62889 0.0
C656 C 0.619 0.51404 0.63421 0.0
C657 C 0.60133 0.50347 0.64237 0.0
C658 C 0.5883 0.54178 0.67595 0.0
C659 C 0.64698 0.49022 0.67908 0.0
O660 O 0.57463 0.52085 0.69953 0.0
O661 O 0.59007 0.48062 0.70387 0.0
O662 O 0.54722 0.42906 0.68187 0.0
O663 O 0.58617 0.43265 0.69125 0.0
O664 O 0.51468 0.46356 0.68819 0.0
O665 O 0.50571 0.43784 0.67452 0.0
O666 O 0.57908 0.44203 0.65978 0.0
O667 O 0.5507 0.47244 0.65688 0.0
O668 O 0.60133 0.52225 0.67865 0.0
O669 O 0.56333 0.52376 0.67009 0.0
O670 O 0.62288 0.47321 0.67277 0.0
O671 O 0.63815 0.50331 0.68596 0.0
H672 H 0.57589 0.5602 0.71427 0.0
H673 H 0.55805 0.5614 0.72941 0.0
H674 H 0.5363 0.44978 0.733 0.0
H675 H 0.55458 0.44885 0.71788 0.0
H676 H 0.57907 0.41319 0.64229 0.0
H677 H 0.60964 0.43136 0.62809 0.0
H678 H 0.63012 0.54236 0.63208 0.0
H679 H 0.59892 0.52375 0.64628 0.0
Sm680 Sm 0.54156 0.09916 0.69006 0.0
Sm681 Sm 0.55225 0.09995 0.6708 0.0
C682 C 0.51792 0.08076 0.70644 0.0
C683 C 0.52025 0.06612 0.71514 0.0
C684 C 0.49081 0.03223 0.71806 0.0
C685 C 0.48922 0.02081 0.72674 0.0
C686 C 0.51695 0.04309 0.73277 0.0
C687 C 0.54724 0.0763 0.72974 0.0
C688 C 0.54883 0.08772 0.72105 0.0
C689 C 0.61021 0.15425 0.68495 0.0
C690 C 0.57847 0.05119 0.68174 0.0
C691 C 0.56692 0.11492 0.65384 0.0
C692 C 0.55329 0.12299 0.64562 0.0
C693 C 0.57399 0.15782 0.64165 0.0
C694 C 0.56379 0.16509 0.63349 0.0
C695 C 0.53268 0.13763 0.62903 0.0
C696 C 0.51147 0.10297 0.6331 0.0
C697 C 0.52167 0.0957 0.64128 0.0
C698 C 0.48075 0.04979 0.67637 0.0
C699 C 0.53204 0.15979 0.67937 0.0
O700 O 0.5034 0.05794 0.69985 0.0
O701 O 0.54434 0.11356 0.7041 0.0
O702 O 0.59425 0.12176 0.68185 0.0
O703 O 0.59107 0.15753 0.6912 0.0
O704 O 0.56063 0.05549 0.6884 0.0
O705 O 0.58297 0.06919 0.67435 0.0
O706 O 0.57973 0.14023 0.65993 0.0
O707 O 0.54888 0.08143 0.65703 0.0
O708 O 0.50054 0.08241 0.67904 0.0
O709 O 0.49834 0.04279 0.67041 0.0
O710 O 0.54879 0.15273 0.67299 0.0
O711 O 0.51974 0.13814 0.68631 0.0
H712 H 0.46817 0.01512 0.71371 0.0
H713 H 0.46578 0.99478 0.72877 0.0
H714 H 0.56896 0.09439 0.73418 0.0
H715 H 0.57175 0.1142 0.71907 0.0
H716 H 0.5986 0.17934 0.64479 0.0
H717 H 0.58049 0.19229 0.63066 0.0
H718 H 0.48756 0.08098 0.62985 0.0
H719 H 0.50521 0.06844 0.64409 0.0
Sm720 Sm 0.57096 0.10624 0.17104 0.0
Sm721 Sm 0.57546 0.09795 0.19036 0.0
C722 C 0.5743 0.1265 0.15439 0.0
C723 C 0.59574 0.13347 0.14613 0.0
C724 C 0.62426 0.16926 0.14399 0.0
C725 C 0.64198 0.17659 0.13585 0.0
C726 C 0.6315 0.1484 0.12959 0.0
C727 C 0.60339 0.11248 0.1318 0.0
C728 C 0.5857 0.10515 0.13994 0.0
C729 C 0.5906 0.05381 0.17573 0.0
C730 C 0.64882 0.16221 0.18104 0.0
C731 C 0.57721 0.07396 0.20635 0.0
C732 C 0.55925 0.05933 0.21494 0.0
C733 C 0.55373 0.02506 0.21784 0.0
C734 C 0.54334 0.0136 0.22649 0.0
C735 C 0.53844 0.03629 0.2325 0.0
C736 C 0.54218 0.0698 0.22947 0.0
C737 C 0.55252 0.08122 0.22081 0.0
C738 C 0.56298 0.1548 0.1863 0.0
C739 C 0.4929 0.05431 0.18097 0.0
O740 O 0.58943 0.14997 0.16082 0.0
O741 O 0.55458 0.09236 0.15711 0.0
O742 O 0.60219 0.08491 0.17924 0.0
O743 O 0.56906 0.05013 0.16928 0.0
O744 O 0.62728 0.15761 0.1743 0.0
O745 O 0.63701 0.13844 0.18759 0.0
O746 O 0.5663 0.05226 0.1995 0.0
O747 O 0.58797 0.10838 0.20446 0.0
O748 O 0.54814 0.12401 0.18234 0.0
O749 O 0.58195 0.15457 0.19297 0.0
O750 O 0.51351 0.05466 0.1876 0.0
O751 O 0.50847 0.07599 0.17414 0.0
H752 H 0.63236 0.19191 0.14853 0.0
H753 H 0.66311 0.20468 0.13436 0.0
H754 H 0.59485 0.08994 0.12721 0.0
H755 H 0.56362 0.07733 0.14131 0.0
H756 H 0.55897 1.00772 0.2135 0.0
H757 H 0.54007 0.98732 0.22853 0.0
H758 H 0.53896 0.08816 0.23391 0.0
H759 H 0.55679 0.10795 0.21882 0.0
Sm760 Sm 0.91647 0.46953 0.16995 0.0
Sm761 Sm 0.9288 0.48552 0.19156 0.0
C762 C 0.89306 0.44331 0.15403 0.0
C763 C 0.88638 0.45523 0.1454 0.0
C764 C 0.85318 0.43239 0.14099 0.0
C765 C 0.84632 0.44233 0.13275 0.0
C766 C 0.87259 0.47541 0.12867 0.0
C767 C 0.90575 0.49849 0.13317 0.0
C768 C 0.91256 0.48854 0.14144 0.0
C769 C 0.96518 0.54404 0.17406 0.0
C770 C 0.86153 0.49045 0.18116 0.0
C771 C 0.95457 0.52084 0.20656 0.0
C772 C 0.96664 0.51883 0.21553 0.0
C773 C 0.991 0.55177 0.21983 0.0
C774 C 1.00048 0.55141 0.22859 0.0
C775 C 0.98586 0.51799 0.23327 0.0
C776 C 0.96201 0.48481 0.22886 0.0
C777 C 0.95247 0.48523 0.22008 0.0
C778 C 0.87865 0.41226 0.18781 0.0
C779 C 0.96999 0.44585 0.18134 0.0
O780 O 0.87072 0.44014 0.16041 0.0
O781 O 0.92748 0.4569 0.15656 0.0
O782 O 0.94728 0.51706 0.17907 0.0
O783 O 0.95785 0.53138 0.16612 0.0
O784 O 0.86719 0.4765 0.17393 0.0
O785 O 0.88354 0.49998 0.18811 0.0
O786 O 0.97614 0.52358 0.20002 0.0
O787 O 0.91926 0.50028 0.20481 0.0
O788 O 0.89621 0.43857 0.18255 0.0
O789 O 0.88867 0.4245 0.19576 0.0
O790 O 0.96992 0.46538 0.18821 0.0
O791 O 0.94991 0.4412 0.17418 0.0
H792 H 0.83247 0.40665 0.14391 0.0
H793 H 0.82019 0.42413 0.12961 0.0
H794 H 0.92683 0.52398 0.13023 0.0
H795 H 0.9384 0.5068 0.14469 0.0
H796 H 1.00201 0.57803 0.21647 0.0
H797 H 0.01839 0.57757 0.23175 0.0
H798 H 0.95056 0.4585 0.2322 0.0
H799 H 0.93359 0.45943 0.21688 0.0
Sm800 Sm 0.55569 0.45446 0.16922 0.0
Sm801 Sm 0.5384 0.45014 0.19067 0.0
C802 C 0.58288 0.45881 0.15335 0.0
C803 C 0.57087 0.44123 0.14464 0.0
C804 C 0.59371 0.43164 0.13997 0.0
C805 C 0.58345 0.41551 0.13168 0.0
C806 C 0.55004 0.40862 0.12781 0.0
C807 C 0.52697 0.41797 0.13255 0.0
C808 C 0.53724 0.43405 0.14088 0.0
C809 C 0.48078 0.42834 0.17295 0.0
C810 C 0.53221 0.37782 0.18014 0.0
C811 C 0.50446 0.44102 0.20588 0.0
C812 C 0.50958 0.45291 0.21519 0.0
C813 C 0.51161 0.48617 0.21777 0.0
C814 C 0.51272 0.49495 0.22666 0.0
C815 C 0.51153 0.47057 0.23317 0.0
C816 C 0.51036 0.43775 0.23055 0.0
C817 C 0.50926 0.42901 0.22169 0.0
C818 C 0.61163 0.47162 0.18727 0.0
C819 C 0.5787 0.53118 0.18062 0.0
O820 O 0.58497 0.43841 0.15959 0.0
O821 O 0.57 0.48003 0.15603 0.0
O822 O 0.50746 0.4388 0.17813 0.0
O823 O 0.494 0.43232 0.1651 0.0
O824 O 0.54876 0.3984 0.17318 0.0
O825 O 0.52111 0.38987 0.18689 0.0
O826 O 0.50575 0.46396 0.19984 0.0
O827 O 0.51898 0.42108 0.20336 0.0
O828 O 0.58605 0.46394 0.18188 0.0
O829 O 0.59861 0.46899 0.19514 0.0
O830 O 0.5584 0.51136 0.18738 0.0
O831 O 0.58403 0.516 0.17352 0.0
H832 H 0.61965 0.43669 0.14275 0.0
H833 H 0.60164 0.40811 0.12833 0.0
H834 H 0.50123 0.41345 0.12978 0.0
H835 H 0.51897 0.44102 0.14434 0.0
H836 H 0.5115 0.50507 0.21294 0.0
H837 H 0.51325 0.52029 0.22843 0.0
H838 H 0.50998 0.41856 0.23536 0.0
H839 H 0.50737 0.40302 0.21994 0.0
Sm840 Sm 0.43913 0.22854 0.0263 0.0
Sm841 Sm 0.43572 0.23803 1.00709 0.0
C842 C 0.45565 0.22921 0.04315 0.0
C843 C 0.46442 0.25166 0.05128 0.0
C844 C 0.50088 0.27935 0.05316 0.0
C845 C 0.50964 0.29798 0.06119 0.0
C846 C 0.48226 0.28936 0.06758 0.0
C847 C 0.44568 0.26215 0.06562 0.0
C848 C 0.43692 0.24346 0.0576 0.0
C849 C 0.38887 0.25047 0.02126 0.0
C850 C 0.49885 0.30786 0.01749 0.0
C851 C 0.41476 0.2432 0.99099 0.0
C852 C 0.40033 0.2259 0.98233 0.0
C853 C 0.36651 0.22131 0.97937 0.0
C854 C 0.35516 0.21103 0.97071 0.0
C855 C 0.37749 0.20529 0.96475 0.0
C856 C 0.4106 0.2083 0.96784 0.0
C857 C 0.42194 0.21856 0.97651 0.0
C858 C 0.49074 0.2232 1.01139 0.0
C859 C 0.38921 0.15327 0.0155 0.0
O860 O 0.48024 0.24133 0.03688 0.0
O861 O 0.42183 0.21341 0.04018 0.0
O862 O 0.42105 0.26296 0.01831 0.0
O863 O 0.38229 0.22577 0.02717 0.0
O864 O 0.49217 0.28401 0.02383 0.0
O865 O 0.47632 0.29882 1.01073 0.0
O866 O 0.3923 0.23272 0.99771 0.0
O867 O 0.44851 0.25206 0.99308 0.0
O868 O 0.45911 0.20782 1.01498 0.0
O869 O 0.49247 0.24424 1.00496 0.0
O870 O 0.39139 0.17544 1.00903 0.0
O871 O 0.4092 0.16708 0.02263 0.0
H872 H 0.52289 0.28625 0.0485 0.0
H873 H 0.53802 0.31908 0.0624 0.0
H874 H 0.42391 0.25438 0.0704 0.0
H875 H 0.40866 0.22193 0.05643 0.0
H876 H 0.34941 0.22705 0.98367 0.0
H877 H 0.32919 0.20835 0.96863 0.0
H878 H 0.4287 0.20444 0.96345 0.0
H879 H 0.44833 0.22213 0.97854 0.0
Sm880 Sm 0.79137 0.21814 0.02729 0.0
Sm881 Sm 0.78322 0.201 1.00661 0.0
C882 C 0.79614 0.24544 0.04317 0.0
C883 C 0.77833 0.23359 0.05187 0.0
C884 C 0.77067 0.25747 0.05671 0.0
C885 C 0.75471 0.24743 0.06503 0.0
C886 C 0.74607 0.21321 0.06877 0.0
C887 C 0.75343 0.18912 0.06384 0.0
C888 C 0.76932 0.19916 0.05549 0.0
C889 C 0.76391 0.14267 0.02405 0.0
C890 C 0.71179 0.19015 0.01746 0.0
C891 C 0.77843 0.17168 0.99094 0.0
C892 C 0.79481 0.17346 0.98223 0.0
C893 C 0.79633 0.14257 0.9792 0.0
C894 C 0.80567 0.14062 0.97051 0.0
C895 C 0.81358 0.16948 0.9646 0.0
C896 C 0.81379 0.20122 0.96775 0.0
C897 C 0.80442 0.20316 0.97646 0.0
C898 C 0.79359 0.26934 1.01114 0.0
C899 C 0.86728 0.24195 0.01564 0.0
O900 O 0.77636 0.24839 0.03691 0.0
O901 O 0.81653 0.2316 0.0405 0.0
O902 O 0.77234 0.16847 0.01874 0.0
O903 O 0.7712 0.15706 0.0318 0.0
O904 O 0.73462 0.21092 0.02371 0.0
O905 O 0.72264 0.17645 1.01105 0.0
O906 O 0.79132 0.16299 0.99779 0.0
O907 O 0.76729 0.19519 0.99267 0.0
O908 O 0.80862 0.25321 1.01491 0.0
O909 O 0.77558 0.25089 1.00426 0.0
O910 O 0.84653 0.22591 1.00863 0.0
O911 O 0.85284 0.24383 0.02323 0.0
H912 H 0.77718 0.28407 0.05404 0.0
H913 H 0.74888 0.26646 0.06852 0.0
H914 H 0.74756 0.16272 0.0665 0.0
H915 H 0.7748 0.1801 0.0519 0.0
H916 H 0.78886 0.11921 0.98348 0.0
H917 H 0.80587 0.11604 0.96837 0.0
H918 H 0.8195 0.22388 0.96339 0.0
H919 H 0.80332 0.2273 0.97858 0.0
Sm920 Sm 0.80579 0.58028 0.02712 0.0
Sm921 Sm 0.8199 0.58616 1.00635 0.0
C922 C 0.78101 0.55897 0.04326 0.0
C923 C 0.79371 0.5521 0.05181 0.0
C924 C 0.78359 0.51588 0.05435 0.0
C925 C 0.79406 0.50885 0.0625 0.0
C926 C 0.81476 0.5378 0.06841 0.0
C927 C 0.82489 0.57405 0.06587 0.0
C928 C 0.81449 0.58111 0.05769 0.0
C929 C 0.8806 0.62813 0.02332 0.0
C930 C 0.83146 0.52627 0.0173 0.0
C931 C 0.84477 0.60589 0.99013 0.0
C932 C 0.84544 0.6238 0.98172 0.0
C933 C 0.87915 0.64381 0.97728 0.0
C934 C 0.8803 0.65617 0.96872 0.0
C935 C 0.84765 0.64882 0.96436 0.0
C936 C 0.81398 0.62998 0.96897 0.0
C937 C 0.81286 0.61754 0.97755 0.0
C938 C 0.75342 0.52853 1.01189 0.0
C939 C 0.78104 0.63125 0.01543 0.0
O940 O 0.77546 0.53576 0.03689 0.0
O941 O 0.79555 0.5933 0.04057 0.0
O942 O 0.85439 0.61006 0.01814 0.0
O943 O 0.86703 0.62193 0.03115 0.0
O944 O 0.81288 0.53029 0.02381 0.0
O945 O 0.84371 0.54932 1.01057 0.0
O946 O 0.8619 0.62637 0.99694 0.0
O947 O 0.8148 0.57499 0.99214 0.0
O948 O 0.76907 0.56082 1.01507 0.0
O949 O 0.77177 0.52659 1.00525 0.0
O950 O 0.79666 0.62603 1.0084 0.0
O951 O 0.77951 0.6154 0.02307 0.0
H952 H 0.76714 0.49278 0.05005 0.0
H953 H 0.78519 0.48052 0.06426 0.0
H954 H 0.84111 0.59712 0.07019 0.0
H955 H 0.82259 0.60933 0.05602 0.0
H956 H 0.90459 0.64858 0.98031 0.0
H957 H 0.90669 0.67007 0.96539 0.0
H958 H 0.78834 0.62431 0.9659 0.0
H959 H 0.78642 0.6021 0.98082 0.0
Sm960 Sm 0.45003 0.92177 0.84009 0.0
Sm961 Sm 0.45736 0.9162 0.85943 0.0
C962 C 0.44684 0.94423 0.824 0.0
C963 C 0.46433 0.95874 0.81534 0.0
C964 C 0.46947 0.99285 0.81242 0.0
C965 C 0.47977 1.00429 0.80375 0.0
C966 C 0.485 0.98179 0.79775 0.0
C967 C 0.48144 0.94836 0.80079 0.0
C968 C 0.47116 0.93693 0.80947 0.0
C969 C 0.4621 0.86491 0.84438 0.0
C970 C 0.53399 0.96649 0.84891 0.0
C971 C 0.45606 0.89749 0.87614 0.0
C972 C 0.43434 0.88716 0.88437 0.0
C973 C 0.43264 0.85848 0.88948 0.0
C974 C 0.41512 0.84988 0.89764 0.0
C975 C 0.39884 0.86982 0.90094 0.0
C976 C 0.39971 0.89799 0.89569 0.0
C977 C 0.41734 0.90662 0.8875 0.0
C978 C 0.43787 0.96833 0.85442 0.0
C979 C 0.37764 0.85992 0.85009 0.0
O980 O 0.45748 0.96636 0.83078 0.0
O981 O 0.43703 0.91013 0.82602 0.0
O982 O 0.47804 0.8963 0.84808 0.0
O983 O 0.44183 0.8643 0.8379 0.0
O984 O 0.51272 0.96392 0.84221 0.0
O985 O 0.51945 0.94733 0.85613 0.0
O986 O 0.44417 0.87354 0.86975 0.0
O987 O 0.47066 0.93159 0.8734 0.0
O988 O 0.42509 0.93635 0.85134 0.0
O989 O 0.46137 0.97359 0.86054 0.0
O990 O 0.40004 0.86519 0.85669 0.0
O991 O 0.3888 0.88277 0.84336 0.0
H992 H 0.46412 0.01012 0.81675 0.0
H993 H 0.48288 0.0305 0.80171 0.0
H994 H 0.4849 0.93011 0.79637 0.0
H995 H 0.46714 0.91031 0.81146 0.0
H996 H 0.44551 0.84305 0.88722 0.0
H997 H 0.41444 0.82756 0.90139 0.0
H998 H 0.38771 0.91411 0.89802 0.0
H999 H 0.41825 0.92893 0.88371 0.0
Sm1000 Sm 0.10362 0.53376 0.83953 0.0
Sm1001 Sm 0.10963 0.5452 0.85885 0.0
C1002 C 0.08133 0.50912 0.82338 0.0
C1003 C 0.06675 0.51218 0.81475 0.0
C1004 C 0.03212 0.48369 0.81194 0.0
C1005 C 0.0206 0.48237 0.80328 0.0
C1006 C 0.04355 0.50939 0.79717 0.0
C1007 C 0.07751 0.53885 0.80009 0.0
C1008 C 0.089 0.54018 0.80876 0.0
C1009 C 0.15997 0.60304 0.84396 0.0
C1010 C 0.05923 0.57222 0.84868 0.0
C1011 C 0.12743 0.56037 0.87568 0.0
C1012 C 0.13467 0.54614 0.88395 0.0
C1013 C 0.16986 0.55118 0.88581 0.0
C1014 C 0.17748 0.54129 0.89399 0.0
C1015 C 0.15022 0.52632 0.90056 0.0
C1016 C 0.11484 0.52063 0.89861 0.0
C1017 C 0.10723 0.53051 0.89044 0.0
C1018 C 0.05739 0.47378 0.85368 0.0
C1019 C 0.16647 0.52365 0.84912 0.0
O1020 O 0.05921 0.49696 0.83016 0.0
O1021 O 0.11529 0.53366 0.82542 0.0
O1022 O 0.12877 0.58669 0.84773 0.0
O1023 O 0.16064 0.58421 0.83731 0.0
O1024 O 0.05997 0.55204 0.84209 0.0
O1025 O 0.08038 0.57814 0.8556 0.0
O1026 O 0.1518 0.57083 0.86938 0.0
O1027 O 0.09351 0.54442 0.87277 0.0
O1028 O 0.08934 0.49314 0.85057 0.0
O1029 O 0.0522 0.49179 0.85986 0.0
O1030 O 0.16107 0.53991 0.85589 0.0
O1031 O 0.14358 0.51241 0.84241 0.0
H1032 H 0.01449 0.46153 0.81636 0.0
H1033 H 0.99399 0.45963 0.80133 0.0
H1034 H 0.09611 0.55999 0.79559 0.0
H1035 H 0.11603 0.56237 0.81066 0.0
H1036 H 0.19188 0.56362 0.88103 0.0
H1037 H 0.20517 0.54656 0.89525 0.0
H1038 H 0.09294 0.5087 0.90343 0.0
H1039 H 0.07995 0.52657 0.88928 0.0
Sm1040 Sm 0.49085 0.57118 0.83942 0.0
Sm1041 Sm 0.47885 0.56769 0.86008 0.0
C1042 C 0.52217 0.57864 0.82388 0.0
C1043 C 0.51751 0.56341 0.81487 0.0
C1044 C 0.5343 0.54284 0.81245 0.0
C1045 C 0.53408 0.53248 0.80372 0.0
C1046 C 0.5173 0.54266 0.79715 0.0
C1047 C 0.4997 0.56247 0.79963 0.0
C1048 C 0.49987 0.57276 0.80835 0.0
C1049 C 0.41688 0.54511 0.84298 0.0
C1050 C 0.45285 0.49071 0.84949 0.0
C1051 C 0.46071 0.57004 0.87665 0.0
C1052 C 0.47315 0.59201 0.88482 0.0
C1053 C 0.44769 0.59733 0.88966 0.0
C1054 C 0.45763 0.61579 0.89769 0.0
C1055 C 0.49337 0.6294 0.90112 0.0
C1056 C 0.51906 0.62445 0.8962 0.0
C1057 C 0.50908 0.60601 0.88813 0.0
C1058 C 0.54897 0.58494 0.85444 0.0
C1059 C 0.49793 0.64437 0.84945 0.0
O1060 O 0.52655 0.5607 0.8304 0.0
O1061 O 0.50311 0.59457 0.82604 0.0
O1062 O 0.4427 0.55409 0.84838 0.0
O1063 O 0.42991 0.54879 0.8351 0.0
O1064 O 0.47481 0.51092 0.843 0.0
O1065 O 0.44588 0.5061 0.85625 0.0
O1066 O 0.45055 0.58332 0.87016 0.0
O1067 O 0.47831 0.55319 0.87407 0.0
O1068 O 0.52883 0.59619 0.85109 0.0
O1069 O 0.53278 0.56518 0.8613 0.0
O1070 O 0.48865 0.62587 0.85692 0.0
O1071 O 0.50301 0.63052 0.84214 0.0
H1072 H 0.54849 0.53551 0.81728 0.0
H1073 H 0.54747 0.5168 0.80212 0.0
H1074 H 0.48693 0.57132 0.79477 0.0
H1075 H 0.48712 0.58908 0.80992 0.0
H1076 H 0.41974 0.58655 0.88729 0.0
H1077 H 0.43691 0.61853 0.90133 0.0
H1078 H 0.54695 0.63494 0.89856 0.0
H1079 H 0.52935 0.60239 0.88453 0.0
Sm1080 Sm 0.59094 0.7791 0.02376 0.0
Sm1081 Sm 0.58334 0.78809 1.0032 0.0
C1082 C 0.61493 0.77482 0.03956 0.0
C1083 C 0.62614 0.79152 0.04841 0.0
C1084 C 0.66364 0.81074 0.05078 0.0
C1085 C 0.67422 0.82189 0.05945 0.0
C1086 C 0.64755 0.81384 0.066 0.0
C1087 C 0.61007 0.79562 0.06355 0.0
C1088 C 0.59951 0.78454 0.05489 0.0
C1089 C 0.53384 0.79061 0.01927 0.0
C1090 C 0.63543 0.86362 1.01498 0.0
C1091 C 0.56225 0.79482 0.98729 0.0
C1092 C 0.55655 0.77753 0.97857 0.0
C1093 C 0.53653 0.78434 0.97223 0.0
C1094 C 0.53114 0.76868 0.96388 0.0
C1095 C 0.54568 0.74578 0.96168 0.0
C1096 C 0.56552 0.73876 0.96811 0.0
C1097 C 0.57089 0.75447 0.97647 0.0
C1098 C 0.62972 0.75871 1.00633 0.0
C1099 C 0.52963 0.70857 1.01284 0.0
O1100 O 0.63713 0.79113 0.03293 0.0
O1101 O 0.57997 0.75916 0.03745 0.0
O1102 O 0.56501 0.80543 0.01548 0.0
O1103 O 0.53389 0.77234 0.02615 0.0
O1104 O 0.62832 0.84261 0.02205 0.0
O1105 O 0.62136 0.84948 1.0072 0.0
O1106 O 0.53898 0.77475 0.99345 0.0
O1107 O 0.59645 0.81403 0.99005 0.0
O1108 O 0.61336 0.76796 1.01176 0.0
O1109 O 0.62192 0.76554 0.99861 0.0
O1110 O 0.53247 0.7319 1.00664 0.0
O1111 O 0.55417 0.71872 0.01924 0.0
H1112 H 0.68485 0.81622 0.04599 0.0
H1113 H 0.70336 0.83634 0.06104 0.0
H1114 H 0.58866 0.78847 0.0684 0.0
H1115 H 0.57032 0.76933 0.05335 0.0
H1116 H 0.52504 0.80187 0.97372 0.0
H1117 H 0.51516 0.77423 0.95919 0.0
H1118 H 0.57744 0.7216 0.96665 0.0
H1119 H 0.5864 0.74879 0.98128 0.0
Sm1120 Sm 0.24311 0.81711 0.02334 0.0
Sm1121 Sm 0.23492 0.79949 1.00271 0.0
C1122 C 0.24754 0.84702 0.03894 0.0
C1123 C 0.23181 0.84486 0.04777 0.0
C1124 C 0.22858 0.87479 0.0508 0.0
C1125 C 0.21955 0.87657 0.05954 0.0
C1126 C 0.21364 0.84846 0.0655 0.0
C1127 C 0.21526 0.81763 0.06236 0.0
C1128 C 0.22436 0.81589 0.05361 0.0
C1129 C 0.23182 0.74834 0.01908 0.0
C1130 C 0.15914 0.77678 1.01431 0.0
C1131 C 0.22923 0.77153 0.98685 0.0
C1132 C 0.24726 0.78318 0.97818 0.0
C1133 C 0.24426 0.75635 0.97223 0.0
C1134 C 0.26087 0.76661 0.96397 0.0
C1135 C 0.28094 0.80405 0.96145 0.0
C1136 C 0.28389 0.83092 0.96747 0.0
C1137 C 0.26731 0.8206 0.97575 0.0
C1138 C 0.26375 0.87525 1.00573 0.0
C1139 C 0.31403 0.82609 1.0126 0.0
O1140 O 0.23246 0.85346 0.03216 0.0
O1141 O 0.26095 0.8254 0.03719 0.0
O1142 O 0.21722 0.76457 1.01514 0.0
O1143 O 0.24968 0.76687 0.02597 0.0
O1144 O 0.17983 0.79123 0.0214 0.0
O1145 O 0.1735 0.77611 1.00661 0.0
O1146 O 0.24868 0.76816 0.99313 0.0
O1147 O 0.20983 0.7865 0.98948 0.0
O1148 O 0.25444 0.84963 1.01117 0.0
O1149 O 0.2573 0.8606 0.99802 0.0
O1150 O 0.29103 0.80542 1.00637 0.0
O1151 O 0.30362 0.84049 0.01894 0.0
H1152 H 0.23438 0.8976 0.04647 0.0
H1153 H 0.21792 0.90041 0.06166 0.0
H1154 H 0.21113 0.79557 0.06676 0.0
H1155 H 0.22683 0.79251 0.05149 0.0
H1156 H 0.22887 0.72732 0.97395 0.0
H1157 H 0.2575 0.74507 0.9595 0.0
H1158 H 0.29947 0.86001 0.96583 0.0
H1159 H 0.27019 0.84184 0.98026 0.0
Sm1160 Sm 0.2051 0.43015 0.02371 0.0
Sm1161 Sm 0.22187 0.43962 1.00307 0.0
C1162 C 0.17573 0.40513 0.0394 0.0
C1163 C 0.17939 0.39283 0.04826 0.0
C1164 C 0.1499 0.36027 0.05171 0.0
C1165 C 0.14994 0.35061 0.06048 0.0
C1166 C 0.17949 0.3734 0.06604 0.0
C1167 C 0.20969 0.40537 0.06248 0.0
C1168 C 0.20964 0.41499 0.05369 0.0
C1169 C 0.27409 0.48733 0.01934 0.0
C1170 C 0.24404 0.38564 1.01448 0.0
C1171 C 0.249 0.46152 0.98712 0.0
C1172 C 0.23711 0.46746 0.97842 0.0
C1173 C 0.26186 0.4977 0.97331 0.0
C1174 C 0.25175 0.50344 0.96497 0.0
C1175 C 0.21656 0.47899 0.96151 0.0
C1176 C 0.19163 0.44888 0.96671 0.0
C1177 C 0.20176 0.44321 0.97507 0.0
C1178 C 0.14601 0.39334 1.00624 0.0
C1179 C 0.19661 0.4927 1.01307 0.0
O1180 O 0.16986 0.38327 0.03272 0.0
O1181 O 0.19624 0.4402 0.03747 0.0
O1182 O 0.25738 0.45658 0.01538 0.0
O1183 O 0.25603 0.48659 0.02633 0.0
O1184 O 0.22952 0.3915 0.02161 0.0
O1185 O 0.24518 0.4015 1.00687 0.0
O1186 O 0.25253 0.48457 0.99335 0.0
O1187 O 0.23466 0.42728 0.98984 0.0
O1188 O 0.17184 0.40923 1.01164 0.0
O1189 O 0.16049 0.40152 0.99851 0.0
O1190 O 0.21716 0.49033 1.00683 0.0
O1191 O 0.18209 0.46774 0.01941 0.0
H1192 H 0.12605 0.34292 0.0477 0.0
H1193 H 0.12601 0.32604 0.06298 0.0
H1194 H 0.23319 0.4233 0.06651 0.0
H1195 H 0.23281 0.44032 0.05123 0.0
H1196 H 0.2892 0.5169 0.97576 0.0
H1197 H 0.27151 0.52731 0.96127 0.0
H1198 H 0.16445 0.42921 0.96427 0.0
H1199 H 0.18203 0.41968 0.97887 0.0
Sm1200 Sm 0.23708 0.43872 0.50401 0.0
Sm1201 Sm 0.24068 0.42858 0.52464 0.0
C1202 C 0.23773 0.45989 0.48759 0.0
C1203 C 0.25769 0.46762 0.47918 0.0
C1204 C 0.25605 0.49263 0.47335 0.0
C1205 C 0.27308 0.49938 0.46516 0.0
C1206 C 0.29225 0.48126 0.46258 0.0
C1207 C 0.2941 0.45633 0.46848 0.0
C1208 C 0.27702 0.44961 0.47671 0.0
C1209 C 0.25511 0.38601 0.50918 0.0
C1210 C 0.31313 0.49691 0.51478 0.0
C1211 C 0.24908 0.4036 0.53991 0.0
C1212 C 0.23418 0.39107 0.54885 0.0
C1213 C 0.23108 0.35822 0.55208 0.0
C1214 C 0.22197 0.34805 0.56085 0.0
C1215 C 0.21584 0.37059 0.56664 0.0
C1216 C 0.21753 0.40282 0.5633 0.0
C1217 C 0.22667 0.41299 0.55451 0.0
C1218 C 0.21353 0.47572 0.52135 0.0
C1219 C 0.16032 0.38605 0.51463 0.0
O1220 O 0.25409 0.48315 0.494 0.0
O1221 O 0.21932 0.42546 0.49018 0.0
O1222 O 0.26591 0.41691 0.51277 0.0
O1223 O 0.23569 0.38308 0.50231 0.0
O1224 O 0.29494 0.48774 0.50727 0.0
O1225 O 0.29937 0.47741 0.52205 0.0
O1226 O 0.23191 0.38174 0.53328 0.0
O1227 O 0.26329 0.43878 0.53807 0.0
O1228 O 0.22298 0.45951 0.5159 0.0
O1229 O 0.21718 0.466 0.5292 0.0
O1230 O 0.18062 0.38402 0.52105 0.0
O1231 O 0.17559 0.40926 0.508 0.0
H1232 H 0.24108 0.50664 0.4751 0.0
H1233 H 0.2705 0.51828 0.46077 0.0
H1234 H 0.30896 0.4422 0.46677 0.0
H1235 H 0.2787 0.43021 0.48111 0.0
H1236 H 0.23685 0.34087 0.54787 0.0
H1237 H 0.22026 0.32271 0.56311 0.0
H1238 H 0.21327 0.42103 0.56756 0.0
H1239 H 0.22896 0.43858 0.55223 0.0
Sm1240 Sm 0.58194 0.80294 0.50235 0.0
Sm1241 Sm 0.59493 0.82117 0.52384 0.0
C1242 C 0.55843 0.77425 0.48661 0.0
C1243 C 0.55283 0.78564 0.47786 0.0
C1244 C 0.53553 0.75892 0.47133 0.0
C1245 C 0.52936 0.76888 0.46303 0.0
C1246 C 0.54041 0.80592 0.46106 0.0
C1247 C 0.55782 0.83269 0.46766 0.0
C1248 C 0.56395 0.82263 0.47598 0.0
C1249 C 0.63114 0.87764 0.50599 0.0
C1250 C 0.52842 0.82627 0.51326 0.0
C1251 C 0.62118 0.85678 0.53878 0.0
C1252 C 0.63162 0.85329 0.54784 0.0
C1253 C 0.66414 0.88225 0.55142 0.0
C1254 C 0.67291 0.88163 0.56023 0.0
C1255 C 0.64923 0.85202 0.56569 0.0
C1256 C 0.61709 0.8225 0.56202 0.0
C1257 C 0.60839 0.8231 0.55319 0.0
C1258 C 0.54377 0.74769 0.52053 0.0
C1259 C 0.63591 0.78077 0.51395 0.0
O1260 O 0.53637 0.77326 0.49283 0.0
O1261 O 0.59271 0.78774 0.4892 0.0
O1262 O 0.61363 0.85125 0.51117 0.0
O1263 O 0.62305 0.86431 0.49813 0.0
O1264 O 0.53288 0.8102 0.50627 0.0
O1265 O 0.55134 0.83739 0.52005 0.0
O1266 O 0.64263 0.85786 0.53238 0.0
O1267 O 0.58591 0.83867 0.5368 0.0
O1268 O 0.56161 0.77323 0.5151 0.0
O1269 O 0.55392 0.76093 0.5284 0.0
O1270 O 0.63563 0.80041 0.52076 0.0
O1271 O 0.6159 0.77569 0.50677 0.0
H1272 H 0.52652 0.73018 0.47267 0.0
H1273 H 0.51534 0.74737 0.4582 0.0
H1274 H 0.56707 0.8615 0.46638 0.0
H1275 H 0.57734 0.8437 0.48094 0.0
H1276 H 0.68234 0.90597 0.54745 0.0
H1277 H 0.69765 0.90504 0.56283 0.0
H1278 H 0.59848 0.799 0.56599 0.0
H1279 H 0.58314 0.80029 0.5506 0.0
Sm1280 Sm 0.21656 0.78365 0.50516 0.0
Sm1281 Sm 0.20376 0.77809 0.52449 0.0
C1282 C 0.23335 0.78123 0.48846 0.0
C1283 C 0.21897 0.75966 0.48024 0.0
C1284 C 0.22538 0.73051 0.47824 0.0
C1285 C 0.21492 0.71263 0.47012 0.0
C1286 C 0.19799 0.72359 0.46376 0.0
C1287 C 0.19102 0.75232 0.46583 0.0
C1288 C 0.20146 0.77016 0.47394 0.0
C1289 C 0.14506 0.76504 0.50992 0.0
C1290 C 0.19302 0.7048 0.51496 0.0
C1291 C 0.17846 0.7755 0.54057 0.0
C1292 C 0.18134 0.7937 0.54906 0.0
C1293 C 0.14875 0.78625 0.55338 0.0
C1294 C 0.14977 0.79818 0.56198 0.0
C1295 C 0.18352 0.81794 0.56648 0.0
C1296 C 0.21636 0.8266 0.562 0.0
C1297 C 0.21529 0.81455 0.55339 0.0
C1298 C 0.27291 0.79048 0.52019 0.0
C1299 C 0.24206 0.86084 0.51526 0.0
O1300 O 0.2428 0.76681 0.49485 0.0
O1301 O 0.21793 0.79985 0.49126 0.0
O1302 O 0.1639 0.75236 0.51328 0.0
O1303 O 0.16358 0.78776 0.50368 0.0
O1304 O 0.20997 0.72644 0.50821 0.0
O1305 O 0.18172 0.71667 0.52161 0.0
O1306 O 0.16597 0.78475 0.53374 0.0
O1307 O 0.20388 0.7672 0.53864 0.0
O1308 O 0.25708 0.80581 0.51643 0.0
O1309 O 0.25361 0.77067 0.52677 0.0
O1310 O 0.22221 0.84 0.52191 0.0
O1311 O 0.24834 0.84575 0.50837 0.0
H1312 H 0.23929 0.72201 0.48286 0.0
H1313 H 0.22121 0.69099 0.46873 0.0
H1314 H 0.17761 0.76121 0.46116 0.0
H1315 H 0.19639 0.79273 0.47521 0.0
H1316 H 0.1222 0.76983 0.55023 0.0
H1317 H 0.12385 0.79045 0.5652 0.0
H1318 H 0.24291 0.84223 0.56519 0.0
H1319 H 0.24088 0.82065 0.55021 0.0
Sm1320 Sm 0.11032 0.56582 0.36158 0.0
Sm1321 Sm 0.09763 0.57095 0.34002 0.0
C1322 C 0.13344 0.56089 0.37736 0.0
C1323 C 0.13838 0.5776 0.38614 0.0
C1324 C 0.16935 0.58465 0.39113 0.0
C1325 C 0.17461 0.60007 0.39949 0.0
C1326 C 0.14891 0.60878 0.4031 0.0
C1327 C 0.11796 0.60193 0.39803 0.0
C1328 C 0.11279 0.58656 0.38964 0.0
C1329 C 0.06144 0.59143 0.35781 0.0
C1330 C 0.16517 0.64228 0.35056 0.0
C1331 C 0.07186 0.58123 0.32509 0.0
C1332 C 0.05992 0.56721 0.31612 0.0
C1333 C 0.0363 0.57648 0.31172 0.0
C1334 C 0.02683 0.56644 0.30297 0.0
C1335 C 0.04072 0.54676 0.29839 0.0
C1336 C 0.06387 0.53683 0.30291 0.0
C1337 C 0.07338 0.54697 0.31169 0.0
C1338 C 0.14765 0.54753 0.34353 0.0
C1339 C 0.05593 0.48961 0.35 0.0
O1340 O 0.15574 0.58223 0.3712 0.0
O1341 O 0.09944 0.53929 0.37464 0.0
O1342 O 0.07926 0.58283 0.35267 0.0
O1343 O 0.06919 0.58603 0.3657 0.0
O1344 O 0.16001 0.62178 0.35761 0.0
O1345 O 0.14249 0.63063 0.34372 0.0
O1346 O 0.0503 0.56201 0.33161 0.0
O1347 O 0.10718 0.59614 0.32685 0.0
O1348 O 0.13014 0.55596 0.34886 0.0
O1349 O 0.13775 0.55035 0.33562 0.0
O1350 O 0.0564 0.50948 0.34315 0.0
O1351 O 0.07603 0.50459 0.35717 0.0
H1352 H 0.18959 0.5782 0.38855 0.0
H1353 H 0.19911 0.60554 0.4031 0.0
H1354 H 0.09738 0.60789 0.4006 0.0
H1355 H 0.0887 0.58155 0.38592 0.0
H1356 H 0.02584 0.59235 0.31499 0.0
H1357 H 1.00948 0.57517 0.29972 0.0
H1358 H 0.07473 0.52129 0.29966 0.0
H1359 H 0.09167 0.53951 0.31496 0.0
Sm1360 Sm 0.45494 0.54673 0.35935 0.0
Sm1361 Sm 0.44935 0.53637 0.33986 0.0
C1362 C 0.45461 0.56368 0.3761 0.0
C1363 C 0.43397 0.55196 0.38445 0.0
C1364 C 0.43311 0.5788 0.38977 0.0
C1365 C 0.41697 0.56962 0.39808 0.0
C1366 C 0.4013 0.53327 0.40129 0.0
C1367 C 0.40117 0.50608 0.39583 0.0
C1368 C 0.41743 0.51535 0.3875 0.0
C1369 C 0.43488 0.47552 0.35403 0.0
C1370 C 0.37673 0.5265 0.3497 0.0
C1371 C 0.44596 0.51258 0.32358 0.0
C1372 C 0.46303 0.5172 0.3148 0.0
C1373 C 0.48754 0.50425 0.31299 0.0
C1374 C 0.49874 0.50358 0.30437 0.0
C1375 C 0.48552 0.51559 0.29736 0.0
C1376 C 0.46197 0.52964 0.29926 0.0
C1377 C 0.45084 0.53035 0.30784 0.0
C1378 C 0.46487 0.60598 0.3448 0.0
C1379 C 0.5318 0.5712 0.34906 0.0
O1380 O 0.44153 0.5752 0.36986 0.0
O1381 O 0.46955 0.54476 0.3732 0.0
O1382 O 0.42282 0.49528 0.35087 0.0
O1383 O 0.45754 0.49287 0.36036 0.0
O1384 O 0.3983 0.5419 0.35654 0.0
O1385 O 0.38827 0.51569 0.34289 0.0
O1386 O 0.4578 0.50132 0.33018 0.0
O1387 O 0.43509 0.53572 0.32588 0.0
O1388 O 0.47847 0.58813 0.34832 0.0
O1389 O 0.44642 0.58927 0.33785 0.0
O1390 O 0.5108 0.55266 0.34231 0.0
O1391 O 0.51704 0.57704 0.35608 0.0
H1392 H 0.44566 0.6072 0.38757 0.0
H1393 H 0.41697 0.59113 0.40201 0.0
H1394 H 0.38954 0.47788 0.3981 0.0
H1395 H 0.41775 0.49408 0.38353 0.0
H1396 H 0.49721 0.49358 0.31817 0.0
H1397 H 0.51729 0.49302 0.30319 0.0
H1398 H 0.45066 0.53857 0.29406 0.0
H1399 H 0.4314 0.53985 0.30898 0.0
Sm1400 Sm 0.47147 0.91057 0.36038 0.0
Sm1401 Sm 0.48964 0.92232 0.33969 0.0
C1402 C 0.44365 0.88592 0.37613 0.0
C1403 C 0.45569 0.87886 0.38466 0.0
C1404 C 0.43121 0.84769 0.38955 0.0
C1405 C 0.44175 0.84051 0.39768 0.0
C1406 C 0.47708 0.86444 0.40113 0.0
C1407 C 0.50163 0.89568 0.39619 0.0
C1408 C 0.49111 0.90274 0.38804 0.0
C1409 C 0.54692 0.95936 0.35735 0.0
C1410 C 0.50042 0.86084 0.35012 0.0
C1411 C 0.51898 0.94854 0.32409 0.0
C1412 C 0.51476 0.96134 0.31535 0.0
C1413 C 0.54309 0.99522 0.31214 0.0
C1414 C 0.54302 1.00541 0.30342 0.0
C1415 C 0.51466 0.98184 0.29767 0.0
C1416 C 0.48535 0.94866 0.30102 0.0
C1417 C 0.48542 0.93848 0.30975 0.0
C1418 C 0.42103 0.86383 0.34388 0.0
C1419 C 0.4486 0.96421 0.34918 0.0
O1420 O 0.44064 0.86398 0.36966 0.0
O1421 O 0.45768 0.92055 0.37372 0.0
O1422 O 0.52141 0.94241 0.35195 0.0
O1423 O 0.53221 0.95145 0.36507 0.0
O1424 O 0.47954 0.86202 0.35645 0.0
O1425 O 0.51408 0.88592 0.34381 0.0
O1426 O 0.52499 0.96991 0.33088 0.0
O1427 O 0.49867 0.91332 0.32589 0.0
O1428 O 0.43722 0.89441 0.3479 0.0
O1429 O 0.43933 0.86542 0.33687 0.0
O1430 O 0.46556 0.96113 0.34215 0.0
O1431 O 0.44549 0.94616 0.35657 0.0
H1432 H 0.40376 0.8289 0.38709 0.0
H1433 H 0.42195 0.81646 0.40132 0.0
H1434 H 0.52919 0.91445 0.39858 0.0
H1435 H 0.51068 0.92685 0.38437 0.0
H1436 H 0.5661 0.01327 0.31629 0.0
H1437 H 0.56568 0.03148 0.30114 0.0
H1438 H 0.46318 0.92967 0.29679 0.0
H1439 H 0.46322 0.91207 0.31201 0.0
H1440 H 0.18471 0.18886 0.16701 0.0
H1441 H 0.12176 0.16219 0.19088 0.0
H1442 H 0.19324 0.13599 0.16901 0.0
H1443 H 0.12793 0.1074 0.19269 0.0
H1444 H 0.1608 0.02003 0.19657 0.0
H1445 H 0.16169 0.07869 0.19574 0.0
H1446 H 0.1629 0.0734 0.16752 0.0
H1447 H 0.16416 0.01614 0.16842 0.0
C1448 C 0.17275 0.17158 0.17272 0.0
C1449 C 0.15266 0.17969 0.17879 0.0
C1450 C 0.17718 0.14081 0.17383 0.0
C1451 C 0.16071 0.11646 0.18093 0.0
C1452 C 0.14147 0.1254 0.18717 0.0
C1453 C 0.1378 0.15685 0.18615 0.0
C1454 C 0.16172 0.0317 0.19019 0.0
C1455 C 0.16264 0.01336 0.18256 0.0
C1456 C 0.16188 0.06532 0.1897 0.0
C1457 C 0.16233 0.08134 0.18156 0.0
C1458 C 0.16347 0.06288 0.17394 0.0
C1459 C 0.16399 0.02967 0.17444 0.0
H1460 H 0.03311 0.12885 0.19324 0.0
H1461 H 0.98926 0.1717 0.17383 0.0
H1462 H 0.97728 0.06859 0.19231 0.0
H1463 H 0.93255 0.11081 0.1731 0.0
H1464 H 0.8256 0.99563 0.18507 0.0
H1465 H 0.87776 0.05924 0.1869 0.0
H1466 H 0.9519 0.02591 0.17616 0.0
H1467 H 0.90011 0.96319 0.17408 0.0
C1468 C 1.01133 0.1257 0.18888 0.0
C1469 C 0.01579 0.1553 0.1836 0.0
C1470 C 0.97936 0.09108 0.18836 0.0
C1471 C 0.95063 0.08522 0.18269 0.0
C1472 C 0.95427 0.11486 0.17759 0.0
C1473 C 0.98676 0.14956 0.17798 0.0
C1474 C 0.85312 1.00199 0.18317 0.0
C1475 C 0.85893 0.97458 0.17945 0.0
C1476 C 0.88277 0.0383 0.18414 0.0
C1477 C 0.91867 0.04734 0.18161 0.0
C1478 C 0.92446 0.01963 0.17812 0.0
C1479 C 0.89487 0.98379 0.17696 0.0
H1480 H 0.02066 0.83699 0.16699 0.0
H1481 H 0.05708 0.90437 0.19017 0.0
H1482 H 0.95824 0.82543 0.16923 0.0
H1483 H 0.99515 0.89538 0.19216 0.0
H1484 H 0.87563 0.86094 0.19659 0.0
H1485 H 0.93379 0.86096 0.19567 0.0
H1486 H 0.9226 0.85162 0.16754 0.0
H1487 H 0.86351 0.84912 0.1686 0.0
C1488 C 0.01515 0.84933 0.1726 0.0
C1489 C 0.04365 0.87152 0.17841 0.0
C1490 C 0.97934 0.84313 0.17384 0.0
C1491 C 0.97115 0.85995 0.18079 0.0
C1492 C 0.99975 0.88141 0.18678 0.0
C1493 C 0.03547 0.88676 0.18565 0.0
C1494 C 0.88539 0.85822 0.19023 0.0
C1495 C 0.86477 0.85477 0.18267 0.0
C1496 C 0.9191 0.85867 0.18968 0.0
C1497 C 0.93364 0.85655 0.18152 0.0
C1498 C 0.91244 0.85248 0.17398 0.0
C1499 C 0.87836 0.85119 0.17457 0.0
H1500 H 0.19301 0.16243 0.33908 0.0
H1501 H 0.14436 0.10973 0.36367 0.0
H1502 H 0.14301 0.17669 0.33704 0.0
H1503 H 0.09535 0.12412 0.36169 0.0
H1504 H 0.03249 0.18447 0.36045 0.0
H1505 H 0.08852 0.18043 0.36133 0.0
H1506 H 0.07198 0.14011 0.33482 0.0
H1507 H 0.01567 0.14411 0.3339 0.0
C1508 C 0.17185 0.15412 0.34405 0.0
C1509 C 0.17271 0.13511 0.35155 0.0
C1510 C 0.14324 0.16216 0.34288 0.0
C1511 C 0.11545 0.15189 0.34926 0.0
C1512 C 0.11662 0.13302 0.35673 0.0
C1513 C 0.14468 0.12457 0.35783 0.0
C1514 C 0.04101 0.17533 0.35474 0.0
C1515 C 0.01927 0.1643 0.34713 0.0
C1516 C 0.07309 0.17286 0.35527 0.0
C1517 C 0.08448 0.15956 0.34818 0.0
C1518 C 0.06402 0.15059 0.34038 0.0
C1519 C 0.03166 0.15276 0.33988 0.0
H1520 H 0.82317 0.8468 0.35627 0.0
H1521 H 0.9044 0.88516 0.33557 0.0
H1522 H 0.8279 0.90781 0.35668 0.0
H1523 H 0.90954 0.94581 0.33617 0.0
H1524 H 0.94605 0.05511 0.35305 0.0
H1525 H 0.93373 0.99212 0.3507 0.0
H1526 H 0.82018 0.95683 0.34455 0.0
H1527 H 0.83291 0.02071 0.34662 0.0
C1528 C 0.84162 0.86797 0.35175 0.0
C1529 C 0.86342 0.86102 0.3459 0.0
C1530 C 0.84417 0.90277 0.35196 0.0
C1531 C 0.86907 0.9314 0.34645 0.0
C1532 C 0.89009 0.92417 0.34047 0.0
C1533 C 0.88704 0.88934 0.34013 0.0
C1534 C 0.91854 0.03401 0.3511 0.0
C1535 C 0.89046 0.04272 0.34999 0.0
C1536 C 0.91153 0.99803 0.34975 0.0
C1537 C 0.87601 0.96968 0.34748 0.0
C1538 C 0.84777 0.97826 0.34633 0.0
C1539 C 0.85509 0.0147 0.34745 0.0
H1540 H 1.00046 0.82639 0.36088 0.0
H1541 H 0.96959 0.8698 0.33898 0.0
H1542 H 0.06463 0.87616 0.35944 0.0
H1543 H 0.03316 0.92068 0.33769 0.0
H1544 H 0.15375 0.99929 0.33379 0.0
H1545 H 0.09482 0.94173 0.33409 0.0
H1546 H 0.10099 0.93939 0.36227 0.0
H1547 H 0.16073 0.99605 0.36189 0.0
C1548 C 1.00772 0.84645 0.35568 0.0
C1549 C 0.9805 0.84422 0.34996 0.0
C1550 C 0.04435 0.87526 0.3549 0.0
C1551 C 0.05439 0.90288 0.34849 0.0
C1552 C 0.02693 0.89978 0.34262 0.0
C1553 C 0.99041 0.8707 0.34335 0.0
C1554 C 0.14276 0.98615 0.34004 0.0
C1555 C 0.16194 1.00234 0.34783 0.0
C1556 C 0.10871 0.95322 0.34022 0.0
C1557 C 0.09258 0.93582 0.34821 0.0
C1558 C 0.11252 0.95146 0.35597 0.0
C1559 C 0.14685 0.98415 0.35577 0.0
H1560 H 0.92234 0.88014 0.86309 0.0
H1561 H 0.86185 0.82841 0.83951 0.0
H1562 H 0.90826 0.92945 0.86141 0.0
H1563 H 0.84766 0.87858 0.83778 0.0
H1564 H 0.87604 1.00296 0.83376 0.0
H1565 H 0.88097 0.94735 0.83479 0.0
H1566 H 0.85468 0.93903 0.86227 0.0
H1567 H 0.84996 0.99475 0.86129 0.0
C1568 C 0.90588 0.87922 0.85753 0.0
C1569 C 0.89306 0.85017 0.85146 0.0
C1570 C 0.89755 0.90747 0.85661 0.0
C1571 C 0.8764 0.90783 0.84953 0.0
C1572 C 0.86399 0.87909 0.84332 0.0
C1573 C 0.87204 0.85037 0.84431 0.0
C1574 C 0.87079 0.98905 0.84001 0.0
C1575 C 0.86292 1.00372 0.84747 0.0
C1576 C 0.87345 0.95698 0.84058 0.0
C1577 C 0.86864 0.9389 0.84862 0.0
C1578 C 0.8591 0.95258 0.85599 0.0
C1579 C 0.85615 0.98446 0.85541 0.0
H1580 H 0.19464 0.03431 0.83945 0.0
H1581 H 0.1444 0.03801 0.86379 0.0
H1582 H 0.14602 0.96934 0.83755 0.0
H1583 H 0.09665 0.97387 0.86196 0.0
H1584 H 0.03187 0.85033 0.86052 0.0
H1585 H 0.08825 0.91042 0.86178 0.0
H1586 H 0.07667 0.93474 0.83494 0.0
H1587 H 0.02042 0.87474 0.83365 0.0
C1588 C 0.17345 0.02122 0.8444 0.0
C1589 C 0.17339 0.04128 0.85176 0.0
C1590 C 0.14562 0.98412 0.84332 0.0
C1591 C 0.11764 0.96629 0.84966 0.0
C1592 C 0.11808 0.98643 0.85704 0.0
C1593 C 0.14538 0.02339 0.85805 0.0
C1594 C 0.04172 0.86811 0.85483 0.0
C1595 C 0.02136 0.85775 0.84701 0.0
C1596 C 0.07392 0.90269 0.85557 0.0
C1597 C 0.08676 0.92756 0.84848 0.0
C1598 C 0.06768 0.91624 0.8405 0.0
C1599 C 0.03528 0.88185 0.83979 0.0
H1600 H 1.00416 0.1806 0.8634 0.0
H1601 H 0.96808 0.11268 0.8403 0.0
H1602 H 0.06668 0.19235 0.86121 0.0
H1603 H 0.03017 0.12194 0.83836 0.0
H1604 H 0.15057 0.1575 0.83422 0.0
H1605 H 0.09209 0.15709 0.83493 0.0
H1606 H 0.10097 0.16461 0.86312 0.0
H1607 H 0.16012 0.16736 0.86229 0.0
C1608 C 1.00978 0.16822 0.85782 0.0
C1609 C 0.98137 0.14575 0.85202 0.0
C1610 C 0.04562 0.17453 0.85661 0.0
C1611 C 0.05386 0.15753 0.8497 0.0
C1612 C 0.02541 0.13596 0.84371 0.0
C1613 C 0.98965 0.13047 0.84481 0.0
C1614 C 0.14018 0.15966 0.84055 0.0
C1615 C 0.16017 0.16271 0.8482 0.0
C1616 C 0.10636 0.15904 0.84098 0.0
C1617 C 0.09123 0.16072 0.84909 0.0
C1618 C 0.11169 0.16417 0.85671 0.0
C1619 C 0.14577 0.16555 0.85626 0.0
H1620 H 0.86321 0.90346 0.69001 0.0
H1621 H 0.83386 0.83687 0.66671 0.0
H1622 H 0.91649 0.89514 0.6921 0.0
H1623 H 0.88511 0.82601 0.66905 0.0
H1624 H 1.00402 0.85215 0.6685 0.0
H1625 H 0.94731 0.85418 0.66743 0.0
H1626 H 0.94378 0.86075 0.69561 0.0
H1627 H 1.00218 0.86111 0.69656 0.0
C1628 C 0.86764 0.88615 0.68548 0.0
C1629 C 0.8446 0.87095 0.67818 0.0
C1630 C 0.89819 0.88121 0.68667 0.0
C1631 C 0.9059 0.86024 0.68068 0.0
C1632 C 0.88123 0.84338 0.67366 0.0
C1633 C 0.85142 0.84917 0.67236 0.0
C1634 C 0.99093 0.85358 0.67448 0.0
C1635 C 1.00766 0.85638 0.68261 0.0
C1636 C 0.95804 0.85455 0.67389 0.0
C1637 C 0.94031 0.85752 0.68144 0.0
C1638 C 0.95663 0.85916 0.68961 0.0
C1639 C 0.99004 0.85898 0.69018 0.0
H1640 H 0.11712 0.12967 0.69456 0.0
H1641 H 0.20621 0.17475 0.67573 0.0
H1642 H 0.11312 0.06972 0.69345 0.0
H1643 H 0.20245 0.11419 0.67482 0.0
H1644 H 0.19231 0.99723 0.68553 0.0
H1645 H 0.20441 0.06085 0.68773 0.0
H1646 H 0.09653 0.0289 0.67744 0.0
H1647 H 0.08493 0.96623 0.675 0.0
C1648 C 0.13642 0.12712 0.69031 0.0
C1649 C 0.16198 0.15721 0.68521 0.0
C1650 C 0.13401 0.09265 0.68968 0.0
C1651 C 0.15753 0.08744 0.68408 0.0
C1652 C 0.18422 0.11769 0.67925 0.0
C1653 C 0.18623 0.15223 0.67974 0.0
C1654 C 0.17125 1.00393 0.68378 0.0
C1655 C 0.13769 0.97689 0.68009 0.0
C1656 C 0.17826 0.04024 0.68498 0.0
C1657 C 0.1514 0.04964 0.68272 0.0
C1658 C 0.11767 0.02234 0.67922 0.0
C1659 C 0.11107 0.98653 0.67783 0.0
H1660 H 0.87277 0.01783 0.69699 0.0
H1661 H 0.86861 0.01599 0.6688 0.0
H1662 H 0.93159 0.07549 0.69654 0.0
H1663 H 0.92825 0.07251 0.66829 0.0
H1664 H 0.02727 0.18585 0.6688 0.0
H1665 H 0.96361 0.13551 0.67028 0.0
H1666 H 0.99389 0.0989 0.69369 0.0
H1667 H 0.05698 0.15075 0.69238 0.0
C1668 C 0.88438 0.02981 0.69068 0.0
C1669 C 0.86587 0.01222 0.68293 0.0
C1670 C 0.91842 0.06282 0.69042 0.0
C1671 C 0.93529 0.07893 0.68239 0.0
C1672 C 0.91618 0.06165 0.67463 0.0
C1673 C 0.88184 0.02896 0.67491 0.0
C1674 C 0.01988 0.16741 0.67436 0.0
C1675 C 0.0467 0.17231 0.68054 0.0
C1676 C 0.98349 0.13819 0.67516 0.0
C1677 C 0.97322 0.11248 0.68205 0.0
C1678 C 1.00022 0.11821 0.68837 0.0
C1679 C 0.0365 0.14793 0.68764 0.0
H1680 H 0.8151 0.34595 0.53037 0.0
H1681 H 0.85618 0.36312 0.50386 0.0
H1682 H 0.81137 0.40243 0.52944 0.0
H1683 H 0.85237 0.4193 0.50298 0.0
H1684 H 0.78057 0.47418 0.50061 0.0
H1685 H 0.79563 0.42566 0.5026 0.0
H1686 H 0.84822 0.47384 0.52719 0.0
H1687 H 0.83332 0.52345 0.52513 0.0
C1688 C 0.82398 0.36206 0.5244 0.0
C1689 C 0.83562 0.3497 0.51716 0.0
C1690 C 0.82197 0.39453 0.5239 0.0
C1691 C 0.83121 0.41513 0.51611 0.0
C1692 C 0.84463 0.40379 0.50904 0.0
C1693 C 0.84696 0.3716 0.50956 0.0
C1694 C 0.79559 0.47476 0.50643 0.0
C1695 C 0.8059 0.50281 0.5127 0.0
C1696 C 0.80443 0.44698 0.50754 0.0
C1697 C 0.82344 0.44604 0.515 0.0
C1698 C 0.8336 0.47389 0.52135 0.0
C1699 C 0.82521 0.50229 0.52017 0.0
H1700 H 0.56249 0.2963 0.51045 0.0
H1701 H 0.48327 0.3293 0.51749 0.0
H1702 H 0.61284 0.35974 0.51248 0.0
H1703 H 0.53413 0.39363 0.51926 0.0
H1704 H 0.64971 0.50288 0.5064 0.0
H1705 H 0.59285 0.44216 0.50606 0.0
H1706 H 0.63244 0.40628 0.52782 0.0
H1707 H 0.68843 0.46652 0.52836 0.0
C1708 C 0.55591 0.3172 0.51245 0.0
C1709 C 0.51908 0.30797 0.51383 0.0
C1710 C 0.58468 0.35342 0.5136 0.0
C1711 C 0.57723 0.38144 0.51596 0.0
C1712 C 0.54042 0.37241 0.51739 0.0
C1713 C 0.5115 0.33572 0.51645 0.0
C1714 C 0.64595 0.48229 0.51121 0.0
C1715 C 0.67377 0.48964 0.51738 0.0
C1716 C 0.61338 0.44767 0.51104 0.0
C1717 C 0.60842 0.41975 0.51694 0.0
C1718 C 0.63561 0.42745 0.52324 0.0
C1719 C 0.6677 0.46204 0.52352 0.0
H1720 H 0.51738 0.15226 0.50732 0.0
H1721 H 0.55536 0.23294 0.52812 0.0
H1722 H 0.57844 0.15703 0.50693 0.0
H1723 H 0.61595 0.23809 0.52753 0.0
H1724 H 0.72532 0.27533 0.51059 0.0
H1725 H 0.66206 0.26246 0.51273 0.0
H1726 H 0.62772 0.14957 0.51944 0.0
H1727 H 0.69188 0.16285 0.51757 0.0
C1728 C 0.53845 0.17058 0.51187 0.0
C1729 C 0.53139 0.19222 0.51774 0.0
C1730 C 0.57328 0.17316 0.51167 0.0
C1731 C 0.60176 0.19791 0.51721 0.0
C1732 C 0.59441 0.21875 0.52321 0.0
C1733 C 0.5596 0.21568 0.52353 0.0
C1734 C 0.70437 0.24785 0.51261 0.0
C1735 C 0.71345 0.22012 0.51394 0.0
C1736 C 0.66823 0.24051 0.51383 0.0
C1737 C 0.64009 0.20502 0.51621 0.0
C1738 C 0.649 0.17712 0.51757 0.0
C1739 C 0.6856 0.18476 0.51657 0.0
H1740 H 0.79462 0.40862 0.68606 0.0
H1741 H 0.87273 0.52083 0.67862 0.0
H1742 H 0.74367 0.42055 0.68378 0.0
H1743 H 0.82138 0.53322 0.67662 0.0
H1744 H 0.7102 0.53244 0.68874 0.0
H1745 H 0.76636 0.52745 0.689 0.0
H1746 H 0.71974 0.44269 0.66926 0.0
H1747 H 0.6644 0.44806 0.6688 0.0
C1748 C 0.8008 0.4358 0.68389 0.0
C1749 C 0.8375 0.46376 0.68249 0.0
C1750 C 0.77169 0.44261 0.68259 0.0
C1751 C 0.77867 0.47783 0.68007 0.0
C1752 C 0.81537 0.50588 0.6786 0.0
C1753 C 0.8446 0.49873 0.67967 0.0
C1754 C 0.71225 0.51324 0.68435 0.0
C1755 C 0.68276 0.49069 0.67875 0.0
C1756 C 0.74441 0.51052 0.68448 0.0
C1757 C 0.74728 0.4847 0.67914 0.0
C1758 C 0.71823 0.46286 0.67342 0.0
C1759 C 0.68657 0.46607 0.67316 0.0
H1760 H 0.49043 0.18026 0.6894 0.0
H1761 H 0.5716 0.21886 0.66868 0.0
H1762 H 0.49437 0.24092 0.68969 0.0
H1763 H 0.57592 0.27915 0.66916 0.0
H1764 H 0.61201 0.38858 0.68577 0.0
H1765 H 0.60007 0.32572 0.68347 0.0
H1766 H 0.48597 0.28938 0.67768 0.0
H1767 H 0.4983 0.35315 0.67972 0.0
C1768 C 0.50867 0.20139 0.68484 0.0
C1769 C 0.53073 0.19465 0.67903 0.0
C1770 C 0.51077 0.23599 0.68499 0.0
C1771 C 0.53545 0.2646 0.67944 0.0
C1772 C 0.55665 0.25752 0.67349 0.0
C1773 C 0.55406 0.2229 0.67322 0.0
C1774 C 0.58445 0.36726 0.68392 0.0
C1775 C 0.55608 0.37563 0.68291 0.0
C1776 C 0.57765 0.33136 0.68259 0.0
C1777 C 0.5421 0.30277 0.68043 0.0
C1778 C 0.51358 0.31101 0.67937 0.0
C1779 C 0.52066 0.34738 0.68048 0.0
H1780 H 0.84485 0.31465 0.68889 0.0
H1781 H 0.80423 0.35467 0.66806 0.0
H1782 H 0.78428 0.25762 0.68957 0.0
H1783 H 0.74434 0.29862 0.66893 0.0
H1784 H 0.63634 0.22742 0.68609 0.0
H1785 H 0.6995 0.27789 0.68383 0.0
H1786 H 0.73395 0.19928 0.67741 0.0
H1787 H 0.66983 0.14823 0.67943 0.0
C1788 C 0.82338 0.31116 0.68438 0.0
C1789 C 0.82957 0.33945 0.67844 0.0
C1790 C 0.78881 0.27849 0.68475 0.0
C1791 C 0.75974 0.27385 0.67929 0.0
C1792 C 0.7663 0.3015 0.6732 0.0
C1793 C 0.80078 0.33366 0.67272 0.0
C1794 C 0.65729 0.22086 0.68412 0.0
C1795 C 0.64823 0.18398 0.68291 0.0
C1796 C 0.69339 0.24973 0.68284 0.0
C1797 C 0.72156 0.24243 0.6805 0.0
C1798 C 0.71268 0.20554 0.67926 0.0
C1799 C 0.6761 0.17647 0.68034 0.0
H1800 H 0.5241 0.16373 0.17284 0.0
H1801 H 0.58087 0.21287 0.19699 0.0
H1802 H 0.5105 0.21426 0.17107 0.0
H1803 H 0.5674 0.26259 0.19525 0.0
H1804 H 0.51288 0.33123 0.19428 0.0
H1805 H 0.515 0.27413 0.19547 0.0
H1806 H 0.54611 0.28295 0.1683 0.0
H1807 H 0.54375 0.33987 0.16706 0.0
C1808 C 0.53344 0.18511 0.17778 0.0
C1809 C 0.55346 0.18425 0.18506 0.0
C1810 C 0.52577 0.21406 0.17676 0.0
C1811 C 0.53755 0.24231 0.18307 0.0
C1812 C 0.55727 0.24101 0.19036 0.0
C1813 C 0.56524 0.21255 0.19131 0.0
C1814 C 0.51957 0.32075 0.18852 0.0
C1815 C 0.52849 0.3405 0.1806 0.0
C1816 C 0.521 0.28808 0.18921 0.0
C1817 C 0.53111 0.27413 0.182 0.0
C1818 C 0.53805 0.29276 0.17397 0.0
C1819 C 0.5369 0.3256 0.17328 0.0
H1820 H 0.86082 0.35042 0.19705 0.0
H1821 H 0.83053 0.38808 0.17397 0.0
H1822 H 0.80918 0.28836 0.1948 0.0
H1823 H 0.7769 0.32648 0.17196 0.0
H1824 H 0.69076 0.2067 0.16755 0.0
H1825 H 0.74918 0.26481 0.16843 0.0
H1826 H 0.74704 0.25405 0.19658 0.0
H1827 H 0.69016 0.19513 0.19557 0.0
C1828 C 0.84298 0.34526 0.19146 0.0
C1829 C 0.84968 0.374 0.18568 0.0
C1830 C 0.81293 0.30967 0.19022 0.0
C1831 C 0.7879 0.30197 0.18329 0.0
C1832 C 0.79547 0.33076 0.17733 0.0
C1833 C 0.82624 0.36626 0.17846 0.0
C1834 C 0.70317 0.21659 0.17391 0.0
C1835 C 0.68586 0.19611 0.18149 0.0
C1836 C 0.73661 0.25023 0.17444 0.0
C1837 C 0.75335 0.26477 0.18259 0.0
C1838 C 0.73596 0.24382 0.19015 0.0
C1839 C 0.70299 0.20988 0.18959 0.0
H1840 H 0.81955 0.4927 0.16764 0.0
H1841 H 0.82554 0.49343 0.19579 0.0
H1842 H 0.76142 0.4928 0.16848 0.0
H1843 H 0.76665 0.49139 0.1967 0.0
H1844 H 0.67205 0.51169 0.19726 0.0
H1845 H 0.73388 0.52127 0.19531 0.0
H1846 H 0.69878 0.45769 0.17139 0.0
H1847 H 0.63735 0.45043 0.17316 0.0
C1848 C 0.80846 0.49291 0.17402 0.0
C1849 C 0.82744 0.49328 0.18165 0.0
C1850 C 0.77479 0.49261 0.17451 0.0
C1851 C 0.75874 0.49202 0.18266 0.0
C1852 C 0.7781 0.49272 0.19028 0.0
C1853 C 0.81204 0.49371 0.18978 0.0
C1854 C 0.6778 0.50029 0.19151 0.0
C1855 C 0.64992 0.48034 0.18536 0.0
C1856 C 0.71325 0.50535 0.19043 0.0
C1857 C 0.72171 0.4897 0.18328 0.0
C1858 C 0.69385 0.4706 0.17696 0.0
C1859 C 0.65847 0.46629 0.17795 0.0
H1860 H 0.67598 0.20501 0.03046 0.0
H1861 H 0.66252 0.16597 1.00384 0.0
H1862 H 0.6188 0.20705 0.02931 0.0
H1863 H 0.60534 0.16804 1.00272 0.0
H1864 H 0.54733 0.2376 1.00048 0.0
H1865 H 0.59603 0.22269 1.00231 0.0
H1866 H 0.54869 0.17001 0.02698 0.0
H1867 H 0.49899 0.18479 0.02507 0.0
C1868 C 0.66053 0.19623 0.02441 0.0
C1869 C 0.67414 0.18564 0.01721 0.0
C1870 C 0.6276 0.19723 0.02378 0.0
C1871 C 0.60767 0.18805 0.01591 0.0
C1872 C 0.62028 0.17568 1.00885 0.0
C1873 C 0.65299 0.1743 1.00951 0.0
C1874 C 0.54696 0.22254 1.00628 0.0
C1875 C 0.5192 0.21231 1.01263 0.0
C1876 C 0.57483 0.21375 1.00729 0.0
C1877 C 0.57615 0.19488 1.01475 0.0
C1878 C 0.5484 0.18456 0.02115 0.0
C1879 C 0.51994 0.19289 0.02006 0.0
H1880 H 0.83197 0.31595 0.02486 0.0
H1881 H 0.77528 0.31031 1.00084 0.0
H1882 H 0.84668 0.38042 0.02684 0.0
H1883 H 0.79011 0.37394 1.00275 0.0
H1884 H 0.85117 0.49784 1.00351 0.0
H1885 H 0.84604 0.43721 1.00251 0.0
H1886 H 0.81197 0.41577 0.02952 0.0
H1887 H 0.81705 0.47648 0.03055 0.0
C1888 C 0.82275 0.32844 0.02002 0.0
C1889 C 0.80258 0.30805 1.01269 0.0
C1890 C 0.83111 0.36527 0.02114 0.0
C1891 C 0.81999 0.3825 1.01488 0.0
C1892 C 0.79975 0.36187 1.0076 0.0
C1893 C 0.79101 0.32519 1.00655 0.0
C1894 C 0.84327 0.4806 1.0093 0.0
C1895 C 0.83429 0.49211 0.01709 0.0
C1896 C 0.84008 0.44567 1.00871 0.0
C1897 C 0.82819 0.42144 0.01591 0.0
C1898 C 0.82131 0.43376 0.02386 0.0
C1899 C 0.82412 0.46857 0.02443 0.0
H1900 H 0.52059 0.3697 1.0072 0.0
H1901 H 0.5575 0.32714 0.02826 0.0
H1902 H 0.58173 0.42605 1.00691 0.0
H1903 H 0.61818 0.38262 0.02775 0.0
H1904 H 0.72788 0.45543 1.01044 0.0
H1905 H 0.66469 0.40461 1.01263 0.0
H1906 H 0.63042 0.4825 0.01995 0.0
H1907 H 0.69441 0.5337 0.01804 0.0
C1908 C 0.54144 0.37249 1.01182 0.0
C1909 C 0.53408 0.3438 0.01773 0.0
C1910 C 0.57629 0.40475 1.01167 0.0
C1911 C 0.60448 0.40851 0.01732 0.0
C1912 C 0.59685 0.38036 0.02336 0.0
C1913 C 0.562 0.3486 0.02363 0.0
C1914 C 0.70697 0.46168 1.01263 0.0
C1915 C 0.71595 0.49837 1.01411 0.0
C1916 C 0.67089 0.43266 1.01386 0.0
C1917 C 0.6428 0.43977 0.01639 0.0
C1918 C 0.65168 0.47645 0.01795 0.0
C1919 C 0.68819 0.50557 0.01693 0.0
H1920 H 0.50586 0.85867 0.85706 0.0
H1921 H 0.43865 0.80363 0.83451 0.0
H1922 H 0.51999 0.80838 0.85864 0.0
H1923 H 0.45264 0.75424 0.83604 0.0
H1924 H 0.51011 0.68875 0.83519 0.0
H1925 H 0.50607 0.74477 0.83437 0.0
H1926 H 0.48649 0.73952 0.86216 0.0
H1927 H 0.49078 0.68344 0.86304 0.0
C1928 C 0.49425 0.836 0.85244 0.0
C1929 C 0.47134 0.83526 0.84563 0.0
C1930 C 0.50223 0.80721 0.85335 0.0
C1931 C 0.48782 0.77751 0.84739 0.0
C1932 C 0.46485 0.77698 0.84064 0.0
C1933 C 0.45663 0.8053 0.83979 0.0
C1934 C 0.50548 0.6997 0.84116 0.0
C1935 C 0.5004 0.68118 0.84917 0.0
C1936 C 0.50299 0.7318 0.84068 0.0
C1937 C 0.4955 0.7464 0.84819 0.0
C1938 C 0.49242 0.72911 0.85627 0.0
C1939 C 0.49471 0.6968 0.85675 0.0
H1940 H 0.16743 0.64936 0.85762 0.0
H1941 H 0.2179 0.64511 0.83336 0.0
H1942 H 0.21663 0.71408 0.85959 0.0
H1943 H 0.26619 0.709 0.83526 0.0
H1944 H 0.32904 0.83253 0.83641 0.0
H1945 H 0.2732 0.77214 0.83535 0.0
H1946 H 0.28685 0.74894 0.86214 0.0
H1947 H 0.34282 0.80945 0.86323 0.0
C1948 C 0.18883 0.66227 0.8527 0.0
C1949 C 0.18874 0.64219 0.84533 0.0
C1950 C 0.21698 0.6992 0.85383 0.0
C1951 C 0.24509 0.71679 0.84752 0.0
C1952 C 0.24464 0.69657 0.84015 0.0
C1953 C 0.21702 0.65979 0.8391 0.0
C1954 C 0.31986 0.81492 0.84213 0.0
C1955 C 0.3407 0.82582 0.84988 0.0
C1956 C 0.28793 0.78018 0.84151 0.0
C1957 C 0.27581 0.75557 0.84863 0.0
C1958 C 0.29536 0.76729 0.85655 0.0
C1959 C 0.32755 0.80195 0.85715 0.0
H1960 H 0.35589 0.50195 0.83339 0.0
H1961 H 0.39149 0.56728 0.8569 0.0
H1962 H 0.29359 0.49096 0.83551 0.0
H1963 H 0.32973 0.5589 0.85877 0.0
H1964 H 0.20969 0.52489 0.86276 0.0
H1965 H 0.2678 0.52462 0.86201 0.0
H1966 H 0.25954 0.51893 0.8338 0.0
H1967 H 0.20066 0.51676 0.83467 0.0
C1968 C 0.35022 0.51395 0.83904 0.0
C1969 C 0.37845 0.53546 0.84498 0.0
C1970 C 0.31451 0.50809 0.84021 0.0
C1971 C 0.30621 0.52461 0.84722 0.0
C1972 C 0.33448 0.54525 0.85333 0.0
C1973 C 0.37007 0.55025 0.85227 0.0
C1974 C 0.22013 0.52299 0.85641 0.0
C1975 C 0.20037 0.52059 0.84878 0.0
C1976 C 0.25377 0.52322 0.85597 0.0
C1977 C 0.269 0.52185 0.84784 0.0
C1978 C 0.24877 0.51909 0.84022 0.0
C1979 C 0.21484 0.51806 0.84069 0.0
H1980 H 0.52526 0.8278 1.00534 0.0
H1981 H 0.47572 0.77445 0.02981 0.0
H1982 H 0.4756 0.8425 1.00328 0.0
H1983 H 0.42702 0.78928 0.02782 0.0
H1984 H 0.36272 0.84854 0.02633 0.0
H1985 H 0.41894 0.8447 0.0275 0.0
H1986 H 0.4056 0.80676 1.00082 0.0
H1987 H 0.34938 0.81058 0.99961 0.0
C1988 C 0.50394 0.81938 1.01028 0.0
C1989 C 0.50447 0.80004 0.01774 0.0
C1990 C 0.47553 0.82773 1.0091 0.0
C1991 C 0.44758 0.81744 0.01544 0.0
C1992 C 0.44842 0.79825 0.02289 0.0
C1993 C 0.47628 0.78949 0.02399 0.0
C1994 C 0.37209 0.84008 0.02065 0.0
C1995 C 0.35125 0.82959 1.0129 0.0
C1996 C 0.40422 0.83764 0.02134 0.0
C1997 C 0.41656 0.82505 1.01428 0.0
C1998 C 0.39698 0.8167 1.00637 0.0
C1999 C 0.36461 0.81873 1.0057 0.0
H2000 H 0.19456 0.70173 1.00528 0.0
H2001 H 0.24829 0.70706 0.02976 0.0
H2002 H 0.1799 0.63725 1.00344 0.0
H2003 H 0.23356 0.64343 0.02798 0.0
H2004 H 0.17501 0.51961 0.02684 0.0
H2005 H 0.17878 0.57973 0.02789 0.0
H2006 H 0.21522 0.60299 1.00106 0.0
H2007 H 0.21142 0.54295 0.99999 0.0
C2008 C 0.20309 0.68915 1.01026 0.0
C2009 C 0.22251 0.70948 0.01767 0.0
C2010 C 0.19476 0.65231 1.00921 0.0
C2011 C 0.20518 0.63503 0.01562 0.0
C2012 C 0.22447 0.65554 0.02301 0.0
C2013 C 0.23318 0.69222 0.02399 0.0
C2014 C 0.18313 0.53719 0.02111 0.0
C2015 C 0.19319 0.52647 1.01336 0.0
C2016 C 0.18554 0.57178 0.02173 0.0
C2017 C 0.19767 0.59636 1.01458 0.0
C2018 C 0.20563 0.58473 1.00667 0.0
C2019 C 0.20362 0.55032 1.00608 0.0
H2020 H 0.31945 0.4976 1.00517 0.0
H2021 H 0.31647 0.54445 0.03008 0.0
H2022 H 0.38372 0.54777 1.0031 0.0
H2023 H 0.37987 0.59364 0.02808 0.0
H2024 H 0.50345 0.65872 0.02637 0.0
H2025 H 0.44337 0.60234 0.02745 0.0
H2026 H 0.41814 0.61792 1.00099 0.0
H2027 H 0.47825 0.67432 0.99988 0.0
C2028 C 0.33251 0.51842 1.0102 0.0
C2029 C 0.31288 0.51697 0.0178 0.0
C2030 C 0.36922 0.54714 1.00902 0.0
C2031 C 0.38711 0.5745 0.01548 0.0
C2032 C 0.3673 0.57273 0.02305 0.0
C2033 C 0.33074 0.54457 0.02416 0.0
C2034 C 0.48546 0.64984 0.02072 0.0
C2035 C 0.49571 0.67135 1.01306 0.0
C2036 C 0.45087 0.61759 0.02136 0.0
C2037 C 0.42574 0.60579 1.01434 0.0
C2038 C 0.43683 0.6261 1.00651 0.0
C2039 C 0.47128 0.65857 1.0059 0.0
H2040 H 0.23496 0.52279 0.50737 0.0
H2041 H 0.17091 0.49385 0.5311 0.0
H2042 H 0.22643 0.57597 0.50546 0.0
H2043 H 0.15968 0.545 0.52894 0.0
H2044 H 0.18604 0.66415 0.52949 0.0
H2045 H 0.18764 0.60715 0.53046 0.0
H2046 H 0.19204 0.60325 0.50224 0.0
H2047 H 0.19299 0.66196 0.50139 0.0
C2048 C 0.21818 0.52731 0.51205 0.0
C2049 C 0.20381 0.50445 0.51941 0.0
C2050 C 0.21306 0.55778 0.51095 0.0
C2051 C 0.19269 0.56557 0.5171 0.0
C2052 C 0.17658 0.54105 0.5242 0.0
C2053 C 0.18258 0.51131 0.5254 0.0
C2054 C 0.18691 0.65089 0.52349 0.0
C2055 C 0.18936 0.66763 0.51537 0.0
C2056 C 0.18762 0.61785 0.52402 0.0
C2057 C 0.18992 0.59998 0.51643 0.0
C2058 C 0.19105 0.61624 0.50827 0.0
C2059 C 0.1912 0.64982 0.50776 0.0
H2060 H 0.49787 0.72124 0.50624 0.0
H2061 H 0.52267 0.68776 0.53076 0.0
H2062 H 0.44372 0.65959 0.5045 0.0
H2063 H 0.47038 0.62584 0.52887 0.0
H2064 H 0.35052 0.53546 0.52931 0.0
H2065 H 0.40726 0.59448 0.53007 0.0
H2066 H 0.4165 0.59612 0.5019 0.0
H2067 H 0.35833 0.53758 0.50116 0.0
C2068 C 0.49223 0.70036 0.51114 0.0
C2069 C 0.5143 0.70931 0.51866 0.0
C2070 C 0.46119 0.66489 0.51015 0.0
C2071 C 0.45192 0.63743 0.51661 0.0
C2072 C 0.47554 0.64623 0.52388 0.0
C2073 C 0.50592 0.68173 0.52493 0.0
C2074 C 0.36477 0.54816 0.52327 0.0
C2075 C 0.34974 0.53155 0.51518 0.0
C2076 C 0.39767 0.58216 0.5237 0.0
C2077 C 0.41709 0.60047 0.51605 0.0
C2078 C 0.40234 0.58342 0.50794 0.0
C2079 C 0.36902 0.54957 0.50752 0.0
H2080 H 0.47875 0.81472 0.5002 0.0
H2081 H 0.50024 0.84345 0.52754 0.0
H2082 H 0.41862 0.81058 0.50159 0.0
H2083 H 0.44023 0.8394 0.52888 0.0
H2084 H 0.32046 0.83128 0.50686 0.0
H2085 H 0.38473 0.84564 0.50485 0.0
H2086 H 0.37655 0.78501 0.52839 0.0
H2087 H 0.3131 0.77068 0.53035 0.0
C2088 C 0.47098 0.82073 0.50648 0.0
C2089 C 0.49435 0.82909 0.51378 0.0
C2090 C 0.43653 0.81852 0.50725 0.0
C2091 C 0.42445 0.82427 0.51536 0.0
C2092 C 0.44852 0.83432 0.52256 0.0
C2093 C 0.48307 0.83686 0.52177 0.0
C2094 C 0.33259 0.82122 0.5116 0.0
C2095 C 0.31178 0.8 0.51878 0.0
C2096 C 0.36927 0.82933 0.51044 0.0
C2097 C 0.38589 0.8168 0.51652 0.0
C2098 C 0.36492 0.7957 0.52368 0.0
C2099 C 0.32838 0.78727 0.52477 0.0
H2100 H 0.19566 0.57081 0.35738 0.0
H2101 H 0.16515 0.5037 0.33416 0.0
H2102 H 0.24911 0.56259 0.35931 0.0
H2103 H 0.21654 0.49295 0.33633 0.0
H2104 H 0.33536 0.51937 0.3353 0.0
H2105 H 0.27867 0.52151 0.33448 0.0
H2106 H 0.2768 0.52829 0.36267 0.0
H2107 H 0.3352 0.5285 0.36338 0.0
C2108 C 0.19988 0.55342 0.35283 0.0
C2109 C 0.17648 0.53807 0.3456 0.0
C2110 C 0.23052 0.54854 0.35393 0.0
C2111 C 0.23796 0.52749 0.3479 0.0
C2112 C 0.21289 0.51041 0.34096 0.0
C2113 C 0.183 0.51613 0.33976 0.0
C2114 C 0.32268 0.52092 0.34134 0.0
C2115 C 0.33987 0.52369 0.3494 0.0
C2116 C 0.28978 0.52192 0.34089 0.0
C2117 C 0.27249 0.52492 0.34851 0.0
C2118 C 0.2893 0.52664 0.35662 0.0
C2119 C 0.32271 0.5264 0.35705 0.0
H2120 H 0.51038 0.66411 0.33456 0.0
H2121 H 0.44763 0.63585 0.35846 0.0
H2122 H 0.52683 0.72859 0.33629 0.0
H2123 H 0.46151 0.6996 0.35999 0.0
H2124 H 0.50244 0.81956 0.36368 0.0
H2125 H 0.50101 0.7607 0.36295 0.0
H2126 H 0.50318 0.76706 0.33471 0.0
H2127 H 0.50714 0.82699 0.33555 0.0
C2128 C 0.50035 0.67198 0.34023 0.0
C2129 C 0.47808 0.64536 0.34642 0.0
C2130 C 0.50932 0.70886 0.34118 0.0
C2131 C 0.4953 0.7198 0.34824 0.0
C2132 C 0.47358 0.69287 0.35455 0.0
C2133 C 0.46536 0.65616 0.35368 0.0
C2134 C 0.5034 0.80862 0.35733 0.0
C2135 C 0.50498 0.82793 0.34968 0.0
C2136 C 0.50211 0.77455 0.35689 0.0
C2137 C 0.50135 0.75832 0.34877 0.0
C2138 C 0.50427 0.7785 0.34111 0.0
C2139 C 0.50646 0.81301 0.34157 0.0
H2140 H 0.21489 0.67955 0.36369 0.0
H2141 H 0.19431 0.68821 0.33636 0.0
H2142 H 0.27529 0.73536 0.36246 0.0
H2143 H 0.25461 0.7441 0.33518 0.0
H2144 H 0.38125 0.804 0.33366 0.0
H2145 H 0.31808 0.75415 0.33559 0.0
H2146 H 0.30992 0.80417 0.35953 0.0
H2147 H 0.37397 0.85481 0.35756 0.0
C2148 C 0.22293 0.69359 0.35744 0.0
C2149 C 0.19967 0.67901 0.3501 0.0
C2150 C 0.25757 0.72576 0.35676 0.0
C2151 C 0.27001 0.74402 0.3487 0.0
C2152 C 0.24611 0.73041 0.34146 0.0
C2153 C 0.21137 0.69842 0.34215 0.0
C2154 C 0.36607 0.80458 0.33934 0.0
C2155 C 0.38262 0.8335 0.34544 0.0
C2156 C 0.32966 0.77605 0.3404 0.0
C2157 C 0.30868 0.77532 0.34765 0.0
C2158 C 0.32533 0.80394 0.35387 0.0
C2159 C 0.36193 0.83293 0.35274 0.0
H2160 H 0.25499 0.30198 0.19394 0.0
H2161 H 0.24444 0.35235 0.1703 0.0
H2162 H 0.32181 0.33367 0.19195 0.0
H2163 H 0.3112 0.38501 0.16848 0.0
H2164 H 0.42416 0.40233 0.16145 0.0
H2165 H 0.35845 0.37405 0.16427 0.0
H2166 H 0.38009 0.38936 0.19202 0.0
H2167 H 0.44649 0.41674 0.1891 0.0
C2168 C 0.26688 0.32023 0.18838 0.0
C2169 C 0.24395 0.32425 0.18225 0.0
C2170 C 0.30545 0.33865 0.18726 0.0
C2171 C 0.3224 0.36184 0.18 0.0
C2172 C 0.29946 0.36679 0.17405 0.0
C2173 C 0.26094 0.34818 0.17513 0.0
C2174 C 0.415 0.3998 0.16817 0.0
C2175 C 0.44072 0.41198 0.17504 0.0
C2176 C 0.37709 0.38377 0.1698 0.0
C2177 C 0.36341 0.37953 0.17839 0.0
C2178 C 0.38926 0.39176 0.18531 0.0
C2179 C 0.42744 0.40774 0.18366 0.0
H2180 H 0.59575 1.00748 0.16393 0.0
H2181 H 0.62559 0.04809 0.19026 0.0
H2182 H 0.62784 0.97286 0.1655 0.0
H2183 H 0.65519 0.01113 0.19221 0.0
H2184 H 0.73646 0.96945 0.19136 0.0
H2185 H 0.70378 1.00343 0.18984 0.0
H2186 H 0.63258 0.92482 0.17039 0.0
H2187 H 0.66757 0.8928 0.1715 0.0
C2188 C 0.60865 1.00842 0.17014 0.0
C2189 C 0.60817 0.03065 0.17696 0.0
C2190 C 0.62697 0.98818 0.17109 0.0
C2191 C 0.64462 0.98865 0.17901 0.0
C2192 C 0.6431 0.01035 0.18591 0.0
C2193 C 0.62564 0.03139 0.18485 0.0
C2194 C 0.71372 0.95939 0.18677 0.0
C2195 C 0.7047 0.92833 0.18156 0.0
C2196 C 0.69456 0.97883 0.18593 0.0
C2197 C 0.66495 0.96734 0.17999 0.0
C2198 C 0.65554 0.93558 0.1749 0.0
C2199 C 0.67543 0.91676 0.17559 0.0
H2200 H 0.09002 0.77096 0.19591 0.0
H2201 H 0.09507 0.78151 0.16783 0.0
H2202 H 0.05657 0.70364 0.1945 0.0
H2203 H 0.06006 0.71503 0.16637 0.0
H2204 H 0.02144 0.59535 0.16431 0.0
H2205 H 0.05988 0.66107 0.16693 0.0
H2206 H 1.00247 0.64918 0.19131 0.0
H2207 H 0.96563 0.58232 0.18885 0.0
C2208 C 0.08393 0.75895 0.18943 0.0
C2209 C 0.09579 0.78192 0.18199 0.0
C2210 C 0.06437 0.72014 0.1886 0.0
C2211 C 0.05548 0.70305 0.1803 0.0
C2212 C 0.06706 0.72637 0.1729 0.0
C2213 C 0.08713 0.76494 0.17373 0.0
C2214 C 0.01735 0.60671 0.1703 0.0
C2215 C 0.99042 0.58357 0.17636 0.0
C2216 C 0.03917 0.64476 0.17177 0.0
C2217 C 0.03412 0.66144 0.17926 0.0
C2218 C 1.0077 0.63789 0.18548 0.0
C2219 C 0.98637 0.5994 0.18408 0.0
H2220 H 0.31627 0.24639 0.33513 0.0
H2221 H 0.34014 0.23848 0.36224 0.0
H2222 H 0.34968 0.3135 0.3362 0.0
H2223 H 0.37266 0.30567 0.36339 0.0
H2224 H 0.3758 0.43065 0.34361 0.0
H2225 H 0.34552 0.36358 0.34206 0.0
H2226 H 0.42595 0.36182 0.35947 0.0
H2227 H 0.45531 0.42865 0.36121 0.0
C2228 C 0.32865 0.25892 0.34133 0.0
C2229 C 0.32539 0.23678 0.3486 0.0
C2230 C 0.34765 0.2976 0.34197 0.0
C2231 C 0.36388 0.31544 0.3499 0.0
C2232 C 0.36107 0.29323 0.35713 0.0
C2233 C 0.34221 0.25451 0.35648 0.0
C2234 C 0.38707 0.4159 0.34707 0.0
C2235 C 0.41787 0.43501 0.35256 0.0
C2236 C 0.36982 0.37736 0.34615 0.0
C2237 C 0.38303 0.35684 0.35066 0.0
C2238 C 0.4144 0.37628 0.35601 0.0
C2239 C 0.43149 0.41476 0.35696 0.0
H2240 H 0.59784 0.01183 0.36804 0.0
H2241 H 0.58638 0.96304 0.34261 0.0
H2242 H 0.66384 0.05082 0.36573 0.0
H2243 H 0.65318 1.00013 0.34044 0.0
H2244 H 0.7731 0.08839 0.33606 0.0
H2245 H 0.70611 0.05492 0.3377 0.0
H2246 H 0.71888 0.05296 0.36572 0.0
H2247 H 0.7855 0.08843 0.36404 0.0
C2248 C 0.60961 0.00936 0.36194 0.0
C2249 C 0.58688 0.98436 0.35551 0.0
C2250 C 0.64777 0.03149 0.36064 0.0
C2251 C 0.66477 0.02866 0.35294 0.0
C2252 C 0.64163 1.00384 0.34643 0.0
C2253 C 0.60317 0.98227 0.34767 0.0
C2254 C 0.76148 0.0811 0.34258 0.0
C2255 C 0.78481 0.09139 0.34992 0.0
C2256 C 0.72285 0.06147 0.34353 0.0
C2257 C 0.70625 0.05079 0.35186 0.0
C2258 C 0.72992 0.06118 0.35919 0.0
C2259 C 0.76847 0.08147 0.35824 0.0
H2260 H 0.93156 0.68551 0.33549 0.0
H2261 H 0.92867 0.69653 0.36346 0.0
H2262 H 0.96536 0.65246 0.33731 0.0
H2263 H 0.96433 0.66576 0.36533 0.0
H2264 H 1.00644 0.58715 0.36793 0.0
H2265 H 0.96663 0.61284 0.36529 0.0
H2266 H 0.02066 0.65556 0.34041 0.0
H2267 H 0.05878 0.62718 0.34291 0.0
C2268 C 0.93821 0.68091 0.34205 0.0
C2269 C 0.92709 0.69349 0.34933 0.0
C2270 C 0.95803 0.6622 0.3431 0.0
C2271 C 0.968 0.65609 0.35148 0.0
C2272 C 0.95668 0.66877 0.35876 0.0
C2273 C 0.93623 0.68677 0.3577 0.0
C2274 C 1.00948 0.60167 0.36185 0.0
C2275 C 0.03576 0.60515 0.35564 0.0
C2276 C 0.98687 0.61694 0.36035 0.0
C2277 C 0.99046 0.63721 0.35269 0.0
C2278 C 0.01643 0.63996 0.34637 0.0
C2279 C 0.03854 0.62381 0.34779 0.0
H2280 H 0.59702 0.56789 0.86233 0.0
H2281 H 0.59233 0.63961 0.84274 0.0
H2282 H 0.66377 0.59757 0.86043 0.0
H2283 H 0.6594 0.6702 0.84097 0.0
H2284 H 0.78606 0.68657 0.86249 0.0
H2285 H 0.71895 0.65335 0.86364 0.0
H2286 H 0.71058 0.66537 0.83583 0.0
H2287 H 0.77773 0.69945 0.83472 0.0
C2288 C 0.61028 0.59 0.85759 0.0
C2289 C 0.58929 0.60143 0.85271 0.0
C2290 C 0.64873 0.60731 0.85654 0.0
C2291 C 0.66745 0.63671 0.8506 0.0
C2292 C 0.64619 0.6475 0.84555 0.0
C2293 C 0.60764 0.63006 0.84659 0.0
C2294 C 0.76999 0.68199 0.8566 0.0
C2295 C 0.78765 0.69589 0.84851 0.0
C2296 C 0.73128 0.66267 0.85725 0.0
C2297 C 0.70891 0.6565 0.84983 0.0
C2298 C 0.72662 0.66995 0.84172 0.0
C2299 C 0.76533 0.68934 0.84108 0.0
H2300 H 0.31776 0.07691 0.83553 0.0
H2301 H 0.34067 0.10869 0.86265 0.0
H2302 H 0.35217 0.04434 0.83666 0.0
H2303 H 0.37419 0.07508 0.86387 0.0
H2304 H 0.45767 0.03539 0.86184 0.0
H2305 H 0.42783 0.07249 0.86012 0.0
H2306 H 0.3484 0.99046 0.8425 0.0
H2307 H 0.37906 0.95422 0.84402 0.0
C2308 C 0.33013 0.07698 0.84175 0.0
C2309 C 0.32626 0.09551 0.849 0.0
C2310 C 0.34972 0.05795 0.84242 0.0
C2311 C 0.36595 0.05659 0.85038 0.0
C2312 C 0.36261 0.07572 0.85759 0.0
C2313 C 0.34315 0.09495 0.85691 0.0
C2314 C 0.43399 0.02547 0.85755 0.0
C2315 C 0.42076 0.99181 0.85308 0.0
C2316 C 0.41661 0.04662 0.85661 0.0
C2317 C 0.38541 0.03466 0.85119 0.0
C2318 C 0.37259 1.00109 0.84663 0.0
C2319 C 0.39006 0.98007 0.84754 0.0
H2320 H 0.91544 0.23647 0.86192 0.0
H2321 H 0.94672 0.24448 0.83476 0.0
H2322 H 0.94985 0.30358 0.86307 0.0
H2323 H 0.9802 0.3116 0.83583 0.0
H2324 H 0.99018 0.42665 0.86103 0.0
H2325 H 0.95265 0.35975 0.85927 0.0
H2326 H 0.03439 0.36193 0.84162 0.0
H2327 H 0.07115 0.42893 0.84319 0.0
C2328 C 0.92923 0.25247 0.85615 0.0
C2329 C 0.92818 0.23471 0.84825 0.0
C2330 C 0.94894 0.29119 0.85679 0.0
C2331 C 0.96814 0.31348 0.84955 0.0
C2332 C 0.96647 0.29565 0.84161 0.0
C2333 C 0.94691 0.25694 0.84097 0.0
C2334 C 0.99997 0.41283 0.85673 0.0
C2335 C 0.03372 0.43319 0.85227 0.0
C2336 C 0.97857 0.37431 0.85576 0.0
C2337 C 0.99033 0.35494 0.85033 0.0
C2338 C 0.02394 0.37559 0.84577 0.0
C2339 C 0.04525 0.41413 0.84671 0.0
H2340 H 0.56763 0.58943 0.66925 0.0
H2341 H 0.64878 0.58599 0.68599 0.0
H2342 H 0.59793 0.65634 0.67115 0.0
H2343 H 0.67984 0.65297 0.68771 0.0
H2344 H 0.68499 0.77934 0.66831 0.0
H2345 H 0.65154 0.71227 0.66706 0.0
H2346 H 0.67691 0.70326 0.69399 0.0
H2347 H 0.71123 0.77036 0.69517 0.0
C2348 C 0.59198 0.603 0.67334 0.0
C2349 C 0.6058 0.58233 0.67745 0.0
C2350 C 0.6096 0.6415 0.67439 0.0
C2351 C 0.64164 0.66051 0.67956 0.0
C2352 C 0.65505 0.63956 0.68377 0.0
C2353 C 0.63734 0.60105 0.68274 0.0
C2354 C 0.68332 0.76314 0.67399 0.0
C2355 C 0.70105 0.78061 0.68184 0.0
C2356 C 0.66387 0.72445 0.67329 0.0
C2357 C 0.66138 0.70191 0.68041 0.0
C2358 C 0.67861 0.71943 0.6883 0.0
C2359 C 0.69816 0.75812 0.689 0.0
H2360 H 0.43685 0.06672 0.68635 0.0
H2361 H 0.43262 0.98154 0.66968 0.0
H2362 H 0.3698 0.03135 0.68801 0.0
H2363 H 0.36565 0.94548 0.67152 0.0
H2364 H 0.25203 0.94632 0.69543 0.0
H2365 H 0.31911 0.97853 0.69428 0.0
H2366 H 0.30999 0.94343 0.6674 0.0
H2367 H 0.24283 0.91032 0.66865 0.0
C2368 C 0.4216 0.0402 0.68311 0.0
C2369 C 0.44013 0.02706 0.67785 0.0
C2370 C 0.38305 0.01972 0.6841 0.0
C2371 C 0.36185 0.98536 0.67989 0.0
C2372 C 0.38067 0.972 0.67476 0.0
C2373 C 0.41921 0.99257 0.67375 0.0
C2374 C 0.26426 0.94522 0.68928 0.0
C2375 C 0.24175 0.9256 0.68214 0.0
C2376 C 0.30293 0.96403 0.6886 0.0
C2377 C 0.32042 0.96398 0.68073 0.0
C2378 C 0.29783 0.94386 0.67362 0.0
C2379 C 0.25912 0.92492 0.67432 0.0
H2380 H 0.96808 0.39234 0.68774 0.0
H2381 H 0.01951 0.42948 0.66251 0.0
H2382 H 1.00542 0.36317 0.69038 0.0
H2383 H 0.05828 0.40263 0.66526 0.0
H2384 H 0.09336 0.317 0.66756 0.0
H2385 H 0.05808 0.34801 0.66559 0.0
H2386 H 0.06189 0.36725 0.69343 0.0
H2387 H 0.09569 0.33418 0.69542 0.0
C2388 C 0.98785 0.3948 0.68283 0.0
C2389 C 0.99069 0.41301 0.6749 0.0
C2390 C 1.0095 0.37821 0.68434 0.0
C2391 C 0.03495 0.37991 0.67801 0.0
C2392 C 0.03845 0.39947 0.67022 0.0
C2393 C 0.01641 0.41533 0.66866 0.0
C2394 C 0.08699 0.32808 0.67328 0.0
C2395 C 0.09764 0.3231 0.68165 0.0
C2396 C 0.06676 0.34621 0.67214 0.0
C2397 C 0.05697 0.36069 0.67933 0.0
C2398 C 0.06817 0.35616 0.68771 0.0
C2399 C 0.08796 0.33743 0.68886 0.0
H2400 H 0.90759 0.66796 0.5008 0.0
H2401 H 0.91613 0.65088 0.52833 0.0
H2402 H 0.97498 0.70086 0.49961 0.0
H2403 H 0.98304 0.68441 0.52722 0.0
H2404 H 0.09892 0.78446 0.50181 0.0
H2405 H 0.03185 0.75532 0.5032 0.0
H2406 H 0.03212 0.67761 0.52178 0.0
H2407 H 0.09917 0.70751 0.52055 0.0
C2408 C 0.92377 0.67159 0.50662 0.0
C2409 C 0.90622 0.65647 0.51465 0.0
C2410 C 0.96254 0.69062 0.50596 0.0
C2411 C 0.98481 0.69516 0.51331 0.0
C2412 C 0.96709 0.68087 0.52136 0.0
C2413 C 0.9285 0.66178 0.52202 0.0
C2414 C 0.08462 0.76129 0.50624 0.0
C2415 C 0.10443 0.74833 0.51107 0.0
C2416 C 0.04604 0.74434 0.50698 0.0
C2417 C 0.02617 0.71389 0.51259 0.0
C2418 C 0.04624 0.70126 0.51749 0.0
C2419 C 0.08479 0.71829 0.51676 0.0
H2420 H 0.36877 0.27163 0.52855 0.0
H2421 H 0.35414 0.24753 0.50093 0.0
H2422 H 0.33511 0.30483 0.52734 0.0
H2423 H 0.32129 0.2819 0.49964 0.0
H2424 H 0.31023 0.39703 0.52063 0.0
H2425 H 0.34051 0.36031 0.52217 0.0
H2426 H 0.26677 0.28354 0.50282 0.0
H2427 H 0.23752 0.32106 0.50111 0.0
C2428 C 0.35839 0.27341 0.52219 0.0
C2429 C 0.36433 0.25683 0.51483 0.0
C2430 C 0.33924 0.29283 0.52148 0.0
C2431 C 0.32554 0.29658 0.51338 0.0
C2432 C 0.33093 0.27939 0.50603 0.0
C2433 C 0.34995 0.25971 0.50675 0.0
C2434 C 0.30038 0.37218 0.51675 0.0
C2435 C 0.27154 0.36208 0.51073 0.0
C2436 C 0.31764 0.35091 0.51765 0.0
C2437 C 0.30636 0.31877 0.51259 0.0
C2438 C 0.27686 0.30835 0.50672 0.0
C2439 C 0.25978 0.32973 0.50579 0.0
H2440 H 0.68524 0.92908 0.49576 0.0
H2441 H 0.63351 0.91595 0.52088 0.0
H2442 H 0.72413 0.99484 0.49833 0.0
H2443 H 0.67061 0.98267 0.52331 0.0
H2444 H 0.75848 0.10276 0.52807 0.0
H2445 H 0.72514 0.03578 0.52632 0.0
H2446 H 0.7258 0.04964 0.49829 0.0
H2447 H 0.76105 0.11618 0.50009 0.0
C2448 C 0.68212 0.94044 0.50185 0.0
C2449 C 0.65628 0.9173 0.50811 0.0
C2450 C 0.70419 0.97848 0.5033 0.0
C2451 C 0.70048 0.99501 0.51097 0.0
C2452 C 0.67494 0.97147 0.51734 0.0
C2453 C 0.6534 0.93306 0.51596 0.0
C2454 C 0.75181 0.09138 0.52153 0.0
C2455 C 0.76278 0.115 0.51422 0.0
C2456 C 0.73226 0.05276 0.52051 0.0
C2457 C 0.72239 0.03647 0.51215 0.0
C2458 C 0.73342 0.06042 0.50485 0.0
C2459 C 0.7536 0.09894 0.50587 0.0
H2460 H 0.06886 0.77005 0.67367 0.0
H2461 H 0.09967 0.7598 0.69995 0.0
H2462 H 0.03964 0.70347 0.67177 0.0
H2463 H 0.06786 0.69299 0.69843 0.0
H2464 H 0.02849 0.5729 0.69216 0.0
H2465 H 0.06325 0.64011 0.69343 0.0
H2466 H 0.99069 0.64762 0.67441 0.0
H2467 H 0.95839 0.58113 0.67273 0.0
C2468 C 0.0691 0.75341 0.67907 0.0
C2469 C 0.0867 0.77026 0.68694 0.0
C2470 C 0.05185 0.71492 0.67805 0.0
C2471 C 0.05063 0.69186 0.68496 0.0
C2472 C 0.06847 0.70914 0.69284 0.0
C2473 C 0.0866 0.74771 0.69376 0.0
C2474 C 0.0203 0.58912 0.68822 0.0
C2475 C 0.99089 0.5716 0.68229 0.0
C2476 C 0.04005 0.62787 0.68899 0.0
C2477 C 0.03028 0.65025 0.68402 0.0
C2478 C 1.00028 0.63222 0.67819 0.0
C2479 C 0.98132 0.59371 0.67726 0.0
H2480 H 0.26959 0.323 0.70348 0.0
H2481 H 0.24975 0.31592 0.67572 0.0
H2482 H 0.33568 0.36022 0.70096 0.0
H2483 H 0.31619 0.35484 0.67311 0.0
H2484 H 0.43925 0.39132 0.67112 0.0
H2485 H 0.37285 0.35645 0.67328 0.0
H2486 H 0.38491 0.41766 0.69698 0.0
H2487 H 0.45183 0.45157 0.69498 0.0
C2488 C 0.27939 0.32976 0.69681 0.0
C2489 C 0.25431 0.31647 0.6898 0.0
C2490 C 0.31748 0.35152 0.69535 0.0
C2491 C 0.33185 0.36108 0.68682 0.0
C2492 C 0.30656 0.34785 0.67978 0.0
C2493 C 0.26831 0.32568 0.68126 0.0
C2494 C 0.42784 0.39758 0.67679 0.0
C2495 C 0.45119 0.42434 0.68289 0.0
C2496 C 0.38944 0.37759 0.678 0.0
C2497 C 0.37294 0.38385 0.68532 0.0
C2498 C 0.39632 0.4113 0.69133 0.0
C2499 C 0.43486 0.43109 0.69016 0.0
H2500 H 0.67413 0.91922 0.70061 0.0
H2501 H 0.72629 0.96011 0.67561 0.0
H2502 H 0.63515 0.94607 0.69825 0.0
H2503 H 0.68897 0.98956 0.67339 0.0
H2504 H 0.60073 0.02094 0.6689 0.0
H2505 H 0.6338 0.98712 0.67049 0.0
H2506 H 0.63395 0.99971 0.69855 0.0
H2507 H 0.59898 0.03141 0.69691 0.0
C2508 C 0.67728 0.93414 0.69459 0.0
C2509 C 0.70328 0.93754 0.6883 0.0
C2510 C 0.65516 0.95008 0.69326 0.0
C2511 C 0.65895 0.9709 0.68569 0.0
C2512 C 0.6846 0.97355 0.67928 0.0
C2513 C 0.70624 0.95676 0.68054 0.0
C2514 C 0.60751 0.01608 0.67542 0.0
C2515 C 0.59694 0.02876 0.68278 0.0
C2516 C 0.62691 0.99691 0.67634 0.0
C2517 C 0.637 0.99036 0.68465 0.0
C2518 C 0.62621 1.00311 0.69202 0.0
C2519 C 0.60618 0.02163 0.6911 0.0
H2520 H 0.2702 0.95218 0.2019 0.0
H2521 H 0.24935 0.94116 0.17417 0.0
H2522 H 0.33598 0.98056 0.19925 0.0
H2523 H 0.31591 0.96867 0.17142 0.0
H2524 H 0.44134 0.056 0.1701 0.0
H2525 H 0.37438 0.02419 0.17185 0.0
H2526 H 0.38345 0.97008 0.195 0.0
H2527 H 0.45037 1.00287 0.1934 0.0
C2528 C 0.27968 0.95546 0.1952 0.0
C2529 C 0.25429 0.94414 0.18825 0.0
C2530 C 0.31766 0.97156 0.19367 0.0
C2531 C 0.33184 0.97678 0.18511 0.0
C2532 C 0.30636 0.96546 0.17811 0.0
C2533 C 0.26807 0.94938 0.17967 0.0
C2534 C 0.42907 0.03713 0.17554 0.0
C2535 C 0.45159 0.03234 0.18164 0.0
C2536 C 0.39042 0.01864 0.17653 0.0
C2537 C 0.37297 0.99459 0.18363 0.0
C2538 C 0.39555 0.98893 0.18955 0.0
C2539 C 0.43416 1.00761 0.1886 0.0
H2540 H 0.02141 0.45459 0.1937 0.0
H2541 H 0.9682 0.39241 0.17041 0.0
H2542 H 0.05389 0.42035 0.19532 0.0
H2543 H 0.99987 0.35711 0.17219 0.0
H2544 H 0.08379 0.31584 0.17467 0.0
H2545 H 0.05562 0.3542 0.17183 0.0
H2546 H 0.04294 0.36226 0.19963 0.0
H2547 H 0.07193 0.32551 0.20237 0.0
C2548 C 0.01655 0.43359 0.1889 0.0
C2549 C 0.99186 0.42637 0.18194 0.0
C2550 C 0.03507 0.41359 0.18987 0.0
C2551 C 0.02935 0.38528 0.18397 0.0
C2552 C 1.00541 0.37873 0.17686 0.0
C2553 C 0.98703 0.399 0.17585 0.0
C2554 C 0.0752 0.32612 0.18014 0.0
C2555 C 0.08046 0.31781 0.18875 0.0
C2556 C 0.05876 0.34795 0.17853 0.0
C2557 C 0.04711 0.36195 0.18549 0.0
C2558 C 0.05221 0.35308 0.19407 0.0
C2559 C 0.06867 0.33157 0.19565 0.0
H2560 H 0.56899 0.57367 0.19285 0.0
H2561 H 0.63336 0.58275 0.16995 0.0
H2562 H 0.60357 0.64047 0.19455 0.0
H2563 H 0.66895 0.64963 0.17182 0.0
H2564 H 0.71101 0.77432 0.174 0.0
H2565 H 0.67188 0.70789 0.17124 0.0
H2566 H 0.66147 0.68766 0.19908 0.0
H2567 H 0.69908 0.75357 0.20174 0.0
C2568 C 0.59053 0.58986 0.18816 0.0
C2569 C 0.59829 0.57248 0.18128 0.0
C2570 C 0.6107 0.62839 0.18917 0.0
C2571 C 0.63965 0.65092 0.18339 0.0
C2572 C 0.64677 0.63357 0.17637 0.0
C2573 C 0.62635 0.59498 0.17532 0.0
C2574 C 0.70003 0.75559 0.1795 0.0
C2575 C 0.70797 0.76932 0.18809 0.0
C2576 C 0.67777 0.71738 0.17793 0.0
C2577 C 0.66302 0.69193 0.18492 0.0
C2578 C 0.67134 0.70603 0.19349 0.0
C2579 C 0.69329 0.74402 0.19504 0.0
H2580 H 0.28876 0.93082 0.99384 0.0
H2581 H 0.27598 0.91083 0.0216 0.0
H2582 H 0.31688 0.99688 0.99635 0.0
H2583 H 0.30269 0.97712 0.0242 0.0
H2584 H 0.38875 0.10049 0.02619 0.0
H2585 H 0.35756 0.03408 0.02405 0.0
H2586 H 0.30804 0.04569 1.00036 0.0
H2587 H 0.34068 0.1126 1.00235 0.0
C2588 C 0.29161 0.94057 1.0005 0.0
C2589 C 0.28005 0.91547 1.00752 0.0
C2590 C 0.30751 0.97863 1.00196 0.0
C2591 C 0.31211 0.9929 1.0105 0.0
C2592 C 0.30021 0.96757 0.01753 0.0
C2593 C 0.28457 0.9294 0.01606 0.0
C2594 C 0.37104 0.08897 0.02054 0.0
C2595 C 0.36745 0.1122 1.01443 0.0
C2596 C 0.35284 0.05057 0.01933 0.0
C2597 C 0.33011 0.03395 1.012 0.0
C2598 C 0.32579 0.0572 1.006 0.0
C2599 C 0.34432 0.09572 1.00717 0.0
H2600 H 0.09023 0.36578 0.99444 0.0
H2601 H 0.11037 0.36861 0.02213 0.0
H2602 H 0.02417 0.3288 0.99696 0.0
H2603 H 0.04383 0.32984 0.02472 0.0
H2604 H 0.91974 0.29178 0.02693 0.0
H2605 H 0.98647 0.3272 0.02496 0.0
H2606 H 0.97539 0.27099 1.00049 0.0
H2607 H 0.90859 0.23683 1.0023 0.0
C2608 C 0.0805 0.35811 1.00109 0.0
C2609 C 0.10568 0.37012 1.00808 0.0
C2610 C 0.04239 0.33648 1.00255 0.0
C2611 C 0.02805 0.32566 1.01106 0.0
C2612 C 0.05343 0.33774 0.01808 0.0
C2613 C 0.09172 0.35981 0.0166 0.0
C2614 C 0.93152 0.28678 0.02114 0.0
C2615 C 0.90848 0.26143 1.01475 0.0
C2616 C 0.97006 0.30709 0.02003 0.0
C2617 C 0.98691 0.3025 1.01252 0.0
C2618 C 0.96379 0.27625 1.00627 0.0
C2619 C 0.92526 0.25627 1.00734 0.0
H2620 H 0.73174 0.63431 0.0268 0.0
H2621 H 0.78563 0.67724 1.00201 0.0
H2622 H 0.69635 0.66555 0.02489 0.0
H2623 H 0.75153 0.70992 1.00025 0.0
H2624 H 0.65708 0.73058 0.99444 0.0
H2625 H 0.69403 0.70149 0.99686 0.0
H2626 H 0.69343 0.71992 0.02465 0.0
H2627 H 0.65464 0.74763 0.02215 0.0
C2628 C 0.73654 0.65091 0.02098 0.0
C2629 C 0.7616 0.65299 1.01454 0.0
C2630 C 0.71623 0.66911 0.0199 0.0
C2631 C 0.72054 0.69035 1.01237 0.0
C2632 C 0.74649 0.69324 1.00605 0.0
C2633 C 0.76645 0.67467 1.00709 0.0
C2634 C 0.66482 0.72845 1.00108 0.0
C2635 C 0.6529 0.74154 1.0081 0.0
C2636 C 0.68646 0.71198 1.00248 0.0
C2637 C 0.6974 0.70837 1.01096 0.0
C2638 C 0.68543 0.72162 0.01802 0.0
C2639 C 0.66333 0.73782 0.0166 0.0
H2640 H 0.76196 0.09715 0.83008 0.0
H2641 H 0.77314 0.05377 0.85471 0.0
H2642 H 0.69633 0.07111 0.83263 0.0
H2643 H 0.70643 0.02495 0.85709 0.0
H2644 H 0.58656 0.99361 0.86186 0.0
H2645 H 0.65362 0.02674 0.86029 0.0
H2646 H 0.64118 0.01839 0.83218 0.0
H2647 H 0.57463 0.98763 0.83383 0.0
C2648 C 0.7502 0.08181 0.83606 0.0
C2649 C 0.77274 0.07749 0.84218 0.0
C2650 C 0.71221 0.06631 0.8375 0.0
C2651 C 0.69512 0.04491 0.845 0.0
C2652 C 0.71809 0.04138 0.85126 0.0
C2653 C 0.75648 0.0578 0.8499 0.0
C2654 C 0.59828 0.9993 0.85535 0.0
C2655 C 0.57507 0.98817 0.84797 0.0
C2656 C 0.63694 0.01808 0.85443 0.0
C2657 C 0.65364 0.0257 0.84609 0.0
C2658 C 0.63009 0.01428 0.83873 0.0
C2659 C 0.59155 0.99625 0.83966 0.0
H2660 H 0.95871 0.69476 0.82771 0.0
H2661 H 0.94712 0.70257 0.8555 0.0
H2662 H 0.987 0.65703 0.83018 0.0
H2663 H 0.97434 0.66334 0.85805 0.0
H2664 H 0.06065 0.62527 0.85953 0.0
H2665 H 0.02956 0.66089 0.85765 0.0
H2666 H 0.97697 0.5989 0.83427 0.0
H2667 H 1.00918 0.56426 0.83599 0.0
C2668 C 0.96188 0.68806 0.83438 0.0
C2669 C 0.95052 0.70165 0.8414 0.0
C2670 C 0.97791 0.66603 0.8358 0.0
C2671 C 0.98293 0.65655 0.84433 0.0
C2672 C 0.97143 0.67018 0.85139 0.0
C2673 C 0.95552 0.69251 0.84994 0.0
C2674 C 0.04227 0.61903 0.854 0.0
C2675 C 0.03768 0.59186 0.84789 0.0
C2676 C 0.02418 0.63945 0.85295 0.0
C2677 C 1.0007 0.63325 0.84576 0.0
C2678 C 0.99535 0.60528 0.83979 0.0
C2679 C 0.01366 0.58506 0.84081 0.0
H2680 H 0.37159 0.2572 0.83652 0.0
H2681 H 0.28847 0.25574 0.85347 0.0
H2682 H 0.4094 0.32401 0.83834 0.0
H2683 H 0.32543 0.32271 0.85506 0.0
H2684 H 0.44918 0.4476 0.83552 0.0
H2685 H 0.41421 0.3805 0.83433 0.0
H2686 H 0.37833 0.37283 0.86112 0.0
H2687 H 0.41224 0.43995 0.86218 0.0
C2688 C 0.36137 0.27121 0.84063 0.0
C2689 C 0.32697 0.25109 0.84483 0.0
C2690 C 0.38294 0.30969 0.84163 0.0
C2691 C 0.37065 0.32929 0.84682 0.0
C2692 C 0.33633 0.30888 0.85111 0.0
C2693 C 0.3149 0.27035 0.85016 0.0
C2694 C 0.43402 0.43164 0.84118 0.0
C2695 C 0.43361 0.44946 0.84894 0.0
C2696 C 0.41399 0.39292 0.84052 0.0
C2697 C 0.39309 0.37074 0.84762 0.0
C2698 C 0.39335 0.38867 0.85544 0.0
C2699 C 0.41315 0.42736 0.85608 0.0
H2700 H 0.65043 0.90373 0.03007 0.0
H2701 H 0.66879 0.91712 1.00224 0.0
H2702 H 0.68159 0.9702 0.03184 0.0
H2703 H 0.70209 0.98417 1.00401 0.0
H2704 H 0.72944 0.10421 1.00906 0.0
H2705 H 0.6996 0.03744 1.00666 0.0
H2706 H 0.73578 0.02465 0.03224 0.0
H2707 H 0.76319 0.09056 0.03473 0.0
C2708 C 0.66177 0.9209 0.02432 0.0
C2709 C 0.65709 0.90477 0.01601 0.0
C2710 C 0.68003 0.9594 0.02533 0.0
C2711 C 0.69501 0.98337 0.01809 0.0
C2712 C 0.69067 0.96712 1.00977 0.0
C2713 C 0.67177 0.92845 1.00874 0.0
C2714 C 0.73102 0.08697 1.01413 0.0
C2715 C 0.7485 0.10267 0.0221 0.0
C2716 C 0.71403 0.04854 1.01276 0.0
C2717 C 0.71458 0.02484 0.01928 0.0
C2718 C 0.73343 0.04121 0.02712 0.0
C2719 C 0.74966 0.07932 0.02854 0.0
H2720 H 0.93223 0.68261 0.03341 0.0
H2721 H 0.91895 0.62901 1.00854 0.0
H2722 H 0.9981 0.72075 0.03083 0.0
H2723 H 0.98577 0.66578 1.00609 0.0
H2724 H 0.10635 0.75502 1.00138 0.0
H2725 H 0.03922 0.72176 1.00302 0.0
H2726 H 0.0519 0.71934 0.03102 0.0
H2727 H 0.11843 0.75404 0.02937 0.0
C2728 C 0.94354 0.67894 0.02737 0.0
C2729 C 0.92035 0.65276 0.02119 0.0
C2730 C 0.9816 0.70061 0.02591 0.0
C2731 C 0.99805 0.69624 0.0183 0.0
C2732 C 0.97451 0.67047 1.012 0.0
C2733 C 0.9361 0.64919 1.0134 0.0
C2734 C 0.09472 0.74767 1.00789 0.0
C2735 C 0.11803 0.7576 0.01524 0.0
C2736 C 0.05604 0.72822 1.00884 0.0
C2737 C 0.03947 0.71766 0.01717 0.0
C2738 C 0.06304 0.72757 0.02449 0.0
C2739 C 0.10156 0.74745 0.02355 0.0
H2740 H 0.27871 0.36835 1.00157 0.0
H2741 H 0.25198 0.35159 0.02907 0.0
H2742 H 0.31162 0.33424 1.0029 0.0
H2743 H 0.28559 0.31817 0.03043 0.0
H2744 H 0.32252 0.23237 0.02882 0.0
H2745 H 0.28591 0.26264 0.02694 0.0
H2746 H 0.367 0.33936 1.0087 0.0
H2747 H 0.40304 0.30845 1.01047 0.0
C2748 C 0.27972 0.35736 1.00791 0.0
C2749 C 0.26251 0.3629 1.01521 0.0
C2750 C 0.29895 0.33794 1.00869 0.0
C2751 C 0.30163 0.3234 0.01678 0.0
C2752 C 0.28389 0.32844 0.02405 0.0
C2753 C 0.26465 0.34786 0.02328 0.0
C2754 C 0.3324 0.25557 0.02437 0.0
C2755 C 0.36578 0.268 0.01981 0.0
C2756 C 0.31151 0.27318 0.02333 0.0
C2757 C 0.32336 0.30374 0.01769 0.0
C2758 C 0.35656 0.31573 1.01303 0.0
C2759 C 0.37744 0.29811 1.01407 0.0
H2760 H 0.11716 0.34439 0.52841 0.0
H2761 H 0.10969 0.37662 0.50202 0.0
H2762 H 0.04999 0.31102 0.52951 0.0
H2763 H 0.04259 0.34228 0.503 0.0
H2764 H 0.9269 0.22914 0.52693 0.0
H2765 H 0.99385 0.25915 0.52518 0.0
H2766 H 0.99216 0.34379 0.50929 0.0
H2767 H 0.92517 0.3129 0.51082 0.0
C2768 C 0.10124 0.34399 0.52279 0.0
C2769 C 0.11911 0.36341 0.51513 0.0
C2770 C 0.0625 0.32461 0.52341 0.0
C2771 C 0.04038 0.32383 0.51636 0.0
C2772 C 0.05838 0.34267 0.50864 0.0
C2773 C 0.09707 0.36224 0.50805 0.0
C2774 C 0.94086 0.25401 0.52301 0.0
C2775 C 0.92065 0.26861 0.51902 0.0
C2776 C 0.9794 0.27148 0.52205 0.0
C2777 C 0.99892 0.30423 0.51712 0.0
C2778 C 0.97841 0.31844 0.51304 0.0
C2779 C 0.93986 0.30081 0.51395 0.0
H2780 H 0.6484 0.74184 0.50121 0.0
H2781 H 0.67364 0.77605 0.52815 0.0
H2782 H 0.68214 0.70854 0.50244 0.0
H2783 H 0.7064 0.7419 0.52946 0.0
H2784 H 0.70908 0.61856 0.51045 0.0
H2785 H 0.67865 0.65498 0.50863 0.0
H2786 H 0.75972 0.73921 0.52557 0.0
H2787 H 0.78928 0.70207 0.52759 0.0
C2788 C 0.66112 0.74233 0.50741 0.0
C2789 C 0.65816 0.76182 0.51457 0.0
C2790 C 0.68033 0.7229 0.50814 0.0
C2791 C 0.69708 0.72218 0.51607 0.0
C2792 C 0.69448 0.74209 0.5232 0.0
C2793 C 0.67542 0.76165 0.52245 0.0
C2794 C 0.72046 0.64493 0.51376 0.0
C2795 C 0.75151 0.65729 0.5192 0.0
C2796 C 0.70312 0.66603 0.51268 0.0
C2797 C 0.71646 0.70022 0.51697 0.0
C2798 C 0.74807 0.71282 0.52227 0.0
C2799 C 0.76528 0.69163 0.52338 0.0
H2800 H 0.28074 0.91179 0.50249 0.0
H2801 H 0.24558 0.90344 0.52934 0.0
H2802 H 0.31329 0.97888 0.50352 0.0
H2803 H 0.27912 0.97067 0.53047 0.0
H2804 H 0.40219 0.09644 0.51113 0.0
H2805 H 0.36648 0.02935 0.50966 0.0
H2806 H 0.28141 0.0264 0.52625 0.0
H2807 H 0.31786 0.09343 0.52791 0.0
C2808 C 0.27993 0.92422 0.50864 0.0
C2809 C 0.26044 0.90197 0.51584 0.0
C2810 C 0.29893 0.96289 0.50925 0.0
C2811 C 0.29925 0.98061 0.5171 0.0
C2812 C 0.27926 0.9583 0.52427 0.0
C2813 C 0.26008 0.91957 0.52364 0.0
C2814 C 0.37578 0.08145 0.51443 0.0
C2815 C 0.36296 0.1003 0.51966 0.0
C2816 C 0.3551 0.04287 0.51355 0.0
C2817 C 0.32086 0.02203 0.51785 0.0
C2818 C 0.30783 0.04117 0.52296 0.0
C2819 C 0.32862 0.07974 0.52386 0.0
H2820 H 0.04353 0.4386 0.36285 0.0
H2821 H 0.01728 0.44659 0.33593 0.0
H2822 H 1.00926 0.37147 0.36181 0.0
H2823 H 0.98387 0.37947 0.33482 0.0
H2824 H 0.90025 0.25677 0.33717 0.0
H2825 H 0.93033 0.32369 0.33898 0.0
H2826 H 1.01222 0.32098 0.35568 0.0
H2827 H 0.98135 0.25395 0.35405 0.0
C2828 C 0.03047 0.42613 0.35669 0.0
C2829 C 0.03333 0.44835 0.34948 0.0
C2830 C 1.01094 0.38743 0.35608 0.0
C2831 C 0.99373 0.36962 0.34821 0.0
C2832 C 0.99619 0.39188 0.34103 0.0
C2833 C 0.0156 0.4306 0.34166 0.0
C2834 C 0.92453 0.27047 0.34128 0.0
C2835 C 0.93842 0.24998 0.34544 0.0
C2836 C 0.94203 0.30899 0.34227 0.0
C2837 C 0.97404 0.32819 0.34744 0.0
C2838 C 0.98746 0.30741 0.35173 0.0
C2839 C 0.96986 0.26887 0.35076 0.0
H2840 H 0.76403 0.64749 0.33595 0.0
H2841 H 0.76735 0.73133 0.35295 0.0
H2842 H 0.69712 0.61087 0.33773 0.0
H2843 H 0.70025 0.69531 0.35457 0.0
H2844 H 0.57415 0.57541 0.33484 0.0
H2845 H 0.64137 0.60907 0.33362 0.0
H2846 H 0.65001 0.64132 0.36072 0.0
H2847 H 0.58295 0.60855 0.36186 0.0
C2848 C 0.75043 0.6581 0.34008 0.0
C2849 C 0.77105 0.69238 0.34429 0.0
C2850 C 0.71192 0.6372 0.34105 0.0
C2851 C 0.69287 0.65002 0.34626 0.0
C2852 C 0.71375 0.68415 0.35059 0.0
C2853 C 0.7523 0.70499 0.34963 0.0
C2854 C 0.59037 0.58946 0.34056 0.0
C2855 C 0.5729 0.58924 0.34844 0.0
C2856 C 0.62908 0.60873 0.33988 0.0
C2857 C 0.6515 0.62826 0.34706 0.0
C2858 C 0.63392 0.62731 0.35499 0.0
C2859 C 0.59527 0.60818 0.35566 0.0
H2860 H 0.35134 0.09574 0.33109 0.0
H2861 H 0.30828 0.06322 0.35718 0.0
H2862 H 0.38626 0.06399 0.33269 0.0
H2863 H 0.34552 0.03393 0.35917 0.0
H2864 H 0.38673 0.95243 0.35791 0.0
H2865 H 0.35282 0.98514 0.35642 0.0
H2866 H 0.43445 0.05995 0.33791 0.0
H2867 H 0.46655 0.02499 0.33897 0.0
C2868 C 0.34993 0.08233 0.33726 0.0
C2869 C 0.32696 0.08194 0.34401 0.0
C2870 C 0.37032 0.06423 0.33823 0.0
C2871 C 0.36919 0.04594 0.34608 0.0
C2872 C 0.34678 0.0466 0.35292 0.0
C2873 C 0.3256 0.06385 0.35184 0.0
C2874 C 0.39747 0.97596 0.35354 0.0
C2875 C 0.4294 0.98605 0.34856 0.0
C2876 C 0.37808 0.99512 0.35272 0.0
C2877 C 0.39049 0.02572 0.34705 0.0
C2878 C 0.42308 0.03619 0.34221 0.0
C2879 C 0.4419 0.01633 0.34286 0.0
H2880 H 0.15305 0.3056 0.07397 0.0
H2881 H 0.20154 0.42176 0.07985 0.0
H2882 H 0.14604 0.2915 0.08957 0.0
H2883 H 0.19583 0.4078 0.09542 0.0
H2884 H 0.1372 0.36515 0.12182 0.0
H2885 H 0.14796 0.38006 0.10634 0.0
H2886 H 0.17926 0.29688 0.10299 0.0
H2887 H 0.16863 0.282 0.11853 0.0
C2888 C 0.16241 0.32819 0.07858 0.0
C2889 C 0.17776 0.36485 0.0756 0.0
C2890 C 0.15875 0.32012 0.08755 0.0
C2891 C 0.17021 0.34846 0.0938 0.0
C2892 C 0.18622 0.38517 0.09082 0.0
C2893 C 0.18996 0.39324 0.08186 0.0
C2894 C 0.14692 0.35035 0.11784 0.0
C2895 C 0.1521 0.32237 0.12149 0.0
C2896 C 0.15308 0.35892 0.10892 0.0
C2897 C 0.16457 0.33976 0.10337 0.0
C2898 C 0.16994 0.3119 0.10702 0.0
C2899 C 0.16383 0.30335 0.11595 0.0
H2900 H 0.70169 0.80824 0.07479 0.0
H2901 H 0.61799 0.83859 0.07859 0.0
H2902 H 0.71773 0.81932 0.09021 0.0
H2903 H 0.63395 0.84946 0.09407 0.0
H2904 H 0.64387 0.8211 0.12289 0.0
H2905 H 0.62926 0.8151 0.10732 0.0
H2906 H 0.7455 0.86732 0.10117 0.0
H2907 H 0.76 0.87214 0.1167 0.0
C2908 C 0.68706 0.81785 0.07887 0.0
C2909 C 0.65852 0.82254 0.07539 0.0
C2910 C 0.69625 0.82417 0.08775 0.0
C2911 C 0.67716 0.83529 0.09342 0.0
C2912 C 0.64891 0.84041 0.08993 0.0
C2913 C 0.63975 0.83416 0.08104 0.0
C2914 C 0.66633 0.83126 0.11822 0.0
C2915 C 0.70313 0.847 0.12109 0.0
C2916 C 0.65797 0.82817 0.10928 0.0
C2917 C 0.68617 0.84059 0.10295 0.0
C2918 C 0.72301 0.85702 0.10583 0.0
C2919 C 0.73137 0.86022 0.11476 0.0
H2920 H 0.13205 0.83831 0.11907 0.0
H2921 H 0.25041 0.90957 0.12045 0.0
H2922 H 0.13695 0.83008 0.10339 0.0
H2923 H 0.25537 0.90037 0.10492 0.0
H2924 H 0.24868 0.91089 0.07555 0.0
H2925 H 0.24107 0.91781 0.09106 0.0
H2926 H 0.15954 0.80184 0.09278 0.0
H2927 H 0.16633 0.79512 0.07711 0.0
C2928 C 0.15912 0.85218 0.11605 0.0
C2929 C 0.19082 0.8746 0.12107 0.0
C2930 C 0.16196 0.84715 0.10707 0.0
C2931 C 0.19656 0.86464 0.10285 0.0
C2932 C 0.22821 0.88682 0.10789 0.0
C2933 C 0.22539 0.89172 0.11685 0.0
C2934 C 0.22871 0.8869 0.07918 0.0
C2935 C 0.20803 0.85245 0.07502 0.0
C2936 C 0.2247 0.89078 0.08813 0.0
C2937 C 0.19985 0.86035 0.09323 0.0
C2938 C 0.17877 0.82594 0.08907 0.0
C2939 C 0.18292 0.82201 0.08009 0.0
H2940 H 0.31157 0.1329 0.4563 0.0
H2941 H 0.42232 0.22219 0.45127 0.0
H2942 H 0.29806 0.12838 0.44075 0.0
H2943 H 0.40817 0.21897 0.43574 0.0
H2944 H 0.38526 0.17244 0.4078 0.0
H2945 H 0.39874 0.18105 0.42336 0.0
H2946 H 0.28714 0.15651 0.42851 0.0
H2947 H 0.27309 0.14594 0.41298 0.0
C2948 C 0.33304 0.15177 0.4519 0.0
C2949 C 0.36817 0.17776 0.45511 0.0
C2950 C 0.3251 0.1495 0.44294 0.0
C2951 C 0.352 0.17323 0.4369 0.0
C2952 C 0.38685 0.19983 0.44014 0.0
C2953 C 0.39483 0.20204 0.4491 0.0
C2954 C 0.36346 0.16866 0.41224 0.0
C2955 C 0.32795 0.1582 0.40906 0.0
C2956 C 0.37137 0.17409 0.4212 0.0
C2957 C 0.34406 0.1694 0.42728 0.0
C2958 C 0.30881 0.15987 0.42408 0.0
C2959 C 0.30087 0.15432 0.41512 0.0
H2960 H 0.82961 0.19096 0.40743 0.0
H2961 H 0.89809 0.14448 0.41424 0.0
H2962 H 0.82008 0.19755 0.42292 0.0
H2963 H 0.88754 0.14989 0.4297 0.0
H2964 H 0.89916 0.20963 0.45584 0.0
H2965 H 0.9055 0.19811 0.44052 0.0
H2966 H 0.79063 0.16338 0.43621 0.0
H2967 H 0.78416 0.17469 0.45158 0.0
C2968 C 0.84248 0.18194 0.41222 0.0
C2969 C 0.8647 0.16725 0.40955 0.0
C2970 C 0.83669 0.18537 0.42112 0.0
C2971 C 0.85311 0.17436 0.42759 0.0
C2972 C 0.87479 0.15907 0.42491 0.0
C2973 C 0.88047 0.15553 0.41603 0.0
C2974 C 0.87501 0.19891 0.45168 0.0
C2975 C 0.84112 0.19311 0.455 0.0
C2976 C 0.87869 0.19234 0.44286 0.0
C2977 C 0.84861 0.17985 0.43708 0.0
C2978 C 0.81456 0.17353 0.44042 0.0
C2979 C 0.81085 0.18002 0.44925 0.0
H2980 H 0.87026 0.75751 0.41352 0.0
H2981 H 0.82739 0.64254 0.40715 0.0
H2982 H 0.86482 0.7425 0.42903 0.0
H2983 H 0.82082 0.62735 0.4227 0.0
H2984 H 0.84472 0.61743 0.45152 0.0
H2985 H 0.85518 0.63403 0.43607 0.0
H2986 H 0.81697 0.71164 0.43994 0.0
H2987 H 0.80622 0.69489 0.45533 0.0
C2988 C 0.85997 0.72904 0.41541 0.0
C2989 C 0.84931 0.70128 0.40903 0.0
C2990 C 0.85641 0.72035 0.42434 0.0
C2991 C 0.84218 0.68365 0.42717 0.0
C2992 C 0.83217 0.65596 0.42079 0.0
C2993 C 0.83559 0.66463 0.41186 0.0
C2994 C 0.83839 0.63794 0.44908 0.0
C2995 C 0.82458 0.65475 0.45475 0.0
C2996 C 0.8444 0.64747 0.4402 0.0
C2997 C 0.83691 0.67419 0.43671 0.0
C2998 C 0.82364 0.69138 0.44239 0.0
C2999 C 0.81752 0.68178 0.45126 0.0
H3000 H 0.84519 0.63835 0.90767 0.0
H3001 H 0.89095 0.75487 0.91269 0.0
H3002 H 0.83634 0.62588 0.92328 0.0
H3003 H 0.88039 0.74218 0.92829 0.0
H3004 H 0.90008 0.71125 0.95585 0.0
H3005 H 0.90487 0.72488 0.94028 0.0
H3006 H 0.80177 0.62381 0.93587 0.0
H3007 H 0.79795 0.60925 0.95138 0.0
C3008 C 0.85316 0.66134 0.91209 0.0
C3009 C 0.86904 0.69769 0.90886 0.0
C3010 C 0.84764 0.65412 0.92107 0.0
C3011 C 0.85772 0.683 0.92711 0.0
C3012 C 0.87273 0.71924 0.92387 0.0
C3013 C 0.87833 0.72648 0.91488 0.0
C3014 C 0.87846 0.69181 0.95157 0.0
C3015 C 0.84875 0.65898 0.95493 0.0
C3016 C 0.88097 0.69988 0.94262 0.0
C3017 C 0.85379 0.67543 0.93675 0.0
C3018 C 0.82355 0.64309 0.94014 0.0
C3019 C 0.82108 0.63497 0.94909 0.0
H3020 H 0.34955 0.23719 0.90976 0.0
H3021 H 0.30823 0.11977 0.91143 0.0
H3022 H 0.36435 0.24347 0.92525 0.0
H3023 H 0.32178 0.1259 0.92708 0.0
H3024 H 0.38538 0.1586 0.95336 0.0
H3025 H 0.37206 0.15077 0.93771 0.0
H3026 H 0.33275 0.22844 0.93908 0.0
H3027 H 0.34732 0.23732 0.95457 0.0
C3028 C 0.34387 0.21269 0.91341 0.0
C3029 C 0.32775 0.17796 0.90929 0.0
C3030 C 0.35189 0.21623 0.92235 0.0
C3031 C 0.344 0.18517 0.92747 0.0
C3032 C 0.32845 0.15048 0.92334 0.0
C3033 C 0.32034 0.14691 0.91437 0.0
C3034 C 0.37406 0.17414 0.95032 0.0
C3035 C 0.36746 0.1986 0.95528 0.0
C3036 C 0.36608 0.16937 0.94134 0.0
C3037 C 0.35149 0.1891 0.93708 0.0
C3038 C 0.34446 0.21316 0.94208 0.0
C3039 C 0.35235 0.21786 0.95103 0.0
H3040 H 0.77528 0.11093 0.90961 0.0
H3041 H 0.89422 0.17668 0.91111 0.0
H3042 H 0.77082 0.12041 0.92513 0.0
H3043 H 0.88976 0.18502 0.92679 0.0
H3044 H 0.86325 0.22182 0.95315 0.0
H3045 H 0.86967 0.21515 0.93747 0.0
H3046 H 0.78328 0.10082 0.93891 0.0
H3047 H 0.77602 0.10779 0.95443 0.0
C3048 C 0.80054 0.12765 0.91323 0.0
C3049 C 0.83512 0.1431 0.90905 0.0
C3050 C 0.79799 0.13267 0.92219 0.0
C3051 C 0.82993 0.15327 0.92726 0.0
C3052 C 0.86455 0.16919 0.92309 0.0
C3053 C 0.86712 0.16408 0.9141 0.0
C3054 C 0.84553 0.19531 0.95011 0.0
C3055 C 0.81914 0.16535 0.95509 0.0
C3056 C 0.84945 0.19139 0.94112 0.0
C3057 C 0.82689 0.15748 0.93688 0.0
C3058 C 0.80081 0.12749 0.9419 0.0
C3059 C 0.79699 0.13137 0.95086 0.0
H3060 H 0.60061 0.83108 0.57943 0.0
H3061 H 0.71626 0.8751 0.57363 0.0
H3062 H 0.61406 0.83503 0.59502 0.0
H3063 H 0.72989 0.88021 0.58924 0.0
H3064 H 0.73685 0.85353 0.618 0.0
H3065 H 0.72185 0.84441 0.60246 0.0
H3066 H 0.64395 0.88242 0.60609 0.0
H3067 H 0.65907 0.89179 0.62157 0.0
C3068 C 0.62889 0.84131 0.58147 0.0
C3069 C 0.65733 0.8528 0.57524 0.0
C3070 C 0.63668 0.84401 0.59043 0.0
C3071 C 0.67312 0.85815 0.59342 0.0
C3072 C 0.70147 0.86891 0.58719 0.0
C3073 C 0.69369 0.86635 0.57823 0.0
C3074 C 0.71664 0.86012 0.61549 0.0
C3075 C 0.69919 0.87339 0.6211 0.0
C3076 C 0.70802 0.85487 0.60656 0.0
C3077 C 0.68164 0.86264 0.60299 0.0
C3078 C 0.66393 0.87552 0.60861 0.0
C3079 C 0.6726 0.88086 0.61753 0.0
H3080 H 0.14022 0.84083 0.57484 0.0
H3081 H 0.22759 0.8165 0.57963 0.0
H3082 H 0.1368 0.85054 0.59041 0.0
H3083 H 0.22552 0.82814 0.59516 0.0
H3084 H 0.1783 0.80429 0.62311 0.0
H3085 H 0.18706 0.79978 0.60753 0.0
H3086 H 0.16641 0.88956 0.60259 0.0
H3087 H 0.15571 0.89275 0.61813 0.0
C3088 C 0.15893 0.83781 0.57919 0.0
C3089 C 0.18399 0.82757 0.57592 0.0
C3090 C 0.1573 0.84387 0.58815 0.0
C3091 C 0.18079 0.84004 0.59411 0.0
C3092 C 0.20659 0.83085 0.59081 0.0
C3093 C 0.20815 0.82467 0.58186 0.0
C3094 C 0.17547 0.82301 0.61871 0.0
C3095 C 0.16599 0.84871 0.62193 0.0
C3096 C 0.18098 0.82074 0.60975 0.0
C3097 C 0.17733 0.84419 0.60373 0.0
C3098 C 0.16893 0.87063 0.60698 0.0
C3099 C 0.1633 0.87283 0.61594 0.0
H3100 H 0.24978 0.34318 0.57707 0.0
H3101 H 0.16824 0.37763 0.57793 0.0
H3102 H 0.24091 0.32906 0.5926 0.0
H3103 H 0.16028 0.36465 0.59361 0.0
H3104 H 0.12983 0.30072 0.61996 0.0
H3105 H 0.13629 0.31413 0.60429 0.0
H3106 H 0.25433 0.36072 0.60642 0.0
H3107 H 0.24779 0.34623 0.62194 0.0
C3108 C 0.22974 0.34755 0.58055 0.0
C3109 C 0.20964 0.36145 0.57618 0.0
C3110 C 0.22501 0.3399 0.58952 0.0
C3111 C 0.20003 0.3459 0.59442 0.0
C3112 C 0.17958 0.35943 0.59005 0.0
C3113 C 0.18442 0.36723 0.58106 0.0
C3114 C 0.15715 0.31368 0.61708 0.0
C3115 C 0.18827 0.32236 0.62226 0.0
C3116 C 0.16089 0.3217 0.60809 0.0
C3117 C 0.19583 0.3384 0.60404 0.0
C3118 C 0.22692 0.34741 0.60926 0.0
C3119 C 0.2232 0.33952 0.61822 0.0
H3120 H 0.97706 0.52541 0.74348 0.0
H3121 H 1.01136 0.44374 0.74253 0.0
H3122 H 0.99052 0.53352 0.75912 0.0
H3123 H 0.02614 0.4529 0.75802 0.0
H3124 H 1.01006 0.44608 0.78736 0.0
H3125 H 0.99518 0.43948 0.77187 0.0
H3126 H 0.04052 0.55741 0.76976 0.0
H3127 H 0.05412 0.56389 0.7854 0.0
C3128 C 0.98758 0.50927 0.74658 0.0
C3129 C 0.99308 0.48389 0.74169 0.0
C3130 C 0.99566 0.5142 0.75555 0.0
C3131 C 1.00927 0.49375 0.75989 0.0
C3132 C 0.01519 0.46877 0.75496 0.0
C3133 C 1.0072 0.46389 0.74602 0.0
C3134 C 0.01634 0.47062 0.78365 0.0
C3135 C 0.03324 0.50554 0.7877 0.0
C3136 C 1.00827 0.46688 0.77471 0.0
C3137 C 0.0169 0.49793 0.7695 0.0
C3138 C 0.03326 0.53283 0.77355 0.0
C3139 C 0.0414 0.53659 0.78252 0.0
H3140 H 0.56712 0.4796 0.74648 0.0
H3141 H 0.50878 0.53737 0.74012 0.0
H3142 H 0.55808 0.48566 0.76199 0.0
H3143 H 0.50083 0.54455 0.75566 0.0
H3144 H 0.46422 0.52213 0.78435 0.0
H3145 H 0.46922 0.51125 0.76887 0.0
H3146 H 0.58055 0.53336 0.77305 0.0
H3147 H 0.57572 0.54448 0.78847 0.0
C3148 C 0.55205 0.49331 0.74837 0.0
C3149 C 0.53868 0.50796 0.742 0.0
C3150 C 0.54727 0.49721 0.7573 0.0
C3151 C 0.5289 0.5158 0.76013 0.0
C3152 C 0.51487 0.52981 0.75375 0.0
C3153 C 0.51976 0.52602 0.74482 0.0
C3154 C 0.48986 0.52485 0.78197 0.0
C3155 C 0.51954 0.53421 0.78772 0.0
C3156 C 0.49272 0.51859 0.77307 0.0
C3157 C 0.5253 0.52141 0.76966 0.0
C3158 C 0.55479 0.53032 0.77544 0.0
C3159 C 0.55198 0.53666 0.78432 0.0
H3160 H 0.57099 0.05102 0.74436 0.0
H3161 H 0.45414 0.01245 0.74279 0.0
H3162 H 0.56464 0.03724 0.76 0.0
H3163 H 0.4476 0.99746 0.75828 0.0
H3164 H 0.45403 0.01334 0.78765 0.0
H3165 H 0.46311 0.02835 0.77217 0.0
H3166 H 0.5389 0.9868 0.7706 0.0
H3167 H 0.53086 0.97301 0.78624 0.0
C3168 C 0.54393 0.0395 0.74732 0.0
C3169 C 0.5131 0.03289 0.74226 0.0
C3170 C 0.54022 0.03124 0.75629 0.0
C3171 C 0.50562 0.01636 0.76045 0.0
C3172 C 0.47478 0.00937 0.75536 0.0
C3173 C 0.47846 0.01751 0.74641 0.0
C3174 C 0.47312 1.0079 0.78407 0.0
C3175 C 0.49178 0.99202 0.78827 0.0
C3176 C 0.47793 0.01605 0.77512 0.0
C3177 C 0.50154 1.00856 0.77007 0.0
C3178 C 0.52067 0.99318 0.77427 0.0
C3179 C 0.51577 0.98493 0.78324 0.0
H3180 H 0.49326 0.04546 0.24413 0.0
H3181 H 0.57009 1.00517 0.24246 0.0
H3182 H 0.48684 0.03294 0.25984 0.0
H3183 H 0.5626 0.99143 0.25801 0.0
H3184 H 0.57598 0.01187 0.2872 0.0
H3185 H 0.58014 0.0248 0.27162 0.0
H3186 H 0.4626 0.98321 0.27073 0.0
H3187 H 0.45861 0.97146 0.28647 0.0
C3188 C 0.50863 0.03376 0.24709 0.0
C3189 C 0.53222 0.02637 0.24199 0.0
C3190 C 0.50468 0.02626 0.25609 0.0
C3191 C 0.52437 0.01137 0.26023 0.0
C3192 C 0.54741 1.0034 0.25509 0.0
C3193 C 0.5513 0.01081 0.24612 0.0
C3194 C 0.55104 1.00597 0.28374 0.0
C3195 C 0.51696 0.99072 0.28814 0.0
C3196 C 0.55335 0.01292 0.27475 0.0
C3197 C 0.52167 1.00479 0.26987 0.0
C3198 C 0.48762 0.99002 0.27428 0.0
C3199 C 0.48527 0.98296 0.2833 0.0
H3200 H 0.97521 0.52567 0.28988 0.0
H3201 H 0.08646 0.54805 0.28529 0.0
H3202 H 0.96261 0.51662 0.27429 0.0
H3203 H 0.07323 0.53709 0.26972 0.0
H3204 H 0.05173 0.5618 0.24172 0.0
H3205 H 0.0643 0.56602 0.25733 0.0
H3206 H 0.95275 0.47771 0.26206 0.0
H3207 H 0.9396 0.47483 0.24648 0.0
C3208 C 0.99699 0.52847 0.28556 0.0
C3209 C 0.03201 0.53795 0.2889 0.0
C3210 C 0.98957 0.52276 0.27659 0.0
C3211 C 0.01689 0.5262 0.27067 0.0
C3212 C 0.05161 0.53471 0.27403 0.0
C3213 C 0.05907 0.54052 0.28301 0.0
C3214 C 0.02975 0.54337 0.24608 0.0
C3215 C 0.9945 0.51818 0.24279 0.0
C3216 C 0.03714 0.54546 0.25506 0.0
C3217 C 1.00955 0.52231 0.26103 0.0
C3218 C 0.97459 0.4964 0.25771 0.0
C3219 C 0.96716 0.49439 0.24873 0.0
H3220 H 0.54993 0.53698 0.24185 0.0
H3221 H 0.46941 0.42196 0.24601 0.0
H3222 H 0.54692 0.54927 0.25735 0.0
H3223 H 0.46625 0.43417 0.26142 0.0
H3224 H 0.49083 0.45844 0.29007 0.0
H3225 H 0.50024 0.44921 0.2748 0.0
H3226 H 0.50681 0.55273 0.26814 0.0
H3227 H 0.49918 0.56284 0.28351 0.0
C3228 C 0.53145 0.51434 0.24605 0.0
C3229 C 0.51009 0.47842 0.24266 0.0
C3230 C 0.5297 0.52138 0.25496 0.0
C3231 C 0.50649 0.4927 0.2607 0.0
C3232 C 0.48508 0.45685 0.25727 0.0
C3233 C 0.48687 0.44982 0.2484 0.0
C3234 C 0.49505 0.47966 0.2854 0.0
C3235 C 0.49411 0.51137 0.28808 0.0
C3236 C 0.49991 0.47408 0.27659 0.0
C3237 C 0.50389 0.49999 0.27017 0.0
C3238 C 0.50406 0.53223 0.27288 0.0
C3239 C 0.49925 0.53785 0.2817 0.0
H3240 H 0.93142 0.15383 0.28059 0.0
H3241 H 0.03718 0.18947 0.29274 0.0
H3242 H 0.96056 0.16734 0.26625 0.0
H3243 H 0.06639 0.20305 0.27837 0.0
H3244 H 0.09908 0.18452 0.25102 0.0
H3245 H 0.07064 0.17312 0.26542 0.0
H3246 H 1.00146 0.21618 0.25662 0.0
H3247 H 0.02877 0.22604 0.24208 0.0
C3248 C 0.96099 0.16501 0.28023 0.0
C3249 C 0.98184 0.17052 0.28788 0.0
C3250 C 0.97777 0.17278 0.27197 0.0
C3251 C 0.01593 0.18631 0.27109 0.0
C3252 C 0.03685 0.1921 0.27875 0.0
C3253 C 0.02006 0.18431 0.28701 0.0
C3254 C 0.07756 0.19126 0.25211 0.0
C3255 C 0.0662 0.20605 0.24531 0.0
C3256 C 0.06153 0.18516 0.26043 0.0
C3257 C 0.03364 0.19369 0.26224 0.0
C3258 C 0.02251 0.20882 0.25547 0.0
C3259 C 0.03855 0.21492 0.24714 0.0
H3260 H 0.85933 0.77297 0.28005 0.0
H3261 H 0.85159 0.86366 0.2912 0.0
H3262 H 0.8473 0.78901 0.26559 0.0
H3263 H 0.83936 0.87963 0.27674 0.0
H3264 H 0.85785 0.92229 0.2486 0.0
H3265 H 0.86852 0.9053 0.26306 0.0
H3266 H 0.80141 0.78983 0.25643 0.0
H3267 H 0.7922 0.80683 0.2418 0.0
C3268 C 0.85458 0.79606 0.27945 0.0
C3269 C 0.85649 0.81697 0.28685 0.0
C3270 C 0.84766 0.8053 0.27113 0.0
C3271 C 0.84238 0.83573 0.26993 0.0
C3272 C 0.84392 0.85642 0.27734 0.0
C3273 C 0.85091 0.84721 0.28567 0.0
C3274 C 0.84568 0.89324 0.25016 0.0
C3275 C 0.82426 0.86602 0.24394 0.0
C3276 C 0.85139 0.88345 0.25854 0.0
C3277 C 0.83582 0.84611 0.26099 0.0
C3278 C 0.81425 0.81887 0.25479 0.0
C3279 C 0.80856 0.82866 0.2464 0.0
H3280 H 0.25408 0.06239 0.28396 0.0
H3281 H 0.13725 0.01038 0.2894 0.0
H3282 H 0.24043 0.03389 0.2695 0.0
H3283 H 0.12363 0.98309 0.27486 0.0
H3284 H 0.11073 0.91046 0.25145 0.0
H3285 H 0.12617 0.93687 0.26607 0.0
H3286 H 0.21606 0.0376 0.25543 0.0
H3287 H 0.20056 0.01115 0.24078 0.0
C3288 C 0.22547 0.04473 0.28211 0.0
C3289 C 0.19681 0.03881 0.28789 0.0
C3290 C 0.21762 0.02872 0.27375 0.0
C3291 C 0.18088 1.00617 0.27095 0.0
C3292 C 0.15226 0.99992 0.27678 0.0
C3293 C 0.1601 0.01598 0.28511 0.0
C3294 C 0.13364 0.93836 0.2522 0.0
C3295 C 0.15419 0.95866 0.24487 0.0
C3296 C 0.14254 0.95355 0.26061 0.0
C3297 C 0.17229 0.98954 0.26198 0.0
C3298 C 0.19325 0.00966 0.25468 0.0
C3299 C 0.18433 0.99445 0.24625 0.0
H3300 H 0.9722 0.87663 0.78497 0.0
H3301 H 0.96812 0.7714 0.78545 0.0
H3302 H 0.99915 0.88853 0.7704 0.0
H3303 H 0.99645 0.78395 0.77096 0.0
H3304 H 1.01078 0.80261 0.74103 0.0
H3305 H 0.98379 0.78916 0.75567 0.0
H3306 H 0.05548 0.90313 0.76298 0.0
H3307 H 0.08238 0.91652 0.74841 0.0
C3308 C 0.97699 0.85595 0.78197 0.0
C3309 C 0.96777 0.82296 0.78642 0.0
C3310 C 0.99292 0.863 0.77363 0.0
C3311 C 1.00016 0.83729 0.76946 0.0
C3312 C 0.99099 0.80427 0.77391 0.0
C3313 C 0.97512 0.79725 0.78228 0.0
C3314 C 0.02101 0.82475 0.74578 0.0
C3315 C 0.04862 0.86076 0.74347 0.0
C3316 C 1.00552 0.81702 0.7542 0.0
C3317 C 0.01722 0.84508 0.76054 0.0
C3318 C 0.04516 0.88094 0.75825 0.0
C3319 C 0.06061 0.88865 0.74985 0.0
H3320 H 0.18942 0.25962 0.74831 0.0
H3321 H 0.11982 0.1421 0.74446 0.0
H3322 H 0.20537 0.24836 0.76289 0.0
H3323 H 0.1358 0.13084 0.759 0.0
H3324 H 0.14158 0.12414 0.78863 0.0
H3325 H 0.12596 0.13715 0.77423 0.0
H3326 H 0.23897 0.22415 0.77061 0.0
H3327 H 0.25427 0.21205 0.78516 0.0
C3328 C 0.17777 0.23135 0.75053 0.0
C3329 C 0.15317 0.20181 0.74518 0.0
C3330 C 0.18694 0.22487 0.75891 0.0
C3331 C 0.17179 0.18866 0.76219 0.0
C3332 C 0.14747 0.15914 0.7568 0.0
C3333 C 0.1383 0.16561 0.74843 0.0
C3334 C 0.16304 0.14641 0.78483 0.0
C3335 C 0.19923 0.16702 0.78811 0.0
C3336 C 0.15417 0.15357 0.77649 0.0
C3337 C 0.1812 0.18161 0.77118 0.0
C3338 C 0.2173 0.20254 0.77451 0.0
C3339 C 0.22619 0.19532 0.78284 0.0
H3340 H 0.85826 0.99568 0.79076 0.0
H3341 H 0.87956 0.09906 0.77938 0.0
H3342 H 0.84331 0.96706 0.77633 0.0
H3343 H 0.86354 0.07014 0.76498 0.0
H3344 H 0.87501 0.01733 0.7396 0.0
H3345 H 0.8883 0.04602 0.75402 0.0
H3346 H 0.79679 0.94696 0.76484 0.0
H3347 H 0.78416 0.91787 0.75046 0.0
C3348 C 0.85974 0.01232 0.78518 0.0
C3349 C 0.87027 0.04976 0.78625 0.0
C3350 C 0.85076 0.99578 0.77691 0.0
C3351 C 0.85221 0.01625 0.76947 0.0
C3352 C 0.86247 0.05361 0.77055 0.0
C3353 C 0.87128 0.07011 0.77883 0.0
C3354 C 0.85784 1.00157 0.74506 0.0
C3355 C 0.82857 0.9652 0.74385 0.0
C3356 C 0.86522 0.01818 0.75332 0.0
C3357 C 0.84365 0.99884 0.76062 0.0
C3358 C 0.81422 0.96257 0.7594 0.0
C3359 C 0.80672 0.94601 0.75112 0.0
H3360 H 0.61714 0.53327 0.61649 0.0
H3361 H 0.66873 0.46768 0.62127 0.0
H3362 H 0.64544 0.54922 0.602 0.0
H3363 H 0.69569 0.48233 0.60671 0.0
H3364 H 0.76836 0.54333 0.58351 0.0
H3365 H 0.74194 0.53158 0.59813 0.0
H3366 H 0.64187 0.52276 0.58772 0.0
H3367 H 0.66852 0.53478 0.57305 0.0
C3368 C 0.63464 0.52237 0.61448 0.0
C3369 C 0.64054 0.49911 0.62009 0.0
C3370 C 0.65052 0.53116 0.60611 0.0
C3371 C 0.67288 0.51706 0.60312 0.0
C3372 C 0.67903 0.49411 0.60878 0.0
C3373 C 0.66314 0.4853 0.61712 0.0
C3374 C 0.7406 0.53864 0.58431 0.0
C3375 C 0.72051 0.53969 0.57705 0.0
C3376 C 0.7254 0.53187 0.59272 0.0
C3377 C 0.68956 0.52588 0.59415 0.0
C3378 C 0.66968 0.52763 0.58692 0.0
C3379 C 0.68496 0.53449 0.57848 0.0
H3380 H 0.57993 0.17645 0.6156 0.0
H3381 H 0.46383 0.11497 0.62206 0.0
H3382 H 0.56486 0.1887 0.60108 0.0
H3383 H 0.44866 0.12598 0.60738 0.0
H3384 H 0.43811 0.18803 0.58361 0.0
H3385 H 0.45171 0.1743 0.59816 0.0
H3386 H 0.53857 0.159 0.58739 0.0
H3387 H 0.52498 0.17276 0.57284 0.0
C3388 C 0.55114 0.1656 0.61395 0.0
C3389 C 0.52315 0.14483 0.62008 0.0
C3390 C 0.54245 0.17222 0.60555 0.0
C3391 C 0.50549 0.15827 0.60299 0.0
C3392 C 0.47745 0.1375 0.60911 0.0
C3393 C 0.48615 0.13082 0.61752 0.0
C3394 C 0.45982 0.18128 0.58431 0.0
C3395 C 0.48045 0.18161 0.577 0.0
C3396 C 0.46765 0.17341 0.59268 0.0
C3397 C 0.49638 0.16563 0.59401 0.0
C3398 C 0.51671 0.16552 0.58668 0.0
C3399 C 0.50888 0.1734 0.57831 0.0
H3400 H 0.9247 0.39409 0.61802 0.0
H3401 H 0.81842 0.38768 0.61761 0.0
H3402 H 0.91199 0.36453 0.60368 0.0
H3403 H 0.80633 0.35947 0.60319 0.0
H3404 H 0.77889 0.27453 0.58165 0.0
H3405 H 0.7925 0.30276 0.59608 0.0
H3406 H 0.90571 0.37556 0.58832 0.0
H3407 H 0.89205 0.34725 0.57384 0.0
C3408 C 0.89859 0.38633 0.61489 0.0
C3409 C 0.87264 0.39339 0.61901 0.0
C3410 C 0.89147 0.36974 0.60661 0.0
C3411 C 0.8581 0.35954 0.60223 0.0
C3412 C 0.83215 0.3665 0.60637 0.0
C3413 C 0.8393 0.38315 0.61462 0.0
C3414 C 0.80663 0.29682 0.58297 0.0
C3415 C 0.83425 0.30871 0.5765 0.0
C3416 C 0.81447 0.31304 0.59127 0.0
C3417 C 0.85019 0.34168 0.5934 0.0
C3418 C 0.87798 0.35331 0.58698 0.0
C3419 C 0.87012 0.33706 0.57865 0.0
H3420 H 0.69269 0.14503 0.07483 0.0
H3421 H 0.76239 0.25801 0.08317 0.0
H3422 H 0.66641 0.1285 0.08948 0.0
H3423 H 0.73489 0.24187 0.09767 0.0
H3424 H 0.70447 0.19446 0.12525 0.0
H3425 H 0.73238 0.20918 0.11074 0.0
H3426 H 0.62587 0.13616 0.09923 0.0
H3427 H 0.59806 0.12135 0.11372 0.0
C3428 C 0.70252 0.16638 0.07978 0.0
C3429 C 0.72974 0.20293 0.07776 0.0
C3430 C 0.68707 0.15697 0.08818 0.0
C3431 C 0.69837 0.18381 0.09481 0.0
C3432 C 0.72571 0.22029 0.0928 0.0
C3433 C 0.74117 0.22969 0.08441 0.0
C3434 C 0.68694 0.18165 0.11962 0.0
C3435 C 0.64893 0.15668 0.1207 0.0
C3436 C 0.70297 0.19015 0.11128 0.0
C3437 C 0.68146 0.17398 0.10375 0.0
C3438 C 0.64351 0.14876 0.10484 0.0
C3439 C 0.6275 0.14023 0.11319 0.0
H3440 H 0.83831 0.42946 0.11471 0.0
H3441 H 0.89062 0.54419 0.12232 0.0
H3442 H 0.82502 0.44517 0.10038 0.0
H3443 H 0.87885 0.56019 0.10781 0.0
H3444 H 0.81515 0.56919 0.08424 0.0
H3445 H 0.83009 0.55505 0.09861 0.0
H3446 H 0.85308 0.47469 0.08693 0.0
H3447 H 0.83791 0.48868 0.07258 0.0
C3448 C 0.84699 0.45809 0.11335 0.0
C3449 C 0.86542 0.48546 0.11976 0.0
C3450 C 0.8398 0.46721 0.10505 0.0
C3451 C 0.85087 0.50403 0.10286 0.0
C3452 C 0.86949 0.53147 0.10925 0.0
C3453 C 0.87668 0.52233 0.11757 0.0
C3454 C 0.82377 0.54878 0.08471 0.0
C3455 C 0.82513 0.53002 0.0772 0.0
C3456 C 0.83239 0.54065 0.09298 0.0
C3457 C 0.84271 0.51356 0.094 0.0
C3458 C 0.84456 0.49519 0.08647 0.0
C3459 C 0.83587 0.50326 0.07821 0.0
H3460 H 0.5951 0.42223 0.11357 0.0
H3461 H 0.48115 0.35727 0.12168 0.0
H3462 H 0.57862 0.39427 0.09912 0.0
H3463 H 0.46463 0.32939 0.10719 0.0
H3464 H 0.44324 0.31302 0.07755 0.0
H3465 H 0.45905 0.34213 0.09194 0.0
H3466 H 0.55914 0.33611 0.09192 0.0
H3467 H 0.54337 0.30708 0.07758 0.0
C3468 C 0.56655 0.40175 0.11231 0.0
C3469 C 0.53956 0.39196 0.11886 0.0
C3470 C 0.55707 0.38569 0.104 0.0
C3471 C 0.52028 0.35937 0.10196 0.0
C3472 C 0.49317 0.34988 0.10846 0.0
C3473 C 0.50267 0.36592 0.1168 0.0
C3474 C 0.46852 0.3177 0.08063 0.0
C3475 C 0.49205 0.30775 0.07634 0.0
C3476 C 0.47759 0.3344 0.0889 0.0
C3477 C 0.51046 0.34163 0.09312 0.0
C3478 C 0.53394 0.33165 0.08883 0.0
C3479 C 0.52489 0.31498 0.08057 0.0
H3480 H 0.42422 0.85329 0.91582 0.0
H3481 H 0.33519 0.86817 0.90643 0.0
H3482 H 0.39643 0.83863 0.9303 0.0
H3483 H 0.30725 0.8534 0.92098 0.0
H3484 H 0.28547 0.85806 0.95034 0.0
H3485 H 0.31439 0.87524 0.93593 0.0
H3486 H 0.34449 0.79069 0.93797 0.0
H3487 H 0.31689 0.7745 0.95247 0.0
C3488 C 0.39849 0.8531 0.91681 0.0
C3489 C 0.38188 0.86165 0.90988 0.0
C3490 C 0.3825 0.84467 0.92515 0.0
C3491 C 0.34936 0.84451 0.92685 0.0
C3492 C 0.33298 0.85361 0.91996 0.0
C3493 C 0.34902 0.86208 0.9116 0.0
C3494 C 0.29861 0.84338 0.94776 0.0
C3495 C 0.29874 0.81483 0.95261 0.0
C3496 C 0.31484 0.85297 0.93943 0.0
C3497 C 0.33186 0.8344 0.93573 0.0
C3498 C 0.33209 0.80596 0.94061 0.0
C3499 C 0.3158 0.79633 0.94891 0.0
H3500 H 0.14928 0.46777 0.95573 0.0
H3501 H 0.26008 0.50338 0.94677 0.0
H3502 H 0.13249 0.47712 0.94109 0.0
H3503 H 0.24377 0.51432 0.93225 0.0
H3504 H 0.19354 0.49626 0.90492 0.0
H3505 H 0.20872 0.48385 0.91946 0.0
H3506 H 0.14218 0.52506 0.93101 0.0
H3507 H 0.12697 0.53736 0.9165 0.0
C3508 C 0.17011 0.47752 0.95065 0.0
C3509 C 0.20613 0.48481 0.95251 0.0
C3510 C 0.16057 0.48334 0.94225 0.0
C3511 C 0.18673 0.49661 0.93543 0.0
C3512 C 0.22268 0.5037 0.93727 0.0
C3513 C 0.23221 0.49788 0.94567 0.0
C3514 C 0.18228 0.50288 0.91056 0.0
C3515 C 0.15894 0.51782 0.90948 0.0
C3516 C 0.19103 0.49577 0.91892 0.0
C3517 C 0.17677 0.50344 0.92647 0.0
C3518 C 0.15325 0.51817 0.92539 0.0
C3519 C 0.14448 0.52524 0.91703 0.0
H3520 H 0.53513 0.62281 0.91414 0.0
H3521 H 0.47406 0.67802 0.90801 0.0
H3522 H 0.54973 0.65174 0.92854 0.0
H3523 H 0.48746 0.70578 0.9225 0.0
H3524 H 0.54752 0.77828 0.94593 0.0
H3525 H 0.53671 0.75134 0.93137 0.0
H3526 H 0.52056 0.64923 0.94242 0.0
H3527 H 0.53131 0.67619 0.95701 0.0
C3528 C 0.52497 0.64127 0.91583 0.0
C3529 C 0.50334 0.64797 0.90987 0.0
C3530 C 0.53297 0.65753 0.92415 0.0
C3531 C 0.51972 0.6811 0.92674 0.0
C3532 C 0.49849 0.68813 0.92074 0.0
C3533 C 0.49042 0.67182 0.91243 0.0
C3534 C 0.54138 0.74997 0.94529 0.0
C3535 C 0.54011 0.72943 0.95271 0.0
C3536 C 0.53519 0.73448 0.93691 0.0
C3537 C 0.52756 0.69797 0.93568 0.0
C3538 C 0.52681 0.67757 0.94308 0.0
C3539 C 0.53299 0.69307 0.95147 0.0
H3540 H 0.3297 0.54715 0.45379 0.0
H3541 H 0.29455 0.43129 0.45125 0.0
H3542 H 0.35552 0.55838 0.43913 0.0
H3543 H 0.32186 0.44284 0.43666 0.0
H3544 H 0.33815 0.47164 0.40713 0.0
H3545 H 0.31289 0.45836 0.42194 0.0
H3546 H 0.40537 0.56113 0.43088 0.0
H3547 H 0.43036 0.57441 0.41612 0.0
C3548 C 0.32751 0.52402 0.45011 0.0
C3549 C 0.30981 0.48826 0.45373 0.0
C3550 C 0.34277 0.53056 0.44171 0.0
C3551 C 0.34091 0.50156 0.43666 0.0
C3552 C 0.32351 0.4658 0.4403 0.0
C3553 C 0.30823 0.45926 0.44873 0.0
C3554 C 0.35323 0.49124 0.41227 0.0
C3555 C 0.38613 0.52429 0.41038 0.0
C3556 C 0.33877 0.4836 0.42078 0.0
C3557 C 0.35689 0.50877 0.42764 0.0
C3558 C 0.39016 0.54144 0.42576 0.0
C3559 C 0.40453 0.54909 0.41727 0.0
H3560 H 0.46308 0.79775 0.40782 0.0
H3561 H 0.51602 0.91377 0.41422 0.0
H3562 H 0.47931 0.78485 0.42217 0.0
H3563 H 0.53324 0.90099 0.42851 0.0
H3564 H 0.51888 0.85637 0.45683 0.0
H3565 H 0.50526 0.87141 0.4424 0.0
H3566 H 0.53212 0.79388 0.43069 0.0
H3567 H 0.54598 0.77902 0.44509 0.0
C3568 C 0.47818 0.82054 0.41229 0.0
C3569 C 0.48809 0.8568 0.40984 0.0
C3570 C 0.48787 0.81319 0.4205 0.0
C3571 C 0.50766 0.84186 0.42653 0.0
C3572 C 0.51771 0.87816 0.42408 0.0
C3573 C 0.50817 0.88555 0.41584 0.0
C3574 C 0.52236 0.84285 0.45118 0.0
C3575 C 0.53338 0.81628 0.45218 0.0
C3576 C 0.51451 0.85148 0.44289 0.0
C3577 C 0.51736 0.83374 0.43535 0.0
C3578 C 0.52892 0.80761 0.43634 0.0
C3579 C 0.53685 0.79905 0.44462 0.0
H3580 H 0.16937 0.65028 0.45957 0.0
H3581 H 0.20605 0.75708 0.44783 0.0
H3582 H 0.15606 0.62211 0.44509 0.0
H3583 H 0.1929 0.729 0.43338 0.0
H3584 H 0.13478 0.66267 0.409 0.0
H3585 H 0.14421 0.68895 0.42363 0.0
H3586 H 0.18661 0.61881 0.43215 0.0
H3587 H 0.17559 0.59136 0.41765 0.0
C3588 C 0.1748 0.66782 0.4539 0.0
C3589 C 0.18881 0.70602 0.45491 0.0
C3590 C 0.16718 0.65165 0.44558 0.0
C3591 C 0.17342 0.6732 0.43802 0.0
C3592 C 0.18714 0.71135 0.43903 0.0
C3593 C 0.19471 0.7275 0.44735 0.0
C3594 C 0.14566 0.65247 0.41401 0.0
C3595 C 0.15444 0.62485 0.41209 0.0
C3596 C 0.15151 0.6679 0.4224 0.0
C3597 C 0.16631 0.65617 0.42911 0.0
C3598 C 0.17481 0.62834 0.4272 0.0
C3599 C 0.16893 0.6129 0.41882 0.0
loop_
_geom_bond_atom_site_label_1
_geom_bond_atom_site_label_2
_geom_bond_distance
_geom_bond_site_symmetry_2
_ccdc_geom_bond_type
Sm0 C2 2.846 . S
Sm0 O20 2.543 . S
Sm0 O21 2.450 . S
Sm0 O22 2.681 . S
Sm0 O23 2.464 . S
Sm0 O24 2.396 . S
Sm0 O28 2.386 . S
Sm0 O31 2.408 . S
Sm1 C11 2.846 . S
Sm1 O22 2.386 . S
Sm1 O25 2.408 . S
Sm1 O26 2.543 . S
Sm1 O27 2.450 . S
Sm1 O28 2.681 . S
Sm1 O29 2.464 . S
Sm1 O30 2.396 . S
C2 Sm0 2.846 . S
C2 C3 1.506 . S
C2 O20 1.261 . S
C2 O21 1.242 . S
C3 C2 1.506 . S
C3 C4 1.358 . S
C3 C8 1.382 . S
C4 C3 1.358 . S
C4 C5 1.385 . S
C4 H32 0.930 . S
C5 C4 1.385 . S
C5 C6 1.395 . S
C5 H33 0.929 . S
C6 C5 1.395 . S
C6 C7 1.335 . S
C7 C6 1.335 . S
C7 C8 1.398 . S
C7 H34 0.930 . S
C8 C3 1.382 . S
C8 C7 1.398 . S
C8 H35 0.929 . S
C9 O22 1.271 . S
C9 O23 1.251 . S
C10 O24 1.252 . S
C10 O25 1.272 . S
C11 Sm1 2.846 . S
C11 C12 1.506 . S
C11 O26 1.261 . S
C11 O27 1.242 . S
C12 C11 1.506 . S
C12 C13 1.358 . S
C12 C17 1.382 . S
C13 C12 1.358 . S
C13 C14 1.385 . S
C13 H36 0.930 . S
C14 C13 1.385 . S
C14 C15 1.395 . S
C14 H37 0.929 . S
C15 C14 1.395 . S
C15 C16 1.335 . S
C16 C15 1.335 . S
C16 C17 1.398 . S
C16 H38 0.930 . S
C17 C12 1.382 . S
C17 C16 1.398 . S
C17 H39 0.929 . S
C18 O28 1.271 . S
C18 O29 1.251 . S
C19 O30 1.252 . S
C19 O31 1.272 . S
O20 Sm0 2.543 . S
O20 C2 1.261 . S
O21 Sm0 2.450 . S
O21 C2 1.242 . S
O22 Sm0 2.681 . S
O22 Sm1 2.386 . S
O22 C9 1.271 . S
O23 Sm0 2.464 . S
O23 C9 1.251 . S
O24 Sm0 2.396 . S
O24 C10 1.252 . S
O25 Sm1 2.408 . S
O25 C10 1.272 . S
O26 Sm1 2.543 . S
O26 C11 1.261 . S
O27 Sm1 2.450 . S
O27 C11 1.242 . S
O28 Sm0 2.386 . S
O28 Sm1 2.681 . S
O28 C18 1.271 . S
O29 Sm1 2.464 . S
O29 C18 1.251 . S
O30 Sm1 2.396 . S
O30 C19 1.252 . S
O31 Sm0 2.408 . S
O31 C19 1.272 . S
H32 C4 0.930 . S
H33 C5 0.929 . S
H34 C7 0.930 . S
H35 C8 0.929 . S
H36 C13 0.930 . S
H37 C14 0.929 . S
H38 C16 0.930 . S
H39 C17 0.929 . S
Sm40 C42 2.846 . S
Sm40 O60 2.543 . S
Sm40 O61 2.450 . S
Sm40 O62 2.681 . S
Sm40 O63 2.464 . S
Sm40 O64 2.396 . S
Sm40 O68 2.386 . S
Sm40 O71 2.408 . S
Sm41 C51 2.846 . S
Sm41 O62 2.386 . S
Sm41 O65 2.408 . S
Sm41 O66 2.543 . S
Sm41 O67 2.450 . S
Sm41 O68 2.681 . S
Sm41 O69 2.464 . S
Sm41 O70 2.396 . S
C42 Sm40 2.846 . S
C42 C43 1.506 . S
C42 O60 1.261 . S
C42 O61 1.242 . S
C43 C42 1.506 . S
C43 C44 1.358 . S
C43 C48 1.382 . S
C44 C43 1.358 . S
C44 C45 1.385 . S
C44 H72 0.930 . S
C45 C44 1.385 . S
C45 C46 1.395 . S
C45 H73 0.929 . S
C46 C45 1.395 . S
C46 C47 1.335 . S
C47 C46 1.335 . S
C47 C48 1.398 . S
C47 H74 0.930 . S
C48 C43 1.382 . S
C48 C47 1.398 . S
C48 H75 0.929 . S
C49 O62 1.271 . S
C49 O63 1.251 . S
C50 O64 1.252 . S
C50 O65 1.272 . S
C51 Sm41 2.846 . S
C51 C52 1.506 . S
C51 O66 1.261 . S
C51 O67 1.242 . S
C52 C51 1.506 . S
C52 C53 1.358 . S
C52 C57 1.382 . S
C53 C52 1.358 . S
C53 C54 1.385 . S
C53 H76 0.930 . S
C54 C53 1.385 . S
C54 C55 1.395 . S
C54 H77 0.929 . S
C55 C54 1.395 . S
C55 C56 1.335 . S
C56 C55 1.335 . S
C56 C57 1.398 . S
C56 H78 0.930 . S
C57 C52 1.382 . S
C57 C56 1.398 . S
C57 H79 0.929 . S
C58 O68 1.271 . S
C58 O69 1.251 . S
C59 O70 1.252 . S
C59 O71 1.272 . S
O60 Sm40 2.543 . S
O60 C42 1.261 . S
O61 Sm40 2.450 . S
O61 C42 1.242 . S
O62 Sm40 2.681 . S
O62 Sm41 2.386 . S
O62 C49 1.271 . S
O63 Sm40 2.464 . S
O63 C49 1.251 . S
O64 Sm40 2.396 . S
O64 C50 1.252 . S
O65 Sm41 2.408 . S
O65 C50 1.272 . S
O66 Sm41 2.543 . S
O66 C51 1.261 . S
O67 Sm41 2.450 . S
O67 C51 1.242 . S
O68 Sm40 2.386 . S
O68 Sm41 2.681 . S
O68 C58 1.271 . S
O69 Sm41 2.464 . S
O69 C58 1.251 . S
O70 Sm41 2.396 . S
O70 C59 1.252 . S
O71 Sm40 2.408 . S
O71 C59 1.272 . S
H72 C44 0.930 . S
H73 C45 0.929 . S
H74 C47 0.930 . S
H75 C48 0.929 . S
H76 C53 0.930 . S
H77 C54 0.929 . S
H78 C56 0.930 . S
H79 C57 0.929 . S
Sm80 C82 2.846 . S
Sm80 O100 2.543 . S
Sm80 O101 2.450 . S
Sm80 O102 2.681 . S
Sm80 O103 2.464 . S
Sm80 O104 2.396 . S
Sm80 O108 2.386 . S
Sm80 O111 2.408 . S
Sm81 C91 2.846 . S
Sm81 O102 2.386 . S
Sm81 O105 2.408 . S
Sm81 O106 2.543 . S
Sm81 O107 2.450 . S
Sm81 O108 2.681 . S
Sm81 O109 2.464 . S
Sm81 O110 2.396 . S
C82 Sm80 2.846 . S
C82 C83 1.506 . S
C82 O100 1.261 . S
C82 O101 1.242 . S
C83 C82 1.506 . S
C83 C84 1.358 . S
C83 C88 1.382 . S
C84 C83 1.358 . S
C84 C85 1.385 . S
C84 H112 0.930 . S
C85 C84 1.385 . S
C85 C86 1.395 . S
C85 H113 0.929 . S
C86 C85 1.395 . S
C86 C87 1.335 . S
C87 C86 1.335 . S
C87 C88 1.398 . S
C87 H114 0.930 . S
C88 C83 1.382 . S
C88 C87 1.398 . S
C88 H115 0.929 . S
C89 O102 1.271 . S
C89 O103 1.251 . S
C90 O104 1.252 . S
C90 O105 1.272 . S
C91 Sm81 2.846 . S
C91 C92 1.506 . S
C91 O106 1.261 . S
C91 O107 1.242 . S
C92 C91 1.506 . S
C92 C93 1.358 . S
C92 C97 1.382 . S
C93 C92 1.358 . S
C93 C94 1.385 . S
C93 H116 0.930 . S
C94 C93 1.385 . S
C94 C95 1.395 . S
C94 H117 0.929 . S
C95 C94 1.395 . S
C95 C96 1.335 . S
C96 C95 1.335 . S
C96 C97 1.398 . S
C96 H118 0.930 . S
C97 C92 1.382 . S
C97 C96 1.398 . S
C97 H119 0.929 . S
C98 O108 1.271 . S
C98 O109 1.251 . S
C99 O110 1.252 . S
C99 O111 1.272 . S
O100 Sm80 2.543 . S
O100 C82 1.261 . S
O101 Sm80 2.450 . S
O101 C82 1.242 . S
O102 Sm80 2.681 . S
O102 Sm81 2.386 . S
O102 C89 1.271 . S
O103 Sm80 2.464 . S
O103 C89 1.251 . S
O104 Sm80 2.396 . S
O104 C90 1.252 . S
O105 Sm81 2.408 . S
O105 C90 1.272 . S
O106 Sm81 2.543 . S
O106 C91 1.261 . S
O107 Sm81 2.450 . S
O107 C91 1.242 . S
O108 Sm80 2.386 . S
O108 Sm81 2.681 . S
O108 C98 1.271 . S
O109 Sm81 2.464 . S
O109 C98 1.251 . S
O110 Sm81 2.396 . S
O110 C99 1.252 . S
O111 Sm80 2.408 . S
O111 C99 1.272 . S
H112 C84 0.930 . S
H113 C85 0.929 . S
H114 C87 0.930 . S
H115 C88 0.929 . S
H116 C93 0.930 . S
H117 C94 0.929 . S
H118 C96 0.930 . S
H119 C97 0.929 . S
Sm120 C122 2.846 . S
Sm120 O140 2.543 . S
Sm120 O141 2.450 . S
Sm120 O142 2.681 . S
Sm120 O143 2.464 . S
Sm120 O144 2.396 . S
Sm120 O148 2.386 . S
Sm120 O151 2.408 . S
Sm121 C131 2.846 . S
Sm121 O142 2.386 . S
Sm121 O145 2.408 . S
Sm121 O146 2.543 . S
Sm121 O147 2.450 . S
Sm121 O148 2.681 . S
Sm121 O149 2.464 . S
Sm121 O150 2.396 . S
C122 Sm120 2.846 . S
C122 C123 1.506 . S
C122 O140 1.261 . S
C122 O141 1.242 . S
C123 C122 1.506 . S
C123 C124 1.358 . S
C123 C128 1.382 . S
C124 C123 1.358 . S
C124 C125 1.385 . S
C124 H152 0.930 . S
C125 C124 1.385 . S
C125 C126 1.395 . S
C125 H153 0.929 . S
C126 C125 1.395 . S
C126 C127 1.335 . S
C127 C126 1.335 . S
C127 C128 1.398 . S
C127 H154 0.930 . S
C128 C123 1.382 . S
C128 C127 1.398 . S
C128 H155 0.929 . S
C129 O142 1.271 . S
C129 O143 1.251 . S
C130 O144 1.252 . S
C130 O145 1.272 . S
C131 Sm121 2.846 . S
C131 C132 1.506 . S
C131 O146 1.261 . S
C131 O147 1.242 . S
C132 C131 1.506 . S
C132 C133 1.358 . S
C132 C137 1.382 . S
C133 C132 1.358 . S
C133 C134 1.385 . S
C133 H156 0.930 . S
C134 C133 1.385 . S
C134 C135 1.395 . S
C134 H157 0.929 . S
C135 C134 1.395 . S
C135 C136 1.335 . S
C136 C135 1.335 . S
C136 C137 1.398 . S
C136 H158 0.930 . S
C137 C132 1.382 . S
C137 C136 1.398 . S
C137 H159 0.929 . S
C138 O148 1.271 . S
C138 O149 1.251 . S
C139 O150 1.252 . S
C139 O151 1.272 . S
O140 Sm120 2.543 . S
O140 C122 1.261 . S
O141 Sm120 2.450 . S
O141 C122 1.242 . S
O142 Sm120 2.681 . S
O142 Sm121 2.386 . S
O142 C129 1.271 . S
O143 Sm120 2.464 . S
O143 C129 1.251 . S
O144 Sm120 2.396 . S
O144 C130 1.252 . S
O145 Sm121 2.408 . S
O145 C130 1.272 . S
O146 Sm121 2.543 . S
O146 C131 1.261 . S
O147 Sm121 2.450 . S
O147 C131 1.242 . S
O148 Sm120 2.386 . S
O148 Sm121 2.681 . S
O148 C138 1.271 . S
O149 Sm121 2.464 . S
O149 C138 1.251 . S
O150 Sm121 2.396 . S
O150 C139 1.252 . S
O151 Sm120 2.408 . S
O151 C139 1.272 . S
H152 C124 0.930 . S
H153 C125 0.929 . S
H154 C127 0.930 . S
H155 C128 0.929 . S
H156 C133 0.930 . S
H157 C134 0.929 . S
H158 C136 0.930 . S
H159 C137 0.929 . S
Sm160 C162 2.846 . S
Sm160 O180 2.543 . S
Sm160 O181 2.450 . S
Sm160 O182 2.681 . S
Sm160 O183 2.464 . S
Sm160 O184 2.396 . S
Sm160 O188 2.386 . S
Sm160 O191 2.408 . S
Sm161 C171 2.846 . S
Sm161 O182 2.386 . S
Sm161 O185 2.408 . S
Sm161 O186 2.543 . S
Sm161 O187 2.450 . S
Sm161 O188 2.681 . S
Sm161 O189 2.464 . S
Sm161 O190 2.396 . S
C162 Sm160 2.846 . S
C162 C163 1.506 . S
C162 O180 1.261 . S
C162 O181 1.242 . S
C163 C162 1.506 . S
C163 C164 1.358 . S
C163 C168 1.382 . S
C164 C163 1.358 . S
C164 C165 1.385 . S
C164 H192 0.930 . S
C165 C164 1.385 . S
C165 C166 1.395 . S
C165 H193 0.929 . S
C166 C165 1.395 . S
C166 C167 1.335 . S
C167 C166 1.335 . S
C167 C168 1.398 . S
C167 H194 0.930 . S
C168 C163 1.382 . S
C168 C167 1.398 . S
C168 H195 0.929 . S
C169 O182 1.271 . S
C169 O183 1.251 . S
C170 O184 1.252 . S
C170 O185 1.272 . S
C171 Sm161 2.846 . S
C171 C172 1.506 . S
C171 O186 1.261 . S
C171 O187 1.242 . S
C172 C171 1.506 . S
C172 C173 1.358 . S
C172 C177 1.382 . S
C173 C172 1.358 . S
C173 C174 1.385 . S
C173 H196 0.930 . S
C174 C173 1.385 . S
C174 C175 1.395 . S
C174 H197 0.929 . S
C175 C174 1.395 . S
C175 C176 1.335 . S
C176 C175 1.335 . S
C176 C177 1.398 . S
C176 H198 0.930 . S
C177 C172 1.382 . S
C177 C176 1.398 . S
C177 H199 0.929 . S
C178 O188 1.271 . S
C178 O189 1.251 . S
C179 O190 1.252 . S
C179 O191 1.272 . S
O180 Sm160 2.543 . S
O180 C162 1.261 . S
O181 Sm160 2.450 . S
O181 C162 1.242 . S
O182 Sm160 2.681 . S
O182 Sm161 2.386 . S
O182 C169 1.271 . S
O183 Sm160 2.464 . S
O183 C169 1.251 . S
O184 Sm160 2.396 . S
O184 C170 1.252 . S
O185 Sm161 2.408 . S
O185 C170 1.272 . S
O186 Sm161 2.543 . S
O186 C171 1.261 . S
O187 Sm161 2.450 . S
O187 C171 1.242 . S
O188 Sm160 2.386 . S
O188 Sm161 2.681 . S
O188 C178 1.271 . S
O189 Sm161 2.464 . S
O189 C178 1.251 . S
O190 Sm161 2.396 . S
O190 C179 1.252 . S
O191 Sm160 2.408 . S
O191 C179 1.272 . S
H192 C164 0.930 . S
H193 C165 0.929 . S
H194 C167 0.930 . S
H195 C168 0.929 . S
H196 C173 0.930 . S
H197 C174 0.929 . S
H198 C176 0.930 . S
H199 C177 0.929 . S
Sm200 C202 2.846 . S
Sm200 O220 2.543 . S
Sm200 O221 2.450 . S
Sm200 O222 2.681 . S
Sm200 O223 2.464 . S
Sm200 O224 2.396 . S
Sm200 O228 2.386 . S
Sm200 O231 2.408 . S
Sm201 C211 2.846 . S
Sm201 O222 2.386 . S
Sm201 O225 2.408 . S
Sm201 O226 2.543 . S
Sm201 O227 2.450 . S
Sm201 O228 2.681 . S
Sm201 O229 2.464 . S
Sm201 O230 2.396 . S
C202 Sm200 2.846 . S
C202 C203 1.506 . S
C202 O220 1.261 . S
C202 O221 1.242 . S
C203 C202 1.506 . S
C203 C204 1.358 . S
C203 C208 1.382 . S
C204 C203 1.358 . S
C204 C205 1.385 . S
C204 H232 0.930 . S
C205 C204 1.385 . S
C205 C206 1.395 . S
C205 H233 0.929 . S
C206 C205 1.395 . S
C206 C207 1.335 . S
C207 C206 1.335 . S
C207 C208 1.398 . S
C207 H234 0.930 . S
C208 C203 1.382 . S
C208 C207 1.398 . S
C208 H235 0.929 . S
C209 O222 1.271 . S
C209 O223 1.251 . S
C210 O224 1.252 . S
C210 O225 1.272 . S
C211 Sm201 2.846 . S
C211 C212 1.506 . S
C211 O226 1.261 . S
C211 O227 1.242 . S
C212 C211 1.506 . S
C212 C213 1.358 . S
C212 C217 1.382 . S
C213 C212 1.358 . S
C213 C214 1.385 . S
C213 H236 0.930 . S
C214 C213 1.385 . S
C214 C215 1.395 . S
C214 H237 0.929 . S
C215 C214 1.395 . S
C215 C216 1.335 . S
C216 C215 1.335 . S
C216 C217 1.398 . S
C216 H238 0.930 . S
C217 C212 1.382 . S
C217 C216 1.398 . S
C217 H239 0.929 . S
C218 O228 1.271 . S
C218 O229 1.251 . S
C219 O230 1.252 . S
C219 O231 1.272 . S
O220 Sm200 2.543 . S
O220 C202 1.261 . S
O221 Sm200 2.450 . S
O221 C202 1.242 . S
O222 Sm200 2.681 . S
O222 Sm201 2.386 . S
O222 C209 1.271 . S
O223 Sm200 2.464 . S
O223 C209 1.251 . S
O224 Sm200 2.396 . S
O224 C210 1.252 . S
O225 Sm201 2.408 . S
O225 C210 1.272 . S
O226 Sm201 2.543 . S
O226 C211 1.261 . S
O227 Sm201 2.450 . S
O227 C211 1.242 . S
O228 Sm200 2.386 . S
O228 Sm201 2.681 . S
O228 C218 1.271 . S
O229 Sm201 2.464 . S
O229 C218 1.251 . S
O230 Sm201 2.396 . S
O230 C219 1.252 . S
O231 Sm200 2.408 . S
O231 C219 1.272 . S
H232 C204 0.930 . S
H233 C205 0.929 . S
H234 C207 0.930 . S
H235 C208 0.929 . S
H236 C213 0.930 . S
H237 C214 0.929 . S
H238 C216 0.930 . S
H239 C217 0.929 . S
Sm240 C242 2.846 . S
Sm240 O260 2.543 . S
Sm240 O261 2.450 . S
Sm240 O262 2.681 . S
Sm240 O263 2.464 . S
Sm240 O264 2.396 . S
Sm240 O268 2.386 . S
Sm240 O271 2.408 . S
Sm241 C251 2.846 . S
Sm241 O262 2.386 . S
Sm241 O265 2.408 . S
Sm241 O266 2.543 . S
Sm241 O267 2.450 . S
Sm241 O268 2.681 . S
Sm241 O269 2.464 . S
Sm241 O270 2.396 . S
C242 Sm240 2.846 . S
C242 C243 1.506 . S
C242 O260 1.261 . S
C242 O261 1.242 . S
C243 C242 1.506 . S
C243 C244 1.358 . S
C243 C248 1.382 . S
C244 C243 1.358 . S
C244 C245 1.385 . S
C244 H272 0.930 . S
C245 C244 1.385 . S
C245 C246 1.395 . S
C245 H273 0.929 . S
C246 C245 1.395 . S
C246 C247 1.335 . S
C247 C246 1.335 . S
C247 C248 1.398 . S
C247 H274 0.930 . S
C248 C243 1.382 . S
C248 C247 1.398 . S
C248 H275 0.929 . S
C249 O262 1.271 . S
C249 O263 1.251 . S
C250 O264 1.252 . S
C250 O265 1.272 . S
C251 Sm241 2.846 . S
C251 C252 1.506 . S
C251 O266 1.261 . S
C251 O267 1.242 . S
C252 C251 1.506 . S
C252 C253 1.358 . S
C252 C257 1.382 . S
C253 C252 1.358 . S
C253 C254 1.385 . S
C253 H276 0.930 . S
C254 C253 1.385 . S
C254 C255 1.395 . S
C254 H277 0.929 . S
C255 C254 1.395 . S
C255 C256 1.335 . S
C256 C255 1.335 . S
C256 C257 1.398 . S
C256 H278 0.930 . S
C257 C252 1.382 . S
C257 C256 1.398 . S
C257 H279 0.929 . S
C258 O268 1.271 . S
C258 O269 1.251 . S
C259 O270 1.252 . S
C259 O271 1.272 . S
O260 Sm240 2.543 . S
O260 C242 1.261 . S
O261 Sm240 2.450 . S
O261 C242 1.242 . S
O262 Sm240 2.681 . S
O262 Sm241 2.386 . S
O262 C249 1.271 . S
O263 Sm240 2.464 . S
O263 C249 1.251 . S
O264 Sm240 2.396 . S
O264 C250 1.252 . S
O265 Sm241 2.408 . S
O265 C250 1.272 . S
O266 Sm241 2.543 . S
O266 C251 1.261 . S
O267 Sm241 2.450 . S
O267 C251 1.242 . S
O268 Sm240 2.386 . S
O268 Sm241 2.681 . S
O268 C258 1.271 . S
O269 Sm241 2.464 . S
O269 C258 1.251 . S
O270 Sm241 2.396 . S
O270 C259 1.252 . S
O271 Sm240 2.408 . S
O271 C259 1.272 . S
H272 C244 0.930 . S
H273 C245 0.929 . S
H274 C247 0.930 . S
H275 C248 0.929 . S
H276 C253 0.930 . S
H277 C254 0.929 . S
H278 C256 0.930 . S
H279 C257 0.929 . S
Sm280 C282 2.846 . S
Sm280 O300 2.543 . S
Sm280 O301 2.450 . S
Sm280 O302 2.681 . S
Sm280 O303 2.464 . S
Sm280 O304 2.396 . S
Sm280 O308 2.386 . S
Sm280 O311 2.408 . S
Sm281 C291 2.846 . S
Sm281 O302 2.386 . S
Sm281 O305 2.408 . S
Sm281 O306 2.543 . S
Sm281 O307 2.450 . S
Sm281 O308 2.681 . S
Sm281 O309 2.464 . S
Sm281 O310 2.396 . S
C282 Sm280 2.846 . S
C282 C283 1.506 . S
C282 O300 1.261 . S
C282 O301 1.242 . S
C283 C282 1.506 . S
C283 C284 1.358 . S
C283 C288 1.382 . S
C284 C283 1.358 . S
C284 C285 1.385 . S
C284 H312 0.930 . S
C285 C284 1.385 . S
C285 C286 1.395 . S
C285 H313 0.929 . S
C286 C285 1.395 . S
C286 C287 1.335 . S
C287 C286 1.335 . S
C287 C288 1.398 . S
C287 H314 0.930 . S
C288 C283 1.382 . S
C288 C287 1.398 . S
C288 H315 0.929 . S
C289 O302 1.271 . S
C289 O303 1.251 . S
C290 O304 1.252 . S
C290 O305 1.272 . S
C291 Sm281 2.846 . S
C291 C292 1.506 . S
C291 O306 1.261 . S
C291 O307 1.242 . S
C292 C291 1.506 . S
C292 C293 1.358 . S
C292 C297 1.382 . S
C293 C292 1.358 . S
C293 C294 1.385 . S
C293 H316 0.930 . S
C294 C293 1.385 . S
C294 C295 1.395 . S
C294 H317 0.929 . S
C295 C294 1.395 . S
C295 C296 1.335 . S
C296 C295 1.335 . S
C296 C297 1.398 . S
C296 H318 0.930 . S
C297 C292 1.382 . S
C297 C296 1.398 . S
C297 H319 0.929 . S
C298 O308 1.271 . S
C298 O309 1.251 . S
C299 O310 1.252 . S
C299 O311 1.272 . S
O300 Sm280 2.543 . S
O300 C282 1.261 . S
O301 Sm280 2.450 . S
O301 C282 1.242 . S
O302 Sm280 2.681 . S
O302 Sm281 2.386 . S
O302 C289 1.271 . S
O303 Sm280 2.464 . S
O303 C289 1.251 . S
O304 Sm280 2.396 . S
O304 C290 1.252 . S
O305 Sm281 2.408 . S
O305 C290 1.272 . S
O306 Sm281 2.543 . S
O306 C291 1.261 . S
O307 Sm281 2.450 . S
O307 C291 1.242 . S
O308 Sm280 2.386 . S
O308 Sm281 2.681 . S
O308 C298 1.271 . S
O309 Sm281 2.464 . S
O309 C298 1.251 . S
O310 Sm281 2.396 . S
O310 C299 1.252 . S
O311 Sm280 2.408 . S
O311 C299 1.272 . S
H312 C284 0.930 . S
H313 C285 0.929 . S
H314 C287 0.930 . S
H315 C288 0.929 . S
H316 C293 0.930 . S
H317 C294 0.929 . S
H318 C296 0.930 . S
H319 C297 0.929 . S
Sm320 C322 2.846 . S
Sm320 O340 2.543 . S
Sm320 O341 2.450 . S
Sm320 O342 2.681 . S
Sm320 O343 2.464 . S
Sm320 O344 2.396 . S
Sm320 O348 2.386 . S
Sm320 O351 2.408 . S
Sm321 C331 2.846 . S
Sm321 O342 2.386 . S
Sm321 O345 2.408 . S
Sm321 O346 2.543 . S
Sm321 O347 2.450 . S
Sm321 O348 2.681 . S
Sm321 O349 2.464 . S
Sm321 O350 2.396 . S
C322 Sm320 2.846 . S
C322 C323 1.506 . S
C322 O340 1.261 . S
C322 O341 1.242 . S
C323 C322 1.506 . S
C323 C324 1.358 . S
C323 C328 1.382 . S
C324 C323 1.358 . S
C324 C325 1.385 . S
C324 H352 0.930 . S
C325 C324 1.385 . S
C325 C326 1.395 . S
C325 H353 0.929 . S
C326 C325 1.395 . S
C326 C327 1.335 . S
C327 C326 1.335 . S
C327 C328 1.398 . S
C327 H354 0.930 . S
C328 C323 1.382 . S
C328 C327 1.398 . S
C328 H355 0.929 . S
C329 O342 1.271 . S
C329 O343 1.251 . S
C330 O344 1.252 . S
C330 O345 1.272 . S
C331 Sm321 2.846 . S
C331 C332 1.506 . S
C331 O346 1.261 . S
C331 O347 1.242 . S
C332 C331 1.506 . S
C332 C333 1.358 . S
C332 C337 1.382 . S
C333 C332 1.358 . S
C333 C334 1.385 . S
C333 H356 0.930 . S
C334 C333 1.385 . S
C334 C335 1.395 . S
C334 H357 0.929 . S
C335 C334 1.395 . S
C335 C336 1.335 . S
C336 C335 1.335 . S
C336 C337 1.398 . S
C336 H358 0.930 . S
C337 C332 1.382 . S
C337 C336 1.398 . S
C337 H359 0.929 . S
C338 O348 1.271 . S
C338 O349 1.251 . S
C339 O350 1.252 . S
C339 O351 1.272 . S
O340 Sm320 2.543 . S
O340 C322 1.261 . S
O341 Sm320 2.450 . S
O341 C322 1.242 . S
O342 Sm320 2.681 . S
O342 Sm321 2.386 . S
O342 C329 1.271 . S
O343 Sm320 2.464 . S
O343 C329 1.251 . S
O344 Sm320 2.396 . S
O344 C330 1.252 . S
O345 Sm321 2.408 . S
O345 C330 1.272 . S
O346 Sm321 2.543 . S
O346 C331 1.261 . S
O347 Sm321 2.450 . S
O347 C331 1.242 . S
O348 Sm320 2.386 . S
O348 Sm321 2.681 . S
O348 C338 1.271 . S
O349 Sm321 2.464 . S
O349 C338 1.251 . S
O350 Sm321 2.396 . S
O350 C339 1.252 . S
O351 Sm320 2.408 . S
O351 C339 1.272 . S
H352 C324 0.930 . S
H353 C325 0.929 . S
H354 C327 0.930 . S
H355 C328 0.929 . S
H356 C333 0.930 . S
H357 C334 0.929 . S
H358 C336 0.930 . S
H359 C337 0.929 . S
Sm360 C362 2.846 . S
Sm360 O380 2.543 . S
Sm360 O381 2.450 . S
Sm360 O382 2.681 . S
Sm360 O383 2.464 . S
Sm360 O384 2.396 . S
Sm360 O388 2.386 . S
Sm360 O391 2.408 . S
Sm361 C371 2.846 . S
Sm361 O382 2.386 . S
Sm361 O385 2.408 . S
Sm361 O386 2.543 . S
Sm361 O387 2.450 . S
Sm361 O388 2.681 . S
Sm361 O389 2.464 . S
Sm361 O390 2.396 . S
C362 Sm360 2.846 . S
C362 C363 1.506 . S
C362 O380 1.261 . S
C362 O381 1.242 . S
C363 C362 1.506 . S
C363 C364 1.358 . S
C363 C368 1.382 . S
C364 C363 1.358 . S
C364 C365 1.385 . S
C364 H392 0.930 . S
C365 C364 1.385 . S
C365 C366 1.395 . S
C365 H393 0.929 . S
C366 C365 1.395 . S
C366 C367 1.335 . S
C367 C366 1.335 . S
C367 C368 1.398 . S
C367 H394 0.930 . S
C368 C363 1.382 . S
C368 C367 1.398 . S
C368 H395 0.929 . S
C369 O382 1.271 . S
C369 O383 1.251 . S
C370 O384 1.252 . S
C370 O385 1.272 . S
C371 Sm361 2.846 . S
C371 C372 1.506 . S
C371 O386 1.261 . S
C371 O387 1.242 . S
C372 C371 1.506 . S
C372 C373 1.358 . S
C372 C377 1.382 . S
C373 C372 1.358 . S
C373 C374 1.385 . S
C373 H396 0.930 . S
C374 C373 1.385 . S
C374 C375 1.395 . S
C374 H397 0.929 . S
C375 C374 1.395 . S
C375 C376 1.335 . S
C376 C375 1.335 . S
C376 C377 1.398 . S
C376 H398 0.930 . S
C377 C372 1.382 . S
C377 C376 1.398 . S
C377 H399 0.929 . S
C378 O388 1.271 . S
C378 O389 1.251 . S
C379 O390 1.252 . S
C379 O391 1.272 . S
O380 Sm360 2.543 . S
O380 C362 1.261 . S
O381 Sm360 2.450 . S
O381 C362 1.242 . S
O382 Sm360 2.681 . S
O382 Sm361 2.386 . S
O382 C369 1.271 . S
O383 Sm360 2.464 . S
O383 C369 1.251 . S
O384 Sm360 2.396 . S
O384 C370 1.252 . S
O385 Sm361 2.408 . S
O385 C370 1.272 . S
O386 Sm361 2.543 . S
O386 C371 1.261 . S
O387 Sm361 2.450 . S
O387 C371 1.242 . S
O388 Sm360 2.386 . S
O388 Sm361 2.681 . S
O388 C378 1.271 . S
O389 Sm361 2.464 . S
O389 C378 1.251 . S
O390 Sm361 2.396 . S
O390 C379 1.252 . S
O391 Sm360 2.408 . S
O391 C379 1.272 . S
H392 C364 0.930 . S
H393 C365 0.929 . S
H394 C367 0.930 . S
H395 C368 0.929 . S
H396 C373 0.930 . S
H397 C374 0.929 . S
H398 C376 0.930 . S
H399 C377 0.929 . S
Sm400 C402 2.846 . S
Sm400 O420 2.543 . S
Sm400 O421 2.450 . S
Sm400 O422 2.681 . S
Sm400 O423 2.464 . S
Sm400 O424 2.396 . S
Sm400 O428 2.386 . S
Sm400 O431 2.408 . S
Sm401 C411 2.846 . S
Sm401 O422 2.386 . S
Sm401 O425 2.408 . S
Sm401 O426 2.543 . S
Sm401 O427 2.450 . S
Sm401 O428 2.681 . S
Sm401 O429 2.464 . S
Sm401 O430 2.396 . S
C402 Sm400 2.846 . S
C402 C403 1.506 . S
C402 O420 1.261 . S
C402 O421 1.242 . S
C403 C402 1.506 . S
C403 C404 1.358 . S
C403 C408 1.382 . S
C404 C403 1.358 . S
C404 C405 1.385 . S
C404 H432 0.930 . S
C405 C404 1.385 . S
C405 C406 1.395 . S
C405 H433 0.929 . S
C406 C405 1.395 . S
C406 C407 1.335 . S
C407 C406 1.335 . S
C407 C408 1.398 . S
C407 H434 0.930 . S
C408 C403 1.382 . S
C408 C407 1.398 . S
C408 H435 0.929 . S
C409 O422 1.271 . S
C409 O423 1.251 . S
C410 O424 1.252 . S
C410 O425 1.272 . S
C411 Sm401 2.846 . S
C411 C412 1.506 . S
C411 O426 1.261 . S
C411 O427 1.242 . S
C412 C411 1.506 . S
C412 C413 1.358 . S
C412 C417 1.382 . S
C413 C412 1.358 . S
C413 C414 1.385 . S
C413 H436 0.930 . S
C414 C413 1.385 . S
C414 C415 1.395 . S
C414 H437 0.929 . S
C415 C414 1.395 . S
C415 C416 1.335 . S
C416 C415 1.335 . S
C416 C417 1.398 . S
C416 H438 0.930 . S
C417 C412 1.382 . S
C417 C416 1.398 . S
C417 H439 0.929 . S
C418 O428 1.271 . S
C418 O429 1.251 . S
C419 O430 1.252 . S
C419 O431 1.272 . S
O420 Sm400 2.543 . S
O420 C402 1.261 . S
O421 Sm400 2.450 . S
O421 C402 1.242 . S
O422 Sm400 2.681 . S
O422 Sm401 2.386 . S
O422 C409 1.271 . S
O423 Sm400 2.464 . S
O423 C409 1.251 . S
O424 Sm400 2.396 . S
O424 C410 1.252 . S
O425 Sm401 2.408 . S
O425 C410 1.272 . S
O426 Sm401 2.543 . S
O426 C411 1.261 . S
O427 Sm401 2.450 . S
O427 C411 1.242 . S
O428 Sm400 2.386 . S
O428 Sm401 2.681 . S
O428 C418 1.271 . S
O429 Sm401 2.464 . S
O429 C418 1.251 . S
O430 Sm401 2.396 . S
O430 C419 1.252 . S
O431 Sm400 2.408 . S
O431 C419 1.272 . S
H432 C404 0.930 . S
H433 C405 0.929 . S
H434 C407 0.930 . S
H435 C408 0.929 . S
H436 C413 0.930 . S
H437 C414 0.929 . S
H438 C416 0.930 . S
H439 C417 0.929 . S
Sm440 C442 2.846 . S
Sm440 O460 2.543 . S
Sm440 O461 2.450 . S
Sm440 O462 2.681 . S
Sm440 O463 2.464 . S
Sm440 O464 2.396 . S
Sm440 O468 2.386 . S
Sm440 O471 2.408 . S
Sm441 C451 2.846 . S
Sm441 O462 2.386 . S
Sm441 O465 2.408 . S
Sm441 O466 2.543 . S
Sm441 O467 2.450 . S
Sm441 O468 2.681 . S
Sm441 O469 2.464 . S
Sm441 O470 2.396 . S
C442 Sm440 2.846 . S
C442 C443 1.506 . S
C442 O460 1.261 . S
C442 O461 1.242 . S
C443 C442 1.506 . S
C443 C444 1.358 . S
C443 C448 1.382 . S
C444 C443 1.358 . S
C444 C445 1.385 . S
C444 H472 0.930 . S
C445 C444 1.385 . S
C445 C446 1.395 . S
C445 H473 0.929 . S
C446 C445 1.395 . S
C446 C447 1.335 . S
C447 C446 1.335 . S
C447 C448 1.398 . S
C447 H474 0.930 . S
C448 C443 1.382 . S
C448 C447 1.398 . S
C448 H475 0.929 . S
C449 O462 1.271 . S
C449 O463 1.251 . S
C450 O464 1.252 . S
C450 O465 1.272 . S
C451 Sm441 2.846 . S
C451 C452 1.506 . S
C451 O466 1.261 . S
C451 O467 1.242 . S
C452 C451 1.506 . S
C452 C453 1.358 . S
C452 C457 1.382 . S
C453 C452 1.358 . S
C453 C454 1.385 . S
C453 H476 0.930 . S
C454 C453 1.385 . S
C454 C455 1.395 . S
C454 H477 0.929 . S
C455 C454 1.395 . S
C455 C456 1.335 . S
C456 C455 1.335 . S
C456 C457 1.398 . S
C456 H478 0.930 . S
C457 C452 1.382 . S
C457 C456 1.398 . S
C457 H479 0.929 . S
C458 O468 1.271 . S
C458 O469 1.251 . S
C459 O470 1.252 . S
C459 O471 1.272 . S
O460 Sm440 2.543 . S
O460 C442 1.261 . S
O461 Sm440 2.450 . S
O461 C442 1.242 . S
O462 Sm440 2.681 . S
O462 Sm441 2.386 . S
O462 C449 1.271 . S
O463 Sm440 2.464 . S
O463 C449 1.251 . S
O464 Sm440 2.396 . S
O464 C450 1.252 . S
O465 Sm441 2.408 . S
O465 C450 1.272 . S
O466 Sm441 2.543 . S
O466 C451 1.261 . S
O467 Sm441 2.450 . S
O467 C451 1.242 . S
O468 Sm440 2.386 . S
O468 Sm441 2.681 . S
O468 C458 1.271 . S
O469 Sm441 2.464 . S
O469 C458 1.251 . S
O470 Sm441 2.396 . S
O470 C459 1.252 . S
O471 Sm440 2.408 . S
O471 C459 1.272 . S
H472 C444 0.930 . S
H473 C445 0.929 . S
H474 C447 0.930 . S
H475 C448 0.929 . S
H476 C453 0.930 . S
H477 C454 0.929 . S
H478 C456 0.930 . S
H479 C457 0.929 . S
Sm480 C482 2.846 . S
Sm480 O500 2.543 . S
Sm480 O501 2.450 . S
Sm480 O502 2.681 . S
Sm480 O503 2.464 . S
Sm480 O504 2.396 . S
Sm480 O508 2.386 . S
Sm480 O511 2.408 . S
Sm481 C491 2.846 . S
Sm481 O502 2.386 . S
Sm481 O505 2.408 . S
Sm481 O506 2.543 . S
Sm481 O507 2.450 . S
Sm481 O508 2.681 . S
Sm481 O509 2.464 . S
Sm481 O510 2.396 . S
C482 Sm480 2.846 . S
C482 C483 1.506 . S
C482 O500 1.261 . S
C482 O501 1.242 . S
C483 C482 1.506 . S
C483 C484 1.358 . S
C483 C488 1.382 . S
C484 C483 1.358 . S
C484 C485 1.385 . S
C484 H512 0.930 . S
C485 C484 1.385 . S
C485 C486 1.395 . S
C485 H513 0.929 . S
C486 C485 1.395 . S
C486 C487 1.335 . S
C487 C486 1.335 . S
C487 C488 1.398 . S
C487 H514 0.930 . S
C488 C483 1.382 . S
C488 C487 1.398 . S
C488 H515 0.929 . S
C489 O502 1.271 . S
C489 O503 1.251 . S
C490 O504 1.252 . S
C490 O505 1.272 . S
C491 Sm481 2.846 . S
C491 C492 1.506 . S
C491 O506 1.261 . S
C491 O507 1.242 . S
C492 C491 1.506 . S
C492 C493 1.358 . S
C492 C497 1.382 . S
C493 C492 1.358 . S
C493 C494 1.385 . S
C493 H516 0.930 . S
C494 C493 1.385 . S
C494 C495 1.395 . S
C494 H517 0.929 . S
C495 C494 1.395 . S
C495 C496 1.335 . S
C496 C495 1.335 . S
C496 C497 1.398 . S
C496 H518 0.930 . S
C497 C492 1.382 . S
C497 C496 1.398 . S
C497 H519 0.929 . S
C498 O508 1.271 . S
C498 O509 1.251 . S
C499 O510 1.252 . S
C499 O511 1.272 . S
O500 Sm480 2.543 . S
O500 C482 1.261 . S
O501 Sm480 2.450 . S
O501 C482 1.242 . S
O502 Sm480 2.681 . S
O502 Sm481 2.386 . S
O502 C489 1.271 . S
O503 Sm480 2.464 . S
O503 C489 1.251 . S
O504 Sm480 2.396 . S
O504 C490 1.252 . S
O505 Sm481 2.408 . S
O505 C490 1.272 . S
O506 Sm481 2.543 . S
O506 C491 1.261 . S
O507 Sm481 2.450 . S
O507 C491 1.242 . S
O508 Sm480 2.386 . S
O508 Sm481 2.681 . S
O508 C498 1.271 . S
O509 Sm481 2.464 . S
O509 C498 1.251 . S
O510 Sm481 2.396 . S
O510 C499 1.252 . S
O511 Sm480 2.408 . S
O511 C499 1.272 . S
H512 C484 0.930 . S
H513 C485 0.929 . S
H514 C487 0.930 . S
H515 C488 0.929 . S
H516 C493 0.930 . S
H517 C494 0.929 . S
H518 C496 0.930 . S
H519 C497 0.929 . S
Sm520 C522 2.846 . S
Sm520 O540 2.543 . S
Sm520 O541 2.450 . S
Sm520 O542 2.681 . S
Sm520 O543 2.464 . S
Sm520 O544 2.396 . S
Sm520 O548 2.386 . S
Sm520 O551 2.408 . S
Sm521 C531 2.846 . S
Sm521 O542 2.386 . S
Sm521 O545 2.408 . S
Sm521 O546 2.543 . S
Sm521 O547 2.450 . S
Sm521 O548 2.681 . S
Sm521 O549 2.464 . S
Sm521 O550 2.396 . S
C522 Sm520 2.846 . S
C522 C523 1.506 . S
C522 O540 1.261 . S
C522 O541 1.242 . S
C523 C522 1.506 . S
C523 C524 1.358 . S
C523 C528 1.382 . S
C524 C523 1.358 . S
C524 C525 1.385 . S
C524 H552 0.930 . S
C525 C524 1.385 . S
C525 C526 1.395 . S
C525 H553 0.929 . S
C526 C525 1.395 . S
C526 C527 1.335 . S
C527 C526 1.335 . S
C527 C528 1.398 . S
C527 H554 0.930 . S
C528 C523 1.382 . S
C528 C527 1.398 . S
C528 H555 0.929 . S
C529 O542 1.271 . S
C529 O543 1.251 . S
C530 O544 1.252 . S
C530 O545 1.272 . S
C531 Sm521 2.846 . S
C531 C532 1.506 . S
C531 O546 1.261 . S
C531 O547 1.242 . S
C532 C531 1.506 . S
C532 C533 1.358 . S
C532 C537 1.382 . S
C533 C532 1.358 . S
C533 C534 1.385 . S
C533 H556 0.930 . S
C534 C533 1.385 . S
C534 C535 1.395 . S
C534 H557 0.929 . S
C535 C534 1.395 . S
C535 C536 1.335 . S
C536 C535 1.335 . S
C536 C537 1.398 . S
C536 H558 0.930 . S
C537 C532 1.382 . S
C537 C536 1.398 . S
C537 H559 0.929 . S
C538 O548 1.271 . S
C538 O549 1.251 . S
C539 O550 1.252 . S
C539 O551 1.272 . S
O540 Sm520 2.543 . S
O540 C522 1.261 . S
O541 Sm520 2.450 . S
O541 C522 1.242 . S
O542 Sm520 2.681 . S
O542 Sm521 2.386 . S
O542 C529 1.271 . S
O543 Sm520 2.464 . S
O543 C529 1.251 . S
O544 Sm520 2.396 . S
O544 C530 1.252 . S
O545 Sm521 2.408 . S
O545 C530 1.272 . S
O546 Sm521 2.543 . S
O546 C531 1.261 . S
O547 Sm521 2.450 . S
O547 C531 1.242 . S
O548 Sm520 2.386 . S
O548 Sm521 2.681 . S
O548 C538 1.271 . S
O549 Sm521 2.464 . S
O549 C538 1.251 . S
O550 Sm521 2.396 . S
O550 C539 1.252 . S
O551 Sm520 2.408 . S
O551 C539 1.272 . S
H552 C524 0.930 . S
H553 C525 0.929 . S
H554 C527 0.930 . S
H555 C528 0.929 . S
H556 C533 0.930 . S
H557 C534 0.929 . S
H558 C536 0.930 . S
H559 C537 0.929 . S
Sm560 C562 2.846 . S
Sm560 O580 2.543 . S
Sm560 O581 2.450 . S
Sm560 O582 2.681 . S
Sm560 O583 2.464 . S
Sm560 O584 2.396 . S
Sm560 O588 2.386 . S
Sm560 O591 2.408 . S
Sm561 C571 2.846 . S
Sm561 O582 2.386 . S
Sm561 O585 2.408 . S
Sm561 O586 2.543 . S
Sm561 O587 2.450 . S
Sm561 O588 2.681 . S
Sm561 O589 2.464 . S
Sm561 O590 2.396 . S
C562 Sm560 2.846 . S
C562 C563 1.506 . S
C562 O580 1.261 . S
C562 O581 1.242 . S
C563 C562 1.506 . S
C563 C564 1.358 . S
C563 C568 1.382 . S
C564 C563 1.358 . S
C564 C565 1.385 . S
C564 H592 0.930 . S
C565 C564 1.385 . S
C565 C566 1.395 . S
C565 H593 0.929 . S
C566 C565 1.395 . S
C566 C567 1.335 . S
C567 C566 1.335 . S
C567 C568 1.398 . S
C567 H594 0.930 . S
C568 C563 1.382 . S
C568 C567 1.398 . S
C568 H595 0.929 . S
C569 O582 1.271 . S
C569 O583 1.251 . S
C570 O584 1.252 . S
C570 O585 1.272 . S
C571 Sm561 2.846 . S
C571 C572 1.506 . S
C571 O586 1.261 . S
C571 O587 1.242 . S
C572 C571 1.506 . S
C572 C573 1.358 . S
C572 C577 1.382 . S
C573 C572 1.358 . S
C573 C574 1.385 . S
C573 H596 0.930 . S
C574 C573 1.385 . S
C574 C575 1.395 . S
C574 H597 0.929 . S
C575 C574 1.395 . S
C575 C576 1.335 . S
C576 C575 1.335 . S
C576 C577 1.398 . S
C576 H598 0.930 . S
C577 C572 1.382 . S
C577 C576 1.398 . S
C577 H599 0.929 . S
C578 O588 1.271 . S
C578 O589 1.251 . S
C579 O590 1.252 . S
C579 O591 1.272 . S
O580 Sm560 2.543 . S
O580 C562 1.261 . S
O581 Sm560 2.450 . S
O581 C562 1.242 . S
O582 Sm560 2.681 . S
O582 Sm561 2.386 . S
O582 C569 1.271 . S
O583 Sm560 2.464 . S
O583 C569 1.251 . S
O584 Sm560 2.396 . S
O584 C570 1.252 . S
O585 Sm561 2.408 . S
O585 C570 1.272 . S
O586 Sm561 2.543 . S
O586 C571 1.261 . S
O587 Sm561 2.450 . S
O587 C571 1.242 . S
O588 Sm560 2.386 . S
O588 Sm561 2.681 . S
O588 C578 1.271 . S
O589 Sm561 2.464 . S
O589 C578 1.251 . S
O590 Sm561 2.396 . S
O590 C579 1.252 . S
O591 Sm560 2.408 . S
O591 C579 1.272 . S
H592 C564 0.930 . S
H593 C565 0.929 . S
H594 C567 0.930 . S
H595 C568 0.929 . S
H596 C573 0.930 . S
H597 C574 0.929 . S
H598 C576 0.930 . S
H599 C577 0.929 . S
Sm600 C602 2.846 . S
Sm600 O620 2.543 . S
Sm600 O621 2.450 . S
Sm600 O622 2.681 . S
Sm600 O623 2.464 . S
Sm600 O624 2.396 . S
Sm600 O628 2.386 . S
Sm600 O631 2.408 . S
Sm601 C611 2.846 . S
Sm601 O622 2.386 . S
Sm601 O625 2.408 . S
Sm601 O626 2.543 . S
Sm601 O627 2.450 . S
Sm601 O628 2.681 . S
Sm601 O629 2.464 . S
Sm601 O630 2.396 . S
C602 Sm600 2.846 . S
C602 C603 1.506 . S
C602 O620 1.261 . S
C602 O621 1.242 . S
C603 C602 1.506 . S
C603 C604 1.358 . S
C603 C608 1.382 . S
C604 C603 1.358 . S
C604 C605 1.385 1_655 S
C604 H632 0.930 1_655 S
C605 C604 1.385 1_455 S
C605 C606 1.395 1_455 S
C605 H633 0.929 . S
C606 C605 1.395 1_655 S
C606 C607 1.335 . S
C607 C606 1.335 . S
C607 C608 1.398 . S
C607 H634 0.930 . S
C608 C603 1.382 . S
C608 C607 1.398 . S
C608 H635 0.929 . S
C609 O622 1.271 . S
C609 O623 1.251 . S
C610 O624 1.252 . S
C610 O625 1.272 . S
C611 Sm601 2.846 . S
C611 C612 1.506 . S
C611 O626 1.261 . S
C611 O627 1.242 . S
C612 C611 1.506 . S
C612 C613 1.358 . S
C612 C617 1.382 . S
C613 C612 1.358 . S
C613 C614 1.385 . S
C613 H636 0.930 . S
C614 C613 1.385 . S
C614 C615 1.395 . S
C614 H637 0.929 . S
C615 C614 1.395 . S
C615 C616 1.335 . S
C616 C615 1.335 . S
C616 C617 1.398 . S
C616 H638 0.930 . S
C617 C612 1.382 . S
C617 C616 1.398 . S
C617 H639 0.929 . S
C618 O628 1.271 . S
C618 O629 1.251 . S
C619 O630 1.252 . S
C619 O631 1.272 . S
O620 Sm600 2.543 . S
O620 C602 1.261 . S
O621 Sm600 2.450 . S
O621 C602 1.242 . S
O622 Sm600 2.681 . S
O622 Sm601 2.386 . S
O622 C609 1.271 . S
O623 Sm600 2.464 . S
O623 C609 1.251 . S
O624 Sm600 2.396 . S
O624 C610 1.252 . S
O625 Sm601 2.408 . S
O625 C610 1.272 . S
O626 Sm601 2.543 . S
O626 C611 1.261 . S
O627 Sm601 2.450 . S
O627 C611 1.242 . S
O628 Sm600 2.386 . S
O628 Sm601 2.681 . S
O628 C618 1.271 . S
O629 Sm601 2.464 . S
O629 C618 1.251 . S
O630 Sm601 2.396 . S
O630 C619 1.252 . S
O631 Sm600 2.408 . S
O631 C619 1.272 . S
H632 C604 0.930 1_455 S
H633 C605 0.929 . S
H634 C607 0.930 . S
H635 C608 0.929 . S
H636 C613 0.930 . S
H637 C614 0.929 . S
H638 C616 0.930 . S
H639 C617 0.929 . S
Sm640 C642 2.846 . S
Sm640 O660 2.543 . S
Sm640 O661 2.450 . S
Sm640 O662 2.681 . S
Sm640 O663 2.464 . S
Sm640 O664 2.396 . S
Sm640 O668 2.386 . S
Sm640 O671 2.408 . S
Sm641 C651 2.846 . S
Sm641 O662 2.386 . S
Sm641 O665 2.408 . S
Sm641 O666 2.543 . S
Sm641 O667 2.450 . S
Sm641 O668 2.681 . S
Sm641 O669 2.464 . S
Sm641 O670 2.396 . S
C642 Sm640 2.846 . S
C642 C643 1.506 . S
C642 O660 1.261 . S
C642 O661 1.242 . S
C643 C642 1.506 . S
C643 C644 1.358 . S
C643 C648 1.382 . S
C644 C643 1.358 . S
C644 C645 1.385 . S
C644 H672 0.930 . S
C645 C644 1.385 . S
C645 C646 1.395 . S
C645 H673 0.929 . S
C646 C645 1.395 . S
C646 C647 1.335 . S
C647 C646 1.335 . S
C647 C648 1.398 . S
C647 H674 0.930 . S
C648 C643 1.382 . S
C648 C647 1.398 . S
C648 H675 0.929 . S
C649 O662 1.271 . S
C649 O663 1.251 . S
C650 O664 1.252 . S
C650 O665 1.272 . S
C651 Sm641 2.846 . S
C651 C652 1.506 . S
C651 O666 1.261 . S
C651 O667 1.242 . S
C652 C651 1.506 . S
C652 C653 1.358 . S
C652 C657 1.382 . S
C653 C652 1.358 . S
C653 C654 1.385 . S
C653 H676 0.930 . S
C654 C653 1.385 . S
C654 C655 1.395 . S
C654 H677 0.929 . S
C655 C654 1.395 . S
C655 C656 1.335 . S
C656 C655 1.335 . S
C656 C657 1.398 . S
C656 H678 0.930 . S
C657 C652 1.382 . S
C657 C656 1.398 . S
C657 H679 0.929 . S
C658 O668 1.271 . S
C658 O669 1.251 . S
C659 O670 1.252 . S
C659 O671 1.272 . S
O660 Sm640 2.543 . S
O660 C642 1.261 . S
O661 Sm640 2.450 . S
O661 C642 1.242 . S
O662 Sm640 2.681 . S
O662 Sm641 2.386 . S
O662 C649 1.271 . S
O663 Sm640 2.464 . S
O663 C649 1.251 . S
O664 Sm640 2.396 . S
O664 C650 1.252 . S
O665 Sm641 2.408 . S
O665 C650 1.272 . S
O666 Sm641 2.543 . S
O666 C651 1.261 . S
O667 Sm641 2.450 . S
O667 C651 1.242 . S
O668 Sm640 2.386 . S
O668 Sm641 2.681 . S
O668 C658 1.271 . S
O669 Sm641 2.464 . S
O669 C658 1.251 . S
O670 Sm641 2.396 . S
O670 C659 1.252 . S
O671 Sm640 2.408 . S
O671 C659 1.272 . S
H672 C644 0.930 . S
H673 C645 0.929 . S
H674 C647 0.930 . S
H675 C648 0.929 . S
H676 C653 0.930 . S
H677 C654 0.929 . S
H678 C656 0.930 . S
H679 C657 0.929 . S
Sm680 C682 2.846 . S
Sm680 O700 2.543 . S
Sm680 O701 2.450 . S
Sm680 O702 2.681 . S
Sm680 O703 2.464 . S
Sm680 O704 2.396 . S
Sm680 O708 2.386 . S
Sm680 O711 2.408 . S
Sm681 C691 2.846 . S
Sm681 O702 2.386 . S
Sm681 O705 2.408 . S
Sm681 O706 2.543 . S
Sm681 O707 2.450 . S
Sm681 O708 2.681 . S
Sm681 O709 2.464 . S
Sm681 O710 2.396 . S
C682 Sm680 2.846 . S
C682 C683 1.506 . S
C682 O700 1.261 . S
C682 O701 1.242 . S
C683 C682 1.506 . S
C683 C684 1.358 . S
C683 C688 1.382 . S
C684 C683 1.358 . S
C684 C685 1.385 1_545 S
C684 H712 0.930 1_545 S
C685 C684 1.385 1_565 S
C685 C686 1.395 1_565 S
C685 H713 0.929 . S
C686 C685 1.395 1_545 S
C686 C687 1.335 . S
C687 C686 1.335 . S
C687 C688 1.398 . S
C687 H714 0.930 . S
C688 C683 1.382 . S
C688 C687 1.398 . S
C688 H715 0.929 . S
C689 O702 1.271 . S
C689 O703 1.251 . S
C690 O704 1.252 . S
C690 O705 1.272 . S
C691 Sm681 2.846 . S
C691 C692 1.506 . S
C691 O706 1.261 . S
C691 O707 1.242 . S
C692 C691 1.506 . S
C692 C693 1.358 . S
C692 C697 1.382 . S
C693 C692 1.358 . S
C693 C694 1.385 . S
C693 H716 0.930 . S
C694 C693 1.385 . S
C694 C695 1.395 . S
C694 H717 0.929 . S
C695 C694 1.395 . S
C695 C696 1.335 . S
C696 C695 1.335 . S
C696 C697 1.398 . S
C696 H718 0.930 . S
C697 C692 1.382 . S
C697 C696 1.398 . S
C697 H719 0.929 . S
C698 O708 1.271 . S
C698 O709 1.251 . S
C699 O710 1.252 . S
C699 O711 1.272 . S
O700 Sm680 2.543 . S
O700 C682 1.261 . S
O701 Sm680 2.450 . S
O701 C682 1.242 . S
O702 Sm680 2.681 . S
O702 Sm681 2.386 . S
O702 C689 1.271 . S
O703 Sm680 2.464 . S
O703 C689 1.251 . S
O704 Sm680 2.396 . S
O704 C690 1.252 . S
O705 Sm681 2.408 . S
O705 C690 1.272 . S
O706 Sm681 2.543 . S
O706 C691 1.261 . S
O707 Sm681 2.450 . S
O707 C691 1.242 . S
O708 Sm680 2.386 . S
O708 Sm681 2.681 . S
O708 C698 1.271 . S
O709 Sm681 2.464 . S
O709 C698 1.251 . S
O710 Sm681 2.396 . S
O710 C699 1.252 . S
O711 Sm680 2.408 . S
O711 C699 1.272 . S
H712 C684 0.930 1_565 S
H713 C685 0.929 . S
H714 C687 0.930 . S
H715 C688 0.929 . S
H716 C693 0.930 . S
H717 C694 0.929 . S
H718 C696 0.930 . S
H719 C697 0.929 . S
Sm720 C722 2.846 . S
Sm720 O740 2.543 . S
Sm720 O741 2.450 . S
Sm720 O742 2.681 . S
Sm720 O743 2.464 . S
Sm720 O744 2.396 . S
Sm720 O748 2.386 . S
Sm720 O751 2.408 . S
Sm721 C731 2.846 . S
Sm721 O742 2.386 . S
Sm721 O745 2.408 . S
Sm721 O746 2.543 . S
Sm721 O747 2.450 . S
Sm721 O748 2.681 . S
Sm721 O749 2.464 . S
Sm721 O750 2.396 . S
C722 Sm720 2.846 . S
C722 C723 1.506 . S
C722 O740 1.261 . S
C722 O741 1.242 . S
C723 C722 1.506 . S
C723 C724 1.358 . S
C723 C728 1.382 . S
C724 C723 1.358 . S
C724 C725 1.385 . S
C724 H752 0.930 . S
C725 C724 1.385 . S
C725 C726 1.395 . S
C725 H753 0.929 . S
C726 C725 1.395 . S
C726 C727 1.335 . S
C727 C726 1.335 . S
C727 C728 1.398 . S
C727 H754 0.930 . S
C728 C723 1.382 . S
C728 C727 1.398 . S
C728 H755 0.929 . S
C729 O742 1.271 . S
C729 O743 1.251 . S
C730 O744 1.252 . S
C730 O745 1.272 . S
C731 Sm721 2.846 . S
C731 C732 1.506 . S
C731 O746 1.261 . S
C731 O747 1.242 . S
C732 C731 1.506 . S
C732 C733 1.358 . S
C732 C737 1.382 . S
C733 C732 1.358 . S
C733 C734 1.385 1_545 S
C733 H756 0.926 1_545 S
C734 C733 1.385 1_565 S
C734 C735 1.395 1_565 S
C734 H757 0.929 . S
C735 C734 1.395 1_545 S
C735 C736 1.335 . S
C736 C735 1.335 . S
C736 C737 1.398 . S
C736 H758 0.930 . S
C737 C732 1.382 . S
C737 C736 1.398 . S
C737 H759 0.929 . S
C738 O748 1.271 . S
C738 O749 1.251 . S
C739 O750 1.252 . S
C739 O751 1.272 . S
O740 Sm720 2.543 . S
O740 C722 1.261 . S
O741 Sm720 2.450 . S
O741 C722 1.242 . S
O742 Sm720 2.681 . S
O742 Sm721 2.386 . S
O742 C729 1.271 . S
O743 Sm720 2.464 . S
O743 C729 1.251 . S
O744 Sm720 2.396 . S
O744 C730 1.252 . S
O745 Sm721 2.408 . S
O745 C730 1.272 . S
O746 Sm721 2.543 . S
O746 C731 1.261 . S
O747 Sm721 2.450 . S
O747 C731 1.242 . S
O748 Sm720 2.386 . S
O748 Sm721 2.681 . S
O748 C738 1.271 . S
O749 Sm721 2.464 . S
O749 C738 1.251 . S
O750 Sm721 2.396 . S
O750 C739 1.252 . S
O751 Sm720 2.408 . S
O751 C739 1.272 . S
H752 C724 0.930 . S
H753 C725 0.929 . S
H754 C727 0.930 . S
H755 C728 0.929 . S
H756 C733 0.926 1_565 S
H757 C734 0.929 . S
H758 C736 0.930 . S
H759 C737 0.929 . S
Sm760 C762 2.846 . S
Sm760 O780 2.543 . S
Sm760 O781 2.450 . S
Sm760 O782 2.681 . S
Sm760 O783 2.464 . S
Sm760 O784 2.396 . S
Sm760 O788 2.386 . S
Sm760 O791 2.408 . S
Sm761 C771 2.846 . S
Sm761 O782 2.386 . S
Sm761 O785 2.408 . S
Sm761 O786 2.543 . S
Sm761 O787 2.450 . S
Sm761 O788 2.681 . S
Sm761 O789 2.464 . S
Sm761 O790 2.396 . S
C762 Sm760 2.846 . S
C762 C763 1.506 . S
C762 O780 1.261 . S
C762 O781 1.242 . S
C763 C762 1.506 . S
C763 C764 1.358 . S
C763 C768 1.382 . S
C764 C763 1.358 . S
C764 C765 1.385 . S
C764 H792 0.930 . S
C765 C764 1.385 . S
C765 C766 1.395 . S
C765 H793 0.929 . S
C766 C765 1.395 . S
C766 C767 1.335 . S
C767 C766 1.335 . S
C767 C768 1.398 . S
C767 H794 0.930 . S
C768 C763 1.382 . S
C768 C767 1.398 . S
C768 H795 0.929 . S
C769 O782 1.271 . S
C769 O783 1.251 . S
C770 O784 1.252 . S
C770 O785 1.272 . S
C771 Sm761 2.846 . S
C771 C772 1.506 . S
C771 O786 1.261 . S
C771 O787 1.242 . S
C772 C771 1.506 . S
C772 C773 1.358 . S
C772 C777 1.382 . S
C773 C772 1.358 . S
C773 C774 1.385 1_655 S
C773 H796 0.930 1_655 S
C774 C773 1.385 1_455 S
C774 C775 1.395 1_455 S
C774 H797 0.929 . S
C775 C774 1.395 1_655 S
C775 C776 1.335 . S
C776 C775 1.335 . S
C776 C777 1.398 . S
C776 H798 0.930 . S
C777 C772 1.382 . S
C777 C776 1.398 . S
C777 H799 0.929 . S
C778 O788 1.271 . S
C778 O789 1.251 . S
C779 O790 1.252 . S
C779 O791 1.272 . S
O780 Sm760 2.543 . S
O780 C762 1.261 . S
O781 Sm760 2.450 . S
O781 C762 1.242 . S
O782 Sm760 2.681 . S
O782 Sm761 2.386 . S
O782 C769 1.271 . S
O783 Sm760 2.464 . S
O783 C769 1.251 . S
O784 Sm760 2.396 . S
O784 C770 1.252 . S
O785 Sm761 2.408 . S
O785 C770 1.272 . S
O786 Sm761 2.543 . S
O786 C771 1.261 . S
O787 Sm761 2.450 . S
O787 C771 1.242 . S
O788 Sm760 2.386 . S
O788 Sm761 2.681 . S
O788 C778 1.271 . S
O789 Sm761 2.464 . S
O789 C778 1.251 . S
O790 Sm761 2.396 . S
O790 C779 1.252 . S
O791 Sm760 2.408 . S
O791 C779 1.272 . S
H792 C764 0.930 . S
H793 C765 0.929 . S
H794 C767 0.930 . S
H795 C768 0.929 . S
H796 C773 0.930 1_455 S
H797 C774 0.929 . S
H798 C776 0.930 . S
H799 C777 0.929 . S
Sm800 C802 2.846 . S
Sm800 O820 2.543 . S
Sm800 O821 2.450 . S
Sm800 O822 2.681 . S
Sm800 O823 2.464 . S
Sm800 O824 2.396 . S
Sm800 O828 2.386 . S
Sm800 O831 2.408 . S
Sm801 C811 2.846 . S
Sm801 O822 2.386 . S
Sm801 O825 2.408 . S
Sm801 O826 2.543 . S
Sm801 O827 2.450 . S
Sm801 O828 2.681 . S
Sm801 O829 2.464 . S
Sm801 O830 2.396 . S
C802 Sm800 2.846 . S
C802 C803 1.506 . S
C802 O820 1.261 . S
C802 O821 1.242 . S
C803 C802 1.506 . S
C803 C804 1.358 . S
C803 C808 1.382 . S
C804 C803 1.358 . S
C804 C805 1.385 . S
C804 H832 0.930 . S
C805 C804 1.385 . S
C805 C806 1.395 . S
C805 H833 0.929 . S
C806 C805 1.395 . S
C806 C807 1.335 . S
C807 C806 1.335 . S
C807 C808 1.398 . S
C807 H834 0.930 . S
C808 C803 1.382 . S
C808 C807 1.398 . S
C808 H835 0.929 . S
C809 O822 1.271 . S
C809 O823 1.251 . S
C810 O824 1.252 . S
C810 O825 1.272 . S
C811 Sm801 2.846 . S
C811 C812 1.506 . S
C811 O826 1.261 . S
C811 O827 1.242 . S
C812 C811 1.506 . S
C812 C813 1.358 . S
C812 C817 1.382 . S
C813 C812 1.358 . S
C813 C814 1.385 . S
C813 H836 0.930 . S
C814 C813 1.385 . S
C814 C815 1.395 . S
C814 H837 0.929 . S
C815 C814 1.395 . S
C815 C816 1.335 . S
C816 C815 1.335 . S
C816 C817 1.398 . S
C816 H838 0.930 . S
C817 C812 1.382 . S
C817 C816 1.398 . S
C817 H839 0.929 . S
C818 O828 1.271 . S
C818 O829 1.251 . S
C819 O830 1.252 . S
C819 O831 1.272 . S
O820 Sm800 2.543 . S
O820 C802 1.261 . S
O821 Sm800 2.450 . S
O821 C802 1.242 . S
O822 Sm800 2.681 . S
O822 Sm801 2.386 . S
O822 C809 1.271 . S
O823 Sm800 2.464 . S
O823 C809 1.251 . S
O824 Sm800 2.396 . S
O824 C810 1.252 . S
O825 Sm801 2.408 . S
O825 C810 1.272 . S
O826 Sm801 2.543 . S
O826 C811 1.261 . S
O827 Sm801 2.450 . S
O827 C811 1.242 . S
O828 Sm800 2.386 . S
O828 Sm801 2.681 . S
O828 C818 1.271 . S
O829 Sm801 2.464 . S
O829 C818 1.251 . S
O830 Sm801 2.396 . S
O830 C819 1.252 . S
O831 Sm800 2.408 . S
O831 C819 1.272 . S
H832 C804 0.930 . S
H833 C805 0.929 . S
H834 C807 0.930 . S
H835 C808 0.929 . S
H836 C813 0.930 . S
H837 C814 0.929 . S
H838 C816 0.930 . S
H839 C817 0.929 . S
Sm840 C842 2.846 . S
Sm840 O860 2.543 . S
Sm840 O861 2.450 . S
Sm840 O862 2.681 1_554 S
Sm840 O863 2.464 . S
Sm840 O864 2.396 . S
Sm840 O868 2.386 . S
Sm840 O871 2.408 . S
Sm841 C851 2.846 . S
Sm841 O862 2.386 . S
Sm841 O865 2.408 . S
Sm841 O866 2.543 . S
Sm841 O867 2.450 . S
Sm841 O868 2.681 1_556 S
Sm841 O869 2.464 . S
Sm841 O870 2.396 . S
C842 Sm840 2.846 . S
C842 C843 1.506 . S
C842 O860 1.261 . S
C842 O861 1.242 . S
C843 C842 1.506 . S
C843 C844 1.358 . S
C843 C848 1.382 . S
C844 C843 1.358 . S
C844 C845 1.385 . S
C844 H872 0.930 . S
C845 C844 1.385 . S
C845 C846 1.395 . S
C845 H873 0.929 . S
C846 C845 1.395 . S
C846 C847 1.335 . S
C847 C846 1.335 . S
C847 C848 1.398 . S
C847 H874 0.930 . S
C848 C843 1.382 . S
C848 C847 1.398 . S
C848 H875 0.929 . S
C849 O862 1.271 1_554 S
C849 O863 1.251 . S
C850 O864 1.252 . S
C850 O865 1.272 1_554 S
C851 Sm841 2.846 . S
C851 C852 1.506 . S
C851 O866 1.261 . S
C851 O867 1.242 . S
C852 C851 1.506 . S
C852 C853 1.358 . S
C852 C857 1.382 . S
C853 C852 1.358 . S
C853 C854 1.385 . S
C853 H876 0.930 . S
C854 C853 1.385 . S
C854 C855 1.395 . S
C854 H877 0.929 . S
C855 C854 1.395 . S
C855 C856 1.335 . S
C856 C855 1.335 . S
C856 C857 1.398 . S
C856 H878 0.930 . S
C857 C852 1.382 . S
C857 C856 1.398 . S
C857 H879 0.929 . S
C858 O868 1.271 1_556 S
C858 O869 1.251 . S
C859 O870 1.252 . S
C859 O871 1.272 1_556 S
O860 Sm840 2.543 . S
O860 C842 1.261 . S
O861 Sm840 2.450 . S
O861 C842 1.242 . S
O862 Sm840 2.681 1_556 S
O862 Sm841 2.386 . S
O862 C849 1.271 1_556 S
O863 Sm840 2.464 . S
O863 C849 1.251 . S
O864 Sm840 2.396 . S
O864 C850 1.252 . S
O865 Sm841 2.408 . S
O865 C850 1.272 1_556 S
O866 Sm841 2.543 . S
O866 C851 1.261 . S
O867 Sm841 2.450 . S
O867 C851 1.242 . S
O868 Sm840 2.386 . S
O868 Sm841 2.681 1_554 S
O868 C858 1.271 1_554 S
O869 Sm841 2.464 . S
O869 C858 1.251 . S
O870 Sm841 2.396 . S
O870 C859 1.252 . S
O871 Sm840 2.408 . S
O871 C859 1.272 1_554 S
H872 C844 0.930 . S
H873 C845 0.929 . S
H874 C847 0.930 . S
H875 C848 0.929 . S
H876 C853 0.930 . S
H877 C854 0.929 . S
H878 C856 0.930 . S
H879 C857 0.929 . S
Sm880 C882 2.846 . S
Sm880 O900 2.543 . S
Sm880 O901 2.450 . S
Sm880 O902 2.681 1_554 S
Sm880 O903 2.464 . S
Sm880 O904 2.396 . S
Sm880 O908 2.386 . S
Sm880 O911 2.408 . S
Sm881 C891 2.846 . S
Sm881 O902 2.386 . S
Sm881 O905 2.408 . S
Sm881 O906 2.543 . S
Sm881 O907 2.450 . S
Sm881 O908 2.681 1_556 S
Sm881 O909 2.464 . S
Sm881 O910 2.396 . S
C882 Sm880 2.846 . S
C882 C883 1.506 . S
C882 O900 1.261 . S
C882 O901 1.242 . S
C883 C882 1.506 . S
C883 C884 1.358 . S
C883 C888 1.382 . S
C884 C883 1.358 . S
C884 C885 1.385 . S
C884 H912 0.930 . S
C885 C884 1.385 . S
C885 C886 1.395 . S
C885 H913 0.929 . S
C886 C885 1.395 . S
C886 C887 1.335 . S
C887 C886 1.335 . S
C887 C888 1.398 . S
C887 H914 0.930 . S
C888 C883 1.382 . S
C888 C887 1.398 . S
C888 H915 0.929 . S
C889 O902 1.271 1_554 S
C889 O903 1.251 . S
C890 O904 1.252 . S
C890 O905 1.272 1_554 S
C891 Sm881 2.846 . S
C891 C892 1.506 . S
C891 O906 1.261 . S
C891 O907 1.242 . S
C892 C891 1.506 . S
C892 C893 1.358 . S
C892 C897 1.382 . S
C893 C892 1.358 . S
C893 C894 1.385 . S
C893 H916 0.930 . S
C894 C893 1.385 . S
C894 C895 1.395 . S
C894 H917 0.929 . S
C895 C894 1.395 . S
C895 C896 1.335 . S
C896 C895 1.335 . S
C896 C897 1.398 . S
C896 H918 0.930 . S
C897 C892 1.382 . S
C897 C896 1.398 . S
C897 H919 0.929 . S
C898 O908 1.271 1_556 S
C898 O909 1.251 . S
C899 O910 1.252 . S
C899 O911 1.272 1_556 S
O900 Sm880 2.543 . S
O900 C882 1.261 . S
O901 Sm880 2.450 . S
O901 C882 1.242 . S
O902 Sm880 2.681 1_556 S
O902 Sm881 2.386 . S
O902 C889 1.271 1_556 S
O903 Sm880 2.464 . S
O903 C889 1.251 . S
O904 Sm880 2.396 . S
O904 C890 1.252 . S
O905 Sm881 2.408 . S
O905 C890 1.272 1_556 S
O906 Sm881 2.543 . S
O906 C891 1.261 . S
O907 Sm881 2.450 . S
O907 C891 1.242 . S
O908 Sm880 2.386 . S
O908 Sm881 2.681 1_554 S
O908 C898 1.271 1_554 S
O909 Sm881 2.464 . S
O909 C898 1.251 . S
O910 Sm881 2.396 . S
O910 C899 1.252 . S
O911 Sm880 2.408 . S
O911 C899 1.272 1_554 S
H912 C884 0.930 . S
H913 C885 0.929 . S
H914 C887 0.930 . S
H915 C888 0.929 . S
H916 C893 0.930 . S
H917 C894 0.929 . S
H918 C896 0.930 . S
H919 C897 0.929 . S
Sm920 C922 2.846 . S
Sm920 O940 2.543 . S
Sm920 O941 2.450 . S
Sm920 O942 2.681 1_554 S
Sm920 O943 2.464 . S
Sm920 O944 2.396 . S
Sm920 O948 2.386 . S
Sm920 O951 2.408 . S
Sm921 C931 2.846 . S
Sm921 O942 2.386 . S
Sm921 O945 2.408 . S
Sm921 O946 2.543 . S
Sm921 O947 2.450 . S
Sm921 O948 2.681 1_556 S
Sm921 O949 2.464 . S
Sm921 O950 2.396 . S
C922 Sm920 2.846 . S
C922 C923 1.506 . S
C922 O940 1.261 . S
C922 O941 1.242 . S
C923 C922 1.506 . S
C923 C924 1.358 . S
C923 C928 1.382 . S
C924 C923 1.358 . S
C924 C925 1.385 . S
C924 H952 0.930 . S
C925 C924 1.385 . S
C925 C926 1.395 . S
C925 H953 0.929 . S
C926 C925 1.395 . S
C926 C927 1.335 . S
C927 C926 1.335 . S
C927 C928 1.398 . S
C927 H954 0.930 . S
C928 C923 1.382 . S
C928 C927 1.398 . S
C928 H955 0.929 . S
C929 O942 1.271 1_554 S
C929 O943 1.251 . S
C930 O944 1.252 . S
C930 O945 1.272 1_554 S
C931 Sm921 2.846 . S
C931 C932 1.506 . S
C931 O946 1.261 . S
C931 O947 1.242 . S
C932 C931 1.506 . S
C932 C933 1.358 . S
C932 C937 1.382 . S
C933 C932 1.358 . S
C933 C934 1.385 . S
C933 H956 0.930 . S
C934 C933 1.385 . S
C934 C935 1.395 . S
C934 H957 0.929 . S
C935 C934 1.395 . S
C935 C936 1.335 . S
C936 C935 1.335 . S
C936 C937 1.398 . S
C936 H958 0.930 . S
C937 C932 1.382 . S
C937 C936 1.398 . S
C937 H959 0.929 . S
C938 O948 1.271 1_556 S
C938 O949 1.251 . S
C939 O950 1.252 . S
C939 O951 1.272 1_556 S
O940 Sm920 2.543 . S
O940 C922 1.261 . S
O941 Sm920 2.450 . S
O941 C922 1.242 . S
O942 Sm920 2.681 1_556 S
O942 Sm921 2.386 . S
O942 C929 1.271 1_556 S
O943 Sm920 2.464 . S
O943 C929 1.251 . S
O944 Sm920 2.396 . S
O944 C930 1.252 . S
O945 Sm921 2.408 . S
O945 C930 1.272 1_556 S
O946 Sm921 2.543 . S
O946 C931 1.261 . S
O947 Sm921 2.450 . S
O947 C931 1.242 . S
O948 Sm920 2.386 . S
O948 Sm921 2.681 1_554 S
O948 C938 1.271 1_554 S
O949 Sm921 2.464 . S
O949 C938 1.251 . S
O950 Sm921 2.396 . S
O950 C939 1.252 . S
O951 Sm920 2.408 . S
O951 C939 1.272 1_554 S
H952 C924 0.930 . S
H953 C925 0.929 . S
H954 C927 0.930 . S
H955 C928 0.929 . S
H956 C933 0.930 . S
H957 C934 0.929 . S
H958 C936 0.930 . S
H959 C937 0.929 . S
Sm960 C962 2.846 . S
Sm960 O980 2.543 . S
Sm960 O981 2.450 . S
Sm960 O982 2.681 . S
Sm960 O983 2.464 . S
Sm960 O984 2.396 . S
Sm960 O988 2.386 . S
Sm960 O991 2.408 . S
Sm961 C971 2.846 . S
Sm961 O982 2.386 . S
Sm961 O985 2.408 . S
Sm961 O986 2.543 . S
Sm961 O987 2.450 . S
Sm961 O988 2.681 . S
Sm961 O989 2.464 . S
Sm961 O990 2.396 . S
C962 Sm960 2.846 . S
C962 C963 1.506 . S
C962 O980 1.261 . S
C962 O981 1.242 . S
C963 C962 1.506 . S
C963 C964 1.358 . S
C963 C968 1.382 . S
C964 C963 1.358 . S
C964 C965 1.385 1_565 S
C964 H992 0.926 1_565 S
C965 C964 1.385 1_545 S
C965 C966 1.395 1_545 S
C965 H993 0.929 . S
C966 C965 1.395 1_565 S
C966 C967 1.335 . S
C967 C966 1.335 . S
C967 C968 1.398 . S
C967 H994 0.930 . S
C968 C963 1.382 . S
C968 C967 1.398 . S
C968 H995 0.929 . S
C969 O982 1.271 . S
C969 O983 1.251 . S
C970 O984 1.252 . S
C970 O985 1.272 . S
C971 Sm961 2.846 . S
C971 C972 1.506 . S
C971 O986 1.261 . S
C971 O987 1.242 . S
C972 C971 1.506 . S
C972 C973 1.358 . S
C972 C977 1.382 . S
C973 C972 1.358 . S
C973 C974 1.385 . S
C973 H996 0.930 . S
C974 C973 1.385 . S
C974 C975 1.395 . S
C974 H997 0.929 . S
C975 C974 1.395 . S
C975 C976 1.335 . S
C976 C975 1.335 . S
C976 C977 1.398 . S
C976 H998 0.930 . S
C977 C972 1.382 . S
C977 C976 1.398 . S
C977 H999 0.929 . S
C978 O988 1.271 . S
C978 O989 1.251 . S
C979 O990 1.252 . S
C979 O991 1.272 . S
O980 Sm960 2.543 . S
O980 C962 1.261 . S
O981 Sm960 2.450 . S
O981 C962 1.242 . S
O982 Sm960 2.681 . S
O982 Sm961 2.386 . S
O982 C969 1.271 . S
O983 Sm960 2.464 . S
O983 C969 1.251 . S
O984 Sm960 2.396 . S
O984 C970 1.252 . S
O985 Sm961 2.408 . S
O985 C970 1.272 . S
O986 Sm961 2.543 . S
O986 C971 1.261 . S
O987 Sm961 2.450 . S
O987 C971 1.242 . S
O988 Sm960 2.386 . S
O988 Sm961 2.681 . S
O988 C978 1.271 . S
O989 Sm961 2.464 . S
O989 C978 1.251 . S
O990 Sm961 2.396 . S
O990 C979 1.252 . S
O991 Sm960 2.408 . S
O991 C979 1.272 . S
H992 C964 0.926 1_545 S
H993 C965 0.929 . S
H994 C967 0.930 . S
H995 C968 0.929 . S
H996 C973 0.930 . S
H997 C974 0.929 . S
H998 C976 0.930 . S
H999 C977 0.929 . S
Sm1000 C1002 2.846 . S
Sm1000 O1020 2.543 . S
Sm1000 O1021 2.450 . S
Sm1000 O1022 2.681 . S
Sm1000 O1023 2.464 . S
Sm1000 O1024 2.396 . S
Sm1000 O1028 2.386 . S
Sm1000 O1031 2.408 . S
Sm1001 C1011 2.846 . S
Sm1001 O1022 2.386 . S
Sm1001 O1025 2.408 . S
Sm1001 O1026 2.543 . S
Sm1001 O1027 2.450 . S
Sm1001 O1028 2.681 . S
Sm1001 O1029 2.464 . S
Sm1001 O1030 2.396 . S
C1002 Sm1000 2.846 . S
C1002 C1003 1.506 . S
C1002 O1020 1.261 . S
C1002 O1021 1.242 . S
C1003 C1002 1.506 . S
C1003 C1004 1.358 . S
C1003 C1008 1.382 . S
C1004 C1003 1.358 . S
C1004 C1005 1.385 1_455 S
C1004 H1032 0.930 1_455 S
C1005 C1004 1.385 1_655 S
C1005 C1006 1.395 1_655 S
C1005 H1033 0.929 . S
C1006 C1005 1.395 1_455 S
C1006 C1007 1.335 . S
C1007 C1006 1.335 . S
C1007 C1008 1.398 . S
C1007 H1034 0.930 . S
C1008 C1003 1.382 . S
C1008 C1007 1.398 . S
C1008 H1035 0.929 . S
C1009 O1022 1.271 . S
C1009 O1023 1.251 . S
C1010 O1024 1.252 . S
C1010 O1025 1.272 . S
C1011 Sm1001 2.846 . S
C1011 C1012 1.506 . S
C1011 O1026 1.261 . S
C1011 O1027 1.242 . S
C1012 C1011 1.506 . S
C1012 C1013 1.358 . S
C1012 C1017 1.382 . S
C1013 C1012 1.358 . S
C1013 C1014 1.385 . S
C1013 H1036 0.930 . S
C1014 C1013 1.385 . S
C1014 C1015 1.395 . S
C1014 H1037 0.929 . S
C1015 C1014 1.395 . S
C1015 C1016 1.335 . S
C1016 C1015 1.335 . S
C1016 C1017 1.398 . S
C1016 H1038 0.930 . S
C1017 C1012 1.382 . S
C1017 C1016 1.398 . S
C1017 H1039 0.929 . S
C1018 O1028 1.271 . S
C1018 O1029 1.251 . S
C1019 O1030 1.252 . S
C1019 O1031 1.272 . S
O1020 Sm1000 2.543 . S
O1020 C1002 1.261 . S
O1021 Sm1000 2.450 . S
O1021 C1002 1.242 . S
O1022 Sm1000 2.681 . S
O1022 Sm1001 2.386 . S
O1022 C1009 1.271 . S
O1023 Sm1000 2.464 . S
O1023 C1009 1.251 . S
O1024 Sm1000 2.396 . S
O1024 C1010 1.252 . S
O1025 Sm1001 2.408 . S
O1025 C1010 1.272 . S
O1026 Sm1001 2.543 . S
O1026 C1011 1.261 . S
O1027 Sm1001 2.450 . S
O1027 C1011 1.242 . S
O1028 Sm1000 2.386 . S
O1028 Sm1001 2.681 . S
O1028 C1018 1.271 . S
O1029 Sm1001 2.464 . S
O1029 C1018 1.251 . S
O1030 Sm1001 2.396 . S
O1030 C1019 1.252 . S
O1031 Sm1000 2.408 . S
O1031 C1019 1.272 . S
H1032 C1004 0.930 1_655 S
H1033 C1005 0.929 . S
H1034 C1007 0.930 . S
H1035 C1008 0.929 . S
H1036 C1013 0.930 . S
H1037 C1014 0.929 . S
H1038 C1016 0.930 . S
H1039 C1017 0.929 . S
Sm1040 C1042 2.846 . S
Sm1040 O1060 2.543 . S
Sm1040 O1061 2.450 . S
Sm1040 O1062 2.681 . S
Sm1040 O1063 2.464 . S
Sm1040 O1064 2.396 . S
Sm1040 O1068 2.386 . S
Sm1040 O1071 2.408 . S
Sm1041 C1051 2.846 . S
Sm1041 O1062 2.386 . S
Sm1041 O1065 2.408 . S
Sm1041 O1066 2.543 . S
Sm1041 O1067 2.450 . S
Sm1041 O1068 2.681 . S
Sm1041 O1069 2.464 . S
Sm1041 O1070 2.396 . S
C1042 Sm1040 2.846 . S
C1042 C1043 1.506 . S
C1042 O1060 1.261 . S
C1042 O1061 1.242 . S
C1043 C1042 1.506 . S
C1043 C1044 1.358 . S
C1043 C1048 1.382 . S
C1044 C1043 1.358 . S
C1044 C1045 1.385 . S
C1044 H1072 0.930 . S
C1045 C1044 1.385 . S
C1045 C1046 1.395 . S
C1045 H1073 0.929 . S
C1046 C1045 1.395 . S
C1046 C1047 1.335 . S
C1047 C1046 1.335 . S
C1047 C1048 1.398 . S
C1047 H1074 0.930 . S
C1048 C1043 1.382 . S
C1048 C1047 1.398 . S
C1048 H1075 0.929 . S
C1049 O1062 1.271 . S
C1049 O1063 1.251 . S
C1050 O1064 1.252 . S
C1050 O1065 1.272 . S
C1051 Sm1041 2.846 . S
C1051 C1052 1.506 . S
C1051 O1066 1.261 . S
C1051 O1067 1.242 . S
C1052 C1051 1.506 . S
C1052 C1053 1.358 . S
C1052 C1057 1.382 . S
C1053 C1052 1.358 . S
C1053 C1054 1.385 . S
C1053 H1076 0.930 . S
C1054 C1053 1.385 . S
C1054 C1055 1.395 . S
C1054 H1077 0.929 . S
C1055 C1054 1.395 . S
C1055 C1056 1.335 . S
C1056 C1055 1.335 . S
C1056 C1057 1.398 . S
C1056 H1078 0.930 . S
C1057 C1052 1.382 . S
C1057 C1056 1.398 . S
C1057 H1079 0.929 . S
C1058 O1068 1.271 . S
C1058 O1069 1.251 . S
C1059 O1070 1.252 . S
C1059 O1071 1.272 . S
O1060 Sm1040 2.543 . S
O1060 C1042 1.261 . S
O1061 Sm1040 2.450 . S
O1061 C1042 1.242 . S
O1062 Sm1040 2.681 . S
O1062 Sm1041 2.386 . S
O1062 C1049 1.271 . S
O1063 Sm1040 2.464 . S
O1063 C1049 1.251 . S
O1064 Sm1040 2.396 . S
O1064 C1050 1.252 . S
O1065 Sm1041 2.408 . S
O1065 C1050 1.272 . S
O1066 Sm1041 2.543 . S
O1066 C1051 1.261 . S
O1067 Sm1041 2.450 . S
O1067 C1051 1.242 . S
O1068 Sm1040 2.386 . S
O1068 Sm1041 2.681 . S
O1068 C1058 1.271 . S
O1069 Sm1041 2.464 . S
O1069 C1058 1.251 . S
O1070 Sm1041 2.396 . S
O1070 C1059 1.252 . S
O1071 Sm1040 2.408 . S
O1071 C1059 1.272 . S
H1072 C1044 0.930 . S
H1073 C1045 0.929 . S
H1074 C1047 0.930 . S
H1075 C1048 0.929 . S
H1076 C1053 0.930 . S
H1077 C1054 0.929 . S
H1078 C1056 0.930 . S
H1079 C1057 0.929 . S
Sm1080 C1082 2.846 . S
Sm1080 O1100 2.543 . S
Sm1080 O1101 2.450 . S
Sm1080 O1102 2.681 1_554 S
Sm1080 O1103 2.464 . S
Sm1080 O1104 2.396 . S
Sm1080 O1108 2.386 . S
Sm1080 O1111 2.408 . S
Sm1081 C1091 2.846 . S
Sm1081 O1102 2.386 . S
Sm1081 O1105 2.408 . S
Sm1081 O1106 2.543 . S
Sm1081 O1107 2.450 . S
Sm1081 O1108 2.681 1_556 S
Sm1081 O1109 2.464 . S
Sm1081 O1110 2.396 . S
C1082 Sm1080 2.846 . S
C1082 C1083 1.506 . S
C1082 O1100 1.261 . S
C1082 O1101 1.242 . S
C1083 C1082 1.506 . S
C1083 C1084 1.358 . S
C1083 C1088 1.382 . S
C1084 C1083 1.358 . S
C1084 C1085 1.385 . S
C1084 H1112 0.930 . S
C1085 C1084 1.385 . S
C1085 C1086 1.395 . S
C1085 H1113 0.929 . S
C1086 C1085 1.395 . S
C1086 C1087 1.335 . S
C1087 C1086 1.335 . S
C1087 C1088 1.398 . S
C1087 H1114 0.930 . S
C1088 C1083 1.382 . S
C1088 C1087 1.398 . S
C1088 H1115 0.929 . S
C1089 O1102 1.271 1_554 S
C1089 O1103 1.251 . S
C1090 O1104 1.252 . S
C1090 O1105 1.272 1_554 S
C1091 Sm1081 2.846 . S
C1091 C1092 1.506 . S
C1091 O1106 1.261 . S
C1091 O1107 1.242 . S
C1092 C1091 1.506 . S
C1092 C1093 1.358 . S
C1092 C1097 1.382 . S
C1093 C1092 1.358 . S
C1093 C1094 1.385 . S
C1093 H1116 0.930 . S
C1094 C1093 1.385 . S
C1094 C1095 1.395 . S
C1094 H1117 0.929 . S
C1095 C1094 1.395 . S
C1095 C1096 1.335 . S
C1096 C1095 1.335 . S
C1096 C1097 1.398 . S
C1096 H1118 0.930 . S
C1097 C1092 1.382 . S
C1097 C1096 1.398 . S
C1097 H1119 0.929 . S
C1098 O1108 1.271 1_556 S
C1098 O1109 1.251 . S
C1099 O1110 1.252 . S
C1099 O1111 1.272 1_556 S
O1100 Sm1080 2.543 . S
O1100 C1082 1.261 . S
O1101 Sm1080 2.450 . S
O1101 C1082 1.242 . S
O1102 Sm1080 2.681 1_556 S
O1102 Sm1081 2.386 . S
O1102 C1089 1.271 1_556 S
O1103 Sm1080 2.464 . S
O1103 C1089 1.251 . S
O1104 Sm1080 2.396 . S
O1104 C1090 1.252 . S
O1105 Sm1081 2.408 . S
O1105 C1090 1.272 1_556 S
O1106 Sm1081 2.543 . S
O1106 C1091 1.261 . S
O1107 Sm1081 2.450 . S
O1107 C1091 1.242 . S
O1108 Sm1080 2.386 . S
O1108 Sm1081 2.681 1_554 S
O1108 C1098 1.271 1_554 S
O1109 Sm1081 2.464 . S
O1109 C1098 1.251 . S
O1110 Sm1081 2.396 . S
O1110 C1099 1.252 . S
O1111 Sm1080 2.408 . S
O1111 C1099 1.272 1_554 S
H1112 C1084 0.930 . S
H1113 C1085 0.929 . S
H1114 C1087 0.930 . S
H1115 C1088 0.929 . S
H1116 C1093 0.930 . S
H1117 C1094 0.929 . S
H1118 C1096 0.930 . S
H1119 C1097 0.929 . S
Sm1120 C1122 2.846 . S
Sm1120 O1140 2.543 . S
Sm1120 O1141 2.450 . S
Sm1120 O1142 2.681 1_554 S
Sm1120 O1143 2.464 . S
Sm1120 O1144 2.396 . S
Sm1120 O1148 2.386 . S
Sm1120 O1151 2.408 . S
Sm1121 C1131 2.846 . S
Sm1121 O1142 2.386 . S
Sm1121 O1145 2.408 . S
Sm1121 O1146 2.543 . S
Sm1121 O1147 2.450 . S
Sm1121 O1148 2.681 1_556 S
Sm1121 O1149 2.464 . S
Sm1121 O1150 2.396 . S
C1122 Sm1120 2.846 . S
C1122 C1123 1.506 . S
C1122 O1140 1.261 . S
C1122 O1141 1.242 . S
C1123 C1122 1.506 . S
C1123 C1124 1.358 . S
C1123 C1128 1.382 . S
C1124 C1123 1.358 . S
C1124 C1125 1.385 . S
C1124 H1152 0.930 . S
C1125 C1124 1.385 . S
C1125 C1126 1.395 . S
C1125 H1153 0.929 . S
C1126 C1125 1.395 . S
C1126 C1127 1.335 . S
C1127 C1126 1.335 . S
C1127 C1128 1.398 . S
C1127 H1154 0.930 . S
C1128 C1123 1.382 . S
C1128 C1127 1.398 . S
C1128 H1155 0.929 . S
C1129 O1142 1.271 1_554 S
C1129 O1143 1.251 . S
C1130 O1144 1.252 . S
C1130 O1145 1.272 1_554 S
C1131 Sm1121 2.846 . S
C1131 C1132 1.506 . S
C1131 O1146 1.261 . S
C1131 O1147 1.242 . S
C1132 C1131 1.506 . S
C1132 C1133 1.358 . S
C1132 C1137 1.382 . S
C1133 C1132 1.358 . S
C1133 C1134 1.385 . S
C1133 H1156 0.930 . S
C1134 C1133 1.385 . S
C1134 C1135 1.395 . S
C1134 H1157 0.929 . S
C1135 C1134 1.395 . S
C1135 C1136 1.335 . S
C1136 C1135 1.335 . S
C1136 C1137 1.398 . S
C1136 H1158 0.930 . S
C1137 C1132 1.382 . S
C1137 C1136 1.398 . S
C1137 H1159 0.929 . S
C1138 O1148 1.271 1_556 S
C1138 O1149 1.251 . S
C1139 O1150 1.252 . S
C1139 O1151 1.272 1_556 S
O1140 Sm1120 2.543 . S
O1140 C1122 1.261 . S
O1141 Sm1120 2.450 . S
O1141 C1122 1.242 . S
O1142 Sm1120 2.681 1_556 S
O1142 Sm1121 2.386 . S
O1142 C1129 1.271 1_556 S
O1143 Sm1120 2.464 . S
O1143 C1129 1.251 . S
O1144 Sm1120 2.396 . S
O1144 C1130 1.252 . S
O1145 Sm1121 2.408 . S
O1145 C1130 1.272 1_556 S
O1146 Sm1121 2.543 . S
O1146 C1131 1.261 . S
O1147 Sm1121 2.450 . S
O1147 C1131 1.242 . S
O1148 Sm1120 2.386 . S
O1148 Sm1121 2.681 1_554 S
O1148 C1138 1.271 1_554 S
O1149 Sm1121 2.464 . S
O1149 C1138 1.251 . S
O1150 Sm1121 2.396 . S
O1150 C1139 1.252 . S
O1151 Sm1120 2.408 . S
O1151 C1139 1.272 1_554 S
H1152 C1124 0.930 . S
H1153 C1125 0.929 . S
H1154 C1127 0.930 . S
H1155 C1128 0.929 . S
H1156 C1133 0.930 . S
H1157 C1134 0.929 . S
H1158 C1136 0.930 . S
H1159 C1137 0.929 . S
Sm1160 C1162 2.846 . S
Sm1160 O1180 2.543 . S
Sm1160 O1181 2.450 . S
Sm1160 O1182 2.681 1_554 S
Sm1160 O1183 2.464 . S
Sm1160 O1184 2.396 . S
Sm1160 O1188 2.386 . S
Sm1160 O1191 2.408 . S
Sm1161 C1171 2.846 . S
Sm1161 O1182 2.386 . S
Sm1161 O1185 2.408 . S
Sm1161 O1186 2.543 . S
Sm1161 O1187 2.450 . S
Sm1161 O1188 2.681 1_556 S
Sm1161 O1189 2.464 . S
Sm1161 O1190 2.396 . S
C1162 Sm1160 2.846 . S
C1162 C1163 1.506 . S
C1162 O1180 1.261 . S
C1162 O1181 1.242 . S
C1163 C1162 1.506 . S
C1163 C1164 1.358 . S
C1163 C1168 1.382 . S
C1164 C1163 1.358 . S
C1164 C1165 1.385 . S
C1164 H1192 0.930 . S
C1165 C1164 1.385 . S
C1165 C1166 1.395 . S
C1165 H1193 0.929 . S
C1166 C1165 1.395 . S
C1166 C1167 1.335 . S
C1167 C1166 1.335 . S
C1167 C1168 1.398 . S
C1167 H1194 0.930 . S
C1168 C1163 1.382 . S
C1168 C1167 1.398 . S
C1168 H1195 0.929 . S
C1169 O1182 1.271 1_554 S
C1169 O1183 1.251 . S
C1170 O1184 1.252 . S
C1170 O1185 1.272 1_554 S
C1171 Sm1161 2.846 . S
C1171 C1172 1.506 . S
C1171 O1186 1.261 . S
C1171 O1187 1.242 . S
C1172 C1171 1.506 . S
C1172 C1173 1.358 . S
C1172 C1177 1.382 . S
C1173 C1172 1.358 . S
C1173 C1174 1.385 . S
C1173 H1196 0.930 . S
C1174 C1173 1.385 . S
C1174 C1175 1.395 . S
C1174 H1197 0.929 . S
C1175 C1174 1.395 . S
C1175 C1176 1.335 . S
C1176 C1175 1.335 . S
C1176 C1177 1.398 . S
C1176 H1198 0.930 . S
C1177 C1172 1.382 . S
C1177 C1176 1.398 . S
C1177 H1199 0.929 . S
C1178 O1188 1.271 1_556 S
C1178 O1189 1.251 . S
C1179 O1190 1.252 . S
C1179 O1191 1.272 1_556 S
O1180 Sm1160 2.543 . S
O1180 C1162 1.261 . S
O1181 Sm1160 2.450 . S
O1181 C1162 1.242 . S
O1182 Sm1160 2.681 1_556 S
O1182 Sm1161 2.386 . S
O1182 C1169 1.271 1_556 S
O1183 Sm1160 2.464 . S
O1183 C1169 1.251 . S
O1184 Sm1160 2.396 . S
O1184 C1170 1.252 . S
O1185 Sm1161 2.408 . S
O1185 C1170 1.272 1_556 S
O1186 Sm1161 2.543 . S
O1186 C1171 1.261 . S
O1187 Sm1161 2.450 . S
O1187 C1171 1.242 . S
O1188 Sm1160 2.386 . S
O1188 Sm1161 2.681 1_554 S
O1188 C1178 1.271 1_554 S
O1189 Sm1161 2.464 . S
O1189 C1178 1.251 . S
O1190 Sm1161 2.396 . S
O1190 C1179 1.252 . S
O1191 Sm1160 2.408 . S
O1191 C1179 1.272 1_554 S
H1192 C1164 0.930 . S
H1193 C1165 0.929 . S
H1194 C1167 0.930 . S
H1195 C1168 0.929 . S
H1196 C1173 0.930 . S
H1197 C1174 0.929 . S
H1198 C1176 0.930 . S
H1199 C1177 0.929 . S
Sm1200 C1202 2.846 . S
Sm1200 O1220 2.543 . S
Sm1200 O1221 2.450 . S
Sm1200 O1222 2.681 . S
Sm1200 O1223 2.464 . S
Sm1200 O1224 2.396 . S
Sm1200 O1228 2.386 . S
Sm1200 O1231 2.408 . S
Sm1201 C1211 2.846 . S
Sm1201 O1222 2.386 . S
Sm1201 O1225 2.408 . S
Sm1201 O1226 2.543 . S
Sm1201 O1227 2.450 . S
Sm1201 O1228 2.681 . S
Sm1201 O1229 2.464 . S
Sm1201 O1230 2.396 . S
C1202 Sm1200 2.846 . S
C1202 C1203 1.506 . S
C1202 O1220 1.261 . S
C1202 O1221 1.242 . S
C1203 C1202 1.506 . S
C1203 C1204 1.358 . S
C1203 C1208 1.382 . S
C1204 C1203 1.358 . S
C1204 C1205 1.385 . S
C1204 H1232 0.930 . S
C1205 C1204 1.385 . S
C1205 C1206 1.395 . S
C1205 H1233 0.929 . S
C1206 C1205 1.395 . S
C1206 C1207 1.335 . S
C1207 C1206 1.335 . S
C1207 C1208 1.398 . S
C1207 H1234 0.930 . S
C1208 C1203 1.382 . S
C1208 C1207 1.398 . S
C1208 H1235 0.929 . S
C1209 O1222 1.271 . S
C1209 O1223 1.251 . S
C1210 O1224 1.252 . S
C1210 O1225 1.272 . S
C1211 Sm1201 2.846 . S
C1211 C1212 1.506 . S
C1211 O1226 1.261 . S
C1211 O1227 1.242 . S
C1212 C1211 1.506 . S
C1212 C1213 1.358 . S
C1212 C1217 1.382 . S
C1213 C1212 1.358 . S
C1213 C1214 1.385 . S
C1213 H1236 0.930 . S
C1214 C1213 1.385 . S
C1214 C1215 1.395 . S
C1214 H1237 0.929 . S
C1215 C1214 1.395 . S
C1215 C1216 1.335 . S
C1216 C1215 1.335 . S
C1216 C1217 1.398 . S
C1216 H1238 0.930 . S
C1217 C1212 1.382 . S
C1217 C1216 1.398 . S
C1217 H1239 0.929 . S
C1218 O1228 1.271 . S
C1218 O1229 1.251 . S
C1219 O1230 1.252 . S
C1219 O1231 1.272 . S
O1220 Sm1200 2.543 . S
O1220 C1202 1.261 . S
O1221 Sm1200 2.450 . S
O1221 C1202 1.242 . S
O1222 Sm1200 2.681 . S
O1222 Sm1201 2.386 . S
O1222 C1209 1.271 . S
O1223 Sm1200 2.464 . S
O1223 C1209 1.251 . S
O1224 Sm1200 2.396 . S
O1224 C1210 1.252 . S
O1225 Sm1201 2.408 . S
O1225 C1210 1.272 . S
O1226 Sm1201 2.543 . S
O1226 C1211 1.261 . S
O1227 Sm1201 2.450 . S
O1227 C1211 1.242 . S
O1228 Sm1200 2.386 . S
O1228 Sm1201 2.681 . S
O1228 C1218 1.271 . S
O1229 Sm1201 2.464 . S
O1229 C1218 1.251 . S
O1230 Sm1201 2.396 . S
O1230 C1219 1.252 . S
O1231 Sm1200 2.408 . S
O1231 C1219 1.272 . S
H1232 C1204 0.930 . S
H1233 C1205 0.929 . S
H1234 C1207 0.930 . S
H1235 C1208 0.929 . S
H1236 C1213 0.930 . S
H1237 C1214 0.929 . S
H1238 C1216 0.930 . S
H1239 C1217 0.929 . S
Sm1240 C1242 2.846 . S
Sm1240 O1260 2.543 . S
Sm1240 O1261 2.450 . S
Sm1240 O1262 2.681 . S
Sm1240 O1263 2.464 . S
Sm1240 O1264 2.396 . S
Sm1240 O1268 2.386 . S
Sm1240 O1271 2.408 . S
Sm1241 C1251 2.846 . S
Sm1241 O1262 2.386 . S
Sm1241 O1265 2.408 . S
Sm1241 O1266 2.543 . S
Sm1241 O1267 2.450 . S
Sm1241 O1268 2.681 . S
Sm1241 O1269 2.464 . S
Sm1241 O1270 2.396 . S
C1242 Sm1240 2.846 . S
C1242 C1243 1.506 . S
C1242 O1260 1.261 . S
C1242 O1261 1.242 . S
C1243 C1242 1.506 . S
C1243 C1244 1.358 . S
C1243 C1248 1.382 . S
C1244 C1243 1.358 . S
C1244 C1245 1.385 . S
C1244 H1272 0.930 . S
C1245 C1244 1.385 . S
C1245 C1246 1.395 . S
C1245 H1273 0.929 . S
C1246 C1245 1.395 . S
C1246 C1247 1.335 . S
C1247 C1246 1.335 . S
C1247 C1248 1.398 . S
C1247 H1274 0.930 . S
C1248 C1243 1.382 . S
C1248 C1247 1.398 . S
C1248 H1275 0.929 . S
C1249 O1262 1.271 . S
C1249 O1263 1.251 . S
C1250 O1264 1.252 . S
C1250 O1265 1.272 . S
C1251 Sm1241 2.846 . S
C1251 C1252 1.506 . S
C1251 O1266 1.261 . S
C1251 O1267 1.242 . S
C1252 C1251 1.506 . S
C1252 C1253 1.358 . S
C1252 C1257 1.382 . S
C1253 C1252 1.358 . S
C1253 C1254 1.385 . S
C1253 H1276 0.930 . S
C1254 C1253 1.385 . S
C1254 C1255 1.395 . S
C1254 H1277 0.929 . S
C1255 C1254 1.395 . S
C1255 C1256 1.335 . S
C1256 C1255 1.335 . S
C1256 C1257 1.398 . S
C1256 H1278 0.930 . S
C1257 C1252 1.382 . S
C1257 C1256 1.398 . S
C1257 H1279 0.929 . S
C1258 O1268 1.271 . S
C1258 O1269 1.251 . S
C1259 O1270 1.252 . S
C1259 O1271 1.272 . S
O1260 Sm1240 2.543 . S
O1260 C1242 1.261 . S
O1261 Sm1240 2.450 . S
O1261 C1242 1.242 . S
O1262 Sm1240 2.681 . S
O1262 Sm1241 2.386 . S
O1262 C1249 1.271 . S
O1263 Sm1240 2.464 . S
O1263 C1249 1.251 . S
O1264 Sm1240 2.396 . S
O1264 C1250 1.252 . S
O1265 Sm1241 2.408 . S
O1265 C1250 1.272 . S
O1266 Sm1241 2.543 . S
O1266 C1251 1.261 . S
O1267 Sm1241 2.450 . S
O1267 C1251 1.242 . S
O1268 Sm1240 2.386 . S
O1268 Sm1241 2.681 . S
O1268 C1258 1.271 . S
O1269 Sm1241 2.464 . S
O1269 C1258 1.251 . S
O1270 Sm1241 2.396 . S
O1270 C1259 1.252 . S
O1271 Sm1240 2.408 . S
O1271 C1259 1.272 . S
H1272 C1244 0.930 . S
H1273 C1245 0.929 . S
H1274 C1247 0.930 . S
H1275 C1248 0.929 . S
H1276 C1253 0.930 . S
H1277 C1254 0.929 . S
H1278 C1256 0.930 . S
H1279 C1257 0.929 . S
Sm1280 C1282 2.846 . S
Sm1280 O1300 2.543 . S
Sm1280 O1301 2.450 . S
Sm1280 O1302 2.681 . S
Sm1280 O1303 2.464 . S
Sm1280 O1304 2.396 . S
Sm1280 O1308 2.386 . S
Sm1280 O1311 2.408 . S
Sm1281 C1291 2.846 . S
Sm1281 O1302 2.386 . S
Sm1281 O1305 2.408 . S
Sm1281 O1306 2.543 . S
Sm1281 O1307 2.450 . S
Sm1281 O1308 2.681 . S
Sm1281 O1309 2.464 . S
Sm1281 O1310 2.396 . S
C1282 Sm1280 2.846 . S
C1282 C1283 1.506 . S
C1282 O1300 1.261 . S
C1282 O1301 1.242 . S
C1283 C1282 1.506 . S
C1283 C1284 1.358 . S
C1283 C1288 1.382 . S
C1284 C1283 1.358 . S
C1284 C1285 1.385 . S
C1284 H1312 0.930 . S
C1285 C1284 1.385 . S
C1285 C1286 1.395 . S
C1285 H1313 0.929 . S
C1286 C1285 1.395 . S
C1286 C1287 1.335 . S
C1287 C1286 1.335 . S
C1287 C1288 1.398 . S
C1287 H1314 0.930 . S
C1288 C1283 1.382 . S
C1288 C1287 1.398 . S
C1288 H1315 0.929 . S
C1289 O1302 1.271 . S
C1289 O1303 1.251 . S
C1290 O1304 1.252 . S
C1290 O1305 1.272 . S
C1291 Sm1281 2.846 . S
C1291 C1292 1.506 . S
C1291 O1306 1.261 . S
C1291 O1307 1.242 . S
C1292 C1291 1.506 . S
C1292 C1293 1.358 . S
C1292 C1297 1.382 . S
C1293 C1292 1.358 . S
C1293 C1294 1.385 . S
C1293 H1316 0.930 . S
C1294 C1293 1.385 . S
C1294 C1295 1.395 . S
C1294 H1317 0.929 . S
C1295 C1294 1.395 . S
C1295 C1296 1.335 . S
C1296 C1295 1.335 . S
C1296 C1297 1.398 . S
C1296 H1318 0.930 . S
C1297 C1292 1.382 . S
C1297 C1296 1.398 . S
C1297 H1319 0.929 . S
C1298 O1308 1.271 . S
C1298 O1309 1.251 . S
C1299 O1310 1.252 . S
C1299 O1311 1.272 . S
O1300 Sm1280 2.543 . S
O1300 C1282 1.261 . S
O1301 Sm1280 2.450 . S
O1301 C1282 1.242 . S
O1302 Sm1280 2.681 . S
O1302 Sm1281 2.386 . S
O1302 C1289 1.271 . S
O1303 Sm1280 2.464 . S
O1303 C1289 1.251 . S
O1304 Sm1280 2.396 . S
O1304 C1290 1.252 . S
O1305 Sm1281 2.408 . S
O1305 C1290 1.272 . S
O1306 Sm1281 2.543 . S
O1306 C1291 1.261 . S
O1307 Sm1281 2.450 . S
O1307 C1291 1.242 . S
O1308 Sm1280 2.386 . S
O1308 Sm1281 2.681 . S
O1308 C1298 1.271 . S
O1309 Sm1281 2.464 . S
O1309 C1298 1.251 . S
O1310 Sm1281 2.396 . S
O1310 C1299 1.252 . S
O1311 Sm1280 2.408 . S
O1311 C1299 1.272 . S
H1312 C1284 0.930 . S
H1313 C1285 0.929 . S
H1314 C1287 0.930 . S
H1315 C1288 0.929 . S
H1316 C1293 0.930 . S
H1317 C1294 0.929 . S
H1318 C1296 0.930 . S
H1319 C1297 0.929 . S
Sm1320 C1322 2.846 . S
Sm1320 O1340 2.543 . S
Sm1320 O1341 2.450 . S
Sm1320 O1342 2.681 . S
Sm1320 O1343 2.464 . S
Sm1320 O1344 2.396 . S
Sm1320 O1348 2.386 . S
Sm1320 O1351 2.408 . S
Sm1321 C1331 2.846 . S
Sm1321 O1342 2.386 . S
Sm1321 O1345 2.408 . S
Sm1321 O1346 2.543 . S
Sm1321 O1347 2.450 . S
Sm1321 O1348 2.681 . S
Sm1321 O1349 2.464 . S
Sm1321 O1350 2.396 . S
C1322 Sm1320 2.846 . S
C1322 C1323 1.506 . S
C1322 O1340 1.261 . S
C1322 O1341 1.242 . S
C1323 C1322 1.506 . S
C1323 C1324 1.358 . S
C1323 C1328 1.382 . S
C1324 C1323 1.358 . S
C1324 C1325 1.385 . S
C1324 H1352 0.930 . S
C1325 C1324 1.385 . S
C1325 C1326 1.395 . S
C1325 H1353 0.929 . S
C1326 C1325 1.395 . S
C1326 C1327 1.335 . S
C1327 C1326 1.335 . S
C1327 C1328 1.398 . S
C1327 H1354 0.930 . S
C1328 C1323 1.382 . S
C1328 C1327 1.398 . S
C1328 H1355 0.929 . S
C1329 O1342 1.271 . S
C1329 O1343 1.251 . S
C1330 O1344 1.252 . S
C1330 O1345 1.272 . S
C1331 Sm1321 2.846 . S
C1331 C1332 1.506 . S
C1331 O1346 1.261 . S
C1331 O1347 1.242 . S
C1332 C1331 1.506 . S
C1332 C1333 1.358 . S
C1332 C1337 1.382 . S
C1333 C1332 1.358 . S
C1333 C1334 1.385 1_455 S
C1333 H1356 0.930 1_455 S
C1334 C1333 1.385 1_655 S
C1334 C1335 1.395 1_655 S
C1334 H1357 0.929 . S
C1335 C1334 1.395 1_455 S
C1335 C1336 1.335 . S
C1336 C1335 1.335 . S
C1336 C1337 1.398 . S
C1336 H1358 0.930 . S
C1337 C1332 1.382 . S
C1337 C1336 1.398 . S
C1337 H1359 0.929 . S
C1338 O1348 1.271 . S
C1338 O1349 1.251 . S
C1339 O1350 1.252 . S
C1339 O1351 1.272 . S
O1340 Sm1320 2.543 . S
O1340 C1322 1.261 . S
O1341 Sm1320 2.450 . S
O1341 C1322 1.242 . S
O1342 Sm1320 2.681 . S
O1342 Sm1321 2.386 . S
O1342 C1329 1.271 . S
O1343 Sm1320 2.464 . S
O1343 C1329 1.251 . S
O1344 Sm1320 2.396 . S
O1344 C1330 1.252 . S
O1345 Sm1321 2.408 . S
O1345 C1330 1.272 . S
O1346 Sm1321 2.543 . S
O1346 C1331 1.261 . S
O1347 Sm1321 2.450 . S
O1347 C1331 1.242 . S
O1348 Sm1320 2.386 . S
O1348 Sm1321 2.681 . S
O1348 C1338 1.271 . S
O1349 Sm1321 2.464 . S
O1349 C1338 1.251 . S
O1350 Sm1321 2.396 . S
O1350 C1339 1.252 . S
O1351 Sm1320 2.408 . S
O1351 C1339 1.272 . S
H1352 C1324 0.930 . S
H1353 C1325 0.929 . S
H1354 C1327 0.930 . S
H1355 C1328 0.929 . S
H1356 C1333 0.930 1_655 S
H1357 C1334 0.929 . S
H1358 C1336 0.930 . S
H1359 C1337 0.929 . S
Sm1360 C1362 2.846 . S
Sm1360 O1380 2.543 . S
Sm1360 O1381 2.450 . S
Sm1360 O1382 2.681 . S
Sm1360 O1383 2.464 . S
Sm1360 O1384 2.396 . S
Sm1360 O1388 2.386 . S
Sm1360 O1391 2.408 . S
Sm1361 C1371 2.846 . S
Sm1361 O1382 2.386 . S
Sm1361 O1385 2.408 . S
Sm1361 O1386 2.543 . S
Sm1361 O1387 2.450 . S
Sm1361 O1388 2.681 . S
Sm1361 O1389 2.464 . S
Sm1361 O1390 2.396 . S
C1362 Sm1360 2.846 . S
C1362 C1363 1.506 . S
C1362 O1380 1.261 . S
C1362 O1381 1.242 . S
C1363 C1362 1.506 . S
C1363 C1364 1.358 . S
C1363 C1368 1.382 . S
C1364 C1363 1.358 . S
C1364 C1365 1.385 . S
C1364 H1392 0.930 . S
C1365 C1364 1.385 . S
C1365 C1366 1.395 . S
C1365 H1393 0.929 . S
C1366 C1365 1.395 . S
C1366 C1367 1.335 . S
C1367 C1366 1.335 . S
C1367 C1368 1.398 . S
C1367 H1394 0.930 . S
C1368 C1363 1.382 . S
C1368 C1367 1.398 . S
C1368 H1395 0.929 . S
C1369 O1382 1.271 . S
C1369 O1383 1.251 . S
C1370 O1384 1.252 . S
C1370 O1385 1.272 . S
C1371 Sm1361 2.846 . S
C1371 C1372 1.506 . S
C1371 O1386 1.261 . S
C1371 O1387 1.242 . S
C1372 C1371 1.506 . S
C1372 C1373 1.358 . S
C1372 C1377 1.382 . S
C1373 C1372 1.358 . S
C1373 C1374 1.385 . S
C1373 H1396 0.930 . S
C1374 C1373 1.385 . S
C1374 C1375 1.395 . S
C1374 H1397 0.929 . S
C1375 C1374 1.395 . S
C1375 C1376 1.335 . S
C1376 C1375 1.335 . S
C1376 C1377 1.398 . S
C1376 H1398 0.930 . S
C1377 C1372 1.382 . S
C1377 C1376 1.398 . S
C1377 H1399 0.929 . S
C1378 O1388 1.271 . S
C1378 O1389 1.251 . S
C1379 O1390 1.252 . S
C1379 O1391 1.272 . S
O1380 Sm1360 2.543 . S
O1380 C1362 1.261 . S
O1381 Sm1360 2.450 . S
O1381 C1362 1.242 . S
O1382 Sm1360 2.681 . S
O1382 Sm1361 2.386 . S
O1382 C1369 1.271 . S
O1383 Sm1360 2.464 . S
O1383 C1369 1.251 . S
O1384 Sm1360 2.396 . S
O1384 C1370 1.252 . S
O1385 Sm1361 2.408 . S
O1385 C1370 1.272 . S
O1386 Sm1361 2.543 . S
O1386 C1371 1.261 . S
O1387 Sm1361 2.450 . S
O1387 C1371 1.242 . S
O1388 Sm1360 2.386 . S
O1388 Sm1361 2.681 . S
O1388 C1378 1.271 . S
O1389 Sm1361 2.464 . S
O1389 C1378 1.251 . S
O1390 Sm1361 2.396 . S
O1390 C1379 1.252 . S
O1391 Sm1360 2.408 . S
O1391 C1379 1.272 . S
H1392 C1364 0.930 . S
H1393 C1365 0.929 . S
H1394 C1367 0.930 . S
H1395 C1368 0.929 . S
H1396 C1373 0.930 . S
H1397 C1374 0.929 . S
H1398 C1376 0.930 . S
H1399 C1377 0.929 . S
Sm1400 C1402 2.846 . S
Sm1400 O1420 2.543 . S
Sm1400 O1421 2.450 . S
Sm1400 O1422 2.681 . S
Sm1400 O1423 2.464 . S
Sm1400 O1424 2.396 . S
Sm1400 O1428 2.386 . S
Sm1400 O1431 2.408 . S
Sm1401 C1411 2.846 . S
Sm1401 O1422 2.386 . S
Sm1401 O1425 2.408 . S
Sm1401 O1426 2.543 . S
Sm1401 O1427 2.450 . S
Sm1401 O1428 2.681 . S
Sm1401 O1429 2.464 . S
Sm1401 O1430 2.396 . S
C1402 Sm1400 2.846 . S
C1402 C1403 1.506 . S
C1402 O1420 1.261 . S
C1402 O1421 1.242 . S
C1403 C1402 1.506 . S
C1403 C1404 1.358 . S
C1403 C1408 1.382 . S
C1404 C1403 1.358 . S
C1404 C1405 1.385 . S
C1404 H1432 0.930 . S
C1405 C1404 1.385 . S
C1405 C1406 1.395 . S
C1405 H1433 0.929 . S
C1406 C1405 1.395 . S
C1406 C1407 1.335 . S
C1407 C1406 1.335 . S
C1407 C1408 1.398 . S
C1407 H1434 0.930 . S
C1408 C1403 1.382 . S
C1408 C1407 1.398 . S
C1408 H1435 0.929 . S
C1409 O1422 1.271 . S
C1409 O1423 1.251 . S
C1410 O1424 1.252 . S
C1410 O1425 1.272 . S
C1411 Sm1401 2.846 . S
C1411 C1412 1.506 . S
C1411 O1426 1.261 . S
C1411 O1427 1.242 . S
C1412 C1411 1.506 . S
C1412 C1413 1.358 . S
C1412 C1417 1.382 . S
C1413 C1412 1.358 . S
C1413 C1414 1.385 1_565 S
C1413 H1436 0.930 1_565 S
C1414 C1413 1.385 1_545 S
C1414 C1415 1.395 1_545 S
C1414 H1437 0.929 . S
C1415 C1414 1.395 1_565 S
C1415 C1416 1.335 . S
C1416 C1415 1.335 . S
C1416 C1417 1.398 . S
C1416 H1438 0.930 . S
C1417 C1412 1.382 . S
C1417 C1416 1.398 . S
C1417 H1439 0.929 . S
C1418 O1428 1.271 . S
C1418 O1429 1.251 . S
C1419 O1430 1.252 . S
C1419 O1431 1.272 . S
O1420 Sm1400 2.543 . S
O1420 C1402 1.261 . S
O1421 Sm1400 2.450 . S
O1421 C1402 1.242 . S
O1422 Sm1400 2.681 . S
O1422 Sm1401 2.386 . S
O1422 C1409 1.271 . S
O1423 Sm1400 2.464 . S
O1423 C1409 1.251 . S
O1424 Sm1400 2.396 . S
O1424 C1410 1.252 . S
O1425 Sm1401 2.408 . S
O1425 C1410 1.272 . S
O1426 Sm1401 2.543 . S
O1426 C1411 1.261 . S
O1427 Sm1401 2.450 . S
O1427 C1411 1.242 . S
O1428 Sm1400 2.386 . S
O1428 Sm1401 2.681 . S
O1428 C1418 1.271 . S
O1429 Sm1401 2.464 . S
O1429 C1418 1.251 . S
O1430 Sm1401 2.396 . S
O1430 C1419 1.252 . S
O1431 Sm1400 2.408 . S
O1431 C1419 1.272 . S
H1432 C1404 0.930 . S
H1433 C1405 0.929 . S
H1434 C1407 0.930 . S
H1435 C1408 0.929 . S
H1436 C1413 0.930 1_545 S
H1437 C1414 0.929 . S
H1438 C1416 0.930 . S
H1439 C1417 0.929 . S
H1440 C1448 0.950 . S
H1441 C1453 0.950 . S
H1442 C1450 0.950 . S
H1443 C1452 0.950 . S
H1444 C1454 0.950 . S
H1445 C1456 0.950 . S
H1446 C1458 0.950 . S
H1447 C1459 0.950 . S
C1448 H1440 0.950 . S
C1448 C1449 1.386 . S
C1448 C1450 1.391 . S
C1449 C1448 1.386 . S
C1449 C1453 1.393 . S
C1450 H1442 0.950 . S
C1450 C1448 1.391 . S
C1450 C1451 1.400 . S
C1451 C1450 1.400 . S
C1451 C1452 1.398 . S
C1451 C1457 1.491 . S
C1452 H1443 0.950 . S
C1452 C1451 1.398 . S
C1452 C1453 1.391 . S
C1453 H1441 0.950 . S
C1453 C1449 1.393 . S
C1453 C1452 1.391 . S
C1454 H1444 0.950 . S
C1454 C1455 1.386 . S
C1454 C1456 1.391 1_565 S
C1455 C1454 1.386 . S
C1455 C1459 1.393 . S
C1456 H1445 0.950 . S
C1456 C1454 1.391 1_545 S
C1456 C1457 1.400 . S
C1457 C1451 1.491 . S
C1457 C1456 1.400 . S
C1457 C1458 1.398 . S
C1458 H1446 0.950 . S
C1458 C1457 1.398 . S
C1458 C1459 1.391 1_545 S
C1459 H1447 0.950 . S
C1459 C1455 1.393 . S
C1459 C1458 1.391 1_565 S
H1460 C1468 0.950 . S
H1461 C1473 0.950 1_455 S
H1462 C1470 0.950 . S
H1463 C1472 0.950 . S
H1464 C1474 0.950 . S
H1465 C1476 0.950 . S
H1466 C1478 0.950 . S
H1467 C1479 0.943 1_565 S
C1468 H1460 0.950 . S
C1468 C1469 1.386 . S
C1468 C1470 1.391 1_455 S
C1469 C1468 1.386 . S
C1469 C1473 1.393 1_455 S
C1470 H1462 0.950 . S
C1470 C1468 1.391 1_655 S
C1470 C1471 1.400 . S
C1471 C1470 1.400 . S
C1471 C1472 1.398 . S
C1471 C1477 1.491 . S
C1472 H1463 0.950 . S
C1472 C1471 1.398 . S
C1472 C1473 1.391 . S
C1473 H1461 0.950 1_655 S
C1473 C1469 1.393 1_655 S
C1473 C1472 1.391 . S
C1474 H1464 0.950 . S
C1474 C1475 1.386 . S
C1474 C1476 1.391 . S
C1475 C1474 1.386 . S
C1475 C1479 1.397 . S
C1476 H1465 0.950 . S
C1476 C1474 1.391 . S
C1476 C1477 1.400 . S
C1477 C1471 1.491 . S
C1477 C1476 1.400 . S
C1477 C1478 1.398 . S
C1478 H1466 0.950 . S
C1478 C1477 1.398 . S
C1478 C1479 1.393 . S
C1479 H1467 0.943 1_545 S
C1479 C1475 1.397 . S
C1479 C1478 1.393 . S
H1480 C1488 0.950 . S
H1481 C1493 0.950 1_455 S
H1482 C1490 0.950 . S
H1483 C1492 0.950 . S
H1484 C1494 0.950 . S
H1485 C1496 0.950 . S
H1486 C1498 0.950 . S
H1487 C1499 0.950 . S
C1488 H1480 0.950 . S
C1488 C1489 1.386 . S
C1488 C1490 1.391 . S
C1489 C1488 1.386 . S
C1489 C1493 1.393 . S
C1490 H1482 0.950 . S
C1490 C1488 1.391 . S
C1490 C1491 1.400 . S
C1491 C1490 1.400 . S
C1491 C1492 1.398 . S
C1491 C1497 1.491 . S
C1492 H1483 0.950 . S
C1492 C1491 1.398 . S
C1492 C1493 1.391 . S
C1493 H1481 0.950 1_655 S
C1493 C1489 1.393 . S
C1493 C1492 1.391 . S
C1494 H1484 0.950 . S
C1494 C1495 1.386 . S
C1494 C1496 1.391 . S
C1495 C1494 1.386 . S
C1495 C1499 1.393 . S
C1496 H1485 0.950 . S
C1496 C1494 1.391 . S
C1496 C1497 1.400 . S
C1497 C1491 1.491 . S
C1497 C1496 1.400 . S
C1497 C1498 1.398 . S
C1498 H1486 0.950 . S
C1498 C1497 1.398 . S
C1498 C1499 1.391 . S
C1499 H1487 0.950 . S
C1499 C1495 1.393 . S
C1499 C1498 1.391 . S
H1500 C1508 0.950 . S
H1501 C1513 0.950 . S
H1502 C1510 0.950 . S
H1503 C1512 0.950 . S
H1504 C1514 0.950 . S
H1505 C1516 0.950 . S
H1506 C1518 0.950 . S
H1507 C1519 0.950 1_655 S
C1508 H1500 0.950 . S
C1508 C1509 1.386 . S
C1508 C1510 1.391 . S
C1509 C1508 1.386 . S
C1509 C1513 1.393 . S
C1510 H1502 0.950 . S
C1510 C1508 1.391 . S
C1510 C1511 1.400 . S
C1511 C1510 1.400 . S
C1511 C1512 1.398 . S
C1511 C1517 1.491 . S
C1512 H1503 0.950 . S
C1512 C1511 1.398 . S
C1512 C1513 1.391 . S
C1513 H1501 0.950 . S
C1513 C1509 1.393 . S
C1513 C1512 1.391 . S
C1514 H1504 0.950 . S
C1514 C1515 1.386 . S
C1514 C1516 1.391 1_655 S
C1515 C1514 1.386 . S
C1515 C1519 1.393 1_655 S
C1516 H1505 0.950 . S
C1516 C1514 1.391 1_455 S
C1516 C1517 1.400 . S
C1517 C1511 1.491 . S
C1517 C1516 1.400 . S
C1517 C1518 1.398 . S
C1518 H1506 0.950 . S
C1518 C1517 1.398 . S
C1518 C1519 1.391 . S
C1519 H1507 0.950 1_455 S
C1519 C1515 1.393 1_455 S
C1519 C1518 1.391 . S
H1520 C1528 0.950 . S
H1521 C1533 0.950 . S
H1522 C1530 0.950 . S
H1523 C1532 0.950 . S
H1524 C1534 0.950 . S
H1525 C1536 0.950 . S
H1526 C1538 0.950 . S
H1527 C1539 0.953 . S
C1528 H1520 0.950 . S
C1528 C1529 1.386 . S
C1528 C1530 1.391 . S
C1529 C1528 1.386 . S
C1529 C1533 1.393 . S
C1530 H1522 0.950 . S
C1530 C1528 1.391 . S
C1530 C1531 1.400 . S
C1531 C1530 1.400 . S
C1531 C1532 1.398 . S
C1531 C1537 1.491 . S
C1532 H1523 0.950 . S
C1532 C1531 1.398 . S
C1532 C1533 1.391 . S
C1533 H1521 0.950 . S
C1533 C1529 1.393 . S
C1533 C1532 1.391 . S
C1534 H1524 0.950 . S
C1534 C1535 1.386 . S
C1534 C1536 1.391 . S
C1535 C1534 1.386 . S
C1535 C1539 1.393 . S
C1536 H1525 0.950 . S
C1536 C1534 1.391 . S
C1536 C1537 1.400 . S
C1537 C1531 1.491 . S
C1537 C1536 1.400 . S
C1537 C1538 1.398 . S
C1538 H1526 0.950 . S
C1538 C1537 1.398 . S
C1538 C1539 1.391 . S
C1539 H1527 0.953 . S
C1539 C1535 1.393 . S
C1539 C1538 1.391 . S
H1540 C1548 0.950 . S
H1541 C1553 0.950 . S
H1542 C1550 0.950 . S
H1543 C1552 0.950 . S
H1544 C1554 0.950 . S
H1545 C1556 0.950 . S
H1546 C1558 0.950 . S
H1547 C1559 0.950 . S
C1548 H1540 0.950 . S
C1548 C1549 1.386 . S
C1548 C1550 1.391 . S
C1549 C1548 1.386 . S
C1549 C1553 1.393 . S
C1550 H1542 0.950 . S
C1550 C1548 1.391 . S
C1550 C1551 1.400 . S
C1551 C1550 1.400 . S
C1551 C1552 1.398 . S
C1551 C1557 1.491 . S
C1552 H1543 0.950 . S
C1552 C1551 1.398 . S
C1552 C1553 1.391 . S
C1553 H1541 0.950 . S
C1553 C1549 1.393 . S
C1553 C1552 1.391 . S
C1554 H1544 0.950 . S
C1554 C1555 1.386 . S
C1554 C1556 1.391 1_545 S
C1555 C1554 1.386 . S
C1555 C1559 1.393 . S
C1556 H1545 0.950 . S
C1556 C1554 1.391 1_565 S
C1556 C1557 1.400 . S
C1557 C1551 1.491 . S
C1557 C1556 1.400 . S
C1557 C1558 1.398 . S
C1558 H1546 0.950 . S
C1558 C1557 1.398 . S
C1558 C1559 1.391 1_565 S
C1559 H1547 0.950 . S
C1559 C1555 1.393 . S
C1559 C1558 1.391 1_545 S
H1560 C1568 0.950 . S
H1561 C1573 0.950 . S
H1562 C1570 0.950 . S
H1563 C1572 0.950 . S
H1564 C1574 0.950 1_545 S
H1565 C1576 0.950 . S
H1566 C1578 0.950 . S
H1567 C1579 0.950 . S
C1568 H1560 0.950 . S
C1568 C1569 1.386 . S
C1568 C1570 1.391 . S
C1569 C1568 1.386 . S
C1569 C1573 1.393 . S
C1570 H1562 0.950 . S
C1570 C1568 1.391 . S
C1570 C1571 1.400 . S
C1571 C1570 1.400 . S
C1571 C1572 1.398 . S
C1571 C1577 1.491 . S
C1572 H1563 0.950 . S
C1572 C1571 1.398 . S
C1572 C1573 1.391 . S
C1573 H1561 0.950 . S
C1573 C1569 1.393 . S
C1573 C1572 1.391 . S
C1574 H1564 0.950 1_565 S
C1574 C1575 1.386 1_565 S
C1574 C1576 1.391 . S
C1575 C1574 1.386 1_545 S
C1575 C1579 1.393 . S
C1576 H1565 0.950 . S
C1576 C1574 1.391 . S
C1576 C1577 1.400 . S
C1577 C1571 1.491 . S
C1577 C1576 1.400 . S
C1577 C1578 1.398 . S
C1578 H1566 0.950 . S
C1578 C1577 1.398 . S
C1578 C1579 1.391 1_565 S
C1579 H1567 0.950 . S
C1579 C1575 1.393 . S
C1579 C1578 1.391 1_545 S
H1580 C1588 0.950 . S
H1581 C1593 0.950 1_545 S
H1582 C1590 0.950 . S
H1583 C1592 0.950 . S
H1584 C1594 0.950 . S
H1585 C1596 0.950 . S
H1586 C1598 0.950 . S
H1587 C1599 0.950 1_655 S
C1588 H1580 0.950 . S
C1588 C1589 1.386 . S
C1588 C1590 1.391 . S
C1589 C1588 1.386 . S
C1589 C1593 1.393 . S
C1590 H1582 0.950 . S
C1590 C1588 1.391 . S
C1590 C1591 1.400 . S
C1591 C1590 1.400 . S
C1591 C1592 1.398 . S
C1591 C1597 1.491 . S
C1592 H1583 0.950 . S
C1592 C1591 1.398 . S
C1592 C1593 1.391 . S
C1593 H1581 0.950 1_565 S
C1593 C1589 1.393 . S
C1593 C1592 1.391 . S
C1594 H1584 0.950 . S
C1594 C1595 1.386 . S
C1594 C1596 1.391 1_655 S
C1595 C1594 1.386 . S
C1595 C1599 1.393 1_655 S
C1596 H1585 0.950 . S
C1596 C1594 1.391 1_455 S
C1596 C1597 1.400 . S
C1597 C1591 1.491 . S
C1597 C1596 1.400 . S
C1597 C1598 1.398 . S
C1598 H1586 0.950 . S
C1598 C1597 1.398 . S
C1598 C1599 1.391 . S
C1599 H1587 0.950 1_455 S
C1599 C1595 1.393 1_455 S
C1599 C1598 1.391 . S
H1600 C1608 0.950 . S
H1601 C1613 0.962 . S
H1602 C1610 0.950 . S
H1603 C1612 0.950 . S
H1604 C1614 0.950 . S
H1605 C1616 0.950 . S
H1606 C1618 0.950 . S
H1607 C1619 0.950 . S
C1608 H1600 0.950 . S
C1608 C1609 1.386 . S
C1608 C1610 1.391 . S
C1609 C1608 1.386 . S
C1609 C1613 1.400 1_455 S
C1610 H1602 0.950 . S
C1610 C1608 1.391 . S
C1610 C1611 1.400 . S
C1611 C1610 1.400 . S
C1611 C1612 1.398 . S
C1611 C1617 1.491 . S
C1612 H1603 0.950 . S
C1612 C1611 1.398 . S
C1612 C1613 1.372 1_455 S
C1613 H1601 0.962 . S
C1613 C1609 1.400 1_655 S
C1613 C1612 1.372 1_655 S
C1614 H1604 0.950 . S
C1614 C1615 1.386 . S
C1614 C1616 1.391 . S
C1615 C1614 1.386 . S
C1615 C1619 1.393 . S
C1616 H1605 0.950 . S
C1616 C1614 1.391 . S
C1616 C1617 1.400 . S
C1617 C1611 1.491 . S
C1617 C1616 1.400 . S
C1617 C1618 1.398 . S
C1618 H1606 0.950 . S
C1618 C1617 1.398 . S
C1618 C1619 1.391 . S
C1619 H1607 0.950 . S
C1619 C1615 1.393 . S
C1619 C1618 1.391 . S
H1620 C1628 0.950 . S
H1621 C1633 0.950 . S
H1622 C1630 0.950 . S
H1623 C1632 0.950 . S
H1624 C1634 0.950 . S
H1625 C1636 0.950 . S
H1626 C1638 0.950 . S
H1627 C1639 0.950 . S
C1628 H1620 0.950 . S
C1628 C1629 1.386 . S
C1628 C1630 1.391 . S
C1629 C1628 1.386 . S
C1629 C1633 1.393 . S
C1630 H1622 0.950 . S
C1630 C1628 1.391 . S
C1630 C1631 1.400 . S
C1631 C1630 1.400 . S
C1631 C1632 1.398 . S
C1631 C1637 1.491 . S
C1632 H1623 0.950 . S
C1632 C1631 1.398 . S
C1632 C1633 1.391 . S
C1633 H1621 0.950 . S
C1633 C1629 1.393 . S
C1633 C1632 1.391 . S
C1634 H1624 0.950 . S
C1634 C1635 1.386 . S
C1634 C1636 1.391 1_455 S
C1635 C1634 1.386 . S
C1635 C1639 1.393 . S
C1636 H1625 0.950 . S
C1636 C1634 1.391 1_655 S
C1636 C1637 1.400 . S
C1637 C1631 1.491 . S
C1637 C1636 1.400 . S
C1637 C1638 1.398 . S
C1638 H1626 0.950 . S
C1638 C1637 1.398 . S
C1638 C1639 1.391 1_655 S
C1639 H1627 0.950 . S
C1639 C1635 1.393 . S
C1639 C1638 1.391 1_455 S
H1640 C1648 0.950 . S
H1641 C1653 0.950 . S
H1642 C1650 0.950 . S
H1643 C1652 0.950 . S
H1644 C1654 0.950 . S
H1645 C1656 0.950 . S
H1646 C1658 0.950 . S
H1647 C1659 0.960 . S
C1648 H1640 0.950 . S
C1648 C1649 1.386 . S
C1648 C1650 1.391 . S
C1649 C1648 1.386 . S
C1649 C1653 1.393 . S
C1650 H1642 0.950 . S
C1650 C1648 1.391 . S
C1650 C1651 1.400 . S
C1651 C1650 1.400 . S
C1651 C1652 1.398 . S
C1651 C1657 1.491 . S
C1652 H1643 0.950 . S
C1652 C1651 1.398 . S
C1652 C1653 1.391 . S
C1653 H1641 0.950 . S
C1653 C1649 1.393 . S
C1653 C1652 1.391 . S
C1654 H1644 0.950 . S
C1654 C1655 1.386 . S
C1654 C1656 1.391 . S
C1655 C1654 1.386 . S
C1655 C1659 1.399 1_545 S
C1656 H1645 0.950 . S
C1656 C1654 1.391 . S
C1656 C1657 1.400 . S
C1657 C1651 1.491 . S
C1657 C1656 1.400 . S
C1657 C1658 1.398 . S
C1658 H1646 0.950 . S
C1658 C1657 1.398 . S
C1658 C1659 1.375 1_545 S
C1659 H1647 0.960 . S
C1659 C1655 1.399 1_565 S
C1659 C1658 1.375 1_565 S
H1660 C1668 0.950 . S
H1661 C1673 0.950 . S
H1662 C1670 0.950 . S
H1663 C1672 0.950 . S
H1664 C1674 0.950 . S
H1665 C1676 0.950 . S
H1666 C1678 0.950 . S
H1667 C1679 0.950 1_455 S
C1668 H1660 0.950 . S
C1668 C1669 1.386 . S
C1668 C1670 1.391 1_565 S
C1669 C1668 1.386 . S
C1669 C1673 1.393 . S
C1670 H1662 0.950 . S
C1670 C1668 1.391 1_545 S
C1670 C1671 1.400 . S
C1671 C1670 1.400 . S
C1671 C1672 1.398 . S
C1671 C1677 1.491 . S
C1672 H1663 0.950 . S
C1672 C1671 1.398 . S
C1672 C1673 1.391 1_545 S
C1673 H1661 0.950 . S
C1673 C1669 1.393 . S
C1673 C1672 1.391 1_565 S
C1674 H1664 0.950 . S
C1674 C1675 1.386 . S
C1674 C1676 1.391 . S
C1675 C1674 1.386 . S
C1675 C1679 1.393 . S
C1676 H1665 0.950 . S
C1676 C1674 1.391 . S
C1676 C1677 1.400 . S
C1677 C1671 1.491 . S
C1677 C1676 1.400 . S
C1677 C1678 1.398 . S
C1678 H1666 0.950 . S
C1678 C1677 1.398 . S
C1678 C1679 1.391 . S
C1679 H1667 0.950 1_655 S
C1679 C1675 1.393 . S
C1679 C1678 1.391 . S
H1680 C1688 0.950 . S
H1681 C1693 0.950 . S
H1682 C1690 0.950 . S
H1683 C1692 0.950 . S
H1684 C1694 0.950 . S
H1685 C1696 0.950 . S
H1686 C1698 0.950 . S
H1687 C1699 0.950 . S
C1688 H1680 0.950 . S
C1688 C1689 1.386 . S
C1688 C1690 1.391 . S
C1689 C1688 1.386 . S
C1689 C1693 1.393 . S
C1690 H1682 0.950 . S
C1690 C1688 1.391 . S
C1690 C1691 1.400 . S
C1691 C1690 1.400 . S
C1691 C1692 1.398 . S
C1691 C1697 1.491 . S
C1692 H1683 0.950 . S
C1692 C1691 1.398 . S
C1692 C1693 1.391 . S
C1693 H1681 0.950 . S
C1693 C1689 1.393 . S
C1693 C1692 1.391 . S
C1694 H1684 0.950 . S
C1694 C1695 1.386 . S
C1694 C1696 1.391 . S
C1695 C1694 1.386 . S
C1695 C1699 1.393 . S
C1696 H1685 0.950 . S
C1696 C1694 1.391 . S
C1696 C1697 1.400 . S
C1697 C1691 1.491 . S
C1697 C1696 1.400 . S
C1697 C1698 1.398 . S
C1698 H1686 0.950 . S
C1698 C1697 1.398 . S
C1698 C1699 1.391 . S
C1699 H1687 0.950 . S
C1699 C1695 1.393 . S
C1699 C1698 1.391 . S
H1700 C1708 0.950 . S
H1701 C1713 0.950 . S
H1702 C1710 0.950 . S
H1703 C1712 0.950 . S
H1704 C1714 0.950 . S
H1705 C1716 0.950 . S
H1706 C1718 0.950 . S
H1707 C1719 0.950 . S
C1708 H1700 0.950 . S
C1708 C1709 1.386 . S
C1708 C1710 1.391 . S
C1709 C1708 1.386 . S
C1709 C1713 1.393 . S
C1710 H1702 0.950 . S
C1710 C1708 1.391 . S
C1710 C1711 1.400 . S
C1711 C1710 1.400 . S
C1711 C1712 1.398 . S
C1711 C1717 1.491 . S
C1712 H1703 0.950 . S
C1712 C1711 1.398 . S
C1712 C1713 1.391 . S
C1713 H1701 0.950 . S
C1713 C1709 1.393 . S
C1713 C1712 1.391 . S
C1714 H1704 0.950 . S
C1714 C1715 1.386 . S
C1714 C1716 1.391 . S
C1715 C1714 1.386 . S
C1715 C1719 1.393 . S
C1716 H1705 0.950 . S
C1716 C1714 1.391 . S
C1716 C1717 1.400 . S
C1717 C1711 1.491 . S
C1717 C1716 1.400 . S
C1717 C1718 1.398 . S
C1718 H1706 0.950 . S
C1718 C1717 1.398 . S
C1718 C1719 1.391 . S
C1719 H1707 0.950 . S
C1719 C1715 1.393 . S
C1719 C1718 1.391 . S
H1720 C1728 0.950 . S
H1721 C1733 0.950 . S
H1722 C1730 0.950 . S
H1723 C1732 0.950 . S
H1724 C1734 0.950 . S
H1725 C1736 0.950 . S
H1726 C1738 0.950 . S
H1727 C1739 0.950 . S
C1728 H1720 0.950 . S
C1728 C1729 1.386 . S
C1728 C1730 1.391 . S
C1729 C1728 1.386 . S
C1729 C1733 1.393 . S
C1730 H1722 0.950 . S
C1730 C1728 1.391 . S
C1730 C1731 1.400 . S
C1731 C1730 1.400 . S
C1731 C1732 1.398 . S
C1731 C1737 1.491 . S
C1732 H1723 0.950 . S
C1732 C1731 1.398 . S
C1732 C1733 1.391 . S
C1733 H1721 0.950 . S
C1733 C1729 1.393 . S
C1733 C1732 1.391 . S
C1734 H1724 0.950 . S
C1734 C1735 1.386 . S
C1734 C1736 1.391 . S
C1735 C1734 1.386 . S
C1735 C1739 1.393 . S
C1736 H1725 0.950 . S
C1736 C1734 1.391 . S
C1736 C1737 1.400 . S
C1737 C1731 1.491 . S
C1737 C1736 1.400 . S
C1737 C1738 1.398 . S
C1738 H1726 0.950 . S
C1738 C1737 1.398 . S
C1738 C1739 1.391 . S
C1739 H1727 0.950 . S
C1739 C1735 1.393 . S
C1739 C1738 1.391 . S
H1740 C1748 0.950 . S
H1741 C1753 0.950 . S
H1742 C1750 0.950 . S
H1743 C1752 0.950 . S
H1744 C1754 0.950 . S
H1745 C1756 0.950 . S
H1746 C1758 0.950 . S
H1747 C1759 0.950 . S
C1748 H1740 0.950 . S
C1748 C1749 1.386 . S
C1748 C1750 1.391 . S
C1749 C1748 1.386 . S
C1749 C1753 1.393 . S
C1750 H1742 0.950 . S
C1750 C1748 1.391 . S
C1750 C1751 1.400 . S
C1751 C1750 1.400 . S
C1751 C1752 1.398 . S
C1751 C1757 1.491 . S
C1752 H1743 0.950 . S
C1752 C1751 1.398 . S
C1752 C1753 1.391 . S
C1753 H1741 0.950 . S
C1753 C1749 1.393 . S
C1753 C1752 1.391 . S
C1754 H1744 0.950 . S
C1754 C1755 1.386 . S
C1754 C1756 1.391 . S
C1755 C1754 1.386 . S
C1755 C1759 1.393 . S
C1756 H1745 0.950 . S
C1756 C1754 1.391 . S
C1756 C1757 1.400 . S
C1757 C1751 1.491 . S
C1757 C1756 1.400 . S
C1757 C1758 1.398 . S
C1758 H1746 0.950 . S
C1758 C1757 1.398 . S
C1758 C1759 1.391 . S
C1759 H1747 0.950 . S
C1759 C1755 1.393 . S
C1759 C1758 1.391 . S
H1760 C1768 0.950 . S
H1761 C1773 0.950 . S
H1762 C1770 0.950 . S
H1763 C1772 0.950 . S
H1764 C1774 0.950 . S
H1765 C1776 0.950 . S
H1766 C1778 0.950 . S
H1767 C1779 0.950 . S
C1768 H1760 0.950 . S
C1768 C1769 1.386 . S
C1768 C1770 1.391 . S
C1769 C1768 1.386 . S
C1769 C1773 1.393 . S
C1770 H1762 0.950 . S
C1770 C1768 1.391 . S
C1770 C1771 1.400 . S
C1771 C1770 1.400 . S
C1771 C1772 1.398 . S
C1771 C1777 1.491 . S
C1772 H1763 0.950 . S
C1772 C1771 1.398 . S
C1772 C1773 1.391 . S
C1773 H1761 0.950 . S
C1773 C1769 1.393 . S
C1773 C1772 1.391 . S
C1774 H1764 0.950 . S
C1774 C1775 1.386 . S
C1774 C1776 1.391 . S
C1775 C1774 1.386 . S
C1775 C1779 1.393 . S
C1776 H1765 0.950 . S
C1776 C1774 1.391 . S
C1776 C1777 1.400 . S
C1777 C1771 1.491 . S
C1777 C1776 1.400 . S
C1777 C1778 1.398 . S
C1778 H1766 0.950 . S
C1778 C1777 1.398 . S
C1778 C1779 1.391 . S
C1779 H1767 0.950 . S
C1779 C1775 1.393 . S
C1779 C1778 1.391 . S
H1780 C1788 0.950 . S
H1781 C1793 0.950 . S
H1782 C1790 0.950 . S
H1783 C1792 0.950 . S
H1784 C1794 0.950 . S
H1785 C1796 0.950 . S
H1786 C1798 0.950 . S
H1787 C1799 0.950 . S
C1788 H1780 0.950 . S
C1788 C1789 1.386 . S
C1788 C1790 1.391 . S
C1789 C1788 1.386 . S
C1789 C1793 1.393 . S
C1790 H1782 0.950 . S
C1790 C1788 1.391 . S
C1790 C1791 1.400 . S
C1791 C1790 1.400 . S
C1791 C1792 1.398 . S
C1791 C1797 1.491 . S
C1792 H1783 0.950 . S
C1792 C1791 1.398 . S
C1792 C1793 1.391 . S
C1793 H1781 0.950 . S
C1793 C1789 1.393 . S
C1793 C1792 1.391 . S
C1794 H1784 0.950 . S
C1794 C1795 1.386 . S
C1794 C1796 1.391 . S
C1795 C1794 1.386 . S
C1795 C1799 1.393 . S
C1796 H1785 0.950 . S
C1796 C1794 1.391 . S
C1796 C1797 1.400 . S
C1797 C1791 1.491 . S
C1797 C1796 1.400 . S
C1797 C1798 1.398 . S
C1798 H1786 0.950 . S
C1798 C1797 1.398 . S
C1798 C1799 1.391 . S
C1799 H1787 0.950 . S
C1799 C1795 1.393 . S
C1799 C1798 1.391 . S
H1800 C1808 0.950 . S
H1801 C1813 0.950 . S
H1802 C1810 0.950 . S
H1803 C1812 0.950 . S
H1804 C1814 0.950 . S
H1805 C1816 0.950 . S
H1806 C1818 0.950 . S
H1807 C1819 0.950 . S
C1808 H1800 0.950 . S
C1808 C1809 1.386 . S
C1808 C1810 1.391 . S
C1809 C1808 1.386 . S
C1809 C1813 1.393 . S
C1810 H1802 0.950 . S
C1810 C1808 1.391 . S
C1810 C1811 1.400 . S
C1811 C1810 1.400 . S
C1811 C1812 1.398 . S
C1811 C1817 1.491 . S
C1812 H1803 0.950 . S
C1812 C1811 1.398 . S
C1812 C1813 1.391 . S
C1813 H1801 0.950 . S
C1813 C1809 1.393 . S
C1813 C1812 1.391 . S
C1814 H1804 0.950 . S
C1814 C1815 1.386 . S
C1814 C1816 1.391 . S
C1815 C1814 1.386 . S
C1815 C1819 1.393 . S
C1816 H1805 0.950 . S
C1816 C1814 1.391 . S
C1816 C1817 1.400 . S
C1817 C1811 1.491 . S
C1817 C1816 1.400 . S
C1817 C1818 1.398 . S
C1818 H1806 0.950 . S
C1818 C1817 1.398 . S
C1818 C1819 1.391 . S
C1819 H1807 0.950 . S
C1819 C1815 1.393 . S
C1819 C1818 1.391 . S
H1820 C1828 0.950 . S
H1821 C1833 0.950 . S
H1822 C1830 0.950 . S
H1823 C1832 0.950 . S
H1824 C1834 0.950 . S
H1825 C1836 0.950 . S
H1826 C1838 0.950 . S
H1827 C1839 0.950 . S
C1828 H1820 0.950 . S
C1828 C1829 1.386 . S
C1828 C1830 1.391 . S
C1829 C1828 1.386 . S
C1829 C1833 1.393 . S
C1830 H1822 0.950 . S
C1830 C1828 1.391 . S
C1830 C1831 1.400 . S
C1831 C1830 1.400 . S
C1831 C1832 1.398 . S
C1831 C1837 1.491 . S
C1832 H1823 0.950 . S
C1832 C1831 1.398 . S
C1832 C1833 1.391 . S
C1833 H1821 0.950 . S
C1833 C1829 1.393 . S
C1833 C1832 1.391 . S
C1834 H1824 0.950 . S
C1834 C1835 1.386 . S
C1834 C1836 1.391 . S
C1835 C1834 1.386 . S
C1835 C1839 1.393 . S
C1836 H1825 0.950 . S
C1836 C1834 1.391 . S
C1836 C1837 1.400 . S
C1837 C1831 1.491 . S
C1837 C1836 1.400 . S
C1837 C1838 1.398 . S
C1838 H1826 0.950 . S
C1838 C1837 1.398 . S
C1838 C1839 1.391 . S
C1839 H1827 0.950 . S
C1839 C1835 1.393 . S
C1839 C1838 1.391 . S
H1840 C1848 0.950 . S
H1841 C1853 0.950 . S
H1842 C1850 0.950 . S
H1843 C1852 0.950 . S
H1844 C1854 0.950 . S
H1845 C1856 0.950 . S
H1846 C1858 0.950 . S
H1847 C1859 0.950 . S
C1848 H1840 0.950 . S
C1848 C1849 1.386 . S
C1848 C1850 1.391 . S
C1849 C1848 1.386 . S
C1849 C1853 1.393 . S
C1850 H1842 0.950 . S
C1850 C1848 1.391 . S
C1850 C1851 1.400 . S
C1851 C1850 1.400 . S
C1851 C1852 1.398 . S
C1851 C1857 1.491 . S
C1852 H1843 0.950 . S
C1852 C1851 1.398 . S
C1852 C1853 1.391 . S
C1853 H1841 0.950 . S
C1853 C1849 1.393 . S
C1853 C1852 1.391 . S
C1854 H1844 0.950 . S
C1854 C1855 1.386 . S
C1854 C1856 1.391 . S
C1855 C1854 1.386 . S
C1855 C1859 1.393 . S
C1856 H1845 0.950 . S
C1856 C1854 1.391 . S
C1856 C1857 1.400 . S
C1857 C1851 1.491 . S
C1857 C1856 1.400 . S
C1857 C1858 1.398 . S
C1858 H1846 0.950 . S
C1858 C1857 1.398 . S
C1858 C1859 1.391 . S
C1859 H1847 0.950 . S
C1859 C1855 1.393 . S
C1859 C1858 1.391 . S
H1860 C1868 0.950 . S
H1861 C1873 0.950 . S
H1862 C1870 0.950 . S
H1863 C1872 0.950 . S
H1864 C1874 0.943 1_556 S
H1865 C1876 0.949 . S
H1866 C1878 0.950 . S
H1867 C1879 0.950 . S
C1868 H1860 0.950 . S
C1868 C1869 1.386 . S
C1868 C1870 1.391 . S
C1869 C1868 1.386 . S
C1869 C1873 1.393 . S
C1870 H1862 0.950 . S
C1870 C1868 1.391 . S
C1870 C1871 1.400 . S
C1871 C1870 1.400 . S
C1871 C1872 1.398 . S
C1871 C1877 1.491 . S
C1872 H1863 0.950 . S
C1872 C1871 1.398 . S
C1872 C1873 1.391 . S
C1873 H1861 0.950 . S
C1873 C1869 1.393 . S
C1873 C1872 1.391 . S
C1874 H1864 0.943 1_554 S
C1874 C1875 1.384 . S
C1874 C1876 1.388 . S
C1875 C1874 1.384 . S
C1875 C1879 1.400 . S
C1876 H1865 0.949 . S
C1876 C1874 1.388 . S
C1876 C1877 1.413 . S
C1877 C1871 1.491 . S
C1877 C1876 1.413 . S
C1877 C1878 1.398 . S
C1878 H1866 0.950 . S
C1878 C1877 1.398 . S
C1878 C1879 1.391 . S
C1879 H1867 0.950 . S
C1879 C1875 1.400 . S
C1879 C1878 1.391 . S
H1880 C1888 0.950 . S
H1881 C1893 0.959 . S
H1882 C1890 0.950 . S
H1883 C1892 0.941 1_556 S
H1884 C1894 0.950 . S
H1885 C1896 0.978 . S
H1886 C1898 0.950 . S
H1887 C1899 0.950 . S
C1888 H1880 0.950 . S
C1888 C1889 1.396 . S
C1888 C1890 1.391 . S
C1889 C1888 1.396 . S
C1889 C1893 1.386 1_554 S
C1890 H1882 0.950 . S
C1890 C1888 1.391 . S
C1890 C1891 1.400 . S
C1891 C1890 1.400 . S
C1891 C1892 1.397 . S
C1891 C1897 1.491 . S
C1892 H1883 0.941 1_554 S
C1892 C1891 1.397 . S
C1892 C1893 1.389 1_554 S
C1893 H1881 0.959 . S
C1893 C1889 1.386 1_556 S
C1893 C1892 1.389 1_556 S
C1894 H1884 0.950 . S
C1894 C1895 1.386 . S
C1894 C1896 1.391 . S
C1895 C1894 1.386 . S
C1895 C1899 1.393 . S
C1896 H1885 0.978 . S
C1896 C1894 1.391 . S
C1896 C1897 1.400 . S
C1897 C1891 1.491 . S
C1897 C1896 1.400 . S
C1897 C1898 1.398 . S
C1898 H1886 0.950 . S
C1898 C1897 1.398 . S
C1898 C1899 1.391 . S
C1899 H1887 0.950 . S
C1899 C1895 1.393 . S
C1899 C1898 1.391 . S
H1900 C1908 0.950 . S
H1901 C1913 0.950 . S
H1902 C1910 0.952 1_556 S
H1903 C1912 0.950 . S
H1904 C1914 0.950 . S
H1905 C1916 0.950 . S
H1906 C1918 0.965 . S
H1907 C1919 0.990 . S
C1908 H1900 0.950 . S
C1908 C1909 1.386 . S
C1908 C1910 1.391 . S
C1909 C1908 1.386 . S
C1909 C1913 1.393 . S
C1910 H1902 0.952 1_554 S
C1910 C1908 1.391 . S
C1910 C1911 1.400 . S
C1911 C1910 1.400 . S
C1911 C1912 1.398 . S
C1911 C1917 1.491 . S
C1912 H1903 0.950 . S
C1912 C1911 1.398 . S
C1912 C1913 1.391 . S
C1913 H1901 0.950 . S
C1913 C1909 1.393 . S
C1913 C1912 1.391 . S
C1914 H1904 0.950 . S
C1914 C1915 1.400 . S
C1914 C1916 1.391 . S
C1915 C1914 1.400 . S
C1915 C1919 1.374 1_554 S
C1916 H1905 0.950 . S
C1916 C1914 1.391 . S
C1916 C1917 1.400 . S
C1917 C1911 1.491 . S
C1917 C1916 1.400 . S
C1917 C1918 1.384 1_554 S
C1918 H1906 0.965 . S
C1918 C1917 1.384 1_556 S
C1918 C1919 1.389 . S
C1919 H1907 0.990 . S
C1919 C1915 1.374 1_556 S
C1919 C1918 1.389 . S
H1920 C1928 0.950 . S
H1921 C1933 0.950 . S
H1922 C1930 0.950 . S
H1923 C1932 0.950 . S
H1924 C1934 0.950 . S
H1925 C1936 0.950 . S
H1926 C1938 0.950 . S
H1927 C1939 0.950 . S
C1928 H1920 0.950 . S
C1928 C1929 1.386 . S
C1928 C1930 1.391 . S
C1929 C1928 1.386 . S
C1929 C1933 1.393 . S
C1930 H1922 0.950 . S
C1930 C1928 1.391 . S
C1930 C1931 1.400 . S
C1931 C1930 1.400 . S
C1931 C1932 1.398 . S
C1931 C1937 1.491 . S
C1932 H1923 0.950 . S
C1932 C1931 1.398 . S
C1932 C1933 1.391 . S
C1933 H1921 0.950 . S
C1933 C1929 1.393 . S
C1933 C1932 1.391 . S
C1934 H1924 0.950 . S
C1934 C1935 1.386 . S
C1934 C1936 1.391 . S
C1935 C1934 1.386 . S
C1935 C1939 1.393 . S
C1936 H1925 0.950 . S
C1936 C1934 1.391 . S
C1936 C1937 1.400 . S
C1937 C1931 1.491 . S
C1937 C1936 1.400 . S
C1937 C1938 1.398 . S
C1938 H1926 0.950 . S
C1938 C1937 1.398 . S
C1938 C1939 1.391 . S
C1939 H1927 0.950 . S
C1939 C1935 1.393 . S
C1939 C1938 1.391 . S
H1940 C1948 0.950 . S
H1941 C1953 0.950 . S
H1942 C1950 0.950 . S
H1943 C1952 0.950 . S
H1944 C1954 0.950 . S
H1945 C1956 0.950 . S
H1946 C1958 0.950 . S
H1947 C1959 0.950 . S
C1948 H1940 0.950 . S
C1948 C1949 1.386 . S
C1948 C1950 1.391 . S
C1949 C1948 1.386 . S
C1949 C1953 1.393 . S
C1950 H1942 0.950 . S
C1950 C1948 1.391 . S
C1950 C1951 1.400 . S
C1951 C1950 1.400 . S
C1951 C1952 1.398 . S
C1951 C1957 1.491 . S
C1952 H1943 0.950 . S
C1952 C1951 1.398 . S
C1952 C1953 1.391 . S
C1953 H1941 0.950 . S
C1953 C1949 1.393 . S
C1953 C1952 1.391 . S
C1954 H1944 0.950 . S
C1954 C1955 1.386 . S
C1954 C1956 1.391 . S
C1955 C1954 1.386 . S
C1955 C1959 1.393 . S
C1956 H1945 0.950 . S
C1956 C1954 1.391 . S
C1956 C1957 1.400 . S
C1957 C1951 1.491 . S
C1957 C1956 1.400 . S
C1957 C1958 1.398 . S
C1958 H1946 0.950 . S
C1958 C1957 1.398 . S
C1958 C1959 1.391 . S
C1959 H1947 0.950 . S
C1959 C1955 1.393 . S
C1959 C1958 1.391 . S
H1960 C1968 0.950 . S
H1961 C1973 0.950 . S
H1962 C1970 0.950 . S
H1963 C1972 0.950 . S
H1964 C1974 0.950 . S
H1965 C1976 0.950 . S
H1966 C1978 0.950 . S
H1967 C1979 0.950 . S
C1968 H1960 0.950 . S
C1968 C1969 1.386 . S
C1968 C1970 1.391 . S
C1969 C1968 1.386 . S
C1969 C1973 1.393 . S
C1970 H1962 0.950 . S
C1970 C1968 1.391 . S
C1970 C1971 1.400 . S
C1971 C1970 1.400 . S
C1971 C1972 1.398 . S
C1971 C1977 1.491 . S
C1972 H1963 0.950 . S
C1972 C1971 1.398 . S
C1972 C1973 1.391 . S
C1973 H1961 0.950 . S
C1973 C1969 1.393 . S
C1973 C1972 1.391 . S
C1974 H1964 0.950 . S
C1974 C1975 1.386 . S
C1974 C1976 1.391 . S
C1975 C1974 1.386 . S
C1975 C1979 1.393 . S
C1976 H1965 0.950 . S
C1976 C1974 1.391 . S
C1976 C1977 1.400 . S
C1977 C1971 1.491 . S
C1977 C1976 1.400 . S
C1977 C1978 1.398 . S
C1978 H1966 0.950 . S
C1978 C1977 1.398 . S
C1978 C1979 1.391 . S
C1979 H1967 0.950 . S
C1979 C1975 1.393 . S
C1979 C1978 1.391 . S
H1980 C1988 0.950 . S
H1981 C1993 0.950 . S
H1982 C1990 0.950 . S
H1983 C1992 0.950 . S
H1984 C1994 0.950 . S
H1985 C1996 0.950 . S
H1986 C1998 0.950 . S
H1987 C1999 0.950 . S
C1988 H1980 0.950 . S
C1988 C1989 1.386 . S
C1988 C1990 1.391 . S
C1989 C1988 1.386 . S
C1989 C1993 1.393 1_556 S
C1990 H1982 0.950 . S
C1990 C1988 1.391 . S
C1990 C1991 1.400 . S
C1991 C1990 1.400 . S
C1991 C1992 1.398 1_556 S
C1991 C1997 1.491 . S
C1992 H1983 0.950 . S
C1992 C1991 1.398 1_554 S
C1992 C1993 1.391 . S
C1993 H1981 0.950 . S
C1993 C1989 1.393 1_554 S
C1993 C1992 1.391 . S
C1994 H1984 0.950 . S
C1994 C1995 1.386 1_554 S
C1994 C1996 1.391 . S
C1995 C1994 1.386 1_556 S
C1995 C1999 1.393 . S
C1996 H1985 0.950 . S
C1996 C1994 1.391 . S
C1996 C1997 1.400 1_554 S
C1997 C1991 1.491 . S
C1997 C1996 1.400 1_556 S
C1997 C1998 1.398 . S
C1998 H1986 0.950 . S
C1998 C1997 1.398 . S
C1998 C1999 1.391 . S
C1999 H1987 0.950 . S
C1999 C1995 1.393 . S
C1999 C1998 1.391 . S
H2000 C2008 0.950 . S
H2001 C2013 0.952 . S
H2002 C2010 0.950 . S
H2003 C2012 0.945 1_554 S
H2004 C2014 0.955 . S
H2005 C2016 0.929 1_554 S
H2006 C2018 0.950 . S
H2007 C2019 0.950 . S
C2008 H2000 0.950 . S
C2008 C2009 1.386 . S
C2008 C2010 1.391 . S
C2009 C2008 1.386 . S
C2009 C2013 1.391 1_556 S
C2010 H2002 0.950 . S
C2010 C2008 1.391 . S
C2010 C2011 1.400 . S
C2011 C2010 1.400 . S
C2011 C2012 1.409 . S
C2011 C2017 1.491 . S
C2012 H2003 0.945 1_556 S
C2012 C2011 1.409 . S
C2012 C2013 1.388 1_556 S
C2013 H2001 0.952 . S
C2013 C2009 1.391 1_554 S
C2013 C2012 1.388 1_554 S
C2014 H2004 0.955 . S
C2014 C2015 1.386 . S
C2014 C2016 1.403 . S
C2015 C2014 1.386 . S
C2015 C2019 1.393 . S
C2016 H2005 0.929 1_556 S
C2016 C2014 1.403 . S
C2016 C2017 1.425 . S
C2017 C2011 1.491 . S
C2017 C2016 1.425 . S
C2017 C2018 1.398 . S
C2018 H2006 0.950 . S
C2018 C2017 1.398 . S
C2018 C2019 1.391 . S
C2019 H2007 0.950 . S
C2019 C2015 1.393 . S
C2019 C2018 1.391 . S
H2020 C2028 0.950 . S
H2021 C2033 0.950 . S
H2022 C2030 0.950 . S
H2023 C2032 0.950 . S
H2024 C2034 0.950 . S
H2025 C2036 0.950 . S
H2026 C2038 0.950 . S
H2027 C2039 0.950 . S
C2028 H2020 0.950 . S
C2028 C2029 1.485 . S
C2028 C2030 1.391 . S
C2029 C2028 1.485 . S
C2029 C2033 1.309 1_556 S
C2030 H2022 0.950 . S
C2030 C2028 1.391 . S
C2030 C2031 1.400 . S
C2031 C2030 1.400 . S
C2031 C2032 1.398 1_556 S
C2031 C2037 1.491 . S
C2032 H2023 0.950 . S
C2032 C2031 1.398 1_554 S
C2032 C2033 1.391 . S
C2033 H2021 0.950 . S
C2033 C2029 1.309 1_554 S
C2033 C2032 1.391 . S
C2034 H2024 0.950 . S
C2034 C2035 1.386 1_554 S
C2034 C2036 1.391 . S
C2035 C2034 1.386 1_556 S
C2035 C2039 1.393 . S
C2036 H2025 0.950 . S
C2036 C2034 1.391 . S
C2036 C2037 1.400 1_554 S
C2037 C2031 1.491 . S
C2037 C2036 1.400 1_556 S
C2037 C2038 1.398 . S
C2038 H2026 0.950 . S
C2038 C2037 1.398 . S
C2038 C2039 1.391 . S
C2039 H2027 0.950 . S
C2039 C2035 1.393 . S
C2039 C2038 1.391 . S
H2040 C2048 0.950 . S
H2041 C2053 0.950 . S
H2042 C2050 0.950 . S
H2043 C2052 0.950 . S
H2044 C2054 0.950 . S
H2045 C2056 0.950 . S
H2046 C2058 0.950 . S
H2047 C2059 0.950 . S
C2048 H2040 0.950 . S
C2048 C2049 1.386 . S
C2048 C2050 1.391 . S
C2049 C2048 1.386 . S
C2049 C2053 1.393 . S
C2050 H2042 0.950 . S
C2050 C2048 1.391 . S
C2050 C2051 1.400 . S
C2051 C2050 1.400 . S
C2051 C2052 1.398 . S
C2051 C2057 1.491 . S
C2052 H2043 0.950 . S
C2052 C2051 1.398 . S
C2052 C2053 1.391 . S
C2053 H2041 0.950 . S
C2053 C2049 1.393 . S
C2053 C2052 1.391 . S
C2054 H2044 0.950 . S
C2054 C2055 1.386 . S
C2054 C2056 1.391 . S
C2055 C2054 1.386 . S
C2055 C2059 1.393 . S
C2056 H2045 0.950 . S
C2056 C2054 1.391 . S
C2056 C2057 1.400 . S
C2057 C2051 1.491 . S
C2057 C2056 1.400 . S
C2057 C2058 1.398 . S
C2058 H2046 0.950 . S
C2058 C2057 1.398 . S
C2058 C2059 1.391 . S
C2059 H2047 0.950 . S
C2059 C2055 1.393 . S
C2059 C2058 1.391 . S
H2060 C2068 0.950 . S
H2061 C2073 0.950 . S
H2062 C2070 0.950 . S
H2063 C2072 0.950 . S
H2064 C2074 0.950 . S
H2065 C2076 0.950 . S
H2066 C2078 0.950 . S
H2067 C2079 0.950 . S
C2068 H2060 0.950 . S
C2068 C2069 1.386 . S
C2068 C2070 1.391 . S
C2069 C2068 1.386 . S
C2069 C2073 1.393 . S
C2070 H2062 0.950 . S
C2070 C2068 1.391 . S
C2070 C2071 1.400 . S
C2071 C2070 1.400 . S
C2071 C2072 1.398 . S
C2071 C2077 1.491 . S
C2072 H2063 0.950 . S
C2072 C2071 1.398 . S
C2072 C2073 1.391 . S
C2073 H2061 0.950 . S
C2073 C2069 1.393 . S
C2073 C2072 1.391 . S
C2074 H2064 0.950 . S
C2074 C2075 1.386 . S
C2074 C2076 1.391 . S
C2075 C2074 1.386 . S
C2075 C2079 1.393 . S
C2076 H2065 0.950 . S
C2076 C2074 1.391 . S
C2076 C2077 1.400 . S
C2077 C2071 1.491 . S
C2077 C2076 1.400 . S
C2077 C2078 1.398 . S
C2078 H2066 0.950 . S
C2078 C2077 1.398 . S
C2078 C2079 1.391 . S
C2079 H2067 0.950 . S
C2079 C2075 1.393 . S
C2079 C2078 1.391 . S
H2080 C2088 0.950 . S
H2081 C2093 0.950 . S
H2082 C2090 0.950 . S
H2083 C2092 0.950 . S
H2084 C2094 0.950 . S
H2085 C2096 0.950 . S
H2086 C2098 0.950 . S
H2087 C2099 0.950 . S
C2088 H2080 0.950 . S
C2088 C2089 1.386 . S
C2088 C2090 1.391 . S
C2089 C2088 1.386 . S
C2089 C2093 1.393 . S
C2090 H2082 0.950 . S
C2090 C2088 1.391 . S
C2090 C2091 1.400 . S
C2091 C2090 1.400 . S
C2091 C2092 1.398 . S
C2091 C2097 1.491 . S
C2092 H2083 0.950 . S
C2092 C2091 1.398 . S
C2092 C2093 1.391 . S
C2093 H2081 0.950 . S
C2093 C2089 1.393 . S
C2093 C2092 1.391 . S
C2094 H2084 0.950 . S
C2094 C2095 1.386 . S
C2094 C2096 1.391 . S
C2095 C2094 1.386 . S
C2095 C2099 1.393 . S
C2096 H2085 0.950 . S
C2096 C2094 1.391 . S
C2096 C2097 1.400 . S
C2097 C2091 1.491 . S
C2097 C2096 1.400 . S
C2097 C2098 1.398 . S
C2098 H2086 0.950 . S
C2098 C2097 1.398 . S
C2098 C2099 1.391 . S
C2099 H2087 0.950 . S
C2099 C2095 1.393 . S
C2099 C2098 1.391 . S
H2100 C2108 0.950 . S
H2101 C2113 0.950 . S
H2102 C2110 0.950 . S
H2103 C2112 0.950 . S
H2104 C2114 0.950 . S
H2105 C2116 0.950 . S
H2106 C2118 0.950 . S
H2107 C2119 0.950 . S
C2108 H2100 0.950 . S
C2108 C2109 1.386 . S
C2108 C2110 1.391 . S
C2109 C2108 1.386 . S
C2109 C2113 1.393 . S
C2110 H2102 0.950 . S
C2110 C2108 1.391 . S
C2110 C2111 1.400 . S
C2111 C2110 1.400 . S
C2111 C2112 1.398 . S
C2111 C2117 1.491 . S
C2112 H2103 0.950 . S
C2112 C2111 1.398 . S
C2112 C2113 1.391 . S
C2113 H2101 0.950 . S
C2113 C2109 1.393 . S
C2113 C2112 1.391 . S
C2114 H2104 0.950 . S
C2114 C2115 1.386 . S
C2114 C2116 1.391 . S
C2115 C2114 1.386 . S
C2115 C2119 1.393 . S
C2116 H2105 0.950 . S
C2116 C2114 1.391 . S
C2116 C2117 1.400 . S
C2117 C2111 1.491 . S
C2117 C2116 1.400 . S
C2117 C2118 1.398 . S
C2118 H2106 0.950 . S
C2118 C2117 1.398 . S
C2118 C2119 1.391 . S
C2119 H2107 0.950 . S
C2119 C2115 1.393 . S
C2119 C2118 1.391 . S
H2120 C2128 0.950 . S
H2121 C2133 0.950 . S
H2122 C2130 0.950 . S
H2123 C2132 0.950 . S
H2124 C2134 0.950 . S
H2125 C2136 0.950 . S
H2126 C2138 0.950 . S
H2127 C2139 0.950 . S
C2128 H2120 0.950 . S
C2128 C2129 1.386 . S
C2128 C2130 1.391 . S
C2129 C2128 1.386 . S
C2129 C2133 1.393 . S
C2130 H2122 0.950 . S
C2130 C2128 1.391 . S
C2130 C2131 1.400 . S
C2131 C2130 1.400 . S
C2131 C2132 1.398 . S
C2131 C2137 1.491 . S
C2132 H2123 0.950 . S
C2132 C2131 1.398 . S
C2132 C2133 1.391 . S
C2133 H2121 0.950 . S
C2133 C2129 1.393 . S
C2133 C2132 1.391 . S
C2134 H2124 0.950 . S
C2134 C2135 1.386 . S
C2134 C2136 1.391 . S
C2135 C2134 1.386 . S
C2135 C2139 1.393 . S
C2136 H2125 0.950 . S
C2136 C2134 1.391 . S
C2136 C2137 1.400 . S
C2137 C2131 1.491 . S
C2137 C2136 1.400 . S
C2137 C2138 1.398 . S
C2138 H2126 0.950 . S
C2138 C2137 1.398 . S
C2138 C2139 1.391 . S
C2139 H2127 0.950 . S
C2139 C2135 1.393 . S
C2139 C2138 1.391 . S
H2140 C2148 0.950 . S
H2141 C2153 0.950 . S
H2142 C2150 0.950 . S
H2143 C2152 0.950 . S
H2144 C2154 0.950 . S
H2145 C2156 0.950 . S
H2146 C2158 0.950 . S
H2147 C2159 0.950 . S
C2148 H2140 0.950 . S
C2148 C2149 1.386 . S
C2148 C2150 1.391 . S
C2149 C2148 1.386 . S
C2149 C2153 1.393 . S
C2150 H2142 0.950 . S
C2150 C2148 1.391 . S
C2150 C2151 1.400 . S
C2151 C2150 1.400 . S
C2151 C2152 1.398 . S
C2151 C2157 1.491 . S
C2152 H2143 0.950 . S
C2152 C2151 1.398 . S
C2152 C2153 1.391 . S
C2153 H2141 0.950 . S
C2153 C2149 1.393 . S
C2153 C2152 1.391 . S
C2154 H2144 0.950 . S
C2154 C2155 1.386 . S
C2154 C2156 1.391 . S
C2155 C2154 1.386 . S
C2155 C2159 1.393 . S
C2156 H2145 0.950 . S
C2156 C2154 1.391 . S
C2156 C2157 1.400 . S
C2157 C2151 1.491 . S
C2157 C2156 1.400 . S
C2157 C2158 1.398 . S
C2158 H2146 0.950 . S
C2158 C2157 1.398 . S
C2158 C2159 1.391 . S
C2159 H2147 0.950 . S
C2159 C2155 1.393 . S
C2159 C2158 1.391 . S
H2160 C2168 0.950 . S
H2161 C2173 0.950 . S
H2162 C2170 0.950 . S
H2163 C2172 0.950 . S
H2164 C2174 0.950 . S
H2165 C2176 0.950 . S
H2166 C2178 0.950 . S
H2167 C2179 0.950 . S
C2168 H2160 0.950 . S
C2168 C2169 1.386 . S
C2168 C2170 1.391 . S
C2169 C2168 1.386 . S
C2169 C2173 1.393 . S
C2170 H2162 0.950 . S
C2170 C2168 1.391 . S
C2170 C2171 1.400 . S
C2171 C2170 1.400 . S
C2171 C2172 1.398 . S
C2171 C2177 1.491 . S
C2172 H2163 0.950 . S
C2172 C2171 1.398 . S
C2172 C2173 1.391 . S
C2173 H2161 0.950 . S
C2173 C2169 1.393 . S
C2173 C2172 1.391 . S
C2174 H2164 0.950 . S
C2174 C2175 1.386 . S
C2174 C2176 1.391 . S
C2175 C2174 1.386 . S
C2175 C2179 1.393 . S
C2176 H2165 0.950 . S
C2176 C2174 1.391 . S
C2176 C2177 1.400 . S
C2177 C2171 1.491 . S
C2177 C2176 1.400 . S
C2177 C2178 1.398 . S
C2178 H2166 0.950 . S
C2178 C2177 1.398 . S
C2178 C2179 1.391 . S
C2179 H2167 0.950 . S
C2179 C2175 1.393 . S
C2179 C2178 1.391 . S
H2180 C2188 0.950 . S
H2181 C2193 0.950 . S
H2182 C2190 0.950 . S
H2183 C2192 0.950 . S
H2184 C2194 0.950 . S
H2185 C2196 0.950 1_545 S
H2186 C2198 0.950 . S
H2187 C2199 0.950 . S
C2188 H2180 0.950 . S
C2188 C2189 1.386 1_565 S
C2188 C2190 1.391 . S
C2189 C2188 1.386 1_545 S
C2189 C2193 1.393 . S
C2190 H2182 0.950 . S
C2190 C2188 1.391 . S
C2190 C2191 1.400 . S
C2191 C2190 1.400 . S
C2191 C2192 1.398 1_565 S
C2191 C2197 1.491 . S
C2192 H2183 0.950 . S
C2192 C2191 1.398 1_545 S
C2192 C2193 1.391 . S
C2193 H2181 0.950 . S
C2193 C2189 1.393 . S
C2193 C2192 1.391 . S
C2194 H2184 0.950 . S
C2194 C2195 1.386 . S
C2194 C2196 1.391 . S
C2195 C2194 1.386 . S
C2195 C2199 1.393 . S
C2196 H2185 0.950 1_565 S
C2196 C2194 1.391 . S
C2196 C2197 1.400 . S
C2197 C2191 1.491 . S
C2197 C2196 1.400 . S
C2197 C2198 1.398 . S
C2198 H2186 0.950 . S
C2198 C2197 1.398 . S
C2198 C2199 1.391 . S
C2199 H2187 0.950 . S
C2199 C2195 1.393 . S
C2199 C2198 1.391 . S
H2200 C2208 0.950 . S
H2201 C2213 0.950 . S
H2202 C2210 0.950 . S
H2203 C2212 0.950 . S
H2204 C2214 0.950 . S
H2205 C2216 0.950 . S
H2206 C2218 0.950 . S
H2207 C2219 0.950 . S
C2208 H2200 0.950 . S
C2208 C2209 1.386 . S
C2208 C2210 1.391 . S
C2209 C2208 1.386 . S
C2209 C2213 1.393 . S
C2210 H2202 0.950 . S
C2210 C2208 1.391 . S
C2210 C2211 1.400 . S
C2211 C2210 1.400 . S
C2211 C2212 1.398 . S
C2211 C2217 1.491 . S
C2212 H2203 0.950 . S
C2212 C2211 1.398 . S
C2212 C2213 1.391 . S
C2213 H2201 0.950 . S
C2213 C2209 1.393 . S
C2213 C2212 1.391 . S
C2214 H2204 0.950 . S
C2214 C2215 1.386 . S
C2214 C2216 1.391 1_655 S
C2215 C2214 1.386 . S
C2215 C2219 1.393 1_655 S
C2216 H2205 0.950 . S
C2216 C2214 1.391 1_455 S
C2216 C2217 1.400 . S
C2217 C2211 1.491 . S
C2217 C2216 1.400 . S
C2217 C2218 1.398 . S
C2218 H2206 0.950 . S
C2218 C2217 1.398 . S
C2218 C2219 1.391 . S
C2219 H2207 0.950 . S
C2219 C2215 1.393 1_455 S
C2219 C2218 1.391 . S
H2220 C2228 0.950 . S
H2221 C2233 0.950 . S
H2222 C2230 0.950 . S
H2223 C2232 0.950 . S
H2224 C2234 0.950 . S
H2225 C2236 0.950 . S
H2226 C2238 0.950 . S
H2227 C2239 0.950 . S
C2228 H2220 0.950 . S
C2228 C2229 1.386 . S
C2228 C2230 1.391 . S
C2229 C2228 1.386 . S
C2229 C2233 1.393 . S
C2230 H2222 0.950 . S
C2230 C2228 1.391 . S
C2230 C2231 1.400 . S
C2231 C2230 1.400 . S
C2231 C2232 1.398 . S
C2231 C2237 1.491 . S
C2232 H2223 0.950 . S
C2232 C2231 1.398 . S
C2232 C2233 1.391 . S
C2233 H2221 0.950 . S
C2233 C2229 1.393 . S
C2233 C2232 1.391 . S
C2234 H2224 0.950 . S
C2234 C2235 1.386 . S
C2234 C2236 1.391 . S
C2235 C2234 1.386 . S
C2235 C2239 1.393 . S
C2236 H2225 0.950 . S
C2236 C2234 1.391 . S
C2236 C2237 1.400 . S
C2237 C2231 1.491 . S
C2237 C2236 1.400 . S
C2237 C2238 1.398 . S
C2238 H2226 0.950 . S
C2238 C2237 1.398 . S
C2238 C2239 1.391 . S
C2239 H2227 0.950 . S
C2239 C2235 1.393 . S
C2239 C2238 1.391 . S
H2240 C2248 0.950 . S
H2241 C2253 0.950 . S
H2242 C2250 0.950 . S
H2243 C2252 0.950 . S
H2244 C2254 0.950 . S
H2245 C2256 0.950 . S
H2246 C2258 0.950 . S
H2247 C2259 0.950 . S
C2248 H2240 0.950 . S
C2248 C2249 1.386 1_545 S
C2248 C2250 1.391 . S
C2249 C2248 1.386 1_565 S
C2249 C2253 1.393 . S
C2250 H2242 0.950 . S
C2250 C2248 1.391 . S
C2250 C2251 1.400 . S
C2251 C2250 1.400 . S
C2251 C2252 1.398 1_545 S
C2251 C2257 1.491 . S
C2252 H2243 0.950 . S
C2252 C2251 1.398 1_565 S
C2252 C2253 1.391 . S
C2253 H2241 0.950 . S
C2253 C2249 1.393 . S
C2253 C2252 1.391 . S
C2254 H2244 0.950 . S
C2254 C2255 1.386 . S
C2254 C2256 1.391 . S
C2255 C2254 1.386 . S
C2255 C2259 1.393 . S
C2256 H2245 0.950 . S
C2256 C2254 1.391 . S
C2256 C2257 1.400 . S
C2257 C2251 1.491 . S
C2257 C2256 1.400 . S
C2257 C2258 1.398 . S
C2258 H2246 0.950 . S
C2258 C2257 1.398 . S
C2258 C2259 1.391 . S
C2259 H2247 0.950 . S
C2259 C2255 1.393 . S
C2259 C2258 1.391 . S
H2260 C2268 0.950 . S
H2261 C2273 0.950 . S
H2262 C2270 0.950 . S
H2263 C2272 0.950 . S
H2264 C2274 0.950 . S
H2265 C2276 0.950 . S
H2266 C2278 0.950 . S
H2267 C2279 0.950 . S
C2268 H2260 0.950 . S
C2268 C2269 1.386 . S
C2268 C2270 1.391 . S
C2269 C2268 1.386 . S
C2269 C2273 1.393 . S
C2270 H2262 0.950 . S
C2270 C2268 1.391 . S
C2270 C2271 1.400 . S
C2271 C2270 1.400 . S
C2271 C2272 1.398 . S
C2271 C2277 1.491 . S
C2272 H2263 0.950 . S
C2272 C2271 1.398 . S
C2272 C2273 1.391 . S
C2273 H2261 0.950 . S
C2273 C2269 1.393 . S
C2273 C2272 1.391 . S
C2274 H2264 0.950 . S
C2274 C2275 1.386 1_655 S
C2274 C2276 1.391 . S
C2275 C2274 1.386 1_455 S
C2275 C2279 1.393 . S
C2276 H2265 0.950 . S
C2276 C2274 1.391 . S
C2276 C2277 1.400 . S
C2277 C2271 1.491 . S
C2277 C2276 1.400 . S
C2277 C2278 1.398 . S
C2278 H2266 0.950 . S
C2278 C2277 1.398 . S
C2278 C2279 1.391 1_655 S
C2279 H2267 0.950 . S
C2279 C2275 1.393 . S
C2279 C2278 1.391 1_455 S
H2280 C2288 0.950 . S
H2281 C2293 0.950 . S
H2282 C2290 0.950 . S
H2283 C2292 0.950 . S
H2284 C2294 0.950 . S
H2285 C2296 0.950 . S
H2286 C2298 0.950 . S
H2287 C2299 0.950 . S
C2288 H2280 0.950 . S
C2288 C2289 1.386 . S
C2288 C2290 1.391 . S
C2289 C2288 1.386 . S
C2289 C2293 1.393 . S
C2290 H2282 0.950 . S
C2290 C2288 1.391 . S
C2290 C2291 1.400 . S
C2291 C2290 1.400 . S
C2291 C2292 1.398 . S
C2291 C2297 1.491 . S
C2292 H2283 0.950 . S
C2292 C2291 1.398 . S
C2292 C2293 1.391 . S
C2293 H2281 0.950 . S
C2293 C2289 1.393 . S
C2293 C2292 1.391 . S
C2294 H2284 0.950 . S
C2294 C2295 1.386 . S
C2294 C2296 1.391 . S
C2295 C2294 1.386 . S
C2295 C2299 1.393 . S
C2296 H2285 0.950 . S
C2296 C2294 1.391 . S
C2296 C2297 1.400 . S
C2297 C2291 1.491 . S
C2297 C2296 1.400 . S
C2297 C2298 1.398 . S
C2298 H2286 0.950 . S
C2298 C2297 1.398 . S
C2298 C2299 1.391 . S
C2299 H2287 0.950 . S
C2299 C2295 1.393 . S
C2299 C2298 1.391 . S
H2300 C2308 0.950 . S
H2301 C2313 0.950 . S
H2302 C2310 0.950 1_565 S
H2303 C2312 0.950 . S
H2304 C2314 0.950 . S
H2305 C2316 0.950 . S
H2306 C2318 0.950 . S
H2307 C2319 0.950 . S
C2308 H2300 0.950 . S
C2308 C2309 1.386 . S
C2308 C2310 1.391 . S
C2309 C2308 1.386 . S
C2309 C2313 1.393 . S
C2310 H2302 0.950 1_545 S
C2310 C2308 1.391 . S
C2310 C2311 1.400 . S
C2311 C2310 1.400 . S
C2311 C2312 1.398 . S
C2311 C2317 1.491 . S
C2312 H2303 0.950 . S
C2312 C2311 1.398 . S
C2312 C2313 1.391 . S
C2313 H2301 0.950 . S
C2313 C2309 1.393 . S
C2313 C2312 1.391 . S
C2314 H2304 0.950 . S
C2314 C2315 1.386 1_545 S
C2314 C2316 1.391 . S
C2315 C2314 1.386 1_565 S
C2315 C2319 1.393 . S
C2316 H2305 0.950 . S
C2316 C2314 1.391 . S
C2316 C2317 1.400 . S
C2317 C2311 1.491 . S
C2317 C2316 1.400 . S
C2317 C2318 1.398 1_545 S
C2318 H2306 0.950 . S
C2318 C2317 1.398 1_565 S
C2318 C2319 1.391 . S
C2319 H2307 0.950 . S
C2319 C2315 1.393 . S
C2319 C2318 1.391 . S
H2320 C2328 0.950 . S
H2321 C2333 0.950 . S
H2322 C2330 0.950 1_455 S
H2323 C2332 0.950 . S
H2324 C2334 0.950 . S
H2325 C2336 0.950 . S
H2326 C2338 0.950 . S
H2327 C2339 0.950 . S
C2328 H2320 0.950 . S
C2328 C2329 1.386 . S
C2328 C2330 1.391 . S
C2329 C2328 1.386 . S
C2329 C2333 1.393 . S
C2330 H2322 0.950 1_655 S
C2330 C2328 1.391 . S
C2330 C2331 1.400 . S
C2331 C2330 1.400 . S
C2331 C2332 1.398 . S
C2331 C2337 1.491 . S
C2332 H2323 0.950 . S
C2332 C2331 1.398 . S
C2332 C2333 1.391 . S
C2333 H2321 0.950 . S
C2333 C2329 1.393 . S
C2333 C2332 1.391 . S
C2334 H2324 0.950 . S
C2334 C2335 1.386 1_655 S
C2334 C2336 1.391 . S
C2335 C2334 1.386 1_455 S
C2335 C2339 1.393 . S
C2336 H2325 0.950 . S
C2336 C2334 1.391 . S
C2336 C2337 1.400 . S
C2337 C2331 1.491 . S
C2337 C2336 1.400 . S
C2337 C2338 1.398 1_655 S
C2338 H2326 0.950 . S
C2338 C2337 1.398 1_455 S
C2338 C2339 1.391 . S
C2339 H2327 0.950 . S
C2339 C2335 1.393 . S
C2339 C2338 1.391 . S
H2340 C2348 0.950 . S
H2341 C2353 0.950 . S
H2342 C2350 0.950 . S
H2343 C2352 0.950 . S
H2344 C2354 0.950 . S
H2345 C2356 0.950 . S
H2346 C2358 0.950 . S
H2347 C2359 0.950 . S
C2348 H2340 0.950 . S
C2348 C2349 1.386 . S
C2348 C2350 1.391 . S
C2349 C2348 1.386 . S
C2349 C2353 1.393 . S
C2350 H2342 0.950 . S
C2350 C2348 1.391 . S
C2350 C2351 1.400 . S
C2351 C2350 1.400 . S
C2351 C2352 1.398 . S
C2351 C2357 1.491 . S
C2352 H2343 0.950 . S
C2352 C2351 1.398 . S
C2352 C2353 1.391 . S
C2353 H2341 0.950 . S
C2353 C2349 1.393 . S
C2353 C2352 1.391 . S
C2354 H2344 0.950 . S
C2354 C2355 1.386 . S
C2354 C2356 1.391 . S
C2355 C2354 1.386 . S
C2355 C2359 1.393 . S
C2356 H2345 0.950 . S
C2356 C2354 1.391 . S
C2356 C2357 1.400 . S
C2357 C2351 1.491 . S
C2357 C2356 1.400 . S
C2357 C2358 1.398 . S
C2358 H2346 0.950 . S
C2358 C2357 1.398 . S
C2358 C2359 1.391 . S
C2359 H2347 0.950 . S
C2359 C2355 1.393 . S
C2359 C2358 1.391 . S
H2360 C2368 0.950 . S
H2361 C2373 0.950 . S
H2362 C2370 0.950 . S
H2363 C2372 0.950 . S
H2364 C2374 0.950 . S
H2365 C2376 0.950 . S
H2366 C2378 0.950 1_545 S
H2367 C2379 0.950 . S
C2368 H2360 0.950 . S
C2368 C2369 1.386 . S
C2368 C2370 1.391 . S
C2369 C2368 1.386 . S
C2369 C2373 1.393 1_545 S
C2370 H2362 0.950 . S
C2370 C2368 1.391 . S
C2370 C2371 1.400 1_545 S
C2371 C2370 1.400 1_565 S
C2371 C2372 1.398 . S
C2371 C2377 1.491 . S
C2372 H2363 0.950 . S
C2372 C2371 1.398 . S
C2372 C2373 1.391 . S
C2373 H2361 0.950 . S
C2373 C2369 1.393 1_565 S
C2373 C2372 1.391 . S
C2374 H2364 0.950 . S
C2374 C2375 1.386 . S
C2374 C2376 1.391 . S
C2375 C2374 1.386 . S
C2375 C2379 1.393 . S
C2376 H2365 0.950 . S
C2376 C2374 1.391 . S
C2376 C2377 1.400 . S
C2377 C2371 1.491 . S
C2377 C2376 1.400 . S
C2377 C2378 1.398 . S
C2378 H2366 0.950 1_565 S
C2378 C2377 1.398 . S
C2378 C2379 1.391 . S
C2379 H2367 0.950 . S
C2379 C2375 1.393 . S
C2379 C2378 1.391 . S
H2380 C2388 0.949 1_655 S
H2381 C2393 0.950 . S
H2382 C2390 0.950 . S
H2383 C2392 0.950 . S
H2384 C2394 0.950 . S
H2385 C2396 0.950 . S
H2386 C2398 0.950 . S
H2387 C2399 0.950 . S
C2388 H2380 0.949 1_455 S
C2388 C2389 1.386 1_455 S
C2388 C2390 1.392 . S
C2389 C2388 1.386 1_655 S
C2389 C2393 1.393 . S
C2390 H2382 0.950 . S
C2390 C2388 1.392 . S
C2390 C2391 1.400 . S
C2391 C2390 1.400 . S
C2391 C2392 1.398 . S
C2391 C2397 1.491 . S
C2392 H2383 0.950 . S
C2392 C2391 1.398 . S
C2392 C2393 1.391 1_455 S
C2393 H2381 0.950 . S
C2393 C2389 1.393 . S
C2393 C2392 1.391 1_655 S
C2394 H2384 0.950 . S
C2394 C2395 1.386 . S
C2394 C2396 1.391 . S
C2395 C2394 1.386 . S
C2395 C2399 1.393 . S
C2396 H2385 0.950 . S
C2396 C2394 1.391 . S
C2396 C2397 1.400 . S
C2397 C2391 1.491 . S
C2397 C2396 1.400 . S
C2397 C2398 1.398 . S
C2398 H2386 0.950 . S
C2398 C2397 1.398 . S
C2398 C2399 1.391 . S
C2399 H2387 0.950 . S
C2399 C2395 1.393 . S
C2399 C2398 1.391 . S
H2400 C2408 0.950 . S
H2401 C2413 0.950 . S
H2402 C2410 0.950 . S
H2403 C2412 0.950 . S
H2404 C2414 0.950 . S
H2405 C2416 0.950 . S
H2406 C2418 0.950 . S
H2407 C2419 0.950 . S
C2408 H2400 0.950 . S
C2408 C2409 1.386 . S
C2408 C2410 1.391 . S
C2409 C2408 1.386 . S
C2409 C2413 1.393 . S
C2410 H2402 0.950 . S
C2410 C2408 1.391 . S
C2410 C2411 1.400 1_655 S
C2411 C2410 1.400 1_455 S
C2411 C2412 1.398 1_455 S
C2411 C2417 1.491 . S
C2412 H2403 0.950 . S
C2412 C2411 1.398 1_655 S
C2412 C2413 1.391 . S
C2413 H2401 0.950 . S
C2413 C2409 1.393 . S
C2413 C2412 1.391 . S
C2414 H2404 0.950 . S
C2414 C2415 1.386 . S
C2414 C2416 1.391 . S
C2415 C2414 1.386 . S
C2415 C2419 1.393 . S
C2416 H2405 0.950 . S
C2416 C2414 1.391 . S
C2416 C2417 1.400 . S
C2417 C2411 1.491 . S
C2417 C2416 1.400 . S
C2417 C2418 1.398 . S
C2418 H2406 0.950 . S
C2418 C2417 1.398 . S
C2418 C2419 1.391 . S
C2419 H2407 0.950 . S
C2419 C2415 1.393 . S
C2419 C2418 1.391 . S
H2420 C2428 0.950 . S
H2421 C2433 0.950 . S
H2422 C2430 0.950 . S
H2423 C2432 0.950 . S
H2424 C2434 0.950 . S
H2425 C2436 0.950 . S
H2426 C2438 0.950 . S
H2427 C2439 0.950 . S
C2428 H2420 0.950 . S
C2428 C2429 1.386 . S
C2428 C2430 1.391 . S
C2429 C2428 1.386 . S
C2429 C2433 1.393 . S
C2430 H2422 0.950 . S
C2430 C2428 1.391 . S
C2430 C2431 1.400 . S
C2431 C2430 1.400 . S
C2431 C2432 1.398 . S
C2431 C2437 1.491 . S
C2432 H2423 0.950 . S
C2432 C2431 1.398 . S
C2432 C2433 1.391 . S
C2433 H2421 0.950 . S
C2433 C2429 1.393 . S
C2433 C2432 1.391 . S
C2434 H2424 0.950 . S
C2434 C2435 1.386 . S
C2434 C2436 1.391 . S
C2435 C2434 1.386 . S
C2435 C2439 1.393 . S
C2436 H2425 0.950 . S
C2436 C2434 1.391 . S
C2436 C2437 1.400 . S
C2437 C2431 1.491 . S
C2437 C2436 1.400 . S
C2437 C2438 1.398 . S
C2438 H2426 0.950 . S
C2438 C2437 1.398 . S
C2438 C2439 1.391 . S
C2439 H2427 0.950 . S
C2439 C2435 1.393 . S
C2439 C2438 1.391 . S
H2440 C2448 0.950 . S
H2441 C2453 0.950 . S
H2442 C2450 0.950 . S
H2443 C2452 0.950 . S
H2444 C2454 0.950 . S
H2445 C2456 0.950 1_565 S
H2446 C2458 0.950 . S
H2447 C2459 0.950 . S
C2448 H2440 0.950 . S
C2448 C2449 1.386 . S
C2448 C2450 1.391 . S
C2449 C2448 1.386 . S
C2449 C2453 1.393 . S
C2450 H2442 0.950 . S
C2450 C2448 1.391 . S
C2450 C2451 1.400 . S
C2451 C2450 1.400 . S
C2451 C2452 1.398 . S
C2451 C2457 1.491 . S
C2452 H2443 0.950 . S
C2452 C2451 1.398 . S
C2452 C2453 1.391 . S
C2453 H2441 0.950 . S
C2453 C2449 1.393 . S
C2453 C2452 1.391 . S
C2454 H2444 0.950 . S
C2454 C2455 1.386 . S
C2454 C2456 1.391 . S
C2455 C2454 1.386 . S
C2455 C2459 1.393 . S
C2456 H2445 0.950 1_545 S
C2456 C2454 1.391 . S
C2456 C2457 1.400 1_545 S
C2457 C2451 1.491 . S
C2457 C2456 1.400 1_565 S
C2457 C2458 1.398 1_565 S
C2458 H2446 0.950 . S
C2458 C2457 1.398 1_545 S
C2458 C2459 1.391 . S
C2459 H2447 0.950 . S
C2459 C2455 1.393 . S
C2459 C2458 1.391 . S
H2460 C2468 0.950 . S
H2461 C2473 0.950 . S
H2462 C2470 0.950 . S
H2463 C2472 0.950 . S
H2464 C2474 0.950 . S
H2465 C2476 0.950 . S
H2466 C2478 0.950 1_655 S
H2467 C2479 0.950 . S
C2468 H2460 0.950 . S
C2468 C2469 1.386 . S
C2468 C2470 1.391 . S
C2469 C2468 1.386 . S
C2469 C2473 1.393 . S
C2470 H2462 0.950 . S
C2470 C2468 1.391 . S
C2470 C2471 1.400 . S
C2471 C2470 1.400 . S
C2471 C2472 1.398 . S
C2471 C2477 1.491 . S
C2472 H2463 0.950 . S
C2472 C2471 1.398 . S
C2472 C2473 1.391 . S
C2473 H2461 0.950 . S
C2473 C2469 1.393 . S
C2473 C2472 1.391 . S
C2474 H2464 0.950 . S
C2474 C2475 1.386 1_455 S
C2474 C2476 1.391 . S
C2475 C2474 1.386 1_655 S
C2475 C2479 1.393 . S
C2476 H2465 0.950 . S
C2476 C2474 1.391 . S
C2476 C2477 1.400 . S
C2477 C2471 1.491 . S
C2477 C2476 1.400 . S
C2477 C2478 1.398 . S
C2478 H2466 0.950 1_455 S
C2478 C2477 1.398 . S
C2478 C2479 1.391 1_455 S
C2479 H2467 0.950 . S
C2479 C2475 1.393 . S
C2479 C2478 1.391 1_655 S
H2480 C2488 0.950 . S
H2481 C2493 0.950 . S
H2482 C2490 0.950 . S
H2483 C2492 0.950 . S
H2484 C2494 0.950 . S
H2485 C2496 0.950 . S
H2486 C2498 0.950 . S
H2487 C2499 0.950 . S
C2488 H2480 0.950 . S
C2488 C2489 1.386 . S
C2488 C2490 1.391 . S
C2489 C2488 1.386 . S
C2489 C2493 1.393 . S
C2490 H2482 0.950 . S
C2490 C2488 1.391 . S
C2490 C2491 1.400 . S
C2491 C2490 1.400 . S
C2491 C2492 1.398 . S
C2491 C2497 1.491 . S
C2492 H2483 0.950 . S
C2492 C2491 1.398 . S
C2492 C2493 1.391 . S
C2493 H2481 0.950 . S
C2493 C2489 1.393 . S
C2493 C2492 1.391 . S
C2494 H2484 0.950 . S
C2494 C2495 1.386 . S
C2494 C2496 1.391 . S
C2495 C2494 1.386 . S
C2495 C2499 1.393 . S
C2496 H2485 0.950 . S
C2496 C2494 1.391 . S
C2496 C2497 1.400 . S
C2497 C2491 1.491 . S
C2497 C2496 1.400 . S
C2497 C2498 1.398 . S
C2498 H2486 0.950 . S
C2498 C2497 1.398 . S
C2498 C2499 1.391 . S
C2499 H2487 0.950 . S
C2499 C2495 1.393 . S
C2499 C2498 1.391 . S
H2500 C2508 0.950 . S
H2501 C2513 0.950 . S
H2502 C2510 0.950 . S
H2503 C2512 0.950 . S
H2504 C2514 0.950 . S
H2505 C2516 0.950 . S
H2506 C2518 0.950 . S
H2507 C2519 0.950 . S
C2508 H2500 0.950 . S
C2508 C2509 1.386 . S
C2508 C2510 1.391 . S
C2509 C2508 1.386 . S
C2509 C2513 1.393 . S
C2510 H2502 0.950 . S
C2510 C2508 1.391 . S
C2510 C2511 1.400 . S
C2511 C2510 1.400 . S
C2511 C2512 1.398 . S
C2511 C2517 1.491 . S
C2512 H2503 0.950 . S
C2512 C2511 1.398 . S
C2512 C2513 1.391 . S
C2513 H2501 0.950 . S
C2513 C2509 1.393 . S
C2513 C2512 1.391 . S
C2514 H2504 0.950 . S
C2514 C2515 1.386 . S
C2514 C2516 1.391 1_545 S
C2515 C2514 1.386 . S
C2515 C2519 1.393 1_545 S
C2516 H2505 0.950 . S
C2516 C2514 1.391 1_565 S
C2516 C2517 1.400 . S
C2517 C2511 1.491 . S
C2517 C2516 1.400 . S
C2517 C2518 1.398 . S
C2518 H2506 0.950 . S
C2518 C2517 1.398 . S
C2518 C2519 1.391 . S
C2519 H2507 0.950 . S
C2519 C2515 1.393 1_565 S
C2519 C2518 1.391 . S
H2520 C2528 0.950 . S
H2521 C2533 0.950 . S
H2522 C2530 0.950 . S
H2523 C2532 0.950 . S
H2524 C2534 0.950 . S
H2525 C2536 0.927 1_545 S
H2526 C2538 0.950 . S
H2527 C2539 0.950 . S
C2528 H2520 0.950 . S
C2528 C2529 1.386 . S
C2528 C2530 1.391 . S
C2529 C2528 1.386 . S
C2529 C2533 1.393 . S
C2530 H2522 0.950 . S
C2530 C2528 1.391 . S
C2530 C2531 1.400 . S
C2531 C2530 1.400 . S
C2531 C2532 1.398 . S
C2531 C2537 1.491 . S
C2532 H2523 0.950 . S
C2532 C2531 1.398 . S
C2532 C2533 1.391 . S
C2533 H2521 0.950 . S
C2533 C2529 1.393 . S
C2533 C2532 1.391 . S
C2534 H2524 0.950 . S
C2534 C2535 1.386 . S
C2534 C2536 1.389 1_545 S
C2535 C2534 1.386 . S
C2535 C2539 1.393 1_545 S
C2536 H2525 0.927 1_565 S
C2536 C2534 1.389 1_565 S
C2536 C2537 1.425 . S
C2537 C2531 1.491 . S
C2537 C2536 1.425 . S
C2537 C2538 1.398 . S
C2538 H2526 0.950 . S
C2538 C2537 1.398 . S
C2538 C2539 1.391 . S
C2539 H2527 0.950 . S
C2539 C2535 1.393 1_565 S
C2539 C2538 1.391 . S
H2540 C2548 0.950 . S
H2541 C2553 0.950 . S
H2542 C2550 0.950 . S
H2543 C2552 0.950 1_655 S
H2544 C2554 0.950 . S
H2545 C2556 0.950 . S
H2546 C2558 0.950 . S
H2547 C2559 0.950 . S
C2548 H2540 0.950 . S
C2548 C2549 1.386 1_455 S
C2548 C2550 1.391 . S
C2549 C2548 1.386 1_655 S
C2549 C2553 1.393 . S
C2550 H2542 0.950 . S
C2550 C2548 1.391 . S
C2550 C2551 1.400 . S
C2551 C2550 1.400 . S
C2551 C2552 1.398 . S
C2551 C2557 1.491 . S
C2552 H2543 0.950 1_455 S
C2552 C2551 1.398 . S
C2552 C2553 1.391 1_455 S
C2553 H2541 0.950 . S
C2553 C2549 1.393 . S
C2553 C2552 1.391 1_655 S
C2554 H2544 0.950 . S
C2554 C2555 1.386 . S
C2554 C2556 1.391 . S
C2555 C2554 1.386 . S
C2555 C2559 1.393 . S
C2556 H2545 0.950 . S
C2556 C2554 1.391 . S
C2556 C2557 1.400 . S
C2557 C2551 1.491 . S
C2557 C2556 1.400 . S
C2557 C2558 1.398 . S
C2558 H2546 0.950 . S
C2558 C2557 1.398 . S
C2558 C2559 1.391 . S
C2559 H2547 0.950 . S
C2559 C2555 1.393 . S
C2559 C2558 1.391 . S
H2560 C2568 0.950 . S
H2561 C2573 0.950 . S
H2562 C2570 0.950 . S
H2563 C2572 0.950 . S
H2564 C2574 0.950 . S
H2565 C2576 0.950 . S
H2566 C2578 0.950 . S
H2567 C2579 0.950 . S
C2568 H2560 0.950 . S
C2568 C2569 1.386 . S
C2568 C2570 1.391 . S
C2569 C2568 1.386 . S
C2569 C2573 1.393 . S
C2570 H2562 0.950 . S
C2570 C2568 1.391 . S
C2570 C2571 1.400 . S
C2571 C2570 1.400 . S
C2571 C2572 1.398 . S
C2571 C2577 1.491 . S
C2572 H2563 0.950 . S
C2572 C2571 1.398 . S
C2572 C2573 1.391 . S
C2573 H2561 0.950 . S
C2573 C2569 1.393 . S
C2573 C2572 1.391 . S
C2574 H2564 0.950 . S
C2574 C2575 1.386 . S
C2574 C2576 1.391 . S
C2575 C2574 1.386 . S
C2575 C2579 1.393 . S
C2576 H2565 0.950 . S
C2576 C2574 1.391 . S
C2576 C2577 1.400 . S
C2577 C2571 1.491 . S
C2577 C2576 1.400 . S
C2577 C2578 1.398 . S
C2578 H2566 0.950 . S
C2578 C2577 1.398 . S
C2578 C2579 1.391 . S
C2579 H2567 0.950 . S
C2579 C2575 1.393 . S
C2579 C2578 1.391 . S
H2580 C2588 0.950 . S
H2581 C2593 0.950 . S
H2582 C2590 0.950 . S
H2583 C2592 0.950 . S
H2584 C2594 0.996 . S
H2585 C2596 0.950 . S
H2586 C2598 0.950 . S
H2587 C2599 0.950 . S
C2588 H2580 0.950 . S
C2588 C2589 1.364 1_556 S
C2588 C2590 1.391 . S
C2589 C2588 1.364 1_554 S
C2589 C2593 1.412 . S
C2590 H2582 0.950 . S
C2590 C2588 1.391 . S
C2590 C2591 1.400 . S
C2591 C2590 1.400 . S
C2591 C2592 1.398 1_556 S
C2591 C2597 1.491 1_565 S
C2592 H2583 0.950 . S
C2592 C2591 1.398 1_554 S
C2592 C2593 1.391 . S
C2593 H2581 0.950 . S
C2593 C2589 1.412 . S
C2593 C2592 1.391 . S
C2594 H2584 0.996 . S
C2594 C2595 1.338 1_554 S
C2594 C2596 1.404 . S
C2595 C2594 1.338 1_556 S
C2595 C2599 1.393 . S
C2596 H2585 0.950 . S
C2596 C2594 1.404 . S
C2596 C2597 1.400 1_554 S
C2597 C2591 1.491 1_545 S
C2597 C2596 1.400 1_556 S
C2597 C2598 1.398 . S
C2598 H2586 0.950 . S
C2598 C2597 1.398 . S
C2598 C2599 1.391 . S
C2599 H2587 0.950 . S
C2599 C2595 1.393 . S
C2599 C2598 1.391 . S
H2600 C2608 0.969 . S
H2601 C2613 0.950 . S
H2602 C2610 0.950 . S
H2603 C2612 0.964 . S
H2604 C2614 0.950 . S
H2605 C2616 0.962 . S
H2606 C2618 0.950 . S
H2607 C2619 0.950 . S
C2608 H2600 0.969 . S
C2608 C2609 1.369 1_556 S
C2608 C2610 1.410 . S
C2609 C2608 1.369 1_554 S
C2609 C2613 1.398 . S
C2610 H2602 0.950 . S
C2610 C2608 1.410 . S
C2610 C2611 1.400 . S
C2611 C2610 1.400 . S
C2611 C2612 1.385 1_556 S
C2611 C2617 1.491 1_455 S
C2612 H2603 0.964 . S
C2612 C2611 1.385 1_554 S
C2612 C2613 1.399 . S
C2613 H2601 0.950 . S
C2613 C2609 1.398 . S
C2613 C2612 1.399 . S
C2614 H2604 0.950 . S
C2614 C2615 1.386 . S
C2614 C2616 1.391 . S
C2615 C2614 1.386 . S
C2615 C2619 1.393 . S
C2616 H2605 0.962 . S
C2616 C2614 1.391 . S
C2616 C2617 1.400 . S
C2617 C2611 1.491 1_655 S
C2617 C2616 1.400 . S
C2617 C2618 1.398 . S
C2618 H2606 0.950 . S
C2618 C2617 1.398 . S
C2618 C2619 1.391 . S
C2619 H2607 0.950 . S
C2619 C2615 1.393 . S
C2619 C2618 1.391 . S
H2620 C2628 0.945 1_554 S
H2621 C2633 0.950 . S
H2622 C2630 0.965 . S
H2623 C2632 0.950 . S
H2624 C2634 0.950 . S
H2625 C2636 0.950 . S
H2626 C2638 0.950 . S
H2627 C2639 0.950 . S
C2628 H2620 0.945 1_556 S
C2628 C2629 1.392 . S
C2628 C2630 1.389 1_556 S
C2629 C2628 1.392 . S
C2629 C2633 1.393 . S
C2630 H2622 0.965 . S
C2630 C2628 1.389 1_554 S
C2630 C2631 1.389 1_554 S
C2631 C2630 1.389 1_556 S
C2631 C2632 1.398 . S
C2631 C2637 1.491 . S
C2632 H2623 0.950 . S
C2632 C2631 1.398 . S
C2632 C2633 1.391 . S
C2633 H2621 0.950 . S
C2633 C2629 1.393 . S
C2633 C2632 1.391 . S
C2634 H2624 0.950 . S
C2634 C2635 1.401 . S
C2634 C2636 1.391 . S
C2635 C2634 1.401 . S
C2635 C2639 1.382 1_556 S
C2636 H2625 0.950 . S
C2636 C2634 1.391 . S
C2636 C2637 1.400 . S
C2637 C2631 1.491 . S
C2637 C2636 1.400 . S
C2637 C2638 1.398 1_556 S
C2638 H2626 0.950 . S
C2638 C2637 1.398 1_554 S
C2638 C2639 1.391 . S
C2639 H2627 0.950 . S
C2639 C2635 1.382 1_554 S
C2639 C2638 1.391 . S
H2640 C2648 0.950 . S
H2641 C2653 0.950 . S
H2642 C2650 0.950 . S
H2643 C2652 0.950 . S
H2644 C2654 0.950 . S
H2645 C2656 0.950 . S
H2646 C2658 0.950 . S
H2647 C2659 0.950 . S
C2648 H2640 0.950 . S
C2648 C2649 1.386 . S
C2648 C2650 1.391 . S
C2649 C2648 1.386 . S
C2649 C2653 1.393 . S
C2650 H2642 0.950 . S
C2650 C2648 1.391 . S
C2650 C2651 1.400 . S
C2651 C2650 1.400 . S
C2651 C2652 1.398 . S
C2651 C2657 1.491 . S
C2652 H2643 0.950 . S
C2652 C2651 1.398 . S
C2652 C2653 1.391 . S
C2653 H2641 0.950 . S
C2653 C2649 1.393 . S
C2653 C2652 1.391 . S
C2654 H2644 0.950 . S
C2654 C2655 1.386 . S
C2654 C2656 1.391 1_565 S
C2655 C2654 1.386 . S
C2655 C2659 1.393 1_565 S
C2656 H2645 0.950 . S
C2656 C2654 1.391 1_545 S
C2656 C2657 1.400 . S
C2657 C2651 1.491 . S
C2657 C2656 1.400 . S
C2657 C2658 1.398 . S
C2658 H2646 0.950 . S
C2658 C2657 1.398 . S
C2658 C2659 1.391 . S
C2659 H2647 0.950 . S
C2659 C2655 1.393 1_545 S
C2659 C2658 1.391 . S
H2660 C2668 0.950 . S
H2661 C2673 0.950 . S
H2662 C2670 0.950 . S
H2663 C2672 0.950 . S
H2664 C2674 0.950 . S
H2665 C2676 0.951 1_455 S
H2666 C2678 0.950 . S
H2667 C2679 0.950 . S
C2668 H2660 0.950 . S
C2668 C2669 1.386 . S
C2668 C2670 1.391 . S
C2669 C2668 1.386 . S
C2669 C2673 1.393 . S
C2670 H2662 0.950 . S
C2670 C2668 1.391 . S
C2670 C2671 1.400 . S
C2671 C2670 1.400 . S
C2671 C2672 1.398 . S
C2671 C2677 1.491 . S
C2672 H2663 0.950 . S
C2672 C2671 1.398 . S
C2672 C2673 1.391 . S
C2673 H2661 0.950 . S
C2673 C2669 1.393 . S
C2673 C2672 1.391 . S
C2674 H2664 0.950 . S
C2674 C2675 1.386 . S
C2674 C2676 1.373 1_455 S
C2675 C2674 1.386 . S
C2675 C2679 1.393 1_455 S
C2676 H2665 0.951 1_655 S
C2676 C2674 1.373 1_655 S
C2676 C2677 1.417 . S
C2677 C2671 1.491 . S
C2677 C2676 1.417 . S
C2677 C2678 1.398 . S
C2678 H2666 0.950 . S
C2678 C2677 1.398 . S
C2678 C2679 1.391 . S
C2679 H2667 0.950 . S
C2679 C2675 1.393 1_655 S
C2679 C2678 1.391 . S
H2680 C2688 0.950 . S
H2681 C2693 0.950 . S
H2682 C2690 0.950 . S
H2683 C2692 0.950 . S
H2684 C2694 0.950 . S
H2685 C2696 0.950 . S
H2686 C2698 0.950 . S
H2687 C2699 0.950 . S
C2688 H2680 0.950 . S
C2688 C2689 1.386 . S
C2688 C2690 1.391 . S
C2689 C2688 1.386 . S
C2689 C2693 1.393 . S
C2690 H2682 0.950 . S
C2690 C2688 1.391 . S
C2690 C2691 1.400 . S
C2691 C2690 1.400 . S
C2691 C2692 1.398 . S
C2691 C2697 1.491 . S
C2692 H2683 0.950 . S
C2692 C2691 1.398 . S
C2692 C2693 1.391 . S
C2693 H2681 0.950 . S
C2693 C2689 1.393 . S
C2693 C2692 1.391 . S
C2694 H2684 0.950 . S
C2694 C2695 1.386 . S
C2694 C2696 1.391 . S
C2695 C2694 1.386 . S
C2695 C2699 1.393 . S
C2696 H2685 0.950 . S
C2696 C2694 1.391 . S
C2696 C2697 1.400 . S
C2697 C2691 1.491 . S
C2697 C2696 1.400 . S
C2697 C2698 1.398 . S
C2698 H2686 0.950 . S
C2698 C2697 1.398 . S
C2698 C2699 1.391 . S
C2699 H2687 0.950 . S
C2699 C2695 1.393 . S
C2699 C2698 1.391 . S
H2700 C2708 0.950 . S
H2701 C2713 0.950 . S
H2702 C2710 0.950 . S
H2703 C2712 0.950 . S
H2704 C2714 0.950 . S
H2705 C2716 0.950 . S
H2706 C2718 0.950 . S
H2707 C2719 0.950 . S
C2708 H2700 0.950 . S
C2708 C2709 1.386 . S
C2708 C2710 1.391 . S
C2709 C2708 1.386 . S
C2709 C2713 1.393 1_554 S
C2710 H2702 0.950 . S
C2710 C2708 1.391 . S
C2710 C2711 1.400 . S
C2711 C2710 1.400 . S
C2711 C2712 1.398 1_554 S
C2711 C2717 1.491 1_565 S
C2712 H2703 0.950 . S
C2712 C2711 1.398 1_556 S
C2712 C2713 1.391 . S
C2713 H2701 0.950 . S
C2713 C2709 1.393 1_556 S
C2713 C2712 1.391 . S
C2714 H2704 0.950 . S
C2714 C2715 1.364 1_556 S
C2714 C2716 1.391 . S
C2715 C2714 1.364 1_554 S
C2715 C2719 1.418 . S
C2716 H2705 0.950 . S
C2716 C2714 1.391 . S
C2716 C2717 1.400 1_556 S
C2717 C2711 1.491 1_545 S
C2717 C2716 1.400 1_554 S
C2717 C2718 1.398 . S
C2718 H2706 0.950 . S
C2718 C2717 1.398 . S
C2718 C2719 1.391 . S
C2719 H2707 0.950 . S
C2719 C2715 1.418 . S
C2719 C2718 1.391 . S
H2720 C2728 0.950 . S
H2721 C2733 0.950 . S
H2722 C2730 0.950 . S
H2723 C2732 0.950 . S
H2724 C2734 0.950 . S
H2725 C2736 0.950 . S
H2726 C2738 0.950 . S
H2727 C2739 0.950 . S
C2728 H2720 0.950 . S
C2728 C2729 1.380 1_554 S
C2728 C2730 1.391 . S
C2729 C2728 1.380 1_556 S
C2729 C2733 1.398 . S
C2730 H2722 0.950 . S
C2730 C2728 1.391 . S
C2730 C2731 1.400 . S
C2731 C2730 1.400 . S
C2731 C2732 1.398 1_554 S
C2731 C2737 1.491 1_655 S
C2732 H2723 0.950 . S
C2732 C2731 1.398 1_556 S
C2732 C2733 1.391 . S
C2733 H2721 0.950 . S
C2733 C2729 1.398 . S
C2733 C2732 1.391 . S
C2734 H2724 0.950 . S
C2734 C2735 1.386 1_556 S
C2734 C2736 1.391 . S
C2735 C2734 1.386 1_554 S
C2735 C2739 1.393 . S
C2736 H2725 0.950 . S
C2736 C2734 1.391 . S
C2736 C2737 1.400 1_556 S
C2737 C2731 1.491 1_455 S
C2737 C2736 1.400 1_554 S
C2737 C2738 1.398 . S
C2738 H2726 0.950 . S
C2738 C2737 1.398 . S
C2738 C2739 1.391 . S
C2739 H2727 0.950 . S
C2739 C2735 1.393 . S
C2739 C2738 1.391 . S
H2740 C2748 0.950 . S
H2741 C2753 0.950 . S
H2742 C2750 0.950 . S
H2743 C2752 0.950 . S
H2744 C2754 0.950 . S
H2745 C2756 0.950 . S
H2746 C2758 0.950 . S
H2747 C2759 0.950 . S
C2748 H2740 0.950 . S
C2748 C2749 1.386 1_556 S
C2748 C2750 1.391 . S
C2749 C2748 1.386 1_554 S
C2749 C2753 1.393 . S
C2750 H2742 0.950 . S
C2750 C2748 1.391 . S
C2750 C2751 1.400 1_556 S
C2751 C2750 1.400 1_554 S
C2751 C2752 1.398 . S
C2751 C2757 1.491 . S
C2752 H2743 0.950 . S
C2752 C2751 1.398 . S
C2752 C2753 1.391 . S
C2753 H2741 0.950 . S
C2753 C2749 1.393 . S
C2753 C2752 1.391 . S
C2754 H2744 0.950 . S
C2754 C2755 1.387 . S
C2754 C2756 1.391 . S
C2755 C2754 1.387 . S
C2755 C2759 1.392 1_554 S
C2756 H2745 0.950 . S
C2756 C2754 1.391 . S
C2756 C2757 1.400 . S
C2757 C2751 1.491 . S
C2757 C2756 1.400 . S
C2757 C2758 1.398 1_554 S
C2758 H2746 0.950 . S
C2758 C2757 1.398 1_556 S
C2758 C2759 1.391 . S
C2759 H2747 0.950 . S
C2759 C2755 1.392 1_556 S
C2759 C2758 1.391 . S
H2760 C2768 0.950 . S
H2761 C2773 0.950 . S
H2762 C2770 0.950 . S
H2763 C2772 0.950 . S
H2764 C2774 0.950 . S
H2765 C2776 0.950 . S
H2766 C2778 0.950 . S
H2767 C2779 0.950 . S
C2768 H2760 0.950 . S
C2768 C2769 1.386 . S
C2768 C2770 1.391 . S
C2769 C2768 1.386 . S
C2769 C2773 1.393 . S
C2770 H2762 0.950 . S
C2770 C2768 1.391 . S
C2770 C2771 1.400 1_455 S
C2771 C2770 1.400 1_655 S
C2771 C2772 1.398 1_655 S
C2771 C2777 1.491 . S
C2772 H2763 0.950 . S
C2772 C2771 1.398 1_455 S
C2772 C2773 1.391 . S
C2773 H2761 0.950 . S
C2773 C2769 1.393 . S
C2773 C2772 1.391 . S
C2774 H2764 0.950 . S
C2774 C2775 1.386 . S
C2774 C2776 1.391 . S
C2775 C2774 1.386 . S
C2775 C2779 1.393 . S
C2776 H2765 0.950 . S
C2776 C2774 1.391 . S
C2776 C2777 1.400 . S
C2777 C2771 1.491 . S
C2777 C2776 1.400 . S
C2777 C2778 1.398 . S
C2778 H2766 0.950 . S
C2778 C2777 1.398 . S
C2778 C2779 1.391 . S
C2779 H2767 0.950 . S
C2779 C2775 1.393 . S
C2779 C2778 1.391 . S
H2780 C2788 0.950 . S
H2781 C2793 0.950 . S
H2782 C2790 0.950 . S
H2783 C2792 0.950 . S
H2784 C2794 0.950 . S
H2785 C2796 0.950 . S
H2786 C2798 0.950 . S
H2787 C2799 0.950 . S
C2788 H2780 0.950 . S
C2788 C2789 1.386 . S
C2788 C2790 1.391 . S
C2789 C2788 1.386 . S
C2789 C2793 1.393 . S
C2790 H2782 0.950 . S
C2790 C2788 1.391 . S
C2790 C2791 1.400 . S
C2791 C2790 1.400 . S
C2791 C2792 1.398 . S
C2791 C2797 1.491 . S
C2792 H2783 0.950 . S
C2792 C2791 1.398 . S
C2792 C2793 1.391 . S
C2793 H2781 0.950 . S
C2793 C2789 1.393 . S
C2793 C2792 1.391 . S
C2794 H2784 0.950 . S
C2794 C2795 1.386 . S
C2794 C2796 1.391 . S
C2795 C2794 1.386 . S
C2795 C2799 1.393 . S
C2796 H2785 0.950 . S
C2796 C2794 1.391 . S
C2796 C2797 1.400 . S
C2797 C2791 1.491 . S
C2797 C2796 1.400 . S
C2797 C2798 1.398 . S
C2798 H2786 0.950 . S
C2798 C2797 1.398 . S
C2798 C2799 1.391 . S
C2799 H2787 0.950 . S
C2799 C2795 1.393 . S
C2799 C2798 1.391 . S
H2800 C2808 0.950 . S
H2801 C2813 0.950 . S
H2802 C2810 0.950 . S
H2803 C2812 0.950 . S
H2804 C2814 0.950 . S
H2805 C2816 0.950 . S
H2806 C2818 0.950 . S
H2807 C2819 0.950 . S
C2808 H2800 0.950 . S
C2808 C2809 1.386 . S
C2808 C2810 1.391 . S
C2809 C2808 1.386 . S
C2809 C2813 1.393 . S
C2810 H2802 0.950 . S
C2810 C2808 1.391 . S
C2810 C2811 1.400 1_565 S
C2811 C2810 1.400 1_545 S
C2811 C2812 1.398 1_545 S
C2811 C2817 1.491 . S
C2812 H2803 0.950 . S
C2812 C2811 1.398 1_565 S
C2812 C2813 1.391 . S
C2813 H2801 0.950 . S
C2813 C2809 1.393 . S
C2813 C2812 1.391 . S
C2814 H2804 0.950 . S
C2814 C2815 1.386 . S
C2814 C2816 1.391 . S
C2815 C2814 1.386 . S
C2815 C2819 1.393 . S
C2816 H2805 0.950 . S
C2816 C2814 1.391 . S
C2816 C2817 1.400 . S
C2817 C2811 1.491 . S
C2817 C2816 1.400 . S
C2817 C2818 1.398 . S
C2818 H2806 0.950 . S
C2818 C2817 1.398 . S
C2818 C2819 1.391 . S
C2819 H2807 0.950 . S
C2819 C2815 1.393 . S
C2819 C2818 1.391 . S
H2820 C2828 0.950 . S
H2821 C2833 0.950 1_455 S
H2822 C2830 0.950 . S
H2823 C2832 0.950 . S
H2824 C2834 0.950 . S
H2825 C2836 0.950 . S
H2826 C2838 0.950 . S
H2827 C2839 0.950 . S
C2828 H2820 0.950 . S
C2828 C2829 1.386 1_655 S
C2828 C2830 1.391 . S
C2829 C2828 1.386 1_455 S
C2829 C2833 1.393 1_455 S
C2830 H2822 0.950 . S
C2830 C2828 1.391 . S
C2830 C2831 1.400 . S
C2831 C2830 1.400 . S
C2831 C2832 1.398 . S
C2831 C2837 1.491 . S
C2832 H2823 0.950 . S
C2832 C2831 1.398 . S
C2832 C2833 1.391 . S
C2833 H2821 0.950 1_655 S
C2833 C2829 1.393 1_655 S
C2833 C2832 1.391 . S
C2834 H2824 0.950 . S
C2834 C2835 1.386 . S
C2834 C2836 1.391 . S
C2835 C2834 1.386 . S
C2835 C2839 1.393 . S
C2836 H2825 0.950 . S
C2836 C2834 1.391 . S
C2836 C2837 1.400 . S
C2837 C2831 1.491 . S
C2837 C2836 1.400 . S
C2837 C2838 1.398 . S
C2838 H2826 0.950 . S
C2838 C2837 1.398 . S
C2838 C2839 1.391 . S
C2839 H2827 0.950 . S
C2839 C2835 1.393 . S
C2839 C2838 1.391 . S
H2840 C2848 0.950 . S
H2841 C2853 0.950 . S
H2842 C2850 0.950 . S
H2843 C2852 0.950 . S
H2844 C2854 0.950 . S
H2845 C2856 0.950 . S
H2846 C2858 0.950 . S
H2847 C2859 0.950 . S
C2848 H2840 0.950 . S
C2848 C2849 1.386 . S
C2848 C2850 1.391 . S
C2849 C2848 1.386 . S
C2849 C2853 1.393 . S
C2850 H2842 0.950 . S
C2850 C2848 1.391 . S
C2850 C2851 1.400 . S
C2851 C2850 1.400 . S
C2851 C2852 1.398 . S
C2851 C2857 1.491 . S
C2852 H2843 0.950 . S
C2852 C2851 1.398 . S
C2852 C2853 1.391 . S
C2853 H2841 0.950 . S
C2853 C2849 1.393 . S
C2853 C2852 1.391 . S
C2854 H2844 0.950 . S
C2854 C2855 1.386 . S
C2854 C2856 1.391 . S
C2855 C2854 1.386 . S
C2855 C2859 1.393 . S
C2856 H2845 0.950 . S
C2856 C2854 1.391 . S
C2856 C2857 1.400 . S
C2857 C2851 1.491 . S
C2857 C2856 1.400 . S
C2857 C2858 1.398 . S
C2858 H2846 0.950 . S
C2858 C2857 1.398 . S
C2858 C2859 1.391 . S
C2859 H2847 0.950 . S
C2859 C2855 1.393 . S
C2859 C2858 1.391 . S
H2860 C2868 0.950 . S
H2861 C2873 0.950 . S
H2862 C2870 0.950 . S
H2863 C2872 0.950 . S
H2864 C2874 0.950 . S
H2865 C2876 0.950 . S
H2866 C2878 0.950 . S
H2867 C2879 0.950 . S
C2868 H2860 0.950 . S
C2868 C2869 1.386 . S
C2868 C2870 1.391 . S
C2869 C2868 1.386 . S
C2869 C2873 1.393 . S
C2870 H2862 0.950 . S
C2870 C2868 1.391 . S
C2870 C2871 1.400 . S
C2871 C2870 1.400 . S
C2871 C2872 1.398 . S
C2871 C2877 1.491 . S
C2872 H2863 0.950 . S
C2872 C2871 1.398 . S
C2872 C2873 1.391 . S
C2873 H2861 0.950 . S
C2873 C2869 1.393 . S
C2873 C2872 1.391 . S
C2874 H2864 0.950 . S
C2874 C2875 1.386 1_545 S
C2874 C2876 1.391 . S
C2875 C2874 1.386 1_565 S
C2875 C2879 1.393 . S
C2876 H2865 0.950 . S
C2876 C2874 1.391 . S
C2876 C2877 1.400 . S
C2877 C2871 1.491 . S
C2877 C2876 1.400 . S
C2877 C2878 1.398 . S
C2878 H2866 0.950 . S
C2878 C2877 1.398 . S
C2878 C2879 1.391 1_545 S
C2879 H2867 0.950 . S
C2879 C2875 1.393 . S
C2879 C2878 1.391 1_565 S
H2880 C2888 0.950 . S
H2881 C2893 0.950 . S
H2882 C2890 0.950 . S
H2883 C2892 0.950 . S
H2884 C2894 0.950 . S
H2885 C2896 0.950 . S
H2886 C2898 0.950 . S
H2887 C2899 0.950 . S
C2888 H2880 0.950 . S
C2888 C2889 1.386 . S
C2888 C2890 1.391 . S
C2889 C2888 1.386 . S
C2889 C2893 1.393 . S
C2890 H2882 0.950 . S
C2890 C2888 1.391 . S
C2890 C2891 1.400 . S
C2891 C2890 1.400 . S
C2891 C2892 1.398 . S
C2891 C2897 1.491 . S
C2892 H2883 0.950 . S
C2892 C2891 1.398 . S
C2892 C2893 1.391 . S
C2893 H2881 0.950 . S
C2893 C2889 1.393 . S
C2893 C2892 1.391 . S
C2894 H2884 0.950 . S
C2894 C2895 1.386 . S
C2894 C2896 1.391 . S
C2895 C2894 1.386 . S
C2895 C2899 1.393 . S
C2896 H2885 0.950 . S
C2896 C2894 1.391 . S
C2896 C2897 1.400 . S
C2897 C2891 1.491 . S
C2897 C2896 1.400 . S
C2897 C2898 1.398 . S
C2898 H2886 0.950 . S
C2898 C2897 1.398 . S
C2898 C2899 1.391 . S
C2899 H2887 0.950 . S
C2899 C2895 1.393 . S
C2899 C2898 1.391 . S
H2900 C2908 0.950 . S
H2901 C2913 0.950 . S
H2902 C2910 0.950 . S
H2903 C2912 0.950 . S
H2904 C2914 0.950 . S
H2905 C2916 0.950 . S
H2906 C2918 0.950 . S
H2907 C2919 0.950 . S
C2908 H2900 0.950 . S
C2908 C2909 1.386 . S
C2908 C2910 1.391 . S
C2909 C2908 1.386 . S
C2909 C2913 1.393 . S
C2910 H2902 0.950 . S
C2910 C2908 1.391 . S
C2910 C2911 1.400 . S
C2911 C2910 1.400 . S
C2911 C2912 1.398 . S
C2911 C2917 1.491 . S
C2912 H2903 0.950 . S
C2912 C2911 1.398 . S
C2912 C2913 1.391 . S
C2913 H2901 0.950 . S
C2913 C2909 1.393 . S
C2913 C2912 1.391 . S
C2914 H2904 0.950 . S
C2914 C2915 1.386 . S
C2914 C2916 1.391 . S
C2915 C2914 1.386 . S
C2915 C2919 1.393 . S
C2916 H2905 0.950 . S
C2916 C2914 1.391 . S
C2916 C2917 1.400 . S
C2917 C2911 1.491 . S
C2917 C2916 1.400 . S
C2917 C2918 1.398 . S
C2918 H2906 0.950 . S
C2918 C2917 1.398 . S
C2918 C2919 1.391 . S
C2919 H2907 0.950 . S
C2919 C2915 1.393 . S
C2919 C2918 1.391 . S
H2920 C2928 0.950 . S
H2921 C2933 0.950 . S
H2922 C2930 0.950 . S
H2923 C2932 0.950 . S
H2924 C2934 0.950 . S
H2925 C2936 0.950 . S
H2926 C2938 0.950 . S
H2927 C2939 0.950 . S
C2928 H2920 0.950 . S
C2928 C2929 1.386 . S
C2928 C2930 1.391 . S
C2929 C2928 1.386 . S
C2929 C2933 1.393 . S
C2930 H2922 0.950 . S
C2930 C2928 1.391 . S
C2930 C2931 1.400 . S
C2931 C2930 1.400 . S
C2931 C2932 1.398 . S
C2931 C2937 1.491 . S
C2932 H2923 0.950 . S
C2932 C2931 1.398 . S
C2932 C2933 1.391 . S
C2933 H2921 0.950 . S
C2933 C2929 1.393 . S
C2933 C2932 1.391 . S
C2934 H2924 0.950 . S
C2934 C2935 1.386 . S
C2934 C2936 1.391 . S
C2935 C2934 1.386 . S
C2935 C2939 1.393 . S
C2936 H2925 0.950 . S
C2936 C2934 1.391 . S
C2936 C2937 1.400 . S
C2937 C2931 1.491 . S
C2937 C2936 1.400 . S
C2937 C2938 1.398 . S
C2938 H2926 0.950 . S
C2938 C2937 1.398 . S
C2938 C2939 1.391 . S
C2939 H2927 0.950 . S
C2939 C2935 1.393 . S
C2939 C2938 1.391 . S
H2940 C2948 0.950 . S
H2941 C2953 0.950 . S
H2942 C2950 0.950 . S
H2943 C2952 0.950 . S
H2944 C2954 0.950 . S
H2945 C2956 0.950 . S
H2946 C2958 0.950 . S
H2947 C2959 0.950 . S
C2948 H2940 0.950 . S
C2948 C2949 1.386 . S
C2948 C2950 1.391 . S
C2949 C2948 1.386 . S
C2949 C2953 1.393 . S
C2950 H2942 0.950 . S
C2950 C2948 1.391 . S
C2950 C2951 1.400 . S
C2951 C2950 1.400 . S
C2951 C2952 1.398 . S
C2951 C2957 1.491 . S
C2952 H2943 0.950 . S
C2952 C2951 1.398 . S
C2952 C2953 1.391 . S
C2953 H2941 0.950 . S
C2953 C2949 1.393 . S
C2953 C2952 1.391 . S
C2954 H2944 0.950 . S
C2954 C2955 1.386 . S
C2954 C2956 1.391 . S
C2955 C2954 1.386 . S
C2955 C2959 1.393 . S
C2956 H2945 0.950 . S
C2956 C2954 1.391 . S
C2956 C2957 1.400 . S
C2957 C2951 1.491 . S
C2957 C2956 1.400 . S
C2957 C2958 1.398 . S
C2958 H2946 0.950 . S
C2958 C2957 1.398 . S
C2958 C2959 1.391 . S
C2959 H2947 0.950 . S
C2959 C2955 1.393 . S
C2959 C2958 1.391 . S
H2960 C2968 0.950 . S
H2961 C2973 0.950 . S
H2962 C2970 0.950 . S
H2963 C2972 0.950 . S
H2964 C2974 0.950 . S
H2965 C2976 0.950 . S
H2966 C2978 0.950 . S
H2967 C2979 0.950 . S
C2968 H2960 0.950 . S
C2968 C2969 1.386 . S
C2968 C2970 1.391 . S
C2969 C2968 1.386 . S
C2969 C2973 1.393 . S
C2970 H2962 0.950 . S
C2970 C2968 1.391 . S
C2970 C2971 1.400 . S
C2971 C2970 1.400 . S
C2971 C2972 1.398 . S
C2971 C2977 1.491 . S
C2972 H2963 0.950 . S
C2972 C2971 1.398 . S
C2972 C2973 1.391 . S
C2973 H2961 0.950 . S
C2973 C2969 1.393 . S
C2973 C2972 1.391 . S
C2974 H2964 0.950 . S
C2974 C2975 1.386 . S
C2974 C2976 1.391 . S
C2975 C2974 1.386 . S
C2975 C2979 1.393 . S
C2976 H2965 0.950 . S
C2976 C2974 1.391 . S
C2976 C2977 1.400 . S
C2977 C2971 1.491 . S
C2977 C2976 1.400 . S
C2977 C2978 1.398 . S
C2978 H2966 0.950 . S
C2978 C2977 1.398 . S
C2978 C2979 1.391 . S
C2979 H2967 0.950 . S
C2979 C2975 1.393 . S
C2979 C2978 1.391 . S
H2980 C2988 0.950 . S
H2981 C2993 0.950 . S
H2982 C2990 0.950 . S
H2983 C2992 0.950 . S
H2984 C2994 0.950 . S
H2985 C2996 0.950 . S
H2986 C2998 0.950 . S
H2987 C2999 0.950 . S
C2988 H2980 0.950 . S
C2988 C2989 1.386 . S
C2988 C2990 1.391 . S
C2989 C2988 1.386 . S
C2989 C2993 1.393 . S
C2990 H2982 0.950 . S
C2990 C2988 1.391 . S
C2990 C2991 1.400 . S
C2991 C2990 1.400 . S
C2991 C2992 1.398 . S
C2991 C2997 1.491 . S
C2992 H2983 0.950 . S
C2992 C2991 1.398 . S
C2992 C2993 1.391 . S
C2993 H2981 0.950 . S
C2993 C2989 1.393 . S
C2993 C2992 1.391 . S
C2994 H2984 0.950 . S
C2994 C2995 1.386 . S
C2994 C2996 1.391 . S
C2995 C2994 1.386 . S
C2995 C2999 1.393 . S
C2996 H2985 0.950 . S
C2996 C2994 1.391 . S
C2996 C2997 1.400 . S
C2997 C2991 1.491 . S
C2997 C2996 1.400 . S
C2997 C2998 1.398 . S
C2998 H2986 0.950 . S
C2998 C2997 1.398 . S
C2998 C2999 1.391 . S
C2999 H2987 0.950 . S
C2999 C2995 1.393 . S
C2999 C2998 1.391 . S
H3000 C3008 0.950 . S
H3001 C3013 0.950 . S
H3002 C3010 0.950 . S
H3003 C3012 0.950 . S
H3004 C3014 0.950 . S
H3005 C3016 0.950 . S
H3006 C3018 0.950 . S
H3007 C3019 0.950 . S
C3008 H3000 0.950 . S
C3008 C3009 1.386 . S
C3008 C3010 1.391 . S
C3009 C3008 1.386 . S
C3009 C3013 1.393 . S
C3010 H3002 0.950 . S
C3010 C3008 1.391 . S
C3010 C3011 1.400 . S
C3011 C3010 1.400 . S
C3011 C3012 1.398 . S
C3011 C3017 1.491 . S
C3012 H3003 0.950 . S
C3012 C3011 1.398 . S
C3012 C3013 1.391 . S
C3013 H3001 0.950 . S
C3013 C3009 1.393 . S
C3013 C3012 1.391 . S
C3014 H3004 0.950 . S
C3014 C3015 1.386 . S
C3014 C3016 1.391 . S
C3015 C3014 1.386 . S
C3015 C3019 1.393 . S
C3016 H3005 0.950 . S
C3016 C3014 1.391 . S
C3016 C3017 1.400 . S
C3017 C3011 1.491 . S
C3017 C3016 1.400 . S
C3017 C3018 1.398 . S
C3018 H3006 0.950 . S
C3018 C3017 1.398 . S
C3018 C3019 1.391 . S
C3019 H3007 0.950 . S
C3019 C3015 1.393 . S
C3019 C3018 1.391 . S
H3020 C3028 0.950 . S
H3021 C3033 0.950 . S
H3022 C3030 0.950 . S
H3023 C3032 0.950 . S
H3024 C3034 0.950 . S
H3025 C3036 0.950 . S
H3026 C3038 0.950 . S
H3027 C3039 0.950 . S
C3028 H3020 0.950 . S
C3028 C3029 1.386 . S
C3028 C3030 1.391 . S
C3029 C3028 1.386 . S
C3029 C3033 1.393 . S
C3030 H3022 0.950 . S
C3030 C3028 1.391 . S
C3030 C3031 1.400 . S
C3031 C3030 1.400 . S
C3031 C3032 1.398 . S
C3031 C3037 1.491 . S
C3032 H3023 0.950 . S
C3032 C3031 1.398 . S
C3032 C3033 1.391 . S
C3033 H3021 0.950 . S
C3033 C3029 1.393 . S
C3033 C3032 1.391 . S
C3034 H3024 0.950 . S
C3034 C3035 1.386 . S
C3034 C3036 1.391 . S
C3035 C3034 1.386 . S
C3035 C3039 1.393 . S
C3036 H3025 0.950 . S
C3036 C3034 1.391 . S
C3036 C3037 1.400 . S
C3037 C3031 1.491 . S
C3037 C3036 1.400 . S
C3037 C3038 1.398 . S
C3038 H3026 0.950 . S
C3038 C3037 1.398 . S
C3038 C3039 1.391 . S
C3039 H3027 0.950 . S
C3039 C3035 1.393 . S
C3039 C3038 1.391 . S
H3040 C3048 0.950 . S
H3041 C3053 0.950 . S
H3042 C3050 0.950 . S
H3043 C3052 0.950 . S
H3044 C3054 0.950 . S
H3045 C3056 0.950 . S
H3046 C3058 0.950 . S
H3047 C3059 0.950 . S
C3048 H3040 0.950 . S
C3048 C3049 1.386 . S
C3048 C3050 1.391 . S
C3049 C3048 1.386 . S
C3049 C3053 1.393 . S
C3050 H3042 0.950 . S
C3050 C3048 1.391 . S
C3050 C3051 1.400 . S
C3051 C3050 1.400 . S
C3051 C3052 1.398 . S
C3051 C3057 1.491 . S
C3052 H3043 0.950 . S
C3052 C3051 1.398 . S
C3052 C3053 1.391 . S
C3053 H3041 0.950 . S
C3053 C3049 1.393 . S
C3053 C3052 1.391 . S
C3054 H3044 0.950 . S
C3054 C3055 1.386 . S
C3054 C3056 1.391 . S
C3055 C3054 1.386 . S
C3055 C3059 1.393 . S
C3056 H3045 0.950 . S
C3056 C3054 1.391 . S
C3056 C3057 1.400 . S
C3057 C3051 1.491 . S
C3057 C3056 1.400 . S
C3057 C3058 1.398 . S
C3058 H3046 0.950 . S
C3058 C3057 1.398 . S
C3058 C3059 1.391 . S
C3059 H3047 0.950 . S
C3059 C3055 1.393 . S
C3059 C3058 1.391 . S
H3060 C3068 0.950 . S
H3061 C3073 0.950 . S
H3062 C3070 0.950 . S
H3063 C3072 0.950 . S
H3064 C3074 0.950 . S
H3065 C3076 0.950 . S
H3066 C3078 0.950 . S
H3067 C3079 0.950 . S
C3068 H3060 0.950 . S
C3068 C3069 1.386 . S
C3068 C3070 1.391 . S
C3069 C3068 1.386 . S
C3069 C3073 1.393 . S
C3070 H3062 0.950 . S
C3070 C3068 1.391 . S
C3070 C3071 1.400 . S
C3071 C3070 1.400 . S
C3071 C3072 1.398 . S
C3071 C3077 1.491 . S
C3072 H3063 0.950 . S
C3072 C3071 1.398 . S
C3072 C3073 1.391 . S
C3073 H3061 0.950 . S
C3073 C3069 1.393 . S
C3073 C3072 1.391 . S
C3074 H3064 0.950 . S
C3074 C3075 1.386 . S
C3074 C3076 1.391 . S
C3075 C3074 1.386 . S
C3075 C3079 1.393 . S
C3076 H3065 0.950 . S
C3076 C3074 1.391 . S
C3076 C3077 1.400 . S
C3077 C3071 1.491 . S
C3077 C3076 1.400 . S
C3077 C3078 1.398 . S
C3078 H3066 0.950 . S
C3078 C3077 1.398 . S
C3078 C3079 1.391 . S
C3079 H3067 0.950 . S
C3079 C3075 1.393 . S
C3079 C3078 1.391 . S
H3080 C3088 0.950 . S
H3081 C3093 0.950 . S
H3082 C3090 0.950 . S
H3083 C3092 0.950 . S
H3084 C3094 0.950 . S
H3085 C3096 0.950 . S
H3086 C3098 0.950 . S
H3087 C3099 0.950 . S
C3088 H3080 0.950 . S
C3088 C3089 1.386 . S
C3088 C3090 1.391 . S
C3089 C3088 1.386 . S
C3089 C3093 1.393 . S
C3090 H3082 0.950 . S
C3090 C3088 1.391 . S
C3090 C3091 1.400 . S
C3091 C3090 1.400 . S
C3091 C3092 1.398 . S
C3091 C3097 1.491 . S
C3092 H3083 0.950 . S
C3092 C3091 1.398 . S
C3092 C3093 1.391 . S
C3093 H3081 0.950 . S
C3093 C3089 1.393 . S
C3093 C3092 1.391 . S
C3094 H3084 0.950 . S
C3094 C3095 1.386 . S
C3094 C3096 1.391 . S
C3095 C3094 1.386 . S
C3095 C3099 1.393 . S
C3096 H3085 0.950 . S
C3096 C3094 1.391 . S
C3096 C3097 1.400 . S
C3097 C3091 1.491 . S
C3097 C3096 1.400 . S
C3097 C3098 1.398 . S
C3098 H3086 0.950 . S
C3098 C3097 1.398 . S
C3098 C3099 1.391 . S
C3099 H3087 0.950 . S
C3099 C3095 1.393 . S
C3099 C3098 1.391 . S
H3100 C3108 0.950 . S
H3101 C3113 0.950 . S
H3102 C3110 0.950 . S
H3103 C3112 0.950 . S
H3104 C3114 0.950 . S
H3105 C3116 0.950 . S
H3106 C3118 0.950 . S
H3107 C3119 0.950 . S
C3108 H3100 0.950 . S
C3108 C3109 1.386 . S
C3108 C3110 1.391 . S
C3109 C3108 1.386 . S
C3109 C3113 1.393 . S
C3110 H3102 0.950 . S
C3110 C3108 1.391 . S
C3110 C3111 1.400 . S
C3111 C3110 1.400 . S
C3111 C3112 1.398 . S
C3111 C3117 1.491 . S
C3112 H3103 0.950 . S
C3112 C3111 1.398 . S
C3112 C3113 1.391 . S
C3113 H3101 0.950 . S
C3113 C3109 1.393 . S
C3113 C3112 1.391 . S
C3114 H3104 0.950 . S
C3114 C3115 1.386 . S
C3114 C3116 1.391 . S
C3115 C3114 1.386 . S
C3115 C3119 1.393 . S
C3116 H3105 0.950 . S
C3116 C3114 1.391 . S
C3116 C3117 1.400 . S
C3117 C3111 1.491 . S
C3117 C3116 1.400 . S
C3117 C3118 1.398 . S
C3118 H3106 0.950 . S
C3118 C3117 1.398 . S
C3118 C3119 1.391 . S
C3119 H3107 0.950 . S
C3119 C3115 1.393 . S
C3119 C3118 1.391 . S
H3120 C3128 0.950 . S
H3121 C3133 0.950 . S
H3122 C3130 0.950 . S
H3123 C3132 0.950 . S
H3124 C3134 0.950 . S
H3125 C3136 0.950 . S
H3126 C3138 0.950 . S
H3127 C3139 0.950 . S
C3128 H3120 0.950 . S
C3128 C3129 1.386 . S
C3128 C3130 1.391 . S
C3129 C3128 1.386 . S
C3129 C3133 1.393 1_655 S
C3130 H3122 0.950 . S
C3130 C3128 1.391 . S
C3130 C3131 1.400 1_655 S
C3131 C3130 1.400 1_455 S
C3131 C3132 1.398 . S
C3131 C3137 1.491 . S
C3132 H3123 0.950 . S
C3132 C3131 1.398 . S
C3132 C3133 1.391 . S
C3133 H3121 0.950 . S
C3133 C3129 1.393 1_455 S
C3133 C3132 1.391 . S
C3134 H3124 0.950 . S
C3134 C3135 1.386 . S
C3134 C3136 1.391 . S
C3135 C3134 1.386 . S
C3135 C3139 1.393 1_455 S
C3136 H3125 0.950 . S
C3136 C3134 1.391 . S
C3136 C3137 1.400 . S
C3137 C3131 1.491 . S
C3137 C3136 1.400 . S
C3137 C3138 1.398 1_455 S
C3138 H3126 0.950 . S
C3138 C3137 1.398 1_655 S
C3138 C3139 1.391 . S
C3139 H3127 0.950 . S
C3139 C3135 1.393 1_655 S
C3139 C3138 1.391 . S
H3140 C3148 0.950 . S
H3141 C3153 0.950 . S
H3142 C3150 0.950 . S
H3143 C3152 0.950 . S
H3144 C3154 0.950 . S
H3145 C3156 0.950 . S
H3146 C3158 0.950 . S
H3147 C3159 0.950 . S
C3148 H3140 0.950 . S
C3148 C3149 1.386 . S
C3148 C3150 1.391 . S
C3149 C3148 1.386 . S
C3149 C3153 1.393 . S
C3150 H3142 0.950 . S
C3150 C3148 1.391 . S
C3150 C3151 1.400 . S
C3151 C3150 1.400 . S
C3151 C3152 1.398 . S
C3151 C3157 1.491 . S
C3152 H3143 0.950 . S
C3152 C3151 1.398 . S
C3152 C3153 1.391 . S
C3153 H3141 0.950 . S
C3153 C3149 1.393 . S
C3153 C3152 1.391 . S
C3154 H3144 0.950 . S
C3154 C3155 1.386 . S
C3154 C3156 1.391 . S
C3155 C3154 1.386 . S
C3155 C3159 1.393 . S
C3156 H3145 0.950 . S
C3156 C3154 1.391 . S
C3156 C3157 1.400 . S
C3157 C3151 1.491 . S
C3157 C3156 1.400 . S
C3157 C3158 1.398 . S
C3158 H3146 0.950 . S
C3158 C3157 1.398 . S
C3158 C3159 1.391 . S
C3159 H3147 0.950 . S
C3159 C3155 1.393 . S
C3159 C3158 1.391 . S
H3160 C3168 0.950 . S
H3161 C3173 0.950 . S
H3162 C3170 0.950 . S
H3163 C3172 0.950 . S
H3164 C3174 0.950 . S
H3165 C3176 0.950 . S
H3166 C3178 0.950 . S
H3167 C3179 0.950 . S
C3168 H3160 0.950 . S
C3168 C3169 1.386 1_565 S
C3168 C3170 1.391 . S
C3169 C3168 1.386 1_545 S
C3169 C3173 1.393 . S
C3170 H3162 0.950 . S
C3170 C3168 1.391 . S
C3170 C3171 1.400 . S
C3171 C3170 1.400 . S
C3171 C3172 1.398 1_565 S
C3171 C3177 1.491 . S
C3172 H3163 0.950 . S
C3172 C3171 1.398 1_545 S
C3172 C3173 1.391 . S
C3173 H3161 0.950 . S
C3173 C3169 1.393 . S
C3173 C3172 1.391 . S
C3174 H3164 0.950 . S
C3174 C3175 1.386 1_545 S
C3174 C3176 1.391 . S
C3175 C3174 1.386 1_565 S
C3175 C3179 1.393 . S
C3176 H3165 0.950 . S
C3176 C3174 1.391 . S
C3176 C3177 1.400 1_545 S
C3177 C3171 1.491 . S
C3177 C3176 1.400 1_565 S
C3177 C3178 1.398 . S
C3178 H3166 0.950 . S
C3178 C3177 1.398 . S
C3178 C3179 1.391 . S
C3179 H3167 0.950 . S
C3179 C3175 1.393 . S
C3179 C3178 1.391 . S
H3180 C3188 0.950 . S
H3181 C3193 0.932 1_565 S
H3182 C3190 0.950 . S
H3183 C3192 0.950 . S
H3184 C3194 0.950 . S
H3185 C3196 0.950 . S
H3186 C3198 0.950 . S
H3187 C3199 0.950 . S
C3188 H3180 0.950 . S
C3188 C3189 1.386 . S
C3188 C3190 1.391 . S
C3189 C3188 1.386 . S
C3189 C3193 1.413 . S
C3190 H3182 0.950 . S
C3190 C3188 1.391 . S
C3190 C3191 1.400 . S
C3191 C3190 1.400 . S
C3191 C3192 1.398 1_545 S
C3191 C3197 1.491 . S
C3192 H3183 0.950 . S
C3192 C3191 1.398 1_565 S
C3192 C3193 1.389 1_565 S
C3193 H3181 0.932 1_545 S
C3193 C3189 1.413 . S
C3193 C3192 1.389 1_545 S
C3194 H3184 0.950 . S
C3194 C3195 1.386 . S
C3194 C3196 1.391 . S
C3195 C3194 1.386 . S
C3195 C3199 1.393 1_565 S
C3196 H3185 0.950 . S
C3196 C3194 1.391 . S
C3196 C3197 1.400 1_565 S
C3197 C3191 1.491 . S
C3197 C3196 1.400 1_545 S
C3197 C3198 1.398 . S
C3198 H3186 0.950 . S
C3198 C3197 1.398 . S
C3198 C3199 1.391 . S
C3199 H3187 0.950 . S
C3199 C3195 1.393 1_545 S
C3199 C3198 1.391 . S
H3200 C3208 0.950 . S
H3201 C3213 0.950 . S
H3202 C3210 0.950 . S
H3203 C3212 0.950 . S
H3204 C3214 0.950 . S
H3205 C3216 0.950 . S
H3206 C3218 0.950 . S
H3207 C3219 0.950 . S
C3208 H3200 0.950 . S
C3208 C3209 1.386 1_655 S
C3208 C3210 1.391 . S
C3209 C3208 1.386 1_455 S
C3209 C3213 1.393 . S
C3210 H3202 0.950 . S
C3210 C3208 1.391 . S
C3210 C3211 1.400 . S
C3211 C3210 1.400 . S
C3211 C3212 1.398 1_655 S
C3211 C3217 1.491 . S
C3212 H3203 0.950 . S
C3212 C3211 1.398 1_455 S
C3212 C3213 1.391 . S
C3213 H3201 0.950 . S
C3213 C3209 1.393 . S
C3213 C3212 1.391 . S
C3214 H3204 0.950 . S
C3214 C3215 1.386 1_455 S
C3214 C3216 1.391 . S
C3215 C3214 1.386 1_655 S
C3215 C3219 1.393 . S
C3216 H3205 0.950 . S
C3216 C3214 1.391 . S
C3216 C3217 1.400 1_455 S
C3217 C3211 1.491 . S
C3217 C3216 1.400 1_655 S
C3217 C3218 1.398 . S
C3218 H3206 0.950 . S
C3218 C3217 1.398 . S
C3218 C3219 1.391 . S
C3219 H3207 0.950 . S
C3219 C3215 1.393 . S
C3219 C3218 1.391 . S
H3220 C3228 0.950 . S
H3221 C3233 0.950 . S
H3222 C3230 0.950 . S
H3223 C3232 0.950 . S
H3224 C3234 0.950 . S
H3225 C3236 0.950 . S
H3226 C3238 0.950 . S
H3227 C3239 0.950 . S
C3228 H3220 0.950 . S
C3228 C3229 1.386 . S
C3228 C3230 1.391 . S
C3229 C3228 1.386 . S
C3229 C3233 1.393 . S
C3230 H3222 0.950 . S
C3230 C3228 1.391 . S
C3230 C3231 1.400 . S
C3231 C3230 1.400 . S
C3231 C3232 1.398 . S
C3231 C3237 1.491 . S
C3232 H3223 0.950 . S
C3232 C3231 1.398 . S
C3232 C3233 1.391 . S
C3233 H3221 0.950 . S
C3233 C3229 1.393 . S
C3233 C3232 1.391 . S
C3234 H3224 0.950 . S
C3234 C3235 1.386 . S
C3234 C3236 1.391 . S
C3235 C3234 1.386 . S
C3235 C3239 1.393 . S
C3236 H3225 0.950 . S
C3236 C3234 1.391 . S
C3236 C3237 1.400 . S
C3237 C3231 1.491 . S
C3237 C3236 1.400 . S
C3237 C3238 1.398 . S
C3238 H3226 0.950 . S
C3238 C3237 1.398 . S
C3238 C3239 1.391 . S
C3239 H3227 0.950 . S
C3239 C3235 1.393 . S
C3239 C3238 1.391 . S
H3240 C3248 0.950 . S
H3241 C3253 0.950 1_455 S
H3242 C3250 0.950 . S
H3243 C3252 0.950 . S
H3244 C3254 0.950 . S
H3245 C3256 0.950 . S
H3246 C3258 0.950 . S
H3247 C3259 0.950 1_655 S
C3248 H3240 0.950 . S
C3248 C3249 1.386 . S
C3248 C3250 1.391 . S
C3249 C3248 1.386 . S
C3249 C3253 1.393 . S
C3250 H3242 0.950 . S
C3250 C3248 1.391 . S
C3250 C3251 1.400 . S
C3251 C3250 1.400 . S
C3251 C3252 1.398 1_655 S
C3251 C3257 1.491 1_655 S
C3252 H3243 0.950 . S
C3252 C3251 1.398 1_455 S
C3252 C3253 1.391 1_455 S
C3253 H3241 0.950 1_655 S
C3253 C3249 1.393 . S
C3253 C3252 1.391 1_655 S
C3254 H3244 0.950 . S
C3254 C3255 1.386 . S
C3254 C3256 1.391 . S
C3255 C3254 1.386 . S
C3255 C3259 1.393 . S
C3256 H3245 0.950 . S
C3256 C3254 1.391 . S
C3256 C3257 1.400 . S
C3257 C3251 1.491 1_455 S
C3257 C3256 1.400 . S
C3257 C3258 1.398 1_455 S
C3258 H3246 0.950 . S
C3258 C3257 1.398 1_655 S
C3258 C3259 1.391 1_655 S
C3259 H3247 0.950 1_455 S
C3259 C3255 1.393 . S
C3259 C3258 1.391 1_455 S
H3260 C3268 0.950 . S
H3261 C3273 0.950 . S
H3262 C3270 0.950 . S
H3263 C3272 0.950 . S
H3264 C3274 0.950 . S
H3265 C3276 0.950 . S
H3266 C3278 0.950 . S
H3267 C3279 0.950 . S
C3268 H3260 0.950 . S
C3268 C3269 1.386 . S
C3268 C3270 1.391 . S
C3269 C3268 1.386 . S
C3269 C3273 1.393 . S
C3270 H3262 0.950 . S
C3270 C3268 1.391 . S
C3270 C3271 1.400 . S
C3271 C3270 1.400 . S
C3271 C3272 1.398 . S
C3271 C3277 1.491 . S
C3272 H3263 0.950 . S
C3272 C3271 1.398 . S
C3272 C3273 1.391 . S
C3273 H3261 0.950 . S
C3273 C3269 1.393 . S
C3273 C3272 1.391 . S
C3274 H3264 0.950 . S
C3274 C3275 1.386 . S
C3274 C3276 1.391 . S
C3275 C3274 1.386 . S
C3275 C3279 1.393 . S
C3276 H3265 0.950 . S
C3276 C3274 1.391 . S
C3276 C3277 1.400 . S
C3277 C3271 1.491 . S
C3277 C3276 1.400 . S
C3277 C3278 1.398 . S
C3278 H3266 0.950 . S
C3278 C3277 1.398 . S
C3278 C3279 1.391 . S
C3279 H3267 0.950 . S
C3279 C3275 1.393 . S
C3279 C3278 1.391 . S
H3280 C3288 0.950 . S
H3281 C3293 0.950 . S
H3282 C3290 0.950 . S
H3283 C3292 0.950 1_565 S
H3284 C3294 0.950 . S
H3285 C3296 0.950 . S
H3286 C3298 0.950 1_545 S
H3287 C3299 0.950 . S
C3288 H3280 0.950 . S
C3288 C3289 1.386 . S
C3288 C3290 1.391 . S
C3289 C3288 1.386 . S
C3289 C3293 1.393 . S
C3290 H3282 0.950 . S
C3290 C3288 1.391 . S
C3290 C3291 1.400 . S
C3291 C3290 1.400 . S
C3291 C3292 1.398 . S
C3291 C3297 1.491 1_545 S
C3292 H3283 0.950 1_545 S
C3292 C3291 1.398 . S
C3292 C3293 1.391 . S
C3293 H3281 0.950 . S
C3293 C3289 1.393 . S
C3293 C3292 1.391 . S
C3294 H3284 0.950 . S
C3294 C3295 1.386 . S
C3294 C3296 1.391 . S
C3295 C3294 1.386 . S
C3295 C3299 1.393 . S
C3296 H3285 0.950 . S
C3296 C3294 1.391 . S
C3296 C3297 1.400 . S
C3297 C3291 1.491 1_565 S
C3297 C3296 1.400 . S
C3297 C3298 1.398 . S
C3298 H3286 0.950 1_565 S
C3298 C3297 1.398 . S
C3298 C3299 1.391 . S
C3299 H3287 0.950 . S
C3299 C3295 1.393 . S
C3299 C3298 1.391 . S
H3300 C3308 0.950 . S
H3301 C3313 0.950 . S
H3302 C3310 0.950 . S
H3303 C3312 0.950 . S
H3304 C3314 0.950 . S
H3305 C3316 0.948 . S
H3306 C3318 0.950 . S
H3307 C3319 0.950 . S
C3308 H3300 0.950 . S
C3308 C3309 1.386 . S
C3308 C3310 1.391 . S
C3309 C3308 1.386 . S
C3309 C3313 1.393 . S
C3310 H3302 0.950 . S
C3310 C3308 1.391 . S
C3310 C3311 1.400 . S
C3311 C3310 1.400 . S
C3311 C3312 1.398 . S
C3311 C3317 1.491 1_655 S
C3312 H3303 0.950 . S
C3312 C3311 1.398 . S
C3312 C3313 1.391 . S
C3313 H3301 0.950 . S
C3313 C3309 1.393 . S
C3313 C3312 1.391 . S
C3314 H3304 0.950 . S
C3314 C3315 1.386 . S
C3314 C3316 1.391 . S
C3315 C3314 1.386 . S
C3315 C3319 1.393 . S
C3316 H3305 0.948 . S
C3316 C3314 1.391 . S
C3316 C3317 1.400 . S
C3317 C3311 1.491 1_455 S
C3317 C3316 1.400 . S
C3317 C3318 1.398 . S
C3318 H3306 0.950 . S
C3318 C3317 1.398 . S
C3318 C3319 1.391 . S
C3319 H3307 0.950 . S
C3319 C3315 1.393 . S
C3319 C3318 1.391 . S
H3320 C3328 0.950 . S
H3321 C3333 0.950 . S
H3322 C3330 0.950 . S
H3323 C3332 0.950 . S
H3324 C3334 0.950 . S
H3325 C3336 0.950 . S
H3326 C3338 0.950 . S
H3327 C3339 0.950 . S
C3328 H3320 0.950 . S
C3328 C3329 1.386 . S
C3328 C3330 1.391 . S
C3329 C3328 1.386 . S
C3329 C3333 1.393 . S
C3330 H3322 0.950 . S
C3330 C3328 1.391 . S
C3330 C3331 1.400 . S
C3331 C3330 1.400 . S
C3331 C3332 1.398 . S
C3331 C3337 1.491 . S
C3332 H3323 0.950 . S
C3332 C3331 1.398 . S
C3332 C3333 1.391 . S
C3333 H3321 0.950 . S
C3333 C3329 1.393 . S
C3333 C3332 1.391 . S
C3334 H3324 0.950 . S
C3334 C3335 1.386 . S
C3334 C3336 1.391 . S
C3335 C3334 1.386 . S
C3335 C3339 1.393 . S
C3336 H3325 0.950 . S
C3336 C3334 1.391 . S
C3336 C3337 1.400 . S
C3337 C3331 1.491 . S
C3337 C3336 1.400 . S
C3337 C3338 1.398 . S
C3338 H3326 0.950 . S
C3338 C3337 1.398 . S
C3338 C3339 1.391 . S
C3339 H3327 0.950 . S
C3339 C3335 1.393 . S
C3339 C3338 1.391 . S
H3340 C3348 0.950 1_565 S
H3341 C3353 0.950 . S
H3342 C3350 0.950 . S
H3343 C3352 0.950 . S
H3344 C3354 0.950 1_545 S
H3345 C3356 0.950 . S
H3346 C3358 0.950 . S
H3347 C3359 0.950 . S
C3348 H3340 0.950 1_545 S
C3348 C3349 1.386 . S
C3348 C3350 1.391 1_545 S
C3349 C3348 1.386 . S
C3349 C3353 1.393 . S
C3350 H3342 0.950 . S
C3350 C3348 1.391 1_565 S
C3350 C3351 1.400 1_565 S
C3351 C3350 1.400 1_545 S
C3351 C3352 1.398 . S
C3351 C3357 1.491 1_545 S
C3352 H3343 0.950 . S
C3352 C3351 1.398 . S
C3352 C3353 1.391 . S
C3353 H3341 0.950 . S
C3353 C3349 1.393 . S
C3353 C3352 1.391 . S
C3354 H3344 0.950 1_565 S
C3354 C3355 1.386 . S
C3354 C3356 1.391 1_565 S
C3355 C3354 1.386 . S
C3355 C3359 1.393 . S
C3356 H3345 0.950 . S
C3356 C3354 1.391 1_545 S
C3356 C3357 1.400 1_545 S
C3357 C3351 1.491 1_565 S
C3357 C3356 1.400 1_565 S
C3357 C3358 1.398 . S
C3358 H3346 0.950 . S
C3358 C3357 1.398 . S
C3358 C3359 1.391 . S
C3359 H3347 0.950 . S
C3359 C3355 1.393 . S
C3359 C3358 1.391 . S
H3360 C3368 0.950 . S
H3361 C3373 0.950 . S
H3362 C3370 0.950 . S
H3363 C3372 0.950 . S
H3364 C3374 0.950 . S
H3365 C3376 0.950 . S
H3366 C3378 0.950 . S
H3367 C3379 0.950 . S
C3368 H3360 0.950 . S
C3368 C3369 1.386 . S
C3368 C3370 1.391 . S
C3369 C3368 1.386 . S
C3369 C3373 1.393 . S
C3370 H3362 0.950 . S
C3370 C3368 1.391 . S
C3370 C3371 1.400 . S
C3371 C3370 1.400 . S
C3371 C3372 1.398 . S
C3371 C3377 1.491 . S
C3372 H3363 0.950 . S
C3372 C3371 1.398 . S
C3372 C3373 1.391 . S
C3373 H3361 0.950 . S
C3373 C3369 1.393 . S
C3373 C3372 1.391 . S
C3374 H3364 0.950 . S
C3374 C3375 1.386 . S
C3374 C3376 1.391 . S
C3375 C3374 1.386 . S
C3375 C3379 1.393 . S
C3376 H3365 0.950 . S
C3376 C3374 1.391 . S
C3376 C3377 1.400 . S
C3377 C3371 1.491 . S
C3377 C3376 1.400 . S
C3377 C3378 1.398 . S
C3378 H3366 0.950 . S
C3378 C3377 1.398 . S
C3378 C3379 1.391 . S
C3379 H3367 0.950 . S
C3379 C3375 1.393 . S
C3379 C3378 1.391 . S
H3380 C3388 0.950 . S
H3381 C3393 0.950 . S
H3382 C3390 0.950 . S
H3383 C3392 0.950 . S
H3384 C3394 0.950 . S
H3385 C3396 0.950 . S
H3386 C3398 0.950 . S
H3387 C3399 0.950 . S
C3388 H3380 0.950 . S
C3388 C3389 1.386 . S
C3388 C3390 1.391 . S
C3389 C3388 1.386 . S
C3389 C3393 1.393 . S
C3390 H3382 0.950 . S
C3390 C3388 1.391 . S
C3390 C3391 1.400 . S
C3391 C3390 1.400 . S
C3391 C3392 1.398 . S
C3391 C3397 1.491 . S
C3392 H3383 0.950 . S
C3392 C3391 1.398 . S
C3392 C3393 1.391 . S
C3393 H3381 0.950 . S
C3393 C3389 1.393 . S
C3393 C3392 1.391 . S
C3394 H3384 0.950 . S
C3394 C3395 1.386 . S
C3394 C3396 1.391 . S
C3395 C3394 1.386 . S
C3395 C3399 1.393 . S
C3396 H3385 0.950 . S
C3396 C3394 1.391 . S
C3396 C3397 1.400 . S
C3397 C3391 1.491 . S
C3397 C3396 1.400 . S
C3397 C3398 1.398 . S
C3398 H3386 0.950 . S
C3398 C3397 1.398 . S
C3398 C3399 1.391 . S
C3399 H3387 0.950 . S
C3399 C3395 1.393 . S
C3399 C3398 1.391 . S
H3400 C3408 0.950 . S
H3401 C3413 0.950 . S
H3402 C3410 0.950 . S
H3403 C3412 0.950 . S
H3404 C3414 0.950 . S
H3405 C3416 0.950 . S
H3406 C3418 0.950 . S
H3407 C3419 0.950 . S
C3408 H3400 0.950 . S
C3408 C3409 1.386 . S
C3408 C3410 1.391 . S
C3409 C3408 1.386 . S
C3409 C3413 1.393 . S
C3410 H3402 0.950 . S
C3410 C3408 1.391 . S
C3410 C3411 1.400 . S
C3411 C3410 1.400 . S
C3411 C3412 1.398 . S
C3411 C3417 1.491 . S
C3412 H3403 0.950 . S
C3412 C3411 1.398 . S
C3412 C3413 1.391 . S
C3413 H3401 0.950 . S
C3413 C3409 1.393 . S
C3413 C3412 1.391 . S
C3414 H3404 0.950 . S
C3414 C3415 1.386 . S
C3414 C3416 1.391 . S
C3415 C3414 1.386 . S
C3415 C3419 1.393 . S
C3416 H3405 0.950 . S
C3416 C3414 1.391 . S
C3416 C3417 1.400 . S
C3417 C3411 1.491 . S
C3417 C3416 1.400 . S
C3417 C3418 1.398 . S
C3418 H3406 0.950 . S
C3418 C3417 1.398 . S
C3418 C3419 1.391 . S
C3419 H3407 0.950 . S
C3419 C3415 1.393 . S
C3419 C3418 1.391 . S
H3420 C3428 0.950 . S
H3421 C3433 0.950 . S
H3422 C3430 0.950 . S
H3423 C3432 0.950 . S
H3424 C3434 0.950 . S
H3425 C3436 0.950 . S
H3426 C3438 0.950 . S
H3427 C3439 0.950 . S
C3428 H3420 0.950 . S
C3428 C3429 1.386 . S
C3428 C3430 1.391 . S
C3429 C3428 1.386 . S
C3429 C3433 1.393 . S
C3430 H3422 0.950 . S
C3430 C3428 1.391 . S
C3430 C3431 1.400 . S
C3431 C3430 1.400 . S
C3431 C3432 1.398 . S
C3431 C3437 1.491 . S
C3432 H3423 0.950 . S
C3432 C3431 1.398 . S
C3432 C3433 1.391 . S
C3433 H3421 0.950 . S
C3433 C3429 1.393 . S
C3433 C3432 1.391 . S
C3434 H3424 0.950 . S
C3434 C3435 1.386 . S
C3434 C3436 1.391 . S
C3435 C3434 1.386 . S
C3435 C3439 1.393 . S
C3436 H3425 0.950 . S
C3436 C3434 1.391 . S
C3436 C3437 1.400 . S
C3437 C3431 1.491 . S
C3437 C3436 1.400 . S
C3437 C3438 1.398 . S
C3438 H3426 0.950 . S
C3438 C3437 1.398 . S
C3438 C3439 1.391 . S
C3439 H3427 0.950 . S
C3439 C3435 1.393 . S
C3439 C3438 1.391 . S
H3440 C3448 0.950 . S
H3441 C3453 0.950 . S
H3442 C3450 0.950 . S
H3443 C3452 0.950 . S
H3444 C3454 0.950 . S
H3445 C3456 0.950 . S
H3446 C3458 0.950 . S
H3447 C3459 0.950 . S
C3448 H3440 0.950 . S
C3448 C3449 1.386 . S
C3448 C3450 1.391 . S
C3449 C3448 1.386 . S
C3449 C3453 1.393 . S
C3450 H3442 0.950 . S
C3450 C3448 1.391 . S
C3450 C3451 1.400 . S
C3451 C3450 1.400 . S
C3451 C3452 1.398 . S
C3451 C3457 1.491 . S
C3452 H3443 0.950 . S
C3452 C3451 1.398 . S
C3452 C3453 1.391 . S
C3453 H3441 0.950 . S
C3453 C3449 1.393 . S
C3453 C3452 1.391 . S
C3454 H3444 0.950 . S
C3454 C3455 1.386 . S
C3454 C3456 1.391 . S
C3455 C3454 1.386 . S
C3455 C3459 1.393 . S
C3456 H3445 0.950 . S
C3456 C3454 1.391 . S
C3456 C3457 1.400 . S
C3457 C3451 1.491 . S
C3457 C3456 1.400 . S
C3457 C3458 1.398 . S
C3458 H3446 0.950 . S
C3458 C3457 1.398 . S
C3458 C3459 1.391 . S
C3459 H3447 0.950 . S
C3459 C3455 1.393 . S
C3459 C3458 1.391 . S
H3460 C3468 0.950 . S
H3461 C3473 0.950 . S
H3462 C3470 0.950 . S
H3463 C3472 0.950 . S
H3464 C3474 0.950 . S
H3465 C3476 0.950 . S
H3466 C3478 0.950 . S
H3467 C3479 0.950 . S
C3468 H3460 0.950 . S
C3468 C3469 1.386 . S
C3468 C3470 1.391 . S
C3469 C3468 1.386 . S
C3469 C3473 1.393 . S
C3470 H3462 0.950 . S
C3470 C3468 1.391 . S
C3470 C3471 1.400 . S
C3471 C3470 1.400 . S
C3471 C3472 1.398 . S
C3471 C3477 1.491 . S
C3472 H3463 0.950 . S
C3472 C3471 1.398 . S
C3472 C3473 1.391 . S
C3473 H3461 0.950 . S
C3473 C3469 1.393 . S
C3473 C3472 1.391 . S
C3474 H3464 0.950 . S
C3474 C3475 1.386 . S
C3474 C3476 1.391 . S
C3475 C3474 1.386 . S
C3475 C3479 1.393 . S
C3476 H3465 0.950 . S
C3476 C3474 1.391 . S
C3476 C3477 1.400 . S
C3477 C3471 1.491 . S
C3477 C3476 1.400 . S
C3477 C3478 1.398 . S
C3478 H3466 0.950 . S
C3478 C3477 1.398 . S
C3478 C3479 1.391 . S
C3479 H3467 0.950 . S
C3479 C3475 1.393 . S
C3479 C3478 1.391 . S
H3480 C3488 0.950 . S
H3481 C3493 0.950 . S
H3482 C3490 0.950 . S
H3483 C3492 0.950 . S
H3484 C3494 0.950 . S
H3485 C3496 0.950 . S
H3486 C3498 0.950 . S
H3487 C3499 0.950 . S
C3488 H3480 0.950 . S
C3488 C3489 1.386 . S
C3488 C3490 1.391 . S
C3489 C3488 1.386 . S
C3489 C3493 1.393 . S
C3490 H3482 0.950 . S
C3490 C3488 1.391 . S
C3490 C3491 1.400 . S
C3491 C3490 1.400 . S
C3491 C3492 1.398 . S
C3491 C3497 1.491 . S
C3492 H3483 0.950 . S
C3492 C3491 1.398 . S
C3492 C3493 1.391 . S
C3493 H3481 0.950 . S
C3493 C3489 1.393 . S
C3493 C3492 1.391 . S
C3494 H3484 0.950 . S
C3494 C3495 1.386 . S
C3494 C3496 1.391 . S
C3495 C3494 1.386 . S
C3495 C3499 1.393 . S
C3496 H3485 0.950 . S
C3496 C3494 1.391 . S
C3496 C3497 1.400 . S
C3497 C3491 1.491 . S
C3497 C3496 1.400 . S
C3497 C3498 1.398 . S
C3498 H3486 0.950 . S
C3498 C3497 1.398 . S
C3498 C3499 1.391 . S
C3499 H3487 0.950 . S
C3499 C3495 1.393 . S
C3499 C3498 1.391 . S
H3500 C3508 0.950 . S
H3501 C3513 0.950 . S
H3502 C3510 0.950 . S
H3503 C3512 0.950 . S
H3504 C3514 0.950 . S
H3505 C3516 0.950 . S
H3506 C3518 0.950 . S
H3507 C3519 0.950 . S
C3508 H3500 0.950 . S
C3508 C3509 1.386 . S
C3508 C3510 1.391 . S
C3509 C3508 1.386 . S
C3509 C3513 1.393 . S
C3510 H3502 0.950 . S
C3510 C3508 1.391 . S
C3510 C3511 1.400 . S
C3511 C3510 1.400 . S
C3511 C3512 1.398 . S
C3511 C3517 1.491 . S
C3512 H3503 0.950 . S
C3512 C3511 1.398 . S
C3512 C3513 1.391 . S
C3513 H3501 0.950 . S
C3513 C3509 1.393 . S
C3513 C3512 1.391 . S
C3514 H3504 0.950 . S
C3514 C3515 1.386 . S
C3514 C3516 1.391 . S
C3515 C3514 1.386 . S
C3515 C3519 1.393 . S
C3516 H3505 0.950 . S
C3516 C3514 1.391 . S
C3516 C3517 1.400 . S
C3517 C3511 1.491 . S
C3517 C3516 1.400 . S
C3517 C3518 1.398 . S
C3518 H3506 0.950 . S
C3518 C3517 1.398 . S
C3518 C3519 1.391 . S
C3519 H3507 0.950 . S
C3519 C3515 1.393 . S
C3519 C3518 1.391 . S
H3520 C3528 0.950 . S
H3521 C3533 0.950 . S
H3522 C3530 0.950 . S
H3523 C3532 0.950 . S
H3524 C3534 0.950 . S
H3525 C3536 0.950 . S
H3526 C3538 0.950 . S
H3527 C3539 0.950 . S
C3528 H3520 0.950 . S
C3528 C3529 1.386 . S
C3528 C3530 1.391 . S
C3529 C3528 1.386 . S
C3529 C3533 1.393 . S
C3530 H3522 0.950 . S
C3530 C3528 1.391 . S
C3530 C3531 1.400 . S
C3531 C3530 1.400 . S
C3531 C3532 1.398 . S
C3531 C3537 1.491 . S
C3532 H3523 0.950 . S
C3532 C3531 1.398 . S
C3532 C3533 1.391 . S
C3533 H3521 0.950 . S
C3533 C3529 1.393 . S
C3533 C3532 1.391 . S
C3534 H3524 0.950 . S
C3534 C3535 1.386 . S
C3534 C3536 1.391 . S
C3535 C3534 1.386 . S
C3535 C3539 1.393 . S
C3536 H3525 0.950 . S
C3536 C3534 1.391 . S
C3536 C3537 1.400 . S
C3537 C3531 1.491 . S
C3537 C3536 1.400 . S
C3537 C3538 1.398 . S
C3538 H3526 0.950 . S
C3538 C3537 1.398 . S
C3538 C3539 1.391 . S
C3539 H3527 0.950 . S
C3539 C3535 1.393 . S
C3539 C3538 1.391 . S
H3540 C3548 0.950 . S
H3541 C3553 0.950 . S
H3542 C3550 0.950 . S
H3543 C3552 0.950 . S
H3544 C3554 0.950 . S
H3545 C3556 0.950 . S
H3546 C3558 0.950 . S
H3547 C3559 0.950 . S
C3548 H3540 0.950 . S
C3548 C3549 1.386 . S
C3548 C3550 1.391 . S
C3549 C3548 1.386 . S
C3549 C3553 1.393 . S
C3550 H3542 0.950 . S
C3550 C3548 1.391 . S
C3550 C3551 1.400 . S
C3551 C3550 1.400 . S
C3551 C3552 1.398 . S
C3551 C3557 1.491 . S
C3552 H3543 0.950 . S
C3552 C3551 1.398 . S
C3552 C3553 1.391 . S
C3553 H3541 0.950 . S
C3553 C3549 1.393 . S
C3553 C3552 1.391 . S
C3554 H3544 0.950 . S
C3554 C3555 1.386 . S
C3554 C3556 1.391 . S
C3555 C3554 1.386 . S
C3555 C3559 1.393 . S
C3556 H3545 0.950 . S
C3556 C3554 1.391 . S
C3556 C3557 1.400 . S
C3557 C3551 1.491 . S
C3557 C3556 1.400 . S
C3557 C3558 1.398 . S
C3558 H3546 0.950 . S
C3558 C3557 1.398 . S
C3558 C3559 1.391 . S
C3559 H3547 0.950 . S
C3559 C3555 1.393 . S
C3559 C3558 1.391 . S
H3560 C3568 0.950 . S
H3561 C3573 0.950 . S
H3562 C3570 0.950 . S
H3563 C3572 0.950 . S
H3564 C3574 0.950 . S
H3565 C3576 0.950 . S
H3566 C3578 0.950 . S
H3567 C3579 0.950 . S
C3568 H3560 0.950 . S
C3568 C3569 1.386 . S
C3568 C3570 1.391 . S
C3569 C3568 1.386 . S
C3569 C3573 1.393 . S
C3570 H3562 0.950 . S
C3570 C3568 1.391 . S
C3570 C3571 1.400 . S
C3571 C3570 1.400 . S
C3571 C3572 1.398 . S
C3571 C3577 1.491 . S
C3572 H3563 0.950 . S
C3572 C3571 1.398 . S
C3572 C3573 1.391 . S
C3573 H3561 0.950 . S
C3573 C3569 1.393 . S
C3573 C3572 1.391 . S
C3574 H3564 0.950 . S
C3574 C3575 1.386 . S
C3574 C3576 1.391 . S
C3575 C3574 1.386 . S
C3575 C3579 1.393 . S
C3576 H3565 0.950 . S
C3576 C3574 1.391 . S
C3576 C3577 1.400 . S
C3577 C3571 1.491 . S
C3577 C3576 1.400 . S
C3577 C3578 1.398 . S
C3578 H3566 0.950 . S
C3578 C3577 1.398 . S
C3578 C3579 1.391 . S
C3579 H3567 0.950 . S
C3579 C3575 1.393 . S
C3579 C3578 1.391 . S
H3580 C3588 0.950 . S
H3581 C3593 0.950 . S
H3582 C3590 0.950 . S
H3583 C3592 0.950 . S
H3584 C3594 0.950 . S
H3585 C3596 0.950 . S
H3586 C3598 0.950 . S
H3587 C3599 0.950 . S
C3588 H3580 0.950 . S
C3588 C3589 1.386 . S
C3588 C3590 1.391 . S
C3589 C3588 1.386 . S
C3589 C3593 1.393 . S
C3590 H3582 0.950 . S
C3590 C3588 1.391 . S
C3590 C3591 1.400 . S
C3591 C3590 1.400 . S
C3591 C3592 1.398 . S
C3591 C3597 1.491 . S
C3592 H3583 0.950 . S
C3592 C3591 1.398 . S
C3592 C3593 1.391 . S
C3593 H3581 0.950 . S
C3593 C3589 1.393 . S
C3593 C3592 1.391 . S
C3594 H3584 0.950 . S
C3594 C3595 1.386 . S
C3594 C3596 1.391 . S
C3595 C3594 1.386 . S
C3595 C3599 1.393 . S
C3596 H3585 0.950 . S
C3596 C3594 1.391 . S
C3596 C3597 1.400 . S
C3597 C3591 1.491 . S
C3597 C3596 1.400 . S
C3597 C3598 1.398 . S
C3598 H3586 0.950 . S
C3598 C3597 1.398 . S
C3598 C3599 1.391 . S
C3599 H3587 0.950 . S
C3599 C3595 1.393 . S
C3599 C3598 1.391 . S
C1449 C9 1.729 . S
C1455 C99 1.793 . S
C1469 C19 1.794 . S
C1475 C49 1.708 1_545 S
C1489 C89 1.734 1_655 S
C1495 C59 1.786 . S
C1509 C129 1.797 . S
C1515 C179 1.859 . S
C1529 C219 1.871 . S
C1535 C169 1.799 1_565 S
C1549 C209 1.803 1_455 S
C1555 C139 1.869 . S
C1569 C258 1.725 . S
C1575 C330 1.782 . S
C1589 C298 1.717 1_565 S
C1595 C250 1.797 . S
C1609 C338 1.707 1_455 S
C1615 C290 1.794 . S
C1629 C378 1.809 . S
C1635 C410 1.864 . S
C1649 C450 1.858 . S
C1655 C418 1.807 1_545 S
C1669 C370 1.862 . S
C1675 C458 1.810 1_655 S
C1689 C579 1.861 . S
C1695 C489 1.774 . S
C1709 C529 1.773 . S
C1715 C499 1.858 . S
C1729 C539 1.856 . S
C1735 C569 1.795 . S
C1749 C609 1.807 . S
C1755 C659 1.891 . S
C1769 C699 1.879 . S
C1775 C649 1.828 . S
C1789 C619 1.880 . S
C1795 C689 1.829 . S
C1809 C738 1.744 . S
C1815 C810 1.831 . S
C1829 C778 1.747 . S
C1835 C730 1.820 . S
C1849 C770 1.826 . S
C1855 C818 1.762 . S
C1869 C890 1.722 . S
C1875 C858 1.637 1_554 S
C1889 C898 1.635 1_554 S
C1895 C930 1.721 . S
C1909 C850 1.721 . S
C1915 C938 1.634 1_554 S
C1929 C969 1.752 . S
C1935 C1059 1.818 . S
C1949 C1009 1.761 . S
C1955 C979 1.816 . S
C1969 C1049 1.763 . S
C1975 C1019 1.826 . S
C1989 C1089 1.660 1_556 S
C1995 C1139 1.708 . S
C2009 C1129 1.664 1_556 S
C2015 C1179 1.707 . S
C2029 C1169 1.624 1_556 S
C2035 C1099 1.709 . S
C2049 C1218 1.792 . S
C2055 C1290 1.859 . S
C2069 C1258 1.793 . S
C2075 C1210 1.859 . S
C2089 C1250 1.849 . S
C2095 C1298 1.797 . S
C2109 C1338 1.826 . S
C2115 C1370 1.886 . S
C2129 C1378 1.807 . S
C2135 C1410 1.883 . S
C2149 C1330 1.892 . S
C2155 C1418 1.812 . S
C2169 C10 1.787 . S
C2175 C809 1.791 . S
C2189 C729 1.770 . S
C2195 C50 1.787 . S
C2209 C90 1.780 . S
C2215 C769 1.784 . S
C2229 C130 1.677 . S
C2235 C1369 1.668 . S
C2249 C1409 1.663 . S
C2255 C170 1.692 . S
C2269 C210 1.681 . S
C2275 C1329 1.681 . S
C2289 C1058 1.786 . S
C2295 C259 1.796 . S
C2309 C299 1.788 . S
C2315 C978 1.770 . S
C2329 C339 1.783 . S
C2335 C1018 1.774 . S
C2349 C658 1.678 . S
C2355 C379 1.695 . S
C2369 C698 1.665 . S
C2375 C419 1.679 . S
C2389 C618 1.667 . S
C2395 C459 1.695 . S
C2409 C490 1.745 . S
C2415 C1289 1.733 . S
C2429 C530 1.729 . S
C2435 C1209 1.721 . S
C2449 C1249 1.717 . S
C2455 C570 1.741 . S
C2469 C409 1.724 . S
C2475 C610 1.730 . S
C2489 C449 1.703 . S
C2495 C650 1.729 . S
C2509 C369 1.705 . S
C2515 C690 1.732 . S
C2529 C98 1.784 . S
C2535 C739 1.789 . S
C2549 C779 1.781 . S
C2555 C18 1.786 . S
C2569 C819 1.786 . S
C2575 C58 1.786 . S
C2589 C1138 1.737 1_554 S
C2595 C859 1.755 . S
C2609 C1178 1.736 1_554 S
C2615 C899 1.759 . S
C2629 C939 1.753 . S
C2635 C1098 1.721 . S
C2649 C329 1.771 . S
C2655 C970 1.790 . S
C2669 C249 1.767 . S
C2675 C1010 1.778 . S
C2689 C289 1.770 . S
C2695 C1050 1.777 . S
C2709 C1090 1.755 . S
C2715 C889 1.721 . S
C2729 C929 1.728 1_556 S
C2735 C1130 1.763 . S
C2749 C1170 1.746 . S
C2755 C849 1.732 . S
C2769 C1219 1.730 . S
C2775 C578 1.720 . S
C2789 C1259 1.743 . S
C2795 C498 1.735 . S
C2809 C1299 1.744 . S
C2815 C538 1.735 . S
C2829 C1339 1.736 . S
C2835 C178 1.713 . S
C2849 C218 1.721 . S
C2855 C1379 1.735 . S
C2869 C138 1.713 . S
C2875 C1419 1.717 . S
C2889 C1166 2.297 . S
C2895 C6 2.279 . S
C2909 C1086 2.304 . S
C2915 C46 2.283 . S
C2929 C86 2.294 . S
C2935 C1126 2.280 . S
C2949 C526 2.542 . S
C2955 C126 2.534 . S
C2969 C166 2.540 . S
C2975 C566 2.535 . S
C2989 C206 2.541 . S
C2995 C486 2.547 . S
C3009 C255 2.296 . S
C3015 C935 2.285 . S
C3029 C295 2.297 . S
C3035 C855 2.276 . S
C3049 C335 2.295 . S
C3055 C895 2.278 . S
C3069 C1255 2.541 . S
C3075 C375 2.533 . S
C3089 C1295 2.537 . S
C3095 C415 2.543 . S
C3109 C1215 2.538 . S
C3115 C455 2.534 . S
C3129 C606 2.589 . S
C3135 C1006 2.596 . S
C3149 C646 2.594 . S
C3155 C1046 2.603 . S
C3169 C686 2.591 . S
C3175 C966 2.593 . S
C3189 C735 2.602 . S
C3195 C1415 2.600 . S
C3209 C1335 2.592 . S
C3215 C775 2.602 . S
C3229 C815 2.599 . S
C3235 C1375 2.601 . S
C3249 C175 1.141 . S
C3255 C15 1.150 . S
C3269 C215 1.144 . S
C3275 C55 1.149 . S
C3289 C135 1.145 . S
C3295 C95 1.147 . S
C3309 C246 1.145 . S
C3315 C406 1.148 . S
C3329 C446 1.146 . S
C3335 C286 1.144 . S
C3349 C326 1.140 . S
C3355 C366 1.151 . S
C3369 C655 1.227 . S
C3375 C495 1.237 . S
C3389 C695 1.226 . S
C3395 C535 1.237 . S
C3409 C615 1.232 . S
C3415 C575 1.235 . S
C3429 C886 1.490 . S
C3435 C726 1.523 . S
C3449 C766 1.512 . S
C3455 C926 1.508 . S
C3469 C806 1.509 . S
C3475 C846 1.515 . S
C3489 C975 1.505 . S
C3495 C1135 1.517 . S
C3509 C1175 1.504 . S
C3515 C1015 1.520 . S
C3529 C1055 1.509 . S
C3535 C1095 1.515 . S
C3549 C1206 1.231 . S
C3555 C1366 1.235 . S
C3569 C1406 1.226 . S
C3575 C1246 1.238 . S
C3589 C1286 1.228 . S
C3595 C1326 1.238 . S
