# Generated by pormake.
# Topology wjh, (4)-cn, num edge types: 1
# Building blocks:
#     Node 0, Type 0, BuildingBlock: CEKHIL_clean_sbu_0, # of connection points: 4
#     Node 1, Type 0, BuildingBlock: CEKHIL_clean_sbu_0, # of connection points: 4
#     Node 2, Type 0, BuildingBlock: CEKHIL_clean_sbu_0, # of connection points: 4
#     Node 3, Type 0, BuildingBlock: CEKHIL_clean_sbu_0, # of connection points: 4
#     Node 4, Type 0, BuildingBlock: CEKHIL_clean_sbu_0, # of connection points: 4
#     Node 5, Type 0, BuildingBlock: CEKHIL_clean_sbu_0, # of connection points: 4
#     Node 6, Type 0, BuildingBlock: CEKHIL_clean_sbu_0, # of connection points: 4
#     Node 7, Type 0, BuildingBlock: CEKHIL_clean_sbu_0, # of connection points: 4
#     Node 8, Type 0, BuildingBlock: CEKHIL_clean_sbu_0, # of connection points: 4
#     Node 9, Type 0, BuildingBlock: CEKHIL_clean_sbu_0, # of connection points: 4
#     Node 10, Type 0, BuildingBlock: CEKHIL_clean_sbu_0, # of connection points: 4
#     Node 11, Type 0, BuildingBlock: CEKHIL_clean_sbu_0, # of connection points: 4
#     Edge 12, Type (0, 0), BuildingBlock: ZUJKAS_clean_linker_0, # of connection points: 2
#     Edge 13, Type (0, 0), BuildingBlock: ZUJKAS_clean_linker_0, # of connection points: 2
#     Edge 14, Type (0, 0), BuildingBlock: ZUJKAS_clean_linker_0, # of connection points: 2
#     Edge 15, Type (0, 0), BuildingBlock: ZUJKAS_clean_linker_0, # of connection points: 2
#     Edge 16, Type (0, 0), BuildingBlock: ZUJKAS_clean_linker_0, # of connection points: 2
#     Edge 17, Type (0, 0), BuildingBlock: ZUJKAS_clean_linker_0, # of connection points: 2
#     Edge 18, Type (0, 0), BuildingBlock: ZUJKAS_clean_linker_0, # of connection points: 2
#     Edge 19, Type (0, 0), BuildingBlock: ZUJKAS_clean_linker_0, # of connection points: 2
#     Edge 20, Type (0, 0), BuildingBlock: ZUJKAS_clean_linker_0, # of connection points: 2
#     Edge 21, Type (0, 0), BuildingBlock: ZUJKAS_clean_linker_0, # of connection points: 2
#     Edge 22, Type (0, 0), BuildingBlock: ZUJKAS_clean_linker_0, # of connection points: 2
#     Edge 23, Type (0, 0), BuildingBlock: ZUJKAS_clean_linker_0, # of connection points: 2
#     Edge 24, Type (0, 0), BuildingBlock: ZUJKAS_clean_linker_0, # of connection points: 2
#     Edge 25, Type (0, 0), BuildingBlock: ZUJKAS_clean_linker_0, # of connection points: 2
#     Edge 26, Type (0, 0), BuildingBlock: ZUJKAS_clean_linker_0, # of connection points: 2
#     Edge 27, Type (0, 0), BuildingBlock: ZUJKAS_clean_linker_0, # of connection points: 2
#     Edge 28, Type (0, 0), BuildingBlock: ZUJKAS_clean_linker_0, # of connection points: 2
#     Edge 29, Type (0, 0), BuildingBlock: ZUJKAS_clean_linker_0, # of connection points: 2
#     Edge 30, Type (0, 0), BuildingBlock: ZUJKAS_clean_linker_0, # of connection points: 2
#     Edge 31, Type (0, 0), BuildingBlock: ZUJKAS_clean_linker_0, # of connection points: 2
#     Edge 32, Type (0, 0), BuildingBlock: ZUJKAS_clean_linker_0, # of connection points: 2
#     Edge 33, Type (0, 0), BuildingBlock: ZUJKAS_clean_linker_0, # of connection points: 2
#     Edge 34, Type (0, 0), BuildingBlock: ZUJKAS_clean_linker_0, # of connection points: 2
#     Edge 35, Type (0, 0), BuildingBlock: ZUJKAS_clean_linker_0, # of connection points: 2
# Relax obj value: 0.079
# Max RMSD: 0.099
# Mean RMSD: 0.099
data_MOF--net-wjh--node1-CEKHIL_clean_sbu_0--edge1-ZUJKAS_clean_linker_0
_symmetry_space_group_name_H-M    P1
_symmetry_Int_Tables_number       1
_symmetry_cell_setting            triclinic
loop_
_symmetry_equiv_pos_as_xyz
'x, y, z'
_cell_length_a     78.575364
_cell_length_b     78.538615
_cell_length_c     34.427278
_cell_angle_alpha  90.012134
_cell_angle_beta   90.025637
_cell_angle_gamma 119.92643
loop_
_atom_site_label
_atom_site_type_symbol
_atom_site_fract_x
_atom_site_fract_y
_atom_site_fract_z
_atom_type_partial_charge
Co0 Co 0.52408 0.14999 0.03809 0.0
O1 O 0.53504 0.17798 0.04315 0.0
O2 O 0.50491 0.15578 0.06067 0.0
C3 C 0.53509 0.15071 0.97719 0.0
O4 O 0.50735 0.11993 0.03618 0.0
Co5 Co 0.55085 0.13162 0.02447 0.0
O6 O 0.52566 0.10759 0.01256 0.0
C7 C 0.54976 0.1479 0.10128 0.0
C8 C 0.51834 0.17422 0.05806 0.0
C9 C 0.50919 0.1055 0.02322 0.0
O10 O 0.53466 0.14923 0.09118 0.0
O11 O 0.55909 0.14284 0.07781 0.0
O12 O 0.519 0.15133 0.98241 0.0
O13 O 0.54434 0.15116 0.00831 0.0
Co14 Co 0.37889 0.52256 0.20961 0.0
O15 O 0.36113 0.53279 0.21243 0.0
O16 O 0.3537 0.5028 0.23013 0.0
C17 C 0.39049 0.5341 0.14957 0.0
O18 O 0.39286 0.5064 0.20956 0.0
Co19 Co 0.4241 0.55031 0.20035 0.0
O20 O 0.42414 0.52551 0.19021 0.0
C21 C 0.40457 0.54842 0.27483 0.0
C22 C 0.34823 0.51587 0.2265 0.0
C23 C 0.40968 0.50876 0.19916 0.0
O24 O 0.38878 0.53293 0.26359 0.0
O25 O 0.41934 0.55829 0.25256 0.0
O26 O 0.3739 0.51776 0.15343 0.0
O27 O 0.39834 0.54327 0.18133 0.0
Co28 Co 0.86061 0.37659 0.37427 0.0
O29 O 0.83295 0.35773 0.37643 0.0
O30 O 0.85638 0.35209 0.39673 0.0
C31 C 0.86046 0.38704 0.31325 0.0
O32 O 0.89072 0.39214 0.37521 0.0
Co33 Co 0.87525 0.42124 0.36252 0.0
O34 O 0.90115 0.42309 0.35522 0.0
C35 C 0.85701 0.40164 0.43633 0.0
C36 C 0.83771 0.34564 0.39203 0.0
C37 C 0.90452 0.40938 0.36502 0.0
O38 O 0.85897 0.38679 0.4272 0.0
O39 O 0.86068 0.41569 0.41282 0.0
O40 O 0.8613 0.37106 0.3186 0.0
O41 O 0.85823 0.39487 0.34416 0.0
Co42 Co 0.49031 0.85941 0.53898 0.0
O43 O 0.48074 0.83156 0.54027 0.0
O44 O 0.50968 0.85419 0.56278 0.0
C45 C 0.48086 0.86014 0.47737 0.0
O46 O 0.50559 0.88955 0.54088 0.0
Co47 Co 0.46166 0.87559 0.52542 0.0
O48 O 0.48633 0.90073 0.51692 0.0
C49 C 0.46193 0.85763 0.60058 0.0
C50 C 0.49716 0.83568 0.55694 0.0
C51 C 0.50297 0.90362 0.52866 0.0
O52 O 0.47786 0.85773 0.59123 0.0
O53 O 0.45247 0.86251 0.57706 0.0
O54 O 0.4973 0.86035 0.48373 0.0
O55 O 0.47042 0.85798 0.50765 0.0
Co56 Co 0.63581 0.48626 0.70348 0.0
O57 O 0.65374 0.47631 0.70688 0.0
O58 O 0.66023 0.5056 0.72762 0.0
C59 C 0.62627 0.47648 0.64174 0.0
O60 O 0.62125 0.50187 0.70355 0.0
Co61 Co 0.5911 0.45809 0.68796 0.0
O62 O 0.5914 0.48302 0.67683 0.0
C63 C 0.60868 0.45782 0.76366 0.0
C64 C 0.66605 0.49283 0.72325 0.0
C65 C 0.60503 0.49953 0.68929 0.0
O66 O 0.62435 0.47412 0.75554 0.0
O67 O 0.59479 0.44835 0.73924 0.0
O68 O 0.6425 0.49286 0.64826 0.0
O69 O 0.61758 0.46631 0.67204 0.0
Co70 Co 0.15351 0.63406 0.8713 0.0
O71 O 0.18141 0.65077 0.87823 0.0
O72 O 0.15908 0.65866 0.89528 0.0
C73 C 0.1554 0.62479 0.81009 0.0
O74 O 0.12357 0.62113 0.86764 0.0
Co75 Co 0.13464 0.5892 0.85376 0.0
O76 O 0.11155 0.5916 0.83892 0.0
C77 C 0.14939 0.60475 0.93267 0.0
C78 C 0.17752 0.66357 0.89341 0.0
C79 C 0.10946 0.60569 0.85157 0.0
O80 O 0.15163 0.62169 0.92367 0.0
O81 O 0.14436 0.59079 0.90809 0.0
O82 O 0.15592 0.64143 0.81595 0.0
O83 O 0.15503 0.61538 0.84085 0.0
Co84 Co 0.86069 0.48724 0.88954 0.0
O85 O 0.83272 0.47678 0.88577 0.0
O86 O 0.85517 0.50654 0.86673 0.0
C87 C 0.86041 0.47661 0.95061 0.0
O88 O 0.89074 0.50355 0.88996 0.0
Co89 Co 0.87881 0.46028 0.90326 0.0
O90 O 0.90285 0.48544 0.91559 0.0
C91 C 0.86208 0.46104 0.82662 0.0
C92 C 0.83669 0.49346 0.8704 0.0
C93 C 0.90505 0.50178 0.9037 0.0
O94 O 0.86067 0.47611 0.83665 0.0
O95 O 0.86743 0.45191 0.85002 0.0
O96 O 0.8601 0.49286 0.94519 0.0
O97 O 0.85949 0.46706 0.91965 0.0
Co98 Co 0.37976 0.85751 0.0542 0.0
O99 O 0.3618 0.82962 0.05288 0.0
O100 O 0.35464 0.85212 0.03317 0.0
C101 C 0.39138 0.85841 0.11459 0.0
O102 O 0.39418 0.88761 0.05249 0.0
Co103 Co 0.42487 0.87397 0.06328 0.0
O104 O 0.42571 0.89944 0.06993 0.0
C105 C 0.4045 0.85448 0.99085 0.0
C106 C 0.34902 0.83361 0.03794 0.0
C107 C 0.41136 0.90199 0.06123 0.0
O108 O 0.38948 0.85598 0.00069 0.0
O109 O 0.41899 0.85884 0.01361 0.0
O110 O 0.37488 0.85832 0.11018 0.0
O111 O 0.39902 0.85633 0.08325 0.0
Co112 Co 0.52501 0.37627 0.21915 0.0
O113 O 0.5363 0.35956 0.21338 0.0
O114 O 0.50566 0.35087 0.19841 0.0
C115 C 0.5373 0.38737 0.27901 0.0
O116 O 0.50797 0.38926 0.22229 0.0
Co117 Co 0.55161 0.42159 0.23041 0.0
O118 O 0.52649 0.42028 0.24378 0.0
C119 C 0.54881 0.40341 0.15366 0.0
C120 C 0.5194 0.34622 0.20006 0.0
C121 C 0.50989 0.40566 0.23462 0.0
O122 O 0.53424 0.38696 0.16518 0.0
O123 O 0.5585 0.41813 0.17622 0.0
O124 O 0.52123 0.37053 0.2752 0.0
O125 O 0.54578 0.39584 0.24713 0.0
Co126 Co 0.15377 0.52263 0.38764 0.0
O127 O 0.18157 0.53231 0.3839 0.0
O128 O 0.15858 0.50262 0.36567 0.0
C129 C 0.15457 0.53399 0.44823 0.0
O130 O 0.12365 0.50722 0.3885 0.0
Co131 Co 0.13772 0.55154 0.39935 0.0
O132 O 0.11261 0.52708 0.40972 0.0
C133 C 0.15472 0.54956 0.32424 0.0
C134 C 0.17719 0.51541 0.36913 0.0
C135 C 0.10967 0.51015 0.39999 0.0
O136 O 0.15405 0.53343 0.33433 0.0
O137 O 0.15076 0.55986 0.34742 0.0
O138 O 0.15426 0.51739 0.44352 0.0
O139 O 0.15585 0.54341 0.41688 0.0
Co140 Co 0.63652 0.15322 0.55362 0.0
O141 O 0.65533 0.1809 0.55122 0.0
O142 O 0.66102 0.15743 0.5313 0.0
C143 C 0.62607 0.15348 0.6146 0.0
O144 O 0.621 0.1231 0.55296 0.0
Co145 Co 0.59189 0.13863 0.56533 0.0
O146 O 0.58999 0.11269 0.57237 0.0
C147 C 0.61141 0.15658 0.4913 0.0
C148 C 0.66744 0.17613 0.53581 0.0
C149 C 0.60371 0.1093 0.56285 0.0
O150 O 0.62629 0.1547 0.50059 0.0
O151 O 0.5974 0.15302 0.5148 0.0
O152 O 0.64206 0.15266 0.60933 0.0
O153 O 0.61825 0.15566 0.58363 0.0
Co154 Co 0.48813 0.63337 0.72519 0.0
O155 O 0.47904 0.65206 0.72374 0.0
O156 O 0.50753 0.6575 0.70022 0.0
C157 C 0.47917 0.62394 0.78734 0.0
O158 O 0.50293 0.61804 0.72309 0.0
Co159 Co 0.45924 0.58886 0.74111 0.0
O160 O 0.48389 0.58827 0.74987 0.0
C161 C 0.45858 0.60651 0.66573 0.0
C162 C 0.49537 0.66394 0.70631 0.0
C163 C 0.50035 0.6016 0.73666 0.0
O164 O 0.47497 0.62216 0.67362 0.0
O165 O 0.44925 0.59262 0.6902 0.0
O166 O 0.49574 0.63987 0.78019 0.0
O167 O 0.46843 0.6155 0.75749 0.0
H168 H 0.53621 0.16111 0.16141 0.0
H169 H 0.54889 0.16843 0.22814 0.0
H170 H 0.59207 0.15188 0.19921 0.0
H171 H 0.57985 0.14478 0.13307 0.0
H172 H 0.55063 0.14217 0.28018 0.0
H173 H 0.62524 0.20468 0.25275 0.0
H174 H 0.60568 0.19638 0.21744 0.0
H175 H 0.61944 0.18382 0.22267 0.0
C176 C 0.54848 0.15915 0.16923 0.0
C177 C 0.55702 0.1524 0.14178 0.0
C178 C 0.55573 0.1634 0.20727 0.0
C179 C 0.5717 0.16112 0.21824 0.0
C180 C 0.58012 0.15429 0.19102 0.0
H181 H 0.62718 0.15117 0.42448 0.0
H182 H 0.61867 0.15504 0.35764 0.0
C183 C 0.57294 0.15006 0.15321 0.0
C184 C 0.57879 0.16437 0.25879 0.0
H185 H 0.62034 0.18811 0.314 0.0
C186 C 0.56578 0.15245 0.28776 0.0
C187 C 0.59861 0.17771 0.2684 0.0
C188 C 0.613 0.19151 0.23872 0.0
C189 C 0.57224 0.15289 0.32586 0.0
C190 C 0.59218 0.16585 0.33523 0.0
C191 C 0.60511 0.17814 0.30654 0.0
C192 C 0.59975 0.16643 0.37473 0.0
C193 C 0.55786 0.13894 0.35544 0.0
C194 C 0.59258 0.17237 0.40602 0.0
C195 C 0.59725 0.17005 0.44393 0.0
C196 C 0.60936 0.16193 0.4512 0.0
C197 C 0.61777 0.1574 0.41971 0.0
C198 C 0.61292 0.15958 0.38162 0.0
H199 H 0.54433 0.12711 0.3416 0.0
H200 H 0.56465 0.13207 0.37311 0.0
H201 H 0.55352 0.14722 0.37537 0.0
H202 H 0.58271 0.17805 0.40114 0.0
H203 H 0.59084 0.17402 0.46763 0.0
H204 H 0.37874 0.53078 0.3355 0.0
H205 H 0.38313 0.54206 0.40319 0.0
H206 H 0.43874 0.59258 0.37338 0.0
H207 H 0.43449 0.58177 0.30634 0.0
H208 H 0.41376 0.54739 0.45076 0.0
H209 H 0.41331 0.61734 0.437 0.0
H210 H 0.40403 0.59883 0.39938 0.0
H211 H 0.42998 0.61583 0.40349 0.0
C212 C 0.39177 0.54441 0.3433 0.0
C213 C 0.40627 0.55531 0.31544 0.0
C214 C 0.39423 0.55085 0.38191 0.0
C215 C 0.41108 0.56835 0.39305 0.0
C216 C 0.42538 0.57932 0.36522 0.0
H217 H 0.47729 0.62475 0.59798 0.0
H218 H 0.46389 0.61608 0.53189 0.0
C219 C 0.42299 0.57295 0.32687 0.0
C220 C 0.4149 0.57438 0.43426 0.0
H221 H 0.42867 0.61366 0.49461 0.0
C222 C 0.41666 0.56172 0.46058 0.0
C223 C 0.41882 0.59316 0.4468 0.0
C224 C 0.41625 0.60699 0.42024 0.0
C225 C 0.42309 0.56768 0.49872 0.0
C226 C 0.4276 0.58668 0.5109 0.0
C227 C 0.42533 0.59916 0.48497 0.0
C228 C 0.43492 0.59377 0.55049 0.0
C229 C 0.42577 0.55389 0.52526 0.0
C230 C 0.42282 0.58458 0.58251 0.0
C231 C 0.4304 0.58938 0.62001 0.0
C232 C 0.45022 0.60358 0.62621 0.0
C233 C 0.462 0.6137 0.59412 0.0
C234 C 0.45439 0.60877 0.55643 0.0
H235 H 0.42559 0.54156 0.50906 0.0
H236 H 0.43983 0.56187 0.54147 0.0
H237 H 0.41364 0.54755 0.54676 0.0
H238 H 0.40766 0.57322 0.57842 0.0
H239 H 0.42081 0.58155 0.64413 0.0
H240 H 0.84904 0.47468 0.7664 0.0
H241 H 0.84205 0.46222 0.69952 0.0
H242 H 0.8581 0.41869 0.72874 0.0
H243 H 0.86484 0.43067 0.79508 0.0
H244 H 0.86865 0.46091 0.64859 0.0
H245 H 0.80618 0.38591 0.67261 0.0
H246 H 0.81407 0.40511 0.70865 0.0
H247 H 0.82673 0.39144 0.70338 0.0
C248 C 0.85091 0.46235 0.75864 0.0
C249 C 0.85747 0.45368 0.7862 0.0
C250 C 0.84686 0.45523 0.7205 0.0
C251 C 0.84914 0.43926 0.70952 0.0
C252 C 0.85569 0.43064 0.73691 0.0
H253 H 0.86174 0.38551 0.50335 0.0
H254 H 0.85703 0.39353 0.57002 0.0
C255 C 0.85972 0.43769 0.77483 0.0
C256 C 0.84637 0.4325 0.66876 0.0
H257 H 0.82352 0.39137 0.61211 0.0
C258 C 0.85855 0.44581 0.64042 0.0
C259 C 0.83325 0.41273 0.65838 0.0
C260 C 0.81918 0.39802 0.68731 0.0
C261 C 0.85859 0.43969 0.60223 0.0
C262 C 0.84587 0.4198 0.5921 0.0
C263 C 0.83331 0.40657 0.62014 0.0
C264 C 0.84584 0.41257 0.55252 0.0
C265 C 0.87282 0.45438 0.5734 0.0
C266 C 0.84031 0.41998 0.521 0.0
C267 C 0.84312 0.41561 0.48319 0.0
C268 C 0.85132 0.40354 0.47623 0.0
C269 C 0.85547 0.39491 0.50788 0.0
C270 C 0.8528 0.39947 0.54588 0.0
H271 H 0.88443 0.46783 0.58789 0.0
H272 H 0.87995 0.44782 0.55586 0.0
H273 H 0.86471 0.45884 0.55327 0.0
H274 H 0.83454 0.4298 0.52567 0.0
H275 H 0.83942 0.42218 0.45935 0.0
H276 H 0.47778 0.84807 0.66242 0.0
H277 H 0.46535 0.84103 0.72923 0.0
H278 H 0.41644 0.84829 0.69585 0.0
H279 H 0.42837 0.85495 0.6295 0.0
H280 H 0.46076 0.86679 0.77556 0.0
H281 H 0.38928 0.79834 0.75941 0.0
H282 H 0.40806 0.80699 0.72241 0.0
H283 H 0.39195 0.81706 0.72608 0.0
C284 C 0.46424 0.84789 0.66921 0.0
C285 C 0.45415 0.85216 0.64056 0.0
C286 C 0.45714 0.84382 0.70733 0.0
C287 C 0.43979 0.84379 0.71726 0.0
C288 C 0.42956 0.8477 0.68862 0.0
H289 H 0.38638 0.85701 0.92458 0.0
H290 H 0.39361 0.85174 0.85762 0.0
C291 C 0.43658 0.85174 0.65068 0.0
C292 C 0.43335 0.84177 0.75816 0.0
H293 H 0.39354 0.81716 0.81755 0.0
C294 C 0.44619 0.85575 0.78491 0.0
C295 C 0.41425 0.82742 0.77011 0.0
C296 C 0.40016 0.81149 0.74305 0.0
C297 C 0.44021 0.85623 0.82299 0.0
C298 C 0.42098 0.84219 0.83467 0.0
C299 C 0.40823 0.82795 0.80826 0.0
C300 C 0.41413 0.84227 0.87448 0.0
C301 C 0.45432 0.87212 0.85018 0.0
C302 C 0.42271 0.83793 0.90573 0.0
C303 C 0.41876 0.84105 0.94365 0.0
C304 C 0.40603 0.84842 0.95101 0.0
C305 C 0.39631 0.8514 0.91973 0.0
C306 C 0.4004 0.84839 0.88158 0.0
H307 H 0.46705 0.88403 0.8345 0.0
H308 H 0.44676 0.87865 0.86646 0.0
H309 H 0.46001 0.86563 0.87161 0.0
H310 H 0.43312 0.83293 0.90069 0.0
H311 H 0.4262 0.83826 0.96719 0.0
H312 H 0.57603 0.43705 0.11816 0.0
H313 H 0.58682 0.44153 0.05103 0.0
H314 H 0.54709 0.38012 0.02817 0.0
H315 H 0.53587 0.37539 0.09591 0.0
H316 H 0.60392 0.42272 0.00956 0.0
H317 H 0.53314 0.40922 0.9453 0.0
H318 H 0.5384 0.41379 -0.00351 0.0
H319 H 0.53216 0.39032 0.97625 0.0
C320 C 0.56949 0.4244 0.09907 0.0
C321 C 0.55499 0.40583 0.11249 0.0
C322 C 0.57577 0.42702 0.06066 0.0
C323 C 0.5677 0.4112 0.03473 0.0
C324 C 0.55332 0.39256 0.04779 0.0
H325 H 0.58516 0.4198 0.78508 0.0
H326 H 0.57709 0.40657 0.85073 0.0
C327 C 0.54695 0.38989 0.08644 0.0
C328 C 0.57429 0.41468 -0.0061 0.0
H329 H 0.5596 0.41847 0.90277 0.0
C330 C 0.59422 0.42159 0.98604 0.0
C331 C 0.56156 0.4132 0.96348 0.0
C332 C 0.54014 0.40637 0.97059 0.0
C333 C 0.60186 0.42744 0.94851 0.0
C334 C 0.58927 0.42664 0.91839 0.0
C335 C 0.56921 0.41909 0.92602 0.0
C336 C 0.59652 0.43421 0.87894 0.0
C337 C 0.62332 0.43449 0.94155 0.0
C338 C 0.61048 0.4541 0.87304 0.0
C339 C 0.61526 0.46174 0.83538 0.0
C340 C 0.60585 0.44963 0.80323 0.0
C341 C 0.59247 0.42957 0.80931 0.0
C342 C 0.58788 0.42195 0.84678 0.0
H343 H 0.62932 0.42863 0.96376 0.0
H344 H 0.62571 0.43008 0.91231 0.0
H345 H 0.63173 0.45076 0.94339 0.0
H346 H 0.61702 0.46391 0.89752 0.0
H347 H 0.62555 0.47725 0.83156 0.0
H348 H 0.15192 0.52799 0.2594 0.0
H349 H 0.15532 0.53885 0.1916 0.0
H350 H 0.17087 0.59712 0.22994 0.0
H351 H 0.16764 0.58655 0.29734 0.0
H352 H 0.13155 0.55409 0.16218 0.0
H353 H 0.21103 0.6072 0.14305 0.0
H354 H 0.20175 0.58893 0.18112 0.0
H355 H 0.20028 0.61094 0.18594 0.0
C356 C 0.15649 0.54321 0.25335 0.0
C357 C 0.15931 0.55636 0.28364 0.0
C358 C 0.15841 0.54938 0.21469 0.0
C359 C 0.1635 0.56881 0.20595 0.0
C360 C 0.16724 0.58216 0.23615 0.0
H361 H 0.15911 0.62907 -0.00347 0.0
H362 H 0.1631 0.62115 0.06378 0.0
C363 C 0.16519 0.57601 0.27464 0.0
C364 C 0.16258 0.57463 0.16562 0.0
H365 H 0.18948 0.60704 0.09409 0.0
C366 C 0.14424 0.56553 0.14712 0.0
C367 C 0.17912 0.5898 0.14652 0.0
C368 C 0.19921 0.59971 0.16498 0.0
C369 C 0.14193 0.57133 0.10998 0.0
C370 C 0.15849 0.58637 0.0907 0.0
C371 C 0.17684 0.59557 0.1092 0.0
C372 C 0.1571 0.59176 0.05031 0.0
C373 C 0.12175 0.56149 0.09181 0.0
C374 C 0.15279 0.57796 0.02079 0.0
C375 C 0.15047 0.58235 0.98273 0.0
C376 C 0.1525 0.60072 0.97327 0.0
C377 C 0.15733 0.61477 0.00286 0.0
C378 C 0.15967 0.61031 0.04118 0.0
H379 H 0.11 0.55394 0.11385 0.0
H380 H 0.11917 0.57234 0.07607 0.0
H381 H 0.12058 0.55032 0.07058 0.0
H382 H 0.15105 0.56368 0.02731 0.0
H383 H 0.14693 0.57118 0.96079 0.0
H384 H 0.4851 0.31383 0.17597 0.0
H385 H 0.48067 0.28202 0.15446 0.0
H386 H 0.54249 0.30359 0.17149 0.0
H387 H 0.54692 0.33501 0.19367 0.0
H388 H 0.49703 0.27289 0.0933 0.0
H389 H 0.51874 0.25253 0.23074 0.0
H390 H 0.51328 0.27226 0.22791 0.0
H391 H 0.53714 0.27632 0.21416 0.0
C392 C 0.4977 0.31171 0.17535 0.0
C393 C 0.51633 0.32689 0.18688 0.0
C394 C 0.49516 0.29354 0.16303 0.0
C395 C 0.51117 0.29024 0.16215 0.0
C396 C 0.5298 0.30553 0.17299 0.0
H397 H 0.54508 0.21336 0.06051 0.0
H398 H 0.54063 0.23994 0.08593 0.0
C399 C 0.53233 0.32358 0.18545 0.0
C400 C 0.50877 0.27113 0.14876 0.0
H401 H 0.51959 0.2354 0.17339 0.0
C402 C 0.50163 0.26451 0.11107 0.0
C403 C 0.51463 0.26005 0.17202 0.0
C404 C 0.52117 0.26554 0.21359 0.0
C405 C 0.5012 0.24775 0.09542 0.0
C406 C 0.50809 0.2374 0.11796 0.0
C407 C 0.51445 0.24348 0.15611 0.0
C408 C 0.51018 0.22111 0.10147 0.0
C409 C 0.49409 0.2415 0.05441 0.0
C410 C 0.49447 0.20171 0.10184 0.0
C411 C 0.49697 0.18638 0.0874 0.0
C412 C 0.51522 0.19028 0.07235 0.0
C413 C 0.53082 0.20982 0.07179 0.0
C414 C 0.52833 0.22505 0.08631 0.0
H415 H 0.4888 0.25085 0.04083 0.0
H416 H 0.50619 0.24226 0.03647 0.0
H417 H 0.48197 0.226 0.05425 0.0
H418 H 0.48036 0.19842 0.11358 0.0
H419 H 0.48467 0.17151 0.08825 0.0
H420 H 0.31918 0.48331 0.26346 0.0
H421 H 0.28729 0.47807 0.28616 0.0
H422 H 0.30116 0.53474 0.24092 0.0
H423 H 0.33285 0.54003 0.21807 0.0
H424 H 0.28061 0.50123 0.33922 0.0
H425 H 0.24602 0.49847 0.19743 0.0
H426 H 0.26732 0.49553 0.20194 0.0
H427 H 0.27001 0.51966 0.20258 0.0
C428 C 0.31534 0.49456 0.25801 0.0
C429 C 0.32854 0.51207 0.23884 0.0
C430 C 0.29713 0.49155 0.27104 0.0
C431 C 0.2917 0.50588 0.26473 0.0
C432 C 0.30483 0.52329 0.2454 0.0
H433 H 0.21655 0.5381 0.3811 0.0
H434 H 0.24276 0.53283 0.35702 0.0
C435 C 0.32302 0.52634 0.23256 0.0
C436 C 0.27286 0.50328 0.2801 0.0
H437 H 0.23153 0.50442 0.25341 0.0
C438 C 0.26975 0.50164 0.32041 0.0
C439 C 0.25853 0.50356 0.25557 0.0
C440 C 0.2605 0.5042 0.21194 0.0
C441 C 0.25322 0.50131 0.33694 0.0
C442 C 0.23954 0.50284 0.31256 0.0
C443 C 0.24211 0.50344 0.27213 0.0
C444 C 0.2233 0.50527 0.32854 0.0
C445 C 0.25068 0.49958 0.38045 0.0
C446 C 0.20358 0.49164 0.32014 0.0
C447 C 0.18846 0.49461 0.33399 0.0
C448 C 0.19285 0.51142 0.35599 0.0
C449 C 0.21262 0.52497 0.36434 0.0
C450 C 0.22765 0.52193 0.35078 0.0
H451 H 0.25885 0.49287 0.39365 0.0
H452 H 0.25649 0.51446 0.3931 0.0
H453 H 0.23493 0.49062 0.38846 0.0
H454 H 0.19991 0.47876 0.30276 0.0
H455 H 0.17339 0.48395 0.32688 0.0
H456 H 0.69534 0.17142 0.49662 0.0
H457 H 0.7275 0.19736 0.47342 0.0
H458 H 0.71622 0.24133 0.52226 0.0
H459 H 0.68438 0.21569 0.54567 0.0
H460 H 0.73509 0.22758 0.42186 0.0
H461 H 0.7712 0.2584 0.5628 0.0
H462 H 0.74927 0.23464 0.55867 0.0
H463 H 0.74761 0.25668 0.55923 0.0
C464 C 0.69983 0.18661 0.50276 0.0
C465 C 0.68731 0.19147 0.5231 0.0
C466 C 0.7182 0.20141 0.48946 0.0
C467 C 0.72443 0.2213 0.49665 0.0
C468 C 0.71197 0.22611 0.51712 0.0
H469 H 0.79831 0.3281 0.37944 0.0
H470 H 0.77259 0.29636 0.40327 0.0
C471 C 0.69366 0.21139 0.53027 0.0
C472 C 0.74337 0.23721 0.48093 0.0
H473 H 0.78506 0.2794 0.50704 0.0
C474 C 0.74616 0.23874 0.44052 0.0
C475 C 0.75801 0.25163 0.50524 0.0
C476 C 0.7565 0.25017 0.54892 0.0
C477 C 0.7626 0.25489 0.42373 0.0
C478 C 0.77649 0.27004 0.44794 0.0
C479 C 0.7743 0.26792 0.48842 0.0
C480 C 0.79247 0.28883 0.43185 0.0
C481 C 0.76479 0.25573 0.38014 0.0
C482 C 0.81228 0.29538 0.44046 0.0
C483 C 0.82712 0.31365 0.42685 0.0
C484 C 0.82236 0.32579 0.40483 0.0
C485 C 0.80252 0.31912 0.39619 0.0
C486 C 0.78777 0.30088 0.40959 0.0
H487 H 0.75687 0.2408 0.36708 0.0
H488 H 0.75842 0.26439 0.36789 0.0
H489 H 0.78049 0.26289 0.37153 0.0
H490 H 0.81624 0.28639 0.45789 0.0
H491 H 0.84225 0.31841 0.43416 0.0
H492 H 0.52139 0.83652 0.61527 0.0
H493 H 0.52427 0.8088 0.64019 0.0
H494 H 0.48448 0.77143 0.55109 0.0
H495 H 0.48081 0.79873 0.52764 0.0
H496 H 0.47345 0.75373 0.61585 0.0
H497 H 0.55345 0.78225 0.60636 0.0
H498 H 0.54785 0.79784 0.63516 0.0
H499 H 0.54188 0.7947 0.58417 0.0
C500 C 0.5135 0.82244 0.60075 0.0
C501 C 0.50084 0.81977 0.56958 0.0
C502 C 0.51526 0.80661 0.61482 0.0
C503 C 0.5048 0.78796 0.59728 0.0
C504 C 0.49269 0.78558 0.56528 0.0
H505 H 0.51858 0.68595 0.64573 0.0
H506 H 0.52164 0.71648 0.61968 0.0
C507 C 0.49061 0.80122 0.55181 0.0
C508 C 0.50505 0.7705 0.61383 0.0
H509 H 0.53498 0.753 0.64388 0.0
C510 C 0.48695 0.75359 0.62165 0.0
C511 C 0.5226 0.77008 0.6211 0.0
C512 C 0.54253 0.78712 0.61087 0.0
C513 C 0.48585 0.73643 0.63651 0.0
C514 C 0.50338 0.73632 0.64568 0.0
C515 C 0.52152 0.75312 0.63749 0.0
C516 C 0.50303 0.71879 0.66331 0.0
C517 C 0.46581 0.71844 0.6411 0.0
C518 C 0.49216 0.71025 0.69725 0.0
C519 C 0.49005 0.69264 0.71154 0.0
C520 C 0.4993 0.6835 0.693 0.0
C521 C 0.51126 0.69267 0.66055 0.0
C522 C 0.51301 0.71011 0.64568 0.0
H523 H 0.45487 0.71895 0.62138 0.0
H524 H 0.4662 0.70476 0.63499 0.0
H525 H 0.46061 0.71779 0.67131 0.0
H526 H 0.48493 0.71699 0.71231 0.0
H527 H 0.481 0.68608 0.73699 0.0
H528 H 0.69451 0.52494 0.76265 0.0
H529 H 0.72615 0.52994 0.78666 0.0
H530 H 0.71283 0.47376 0.73951 0.0
H531 H 0.68149 0.46874 0.71527 0.0
H532 H 0.73266 0.50655 0.83911 0.0
H533 H 0.76808 0.51025 0.69796 0.0
H534 H 0.74665 0.51299 0.70211 0.0
H535 H 0.74415 0.48893 0.70223 0.0
C536 C 0.69843 0.51375 0.75712 0.0
C537 C 0.68551 0.49648 0.73691 0.0
C538 C 0.71649 0.51661 0.77088 0.0
C539 C 0.72201 0.50237 0.76433 0.0
C540 C 0.70912 0.48516 0.74416 0.0
H541 H 0.79729 0.47008 0.88156 0.0
H542 H 0.77083 0.47495 0.85719 0.0
C543 C 0.69111 0.48226 0.73052 0.0
C544 C 0.74074 0.50485 0.78008 0.0
H545 H 0.78216 0.50376 0.75399 0.0
C546 C 0.74361 0.50621 0.82047 0.0
C547 C 0.75519 0.50468 0.75576 0.0
C548 C 0.7535 0.50433 0.71208 0.0
C549 C 0.76002 0.5064 0.83725 0.0
C550 C 0.77381 0.50499 0.81303 0.0
C551 C 0.77147 0.50463 0.77257 0.0
C552 C 0.7901 0.50269 0.82916 0.0
C553 C 0.76236 0.5079 0.88081 0.0
C554 C 0.80978 0.51653 0.82106 0.0
C555 C 0.82501 0.51379 0.83503 0.0
C556 C 0.82079 0.497 0.8569 0.0
C557 C 0.80106 0.48319 0.86491 0.0
C558 C 0.7859 0.48601 0.8512 0.0
H559 H 0.754 0.51439 0.89407 0.0
H560 H 0.75666 0.49297 0.89312 0.0
H561 H 0.77806 0.51695 0.88914 0.0
H562 H 0.81334 0.52943 0.80384 0.0
H563 H 0.84004 0.52465 0.8282 0.0
H564 H 0.21697 0.67842 0.8863 0.0
H565 H 0.24345 0.70934 0.91208 0.0
H566 H 0.20093 0.72288 0.96014 0.0
H567 H 0.17417 0.69185 0.93418 0.0
H568 H 0.24971 0.74996 0.89822 0.0
H569 H 0.23847 0.72571 0.05279 0.0
H570 H 0.22989 0.7084 0.01301 0.0
H571 H 0.21736 0.72154 0.02473 0.0
C572 C 0.21319 0.68796 0.90225 0.0
C573 C 0.19344 0.68264 0.90829 0.0
C574 C 0.22837 0.70566 0.91689 0.0
C575 C 0.22415 0.71832 0.93816 0.0
C576 C 0.20447 0.71321 0.94399 0.0
H577 H 0.31889 0.83687 0.00495 0.0
H578 H 0.28715 0.81011 0.98197 0.0
C579 C 0.18923 0.69552 0.92908 0.0
C580 C 0.2405 0.73669 0.95458 0.0
H581 H 0.26505 0.75707 0.0391 0.0
C582 C 0.25298 0.75168 0.92906 0.0
C583 C 0.24474 0.73874 -0.00524 0.0
C584 C 0.23204 0.72277 0.02313 0.0
C585 C 0.26988 0.76853 0.94259 0.0
C586 C 0.27432 0.77048 0.98278 0.0
C587 C 0.26156 0.75563 0.00836 0.0
C588 C 0.29297 0.78689 -0.0016 0.0
C589 C 0.28331 0.78368 0.91354 0.0
C590 C 0.30652 0.78274 0.01633 0.0
C591 C 0.32453 0.79793 0.02969 0.0
C592 C 0.3294 0.81766 0.02552 0.0
C593 C 0.31562 0.82183 0.0084 0.0
C594 C 0.29753 0.80656 -0.00494 0.0
H595 H 0.27988 0.7781 0.88324 0.0
H596 H 0.28157 0.79683 0.91561 0.0
H597 H 0.2989 0.78834 0.91975 0.0
H598 H 0.30333 0.76769 0.0193 0.0
H599 H 0.33476 0.79416 0.04279 0.0
H600 H 0.59237 0.15386 0.62842 0.0
H601 H 0.57652 0.15142 0.69036 0.0
H602 H 0.62173 0.14546 0.74925 0.0
H603 H 0.63802 0.14812 0.68665 0.0
H604 H 0.56175 0.12156 0.74567 0.0
H605 H 0.62183 0.19193 0.80486 0.0
H606 H 0.62042 0.18542 0.75421 0.0
H607 H 0.62903 0.17458 0.78941 0.0
C608 C 0.59901 0.15198 0.65444 0.0
C609 C 0.61654 0.15128 0.65268 0.0
C610 C 0.58986 0.15054 0.68985 0.0
C611 C 0.59804 0.14846 0.72438 0.0
C612 C 0.61535 0.14736 0.72287 0.0
H613 H 0.56628 0.14579 0.96362 0.0
H614 H 0.58001 0.14404 0.90163 0.0
C615 C 0.62459 0.1488 0.68719 0.0
C616 C 0.58841 0.14786 0.7617 0.0
H617 H 0.59473 0.17329 0.84582 0.0
C618 C 0.56894 0.13283 0.76767 0.0
C619 C 0.59779 0.16272 0.79003 0.0
C620 C 0.61836 0.17969 0.78435 0.0
C621 C 0.55869 0.1321 0.80161 0.0
C622 C 0.5681 0.14695 0.82993 0.0
C623 C 0.58755 0.16196 0.82393 0.0
C624 C 0.55851 0.14676 0.86706 0.0
C625 C 0.53805 0.11528 0.80725 0.0
C626 C 0.54169 0.14873 0.86823 0.0
C627 C 0.53362 0.14964 0.904 0.0
C628 C 0.54241 0.14874 0.93889 0.0
C629 C 0.5591 0.14653 0.93735 0.0
C630 C 0.56703 0.14555 0.90189 0.0
H631 H 0.53451 0.10298 0.78685 0.0
H632 H 0.53589 0.10962 0.83746 0.0
H633 H 0.52751 0.12054 0.80198 0.0
H634 H 0.53508 0.15 0.84159 0.0
H635 H 0.52082 0.15143 0.90435 0.0
H636 H 0.44609 0.5899 0.80421 0.0
H637 H 0.43412 0.57491 0.86724 0.0
H638 H 0.48545 0.62197 0.92202 0.0
H639 H 0.49769 0.63741 0.85812 0.0
H640 H 0.45097 0.56185 0.92287 0.0
H641 H 0.43887 0.62151 0.97869 0.0
H642 H 0.44333 0.61936 0.92799 0.0
H643 H 0.46328 0.62887 0.96209 0.0
C644 C 0.45499 0.59713 0.8295 0.0
C645 C 0.47285 0.61494 0.82617 0.0
C646 C 0.44808 0.58846 0.86557 0.0
C647 C 0.45878 0.59739 0.89928 0.0
C648 C 0.47685 0.61499 0.89627 0.0
H649 H 0.42636 0.56611 0.139 0.0
H650 H 0.44332 0.58025 0.07837 0.0
C651 C 0.48386 0.62375 0.85986 0.0
C652 C 0.45039 0.58824 0.93729 0.0
H653 H 0.4301 0.59448 0.0198 0.0
C654 C 0.44652 0.56901 0.94425 0.0
C655 C 0.44443 0.59757 0.96482 0.0
C656 C 0.44751 0.61791 0.9581 0.0
C657 C 0.43687 0.55884 0.97815 0.0
C658 C 0.43068 0.56808 0.00542 0.0
C659 C 0.43479 0.58741 -0.00132 0.0
C660 C 0.42049 0.55833 0.04189 0.0
C661 C 0.43358 0.53843 0.98472 0.0
C662 C 0.40196 0.54116 0.04157 0.0
C663 C 0.39214 0.53286 0.07654 0.0
C664 C 0.40069 0.54177 0.11214 0.0
C665 C 0.41931 0.55883 0.11214 0.0
C666 C 0.42907 0.567 0.07746 0.0
H667 H 0.44319 0.53532 0.9659 0.0
H668 H 0.43632 0.53635 0.01553 0.0
H669 H 0.41809 0.52752 0.97778 0.0
H670 H 0.39494 0.53443 0.01432 0.0
H671 H 0.37779 0.51977 0.07568 0.0
H672 H 0.86083 0.49155 0.02343 0.0
H673 H 0.86286 0.4776 0.08619 0.0
H674 H 0.86736 0.43182 0.02606 0.0
H675 H 0.86498 0.44521 0.96416 0.0
H676 H 0.83892 0.41774 0.08313 0.0
H677 H 0.91016 0.47788 0.13879 0.0
H678 H 0.8926 0.48503 0.12458 0.0
H679 H 0.90292 0.47629 0.08853 0.0
C680 C 0.86242 0.47862 0.02376 0.0
C681 C 0.86273 0.4695 0.98888 0.0
C682 C 0.86368 0.47073 0.05952 0.0
C683 C 0.86541 0.45376 0.06067 0.0
C684 C 0.86604 0.44491 0.02583 0.0
H685 H 0.86527 0.37477 0.24109 0.0
H686 H 0.86758 0.39086 0.17839 0.0
C687 C 0.86471 0.45266 0.9904 0.0
C688 C 0.86557 0.44434 0.09781 0.0
H689 H 0.8919 0.45091 0.18081 0.0
C690 C 0.85052 0.42496 0.10449 0.0
C691 C 0.88078 0.4538 0.12541 0.0
C692 C 0.89765 0.47434 0.11901 0.0
C693 C 0.8501 0.41484 0.13835 0.0
C694 C 0.86531 0.42427 0.16597 0.0
C695 C 0.88036 0.44367 0.15934 0.0
C696 C 0.86503 0.41481 0.20333 0.0
C697 C 0.8331 0.39435 0.14478 0.0
C698 C 0.86334 0.42321 0.2379 0.0
C699 C 0.86209 0.41417 0.27336 0.0
C700 C 0.8626 0.39653 0.27512 0.0
C701 C 0.86475 0.38828 0.24055 0.0
C702 C 0.86598 0.39741 0.20482 0.0
H703 H 0.82067 0.39084 0.12477 0.0
H704 H 0.83805 0.38356 0.13956 0.0
H705 H 0.82771 0.39251 0.17515 0.0
H706 H 0.86258 0.43662 0.23739 0.0
H707 H 0.86048 0.42096 0.29941 0.0
H708 H 0.4981 0.86346 0.40591 0.0
H709 H 0.48549 0.86666 0.34241 0.0
H710 H 0.43629 0.86607 0.39923 0.0
H711 H 0.44861 0.86299 0.46189 0.0
H712 H 0.44808 0.83951 0.3115 0.0
H713 H 0.45599 0.91338 0.32656 0.0
H714 H 0.46906 0.90502 0.3571 0.0
H715 H 0.44381 0.89753 0.36704 0.0
C716 C 0.48474 0.86426 0.40474 0.0
C717 C 0.47441 0.86304 0.43887 0.0
C718 C 0.47757 0.86609 0.36858 0.0
C719 C 0.46015 0.86697 0.3663 0.0
C720 C 0.45 0.86592 0.4004 0.0
H721 H 0.37844 0.86029 0.18806 0.0
H722 H 0.39548 0.86301 0.24985 0.0
C723 C 0.45704 0.86402 0.43624 0.0
C724 C 0.45152 0.86744 0.32841 0.0
H725 H 0.43441 0.89283 0.27633 0.0
C726 C 0.44533 0.85128 0.30352 0.0
C727 C 0.44772 0.88271 0.31843 0.0
C728 C 0.45465 0.90074 0.34352 0.0
C729 C 0.43495 0.84972 0.26932 0.0
C730 C 0.43098 0.8649 0.25951 0.0
C731 C 0.43734 0.88116 0.28417 0.0
C732 C 0.42102 0.86444 0.22276 0.0
C733 C 0.42788 0.83159 0.24444 0.0
C734 C 0.43 0.86488 0.18741 0.0
C735 C 0.42036 0.86323 0.15253 0.0
C736 C 0.40158 0.86134 0.15214 0.0
C737 C 0.39285 0.86165 0.18753 0.0
C738 C 0.40255 0.86322 0.22271 0.0
H739 H 0.42754 0.81925 0.26088 0.0
H740 H 0.41297 0.82671 0.23277 0.0
H741 H 0.43803 0.83501 0.21951 0.0
H742 H 0.4444 0.86621 0.18683 0.0
H743 H 0.42761 0.8632 0.12583 0.0
H744 H 0.64094 0.49312 0.57014 0.0
H745 H 0.62547 0.4803 0.50643 0.0
H746 H 0.57606 0.43199 0.56315 0.0
H747 H 0.59113 0.44447 0.62595 0.0
H748 H 0.61425 0.44202 0.47668 0.0
H749 H 0.55001 0.45299 0.48872 0.0
H750 H 0.57147 0.46581 0.5192 0.0
H751 H 0.55314 0.44088 0.53003 0.0
C752 C 0.6267 0.4799 0.56887 0.0
C753 C 0.61724 0.46987 0.60303 0.0
C754 C 0.61789 0.47261 0.5326 0.0
C755 C 0.59946 0.4554 0.53026 0.0
C756 C 0.59004 0.44553 0.56436 0.0
H757 H 0.52312 0.37426 0.35275 0.0
H758 H 0.53816 0.39092 0.41445 0.0
C759 C 0.5988 0.45268 0.6003 0.0
C760 C 0.59041 0.44673 0.49239 0.0
H761 H 0.54835 0.4307 0.43947 0.0
C762 C 0.59997 0.43977 0.46823 0.0
C763 C 0.57165 0.4436 0.48183 0.0
C764 C 0.56102 0.45137 0.50612 0.0
C765 C 0.59103 0.4293 0.43418 0.0
C766 C 0.57219 0.42599 0.42384 0.0
C767 C 0.5627 0.43312 0.44776 0.0
C768 C 0.56262 0.41603 0.38716 0.0
C769 C 0.60162 0.42144 0.40999 0.0
C770 C 0.57121 0.42486 0.35177 0.0
C771 C 0.56276 0.41548 0.31691 0.0
C772 C 0.54542 0.39708 0.31664 0.0
C773 C 0.53651 0.38838 0.35213 0.0
C774 C 0.54505 0.39786 0.38725 0.0
H775 H 0.61342 0.42088 0.42671 0.0
H776 H 0.59123 0.40647 0.39898 0.0
H777 H 0.60847 0.4312 0.38459 0.0
H778 H 0.58457 0.43903 0.35111 0.0
H779 H 0.56998 0.42267 0.29011 0.0
H780 H 0.15345 0.56742 0.46077 0.0
H781 H 0.15228 0.58186 0.52234 0.0
H782 H 0.15068 0.53318 0.58356 0.0
H783 H 0.15207 0.5185 0.52127 0.0
H784 H 0.12439 0.56718 0.58136 0.0
H785 H 0.19773 0.58191 0.63205 0.0
H786 H 0.18965 0.57537 0.58243 0.0
H787 H 0.18073 0.5568 0.61949 0.0
C788 C 0.15278 0.55965 0.48722 0.0
C789 C 0.15296 0.54182 0.48618 0.0
C790 C 0.15207 0.56796 0.52242 0.0
C791 C 0.15161 0.55872 0.55745 0.0
C792 C 0.15134 0.54068 0.55673 0.0
H793 H 0.15282 0.58979 0.79558 0.0
H794 H 0.15123 0.57464 0.73335 0.0
C795 C 0.15204 0.53227 0.52125 0.0
C796 C 0.1518 0.56842 0.59441 0.0
H797 H 0.17952 0.59014 0.67495 0.0
C798 C 0.13642 0.5722 0.60191 0.0
C799 C 0.16765 0.57515 0.62077 0.0
C800 C 0.18499 0.57229 0.61329 0.0
C801 C 0.13627 0.58221 0.63559 0.0
C802 C 0.15207 0.58882 0.66204 0.0
C803 C 0.16748 0.58512 0.65442 0.0
C804 C 0.15227 0.59827 0.69933 0.0
C805 C 0.11904 0.58522 0.64311 0.0
C806 C 0.15335 0.61668 0.70088 0.0
C807 C 0.15419 0.6255 0.73685 0.0
C808 C 0.15406 0.61599 0.7715 0.0
C809 C 0.1529 0.59755 0.76952 0.0
C810 C 0.15203 0.58882 0.73391 0.0
H811 H 0.10642 0.57603 0.62372 0.0
H812 H 0.11412 0.58169 0.67376 0.0
H813 H 0.12356 0.60086 0.63798 0.0
H814 H 0.15383 0.62433 0.67436 0.0
H815 H 0.15514 0.63973 0.73753 0.0
H816 H 0.47376 0.09139 0.06131 0.0
H817 H 0.44787 0.05687 0.06791 0.0
H818 H 0.48033 0.0394 -0.00735 0.0
H819 H 0.50582 0.07353 0.98528 0.0
H820 H 0.44029 0.01796 0.97932 0.0
H821 H 0.4576 0.02024 0.13689 0.0
H822 H 0.44986 0.03697 0.1201 0.0
H823 H 0.47299 0.03998 0.10437 0.0
C824 C 0.47518 0.08021 0.04563 0.0
C825 C 0.49204 0.08523 0.02327 0.0
C826 C 0.46044 0.06047 0.04964 0.0
C827 C 0.46234 0.0455 0.03138 0.0
C828 C 0.47855 0.05065 0.00718 0.0
H829 H 0.44568 0.93547 0.07789 0.0
H830 H 0.4531 0.96927 0.07237 0.0
C831 C 0.49321 0.07024 0.00319 0.0
C832 C 0.44865 0.02433 0.03938 0.0
H833 H 0.43746 0.98943 0.10921 0.0
C834 C 0.43927 0.01168 0.00787 0.0
C835 C 0.44742 0.0162 0.07667 0.0
C836 C 0.45756 0.02895 0.11151 0.0
C837 C 0.42987 0.99115 0.01208 0.0
C838 C 0.42957 0.98306 0.04897 0.0
C839 C 0.43771 0.99568 0.08098 0.0
C840 C 0.42395 0.96207 0.05384 0.0
C841 C 0.4216 0.97837 0.9765 0.0
C842 C 0.40492 0.9466 0.04572 0.0
C843 C 0.40058 0.92698 0.0486 0.0
C844 C 0.41518 0.92255 0.05986 0.0
C845 C 0.43402 0.93817 0.06895 0.0
C846 C 0.43832 0.95762 0.06595 0.0
H847 H 0.42555 0.98713 0.94928 0.0
H848 H 0.427 0.96776 0.97452 0.0
H849 H 0.40535 0.96986 0.97862 0.0
H850 H 0.39349 0.94967 0.03694 0.0
H851 H 0.38589 0.91535 0.04161 0.0
H852 H 0.47293 0.38231 0.20326 0.0
H853 H 0.44642 0.39021 0.19828 0.0
H854 H 0.48165 0.44385 0.26212 0.0
H855 H 0.5077 0.43594 0.26813 0.0
H856 H 0.44311 0.42622 0.28317 0.0
H857 H 0.45061 0.43161 0.12204 0.0
H858 H 0.4441 0.40832 0.14362 0.0
H859 H 0.46797 0.42918 0.15242 0.0
C860 C 0.47487 0.39562 0.21677 0.0
C861 C 0.49261 0.40863 0.23556 0.0
C862 C 0.45976 0.40019 0.21364 0.0
C863 C 0.4622 0.41784 0.22913 0.0
C864 C 0.47942 0.43019 0.24976 0.0
H865 H 0.44198 0.50787 0.17301 0.0
H866 H 0.44947 0.48151 0.17899 0.0
C867 C 0.49441 0.42566 0.25297 0.0
C868 C 0.44781 0.42459 0.22206 0.0
H869 H 0.43201 0.44381 0.15101 0.0
C870 C 0.44029 0.4297 0.25424 0.0
C871 C 0.44418 0.42914 0.18425 0.0
C872 C 0.45219 0.42443 0.14851 0.0
C873 C 0.43054 0.4405 0.24987 0.0
C874 C 0.42787 0.44599 0.21217 0.0
C875 C 0.43407 0.43958 0.17985 0.0
C876 C 0.42186 0.461 0.20598 0.0
C877 C 0.42454 0.44723 0.28579 0.0
C878 C 0.40358 0.45816 0.21838 0.0
C879 C 0.39923 0.47343 0.21523 0.0
C880 C 0.41308 0.49174 0.19951 0.0
C881 C 0.43099 0.4941 0.18565 0.0
C882 C 0.43529 0.47896 0.18887 0.0
H883 H 0.43034 0.44421 0.31279 0.0
H884 H 0.42985 0.46323 0.28428 0.0
H885 H 0.40829 0.4394 0.28777 0.0
H886 H 0.39282 0.4443 0.23103 0.0
H887 H 0.38524 0.47103 0.22595 0.0
H888 H 0.07829 0.50881 0.43663 0.0
H889 H 0.04386 0.48384 0.43114 0.0
H890 H 0.05927 0.44904 0.35793 0.0
H891 H 0.09411 0.4743 0.36294 0.0
H892 H 0.03028 0.45424 0.32621 0.0
H893 H 0.01073 0.42979 0.47792 0.0
H894 H 0.0232 0.45607 0.47499 0.0
H895 H 0.03589 0.44317 0.46143 0.0
C896 C 0.07449 0.49575 0.41974 0.0
C897 C 0.08904 0.49364 0.40008 0.0
C898 C 0.05473 0.48134 0.41696 0.0
C899 C 0.04893 0.46438 0.39463 0.0
C900 C 0.06341 0.46192 0.37565 0.0
H901 H 0.9198 0.38669 0.39238 0.0
H902 H 0.95459 0.39591 0.39649 0.0
C903 C 0.08332 0.47636 0.37861 0.0
C904 C 0.02764 0.45046 0.38832 0.0
H905 H 0.98399 0.42657 0.43695 0.0
C906 C 0.02019 0.4478 0.35037 0.0
C907 C 0.01441 0.44168 0.41963 0.0
C908 C 0.02151 0.44265 0.46072 0.0
C909 C 0.99987 0.43801 0.34327 0.0
C910 C 0.98665 0.43101 0.375 0.0
C911 C 0.99408 0.43222 0.41262 0.0
C912 C 0.96544 0.42452 0.37024 0.0
C913 C 0.99278 0.43576 0.30185 0.0
C914 C 0.95997 0.43755 0.35442 0.0
C915 C 0.94024 0.43238 0.35207 0.0
C916 C 0.92537 0.41406 0.36581 0.0
C917 C 0.93083 0.40088 0.38139 0.0
C918 C 0.9507 0.40613 0.38379 0.0
H919 H 1.00341 0.43512 0.28149 0.0
H920 H 0.97825 0.42231 0.29805 0.0
H921 H 0.9914 0.4487 0.29378 0.0
H922 H 0.97104 0.45201 0.34472 0.0
H923 H 0.93673 0.44298 0.33996 0.0
H924 H 0.53862 0.91883 0.56665 0.0
H925 H 0.56383 0.95365 0.57305 0.0
H926 H 0.52943 0.9698 0.50036 0.0
H927 H 0.50458 0.93541 0.49327 0.0
H928 H 0.56927 0.99126 0.48381 0.0
H929 H 0.55502 0.991 0.64238 0.0
H930 H 0.5624 0.974 0.62539 0.0
H931 H 0.53903 0.97088 0.61111 0.0
C932 C 0.53657 0.9298 0.55165 0.0
C933 C 0.51941 0.92429 0.5299 0.0
C934 C 0.55094 0.9497 0.55553 0.0
C935 C 0.54837 0.96437 0.53769 0.0
C936 C 0.53173 0.95878 0.51452 0.0
H937 H 0.56904 0.07686 0.58253 0.0
H938 H 0.5601 0.04255 0.57776 0.0
C939 C 0.51744 0.93904 0.51069 0.0
C940 C 0.5621 0.98566 0.54448 0.0
H941 H 0.57509 0.02147 0.61315 0.0
C942 C 0.5709 0.9979 0.5122 0.0
C943 C 0.56412 0.99428 0.58155 0.0
C944 C 0.55458 0.98196 0.61716 0.0
C945 C 0.58065 0.01849 0.51555 0.0
C946 C 0.5819 0.02709 0.55235 0.0
C947 C 0.57415 0.01486 0.58499 0.0
C948 C 0.58843 0.04833 0.55676 0.0
C949 C 0.58834 0.03081 0.47929 0.0
C950 C 0.60752 0.06318 0.54702 0.0
C951 C 0.61274 0.08306 0.54948 0.0
C952 C 0.59897 0.08842 0.56192 0.0
C953 C 0.58007 0.07343 0.57263 0.0
C954 C 0.57491 0.05371 0.57007 0.0
H955 H 0.58342 0.02175 0.45244 0.0
H956 H 0.58346 0.04184 0.47793 0.0
H957 H 0.60463 0.03882 0.47981 0.0
H958 H 0.61833 0.05941 0.5373 0.0
H959 H 0.62745 0.09418 0.54123 0.0
H960 H 0.58449 0.50724 0.63569 0.0
H961 H 0.57275 0.53064 0.64077 0.0
H962 H 0.60335 0.55157 0.74981 0.0
H963 H 0.61586 0.52862 0.74387 0.0
H964 H 0.54847 0.52795 0.69461 0.0
H965 H 0.61335 0.60265 0.70323 0.0
H966 H 0.61505 0.58162 0.68737 0.0
H967 H 0.61407 0.58614 0.73835 0.0
C968 C 0.58914 0.51719 0.66025 0.0
C969 C 0.60101 0.51605 0.68949 0.0
C970 C 0.58242 0.53058 0.66315 0.0
C971 C 0.58713 0.54296 0.69564 0.0
C972 C 0.5998 0.54252 0.72404 0.0
H973 H 0.50597 0.5771 0.78386 0.0
H974 H 0.52919 0.56532 0.77526 0.0
C975 C 0.60688 0.52932 0.72074 0.0
C976 C 0.57662 0.55413 0.70192 0.0
H977 H 0.5825 0.5994 0.72264 0.0
C978 C 0.55601 0.54361 0.70037 0.0
C979 C 0.58634 0.57461 0.70925 0.0
C980 C 0.60843 0.58696 0.70927 0.0
C981 C 0.54487 0.55282 0.70632 0.0
C982 C 0.5545 0.57309 0.71539 0.0
C983 C 0.57513 0.58381 0.71622 0.0
C984 C 0.54308 0.58303 0.72441 0.0
C985 C 0.52281 0.54071 0.70241 0.0
C986 C 0.54397 0.59783 0.70008 0.0
C987 C 0.53082 0.60484 0.70529 0.0
C988 C 0.51651 0.59702 0.73471 0.0
C989 C 0.51659 0.58317 0.7605 0.0
C990 C 0.52984 0.5764 0.75561 0.0
H991 H 0.51829 0.52722 0.68492 0.0
H992 H 0.51619 0.53609 0.73169 0.0
H993 H 0.51673 0.54931 0.68858 0.0
H994 H 0.55416 0.60322 0.67593 0.0
H995 H 0.53115 0.61555 0.68502 0.0
H996 H 0.0813 0.58685 0.7968 0.0
H997 H 0.04638 0.57606 0.8022 0.0
H998 H 0.05691 0.60576 0.91253 0.0
H999 H 0.09208 0.61732 0.90632 0.0
H1000 H 0.02524 0.55145 0.85615 0.0
H1001 H 0.01573 0.61647 0.86887 0.0
H1002 H 0.03824 0.61816 0.85168 0.0
H1003 H 0.03328 0.61701 0.90294 0.0
C1004 C 0.07624 0.59158 0.82163 0.0
C1005 C 0.08937 0.60282 0.85125 0.0
C1006 C 0.05628 0.58541 0.82472 0.0
C1007 C 0.04892 0.59006 0.85777 0.0
C1008 C 0.0622 0.60229 0.88636 0.0
H1009 H 0.93551 0.50867 0.95115 0.0
H1010 H 0.97021 0.53266 0.94176 0.0
C1011 C 0.08231 0.60882 0.88289 0.0
C1012 C 0.02734 0.57962 0.86476 0.0
H1013 H 0.98843 0.58558 0.88945 0.0
C1014 C 0.01723 0.55901 0.86298 0.0
C1015 C 0.01676 0.58938 0.87361 0.0
C1016 C 0.02652 0.61148 0.87402 0.0
C1017 C 0.99705 0.5479 0.87029 0.0
C1018 C 0.98663 0.55757 0.88092 0.0
C1019 C 0.99652 0.57819 0.88188 0.0
C1020 C 0.96548 0.54613 0.8912 0.0
C1021 C 0.98704 0.52583 0.86629 0.0
C1022 C 0.9512 0.54659 0.86737 0.0
C1023 C 0.93123 0.533 0.87302 0.0
C1024 C 0.92535 0.51869 0.90237 0.0
C1025 C 0.93961 0.51931 0.92791 0.0
C1026 C 0.95945 0.533 0.92258 0.0
H1027 H 0.99574 0.52125 0.8481 0.0
H1028 H 0.98536 0.51918 0.89548 0.0
H1029 H 0.97221 0.51981 0.85321 0.0
H1030 H 0.95556 0.55667 0.84308 0.0
H1031 H 0.92057 0.53289 0.85291 0.0
loop_
_geom_bond_atom_site_label_1
_geom_bond_atom_site_label_2
_geom_bond_distance
_geom_bond_site_symmetry_2
_ccdc_geom_bond_type
Co0 O1 2.216 . S
Co0 O2 2.091 . S
Co0 O4 2.004 . S
Co0 O10 2.021 . S
Co0 O12 2.137 1_554 S
Co0 O13 2.244 . S
O1 Co0 2.216 . S
O1 C8 1.247 . S
O2 Co0 2.091 . S
O2 C8 1.261 . S
C3 O12 1.247 . S
C3 O13 1.272 1_556 S
O4 Co0 2.004 . S
O4 C9 1.259 . S
Co5 O6 2.061 . S
Co5 O11 2.052 . S
Co5 O13 2.135 . S
O6 Co5 2.061 . S
O6 C9 1.235 . S
C7 O10 1.238 . S
C7 O11 1.241 . S
C8 O1 1.247 . S
C8 O2 1.261 . S
C9 O4 1.259 . S
C9 O6 1.235 . S
O10 Co0 2.021 . S
O10 C7 1.238 . S
O11 Co5 2.052 . S
O11 C7 1.241 . S
O12 Co0 2.137 1_556 S
O12 C3 1.247 . S
O13 Co0 2.244 . S
O13 C3 1.272 1_554 S
O13 Co5 2.135 . S
Co14 O15 2.216 . S
Co14 O16 2.091 . S
Co14 O18 2.004 . S
Co14 O24 2.021 . S
Co14 O26 2.137 . S
Co14 O27 2.244 . S
O15 Co14 2.216 . S
O15 C22 1.247 . S
O16 Co14 2.091 . S
O16 C22 1.261 . S
C17 O26 1.247 . S
C17 O27 1.272 . S
O18 Co14 2.004 . S
O18 C23 1.259 . S
Co19 O20 2.061 . S
Co19 O25 2.052 . S
Co19 O27 2.135 . S
O20 Co19 2.061 . S
O20 C23 1.235 . S
C21 O24 1.238 . S
C21 O25 1.241 . S
C22 O15 1.247 . S
C22 O16 1.261 . S
C23 O18 1.259 . S
C23 O20 1.235 . S
O24 Co14 2.021 . S
O24 C21 1.238 . S
O25 Co19 2.052 . S
O25 C21 1.241 . S
O26 Co14 2.137 . S
O26 C17 1.247 . S
O27 Co14 2.244 . S
O27 C17 1.272 . S
O27 Co19 2.135 . S
Co28 O29 2.216 . S
Co28 O30 2.091 . S
Co28 O32 2.004 . S
Co28 O38 2.021 . S
Co28 O40 2.137 . S
Co28 O41 2.244 . S
O29 Co28 2.216 . S
O29 C36 1.247 . S
O30 Co28 2.091 . S
O30 C36 1.261 . S
C31 O40 1.247 . S
C31 O41 1.272 . S
O32 Co28 2.004 . S
O32 C37 1.259 . S
Co33 O34 2.061 . S
Co33 O39 2.052 . S
Co33 O41 2.135 . S
O34 Co33 2.061 . S
O34 C37 1.235 . S
C35 O38 1.238 . S
C35 O39 1.241 . S
C36 O29 1.247 . S
C36 O30 1.261 . S
C37 O32 1.259 . S
C37 O34 1.235 . S
O38 Co28 2.021 . S
O38 C35 1.238 . S
O39 Co33 2.052 . S
O39 C35 1.241 . S
O40 Co28 2.137 . S
O40 C31 1.247 . S
O41 Co28 2.244 . S
O41 C31 1.272 . S
O41 Co33 2.135 . S
Co42 O43 2.216 . S
Co42 O44 2.091 . S
Co42 O46 2.004 . S
Co42 O52 2.021 . S
Co42 O54 2.137 . S
Co42 O55 2.244 . S
O43 Co42 2.216 . S
O43 C50 1.247 . S
O44 Co42 2.091 . S
O44 C50 1.261 . S
C45 O54 1.247 . S
C45 O55 1.272 . S
O46 Co42 2.004 . S
O46 C51 1.259 . S
Co47 O48 2.061 . S
Co47 O53 2.052 . S
Co47 O55 2.135 . S
O48 Co47 2.061 . S
O48 C51 1.235 . S
C49 O52 1.238 . S
C49 O53 1.241 . S
C50 O43 1.247 . S
C50 O44 1.261 . S
C51 O46 1.259 . S
C51 O48 1.235 . S
O52 Co42 2.021 . S
O52 C49 1.238 . S
O53 Co47 2.052 . S
O53 C49 1.241 . S
O54 Co42 2.137 . S
O54 C45 1.247 . S
O55 Co42 2.244 . S
O55 C45 1.272 . S
O55 Co47 2.135 . S
Co56 O57 2.216 . S
Co56 O58 2.091 . S
Co56 O60 2.004 . S
Co56 O66 2.021 . S
Co56 O68 2.137 . S
Co56 O69 2.244 . S
O57 Co56 2.216 . S
O57 C64 1.247 . S
O58 Co56 2.091 . S
O58 C64 1.261 . S
C59 O68 1.247 . S
C59 O69 1.272 . S
O60 Co56 2.004 . S
O60 C65 1.259 . S
Co61 O62 2.061 . S
Co61 O67 2.052 . S
Co61 O69 2.135 . S
O62 Co61 2.061 . S
O62 C65 1.235 . S
C63 O66 1.238 . S
C63 O67 1.241 . S
C64 O57 1.247 . S
C64 O58 1.261 . S
C65 O60 1.259 . S
C65 O62 1.235 . S
O66 Co56 2.021 . S
O66 C63 1.238 . S
O67 Co61 2.052 . S
O67 C63 1.241 . S
O68 Co56 2.137 . S
O68 C59 1.247 . S
O69 Co56 2.244 . S
O69 C59 1.272 . S
O69 Co61 2.135 . S
Co70 O71 2.216 . S
Co70 O72 2.091 . S
Co70 O74 2.004 . S
Co70 O80 2.021 . S
Co70 O82 2.137 . S
Co70 O83 2.244 . S
O71 Co70 2.216 . S
O71 C78 1.247 . S
O72 Co70 2.091 . S
O72 C78 1.261 . S
C73 O82 1.247 . S
C73 O83 1.272 . S
O74 Co70 2.004 . S
O74 C79 1.259 . S
Co75 O76 2.061 . S
Co75 O81 2.052 . S
Co75 O83 2.135 . S
O76 Co75 2.061 . S
O76 C79 1.235 . S
C77 O80 1.238 . S
C77 O81 1.241 . S
C78 O71 1.247 . S
C78 O72 1.261 . S
C79 O74 1.259 . S
C79 O76 1.235 . S
O80 Co70 2.021 . S
O80 C77 1.238 . S
O81 Co75 2.052 . S
O81 C77 1.241 . S
O82 Co70 2.137 . S
O82 C73 1.247 . S
O83 Co70 2.244 . S
O83 C73 1.272 . S
O83 Co75 2.135 . S
Co84 O85 2.216 . S
Co84 O86 2.091 . S
Co84 O88 2.004 . S
Co84 O94 2.021 . S
Co84 O96 2.137 . S
Co84 O97 2.244 . S
O85 Co84 2.216 . S
O85 C92 1.247 . S
O86 Co84 2.091 . S
O86 C92 1.261 . S
C87 O96 1.247 . S
C87 O97 1.272 . S
O88 Co84 2.004 . S
O88 C93 1.259 . S
Co89 O90 2.061 . S
Co89 O95 2.052 . S
Co89 O97 2.135 . S
O90 Co89 2.061 . S
O90 C93 1.235 . S
C91 O94 1.238 . S
C91 O95 1.241 . S
C92 O85 1.247 . S
C92 O86 1.261 . S
C93 O88 1.259 . S
C93 O90 1.235 . S
O94 Co84 2.021 . S
O94 C91 1.238 . S
O95 Co89 2.052 . S
O95 C91 1.241 . S
O96 Co84 2.137 . S
O96 C87 1.247 . S
O97 Co84 2.244 . S
O97 C87 1.272 . S
O97 Co89 2.135 . S
Co98 O99 2.216 . S
Co98 O100 2.091 . S
Co98 O102 2.004 . S
Co98 O108 2.021 1_554 S
Co98 O110 2.137 . S
Co98 O111 2.244 . S
O99 Co98 2.216 . S
O99 C106 1.247 . S
O100 Co98 2.091 . S
O100 C106 1.261 . S
C101 O110 1.247 . S
C101 O111 1.272 . S
O102 Co98 2.004 . S
O102 C107 1.259 . S
Co103 O104 2.061 . S
Co103 O109 2.055 . S
Co103 O111 2.135 . S
O104 Co103 2.061 . S
O104 C107 1.235 . S
C105 O108 1.238 . S
C105 O109 1.240 1_556 S
C106 O99 1.247 . S
C106 O100 1.261 . S
C107 O102 1.259 . S
C107 O104 1.235 . S
O108 Co98 2.021 1_556 S
O108 C105 1.238 . S
O109 Co103 2.055 . S
O109 C105 1.240 1_554 S
O110 Co98 2.137 . S
O110 C101 1.247 . S
O111 Co98 2.244 . S
O111 C101 1.272 . S
O111 Co103 2.135 . S
Co112 O113 2.216 . S
Co112 O114 2.091 . S
Co112 O116 2.004 . S
Co112 O122 2.021 . S
Co112 O124 2.137 . S
Co112 O125 2.244 . S
O113 Co112 2.216 . S
O113 C120 1.247 . S
O114 Co112 2.091 . S
O114 C120 1.261 . S
C115 O124 1.247 . S
C115 O125 1.272 . S
O116 Co112 2.004 . S
O116 C121 1.259 . S
Co117 O118 2.061 . S
Co117 O123 2.052 . S
Co117 O125 2.135 . S
O118 Co117 2.061 . S
O118 C121 1.235 . S
C119 O122 1.238 . S
C119 O123 1.241 . S
C120 O113 1.247 . S
C120 O114 1.261 . S
C121 O116 1.259 . S
C121 O118 1.235 . S
O122 Co112 2.021 . S
O122 C119 1.238 . S
O123 Co117 2.052 . S
O123 C119 1.241 . S
O124 Co112 2.137 . S
O124 C115 1.247 . S
O125 Co112 2.244 . S
O125 C115 1.272 . S
O125 Co117 2.135 . S
Co126 O127 2.216 . S
Co126 O128 2.091 . S
Co126 O130 2.004 . S
Co126 O136 2.021 . S
Co126 O138 2.137 . S
Co126 O139 2.244 . S
O127 Co126 2.216 . S
O127 C134 1.247 . S
O128 Co126 2.091 . S
O128 C134 1.261 . S
C129 O138 1.247 . S
C129 O139 1.272 . S
O130 Co126 2.004 . S
O130 C135 1.259 . S
Co131 O132 2.061 . S
Co131 O137 2.052 . S
Co131 O139 2.135 . S
O132 Co131 2.061 . S
O132 C135 1.235 . S
C133 O136 1.238 . S
C133 O137 1.241 . S
C134 O127 1.247 . S
C134 O128 1.261 . S
C135 O130 1.259 . S
C135 O132 1.235 . S
O136 Co126 2.021 . S
O136 C133 1.238 . S
O137 Co131 2.052 . S
O137 C133 1.241 . S
O138 Co126 2.137 . S
O138 C129 1.247 . S
O139 Co126 2.244 . S
O139 C129 1.272 . S
O139 Co131 2.135 . S
Co140 O141 2.216 . S
Co140 O142 2.091 . S
Co140 O144 2.004 . S
Co140 O150 2.021 . S
Co140 O152 2.137 . S
Co140 O153 2.244 . S
O141 Co140 2.216 . S
O141 C148 1.247 . S
O142 Co140 2.091 . S
O142 C148 1.261 . S
C143 O152 1.247 . S
C143 O153 1.272 . S
O144 Co140 2.004 . S
O144 C149 1.259 . S
Co145 O146 2.061 . S
Co145 O151 2.052 . S
Co145 O153 2.135 . S
O146 Co145 2.061 . S
O146 C149 1.235 . S
C147 O150 1.238 . S
C147 O151 1.241 . S
C148 O141 1.247 . S
C148 O142 1.261 . S
C149 O144 1.259 . S
C149 O146 1.235 . S
O150 Co140 2.021 . S
O150 C147 1.238 . S
O151 Co145 2.052 . S
O151 C147 1.241 . S
O152 Co140 2.137 . S
O152 C143 1.247 . S
O153 Co140 2.244 . S
O153 C143 1.272 . S
O153 Co145 2.135 . S
Co154 O155 2.216 . S
Co154 O156 2.091 . S
Co154 O158 2.004 . S
Co154 O164 2.021 . S
Co154 O166 2.137 . S
Co154 O167 2.244 . S
O155 Co154 2.216 . S
O155 C162 1.247 . S
O156 Co154 2.091 . S
O156 C162 1.261 . S
C157 O166 1.247 . S
C157 O167 1.272 . S
O158 Co154 2.004 . S
O158 C163 1.259 . S
Co159 O160 2.061 . S
Co159 O165 2.052 . S
Co159 O167 2.135 . S
O160 Co159 2.061 . S
O160 C163 1.235 . S
C161 O164 1.238 . S
C161 O165 1.241 . S
C162 O155 1.247 . S
C162 O156 1.261 . S
C163 O158 1.259 . S
C163 O160 1.235 . S
O164 Co154 2.021 . S
O164 C161 1.238 . S
O165 Co159 2.052 . S
O165 C161 1.241 . S
O166 Co154 2.137 . S
O166 C157 1.247 . S
O167 Co154 2.244 . S
O167 C157 1.272 . S
O167 Co159 2.135 . S
H168 C176 0.929 . S
H169 C178 0.930 . S
H170 C180 0.930 . S
H171 C183 0.929 . S
H172 C186 0.930 . S
H173 C188 0.960 . S
H174 C188 0.960 . S
H175 C188 0.960 . S
C176 H168 0.929 . S
C176 C177 1.377 . S
C176 C178 1.384 . S
C177 C176 1.377 . S
C177 C183 1.390 . S
C178 H169 0.930 . S
C178 C176 1.384 . S
C178 C179 1.372 . S
C179 C178 1.372 . S
C179 C180 1.400 . S
C179 C184 1.490 . S
C180 H170 0.930 . S
C180 C179 1.400 . S
C180 C183 1.386 . S
H181 C197 0.930 . S
H182 C198 0.931 . S
C183 H171 0.929 . S
C183 C177 1.390 . S
C183 C180 1.386 . S
C184 C179 1.490 . S
C184 C186 1.395 . S
C184 C187 1.403 . S
H185 C191 0.930 . S
C186 H172 0.930 . S
C186 C184 1.395 . S
C186 C189 1.403 . S
C187 C184 1.403 . S
C187 C188 1.524 . S
C187 C191 1.400 . S
C188 H173 0.960 . S
C188 H174 0.960 . S
C188 H175 0.960 . S
C188 C187 1.524 . S
C189 C186 1.403 . S
C189 C190 1.392 . S
C189 C193 1.495 . S
C190 C189 1.392 . S
C190 C191 1.385 . S
C190 C192 1.478 . S
C191 H185 0.930 . S
C191 C187 1.400 . S
C191 C190 1.385 . S
C192 C190 1.478 . S
C192 C194 1.381 . S
C192 C198 1.383 . S
C193 C189 1.495 . S
C193 H199 0.959 . S
C193 H200 0.961 . S
C193 H201 0.960 . S
C194 C192 1.381 . S
C194 C195 1.394 . S
C194 H202 0.930 . S
C195 C194 1.394 . S
C195 C196 1.383 . S
C195 H203 0.929 . S
C196 C195 1.383 . S
C196 C197 1.377 . S
C197 H181 0.930 . S
C197 C196 1.377 . S
C197 C198 1.379 . S
C198 H182 0.931 . S
C198 C192 1.383 . S
C198 C197 1.379 . S
H199 C193 0.959 . S
H200 C193 0.961 . S
H201 C193 0.960 . S
H202 C194 0.930 . S
H203 C195 0.929 . S
H204 C212 0.929 . S
H205 C214 0.930 . S
H206 C216 0.930 . S
H207 C219 0.929 . S
H208 C222 0.930 . S
H209 C224 0.960 . S
H210 C224 0.960 . S
H211 C224 0.960 . S
C212 H204 0.929 . S
C212 C213 1.377 . S
C212 C214 1.384 . S
C213 C212 1.377 . S
C213 C219 1.390 . S
C214 H205 0.930 . S
C214 C212 1.384 . S
C214 C215 1.372 . S
C215 C214 1.372 . S
C215 C216 1.400 . S
C215 C220 1.490 . S
C216 H206 0.930 . S
C216 C215 1.400 . S
C216 C219 1.386 . S
H217 C233 0.930 . S
H218 C234 0.931 . S
C219 H207 0.929 . S
C219 C213 1.390 . S
C219 C216 1.386 . S
C220 C215 1.490 . S
C220 C222 1.395 . S
C220 C223 1.403 . S
H221 C227 0.930 . S
C222 H208 0.930 . S
C222 C220 1.395 . S
C222 C225 1.403 . S
C223 C220 1.403 . S
C223 C224 1.524 . S
C223 C227 1.400 . S
C224 H209 0.960 . S
C224 H210 0.960 . S
C224 H211 0.960 . S
C224 C223 1.524 . S
C225 C222 1.403 . S
C225 C226 1.392 . S
C225 C229 1.495 . S
C226 C225 1.392 . S
C226 C227 1.385 . S
C226 C228 1.478 . S
C227 H221 0.930 . S
C227 C223 1.400 . S
C227 C226 1.385 . S
C228 C226 1.478 . S
C228 C230 1.381 . S
C228 C234 1.383 . S
C229 C225 1.495 . S
C229 H235 0.959 . S
C229 H236 0.961 . S
C229 H237 0.960 . S
C230 C228 1.381 . S
C230 C231 1.394 . S
C230 H238 0.930 . S
C231 C230 1.394 . S
C231 C232 1.383 . S
C231 H239 0.929 . S
C232 C231 1.383 . S
C232 C233 1.377 . S
C233 H217 0.930 . S
C233 C232 1.377 . S
C233 C234 1.379 . S
C234 H218 0.931 . S
C234 C228 1.383 . S
C234 C233 1.379 . S
H235 C229 0.959 . S
H236 C229 0.961 . S
H237 C229 0.960 . S
H238 C230 0.930 . S
H239 C231 0.929 . S
H240 C248 0.929 . S
H241 C250 0.930 . S
H242 C252 0.930 . S
H243 C255 0.929 . S
H244 C258 0.930 . S
H245 C260 0.960 . S
H246 C260 0.960 . S
H247 C260 0.960 . S
C248 H240 0.929 . S
C248 C249 1.377 . S
C248 C250 1.384 . S
C249 C248 1.377 . S
C249 C255 1.390 . S
C250 H241 0.930 . S
C250 C248 1.384 . S
C250 C251 1.372 . S
C251 C250 1.372 . S
C251 C252 1.400 . S
C251 C256 1.490 . S
C252 H242 0.930 . S
C252 C251 1.400 . S
C252 C255 1.386 . S
H253 C269 0.930 . S
H254 C270 0.931 . S
C255 H243 0.929 . S
C255 C249 1.390 . S
C255 C252 1.386 . S
C256 C251 1.490 . S
C256 C258 1.395 . S
C256 C259 1.403 . S
H257 C263 0.930 . S
C258 H244 0.930 . S
C258 C256 1.395 . S
C258 C261 1.403 . S
C259 C256 1.403 . S
C259 C260 1.524 . S
C259 C263 1.400 . S
C260 H245 0.960 . S
C260 H246 0.960 . S
C260 H247 0.960 . S
C260 C259 1.524 . S
C261 C258 1.403 . S
C261 C262 1.392 . S
C261 C265 1.495 . S
C262 C261 1.392 . S
C262 C263 1.385 . S
C262 C264 1.478 . S
C263 H257 0.930 . S
C263 C259 1.400 . S
C263 C262 1.385 . S
C264 C262 1.478 . S
C264 C266 1.381 . S
C264 C270 1.383 . S
C265 C261 1.495 . S
C265 H271 0.959 . S
C265 H272 0.961 . S
C265 H273 0.960 . S
C266 C264 1.381 . S
C266 C267 1.394 . S
C266 H274 0.930 . S
C267 C266 1.394 . S
C267 C268 1.383 . S
C267 H275 0.929 . S
C268 C267 1.383 . S
C268 C269 1.377 . S
C269 H253 0.930 . S
C269 C268 1.377 . S
C269 C270 1.379 . S
C270 H254 0.931 . S
C270 C264 1.383 . S
C270 C269 1.379 . S
H271 C265 0.959 . S
H272 C265 0.961 . S
H273 C265 0.960 . S
H274 C266 0.930 . S
H275 C267 0.929 . S
H276 C284 0.929 . S
H277 C286 0.930 . S
H278 C288 0.930 . S
H279 C291 0.929 . S
H280 C294 0.930 . S
H281 C296 0.960 . S
H282 C296 0.960 . S
H283 C296 0.960 . S
C284 H276 0.929 . S
C284 C285 1.377 . S
C284 C286 1.384 . S
C285 C284 1.377 . S
C285 C291 1.390 . S
C286 H277 0.930 . S
C286 C284 1.384 . S
C286 C287 1.372 . S
C287 C286 1.372 . S
C287 C288 1.400 . S
C287 C292 1.490 . S
C288 H278 0.930 . S
C288 C287 1.400 . S
C288 C291 1.386 . S
H289 C305 0.930 . S
H290 C306 0.931 . S
C291 H279 0.929 . S
C291 C285 1.390 . S
C291 C288 1.386 . S
C292 C287 1.490 . S
C292 C294 1.395 . S
C292 C295 1.403 . S
H293 C299 0.930 . S
C294 H280 0.930 . S
C294 C292 1.395 . S
C294 C297 1.403 . S
C295 C292 1.403 . S
C295 C296 1.524 . S
C295 C299 1.400 . S
C296 H281 0.960 . S
C296 H282 0.960 . S
C296 H283 0.960 . S
C296 C295 1.524 . S
C297 C294 1.403 . S
C297 C298 1.392 . S
C297 C301 1.495 . S
C298 C297 1.392 . S
C298 C299 1.385 . S
C298 C300 1.478 . S
C299 H293 0.930 . S
C299 C295 1.400 . S
C299 C298 1.385 . S
C300 C298 1.478 . S
C300 C302 1.381 . S
C300 C306 1.383 . S
C301 C297 1.495 . S
C301 H307 0.959 . S
C301 H308 0.961 . S
C301 H309 0.960 . S
C302 C300 1.381 . S
C302 C303 1.394 . S
C302 H310 0.930 . S
C303 C302 1.394 . S
C303 C304 1.383 . S
C303 H311 0.929 . S
C304 C303 1.383 . S
C304 C305 1.377 . S
C305 H289 0.930 . S
C305 C304 1.377 . S
C305 C306 1.379 . S
C306 H290 0.931 . S
C306 C300 1.383 . S
C306 C305 1.379 . S
H307 C301 0.959 . S
H308 C301 0.961 . S
H309 C301 0.960 . S
H310 C302 0.930 . S
H311 C303 0.929 . S
H312 C320 0.929 . S
H313 C322 0.930 . S
H314 C324 0.930 . S
H315 C327 0.929 . S
H316 C330 0.930 . S
H317 C332 0.960 . S
H318 C332 0.960 . S
H319 C332 0.960 . S
C320 H312 0.929 . S
C320 C321 1.377 . S
C320 C322 1.384 . S
C321 C320 1.377 . S
C321 C327 1.390 . S
C322 H313 0.930 . S
C322 C320 1.384 . S
C322 C323 1.372 . S
C323 C322 1.372 . S
C323 C324 1.400 . S
C323 C328 1.490 . S
C324 H314 0.930 . S
C324 C323 1.400 . S
C324 C327 1.386 . S
H325 C341 0.930 . S
H326 C342 0.931 . S
C327 H315 0.929 . S
C327 C321 1.390 . S
C327 C324 1.386 . S
C328 C323 1.490 . S
C328 C330 1.395 . S
C328 C331 1.403 1_554 S
H329 C335 0.930 . S
C330 H316 0.930 . S
C330 C328 1.395 . S
C330 C333 1.403 1_554 S
C331 C328 1.403 1_556 S
C331 C332 1.524 . S
C331 C335 1.400 . S
C332 H317 0.960 . S
C332 H318 0.960 . S
C332 H319 0.960 . S
C332 C331 1.524 . S
C333 C330 1.403 1_556 S
C333 C334 1.392 . S
C333 C337 1.495 . S
C334 C333 1.392 . S
C334 C335 1.385 . S
C334 C336 1.478 . S
C335 H329 0.930 . S
C335 C331 1.400 . S
C335 C334 1.385 . S
C336 C334 1.478 . S
C336 C338 1.381 . S
C336 C342 1.383 . S
C337 C333 1.495 . S
C337 H343 0.959 1_556 S
C337 H344 0.961 . S
C337 H345 0.960 . S
C338 C336 1.381 . S
C338 C339 1.394 . S
C338 H346 0.930 . S
C339 C338 1.394 . S
C339 C340 1.383 . S
C339 H347 0.929 . S
C340 C339 1.383 . S
C340 C341 1.377 . S
C341 H325 0.930 . S
C341 C340 1.377 . S
C341 C342 1.379 . S
C342 H326 0.931 . S
C342 C336 1.383 . S
C342 C341 1.379 . S
H343 C337 0.959 1_554 S
H344 C337 0.961 . S
H345 C337 0.960 . S
H346 C338 0.930 . S
H347 C339 0.929 . S
H348 C356 0.929 . S
H349 C358 0.930 . S
H350 C360 0.930 . S
H351 C363 0.929 . S
H352 C366 0.930 . S
H353 C368 0.960 . S
H354 C368 0.960 . S
H355 C368 0.960 . S
C356 H348 0.929 . S
C356 C357 1.377 . S
C356 C358 1.384 . S
C357 C356 1.377 . S
C357 C363 1.390 . S
C358 H349 0.930 . S
C358 C356 1.384 . S
C358 C359 1.372 . S
C359 C358 1.372 . S
C359 C360 1.400 . S
C359 C364 1.490 . S
C360 H350 0.930 . S
C360 C359 1.400 . S
C360 C363 1.386 . S
H361 C377 0.930 . S
H362 C378 0.931 . S
C363 H351 0.929 . S
C363 C357 1.390 . S
C363 C360 1.386 . S
C364 C359 1.490 . S
C364 C366 1.395 . S
C364 C367 1.403 . S
H365 C371 0.930 . S
C366 H352 0.930 . S
C366 C364 1.395 . S
C366 C369 1.403 . S
C367 C364 1.403 . S
C367 C368 1.524 . S
C367 C371 1.400 . S
C368 H353 0.960 . S
C368 H354 0.960 . S
C368 H355 0.960 . S
C368 C367 1.524 . S
C369 C366 1.403 . S
C369 C370 1.392 . S
C369 C373 1.495 . S
C370 C369 1.392 . S
C370 C371 1.385 . S
C370 C372 1.478 . S
C371 H365 0.930 . S
C371 C367 1.400 . S
C371 C370 1.385 . S
C372 C370 1.478 . S
C372 C374 1.381 . S
C372 C378 1.383 . S
C373 C369 1.495 . S
C373 H379 0.959 . S
C373 H380 0.961 . S
C373 H381 0.960 . S
C374 C372 1.381 . S
C374 C375 1.394 1_554 S
C374 H382 0.930 . S
C375 C374 1.394 1_556 S
C375 C376 1.383 . S
C375 H383 0.929 . S
C376 C375 1.383 . S
C376 C377 1.377 1_556 S
C377 H361 0.930 . S
C377 C376 1.377 1_554 S
C377 C378 1.379 . S
C378 H362 0.931 . S
C378 C372 1.383 . S
C378 C377 1.379 . S
H379 C373 0.959 . S
H380 C373 0.961 . S
H381 C373 0.960 . S
H382 C374 0.930 . S
H383 C375 0.929 . S
H384 C392 0.929 . S
H385 C394 0.930 . S
H386 C396 0.930 . S
H387 C399 0.929 . S
H388 C402 0.930 . S
H389 C404 0.960 . S
H390 C404 0.960 . S
H391 C404 0.960 . S
C392 H384 0.929 . S
C392 C393 1.377 . S
C392 C394 1.384 . S
C393 C392 1.377 . S
C393 C399 1.390 . S
C394 H385 0.930 . S
C394 C392 1.384 . S
C394 C395 1.372 . S
C395 C394 1.372 . S
C395 C396 1.400 . S
C395 C400 1.490 . S
C396 H386 0.930 . S
C396 C395 1.400 . S
C396 C399 1.386 . S
H397 C413 0.930 . S
H398 C414 0.931 . S
C399 H387 0.929 . S
C399 C393 1.390 . S
C399 C396 1.386 . S
C400 C395 1.490 . S
C400 C402 1.395 . S
C400 C403 1.403 . S
H401 C407 0.930 . S
C402 H388 0.930 . S
C402 C400 1.395 . S
C402 C405 1.403 . S
C403 C400 1.403 . S
C403 C404 1.524 . S
C403 C407 1.400 . S
C404 H389 0.960 . S
C404 H390 0.960 . S
C404 H391 0.960 . S
C404 C403 1.524 . S
C405 C402 1.403 . S
C405 C406 1.392 . S
C405 C409 1.495 . S
C406 C405 1.392 . S
C406 C407 1.385 . S
C406 C408 1.478 . S
C407 H401 0.930 . S
C407 C403 1.400 . S
C407 C406 1.385 . S
C408 C406 1.478 . S
C408 C410 1.381 . S
C408 C414 1.383 . S
C409 C405 1.495 . S
C409 H415 0.959 . S
C409 H416 0.961 . S
C409 H417 0.960 . S
C410 C408 1.381 . S
C410 C411 1.394 . S
C410 H418 0.930 . S
C411 C410 1.394 . S
C411 C412 1.383 . S
C411 H419 0.929 . S
C412 C411 1.383 . S
C412 C413 1.377 . S
C413 H397 0.930 . S
C413 C412 1.377 . S
C413 C414 1.379 . S
C414 H398 0.931 . S
C414 C408 1.383 . S
C414 C413 1.379 . S
H415 C409 0.959 . S
H416 C409 0.961 . S
H417 C409 0.960 . S
H418 C410 0.930 . S
H419 C411 0.929 . S
H420 C428 0.929 . S
H421 C430 0.930 . S
H422 C432 0.930 . S
H423 C435 0.929 . S
H424 C438 0.930 . S
H425 C440 0.960 . S
H426 C440 0.960 . S
H427 C440 0.960 . S
C428 H420 0.929 . S
C428 C429 1.377 . S
C428 C430 1.384 . S
C429 C428 1.377 . S
C429 C435 1.390 . S
C430 H421 0.930 . S
C430 C428 1.384 . S
C430 C431 1.372 . S
C431 C430 1.372 . S
C431 C432 1.400 . S
C431 C436 1.490 . S
C432 H422 0.930 . S
C432 C431 1.400 . S
C432 C435 1.386 . S
H433 C449 0.930 . S
H434 C450 0.931 . S
C435 H423 0.929 . S
C435 C429 1.390 . S
C435 C432 1.386 . S
C436 C431 1.490 . S
C436 C438 1.395 . S
C436 C439 1.403 . S
H437 C443 0.930 . S
C438 H424 0.930 . S
C438 C436 1.395 . S
C438 C441 1.403 . S
C439 C436 1.403 . S
C439 C440 1.524 . S
C439 C443 1.400 . S
C440 H425 0.960 . S
C440 H426 0.960 . S
C440 H427 0.960 . S
C440 C439 1.524 . S
C441 C438 1.403 . S
C441 C442 1.392 . S
C441 C445 1.495 . S
C442 C441 1.392 . S
C442 C443 1.385 . S
C442 C444 1.478 . S
C443 H437 0.930 . S
C443 C439 1.400 . S
C443 C442 1.385 . S
C444 C442 1.478 . S
C444 C446 1.381 . S
C444 C450 1.383 . S
C445 C441 1.495 . S
C445 H451 0.959 . S
C445 H452 0.961 . S
C445 H453 0.960 . S
C446 C444 1.381 . S
C446 C447 1.394 . S
C446 H454 0.930 . S
C447 C446 1.394 . S
C447 C448 1.383 . S
C447 H455 0.929 . S
C448 C447 1.383 . S
C448 C449 1.377 . S
C449 H433 0.930 . S
C449 C448 1.377 . S
C449 C450 1.379 . S
C450 H434 0.931 . S
C450 C444 1.383 . S
C450 C449 1.379 . S
H451 C445 0.959 . S
H452 C445 0.961 . S
H453 C445 0.960 . S
H454 C446 0.930 . S
H455 C447 0.929 . S
H456 C464 0.929 . S
H457 C466 0.930 . S
H458 C468 0.930 . S
H459 C471 0.929 . S
H460 C474 0.930 . S
H461 C476 0.960 . S
H462 C476 0.960 . S
H463 C476 0.960 . S
C464 H456 0.929 . S
C464 C465 1.377 . S
C464 C466 1.384 . S
C465 C464 1.377 . S
C465 C471 1.390 . S
C466 H457 0.930 . S
C466 C464 1.384 . S
C466 C467 1.372 . S
C467 C466 1.372 . S
C467 C468 1.400 . S
C467 C472 1.490 . S
C468 H458 0.930 . S
C468 C467 1.400 . S
C468 C471 1.386 . S
H469 C485 0.930 . S
H470 C486 0.931 . S
C471 H459 0.929 . S
C471 C465 1.390 . S
C471 C468 1.386 . S
C472 C467 1.490 . S
C472 C474 1.395 . S
C472 C475 1.403 . S
H473 C479 0.930 . S
C474 H460 0.930 . S
C474 C472 1.395 . S
C474 C477 1.403 . S
C475 C472 1.403 . S
C475 C476 1.524 . S
C475 C479 1.400 . S
C476 H461 0.960 . S
C476 H462 0.960 . S
C476 H463 0.960 . S
C476 C475 1.524 . S
C477 C474 1.403 . S
C477 C478 1.392 . S
C477 C481 1.495 . S
C478 C477 1.392 . S
C478 C479 1.385 . S
C478 C480 1.478 . S
C479 H473 0.930 . S
C479 C475 1.400 . S
C479 C478 1.385 . S
C480 C478 1.478 . S
C480 C482 1.381 . S
C480 C486 1.383 . S
C481 C477 1.495 . S
C481 H487 0.959 . S
C481 H488 0.961 . S
C481 H489 0.960 . S
C482 C480 1.381 . S
C482 C483 1.394 . S
C482 H490 0.930 . S
C483 C482 1.394 . S
C483 C484 1.383 . S
C483 H491 0.929 . S
C484 C483 1.383 . S
C484 C485 1.377 . S
C485 H469 0.930 . S
C485 C484 1.377 . S
C485 C486 1.379 . S
C486 H470 0.931 . S
C486 C480 1.383 . S
C486 C485 1.379 . S
H487 C481 0.959 . S
H488 C481 0.961 . S
H489 C481 0.960 . S
H490 C482 0.930 . S
H491 C483 0.929 . S
H492 C500 0.929 . S
H493 C502 0.930 . S
H494 C504 0.930 . S
H495 C507 0.929 . S
H496 C510 0.930 . S
H497 C512 0.960 . S
H498 C512 0.960 . S
H499 C512 0.960 . S
C500 H492 0.929 . S
C500 C501 1.377 . S
C500 C502 1.384 . S
C501 C500 1.377 . S
C501 C507 1.390 . S
C502 H493 0.930 . S
C502 C500 1.384 . S
C502 C503 1.372 . S
C503 C502 1.372 . S
C503 C504 1.400 . S
C503 C508 1.490 . S
C504 H494 0.930 . S
C504 C503 1.400 . S
C504 C507 1.386 . S
H505 C521 0.930 . S
H506 C522 0.931 . S
C507 H495 0.929 . S
C507 C501 1.390 . S
C507 C504 1.386 . S
C508 C503 1.490 . S
C508 C510 1.395 . S
C508 C511 1.403 . S
H509 C515 0.930 . S
C510 H496 0.930 . S
C510 C508 1.395 . S
C510 C513 1.403 . S
C511 C508 1.403 . S
C511 C512 1.524 . S
C511 C515 1.400 . S
C512 H497 0.960 . S
C512 H498 0.960 . S
C512 H499 0.960 . S
C512 C511 1.524 . S
C513 C510 1.403 . S
C513 C514 1.392 . S
C513 C517 1.495 . S
C514 C513 1.392 . S
C514 C515 1.385 . S
C514 C516 1.478 . S
C515 H509 0.930 . S
C515 C511 1.400 . S
C515 C514 1.385 . S
C516 C514 1.478 . S
C516 C518 1.381 . S
C516 C522 1.383 . S
C517 C513 1.495 . S
C517 H523 0.959 . S
C517 H524 0.961 . S
C517 H525 0.960 . S
C518 C516 1.381 . S
C518 C519 1.394 . S
C518 H526 0.930 . S
C519 C518 1.394 . S
C519 C520 1.383 . S
C519 H527 0.929 . S
C520 C519 1.383 . S
C520 C521 1.377 . S
C521 H505 0.930 . S
C521 C520 1.377 . S
C521 C522 1.379 . S
C522 H506 0.931 . S
C522 C516 1.383 . S
C522 C521 1.379 . S
H523 C517 0.959 . S
H524 C517 0.961 . S
H525 C517 0.960 . S
H526 C518 0.930 . S
H527 C519 0.929 . S
H528 C536 0.929 . S
H529 C538 0.930 . S
H530 C540 0.930 . S
H531 C543 0.929 . S
H532 C546 0.930 . S
H533 C548 0.960 . S
H534 C548 0.960 . S
H535 C548 0.960 . S
C536 H528 0.929 . S
C536 C537 1.377 . S
C536 C538 1.384 . S
C537 C536 1.377 . S
C537 C543 1.390 . S
C538 H529 0.930 . S
C538 C536 1.384 . S
C538 C539 1.372 . S
C539 C538 1.372 . S
C539 C540 1.400 . S
C539 C544 1.490 . S
C540 H530 0.930 . S
C540 C539 1.400 . S
C540 C543 1.386 . S
H541 C557 0.930 . S
H542 C558 0.931 . S
C543 H531 0.929 . S
C543 C537 1.390 . S
C543 C540 1.386 . S
C544 C539 1.490 . S
C544 C546 1.395 . S
C544 C547 1.403 . S
H545 C551 0.930 . S
C546 H532 0.930 . S
C546 C544 1.395 . S
C546 C549 1.403 . S
C547 C544 1.403 . S
C547 C548 1.524 . S
C547 C551 1.400 . S
C548 H533 0.960 . S
C548 H534 0.960 . S
C548 H535 0.960 . S
C548 C547 1.524 . S
C549 C546 1.403 . S
C549 C550 1.392 . S
C549 C553 1.495 . S
C550 C549 1.392 . S
C550 C551 1.385 . S
C550 C552 1.478 . S
C551 H545 0.930 . S
C551 C547 1.400 . S
C551 C550 1.385 . S
C552 C550 1.478 . S
C552 C554 1.381 . S
C552 C558 1.383 . S
C553 C549 1.495 . S
C553 H559 0.959 . S
C553 H560 0.961 . S
C553 H561 0.960 . S
C554 C552 1.381 . S
C554 C555 1.394 . S
C554 H562 0.930 . S
C555 C554 1.394 . S
C555 C556 1.383 . S
C555 H563 0.929 . S
C556 C555 1.383 . S
C556 C557 1.377 . S
C557 H541 0.930 . S
C557 C556 1.377 . S
C557 C558 1.379 . S
C558 H542 0.931 . S
C558 C552 1.383 . S
C558 C557 1.379 . S
H559 C553 0.959 . S
H560 C553 0.961 . S
H561 C553 0.960 . S
H562 C554 0.930 . S
H563 C555 0.929 . S
H564 C572 0.929 . S
H565 C574 0.930 . S
H566 C576 0.930 . S
H567 C579 0.929 . S
H568 C582 0.930 . S
H569 C584 0.960 . S
H570 C584 0.960 1_556 S
H571 C584 0.960 . S
C572 H564 0.929 . S
C572 C573 1.377 . S
C572 C574 1.384 . S
C573 C572 1.377 . S
C573 C579 1.390 . S
C574 H565 0.930 . S
C574 C572 1.384 . S
C574 C575 1.372 . S
C575 C574 1.372 . S
C575 C576 1.400 . S
C575 C580 1.490 . S
C576 H566 0.930 . S
C576 C575 1.400 . S
C576 C579 1.386 . S
H577 C593 0.930 . S
H578 C594 0.931 . S
C579 H567 0.929 . S
C579 C573 1.390 . S
C579 C576 1.386 . S
C580 C575 1.490 . S
C580 C582 1.395 . S
C580 C583 1.403 . S
H581 C587 0.930 1_554 S
C582 H568 0.930 . S
C582 C580 1.395 . S
C582 C585 1.403 . S
C583 C580 1.403 . S
C583 C584 1.524 1_556 S
C583 C587 1.400 . S
C584 H569 0.960 . S
C584 H570 0.960 1_554 S
C584 H571 0.960 . S
C584 C583 1.524 1_554 S
C585 C582 1.403 . S
C585 C586 1.392 . S
C585 C589 1.495 . S
C586 C585 1.392 . S
C586 C587 1.385 . S
C586 C588 1.478 . S
C587 H581 0.930 1_556 S
C587 C583 1.400 . S
C587 C586 1.385 . S
C588 C586 1.478 . S
C588 C590 1.381 . S
C588 C594 1.383 1_556 S
C589 C585 1.495 . S
C589 H595 0.959 . S
C589 H596 0.961 . S
C589 H597 0.960 . S
C590 C588 1.381 . S
C590 C591 1.394 . S
C590 H598 0.930 . S
C591 C590 1.394 . S
C591 C592 1.383 1_556 S
C591 H599 0.929 . S
C592 C591 1.383 1_554 S
C592 C593 1.377 . S
C593 H577 0.930 . S
C593 C592 1.377 . S
C593 C594 1.379 . S
C594 H578 0.931 . S
C594 C588 1.383 1_554 S
C594 C593 1.379 . S
H595 C589 0.959 . S
H596 C589 0.961 . S
H597 C589 0.960 . S
H598 C590 0.930 . S
H599 C591 0.929 . S
H600 C608 0.929 . S
H601 C610 0.930 . S
H602 C612 0.930 . S
H603 C615 0.929 . S
H604 C618 0.930 . S
H605 C620 0.960 . S
H606 C620 0.960 . S
H607 C620 0.960 . S
C608 H600 0.929 . S
C608 C609 1.377 . S
C608 C610 1.384 . S
C609 C608 1.377 . S
C609 C615 1.390 . S
C610 H601 0.930 . S
C610 C608 1.384 . S
C610 C611 1.372 . S
C611 C610 1.372 . S
C611 C612 1.400 . S
C611 C616 1.490 . S
C612 H602 0.930 . S
C612 C611 1.400 . S
C612 C615 1.386 . S
H613 C629 0.930 . S
H614 C630 0.931 . S
C615 H603 0.929 . S
C615 C609 1.390 . S
C615 C612 1.386 . S
C616 C611 1.490 . S
C616 C618 1.395 . S
C616 C619 1.403 . S
H617 C623 0.930 . S
C618 H604 0.930 . S
C618 C616 1.395 . S
C618 C621 1.403 . S
C619 C616 1.403 . S
C619 C620 1.524 . S
C619 C623 1.400 . S
C620 H605 0.960 . S
C620 H606 0.960 . S
C620 H607 0.960 . S
C620 C619 1.524 . S
C621 C618 1.403 . S
C621 C622 1.392 . S
C621 C625 1.495 . S
C622 C621 1.392 . S
C622 C623 1.385 . S
C622 C624 1.478 . S
C623 H617 0.930 . S
C623 C619 1.400 . S
C623 C622 1.385 . S
C624 C622 1.478 . S
C624 C626 1.381 . S
C624 C630 1.383 . S
C625 C621 1.495 . S
C625 H631 0.959 . S
C625 H632 0.961 . S
C625 H633 0.960 . S
C626 C624 1.381 . S
C626 C627 1.394 . S
C626 H634 0.930 . S
C627 C626 1.394 . S
C627 C628 1.383 . S
C627 H635 0.929 . S
C628 C627 1.383 . S
C628 C629 1.377 . S
C629 H613 0.930 . S
C629 C628 1.377 . S
C629 C630 1.379 . S
C630 H614 0.931 . S
C630 C624 1.383 . S
C630 C629 1.379 . S
H631 C625 0.959 . S
H632 C625 0.961 . S
H633 C625 0.960 . S
H634 C626 0.930 . S
H635 C627 0.929 . S
H636 C644 0.929 . S
H637 C646 0.930 . S
H638 C648 0.930 . S
H639 C651 0.929 . S
H640 C654 0.930 . S
H641 C656 0.960 . S
H642 C656 0.960 . S
H643 C656 0.960 . S
C644 H636 0.929 . S
C644 C645 1.377 . S
C644 C646 1.384 . S
C645 C644 1.377 . S
C645 C651 1.390 . S
C646 H637 0.930 . S
C646 C644 1.384 . S
C646 C647 1.372 . S
C647 C646 1.372 . S
C647 C648 1.400 . S
C647 C652 1.490 . S
C648 H638 0.930 . S
C648 C647 1.400 . S
C648 C651 1.386 . S
H649 C665 0.930 . S
H650 C666 0.931 . S
C651 H639 0.929 . S
C651 C645 1.390 . S
C651 C648 1.386 . S
C652 C647 1.490 . S
C652 C654 1.395 . S
C652 C655 1.403 . S
H653 C659 0.930 1_554 S
C654 H640 0.930 . S
C654 C652 1.395 . S
C654 C657 1.403 . S
C655 C652 1.403 . S
C655 C656 1.524 . S
C655 C659 1.400 . S
C656 H641 0.960 . S
C656 H642 0.960 . S
C656 H643 0.960 . S
C656 C655 1.524 . S
C657 C654 1.403 . S
C657 C658 1.392 1_556 S
C657 C661 1.495 . S
C658 C657 1.392 1_554 S
C658 C659 1.385 1_554 S
C658 C660 1.478 . S
C659 H653 0.930 1_556 S
C659 C655 1.400 . S
C659 C658 1.385 1_556 S
C660 C658 1.478 . S
C660 C662 1.381 . S
C660 C666 1.383 . S
C661 C657 1.495 . S
C661 H667 0.959 . S
C661 H668 0.949 1_556 S
C661 H669 0.960 . S
C662 C660 1.381 . S
C662 C663 1.394 . S
C662 H670 0.930 . S
C663 C662 1.394 . S
C663 C664 1.383 . S
C663 H671 0.929 . S
C664 C663 1.383 . S
C664 C665 1.377 . S
C665 H649 0.930 . S
C665 C664 1.377 . S
C665 C666 1.379 . S
C666 H650 0.931 . S
C666 C660 1.383 . S
C666 C665 1.379 . S
H667 C661 0.959 . S
H668 C661 0.949 1_554 S
H669 C661 0.960 . S
H670 C662 0.930 . S
H671 C663 0.929 . S
H672 C680 0.929 1_556 S
H673 C682 0.930 . S
H674 C684 0.930 . S
H675 C687 0.929 1_556 S
H676 C690 0.930 . S
H677 C692 0.960 . S
H678 C692 0.960 . S
H679 C692 0.960 . S
C680 H672 0.929 1_554 S
C680 C681 1.377 1_554 S
C680 C682 1.384 . S
C681 C680 1.377 1_556 S
C681 C687 1.390 1_556 S
C682 H673 0.930 . S
C682 C680 1.384 . S
C682 C683 1.372 . S
C683 C682 1.372 . S
C683 C684 1.400 . S
C683 C688 1.490 . S
C684 H674 0.930 . S
C684 C683 1.400 . S
C684 C687 1.386 . S
H685 C701 0.930 . S
H686 C702 0.931 . S
C687 H675 0.929 1_554 S
C687 C681 1.390 1_554 S
C687 C684 1.386 . S
C688 C683 1.490 . S
C688 C690 1.395 . S
C688 C691 1.403 . S
H689 C695 0.930 . S
C690 H676 0.930 . S
C690 C688 1.395 . S
C690 C693 1.403 . S
C691 C688 1.403 . S
C691 C692 1.524 . S
C691 C695 1.400 . S
C692 H677 0.960 . S
C692 H678 0.960 . S
C692 H679 0.960 . S
C692 C691 1.524 . S
C693 C690 1.403 . S
C693 C694 1.392 . S
C693 C697 1.495 . S
C694 C693 1.392 . S
C694 C695 1.385 . S
C694 C696 1.478 . S
C695 H689 0.930 . S
C695 C691 1.400 . S
C695 C694 1.385 . S
C696 C694 1.478 . S
C696 C698 1.381 . S
C696 C702 1.383 . S
C697 C693 1.495 . S
C697 H703 0.959 . S
C697 H704 0.961 . S
C697 H705 0.960 . S
C698 C696 1.381 . S
C698 C699 1.394 . S
C698 H706 0.930 . S
C699 C698 1.394 . S
C699 C700 1.383 . S
C699 H707 0.929 . S
C700 C699 1.383 . S
C700 C701 1.377 . S
C701 H685 0.930 . S
C701 C700 1.377 . S
C701 C702 1.379 . S
C702 H686 0.931 . S
C702 C696 1.383 . S
C702 C701 1.379 . S
H703 C697 0.959 . S
H704 C697 0.961 . S
H705 C697 0.960 . S
H706 C698 0.930 . S
H707 C699 0.929 . S
H708 C716 0.929 . S
H709 C718 0.930 . S
H710 C720 0.930 . S
H711 C723 0.929 . S
H712 C726 0.930 . S
H713 C728 0.960 . S
H714 C728 0.960 . S
H715 C728 0.960 . S
C716 H708 0.929 . S
C716 C717 1.377 . S
C716 C718 1.384 . S
C717 C716 1.377 . S
C717 C723 1.390 . S
C718 H709 0.930 . S
C718 C716 1.384 . S
C718 C719 1.372 . S
C719 C718 1.372 . S
C719 C720 1.400 . S
C719 C724 1.490 . S
C720 H710 0.930 . S
C720 C719 1.400 . S
C720 C723 1.386 . S
H721 C737 0.930 . S
H722 C738 0.931 . S
C723 H711 0.929 . S
C723 C717 1.390 . S
C723 C720 1.386 . S
C724 C719 1.490 . S
C724 C726 1.395 . S
C724 C727 1.403 . S
H725 C731 0.930 . S
C726 H712 0.930 . S
C726 C724 1.395 . S
C726 C729 1.403 . S
C727 C724 1.403 . S
C727 C728 1.524 . S
C727 C731 1.400 . S
C728 H713 0.960 . S
C728 H714 0.960 . S
C728 H715 0.960 . S
C728 C727 1.524 . S
C729 C726 1.403 . S
C729 C730 1.392 . S
C729 C733 1.495 . S
C730 C729 1.392 . S
C730 C731 1.385 . S
C730 C732 1.478 . S
C731 H725 0.930 . S
C731 C727 1.400 . S
C731 C730 1.385 . S
C732 C730 1.478 . S
C732 C734 1.381 . S
C732 C738 1.383 . S
C733 C729 1.495 . S
C733 H739 0.959 . S
C733 H740 0.961 . S
C733 H741 0.960 . S
C734 C732 1.381 . S
C734 C735 1.394 . S
C734 H742 0.930 . S
C735 C734 1.394 . S
C735 C736 1.383 . S
C735 H743 0.929 . S
C736 C735 1.383 . S
C736 C737 1.377 . S
C737 H721 0.930 . S
C737 C736 1.377 . S
C737 C738 1.379 . S
C738 H722 0.931 . S
C738 C732 1.383 . S
C738 C737 1.379 . S
H739 C733 0.959 . S
H740 C733 0.961 . S
H741 C733 0.960 . S
H742 C734 0.930 . S
H743 C735 0.929 . S
H744 C752 0.929 . S
H745 C754 0.930 . S
H746 C756 0.930 . S
H747 C759 0.929 . S
H748 C762 0.930 . S
H749 C764 0.960 . S
H750 C764 0.960 . S
H751 C764 0.960 . S
C752 H744 0.929 . S
C752 C753 1.377 . S
C752 C754 1.384 . S
C753 C752 1.377 . S
C753 C759 1.390 . S
C754 H745 0.930 . S
C754 C752 1.384 . S
C754 C755 1.372 . S
C755 C754 1.372 . S
C755 C756 1.400 . S
C755 C760 1.490 . S
C756 H746 0.930 . S
C756 C755 1.400 . S
C756 C759 1.386 . S
H757 C773 0.930 . S
H758 C774 0.931 . S
C759 H747 0.929 . S
C759 C753 1.390 . S
C759 C756 1.386 . S
C760 C755 1.490 . S
C760 C762 1.395 . S
C760 C763 1.403 . S
H761 C767 0.930 . S
C762 H748 0.930 . S
C762 C760 1.395 . S
C762 C765 1.403 . S
C763 C760 1.403 . S
C763 C764 1.524 . S
C763 C767 1.400 . S
C764 H749 0.960 . S
C764 H750 0.960 . S
C764 H751 0.960 . S
C764 C763 1.524 . S
C765 C762 1.403 . S
C765 C766 1.392 . S
C765 C769 1.495 . S
C766 C765 1.392 . S
C766 C767 1.385 . S
C766 C768 1.478 . S
C767 H761 0.930 . S
C767 C763 1.400 . S
C767 C766 1.385 . S
C768 C766 1.478 . S
C768 C770 1.381 . S
C768 C774 1.383 . S
C769 C765 1.495 . S
C769 H775 0.959 . S
C769 H776 0.961 . S
C769 H777 0.960 . S
C770 C768 1.381 . S
C770 C771 1.394 . S
C770 H778 0.930 . S
C771 C770 1.394 . S
C771 C772 1.383 . S
C771 H779 0.929 . S
C772 C771 1.383 . S
C772 C773 1.377 . S
C773 H757 0.930 . S
C773 C772 1.377 . S
C773 C774 1.379 . S
C774 H758 0.931 . S
C774 C768 1.383 . S
C774 C773 1.379 . S
H775 C769 0.959 . S
H776 C769 0.961 . S
H777 C769 0.960 . S
H778 C770 0.930 . S
H779 C771 0.929 . S
H780 C788 0.929 . S
H781 C790 0.930 . S
H782 C792 0.930 . S
H783 C795 0.929 . S
H784 C798 0.930 . S
H785 C800 0.960 . S
H786 C800 0.960 . S
H787 C800 0.960 . S
C788 H780 0.929 . S
C788 C789 1.377 . S
C788 C790 1.384 . S
C789 C788 1.377 . S
C789 C795 1.390 . S
C790 H781 0.930 . S
C790 C788 1.384 . S
C790 C791 1.372 . S
C791 C790 1.372 . S
C791 C792 1.400 . S
C791 C796 1.490 . S
C792 H782 0.930 . S
C792 C791 1.400 . S
C792 C795 1.386 . S
H793 C809 0.930 . S
H794 C810 0.931 . S
C795 H783 0.929 . S
C795 C789 1.390 . S
C795 C792 1.386 . S
C796 C791 1.490 . S
C796 C798 1.395 . S
C796 C799 1.403 . S
H797 C803 0.930 . S
C798 H784 0.930 . S
C798 C796 1.395 . S
C798 C801 1.403 . S
C799 C796 1.403 . S
C799 C800 1.524 . S
C799 C803 1.400 . S
C800 H785 0.960 . S
C800 H786 0.960 . S
C800 H787 0.960 . S
C800 C799 1.524 . S
C801 C798 1.403 . S
C801 C802 1.392 . S
C801 C805 1.495 . S
C802 C801 1.392 . S
C802 C803 1.385 . S
C802 C804 1.478 . S
C803 H797 0.930 . S
C803 C799 1.400 . S
C803 C802 1.385 . S
C804 C802 1.478 . S
C804 C806 1.381 . S
C804 C810 1.383 . S
C805 C801 1.495 . S
C805 H811 0.959 . S
C805 H812 0.961 . S
C805 H813 0.960 . S
C806 C804 1.381 . S
C806 C807 1.394 . S
C806 H814 0.930 . S
C807 C806 1.394 . S
C807 C808 1.383 . S
C807 H815 0.929 . S
C808 C807 1.383 . S
C808 C809 1.377 . S
C809 H793 0.930 . S
C809 C808 1.377 . S
C809 C810 1.379 . S
C810 H794 0.931 . S
C810 C804 1.383 . S
C810 C809 1.379 . S
H811 C805 0.959 . S
H812 C805 0.961 . S
H813 C805 0.960 . S
H814 C806 0.930 . S
H815 C807 0.929 . S
H816 C824 0.929 . S
H817 C826 0.930 . S
H818 C828 0.930 . S
H819 C831 0.929 . S
H820 C834 0.930 . S
H821 C836 0.960 . S
H822 C836 0.960 . S
H823 C836 0.960 . S
C824 H816 0.929 . S
C824 C825 1.377 . S
C824 C826 1.384 . S
C825 C824 1.377 . S
C825 C831 1.390 . S
C826 H817 0.930 . S
C826 C824 1.384 . S
C826 C827 1.372 . S
C827 C826 1.372 . S
C827 C828 1.400 . S
C827 C832 1.490 . S
C828 H818 0.930 . S
C828 C827 1.400 . S
C828 C831 1.386 . S
H829 C845 0.930 1_556 S
H830 C846 0.915 1_556 S
C831 H819 0.929 . S
C831 C825 1.390 . S
C831 C828 1.386 . S
C832 C827 1.490 . S
C832 C834 1.395 . S
C832 C835 1.403 . S
H833 C839 0.930 . S
C834 H820 0.930 . S
C834 C832 1.395 . S
C834 C837 1.403 1_545 S
C835 C832 1.403 . S
C835 C836 1.524 . S
C835 C839 1.400 1_545 S
C836 H821 0.960 . S
C836 H822 0.960 . S
C836 H823 0.960 . S
C836 C835 1.524 . S
C837 C834 1.403 1_565 S
C837 C838 1.392 . S
C837 C841 1.495 . S
C838 C837 1.392 . S
C838 C839 1.385 . S
C838 C840 1.478 . S
C839 H833 0.930 . S
C839 C835 1.400 1_565 S
C839 C838 1.385 . S
C840 C838 1.478 . S
C840 C842 1.381 . S
C840 C846 1.383 . S
C841 C837 1.495 . S
C841 H847 0.959 . S
C841 H848 0.961 . S
C841 H849 0.960 . S
C842 C840 1.381 . S
C842 C843 1.394 . S
C842 H850 0.930 . S
C843 C842 1.394 . S
C843 C844 1.383 . S
C843 H851 0.929 . S
C844 C843 1.383 . S
C844 C845 1.377 . S
C845 H829 0.930 1_554 S
C845 C844 1.377 . S
C845 C846 1.379 . S
C846 H830 0.915 1_554 S
C846 C840 1.383 . S
C846 C845 1.379 . S
H847 C841 0.959 . S
H848 C841 0.961 . S
H849 C841 0.960 . S
H850 C842 0.930 . S
H851 C843 0.929 . S
H852 C860 0.929 . S
H853 C862 0.930 . S
H854 C864 0.930 . S
H855 C867 0.929 . S
H856 C870 0.930 . S
H857 C872 0.960 . S
H858 C872 0.960 . S
H859 C872 0.960 . S
C860 H852 0.929 . S
C860 C861 1.377 . S
C860 C862 1.384 . S
C861 C860 1.377 . S
C861 C867 1.390 . S
C862 H853 0.930 . S
C862 C860 1.384 . S
C862 C863 1.372 . S
C863 C862 1.372 . S
C863 C864 1.400 . S
C863 C868 1.490 . S
C864 H854 0.930 . S
C864 C863 1.400 . S
C864 C867 1.386 . S
H865 C881 0.930 . S
H866 C882 0.931 . S
C867 H855 0.929 . S
C867 C861 1.390 . S
C867 C864 1.386 . S
C868 C863 1.490 . S
C868 C870 1.395 . S
C868 C871 1.403 . S
H869 C875 0.930 . S
C870 H856 0.930 . S
C870 C868 1.395 . S
C870 C873 1.403 . S
C871 C868 1.403 . S
C871 C872 1.524 . S
C871 C875 1.400 . S
C872 H857 0.960 . S
C872 H858 0.960 . S
C872 H859 0.960 . S
C872 C871 1.524 . S
C873 C870 1.403 . S
C873 C874 1.392 . S
C873 C877 1.495 . S
C874 C873 1.392 . S
C874 C875 1.385 . S
C874 C876 1.478 . S
C875 H869 0.930 . S
C875 C871 1.400 . S
C875 C874 1.385 . S
C876 C874 1.478 . S
C876 C878 1.381 . S
C876 C882 1.383 . S
C877 C873 1.495 . S
C877 H883 0.959 . S
C877 H884 0.961 . S
C877 H885 0.960 . S
C878 C876 1.381 . S
C878 C879 1.394 . S
C878 H886 0.930 . S
C879 C878 1.394 . S
C879 C880 1.383 . S
C879 H887 0.929 . S
C880 C879 1.383 . S
C880 C881 1.377 . S
C881 H865 0.930 . S
C881 C880 1.377 . S
C881 C882 1.379 . S
C882 H866 0.931 . S
C882 C876 1.383 . S
C882 C881 1.379 . S
H883 C877 0.959 . S
H884 C877 0.961 . S
H885 C877 0.960 . S
H886 C878 0.930 . S
H887 C879 0.929 . S
H888 C896 0.929 . S
H889 C898 0.930 . S
H890 C900 0.930 . S
H891 C903 0.929 . S
H892 C906 0.930 . S
H893 C908 0.960 . S
H894 C908 0.960 . S
H895 C908 0.960 . S
C896 H888 0.929 . S
C896 C897 1.377 . S
C896 C898 1.384 . S
C897 C896 1.377 . S
C897 C903 1.390 . S
C898 H889 0.930 . S
C898 C896 1.384 . S
C898 C899 1.372 . S
C899 C898 1.372 . S
C899 C900 1.400 . S
C899 C904 1.490 . S
C900 H890 0.930 . S
C900 C899 1.400 . S
C900 C903 1.386 . S
H901 C917 0.930 . S
H902 C918 0.931 . S
C903 H891 0.929 . S
C903 C897 1.390 . S
C903 C900 1.386 . S
C904 C899 1.490 . S
C904 C906 1.395 . S
C904 C907 1.403 . S
H905 C911 0.930 . S
C906 H892 0.930 . S
C906 C904 1.395 . S
C906 C909 1.403 1_455 S
C907 C904 1.403 . S
C907 C908 1.524 . S
C907 C911 1.400 1_455 S
C908 H893 0.960 . S
C908 H894 0.960 . S
C908 H895 0.960 . S
C908 C907 1.524 . S
C909 C906 1.403 1_655 S
C909 C910 1.392 . S
C909 C913 1.495 . S
C910 C909 1.392 . S
C910 C911 1.385 . S
C910 C912 1.478 . S
C911 H905 0.930 . S
C911 C907 1.400 1_655 S
C911 C910 1.385 . S
C912 C910 1.478 . S
C912 C914 1.381 . S
C912 C918 1.383 . S
C913 C909 1.495 . S
C913 H919 0.959 . S
C913 H920 0.961 . S
C913 H921 0.960 . S
C914 C912 1.381 . S
C914 C915 1.394 . S
C914 H922 0.930 . S
C915 C914 1.394 . S
C915 C916 1.383 . S
C915 H923 0.929 . S
C916 C915 1.383 . S
C916 C917 1.377 . S
C917 H901 0.930 . S
C917 C916 1.377 . S
C917 C918 1.379 . S
C918 H902 0.931 . S
C918 C912 1.383 . S
C918 C917 1.379 . S
H919 C913 0.959 . S
H920 C913 0.961 . S
H921 C913 0.960 . S
H922 C914 0.930 . S
H923 C915 0.929 . S
H924 C932 0.929 . S
H925 C934 0.930 . S
H926 C936 0.930 . S
H927 C939 0.929 . S
H928 C942 0.930 . S
H929 C944 0.960 . S
H930 C944 0.960 . S
H931 C944 0.960 . S
C932 H924 0.929 . S
C932 C933 1.377 . S
C932 C934 1.384 . S
C933 C932 1.377 . S
C933 C939 1.390 . S
C934 H925 0.930 . S
C934 C932 1.384 . S
C934 C935 1.372 . S
C935 C934 1.372 . S
C935 C936 1.400 . S
C935 C940 1.490 . S
C936 H926 0.930 . S
C936 C935 1.400 . S
C936 C939 1.386 . S
H937 C953 0.930 . S
H938 C954 0.931 . S
C939 H927 0.929 . S
C939 C933 1.390 . S
C939 C936 1.386 . S
C940 C935 1.490 . S
C940 C942 1.395 . S
C940 C943 1.403 . S
H941 C947 0.930 . S
C942 H928 0.930 . S
C942 C940 1.395 . S
C942 C945 1.403 1_565 S
C943 C940 1.403 . S
C943 C944 1.524 . S
C943 C947 1.400 1_565 S
C944 H929 0.960 . S
C944 H930 0.960 . S
C944 H931 0.960 . S
C944 C943 1.524 . S
C945 C942 1.403 1_545 S
C945 C946 1.392 . S
C945 C949 1.495 . S
C946 C945 1.392 . S
C946 C947 1.385 . S
C946 C948 1.478 . S
C947 H941 0.930 . S
C947 C943 1.400 1_545 S
C947 C946 1.385 . S
C948 C946 1.478 . S
C948 C950 1.381 . S
C948 C954 1.383 . S
C949 C945 1.495 . S
C949 H955 0.959 . S
C949 H956 0.961 . S
C949 H957 0.960 . S
C950 C948 1.381 . S
C950 C951 1.394 . S
C950 H958 0.930 . S
C951 C950 1.394 . S
C951 C952 1.383 . S
C951 H959 0.929 . S
C952 C951 1.383 . S
C952 C953 1.377 . S
C953 H937 0.930 . S
C953 C952 1.377 . S
C953 C954 1.379 . S
C954 H938 0.931 . S
C954 C948 1.383 . S
C954 C953 1.379 . S
H955 C949 0.959 . S
H956 C949 0.961 . S
H957 C949 0.960 . S
H958 C950 0.930 . S
H959 C951 0.929 . S
H960 C968 0.929 . S
H961 C970 0.930 . S
H962 C972 0.930 . S
H963 C975 0.929 . S
H964 C978 0.930 . S
H965 C980 0.960 . S
H966 C980 0.960 . S
H967 C980 0.960 . S
C968 H960 0.929 . S
C968 C969 1.377 . S
C968 C970 1.384 . S
C969 C968 1.377 . S
C969 C975 1.390 . S
C970 H961 0.930 . S
C970 C968 1.384 . S
C970 C971 1.372 . S
C971 C970 1.372 . S
C971 C972 1.400 . S
C971 C976 1.490 . S
C972 H962 0.930 . S
C972 C971 1.400 . S
C972 C975 1.386 . S
H973 C989 0.930 . S
H974 C990 0.931 . S
C975 H963 0.929 . S
C975 C969 1.390 . S
C975 C972 1.386 . S
C976 C971 1.490 . S
C976 C978 1.395 . S
C976 C979 1.403 . S
H977 C983 0.930 . S
C978 H964 0.930 . S
C978 C976 1.395 . S
C978 C981 1.403 . S
C979 C976 1.403 . S
C979 C980 1.524 . S
C979 C983 1.400 . S
C980 H965 0.960 . S
C980 H966 0.960 . S
C980 H967 0.960 . S
C980 C979 1.524 . S
C981 C978 1.403 . S
C981 C982 1.392 . S
C981 C985 1.495 . S
C982 C981 1.392 . S
C982 C983 1.385 . S
C982 C984 1.478 . S
C983 H977 0.930 . S
C983 C979 1.400 . S
C983 C982 1.385 . S
C984 C982 1.478 . S
C984 C986 1.381 . S
C984 C990 1.383 . S
C985 C981 1.495 . S
C985 H991 0.959 . S
C985 H992 0.961 . S
C985 H993 0.960 . S
C986 C984 1.381 . S
C986 C987 1.394 . S
C986 H994 0.930 . S
C987 C986 1.394 . S
C987 C988 1.383 . S
C987 H995 0.929 . S
C988 C987 1.383 . S
C988 C989 1.377 . S
C989 H973 0.930 . S
C989 C988 1.377 . S
C989 C990 1.379 . S
C990 H974 0.931 . S
C990 C984 1.383 . S
C990 C989 1.379 . S
H991 C985 0.959 . S
H992 C985 0.961 . S
H993 C985 0.960 . S
H994 C986 0.930 . S
H995 C987 0.929 . S
H996 C1004 0.929 . S
H997 C1006 0.930 . S
H998 C1008 0.930 . S
H999 C1011 0.929 . S
H1000 C1014 0.930 . S
H1001 C1016 0.960 . S
H1002 C1016 0.960 . S
H1003 C1016 0.960 . S
C1004 H996 0.929 . S
C1004 C1005 1.377 . S
C1004 C1006 1.384 . S
C1005 C1004 1.377 . S
C1005 C1011 1.390 . S
C1006 H997 0.930 . S
C1006 C1004 1.384 . S
C1006 C1007 1.372 . S
C1007 C1006 1.372 . S
C1007 C1008 1.400 . S
C1007 C1012 1.490 . S
C1008 H998 0.930 . S
C1008 C1007 1.400 . S
C1008 C1011 1.386 . S
H1009 C1025 0.930 . S
H1010 C1026 0.931 . S
C1011 H999 0.929 . S
C1011 C1005 1.390 . S
C1011 C1008 1.386 . S
C1012 C1007 1.490 . S
C1012 C1014 1.395 . S
C1012 C1015 1.403 . S
H1013 C1019 0.930 . S
C1014 H1000 0.930 . S
C1014 C1012 1.395 . S
C1014 C1017 1.403 1_455 S
C1015 C1012 1.403 . S
C1015 C1016 1.524 . S
C1015 C1019 1.400 1_455 S
C1016 H1001 0.960 . S
C1016 H1002 0.960 . S
C1016 H1003 0.960 . S
C1016 C1015 1.524 . S
C1017 C1014 1.403 1_655 S
C1017 C1018 1.392 . S
C1017 C1021 1.495 . S
C1018 C1017 1.392 . S
C1018 C1019 1.385 . S
C1018 C1020 1.478 . S
C1019 H1013 0.930 . S
C1019 C1015 1.400 1_655 S
C1019 C1018 1.385 . S
C1020 C1018 1.478 . S
C1020 C1022 1.381 . S
C1020 C1026 1.383 . S
C1021 C1017 1.495 . S
C1021 H1027 0.959 . S
C1021 H1028 0.961 . S
C1021 H1029 0.960 . S
C1022 C1020 1.381 . S
C1022 C1023 1.394 . S
C1022 H1030 0.930 . S
C1023 C1022 1.394 . S
C1023 C1024 1.383 . S
C1023 H1031 0.929 . S
C1024 C1023 1.383 . S
C1024 C1025 1.377 . S
C1025 H1009 0.930 . S
C1025 C1024 1.377 . S
C1025 C1026 1.379 . S
C1026 H1010 0.931 . S
C1026 C1020 1.383 . S
C1026 C1025 1.379 . S
H1027 C1021 0.959 . S
H1028 C1021 0.961 . S
H1029 C1021 0.960 . S
H1030 C1022 0.930 . S
H1031 C1023 0.929 . S
C177 C7 0.969 . S
C196 C147 0.938 . S
C213 C21 0.971 . S
C232 C161 0.935 . S
C249 C91 0.968 . S
C268 C35 0.942 . S
C285 C49 0.971 . S
C304 C105 0.935 . S
C321 C119 0.964 . S
C340 C63 0.986 . S
C357 C133 0.971 . S
C376 C77 0.948 . S
C393 C120 1.293 . S
C412 C8 1.296 . S
C429 C22 1.294 . S
C448 C134 1.299 . S
C465 C148 1.294 . S
C484 C36 1.298 . S
C501 C50 1.291 . S
C520 C162 1.292 . S
C537 C64 1.294 . S
C556 C92 1.299 . S
C573 C78 1.291 . S
C592 C106 1.284 . S
C609 C143 1.665 . S
C628 C3 1.657 . S
C645 C157 1.665 . S
C664 C17 1.655 . S
C681 C87 1.664 . S
C700 C31 1.662 . S
C717 C45 1.663 . S
C736 C101 1.662 . S
C753 C59 1.662 . S
C772 C115 1.665 . S
C789 C129 1.665 . S
C808 C73 1.656 . S
C825 C9 1.273 . S
C844 C107 1.297 . S
C861 C121 1.280 . S
C880 C23 1.261 . S
C897 C135 1.275 . S
C916 C37 1.246 . S
C933 C51 1.274 . S
C952 C149 1.297 . S
C969 C65 1.275 . S
C988 C163 1.245 . S
C1005 C79 1.276 . S
C1024 C93 1.245 . S
