# Generated by pormake.
# Topology why, (6)-cn, num edge types: 1
# Building blocks:
#     Node 0, Type 0, BuildingBlock: CUWYAW_clean_sbu_0, # of connection points: 6
#     Node 1, Type 0, BuildingBlock: CUWYAW_clean_sbu_0, # of connection points: 6
#     Node 2, Type 0, BuildingBlock: CUWYAW_clean_sbu_0, # of connection points: 6
#     Node 3, Type 0, BuildingBlock: CUWYAW_clean_sbu_0, # of connection points: 6
#     Node 4, Type 0, BuildingBlock: CUWYAW_clean_sbu_0, # of connection points: 6
#     Node 5, Type 0, BuildingBlock: CUWYAW_clean_sbu_0, # of connection points: 6
#     Node 6, Type 0, BuildingBlock: CUWYAW_clean_sbu_0, # of connection points: 6
#     Node 7, Type 0, BuildingBlock: CUWYAW_clean_sbu_0, # of connection points: 6
#     Node 8, Type 0, BuildingBlock: CUWYAW_clean_sbu_0, # of connection points: 6
#     Node 9, Type 0, BuildingBlock: CUWYAW_clean_sbu_0, # of connection points: 6
#     Node 10, Type 0, BuildingBlock: CUWYAW_clean_sbu_0, # of connection points: 6
#     Node 11, Type 0, BuildingBlock: CUWYAW_clean_sbu_0, # of connection points: 6
#     Node 12, Type 0, BuildingBlock: CUWYAW_clean_sbu_0, # of connection points: 6
#     Node 13, Type 0, BuildingBlock: CUWYAW_clean_sbu_0, # of connection points: 6
#     Node 14, Type 0, BuildingBlock: CUWYAW_clean_sbu_0, # of connection points: 6
#     Node 15, Type 0, BuildingBlock: CUWYAW_clean_sbu_0, # of connection points: 6
#     Edge 16, Type (0, 0), BuildingBlock: XUDNAN_clean_linker_2, # of connection points: 2
#     Edge 17, Type (0, 0), BuildingBlock: XUDNAN_clean_linker_2, # of connection points: 2
#     Edge 18, Type (0, 0), BuildingBlock: XUDNAN_clean_linker_2, # of connection points: 2
#     Edge 19, Type (0, 0), BuildingBlock: XUDNAN_clean_linker_2, # of connection points: 2
#     Edge 20, Type (0, 0), BuildingBlock: XUDNAN_clean_linker_2, # of connection points: 2
#     Edge 21, Type (0, 0), BuildingBlock: XUDNAN_clean_linker_2, # of connection points: 2
#     Edge 22, Type (0, 0), BuildingBlock: XUDNAN_clean_linker_2, # of connection points: 2
#     Edge 23, Type (0, 0), BuildingBlock: XUDNAN_clean_linker_2, # of connection points: 2
#     Edge 24, Type (0, 0), BuildingBlock: XUDNAN_clean_linker_2, # of connection points: 2
#     Edge 25, Type (0, 0), BuildingBlock: XUDNAN_clean_linker_2, # of connection points: 2
#     Edge 26, Type (0, 0), BuildingBlock: XUDNAN_clean_linker_2, # of connection points: 2
#     Edge 27, Type (0, 0), BuildingBlock: XUDNAN_clean_linker_2, # of connection points: 2
#     Edge 28, Type (0, 0), BuildingBlock: XUDNAN_clean_linker_2, # of connection points: 2
#     Edge 29, Type (0, 0), BuildingBlock: XUDNAN_clean_linker_2, # of connection points: 2
#     Edge 30, Type (0, 0), BuildingBlock: XUDNAN_clean_linker_2, # of connection points: 2
#     Edge 31, Type (0, 0), BuildingBlock: XUDNAN_clean_linker_2, # of connection points: 2
#     Edge 32, Type (0, 0), BuildingBlock: XUDNAN_clean_linker_2, # of connection points: 2
#     Edge 33, Type (0, 0), BuildingBlock: XUDNAN_clean_linker_2, # of connection points: 2
#     Edge 34, Type (0, 0), BuildingBlock: XUDNAN_clean_linker_2, # of connection points: 2
#     Edge 35, Type (0, 0), BuildingBlock: XUDNAN_clean_linker_2, # of connection points: 2
#     Edge 36, Type (0, 0), BuildingBlock: XUDNAN_clean_linker_2, # of connection points: 2
#     Edge 37, Type (0, 0), BuildingBlock: XUDNAN_clean_linker_2, # of connection points: 2
#     Edge 38, Type (0, 0), BuildingBlock: XUDNAN_clean_linker_2, # of connection points: 2
#     Edge 39, Type (0, 0), BuildingBlock: XUDNAN_clean_linker_2, # of connection points: 2
#     Edge 40, Type (0, 0), BuildingBlock: XUDNAN_clean_linker_2, # of connection points: 2
#     Edge 41, Type (0, 0), BuildingBlock: XUDNAN_clean_linker_2, # of connection points: 2
#     Edge 42, Type (0, 0), BuildingBlock: XUDNAN_clean_linker_2, # of connection points: 2
#     Edge 43, Type (0, 0), BuildingBlock: XUDNAN_clean_linker_2, # of connection points: 2
#     Edge 44, Type (0, 0), BuildingBlock: XUDNAN_clean_linker_2, # of connection points: 2
#     Edge 45, Type (0, 0), BuildingBlock: XUDNAN_clean_linker_2, # of connection points: 2
#     Edge 46, Type (0, 0), BuildingBlock: XUDNAN_clean_linker_2, # of connection points: 2
#     Edge 47, Type (0, 0), BuildingBlock: XUDNAN_clean_linker_2, # of connection points: 2
#     Edge 48, Type (0, 0), BuildingBlock: XUDNAN_clean_linker_2, # of connection points: 2
#     Edge 49, Type (0, 0), BuildingBlock: XUDNAN_clean_linker_2, # of connection points: 2
#     Edge 50, Type (0, 0), BuildingBlock: XUDNAN_clean_linker_2, # of connection points: 2
#     Edge 51, Type (0, 0), BuildingBlock: XUDNAN_clean_linker_2, # of connection points: 2
#     Edge 52, Type (0, 0), BuildingBlock: XUDNAN_clean_linker_2, # of connection points: 2
#     Edge 53, Type (0, 0), BuildingBlock: XUDNAN_clean_linker_2, # of connection points: 2
#     Edge 54, Type (0, 0), BuildingBlock: XUDNAN_clean_linker_2, # of connection points: 2
#     Edge 55, Type (0, 0), BuildingBlock: XUDNAN_clean_linker_2, # of connection points: 2
#     Edge 56, Type (0, 0), BuildingBlock: XUDNAN_clean_linker_2, # of connection points: 2
#     Edge 57, Type (0, 0), BuildingBlock: XUDNAN_clean_linker_2, # of connection points: 2
#     Edge 58, Type (0, 0), BuildingBlock: XUDNAN_clean_linker_2, # of connection points: 2
#     Edge 59, Type (0, 0), BuildingBlock: XUDNAN_clean_linker_2, # of connection points: 2
#     Edge 60, Type (0, 0), BuildingBlock: XUDNAN_clean_linker_2, # of connection points: 2
#     Edge 61, Type (0, 0), BuildingBlock: XUDNAN_clean_linker_2, # of connection points: 2
#     Edge 62, Type (0, 0), BuildingBlock: XUDNAN_clean_linker_2, # of connection points: 2
#     Edge 63, Type (0, 0), BuildingBlock: XUDNAN_clean_linker_2, # of connection points: 2
# Relax obj value: 0.419
# Max RMSD: 0.235
# Mean RMSD: 0.235
data_MOF--net-why--node1-CUWYAW_clean_sbu_0--edge1-XUDNAN_clean_linker_2
_symmetry_space_group_name_H-M    P1
_symmetry_Int_Tables_number       1
_symmetry_cell_setting            triclinic
loop_
_symmetry_equiv_pos_as_xyz
'x, y, z'
_cell_length_a     48.681953
_cell_length_b     48.76721
_cell_length_c     39.005178
_cell_angle_alpha  89.881577
_cell_angle_beta   90.096177
_cell_angle_gamma 90.085158
loop_
_atom_site_label
_atom_site_type_symbol
_atom_site_fract_x
_atom_site_fract_y
_atom_site_fract_z
_atom_type_partial_charge
C0 C 0.43969 0.27506 0.16475 0.0
Eu1 Eu 0.45825 0.25037 0.11036 0.0
C2 C 0.45123 0.29304 0.19166 0.0
C3 C 0.45004 0.32162 0.1875 0.0
C4 C 0.45821 0.33902 0.21384 0.0
C5 C 0.46764 0.32835 0.24523 0.0
C6 C 0.47033 0.29975 0.24876 0.0
C7 C 0.46211 0.28223 0.22224 0.0
C8 C 0.46034 0.27196 0.0468 0.0
C9 C 0.41961 0.22244 0.05014 0.0
C10 C 0.51779 0.18947 0.02468 0.0
Eu11 Eu 0.48552 0.21518 0.06698 0.0
C12 C 0.53588 0.19901 0.9971 0.0
C13 C 0.55175 0.18027 0.97859 0.0
C14 C 0.56609 0.18889 0.94944 0.0
C15 C 0.5645 0.21631 0.93831 0.0
C16 C 0.54951 0.23524 0.95789 0.0
C17 C 0.53537 0.22665 0.9871 0.0
C18 C 0.46958 0.18583 0.12656 0.0
C19 C 0.52234 0.27017 0.09697 0.0
O20 O 0.43875 0.28545 0.13399 0.0
O21 O 0.44683 0.24922 0.16466 0.0
O22 O 0.43893 0.27403 0.06638 0.0
O23 O 0.4794 0.25938 0.06174 0.0
O24 O 0.41992 0.23049 0.08302 0.0
O25 O 0.44399 0.21721 0.03613 0.0
O26 O 0.49166 0.19357 0.01901 0.0
O27 O 0.52507 0.196 0.05591 0.0
O28 O 0.46642 0.178 0.09521 0.0
O29 O 0.47978 0.21012 0.1249 0.0
O30 O 0.52124 0.24808 0.07633 0.0
O31 O 0.49979 0.2751 0.1153 0.0
H32 H 0.44167 0.33066 0.16435 0.0
H33 H 0.45519 0.36085 0.21031 0.0
H34 H 0.47756 0.29089 0.2726 0.0
H35 H 0.46339 0.26028 0.22617 0.0
H36 H 0.55222 0.15884 0.98592 0.0
H37 H 0.57728 0.17381 0.93465 0.0
H38 H 0.54812 0.25654 0.9501 0.0
H39 H 0.52317 0.24132 1.00118 0.0
C40 C 0.67116 0.68314 0.39767 0.0
Eu41 Eu 0.69498 0.71225 0.35046 0.0
C42 C 0.64522 0.68758 0.41593 0.0
C43 C 0.63652 0.71422 0.42445 0.0
C44 C 0.611 0.71838 0.43989 0.0
C45 C 0.59368 0.69601 0.44664 0.0
C46 C 0.60249 0.6694 0.43803 0.0
C47 C 0.62803 0.66525 0.42277 0.0
C48 C 0.67142 0.72749 0.2904 0.0
C49 C 0.72535 0.677 0.28801 0.0
C50 C 0.7574 0.77788 0.27501 0.0
Eu51 Eu 0.73161 0.74213 0.31306 0.0
C52 C 0.74906 0.79345 0.24451 0.0
C53 C 0.76888 0.80601 0.22375 0.0
C54 C 0.76109 0.81875 0.19309 0.0
C55 C 0.73344 0.81862 0.18261 0.0
C56 C 0.71357 0.80653 0.20386 0.0
C57 C 0.72131 0.79433 0.23479 0.0
C58 C 0.75956 0.72444 0.37256 0.0
C59 C 0.67423 0.77545 0.3414 0.0
O60 O 0.6687 0.6779 0.36505 0.0
O61 O 0.69091 0.70057 0.40414 0.0
O62 O 0.65769 0.72523 0.31882 0.0
O63 O 0.69582 0.71992 0.29458 0.0
O64 O 0.71218 0.67483 0.318 0.0
O65 O 0.73372 0.70226 0.27934 0.0
O66 O 0.75925 0.75143 0.27066 0.0
O67 O 0.74478 0.7842 0.30343 0.0
O68 O 0.76867 0.72393 0.34153 0.0
O69 O 0.73457 0.73343 0.37072 0.0
O70 O 0.69565 0.77495 0.31983 0.0
O71 O 0.67083 0.75311 0.36057 0.0
H72 H 0.64937 0.73184 0.41905 0.0
H73 H 0.60475 0.73904 0.44637 0.0
H74 H 0.58984 0.65167 0.44369 0.0
H75 H 0.6343 0.64462 0.41614 0.0
H76 H 0.79039 0.80547 0.23089 0.0
H77 H 0.77677 0.82785 0.17698 0.0
H78 H 0.69211 0.80639 0.19644 0.0
H79 H 0.7057 0.78509 0.25083 0.0
C80 C 0.26838 0.93404 0.65083 0.0
Eu81 Eu 0.23111 0.94645 0.60573 0.0
C82 C 0.29749 0.92705 0.64671 0.0
C83 C 0.30679 0.91402 0.6168 0.0
C84 C 0.33456 0.90759 0.61299 0.0
C85 C 0.35346 0.91445 0.63883 0.0
C86 C 0.34421 0.92854 0.66805 0.0
C87 C 0.31641 0.93476 0.67195 0.0
C88 C 0.21976 0.91809 0.54831 0.0
C89 C 0.26739 0.9738 0.5405 0.0
C90 C 0.16696 1.00218 0.5226 0.0
Eu91 Eu 0.20219 0.97902 0.56395 0.0
C92 C 0.15087 0.9926 0.49302 0.0
C93 C 0.1465 1.01032 0.46525 0.0
C94 C 0.13241 1.00119 0.43619 0.0
C95 C 0.12247 0.97413 0.43444 0.0
C96 C 0.12702 0.95636 0.46229 0.0
C97 C 0.14113 0.96551 0.49131 0.0
C98 C 0.21737 1.01034 0.62144 0.0
C99 C 0.16913 0.92355 0.59644 0.0
O100 O 0.26211 0.95926 0.64276 0.0
O101 O 0.25061 0.91629 0.63907 0.0
O102 O 0.22228 0.9064 0.57809 0.0
O103 O 0.22601 0.94308 0.54959 0.0
O104 O 0.26839 0.95873 0.56915 0.0
O105 O 0.2427 0.98362 0.53203 0.0
O106 O 0.16033 0.99216 0.55256 0.0
O107 O 0.19344 1.00302 0.51799 0.0
O108 O 0.22037 1.0168 0.5896 0.0
O109 O 0.20774 0.98561 0.62213 0.0
O110 O 0.171 0.94207 0.57124 0.0
O111 O 0.18969 0.92383 0.61915 0.0
H112 H 0.29253 0.90847 0.5966 0.0
H113 H 0.34119 0.89669 0.5903 0.0
H114 H 0.35825 0.93361 0.68866 0.0
H115 H 0.30963 0.94523 0.6949 0.0
H116 H 0.15405 1.03123 0.46601 0.0
H117 H 0.12888 1.01547 0.41534 0.0
H118 H 0.11985 0.93533 0.46152 0.0
H119 H 0.14462 0.95131 0.51222 0.0
C120 C 1.00725 0.50262 0.91878 0.0
Eu121 Eu 0.99357 0.4789 0.86163 0.0
C122 C 1.02694 0.49509 0.94599 0.0
C123 C 1.05538 0.49633 0.94029 0.0
C124 C 1.07372 0.48906 0.96622 0.0
C125 C 1.06408 0.48026 0.99842 0.0
C126 C 1.0356 0.47805 1.00365 0.0
C127 C 1.01723 0.48555 0.97776 0.0
C128 C 1.02822 0.46979 0.80946 0.0
C129 C 0.97223 0.51992 0.79708 0.0
C130 C 0.94077 0.42367 0.76793 0.0
Eu131 Eu 0.96451 0.45517 0.81321 0.0
C132 C 0.94967 0.40904 0.73714 0.0
C133 C 0.93134 0.39139 0.72047 0.0
C134 C 0.93908 0.37834 0.69018 0.0
C135 C 0.96529 0.38282 0.67607 0.0
C136 C 0.98384 0.40009 0.69334 0.0
C137 C 0.9761 0.41311 0.72372 0.0
C138 C 0.92916 0.4694 0.86806 0.0
C139 C 1.01576 0.41681 0.84625 0.0
O140 O 1.01729 0.50987 0.88908 0.0
O141 O 0.98602 0.48646 0.91577 0.0
O142 O 1.03547 0.46822 0.84148 0.0
O143 O 1.00358 0.47744 0.80598 0.0
O144 O 0.97963 0.51866 0.83029 0.0
O145 O 0.96717 0.49598 0.78218 0.0
O146 O 0.94128 0.45035 0.76587 0.0
O147 O 0.95061 0.41465 0.79697 0.0
O148 O 0.92629 0.47556 0.83606 0.0
O149 O 0.95251 0.45731 0.87032 0.0
O150 O 0.99842 0.42089 0.82019 0.0
O151 O 1.01556 0.43619 0.87033 0.0
H152 H 1.06357 0.50337 0.91601 0.0
H153 H 1.09548 0.49169 0.96148 0.0
H154 H 1.02751 0.47128 0.0281 0.0
H155 H 0.99537 0.48413 0.9827 0.0
H156 H 0.91087 0.38809 0.73056 0.0
H157 H 0.92424 0.36541 0.67723 0.0
H158 H 1.00425 0.40358 0.68327 0.0
H159 H 0.99055 0.42661 0.73648 0.0
C160 C 0.66436 1.00108 0.9992 0.0
Eu161 Eu 0.69858 0.97944 0.95564 0.0
C162 C 0.65017 0.99087 0.02981 0.0
C163 C 0.6448 1.0089 0.05685 0.0
C164 C 0.63206 0.99939 0.08662 0.0
C165 C 0.62438 0.97169 0.08966 0.0
C166 C 0.63003 0.95358 0.06263 0.0
C167 C 0.64305 0.96306 0.033 0.0
C168 C 0.7138 1.01513 0.90148 0.0
C169 C 0.66589 0.92565 0.91978 0.0
C170 C 0.75591 0.93651 0.85841 0.0
Eu171 Eu 0.72834 0.95107 0.91226 0.0
C172 C 0.74967 0.91587 0.83185 0.0
C173 C 0.75379 0.88784 0.83831 0.0
C174 C 0.74677 0.86838 0.8137 0.0
C175 C 0.73544 0.87644 0.78205 0.0
C176 C 0.73088 0.90445 0.77581 0.0
C177 C 0.73803 0.92398 0.80041 0.0
C178 C 0.71644 0.91784 0.96554 0.0
C179 C 0.76393 0.97541 0.97843 0.0
O180 O 0.69094 1.00306 1.00201 0.0
O181 O 0.65678 0.99061 0.96987 0.0
O182 O 0.71649 1.01925 0.93395 0.0
O183 O 0.70458 0.99048 0.89855 0.0
O184 O 0.66544 0.94433 0.94475 0.0
O185 O 0.68823 0.92611 0.9 0.0
O186 O 0.76143 0.9274 0.88915 0.0
O187 O 0.73972 0.95781 0.85896 0.0
O188 O 0.71749 0.90944 0.93398 0.0
O189 O 0.72285 0.94282 0.96792 0.0
O190 O 0.76605 0.96607 0.94633 0.0
O191 O 0.73845 0.98045 0.9892 0.0
H192 H 0.65044 1.03035 0.05491 0.0
H193 H 0.62763 1.01382 0.10695 0.0
H194 H 0.62444 0.93212 0.06449 0.0
H195 H 0.64753 0.94869 0.01264 0.0
H196 H 0.76266 0.88086 0.86226 0.0
H197 H 0.75134 0.84706 0.81902 0.0
H198 H 0.72228 0.9113 0.75164 0.0
H199 H 0.73448 0.94545 0.79479 0.0
C200 C 0.43364 0.42647 0.74559 0.0
Eu201 Eu 0.45865 0.45998 0.70398 0.0
C202 C 0.44096 0.41078 0.77641 0.0
C203 C 0.46439 0.39404 0.77733 0.0
C204 C 0.47094 0.37942 0.80699 0.0
C205 C 0.45435 0.38152 0.83635 0.0
C206 C 0.43116 0.39867 0.83542 0.0
C207 C 0.42447 0.41305 0.80564 0.0
C208 C 0.4283 0.47431 0.64484 0.0
C209 C 0.51281 0.4254 0.66943 0.0
C210 C 0.5065 0.52211 0.61194 0.0
Eu211 Eu 0.49238 0.48838 0.66049 0.0
C212 C 0.49966 0.55096 0.60412 0.0
C213 C 0.51757 0.57202 0.61421 0.0
C214 C 0.51215 0.59915 0.60523 0.0
C215 C 0.48878 0.60585 0.5857 0.0
C216 C 0.47015 0.58496 0.57699 0.0
C217 C 0.47554 0.55776 0.58606 0.0
C218 C 0.51978 0.47534 0.71841 0.0
C219 C 0.46458 0.52583 0.72332 0.0
O220 O 0.43316 0.45305 0.74908 0.0
O221 O 0.44487 0.41878 0.71678 0.0
O222 O 0.4205 0.47709 0.67623 0.0
O223 O 0.45307 0.46512 0.646 0.0
O224 O 0.49449 0.42676 0.69514 0.0
O225 O 0.51306 0.4466 0.64779 0.0
O226 O 0.48668 0.50419 0.60874 0.0
O227 O 0.52152 0.51772 0.63915 0.0
O228 O 0.53175 0.47657 0.68865 0.0
O229 O 0.49528 0.48325 0.71656 0.0
O230 O 0.47487 0.52591 0.69158 0.0
O231 O 0.45825 0.50116 0.73614 0.0
H232 H 0.47764 0.39215 0.75517 0.0
H233 H 0.48876 0.36616 0.80668 0.0
H234 H 0.41827 0.40121 0.85778 0.0
H235 H 0.40646 0.42609 0.80548 0.0
H236 H 0.53631 0.56746 0.62811 0.0
H237 H 0.5273 0.6146 0.61169 0.0
H238 H 0.45204 0.58951 0.56186 0.0
H239 H 0.4612 0.54202 0.57805 0.0
C240 C 1.01199 0.19841 0.5039 0.0
Eu241 Eu 0.97956 0.21956 0.45761 0.0
C242 C 1.02652 0.20821 0.53488 0.0
C243 C 1.05399 0.21705 0.53297 0.0
C244 C 1.06788 0.2257 0.56242 0.0
C245 C 1.05463 0.22557 0.5944 0.0
C246 C 1.02713 0.21684 0.59621 0.0
C247 C 1.01325 0.20824 0.56683 0.0
C248 C 0.96605 0.18272 0.40358 0.0
C249 C 1.01614 0.27034 0.42096 0.0
C250 C 0.92919 0.26074 0.35227 0.0
Eu251 Eu 0.95371 0.24691 0.40881 0.0
C252 C 0.9368 0.28148 0.32636 0.0
C253 C 0.93446 0.30958 0.33358 0.0
C254 C 0.94288 0.32906 0.30965 0.0
C255 C 0.95396 0.32098 0.27796 0.0
C256 C 0.95686 0.29286 0.27103 0.0
C257 C 0.94825 0.27331 0.29495 0.0
C258 C 0.96368 0.28211 0.46056 0.0
C259 C 0.91398 0.22567 0.47377 0.0
O260 O 0.98523 0.1972 0.50544 0.0
O261 O 1.02064 0.20769 0.47439 0.0
O262 O 0.96094 0.17984 0.43587 0.0
O263 O 0.97676 0.20668 0.40059 0.0
O264 O 1.01347 0.25431 0.44856 0.0
O265 O 0.99604 0.26822 0.39785 0.0
O266 O 0.92159 0.26975 0.38229 0.0
O267 O 0.94569 0.23976 0.3546 0.0
O268 O 0.9646 0.28921 0.42848 0.0
O269 O 0.95609 0.25756 0.46407 0.0
O270 O 0.91473 0.23187 0.44025 0.0
O271 O 0.93834 0.22196 0.48866 0.0
H272 H 1.06483 0.21713 0.50874 0.0
H273 H 1.089 0.23248 0.56014 0.0
H274 H 1.01645 0.21595 0.62052 0.0
H275 H 0.9922 0.20132 0.56931 0.0
H276 H 0.9259 0.31663 0.3576 0.0
H277 H 0.93956 0.35049 0.31554 0.0
H278 H 0.96525 0.28599 0.24683 0.0
H279 H 0.95054 0.25176 0.28888 0.0
C280 C 0.23899 0.76964 0.25109 0.0
Eu281 Eu 0.21772 0.73705 0.20526 0.0
C282 C 0.22874 0.78327 0.282 0.0
C283 C 0.24673 0.78786 0.30943 0.0
C284 C 0.23753 0.80116 0.33887 0.0
C285 C 0.21021 0.81024 0.34118 0.0
C286 C 0.192 0.805 0.314 0.0
C287 C 0.20115 0.79137 0.28469 0.0
C288 C 0.25416 0.72503 0.15024 0.0
C289 C 0.16698 0.77304 0.16794 0.0
C290 C 0.18203 0.67707 0.10815 0.0
Eu291 Eu 0.19054 0.71154 0.15783 0.0
C292 C 0.17789 0.64732 0.10936 0.0
C293 C 0.16739 0.63489 0.13909 0.0
C294 C 0.16458 0.60647 0.14093 0.0
C295 C 0.17206 0.58999 0.11298 0.0
C296 C 0.18327 0.60252 0.08358 0.0
C297 C 0.18625 0.63098 0.08187 0.0
C298 C 0.15537 0.71954 0.21006 0.0
C299 C 0.21174 0.67201 0.22415 0.0
O300 O 0.24053 0.74302 0.25282 0.0
O301 O 0.22907 0.77817 0.22184 0.0
O302 O 0.25714 0.71897 0.18228 0.0
O303 O 0.23005 0.73562 0.14774 0.0
O304 O 0.18179 0.76963 0.19646 0.0
O305 O 0.17093 0.75402 0.14389 0.0
O306 O 0.20646 0.68516 0.11745 0.0
O307 O 0.16261 0.69201 0.12152 0.0
O308 O 0.14794 0.72 0.17811 0.0
O309 O 0.18023 0.71287 0.21331 0.0
O310 O 0.20263 0.67282 0.1918 0.0
O311 O 0.21769 0.6963 0.23772 0.0
H312 H 0.268 0.78147 0.30788 0.0
H313 H 0.25205 0.80525 0.35932 0.0
H314 H 0.17081 0.81167 0.31531 0.0
H315 H 0.18678 0.78751 0.26402 0.0
H316 H 0.16116 0.64715 0.16084 0.0
H317 H 0.15599 0.59742 0.16393 0.0
H318 H 0.1887 0.59048 0.06131 0.0
H319 H 0.19478 0.64025 0.05896 0.0
C320 C 0.93276 0.76154 0.66174 0.0
Eu321 Eu 0.96013 0.74483 0.60909 0.0
C322 C 0.90327 0.76705 0.66418 0.0
C323 C 0.88826 0.77384 0.63457 0.0
C324 C 0.85975 0.7762 0.63589 0.0
C325 C 0.84578 0.7715 0.66678 0.0
C326 C 0.86084 0.76429 0.69628 0.0
C327 C 0.8894 0.76204 0.69494 0.0
C328 C 0.96104 0.76748 0.54583 0.0
C329 C 0.92147 0.7191 0.54619 0.0
C330 C 1.01861 0.68504 0.52028 0.0
Eu331 Eu 0.98721 0.71062 0.56374 0.0
C332 C 1.03463 0.69224 0.48963 0.0
C333 C 1.04975 0.71678 0.48741 0.0
C334 C 1.06178 0.72458 0.45626 0.0
C335 C 1.05831 0.70818 0.42704 0.0
C336 C 1.04375 0.68344 0.42956 0.0
C337 C 1.03215 0.67547 0.46066 0.0
C338 C 0.97284 0.68074 0.62367 0.0
C339 C 1.02322 0.76604 0.59566 0.0
O340 O 0.93854 0.73571 0.65642 0.0
O341 O 0.94708 0.77822 0.64234 0.0
O342 O 0.94037 0.77024 0.56651 0.0
O343 O 0.9801 0.75451 0.56 0.0
O344 O 0.92184 0.72743 0.57888 0.0
O345 O 0.94575 0.71301 0.53252 0.0
O346 O 0.9921 0.68767 0.51658 0.0
O347 O 1.02734 0.69374 0.55009 0.0
O348 O 0.96902 0.6731 0.59239 0.0
O349 O 0.98291 0.70504 0.62182 0.0
O350 O 1.02165 0.74513 0.57303 0.0
O351 O 1.00153 0.7693 0.6162 0.0
H352 H 0.89854 0.77708 0.61031 0.0
H353 H 0.84862 0.78182 0.61285 0.0
H354 H 0.85061 0.76112 0.72061 0.0
H355 H 0.90063 0.75618 0.71782 0.0
H356 H 1.05158 0.73023 0.50935 0.0
H357 H 1.07287 0.74381 0.45464 0.0
H358 H 1.04094 0.67053 0.40725 0.0
H359 H 1.02035 0.65662 0.4618 0.0
C360 C 0.18476 0.17266 0.90277 0.0
Eu361 Eu 0.19591 0.20986 0.85719 0.0
C362 C 0.17602 0.14412 0.89839 0.0
C363 C 0.16211 0.13599 0.86848 0.0
C364 C 0.15375 0.1088 0.86438 0.0
C365 C 0.15939 1.08933 0.88998 0.0
C366 C 0.17444 0.09734 0.91915 0.0
C367 C 0.18268 0.12456 0.9233 0.0
C368 C 0.16445 0.22119 0.80296 0.0
C369 C 0.22092 0.173 0.79139 0.0
C370 C 0.25098 0.2722 0.77385 0.0
Eu371 Eu 0.22773 0.23731 0.81568 0.0
C372 C 0.2423 0.28793 0.74338 0.0
C373 C 0.25004 0.31551 0.74048 0.0
C374 C 0.24164 0.3311 0.71229 0.0
C375 C 0.22546 0.31934 0.68627 0.0
C376 C 0.21785 0.29161 0.68902 0.0
C377 C 0.226 0.27607 0.71751 0.0
C378 C 0.25867 0.22507 0.87549 0.0
C379 C 0.17354 0.27188 0.84763 0.0
O380 O 0.20969 0.17792 0.89234 0.0
O381 O 0.16715 0.19137 0.8932 0.0
O382 O 0.15515 0.21923 0.83404 0.0
O383 O 0.18971 0.21496 0.80077 0.0
O384 O 0.20566 0.1725 0.81978 0.0
O385 O 0.23213 0.19713 0.78365 0.0
O386 O 0.25273 0.24566 0.77052 0.0
O387 O 0.23978 0.2793 0.80286 0.0
O388 O 0.26623 0.22114 0.84417 0.0
O389 O 0.23385 0.23408 0.87393 0.0
O390 O 0.19196 0.26952 0.82248 0.0
O391 O 0.17353 0.25143 0.87048 0.0
H392 H 0.15728 0.15076 0.84859 0.0
H393 H 0.14215 0.10315 0.84173 0.0
H394 H 0.17863 1.08287 0.93961 0.0
H395 H 0.1938 0.13044 0.94624 0.0
H396 H 0.26255 0.32505 0.76015 0.0
H397 H 0.24809 0.35233 0.71065 0.0
H398 H 0.20526 0.28211 0.66944 0.0
H399 H 0.21946 0.25487 0.71934 0.0
C400 C 0.76023 0.44178 0.16063 0.0
Eu401 Eu 0.73108 0.45256 0.10656 0.0
C402 C 0.78979 0.43663 0.1633 0.0
C403 C 0.80482 0.42989 0.13382 0.0
C404 C 0.83328 0.42732 0.13531 0.0
C405 C 0.84725 0.43153 0.16633 0.0
C406 C 0.8322 0.43881 0.19574 0.0
C407 C 0.80364 0.44142 0.19417 0.0
C408 C 0.73376 0.42294 0.04861 0.0
C409 C 0.76626 0.47514 0.03868 0.0
C410 C 0.66831 0.50302 0.01844 0.0
Eu411 Eu 0.70246 0.4799 0.06119 0.0
C412 C 0.65007 0.49388 0.99068 0.0
C413 C 0.64447 0.51192 0.9636 0.0
C414 C 0.62939 0.50307 0.93523 0.0
C415 C 0.61954 0.47601 0.93352 0.0
C416 C 0.62491 0.45798 0.9609 0.0
C417 C 0.6403 0.46678 0.98917 0.0
C418 C 0.71905 0.51563 0.11495 0.0
C419 C 0.66957 0.42565 0.0964 0.0
O420 O 0.75425 0.46669 0.15078 0.0
O421 O 0.7456 0.42315 0.14476 0.0
O422 O 0.75375 0.42532 0.07031 0.0
O423 O 0.71263 0.43576 0.05829 0.0
O424 O 0.76832 0.46848 0.07191 0.0
O425 O 0.741 0.47866 0.02696 0.0
O426 O 0.69441 0.49977 0.01232 0.0
O427 O 0.66165 0.49631 0.04984 0.0
O428 O 0.72446 0.51816 0.08272 0.0
O429 O 0.70762 0.49207 0.11783 0.0
O430 O 0.66981 0.44476 0.07176 0.0
O431 O 0.69166 0.42533 0.11679 0.0
H432 H 0.79463 0.42672 0.10955 0.0
H433 H 0.84436 0.42173 0.11229 0.0
H434 H 0.8424 0.44164 0.22018 0.0
H435 H 0.79239 0.44719 0.21699 0.0
H436 H 0.65215 0.53279 0.96415 0.0
H437 H 0.62525 0.51749 0.9147 0.0
H438 H 0.61768 0.43697 0.9601 0.0
H439 H 0.6449 0.45236 0.00952 0.0
C440 C 0.5143 1.00744 0.41617 0.0
Eu441 Eu 0.49665 0.98316 0.36103 0.0
C442 C 0.53288 0.99891 0.44424 0.0
C443 C 0.56149 1.00129 0.44076 0.0
C444 C 0.57886 0.99362 0.46757 0.0
C445 C 0.56805 0.98344 0.49852 0.0
C446 C 0.53948 0.9803 0.50162 0.0
C447 C 0.52207 0.98806 0.47482 0.0
C448 C 0.52537 0.97259 0.30363 0.0
C449 C 0.47107 1.02426 0.29897 0.0
C450 C 0.435 0.92723 0.27448 0.0
Eu451 Eu 0.46288 0.95887 0.31547 0.0
C452 C 0.44094 0.9071 0.24769 0.0
C453 C 0.46149 0.8872 0.25201 0.0
C454 C 0.46678 0.86835 0.22601 0.0
C455 C 0.45182 0.8693 0.19517 0.0
C456 C 0.43148 0.88949 0.19092 0.0
C457 C 0.42602 0.90812 0.21704 0.0
C458 C 0.43173 0.97498 0.37259 0.0
C459 C 0.51635 0.92059 0.345 0.0
O460 O 0.52518 1.01135 0.38598 0.0
O461 O 0.49082 0.99456 0.41443 0.0
O462 O 0.53647 0.97196 0.33396 0.0
O463 O 0.50092 0.98076 0.30475 0.0
O464 O 0.48184 1.0229 0.33069 0.0
O465 O 0.46328 1.00048 0.28522 0.0
O466 O 0.44107 0.95265 0.26723 0.0
O467 O 0.44162 0.92044 0.30582 0.0
O468 O 0.4271 0.98099 0.34087 0.0
O469 O 0.45511 0.96258 0.37333 0.0
O470 O 0.49739 0.92448 0.32051 0.0
O471 O 0.51776 0.94013 0.36879 0.0
H472 H 0.57051 1.0096 0.41758 0.0
H473 H 0.60073 0.99698 0.46459 0.0
H474 H 0.53054 0.97256 0.52515 0.0
H475 H 0.50009 0.98593 0.47828 0.0
H476 H 0.47344 0.88615 0.27542 0.0
H477 H 0.48243 0.85294 0.23019 0.0
H478 H 0.42004 0.89125 0.16718 0.0
H479 H 0.41027 0.92352 0.2132 0.0
C480 C 0.16566 0.50042 0.49842 0.0
Eu481 Eu 0.19943 0.47839 0.45473 0.0
C482 C 0.15422 0.49215 0.53194 0.0
C483 C 0.16981 0.49476 0.56213 0.0
C484 C 0.15887 0.48679 0.59365 0.0
C485 C 0.1321 0.47611 0.5957 0.0
C486 C 0.11658 0.47333 0.56548 0.0
C487 C 0.12749 0.48137 0.53395 0.0
C488 C 0.21103 0.50922 0.39493 0.0
C489 C 0.16574 0.42397 0.41982 0.0
C490 C 0.26288 0.4332 0.36297 0.0
Eu491 Eu 0.22783 0.44578 0.41055 0.0
C492 C 0.29293 0.43087 0.36331 0.0
C493 C 0.30688 0.42217 0.39295 0.0
C494 C 0.3355 0.42031 0.3931 0.0
C495 C 0.35061 0.42738 0.36373 0.0
C496 C 0.33659 0.43704 0.33454 0.0
C497 C 0.30796 0.43876 0.33436 0.0
C498 C 0.21746 0.41826 0.46949 0.0
C499 C 0.2658 0.47325 0.47394 0.0
O500 O 0.19187 0.50602 0.49741 0.0
O501 O 0.15758 0.48627 0.47184 0.0
O502 O 0.21388 0.5172 0.42625 0.0
O503 O 0.20279 0.48407 0.3963 0.0
O504 O 0.16743 0.44144 0.44628 0.0
O505 O 0.18607 0.42537 0.39706 0.0
O506 O 0.25348 0.458 0.36741 0.0
O507 O 0.24927 0.41486 0.38057 0.0
O508 O 0.21877 0.40603 0.43997 0.0
O509 O 0.22435 0.44293 0.46672 0.0
O510 O 0.26562 0.46167 0.44293 0.0
O511 O 0.24115 0.4801 0.48643 0.0
H512 H 0.19044 0.50308 0.56154 0.0
H513 H 0.17119 0.48963 0.61652 0.0
H514 H 0.09599 0.46492 0.56618 0.0
H515 H 0.11499 0.47915 0.51112 0.0
H516 H 0.29565 0.41652 0.41587 0.0
H517 H 0.34581 0.41282 0.4159 0.0
H518 H 0.34766 0.44215 0.31131 0.0
H519 H 0.29754 0.4459 0.31147 0.0
C520 C 0.93331 0.92022 0.24266 0.0
Eu521 Eu 0.95949 0.95574 0.20481 0.0
C522 C 0.93958 0.90234 0.27204 0.0
C523 C 0.95864 0.88085 0.2695 0.0
C524 C 0.96455 0.86457 0.29802 0.0
C525 C 0.95171 0.86963 0.32966 0.0
C526 C 0.93264 0.89116 0.33203 0.0
C527 C 0.92652 0.9072 0.30345 0.0
C528 C 0.92759 0.97385 0.14889 0.0
C529 C 1.01353 0.92293 0.17011 0.0
C530 C 1.00855 1.01645 0.1144 0.0
Eu531 Eu 0.99177 0.98612 0.16513 0.0
C532 C 1.0219 1.00944 0.08155 0.0
C533 C 1.05057 1.00669 0.07983 0.0
C534 C 1.06324 0.99947 0.04917 0.0
C535 C 1.0476 0.99495 0.01938 0.0
C536 C 1.01888 0.9974 0.0211 0.0
C537 C 1.00614 1.0046 0.05189 0.0
C538 C 1.02043 0.97096 0.22135 0.0
C539 C 0.96523 1.02027 0.23145 0.0
O540 O 0.9337 0.94647 0.24884 0.0
O541 O 0.94451 0.91414 0.21323 0.0
O542 O 0.9221 0.97636 0.18102 0.0
O543 O 0.95212 0.96387 0.14728 0.0
O544 O 0.99551 0.9232 0.19593 0.0
O545 O 1.01272 0.94475 0.14945 0.0
O546 O 1.02297 1.01231 0.14212 0.0
O547 O 0.98301 1.00874 0.11805 0.0
O548 O 1.03172 0.97371 0.19139 0.0
O549 O 0.99572 0.97833 0.22088 0.0
O550 O 0.97741 1.02294 0.20089 0.0
O551 O 0.9577 0.99476 0.23998 0.0
H552 H 0.96905 0.8766 0.24557 0.0
H553 H 0.97902 0.84789 0.29517 0.0
H554 H 0.92274 0.89596 0.35612 0.0
H555 H 0.91177 0.9237 0.30599 0.0
H556 H 1.06335 1.0104 0.10211 0.0
H557 H 1.08547 0.99858 0.04854 0.0
H558 H 1.00633 0.99423 0.99849 0.0
H559 H 0.98398 1.00653 0.05238 0.0
C560 C 0.5161 0.69057 0.99487 0.0
Eu561 Eu 0.48245 0.71602 0.95381 0.0
C562 C 0.53579 0.69886 0.0215 0.0
C563 C 0.55105 0.72323 0.01864 0.0
C564 C 0.56808 0.73169 0.04553 0.0
C565 C 0.56978 0.71613 0.07584 0.0
C566 C 0.55443 0.6918 0.07858 0.0
C567 C 0.53764 0.68323 0.0516 0.0
C568 C 0.46383 0.68732 0.89539 0.0
C569 C 0.51592 0.77224 0.92254 0.0
C570 C 0.42935 0.77673 0.86234 0.0
Eu571 Eu 0.45099 0.75194 0.91488 0.0
C572 C 0.43973 0.78867 0.83003 0.0
C573 C 0.44131 0.81728 0.82693 0.0
C574 C 0.44994 0.82933 0.79642 0.0
C575 C 0.45696 0.81308 0.76804 0.0
C576 C 0.4562 0.78437 0.77139 0.0
C577 C 0.44772 0.77223 0.80218 0.0
C578 C 0.45618 0.77045 0.97923 0.0
C579 C 0.41656 0.7219 0.97731 0.0
O580 O 0.49042 0.69545 1.00227 0.0
O581 O 0.52214 0.69652 0.96301 0.0
O582 O 0.46366 0.67861 0.92662 0.0
O583 O 0.47265 0.71228 0.89654 0.0
O584 O 0.51765 0.74841 0.93985 0.0
O585 O 0.49147 0.77818 0.90896 0.0
O586 O 0.43703 0.7893 0.89024 0.0
O587 O 0.42956 0.74999 0.86565 0.0
O588 O 0.43363 0.77321 0.96165 0.0
O589 O 0.47478 0.75948 0.96174 0.0
O590 O 0.41378 0.73369 0.94647 0.0
O591 O 0.44202 0.71478 0.98658 0.0
H592 H 0.54956 0.73589 0.99588 0.0
H593 H 0.57958 0.75061 0.04287 0.0
H594 H 0.55562 0.67925 0.10147 0.0
H595 H 0.52578 0.66453 0.0544 0.0
H596 H 0.43518 0.83045 0.84789 0.0
H597 H 0.44953 0.85149 0.79452 0.0
H598 H 0.46132 0.77135 0.74986 0.0
H599 H 0.44686 0.75007 0.80385 0.0
C600 C 0.74126 0.2789 0.74353 0.0
Eu601 Eu 0.7192 0.24273 0.70285 0.0
C602 C 0.73449 0.28965 0.7776 0.0
C603 C 0.73775 0.31769 0.78423 0.0
C604 C 0.73296 0.32797 0.81707 0.0
C605 C 0.72513 0.31023 0.84374 0.0
C606 C 0.72083 0.28233 0.83675 0.0
C607 C 0.72521 0.27214 0.80382 0.0
C608 C 0.75093 0.23003 0.64411 0.0
C609 C 0.6647 0.27427 0.66721 0.0
C610 C 0.67843 0.17439 0.61733 0.0
Eu611 Eu 0.68863 0.21219 0.66242 0.0
C612 C 0.6759 0.14451 0.62025 0.0
C613 C 0.6664 0.13224 0.65063 0.0
C614 C 0.66425 0.10374 0.65308 0.0
C615 C 0.67173 1.08712 0.62524 0.0
C616 C 0.68233 0.09953 0.59545 0.0
C617 C 0.6844 0.12799 0.59301 0.0
C618 C 0.65812 0.22444 0.7175 0.0
C619 C 0.71493 0.17828 0.72996 0.0
O620 O 0.74894 0.2533 0.74229 0.0
O621 O 0.72442 0.28537 0.71879 0.0
O622 O 0.75858 0.22795 0.67566 0.0
O623 O 0.72561 0.23767 0.64481 0.0
O624 O 0.68242 0.27407 0.69336 0.0
O625 O 0.66629 0.25279 0.64607 0.0
O626 O 0.70303 0.18399 0.6232 0.0
O627 O 0.65922 0.18898 0.63185 0.0
O628 O 0.64797 0.22225 0.6868 0.0
O629 O 0.6833 0.21831 0.71838 0.0
O630 O 0.70197 0.17587 0.69993 0.0
O631 O 0.7227 0.20373 0.73811 0.0
H632 H 0.74464 0.33151 0.76422 0.0
H633 H 0.73664 0.34952 0.82199 0.0
H634 H 0.71468 0.26835 0.85696 0.0
H635 H 0.72202 0.25047 0.79911 0.0
H636 H 0.6602 0.14468 0.67225 0.0
H637 H 0.65599 0.09471 0.67629 0.0
H638 H 0.68773 1.08733 0.57328 0.0
H639 H 0.69218 0.13713 0.56961 0.0
H640 H 0.53935 0.3166 0.1399 0.0
H641 H 0.56219 0.27405 0.04678 0.0
H642 H 0.59954 0.30743 0.03749 0.0
H643 H 0.55527 0.38647 0.11025 0.0
H644 H 0.56978 0.39806 0.15024 0.0
H645 H 0.54427 0.3712 0.15007 0.0
H646 H 0.57735 0.33954 0.18322 0.0
H647 H 0.60294 0.36631 0.18355 0.0
H648 H 0.61115 0.33307 0.16629 0.0
H649 H 0.63503 0.34831 0.03581 0.0
H650 H 0.66566 0.38812 0.04457 0.0
H651 H 0.62522 0.40516 0.14103 0.0
C652 C 0.55224 0.31405 0.11757 0.0
C653 C 0.5468 0.29153 0.09417 0.0
C654 C 0.565 0.29012 0.06558 0.0
C655 C 0.58663 0.30945 0.0599 0.0
C656 C 0.59131 0.33103 0.08308 0.0
C657 C 0.57478 0.33326 0.11175 0.0
C658 C 0.58507 0.35821 0.13304 0.0
C659 C 0.56223 0.37976 0.1361 0.0
C660 C 0.59469 0.34872 0.16866 0.0
C661 C 0.60964 0.36972 0.11196 0.0
C662 C 0.6125 0.35368 0.08295 0.0
C663 C 0.63283 0.36051 0.05878 0.0
C664 C 0.65047 0.38358 0.06404 0.0
C665 C 0.64909 0.40056 0.0937 0.0
C666 C 0.62787 0.39301 0.1181 0.0
H667 H 0.63912 0.80351 0.39178 0.0
H668 H 0.65481 0.80011 0.28257 0.0
H669 H 0.61755 0.83352 0.27266 0.0
H670 H 0.56426 0.81354 0.3878 0.0
H671 H 0.56263 0.83822 0.42206 0.0
H672 H 0.5898 0.81313 0.42131 0.0
H673 H 0.6259 0.8518 0.42405 0.0
H674 H 0.59882 0.87699 0.42491 0.0
H675 H 0.62512 0.87887 0.39252 0.0
H676 H 0.57464 0.86688 0.27342 0.0
H677 H 0.53715 0.89949 0.28495 0.0
H678 H 0.55008 0.88896 0.39412 0.0
C679 C 0.63491 0.80978 0.36567 0.0
C680 C 0.65102 0.79812 0.33793 0.0
C681 C 0.64387 0.80795 0.30462 0.0
C682 C 0.62222 0.8272 0.29864 0.0
C683 C 0.60704 0.83813 0.32609 0.0
C684 C 0.61352 0.83017 0.3592 0.0
C685 C 0.59468 0.8465 0.38412 0.0
C686 C 0.57679 0.82667 0.40509 0.0
C687 C 0.61217 0.86461 0.40783 0.0
C688 C 0.5765 0.8645 0.36012 0.0
C689 C 0.58384 0.85876 0.32663 0.0
C690 C 0.56935 0.87148 0.29972 0.0
C691 C 0.54756 0.89031 0.30666 0.0
C692 C 0.53957 0.898 0.3405 0.0
C693 C 0.55494 0.88445 0.36768 0.0
H694 H 0.13286 0.8949 0.64594 0.0
H695 H 0.15495 0.89532 0.53838 0.0
H696 H 0.12358 0.85652 0.52822 0.0
H697 H 0.12195 0.82021 0.65593 0.0
H698 H 1.09175 0.82298 0.68237 0.0
H699 H 0.11714 0.84995 0.68263 0.0
H700 H 1.07985 0.88524 0.66678 0.0
H701 H 1.05434 0.85838 0.66657 0.0
H702 H 1.05891 0.87974 0.62925 0.0
H703 H 1.0899 0.81425 0.52909 0.0
H704 H 1.05477 0.77871 0.53912 0.0
H705 H 1.04678 0.80598 0.64432 0.0
C706 C 0.1313 0.88685 0.62019 0.0
C707 C 0.14781 0.89903 0.59308 0.0
C708 C 0.14365 0.88722 0.56002 0.0
C709 C 0.12549 0.86472 0.55388 0.0
C710 C 0.10982 0.85339 0.58065 0.0
C711 C 0.11205 0.86446 0.61318 0.0
C712 C 1.09121 0.84913 0.63672 0.0
C713 C 0.10642 0.83472 0.66619 0.0
C714 C 1.06981 0.86933 0.65068 0.0
C715 C 1.07732 0.82769 0.61269 0.0
C716 C 1.08894 0.83043 0.58053 0.0
C717 C 1.0807 0.81249 0.55424 0.0
C718 C 1.06039 0.79185 0.56034 0.0
C719 C 1.04684 0.78841 0.5925 0.0
C720 C 1.05591 0.80726 0.6191 0.0
H721 H 1.04801 0.3853 0.89722 0.0
H722 H 1.0387 0.39633 0.78749 0.0
H723 H 1.07619 0.36349 0.77765 0.0
H724 H 0.12316 0.37521 0.8985 0.0
H725 H 0.12311 0.34826 0.93019 0.0
H726 H 0.09602 0.37345 0.92982 0.0
H727 H 1.05987 0.33492 0.92571 0.0
H728 H 1.08686 0.30962 0.92616 0.0
H729 H 1.0622 0.31011 0.89165 0.0
H730 H 0.11789 0.32996 0.7784 0.0
H731 H 0.1547 0.29659 0.78909 0.0
H732 H 0.13739 0.29967 0.89804 0.0
C733 C 1.05369 0.38084 0.87102 0.0
C734 C 1.03926 0.39448 0.84313 0.0
C735 C 1.04829 0.38695 0.80966 0.0
C736 C 1.07009 0.36803 0.8037 0.0
C737 C 1.08358 0.35515 0.83123 0.0
C738 C 1.07541 0.36086 0.86439 0.0
C739 C 1.09299 0.34278 0.88905 0.0
C740 C 0.10981 0.36101 0.91335 0.0
C741 C 1.07437 0.3232 0.90937 0.0
C742 C 0.11232 0.32638 0.86479 0.0
C743 C 0.10655 0.33444 0.83152 0.0
C744 C 0.12206 0.32356 0.80447 0.0
C745 C 0.14345 0.30427 0.81098 0.0
C746 C 0.15003 0.29427 0.84443 0.0
C747 C 0.13358 0.30594 0.87185 0.0
H748 H 0.60722 0.91894 0.93745 0.0
H749 H 0.67633 0.87314 0.89762 0.0
H750 H 0.64764 0.83152 0.89536 0.0
H751 H 0.57578 0.86316 0.98802 0.0
H752 H 0.54077 0.87144 0.97709 0.0
H753 H 0.56665 0.89794 0.97727 0.0
H754 H 0.5546 0.91017 0.91469 0.0
H755 H 0.52864 0.88374 0.91437 0.0
H756 H 0.55535 0.88377 0.88241 0.0
H757 H 0.61081 0.79147 0.90071 0.0
H758 H 0.57018 0.7611 0.90572 0.0
H759 H 0.52076 0.83096 0.93488 0.0
C760 C 0.61648 0.90024 0.92812 0.0
C761 C 0.64517 0.90049 0.91782 0.0
C762 C 0.65513 0.87475 0.90568 0.0
C763 C 0.63868 0.85045 0.90442 0.0
C764 C 0.61097 0.85091 0.91456 0.0
C765 C 0.59971 0.87541 0.92558 0.0
C766 C 0.56877 0.8702 0.93326 0.0
C767 C 0.56262 0.87605 0.97116 0.0
C768 C 0.55076 0.88804 0.9098 0.0
C769 C 0.56447 0.83924 0.92516 0.0
C770 C 0.58943 0.82849 0.91504 0.0
C771 C 0.59127 0.80019 0.90808 0.0
C772 C 0.56769 0.78273 0.91105 0.0
C773 C 0.54116 0.7927 0.92002 0.0
C774 C 0.54006 0.82192 0.92716 0.0
H775 H 0.54561 0.39317 0.71842 0.0
H776 H 0.53154 0.40242 0.60935 0.0
H777 H 0.56622 0.36669 0.59796 0.0
H778 H 0.6206 0.38344 0.71077 0.0
H779 H 0.62335 0.35868 0.74496 0.0
H780 H 0.5962 0.3838 0.74547 0.0
H781 H 0.56027 0.3451 0.7501 0.0
H782 H 0.58731 0.31985 0.74954 0.0
H783 H 0.55989 0.31814 0.71854 0.0
H784 H 0.60327 0.32694 0.59738 0.0
H785 H 0.63944 0.2923 0.60748 0.0
H786 H 0.63563 0.30892 0.71641 0.0
C787 C 0.54943 0.3875 0.69205 0.0
C788 C 0.53432 0.40126 0.66482 0.0
C789 C 0.54164 0.39286 0.63104 0.0
C790 C 0.56173 0.3722 0.62422 0.0
C791 C 0.57604 0.35931 0.65116 0.0
C792 C 0.57039 0.36691 0.68459 0.0
C793 C 0.59005 0.35051 0.70859 0.0
C794 C 0.60865 0.37028 0.72866 0.0
C795 C 0.57339 0.33233 0.73318 0.0
C796 C 0.60735 0.33254 0.68372 0.0
C797 C 0.59847 0.33784 0.65066 0.0
C798 C 0.61028 0.32319 0.62331 0.0
C799 C 0.63123 0.30316 0.62937 0.0
C800 C 0.64183 0.29717 0.66265 0.0
C801 C 0.62915 0.31265 0.69026 0.0
H802 H 1.04835 0.30257 0.47031 0.0
H803 H 1.03753 0.2914 0.36096 0.0
H804 H 1.07235 0.32721 0.35008 0.0
H805 H 1.05689 0.37787 0.46552 0.0
H806 H 1.08226 0.38002 0.49912 0.0
H807 H 1.05744 0.35251 0.49919 0.0
H808 H 0.09668 0.31712 0.50125 0.0
H809 H 0.12163 0.34451 0.50118 0.0
H810 H 0.12314 0.3181 0.46899 0.0
H811 H 0.11109 0.36493 0.34989 0.0
H812 H 0.1457 0.40099 0.36025 0.0
H813 H 0.13195 0.3936 0.4696 0.0
C814 C 1.05348 0.3073 0.44397 0.0
C815 C 1.03956 0.29267 0.41649 0.0
C816 C 1.04723 0.3011 0.3828 0.0
C817 C 1.06735 0.32185 0.37627 0.0
C818 C 1.08043 0.33561 0.40346 0.0
C819 C 1.07358 0.32884 0.43683 0.0
C820 C 1.0902 0.34798 0.46118 0.0
C821 C 1.07053 0.36564 0.48254 0.0
C822 C 0.10902 0.33091 0.48456 0.0
C823 C 0.10755 0.36625 0.43653 0.0
C824 C 0.10158 0.35834 0.40329 0.0
C825 C 0.11541 0.37116 0.37596 0.0
C826 C 0.13542 0.39206 0.38219 0.0
C827 C 0.14227 0.4016 0.41568 0.0
C828 C 0.12753 0.38798 0.44333 0.0
H829 H 0.13333 0.80324 0.21737 0.0
H830 H 0.14726 0.7967 0.10805 0.0
H831 H 0.11191 0.83213 0.09782 0.0
H832 H 1.05802 0.81236 0.21021 0.0
H833 H 1.0553 0.83626 0.24523 0.0
H834 H 1.08261 0.8113 0.24479 0.0
H835 H 0.11834 0.85009 0.25056 0.0
H836 H 1.09113 0.87515 0.25097 0.0
H837 H 0.11838 0.87782 0.21992 0.0
H838 H 1.07434 0.87152 0.09867 0.0
H839 H 1.0382 0.90581 0.10999 0.0
H840 H 1.04269 0.88686 0.21839 0.0
C841 C 0.12926 0.80936 0.19117 0.0
C842 C 0.14454 0.79644 0.16354 0.0
C843 C 0.13701 0.80551 0.13003 0.0
C844 C 0.11654 0.82603 0.12389 0.0
C845 C 0.10212 0.83812 0.15125 0.0
C846 C 0.108 0.82982 0.1844 0.0
C847 C 1.08836 0.84552 0.20901 0.0
C848 C 1.06999 0.82515 0.22849 0.0
C849 C 0.10504 0.86318 0.23413 0.0
C850 C 1.0708 0.86397 0.18481 0.0
C851 C 1.07951 0.85944 0.15155 0.0
C852 C 1.06747 0.87464 0.12474 0.0
C853 C 1.04651 0.89447 0.13152 0.0
C854 C 1.03608 0.89975 0.16502 0.0
C855 C 1.04896 0.88368 0.1921 0.0
H856 H 0.31647 0.21436 0.87855 0.0
H857 H 0.24898 0.237 0.94481 0.0
H858 H 0.28109 0.23805 0.99431 0.0
H859 H 0.35317 0.17057 0.94066 0.0
H860 H 0.38691 0.18131 0.92713 0.0
H861 H 0.35866 0.18188 0.89718 0.0
H862 H 0.36855 0.23253 0.88502 0.0
H863 H 0.3961 0.23333 0.91597 0.0
H864 H 0.36777 0.25696 0.9195 0.0
H865 H 0.32273 0.23646 0.03922 0.0
H866 H 0.36634 0.23358 0.07153 0.0
H867 H 0.40904 0.21259 0.97786 0.0
C868 C 0.30822 0.21952 0.90346 0.0
C869 C 0.27923 0.2256 0.9067 0.0
C870 C 0.27041 0.23224 0.94048 0.0
C871 C 0.28885 0.23285 0.96918 0.0
C872 C 0.31699 0.22683 0.96498 0.0
C873 C 0.32661 0.22028 0.9327 0.0
C874 C 0.35795 0.21499 0.93503 0.0
C875 C 0.36457 0.18543 0.92435 0.0
C876 C 0.37356 0.23567 0.91254 0.0
C877 C 0.36464 0.21947 0.97345 0.0
C878 C 0.34056 0.2262 0.99026 0.0
C879 C 0.3414 0.23115 0.02577 0.0
C880 C 0.36674 0.22937 0.0443 0.0
C881 C 0.39222 0.22259 0.02841 0.0
C882 C 0.39056 0.21761 0.99187 0.0
H883 H 0.69607 0.52817 0.18382 0.0
H884 H 0.75072 0.5607 0.10593 0.0
H885 H 0.75815 0.60192 0.14066 0.0
H886 H 0.66533 0.595 0.20679 0.0
H887 H 0.66327 0.58837 0.25219 0.0
H888 H 0.66211 0.56027 0.22223 0.0
H889 H 0.70309 0.53754 0.25305 0.0
H890 H 0.70437 0.56559 0.28309 0.0
H891 H 0.7345 0.55662 0.25881 0.0
H892 H 0.76006 0.64187 0.18323 0.0
H893 H 0.75596 0.67615 0.22903 0.0
H894 H 0.70019 0.62224 0.2838 0.0
C895 C 0.70983 0.54379 0.17409 0.0
C896 C 0.72286 0.54002 0.14099 0.0
C897 C 0.74028 0.56197 0.13037 0.0
C898 C 0.74474 0.58595 0.15026 0.0
C899 C 0.73173 0.5891 0.18199 0.0
C900 C 0.71454 0.56865 0.19409 0.0
C901 C 0.70298 0.57824 0.22926 0.0
C902 C 0.67155 0.5806 0.22752 0.0
C903 C 0.71174 0.5583 0.25775 0.0
C904 C 0.7163 0.60694 0.2348 0.0
C905 C 0.73283 0.61248 0.20687 0.0
C906 C 0.74716 0.63743 0.20513 0.0
C907 C 0.74468 0.65712 0.23181 0.0
C908 C 0.72799 0.65291 0.26135 0.0
C909 C 0.71357 0.62683 0.26242 0.0
H910 H 0.41612 0.94482 0.4363 0.0
H911 H 0.39145 1.01258 0.37093 0.0
H912 H 0.35016 1.01915 0.40571 0.0
H913 H 0.34639 0.91828 0.451 0.0
H914 H 0.35118 0.90955 0.49554 0.0
H915 H 0.38016 0.9098 0.46679 0.0
H916 H 0.40543 0.94371 0.50655 0.0
H917 H 0.37651 0.94346 0.5354 0.0
H918 H 0.38901 0.97545 0.51819 0.0
H919 H 0.30888 1.01837 0.44561 0.0
H920 H 0.27253 1.01116 0.48839 0.0
H921 H 0.31973 0.94475 0.53331 0.0
C922 C 0.40235 0.96138 0.42958 0.0
C923 C 0.40825 0.97833 0.39986 0.0
C924 C 0.3885 0.99916 0.39278 0.0
C925 C 0.3645 1.00314 0.41269 0.0
C926 C 0.35913 0.98625 0.4409 0.0
C927 C 0.37752 0.96579 0.44976 0.0
C928 C 0.3657 0.95058 0.48162 0.0
C929 C 0.36057 0.92024 0.47324 0.0
C930 C 0.38534 0.95346 0.51227 0.0
C931 C 0.33811 0.96557 0.48885 0.0
C932 C 0.33503 0.98604 0.46464 0.0
C933 C 0.31139 1.00244 0.46471 0.0
C934 C 0.29049 0.99811 0.48955 0.0
C935 C 0.2923 0.97755 0.5154 0.0
C936 C 0.31706 0.96103 0.51471 0.0
H937 H 0.96414 0.62276 0.62629 0.0
H938 H 0.98362 0.69085 0.69314 0.0
H939 H 0.98509 0.65882 0.74268 0.0
H940 H 0.92082 0.58465 0.68638 0.0
H941 H 0.93293 0.5513 0.67356 0.0
H942 H 0.93336 0.57938 0.64343 0.0
H943 H 0.98528 0.57203 0.63357 0.0
H944 H 0.9849 0.54386 0.66358 0.0
H945 H 1.00834 0.57205 0.6698 0.0
H946 H 0.98432 0.61709 0.78754 0.0
H947 H 0.98214 0.57328 0.81963 0.0
H948 H 0.96366 0.5305 0.72514 0.0
C949 C 0.96872 0.63113 0.65133 0.0
C950 C 0.97372 0.66025 0.6548 0.0
C951 C 0.97968 0.66929 0.6887 0.0
C952 C 0.98054 0.65091 0.71739 0.0
C953 C 0.97557 0.62263 0.713 0.0
C954 C 0.96987 0.6128 0.68052 0.0
C955 C 0.96556 0.58138 0.68263 0.0
C956 C 0.93644 0.57372 0.67078 0.0
C957 C 0.9873 0.56645 0.6611 0.0
C958 C 0.96943 0.57493 0.72116 0.0
C959 C 0.97525 0.59911 0.73823 0.0
C960 C 0.97973 0.59833 0.77389 0.0
C961 C 0.97839 0.57293 0.79227 0.0
C962 C 0.97251 0.54744 0.77597 0.0
C963 C 0.968 0.54904 0.73937 0.0
H964 H 0.81901 0.95063 0.98183 0.0
H965 H 0.76585 1.00708 0.03607 0.0
H966 H 0.8013 1.0129 0.08039 0.0
H967 H 0.84741 0.91823 0.05997 0.0
H968 H 0.88185 0.91423 0.04383 0.0
H969 H 0.85314 0.91469 0.01454 0.0
H970 H 0.87555 0.95441 0.98099 0.0
H971 H 0.90434 0.9541 0.01016 0.0
H972 H 0.88526 0.98528 1.00331 0.0
H973 H 0.84239 1.01347 0.12078 0.0
H974 H 0.88404 1.00719 0.1551 0.0
H975 H 0.9149 0.94903 0.08047 0.0
C976 C 0.81486 0.96453 1.00277 0.0
C977 C 0.78867 0.9787 1.00414 0.0
C978 C 0.78495 0.99599 0.03314 0.0
C979 C 0.80533 0.99949 0.05892 0.0
C980 C 0.8304 0.98546 0.0569 0.0
C981 C 0.83537 0.96811 0.02967 0.0
C982 C 0.86419 0.95493 0.03527 0.0
C983 C 0.86149 0.92365 0.03858 0.0
C984 C 0.88349 0.96262 1.00565 0.0
C985 C 0.87453 0.96766 0.06953 0.0
C986 C 0.85433 0.98531 0.08105 0.0
C987 C 0.85813 0.99963 0.11172 0.0
C988 C 0.88238 0.99584 0.13134 0.0
C989 C 0.904 0.97775 0.12161 0.0
C990 C 0.89968 0.96347 0.08941 0.0
H991 H 0.45546 0.62944 0.89342 0.0
H992 H 0.47286 0.69743 0.82523 0.0
H993 H 0.47414 0.66504 0.77617 0.0
H994 H 0.49926 0.57901 0.85059 0.0
H995 H 0.47619 0.55057 0.85728 0.0
H996 H 0.47634 0.57893 0.88685 0.0
H997 H 0.42437 0.58574 0.87705 0.0
H998 H 0.42407 0.5574 0.84743 0.0
H999 H 0.41156 0.59052 0.83407 0.0
H1000 H 0.47418 0.62299 0.73232 0.0
H1001 H 0.47289 0.5791 0.70095 0.0
H1002 H 0.45508 0.5363 0.79583 0.0
C1003 C 0.45949 0.63775 0.86817 0.0
C1004 C 0.46404 0.66693 0.86421 0.0
C1005 C 0.46926 0.67586 0.83006 0.0
C1006 C 0.47003 0.65725 0.80165 0.0
C1007 C 0.46556 0.6289 0.80659 0.0
C1008 C 0.46035 0.61922 0.83926 0.0
C1009 C 0.45635 0.58771 0.83769 0.0
C1010 C 0.47834 0.5732 0.85941 0.0
C1011 C 0.42736 0.57988 0.8498 0.0
C1012 C 0.46005 0.58096 0.79923 0.0
C1013 C 0.4654 0.60516 0.7818 0.0
C1014 C 0.46989 0.60425 0.74623 0.0
C1015 C 0.46905 0.57873 0.72829 0.0
C1016 C 0.46363 0.55315 0.74481 0.0
C1017 C 0.45901 0.55485 0.78138 0.0
H1018 H 0.80921 0.22333 0.64323 0.0
H1019 H 0.74127 0.23687 0.5735 0.0
H1020 H 0.77395 0.23672 0.52464 0.0
H1021 H 0.85954 0.26642 0.59724 0.0
H1022 H 0.88818 0.24414 0.60611 0.0
H1023 H 0.85955 0.24538 0.6353 0.0
H1024 H 0.85362 0.19294 0.62959 0.0
H1025 H 0.88211 0.19173 0.60016 0.0
H1026 H 0.84916 0.17806 0.58766 0.0
H1027 H 0.81632 0.2349 0.48088 0.0
H1028 H 0.86053 0.23243 0.44993 0.0
H1029 H 0.90296 0.2204 0.54649 0.0
C1030 C 0.80099 0.2263 0.6177 0.0
C1031 C 0.77171 0.23014 0.61324 0.0
C1032 C 0.76291 0.23392 0.57872 0.0
C1033 C 0.78168 0.23383 0.55041 0.0
C1034 C 0.8101 0.23003 0.55581 0.0
C1035 C 0.8197 0.22642 0.58888 0.0
C1036 C 0.85132 0.22291 0.58779 0.0
C1037 C 0.86548 0.24609 0.60781 0.0
C1038 C 0.85954 0.19474 0.60217 0.0
C1039 C 0.8582 0.22492 0.54915 0.0
C1040 C 0.834 0.22905 0.53116 0.0
C1041 C 0.83507 0.23164 0.49525 0.0
C1042 C 0.86074 0.23014 0.47754 0.0
C1043 C 0.88631 0.22597 0.4947 0.0
C1044 C 0.88442 0.22335 0.53159 0.0
H1045 H 0.21904 0.56712 0.39345 0.0
H1046 H 0.20099 0.49975 0.32484 0.0
H1047 H 0.19971 0.53253 0.276 0.0
H1048 H 0.17508 0.61825 0.35048 0.0
H1049 H 0.19835 0.64642 0.35773 0.0
H1050 H 0.19778 0.61781 0.38704 0.0
H1051 H 0.24983 0.61085 0.37779 0.0
H1052 H 0.25041 0.63936 0.34831 0.0
H1053 H 0.2628 0.60626 0.33492 0.0
H1054 H 0.20043 0.5749 0.23224 0.0
H1055 H 0.2027 0.61901 0.20114 0.0
H1056 H 0.22002 0.6609 0.29659 0.0
C1057 C 0.21478 0.55904 0.36817 0.0
C1058 C 0.21011 0.52991 0.36401 0.0
C1059 C 0.20465 0.52128 0.32982 0.0
C1060 C 0.2039 0.54011 0.30154 0.0
C1061 C 0.20855 0.56839 0.30666 0.0
C1062 C 0.21383 0.5778 0.33941 0.0
C1063 C 0.21801 0.60928 0.33808 0.0
C1064 C 0.196 0.6238 0.35963 0.0
C1065 C 0.24699 0.61689 0.35053 0.0
C1066 C 0.21448 0.61631 0.29964 0.0
C1067 C 0.20897 0.59229 0.282 0.0
C1068 C 0.20478 0.5935 0.24634 0.0
C1069 C 0.20612 0.61912 0.22855 0.0
C1070 C 0.21168 0.6445 0.24536 0.0
C1071 C 0.21593 0.6425 0.28198 0.0
H1072 H 0.81689 0.71271 0.37575 0.0
H1073 H 0.74991 0.73575 0.44256 0.0
H1074 H 0.78237 0.73635 0.49184 0.0
H1075 H 0.85321 0.66812 0.43753 0.0
H1076 H 0.88699 0.67832 0.42354 0.0
H1077 H 0.85851 0.6793 0.39396 0.0
H1078 H 0.86901 0.72982 0.38158 0.0
H1079 H 0.89689 0.73012 0.41209 0.0
H1080 H 0.86901 0.75424 0.41611 0.0
H1081 H 0.82474 0.73477 0.53633 0.0
H1082 H 0.8686 0.73139 0.56798 0.0
H1083 H 0.91009 0.7093 0.47386 0.0
C1084 C 0.80878 0.71782 0.40074 0.0
C1085 C 0.77984 0.72418 0.40416 0.0
C1086 C 0.77125 0.73072 0.43806 0.0
C1087 C 0.78993 0.73111 0.46662 0.0
C1088 C 0.81803 0.72485 0.46219 0.0
C1089 C 0.82735 0.71822 0.42981 0.0
C1090 C 0.85863 0.71246 0.43175 0.0
C1091 C 0.8647 0.68279 0.42104 0.0
C1092 C 0.87436 0.73286 0.40902 0.0
C1093 C 0.86574 0.71687 0.47006 0.0
C1094 C 0.84187 0.72398 0.48717 0.0
C1095 C 0.84318 0.7291 0.52263 0.0
C1096 C 0.86869 0.72703 0.54078 0.0
C1097 C 0.89394 0.71973 0.5246 0.0
C1098 C 0.89183 0.71465 0.48811 0.0
H1099 H 0.1894 0.12218 0.78235 0.0
H1100 H 0.2593 0.16629 0.74081 0.0
H1101 H 0.26592 0.1298 0.69822 0.0
H1102 H 0.21684 1.05183 0.76848 0.0
H1103 H 0.18455 1.03708 0.75529 0.0
H1104 H 0.18504 1.066 0.78405 0.0
H1105 H 0.15378 1.09298 0.74271 0.0
H1106 H 0.15312 1.06416 0.71382 0.0
H1107 H 0.164 0.09738 0.69864 0.0
H1108 H 0.26578 1.08851 0.65805 0.0
H1109 H 0.25775 1.04787 0.62244 0.0
H1110 H 0.18704 1.02652 0.68455 0.0
C1111 C 0.20632 0.12413 0.76455 0.0
C1112 C 0.22403 0.14807 0.7662 0.0
C1113 C 0.24535 0.14898 0.74127 0.0
C1114 C 0.24936 0.12797 0.71655 0.0
C1115 C 0.23184 0.10511 0.71558 0.0
C1116 C 0.21053 0.10298 0.73878 0.0
C1117 C 0.19433 1.07622 0.7306 0.0
C1118 C 0.19523 1.05662 0.76145 0.0
C1119 C 0.16453 1.08309 0.72088 0.0
C1120 C 0.20986 1.06374 0.69949 0.0
C1121 C 0.23152 1.08108 0.69173 0.0
C1122 C 0.24887 1.07496 0.66424 0.0
C1123 C 0.2441 1.05132 0.64391 0.0
C1124 C 0.22208 1.03264 0.64991 0.0
C1125 C 0.20466 1.03929 0.67889 0.0
H1126 H 0.82211 0.45173 0.03752 0.0
H1127 H 0.76713 0.50368 0.97865 0.0
H1128 H 0.8018 0.50748 0.93333 0.0
H1129 H 0.88722 0.48694 0.01127 0.0
H1130 H 0.90713 0.45597 1.00743 0.0
H1131 H 0.87873 0.45738 0.03702 0.0
H1132 H 0.8571 0.41499 1.0083 0.0
H1133 H 0.88541 0.41343 0.97859 0.0
H1134 H 0.85065 0.41535 0.96277 0.0
H1135 H 0.8418 0.50606 0.89206 0.0
H1136 H 0.88327 0.49922 0.85792 0.0
H1137 H 0.91716 0.44727 0.93797 0.0
C1138 C 0.81744 0.46426 0.01535 0.0
C1139 C 0.79091 0.47771 0.01291 0.0
C1140 C 0.7865 0.49318 0.98239 0.0
C1141 C 0.8064 0.4955 0.956 0.0
C1142 C 0.83173 0.48212 0.95897 0.0
C1143 C 0.83753 0.46669 0.98783 0.0
C1144 C 0.86664 0.45401 0.98309 0.0
C1145 C 0.88609 0.46417 0.0114 0.0
C1146 C 0.86485 0.42257 0.98321 0.0
C1147 C 0.87609 0.46475 0.94736 0.0
C1148 C 0.85523 0.48099 0.9344 0.0
C1149 C 0.8581 0.49334 0.90224 0.0
C1150 C 0.88225 0.4892 0.88268 0.0
C1151 C 0.90463 0.47264 0.894 0.0
C1152 C 0.90115 0.46025 0.92761 0.0
H1153 H 0.45826 1.03557 0.22791 0.0
H1154 H 0.48427 1.07699 0.3206 0.0
H1155 H 0.48633 0.12084 0.28872 0.0
H1156 H 0.5014 1.07529 0.16901 0.0
H1157 H 0.47637 1.07642 0.13494 0.0
H1158 H 0.4763 1.04827 0.16497 0.0
H1159 H 0.42559 1.05813 0.17951 0.0
H1160 H 0.4255 1.08629 0.1495 0.0
H1161 H 0.41581 1.09194 0.1935 0.0
H1162 H 0.48611 0.16279 0.24441 0.0
H1163 H 0.48362 0.19516 0.19529 0.0
H1164 H 0.458 0.12836 0.1296 0.0
C1165 C 0.46421 1.05383 0.2418 0.0
C1166 C 0.47089 1.05181 0.27786 0.0
C1167 C 0.47882 1.07695 0.29368 0.0
C1168 C 0.48011 0.10239 0.27543 0.0
C1169 C 0.47354 0.10359 0.24031 0.0
C1170 C 0.46571 1.07978 0.22364 0.0
C1171 C 0.46001 1.0867 0.18556 0.0
C1172 C 0.47968 1.07071 0.16223 0.0
C1173 C 0.42994 1.08038 0.17648 0.0
C1174 C 0.46573 0.11788 0.18328 0.0
C1175 C 0.47354 0.12724 0.21529 0.0
C1176 C 0.47995 0.15525 0.21948 0.0
C1177 C 0.47848 0.17383 0.19104 0.0
C1178 C 0.47059 0.16523 0.15756 0.0
C1179 C 0.46411 0.13639 0.15431 0.0
H1180 H 0.27667 0.48425 0.54602 0.0
H1181 H 0.31868 0.46329 0.45181 0.0
H1182 H 0.36266 0.46148 0.48313 0.0
H1183 H 0.33226 0.52722 0.58224 0.0
H1184 H 0.32725 0.51571 0.62573 0.0
H1185 H 0.2988 0.51586 0.59607 0.0
H1186 H 0.29051 0.46444 0.60794 0.0
H1187 H 0.31895 0.46414 0.63759 0.0
H1188 H 0.31825 0.44045 0.60219 0.0
H1189 H 0.40473 0.46127 0.52659 0.0
H1190 H 0.43755 0.46292 0.57536 0.0
H1191 H 0.37054 0.484 0.64321 0.0
C1192 C 0.29509 0.47953 0.53173 0.0
C1193 C 0.29315 0.47411 0.49539 0.0
C1194 C 0.31852 0.46769 0.47899 0.0
C1195 C 0.34408 0.46657 0.49689 0.0
C1196 C 0.34523 0.47183 0.53225 0.0
C1197 C 0.32126 0.47825 0.54955 0.0
C1198 C 0.32834 0.4827 0.58781 0.0
C1199 C 0.32123 0.51212 0.59861 0.0
C1200 C 0.3131 0.46169 0.61022 0.0
C1201 C 0.35976 0.47792 0.58937 0.0
C1202 C 0.36909 0.47162 0.5569 0.0
C1203 C 0.39726 0.46624 0.55193 0.0
C1204 C 0.41608 0.46722 0.58015 0.0
C1205 C 0.40753 0.4736 0.61408 0.0
C1206 C 0.37852 0.47905 0.6181 0.0
H1207 H 0.98808 0.17137 0.33365 0.0
H1208 H 0.9383 0.13542 0.4143 0.0
H1209 H 0.9329 1.0936 0.38028 0.0
H1210 H 0.94933 0.13975 0.26092 0.0
H1211 H 0.97916 0.13282 0.23505 0.0
H1212 H 0.97947 0.16105 0.26487 0.0
H1213 H 1.023 0.14145 0.29351 0.0
H1214 H 1.0228 0.11317 0.26378 0.0
H1215 H 1.0228 0.10668 0.30929 0.0
H1216 H 0.93248 1.05341 0.33821 0.0
H1217 H 0.9372 1.0193 0.29236 0.0
H1218 H 0.98714 1.07658 0.23425 0.0
C1219 C 0.97586 0.15484 0.34418 0.0
C1220 C 0.9636 0.15788 0.37789 0.0
C1221 C 0.94813 0.13477 0.38943 0.0
C1222 C 0.94484 0.11041 0.36994 0.0
C1223 C 0.95706 0.108 0.33763 0.0
C1224 C 0.97233 0.12956 0.32456 0.0
C1225 C 0.98331 0.12059 0.28882 0.0
C1226 C 0.97217 0.1397 0.26074 0.0
C1227 C 1.01486 0.12048 0.28885 0.0
C1228 C 0.97189 1.09097 0.28413 0.0
C1229 C 0.95678 1.08445 0.31297 0.0
C1230 C 0.94427 1.0586 0.31561 0.0
C1231 C 0.94712 1.03899 0.28889 0.0
C1232 C 0.9624 1.04416 0.25841 0.0
C1233 C 0.97497 1.07117 0.25644 0.0
H1234 H 0.26667 0.74888 0.08121 0.0
H1235 H 0.29985 0.69445 0.15903 0.0
H1236 H 0.34137 0.68812 0.12463 0.0
H1237 H 0.29595 0.71162 1.00626 0.0
H1238 H 0.30479 0.74193 0.98215 0.0
H1239 H 0.27659 0.74275 0.01207 0.0
H1240 H 0.29901 0.78372 0.04322 0.0
H1241 H 0.32723 0.783 0.01332 0.0
H1242 H 0.3338 0.78073 0.05872 0.0
H1243 H 0.38168 0.68725 0.08255 0.0
H1244 H 0.41605 0.69176 0.03679 0.0
H1245 H 0.3614 0.74635 0.98138 0.0
C1246 C 0.28249 0.73542 0.09102 0.0
C1247 C 0.27874 0.72213 0.12407 0.0
C1248 C 0.30102 0.70511 0.13469 0.0
C1249 C 0.32521 0.70127 0.11498 0.0
C1250 C 0.32834 0.71449 0.08335 0.0
C1251 C 0.30762 0.73131 0.07116 0.0
C1252 C 0.31728 0.74313 0.03604 0.0
C1253 C 0.29746 0.73435 1.00742 0.0
C1254 C 0.31944 0.77452 0.03793 0.0
C1255 C 0.34619 0.7302 0.03054 0.0
C1256 C 0.35189 0.71383 0.0586 0.0
C1257 C 0.37709 0.69998 0.06052 0.0
C1258 C 0.39685 0.7027 0.03386 0.0
C1259 C 0.39244 0.7191 1.00408 0.0
C1260 C 0.36612 0.73312 1.00289 0.0
H1261 H 0.69291 0.12216 0.73229 0.0
H1262 H 0.74275 0.17898 0.79115 0.0
H1263 H 0.74759 0.14441 0.83666 0.0
H1264 H 0.65739 1.09166 0.80699 0.0
H1265 H 0.65691 1.05707 0.79079 0.0
H1266 H 0.65729 1.08566 0.7614 0.0
H1267 H 0.70056 1.0663 0.73241 0.0
H1268 H 0.70039 1.03761 0.76168 0.0
H1269 H 0.73053 1.05892 0.758 0.0
H1270 H 0.74761 0.10381 0.87797 0.0
H1271 H 0.74225 1.06181 0.91173 0.0
H1272 H 0.69196 1.02652 0.83107 0.0
C1273 C 0.70507 0.12736 0.7546 0.0
C1274 C 0.71767 0.15433 0.75688 0.0
C1275 C 0.7329 0.15929 0.78746 0.0
C1276 C 0.7358 0.13942 0.81397 0.0
C1277 C 0.72338 0.11356 0.81097 0.0
C1278 C 0.7082 0.1073 0.78208 0.0
C1279 C 0.69675 1.07764 0.78649 0.0
C1280 C 0.6652 1.07802 0.7864 0.0
C1281 C 0.7077 1.05901 0.75793 0.0
C1282 C 0.7079 1.06832 0.82211 0.0
C1283 C 0.72322 1.08977 0.83533 0.0
C1284 C 0.73561 1.08709 0.86754 0.0
C1285 C 0.73236 1.06261 0.88686 0.0
C1286 C 0.71676 1.03963 0.87527 0.0
C1287 C 0.70438 1.04289 0.84158 0.0
H1288 H 0.6156 0.20422 0.91258 0.0
H1289 H 0.53943 0.24606 0.88806 0.0
H1290 H 0.55665 0.25579 0.82983 0.0
H1291 H 0.66084 0.25023 0.86124 0.0
H1292 H 0.68277 0.22236 0.84837 0.0
H1293 H 0.66564 0.2212 0.88929 0.0
H1294 H 0.6441 0.17427 0.87309 0.0
H1295 H 0.66102 0.17546 0.83214 0.0
H1296 H 0.62425 0.17142 0.83418 0.0
H1297 H 0.57957 0.25606 0.77254 0.0
H1298 H 0.60834 0.24948 0.72095 0.0
H1299 H 0.67035 0.20924 0.78311 0.0
C1300 C 0.60276 0.21578 0.89507 0.0
C1301 C 0.57625 0.2245 0.90481 0.0
C1302 C 0.55998 0.23956 0.88126 0.0
C1303 C 0.56952 0.24508 0.8481 0.0
C1304 C 0.59553 0.23574 0.83907 0.0
C1305 C 0.61212 0.22176 0.86198 0.0
C1306 C 0.63881 0.21308 0.84532 0.0
C1307 C 0.66347 0.22759 0.86206 0.0
C1308 C 0.64222 0.1817 0.84624 0.0
C1309 C 0.63409 0.22338 0.80917 0.0
C1310 C 0.60906 0.23651 0.80613 0.0
C1311 C 0.59938 0.24617 0.77469 0.0
C1312 C 0.61572 0.2422 0.74556 0.0
C1313 C 0.64141 0.2289 0.74827 0.0
C1314 C 0.65085 0.21972 0.78051 0.0
H1315 H 0.74519 0.86954 0.15703 0.0
H1316 H 0.70424 0.79307 0.1323 0.0
H1317 H 0.69358 0.81076 0.07425 0.0
H1318 H 0.69684 0.91371 0.10981 0.0
H1319 H 0.72344 0.93716 0.09655 0.0
H1320 H 0.72668 0.91881 0.1365 0.0
H1321 H 0.77383 0.89976 0.1168 0.0
H1322 H 0.7706 0.91795 0.07681 0.0
H1323 H 0.77607 0.88141 0.07683 0.0
H1324 H 0.69125 0.83531 0.01736 0.0
H1325 H 0.69417 0.86649 0.96724 0.0
H1326 H 0.73401 0.9278 0.03062 0.0
C1327 C 0.73381 0.85667 0.13939 0.0
C1328 C 0.72557 0.82997 0.14886 0.0
C1329 C 0.71056 0.81366 0.1254 0.0
C1330 C 0.7045 0.8235 0.09244 0.0
C1331 C 0.7132 0.84983 0.08369 0.0
C1332 C 0.72716 0.86636 0.10666 0.0
C1333 C 0.73426 0.89383 0.09087 0.0
C1334 C 0.71942 0.91726 0.10955 0.0
C1335 C 0.76554 0.89849 0.09029 0.0
C1336 C 0.72289 0.88984 0.05513 0.0
C1337 C 0.71084 0.86434 0.05143 0.0
C1338 C 0.70028 0.85548 0.02008 0.0
C1339 C 0.70212 0.87321 0.99178 0.0
C1340 C 0.71416 0.89945 0.99528 0.0
C1341 C 0.72441 0.90791 0.0274 0.0
H1342 H 1.07389 0.98076 0.23999 0.0
H1343 H 0.9978 0.94362 0.27436 0.0
H1344 H 1.01866 0.93396 0.33078 0.0
H1345 H 0.12202 0.93631 0.29179 0.0
H1346 H 0.14437 0.96486 0.30102 0.0
H1347 H 0.12558 0.9638 0.26116 0.0
H1348 H 0.10457 1.01138 0.27452 0.0
H1349 H 0.12309 1.01256 0.3144 0.0
H1350 H 1.08626 1.01629 0.31419 0.0
H1351 H 1.04512 0.93371 0.38506 0.0
H1352 H 1.0747 0.9447 0.43456 0.0
H1353 H 0.1334 0.98364 0.36637 0.0
C1354 C 1.06206 0.96983 0.25914 0.0
C1355 C 1.03444 0.96266 0.25303 0.0
C1356 C 1.01908 0.94916 0.27879 0.0
C1357 C 1.03079 0.94345 0.31077 0.0
C1358 C 1.05783 0.95156 0.31659 0.0
C1359 C 1.07332 0.96447 0.29156 0.0
C1360 C 0.10059 0.97418 0.30589 0.0
C1361 C 0.12456 0.95887 0.28896 0.0
C1362 C 0.10379 1.00545 0.30202 0.0
C1363 C 0.09741 0.96586 0.34312 0.0
C1364 C 1.07292 0.9522 0.34852 0.0
C1365 C 1.06459 0.94396 0.38111 0.0
C1366 C 1.08155 0.95025 0.40906 0.0
C1367 C 0.10635 0.96496 0.40428 0.0
C1368 C 0.11453 0.97239 0.37077 0.0
H1369 H 0.95407 0.27197 0.52807 0.0
H1370 H 0.98608 0.33349 0.45824 0.0
H1371 H 0.99487 0.36448 0.50731 0.0
H1372 H 0.91805 0.31648 0.58123 0.0
H1373 H 0.92545 0.29815 0.62034 0.0
H1374 H 0.92467 0.28013 0.58018 0.0
H1375 H 0.97411 0.26244 0.5913 0.0
H1376 H 0.97517 0.28063 0.63145 0.0
H1377 H 1.00132 0.28662 0.59964 0.0
H1378 H 0.99687 0.38974 0.56347 0.0
H1379 H 0.98991 0.40833 0.6217 0.0
H1380 H 0.95615 0.33016 0.65441 0.0
C1381 C 0.96314 0.29189 0.52316 0.0
C1382 C 0.96925 0.30055 0.48951 0.0
C1383 C 0.98104 0.3267 0.48393 0.0
C1384 C 0.98629 0.34428 0.51162 0.0
C1385 C 0.97967 0.33526 0.54456 0.0
C1386 C 0.96836 0.30966 0.5504 0.0
C1387 C 0.96146 0.30547 0.58784 0.0
C1388 C 0.93058 0.29974 0.59266 0.0
C1389 C 0.97907 0.28243 0.60348 0.0
C1390 C 0.96956 0.3332 0.60199 0.0
C1391 C 0.98059 0.34987 0.5768 0.0
C1392 C 0.98855 0.37679 0.58349 0.0
C1393 C 0.98462 0.38713 0.61665 0.0
C1394 C 0.9725 0.37066 0.6425 0.0
C1395 C 0.96538 0.34322 0.6351 0.0
H1396 H 0.63677 0.98122 0.15707 0.0
H1397 H 0.577 0.94199 0.0907 0.0
H1398 H 0.5477 0.9321 0.14083 0.0
H1399 H 0.62521 0.93461 0.23353 0.0
H1400 H 0.62985 0.96261 0.26307 0.0
H1401 H 0.64822 0.96235 0.22296 0.0
H1402 H 0.62831 1.01024 0.20826 0.0
H1403 H 0.60973 1.01054 0.24804 0.0
H1404 H 0.59159 1.01504 0.2081 0.0
H1405 H 0.52132 0.9349 0.19482 0.0
H1406 H 0.50108 0.94633 0.25091 0.0
H1407 H 0.57877 0.98075 0.28423 0.0
C1408 C 0.61782 0.96993 0.15334 0.0
C1409 C 0.60907 0.96228 0.12017 0.0
C1410 C 0.58416 0.94769 0.11602 0.0
C1411 C 0.56741 0.94202 0.14431 0.0
C1412 C 0.57619 0.95061 0.17657 0.0
C1413 C 0.60106 0.96377 0.18139 0.0
C1414 C 0.60464 0.97274 0.21831 0.0
C1415 C 0.62839 0.95714 0.23548 0.0
C1416 C 0.6088 1.00398 0.2208 0.0
C1417 C 0.57722 0.96404 0.233 0.0
C1418 C 0.56123 0.9511 0.20849 0.0
C1419 C 0.53389 0.94423 0.21452 0.0
C1420 C 0.52253 0.95098 0.24628 0.0
C1421 C 0.53861 0.96404 0.27171 0.0
C1422 C 0.56641 0.97011 0.26534 0.0
H1423 H 0.41831 0.35623 0.88028 0.0
H1424 H 0.50534 0.37094 0.86351 0.0
H1425 H 0.5162 0.34361 0.91503 0.0
H1426 H 0.42132 0.36314 0.9722 0.0
H1427 H 0.39576 0.33705 0.9798 0.0
H1428 H 0.39484 0.35688 0.94081 0.0
H1429 H 0.39595 0.31203 0.90524 0.0
H1430 H 0.39709 0.29222 0.94425 0.0
H1431 H 0.42331 0.28774 0.91219 0.0
H1432 H 0.51763 0.31441 0.9676 0.0
H1433 H 0.50947 0.28708 0.01983 0.0
H1434 H 0.42145 0.29356 1.00412 0.0
C1435 C 0.43966 0.35402 0.88757 0.0
C1436 C 0.46098 0.36562 0.86769 0.0
C1437 C 0.48867 0.36182 0.87793 0.0
C1438 C 0.49504 0.34649 0.90726 0.0
C1439 C 0.4735 0.33536 0.92618 0.0
C1440 C 0.44638 0.33911 0.91694 0.0
C1441 C 0.42707 0.32557 0.94221 0.0
C1442 C 0.40867 0.34694 0.9598 0.0
C1443 C 0.40985 0.30306 0.92489 0.0
C1444 C 0.44761 0.31347 0.96703 0.0
C1445 C 0.47428 0.31922 0.95716 0.0
C1446 C 0.49685 0.30983 0.97564 0.0
C1447 C 0.492 0.29421 1.0051 0.0
C1448 C 0.46484 0.28826 0.01572 0.0
C1449 C 0.44239 0.29805 0.99653 0.0
H1450 H 0.17278 0.21021 0.7346 0.0
H1451 H 0.11572 0.24737 0.80601 0.0
H1452 H 1.08437 0.25844 0.75836 0.0
H1453 H 0.15836 0.25645 0.66032 0.0
H1454 H 0.16065 0.22874 0.62997 0.0
H1455 H 0.18074 0.22781 0.66885 0.0
H1456 H 0.15956 0.18041 0.68397 0.0
H1457 H 0.13943 0.18136 0.64529 0.0
H1458 H 0.12273 0.1769 0.68614 0.0
H1459 H 1.05767 0.26234 0.70464 0.0
H1460 H 1.03523 0.25531 0.64867 0.0
H1461 H 0.10772 0.21255 0.61226 0.0
C1462 C 0.15389 0.2211 0.73995 0.0
C1463 C 0.14665 0.22815 0.77378 0.0
C1464 C 0.12157 0.24184 0.78015 0.0
C1465 C 0.10375 0.24841 0.75326 0.0
C1466 C 0.11118 0.24086 0.72018 0.0
C1467 C 0.13552 0.22732 0.71337 0.0
C1468 C 0.13703 0.21885 0.67608 0.0
C1469 C 0.1606 0.23386 0.65772 0.0
C1470 C 0.13984 0.18753 0.67269 0.0
C1471 C 0.10929 0.22881 0.66344 0.0
C1472 C 1.09509 0.24209 0.68912 0.0
C1473 C 1.06859 0.25208 0.68423 0.0
C1474 C 1.05594 0.24779 0.65245 0.0
C1475 C 1.0696 0.23319 0.62616 0.0
C1476 C 0.09688 0.22416 0.63161 0.0
H1477 H 0.22435 0.86363 0.53199 0.0
H1478 H 0.1971 0.94227 0.4928 0.0
H1479 H 0.18363 0.92058 0.43825 0.0
H1480 H 0.25695 0.84418 0.45717 0.0
H1481 H 0.24873 0.8082 0.46018 0.0
H1482 H 0.25093 0.82857 0.49844 0.0
H1483 H 0.20146 0.81395 0.51498 0.0
H1484 H 0.19902 0.79359 0.47654 0.0
H1485 H 0.1737 0.81961 0.48518 0.0
H1486 H 0.17744 0.89188 0.38654 0.0
H1487 H 0.18411 0.85947 0.33876 0.0
H1488 H 0.21845 0.7999 0.40947 0.0
C1489 C 0.21501 0.87603 0.51209 0.0
C1490 C 0.21136 0.90445 0.51649 0.0
C1491 C 0.19981 0.92037 0.48978 0.0
C1492 C 0.19192 0.9082 0.45887 0.0
C1493 C 0.19612 0.88016 0.45495 0.0
C1494 C 0.20769 0.86429 0.48063 0.0
C1495 C 0.21357 0.83554 0.46809 0.0
C1496 C 0.24437 0.82874 0.47114 0.0
C1497 C 0.19588 0.81442 0.48734 0.0
C1498 C 0.20465 0.83813 0.43101 0.0
C1499 C 0.19379 0.86376 0.42431 0.0
C1500 C 0.18555 0.8716 0.3915 0.0
C1501 C 0.18932 0.85306 0.36457 0.0
C1502 C 0.2017 0.82726 0.37058 0.0
C1503 C 0.20881 0.81949 0.40434 0.0
H1504 H 0.11171 0.7126 0.40622 0.0
H1505 H 1.02759 0.72205 0.37187 0.0
H1506 H 1.04383 0.73094 0.31281 0.0
H1507 H 0.14327 0.76394 0.3457 0.0
H1508 H 0.17326 0.74297 0.33931 0.0
H1509 H 0.15544 0.74206 0.37978 0.0
H1510 H 0.15018 0.68929 0.37424 0.0
H1511 H 0.16767 0.69011 0.33369 0.0
H1512 H 0.13387 0.6752 0.33665 0.0
H1513 H 1.06855 0.73378 0.25698 0.0
H1514 H 0.10028 0.72982 0.20777 0.0
H1515 H 0.16831 0.71714 0.27801 0.0
C1516 C 0.09691 0.71742 0.38634 0.0
C1517 C 1.06851 0.71709 0.39329 0.0
C1518 C 1.04946 0.72256 0.36676 0.0
C1519 C 1.05849 0.72767 0.33329 0.0
C1520 C 1.08663 0.72716 0.3269 0.0
C1521 C 0.10562 0.72231 0.35267 0.0
C1522 C 0.13444 0.7202 0.33828 0.0
C1523 C 0.15267 0.74369 0.35156 0.0
C1524 C 0.14727 0.69203 0.34618 0.0
C1525 C 0.12848 0.7235 0.3004 0.0
C1526 C 0.10087 0.72802 0.29442 0.0
C1527 C 1.09026 0.73051 0.26133 0.0
C1528 C 0.10835 0.72808 0.23357 0.0
C1529 C 0.13657 0.72292 0.23921 0.0
C1530 C 0.14676 0.72099 0.27303 0.0
H1531 H 0.22838 0.30627 0.6178 0.0
H1532 H 0.20352 0.37073 0.68761 0.0
H1533 H 0.19344 0.40098 0.63843 0.0
H1534 H 0.26329 0.34773 0.56074 0.0
H1535 H 0.25305 0.33004 0.52224 0.0
H1536 H 0.25439 0.31184 0.56236 0.0
H1537 H 0.20346 0.29733 0.55509 0.0
H1538 H 0.20205 0.31539 0.51474 0.0
H1539 H 0.17765 0.32321 0.548 0.0
H1540 H 0.19173 0.42597 0.58338 0.0
H1541 H 0.19825 0.44442 0.52516 0.0
H1542 H 0.22327 0.36411 0.48937 0.0
C1543 C 0.22009 0.32649 0.6226 0.0
C1544 C 0.21671 0.3362 0.65648 0.0
C1545 C 0.20643 0.36299 0.66186 0.0
C1546 C 0.20046 0.38023 0.6341 0.0
C1547 C 0.2047 0.37033 0.60106 0.0
C1548 C 0.21409 0.34405 0.59507 0.0
C1549 C 0.21907 0.33942 0.55708 0.0
C1550 C 0.24924 0.33182 0.55022 0.0
C1551 C 0.19938 0.31753 0.5429 0.0
C1552 C 0.2122 0.36759 0.54291 0.0
C1553 C 0.20355 0.38491 0.56878 0.0
C1554 C 0.19804 0.4125 0.56283 0.0
C1555 C 0.20192 0.42281 0.52972 0.0
C1556 C 0.21114 0.40562 0.5029 0.0
C1557 C 0.21577 0.37752 0.50937 0.0
H1558 H 0.57342 0.48232 0.73825 0.0
H1559 H 0.49464 0.45097 0.77206 0.0
H1560 H 0.51413 0.44094 0.82917 0.0
H1561 H 0.61783 0.43592 0.79193 0.0
H1562 H 0.64192 0.46309 0.80093 0.0
H1563 H 0.6235 0.46268 0.76078 0.0
H1564 H 0.60545 0.5117 0.77272 0.0
H1565 H 0.62369 0.51228 0.81282 0.0
H1566 H 0.58718 0.51839 0.812 0.0
H1567 H 0.54034 0.43927 0.88409 0.0
H1568 H 0.57039 0.4489 0.93382 0.0
H1569 H 0.6315 0.48376 0.86564 0.0
C1570 C 0.56063 0.47262 0.75748 0.0
C1571 C 0.5327 0.46711 0.75092 0.0
C1572 C 0.51617 0.4552 0.77678 0.0
C1573 C 0.52709 0.4493 0.80918 0.0
C1574 C 0.55454 0.4557 0.81536 0.0
C1575 C 0.57111 0.46718 0.7903 0.0
C1576 C 0.5988 0.47531 0.80486 0.0
C1577 C 0.62188 0.45822 0.78866 0.0
C1578 C 0.60406 0.50625 0.80034 0.0
C1579 C 0.59474 0.46778 0.84222 0.0
C1580 C 0.56938 0.45577 0.84754 0.0
C1581 C 0.56041 0.44832 0.88021 0.0
C1582 C 0.57759 0.45382 0.90827 0.0
C1583 C 0.60318 0.46707 0.90349 0.0
C1584 C 0.612 0.47362 0.86995 0.0
H1585 H 0.41747 0.78915 0.02371 0.0
H1586 H 0.505 0.77508 0.0126 0.0
H1587 H 0.51308 0.79482 0.06996 0.0
H1588 H 0.42168 0.85263 0.06338 0.0
H1589 H 0.39348 0.84715 0.09252 0.0
H1590 H 0.39428 0.82935 0.0522 0.0
H1591 H 0.39036 0.78272 0.08379 0.0
H1592 H 0.38936 0.80037 0.12433 0.0
H1593 H 0.41479 0.77423 0.11691 0.0
H1594 H 0.51214 0.82096 0.12471 0.0
H1595 H 0.50216 0.85042 0.1744 0.0
H1596 H 0.41492 0.84477 0.15175 0.0
C1597 C 0.43826 0.79004 0.03359 0.0
C1598 C 0.46065 0.78095 0.0139 0.0
C1599 C 0.48761 0.78213 0.02746 0.0
C1600 C 0.49239 0.79318 0.05999 0.0
C1601 C 0.46991 0.80245 0.07865 0.0
C1602 C 0.44335 0.80071 0.06615 0.0
C1603 C 0.42298 0.81325 0.0907 0.0
C1604 C 0.4072 0.83701 0.07368 0.0
C1605 C 0.40321 0.79134 0.10477 0.0
C1606 C 0.44239 0.82345 0.11819 0.0
C1607 C 0.46932 0.81677 0.11094 0.0
C1608 C 0.4911 0.82582 0.13116 0.0
C1609 C 0.4852 0.84246 0.15941 0.0
C1610 C 0.45775 0.84982 0.16709 0.0
C1611 C 0.43613 0.83966 0.14648 0.0
H1612 H 1.07988 0.48668 0.61792 0.0
H1613 H 0.15713 0.45022 0.64992 0.0
H1614 H 0.13806 0.44246 0.70779 0.0
H1615 H 1.06543 0.52192 0.69318 0.0
H1616 H 1.02896 0.51547 0.69257 0.0
H1617 H 1.04789 0.51638 0.65303 0.0
H1618 H 1.03005 0.46802 0.63808 0.0
H1619 H 1.01131 0.46614 0.67784 0.0
H1620 H 1.03603 0.44 0.66727 0.0
H1621 H 0.11191 0.44233 0.76323 0.0
H1622 H 1.07977 0.44812 0.81176 0.0
H1623 H 1.0192 0.48271 0.74243 0.0
C1624 C 1.0926 0.47647 0.63682 0.0
C1625 C 0.12002 0.46912 0.62945 0.0
C1626 C 0.13618 0.45635 0.65516 0.0
C1627 C 0.12548 0.45169 0.68799 0.0
C1628 C 0.09854 0.45966 0.69454 0.0
C1629 C 1.08222 0.47153 0.66957 0.0
C1630 C 1.05422 0.47902 0.68345 0.0
C1631 C 1.04884 0.51003 0.68038 0.0
C1632 C 1.03154 0.4623 0.66561 0.0
C1633 C 1.05768 0.47034 0.72043 0.0
C1634 C 1.0833 0.45907 0.72629 0.0
C1635 C 1.0917 0.45085 0.75891 0.0
C1636 C 1.07342 0.45438 0.78625 0.0
C1637 C 1.04717 0.46594 0.78066 0.0
C1638 C 1.03913 0.47372 0.7473 0.0
H1639 H 0.91644 0.85196 0.38005 0.0
H1640 H 1.00204 0.84943 0.34872 0.0
H1641 H 1.01309 0.82173 0.3998 0.0
H1642 H 0.93004 0.86068 0.46964 0.0
H1643 H 0.90139 0.83986 0.48318 0.0
H1644 H 0.89981 0.85814 0.44306 0.0
H1645 H 0.88945 0.81262 0.41138 0.0
H1646 H 0.89126 0.79407 0.45132 0.0
H1647 H 0.91283 0.78421 0.41591 0.0
H1648 H 1.01493 0.79457 0.45371 0.0
H1649 H 1.00802 0.7713 0.50906 0.0
H1650 H 0.92183 0.79402 0.50764 0.0
C1651 C 0.93757 0.8458 0.38398 0.0
C1652 C 0.95834 0.85275 0.3602 0.0
C1653 C 0.98565 0.8439 0.36616 0.0
C1654 C 0.99218 0.82832 0.39522 0.0
C1655 C 0.97122 0.822 0.41814 0.0
C1656 C 0.94452 0.83056 0.41303 0.0
C1657 C 0.92602 0.82166 0.44219 0.0
C1658 C 0.91359 0.84657 0.46061 0.0
C1659 C 0.90356 0.80198 0.42943 0.0
C1660 C 0.9466 0.80692 0.46466 0.0
C1661 C 0.97247 0.80713 0.45006 0.0
C1662 C 0.99483 0.79443 0.46554 0.0
C1663 C 0.99068 0.7813 0.49696 0.0
C1664 C 0.96446 0.78127 0.51268 0.0
C1665 C 0.94212 0.79411 0.49628 0.0
H1666 H 0.55772 0.71817 0.14442 0.0
H1667 H 0.62322 0.7326 0.07128 0.0
H1668 H 0.65528 0.74216 0.11896 0.0
H1669 H 0.58065 0.77092 0.20798 0.0
H1670 H 0.57071 0.74982 0.24388 0.0
H1671 H 0.55211 0.74753 0.20397 0.0
H1672 H 0.56121 0.69519 0.20219 0.0
H1673 H 0.57992 0.69734 0.2419 0.0
H1674 H 0.59606 0.68284 0.20455 0.0
H1675 H 0.68141 0.74258 0.17356 0.0
H1676 H 0.69962 0.73747 0.23212 0.0
H1677 H 0.61698 0.72618 0.27107 0.0
C1678 C 0.57872 0.72379 0.13851 0.0
C1679 C 0.58808 0.72466 0.10424 0.0
C1680 C 0.61563 0.73211 0.09736 0.0
C1681 C 0.63395 0.73752 0.12426 0.0
C1682 C 0.62424 0.73584 0.15779 0.0
C1683 C 0.59718 0.7296 0.16505 0.0
C1684 C 0.59242 0.72768 0.2034 0.0
C1685 C 0.57281 0.75034 0.21551 0.0
C1686 C 0.58178 0.69906 0.21359 0.0
C1687 C 0.62132 0.73253 0.21651 0.0
C1688 C 0.63928 0.73735 0.18969 0.0
C1689 C 0.66747 0.73961 0.19484 0.0
C1690 C 0.6776 0.7367 0.2282 0.0
C1691 C 0.65961 0.73215 0.25612 0.0
C1692 C 0.63107 0.73039 0.25026 0.0
H1693 H 0.70294 0.42141 0.99019 0.0
H1694 H 0.76325 0.37579 0.04906 0.0
H1695 H 0.7625 0.33898 1.0058 0.0
H1696 H 0.66454 0.36215 0.95558 0.0
H1697 H 0.66015 0.37782 0.91403 0.0
H1698 H 0.66238 0.39893 0.95182 0.0
H1699 H 0.70276 0.42597 0.92495 0.0
H1700 H 0.70068 0.40511 0.88705 0.0
H1701 H 0.73266 0.4077 0.9102 0.0
H1702 H 0.75711 0.30845 0.95585 0.0
H1703 H 0.75209 0.28849 0.89813 0.0
H1704 H 0.69794 0.35515 0.86893 0.0
C1705 C 0.71561 0.40342 0.99405 0.0
C1706 C 0.73294 0.40112 0.02289 0.0
C1707 C 0.7498 0.37776 0.02704 0.0
C1708 C 0.74933 0.35669 1.00281 0.0
C1709 C 0.73214 0.35953 0.97448 0.0
C1710 C 0.71587 0.38244 0.96966 0.0
C1711 C 0.70167 0.38173 0.93509 0.0
C1712 C 0.67032 0.38005 0.9394 0.0
C1713 C 0.70996 0.4066 0.91303 0.0
C1714 C 0.71321 0.35524 0.92089 0.0
C1715 C 0.73009 0.34242 0.94451 0.0
C1716 C 0.74379 0.31811 0.93717 0.0
C1717 C 0.74074 0.30689 0.90444 0.0
C1718 C 0.72456 0.32028 0.87936 0.0
C1719 C 0.7103 0.34452 0.88784 0.0
H1720 H 0.44822 0.31786 0.30896 0.0
H1721 H 0.48807 0.38097 0.24875 0.0
H1722 H 0.47192 0.4159 0.28931 0.0
H1723 H 0.39198 0.34427 0.31759 0.0
H1724 H 0.38333 0.33598 0.36135 0.0
H1725 H 0.4077 0.31544 0.33906 0.0
H1726 H 0.44415 0.32425 0.38605 0.0
H1727 H 0.41951 0.34464 0.40923 0.0
H1728 H 0.45254 0.35889 0.39831 0.0
H1729 H 0.43741 0.44325 0.31878 0.0
H1730 H 0.39201 0.45955 0.33778 0.0
H1731 H 0.37498 0.37985 0.38174 0.0
C1732 C 0.4552 0.33876 0.3057 0.0
C1733 C 0.46897 0.34676 0.2755 0.0
C1734 C 0.47718 0.37443 0.27154 0.0
C1735 C 0.46822 0.39443 0.29467 0.0
C1736 C 0.45178 0.38631 0.32215 0.0
C1737 C 0.44625 0.35888 0.3286 0.0
C1738 C 0.42375 0.35569 0.35512 0.0
C1739 C 0.40034 0.3368 0.34245 0.0
C1740 C 0.43571 0.34526 0.3892 0.0
C1741 C 0.41458 0.3852 0.35837 0.0
C1742 C 0.4318 0.40275 0.34049 0.0
C1743 C 0.42447 0.42997 0.33409 0.0
C1744 C 0.39854 0.43905 0.34471 0.0
C1745 C 0.38023 0.42092 0.36143 0.0
C1746 C 0.38904 0.39427 0.36998 0.0
H1747 H 0.5447 0.67246 0.43141 0.0
H1748 H 0.58424 0.72655 0.50406 0.0
H1749 H 0.54541 0.72088 0.54362 0.0
H1750 H 0.46768 0.68555 0.46441 0.0
H1751 H 0.46049 0.64978 0.45708 0.0
H1752 H 0.4828 0.66829 0.42826 0.0
H1753 H 0.52078 0.63199 0.43797 0.0
H1754 H 0.49878 0.61361 0.46634 0.0
H1755 H 0.53214 0.6247 0.4811 0.0
H1756 H 0.51497 0.69664 0.58213 0.0
H1757 H 0.4987 0.65638 0.61429 0.0
H1758 H 0.47791 0.61607 0.51906 0.0
C1759 C 0.54432 0.68407 0.45503 0.0
C1760 C 0.56735 0.69969 0.46492 0.0
C1761 C 0.56661 0.71467 0.49586 0.0
C1762 C 0.54449 0.7116 0.51847 0.0
C1763 C 0.52318 0.69376 0.50957 0.0
C1764 C 0.52258 0.6807 0.47802 0.0
C1765 C 0.50157 0.65779 0.47756 0.0
C1766 C 0.47665 0.66585 0.45553 0.0
C1767 C 0.51411 0.63045 0.46511 0.0
C1768 C 0.49392 0.65698 0.51516 0.0
C1769 C 0.5051 0.67902 0.53275 0.0
C1770 C 0.50537 0.67984 0.56854 0.0
C1771 C 0.49621 0.65678 0.58669 0.0
C1772 C 0.48729 0.63312 0.569 0.0
C1773 C 0.48407 0.63418 0.5331 0.0
H1774 H 0.36777 0.86201 0.62741 0.0
H1775 H 0.40171 0.94141 0.6524 0.0
H1776 H 0.4449 0.91951 0.67056 0.0
H1777 H 0.38158 0.83289 0.69533 0.0
H1778 H 0.39104 0.79907 0.68088 0.0
H1779 H 0.36983 0.82008 0.65446 0.0
H1780 H 0.40449 0.81561 0.60458 0.0
H1781 H 0.42602 0.79425 0.6312 0.0
H1782 H 0.44005 0.82451 0.61117 0.0
H1783 H 0.47503 0.89067 0.70434 0.0
H1784 H 0.48609 0.85962 0.75211 0.0
H1785 H 0.43283 0.79771 0.7086 0.0
C1786 C 0.38506 0.87475 0.63458 0.0
C1787 C 0.38166 0.90325 0.63837 0.0
C1788 C 0.4041 0.91949 0.64914 0.0
C1789 C 0.42879 0.90716 0.65926 0.0
C1790 C 0.43072 0.87858 0.65838 0.0
C1791 C 0.40951 0.86253 0.64561 0.0
C1792 C 0.41333 0.83266 0.65525 0.0
C1793 C 0.38745 0.82056 0.67256 0.0
C1794 C 0.42147 0.81577 0.62367 0.0
C1795 C 0.43727 0.83512 0.67989 0.0
C1796 C 0.44825 0.86136 0.67947 0.0
C1797 C 0.46717 0.8699 0.70417 0.0
C1798 C 0.47326 0.85217 0.7314 0.0
C1799 C 0.46002 0.82642 0.73407 0.0
C1800 C 0.44361 0.81707 0.70667 0.0
H1801 H 0.12406 0.56787 0.13387 0.0
H1802 H 0.20192 0.54663 0.08785 0.0
H1803 H 0.18274 0.50223 0.06975 0.0
H1804 H 0.09913 0.49043 0.15044 0.0
H1805 H 1.06475 0.50115 0.13971 0.0
H1806 H 1.0872 0.52385 0.16319 0.0
H1807 H 1.07925 0.56154 0.11748 0.0
H1808 H 1.05718 0.5392 0.09411 0.0
H1809 H 1.08662 0.55417 0.0731 0.0
H1810 H 0.15275 0.47084 0.03928 0.0
H1811 H 0.11608 0.45812 0.9989 0.0
H1812 H 1.05654 0.49937 0.06282 0.0
C1813 C 0.13752 0.55307 0.12196 0.0
C1814 C 0.16434 0.56061 0.11214 0.0
C1815 C 0.18121 0.54124 0.09547 0.0
C1816 C 0.17052 0.51581 0.08544 0.0
C1817 C 0.14303 0.50995 0.09258 0.0
C1818 C 0.12686 0.52788 0.1113 0.0
C1819 C 0.09672 0.52049 0.10856 0.0
C1820 C 1.08635 0.50824 0.14249 0.0
C1821 C 1.07899 0.5453 0.09759 0.0
C1822 C 0.0981 0.49868 0.08109 0.0
C1823 C 0.12502 0.49154 0.0739 0.0
C1824 C 0.13162 0.47563 0.04537 0.0
C1825 C 0.11067 0.46868 0.02233 0.0
C1826 C 1.08354 0.47813 0.0276 0.0
C1827 C 1.07698 0.49143 0.05857 0.0
H1828 H 0.75062 0.88281 0.71585 0.0
H1829 H 0.71594 0.82364 0.78633 0.0
H1830 H 0.72871 0.78633 0.74729 0.0
H1831 H 0.74038 0.83556 0.63133 0.0
H1832 H 0.77236 0.84921 0.61548 0.0
H1833 H 0.74898 0.87102 0.63867 0.0
H1834 H 0.78816 0.88364 0.68056 0.0
H1835 H 0.8113 0.86185 0.65819 0.0
H1836 H 0.80579 0.85667 0.70348 0.0
H1837 H 0.76101 0.75741 0.71757 0.0
H1838 H 0.806 0.74055 0.69812 0.0
H1839 H 0.81984 0.81679 0.64406 0.0
C1840 C 0.74404 0.86216 0.72182 0.0
C1841 C 0.73274 0.85601 0.75418 0.0
C1842 C 0.72498 0.82873 0.76176 0.0
C1843 C 0.73194 0.8074 0.73949 0.0
C1844 C 0.74611 0.81377 0.70943 0.0
C1845 C 0.75116 0.84072 0.69983 0.0
C1846 C 0.77182 0.84219 0.67088 0.0
C1847 C 0.75752 0.84994 0.63709 0.0
C1848 C 0.79565 0.8622 0.67885 0.0
C1849 C 0.78117 0.81263 0.67009 0.0
C1850 C 0.76502 0.79622 0.69102 0.0
C1851 C 0.77307 0.76968 0.70001 0.0
C1852 C 0.79879 0.76031 0.68915 0.0
C1853 C 0.81614 0.77748 0.66958 0.0
C1854 C 0.80646 0.80312 0.65821 0.0
H1855 H 0.87217 0.38636 0.14196 0.0
H1856 H 0.88775 0.46048 0.19942 0.0
H1857 H 0.93239 0.44202 0.21808 0.0
H1858 H 0.88471 0.34489 0.19891 0.0
H1859 H 0.90185 0.31793 0.17566 0.0
H1860 H 0.87971 0.34086 0.15332 0.0
H1861 H 0.91922 0.35371 0.112 0.0
H1862 H 0.94174 0.3305 0.13458 0.0
H1863 H 0.95149 0.36588 0.12885 0.0
H1864 H 0.96427 0.41149 0.24631 0.0
H1865 H 0.97584 0.37278 0.284 0.0
H1866 H 0.93937 0.31663 0.21118 0.0
C1867 C 0.88587 0.39928 0.1567 0.0
C1868 C 0.87674 0.42473 0.16924 0.0
C1869 C 0.89449 0.44087 0.18957 0.0
C1870 C 0.92005 0.43061 0.19993 0.0
C1871 C 0.92755 0.40423 0.18968 0.0
C1872 C 0.91107 0.38889 0.16787 0.0
C1873 C 0.91959 0.35904 0.16767 0.0
C1874 C 0.89502 0.33962 0.17439 0.0
C1875 C 0.93387 0.35187 0.13376 0.0
C1876 C 0.94003 0.35915 0.19694 0.0
C1877 C 0.94596 0.38565 0.20747 0.0
C1878 C 0.96037 0.39076 0.23775 0.0
C1879 C 0.96667 0.36862 0.25922 0.0
C1880 C 0.95795 0.34182 0.25067 0.0
C1881 C 0.94661 0.33688 0.21799 0.0
H1882 H 0.10582 1.0796 0.87829 0.0
H1883 H 0.18202 1.03905 0.90393 0.0
H1884 H 0.15625 0.99827 0.9228 0.0
H1885 H 1.07592 1.06927 0.9464 0.0
H1886 H 1.04121 1.06274 0.93229 0.0
H1887 H 1.06392 1.08167 0.90539 0.0
H1888 H 1.05605 1.04714 0.85609 0.0
H1889 H 1.03285 1.02796 0.88309 0.0
H1890 H 1.06161 1.01104 0.86327 0.0
H1891 H 0.12485 0.97148 0.95737 0.0
H1892 H 1.09261 0.96324 1.00476 0.0
H1893 H 1.03568 1.02124 0.96001 0.0
C1894 C 0.11699 1.06135 0.88572 0.0
C1895 C 0.14574 1.06225 0.88957 0.0
C1896 C 0.15992 1.0386 0.90067 0.0
C1897 C 0.14538 1.01527 0.9112 0.0
C1898 C 0.11669 1.01593 0.91038 0.0
C1899 C 0.10258 1.03828 0.89716 0.0
C1900 C 1.07247 1.03731 0.90688 0.0
C1901 C 1.06291 1.0643 0.92379 0.0
C1902 C 1.0547 1.03044 0.87546 0.0
C1903 C 1.07281 1.01357 0.93192 0.0
C1904 C 0.09799 1.00036 0.93184 0.0
C1905 C 0.10483 0.98107 0.95692 0.0
C1906 C 1.08647 0.97666 0.98397 0.0
C1907 C 1.0618 0.99185 0.98605 0.0
C1908 C 1.05413 1.00897 0.95851 0.0
H1909 H 0.62305 1.06525 0.64343 0.0
H1910 H 0.70252 1.04379 0.60231 0.0
H1911 H 0.68354 1.00034 0.58077 0.0
H1912 H 0.59542 0.98754 0.65315 0.0
H1913 H 0.56197 0.99962 0.64029 0.0
H1914 H 0.58359 1.02068 0.66714 0.0
H1915 H 0.57895 1.0604 0.62353 0.0
H1916 H 0.55784 1.03968 0.5967 0.0
H1917 H 0.58873 1.05481 0.57946 0.0
H1918 H 0.65462 0.97147 0.54545 0.0
H1919 H 0.6199 0.96123 0.5014 0.0
H1920 H 0.55785 1.00096 0.56304 0.0
C1921 C 0.63677 1.05044 0.63198 0.0
C1922 C 0.6641 1.05774 0.6244 0.0
C1923 C 0.68145 1.03849 0.60832 0.0
C1924 C 0.67082 1.01363 0.59622 0.0
C1925 C 0.64286 1.00826 0.60066 0.0
C1926 C 0.62613 1.02587 0.61912 0.0
C1927 C 0.59603 1.0194 0.6133 0.0
C1928 C 0.58353 1.006 0.64538 0.0
C1929 C 0.5795 1.04507 0.60254 0.0
C1930 C 0.59841 0.99876 0.58454 0.0
C1931 C 0.6255 0.99123 0.57916 0.0
C1932 C 0.6333 0.97646 0.55014 0.0
C1933 C 0.61348 0.97093 0.52501 0.0
C1934 C 0.58626 0.98052 0.52882 0.0
C1935 C 0.57837 0.99285 0.55994 0.0
loop_
_geom_bond_atom_site_label_1
_geom_bond_atom_site_label_2
_geom_bond_distance
_geom_bond_site_symmetry_2
_ccdc_geom_bond_type
C0 Eu1 2.835 . S
C0 C2 1.500 . S
C0 O20 1.257 . S
C0 O21 1.260 . S
Eu1 C0 2.835 . S
Eu1 O20 2.473 . S
Eu1 O21 2.480 . S
Eu1 O22 2.430 . S
Eu1 O23 2.670 . S
Eu1 O24 2.394 . S
Eu1 O29 2.355 . S
Eu1 O31 2.374 . S
C2 C0 1.500 . S
C2 C3 1.377 . S
C2 C7 1.377 . S
C3 C2 1.377 . S
C3 C4 1.395 . S
C3 H32 0.931 . S
C4 C3 1.395 . S
C4 C5 1.383 . S
C4 H33 0.931 . S
C5 C4 1.383 . S
C5 C6 1.394 . S
C6 C5 1.394 . S
C6 C7 1.378 . S
C6 H34 0.931 . S
C7 C2 1.377 . S
C7 C6 1.378 . S
C7 H35 0.931 . S
C8 O22 1.259 1_556 S
C8 O23 1.270 1_556 S
C9 O24 1.251 . S
C9 O25 1.251 1_554 S
C10 Eu11 2.835 . S
C10 C12 1.500 . S
C10 O26 1.257 . S
C10 O27 1.260 . S
Eu11 C10 2.835 . S
Eu11 O23 2.355 1_556 S
Eu11 O25 2.374 . S
Eu11 O26 2.473 . S
Eu11 O27 2.480 . S
Eu11 O28 2.430 1_556 S
Eu11 O29 2.670 1_556 S
Eu11 O30 2.394 1_556 S
C12 C10 1.500 . S
C12 C13 1.377 . S
C12 C17 1.377 . S
C13 C12 1.377 . S
C13 C14 1.395 . S
C13 H36 0.931 . S
C14 C13 1.395 . S
C14 C15 1.383 . S
C14 H37 0.931 . S
C15 C14 1.383 . S
C15 C16 1.394 . S
C16 C15 1.394 . S
C16 C17 1.378 . S
C16 H38 0.931 . S
C17 C12 1.377 . S
C17 C16 1.378 . S
C17 H39 0.931 . S
C18 O28 1.259 . S
C18 O29 1.270 . S
C19 O30 1.251 . S
C19 O31 1.251 . S
O20 C0 1.257 . S
O20 Eu1 2.473 . S
O21 C0 1.260 . S
O21 Eu1 2.480 . S
O22 Eu1 2.430 . S
O22 C8 1.259 1_554 S
O23 Eu1 2.670 . S
O23 C8 1.270 1_554 S
O23 Eu11 2.355 1_554 S
O24 Eu1 2.394 . S
O24 C9 1.251 . S
O25 C9 1.251 1_556 S
O25 Eu11 2.374 . S
O26 C10 1.257 . S
O26 Eu11 2.473 . S
O27 C10 1.260 . S
O27 Eu11 2.480 . S
O28 Eu11 2.430 1_554 S
O28 C18 1.259 . S
O29 Eu1 2.355 . S
O29 Eu11 2.670 1_554 S
O29 C18 1.270 . S
O30 Eu11 2.394 1_554 S
O30 C19 1.251 . S
O31 Eu1 2.374 . S
O31 C19 1.251 . S
H32 C3 0.931 . S
H33 C4 0.931 . S
H34 C6 0.931 . S
H35 C7 0.931 . S
H36 C13 0.931 . S
H37 C14 0.931 . S
H38 C16 0.931 . S
H39 C17 0.931 . S
C40 Eu41 2.835 . S
C40 C42 1.500 . S
C40 O60 1.257 . S
C40 O61 1.260 . S
Eu41 C40 2.835 . S
Eu41 O60 2.473 . S
Eu41 O61 2.480 . S
Eu41 O62 2.430 . S
Eu41 O63 2.670 . S
Eu41 O64 2.394 . S
Eu41 O69 2.355 . S
Eu41 O71 2.374 . S
C42 C40 1.500 . S
C42 C43 1.377 . S
C42 C47 1.377 . S
C43 C42 1.377 . S
C43 C44 1.395 . S
C43 H72 0.931 . S
C44 C43 1.395 . S
C44 C45 1.383 . S
C44 H73 0.931 . S
C45 C44 1.383 . S
C45 C46 1.394 . S
C46 C45 1.394 . S
C46 C47 1.378 . S
C46 H74 0.931 . S
C47 C42 1.377 . S
C47 C46 1.378 . S
C47 H75 0.931 . S
C48 O62 1.259 . S
C48 O63 1.270 . S
C49 O64 1.251 . S
C49 O65 1.251 . S
C50 Eu51 2.835 . S
C50 C52 1.500 . S
C50 O66 1.257 . S
C50 O67 1.260 . S
Eu51 C50 2.835 . S
Eu51 O63 2.355 . S
Eu51 O65 2.374 . S
Eu51 O66 2.473 . S
Eu51 O67 2.480 . S
Eu51 O68 2.430 . S
Eu51 O69 2.670 . S
Eu51 O70 2.394 . S
C52 C50 1.500 . S
C52 C53 1.377 . S
C52 C57 1.377 . S
C53 C52 1.377 . S
C53 C54 1.395 . S
C53 H76 0.931 . S
C54 C53 1.395 . S
C54 C55 1.383 . S
C54 H77 0.931 . S
C55 C54 1.383 . S
C55 C56 1.394 . S
C56 C55 1.394 . S
C56 C57 1.378 . S
C56 H78 0.931 . S
C57 C52 1.377 . S
C57 C56 1.378 . S
C57 H79 0.931 . S
C58 O68 1.259 . S
C58 O69 1.270 . S
C59 O70 1.251 . S
C59 O71 1.251 . S
O60 C40 1.257 . S
O60 Eu41 2.473 . S
O61 C40 1.260 . S
O61 Eu41 2.480 . S
O62 Eu41 2.430 . S
O62 C48 1.259 . S
O63 Eu41 2.670 . S
O63 C48 1.270 . S
O63 Eu51 2.355 . S
O64 Eu41 2.394 . S
O64 C49 1.251 . S
O65 C49 1.251 . S
O65 Eu51 2.374 . S
O66 C50 1.257 . S
O66 Eu51 2.473 . S
O67 C50 1.260 . S
O67 Eu51 2.480 . S
O68 Eu51 2.430 . S
O68 C58 1.259 . S
O69 Eu41 2.355 . S
O69 Eu51 2.670 . S
O69 C58 1.270 . S
O70 Eu51 2.394 . S
O70 C59 1.251 . S
O71 Eu41 2.374 . S
O71 C59 1.251 . S
H72 C43 0.931 . S
H73 C44 0.931 . S
H74 C46 0.931 . S
H75 C47 0.931 . S
H76 C53 0.931 . S
H77 C54 0.931 . S
H78 C56 0.931 . S
H79 C57 0.931 . S
C80 Eu81 2.835 . S
C80 C82 1.500 . S
C80 O100 1.257 . S
C80 O101 1.260 . S
Eu81 C80 2.835 . S
Eu81 O100 2.473 . S
Eu81 O101 2.480 . S
Eu81 O102 2.430 . S
Eu81 O103 2.670 . S
Eu81 O104 2.394 . S
Eu81 O109 2.355 . S
Eu81 O111 2.374 . S
C82 C80 1.500 . S
C82 C83 1.377 . S
C82 C87 1.377 . S
C83 C82 1.377 . S
C83 C84 1.395 . S
C83 H112 0.931 . S
C84 C83 1.395 . S
C84 C85 1.383 . S
C84 H113 0.931 . S
C85 C84 1.383 . S
C85 C86 1.394 . S
C86 C85 1.394 . S
C86 C87 1.378 . S
C86 H114 0.931 . S
C87 C82 1.377 . S
C87 C86 1.378 . S
C87 H115 0.931 . S
C88 O102 1.259 . S
C88 O103 1.270 . S
C89 O104 1.251 . S
C89 O105 1.251 . S
C90 Eu91 2.835 . S
C90 C92 1.500 . S
C90 O106 1.257 . S
C90 O107 1.260 . S
Eu91 C90 2.835 . S
Eu91 O103 2.355 . S
Eu91 O105 2.374 . S
Eu91 O106 2.473 . S
Eu91 O107 2.480 . S
Eu91 O108 2.430 . S
Eu91 O109 2.670 . S
Eu91 O110 2.394 . S
C92 C90 1.500 . S
C92 C93 1.377 . S
C92 C97 1.377 . S
C93 C92 1.377 . S
C93 C94 1.395 . S
C93 H116 0.931 . S
C94 C93 1.395 . S
C94 C95 1.383 . S
C94 H117 0.931 . S
C95 C94 1.383 . S
C95 C96 1.394 . S
C96 C95 1.394 . S
C96 C97 1.378 . S
C96 H118 0.931 . S
C97 C92 1.377 . S
C97 C96 1.378 . S
C97 H119 0.931 . S
C98 O108 1.259 . S
C98 O109 1.270 . S
C99 O110 1.251 . S
C99 O111 1.251 . S
O100 C80 1.257 . S
O100 Eu81 2.473 . S
O101 C80 1.260 . S
O101 Eu81 2.480 . S
O102 Eu81 2.430 . S
O102 C88 1.259 . S
O103 Eu81 2.670 . S
O103 C88 1.270 . S
O103 Eu91 2.355 . S
O104 Eu81 2.394 . S
O104 C89 1.251 . S
O105 C89 1.251 . S
O105 Eu91 2.374 . S
O106 C90 1.257 . S
O106 Eu91 2.473 . S
O107 C90 1.260 . S
O107 Eu91 2.480 . S
O108 Eu91 2.430 . S
O108 C98 1.259 . S
O109 Eu81 2.355 . S
O109 Eu91 2.670 . S
O109 C98 1.270 . S
O110 Eu91 2.394 . S
O110 C99 1.251 . S
O111 Eu81 2.374 . S
O111 C99 1.251 . S
H112 C83 0.931 . S
H113 C84 0.931 . S
H114 C86 0.931 . S
H115 C87 0.931 . S
H116 C93 0.931 . S
H117 C94 0.931 . S
H118 C96 0.931 . S
H119 C97 0.931 . S
C120 Eu121 2.835 . S
C120 C122 1.500 . S
C120 O140 1.257 . S
C120 O141 1.260 . S
Eu121 C120 2.835 . S
Eu121 O140 2.473 . S
Eu121 O141 2.480 . S
Eu121 O142 2.430 . S
Eu121 O143 2.670 . S
Eu121 O144 2.394 . S
Eu121 O149 2.355 . S
Eu121 O151 2.374 . S
C122 C120 1.500 . S
C122 C123 1.377 . S
C122 C127 1.377 . S
C123 C122 1.377 . S
C123 C124 1.395 . S
C123 H152 0.931 . S
C124 C123 1.395 . S
C124 C125 1.383 . S
C124 H153 0.931 . S
C125 C124 1.383 . S
C125 C126 1.394 . S
C126 C125 1.394 . S
C126 C127 1.378 . S
C126 H154 0.931 . S
C127 C122 1.377 . S
C127 C126 1.378 . S
C127 H155 0.931 . S
C128 O142 1.259 . S
C128 O143 1.270 . S
C129 O144 1.251 . S
C129 O145 1.251 . S
C130 Eu131 2.835 . S
C130 C132 1.500 . S
C130 O146 1.257 . S
C130 O147 1.260 . S
Eu131 C130 2.835 . S
Eu131 O143 2.355 . S
Eu131 O145 2.374 . S
Eu131 O146 2.473 . S
Eu131 O147 2.480 . S
Eu131 O148 2.430 . S
Eu131 O149 2.670 . S
Eu131 O150 2.394 . S
C132 C130 1.500 . S
C132 C133 1.377 . S
C132 C137 1.377 . S
C133 C132 1.377 . S
C133 C134 1.395 . S
C133 H156 0.931 . S
C134 C133 1.395 . S
C134 C135 1.383 . S
C134 H157 0.931 . S
C135 C134 1.383 . S
C135 C136 1.394 . S
C136 C135 1.394 . S
C136 C137 1.378 . S
C136 H158 0.931 . S
C137 C132 1.377 . S
C137 C136 1.378 . S
C137 H159 0.931 . S
C138 O148 1.259 . S
C138 O149 1.270 . S
C139 O150 1.251 . S
C139 O151 1.251 . S
O140 C120 1.257 . S
O140 Eu121 2.473 . S
O141 C120 1.260 . S
O141 Eu121 2.480 . S
O142 Eu121 2.430 . S
O142 C128 1.259 . S
O143 Eu121 2.670 . S
O143 C128 1.270 . S
O143 Eu131 2.355 . S
O144 Eu121 2.394 . S
O144 C129 1.251 . S
O145 C129 1.251 . S
O145 Eu131 2.374 . S
O146 C130 1.257 . S
O146 Eu131 2.473 . S
O147 C130 1.260 . S
O147 Eu131 2.480 . S
O148 Eu131 2.430 . S
O148 C138 1.259 . S
O149 Eu121 2.355 . S
O149 Eu131 2.670 . S
O149 C138 1.270 . S
O150 Eu131 2.394 . S
O150 C139 1.251 . S
O151 Eu121 2.374 . S
O151 C139 1.251 . S
H152 C123 0.931 . S
H153 C124 0.931 . S
H154 C126 0.931 . S
H155 C127 0.931 . S
H156 C133 0.931 . S
H157 C134 0.931 . S
H158 C136 0.931 . S
H159 C137 0.931 . S
C160 Eu161 2.835 . S
C160 C162 1.500 . S
C160 O180 1.257 . S
C160 O181 1.260 . S
Eu161 C160 2.835 . S
Eu161 O180 2.473 . S
Eu161 O181 2.480 . S
Eu161 O182 2.430 1_554 S
Eu161 O183 2.670 1_554 S
Eu161 O184 2.394 1_554 S
Eu161 O189 2.355 1_554 S
Eu161 O191 2.374 . S
C162 C160 1.500 . S
C162 C163 1.377 . S
C162 C167 1.377 . S
C163 C162 1.377 . S
C163 C164 1.395 . S
C163 H192 0.931 . S
C164 C163 1.395 . S
C164 C165 1.383 . S
C164 H193 0.931 . S
C165 C164 1.383 . S
C165 C166 1.394 . S
C166 C165 1.394 . S
C166 C167 1.378 . S
C166 H194 0.931 . S
C167 C162 1.377 . S
C167 C166 1.378 . S
C167 H195 0.931 . S
C168 O182 1.259 . S
C168 O183 1.270 . S
C169 O184 1.251 . S
C169 O185 1.251 . S
C170 Eu171 2.835 . S
C170 C172 1.500 . S
C170 O186 1.257 . S
C170 O187 1.260 . S
Eu171 C170 2.835 . S
Eu171 O183 2.355 . S
Eu171 O185 2.374 . S
Eu171 O186 2.473 . S
Eu171 O187 2.480 . S
Eu171 O188 2.430 . S
Eu171 O189 2.670 . S
Eu171 O190 2.394 . S
C172 C170 1.500 . S
C172 C173 1.377 . S
C172 C177 1.377 . S
C173 C172 1.377 . S
C173 C174 1.395 . S
C173 H196 0.931 . S
C174 C173 1.395 . S
C174 C175 1.383 . S
C174 H197 0.931 . S
C175 C174 1.383 . S
C175 C176 1.394 . S
C176 C175 1.394 . S
C176 C177 1.378 . S
C176 H198 0.931 . S
C177 C172 1.377 . S
C177 C176 1.378 . S
C177 H199 0.931 . S
C178 O188 1.259 1_554 S
C178 O189 1.270 1_554 S
C179 O190 1.251 . S
C179 O191 1.251 1_556 S
O180 C160 1.257 . S
O180 Eu161 2.473 . S
O181 C160 1.260 . S
O181 Eu161 2.480 . S
O182 Eu161 2.430 1_556 S
O182 C168 1.259 . S
O183 Eu161 2.670 1_556 S
O183 C168 1.270 . S
O183 Eu171 2.355 . S
O184 Eu161 2.394 1_556 S
O184 C169 1.251 . S
O185 C169 1.251 . S
O185 Eu171 2.374 . S
O186 C170 1.257 . S
O186 Eu171 2.473 . S
O187 C170 1.260 . S
O187 Eu171 2.480 . S
O188 Eu171 2.430 . S
O188 C178 1.259 1_556 S
O189 Eu161 2.355 1_556 S
O189 Eu171 2.670 . S
O189 C178 1.270 1_556 S
O190 Eu171 2.394 . S
O190 C179 1.251 . S
O191 Eu161 2.374 . S
O191 C179 1.251 1_554 S
H192 C163 0.931 . S
H193 C164 0.931 . S
H194 C166 0.931 . S
H195 C167 0.931 . S
H196 C173 0.931 . S
H197 C174 0.931 . S
H198 C176 0.931 . S
H199 C177 0.931 . S
C200 Eu201 2.835 . S
C200 C202 1.500 . S
C200 O220 1.257 . S
C200 O221 1.260 . S
Eu201 C200 2.835 . S
Eu201 O220 2.473 . S
Eu201 O221 2.480 . S
Eu201 O222 2.430 . S
Eu201 O223 2.670 . S
Eu201 O224 2.394 . S
Eu201 O229 2.355 . S
Eu201 O231 2.374 . S
C202 C200 1.500 . S
C202 C203 1.377 . S
C202 C207 1.377 . S
C203 C202 1.377 . S
C203 C204 1.395 . S
C203 H232 0.931 . S
C204 C203 1.395 . S
C204 C205 1.383 . S
C204 H233 0.931 . S
C205 C204 1.383 . S
C205 C206 1.394 . S
C206 C205 1.394 . S
C206 C207 1.378 . S
C206 H234 0.931 . S
C207 C202 1.377 . S
C207 C206 1.378 . S
C207 H235 0.931 . S
C208 O222 1.259 . S
C208 O223 1.270 . S
C209 O224 1.251 . S
C209 O225 1.251 . S
C210 Eu211 2.835 . S
C210 C212 1.500 . S
C210 O226 1.257 . S
C210 O227 1.260 . S
Eu211 C210 2.835 . S
Eu211 O223 2.355 . S
Eu211 O225 2.374 . S
Eu211 O226 2.473 . S
Eu211 O227 2.480 . S
Eu211 O228 2.430 . S
Eu211 O229 2.670 . S
Eu211 O230 2.394 . S
C212 C210 1.500 . S
C212 C213 1.377 . S
C212 C217 1.377 . S
C213 C212 1.377 . S
C213 C214 1.395 . S
C213 H236 0.931 . S
C214 C213 1.395 . S
C214 C215 1.383 . S
C214 H237 0.931 . S
C215 C214 1.383 . S
C215 C216 1.394 . S
C216 C215 1.394 . S
C216 C217 1.378 . S
C216 H238 0.931 . S
C217 C212 1.377 . S
C217 C216 1.378 . S
C217 H239 0.931 . S
C218 O228 1.259 . S
C218 O229 1.270 . S
C219 O230 1.251 . S
C219 O231 1.251 . S
O220 C200 1.257 . S
O220 Eu201 2.473 . S
O221 C200 1.260 . S
O221 Eu201 2.480 . S
O222 Eu201 2.430 . S
O222 C208 1.259 . S
O223 Eu201 2.670 . S
O223 C208 1.270 . S
O223 Eu211 2.355 . S
O224 Eu201 2.394 . S
O224 C209 1.251 . S
O225 C209 1.251 . S
O225 Eu211 2.374 . S
O226 C210 1.257 . S
O226 Eu211 2.473 . S
O227 C210 1.260 . S
O227 Eu211 2.480 . S
O228 Eu211 2.430 . S
O228 C218 1.259 . S
O229 Eu201 2.355 . S
O229 Eu211 2.670 . S
O229 C218 1.270 . S
O230 Eu211 2.394 . S
O230 C219 1.251 . S
O231 Eu201 2.374 . S
O231 C219 1.251 . S
H232 C203 0.931 . S
H233 C204 0.931 . S
H234 C206 0.931 . S
H235 C207 0.931 . S
H236 C213 0.931 . S
H237 C214 0.931 . S
H238 C216 0.931 . S
H239 C217 0.931 . S
C240 Eu241 2.835 . S
C240 C242 1.500 . S
C240 O260 1.257 . S
C240 O261 1.260 . S
Eu241 C240 2.835 . S
Eu241 O260 2.473 . S
Eu241 O261 2.480 . S
Eu241 O262 2.430 . S
Eu241 O263 2.670 . S
Eu241 O264 2.394 . S
Eu241 O269 2.355 . S
Eu241 O271 2.374 . S
C242 C240 1.500 . S
C242 C243 1.377 . S
C242 C247 1.377 . S
C243 C242 1.377 . S
C243 C244 1.395 . S
C243 H272 0.931 . S
C244 C243 1.395 . S
C244 C245 1.383 . S
C244 H273 0.931 . S
C245 C244 1.383 . S
C245 C246 1.394 . S
C246 C245 1.394 . S
C246 C247 1.378 . S
C246 H274 0.931 . S
C247 C242 1.377 . S
C247 C246 1.378 . S
C247 H275 0.931 . S
C248 O262 1.259 . S
C248 O263 1.270 . S
C249 O264 1.251 . S
C249 O265 1.251 . S
C250 Eu251 2.835 . S
C250 C252 1.500 . S
C250 O266 1.257 . S
C250 O267 1.260 . S
Eu251 C250 2.835 . S
Eu251 O263 2.355 . S
Eu251 O265 2.374 . S
Eu251 O266 2.473 . S
Eu251 O267 2.480 . S
Eu251 O268 2.430 . S
Eu251 O269 2.670 . S
Eu251 O270 2.394 . S
C252 C250 1.500 . S
C252 C253 1.377 . S
C252 C257 1.377 . S
C253 C252 1.377 . S
C253 C254 1.395 . S
C253 H276 0.931 . S
C254 C253 1.395 . S
C254 C255 1.383 . S
C254 H277 0.931 . S
C255 C254 1.383 . S
C255 C256 1.394 . S
C256 C255 1.394 . S
C256 C257 1.378 . S
C256 H278 0.931 . S
C257 C252 1.377 . S
C257 C256 1.378 . S
C257 H279 0.931 . S
C258 O268 1.259 . S
C258 O269 1.270 . S
C259 O270 1.251 . S
C259 O271 1.251 . S
O260 C240 1.257 . S
O260 Eu241 2.473 . S
O261 C240 1.260 . S
O261 Eu241 2.480 . S
O262 Eu241 2.430 . S
O262 C248 1.259 . S
O263 Eu241 2.670 . S
O263 C248 1.270 . S
O263 Eu251 2.355 . S
O264 Eu241 2.394 . S
O264 C249 1.251 . S
O265 C249 1.251 . S
O265 Eu251 2.374 . S
O266 C250 1.257 . S
O266 Eu251 2.473 . S
O267 C250 1.260 . S
O267 Eu251 2.480 . S
O268 Eu251 2.430 . S
O268 C258 1.259 . S
O269 Eu241 2.355 . S
O269 Eu251 2.670 . S
O269 C258 1.270 . S
O270 Eu251 2.394 . S
O270 C259 1.251 . S
O271 Eu241 2.374 . S
O271 C259 1.251 . S
H272 C243 0.931 . S
H273 C244 0.931 . S
H274 C246 0.931 . S
H275 C247 0.931 . S
H276 C253 0.931 . S
H277 C254 0.931 . S
H278 C256 0.931 . S
H279 C257 0.931 . S
C280 Eu281 2.835 . S
C280 C282 1.500 . S
C280 O300 1.257 . S
C280 O301 1.260 . S
Eu281 C280 2.835 . S
Eu281 O300 2.473 . S
Eu281 O301 2.480 . S
Eu281 O302 2.430 . S
Eu281 O303 2.670 . S
Eu281 O304 2.394 . S
Eu281 O309 2.355 . S
Eu281 O311 2.374 . S
C282 C280 1.500 . S
C282 C283 1.377 . S
C282 C287 1.377 . S
C283 C282 1.377 . S
C283 C284 1.395 . S
C283 H312 0.931 . S
C284 C283 1.395 . S
C284 C285 1.383 . S
C284 H313 0.931 . S
C285 C284 1.383 . S
C285 C286 1.394 . S
C286 C285 1.394 . S
C286 C287 1.378 . S
C286 H314 0.931 . S
C287 C282 1.377 . S
C287 C286 1.378 . S
C287 H315 0.931 . S
C288 O302 1.259 . S
C288 O303 1.270 . S
C289 O304 1.251 . S
C289 O305 1.251 . S
C290 Eu291 2.835 . S
C290 C292 1.500 . S
C290 O306 1.257 . S
C290 O307 1.260 . S
Eu291 C290 2.835 . S
Eu291 O303 2.355 . S
Eu291 O305 2.374 . S
Eu291 O306 2.473 . S
Eu291 O307 2.480 . S
Eu291 O308 2.430 . S
Eu291 O309 2.670 . S
Eu291 O310 2.394 . S
C292 C290 1.500 . S
C292 C293 1.377 . S
C292 C297 1.377 . S
C293 C292 1.377 . S
C293 C294 1.395 . S
C293 H316 0.931 . S
C294 C293 1.395 . S
C294 C295 1.383 . S
C294 H317 0.931 . S
C295 C294 1.383 . S
C295 C296 1.394 . S
C296 C295 1.394 . S
C296 C297 1.378 . S
C296 H318 0.931 . S
C297 C292 1.377 . S
C297 C296 1.378 . S
C297 H319 0.931 . S
C298 O308 1.259 . S
C298 O309 1.270 . S
C299 O310 1.251 . S
C299 O311 1.251 . S
O300 C280 1.257 . S
O300 Eu281 2.473 . S
O301 C280 1.260 . S
O301 Eu281 2.480 . S
O302 Eu281 2.430 . S
O302 C288 1.259 . S
O303 Eu281 2.670 . S
O303 C288 1.270 . S
O303 Eu291 2.355 . S
O304 Eu281 2.394 . S
O304 C289 1.251 . S
O305 C289 1.251 . S
O305 Eu291 2.374 . S
O306 C290 1.257 . S
O306 Eu291 2.473 . S
O307 C290 1.260 . S
O307 Eu291 2.480 . S
O308 Eu291 2.430 . S
O308 C298 1.259 . S
O309 Eu281 2.355 . S
O309 Eu291 2.670 . S
O309 C298 1.270 . S
O310 Eu291 2.394 . S
O310 C299 1.251 . S
O311 Eu281 2.374 . S
O311 C299 1.251 . S
H312 C283 0.931 . S
H313 C284 0.931 . S
H314 C286 0.931 . S
H315 C287 0.931 . S
H316 C293 0.931 . S
H317 C294 0.931 . S
H318 C296 0.931 . S
H319 C297 0.931 . S
C320 Eu321 2.835 . S
C320 C322 1.500 . S
C320 O340 1.257 . S
C320 O341 1.260 . S
Eu321 C320 2.835 . S
Eu321 O340 2.473 . S
Eu321 O341 2.480 . S
Eu321 O342 2.430 . S
Eu321 O343 2.670 . S
Eu321 O344 2.394 . S
Eu321 O349 2.355 . S
Eu321 O351 2.374 . S
C322 C320 1.500 . S
C322 C323 1.377 . S
C322 C327 1.377 . S
C323 C322 1.377 . S
C323 C324 1.395 . S
C323 H352 0.931 . S
C324 C323 1.395 . S
C324 C325 1.383 . S
C324 H353 0.931 . S
C325 C324 1.383 . S
C325 C326 1.394 . S
C326 C325 1.394 . S
C326 C327 1.378 . S
C326 H354 0.931 . S
C327 C322 1.377 . S
C327 C326 1.378 . S
C327 H355 0.931 . S
C328 O342 1.259 . S
C328 O343 1.270 . S
C329 O344 1.251 . S
C329 O345 1.251 . S
C330 Eu331 2.835 . S
C330 C332 1.500 . S
C330 O346 1.257 . S
C330 O347 1.260 . S
Eu331 C330 2.835 . S
Eu331 O343 2.355 . S
Eu331 O345 2.374 . S
Eu331 O346 2.473 . S
Eu331 O347 2.480 . S
Eu331 O348 2.430 . S
Eu331 O349 2.670 . S
Eu331 O350 2.394 . S
C332 C330 1.500 . S
C332 C333 1.377 . S
C332 C337 1.377 . S
C333 C332 1.377 . S
C333 C334 1.395 . S
C333 H356 0.931 . S
C334 C333 1.395 . S
C334 C335 1.383 . S
C334 H357 0.931 . S
C335 C334 1.383 . S
C335 C336 1.394 . S
C336 C335 1.394 . S
C336 C337 1.378 . S
C336 H358 0.931 . S
C337 C332 1.377 . S
C337 C336 1.378 . S
C337 H359 0.931 . S
C338 O348 1.259 . S
C338 O349 1.270 . S
C339 O350 1.251 . S
C339 O351 1.251 . S
O340 C320 1.257 . S
O340 Eu321 2.473 . S
O341 C320 1.260 . S
O341 Eu321 2.480 . S
O342 Eu321 2.430 . S
O342 C328 1.259 . S
O343 Eu321 2.670 . S
O343 C328 1.270 . S
O343 Eu331 2.355 . S
O344 Eu321 2.394 . S
O344 C329 1.251 . S
O345 C329 1.251 . S
O345 Eu331 2.374 . S
O346 C330 1.257 . S
O346 Eu331 2.473 . S
O347 C330 1.260 . S
O347 Eu331 2.480 . S
O348 Eu331 2.430 . S
O348 C338 1.259 . S
O349 Eu321 2.355 . S
O349 Eu331 2.670 . S
O349 C338 1.270 . S
O350 Eu331 2.394 . S
O350 C339 1.251 . S
O351 Eu321 2.374 . S
O351 C339 1.251 . S
H352 C323 0.931 . S
H353 C324 0.931 . S
H354 C326 0.931 . S
H355 C327 0.931 . S
H356 C333 0.931 . S
H357 C334 0.931 . S
H358 C336 0.931 . S
H359 C337 0.931 . S
C360 Eu361 2.835 . S
C360 C362 1.500 . S
C360 O380 1.257 . S
C360 O381 1.260 . S
Eu361 C360 2.835 . S
Eu361 O380 2.473 . S
Eu361 O381 2.480 . S
Eu361 O382 2.430 . S
Eu361 O383 2.670 . S
Eu361 O384 2.394 . S
Eu361 O389 2.355 . S
Eu361 O391 2.374 . S
C362 C360 1.500 . S
C362 C363 1.377 . S
C362 C367 1.377 . S
C363 C362 1.377 . S
C363 C364 1.395 . S
C363 H392 0.931 . S
C364 C363 1.395 . S
C364 C365 1.383 . S
C364 H393 0.931 . S
C365 C364 1.383 . S
C365 C366 1.394 . S
C366 C365 1.394 . S
C366 C367 1.378 . S
C366 H394 0.931 . S
C367 C362 1.377 . S
C367 C366 1.378 . S
C367 H395 0.931 . S
C368 O382 1.259 . S
C368 O383 1.270 . S
C369 O384 1.251 . S
C369 O385 1.251 . S
C370 Eu371 2.835 . S
C370 C372 1.500 . S
C370 O386 1.257 . S
C370 O387 1.260 . S
Eu371 C370 2.835 . S
Eu371 O383 2.355 . S
Eu371 O385 2.374 . S
Eu371 O386 2.473 . S
Eu371 O387 2.480 . S
Eu371 O388 2.430 . S
Eu371 O389 2.670 . S
Eu371 O390 2.394 . S
C372 C370 1.500 . S
C372 C373 1.377 . S
C372 C377 1.377 . S
C373 C372 1.377 . S
C373 C374 1.395 . S
C373 H396 0.931 . S
C374 C373 1.395 . S
C374 C375 1.383 . S
C374 H397 0.931 . S
C375 C374 1.383 . S
C375 C376 1.394 . S
C376 C375 1.394 . S
C376 C377 1.378 . S
C376 H398 0.931 . S
C377 C372 1.377 . S
C377 C376 1.378 . S
C377 H399 0.931 . S
C378 O388 1.259 . S
C378 O389 1.270 . S
C379 O390 1.251 . S
C379 O391 1.251 . S
O380 C360 1.257 . S
O380 Eu361 2.473 . S
O381 C360 1.260 . S
O381 Eu361 2.480 . S
O382 Eu361 2.430 . S
O382 C368 1.259 . S
O383 Eu361 2.670 . S
O383 C368 1.270 . S
O383 Eu371 2.355 . S
O384 Eu361 2.394 . S
O384 C369 1.251 . S
O385 C369 1.251 . S
O385 Eu371 2.374 . S
O386 C370 1.257 . S
O386 Eu371 2.473 . S
O387 C370 1.260 . S
O387 Eu371 2.480 . S
O388 Eu371 2.430 . S
O388 C378 1.259 . S
O389 Eu361 2.355 . S
O389 Eu371 2.670 . S
O389 C378 1.270 . S
O390 Eu371 2.394 . S
O390 C379 1.251 . S
O391 Eu361 2.374 . S
O391 C379 1.251 . S
H392 C363 0.931 . S
H393 C364 0.931 . S
H394 C366 0.931 . S
H395 C367 0.931 . S
H396 C373 0.931 . S
H397 C374 0.931 . S
H398 C376 0.931 . S
H399 C377 0.931 . S
C400 Eu401 2.835 . S
C400 C402 1.500 . S
C400 O420 1.257 . S
C400 O421 1.260 . S
Eu401 C400 2.835 . S
Eu401 O420 2.473 . S
Eu401 O421 2.480 . S
Eu401 O422 2.430 . S
Eu401 O423 2.670 . S
Eu401 O424 2.394 . S
Eu401 O429 2.355 . S
Eu401 O431 2.374 . S
C402 C400 1.500 . S
C402 C403 1.377 . S
C402 C407 1.377 . S
C403 C402 1.377 . S
C403 C404 1.395 . S
C403 H432 0.931 . S
C404 C403 1.395 . S
C404 C405 1.383 . S
C404 H433 0.931 . S
C405 C404 1.383 . S
C405 C406 1.394 . S
C406 C405 1.394 . S
C406 C407 1.378 . S
C406 H434 0.931 . S
C407 C402 1.377 . S
C407 C406 1.378 . S
C407 H435 0.931 . S
C408 O422 1.259 1_556 S
C408 O423 1.270 1_556 S
C409 O424 1.251 . S
C409 O425 1.251 1_554 S
C410 Eu411 2.835 . S
C410 C412 1.500 . S
C410 O426 1.257 . S
C410 O427 1.260 . S
Eu411 C410 2.835 . S
Eu411 O423 2.355 1_556 S
Eu411 O425 2.374 . S
Eu411 O426 2.473 . S
Eu411 O427 2.480 . S
Eu411 O428 2.430 1_556 S
Eu411 O429 2.670 1_556 S
Eu411 O430 2.394 1_556 S
C412 C410 1.500 . S
C412 C413 1.377 . S
C412 C417 1.377 . S
C413 C412 1.377 . S
C413 C414 1.395 . S
C413 H436 0.931 . S
C414 C413 1.395 . S
C414 C415 1.383 . S
C414 H437 0.931 . S
C415 C414 1.383 . S
C415 C416 1.394 . S
C416 C415 1.394 . S
C416 C417 1.378 . S
C416 H438 0.931 . S
C417 C412 1.377 . S
C417 C416 1.378 . S
C417 H439 0.931 . S
C418 O428 1.259 . S
C418 O429 1.270 . S
C419 O430 1.251 . S
C419 O431 1.251 . S
O420 C400 1.257 . S
O420 Eu401 2.473 . S
O421 C400 1.260 . S
O421 Eu401 2.480 . S
O422 Eu401 2.430 . S
O422 C408 1.259 1_554 S
O423 Eu401 2.670 . S
O423 C408 1.270 1_554 S
O423 Eu411 2.355 1_554 S
O424 Eu401 2.394 . S
O424 C409 1.251 . S
O425 C409 1.251 1_556 S
O425 Eu411 2.374 . S
O426 C410 1.257 . S
O426 Eu411 2.473 . S
O427 C410 1.260 . S
O427 Eu411 2.480 . S
O428 Eu411 2.430 1_554 S
O428 C418 1.259 . S
O429 Eu401 2.355 . S
O429 Eu411 2.670 1_554 S
O429 C418 1.270 . S
O430 Eu411 2.394 1_554 S
O430 C419 1.251 . S
O431 Eu401 2.374 . S
O431 C419 1.251 . S
H432 C403 0.931 . S
H433 C404 0.931 . S
H434 C406 0.931 . S
H435 C407 0.931 . S
H436 C413 0.931 . S
H437 C414 0.931 . S
H438 C416 0.931 . S
H439 C417 0.931 . S
C440 Eu441 2.835 . S
C440 C442 1.500 . S
C440 O460 1.257 . S
C440 O461 1.260 . S
Eu441 C440 2.835 . S
Eu441 O460 2.473 . S
Eu441 O461 2.480 . S
Eu441 O462 2.430 . S
Eu441 O463 2.670 . S
Eu441 O464 2.394 . S
Eu441 O469 2.355 . S
Eu441 O471 2.374 . S
C442 C440 1.500 . S
C442 C443 1.377 . S
C442 C447 1.377 . S
C443 C442 1.377 . S
C443 C444 1.395 . S
C443 H472 0.931 . S
C444 C443 1.395 . S
C444 C445 1.383 . S
C444 H473 0.931 . S
C445 C444 1.383 . S
C445 C446 1.394 . S
C446 C445 1.394 . S
C446 C447 1.378 . S
C446 H474 0.931 . S
C447 C442 1.377 . S
C447 C446 1.378 . S
C447 H475 0.931 . S
C448 O462 1.259 . S
C448 O463 1.270 . S
C449 O464 1.251 . S
C449 O465 1.251 . S
C450 Eu451 2.835 . S
C450 C452 1.500 . S
C450 O466 1.257 . S
C450 O467 1.260 . S
Eu451 C450 2.835 . S
Eu451 O463 2.355 . S
Eu451 O465 2.374 . S
Eu451 O466 2.473 . S
Eu451 O467 2.480 . S
Eu451 O468 2.430 . S
Eu451 O469 2.670 . S
Eu451 O470 2.394 . S
C452 C450 1.500 . S
C452 C453 1.377 . S
C452 C457 1.377 . S
C453 C452 1.377 . S
C453 C454 1.395 . S
C453 H476 0.931 . S
C454 C453 1.395 . S
C454 C455 1.383 . S
C454 H477 0.931 . S
C455 C454 1.383 . S
C455 C456 1.394 . S
C456 C455 1.394 . S
C456 C457 1.378 . S
C456 H478 0.931 . S
C457 C452 1.377 . S
C457 C456 1.378 . S
C457 H479 0.931 . S
C458 O468 1.259 . S
C458 O469 1.270 . S
C459 O470 1.251 . S
C459 O471 1.251 . S
O460 C440 1.257 . S
O460 Eu441 2.473 . S
O461 C440 1.260 . S
O461 Eu441 2.480 . S
O462 Eu441 2.430 . S
O462 C448 1.259 . S
O463 Eu441 2.670 . S
O463 C448 1.270 . S
O463 Eu451 2.355 . S
O464 Eu441 2.394 . S
O464 C449 1.251 . S
O465 C449 1.251 . S
O465 Eu451 2.374 . S
O466 C450 1.257 . S
O466 Eu451 2.473 . S
O467 C450 1.260 . S
O467 Eu451 2.480 . S
O468 Eu451 2.430 . S
O468 C458 1.259 . S
O469 Eu441 2.355 . S
O469 Eu451 2.670 . S
O469 C458 1.270 . S
O470 Eu451 2.394 . S
O470 C459 1.251 . S
O471 Eu441 2.374 . S
O471 C459 1.251 . S
H472 C443 0.931 . S
H473 C444 0.931 . S
H474 C446 0.931 . S
H475 C447 0.931 . S
H476 C453 0.931 . S
H477 C454 0.931 . S
H478 C456 0.931 . S
H479 C457 0.931 . S
C480 Eu481 2.835 . S
C480 C482 1.500 . S
C480 O500 1.257 . S
C480 O501 1.260 . S
Eu481 C480 2.835 . S
Eu481 O500 2.473 . S
Eu481 O501 2.480 . S
Eu481 O502 2.430 . S
Eu481 O503 2.670 . S
Eu481 O504 2.394 . S
Eu481 O509 2.355 . S
Eu481 O511 2.374 . S
C482 C480 1.500 . S
C482 C483 1.377 . S
C482 C487 1.377 . S
C483 C482 1.377 . S
C483 C484 1.395 . S
C483 H512 0.931 . S
C484 C483 1.395 . S
C484 C485 1.383 . S
C484 H513 0.931 . S
C485 C484 1.383 . S
C485 C486 1.394 . S
C486 C485 1.394 . S
C486 C487 1.378 . S
C486 H514 0.931 . S
C487 C482 1.377 . S
C487 C486 1.378 . S
C487 H515 0.931 . S
C488 O502 1.259 . S
C488 O503 1.270 . S
C489 O504 1.251 . S
C489 O505 1.251 . S
C490 Eu491 2.835 . S
C490 C492 1.500 . S
C490 O506 1.257 . S
C490 O507 1.260 . S
Eu491 C490 2.835 . S
Eu491 O503 2.355 . S
Eu491 O505 2.374 . S
Eu491 O506 2.473 . S
Eu491 O507 2.480 . S
Eu491 O508 2.430 . S
Eu491 O509 2.670 . S
Eu491 O510 2.394 . S
C492 C490 1.500 . S
C492 C493 1.377 . S
C492 C497 1.377 . S
C493 C492 1.377 . S
C493 C494 1.395 . S
C493 H516 0.931 . S
C494 C493 1.395 . S
C494 C495 1.383 . S
C494 H517 0.931 . S
C495 C494 1.383 . S
C495 C496 1.394 . S
C496 C495 1.394 . S
C496 C497 1.378 . S
C496 H518 0.931 . S
C497 C492 1.377 . S
C497 C496 1.378 . S
C497 H519 0.931 . S
C498 O508 1.259 . S
C498 O509 1.270 . S
C499 O510 1.251 . S
C499 O511 1.251 . S
O500 C480 1.257 . S
O500 Eu481 2.473 . S
O501 C480 1.260 . S
O501 Eu481 2.480 . S
O502 Eu481 2.430 . S
O502 C488 1.259 . S
O503 Eu481 2.670 . S
O503 C488 1.270 . S
O503 Eu491 2.355 . S
O504 Eu481 2.394 . S
O504 C489 1.251 . S
O505 C489 1.251 . S
O505 Eu491 2.374 . S
O506 C490 1.257 . S
O506 Eu491 2.473 . S
O507 C490 1.260 . S
O507 Eu491 2.480 . S
O508 Eu491 2.430 . S
O508 C498 1.259 . S
O509 Eu481 2.355 . S
O509 Eu491 2.670 . S
O509 C498 1.270 . S
O510 Eu491 2.394 . S
O510 C499 1.251 . S
O511 Eu481 2.374 . S
O511 C499 1.251 . S
H512 C483 0.931 . S
H513 C484 0.931 . S
H514 C486 0.931 . S
H515 C487 0.931 . S
H516 C493 0.931 . S
H517 C494 0.931 . S
H518 C496 0.931 . S
H519 C497 0.931 . S
C520 Eu521 2.835 . S
C520 C522 1.500 . S
C520 O540 1.257 . S
C520 O541 1.260 . S
Eu521 C520 2.835 . S
Eu521 O540 2.473 . S
Eu521 O541 2.480 . S
Eu521 O542 2.430 . S
Eu521 O543 2.670 . S
Eu521 O544 2.394 . S
Eu521 O549 2.355 . S
Eu521 O551 2.374 . S
C522 C520 1.500 . S
C522 C523 1.377 . S
C522 C527 1.377 . S
C523 C522 1.377 . S
C523 C524 1.395 . S
C523 H552 0.931 . S
C524 C523 1.395 . S
C524 C525 1.383 . S
C524 H553 0.931 . S
C525 C524 1.383 . S
C525 C526 1.394 . S
C526 C525 1.394 . S
C526 C527 1.378 . S
C526 H554 0.931 . S
C527 C522 1.377 . S
C527 C526 1.378 . S
C527 H555 0.931 . S
C528 O542 1.259 . S
C528 O543 1.270 . S
C529 O544 1.251 . S
C529 O545 1.251 . S
C530 Eu531 2.835 . S
C530 C532 1.500 . S
C530 O546 1.257 . S
C530 O547 1.260 . S
Eu531 C530 2.835 . S
Eu531 O543 2.355 . S
Eu531 O545 2.374 . S
Eu531 O546 2.473 . S
Eu531 O547 2.480 . S
Eu531 O548 2.430 . S
Eu531 O549 2.670 . S
Eu531 O550 2.394 . S
C532 C530 1.500 . S
C532 C533 1.377 . S
C532 C537 1.377 . S
C533 C532 1.377 . S
C533 C534 1.395 . S
C533 H556 0.931 . S
C534 C533 1.395 . S
C534 C535 1.383 . S
C534 H557 0.931 . S
C535 C534 1.383 . S
C535 C536 1.394 . S
C536 C535 1.394 . S
C536 C537 1.378 . S
C536 H558 0.931 . S
C537 C532 1.377 . S
C537 C536 1.378 . S
C537 H559 0.931 . S
C538 O548 1.259 . S
C538 O549 1.270 . S
C539 O550 1.251 . S
C539 O551 1.251 . S
O540 C520 1.257 . S
O540 Eu521 2.473 . S
O541 C520 1.260 . S
O541 Eu521 2.480 . S
O542 Eu521 2.430 . S
O542 C528 1.259 . S
O543 Eu521 2.670 . S
O543 C528 1.270 . S
O543 Eu531 2.355 . S
O544 Eu521 2.394 . S
O544 C529 1.251 . S
O545 C529 1.251 . S
O545 Eu531 2.374 . S
O546 C530 1.257 . S
O546 Eu531 2.473 . S
O547 C530 1.260 . S
O547 Eu531 2.480 . S
O548 Eu531 2.430 . S
O548 C538 1.259 . S
O549 Eu521 2.355 . S
O549 Eu531 2.670 . S
O549 C538 1.270 . S
O550 Eu531 2.394 . S
O550 C539 1.251 . S
O551 Eu521 2.374 . S
O551 C539 1.251 . S
H552 C523 0.931 . S
H553 C524 0.931 . S
H554 C526 0.931 . S
H555 C527 0.931 . S
H556 C533 0.931 . S
H557 C534 0.931 . S
H558 C536 0.931 . S
H559 C537 0.931 . S
C560 Eu561 2.835 . S
C560 C562 1.500 . S
C560 O580 1.257 . S
C560 O581 1.260 . S
Eu561 C560 2.835 . S
Eu561 O580 2.473 . S
Eu561 O581 2.480 . S
Eu561 O582 2.430 1_554 S
Eu561 O583 2.670 1_554 S
Eu561 O584 2.394 1_554 S
Eu561 O589 2.355 1_554 S
Eu561 O591 2.374 . S
C562 C560 1.500 . S
C562 C563 1.377 . S
C562 C567 1.377 . S
C563 C562 1.377 . S
C563 C564 1.395 . S
C563 H592 0.931 . S
C564 C563 1.395 . S
C564 C565 1.383 . S
C564 H593 0.931 . S
C565 C564 1.383 . S
C565 C566 1.394 . S
C566 C565 1.394 . S
C566 C567 1.378 . S
C566 H594 0.931 . S
C567 C562 1.377 . S
C567 C566 1.378 . S
C567 H595 0.931 . S
C568 O582 1.259 . S
C568 O583 1.270 . S
C569 O584 1.251 . S
C569 O585 1.251 . S
C570 Eu571 2.835 . S
C570 C572 1.500 . S
C570 O586 1.257 . S
C570 O587 1.260 . S
Eu571 C570 2.835 . S
Eu571 O583 2.355 . S
Eu571 O585 2.374 . S
Eu571 O586 2.473 . S
Eu571 O587 2.480 . S
Eu571 O588 2.430 . S
Eu571 O589 2.670 . S
Eu571 O590 2.394 . S
C572 C570 1.500 . S
C572 C573 1.377 . S
C572 C577 1.377 . S
C573 C572 1.377 . S
C573 C574 1.395 . S
C573 H596 0.931 . S
C574 C573 1.395 . S
C574 C575 1.383 . S
C574 H597 0.931 . S
C575 C574 1.383 . S
C575 C576 1.394 . S
C576 C575 1.394 . S
C576 C577 1.378 . S
C576 H598 0.931 . S
C577 C572 1.377 . S
C577 C576 1.378 . S
C577 H599 0.931 . S
C578 O588 1.259 1_554 S
C578 O589 1.270 1_554 S
C579 O590 1.251 . S
C579 O591 1.251 1_556 S
O580 C560 1.257 . S
O580 Eu561 2.473 . S
O581 C560 1.260 . S
O581 Eu561 2.480 . S
O582 Eu561 2.430 1_556 S
O582 C568 1.259 . S
O583 Eu561 2.670 1_556 S
O583 C568 1.270 . S
O583 Eu571 2.355 . S
O584 Eu561 2.394 1_556 S
O584 C569 1.251 . S
O585 C569 1.251 . S
O585 Eu571 2.374 . S
O586 C570 1.257 . S
O586 Eu571 2.473 . S
O587 C570 1.260 . S
O587 Eu571 2.480 . S
O588 Eu571 2.430 . S
O588 C578 1.259 1_556 S
O589 Eu561 2.355 1_556 S
O589 Eu571 2.670 . S
O589 C578 1.270 1_556 S
O590 Eu571 2.394 . S
O590 C579 1.251 . S
O591 Eu561 2.374 . S
O591 C579 1.251 1_554 S
H592 C563 0.931 . S
H593 C564 0.931 . S
H594 C566 0.931 . S
H595 C567 0.931 . S
H596 C573 0.931 . S
H597 C574 0.931 . S
H598 C576 0.931 . S
H599 C577 0.931 . S
C600 Eu601 2.835 . S
C600 C602 1.500 . S
C600 O620 1.257 . S
C600 O621 1.260 . S
Eu601 C600 2.835 . S
Eu601 O620 2.473 . S
Eu601 O621 2.480 . S
Eu601 O622 2.430 . S
Eu601 O623 2.670 . S
Eu601 O624 2.394 . S
Eu601 O629 2.355 . S
Eu601 O631 2.374 . S
C602 C600 1.500 . S
C602 C603 1.377 . S
C602 C607 1.377 . S
C603 C602 1.377 . S
C603 C604 1.395 . S
C603 H632 0.931 . S
C604 C603 1.395 . S
C604 C605 1.383 . S
C604 H633 0.931 . S
C605 C604 1.383 . S
C605 C606 1.394 . S
C606 C605 1.394 . S
C606 C607 1.378 . S
C606 H634 0.931 . S
C607 C602 1.377 . S
C607 C606 1.378 . S
C607 H635 0.931 . S
C608 O622 1.259 . S
C608 O623 1.270 . S
C609 O624 1.251 . S
C609 O625 1.251 . S
C610 Eu611 2.835 . S
C610 C612 1.500 . S
C610 O626 1.257 . S
C610 O627 1.260 . S
Eu611 C610 2.835 . S
Eu611 O623 2.355 . S
Eu611 O625 2.374 . S
Eu611 O626 2.473 . S
Eu611 O627 2.480 . S
Eu611 O628 2.430 . S
Eu611 O629 2.670 . S
Eu611 O630 2.394 . S
C612 C610 1.500 . S
C612 C613 1.377 . S
C612 C617 1.377 . S
C613 C612 1.377 . S
C613 C614 1.395 . S
C613 H636 0.931 . S
C614 C613 1.395 . S
C614 C615 1.383 . S
C614 H637 0.931 . S
C615 C614 1.383 . S
C615 C616 1.394 . S
C616 C615 1.394 . S
C616 C617 1.378 . S
C616 H638 0.931 . S
C617 C612 1.377 . S
C617 C616 1.378 . S
C617 H639 0.931 . S
C618 O628 1.259 . S
C618 O629 1.270 . S
C619 O630 1.251 . S
C619 O631 1.251 . S
O620 C600 1.257 . S
O620 Eu601 2.473 . S
O621 C600 1.260 . S
O621 Eu601 2.480 . S
O622 Eu601 2.430 . S
O622 C608 1.259 . S
O623 Eu601 2.670 . S
O623 C608 1.270 . S
O623 Eu611 2.355 . S
O624 Eu601 2.394 . S
O624 C609 1.251 . S
O625 C609 1.251 . S
O625 Eu611 2.374 . S
O626 C610 1.257 . S
O626 Eu611 2.473 . S
O627 C610 1.260 . S
O627 Eu611 2.480 . S
O628 Eu611 2.430 . S
O628 C618 1.259 . S
O629 Eu601 2.355 . S
O629 Eu611 2.670 . S
O629 C618 1.270 . S
O630 Eu611 2.394 . S
O630 C619 1.251 . S
O631 Eu601 2.374 . S
O631 C619 1.251 . S
H632 C603 0.931 . S
H633 C604 0.931 . S
H634 C606 0.931 . S
H635 C607 0.931 . S
H636 C613 0.931 . S
H637 C614 0.931 . S
H638 C616 0.931 . S
H639 C617 0.931 . S
H640 C652 0.930 . S
H641 C654 0.930 . S
H642 C655 0.930 1_556 S
H643 C659 0.959 . S
H644 C659 0.959 . S
H645 C659 0.961 . S
H646 C660 0.960 . S
H647 C660 0.961 . S
H648 C660 0.959 . S
H649 C663 0.929 1_556 S
H650 C664 0.939 . S
H651 C666 0.930 . S
C652 H640 0.930 . S
C652 C653 1.399 . S
C652 C657 1.399 . S
C653 C652 1.399 . S
C653 C654 1.376 . S
C654 H641 0.930 . S
C654 C653 1.376 . S
C654 C655 1.388 . S
C655 H642 0.930 1_554 S
C655 C654 1.388 . S
C655 C656 1.390 . S
C656 C655 1.390 . S
C656 C657 1.394 . S
C656 C662 1.465 . S
C657 C652 1.399 . S
C657 C656 1.394 . S
C657 C658 1.516 . S
C658 C657 1.516 . S
C658 C659 1.502 . S
C658 C660 1.561 . S
C658 C661 1.526 . S
C659 H643 0.959 . S
C659 H644 0.959 . S
C659 H645 0.961 . S
C659 C658 1.502 . S
C660 H646 0.960 . S
C660 H647 0.961 . S
C660 H648 0.959 . S
C660 C658 1.561 . S
C661 C658 1.526 . S
C661 C662 1.396 . S
C661 C666 1.390 . S
C662 C656 1.465 . S
C662 C661 1.396 . S
C662 C663 1.399 . S
C663 H649 0.929 1_554 S
C663 C662 1.399 . S
C663 C664 1.385 . S
C664 H650 0.939 . S
C664 C663 1.385 . S
C664 C665 1.389 . S
C665 C664 1.389 . S
C665 C666 1.387 . S
C666 H651 0.930 . S
C666 C661 1.390 . S
C666 C665 1.387 . S
H667 C679 0.930 . S
H668 C681 0.930 . S
H669 C682 0.930 . S
H670 C686 0.959 . S
H671 C686 0.959 . S
H672 C686 0.961 . S
H673 C687 0.960 . S
H674 C687 0.961 . S
H675 C687 0.959 . S
H676 C690 0.929 . S
H677 C691 0.931 . S
H678 C693 0.930 . S
C679 H667 0.930 . S
C679 C680 1.399 . S
C679 C684 1.399 . S
C680 C679 1.399 . S
C680 C681 1.376 . S
C681 H668 0.930 . S
C681 C680 1.376 . S
C681 C682 1.388 . S
C682 H669 0.930 . S
C682 C681 1.388 . S
C682 C683 1.390 . S
C683 C682 1.390 . S
C683 C684 1.394 . S
C683 C689 1.465 . S
C684 C679 1.399 . S
C684 C683 1.394 . S
C684 C685 1.516 . S
C685 C684 1.516 . S
C685 C686 1.502 . S
C685 C687 1.561 . S
C685 C688 1.526 . S
C686 H670 0.959 . S
C686 H671 0.959 . S
C686 H672 0.961 . S
C686 C685 1.502 . S
C687 H673 0.960 . S
C687 H674 0.961 . S
C687 H675 0.959 . S
C687 C685 1.561 . S
C688 C685 1.526 . S
C688 C689 1.396 . S
C688 C693 1.390 . S
C689 C683 1.465 . S
C689 C688 1.396 . S
C689 C690 1.399 . S
C690 H676 0.929 . S
C690 C689 1.399 . S
C690 C691 1.385 . S
C691 H677 0.931 . S
C691 C690 1.385 . S
C691 C692 1.389 . S
C692 C691 1.389 . S
C692 C693 1.387 . S
C693 H678 0.930 . S
C693 C688 1.390 . S
C693 C692 1.387 . S
H694 C706 0.930 . S
H695 C708 0.930 . S
H696 C709 0.930 . S
H697 C713 0.959 . S
H698 C713 0.959 . S
H699 C713 0.961 . S
H700 C714 0.960 . S
H701 C714 0.961 . S
H702 C714 0.959 . S
H703 C717 0.929 . S
H704 C718 0.931 . S
H705 C720 0.930 . S
C706 H694 0.930 . S
C706 C707 1.399 . S
C706 C711 1.399 . S
C707 C706 1.399 . S
C707 C708 1.376 . S
C708 H695 0.930 . S
C708 C707 1.376 . S
C708 C709 1.388 . S
C709 H696 0.930 . S
C709 C708 1.388 . S
C709 C710 1.390 . S
C710 C709 1.390 . S
C710 C711 1.394 . S
C710 C716 1.465 . S
C711 C706 1.399 . S
C711 C710 1.394 . S
C711 C712 1.516 1_455 S
C712 C711 1.516 1_655 S
C712 C713 1.502 . S
C712 C714 1.561 . S
C712 C715 1.526 . S
C713 H697 0.959 . S
C713 H698 0.959 . S
C713 H699 0.961 . S
C713 C712 1.502 . S
C714 H700 0.960 . S
C714 H701 0.961 . S
C714 H702 0.959 . S
C714 C712 1.561 . S
C715 C712 1.526 . S
C715 C716 1.396 1_655 S
C715 C720 1.390 . S
C716 C710 1.465 . S
C716 C715 1.396 1_455 S
C716 C717 1.399 . S
C717 H703 0.929 . S
C717 C716 1.399 . S
C717 C718 1.385 1_455 S
C718 H704 0.931 . S
C718 C717 1.385 1_655 S
C718 C719 1.389 . S
C719 C718 1.389 . S
C719 C720 1.387 . S
C720 H705 0.930 . S
C720 C715 1.390 . S
C720 C719 1.387 . S
H721 C733 0.930 . S
H722 C735 0.930 . S
H723 C736 0.930 . S
H724 C740 0.959 . S
H725 C740 0.959 . S
H726 C740 0.977 . S
H727 C741 0.960 . S
H728 C741 0.961 . S
H729 C741 0.959 . S
H730 C744 0.929 . S
H731 C745 0.931 . S
H732 C747 0.930 . S
C733 H721 0.930 . S
C733 C734 1.399 . S
C733 C738 1.399 . S
C734 C733 1.399 . S
C734 C735 1.376 . S
C735 H722 0.930 . S
C735 C734 1.376 . S
C735 C736 1.388 . S
C736 H723 0.930 . S
C736 C735 1.388 . S
C736 C737 1.390 . S
C737 C736 1.390 . S
C737 C738 1.394 . S
C737 C743 1.465 1_655 S
C738 C733 1.399 . S
C738 C737 1.394 . S
C738 C739 1.516 . S
C739 C738 1.516 . S
C739 C740 1.502 1_655 S
C739 C741 1.561 . S
C739 C742 1.526 1_655 S
C740 H724 0.959 . S
C740 H725 0.959 . S
C740 H726 0.977 . S
C740 C739 1.502 1_455 S
C741 H727 0.960 . S
C741 H728 0.961 . S
C741 H729 0.959 . S
C741 C739 1.561 . S
C742 C739 1.526 1_455 S
C742 C743 1.396 . S
C742 C747 1.390 . S
C743 C737 1.465 1_455 S
C743 C742 1.396 . S
C743 C744 1.399 . S
C744 H730 0.929 . S
C744 C743 1.399 . S
C744 C745 1.385 . S
C745 H731 0.931 . S
C745 C744 1.385 . S
C745 C746 1.389 . S
C746 C745 1.389 . S
C746 C747 1.387 . S
C747 H732 0.930 . S
C747 C742 1.390 . S
C747 C746 1.387 . S
H748 C760 0.930 . S
H749 C762 0.930 . S
H750 C763 0.930 . S
H751 C767 0.959 . S
H752 C767 0.959 . S
H753 C767 0.961 . S
H754 C768 0.960 . S
H755 C768 0.961 . S
H756 C768 0.959 . S
H757 C771 0.929 . S
H758 C772 0.931 . S
H759 C774 0.930 . S
C760 H748 0.930 . S
C760 C761 1.399 . S
C760 C765 1.399 . S
C761 C760 1.399 . S
C761 C762 1.376 . S
C762 H749 0.930 . S
C762 C761 1.376 . S
C762 C763 1.388 . S
C763 H750 0.930 . S
C763 C762 1.388 . S
C763 C764 1.390 . S
C764 C763 1.390 . S
C764 C765 1.394 . S
C764 C770 1.465 . S
C765 C760 1.399 . S
C765 C764 1.394 . S
C765 C766 1.516 . S
C766 C765 1.516 . S
C766 C767 1.502 1_556 S
C766 C768 1.561 . S
C766 C769 1.526 . S
C767 H751 0.959 . S
C767 H752 0.959 . S
C767 H753 0.961 . S
C767 C766 1.502 1_554 S
C768 H754 0.960 . S
C768 H755 0.961 . S
C768 H756 0.959 . S
C768 C766 1.561 . S
C769 C766 1.526 . S
C769 C770 1.396 . S
C769 C774 1.390 . S
C770 C764 1.465 . S
C770 C769 1.396 . S
C770 C771 1.399 . S
C771 H757 0.929 . S
C771 C770 1.399 . S
C771 C772 1.385 . S
C772 H758 0.931 . S
C772 C771 1.385 . S
C772 C773 1.389 . S
C773 C772 1.389 . S
C773 C774 1.387 . S
C774 H759 0.930 . S
C774 C769 1.390 . S
C774 C773 1.387 . S
H775 C787 0.930 . S
H776 C789 0.930 . S
H777 C790 0.930 . S
H778 C794 0.959 . S
H779 C794 0.959 . S
H780 C794 0.961 . S
H781 C795 0.960 . S
H782 C795 0.961 . S
H783 C795 0.959 . S
H784 C798 0.929 . S
H785 C799 0.931 . S
H786 C801 0.930 . S
C787 H775 0.930 . S
C787 C788 1.399 . S
C787 C792 1.399 . S
C788 C787 1.399 . S
C788 C789 1.376 . S
C789 H776 0.930 . S
C789 C788 1.376 . S
C789 C790 1.388 . S
C790 H777 0.930 . S
C790 C789 1.388 . S
C790 C791 1.390 . S
C791 C790 1.390 . S
C791 C792 1.394 . S
C791 C797 1.465 . S
C792 C787 1.399 . S
C792 C791 1.394 . S
C792 C793 1.516 . S
C793 C792 1.516 . S
C793 C794 1.502 . S
C793 C795 1.561 . S
C793 C796 1.526 . S
C794 H778 0.959 . S
C794 H779 0.959 . S
C794 H780 0.961 . S
C794 C793 1.502 . S
C795 H781 0.960 . S
C795 H782 0.961 . S
C795 H783 0.959 . S
C795 C793 1.561 . S
C796 C793 1.526 . S
C796 C797 1.396 . S
C796 C801 1.390 . S
C797 C791 1.465 . S
C797 C796 1.396 . S
C797 C798 1.399 . S
C798 H784 0.929 . S
C798 C797 1.399 . S
C798 C799 1.385 . S
C799 H785 0.931 . S
C799 C798 1.385 . S
C799 C800 1.389 . S
C800 C799 1.389 . S
C800 C801 1.387 . S
C801 H786 0.930 . S
C801 C796 1.390 . S
C801 C800 1.387 . S
H802 C814 0.930 . S
H803 C816 0.930 . S
H804 C817 0.930 . S
H805 C821 0.959 . S
H806 C821 0.959 . S
H807 C821 0.961 . S
H808 C822 0.960 . S
H809 C822 0.961 . S
H810 C822 0.959 . S
H811 C825 0.929 . S
H812 C826 0.931 . S
H813 C828 0.930 . S
C814 H802 0.930 . S
C814 C815 1.399 . S
C814 C819 1.399 . S
C815 C814 1.399 . S
C815 C816 1.376 . S
C816 H803 0.930 . S
C816 C815 1.376 . S
C816 C817 1.388 . S
C817 H804 0.930 . S
C817 C816 1.388 . S
C817 C818 1.390 . S
C818 C817 1.390 . S
C818 C819 1.394 . S
C818 C824 1.465 1_655 S
C819 C814 1.399 . S
C819 C818 1.394 . S
C819 C820 1.516 . S
C820 C819 1.516 . S
C820 C821 1.502 . S
C820 C822 1.561 1_655 S
C820 C823 1.526 1_655 S
C821 H805 0.959 . S
C821 H806 0.959 . S
C821 H807 0.961 . S
C821 C820 1.502 . S
C822 H808 0.960 . S
C822 H809 0.961 . S
C822 H810 0.959 . S
C822 C820 1.561 1_455 S
C823 C820 1.526 1_455 S
C823 C824 1.396 . S
C823 C828 1.390 . S
C824 C818 1.465 1_455 S
C824 C823 1.396 . S
C824 C825 1.399 . S
C825 H811 0.929 . S
C825 C824 1.399 . S
C825 C826 1.385 . S
C826 H812 0.931 . S
C826 C825 1.385 . S
C826 C827 1.389 . S
C827 C826 1.389 . S
C827 C828 1.387 . S
C828 H813 0.930 . S
C828 C823 1.390 . S
C828 C827 1.387 . S
H829 C841 0.930 . S
H830 C843 0.930 . S
H831 C844 0.930 . S
H832 C848 0.959 . S
H833 C848 0.959 . S
H834 C848 0.961 . S
H835 C849 0.960 . S
H836 C849 0.961 1_655 S
H837 C849 0.959 . S
H838 C852 0.929 . S
H839 C853 0.931 . S
H840 C855 0.930 . S
C841 H829 0.930 . S
C841 C842 1.399 . S
C841 C846 1.399 . S
C842 C841 1.399 . S
C842 C843 1.376 . S
C843 H830 0.930 . S
C843 C842 1.376 . S
C843 C844 1.388 . S
C844 H831 0.930 . S
C844 C843 1.388 . S
C844 C845 1.390 . S
C845 C844 1.390 . S
C845 C846 1.394 . S
C845 C851 1.465 1_455 S
C846 C841 1.399 . S
C846 C845 1.394 . S
C846 C847 1.516 1_455 S
C847 C846 1.516 1_655 S
C847 C848 1.502 . S
C847 C849 1.561 1_655 S
C847 C850 1.526 . S
C848 H832 0.959 . S
C848 H833 0.959 . S
C848 H834 0.961 . S
C848 C847 1.502 . S
C849 H835 0.960 . S
C849 H836 0.961 1_455 S
C849 H837 0.959 . S
C849 C847 1.561 1_455 S
C850 C847 1.526 . S
C850 C851 1.396 . S
C850 C855 1.390 . S
C851 C845 1.465 1_655 S
C851 C850 1.396 . S
C851 C852 1.399 . S
C852 H838 0.929 . S
C852 C851 1.399 . S
C852 C853 1.385 . S
C853 H839 0.931 . S
C853 C852 1.385 . S
C853 C854 1.389 . S
C854 C853 1.389 . S
C854 C855 1.387 . S
C855 H840 0.930 . S
C855 C850 1.390 . S
C855 C854 1.387 . S
H856 C868 0.930 . S
H857 C870 0.930 . S
H858 C871 0.930 . S
H859 C875 0.959 . S
H860 C875 0.959 . S
H861 C875 0.961 . S
H862 C876 0.960 . S
H863 C876 0.961 . S
H864 C876 0.959 . S
H865 C879 0.929 . S
H866 C880 0.931 1_554 S
H867 C882 0.930 . S
C868 H856 0.930 . S
C868 C869 1.399 . S
C868 C873 1.399 . S
C869 C868 1.399 . S
C869 C870 1.376 . S
C870 H857 0.930 . S
C870 C869 1.376 . S
C870 C871 1.388 . S
C871 H858 0.930 . S
C871 C870 1.388 . S
C871 C872 1.390 . S
C872 C871 1.390 . S
C872 C873 1.394 . S
C872 C878 1.465 . S
C873 C868 1.399 . S
C873 C872 1.394 . S
C873 C874 1.516 . S
C874 C873 1.516 . S
C874 C875 1.502 . S
C874 C876 1.561 . S
C874 C877 1.526 . S
C875 H859 0.959 . S
C875 H860 0.959 . S
C875 H861 0.961 . S
C875 C874 1.502 . S
C876 H862 0.960 . S
C876 H863 0.961 . S
C876 H864 0.959 . S
C876 C874 1.561 . S
C877 C874 1.526 . S
C877 C878 1.396 . S
C877 C882 1.390 . S
C878 C872 1.465 . S
C878 C877 1.396 . S
C878 C879 1.399 . S
C879 H865 0.929 . S
C879 C878 1.399 . S
C879 C880 1.385 . S
C880 H866 0.931 1_556 S
C880 C879 1.385 . S
C880 C881 1.389 . S
C881 C880 1.389 . S
C881 C882 1.387 . S
C882 H867 0.930 . S
C882 C877 1.390 . S
C882 C881 1.387 . S
H883 C895 0.930 . S
H884 C897 0.930 . S
H885 C898 0.930 . S
H886 C902 0.959 . S
H887 C902 0.959 . S
H888 C902 0.961 . S
H889 C903 0.960 . S
H890 C903 0.961 . S
H891 C903 0.959 . S
H892 C906 0.929 . S
H893 C907 0.931 . S
H894 C909 0.930 . S
C895 H883 0.930 . S
C895 C896 1.399 . S
C895 C900 1.399 . S
C896 C895 1.399 . S
C896 C897 1.376 . S
C897 H884 0.930 . S
C897 C896 1.376 . S
C897 C898 1.388 . S
C898 H885 0.930 . S
C898 C897 1.388 . S
C898 C899 1.390 . S
C899 C898 1.390 . S
C899 C900 1.394 . S
C899 C905 1.465 . S
C900 C895 1.399 . S
C900 C899 1.394 . S
C900 C901 1.516 . S
C901 C900 1.516 . S
C901 C902 1.502 . S
C901 C903 1.561 . S
C901 C904 1.526 . S
C902 H886 0.959 . S
C902 H887 0.959 . S
C902 H888 0.961 . S
C902 C901 1.502 . S
C903 H889 0.960 . S
C903 H890 0.961 . S
C903 H891 0.959 . S
C903 C901 1.561 . S
C904 C901 1.526 . S
C904 C905 1.396 . S
C904 C909 1.390 . S
C905 C899 1.465 . S
C905 C904 1.396 . S
C905 C906 1.399 . S
C906 H892 0.929 . S
C906 C905 1.399 . S
C906 C907 1.385 . S
C907 H893 0.931 . S
C907 C906 1.385 . S
C907 C908 1.389 . S
C908 C907 1.389 . S
C908 C909 1.387 . S
C909 H894 0.930 . S
C909 C904 1.390 . S
C909 C908 1.387 . S
H910 C922 0.930 . S
H911 C924 0.930 . S
H912 C925 0.930 . S
H913 C929 0.959 . S
H914 C929 0.959 . S
H915 C929 0.961 . S
H916 C930 0.960 . S
H917 C930 0.961 . S
H918 C930 0.959 . S
H919 C933 0.929 . S
H920 C934 0.931 . S
H921 C936 0.930 . S
C922 H910 0.930 . S
C922 C923 1.399 . S
C922 C927 1.399 . S
C923 C922 1.399 . S
C923 C924 1.376 . S
C924 H911 0.930 . S
C924 C923 1.376 . S
C924 C925 1.388 . S
C925 H912 0.930 . S
C925 C924 1.388 . S
C925 C926 1.390 . S
C926 C925 1.390 . S
C926 C927 1.394 . S
C926 C932 1.465 . S
C927 C922 1.399 . S
C927 C926 1.394 . S
C927 C928 1.516 . S
C928 C927 1.516 . S
C928 C929 1.502 . S
C928 C930 1.561 . S
C928 C931 1.526 . S
C929 H913 0.959 . S
C929 H914 0.959 . S
C929 H915 0.961 . S
C929 C928 1.502 . S
C930 H916 0.960 . S
C930 H917 0.961 . S
C930 H918 0.959 . S
C930 C928 1.561 . S
C931 C928 1.526 . S
C931 C932 1.396 . S
C931 C936 1.390 . S
C932 C926 1.465 . S
C932 C931 1.396 . S
C932 C933 1.399 . S
C933 H919 0.929 . S
C933 C932 1.399 . S
C933 C934 1.385 . S
C934 H920 0.931 . S
C934 C933 1.385 . S
C934 C935 1.389 . S
C935 C934 1.389 . S
C935 C936 1.387 . S
C936 H921 0.930 . S
C936 C931 1.390 . S
C936 C935 1.387 . S
H937 C949 0.930 . S
H938 C951 0.930 . S
H939 C952 0.930 . S
H940 C956 0.959 . S
H941 C956 0.959 . S
H942 C956 0.961 . S
H943 C957 0.960 . S
H944 C957 0.961 . S
H945 C957 0.959 . S
H946 C960 0.929 . S
H947 C961 0.931 . S
H948 C963 0.930 . S
C949 H937 0.930 . S
C949 C950 1.399 . S
C949 C954 1.399 . S
C950 C949 1.399 . S
C950 C951 1.376 . S
C951 H938 0.930 . S
C951 C950 1.376 . S
C951 C952 1.388 . S
C952 H939 0.930 . S
C952 C951 1.388 . S
C952 C953 1.390 . S
C953 C952 1.390 . S
C953 C954 1.394 . S
C953 C959 1.465 . S
C954 C949 1.399 . S
C954 C953 1.394 . S
C954 C955 1.516 . S
C955 C954 1.516 . S
C955 C956 1.502 . S
C955 C957 1.561 . S
C955 C958 1.526 . S
C956 H940 0.959 . S
C956 H941 0.959 . S
C956 H942 0.961 . S
C956 C955 1.502 . S
C957 H943 0.960 . S
C957 H944 0.961 . S
C957 H945 0.959 . S
C957 C955 1.561 . S
C958 C955 1.526 . S
C958 C959 1.396 . S
C958 C963 1.390 . S
C959 C953 1.465 . S
C959 C958 1.396 . S
C959 C960 1.399 . S
C960 H946 0.929 . S
C960 C959 1.399 . S
C960 C961 1.385 . S
C961 H947 0.931 . S
C961 C960 1.385 . S
C961 C962 1.389 . S
C962 C961 1.389 . S
C962 C963 1.387 . S
C963 H948 0.930 . S
C963 C958 1.390 . S
C963 C962 1.387 . S
H964 C976 0.930 . S
H965 C978 0.930 . S
H966 C979 0.930 . S
H967 C983 0.959 . S
H968 C983 0.959 . S
H969 C983 0.961 . S
H970 C984 0.960 . S
H971 C984 0.961 . S
H972 C984 0.959 . S
H973 C987 0.929 . S
H974 C988 0.931 . S
H975 C990 0.930 . S
C976 H964 0.930 . S
C976 C977 1.399 . S
C976 C981 1.399 . S
C977 C976 1.399 . S
C977 C978 1.376 . S
C978 H965 0.930 . S
C978 C977 1.376 . S
C978 C979 1.388 . S
C979 H966 0.930 . S
C979 C978 1.388 . S
C979 C980 1.390 . S
C980 C979 1.390 . S
C980 C981 1.394 . S
C980 C986 1.465 . S
C981 C976 1.399 . S
C981 C980 1.394 . S
C981 C982 1.516 . S
C982 C981 1.516 . S
C982 C983 1.502 . S
C982 C984 1.561 . S
C982 C985 1.526 . S
C983 H967 0.959 . S
C983 H968 0.959 . S
C983 H969 0.961 . S
C983 C982 1.502 . S
C984 H970 0.960 . S
C984 H971 0.961 . S
C984 H972 0.959 . S
C984 C982 1.561 . S
C985 C982 1.526 . S
C985 C986 1.396 . S
C985 C990 1.390 . S
C986 C980 1.465 . S
C986 C985 1.396 . S
C986 C987 1.399 . S
C987 H973 0.929 . S
C987 C986 1.399 . S
C987 C988 1.385 . S
C988 H974 0.931 . S
C988 C987 1.385 . S
C988 C989 1.389 . S
C989 C988 1.389 . S
C989 C990 1.387 . S
C990 H975 0.930 . S
C990 C985 1.390 . S
C990 C989 1.387 . S
H991 C1003 0.930 . S
H992 C1005 0.930 . S
H993 C1006 0.930 . S
H994 C1010 0.959 . S
H995 C1010 0.959 . S
H996 C1010 0.961 . S
H997 C1011 0.960 . S
H998 C1011 0.961 . S
H999 C1011 0.959 . S
H1000 C1014 0.929 . S
H1001 C1015 0.931 . S
H1002 C1017 0.930 . S
C1003 H991 0.930 . S
C1003 C1004 1.399 . S
C1003 C1008 1.399 . S
C1004 C1003 1.399 . S
C1004 C1005 1.376 . S
C1005 H992 0.930 . S
C1005 C1004 1.376 . S
C1005 C1006 1.388 . S
C1006 H993 0.930 . S
C1006 C1005 1.388 . S
C1006 C1007 1.390 . S
C1007 C1006 1.390 . S
C1007 C1008 1.394 . S
C1007 C1013 1.465 . S
C1008 C1003 1.399 . S
C1008 C1007 1.394 . S
C1008 C1009 1.516 . S
C1009 C1008 1.516 . S
C1009 C1010 1.502 . S
C1009 C1011 1.561 . S
C1009 C1012 1.526 . S
C1010 H994 0.959 . S
C1010 H995 0.959 . S
C1010 H996 0.961 . S
C1010 C1009 1.502 . S
C1011 H997 0.960 . S
C1011 H998 0.961 . S
C1011 H999 0.959 . S
C1011 C1009 1.561 . S
C1012 C1009 1.526 . S
C1012 C1013 1.396 . S
C1012 C1017 1.390 . S
C1013 C1007 1.465 . S
C1013 C1012 1.396 . S
C1013 C1014 1.399 . S
C1014 H1000 0.929 . S
C1014 C1013 1.399 . S
C1014 C1015 1.385 . S
C1015 H1001 0.931 . S
C1015 C1014 1.385 . S
C1015 C1016 1.389 . S
C1016 C1015 1.389 . S
C1016 C1017 1.387 . S
C1017 H1002 0.930 . S
C1017 C1012 1.390 . S
C1017 C1016 1.387 . S
H1018 C1030 0.930 . S
H1019 C1032 0.930 . S
H1020 C1033 0.930 . S
H1021 C1037 0.959 . S
H1022 C1037 0.959 . S
H1023 C1037 0.961 . S
H1024 C1038 0.960 . S
H1025 C1038 0.961 . S
H1026 C1038 0.959 . S
H1027 C1041 0.929 . S
H1028 C1042 0.931 . S
H1029 C1044 0.930 . S
C1030 H1018 0.930 . S
C1030 C1031 1.399 . S
C1030 C1035 1.399 . S
C1031 C1030 1.399 . S
C1031 C1032 1.376 . S
C1032 H1019 0.930 . S
C1032 C1031 1.376 . S
C1032 C1033 1.388 . S
C1033 H1020 0.930 . S
C1033 C1032 1.388 . S
C1033 C1034 1.390 . S
C1034 C1033 1.390 . S
C1034 C1035 1.394 . S
C1034 C1040 1.465 . S
C1035 C1030 1.399 . S
C1035 C1034 1.394 . S
C1035 C1036 1.516 . S
C1036 C1035 1.516 . S
C1036 C1037 1.502 . S
C1036 C1038 1.561 . S
C1036 C1039 1.526 . S
C1037 H1021 0.959 . S
C1037 H1022 0.959 . S
C1037 H1023 0.961 . S
C1037 C1036 1.502 . S
C1038 H1024 0.960 . S
C1038 H1025 0.961 . S
C1038 H1026 0.959 . S
C1038 C1036 1.561 . S
C1039 C1036 1.526 . S
C1039 C1040 1.396 . S
C1039 C1044 1.390 . S
C1040 C1034 1.465 . S
C1040 C1039 1.396 . S
C1040 C1041 1.399 . S
C1041 H1027 0.929 . S
C1041 C1040 1.399 . S
C1041 C1042 1.385 . S
C1042 H1028 0.931 . S
C1042 C1041 1.385 . S
C1042 C1043 1.389 . S
C1043 C1042 1.389 . S
C1043 C1044 1.387 . S
C1044 H1029 0.930 . S
C1044 C1039 1.390 . S
C1044 C1043 1.387 . S
H1045 C1057 0.930 . S
H1046 C1059 0.930 . S
H1047 C1060 0.930 . S
H1048 C1064 0.959 . S
H1049 C1064 0.959 . S
H1050 C1064 0.961 . S
H1051 C1065 0.960 . S
H1052 C1065 0.961 . S
H1053 C1065 0.959 . S
H1054 C1068 0.929 . S
H1055 C1069 0.931 . S
H1056 C1071 0.930 . S
C1057 H1045 0.930 . S
C1057 C1058 1.399 . S
C1057 C1062 1.399 . S
C1058 C1057 1.399 . S
C1058 C1059 1.376 . S
C1059 H1046 0.930 . S
C1059 C1058 1.376 . S
C1059 C1060 1.388 . S
C1060 H1047 0.930 . S
C1060 C1059 1.388 . S
C1060 C1061 1.390 . S
C1061 C1060 1.390 . S
C1061 C1062 1.394 . S
C1061 C1067 1.465 . S
C1062 C1057 1.399 . S
C1062 C1061 1.394 . S
C1062 C1063 1.516 . S
C1063 C1062 1.516 . S
C1063 C1064 1.502 . S
C1063 C1065 1.561 . S
C1063 C1066 1.526 . S
C1064 H1048 0.959 . S
C1064 H1049 0.959 . S
C1064 H1050 0.961 . S
C1064 C1063 1.502 . S
C1065 H1051 0.960 . S
C1065 H1052 0.961 . S
C1065 H1053 0.959 . S
C1065 C1063 1.561 . S
C1066 C1063 1.526 . S
C1066 C1067 1.396 . S
C1066 C1071 1.390 . S
C1067 C1061 1.465 . S
C1067 C1066 1.396 . S
C1067 C1068 1.399 . S
C1068 H1054 0.929 . S
C1068 C1067 1.399 . S
C1068 C1069 1.385 . S
C1069 H1055 0.931 . S
C1069 C1068 1.385 . S
C1069 C1070 1.389 . S
C1070 C1069 1.389 . S
C1070 C1071 1.387 . S
C1071 H1056 0.930 . S
C1071 C1066 1.390 . S
C1071 C1070 1.387 . S
H1072 C1084 0.930 . S
H1073 C1086 0.930 . S
H1074 C1087 0.930 . S
H1075 C1091 0.959 . S
H1076 C1091 0.959 . S
H1077 C1091 0.961 . S
H1078 C1092 0.960 . S
H1079 C1092 0.961 . S
H1080 C1092 0.959 . S
H1081 C1095 0.929 . S
H1082 C1096 0.931 . S
H1083 C1098 0.930 . S
C1084 H1072 0.930 . S
C1084 C1085 1.399 . S
C1084 C1089 1.399 . S
C1085 C1084 1.399 . S
C1085 C1086 1.376 . S
C1086 H1073 0.930 . S
C1086 C1085 1.376 . S
C1086 C1087 1.388 . S
C1087 H1074 0.930 . S
C1087 C1086 1.388 . S
C1087 C1088 1.390 . S
C1088 C1087 1.390 . S
C1088 C1089 1.394 . S
C1088 C1094 1.465 . S
C1089 C1084 1.399 . S
C1089 C1088 1.394 . S
C1089 C1090 1.516 . S
C1090 C1089 1.516 . S
C1090 C1091 1.502 . S
C1090 C1092 1.561 . S
C1090 C1093 1.526 . S
C1091 H1075 0.959 . S
C1091 H1076 0.959 . S
C1091 H1077 0.961 . S
C1091 C1090 1.502 . S
C1092 H1078 0.960 . S
C1092 H1079 0.961 . S
C1092 H1080 0.959 . S
C1092 C1090 1.561 . S
C1093 C1090 1.526 . S
C1093 C1094 1.396 . S
C1093 C1098 1.390 . S
C1094 C1088 1.465 . S
C1094 C1093 1.396 . S
C1094 C1095 1.399 . S
C1095 H1081 0.929 . S
C1095 C1094 1.399 . S
C1095 C1096 1.385 . S
C1096 H1082 0.931 . S
C1096 C1095 1.385 . S
C1096 C1097 1.389 . S
C1097 C1096 1.389 . S
C1097 C1098 1.387 . S
C1098 H1083 0.930 . S
C1098 C1093 1.390 . S
C1098 C1097 1.387 . S
H1099 C1111 0.930 . S
H1100 C1113 0.930 . S
H1101 C1114 0.930 . S
H1102 C1118 0.959 . S
H1103 C1118 0.959 . S
H1104 C1118 0.961 . S
H1105 C1119 0.960 . S
H1106 C1119 0.961 . S
H1107 C1119 0.959 . S
H1108 C1122 0.929 . S
H1109 C1123 0.931 . S
H1110 C1125 0.930 . S
C1111 H1099 0.930 . S
C1111 C1112 1.399 . S
C1111 C1116 1.399 1_545 S
C1112 C1111 1.399 . S
C1112 C1113 1.376 . S
C1113 H1100 0.930 . S
C1113 C1112 1.376 . S
C1113 C1114 1.388 . S
C1114 H1101 0.930 . S
C1114 C1113 1.388 . S
C1114 C1115 1.390 1_545 S
C1115 C1114 1.390 1_565 S
C1115 C1116 1.394 . S
C1115 C1121 1.465 . S
C1116 C1111 1.399 1_565 S
C1116 C1115 1.394 . S
C1116 C1117 1.516 . S
C1117 C1116 1.516 . S
C1117 C1118 1.502 . S
C1117 C1119 1.561 . S
C1117 C1120 1.526 . S
C1118 H1102 0.959 . S
C1118 H1103 0.959 . S
C1118 H1104 0.961 . S
C1118 C1117 1.502 . S
C1119 H1105 0.960 . S
C1119 H1106 0.961 . S
C1119 H1107 0.959 . S
C1119 C1117 1.561 . S
C1120 C1117 1.526 . S
C1120 C1121 1.396 . S
C1120 C1125 1.390 . S
C1121 C1115 1.465 . S
C1121 C1120 1.396 . S
C1121 C1122 1.399 . S
C1122 H1108 0.929 . S
C1122 C1121 1.399 . S
C1122 C1123 1.385 . S
C1123 H1109 0.931 . S
C1123 C1122 1.385 . S
C1123 C1124 1.389 . S
C1124 C1123 1.389 . S
C1124 C1125 1.387 . S
C1125 H1110 0.930 . S
C1125 C1120 1.390 . S
C1125 C1124 1.387 . S
H1126 C1138 0.930 . S
H1127 C1140 0.930 . S
H1128 C1141 0.930 . S
H1129 C1145 0.959 . S
H1130 C1145 0.959 . S
H1131 C1145 0.961 . S
H1132 C1146 0.960 . S
H1133 C1146 0.961 . S
H1134 C1146 0.959 . S
H1135 C1149 0.929 . S
H1136 C1150 0.931 . S
H1137 C1152 0.930 . S
C1138 H1126 0.930 . S
C1138 C1139 1.399 . S
C1138 C1143 1.399 . S
C1139 C1138 1.399 . S
C1139 C1140 1.376 . S
C1140 H1127 0.930 . S
C1140 C1139 1.376 . S
C1140 C1141 1.388 . S
C1141 H1128 0.930 . S
C1141 C1140 1.388 . S
C1141 C1142 1.390 . S
C1142 C1141 1.390 . S
C1142 C1143 1.394 . S
C1142 C1148 1.465 . S
C1143 C1138 1.399 . S
C1143 C1142 1.394 . S
C1143 C1144 1.516 . S
C1144 C1143 1.516 . S
C1144 C1145 1.502 . S
C1144 C1146 1.561 . S
C1144 C1147 1.526 . S
C1145 H1129 0.959 . S
C1145 H1130 0.959 . S
C1145 H1131 0.961 . S
C1145 C1144 1.502 . S
C1146 H1132 0.960 . S
C1146 H1133 0.961 . S
C1146 H1134 0.959 . S
C1146 C1144 1.561 . S
C1147 C1144 1.526 . S
C1147 C1148 1.396 . S
C1147 C1152 1.390 . S
C1148 C1142 1.465 . S
C1148 C1147 1.396 . S
C1148 C1149 1.399 . S
C1149 H1135 0.929 . S
C1149 C1148 1.399 . S
C1149 C1150 1.385 . S
C1150 H1136 0.931 . S
C1150 C1149 1.385 . S
C1150 C1151 1.389 . S
C1151 C1150 1.389 . S
C1151 C1152 1.387 . S
C1152 H1137 0.930 . S
C1152 C1147 1.390 . S
C1152 C1151 1.387 . S
H1153 C1165 0.930 . S
H1154 C1167 0.930 . S
H1155 C1168 0.930 . S
H1156 C1172 0.959 1_545 S
H1157 C1172 0.959 1_545 S
H1158 C1172 0.961 . S
H1159 C1173 0.960 . S
H1160 C1173 0.961 1_545 S
H1161 C1173 0.959 1_545 S
H1162 C1176 0.929 . S
H1163 C1177 0.931 . S
H1164 C1179 0.930 . S
C1165 H1153 0.930 . S
C1165 C1166 1.399 . S
C1165 C1170 1.399 . S
C1166 C1165 1.399 . S
C1166 C1167 1.376 . S
C1167 H1154 0.930 . S
C1167 C1166 1.376 . S
C1167 C1168 1.388 1_565 S
C1168 H1155 0.930 . S
C1168 C1167 1.388 1_545 S
C1168 C1169 1.390 . S
C1169 C1168 1.390 . S
C1169 C1170 1.394 1_545 S
C1169 C1175 1.465 . S
C1170 C1165 1.399 . S
C1170 C1169 1.394 1_565 S
C1170 C1171 1.516 1_565 S
C1171 C1170 1.516 1_545 S
C1171 C1172 1.502 1_545 S
C1171 C1173 1.561 1_545 S
C1171 C1174 1.526 . S
C1172 H1156 0.959 1_565 S
C1172 H1157 0.959 1_565 S
C1172 H1158 0.961 . S
C1172 C1171 1.502 1_565 S
C1173 H1159 0.960 . S
C1173 H1160 0.961 1_565 S
C1173 H1161 0.959 1_565 S
C1173 C1171 1.561 1_565 S
C1174 C1171 1.526 . S
C1174 C1175 1.396 . S
C1174 C1179 1.390 . S
C1175 C1169 1.465 . S
C1175 C1174 1.396 . S
C1175 C1176 1.399 . S
C1176 H1162 0.929 . S
C1176 C1175 1.399 . S
C1176 C1177 1.385 . S
C1177 H1163 0.931 . S
C1177 C1176 1.385 . S
C1177 C1178 1.389 . S
C1178 C1177 1.389 . S
C1178 C1179 1.387 . S
C1179 H1164 0.930 . S
C1179 C1174 1.390 . S
C1179 C1178 1.387 . S
H1180 C1192 0.930 . S
H1181 C1194 0.930 . S
H1182 C1195 0.930 . S
H1183 C1199 0.959 . S
H1184 C1199 0.959 . S
H1185 C1199 0.961 . S
H1186 C1200 0.960 . S
H1187 C1200 0.961 . S
H1188 C1200 0.959 . S
H1189 C1203 0.929 . S
H1190 C1204 0.931 . S
H1191 C1206 0.930 . S
C1192 H1180 0.930 . S
C1192 C1193 1.399 . S
C1192 C1197 1.399 . S
C1193 C1192 1.399 . S
C1193 C1194 1.376 . S
C1194 H1181 0.930 . S
C1194 C1193 1.376 . S
C1194 C1195 1.388 . S
C1195 H1182 0.930 . S
C1195 C1194 1.388 . S
C1195 C1196 1.390 . S
C1196 C1195 1.390 . S
C1196 C1197 1.394 . S
C1196 C1202 1.465 . S
C1197 C1192 1.399 . S
C1197 C1196 1.394 . S
C1197 C1198 1.516 . S
C1198 C1197 1.516 . S
C1198 C1199 1.502 . S
C1198 C1200 1.561 . S
C1198 C1201 1.526 . S
C1199 H1183 0.959 . S
C1199 H1184 0.959 . S
C1199 H1185 0.961 . S
C1199 C1198 1.502 . S
C1200 H1186 0.960 . S
C1200 H1187 0.961 . S
C1200 H1188 0.959 . S
C1200 C1198 1.561 . S
C1201 C1198 1.526 . S
C1201 C1202 1.396 . S
C1201 C1206 1.390 . S
C1202 C1196 1.465 . S
C1202 C1201 1.396 . S
C1202 C1203 1.399 . S
C1203 H1189 0.929 . S
C1203 C1202 1.399 . S
C1203 C1204 1.385 . S
C1204 H1190 0.931 . S
C1204 C1203 1.385 . S
C1204 C1205 1.389 . S
C1205 C1204 1.389 . S
C1205 C1206 1.387 . S
C1206 H1191 0.930 . S
C1206 C1201 1.390 . S
C1206 C1205 1.387 . S
H1207 C1219 0.930 . S
H1208 C1221 0.930 . S
H1209 C1222 0.930 . S
H1210 C1226 0.959 . S
H1211 C1226 0.959 . S
H1212 C1226 0.961 . S
H1213 C1227 0.960 . S
H1214 C1227 0.961 . S
H1215 C1227 0.959 . S
H1216 C1230 0.929 . S
H1217 C1231 0.931 . S
H1218 C1233 0.930 . S
C1219 H1207 0.930 . S
C1219 C1220 1.399 . S
C1219 C1224 1.399 . S
C1220 C1219 1.399 . S
C1220 C1221 1.376 . S
C1221 H1208 0.930 . S
C1221 C1220 1.376 . S
C1221 C1222 1.388 . S
C1222 H1209 0.930 . S
C1222 C1221 1.388 . S
C1222 C1223 1.390 . S
C1223 C1222 1.390 . S
C1223 C1224 1.394 . S
C1223 C1229 1.465 . S
C1224 C1219 1.399 . S
C1224 C1223 1.394 . S
C1224 C1225 1.516 . S
C1225 C1224 1.516 . S
C1225 C1226 1.502 . S
C1225 C1227 1.561 . S
C1225 C1228 1.526 . S
C1226 H1210 0.959 . S
C1226 H1211 0.959 . S
C1226 H1212 0.961 . S
C1226 C1225 1.502 . S
C1227 H1213 0.960 . S
C1227 H1214 0.961 . S
C1227 H1215 0.959 . S
C1227 C1225 1.561 . S
C1228 C1225 1.526 . S
C1228 C1229 1.396 . S
C1228 C1233 1.390 1_545 S
C1229 C1223 1.465 . S
C1229 C1228 1.396 . S
C1229 C1230 1.399 1_545 S
C1230 H1216 0.929 . S
C1230 C1229 1.399 1_565 S
C1230 C1231 1.385 . S
C1231 H1217 0.931 . S
C1231 C1230 1.385 . S
C1231 C1232 1.389 . S
C1232 C1231 1.389 . S
C1232 C1233 1.387 . S
C1233 H1218 0.930 . S
C1233 C1228 1.390 1_565 S
C1233 C1232 1.387 . S
H1234 C1246 0.930 . S
H1235 C1248 0.930 . S
H1236 C1249 0.930 . S
H1237 C1253 0.959 . S
H1238 C1253 0.959 1_556 S
H1239 C1253 0.961 . S
H1240 C1254 0.960 . S
H1241 C1254 0.961 . S
H1242 C1254 0.959 . S
H1243 C1257 0.929 . S
H1244 C1258 0.931 . S
H1245 C1260 0.918 1_556 S
C1246 H1234 0.930 . S
C1246 C1247 1.399 . S
C1246 C1251 1.399 . S
C1247 C1246 1.399 . S
C1247 C1248 1.376 . S
C1248 H1235 0.930 . S
C1248 C1247 1.376 . S
C1248 C1249 1.388 . S
C1249 H1236 0.930 . S
C1249 C1248 1.388 . S
C1249 C1250 1.390 . S
C1250 C1249 1.390 . S
C1250 C1251 1.394 . S
C1250 C1256 1.465 . S
C1251 C1246 1.399 . S
C1251 C1250 1.394 . S
C1251 C1252 1.516 . S
C1252 C1251 1.516 . S
C1252 C1253 1.502 . S
C1252 C1254 1.561 . S
C1252 C1255 1.526 . S
C1253 H1237 0.959 . S
C1253 H1238 0.959 1_554 S
C1253 H1239 0.961 . S
C1253 C1252 1.502 . S
C1254 H1240 0.960 . S
C1254 H1241 0.961 . S
C1254 H1242 0.959 . S
C1254 C1252 1.561 . S
C1255 C1252 1.526 . S
C1255 C1256 1.396 . S
C1255 C1260 1.390 . S
C1256 C1250 1.465 . S
C1256 C1255 1.396 . S
C1256 C1257 1.399 . S
C1257 H1243 0.929 . S
C1257 C1256 1.399 . S
C1257 C1258 1.385 . S
C1258 H1244 0.931 . S
C1258 C1257 1.385 . S
C1258 C1259 1.389 . S
C1259 C1258 1.389 . S
C1259 C1260 1.387 . S
C1260 H1245 0.918 1_554 S
C1260 C1255 1.390 . S
C1260 C1259 1.387 . S
H1261 C1273 0.930 . S
H1262 C1275 0.930 . S
H1263 C1276 0.930 . S
H1264 C1280 0.959 . S
H1265 C1280 0.959 . S
H1266 C1280 0.961 . S
H1267 C1281 0.960 . S
H1268 C1281 0.961 . S
H1269 C1281 0.959 . S
H1270 C1284 0.929 . S
H1271 C1285 0.931 . S
H1272 C1287 0.930 . S
C1273 H1261 0.930 . S
C1273 C1274 1.399 . S
C1273 C1278 1.399 1_545 S
C1274 C1273 1.399 . S
C1274 C1275 1.376 . S
C1275 H1262 0.930 . S
C1275 C1274 1.376 . S
C1275 C1276 1.388 . S
C1276 H1263 0.930 . S
C1276 C1275 1.388 . S
C1276 C1277 1.390 1_545 S
C1277 C1276 1.390 1_565 S
C1277 C1278 1.394 . S
C1277 C1283 1.465 . S
C1278 C1273 1.399 1_565 S
C1278 C1277 1.394 . S
C1278 C1279 1.516 . S
C1279 C1278 1.516 . S
C1279 C1280 1.502 . S
C1279 C1281 1.561 . S
C1279 C1282 1.526 . S
C1280 H1264 0.959 . S
C1280 H1265 0.959 . S
C1280 H1266 0.961 . S
C1280 C1279 1.502 . S
C1281 H1267 0.960 . S
C1281 H1268 0.961 . S
C1281 H1269 0.959 . S
C1281 C1279 1.561 . S
C1282 C1279 1.526 . S
C1282 C1283 1.396 . S
C1282 C1287 1.390 . S
C1283 C1277 1.465 . S
C1283 C1282 1.396 . S
C1283 C1284 1.399 . S
C1284 H1270 0.929 . S
C1284 C1283 1.399 . S
C1284 C1285 1.385 . S
C1285 H1271 0.931 . S
C1285 C1284 1.385 . S
C1285 C1286 1.389 . S
C1286 C1285 1.389 . S
C1286 C1287 1.387 . S
C1287 H1272 0.930 . S
C1287 C1282 1.390 . S
C1287 C1286 1.387 . S
H1288 C1300 0.930 . S
H1289 C1302 0.930 . S
H1290 C1303 0.930 . S
H1291 C1307 0.959 . S
H1292 C1307 0.959 . S
H1293 C1307 0.961 . S
H1294 C1308 0.960 . S
H1295 C1308 0.961 . S
H1296 C1308 0.959 . S
H1297 C1311 0.929 . S
H1298 C1312 0.931 . S
H1299 C1314 0.930 . S
C1300 H1288 0.930 . S
C1300 C1301 1.399 . S
C1300 C1305 1.399 . S
C1301 C1300 1.399 . S
C1301 C1302 1.376 . S
C1302 H1289 0.930 . S
C1302 C1301 1.376 . S
C1302 C1303 1.388 . S
C1303 H1290 0.930 . S
C1303 C1302 1.388 . S
C1303 C1304 1.390 . S
C1304 C1303 1.390 . S
C1304 C1305 1.394 . S
C1304 C1310 1.465 . S
C1305 C1300 1.399 . S
C1305 C1304 1.394 . S
C1305 C1306 1.516 . S
C1306 C1305 1.516 . S
C1306 C1307 1.502 . S
C1306 C1308 1.561 . S
C1306 C1309 1.526 . S
C1307 H1291 0.959 . S
C1307 H1292 0.959 . S
C1307 H1293 0.961 . S
C1307 C1306 1.502 . S
C1308 H1294 0.960 . S
C1308 H1295 0.961 . S
C1308 H1296 0.959 . S
C1308 C1306 1.561 . S
C1309 C1306 1.526 . S
C1309 C1310 1.396 . S
C1309 C1314 1.390 . S
C1310 C1304 1.465 . S
C1310 C1309 1.396 . S
C1310 C1311 1.399 . S
C1311 H1297 0.929 . S
C1311 C1310 1.399 . S
C1311 C1312 1.385 . S
C1312 H1298 0.931 . S
C1312 C1311 1.385 . S
C1312 C1313 1.389 . S
C1313 C1312 1.389 . S
C1313 C1314 1.387 . S
C1314 H1299 0.930 . S
C1314 C1309 1.390 . S
C1314 C1313 1.387 . S
H1315 C1327 0.930 . S
H1316 C1329 0.930 . S
H1317 C1330 0.930 . S
H1318 C1334 0.959 . S
H1319 C1334 0.959 . S
H1320 C1334 0.961 . S
H1321 C1335 0.960 . S
H1322 C1335 0.961 . S
H1323 C1335 0.959 . S
H1324 C1338 0.929 . S
H1325 C1339 0.931 . S
H1326 C1341 0.930 . S
C1327 H1315 0.930 . S
C1327 C1328 1.399 . S
C1327 C1332 1.399 . S
C1328 C1327 1.399 . S
C1328 C1329 1.376 . S
C1329 H1316 0.930 . S
C1329 C1328 1.376 . S
C1329 C1330 1.388 . S
C1330 H1317 0.930 . S
C1330 C1329 1.388 . S
C1330 C1331 1.390 . S
C1331 C1330 1.390 . S
C1331 C1332 1.394 . S
C1331 C1337 1.465 . S
C1332 C1327 1.399 . S
C1332 C1331 1.394 . S
C1332 C1333 1.516 . S
C1333 C1332 1.516 . S
C1333 C1334 1.502 . S
C1333 C1335 1.561 . S
C1333 C1336 1.526 . S
C1334 H1318 0.959 . S
C1334 H1319 0.959 . S
C1334 H1320 0.961 . S
C1334 C1333 1.502 . S
C1335 H1321 0.960 . S
C1335 H1322 0.961 . S
C1335 H1323 0.959 . S
C1335 C1333 1.561 . S
C1336 C1333 1.526 . S
C1336 C1337 1.396 . S
C1336 C1341 1.390 . S
C1337 C1331 1.465 . S
C1337 C1336 1.396 . S
C1337 C1338 1.399 . S
C1338 H1324 0.929 . S
C1338 C1337 1.399 . S
C1338 C1339 1.385 1_554 S
C1339 H1325 0.931 . S
C1339 C1338 1.385 1_556 S
C1339 C1340 1.389 1_556 S
C1340 C1339 1.389 1_554 S
C1340 C1341 1.387 . S
C1341 H1326 0.930 . S
C1341 C1336 1.390 . S
C1341 C1340 1.387 . S
H1342 C1354 0.930 . S
H1343 C1356 0.930 . S
H1344 C1357 0.930 . S
H1345 C1361 0.946 1_455 S
H1346 C1361 0.948 1_455 S
H1347 C1361 0.967 . S
H1348 C1362 0.960 . S
H1349 C1362 0.961 . S
H1350 C1362 0.959 . S
H1351 C1365 0.929 . S
H1352 C1366 0.931 . S
H1353 C1368 0.930 1_455 S
C1354 H1342 0.930 . S
C1354 C1355 1.399 . S
C1354 C1359 1.399 . S
C1355 C1354 1.399 . S
C1355 C1356 1.376 . S
C1356 H1343 0.930 . S
C1356 C1355 1.376 . S
C1356 C1357 1.388 . S
C1357 H1344 0.930 . S
C1357 C1356 1.388 . S
C1357 C1358 1.390 . S
C1358 C1357 1.390 . S
C1358 C1359 1.394 . S
C1358 C1364 1.465 . S
C1359 C1354 1.399 . S
C1359 C1358 1.394 . S
C1359 C1360 1.516 . S
C1360 C1359 1.516 . S
C1360 C1361 1.521 . S
C1360 C1362 1.561 . S
C1360 C1363 1.526 . S
C1361 H1345 0.946 1_655 S
C1361 H1346 0.948 1_655 S
C1361 H1347 0.967 . S
C1361 C1360 1.521 . S
C1362 H1348 0.960 . S
C1362 H1349 0.961 . S
C1362 H1350 0.959 . S
C1362 C1360 1.561 . S
C1363 C1360 1.526 . S
C1363 C1364 1.396 . S
C1363 C1368 1.390 . S
C1364 C1358 1.465 . S
C1364 C1363 1.396 . S
C1364 C1365 1.399 . S
C1365 H1351 0.929 . S
C1365 C1364 1.399 . S
C1365 C1366 1.385 . S
C1366 H1352 0.931 . S
C1366 C1365 1.385 . S
C1366 C1367 1.395 . S
C1367 C1366 1.395 . S
C1367 C1368 1.388 . S
C1368 H1353 0.930 1_655 S
C1368 C1363 1.390 . S
C1368 C1367 1.388 . S
H1369 C1381 0.930 . S
H1370 C1383 0.930 . S
H1371 C1384 0.930 . S
H1372 C1388 0.959 . S
H1373 C1388 0.959 . S
H1374 C1388 0.961 . S
H1375 C1389 0.960 . S
H1376 C1389 0.961 . S
H1377 C1389 0.959 . S
H1378 C1392 0.929 . S
H1379 C1393 0.931 . S
H1380 C1395 0.930 . S
C1381 H1369 0.930 . S
C1381 C1382 1.399 . S
C1381 C1386 1.399 . S
C1382 C1381 1.399 . S
C1382 C1383 1.376 . S
C1383 H1370 0.930 . S
C1383 C1382 1.376 . S
C1383 C1384 1.388 . S
C1384 H1371 0.930 . S
C1384 C1383 1.388 . S
C1384 C1385 1.390 . S
C1385 C1384 1.390 . S
C1385 C1386 1.394 . S
C1385 C1391 1.465 . S
C1386 C1381 1.399 . S
C1386 C1385 1.394 . S
C1386 C1387 1.516 . S
C1387 C1386 1.516 . S
C1387 C1388 1.502 . S
C1387 C1389 1.561 . S
C1387 C1390 1.526 . S
C1388 H1372 0.959 . S
C1388 H1373 0.959 . S
C1388 H1374 0.961 . S
C1388 C1387 1.502 . S
C1389 H1375 0.960 . S
C1389 H1376 0.961 . S
C1389 H1377 0.959 . S
C1389 C1387 1.561 . S
C1390 C1387 1.526 . S
C1390 C1391 1.396 . S
C1390 C1395 1.390 . S
C1391 C1385 1.465 . S
C1391 C1390 1.396 . S
C1391 C1392 1.399 . S
C1392 H1378 0.929 . S
C1392 C1391 1.399 . S
C1392 C1393 1.385 . S
C1393 H1379 0.931 . S
C1393 C1392 1.385 . S
C1393 C1394 1.389 . S
C1394 C1393 1.389 . S
C1394 C1395 1.387 . S
C1395 H1380 0.930 . S
C1395 C1390 1.390 . S
C1395 C1394 1.387 . S
H1396 C1408 0.930 . S
H1397 C1410 0.930 . S
H1398 C1411 0.930 . S
H1399 C1415 0.959 . S
H1400 C1415 0.959 . S
H1401 C1415 0.961 . S
H1402 C1416 0.960 . S
H1403 C1416 0.961 . S
H1404 C1416 0.959 . S
H1405 C1419 0.929 . S
H1406 C1420 0.931 . S
H1407 C1422 0.930 . S
C1408 H1396 0.930 . S
C1408 C1409 1.399 . S
C1408 C1413 1.399 . S
C1409 C1408 1.399 . S
C1409 C1410 1.376 . S
C1410 H1397 0.930 . S
C1410 C1409 1.376 . S
C1410 C1411 1.388 . S
C1411 H1398 0.930 . S
C1411 C1410 1.388 . S
C1411 C1412 1.390 . S
C1412 C1411 1.390 . S
C1412 C1413 1.394 . S
C1412 C1418 1.465 . S
C1413 C1408 1.399 . S
C1413 C1412 1.394 . S
C1413 C1414 1.516 . S
C1414 C1413 1.516 . S
C1414 C1415 1.502 . S
C1414 C1416 1.561 . S
C1414 C1417 1.526 . S
C1415 H1399 0.959 . S
C1415 H1400 0.959 . S
C1415 H1401 0.961 . S
C1415 C1414 1.502 . S
C1416 H1402 0.960 . S
C1416 H1403 0.961 . S
C1416 H1404 0.959 . S
C1416 C1414 1.561 . S
C1417 C1414 1.526 . S
C1417 C1418 1.396 . S
C1417 C1422 1.390 . S
C1418 C1412 1.465 . S
C1418 C1417 1.396 . S
C1418 C1419 1.399 . S
C1419 H1405 0.929 . S
C1419 C1418 1.399 . S
C1419 C1420 1.385 . S
C1420 H1406 0.931 . S
C1420 C1419 1.385 . S
C1420 C1421 1.389 . S
C1421 C1420 1.389 . S
C1421 C1422 1.387 . S
C1422 H1407 0.930 . S
C1422 C1417 1.390 . S
C1422 C1421 1.387 . S
H1423 C1435 0.930 . S
H1424 C1437 0.930 . S
H1425 C1438 0.930 . S
H1426 C1442 0.959 . S
H1427 C1442 0.959 . S
H1428 C1442 0.961 . S
H1429 C1443 0.960 . S
H1430 C1443 0.961 . S
H1431 C1443 0.959 . S
H1432 C1446 0.929 . S
H1433 C1447 0.931 . S
H1434 C1449 0.930 1_554 S
C1435 H1423 0.930 . S
C1435 C1436 1.399 . S
C1435 C1440 1.399 . S
C1436 C1435 1.399 . S
C1436 C1437 1.376 . S
C1437 H1424 0.930 . S
C1437 C1436 1.376 . S
C1437 C1438 1.388 . S
C1438 H1425 0.930 . S
C1438 C1437 1.388 . S
C1438 C1439 1.390 . S
C1439 C1438 1.390 . S
C1439 C1440 1.394 . S
C1439 C1445 1.465 . S
C1440 C1435 1.399 . S
C1440 C1439 1.394 . S
C1440 C1441 1.516 . S
C1441 C1440 1.516 . S
C1441 C1442 1.502 . S
C1441 C1443 1.561 . S
C1441 C1444 1.526 . S
C1442 H1426 0.959 . S
C1442 H1427 0.959 . S
C1442 H1428 0.961 . S
C1442 C1441 1.502 . S
C1443 H1429 0.960 . S
C1443 H1430 0.961 . S
C1443 H1431 0.959 . S
C1443 C1441 1.561 . S
C1444 C1441 1.526 . S
C1444 C1445 1.396 . S
C1444 C1449 1.390 . S
C1445 C1439 1.465 . S
C1445 C1444 1.396 . S
C1445 C1446 1.399 . S
C1446 H1432 0.929 . S
C1446 C1445 1.399 . S
C1446 C1447 1.385 . S
C1447 H1433 0.931 . S
C1447 C1446 1.385 . S
C1447 C1448 1.389 . S
C1448 C1447 1.389 . S
C1448 C1449 1.387 . S
C1449 H1434 0.930 1_556 S
C1449 C1444 1.390 . S
C1449 C1448 1.387 . S
H1450 C1462 0.930 . S
H1451 C1464 0.930 . S
H1452 C1465 0.930 . S
H1453 C1469 0.959 . S
H1454 C1469 0.959 . S
H1455 C1469 0.961 . S
H1456 C1470 0.960 . S
H1457 C1470 0.961 . S
H1458 C1470 0.959 . S
H1459 C1473 0.929 . S
H1460 C1474 0.931 . S
H1461 C1476 0.930 . S
C1462 H1450 0.930 . S
C1462 C1463 1.399 . S
C1462 C1467 1.399 . S
C1463 C1462 1.399 . S
C1463 C1464 1.376 . S
C1464 H1451 0.930 . S
C1464 C1463 1.376 . S
C1464 C1465 1.388 . S
C1465 H1452 0.930 . S
C1465 C1464 1.388 . S
C1465 C1466 1.390 . S
C1466 C1465 1.390 . S
C1466 C1467 1.394 . S
C1466 C1472 1.465 . S
C1467 C1462 1.399 . S
C1467 C1466 1.394 . S
C1467 C1468 1.516 . S
C1468 C1467 1.516 . S
C1468 C1469 1.502 . S
C1468 C1470 1.561 . S
C1468 C1471 1.526 . S
C1469 H1453 0.959 . S
C1469 H1454 0.959 . S
C1469 H1455 0.961 . S
C1469 C1468 1.502 . S
C1470 H1456 0.960 . S
C1470 H1457 0.961 . S
C1470 H1458 0.959 . S
C1470 C1468 1.561 . S
C1471 C1468 1.526 . S
C1471 C1472 1.396 . S
C1471 C1476 1.390 . S
C1472 C1466 1.465 . S
C1472 C1471 1.396 . S
C1472 C1473 1.399 . S
C1473 H1459 0.929 . S
C1473 C1472 1.399 . S
C1473 C1474 1.385 1_455 S
C1474 H1460 0.931 . S
C1474 C1473 1.385 1_655 S
C1474 C1475 1.389 . S
C1475 C1474 1.389 . S
C1475 C1476 1.387 1_655 S
C1476 H1461 0.930 . S
C1476 C1471 1.390 . S
C1476 C1475 1.387 1_455 S
H1477 C1489 0.930 . S
H1478 C1491 0.930 . S
H1479 C1492 0.930 . S
H1480 C1496 0.959 . S
H1481 C1496 0.959 . S
H1482 C1496 0.961 . S
H1483 C1497 0.960 . S
H1484 C1497 0.961 . S
H1485 C1497 0.959 . S
H1486 C1500 0.929 . S
H1487 C1501 0.931 . S
H1488 C1503 0.930 . S
C1489 H1477 0.930 . S
C1489 C1490 1.399 . S
C1489 C1494 1.399 . S
C1490 C1489 1.399 . S
C1490 C1491 1.376 . S
C1491 H1478 0.930 . S
C1491 C1490 1.376 . S
C1491 C1492 1.388 . S
C1492 H1479 0.930 . S
C1492 C1491 1.388 . S
C1492 C1493 1.390 . S
C1493 C1492 1.390 . S
C1493 C1494 1.394 . S
C1493 C1499 1.465 . S
C1494 C1489 1.399 . S
C1494 C1493 1.394 . S
C1494 C1495 1.516 . S
C1495 C1494 1.516 . S
C1495 C1496 1.502 . S
C1495 C1497 1.561 . S
C1495 C1498 1.526 . S
C1496 H1480 0.959 . S
C1496 H1481 0.959 . S
C1496 H1482 0.961 . S
C1496 C1495 1.502 . S
C1497 H1483 0.960 . S
C1497 H1484 0.961 . S
C1497 H1485 0.959 . S
C1497 C1495 1.561 . S
C1498 C1495 1.526 . S
C1498 C1499 1.396 . S
C1498 C1503 1.390 . S
C1499 C1493 1.465 . S
C1499 C1498 1.396 . S
C1499 C1500 1.399 . S
C1500 H1486 0.929 . S
C1500 C1499 1.399 . S
C1500 C1501 1.385 . S
C1501 H1487 0.931 . S
C1501 C1500 1.385 . S
C1501 C1502 1.389 . S
C1502 C1501 1.389 . S
C1502 C1503 1.387 . S
C1503 H1488 0.930 . S
C1503 C1498 1.390 . S
C1503 C1502 1.387 . S
H1504 C1516 0.930 . S
H1505 C1518 0.939 . S
H1506 C1519 0.930 . S
H1507 C1523 0.959 . S
H1508 C1523 0.959 . S
H1509 C1523 0.961 . S
H1510 C1524 0.943 1_655 S
H1511 C1524 0.961 . S
H1512 C1524 0.959 1_655 S
H1513 C1527 0.929 . S
H1514 C1528 0.931 . S
H1515 C1530 0.930 . S
C1516 H1504 0.930 . S
C1516 C1517 1.399 1_455 S
C1516 C1521 1.399 . S
C1517 C1516 1.399 1_655 S
C1517 C1518 1.378 . S
C1518 H1505 0.939 . S
C1518 C1517 1.378 . S
C1518 C1519 1.379 1_655 S
C1519 H1506 0.930 . S
C1519 C1518 1.379 1_455 S
C1519 C1520 1.390 . S
C1520 C1519 1.390 . S
C1520 C1521 1.394 . S
C1520 C1526 1.465 . S
C1521 C1516 1.399 . S
C1521 C1520 1.394 . S
C1521 C1522 1.516 . S
C1522 C1521 1.516 . S
C1522 C1523 1.502 . S
C1522 C1524 1.561 . S
C1522 C1525 1.526 . S
C1523 H1507 0.959 . S
C1523 H1508 0.959 . S
C1523 H1509 0.961 . S
C1523 C1522 1.502 . S
C1524 H1510 0.943 1_455 S
C1524 H1511 0.961 . S
C1524 H1512 0.959 1_455 S
C1524 C1522 1.561 . S
C1525 C1522 1.526 . S
C1525 C1526 1.396 . S
C1525 C1530 1.390 . S
C1526 C1520 1.465 . S
C1526 C1525 1.396 . S
C1526 C1527 1.399 . S
C1527 H1513 0.929 . S
C1527 C1526 1.399 . S
C1527 C1528 1.385 . S
C1528 H1514 0.931 . S
C1528 C1527 1.385 . S
C1528 C1529 1.389 . S
C1529 C1528 1.389 . S
C1529 C1530 1.387 . S
C1530 H1515 0.930 . S
C1530 C1525 1.390 . S
C1530 C1529 1.387 . S
H1531 C1543 0.930 . S
H1532 C1545 0.930 . S
H1533 C1546 0.930 . S
H1534 C1550 0.959 . S
H1535 C1550 0.959 . S
H1536 C1550 0.961 . S
H1537 C1551 0.960 . S
H1538 C1551 0.961 . S
H1539 C1551 0.959 . S
H1540 C1554 0.929 . S
H1541 C1555 0.931 . S
H1542 C1557 0.930 . S
C1543 H1531 0.930 . S
C1543 C1544 1.399 . S
C1543 C1548 1.399 . S
C1544 C1543 1.399 . S
C1544 C1545 1.376 . S
C1545 H1532 0.930 . S
C1545 C1544 1.376 . S
C1545 C1546 1.388 . S
C1546 H1533 0.930 . S
C1546 C1545 1.388 . S
C1546 C1547 1.390 . S
C1547 C1546 1.390 . S
C1547 C1548 1.394 . S
C1547 C1553 1.465 . S
C1548 C1543 1.399 . S
C1548 C1547 1.394 . S
C1548 C1549 1.516 . S
C1549 C1548 1.516 . S
C1549 C1550 1.502 . S
C1549 C1551 1.561 . S
C1549 C1552 1.526 . S
C1550 H1534 0.959 . S
C1550 H1535 0.959 . S
C1550 H1536 0.961 . S
C1550 C1549 1.502 . S
C1551 H1537 0.960 . S
C1551 H1538 0.961 . S
C1551 H1539 0.959 . S
C1551 C1549 1.561 . S
C1552 C1549 1.526 . S
C1552 C1553 1.396 . S
C1552 C1557 1.390 . S
C1553 C1547 1.465 . S
C1553 C1552 1.396 . S
C1553 C1554 1.399 . S
C1554 H1540 0.929 . S
C1554 C1553 1.399 . S
C1554 C1555 1.385 . S
C1555 H1541 0.931 . S
C1555 C1554 1.385 . S
C1555 C1556 1.389 . S
C1556 C1555 1.389 . S
C1556 C1557 1.387 . S
C1557 H1542 0.930 . S
C1557 C1552 1.390 . S
C1557 C1556 1.387 . S
H1558 C1570 0.930 . S
H1559 C1572 0.930 . S
H1560 C1573 0.930 . S
H1561 C1577 0.959 . S
H1562 C1577 0.959 . S
H1563 C1577 0.961 . S
H1564 C1578 0.960 . S
H1565 C1578 0.961 . S
H1566 C1578 0.959 . S
H1567 C1581 0.929 . S
H1568 C1582 0.931 . S
H1569 C1584 0.930 . S
C1570 H1558 0.930 . S
C1570 C1571 1.399 . S
C1570 C1575 1.399 . S
C1571 C1570 1.399 . S
C1571 C1572 1.376 . S
C1572 H1559 0.930 . S
C1572 C1571 1.376 . S
C1572 C1573 1.388 . S
C1573 H1560 0.930 . S
C1573 C1572 1.388 . S
C1573 C1574 1.390 . S
C1574 C1573 1.390 . S
C1574 C1575 1.394 . S
C1574 C1580 1.465 . S
C1575 C1570 1.399 . S
C1575 C1574 1.394 . S
C1575 C1576 1.516 . S
C1576 C1575 1.516 . S
C1576 C1577 1.502 . S
C1576 C1578 1.561 . S
C1576 C1579 1.526 . S
C1577 H1561 0.959 . S
C1577 H1562 0.959 . S
C1577 H1563 0.961 . S
C1577 C1576 1.502 . S
C1578 H1564 0.960 . S
C1578 H1565 0.961 . S
C1578 H1566 0.959 . S
C1578 C1576 1.561 . S
C1579 C1576 1.526 . S
C1579 C1580 1.396 . S
C1579 C1584 1.390 . S
C1580 C1574 1.465 . S
C1580 C1579 1.396 . S
C1580 C1581 1.399 . S
C1581 H1567 0.929 . S
C1581 C1580 1.399 . S
C1581 C1582 1.385 . S
C1582 H1568 0.931 . S
C1582 C1581 1.385 . S
C1582 C1583 1.389 . S
C1583 C1582 1.389 . S
C1583 C1584 1.387 . S
C1584 H1569 0.930 . S
C1584 C1579 1.390 . S
C1584 C1583 1.387 . S
H1585 C1597 0.938 . S
H1586 C1599 0.930 . S
H1587 C1600 0.930 . S
H1588 C1604 0.959 . S
H1589 C1604 0.959 . S
H1590 C1604 0.961 . S
H1591 C1605 0.960 . S
H1592 C1605 0.961 . S
H1593 C1605 0.959 . S
H1594 C1608 0.929 . S
H1595 C1609 0.931 . S
H1596 C1611 0.930 . S
C1597 H1585 0.938 . S
C1597 C1598 1.399 . S
C1597 C1602 1.399 . S
C1598 C1597 1.399 . S
C1598 C1599 1.376 . S
C1599 H1586 0.930 . S
C1599 C1598 1.376 . S
C1599 C1600 1.388 . S
C1600 H1587 0.930 . S
C1600 C1599 1.388 . S
C1600 C1601 1.390 . S
C1601 C1600 1.390 . S
C1601 C1602 1.394 . S
C1601 C1607 1.465 . S
C1602 C1597 1.399 . S
C1602 C1601 1.394 . S
C1602 C1603 1.516 . S
C1603 C1602 1.516 . S
C1603 C1604 1.502 . S
C1603 C1605 1.561 . S
C1603 C1606 1.526 . S
C1604 H1588 0.959 . S
C1604 H1589 0.959 . S
C1604 H1590 0.961 . S
C1604 C1603 1.502 . S
C1605 H1591 0.960 . S
C1605 H1592 0.961 . S
C1605 H1593 0.959 . S
C1605 C1603 1.561 . S
C1606 C1603 1.526 . S
C1606 C1607 1.396 . S
C1606 C1611 1.390 . S
C1607 C1601 1.465 . S
C1607 C1606 1.396 . S
C1607 C1608 1.399 . S
C1608 H1594 0.929 . S
C1608 C1607 1.399 . S
C1608 C1609 1.385 . S
C1609 H1595 0.931 . S
C1609 C1608 1.385 . S
C1609 C1610 1.389 . S
C1610 C1609 1.389 . S
C1610 C1611 1.387 . S
C1611 H1596 0.930 . S
C1611 C1606 1.390 . S
C1611 C1610 1.387 . S
H1612 C1624 0.930 . S
H1613 C1626 0.930 . S
H1614 C1627 0.930 . S
H1615 C1631 0.959 . S
H1616 C1631 0.959 . S
H1617 C1631 0.961 . S
H1618 C1632 0.960 . S
H1619 C1632 0.961 . S
H1620 C1632 0.959 . S
H1621 C1635 0.929 . S
H1622 C1636 0.931 . S
H1623 C1638 0.930 . S
C1624 H1612 0.930 . S
C1624 C1625 1.399 1_655 S
C1624 C1629 1.399 . S
C1625 C1624 1.399 1_455 S
C1625 C1626 1.376 . S
C1626 H1613 0.930 . S
C1626 C1625 1.376 . S
C1626 C1627 1.388 . S
C1627 H1614 0.930 . S
C1627 C1626 1.388 . S
C1627 C1628 1.390 1_455 S
C1628 C1627 1.390 1_655 S
C1628 C1629 1.394 . S
C1628 C1634 1.465 . S
C1629 C1624 1.399 . S
C1629 C1628 1.394 . S
C1629 C1630 1.516 . S
C1630 C1629 1.516 . S
C1630 C1631 1.502 . S
C1630 C1632 1.561 . S
C1630 C1633 1.526 . S
C1631 H1615 0.959 . S
C1631 H1616 0.959 . S
C1631 H1617 0.961 . S
C1631 C1630 1.502 . S
C1632 H1618 0.960 . S
C1632 H1619 0.961 . S
C1632 H1620 0.959 . S
C1632 C1630 1.561 . S
C1633 C1630 1.526 . S
C1633 C1634 1.396 . S
C1633 C1638 1.390 . S
C1634 C1628 1.465 . S
C1634 C1633 1.396 . S
C1634 C1635 1.399 . S
C1635 H1621 0.929 . S
C1635 C1634 1.399 . S
C1635 C1636 1.385 . S
C1636 H1622 0.931 . S
C1636 C1635 1.385 . S
C1636 C1637 1.389 . S
C1637 C1636 1.389 . S
C1637 C1638 1.387 . S
C1638 H1623 0.930 . S
C1638 C1633 1.390 . S
C1638 C1637 1.387 . S
H1639 C1651 0.930 . S
H1640 C1653 0.930 . S
H1641 C1654 0.930 . S
H1642 C1658 0.959 . S
H1643 C1658 0.959 . S
H1644 C1658 0.961 . S
H1645 C1659 0.960 . S
H1646 C1659 0.961 . S
H1647 C1659 0.959 . S
H1648 C1662 0.929 . S
H1649 C1663 0.931 . S
H1650 C1665 0.930 . S
C1651 H1639 0.930 . S
C1651 C1652 1.399 . S
C1651 C1656 1.399 . S
C1652 C1651 1.399 . S
C1652 C1653 1.376 . S
C1653 H1640 0.930 . S
C1653 C1652 1.376 . S
C1653 C1654 1.388 . S
C1654 H1641 0.930 . S
C1654 C1653 1.388 . S
C1654 C1655 1.390 . S
C1655 C1654 1.390 . S
C1655 C1656 1.394 . S
C1655 C1661 1.465 . S
C1656 C1651 1.399 . S
C1656 C1655 1.394 . S
C1656 C1657 1.516 . S
C1657 C1656 1.516 . S
C1657 C1658 1.502 . S
C1657 C1659 1.561 . S
C1657 C1660 1.526 . S
C1658 H1642 0.959 . S
C1658 H1643 0.959 . S
C1658 H1644 0.961 . S
C1658 C1657 1.502 . S
C1659 H1645 0.960 . S
C1659 H1646 0.961 . S
C1659 H1647 0.959 . S
C1659 C1657 1.561 . S
C1660 C1657 1.526 . S
C1660 C1661 1.396 . S
C1660 C1665 1.390 . S
C1661 C1655 1.465 . S
C1661 C1660 1.396 . S
C1661 C1662 1.399 . S
C1662 H1648 0.929 . S
C1662 C1661 1.399 . S
C1662 C1663 1.385 . S
C1663 H1649 0.931 . S
C1663 C1662 1.385 . S
C1663 C1664 1.389 . S
C1664 C1663 1.389 . S
C1664 C1665 1.387 . S
C1665 H1650 0.930 . S
C1665 C1660 1.390 . S
C1665 C1664 1.387 . S
H1666 C1678 0.930 . S
H1667 C1680 0.930 . S
H1668 C1681 0.930 . S
H1669 C1685 0.959 . S
H1670 C1685 0.959 . S
H1671 C1685 0.961 . S
H1672 C1686 0.960 . S
H1673 C1686 0.961 . S
H1674 C1686 0.959 . S
H1675 C1689 0.929 . S
H1676 C1690 0.931 . S
H1677 C1692 0.930 . S
C1678 H1666 0.930 . S
C1678 C1679 1.399 . S
C1678 C1683 1.399 . S
C1679 C1678 1.399 . S
C1679 C1680 1.376 . S
C1680 H1667 0.930 . S
C1680 C1679 1.376 . S
C1680 C1681 1.388 . S
C1681 H1668 0.930 . S
C1681 C1680 1.388 . S
C1681 C1682 1.390 . S
C1682 C1681 1.390 . S
C1682 C1683 1.394 . S
C1682 C1688 1.465 . S
C1683 C1678 1.399 . S
C1683 C1682 1.394 . S
C1683 C1684 1.516 . S
C1684 C1683 1.516 . S
C1684 C1685 1.502 . S
C1684 C1686 1.561 . S
C1684 C1687 1.526 . S
C1685 H1669 0.959 . S
C1685 H1670 0.959 . S
C1685 H1671 0.961 . S
C1685 C1684 1.502 . S
C1686 H1672 0.960 . S
C1686 H1673 0.961 . S
C1686 H1674 0.959 . S
C1686 C1684 1.561 . S
C1687 C1684 1.526 . S
C1687 C1688 1.396 . S
C1687 C1692 1.390 . S
C1688 C1682 1.465 . S
C1688 C1687 1.396 . S
C1688 C1689 1.399 . S
C1689 H1675 0.929 . S
C1689 C1688 1.399 . S
C1689 C1690 1.385 . S
C1690 H1676 0.931 . S
C1690 C1689 1.385 . S
C1690 C1691 1.389 . S
C1691 C1690 1.389 . S
C1691 C1692 1.387 . S
C1692 H1677 0.930 . S
C1692 C1687 1.390 . S
C1692 C1691 1.387 . S
H1693 C1705 0.930 . S
H1694 C1707 0.930 . S
H1695 C1708 0.930 . S
H1696 C1712 0.959 . S
H1697 C1712 0.959 . S
H1698 C1712 0.961 . S
H1699 C1713 0.960 . S
H1700 C1713 0.961 . S
H1701 C1713 0.959 . S
H1702 C1716 0.929 . S
H1703 C1717 0.931 . S
H1704 C1719 0.930 . S
C1705 H1693 0.930 . S
C1705 C1706 1.399 . S
C1705 C1710 1.399 . S
C1706 C1705 1.399 . S
C1706 C1707 1.376 1_556 S
C1707 H1694 0.930 . S
C1707 C1706 1.376 1_554 S
C1707 C1708 1.388 1_554 S
C1708 H1695 0.930 . S
C1708 C1707 1.388 1_556 S
C1708 C1709 1.390 . S
C1709 C1708 1.390 . S
C1709 C1710 1.394 . S
C1709 C1715 1.465 . S
C1710 C1705 1.399 . S
C1710 C1709 1.394 . S
C1710 C1711 1.516 . S
C1711 C1710 1.516 . S
C1711 C1712 1.502 . S
C1711 C1713 1.561 . S
C1711 C1714 1.526 . S
C1712 H1696 0.959 . S
C1712 H1697 0.959 . S
C1712 H1698 0.961 . S
C1712 C1711 1.502 . S
C1713 H1699 0.960 . S
C1713 H1700 0.961 . S
C1713 H1701 0.959 . S
C1713 C1711 1.561 . S
C1714 C1711 1.526 . S
C1714 C1715 1.396 . S
C1714 C1719 1.390 . S
C1715 C1709 1.465 . S
C1715 C1714 1.396 . S
C1715 C1716 1.399 . S
C1716 H1702 0.929 . S
C1716 C1715 1.399 . S
C1716 C1717 1.385 . S
C1717 H1703 0.931 . S
C1717 C1716 1.385 . S
C1717 C1718 1.389 . S
C1718 C1717 1.389 . S
C1718 C1719 1.387 . S
C1719 H1704 0.930 . S
C1719 C1714 1.390 . S
C1719 C1718 1.387 . S
H1720 C1732 0.930 . S
H1721 C1734 0.930 . S
H1722 C1735 0.930 . S
H1723 C1739 0.959 . S
H1724 C1739 0.959 . S
H1725 C1739 0.961 . S
H1726 C1740 0.960 . S
H1727 C1740 0.961 . S
H1728 C1740 0.959 . S
H1729 C1743 0.929 . S
H1730 C1744 0.931 . S
H1731 C1746 0.930 . S
C1732 H1720 0.930 . S
C1732 C1733 1.399 . S
C1732 C1737 1.399 . S
C1733 C1732 1.399 . S
C1733 C1734 1.376 . S
C1734 H1721 0.930 . S
C1734 C1733 1.376 . S
C1734 C1735 1.388 . S
C1735 H1722 0.930 . S
C1735 C1734 1.388 . S
C1735 C1736 1.390 . S
C1736 C1735 1.390 . S
C1736 C1737 1.394 . S
C1736 C1742 1.465 . S
C1737 C1732 1.399 . S
C1737 C1736 1.394 . S
C1737 C1738 1.516 . S
C1738 C1737 1.516 . S
C1738 C1739 1.502 . S
C1738 C1740 1.561 . S
C1738 C1741 1.526 . S
C1739 H1723 0.959 . S
C1739 H1724 0.959 . S
C1739 H1725 0.961 . S
C1739 C1738 1.502 . S
C1740 H1726 0.960 . S
C1740 H1727 0.961 . S
C1740 H1728 0.959 . S
C1740 C1738 1.561 . S
C1741 C1738 1.526 . S
C1741 C1742 1.396 . S
C1741 C1746 1.390 . S
C1742 C1736 1.465 . S
C1742 C1741 1.396 . S
C1742 C1743 1.399 . S
C1743 H1729 0.929 . S
C1743 C1742 1.399 . S
C1743 C1744 1.385 . S
C1744 H1730 0.931 . S
C1744 C1743 1.385 . S
C1744 C1745 1.389 . S
C1745 C1744 1.389 . S
C1745 C1746 1.387 . S
C1746 H1731 0.930 . S
C1746 C1741 1.390 . S
C1746 C1745 1.387 . S
H1747 C1759 0.930 . S
H1748 C1761 0.930 . S
H1749 C1762 0.930 . S
H1750 C1766 0.959 . S
H1751 C1766 0.959 . S
H1752 C1766 0.961 . S
H1753 C1767 0.960 . S
H1754 C1767 0.961 . S
H1755 C1767 0.959 . S
H1756 C1770 0.929 . S
H1757 C1771 0.931 . S
H1758 C1773 0.930 . S
C1759 H1747 0.930 . S
C1759 C1760 1.399 . S
C1759 C1764 1.399 . S
C1760 C1759 1.399 . S
C1760 C1761 1.376 . S
C1761 H1748 0.930 . S
C1761 C1760 1.376 . S
C1761 C1762 1.388 . S
C1762 H1749 0.930 . S
C1762 C1761 1.388 . S
C1762 C1763 1.390 . S
C1763 C1762 1.390 . S
C1763 C1764 1.394 . S
C1763 C1769 1.465 . S
C1764 C1759 1.399 . S
C1764 C1763 1.394 . S
C1764 C1765 1.516 . S
C1765 C1764 1.516 . S
C1765 C1766 1.502 . S
C1765 C1767 1.561 . S
C1765 C1768 1.526 . S
C1766 H1750 0.959 . S
C1766 H1751 0.959 . S
C1766 H1752 0.961 . S
C1766 C1765 1.502 . S
C1767 H1753 0.960 . S
C1767 H1754 0.961 . S
C1767 H1755 0.959 . S
C1767 C1765 1.561 . S
C1768 C1765 1.526 . S
C1768 C1769 1.396 . S
C1768 C1773 1.390 . S
C1769 C1763 1.465 . S
C1769 C1768 1.396 . S
C1769 C1770 1.399 . S
C1770 H1756 0.929 . S
C1770 C1769 1.399 . S
C1770 C1771 1.385 . S
C1771 H1757 0.931 . S
C1771 C1770 1.385 . S
C1771 C1772 1.389 . S
C1772 C1771 1.389 . S
C1772 C1773 1.387 . S
C1773 H1758 0.930 . S
C1773 C1768 1.390 . S
C1773 C1772 1.387 . S
H1774 C1786 0.930 . S
H1775 C1788 0.930 . S
H1776 C1789 0.930 . S
H1777 C1793 0.959 . S
H1778 C1793 0.959 . S
H1779 C1793 0.961 . S
H1780 C1794 0.960 . S
H1781 C1794 0.961 . S
H1782 C1794 0.959 . S
H1783 C1797 0.929 . S
H1784 C1798 0.931 . S
H1785 C1800 0.930 . S
C1786 H1774 0.930 . S
C1786 C1787 1.399 . S
C1786 C1791 1.399 . S
C1787 C1786 1.399 . S
C1787 C1788 1.376 . S
C1788 H1775 0.930 . S
C1788 C1787 1.376 . S
C1788 C1789 1.388 . S
C1789 H1776 0.930 . S
C1789 C1788 1.388 . S
C1789 C1790 1.390 . S
C1790 C1789 1.390 . S
C1790 C1791 1.394 . S
C1790 C1796 1.465 . S
C1791 C1786 1.399 . S
C1791 C1790 1.394 . S
C1791 C1792 1.516 . S
C1792 C1791 1.516 . S
C1792 C1793 1.502 . S
C1792 C1794 1.561 . S
C1792 C1795 1.526 . S
C1793 H1777 0.959 . S
C1793 H1778 0.959 . S
C1793 H1779 0.961 . S
C1793 C1792 1.502 . S
C1794 H1780 0.960 . S
C1794 H1781 0.961 . S
C1794 H1782 0.959 . S
C1794 C1792 1.561 . S
C1795 C1792 1.526 . S
C1795 C1796 1.396 . S
C1795 C1800 1.390 . S
C1796 C1790 1.465 . S
C1796 C1795 1.396 . S
C1796 C1797 1.399 . S
C1797 H1783 0.929 . S
C1797 C1796 1.399 . S
C1797 C1798 1.385 . S
C1798 H1784 0.931 . S
C1798 C1797 1.385 . S
C1798 C1799 1.389 . S
C1799 C1798 1.389 . S
C1799 C1800 1.387 . S
C1800 H1785 0.930 . S
C1800 C1795 1.390 . S
C1800 C1799 1.387 . S
H1801 C1813 0.930 . S
H1802 C1815 0.930 . S
H1803 C1816 0.930 . S
H1804 C1820 0.959 . S
H1805 C1820 0.959 . S
H1806 C1820 0.961 . S
H1807 C1821 0.960 . S
H1808 C1821 0.964 1_655 S
H1809 C1821 0.959 . S
H1810 C1824 0.929 . S
H1811 C1825 0.931 . S
H1812 C1827 0.930 . S
C1813 H1801 0.930 . S
C1813 C1814 1.399 . S
C1813 C1818 1.399 . S
C1814 C1813 1.399 . S
C1814 C1815 1.376 . S
C1815 H1802 0.930 . S
C1815 C1814 1.376 . S
C1815 C1816 1.388 . S
C1816 H1803 0.930 . S
C1816 C1815 1.388 . S
C1816 C1817 1.390 . S
C1817 C1816 1.390 . S
C1817 C1818 1.394 . S
C1817 C1823 1.465 1_454 S
C1818 C1813 1.399 . S
C1818 C1817 1.394 . S
C1818 C1819 1.531 1_455 S
C1819 C1818 1.531 1_655 S
C1819 C1820 1.518 . S
C1819 C1821 1.545 1_654 S
C1819 C1822 1.510 1_554 S
C1820 H1804 0.959 . S
C1820 H1805 0.959 . S
C1820 H1806 0.961 . S
C1820 C1819 1.518 . S
C1821 H1807 0.960 . S
C1821 H1808 0.964 1_455 S
C1821 H1809 0.959 . S
C1821 C1819 1.545 1_456 S
C1822 C1819 1.510 1_556 S
C1822 C1823 1.396 . S
C1822 C1827 1.390 . S
C1823 C1817 1.465 1_656 S
C1823 C1822 1.396 . S
C1823 C1824 1.399 . S
C1824 H1810 0.929 . S
C1824 C1823 1.399 . S
C1824 C1825 1.385 . S
C1825 H1811 0.931 . S
C1825 C1824 1.385 . S
C1825 C1826 1.389 . S
C1826 C1825 1.389 . S
C1826 C1827 1.387 . S
C1827 H1812 0.930 . S
C1827 C1822 1.390 . S
C1827 C1826 1.387 . S
H1828 C1840 0.930 . S
H1829 C1842 0.930 . S
H1830 C1843 0.930 . S
H1831 C1847 0.959 . S
H1832 C1847 0.959 . S
H1833 C1847 0.961 . S
H1834 C1848 0.960 . S
H1835 C1848 0.961 . S
H1836 C1848 0.959 . S
H1837 C1851 0.929 . S
H1838 C1852 0.931 . S
H1839 C1854 0.930 . S
C1840 H1828 0.930 . S
C1840 C1841 1.399 . S
C1840 C1845 1.399 . S
C1841 C1840 1.399 . S
C1841 C1842 1.376 . S
C1842 H1829 0.930 . S
C1842 C1841 1.376 . S
C1842 C1843 1.388 . S
C1843 H1830 0.930 . S
C1843 C1842 1.388 . S
C1843 C1844 1.390 . S
C1844 C1843 1.390 . S
C1844 C1845 1.394 . S
C1844 C1850 1.465 . S
C1845 C1840 1.399 . S
C1845 C1844 1.394 . S
C1845 C1846 1.516 . S
C1846 C1845 1.516 . S
C1846 C1847 1.502 . S
C1846 C1848 1.561 . S
C1846 C1849 1.526 . S
C1847 H1831 0.959 . S
C1847 H1832 0.959 . S
C1847 H1833 0.961 . S
C1847 C1846 1.502 . S
C1848 H1834 0.960 . S
C1848 H1835 0.961 . S
C1848 H1836 0.959 . S
C1848 C1846 1.561 . S
C1849 C1846 1.526 . S
C1849 C1850 1.396 . S
C1849 C1854 1.390 . S
C1850 C1844 1.465 . S
C1850 C1849 1.396 . S
C1850 C1851 1.399 . S
C1851 H1837 0.929 . S
C1851 C1850 1.399 . S
C1851 C1852 1.385 . S
C1852 H1838 0.931 . S
C1852 C1851 1.385 . S
C1852 C1853 1.389 . S
C1853 C1852 1.389 . S
C1853 C1854 1.387 . S
C1854 H1839 0.930 . S
C1854 C1849 1.390 . S
C1854 C1853 1.387 . S
H1855 C1867 0.930 . S
H1856 C1869 0.930 . S
H1857 C1870 0.930 . S
H1858 C1874 0.959 . S
H1859 C1874 0.959 . S
H1860 C1874 0.961 . S
H1861 C1875 0.960 . S
H1862 C1875 0.961 . S
H1863 C1875 0.959 . S
H1864 C1878 0.929 . S
H1865 C1879 0.931 . S
H1866 C1881 0.930 . S
C1867 H1855 0.930 . S
C1867 C1868 1.399 . S
C1867 C1872 1.399 . S
C1868 C1867 1.399 . S
C1868 C1869 1.376 . S
C1869 H1856 0.930 . S
C1869 C1868 1.376 . S
C1869 C1870 1.388 . S
C1870 H1857 0.930 . S
C1870 C1869 1.388 . S
C1870 C1871 1.390 . S
C1871 C1870 1.390 . S
C1871 C1872 1.394 . S
C1871 C1877 1.465 . S
C1872 C1867 1.399 . S
C1872 C1871 1.394 . S
C1872 C1873 1.516 . S
C1873 C1872 1.516 . S
C1873 C1874 1.502 . S
C1873 C1875 1.561 . S
C1873 C1876 1.526 . S
C1874 H1858 0.959 . S
C1874 H1859 0.959 . S
C1874 H1860 0.961 . S
C1874 C1873 1.502 . S
C1875 H1861 0.960 . S
C1875 H1862 0.961 . S
C1875 H1863 0.959 . S
C1875 C1873 1.561 . S
C1876 C1873 1.526 . S
C1876 C1877 1.396 . S
C1876 C1881 1.390 . S
C1877 C1871 1.465 . S
C1877 C1876 1.396 . S
C1877 C1878 1.399 . S
C1878 H1864 0.929 . S
C1878 C1877 1.399 . S
C1878 C1879 1.385 . S
C1879 H1865 0.931 . S
C1879 C1878 1.385 . S
C1879 C1880 1.389 . S
C1880 C1879 1.389 . S
C1880 C1881 1.387 . S
C1881 H1866 0.930 . S
C1881 C1876 1.390 . S
C1881 C1880 1.387 . S
H1882 C1894 0.930 . S
H1883 C1896 0.930 . S
H1884 C1897 0.930 . S
H1885 C1901 0.959 . S
H1886 C1901 0.959 . S
H1887 C1901 0.961 . S
H1888 C1902 0.960 1_455 S
H1889 C1902 0.961 1_554 S
H1890 C1902 0.959 . S
H1891 C1905 0.929 1_556 S
H1892 C1906 0.931 . S
H1893 C1908 0.930 . S
C1894 H1882 0.930 . S
C1894 C1895 1.399 . S
C1894 C1899 1.399 . S
C1895 C1894 1.399 . S
C1895 C1896 1.376 1_545 S
C1896 H1883 0.930 . S
C1896 C1895 1.376 1_565 S
C1896 C1897 1.388 . S
C1897 H1884 0.930 . S
C1897 C1896 1.388 . S
C1897 C1898 1.390 . S
C1898 C1897 1.390 . S
C1898 C1899 1.394 1_565 S
C1898 C1904 1.465 1_456 S
C1899 C1894 1.399 . S
C1899 C1898 1.394 1_545 S
C1899 C1900 1.516 1_556 S
C1900 C1899 1.516 1_554 S
C1900 C1901 1.502 . S
C1900 C1902 1.561 1_454 S
C1900 C1903 1.526 1_455 S
C1901 H1885 0.959 . S
C1901 H1886 0.959 . S
C1901 H1887 0.961 . S
C1901 C1900 1.502 . S
C1902 H1888 0.960 1_655 S
C1902 H1889 0.961 1_556 S
C1902 H1890 0.959 . S
C1902 C1900 1.561 1_656 S
C1903 C1900 1.526 1_655 S
C1903 C1904 1.396 1_545 S
C1903 C1908 1.390 . S
C1904 C1898 1.465 1_654 S
C1904 C1903 1.396 1_565 S
C1904 C1905 1.399 . S
C1905 H1891 0.929 1_554 S
C1905 C1904 1.399 . S
C1905 C1906 1.385 . S
C1906 H1892 0.931 . S
C1906 C1905 1.385 . S
C1906 C1907 1.389 . S
C1907 C1906 1.389 . S
C1907 C1908 1.387 1_565 S
C1908 H1893 0.930 . S
C1908 C1903 1.390 . S
C1908 C1907 1.387 1_545 S
H1909 C1921 0.930 . S
H1910 C1923 0.930 . S
H1911 C1924 0.930 . S
H1912 C1928 0.959 . S
H1913 C1928 0.959 . S
H1914 C1928 0.961 . S
H1915 C1929 0.960 . S
H1916 C1929 0.961 . S
H1917 C1929 0.959 . S
H1918 C1932 0.929 . S
H1919 C1933 0.931 . S
H1920 C1935 0.930 . S
C1921 H1909 0.930 . S
C1921 C1922 1.399 . S
C1921 C1926 1.399 . S
C1922 C1921 1.399 . S
C1922 C1923 1.376 1_545 S
C1923 H1910 0.930 . S
C1923 C1922 1.376 1_565 S
C1923 C1924 1.388 . S
C1924 H1911 0.930 . S
C1924 C1923 1.388 . S
C1924 C1925 1.390 . S
C1925 C1924 1.390 . S
C1925 C1926 1.394 1_565 S
C1925 C1931 1.465 . S
C1926 C1921 1.399 . S
C1926 C1925 1.394 1_545 S
C1926 C1927 1.516 . S
C1927 C1926 1.516 . S
C1927 C1928 1.502 . S
C1927 C1929 1.561 . S
C1927 C1930 1.526 . S
C1928 H1912 0.959 . S
C1928 H1913 0.959 . S
C1928 H1914 0.961 . S
C1928 C1927 1.502 . S
C1929 H1915 0.960 . S
C1929 H1916 0.961 . S
C1929 H1917 0.959 . S
C1929 C1927 1.561 . S
C1930 C1927 1.526 . S
C1930 C1931 1.396 1_545 S
C1930 C1935 1.390 . S
C1931 C1925 1.465 . S
C1931 C1930 1.396 1_565 S
C1931 C1932 1.399 . S
C1932 H1918 0.929 . S
C1932 C1931 1.399 . S
C1932 C1933 1.385 . S
C1933 H1919 0.931 . S
C1933 C1932 1.385 . S
C1933 C1934 1.389 . S
C1934 C1933 1.389 . S
C1934 C1935 1.387 1_565 S
C1935 H1920 0.930 . S
C1935 C1930 1.390 . S
C1935 C1934 1.387 1_545 S
C653 C19 3.161 . S
C665 C419 3.139 . S
C680 C59 3.158 . S
C692 C459 3.143 . S
C707 C99 3.131 . S
C719 C339 3.165 . S
C734 C139 3.156 . S
C746 C379 3.145 . S
C761 C169 3.138 . S
C773 C569 3.161 . S
C788 C209 3.159 . S
C800 C609 3.141 . S
C815 C249 3.159 . S
C827 C489 3.141 . S
C842 C289 3.160 . S
C854 C529 3.139 . S
C869 C378 3.708 . S
C881 C9 3.683 1_556 S
C896 C418 3.684 . S
C908 C49 3.663 . S
C923 C458 3.677 . S
C935 C89 3.651 . S
C950 C338 3.685 . S
C962 C129 3.657 . S
C977 C179 3.685 1_554 S
C989 C528 3.698 . S
C1004 C568 3.699 . S
C1016 C219 3.686 . S
C1031 C608 3.709 . S
C1043 C259 3.677 . S
C1058 C488 3.700 . S
C1070 C299 3.686 . S
C1085 C58 3.706 . S
C1097 C329 3.686 . S
C1112 C369 3.650 . S
C1124 C98 3.678 . S
C1139 C409 3.665 1_556 S
C1151 C138 3.687 . S
C1166 C449 3.687 . S
C1178 C18 3.709 . S
C1193 C499 3.650 . S
C1205 C208 3.681 . S
C1220 C248 3.677 . S
C1232 C539 3.651 . S
C1247 C288 3.676 . S
C1259 C579 3.653 1_554 S
C1274 C619 3.667 . S
C1286 C168 3.680 . S
C1301 C15 0.195 . S
C1313 C618 0.210 . S
C1328 C55 0.360 . S
C1340 C178 0.095 . S
C1355 C538 0.284 . S
C1367 C95 0.352 1_655 S
C1382 C258 0.231 . S
C1394 C135 0.209 . S
C1409 C165 0.400 . S
C1421 C448 0.275 . S
C1436 C205 0.482 . S
C1448 C8 0.272 . S
C1463 C368 0.197 . S
C1475 C245 0.228 . S
C1490 C88 0.281 . S
C1502 C285 0.412 . S
C1517 C335 0.222 . S
C1529 C298 0.241 . S
C1544 C375 0.398 . S
C1556 C498 0.282 . S
C1571 C218 0.284 . S
C1583 C415 0.365 . S
C1598 C578 0.222 . S
C1610 C455 0.484 . S
C1625 C485 0.276 . S
C1637 C128 0.096 . S
C1652 C525 0.486 . S
C1664 C328 0.264 . S
C1679 C565 0.421 . S
C1691 C48 0.169 . S
C1706 C408 0.095 . S
C1718 C605 0.268 . S
C1733 C5 1.569 . S
C1745 C495 1.665 . S
C1760 C45 1.587 . S
C1772 C215 1.653 . S
C1787 C85 1.667 . S
C1799 C575 1.562 . S
C1814 C295 1.666 . S
C1826 C125 1.561 . S
C1841 C175 1.601 . S
C1853 C325 1.642 . S
C1868 C405 1.666 . S
C1880 C255 1.569 . S
C1895 C365 1.627 . S
C1907 C535 1.587 . S
C1922 C615 1.666 . S
C1934 C445 1.561 . S
