# Generated by pormake.
# Topology whd, (6)-cn, num edge types: 1
# Building blocks:
#     Node 0, Type 0, BuildingBlock: OJICUG_clean_sbu_0, # of connection points: 6
#     Node 1, Type 0, BuildingBlock: OJICUG_clean_sbu_0, # of connection points: 6
#     Node 2, Type 0, BuildingBlock: OJICUG_clean_sbu_0, # of connection points: 6
#     Node 3, Type 0, BuildingBlock: OJICUG_clean_sbu_0, # of connection points: 6
#     Node 4, Type 0, BuildingBlock: OJICUG_clean_sbu_0, # of connection points: 6
#     Node 5, Type 0, BuildingBlock: OJICUG_clean_sbu_0, # of connection points: 6
#     Node 6, Type 0, BuildingBlock: OJICUG_clean_sbu_0, # of connection points: 6
#     Node 7, Type 0, BuildingBlock: OJICUG_clean_sbu_0, # of connection points: 6
#     Node 8, Type 0, BuildingBlock: OJICUG_clean_sbu_0, # of connection points: 6
#     Node 9, Type 0, BuildingBlock: OJICUG_clean_sbu_0, # of connection points: 6
#     Node 10, Type 0, BuildingBlock: OJICUG_clean_sbu_0, # of connection points: 6
#     Node 11, Type 0, BuildingBlock: OJICUG_clean_sbu_0, # of connection points: 6
#     Node 12, Type 0, BuildingBlock: OJICUG_clean_sbu_0, # of connection points: 6
#     Node 13, Type 0, BuildingBlock: OJICUG_clean_sbu_0, # of connection points: 6
#     Node 14, Type 0, BuildingBlock: OJICUG_clean_sbu_0, # of connection points: 6
#     Node 15, Type 0, BuildingBlock: OJICUG_clean_sbu_0, # of connection points: 6
#     Edge 16, Type (0, 0), BuildingBlock: OJICUG_clean_linker_0, # of connection points: 2
#     Edge 17, Type (0, 0), BuildingBlock: OJICUG_clean_linker_0, # of connection points: 2
#     Edge 18, Type (0, 0), BuildingBlock: OJICUG_clean_linker_0, # of connection points: 2
#     Edge 19, Type (0, 0), BuildingBlock: OJICUG_clean_linker_0, # of connection points: 2
#     Edge 20, Type (0, 0), BuildingBlock: OJICUG_clean_linker_0, # of connection points: 2
#     Edge 21, Type (0, 0), BuildingBlock: OJICUG_clean_linker_0, # of connection points: 2
#     Edge 22, Type (0, 0), BuildingBlock: OJICUG_clean_linker_0, # of connection points: 2
#     Edge 23, Type (0, 0), BuildingBlock: OJICUG_clean_linker_0, # of connection points: 2
#     Edge 24, Type (0, 0), BuildingBlock: OJICUG_clean_linker_0, # of connection points: 2
#     Edge 25, Type (0, 0), BuildingBlock: OJICUG_clean_linker_0, # of connection points: 2
#     Edge 26, Type (0, 0), BuildingBlock: OJICUG_clean_linker_0, # of connection points: 2
#     Edge 27, Type (0, 0), BuildingBlock: OJICUG_clean_linker_0, # of connection points: 2
#     Edge 28, Type (0, 0), BuildingBlock: OJICUG_clean_linker_0, # of connection points: 2
#     Edge 29, Type (0, 0), BuildingBlock: OJICUG_clean_linker_0, # of connection points: 2
#     Edge 30, Type (0, 0), BuildingBlock: OJICUG_clean_linker_0, # of connection points: 2
#     Edge 31, Type (0, 0), BuildingBlock: OJICUG_clean_linker_0, # of connection points: 2
#     Edge 32, Type (0, 0), BuildingBlock: OJICUG_clean_linker_0, # of connection points: 2
#     Edge 33, Type (0, 0), BuildingBlock: OJICUG_clean_linker_0, # of connection points: 2
#     Edge 34, Type (0, 0), BuildingBlock: OJICUG_clean_linker_0, # of connection points: 2
#     Edge 35, Type (0, 0), BuildingBlock: OJICUG_clean_linker_0, # of connection points: 2
#     Edge 36, Type (0, 0), BuildingBlock: OJICUG_clean_linker_0, # of connection points: 2
#     Edge 37, Type (0, 0), BuildingBlock: OJICUG_clean_linker_0, # of connection points: 2
#     Edge 38, Type (0, 0), BuildingBlock: OJICUG_clean_linker_0, # of connection points: 2
#     Edge 39, Type (0, 0), BuildingBlock: OJICUG_clean_linker_0, # of connection points: 2
#     Edge 40, Type (0, 0), BuildingBlock: OJICUG_clean_linker_0, # of connection points: 2
#     Edge 41, Type (0, 0), BuildingBlock: OJICUG_clean_linker_0, # of connection points: 2
#     Edge 42, Type (0, 0), BuildingBlock: OJICUG_clean_linker_0, # of connection points: 2
#     Edge 43, Type (0, 0), BuildingBlock: OJICUG_clean_linker_0, # of connection points: 2
#     Edge 44, Type (0, 0), BuildingBlock: OJICUG_clean_linker_0, # of connection points: 2
#     Edge 45, Type (0, 0), BuildingBlock: OJICUG_clean_linker_0, # of connection points: 2
#     Edge 46, Type (0, 0), BuildingBlock: OJICUG_clean_linker_0, # of connection points: 2
#     Edge 47, Type (0, 0), BuildingBlock: OJICUG_clean_linker_0, # of connection points: 2
#     Edge 48, Type (0, 0), BuildingBlock: OJICUG_clean_linker_0, # of connection points: 2
#     Edge 49, Type (0, 0), BuildingBlock: OJICUG_clean_linker_0, # of connection points: 2
#     Edge 50, Type (0, 0), BuildingBlock: OJICUG_clean_linker_0, # of connection points: 2
#     Edge 51, Type (0, 0), BuildingBlock: OJICUG_clean_linker_0, # of connection points: 2
#     Edge 52, Type (0, 0), BuildingBlock: OJICUG_clean_linker_0, # of connection points: 2
#     Edge 53, Type (0, 0), BuildingBlock: OJICUG_clean_linker_0, # of connection points: 2
#     Edge 54, Type (0, 0), BuildingBlock: OJICUG_clean_linker_0, # of connection points: 2
#     Edge 55, Type (0, 0), BuildingBlock: OJICUG_clean_linker_0, # of connection points: 2
#     Edge 56, Type (0, 0), BuildingBlock: OJICUG_clean_linker_0, # of connection points: 2
#     Edge 57, Type (0, 0), BuildingBlock: OJICUG_clean_linker_0, # of connection points: 2
#     Edge 58, Type (0, 0), BuildingBlock: OJICUG_clean_linker_0, # of connection points: 2
#     Edge 59, Type (0, 0), BuildingBlock: OJICUG_clean_linker_0, # of connection points: 2
#     Edge 60, Type (0, 0), BuildingBlock: OJICUG_clean_linker_0, # of connection points: 2
#     Edge 61, Type (0, 0), BuildingBlock: OJICUG_clean_linker_0, # of connection points: 2
#     Edge 62, Type (0, 0), BuildingBlock: OJICUG_clean_linker_0, # of connection points: 2
#     Edge 63, Type (0, 0), BuildingBlock: OJICUG_clean_linker_0, # of connection points: 2
# Relax obj value: 0.256
# Max RMSD: 0.229
# Mean RMSD: 0.229
data_MOF--net-whd--node1-OJICUG_clean_sbu_0--edge1-OJICUG_clean_linker_0
_symmetry_space_group_name_H-M    P1
_symmetry_Int_Tables_number       1
_symmetry_cell_setting            triclinic
loop_
_symmetry_equiv_pos_as_xyz
'x, y, z'
_cell_length_a     39.925323
_cell_length_b     39.892448
_cell_length_c     23.138453
_cell_angle_alpha  90.032467
_cell_angle_beta   89.908738
_cell_angle_gamma 90.15664
loop_
_atom_site_label
_atom_site_type_symbol
_atom_site_fract_x
_atom_site_fract_y
_atom_site_fract_z
_atom_type_partial_charge
Sc0 Sc 0.14538 0.32396 0.3444 0.0
Sc1 Sc 0.19513 0.39308 0.30119 0.0
Sc2 Sc 0.12504 0.40447 0.39232 0.0
O3 O 0.15535 0.37387 0.34615 0.0
C4 C 0.07173 0.35407 0.34066 0.0
C5 C 0.16244 0.34071 0.21313 0.0
C6 C 0.13924 0.44846 0.28014 0.0
C7 C 0.22536 0.32514 0.34658 0.0
C8 C 0.13315 0.34091 0.47596 0.0
C9 C 0.19781 0.43416 0.41847 0.0
O10 O 0.09243 0.33017 0.33662 0.0
O11 O 0.1819 0.36515 0.22456 0.0
O12 O 0.1217 0.44101 0.32418 0.0
O13 O 0.197 0.31114 0.35217 0.0
O14 O 0.12541 0.37128 0.46588 0.0
O15 O 0.21198 0.4237 0.37269 0.0
O16 O 0.14173 0.32037 0.43672 0.0
O17 O 0.22908 0.35501 0.32915 0.0
O18 O 0.16716 0.4291 0.43033 0.0
O19 O 0.14731 0.32375 0.25171 0.0
O20 O 0.07981 0.38315 0.35791 0.0
O21 O 0.1662 0.43348 0.26722 0.0
Sc22 Sc 0.32551 0.81715 0.64331 0.0
Sc23 Sc 0.39448 0.76732 0.68527 0.0
Sc24 Sc 0.40601 0.8385 0.59659 0.0
O25 O 0.37539 0.80749 0.64156 0.0
C26 C 0.34288 0.83025 0.51217 0.0
C27 C 0.32618 0.73723 0.6399 0.0
C28 C 0.43539 0.7658 0.56791 0.0
C29 C 0.34259 0.7997 0.7743 0.0
C30 C 0.35525 0.89112 0.64896 0.0
C31 C 0.4503 0.82314 0.70749 0.0
O32 O 0.32221 0.82128 0.55102 0.0
O33 O 0.35592 0.73345 0.65767 0.0
O34 O 0.43091 0.79675 0.55776 0.0
O35 O 0.32533 0.8146 0.736 0.0
O36 O 0.38445 0.88349 0.63192 0.0
O37 O 0.43561 0.7957 0.71899 0.0
O38 O 0.33154 0.87006 0.65226 0.0
O39 O 0.36712 0.78053 0.76251 0.0
O40 O 0.44229 0.84157 0.66501 0.0
O41 O 0.31249 0.76564 0.63429 0.0
O42 O 0.37312 0.8383 0.52276 0.0
O43 O 0.42437 0.75088 0.61262 0.0
Sc44 Sc 0.81788 0.64085 0.34304 0.0
Sc45 Sc 0.76832 0.5706 0.30485 0.0
Sc46 Sc 0.83924 0.56077 0.39331 0.0
O47 O 0.80837 0.59077 0.34725 0.0
C48 C 0.89171 0.61142 0.33816 0.0
C49 C 0.80004 0.62092 0.21272 0.0
C50 C 0.82435 0.51489 0.28471 0.0
C51 C 0.73836 0.63982 0.34759 0.0
C52 C 0.83115 0.6247 0.4757 0.0
C53 C 0.76624 0.53139 0.42278 0.0
O54 O 0.87048 0.63456 0.33079 0.0
O55 O 0.78323 0.59501 0.22639 0.0
O56 O 0.84368 0.52452 0.32496 0.0
O57 O 0.76667 0.65347 0.3553 0.0
O58 O 0.83759 0.59394 0.46655 0.0
O59 O 0.75088 0.54326 0.3794 0.0
O60 O 0.82398 0.64526 0.43558 0.0
O61 O 0.73479 0.61036 0.32802 0.0
O62 O 0.79751 0.53489 0.43119 0.0
O63 O 0.81304 0.64077 0.24963 0.0
O64 O 0.88432 0.58309 0.35959 0.0
O65 O 0.79612 0.52824 0.27512 0.0
Sc66 Sc 0.63861 0.14777 0.64554 0.0
Sc67 Sc 0.56831 0.19704 0.68315 0.0
Sc68 Sc 0.55868 0.1255 0.59565 0.0
O69 O 0.58857 0.15688 0.64126 0.0
C70 C 0.62248 0.1341 0.51296 0.0
C71 C 0.63769 0.22734 0.64126 0.0
C72 C 0.52935 0.19831 0.56523 0.0
C73 C 0.61818 0.1656 0.77575 0.0
C74 C 0.60956 0.07355 0.65062 0.0
C75 C 0.5124 0.14089 0.70328 0.0
O76 O 0.64304 0.14165 0.55293 0.0
O77 O 0.60822 0.23077 0.66072 0.0
O78 O 0.53263 0.16693 0.55761 0.0
O79 O 0.63823 0.15277 0.73898 0.0
O80 O 0.58114 0.08061 0.62953 0.0
O81 O 0.52559 0.16936 0.7122 0.0
O82 O 0.63257 0.09507 0.65771 0.0
O83 O 0.59229 0.18223 0.7619 0.0
O84 O 0.52246 0.12104 0.66408 0.0
O85 O 0.65126 0.19907 0.63333 0.0
O86 O 0.59182 0.12723 0.52233 0.0
O87 O 0.54146 0.21411 0.60808 0.0
Sc88 Sc 0.1247 0.55785 0.61146 0.0
Sc89 Sc 0.196 0.57001 0.69935 0.0
Sc90 Sc 0.14551 0.63863 0.65765 0.0
O91 O 0.15554 0.58877 0.65603 0.0
C92 C 0.132 0.62111 0.52663 0.0
C93 C 0.19744 0.5289 0.58224 0.0
C94 C 0.2253 0.63814 0.65135 0.0
C95 C 0.14076 0.5138 0.72274 0.0
C96 C 0.07191 0.60827 0.66454 0.0
C97 C 0.16373 0.6219 0.78852 0.0
O98 O 0.12435 0.59073 0.53735 0.0
O99 O 0.21226 0.53988 0.62699 0.0
O100 O 0.19684 0.65183 0.64691 0.0
O101 O 0.12228 0.52152 0.68015 0.0
O102 O 0.09274 0.63219 0.66764 0.0
O103 O 0.18311 0.59757 0.77654 0.0
O104 O 0.07971 0.57911 0.64738 0.0
O105 O 0.168 0.52884 0.73415 0.0
O106 O 0.14853 0.63898 0.75033 0.0
O107 O 0.1665 0.5333 0.57208 0.0
O108 O 0.14081 0.64186 0.56541 0.0
O109 O 0.2294 0.60856 0.66987 0.0
Sc110 Sc 0.55945 0.83989 0.37663 0.0
Sc111 Sc 0.5716 0.76925 0.28694 0.0
Sc112 Sc 0.64012 0.8201 0.32904 0.0
O113 O 0.59033 0.80961 0.33101 0.0
C114 C 0.60932 0.89338 0.32347 0.0
C115 C 0.51577 0.82454 0.26447 0.0
C116 C 0.62368 0.80178 0.19809 0.0
C117 C 0.53029 0.76697 0.40409 0.0
C118 C 0.623 0.83298 0.46051 0.0
C119 C 0.63947 0.74021 0.33501 0.0
O120 O 0.5804 0.8852 0.34138 0.0
O121 O 0.53099 0.7976 0.25202 0.0
O122 O 0.6405 0.81728 0.23637 0.0
O123 O 0.53511 0.79775 0.41545 0.0
O124 O 0.64363 0.82471 0.42124 0.0
O125 O 0.60987 0.73594 0.31673 0.0
O126 O 0.59251 0.84015 0.45045 0.0
O127 O 0.54094 0.75265 0.3586 0.0
O128 O 0.65328 0.76874 0.33925 0.0
O129 O 0.52304 0.84241 0.30819 0.0
O130 O 0.63336 0.87286 0.31946 0.0
O131 O 0.59948 0.78212 0.20999 0.0
Sc132 Sc 0.83843 0.40684 0.61244 0.0
Sc133 Sc 0.76777 0.39471 0.70232 0.0
Sc134 Sc 0.81821 0.32614 0.65968 0.0
O135 O 0.808 0.37597 0.65802 0.0
C136 C 0.83119 0.34324 0.52823 0.0
C137 C 0.76561 0.4359 0.58535 0.0
C138 C 0.73839 0.32657 0.65457 0.0
C139 C 0.82292 0.4511 0.724 0.0
C140 C 0.89169 0.35689 0.66492 0.0
C141 C 0.80041 0.34284 0.79087 0.0
O142 O 0.8386 0.37372 0.53851 0.0
O143 O 0.75117 0.42511 0.63066 0.0
O144 O 0.76685 0.31287 0.6498 0.0
O145 O 0.84097 0.44343 0.68071 0.0
O146 O 0.87097 0.3329 0.6688 0.0
O147 O 0.7809 0.36709 0.77922 0.0
O148 O 0.8837 0.38592 0.6475 0.0
O149 O 0.79597 0.43583 0.73667 0.0
O150 O 0.81557 0.32587 0.75241 0.0
O151 O 0.79636 0.43116 0.57397 0.0
O152 O 0.82266 0.3226 0.56738 0.0
O153 O 0.7343 0.35617 0.67313 0.0
Sc154 Sc 0.40344 0.12539 0.37617 0.0
Sc155 Sc 0.39207 0.19568 0.28581 0.0
Sc156 Sc 0.32363 0.14568 0.32881 0.0
O157 O 0.37318 0.15577 0.33027 0.0
C158 C 0.35483 0.0723 0.32275 0.0
C159 C 0.44837 0.14165 0.26481 0.0
C160 C 0.33972 0.16266 0.1976 0.0
C161 C 0.43229 0.19759 0.40472 0.0
C162 C 0.33935 0.13207 0.45919 0.0
C163 C 0.32476 0.22552 0.33314 0.0
O164 O 0.38449 0.0811 0.33518 0.0
O165 O 0.4313 0.1666 0.24823 0.0
O166 O 0.3242 0.14573 0.23587 0.0
O167 O 0.4248 0.16775 0.4192 0.0
O168 O 0.32031 0.14506 0.42153 0.0
O169 O 0.35515 0.22959 0.31888 0.0
O170 O 0.36839 0.12079 0.44752 0.0
O171 O 0.42456 0.21058 0.35632 0.0
O172 O 0.31032 0.19721 0.33364 0.0
O173 O 0.44224 0.1257 0.3112 0.0
O174 O 0.33014 0.09225 0.32476 0.0
O175 O 0.36244 0.18404 0.20977 0.0
Sc176 Sc 0.64679 0.82549 0.82887 0.0
Sc177 Sc 0.69679 0.89474 0.78685 0.0
Sc178 Sc 0.62565 0.90596 0.87579 0.0
O179 O 0.65655 0.87546 0.83063 0.0
C180 C 0.57301 0.85509 0.82296 0.0
C181 C 0.66483 0.84245 0.69786 0.0
C182 C 0.64101 0.95019 0.76429 0.0
C183 C 0.72664 0.82701 0.83471 0.0
C184 C 0.63341 0.84268 0.9602 0.0
C185 C 0.69812 0.93608 0.90379 0.0
O186 O 0.59397 0.83143 0.81897 0.0
O187 O 0.68404 0.86703 0.7097 0.0
O188 O 0.6227 0.94225 0.80715 0.0
O189 O 0.69826 0.81297 0.83941 0.0
O190 O 0.62585 0.87306 0.94983 0.0
O191 O 0.71295 0.92525 0.85891 0.0
O192 O 0.64201 0.82204 0.92113 0.0
O193 O 0.73055 0.85661 0.81604 0.0
O194 O 0.66729 0.93115 0.91441 0.0
O195 O 0.64982 0.82518 0.73619 0.0
O196 O 0.58071 0.88417 0.84079 0.0
O197 O 0.66832 0.93549 0.75246 0.0
Sc198 Sc 0.82462 0.3199 0.15956 0.0
Sc199 Sc 0.89265 0.26875 0.20129 0.0
Sc200 Sc 0.90545 0.33974 0.11255 0.0
O201 O 0.8743 0.30933 0.15767 0.0
C202 C 0.84197 0.33315 0.02832 0.0
C203 C 0.82449 0.24008 0.15304 0.0
C204 C 0.93377 0.26673 0.08397 0.0
C205 C 0.841 0.30154 0.29049 0.0
C206 C 0.85591 0.39314 0.16599 0.0
C207 C 0.9491 0.3236 0.2242 0.0
O208 O 0.82126 0.32463 0.06738 0.0
O209 O 0.85402 0.23568 0.17142 0.0
O210 O 0.92938 0.29762 0.07323 0.0
O211 O 0.82422 0.31697 0.25221 0.0
O212 O 0.88487 0.38504 0.14837 0.0
O213 O 0.9337 0.29663 0.23621 0.0
O214 O 0.83179 0.37256 0.16945 0.0
O215 O 0.86503 0.28178 0.27854 0.0
O216 O 0.94183 0.34182 0.181 0.0
O217 O 0.81098 0.26867 0.14899 0.0
O218 O 0.87245 0.34041 0.03866 0.0
O219 O 0.92292 0.2522 0.12917 0.0
Sc220 Sc 0.31555 0.1387 0.82606 0.0
Sc221 Sc 0.26593 0.06834 0.78854 0.0
Sc222 Sc 0.33766 0.05869 0.8754 0.0
O223 O 0.30628 0.08858 0.83017 0.0
C224 C 0.3894 0.10967 0.81908 0.0
C225 C 0.29677 0.11902 0.69592 0.0
C226 C 0.32224 0.01304 0.76653 0.0
C227 C 0.23616 0.13706 0.83441 0.0
C228 C 0.32996 0.1224 0.95848 0.0
C229 C 0.26513 0.02862 0.90608 0.0
O230 O 0.36794 0.13263 0.81215 0.0
O231 O 0.27997 0.09314 0.70986 0.0
O232 O 0.34169 0.02268 0.80663 0.0
O233 O 0.26451 0.15085 0.84052 0.0
O234 O 0.33637 0.09166 0.94903 0.0
O235 O 0.24938 0.04042 0.86305 0.0
O236 O 0.32253 0.14299 0.91854 0.0
O237 O 0.23232 0.10778 0.81407 0.0
O238 O 0.29639 0.03246 0.91398 0.0
O239 O 0.30995 0.13882 0.73272 0.0
O240 O 0.38243 0.08132 0.84086 0.0
O241 O 0.29387 0.02624 0.75735 0.0
Sc242 Sc 0.13955 0.64326 0.15758 0.0
Sc243 Sc 0.07204 0.69517 0.19942 0.0
Sc244 Sc 0.05858 0.6244 0.11047 0.0
O245 O 0.08999 0.65441 0.15569 0.0
C246 C 0.12223 0.63074 0.02624 0.0
C247 C 0.1407 0.72309 0.15174 0.0
C248 C 0.03084 0.69768 0.0825 0.0
C249 C 0.12314 0.66171 0.28846 0.0
C250 C 0.10755 0.5703 0.16289 0.0
C251 C 0.01499 0.64088 0.22231 0.0
O252 O 0.14298 0.63894 0.06534 0.0
O253 O 0.11105 0.72782 0.16944 0.0
O254 O 0.03499 0.66678 0.07157 0.0
O255 O 0.13967 0.64584 0.25027 0.0
O256 O 0.07865 0.57879 0.14576 0.0
O257 O 0.03065 0.66769 0.23438 0.0
O258 O 0.13188 0.5906 0.1665 0.0
O259 O 0.09952 0.68191 0.27643 0.0
O260 O 0.02214 0.62256 0.17909 0.0
O261 O 0.15392 0.69435 0.14794 0.0
O262 O 0.09169 0.62364 0.03656 0.0
O263 O 0.04186 0.71206 0.12767 0.0
Sc264 Sc 0.62389 0.06093 0.09631 0.0
Sc265 Sc 0.69469 0.07222 0.18535 0.0
Sc266 Sc 0.6453 0.14084 0.14273 0.0
O267 O 0.65486 0.09121 0.14142 0.0
C268 C 0.6313 0.12469 0.01286 0.0
C269 C 0.69594 0.0323 0.06599 0.0
C270 C 0.72521 0.13979 0.14035 0.0
C271 C 0.64016 0.01608 0.20712 0.0
C272 C 0.57161 0.11013 0.14969 0.0
C273 C 0.66203 0.12464 0.2738 0.0
O274 O 0.61942 0.0959 0.0251 0.0
O275 O 0.70941 0.04026 0.11394 0.0
O276 O 0.69696 0.15412 0.13882 0.0
O277 O 0.62382 0.02224 0.1613 0.0
O278 O 0.59174 0.13475 0.14647 0.0
O279 O 0.68303 0.10167 0.26155 0.0
O280 O 0.58013 0.08029 0.13806 0.0
O281 O 0.66558 0.03289 0.22259 0.0
O282 O 0.64528 0.14033 0.23565 0.0
O283 O 0.66586 0.03925 0.05266 0.0
O284 O 0.64493 0.14374 0.05001 0.0
O285 O 0.72894 0.10927 0.15373 0.0
Sc286 Sc 0.05835 0.3384 0.89186 0.0
Sc287 Sc 0.06885 0.26778 0.80155 0.0
Sc288 Sc 0.13857 0.3168 0.8443 0.0
O289 O 0.08855 0.30749 0.84607 0.0
C290 C 0.10946 0.39096 0.83936 0.0
C291 C 0.01386 0.3242 0.7805 0.0
C292 C 0.12144 0.29977 0.7131 0.0
C293 C 0.02805 0.26584 0.91915 0.0
C294 C 0.12162 0.3297 0.97574 0.0
C295 C 0.13659 0.23677 0.8467 0.0
O296 O 0.08034 0.38332 0.85701 0.0
O297 O 0.02834 0.29685 0.76816 0.0
O298 O 0.13885 0.31437 0.75164 0.0
O299 O 0.03312 0.29662 0.93021 0.0
O300 O 0.14211 0.32086 0.9366 0.0
O301 O 0.10684 0.23343 0.82865 0.0
O302 O 0.09138 0.33774 0.96551 0.0
O303 O 0.0386 0.25124 0.87382 0.0
O304 O 0.15078 0.26501 0.853 0.0
O305 O 0.0219 0.34209 0.82375 0.0
O306 O 0.13305 0.36988 0.83546 0.0
O307 O 0.0965 0.28095 0.72456 0.0
Sc308 Sc 0.33976 0.90482 0.09541 0.0
Sc309 Sc 0.26957 0.89218 0.18598 0.0
Sc310 Sc 0.32043 0.82401 0.14323 0.0
O311 O 0.30976 0.87372 0.14139 0.0
C312 C 0.33252 0.84104 0.01174 0.0
C313 C 0.26662 0.93311 0.06876 0.0
C314 C 0.24053 0.82346 0.14066 0.0
C315 C 0.3243 0.949 0.20694 0.0
C316 C 0.39368 0.85546 0.14725 0.0
C317 C 0.30293 0.84063 0.27433 0.0
O318 O 0.34007 0.8715 0.02189 0.0
O319 O 0.25248 0.92237 0.1144 0.0
O320 O 0.26911 0.81003 0.13551 0.0
O321 O 0.34217 0.94162 0.16331 0.0
O322 O 0.37326 0.8312 0.15086 0.0
O323 O 0.28308 0.86461 0.26269 0.0
O324 O 0.38527 0.88448 0.13041 0.0
O325 O 0.2976 0.93342 0.21997 0.0
O326 O 0.31846 0.82395 0.23592 0.0
O327 O 0.29735 0.92858 0.05701 0.0
O328 O 0.32404 0.82042 0.05093 0.0
O329 O 0.23633 0.85332 0.15775 0.0
Sc330 Sc 0.90485 0.6265 0.892 0.0
Sc331 Sc 0.89461 0.69727 0.80217 0.0
Sc332 Sc 0.82525 0.64855 0.84564 0.0
O333 O 0.87501 0.65768 0.84667 0.0
C334 C 0.85483 0.57443 0.83926 0.0
C335 C 0.94991 0.64183 0.78084 0.0
C336 C 0.84173 0.66489 0.71425 0.0
C337 C 0.93461 0.6985 0.92125 0.0
C338 C 0.84129 0.63459 0.97572 0.0
C339 C 0.82732 0.72858 0.84713 0.0
O340 O 0.88467 0.58263 0.85151 0.0
O341 O 0.93379 0.66767 0.76553 0.0
O342 O 0.8256 0.64865 0.7527 0.0
O343 O 0.92746 0.6684 0.93461 0.0
O344 O 0.82227 0.64798 0.93841 0.0
O345 O 0.85777 0.73207 0.83283 0.0
O346 O 0.87006 0.62285 0.96364 0.0
O347 O 0.92654 0.71211 0.87351 0.0
O348 O 0.81279 0.70036 0.84985 0.0
O349 O 0.94325 0.62551 0.82655 0.0
O350 O 0.83058 0.59491 0.84151 0.0
O351 O 0.86528 0.68542 0.72606 0.0
C352 C 0.15268 0.49225 0.2071 0.0
C353 C 0.12912 0.47709 0.24398 0.0
H354 H 0.16402 0.53376 0.15211 0.0
C355 C 0.09674 0.4907 0.24803 0.0
H356 H 0.17779 0.48233 0.20272 0.0
C357 C 0.0887 0.51997 0.21796 0.0
C358 C 0.11312 0.5362 0.18438 0.0
H359 H 0.07796 0.47931 0.27564 0.0
H360 H 0.06412 0.53093 0.22375 0.0
C361 C 0.14484 0.52167 0.17801 0.0
C362 C 0.49603 0.80834 0.77582 0.0
C363 C 0.47935 0.83278 0.7431 0.0
H364 H 0.53887 0.79644 0.82698 0.0
C365 C 0.49185 0.86577 0.74236 0.0
H366 H 0.487 0.78272 0.77742 0.0
C367 C 0.52137 0.87373 0.77174 0.0
C368 C 0.53904 0.84868 0.80131 0.0
H369 H 0.47931 0.88518 0.71794 0.0
H370 H 0.5313 0.89898 0.76867 0.0
C371 C 0.52574 0.81615 0.80419 0.0
C372 C 0.87486 0.44396 0.2198 0.0
C373 C 0.85002 0.42706 0.18823 0.0
H374 H 0.88611 0.48512 0.27612 0.0
C375 C 0.81782 0.44079 0.18444 0.0
H376 H 0.89983 0.43364 0.2236 0.0
C377 C 0.81001 0.47008 0.21401 0.0
C378 C 0.83413 0.48599 0.24875 0.0
H379 H 0.7983 0.42824 0.16007 0.0
H380 H 0.7846 0.4794 0.21145 0.0
C381 C 0.86689 0.47316 0.25026 0.0
C382 C 0.43583 0.14892 0.79733 0.0
C383 C 0.42328 0.11607 0.79702 0.0
H384 H 0.47397 0.18238 0.7685 0.0
C385 C 0.44161 0.09059 0.7697 0.0
H386 H 0.42217 0.16895 0.81839 0.0
C387 C 0.47117 0.09835 0.74007 0.0
C388 C 0.48297 0.13157 0.73834 0.0
H389 H 0.43222 0.06509 0.76867 0.0
H390 H 0.48433 0.07853 0.71754 0.0
C391 C 0.46551 0.15655 0.76871 0.0
C392 C 0.09843 0.47225 0.7588 0.0
C393 C 0.13141 0.48469 0.7586 0.0
H394 H 0.06536 0.4329 0.78614 0.0
C395 C 0.15609 0.46789 0.79058 0.0
H396 H 0.07884 0.48487 0.73495 0.0
C397 C 0.14847 0.43815 0.81921 0.0
C398 C 0.11589 0.42493 0.81736 0.0
H399 H 0.18172 0.47687 0.79141 0.0
H400 H 0.16832 0.42493 0.84143 0.0
C401 C 0.09065 0.44272 0.78846 0.0
C402 C 0.47147 0.81017 0.19291 0.0
C403 C 0.48704 0.83424 0.22824 0.0
H404 H 0.4296 0.79827 0.13922 0.0
C405 C 0.47373 0.86682 0.23081 0.0
H406 H 0.48115 0.78489 0.18975 0.0
C407 C 0.44441 0.87462 0.20082 0.0
C408 C 0.42777 0.84978 0.16878 0.0
H409 H 0.48543 0.88597 0.2572 0.0
H410 H 0.43375 0.89943 0.20546 0.0
C411 C 0.44197 0.81779 0.16391 0.0
C412 C 0.87303 0.52306 0.78631 0.0
C413 C 0.8481 0.5406 0.81664 0.0
H414 H 0.88452 0.48091 0.73254 0.0
C415 C 0.81573 0.52699 0.82034 0.0
H416 H 0.89819 0.53309 0.78261 0.0
C417 C 0.80801 0.49707 0.79228 0.0
C418 C 0.83239 0.48046 0.75913 0.0
H419 H 0.7961 0.53993 0.84373 0.0
H420 H 0.78254 0.48775 0.79459 0.0
C421 C 0.86516 0.49335 0.75734 0.0
C422 C 0.52333 0.14823 0.16622 0.0
C423 C 0.53787 0.11649 0.17267 0.0
H424 H 0.48328 0.18089 0.18972 0.0
C425 C 0.5214 0.09206 0.20601 0.0
H426 H 0.53549 0.16745 0.14053 0.0
C427 C 0.49177 0.09992 0.23508 0.0
C428 C 0.47787 0.1321 0.23028 0.0
H429 H 0.53224 0.06742 0.21189 0.0
H430 H 0.48012 0.08104 0.26214 0.0
C431 C 0.49342 0.15587 0.1943 0.0
C432 C 0.59848 -0.00853 0.72891 0.0
C433 C 0.63152 0.97937 0.7289 0.0
H434 H 0.56534 0.03079 0.70241 0.0
C435 C 0.65622 -0.00333 0.69744 0.0
H436 H 0.57889 0.97845 0.75239 0.0
C437 C 0.64856 0.0266 0.66965 0.0
C438 C 0.61594 0.03947 0.67176 0.0
H439 H 0.6819 -0.01202 0.6965 0.0
H440 H 0.66843 0.04023 0.6479 0.0
C441 C 0.59066 0.02119 0.69998 0.0
C442 C 0.02048 0.37332 0.28917 0.0
C443 C 0.03769 0.34807 0.31907 0.0
H444 H 0.97883 0.38525 0.23475 0.0
C445 C 0.02394 0.31573 0.32201 0.0
H446 H 0.03076 0.39842 0.28605 0.0
C447 C -0.00576 0.30829 0.2933 0.0
C448 C 0.97807 0.3329 0.26018 0.0
H449 H 0.03673 0.2959 0.34503 0.0
H450 H -0.01514 0.2828 0.2949 0.0
C451 C -0.009 0.36571 0.25945 0.0
C452 C 0.316 0.93787 0.6684 0.0
C453 C 0.34864 0.92504 0.67089 0.0
H454 H 0.28218 0.97587 0.69614 0.0
C455 C 0.37351 0.94297 0.70069 0.0
H456 H 0.29643 0.92457 0.6454 0.0
C457 C 0.36525 0.97222 0.73072 0.0
C458 C 0.33213 -0.01584 0.73056 0.0
H459 H 0.39884 0.93343 0.70347 0.0
H460 H 0.38457 -0.01504 0.75523 0.0
C461 C 0.30788 0.96726 0.69755 0.0
C462 C 0.97315 0.59904 0.25889 0.0
C463 C -0.01424 0.63197 0.25808 0.0
H464 H 0.93349 0.56645 0.28667 0.0
C465 C 0.96902 0.65708 0.28931 0.0
H466 H -0.01423 0.57917 0.2356 0.0
C467 C 0.93911 0.6499 0.31774 0.0
C468 C 0.92576 0.61736 0.31649 0.0
H469 H 0.97813 0.68268 0.28959 0.0
H470 H 0.92589 0.67004 0.3393 0.0
C471 C 0.94349 0.59171 0.28846 0.0
C472 C 0.65452 0.97158 0.27803 0.0
C473 C 0.63057 -0.0131 0.24243 0.0
H474 H 0.66634 0.92974 0.33184 0.0
C475 C 0.5982 0.97311 0.239 0.0
H476 H 0.67966 0.98165 0.28164 0.0
C477 C 0.5904 0.94367 0.26886 0.0
C478 C 0.61509 0.92737 0.30148 0.0
H479 H 0.57918 -0.01536 0.21229 0.0
H480 H 0.56572 0.9327 0.26384 0.0
C481 C 0.64694 0.9419 0.30679 0.0
C482 C 0.9428 0.37533 0.71821 0.0
C483 C 0.92573 0.35076 0.68623 0.0
H484 H -0.01578 0.38606 0.7741 0.0
C485 C 0.9395 0.3186 0.68101 0.0
H486 H 0.93247 0.40026 0.7231 0.0
C487 C 0.96903 0.31056 0.70956 0.0
C488 C -0.01493 0.33437 0.74479 0.0
H489 H 0.9268 0.2993 0.65633 0.0
H490 H 0.97837 0.28517 0.70608 0.0
C491 C 0.97217 0.3671 0.74775 0.0
C492 C 0.37368 0.02167 0.26849 0.0
C493 C 0.34877 0.03839 0.30019 0.0
H494 H 0.38536 0.98016 0.21336 0.0
C495 C 0.31681 0.02398 0.3051 0.0
H496 H 0.39851 0.03237 0.26387 0.0
C497 C 0.30939 -0.00591 0.27678 0.0
C498 C 0.33365 0.97833 0.24218 0.0
H499 H 0.29723 0.0363 0.32959 0.0
H500 H 0.28418 -0.01583 0.28005 0.0
C501 C 0.36609 -0.00803 0.23927 0.0
C502 C 0.02408 0.64669 0.68039 0.0
C503 C 0.038 0.61464 0.68648 0.0
H504 H -0.01496 0.68023 0.7049 0.0
C505 C 0.02122 0.59045 0.71978 0.0
H506 H 0.0366 0.66571 0.65478 0.0
C507 C -0.00804 0.59894 0.74957 0.0
C508 C 0.97882 0.63153 0.74544 0.0
H509 H 0.03169 0.56564 0.7254 0.0
H510 H 0.98009 0.58029 0.77681 0.0
C511 C -0.00541 0.65496 0.70912 0.0
C512 C 0.21689 0.5156 0.48394 0.0
C513 C 0.21498 0.50657 0.54244 0.0
H514 H 0.21478 0.49814 0.39655 0.0
C515 C 0.21846 0.47286 0.55828 0.0
H516 H 0.21368 0.54152 0.47106 0.0
C517 C 0.21834 0.44805 0.51572 0.0
C518 C 0.21551 0.45698 0.4573 0.0
H519 H 0.21641 0.46545 0.60321 0.0
H520 H 0.21617 0.42203 0.52873 0.0
C521 C 0.21758 0.49081 0.44138 0.0
C522 C 0.49175 0.74583 0.54418 0.0
C523 C 0.458 0.74847 0.5283 0.0
H524 H 0.54251 0.74934 0.51471 0.0
C525 C 0.4491 0.74639 0.46978 0.0
H526 H 0.49906 0.74806 0.58911 0.0
C527 C 0.47394 0.74634 0.42725 0.0
C528 C 0.50768 0.74919 0.44322 0.0
H529 H 0.42316 0.74902 0.45684 0.0
H530 H 0.46661 0.74895 0.3824 0.0
C531 C 0.51659 0.74659 0.50167 0.0
C532 C 0.74507 0.45031 0.48842 0.0
C533 C 0.74815 0.45897 0.54692 0.0
H534 H 0.74678 0.4681 0.40121 0.0
C535 C 0.7465 0.49275 0.56339 0.0
H536 H 0.74694 0.42434 0.47502 0.0
C537 C 0.74727 0.51774 0.52122 0.0
C538 C 0.7488 0.50895 0.4626 0.0
H539 H 0.74952 0.49985 0.60831 0.0
H540 H 0.75078 0.54358 0.53447 0.0
C541 C 0.745 0.47532 0.44628 0.0
C542 C 0.48945 0.21682 0.42534 0.0
C543 C 0.45585 0.21486 0.44279 0.0
H544 H 0.54051 0.2132 0.45287 0.0
C545 C 0.44772 0.21817 0.50151 0.0
H546 H 0.49616 0.21371 0.38024 0.0
C547 C 0.47308 0.21879 0.54291 0.0
C548 C 0.50656 0.21527 0.52569 0.0
H549 H 0.4219 0.2162 0.51568 0.0
H550 H 0.46628 0.21724 0.5882 0.0
C551 C 0.5148 0.21652 0.4668 0.0
C552 C 0.71547 0.01824 0.96784 0.0
C553 C 0.71339 0.00964 0.02652 0.0
H554 H 0.71421 9e-05 0.88083 0.0
C555 C 0.71733 0.97611 0.04319 0.0
H556 H 0.71206 0.04401 0.9543 0.0
C557 C 0.71778 0.95097 0.00121 0.0
C558 C 0.71519 0.95941 0.94253 0.0
H559 H 0.71525 0.96901 0.08827 0.0
H560 H 0.71594 0.92502 0.01475 0.0
C561 C 0.71682 -0.00686 0.92589 0.0
C562 C 0.94684 0.24678 0.98588 0.0
C563 C 0.956 0.24896 0.04428 0.0
H564 H 0.96403 0.24868 0.89828 0.0
C565 C -0.01024 0.24575 0.05979 0.0
H566 H 0.92089 0.24982 0.97322 0.0
C567 C 0.01443 0.24585 0.01698 0.0
C568 C 0.00534 0.24839 0.9586 0.0
H569 H -0.00271 0.24802 0.10462 0.0
H570 H 0.04045 0.2482 0.02968 0.0
C571 C 0.9715 0.2461 0.94307 0.0
C572 C 0.24509 0.97216 0.9297 0.0
C573 C 0.2482 0.00586 0.946 0.0
H574 H 0.24814 0.92124 0.95839 0.0
C575 C 0.2466 0.01461 0.00464 0.0
H576 H 0.24694 0.96499 0.88461 0.0
C577 C 0.24644 -0.01039 0.0468 0.0
C578 C 0.24876 0.95588 0.03032 0.0
H579 H 0.2496 0.04052 0.01785 0.0
H580 H 0.24939 -0.00322 0.09171 0.0
C581 C 0.24576 0.94716 0.97183 0.0
C582 C -0.00857 0.71831 0.94328 0.0
C583 C 0.9578 0.71565 0.96022 0.0
H584 H 0.04242 0.71491 0.97129 0.0
C585 C 0.9494 0.7181 0.01896 0.0
H586 H -0.00163 0.71589 0.89816 0.0
C587 C 0.97459 0.71845 0.06072 0.0
C588 C 0.00817 0.71548 0.04379 0.0
H589 H 0.92355 0.71562 0.03273 0.0
H590 H 0.96761 0.71612 0.10584 0.0
C591 C 0.01662 0.71776 0.98505 0.0
C592 C 0.12122 0.32344 0.13825 0.0
C593 C 0.15368 0.33447 0.1522 0.0
H594 H 0.08552 0.31395 0.07129 0.0
C595 C 0.17614 0.34247 0.10745 0.0
H596 H 0.10324 0.31746 0.17186 0.0
C597 C 0.16609 0.33991 0.04973 0.0
C598 C 0.13316 0.3303 0.0361 0.0
H599 H 0.20126 0.35111 0.11711 0.0
H600 H 0.18367 0.34658 0.01589 0.0
C601 C 0.11094 0.32177 0.08078 0.0
C602 C 0.32417 0.85141 0.90676 0.0
C603 C 0.33309 0.8294 0.95138 0.0
H604 H 0.31925 0.8588 0.81575 0.0
C605 C 0.34282 0.79652 0.93771 0.0
H606 H 0.31623 0.87679 0.91628 0.0
C607 C 0.34507 0.78632 0.88 0.0
C608 C 0.33665 0.80856 0.83531 0.0
H609 H 0.34976 0.77909 0.9715 0.0
H610 H 0.3538 0.76125 0.87029 0.0
C611 C 0.32554 0.84097 0.84932 0.0
C612 C 0.83036 0.60022 0.06293 0.0
C613 C 0.82924 0.63147 0.03549 0.0
H614 H 0.82096 0.57248 0.14034 0.0
C615 C 0.81749 0.65955 0.06605 0.0
H616 H 0.83935 0.57829 0.04005 0.0
C617 C 0.8079 0.65648 0.12413 0.0
C618 C 0.80877 0.62504 0.15132 0.0
H619 H 0.81665 0.68393 0.04551 0.0
H620 H 0.79968 0.67847 0.14762 0.0
C621 C 0.8197 0.59692 0.12002 0.0
C622 C 0.5971 0.13533 0.92547 0.0
C623 C 0.62827 0.13662 0.95306 0.0
H624 H 0.56956 0.14454 0.84792 0.0
C625 C 0.6564 0.14845 0.92261 0.0
H626 H 0.57513 0.12629 0.94826 0.0
C627 C 0.65347 0.15796 0.86452 0.0
C628 C 0.62213 0.15694 0.83718 0.0
H629 H 0.68073 0.14942 0.94324 0.0
H630 H 0.67551 0.16625 0.84114 0.0
C631 C 0.59394 0.14592 0.86835 0.0
C632 C 0.17703 0.61898 0.89424 0.0
C633 C 0.15482 0.62756 0.84963 0.0
H634 H 0.18419 0.61379 0.98566 0.0
C635 C 0.12233 0.63835 0.8638 0.0
H636 H 0.20214 0.61045 0.88444 0.0
C637 C 0.11182 0.63929 0.92126 0.0
C638 C 0.13381 0.63025 0.96579 0.0
H639 H 0.10451 0.64472 0.83031 0.0
H640 H 0.08642 0.64706 0.93085 0.0
C641 C 0.16675 0.6208 0.95197 0.0
C642 C 0.62136 0.78809 0.09237 0.0
C643 C 0.62958 0.81055 0.13697 0.0
H644 H 0.61671 0.78056 0.00089 0.0
C645 C 0.64034 0.8431 0.12273 0.0
H646 H 0.61288 0.76291 0.10221 0.0
C647 C 0.64158 0.85343 0.06521 0.0
C648 C 0.63287 0.83118 0.02068 0.0
H649 H 0.64646 0.86112 0.15617 0.0
H650 H 0.64927 0.8789 0.05556 0.0
C651 C 0.62348 0.79818 0.03458 0.0
C652 C 0.84194 0.32638 0.86571 0.0
C653 C 0.8094 0.33708 0.85188 0.0
H654 H 0.87788 0.31749 0.93245 0.0
C655 C 0.78716 0.34536 0.89675 0.0
H656 H 0.85978 0.32023 0.83203 0.0
C657 C 0.79744 0.34329 0.95441 0.0
C658 C 0.8304 0.33389 0.96791 0.0
H659 H 0.762 0.35381 0.88722 0.0
H660 H 0.77996 0.35005 0.9883 0.0
C661 C 0.85245 0.32519 0.92311 0.0
C662 C 0.32119 0.11186 0.06355 0.0
C663 C 0.33026 0.13408 0.01912 0.0
H664 H 0.3162 0.10378 0.15438 0.0
C665 C 0.34011 0.16689 0.03352 0.0
H666 H 0.31312 0.08653 0.0537 0.0
C667 C 0.34236 0.17672 0.09158 0.0
C668 C 0.3339 0.15418 0.13607 0.0
H669 H 0.34717 0.18453 4e-05 0.0
H670 H 0.35116 0.20175 0.10167 0.0
C671 C 0.32264 0.12188 0.12126 0.0
C672 C 0.66761 0.84338 0.53432 0.0
C673 C 0.6347 0.83358 0.52086 0.0
H674 H 0.70305 0.85419 0.60148 0.0
C675 C 0.61281 0.8244 0.56564 0.0
H676 H 0.68496 0.85051 0.50042 0.0
C677 C 0.62341 0.82553 0.623 0.0
C678 C 0.65586 0.83666 0.63682 0.0
H679 H 0.58742 0.81639 0.55632 0.0
H680 H 0.60566 0.81902 0.65668 0.0
C681 C 0.67797 0.84539 0.59196 0.0
C682 C 0.84125 0.29856 0.45414 0.0
C683 C 0.83188 0.33157 0.46778 0.0
H684 H 0.85184 0.26308 0.38681 0.0
C685 C 0.82329 0.35363 0.42303 0.0
H686 H 0.84795 0.28107 0.48799 0.0
C687 C 0.82456 0.3431 0.36559 0.0
C688 C 0.83524 0.31053 0.35161 0.0
H689 H 0.81563 0.3791 0.43244 0.0
H690 H 0.81849 0.36098 0.33199 0.0
C691 C 0.84342 0.28826 0.39642 0.0
C692 C 0.31595 0.09463 0.60303 0.0
C693 C 0.30558 0.12296 0.63439 0.0
H694 H 0.33563 0.07565 0.52324 0.0
C695 C 0.30576 0.15446 0.60734 0.0
H696 H 0.31647 0.07011 0.6232 0.0
C697 C 0.31581 0.15739 0.54944 0.0
C698 C 0.32702 0.12909 0.51888 0.0
H699 H 0.29805 0.17664 0.63083 0.0
H700 H 0.31574 0.18183 0.52905 0.0
C701 C 0.3271 0.09776 0.54612 0.0
C702 C 0.12267 0.66551 0.45198 0.0
C703 C 0.13146 0.63242 0.46604 0.0
H704 H 0.11282 0.70082 0.38421 0.0
C705 C 0.13976 0.60998 0.42159 0.0
H706 H 0.11624 0.6833 0.48559 0.0
C707 C 0.13875 0.62022 0.36401 0.0
C708 C 0.12865 0.6529 0.34964 0.0
H709 H 0.147 0.58444 0.43133 0.0
H710 H 0.14458 0.60208 0.33064 0.0
C711 C 0.12079 0.67554 0.39414 0.0
C712 C 0.66675 0.12427 0.43765 0.0
C713 C 0.63408 0.13414 0.45235 0.0
H714 H 0.70131 0.11319 0.36912 0.0
C715 C 0.61183 0.14339 0.40824 0.0
H716 H 0.68439 0.11708 0.47091 0.0
C717 C 0.62168 0.14197 0.35045 0.0
C718 C 0.6538 0.13058 0.33532 0.0
H719 H 0.58661 0.15148 0.41839 0.0
H720 H 0.60356 0.14848 0.31753 0.0
C721 C 0.6764 0.12206 0.37951 0.0
C722 C 0.11939 0.28631 0.60739 0.0
C723 C 0.12783 0.30853 0.65221 0.0
H724 H 0.11511 0.27907 0.51581 0.0
C725 C 0.13952 0.34081 0.6384 0.0
H726 H 0.11023 0.26133 0.61696 0.0
C727 C 0.14139 0.3512 0.58099 0.0
C728 C 0.13241 0.32923 0.53623 0.0
H729 H 0.14586 0.35861 0.67208 0.0
H730 H 0.1497 0.3765 0.57159 0.0
C731 C 0.12215 0.29644 0.54972 0.0
C732 C 0.29866 0.83996 0.43765 0.0
C733 C 0.3316 0.83081 0.45168 0.0
H734 H 0.26367 0.85059 0.36986 0.0
C735 C 0.35409 0.82258 0.40726 0.0
H736 H 0.28088 0.84638 0.47128 0.0
C737 C 0.34403 0.82408 0.34967 0.0
C738 C 0.31154 0.83463 0.33535 0.0
H739 H 0.37953 0.81509 0.41705 0.0
H740 H 0.3622 0.81832 0.31629 0.0
C741 C 0.28883 0.84233 0.37982 0.0
C742 C 0.84442 0.67888 0.60839 0.0
C743 C 0.83551 0.65654 0.6529 0.0
H744 H 0.84943 0.6865 0.51688 0.0
C745 C 0.82342 0.62453 0.63825 0.0
H746 H 0.85383 0.7037 0.61843 0.0
C747 C 0.82171 0.61451 0.58059 0.0
C748 C 0.83135 0.63649 0.53616 0.0
H749 H 0.8166 0.60661 0.67144 0.0
H750 H 0.8131 0.58936 0.57077 0.0
C751 C 0.84192 0.66908 0.5504 0.0
C752 C 0.30915 0.28553 0.31989 0.0
C753 C 0.30419 0.25465 0.3476 0.0
H754 H 0.28747 0.3329 0.29813 0.0
C755 C 0.27648 0.2502 0.38416 0.0
H756 H 0.33056 0.28952 0.29187 0.0
C757 C 0.25209 0.27478 0.38789 0.0
C758 C 0.25502 0.30415 0.355 0.0
H759 H 0.27262 0.22685 0.4072 0.0
H760 H 0.2299 0.26983 0.41357 0.0
C761 C 0.28457 0.31028 0.32356 0.0
C762 C 0.25081 0.68658 0.60106 0.0
C763 C 0.25466 0.65882 0.63762 0.0
H764 H 0.27123 0.733 0.57202 0.0
C765 C 0.28532 0.65371 0.66586 0.0
H766 H 0.2277 0.6906 0.57758 0.0
C767 C 0.3104 0.67812 0.66262 0.0
C768 C 0.30488 0.70767 0.63109 0.0
H769 H 0.28895 0.63229 0.69388 0.0
H770 H 0.33281 0.67507 0.6884 0.0
C771 C 0.27574 0.71079 0.59776 0.0
C772 C 0.65516 0.68032 0.32008 0.0
C773 C 0.66001 0.71093 0.34888 0.0
H774 H 0.6767 0.63302 0.29739 0.0
C775 C 0.68739 0.71483 0.38619 0.0
H776 H 0.63401 0.67668 0.29148 0.0
C777 C 0.71154 0.69001 0.38978 0.0
C778 C 0.70876 0.66096 0.35592 0.0
H779 H 0.69118 0.73791 0.41007 0.0
H780 H 0.73348 0.69456 0.4162 0.0
C781 C 0.67952 0.65537 0.32357 0.0
C782 C 0.71278 0.27867 0.60306 0.0
C783 C 0.70905 0.30594 0.64079 0.0
H784 H 0.69232 0.23261 0.57248 0.0
C785 C 0.67853 0.31059 0.6699 0.0
H786 H 0.73578 0.27503 0.57893 0.0
C787 C 0.6535 0.28617 0.6662 0.0
C788 C 0.65892 0.25705 0.63333 0.0
H789 H 0.67502 0.33165 0.69884 0.0
H790 H 0.63122 0.28883 0.69257 0.0
C791 C 0.68789 0.25446 0.59927 0.0
C792 C 0.7867 0.81173 0.81973 0.0
C793 C 0.75612 0.80672 0.84862 0.0
H794 H 0.83411 0.79031 0.79699 0.0
C795 C 0.75245 0.77935 0.88614 0.0
H796 H 0.79017 0.83286 0.79095 0.0
C797 C 0.77739 0.75532 0.88973 0.0
C798 C 0.80639 0.75826 0.85583 0.0
H799 H 0.72942 0.77542 0.9101 0.0
H800 H 0.77299 0.7333 0.91612 0.0
C801 C 0.81182 0.7875 0.82332 0.0
C802 C 0.75151 0.19047 0.09921 0.0
C803 C 0.75477 0.16095 0.13151 0.0
H804 H 0.7717 0.23867 0.08013 0.0
C805 C 0.78443 0.15491 0.16228 0.0
H806 H 0.72915 0.19531 0.0741 0.0
C807 C 0.80888 0.1799 0.16593 0.0
C808 C 0.80369 0.21093 0.1388 0.0
H809 H 0.78749 0.13218 0.18728 0.0
H810 H 0.83043 0.1759 0.19344 0.0
C811 C 0.7758 0.21528 0.10281 0.0
C812 C 0.18586 0.20904 0.8899 0.0
C813 C 0.15727 0.20684 0.85501 0.0
H814 H 0.23314 0.18791 0.91143 0.0
C815 C 0.15177 0.17788 0.82169 0.0
H816 H 0.19029 0.23078 0.91697 0.0
C817 C 0.17649 0.15324 0.81832 0.0
C818 C 0.20674 0.15749 0.84831 0.0
H819 H 0.12975 0.17557 0.79466 0.0
H820 H 0.17303 0.13239 0.78889 0.0
C821 C 0.21038 0.18454 0.88662 0.0
C822 C 0.15659 0.78316 0.16482 0.0
C823 C 0.162 0.75202 0.13819 0.0
H824 H 0.17773 0.83094 0.18619 0.0
C825 C 0.19041 0.74738 0.10336 0.0
H826 H 0.13467 0.78741 0.19145 0.0
C827 C 0.21481 0.77211 0.10024 0.0
C828 C 0.21122 0.80185 0.13195 0.0
H829 H 0.19471 0.72388 0.08108 0.0
H830 H 0.23743 0.76707 0.0758 0.0
C831 C 0.18117 0.80805 0.16172 0.0
loop_
_geom_bond_atom_site_label_1
_geom_bond_atom_site_label_2
_geom_bond_distance
_geom_bond_site_symmetry_2
_ccdc_geom_bond_type
Sc0 O3 2.025 . S
Sc0 O10 2.105 . S
Sc0 O13 2.105 . S
Sc0 O16 2.105 . S
Sc0 O19 2.105 . S
Sc1 O3 2.025 . S
Sc1 O11 2.105 . S
Sc1 O15 2.105 . S
Sc1 O17 2.105 . S
Sc1 O21 2.105 . S
Sc2 O3 2.025 . S
Sc2 O12 2.105 . S
Sc2 O14 2.105 . S
Sc2 O18 2.105 . S
Sc2 O20 2.105 . S
O3 Sc0 2.025 . S
O3 Sc1 2.025 . S
O3 Sc2 2.025 . S
C4 O10 1.268 . S
C4 O20 1.268 . S
C5 O11 1.268 . S
C5 O19 1.268 . S
C6 O12 1.268 . S
C6 O21 1.268 . S
C7 O13 1.268 . S
C7 O17 1.268 . S
C8 O14 1.268 . S
C8 O16 1.268 . S
C9 O15 1.268 . S
C9 O18 1.268 . S
O10 Sc0 2.105 . S
O10 C4 1.268 . S
O11 Sc1 2.105 . S
O11 C5 1.268 . S
O12 Sc2 2.105 . S
O12 C6 1.268 . S
O13 Sc0 2.105 . S
O13 C7 1.268 . S
O14 Sc2 2.105 . S
O14 C8 1.268 . S
O15 Sc1 2.105 . S
O15 C9 1.268 . S
O16 Sc0 2.105 . S
O16 C8 1.268 . S
O17 Sc1 2.105 . S
O17 C7 1.268 . S
O18 Sc2 2.105 . S
O18 C9 1.268 . S
O19 Sc0 2.105 . S
O19 C5 1.268 . S
O20 Sc2 2.105 . S
O20 C4 1.268 . S
O21 Sc1 2.105 . S
O21 C6 1.268 . S
Sc22 O25 2.025 . S
Sc22 O32 2.105 . S
Sc22 O35 2.105 . S
Sc22 O38 2.105 . S
Sc22 O41 2.105 . S
Sc23 O25 2.025 . S
Sc23 O33 2.105 . S
Sc23 O37 2.105 . S
Sc23 O39 2.105 . S
Sc23 O43 2.105 . S
Sc24 O25 2.025 . S
Sc24 O34 2.105 . S
Sc24 O36 2.105 . S
Sc24 O40 2.105 . S
Sc24 O42 2.105 . S
O25 Sc22 2.025 . S
O25 Sc23 2.025 . S
O25 Sc24 2.025 . S
C26 O32 1.268 . S
C26 O42 1.268 . S
C27 O33 1.268 . S
C27 O41 1.268 . S
C28 O34 1.268 . S
C28 O43 1.268 . S
C29 O35 1.268 . S
C29 O39 1.268 . S
C30 O36 1.268 . S
C30 O38 1.268 . S
C31 O37 1.268 . S
C31 O40 1.268 . S
O32 Sc22 2.105 . S
O32 C26 1.268 . S
O33 Sc23 2.105 . S
O33 C27 1.268 . S
O34 Sc24 2.105 . S
O34 C28 1.268 . S
O35 Sc22 2.105 . S
O35 C29 1.268 . S
O36 Sc24 2.105 . S
O36 C30 1.268 . S
O37 Sc23 2.105 . S
O37 C31 1.268 . S
O38 Sc22 2.105 . S
O38 C30 1.268 . S
O39 Sc23 2.105 . S
O39 C29 1.268 . S
O40 Sc24 2.105 . S
O40 C31 1.268 . S
O41 Sc22 2.105 . S
O41 C27 1.268 . S
O42 Sc24 2.105 . S
O42 C26 1.268 . S
O43 Sc23 2.105 . S
O43 C28 1.268 . S
Sc44 O47 2.025 . S
Sc44 O54 2.105 . S
Sc44 O57 2.105 . S
Sc44 O60 2.105 . S
Sc44 O63 2.105 . S
Sc45 O47 2.025 . S
Sc45 O55 2.105 . S
Sc45 O59 2.105 . S
Sc45 O61 2.105 . S
Sc45 O65 2.105 . S
Sc46 O47 2.025 . S
Sc46 O56 2.105 . S
Sc46 O58 2.105 . S
Sc46 O62 2.105 . S
Sc46 O64 2.105 . S
O47 Sc44 2.025 . S
O47 Sc45 2.025 . S
O47 Sc46 2.025 . S
C48 O54 1.268 . S
C48 O64 1.268 . S
C49 O55 1.268 . S
C49 O63 1.268 . S
C50 O56 1.268 . S
C50 O65 1.268 . S
C51 O57 1.268 . S
C51 O61 1.268 . S
C52 O58 1.268 . S
C52 O60 1.268 . S
C53 O59 1.268 . S
C53 O62 1.268 . S
O54 Sc44 2.105 . S
O54 C48 1.268 . S
O55 Sc45 2.105 . S
O55 C49 1.268 . S
O56 Sc46 2.105 . S
O56 C50 1.268 . S
O57 Sc44 2.105 . S
O57 C51 1.268 . S
O58 Sc46 2.105 . S
O58 C52 1.268 . S
O59 Sc45 2.105 . S
O59 C53 1.268 . S
O60 Sc44 2.105 . S
O60 C52 1.268 . S
O61 Sc45 2.105 . S
O61 C51 1.268 . S
O62 Sc46 2.105 . S
O62 C53 1.268 . S
O63 Sc44 2.105 . S
O63 C49 1.268 . S
O64 Sc46 2.105 . S
O64 C48 1.268 . S
O65 Sc45 2.105 . S
O65 C50 1.268 . S
Sc66 O69 2.025 . S
Sc66 O76 2.105 . S
Sc66 O79 2.105 . S
Sc66 O82 2.105 . S
Sc66 O85 2.105 . S
Sc67 O69 2.025 . S
Sc67 O77 2.105 . S
Sc67 O81 2.105 . S
Sc67 O83 2.105 . S
Sc67 O87 2.105 . S
Sc68 O69 2.025 . S
Sc68 O78 2.105 . S
Sc68 O80 2.105 . S
Sc68 O84 2.105 . S
Sc68 O86 2.105 . S
O69 Sc66 2.025 . S
O69 Sc67 2.025 . S
O69 Sc68 2.025 . S
C70 O76 1.268 . S
C70 O86 1.268 . S
C71 O77 1.268 . S
C71 O85 1.268 . S
C72 O78 1.268 . S
C72 O87 1.268 . S
C73 O79 1.268 . S
C73 O83 1.268 . S
C74 O80 1.268 . S
C74 O82 1.268 . S
C75 O81 1.268 . S
C75 O84 1.268 . S
O76 Sc66 2.105 . S
O76 C70 1.268 . S
O77 Sc67 2.105 . S
O77 C71 1.268 . S
O78 Sc68 2.105 . S
O78 C72 1.268 . S
O79 Sc66 2.105 . S
O79 C73 1.268 . S
O80 Sc68 2.105 . S
O80 C74 1.268 . S
O81 Sc67 2.105 . S
O81 C75 1.268 . S
O82 Sc66 2.105 . S
O82 C74 1.268 . S
O83 Sc67 2.105 . S
O83 C73 1.268 . S
O84 Sc68 2.105 . S
O84 C75 1.268 . S
O85 Sc66 2.105 . S
O85 C71 1.268 . S
O86 Sc68 2.105 . S
O86 C70 1.268 . S
O87 Sc67 2.105 . S
O87 C72 1.268 . S
Sc88 O91 2.025 . S
Sc88 O98 2.105 . S
Sc88 O101 2.105 . S
Sc88 O104 2.105 . S
Sc88 O107 2.105 . S
Sc89 O91 2.025 . S
Sc89 O99 2.105 . S
Sc89 O103 2.105 . S
Sc89 O105 2.105 . S
Sc89 O109 2.105 . S
Sc90 O91 2.025 . S
Sc90 O100 2.105 . S
Sc90 O102 2.105 . S
Sc90 O106 2.105 . S
Sc90 O108 2.105 . S
O91 Sc88 2.025 . S
O91 Sc89 2.025 . S
O91 Sc90 2.025 . S
C92 O98 1.268 . S
C92 O108 1.268 . S
C93 O99 1.268 . S
C93 O107 1.268 . S
C94 O100 1.268 . S
C94 O109 1.268 . S
C95 O101 1.268 . S
C95 O105 1.268 . S
C96 O102 1.268 . S
C96 O104 1.268 . S
C97 O103 1.268 . S
C97 O106 1.268 . S
O98 Sc88 2.105 . S
O98 C92 1.268 . S
O99 Sc89 2.105 . S
O99 C93 1.268 . S
O100 Sc90 2.105 . S
O100 C94 1.268 . S
O101 Sc88 2.105 . S
O101 C95 1.268 . S
O102 Sc90 2.105 . S
O102 C96 1.268 . S
O103 Sc89 2.105 . S
O103 C97 1.268 . S
O104 Sc88 2.105 . S
O104 C96 1.268 . S
O105 Sc89 2.105 . S
O105 C95 1.268 . S
O106 Sc90 2.105 . S
O106 C97 1.268 . S
O107 Sc88 2.105 . S
O107 C93 1.268 . S
O108 Sc90 2.105 . S
O108 C92 1.268 . S
O109 Sc89 2.105 . S
O109 C94 1.268 . S
Sc110 O113 2.025 . S
Sc110 O120 2.105 . S
Sc110 O123 2.105 . S
Sc110 O126 2.105 . S
Sc110 O129 2.105 . S
Sc111 O113 2.025 . S
Sc111 O121 2.105 . S
Sc111 O125 2.105 . S
Sc111 O127 2.105 . S
Sc111 O131 2.105 . S
Sc112 O113 2.025 . S
Sc112 O122 2.105 . S
Sc112 O124 2.105 . S
Sc112 O128 2.105 . S
Sc112 O130 2.105 . S
O113 Sc110 2.025 . S
O113 Sc111 2.025 . S
O113 Sc112 2.025 . S
C114 O120 1.268 . S
C114 O130 1.268 . S
C115 O121 1.268 . S
C115 O129 1.268 . S
C116 O122 1.268 . S
C116 O131 1.268 . S
C117 O123 1.268 . S
C117 O127 1.268 . S
C118 O124 1.268 . S
C118 O126 1.268 . S
C119 O125 1.268 . S
C119 O128 1.268 . S
O120 Sc110 2.105 . S
O120 C114 1.268 . S
O121 Sc111 2.105 . S
O121 C115 1.268 . S
O122 Sc112 2.105 . S
O122 C116 1.268 . S
O123 Sc110 2.105 . S
O123 C117 1.268 . S
O124 Sc112 2.105 . S
O124 C118 1.268 . S
O125 Sc111 2.105 . S
O125 C119 1.268 . S
O126 Sc110 2.105 . S
O126 C118 1.268 . S
O127 Sc111 2.105 . S
O127 C117 1.268 . S
O128 Sc112 2.105 . S
O128 C119 1.268 . S
O129 Sc110 2.105 . S
O129 C115 1.268 . S
O130 Sc112 2.105 . S
O130 C114 1.268 . S
O131 Sc111 2.105 . S
O131 C116 1.268 . S
Sc132 O135 2.025 . S
Sc132 O142 2.105 . S
Sc132 O145 2.105 . S
Sc132 O148 2.105 . S
Sc132 O151 2.105 . S
Sc133 O135 2.025 . S
Sc133 O143 2.105 . S
Sc133 O147 2.105 . S
Sc133 O149 2.105 . S
Sc133 O153 2.105 . S
Sc134 O135 2.025 . S
Sc134 O144 2.105 . S
Sc134 O146 2.105 . S
Sc134 O150 2.105 . S
Sc134 O152 2.105 . S
O135 Sc132 2.025 . S
O135 Sc133 2.025 . S
O135 Sc134 2.025 . S
C136 O142 1.268 . S
C136 O152 1.268 . S
C137 O143 1.268 . S
C137 O151 1.268 . S
C138 O144 1.268 . S
C138 O153 1.268 . S
C139 O145 1.268 . S
C139 O149 1.268 . S
C140 O146 1.268 . S
C140 O148 1.268 . S
C141 O147 1.268 . S
C141 O150 1.268 . S
O142 Sc132 2.105 . S
O142 C136 1.268 . S
O143 Sc133 2.105 . S
O143 C137 1.268 . S
O144 Sc134 2.105 . S
O144 C138 1.268 . S
O145 Sc132 2.105 . S
O145 C139 1.268 . S
O146 Sc134 2.105 . S
O146 C140 1.268 . S
O147 Sc133 2.105 . S
O147 C141 1.268 . S
O148 Sc132 2.105 . S
O148 C140 1.268 . S
O149 Sc133 2.105 . S
O149 C139 1.268 . S
O150 Sc134 2.105 . S
O150 C141 1.268 . S
O151 Sc132 2.105 . S
O151 C137 1.268 . S
O152 Sc134 2.105 . S
O152 C136 1.268 . S
O153 Sc133 2.105 . S
O153 C138 1.268 . S
Sc154 O157 2.025 . S
Sc154 O164 2.105 . S
Sc154 O167 2.105 . S
Sc154 O170 2.105 . S
Sc154 O173 2.105 . S
Sc155 O157 2.025 . S
Sc155 O165 2.105 . S
Sc155 O169 2.105 . S
Sc155 O171 2.105 . S
Sc155 O175 2.105 . S
Sc156 O157 2.025 . S
Sc156 O166 2.105 . S
Sc156 O168 2.105 . S
Sc156 O172 2.105 . S
Sc156 O174 2.105 . S
O157 Sc154 2.025 . S
O157 Sc155 2.025 . S
O157 Sc156 2.025 . S
C158 O164 1.268 . S
C158 O174 1.268 . S
C159 O165 1.268 . S
C159 O173 1.268 . S
C160 O166 1.268 . S
C160 O175 1.268 . S
C161 O167 1.268 . S
C161 O171 1.268 . S
C162 O168 1.268 . S
C162 O170 1.268 . S
C163 O169 1.268 . S
C163 O172 1.268 . S
O164 Sc154 2.105 . S
O164 C158 1.268 . S
O165 Sc155 2.105 . S
O165 C159 1.268 . S
O166 Sc156 2.105 . S
O166 C160 1.268 . S
O167 Sc154 2.105 . S
O167 C161 1.268 . S
O168 Sc156 2.105 . S
O168 C162 1.268 . S
O169 Sc155 2.105 . S
O169 C163 1.268 . S
O170 Sc154 2.105 . S
O170 C162 1.268 . S
O171 Sc155 2.105 . S
O171 C161 1.268 . S
O172 Sc156 2.105 . S
O172 C163 1.268 . S
O173 Sc154 2.105 . S
O173 C159 1.268 . S
O174 Sc156 2.105 . S
O174 C158 1.268 . S
O175 Sc155 2.105 . S
O175 C160 1.268 . S
Sc176 O179 2.025 . S
Sc176 O186 2.105 . S
Sc176 O189 2.105 . S
Sc176 O192 2.105 . S
Sc176 O195 2.105 . S
Sc177 O179 2.025 . S
Sc177 O187 2.105 . S
Sc177 O191 2.105 . S
Sc177 O193 2.105 . S
Sc177 O197 2.105 . S
Sc178 O179 2.025 . S
Sc178 O188 2.105 . S
Sc178 O190 2.105 . S
Sc178 O194 2.105 . S
Sc178 O196 2.105 . S
O179 Sc176 2.025 . S
O179 Sc177 2.025 . S
O179 Sc178 2.025 . S
C180 O186 1.268 . S
C180 O196 1.268 . S
C181 O187 1.268 . S
C181 O195 1.268 . S
C182 O188 1.268 . S
C182 O197 1.268 . S
C183 O189 1.268 . S
C183 O193 1.268 . S
C184 O190 1.268 . S
C184 O192 1.268 . S
C185 O191 1.268 . S
C185 O194 1.268 . S
O186 Sc176 2.105 . S
O186 C180 1.268 . S
O187 Sc177 2.105 . S
O187 C181 1.268 . S
O188 Sc178 2.105 . S
O188 C182 1.268 . S
O189 Sc176 2.105 . S
O189 C183 1.268 . S
O190 Sc178 2.105 . S
O190 C184 1.268 . S
O191 Sc177 2.105 . S
O191 C185 1.268 . S
O192 Sc176 2.105 . S
O192 C184 1.268 . S
O193 Sc177 2.105 . S
O193 C183 1.268 . S
O194 Sc178 2.105 . S
O194 C185 1.268 . S
O195 Sc176 2.105 . S
O195 C181 1.268 . S
O196 Sc178 2.105 . S
O196 C180 1.268 . S
O197 Sc177 2.105 . S
O197 C182 1.268 . S
Sc198 O201 2.025 . S
Sc198 O208 2.105 . S
Sc198 O211 2.105 . S
Sc198 O214 2.105 . S
Sc198 O217 2.105 . S
Sc199 O201 2.025 . S
Sc199 O209 2.105 . S
Sc199 O213 2.105 . S
Sc199 O215 2.105 . S
Sc199 O219 2.105 . S
Sc200 O201 2.025 . S
Sc200 O210 2.105 . S
Sc200 O212 2.105 . S
Sc200 O216 2.105 . S
Sc200 O218 2.105 . S
O201 Sc198 2.025 . S
O201 Sc199 2.025 . S
O201 Sc200 2.025 . S
C202 O208 1.268 . S
C202 O218 1.268 . S
C203 O209 1.268 . S
C203 O217 1.268 . S
C204 O210 1.268 . S
C204 O219 1.268 . S
C205 O211 1.268 . S
C205 O215 1.268 . S
C206 O212 1.268 . S
C206 O214 1.268 . S
C207 O213 1.268 . S
C207 O216 1.268 . S
O208 Sc198 2.105 . S
O208 C202 1.268 . S
O209 Sc199 2.105 . S
O209 C203 1.268 . S
O210 Sc200 2.105 . S
O210 C204 1.268 . S
O211 Sc198 2.105 . S
O211 C205 1.268 . S
O212 Sc200 2.105 . S
O212 C206 1.268 . S
O213 Sc199 2.105 . S
O213 C207 1.268 . S
O214 Sc198 2.105 . S
O214 C206 1.268 . S
O215 Sc199 2.105 . S
O215 C205 1.268 . S
O216 Sc200 2.105 . S
O216 C207 1.268 . S
O217 Sc198 2.105 . S
O217 C203 1.268 . S
O218 Sc200 2.105 . S
O218 C202 1.268 . S
O219 Sc199 2.105 . S
O219 C204 1.268 . S
Sc220 O223 2.025 . S
Sc220 O230 2.105 . S
Sc220 O233 2.105 . S
Sc220 O236 2.105 . S
Sc220 O239 2.105 . S
Sc221 O223 2.025 . S
Sc221 O231 2.105 . S
Sc221 O235 2.105 . S
Sc221 O237 2.105 . S
Sc221 O241 2.105 . S
Sc222 O223 2.025 . S
Sc222 O232 2.105 . S
Sc222 O234 2.105 . S
Sc222 O238 2.105 . S
Sc222 O240 2.105 . S
O223 Sc220 2.025 . S
O223 Sc221 2.025 . S
O223 Sc222 2.025 . S
C224 O230 1.268 . S
C224 O240 1.268 . S
C225 O231 1.268 . S
C225 O239 1.268 . S
C226 O232 1.268 . S
C226 O241 1.268 . S
C227 O233 1.268 . S
C227 O237 1.268 . S
C228 O234 1.268 . S
C228 O236 1.268 . S
C229 O235 1.268 . S
C229 O238 1.268 . S
O230 Sc220 2.105 . S
O230 C224 1.268 . S
O231 Sc221 2.105 . S
O231 C225 1.268 . S
O232 Sc222 2.105 . S
O232 C226 1.268 . S
O233 Sc220 2.105 . S
O233 C227 1.268 . S
O234 Sc222 2.105 . S
O234 C228 1.268 . S
O235 Sc221 2.105 . S
O235 C229 1.268 . S
O236 Sc220 2.105 . S
O236 C228 1.268 . S
O237 Sc221 2.105 . S
O237 C227 1.268 . S
O238 Sc222 2.105 . S
O238 C229 1.268 . S
O239 Sc220 2.105 . S
O239 C225 1.268 . S
O240 Sc222 2.105 . S
O240 C224 1.268 . S
O241 Sc221 2.105 . S
O241 C226 1.268 . S
Sc242 O245 2.025 . S
Sc242 O252 2.105 . S
Sc242 O255 2.105 . S
Sc242 O258 2.105 . S
Sc242 O261 2.105 . S
Sc243 O245 2.025 . S
Sc243 O253 2.105 . S
Sc243 O257 2.105 . S
Sc243 O259 2.105 . S
Sc243 O263 2.105 . S
Sc244 O245 2.025 . S
Sc244 O254 2.105 . S
Sc244 O256 2.105 . S
Sc244 O260 2.105 . S
Sc244 O262 2.105 . S
O245 Sc242 2.025 . S
O245 Sc243 2.025 . S
O245 Sc244 2.025 . S
C246 O252 1.268 . S
C246 O262 1.268 . S
C247 O253 1.268 . S
C247 O261 1.268 . S
C248 O254 1.268 . S
C248 O263 1.268 . S
C249 O255 1.268 . S
C249 O259 1.268 . S
C250 O256 1.268 . S
C250 O258 1.268 . S
C251 O257 1.268 . S
C251 O260 1.268 . S
O252 Sc242 2.105 . S
O252 C246 1.268 . S
O253 Sc243 2.105 . S
O253 C247 1.268 . S
O254 Sc244 2.105 . S
O254 C248 1.268 . S
O255 Sc242 2.105 . S
O255 C249 1.268 . S
O256 Sc244 2.105 . S
O256 C250 1.268 . S
O257 Sc243 2.105 . S
O257 C251 1.268 . S
O258 Sc242 2.105 . S
O258 C250 1.268 . S
O259 Sc243 2.105 . S
O259 C249 1.268 . S
O260 Sc244 2.105 . S
O260 C251 1.268 . S
O261 Sc242 2.105 . S
O261 C247 1.268 . S
O262 Sc244 2.105 . S
O262 C246 1.268 . S
O263 Sc243 2.105 . S
O263 C248 1.268 . S
Sc264 O267 2.025 . S
Sc264 O274 2.105 . S
Sc264 O277 2.105 . S
Sc264 O280 2.105 . S
Sc264 O283 2.105 . S
Sc265 O267 2.025 . S
Sc265 O275 2.105 . S
Sc265 O279 2.105 . S
Sc265 O281 2.105 . S
Sc265 O285 2.105 . S
Sc266 O267 2.025 . S
Sc266 O276 2.105 . S
Sc266 O278 2.105 . S
Sc266 O282 2.105 . S
Sc266 O284 2.105 . S
O267 Sc264 2.025 . S
O267 Sc265 2.025 . S
O267 Sc266 2.025 . S
C268 O274 1.268 . S
C268 O284 1.268 . S
C269 O275 1.268 . S
C269 O283 1.268 . S
C270 O276 1.268 . S
C270 O285 1.268 . S
C271 O277 1.268 . S
C271 O281 1.268 . S
C272 O278 1.268 . S
C272 O280 1.268 . S
C273 O279 1.268 . S
C273 O282 1.268 . S
O274 Sc264 2.105 . S
O274 C268 1.268 . S
O275 Sc265 2.105 . S
O275 C269 1.268 . S
O276 Sc266 2.105 . S
O276 C270 1.268 . S
O277 Sc264 2.105 . S
O277 C271 1.268 . S
O278 Sc266 2.105 . S
O278 C272 1.268 . S
O279 Sc265 2.105 . S
O279 C273 1.268 . S
O280 Sc264 2.105 . S
O280 C272 1.268 . S
O281 Sc265 2.105 . S
O281 C271 1.268 . S
O282 Sc266 2.105 . S
O282 C273 1.268 . S
O283 Sc264 2.105 . S
O283 C269 1.268 . S
O284 Sc266 2.105 . S
O284 C268 1.268 . S
O285 Sc265 2.105 . S
O285 C270 1.268 . S
Sc286 O289 2.025 . S
Sc286 O296 2.105 . S
Sc286 O299 2.105 . S
Sc286 O302 2.105 . S
Sc286 O305 2.105 . S
Sc287 O289 2.025 . S
Sc287 O297 2.105 . S
Sc287 O301 2.105 . S
Sc287 O303 2.105 . S
Sc287 O307 2.105 . S
Sc288 O289 2.025 . S
Sc288 O298 2.105 . S
Sc288 O300 2.105 . S
Sc288 O304 2.105 . S
Sc288 O306 2.105 . S
O289 Sc286 2.025 . S
O289 Sc287 2.025 . S
O289 Sc288 2.025 . S
C290 O296 1.268 . S
C290 O306 1.268 . S
C291 O297 1.268 . S
C291 O305 1.268 . S
C292 O298 1.268 . S
C292 O307 1.268 . S
C293 O299 1.268 . S
C293 O303 1.268 . S
C294 O300 1.268 . S
C294 O302 1.268 . S
C295 O301 1.268 . S
C295 O304 1.268 . S
O296 Sc286 2.105 . S
O296 C290 1.268 . S
O297 Sc287 2.105 . S
O297 C291 1.268 . S
O298 Sc288 2.105 . S
O298 C292 1.268 . S
O299 Sc286 2.105 . S
O299 C293 1.268 . S
O300 Sc288 2.105 . S
O300 C294 1.268 . S
O301 Sc287 2.105 . S
O301 C295 1.268 . S
O302 Sc286 2.105 . S
O302 C294 1.268 . S
O303 Sc287 2.105 . S
O303 C293 1.268 . S
O304 Sc288 2.105 . S
O304 C295 1.268 . S
O305 Sc286 2.105 . S
O305 C291 1.268 . S
O306 Sc288 2.105 . S
O306 C290 1.268 . S
O307 Sc287 2.105 . S
O307 C292 1.268 . S
Sc308 O311 2.025 . S
Sc308 O318 2.105 . S
Sc308 O321 2.105 . S
Sc308 O324 2.105 . S
Sc308 O327 2.105 . S
Sc309 O311 2.025 . S
Sc309 O319 2.105 . S
Sc309 O323 2.105 . S
Sc309 O325 2.105 . S
Sc309 O329 2.105 . S
Sc310 O311 2.025 . S
Sc310 O320 2.105 . S
Sc310 O322 2.105 . S
Sc310 O326 2.105 . S
Sc310 O328 2.105 . S
O311 Sc308 2.025 . S
O311 Sc309 2.025 . S
O311 Sc310 2.025 . S
C312 O318 1.268 . S
C312 O328 1.268 . S
C313 O319 1.268 . S
C313 O327 1.268 . S
C314 O320 1.268 . S
C314 O329 1.268 . S
C315 O321 1.268 . S
C315 O325 1.268 . S
C316 O322 1.268 . S
C316 O324 1.268 . S
C317 O323 1.268 . S
C317 O326 1.268 . S
O318 Sc308 2.105 . S
O318 C312 1.268 . S
O319 Sc309 2.105 . S
O319 C313 1.268 . S
O320 Sc310 2.105 . S
O320 C314 1.268 . S
O321 Sc308 2.105 . S
O321 C315 1.268 . S
O322 Sc310 2.105 . S
O322 C316 1.268 . S
O323 Sc309 2.105 . S
O323 C317 1.268 . S
O324 Sc308 2.105 . S
O324 C316 1.268 . S
O325 Sc309 2.105 . S
O325 C315 1.268 . S
O326 Sc310 2.105 . S
O326 C317 1.268 . S
O327 Sc308 2.105 . S
O327 C313 1.268 . S
O328 Sc310 2.105 . S
O328 C312 1.268 . S
O329 Sc309 2.105 . S
O329 C314 1.268 . S
Sc330 O333 2.025 . S
Sc330 O340 2.105 . S
Sc330 O343 2.105 . S
Sc330 O346 2.105 . S
Sc330 O349 2.105 . S
Sc331 O333 2.025 . S
Sc331 O341 2.105 . S
Sc331 O345 2.105 . S
Sc331 O347 2.105 . S
Sc331 O351 2.105 . S
Sc332 O333 2.025 . S
Sc332 O342 2.105 . S
Sc332 O344 2.105 . S
Sc332 O348 2.105 . S
Sc332 O350 2.105 . S
O333 Sc330 2.025 . S
O333 Sc331 2.025 . S
O333 Sc332 2.025 . S
C334 O340 1.268 . S
C334 O350 1.268 . S
C335 O341 1.268 . S
C335 O349 1.268 . S
C336 O342 1.268 . S
C336 O351 1.268 . S
C337 O343 1.268 . S
C337 O347 1.268 . S
C338 O344 1.268 . S
C338 O346 1.268 . S
C339 O345 1.268 . S
C339 O348 1.268 . S
O340 Sc330 2.105 . S
O340 C334 1.268 . S
O341 Sc331 2.105 . S
O341 C335 1.268 . S
O342 Sc332 2.105 . S
O342 C336 1.268 . S
O343 Sc330 2.105 . S
O343 C337 1.268 . S
O344 Sc332 2.105 . S
O344 C338 1.268 . S
O345 Sc331 2.105 . S
O345 C339 1.268 . S
O346 Sc330 2.105 . S
O346 C338 1.268 . S
O347 Sc331 2.105 . S
O347 C337 1.268 . S
O348 Sc332 2.105 . S
O348 C339 1.268 . S
O349 Sc330 2.105 . S
O349 C335 1.268 . S
O350 Sc332 2.105 . S
O350 C334 1.268 . S
O351 Sc331 2.105 . S
O351 C336 1.268 . S
C352 C353 1.387 . S
C352 H356 0.950 . S
C352 C361 1.390 . S
C353 C352 1.387 . S
C353 C355 1.387 . S
H354 C361 0.950 . S
C355 C353 1.387 . S
C355 C357 1.390 . S
C355 H359 0.950 . S
H356 C352 0.950 . S
C357 C355 1.390 . S
C357 C358 1.387 . S
C357 H360 0.950 . S
C358 C357 1.387 . S
C358 C361 1.387 . S
H359 C355 0.950 . S
H360 C357 0.950 . S
C361 C352 1.390 . S
C361 H354 0.950 . S
C361 C358 1.387 . S
C362 C363 1.387 . S
C362 H366 0.950 . S
C362 C371 1.390 . S
C363 C362 1.387 . S
C363 C365 1.387 . S
H364 C371 0.950 . S
C365 C363 1.387 . S
C365 C367 1.390 . S
C365 H369 0.950 . S
H366 C362 0.950 . S
C367 C365 1.390 . S
C367 C368 1.387 . S
C367 H370 0.950 . S
C368 C367 1.387 . S
C368 C371 1.387 . S
H369 C365 0.950 . S
H370 C367 0.950 . S
C371 C362 1.390 . S
C371 H364 0.950 . S
C371 C368 1.387 . S
C372 C373 1.387 . S
C372 H376 0.950 . S
C372 C381 1.390 . S
C373 C372 1.387 . S
C373 C375 1.387 . S
H374 C381 0.950 . S
C375 C373 1.387 . S
C375 C377 1.390 . S
C375 H379 0.950 . S
H376 C372 0.950 . S
C377 C375 1.390 . S
C377 C378 1.387 . S
C377 H380 0.950 . S
C378 C377 1.387 . S
C378 C381 1.387 . S
H379 C375 0.950 . S
H380 C377 0.950 . S
C381 C372 1.390 . S
C381 H374 0.950 . S
C381 C378 1.387 . S
C382 C383 1.387 . S
C382 H386 0.950 . S
C382 C391 1.390 . S
C383 C382 1.387 . S
C383 C385 1.387 . S
H384 C391 0.950 . S
C385 C383 1.387 . S
C385 C387 1.390 . S
C385 H389 0.950 . S
H386 C382 0.950 . S
C387 C385 1.390 . S
C387 C388 1.387 . S
C387 H390 0.950 . S
C388 C387 1.387 . S
C388 C391 1.387 . S
H389 C385 0.950 . S
H390 C387 0.950 . S
C391 C382 1.390 . S
C391 H384 0.950 . S
C391 C388 1.387 . S
C392 C393 1.387 . S
C392 H396 0.950 . S
C392 C401 1.390 . S
C393 C392 1.387 . S
C393 C395 1.387 . S
H394 C401 0.950 . S
C395 C393 1.387 . S
C395 C397 1.390 . S
C395 H399 0.950 . S
H396 C392 0.950 . S
C397 C395 1.390 . S
C397 C398 1.387 . S
C397 H400 0.950 . S
C398 C397 1.387 . S
C398 C401 1.387 . S
H399 C395 0.950 . S
H400 C397 0.950 . S
C401 C392 1.390 . S
C401 H394 0.950 . S
C401 C398 1.387 . S
C402 C403 1.387 . S
C402 H406 0.950 . S
C402 C411 1.390 . S
C403 C402 1.387 . S
C403 C405 1.387 . S
H404 C411 0.950 . S
C405 C403 1.387 . S
C405 C407 1.390 . S
C405 H409 0.950 . S
H406 C402 0.950 . S
C407 C405 1.390 . S
C407 C408 1.387 . S
C407 H410 0.950 . S
C408 C407 1.387 . S
C408 C411 1.387 . S
H409 C405 0.950 . S
H410 C407 0.950 . S
C411 C402 1.390 . S
C411 H404 0.950 . S
C411 C408 1.387 . S
C412 C413 1.387 . S
C412 H416 0.950 . S
C412 C421 1.390 . S
C413 C412 1.387 . S
C413 C415 1.387 . S
H414 C421 0.950 . S
C415 C413 1.387 . S
C415 C417 1.390 . S
C415 H419 0.950 . S
H416 C412 0.950 . S
C417 C415 1.390 . S
C417 C418 1.387 . S
C417 H420 0.950 . S
C418 C417 1.387 . S
C418 C421 1.387 . S
H419 C415 0.950 . S
H420 C417 0.950 . S
C421 C412 1.390 . S
C421 H414 0.950 . S
C421 C418 1.387 . S
C422 C423 1.387 . S
C422 H426 0.950 . S
C422 C431 1.390 . S
C423 C422 1.387 . S
C423 C425 1.387 . S
H424 C431 0.950 . S
C425 C423 1.387 . S
C425 C427 1.390 . S
C425 H429 0.950 . S
H426 C422 0.950 . S
C427 C425 1.390 . S
C427 C428 1.387 . S
C427 H430 0.950 . S
C428 C427 1.387 . S
C428 C431 1.387 . S
H429 C425 0.950 . S
H430 C427 0.950 . S
C431 C422 1.390 . S
C431 H424 0.950 . S
C431 C428 1.387 . S
C432 C433 1.387 . S
C432 H436 0.950 . S
C432 C441 1.390 . S
C433 C432 1.387 . S
C433 C435 1.387 . S
H434 C441 0.950 . S
C435 C433 1.387 . S
C435 C437 1.390 . S
C435 H439 0.968 . S
H436 C432 0.950 . S
C437 C435 1.390 . S
C437 C438 1.387 . S
C437 H440 0.950 . S
C438 C437 1.387 . S
C438 C441 1.387 . S
H439 C435 0.968 . S
H440 C437 0.950 . S
C441 C432 1.390 . S
C441 H434 0.950 . S
C441 C438 1.387 . S
C442 C443 1.387 . S
C442 H446 0.950 . S
C442 C451 1.390 . S
C443 C442 1.387 . S
C443 C445 1.387 . S
H444 C451 0.950 . S
C445 C443 1.387 . S
C445 C447 1.390 . S
C445 H449 0.950 . S
H446 C442 0.950 . S
C447 C445 1.390 . S
C447 C448 1.387 . S
C447 H450 0.950 . S
C448 C447 1.387 . S
C448 C451 1.387 . S
H449 C445 0.950 . S
H450 C447 0.950 . S
C451 C442 1.390 . S
C451 H444 0.950 . S
C451 C448 1.387 . S
C452 C453 1.387 . S
C452 H456 0.950 . S
C452 C461 1.390 . S
C453 C452 1.387 . S
C453 C455 1.387 . S
H454 C461 0.950 1_545 S
C455 C453 1.387 . S
C455 C457 1.390 . S
C455 H459 0.950 . S
H456 C452 0.950 . S
C457 C455 1.390 . S
C457 C458 1.387 . S
C457 H460 0.950 . S
C458 C457 1.387 . S
C458 C461 1.387 . S
H459 C455 0.950 . S
H460 C457 0.950 . S
C461 C452 1.390 . S
C461 H454 0.950 1_565 S
C461 C458 1.387 . S
C462 C463 1.387 . S
C462 H466 0.950 1_655 S
C462 C471 1.390 . S
C463 C462 1.387 . S
C463 C465 1.387 . S
H464 C471 0.950 . S
C465 C463 1.387 . S
C465 C467 1.390 . S
C465 H469 0.950 . S
H466 C462 0.950 1_455 S
C467 C465 1.390 . S
C467 C468 1.387 . S
C467 H470 0.950 . S
C468 C467 1.387 . S
C468 C471 1.387 . S
H469 C465 0.950 . S
H470 C467 0.950 . S
C471 C462 1.390 . S
C471 H464 0.950 . S
C471 C468 1.387 . S
C472 C473 1.387 . S
C472 H476 0.950 1_565 S
C472 C481 1.390 . S
C473 C472 1.387 . S
C473 C475 1.387 . S
H474 C481 0.950 . S
C475 C473 1.387 . S
C475 C477 1.390 . S
C475 H479 0.950 . S
H476 C472 0.950 1_545 S
C477 C475 1.390 . S
C477 C478 1.387 . S
C477 H480 0.950 . S
C478 C477 1.387 . S
C478 C481 1.387 . S
H479 C475 0.950 . S
H480 C477 0.950 . S
C481 C472 1.390 . S
C481 H474 0.950 . S
C481 C478 1.387 . S
C482 C483 1.387 . S
C482 H486 0.950 . S
C482 C491 1.390 . S
C483 C482 1.387 . S
C483 C485 1.387 . S
H484 C491 0.950 . S
C485 C483 1.387 . S
C485 C487 1.390 . S
C485 H489 0.950 . S
H486 C482 0.950 . S
C487 C485 1.390 . S
C487 C488 1.387 . S
C487 H490 0.950 . S
C488 C487 1.387 . S
C488 C491 1.387 . S
H489 C485 0.950 . S
H490 C487 0.950 . S
C491 C482 1.390 . S
C491 H484 0.950 . S
C491 C488 1.387 . S
C492 C493 1.387 . S
C492 H496 0.950 . S
C492 C501 1.390 . S
C493 C492 1.387 . S
C493 C495 1.387 . S
H494 C501 0.950 . S
C495 C493 1.387 . S
C495 C497 1.390 . S
C495 H499 0.950 . S
H496 C492 0.950 . S
C497 C495 1.390 . S
C497 C498 1.387 . S
C497 H500 0.950 1_545 S
C498 C497 1.387 . S
C498 C501 1.387 . S
H499 C495 0.950 . S
H500 C497 0.950 1_565 S
C501 C492 1.390 . S
C501 H494 0.950 . S
C501 C498 1.387 . S
C502 C503 1.387 . S
C502 H506 0.950 . S
C502 C511 1.390 . S
C503 C502 1.387 . S
C503 C505 1.387 . S
H504 C511 0.950 . S
C505 C503 1.387 . S
C505 C507 1.390 . S
C505 H509 0.950 . S
H506 C502 0.950 . S
C507 C505 1.390 . S
C507 C508 1.387 . S
C507 H510 0.939 1_455 S
C508 C507 1.387 . S
C508 C511 1.387 . S
H509 C505 0.950 . S
H510 C507 0.939 1_655 S
C511 C502 1.390 . S
C511 H504 0.950 . S
C511 C508 1.387 . S
C512 C513 1.387 . S
C512 H516 0.950 . S
C512 C521 1.390 . S
C513 C512 1.387 . S
C513 C515 1.387 . S
H514 C521 0.950 . S
C515 C513 1.387 . S
C515 C517 1.390 . S
C515 H519 0.950 . S
H516 C512 0.950 . S
C517 C515 1.390 . S
C517 C518 1.387 . S
C517 H520 0.950 . S
C518 C517 1.387 . S
C518 C521 1.387 . S
H519 C515 0.950 . S
H520 C517 0.950 . S
C521 C512 1.390 . S
C521 H514 0.950 . S
C521 C518 1.387 . S
C522 C523 1.387 . S
C522 H526 0.950 . S
C522 C531 1.390 . S
C523 C522 1.387 . S
C523 C525 1.387 . S
H524 C531 0.950 . S
C525 C523 1.387 . S
C525 C527 1.390 . S
C525 H529 0.950 . S
H526 C522 0.950 . S
C527 C525 1.390 . S
C527 C528 1.387 . S
C527 H530 0.950 . S
C528 C527 1.387 . S
C528 C531 1.387 . S
H529 C525 0.950 . S
H530 C527 0.950 . S
C531 C522 1.390 . S
C531 H524 0.950 . S
C531 C528 1.387 . S
C532 C533 1.387 . S
C532 H536 0.950 . S
C532 C541 1.390 . S
C533 C532 1.387 . S
C533 C535 1.387 . S
H534 C541 0.950 . S
C535 C533 1.387 . S
C535 C537 1.390 . S
C535 H539 0.950 . S
H536 C532 0.950 . S
C537 C535 1.390 . S
C537 C538 1.387 . S
C537 H540 0.950 . S
C538 C537 1.387 . S
C538 C541 1.387 . S
H539 C535 0.950 . S
H540 C537 0.950 . S
C541 C532 1.390 . S
C541 H534 0.950 . S
C541 C538 1.387 . S
C542 C543 1.387 . S
C542 H546 0.950 . S
C542 C551 1.390 . S
C543 C542 1.387 . S
C543 C545 1.387 . S
H544 C551 0.950 . S
C545 C543 1.387 . S
C545 C547 1.390 . S
C545 H549 0.950 . S
H546 C542 0.950 . S
C547 C545 1.390 . S
C547 C548 1.387 . S
C547 H550 0.950 . S
C548 C547 1.387 . S
C548 C551 1.387 . S
H549 C545 0.950 . S
H550 C547 0.950 . S
C551 C542 1.390 . S
C551 H544 0.950 . S
C551 C548 1.387 . S
C552 C553 1.387 . S
C552 H556 0.950 . S
C552 C561 1.390 1_544 S
C553 C552 1.387 . S
C553 C555 1.387 . S
H554 C561 0.950 . S
C555 C553 1.387 . S
C555 C557 1.390 1_544 S
C555 H559 0.950 . S
H556 C552 0.950 . S
C557 C555 1.390 1_566 S
C557 C558 1.387 . S
C557 H560 0.950 . S
C558 C557 1.387 . S
C558 C561 1.387 . S
H559 C555 0.950 . S
H560 C557 0.950 . S
C561 C552 1.390 1_566 S
C561 H554 0.950 . S
C561 C558 1.387 . S
C562 C563 1.387 . S
C562 H566 0.950 . S
C562 C571 1.390 1_654 S
C563 C562 1.387 . S
C563 C565 1.387 . S
H564 C571 0.950 . S
C565 C563 1.387 . S
C565 C567 1.390 1_654 S
C565 H569 0.950 . S
H566 C562 0.950 . S
C567 C565 1.390 1_456 S
C567 C568 1.387 . S
C567 H570 0.950 . S
C568 C567 1.387 . S
C568 C571 1.387 . S
H569 C565 0.950 . S
H570 C567 0.950 . S
C571 C562 1.390 1_456 S
C571 H564 0.950 . S
C571 C568 1.387 . S
C572 C573 1.387 . S
C572 H576 0.950 . S
C572 C581 1.390 1_546 S
C573 C572 1.387 . S
C573 C575 1.387 . S
H574 C581 0.950 . S
C575 C573 1.387 . S
C575 C577 1.390 1_546 S
C575 H579 0.950 . S
H576 C572 0.950 . S
C577 C575 1.390 1_564 S
C577 C578 1.387 . S
C577 H580 0.950 . S
C578 C577 1.387 . S
C578 C581 1.387 . S
H579 C575 0.950 . S
H580 C577 0.950 . S
C581 C572 1.390 1_564 S
C581 H574 0.950 . S
C581 C578 1.387 . S
C582 C583 1.387 . S
C582 H586 0.950 . S
C582 C591 1.390 1_656 S
C583 C582 1.387 . S
C583 C585 1.387 . S
H584 C591 0.950 . S
C585 C583 1.387 . S
C585 C587 1.390 1_656 S
C585 H589 0.950 . S
H586 C582 0.950 . S
C587 C585 1.390 1_454 S
C587 C588 1.387 . S
C587 H590 0.950 . S
C588 C587 1.387 . S
C588 C591 1.387 . S
H589 C585 0.950 . S
H590 C587 0.950 . S
C591 C582 1.390 1_454 S
C591 H584 0.950 . S
C591 C588 1.387 . S
C592 C593 1.387 . S
C592 H596 0.950 . S
C592 C601 1.390 . S
C593 C592 1.387 . S
C593 C595 1.387 . S
H594 C601 0.950 . S
C595 C593 1.387 . S
C595 C597 1.390 . S
C595 H599 0.950 . S
H596 C592 0.950 . S
C597 C595 1.390 . S
C597 C598 1.387 . S
C597 H600 0.950 1_554 S
C598 C597 1.387 . S
C598 C601 1.387 . S
H599 C595 0.950 . S
H600 C597 0.950 1_556 S
C601 C592 1.390 . S
C601 H594 0.950 . S
C601 C598 1.387 . S
C602 C603 1.387 . S
C602 H606 0.950 . S
C602 C611 1.390 . S
C603 C602 1.387 . S
C603 C605 1.387 . S
H604 C611 0.950 . S
C605 C603 1.387 . S
C605 C607 1.390 . S
C605 H609 0.950 1_556 S
H606 C602 0.950 . S
C607 C605 1.390 . S
C607 C608 1.387 . S
C607 H610 0.950 . S
C608 C607 1.387 . S
C608 C611 1.387 . S
H609 C605 0.950 1_554 S
H610 C607 0.950 . S
C611 C602 1.390 . S
C611 H604 0.950 . S
C611 C608 1.387 . S
C612 C613 1.387 . S
C612 H616 0.950 . S
C612 C621 1.390 . S
C613 C612 1.387 . S
C613 C615 1.387 . S
H614 C621 0.950 . S
C615 C613 1.387 . S
C615 C617 1.390 . S
C615 H619 0.950 . S
H616 C612 0.950 . S
C617 C615 1.390 . S
C617 C618 1.387 . S
C617 H620 0.950 . S
C618 C617 1.387 . S
C618 C621 1.387 . S
H619 C615 0.950 . S
H620 C617 0.950 . S
C621 C612 1.390 . S
C621 H614 0.950 . S
C621 C618 1.387 . S
C622 C623 1.387 . S
C622 H626 0.950 . S
C622 C631 1.390 . S
C623 C622 1.387 . S
C623 C625 1.387 . S
H624 C631 0.950 . S
C625 C623 1.387 . S
C625 C627 1.390 . S
C625 H629 0.950 . S
H626 C622 0.950 . S
C627 C625 1.390 . S
C627 C628 1.387 . S
C627 H630 0.950 . S
C628 C627 1.387 . S
C628 C631 1.387 . S
H629 C625 0.950 . S
H630 C627 0.950 . S
C631 C622 1.390 . S
C631 H624 0.950 . S
C631 C628 1.387 . S
C632 C633 1.387 . S
C632 H636 0.950 . S
C632 C641 1.390 . S
C633 C632 1.387 . S
C633 C635 1.387 . S
H634 C641 0.950 1_554 S
C635 C633 1.387 . S
C635 C637 1.390 . S
C635 H639 0.950 . S
H636 C632 0.950 . S
C637 C635 1.390 . S
C637 C638 1.387 . S
C637 H640 0.950 . S
C638 C637 1.387 . S
C638 C641 1.387 . S
H639 C635 0.950 . S
H640 C637 0.950 . S
C641 C632 1.390 . S
C641 H634 0.950 1_556 S
C641 C638 1.387 . S
C642 C643 1.387 . S
C642 H646 0.950 . S
C642 C651 1.390 . S
C643 C642 1.387 . S
C643 C645 1.387 . S
H644 C651 0.950 1_556 S
C645 C643 1.387 . S
C645 C647 1.390 . S
C645 H649 0.950 . S
H646 C642 0.950 . S
C647 C645 1.390 . S
C647 C648 1.387 . S
C647 H650 0.950 . S
C648 C647 1.387 . S
C648 C651 1.387 . S
H649 C645 0.950 . S
H650 C647 0.950 . S
C651 C642 1.390 . S
C651 H644 0.950 1_554 S
C651 C648 1.387 . S
C652 C653 1.387 . S
C652 H656 0.950 . S
C652 C661 1.390 . S
C653 C652 1.387 . S
C653 C655 1.387 . S
H654 C661 0.950 . S
C655 C653 1.387 . S
C655 C657 1.390 . S
C655 H659 0.950 . S
H656 C652 0.950 . S
C657 C655 1.390 . S
C657 C658 1.387 . S
C657 H660 0.950 1_556 S
C658 C657 1.387 . S
C658 C661 1.387 . S
H659 C655 0.950 . S
H660 C657 0.950 1_554 S
C661 C652 1.390 . S
C661 H654 0.950 . S
C661 C658 1.387 . S
C662 C663 1.387 . S
C662 H666 0.950 . S
C662 C671 1.390 . S
C663 C662 1.387 . S
C663 C665 1.387 . S
H664 C671 0.950 . S
C665 C663 1.387 . S
C665 C667 1.390 . S
C665 H669 0.950 1_554 S
H666 C662 0.950 . S
C667 C665 1.390 . S
C667 C668 1.387 . S
C667 H670 0.950 . S
C668 C667 1.387 . S
C668 C671 1.387 . S
H669 C665 0.950 1_556 S
H670 C667 0.950 . S
C671 C662 1.390 . S
C671 H664 0.950 . S
C671 C668 1.387 . S
C672 C673 1.387 . S
C672 H676 0.950 . S
C672 C681 1.390 . S
C673 C672 1.387 . S
C673 C675 1.387 . S
H674 C681 0.950 . S
C675 C673 1.387 . S
C675 C677 1.390 . S
C675 H679 0.950 . S
H676 C672 0.950 . S
C677 C675 1.390 . S
C677 C678 1.387 . S
C677 H680 0.950 . S
C678 C677 1.387 . S
C678 C681 1.387 . S
H679 C675 0.950 . S
H680 C677 0.950 . S
C681 C672 1.390 . S
C681 H674 0.950 . S
C681 C678 1.387 . S
C682 C683 1.387 . S
C682 H686 0.950 . S
C682 C691 1.390 . S
C683 C682 1.387 . S
C683 C685 1.387 . S
H684 C691 0.950 . S
C685 C683 1.387 . S
C685 C687 1.390 . S
C685 H689 0.950 . S
H686 C682 0.950 . S
C687 C685 1.390 . S
C687 C688 1.387 . S
C687 H690 0.950 . S
C688 C687 1.387 . S
C688 C691 1.387 . S
H689 C685 0.950 . S
H690 C687 0.950 . S
C691 C682 1.390 . S
C691 H684 0.950 . S
C691 C688 1.387 . S
C692 C693 1.387 . S
C692 H696 0.950 . S
C692 C701 1.390 . S
C693 C692 1.387 . S
C693 C695 1.387 . S
H694 C701 0.950 . S
C695 C693 1.387 . S
C695 C697 1.390 . S
C695 H699 0.950 . S
H696 C692 0.950 . S
C697 C695 1.390 . S
C697 C698 1.387 . S
C697 H700 0.950 . S
C698 C697 1.387 . S
C698 C701 1.387 . S
H699 C695 0.950 . S
H700 C697 0.950 . S
C701 C692 1.390 . S
C701 H694 0.950 . S
C701 C698 1.387 . S
C702 C703 1.387 . S
C702 H706 0.950 . S
C702 C711 1.390 . S
C703 C702 1.387 . S
C703 C705 1.387 . S
H704 C711 0.950 . S
C705 C703 1.387 . S
C705 C707 1.390 . S
C705 H709 0.950 . S
H706 C702 0.950 . S
C707 C705 1.390 . S
C707 C708 1.387 . S
C707 H710 0.950 . S
C708 C707 1.387 . S
C708 C711 1.387 . S
H709 C705 0.950 . S
H710 C707 0.950 . S
C711 C702 1.390 . S
C711 H704 0.950 . S
C711 C708 1.387 . S
C712 C713 1.387 . S
C712 H716 0.950 . S
C712 C721 1.390 . S
C713 C712 1.387 . S
C713 C715 1.387 . S
H714 C721 0.950 . S
C715 C713 1.387 . S
C715 C717 1.390 . S
C715 H719 0.950 . S
H716 C712 0.950 . S
C717 C715 1.390 . S
C717 C718 1.387 . S
C717 H720 0.950 . S
C718 C717 1.387 . S
C718 C721 1.387 . S
H719 C715 0.950 . S
H720 C717 0.950 . S
C721 C712 1.390 . S
C721 H714 0.950 . S
C721 C718 1.387 . S
C722 C723 1.387 . S
C722 H726 0.950 . S
C722 C731 1.390 . S
C723 C722 1.387 . S
C723 C725 1.387 . S
H724 C731 0.950 . S
C725 C723 1.387 . S
C725 C727 1.390 . S
C725 H729 0.950 . S
H726 C722 0.950 . S
C727 C725 1.390 . S
C727 C728 1.387 . S
C727 H730 0.950 . S
C728 C727 1.387 . S
C728 C731 1.387 . S
H729 C725 0.950 . S
H730 C727 0.950 . S
C731 C722 1.390 . S
C731 H724 0.950 . S
C731 C728 1.387 . S
C732 C733 1.387 . S
C732 H736 0.950 . S
C732 C741 1.390 . S
C733 C732 1.387 . S
C733 C735 1.387 . S
H734 C741 0.950 . S
C735 C733 1.387 . S
C735 C737 1.390 . S
C735 H739 0.950 . S
H736 C732 0.950 . S
C737 C735 1.390 . S
C737 C738 1.387 . S
C737 H740 0.950 . S
C738 C737 1.387 . S
C738 C741 1.387 . S
H739 C735 0.950 . S
H740 C737 0.950 . S
C741 C732 1.390 . S
C741 H734 0.950 . S
C741 C738 1.387 . S
C742 C743 1.387 . S
C742 H746 0.950 . S
C742 C751 1.390 . S
C743 C742 1.387 . S
C743 C745 1.387 . S
H744 C751 0.950 . S
C745 C743 1.387 . S
C745 C747 1.390 . S
C745 H749 0.950 . S
H746 C742 0.950 . S
C747 C745 1.390 . S
C747 C748 1.387 . S
C747 H750 0.950 . S
C748 C747 1.387 . S
C748 C751 1.387 . S
H749 C745 0.950 . S
H750 C747 0.950 . S
C751 C742 1.390 . S
C751 H744 0.950 . S
C751 C748 1.387 . S
C752 C753 1.387 . S
C752 H756 0.950 . S
C752 C761 1.390 . S
C753 C752 1.387 . S
C753 C755 1.387 . S
H754 C761 0.950 . S
C755 C753 1.387 . S
C755 C757 1.390 . S
C755 H759 0.950 . S
H756 C752 0.950 . S
C757 C755 1.390 . S
C757 C758 1.387 . S
C757 H760 0.950 . S
C758 C757 1.387 . S
C758 C761 1.387 . S
H759 C755 0.950 . S
H760 C757 0.950 . S
C761 C752 1.390 . S
C761 H754 0.950 . S
C761 C758 1.387 . S
C762 C763 1.387 . S
C762 H766 0.950 . S
C762 C771 1.390 . S
C763 C762 1.387 . S
C763 C765 1.387 . S
H764 C771 0.950 . S
C765 C763 1.387 . S
C765 C767 1.390 . S
C765 H769 0.950 . S
H766 C762 0.950 . S
C767 C765 1.390 . S
C767 C768 1.387 . S
C767 H770 0.950 . S
C768 C767 1.387 . S
C768 C771 1.387 . S
H769 C765 0.950 . S
H770 C767 0.950 . S
C771 C762 1.390 . S
C771 H764 0.950 . S
C771 C768 1.387 . S
C772 C773 1.387 . S
C772 H776 0.950 . S
C772 C781 1.390 . S
C773 C772 1.387 . S
C773 C775 1.387 . S
H774 C781 0.950 . S
C775 C773 1.387 . S
C775 C777 1.390 . S
C775 H779 0.950 . S
H776 C772 0.950 . S
C777 C775 1.390 . S
C777 C778 1.387 . S
C777 H780 0.950 . S
C778 C777 1.387 . S
C778 C781 1.387 . S
H779 C775 0.950 . S
H780 C777 0.950 . S
C781 C772 1.390 . S
C781 H774 0.950 . S
C781 C778 1.387 . S
C782 C783 1.387 . S
C782 H786 0.950 . S
C782 C791 1.390 . S
C783 C782 1.387 . S
C783 C785 1.387 . S
H784 C791 0.950 . S
C785 C783 1.387 . S
C785 C787 1.390 . S
C785 H789 0.950 . S
H786 C782 0.950 . S
C787 C785 1.390 . S
C787 C788 1.387 . S
C787 H790 0.950 . S
C788 C787 1.387 . S
C788 C791 1.387 . S
H789 C785 0.950 . S
H790 C787 0.950 . S
C791 C782 1.390 . S
C791 H784 0.950 . S
C791 C788 1.387 . S
C792 C793 1.387 . S
C792 H796 0.950 . S
C792 C801 1.390 . S
C793 C792 1.387 . S
C793 C795 1.387 . S
H794 C801 0.950 . S
C795 C793 1.387 . S
C795 C797 1.390 . S
C795 H799 0.950 . S
H796 C792 0.950 . S
C797 C795 1.390 . S
C797 C798 1.387 . S
C797 H800 0.950 . S
C798 C797 1.387 . S
C798 C801 1.387 . S
H799 C795 0.950 . S
H800 C797 0.950 . S
C801 C792 1.390 . S
C801 H794 0.950 . S
C801 C798 1.387 . S
C802 C803 1.387 . S
C802 H806 0.950 . S
C802 C811 1.390 . S
C803 C802 1.387 . S
C803 C805 1.387 . S
H804 C811 0.950 . S
C805 C803 1.387 . S
C805 C807 1.390 . S
C805 H809 0.950 . S
H806 C802 0.950 . S
C807 C805 1.390 . S
C807 C808 1.387 . S
C807 H810 0.950 . S
C808 C807 1.387 . S
C808 C811 1.387 . S
H809 C805 0.950 . S
H810 C807 0.950 . S
C811 C802 1.390 . S
C811 H804 0.950 . S
C811 C808 1.387 . S
C812 C813 1.387 . S
C812 H816 0.950 . S
C812 C821 1.390 . S
C813 C812 1.387 . S
C813 C815 1.387 . S
H814 C821 0.950 . S
C815 C813 1.387 . S
C815 C817 1.390 . S
C815 H819 0.950 . S
H816 C812 0.950 . S
C817 C815 1.390 . S
C817 C818 1.387 . S
C817 H820 0.950 . S
C818 C817 1.387 . S
C818 C821 1.387 . S
H819 C815 0.950 . S
H820 C817 0.950 . S
C821 C812 1.390 . S
C821 H814 0.950 . S
C821 C818 1.387 . S
C822 C823 1.387 . S
C822 H826 0.950 . S
C822 C831 1.390 . S
C823 C822 1.387 . S
C823 C825 1.387 . S
H824 C831 0.950 . S
C825 C823 1.387 . S
C825 C827 1.390 . S
C825 H829 0.950 . S
H826 C822 0.950 . S
C827 C825 1.390 . S
C827 C828 1.387 . S
C827 H830 0.950 . S
C828 C827 1.387 . S
C828 C831 1.387 . S
H829 C825 0.950 . S
H830 C827 0.950 . S
C831 C822 1.390 . S
C831 H824 0.950 . S
C831 C828 1.387 . S
C353 C6 1.355 . S
C358 C250 1.372 . S
C363 C31 1.357 . S
C368 C180 1.372 . S
C373 C206 1.371 . S
C378 C50 1.355 . S
C383 C224 1.372 . S
C388 C75 1.357 . S
C393 C95 1.355 . S
C398 C290 1.371 . S
C403 C115 1.355 . S
C408 C316 1.371 . S
C413 C334 1.371 . S
C418 C139 1.357 . S
C423 C272 1.372 . S
C428 C159 1.357 . S
C433 C182 1.357 1_545 S
C438 C74 1.371 . S
C443 C4 1.372 . S
C448 C207 1.355 1_455 S
C453 C30 1.372 . S
C458 C226 1.355 1_565 S
C463 C251 1.354 1_655 S
C468 C48 1.371 . S
C473 C271 1.356 1_565 S
C478 C114 1.373 . S
C483 C140 1.371 . S
C488 C291 1.355 1_655 S
C493 C158 1.371 . S
C498 C315 1.357 1_545 S
C503 C96 1.372 . S
C508 C335 1.357 1_455 S
C513 C93 1.144 . S
C518 C9 1.144 . S
C523 C28 1.147 . S
C528 C117 1.147 . S
C533 C137 1.147 . S
C538 C53 1.147 . S
C543 C161 1.147 . S
C548 C72 1.147 . S
C553 C269 1.144 . S
C558 C185 1.144 . S
C563 C204 1.147 . S
C568 C293 1.147 . S
C573 C229 1.147 . S
C578 C313 1.147 . S
C583 C337 1.144 . S
C588 C248 1.144 . S
C593 C5 1.679 . S
C598 C294 1.670 1_554 S
C603 C312 1.671 1_556 S
C608 C29 1.679 . S
C613 C338 1.670 1_554 S
C618 C49 1.678 . S
C623 C268 1.670 1_556 S
C628 C73 1.680 . S
C633 C97 1.679 . S
C638 C246 1.671 1_556 S
C643 C116 1.679 . S
C648 C184 1.669 1_554 S
C653 C141 1.678 . S
C658 C202 1.669 1_556 S
C663 C228 1.671 1_554 S
C668 C160 1.679 . S
C673 C118 1.671 . S
C678 C181 1.678 . S
C683 C136 1.669 . S
C688 C205 1.679 . S
C693 C225 1.678 . S
C698 C162 1.670 . S
C703 C92 1.669 . S
C708 C249 1.678 . S
C713 C70 1.671 . S
C718 C273 1.678 . S
C723 C292 1.678 . S
C728 C8 1.669 . S
C733 C26 1.671 . S
C738 C317 1.679 . S
C743 C336 1.679 . S
C748 C52 1.670 . S
C753 C163 1.314 . S
C758 C7 1.312 . S
C763 C94 1.314 . S
C768 C27 1.312 . S
C773 C119 1.314 . S
C778 C51 1.312 . S
C783 C138 1.314 . S
C788 C71 1.312 . S
C793 C183 1.312 . S
C798 C339 1.314 . S
C803 C270 1.314 . S
C808 C203 1.312 . S
C813 C295 1.312 . S
C818 C227 1.314 . S
C823 C247 1.314 . S
C828 C314 1.312 . S
