# Generated by pormake.
# Topology yfu, (5)-cn, num edge types: 1
# Building blocks:
#     Node 0, Type 0, BuildingBlock: XOMCOT_clean_sbu_1, # of connection points: 5
#     Node 1, Type 0, BuildingBlock: XOMCOT_clean_sbu_1, # of connection points: 5
#     Node 2, Type 0, BuildingBlock: XOMCOT_clean_sbu_1, # of connection points: 5
#     Node 3, Type 0, BuildingBlock: XOMCOT_clean_sbu_1, # of connection points: 5
#     Node 4, Type 0, BuildingBlock: XOMCOT_clean_sbu_1, # of connection points: 5
#     Node 5, Type 0, BuildingBlock: XOMCOT_clean_sbu_1, # of connection points: 5
#     Node 6, Type 0, BuildingBlock: XOMCOT_clean_sbu_1, # of connection points: 5
#     Node 7, Type 0, BuildingBlock: XOMCOT_clean_sbu_1, # of connection points: 5
#     Node 8, Type 0, BuildingBlock: XOMCOT_clean_sbu_1, # of connection points: 5
#     Node 9, Type 0, BuildingBlock: XOMCOT_clean_sbu_1, # of connection points: 5
#     Node 10, Type 0, BuildingBlock: XOMCOT_clean_sbu_1, # of connection points: 5
#     Node 11, Type 0, BuildingBlock: XOMCOT_clean_sbu_1, # of connection points: 5
#     Node 12, Type 0, BuildingBlock: XOMCOT_clean_sbu_1, # of connection points: 5
#     Node 13, Type 0, BuildingBlock: XOMCOT_clean_sbu_1, # of connection points: 5
#     Node 14, Type 0, BuildingBlock: XOMCOT_clean_sbu_1, # of connection points: 5
#     Node 15, Type 0, BuildingBlock: XOMCOT_clean_sbu_1, # of connection points: 5
#     Node 16, Type 0, BuildingBlock: XOMCOT_clean_sbu_1, # of connection points: 5
#     Node 17, Type 0, BuildingBlock: XOMCOT_clean_sbu_1, # of connection points: 5
#     Node 18, Type 0, BuildingBlock: XOMCOT_clean_sbu_1, # of connection points: 5
#     Node 19, Type 0, BuildingBlock: XOMCOT_clean_sbu_1, # of connection points: 5
#     Node 20, Type 0, BuildingBlock: XOMCOT_clean_sbu_1, # of connection points: 5
#     Node 21, Type 0, BuildingBlock: XOMCOT_clean_sbu_1, # of connection points: 5
#     Node 22, Type 0, BuildingBlock: XOMCOT_clean_sbu_1, # of connection points: 5
#     Node 23, Type 0, BuildingBlock: XOMCOT_clean_sbu_1, # of connection points: 5
#     Node 24, Type 0, BuildingBlock: XOMCOT_clean_sbu_1, # of connection points: 5
#     Node 25, Type 0, BuildingBlock: XOMCOT_clean_sbu_1, # of connection points: 5
#     Node 26, Type 0, BuildingBlock: XOMCOT_clean_sbu_1, # of connection points: 5
#     Node 27, Type 0, BuildingBlock: XOMCOT_clean_sbu_1, # of connection points: 5
#     Node 28, Type 0, BuildingBlock: XOMCOT_clean_sbu_1, # of connection points: 5
#     Node 29, Type 0, BuildingBlock: XOMCOT_clean_sbu_1, # of connection points: 5
#     Node 30, Type 0, BuildingBlock: XOMCOT_clean_sbu_1, # of connection points: 5
#     Node 31, Type 0, BuildingBlock: XOMCOT_clean_sbu_1, # of connection points: 5
#     Edge 32, Type (0, 0), BuildingBlock: OJICUG_clean_linker_0, # of connection points: 2
#     Edge 33, Type (0, 0), BuildingBlock: OJICUG_clean_linker_0, # of connection points: 2
#     Edge 34, Type (0, 0), BuildingBlock: OJICUG_clean_linker_0, # of connection points: 2
#     Edge 35, Type (0, 0), BuildingBlock: OJICUG_clean_linker_0, # of connection points: 2
#     Edge 36, Type (0, 0), BuildingBlock: OJICUG_clean_linker_0, # of connection points: 2
#     Edge 37, Type (0, 0), BuildingBlock: OJICUG_clean_linker_0, # of connection points: 2
#     Edge 38, Type (0, 0), BuildingBlock: OJICUG_clean_linker_0, # of connection points: 2
#     Edge 39, Type (0, 0), BuildingBlock: OJICUG_clean_linker_0, # of connection points: 2
#     Edge 40, Type (0, 0), BuildingBlock: OJICUG_clean_linker_0, # of connection points: 2
#     Edge 41, Type (0, 0), BuildingBlock: OJICUG_clean_linker_0, # of connection points: 2
#     Edge 42, Type (0, 0), BuildingBlock: OJICUG_clean_linker_0, # of connection points: 2
#     Edge 43, Type (0, 0), BuildingBlock: OJICUG_clean_linker_0, # of connection points: 2
#     Edge 44, Type (0, 0), BuildingBlock: OJICUG_clean_linker_0, # of connection points: 2
#     Edge 45, Type (0, 0), BuildingBlock: OJICUG_clean_linker_0, # of connection points: 2
#     Edge 46, Type (0, 0), BuildingBlock: OJICUG_clean_linker_0, # of connection points: 2
#     Edge 47, Type (0, 0), BuildingBlock: OJICUG_clean_linker_0, # of connection points: 2
#     Edge 48, Type (0, 0), BuildingBlock: OJICUG_clean_linker_0, # of connection points: 2
#     Edge 49, Type (0, 0), BuildingBlock: OJICUG_clean_linker_0, # of connection points: 2
#     Edge 50, Type (0, 0), BuildingBlock: OJICUG_clean_linker_0, # of connection points: 2
#     Edge 51, Type (0, 0), BuildingBlock: OJICUG_clean_linker_0, # of connection points: 2
#     Edge 52, Type (0, 0), BuildingBlock: OJICUG_clean_linker_0, # of connection points: 2
#     Edge 53, Type (0, 0), BuildingBlock: OJICUG_clean_linker_0, # of connection points: 2
#     Edge 54, Type (0, 0), BuildingBlock: OJICUG_clean_linker_0, # of connection points: 2
#     Edge 55, Type (0, 0), BuildingBlock: OJICUG_clean_linker_0, # of connection points: 2
#     Edge 56, Type (0, 0), BuildingBlock: OJICUG_clean_linker_0, # of connection points: 2
#     Edge 57, Type (0, 0), BuildingBlock: OJICUG_clean_linker_0, # of connection points: 2
#     Edge 58, Type (0, 0), BuildingBlock: OJICUG_clean_linker_0, # of connection points: 2
#     Edge 59, Type (0, 0), BuildingBlock: OJICUG_clean_linker_0, # of connection points: 2
#     Edge 60, Type (0, 0), BuildingBlock: OJICUG_clean_linker_0, # of connection points: 2
#     Edge 61, Type (0, 0), BuildingBlock: OJICUG_clean_linker_0, # of connection points: 2
#     Edge 62, Type (0, 0), BuildingBlock: OJICUG_clean_linker_0, # of connection points: 2
#     Edge 63, Type (0, 0), BuildingBlock: OJICUG_clean_linker_0, # of connection points: 2
#     Edge 64, Type (0, 0), BuildingBlock: OJICUG_clean_linker_0, # of connection points: 2
#     Edge 65, Type (0, 0), BuildingBlock: OJICUG_clean_linker_0, # of connection points: 2
#     Edge 66, Type (0, 0), BuildingBlock: OJICUG_clean_linker_0, # of connection points: 2
#     Edge 67, Type (0, 0), BuildingBlock: OJICUG_clean_linker_0, # of connection points: 2
#     Edge 68, Type (0, 0), BuildingBlock: OJICUG_clean_linker_0, # of connection points: 2
#     Edge 69, Type (0, 0), BuildingBlock: OJICUG_clean_linker_0, # of connection points: 2
#     Edge 70, Type (0, 0), BuildingBlock: OJICUG_clean_linker_0, # of connection points: 2
#     Edge 71, Type (0, 0), BuildingBlock: OJICUG_clean_linker_0, # of connection points: 2
#     Edge 72, Type (0, 0), BuildingBlock: OJICUG_clean_linker_0, # of connection points: 2
#     Edge 73, Type (0, 0), BuildingBlock: OJICUG_clean_linker_0, # of connection points: 2
#     Edge 74, Type (0, 0), BuildingBlock: OJICUG_clean_linker_0, # of connection points: 2
#     Edge 75, Type (0, 0), BuildingBlock: OJICUG_clean_linker_0, # of connection points: 2
#     Edge 76, Type (0, 0), BuildingBlock: OJICUG_clean_linker_0, # of connection points: 2
#     Edge 77, Type (0, 0), BuildingBlock: OJICUG_clean_linker_0, # of connection points: 2
#     Edge 78, Type (0, 0), BuildingBlock: OJICUG_clean_linker_0, # of connection points: 2
#     Edge 79, Type (0, 0), BuildingBlock: OJICUG_clean_linker_0, # of connection points: 2
#     Edge 80, Type (0, 0), BuildingBlock: OJICUG_clean_linker_0, # of connection points: 2
#     Edge 81, Type (0, 0), BuildingBlock: OJICUG_clean_linker_0, # of connection points: 2
#     Edge 82, Type (0, 0), BuildingBlock: OJICUG_clean_linker_0, # of connection points: 2
#     Edge 83, Type (0, 0), BuildingBlock: OJICUG_clean_linker_0, # of connection points: 2
#     Edge 84, Type (0, 0), BuildingBlock: OJICUG_clean_linker_0, # of connection points: 2
#     Edge 85, Type (0, 0), BuildingBlock: OJICUG_clean_linker_0, # of connection points: 2
#     Edge 86, Type (0, 0), BuildingBlock: OJICUG_clean_linker_0, # of connection points: 2
#     Edge 87, Type (0, 0), BuildingBlock: OJICUG_clean_linker_0, # of connection points: 2
#     Edge 88, Type (0, 0), BuildingBlock: OJICUG_clean_linker_0, # of connection points: 2
#     Edge 89, Type (0, 0), BuildingBlock: OJICUG_clean_linker_0, # of connection points: 2
#     Edge 90, Type (0, 0), BuildingBlock: OJICUG_clean_linker_0, # of connection points: 2
#     Edge 91, Type (0, 0), BuildingBlock: OJICUG_clean_linker_0, # of connection points: 2
#     Edge 92, Type (0, 0), BuildingBlock: OJICUG_clean_linker_0, # of connection points: 2
#     Edge 93, Type (0, 0), BuildingBlock: OJICUG_clean_linker_0, # of connection points: 2
#     Edge 94, Type (0, 0), BuildingBlock: OJICUG_clean_linker_0, # of connection points: 2
#     Edge 95, Type (0, 0), BuildingBlock: OJICUG_clean_linker_0, # of connection points: 2
#     Edge 96, Type (0, 0), BuildingBlock: OJICUG_clean_linker_0, # of connection points: 2
#     Edge 97, Type (0, 0), BuildingBlock: OJICUG_clean_linker_0, # of connection points: 2
#     Edge 98, Type (0, 0), BuildingBlock: OJICUG_clean_linker_0, # of connection points: 2
#     Edge 99, Type (0, 0), BuildingBlock: OJICUG_clean_linker_0, # of connection points: 2
#     Edge 100, Type (0, 0), BuildingBlock: OJICUG_clean_linker_0, # of connection points: 2
#     Edge 101, Type (0, 0), BuildingBlock: OJICUG_clean_linker_0, # of connection points: 2
#     Edge 102, Type (0, 0), BuildingBlock: OJICUG_clean_linker_0, # of connection points: 2
#     Edge 103, Type (0, 0), BuildingBlock: OJICUG_clean_linker_0, # of connection points: 2
#     Edge 104, Type (0, 0), BuildingBlock: OJICUG_clean_linker_0, # of connection points: 2
#     Edge 105, Type (0, 0), BuildingBlock: OJICUG_clean_linker_0, # of connection points: 2
#     Edge 106, Type (0, 0), BuildingBlock: OJICUG_clean_linker_0, # of connection points: 2
#     Edge 107, Type (0, 0), BuildingBlock: OJICUG_clean_linker_0, # of connection points: 2
#     Edge 108, Type (0, 0), BuildingBlock: OJICUG_clean_linker_0, # of connection points: 2
#     Edge 109, Type (0, 0), BuildingBlock: OJICUG_clean_linker_0, # of connection points: 2
#     Edge 110, Type (0, 0), BuildingBlock: OJICUG_clean_linker_0, # of connection points: 2
#     Edge 111, Type (0, 0), BuildingBlock: OJICUG_clean_linker_0, # of connection points: 2
# Relax obj value: 0.460
# Max RMSD: 0.266
# Mean RMSD: 0.266
data_MOF--net-yfu--node1-XOMCOT_clean_sbu_1--edge1-OJICUG_clean_linker_0
_symmetry_space_group_name_H-M    P1
_symmetry_Int_Tables_number       1
_symmetry_cell_setting            triclinic
loop_
_symmetry_equiv_pos_as_xyz
'x, y, z'
_cell_length_a     34.65973
_cell_length_b     34.642732
_cell_length_c     61.549436
_cell_angle_alpha  89.989436
_cell_angle_beta   89.63926
_cell_angle_gamma 90.013984
loop_
_atom_site_label
_atom_site_type_symbol
_atom_site_fract_x
_atom_site_fract_y
_atom_site_fract_z
_atom_type_partial_charge
C0 C 0.04994 0.15141 0.28776 0.0
C1 C 0.0241 0.182 0.28661 0.0
N2 N 0.04213 0.2144 0.29327 0.0
N3 N 0.08426 0.16442 0.29495 0.0
C4 C 0.07817 0.20269 0.29814 0.0
H5 H 0.04419 0.12178 0.2833 0.0
Co6 Co 0.13222 0.13803 0.29874 0.0
C7 C 0.15716 0.20545 0.27356 0.0
O8 O 0.13424 0.19508 0.25768 0.0
N9 N 0.18043 0.11298 0.30232 0.0
C10 C 0.24241 0.09814 0.29766 0.0
C11 C 0.21352 0.12332 0.29218 0.0
C12 C 0.19011 0.08086 0.31369 0.0
N13 N 0.22768 0.07131 0.31119 0.0
O14 O 0.1316 0.12189 0.26948 0.0
H15 H 0.21666 0.1473 0.28109 0.0
H16 H 0.16999 0.06374 0.32302 0.0
O17 O 0.15885 0.18531 0.291 0.0
C18 C 0.12479 0.08597 0.26756 0.0
O19 O 0.11968 0.06502 0.28514 0.0
N20 N 0.13034 0.14967 0.32831 0.0
C21 C 0.08087 0.15928 0.36304 0.0
C22 C 0.10155 0.19112 0.3548 0.0
C23 C 0.1281 0.18524 0.33777 0.0
C24 C 0.11532 0.11821 0.33854 0.0
C25 C 0.09248 0.12225 0.35694 0.0
H26 H 0.14141 0.20997 0.33007 0.0
H27 H 0.1148 0.09074 0.33034 0.0
H28 H 0.10032 0.22231 0.30325 0.0
H29 H 0.99447 0.18034 0.28128 0.0
H30 H 0.27207 0.09969 0.29214 0.0
H31 H 0.09348 0.22028 0.35929 0.0
H32 H 0.07692 0.09711 0.3628 0.0
C33 C 0.17207 0.81606 0.51028 0.0
C34 C 0.13892 0.79511 0.50617 0.0
N35 N 0.11323 0.80159 0.52233 0.0
N36 N 0.16744 0.83613 0.52888 0.0
C37 C 0.1316 0.8259 0.53602 0.0
H38 H 0.19702 0.81815 0.49971 0.0
Co39 Co 0.19895 0.87664 0.53998 0.0
C40 C 0.1253 0.91488 0.53184 0.0
O41 O 0.12466 0.90262 0.51164 0.0
N42 N 0.22851 0.91801 0.55152 0.0
C43 C 0.24717 0.97826 0.55848 0.0
C44 C 0.22326 0.95542 0.5462 0.0
C45 C 0.25619 0.91897 0.56702 0.0
N46 N 0.26784 0.95536 0.57174 0.0
O47 O 0.20745 0.8963 0.51118 0.0
H48 H 0.20289 0.96557 0.53424 0.0
H49 H 0.26712 0.89363 0.57509 0.0
O50 O 0.15381 0.90708 0.54404 0.0
C51 C 0.2425 0.89006 0.50569 0.0
O52 O 0.26522 0.87283 0.51969 0.0
N53 N 0.19489 0.85529 0.56733 0.0
C54 C 0.1999 0.81093 0.60486 0.0
C55 C 0.16895 0.83683 0.60191 0.0
C56 C 0.16737 0.85951 0.58308 0.0
C57 C 0.22533 0.83123 0.57015 0.0
C58 C 0.22931 0.81017 0.58911 0.0
H59 H 0.14328 0.87883 0.58077 0.0
H60 H 0.24699 0.8288 0.55749 0.0
H61 H 0.11779 0.83864 0.55008 0.0
H62 H 0.13373 0.77751 0.49196 0.0
H63 H 0.24924 1.00937 0.55752 0.0
H64 H 0.14527 0.83838 0.61342 0.0
H65 H 0.25471 0.79232 0.59088 0.0
C66 C 0.47478 0.90151 0.77097 0.0
C67 C 0.48789 0.86588 0.76419 0.0
N68 N 0.48274 0.84031 0.78047 0.0
N69 N 0.46093 0.89866 0.79142 0.0
C70 C 0.46653 0.86102 0.79684 0.0
H71 H 0.47536 0.92784 0.76155 0.0
Co72 Co 0.43868 0.93922 0.80811 0.0
C73 C 0.3764 0.88474 0.80247 0.0
O74 O 0.38154 0.88688 0.78134 0.0
N75 N 0.41734 0.97936 0.82491 0.0
C76 C 0.41522 0.03082 0.84642 0.0
C77 C 0.43893 1.00556 0.83555 0.0
C78 C 0.38044 0.98935 0.8295 0.0
N79 N 0.37829 0.02078 0.84264 0.0
O80 O 0.41299 0.95851 0.78302 0.0
H81 H 0.47013 1.0061 0.83544 0.0
H82 H 0.35576 0.97413 0.82309 0.0
O83 O 0.39618 0.90603 0.81511 0.0
C84 C 0.42334 0.99206 0.77685 0.0
O85 O 0.44978 1.0106 0.78793 0.0
N86 N 0.4654 0.923 0.83223 0.0
C87 C 0.51139 0.92288 0.86892 0.0
C88 C 0.47149 0.91646 0.87077 0.0
C89 C 0.44884 0.91645 0.85207 0.0
C90 C 0.50417 0.92732 0.83003 0.0
C91 C 0.52778 0.92663 0.84811 0.0
H92 H 0.41783 0.91439 0.85372 0.0
H93 H 0.51658 0.93355 0.81425 0.0
H94 H 0.45826 0.84892 0.8124 0.0
H95 H 0.50086 0.8595 0.74856 0.0
H96 H 0.42466 0.05442 0.85659 0.0
H97 H 0.45766 0.91329 0.88649 0.0
H98 H 0.55857 0.93003 0.84573 0.0
C99 C 0.38732 0.23154 0.0187 0.0
C100 C 0.42288 0.24915 0.01599 0.0
N101 N 0.4459 0.23862 0.03256 0.0
N102 N 0.38792 0.20957 0.03679 0.0
C103 C 0.42381 0.21517 0.04503 0.0
H104 H 0.3634 0.23303 0.00753 0.0
Co105 Co 0.35209 0.1716 0.04664 0.0
C106 C 0.41803 0.12846 0.03088 0.0
O107 O 0.41455 0.14521 0.01184 0.0
N108 N 0.31824 0.13308 0.05685 0.0
C109 C 0.29113 0.07579 0.06234 0.0
C110 C 0.31857 0.09575 0.05067 0.0
C111 C 0.29004 0.13523 0.07214 0.0
N112 N 0.27323 0.10057 0.07595 0.0
O113 O 0.33726 0.15983 0.01752 0.0
H114 H 0.33769 0.08375 0.03848 0.0
H115 H 0.28261 0.16156 0.08064 0.0
O116 O 0.39341 0.13497 0.04594 0.0
C117 C 0.30251 0.17055 0.0144 0.0
O118 O 0.28414 0.18867 0.03012 0.0
N119 N 0.3623 0.185 0.07484 0.0
C120 C 0.35978 0.21251 0.11709 0.0
C121 C 0.37711 0.17669 0.1125 0.0
C122 C 0.37777 0.16311 0.09103 0.0
C123 C 0.346 0.21982 0.079 0.0
C124 C 0.34478 0.23429 0.09989 0.0
H125 H 0.38946 0.13484 0.08752 0.0
H126 H 0.33311 0.23607 0.0659 0.0
H127 H 0.43457 0.19989 0.05908 0.0
H128 H 0.43143 0.26745 0.00255 0.0
H129 H 0.28456 0.0454 0.06067 0.0
H130 H 0.38934 0.15926 0.12533 0.0
H131 H 0.33245 0.26268 0.10241 0.0
C132 C 0.02811 0.92804 0.18329 0.0
C133 C 1.01827 0.89094 0.18927 0.0
N134 N 0.03607 0.86599 0.17574 0.0
N135 N 0.05234 0.92698 0.16609 0.0
C136 C 0.05653 0.88862 0.1618 0.0
H137 H 1.01824 0.95426 0.19107 0.0
Co138 Co 0.07436 0.97168 0.15309 0.0
C139 C 0.13949 0.94105 0.12709 0.0
O140 O 0.1313 0.96445 0.11093 0.0
N141 N 0.09702 1.01745 0.14044 0.0
C142 C 0.10656 0.07305 0.12284 0.0
C143 C 0.0794 0.04815 0.1312 0.0
C144 C 0.13509 0.02643 0.13887 0.0
N145 N 0.14178 0.05895 0.12725 0.0
O146 O 0.09881 0.98414 0.17949 0.0
H147 H 0.04874 0.05265 0.13016 0.0
H148 H 0.15778 1.00843 0.14533 0.0
O149 O 0.11869 0.94118 0.1443 0.0
C150 C 0.08227 1.0133 0.18798 0.0
O151 O 0.05161 0.0278 0.17854 0.0
N152 N 0.04737 0.96127 0.12757 0.0
C153 C 1.0066 0.96134 0.08881 0.0
C154 C 0.03464 0.93298 0.09292 0.0
C155 C 0.05434 0.93309 0.11258 0.0
C156 C 1.01672 0.98532 0.12513 0.0
C157 C 0.99694 0.98707 0.10556 0.0
H158 H 0.07517 0.91063 0.11548 0.0
H159 H 1.00862 1.00449 0.13824 0.0
H160 H 0.07474 0.87734 0.14896 0.0
H161 H 0.99886 0.88298 0.20238 0.0
H162 H 0.10064 0.09843 0.11317 0.0
H163 H 0.04098 0.91045 0.08125 0.0
H164 H 0.97459 1.00859 0.10365 0.0
C165 C 0.35092 0.80611 0.42396 0.0
C166 C 0.37664 0.77959 0.43243 0.0
N167 N 0.40612 0.77516 0.41824 0.0
N168 N 0.36436 0.81879 0.4046 0.0
C169 C 0.39718 0.79829 0.4014 0.0
H170 H 0.32622 0.81788 0.43244 0.0
Co171 Co 0.354 0.86477 0.38901 0.0
C172 C 0.4292 0.896 0.40537 0.0
O173 O 0.414 0.91803 0.42052 0.0
N174 N 0.34613 0.91073 0.37318 0.0
C175 C 0.35911 0.96147 0.35219 0.0
C176 C 0.37466 0.93247 0.36439 0.0
C177 C 0.31322 0.92733 0.36584 0.0
N178 N 0.32051 0.95826 0.353 0.0
O179 O 0.34049 0.89032 0.41551 0.0
H180 H 0.4052 0.92713 0.36581 0.0
H181 H 0.28463 0.91606 0.36897 0.0
O182 O 0.40782 0.87676 0.39257 0.0
C183 C 0.30422 0.89105 0.41919 0.0
O184 O 0.28101 0.87699 0.40437 0.0
N185 N 0.36314 0.83895 0.36307 0.0
C186 C 0.36869 0.78607 0.3293 0.0
C187 C 0.39994 0.81042 0.33421 0.0
C188 C 0.39641 0.83723 0.35111 0.0
C189 C 0.33156 0.81826 0.35722 0.0
C190 C 0.33358 0.7918 0.34028 0.0
H191 H 0.42113 0.85455 0.35543 0.0
H192 H 0.3052 0.82094 0.36661 0.0
H193 H 0.41685 0.80375 0.38813 0.0
H194 H 0.37512 0.76691 0.44848 0.0
H195 H 0.37507 0.98308 0.34314 0.0
H196 H 0.42758 0.80708 0.32612 0.0
H197 H 0.30842 0.7745 0.33661 0.0
C198 C 0.48902 0.13715 0.69289 0.0
C199 C 0.50139 0.1743 0.69718 0.0
N200 N 0.49609 0.19624 0.67932 0.0
N201 N 0.47562 0.13529 0.67242 0.0
C202 C 0.48068 0.17169 0.66453 0.0
H203 H 0.48937 0.11314 0.70412 0.0
Co204 Co 0.45271 0.09203 0.65846 0.0
C205 C 0.38911 0.13162 0.63384 0.0
O206 O 0.38814 0.10803 0.61714 0.0
N207 N 0.4297 0.04855 0.64407 0.0
C208 C 0.42515 0.99368 0.6253 0.0
C209 C 0.44975 1.01865 0.63553 0.0
C210 C 0.39237 0.03951 0.63973 0.0
N211 N 0.38893 1.00701 0.62759 0.0
O212 O 0.42301 0.08103 0.68376 0.0
H213 H 0.48056 1.01487 0.63642 0.0
H214 H 0.36812 0.05692 0.64493 0.0
O215 O 0.41328 0.12646 0.64898 0.0
C216 C 0.43288 0.04908 0.69228 0.0
O217 O 0.46135 0.02933 0.68354 0.0
N218 N 0.48425 0.10038 0.63461 0.0
C219 C 0.53786 0.09454 0.60106 0.0
C220 C 0.50535 0.11856 0.59902 0.0
C221 C 0.47867 0.12103 0.61604 0.0
C222 C 0.51709 0.0797 0.63754 0.0
C223 C 0.54357 0.0752 0.62078 0.0
H224 H 0.45427 0.13987 0.6142 0.0
H225 H 0.52138 0.06449 0.65269 0.0
H226 H 0.47216 0.18035 0.64838 0.0
H227 H 0.51354 0.18424 0.71233 0.0
H228 H 0.43369 0.96857 0.61599 0.0
H229 H 0.50071 0.13577 0.58459 0.0
H230 H 0.56793 0.05623 0.62329 0.0
C231 C 0.1516 0.23964 0.93543 0.0
C232 C 0.11876 0.25982 0.94153 0.0
N233 N 0.09186 0.25525 0.92603 0.0
N234 N 0.14539 0.22178 0.91627 0.0
C235 C 0.10889 0.23261 0.91091 0.0
H236 H 0.17727 0.23633 0.94513 0.0
Co237 Co 0.17423 0.18162 0.9022 0.0
C238 C 0.10383 0.14259 0.9164 0.0
O239 O 0.1081 0.15491 0.93642 0.0
N240 N 0.2002 0.14079 0.88742 0.0
C241 C 0.20702 0.09144 0.86445 0.0
C242 C 0.18172 0.11749 0.87324 0.0
C243 C 0.2374 0.12849 0.8865 0.0
N244 N 0.24213 0.09819 0.87275 0.0
O245 O 0.18853 0.16031 0.92958 0.0
H246 H 0.15171 0.11987 0.86884 0.0
H247 H 0.26071 0.14146 0.8955 0.0
O248 O 0.12802 0.15176 0.90161 0.0
C249 C 0.22255 0.17223 0.93368 0.0
O250 O 0.23925 0.19599 0.9199 0.0
N251 N 0.16546 0.20457 0.87573 0.0
C252 C 0.16577 0.25392 0.84036 0.0
C253 C 0.13414 0.22919 0.84413 0.0
C254 C 0.13477 0.20402 0.86198 0.0
C255 C 0.19731 0.22605 0.87123 0.0
C256 C 0.19833 0.25054 0.8535 0.0
H257 H 0.11008 0.18584 0.86538 0.0
H258 H 0.22169 0.22511 0.88207 0.0
H259 H 0.09337 0.22107 0.89722 0.0
H260 H 0.11452 0.27537 0.95661 0.0
H261 H 0.20031 0.07011 0.85219 0.0
H262 H 0.10847 0.23089 0.83423 0.0
H263 H 0.22368 0.26824 0.85079 0.0
C264 C 0.99705 0.92072 0.6809 0.0
C265 C 1.01956 0.88847 0.68484 0.0
N266 N 1.01304 0.86221 0.66911 0.0
N267 N 0.97585 0.91482 0.6629 0.0
C268 C 0.987 0.8792 0.65593 0.0
H269 H 0.99444 0.94567 0.69137 0.0
Co270 Co 0.93231 0.94331 0.65268 0.0
C271 C 0.89883 0.87197 0.66834 0.0
O272 O 0.91416 0.87865 0.68743 0.0
N273 N 0.88828 0.96984 0.64224 0.0
C274 C 0.82685 0.98648 0.63767 0.0
C275 C 0.85163 0.96204 0.6483 0.0
C276 C 0.88493 0.99954 0.62801 0.0
N277 N 0.84775 1.01012 0.62478 0.0
O278 O 0.91646 0.95482 0.6816 0.0
H279 H 0.84335 0.94014 0.65996 0.0
H280 H 0.90923 1.01314 0.62008 0.0
O281 O 0.90355 0.89584 0.65271 0.0
C282 C 0.92109 0.99054 0.68584 0.0
O283 O 0.93601 1.0131 0.67082 0.0
N284 N 0.94983 0.93697 0.62463 0.0
C285 C 0.99445 0.93947 0.5871 0.0
C286 C 0.96982 0.90781 0.59118 0.0
C287 C 0.94684 0.90748 0.61008 0.0
C288 C 0.97171 0.96853 0.62023 0.0
C289 C 0.99282 0.97115 0.60119 0.0
H290 H 0.92904 0.88263 0.61371 0.0
H291 H 0.97338 0.9916 0.63203 0.0
H292 H 0.97347 0.86417 0.64264 0.0
H293 H 0.03798 0.88404 0.69876 0.0
H294 H 0.79583 0.98715 0.63969 0.0
H295 H 0.97005 0.88267 0.58073 0.0
H296 H 1.0098 0.99692 0.59834 0.0
C297 C 0.86057 0.23661 0.41622 0.0
C298 C 0.89099 0.26101 0.42106 0.0
N299 N 0.91833 0.25688 0.40557 0.0
N300 N 0.86913 0.21653 0.39803 0.0
C301 C 0.90408 0.23044 0.39179 0.0
H302 H 0.83571 0.23123 0.42648 0.0
Co303 Co 0.84799 0.16934 0.38817 0.0
C304 C 0.91965 0.13218 0.3715 0.0
O305 O 0.90225 0.11675 0.35469 0.0
N306 N 0.82885 0.12119 0.37846 0.0
C307 C 0.81686 0.05798 0.37811 0.0
C308 C 0.83866 0.08681 0.38724 0.0
C309 C 0.80131 0.1123 0.36378 0.0
N310 N 0.79346 0.07418 0.36337 0.0
O311 O 0.84553 0.15155 0.41738 0.0
H312 H 0.85993 0.08301 0.39985 0.0
H313 H 0.78624 0.1331 0.35394 0.0
O314 O 0.90025 0.15121 0.38536 0.0
C315 C 0.81021 0.14985 0.42328 0.0
O316 O 0.78336 0.15672 0.40881 0.0
N317 N 0.8451 0.18992 0.36021 0.0
C318 C 0.82974 0.24763 0.33023 0.0
C319 C 0.86609 0.22963 0.33061 0.0
C320 C 0.87319 0.20052 0.34578 0.0
C321 C 0.80867 0.20417 0.3583 0.0
C322 C 0.79995 0.23192 0.34285 0.0
H323 H 0.90229 0.19059 0.3474 0.0
H324 H 0.78693 0.19637 0.37019 0.0
H325 H 0.92137 0.21813 0.37892 0.0
H326 H 0.89399 0.2782 0.43564 0.0
H327 H 0.81827 0.02748 0.38186 0.0
H328 H 0.89014 0.24094 0.32126 0.0
H329 H 0.77125 0.24427 0.34274 0.0
C330 C 0.54998 0.09349 0.16274 0.0
C331 C 0.52828 0.12579 0.16801 0.0
N332 N 0.53712 0.15424 0.15392 0.0
N333 N 0.57312 0.1016 0.1456 0.0
C334 C 0.56369 0.13865 0.1404 0.0
H335 H 0.55118 0.06708 0.17208 0.0
Co336 Co 0.61898 0.07495 0.13633 0.0
C337 C 0.64729 0.14422 0.15669 0.0
O338 O 0.63041 0.13324 0.17483 0.0
N339 N 0.6655 0.0507 0.12721 0.0
C340 C 0.72837 0.03814 0.12451 0.0
C341 C 0.70089 0.0611 0.13415 0.0
C342 C 0.67238 0.0207 0.11353 0.0
N343 N 0.71051 1.01268 0.11147 0.0
O344 O 0.62947 0.06001 0.16525 0.0
H345 H 0.70655 0.08366 0.14584 0.0
H346 H 0.64999 1.00492 0.10524 0.0
O347 O 0.64609 0.12286 0.13976 0.0
C348 C 0.62351 0.0241 0.16817 0.0
O349 O 0.61303 1.0028 0.15156 0.0
N350 N 0.60635 0.08455 0.1078 0.0
C351 C 0.56026 0.08908 0.07139 0.0
C352 C 0.58377 0.12056 0.07731 0.0
C353 C 0.60769 0.11733 0.09555 0.0
C354 C 0.58712 0.05277 0.10083 0.0
C355 C 0.56527 0.05388 0.08214 0.0
H356 H 0.62377 0.1422 0.10104 0.0
H357 H 0.58631 0.02718 0.11087 0.0
H358 H 0.57932 0.15585 0.12869 0.0
H359 H 0.50913 0.12877 0.18187 0.0
H360 H 0.75911 0.03943 0.1274 0.0
H361 H 0.5811 0.14826 0.0693 0.0
H362 H 0.54897 0.02845 0.07764 0.0
C363 C 0.63761 0.78007 0.93742 0.0
C364 C 0.60096 0.76741 0.94242 0.0
N365 N 0.57629 0.78173 0.92763 0.0
N366 N 0.63634 0.80275 0.91963 0.0
C367 C 0.59856 0.80276 0.91388 0.0
H368 H 0.66347 0.77307 0.94629 0.0
Co369 Co 0.67832 0.82856 0.90602 0.0
C370 C 0.63112 0.89003 0.92345 0.0
O371 O 0.63322 0.87425 0.94281 0.0
N372 N 0.7199 0.8534 0.89216 0.0
C373 C 0.77382 0.85899 0.87269 0.0
C374 C 0.74891 0.83365 0.88261 0.0
C375 C 0.72747 0.89091 0.8875 0.0
N376 N 0.76033 0.89505 0.87567 0.0
O377 O 0.70124 0.83845 0.93315 0.0
H378 H 0.75104 0.80252 0.8822 0.0
H379 H 0.70891 0.91461 0.89224 0.0
O380 O 0.6499 0.87557 0.90754 0.0
C381 C 0.72924 0.81564 0.93651 0.0
O382 O 0.73642 0.78773 0.92265 0.0
N383 N 0.65863 0.81698 0.87918 0.0
C384 C 0.65616 0.79125 0.83684 0.0
C385 C 0.64994 0.83038 0.84134 0.0
C386 C 0.65144 0.8429 0.86295 0.0
C387 C 0.66169 0.77862 0.87507 0.0
C388 C 0.66 0.76503 0.854 0.0
H389 H 0.65014 0.87346 0.86641 0.0
H390 H 0.66848 0.75885 0.88811 0.0
H391 H 0.58749 0.81857 0.90009 0.0
H392 H 0.59318 0.74858 0.95579 0.0
H393 H 0.79894 0.85131 0.86308 0.0
H394 H 0.64657 0.85113 0.82833 0.0
H395 H 0.66405 0.73445 0.85101 0.0
C396 C 0.97876 0.11923 0.784 0.0
C397 C 1.00086 0.15117 0.77886 0.0
N398 N 0.98529 0.18236 0.78863 0.0
N399 N 0.94896 0.13002 0.7968 0.0
C400 C 0.95413 0.16864 0.79954 0.0
H401 H 0.98338 0.09018 0.77811 0.0
Co402 Co 0.90702 0.09805 0.80538 0.0
C403 C 0.84673 0.15224 0.81941 0.0
O404 O 0.83556 0.1269 0.83404 0.0
N405 N 0.86397 0.06588 0.81345 0.0
C406 C 0.80498 0.04005 0.81183 0.0
C407 C 0.83021 0.0659 0.80251 0.0
C408 C 0.85843 0.0389 0.82921 0.0
N409 N 0.82275 0.02302 0.82864 0.0
O410 O 0.89528 0.08936 0.77563 0.0
H411 H 0.82407 0.084 0.78864 0.0
H412 H 0.87967 0.03091 0.8411 0.0
O413 O 0.87449 0.14388 0.80654 0.0
C414 C 0.90601 0.05503 0.77111 0.0
O415 O 0.92155 0.03399 0.78652 0.0
N416 N 0.92237 0.10297 0.83414 0.0
C417 C 0.96771 0.10303 0.87128 0.0
C418 C 0.9461 0.13583 0.8656 0.0
C419 C 0.92351 0.13525 0.84686 0.0
C420 C 0.94209 0.07068 0.83992 0.0
C421 C 0.9634 0.06944 0.85888 0.0
H422 H 0.91005 0.16176 0.84179 0.0
H423 H 0.94267 0.04609 0.82909 0.0
H424 H 0.93462 0.18684 0.80861 0.0
H425 H 0.02608 0.15149 0.76839 0.0
H426 H 0.77608 0.03368 0.80632 0.0
H427 H 0.94923 0.16276 0.87434 0.0
H428 H 0.97899 0.04326 0.86274 0.0
C429 C 0.65213 0.22429 0.50739 0.0
C430 C 0.61435 0.23562 0.50432 0.0
N431 N 0.59505 0.23211 0.52328 0.0
N432 N 0.65686 0.21297 0.52818 0.0
C433 C 0.62144 0.21835 0.53748 0.0
H434 H 0.67455 0.22384 0.4951 0.0
Co435 Co 0.70252 0.19233 0.54107 0.0
C436 C 0.65195 0.12579 0.5385 0.0
O437 O 0.64639 0.13101 0.51761 0.0
N438 N 0.74686 0.17207 0.55443 0.0
C439 C 0.80198 0.17047 0.57264 0.0
C440 C 0.77678 0.19353 0.56135 0.0
C441 C 0.75455 0.13597 0.56167 0.0
N442 N 0.78794 0.13416 0.57299 0.0
O443 O 0.71789 0.1691 0.5145 0.0
H444 H 0.77924 0.22441 0.55912 0.0
H445 H 0.73549 0.11169 0.55919 0.0
O446 O 0.67433 0.14803 0.54894 0.0
C447 C 0.74775 0.18474 0.50619 0.0
O448 O 0.76194 0.21597 0.51524 0.0
N449 N 0.69031 0.21618 0.56677 0.0
C450 C 0.68779 0.25937 0.60449 0.0
C451 C 0.68219 0.21934 0.60535 0.0
C452 C 0.68389 0.198 0.58615 0.0
C453 C 0.69504 0.255 0.56562 0.0
C454 C 0.69352 0.27726 0.58427 0.0
H455 H 0.68178 0.16694 0.58701 0.0
H456 H 0.70115 0.26848 0.55012 0.0
H457 H 0.6148 0.21122 0.55421 0.0
H458 H 0.60199 0.24575 0.48925 0.0
H459 H 0.82765 0.18029 0.58089 0.0
H460 H 0.67762 0.20468 0.62069 0.0
H461 H 0.69687 0.30825 0.58284 0.0
C462 C 0.54253 0.88414 0.26636 0.0
C463 C 0.52358 0.84928 0.26436 0.0
N464 N 0.53761 0.82468 0.27932 0.0
N465 N 0.56894 0.88144 0.28229 0.0
C466 C 0.56428 0.84521 0.29028 0.0
H467 H 0.53916 0.9088 0.25578 0.0
Co468 Co 0.61048 0.9154 0.28784 0.0
C469 C 0.65105 0.84433 0.2757 0.0
O470 O 0.63281 0.84196 0.2571 0.0
N471 N 0.65311 0.94774 0.29328 0.0
C472 C 0.71084 0.97474 0.28845 0.0
C473 C 0.68446 0.9494 0.28011 0.0
C474 C 0.66168 0.97189 0.30988 0.0
N475 N 0.69655 0.98871 0.30718 0.0
O476 O 0.61808 0.92285 0.25759 0.0
H477 H 0.68842 0.93251 0.2655 0.0
H478 H 0.64318 0.97681 0.32382 0.0
O479 O 0.64485 0.87271 0.28838 0.0
C480 C 0.60635 0.95659 0.25273 0.0
O481 O 0.58984 0.97763 0.26794 0.0
N482 N 0.60029 0.91152 0.31731 0.0
C483 C 0.56646 0.91037 0.35831 0.0
C484 C 0.59581 0.88392 0.35291 0.0
C485 C 0.61287 0.88525 0.33221 0.0
C486 C 0.57345 0.93849 0.32269 0.0
C487 C 0.55649 0.93876 0.34314 0.0
H488 H 0.6343 0.86393 0.32786 0.0
H489 H 0.56398 0.95892 0.31055 0.0
H490 H 0.58274 0.83275 0.30251 0.0
H491 H 0.50262 0.84196 0.25206 0.0
H492 H 0.73909 0.9812 0.28177 0.0
H493 H 0.60407 0.86138 0.36416 0.0
H494 H 0.53347 0.95917 0.34634 0.0
C495 C 0.92652 0.79074 0.00879 0.0
C496 C 0.96394 0.77964 0.00464 0.0
N497 N 0.98695 0.79504 0.01993 0.0
N498 N 0.92546 0.81352 0.02655 0.0
C499 C 0.96288 0.81553 0.03302 0.0
H500 H 0.90155 0.78164 -0.00029 0.0
Co501 Co 0.87974 0.83286 0.0398 0.0
C502 C 0.91717 0.90378 0.02456 0.0
O503 O 0.92525 0.88976 0.00523 0.0
N504 N 0.83429 0.85122 0.05328 0.0
C505 C 0.78155 0.85031 0.07401 0.0
C506 C 0.80994 0.82823 0.06452 0.0
C507 C 0.82014 0.88732 0.05625 0.0
N508 N 0.788 0.88759 0.06892 0.0
O509 O 0.8565 0.83936 0.01244 0.0
H510 H 0.81356 0.7974 0.06641 0.0
H511 H 0.83367 0.913 0.04974 0.0
O512 O 0.89961 0.88327 0.03857 0.0
C513 C 0.82978 0.81508 0.00901 0.0
O514 O 0.82354 0.78721 0.02306 0.0
N515 N 0.90045 0.82547 0.06698 0.0
C516 C 0.89938 0.80395 0.10998 0.0
C517 C 0.90013 0.84309 0.10461 0.0
C518 C 0.90095 0.85344 0.08268 0.0
C519 C 0.90391 0.78754 0.07212 0.0
C520 C 0.90403 0.77611 0.09367 0.0
H521 H 0.8973 0.88349 0.07847 0.0
H522 H 0.90245 0.76589 0.05949 0.0
H523 H 0.97216 0.83124 0.04726 0.0
H524 H 0.9732 0.76031 -0.00818 0.0
H525 H 0.75906 0.83984 0.08478 0.0
H526 H 0.89662 0.86505 0.11698 0.0
H527 H 0.90388 0.74557 0.0975 0.0
C528 C 0.55102 0.62411 0.76614 0.0
C529 C 0.52567 0.65446 0.76296 0.0
N530 N 0.53323 0.68225 0.7777 0.0
N531 N 0.57485 0.63279 0.78266 0.0
C532 C 0.56269 0.66806 0.78951 0.0
H533 H 0.55311 0.59829 0.75633 0.0
Co534 Co 0.61999 0.60681 0.79225 0.0
C535 C 0.64958 0.68001 0.77638 0.0
O536 O 0.63311 0.6738 0.75755 0.0
N537 N 0.66551 0.58255 0.80218 0.0
C538 C 0.72755 0.56771 0.80633 0.0
C539 C 0.70154 0.58929 0.79464 0.0
C540 C 0.67043 0.55652 0.81834 0.0
N541 N 0.70792 0.54724 0.82136 0.0
O542 O 0.63454 0.59597 0.7631 0.0
H543 H 0.70855 0.6092 0.78166 0.0
H544 H 0.64705 0.5445 0.82783 0.0
O545 O 0.64678 0.65518 0.79167 0.0
C546 C 0.63175 0.56002 0.75906 0.0
O547 O 0.62146 0.53646 0.7748 0.0
N548 N 0.60328 0.61301 0.8205 0.0
C549 C 0.55498 0.61334 0.85645 0.0
C550 C 0.58059 0.64429 0.85279 0.0
C551 C 0.60533 0.6433 0.83461 0.0
C552 C 0.581 0.58172 0.82491 0.0
C553 C 0.55768 0.58068 0.84317 0.0
H554 H 0.62325 0.66803 0.8309 0.0
H555 H 0.58003 0.5581 0.81343 0.0
H556 H 0.57723 0.68463 0.80185 0.0
H557 H 0.50417 0.65632 0.75033 0.0
H558 H 0.7586 0.56814 0.80438 0.0
H559 H 0.57939 0.67002 0.86276 0.0
H560 H 0.53937 0.55573 0.84579 0.0
C561 C 0.66636 0.29528 0.03689 0.0
C562 C 0.63673 0.27103 0.03044 0.0
N563 N 0.60594 0.27722 0.04346 0.0
N564 N 0.65421 0.31732 0.0537 0.0
C565 C 0.6176 0.30466 0.05748 0.0
H566 H 0.69382 0.29851 0.02868 0.0
Co567 Co 0.67567 0.36403 0.06543 0.0
C568 C 0.60489 0.38864 0.04457 0.0
O569 O 0.61661 0.37315 0.0262 0.0
N570 N 0.69453 0.41043 0.07759 0.0
C571 C 0.69494 0.46136 0.0997 0.0
C572 C 0.6722 0.4347 0.08944 0.0
C573 C 0.731 0.42335 0.08087 0.0
N574 N 0.73187 0.45411 0.09438 0.0
O575 O 0.692 0.37993 0.03743 0.0
H576 H 0.64136 0.43193 0.09165 0.0
H577 H 0.75663 0.40929 0.07469 0.0
O578 O 0.62621 0.38763 0.06144 0.0
C579 C 0.72736 0.37113 0.03454 0.0
O580 O 0.74566 0.35289 0.0501 0.0
N581 N 0.66488 0.34717 0.09319 0.0
C582 C 0.66547 0.29933 0.12886 0.0
C583 C 0.6306 0.31622 0.12203 0.0
C584 C 0.63115 0.34153 0.10426 0.0
C585 C 0.6991 0.33579 0.10171 0.0
C586 C 0.70016 0.31315 0.12016 0.0
H587 H 0.6044 0.35334 0.09827 0.0
H588 H 0.72568 0.34181 0.09308 0.0
H589 H 0.59773 0.31853 0.06847 0.0
H590 H 0.63719 0.25187 0.01656 0.0
H591 H 0.6852 0.48392 0.1106 0.0
H592 H 0.60312 0.30711 0.12876 0.0
H593 H 0.72774 0.30225 0.12565 0.0
C594 C 0.99554 0.4372 0.29614 0.0
C595 C 1.01802 0.40437 0.2946 0.0
N596 N 0.9946 0.37355 0.29241 0.0
N597 N 0.95799 0.42725 0.29514 0.0
C598 C 0.95851 0.38829 0.29252 0.0
H599 H 1.0058 0.46612 0.29933 0.0
Co600 Co 0.9161 0.4597 0.30273 0.0
C601 C 0.85457 0.40642 0.3156 0.0
O602 O 0.84531 0.4294 0.3318 0.0
N603 N 0.87284 0.49172 0.31019 0.0
C604 C 0.81365 0.51693 0.3079 0.0
C605 C 0.84035 0.49328 0.2981 0.0
C606 C 0.86475 0.51502 0.32735 0.0
N607 N 0.82909 0.53056 0.32633 0.0
O608 O 0.9061 0.46897 0.27285 0.0
H609 H 0.83583 0.47737 0.28322 0.0
H610 H 0.88359 0.51971 0.34093 0.0
O611 O 0.88237 0.41539 0.30294 0.0
C612 C 0.91664 0.50342 0.26852 0.0
O613 O 0.93279 0.52402 0.28393 0.0
N614 N 0.93013 0.45388 0.33172 0.0
C615 C 0.98321 0.4505 0.36554 0.0
C616 C 0.96265 0.41729 0.35916 0.0
C617 C 0.93583 0.41966 0.34225 0.0
C618 C 0.94839 0.48645 0.33851 0.0
C619 C 0.97307 0.48587 0.35613 0.0
H620 H 0.92361 0.39326 0.33599 0.0
H621 H 0.94621 0.51264 0.32903 0.0
H622 H 0.93307 0.37042 0.29253 0.0
H623 H 0.04913 0.40315 0.29589 0.0
H624 H 0.78518 0.52367 0.30186 0.0
H625 H 0.96973 0.38908 0.36556 0.0
H626 H 0.98697 0.51256 0.36079 0.0
C627 C 0.89253 0.74394 0.51596 0.0
C628 C 0.92571 0.76375 0.51019 0.0
N629 N 0.95274 0.75769 0.52551 0.0
N630 N 0.89849 0.72496 0.53477 0.0
C631 C 0.93516 0.73475 0.54036 0.0
H632 H 0.86651 0.74211 0.50643 0.0
Co633 Co 0.86793 0.68639 0.54898 0.0
C634 C 0.93737 0.64556 0.534 0.0
O635 O 0.93413 0.65916 0.51418 0.0
N636 N 0.83932 0.6472 0.56403 0.0
C637 C 0.82854 0.5971 0.58609 0.0
C638 C 0.85585 0.61729 0.57467 0.0
C639 C 0.80122 0.64396 0.56929 0.0
N640 N 0.79421 0.61382 0.58279 0.0
O641 O 0.85068 0.6668 0.52177 0.0
H642 H 0.88621 0.61075 0.57492 0.0
H643 H 0.77913 0.66378 0.56399 0.0
O644 O 0.91254 0.65407 0.5486 0.0
C645 C 0.81695 0.6808 0.51931 0.0
O646 O 0.80372 0.70526 0.53385 0.0
N647 N 0.88011 0.70762 0.57525 0.0
C648 C 0.87874 0.74612 0.61474 0.0
C649 C 0.90084 0.71226 0.61214 0.0
C650 C 0.90128 0.69333 0.59202 0.0
C651 C 0.85905 0.74037 0.57742 0.0
C652 C 0.85845 0.76037 0.5968 0.0
H653 H 0.91763 0.66697 0.59011 0.0
H654 H 0.84222 0.75077 0.56389 0.0
H655 H 0.94977 0.72276 0.55431 0.0
H656 H 0.92989 0.78044 0.4955 0.0
H657 H 0.83344 0.5717 0.59596 0.0
H658 H 0.91718 0.70031 0.62548 0.0
H659 H 0.84243 0.78717 0.59743 0.0
C660 C 0.54322 0.42073 0.67715 0.0
C661 C 0.52433 0.38771 0.68419 0.0
N662 N 0.5332 0.35832 0.67065 0.0
N663 N 0.56435 0.41246 0.65928 0.0
C664 C 0.55706 0.37434 0.65568 0.0
H665 H 0.54244 0.44863 0.68501 0.0
Co666 Co 0.60068 0.44368 0.64353 0.0
C667 C 0.64752 0.37978 0.65794 0.0
O668 O 0.6362 0.38554 0.67808 0.0
N669 N 0.63756 0.47232 0.62691 0.0
C670 C 0.67773 0.48272 0.59905 0.0
C671 C 0.65517 0.45608 0.60948 0.0
C672 C 0.65101 0.50924 0.62691 0.0
N673 N 0.67513 0.51617 0.60991 0.0
O674 O 0.62366 0.46047 0.66966 0.0
H675 H 0.65172 0.42643 0.60441 0.0
H676 H 0.64313 0.53084 0.63881 0.0
O677 O 0.63458 0.40041 0.64244 0.0
C678 C 0.61135 0.4936 0.67528 0.0
O679 O 0.58538 0.51071 0.66316 0.0
N680 N 0.57589 0.43156 0.61811 0.0
C681 C 0.52814 0.42867 0.58223 0.0
C682 C 0.55215 0.39716 0.58731 0.0
C683 C 0.57645 0.39938 0.60537 0.0
C684 C 0.55431 0.46283 0.61276 0.0
C685 C 0.53082 0.46233 0.59468 0.0
H686 H 0.5948 0.3752 0.60936 0.0
H687 H 0.55513 0.48828 0.62292 0.0
H688 H 0.57097 0.35777 0.64303 0.0
H689 H 0.50592 0.38552 0.6984 0.0
H690 H 0.69559 0.4777 0.58483 0.0
H691 H 0.55089 0.37055 0.57811 0.0
H692 H 0.51366 0.48762 0.59104 0.0
C693 C 0.86895 0.29948 0.93798 0.0
C694 C 0.90295 0.27943 0.94115 0.0
N695 N 0.93061 0.29515 0.92849 0.0
N696 N 0.87491 0.32832 0.92358 0.0
C697 C 0.91276 0.32424 0.91788 0.0
H698 H 0.842 0.29405 0.94635 0.0
Co699 Co 0.8398 0.36932 0.91628 0.0
C700 C 0.90834 0.41386 0.92591 0.0
O701 O 0.90921 0.39955 0.94567 0.0
N702 N 0.80617 0.41191 0.90887 0.0
C703 C 0.76664 0.46276 0.91125 0.0
C704 C 0.78711 0.43577 0.92269 0.0
C705 C 0.79764 0.42668 0.88895 0.0
N706 N 0.77303 0.45695 0.88996 0.0
O707 O 0.83409 0.38129 0.94624 0.0
H708 H 0.78828 0.43494 0.94018 0.0
H709 H 0.80908 0.4155 0.87384 0.0
O710 O 0.88212 0.40363 0.91267 0.0
C711 C 0.80281 0.36458 0.95193 0.0
O712 O 0.78421 0.34402 0.93742 0.0
N713 N 0.8406 0.35336 0.88749 0.0
C714 C 0.83129 0.30484 0.85201 0.0
C715 C 0.867 0.32323 0.85574 0.0
C716 C 0.87079 0.34849 0.87345 0.0
C717 C 0.80516 0.3388 0.88278 0.0
C718 C 0.79942 0.31648 0.86446 0.0
H719 H 0.89849 0.36134 0.87677 0.0
H720 H 0.78137 0.34318 0.89395 0.0
H721 H 0.92791 0.34358 0.9071 0.0
H722 H 0.90711 0.25551 0.95221 0.0
H723 H 0.7491 0.48555 0.91817 0.0
H724 H 0.89247 0.31583 0.84637 0.0
H725 H 0.7708 0.30516 0.86153 0.0
C726 C 0.989 0.64314 0.18596 0.0
C727 C 1.01097 0.67519 0.19152 0.0
N728 N 1.00531 0.70294 0.17651 0.0
N729 N 0.96901 0.65078 0.16769 0.0
C730 C 0.98011 0.68731 0.16246 0.0
H731 H 0.98636 0.61687 0.19534 0.0
Co732 Co 0.92782 0.6237 0.15345 0.0
C733 C 0.89073 0.6938 0.16886 0.0
O734 O 0.90138 0.68574 0.18879 0.0
N735 N 0.88658 0.5999 0.13844 0.0
C736 C 0.84386 0.59399 0.11172 0.0
C737 C 0.86902 0.61841 0.12184 0.0
C738 C 0.87085 0.56399 0.13821 0.0
N739 N 0.84506 0.55985 0.12195 0.0
O740 O 0.90569 0.60974 0.18068 0.0
H741 H 0.87513 0.6477 0.11681 0.0
H742 H 0.87889 0.5409 0.14909 0.0
O743 O 0.89968 0.67134 0.15313 0.0
C744 C 0.91663 0.57552 0.18513 0.0
O745 O 0.93922 0.55747 0.17125 0.0
N746 N 0.95218 0.63151 0.12695 0.0
C747 C 1.01453 0.6292 0.09912 0.0
C748 C 0.99266 0.66331 0.10105 0.0
C749 C 0.96024 0.66354 0.11485 0.0
C750 C 0.96907 0.59708 0.12226 0.0
C751 C 0.99983 0.59506 0.10793 0.0
H752 H 0.94455 0.6901 0.11751 0.0
H753 H 0.96113 0.57164 0.1314 0.0
H754 H 0.96711 0.70414 0.1498 0.0
H755 H 0.02867 0.67822 0.20584 0.0
H756 H 0.82601 0.6007 0.09784 0.0
H757 H 1.00265 0.69013 0.09393 0.0
H758 H 1.01509 0.56794 0.10611 0.0
C759 C 0.62351 0.73711 0.44531 0.0
C760 C 0.58565 0.7477 0.44884 0.0
N761 N 0.56418 0.73491 0.43209 0.0
N762 N 0.62615 0.71747 0.42647 0.0
C763 C 0.58961 0.71695 0.41871 0.0
H764 H 0.64757 0.74362 0.45578 0.0
Co765 Co 0.67096 0.69635 0.41366 0.0
C766 C 0.62009 0.63067 0.42135 0.0
O767 O 0.61515 0.64106 0.44171 0.0
N768 N 0.71544 0.67667 0.4006 0.0
C769 C 0.7723 0.67783 0.38384 0.0
C770 C 0.74536 0.6994 0.3948 0.0
C771 C 0.72456 0.64137 0.39274 0.0
N772 N 0.75915 0.64137 0.38244 0.0
O773 O 0.68938 0.67897 0.44119 0.0
H774 H 0.74664 0.73022 0.39749 0.0
H775 H 0.70576 0.61651 0.39389 0.0
O776 O 0.64391 0.64885 0.40928 0.0
C777 C 0.71718 0.69975 0.44787 0.0
O778 O 0.72512 0.73211 0.43767 0.0
N779 N 0.65596 0.71425 0.38664 0.0
C780 C 0.65945 0.74556 0.34523 0.0
C781 C 0.65214 0.70613 0.34803 0.0
C782 C 0.65068 0.69087 0.369 0.0
C783 C 0.6603 0.75299 0.38425 0.0
C784 C 0.66183 0.76935 0.36364 0.0
H785 H 0.6485 0.65995 0.37082 0.0
H786 H 0.6653 0.77082 0.39838 0.0
H787 H 0.58185 0.70311 0.4036 0.0
H788 H 0.57505 0.76437 0.46248 0.0
H789 H 0.79852 0.68866 0.37638 0.0
H790 H 0.64997 0.68695 0.3342 0.0
H791 H 0.66634 0.80019 0.36213 0.0
C792 C 0.49168 0.37638 0.16955 0.0
C793 C 0.51457 0.34371 0.17133 0.0
N794 N 0.49898 0.31553 0.15916 0.0
N795 N 0.46124 0.3688 0.15659 0.0
C796 C 0.46715 0.33149 0.15045 0.0
H797 H 0.49614 0.40322 0.17811 0.0
Co798 Co 0.41532 0.39892 0.15158 0.0
C799 C 0.38533 0.32967 0.17238 0.0
O800 O 0.40722 0.33651 0.18929 0.0
N801 N 0.36919 0.42696 0.14637 0.0
C802 C 0.31228 0.44115 0.13173 0.0
C803 C 0.3358 0.41189 0.13893 0.0
C804 C 0.36467 0.46558 0.14398 0.0
N805 N 0.33072 0.47491 0.13467 0.0
O806 O 0.41213 0.4125 0.1815 0.0
H807 H 0.32995 0.38143 0.13707 0.0
H808 H 0.3874 0.4863 0.1468 0.0
O809 O 0.38562 0.3527 0.15614 0.0
C810 C 0.42763 0.44568 0.18365 0.0
O811 O 0.44498 0.4613 0.16676 0.0
N812 N 0.42055 0.39153 0.12166 0.0
C813 C 0.45528 0.39696 0.08118 0.0
C814 C 0.44124 0.36106 0.08872 0.0
C815 C 0.42184 0.35937 0.10886 0.0
C816 C 0.42942 0.42665 0.11308 0.0
C817 C 0.44326 0.4302 0.09213 0.0
H818 H 0.41135 0.33199 0.1148 0.0
H819 H 0.42901 0.45208 0.12312 0.0
H820 H 0.44676 0.31462 0.14142 0.0
H821 H 0.54002 0.3406 0.18128 0.0
H822 H 0.28474 0.43761 0.12379 0.0
H823 H 0.44808 0.33441 0.08038 0.0
H824 H 0.45049 0.45877 0.08623 0.0
C825 C 0.35831 0.72186 0.93628 0.0
C826 C 0.3889 0.74552 0.94159 0.0
N827 N 0.41517 0.74434 0.92532 0.0
N828 N 0.36532 0.70537 0.91683 0.0
C829 C 0.39952 0.72069 0.9103 0.0
H830 H 0.33392 0.71505 0.94663 0.0
Co831 Co 0.33947 0.66298 0.90418 0.0
C832 C 0.41834 0.63387 0.90863 0.0
O833 O 0.41852 0.64188 0.9295 0.0
N834 N 0.31506 0.62038 0.89128 0.0
C835 C 0.30166 0.55975 0.88238 0.0
C836 C 0.3261 0.58335 0.89377 0.0
C837 C 0.28375 0.61855 0.87829 0.0
N838 N 0.27489 0.58181 0.87251 0.0
O839 O 0.33812 0.63769 0.93162 0.0
H840 H 0.35015 0.574 0.90356 0.0
H841 H 0.26787 0.6438 0.87323 0.0
O842 O 0.38838 0.64036 0.89728 0.0
C843 C 0.30454 0.63487 0.93999 0.0
O844 O 0.27463 0.64505 0.92828 0.0
N845 N 0.3377 0.68953 0.87822 0.0
C846 C 0.33363 0.7467 0.84686 0.0
C847 C 0.36201 0.71778 0.84546 0.0
C848 C 0.36351 0.68907 0.86141 0.0
C849 C 0.30807 0.71523 0.87872 0.0
C850 C 0.30532 0.74401 0.8631 0.0
H851 H 0.38675 0.66831 0.86095 0.0
H852 H 0.28784 0.7147 0.89218 0.0
H853 H 0.41458 0.71166 0.89572 0.0
H854 H 0.3924 0.76072 0.95681 0.0
H855 H 0.30318 0.52858 0.88194 0.0
H856 H 0.3845 0.71899 0.83317 0.0
H857 H 0.28264 0.7654 0.86453 0.0
C858 C 0.06299 0.63999 0.67666 0.0
C859 C 0.04282 0.67356 0.68108 0.0
N860 N 0.0543 0.70109 0.66696 0.0
N861 N 0.08766 0.64617 0.65998 0.0
C862 C 0.0809 0.68352 0.65417 0.0
H863 H 0.06127 0.61346 0.68587 0.0
Co864 Co 0.12916 0.61347 0.65082 0.0
C865 C 0.17005 0.68502 0.66153 0.0
O866 O 0.15556 0.68631 0.68129 0.0
N867 N 0.17212 0.58278 0.64161 0.0
C868 C 0.23277 0.56157 0.63912 0.0
C869 C 0.20842 0.58769 0.64898 0.0
C870 C 0.17531 0.55303 0.62738 0.0
N871 N 0.21192 0.53968 0.62546 0.0
O872 O 0.14218 0.60371 0.68046 0.0
H873 H 0.21674 0.60896 0.66093 0.0
H874 H 0.15144 0.54137 0.61836 0.0
O875 O 0.16151 0.65741 0.64879 0.0
C876 C 0.13338 0.56846 0.68411 0.0
O877 O 0.11993 0.54749 0.66807 0.0
N878 N 0.11314 0.6184 0.62241 0.0
C879 C 0.07039 0.61546 0.58432 0.0
C880 C 0.09377 0.64779 0.589 0.0
C881 C 0.11584 0.6483 0.60806 0.0
C882 C 0.09192 0.58662 0.61768 0.0
C883 C 0.07248 0.58351 0.59824 0.0
H884 H 0.13273 0.67359 0.61192 0.0
H885 H 0.08969 0.56349 0.62941 0.0
H886 H 0.09743 0.69876 0.64195 0.0
H887 H 0.02222 0.67771 0.69416 0.0
H888 H 0.26338 0.55868 0.64208 0.0
H889 H 0.09333 0.67336 0.57892 0.0
H890 H 0.05713 0.55696 0.59502 0.0
C891 C 0.14242 0.27628 0.41553 0.0
C892 C 0.10619 0.26033 0.41786 0.0
N893 N 0.08109 0.28172 0.40638 0.0
N894 N 0.14016 0.30799 0.40288 0.0
C895 C 0.10249 0.30995 0.39714 0.0
H896 H 0.16835 0.2664 0.42346 0.0
Co897 Co 0.17894 0.34534 0.39836 0.0
C898 C 0.13362 0.42002 0.399 0.0
O899 O 0.16264 0.44297 0.39435 0.0
N900 N 0.21804 0.38331 0.39411 0.0
C901 C 0.26031 0.43034 0.4007 0.0
C902 C 0.23063 0.40875 0.40918 0.0
C903 C 0.24124 0.38979 0.37669 0.0
N904 N 0.26694 0.41847 0.38021 0.0
O905 O 0.18864 0.34616 0.42846 0.0
H906 H 0.21839 0.41221 0.42526 0.0
H907 H 0.23967 0.37365 0.3617 0.0
O908 O 0.13902 0.38384 0.40084 0.0
C909 C 0.22033 0.32801 0.43087 0.0
O910 O 0.23719 0.31244 0.41382 0.0
N911 N 0.17258 0.3409 0.36883 0.0
C912 C 0.18022 0.3224 0.32517 0.0
C913 C 0.16063 0.35618 0.33149 0.0
C914 C 0.15733 0.3652 0.35367 0.0
C915 C 0.19082 0.30787 0.36294 0.0
C916 C 0.19487 0.29802 0.34134 0.0
H917 H 0.14339 0.39172 0.35846 0.0
H918 H 0.20283 0.28928 0.37528 0.0
H919 H 0.0905 0.33295 0.38739 0.0
H920 H 0.09866 0.23557 0.42776 0.0
H921 H 0.27487 0.45391 0.40876 0.0
H922 H 0.14821 0.37527 0.31949 0.0
H923 H 0.20862 0.27077 0.33747 0.0
C924 C 0.51085 0.60004 0.27117 0.0
C925 C 0.53014 0.63421 0.26708 0.0
N926 N 0.51948 0.6603 0.28222 0.0
N927 N 0.48757 0.60467 0.28862 0.0
C928 C 0.49452 0.64135 0.29532 0.0
H929 H 0.5113 0.5747 0.26092 0.0
Co930 Co 0.44493 0.57383 0.29712 0.0
C931 C 0.40779 0.64638 0.28446 0.0
O932 O 0.42362 0.64465 0.26504 0.0
N933 N 0.40118 0.54512 0.30542 0.0
C934 C 0.34043 0.5247 0.30427 0.0
C935 C 0.36705 0.54913 0.2952 0.0
C936 C 0.39443 0.51807 0.32087 0.0
N937 N 0.35757 0.50512 0.32042 0.0
O938 O 0.4329 0.56358 0.26737 0.0
H939 H 0.36172 0.56891 0.28196 0.0
H940 H 0.41592 0.50798 0.33219 0.0
O941 O 0.41354 0.61943 0.29817 0.0
C942 C 0.44193 0.52832 0.26401 0.0
O943 O 0.45829 0.50879 0.27977 0.0
N944 N 0.45944 0.57902 0.32585 0.0
C945 C 0.50167 0.58138 0.36401 0.0
C946 C 0.47367 0.60979 0.35968 0.0
C947 C 0.45236 0.60789 0.34041 0.0
C948 C 0.48422 0.54986 0.33062 0.0
C949 C 0.5051 0.55007 0.34976 0.0
H950 H 0.43244 0.63087 0.33659 0.0
H951 H 0.48909 0.52713 0.31889 0.0
H952 H 0.47818 0.65558 0.308 0.0
H953 H 0.54861 0.64013 0.25323 0.0
H954 H 0.31038 0.52243 0.29975 0.0
H955 H 0.47018 0.63459 0.37022 0.0
H956 H 0.52553 0.52703 0.3527 0.0
C957 C 0.20758 0.73756 0.02099 0.0
C958 C 0.17496 0.75523 0.01291 0.0
N959 N 0.14707 0.75449 0.02833 0.0
N960 N 0.20045 0.72539 0.0414 0.0
C961 C 0.16356 0.73655 0.04546 0.0
H962 H 0.23457 0.73333 0.0124 0.0
Co963 Co 0.23353 0.69752 0.05985 0.0
C964 C 0.1772 0.64734 0.08453 0.0
O965 O 0.19921 0.64246 0.10161 0.0
N966 N 0.26681 0.66972 0.07847 0.0
C967 C 0.31239 0.6563 0.10259 0.0
C968 C 0.29449 0.68509 0.09114 0.0
C969 C 0.26976 0.63118 0.08187 0.0
N970 N 0.29646 0.62223 0.09707 0.0
O971 O 0.24315 0.66133 0.03728 0.0
H972 H 0.30157 0.71536 0.09211 0.0
H973 H 0.25138 0.61033 0.07394 0.0
O974 O 0.18892 0.66796 0.0687 0.0
C975 C 0.27709 0.66215 0.02925 0.0
O976 O 0.30283 0.68511 0.03805 0.0
N977 N 0.22625 0.73518 0.08093 0.0
C978 C 0.21777 0.80341 0.10409 0.0
C979 C 0.19415 0.77147 0.10866 0.0
C980 C 0.19881 0.73752 0.09686 0.0
C981 C 0.25061 0.76524 0.07701 0.0
C982 C 0.24735 0.79945 0.08866 0.0
H983 H 0.17844 0.71477 0.0997 0.0
H984 H 0.27192 0.7629 0.06416 0.0
H985 H 0.14867 0.73067 0.06058 0.0
H986 H 0.17209 0.76748 -0.00317 0.0
H987 H 0.3355 0.66047 0.11408 0.0
H988 H 0.17027 0.7735 0.12004 0.0
H989 H 0.26645 0.82324 0.08476 0.0
C990 C 0.03704 0.39917 0.76201 0.0
C991 C 0.02299 0.36234 0.75864 0.0
N992 N 0.02813 0.3415 0.77689 0.0
N993 N 0.05156 0.40163 0.78223 0.0
C994 C 0.04531 0.36604 0.79094 0.0
H995 H 0.03723 0.42242 0.75028 0.0
Co996 Co 0.07728 0.44426 0.79531 0.0
C997 C 0.13583 0.3864 0.78831 0.0
O998 O 0.12705 0.38558 0.76758 0.0
N999 N 0.10196 0.48603 0.80875 0.0
C1000 C 0.10776 0.54061 0.8273 0.0
C1001 C 0.08251 0.51642 0.81693 0.0
C1002 C 0.13916 0.49235 0.81431 0.0
N1003 N 0.14356 0.52554 0.82575 0.0
O1004 O 0.09914 0.45998 0.76821 0.0
H1005 H 0.05156 0.52002 0.81603 0.0
H1006 H 0.16231 0.47256 0.81042 0.0
O1007 O 0.12013 0.41117 0.80086 0.0
C1008 C 0.08568 0.49186 0.76125 0.0
O1009 O 0.05591 0.50733 0.77129 0.0
N1010 N 0.0552 0.4321 0.8217 0.0
C1011 C 1.01764 0.43492 0.86151 0.0
C1012 C 0.05722 0.42673 0.86045 0.0
C1013 C 0.07564 0.42551 0.84024 0.0
C1014 C 1.01659 0.43853 0.82237 0.0
C1015 C 0.99709 0.43952 0.84209 0.0
H1016 H 0.10659 0.42187 0.83963 0.0
H1017 H 1.00123 0.44469 0.80752 0.0
H1018 H 0.05445 0.35783 0.80708 0.0
H1019 H 1.00989 0.35174 0.74387 0.0
H1020 H 0.09984 0.56644 0.83613 0.0
H1021 H 0.07404 0.42297 0.87507 0.0
H1022 H 0.96627 0.44462 0.8421 0.0
C1023 C 0.36976 0.25976 0.53418 0.0
C1024 C 0.40414 0.2407 0.53063 0.0
N1025 N 0.43336 0.2647 0.53545 0.0
N1026 N 0.37663 0.29628 0.54081 0.0
C1027 C 0.41599 0.29791 0.54185 0.0
H1028 H 0.34151 0.24739 0.53187 0.0
Co1029 Co 0.33708 0.33483 0.54605 0.0
C1030 C 0.3988 0.38667 0.53221 0.0
O1031 O 0.39911 0.37181 0.51258 0.0
N1032 N 0.29853 0.37327 0.55131 0.0
C1033 C 0.24195 0.40371 0.55271 0.0
C1034 C 0.26264 0.37486 0.54287 0.0
C1035 C 0.29871 0.40203 0.56635 0.0
N1036 N 0.26436 0.42063 0.56769 0.0
O1037 O 0.32942 0.34 0.51585 0.0
H1038 H 0.25083 0.35537 0.53107 0.0
H1039 H 0.3228 0.40762 0.577 0.0
O1040 O 0.37511 0.37431 0.54651 0.0
C1041 C 0.30291 0.31637 0.51062 0.0
O1042 O 0.28865 0.29342 0.52567 0.0
N1043 N 0.34077 0.32668 0.57555 0.0
C1044 C 0.34143 0.28226 0.61254 0.0
C1045 C 0.37505 0.30192 0.60593 0.0
C1046 C 0.37397 0.32474 0.58722 0.0
C1047 C 0.30693 0.31283 0.58378 0.0
C1048 C 0.30636 0.29185 0.6029 0.0
H1049 H 0.40049 0.33661 0.58079 0.0
H1050 H 0.28089 0.31408 0.57424 0.0
H1051 H 0.43201 0.32301 0.5469 0.0
H1052 H 0.40738 0.2113 0.52495 0.0
H1053 H 0.21217 0.41096 0.54942 0.0
H1054 H 0.40274 0.29556 0.61317 0.0
H1055 H 0.27978 0.27782 0.60788 0.0
C1056 C 0.21288 0.28583 0.29566 0.0
C1057 C 0.18123 0.30839 0.30245 0.0
H1058 H 0.22935 0.23225 0.28101 0.0
C1059 C 0.14645 0.30539 0.29103 0.0
H1060 H 0.24061 0.28884 0.30352 0.0
C1061 C 0.14076 0.27417 0.27705 0.0
C1062 C 0.16944 0.24571 0.27519 0.0
H1063 H 0.1219 0.32314 0.29537 0.0
H1064 H 0.11198 0.26894 0.27092 0.0
C1065 C 0.20663 0.25356 0.28267 0.0
C1066 C 0.06209 0.95386 0.5757 0.0
C1067 C 0.02591 0.93781 0.5706 0.0
H1068 H 0.1212 0.96056 0.56686 0.0
C1069 C 0.0217 0.91829 0.5507 0.0
H1070 H 0.06716 0.96812 0.59107 0.0
C1071 C 0.05355 0.91346 0.5368 0.0
C1072 C 0.08987 0.92804 0.54269 0.0
H1073 H 0.99426 0.90576 0.54622 0.0
H1074 H 0.0503 0.89626 0.52222 0.0
C1075 C 0.09343 0.94938 0.56185 0.0
C1076 C 0.34732 0.78145 0.81182 0.0
C1077 C 0.33719 0.78253 0.83393 0.0
H1078 H 0.36674 0.8137 0.78415 0.0
C1079 C 0.33458 0.81841 0.84452 0.0
H1080 H 0.34937 0.75418 0.80328 0.0
C1081 C 0.34452 0.85227 0.83367 0.0
C1082 C 0.35696 0.85097 0.81198 0.0
H1083 H 0.32735 0.82017 0.86164 0.0
H1084 H 0.34453 0.87922 0.84261 0.0
C1085 C 0.35685 0.81553 0.80085 0.0
C1086 C 0.45595 0.08583 0.05459 0.0
C1087 C 0.45522 0.11209 0.03737 0.0
H1088 H 0.48919 0.05873 0.07894 0.0
C1089 C 0.49006 0.12782 0.02953 0.0
H1090 H 0.42941 0.07374 0.06107 0.0
C1091 C 0.52495 0.11917 0.03982 0.0
C1092 C 0.52534 0.09437 0.05788 0.0
H1093 H 0.49004 0.14882 0.01648 0.0
H1094 H 0.55123 0.13291 0.03418 0.0
C1095 C 0.49048 0.07713 0.06474 0.0
C1096 C 0.20662 0.87356 0.0981 0.0
C1097 C 0.2069 0.84193 0.11241 0.0
H1098 H 0.18551 0.9302 0.09176 0.0
C1099 C 0.19077 0.84615 0.13327 0.0
H1100 H 0.21854 0.87133 0.08184 0.0
C1101 C 0.17109 0.87987 0.13881 0.0
C1102 C 0.16748 0.90983 0.12358 0.0
H1103 H 0.1913 0.82254 0.1448 0.0
H1104 H 0.15668 0.88136 0.15446 0.0
C1105 C 0.18724 0.90728 0.10369 0.0
C1106 C 0.5236 0.868 0.38026 0.0
C1107 C 0.54054 0.90441 0.37725 0.0
H1108 H 0.47468 0.83686 0.39205 0.0
C1109 C 0.52511 0.93634 0.3885 0.0
H1110 H 0.53472 0.84284 0.37185 0.0
C1111 C 0.49033 0.93289 0.4 0.0
C1112 C 0.47071 0.89752 0.40028 0.0
H1113 H 0.53793 0.96468 0.38665 0.0
H1114 H 0.47702 0.9586 0.4067 0.0
C1115 C 0.48885 0.86465 0.39161 0.0
C1116 C 0.34106 0.17481 0.61685 0.0
C1117 C 0.36927 0.16896 0.63263 0.0
H1118 H 0.30956 0.21563 0.59843 0.0
C1119 C 0.38197 0.20044 0.6452 0.0
H1120 H 0.33031 0.151 0.60721 0.0
C1121 C 0.37034 0.23788 0.64008 0.0
C1122 C 0.34502 0.244 0.62278 0.0
H1123 H 0.40307 0.19663 0.6579 0.0
H1124 H 0.38297 0.26205 0.64864 0.0
C1125 C 0.32889 0.21197 0.61203 0.0
C1126 C 0.03202 0.13984 0.91633 0.0
C1127 C 0.06768 0.12488 0.90944 0.0
H1128 H 0.97149 0.14407 0.90973 0.0
C1129 C 0.06899 0.09798 0.89254 0.0
H1130 H 0.03057 0.16101 0.92927 0.0
C1131 C 0.03574 0.08873 0.88127 0.0
C1132 C 1.00027 0.10613 0.88672 0.0
H1133 H 0.09627 0.08609 0.88704 0.0
H1134 H 0.03879 0.07035 0.86715 0.0
C1135 C 0.99841 0.13054 0.90498 0.0
C1136 C 0.84739 0.79318 0.64015 0.0
C1137 C 0.8791 0.76925 0.63503 0.0
H1138 H 0.82936 0.84657 0.65455 0.0
C1139 C 0.91337 0.77361 0.64686 0.0
H1140 H 0.8198 0.7893 0.63228 0.0
C1141 C 0.91756 0.80485 0.66093 0.0
C1142 C 0.8883 0.83264 0.66253 0.0
H1143 H 0.93827 0.75557 0.6437 0.0
H1144 H 0.94523 0.80968 0.66847 0.0
C1145 C 0.85241 0.82556 0.6532 0.0
C1146 C 1.01502 0.16732 0.34997 0.0
C1147 C 0.03937 0.16261 0.36792 0.0
H1148 H 0.95921 0.1581 0.33651 0.0
C1149 C 0.0238 0.14874 0.38754 0.0
H1150 H 0.02659 0.17693 0.33452 0.0
C1151 C 0.98455 0.13896 0.3889 0.0
C1152 C 0.96119 0.14077 0.37032 0.0
H1153 H 0.04229 0.14378 0.40138 0.0
H1154 H 0.97281 0.12852 0.40416 0.0
C1155 C 0.97669 0.15557 0.35096 0.0
C1156 C 0.6856 0.19422 0.13819 0.0
C1157 C 0.65781 0.18474 0.15378 0.0
H1158 H 0.70963 0.23771 0.11813 0.0
C1159 C 0.63572 0.21409 0.1636 0.0
H1160 H 0.70269 0.17196 0.13034 0.0
C1161 C 0.63937 0.25228 0.15651 0.0
C1162 C 0.66573 0.26142 0.13989 0.0
H1163 H 0.61375 0.20716 0.17556 0.0
H1164 H 0.62055 0.27419 0.1633 0.0
C1165 C 0.68962 0.23211 0.13134 0.0
C1166 C 0.59997 0.94087 0.90208 0.0
C1167 C 0.5965 0.91133 0.91745 0.0
H1168 H 0.57419 0.9694 0.87517 0.0
C1169 C 0.56071 0.89312 0.92057 0.0
H1170 H 0.62737 0.95533 0.89954 0.0
C1171 C 0.53105 0.89919 0.90573 0.0
C1172 C 0.53663 0.92467 0.88823 0.0
H1173 H 0.55749 0.87016 0.93241 0.0
H1174 H 0.50568 0.88101 0.90674 0.0
C1175 C 0.56985 0.94808 0.88782 0.0
C1176 C 0.80748 0.20152 0.83833 0.0
C1177 C 0.83536 0.19293 0.82253 0.0
H1178 H 0.78514 0.24245 0.86038 0.0
C1179 C 0.85656 0.22337 0.8131 0.0
H1180 H 0.79011 0.17893 0.84566 0.0
C1181 C 0.85344 0.26089 0.82146 0.0
C1182 C 0.82865 0.2685 0.83913 0.0
H1183 H 0.87734 0.21787 0.80029 0.0
H1184 H 0.87179 0.28333 0.81482 0.0
C1185 C 0.80441 0.23858 0.84666 0.0
C1186 C 0.63467 0.09415 0.57291 0.0
C1187 C 0.6242 0.10402 0.55167 0.0
H1188 H 0.616 0.08562 0.60536 0.0
C1189 C 0.58525 0.10282 0.5457 0.0
H1190 H 0.66467 0.09457 0.57781 0.0
C1191 C 0.55688 0.0967 0.56154 0.0
C1192 C 0.56724 0.09221 0.58349 0.0
H1193 H 0.57648 0.11026 0.52936 0.0
H1194 H 0.52688 0.0979 0.55678 0.0
C1195 C 0.60652 0.08893 0.58875 0.0
C1196 C 0.64023 0.75404 0.3063 0.0
C1197 C 0.66558 0.7623 0.32339 0.0
H1198 H 0.61743 0.77347 0.27597 0.0
C1199 C 0.69453 0.79019 0.32028 0.0
H1200 H 0.61807 0.73221 0.30813 0.0
C1201 C 0.69416 0.81366 0.30195 0.0
C1202 C 0.66493 0.8094 0.28651 0.0
H1203 H 0.71541 0.79609 0.33288 0.0
H1204 H 0.71363 0.83813 0.30122 0.0
C1205 C 0.64022 0.77732 0.28774 0.0
C1206 C 0.94487 0.96812 0.06826 0.0
C1207 C 0.98477 0.96083 0.06816 0.0
H1208 H 0.89125 0.95763 0.05258 0.0
C1209 C 1.00227 0.94747 0.04886 0.0
H1210 H 0.93018 0.97874 0.08262 0.0
C1211 C 0.97953 0.93486 0.03162 0.0
C1212 C 0.93926 0.93582 0.03361 0.0
H1213 H 0.03319 0.94321 0.04788 0.0
H1214 H 0.99325 0.91946 0.01834 0.0
C1215 C 0.92236 0.95627 0.05088 0.0
C1216 C 0.62958 0.77462 0.80065 0.0
C1217 C 0.66122 0.77648 0.81465 0.0
H1218 H 0.60222 0.742 0.77556 0.0
C1219 C 0.69429 0.75436 0.81014 0.0
H1220 H 0.60386 0.79151 0.80388 0.0
C1221 C 0.69287 0.72536 0.79457 0.0
C1222 C 0.65888 0.71933 0.78296 0.0
H1223 H 0.71916 0.75584 0.82071 0.0
H1224 H 0.71637 0.70478 0.79357 0.0
C1225 C 0.62869 0.74629 0.78451 0.0
C1226 C 0.55441 0.42676 0.06224 0.0
C1227 C 0.56402 0.39698 0.04804 0.0
H1228 H 0.51366 0.44984 0.08396 0.0
C1229 C 0.53554 0.37055 0.04152 0.0
H1230 H 0.57612 0.44715 0.06758 0.0
C1231 C 0.49862 0.37185 0.05095 0.0
C1232 C 0.4899 0.39987 0.06678 0.0
H1233 H 0.54271 0.34702 0.03064 0.0
H1234 H 0.47786 0.34975 0.04676 0.0
C1235 C 0.518 0.42822 0.07152 0.0
C1236 C 0.80801 0.31548 0.33531 0.0
C1237 C 0.82622 0.2877 0.32205 0.0
H1238 H 0.80233 0.37495 0.34344 0.0
C1239 C 0.847 0.30013 0.30368 0.0
H1240 H 0.7919 0.30726 0.34971 0.0
C1241 C 0.85311 0.33952 0.30016 0.0
C1242 C 0.83908 0.36682 0.31517 0.0
H1243 H 0.86064 0.27946 0.2929 0.0
H1244 H 0.87094 0.34826 0.28653 0.0
C1245 C 0.81432 0.3546 0.33186 0.0
C1246 C 1.00909 0.64806 0.53653 0.0
C1247 C 0.97402 0.62975 0.54163 0.0
H1248 H 0.06792 0.65722 0.54568 0.0
C1249 C 0.97283 0.60237 0.55824 0.0
H1250 H 1.01046 0.66973 0.52385 0.0
C1251 C 1.00478 0.59635 0.57121 0.0
C1252 C 0.03943 0.61684 0.56756 0.0
H1253 H 0.94612 0.58783 0.56237 0.0
H1254 H 1.00066 0.57777 0.58513 0.0
C1255 C 0.04172 0.64148 0.54937 0.0
C1256 C 0.71038 0.31538 0.62613 0.0
C1257 C 0.68556 0.2835 0.62413 0.0
H1258 H 0.71714 0.37225 0.63906 0.0
C1259 C 0.65428 0.27951 0.63857 0.0
H1260 H 0.73529 0.31853 0.61555 0.0
C1261 C 0.64483 0.3097 0.65259 0.0
C1262 C 0.66637 0.34393 0.65196 0.0
H1263 H 0.63479 0.25516 0.63739 0.0
H1264 H 0.6182 0.30811 0.66188 0.0
C1265 C 0.7004 0.34583 0.63972 0.0
C1266 C 0.96667 0.46464 0.88481 0.0
C1267 C 0.997 0.43797 0.8825 0.0
H1268 H 0.91381 0.47786 0.90127 0.0
C1269 C 1.00351 0.41093 0.8991 0.0
H1270 H 0.96189 0.48681 0.8727 0.0
C1271 C 0.97692 0.40722 0.91609 0.0
C1272 C 0.9433 0.42978 0.91616 0.0
H1273 H 0.0268 0.39019 0.89787 0.0
H1274 H 0.98011 0.38344 0.92738 0.0
C1275 C 0.93958 0.46014 0.90136 0.0
C1276 C 0.85393 0.76837 0.13307 0.0
C1277 C 0.88776 0.79055 0.13159 0.0
H1278 H 0.82807 0.71832 0.14725 0.0
C1279 C 0.91477 0.78924 0.14838 0.0
H1280 H 0.83262 0.76948 0.12026 0.0
C1281 C 0.9111 0.76104 0.16447 0.0
C1282 C 0.88152 0.73343 0.16298 0.0
H1283 H 0.94092 0.80634 0.1475 0.0
H1284 H 0.93459 0.75703 0.17576 0.0
C1285 C 0.85111 0.73934 0.14856 0.0
C1286 C 0.55083 0.61406 0.41582 0.0
C1287 C 0.58983 0.60883 0.4101 0.0
H1288 H 0.4919 0.60952 0.4056 0.0
C1289 C 0.5991 0.59006 0.39061 0.0
H1290 H 0.54296 0.62914 0.43061 0.0
C1291 C 0.57013 0.57928 0.3763 0.0
C1292 C 0.53113 0.58703 0.38114 0.0
H1293 H 0.62895 0.58615 0.38574 0.0
H1294 H 0.57868 0.5673 0.36075 0.0
C1295 C 0.52166 0.60344 0.40136 0.0
C1296 C 0.33566 0.28487 0.15931 0.0
C1297 C 0.37233 0.29031 0.1681 0.0
H1298 H 0.30168 0.25245 0.13706 0.0
C1299 C 0.40033 0.2613 0.16574 0.0
H1300 H 0.31357 0.30678 0.16119 0.0
C1301 C 0.39453 0.23151 0.15083 0.0
C1302 C 0.36004 0.23003 0.13901 0.0
H1303 H 0.4287 0.26484 0.17274 0.0
H1304 H 0.41868 0.21307 0.14661 0.0
C1305 C 0.32917 0.25405 0.1453 0.0
C1306 C 0.52376 0.63291 0.89203 0.0
C1307 C 0.52116 0.61682 0.87114 0.0
H1308 H 0.49283 0.65029 0.92078 0.0
C1309 C 0.48496 0.60461 0.86353 0.0
H1310 H 0.55125 0.64269 0.89823 0.0
C1311 C 0.45216 0.60839 0.87632 0.0
C1312 C 0.45441 0.62492 0.89701 0.0
H1313 H 0.48163 0.59306 0.84729 0.0
H1314 H 0.4247 0.59932 0.8697 0.0
C1315 C 0.49052 0.63675 0.90498 0.0
C1316 C 0.21524 0.74453 0.61826 0.0
C1317 C 0.19933 0.78125 0.62239 0.0
H1318 H 0.22004 0.68588 0.6282 0.0
C1319 C 0.17984 0.78736 0.64227 0.0
H1320 H 0.22974 0.7378 0.60312 0.0
C1321 C 0.17344 0.75655 0.65661 0.0
C1322 C 0.18678 0.71945 0.65129 0.0
H1323 H 0.1679 0.81534 0.64629 0.0
H1324 H 0.15553 0.76114 0.67086 0.0
C1325 C 0.2095 0.71429 0.63266 0.0
C1326 C 0.06209 0.41063 0.40184 0.0
C1327 C 0.09377 0.43331 0.39527 0.0
H1328 H 1.00181 0.39885 0.39823 0.0
C1329 C 0.08741 0.46516 0.38178 0.0
H1330 H 0.06611 0.38615 0.41254 0.0
C1331 C 0.051 0.47189 0.37319 0.0
C1332 C 1.01959 0.4475 0.37829 0.0
H1333 H 0.11118 0.48309 0.3763 0.0
H1334 H 0.04863 0.49465 0.36125 0.0
C1335 C 0.02529 0.41774 0.3935 0.0
C1336 C 0.40624 0.7186 0.28529 0.0
C1337 C 0.392 0.68297 0.29278 0.0
H1338 H 0.40995 0.77961 0.29096 0.0
C1339 C 0.36708 0.68221 0.31079 0.0
H1340 H 0.42602 0.71987 0.27161 0.0
C1341 C 0.35814 0.71607 0.32187 0.0
C1342 C 0.37398 0.7516 0.31525 0.0
H1343 H 0.35596 0.65508 0.31698 0.0
H1344 H 0.34057 0.71391 0.33643 0.0
C1345 C 0.39744 0.75268 0.29652 0.0
C1346 C 0.10918 0.65284 0.07097 0.0
C1347 C 0.13578 0.63792 0.08607 0.0
H1348 H 0.04945 0.6625 0.06338 0.0
C1349 C 0.12198 0.61743 0.1041 0.0
H1350 H 0.11893 0.66824 0.05667 0.0
C1351 C 0.08256 0.61372 0.10766 0.0
C1352 C 0.05589 0.63034 0.09326 0.0
H1353 H 0.14158 0.60548 0.11598 0.0
H1354 H 0.07299 0.5992 0.12233 0.0
C1355 C 0.06945 0.64959 0.07472 0.0
C1356 C 0.14683 0.28253 0.80439 0.0
C1357 C 0.16338 0.28666 0.82501 0.0
H1358 H 0.12628 0.31146 0.77595 0.0
C1359 C 0.1758 0.32339 0.8318 0.0
H1360 H 0.13716 0.25455 0.79876 0.0
C1361 C 0.16993 0.35562 0.8188 0.0
C1362 C 0.15165 0.35185 0.79872 0.0
H1363 H 0.18809 0.32768 0.84775 0.0
H1364 H 0.17762 0.38384 0.82503 0.0
C1365 C 0.14125 0.31495 0.79122 0.0
C1366 C 0.42834 0.43069 0.55865 0.0
C1367 C 0.43278 0.40697 0.54041 0.0
H1368 H 0.45481 0.45535 0.58636 0.0
C1369 C 0.46994 0.39539 0.53387 0.0
H1370 H 0.39989 0.43968 0.56404 0.0
C1371 C 0.50178 0.40417 0.5468 0.0
C1372 C 0.49675 0.42504 0.56619 0.0
H1373 H 0.47394 0.3766 0.51997 0.0
H1374 H 0.52988 0.39305 0.54223 0.0
C1375 C 0.45995 0.43958 0.57144 0.0
C1376 C 0.2816 0.02479 0.31067 0.0
C1377 C 0.24829 0.03943 0.32085 0.0
H1378 H 0.33009 0.98697 0.31277 0.0
C1379 C 0.23682 0.02364 0.34099 0.0
H1380 H 0.29074 0.03534 0.29491 0.0
C1381 C 0.25942 0.99536 0.35119 0.0
C1382 C 0.2939 0.98263 0.34146 0.0
H1383 H 0.21136 0.03429 0.3493 0.0
H1384 H 0.25104 0.98489 0.36711 0.0
C1385 C 0.3041 0.99689 0.32086 0.0
C1386 C 0.35399 0.95429 0.60883 0.0
C1387 C 0.35556 0.99289 0.61596 0.0
H1388 H 0.32566 0.91224 0.58913 0.0
C1389 C 0.32605 1.01817 0.6095 0.0
H1390 H 0.37587 0.93382 0.61369 0.0
C1391 C 0.29687 1.00564 0.59547 0.0
C1392 C 0.29635 0.96748 0.5875 0.0
H1393 H 0.3263 0.04809 0.61452 0.0
H1394 H 0.27502 0.02617 0.59068 0.0
C1395 C 0.32489 0.94178 0.5948 0.0
C1396 C 0.31271 0.09737 0.86603 0.0
C1397 C 0.27709 0.07814 0.86665 0.0
H1398 H 0.37242 0.0948 0.85738 0.0
C1399 C 0.27557 0.03938 0.85982 0.0
H1400 H 0.31476 0.12732 0.8709 0.0
C1401 C 0.30862 0.02055 0.8521 0.0
C1402 C 0.34415 0.03997 0.85096 0.0
H1403 H 0.24869 0.02351 0.86041 0.0
H1404 H 0.30624 0.9907 0.84713 0.0
C1405 C 0.34579 0.07859 0.85821 0.0
C1406 C 0.21468 0.11927 0.09691 0.0
C1407 C 0.24231 0.09141 0.09099 0.0
H1408 H 0.16131 0.13096 0.11343 0.0
C1409 C 0.23822 0.05372 0.09924 0.0
H1410 H 0.2169 0.14854 0.09089 0.0
C1411 C 0.20638 0.04362 0.1121 0.0
C1412 C 0.17761 0.07091 0.11707 0.0
H1413 H 0.25931 0.03169 0.0954 0.0
H1414 H 0.2035 1.01389 0.11725 0.0
C1415 C 0.18267 0.10911 0.10974 0.0
C1416 C 0.79433 0.04073 0.6042 0.0
C1417 C 0.83317 0.04052 0.61085 0.0
H1418 H 0.74947 0.07028 0.58728 0.0
C1419 C 0.85717 0.07093 0.60389 0.0
H1420 H 0.77496 1.01763 0.60883 0.0
C1421 C 0.84258 0.10099 0.59111 0.0
C1422 C 0.80351 0.10168 0.58494 0.0
H1423 H 0.88712 0.07211 0.60866 0.0
H1424 H 0.86203 0.12382 0.58617 0.0
C1425 C 0.77971 0.07085 0.59149 0.0
C1426 C 0.76237 0.06554 0.32786 0.0
C1427 C 0.76621 0.05471 0.34971 0.0
H1428 H 0.73692 0.05245 0.29707 0.0
C1429 C 0.74418 0.02375 0.35779 0.0
H1430 H 0.77919 0.08919 0.32127 0.0
C1431 C 0.71942 1.00334 0.34408 0.0
C1432 C 0.71706 1.01306 0.32201 0.0
H1433 H 0.74648 1.01516 0.37465 0.0
H1434 H 0.70352 0.97886 0.35044 0.0
C1435 C 0.73835 0.04459 0.31407 0.0
C1436 C 0.70939 0.94762 0.09456 0.0
C1437 C 0.72884 0.98233 0.09896 0.0
H1438 H 0.7128 0.89051 0.08136 0.0
C1439 C 0.76734 0.98622 0.09179 0.0
H1440 H 0.67985 0.9435 0.09987 0.0
C1441 C 0.78632 0.95577 0.08124 0.0
C1442 C 0.76736 0.92049 0.07765 0.0
H1443 H 0.78305 1.01274 0.09457 0.0
H1444 H 0.81628 0.95943 0.07663 0.0
C1445 C 0.72844 0.91708 0.08411 0.0
C1446 C 0.75198 0.95897 0.85821 0.0
C1447 C 0.77619 0.92957 0.86595 0.0
H1448 H 0.74787 1.01183 0.84024 0.0
C1449 C 0.81622 0.9329 0.86246 0.0
H1450 H 0.72105 0.95712 0.8605 0.0
C1451 C 0.8316 0.96413 0.85088 0.0
C1452 C 0.80729 0.99268 0.84228 0.0
H1453 H 0.83564 0.91087 0.8684 0.0
H1454 H 0.86241 0.96511 0.84795 0.0
C1455 C 0.76734 0.99005 0.84639 0.0
C1456 C 0.72022 0.49657 0.87488 0.0
C1457 C 0.75632 0.47855 0.87225 0.0
H1458 H 0.67675 0.53248 0.86101 0.0
C1459 C 0.77575 0.48254 0.85225 0.0
H1460 H 0.70415 0.49369 0.88992 0.0
C1461 C 0.75977 0.5047 0.83548 0.0
C1462 C 0.72385 0.5231 0.83826 0.0
H1463 H 0.80365 0.46923 0.8497 0.0
H1464 H 0.77554 0.50737 0.82033 0.0
C1465 C 0.7042 0.51847 0.85814 0.0
C1466 C 0.76669 0.48635 0.12415 0.0
C1467 C 0.76486 0.47495 0.10223 0.0
H1468 H 0.7951 0.52185 0.14783 0.0
C1469 C 0.79344 0.48774 0.08771 0.0
H1470 H 0.74499 0.47662 0.13564 0.0
C1471 C 0.82152 0.51397 0.09461 0.0
C1472 C 0.82211 0.52691 0.11626 0.0
H1473 H 0.79243 0.4795 0.07075 0.0
H1474 H 0.84178 0.52563 0.08286 0.0
C1475 C 0.79539 0.51182 0.13117 0.0
C1476 C 0.77105 0.55765 0.34437 0.0
C1477 C 0.81138 0.55662 0.34168 0.0
H1478 H 0.7227 0.58532 0.35968 0.0
C1479 C 0.83416 0.5822 0.35381 0.0
H1480 H 0.75275 0.53796 0.33548 0.0
C1481 C 0.81699 0.60905 0.36772 0.0
C1482 C 0.77666 0.61086 0.36994 0.0
H1483 H 0.86524 0.58234 0.35203 0.0
H1484 H 0.83526 0.62888 0.37654 0.0
C1485 C 0.75385 0.5844 0.35844 0.0
C1486 C 0.6992 0.56366 0.58336 0.0
C1487 C 0.69778 0.54986 0.60486 0.0
H1488 H 0.73099 0.59633 0.55953 0.0
C1489 C 0.72478 0.56364 0.61984 0.0
H1490 H 0.67883 0.55302 0.57151 0.0
C1491 C 0.75496 0.58769 0.61288 0.0
C1492 C 0.75811 0.59902 0.59097 0.0
H1493 H 0.72462 0.55292 0.63636 0.0
H1494 H 0.77739 0.59536 0.62426 0.0
C1495 C 0.72887 0.58843 0.57652 0.0
C1496 C 0.32456 0.58208 0.12648 0.0
C1497 C 0.3045 0.58488 0.10666 0.0
H1498 H 0.34817 0.54508 0.15095 0.0
C1499 C 0.29209 0.55053 0.09668 0.0
H1500 H 0.33396 0.60757 0.13506 0.0
C1501 C 0.29983 0.51458 0.10612 0.0
C1502 C 0.32041 0.51198 0.1257 0.0
H1503 H 0.27694 0.55118 0.08139 0.0
H1504 H 0.29063 0.48877 0.09772 0.0
C1505 C 0.33257 0.54615 0.13577 0.0
C1506 C 0.20982 0.51636 0.84011 0.0
C1507 C 0.17801 0.54041 0.83604 0.0
H1508 H 0.26547 0.51051 0.85427 0.0
C1509 C 0.17976 0.57903 0.84315 0.0
H1510 H 0.20978 0.4865 0.835 0.0
C1511 C 0.21156 0.59274 0.85474 0.0
C1512 C 0.24288 0.56838 0.85942 0.0
H1513 H 0.15636 0.59885 0.83999 0.0
H1514 H 0.21095 0.62228 0.86038 0.0
C1515 C 0.24179 0.53017 0.85153 0.0
C1516 C 0.21315 0.45157 0.58976 0.0
C1517 C 0.25202 0.4497 0.58309 0.0
H1518 H 0.17019 0.48062 0.60859 0.0
C1519 C 0.27795 0.47718 0.59128 0.0
H1520 H 0.19252 0.43032 0.58424 0.0
C1521 C 0.26497 0.50649 0.60529 0.0
C1522 C 0.22579 0.50883 0.61155 0.0
H1523 H 0.308 0.47661 0.58639 0.0
H1524 H 0.28554 0.52779 0.61077 0.0
C1525 C 0.20025 0.48059 0.60377 0.0
C1526 C 0.30699 0.45674 0.32781 0.0
C1527 C 0.33851 0.47873 0.33504 0.0
H1528 H 0.25948 0.42046 0.33644 0.0
C1529 C 0.34853 0.47723 0.35708 0.0
H1530 H 0.29897 0.45686 0.31084 0.0
C1531 C 0.32595 0.45611 0.3718 0.0
C1532 C 0.29307 0.43591 0.36474 0.0
H1533 H 0.3726 0.4939 0.36312 0.0
H1534 H 0.33369 0.45641 0.38881 0.0
C1535 C 0.28456 0.43555 0.34246 0.0
C1536 C 0.10386 0.09025 0.22914 0.0
C1537 C 0.11893 0.06831 0.24621 0.0
H1538 H 0.07988 0.08945 0.19723 0.0
C1539 C 0.12501 0.02851 0.24336 0.0
H1540 H 0.0988 0.12094 0.23102 0.0
C1541 C 0.11486 1.01061 0.2239 0.0
C1542 C 0.09758 0.0322 0.20737 0.0
H1543 H 0.13682 1.0111 0.25635 0.0
H1544 H 0.1188 0.97973 0.22218 0.0
C1545 C 0.09281 0.07221 0.20994 0.0
C1546 C 0.29781 0.89946 0.4802 0.0
C1547 C 0.25764 0.8983 0.48367 0.0
H1548 H 0.34419 0.89887 0.45707 0.0
C1549 C 0.23302 0.90062 0.46574 0.0
H1550 H 0.31754 0.89818 0.49377 0.0
C1551 C 0.24839 0.90087 0.44464 0.0
C1552 C 0.2886 0.89916 0.44116 0.0
H1553 H 0.202 0.89982 0.46793 0.0
H1554 H 0.22869 0.90048 0.43105 0.0
C1555 C 0.31315 0.90008 0.45917 0.0
C1556 C 0.41522 0.06165 0.73068 0.0
C1557 C 0.41719 0.03602 0.71313 0.0
H1558 H 0.41556 0.06716 0.76532 0.0
C1559 C 0.41232 0.99628 0.7167 0.0
H1560 H 0.41916 0.09238 0.72822 0.0
C1561 C 0.40947 0.9819 0.7378 0.0
C1562 C 0.41257 1.00716 0.75549 0.0
H1563 H 0.41372 0.97612 0.70325 0.0
H1564 H 0.40892 0.95093 0.74025 0.0
C1565 C 0.41336 0.04721 0.75183 0.0
C1566 C 0.28307 0.16289 0.9544 0.0
C1567 C 0.24247 0.16355 0.95412 0.0
H1568 H 0.33419 0.16378 0.97388 0.0
C1569 C 0.22198 0.1616 0.97375 0.0
H1570 H 0.29947 0.16423 0.93937 0.0
C1571 C 0.24185 0.16213 -0.00656 0.0
C1572 C 0.28245 0.16382 -0.00627 0.0
H1573 H 0.19072 0.16232 0.97393 0.0
H1574 H 0.22538 0.16262 0.00846 0.0
C1575 C 0.30295 0.16258 0.97407 0.0
C1576 C 0.90837 0.98262 0.72553 0.0
C1577 C 0.91181 1.00673 0.70736 0.0
H1578 H 0.90364 0.97937 0.76011 0.0
C1579 C 0.9089 0.04698 0.71008 0.0
H1580 H 0.91035 0.95154 0.72389 0.0
C1581 C 0.90459 0.06296 0.73079 0.0
C1582 C 0.90371 0.03889 0.74907 0.0
H1583 H 0.91103 0.06624 0.69626 0.0
H1584 H 0.90397 0.09406 0.73256 0.0
C1585 C 0.90463 0.9986 0.74624 0.0
C1586 C 0.74529 0.14638 0.47197 0.0
C1587 C 0.76633 0.16893 0.48661 0.0
H1588 H 0.7435 0.12199 0.44008 0.0
C1589 C 0.80485 0.17856 0.48172 0.0
H1590 H 0.71571 0.13826 0.47548 0.0
C1591 C 0.82108 0.16845 0.46172 0.0
C1592 C 0.79867 0.14928 0.44623 0.0
H1593 H 0.82192 0.19535 0.49298 0.0
H1594 H 0.84989 0.17846 0.45774 0.0
C1595 C 0.76127 0.13691 0.45182 0.0
C1596 C 0.62532 0.9668 0.19258 0.0
C1597 C 0.62346 1.0071 0.19002 0.0
H1598 H 0.62169 0.91901 0.21465 0.0
C1599 C 0.61812 0.03057 0.20833 0.0
H1600 H 0.62958 0.94809 0.17867 0.0
C1601 C 0.61295 1.01392 0.22874 0.0
C1602 C 0.61364 0.97358 0.23123 0.0
H1603 H 0.61642 0.06168 0.20678 0.0
H1604 H 0.60802 0.0327 0.24255 0.0
C1605 C 0.62079 0.95015 0.2131 0.0
C1606 C 0.8191 0.82371 0.96958 0.0
C1607 C 0.80405 0.81942 -0.00942 0.0
H1608 H 0.80627 0.82507 0.93556 0.0
C1609 C 0.76401 0.81721 -0.00612 0.0
H1610 H 0.84998 0.82538 0.96685 0.0
C1611 C 0.73913 0.81837 -0.0238 0.0
C1612 C 0.75433 0.82047 0.95514 0.0
H1613 H 0.75207 0.81412 0.01011 0.0
H1614 H 0.7083 0.81574 -0.02112 0.0
C1615 C 0.7943 0.82351 0.95185 0.0
C1616 C 0.62391 0.56823 0.71915 0.0
C1617 C 0.63424 0.54496 0.73681 0.0
H1618 H 0.60826 0.56978 0.6856 0.0
C1619 C 0.64182 0.50556 0.73343 0.0
H1620 H 0.6178 0.59865 0.72138 0.0
C1621 C 0.63675 0.4891 0.71297 0.0
C1622 C 0.62335 0.51174 0.69572 0.0
H1623 H 0.65007 0.4871 0.74684 0.0
H1624 H 0.64109 0.45832 0.711 0.0
C1625 C 0.61816 0.55163 0.69877 0.0
C1626 C 0.7871 0.3771 0.01212 0.0
C1627 C 0.74655 0.37596 0.0134 0.0
H1628 H 0.83709 0.37513 -0.00868 0.0
C1629 C 0.72495 0.37509 -0.00573 0.0
H1630 H 0.80433 0.37799 0.02674 0.0
C1631 C 0.74365 0.37266 0.97422 0.0
C1632 C 0.78417 0.37189 0.97298 0.0
H1633 H 0.69372 0.37408 -0.00516 0.0
H1634 H 0.72634 0.37042 0.95967 0.0
C1635 C 0.80584 0.37554 -0.00803 0.0
C1636 C 0.90769 0.56173 0.24549 0.0
C1637 C 0.91016 0.52128 0.24717 0.0
H1638 H 0.90668 0.61085 0.22429 0.0
C1639 C 0.90929 0.49884 0.22826 0.0
H1640 H 0.90779 0.57968 0.25991 0.0
C1641 C 0.90907 0.51675 0.20793 0.0
C1642 C 0.90885 0.55727 0.20626 0.0
H1643 H 0.91099 0.46765 0.22914 0.0
H1644 H 0.91059 0.49894 0.19348 0.0
C1645 C 0.90666 0.57961 0.22517 0.0
C1646 C 0.80856 0.68513 0.47946 0.0
C1647 C 0.79381 0.67451 0.4998 0.0
H1648 H 0.79502 0.70212 0.44692 0.0
C1649 C 0.75412 0.66694 0.50216 0.0
H1650 H 0.83894 0.69172 0.47741 0.0
C1651 C 0.72907 0.67225 0.4847 0.0
C1652 C 0.7434 0.68644 0.46495 0.0
H1653 H 0.74222 0.65915 0.51789 0.0
H1654 H 0.69835 0.66812 0.48711 0.0
C1655 C 0.7834 0.69154 0.46219 0.0
C1656 C 0.43364 0.52806 0.22368 0.0
C1657 C 0.43362 0.50825 0.2435 0.0
H1658 H 0.43207 0.52333 0.18904 0.0
C1659 C 0.42835 0.46794 0.24362 0.0
H1660 H 0.43765 0.55907 0.22319 0.0
C1661 C 0.4246 0.44752 0.22419 0.0
C1662 C 0.42688 0.46704 0.20432 0.0
H1663 H 0.42784 0.45202 0.25877 0.0
H1664 H 0.42158 0.4164 0.2247 0.0
C1665 C 0.4307 0.50754 0.20422 0.0
C1666 C 0.33037 0.63764 -0.02231 0.0
C1667 C 0.29946 0.6304 0.96364 0.0
H1668 H 0.34737 0.65314 0.00985 0.0
C1669 C 0.26216 0.62591 0.9724 0.0
H1670 H 0.35946 0.64105 0.97144 0.0
C1671 C 0.25522 0.63277 -0.00558 0.0
C1672 C 0.28547 0.64448 0.00795 0.0
H1673 H 0.23785 0.61983 0.96196 0.0
H1674 H 0.22575 0.63192 0.00037 0.0
C1675 C 0.32338 0.64478 -0.00032 0.0
C1676 C 0.13842 0.51236 0.70874 0.0
C1677 C 0.13095 0.55196 0.70602 0.0
H1678 H 0.13015 0.46213 0.72858 0.0
C1679 C 0.11266 0.57251 0.72274 0.0
H1680 H 0.15229 0.49594 0.6959 0.0
C1681 C 0.09898 0.55295 0.74109 0.0
C1682 C 0.10409 0.51278 0.74312 0.0
H1683 H 0.10614 0.60291 0.72084 0.0
H1684 H 0.08318 0.56905 0.75333 0.0
C1685 C 0.12548 0.49296 0.72729 0.0
C1686 C 0.22138 0.31725 0.47059 0.0
C1687 C 0.24064 0.32779 0.45151 0.0
H1688 H 0.22669 0.30416 0.5043 0.0
C1689 C 0.28042 0.33555 0.45186 0.0
H1690 H 0.19075 0.31094 0.47049 0.0
C1691 C 0.30091 0.33261 0.47121 0.0
C1692 C 0.28196 0.32062 0.49018 0.0
H1693 H 0.29562 0.34384 0.43714 0.0
H1694 H 0.33157 0.33874 0.47125 0.0
C1695 C 0.24205 0.31307 0.48976 0.0
C1696 C 0.04713 0.28198 0.30672 0.0
C1697 C 0.028 0.25396 0.29408 0.0
H1698 H 0.05198 0.34145 0.31586 0.0
C1699 C 0.99621 0.26604 0.28163 0.0
H1700 H 0.07081 0.27407 0.31717 0.0
C1701 C 0.98487 0.30509 0.28129 0.0
C1702 C 1.00536 0.33312 0.29313 0.0
H1703 H 0.98063 0.24559 0.27172 0.0
H1704 H 0.9607 0.31356 0.27131 0.0
C1705 C 0.03629 0.32089 0.30604 0.0
C1706 C 1.01261 0.77367 0.50483 0.0
C1707 C 0.99316 0.769 0.52482 0.0
H1708 H 0.06556 0.78727 0.48834 0.0
C1709 C 1.01426 0.77477 0.54405 0.0
H1710 H 0.99761 0.76903 0.48969 0.0
C1711 C 0.05348 0.7854 0.54327 0.0
C1712 C 0.07294 0.78986 0.52324 0.0
H1713 H 1.00031 0.77155 0.55972 0.0
H1714 H 0.06869 0.78977 0.55837 0.0
C1715 C 0.05187 0.78369 0.50406 0.0
C1716 C 0.49255 0.77859 0.76064 0.0
C1717 C 0.49306 0.79969 0.78019 0.0
H1718 H 0.50444 0.72502 0.7445 0.0
C1719 C 0.50516 0.78069 0.79918 0.0
H1720 H 0.48304 0.7921 0.74575 0.0
C1721 C 0.51757 0.74205 0.79845 0.0
C1722 C 0.51768 0.72116 0.77878 0.0
H1723 H 0.50616 0.79604 0.81448 0.0
H1724 H 0.52736 0.72859 0.81329 0.0
C1725 C 0.50445 0.73988 0.75996 0.0
C1726 C 0.50249 0.25111 0.05615 0.0
C1727 C 0.48659 0.24711 0.0353 0.0
H1728 H 0.55282 0.26371 0.07507 0.0
C1729 C 0.5113 0.25114 0.01718 0.0
H1730 H 0.48433 0.24827 0.07044 0.0
C1731 C 0.55073 0.25932 0.01983 0.0
C1732 C 0.5664 0.26437 0.04068 0.0
H1733 H 0.50015 0.24776 0.0009 0.0
H1734 H 0.56868 0.263 0.00553 0.0
C1735 C 0.54173 0.25998 0.0588 0.0
C1736 C 0.02402 0.76292 0.15685 0.0
C1737 C 1.01772 0.74304 0.17657 0.0
H1738 H 0.03531 0.81726 0.14111 0.0
C1739 C 0.02012 0.76408 0.19604 0.0
H1740 H 0.02237 0.74762 0.14154 0.0
C1741 C 0.02695 0.80412 0.19575 0.0
C1742 C 0.03232 0.82418 0.17601 0.0
H1743 H 1.01501 0.7499 0.21146 0.0
H1744 H 0.02759 0.81956 0.21103 0.0
C1745 C 0.0316 0.80283 0.15658 0.0
C1746 C 0.50711 0.73952 0.40792 0.0
C1747 C 0.52317 0.7408 0.42886 0.0
H1748 H 0.45715 0.74842 0.38823 0.0
C1749 C 0.49858 0.74946 0.44652 0.0
H1750 H 0.52486 0.73302 0.39388 0.0
C1751 C 0.45962 0.75853 0.44323 0.0
C1752 C 0.44411 0.75923 0.42217 0.0
H1753 H 0.50953 0.74997 0.46293 0.0
H1754 H 0.4422 0.76678 0.45712 0.0
C1755 C 0.46817 0.74857 0.40465 0.0
C1756 C 0.51295 0.25361 0.65646 0.0
C1757 C 0.50439 0.23731 0.67691 0.0
H1758 H 0.52873 0.30436 0.63839 0.0
C1759 C 0.50461 0.262 0.69513 0.0
H1760 H 0.5133 0.2357 0.64206 0.0
C1761 C 0.51333 0.3015 0.69303 0.0
C1762 C 0.52256 0.31772 0.67266 0.0
H1763 H 0.49777 0.25087 0.71112 0.0
H1764 H 0.5136 0.31915 0.70752 0.0
C1765 C 0.52213 0.29309 0.65439 0.0
C1766 C 0.03228 0.27843 0.90784 0.0
C1767 C 0.05153 0.26656 0.92678 0.0
H1768 H 0.97902 0.29745 0.89359 0.0
C1769 C 0.03022 0.26441 0.94628 0.0
H1770 H 0.04787 0.28036 0.89258 0.0
C1771 C 0.99063 0.2733 0.94676 0.0
C1772 C 0.97139 0.28543 0.92786 0.0
H1773 H 0.044 0.25497 0.96109 0.0
H1774 H 0.97513 0.27115 0.96204 0.0
C1775 C 0.99289 0.28828 0.90843 0.0
C1776 C 0.03154 0.80286 0.64861 0.0
C1777 C 0.02529 0.82206 0.66851 0.0
H1778 H 0.04619 0.74958 0.63252 0.0
C1779 C 0.02899 0.80062 0.68782 0.0
H1780 H 0.02881 0.81844 0.63345 0.0
C1781 C 0.03803 0.76108 0.68726 0.0
C1782 C 0.04443 0.74188 0.6674 0.0
H1783 H 0.02385 0.81421 0.70341 0.0
H1784 H 0.04044 0.74556 0.70245 0.0
C1785 C 0.0415 0.76344 0.64807 0.0
C1786 C 1.01848 0.28351 0.38721 0.0
C1787 C 0.03959 0.27813 0.40638 0.0
H1788 H 0.96289 0.28072 0.37198 0.0
C1789 C 1.01957 0.26884 0.42563 0.0
H1790 H 0.03322 0.29062 0.37216 0.0
C1791 C 0.97941 0.26426 0.42566 0.0
C1792 C 0.95843 0.26809 0.40634 0.0
H1793 H 0.03511 0.26495 0.44068 0.0
H1794 H 0.96496 0.25594 0.44059 0.0
C1795 C 0.97837 0.27801 0.38713 0.0
C1796 C 0.50927 0.2556 0.13777 0.0
C1797 C 0.51006 0.27521 0.15779 0.0
H1798 H 0.51796 0.20189 0.12082 0.0
C1799 C 0.51951 0.25415 0.17656 0.0
H1800 H 0.50196 0.27103 0.12305 0.0
C1801 C 0.52729 0.21433 0.17539 0.0
C1802 C 0.52693 0.1948 0.15533 0.0
H1803 H 0.51991 0.26834 0.19223 0.0
H1804 H 0.53441 0.19889 0.19013 0.0
C1805 C 0.51827 0.21606 0.1365 0.0
C1806 C 0.51399 0.76909 0.94624 0.0
C1807 C 0.53498 0.77547 0.92694 0.0
H1808 H 0.45984 0.75455 0.96093 0.0
C1809 C 0.51513 0.77408 0.90708 0.0
H1810 H 0.52818 0.77047 0.96183 0.0
C1811 C 0.47562 0.76493 0.90654 0.0
C1812 C 0.45488 0.75753 0.92587 0.0
H1813 H 0.53039 0.77877 0.89191 0.0
H1814 H 0.46138 0.76317 0.89097 0.0
C1815 C 0.47454 0.76042 0.94573 0.0
C1816 C 1.01225 0.23552 0.76612 0.0
C1817 C 0.99705 0.22234 0.78604 0.0
H1818 H 0.03364 0.28355 0.74758 0.0
C1819 C 0.99299 0.24911 0.80314 0.0
H1820 H 1.01549 0.21587 0.75256 0.0
C1821 C 1.00401 0.28795 0.80036 0.0
C1822 C 1.0184 0.30119 0.78024 0.0
H1823 H 0.98155 0.2399 0.81871 0.0
H1824 H 1.00044 0.30786 0.81377 0.0
C1825 C 0.02238 0.27441 0.7632 0.0
C1826 C 0.52689 0.22762 0.51163 0.0
C1827 C 0.55432 0.23976 0.52692 0.0
H1828 H 0.46726 0.22559 0.50252 0.0
C1829 C 0.54125 0.26054 0.54523 0.0
H1830 H 0.53598 0.21157 0.49741 0.0
C1831 C 0.50175 0.26951 0.5479 0.0
C1832 C 0.4743 0.25683 0.53268 0.0
H1833 H 0.56173 0.27054 0.55719 0.0
H1834 H 0.49255 0.28581 0.56202 0.0
C1835 C 0.48749 0.23557 0.51461 0.0
C1836 C 0.52819 0.7618 0.26099 0.0
C1837 C 0.53208 0.78332 0.28023 0.0
H1838 H 0.52188 0.70587 0.24653 0.0
C1839 C 0.53258 0.76351 0.30018 0.0
H1840 H 0.52829 0.77611 0.24536 0.0
C1841 C 0.52866 0.72315 0.30086 0.0
C1842 C 0.52522 0.70165 0.28157 0.0
H1843 H 0.53573 0.77932 0.31524 0.0
H1844 H 0.52867 0.70864 0.31644 0.0
C1845 C 0.52514 0.72149 0.26164 0.0
C1846 C 0.04554 0.78646 0.04276 0.0
C1847 C 0.028 0.78796 0.02221 0.0
H1848 H 0.09696 0.77473 0.06089 0.0
C1849 C 0.0509 0.77999 0.00379 0.0
H1850 H 0.02878 0.79217 0.05731 0.0
C1851 C 0.08984 0.76988 0.0058 0.0
C1852 C 0.10727 0.76719 0.02634 0.0
H1853 H 0.03857 0.78125 -0.01231 0.0
H1854 H 0.10595 0.7631 -0.00881 0.0
C1855 C 0.0846 0.77602 0.04481 0.0
loop_
_geom_bond_atom_site_label_1
_geom_bond_atom_site_label_2
_geom_bond_distance
_geom_bond_site_symmetry_2
_ccdc_geom_bond_type
C0 C1 1.351 . S
C0 N3 1.368 . S
C0 H5 0.931 . S
C1 C0 1.351 . S
C1 N2 1.373 . S
C1 H29 0.930 . S
N2 C1 1.373 . S
N2 C4 1.340 . S
N3 C0 1.368 . S
N3 C4 1.321 . S
N3 Co6 2.135 . S
C4 N2 1.340 . S
C4 N3 1.321 . S
C4 H28 0.930 . S
H5 C0 0.931 . S
Co6 N3 2.135 . S
Co6 N9 2.121 . S
Co6 O14 2.055 . S
Co6 O17 2.039 . S
Co6 N20 2.140 . S
C7 O8 1.227 . S
C7 O17 1.265 . S
O8 C7 1.227 . S
N9 Co6 2.121 . S
N9 C11 1.375 . S
N9 C12 1.313 . S
C10 C11 1.338 . S
C10 N13 1.377 . S
C10 H30 0.930 . S
C11 N9 1.375 . S
C11 C10 1.338 . S
C11 H15 0.931 . S
C12 N9 1.313 . S
C12 N13 1.344 . S
C12 H16 0.930 . S
N13 C10 1.377 . S
N13 C12 1.344 . S
O14 Co6 2.055 . S
O14 C18 1.253 . S
H15 C11 0.931 . S
H16 C12 0.930 . S
O17 Co6 2.039 . S
O17 C7 1.265 . S
C18 O14 1.253 . S
C18 O19 1.227 . S
O19 C18 1.227 . S
N20 Co6 2.140 . S
N20 C23 1.346 . S
N20 C24 1.345 . S
C21 C22 1.387 . S
C21 C25 1.391 . S
C22 C21 1.387 . S
C22 C23 1.369 . S
C22 H31 0.929 1_455 S
C23 N20 1.346 . S
C23 C22 1.369 . S
C23 H26 0.928 . S
C24 N20 1.345 . S
C24 C25 1.371 . S
C24 H27 0.931 . S
C25 C21 1.391 . S
C25 C24 1.371 . S
C25 H32 0.930 . S
H26 C23 0.928 . S
H27 C24 0.931 . S
H28 C4 0.930 . S
H29 C1 0.930 . S
H30 C10 0.930 . S
H31 C22 0.929 1_655 S
H32 C25 0.930 . S
C33 C34 1.351 . S
C33 N36 1.368 . S
C33 H38 0.931 . S
C34 C33 1.351 . S
C34 N35 1.373 . S
C34 H62 0.930 . S
N35 C34 1.373 . S
N35 C37 1.340 . S
N36 C33 1.368 . S
N36 C37 1.321 . S
N36 Co39 2.135 . S
C37 N35 1.340 . S
C37 N36 1.321 . S
C37 H61 0.930 . S
H38 C33 0.931 . S
Co39 N36 2.135 . S
Co39 N42 2.121 . S
Co39 O47 2.055 . S
Co39 O50 2.039 . S
Co39 N53 2.140 . S
C40 O41 1.227 . S
C40 O50 1.265 . S
O41 C40 1.227 . S
N42 Co39 2.121 . S
N42 C44 1.375 . S
N42 C45 1.313 . S
C43 C44 1.338 . S
C43 N46 1.377 . S
C43 H63 0.930 . S
C44 N42 1.375 . S
C44 C43 1.338 . S
C44 H48 0.931 . S
C45 N42 1.313 . S
C45 N46 1.344 . S
C45 H49 0.930 . S
N46 C43 1.377 . S
N46 C45 1.344 . S
O47 Co39 2.055 . S
O47 C51 1.253 . S
H48 C44 0.931 . S
H49 C45 0.930 . S
O50 Co39 2.039 . S
O50 C40 1.265 . S
C51 O47 1.253 . S
C51 O52 1.227 . S
O52 C51 1.227 . S
N53 Co39 2.140 . S
N53 C56 1.346 . S
N53 C57 1.345 . S
C54 C55 1.387 . S
C54 C58 1.391 . S
C55 C54 1.387 . S
C55 C56 1.369 . S
C55 H64 0.929 . S
C56 N53 1.346 . S
C56 C55 1.369 . S
C56 H59 0.928 . S
C57 N53 1.345 . S
C57 C58 1.371 . S
C57 H60 0.931 . S
C58 C54 1.391 . S
C58 C57 1.371 . S
C58 H65 0.930 . S
H59 C56 0.928 . S
H60 C57 0.931 . S
H61 C37 0.930 . S
H62 C34 0.930 . S
H63 C43 0.930 . S
H64 C55 0.929 . S
H65 C58 0.930 . S
C66 C67 1.351 . S
C66 N69 1.368 . S
C66 H71 0.931 . S
C67 C66 1.351 . S
C67 N68 1.373 . S
C67 H95 0.930 . S
N68 C67 1.373 . S
N68 C70 1.340 . S
N69 C66 1.368 . S
N69 C70 1.321 . S
N69 Co72 2.135 . S
C70 N68 1.340 . S
C70 N69 1.321 . S
C70 H94 0.930 . S
H71 C66 0.931 . S
Co72 N69 2.135 . S
Co72 N75 2.121 . S
Co72 O80 2.055 . S
Co72 O83 2.039 . S
Co72 N86 2.140 . S
C73 O74 1.227 . S
C73 O83 1.265 . S
O74 C73 1.227 . S
N75 Co72 2.121 . S
N75 C77 1.375 . S
N75 C78 1.313 . S
C76 C77 1.338 . S
C76 N79 1.377 . S
C76 H96 0.930 . S
C77 N75 1.375 . S
C77 C76 1.338 . S
C77 H81 0.931 . S
C78 N75 1.313 . S
C78 N79 1.344 . S
C78 H82 0.930 . S
N79 C76 1.377 . S
N79 C78 1.344 . S
O80 Co72 2.055 . S
O80 C84 1.253 . S
H81 C77 0.931 . S
H82 C78 0.930 . S
O83 Co72 2.039 . S
O83 C73 1.265 . S
C84 O80 1.253 . S
C84 O85 1.227 . S
O85 C84 1.227 . S
N86 Co72 2.140 . S
N86 C89 1.346 . S
N86 C90 1.345 . S
C87 C88 1.387 . S
C87 C91 1.391 . S
C88 C87 1.387 . S
C88 C89 1.369 . S
C88 H97 0.929 . S
C89 N86 1.346 . S
C89 C88 1.369 . S
C89 H92 0.928 . S
C90 N86 1.345 . S
C90 C91 1.371 . S
C90 H93 0.931 . S
C91 C87 1.391 . S
C91 C90 1.371 . S
C91 H98 0.930 . S
H92 C89 0.928 . S
H93 C90 0.931 . S
H94 C70 0.930 . S
H95 C67 0.930 . S
H96 C76 0.930 . S
H97 C88 0.929 . S
H98 C91 0.930 . S
C99 C100 1.351 . S
C99 N102 1.368 . S
C99 H104 0.931 . S
C100 C99 1.351 . S
C100 N101 1.373 . S
C100 H128 0.930 . S
N101 C100 1.373 . S
N101 C103 1.340 . S
N102 C99 1.368 . S
N102 C103 1.321 . S
N102 Co105 2.135 . S
C103 N101 1.340 . S
C103 N102 1.321 . S
C103 H127 0.930 . S
H104 C99 0.931 . S
Co105 N102 2.135 . S
Co105 N108 2.121 . S
Co105 O113 2.055 . S
Co105 O116 2.039 . S
Co105 N119 2.140 . S
C106 O107 1.227 . S
C106 O116 1.265 . S
O107 C106 1.227 . S
N108 Co105 2.121 . S
N108 C110 1.375 . S
N108 C111 1.313 . S
C109 C110 1.338 . S
C109 N112 1.377 . S
C109 H129 0.930 . S
C110 N108 1.375 . S
C110 C109 1.338 . S
C110 H114 0.931 . S
C111 N108 1.313 . S
C111 N112 1.344 . S
C111 H115 0.930 . S
N112 C109 1.377 . S
N112 C111 1.344 . S
O113 Co105 2.055 . S
O113 C117 1.253 . S
H114 C110 0.931 . S
H115 C111 0.930 . S
O116 Co105 2.039 . S
O116 C106 1.265 . S
C117 O113 1.253 . S
C117 O118 1.227 . S
O118 C117 1.227 . S
N119 Co105 2.140 . S
N119 C122 1.346 . S
N119 C123 1.345 . S
C120 C121 1.387 . S
C120 C124 1.391 . S
C121 C120 1.387 . S
C121 C122 1.369 . S
C121 H130 0.929 . S
C122 N119 1.346 . S
C122 C121 1.369 . S
C122 H125 0.928 . S
C123 N119 1.345 . S
C123 C124 1.371 . S
C123 H126 0.931 . S
C124 C120 1.391 . S
C124 C123 1.371 . S
C124 H131 0.930 . S
H125 C122 0.928 . S
H126 C123 0.931 . S
H127 C103 0.930 . S
H128 C100 0.930 . S
H129 C109 0.930 . S
H130 C121 0.929 . S
H131 C124 0.930 . S
C132 C133 1.351 . S
C132 N135 1.368 . S
C132 H137 0.931 . S
C133 C132 1.351 . S
C133 N134 1.373 . S
C133 H161 0.930 . S
N134 C133 1.373 . S
N134 C136 1.340 . S
N135 C132 1.368 . S
N135 C136 1.321 . S
N135 Co138 2.135 . S
C136 N134 1.340 . S
C136 N135 1.321 . S
C136 H160 0.930 . S
H137 C132 0.931 . S
Co138 N135 2.135 . S
Co138 N141 2.121 . S
Co138 O146 2.055 . S
Co138 O149 2.039 . S
Co138 N152 2.140 . S
C139 O140 1.227 . S
C139 O149 1.265 . S
O140 C139 1.227 . S
N141 Co138 2.121 . S
N141 C143 1.375 . S
N141 C144 1.313 . S
C142 C143 1.338 . S
C142 N145 1.377 . S
C142 H162 0.930 . S
C143 N141 1.375 . S
C143 C142 1.338 . S
C143 H147 0.931 . S
C144 N141 1.313 . S
C144 N145 1.344 . S
C144 H148 0.930 . S
N145 C142 1.377 . S
N145 C144 1.344 . S
O146 Co138 2.055 . S
O146 C150 1.253 . S
H147 C143 0.931 . S
H148 C144 0.930 . S
O149 Co138 2.039 . S
O149 C139 1.265 . S
C150 O146 1.253 . S
C150 O151 1.227 . S
O151 C150 1.227 . S
N152 Co138 2.140 . S
N152 C155 1.346 . S
N152 C156 1.345 . S
C153 C154 1.387 . S
C153 C157 1.391 . S
C154 C153 1.387 . S
C154 C155 1.369 . S
C154 H163 0.929 1_455 S
C155 N152 1.346 . S
C155 C154 1.369 . S
C155 H158 0.928 . S
C156 N152 1.345 . S
C156 C157 1.371 . S
C156 H159 0.931 . S
C157 C153 1.391 . S
C157 C156 1.371 . S
C157 H164 0.930 . S
H158 C155 0.928 . S
H159 C156 0.931 . S
H160 C136 0.930 . S
H161 C133 0.930 . S
H162 C142 0.930 . S
H163 C154 0.929 1_655 S
H164 C157 0.930 . S
C165 C166 1.351 . S
C165 N168 1.368 . S
C165 H170 0.931 . S
C166 C165 1.351 . S
C166 N167 1.373 . S
C166 H194 0.930 . S
N167 C166 1.373 . S
N167 C169 1.340 . S
N168 C165 1.368 . S
N168 C169 1.321 . S
N168 Co171 2.135 . S
C169 N167 1.340 . S
C169 N168 1.321 . S
C169 H193 0.930 . S
H170 C165 0.931 . S
Co171 N168 2.135 . S
Co171 N174 2.121 . S
Co171 O179 2.055 . S
Co171 O182 2.039 . S
Co171 N185 2.140 . S
C172 O173 1.227 . S
C172 O182 1.265 . S
O173 C172 1.227 . S
N174 Co171 2.121 . S
N174 C176 1.375 . S
N174 C177 1.313 . S
C175 C176 1.338 . S
C175 N178 1.377 . S
C175 H195 0.930 . S
C176 N174 1.375 . S
C176 C175 1.338 . S
C176 H180 0.931 . S
C177 N174 1.313 . S
C177 N178 1.344 . S
C177 H181 0.930 . S
N178 C175 1.377 . S
N178 C177 1.344 . S
O179 Co171 2.055 . S
O179 C183 1.253 . S
H180 C176 0.931 . S
H181 C177 0.930 . S
O182 Co171 2.039 . S
O182 C172 1.265 . S
C183 O179 1.253 . S
C183 O184 1.227 . S
O184 C183 1.227 . S
N185 Co171 2.140 . S
N185 C188 1.346 . S
N185 C189 1.345 . S
C186 C187 1.387 . S
C186 C190 1.391 . S
C187 C186 1.387 . S
C187 C188 1.369 . S
C187 H196 0.929 . S
C188 N185 1.346 . S
C188 C187 1.369 . S
C188 H191 0.928 . S
C189 N185 1.345 . S
C189 C190 1.371 . S
C189 H192 0.931 . S
C190 C186 1.391 . S
C190 C189 1.371 . S
C190 H197 0.930 . S
H191 C188 0.928 . S
H192 C189 0.931 . S
H193 C169 0.930 . S
H194 C166 0.930 . S
H195 C175 0.930 . S
H196 C187 0.929 . S
H197 C190 0.930 . S
C198 C199 1.351 . S
C198 N201 1.368 . S
C198 H203 0.931 . S
C199 C198 1.351 . S
C199 N200 1.373 . S
C199 H227 0.930 . S
N200 C199 1.373 . S
N200 C202 1.340 . S
N201 C198 1.368 . S
N201 C202 1.321 . S
N201 Co204 2.135 . S
C202 N200 1.340 . S
C202 N201 1.321 . S
C202 H226 0.930 . S
H203 C198 0.931 . S
Co204 N201 2.135 . S
Co204 N207 2.121 . S
Co204 O212 2.055 . S
Co204 O215 2.039 . S
Co204 N218 2.140 . S
C205 O206 1.227 . S
C205 O215 1.265 . S
O206 C205 1.227 . S
N207 Co204 2.121 . S
N207 C209 1.375 . S
N207 C210 1.313 . S
C208 C209 1.338 . S
C208 N211 1.377 . S
C208 H228 0.930 . S
C209 N207 1.375 . S
C209 C208 1.338 . S
C209 H213 0.931 . S
C210 N207 1.313 . S
C210 N211 1.344 . S
C210 H214 0.930 . S
N211 C208 1.377 . S
N211 C210 1.344 . S
O212 Co204 2.055 . S
O212 C216 1.253 . S
H213 C209 0.931 . S
H214 C210 0.930 . S
O215 Co204 2.039 . S
O215 C205 1.265 . S
C216 O212 1.253 . S
C216 O217 1.227 . S
O217 C216 1.227 . S
N218 Co204 2.140 . S
N218 C221 1.346 . S
N218 C222 1.345 . S
C219 C220 1.387 . S
C219 C223 1.391 . S
C220 C219 1.387 . S
C220 C221 1.369 . S
C220 H229 0.929 . S
C221 N218 1.346 . S
C221 C220 1.369 . S
C221 H224 0.928 . S
C222 N218 1.345 . S
C222 C223 1.371 . S
C222 H225 0.931 . S
C223 C219 1.391 . S
C223 C222 1.371 . S
C223 H230 0.930 . S
H224 C221 0.928 . S
H225 C222 0.931 . S
H226 C202 0.930 . S
H227 C199 0.930 . S
H228 C208 0.930 . S
H229 C220 0.929 . S
H230 C223 0.930 . S
C231 C232 1.351 . S
C231 N234 1.368 . S
C231 H236 0.931 . S
C232 C231 1.351 . S
C232 N233 1.373 . S
C232 H260 0.930 . S
N233 C232 1.373 . S
N233 C235 1.340 . S
N234 C231 1.368 . S
N234 C235 1.321 . S
N234 Co237 2.135 . S
C235 N233 1.340 . S
C235 N234 1.321 . S
C235 H259 0.930 . S
H236 C231 0.931 . S
Co237 N234 2.135 . S
Co237 N240 2.121 . S
Co237 O245 2.055 . S
Co237 O248 2.039 . S
Co237 N251 2.140 . S
C238 O239 1.227 . S
C238 O248 1.265 . S
O239 C238 1.227 . S
N240 Co237 2.121 . S
N240 C242 1.375 . S
N240 C243 1.313 . S
C241 C242 1.338 . S
C241 N244 1.377 . S
C241 H261 0.930 . S
C242 N240 1.375 . S
C242 C241 1.338 . S
C242 H246 0.931 . S
C243 N240 1.313 . S
C243 N244 1.344 . S
C243 H247 0.930 . S
N244 C241 1.377 . S
N244 C243 1.344 . S
O245 Co237 2.055 . S
O245 C249 1.253 . S
H246 C242 0.931 . S
H247 C243 0.930 . S
O248 Co237 2.039 . S
O248 C238 1.265 . S
C249 O245 1.253 . S
C249 O250 1.227 . S
O250 C249 1.227 . S
N251 Co237 2.140 . S
N251 C254 1.346 . S
N251 C255 1.345 . S
C252 C253 1.387 . S
C252 C256 1.391 . S
C253 C252 1.387 . S
C253 C254 1.369 . S
C253 H262 0.929 . S
C254 N251 1.346 . S
C254 C253 1.369 . S
C254 H257 0.928 . S
C255 N251 1.345 . S
C255 C256 1.371 . S
C255 H258 0.931 . S
C256 C252 1.391 . S
C256 C255 1.371 . S
C256 H263 0.930 . S
H257 C254 0.928 . S
H258 C255 0.931 . S
H259 C235 0.930 . S
H260 C232 0.930 . S
H261 C241 0.930 . S
H262 C253 0.929 . S
H263 C256 0.930 . S
C264 C265 1.351 . S
C264 N267 1.368 . S
C264 H269 0.931 . S
C265 C264 1.351 . S
C265 N266 1.373 . S
C265 H293 0.930 . S
N266 C265 1.373 . S
N266 C268 1.340 . S
N267 C264 1.368 . S
N267 C268 1.321 . S
N267 Co270 2.135 . S
C268 N266 1.340 . S
C268 N267 1.321 . S
C268 H292 0.930 . S
H269 C264 0.931 . S
Co270 N267 2.135 . S
Co270 N273 2.121 . S
Co270 O278 2.055 . S
Co270 O281 2.039 . S
Co270 N284 2.140 . S
C271 O272 1.227 . S
C271 O281 1.265 . S
O272 C271 1.227 . S
N273 Co270 2.121 . S
N273 C275 1.375 . S
N273 C276 1.313 . S
C274 C275 1.338 . S
C274 N277 1.377 . S
C274 H294 0.930 . S
C275 N273 1.375 . S
C275 C274 1.338 . S
C275 H279 0.931 . S
C276 N273 1.313 . S
C276 N277 1.344 . S
C276 H280 0.930 . S
N277 C274 1.377 . S
N277 C276 1.344 . S
O278 Co270 2.055 . S
O278 C282 1.253 . S
H279 C275 0.931 . S
H280 C276 0.930 . S
O281 Co270 2.039 . S
O281 C271 1.265 . S
C282 O278 1.253 . S
C282 O283 1.227 . S
O283 C282 1.227 . S
N284 Co270 2.140 . S
N284 C287 1.346 . S
N284 C288 1.345 . S
C285 C286 1.387 . S
C285 C289 1.391 . S
C286 C285 1.387 . S
C286 C287 1.369 . S
C286 H295 0.929 1_655 S
C287 N284 1.346 . S
C287 C286 1.369 . S
C287 H290 0.928 . S
C288 N284 1.345 . S
C288 C289 1.371 . S
C288 H291 0.931 . S
C289 C285 1.391 . S
C289 C288 1.371 . S
C289 H296 0.930 . S
H290 C287 0.928 . S
H291 C288 0.931 . S
H292 C268 0.930 . S
H293 C265 0.930 . S
H294 C274 0.930 . S
H295 C286 0.929 1_455 S
H296 C289 0.930 . S
C297 C298 1.351 . S
C297 N300 1.368 . S
C297 H302 0.931 . S
C298 C297 1.351 . S
C298 N299 1.373 . S
C298 H326 0.930 . S
N299 C298 1.373 . S
N299 C301 1.340 . S
N300 C297 1.368 . S
N300 C301 1.321 . S
N300 Co303 2.135 . S
C301 N299 1.340 . S
C301 N300 1.321 . S
C301 H325 0.930 . S
H302 C297 0.931 . S
Co303 N300 2.135 . S
Co303 N306 2.121 . S
Co303 O311 2.055 . S
Co303 O314 2.039 . S
Co303 N317 2.140 . S
C304 O305 1.227 . S
C304 O314 1.265 . S
O305 C304 1.227 . S
N306 Co303 2.121 . S
N306 C308 1.375 . S
N306 C309 1.313 . S
C307 C308 1.338 . S
C307 N310 1.377 . S
C307 H327 0.930 . S
C308 N306 1.375 . S
C308 C307 1.338 . S
C308 H312 0.931 . S
C309 N306 1.313 . S
C309 N310 1.344 . S
C309 H313 0.930 . S
N310 C307 1.377 . S
N310 C309 1.344 . S
O311 Co303 2.055 . S
O311 C315 1.253 . S
H312 C308 0.931 . S
H313 C309 0.930 . S
O314 Co303 2.039 . S
O314 C304 1.265 . S
C315 O311 1.253 . S
C315 O316 1.227 . S
O316 C315 1.227 . S
N317 Co303 2.140 . S
N317 C320 1.346 . S
N317 C321 1.345 . S
C318 C319 1.387 . S
C318 C322 1.391 . S
C319 C318 1.387 . S
C319 C320 1.369 . S
C319 H328 0.929 . S
C320 N317 1.346 . S
C320 C319 1.369 . S
C320 H323 0.928 . S
C321 N317 1.345 . S
C321 C322 1.371 . S
C321 H324 0.931 . S
C322 C318 1.391 . S
C322 C321 1.371 . S
C322 H329 0.930 . S
H323 C320 0.928 . S
H324 C321 0.931 . S
H325 C301 0.930 . S
H326 C298 0.930 . S
H327 C307 0.930 . S
H328 C319 0.929 . S
H329 C322 0.930 . S
C330 C331 1.351 . S
C330 N333 1.368 . S
C330 H335 0.931 . S
C331 C330 1.351 . S
C331 N332 1.373 . S
C331 H359 0.930 . S
N332 C331 1.373 . S
N332 C334 1.340 . S
N333 C330 1.368 . S
N333 C334 1.321 . S
N333 Co336 2.135 . S
C334 N332 1.340 . S
C334 N333 1.321 . S
C334 H358 0.930 . S
H335 C330 0.931 . S
Co336 N333 2.135 . S
Co336 N339 2.121 . S
Co336 O344 2.055 . S
Co336 O347 2.039 . S
Co336 N350 2.140 . S
C337 O338 1.227 . S
C337 O347 1.265 . S
O338 C337 1.227 . S
N339 Co336 2.121 . S
N339 C341 1.375 . S
N339 C342 1.313 . S
C340 C341 1.338 . S
C340 N343 1.377 . S
C340 H360 0.930 . S
C341 N339 1.375 . S
C341 C340 1.338 . S
C341 H345 0.931 . S
C342 N339 1.313 . S
C342 N343 1.344 . S
C342 H346 0.930 . S
N343 C340 1.377 . S
N343 C342 1.344 . S
O344 Co336 2.055 . S
O344 C348 1.253 . S
H345 C341 0.931 . S
H346 C342 0.930 . S
O347 Co336 2.039 . S
O347 C337 1.265 . S
C348 O344 1.253 . S
C348 O349 1.227 . S
O349 C348 1.227 . S
N350 Co336 2.140 . S
N350 C353 1.346 . S
N350 C354 1.345 . S
C351 C352 1.387 . S
C351 C355 1.391 . S
C352 C351 1.387 . S
C352 C353 1.369 . S
C352 H361 0.929 . S
C353 N350 1.346 . S
C353 C352 1.369 . S
C353 H356 0.928 . S
C354 N350 1.345 . S
C354 C355 1.371 . S
C354 H357 0.931 . S
C355 C351 1.391 . S
C355 C354 1.371 . S
C355 H362 0.930 . S
H356 C353 0.928 . S
H357 C354 0.931 . S
H358 C334 0.930 . S
H359 C331 0.930 . S
H360 C340 0.930 . S
H361 C352 0.929 . S
H362 C355 0.930 . S
C363 C364 1.351 . S
C363 N366 1.368 . S
C363 H368 0.931 . S
C364 C363 1.351 . S
C364 N365 1.373 . S
C364 H392 0.930 . S
N365 C364 1.373 . S
N365 C367 1.340 . S
N366 C363 1.368 . S
N366 C367 1.321 . S
N366 Co369 2.135 . S
C367 N365 1.340 . S
C367 N366 1.321 . S
C367 H391 0.930 . S
H368 C363 0.931 . S
Co369 N366 2.135 . S
Co369 N372 2.121 . S
Co369 O377 2.055 . S
Co369 O380 2.039 . S
Co369 N383 2.140 . S
C370 O371 1.227 . S
C370 O380 1.265 . S
O371 C370 1.227 . S
N372 Co369 2.121 . S
N372 C374 1.375 . S
N372 C375 1.313 . S
C373 C374 1.338 . S
C373 N376 1.377 . S
C373 H393 0.930 . S
C374 N372 1.375 . S
C374 C373 1.338 . S
C374 H378 0.931 . S
C375 N372 1.313 . S
C375 N376 1.344 . S
C375 H379 0.930 . S
N376 C373 1.377 . S
N376 C375 1.344 . S
O377 Co369 2.055 . S
O377 C381 1.253 . S
H378 C374 0.931 . S
H379 C375 0.930 . S
O380 Co369 2.039 . S
O380 C370 1.265 . S
C381 O377 1.253 . S
C381 O382 1.227 . S
O382 C381 1.227 . S
N383 Co369 2.140 . S
N383 C386 1.346 . S
N383 C387 1.345 . S
C384 C385 1.387 . S
C384 C388 1.391 . S
C385 C384 1.387 . S
C385 C386 1.369 . S
C385 H394 0.929 . S
C386 N383 1.346 . S
C386 C385 1.369 . S
C386 H389 0.928 . S
C387 N383 1.345 . S
C387 C388 1.371 . S
C387 H390 0.931 . S
C388 C384 1.391 . S
C388 C387 1.371 . S
C388 H395 0.930 . S
H389 C386 0.928 . S
H390 C387 0.931 . S
H391 C367 0.930 . S
H392 C364 0.930 . S
H393 C373 0.930 . S
H394 C385 0.929 . S
H395 C388 0.930 . S
C396 C397 1.351 . S
C396 N399 1.368 . S
C396 H401 0.931 . S
C397 C396 1.351 . S
C397 N398 1.373 . S
C397 H425 0.930 . S
N398 C397 1.373 . S
N398 C400 1.340 . S
N399 C396 1.368 . S
N399 C400 1.321 . S
N399 Co402 2.135 . S
C400 N398 1.340 . S
C400 N399 1.321 . S
C400 H424 0.930 . S
H401 C396 0.931 . S
Co402 N399 2.135 . S
Co402 N405 2.121 . S
Co402 O410 2.055 . S
Co402 O413 2.039 . S
Co402 N416 2.140 . S
C403 O404 1.227 . S
C403 O413 1.265 . S
O404 C403 1.227 . S
N405 Co402 2.121 . S
N405 C407 1.375 . S
N405 C408 1.313 . S
C406 C407 1.338 . S
C406 N409 1.377 . S
C406 H426 0.930 . S
C407 N405 1.375 . S
C407 C406 1.338 . S
C407 H411 0.931 . S
C408 N405 1.313 . S
C408 N409 1.344 . S
C408 H412 0.930 . S
N409 C406 1.377 . S
N409 C408 1.344 . S
O410 Co402 2.055 . S
O410 C414 1.253 . S
H411 C407 0.931 . S
H412 C408 0.930 . S
O413 Co402 2.039 . S
O413 C403 1.265 . S
C414 O410 1.253 . S
C414 O415 1.227 . S
O415 C414 1.227 . S
N416 Co402 2.140 . S
N416 C419 1.346 . S
N416 C420 1.345 . S
C417 C418 1.387 . S
C417 C421 1.391 . S
C418 C417 1.387 . S
C418 C419 1.369 . S
C418 H427 0.929 1_655 S
C419 N416 1.346 . S
C419 C418 1.369 . S
C419 H422 0.928 . S
C420 N416 1.345 . S
C420 C421 1.371 . S
C420 H423 0.931 . S
C421 C417 1.391 . S
C421 C420 1.371 . S
C421 H428 0.930 . S
H422 C419 0.928 . S
H423 C420 0.931 . S
H424 C400 0.930 . S
H425 C397 0.930 . S
H426 C406 0.930 . S
H427 C418 0.929 1_455 S
H428 C421 0.930 . S
C429 C430 1.351 . S
C429 N432 1.368 . S
C429 H434 0.931 . S
C430 C429 1.351 . S
C430 N431 1.373 . S
C430 H458 0.930 . S
N431 C430 1.373 . S
N431 C433 1.340 . S
N432 C429 1.368 . S
N432 C433 1.321 . S
N432 Co435 2.135 . S
C433 N431 1.340 . S
C433 N432 1.321 . S
C433 H457 0.930 . S
H434 C429 0.931 . S
Co435 N432 2.135 . S
Co435 N438 2.121 . S
Co435 O443 2.055 . S
Co435 O446 2.039 . S
Co435 N449 2.140 . S
C436 O437 1.227 . S
C436 O446 1.265 . S
O437 C436 1.227 . S
N438 Co435 2.121 . S
N438 C440 1.375 . S
N438 C441 1.313 . S
C439 C440 1.338 . S
C439 N442 1.377 . S
C439 H459 0.930 . S
C440 N438 1.375 . S
C440 C439 1.338 . S
C440 H444 0.931 . S
C441 N438 1.313 . S
C441 N442 1.344 . S
C441 H445 0.930 . S
N442 C439 1.377 . S
N442 C441 1.344 . S
O443 Co435 2.055 . S
O443 C447 1.253 . S
H444 C440 0.931 . S
H445 C441 0.930 . S
O446 Co435 2.039 . S
O446 C436 1.265 . S
C447 O443 1.253 . S
C447 O448 1.227 . S
O448 C447 1.227 . S
N449 Co435 2.140 . S
N449 C452 1.346 . S
N449 C453 1.345 . S
C450 C451 1.387 . S
C450 C454 1.391 . S
C451 C450 1.387 . S
C451 C452 1.369 . S
C451 H460 0.929 . S
C452 N449 1.346 . S
C452 C451 1.369 . S
C452 H455 0.928 . S
C453 N449 1.345 . S
C453 C454 1.371 . S
C453 H456 0.931 . S
C454 C450 1.391 . S
C454 C453 1.371 . S
C454 H461 0.930 . S
H455 C452 0.928 . S
H456 C453 0.931 . S
H457 C433 0.930 . S
H458 C430 0.930 . S
H459 C439 0.930 . S
H460 C451 0.929 . S
H461 C454 0.930 . S
C462 C463 1.351 . S
C462 N465 1.368 . S
C462 H467 0.931 . S
C463 C462 1.351 . S
C463 N464 1.373 . S
C463 H491 0.930 . S
N464 C463 1.373 . S
N464 C466 1.340 . S
N465 C462 1.368 . S
N465 C466 1.321 . S
N465 Co468 2.135 . S
C466 N464 1.340 . S
C466 N465 1.321 . S
C466 H490 0.930 . S
H467 C462 0.931 . S
Co468 N465 2.135 . S
Co468 N471 2.121 . S
Co468 O476 2.055 . S
Co468 O479 2.039 . S
Co468 N482 2.140 . S
C469 O470 1.227 . S
C469 O479 1.265 . S
O470 C469 1.227 . S
N471 Co468 2.121 . S
N471 C473 1.375 . S
N471 C474 1.313 . S
C472 C473 1.338 . S
C472 N475 1.377 . S
C472 H492 0.930 . S
C473 N471 1.375 . S
C473 C472 1.338 . S
C473 H477 0.931 . S
C474 N471 1.313 . S
C474 N475 1.344 . S
C474 H478 0.930 . S
N475 C472 1.377 . S
N475 C474 1.344 . S
O476 Co468 2.055 . S
O476 C480 1.253 . S
H477 C473 0.931 . S
H478 C474 0.930 . S
O479 Co468 2.039 . S
O479 C469 1.265 . S
C480 O476 1.253 . S
C480 O481 1.227 . S
O481 C480 1.227 . S
N482 Co468 2.140 . S
N482 C485 1.346 . S
N482 C486 1.345 . S
C483 C484 1.387 . S
C483 C487 1.391 . S
C484 C483 1.387 . S
C484 C485 1.369 . S
C484 H493 0.929 . S
C485 N482 1.346 . S
C485 C484 1.369 . S
C485 H488 0.928 . S
C486 N482 1.345 . S
C486 C487 1.371 . S
C486 H489 0.931 . S
C487 C483 1.391 . S
C487 C486 1.371 . S
C487 H494 0.930 . S
H488 C485 0.928 . S
H489 C486 0.931 . S
H490 C466 0.930 . S
H491 C463 0.930 . S
H492 C472 0.930 . S
H493 C484 0.929 . S
H494 C487 0.930 . S
C495 C496 1.351 . S
C495 N498 1.368 . S
C495 H500 0.931 . S
C496 C495 1.351 . S
C496 N497 1.373 . S
C496 H524 0.930 . S
N497 C496 1.373 . S
N497 C499 1.340 . S
N498 C495 1.368 . S
N498 C499 1.321 . S
N498 Co501 2.135 . S
C499 N497 1.340 . S
C499 N498 1.321 . S
C499 H523 0.930 . S
H500 C495 0.931 . S
Co501 N498 2.135 . S
Co501 N504 2.121 . S
Co501 O509 2.055 . S
Co501 O512 2.039 . S
Co501 N515 2.140 . S
C502 O503 1.227 . S
C502 O512 1.265 . S
O503 C502 1.227 . S
N504 Co501 2.121 . S
N504 C506 1.375 . S
N504 C507 1.313 . S
C505 C506 1.338 . S
C505 N508 1.377 . S
C505 H525 0.930 . S
C506 N504 1.375 . S
C506 C505 1.338 . S
C506 H510 0.931 . S
C507 N504 1.313 . S
C507 N508 1.344 . S
C507 H511 0.930 . S
N508 C505 1.377 . S
N508 C507 1.344 . S
O509 Co501 2.055 . S
O509 C513 1.253 . S
H510 C506 0.931 . S
H511 C507 0.930 . S
O512 Co501 2.039 . S
O512 C502 1.265 . S
C513 O509 1.253 . S
C513 O514 1.227 . S
O514 C513 1.227 . S
N515 Co501 2.140 . S
N515 C518 1.346 . S
N515 C519 1.345 . S
C516 C517 1.387 . S
C516 C520 1.391 . S
C517 C516 1.387 . S
C517 C518 1.369 . S
C517 H526 0.929 . S
C518 N515 1.346 . S
C518 C517 1.369 . S
C518 H521 0.928 . S
C519 N515 1.345 . S
C519 C520 1.371 . S
C519 H522 0.931 . S
C520 C516 1.391 . S
C520 C519 1.371 . S
C520 H527 0.930 . S
H521 C518 0.928 . S
H522 C519 0.931 . S
H523 C499 0.930 . S
H524 C496 0.930 . S
H525 C505 0.930 . S
H526 C517 0.929 . S
H527 C520 0.930 . S
C528 C529 1.351 . S
C528 N531 1.368 . S
C528 H533 0.931 . S
C529 C528 1.351 . S
C529 N530 1.373 . S
C529 H557 0.930 . S
N530 C529 1.373 . S
N530 C532 1.340 . S
N531 C528 1.368 . S
N531 C532 1.321 . S
N531 Co534 2.135 . S
C532 N530 1.340 . S
C532 N531 1.321 . S
C532 H556 0.930 . S
H533 C528 0.931 . S
Co534 N531 2.135 . S
Co534 N537 2.121 . S
Co534 O542 2.055 . S
Co534 O545 2.039 . S
Co534 N548 2.140 . S
C535 O536 1.227 . S
C535 O545 1.265 . S
O536 C535 1.227 . S
N537 Co534 2.121 . S
N537 C539 1.375 . S
N537 C540 1.313 . S
C538 C539 1.338 . S
C538 N541 1.377 . S
C538 H558 0.930 . S
C539 N537 1.375 . S
C539 C538 1.338 . S
C539 H543 0.931 . S
C540 N537 1.313 . S
C540 N541 1.344 . S
C540 H544 0.930 . S
N541 C538 1.377 . S
N541 C540 1.344 . S
O542 Co534 2.055 . S
O542 C546 1.253 . S
H543 C539 0.931 . S
H544 C540 0.930 . S
O545 Co534 2.039 . S
O545 C535 1.265 . S
C546 O542 1.253 . S
C546 O547 1.227 . S
O547 C546 1.227 . S
N548 Co534 2.140 . S
N548 C551 1.346 . S
N548 C552 1.345 . S
C549 C550 1.387 . S
C549 C553 1.391 . S
C550 C549 1.387 . S
C550 C551 1.369 . S
C550 H559 0.929 . S
C551 N548 1.346 . S
C551 C550 1.369 . S
C551 H554 0.928 . S
C552 N548 1.345 . S
C552 C553 1.371 . S
C552 H555 0.931 . S
C553 C549 1.391 . S
C553 C552 1.371 . S
C553 H560 0.930 . S
H554 C551 0.928 . S
H555 C552 0.931 . S
H556 C532 0.930 . S
H557 C529 0.930 . S
H558 C538 0.930 . S
H559 C550 0.929 . S
H560 C553 0.930 . S
C561 C562 1.351 . S
C561 N564 1.368 . S
C561 H566 0.931 . S
C562 C561 1.351 . S
C562 N563 1.373 . S
C562 H590 0.930 . S
N563 C562 1.373 . S
N563 C565 1.340 . S
N564 C561 1.368 . S
N564 C565 1.321 . S
N564 Co567 2.135 . S
C565 N563 1.340 . S
C565 N564 1.321 . S
C565 H589 0.930 . S
H566 C561 0.931 . S
Co567 N564 2.135 . S
Co567 N570 2.121 . S
Co567 O575 2.055 . S
Co567 O578 2.039 . S
Co567 N581 2.140 . S
C568 O569 1.227 . S
C568 O578 1.265 . S
O569 C568 1.227 . S
N570 Co567 2.121 . S
N570 C572 1.375 . S
N570 C573 1.313 . S
C571 C572 1.338 . S
C571 N574 1.377 . S
C571 H591 0.930 . S
C572 N570 1.375 . S
C572 C571 1.338 . S
C572 H576 0.931 . S
C573 N570 1.313 . S
C573 N574 1.344 . S
C573 H577 0.930 . S
N574 C571 1.377 . S
N574 C573 1.344 . S
O575 Co567 2.055 . S
O575 C579 1.253 . S
H576 C572 0.931 . S
H577 C573 0.930 . S
O578 Co567 2.039 . S
O578 C568 1.265 . S
C579 O575 1.253 . S
C579 O580 1.227 . S
O580 C579 1.227 . S
N581 Co567 2.140 . S
N581 C584 1.346 . S
N581 C585 1.345 . S
C582 C583 1.387 . S
C582 C586 1.391 . S
C583 C582 1.387 . S
C583 C584 1.369 . S
C583 H592 0.929 . S
C584 N581 1.346 . S
C584 C583 1.369 . S
C584 H587 0.928 . S
C585 N581 1.345 . S
C585 C586 1.371 . S
C585 H588 0.931 . S
C586 C582 1.391 . S
C586 C585 1.371 . S
C586 H593 0.930 . S
H587 C584 0.928 . S
H588 C585 0.931 . S
H589 C565 0.930 . S
H590 C562 0.930 . S
H591 C571 0.930 . S
H592 C583 0.929 . S
H593 C586 0.930 . S
C594 C595 1.351 . S
C594 N597 1.368 . S
C594 H599 0.931 . S
C595 C594 1.351 . S
C595 N596 1.373 . S
C595 H623 0.930 . S
N596 C595 1.373 . S
N596 C598 1.340 . S
N597 C594 1.368 . S
N597 C598 1.321 . S
N597 Co600 2.135 . S
C598 N596 1.340 . S
C598 N597 1.321 . S
C598 H622 0.930 . S
H599 C594 0.931 . S
Co600 N597 2.135 . S
Co600 N603 2.121 . S
Co600 O608 2.055 . S
Co600 O611 2.039 . S
Co600 N614 2.140 . S
C601 O602 1.227 . S
C601 O611 1.265 . S
O602 C601 1.227 . S
N603 Co600 2.121 . S
N603 C605 1.375 . S
N603 C606 1.313 . S
C604 C605 1.338 . S
C604 N607 1.377 . S
C604 H624 0.930 . S
C605 N603 1.375 . S
C605 C604 1.338 . S
C605 H609 0.931 . S
C606 N603 1.313 . S
C606 N607 1.344 . S
C606 H610 0.930 . S
N607 C604 1.377 . S
N607 C606 1.344 . S
O608 Co600 2.055 . S
O608 C612 1.253 . S
H609 C605 0.931 . S
H610 C606 0.930 . S
O611 Co600 2.039 . S
O611 C601 1.265 . S
C612 O608 1.253 . S
C612 O613 1.227 . S
O613 C612 1.227 . S
N614 Co600 2.140 . S
N614 C617 1.346 . S
N614 C618 1.345 . S
C615 C616 1.387 . S
C615 C619 1.391 . S
C616 C615 1.387 . S
C616 C617 1.369 . S
C616 H625 0.929 1_655 S
C617 N614 1.346 . S
C617 C616 1.369 . S
C617 H620 0.928 . S
C618 N614 1.345 . S
C618 C619 1.371 . S
C618 H621 0.931 . S
C619 C615 1.391 . S
C619 C618 1.371 . S
C619 H626 0.930 . S
H620 C617 0.928 . S
H621 C618 0.931 . S
H622 C598 0.930 . S
H623 C595 0.930 . S
H624 C604 0.930 . S
H625 C616 0.929 1_455 S
H626 C619 0.930 . S
C627 C628 1.351 . S
C627 N630 1.368 . S
C627 H632 0.931 . S
C628 C627 1.351 . S
C628 N629 1.373 . S
C628 H656 0.930 . S
N629 C628 1.373 . S
N629 C631 1.340 . S
N630 C627 1.368 . S
N630 C631 1.321 . S
N630 Co633 2.135 . S
C631 N629 1.340 . S
C631 N630 1.321 . S
C631 H655 0.930 . S
H632 C627 0.931 . S
Co633 N630 2.135 . S
Co633 N636 2.121 . S
Co633 O641 2.055 . S
Co633 O644 2.039 . S
Co633 N647 2.140 . S
C634 O635 1.227 . S
C634 O644 1.265 . S
O635 C634 1.227 . S
N636 Co633 2.121 . S
N636 C638 1.375 . S
N636 C639 1.313 . S
C637 C638 1.338 . S
C637 N640 1.377 . S
C637 H657 0.930 . S
C638 N636 1.375 . S
C638 C637 1.338 . S
C638 H642 0.931 . S
C639 N636 1.313 . S
C639 N640 1.344 . S
C639 H643 0.930 . S
N640 C637 1.377 . S
N640 C639 1.344 . S
O641 Co633 2.055 . S
O641 C645 1.253 . S
H642 C638 0.931 . S
H643 C639 0.930 . S
O644 Co633 2.039 . S
O644 C634 1.265 . S
C645 O641 1.253 . S
C645 O646 1.227 . S
O646 C645 1.227 . S
N647 Co633 2.140 . S
N647 C650 1.346 . S
N647 C651 1.345 . S
C648 C649 1.387 . S
C648 C652 1.391 . S
C649 C648 1.387 . S
C649 C650 1.369 . S
C649 H658 0.929 . S
C650 N647 1.346 . S
C650 C649 1.369 . S
C650 H653 0.928 . S
C651 N647 1.345 . S
C651 C652 1.371 . S
C651 H654 0.931 . S
C652 C648 1.391 . S
C652 C651 1.371 . S
C652 H659 0.930 . S
H653 C650 0.928 . S
H654 C651 0.931 . S
H655 C631 0.930 . S
H656 C628 0.930 . S
H657 C637 0.930 . S
H658 C649 0.929 . S
H659 C652 0.930 . S
C660 C661 1.351 . S
C660 N663 1.368 . S
C660 H665 0.931 . S
C661 C660 1.351 . S
C661 N662 1.373 . S
C661 H689 0.930 . S
N662 C661 1.373 . S
N662 C664 1.340 . S
N663 C660 1.368 . S
N663 C664 1.321 . S
N663 Co666 2.135 . S
C664 N662 1.340 . S
C664 N663 1.321 . S
C664 H688 0.930 . S
H665 C660 0.931 . S
Co666 N663 2.135 . S
Co666 N669 2.121 . S
Co666 O674 2.055 . S
Co666 O677 2.039 . S
Co666 N680 2.140 . S
C667 O668 1.227 . S
C667 O677 1.265 . S
O668 C667 1.227 . S
N669 Co666 2.121 . S
N669 C671 1.375 . S
N669 C672 1.313 . S
C670 C671 1.338 . S
C670 N673 1.377 . S
C670 H690 0.930 . S
C671 N669 1.375 . S
C671 C670 1.338 . S
C671 H675 0.931 . S
C672 N669 1.313 . S
C672 N673 1.344 . S
C672 H676 0.930 . S
N673 C670 1.377 . S
N673 C672 1.344 . S
O674 Co666 2.055 . S
O674 C678 1.253 . S
H675 C671 0.931 . S
H676 C672 0.930 . S
O677 Co666 2.039 . S
O677 C667 1.265 . S
C678 O674 1.253 . S
C678 O679 1.227 . S
O679 C678 1.227 . S
N680 Co666 2.140 . S
N680 C683 1.346 . S
N680 C684 1.345 . S
C681 C682 1.387 . S
C681 C685 1.391 . S
C682 C681 1.387 . S
C682 C683 1.369 . S
C682 H691 0.929 . S
C683 N680 1.346 . S
C683 C682 1.369 . S
C683 H686 0.928 . S
C684 N680 1.345 . S
C684 C685 1.371 . S
C684 H687 0.931 . S
C685 C681 1.391 . S
C685 C684 1.371 . S
C685 H692 0.930 . S
H686 C683 0.928 . S
H687 C684 0.931 . S
H688 C664 0.930 . S
H689 C661 0.930 . S
H690 C670 0.930 . S
H691 C682 0.929 . S
H692 C685 0.930 . S
C693 C694 1.351 . S
C693 N696 1.368 . S
C693 H698 0.931 . S
C694 C693 1.351 . S
C694 N695 1.373 . S
C694 H722 0.930 . S
N695 C694 1.373 . S
N695 C697 1.340 . S
N696 C693 1.368 . S
N696 C697 1.321 . S
N696 Co699 2.135 . S
C697 N695 1.340 . S
C697 N696 1.321 . S
C697 H721 0.930 . S
H698 C693 0.931 . S
Co699 N696 2.135 . S
Co699 N702 2.121 . S
Co699 O707 2.055 . S
Co699 O710 2.039 . S
Co699 N713 2.140 . S
C700 O701 1.227 . S
C700 O710 1.265 . S
O701 C700 1.227 . S
N702 Co699 2.121 . S
N702 C704 1.375 . S
N702 C705 1.313 . S
C703 C704 1.338 . S
C703 N706 1.377 . S
C703 H723 0.930 . S
C704 N702 1.375 . S
C704 C703 1.338 . S
C704 H708 0.931 . S
C705 N702 1.313 . S
C705 N706 1.344 . S
C705 H709 0.930 . S
N706 C703 1.377 . S
N706 C705 1.344 . S
O707 Co699 2.055 . S
O707 C711 1.253 . S
H708 C704 0.931 . S
H709 C705 0.930 . S
O710 Co699 2.039 . S
O710 C700 1.265 . S
C711 O707 1.253 . S
C711 O712 1.227 . S
O712 C711 1.227 . S
N713 Co699 2.140 . S
N713 C716 1.346 . S
N713 C717 1.345 . S
C714 C715 1.387 . S
C714 C718 1.391 . S
C715 C714 1.387 . S
C715 C716 1.369 . S
C715 H724 0.929 . S
C716 N713 1.346 . S
C716 C715 1.369 . S
C716 H719 0.928 . S
C717 N713 1.345 . S
C717 C718 1.371 . S
C717 H720 0.931 . S
C718 C714 1.391 . S
C718 C717 1.371 . S
C718 H725 0.930 . S
H719 C716 0.928 . S
H720 C717 0.931 . S
H721 C697 0.930 . S
H722 C694 0.930 . S
H723 C703 0.930 . S
H724 C715 0.929 . S
H725 C718 0.930 . S
C726 C727 1.351 . S
C726 N729 1.368 . S
C726 H731 0.931 . S
C727 C726 1.351 . S
C727 N728 1.373 . S
C727 H755 0.930 . S
N728 C727 1.373 . S
N728 C730 1.340 . S
N729 C726 1.368 . S
N729 C730 1.321 . S
N729 Co732 2.135 . S
C730 N728 1.340 . S
C730 N729 1.321 . S
C730 H754 0.930 . S
H731 C726 0.931 . S
Co732 N729 2.135 . S
Co732 N735 2.121 . S
Co732 O740 2.055 . S
Co732 O743 2.039 . S
Co732 N746 2.140 . S
C733 O734 1.227 . S
C733 O743 1.265 . S
O734 C733 1.227 . S
N735 Co732 2.121 . S
N735 C737 1.375 . S
N735 C738 1.313 . S
C736 C737 1.338 . S
C736 N739 1.377 . S
C736 H756 0.930 . S
C737 N735 1.375 . S
C737 C736 1.338 . S
C737 H741 0.931 . S
C738 N735 1.313 . S
C738 N739 1.344 . S
C738 H742 0.930 . S
N739 C736 1.377 . S
N739 C738 1.344 . S
O740 Co732 2.055 . S
O740 C744 1.253 . S
H741 C737 0.931 . S
H742 C738 0.930 . S
O743 Co732 2.039 . S
O743 C733 1.265 . S
C744 O740 1.253 . S
C744 O745 1.227 . S
O745 C744 1.227 . S
N746 Co732 2.140 . S
N746 C749 1.346 . S
N746 C750 1.345 . S
C747 C748 1.387 . S
C747 C751 1.391 . S
C748 C747 1.387 . S
C748 C749 1.369 . S
C748 H757 0.929 1_655 S
C749 N746 1.346 . S
C749 C748 1.369 . S
C749 H752 0.928 . S
C750 N746 1.345 . S
C750 C751 1.371 . S
C750 H753 0.931 . S
C751 C747 1.391 . S
C751 C750 1.371 . S
C751 H758 0.930 . S
H752 C749 0.928 . S
H753 C750 0.931 . S
H754 C730 0.930 . S
H755 C727 0.930 . S
H756 C736 0.930 . S
H757 C748 0.929 1_455 S
H758 C751 0.930 . S
C759 C760 1.351 . S
C759 N762 1.368 . S
C759 H764 0.931 . S
C760 C759 1.351 . S
C760 N761 1.373 . S
C760 H788 0.930 . S
N761 C760 1.373 . S
N761 C763 1.340 . S
N762 C759 1.368 . S
N762 C763 1.321 . S
N762 Co765 2.135 . S
C763 N761 1.340 . S
C763 N762 1.321 . S
C763 H787 0.930 . S
H764 C759 0.931 . S
Co765 N762 2.135 . S
Co765 N768 2.121 . S
Co765 O773 2.055 . S
Co765 O776 2.039 . S
Co765 N779 2.140 . S
C766 O767 1.227 . S
C766 O776 1.265 . S
O767 C766 1.227 . S
N768 Co765 2.121 . S
N768 C770 1.375 . S
N768 C771 1.313 . S
C769 C770 1.338 . S
C769 N772 1.377 . S
C769 H789 0.930 . S
C770 N768 1.375 . S
C770 C769 1.338 . S
C770 H774 0.931 . S
C771 N768 1.313 . S
C771 N772 1.344 . S
C771 H775 0.930 . S
N772 C769 1.377 . S
N772 C771 1.344 . S
O773 Co765 2.055 . S
O773 C777 1.253 . S
H774 C770 0.931 . S
H775 C771 0.930 . S
O776 Co765 2.039 . S
O776 C766 1.265 . S
C777 O773 1.253 . S
C777 O778 1.227 . S
O778 C777 1.227 . S
N779 Co765 2.140 . S
N779 C782 1.346 . S
N779 C783 1.345 . S
C780 C781 1.387 . S
C780 C784 1.391 . S
C781 C780 1.387 . S
C781 C782 1.369 . S
C781 H790 0.929 . S
C782 N779 1.346 . S
C782 C781 1.369 . S
C782 H785 0.928 . S
C783 N779 1.345 . S
C783 C784 1.371 . S
C783 H786 0.931 . S
C784 C780 1.391 . S
C784 C783 1.371 . S
C784 H791 0.930 . S
H785 C782 0.928 . S
H786 C783 0.931 . S
H787 C763 0.930 . S
H788 C760 0.930 . S
H789 C769 0.930 . S
H790 C781 0.929 . S
H791 C784 0.930 . S
C792 C793 1.351 . S
C792 N795 1.368 . S
C792 H797 0.931 . S
C793 C792 1.351 . S
C793 N794 1.373 . S
C793 H821 0.930 . S
N794 C793 1.373 . S
N794 C796 1.340 . S
N795 C792 1.368 . S
N795 C796 1.321 . S
N795 Co798 2.135 . S
C796 N794 1.340 . S
C796 N795 1.321 . S
C796 H820 0.930 . S
H797 C792 0.931 . S
Co798 N795 2.135 . S
Co798 N801 2.121 . S
Co798 O806 2.055 . S
Co798 O809 2.039 . S
Co798 N812 2.140 . S
C799 O800 1.227 . S
C799 O809 1.265 . S
O800 C799 1.227 . S
N801 Co798 2.121 . S
N801 C803 1.375 . S
N801 C804 1.313 . S
C802 C803 1.338 . S
C802 N805 1.377 . S
C802 H822 0.930 . S
C803 N801 1.375 . S
C803 C802 1.338 . S
C803 H807 0.931 . S
C804 N801 1.313 . S
C804 N805 1.344 . S
C804 H808 0.930 . S
N805 C802 1.377 . S
N805 C804 1.344 . S
O806 Co798 2.055 . S
O806 C810 1.253 . S
H807 C803 0.931 . S
H808 C804 0.930 . S
O809 Co798 2.039 . S
O809 C799 1.265 . S
C810 O806 1.253 . S
C810 O811 1.227 . S
O811 C810 1.227 . S
N812 Co798 2.140 . S
N812 C815 1.346 . S
N812 C816 1.345 . S
C813 C814 1.387 . S
C813 C817 1.391 . S
C814 C813 1.387 . S
C814 C815 1.369 . S
C814 H823 0.929 . S
C815 N812 1.346 . S
C815 C814 1.369 . S
C815 H818 0.928 . S
C816 N812 1.345 . S
C816 C817 1.371 . S
C816 H819 0.931 . S
C817 C813 1.391 . S
C817 C816 1.371 . S
C817 H824 0.930 . S
H818 C815 0.928 . S
H819 C816 0.931 . S
H820 C796 0.930 . S
H821 C793 0.930 . S
H822 C802 0.930 . S
H823 C814 0.929 . S
H824 C817 0.930 . S
C825 C826 1.351 . S
C825 N828 1.368 . S
C825 H830 0.931 . S
C826 C825 1.351 . S
C826 N827 1.373 . S
C826 H854 0.930 . S
N827 C826 1.373 . S
N827 C829 1.340 . S
N828 C825 1.368 . S
N828 C829 1.321 . S
N828 Co831 2.135 . S
C829 N827 1.340 . S
C829 N828 1.321 . S
C829 H853 0.930 . S
H830 C825 0.931 . S
Co831 N828 2.135 . S
Co831 N834 2.121 . S
Co831 O839 2.055 . S
Co831 O842 2.039 . S
Co831 N845 2.140 . S
C832 O833 1.227 . S
C832 O842 1.265 . S
O833 C832 1.227 . S
N834 Co831 2.121 . S
N834 C836 1.375 . S
N834 C837 1.313 . S
C835 C836 1.338 . S
C835 N838 1.377 . S
C835 H855 0.930 . S
C836 N834 1.375 . S
C836 C835 1.338 . S
C836 H840 0.931 . S
C837 N834 1.313 . S
C837 N838 1.344 . S
C837 H841 0.930 . S
N838 C835 1.377 . S
N838 C837 1.344 . S
O839 Co831 2.055 . S
O839 C843 1.253 . S
H840 C836 0.931 . S
H841 C837 0.930 . S
O842 Co831 2.039 . S
O842 C832 1.265 . S
C843 O839 1.253 . S
C843 O844 1.227 . S
O844 C843 1.227 . S
N845 Co831 2.140 . S
N845 C848 1.346 . S
N845 C849 1.345 . S
C846 C847 1.387 . S
C846 C850 1.391 . S
C847 C846 1.387 . S
C847 C848 1.369 . S
C847 H856 0.929 . S
C848 N845 1.346 . S
C848 C847 1.369 . S
C848 H851 0.928 . S
C849 N845 1.345 . S
C849 C850 1.371 . S
C849 H852 0.931 . S
C850 C846 1.391 . S
C850 C849 1.371 . S
C850 H857 0.930 . S
H851 C848 0.928 . S
H852 C849 0.931 . S
H853 C829 0.930 . S
H854 C826 0.930 . S
H855 C835 0.930 . S
H856 C847 0.929 . S
H857 C850 0.930 . S
C858 C859 1.351 . S
C858 N861 1.368 . S
C858 H863 0.931 . S
C859 C858 1.351 . S
C859 N860 1.373 . S
C859 H887 0.930 . S
N860 C859 1.373 . S
N860 C862 1.340 . S
N861 C858 1.368 . S
N861 C862 1.321 . S
N861 Co864 2.135 . S
C862 N860 1.340 . S
C862 N861 1.321 . S
C862 H886 0.930 . S
H863 C858 0.931 . S
Co864 N861 2.135 . S
Co864 N867 2.121 . S
Co864 O872 2.055 . S
Co864 O875 2.039 . S
Co864 N878 2.140 . S
C865 O866 1.227 . S
C865 O875 1.265 . S
O866 C865 1.227 . S
N867 Co864 2.121 . S
N867 C869 1.375 . S
N867 C870 1.313 . S
C868 C869 1.338 . S
C868 N871 1.377 . S
C868 H888 0.930 . S
C869 N867 1.375 . S
C869 C868 1.338 . S
C869 H873 0.931 . S
C870 N867 1.313 . S
C870 N871 1.344 . S
C870 H874 0.930 . S
N871 C868 1.377 . S
N871 C870 1.344 . S
O872 Co864 2.055 . S
O872 C876 1.253 . S
H873 C869 0.931 . S
H874 C870 0.930 . S
O875 Co864 2.039 . S
O875 C865 1.265 . S
C876 O872 1.253 . S
C876 O877 1.227 . S
O877 C876 1.227 . S
N878 Co864 2.140 . S
N878 C881 1.346 . S
N878 C882 1.345 . S
C879 C880 1.387 . S
C879 C883 1.391 . S
C880 C879 1.387 . S
C880 C881 1.369 . S
C880 H889 0.929 1_455 S
C881 N878 1.346 . S
C881 C880 1.369 . S
C881 H884 0.928 . S
C882 N878 1.345 . S
C882 C883 1.371 . S
C882 H885 0.931 . S
C883 C879 1.391 . S
C883 C882 1.371 . S
C883 H890 0.930 . S
H884 C881 0.928 . S
H885 C882 0.931 . S
H886 C862 0.930 . S
H887 C859 0.930 . S
H888 C868 0.930 . S
H889 C880 0.929 1_655 S
H890 C883 0.930 . S
C891 C892 1.351 . S
C891 N894 1.368 . S
C891 H896 0.931 . S
C892 C891 1.351 . S
C892 N893 1.373 . S
C892 H920 0.930 . S
N893 C892 1.373 . S
N893 C895 1.340 . S
N894 C891 1.368 . S
N894 C895 1.321 . S
N894 Co897 2.135 . S
C895 N893 1.340 . S
C895 N894 1.321 . S
C895 H919 0.930 . S
H896 C891 0.931 . S
Co897 N894 2.135 . S
Co897 N900 2.121 . S
Co897 O905 2.055 . S
Co897 O908 2.039 . S
Co897 N911 2.140 . S
C898 O899 1.227 . S
C898 O908 1.265 . S
O899 C898 1.227 . S
N900 Co897 2.121 . S
N900 C902 1.375 . S
N900 C903 1.313 . S
C901 C902 1.338 . S
C901 N904 1.377 . S
C901 H921 0.930 . S
C902 N900 1.375 . S
C902 C901 1.338 . S
C902 H906 0.931 . S
C903 N900 1.313 . S
C903 N904 1.344 . S
C903 H907 0.930 . S
N904 C901 1.377 . S
N904 C903 1.344 . S
O905 Co897 2.055 . S
O905 C909 1.253 . S
H906 C902 0.931 . S
H907 C903 0.930 . S
O908 Co897 2.039 . S
O908 C898 1.265 . S
C909 O905 1.253 . S
C909 O910 1.227 . S
O910 C909 1.227 . S
N911 Co897 2.140 . S
N911 C914 1.346 . S
N911 C915 1.345 . S
C912 C913 1.387 . S
C912 C916 1.391 . S
C913 C912 1.387 . S
C913 C914 1.369 . S
C913 H922 0.929 . S
C914 N911 1.346 . S
C914 C913 1.369 . S
C914 H917 0.928 . S
C915 N911 1.345 . S
C915 C916 1.371 . S
C915 H918 0.931 . S
C916 C912 1.391 . S
C916 C915 1.371 . S
C916 H923 0.930 . S
H917 C914 0.928 . S
H918 C915 0.931 . S
H919 C895 0.930 . S
H920 C892 0.930 . S
H921 C901 0.930 . S
H922 C913 0.929 . S
H923 C916 0.930 . S
C924 C925 1.351 . S
C924 N927 1.368 . S
C924 H929 0.931 . S
C925 C924 1.351 . S
C925 N926 1.373 . S
C925 H953 0.930 . S
N926 C925 1.373 . S
N926 C928 1.340 . S
N927 C924 1.368 . S
N927 C928 1.321 . S
N927 Co930 2.135 . S
C928 N926 1.340 . S
C928 N927 1.321 . S
C928 H952 0.930 . S
H929 C924 0.931 . S
Co930 N927 2.135 . S
Co930 N933 2.121 . S
Co930 O938 2.055 . S
Co930 O941 2.039 . S
Co930 N944 2.140 . S
C931 O932 1.227 . S
C931 O941 1.265 . S
O932 C931 1.227 . S
N933 Co930 2.121 . S
N933 C935 1.375 . S
N933 C936 1.313 . S
C934 C935 1.338 . S
C934 N937 1.377 . S
C934 H954 0.930 . S
C935 N933 1.375 . S
C935 C934 1.338 . S
C935 H939 0.931 . S
C936 N933 1.313 . S
C936 N937 1.344 . S
C936 H940 0.930 . S
N937 C934 1.377 . S
N937 C936 1.344 . S
O938 Co930 2.055 . S
O938 C942 1.253 . S
H939 C935 0.931 . S
H940 C936 0.930 . S
O941 Co930 2.039 . S
O941 C931 1.265 . S
C942 O938 1.253 . S
C942 O943 1.227 . S
O943 C942 1.227 . S
N944 Co930 2.140 . S
N944 C947 1.346 . S
N944 C948 1.345 . S
C945 C946 1.387 . S
C945 C949 1.391 . S
C946 C945 1.387 . S
C946 C947 1.369 . S
C946 H955 0.929 . S
C947 N944 1.346 . S
C947 C946 1.369 . S
C947 H950 0.928 . S
C948 N944 1.345 . S
C948 C949 1.371 . S
C948 H951 0.931 . S
C949 C945 1.391 . S
C949 C948 1.371 . S
C949 H956 0.930 . S
H950 C947 0.928 . S
H951 C948 0.931 . S
H952 C928 0.930 . S
H953 C925 0.930 . S
H954 C934 0.930 . S
H955 C946 0.929 . S
H956 C949 0.930 . S
C957 C958 1.351 . S
C957 N960 1.368 . S
C957 H962 0.931 . S
C958 C957 1.351 . S
C958 N959 1.373 . S
C958 H986 0.930 . S
N959 C958 1.373 . S
N959 C961 1.340 . S
N960 C957 1.368 . S
N960 C961 1.321 . S
N960 Co963 2.135 . S
C961 N959 1.340 . S
C961 N960 1.321 . S
C961 H985 0.930 . S
H962 C957 0.931 . S
Co963 N960 2.135 . S
Co963 N966 2.121 . S
Co963 O971 2.055 . S
Co963 O974 2.039 . S
Co963 N977 2.140 . S
C964 O965 1.227 . S
C964 O974 1.265 . S
O965 C964 1.227 . S
N966 Co963 2.121 . S
N966 C968 1.375 . S
N966 C969 1.313 . S
C967 C968 1.338 . S
C967 N970 1.377 . S
C967 H987 0.930 . S
C968 N966 1.375 . S
C968 C967 1.338 . S
C968 H972 0.931 . S
C969 N966 1.313 . S
C969 N970 1.344 . S
C969 H973 0.930 . S
N970 C967 1.377 . S
N970 C969 1.344 . S
O971 Co963 2.055 . S
O971 C975 1.253 . S
H972 C968 0.931 . S
H973 C969 0.930 . S
O974 Co963 2.039 . S
O974 C964 1.265 . S
C975 O971 1.253 . S
C975 O976 1.227 . S
O976 C975 1.227 . S
N977 Co963 2.140 . S
N977 C980 1.346 . S
N977 C981 1.345 . S
C978 C979 1.387 . S
C978 C982 1.391 . S
C979 C978 1.387 . S
C979 C980 1.369 . S
C979 H988 0.929 . S
C980 N977 1.346 . S
C980 C979 1.369 . S
C980 H983 0.928 . S
C981 N977 1.345 . S
C981 C982 1.371 . S
C981 H984 0.931 . S
C982 C978 1.391 . S
C982 C981 1.371 . S
C982 H989 0.930 . S
H983 C980 0.928 . S
H984 C981 0.931 . S
H985 C961 0.930 . S
H986 C958 0.930 . S
H987 C967 0.930 . S
H988 C979 0.929 . S
H989 C982 0.930 . S
C990 C991 1.351 . S
C990 N993 1.368 . S
C990 H995 0.931 . S
C991 C990 1.351 . S
C991 N992 1.373 . S
C991 H1019 0.930 . S
N992 C991 1.373 . S
N992 C994 1.340 . S
N993 C990 1.368 . S
N993 C994 1.321 . S
N993 Co996 2.135 . S
C994 N992 1.340 . S
C994 N993 1.321 . S
C994 H1018 0.930 . S
H995 C990 0.931 . S
Co996 N993 2.135 . S
Co996 N999 2.121 . S
Co996 O1004 2.055 . S
Co996 O1007 2.039 . S
Co996 N1010 2.140 . S
C997 O998 1.227 . S
C997 O1007 1.265 . S
O998 C997 1.227 . S
N999 Co996 2.121 . S
N999 C1001 1.375 . S
N999 C1002 1.313 . S
C1000 C1001 1.338 . S
C1000 N1003 1.377 . S
C1000 H1020 0.930 . S
C1001 N999 1.375 . S
C1001 C1000 1.338 . S
C1001 H1005 0.931 . S
C1002 N999 1.313 . S
C1002 N1003 1.344 . S
C1002 H1006 0.930 . S
N1003 C1000 1.377 . S
N1003 C1002 1.344 . S
O1004 Co996 2.055 . S
O1004 C1008 1.253 . S
H1005 C1001 0.931 . S
H1006 C1002 0.930 . S
O1007 Co996 2.039 . S
O1007 C997 1.265 . S
C1008 O1004 1.253 . S
C1008 O1009 1.227 . S
O1009 C1008 1.227 . S
N1010 Co996 2.140 . S
N1010 C1013 1.346 . S
N1010 C1014 1.345 . S
C1011 C1012 1.387 . S
C1011 C1015 1.391 . S
C1012 C1011 1.387 . S
C1012 C1013 1.369 . S
C1012 H1021 0.929 1_455 S
C1013 N1010 1.346 . S
C1013 C1012 1.369 . S
C1013 H1016 0.928 . S
C1014 N1010 1.345 . S
C1014 C1015 1.371 . S
C1014 H1017 0.931 . S
C1015 C1011 1.391 . S
C1015 C1014 1.371 . S
C1015 H1022 0.930 . S
H1016 C1013 0.928 . S
H1017 C1014 0.931 . S
H1018 C994 0.930 . S
H1019 C991 0.930 . S
H1020 C1000 0.930 . S
H1021 C1012 0.929 1_655 S
H1022 C1015 0.930 . S
C1023 C1024 1.351 . S
C1023 N1026 1.368 . S
C1023 H1028 0.931 . S
C1024 C1023 1.351 . S
C1024 N1025 1.373 . S
C1024 H1052 0.930 . S
N1025 C1024 1.373 . S
N1025 C1027 1.340 . S
N1026 C1023 1.368 . S
N1026 C1027 1.321 . S
N1026 Co1029 2.135 . S
C1027 N1025 1.340 . S
C1027 N1026 1.321 . S
C1027 H1051 0.930 . S
H1028 C1023 0.931 . S
Co1029 N1026 2.135 . S
Co1029 N1032 2.121 . S
Co1029 O1037 2.055 . S
Co1029 O1040 2.039 . S
Co1029 N1043 2.140 . S
C1030 O1031 1.227 . S
C1030 O1040 1.265 . S
O1031 C1030 1.227 . S
N1032 Co1029 2.121 . S
N1032 C1034 1.375 . S
N1032 C1035 1.313 . S
C1033 C1034 1.338 . S
C1033 N1036 1.377 . S
C1033 H1053 0.930 . S
C1034 N1032 1.375 . S
C1034 C1033 1.338 . S
C1034 H1038 0.931 . S
C1035 N1032 1.313 . S
C1035 N1036 1.344 . S
C1035 H1039 0.930 . S
N1036 C1033 1.377 . S
N1036 C1035 1.344 . S
O1037 Co1029 2.055 . S
O1037 C1041 1.253 . S
H1038 C1034 0.931 . S
H1039 C1035 0.930 . S
O1040 Co1029 2.039 . S
O1040 C1030 1.265 . S
C1041 O1037 1.253 . S
C1041 O1042 1.227 . S
O1042 C1041 1.227 . S
N1043 Co1029 2.140 . S
N1043 C1046 1.346 . S
N1043 C1047 1.345 . S
C1044 C1045 1.387 . S
C1044 C1048 1.391 . S
C1045 C1044 1.387 . S
C1045 C1046 1.369 . S
C1045 H1054 0.929 . S
C1046 N1043 1.346 . S
C1046 C1045 1.369 . S
C1046 H1049 0.928 . S
C1047 N1043 1.345 . S
C1047 C1048 1.371 . S
C1047 H1050 0.931 . S
C1048 C1044 1.391 . S
C1048 C1047 1.371 . S
C1048 H1055 0.930 . S
H1049 C1046 0.928 . S
H1050 C1047 0.931 . S
H1051 C1027 0.930 . S
H1052 C1024 0.930 . S
H1053 C1033 0.930 . S
H1054 C1045 0.929 . S
H1055 C1048 0.930 . S
C1056 C1057 1.387 . S
C1056 H1060 0.950 . S
C1056 C1065 1.390 . S
C1057 C1056 1.387 . S
C1057 C1059 1.387 . S
H1058 C1065 0.950 . S
C1059 C1057 1.387 . S
C1059 C1061 1.390 . S
C1059 H1063 0.950 . S
H1060 C1056 0.950 . S
C1061 C1059 1.390 . S
C1061 C1062 1.387 . S
C1061 H1064 0.950 . S
C1062 C1061 1.387 . S
C1062 C1065 1.387 . S
H1063 C1059 0.950 . S
H1064 C1061 0.950 . S
C1065 C1056 1.390 . S
C1065 H1058 0.950 . S
C1065 C1062 1.387 . S
C1066 C1067 1.387 . S
C1066 H1070 0.950 . S
C1066 C1075 1.390 . S
C1067 C1066 1.387 . S
C1067 C1069 1.387 . S
H1068 C1075 0.950 . S
C1069 C1067 1.387 . S
C1069 C1071 1.390 . S
C1069 H1073 0.950 . S
H1070 C1066 0.950 . S
C1071 C1069 1.390 . S
C1071 C1072 1.387 . S
C1071 H1074 0.950 . S
C1072 C1071 1.387 . S
C1072 C1075 1.387 . S
H1073 C1069 0.950 . S
H1074 C1071 0.950 . S
C1075 C1066 1.390 . S
C1075 H1068 0.950 . S
C1075 C1072 1.387 . S
C1076 C1077 1.387 . S
C1076 H1080 0.950 . S
C1076 C1085 1.390 . S
C1077 C1076 1.387 . S
C1077 C1079 1.387 . S
H1078 C1085 0.950 . S
C1079 C1077 1.387 . S
C1079 C1081 1.390 . S
C1079 H1083 0.950 . S
H1080 C1076 0.950 . S
C1081 C1079 1.390 . S
C1081 C1082 1.387 . S
C1081 H1084 0.950 . S
C1082 C1081 1.387 . S
C1082 C1085 1.387 . S
H1083 C1079 0.950 . S
H1084 C1081 0.950 . S
C1085 C1076 1.390 . S
C1085 H1078 0.950 . S
C1085 C1082 1.387 . S
C1086 C1087 1.387 . S
C1086 H1090 0.950 . S
C1086 C1095 1.390 . S
C1087 C1086 1.387 . S
C1087 C1089 1.387 . S
H1088 C1095 0.950 . S
C1089 C1087 1.387 . S
C1089 C1091 1.390 . S
C1089 H1093 0.950 . S
H1090 C1086 0.950 . S
C1091 C1089 1.390 . S
C1091 C1092 1.387 . S
C1091 H1094 0.950 . S
C1092 C1091 1.387 . S
C1092 C1095 1.387 . S
H1093 C1089 0.950 . S
H1094 C1091 0.950 . S
C1095 C1086 1.390 . S
C1095 H1088 0.950 . S
C1095 C1092 1.387 . S
C1096 C1097 1.387 . S
C1096 H1100 0.950 . S
C1096 C1105 1.390 . S
C1097 C1096 1.387 . S
C1097 C1099 1.387 . S
H1098 C1105 0.950 . S
C1099 C1097 1.387 . S
C1099 C1101 1.390 . S
C1099 H1103 0.950 . S
H1100 C1096 0.950 . S
C1101 C1099 1.390 . S
C1101 C1102 1.387 . S
C1101 H1104 0.950 . S
C1102 C1101 1.387 . S
C1102 C1105 1.387 . S
H1103 C1099 0.950 . S
H1104 C1101 0.950 . S
C1105 C1096 1.390 . S
C1105 H1098 0.950 . S
C1105 C1102 1.387 . S
C1106 C1107 1.387 . S
C1106 H1110 0.950 . S
C1106 C1115 1.390 . S
C1107 C1106 1.387 . S
C1107 C1109 1.387 . S
H1108 C1115 0.950 . S
C1109 C1107 1.387 . S
C1109 C1111 1.390 . S
C1109 H1113 0.950 . S
H1110 C1106 0.950 . S
C1111 C1109 1.390 . S
C1111 C1112 1.387 . S
C1111 H1114 0.950 . S
C1112 C1111 1.387 . S
C1112 C1115 1.387 . S
H1113 C1109 0.950 . S
H1114 C1111 0.950 . S
C1115 C1106 1.390 . S
C1115 H1108 0.950 . S
C1115 C1112 1.387 . S
C1116 C1117 1.387 . S
C1116 H1120 0.950 . S
C1116 C1125 1.390 . S
C1117 C1116 1.387 . S
C1117 C1119 1.387 . S
H1118 C1125 0.950 . S
C1119 C1117 1.387 . S
C1119 C1121 1.390 . S
C1119 H1123 0.950 . S
H1120 C1116 0.950 . S
C1121 C1119 1.390 . S
C1121 C1122 1.387 . S
C1121 H1124 0.950 . S
C1122 C1121 1.387 . S
C1122 C1125 1.387 . S
H1123 C1119 0.950 . S
H1124 C1121 0.950 . S
C1125 C1116 1.390 . S
C1125 H1118 0.950 . S
C1125 C1122 1.387 . S
C1126 C1127 1.387 . S
C1126 H1130 0.950 . S
C1126 C1135 1.390 . S
C1127 C1126 1.387 . S
C1127 C1129 1.387 . S
H1128 C1135 0.950 . S
C1129 C1127 1.387 . S
C1129 C1131 1.390 . S
C1129 H1133 0.950 . S
H1130 C1126 0.950 . S
C1131 C1129 1.390 . S
C1131 C1132 1.387 . S
C1131 H1134 0.950 . S
C1132 C1131 1.387 . S
C1132 C1135 1.387 . S
H1133 C1129 0.950 . S
H1134 C1131 0.950 . S
C1135 C1126 1.390 . S
C1135 H1128 0.950 . S
C1135 C1132 1.387 . S
C1136 C1137 1.387 . S
C1136 H1140 0.950 . S
C1136 C1145 1.390 . S
C1137 C1136 1.387 . S
C1137 C1139 1.387 . S
H1138 C1145 0.950 . S
C1139 C1137 1.387 . S
C1139 C1141 1.390 . S
C1139 H1143 0.950 . S
H1140 C1136 0.950 . S
C1141 C1139 1.390 . S
C1141 C1142 1.387 . S
C1141 H1144 0.950 . S
C1142 C1141 1.387 . S
C1142 C1145 1.387 . S
H1143 C1139 0.950 . S
H1144 C1141 0.950 . S
C1145 C1136 1.390 . S
C1145 H1138 0.950 . S
C1145 C1142 1.387 . S
C1146 C1147 1.387 . S
C1146 H1150 0.950 . S
C1146 C1155 1.390 . S
C1147 C1146 1.387 . S
C1147 C1149 1.387 . S
H1148 C1155 0.950 . S
C1149 C1147 1.387 . S
C1149 C1151 1.390 . S
C1149 H1153 0.950 . S
H1150 C1146 0.950 . S
C1151 C1149 1.390 . S
C1151 C1152 1.387 . S
C1151 H1154 0.950 . S
C1152 C1151 1.387 . S
C1152 C1155 1.387 . S
H1153 C1149 0.950 . S
H1154 C1151 0.950 . S
C1155 C1146 1.390 . S
C1155 H1148 0.950 . S
C1155 C1152 1.387 . S
C1156 C1157 1.387 . S
C1156 H1160 0.950 . S
C1156 C1165 1.390 . S
C1157 C1156 1.387 . S
C1157 C1159 1.387 . S
H1158 C1165 0.950 . S
C1159 C1157 1.387 . S
C1159 C1161 1.390 . S
C1159 H1163 0.950 . S
H1160 C1156 0.950 . S
C1161 C1159 1.390 . S
C1161 C1162 1.387 . S
C1161 H1164 0.950 . S
C1162 C1161 1.387 . S
C1162 C1165 1.387 . S
H1163 C1159 0.950 . S
H1164 C1161 0.950 . S
C1165 C1156 1.390 . S
C1165 H1158 0.950 . S
C1165 C1162 1.387 . S
C1166 C1167 1.387 . S
C1166 H1170 0.950 . S
C1166 C1175 1.390 . S
C1167 C1166 1.387 . S
C1167 C1169 1.387 . S
H1168 C1175 0.950 . S
C1169 C1167 1.387 . S
C1169 C1171 1.390 . S
C1169 H1173 0.950 . S
H1170 C1166 0.950 . S
C1171 C1169 1.390 . S
C1171 C1172 1.387 . S
C1171 H1174 0.950 . S
C1172 C1171 1.387 . S
C1172 C1175 1.387 . S
H1173 C1169 0.950 . S
H1174 C1171 0.950 . S
C1175 C1166 1.390 . S
C1175 H1168 0.950 . S
C1175 C1172 1.387 . S
C1176 C1177 1.387 . S
C1176 H1180 0.950 . S
C1176 C1185 1.390 . S
C1177 C1176 1.387 . S
C1177 C1179 1.387 . S
H1178 C1185 0.950 . S
C1179 C1177 1.387 . S
C1179 C1181 1.390 . S
C1179 H1183 0.950 . S
H1180 C1176 0.950 . S
C1181 C1179 1.390 . S
C1181 C1182 1.387 . S
C1181 H1184 0.950 . S
C1182 C1181 1.387 . S
C1182 C1185 1.387 . S
H1183 C1179 0.950 . S
H1184 C1181 0.950 . S
C1185 C1176 1.390 . S
C1185 H1178 0.950 . S
C1185 C1182 1.387 . S
C1186 C1187 1.387 . S
C1186 H1190 0.950 . S
C1186 C1195 1.390 . S
C1187 C1186 1.387 . S
C1187 C1189 1.387 . S
H1188 C1195 0.950 . S
C1189 C1187 1.387 . S
C1189 C1191 1.390 . S
C1189 H1193 0.950 . S
H1190 C1186 0.950 . S
C1191 C1189 1.390 . S
C1191 C1192 1.387 . S
C1191 H1194 0.950 . S
C1192 C1191 1.387 . S
C1192 C1195 1.387 . S
H1193 C1189 0.950 . S
H1194 C1191 0.950 . S
C1195 C1186 1.390 . S
C1195 H1188 0.950 . S
C1195 C1192 1.387 . S
C1196 C1197 1.387 . S
C1196 H1200 0.950 . S
C1196 C1205 1.390 . S
C1197 C1196 1.387 . S
C1197 C1199 1.387 . S
H1198 C1205 0.950 . S
C1199 C1197 1.387 . S
C1199 C1201 1.390 . S
C1199 H1203 0.950 . S
H1200 C1196 0.950 . S
C1201 C1199 1.390 . S
C1201 C1202 1.387 . S
C1201 H1204 0.950 . S
C1202 C1201 1.387 . S
C1202 C1205 1.387 . S
H1203 C1199 0.950 . S
H1204 C1201 0.950 . S
C1205 C1196 1.390 . S
C1205 H1198 0.950 . S
C1205 C1202 1.387 . S
C1206 C1207 1.387 . S
C1206 H1210 0.950 . S
C1206 C1215 1.390 . S
C1207 C1206 1.387 . S
C1207 C1209 1.387 . S
H1208 C1215 0.950 . S
C1209 C1207 1.387 . S
C1209 C1211 1.390 . S
C1209 H1213 0.950 1_655 S
H1210 C1206 0.950 . S
C1211 C1209 1.390 . S
C1211 C1212 1.387 . S
C1211 H1214 0.950 . S
C1212 C1211 1.387 . S
C1212 C1215 1.387 . S
H1213 C1209 0.950 1_455 S
H1214 C1211 0.950 . S
C1215 C1206 1.390 . S
C1215 H1208 0.950 . S
C1215 C1212 1.387 . S
C1216 C1217 1.387 . S
C1216 H1220 0.950 . S
C1216 C1225 1.390 . S
C1217 C1216 1.387 . S
C1217 C1219 1.387 . S
H1218 C1225 0.950 . S
C1219 C1217 1.387 . S
C1219 C1221 1.390 . S
C1219 H1223 0.950 . S
H1220 C1216 0.950 . S
C1221 C1219 1.390 . S
C1221 C1222 1.387 . S
C1221 H1224 0.950 . S
C1222 C1221 1.387 . S
C1222 C1225 1.387 . S
H1223 C1219 0.950 . S
H1224 C1221 0.950 . S
C1225 C1216 1.390 . S
C1225 H1218 0.950 . S
C1225 C1222 1.387 . S
C1226 C1227 1.387 . S
C1226 H1230 0.950 . S
C1226 C1235 1.390 . S
C1227 C1226 1.387 . S
C1227 C1229 1.387 . S
H1228 C1235 0.950 . S
C1229 C1227 1.387 . S
C1229 C1231 1.390 . S
C1229 H1233 0.950 . S
H1230 C1226 0.950 . S
C1231 C1229 1.390 . S
C1231 C1232 1.387 . S
C1231 H1234 0.950 . S
C1232 C1231 1.387 . S
C1232 C1235 1.387 . S
H1233 C1229 0.950 . S
H1234 C1231 0.950 . S
C1235 C1226 1.390 . S
C1235 H1228 0.950 . S
C1235 C1232 1.387 . S
C1236 C1237 1.387 . S
C1236 H1240 0.950 . S
C1236 C1245 1.390 . S
C1237 C1236 1.387 . S
C1237 C1239 1.387 . S
H1238 C1245 0.950 . S
C1239 C1237 1.387 . S
C1239 C1241 1.390 . S
C1239 H1243 0.950 . S
H1240 C1236 0.950 . S
C1241 C1239 1.390 . S
C1241 C1242 1.387 . S
C1241 H1244 0.950 . S
C1242 C1241 1.387 . S
C1242 C1245 1.387 . S
H1243 C1239 0.950 . S
H1244 C1241 0.950 . S
C1245 C1236 1.390 . S
C1245 H1238 0.950 . S
C1245 C1242 1.387 . S
C1246 C1247 1.387 . S
C1246 H1250 0.950 . S
C1246 C1255 1.390 . S
C1247 C1246 1.387 . S
C1247 C1249 1.387 . S
H1248 C1255 0.950 1_455 S
C1249 C1247 1.387 . S
C1249 C1251 1.390 . S
C1249 H1253 0.950 . S
H1250 C1246 0.950 . S
C1251 C1249 1.390 . S
C1251 C1252 1.387 . S
C1251 H1254 0.950 . S
C1252 C1251 1.387 . S
C1252 C1255 1.387 . S
H1253 C1249 0.950 . S
H1254 C1251 0.950 . S
C1255 C1246 1.390 . S
C1255 H1248 0.950 1_655 S
C1255 C1252 1.387 . S
C1256 C1257 1.387 . S
C1256 H1260 0.950 . S
C1256 C1265 1.390 . S
C1257 C1256 1.387 . S
C1257 C1259 1.387 . S
H1258 C1265 0.950 . S
C1259 C1257 1.387 . S
C1259 C1261 1.390 . S
C1259 H1263 0.950 . S
H1260 C1256 0.950 . S
C1261 C1259 1.390 . S
C1261 C1262 1.387 . S
C1261 H1264 0.950 . S
C1262 C1261 1.387 . S
C1262 C1265 1.387 . S
H1263 C1259 0.950 . S
H1264 C1261 0.950 . S
C1265 C1256 1.390 . S
C1265 H1258 0.950 . S
C1265 C1262 1.387 . S
C1266 C1267 1.387 . S
C1266 H1270 0.950 . S
C1266 C1275 1.390 . S
C1267 C1266 1.387 . S
C1267 C1269 1.387 . S
H1268 C1275 0.950 . S
C1269 C1267 1.387 . S
C1269 C1271 1.390 . S
C1269 H1273 0.969 . S
H1270 C1266 0.950 . S
C1271 C1269 1.390 . S
C1271 C1272 1.387 . S
C1271 H1274 0.950 . S
C1272 C1271 1.387 . S
C1272 C1275 1.387 . S
H1273 C1269 0.969 . S
H1274 C1271 0.950 . S
C1275 C1266 1.390 . S
C1275 H1268 0.950 . S
C1275 C1272 1.387 . S
C1276 C1277 1.387 . S
C1276 H1280 0.950 . S
C1276 C1285 1.390 . S
C1277 C1276 1.387 . S
C1277 C1279 1.387 . S
H1278 C1285 0.950 . S
C1279 C1277 1.387 . S
C1279 C1281 1.390 . S
C1279 H1283 0.950 . S
H1280 C1276 0.950 . S
C1281 C1279 1.390 . S
C1281 C1282 1.387 . S
C1281 H1284 0.950 . S
C1282 C1281 1.387 . S
C1282 C1285 1.387 . S
H1283 C1279 0.950 . S
H1284 C1281 0.950 . S
C1285 C1276 1.390 . S
C1285 H1278 0.950 . S
C1285 C1282 1.387 . S
C1286 C1287 1.387 . S
C1286 H1290 0.950 . S
C1286 C1295 1.390 . S
C1287 C1286 1.387 . S
C1287 C1289 1.387 . S
H1288 C1295 0.950 . S
C1289 C1287 1.387 . S
C1289 C1291 1.390 . S
C1289 H1293 0.950 . S
H1290 C1286 0.950 . S
C1291 C1289 1.390 . S
C1291 C1292 1.387 . S
C1291 H1294 0.950 . S
C1292 C1291 1.387 . S
C1292 C1295 1.387 . S
H1293 C1289 0.950 . S
H1294 C1291 0.950 . S
C1295 C1286 1.390 . S
C1295 H1288 0.950 . S
C1295 C1292 1.387 . S
C1296 C1297 1.387 . S
C1296 H1300 0.950 . S
C1296 C1305 1.390 . S
C1297 C1296 1.387 . S
C1297 C1299 1.387 . S
H1298 C1305 0.950 . S
C1299 C1297 1.387 . S
C1299 C1301 1.390 . S
C1299 H1303 0.950 . S
H1300 C1296 0.950 . S
C1301 C1299 1.390 . S
C1301 C1302 1.387 . S
C1301 H1304 0.950 . S
C1302 C1301 1.387 . S
C1302 C1305 1.387 . S
H1303 C1299 0.950 . S
H1304 C1301 0.950 . S
C1305 C1296 1.390 . S
C1305 H1298 0.950 . S
C1305 C1302 1.387 . S
C1306 C1307 1.387 . S
C1306 H1310 0.950 . S
C1306 C1315 1.390 . S
C1307 C1306 1.387 . S
C1307 C1309 1.387 . S
H1308 C1315 0.950 . S
C1309 C1307 1.387 . S
C1309 C1311 1.390 . S
C1309 H1313 0.950 . S
H1310 C1306 0.950 . S
C1311 C1309 1.390 . S
C1311 C1312 1.387 . S
C1311 H1314 0.950 . S
C1312 C1311 1.387 . S
C1312 C1315 1.387 . S
H1313 C1309 0.950 . S
H1314 C1311 0.950 . S
C1315 C1306 1.390 . S
C1315 H1308 0.950 . S
C1315 C1312 1.387 . S
C1316 C1317 1.387 . S
C1316 H1320 0.950 . S
C1316 C1325 1.390 . S
C1317 C1316 1.387 . S
C1317 C1319 1.387 . S
H1318 C1325 0.950 . S
C1319 C1317 1.387 . S
C1319 C1321 1.390 . S
C1319 H1323 0.950 . S
H1320 C1316 0.950 . S
C1321 C1319 1.390 . S
C1321 C1322 1.387 . S
C1321 H1324 0.950 . S
C1322 C1321 1.387 . S
C1322 C1325 1.387 . S
H1323 C1319 0.950 . S
H1324 C1321 0.950 . S
C1325 C1316 1.390 . S
C1325 H1318 0.950 . S
C1325 C1322 1.387 . S
C1326 C1327 1.387 . S
C1326 H1330 0.950 . S
C1326 C1335 1.390 . S
C1327 C1326 1.387 . S
C1327 C1329 1.387 . S
H1328 C1335 0.950 1_655 S
C1329 C1327 1.387 . S
C1329 C1331 1.390 . S
C1329 H1333 0.950 . S
H1330 C1326 0.950 . S
C1331 C1329 1.390 . S
C1331 C1332 1.387 . S
C1331 H1334 0.950 . S
C1332 C1331 1.387 . S
C1332 C1335 1.387 . S
H1333 C1329 0.950 . S
H1334 C1331 0.950 . S
C1335 C1326 1.390 . S
C1335 H1328 0.950 1_455 S
C1335 C1332 1.387 . S
C1336 C1337 1.387 . S
C1336 H1340 0.950 . S
C1336 C1345 1.390 . S
C1337 C1336 1.387 . S
C1337 C1339 1.387 . S
H1338 C1345 0.950 . S
C1339 C1337 1.387 . S
C1339 C1341 1.390 . S
C1339 H1343 0.950 . S
H1340 C1336 0.950 . S
C1341 C1339 1.390 . S
C1341 C1342 1.387 . S
C1341 H1344 0.950 . S
C1342 C1341 1.387 . S
C1342 C1345 1.387 . S
H1343 C1339 0.950 . S
H1344 C1341 0.950 . S
C1345 C1336 1.390 . S
C1345 H1338 0.950 . S
C1345 C1342 1.387 . S
C1346 C1347 1.387 . S
C1346 H1350 0.950 . S
C1346 C1355 1.390 . S
C1347 C1346 1.387 . S
C1347 C1349 1.387 . S
H1348 C1355 0.950 . S
C1349 C1347 1.387 . S
C1349 C1351 1.390 . S
C1349 H1353 0.950 . S
H1350 C1346 0.950 . S
C1351 C1349 1.390 . S
C1351 C1352 1.387 . S
C1351 H1354 0.950 . S
C1352 C1351 1.387 . S
C1352 C1355 1.387 . S
H1353 C1349 0.950 . S
H1354 C1351 0.950 . S
C1355 C1346 1.390 . S
C1355 H1348 0.950 . S
C1355 C1352 1.387 . S
C1356 C1357 1.387 . S
C1356 H1360 0.950 . S
C1356 C1365 1.390 . S
C1357 C1356 1.387 . S
C1357 C1359 1.387 . S
H1358 C1365 0.950 . S
C1359 C1357 1.387 . S
C1359 C1361 1.390 . S
C1359 H1363 0.950 . S
H1360 C1356 0.950 . S
C1361 C1359 1.390 . S
C1361 C1362 1.387 . S
C1361 H1364 0.950 . S
C1362 C1361 1.387 . S
C1362 C1365 1.387 . S
H1363 C1359 0.950 . S
H1364 C1361 0.950 . S
C1365 C1356 1.390 . S
C1365 H1358 0.950 . S
C1365 C1362 1.387 . S
C1366 C1367 1.387 . S
C1366 H1370 0.950 . S
C1366 C1375 1.390 . S
C1367 C1366 1.387 . S
C1367 C1369 1.387 . S
H1368 C1375 0.950 . S
C1369 C1367 1.387 . S
C1369 C1371 1.390 . S
C1369 H1373 0.950 . S
H1370 C1366 0.950 . S
C1371 C1369 1.390 . S
C1371 C1372 1.387 . S
C1371 H1374 0.950 . S
C1372 C1371 1.387 . S
C1372 C1375 1.387 . S
H1373 C1369 0.950 . S
H1374 C1371 0.950 . S
C1375 C1366 1.390 . S
C1375 H1368 0.950 . S
C1375 C1372 1.387 . S
C1376 C1377 1.387 . S
C1376 H1380 0.950 . S
C1376 C1385 1.390 . S
C1377 C1376 1.387 . S
C1377 C1379 1.387 . S
H1378 C1385 0.950 . S
C1379 C1377 1.387 . S
C1379 C1381 1.390 . S
C1379 H1383 0.950 1_565 S
H1380 C1376 0.950 . S
C1381 C1379 1.390 . S
C1381 C1382 1.387 . S
C1381 H1384 0.950 . S
C1382 C1381 1.387 . S
C1382 C1385 1.387 . S
H1383 C1379 0.950 1_545 S
H1384 C1381 0.950 . S
C1385 C1376 1.390 . S
C1385 H1378 0.950 . S
C1385 C1382 1.387 . S
C1386 C1387 1.395 . S
C1386 H1390 0.932 1_565 S
C1386 C1395 1.400 . S
C1387 C1386 1.395 . S
C1387 C1389 1.387 . S
H1388 C1395 0.950 . S
C1389 C1387 1.387 . S
C1389 C1391 1.390 . S
C1389 H1393 0.950 . S
H1390 C1386 0.932 1_545 S
C1391 C1389 1.390 . S
C1391 C1392 1.387 . S
C1391 H1394 0.950 . S
C1392 C1391 1.387 . S
C1392 C1395 1.387 . S
H1393 C1389 0.950 . S
H1394 C1391 0.950 . S
C1395 C1386 1.400 . S
C1395 H1388 0.950 . S
C1395 C1392 1.387 . S
C1396 C1397 1.387 . S
C1396 H1400 0.950 . S
C1396 C1405 1.390 . S
C1397 C1396 1.387 . S
C1397 C1399 1.387 . S
H1398 C1405 0.950 . S
C1399 C1397 1.387 . S
C1399 C1401 1.401 . S
C1399 H1403 0.950 . S
H1400 C1396 0.950 . S
C1401 C1399 1.401 . S
C1401 C1402 1.396 . S
C1401 H1404 0.931 1_545 S
C1402 C1401 1.396 . S
C1402 C1405 1.387 . S
H1403 C1399 0.950 . S
H1404 C1401 0.931 1_565 S
C1405 C1396 1.390 . S
C1405 H1398 0.950 . S
C1405 C1402 1.387 . S
C1406 C1407 1.387 . S
C1406 H1410 0.950 . S
C1406 C1415 1.399 . S
C1407 C1406 1.387 . S
C1407 C1409 1.387 . S
H1408 C1415 0.934 1_565 S
C1409 C1407 1.387 . S
C1409 C1411 1.390 . S
C1409 H1413 0.950 . S
H1410 C1406 0.950 . S
C1411 C1409 1.390 . S
C1411 C1412 1.387 . S
C1411 H1414 0.950 . S
C1412 C1411 1.387 . S
C1412 C1415 1.394 . S
H1413 C1409 0.950 . S
H1414 C1411 0.950 . S
C1415 C1406 1.399 . S
C1415 H1408 0.934 1_545 S
C1415 C1412 1.394 . S
C1416 C1417 1.387 1_565 S
C1416 H1420 0.950 . S
C1416 C1425 1.390 1_565 S
C1417 C1416 1.387 1_545 S
C1417 C1419 1.387 . S
H1418 C1425 0.950 . S
C1419 C1417 1.387 . S
C1419 C1421 1.390 . S
C1419 H1423 0.950 . S
H1420 C1416 0.950 . S
C1421 C1419 1.390 . S
C1421 C1422 1.387 . S
C1421 H1424 0.950 . S
C1422 C1421 1.387 . S
C1422 C1425 1.387 . S
H1423 C1419 0.950 . S
H1424 C1421 0.950 . S
C1425 C1416 1.390 1_545 S
C1425 H1418 0.950 . S
C1425 C1422 1.387 . S
C1426 C1427 1.387 . S
C1426 H1430 0.950 . S
C1426 C1435 1.390 . S
C1427 C1426 1.387 . S
C1427 C1429 1.387 . S
H1428 C1435 0.950 . S
C1429 C1427 1.387 . S
C1429 C1431 1.390 . S
C1429 H1433 0.950 . S
H1430 C1426 0.950 . S
C1431 C1429 1.390 . S
C1431 C1432 1.387 . S
C1431 H1434 0.950 1_545 S
C1432 C1431 1.387 . S
C1432 C1435 1.387 . S
H1433 C1429 0.950 . S
H1434 C1431 0.950 1_565 S
C1435 C1426 1.390 . S
C1435 H1428 0.950 . S
C1435 C1432 1.387 . S
C1436 C1437 1.387 . S
C1436 H1440 0.950 . S
C1436 C1445 1.390 . S
C1437 C1436 1.387 . S
C1437 C1439 1.387 1_565 S
H1438 C1445 0.950 . S
C1439 C1437 1.387 1_545 S
C1439 C1441 1.390 1_545 S
C1439 H1443 0.950 . S
H1440 C1436 0.950 . S
C1441 C1439 1.390 1_565 S
C1441 C1442 1.387 . S
C1441 H1444 0.950 . S
C1442 C1441 1.387 . S
C1442 C1445 1.387 . S
H1443 C1439 0.950 . S
H1444 C1441 0.950 . S
C1445 C1436 1.390 . S
C1445 H1438 0.950 . S
C1445 C1442 1.387 . S
C1446 C1447 1.387 . S
C1446 H1450 0.950 . S
C1446 C1455 1.390 . S
C1447 C1446 1.387 . S
C1447 C1449 1.387 . S
H1448 C1455 0.950 1_545 S
C1449 C1447 1.387 . S
C1449 C1451 1.390 . S
C1449 H1453 0.950 . S
H1450 C1446 0.950 . S
C1451 C1449 1.390 . S
C1451 C1452 1.387 . S
C1451 H1454 0.950 . S
C1452 C1451 1.387 . S
C1452 C1455 1.387 . S
H1453 C1449 0.950 . S
H1454 C1451 0.950 . S
C1455 C1446 1.390 . S
C1455 H1448 0.950 1_565 S
C1455 C1452 1.387 . S
C1456 C1457 1.387 . S
C1456 H1460 0.950 . S
C1456 C1465 1.390 . S
C1457 C1456 1.387 . S
C1457 C1459 1.387 . S
H1458 C1465 0.950 . S
C1459 C1457 1.387 . S
C1459 C1461 1.390 . S
C1459 H1463 0.950 . S
H1460 C1456 0.950 . S
C1461 C1459 1.390 . S
C1461 C1462 1.387 . S
C1461 H1464 0.950 . S
C1462 C1461 1.387 . S
C1462 C1465 1.387 . S
H1463 C1459 0.950 . S
H1464 C1461 0.950 . S
C1465 C1456 1.390 . S
C1465 H1458 0.950 . S
C1465 C1462 1.387 . S
C1466 C1467 1.387 . S
C1466 H1470 0.950 . S
C1466 C1475 1.390 . S
C1467 C1466 1.387 . S
C1467 C1469 1.387 . S
H1468 C1475 0.950 . S
C1469 C1467 1.387 . S
C1469 C1471 1.390 . S
C1469 H1473 0.950 . S
H1470 C1466 0.950 . S
C1471 C1469 1.390 . S
C1471 C1472 1.387 . S
C1471 H1474 0.950 . S
C1472 C1471 1.387 . S
C1472 C1475 1.387 . S
H1473 C1469 0.950 . S
H1474 C1471 0.950 . S
C1475 C1466 1.390 . S
C1475 H1468 0.950 . S
C1475 C1472 1.387 . S
C1476 C1477 1.387 . S
C1476 H1480 0.950 . S
C1476 C1485 1.390 . S
C1477 C1476 1.387 . S
C1477 C1479 1.387 . S
H1478 C1485 0.950 . S
C1479 C1477 1.387 . S
C1479 C1481 1.390 . S
C1479 H1483 0.950 . S
H1480 C1476 0.950 . S
C1481 C1479 1.390 . S
C1481 C1482 1.387 . S
C1481 H1484 0.950 . S
C1482 C1481 1.387 . S
C1482 C1485 1.387 . S
H1483 C1479 0.950 . S
H1484 C1481 0.950 . S
C1485 C1476 1.390 . S
C1485 H1478 0.950 . S
C1485 C1482 1.387 . S
C1486 C1487 1.387 . S
C1486 H1490 0.950 . S
C1486 C1495 1.390 . S
C1487 C1486 1.387 . S
C1487 C1489 1.387 . S
H1488 C1495 0.950 . S
C1489 C1487 1.387 . S
C1489 C1491 1.390 . S
C1489 H1493 0.950 . S
H1490 C1486 0.950 . S
C1491 C1489 1.390 . S
C1491 C1492 1.387 . S
C1491 H1494 0.950 . S
C1492 C1491 1.387 . S
C1492 C1495 1.387 . S
H1493 C1489 0.950 . S
H1494 C1491 0.950 . S
C1495 C1486 1.390 . S
C1495 H1488 0.950 . S
C1495 C1492 1.387 . S
C1496 C1497 1.387 . S
C1496 H1500 0.950 . S
C1496 C1505 1.390 . S
C1497 C1496 1.387 . S
C1497 C1499 1.387 . S
H1498 C1505 0.950 . S
C1499 C1497 1.387 . S
C1499 C1501 1.390 . S
C1499 H1503 0.950 . S
H1500 C1496 0.950 . S
C1501 C1499 1.390 . S
C1501 C1502 1.387 . S
C1501 H1504 0.950 . S
C1502 C1501 1.387 . S
C1502 C1505 1.387 . S
H1503 C1499 0.950 . S
H1504 C1501 0.950 . S
C1505 C1496 1.390 . S
C1505 H1498 0.950 . S
C1505 C1502 1.387 . S
C1506 C1507 1.387 . S
C1506 H1510 0.950 . S
C1506 C1515 1.390 . S
C1507 C1506 1.387 . S
C1507 C1509 1.387 . S
H1508 C1515 0.950 . S
C1509 C1507 1.387 . S
C1509 C1511 1.390 . S
C1509 H1513 0.950 . S
H1510 C1506 0.950 . S
C1511 C1509 1.390 . S
C1511 C1512 1.387 . S
C1511 H1514 0.950 . S
C1512 C1511 1.387 . S
C1512 C1515 1.387 . S
H1513 C1509 0.950 . S
H1514 C1511 0.950 . S
C1515 C1506 1.390 . S
C1515 H1508 0.950 . S
C1515 C1512 1.387 . S
C1516 C1517 1.387 . S
C1516 H1520 0.950 . S
C1516 C1525 1.390 . S
C1517 C1516 1.387 . S
C1517 C1519 1.387 . S
H1518 C1525 0.950 . S
C1519 C1517 1.387 . S
C1519 C1521 1.390 . S
C1519 H1523 0.950 . S
H1520 C1516 0.950 . S
C1521 C1519 1.390 . S
C1521 C1522 1.387 . S
C1521 H1524 0.950 . S
C1522 C1521 1.387 . S
C1522 C1525 1.387 . S
H1523 C1519 0.950 . S
H1524 C1521 0.950 . S
C1525 C1516 1.390 . S
C1525 H1518 0.950 . S
C1525 C1522 1.387 . S
C1526 C1527 1.387 . S
C1526 H1530 0.950 . S
C1526 C1535 1.390 . S
C1527 C1526 1.387 . S
C1527 C1529 1.387 . S
H1528 C1535 0.950 . S
C1529 C1527 1.387 . S
C1529 C1531 1.390 . S
C1529 H1533 0.950 . S
H1530 C1526 0.950 . S
C1531 C1529 1.390 . S
C1531 C1532 1.387 . S
C1531 H1534 0.950 . S
C1532 C1531 1.387 . S
C1532 C1535 1.387 . S
H1533 C1529 0.950 . S
H1534 C1531 0.950 . S
C1535 C1526 1.390 . S
C1535 H1528 0.950 . S
C1535 C1532 1.387 . S
C1536 C1537 1.387 . S
C1536 H1540 0.950 . S
C1536 C1545 1.390 1_545 S
C1537 C1536 1.387 . S
C1537 C1539 1.387 . S
H1538 C1545 0.950 . S
C1539 C1537 1.387 . S
C1539 C1541 1.390 1_545 S
C1539 H1543 0.950 . S
H1540 C1536 0.950 . S
C1541 C1539 1.390 1_565 S
C1541 C1542 1.387 . S
C1541 H1544 0.950 . S
C1542 C1541 1.387 . S
C1542 C1545 1.387 . S
H1543 C1539 0.950 . S
H1544 C1541 0.950 . S
C1545 C1536 1.390 1_565 S
C1545 H1538 0.950 . S
C1545 C1542 1.387 . S
C1546 C1547 1.387 . S
C1546 H1550 0.950 . S
C1546 C1555 1.390 . S
C1547 C1546 1.387 . S
C1547 C1549 1.387 . S
H1548 C1555 0.950 . S
C1549 C1547 1.387 . S
C1549 C1551 1.390 . S
C1549 H1553 0.950 . S
H1550 C1546 0.950 . S
C1551 C1549 1.390 . S
C1551 C1552 1.387 . S
C1551 H1554 0.950 . S
C1552 C1551 1.387 . S
C1552 C1555 1.387 . S
H1553 C1549 0.950 . S
H1554 C1551 0.950 . S
C1555 C1546 1.390 . S
C1555 H1548 0.950 . S
C1555 C1552 1.387 . S
C1556 C1557 1.387 . S
C1556 H1560 0.950 . S
C1556 C1565 1.390 1_545 S
C1557 C1556 1.387 . S
C1557 C1559 1.387 . S
H1558 C1565 0.950 . S
C1559 C1557 1.387 . S
C1559 C1561 1.390 1_545 S
C1559 H1563 0.950 . S
H1560 C1556 0.950 . S
C1561 C1559 1.390 1_565 S
C1561 C1562 1.387 . S
C1561 H1564 0.950 . S
C1562 C1561 1.387 . S
C1562 C1565 1.387 . S
H1563 C1559 0.950 . S
H1564 C1561 0.950 . S
C1565 C1556 1.390 1_565 S
C1565 H1558 0.950 . S
C1565 C1562 1.387 . S
C1566 C1567 1.387 . S
C1566 H1570 0.950 . S
C1566 C1575 1.390 1_556 S
C1567 C1566 1.387 . S
C1567 C1569 1.387 . S
H1568 C1575 0.950 . S
C1569 C1567 1.387 . S
C1569 C1571 1.390 1_556 S
C1569 H1573 0.950 . S
H1570 C1566 0.950 . S
C1571 C1569 1.390 1_554 S
C1571 C1572 1.387 . S
C1571 H1574 0.950 . S
C1572 C1571 1.387 . S
C1572 C1575 1.387 . S
H1573 C1569 0.950 . S
H1574 C1571 0.950 . S
C1575 C1566 1.390 1_554 S
C1575 H1568 0.950 . S
C1575 C1572 1.387 . S
C1576 C1577 1.387 . S
C1576 H1580 0.950 . S
C1576 C1585 1.390 1_565 S
C1577 C1576 1.387 . S
C1577 C1579 1.387 . S
H1578 C1585 0.950 . S
C1579 C1577 1.387 . S
C1579 C1581 1.390 1_565 S
C1579 H1583 0.950 . S
H1580 C1576 0.950 . S
C1581 C1579 1.390 1_545 S
C1581 C1582 1.387 . S
C1581 H1584 0.950 . S
C1582 C1581 1.387 . S
C1582 C1585 1.387 . S
H1583 C1579 0.950 . S
H1584 C1581 0.950 . S
C1585 C1576 1.390 1_545 S
C1585 H1578 0.950 . S
C1585 C1582 1.387 . S
C1586 C1587 1.387 . S
C1586 H1590 0.950 . S
C1586 C1595 1.390 . S
C1587 C1586 1.387 . S
C1587 C1589 1.387 . S
H1588 C1595 0.950 . S
C1589 C1587 1.387 . S
C1589 C1591 1.390 . S
C1589 H1593 0.950 . S
H1590 C1586 0.950 . S
C1591 C1589 1.390 . S
C1591 C1592 1.387 . S
C1591 H1594 0.950 . S
C1592 C1591 1.387 . S
C1592 C1595 1.387 . S
H1593 C1589 0.950 . S
H1594 C1591 0.950 . S
C1595 C1586 1.390 . S
C1595 H1588 0.950 . S
C1595 C1592 1.387 . S
C1596 C1597 1.387 . S
C1596 H1600 0.950 . S
C1596 C1605 1.390 1_545 S
C1597 C1596 1.387 . S
C1597 C1599 1.387 . S
H1598 C1605 0.950 . S
C1599 C1597 1.387 . S
C1599 C1601 1.390 1_545 S
C1599 H1603 0.950 . S
H1600 C1596 0.950 . S
C1601 C1599 1.390 1_565 S
C1601 C1602 1.387 . S
C1601 H1604 0.950 . S
C1602 C1601 1.387 . S
C1602 C1605 1.387 . S
H1603 C1599 0.950 . S
H1604 C1601 0.950 . S
C1605 C1596 1.390 1_565 S
C1605 H1598 0.950 . S
C1605 C1602 1.387 . S
C1606 C1607 1.387 . S
C1606 H1610 0.950 . S
C1606 C1615 1.390 1_554 S
C1607 C1606 1.387 . S
C1607 C1609 1.387 . S
H1608 C1615 0.950 . S
C1609 C1607 1.387 . S
C1609 C1611 1.390 1_554 S
C1609 H1613 0.950 . S
H1610 C1606 0.950 . S
C1611 C1609 1.390 1_556 S
C1611 C1612 1.387 . S
C1611 H1614 0.950 . S
C1612 C1611 1.387 . S
C1612 C1615 1.387 . S
H1613 C1609 0.950 . S
H1614 C1611 0.950 . S
C1615 C1606 1.390 1_556 S
C1615 H1608 0.950 . S
C1615 C1612 1.387 . S
C1616 C1617 1.387 . S
C1616 H1620 0.950 . S
C1616 C1625 1.390 . S
C1617 C1616 1.387 . S
C1617 C1619 1.387 . S
H1618 C1625 0.950 . S
C1619 C1617 1.387 . S
C1619 C1621 1.390 . S
C1619 H1623 0.950 . S
H1620 C1616 0.950 . S
C1621 C1619 1.390 . S
C1621 C1622 1.387 . S
C1621 H1624 0.950 . S
C1622 C1621 1.387 . S
C1622 C1625 1.387 . S
H1623 C1619 0.950 . S
H1624 C1621 0.950 . S
C1625 C1616 1.390 . S
C1625 H1618 0.950 . S
C1625 C1622 1.387 . S
C1626 C1627 1.387 . S
C1626 H1630 0.950 . S
C1626 C1635 1.390 1_554 S
C1627 C1626 1.387 . S
C1627 C1629 1.387 . S
H1628 C1635 0.950 . S
C1629 C1627 1.387 . S
C1629 C1631 1.390 1_554 S
C1629 H1633 0.950 . S
H1630 C1626 0.950 . S
C1631 C1629 1.390 1_556 S
C1631 C1632 1.387 . S
C1631 H1634 0.950 . S
C1632 C1631 1.387 . S
C1632 C1635 1.387 . S
H1633 C1629 0.950 . S
H1634 C1631 0.950 . S
C1635 C1626 1.390 1_556 S
C1635 H1628 0.950 . S
C1635 C1632 1.387 . S
C1636 C1637 1.387 . S
C1636 H1640 0.950 . S
C1636 C1645 1.390 . S
C1637 C1636 1.387 . S
C1637 C1639 1.387 . S
H1638 C1645 0.950 . S
C1639 C1637 1.387 . S
C1639 C1641 1.390 . S
C1639 H1643 0.950 . S
H1640 C1636 0.950 . S
C1641 C1639 1.390 . S
C1641 C1642 1.387 . S
C1641 H1644 0.950 . S
C1642 C1641 1.387 . S
C1642 C1645 1.387 . S
H1643 C1639 0.950 . S
H1644 C1641 0.950 . S
C1645 C1636 1.390 . S
C1645 H1638 0.950 . S
C1645 C1642 1.387 . S
C1646 C1647 1.387 . S
C1646 H1650 0.950 . S
C1646 C1655 1.390 . S
C1647 C1646 1.387 . S
C1647 C1649 1.387 . S
H1648 C1655 0.950 . S
C1649 C1647 1.387 . S
C1649 C1651 1.390 . S
C1649 H1653 0.950 . S
H1650 C1646 0.950 . S
C1651 C1649 1.390 . S
C1651 C1652 1.387 . S
C1651 H1654 0.950 . S
C1652 C1651 1.387 . S
C1652 C1655 1.387 . S
H1653 C1649 0.950 . S
H1654 C1651 0.950 . S
C1655 C1646 1.390 . S
C1655 H1648 0.950 . S
C1655 C1652 1.387 . S
C1656 C1657 1.387 . S
C1656 H1660 0.950 . S
C1656 C1665 1.390 . S
C1657 C1656 1.387 . S
C1657 C1659 1.387 . S
H1658 C1665 0.950 . S
C1659 C1657 1.387 . S
C1659 C1661 1.390 . S
C1659 H1663 0.950 . S
H1660 C1656 0.950 . S
C1661 C1659 1.390 . S
C1661 C1662 1.387 . S
C1661 H1664 0.950 . S
C1662 C1661 1.387 . S
C1662 C1665 1.387 . S
H1663 C1659 0.950 . S
H1664 C1661 0.950 . S
C1665 C1656 1.390 . S
C1665 H1658 0.950 . S
C1665 C1662 1.387 . S
C1666 C1667 1.387 . S
C1666 H1670 0.950 . S
C1666 C1675 1.390 1_556 S
C1667 C1666 1.387 . S
C1667 C1669 1.387 . S
H1668 C1675 0.950 . S
C1669 C1667 1.387 . S
C1669 C1671 1.390 1_556 S
C1669 H1673 0.950 . S
H1670 C1666 0.950 . S
C1671 C1669 1.390 1_554 S
C1671 C1672 1.387 . S
C1671 H1674 0.950 . S
C1672 C1671 1.387 . S
C1672 C1675 1.387 . S
H1673 C1669 0.950 . S
H1674 C1671 0.950 . S
C1675 C1666 1.390 1_554 S
C1675 H1668 0.950 . S
C1675 C1672 1.387 . S
C1676 C1677 1.387 . S
C1676 H1680 0.950 . S
C1676 C1685 1.390 . S
C1677 C1676 1.387 . S
C1677 C1679 1.387 . S
H1678 C1685 0.950 . S
C1679 C1677 1.387 . S
C1679 C1681 1.390 . S
C1679 H1683 0.950 . S
H1680 C1676 0.950 . S
C1681 C1679 1.390 . S
C1681 C1682 1.387 . S
C1681 H1684 0.950 . S
C1682 C1681 1.387 . S
C1682 C1685 1.387 . S
H1683 C1679 0.950 . S
H1684 C1681 0.950 . S
C1685 C1676 1.390 . S
C1685 H1678 0.950 . S
C1685 C1682 1.387 . S
C1686 C1687 1.387 . S
C1686 H1690 0.950 . S
C1686 C1695 1.390 . S
C1687 C1686 1.387 . S
C1687 C1689 1.387 . S
H1688 C1695 0.950 . S
C1689 C1687 1.387 . S
C1689 C1691 1.390 . S
C1689 H1693 0.950 . S
H1690 C1686 0.950 . S
C1691 C1689 1.390 . S
C1691 C1692 1.387 . S
C1691 H1694 0.950 . S
C1692 C1691 1.387 . S
C1692 C1695 1.387 . S
H1693 C1689 0.950 . S
H1694 C1691 0.950 . S
C1695 C1686 1.390 . S
C1695 H1688 0.950 . S
C1695 C1692 1.387 . S
C1696 C1697 1.387 . S
C1696 H1700 0.950 . S
C1696 C1705 1.390 1_455 S
C1697 C1696 1.387 . S
C1697 C1699 1.387 . S
H1698 C1705 0.950 . S
C1699 C1697 1.387 . S
C1699 C1701 1.390 1_455 S
C1699 H1703 0.950 . S
H1700 C1696 0.950 . S
C1701 C1699 1.390 1_655 S
C1701 C1702 1.387 . S
C1701 H1704 0.950 . S
C1702 C1701 1.387 . S
C1702 C1705 1.387 . S
H1703 C1699 0.950 . S
H1704 C1701 0.950 . S
C1705 C1696 1.390 1_655 S
C1705 H1698 0.950 . S
C1705 C1702 1.387 . S
C1706 C1707 1.387 . S
C1706 H1710 0.950 . S
C1706 C1715 1.390 1_655 S
C1707 C1706 1.387 . S
C1707 C1709 1.387 . S
H1708 C1715 0.950 . S
C1709 C1707 1.387 . S
C1709 C1711 1.390 1_655 S
C1709 H1713 0.950 . S
H1710 C1706 0.950 . S
C1711 C1709 1.390 1_455 S
C1711 C1712 1.387 . S
C1711 H1714 0.950 . S
C1712 C1711 1.387 . S
C1712 C1715 1.387 . S
H1713 C1709 0.950 . S
H1714 C1711 0.950 . S
C1715 C1706 1.390 1_455 S
C1715 H1708 0.950 . S
C1715 C1712 1.387 . S
C1716 C1717 1.387 . S
C1716 H1720 0.950 . S
C1716 C1725 1.390 . S
C1717 C1716 1.387 . S
C1717 C1719 1.387 . S
H1718 C1725 0.950 . S
C1719 C1717 1.387 . S
C1719 C1721 1.390 . S
C1719 H1723 0.950 . S
H1720 C1716 0.950 . S
C1721 C1719 1.390 . S
C1721 C1722 1.387 . S
C1721 H1724 0.950 . S
C1722 C1721 1.387 . S
C1722 C1725 1.387 . S
H1723 C1719 0.950 . S
H1724 C1721 0.950 . S
C1725 C1716 1.390 . S
C1725 H1718 0.950 . S
C1725 C1722 1.387 . S
C1726 C1727 1.387 . S
C1726 H1730 0.950 . S
C1726 C1735 1.390 . S
C1727 C1726 1.387 . S
C1727 C1729 1.387 . S
H1728 C1735 0.950 . S
C1729 C1727 1.387 . S
C1729 C1731 1.390 . S
C1729 H1733 0.956 . S
H1730 C1726 0.950 . S
C1731 C1729 1.390 . S
C1731 C1732 1.387 . S
C1731 H1734 0.956 . S
C1732 C1731 1.387 . S
C1732 C1735 1.387 . S
H1733 C1729 0.956 . S
H1734 C1731 0.956 . S
C1735 C1726 1.390 . S
C1735 H1728 0.950 . S
C1735 C1732 1.387 . S
C1736 C1737 1.387 . S
C1736 H1740 0.950 . S
C1736 C1745 1.390 1_655 S
C1737 C1736 1.387 . S
C1737 C1739 1.387 . S
H1738 C1745 0.950 . S
C1739 C1737 1.387 . S
C1739 C1741 1.390 1_655 S
C1739 H1743 0.950 . S
H1740 C1736 0.950 . S
C1741 C1739 1.390 1_455 S
C1741 C1742 1.387 . S
C1741 H1744 0.950 . S
C1742 C1741 1.387 . S
C1742 C1745 1.387 . S
H1743 C1739 0.950 . S
H1744 C1741 0.950 . S
C1745 C1736 1.390 1_455 S
C1745 H1738 0.950 . S
C1745 C1742 1.387 . S
C1746 C1747 1.387 . S
C1746 H1750 0.950 . S
C1746 C1755 1.390 . S
C1747 C1746 1.387 . S
C1747 C1749 1.387 . S
H1748 C1755 0.950 . S
C1749 C1747 1.387 . S
C1749 C1751 1.390 . S
C1749 H1753 0.950 . S
H1750 C1746 0.950 . S
C1751 C1749 1.390 . S
C1751 C1752 1.387 . S
C1751 H1754 0.950 . S
C1752 C1751 1.387 . S
C1752 C1755 1.387 . S
H1753 C1749 0.950 . S
H1754 C1751 0.950 . S
C1755 C1746 1.390 . S
C1755 H1748 0.950 . S
C1755 C1752 1.387 . S
C1756 C1757 1.387 . S
C1756 H1760 0.950 . S
C1756 C1765 1.390 . S
C1757 C1756 1.387 . S
C1757 C1759 1.387 . S
H1758 C1765 0.950 . S
C1759 C1757 1.387 . S
C1759 C1761 1.390 . S
C1759 H1763 0.950 . S
H1760 C1756 0.950 . S
C1761 C1759 1.390 . S
C1761 C1762 1.387 . S
C1761 H1764 0.950 . S
C1762 C1761 1.387 . S
C1762 C1765 1.387 . S
H1763 C1759 0.950 . S
H1764 C1761 0.950 . S
C1765 C1756 1.390 . S
C1765 H1758 0.950 . S
C1765 C1762 1.387 . S
C1766 C1767 1.387 . S
C1766 H1770 0.950 . S
C1766 C1775 1.390 1_455 S
C1767 C1766 1.387 . S
C1767 C1769 1.387 . S
H1768 C1775 0.950 . S
C1769 C1767 1.387 . S
C1769 C1771 1.390 1_455 S
C1769 H1773 0.956 . S
H1770 C1766 0.950 . S
C1771 C1769 1.390 1_655 S
C1771 C1772 1.387 . S
C1771 H1774 0.956 . S
C1772 C1771 1.387 . S
C1772 C1775 1.387 . S
H1773 C1769 0.956 . S
H1774 C1771 0.956 . S
C1775 C1766 1.390 1_655 S
C1775 H1768 0.950 . S
C1775 C1772 1.387 . S
C1776 C1777 1.387 . S
C1776 H1780 0.950 . S
C1776 C1785 1.390 1_655 S
C1777 C1776 1.387 . S
C1777 C1779 1.387 . S
H1778 C1785 0.950 . S
C1779 C1777 1.387 . S
C1779 C1781 1.390 1_655 S
C1779 H1783 0.950 . S
H1780 C1776 0.950 . S
C1781 C1779 1.390 1_455 S
C1781 C1782 1.387 . S
C1781 H1784 0.950 . S
C1782 C1781 1.387 . S
C1782 C1785 1.387 . S
H1783 C1779 0.950 . S
H1784 C1781 0.950 . S
C1785 C1776 1.390 1_455 S
C1785 H1778 0.950 . S
C1785 C1782 1.387 . S
C1786 C1787 1.387 . S
C1786 H1790 0.950 . S
C1786 C1795 1.390 1_455 S
C1787 C1786 1.387 . S
C1787 C1789 1.387 . S
H1788 C1795 0.950 . S
C1789 C1787 1.387 . S
C1789 C1791 1.390 1_455 S
C1789 H1793 0.950 . S
H1790 C1786 0.950 . S
C1791 C1789 1.390 1_655 S
C1791 C1792 1.387 . S
C1791 H1794 0.950 . S
C1792 C1791 1.387 . S
C1792 C1795 1.387 . S
H1793 C1789 0.950 . S
H1794 C1791 0.950 . S
C1795 C1786 1.390 1_655 S
C1795 H1788 0.950 . S
C1795 C1792 1.387 . S
C1796 C1797 1.387 . S
C1796 H1800 0.950 . S
C1796 C1805 1.390 . S
C1797 C1796 1.387 . S
C1797 C1799 1.387 . S
H1798 C1805 0.950 . S
C1799 C1797 1.387 . S
C1799 C1801 1.390 . S
C1799 H1803 0.950 . S
H1800 C1796 0.950 . S
C1801 C1799 1.390 . S
C1801 C1802 1.387 . S
C1801 H1804 0.950 . S
C1802 C1801 1.387 . S
C1802 C1805 1.387 . S
H1803 C1799 0.950 . S
H1804 C1801 0.950 . S
C1805 C1796 1.390 . S
C1805 H1798 0.950 . S
C1805 C1802 1.387 . S
C1806 C1807 1.387 . S
C1806 H1810 0.956 . S
C1806 C1815 1.390 . S
C1807 C1806 1.387 . S
C1807 C1809 1.387 . S
H1808 C1815 0.956 . S
C1809 C1807 1.387 . S
C1809 C1811 1.390 . S
C1809 H1813 0.950 . S
H1810 C1806 0.956 . S
C1811 C1809 1.390 . S
C1811 C1812 1.387 . S
C1811 H1814 0.950 . S
C1812 C1811 1.387 . S
C1812 C1815 1.387 . S
H1813 C1809 0.950 . S
H1814 C1811 0.950 . S
C1815 C1806 1.390 . S
C1815 H1808 0.956 . S
C1815 C1812 1.387 . S
C1816 C1817 1.387 . S
C1816 H1820 0.950 . S
C1816 C1825 1.390 1_655 S
C1817 C1816 1.387 . S
C1817 C1819 1.387 . S
H1818 C1825 0.950 . S
C1819 C1817 1.387 . S
C1819 C1821 1.390 1_655 S
C1819 H1823 0.950 . S
H1820 C1816 0.950 . S
C1821 C1819 1.390 1_455 S
C1821 C1822 1.387 . S
C1821 H1824 0.950 . S
C1822 C1821 1.387 . S
C1822 C1825 1.387 . S
H1823 C1819 0.950 . S
H1824 C1821 0.950 . S
C1825 C1816 1.390 1_455 S
C1825 H1818 0.950 . S
C1825 C1822 1.387 . S
C1826 C1827 1.387 . S
C1826 H1830 0.950 . S
C1826 C1835 1.390 . S
C1827 C1826 1.387 . S
C1827 C1829 1.387 . S
H1828 C1835 0.950 . S
C1829 C1827 1.387 . S
C1829 C1831 1.390 . S
C1829 H1833 0.950 . S
H1830 C1826 0.950 . S
C1831 C1829 1.390 . S
C1831 C1832 1.387 . S
C1831 H1834 0.950 . S
C1832 C1831 1.387 . S
C1832 C1835 1.387 . S
H1833 C1829 0.950 . S
H1834 C1831 0.950 . S
C1835 C1826 1.390 . S
C1835 H1828 0.950 . S
C1835 C1832 1.387 . S
C1836 C1837 1.387 . S
C1836 H1840 0.950 . S
C1836 C1845 1.390 . S
C1837 C1836 1.387 . S
C1837 C1839 1.387 . S
H1838 C1845 0.950 . S
C1839 C1837 1.387 . S
C1839 C1841 1.390 . S
C1839 H1843 0.950 . S
H1840 C1836 0.950 . S
C1841 C1839 1.390 . S
C1841 C1842 1.387 . S
C1841 H1844 0.950 . S
C1842 C1841 1.387 . S
C1842 C1845 1.387 . S
H1843 C1839 0.950 . S
H1844 C1841 0.950 . S
C1845 C1836 1.390 . S
C1845 H1838 0.950 . S
C1845 C1842 1.387 . S
C1846 C1847 1.387 . S
C1846 H1850 0.950 . S
C1846 C1855 1.390 1_655 S
C1847 C1846 1.387 . S
C1847 C1849 1.387 . S
H1848 C1855 0.950 . S
C1849 C1847 1.387 . S
C1849 C1851 1.390 1_655 S
C1849 H1853 0.956 . S
H1850 C1846 0.950 . S
C1851 C1849 1.390 1_455 S
C1851 C1852 1.387 . S
C1851 H1854 0.956 . S
C1852 C1851 1.387 . S
C1852 C1855 1.387 . S
H1853 C1849 0.956 . S
H1854 C1851 0.956 . S
C1855 C1846 1.390 1_455 S
C1855 H1848 0.950 . S
C1855 C1852 1.387 . S
C1057 C912 0.885 . S
C1062 C7 0.887 . S
C1067 C285 0.887 1_455 S
C1072 C40 0.887 . S
C1077 C846 0.882 . S
C1082 C73 0.890 . S
C1087 C106 0.887 . S
C1092 C351 0.885 . S
C1097 C978 0.886 . S
C1102 C139 0.888 . S
C1107 C483 0.883 . S
C1112 C172 0.889 . S
C1117 C205 0.887 . S
C1122 C1044 0.887 . S
C1127 C238 0.889 . S
C1132 C417 0.885 1_455 S
C1137 C648 0.883 . S
C1142 C271 0.891 . S
C1147 C21 0.884 1_655 S
C1152 C304 0.888 . S
C1157 C337 0.890 . S
C1162 C582 0.884 . S
C1167 C370 0.888 . S
C1172 C87 0.883 . S
C1177 C403 0.889 . S
C1182 C714 0.885 . S
C1187 C436 0.891 . S
C1192 C219 0.882 . S
C1197 C780 0.884 . S
C1202 C469 0.888 . S
C1207 C153 0.882 1_655 S
C1212 C502 0.890 . S
C1217 C384 0.882 . S
C1222 C535 0.890 . S
C1227 C568 0.886 . S
C1232 C813 0.885 . S
C1237 C318 0.886 . S
C1242 C601 0.886 . S
C1247 C634 0.890 . S
C1252 C879 0.884 1_655 S
C1257 C450 0.887 . S
C1262 C667 0.886 . S
C1267 C1011 0.884 1_655 S
C1272 C700 0.887 . S
C1277 C516 0.887 . S
C1282 C733 0.887 . S
C1287 C766 0.888 . S
C1292 C945 0.883 . S
C1297 C799 0.890 . S
C1302 C120 0.884 . S
C1307 C549 0.885 . S
C1312 C832 0.886 . S
C1317 C54 0.882 . S
C1322 C865 0.889 . S
C1327 C898 0.886 . S
C1332 C615 0.886 1_455 S
C1337 C931 0.887 . S
C1342 C186 0.887 . S
C1347 C964 0.889 . S
C1352 C747 0.886 1_455 S
C1357 C252 0.887 . S
C1362 C997 0.887 . S
C1367 C1030 0.888 . S
C1372 C681 0.883 . S
C1377 N13 1.529 1_565 S
C1382 N178 1.527 . S
C1387 N211 1.528 1_565 S
C1392 N46 1.530 . S
C1397 N244 1.526 . S
C1402 N79 1.527 1_545 S
C1407 N112 1.530 . S
C1412 N145 1.528 1_545 S
C1417 N277 1.527 1_545 S
C1422 N442 1.526 . S
C1427 N310 1.530 . S
C1432 N475 1.527 1_545 S
C1437 N343 1.529 1_565 S
C1442 N508 1.530 . S
C1447 N376 1.527 . S
C1452 N409 1.529 1_565 S
C1457 N706 1.530 . S
C1462 N541 1.528 . S
C1467 N574 1.526 . S
C1472 N739 1.527 . S
C1477 N607 1.530 . S
C1482 N772 1.530 . S
C1487 N673 1.528 . S
C1492 N640 1.530 . S
C1497 N970 1.527 . S
C1502 N805 1.526 . S
C1507 N1003 1.527 . S
C1512 N838 1.526 . S
C1517 N1036 1.530 . S
C1522 N871 1.528 . S
C1527 N937 1.527 . S
C1532 N904 1.529 . S
C1537 C18 1.323 . S
C1542 C150 1.323 . S
C1547 C51 1.320 . S
C1552 C183 1.320 . S
C1557 C216 1.320 . S
C1562 C84 1.320 . S
C1567 C249 1.320 . S
C1572 C117 1.320 . S
C1577 C282 1.320 . S
C1582 C414 1.320 . S
C1587 C447 1.320 . S
C1592 C315 1.320 . S
C1597 C348 1.320 . S
C1602 C480 1.320 . S
C1607 C513 1.320 . S
C1612 C381 1.320 . S
C1617 C546 1.320 . S
C1622 C678 1.320 . S
C1627 C579 1.323 . S
C1632 C711 1.323 . S
C1637 C612 1.320 . S
C1642 C744 1.320 . S
C1647 C645 1.323 . S
C1652 C777 1.323 . S
C1657 C942 1.320 . S
C1662 C810 1.320 . S
C1667 C843 1.320 . S
C1672 C975 1.320 . S
C1677 C876 1.323 . S
C1682 C1008 1.323 . S
C1687 C909 1.320 . S
C1692 C1041 1.320 . S
C1697 N2 1.355 . S
C1702 N596 1.355 . S
C1707 N629 1.355 . S
C1712 N35 1.355 . S
C1717 N68 1.355 . S
C1722 N530 1.355 . S
C1727 N101 1.353 . S
C1732 N563 1.353 . S
C1737 N728 1.353 . S
C1742 N134 1.353 . S
C1747 N761 1.353 . S
C1752 N167 1.353 . S
C1757 N200 1.353 . S
C1762 N662 1.353 . S
C1767 N233 1.353 . S
C1772 N695 1.353 . S
C1777 N266 1.355 . S
C1782 N860 1.355 . S
C1787 N893 1.355 . S
C1792 N299 1.355 . S
C1797 N794 1.355 . S
C1802 N332 1.355 . S
C1807 N365 1.353 . S
C1812 N827 1.353 . S
C1817 N398 1.353 . S
C1822 N992 1.353 . S
C1827 N431 1.353 . S
C1832 N1025 1.353 . S
C1837 N464 1.353 . S
C1842 N926 1.353 . S
C1847 N497 1.355 . S
C1852 N959 1.355 . S
