# Generated by pormake.
# Topology mer, (4)-cn, num edge types: 1
# Building blocks:
#     Node 0, Type 0, BuildingBlock: ICAMEG_clean_sbu_1, # of connection points: 4
#     Node 1, Type 0, BuildingBlock: ICAMEG_clean_sbu_1, # of connection points: 4
#     Node 2, Type 0, BuildingBlock: ICAMEG_clean_sbu_1, # of connection points: 4
#     Node 3, Type 0, BuildingBlock: ICAMEG_clean_sbu_1, # of connection points: 4
#     Node 4, Type 0, BuildingBlock: ICAMEG_clean_sbu_1, # of connection points: 4
#     Node 5, Type 0, BuildingBlock: ICAMEG_clean_sbu_1, # of connection points: 4
#     Node 6, Type 0, BuildingBlock: ICAMEG_clean_sbu_1, # of connection points: 4
#     Node 7, Type 0, BuildingBlock: ICAMEG_clean_sbu_1, # of connection points: 4
#     Node 8, Type 0, BuildingBlock: ICAMEG_clean_sbu_1, # of connection points: 4
#     Node 9, Type 0, BuildingBlock: ICAMEG_clean_sbu_1, # of connection points: 4
#     Node 10, Type 0, BuildingBlock: ICAMEG_clean_sbu_1, # of connection points: 4
#     Node 11, Type 0, BuildingBlock: ICAMEG_clean_sbu_1, # of connection points: 4
#     Node 12, Type 0, BuildingBlock: ICAMEG_clean_sbu_1, # of connection points: 4
#     Node 13, Type 0, BuildingBlock: ICAMEG_clean_sbu_1, # of connection points: 4
#     Node 14, Type 0, BuildingBlock: ICAMEG_clean_sbu_1, # of connection points: 4
#     Node 15, Type 0, BuildingBlock: ICAMEG_clean_sbu_1, # of connection points: 4
#     Node 16, Type 0, BuildingBlock: ICAMEG_clean_sbu_1, # of connection points: 4
#     Node 17, Type 0, BuildingBlock: ICAMEG_clean_sbu_1, # of connection points: 4
#     Node 18, Type 0, BuildingBlock: ICAMEG_clean_sbu_1, # of connection points: 4
#     Node 19, Type 0, BuildingBlock: ICAMEG_clean_sbu_1, # of connection points: 4
#     Node 20, Type 0, BuildingBlock: ICAMEG_clean_sbu_1, # of connection points: 4
#     Node 21, Type 0, BuildingBlock: ICAMEG_clean_sbu_1, # of connection points: 4
#     Node 22, Type 0, BuildingBlock: ICAMEG_clean_sbu_1, # of connection points: 4
#     Node 23, Type 0, BuildingBlock: ICAMEG_clean_sbu_1, # of connection points: 4
#     Node 24, Type 0, BuildingBlock: ICAMEG_clean_sbu_1, # of connection points: 4
#     Node 25, Type 0, BuildingBlock: ICAMEG_clean_sbu_1, # of connection points: 4
#     Node 26, Type 0, BuildingBlock: ICAMEG_clean_sbu_1, # of connection points: 4
#     Node 27, Type 0, BuildingBlock: ICAMEG_clean_sbu_1, # of connection points: 4
#     Node 28, Type 0, BuildingBlock: ICAMEG_clean_sbu_1, # of connection points: 4
#     Node 29, Type 0, BuildingBlock: ICAMEG_clean_sbu_1, # of connection points: 4
#     Node 30, Type 0, BuildingBlock: ICAMEG_clean_sbu_1, # of connection points: 4
#     Node 31, Type 0, BuildingBlock: ICAMEG_clean_sbu_1, # of connection points: 4
#     Edge 32, Type (0, 0), BuildingBlock: AJUNOK_clean_linker_0, # of connection points: 2
#     Edge 33, Type (0, 0), BuildingBlock: AJUNOK_clean_linker_0, # of connection points: 2
#     Edge 34, Type (0, 0), BuildingBlock: AJUNOK_clean_linker_0, # of connection points: 2
#     Edge 35, Type (0, 0), BuildingBlock: AJUNOK_clean_linker_0, # of connection points: 2
#     Edge 36, Type (0, 0), BuildingBlock: AJUNOK_clean_linker_0, # of connection points: 2
#     Edge 37, Type (0, 0), BuildingBlock: AJUNOK_clean_linker_0, # of connection points: 2
#     Edge 38, Type (0, 0), BuildingBlock: AJUNOK_clean_linker_0, # of connection points: 2
#     Edge 39, Type (0, 0), BuildingBlock: AJUNOK_clean_linker_0, # of connection points: 2
#     Edge 40, Type (0, 0), BuildingBlock: AJUNOK_clean_linker_0, # of connection points: 2
#     Edge 41, Type (0, 0), BuildingBlock: AJUNOK_clean_linker_0, # of connection points: 2
#     Edge 42, Type (0, 0), BuildingBlock: AJUNOK_clean_linker_0, # of connection points: 2
#     Edge 43, Type (0, 0), BuildingBlock: AJUNOK_clean_linker_0, # of connection points: 2
#     Edge 44, Type (0, 0), BuildingBlock: AJUNOK_clean_linker_0, # of connection points: 2
#     Edge 45, Type (0, 0), BuildingBlock: AJUNOK_clean_linker_0, # of connection points: 2
#     Edge 46, Type (0, 0), BuildingBlock: AJUNOK_clean_linker_0, # of connection points: 2
#     Edge 47, Type (0, 0), BuildingBlock: AJUNOK_clean_linker_0, # of connection points: 2
#     Edge 48, Type (0, 0), BuildingBlock: AJUNOK_clean_linker_0, # of connection points: 2
#     Edge 49, Type (0, 0), BuildingBlock: AJUNOK_clean_linker_0, # of connection points: 2
#     Edge 50, Type (0, 0), BuildingBlock: AJUNOK_clean_linker_0, # of connection points: 2
#     Edge 51, Type (0, 0), BuildingBlock: AJUNOK_clean_linker_0, # of connection points: 2
#     Edge 52, Type (0, 0), BuildingBlock: AJUNOK_clean_linker_0, # of connection points: 2
#     Edge 53, Type (0, 0), BuildingBlock: AJUNOK_clean_linker_0, # of connection points: 2
#     Edge 54, Type (0, 0), BuildingBlock: AJUNOK_clean_linker_0, # of connection points: 2
#     Edge 55, Type (0, 0), BuildingBlock: AJUNOK_clean_linker_0, # of connection points: 2
#     Edge 56, Type (0, 0), BuildingBlock: AJUNOK_clean_linker_0, # of connection points: 2
#     Edge 57, Type (0, 0), BuildingBlock: AJUNOK_clean_linker_0, # of connection points: 2
#     Edge 58, Type (0, 0), BuildingBlock: AJUNOK_clean_linker_0, # of connection points: 2
#     Edge 59, Type (0, 0), BuildingBlock: AJUNOK_clean_linker_0, # of connection points: 2
#     Edge 60, Type (0, 0), BuildingBlock: AJUNOK_clean_linker_0, # of connection points: 2
#     Edge 61, Type (0, 0), BuildingBlock: AJUNOK_clean_linker_0, # of connection points: 2
#     Edge 62, Type (0, 0), BuildingBlock: AJUNOK_clean_linker_0, # of connection points: 2
#     Edge 63, Type (0, 0), BuildingBlock: AJUNOK_clean_linker_0, # of connection points: 2
#     Edge 64, Type (0, 0), BuildingBlock: AJUNOK_clean_linker_0, # of connection points: 2
#     Edge 65, Type (0, 0), BuildingBlock: AJUNOK_clean_linker_0, # of connection points: 2
#     Edge 66, Type (0, 0), BuildingBlock: AJUNOK_clean_linker_0, # of connection points: 2
#     Edge 67, Type (0, 0), BuildingBlock: AJUNOK_clean_linker_0, # of connection points: 2
#     Edge 68, Type (0, 0), BuildingBlock: AJUNOK_clean_linker_0, # of connection points: 2
#     Edge 69, Type (0, 0), BuildingBlock: AJUNOK_clean_linker_0, # of connection points: 2
#     Edge 70, Type (0, 0), BuildingBlock: AJUNOK_clean_linker_0, # of connection points: 2
#     Edge 71, Type (0, 0), BuildingBlock: AJUNOK_clean_linker_0, # of connection points: 2
#     Edge 72, Type (0, 0), BuildingBlock: AJUNOK_clean_linker_0, # of connection points: 2
#     Edge 73, Type (0, 0), BuildingBlock: AJUNOK_clean_linker_0, # of connection points: 2
#     Edge 74, Type (0, 0), BuildingBlock: AJUNOK_clean_linker_0, # of connection points: 2
#     Edge 75, Type (0, 0), BuildingBlock: AJUNOK_clean_linker_0, # of connection points: 2
#     Edge 76, Type (0, 0), BuildingBlock: AJUNOK_clean_linker_0, # of connection points: 2
#     Edge 77, Type (0, 0), BuildingBlock: AJUNOK_clean_linker_0, # of connection points: 2
#     Edge 78, Type (0, 0), BuildingBlock: AJUNOK_clean_linker_0, # of connection points: 2
#     Edge 79, Type (0, 0), BuildingBlock: AJUNOK_clean_linker_0, # of connection points: 2
#     Edge 80, Type (0, 0), BuildingBlock: AJUNOK_clean_linker_0, # of connection points: 2
#     Edge 81, Type (0, 0), BuildingBlock: AJUNOK_clean_linker_0, # of connection points: 2
#     Edge 82, Type (0, 0), BuildingBlock: AJUNOK_clean_linker_0, # of connection points: 2
#     Edge 83, Type (0, 0), BuildingBlock: AJUNOK_clean_linker_0, # of connection points: 2
#     Edge 84, Type (0, 0), BuildingBlock: AJUNOK_clean_linker_0, # of connection points: 2
#     Edge 85, Type (0, 0), BuildingBlock: AJUNOK_clean_linker_0, # of connection points: 2
#     Edge 86, Type (0, 0), BuildingBlock: AJUNOK_clean_linker_0, # of connection points: 2
#     Edge 87, Type (0, 0), BuildingBlock: AJUNOK_clean_linker_0, # of connection points: 2
#     Edge 88, Type (0, 0), BuildingBlock: AJUNOK_clean_linker_0, # of connection points: 2
#     Edge 89, Type (0, 0), BuildingBlock: AJUNOK_clean_linker_0, # of connection points: 2
#     Edge 90, Type (0, 0), BuildingBlock: AJUNOK_clean_linker_0, # of connection points: 2
#     Edge 91, Type (0, 0), BuildingBlock: AJUNOK_clean_linker_0, # of connection points: 2
#     Edge 92, Type (0, 0), BuildingBlock: AJUNOK_clean_linker_0, # of connection points: 2
#     Edge 93, Type (0, 0), BuildingBlock: AJUNOK_clean_linker_0, # of connection points: 2
#     Edge 94, Type (0, 0), BuildingBlock: AJUNOK_clean_linker_0, # of connection points: 2
#     Edge 95, Type (0, 0), BuildingBlock: AJUNOK_clean_linker_0, # of connection points: 2
# Relax obj value: 0.031
# Max RMSD: 0.076
# Mean RMSD: 0.076
data_MOF--net-mer--node1-ICAMEG_clean_sbu_1--edge1-AJUNOK_clean_linker_0
_symmetry_space_group_name_H-M    P1
_symmetry_Int_Tables_number       1
_symmetry_cell_setting            triclinic
loop_
_symmetry_equiv_pos_as_xyz
'x, y, z'
_cell_length_a     49.117207
_cell_length_b     49.126403
_cell_length_c     44.260883
_cell_angle_alpha  89.98551
_cell_angle_beta   89.996464
_cell_angle_gamma 90.024748
loop_
_atom_site_label
_atom_site_type_symbol
_atom_site_fract_x
_atom_site_fract_y
_atom_site_fract_z
_atom_type_partial_charge
Co0 Co 0.15668 0.3127 0.38433 0.0
Co1 Co 0.10835 0.26187 0.38655 0.0
O2 O 0.12304 0.29562 0.37007 0.0
C3 C 0.16462 0.30556 0.31843 0.0
O4 O 0.15482 0.28091 0.32195 0.0
C5 C 0.05963 0.29786 0.39346 0.0
O6 O 0.07408 0.31499 0.40964 0.0
O7 O 0.11088 0.27661 0.42817 0.0
O8 O 0.14722 0.30436 0.42774 0.0
H9 H 0.10276 0.18495 0.46112 0.0
H10 H 0.11948 0.34304 0.34376 0.0
O11 O 0.16686 0.32135 0.34121 0.0
H12 H 0.12549 0.39818 0.43661 0.0
H13 H 0.2292 0.38509 0.38358 0.0
H14 H 0.19873 0.299 0.42993 0.0
H15 H 0.15132 0.35535 0.43192 0.0
H16 H 0.18639 0.36331 0.36727 0.0
O17 O 0.07057 0.27652 0.38257 0.0
H18 H 0.12221 0.22658 0.43865 0.0
H19 H 0.06106 0.2264 0.37081 0.0
H20 H 0.24152 0.32024 0.44719 0.0
H21 H 0.09347 0.38587 0.3474 0.0
H22 H 0.25702 0.36359 0.42392 0.0
H23 H 0.09635 0.41372 0.39411 0.0
O24 O 0.17709 0.27774 0.38119 0.0
H25 H 0.08417 0.26574 0.27635 0.0
H26 H 0.12513 0.20986 0.35693 0.0
H27 H 0.12322 0.19194 0.30496 0.0
H28 H 0.10255 0.21993 0.26424 0.0
H29 H 0.08687 0.28303 0.32858 0.0
H30 H 0.04087 0.18483 0.39262 0.0
H31 H 0.06181 0.16376 0.43804 0.0
O32 O 0.14556 0.24591 0.39065 0.0
C33 C 0.12825 0.2916 0.44164 0.0
C34 C 0.09354 0.19384 0.44123 0.0
C35 C 0.0588 0.19378 0.40278 0.0
N36 N 0.09307 0.22865 0.40315 0.0
C37 C 0.10451 0.21737 0.42835 0.0
C38 C 0.07034 0.21731 0.39052 0.0
C39 C 0.07055 0.18198 0.42828 0.0
C40 C 0.12099 0.35517 0.36406 0.0
N41 N 0.13701 0.34679 0.38752 0.0
C42 C 0.10615 0.37935 0.36604 0.0
C43 C 0.10775 0.39495 0.39227 0.0
C44 C 0.12409 0.38624 0.41613 0.0
C45 C 0.13862 0.36193 0.41336 0.0
C46 C 0.22264 0.36624 0.39394 0.0
C47 C 0.20525 0.31797 0.41987 0.0
C48 C 0.19846 0.35378 0.38474 0.0
N49 N 0.19001 0.33001 0.39778 0.0
C50 C 0.22954 0.32985 0.42966 0.0
C51 C 0.23823 0.35416 0.41657 0.0
C52 C 0.1702 0.25315 0.38642 0.0
C53 C 0.09316 0.25332 0.29391 0.0
C54 C 0.11628 0.22223 0.33933 0.0
C55 C 0.11515 0.21193 0.30995 0.0
C56 C 0.10352 0.22764 0.28712 0.0
N57 N 0.10608 0.24745 0.34582 0.0
C58 C 0.09463 0.26295 0.32355 0.0
Co59 Co 0.68745 0.15391 0.38342 0.0
Co60 Co 0.7406 0.108 0.38696 0.0
O61 O 0.70627 0.12087 0.37008 0.0
C62 C 0.69658 0.1615 0.31804 0.0
O63 O 0.72154 0.15321 0.32323 0.0
C64 C 0.70475 0.0596 0.39507 0.0
O65 O 0.68656 0.07523 0.40815 0.0
O66 O 0.7262 0.11167 0.4286 0.0
O67 O 0.69496 0.14504 0.42711 0.0
H68 H 0.8195 0.10967 0.45916 0.0
H69 H 0.6598 0.11523 0.34215 0.0
O70 O 0.67972 0.1634 0.3399 0.0
H71 H 0.60196 0.11937 0.43311 0.0
H72 H 0.61249 0.22361 0.37918 0.0
H73 H 0.69805 0.19665 0.4292 0.0
H74 H 0.64372 0.14708 0.42955 0.0
H75 H 0.63639 0.1816 0.36405 0.0
O76 O 0.72694 0.0697 0.38525 0.0
H77 H 0.77682 0.12644 0.43645 0.0
H78 H 0.7768 0.06057 0.3743 0.0
H79 H 0.67474 0.23873 0.4452 0.0
H80 H 0.61808 0.08732 0.34467 0.0
H81 H 0.63164 0.25245 0.4201 0.0
H82 H 0.58889 0.08925 0.39044 0.0
O83 O 0.72157 0.17577 0.38138 0.0
H84 H 0.7378 0.07711 0.2788 0.0
H85 H 0.79159 0.12569 0.35588 0.0
H86 H 0.80971 0.12124 0.30417 0.0
H87 H 0.78284 0.09662 0.26527 0.0
H88 H 0.7201 0.08268 0.33058 0.0
H89 H 0.81937 0.04298 0.39648 0.0
H90 H 0.84105 0.06764 0.43917 0.0
O91 O 0.75527 0.14581 0.3889 0.0
C92 C 0.70939 0.12765 0.44149 0.0
C93 C 0.81031 0.09881 0.44049 0.0
C94 C 0.81022 0.06136 0.40533 0.0
N95 N 0.77449 0.09466 0.40389 0.0
C96 C 0.7862 0.10826 0.42747 0.0
C97 C 0.7861 0.0714 0.39289 0.0
C98 C 0.82238 0.07521 0.42928 0.0
C99 C 0.64706 0.11635 0.36203 0.0
N100 N 0.6541 0.13287 0.3856 0.0
C101 C 0.62353 0.10043 0.36338 0.0
C102 C 0.60717 0.10149 0.38908 0.0
C103 C 0.6145 0.11838 0.41304 0.0
C104 C 0.6382 0.13398 0.41091 0.0
C105 C 0.63122 0.21781 0.39034 0.0
C106 C 0.67918 0.20239 0.41836 0.0
C107 C 0.64485 0.19408 0.38184 0.0
N108 N 0.66844 0.18658 0.39593 0.0
C109 C 0.66613 0.22628 0.42743 0.0
C110 C 0.64197 0.23398 0.41331 0.0
C111 C 0.74661 0.17006 0.38538 0.0
C112 C 0.74975 0.08779 0.29558 0.0
C113 C 0.77962 0.11523 0.339 0.0
C114 C 0.79006 0.11264 0.30979 0.0
C115 C 0.775 0.09878 0.28799 0.0
N116 N 0.75484 0.10438 0.34627 0.0
C117 C 0.73987 0.09093 0.32496 0.0
Co118 Co 0.84628 0.68686 0.38562 0.0
Co119 Co 0.89533 0.7373 0.38773 0.0
O120 O 0.8804 0.70344 0.37158 0.0
C121 C 0.83832 0.69485 0.31999 0.0
O122 O 0.84905 0.71909 0.32368 0.0
C123 C 0.94231 0.69933 0.39518 0.0
O124 O 0.92591 0.67963 0.40354 0.0
O125 O 0.89136 0.72354 0.4296 0.0
O126 O 0.85598 0.69458 0.42897 0.0
H127 H 0.90033 0.81525 0.46099 0.0
H128 H 0.88254 0.6561 0.34441 0.0
O129 O 0.8358 0.67887 0.34255 0.0
H130 H 0.87614 0.60033 0.43679 0.0
H131 H 0.77248 0.61577 0.38426 0.0
H132 H 0.80456 0.70087 0.43146 0.0
H133 H 0.85116 0.64372 0.43277 0.0
H134 H 0.81565 0.63694 0.36809 0.0
O135 O 0.93303 0.72225 0.38662 0.0
H136 H 0.88075 0.77363 0.43868 0.0
H137 H 0.94326 0.77211 0.37242 0.0
H138 H 0.76142 0.68024 0.44858 0.0
H139 H 0.90767 0.61271 0.34736 0.0
H140 H 0.74511 0.6374 0.42488 0.0
H141 H 0.9046 0.58454 0.39384 0.0
O142 O 0.82632 0.72218 0.38292 0.0
H143 H 0.92299 0.72981 0.27883 0.0
H144 H 0.88032 0.7887 0.35558 0.0
H145 H 0.88398 0.80491 0.30302 0.0
H146 H 0.90548 0.77537 0.26422 0.0
H147 H 0.91864 0.7143 0.33165 0.0
H148 H 0.96355 0.8137 0.39402 0.0
H149 H 0.94202 0.83559 0.43861 0.0
O150 O 0.85842 0.75394 0.38968 0.0
C151 C 0.87446 0.70794 0.44292 0.0
C152 C 0.90981 0.806 0.44145 0.0
C153 C 0.94526 0.80516 0.40384 0.0
N154 N 0.91055 0.77072 0.40394 0.0
C155 C 0.89877 0.78247 0.42867 0.0
C156 C 0.93363 0.78165 0.39165 0.0
C157 C 0.9332 0.8174 0.42889 0.0
C158 C 0.88093 0.64384 0.3646 0.0
N159 N 0.86532 0.65237 0.38832 0.0
C160 C 0.89528 0.61934 0.36619 0.0
C161 C 0.89357 0.60356 0.3923 0.0
C162 C 0.87762 0.61242 0.41641 0.0
C163 C 0.86359 0.63704 0.41403 0.0
C164 C 0.77939 0.63441 0.3948 0.0
C165 C 0.79768 0.68212 0.42121 0.0
C166 C 0.80378 0.64652 0.38569 0.0
N167 N 0.81267 0.67002 0.39896 0.0
C168 C 0.7732 0.67058 0.43093 0.0
C169 C 0.76405 0.64656 0.4176 0.0
C170 C 0.83364 0.74687 0.3865 0.0
C171 C 0.91365 0.74289 0.29555 0.0
C172 C 0.88958 0.77568 0.33882 0.0
C173 C 0.89169 0.78501 0.3091 0.0
C174 C 0.90377 0.76844 0.28735 0.0
N175 N 0.8993 0.75059 0.34668 0.0
C176 C 0.91124 0.73427 0.3255 0.0
Co177 Co 0.31239 0.84562 0.38136 0.0
Co178 Co 0.26244 0.89468 0.38652 0.0
O179 O 0.29549 0.87982 0.36858 0.0
C180 C 0.30332 0.83913 0.31581 0.0
O181 O 0.27867 0.84839 0.3208 0.0
C182 C 0.30025 0.94197 0.3929 0.0
O183 O 0.31796 0.92613 0.40649 0.0
O184 O 0.27801 0.89081 0.42771 0.0
O185 O 0.30518 0.85414 0.42514 0.0
H186 H 0.18679 0.89912 0.46277 0.0
H187 H 0.34216 0.8835 0.341 0.0
O188 O 0.31988 0.83637 0.33781 0.0
H189 H 0.39962 0.87451 0.43181 0.0
H190 H 0.38396 0.77243 0.37697 0.0
H191 H 0.29894 0.80255 0.42587 0.0
H192 H 0.35648 0.84913 0.42759 0.0
H193 H 0.36218 0.81564 0.36206 0.0
O194 O 0.27778 0.93228 0.38338 0.0
H195 H 0.2278 0.87981 0.43883 0.0
H196 H 0.22766 0.9431 0.37344 0.0
H197 H 0.32017 0.75934 0.4417 0.0
H198 H 0.38529 0.90909 0.34415 0.0
H199 H 0.363 0.74403 0.41718 0.0
H200 H 0.41431 0.90473 0.38985 0.0
O201 O 0.27701 0.82579 0.37882 0.0
H202 H 0.26389 0.92295 0.27742 0.0
H203 H 0.20961 0.87933 0.35764 0.0
H204 H 0.19045 0.88337 0.30639 0.0
H205 H 0.21761 0.90545 0.26586 0.0
H206 H 0.28255 0.91783 0.32884 0.0
H207 H 0.18672 0.96318 0.39676 0.0
H208 H 0.16594 0.94108 0.44168 0.0
O209 O 0.24591 0.85762 0.38986 0.0
C210 C 0.2929 0.87271 0.44012 0.0
C211 C 0.19557 0.90886 0.44311 0.0
C212 C 0.19553 0.94481 0.40606 0.0
N213 N 0.22986 0.91005 0.40448 0.0
C214 C 0.21874 0.89798 0.4294 0.0
C215 C 0.21871 0.93333 0.39295 0.0
C216 C 0.18389 0.93241 0.43128 0.0
C217 C 0.35479 0.88133 0.36085 0.0
N218 N 0.34685 0.86477 0.38404 0.0
C219 C 0.37914 0.89594 0.36255 0.0
C220 C 0.39539 0.89352 0.38822 0.0
C221 C 0.38716 0.87658 0.41178 0.0
C222 C 0.36266 0.86231 0.4093 0.0
C223 C 0.36535 0.77892 0.38788 0.0
C224 C 0.31768 0.7961 0.41524 0.0
C225 C 0.3529 0.80334 0.3795 0.0
N226 N 0.3295 0.81174 0.39334 0.0
C227 C 0.32955 0.77158 0.42423 0.0
C228 C 0.35358 0.76299 0.41045 0.0
C229 C 0.25266 0.83296 0.3849 0.0
C230 C 0.25184 0.91335 0.29491 0.0
C231 C 0.22168 0.88867 0.34009 0.0
C232 C 0.21065 0.89105 0.31113 0.0
C233 C 0.22588 0.90349 0.28842 0.0
N234 N 0.24717 0.89834 0.34627 0.0
C235 C 0.26225 0.91048 0.32409 0.0
Co236 Co 0.15752 0.68587 0.6308 0.0
Co237 Co 0.10781 0.73538 0.62982 0.0
O238 O 0.12362 0.70194 0.64578 0.0
C239 C 0.16628 0.69273 0.69637 0.0
O240 O 0.1561 0.71725 0.6931 0.0
C241 C 0.06032 0.69797 0.62293 0.0
O242 O 0.07572 0.68111 0.6075 0.0
O243 O 0.11025 0.72105 0.58804 0.0
O244 O 0.14735 0.69436 0.58777 0.0
H245 H 0.0991 0.81253 0.5559 0.0
H246 H 0.12159 0.65419 0.67156 0.0
O247 O 0.16842 0.67705 0.67354 0.0
H248 H 0.12765 0.60021 0.57788 0.0
H249 H 0.23179 0.61534 0.62947 0.0
H250 H 0.19869 0.70116 0.58482 0.0
H251 H 0.15261 0.64356 0.58276 0.0
H252 H 0.18865 0.63584 0.6467 0.0
O253 O 0.07043 0.71963 0.63408 0.0
H254 H 0.11999 0.77135 0.57776 0.0
H255 H 0.05979 0.76941 0.6466 0.0
H256 H 0.24179 0.68122 0.56666 0.0
H257 H 0.09646 0.61083 0.66772 0.0
H258 H 0.25861 0.63802 0.58907 0.0
H259 H 0.09936 0.58356 0.62059 0.0
O260 O 0.17705 0.72136 0.63399 0.0
H261 H 0.08526 0.73001 0.74037 0.0
H262 H 0.12373 0.78755 0.65966 0.0
H263 H 0.12223 0.80495 0.71187 0.0
H264 H 0.10285 0.7761 0.75266 0.0
H265 H 0.08743 0.7133 0.68786 0.0
H266 H 0.03816 0.8105 0.62541 0.0
H267 H 0.0579 0.83241 0.57981 0.0
O268 O 0.14456 0.7524 0.62534 0.0
C269 C 0.1279 0.70665 0.57426 0.0
C270 C 0.09041 0.80328 0.5759 0.0
C271 C 0.05621 0.80214 0.61491 0.0
N272 N 0.09144 0.76829 0.61375 0.0
C273 C 0.1022 0.78002 0.58844 0.0
C274 C 0.06857 0.77889 0.62682 0.0
C275 C 0.06728 0.8144 0.5893 0.0
C276 C 0.12313 0.64232 0.65107 0.0
N277 N 0.13866 0.65131 0.62749 0.0
C278 C 0.10878 0.61784 0.64899 0.0
C279 C 0.11039 0.60256 0.62252 0.0
C280 C 0.12624 0.61189 0.59855 0.0
C281 C 0.14029 0.63648 0.60142 0.0
C282 C 0.22465 0.63414 0.61948 0.0
C283 C 0.20579 0.68225 0.59451 0.0
C284 C 0.20028 0.64588 0.6292 0.0
N285 N 0.19111 0.66957 0.61663 0.0
C286 C 0.23024 0.6711 0.58421 0.0
C287 C 0.23968 0.64688 0.59681 0.0
C288 C 0.16944 0.74579 0.62908 0.0
C289 C 0.09368 0.7428 0.72278 0.0
C290 C 0.11539 0.77483 0.67729 0.0
C291 C 0.11451 0.78483 0.7068 0.0
C292 C 0.1036 0.76864 0.72967 0.0
N293 N 0.10564 0.74944 0.67071 0.0
C294 C 0.09486 0.73349 0.69299 0.0
Co295 Co 0.31574 0.15516 0.63035 0.0
Co296 Co 0.26266 0.10909 0.62773 0.0
O297 O 0.29707 0.12219 0.64426 0.0
C298 C 0.30721 0.16343 0.69565 0.0
O299 O 0.28218 0.1552 0.6908 0.0
C300 C 0.29779 0.05992 0.62006 0.0
O301 O 0.3156 0.07461 0.60509 0.0
O302 O 0.27703 0.11206 0.58601 0.0
O303 O 0.3078 0.14591 0.58688 0.0
H304 H 0.1837 0.10969 0.55559 0.0
H305 H 0.34381 0.11684 0.67166 0.0
O306 O 0.32392 0.16503 0.67363 0.0
H307 H 0.40091 0.12057 0.58009 0.0
H308 H 0.39068 0.22503 0.63287 0.0
H309 H 0.30463 0.1975 0.58424 0.0
H310 H 0.35904 0.14808 0.58378 0.0
H311 H 0.36697 0.18311 0.64877 0.0
O312 O 0.27614 0.07076 0.63034 0.0
H313 H 0.22645 0.12675 0.57789 0.0
H314 H 0.22628 0.06199 0.6415 0.0
H315 H 0.32774 0.23947 0.56748 0.0
H316 H 0.38563 0.08914 0.66902 0.0
H317 H 0.37109 0.25348 0.59188 0.0
H318 H 0.41447 0.09087 0.62295 0.0
O319 O 0.28163 0.17701 0.6326 0.0
H320 H 0.26551 0.08002 0.73652 0.0
H321 H 0.21164 0.12719 0.65845 0.0
H322 H 0.19345 0.1234 0.7102 0.0
H323 H 0.22035 0.09945 0.7496 0.0
H324 H 0.28331 0.08504 0.68471 0.0
H325 H 0.18364 0.04412 0.61975 0.0
H326 H 0.16202 0.06808 0.57654 0.0
O327 O 0.24806 0.14689 0.62504 0.0
C328 C 0.29357 0.12815 0.57281 0.0
C329 C 0.19287 0.09913 0.57449 0.0
C330 C 0.19285 0.06231 0.61048 0.0
N331 N 0.22871 0.09553 0.61114 0.0
C332 C 0.21702 0.10875 0.58727 0.0
C333 C 0.21702 0.07251 0.62267 0.0
C334 C 0.18073 0.07577 0.58623 0.0
C335 C 0.35637 0.11785 0.65164 0.0
N336 N 0.34909 0.13416 0.62798 0.0
C337 C 0.37998 0.10206 0.65023 0.0
C338 C 0.39613 0.10302 0.62436 0.0
C339 C 0.38853 0.11966 0.6003 0.0
C340 C 0.36477 0.13515 0.60249 0.0
C341 C 0.37184 0.2191 0.62202 0.0
C342 C 0.3236 0.20336 0.59479 0.0
C343 C 0.35832 0.19542 0.63095 0.0
N344 N 0.33459 0.18776 0.61724 0.0
C345 C 0.33654 0.22719 0.58528 0.0
C346 C 0.36084 0.23505 0.59901 0.0
C347 C 0.25662 0.17119 0.62852 0.0
C348 C 0.25355 0.0904 0.71952 0.0
C349 C 0.22363 0.11705 0.67554 0.0
C350 C 0.21315 0.11483 0.70478 0.0
C351 C 0.22823 0.10135 0.72685 0.0
N352 N 0.24846 0.10621 0.66851 0.0
C353 C 0.26348 0.09322 0.69012 0.0
Co354 Co 0.84742 0.31214 0.63329 0.0
Co355 Co 0.8921 0.25806 0.62841 0.0
O356 O 0.88027 0.29256 0.64584 0.0
C357 C 0.84046 0.30343 0.69877 0.0
O358 O 0.84824 0.27829 0.69373 0.0
C359 C 0.94139 0.29277 0.62051 0.0
O360 O 0.92599 0.31173 0.60848 0.0
O361 O 0.88837 0.27287 0.58683 0.0
O362 O 0.85531 0.30435 0.58954 0.0
H363 H 0.88717 0.17949 0.55598 0.0
H364 H 0.88758 0.33875 0.67361 0.0
O365 O 0.83881 0.32022 0.67686 0.0
H366 H 0.88324 0.39675 0.58279 0.0
H367 H 0.77996 0.38912 0.63825 0.0
H368 H 0.80332 0.30221 0.58893 0.0
H369 H 0.8544 0.35585 0.58709 0.0
H370 H 0.82152 0.36412 0.65276 0.0
O371 O 0.93082 0.27059 0.62973 0.0
H372 H 0.87209 0.22268 0.57892 0.0
H373 H 0.93857 0.2204 0.64024 0.0
H374 H 0.76168 0.32661 0.57355 0.0
H375 H 0.91664 0.37963 0.6704 0.0
H376 H 0.74978 0.37041 0.59828 0.0
H377 H 0.91464 0.40889 0.62468 0.0
O378 O 0.82476 0.27854 0.63591 0.0
H379 H 0.92335 0.25979 0.73648 0.0
H380 H 0.87349 0.20729 0.65932 0.0
H381 H 0.87749 0.18901 0.71101 0.0
H382 H 0.90269 0.21527 0.74998 0.0
H383 H 0.91832 0.27761 0.68468 0.0
H384 H 0.9545 0.1773 0.61781 0.0
H385 H 0.92866 0.1565 0.57543 0.0
O386 O 0.85389 0.24444 0.62686 0.0
C387 C 0.87211 0.2898 0.57449 0.0
C388 C 0.89855 0.18829 0.5745 0.0
C389 C 0.93635 0.18708 0.60918 0.0
N390 N 0.9043 0.22392 0.61106 0.0
C391 C 0.89006 0.2127 0.58764 0.0
C392 C 0.92726 0.21152 0.62176 0.0
C393 C 0.92184 0.17542 0.58541 0.0
C394 C 0.88643 0.35152 0.65377 0.0
N395 N 0.86925 0.34497 0.63061 0.0
C396 C 0.903 0.37458 0.65203 0.0
C397 C 0.9019 0.39098 0.62635 0.0
C398 C 0.8843 0.38417 0.60283 0.0
C399 C 0.86806 0.36094 0.60535 0.0
C400 C 0.78497 0.3701 0.62724 0.0
C401 C 0.79837 0.32136 0.59963 0.0
C402 C 0.80845 0.35585 0.63538 0.0
N403 N 0.81498 0.33191 0.62144 0.0
C404 C 0.77472 0.33504 0.5909 0.0
C405 C 0.76804 0.35959 0.60481 0.0
C406 C 0.82989 0.25347 0.63125 0.0
C407 C 0.9124 0.24812 0.71967 0.0
C408 C 0.88427 0.21896 0.6762 0.0
C409 C 0.88658 0.20844 0.7054 0.0
C410 C 0.90077 0.22315 0.72724 0.0
N411 N 0.89572 0.24347 0.66895 0.0
C412 C 0.90957 0.25806 0.69028 0.0
Co413 Co 0.69035 0.84617 0.63132 0.0
Co414 Co 0.74158 0.89421 0.62646 0.0
O415 O 0.70772 0.88034 0.64389 0.0
C416 C 0.6982 0.83964 0.69733 0.0
O417 O 0.72255 0.85013 0.69369 0.0
C418 C 0.70435 0.94197 0.61931 0.0
O419 O 0.684 0.92582 0.61236 0.0
O420 O 0.72696 0.88963 0.58492 0.0
O421 O 0.69796 0.85438 0.58763 0.0
H422 H 0.81867 0.89542 0.55183 0.0
H423 H 0.66073 0.88425 0.67146 0.0
O424 O 0.68233 0.83698 0.67472 0.0
H425 H 0.60389 0.87624 0.58006 0.0
H426 H 0.6174 0.77423 0.6352 0.0
H427 H 0.70364 0.80251 0.58751 0.0
H428 H 0.64675 0.85046 0.58455 0.0
H429 H 0.63959 0.81731 0.64982 0.0
O430 O 0.72739 0.93231 0.62694 0.0
H431 H 0.7767 0.87763 0.5752 0.0
H432 H 0.77789 0.9415 0.63983 0.0
H433 H 0.68198 0.75943 0.57192 0.0
H434 H 0.61784 0.9102 0.66808 0.0
H435 H 0.63855 0.74503 0.59585 0.0
H436 H 0.58914 0.90634 0.62207 0.0
O437 O 0.72534 0.82565 0.63445 0.0
H438 H 0.73662 0.92442 0.73469 0.0
H439 H 0.79321 0.87872 0.65797 0.0
H440 H 0.81039 0.88316 0.71005 0.0
H441 H 0.78203 0.9062 0.74884 0.0
H442 H 0.72011 0.91924 0.68236 0.0
H443 H 0.81987 0.95999 0.61717 0.0
H444 H 0.84058 0.93687 0.57288 0.0
O445 O 0.7574 0.85689 0.62508 0.0
C446 C 0.71125 0.87219 0.57259 0.0
C447 C 0.80992 0.90561 0.57121 0.0
C448 C 0.81062 0.94182 0.60791 0.0
N449 N 0.77506 0.90826 0.60913 0.0
C450 C 0.78618 0.89561 0.58457 0.0
C451 C 0.78687 0.93121 0.62069 0.0
C452 C 0.8222 0.92886 0.58303 0.0
C453 C 0.64823 0.8823 0.65148 0.0
N454 N 0.65621 0.86581 0.62826 0.0
C455 C 0.62402 0.89711 0.64965 0.0
C456 C 0.60795 0.89497 0.62381 0.0
C457 C 0.61622 0.8781 0.60022 0.0
C458 C 0.64057 0.86362 0.60283 0.0
C459 C 0.63628 0.78031 0.62454 0.0
C460 C 0.68465 0.79646 0.59788 0.0
C461 C 0.64897 0.80465 0.63277 0.0
N462 N 0.67276 0.81251 0.61934 0.0
C463 C 0.67252 0.77201 0.58902 0.0
C464 C 0.64816 0.76394 0.60247 0.0
C465 C 0.75003 0.83238 0.62961 0.0
C466 C 0.7492 0.9144 0.71798 0.0
C467 C 0.78068 0.88862 0.67472 0.0
C468 C 0.79057 0.89118 0.70417 0.0
C469 C 0.77466 0.90413 0.72591 0.0
N470 N 0.75569 0.89874 0.66711 0.0
C471 C 0.74 0.91152 0.68829 0.0
Co472 Co 0.84557 0.68703 0.63217 0.0
Co473 Co 0.89514 0.73682 0.63026 0.0
O474 O 0.87956 0.70341 0.64659 0.0
C475 C 0.83721 0.69538 0.69747 0.0
O476 O 0.84661 0.72005 0.6929 0.0
C477 C 0.94226 0.69904 0.62272 0.0
O478 O 0.92649 0.68209 0.60789 0.0
O479 O 0.89188 0.72255 0.58851 0.0
O480 O 0.85553 0.69482 0.58887 0.0
H481 H 0.90218 0.81424 0.55648 0.0
H482 H 0.88179 0.65615 0.67335 0.0
O483 O 0.83497 0.67897 0.67526 0.0
H484 H 0.8753 0.60055 0.58088 0.0
H485 H 0.77137 0.61635 0.63293 0.0
H486 H 0.8043 0.70121 0.58589 0.0
H487 H 0.85027 0.6439 0.58504 0.0
H488 H 0.8144 0.63743 0.64969 0.0
O489 O 0.93255 0.721 0.63356 0.0
H490 H 0.88176 0.773 0.57877 0.0
H491 H 0.94369 0.77068 0.64567 0.0
H492 H 0.76128 0.68071 0.56825 0.0
H493 H 0.90701 0.61281 0.67024 0.0
H494 H 0.74456 0.63797 0.59184 0.0
H495 H 0.90389 0.58473 0.62371 0.0
O496 O 0.82592 0.7225 0.63466 0.0
H497 H 0.92184 0.73204 0.7397 0.0
H498 H 0.8798 0.7889 0.66067 0.0
H499 H 0.88348 0.80666 0.71259 0.0
H500 H 0.90481 0.77821 0.7525 0.0
H501 H 0.91709 0.7148 0.68762 0.0
H502 H 0.96487 0.81183 0.62403 0.0
H503 H 0.94402 0.83396 0.57918 0.0
O504 O 0.85833 0.75381 0.62676 0.0
C505 C 0.87452 0.70758 0.57504 0.0
C506 C 0.91136 0.80489 0.57614 0.0
C507 C 0.94654 0.80353 0.61405 0.0
N508 N 0.91122 0.76973 0.61381 0.0
C509 C 0.89984 0.78159 0.58892 0.0
C510 C 0.93444 0.78025 0.62622 0.0
C511 C 0.93485 0.81592 0.58887 0.0
C512 C 0.88016 0.64392 0.65314 0.0
N513 N 0.86447 0.65246 0.62948 0.0
C514 C 0.89456 0.61945 0.65146 0.0
C515 C 0.89282 0.60372 0.62533 0.0
C516 C 0.8768 0.61259 0.60128 0.0
C517 C 0.86272 0.63718 0.60375 0.0
C518 C 0.77847 0.63494 0.62243 0.0
C519 C 0.79724 0.68251 0.59611 0.0
C520 C 0.80279 0.64699 0.63186 0.0
N521 N 0.81194 0.67039 0.61858 0.0
C522 C 0.77283 0.67104 0.58609 0.0
C523 C 0.76344 0.64708 0.59936 0.0
C524 C 0.83346 0.74702 0.63022 0.0
C525 C 0.91259 0.74466 0.72248 0.0
C526 C 0.88879 0.77627 0.67796 0.0
C527 C 0.89097 0.7865 0.7073 0.0
C528 C 0.90299 0.77055 0.72966 0.0
N529 N 0.89826 0.75085 0.67109 0.0
C530 C 0.90992 0.73504 0.69294 0.0
Co531 Co 0.31198 0.84536 0.63133 0.0
Co532 Co 0.26103 0.89335 0.62604 0.0
O533 O 0.2944 0.87923 0.64402 0.0
C534 C 0.30312 0.83884 0.69691 0.0
O535 O 0.27829 0.84763 0.69196 0.0
C536 C 0.29734 0.94193 0.61936 0.0
O537 O 0.31495 0.92723 0.60413 0.0
O538 O 0.27678 0.88987 0.58489 0.0
O539 O 0.30461 0.8537 0.58753 0.0
H540 H 0.18543 0.89625 0.54964 0.0
H541 H 0.341 0.88393 0.67151 0.0
O542 O 0.31969 0.83633 0.67489 0.0
H543 H 0.39875 0.87561 0.58084 0.0
H544 H 0.38493 0.77353 0.63588 0.0
H545 H 0.29934 0.80197 0.58696 0.0
H546 H 0.356 0.84958 0.58508 0.0
H547 H 0.36235 0.81637 0.65067 0.0
O548 O 0.27551 0.93127 0.62938 0.0
H549 H 0.2268 0.87779 0.57366 0.0
H550 H 0.2252 0.941 0.63908 0.0
H551 H 0.32135 0.75912 0.57125 0.0
H552 H 0.38373 0.91019 0.66835 0.0
H553 H 0.36448 0.74467 0.59578 0.0
H554 H 0.41291 0.90615 0.62273 0.0
O555 O 0.27701 0.82485 0.63402 0.0
H556 H 0.26162 0.92153 0.73515 0.0
H557 H 0.20835 0.87706 0.65469 0.0
H558 H 0.18886 0.88094 0.70581 0.0
H559 H 0.21548 0.90349 0.74644 0.0
H560 H 0.28067 0.91645 0.68391 0.0
H561 H 0.1839 0.96024 0.61568 0.0
H562 H 0.16366 0.93775 0.5707 0.0
O563 O 0.24528 0.85595 0.62264 0.0
C564 C 0.29207 0.87208 0.57252 0.0
C565 C 0.19397 0.90616 0.56932 0.0
C566 C 0.19311 0.94207 0.60638 0.0
N567 N 0.22816 0.90804 0.60802 0.0
C568 C 0.21734 0.89575 0.58307 0.0
C569 C 0.2165 0.93108 0.61954 0.0
C570 C 0.18178 0.92945 0.58114 0.0
C571 C 0.35369 0.88193 0.65168 0.0
N572 N 0.34606 0.86516 0.62856 0.0
C573 C 0.37782 0.8969 0.64998 0.0
C574 C 0.39416 0.89465 0.62436 0.0
C575 C 0.38622 0.87754 0.60084 0.0
C576 C 0.36195 0.8629 0.60333 0.0
C577 C 0.36619 0.77966 0.62496 0.0
C578 C 0.31819 0.79589 0.59758 0.0
C579 C 0.3533 0.80386 0.63327 0.0
N580 N 0.32973 0.81179 0.61942 0.0
C581 C 0.33052 0.77157 0.58867 0.0
C582 C 0.3547 0.76347 0.60246 0.0
C583 C 0.25252 0.83147 0.62787 0.0
C584 C 0.24978 0.91173 0.71762 0.0
C585 C 0.2202 0.88658 0.6723 0.0
C586 C 0.20899 0.88887 0.70118 0.0
C587 C 0.22392 0.90157 0.72395 0.0
N588 N 0.24559 0.89661 0.66625 0.0
C589 C 0.26042 0.9089 0.68853 0.0
Co590 Co 0.15448 0.31335 0.63188 0.0
Co591 Co 0.10949 0.25938 0.62849 0.0
O592 O 0.12177 0.29395 0.6454 0.0
C593 C 0.16235 0.30516 0.6975 0.0
O594 O 0.15457 0.27996 0.6928 0.0
C595 C 0.05995 0.29379 0.62099 0.0
O596 O 0.07506 0.31263 0.60826 0.0
O597 O 0.11239 0.27407 0.58689 0.0
O598 O 0.14579 0.30533 0.58821 0.0
H599 H 0.11238 0.18096 0.55574 0.0
H600 H 0.11521 0.3405 0.67284 0.0
O601 O 0.16383 0.32173 0.67533 0.0
H602 H 0.11816 0.39763 0.58127 0.0
H603 H 0.22264 0.38981 0.63523 0.0
H604 H 0.19748 0.30323 0.58625 0.0
H605 H 0.14679 0.35655 0.5853 0.0
H606 H 0.18111 0.36517 0.65065 0.0
O607 O 0.07081 0.27193 0.63068 0.0
H608 H 0.12823 0.22399 0.57843 0.0
H609 H 0.06326 0.22173 0.64173 0.0
H610 H 0.23908 0.32728 0.56998 0.0
H611 H 0.08638 0.38153 0.66985 0.0
H612 H 0.25189 0.3709 0.59455 0.0
H613 H 0.0877 0.41036 0.62377 0.0
O614 O 0.17703 0.27968 0.63427 0.0
H615 H 0.08003 0.26121 0.73717 0.0
H616 H 0.12874 0.20873 0.65912 0.0
H617 H 0.12556 0.19049 0.7109 0.0
H618 H 0.10092 0.21673 0.75031 0.0
H619 H 0.0843 0.27903 0.68527 0.0
H620 H 0.0466 0.17877 0.61959 0.0
H621 H 0.07127 0.15806 0.57634 0.0
O622 O 0.14759 0.24567 0.62597 0.0
C623 C 0.12833 0.2909 0.57391 0.0
C624 C 0.10151 0.18972 0.57466 0.0
C625 C 0.06458 0.18852 0.61047 0.0
N626 N 0.09684 0.22523 0.61155 0.0
C627 C 0.11044 0.21404 0.58766 0.0
C628 C 0.07409 0.21287 0.62288 0.0
C629 C 0.07843 0.1769 0.5862 0.0
C630 C 0.11607 0.35309 0.65283 0.0
N631 N 0.13276 0.34623 0.62935 0.0
C632 C 0.09963 0.37623 0.65122 0.0
C633 C 0.10035 0.39238 0.62534 0.0
C634 C 0.11743 0.38525 0.60148 0.0
C635 C 0.13356 0.36194 0.60387 0.0
C636 C 0.21724 0.37086 0.6243 0.0
C637 C 0.20282 0.32231 0.59687 0.0
C638 C 0.19377 0.35681 0.63296 0.0
N639 N 0.18678 0.33292 0.61916 0.0
C640 C 0.22644 0.33578 0.58764 0.0
C641 C 0.23364 0.36024 0.60147 0.0
C642 C 0.1717 0.25462 0.62976 0.0
C643 C 0.09074 0.24955 0.72017 0.0
C644 C 0.11824 0.22041 0.6762 0.0
C645 C 0.11638 0.20991 0.70545 0.0
C646 C 0.1025 0.22461 0.72754 0.0
N647 N 0.10666 0.2449 0.66916 0.0
C648 C 0.09315 0.2595 0.69073 0.0
Co649 Co 0.68527 0.15434 0.63102 0.0
Co650 Co 0.73856 0.10834 0.62901 0.0
O651 O 0.70365 0.12105 0.64476 0.0
C652 C 0.69285 0.16204 0.69678 0.0
O653 O 0.71748 0.15228 0.69305 0.0
C654 C 0.70277 0.0597 0.62046 0.0
O655 O 0.68216 0.07541 0.61325 0.0
O656 O 0.72541 0.11253 0.58692 0.0
O657 O 0.69346 0.14526 0.58758 0.0
H658 H 0.81924 0.1111 0.5593 0.0
H659 H 0.65649 0.11631 0.67209 0.0
O660 O 0.67682 0.16416 0.67421 0.0
H661 H 0.60032 0.12021 0.57984 0.0
H662 H 0.61064 0.22448 0.63338 0.0
H663 H 0.69697 0.19697 0.58541 0.0
H664 H 0.64239 0.1474 0.58392 0.0
H665 H 0.63388 0.18223 0.64895 0.0
O666 O 0.72545 0.06983 0.62869 0.0
H667 H 0.77584 0.12735 0.58077 0.0
H668 H 0.77518 0.06147 0.64293 0.0
H669 H 0.6743 0.23925 0.56893 0.0
H670 H 0.61443 0.08897 0.66908 0.0
H671 H 0.63083 0.25326 0.59302 0.0
H672 H 0.58607 0.09078 0.62266 0.0
O673 O 0.71941 0.17622 0.63377 0.0
H674 H 0.73077 0.07772 0.73691 0.0
H675 H 0.78846 0.12546 0.66265 0.0
H676 H 0.80399 0.1214 0.71544 0.0
H677 H 0.77506 0.09737 0.75298 0.0
H678 H 0.7159 0.08248 0.68391 0.0
H679 H 0.81847 0.04441 0.62201 0.0
H680 H 0.84082 0.06932 0.57992 0.0
O681 O 0.75318 0.14606 0.62846 0.0
C682 C 0.70849 0.12812 0.57361 0.0
C683 C 0.80975 0.10012 0.57771 0.0
C684 C 0.80933 0.0627 0.61291 0.0
N685 N 0.77311 0.09551 0.61325 0.0
C686 C 0.78522 0.10927 0.59002 0.0
C687 C 0.78481 0.07246 0.62467 0.0
C688 C 0.82184 0.07667 0.58928 0.0
C689 C 0.64412 0.11738 0.65192 0.0
N690 N 0.65181 0.13351 0.62827 0.0
C691 C 0.62039 0.10177 0.6503 0.0
C692 C 0.6045 0.10277 0.62423 0.0
C693 C 0.6125 0.11926 0.60019 0.0
C694 C 0.63638 0.13456 0.6026 0.0
C695 C 0.62953 0.21856 0.62266 0.0
C696 C 0.67794 0.20283 0.59581 0.0
C697 C 0.6428 0.19469 0.63142 0.0
N698 N 0.66665 0.18708 0.61795 0.0
C699 C 0.66525 0.22683 0.58646 0.0
C700 C 0.64087 0.2347 0.60001 0.0
C701 C 0.74456 0.17036 0.63118 0.0
C702 C 0.74359 0.08817 0.72074 0.0
C703 C 0.77572 0.11504 0.67886 0.0
C704 C 0.78465 0.11274 0.70871 0.0
C705 C 0.76842 0.09924 0.72976 0.0
N706 N 0.75133 0.10413 0.67021 0.0
C707 C 0.73533 0.09081 0.69069 0.0
Co708 Co 0.84677 0.31339 0.38382 0.0
Co709 Co 0.89278 0.26048 0.38754 0.0
O710 O 0.8799 0.29481 0.37066 0.0
C711 C 0.83944 0.30559 0.31815 0.0
O712 O 0.84857 0.28076 0.32214 0.0
C713 C 0.94168 0.29596 0.39491 0.0
O714 O 0.92678 0.31376 0.40961 0.0
O715 O 0.88943 0.27495 0.42934 0.0
O716 O 0.85514 0.30515 0.42734 0.0
H717 H 0.89138 0.18137 0.4595 0.0
H718 H 0.88596 0.34151 0.34361 0.0
O719 O 0.83759 0.32184 0.34054 0.0
H720 H 0.88047 0.39844 0.43516 0.0
H721 H 0.77724 0.38857 0.38059 0.0
H722 H 0.80318 0.30164 0.42829 0.0
H723 H 0.85289 0.35669 0.43062 0.0
H724 H 0.81951 0.36505 0.36562 0.0
O725 O 0.93112 0.27401 0.38507 0.0
H726 H 0.87467 0.22426 0.43722 0.0
H727 H 0.93998 0.22416 0.3743 0.0
H728 H 0.76089 0.3246 0.4442 0.0
H729 H 0.91375 0.38325 0.34706 0.0
H730 H 0.74767 0.36839 0.42025 0.0
H731 H 0.91114 0.412 0.39313 0.0
O732 O 0.82504 0.27929 0.38076 0.0
H733 H 0.92022 0.26416 0.27824 0.0
H734 H 0.87521 0.2092 0.357 0.0
H735 H 0.87811 0.19144 0.305 0.0
H736 H 0.90081 0.21897 0.26521 0.0
H737 H 0.91653 0.28131 0.33045 0.0
H738 H 0.95753 0.1814 0.39606 0.0
H739 H 0.93311 0.15966 0.4389 0.0
O740 O 0.85492 0.24588 0.38998 0.0
C741 C 0.87256 0.29107 0.44206 0.0
C742 C 0.90215 0.19059 0.44077 0.0
C743 C 0.93929 0.19063 0.40519 0.0
N744 N 0.90619 0.22657 0.40433 0.0
C745 C 0.89274 0.21483 0.428 0.0
C746 C 0.92928 0.21487 0.393 0.0
C747 C 0.92558 0.17844 0.42922 0.0
C748 C 0.88458 0.35403 0.36364 0.0
N749 N 0.86777 0.34672 0.38685 0.0
C750 C 0.90042 0.37759 0.3655 0.0
C751 C 0.89897 0.39369 0.39137 0.0
C752 C 0.88179 0.38609 0.41497 0.0
C753 C 0.86628 0.36238 0.41232 0.0
C754 C 0.78282 0.36955 0.39126 0.0
C755 C 0.79767 0.3208 0.41796 0.0
C756 C 0.8067 0.35613 0.38285 0.0
N757 N 0.81391 0.33214 0.39629 0.0
C758 C 0.77365 0.33366 0.42698 0.0
C759 C 0.76624 0.35821 0.41351 0.0
C760 C 0.83072 0.25436 0.38554 0.0
C761 C 0.91037 0.25194 0.2954 0.0
C762 C 0.88502 0.22135 0.3398 0.0
C763 C 0.88667 0.21116 0.3104 0.0
C764 C 0.89943 0.2266 0.2881 0.0
N765 N 0.89583 0.24621 0.3468 0.0
C766 C 0.90834 0.26147 0.32504 0.0
Co767 Co 0.69037 0.84526 0.38161 0.0
Co768 Co 0.74103 0.89372 0.38628 0.0
O769 O 0.7076 0.8793 0.36875 0.0
C770 C 0.69927 0.83863 0.31609 0.0
O771 O 0.72399 0.84771 0.32106 0.0
C772 C 0.70412 0.94149 0.39411 0.0
O773 O 0.68642 0.92588 0.40806 0.0
O774 O 0.72599 0.88973 0.42769 0.0
O775 O 0.69779 0.85379 0.42533 0.0
H776 H 0.81766 0.89699 0.4614 0.0
H777 H 0.66092 0.88338 0.34128 0.0
O778 O 0.68269 0.83602 0.3381 0.0
H779 H 0.60358 0.87511 0.43228 0.0
H780 H 0.61797 0.7728 0.37754 0.0
H781 H 0.7034 0.80214 0.42619 0.0
H782 H 0.64645 0.84931 0.42798 0.0
H783 H 0.64021 0.81577 0.36249 0.0
O784 O 0.72612 0.93147 0.38375 0.0
H785 H 0.77615 0.87823 0.43797 0.0
H786 H 0.77621 0.94183 0.37295 0.0
H787 H 0.68173 0.75917 0.44216 0.0
H788 H 0.61806 0.90939 0.3445 0.0
H789 H 0.63868 0.74426 0.41777 0.0
H790 H 0.58911 0.90539 0.3903 0.0
O791 O 0.7255 0.82499 0.37901 0.0
H792 H 0.73839 0.92291 0.27752 0.0
H793 H 0.7933 0.87809 0.35634 0.0
H794 H 0.81183 0.88243 0.30482 0.0
H795 H 0.78435 0.90514 0.265 0.0
H796 H 0.72037 0.91749 0.32919 0.0
H797 H 0.81766 0.96136 0.39576 0.0
H798 H 0.83874 0.93883 0.44023 0.0
O799 O 0.75717 0.85653 0.38906 0.0
C800 C 0.71069 0.87202 0.4402 0.0
C801 C 0.80876 0.90692 0.44193 0.0
C802 C 0.80876 0.94304 0.40509 0.0
N803 N 0.77402 0.90865 0.40382 0.0
C804 C 0.7853 0.89635 0.42851 0.0
C805 C 0.78529 0.93188 0.39226 0.0
C806 C 0.82056 0.9304 0.43005 0.0
C807 C 0.64832 0.88138 0.36117 0.0
N808 N 0.65613 0.86477 0.38437 0.0
C809 C 0.62412 0.89622 0.36292 0.0
C810 C 0.6079 0.89399 0.38864 0.0
C811 C 0.61602 0.87702 0.4122 0.0
C812 C 0.64036 0.86251 0.40968 0.0
C813 C 0.63667 0.77912 0.3884 0.0
C814 C 0.68458 0.79586 0.41562 0.0
C815 C 0.64938 0.8034 0.37994 0.0
N816 N 0.6729 0.81158 0.39371 0.0
C817 C 0.67245 0.77147 0.42469 0.0
C818 C 0.64831 0.76311 0.41097 0.0
C819 C 0.75003 0.83192 0.38451 0.0
C820 C 0.75059 0.91305 0.2947 0.0
C821 C 0.7811 0.88768 0.3391 0.0
C822 C 0.79176 0.89024 0.30998 0.0
C823 C 0.77636 0.90303 0.28767 0.0
N824 N 0.75579 0.89753 0.34581 0.0
C825 C 0.74053 0.91 0.32402 0.0
Co826 Co 0.15495 0.68878 0.38413 0.0
Co827 Co 0.10629 0.73951 0.38834 0.0
O828 O 0.12085 0.70599 0.371 0.0
C829 C 0.16227 0.69892 0.31892 0.0
O830 O 0.1526 0.72335 0.32421 0.0
C831 C 0.05961 0.70107 0.39533 0.0
O832 O 0.07635 0.68119 0.40218 0.0
O833 O 0.1109 0.7249 0.42969 0.0
O834 O 0.14562 0.69521 0.42783 0.0
H835 H 0.1029 0.81599 0.46358 0.0
H836 H 0.11813 0.65951 0.34213 0.0
O837 O 0.16494 0.68205 0.34064 0.0
H838 H 0.12494 0.60087 0.43226 0.0
H839 H 0.22825 0.61734 0.37936 0.0
H840 H 0.19698 0.70097 0.43026 0.0
H841 H 0.15017 0.64423 0.42963 0.0
H842 H 0.18529 0.63945 0.36413 0.0
O843 O 0.06855 0.72442 0.38773 0.0
H844 H 0.12197 0.77482 0.43976 0.0
H845 H 0.05806 0.77456 0.37515 0.0
H846 H 0.23995 0.67941 0.4464 0.0
H847 H 0.09275 0.6162 0.34369 0.0
H848 H 0.25583 0.63729 0.42086 0.0
H849 H 0.09601 0.58658 0.38904 0.0
O850 O 0.17513 0.72406 0.38265 0.0
H851 H 0.07529 0.73503 0.28034 0.0
H852 H 0.12111 0.79144 0.35716 0.0
H853 H 0.11581 0.80912 0.30537 0.0
H854 H 0.09261 0.78089 0.26657 0.0
H855 H 0.08154 0.71792 0.33231 0.0
H856 H 0.03824 0.81567 0.39831 0.0
H857 H 0.06073 0.83671 0.44282 0.0
O858 O 0.14333 0.75604 0.3899 0.0
C859 C 0.12752 0.70861 0.44234 0.0
C860 C 0.093 0.80712 0.44408 0.0
C861 C 0.05673 0.80696 0.40743 0.0
N862 N 0.09144 0.77258 0.40575 0.0
C863 C 0.10375 0.78386 0.43044 0.0
C864 C 0.0681 0.78372 0.39436 0.0
C865 C 0.06934 0.81872 0.43243 0.0
C866 C 0.11984 0.64662 0.36182 0.0
N867 N 0.13571 0.65433 0.38569 0.0
C868 C 0.10534 0.62217 0.36263 0.0
C869 C 0.10715 0.60558 0.3881 0.0
C870 C 0.12336 0.61359 0.41236 0.0
C871 C 0.13755 0.6382 0.41078 0.0
C872 C 0.22151 0.63565 0.3907 0.0
C873 C 0.20368 0.68253 0.4192 0.0
C874 C 0.19724 0.64828 0.38214 0.0
N875 N 0.18854 0.67133 0.39648 0.0
C876 C 0.22806 0.67047 0.42836 0.0
C877 C 0.23698 0.64685 0.414 0.0
C878 C 0.16804 0.74877 0.38661 0.0
C879 C 0.08533 0.74757 0.29708 0.0
C880 C 0.11123 0.77894 0.34036 0.0
C881 C 0.10816 0.78911 0.31109 0.0
C882 C 0.0951 0.77328 0.28935 0.0
N883 N 0.10157 0.7537 0.34777 0.0
C884 C 0.08885 0.73802 0.32655 0.0
Co885 Co 0.31508 0.1571 0.38383 0.0
Co886 Co 0.26506 0.10788 0.38532 0.0
O887 O 0.29858 0.12333 0.36907 0.0
C888 C 0.30781 0.1659 0.31824 0.0
O889 O 0.28327 0.15578 0.32167 0.0
C890 C 0.30213 0.06007 0.39178 0.0
O891 O 0.31944 0.07535 0.40674 0.0
O892 O 0.27965 0.1103 0.42702 0.0
O893 O 0.3068 0.14707 0.42699 0.0
H894 H 0.18813 0.1003 0.45967 0.0
H895 H 0.34613 0.12088 0.34284 0.0
O896 O 0.32367 0.16791 0.34096 0.0
H897 H 0.40081 0.12646 0.43607 0.0
H898 H 0.38638 0.2307 0.38438 0.0
H899 H 0.30056 0.19845 0.42988 0.0
H900 H 0.3577 0.15183 0.43151 0.0
H901 H 0.36531 0.18775 0.36743 0.0
O902 O 0.28037 0.07036 0.38111 0.0
H903 H 0.22945 0.12065 0.43749 0.0
H904 H 0.23042 0.06015 0.36898 0.0
H905 H 0.32107 0.24138 0.44778 0.0
H906 H 0.38924 0.09533 0.34635 0.0
H907 H 0.36428 0.25777 0.42495 0.0
H908 H 0.41687 0.09798 0.39326 0.0
O909 O 0.27978 0.17697 0.38089 0.0
H910 H 0.26966 0.08499 0.27482 0.0
H911 H 0.21286 0.12413 0.35572 0.0
H912 H 0.19519 0.12265 0.30363 0.0
H913 H 0.22366 0.10293 0.26274 0.0
H914 H 0.28666 0.08717 0.32722 0.0
H915 H 0.18916 0.03905 0.39049 0.0
H916 H 0.16767 0.05921 0.4361 0.0
O917 O 0.24846 0.14478 0.38974 0.0
C918 C 0.29431 0.12783 0.44067 0.0
C919 C 0.1972 0.09141 0.43968 0.0
C920 C 0.19778 0.05705 0.40086 0.0
N921 N 0.23206 0.0919 0.40166 0.0
C922 C 0.22055 0.1029 0.42696 0.0
C923 C 0.22113 0.0691 0.38877 0.0
C924 C 0.18575 0.06835 0.42646 0.0
C925 C 0.35816 0.12231 0.36322 0.0
N926 N 0.34949 0.13794 0.38686 0.0
C927 C 0.3825 0.10773 0.36512 0.0
C928 C 0.39797 0.1092 0.39147 0.0
C929 C 0.38897 0.12516 0.4155 0.0
C930 C 0.36451 0.13944 0.41281 0.0
C931 C 0.36758 0.22375 0.39455 0.0
C932 C 0.31947 0.20537 0.42 0.0
C933 C 0.35553 0.19949 0.38499 0.0
N934 N 0.33183 0.19055 0.39779 0.0
C935 C 0.33094 0.22973 0.43016 0.0
C936 C 0.35517 0.23893 0.41731 0.0
C937 C 0.25529 0.16958 0.38591 0.0
C938 C 0.25704 0.09356 0.29245 0.0
C939 C 0.22543 0.11565 0.33806 0.0
C940 C 0.21527 0.11478 0.3086 0.0
C941 C 0.23124 0.10368 0.28568 0.0
N942 N 0.25076 0.10572 0.34452 0.0
C943 C 0.26651 0.09475 0.32218 0.0
Co944 Co 0.6565 0.81309 0.88316 0.0
Co945 Co 0.60746 0.76282 0.88565 0.0
O946 O 0.62264 0.79627 0.86892 0.0
C947 C 0.6649 0.80466 0.81783 0.0
O948 O 0.65575 0.7799 0.82244 0.0
C949 C 0.55949 0.79956 0.89307 0.0
O950 O 0.57478 0.81683 0.90807 0.0
O951 O 0.6104 0.7776 0.9272 0.0
O952 O 0.64673 0.80537 0.92653 0.0
H953 H 0.60111 0.68628 0.96064 0.0
H954 H 0.61983 0.8434 0.84195 0.0
O955 O 0.66693 0.82113 0.84001 0.0
H956 H 0.62592 0.89942 0.93414 0.0
H957 H 0.72987 0.88463 0.88193 0.0
H958 H 0.69806 0.79952 0.92936 0.0
H959 H 0.65143 0.85634 0.93011 0.0
H960 H 0.68706 0.86299 0.86536 0.0
O961 O 0.56981 0.77798 0.88201 0.0
H962 H 0.621 0.72758 0.9379 0.0
H963 H 0.55963 0.72792 0.87031 0.0
H964 H 0.74086 0.82058 0.94681 0.0
H965 H 0.59413 0.88646 0.84494 0.0
H966 H 0.75702 0.86345 0.92303 0.0
H967 H 0.59705 0.91475 0.89133 0.0
O968 O 0.67656 0.77782 0.88076 0.0
H969 H 0.58124 0.76608 0.776 0.0
H970 H 0.62374 0.71065 0.85598 0.0
H971 H 0.62067 0.69237 0.80424 0.0
H972 H 0.59913 0.7201 0.76385 0.0
H973 H 0.58537 0.78386 0.82792 0.0
H974 H 0.53901 0.68666 0.89238 0.0
H975 H 0.55985 0.6655 0.9378 0.0
O976 O 0.64447 0.74638 0.88953 0.0
C977 C 0.62774 0.79273 0.94049 0.0
C978 C 0.59194 0.6952 0.94074 0.0
C979 C 0.55709 0.69543 0.90242 0.0
N980 N 0.5918 0.72986 0.90248 0.0
C981 C 0.60315 0.71855 0.92771 0.0
C982 C 0.56888 0.71877 0.89001 0.0
C983 C 0.56878 0.68357 0.92793 0.0
C984 C 0.62137 0.85572 0.8621 0.0
N985 N 0.63722 0.84745 0.88574 0.0
C986 C 0.6067 0.88003 0.86371 0.0
C987 C 0.60832 0.89588 0.88976 0.0
C988 C 0.62451 0.88728 0.9138 0.0
C989 C 0.63887 0.86285 0.9114 0.0
C990 C 0.72301 0.86599 0.89251 0.0
C991 C 0.70487 0.81827 0.91905 0.0
C992 C 0.69882 0.85362 0.88319 0.0
N993 N 0.68998 0.83016 0.89657 0.0
C994 C 0.72916 0.83006 0.92896 0.0
C995 C 0.73823 0.8541 0.91558 0.0
C996 C 0.66926 0.75331 0.88574 0.0
C997 C 0.59058 0.75377 0.79343 0.0
C998 C 0.61463 0.72297 0.83849 0.0
C999 C 0.6128 0.71244 0.80925 0.0
C1000 C 0.60067 0.72799 0.78661 0.0
N1001 N 0.6047 0.74829 0.845 0.0
C1002 C 0.5929 0.7637 0.82288 0.0
Co1003 Co 0.18919 0.65232 0.88272 0.0
Co1004 Co 0.24333 0.60761 0.88923 0.0
O1005 O 0.20871 0.61897 0.87138 0.0
C1006 C 0.19871 0.65816 0.81714 0.0
O1007 O 0.22359 0.6497 0.82244 0.0
C1008 C 0.20813 0.55864 0.89848 0.0
O1009 O 0.18716 0.57434 0.90428 0.0
O1010 O 0.22874 0.61311 0.93063 0.0
O1011 O 0.19624 0.64509 0.92671 0.0
H1012 H 0.32191 0.61504 0.96142 0.0
H1013 H 0.16261 0.61205 0.84252 0.0
O1014 O 0.18181 0.66036 0.83889 0.0
H1015 H 0.10336 0.61827 0.93221 0.0
H1016 H 0.11281 0.72027 0.87491 0.0
H1017 H 0.19891 0.6972 0.92614 0.0
H1018 H 0.14489 0.64629 0.92838 0.0
H1019 H 0.13763 0.67824 0.86183 0.0
O1020 O 0.23096 0.56883 0.89082 0.0
H1021 H 0.2787 0.6293 0.93784 0.0
H1022 H 0.28135 0.56113 0.87891 0.0
H1023 H 0.17468 0.73932 0.94011 0.0
H1024 H 0.12112 0.58382 0.84527 0.0
H1025 H 0.13128 0.75109 0.91441 0.0
H1026 H 0.09122 0.58679 0.89041 0.0
O1027 O 0.22296 0.67479 0.88023 0.0
H1028 H 0.23985 0.57233 0.78281 0.0
H1029 H 0.29387 0.62463 0.85664 0.0
H1030 H 0.31123 0.61875 0.80478 0.0
H1031 H 0.28417 0.59238 0.76747 0.0
H1032 H 0.22305 0.57907 0.83482 0.0
H1033 H 0.32448 0.54602 0.902 0.0
H1034 H 0.34507 0.5731 0.94353 0.0
O1035 O 0.25716 0.64567 0.88855 0.0
C1036 C 0.21118 0.62908 0.94232 0.0
C1037 C 0.31318 0.60311 0.94329 0.0
C1038 C 0.31462 0.56438 0.90994 0.0
N1039 N 0.27761 0.59617 0.9069 0.0
C1040 C 0.28875 0.61112 0.9298 0.0
C1041 C 0.29019 0.57302 0.89697 0.0
C1042 C 0.32616 0.57957 0.93325 0.0
C1043 C 0.14957 0.61361 0.86211 0.0
N1044 N 0.15611 0.63085 0.88521 0.0
C1045 C 0.12616 0.59751 0.8636 0.0
C1046 C 0.10941 0.59916 0.88895 0.0
C1047 C 0.11623 0.6168 0.91242 0.0
C1048 C 0.13982 0.63255 0.91017 0.0
C1049 C 0.13164 0.71532 0.88635 0.0
C1050 C 0.17993 0.70208 0.91504 0.0
C1051 C 0.14579 0.69156 0.87902 0.0
N1052 N 0.16951 0.68512 0.89349 0.0
C1053 C 0.16635 0.726 0.92296 0.0
C1054 C 0.14202 0.7326 0.90851 0.0
C1055 C 0.24811 0.66964 0.88424 0.0
C1056 C 0.25187 0.58378 0.7989 0.0
C1057 C 0.28191 0.61325 0.84051 0.0
C1058 C 0.29189 0.60991 0.8112 0.0
C1059 C 0.27672 0.59507 0.79029 0.0
N1060 N 0.2575 0.60212 0.84877 0.0
C1061 C 0.24251 0.58757 0.8284 0.0
Co1062 Co 0.34783 0.18878 0.88248 0.0
Co1063 Co 0.39168 0.24398 0.8853 0.0
O1064 O 0.38047 0.20857 0.86958 0.0
C1065 C 0.34093 0.19633 0.81655 0.0
O1066 O 0.35018 0.22115 0.82032 0.0
C1067 C 0.44051 0.20956 0.89816 0.0
O1068 O 0.42474 0.19116 0.9107 0.0
O1069 O 0.38574 0.23162 0.92772 0.0
O1070 O 0.35588 0.19702 0.92592 0.0
H1071 H 0.38289 0.32675 0.95117 0.0
H1072 H 0.38788 0.16217 0.84205 0.0
O1073 O 0.33894 0.18026 0.83911 0.0
H1074 H 0.3849 0.1051 0.93367 0.0
H1075 H 0.28143 0.11077 0.87898 0.0
H1076 H 0.30364 0.19868 0.92678 0.0
H1077 H 0.3557 0.14572 0.92922 0.0
H1078 H 0.32265 0.13615 0.86402 0.0
O1079 O 0.43032 0.23127 0.88725 0.0
H1080 H 0.36882 0.28243 0.9301 0.0
H1081 H 0.43955 0.28041 0.87493 0.0
H1082 H 0.2624 0.17384 0.94271 0.0
H1083 H 0.41728 0.12157 0.84543 0.0
H1084 H 0.25107 0.12955 0.91873 0.0
H1085 H 0.41595 0.09277 0.89154 0.0
O1086 O 0.32474 0.22208 0.87973 0.0
H1087 H 0.42587 0.23413 0.77887 0.0
H1088 H 0.37837 0.29437 0.85067 0.0
H1089 H 0.38505 0.30944 0.79801 0.0
H1090 H 0.40893 0.27919 0.76169 0.0
H1091 H 0.41855 0.21982 0.83168 0.0
H1092 H 0.45454 0.32454 0.89566 0.0
H1093 H 0.42605 0.34808 0.93396 0.0
O1094 O 0.35343 0.25772 0.88284 0.0
C1095 C 0.37098 0.21359 0.94054 0.0
C1096 C 0.39542 0.31675 0.93441 0.0
C1097 C 0.43566 0.31548 0.9033 0.0
N1098 N 0.4032 0.27898 0.90111 0.0
C1099 C 0.38751 0.2917 0.92232 0.0
C1100 C 0.42711 0.29046 0.8917 0.0
C1101 C 0.41966 0.32868 0.92477 0.0
C1102 C 0.38703 0.1496 0.86207 0.0
N1103 N 0.37001 0.15623 0.88535 0.0
C1104 C 0.40379 0.12669 0.86391 0.0
C1105 C 0.40306 0.11056 0.8898 0.0
C1106 C 0.38566 0.11748 0.91346 0.0
C1107 C 0.36921 0.14054 0.91084 0.0
C1108 C 0.2862 0.13 0.88968 0.0
C1109 C 0.29894 0.17932 0.91641 0.0
C1110 C 0.30948 0.14447 0.88127 0.0
N1111 N 0.31567 0.16872 0.89476 0.0
C1112 C 0.27552 0.16539 0.92545 0.0
C1113 C 0.26917 0.14055 0.91197 0.0
C1114 C 0.32962 0.24754 0.8805 0.0
C1115 C 0.41538 0.24747 0.79446 0.0
C1116 C 0.3886 0.28103 0.83493 0.0
C1117 C 0.39244 0.28972 0.80518 0.0
C1118 C 0.40586 0.27275 0.78483 0.0
N1119 N 0.39779 0.25614 0.84414 0.0
C1120 C 0.41121 0.2395 0.82439 0.0
Co1121 Co 0.81533 0.34564 0.88521 0.0
Co1122 Co 0.76208 0.39172 0.88655 0.0
O1123 O 0.79704 0.37884 0.87108 0.0
C1124 C 0.80782 0.33742 0.8196 0.0
O1125 O 0.78319 0.34722 0.82323 0.0
C1126 C 0.79808 0.44022 0.89491 0.0
O1127 O 0.81861 0.42442 0.90215 0.0
O1128 O 0.77497 0.38766 0.92875 0.0
O1129 O 0.80708 0.3551 0.92846 0.0
H1130 H 0.68101 0.38946 0.95572 0.0
H1131 H 0.84426 0.38327 0.84381 0.0
O1132 O 0.82384 0.33546 0.84218 0.0
H1133 H 0.90025 0.38003 0.93622 0.0
H1134 H 0.88982 0.27533 0.88372 0.0
H1135 H 0.80348 0.30343 0.93124 0.0
H1136 H 0.85814 0.35289 0.93233 0.0
H1137 H 0.86669 0.31749 0.86766 0.0
O1138 O 0.77533 0.43018 0.88678 0.0
H1139 H 0.72444 0.37296 0.93457 0.0
H1140 H 0.72573 0.4387 0.87223 0.0
H1141 H 0.82604 0.26125 0.94822 0.0
H1142 H 0.88637 0.41055 0.84664 0.0
H1143 H 0.86952 0.24694 0.92435 0.0
H1144 H 0.91464 0.40908 0.89314 0.0
O1145 O 0.78114 0.3238 0.8826 0.0
H1146 H 0.77057 0.42185 0.77855 0.0
H1147 H 0.71228 0.37468 0.85267 0.0
H1148 H 0.69704 0.37859 0.79977 0.0
H1149 H 0.72627 0.40234 0.7623 0.0
H1150 H 0.78514 0.41725 0.83167 0.0
H1151 H 0.68241 0.456 0.89283 0.0
H1152 H 0.65974 0.4313 0.93486 0.0
O1153 O 0.74734 0.35402 0.88716 0.0
C1154 C 0.79192 0.37222 0.94225 0.0
C1155 C 0.69064 0.40035 0.93734 0.0
C1156 C 0.69143 0.43769 0.90204 0.0
N1157 N 0.72748 0.40471 0.90202 0.0
C1158 C 0.71519 0.39106 0.92521 0.0
C1159 C 0.71595 0.42779 0.89047 0.0
C1160 C 0.67873 0.42383 0.92563 0.0
C1161 C 0.85659 0.38235 0.86401 0.0
N1162 N 0.84882 0.36643 0.88781 0.0
C1163 C 0.88035 0.39792 0.86553 0.0
C1164 C 0.89618 0.39711 0.89164 0.0
C1165 C 0.88811 0.38083 0.91583 0.0
C1166 C 0.86421 0.36556 0.91353 0.0
C1167 C 0.87092 0.28138 0.89434 0.0
C1168 C 0.82251 0.29744 0.92095 0.0
C1169 C 0.85771 0.3052 0.88531 0.0
N1170 N 0.83386 0.31298 0.89865 0.0
C1171 C 0.83514 0.2735 0.93057 0.0
C1172 C 0.85952 0.26546 0.91714 0.0
C1173 C 0.75597 0.32969 0.88482 0.0
C1174 C 0.75762 0.41153 0.79469 0.0
C1175 C 0.72515 0.38498 0.83649 0.0
C1176 C 0.71638 0.38719 0.80658 0.0
C1177 C 0.73278 0.40054 0.78557 0.0
N1178 N 0.74955 0.39581 0.84525 0.0
C1179 C 0.76571 0.40897 0.8248 0.0
Co1180 Co 0.65596 0.18619 0.13085 0.0
Co1181 Co 0.60958 0.23896 0.1292 0.0
O1182 O 0.62284 0.20434 0.14491 0.0
C1183 C 0.66393 0.19374 0.19651 0.0
O1184 O 0.65453 0.21848 0.19264 0.0
C1185 C 0.56131 0.20328 0.11967 0.0
O1186 O 0.57694 0.18575 0.10553 0.0
O1187 O 0.61312 0.22564 0.08708 0.0
O1188 O 0.64672 0.19458 0.08751 0.0
H1189 H 0.61001 0.31969 0.0595 0.0
H1190 H 0.6179 0.15723 0.17171 0.0
O1191 O 0.66589 0.17762 0.17399 0.0
H1192 H 0.6219 0.1015 0.07916 0.0
H1193 H 0.72646 0.11191 0.13259 0.0
H1194 H 0.69841 0.1983 0.08515 0.0
H1195 H 0.6492 0.14346 0.08359 0.0
H1196 H 0.68415 0.13489 0.14843 0.0
O1197 O 0.5714 0.22494 0.13083 0.0
H1198 H 0.62731 0.27658 0.08066 0.0
H1199 H 0.56197 0.27441 0.14349 0.0
H1200 H 0.74075 0.1759 0.0684 0.0
H1201 H 0.59041 0.11529 0.16835 0.0
H1202 H 0.75504 0.1324 0.09223 0.0
H1203 H 0.59226 0.08715 0.12177 0.0
O1204 O 0.67752 0.22044 0.13367 0.0
H1205 H 0.58167 0.23205 0.23814 0.0
H1206 H 0.62676 0.28943 0.16159 0.0
H1207 H 0.6237 0.30561 0.21422 0.0
H1208 H 0.601 0.27683 0.25291 0.0
H1209 H 0.58543 0.21653 0.1853 0.0
H1210 H 0.54383 0.31738 0.12285 0.0
H1211 H 0.56797 0.34036 0.08061 0.0
O1212 O 0.64723 0.25402 0.12735 0.0
C1213 C 0.62913 0.20918 0.07365 0.0
C1214 C 0.59937 0.30993 0.07799 0.0
C1215 C 0.56222 0.30862 0.11352 0.0
N1216 N 0.59582 0.27314 0.11348 0.0
C1217 C 0.60912 0.28557 0.09013 0.0
C1218 C 0.57256 0.28427 0.12509 0.0
C1219 C 0.57577 0.3215 0.08982 0.0
C1220 C 0.61898 0.14496 0.15148 0.0
N1221 N 0.63523 0.15269 0.12795 0.0
C1222 C 0.6033 0.12129 0.14966 0.0
C1223 C 0.60432 0.10553 0.12351 0.0
C1224 C 0.62094 0.11358 0.09958 0.0
C1225 C 0.63631 0.13738 0.1022 0.0
C1226 C 0.72042 0.13082 0.12198 0.0
C1227 C 0.70438 0.17925 0.09542 0.0
C1228 C 0.69652 0.14394 0.13089 0.0
N1229 N 0.68875 0.16779 0.11756 0.0
C1230 C 0.72842 0.16671 0.08593 0.0
C1231 C 0.73644 0.14232 0.09933 0.0
C1232 C 0.67158 0.2455 0.1304 0.0
C1233 C 0.59154 0.2448 0.22147 0.0
C1234 C 0.61693 0.27675 0.17831 0.0
C1235 C 0.61519 0.28605 0.20806 0.0
C1236 C 0.60243 0.26991 0.22975 0.0
N1237 N 0.60622 0.25208 0.17037 0.0
C1238 C 0.59362 0.23617 0.19149 0.0
Co1239 Co 0.81228 0.65583 0.13361 0.0
Co1240 Co 0.76172 0.60732 0.12906 0.0
O1241 O 0.795 0.62193 0.14677 0.0
C1242 C 0.80338 0.66306 0.19906 0.0
O1243 O 0.77857 0.65419 0.19416 0.0
C1244 C 0.79817 0.55888 0.12243 0.0
O1245 O 0.81553 0.5735 0.10673 0.0
O1246 O 0.7773 0.61057 0.08783 0.0
O1247 O 0.80488 0.64699 0.08996 0.0
H1248 H 0.68609 0.60275 0.05279 0.0
H1249 H 0.84165 0.61793 0.17426 0.0
O1250 O 0.81998 0.66536 0.17704 0.0
H1251 H 0.89925 0.62585 0.08341 0.0
H1252 H 0.88467 0.72832 0.13707 0.0
H1253 H 0.79926 0.69863 0.08864 0.0
H1254 H 0.85628 0.65153 0.08736 0.0
H1255 H 0.86243 0.68546 0.1525 0.0
O1256 O 0.77651 0.56958 0.1328 0.0
H1257 H 0.72729 0.62192 0.07649 0.0
H1258 H 0.72628 0.55951 0.14291 0.0
H1259 H 0.82094 0.74148 0.0723 0.0
H1260 H 0.88461 0.59205 0.17139 0.0
H1261 H 0.86397 0.75657 0.09658 0.0
H1262 H 0.9137 0.59588 0.12568 0.0
O1263 O 0.77713 0.67605 0.13601 0.0
H1264 H 0.76282 0.5802 0.23851 0.0
H1265 H 0.70902 0.62347 0.15769 0.0
H1266 H 0.68969 0.61992 0.20893 0.0
H1267 H 0.71659 0.59797 0.24974 0.0
H1268 H 0.78167 0.5849 0.18713 0.0
H1269 H 0.68515 0.53958 0.11984 0.0
H1270 H 0.6647 0.56131 0.07452 0.0
O1271 O 0.74567 0.6445 0.1252 0.0
C1272 C 0.79237 0.62841 0.0752 0.0
C1273 C 0.69471 0.59318 0.07262 0.0
C1274 C 0.69419 0.55773 0.11025 0.0
N1275 N 0.72893 0.59212 0.11134 0.0
C1276 C 0.718 0.60398 0.08619 0.0
C1277 C 0.71748 0.56912 0.12322 0.0
C1278 C 0.68274 0.56992 0.08482 0.0
C1279 C 0.8543 0.61985 0.15439 0.0
N1280 N 0.84652 0.6363 0.13105 0.0
C1281 C 0.87856 0.60508 0.15285 0.0
C1282 C 0.89486 0.60722 0.12718 0.0
C1283 C 0.88675 0.62401 0.10345 0.0
C1284 C 0.86236 0.63844 0.10577 0.0
C1285 C 0.86597 0.72192 0.12626 0.0
C1286 C 0.81808 0.70498 0.09917 0.0
C1287 C 0.85327 0.69771 0.13493 0.0
N1288 N 0.82975 0.68942 0.12122 0.0
C1289 C 0.83021 0.7293 0.08989 0.0
C1290 C 0.85435 0.73776 0.10353 0.0
C1291 C 0.75271 0.66911 0.12994 0.0
C1292 C 0.75087 0.58972 0.2209 0.0
C1293 C 0.72098 0.6142 0.17537 0.0
C1294 C 0.70987 0.6121 0.20433 0.0
C1295 C 0.72495 0.59974 0.2272 0.0
N1296 N 0.74642 0.60431 0.16936 0.0
C1297 C 0.76139 0.59235 0.19173 0.0
Co1298 Co 0.34584 0.81398 0.12923 0.0
Co1299 Co 0.39467 0.76353 0.12821 0.0
O1300 O 0.37955 0.79738 0.14391 0.0
C1301 C 0.33724 0.80664 0.19477 0.0
O1302 O 0.34733 0.78213 0.19119 0.0
C1303 C 0.44205 0.80082 0.1202 0.0
O1304 O 0.42635 0.81773 0.10524 0.0
O1305 O 0.39161 0.77718 0.08614 0.0
O1306 O 0.35577 0.80556 0.08612 0.0
H1307 H 0.40069 0.68473 0.0562 0.0
H1308 H 0.38225 0.84494 0.17012 0.0
O1309 O 0.33516 0.82259 0.17212 0.0
H1310 H 0.37687 0.89947 0.07675 0.0
H1311 H 0.27257 0.88555 0.1288 0.0
H1312 H 0.30435 0.79964 0.08324 0.0
H1313 H 0.35128 0.85647 0.08144 0.0
H1314 H 0.31544 0.8643 0.1457 0.0
O1315 O 0.43223 0.77899 0.13129 0.0
H1316 H 0.38081 0.72663 0.07753 0.0
H1317 H 0.44278 0.7294 0.14437 0.0
H1318 H 0.2615 0.82033 0.06539 0.0
H1319 H 0.40801 0.88794 0.16648 0.0
H1320 H 0.24534 0.86359 0.08825 0.0
H1321 H 0.40545 0.91549 0.11949 0.0
O1322 O 0.32577 0.77882 0.13228 0.0
H1323 H 0.41926 0.77057 0.23811 0.0
H1324 H 0.37892 0.712 0.15952 0.0
H1325 H 0.38118 0.69548 0.21205 0.0
H1326 H 0.4015 0.72485 0.25179 0.0
H1327 H 0.4163 0.7864 0.18532 0.0
H1328 H 0.46343 0.68761 0.12367 0.0
H1329 H 0.44228 0.66493 0.07934 0.0
O1330 O 0.35767 0.7469 0.12499 0.0
C1331 C 0.37448 0.79229 0.07245 0.0
C1332 C 0.41 0.69433 0.07563 0.0
C1333 C 0.44521 0.69596 0.11349 0.0
N1334 N 0.41034 0.73018 0.11247 0.0
C1335 C 0.39879 0.71801 0.08787 0.0
C1336 C 0.43342 0.7196 0.12513 0.0
C1337 C 0.43335 0.68325 0.0886 0.0
C1338 C 0.38087 0.85694 0.1497 0.0
N1339 N 0.36518 0.84829 0.1261 0.0
C1340 C 0.39557 0.88122 0.14773 0.0
C1341 C 0.39415 0.89665 0.12135 0.0
C1342 C 0.37812 0.88766 0.09735 0.0
C1343 C 0.36373 0.86327 0.10012 0.0
C1344 C 0.27942 0.86673 0.11861 0.0
C1345 C 0.29754 0.81857 0.09313 0.0
C1346 C 0.30364 0.85458 0.12814 0.0
N1347 N 0.31245 0.83086 0.11532 0.0
C1348 C 0.27322 0.83014 0.083 0.0
C1349 C 0.26416 0.8544 0.09586 0.0
C1350 C 0.33292 0.75413 0.12833 0.0
C1351 C 0.41042 0.75756 0.22099 0.0
C1352 C 0.38766 0.72495 0.17668 0.0
C1353 C 0.38898 0.71545 0.20639 0.0
C1354 C 0.40041 0.73192 0.22866 0.0
N1355 N 0.39749 0.75013 0.16934 0.0
C1356 C 0.4088 0.76637 0.19104 0.0
Co1357 Co 0.18943 0.34676 0.13164 0.0
Co1358 Co 0.23889 0.39657 0.1293 0.0
O1359 O 0.2055 0.38099 0.14559 0.0
C1360 C 0.19763 0.33936 0.19725 0.0
O1361 O 0.22222 0.34891 0.19256 0.0
C1362 C 0.20107 0.44381 0.1213 0.0
O1363 O 0.18479 0.42872 0.10477 0.0
O1364 O 0.22486 0.39283 0.08748 0.0
O1365 O 0.1975 0.3562 0.08812 0.0
H1366 H 0.31687 0.40342 0.0562 0.0
H1367 H 0.15804 0.38325 0.17204 0.0
O1368 O 0.18128 0.33667 0.175 0.0
H1369 H 0.10292 0.375 0.07936 0.0
H1370 H 0.11932 0.27204 0.13332 0.0
H1371 H 0.20406 0.30504 0.08603 0.0
H1372 H 0.14656 0.35054 0.08414 0.0
H1373 H 0.14004 0.31544 0.14947 0.0
O1374 O 0.22279 0.43383 0.13241 0.0
H1375 H 0.27566 0.38286 0.07841 0.0
H1376 H 0.27216 0.44563 0.14426 0.0
H1377 H 0.18393 0.26166 0.069 0.0
H1378 H 0.11442 0.40791 0.16831 0.0
H1379 H 0.14126 0.2449 0.09271 0.0
H1380 H 0.08657 0.40389 0.12168 0.0
O1381 O 0.22498 0.32744 0.13468 0.0
H1382 H 0.23362 0.42416 0.23844 0.0
H1383 H 0.29111 0.38213 0.15999 0.0
H1384 H 0.30887 0.38676 0.21182 0.0
H1385 H 0.28013 0.40816 0.25142 0.0
H1386 H 0.21634 0.41828 0.18654 0.0
H1387 H 0.31323 0.46698 0.12266 0.0
H1388 H 0.33595 0.44578 0.07838 0.0
O1389 O 0.25614 0.35988 0.1262 0.0
C1390 C 0.21036 0.37502 0.07405 0.0
C1391 C 0.30726 0.41277 0.07561 0.0
C1392 C 0.30521 0.44844 0.11289 0.0
N1393 N 0.27177 0.41277 0.1129 0.0
C1394 C 0.28397 0.40116 0.08835 0.0
C1395 C 0.28195 0.43625 0.12503 0.0
C1396 C 0.31793 0.43654 0.08804 0.0
C1397 C 0.14593 0.38125 0.15177 0.0
N1398 N 0.15474 0.36536 0.12842 0.0
C1399 C 0.1213 0.39533 0.14975 0.0
C1400 C 0.10569 0.39309 0.12356 0.0
C1401 C 0.11486 0.37689 0.09981 0.0
C1402 C 0.13961 0.36313 0.10262 0.0
C1403 C 0.13789 0.27916 0.12277 0.0
C1404 C 0.18538 0.29796 0.0963 0.0
C1405 C 0.14973 0.30368 0.13186 0.0
N1406 N 0.17309 0.31284 0.11852 0.0
C1407 C 0.17413 0.27335 0.08663 0.0
C1408 C 0.1502 0.26394 0.09997 0.0
C1409 C 0.24946 0.33504 0.13008 0.0
C1410 C 0.24638 0.41491 0.22136 0.0
C1411 C 0.27834 0.3911 0.17716 0.0
C1412 C 0.28857 0.39383 0.20645 0.0
C1413 C 0.27246 0.40589 0.22864 0.0
N1414 N 0.25277 0.40007 0.17018 0.0
C1415 C 0.23674 0.41162 0.1919 0.0
Co1416 Co 0.34738 0.19163 0.1318 0.0
Co1417 Co 0.39613 0.24204 0.1271 0.0
O1418 O 0.38162 0.20854 0.14438 0.0
C1419 C 0.34118 0.2001 0.19751 0.0
O1420 O 0.35053 0.22476 0.19274 0.0
C1421 C 0.44335 0.20467 0.11809 0.0
O1422 O 0.42747 0.18748 0.10373 0.0
O1423 O 0.39142 0.22767 0.08542 0.0
O1424 O 0.35562 0.1993 0.08808 0.0
H1425 H 0.39909 0.31992 0.05354 0.0
H1426 H 0.38572 0.16183 0.17152 0.0
O1427 O 0.33836 0.18373 0.17535 0.0
H1428 H 0.3761 0.10477 0.0805 0.0
H1429 H 0.27435 0.1198 0.13606 0.0
H1430 H 0.30413 0.20515 0.08756 0.0
H1431 H 0.3506 0.14776 0.08529 0.0
H1432 H 0.31757 0.14164 0.15092 0.0
O1433 O 0.43372 0.22667 0.12888 0.0
H1434 H 0.38026 0.27817 0.0764 0.0
H1435 H 0.44484 0.27642 0.14018 0.0
H1436 H 0.26091 0.18387 0.07178 0.0
H1437 H 0.41144 0.11884 0.16783 0.0
H1438 H 0.24577 0.14087 0.0961 0.0
H1439 H 0.40677 0.09002 0.12201 0.0
O1440 O 0.32742 0.22688 0.13486 0.0
H1441 H 0.42623 0.23751 0.23548 0.0
H1442 H 0.38143 0.29406 0.15808 0.0
H1443 H 0.38638 0.31177 0.20988 0.0
H1444 H 0.40905 0.28346 0.24899 0.0
H1445 H 0.42026 0.22034 0.18355 0.0
H1446 H 0.46447 0.31807 0.1179 0.0
H1447 H 0.44147 0.34018 0.07435 0.0
O1448 O 0.35908 0.25856 0.12517 0.0
C1449 C 0.37352 0.21249 0.07302 0.0
C1450 C 0.40922 0.31056 0.07261 0.0
C1451 C 0.44591 0.30952 0.10873 0.0
N1452 N 0.41118 0.27512 0.10989 0.0
C1453 C 0.39862 0.28696 0.0857 0.0
C1454 C 0.4347 0.28594 0.12125 0.0
C1455 C 0.43301 0.3219 0.08428 0.0
C1456 C 0.38344 0.1493 0.15161 0.0
N1457 N 0.36663 0.15727 0.12866 0.0
C1458 C 0.39811 0.12502 0.1496 0.0
C1459 C 0.39551 0.10888 0.12388 0.0
C1460 C 0.37832 0.11715 0.10057 0.0
C1461 C 0.36399 0.14156 0.10335 0.0
C1462 C 0.28076 0.13849 0.12524 0.0
C1463 C 0.29775 0.18635 0.0981 0.0
C1464 C 0.30518 0.15097 0.1336 0.0
N1465 N 0.31348 0.17448 0.11988 0.0
C1466 C 0.27322 0.17444 0.08914 0.0
C1467 C 0.26474 0.15033 0.10281 0.0
C1468 C 0.33446 0.25146 0.1298 0.0
C1469 C 0.41639 0.25007 0.21862 0.0
C1470 C 0.39105 0.28151 0.17501 0.0
C1471 C 0.39394 0.29171 0.20428 0.0
C1472 C 0.40671 0.27583 0.2262 0.0
N1473 N 0.40057 0.2562 0.16775 0.0
C1474 C 0.41303 0.24049 0.18915 0.0
Co1475 Co 0.81452 0.3463 0.13185 0.0
Co1476 Co 0.76132 0.39219 0.12948 0.0
O1477 O 0.7958 0.37916 0.14581 0.0
C1478 C 0.80587 0.33794 0.19707 0.0
O1479 O 0.78082 0.34605 0.1921 0.0
C1480 C 0.79685 0.44102 0.1218 0.0
O1481 O 0.81457 0.4261 0.10701 0.0
O1482 O 0.7754 0.38905 0.08765 0.0
O1483 O 0.80654 0.35557 0.08842 0.0
H1484 H 0.68192 0.39145 0.05794 0.0
H1485 H 0.84254 0.3846 0.17323 0.0
O1486 O 0.82266 0.3364 0.17512 0.0
H1487 H 0.89964 0.38117 0.08166 0.0
H1488 H 0.88952 0.27657 0.13439 0.0
H1489 H 0.80353 0.30402 0.08563 0.0
H1490 H 0.8578 0.35357 0.0853 0.0
H1491 H 0.86575 0.31842 0.15031 0.0
O1492 O 0.77495 0.43048 0.13184 0.0
H1493 H 0.72471 0.37435 0.08006 0.0
H1494 H 0.72521 0.43946 0.14319 0.0
H1495 H 0.8267 0.26212 0.06885 0.0
H1496 H 0.88432 0.41239 0.17065 0.0
H1497 H 0.87002 0.24815 0.09332 0.0
H1498 H 0.91316 0.4108 0.12458 0.0
O1499 O 0.78045 0.3244 0.13401 0.0
H1500 H 0.76483 0.42164 0.2381 0.0
H1501 H 0.71039 0.37436 0.16059 0.0
H1502 H 0.69242 0.37849 0.2124 0.0
H1503 H 0.7196 0.40252 0.25151 0.0
H1504 H 0.78241 0.41626 0.18625 0.0
H1505 H 0.68253 0.45737 0.12161 0.0
H1506 H 0.66055 0.43326 0.07873 0.0
O1507 O 0.74666 0.35437 0.12706 0.0
C1508 C 0.79199 0.37309 0.07438 0.0
C1509 C 0.69123 0.40207 0.0767 0.0
C1510 C 0.6916 0.43909 0.11241 0.0
N1511 N 0.7273 0.40574 0.11307 0.0
C1512 C 0.71542 0.39243 0.08939 0.0
C1513 C 0.71579 0.42887 0.12451 0.0
C1514 C 0.67928 0.42555 0.08835 0.0
C1515 C 0.8551 0.38365 0.15321 0.0
N1516 N 0.84783 0.36738 0.12953 0.0
C1517 C 0.87869 0.3995 0.15183 0.0
C1518 C 0.89484 0.39862 0.12596 0.0
C1519 C 0.88726 0.38201 0.10187 0.0
C1520 C 0.86352 0.36647 0.10403 0.0
C1521 C 0.8707 0.28248 0.1235 0.0
C1522 C 0.82249 0.29819 0.0962 0.0
C1523 C 0.85714 0.30613 0.13245 0.0
N1524 N 0.83342 0.31376 0.11871 0.0
C1525 C 0.83546 0.27439 0.08669 0.0
C1526 C 0.85975 0.26655 0.10045 0.0
C1527 C 0.75537 0.3301 0.13027 0.0
C1528 C 0.75274 0.41124 0.22123 0.0
C1529 C 0.7225 0.38452 0.17757 0.0
C1530 C 0.71214 0.38694 0.20683 0.0
C1531 C 0.72738 0.40047 0.22874 0.0
N1532 N 0.74736 0.39522 0.17035 0.0
C1533 C 0.76255 0.40822 0.19181 0.0
Co1534 Co 0.65674 0.81399 0.12951 0.0
Co1535 Co 0.60742 0.76402 0.12793 0.0
O1536 O 0.62285 0.79758 0.14405 0.0
C1537 C 0.6652 0.80636 0.19504 0.0
O1538 O 0.65494 0.78192 0.19139 0.0
C1539 C 0.56004 0.80139 0.12041 0.0
O1540 O 0.57563 0.81833 0.10531 0.0
O1541 O 0.61037 0.77824 0.08609 0.0
O1542 O 0.64682 0.80586 0.08632 0.0
H1543 H 0.60034 0.68638 0.05449 0.0
H1544 H 0.6205 0.84505 0.17045 0.0
O1545 O 0.66741 0.82236 0.17245 0.0
H1546 H 0.62662 0.89997 0.07742 0.0
H1547 H 0.73065 0.88497 0.12955 0.0
H1548 H 0.69822 0.79945 0.08359 0.0
H1549 H 0.6518 0.85674 0.08194 0.0
H1550 H 0.68754 0.86402 0.14625 0.0
O1551 O 0.56996 0.77962 0.13149 0.0
H1552 H 0.62062 0.72785 0.07638 0.0
H1553 H 0.55927 0.72986 0.14396 0.0
H1554 H 0.7413 0.81985 0.06595 0.0
H1555 H 0.59515 0.88829 0.16699 0.0
H1556 H 0.75778 0.86291 0.08902 0.0
H1557 H 0.59808 0.91602 0.12017 0.0
O1558 O 0.67648 0.77864 0.13245 0.0
H1559 H 0.58338 0.76968 0.23808 0.0
H1560 H 0.62308 0.71201 0.15829 0.0
H1561 H 0.62098 0.69481 0.21056 0.0
H1562 H 0.60098 0.72372 0.25089 0.0
H1563 H 0.58617 0.78621 0.18553 0.0
H1564 H 0.53822 0.68847 0.12271 0.0
H1565 H 0.55886 0.66638 0.07773 0.0
O1566 O 0.64428 0.7472 0.1242 0.0
C1567 C 0.62777 0.79315 0.07256 0.0
C1568 C 0.59125 0.69571 0.0742 0.0
C1569 C 0.55639 0.69689 0.11249 0.0
N1570 N 0.59144 0.73098 0.11174 0.0
C1571 C 0.60269 0.71915 0.08676 0.0
C1572 C 0.56841 0.72031 0.12444 0.0
C1573 C 0.56796 0.68452 0.08724 0.0
C1574 C 0.62205 0.85713 0.15011 0.0
N1575 N 0.63772 0.84846 0.1265 0.0
C1576 C 0.60758 0.88154 0.14823 0.0
C1577 C 0.6092 0.89708 0.12195 0.0
C1578 C 0.62521 0.88808 0.09794 0.0
C1579 C 0.63937 0.86355 0.10062 0.0
C1580 C 0.72366 0.86624 0.11928 0.0
C1581 C 0.70517 0.8183 0.09357 0.0
C1582 C 0.6993 0.85425 0.12869 0.0
N1583 N 0.69031 0.83065 0.11576 0.0
C1584 C 0.72962 0.82971 0.08356 0.0
C1585 C 0.73887 0.85385 0.09653 0.0
C1586 C 0.66909 0.7541 0.12792 0.0
C1587 C 0.59207 0.75687 0.22069 0.0
C1588 C 0.61447 0.72477 0.17571 0.0
C1589 C 0.61325 0.71488 0.20527 0.0
C1590 C 0.602 0.7311 0.22787 0.0
N1591 N 0.60473 0.75008 0.16885 0.0
C1592 C 0.5936 0.76607 0.19088 0.0
Co1593 Co 0.18776 0.65871 0.13208 0.0
Co1594 Co 0.23725 0.60902 0.12965 0.0
O1595 O 0.20393 0.62462 0.14613 0.0
C1596 C 0.19563 0.66672 0.19764 0.0
O1597 O 0.22005 0.65644 0.19388 0.0
C1598 C 0.19979 0.56142 0.122 0.0
O1599 O 0.18348 0.57624 0.10522 0.0
O1600 O 0.22293 0.61238 0.08781 0.0
O1601 O 0.19568 0.64908 0.08882 0.0
H1602 H 0.31494 0.60187 0.05621 0.0
H1603 H 0.15686 0.62211 0.1728 0.0
O1604 O 0.17962 0.6691 0.17511 0.0
H1605 H 0.1008 0.63008 0.08081 0.0
H1606 H 0.11716 0.73295 0.13283 0.0
H1607 H 0.20264 0.70058 0.08673 0.0
H1608 H 0.14431 0.65482 0.08512 0.0
H1609 H 0.13792 0.68967 0.1492 0.0
O1610 O 0.22129 0.57173 0.1333 0.0
H1611 H 0.27364 0.62235 0.07827 0.0
H1612 H 0.27081 0.56031 0.14505 0.0
H1613 H 0.18241 0.74381 0.06938 0.0
H1614 H 0.11334 0.59719 0.1696 0.0
H1615 H 0.13937 0.76026 0.09251 0.0
H1616 H 0.08502 0.60105 0.12331 0.0
O1617 O 0.22334 0.67812 0.13492 0.0
H1618 H 0.23174 0.58464 0.23973 0.0
H1619 H 0.2897 0.62367 0.15974 0.0
H1620 H 0.30722 0.6209 0.21184 0.0
H1621 H 0.27818 0.60119 0.25226 0.0
H1622 H 0.2149 0.58817 0.18739 0.0
H1623 H 0.31196 0.53904 0.12358 0.0
H1624 H 0.33439 0.55992 0.07893 0.0
O1625 O 0.2544 0.64573 0.12597 0.0
C1626 C 0.20833 0.63029 0.07461 0.0
C1627 C 0.30544 0.59266 0.07577 0.0
C1628 C 0.30376 0.5574 0.11358 0.0
N1629 N 0.27007 0.5928 0.1132 0.0
C1630 C 0.2821 0.60421 0.08842 0.0
C1631 C 0.28046 0.56954 0.12563 0.0
C1632 C 0.31633 0.56911 0.08851 0.0
C1633 C 0.14456 0.62403 0.15267 0.0
N1634 N 0.15309 0.63995 0.1292 0.0
C1635 C 0.11998 0.60981 0.15095 0.0
C1636 C 0.10411 0.61196 0.12496 0.0
C1637 C 0.11296 0.62823 0.1011 0.0
C1638 C 0.13767 0.64212 0.10361 0.0
C1639 C 0.13589 0.72597 0.12252 0.0
C1640 C 0.18381 0.70753 0.09675 0.0
C1641 C 0.14776 0.70152 0.13175 0.0
N1642 N 0.17134 0.69252 0.11875 0.0
C1643 C 0.1725 0.73206 0.0869 0.0
C1644 C 0.14836 0.74128 0.0999 0.0
C1645 C 0.24777 0.67056 0.12994 0.0
C1646 C 0.24462 0.59319 0.2223 0.0
C1647 C 0.27689 0.61522 0.17721 0.0
C1648 C 0.28695 0.61361 0.20666 0.0
C1649 C 0.27066 0.60252 0.22933 0.0
N1650 N 0.25134 0.60601 0.17048 0.0
C1651 C 0.23525 0.59512 0.19259 0.0
Co1652 Co 0.34633 0.81451 0.88339 0.0
Co1653 Co 0.39311 0.76206 0.8845 0.0
O1654 O 0.37946 0.7966 0.86892 0.0
C1655 C 0.33757 0.80701 0.81793 0.0
O1656 O 0.34711 0.7823 0.82167 0.0
C1657 C 0.44128 0.79811 0.89322 0.0
O1658 O 0.42557 0.81561 0.9073 0.0
O1659 O 0.38993 0.77537 0.9267 0.0
O1660 O 0.356 0.80604 0.92655 0.0
H1661 H 0.39374 0.68135 0.95422 0.0
H1662 H 0.38383 0.84384 0.84221 0.0
O1663 O 0.33593 0.82317 0.84043 0.0
H1664 H 0.38047 0.89917 0.93509 0.0
H1665 H 0.27545 0.88844 0.88286 0.0
H1666 H 0.30435 0.80197 0.92947 0.0
H1667 H 0.3533 0.85711 0.93077 0.0
H1668 H 0.31772 0.86574 0.8664 0.0
O1669 O 0.43126 0.77626 0.88239 0.0
H1670 H 0.37604 0.72437 0.93324 0.0
H1671 H 0.44076 0.72683 0.86965 0.0
H1672 H 0.26206 0.82409 0.94683 0.0
H1673 H 0.41117 0.88588 0.84547 0.0
H1674 H 0.24735 0.86763 0.92343 0.0
H1675 H 0.40964 0.91382 0.89221 0.0
O1676 O 0.32494 0.78014 0.88064 0.0
H1677 H 0.41976 0.76916 0.77519 0.0
H1678 H 0.37592 0.71147 0.85235 0.0
H1679 H 0.37849 0.69532 0.79968 0.0
H1680 H 0.40055 0.72425 0.76068 0.0
H1681 H 0.41651 0.78464 0.82809 0.0
H1682 H 0.45929 0.68395 0.89009 0.0
H1683 H 0.43568 0.66087 0.93262 0.0
O1684 O 0.35553 0.74679 0.88676 0.0
C1685 C 0.37381 0.79162 0.94028 0.0
C1686 C 0.40416 0.69116 0.93561 0.0
C1687 C 0.44096 0.69263 0.89964 0.0
N1688 N 0.4072 0.72795 0.90007 0.0
C1689 C 0.39418 0.71547 0.92357 0.0
C1690 C 0.43039 0.71693 0.88818 0.0
C1691 C 0.4277 0.67969 0.9235 0.0
C1692 C 0.38289 0.85602 0.86251 0.0
N1693 N 0.36689 0.84812 0.8862 0.0
C1694 C 0.39848 0.87975 0.86428 0.0
C1695 C 0.39764 0.8954 0.89052 0.0
C1696 C 0.38129 0.88718 0.91459 0.0
C1697 C 0.36599 0.86332 0.91204 0.0
C1698 C 0.28167 0.86951 0.89328 0.0
C1699 C 0.29819 0.82103 0.91938 0.0
C1700 C 0.30556 0.85655 0.88402 0.0
N1701 N 0.31356 0.83267 0.89713 0.0
C1702 C 0.27418 0.83341 0.92922 0.0
C1703 C 0.26592 0.85782 0.91605 0.0
C1704 C 0.33109 0.75512 0.88382 0.0
C1705 C 0.41016 0.75634 0.79199 0.0
C1706 C 0.38548 0.72421 0.8355 0.0
C1707 C 0.38694 0.71493 0.80572 0.0
C1708 C 0.39934 0.73116 0.78386 0.0
N1709 N 0.39612 0.74895 0.84329 0.0
C1710 C 0.40837 0.76494 0.822 0.0
Co1711 Co 0.18684 0.34793 0.88445 0.0
Co1712 Co 0.24208 0.39197 0.88556 0.0
O1713 O 0.20623 0.38075 0.87086 0.0
C1714 C 0.19448 0.34038 0.81839 0.0
O1715 O 0.21889 0.35075 0.82184 0.0
C1716 C 0.20706 0.44077 0.89806 0.0
O1717 O 0.18575 0.42525 0.90294 0.0
O1718 O 0.23095 0.3851 0.92812 0.0
O1719 O 0.19472 0.35716 0.92779 0.0
H1720 H 0.32625 0.38222 0.94909 0.0
H1721 H 0.15959 0.38635 0.84257 0.0
O1722 O 0.17867 0.33794 0.84114 0.0
H1723 H 0.10217 0.38458 0.93394 0.0
H1724 H 0.11025 0.27988 0.88173 0.0
H1725 H 0.19669 0.30548 0.93079 0.0
H1726 H 0.14357 0.35633 0.93079 0.0
H1727 H 0.13502 0.32117 0.86586 0.0
O1728 O 0.22975 0.43053 0.89006 0.0
H1729 H 0.28157 0.36837 0.92875 0.0
H1730 H 0.27854 0.43976 0.87471 0.0
H1731 H 0.17244 0.26419 0.94765 0.0
H1732 H 0.11822 0.41475 0.84465 0.0
H1733 H 0.12891 0.25113 0.92301 0.0
H1734 H 0.08923 0.41401 0.89063 0.0
O1735 O 0.22045 0.32508 0.88246 0.0
H1736 H 0.22842 0.42879 0.7808 0.0
H1737 H 0.2913 0.37973 0.84841 0.0
H1738 H 0.30438 0.38759 0.7953 0.0
H1739 H 0.27279 0.41228 0.76109 0.0
H1740 H 0.21609 0.42021 0.83401 0.0
H1741 H 0.323 0.45455 0.89472 0.0
H1742 H 0.34721 0.42564 0.93211 0.0
O1743 O 0.25588 0.35403 0.88131 0.0
C1744 C 0.21225 0.3718 0.94163 0.0
C1745 C 0.31594 0.39495 0.93272 0.0
C1746 C 0.31412 0.43555 0.90222 0.0
N1747 N 0.27757 0.40311 0.90039 0.0
C1748 C 0.2907 0.38716 0.92104 0.0
C1749 C 0.28892 0.42709 0.89101 0.0
C1750 C 0.32768 0.41932 0.92321 0.0
C1751 C 0.14694 0.38575 0.86254 0.0
N1752 N 0.15391 0.36961 0.88646 0.0
C1753 C 0.1236 0.40195 0.86364 0.0
C1754 C 0.10737 0.40155 0.88946 0.0
C1755 C 0.11462 0.38506 0.91378 0.0
C1756 C 0.13813 0.36916 0.9119 0.0
C1757 C 0.12917 0.28538 0.89269 0.0
C1758 C 0.17765 0.30003 0.92014 0.0
C1759 C 0.14331 0.30869 0.88374 0.0
N1760 N 0.16718 0.31579 0.89752 0.0
C1761 C 0.16406 0.27659 0.9297 0.0
C1762 C 0.13965 0.26926 0.91585 0.0
C1763 C 0.24585 0.33012 0.88086 0.0
C1764 C 0.24234 0.41796 0.79546 0.0
C1765 C 0.27738 0.39027 0.83357 0.0
C1766 C 0.28495 0.3948 0.80357 0.0
C1767 C 0.26723 0.40868 0.78441 0.0
N1768 N 0.25286 0.39925 0.84418 0.0
C1769 C 0.23549 0.41309 0.82561 0.0
Co1770 Co 0.65354 0.18758 0.88347 0.0
Co1771 Co 0.60854 0.24155 0.88721 0.0
O1772 O 0.62059 0.20684 0.87047 0.0
C1773 C 0.66069 0.19604 0.8179 0.0
O1774 O 0.65273 0.22114 0.82284 0.0
C1775 C 0.55901 0.20749 0.89747 0.0
O1776 O 0.57413 0.18919 0.91108 0.0
O1777 O 0.61248 0.22739 0.92894 0.0
O1778 O 0.64528 0.19552 0.92717 0.0
H1779 H 0.61288 0.32102 0.95846 0.0
H1780 H 0.61395 0.16031 0.84298 0.0
O1781 O 0.66247 0.17936 0.83993 0.0
H1782 H 0.61818 0.103 0.93435 0.0
H1783 H 0.72197 0.11145 0.879 0.0
H1784 H 0.69697 0.19778 0.92859 0.0
H1785 H 0.64652 0.14429 0.93007 0.0
H1786 H 0.68018 0.13593 0.86421 0.0
O1787 O 0.56986 0.22879 0.88627 0.0
H1788 H 0.62835 0.27774 0.93606 0.0
H1789 H 0.56177 0.27871 0.87483 0.0
H1790 H 0.73884 0.1739 0.94423 0.0
H1791 H 0.5854 0.11907 0.84622 0.0
H1792 H 0.75157 0.13041 0.91935 0.0
H1793 H 0.58737 0.09014 0.8922 0.0
O1794 O 0.67603 0.22131 0.88083 0.0
H1795 H 0.57667 0.23814 0.77943 0.0
H1796 H 0.62675 0.29196 0.85529 0.0
H1797 H 0.62223 0.30955 0.80335 0.0
H1798 H 0.59689 0.28263 0.76505 0.0
H1799 H 0.58224 0.221 0.83146 0.0
H1800 H 0.54546 0.32189 0.89672 0.0
H1801 H 0.57114 0.34338 0.93878 0.0
O1802 O 0.64665 0.25547 0.88841 0.0
C1803 C 0.62828 0.2103 0.94168 0.0
C1804 C 0.60157 0.31191 0.94006 0.0
C1805 C 0.56372 0.31238 0.90543 0.0
N1806 N 0.59614 0.27585 0.90398 0.0
C1807 C 0.61028 0.28746 0.92722 0.0
C1808 C 0.57303 0.28791 0.89316 0.0
C1809 C 0.57813 0.32443 0.92903 0.0
C1810 C 0.61507 0.14769 0.86295 0.0
N1811 N 0.63197 0.15461 0.88623 0.0
C1812 C 0.5988 0.12443 0.8647 0.0
C1813 C 0.59989 0.10822 0.89052 0.0
C1814 C 0.61716 0.11543 0.91419 0.0
C1815 C 0.63312 0.13886 0.91166 0.0
C1816 C 0.7166 0.13035 0.89006 0.0
C1817 C 0.70227 0.17875 0.91784 0.0
C1818 C 0.69299 0.14431 0.88175 0.0
N1819 N 0.68604 0.16812 0.89572 0.0
C1820 C 0.72605 0.16537 0.92671 0.0
C1821 C 0.7332 0.14099 0.91271 0.0
C1822 C 0.67074 0.24645 0.88469 0.0
C1823 C 0.58767 0.25009 0.79595 0.0
C1824 C 0.61594 0.27999 0.83869 0.0
C1825 C 0.61333 0.29013 0.80934 0.0
C1826 C 0.59906 0.27504 0.78788 0.0
N1827 N 0.60471 0.2555 0.84642 0.0
C1828 C 0.59082 0.24053 0.82546 0.0
Co1829 Co 0.81227 0.65388 0.884 0.0
Co1830 Co 0.76081 0.60616 0.88927 0.0
O1831 O 0.79461 0.61982 0.87152 0.0
C1832 C 0.80416 0.66048 0.81806 0.0
O1833 O 0.77973 0.65022 0.82186 0.0
C1834 C 0.79756 0.55799 0.89588 0.0
O1835 O 0.81807 0.5739 0.90296 0.0
O1836 O 0.77594 0.61037 0.93062 0.0
O1837 O 0.80478 0.64574 0.92774 0.0
H1838 H 0.6847 0.60501 0.96514 0.0
H1839 H 0.84147 0.61556 0.84375 0.0
O1840 O 0.82017 0.66299 0.84057 0.0
H1841 H 0.89873 0.62324 0.93486 0.0
H1842 H 0.88572 0.72529 0.87973 0.0
H1843 H 0.79946 0.69766 0.92783 0.0
H1844 H 0.85602 0.64931 0.93057 0.0
H1845 H 0.86316 0.68236 0.86524 0.0
O1846 O 0.77462 0.56793 0.88832 0.0
H1847 H 0.72657 0.62257 0.94133 0.0
H1848 H 0.72377 0.55945 0.87586 0.0
H1849 H 0.82148 0.74059 0.9433 0.0
H1850 H 0.88419 0.58933 0.84694 0.0
H1851 H 0.86493 0.75467 0.91916 0.0
H1852 H 0.91311 0.59303 0.8928 0.0
O1853 O 0.77741 0.67465 0.88102 0.0
H1854 H 0.76427 0.57654 0.78077 0.0
H1855 H 0.70905 0.62245 0.85855 0.0
H1856 H 0.69127 0.61853 0.80667 0.0
H1857 H 0.71895 0.5954 0.76734 0.0
H1858 H 0.7814 0.5812 0.83292 0.0
H1859 H 0.68185 0.54123 0.89892 0.0
H1860 H 0.662 0.56409 0.94387 0.0
O1861 O 0.74536 0.6436 0.89115 0.0
C1862 C 0.79167 0.62785 0.94286 0.0
C1863 C 0.69307 0.59494 0.94547 0.0
C1864 C 0.69144 0.55919 0.90828 0.0
N1865 N 0.72739 0.59231 0.90695 0.0
C1866 C 0.71676 0.60481 0.93187 0.0
C1867 C 0.71515 0.56964 0.89527 0.0
C1868 C 0.68035 0.57199 0.93353 0.0
C1869 C 0.85406 0.61744 0.86366 0.0
N1870 N 0.84629 0.63399 0.88691 0.0
C1871 C 0.87818 0.60247 0.86539 0.0
C1872 C 0.89437 0.60452 0.89115 0.0
C1873 C 0.8863 0.62145 0.91477 0.0
C1874 C 0.86204 0.63609 0.91226 0.0
C1875 C 0.86684 0.71935 0.89048 0.0
C1876 C 0.81845 0.70357 0.91738 0.0
C1877 C 0.85395 0.6951 0.88233 0.0
N1878 N 0.83014 0.68742 0.89587 0.0
C1879 C 0.83079 0.72794 0.92616 0.0
C1880 C 0.85516 0.73582 0.91259 0.0
C1881 C 0.75277 0.66806 0.88636 0.0
C1882 C 0.75199 0.5866 0.79772 0.0
C1883 C 0.72127 0.61249 0.84157 0.0
C1884 C 0.71106 0.61024 0.81223 0.0
C1885 C 0.72658 0.59723 0.79019 0.0
N1886 N 0.74623 0.60203 0.84878 0.0
C1887 C 0.76153 0.58919 0.82731 0.0
C1888 C 0.23926 0.21798 0.37936 0.0
C1889 C 0.23347 0.19071 0.38694 0.0
C1890 C 0.21885 0.23803 0.37949 0.0
C1891 C 0.19172 0.23172 0.3872 0.0
H1892 H 0.2597 0.22396 0.37299 0.0
H1893 H 0.22443 0.2586 0.37321 0.0
S1894 S 0.16592 0.16359 0.41039 0.0
N1895 N 0.19852 0.1588 0.40344 0.0
N1896 N 0.16053 0.19613 0.40371 0.0
C1897 C 0.18577 0.20459 0.3953 0.0
C1898 C 0.20649 0.18423 0.39516 0.0
C1899 C 0.7947 0.1861 0.39086 0.0
C1900 C 0.76713 0.19241 0.38562 0.0
C1901 C 0.81479 0.20623 0.3909 0.0
C1902 C 0.80843 0.23379 0.38568 0.0
H1903 H 0.80106 0.16532 0.39498 0.0
H1904 H 0.83558 0.19992 0.39505 0.0
S1905 S 0.73921 0.26157 0.37141 0.0
N1906 N 0.73439 0.22852 0.37552 0.0
N1907 N 0.77224 0.26645 0.37556 0.0
C1908 C 0.78089 0.24057 0.38065 0.0
C1909 C 0.76029 0.21993 0.38063 0.0
C1910 C 0.7852 0.76268 0.37942 0.0
C1911 C 0.8125 0.76869 0.38661 0.0
C1912 C 0.76515 0.7831 0.37887 0.0
C1913 C 0.77152 0.81045 0.38553 0.0
H1914 H 0.77919 0.74205 0.37393 0.0
H1915 H 0.74453 0.77734 0.37303 0.0
S1916 S 0.83984 0.83693 0.40707 0.0
N1917 N 0.84454 0.80414 0.40139 0.0
N1918 N 0.80726 0.84212 0.40046 0.0
C1919 C 0.79871 0.81664 0.39313 0.0
C1920 C 0.81905 0.79592 0.39364 0.0
C1921 C 0.21657 0.7642 0.37914 0.0
C1922 C 0.18943 0.77038 0.38692 0.0
C1923 C 0.23685 0.78441 0.37868 0.0
C1924 C 0.23092 0.8117 0.38603 0.0
H1925 H 0.22225 0.74361 0.37308 0.0
H1926 H 0.25731 0.77852 0.37231 0.0
S1927 S 0.16325 0.83851 0.40944 0.0
N1928 N 0.15805 0.80589 0.40308 0.0
N1929 N 0.1958 0.84347 0.40237 0.0
C1930 C 0.20392 0.81804 0.39429 0.0
C1931 C 0.18332 0.79754 0.39469 0.0
C1932 C 0.21769 0.76227 0.63577 0.0
C1933 C 0.19041 0.76778 0.62796 0.0
C1934 C 0.23761 0.78282 0.63546 0.0
C1935 C 0.23119 0.8098 0.62726 0.0
H1936 H 0.22376 0.74196 0.64247 0.0
H1937 H 0.25818 0.77745 0.64194 0.0
S1938 S 0.163 0.83482 0.60331 0.0
N1939 N 0.15836 0.8023 0.6108 0.0
N1940 N 0.19549 0.84052 0.61001 0.0
C1941 C 0.20406 0.81546 0.61891 0.0
C1942 C 0.18381 0.79461 0.61932 0.0
C1943 C 0.20843 0.18687 0.62326 0.0
C1944 C 0.23597 0.19341 0.62838 0.0
C1945 C 0.18816 0.20678 0.62362 0.0
C1946 C 0.19428 0.23436 0.62912 0.0
H1947 H 0.20223 0.16607 0.61897 0.0
H1948 H 0.16741 0.20026 0.61957 0.0
S1949 S 0.26331 0.26274 0.64301 0.0
N1950 N 0.26843 0.22978 0.63854 0.0
N1951 N 0.2302 0.26732 0.63921 0.0
C1952 C 0.22178 0.2414 0.63393 0.0
C1953 C 0.24259 0.22096 0.63356 0.0
C1954 C 0.79286 0.18576 0.62655 0.0
C1955 C 0.76532 0.1925 0.63128 0.0
C1956 C 0.81322 0.20559 0.62649 0.0
C1957 C 0.80721 0.23329 0.63124 0.0
H1958 H 0.79901 0.16487 0.62276 0.0
H1959 H 0.83394 0.19891 0.62265 0.0
S1960 S 0.73825 0.26215 0.64427 0.0
N1961 N 0.73298 0.22913 0.64052 0.0
N1962 N 0.77139 0.26655 0.6405 0.0
C1963 C 0.77972 0.24051 0.63586 0.0
C1964 C 0.75881 0.22014 0.63586 0.0
C1965 C 0.78499 0.76312 0.63644 0.0
C1966 C 0.8124 0.76894 0.62946 0.0
C1967 C 0.76499 0.7836 0.63636 0.0
C1968 C 0.77148 0.81082 0.62928 0.0
H1969 H 0.77886 0.74259 0.64223 0.0
H1970 H 0.74428 0.77798 0.64205 0.0
S1971 S 0.84013 0.83679 0.60811 0.0
N1972 N 0.84468 0.80407 0.61442 0.0
N1973 N 0.8075 0.84216 0.61424 0.0
C1974 C 0.79879 0.81682 0.62192 0.0
C1975 C 0.81909 0.79604 0.62201 0.0
C1976 C 0.7177 0.73724 0.87899 0.0
C1977 C 0.69043 0.73152 0.88669 0.0
C1978 C 0.73774 0.71678 0.87908 0.0
C1979 C 0.73139 0.68969 0.88689 0.0
H1980 H 0.72368 0.75767 0.87257 0.0
H1981 H 0.75832 0.72229 0.87276 0.0
S1982 S 0.66322 0.66407 0.91033 0.0
N1983 N 0.65851 0.69665 0.90336 0.0
N1984 N 0.69573 0.65862 0.90354 0.0
C1985 C 0.70425 0.68382 0.89507 0.0
C1986 C 0.68394 0.70457 0.89496 0.0
C1987 C 0.29608 0.6863 0.88843 0.0
C1988 C 0.26833 0.69228 0.8839 0.0
C1989 C 0.31589 0.70671 0.88839 0.0
C1990 C 0.30906 0.73424 0.88386 0.0
H1991 H 0.30282 0.66558 0.89212 0.0
H1992 H 0.33683 0.70062 0.89202 0.0
S1993 S 0.23925 0.7612 0.87134 0.0
N1994 N 0.23494 0.72804 0.87498 0.0
N1995 N 0.27227 0.76651 0.87494 0.0
C1996 C 0.28136 0.7407 0.87943 0.0
C1997 C 0.26103 0.71975 0.87944 0.0
C1998 C 0.28454 0.26511 0.89844 0.0
C1999 C 0.30653 0.2666 0.87812 0.0
C2000 C 0.26407 0.28516 0.89847 0.0
C2001 C 0.26509 0.30718 0.87815 0.0
H2002 H 0.28377 0.24903 0.91517 0.0
H2003 H 0.24805 0.28407 0.91525 0.0
S2004 S 0.31532 0.317 0.81661 0.0
N2005 N 0.32588 0.2895 0.83456 0.0
N2006 N 0.28761 0.32699 0.83457 0.0
C2007 C 0.28599 0.30776 0.85654 0.0
C2008 C 0.30669 0.28749 0.85653 0.0
C2009 C 0.68725 0.29446 0.88871 0.0
C2010 C 0.69337 0.2667 0.88463 0.0
C2011 C 0.70759 0.31432 0.8887 0.0
C2012 C 0.73522 0.30755 0.88467 0.0
H2013 H 0.66646 0.30116 0.89201 0.0
H2014 H 0.70136 0.33525 0.89199 0.0
S2015 S 0.76256 0.23775 0.87347 0.0
N2016 N 0.72937 0.23335 0.87668 0.0
N2017 N 0.76773 0.27082 0.87672 0.0
C2018 C 0.74182 0.27984 0.88071 0.0
C2019 C 0.72093 0.25945 0.88067 0.0
C2020 C 0.68719 0.29381 0.12592 0.0
C2021 C 0.69377 0.26618 0.13027 0.0
C2022 C 0.70721 0.31402 0.12582 0.0
C2023 C 0.73491 0.3077 0.13009 0.0
H2024 H 0.66628 0.30012 0.12252 0.0
H2025 H 0.7007 0.33485 0.12237 0.0
S2026 S 0.76338 0.23839 0.1419 0.0
N2027 N 0.73027 0.23347 0.13859 0.0
N2028 N 0.76799 0.27152 0.13843 0.0
C2029 C 0.74196 0.28012 0.13427 0.0
C2030 C 0.72143 0.2594 0.13435 0.0
C2031 C 0.73743 0.71778 0.13604 0.0
C2032 C 0.73123 0.69057 0.12861 0.0
C2033 C 0.71738 0.73818 0.13548 0.0
C2034 C 0.69022 0.73229 0.12752 0.0
H2035 H 0.75791 0.72345 0.14257 0.0
H2036 H 0.72326 0.75869 0.14166 0.0
S2037 S 0.66341 0.66449 0.10465 0.0
N2038 N 0.69586 0.65917 0.11197 0.0
N2039 N 0.65853 0.69716 0.111 0.0
C2040 C 0.68385 0.70522 0.11961 0.0
C2041 C 0.70421 0.68451 0.12013 0.0
C2042 C 0.26382 0.71905 0.13534 0.0
C2043 C 0.26972 0.69157 0.12892 0.0
C2044 C 0.28422 0.73909 0.13491 0.0
C2045 C 0.31148 0.73258 0.12805 0.0
H2046 H 0.24326 0.72522 0.14094 0.0
H2047 H 0.27852 0.75984 0.14022 0.0
S2048 S 0.33773 0.6638 0.10828 0.0
N2049 N 0.30499 0.65919 0.11458 0.0
N2050 N 0.34301 0.69654 0.11379 0.0
C2051 C 0.3176 0.70522 0.12122 0.0
C2052 C 0.29686 0.68486 0.12165 0.0
C2053 C 0.26543 0.28665 0.13638 0.0
C2054 C 0.27138 0.31404 0.12954 0.0
C2055 C 0.28582 0.26661 0.13634 0.0
C2056 C 0.31309 0.27304 0.12944 0.0
H2057 H 0.24485 0.28054 0.14198 0.0
H2058 H 0.28007 0.24591 0.1419 0.0
S2059 S 0.33945 0.34164 0.10883 0.0
N2060 N 0.3067 0.34629 0.11493 0.0
N2061 N 0.34469 0.30896 0.11482 0.0
C2062 C 0.31926 0.30033 0.12226 0.0
C2063 C 0.29854 0.3207 0.12232 0.0
C2064 C 0.98621 0.31574 0.41237 0.0
C2065 C 0.97148 0.29986 0.39154 0.0
C2066 C 0.01485 0.31628 0.41195 0.0
C2067 C 0.02969 0.30103 0.39062 0.0
H2068 H 0.97565 0.32676 0.43003 0.0
H2069 H 0.02539 0.32765 0.42936 0.0
S2070 S 1.00055 0.25999 0.32797 0.0
N2071 N 0.97382 0.27125 0.34675 0.0
N2072 N 0.02729 0.27243 0.3458 0.0
C2073 C 0.01507 0.28666 0.36839 0.0
C2074 C 0.98607 0.28602 0.3689 0.0
C2075 C 0.71764 0.01484 0.37304 0.0
C2076 C 0.7009 0.0297 0.39285 0.0
C2077 C 0.71739 0.98643 0.37271 0.0
C2078 C 0.70042 0.97145 0.39223 0.0
H2079 H 0.7317 0.02521 0.35807 0.0
H2080 H 0.73131 0.97614 0.35753 0.0
S2081 S 0.65091 1.00049 0.44677 0.0
N2082 N 0.66542 0.02736 0.43113 0.0
N2083 N 0.66499 0.97367 0.43058 0.0
C2084 C 0.68245 0.98597 0.41107 0.0
C2085 C 0.68269 0.01514 0.41137 0.0
C2086 C 0.01568 0.67567 0.38728 0.0
C2087 C 0.02996 0.69803 0.39931 0.0
C2088 C 0.98696 0.67521 0.38728 0.0
C2089 C 0.97201 0.69708 0.39935 0.0
H2090 H 0.02667 0.65921 0.37651 0.0
H2091 H 0.97648 0.65842 0.37649 0.0
S2092 S 1.00003 0.75752 0.43877 0.0
N2093 N 0.02708 0.74048 0.42731 0.0
N2094 N 0.97354 0.73959 0.42734 0.0
C2095 C 0.9862 0.71843 0.41336 0.0
C2096 C 0.01511 0.71892 0.41334 0.0
C2097 C 0.28807 0.98683 0.37048 0.0
C2098 C 0.3047 0.97179 0.39027 0.0
C2099 C 0.28858 0.01526 0.37013 0.0
C2100 C 0.30571 0.03008 0.38961 0.0
H2101 H 0.27382 0.9766 0.35563 0.0
H2102 H 0.27468 0.02567 0.35505 0.0
S2103 S 0.35528 1.00054 0.4438 0.0
N2104 N 0.34042 0.97381 0.42827 0.0
N2105 N 0.34135 0.02748 0.42771 0.0
C2106 C 0.32366 0.01537 0.40832 0.0
C2107 C 0.32316 0.98619 0.40863 0.0
C2108 C 0.01559 0.70954 0.64613 0.0
C2109 C 0.0304 0.69399 0.6251 0.0
C2110 C 0.98714 0.70984 0.64605 0.0
C2111 C 0.9721 0.69458 0.62493 0.0
H2112 H 0.02604 0.7224 0.6623 0.0
H2113 H 0.97687 0.72289 0.66216 0.0
S2114 S 1.00089 0.64868 0.56649 0.0
N2115 N 0.02783 0.66146 0.58374 0.0
N2116 N 0.97415 0.662 0.5836 0.0
C2117 C 0.98653 0.6777 0.60481 0.0
C2118 C 0.0157 0.67741 0.60489 0.0
C2119 C 0.31673 0.98663 0.60178 0.0
C2120 C 0.30096 0.97178 0.62264 0.0
C2121 C 0.3168 0.01528 0.60192 0.0
C2122 C 0.3011 0.03001 0.62293 0.0
H2123 H 0.32804 0.97613 0.5843 0.0
H2124 H 0.32817 0.02588 0.58456 0.0
S2125 S 0.26004 1.00072 0.68549 0.0
N2126 N 0.27198 0.97404 0.66717 0.0
N2127 N 0.27211 0.0275 0.66743 0.0
C2128 C 0.28676 0.01533 0.64514 0.0
C2129 C 0.2867 0.98633 0.645 0.0
C2130 C 0.01496 0.27687 0.63907 0.0
C2131 C 0.02982 0.2964 0.62264 0.0
C2132 C 0.98653 0.27659 0.6389 0.0
C2133 C 0.97146 0.29585 0.62233 0.0
H2134 H 0.02532 0.26114 0.65181 0.0
H2135 H 0.97633 0.26068 0.65154 0.0
S2136 S 1.00033 0.35277 0.57732 0.0
N2137 N 0.02726 0.33665 0.59069 0.0
N2138 N 0.97357 0.33615 0.59042 0.0
C2139 C 0.98593 0.3163 0.60681 0.0
C2140 C 0.01512 0.31657 0.60696 0.0
C2141 C 0.67854 0.0148 0.62668 0.0
C2142 C 0.70121 0.02987 0.61666 0.0
C2143 C 0.67893 0.98609 0.6264 0.0
C2144 C 0.70199 0.97183 0.61609 0.0
H2145 H 0.661 0.02521 0.63597 0.0
H2146 H 0.66167 0.97506 0.63549 0.0
S2147 S 0.76406 0.00204 0.58197 0.0
N2148 N 0.7455 0.02844 0.59227 0.0
N2149 N 0.74623 0.97495 0.59171 0.0
C2150 C 0.72386 0.9868 0.60414 0.0
C2151 C 0.72347 0.01573 0.60443 0.0
C2152 C 0.51473 0.78689 0.87061 0.0
C2153 C 0.52949 0.80307 0.89111 0.0
C2154 C 0.48628 0.78644 0.87073 0.0
C2155 C 0.47119 0.80219 0.89133 0.0
H2156 H 0.52522 0.77374 0.85477 0.0
H2157 H 0.47607 0.773 0.85496 0.0
S2158 S 0.49981 0.84951 0.94849 0.0
N2159 N 0.5268 0.83648 0.9316 0.0
N2160 N 0.47312 0.83568 0.93177 0.0
C2161 C 0.48556 0.81954 0.91101 0.0
C2162 C 0.51473 0.81998 0.91091 0.0
C2163 C 0.18254 0.48557 0.89294 0.0
C2164 C 0.20561 0.47064 0.90199 0.0
C2165 C 0.18285 0.51428 0.89293 0.0
C2166 C 0.20626 0.52873 0.9019 0.0
H2167 H 0.16466 0.47508 0.8846 0.0
H2168 H 0.16518 0.52514 0.88464 0.0
S2169 S 0.26979 0.49901 0.93308 0.0
N2170 N 0.25088 0.47246 0.92407 0.0
N2171 N 0.2515 0.52595 0.92396 0.0
C2172 C 0.22866 0.51393 0.91286 0.0
C2173 C 0.22832 0.48497 0.91292 0.0
C2174 C 0.4857 0.22285 0.8773 0.0
C2175 C 0.47054 0.20609 0.89686 0.0
C2176 C 0.51413 0.22228 0.87703 0.0
C2177 C 0.52887 0.20493 0.89633 0.0
H2178 H 0.47556 0.237 0.86226 0.0
H2179 H 0.52462 0.23605 0.86184 0.0
S2180 S 0.49906 0.1559 0.95099 0.0
N2181 N 0.4724 0.17069 0.93526 0.0
N2182 N 0.52609 0.16965 0.93483 0.0
C2183 C 0.51406 0.18726 0.91528 0.0
C2184 C 0.48487 0.18782 0.91553 0.0
C2185 C 0.82267 0.4849 0.88859 0.0
C2186 C 0.79984 0.47006 0.89855 0.0
C2187 C 0.82254 0.51362 0.88882 0.0
C2188 C 0.79958 0.5281 0.89903 0.0
H2189 H 0.84017 0.47433 0.87942 0.0
H2190 H 0.83994 0.52448 0.87982 0.0
S2191 S 0.73713 0.49849 0.93296 0.0
N2192 N 0.75547 0.47191 0.92274 0.0
N2193 N 0.75525 0.5254 0.92326 0.0
C2194 C 0.77753 0.51333 0.9109 0.0
C2195 C 0.77766 0.48441 0.91065 0.0
C2196 C 0.488 0.21525 0.14182 0.0
C2197 C 0.47315 0.2002 0.12038 0.0
C2198 C 0.51642 0.21495 0.14219 0.0
C2199 C 0.53137 0.19957 0.12115 0.0
H2200 H 0.47762 0.22812 0.15803 0.0
H2201 H 0.52675 0.22759 0.15867 0.0
S2202 S 0.50238 0.15494 0.06161 0.0
N2203 N 0.47549 0.16808 0.07862 0.0
N2204 N 0.52918 0.16751 0.07931 0.0
C2205 C 0.51687 0.18322 0.10055 0.0
C2206 C 0.4877 0.18353 0.10017 0.0
C2207 C 0.81688 0.51415 0.10421 0.0
C2208 C 0.8016 0.529 0.12549 0.0
C2209 C 0.81646 0.48551 0.10399 0.0
C2210 C 0.80072 0.47082 0.125 0.0
H2211 H 0.82814 0.52465 0.08669 0.0
H2212 H 0.82745 0.4749 0.08634 0.0
S2213 S 0.76094 0.50004 0.18856 0.0
N2214 N 0.77316 0.52673 0.17045 0.0
N2215 N 0.77229 0.47327 0.16994 0.0
C2216 C 0.78691 0.48546 0.14762 0.0
C2217 C 0.78739 0.51445 0.14789 0.0
C2218 C 0.48684 0.7901 0.14367 0.0
C2219 C 0.47189 0.80518 0.12233 0.0
C2220 C 0.51528 0.79027 0.14375 0.0
C2221 C 0.53016 0.80551 0.12248 0.0
H2222 H 0.47651 0.77729 0.15999 0.0
H2223 H 0.52568 0.77756 0.16011 0.0
S2224 S 0.50092 0.8502 0.06314 0.0
N2225 N 0.4741 0.83723 0.08048 0.0
N2226 N 0.52779 0.83752 0.0806 0.0
C2227 C 0.51557 0.82192 0.10202 0.0
C2228 C 0.4864 0.82175 0.10195 0.0
C2229 C 0.18201 0.48818 0.10247 0.0
C2230 C 0.19635 0.47347 0.12466 0.0
C2231 C 0.18167 0.51683 0.10267 0.0
C2232 C 0.19564 0.53164 0.12507 0.0
H2233 H 0.17229 0.47761 0.08391 0.0
H2234 H 0.1717 0.52736 0.08423 0.0
S2235 S 0.2319 0.50263 0.19128 0.0
N2236 N 0.22168 0.47587 0.17183 0.0
N2237 N 0.22099 0.52934 0.17223 0.0
C2238 C 0.2082 0.51707 0.14862 0.0
C2239 C 0.20857 0.48808 0.14841 0.0
C2240 C 0.14866 0.30445 0.49197 0.0
C2241 C 0.12686 0.29331 0.47532 0.0
C2242 C 0.14868 0.30432 0.52375 0.0
C2243 C 0.12693 0.29299 0.54029 0.0
H2244 H 0.16624 0.31278 0.48043 0.0
H2245 H 0.16627 0.31252 0.53538 0.0
S2246 S 0.06339 0.26404 0.50777 0.0
N2247 N 0.08181 0.27266 0.47812 0.0
N2248 N 0.0819 0.27239 0.53745 0.0
C2249 C 0.1045 0.28279 0.52394 0.0
C2250 C 0.10445 0.28296 0.49163 0.0
C2251 C 0.69533 0.14811 0.52323 0.0
C2252 C 0.70694 0.12665 0.54 0.0
C2253 C 0.69552 0.14798 0.49146 0.0
C2254 C 0.70731 0.12638 0.47509 0.0
H2255 H 0.68664 0.16554 0.53468 0.0
H2256 H 0.68698 0.16532 0.47971 0.0
S2257 S 0.73739 0.06358 0.50814 0.0
N2258 N 0.72842 0.08202 0.53763 0.0
N2259 N 0.72876 0.08175 0.4783 0.0
C2260 C 0.71795 0.10424 0.49161 0.0
C2261 C 0.71777 0.10438 0.52389 0.0
C2262 C 0.85386 0.69526 0.49308 0.0
C2263 C 0.87585 0.70609 0.47651 0.0
C2264 C 0.85389 0.69515 0.52482 0.0
C2265 C 0.87592 0.70585 0.54142 0.0
H2266 H 0.83609 0.68738 0.4815 0.0
H2267 H 0.83614 0.6872 0.53636 0.0
S2268 S 0.93998 0.7338 0.50896 0.0
N2269 N 0.9213 0.72581 0.47929 0.0
N2270 N 0.92139 0.72559 0.53863 0.0
C2271 C 0.89854 0.71574 0.52511 0.0
C2272 C 0.8985 0.71587 0.49282 0.0
C2273 C 0.28046 0.89253 0.52216 0.0
C2274 C 0.2944 0.87246 0.53885 0.0
C2275 C 0.28069 0.8927 0.49052 0.0
C2276 C 0.29487 0.87281 0.47382 0.0
H2277 H 0.26879 0.90817 0.53355 0.0
H2278 H 0.26918 0.90846 0.47913 0.0
S2279 S 0.3359 0.81633 0.50634 0.0
N2280 N 0.32375 0.83259 0.53603 0.0
N2281 N 0.32418 0.83292 0.47666 0.0
C2282 C 0.30952 0.85296 0.49015 0.0
C2283 C 0.30928 0.85279 0.52253 0.0
C2284 C 0.14856 0.69565 0.49212 0.0
C2285 C 0.12623 0.70603 0.47583 0.0
C2286 C 0.14864 0.69522 0.52384 0.0
C2287 C 0.12637 0.70512 0.54067 0.0
H2288 H 0.16652 0.68849 0.48034 0.0
H2289 H 0.16666 0.68771 0.53521 0.0
S2290 S 0.06136 0.73129 0.50884 0.0
N2291 N 0.08018 0.72421 0.47901 0.0
N2292 N 0.0803 0.7234 0.53834 0.0
C2293 C 0.10339 0.71444 0.52461 0.0
C2294 C 0.10333 0.7149 0.49234 0.0
C2295 C 0.30722 0.14815 0.49092 0.0
C2296 C 0.29593 0.12641 0.47431 0.0
C2297 C 0.30707 0.14824 0.52266 0.0
C2298 C 0.29556 0.12662 0.53923 0.0
H2299 H 0.31571 0.16565 0.47937 0.0
H2300 H 0.31541 0.16579 0.53423 0.0
S2301 S 0.26603 0.06329 0.50686 0.0
N2302 N 0.27486 0.08156 0.47717 0.0
N2303 N 0.27452 0.08178 0.5365 0.0
C2304 C 0.28517 0.10424 0.52295 0.0
C2305 C 0.28537 0.10412 0.49065 0.0
C2306 C 0.8913 0.27661 0.49236 0.0
C2307 C 0.87276 0.29262 0.47578 0.0
C2308 C 0.89115 0.27627 0.52402 0.0
C2309 C 0.87247 0.29195 0.54081 0.0
H2310 H 0.90595 0.26379 0.48087 0.0
H2311 H 0.90572 0.26324 0.53534 0.0
S2312 S 0.82008 0.33826 0.50862 0.0
N2313 N 0.83553 0.32524 0.47886 0.0
N2314 N 0.8353 0.32465 0.5382 0.0
C2315 C 0.85413 0.30852 0.5246 0.0
C2316 C 0.85426 0.30885 0.49223 0.0
C2317 C 0.72359 0.89197 0.52212 0.0
C2318 C 0.70919 0.87229 0.53891 0.0
C2319 C 0.7234 0.89196 0.49047 0.0
C2320 C 0.70883 0.87226 0.4739 0.0
H2321 H 0.73551 0.90747 0.53342 0.0
H2322 H 0.73523 0.90744 0.47899 0.0
S2323 S 0.66672 0.8167 0.50673 0.0
N2324 N 0.67912 0.83291 0.53631 0.0
N2325 N 0.67878 0.8329 0.47695 0.0
C2326 C 0.6938 0.85276 0.49033 0.0
C2327 C 0.69398 0.85278 0.5227 0.0
C2328 C 0.64867 0.805 0.02233 0.0
C2329 C 0.62635 0.79494 0.03896 0.0
C2330 C 0.64866 0.80492 0.9906 0.0
C2331 C 0.62633 0.79478 0.97407 0.0
H2332 H 0.66667 0.81239 0.03385 0.0
H2333 H 0.66665 0.81224 0.97901 0.0
S2334 S 0.56139 0.76913 1.00664 0.0
N2335 N 0.58029 0.77668 0.03629 0.0
N2336 N 0.58027 0.77654 0.97693 0.0
C2337 C 0.6034 0.78571 0.99041 0.0
C2338 C 0.60341 0.78579 0.02271 0.0
C2339 C 0.22334 0.61014 0.99322 0.0
C2340 C 0.20861 0.62921 0.97594 0.0
C2341 C 0.22257 0.61035 0.02485 0.0
C2342 C 0.20711 0.62971 0.0409 0.0
H2343 H 0.23592 0.59493 0.98231 0.0
H2344 H 0.23465 0.59534 0.03675 0.0
S2345 S 0.16394 0.68371 1.0066 0.0
N2346 N 0.17728 0.66759 0.97746 0.0
N2347 N 0.17602 0.66816 0.03679 0.0
C2348 C 0.19182 0.64864 0.02394 0.0
C2349 C 0.19251 0.64833 0.9916 0.0
C2350 C 0.39113 0.22737 0.02231 0.0
C2351 C 0.37303 0.21115 0.03928 0.0
C2352 C 0.39039 0.22781 0.99065 0.0
C2353 C 0.37158 0.21196 0.97426 0.0
H2354 H 0.40593 0.24024 0.03351 0.0
H2355 H 0.40471 0.2409 0.97899 0.0
S2356 S 0.31997 0.16531 1.00751 0.0
N2357 N 0.33584 0.17841 0.03695 0.0
N2358 N 0.33464 0.17901 0.97764 0.0
C2359 C 0.35361 0.19525 0.99085 0.0
C2360 C 0.35427 0.19492 0.0232 0.0
C2361 C 0.80625 0.3533 0.02433 0.0
C2362 C 0.79359 0.37437 0.04075 0.0
C2363 C 0.80618 0.35305 0.99259 0.0
C2364 C 0.79343 0.37386 0.97585 0.0
H2365 H 0.81577 0.33643 0.03603 0.0
H2366 H 0.81566 0.33603 0.98115 0.0
S2367 S 0.75992 0.43535 0.00775 0.0
N2368 N 0.76976 0.41779 0.03757 0.0
N2369 N 0.76963 0.41731 0.97825 0.0
C2370 C 0.78159 0.3956 0.99197 0.0
C2371 C 0.78167 0.39586 0.02425 0.0
C2372 C 0.64953 0.19701 0.02324 0.0
C2373 C 0.6276 0.2076 0.04007 0.0
C2374 C 0.64933 0.19727 0.99149 0.0
C2375 C 0.62719 0.20814 0.97523 0.0
H2376 H 0.66738 0.1891 0.03463 0.0
H2377 H 0.66702 0.18955 0.97965 0.0
S2378 S 0.56307 0.235 0.00842 0.0
N2379 N 0.58197 0.22689 0.03788 0.0
N2380 N 0.58161 0.2274 0.97851 0.0
C2381 C 0.60462 0.21769 0.99179 0.0
C2382 C 0.60482 0.21741 0.02406 0.0
C2383 C 0.77983 0.60816 0.02504 0.0
C2384 C 0.79432 0.62798 0.04152 0.0
C2385 C 0.77961 0.60805 0.9934 0.0
C2386 C 0.79388 0.62776 0.97652 0.0
H2387 H 0.76807 0.59267 0.0366 0.0
H2388 H 0.76772 0.59248 0.98217 0.0
S2389 S 0.83621 0.68359 0.00844 0.0
N2390 N 0.82423 0.66743 0.03829 0.0
N2391 N 0.82383 0.66724 0.97893 0.0
C2392 C 0.80906 0.64736 0.99263 0.0
C2393 C 0.80927 0.64748 0.025 0.0
C2394 C 0.35398 0.80504 0.99053 0.0
C2395 C 0.37539 0.79325 0.97388 0.0
C2396 C 0.35416 0.80522 0.02226 0.0
C2397 C 0.37578 0.79365 0.0388 0.0
H2398 H 0.33653 0.81368 0.97904 0.0
H2399 H 0.33683 0.81399 0.03384 0.0
S2400 S 0.43834 0.76282 1.00608 0.0
N2401 N 0.41991 0.77154 0.97648 0.0
N2402 N 0.42028 0.7719 0.03583 0.0
C2403 C 0.39785 0.7827 0.0224 0.0
C2404 C 0.39764 0.78249 0.9901 0.0
C2405 C 0.19705 0.35371 0.99224 0.0
C2406 C 0.21088 0.37365 0.97526 0.0
C2407 C 0.19648 0.35458 0.02401 0.0
C2408 C 0.20954 0.37557 0.04024 0.0
H2409 H 0.18701 0.3369 0.98097 0.0
H2410 H 0.18604 0.33836 0.03588 0.0
S2411 S 0.24643 0.43435 1.00631 0.0
N2412 N 0.2365 0.41604 0.97709 0.0
N2413 N 0.23528 0.4179 0.03635 0.0
C2414 C 0.22268 0.39618 0.0234 0.0
C2415 C 0.2234 0.39516 0.99111 0.0
C2416 C 0.16821 0.31228 0.23276 0.0
C2417 C 0.1891 0.33151 0.22834 0.0
C2418 C 0.16053 0.30391 0.26193 0.0
C2419 C 0.17299 0.31492 0.28787 0.0
H2420 H 0.15801 0.30322 0.21352 0.0
H2421 H 0.14453 0.28885 0.26416 0.0
S2422 S 0.2283 0.36638 0.28883 0.0
N2423 N 0.22197 0.36142 0.25262 0.0
N2424 N 0.20708 0.34625 0.3072 0.0
C2425 C 0.19357 0.33448 0.28381 0.0
C2426 C 0.20175 0.3426 0.25413 0.0
C2427 C 0.65944 0.19578 0.25285 0.0
C2428 C 0.67218 0.18469 0.22714 0.0
C2429 C 0.66706 0.18779 0.28213 0.0
C2430 C 0.68818 0.1689 0.28686 0.0
H2431 H 0.64328 0.21062 0.25033 0.0
H2432 H 0.65665 0.19688 0.30121 0.0
S2433 S 0.72814 0.13401 0.22708 0.0
N2434 N 0.70676 0.15367 0.20833 0.0
N2435 N 0.72157 0.13921 0.2632 0.0
C2436 C 0.70112 0.15774 0.26132 0.0
C2437 C 0.69298 0.16546 0.23152 0.0
C2438 C 0.83357 0.68915 0.23445 0.0
C2439 C 0.81207 0.67059 0.23012 0.0
C2440 C 0.84178 0.69701 0.26357 0.0
C2441 C 0.82925 0.68614 0.28951 0.0
H2442 H 0.8439 0.69803 0.21519 0.0
H2443 H 0.85829 0.71153 0.26575 0.0
S2444 S 0.77232 0.63646 0.29065 0.0
N2445 N 0.77847 0.64151 0.25441 0.0
N2446 N 0.79431 0.65577 0.30897 0.0
C2447 C 0.80797 0.66731 0.28553 0.0
C2448 C 0.79927 0.6597 0.2559 0.0
C2449 C 0.34076 0.80442 0.25115 0.0
C2450 C 0.32849 0.81566 0.22525 0.0
C2451 C 0.3328 0.81243 0.2803 0.0
C2452 C 0.31182 0.83154 0.28471 0.0
H2453 H 0.35684 0.78946 0.24892 0.0
H2454 H 0.34289 0.80322 0.29952 0.0
S2455 S 0.273 0.8669 0.22434 0.0
N2456 N 0.29443 0.84704 0.20592 0.0
N2457 N 0.27903 0.86159 0.26056 0.0
C2458 C 0.29931 0.84285 0.25898 0.0
C2459 C 0.30777 0.83507 0.22931 0.0
C2460 C 0.16975 0.68551 0.7818 0.0
C2461 C 0.19049 0.66613 0.7861 0.0
C2462 C 0.16222 0.69411 0.75273 0.0
C2463 C 0.17472 0.68322 0.72678 0.0
H2464 H 0.15953 0.6945 0.80106 0.0
H2465 H 0.1463 0.70924 0.75058 0.0
S2466 S 0.22968 0.6314 0.72564 0.0
N2467 N 0.22326 0.63614 0.76187 0.0
N2468 N 0.20871 0.65182 0.7073 0.0
C2469 C 0.1952 0.66353 0.73073 0.0
C2470 C 0.20321 0.65514 0.76036 0.0
C2471 C 0.33707 0.18999 0.73099 0.0
C2472 C 0.31591 0.17105 0.72665 0.0
C2473 C 0.34496 0.19815 0.76014 0.0
C2474 C 0.33246 0.18717 0.78605 0.0
H2475 H 0.3473 0.19898 0.71173 0.0
H2476 H 0.36114 0.21302 0.76238 0.0
S2477 S 0.27647 0.13645 0.78709 0.0
N2478 N 0.28273 0.14146 0.75087 0.0
N2479 N 0.29802 0.15623 0.80545 0.0
C2480 C 0.3116 0.1679 0.78203 0.0
C2481 C 0.30319 0.16002 0.7524 0.0
C2482 C 0.81423 0.33343 0.73413 0.0
C2483 C 0.83296 0.31211 0.7298 0.0
C2484 C 0.80611 0.34137 0.76324 0.0
C2485 C 0.8169 0.32874 0.78915 0.0
H2486 H 0.80536 0.34377 0.71487 0.0
H2487 H 0.79142 0.35771 0.76546 0.0
S2488 S 0.86707 0.27229 0.79023 0.0
N2489 N 0.86219 0.27863 0.754 0.0
N2490 N 0.84747 0.294 0.8086 0.0
C2491 C 0.83597 0.3077 0.78517 0.0
C2492 C 0.84383 0.29925 0.75554 0.0
C2493 C 0.6997 0.8432 0.75385 0.0
C2494 C 0.68924 0.83059 0.72775 0.0
C2495 C 0.69144 0.83499 0.78286 0.0
C2496 C 0.67289 0.81341 0.78692 0.0
H2497 H 0.71416 0.85977 0.75186 0.0
H2498 H 0.69998 0.84537 0.80226 0.0
S2499 S 0.63989 0.77337 0.72587 0.0
N2500 N 0.65937 0.79544 0.70786 0.0
N2501 N 0.64436 0.77962 0.76217 0.0
C2502 C 0.66246 0.80052 0.76097 0.0
C2503 C 0.67047 0.80922 0.73147 0.0
C2504 C 0.8106 0.66518 0.73251 0.0
C2505 C 0.82925 0.68666 0.7284 0.0
C2506 C 0.8024 0.65698 0.76155 0.0
C2507 C 0.81303 0.66951 0.78761 0.0
H2508 H 0.80194 0.65485 0.71314 0.0
H2509 H 0.78787 0.64048 0.7636 0.0
S2510 S 0.86264 0.7265 0.78935 0.0
N2511 N 0.85801 0.7203 0.75307 0.0
N2512 N 0.84313 0.70451 0.80742 0.0
C2513 C 0.83188 0.6908 0.78384 0.0
C2514 C 0.83983 0.69948 0.75432 0.0
C2515 C 0.34098 0.80461 0.76157 0.0
C2516 C 0.32878 0.81595 0.78745 0.0
C2517 C 0.33288 0.81247 0.73241 0.0
C2518 C 0.31181 0.83147 0.728 0.0
H2519 H 0.3571 0.7897 0.76382 0.0
H2520 H 0.34291 0.8032 0.7132 0.0
S2521 S 0.27312 0.86698 0.78835 0.0
N2522 N 0.29471 0.8473 0.80678 0.0
N2523 N 0.27902 0.86153 0.75213 0.0
C2524 C 0.29937 0.84287 0.75372 0.0
C2525 C 0.308 0.83528 0.78339 0.0
C2526 C 0.18821 0.33578 0.73277 0.0
C2527 C 0.16972 0.31421 0.72852 0.0
C2528 C 0.19617 0.34403 0.76188 0.0
C2529 C 0.18544 0.33148 0.78791 0.0
H2530 H 0.19703 0.34607 0.71345 0.0
H2531 H 0.2107 0.36052 0.76399 0.0
S2532 S 0.1358 0.27452 0.78925 0.0
N2533 N 0.14075 0.28063 0.75298 0.0
N2534 N 0.15512 0.29656 0.80749 0.0
C2535 C 0.16658 0.31021 0.784 0.0
C2536 C 0.15891 0.30146 0.75438 0.0
C2537 C 0.69474 0.15801 0.75319 0.0
C2538 C 0.68383 0.17064 0.72732 0.0
C2539 C 0.68675 0.16595 0.78237 0.0
C2540 C 0.66804 0.18728 0.78682 0.0
H2541 H 0.70943 0.1417 0.75089 0.0
H2542 H 0.69571 0.15563 0.80158 0.0
S2543 S 0.63364 0.22706 0.72654 0.0
N2544 N 0.65316 0.20536 0.70807 0.0
N2545 N 0.63869 0.22074 0.76274 0.0
C2546 C 0.65705 0.20011 0.76112 0.0
C2547 C 0.66477 0.19166 0.73143 0.0
C2548 C 0.83586 0.31175 0.23259 0.0
C2549 C 0.81449 0.33041 0.22812 0.0
C2550 C 0.84371 0.30371 0.26179 0.0
C2551 C 0.83096 0.31456 0.2876 0.0
H2552 H 0.84628 0.30289 0.2134 0.0
H2553 H 0.86007 0.28906 0.26415 0.0
S2554 S 0.7743 0.36446 0.28831 0.0
N2555 N 0.78079 0.35953 0.25213 0.0
N2556 N 0.79604 0.345 0.30681 0.0
C2557 C 0.80988 0.33352 0.28347 0.0
C2558 C 0.8015 0.34127 0.25379 0.0
C2559 C 0.66163 0.80412 0.25143 0.0
C2560 C 0.674 0.81528 0.22554 0.0
C2561 C 0.66961 0.8121 0.28058 0.0
C2562 C 0.69072 0.83109 0.285 0.0
H2563 H 0.64545 0.78926 0.24918 0.0
H2564 H 0.65944 0.80296 0.29979 0.0
S2565 S 0.72984 0.86619 0.22465 0.0
N2566 N 0.70829 0.84645 0.20622 0.0
N2567 N 0.72373 0.86093 0.26087 0.0
C2568 C 0.70333 0.84231 0.25928 0.0
C2569 C 0.69485 0.83457 0.22961 0.0
C2570 C 0.18951 0.67016 0.28319 0.0
C2571 C 0.17025 0.69097 0.28778 0.0
C2572 C 0.19776 0.66263 0.25399 0.0
C2573 C 0.18664 0.6752 0.22821 0.0
H2574 H 0.19859 0.65982 0.30232 0.0
H2575 H 0.21277 0.64661 0.25161 0.0
S2576 S 0.13519 0.73051 0.22777 0.0
N2577 N 0.14025 0.72399 0.26393 0.0
N2578 N 0.15529 0.70943 0.20918 0.0
C2579 C 0.16714 0.69581 0.23245 0.0
C2580 C 0.15911 0.70382 0.26218 0.0
C2581 C 0.30584 0.16262 0.26179 0.0
C2582 C 0.31702 0.17472 0.28782 0.0
C2583 C 0.3141 0.17061 0.23272 0.0
C2584 C 0.33341 0.19146 0.22852 0.0
H2585 H 0.29073 0.14664 0.26385 0.0
H2586 H 0.30491 0.16066 0.2134 0.0
S2587 S 0.36876 0.22979 0.28929 0.0
N2588 N 0.34859 0.20847 0.30748 0.0
N2589 N 0.36362 0.22391 0.25301 0.0
C2590 C 0.34468 0.20378 0.25438 0.0
C2591 C 0.33664 0.19529 0.28397 0.0
loop_
_geom_bond_atom_site_label_1
_geom_bond_atom_site_label_2
_geom_bond_distance
_geom_bond_site_symmetry_2
_ccdc_geom_bond_type
Co0 O2 2.143 . S
Co0 O8 2.074 . S
Co0 O11 2.093 . S
Co0 O24 2.097 . S
Co0 N41 2.151 . S
Co0 N49 2.214 . S
Co1 O2 2.160 . S
Co1 O7 2.058 . S
Co1 O17 2.057 . S
Co1 O32 2.037 . S
Co1 N36 2.145 . S
Co1 N57 2.257 . S
O2 Co0 2.143 . S
O2 Co1 2.160 . S
C3 O4 1.278 . S
C3 O11 1.224 . S
O4 C3 1.278 . S
C5 O6 1.245 . S
C5 O17 1.232 . S
O6 C5 1.245 . S
O7 Co1 2.058 . S
O7 C33 1.269 . S
O8 Co0 2.074 . S
O8 C33 1.257 . S
H9 C34 0.930 . S
H10 C40 0.930 . S
O11 Co0 2.093 . S
O11 C3 1.224 . S
H12 C44 0.929 . S
H13 C46 0.930 . S
H14 C47 0.930 . S
H15 C45 0.929 . S
H16 C48 0.928 . S
O17 Co1 2.057 . S
O17 C5 1.232 . S
H18 C37 0.929 . S
H19 C38 0.929 . S
H20 C50 0.931 . S
H21 C42 0.929 . S
H22 C51 0.930 . S
H23 C43 0.931 . S
O24 Co0 2.097 . S
O24 C52 1.214 . S
H25 C53 0.929 . S
H26 C54 0.929 . S
H27 C55 0.930 . S
H28 C56 0.929 . S
H29 C58 0.930 . S
H30 C35 0.930 . S
H31 C39 0.930 . S
O32 Co1 2.037 . S
O32 C52 1.234 . S
C33 O7 1.269 . S
C33 O8 1.257 . S
C34 H9 0.930 . S
C34 C37 1.388 . S
C34 C39 1.418 . S
C35 H30 0.930 . S
C35 C38 1.404 . S
C35 C39 1.353 . S
N36 Co1 2.145 . S
N36 C37 1.397 . S
N36 C38 1.334 . S
C37 H18 0.929 . S
C37 C34 1.388 . S
C37 N36 1.397 . S
C38 H19 0.929 . S
C38 C35 1.404 . S
C38 N36 1.334 . S
C39 H31 0.930 . S
C39 C34 1.418 . S
C39 C35 1.353 . S
C40 H10 0.930 . S
C40 N41 1.330 . S
C40 C42 1.446 . S
N41 Co0 2.151 . S
N41 C40 1.330 . S
N41 C45 1.418 . S
C42 H21 0.929 . S
C42 C40 1.446 . S
C42 C43 1.332 . S
C43 H23 0.931 . S
C43 C42 1.332 . S
C43 C44 1.267 . S
C44 H12 0.929 . S
C44 C43 1.267 . S
C44 C45 1.251 . S
C45 H15 0.929 . S
C45 N41 1.418 . S
C45 C44 1.251 . S
C46 H13 0.930 . S
C46 C48 1.406 . S
C46 C51 1.261 . S
C47 H14 0.930 . S
C47 N49 1.325 . S
C47 C50 1.357 . S
C48 H16 0.928 . S
C48 C46 1.406 . S
C48 N49 1.261 . S
N49 Co0 2.214 . S
N49 C47 1.325 . S
N49 C48 1.261 . S
C50 H20 0.931 . S
C50 C47 1.357 . S
C50 C51 1.312 . S
C51 H22 0.930 . S
C51 C46 1.261 . S
C51 C50 1.312 . S
C52 O24 1.214 . S
C52 O32 1.234 . S
C53 H25 0.929 . S
C53 C56 1.391 . S
C53 C58 1.391 . S
C54 H26 0.929 . S
C54 C55 1.390 . S
C54 N57 1.391 . S
C55 H27 0.930 . S
C55 C54 1.390 . S
C55 C56 1.392 . S
C56 H28 0.929 . S
C56 C53 1.391 . S
C56 C55 1.392 . S
N57 Co1 2.257 . S
N57 C54 1.391 . S
N57 C58 1.388 . S
C58 H29 0.930 . S
C58 C53 1.391 . S
C58 N57 1.388 . S
Co59 O61 2.143 . S
Co59 O67 2.074 . S
Co59 O70 2.093 . S
Co59 O83 2.097 . S
Co59 N100 2.151 . S
Co59 N108 2.214 . S
Co60 O61 2.160 . S
Co60 O66 2.058 . S
Co60 O76 2.057 . S
Co60 O91 2.037 . S
Co60 N95 2.145 . S
Co60 N116 2.257 . S
O61 Co59 2.143 . S
O61 Co60 2.160 . S
C62 O63 1.278 . S
C62 O70 1.224 . S
O63 C62 1.278 . S
C64 O65 1.245 . S
C64 O76 1.232 . S
O65 C64 1.245 . S
O66 Co60 2.058 . S
O66 C92 1.269 . S
O67 Co59 2.074 . S
O67 C92 1.257 . S
H68 C93 0.930 . S
H69 C99 0.930 . S
O70 Co59 2.093 . S
O70 C62 1.224 . S
H71 C103 0.929 . S
H72 C105 0.930 . S
H73 C106 0.930 . S
H74 C104 0.929 . S
H75 C107 0.928 . S
O76 Co60 2.057 . S
O76 C64 1.232 . S
H77 C96 0.929 . S
H78 C97 0.929 . S
H79 C109 0.931 . S
H80 C101 0.929 . S
H81 C110 0.930 . S
H82 C102 0.931 . S
O83 Co59 2.097 . S
O83 C111 1.214 . S
H84 C112 0.929 . S
H85 C113 0.929 . S
H86 C114 0.930 . S
H87 C115 0.929 . S
H88 C117 0.930 . S
H89 C94 0.930 . S
H90 C98 0.930 . S
O91 Co60 2.037 . S
O91 C111 1.234 . S
C92 O66 1.269 . S
C92 O67 1.257 . S
C93 H68 0.930 . S
C93 C96 1.388 . S
C93 C98 1.418 . S
C94 H89 0.930 . S
C94 C97 1.404 . S
C94 C98 1.353 . S
N95 Co60 2.145 . S
N95 C96 1.397 . S
N95 C97 1.334 . S
C96 H77 0.929 . S
C96 C93 1.388 . S
C96 N95 1.397 . S
C97 H78 0.929 . S
C97 C94 1.404 . S
C97 N95 1.334 . S
C98 H90 0.930 . S
C98 C93 1.418 . S
C98 C94 1.353 . S
C99 H69 0.930 . S
C99 N100 1.330 . S
C99 C101 1.446 . S
N100 Co59 2.151 . S
N100 C99 1.330 . S
N100 C104 1.418 . S
C101 H80 0.929 . S
C101 C99 1.446 . S
C101 C102 1.332 . S
C102 H82 0.931 . S
C102 C101 1.332 . S
C102 C103 1.267 . S
C103 H71 0.929 . S
C103 C102 1.267 . S
C103 C104 1.251 . S
C104 H74 0.929 . S
C104 N100 1.418 . S
C104 C103 1.251 . S
C105 H72 0.930 . S
C105 C107 1.406 . S
C105 C110 1.261 . S
C106 H73 0.930 . S
C106 N108 1.325 . S
C106 C109 1.357 . S
C107 H75 0.928 . S
C107 C105 1.406 . S
C107 N108 1.261 . S
N108 Co59 2.214 . S
N108 C106 1.325 . S
N108 C107 1.261 . S
C109 H79 0.931 . S
C109 C106 1.357 . S
C109 C110 1.312 . S
C110 H81 0.930 . S
C110 C105 1.261 . S
C110 C109 1.312 . S
C111 O83 1.214 . S
C111 O91 1.234 . S
C112 H84 0.929 . S
C112 C115 1.391 . S
C112 C117 1.391 . S
C113 H85 0.929 . S
C113 C114 1.390 . S
C113 N116 1.391 . S
C114 H86 0.930 . S
C114 C113 1.390 . S
C114 C115 1.392 . S
C115 H87 0.929 . S
C115 C112 1.391 . S
C115 C114 1.392 . S
N116 Co60 2.257 . S
N116 C113 1.391 . S
N116 C117 1.388 . S
C117 H88 0.930 . S
C117 C112 1.391 . S
C117 N116 1.388 . S
Co118 O120 2.143 . S
Co118 O126 2.074 . S
Co118 O129 2.093 . S
Co118 O142 2.097 . S
Co118 N159 2.151 . S
Co118 N167 2.214 . S
Co119 O120 2.160 . S
Co119 O125 2.058 . S
Co119 O135 2.057 . S
Co119 O150 2.037 . S
Co119 N154 2.145 . S
Co119 N175 2.257 . S
O120 Co118 2.143 . S
O120 Co119 2.160 . S
C121 O122 1.278 . S
C121 O129 1.224 . S
O122 C121 1.278 . S
C123 O124 1.245 . S
C123 O135 1.232 . S
O124 C123 1.245 . S
O125 Co119 2.058 . S
O125 C151 1.269 . S
O126 Co118 2.074 . S
O126 C151 1.257 . S
H127 C152 0.930 . S
H128 C158 0.930 . S
O129 Co118 2.093 . S
O129 C121 1.224 . S
H130 C162 0.929 . S
H131 C164 0.930 . S
H132 C165 0.930 . S
H133 C163 0.929 . S
H134 C166 0.928 . S
O135 Co119 2.057 . S
O135 C123 1.232 . S
H136 C155 0.929 . S
H137 C156 0.929 . S
H138 C168 0.931 . S
H139 C160 0.929 . S
H140 C169 0.930 . S
H141 C161 0.931 . S
O142 Co118 2.097 . S
O142 C170 1.214 . S
H143 C171 0.929 . S
H144 C172 0.929 . S
H145 C173 0.930 . S
H146 C174 0.929 . S
H147 C176 0.930 . S
H148 C153 0.930 . S
H149 C157 0.930 . S
O150 Co119 2.037 . S
O150 C170 1.234 . S
C151 O125 1.269 . S
C151 O126 1.257 . S
C152 H127 0.930 . S
C152 C155 1.388 . S
C152 C157 1.418 . S
C153 H148 0.930 . S
C153 C156 1.404 . S
C153 C157 1.353 . S
N154 Co119 2.145 . S
N154 C155 1.397 . S
N154 C156 1.334 . S
C155 H136 0.929 . S
C155 C152 1.388 . S
C155 N154 1.397 . S
C156 H137 0.929 . S
C156 C153 1.404 . S
C156 N154 1.334 . S
C157 H149 0.930 . S
C157 C152 1.418 . S
C157 C153 1.353 . S
C158 H128 0.930 . S
C158 N159 1.330 . S
C158 C160 1.446 . S
N159 Co118 2.151 . S
N159 C158 1.330 . S
N159 C163 1.418 . S
C160 H139 0.929 . S
C160 C158 1.446 . S
C160 C161 1.332 . S
C161 H141 0.931 . S
C161 C160 1.332 . S
C161 C162 1.267 . S
C162 H130 0.929 . S
C162 C161 1.267 . S
C162 C163 1.251 . S
C163 H133 0.929 . S
C163 N159 1.418 . S
C163 C162 1.251 . S
C164 H131 0.930 . S
C164 C166 1.406 . S
C164 C169 1.261 . S
C165 H132 0.930 . S
C165 N167 1.325 . S
C165 C168 1.357 . S
C166 H134 0.928 . S
C166 C164 1.406 . S
C166 N167 1.261 . S
N167 Co118 2.214 . S
N167 C165 1.325 . S
N167 C166 1.261 . S
C168 H138 0.931 . S
C168 C165 1.357 . S
C168 C169 1.312 . S
C169 H140 0.930 . S
C169 C164 1.261 . S
C169 C168 1.312 . S
C170 O142 1.214 . S
C170 O150 1.234 . S
C171 H143 0.929 . S
C171 C174 1.391 . S
C171 C176 1.391 . S
C172 H144 0.929 . S
C172 C173 1.390 . S
C172 N175 1.391 . S
C173 H145 0.930 . S
C173 C172 1.390 . S
C173 C174 1.392 . S
C174 H146 0.929 . S
C174 C171 1.391 . S
C174 C173 1.392 . S
N175 Co119 2.257 . S
N175 C172 1.391 . S
N175 C176 1.388 . S
C176 H147 0.930 . S
C176 C171 1.391 . S
C176 N175 1.388 . S
Co177 O179 2.143 . S
Co177 O185 2.074 . S
Co177 O188 2.093 . S
Co177 O201 2.097 . S
Co177 N218 2.151 . S
Co177 N226 2.214 . S
Co178 O179 2.160 . S
Co178 O184 2.058 . S
Co178 O194 2.057 . S
Co178 O209 2.037 . S
Co178 N213 2.145 . S
Co178 N234 2.257 . S
O179 Co177 2.143 . S
O179 Co178 2.160 . S
C180 O181 1.278 . S
C180 O188 1.224 . S
O181 C180 1.278 . S
C182 O183 1.245 . S
C182 O194 1.232 . S
O183 C182 1.245 . S
O184 Co178 2.058 . S
O184 C210 1.269 . S
O185 Co177 2.074 . S
O185 C210 1.257 . S
H186 C211 0.930 . S
H187 C217 0.930 . S
O188 Co177 2.093 . S
O188 C180 1.224 . S
H189 C221 0.929 . S
H190 C223 0.930 . S
H191 C224 0.930 . S
H192 C222 0.929 . S
H193 C225 0.928 . S
O194 Co178 2.057 . S
O194 C182 1.232 . S
H195 C214 0.929 . S
H196 C215 0.929 . S
H197 C227 0.931 . S
H198 C219 0.929 . S
H199 C228 0.930 . S
H200 C220 0.931 . S
O201 Co177 2.097 . S
O201 C229 1.214 . S
H202 C230 0.929 . S
H203 C231 0.929 . S
H204 C232 0.930 . S
H205 C233 0.929 . S
H206 C235 0.930 . S
H207 C212 0.930 . S
H208 C216 0.930 . S
O209 Co178 2.037 . S
O209 C229 1.234 . S
C210 O184 1.269 . S
C210 O185 1.257 . S
C211 H186 0.930 . S
C211 C214 1.388 . S
C211 C216 1.418 . S
C212 H207 0.930 . S
C212 C215 1.404 . S
C212 C216 1.353 . S
N213 Co178 2.145 . S
N213 C214 1.397 . S
N213 C215 1.334 . S
C214 H195 0.929 . S
C214 C211 1.388 . S
C214 N213 1.397 . S
C215 H196 0.929 . S
C215 C212 1.404 . S
C215 N213 1.334 . S
C216 H208 0.930 . S
C216 C211 1.418 . S
C216 C212 1.353 . S
C217 H187 0.930 . S
C217 N218 1.330 . S
C217 C219 1.446 . S
N218 Co177 2.151 . S
N218 C217 1.330 . S
N218 C222 1.418 . S
C219 H198 0.929 . S
C219 C217 1.446 . S
C219 C220 1.332 . S
C220 H200 0.931 . S
C220 C219 1.332 . S
C220 C221 1.267 . S
C221 H189 0.929 . S
C221 C220 1.267 . S
C221 C222 1.251 . S
C222 H192 0.929 . S
C222 N218 1.418 . S
C222 C221 1.251 . S
C223 H190 0.930 . S
C223 C225 1.406 . S
C223 C228 1.261 . S
C224 H191 0.930 . S
C224 N226 1.325 . S
C224 C227 1.357 . S
C225 H193 0.928 . S
C225 C223 1.406 . S
C225 N226 1.261 . S
N226 Co177 2.214 . S
N226 C224 1.325 . S
N226 C225 1.261 . S
C227 H197 0.931 . S
C227 C224 1.357 . S
C227 C228 1.312 . S
C228 H199 0.930 . S
C228 C223 1.261 . S
C228 C227 1.312 . S
C229 O201 1.214 . S
C229 O209 1.234 . S
C230 H202 0.929 . S
C230 C233 1.391 . S
C230 C235 1.391 . S
C231 H203 0.929 . S
C231 C232 1.390 . S
C231 N234 1.391 . S
C232 H204 0.930 . S
C232 C231 1.390 . S
C232 C233 1.392 . S
C233 H205 0.929 . S
C233 C230 1.391 . S
C233 C232 1.392 . S
N234 Co178 2.257 . S
N234 C231 1.391 . S
N234 C235 1.388 . S
C235 H206 0.930 . S
C235 C230 1.391 . S
C235 N234 1.388 . S
Co236 O238 2.143 . S
Co236 O244 2.074 . S
Co236 O247 2.093 . S
Co236 O260 2.097 . S
Co236 N277 2.151 . S
Co236 N285 2.214 . S
Co237 O238 2.160 . S
Co237 O243 2.058 . S
Co237 O253 2.057 . S
Co237 O268 2.037 . S
Co237 N272 2.145 . S
Co237 N293 2.257 . S
O238 Co236 2.143 . S
O238 Co237 2.160 . S
C239 O240 1.278 . S
C239 O247 1.224 . S
O240 C239 1.278 . S
C241 O242 1.245 . S
C241 O253 1.232 . S
O242 C241 1.245 . S
O243 Co237 2.058 . S
O243 C269 1.269 . S
O244 Co236 2.074 . S
O244 C269 1.257 . S
H245 C270 0.930 . S
H246 C276 0.930 . S
O247 Co236 2.093 . S
O247 C239 1.224 . S
H248 C280 0.929 . S
H249 C282 0.930 . S
H250 C283 0.930 . S
H251 C281 0.929 . S
H252 C284 0.928 . S
O253 Co237 2.057 . S
O253 C241 1.232 . S
H254 C273 0.929 . S
H255 C274 0.929 . S
H256 C286 0.931 . S
H257 C278 0.929 . S
H258 C287 0.930 . S
H259 C279 0.931 . S
O260 Co236 2.097 . S
O260 C288 1.214 . S
H261 C289 0.929 . S
H262 C290 0.929 . S
H263 C291 0.930 . S
H264 C292 0.929 . S
H265 C294 0.930 . S
H266 C271 0.930 . S
H267 C275 0.930 . S
O268 Co237 2.037 . S
O268 C288 1.234 . S
C269 O243 1.269 . S
C269 O244 1.257 . S
C270 H245 0.930 . S
C270 C273 1.388 . S
C270 C275 1.418 . S
C271 H266 0.930 . S
C271 C274 1.404 . S
C271 C275 1.353 . S
N272 Co237 2.145 . S
N272 C273 1.397 . S
N272 C274 1.334 . S
C273 H254 0.929 . S
C273 C270 1.388 . S
C273 N272 1.397 . S
C274 H255 0.929 . S
C274 C271 1.404 . S
C274 N272 1.334 . S
C275 H267 0.930 . S
C275 C270 1.418 . S
C275 C271 1.353 . S
C276 H246 0.930 . S
C276 N277 1.330 . S
C276 C278 1.446 . S
N277 Co236 2.151 . S
N277 C276 1.330 . S
N277 C281 1.418 . S
C278 H257 0.929 . S
C278 C276 1.446 . S
C278 C279 1.332 . S
C279 H259 0.931 . S
C279 C278 1.332 . S
C279 C280 1.267 . S
C280 H248 0.929 . S
C280 C279 1.267 . S
C280 C281 1.251 . S
C281 H251 0.929 . S
C281 N277 1.418 . S
C281 C280 1.251 . S
C282 H249 0.930 . S
C282 C284 1.406 . S
C282 C287 1.261 . S
C283 H250 0.930 . S
C283 N285 1.325 . S
C283 C286 1.357 . S
C284 H252 0.928 . S
C284 C282 1.406 . S
C284 N285 1.261 . S
N285 Co236 2.214 . S
N285 C283 1.325 . S
N285 C284 1.261 . S
C286 H256 0.931 . S
C286 C283 1.357 . S
C286 C287 1.312 . S
C287 H258 0.930 . S
C287 C282 1.261 . S
C287 C286 1.312 . S
C288 O260 1.214 . S
C288 O268 1.234 . S
C289 H261 0.929 . S
C289 C292 1.391 . S
C289 C294 1.391 . S
C290 H262 0.929 . S
C290 C291 1.390 . S
C290 N293 1.391 . S
C291 H263 0.930 . S
C291 C290 1.390 . S
C291 C292 1.392 . S
C292 H264 0.929 . S
C292 C289 1.391 . S
C292 C291 1.392 . S
N293 Co237 2.257 . S
N293 C290 1.391 . S
N293 C294 1.388 . S
C294 H265 0.930 . S
C294 C289 1.391 . S
C294 N293 1.388 . S
Co295 O297 2.143 . S
Co295 O303 2.074 . S
Co295 O306 2.093 . S
Co295 O319 2.097 . S
Co295 N336 2.151 . S
Co295 N344 2.214 . S
Co296 O297 2.160 . S
Co296 O302 2.058 . S
Co296 O312 2.057 . S
Co296 O327 2.037 . S
Co296 N331 2.145 . S
Co296 N352 2.257 . S
O297 Co295 2.143 . S
O297 Co296 2.160 . S
C298 O299 1.278 . S
C298 O306 1.224 . S
O299 C298 1.278 . S
C300 O301 1.245 . S
C300 O312 1.232 . S
O301 C300 1.245 . S
O302 Co296 2.058 . S
O302 C328 1.269 . S
O303 Co295 2.074 . S
O303 C328 1.257 . S
H304 C329 0.930 . S
H305 C335 0.930 . S
O306 Co295 2.093 . S
O306 C298 1.224 . S
H307 C339 0.929 . S
H308 C341 0.930 . S
H309 C342 0.930 . S
H310 C340 0.929 . S
H311 C343 0.928 . S
O312 Co296 2.057 . S
O312 C300 1.232 . S
H313 C332 0.929 . S
H314 C333 0.929 . S
H315 C345 0.931 . S
H316 C337 0.929 . S
H317 C346 0.930 . S
H318 C338 0.931 . S
O319 Co295 2.097 . S
O319 C347 1.214 . S
H320 C348 0.929 . S
H321 C349 0.929 . S
H322 C350 0.930 . S
H323 C351 0.929 . S
H324 C353 0.930 . S
H325 C330 0.930 . S
H326 C334 0.930 . S
O327 Co296 2.037 . S
O327 C347 1.234 . S
C328 O302 1.269 . S
C328 O303 1.257 . S
C329 H304 0.930 . S
C329 C332 1.388 . S
C329 C334 1.418 . S
C330 H325 0.930 . S
C330 C333 1.404 . S
C330 C334 1.353 . S
N331 Co296 2.145 . S
N331 C332 1.397 . S
N331 C333 1.334 . S
C332 H313 0.929 . S
C332 C329 1.388 . S
C332 N331 1.397 . S
C333 H314 0.929 . S
C333 C330 1.404 . S
C333 N331 1.334 . S
C334 H326 0.930 . S
C334 C329 1.418 . S
C334 C330 1.353 . S
C335 H305 0.930 . S
C335 N336 1.330 . S
C335 C337 1.446 . S
N336 Co295 2.151 . S
N336 C335 1.330 . S
N336 C340 1.418 . S
C337 H316 0.929 . S
C337 C335 1.446 . S
C337 C338 1.332 . S
C338 H318 0.931 . S
C338 C337 1.332 . S
C338 C339 1.267 . S
C339 H307 0.929 . S
C339 C338 1.267 . S
C339 C340 1.251 . S
C340 H310 0.929 . S
C340 N336 1.418 . S
C340 C339 1.251 . S
C341 H308 0.930 . S
C341 C343 1.406 . S
C341 C346 1.261 . S
C342 H309 0.930 . S
C342 N344 1.325 . S
C342 C345 1.357 . S
C343 H311 0.928 . S
C343 C341 1.406 . S
C343 N344 1.261 . S
N344 Co295 2.214 . S
N344 C342 1.325 . S
N344 C343 1.261 . S
C345 H315 0.931 . S
C345 C342 1.357 . S
C345 C346 1.312 . S
C346 H317 0.930 . S
C346 C341 1.261 . S
C346 C345 1.312 . S
C347 O319 1.214 . S
C347 O327 1.234 . S
C348 H320 0.929 . S
C348 C351 1.391 . S
C348 C353 1.391 . S
C349 H321 0.929 . S
C349 C350 1.390 . S
C349 N352 1.391 . S
C350 H322 0.930 . S
C350 C349 1.390 . S
C350 C351 1.392 . S
C351 H323 0.929 . S
C351 C348 1.391 . S
C351 C350 1.392 . S
N352 Co296 2.257 . S
N352 C349 1.391 . S
N352 C353 1.388 . S
C353 H324 0.930 . S
C353 C348 1.391 . S
C353 N352 1.388 . S
Co354 O356 2.143 . S
Co354 O362 2.074 . S
Co354 O365 2.093 . S
Co354 O378 2.097 . S
Co354 N395 2.151 . S
Co354 N403 2.214 . S
Co355 O356 2.160 . S
Co355 O361 2.058 . S
Co355 O371 2.057 . S
Co355 O386 2.037 . S
Co355 N390 2.145 . S
Co355 N411 2.257 . S
O356 Co354 2.143 . S
O356 Co355 2.160 . S
C357 O358 1.278 . S
C357 O365 1.224 . S
O358 C357 1.278 . S
C359 O360 1.245 . S
C359 O371 1.232 . S
O360 C359 1.245 . S
O361 Co355 2.058 . S
O361 C387 1.269 . S
O362 Co354 2.074 . S
O362 C387 1.257 . S
H363 C388 0.930 . S
H364 C394 0.930 . S
O365 Co354 2.093 . S
O365 C357 1.224 . S
H366 C398 0.929 . S
H367 C400 0.930 . S
H368 C401 0.930 . S
H369 C399 0.929 . S
H370 C402 0.928 . S
O371 Co355 2.057 . S
O371 C359 1.232 . S
H372 C391 0.929 . S
H373 C392 0.929 . S
H374 C404 0.931 . S
H375 C396 0.929 . S
H376 C405 0.930 . S
H377 C397 0.931 . S
O378 Co354 2.097 . S
O378 C406 1.214 . S
H379 C407 0.929 . S
H380 C408 0.929 . S
H381 C409 0.930 . S
H382 C410 0.929 . S
H383 C412 0.930 . S
H384 C389 0.930 . S
H385 C393 0.930 . S
O386 Co355 2.037 . S
O386 C406 1.234 . S
C387 O361 1.269 . S
C387 O362 1.257 . S
C388 H363 0.930 . S
C388 C391 1.388 . S
C388 C393 1.418 . S
C389 H384 0.930 . S
C389 C392 1.404 . S
C389 C393 1.353 . S
N390 Co355 2.145 . S
N390 C391 1.397 . S
N390 C392 1.334 . S
C391 H372 0.929 . S
C391 C388 1.388 . S
C391 N390 1.397 . S
C392 H373 0.929 . S
C392 C389 1.404 . S
C392 N390 1.334 . S
C393 H385 0.930 . S
C393 C388 1.418 . S
C393 C389 1.353 . S
C394 H364 0.930 . S
C394 N395 1.330 . S
C394 C396 1.446 . S
N395 Co354 2.151 . S
N395 C394 1.330 . S
N395 C399 1.418 . S
C396 H375 0.929 . S
C396 C394 1.446 . S
C396 C397 1.332 . S
C397 H377 0.931 . S
C397 C396 1.332 . S
C397 C398 1.267 . S
C398 H366 0.929 . S
C398 C397 1.267 . S
C398 C399 1.251 . S
C399 H369 0.929 . S
C399 N395 1.418 . S
C399 C398 1.251 . S
C400 H367 0.930 . S
C400 C402 1.406 . S
C400 C405 1.261 . S
C401 H368 0.930 . S
C401 N403 1.325 . S
C401 C404 1.357 . S
C402 H370 0.928 . S
C402 C400 1.406 . S
C402 N403 1.261 . S
N403 Co354 2.214 . S
N403 C401 1.325 . S
N403 C402 1.261 . S
C404 H374 0.931 . S
C404 C401 1.357 . S
C404 C405 1.312 . S
C405 H376 0.930 . S
C405 C400 1.261 . S
C405 C404 1.312 . S
C406 O378 1.214 . S
C406 O386 1.234 . S
C407 H379 0.929 . S
C407 C410 1.391 . S
C407 C412 1.391 . S
C408 H380 0.929 . S
C408 C409 1.390 . S
C408 N411 1.391 . S
C409 H381 0.930 . S
C409 C408 1.390 . S
C409 C410 1.392 . S
C410 H382 0.929 . S
C410 C407 1.391 . S
C410 C409 1.392 . S
N411 Co355 2.257 . S
N411 C408 1.391 . S
N411 C412 1.388 . S
C412 H383 0.930 . S
C412 C407 1.391 . S
C412 N411 1.388 . S
Co413 O415 2.143 . S
Co413 O421 2.074 . S
Co413 O424 2.093 . S
Co413 O437 2.097 . S
Co413 N454 2.151 . S
Co413 N462 2.214 . S
Co414 O415 2.160 . S
Co414 O420 2.058 . S
Co414 O430 2.057 . S
Co414 O445 2.037 . S
Co414 N449 2.145 . S
Co414 N470 2.257 . S
O415 Co413 2.143 . S
O415 Co414 2.160 . S
C416 O417 1.278 . S
C416 O424 1.224 . S
O417 C416 1.278 . S
C418 O419 1.245 . S
C418 O430 1.232 . S
O419 C418 1.245 . S
O420 Co414 2.058 . S
O420 C446 1.269 . S
O421 Co413 2.074 . S
O421 C446 1.257 . S
H422 C447 0.930 . S
H423 C453 0.930 . S
O424 Co413 2.093 . S
O424 C416 1.224 . S
H425 C457 0.929 . S
H426 C459 0.930 . S
H427 C460 0.930 . S
H428 C458 0.929 . S
H429 C461 0.928 . S
O430 Co414 2.057 . S
O430 C418 1.232 . S
H431 C450 0.929 . S
H432 C451 0.929 . S
H433 C463 0.931 . S
H434 C455 0.929 . S
H435 C464 0.930 . S
H436 C456 0.931 . S
O437 Co413 2.097 . S
O437 C465 1.214 . S
H438 C466 0.929 . S
H439 C467 0.929 . S
H440 C468 0.930 . S
H441 C469 0.929 . S
H442 C471 0.930 . S
H443 C448 0.930 . S
H444 C452 0.930 . S
O445 Co414 2.037 . S
O445 C465 1.234 . S
C446 O420 1.269 . S
C446 O421 1.257 . S
C447 H422 0.930 . S
C447 C450 1.388 . S
C447 C452 1.418 . S
C448 H443 0.930 . S
C448 C451 1.404 . S
C448 C452 1.353 . S
N449 Co414 2.145 . S
N449 C450 1.397 . S
N449 C451 1.334 . S
C450 H431 0.929 . S
C450 C447 1.388 . S
C450 N449 1.397 . S
C451 H432 0.929 . S
C451 C448 1.404 . S
C451 N449 1.334 . S
C452 H444 0.930 . S
C452 C447 1.418 . S
C452 C448 1.353 . S
C453 H423 0.930 . S
C453 N454 1.330 . S
C453 C455 1.446 . S
N454 Co413 2.151 . S
N454 C453 1.330 . S
N454 C458 1.418 . S
C455 H434 0.929 . S
C455 C453 1.446 . S
C455 C456 1.332 . S
C456 H436 0.931 . S
C456 C455 1.332 . S
C456 C457 1.267 . S
C457 H425 0.929 . S
C457 C456 1.267 . S
C457 C458 1.251 . S
C458 H428 0.929 . S
C458 N454 1.418 . S
C458 C457 1.251 . S
C459 H426 0.930 . S
C459 C461 1.406 . S
C459 C464 1.261 . S
C460 H427 0.930 . S
C460 N462 1.325 . S
C460 C463 1.357 . S
C461 H429 0.928 . S
C461 C459 1.406 . S
C461 N462 1.261 . S
N462 Co413 2.214 . S
N462 C460 1.325 . S
N462 C461 1.261 . S
C463 H433 0.931 . S
C463 C460 1.357 . S
C463 C464 1.312 . S
C464 H435 0.930 . S
C464 C459 1.261 . S
C464 C463 1.312 . S
C465 O437 1.214 . S
C465 O445 1.234 . S
C466 H438 0.929 . S
C466 C469 1.391 . S
C466 C471 1.391 . S
C467 H439 0.929 . S
C467 C468 1.390 . S
C467 N470 1.391 . S
C468 H440 0.930 . S
C468 C467 1.390 . S
C468 C469 1.392 . S
C469 H441 0.929 . S
C469 C466 1.391 . S
C469 C468 1.392 . S
N470 Co414 2.257 . S
N470 C467 1.391 . S
N470 C471 1.388 . S
C471 H442 0.930 . S
C471 C466 1.391 . S
C471 N470 1.388 . S
Co472 O474 2.143 . S
Co472 O480 2.074 . S
Co472 O483 2.093 . S
Co472 O496 2.097 . S
Co472 N513 2.151 . S
Co472 N521 2.214 . S
Co473 O474 2.160 . S
Co473 O479 2.058 . S
Co473 O489 2.057 . S
Co473 O504 2.037 . S
Co473 N508 2.145 . S
Co473 N529 2.257 . S
O474 Co472 2.143 . S
O474 Co473 2.160 . S
C475 O476 1.278 . S
C475 O483 1.224 . S
O476 C475 1.278 . S
C477 O478 1.245 . S
C477 O489 1.232 . S
O478 C477 1.245 . S
O479 Co473 2.058 . S
O479 C505 1.269 . S
O480 Co472 2.074 . S
O480 C505 1.257 . S
H481 C506 0.930 . S
H482 C512 0.930 . S
O483 Co472 2.093 . S
O483 C475 1.224 . S
H484 C516 0.929 . S
H485 C518 0.930 . S
H486 C519 0.930 . S
H487 C517 0.929 . S
H488 C520 0.928 . S
O489 Co473 2.057 . S
O489 C477 1.232 . S
H490 C509 0.929 . S
H491 C510 0.929 . S
H492 C522 0.931 . S
H493 C514 0.929 . S
H494 C523 0.930 . S
H495 C515 0.931 . S
O496 Co472 2.097 . S
O496 C524 1.214 . S
H497 C525 0.929 . S
H498 C526 0.929 . S
H499 C527 0.930 . S
H500 C528 0.929 . S
H501 C530 0.930 . S
H502 C507 0.930 . S
H503 C511 0.930 . S
O504 Co473 2.037 . S
O504 C524 1.234 . S
C505 O479 1.269 . S
C505 O480 1.257 . S
C506 H481 0.930 . S
C506 C509 1.388 . S
C506 C511 1.418 . S
C507 H502 0.930 . S
C507 C510 1.404 . S
C507 C511 1.353 . S
N508 Co473 2.145 . S
N508 C509 1.397 . S
N508 C510 1.334 . S
C509 H490 0.929 . S
C509 C506 1.388 . S
C509 N508 1.397 . S
C510 H491 0.929 . S
C510 C507 1.404 . S
C510 N508 1.334 . S
C511 H503 0.930 . S
C511 C506 1.418 . S
C511 C507 1.353 . S
C512 H482 0.930 . S
C512 N513 1.330 . S
C512 C514 1.446 . S
N513 Co472 2.151 . S
N513 C512 1.330 . S
N513 C517 1.418 . S
C514 H493 0.929 . S
C514 C512 1.446 . S
C514 C515 1.332 . S
C515 H495 0.931 . S
C515 C514 1.332 . S
C515 C516 1.267 . S
C516 H484 0.929 . S
C516 C515 1.267 . S
C516 C517 1.251 . S
C517 H487 0.929 . S
C517 N513 1.418 . S
C517 C516 1.251 . S
C518 H485 0.930 . S
C518 C520 1.406 . S
C518 C523 1.261 . S
C519 H486 0.930 . S
C519 N521 1.325 . S
C519 C522 1.357 . S
C520 H488 0.928 . S
C520 C518 1.406 . S
C520 N521 1.261 . S
N521 Co472 2.214 . S
N521 C519 1.325 . S
N521 C520 1.261 . S
C522 H492 0.931 . S
C522 C519 1.357 . S
C522 C523 1.312 . S
C523 H494 0.930 . S
C523 C518 1.261 . S
C523 C522 1.312 . S
C524 O496 1.214 . S
C524 O504 1.234 . S
C525 H497 0.929 . S
C525 C528 1.391 . S
C525 C530 1.391 . S
C526 H498 0.929 . S
C526 C527 1.390 . S
C526 N529 1.391 . S
C527 H499 0.930 . S
C527 C526 1.390 . S
C527 C528 1.392 . S
C528 H500 0.929 . S
C528 C525 1.391 . S
C528 C527 1.392 . S
N529 Co473 2.257 . S
N529 C526 1.391 . S
N529 C530 1.388 . S
C530 H501 0.930 . S
C530 C525 1.391 . S
C530 N529 1.388 . S
Co531 O533 2.143 . S
Co531 O539 2.074 . S
Co531 O542 2.093 . S
Co531 O555 2.097 . S
Co531 N572 2.151 . S
Co531 N580 2.214 . S
Co532 O533 2.160 . S
Co532 O538 2.058 . S
Co532 O548 2.057 . S
Co532 O563 2.037 . S
Co532 N567 2.145 . S
Co532 N588 2.257 . S
O533 Co531 2.143 . S
O533 Co532 2.160 . S
C534 O535 1.278 . S
C534 O542 1.224 . S
O535 C534 1.278 . S
C536 O537 1.245 . S
C536 O548 1.232 . S
O537 C536 1.245 . S
O538 Co532 2.058 . S
O538 C564 1.269 . S
O539 Co531 2.074 . S
O539 C564 1.257 . S
H540 C565 0.930 . S
H541 C571 0.930 . S
O542 Co531 2.093 . S
O542 C534 1.224 . S
H543 C575 0.929 . S
H544 C577 0.930 . S
H545 C578 0.930 . S
H546 C576 0.929 . S
H547 C579 0.928 . S
O548 Co532 2.057 . S
O548 C536 1.232 . S
H549 C568 0.929 . S
H550 C569 0.929 . S
H551 C581 0.931 . S
H552 C573 0.929 . S
H553 C582 0.930 . S
H554 C574 0.931 . S
O555 Co531 2.097 . S
O555 C583 1.214 . S
H556 C584 0.929 . S
H557 C585 0.929 . S
H558 C586 0.930 . S
H559 C587 0.929 . S
H560 C589 0.930 . S
H561 C566 0.930 . S
H562 C570 0.930 . S
O563 Co532 2.037 . S
O563 C583 1.234 . S
C564 O538 1.269 . S
C564 O539 1.257 . S
C565 H540 0.930 . S
C565 C568 1.388 . S
C565 C570 1.418 . S
C566 H561 0.930 . S
C566 C569 1.404 . S
C566 C570 1.353 . S
N567 Co532 2.145 . S
N567 C568 1.397 . S
N567 C569 1.334 . S
C568 H549 0.929 . S
C568 C565 1.388 . S
C568 N567 1.397 . S
C569 H550 0.929 . S
C569 C566 1.404 . S
C569 N567 1.334 . S
C570 H562 0.930 . S
C570 C565 1.418 . S
C570 C566 1.353 . S
C571 H541 0.930 . S
C571 N572 1.330 . S
C571 C573 1.446 . S
N572 Co531 2.151 . S
N572 C571 1.330 . S
N572 C576 1.418 . S
C573 H552 0.929 . S
C573 C571 1.446 . S
C573 C574 1.332 . S
C574 H554 0.931 . S
C574 C573 1.332 . S
C574 C575 1.267 . S
C575 H543 0.929 . S
C575 C574 1.267 . S
C575 C576 1.251 . S
C576 H546 0.929 . S
C576 N572 1.418 . S
C576 C575 1.251 . S
C577 H544 0.930 . S
C577 C579 1.406 . S
C577 C582 1.261 . S
C578 H545 0.930 . S
C578 N580 1.325 . S
C578 C581 1.357 . S
C579 H547 0.928 . S
C579 C577 1.406 . S
C579 N580 1.261 . S
N580 Co531 2.214 . S
N580 C578 1.325 . S
N580 C579 1.261 . S
C581 H551 0.931 . S
C581 C578 1.357 . S
C581 C582 1.312 . S
C582 H553 0.930 . S
C582 C577 1.261 . S
C582 C581 1.312 . S
C583 O555 1.214 . S
C583 O563 1.234 . S
C584 H556 0.929 . S
C584 C587 1.391 . S
C584 C589 1.391 . S
C585 H557 0.929 . S
C585 C586 1.390 . S
C585 N588 1.391 . S
C586 H558 0.930 . S
C586 C585 1.390 . S
C586 C587 1.392 . S
C587 H559 0.929 . S
C587 C584 1.391 . S
C587 C586 1.392 . S
N588 Co532 2.257 . S
N588 C585 1.391 . S
N588 C589 1.388 . S
C589 H560 0.930 . S
C589 C584 1.391 . S
C589 N588 1.388 . S
Co590 O592 2.143 . S
Co590 O598 2.074 . S
Co590 O601 2.093 . S
Co590 O614 2.097 . S
Co590 N631 2.151 . S
Co590 N639 2.214 . S
Co591 O592 2.160 . S
Co591 O597 2.058 . S
Co591 O607 2.057 . S
Co591 O622 2.037 . S
Co591 N626 2.145 . S
Co591 N647 2.257 . S
O592 Co590 2.143 . S
O592 Co591 2.160 . S
C593 O594 1.278 . S
C593 O601 1.224 . S
O594 C593 1.278 . S
C595 O596 1.245 . S
C595 O607 1.232 . S
O596 C595 1.245 . S
O597 Co591 2.058 . S
O597 C623 1.269 . S
O598 Co590 2.074 . S
O598 C623 1.257 . S
H599 C624 0.930 . S
H600 C630 0.930 . S
O601 Co590 2.093 . S
O601 C593 1.224 . S
H602 C634 0.929 . S
H603 C636 0.930 . S
H604 C637 0.930 . S
H605 C635 0.929 . S
H606 C638 0.928 . S
O607 Co591 2.057 . S
O607 C595 1.232 . S
H608 C627 0.929 . S
H609 C628 0.929 . S
H610 C640 0.931 . S
H611 C632 0.929 . S
H612 C641 0.930 . S
H613 C633 0.931 . S
O614 Co590 2.097 . S
O614 C642 1.214 . S
H615 C643 0.929 . S
H616 C644 0.929 . S
H617 C645 0.930 . S
H618 C646 0.929 . S
H619 C648 0.930 . S
H620 C625 0.930 . S
H621 C629 0.930 . S
O622 Co591 2.037 . S
O622 C642 1.234 . S
C623 O597 1.269 . S
C623 O598 1.257 . S
C624 H599 0.930 . S
C624 C627 1.388 . S
C624 C629 1.418 . S
C625 H620 0.930 . S
C625 C628 1.404 . S
C625 C629 1.353 . S
N626 Co591 2.145 . S
N626 C627 1.397 . S
N626 C628 1.334 . S
C627 H608 0.929 . S
C627 C624 1.388 . S
C627 N626 1.397 . S
C628 H609 0.929 . S
C628 C625 1.404 . S
C628 N626 1.334 . S
C629 H621 0.930 . S
C629 C624 1.418 . S
C629 C625 1.353 . S
C630 H600 0.930 . S
C630 N631 1.330 . S
C630 C632 1.446 . S
N631 Co590 2.151 . S
N631 C630 1.330 . S
N631 C635 1.418 . S
C632 H611 0.929 . S
C632 C630 1.446 . S
C632 C633 1.332 . S
C633 H613 0.931 . S
C633 C632 1.332 . S
C633 C634 1.267 . S
C634 H602 0.929 . S
C634 C633 1.267 . S
C634 C635 1.251 . S
C635 H605 0.929 . S
C635 N631 1.418 . S
C635 C634 1.251 . S
C636 H603 0.930 . S
C636 C638 1.406 . S
C636 C641 1.261 . S
C637 H604 0.930 . S
C637 N639 1.325 . S
C637 C640 1.357 . S
C638 H606 0.928 . S
C638 C636 1.406 . S
C638 N639 1.261 . S
N639 Co590 2.214 . S
N639 C637 1.325 . S
N639 C638 1.261 . S
C640 H610 0.931 . S
C640 C637 1.357 . S
C640 C641 1.312 . S
C641 H612 0.930 . S
C641 C636 1.261 . S
C641 C640 1.312 . S
C642 O614 1.214 . S
C642 O622 1.234 . S
C643 H615 0.929 . S
C643 C646 1.391 . S
C643 C648 1.391 . S
C644 H616 0.929 . S
C644 C645 1.390 . S
C644 N647 1.391 . S
C645 H617 0.930 . S
C645 C644 1.390 . S
C645 C646 1.392 . S
C646 H618 0.929 . S
C646 C643 1.391 . S
C646 C645 1.392 . S
N647 Co591 2.257 . S
N647 C644 1.391 . S
N647 C648 1.388 . S
C648 H619 0.930 . S
C648 C643 1.391 . S
C648 N647 1.388 . S
Co649 O651 2.143 . S
Co649 O657 2.074 . S
Co649 O660 2.093 . S
Co649 O673 2.097 . S
Co649 N690 2.151 . S
Co649 N698 2.214 . S
Co650 O651 2.160 . S
Co650 O656 2.058 . S
Co650 O666 2.057 . S
Co650 O681 2.037 . S
Co650 N685 2.145 . S
Co650 N706 2.257 . S
O651 Co649 2.143 . S
O651 Co650 2.160 . S
C652 O653 1.278 . S
C652 O660 1.224 . S
O653 C652 1.278 . S
C654 O655 1.245 . S
C654 O666 1.232 . S
O655 C654 1.245 . S
O656 Co650 2.058 . S
O656 C682 1.269 . S
O657 Co649 2.074 . S
O657 C682 1.257 . S
H658 C683 0.930 . S
H659 C689 0.930 . S
O660 Co649 2.093 . S
O660 C652 1.224 . S
H661 C693 0.929 . S
H662 C695 0.930 . S
H663 C696 0.930 . S
H664 C694 0.929 . S
H665 C697 0.928 . S
O666 Co650 2.057 . S
O666 C654 1.232 . S
H667 C686 0.929 . S
H668 C687 0.929 . S
H669 C699 0.931 . S
H670 C691 0.929 . S
H671 C700 0.930 . S
H672 C692 0.931 . S
O673 Co649 2.097 . S
O673 C701 1.214 . S
H674 C702 0.929 . S
H675 C703 0.929 . S
H676 C704 0.930 . S
H677 C705 0.929 . S
H678 C707 0.930 . S
H679 C684 0.930 . S
H680 C688 0.930 . S
O681 Co650 2.037 . S
O681 C701 1.234 . S
C682 O656 1.269 . S
C682 O657 1.257 . S
C683 H658 0.930 . S
C683 C686 1.388 . S
C683 C688 1.418 . S
C684 H679 0.930 . S
C684 C687 1.404 . S
C684 C688 1.353 . S
N685 Co650 2.145 . S
N685 C686 1.397 . S
N685 C687 1.334 . S
C686 H667 0.929 . S
C686 C683 1.388 . S
C686 N685 1.397 . S
C687 H668 0.929 . S
C687 C684 1.404 . S
C687 N685 1.334 . S
C688 H680 0.930 . S
C688 C683 1.418 . S
C688 C684 1.353 . S
C689 H659 0.930 . S
C689 N690 1.330 . S
C689 C691 1.446 . S
N690 Co649 2.151 . S
N690 C689 1.330 . S
N690 C694 1.418 . S
C691 H670 0.929 . S
C691 C689 1.446 . S
C691 C692 1.332 . S
C692 H672 0.931 . S
C692 C691 1.332 . S
C692 C693 1.267 . S
C693 H661 0.929 . S
C693 C692 1.267 . S
C693 C694 1.251 . S
C694 H664 0.929 . S
C694 N690 1.418 . S
C694 C693 1.251 . S
C695 H662 0.930 . S
C695 C697 1.406 . S
C695 C700 1.261 . S
C696 H663 0.930 . S
C696 N698 1.325 . S
C696 C699 1.357 . S
C697 H665 0.928 . S
C697 C695 1.406 . S
C697 N698 1.261 . S
N698 Co649 2.214 . S
N698 C696 1.325 . S
N698 C697 1.261 . S
C699 H669 0.931 . S
C699 C696 1.357 . S
C699 C700 1.312 . S
C700 H671 0.930 . S
C700 C695 1.261 . S
C700 C699 1.312 . S
C701 O673 1.214 . S
C701 O681 1.234 . S
C702 H674 0.929 . S
C702 C705 1.391 . S
C702 C707 1.391 . S
C703 H675 0.929 . S
C703 C704 1.390 . S
C703 N706 1.391 . S
C704 H676 0.930 . S
C704 C703 1.390 . S
C704 C705 1.392 . S
C705 H677 0.929 . S
C705 C702 1.391 . S
C705 C704 1.392 . S
N706 Co650 2.257 . S
N706 C703 1.391 . S
N706 C707 1.388 . S
C707 H678 0.930 . S
C707 C702 1.391 . S
C707 N706 1.388 . S
Co708 O710 2.143 . S
Co708 O716 2.074 . S
Co708 O719 2.093 . S
Co708 O732 2.097 . S
Co708 N749 2.151 . S
Co708 N757 2.214 . S
Co709 O710 2.160 . S
Co709 O715 2.058 . S
Co709 O725 2.057 . S
Co709 O740 2.037 . S
Co709 N744 2.145 . S
Co709 N765 2.257 . S
O710 Co708 2.143 . S
O710 Co709 2.160 . S
C711 O712 1.278 . S
C711 O719 1.224 . S
O712 C711 1.278 . S
C713 O714 1.245 . S
C713 O725 1.232 . S
O714 C713 1.245 . S
O715 Co709 2.058 . S
O715 C741 1.269 . S
O716 Co708 2.074 . S
O716 C741 1.257 . S
H717 C742 0.930 . S
H718 C748 0.930 . S
O719 Co708 2.093 . S
O719 C711 1.224 . S
H720 C752 0.929 . S
H721 C754 0.930 . S
H722 C755 0.930 . S
H723 C753 0.929 . S
H724 C756 0.928 . S
O725 Co709 2.057 . S
O725 C713 1.232 . S
H726 C745 0.929 . S
H727 C746 0.929 . S
H728 C758 0.931 . S
H729 C750 0.929 . S
H730 C759 0.930 . S
H731 C751 0.931 . S
O732 Co708 2.097 . S
O732 C760 1.214 . S
H733 C761 0.929 . S
H734 C762 0.929 . S
H735 C763 0.930 . S
H736 C764 0.929 . S
H737 C766 0.930 . S
H738 C743 0.930 . S
H739 C747 0.930 . S
O740 Co709 2.037 . S
O740 C760 1.234 . S
C741 O715 1.269 . S
C741 O716 1.257 . S
C742 H717 0.930 . S
C742 C745 1.388 . S
C742 C747 1.418 . S
C743 H738 0.930 . S
C743 C746 1.404 . S
C743 C747 1.353 . S
N744 Co709 2.145 . S
N744 C745 1.397 . S
N744 C746 1.334 . S
C745 H726 0.929 . S
C745 C742 1.388 . S
C745 N744 1.397 . S
C746 H727 0.929 . S
C746 C743 1.404 . S
C746 N744 1.334 . S
C747 H739 0.930 . S
C747 C742 1.418 . S
C747 C743 1.353 . S
C748 H718 0.930 . S
C748 N749 1.330 . S
C748 C750 1.446 . S
N749 Co708 2.151 . S
N749 C748 1.330 . S
N749 C753 1.418 . S
C750 H729 0.929 . S
C750 C748 1.446 . S
C750 C751 1.332 . S
C751 H731 0.931 . S
C751 C750 1.332 . S
C751 C752 1.267 . S
C752 H720 0.929 . S
C752 C751 1.267 . S
C752 C753 1.251 . S
C753 H723 0.929 . S
C753 N749 1.418 . S
C753 C752 1.251 . S
C754 H721 0.930 . S
C754 C756 1.406 . S
C754 C759 1.261 . S
C755 H722 0.930 . S
C755 N757 1.325 . S
C755 C758 1.357 . S
C756 H724 0.928 . S
C756 C754 1.406 . S
C756 N757 1.261 . S
N757 Co708 2.214 . S
N757 C755 1.325 . S
N757 C756 1.261 . S
C758 H728 0.931 . S
C758 C755 1.357 . S
C758 C759 1.312 . S
C759 H730 0.930 . S
C759 C754 1.261 . S
C759 C758 1.312 . S
C760 O732 1.214 . S
C760 O740 1.234 . S
C761 H733 0.929 . S
C761 C764 1.391 . S
C761 C766 1.391 . S
C762 H734 0.929 . S
C762 C763 1.390 . S
C762 N765 1.391 . S
C763 H735 0.930 . S
C763 C762 1.390 . S
C763 C764 1.392 . S
C764 H736 0.929 . S
C764 C761 1.391 . S
C764 C763 1.392 . S
N765 Co709 2.257 . S
N765 C762 1.391 . S
N765 C766 1.388 . S
C766 H737 0.930 . S
C766 C761 1.391 . S
C766 N765 1.388 . S
Co767 O769 2.143 . S
Co767 O775 2.074 . S
Co767 O778 2.093 . S
Co767 O791 2.097 . S
Co767 N808 2.151 . S
Co767 N816 2.214 . S
Co768 O769 2.160 . S
Co768 O774 2.058 . S
Co768 O784 2.057 . S
Co768 O799 2.037 . S
Co768 N803 2.145 . S
Co768 N824 2.257 . S
O769 Co767 2.143 . S
O769 Co768 2.160 . S
C770 O771 1.278 . S
C770 O778 1.224 . S
O771 C770 1.278 . S
C772 O773 1.245 . S
C772 O784 1.232 . S
O773 C772 1.245 . S
O774 Co768 2.058 . S
O774 C800 1.269 . S
O775 Co767 2.074 . S
O775 C800 1.257 . S
H776 C801 0.930 . S
H777 C807 0.930 . S
O778 Co767 2.093 . S
O778 C770 1.224 . S
H779 C811 0.929 . S
H780 C813 0.930 . S
H781 C814 0.930 . S
H782 C812 0.929 . S
H783 C815 0.928 . S
O784 Co768 2.057 . S
O784 C772 1.232 . S
H785 C804 0.929 . S
H786 C805 0.929 . S
H787 C817 0.931 . S
H788 C809 0.929 . S
H789 C818 0.930 . S
H790 C810 0.931 . S
O791 Co767 2.097 . S
O791 C819 1.214 . S
H792 C820 0.929 . S
H793 C821 0.929 . S
H794 C822 0.930 . S
H795 C823 0.929 . S
H796 C825 0.930 . S
H797 C802 0.930 . S
H798 C806 0.930 . S
O799 Co768 2.037 . S
O799 C819 1.234 . S
C800 O774 1.269 . S
C800 O775 1.257 . S
C801 H776 0.930 . S
C801 C804 1.388 . S
C801 C806 1.418 . S
C802 H797 0.930 . S
C802 C805 1.404 . S
C802 C806 1.353 . S
N803 Co768 2.145 . S
N803 C804 1.397 . S
N803 C805 1.334 . S
C804 H785 0.929 . S
C804 C801 1.388 . S
C804 N803 1.397 . S
C805 H786 0.929 . S
C805 C802 1.404 . S
C805 N803 1.334 . S
C806 H798 0.930 . S
C806 C801 1.418 . S
C806 C802 1.353 . S
C807 H777 0.930 . S
C807 N808 1.330 . S
C807 C809 1.446 . S
N808 Co767 2.151 . S
N808 C807 1.330 . S
N808 C812 1.418 . S
C809 H788 0.929 . S
C809 C807 1.446 . S
C809 C810 1.332 . S
C810 H790 0.931 . S
C810 C809 1.332 . S
C810 C811 1.267 . S
C811 H779 0.929 . S
C811 C810 1.267 . S
C811 C812 1.251 . S
C812 H782 0.929 . S
C812 N808 1.418 . S
C812 C811 1.251 . S
C813 H780 0.930 . S
C813 C815 1.406 . S
C813 C818 1.261 . S
C814 H781 0.930 . S
C814 N816 1.325 . S
C814 C817 1.357 . S
C815 H783 0.928 . S
C815 C813 1.406 . S
C815 N816 1.261 . S
N816 Co767 2.214 . S
N816 C814 1.325 . S
N816 C815 1.261 . S
C817 H787 0.931 . S
C817 C814 1.357 . S
C817 C818 1.312 . S
C818 H789 0.930 . S
C818 C813 1.261 . S
C818 C817 1.312 . S
C819 O791 1.214 . S
C819 O799 1.234 . S
C820 H792 0.929 . S
C820 C823 1.391 . S
C820 C825 1.391 . S
C821 H793 0.929 . S
C821 C822 1.390 . S
C821 N824 1.391 . S
C822 H794 0.930 . S
C822 C821 1.390 . S
C822 C823 1.392 . S
C823 H795 0.929 . S
C823 C820 1.391 . S
C823 C822 1.392 . S
N824 Co768 2.257 . S
N824 C821 1.391 . S
N824 C825 1.388 . S
C825 H796 0.930 . S
C825 C820 1.391 . S
C825 N824 1.388 . S
Co826 O828 2.143 . S
Co826 O834 2.074 . S
Co826 O837 2.093 . S
Co826 O850 2.097 . S
Co826 N867 2.151 . S
Co826 N875 2.214 . S
Co827 O828 2.160 . S
Co827 O833 2.058 . S
Co827 O843 2.057 . S
Co827 O858 2.037 . S
Co827 N862 2.145 . S
Co827 N883 2.257 . S
O828 Co826 2.143 . S
O828 Co827 2.160 . S
C829 O830 1.278 . S
C829 O837 1.224 . S
O830 C829 1.278 . S
C831 O832 1.245 . S
C831 O843 1.232 . S
O832 C831 1.245 . S
O833 Co827 2.058 . S
O833 C859 1.269 . S
O834 Co826 2.074 . S
O834 C859 1.257 . S
H835 C860 0.930 . S
H836 C866 0.930 . S
O837 Co826 2.093 . S
O837 C829 1.224 . S
H838 C870 0.929 . S
H839 C872 0.930 . S
H840 C873 0.930 . S
H841 C871 0.929 . S
H842 C874 0.928 . S
O843 Co827 2.057 . S
O843 C831 1.232 . S
H844 C863 0.929 . S
H845 C864 0.929 . S
H846 C876 0.931 . S
H847 C868 0.929 . S
H848 C877 0.930 . S
H849 C869 0.931 . S
O850 Co826 2.097 . S
O850 C878 1.214 . S
H851 C879 0.929 . S
H852 C880 0.929 . S
H853 C881 0.930 . S
H854 C882 0.929 . S
H855 C884 0.930 . S
H856 C861 0.930 . S
H857 C865 0.930 . S
O858 Co827 2.037 . S
O858 C878 1.234 . S
C859 O833 1.269 . S
C859 O834 1.257 . S
C860 H835 0.930 . S
C860 C863 1.388 . S
C860 C865 1.418 . S
C861 H856 0.930 . S
C861 C864 1.404 . S
C861 C865 1.353 . S
N862 Co827 2.145 . S
N862 C863 1.397 . S
N862 C864 1.334 . S
C863 H844 0.929 . S
C863 C860 1.388 . S
C863 N862 1.397 . S
C864 H845 0.929 . S
C864 C861 1.404 . S
C864 N862 1.334 . S
C865 H857 0.930 . S
C865 C860 1.418 . S
C865 C861 1.353 . S
C866 H836 0.930 . S
C866 N867 1.330 . S
C866 C868 1.446 . S
N867 Co826 2.151 . S
N867 C866 1.330 . S
N867 C871 1.418 . S
C868 H847 0.929 . S
C868 C866 1.446 . S
C868 C869 1.332 . S
C869 H849 0.931 . S
C869 C868 1.332 . S
C869 C870 1.267 . S
C870 H838 0.929 . S
C870 C869 1.267 . S
C870 C871 1.251 . S
C871 H841 0.929 . S
C871 N867 1.418 . S
C871 C870 1.251 . S
C872 H839 0.930 . S
C872 C874 1.406 . S
C872 C877 1.261 . S
C873 H840 0.930 . S
C873 N875 1.325 . S
C873 C876 1.357 . S
C874 H842 0.928 . S
C874 C872 1.406 . S
C874 N875 1.261 . S
N875 Co826 2.214 . S
N875 C873 1.325 . S
N875 C874 1.261 . S
C876 H846 0.931 . S
C876 C873 1.357 . S
C876 C877 1.312 . S
C877 H848 0.930 . S
C877 C872 1.261 . S
C877 C876 1.312 . S
C878 O850 1.214 . S
C878 O858 1.234 . S
C879 H851 0.929 . S
C879 C882 1.391 . S
C879 C884 1.391 . S
C880 H852 0.929 . S
C880 C881 1.390 . S
C880 N883 1.391 . S
C881 H853 0.930 . S
C881 C880 1.390 . S
C881 C882 1.392 . S
C882 H854 0.929 . S
C882 C879 1.391 . S
C882 C881 1.392 . S
N883 Co827 2.257 . S
N883 C880 1.391 . S
N883 C884 1.388 . S
C884 H855 0.930 . S
C884 C879 1.391 . S
C884 N883 1.388 . S
Co885 O887 2.143 . S
Co885 O893 2.074 . S
Co885 O896 2.093 . S
Co885 O909 2.097 . S
Co885 N926 2.151 . S
Co885 N934 2.214 . S
Co886 O887 2.160 . S
Co886 O892 2.058 . S
Co886 O902 2.057 . S
Co886 O917 2.037 . S
Co886 N921 2.145 . S
Co886 N942 2.257 . S
O887 Co885 2.143 . S
O887 Co886 2.160 . S
C888 O889 1.278 . S
C888 O896 1.224 . S
O889 C888 1.278 . S
C890 O891 1.245 . S
C890 O902 1.232 . S
O891 C890 1.245 . S
O892 Co886 2.058 . S
O892 C918 1.269 . S
O893 Co885 2.074 . S
O893 C918 1.257 . S
H894 C919 0.930 . S
H895 C925 0.930 . S
O896 Co885 2.093 . S
O896 C888 1.224 . S
H897 C929 0.929 . S
H898 C931 0.930 . S
H899 C932 0.930 . S
H900 C930 0.929 . S
H901 C933 0.928 . S
O902 Co886 2.057 . S
O902 C890 1.232 . S
H903 C922 0.929 . S
H904 C923 0.929 . S
H905 C935 0.931 . S
H906 C927 0.929 . S
H907 C936 0.930 . S
H908 C928 0.931 . S
O909 Co885 2.097 . S
O909 C937 1.214 . S
H910 C938 0.929 . S
H911 C939 0.929 . S
H912 C940 0.930 . S
H913 C941 0.929 . S
H914 C943 0.930 . S
H915 C920 0.930 . S
H916 C924 0.930 . S
O917 Co886 2.037 . S
O917 C937 1.234 . S
C918 O892 1.269 . S
C918 O893 1.257 . S
C919 H894 0.930 . S
C919 C922 1.388 . S
C919 C924 1.418 . S
C920 H915 0.930 . S
C920 C923 1.404 . S
C920 C924 1.353 . S
N921 Co886 2.145 . S
N921 C922 1.397 . S
N921 C923 1.334 . S
C922 H903 0.929 . S
C922 C919 1.388 . S
C922 N921 1.397 . S
C923 H904 0.929 . S
C923 C920 1.404 . S
C923 N921 1.334 . S
C924 H916 0.930 . S
C924 C919 1.418 . S
C924 C920 1.353 . S
C925 H895 0.930 . S
C925 N926 1.330 . S
C925 C927 1.446 . S
N926 Co885 2.151 . S
N926 C925 1.330 . S
N926 C930 1.418 . S
C927 H906 0.929 . S
C927 C925 1.446 . S
C927 C928 1.332 . S
C928 H908 0.931 . S
C928 C927 1.332 . S
C928 C929 1.267 . S
C929 H897 0.929 . S
C929 C928 1.267 . S
C929 C930 1.251 . S
C930 H900 0.929 . S
C930 N926 1.418 . S
C930 C929 1.251 . S
C931 H898 0.930 . S
C931 C933 1.406 . S
C931 C936 1.261 . S
C932 H899 0.930 . S
C932 N934 1.325 . S
C932 C935 1.357 . S
C933 H901 0.928 . S
C933 C931 1.406 . S
C933 N934 1.261 . S
N934 Co885 2.214 . S
N934 C932 1.325 . S
N934 C933 1.261 . S
C935 H905 0.931 . S
C935 C932 1.357 . S
C935 C936 1.312 . S
C936 H907 0.930 . S
C936 C931 1.261 . S
C936 C935 1.312 . S
C937 O909 1.214 . S
C937 O917 1.234 . S
C938 H910 0.929 . S
C938 C941 1.391 . S
C938 C943 1.391 . S
C939 H911 0.929 . S
C939 C940 1.390 . S
C939 N942 1.391 . S
C940 H912 0.930 . S
C940 C939 1.390 . S
C940 C941 1.392 . S
C941 H913 0.929 . S
C941 C938 1.391 . S
C941 C940 1.392 . S
N942 Co886 2.257 . S
N942 C939 1.391 . S
N942 C943 1.388 . S
C943 H914 0.930 . S
C943 C938 1.391 . S
C943 N942 1.388 . S
Co944 O946 2.143 . S
Co944 O952 2.074 . S
Co944 O955 2.093 . S
Co944 O968 2.097 . S
Co944 N985 2.151 . S
Co944 N993 2.214 . S
Co945 O946 2.160 . S
Co945 O951 2.058 . S
Co945 O961 2.057 . S
Co945 O976 2.037 . S
Co945 N980 2.145 . S
Co945 N1001 2.257 . S
O946 Co944 2.143 . S
O946 Co945 2.160 . S
C947 O948 1.278 . S
C947 O955 1.224 . S
O948 C947 1.278 . S
C949 O950 1.245 . S
C949 O961 1.232 . S
O950 C949 1.245 . S
O951 Co945 2.058 . S
O951 C977 1.269 . S
O952 Co944 2.074 . S
O952 C977 1.257 . S
H953 C978 0.930 . S
H954 C984 0.930 . S
O955 Co944 2.093 . S
O955 C947 1.224 . S
H956 C988 0.929 . S
H957 C990 0.930 . S
H958 C991 0.930 . S
H959 C989 0.929 . S
H960 C992 0.928 . S
O961 Co945 2.057 . S
O961 C949 1.232 . S
H962 C981 0.929 . S
H963 C982 0.929 . S
H964 C994 0.931 . S
H965 C986 0.929 . S
H966 C995 0.930 . S
H967 C987 0.931 . S
O968 Co944 2.097 . S
O968 C996 1.214 . S
H969 C997 0.929 . S
H970 C998 0.929 . S
H971 C999 0.930 . S
H972 C1000 0.929 . S
H973 C1002 0.930 . S
H974 C979 0.930 . S
H975 C983 0.930 . S
O976 Co945 2.037 . S
O976 C996 1.234 . S
C977 O951 1.269 . S
C977 O952 1.257 . S
C978 H953 0.930 . S
C978 C981 1.388 . S
C978 C983 1.418 . S
C979 H974 0.930 . S
C979 C982 1.404 . S
C979 C983 1.353 . S
N980 Co945 2.145 . S
N980 C981 1.397 . S
N980 C982 1.334 . S
C981 H962 0.929 . S
C981 C978 1.388 . S
C981 N980 1.397 . S
C982 H963 0.929 . S
C982 C979 1.404 . S
C982 N980 1.334 . S
C983 H975 0.930 . S
C983 C978 1.418 . S
C983 C979 1.353 . S
C984 H954 0.930 . S
C984 N985 1.330 . S
C984 C986 1.446 . S
N985 Co944 2.151 . S
N985 C984 1.330 . S
N985 C989 1.418 . S
C986 H965 0.929 . S
C986 C984 1.446 . S
C986 C987 1.332 . S
C987 H967 0.931 . S
C987 C986 1.332 . S
C987 C988 1.267 . S
C988 H956 0.929 . S
C988 C987 1.267 . S
C988 C989 1.251 . S
C989 H959 0.929 . S
C989 N985 1.418 . S
C989 C988 1.251 . S
C990 H957 0.930 . S
C990 C992 1.406 . S
C990 C995 1.261 . S
C991 H958 0.930 . S
C991 N993 1.325 . S
C991 C994 1.357 . S
C992 H960 0.928 . S
C992 C990 1.406 . S
C992 N993 1.261 . S
N993 Co944 2.214 . S
N993 C991 1.325 . S
N993 C992 1.261 . S
C994 H964 0.931 . S
C994 C991 1.357 . S
C994 C995 1.312 . S
C995 H966 0.930 . S
C995 C990 1.261 . S
C995 C994 1.312 . S
C996 O968 1.214 . S
C996 O976 1.234 . S
C997 H969 0.929 . S
C997 C1000 1.391 . S
C997 C1002 1.391 . S
C998 H970 0.929 . S
C998 C999 1.390 . S
C998 N1001 1.391 . S
C999 H971 0.930 . S
C999 C998 1.390 . S
C999 C1000 1.392 . S
C1000 H972 0.929 . S
C1000 C997 1.391 . S
C1000 C999 1.392 . S
N1001 Co945 2.257 . S
N1001 C998 1.391 . S
N1001 C1002 1.388 . S
C1002 H973 0.930 . S
C1002 C997 1.391 . S
C1002 N1001 1.388 . S
Co1003 O1005 2.143 . S
Co1003 O1011 2.074 . S
Co1003 O1014 2.093 . S
Co1003 O1027 2.097 . S
Co1003 N1044 2.151 . S
Co1003 N1052 2.214 . S
Co1004 O1005 2.160 . S
Co1004 O1010 2.058 . S
Co1004 O1020 2.057 . S
Co1004 O1035 2.037 . S
Co1004 N1039 2.145 . S
Co1004 N1060 2.257 . S
O1005 Co1003 2.143 . S
O1005 Co1004 2.160 . S
C1006 O1007 1.278 . S
C1006 O1014 1.224 . S
O1007 C1006 1.278 . S
C1008 O1009 1.245 . S
C1008 O1020 1.232 . S
O1009 C1008 1.245 . S
O1010 Co1004 2.058 . S
O1010 C1036 1.269 . S
O1011 Co1003 2.074 . S
O1011 C1036 1.257 . S
H1012 C1037 0.930 . S
H1013 C1043 0.930 . S
O1014 Co1003 2.093 . S
O1014 C1006 1.224 . S
H1015 C1047 0.929 . S
H1016 C1049 0.930 . S
H1017 C1050 0.930 . S
H1018 C1048 0.929 . S
H1019 C1051 0.928 . S
O1020 Co1004 2.057 . S
O1020 C1008 1.232 . S
H1021 C1040 0.929 . S
H1022 C1041 0.929 . S
H1023 C1053 0.931 . S
H1024 C1045 0.929 . S
H1025 C1054 0.930 . S
H1026 C1046 0.931 . S
O1027 Co1003 2.097 . S
O1027 C1055 1.214 . S
H1028 C1056 0.929 . S
H1029 C1057 0.929 . S
H1030 C1058 0.930 . S
H1031 C1059 0.929 . S
H1032 C1061 0.930 . S
H1033 C1038 0.930 . S
H1034 C1042 0.930 . S
O1035 Co1004 2.037 . S
O1035 C1055 1.234 . S
C1036 O1010 1.269 . S
C1036 O1011 1.257 . S
C1037 H1012 0.930 . S
C1037 C1040 1.388 . S
C1037 C1042 1.418 . S
C1038 H1033 0.930 . S
C1038 C1041 1.404 . S
C1038 C1042 1.353 . S
N1039 Co1004 2.145 . S
N1039 C1040 1.397 . S
N1039 C1041 1.334 . S
C1040 H1021 0.929 . S
C1040 C1037 1.388 . S
C1040 N1039 1.397 . S
C1041 H1022 0.929 . S
C1041 C1038 1.404 . S
C1041 N1039 1.334 . S
C1042 H1034 0.930 . S
C1042 C1037 1.418 . S
C1042 C1038 1.353 . S
C1043 H1013 0.930 . S
C1043 N1044 1.330 . S
C1043 C1045 1.446 . S
N1044 Co1003 2.151 . S
N1044 C1043 1.330 . S
N1044 C1048 1.418 . S
C1045 H1024 0.929 . S
C1045 C1043 1.446 . S
C1045 C1046 1.332 . S
C1046 H1026 0.931 . S
C1046 C1045 1.332 . S
C1046 C1047 1.267 . S
C1047 H1015 0.929 . S
C1047 C1046 1.267 . S
C1047 C1048 1.251 . S
C1048 H1018 0.929 . S
C1048 N1044 1.418 . S
C1048 C1047 1.251 . S
C1049 H1016 0.930 . S
C1049 C1051 1.406 . S
C1049 C1054 1.261 . S
C1050 H1017 0.930 . S
C1050 N1052 1.325 . S
C1050 C1053 1.357 . S
C1051 H1019 0.928 . S
C1051 C1049 1.406 . S
C1051 N1052 1.261 . S
N1052 Co1003 2.214 . S
N1052 C1050 1.325 . S
N1052 C1051 1.261 . S
C1053 H1023 0.931 . S
C1053 C1050 1.357 . S
C1053 C1054 1.312 . S
C1054 H1025 0.930 . S
C1054 C1049 1.261 . S
C1054 C1053 1.312 . S
C1055 O1027 1.214 . S
C1055 O1035 1.234 . S
C1056 H1028 0.929 . S
C1056 C1059 1.391 . S
C1056 C1061 1.391 . S
C1057 H1029 0.929 . S
C1057 C1058 1.390 . S
C1057 N1060 1.391 . S
C1058 H1030 0.930 . S
C1058 C1057 1.390 . S
C1058 C1059 1.392 . S
C1059 H1031 0.929 . S
C1059 C1056 1.391 . S
C1059 C1058 1.392 . S
N1060 Co1004 2.257 . S
N1060 C1057 1.391 . S
N1060 C1061 1.388 . S
C1061 H1032 0.930 . S
C1061 C1056 1.391 . S
C1061 N1060 1.388 . S
Co1062 O1064 2.143 . S
Co1062 O1070 2.074 . S
Co1062 O1073 2.093 . S
Co1062 O1086 2.097 . S
Co1062 N1103 2.151 . S
Co1062 N1111 2.214 . S
Co1063 O1064 2.160 . S
Co1063 O1069 2.058 . S
Co1063 O1079 2.057 . S
Co1063 O1094 2.037 . S
Co1063 N1098 2.145 . S
Co1063 N1119 2.257 . S
O1064 Co1062 2.143 . S
O1064 Co1063 2.160 . S
C1065 O1066 1.278 . S
C1065 O1073 1.224 . S
O1066 C1065 1.278 . S
C1067 O1068 1.245 . S
C1067 O1079 1.232 . S
O1068 C1067 1.245 . S
O1069 Co1063 2.058 . S
O1069 C1095 1.269 . S
O1070 Co1062 2.074 . S
O1070 C1095 1.257 . S
H1071 C1096 0.930 . S
H1072 C1102 0.930 . S
O1073 Co1062 2.093 . S
O1073 C1065 1.224 . S
H1074 C1106 0.929 . S
H1075 C1108 0.930 . S
H1076 C1109 0.930 . S
H1077 C1107 0.929 . S
H1078 C1110 0.928 . S
O1079 Co1063 2.057 . S
O1079 C1067 1.232 . S
H1080 C1099 0.929 . S
H1081 C1100 0.929 . S
H1082 C1112 0.931 . S
H1083 C1104 0.929 . S
H1084 C1113 0.930 . S
H1085 C1105 0.931 . S
O1086 Co1062 2.097 . S
O1086 C1114 1.214 . S
H1087 C1115 0.929 . S
H1088 C1116 0.929 . S
H1089 C1117 0.930 . S
H1090 C1118 0.929 . S
H1091 C1120 0.930 . S
H1092 C1097 0.930 . S
H1093 C1101 0.930 . S
O1094 Co1063 2.037 . S
O1094 C1114 1.234 . S
C1095 O1069 1.269 . S
C1095 O1070 1.257 . S
C1096 H1071 0.930 . S
C1096 C1099 1.388 . S
C1096 C1101 1.418 . S
C1097 H1092 0.930 . S
C1097 C1100 1.404 . S
C1097 C1101 1.353 . S
N1098 Co1063 2.145 . S
N1098 C1099 1.397 . S
N1098 C1100 1.334 . S
C1099 H1080 0.929 . S
C1099 C1096 1.388 . S
C1099 N1098 1.397 . S
C1100 H1081 0.929 . S
C1100 C1097 1.404 . S
C1100 N1098 1.334 . S
C1101 H1093 0.930 . S
C1101 C1096 1.418 . S
C1101 C1097 1.353 . S
C1102 H1072 0.930 . S
C1102 N1103 1.330 . S
C1102 C1104 1.446 . S
N1103 Co1062 2.151 . S
N1103 C1102 1.330 . S
N1103 C1107 1.418 . S
C1104 H1083 0.929 . S
C1104 C1102 1.446 . S
C1104 C1105 1.332 . S
C1105 H1085 0.931 . S
C1105 C1104 1.332 . S
C1105 C1106 1.267 . S
C1106 H1074 0.929 . S
C1106 C1105 1.267 . S
C1106 C1107 1.251 . S
C1107 H1077 0.929 . S
C1107 N1103 1.418 . S
C1107 C1106 1.251 . S
C1108 H1075 0.930 . S
C1108 C1110 1.406 . S
C1108 C1113 1.261 . S
C1109 H1076 0.930 . S
C1109 N1111 1.325 . S
C1109 C1112 1.357 . S
C1110 H1078 0.928 . S
C1110 C1108 1.406 . S
C1110 N1111 1.261 . S
N1111 Co1062 2.214 . S
N1111 C1109 1.325 . S
N1111 C1110 1.261 . S
C1112 H1082 0.931 . S
C1112 C1109 1.357 . S
C1112 C1113 1.312 . S
C1113 H1084 0.930 . S
C1113 C1108 1.261 . S
C1113 C1112 1.312 . S
C1114 O1086 1.214 . S
C1114 O1094 1.234 . S
C1115 H1087 0.929 . S
C1115 C1118 1.391 . S
C1115 C1120 1.391 . S
C1116 H1088 0.929 . S
C1116 C1117 1.390 . S
C1116 N1119 1.391 . S
C1117 H1089 0.930 . S
C1117 C1116 1.390 . S
C1117 C1118 1.392 . S
C1118 H1090 0.929 . S
C1118 C1115 1.391 . S
C1118 C1117 1.392 . S
N1119 Co1063 2.257 . S
N1119 C1116 1.391 . S
N1119 C1120 1.388 . S
C1120 H1091 0.930 . S
C1120 C1115 1.391 . S
C1120 N1119 1.388 . S
Co1121 O1123 2.143 . S
Co1121 O1129 2.074 . S
Co1121 O1132 2.093 . S
Co1121 O1145 2.097 . S
Co1121 N1162 2.151 . S
Co1121 N1170 2.214 . S
Co1122 O1123 2.160 . S
Co1122 O1128 2.058 . S
Co1122 O1138 2.057 . S
Co1122 O1153 2.037 . S
Co1122 N1157 2.145 . S
Co1122 N1178 2.257 . S
O1123 Co1121 2.143 . S
O1123 Co1122 2.160 . S
C1124 O1125 1.278 . S
C1124 O1132 1.224 . S
O1125 C1124 1.278 . S
C1126 O1127 1.245 . S
C1126 O1138 1.232 . S
O1127 C1126 1.245 . S
O1128 Co1122 2.058 . S
O1128 C1154 1.269 . S
O1129 Co1121 2.074 . S
O1129 C1154 1.257 . S
H1130 C1155 0.930 . S
H1131 C1161 0.930 . S
O1132 Co1121 2.093 . S
O1132 C1124 1.224 . S
H1133 C1165 0.929 . S
H1134 C1167 0.930 . S
H1135 C1168 0.930 . S
H1136 C1166 0.929 . S
H1137 C1169 0.928 . S
O1138 Co1122 2.057 . S
O1138 C1126 1.232 . S
H1139 C1158 0.929 . S
H1140 C1159 0.929 . S
H1141 C1171 0.931 . S
H1142 C1163 0.929 . S
H1143 C1172 0.930 . S
H1144 C1164 0.931 . S
O1145 Co1121 2.097 . S
O1145 C1173 1.214 . S
H1146 C1174 0.929 . S
H1147 C1175 0.929 . S
H1148 C1176 0.930 . S
H1149 C1177 0.929 . S
H1150 C1179 0.930 . S
H1151 C1156 0.930 . S
H1152 C1160 0.930 . S
O1153 Co1122 2.037 . S
O1153 C1173 1.234 . S
C1154 O1128 1.269 . S
C1154 O1129 1.257 . S
C1155 H1130 0.930 . S
C1155 C1158 1.388 . S
C1155 C1160 1.418 . S
C1156 H1151 0.930 . S
C1156 C1159 1.404 . S
C1156 C1160 1.353 . S
N1157 Co1122 2.145 . S
N1157 C1158 1.397 . S
N1157 C1159 1.334 . S
C1158 H1139 0.929 . S
C1158 C1155 1.388 . S
C1158 N1157 1.397 . S
C1159 H1140 0.929 . S
C1159 C1156 1.404 . S
C1159 N1157 1.334 . S
C1160 H1152 0.930 . S
C1160 C1155 1.418 . S
C1160 C1156 1.353 . S
C1161 H1131 0.930 . S
C1161 N1162 1.330 . S
C1161 C1163 1.446 . S
N1162 Co1121 2.151 . S
N1162 C1161 1.330 . S
N1162 C1166 1.418 . S
C1163 H1142 0.929 . S
C1163 C1161 1.446 . S
C1163 C1164 1.332 . S
C1164 H1144 0.931 . S
C1164 C1163 1.332 . S
C1164 C1165 1.267 . S
C1165 H1133 0.929 . S
C1165 C1164 1.267 . S
C1165 C1166 1.251 . S
C1166 H1136 0.929 . S
C1166 N1162 1.418 . S
C1166 C1165 1.251 . S
C1167 H1134 0.930 . S
C1167 C1169 1.406 . S
C1167 C1172 1.261 . S
C1168 H1135 0.930 . S
C1168 N1170 1.325 . S
C1168 C1171 1.357 . S
C1169 H1137 0.928 . S
C1169 C1167 1.406 . S
C1169 N1170 1.261 . S
N1170 Co1121 2.214 . S
N1170 C1168 1.325 . S
N1170 C1169 1.261 . S
C1171 H1141 0.931 . S
C1171 C1168 1.357 . S
C1171 C1172 1.312 . S
C1172 H1143 0.930 . S
C1172 C1167 1.261 . S
C1172 C1171 1.312 . S
C1173 O1145 1.214 . S
C1173 O1153 1.234 . S
C1174 H1146 0.929 . S
C1174 C1177 1.391 . S
C1174 C1179 1.391 . S
C1175 H1147 0.929 . S
C1175 C1176 1.390 . S
C1175 N1178 1.391 . S
C1176 H1148 0.930 . S
C1176 C1175 1.390 . S
C1176 C1177 1.392 . S
C1177 H1149 0.929 . S
C1177 C1174 1.391 . S
C1177 C1176 1.392 . S
N1178 Co1122 2.257 . S
N1178 C1175 1.391 . S
N1178 C1179 1.388 . S
C1179 H1150 0.930 . S
C1179 C1174 1.391 . S
C1179 N1178 1.388 . S
Co1180 O1182 2.143 . S
Co1180 O1188 2.074 . S
Co1180 O1191 2.093 . S
Co1180 O1204 2.097 . S
Co1180 N1221 2.151 . S
Co1180 N1229 2.214 . S
Co1181 O1182 2.160 . S
Co1181 O1187 2.058 . S
Co1181 O1197 2.057 . S
Co1181 O1212 2.037 . S
Co1181 N1216 2.145 . S
Co1181 N1237 2.257 . S
O1182 Co1180 2.143 . S
O1182 Co1181 2.160 . S
C1183 O1184 1.278 . S
C1183 O1191 1.224 . S
O1184 C1183 1.278 . S
C1185 O1186 1.245 . S
C1185 O1197 1.232 . S
O1186 C1185 1.245 . S
O1187 Co1181 2.058 . S
O1187 C1213 1.269 . S
O1188 Co1180 2.074 . S
O1188 C1213 1.257 . S
H1189 C1214 0.930 . S
H1190 C1220 0.930 . S
O1191 Co1180 2.093 . S
O1191 C1183 1.224 . S
H1192 C1224 0.929 . S
H1193 C1226 0.930 . S
H1194 C1227 0.930 . S
H1195 C1225 0.929 . S
H1196 C1228 0.928 . S
O1197 Co1181 2.057 . S
O1197 C1185 1.232 . S
H1198 C1217 0.929 . S
H1199 C1218 0.929 . S
H1200 C1230 0.931 . S
H1201 C1222 0.929 . S
H1202 C1231 0.930 . S
H1203 C1223 0.931 . S
O1204 Co1180 2.097 . S
O1204 C1232 1.214 . S
H1205 C1233 0.929 . S
H1206 C1234 0.929 . S
H1207 C1235 0.930 . S
H1208 C1236 0.929 . S
H1209 C1238 0.930 . S
H1210 C1215 0.930 . S
H1211 C1219 0.930 . S
O1212 Co1181 2.037 . S
O1212 C1232 1.234 . S
C1213 O1187 1.269 . S
C1213 O1188 1.257 . S
C1214 H1189 0.930 . S
C1214 C1217 1.388 . S
C1214 C1219 1.418 . S
C1215 H1210 0.930 . S
C1215 C1218 1.404 . S
C1215 C1219 1.353 . S
N1216 Co1181 2.145 . S
N1216 C1217 1.397 . S
N1216 C1218 1.334 . S
C1217 H1198 0.929 . S
C1217 C1214 1.388 . S
C1217 N1216 1.397 . S
C1218 H1199 0.929 . S
C1218 C1215 1.404 . S
C1218 N1216 1.334 . S
C1219 H1211 0.930 . S
C1219 C1214 1.418 . S
C1219 C1215 1.353 . S
C1220 H1190 0.930 . S
C1220 N1221 1.330 . S
C1220 C1222 1.446 . S
N1221 Co1180 2.151 . S
N1221 C1220 1.330 . S
N1221 C1225 1.418 . S
C1222 H1201 0.929 . S
C1222 C1220 1.446 . S
C1222 C1223 1.332 . S
C1223 H1203 0.931 . S
C1223 C1222 1.332 . S
C1223 C1224 1.267 . S
C1224 H1192 0.929 . S
C1224 C1223 1.267 . S
C1224 C1225 1.251 . S
C1225 H1195 0.929 . S
C1225 N1221 1.418 . S
C1225 C1224 1.251 . S
C1226 H1193 0.930 . S
C1226 C1228 1.406 . S
C1226 C1231 1.261 . S
C1227 H1194 0.930 . S
C1227 N1229 1.325 . S
C1227 C1230 1.357 . S
C1228 H1196 0.928 . S
C1228 C1226 1.406 . S
C1228 N1229 1.261 . S
N1229 Co1180 2.214 . S
N1229 C1227 1.325 . S
N1229 C1228 1.261 . S
C1230 H1200 0.931 . S
C1230 C1227 1.357 . S
C1230 C1231 1.312 . S
C1231 H1202 0.930 . S
C1231 C1226 1.261 . S
C1231 C1230 1.312 . S
C1232 O1204 1.214 . S
C1232 O1212 1.234 . S
C1233 H1205 0.929 . S
C1233 C1236 1.391 . S
C1233 C1238 1.391 . S
C1234 H1206 0.929 . S
C1234 C1235 1.390 . S
C1234 N1237 1.391 . S
C1235 H1207 0.930 . S
C1235 C1234 1.390 . S
C1235 C1236 1.392 . S
C1236 H1208 0.929 . S
C1236 C1233 1.391 . S
C1236 C1235 1.392 . S
N1237 Co1181 2.257 . S
N1237 C1234 1.391 . S
N1237 C1238 1.388 . S
C1238 H1209 0.930 . S
C1238 C1233 1.391 . S
C1238 N1237 1.388 . S
Co1239 O1241 2.143 . S
Co1239 O1247 2.074 . S
Co1239 O1250 2.093 . S
Co1239 O1263 2.097 . S
Co1239 N1280 2.151 . S
Co1239 N1288 2.214 . S
Co1240 O1241 2.160 . S
Co1240 O1246 2.058 . S
Co1240 O1256 2.057 . S
Co1240 O1271 2.037 . S
Co1240 N1275 2.145 . S
Co1240 N1296 2.257 . S
O1241 Co1239 2.143 . S
O1241 Co1240 2.160 . S
C1242 O1243 1.278 . S
C1242 O1250 1.224 . S
O1243 C1242 1.278 . S
C1244 O1245 1.245 . S
C1244 O1256 1.232 . S
O1245 C1244 1.245 . S
O1246 Co1240 2.058 . S
O1246 C1272 1.269 . S
O1247 Co1239 2.074 . S
O1247 C1272 1.257 . S
H1248 C1273 0.930 . S
H1249 C1279 0.930 . S
O1250 Co1239 2.093 . S
O1250 C1242 1.224 . S
H1251 C1283 0.929 . S
H1252 C1285 0.930 . S
H1253 C1286 0.930 . S
H1254 C1284 0.929 . S
H1255 C1287 0.928 . S
O1256 Co1240 2.057 . S
O1256 C1244 1.232 . S
H1257 C1276 0.929 . S
H1258 C1277 0.929 . S
H1259 C1289 0.931 . S
H1260 C1281 0.929 . S
H1261 C1290 0.930 . S
H1262 C1282 0.931 . S
O1263 Co1239 2.097 . S
O1263 C1291 1.214 . S
H1264 C1292 0.929 . S
H1265 C1293 0.929 . S
H1266 C1294 0.930 . S
H1267 C1295 0.929 . S
H1268 C1297 0.930 . S
H1269 C1274 0.930 . S
H1270 C1278 0.930 . S
O1271 Co1240 2.037 . S
O1271 C1291 1.234 . S
C1272 O1246 1.269 . S
C1272 O1247 1.257 . S
C1273 H1248 0.930 . S
C1273 C1276 1.388 . S
C1273 C1278 1.418 . S
C1274 H1269 0.930 . S
C1274 C1277 1.404 . S
C1274 C1278 1.353 . S
N1275 Co1240 2.145 . S
N1275 C1276 1.397 . S
N1275 C1277 1.334 . S
C1276 H1257 0.929 . S
C1276 C1273 1.388 . S
C1276 N1275 1.397 . S
C1277 H1258 0.929 . S
C1277 C1274 1.404 . S
C1277 N1275 1.334 . S
C1278 H1270 0.930 . S
C1278 C1273 1.418 . S
C1278 C1274 1.353 . S
C1279 H1249 0.930 . S
C1279 N1280 1.330 . S
C1279 C1281 1.446 . S
N1280 Co1239 2.151 . S
N1280 C1279 1.330 . S
N1280 C1284 1.418 . S
C1281 H1260 0.929 . S
C1281 C1279 1.446 . S
C1281 C1282 1.332 . S
C1282 H1262 0.931 . S
C1282 C1281 1.332 . S
C1282 C1283 1.267 . S
C1283 H1251 0.929 . S
C1283 C1282 1.267 . S
C1283 C1284 1.251 . S
C1284 H1254 0.929 . S
C1284 N1280 1.418 . S
C1284 C1283 1.251 . S
C1285 H1252 0.930 . S
C1285 C1287 1.406 . S
C1285 C1290 1.261 . S
C1286 H1253 0.930 . S
C1286 N1288 1.325 . S
C1286 C1289 1.357 . S
C1287 H1255 0.928 . S
C1287 C1285 1.406 . S
C1287 N1288 1.261 . S
N1288 Co1239 2.214 . S
N1288 C1286 1.325 . S
N1288 C1287 1.261 . S
C1289 H1259 0.931 . S
C1289 C1286 1.357 . S
C1289 C1290 1.312 . S
C1290 H1261 0.930 . S
C1290 C1285 1.261 . S
C1290 C1289 1.312 . S
C1291 O1263 1.214 . S
C1291 O1271 1.234 . S
C1292 H1264 0.929 . S
C1292 C1295 1.391 . S
C1292 C1297 1.391 . S
C1293 H1265 0.929 . S
C1293 C1294 1.390 . S
C1293 N1296 1.391 . S
C1294 H1266 0.930 . S
C1294 C1293 1.390 . S
C1294 C1295 1.392 . S
C1295 H1267 0.929 . S
C1295 C1292 1.391 . S
C1295 C1294 1.392 . S
N1296 Co1240 2.257 . S
N1296 C1293 1.391 . S
N1296 C1297 1.388 . S
C1297 H1268 0.930 . S
C1297 C1292 1.391 . S
C1297 N1296 1.388 . S
Co1298 O1300 2.143 . S
Co1298 O1306 2.074 . S
Co1298 O1309 2.093 . S
Co1298 O1322 2.097 . S
Co1298 N1339 2.151 . S
Co1298 N1347 2.214 . S
Co1299 O1300 2.160 . S
Co1299 O1305 2.058 . S
Co1299 O1315 2.057 . S
Co1299 O1330 2.037 . S
Co1299 N1334 2.145 . S
Co1299 N1355 2.257 . S
O1300 Co1298 2.143 . S
O1300 Co1299 2.160 . S
C1301 O1302 1.278 . S
C1301 O1309 1.224 . S
O1302 C1301 1.278 . S
C1303 O1304 1.245 . S
C1303 O1315 1.232 . S
O1304 C1303 1.245 . S
O1305 Co1299 2.058 . S
O1305 C1331 1.269 . S
O1306 Co1298 2.074 . S
O1306 C1331 1.257 . S
H1307 C1332 0.930 . S
H1308 C1338 0.930 . S
O1309 Co1298 2.093 . S
O1309 C1301 1.224 . S
H1310 C1342 0.929 . S
H1311 C1344 0.930 . S
H1312 C1345 0.930 . S
H1313 C1343 0.929 . S
H1314 C1346 0.928 . S
O1315 Co1299 2.057 . S
O1315 C1303 1.232 . S
H1316 C1335 0.929 . S
H1317 C1336 0.929 . S
H1318 C1348 0.931 . S
H1319 C1340 0.929 . S
H1320 C1349 0.930 . S
H1321 C1341 0.931 . S
O1322 Co1298 2.097 . S
O1322 C1350 1.214 . S
H1323 C1351 0.929 . S
H1324 C1352 0.929 . S
H1325 C1353 0.930 . S
H1326 C1354 0.929 . S
H1327 C1356 0.930 . S
H1328 C1333 0.930 . S
H1329 C1337 0.930 . S
O1330 Co1299 2.037 . S
O1330 C1350 1.234 . S
C1331 O1305 1.269 . S
C1331 O1306 1.257 . S
C1332 H1307 0.930 . S
C1332 C1335 1.388 . S
C1332 C1337 1.418 . S
C1333 H1328 0.930 . S
C1333 C1336 1.404 . S
C1333 C1337 1.353 . S
N1334 Co1299 2.145 . S
N1334 C1335 1.397 . S
N1334 C1336 1.334 . S
C1335 H1316 0.929 . S
C1335 C1332 1.388 . S
C1335 N1334 1.397 . S
C1336 H1317 0.929 . S
C1336 C1333 1.404 . S
C1336 N1334 1.334 . S
C1337 H1329 0.930 . S
C1337 C1332 1.418 . S
C1337 C1333 1.353 . S
C1338 H1308 0.930 . S
C1338 N1339 1.330 . S
C1338 C1340 1.446 . S
N1339 Co1298 2.151 . S
N1339 C1338 1.330 . S
N1339 C1343 1.418 . S
C1340 H1319 0.929 . S
C1340 C1338 1.446 . S
C1340 C1341 1.332 . S
C1341 H1321 0.931 . S
C1341 C1340 1.332 . S
C1341 C1342 1.267 . S
C1342 H1310 0.929 . S
C1342 C1341 1.267 . S
C1342 C1343 1.251 . S
C1343 H1313 0.929 . S
C1343 N1339 1.418 . S
C1343 C1342 1.251 . S
C1344 H1311 0.930 . S
C1344 C1346 1.406 . S
C1344 C1349 1.261 . S
C1345 H1312 0.930 . S
C1345 N1347 1.325 . S
C1345 C1348 1.357 . S
C1346 H1314 0.928 . S
C1346 C1344 1.406 . S
C1346 N1347 1.261 . S
N1347 Co1298 2.214 . S
N1347 C1345 1.325 . S
N1347 C1346 1.261 . S
C1348 H1318 0.931 . S
C1348 C1345 1.357 . S
C1348 C1349 1.312 . S
C1349 H1320 0.930 . S
C1349 C1344 1.261 . S
C1349 C1348 1.312 . S
C1350 O1322 1.214 . S
C1350 O1330 1.234 . S
C1351 H1323 0.929 . S
C1351 C1354 1.391 . S
C1351 C1356 1.391 . S
C1352 H1324 0.929 . S
C1352 C1353 1.390 . S
C1352 N1355 1.391 . S
C1353 H1325 0.930 . S
C1353 C1352 1.390 . S
C1353 C1354 1.392 . S
C1354 H1326 0.929 . S
C1354 C1351 1.391 . S
C1354 C1353 1.392 . S
N1355 Co1299 2.257 . S
N1355 C1352 1.391 . S
N1355 C1356 1.388 . S
C1356 H1327 0.930 . S
C1356 C1351 1.391 . S
C1356 N1355 1.388 . S
Co1357 O1359 2.143 . S
Co1357 O1365 2.074 . S
Co1357 O1368 2.093 . S
Co1357 O1381 2.097 . S
Co1357 N1398 2.151 . S
Co1357 N1406 2.214 . S
Co1358 O1359 2.160 . S
Co1358 O1364 2.058 . S
Co1358 O1374 2.057 . S
Co1358 O1389 2.037 . S
Co1358 N1393 2.145 . S
Co1358 N1414 2.257 . S
O1359 Co1357 2.143 . S
O1359 Co1358 2.160 . S
C1360 O1361 1.278 . S
C1360 O1368 1.224 . S
O1361 C1360 1.278 . S
C1362 O1363 1.245 . S
C1362 O1374 1.232 . S
O1363 C1362 1.245 . S
O1364 Co1358 2.058 . S
O1364 C1390 1.269 . S
O1365 Co1357 2.074 . S
O1365 C1390 1.257 . S
H1366 C1391 0.930 . S
H1367 C1397 0.930 . S
O1368 Co1357 2.093 . S
O1368 C1360 1.224 . S
H1369 C1401 0.929 . S
H1370 C1403 0.930 . S
H1371 C1404 0.930 . S
H1372 C1402 0.929 . S
H1373 C1405 0.928 . S
O1374 Co1358 2.057 . S
O1374 C1362 1.232 . S
H1375 C1394 0.929 . S
H1376 C1395 0.929 . S
H1377 C1407 0.931 . S
H1378 C1399 0.929 . S
H1379 C1408 0.930 . S
H1380 C1400 0.931 . S
O1381 Co1357 2.097 . S
O1381 C1409 1.214 . S
H1382 C1410 0.929 . S
H1383 C1411 0.929 . S
H1384 C1412 0.930 . S
H1385 C1413 0.929 . S
H1386 C1415 0.930 . S
H1387 C1392 0.930 . S
H1388 C1396 0.930 . S
O1389 Co1358 2.037 . S
O1389 C1409 1.234 . S
C1390 O1364 1.269 . S
C1390 O1365 1.257 . S
C1391 H1366 0.930 . S
C1391 C1394 1.388 . S
C1391 C1396 1.418 . S
C1392 H1387 0.930 . S
C1392 C1395 1.404 . S
C1392 C1396 1.353 . S
N1393 Co1358 2.145 . S
N1393 C1394 1.397 . S
N1393 C1395 1.334 . S
C1394 H1375 0.929 . S
C1394 C1391 1.388 . S
C1394 N1393 1.397 . S
C1395 H1376 0.929 . S
C1395 C1392 1.404 . S
C1395 N1393 1.334 . S
C1396 H1388 0.930 . S
C1396 C1391 1.418 . S
C1396 C1392 1.353 . S
C1397 H1367 0.930 . S
C1397 N1398 1.330 . S
C1397 C1399 1.446 . S
N1398 Co1357 2.151 . S
N1398 C1397 1.330 . S
N1398 C1402 1.418 . S
C1399 H1378 0.929 . S
C1399 C1397 1.446 . S
C1399 C1400 1.332 . S
C1400 H1380 0.931 . S
C1400 C1399 1.332 . S
C1400 C1401 1.267 . S
C1401 H1369 0.929 . S
C1401 C1400 1.267 . S
C1401 C1402 1.251 . S
C1402 H1372 0.929 . S
C1402 N1398 1.418 . S
C1402 C1401 1.251 . S
C1403 H1370 0.930 . S
C1403 C1405 1.406 . S
C1403 C1408 1.261 . S
C1404 H1371 0.930 . S
C1404 N1406 1.325 . S
C1404 C1407 1.357 . S
C1405 H1373 0.928 . S
C1405 C1403 1.406 . S
C1405 N1406 1.261 . S
N1406 Co1357 2.214 . S
N1406 C1404 1.325 . S
N1406 C1405 1.261 . S
C1407 H1377 0.931 . S
C1407 C1404 1.357 . S
C1407 C1408 1.312 . S
C1408 H1379 0.930 . S
C1408 C1403 1.261 . S
C1408 C1407 1.312 . S
C1409 O1381 1.214 . S
C1409 O1389 1.234 . S
C1410 H1382 0.929 . S
C1410 C1413 1.391 . S
C1410 C1415 1.391 . S
C1411 H1383 0.929 . S
C1411 C1412 1.390 . S
C1411 N1414 1.391 . S
C1412 H1384 0.930 . S
C1412 C1411 1.390 . S
C1412 C1413 1.392 . S
C1413 H1385 0.929 . S
C1413 C1410 1.391 . S
C1413 C1412 1.392 . S
N1414 Co1358 2.257 . S
N1414 C1411 1.391 . S
N1414 C1415 1.388 . S
C1415 H1386 0.930 . S
C1415 C1410 1.391 . S
C1415 N1414 1.388 . S
Co1416 O1418 2.143 . S
Co1416 O1424 2.074 . S
Co1416 O1427 2.093 . S
Co1416 O1440 2.097 . S
Co1416 N1457 2.151 . S
Co1416 N1465 2.214 . S
Co1417 O1418 2.160 . S
Co1417 O1423 2.058 . S
Co1417 O1433 2.057 . S
Co1417 O1448 2.037 . S
Co1417 N1452 2.145 . S
Co1417 N1473 2.257 . S
O1418 Co1416 2.143 . S
O1418 Co1417 2.160 . S
C1419 O1420 1.278 . S
C1419 O1427 1.224 . S
O1420 C1419 1.278 . S
C1421 O1422 1.245 . S
C1421 O1433 1.232 . S
O1422 C1421 1.245 . S
O1423 Co1417 2.058 . S
O1423 C1449 1.269 . S
O1424 Co1416 2.074 . S
O1424 C1449 1.257 . S
H1425 C1450 0.930 . S
H1426 C1456 0.930 . S
O1427 Co1416 2.093 . S
O1427 C1419 1.224 . S
H1428 C1460 0.929 . S
H1429 C1462 0.930 . S
H1430 C1463 0.930 . S
H1431 C1461 0.929 . S
H1432 C1464 0.928 . S
O1433 Co1417 2.057 . S
O1433 C1421 1.232 . S
H1434 C1453 0.929 . S
H1435 C1454 0.929 . S
H1436 C1466 0.931 . S
H1437 C1458 0.929 . S
H1438 C1467 0.930 . S
H1439 C1459 0.931 . S
O1440 Co1416 2.097 . S
O1440 C1468 1.214 . S
H1441 C1469 0.929 . S
H1442 C1470 0.929 . S
H1443 C1471 0.930 . S
H1444 C1472 0.929 . S
H1445 C1474 0.930 . S
H1446 C1451 0.930 . S
H1447 C1455 0.930 . S
O1448 Co1417 2.037 . S
O1448 C1468 1.234 . S
C1449 O1423 1.269 . S
C1449 O1424 1.257 . S
C1450 H1425 0.930 . S
C1450 C1453 1.388 . S
C1450 C1455 1.418 . S
C1451 H1446 0.930 . S
C1451 C1454 1.404 . S
C1451 C1455 1.353 . S
N1452 Co1417 2.145 . S
N1452 C1453 1.397 . S
N1452 C1454 1.334 . S
C1453 H1434 0.929 . S
C1453 C1450 1.388 . S
C1453 N1452 1.397 . S
C1454 H1435 0.929 . S
C1454 C1451 1.404 . S
C1454 N1452 1.334 . S
C1455 H1447 0.930 . S
C1455 C1450 1.418 . S
C1455 C1451 1.353 . S
C1456 H1426 0.930 . S
C1456 N1457 1.330 . S
C1456 C1458 1.446 . S
N1457 Co1416 2.151 . S
N1457 C1456 1.330 . S
N1457 C1461 1.418 . S
C1458 H1437 0.929 . S
C1458 C1456 1.446 . S
C1458 C1459 1.332 . S
C1459 H1439 0.931 . S
C1459 C1458 1.332 . S
C1459 C1460 1.267 . S
C1460 H1428 0.929 . S
C1460 C1459 1.267 . S
C1460 C1461 1.251 . S
C1461 H1431 0.929 . S
C1461 N1457 1.418 . S
C1461 C1460 1.251 . S
C1462 H1429 0.930 . S
C1462 C1464 1.406 . S
C1462 C1467 1.261 . S
C1463 H1430 0.930 . S
C1463 N1465 1.325 . S
C1463 C1466 1.357 . S
C1464 H1432 0.928 . S
C1464 C1462 1.406 . S
C1464 N1465 1.261 . S
N1465 Co1416 2.214 . S
N1465 C1463 1.325 . S
N1465 C1464 1.261 . S
C1466 H1436 0.931 . S
C1466 C1463 1.357 . S
C1466 C1467 1.312 . S
C1467 H1438 0.930 . S
C1467 C1462 1.261 . S
C1467 C1466 1.312 . S
C1468 O1440 1.214 . S
C1468 O1448 1.234 . S
C1469 H1441 0.929 . S
C1469 C1472 1.391 . S
C1469 C1474 1.391 . S
C1470 H1442 0.929 . S
C1470 C1471 1.390 . S
C1470 N1473 1.391 . S
C1471 H1443 0.930 . S
C1471 C1470 1.390 . S
C1471 C1472 1.392 . S
C1472 H1444 0.929 . S
C1472 C1469 1.391 . S
C1472 C1471 1.392 . S
N1473 Co1417 2.257 . S
N1473 C1470 1.391 . S
N1473 C1474 1.388 . S
C1474 H1445 0.930 . S
C1474 C1469 1.391 . S
C1474 N1473 1.388 . S
Co1475 O1477 2.143 . S
Co1475 O1483 2.074 . S
Co1475 O1486 2.093 . S
Co1475 O1499 2.097 . S
Co1475 N1516 2.151 . S
Co1475 N1524 2.214 . S
Co1476 O1477 2.160 . S
Co1476 O1482 2.058 . S
Co1476 O1492 2.057 . S
Co1476 O1507 2.037 . S
Co1476 N1511 2.145 . S
Co1476 N1532 2.257 . S
O1477 Co1475 2.143 . S
O1477 Co1476 2.160 . S
C1478 O1479 1.278 . S
C1478 O1486 1.224 . S
O1479 C1478 1.278 . S
C1480 O1481 1.245 . S
C1480 O1492 1.232 . S
O1481 C1480 1.245 . S
O1482 Co1476 2.058 . S
O1482 C1508 1.269 . S
O1483 Co1475 2.074 . S
O1483 C1508 1.257 . S
H1484 C1509 0.930 . S
H1485 C1515 0.930 . S
O1486 Co1475 2.093 . S
O1486 C1478 1.224 . S
H1487 C1519 0.929 . S
H1488 C1521 0.930 . S
H1489 C1522 0.930 . S
H1490 C1520 0.929 . S
H1491 C1523 0.928 . S
O1492 Co1476 2.057 . S
O1492 C1480 1.232 . S
H1493 C1512 0.929 . S
H1494 C1513 0.929 . S
H1495 C1525 0.931 . S
H1496 C1517 0.929 . S
H1497 C1526 0.930 . S
H1498 C1518 0.931 . S
O1499 Co1475 2.097 . S
O1499 C1527 1.214 . S
H1500 C1528 0.929 . S
H1501 C1529 0.929 . S
H1502 C1530 0.930 . S
H1503 C1531 0.929 . S
H1504 C1533 0.930 . S
H1505 C1510 0.930 . S
H1506 C1514 0.930 . S
O1507 Co1476 2.037 . S
O1507 C1527 1.234 . S
C1508 O1482 1.269 . S
C1508 O1483 1.257 . S
C1509 H1484 0.930 . S
C1509 C1512 1.388 . S
C1509 C1514 1.418 . S
C1510 H1505 0.930 . S
C1510 C1513 1.404 . S
C1510 C1514 1.353 . S
N1511 Co1476 2.145 . S
N1511 C1512 1.397 . S
N1511 C1513 1.334 . S
C1512 H1493 0.929 . S
C1512 C1509 1.388 . S
C1512 N1511 1.397 . S
C1513 H1494 0.929 . S
C1513 C1510 1.404 . S
C1513 N1511 1.334 . S
C1514 H1506 0.930 . S
C1514 C1509 1.418 . S
C1514 C1510 1.353 . S
C1515 H1485 0.930 . S
C1515 N1516 1.330 . S
C1515 C1517 1.446 . S
N1516 Co1475 2.151 . S
N1516 C1515 1.330 . S
N1516 C1520 1.418 . S
C1517 H1496 0.929 . S
C1517 C1515 1.446 . S
C1517 C1518 1.332 . S
C1518 H1498 0.931 . S
C1518 C1517 1.332 . S
C1518 C1519 1.267 . S
C1519 H1487 0.929 . S
C1519 C1518 1.267 . S
C1519 C1520 1.251 . S
C1520 H1490 0.929 . S
C1520 N1516 1.418 . S
C1520 C1519 1.251 . S
C1521 H1488 0.930 . S
C1521 C1523 1.406 . S
C1521 C1526 1.261 . S
C1522 H1489 0.930 . S
C1522 N1524 1.325 . S
C1522 C1525 1.357 . S
C1523 H1491 0.928 . S
C1523 C1521 1.406 . S
C1523 N1524 1.261 . S
N1524 Co1475 2.214 . S
N1524 C1522 1.325 . S
N1524 C1523 1.261 . S
C1525 H1495 0.931 . S
C1525 C1522 1.357 . S
C1525 C1526 1.312 . S
C1526 H1497 0.930 . S
C1526 C1521 1.261 . S
C1526 C1525 1.312 . S
C1527 O1499 1.214 . S
C1527 O1507 1.234 . S
C1528 H1500 0.929 . S
C1528 C1531 1.391 . S
C1528 C1533 1.391 . S
C1529 H1501 0.929 . S
C1529 C1530 1.390 . S
C1529 N1532 1.391 . S
C1530 H1502 0.930 . S
C1530 C1529 1.390 . S
C1530 C1531 1.392 . S
C1531 H1503 0.929 . S
C1531 C1528 1.391 . S
C1531 C1530 1.392 . S
N1532 Co1476 2.257 . S
N1532 C1529 1.391 . S
N1532 C1533 1.388 . S
C1533 H1504 0.930 . S
C1533 C1528 1.391 . S
C1533 N1532 1.388 . S
Co1534 O1536 2.143 . S
Co1534 O1542 2.074 . S
Co1534 O1545 2.093 . S
Co1534 O1558 2.097 . S
Co1534 N1575 2.151 . S
Co1534 N1583 2.214 . S
Co1535 O1536 2.160 . S
Co1535 O1541 2.058 . S
Co1535 O1551 2.057 . S
Co1535 O1566 2.037 . S
Co1535 N1570 2.145 . S
Co1535 N1591 2.257 . S
O1536 Co1534 2.143 . S
O1536 Co1535 2.160 . S
C1537 O1538 1.278 . S
C1537 O1545 1.224 . S
O1538 C1537 1.278 . S
C1539 O1540 1.245 . S
C1539 O1551 1.232 . S
O1540 C1539 1.245 . S
O1541 Co1535 2.058 . S
O1541 C1567 1.269 . S
O1542 Co1534 2.074 . S
O1542 C1567 1.257 . S
H1543 C1568 0.930 . S
H1544 C1574 0.930 . S
O1545 Co1534 2.093 . S
O1545 C1537 1.224 . S
H1546 C1578 0.929 . S
H1547 C1580 0.930 . S
H1548 C1581 0.930 . S
H1549 C1579 0.929 . S
H1550 C1582 0.928 . S
O1551 Co1535 2.057 . S
O1551 C1539 1.232 . S
H1552 C1571 0.929 . S
H1553 C1572 0.929 . S
H1554 C1584 0.931 . S
H1555 C1576 0.929 . S
H1556 C1585 0.930 . S
H1557 C1577 0.931 . S
O1558 Co1534 2.097 . S
O1558 C1586 1.214 . S
H1559 C1587 0.929 . S
H1560 C1588 0.929 . S
H1561 C1589 0.930 . S
H1562 C1590 0.929 . S
H1563 C1592 0.930 . S
H1564 C1569 0.930 . S
H1565 C1573 0.930 . S
O1566 Co1535 2.037 . S
O1566 C1586 1.234 . S
C1567 O1541 1.269 . S
C1567 O1542 1.257 . S
C1568 H1543 0.930 . S
C1568 C1571 1.388 . S
C1568 C1573 1.418 . S
C1569 H1564 0.930 . S
C1569 C1572 1.404 . S
C1569 C1573 1.353 . S
N1570 Co1535 2.145 . S
N1570 C1571 1.397 . S
N1570 C1572 1.334 . S
C1571 H1552 0.929 . S
C1571 C1568 1.388 . S
C1571 N1570 1.397 . S
C1572 H1553 0.929 . S
C1572 C1569 1.404 . S
C1572 N1570 1.334 . S
C1573 H1565 0.930 . S
C1573 C1568 1.418 . S
C1573 C1569 1.353 . S
C1574 H1544 0.930 . S
C1574 N1575 1.330 . S
C1574 C1576 1.446 . S
N1575 Co1534 2.151 . S
N1575 C1574 1.330 . S
N1575 C1579 1.418 . S
C1576 H1555 0.929 . S
C1576 C1574 1.446 . S
C1576 C1577 1.332 . S
C1577 H1557 0.931 . S
C1577 C1576 1.332 . S
C1577 C1578 1.267 . S
C1578 H1546 0.929 . S
C1578 C1577 1.267 . S
C1578 C1579 1.251 . S
C1579 H1549 0.929 . S
C1579 N1575 1.418 . S
C1579 C1578 1.251 . S
C1580 H1547 0.930 . S
C1580 C1582 1.406 . S
C1580 C1585 1.261 . S
C1581 H1548 0.930 . S
C1581 N1583 1.325 . S
C1581 C1584 1.357 . S
C1582 H1550 0.928 . S
C1582 C1580 1.406 . S
C1582 N1583 1.261 . S
N1583 Co1534 2.214 . S
N1583 C1581 1.325 . S
N1583 C1582 1.261 . S
C1584 H1554 0.931 . S
C1584 C1581 1.357 . S
C1584 C1585 1.312 . S
C1585 H1556 0.930 . S
C1585 C1580 1.261 . S
C1585 C1584 1.312 . S
C1586 O1558 1.214 . S
C1586 O1566 1.234 . S
C1587 H1559 0.929 . S
C1587 C1590 1.391 . S
C1587 C1592 1.391 . S
C1588 H1560 0.929 . S
C1588 C1589 1.390 . S
C1588 N1591 1.391 . S
C1589 H1561 0.930 . S
C1589 C1588 1.390 . S
C1589 C1590 1.392 . S
C1590 H1562 0.929 . S
C1590 C1587 1.391 . S
C1590 C1589 1.392 . S
N1591 Co1535 2.257 . S
N1591 C1588 1.391 . S
N1591 C1592 1.388 . S
C1592 H1563 0.930 . S
C1592 C1587 1.391 . S
C1592 N1591 1.388 . S
Co1593 O1595 2.143 . S
Co1593 O1601 2.074 . S
Co1593 O1604 2.093 . S
Co1593 O1617 2.097 . S
Co1593 N1634 2.151 . S
Co1593 N1642 2.214 . S
Co1594 O1595 2.160 . S
Co1594 O1600 2.058 . S
Co1594 O1610 2.057 . S
Co1594 O1625 2.037 . S
Co1594 N1629 2.145 . S
Co1594 N1650 2.257 . S
O1595 Co1593 2.143 . S
O1595 Co1594 2.160 . S
C1596 O1597 1.278 . S
C1596 O1604 1.224 . S
O1597 C1596 1.278 . S
C1598 O1599 1.245 . S
C1598 O1610 1.232 . S
O1599 C1598 1.245 . S
O1600 Co1594 2.058 . S
O1600 C1626 1.269 . S
O1601 Co1593 2.074 . S
O1601 C1626 1.257 . S
H1602 C1627 0.930 . S
H1603 C1633 0.930 . S
O1604 Co1593 2.093 . S
O1604 C1596 1.224 . S
H1605 C1637 0.929 . S
H1606 C1639 0.930 . S
H1607 C1640 0.930 . S
H1608 C1638 0.929 . S
H1609 C1641 0.928 . S
O1610 Co1594 2.057 . S
O1610 C1598 1.232 . S
H1611 C1630 0.929 . S
H1612 C1631 0.929 . S
H1613 C1643 0.931 . S
H1614 C1635 0.929 . S
H1615 C1644 0.930 . S
H1616 C1636 0.931 . S
O1617 Co1593 2.097 . S
O1617 C1645 1.214 . S
H1618 C1646 0.929 . S
H1619 C1647 0.929 . S
H1620 C1648 0.930 . S
H1621 C1649 0.929 . S
H1622 C1651 0.930 . S
H1623 C1628 0.930 . S
H1624 C1632 0.930 . S
O1625 Co1594 2.037 . S
O1625 C1645 1.234 . S
C1626 O1600 1.269 . S
C1626 O1601 1.257 . S
C1627 H1602 0.930 . S
C1627 C1630 1.388 . S
C1627 C1632 1.418 . S
C1628 H1623 0.930 . S
C1628 C1631 1.404 . S
C1628 C1632 1.353 . S
N1629 Co1594 2.145 . S
N1629 C1630 1.397 . S
N1629 C1631 1.334 . S
C1630 H1611 0.929 . S
C1630 C1627 1.388 . S
C1630 N1629 1.397 . S
C1631 H1612 0.929 . S
C1631 C1628 1.404 . S
C1631 N1629 1.334 . S
C1632 H1624 0.930 . S
C1632 C1627 1.418 . S
C1632 C1628 1.353 . S
C1633 H1603 0.930 . S
C1633 N1634 1.330 . S
C1633 C1635 1.446 . S
N1634 Co1593 2.151 . S
N1634 C1633 1.330 . S
N1634 C1638 1.418 . S
C1635 H1614 0.929 . S
C1635 C1633 1.446 . S
C1635 C1636 1.332 . S
C1636 H1616 0.931 . S
C1636 C1635 1.332 . S
C1636 C1637 1.267 . S
C1637 H1605 0.929 . S
C1637 C1636 1.267 . S
C1637 C1638 1.251 . S
C1638 H1608 0.929 . S
C1638 N1634 1.418 . S
C1638 C1637 1.251 . S
C1639 H1606 0.930 . S
C1639 C1641 1.406 . S
C1639 C1644 1.261 . S
C1640 H1607 0.930 . S
C1640 N1642 1.325 . S
C1640 C1643 1.357 . S
C1641 H1609 0.928 . S
C1641 C1639 1.406 . S
C1641 N1642 1.261 . S
N1642 Co1593 2.214 . S
N1642 C1640 1.325 . S
N1642 C1641 1.261 . S
C1643 H1613 0.931 . S
C1643 C1640 1.357 . S
C1643 C1644 1.312 . S
C1644 H1615 0.930 . S
C1644 C1639 1.261 . S
C1644 C1643 1.312 . S
C1645 O1617 1.214 . S
C1645 O1625 1.234 . S
C1646 H1618 0.929 . S
C1646 C1649 1.391 . S
C1646 C1651 1.391 . S
C1647 H1619 0.929 . S
C1647 C1648 1.390 . S
C1647 N1650 1.391 . S
C1648 H1620 0.930 . S
C1648 C1647 1.390 . S
C1648 C1649 1.392 . S
C1649 H1621 0.929 . S
C1649 C1646 1.391 . S
C1649 C1648 1.392 . S
N1650 Co1594 2.257 . S
N1650 C1647 1.391 . S
N1650 C1651 1.388 . S
C1651 H1622 0.930 . S
C1651 C1646 1.391 . S
C1651 N1650 1.388 . S
Co1652 O1654 2.143 . S
Co1652 O1660 2.074 . S
Co1652 O1663 2.093 . S
Co1652 O1676 2.097 . S
Co1652 N1693 2.151 . S
Co1652 N1701 2.214 . S
Co1653 O1654 2.160 . S
Co1653 O1659 2.058 . S
Co1653 O1669 2.057 . S
Co1653 O1684 2.037 . S
Co1653 N1688 2.145 . S
Co1653 N1709 2.257 . S
O1654 Co1652 2.143 . S
O1654 Co1653 2.160 . S
C1655 O1656 1.278 . S
C1655 O1663 1.224 . S
O1656 C1655 1.278 . S
C1657 O1658 1.245 . S
C1657 O1669 1.232 . S
O1658 C1657 1.245 . S
O1659 Co1653 2.058 . S
O1659 C1685 1.269 . S
O1660 Co1652 2.074 . S
O1660 C1685 1.257 . S
H1661 C1686 0.930 . S
H1662 C1692 0.930 . S
O1663 Co1652 2.093 . S
O1663 C1655 1.224 . S
H1664 C1696 0.929 . S
H1665 C1698 0.930 . S
H1666 C1699 0.930 . S
H1667 C1697 0.929 . S
H1668 C1700 0.928 . S
O1669 Co1653 2.057 . S
O1669 C1657 1.232 . S
H1670 C1689 0.929 . S
H1671 C1690 0.929 . S
H1672 C1702 0.931 . S
H1673 C1694 0.929 . S
H1674 C1703 0.930 . S
H1675 C1695 0.931 . S
O1676 Co1652 2.097 . S
O1676 C1704 1.214 . S
H1677 C1705 0.929 . S
H1678 C1706 0.929 . S
H1679 C1707 0.930 . S
H1680 C1708 0.929 . S
H1681 C1710 0.930 . S
H1682 C1687 0.930 . S
H1683 C1691 0.930 . S
O1684 Co1653 2.037 . S
O1684 C1704 1.234 . S
C1685 O1659 1.269 . S
C1685 O1660 1.257 . S
C1686 H1661 0.930 . S
C1686 C1689 1.388 . S
C1686 C1691 1.418 . S
C1687 H1682 0.930 . S
C1687 C1690 1.404 . S
C1687 C1691 1.353 . S
N1688 Co1653 2.145 . S
N1688 C1689 1.397 . S
N1688 C1690 1.334 . S
C1689 H1670 0.929 . S
C1689 C1686 1.388 . S
C1689 N1688 1.397 . S
C1690 H1671 0.929 . S
C1690 C1687 1.404 . S
C1690 N1688 1.334 . S
C1691 H1683 0.930 . S
C1691 C1686 1.418 . S
C1691 C1687 1.353 . S
C1692 H1662 0.930 . S
C1692 N1693 1.330 . S
C1692 C1694 1.446 . S
N1693 Co1652 2.151 . S
N1693 C1692 1.330 . S
N1693 C1697 1.418 . S
C1694 H1673 0.929 . S
C1694 C1692 1.446 . S
C1694 C1695 1.332 . S
C1695 H1675 0.931 . S
C1695 C1694 1.332 . S
C1695 C1696 1.267 . S
C1696 H1664 0.929 . S
C1696 C1695 1.267 . S
C1696 C1697 1.251 . S
C1697 H1667 0.929 . S
C1697 N1693 1.418 . S
C1697 C1696 1.251 . S
C1698 H1665 0.930 . S
C1698 C1700 1.406 . S
C1698 C1703 1.261 . S
C1699 H1666 0.930 . S
C1699 N1701 1.325 . S
C1699 C1702 1.357 . S
C1700 H1668 0.928 . S
C1700 C1698 1.406 . S
C1700 N1701 1.261 . S
N1701 Co1652 2.214 . S
N1701 C1699 1.325 . S
N1701 C1700 1.261 . S
C1702 H1672 0.931 . S
C1702 C1699 1.357 . S
C1702 C1703 1.312 . S
C1703 H1674 0.930 . S
C1703 C1698 1.261 . S
C1703 C1702 1.312 . S
C1704 O1676 1.214 . S
C1704 O1684 1.234 . S
C1705 H1677 0.929 . S
C1705 C1708 1.391 . S
C1705 C1710 1.391 . S
C1706 H1678 0.929 . S
C1706 C1707 1.390 . S
C1706 N1709 1.391 . S
C1707 H1679 0.930 . S
C1707 C1706 1.390 . S
C1707 C1708 1.392 . S
C1708 H1680 0.929 . S
C1708 C1705 1.391 . S
C1708 C1707 1.392 . S
N1709 Co1653 2.257 . S
N1709 C1706 1.391 . S
N1709 C1710 1.388 . S
C1710 H1681 0.930 . S
C1710 C1705 1.391 . S
C1710 N1709 1.388 . S
Co1711 O1713 2.143 . S
Co1711 O1719 2.074 . S
Co1711 O1722 2.093 . S
Co1711 O1735 2.097 . S
Co1711 N1752 2.151 . S
Co1711 N1760 2.214 . S
Co1712 O1713 2.160 . S
Co1712 O1718 2.058 . S
Co1712 O1728 2.057 . S
Co1712 O1743 2.037 . S
Co1712 N1747 2.145 . S
Co1712 N1768 2.257 . S
O1713 Co1711 2.143 . S
O1713 Co1712 2.160 . S
C1714 O1715 1.278 . S
C1714 O1722 1.224 . S
O1715 C1714 1.278 . S
C1716 O1717 1.245 . S
C1716 O1728 1.232 . S
O1717 C1716 1.245 . S
O1718 Co1712 2.058 . S
O1718 C1744 1.269 . S
O1719 Co1711 2.074 . S
O1719 C1744 1.257 . S
H1720 C1745 0.930 . S
H1721 C1751 0.930 . S
O1722 Co1711 2.093 . S
O1722 C1714 1.224 . S
H1723 C1755 0.929 . S
H1724 C1757 0.930 . S
H1725 C1758 0.930 . S
H1726 C1756 0.929 . S
H1727 C1759 0.928 . S
O1728 Co1712 2.057 . S
O1728 C1716 1.232 . S
H1729 C1748 0.929 . S
H1730 C1749 0.929 . S
H1731 C1761 0.931 . S
H1732 C1753 0.929 . S
H1733 C1762 0.930 . S
H1734 C1754 0.931 . S
O1735 Co1711 2.097 . S
O1735 C1763 1.214 . S
H1736 C1764 0.929 . S
H1737 C1765 0.929 . S
H1738 C1766 0.930 . S
H1739 C1767 0.929 . S
H1740 C1769 0.930 . S
H1741 C1746 0.930 . S
H1742 C1750 0.930 . S
O1743 Co1712 2.037 . S
O1743 C1763 1.234 . S
C1744 O1718 1.269 . S
C1744 O1719 1.257 . S
C1745 H1720 0.930 . S
C1745 C1748 1.388 . S
C1745 C1750 1.418 . S
C1746 H1741 0.930 . S
C1746 C1749 1.404 . S
C1746 C1750 1.353 . S
N1747 Co1712 2.145 . S
N1747 C1748 1.397 . S
N1747 C1749 1.334 . S
C1748 H1729 0.929 . S
C1748 C1745 1.388 . S
C1748 N1747 1.397 . S
C1749 H1730 0.929 . S
C1749 C1746 1.404 . S
C1749 N1747 1.334 . S
C1750 H1742 0.930 . S
C1750 C1745 1.418 . S
C1750 C1746 1.353 . S
C1751 H1721 0.930 . S
C1751 N1752 1.330 . S
C1751 C1753 1.446 . S
N1752 Co1711 2.151 . S
N1752 C1751 1.330 . S
N1752 C1756 1.418 . S
C1753 H1732 0.929 . S
C1753 C1751 1.446 . S
C1753 C1754 1.332 . S
C1754 H1734 0.931 . S
C1754 C1753 1.332 . S
C1754 C1755 1.267 . S
C1755 H1723 0.929 . S
C1755 C1754 1.267 . S
C1755 C1756 1.251 . S
C1756 H1726 0.929 . S
C1756 N1752 1.418 . S
C1756 C1755 1.251 . S
C1757 H1724 0.930 . S
C1757 C1759 1.406 . S
C1757 C1762 1.261 . S
C1758 H1725 0.930 . S
C1758 N1760 1.325 . S
C1758 C1761 1.357 . S
C1759 H1727 0.928 . S
C1759 C1757 1.406 . S
C1759 N1760 1.261 . S
N1760 Co1711 2.214 . S
N1760 C1758 1.325 . S
N1760 C1759 1.261 . S
C1761 H1731 0.931 . S
C1761 C1758 1.357 . S
C1761 C1762 1.312 . S
C1762 H1733 0.930 . S
C1762 C1757 1.261 . S
C1762 C1761 1.312 . S
C1763 O1735 1.214 . S
C1763 O1743 1.234 . S
C1764 H1736 0.929 . S
C1764 C1767 1.391 . S
C1764 C1769 1.391 . S
C1765 H1737 0.929 . S
C1765 C1766 1.390 . S
C1765 N1768 1.391 . S
C1766 H1738 0.930 . S
C1766 C1765 1.390 . S
C1766 C1767 1.392 . S
C1767 H1739 0.929 . S
C1767 C1764 1.391 . S
C1767 C1766 1.392 . S
N1768 Co1712 2.257 . S
N1768 C1765 1.391 . S
N1768 C1769 1.388 . S
C1769 H1740 0.930 . S
C1769 C1764 1.391 . S
C1769 N1768 1.388 . S
Co1770 O1772 2.143 . S
Co1770 O1778 2.074 . S
Co1770 O1781 2.093 . S
Co1770 O1794 2.097 . S
Co1770 N1811 2.151 . S
Co1770 N1819 2.214 . S
Co1771 O1772 2.160 . S
Co1771 O1777 2.058 . S
Co1771 O1787 2.057 . S
Co1771 O1802 2.037 . S
Co1771 N1806 2.145 . S
Co1771 N1827 2.257 . S
O1772 Co1770 2.143 . S
O1772 Co1771 2.160 . S
C1773 O1774 1.278 . S
C1773 O1781 1.224 . S
O1774 C1773 1.278 . S
C1775 O1776 1.245 . S
C1775 O1787 1.232 . S
O1776 C1775 1.245 . S
O1777 Co1771 2.058 . S
O1777 C1803 1.269 . S
O1778 Co1770 2.074 . S
O1778 C1803 1.257 . S
H1779 C1804 0.930 . S
H1780 C1810 0.930 . S
O1781 Co1770 2.093 . S
O1781 C1773 1.224 . S
H1782 C1814 0.929 . S
H1783 C1816 0.930 . S
H1784 C1817 0.930 . S
H1785 C1815 0.929 . S
H1786 C1818 0.928 . S
O1787 Co1771 2.057 . S
O1787 C1775 1.232 . S
H1788 C1807 0.929 . S
H1789 C1808 0.929 . S
H1790 C1820 0.931 . S
H1791 C1812 0.929 . S
H1792 C1821 0.930 . S
H1793 C1813 0.931 . S
O1794 Co1770 2.097 . S
O1794 C1822 1.214 . S
H1795 C1823 0.929 . S
H1796 C1824 0.929 . S
H1797 C1825 0.930 . S
H1798 C1826 0.929 . S
H1799 C1828 0.930 . S
H1800 C1805 0.930 . S
H1801 C1809 0.930 . S
O1802 Co1771 2.037 . S
O1802 C1822 1.234 . S
C1803 O1777 1.269 . S
C1803 O1778 1.257 . S
C1804 H1779 0.930 . S
C1804 C1807 1.388 . S
C1804 C1809 1.418 . S
C1805 H1800 0.930 . S
C1805 C1808 1.404 . S
C1805 C1809 1.353 . S
N1806 Co1771 2.145 . S
N1806 C1807 1.397 . S
N1806 C1808 1.334 . S
C1807 H1788 0.929 . S
C1807 C1804 1.388 . S
C1807 N1806 1.397 . S
C1808 H1789 0.929 . S
C1808 C1805 1.404 . S
C1808 N1806 1.334 . S
C1809 H1801 0.930 . S
C1809 C1804 1.418 . S
C1809 C1805 1.353 . S
C1810 H1780 0.930 . S
C1810 N1811 1.330 . S
C1810 C1812 1.446 . S
N1811 Co1770 2.151 . S
N1811 C1810 1.330 . S
N1811 C1815 1.418 . S
C1812 H1791 0.929 . S
C1812 C1810 1.446 . S
C1812 C1813 1.332 . S
C1813 H1793 0.931 . S
C1813 C1812 1.332 . S
C1813 C1814 1.267 . S
C1814 H1782 0.929 . S
C1814 C1813 1.267 . S
C1814 C1815 1.251 . S
C1815 H1785 0.929 . S
C1815 N1811 1.418 . S
C1815 C1814 1.251 . S
C1816 H1783 0.930 . S
C1816 C1818 1.406 . S
C1816 C1821 1.261 . S
C1817 H1784 0.930 . S
C1817 N1819 1.325 . S
C1817 C1820 1.357 . S
C1818 H1786 0.928 . S
C1818 C1816 1.406 . S
C1818 N1819 1.261 . S
N1819 Co1770 2.214 . S
N1819 C1817 1.325 . S
N1819 C1818 1.261 . S
C1820 H1790 0.931 . S
C1820 C1817 1.357 . S
C1820 C1821 1.312 . S
C1821 H1792 0.930 . S
C1821 C1816 1.261 . S
C1821 C1820 1.312 . S
C1822 O1794 1.214 . S
C1822 O1802 1.234 . S
C1823 H1795 0.929 . S
C1823 C1826 1.391 . S
C1823 C1828 1.391 . S
C1824 H1796 0.929 . S
C1824 C1825 1.390 . S
C1824 N1827 1.391 . S
C1825 H1797 0.930 . S
C1825 C1824 1.390 . S
C1825 C1826 1.392 . S
C1826 H1798 0.929 . S
C1826 C1823 1.391 . S
C1826 C1825 1.392 . S
N1827 Co1771 2.257 . S
N1827 C1824 1.391 . S
N1827 C1828 1.388 . S
C1828 H1799 0.930 . S
C1828 C1823 1.391 . S
C1828 N1827 1.388 . S
Co1829 O1831 2.143 . S
Co1829 O1837 2.074 . S
Co1829 O1840 2.093 . S
Co1829 O1853 2.097 . S
Co1829 N1870 2.151 . S
Co1829 N1878 2.214 . S
Co1830 O1831 2.160 . S
Co1830 O1836 2.058 . S
Co1830 O1846 2.057 . S
Co1830 O1861 2.037 . S
Co1830 N1865 2.145 . S
Co1830 N1886 2.257 . S
O1831 Co1829 2.143 . S
O1831 Co1830 2.160 . S
C1832 O1833 1.278 . S
C1832 O1840 1.224 . S
O1833 C1832 1.278 . S
C1834 O1835 1.245 . S
C1834 O1846 1.232 . S
O1835 C1834 1.245 . S
O1836 Co1830 2.058 . S
O1836 C1862 1.269 . S
O1837 Co1829 2.074 . S
O1837 C1862 1.257 . S
H1838 C1863 0.930 . S
H1839 C1869 0.930 . S
O1840 Co1829 2.093 . S
O1840 C1832 1.224 . S
H1841 C1873 0.929 . S
H1842 C1875 0.930 . S
H1843 C1876 0.930 . S
H1844 C1874 0.929 . S
H1845 C1877 0.928 . S
O1846 Co1830 2.057 . S
O1846 C1834 1.232 . S
H1847 C1866 0.929 . S
H1848 C1867 0.929 . S
H1849 C1879 0.931 . S
H1850 C1871 0.929 . S
H1851 C1880 0.930 . S
H1852 C1872 0.931 . S
O1853 Co1829 2.097 . S
O1853 C1881 1.214 . S
H1854 C1882 0.929 . S
H1855 C1883 0.929 . S
H1856 C1884 0.930 . S
H1857 C1885 0.929 . S
H1858 C1887 0.930 . S
H1859 C1864 0.930 . S
H1860 C1868 0.930 . S
O1861 Co1830 2.037 . S
O1861 C1881 1.234 . S
C1862 O1836 1.269 . S
C1862 O1837 1.257 . S
C1863 H1838 0.930 . S
C1863 C1866 1.388 . S
C1863 C1868 1.418 . S
C1864 H1859 0.930 . S
C1864 C1867 1.404 . S
C1864 C1868 1.353 . S
N1865 Co1830 2.145 . S
N1865 C1866 1.397 . S
N1865 C1867 1.334 . S
C1866 H1847 0.929 . S
C1866 C1863 1.388 . S
C1866 N1865 1.397 . S
C1867 H1848 0.929 . S
C1867 C1864 1.404 . S
C1867 N1865 1.334 . S
C1868 H1860 0.930 . S
C1868 C1863 1.418 . S
C1868 C1864 1.353 . S
C1869 H1839 0.930 . S
C1869 N1870 1.330 . S
C1869 C1871 1.446 . S
N1870 Co1829 2.151 . S
N1870 C1869 1.330 . S
N1870 C1874 1.418 . S
C1871 H1850 0.929 . S
C1871 C1869 1.446 . S
C1871 C1872 1.332 . S
C1872 H1852 0.931 . S
C1872 C1871 1.332 . S
C1872 C1873 1.267 . S
C1873 H1841 0.929 . S
C1873 C1872 1.267 . S
C1873 C1874 1.251 . S
C1874 H1844 0.929 . S
C1874 N1870 1.418 . S
C1874 C1873 1.251 . S
C1875 H1842 0.930 . S
C1875 C1877 1.406 . S
C1875 C1880 1.261 . S
C1876 H1843 0.930 . S
C1876 N1878 1.325 . S
C1876 C1879 1.357 . S
C1877 H1845 0.928 . S
C1877 C1875 1.406 . S
C1877 N1878 1.261 . S
N1878 Co1829 2.214 . S
N1878 C1876 1.325 . S
N1878 C1877 1.261 . S
C1879 H1849 0.931 . S
C1879 C1876 1.357 . S
C1879 C1880 1.312 . S
C1880 H1851 0.930 . S
C1880 C1875 1.261 . S
C1880 C1879 1.312 . S
C1881 O1853 1.214 . S
C1881 O1861 1.234 . S
C1882 H1854 0.929 . S
C1882 C1885 1.391 . S
C1882 C1887 1.391 . S
C1883 H1855 0.929 . S
C1883 C1884 1.390 . S
C1883 N1886 1.391 . S
C1884 H1856 0.930 . S
C1884 C1883 1.390 . S
C1884 C1885 1.392 . S
C1885 H1857 0.929 . S
C1885 C1882 1.391 . S
C1885 C1884 1.392 . S
N1886 Co1830 2.257 . S
N1886 C1883 1.391 . S
N1886 C1887 1.388 . S
C1887 H1858 0.930 . S
C1887 C1882 1.391 . S
C1887 N1886 1.388 . S
C1888 C1889 1.369 . S
C1888 C1890 1.419 . S
C1888 H1892 0.930 . S
C1889 C1888 1.369 . S
C1889 C1898 1.429 . S
C1890 C1888 1.419 . S
C1890 C1891 1.363 . S
C1890 H1893 0.929 . S
C1891 C1890 1.363 . S
C1891 C1897 1.428 . S
H1892 C1888 0.930 . S
H1893 C1890 0.929 . S
S1894 N1895 1.613 . S
S1894 N1896 1.610 . S
N1895 S1894 1.613 . S
N1895 C1898 1.350 . S
N1896 S1894 1.610 . S
N1896 C1897 1.351 . S
C1897 C1891 1.428 . S
C1897 N1896 1.351 . S
C1897 C1898 1.434 . S
C1898 C1889 1.429 . S
C1898 N1895 1.350 . S
C1898 C1897 1.434 . S
C1899 C1900 1.369 . S
C1899 C1901 1.419 . S
C1899 H1903 0.930 . S
C1900 C1899 1.369 . S
C1900 C1909 1.429 . S
C1901 C1899 1.419 . S
C1901 C1902 1.363 . S
C1901 H1904 0.929 . S
C1902 C1901 1.363 . S
C1902 C1908 1.428 . S
H1903 C1899 0.930 . S
H1904 C1901 0.929 . S
S1905 N1906 1.613 . S
S1905 N1907 1.610 . S
N1906 S1905 1.613 . S
N1906 C1909 1.350 . S
N1907 S1905 1.610 . S
N1907 C1908 1.351 . S
C1908 C1902 1.428 . S
C1908 N1907 1.351 . S
C1908 C1909 1.434 . S
C1909 C1900 1.429 . S
C1909 N1906 1.350 . S
C1909 C1908 1.434 . S
C1910 C1911 1.369 . S
C1910 C1912 1.419 . S
C1910 H1914 0.930 . S
C1911 C1910 1.369 . S
C1911 C1920 1.429 . S
C1912 C1910 1.419 . S
C1912 C1913 1.363 . S
C1912 H1915 0.929 . S
C1913 C1912 1.363 . S
C1913 C1919 1.428 . S
H1914 C1910 0.930 . S
H1915 C1912 0.929 . S
S1916 N1917 1.613 . S
S1916 N1918 1.610 . S
N1917 S1916 1.613 . S
N1917 C1920 1.350 . S
N1918 S1916 1.610 . S
N1918 C1919 1.351 . S
C1919 C1913 1.428 . S
C1919 N1918 1.351 . S
C1919 C1920 1.434 . S
C1920 C1911 1.429 . S
C1920 N1917 1.350 . S
C1920 C1919 1.434 . S
C1921 C1922 1.369 . S
C1921 C1923 1.419 . S
C1921 H1925 0.930 . S
C1922 C1921 1.369 . S
C1922 C1931 1.429 . S
C1923 C1921 1.419 . S
C1923 C1924 1.363 . S
C1923 H1926 0.929 . S
C1924 C1923 1.363 . S
C1924 C1930 1.428 . S
H1925 C1921 0.930 . S
H1926 C1923 0.929 . S
S1927 N1928 1.613 . S
S1927 N1929 1.610 . S
N1928 S1927 1.613 . S
N1928 C1931 1.350 . S
N1929 S1927 1.610 . S
N1929 C1930 1.351 . S
C1930 C1924 1.428 . S
C1930 N1929 1.351 . S
C1930 C1931 1.434 . S
C1931 C1922 1.429 . S
C1931 N1928 1.350 . S
C1931 C1930 1.434 . S
C1932 C1933 1.369 . S
C1932 C1934 1.419 . S
C1932 H1936 0.930 . S
C1933 C1932 1.369 . S
C1933 C1942 1.429 . S
C1934 C1932 1.419 . S
C1934 C1935 1.363 . S
C1934 H1937 0.929 . S
C1935 C1934 1.363 . S
C1935 C1941 1.428 . S
H1936 C1932 0.930 . S
H1937 C1934 0.929 . S
S1938 N1939 1.613 . S
S1938 N1940 1.610 . S
N1939 S1938 1.613 . S
N1939 C1942 1.350 . S
N1940 S1938 1.610 . S
N1940 C1941 1.351 . S
C1941 C1935 1.428 . S
C1941 N1940 1.351 . S
C1941 C1942 1.434 . S
C1942 C1933 1.429 . S
C1942 N1939 1.350 . S
C1942 C1941 1.434 . S
C1943 C1944 1.369 . S
C1943 C1945 1.419 . S
C1943 H1947 0.930 . S
C1944 C1943 1.369 . S
C1944 C1953 1.429 . S
C1945 C1943 1.419 . S
C1945 C1946 1.363 . S
C1945 H1948 0.929 . S
C1946 C1945 1.363 . S
C1946 C1952 1.428 . S
H1947 C1943 0.930 . S
H1948 C1945 0.929 . S
S1949 N1950 1.613 . S
S1949 N1951 1.610 . S
N1950 S1949 1.613 . S
N1950 C1953 1.350 . S
N1951 S1949 1.610 . S
N1951 C1952 1.351 . S
C1952 C1946 1.428 . S
C1952 N1951 1.351 . S
C1952 C1953 1.434 . S
C1953 C1944 1.429 . S
C1953 N1950 1.350 . S
C1953 C1952 1.434 . S
C1954 C1955 1.369 . S
C1954 C1956 1.419 . S
C1954 H1958 0.930 . S
C1955 C1954 1.369 . S
C1955 C1964 1.429 . S
C1956 C1954 1.419 . S
C1956 C1957 1.363 . S
C1956 H1959 0.929 . S
C1957 C1956 1.363 . S
C1957 C1963 1.428 . S
H1958 C1954 0.930 . S
H1959 C1956 0.929 . S
S1960 N1961 1.613 . S
S1960 N1962 1.610 . S
N1961 S1960 1.613 . S
N1961 C1964 1.350 . S
N1962 S1960 1.610 . S
N1962 C1963 1.351 . S
C1963 C1957 1.428 . S
C1963 N1962 1.351 . S
C1963 C1964 1.434 . S
C1964 C1955 1.429 . S
C1964 N1961 1.350 . S
C1964 C1963 1.434 . S
C1965 C1966 1.369 . S
C1965 C1967 1.419 . S
C1965 H1969 0.930 . S
C1966 C1965 1.369 . S
C1966 C1975 1.429 . S
C1967 C1965 1.419 . S
C1967 C1968 1.363 . S
C1967 H1970 0.929 . S
C1968 C1967 1.363 . S
C1968 C1974 1.428 . S
H1969 C1965 0.930 . S
H1970 C1967 0.929 . S
S1971 N1972 1.613 . S
S1971 N1973 1.610 . S
N1972 S1971 1.613 . S
N1972 C1975 1.350 . S
N1973 S1971 1.610 . S
N1973 C1974 1.351 . S
C1974 C1968 1.428 . S
C1974 N1973 1.351 . S
C1974 C1975 1.434 . S
C1975 C1966 1.429 . S
C1975 N1972 1.350 . S
C1975 C1974 1.434 . S
C1976 C1977 1.369 . S
C1976 C1978 1.419 . S
C1976 H1980 0.930 . S
C1977 C1976 1.369 . S
C1977 C1986 1.429 . S
C1978 C1976 1.419 . S
C1978 C1979 1.363 . S
C1978 H1981 0.929 . S
C1979 C1978 1.363 . S
C1979 C1985 1.428 . S
H1980 C1976 0.930 . S
H1981 C1978 0.929 . S
S1982 N1983 1.613 . S
S1982 N1984 1.610 . S
N1983 S1982 1.613 . S
N1983 C1986 1.350 . S
N1984 S1982 1.610 . S
N1984 C1985 1.351 . S
C1985 C1979 1.428 . S
C1985 N1984 1.351 . S
C1985 C1986 1.434 . S
C1986 C1977 1.429 . S
C1986 N1983 1.350 . S
C1986 C1985 1.434 . S
C1987 C1988 1.369 . S
C1987 C1989 1.419 . S
C1987 H1991 0.930 . S
C1988 C1987 1.369 . S
C1988 C1997 1.429 . S
C1989 C1987 1.419 . S
C1989 C1990 1.363 . S
C1989 H1992 0.929 . S
C1990 C1989 1.363 . S
C1990 C1996 1.428 . S
H1991 C1987 0.930 . S
H1992 C1989 0.929 . S
S1993 N1994 1.613 . S
S1993 N1995 1.610 . S
N1994 S1993 1.613 . S
N1994 C1997 1.350 . S
N1995 S1993 1.610 . S
N1995 C1996 1.351 . S
C1996 C1990 1.428 . S
C1996 N1995 1.351 . S
C1996 C1997 1.434 . S
C1997 C1988 1.429 . S
C1997 N1994 1.350 . S
C1997 C1996 1.434 . S
C1998 C1999 1.369 . S
C1998 C2000 1.419 . S
C1998 H2002 0.930 . S
C1999 C1998 1.369 . S
C1999 C2008 1.429 . S
C2000 C1998 1.419 . S
C2000 C2001 1.363 . S
C2000 H2003 0.929 . S
C2001 C2000 1.363 . S
C2001 C2007 1.428 . S
H2002 C1998 0.930 . S
H2003 C2000 0.929 . S
S2004 N2005 1.613 . S
S2004 N2006 1.610 . S
N2005 S2004 1.613 . S
N2005 C2008 1.350 . S
N2006 S2004 1.610 . S
N2006 C2007 1.351 . S
C2007 C2001 1.428 . S
C2007 N2006 1.351 . S
C2007 C2008 1.434 . S
C2008 C1999 1.429 . S
C2008 N2005 1.350 . S
C2008 C2007 1.434 . S
C2009 C2010 1.369 . S
C2009 C2011 1.419 . S
C2009 H2013 0.930 . S
C2010 C2009 1.369 . S
C2010 C2019 1.429 . S
C2011 C2009 1.419 . S
C2011 C2012 1.363 . S
C2011 H2014 0.929 . S
C2012 C2011 1.363 . S
C2012 C2018 1.428 . S
H2013 C2009 0.930 . S
H2014 C2011 0.929 . S
S2015 N2016 1.613 . S
S2015 N2017 1.610 . S
N2016 S2015 1.613 . S
N2016 C2019 1.350 . S
N2017 S2015 1.610 . S
N2017 C2018 1.351 . S
C2018 C2012 1.428 . S
C2018 N2017 1.351 . S
C2018 C2019 1.434 . S
C2019 C2010 1.429 . S
C2019 N2016 1.350 . S
C2019 C2018 1.434 . S
C2020 C2021 1.369 . S
C2020 C2022 1.419 . S
C2020 H2024 0.930 . S
C2021 C2020 1.369 . S
C2021 C2030 1.429 . S
C2022 C2020 1.419 . S
C2022 C2023 1.363 . S
C2022 H2025 0.929 . S
C2023 C2022 1.363 . S
C2023 C2029 1.428 . S
H2024 C2020 0.930 . S
H2025 C2022 0.929 . S
S2026 N2027 1.613 . S
S2026 N2028 1.610 . S
N2027 S2026 1.613 . S
N2027 C2030 1.350 . S
N2028 S2026 1.610 . S
N2028 C2029 1.351 . S
C2029 C2023 1.428 . S
C2029 N2028 1.351 . S
C2029 C2030 1.434 . S
C2030 C2021 1.429 . S
C2030 N2027 1.350 . S
C2030 C2029 1.434 . S
C2031 C2032 1.369 . S
C2031 C2033 1.419 . S
C2031 H2035 0.930 . S
C2032 C2031 1.369 . S
C2032 C2041 1.429 . S
C2033 C2031 1.419 . S
C2033 C2034 1.363 . S
C2033 H2036 0.929 . S
C2034 C2033 1.363 . S
C2034 C2040 1.428 . S
H2035 C2031 0.930 . S
H2036 C2033 0.929 . S
S2037 N2038 1.613 . S
S2037 N2039 1.610 . S
N2038 S2037 1.613 . S
N2038 C2041 1.350 . S
N2039 S2037 1.610 . S
N2039 C2040 1.351 . S
C2040 C2034 1.428 . S
C2040 N2039 1.351 . S
C2040 C2041 1.434 . S
C2041 C2032 1.429 . S
C2041 N2038 1.350 . S
C2041 C2040 1.434 . S
C2042 C2043 1.369 . S
C2042 C2044 1.419 . S
C2042 H2046 0.930 . S
C2043 C2042 1.369 . S
C2043 C2052 1.429 . S
C2044 C2042 1.419 . S
C2044 C2045 1.363 . S
C2044 H2047 0.929 . S
C2045 C2044 1.363 . S
C2045 C2051 1.428 . S
H2046 C2042 0.930 . S
H2047 C2044 0.929 . S
S2048 N2049 1.613 . S
S2048 N2050 1.610 . S
N2049 S2048 1.613 . S
N2049 C2052 1.350 . S
N2050 S2048 1.610 . S
N2050 C2051 1.351 . S
C2051 C2045 1.428 . S
C2051 N2050 1.351 . S
C2051 C2052 1.434 . S
C2052 C2043 1.429 . S
C2052 N2049 1.350 . S
C2052 C2051 1.434 . S
C2053 C2054 1.369 . S
C2053 C2055 1.419 . S
C2053 H2057 0.930 . S
C2054 C2053 1.369 . S
C2054 C2063 1.429 . S
C2055 C2053 1.419 . S
C2055 C2056 1.363 . S
C2055 H2058 0.929 . S
C2056 C2055 1.363 . S
C2056 C2062 1.428 . S
H2057 C2053 0.930 . S
H2058 C2055 0.929 . S
S2059 N2060 1.613 . S
S2059 N2061 1.610 . S
N2060 S2059 1.613 . S
N2060 C2063 1.350 . S
N2061 S2059 1.610 . S
N2061 C2062 1.351 . S
C2062 C2056 1.428 . S
C2062 N2061 1.351 . S
C2062 C2063 1.434 . S
C2063 C2054 1.429 . S
C2063 N2060 1.350 . S
C2063 C2062 1.434 . S
C2064 C2065 1.369 . S
C2064 C2066 1.419 1_655 S
C2064 H2068 0.930 . S
C2065 C2064 1.369 . S
C2065 C2074 1.429 . S
C2066 C2064 1.419 1_455 S
C2066 C2067 1.363 . S
C2066 H2069 0.929 . S
C2067 C2066 1.363 . S
C2067 C2073 1.428 . S
H2068 C2064 0.930 . S
H2069 C2066 0.929 . S
S2070 N2071 1.616 1_455 S
S2070 N2072 1.607 . S
N2071 S2070 1.616 1_655 S
N2071 C2074 1.350 . S
N2072 S2070 1.607 . S
N2072 C2073 1.351 . S
C2073 C2067 1.428 . S
C2073 N2072 1.351 . S
C2073 C2074 1.434 1_455 S
C2074 C2065 1.429 . S
C2074 N2071 1.350 . S
C2074 C2073 1.434 1_655 S
C2075 C2076 1.369 . S
C2075 C2077 1.419 1_545 S
C2075 H2079 0.930 . S
C2076 C2075 1.369 . S
C2076 C2085 1.429 . S
C2077 C2075 1.419 1_565 S
C2077 C2078 1.363 . S
C2077 H2080 0.929 . S
C2078 C2077 1.363 . S
C2078 C2084 1.428 . S
H2079 C2075 0.930 . S
H2080 C2077 0.929 . S
S2081 N2082 1.616 1_565 S
S2081 N2083 1.607 . S
N2082 S2081 1.616 1_545 S
N2082 C2085 1.350 . S
N2083 S2081 1.607 . S
N2083 C2084 1.351 . S
C2084 C2078 1.428 . S
C2084 N2083 1.351 . S
C2084 C2085 1.434 1_565 S
C2085 C2076 1.429 . S
C2085 N2082 1.350 . S
C2085 C2084 1.434 1_545 S
C2086 C2087 1.369 . S
C2086 C2088 1.419 1_455 S
C2086 H2090 0.930 . S
C2087 C2086 1.369 . S
C2087 C2096 1.429 . S
C2088 C2086 1.419 1_655 S
C2088 C2089 1.363 . S
C2088 H2091 0.929 . S
C2089 C2088 1.363 . S
C2089 C2095 1.428 . S
H2090 C2086 0.930 . S
H2091 C2088 0.929 . S
S2092 N2093 1.616 1_655 S
S2092 N2094 1.607 . S
N2093 S2092 1.616 1_455 S
N2093 C2096 1.350 . S
N2094 S2092 1.607 . S
N2094 C2095 1.351 . S
C2095 C2089 1.428 . S
C2095 N2094 1.351 . S
C2095 C2096 1.434 1_655 S
C2096 C2087 1.429 . S
C2096 N2093 1.350 . S
C2096 C2095 1.434 1_455 S
C2097 C2098 1.369 . S
C2097 C2099 1.419 1_565 S
C2097 H2101 0.930 . S
C2098 C2097 1.369 . S
C2098 C2107 1.429 . S
C2099 C2097 1.419 1_545 S
C2099 C2100 1.363 . S
C2099 H2102 0.929 . S
C2100 C2099 1.363 . S
C2100 C2106 1.428 . S
H2101 C2097 0.930 . S
H2102 C2099 0.929 . S
S2103 N2104 1.616 1_545 S
S2103 N2105 1.607 . S
N2104 S2103 1.616 1_565 S
N2104 C2107 1.350 . S
N2105 S2103 1.607 . S
N2105 C2106 1.351 . S
C2106 C2100 1.428 . S
C2106 N2105 1.351 . S
C2106 C2107 1.434 1_545 S
C2107 C2098 1.429 . S
C2107 N2104 1.350 . S
C2107 C2106 1.434 1_565 S
C2108 C2109 1.369 . S
C2108 C2110 1.419 1_455 S
C2108 H2112 0.930 . S
C2109 C2108 1.369 . S
C2109 C2118 1.429 . S
C2110 C2108 1.419 1_655 S
C2110 C2111 1.363 . S
C2110 H2113 0.929 . S
C2111 C2110 1.363 . S
C2111 C2117 1.428 . S
H2112 C2108 0.930 . S
H2113 C2110 0.929 . S
S2114 N2115 1.616 1_655 S
S2114 N2116 1.607 . S
N2115 S2114 1.616 1_455 S
N2115 C2118 1.350 . S
N2116 S2114 1.607 . S
N2116 C2117 1.351 . S
C2117 C2111 1.428 . S
C2117 N2116 1.351 . S
C2117 C2118 1.434 1_655 S
C2118 C2109 1.429 . S
C2118 N2115 1.350 . S
C2118 C2117 1.434 1_455 S
C2119 C2120 1.369 . S
C2119 C2121 1.419 1_565 S
C2119 H2123 0.930 . S
C2120 C2119 1.369 . S
C2120 C2129 1.429 . S
C2121 C2119 1.419 1_545 S
C2121 C2122 1.363 . S
C2121 H2124 0.929 . S
C2122 C2121 1.363 . S
C2122 C2128 1.428 . S
H2123 C2119 0.930 . S
H2124 C2121 0.929 . S
S2125 N2126 1.616 1_545 S
S2125 N2127 1.607 . S
N2126 S2125 1.616 1_565 S
N2126 C2129 1.350 . S
N2127 S2125 1.607 . S
N2127 C2128 1.351 . S
C2128 C2122 1.428 . S
C2128 N2127 1.351 . S
C2128 C2129 1.434 1_545 S
C2129 C2120 1.429 . S
C2129 N2126 1.350 . S
C2129 C2128 1.434 1_565 S
C2130 C2131 1.369 . S
C2130 C2132 1.419 1_455 S
C2130 H2134 0.930 . S
C2131 C2130 1.369 . S
C2131 C2140 1.429 . S
C2132 C2130 1.419 1_655 S
C2132 C2133 1.363 . S
C2132 H2135 0.929 . S
C2133 C2132 1.363 . S
C2133 C2139 1.428 . S
H2134 C2130 0.930 . S
H2135 C2132 0.929 . S
S2136 N2137 1.616 1_655 S
S2136 N2138 1.607 . S
N2137 S2136 1.616 1_455 S
N2137 C2140 1.350 . S
N2138 S2136 1.607 . S
N2138 C2139 1.351 . S
C2139 C2133 1.428 . S
C2139 N2138 1.351 . S
C2139 C2140 1.434 1_655 S
C2140 C2131 1.429 . S
C2140 N2137 1.350 . S
C2140 C2139 1.434 1_455 S
C2141 C2142 1.369 . S
C2141 C2143 1.419 1_545 S
C2141 H2145 0.930 . S
C2142 C2141 1.369 . S
C2142 C2151 1.429 . S
C2143 C2141 1.419 1_565 S
C2143 C2144 1.363 . S
C2143 H2146 0.929 . S
C2144 C2143 1.363 . S
C2144 C2150 1.428 . S
H2145 C2141 0.930 . S
H2146 C2143 0.929 . S
S2147 N2148 1.616 1_565 S
S2147 N2149 1.607 . S
N2148 S2147 1.616 1_545 S
N2148 C2151 1.350 . S
N2149 S2147 1.607 . S
N2149 C2150 1.351 . S
C2150 C2144 1.428 . S
C2150 N2149 1.351 . S
C2150 C2151 1.434 1_565 S
C2151 C2142 1.429 . S
C2151 N2148 1.350 . S
C2151 C2150 1.434 1_545 S
C2152 C2153 1.369 . S
C2152 C2154 1.419 . S
C2152 H2156 0.930 . S
C2153 C2152 1.369 . S
C2153 C2162 1.429 . S
C2154 C2152 1.419 . S
C2154 C2155 1.363 . S
C2154 H2157 0.929 . S
C2155 C2154 1.363 . S
C2155 C2161 1.428 . S
H2156 C2152 0.930 . S
H2157 C2154 0.929 . S
S2158 N2159 1.613 . S
S2158 N2160 1.610 . S
N2159 S2158 1.613 . S
N2159 C2162 1.350 . S
N2160 S2158 1.610 . S
N2160 C2161 1.351 . S
C2161 C2155 1.428 . S
C2161 N2160 1.351 . S
C2161 C2162 1.434 . S
C2162 C2153 1.429 . S
C2162 N2159 1.350 . S
C2162 C2161 1.434 . S
C2163 C2164 1.369 . S
C2163 C2165 1.419 . S
C2163 H2167 0.930 . S
C2164 C2163 1.369 . S
C2164 C2173 1.429 . S
C2165 C2163 1.419 . S
C2165 C2166 1.363 . S
C2165 H2168 0.929 . S
C2166 C2165 1.363 . S
C2166 C2172 1.428 . S
H2167 C2163 0.930 . S
H2168 C2165 0.929 . S
S2169 N2170 1.613 . S
S2169 N2171 1.610 . S
N2170 S2169 1.613 . S
N2170 C2173 1.350 . S
N2171 S2169 1.610 . S
N2171 C2172 1.351 . S
C2172 C2166 1.428 . S
C2172 N2171 1.351 . S
C2172 C2173 1.434 . S
C2173 C2164 1.429 . S
C2173 N2170 1.350 . S
C2173 C2172 1.434 . S
C2174 C2175 1.369 . S
C2174 C2176 1.419 . S
C2174 H2178 0.930 . S
C2175 C2174 1.369 . S
C2175 C2184 1.429 . S
C2176 C2174 1.419 . S
C2176 C2177 1.363 . S
C2176 H2179 0.929 . S
C2177 C2176 1.363 . S
C2177 C2183 1.428 . S
H2178 C2174 0.930 . S
H2179 C2176 0.929 . S
S2180 N2181 1.613 . S
S2180 N2182 1.610 . S
N2181 S2180 1.613 . S
N2181 C2184 1.350 . S
N2182 S2180 1.610 . S
N2182 C2183 1.351 . S
C2183 C2177 1.428 . S
C2183 N2182 1.351 . S
C2183 C2184 1.434 . S
C2184 C2175 1.429 . S
C2184 N2181 1.350 . S
C2184 C2183 1.434 . S
C2185 C2186 1.369 . S
C2185 C2187 1.419 . S
C2185 H2189 0.930 . S
C2186 C2185 1.369 . S
C2186 C2195 1.429 . S
C2187 C2185 1.419 . S
C2187 C2188 1.363 . S
C2187 H2190 0.929 . S
C2188 C2187 1.363 . S
C2188 C2194 1.428 . S
H2189 C2185 0.930 . S
H2190 C2187 0.929 . S
S2191 N2192 1.613 . S
S2191 N2193 1.610 . S
N2192 S2191 1.613 . S
N2192 C2195 1.350 . S
N2193 S2191 1.610 . S
N2193 C2194 1.351 . S
C2194 C2188 1.428 . S
C2194 N2193 1.351 . S
C2194 C2195 1.434 . S
C2195 C2186 1.429 . S
C2195 N2192 1.350 . S
C2195 C2194 1.434 . S
C2196 C2197 1.369 . S
C2196 C2198 1.419 . S
C2196 H2200 0.930 . S
C2197 C2196 1.369 . S
C2197 C2206 1.429 . S
C2198 C2196 1.419 . S
C2198 C2199 1.363 . S
C2198 H2201 0.929 . S
C2199 C2198 1.363 . S
C2199 C2205 1.428 . S
H2200 C2196 0.930 . S
H2201 C2198 0.929 . S
S2202 N2203 1.613 . S
S2202 N2204 1.610 . S
N2203 S2202 1.613 . S
N2203 C2206 1.350 . S
N2204 S2202 1.610 . S
N2204 C2205 1.351 . S
C2205 C2199 1.428 . S
C2205 N2204 1.351 . S
C2205 C2206 1.434 . S
C2206 C2197 1.429 . S
C2206 N2203 1.350 . S
C2206 C2205 1.434 . S
C2207 C2208 1.369 . S
C2207 C2209 1.419 . S
C2207 H2211 0.930 . S
C2208 C2207 1.369 . S
C2208 C2217 1.429 . S
C2209 C2207 1.419 . S
C2209 C2210 1.363 . S
C2209 H2212 0.929 . S
C2210 C2209 1.363 . S
C2210 C2216 1.428 . S
H2211 C2207 0.930 . S
H2212 C2209 0.929 . S
S2213 N2214 1.613 . S
S2213 N2215 1.610 . S
N2214 S2213 1.613 . S
N2214 C2217 1.350 . S
N2215 S2213 1.610 . S
N2215 C2216 1.351 . S
C2216 C2210 1.428 . S
C2216 N2215 1.351 . S
C2216 C2217 1.434 . S
C2217 C2208 1.429 . S
C2217 N2214 1.350 . S
C2217 C2216 1.434 . S
C2218 C2219 1.369 . S
C2218 C2220 1.419 . S
C2218 H2222 0.930 . S
C2219 C2218 1.369 . S
C2219 C2228 1.429 . S
C2220 C2218 1.419 . S
C2220 C2221 1.363 . S
C2220 H2223 0.929 . S
C2221 C2220 1.363 . S
C2221 C2227 1.428 . S
H2222 C2218 0.930 . S
H2223 C2220 0.929 . S
S2224 N2225 1.613 . S
S2224 N2226 1.610 . S
N2225 S2224 1.613 . S
N2225 C2228 1.350 . S
N2226 S2224 1.610 . S
N2226 C2227 1.351 . S
C2227 C2221 1.428 . S
C2227 N2226 1.351 . S
C2227 C2228 1.434 . S
C2228 C2219 1.429 . S
C2228 N2225 1.350 . S
C2228 C2227 1.434 . S
C2229 C2230 1.369 . S
C2229 C2231 1.419 . S
C2229 H2233 0.930 . S
C2230 C2229 1.369 . S
C2230 C2239 1.429 . S
C2231 C2229 1.419 . S
C2231 C2232 1.363 . S
C2231 H2234 0.929 . S
C2232 C2231 1.363 . S
C2232 C2238 1.428 . S
H2233 C2229 0.930 . S
H2234 C2231 0.929 . S
S2235 N2236 1.613 . S
S2235 N2237 1.610 . S
N2236 S2235 1.613 . S
N2236 C2239 1.350 . S
N2237 S2235 1.610 . S
N2237 C2238 1.351 . S
C2238 C2232 1.428 . S
C2238 N2237 1.351 . S
C2238 C2239 1.434 . S
C2239 C2230 1.429 . S
C2239 N2236 1.350 . S
C2239 C2238 1.434 . S
C2240 C2241 1.369 . S
C2240 C2242 1.419 . S
C2240 H2244 0.930 . S
C2241 C2240 1.369 . S
C2241 C2250 1.429 . S
C2242 C2240 1.419 . S
C2242 C2243 1.363 . S
C2242 H2245 0.929 . S
C2243 C2242 1.363 . S
C2243 C2249 1.428 . S
H2244 C2240 0.930 . S
H2245 C2242 0.929 . S
S2246 N2247 1.613 . S
S2246 N2248 1.610 . S
N2247 S2246 1.613 . S
N2247 C2250 1.350 . S
N2248 S2246 1.610 . S
N2248 C2249 1.351 . S
C2249 C2243 1.428 . S
C2249 N2248 1.351 . S
C2249 C2250 1.434 . S
C2250 C2241 1.429 . S
C2250 N2247 1.350 . S
C2250 C2249 1.434 . S
C2251 C2252 1.369 . S
C2251 C2253 1.419 . S
C2251 H2255 0.930 . S
C2252 C2251 1.369 . S
C2252 C2261 1.429 . S
C2253 C2251 1.419 . S
C2253 C2254 1.363 . S
C2253 H2256 0.929 . S
C2254 C2253 1.363 . S
C2254 C2260 1.428 . S
H2255 C2251 0.930 . S
H2256 C2253 0.929 . S
S2257 N2258 1.613 . S
S2257 N2259 1.610 . S
N2258 S2257 1.613 . S
N2258 C2261 1.350 . S
N2259 S2257 1.610 . S
N2259 C2260 1.351 . S
C2260 C2254 1.428 . S
C2260 N2259 1.351 . S
C2260 C2261 1.434 . S
C2261 C2252 1.429 . S
C2261 N2258 1.350 . S
C2261 C2260 1.434 . S
C2262 C2263 1.369 . S
C2262 C2264 1.419 . S
C2262 H2266 0.930 . S
C2263 C2262 1.369 . S
C2263 C2272 1.429 . S
C2264 C2262 1.419 . S
C2264 C2265 1.363 . S
C2264 H2267 0.929 . S
C2265 C2264 1.363 . S
C2265 C2271 1.428 . S
H2266 C2262 0.930 . S
H2267 C2264 0.929 . S
S2268 N2269 1.613 . S
S2268 N2270 1.610 . S
N2269 S2268 1.613 . S
N2269 C2272 1.350 . S
N2270 S2268 1.610 . S
N2270 C2271 1.351 . S
C2271 C2265 1.428 . S
C2271 N2270 1.351 . S
C2271 C2272 1.434 . S
C2272 C2263 1.429 . S
C2272 N2269 1.350 . S
C2272 C2271 1.434 . S
C2273 C2274 1.369 . S
C2273 C2275 1.419 . S
C2273 H2277 0.930 . S
C2274 C2273 1.369 . S
C2274 C2283 1.429 . S
C2275 C2273 1.419 . S
C2275 C2276 1.363 . S
C2275 H2278 0.929 . S
C2276 C2275 1.363 . S
C2276 C2282 1.428 . S
H2277 C2273 0.930 . S
H2278 C2275 0.929 . S
S2279 N2280 1.613 . S
S2279 N2281 1.610 . S
N2280 S2279 1.613 . S
N2280 C2283 1.350 . S
N2281 S2279 1.610 . S
N2281 C2282 1.351 . S
C2282 C2276 1.428 . S
C2282 N2281 1.351 . S
C2282 C2283 1.434 . S
C2283 C2274 1.429 . S
C2283 N2280 1.350 . S
C2283 C2282 1.434 . S
C2284 C2285 1.369 . S
C2284 C2286 1.419 . S
C2284 H2288 0.930 . S
C2285 C2284 1.369 . S
C2285 C2294 1.429 . S
C2286 C2284 1.419 . S
C2286 C2287 1.363 . S
C2286 H2289 0.929 . S
C2287 C2286 1.363 . S
C2287 C2293 1.428 . S
H2288 C2284 0.930 . S
H2289 C2286 0.929 . S
S2290 N2291 1.613 . S
S2290 N2292 1.610 . S
N2291 S2290 1.613 . S
N2291 C2294 1.350 . S
N2292 S2290 1.610 . S
N2292 C2293 1.351 . S
C2293 C2287 1.428 . S
C2293 N2292 1.351 . S
C2293 C2294 1.434 . S
C2294 C2285 1.429 . S
C2294 N2291 1.350 . S
C2294 C2293 1.434 . S
C2295 C2296 1.369 . S
C2295 C2297 1.419 . S
C2295 H2299 0.930 . S
C2296 C2295 1.369 . S
C2296 C2305 1.429 . S
C2297 C2295 1.419 . S
C2297 C2298 1.363 . S
C2297 H2300 0.929 . S
C2298 C2297 1.363 . S
C2298 C2304 1.428 . S
H2299 C2295 0.930 . S
H2300 C2297 0.929 . S
S2301 N2302 1.613 . S
S2301 N2303 1.610 . S
N2302 S2301 1.613 . S
N2302 C2305 1.350 . S
N2303 S2301 1.610 . S
N2303 C2304 1.351 . S
C2304 C2298 1.428 . S
C2304 N2303 1.351 . S
C2304 C2305 1.434 . S
C2305 C2296 1.429 . S
C2305 N2302 1.350 . S
C2305 C2304 1.434 . S
C2306 C2307 1.369 . S
C2306 C2308 1.419 . S
C2306 H2310 0.930 . S
C2307 C2306 1.369 . S
C2307 C2316 1.429 . S
C2308 C2306 1.419 . S
C2308 C2309 1.363 . S
C2308 H2311 0.929 . S
C2309 C2308 1.363 . S
C2309 C2315 1.428 . S
H2310 C2306 0.930 . S
H2311 C2308 0.929 . S
S2312 N2313 1.613 . S
S2312 N2314 1.610 . S
N2313 S2312 1.613 . S
N2313 C2316 1.350 . S
N2314 S2312 1.610 . S
N2314 C2315 1.351 . S
C2315 C2309 1.428 . S
C2315 N2314 1.351 . S
C2315 C2316 1.434 . S
C2316 C2307 1.429 . S
C2316 N2313 1.350 . S
C2316 C2315 1.434 . S
C2317 C2318 1.369 . S
C2317 C2319 1.419 . S
C2317 H2321 0.930 . S
C2318 C2317 1.369 . S
C2318 C2327 1.429 . S
C2319 C2317 1.419 . S
C2319 C2320 1.363 . S
C2319 H2322 0.929 . S
C2320 C2319 1.363 . S
C2320 C2326 1.428 . S
H2321 C2317 0.930 . S
H2322 C2319 0.929 . S
S2323 N2324 1.613 . S
S2323 N2325 1.610 . S
N2324 S2323 1.613 . S
N2324 C2327 1.350 . S
N2325 S2323 1.610 . S
N2325 C2326 1.351 . S
C2326 C2320 1.428 . S
C2326 N2325 1.351 . S
C2326 C2327 1.434 . S
C2327 C2318 1.429 . S
C2327 N2324 1.350 . S
C2327 C2326 1.434 . S
C2328 C2329 1.369 . S
C2328 C2330 1.419 1_554 S
C2328 H2332 0.930 . S
C2329 C2328 1.369 . S
C2329 C2338 1.429 . S
C2330 C2328 1.419 1_556 S
C2330 C2331 1.363 . S
C2330 H2333 0.929 . S
C2331 C2330 1.363 . S
C2331 C2337 1.428 . S
H2332 C2328 0.930 . S
H2333 C2330 0.929 . S
S2334 N2335 1.616 1_556 S
S2334 N2336 1.608 . S
N2335 S2334 1.616 1_554 S
N2335 C2338 1.350 . S
N2336 S2334 1.608 . S
N2336 C2337 1.351 . S
C2337 C2331 1.428 . S
C2337 N2336 1.351 . S
C2337 C2338 1.434 1_556 S
C2338 C2329 1.429 . S
C2338 N2335 1.350 . S
C2338 C2337 1.434 1_554 S
C2339 C2340 1.369 . S
C2339 C2341 1.419 1_556 S
C2339 H2343 0.930 . S
C2340 C2339 1.369 . S
C2340 C2349 1.429 . S
C2341 C2339 1.419 1_554 S
C2341 C2342 1.363 . S
C2341 H2344 0.929 . S
C2342 C2341 1.363 . S
C2342 C2348 1.428 . S
H2343 C2339 0.930 . S
H2344 C2341 0.929 . S
S2345 N2346 1.616 1_554 S
S2345 N2347 1.608 . S
N2346 S2345 1.616 1_556 S
N2346 C2349 1.350 . S
N2347 S2345 1.608 . S
N2347 C2348 1.351 . S
C2348 C2342 1.428 . S
C2348 N2347 1.351 . S
C2348 C2349 1.434 1_554 S
C2349 C2340 1.429 . S
C2349 N2346 1.350 . S
C2349 C2348 1.434 1_556 S
C2350 C2351 1.369 . S
C2350 C2352 1.419 1_554 S
C2350 H2354 0.930 . S
C2351 C2350 1.369 . S
C2351 C2360 1.429 . S
C2352 C2350 1.419 1_556 S
C2352 C2353 1.363 . S
C2352 H2355 0.929 . S
C2353 C2352 1.363 . S
C2353 C2359 1.428 . S
H2354 C2350 0.930 . S
H2355 C2352 0.929 . S
S2356 N2357 1.616 1_556 S
S2356 N2358 1.608 . S
N2357 S2356 1.616 1_554 S
N2357 C2360 1.350 . S
N2358 S2356 1.608 . S
N2358 C2359 1.351 . S
C2359 C2353 1.428 . S
C2359 N2358 1.351 . S
C2359 C2360 1.434 1_556 S
C2360 C2351 1.429 . S
C2360 N2357 1.350 . S
C2360 C2359 1.434 1_554 S
C2361 C2362 1.369 . S
C2361 C2363 1.419 1_554 S
C2361 H2365 0.930 . S
C2362 C2361 1.369 . S
C2362 C2371 1.429 . S
C2363 C2361 1.419 1_556 S
C2363 C2364 1.363 . S
C2363 H2366 0.929 . S
C2364 C2363 1.363 . S
C2364 C2370 1.428 . S
H2365 C2361 0.930 . S
H2366 C2363 0.929 . S
S2367 N2368 1.616 1_556 S
S2367 N2369 1.608 . S
N2368 S2367 1.616 1_554 S
N2368 C2371 1.350 . S
N2369 S2367 1.608 . S
N2369 C2370 1.351 . S
C2370 C2364 1.428 . S
C2370 N2369 1.351 . S
C2370 C2371 1.434 1_556 S
C2371 C2362 1.429 . S
C2371 N2368 1.350 . S
C2371 C2370 1.434 1_554 S
C2372 C2373 1.369 . S
C2372 C2374 1.419 1_554 S
C2372 H2376 0.930 . S
C2373 C2372 1.369 . S
C2373 C2382 1.429 . S
C2374 C2372 1.419 1_556 S
C2374 C2375 1.363 . S
C2374 H2377 0.929 . S
C2375 C2374 1.363 . S
C2375 C2381 1.428 . S
H2376 C2372 0.930 . S
H2377 C2374 0.929 . S
S2378 N2379 1.616 1_556 S
S2378 N2380 1.608 . S
N2379 S2378 1.616 1_554 S
N2379 C2382 1.350 . S
N2380 S2378 1.608 . S
N2380 C2381 1.351 . S
C2381 C2375 1.428 . S
C2381 N2380 1.351 . S
C2381 C2382 1.434 1_556 S
C2382 C2373 1.429 . S
C2382 N2379 1.350 . S
C2382 C2381 1.434 1_554 S
C2383 C2384 1.369 . S
C2383 C2385 1.419 1_554 S
C2383 H2387 0.930 . S
C2384 C2383 1.369 . S
C2384 C2393 1.429 . S
C2385 C2383 1.419 1_556 S
C2385 C2386 1.363 . S
C2385 H2388 0.929 . S
C2386 C2385 1.363 . S
C2386 C2392 1.428 . S
H2387 C2383 0.930 . S
H2388 C2385 0.929 . S
S2389 N2390 1.616 1_556 S
S2389 N2391 1.608 . S
N2390 S2389 1.616 1_554 S
N2390 C2393 1.350 . S
N2391 S2389 1.608 . S
N2391 C2392 1.351 . S
C2392 C2386 1.428 . S
C2392 N2391 1.351 . S
C2392 C2393 1.434 1_556 S
C2393 C2384 1.429 . S
C2393 N2390 1.350 . S
C2393 C2392 1.434 1_554 S
C2394 C2395 1.369 . S
C2394 C2396 1.419 1_556 S
C2394 H2398 0.930 . S
C2395 C2394 1.369 . S
C2395 C2404 1.429 . S
C2396 C2394 1.419 1_554 S
C2396 C2397 1.363 . S
C2396 H2399 0.929 . S
C2397 C2396 1.363 . S
C2397 C2403 1.428 . S
H2398 C2394 0.930 . S
H2399 C2396 0.929 . S
S2400 N2401 1.616 1_554 S
S2400 N2402 1.608 . S
N2401 S2400 1.616 1_556 S
N2401 C2404 1.350 . S
N2402 S2400 1.608 . S
N2402 C2403 1.351 . S
C2403 C2397 1.428 . S
C2403 N2402 1.351 . S
C2403 C2404 1.434 1_554 S
C2404 C2395 1.429 . S
C2404 N2401 1.350 . S
C2404 C2403 1.434 1_556 S
C2405 C2406 1.369 . S
C2405 C2407 1.419 1_556 S
C2405 H2409 0.930 . S
C2406 C2405 1.369 . S
C2406 C2415 1.429 . S
C2407 C2405 1.419 1_554 S
C2407 C2408 1.363 . S
C2407 H2410 0.929 . S
C2408 C2407 1.363 . S
C2408 C2414 1.428 . S
H2409 C2405 0.930 . S
H2410 C2407 0.929 . S
S2411 N2412 1.616 1_554 S
S2411 N2413 1.608 . S
N2412 S2411 1.616 1_556 S
N2412 C2415 1.350 . S
N2413 S2411 1.608 . S
N2413 C2414 1.351 . S
C2414 C2408 1.428 . S
C2414 N2413 1.351 . S
C2414 C2415 1.434 1_554 S
C2415 C2406 1.429 . S
C2415 N2412 1.350 . S
C2415 C2414 1.434 1_556 S
C2416 C2417 1.369 . S
C2416 C2418 1.419 . S
C2416 H2420 0.930 . S
C2417 C2416 1.369 . S
C2417 C2426 1.429 . S
C2418 C2416 1.419 . S
C2418 C2419 1.363 . S
C2418 H2421 0.929 . S
C2419 C2418 1.363 . S
C2419 C2425 1.428 . S
H2420 C2416 0.930 . S
H2421 C2418 0.929 . S
S2422 N2423 1.613 . S
S2422 N2424 1.610 . S
N2423 S2422 1.613 . S
N2423 C2426 1.350 . S
N2424 S2422 1.610 . S
N2424 C2425 1.351 . S
C2425 C2419 1.428 . S
C2425 N2424 1.351 . S
C2425 C2426 1.434 . S
C2426 C2417 1.429 . S
C2426 N2423 1.350 . S
C2426 C2425 1.434 . S
C2427 C2428 1.369 . S
C2427 C2429 1.419 . S
C2427 H2431 0.930 . S
C2428 C2427 1.369 . S
C2428 C2437 1.429 . S
C2429 C2427 1.419 . S
C2429 C2430 1.363 . S
C2429 H2432 0.929 . S
C2430 C2429 1.363 . S
C2430 C2436 1.428 . S
H2431 C2427 0.930 . S
H2432 C2429 0.929 . S
S2433 N2434 1.613 . S
S2433 N2435 1.610 . S
N2434 S2433 1.613 . S
N2434 C2437 1.350 . S
N2435 S2433 1.610 . S
N2435 C2436 1.351 . S
C2436 C2430 1.428 . S
C2436 N2435 1.351 . S
C2436 C2437 1.434 . S
C2437 C2428 1.429 . S
C2437 N2434 1.350 . S
C2437 C2436 1.434 . S
C2438 C2439 1.369 . S
C2438 C2440 1.419 . S
C2438 H2442 0.930 . S
C2439 C2438 1.369 . S
C2439 C2448 1.429 . S
C2440 C2438 1.419 . S
C2440 C2441 1.363 . S
C2440 H2443 0.929 . S
C2441 C2440 1.363 . S
C2441 C2447 1.428 . S
H2442 C2438 0.930 . S
H2443 C2440 0.929 . S
S2444 N2445 1.613 . S
S2444 N2446 1.610 . S
N2445 S2444 1.613 . S
N2445 C2448 1.350 . S
N2446 S2444 1.610 . S
N2446 C2447 1.351 . S
C2447 C2441 1.428 . S
C2447 N2446 1.351 . S
C2447 C2448 1.434 . S
C2448 C2439 1.429 . S
C2448 N2445 1.350 . S
C2448 C2447 1.434 . S
C2449 C2450 1.369 . S
C2449 C2451 1.419 . S
C2449 H2453 0.930 . S
C2450 C2449 1.369 . S
C2450 C2459 1.429 . S
C2451 C2449 1.419 . S
C2451 C2452 1.363 . S
C2451 H2454 0.929 . S
C2452 C2451 1.363 . S
C2452 C2458 1.428 . S
H2453 C2449 0.930 . S
H2454 C2451 0.929 . S
S2455 N2456 1.613 . S
S2455 N2457 1.610 . S
N2456 S2455 1.613 . S
N2456 C2459 1.350 . S
N2457 S2455 1.610 . S
N2457 C2458 1.351 . S
C2458 C2452 1.428 . S
C2458 N2457 1.351 . S
C2458 C2459 1.434 . S
C2459 C2450 1.429 . S
C2459 N2456 1.350 . S
C2459 C2458 1.434 . S
C2460 C2461 1.369 . S
C2460 C2462 1.419 . S
C2460 H2464 0.930 . S
C2461 C2460 1.369 . S
C2461 C2470 1.429 . S
C2462 C2460 1.419 . S
C2462 C2463 1.363 . S
C2462 H2465 0.929 . S
C2463 C2462 1.363 . S
C2463 C2469 1.428 . S
H2464 C2460 0.930 . S
H2465 C2462 0.929 . S
S2466 N2467 1.613 . S
S2466 N2468 1.610 . S
N2467 S2466 1.613 . S
N2467 C2470 1.350 . S
N2468 S2466 1.610 . S
N2468 C2469 1.351 . S
C2469 C2463 1.428 . S
C2469 N2468 1.351 . S
C2469 C2470 1.434 . S
C2470 C2461 1.429 . S
C2470 N2467 1.350 . S
C2470 C2469 1.434 . S
C2471 C2472 1.369 . S
C2471 C2473 1.419 . S
C2471 H2475 0.930 . S
C2472 C2471 1.369 . S
C2472 C2481 1.429 . S
C2473 C2471 1.419 . S
C2473 C2474 1.363 . S
C2473 H2476 0.929 . S
C2474 C2473 1.363 . S
C2474 C2480 1.428 . S
H2475 C2471 0.930 . S
H2476 C2473 0.929 . S
S2477 N2478 1.613 . S
S2477 N2479 1.610 . S
N2478 S2477 1.613 . S
N2478 C2481 1.350 . S
N2479 S2477 1.610 . S
N2479 C2480 1.351 . S
C2480 C2474 1.428 . S
C2480 N2479 1.351 . S
C2480 C2481 1.434 . S
C2481 C2472 1.429 . S
C2481 N2478 1.350 . S
C2481 C2480 1.434 . S
C2482 C2483 1.369 . S
C2482 C2484 1.419 . S
C2482 H2486 0.930 . S
C2483 C2482 1.369 . S
C2483 C2492 1.429 . S
C2484 C2482 1.419 . S
C2484 C2485 1.363 . S
C2484 H2487 0.929 . S
C2485 C2484 1.363 . S
C2485 C2491 1.428 . S
H2486 C2482 0.930 . S
H2487 C2484 0.929 . S
S2488 N2489 1.613 . S
S2488 N2490 1.610 . S
N2489 S2488 1.613 . S
N2489 C2492 1.350 . S
N2490 S2488 1.610 . S
N2490 C2491 1.351 . S
C2491 C2485 1.428 . S
C2491 N2490 1.351 . S
C2491 C2492 1.434 . S
C2492 C2483 1.429 . S
C2492 N2489 1.350 . S
C2492 C2491 1.434 . S
C2493 C2494 1.369 . S
C2493 C2495 1.419 . S
C2493 H2497 0.930 . S
C2494 C2493 1.369 . S
C2494 C2503 1.429 . S
C2495 C2493 1.419 . S
C2495 C2496 1.363 . S
C2495 H2498 0.929 . S
C2496 C2495 1.363 . S
C2496 C2502 1.428 . S
H2497 C2493 0.930 . S
H2498 C2495 0.929 . S
S2499 N2500 1.613 . S
S2499 N2501 1.610 . S
N2500 S2499 1.613 . S
N2500 C2503 1.350 . S
N2501 S2499 1.610 . S
N2501 C2502 1.351 . S
C2502 C2496 1.428 . S
C2502 N2501 1.351 . S
C2502 C2503 1.434 . S
C2503 C2494 1.429 . S
C2503 N2500 1.350 . S
C2503 C2502 1.434 . S
C2504 C2505 1.369 . S
C2504 C2506 1.419 . S
C2504 H2508 0.930 . S
C2505 C2504 1.369 . S
C2505 C2514 1.429 . S
C2506 C2504 1.419 . S
C2506 C2507 1.363 . S
C2506 H2509 0.929 . S
C2507 C2506 1.363 . S
C2507 C2513 1.428 . S
H2508 C2504 0.930 . S
H2509 C2506 0.929 . S
S2510 N2511 1.613 . S
S2510 N2512 1.610 . S
N2511 S2510 1.613 . S
N2511 C2514 1.350 . S
N2512 S2510 1.610 . S
N2512 C2513 1.351 . S
C2513 C2507 1.428 . S
C2513 N2512 1.351 . S
C2513 C2514 1.434 . S
C2514 C2505 1.429 . S
C2514 N2511 1.350 . S
C2514 C2513 1.434 . S
C2515 C2516 1.369 . S
C2515 C2517 1.419 . S
C2515 H2519 0.930 . S
C2516 C2515 1.369 . S
C2516 C2525 1.429 . S
C2517 C2515 1.419 . S
C2517 C2518 1.363 . S
C2517 H2520 0.929 . S
C2518 C2517 1.363 . S
C2518 C2524 1.428 . S
H2519 C2515 0.930 . S
H2520 C2517 0.929 . S
S2521 N2522 1.613 . S
S2521 N2523 1.610 . S
N2522 S2521 1.613 . S
N2522 C2525 1.350 . S
N2523 S2521 1.610 . S
N2523 C2524 1.351 . S
C2524 C2518 1.428 . S
C2524 N2523 1.351 . S
C2524 C2525 1.434 . S
C2525 C2516 1.429 . S
C2525 N2522 1.350 . S
C2525 C2524 1.434 . S
C2526 C2527 1.369 . S
C2526 C2528 1.419 . S
C2526 H2530 0.930 . S
C2527 C2526 1.369 . S
C2527 C2536 1.429 . S
C2528 C2526 1.419 . S
C2528 C2529 1.363 . S
C2528 H2531 0.929 . S
C2529 C2528 1.363 . S
C2529 C2535 1.428 . S
H2530 C2526 0.930 . S
H2531 C2528 0.929 . S
S2532 N2533 1.613 . S
S2532 N2534 1.610 . S
N2533 S2532 1.613 . S
N2533 C2536 1.350 . S
N2534 S2532 1.610 . S
N2534 C2535 1.351 . S
C2535 C2529 1.428 . S
C2535 N2534 1.351 . S
C2535 C2536 1.434 . S
C2536 C2527 1.429 . S
C2536 N2533 1.350 . S
C2536 C2535 1.434 . S
C2537 C2538 1.369 . S
C2537 C2539 1.419 . S
C2537 H2541 0.930 . S
C2538 C2537 1.369 . S
C2538 C2547 1.429 . S
C2539 C2537 1.419 . S
C2539 C2540 1.363 . S
C2539 H2542 0.929 . S
C2540 C2539 1.363 . S
C2540 C2546 1.428 . S
H2541 C2537 0.930 . S
H2542 C2539 0.929 . S
S2543 N2544 1.613 . S
S2543 N2545 1.610 . S
N2544 S2543 1.613 . S
N2544 C2547 1.350 . S
N2545 S2543 1.610 . S
N2545 C2546 1.351 . S
C2546 C2540 1.428 . S
C2546 N2545 1.351 . S
C2546 C2547 1.434 . S
C2547 C2538 1.429 . S
C2547 N2544 1.350 . S
C2547 C2546 1.434 . S
C2548 C2549 1.369 . S
C2548 C2550 1.419 . S
C2548 H2552 0.930 . S
C2549 C2548 1.369 . S
C2549 C2558 1.429 . S
C2550 C2548 1.419 . S
C2550 C2551 1.363 . S
C2550 H2553 0.929 . S
C2551 C2550 1.363 . S
C2551 C2557 1.428 . S
H2552 C2548 0.930 . S
H2553 C2550 0.929 . S
S2554 N2555 1.613 . S
S2554 N2556 1.610 . S
N2555 S2554 1.613 . S
N2555 C2558 1.350 . S
N2556 S2554 1.610 . S
N2556 C2557 1.351 . S
C2557 C2551 1.428 . S
C2557 N2556 1.351 . S
C2557 C2558 1.434 . S
C2558 C2549 1.429 . S
C2558 N2555 1.350 . S
C2558 C2557 1.434 . S
C2559 C2560 1.369 . S
C2559 C2561 1.419 . S
C2559 H2563 0.930 . S
C2560 C2559 1.369 . S
C2560 C2569 1.429 . S
C2561 C2559 1.419 . S
C2561 C2562 1.363 . S
C2561 H2564 0.929 . S
C2562 C2561 1.363 . S
C2562 C2568 1.428 . S
H2563 C2559 0.930 . S
H2564 C2561 0.929 . S
S2565 N2566 1.613 . S
S2565 N2567 1.610 . S
N2566 S2565 1.613 . S
N2566 C2569 1.350 . S
N2567 S2565 1.610 . S
N2567 C2568 1.351 . S
C2568 C2562 1.428 . S
C2568 N2567 1.351 . S
C2568 C2569 1.434 . S
C2569 C2560 1.429 . S
C2569 N2566 1.350 . S
C2569 C2568 1.434 . S
C2570 C2571 1.369 . S
C2570 C2572 1.419 . S
C2570 H2574 0.930 . S
C2571 C2570 1.369 . S
C2571 C2580 1.429 . S
C2572 C2570 1.419 . S
C2572 C2573 1.363 . S
C2572 H2575 0.929 . S
C2573 C2572 1.363 . S
C2573 C2579 1.428 . S
H2574 C2570 0.930 . S
H2575 C2572 0.929 . S
S2576 N2577 1.613 . S
S2576 N2578 1.610 . S
N2577 S2576 1.613 . S
N2577 C2580 1.350 . S
N2578 S2576 1.610 . S
N2578 C2579 1.351 . S
C2579 C2573 1.428 . S
C2579 N2578 1.351 . S
C2579 C2580 1.434 . S
C2580 C2571 1.429 . S
C2580 N2577 1.350 . S
C2580 C2579 1.434 . S
C2581 C2582 1.369 . S
C2581 C2583 1.419 . S
C2581 H2585 0.930 . S
C2582 C2581 1.369 . S
C2582 C2591 1.429 . S
C2583 C2581 1.419 . S
C2583 C2584 1.363 . S
C2583 H2586 0.929 . S
C2584 C2583 1.363 . S
C2584 C2590 1.428 . S
H2585 C2581 0.930 . S
H2586 C2583 0.929 . S
S2587 N2588 1.613 . S
S2587 N2589 1.610 . S
N2588 S2587 1.613 . S
N2588 C2591 1.350 . S
N2589 S2587 1.610 . S
N2589 C2590 1.351 . S
C2590 C2584 1.428 . S
C2590 N2589 1.351 . S
C2590 C2591 1.434 . S
C2591 C2582 1.429 . S
C2591 N2588 1.350 . S
C2591 C2590 1.434 . S
C1889 C937 1.576 . S
C1891 C52 1.575 . S
C1900 C111 1.574 . S
C1902 C760 1.574 . S
C1911 C170 1.575 . S
C1913 C819 1.575 . S
C1922 C878 1.575 . S
C1924 C229 1.575 . S
C1933 C288 1.576 . S
C1935 C583 1.576 . S
C1944 C347 1.574 . S
C1946 C642 1.574 . S
C1955 C701 1.575 . S
C1957 C406 1.575 . S
C1966 C524 1.576 . S
C1968 C465 1.576 . S
C1977 C996 1.575 . S
C1979 C1881 1.575 . S
C1988 C1055 1.574 . S
C1990 C1704 1.574 . S
C1999 C1114 1.574 . S
C2001 C1763 1.574 . S
C2010 C1822 1.574 . S
C2012 C1173 1.574 . S
C2021 C1232 1.574 . S
C2023 C1527 1.574 . S
C2032 C1291 1.575 . S
C2034 C1586 1.575 . S
C2043 C1645 1.575 . S
C2045 C1350 1.575 . S
C2054 C1409 1.575 . S
C2056 C1468 1.575 . S
C2065 C713 1.531 . S
C2067 C5 1.531 . S
C2076 C64 1.530 . S
C2078 C772 1.530 . S
C2087 C831 1.530 . S
C2089 C123 1.530 . S
C2098 C182 1.532 . S
C2100 C890 1.531 . S
C2109 C241 1.530 . S
C2111 C477 1.530 . S
C2120 C536 1.530 . S
C2122 C300 1.530 . S
C2131 C595 1.531 . S
C2133 C359 1.531 . S
C2142 C654 1.530 . S
C2144 C418 1.530 . S
C2153 C949 1.531 . S
C2155 C1657 1.531 . S
C2164 C1716 1.530 . S
C2166 C1008 1.530 . S
C2175 C1067 1.530 . S
C2177 C1775 1.530 . S
C2186 C1126 1.530 . S
C2188 C1834 1.530 . S
C2197 C1421 1.530 . S
C2199 C1185 1.530 . S
C2208 C1244 1.532 . S
C2210 C1480 1.531 . S
C2219 C1303 1.532 . S
C2221 C1539 1.531 . S
C2230 C1362 1.532 . S
C2232 C1598 1.531 . S
C2241 C33 1.370 . S
C2243 C623 1.370 . S
C2252 C682 1.371 . S
C2254 C92 1.371 . S
C2263 C151 1.373 . S
C2265 C505 1.372 . S
C2274 C564 1.372 . S
C2276 C210 1.372 . S
C2285 C859 1.371 . S
C2287 C269 1.372 . S
C2296 C918 1.370 . S
C2298 C328 1.371 . S
C2307 C741 1.373 . S
C2309 C387 1.372 . S
C2318 C446 1.374 . S
C2320 C800 1.373 . S
C2329 C1567 1.370 . S
C2331 C977 1.371 . S
C2340 C1036 1.370 . S
C2342 C1626 1.371 . S
C2351 C1449 1.374 . S
C2353 C1095 1.373 . S
C2362 C1508 1.372 . S
C2364 C1154 1.372 . S
C2373 C1213 1.373 . S
C2375 C1803 1.372 . S
C2384 C1272 1.372 . S
C2386 C1862 1.372 . S
C2395 C1685 1.370 . S
C2397 C1331 1.370 . S
C2406 C1744 1.370 . S
C2408 C1390 1.370 . S
C2417 C1360 1.419 . S
C2419 C3 1.424 . S
C2428 C1183 1.425 . S
C2430 C62 1.424 . S
C2439 C1242 1.422 . S
C2441 C121 1.425 . S
C2450 C1301 1.425 . S
C2452 C180 1.422 . S
C2461 C1006 1.419 . S
C2463 C239 1.420 . S
C2472 C298 1.419 . S
C2474 C1065 1.424 . S
C2483 C357 1.418 . S
C2485 C1124 1.423 . S
C2494 C416 1.421 . S
C2496 C947 1.419 . S
C2505 C475 1.425 . S
C2507 C1832 1.424 . S
C2516 C1655 1.426 . S
C2518 C534 1.422 . S
C2527 C593 1.418 . S
C2529 C1714 1.420 . S
C2538 C652 1.424 . S
C2540 C1773 1.420 . S
C2549 C1478 1.423 . S
C2551 C711 1.425 . S
C2560 C1537 1.419 . S
C2562 C770 1.419 . S
C2571 C829 1.419 . S
C2573 C1596 1.423 . S
C2582 C888 1.418 . S
C2584 C1419 1.420 . S
