# Generated by pormake.
# Topology mon, (4)-cn, num edge types: 1
# Building blocks:
#     Node 0, Type 0, BuildingBlock: QUQFOY_clean_sbu_3, # of connection points: 4
#     Node 1, Type 0, BuildingBlock: QUQFOY_clean_sbu_3, # of connection points: 4
#     Node 2, Type 0, BuildingBlock: QUQFOY_clean_sbu_3, # of connection points: 4
#     Node 3, Type 0, BuildingBlock: QUQFOY_clean_sbu_3, # of connection points: 4
#     Node 4, Type 0, BuildingBlock: QUQFOY_clean_sbu_3, # of connection points: 4
#     Node 5, Type 0, BuildingBlock: QUQFOY_clean_sbu_3, # of connection points: 4
#     Node 6, Type 0, BuildingBlock: QUQFOY_clean_sbu_3, # of connection points: 4
#     Node 7, Type 0, BuildingBlock: QUQFOY_clean_sbu_3, # of connection points: 4
#     Node 8, Type 0, BuildingBlock: QUQFOY_clean_sbu_3, # of connection points: 4
#     Node 9, Type 0, BuildingBlock: QUQFOY_clean_sbu_3, # of connection points: 4
#     Node 10, Type 0, BuildingBlock: QUQFOY_clean_sbu_3, # of connection points: 4
#     Node 11, Type 0, BuildingBlock: QUQFOY_clean_sbu_3, # of connection points: 4
#     Node 12, Type 0, BuildingBlock: QUQFOY_clean_sbu_3, # of connection points: 4
#     Node 13, Type 0, BuildingBlock: QUQFOY_clean_sbu_3, # of connection points: 4
#     Node 14, Type 0, BuildingBlock: QUQFOY_clean_sbu_3, # of connection points: 4
#     Node 15, Type 0, BuildingBlock: QUQFOY_clean_sbu_3, # of connection points: 4
#     Edge 16, Type (0, 0), BuildingBlock: EZIPEK_clean_linker_0, # of connection points: 2
#     Edge 17, Type (0, 0), BuildingBlock: EZIPEK_clean_linker_0, # of connection points: 2
#     Edge 18, Type (0, 0), BuildingBlock: EZIPEK_clean_linker_0, # of connection points: 2
#     Edge 19, Type (0, 0), BuildingBlock: EZIPEK_clean_linker_0, # of connection points: 2
#     Edge 20, Type (0, 0), BuildingBlock: EZIPEK_clean_linker_0, # of connection points: 2
#     Edge 21, Type (0, 0), BuildingBlock: EZIPEK_clean_linker_0, # of connection points: 2
#     Edge 22, Type (0, 0), BuildingBlock: EZIPEK_clean_linker_0, # of connection points: 2
#     Edge 23, Type (0, 0), BuildingBlock: EZIPEK_clean_linker_0, # of connection points: 2
#     Edge 24, Type (0, 0), BuildingBlock: EZIPEK_clean_linker_0, # of connection points: 2
#     Edge 25, Type (0, 0), BuildingBlock: EZIPEK_clean_linker_0, # of connection points: 2
#     Edge 26, Type (0, 0), BuildingBlock: EZIPEK_clean_linker_0, # of connection points: 2
#     Edge 27, Type (0, 0), BuildingBlock: EZIPEK_clean_linker_0, # of connection points: 2
#     Edge 28, Type (0, 0), BuildingBlock: EZIPEK_clean_linker_0, # of connection points: 2
#     Edge 29, Type (0, 0), BuildingBlock: EZIPEK_clean_linker_0, # of connection points: 2
#     Edge 30, Type (0, 0), BuildingBlock: EZIPEK_clean_linker_0, # of connection points: 2
#     Edge 31, Type (0, 0), BuildingBlock: EZIPEK_clean_linker_0, # of connection points: 2
#     Edge 32, Type (0, 0), BuildingBlock: EZIPEK_clean_linker_0, # of connection points: 2
#     Edge 33, Type (0, 0), BuildingBlock: EZIPEK_clean_linker_0, # of connection points: 2
#     Edge 34, Type (0, 0), BuildingBlock: EZIPEK_clean_linker_0, # of connection points: 2
#     Edge 35, Type (0, 0), BuildingBlock: EZIPEK_clean_linker_0, # of connection points: 2
#     Edge 36, Type (0, 0), BuildingBlock: EZIPEK_clean_linker_0, # of connection points: 2
#     Edge 37, Type (0, 0), BuildingBlock: EZIPEK_clean_linker_0, # of connection points: 2
#     Edge 38, Type (0, 0), BuildingBlock: EZIPEK_clean_linker_0, # of connection points: 2
#     Edge 39, Type (0, 0), BuildingBlock: EZIPEK_clean_linker_0, # of connection points: 2
#     Edge 40, Type (0, 0), BuildingBlock: EZIPEK_clean_linker_0, # of connection points: 2
#     Edge 41, Type (0, 0), BuildingBlock: EZIPEK_clean_linker_0, # of connection points: 2
#     Edge 42, Type (0, 0), BuildingBlock: EZIPEK_clean_linker_0, # of connection points: 2
#     Edge 43, Type (0, 0), BuildingBlock: EZIPEK_clean_linker_0, # of connection points: 2
#     Edge 44, Type (0, 0), BuildingBlock: EZIPEK_clean_linker_0, # of connection points: 2
#     Edge 45, Type (0, 0), BuildingBlock: EZIPEK_clean_linker_0, # of connection points: 2
#     Edge 46, Type (0, 0), BuildingBlock: EZIPEK_clean_linker_0, # of connection points: 2
#     Edge 47, Type (0, 0), BuildingBlock: EZIPEK_clean_linker_0, # of connection points: 2
# Relax obj value: 0.180
# Max RMSD: 0.174
# Mean RMSD: 0.174
data_MOF--net-mon--node1-QUQFOY_clean_sbu_3--edge1-EZIPEK_clean_linker_0
_symmetry_space_group_name_H-M    P1
_symmetry_Int_Tables_number       1
_symmetry_cell_setting            triclinic
loop_
_symmetry_equiv_pos_as_xyz
'x, y, z'
_cell_length_a     27.029331
_cell_length_b     26.682174
_cell_length_c     64.452555
_cell_angle_alpha  89.441449
_cell_angle_beta   89.859302
_cell_angle_gamma 89.806674
loop_
_atom_site_label
_atom_site_type_symbol
_atom_site_fract_x
_atom_site_fract_y
_atom_site_fract_z
_atom_type_partial_charge
C0 C 0.05499 0.93177 0.57527 0.0
O1 O 0.03785 0.89685 0.56417 0.0
Cd2 Cd 0.96566 0.90002 0.54306 0.0
O3 O 0.03369 0.97442 0.57589 0.0
Cd4 Cd 0.95614 0.01 0.56096 0.0
C5 C 0.88376 0.91982 0.58217 0.0
O6 O 0.96792 -0.02014 0.52607 0.0
O7 O 0.89601 0.01228 0.53238 0.0
O8 O -0.0078 0.09278 0.55767 0.0
C9 C 0.92648 -0.00518 0.51934 0.0
O10 O 0.89849 0.89041 0.568 0.0
C11 C 0.95865 0.11455 0.56808 0.0
O12 O 0.9007 0.96401 0.58367 0.0
O13 O 0.92474 0.08753 0.57589 0.0
C14 C 0.26879 0.82296 0.82128 0.0
O15 O 0.2877 0.81684 0.80344 0.0
Cd16 Cd 0.2774 0.74311 0.78444 0.0
O17 O 0.23459 0.79423 0.82816 0.0
Cd18 Cd 0.18191 0.72494 0.81417 0.0
C19 C 0.28196 0.65605 0.82525 0.0
O20 O 0.19185 0.74614 0.77888 0.0
O21 O 0.16979 0.66956 0.78375 0.0
O22 O 0.10395 0.76806 0.81957 0.0
C23 C 0.17895 0.7051 0.77115 0.0
O24 O 0.30247 0.67822 0.80988 0.0
C25 C 0.08289 0.73073 0.82811 0.0
O26 O 0.23725 0.66517 0.8302 0.0
O27 O 0.10899 0.69194 0.83164 0.0
C28 C 0.37724 0.02202 0.07139 0.0
O29 O 0.3817 0.03873 0.053 0.0
Cd30 Cd 0.45942 0.03552 0.03671 0.0
O31 O 0.40883 -0.0087 0.07906 0.0
Cd32 Cd 0.48137 0.94063 0.06615 0.0
C33 C 0.53893 0.04472 0.07942 0.0
O34 O 0.46756 0.94985 0.03034 0.0
O35 O 0.54427 0.93698 0.03762 0.0
O36 O 0.43923 0.86114 0.06919 0.0
C37 C 0.51098 0.94233 0.02395 0.0
O38 O 0.51707 0.06419 0.06376 0.0
C39 C 0.47432 0.83861 0.07845 0.0
O40 O 0.53339 -0.00135 0.08416 0.0
O41 O 0.51181 0.86441 0.08344 0.0
C42 C 0.18942 0.10849 0.33761 0.0
O43 O 0.15805 0.11464 0.32324 0.0
Cd44 Cd 0.15927 0.17911 0.2984 0.0
O45 O 0.22739 0.13656 0.33905 0.0
Cd46 Cd 0.26107 0.20823 0.31782 0.0
C47 C 0.16402 0.27857 0.33161 0.0
O48 O 0.2406 0.17604 0.28421 0.0
O49 O 0.24943 0.25552 0.2849 0.0
O50 O 0.3453 0.17576 0.31951 0.0
C51 C 0.24328 0.21656 0.27411 0.0
O52 O 0.13984 0.2533 0.31845 0.0
C53 C 0.36442 0.21682 0.32506 0.0
O54 O 0.20937 0.26926 0.33524 0.0
O55 O 0.33552 0.25367 0.32796 0.0
C56 C 0.06565 -0.0225 0.37849 0.0
O57 O 0.06673 0.94075 0.39088 0.0
Cd58 Cd -0.02451 0.94129 0.39387 0.0
O59 O 0.02358 -0.00706 0.37273 0.0
Cd60 Cd 0.95848 0.93474 0.3905 0.0
C61 C 0.90159 0.01456 0.37151 0.0
O62 O -0.02824 0.94753 0.42898 0.0
O63 O 0.89647 0.95494 0.41866 0.0
O64 O 0.00503 0.85438 0.3886 0.0
C65 C 0.92709 0.95551 0.43353 0.0
O66 O 0.93576 0.02473 0.38417 0.0
C67 C 0.96783 0.82905 0.38302 0.0
O68 O 0.89586 0.96902 0.36689 0.0
O69 O 0.92745 0.8525 0.38024 0.0
C70 C 0.17514 0.81722 0.62573 0.0
O71 O 0.13961 0.79748 0.63591 0.0
Cd72 Cd 0.12908 0.72644 0.65858 0.0
O73 O 0.21897 0.79904 0.62626 0.0
Cd74 Cd 0.25927 0.72444 0.64286 0.0
C75 C 0.17363 0.63771 0.62475 0.0
O76 O 0.20744 0.72101 0.67132 0.0
O77 O 0.28197 0.71479 0.68113 0.0
O78 O 0.33751 0.76648 0.63787 0.0
C79 C 0.23674 0.71527 0.68611 0.0
O80 O 0.13894 0.65796 0.6352 0.0
C81 C 0.3619 0.72621 0.63505 0.0
O82 O 0.2181 0.65389 0.62508 0.0
O83 O 0.33791 0.68529 0.63443 0.0
C84 C 0.37792 0.93931 0.87901 0.0
O85 O 0.38284 0.91024 0.89452 0.0
Cd86 Cd 0.44714 0.91531 0.9189 0.0
O87 O 0.40638 -0.02319 0.87629 0.0
Cd88 Cd 0.47582 0.01474 0.89588 0.0
C89 C 0.5424 0.91273 0.88393 0.0
O90 O 0.44881 -0.00125 0.93088 0.0
O91 O 0.52727 0.00492 0.92731 0.0
O92 O 0.44143 0.09862 0.89351 0.0
C93 C 0.49055 0.00082 0.9395 0.0
O94 O 0.52106 0.89249 0.89951 0.0
C95 C 0.48064 0.11895 0.88667 0.0
O96 O 0.5306 0.95668 0.87776 0.0
O97 O 0.51757 0.09063 0.88323 0.0
C98 C 0.25726 0.13083 0.12852 0.0
O99 O 0.28504 0.13523 0.1442 0.0
Cd100 Cd 0.27835 0.20144 0.16786 0.0
O101 O 0.21956 0.15916 0.12585 0.0
Cd102 Cd 0.17426 0.22605 0.14538 0.0
C103 C 0.26903 0.29931 0.13176 0.0
O104 O 0.19548 0.19739 0.17927 0.0
O105 O 0.17248 0.27477 0.17803 0.0
O106 O 0.09599 0.18266 0.14187 0.0
C107 C 0.18481 0.23692 0.18887 0.0
O108 O 0.29382 0.27365 0.14493 0.0
C109 C 0.07187 0.22114 0.136 0.0
O110 O 0.22339 0.29066 0.12871 0.0
O111 O 0.09589 0.26149 0.13327 0.0
C112 C 0.68905 0.3447 0.14067 0.0
O113 O 0.65931 0.33283 0.15518 0.0
Cd114 Cd 0.65808 0.25503 0.17326 0.0
O115 O 0.72326 0.31424 0.13548 0.0
Cd116 Cd 0.75746 0.23245 0.14825 0.0
C117 C 0.65487 0.17399 0.13191 0.0
O118 O 0.74074 0.24289 0.18468 0.0
O119 O 0.75924 0.16732 0.17576 0.0
O120 O 0.84096 0.26469 0.14844 0.0
C121 C 0.75029 0.19826 0.19007 0.0
O122 O 0.63284 0.19448 0.14714 0.0
C123 C 0.85907 0.2306 0.13712 0.0
O124 O 0.70042 0.18225 0.12826 0.0
O125 O 0.82959 0.19799 0.13008 0.0
C126 C 0.76207 0.63337 0.63541 0.0
O127 O 0.79325 0.64987 0.64834 0.0
Cd128 Cd 0.78086 0.71491 0.673 0.0
O129 O 0.71868 0.65206 0.63434 0.0
Cd130 Cd 0.67627 0.72454 0.65091 0.0
C131 C 0.76322 0.81078 0.63825 0.0
O132 O 0.69924 0.70661 0.68656 0.0
O133 O 0.6674 0.77986 0.68099 0.0
O134 O 0.59511 0.68517 0.6501 0.0
C135 C 0.6829 0.74731 0.69386 0.0
O136 O 0.78922 0.79171 0.65277 0.0
C137 C 0.57484 0.72029 0.63974 0.0
O138 O 0.72325 0.78958 0.63288 0.0
O139 O 0.60193 0.75657 0.63396 0.0
C140 C 0.72633 0.32045 0.33561 0.0
O141 O 0.69449 0.3265 0.32156 0.0
Cd142 Cd 0.69094 0.2352 0.31588 0.0
O143 O 0.73643 0.27598 0.34104 0.0
Cd144 Cd 0.68251 0.21555 0.31911 0.0
C145 C 0.76077 0.15579 0.33739 0.0
O146 O 0.70016 0.23522 0.28098 0.0
O147 O 0.70472 0.15739 0.28995 0.0
O148 O 0.60289 0.26213 0.32063 0.0
C149 C 0.70751 0.19042 0.27571 0.0
O150 O 0.77156 0.19238 0.3256 0.0
C151 C 0.57747 0.22354 0.32503 0.0
O152 O 0.71549 0.14863 0.34136 0.0
O153 O 0.60058 0.18243 0.32742 0.0
C154 C 0.72319 0.62702 0.8396 0.0
O155 O 0.75699 0.62198 0.82629 0.0
Cd156 Cd 0.75881 0.71368 0.8197 0.0
O157 O 0.71089 0.67112 0.84428 0.0
Cd158 Cd 0.76483 0.73222 0.82257 0.0
C159 C 0.68957 0.79132 0.84228 0.0
O160 O 0.74951 0.71122 0.78473 0.0
O161 O 0.73306 0.78725 0.79319 0.0
O162 O 0.8456 0.68802 0.82524 0.0
C163 C 0.7349 0.7542 0.77917 0.0
O164 O 0.67833 0.75732 0.82957 0.0
C165 C 0.86993 0.7279 0.82828 0.0
O166 O 0.73498 0.79663 0.84628 0.0
O167 O 0.84593 0.76879 0.82903 0.0
C168 C 0.57171 0.44412 0.08466 0.0
O169 O 0.56207 0.40882 0.07227 0.0
Cd170 Cd 0.49454 0.40842 0.04862 0.0
O171 O 0.54584 0.48411 0.0847 0.0
Cd172 Cd 0.47159 0.51817 0.06677 0.0
C173 C 0.40145 0.42252 0.08445 0.0
O174 O 0.49117 0.48881 0.03221 0.0
O175 O 0.41752 0.51911 0.03609 0.0
O176 O 0.51091 0.59973 0.06652 0.0
C177 C 0.45021 0.50119 0.02414 0.0
O178 O 0.42335 0.39545 0.07109 0.0
C179 C 0.47475 0.62272 0.07473 0.0
O180 O 0.41306 0.46825 0.08697 0.0
O181 O 0.43713 0.59695 0.0798 0.0
C182 C 0.87744 0.52066 0.57972 0.0
O183 O 0.89263 0.55416 0.56716 0.0
Cd184 Cd 0.95887 0.54741 0.54321 0.0
O185 O 0.89708 0.47712 0.58003 0.0
Cd186 Cd 0.96694 0.43495 0.56136 0.0
C187 C 0.05112 0.51779 0.57779 0.0
O188 O 0.95278 0.46839 0.52676 0.0
O189 O 0.02283 0.43059 0.53149 0.0
O190 O 0.92279 0.35608 0.55906 0.0
C191 C -0.00709 0.45199 0.51918 0.0
O192 O 0.03171 0.54885 0.56507 0.0
C193 C 0.95628 0.33045 0.56803 0.0
O194 O 0.03381 0.47386 0.58017 0.0
O195 O -0.00632 0.35374 0.5748 0.0
C196 C 0.58037 0.51683 0.88253 0.0
O197 O 0.56939 0.54905 0.89613 0.0
Cd198 Cd 0.49713 0.54825 0.91673 0.0
O199 O 0.55399 0.47782 0.8799 0.0
Cd200 Cd 0.47836 0.43973 0.89595 0.0
C201 C 0.4117 0.53698 0.87714 0.0
O202 O 0.49356 0.46617 0.93106 0.0
O203 O 0.42024 0.43745 0.92572 0.0
O204 O 0.52032 0.35898 0.8964 0.0
C205 C 0.45195 0.45368 0.9384 0.0
O206 O 0.43247 0.56291 0.89112 0.0
C207 C 0.48505 0.33505 0.88818 0.0
O208 O 0.422 0.49072 0.87493 0.0
O209 O 0.4472 0.36008 0.88263 0.0
C210 C 0.86625 0.43261 0.3791 0.0
O211 O 0.87645 0.40189 0.39362 0.0
Cd212 Cd 0.94662 0.40434 0.41538 0.0
O213 O 0.89271 0.47137 0.3757 0.0
Cd214 Cd 0.96807 0.50975 0.39125 0.0
C215 C 0.03589 0.40996 0.37696 0.0
O216 O 0.95229 0.48803 0.4269 0.0
O217 O 0.02673 0.51283 0.42042 0.0
O218 O 0.93222 0.5929 0.39179 0.0
C219 C -0.00547 0.49965 0.43367 0.0
O220 O 0.01393 0.38604 0.39147 0.0
C221 C 0.96664 0.61346 0.3814 0.0
O222 O 0.02557 0.4556 0.37291 0.0
O223 O 0.00106 0.58548 0.37465 0.0
C224 C 0.9611 0.19556 0.58759 0.0
C225 C 0.95567 0.16967 0.56863 0.0
C226 C 0.95279 0.24897 0.54943 0.0
C227 C 0.95454 0.27517 0.56847 0.0
N228 N 0.952 0.27418 0.60587 0.0
N229 N 0.93388 0.17121 0.53234 0.0
C230 C 0.95636 0.24869 0.58766 0.0
C231 C 0.94785 0.19623 0.54978 0.0
N232 N -0.02765 0.16955 0.60535 0.0
N233 N 0.95827 0.27409 0.53097 0.0
H234 H 0.92828 0.13258 0.53213 0.0
H235 H 0.92277 0.18927 0.51872 0.0
H236 H 0.96297 0.31276 0.52989 0.0
H237 H 0.96297 0.25607 0.51683 0.0
H238 H -0.01798 0.18667 0.6192 0.0
H239 H -0.02436 0.13058 0.60584 0.0
H240 H 0.94805 0.25666 0.62028 0.0
H241 H 0.94803 0.31306 0.60643 0.0
C242 C 0.94988 0.743 0.84688 0.0
C243 C 0.92446 0.72737 0.82882 0.0
C244 C 0.00307 0.70869 0.81166 0.0
C245 C 0.02853 0.72823 0.82902 0.0
N246 N 0.02773 0.76896 0.86216 0.0
N247 N 0.92615 0.70441 0.79267 0.0
C248 C 0.00239 0.74688 0.84638 0.0
C249 C 0.95082 0.71237 0.81087 0.0
N250 N 0.92392 0.75243 0.86466 0.0
N251 N 0.02884 0.68631 0.79594 0.0
H252 H 0.88785 0.70761 0.79122 0.0
H253 H 0.94385 0.6992 0.77848 0.0
H254 H 0.06736 0.68463 0.79538 0.0
H255 H 0.01205 0.66598 0.7842 0.0
H256 H 0.94048 0.75912 0.87893 0.0
H257 H 0.88547 0.7497 0.86556 0.0
H258 H 0.01071 0.78817 0.87423 0.0
H259 H 0.06628 0.77082 0.86248 0.0
C260 C 0.46909 0.70167 0.09578 0.0
C261 C 0.47475 0.67798 0.07626 0.0
C262 C 0.48725 0.75939 0.05938 0.0
C263 C 0.47655 0.78338 0.0784 0.0
N264 N 0.45251 0.77891 0.11433 0.0
N265 N 0.47857 0.68472 0.03886 0.0
C266 C 0.46614 0.75498 0.09656 0.0
C267 C 0.48105 0.70693 0.05788 0.0
N268 N 0.46838 0.67338 0.11357 0.0
N269 N 0.50456 0.78664 0.04282 0.0
H270 H 0.47243 0.64648 0.03694 0.0
H271 H 0.47745 0.70487 0.02495 0.0
H272 H 0.50989 0.82531 0.04326 0.0
H273 H 0.51815 0.77032 0.02932 0.0
H274 H 0.46931 0.68856 0.12838 0.0
H275 H 0.47083 0.63435 0.11356 0.0
H276 H 0.43928 0.76037 0.12749 0.0
H277 H 0.45137 0.81789 0.11542 0.0
C278 C 0.49618 0.24041 0.30776 0.0
C279 C 0.52282 0.22545 0.32576 0.0
C280 C 0.44511 0.20482 0.34357 0.0
C281 C 0.41861 0.22259 0.32602 0.0
N282 N 0.41759 0.26549 0.29288 0.0
N283 N 0.52329 0.20217 0.362 0.0
C284 C 0.44378 0.24327 0.30863 0.0
C285 C 0.49746 0.21005 0.34404 0.0
N286 N 0.52063 0.24871 0.28943 0.0
N287 N 0.42027 0.18228 0.35961 0.0
H288 H 0.56157 0.20642 0.36294 0.0
H289 H 0.50657 0.19573 0.37634 0.0
H290 H 0.38177 0.17982 0.36015 0.0
H291 H 0.43778 0.16335 0.37175 0.0
H292 H 0.50274 0.254 0.27528 0.0
H293 H 0.55891 0.24571 0.28784 0.0
H294 H 0.43403 0.28631 0.28099 0.0
H295 H 0.37903 0.26661 0.2925 0.0
C296 C 0.95848 0.74924 0.36307 0.0
C297 C -0.02983 0.77386 0.38186 0.0
C298 C -0.0119 0.6932 0.39859 0.0
C299 C -0.02914 0.66845 0.38067 0.0
N300 N 0.93583 0.67135 0.34638 0.0
N301 N -0.01278 0.76918 0.41865 0.0
C302 C 0.95511 0.69601 0.36298 0.0
C303 C -0.01708 0.74588 0.39992 0.0
N304 N 0.9522 0.77665 0.34524 0.0
N305 N 0.01019 0.66635 0.41422 0.0
H306 H -0.01777 0.80761 0.42059 0.0
H307 H -0.00908 0.74982 0.43268 0.0
H308 H 0.01471 0.62753 0.4138 0.0
H309 H 0.0282 0.68293 0.42666 0.0
H310 H 0.9484 0.76072 0.33065 0.0
H311 H 0.95492 0.81563 0.34475 0.0
H312 H 0.9186 0.6894 0.33395 0.0
H313 H 0.93431 0.63233 0.34567 0.0
C314 C 0.44422 0.70788 0.61845 0.0
C315 C 0.41658 0.72616 0.63555 0.0
C316 C 0.49318 0.74552 0.654 0.0
C317 C 0.52062 0.72315 0.63777 0.0
N318 N 0.52364 0.6784 0.60554 0.0
N319 N 0.41416 0.75301 0.67129 0.0
C320 C 0.49655 0.70297 0.62023 0.0
C321 C 0.44086 0.74275 0.65376 0.0
N322 N 0.4206 0.69684 0.60034 0.0
N323 N 0.51713 0.76995 0.6696 0.0
H324 H 0.37576 0.75037 0.67211 0.0
H325 H 0.43026 0.75948 0.68567 0.0
H326 H 0.55558 0.77153 0.67079 0.0
H327 H 0.49899 0.79215 0.68045 0.0
H328 H 0.43897 0.68805 0.58664 0.0
H329 H 0.38239 0.70035 0.59854 0.0
H330 H 0.50798 0.65816 0.59351 0.0
H331 H 0.56212 0.67551 0.60617 0.0
C332 C 0.48115 0.25487 0.86797 0.0
C333 C 0.48591 0.27963 0.88727 0.0
C334 C 0.4952 0.19875 0.90517 0.0
C335 C 0.48533 0.17401 0.88628 0.0
N336 N 0.46423 0.17707 0.85004 0.0
N337 N 0.48798 0.27521 0.92475 0.0
C338 C 0.47707 0.20165 0.86772 0.0
C339 C 0.49069 0.25163 0.90602 0.0
N340 N 0.48226 0.28208 0.84989 0.0
N341 N 0.5095 0.17169 0.92228 0.0
H342 H 0.48321 0.31378 0.92621 0.0
H343 H 0.48556 0.25614 0.93889 0.0
H344 H 0.51249 0.13269 0.92241 0.0
H345 H 0.52263 0.18806 0.93579 0.0
H346 H 0.48391 0.266 0.83526 0.0
H347 H 0.48563 0.32101 0.84953 0.0
H348 H 0.45231 0.19521 0.83656 0.0
H349 H 0.46247 0.13807 0.84926 0.0
C350 C -0.00841 0.23271 0.11685 0.0
C351 C 0.01724 0.22079 0.13546 0.0
C352 C 0.93869 0.20656 0.15345 0.0
C353 C 0.91312 0.2241 0.13565 0.0
N354 N 0.91381 0.25754 0.10083 0.0
N355 N 0.01542 0.20573 0.17253 0.0
C356 C 0.93913 0.23801 0.11738 0.0
C357 C -0.00911 0.20992 0.15404 0.0
N358 N 0.01727 0.23757 0.09865 0.0
N359 N 0.91307 0.18576 0.1697 0.0
H360 H 0.05362 0.20942 0.1739 0.0
H361 H -0.00251 0.20354 0.18683 0.0
H362 H 0.87461 0.18235 0.16983 0.0
H363 H 0.9301 0.1675 0.18214 0.0
H364 H 0.00044 0.24144 0.08421 0.0
H365 H 0.05564 0.23372 0.09779 0.0
H366 H 0.93091 0.2735 0.08789 0.0
H367 H 0.87531 0.2606 0.10063 0.0
C368 C 0.9294 0.01814 0.4615 0.0
C369 C 0.91336 0.9707 0.45463 0.0
C370 C 0.89016 0.94703 0.49008 0.0
C371 C 0.91452 -0.00945 0.4972 0.0
N372 N 0.95726 0.06814 0.49036 0.0
N373 N 0.87678 0.8901 0.46143 0.0
C374 C 0.93344 0.02676 0.48308 0.0
C375 C 0.89223 0.93547 0.4686 0.0
N376 N 0.94066 0.05473 0.44726 0.0
N377 N 0.86587 0.91669 0.50392 0.0
H378 H 0.87645 0.88143 0.44568 0.0
H379 H 0.86626 0.86035 0.471 0.0
H380 H 0.8646 0.92401 0.51978 0.0
H381 H 0.84391 0.88659 0.49962 0.0
H382 H 0.94854 0.09161 0.45117 0.0
H383 H 0.93761 0.04924 0.4313 0.0
H384 H -0.02296 0.09295 0.48097 0.0
H385 H 0.95952 0.07632 0.50612 0.0
C386 C 0.16126 0.73097 0.73523 0.0
C387 C 0.18636 0.69779 0.74882 0.0
C388 C 0.23752 0.66863 0.72005 0.0
C389 C 0.21885 0.70849 0.70757 0.0
N390 N 0.16789 0.7831 0.70458 0.0
N391 N 0.25338 0.63906 0.75494 0.0
C392 C 0.18158 0.74092 0.71538 0.0
C393 C 0.22558 0.6672 0.74147 0.0
N394 N 0.11823 0.75336 0.74145 0.0
N395 N 0.26525 0.63129 0.71142 0.0
H396 H 0.24624 0.63662 0.7708 0.0
H397 H 0.28601 0.62109 0.75055 0.0
H398 H 0.27321 0.62977 0.6956 0.0
H399 H 0.27569 0.59904 0.71956 0.0
H400 H 0.09592 0.77451 0.73151 0.0
H401 H 0.10237 0.74627 0.75598 0.0
H402 H 0.14434 0.81029 0.71064 0.0
H403 H 0.18405 0.79399 0.69056 0.0
C404 C 0.54022 -0.00221 -0.00505 0.0
C405 C 0.52134 0.95099 0.00182 0.0
C406 C 0.47579 0.94165 0.96978 0.0
C407 C 0.49778 -0.01373 0.96164 0.0
N408 N 0.55492 0.05501 0.9662 0.0
N409 N 0.48632 0.87149 -0.00664 0.0
C410 C 0.53195 0.01337 0.97404 0.0
C411 C 0.49507 0.92037 -0.01185 0.0
N412 N 0.56315 0.02867 0.00869 0.0
N413 N 0.43411 0.92142 0.96139 0.0
H414 H 0.50021 0.85552 0.00701 0.0
H415 H 0.47046 0.84611 -0.01685 0.0
H416 H 0.4121 0.9396 0.95051 0.0
H417 H 0.41625 0.89042 0.96786 0.0
H418 H 0.57181 0.06591 0.00539 0.0
H419 H 0.5715 0.01767 0.02384 0.0
H420 H 0.58454 0.0723 0.97352 0.0
H421 H 0.54551 0.07148 0.95201 0.0
C422 C 0.24259 0.25959 0.21748 0.0
C423 C 0.19647 0.24015 0.21105 0.0
C424 C 0.18614 0.19673 0.24413 0.0
C425 C 0.22982 0.22026 0.25176 0.0
N426 N 0.29963 0.27507 0.24561 0.0
N427 N 0.11868 0.2021 0.2196 0.0
C428 C 0.25777 0.25247 0.23844 0.0
C429 C 0.16639 0.21284 0.22491 0.0
N430 N 0.27286 0.28266 0.20332 0.0
N431 N 0.16463 0.1571 0.25424 0.0
H432 H 0.10325 0.21383 0.20554 0.0
H433 H 0.09313 0.18682 0.22999 0.0
H434 H 0.17964 0.13867 0.26697 0.0
H435 H 0.13522 0.13702 0.24808 0.0
H436 H 0.30952 0.29202 0.20625 0.0
H437 H 0.26206 0.29025 0.18808 0.0
H438 H 0.31753 0.30412 0.23777 0.0
H439 H 0.31611 0.26563 0.25973 0.0
C440 C 0.78132 0.19296 0.22634 0.0
C441 C 0.74358 0.18247 0.21182 0.0
C442 C 0.68471 0.16504 0.23985 0.0
C443 C 0.72167 0.17844 0.25429 0.0
N444 N 0.80734 0.1923 0.2624 0.0
N445 N 0.66377 0.14759 0.204 0.0
C446 C 0.77089 0.18798 0.24785 0.0
C447 C 0.69674 0.16445 0.21837 0.0
N448 N 0.82631 0.20969 0.21949 0.0
N449 N 0.63767 0.15557 0.24665 0.0
H450 H 0.6714 0.14768 0.18811 0.0
H451 H 0.63057 0.13011 0.20773 0.0
H452 H 0.62835 0.15397 0.26236 0.0
H453 H 0.60743 0.15127 0.23688 0.0
H454 H 0.85365 0.22366 0.22916 0.0
H455 H 0.83568 0.21148 0.20378 0.0
H456 H 0.84478 0.19515 0.25883 0.0
H457 H 0.8004 0.18884 0.27829 0.0
C458 C 0.73264 0.78665 0.72203 0.0
C459 C 0.69029 0.75919 0.7159 0.0
C460 C 0.67177 0.73761 0.75202 0.0
C461 C 0.71555 0.76278 0.75807 0.0
N462 N 0.78142 0.8205 0.75023 0.0
N463 N 0.61323 0.71933 0.72455 0.0
C464 C 0.74377 0.79071 0.7435 0.0
C465 C 0.65774 0.73814 0.7308 0.0
N466 N 0.76341 0.80655 0.70725 0.0
N467 N 0.64443 0.7122 0.76657 0.0
H468 H 0.60211 0.7196 0.70905 0.0
H469 H 0.58565 0.70719 0.73468 0.0
H470 H 0.65162 0.71409 0.78244 0.0
H471 H 0.6157 0.68794 0.76301 0.0
H472 H 0.79796 0.82172 0.71041 0.0
H473 H 0.75529 0.80599 0.69146 0.0
H474 H 0.80065 0.84544 0.74071 0.0
H475 H 0.79117 0.82313 0.76582 0.0
C476 C 0.43344 0.5156 0.96599 0.0
C477 C 0.43924 0.46492 0.96011 0.0
C478 C 0.43478 0.43862 -0.00353 0.0
C479 C 0.4394 0.48943 0.00233 0.0
N480 N 0.44272 0.57715 -0.00689 0.0
N481 N 0.44457 0.37729 0.96923 0.0
C482 C 0.43786 0.52833 -0.01277 0.0
C483 C 0.43895 0.426 0.97519 0.0
N484 N 0.42267 0.55114 0.95127 0.0
N485 N 0.4251 0.40285 0.01122 0.0
H486 H 0.44565 0.36671 0.9537 0.0
H487 H 0.45067 0.34778 0.97962 0.0
H488 H 0.41953 0.41173 0.02679 0.0
H489 H 0.41738 0.36565 0.00781 0.0
H490 H 0.41407 0.5882 0.95471 0.0
H491 H 0.41716 0.54209 0.93573 0.0
H492 H 0.44772 0.60669 -0.01736 0.0
H493 H 0.44459 0.58787 0.00861 0.0
C494 C 0.01237 0.51415 0.49138 0.0
C495 C 0.00663 0.46343 0.49754 0.0
C496 C 0.01399 0.43766 0.46146 0.0
C497 C 0.00779 0.48835 0.45529 0.0
N498 N 0.00242 0.57589 0.4639 0.0
N499 N 0.00407 0.37575 0.48885 0.0
C500 C 0.00808 0.5271 0.4701 0.0
C501 C 0.00895 0.42464 0.48273 0.0
N502 N 0.02351 0.54935 0.50585 0.0
N503 N 0.0254 0.40243 0.44697 0.0
H504 H 0.00211 0.36484 0.5044 0.0
H505 H -0.00056 0.34635 0.47854 0.0
H506 H 0.03114 0.41181 0.43141 0.0
H507 H 0.03426 0.36539 0.45064 0.0
H508 H 0.03166 0.58651 0.50216 0.0
H509 H 0.03045 0.53966 0.52129 0.0
H510 H -0.00335 0.6052 0.47419 0.0
H511 H 0.00086 0.58662 0.44831 0.0
C512 C 0.1338 0.89946 0.62214 0.0
C513 C 0.16286 0.86169 0.61278 0.0
C514 C 0.1386 0.89394 0.57868 0.0
C515 C 0.0991 0.92035 0.58815 0.0
N516 N 0.05985 0.95005 0.61965 0.0
N517 N 0.19631 0.82479 0.58159 0.0
C518 C 0.09769 0.92513 0.6101 0.0
C519 C 0.16757 0.86035 0.59086 0.0
N520 N 0.1399 0.90924 0.64272 0.0
N521 N 0.14748 0.90049 0.55797 0.0
H522 H 0.21933 0.80041 0.5898 0.0
H523 H 0.19566 0.81801 0.56571 0.0
H524 H 0.12677 0.92553 0.54892 0.0
H525 H 0.17811 0.88539 0.5504 0.0
H526 H 0.12266 0.93905 0.6502 0.0
H527 H 0.16642 0.89044 0.65167 0.0
H528 H 0.05391 0.94861 0.63562 0.0
H529 H 0.03251 0.96992 0.61176 0.0
C530 C 0.34703 0.84976 0.83771 0.0
C531 C 0.29517 0.85644 0.83554 0.0
C532 C 0.29729 0.92413 0.86093 0.0
C533 C 0.34953 0.91975 0.86149 0.0
N534 N 0.4249 0.88795 0.84626 0.0
N535 N 0.22149 0.90475 0.8425 0.0
C536 C 0.37458 0.88611 0.8483 0.0
C537 C 0.27027 0.89513 0.84639 0.0
N538 N 0.36961 0.80674 0.83112 0.0
N539 N 0.27375 0.95504 0.87455 0.0
H540 H 0.20093 0.88417 0.8319 0.0
H541 H 0.20253 0.93536 0.84855 0.0
H542 H 0.29307 -0.02171 0.88462 0.0
H543 H 0.2355 0.95586 0.87651 0.0
H544 H 0.4065 0.7982 0.83429 0.0
H545 H 0.35039 0.77671 0.82481 0.0
H546 H 0.44427 0.86707 0.8353 0.0
H547 H 0.44678 0.91385 0.85398 0.0
C548 C 0.34463 0.10148 0.08593 0.0
C549 C 0.34221 0.04835 0.08516 0.0
C550 C 0.27714 0.04877 0.1117 0.0
C551 C 0.27741 0.1019 0.1111 0.0
N552 N 0.30251 0.17864 0.09398 0.0
N553 N 0.30125 0.9714 0.09476 0.0
C554 C 0.3077 0.12804 0.09676 0.0
C555 C 0.3069 0.02182 0.09729 0.0
N556 N 0.38456 0.12655 0.0779 0.0
N557 N 0.24943 0.02435 0.12635 0.0
H558 H 0.32249 0.95085 0.08429 0.0
H559 H 0.27314 0.95072 0.1018 0.0
H560 H 0.22551 0.0433 0.13634 0.0
H561 H 0.25183 -0.01406 0.1292 0.0
H562 H 0.39031 0.16475 0.07998 0.0
H563 H 0.41516 0.10866 0.07142 0.0
H564 H 0.32025 0.19848 0.08212 0.0
H565 H 0.27701 0.20003 0.10221 0.0
C566 C 0.11937 0.05275 0.3812 0.0
C567 C 0.11084 0.00486 0.37254 0.0
C568 C 0.17493 0.01932 0.34643 0.0
C569 C 0.17823 0.06949 0.35324 0.0
N570 N 0.16734 0.12979 0.38029 0.0
N571 N 0.13834 0.93674 0.35116 0.0
C572 C 0.15541 0.08455 0.37193 0.0
C573 C 0.14182 -0.01407 0.35668 0.0
N574 N 0.09141 0.06826 0.39766 0.0
N575 N 0.20156 0.00512 0.32941 0.0
H576 H 0.11374 0.91197 0.35832 0.0
H577 H 0.16157 0.91948 0.34049 0.0
H578 H 0.22758 0.02884 0.32247 0.0
H579 H 0.1979 0.97083 0.32206 0.0
H580 H 0.09167 0.10448 0.40347 0.0
H581 H 0.0666 0.04466 0.40539 0.0
H582 H 0.1542 0.14254 0.39447 0.0
H583 H 0.19403 0.15316 0.37368 0.0
C584 C 0.86651 0.06154 0.34111 0.0
C585 C 0.86863 0.0539 0.36289 0.0
C586 C 0.80611 0.11954 0.36785 0.0
C587 C 0.79949 0.12244 0.34607 0.0
N588 N 0.81895 0.09221 0.3118 0.0
N589 N 0.83635 0.07095 0.39712 0.0
C590 C 0.82872 0.09262 0.3326 0.0
C591 C 0.83759 0.08189 0.37635 0.0
N592 N 0.90154 0.04025 0.32861 0.0
N593 N 0.7834 0.15373 0.38039 0.0
H594 H 0.85863 0.04363 0.40404 0.0
H595 H 0.81035 0.08603 0.40726 0.0
H596 H 0.76036 0.18211 0.37469 0.0
H597 H 0.79097 0.15696 0.39616 0.0
H598 H 0.9051 0.04863 0.31287 0.0
H599 H 0.93014 0.01775 0.33436 0.0
H600 H 0.83522 0.06704 0.30157 0.0
H601 H 0.79149 0.11423 0.30493 0.0
C602 C 0.60549 0.10937 0.08379 0.0
C603 C 0.56978 0.07684 0.0928 0.0
C604 C 0.59657 0.102 0.12737 0.0
C605 C 0.62678 0.1398 0.11834 0.0
N606 N 0.65088 0.18655 0.08758 0.0
N607 N 0.52305 0.05212 0.12331 0.0
C608 C 0.62885 0.14551 0.09642 0.0
C609 C 0.56295 0.07581 0.11465 0.0
N610 N 0.6185 0.10477 0.06339 0.0
N611 N 0.6011 0.08965 0.1479 0.0
H612 H 0.49556 0.03502 0.11457 0.0
H613 H 0.51431 0.05456 0.13903 0.0
H614 H 0.62718 0.106 0.15759 0.0
H615 H 0.58292 0.05917 0.15466 0.0
H616 H 0.64769 0.12461 0.05669 0.0
H617 H 0.60395 0.07729 0.05379 0.0
H618 H 0.64898 0.19455 0.07174 0.0
H619 H 0.66624 0.21542 0.0962 0.0
C620 C 0.65849 0.87553 0.85398 0.0
C621 C 0.65123 0.82302 0.85222 0.0
C622 C 0.56869 0.83237 0.8673 0.0
C623 C 0.57938 0.88294 0.87226 0.0
N624 N 0.63968 0.9496 0.87382 0.0
N625 N 0.6031 0.75005 0.86204 0.0
C626 C 0.62573 0.90385 0.86655 0.0
C627 C 0.60731 0.80093 0.86018 0.0
N628 N 0.69527 0.89891 0.84304 0.0
N629 N 0.52142 0.81456 0.86865 0.0
H630 H 0.6316 0.72527 0.85839 0.0
H631 H 0.57339 0.73282 0.86955 0.0
H632 H 0.49131 0.83682 0.87284 0.0
H633 H 0.51137 0.7793 0.86328 0.0
H634 H 0.69899 0.93777 0.84242 0.0
H635 H 0.71835 0.88019 0.83268 0.0
H636 H 0.67515 0.96399 0.87165 0.0
H637 H 0.61791 0.97078 0.88384 0.0
C638 C 0.8267 0.87833 0.63331 0.0
C639 C 0.78379 0.85398 0.626 0.0
C640 C 0.79943 0.8872 0.59107 0.0
C641 C 0.84743 0.90168 0.5976 0.0
N642 N 0.90803 0.90982 0.62495 0.0
N643 N 0.71699 0.86121 0.60144 0.0
C644 C 0.86111 0.89803 0.61882 0.0
C645 C 0.76616 0.86591 0.60583 0.0
N646 N 0.83293 0.88496 0.65413 0.0
N647 N 0.78605 0.89307 0.57074 0.0
H648 H 0.69073 0.85379 0.61291 0.0
H649 H 0.70111 0.87194 0.58739 0.0
H650 H 0.8079 0.91201 0.55987 0.0
H651 H 0.75438 0.87733 0.5644 0.0
H652 H 0.86149 0.90608 0.66039 0.0
H653 H 0.80558 0.87508 0.66486 0.0
H654 H 0.92142 0.90213 0.63979 0.0
H655 H 0.93515 0.92333 0.61484 0.0
C656 C 0.69135 0.39395 0.10667 0.0
C657 C 0.67722 0.39026 0.12784 0.0
C658 C 0.60357 0.44075 0.12145 0.0
C659 C 0.61237 0.43663 0.09976 0.0
N660 N 0.67156 0.42637 0.07216 0.0
N661 N 0.63964 0.43531 0.15579 0.0
C662 C 0.65887 0.41884 0.09249 0.0
C663 C 0.64011 0.42276 0.13533 0.0
N664 N 0.73532 0.37399 0.10031 0.0
N665 N 0.55911 0.45719 0.12895 0.0
H666 H 0.66753 0.42321 0.16588 0.0
H667 H 0.61548 0.46186 0.16195 0.0
H668 H 0.53006 0.46949 0.11965 0.0
H669 H 0.54963 0.45495 0.14462 0.0
H670 H 0.74542 0.36941 0.08487 0.0
H671 H 0.76303 0.36407 0.11082 0.0
H672 H 0.70545 0.41634 0.06574 0.0
H673 H 0.6489 0.44634 0.06189 0.0
C674 C 0.74343 0.3798 0.36442 0.0
C675 C 0.75432 0.36267 0.34421 0.0
C676 C 0.83428 0.40519 0.34455 0.0
C677 C 0.8247 0.41989 0.36531 0.0
N678 N 0.76606 0.43479 0.39267 0.0
N679 N 0.80183 0.37062 0.3127 0.0
C680 C 0.77759 0.41183 0.37442 0.0
C681 C 0.79684 0.37977 0.33343 0.0
N682 N 0.70144 0.36379 0.37427 0.0
N683 N 0.88027 0.41164 0.33607 0.0
H684 H 0.77545 0.35107 0.30424 0.0
H685 H 0.82963 0.38623 0.30351 0.0
H686 H 0.90869 0.43067 0.34346 0.0
H687 H 0.8914 0.39561 0.32215 0.0
H688 H 0.69397 0.37007 0.38988 0.0
H689 H 0.6747 0.34226 0.36687 0.0
H690 H 0.73112 0.43368 0.39948 0.0
H691 H 0.79062 0.45894 0.40001 0.0
C692 C 0.84238 0.52904 0.61609 0.0
C693 C 0.83707 0.53461 0.59426 0.0
C694 C 0.77232 0.5977 0.59923 0.0
C695 C 0.77849 0.59318 0.62109 0.0
N696 N 0.80414 0.54071 0.64975 0.0
N697 N 0.78377 0.55797 0.56591 0.0
C698 C 0.80827 0.55388 0.62929 0.0
C699 C 0.79716 0.56322 0.58619 0.0
N700 N 0.8817 0.50366 0.62441 0.0
N701 N 0.74664 0.63689 0.59063 0.0
H702 H 0.80109 0.53219 0.55618 0.0
H703 H 0.75233 0.57486 0.55959 0.0
H704 H 0.72887 0.66449 0.59916 0.0
H705 H 0.74649 0.64441 0.57473 0.0
H706 H 0.89001 0.50416 0.64019 0.0
H707 H 0.90821 0.48508 0.61563 0.0
H708 H 0.82204 0.50963 0.6562 0.0
H709 H 0.77841 0.55758 0.6596 0.0
C710 C 0.70508 0.56605 0.8682 0.0
C711 C 0.69514 0.58412 0.84793 0.0
C712 C 0.61461 0.54274 0.84795 0.0
C713 C 0.62293 0.52786 0.86886 0.0
N714 N 0.67988 0.5114 0.89668 0.0
N715 N 0.6489 0.57807 0.81619 0.0
C716 C 0.66979 0.5347 0.87819 0.0
C717 C 0.65284 0.56803 0.83696 0.0
N718 N 0.74715 0.5808 0.87811 0.0
N719 N 0.56907 0.53643 0.83917 0.0
H720 H 0.67614 0.59733 0.80787 0.0
H721 H 0.62113 0.56356 0.80686 0.0
H722 H 0.54039 0.51712 0.84649 0.0
H723 H 0.55868 0.55246 0.82505 0.0
H724 H 0.75417 0.57377 0.89374 0.0
H725 H 0.77455 0.6019 0.87069 0.0
H726 H 0.71445 0.5117 0.90375 0.0
H727 H 0.65436 0.48783 0.90402 0.0
C728 C 0.37796 0.55911 0.84162 0.0
C729 C 0.3746 0.56188 0.86359 0.0
C730 C 0.31213 0.62789 0.86036 0.0
C731 C 0.3119 0.62183 0.83849 0.0
N732 N 0.33558 0.57207 0.80895 0.0
N733 N 0.32741 0.58791 0.8935 0.0
C734 C 0.34201 0.5844 0.82929 0.0
C735 C 0.33805 0.59272 0.87284 0.0
N736 N 0.41679 0.53504 0.83239 0.0
N737 N 0.29058 0.66885 0.86927 0.0
H738 H 0.34417 0.56098 0.90303 0.0
H739 H 0.298 0.60665 0.90053 0.0
H740 H 0.27425 0.69788 0.86077 0.0
H741 H 0.29415 0.67687 0.88499 0.0
H742 H 0.4234 0.53672 0.81646 0.0
H743 H 0.44515 0.51759 0.84068 0.0
H744 H 0.35354 0.54184 0.80206 0.0
H745 H 0.30841 0.58849 0.79961 0.0
C746 C 0.13231 0.56105 0.5793 0.0
C747 C 0.0944 0.53434 0.58988 0.0
C748 C 0.13252 0.5559 0.62284 0.0
C749 C 0.16009 0.59351 0.61249 0.0
N750 N 0.18887 0.63104 0.58044 0.0
N751 N 0.05767 0.50715 0.62252 0.0
C752 C 0.16195 0.59507 0.59054 0.0
C753 C 0.09498 0.53056 0.61189 0.0
N754 N 0.13949 0.55402 0.55854 0.0
N755 N 0.14119 0.54618 0.64335 0.0
H756 H 0.02803 0.48942 0.61546 0.0
H757 H 0.05395 0.50884 0.63859 0.0
H758 H 0.16877 0.56485 0.65153 0.0
H759 H 0.12496 0.51644 0.65142 0.0
H760 H 0.16903 0.56953 0.55032 0.0
H761 H 0.11885 0.52827 0.55011 0.0
H762 H 0.18627 0.63778 0.56453 0.0
H763 H 0.21208 0.65584 0.58807 0.0
C764 C 0.1111 0.3558 0.37579 0.0
C765 C 0.07434 0.38343 0.36492 0.0
C766 C 0.10823 0.35333 0.33211 0.0
C767 C 0.13777 0.31819 0.3432 0.0
N768 N 0.16124 0.2809 0.3762 0.0
N769 N 0.03353 0.40315 0.33242 0.0
C770 C 0.13815 0.31829 0.36523 0.0
C771 C 0.07195 0.38136 0.34294 0.0
N772 N 0.12061 0.36581 0.39615 0.0
N773 N 0.11529 0.3604 0.31129 0.0
H774 H 0.00493 0.42259 0.33965 0.0
H775 H 0.02755 0.39782 0.31663 0.0
H776 H 0.14269 0.34155 0.30298 0.0
H777 H 0.09774 0.38878 0.30283 0.0
H778 H 0.15006 0.34969 0.40425 0.0
H779 H 0.10262 0.39436 0.40419 0.0
H780 H 0.15777 0.27678 0.39223 0.0
H781 H 0.17967 0.25104 0.36929 0.0
C782 C 0.32231 0.37532 0.08654 0.0
C783 C 0.36141 0.39965 0.09695 0.0
C784 C 0.32721 0.37171 0.13023 0.0
C785 C 0.29501 0.33881 0.11963 0.0
N786 N 0.26506 0.3063 0.08691 0.0
N787 N 0.40424 0.41738 0.12894 0.0
C788 C 0.29268 0.34025 0.09756 0.0
C789 C 0.36445 0.39756 0.11891 0.0
N790 N 0.31317 0.3862 0.06613 0.0
N791 N 0.32168 0.37879 0.15108 0.0
H792 H 0.43302 0.43582 0.12131 0.0
H793 H 0.41079 0.41172 0.14472 0.0
H794 H 0.2935 0.36178 0.15969 0.0
H795 H 0.34133 0.40564 0.15927 0.0
H796 H 0.28214 0.37326 0.05828 0.0
H797 H 0.33369 0.41253 0.0577 0.0
H798 H 0.26754 0.30202 0.07089 0.0
H799 H 0.24262 0.27949 0.09393 0.0
loop_
_geom_bond_atom_site_label_1
_geom_bond_atom_site_label_2
_geom_bond_distance
_geom_bond_site_symmetry_2
_ccdc_geom_bond_type
C0 O1 1.306 . S
C0 O3 1.160 1_565 S
O1 C0 1.306 . S
O1 Cd2 2.228 . S
Cd2 O1 2.228 . S
Cd2 O6 2.283 . S
Cd2 O10 2.277 1_455 S
O3 C0 1.160 1_545 S
O3 Cd4 2.203 1_455 S
Cd4 O3 2.203 1_655 S
Cd4 O6 2.406 1_645 S
Cd4 O7 2.333 . S
Cd4 O8 2.352 1_655 S
Cd4 O12 2.277 . S
Cd4 O13 2.356 . S
C5 O10 1.209 . S
C5 O12 1.226 1_565 S
O6 Cd2 2.283 . S
O6 Cd4 2.406 1_465 S
O6 C9 1.315 1_465 S
O7 Cd4 2.333 . S
O7 C9 1.214 . S
O8 Cd4 2.352 1_455 S
O8 C11 1.258 . S
C9 O6 1.315 1_645 S
C9 O7 1.214 . S
O10 Cd2 2.277 1_655 S
O10 C5 1.209 . S
C11 O8 1.258 . S
C11 O13 1.282 1_455 S
O12 Cd4 2.277 . S
O12 C5 1.226 1_545 S
O13 Cd4 2.356 . S
O13 C11 1.282 1_655 S
C14 O15 1.306 . S
C14 O17 1.160 . S
O15 C14 1.306 . S
O15 Cd16 2.228 . S
Cd16 O15 2.228 . S
Cd16 O20 2.273 . S
Cd16 O24 2.277 . S
O17 C14 1.160 . S
O17 Cd18 2.203 . S
Cd18 O17 2.203 . S
Cd18 O20 2.411 . S
Cd18 O21 2.333 . S
Cd18 O22 2.352 . S
Cd18 O26 2.277 . S
Cd18 O27 2.356 . S
C19 O24 1.209 . S
C19 O26 1.226 . S
O20 Cd16 2.273 . S
O20 Cd18 2.411 . S
O20 C23 1.320 . S
O21 Cd18 2.333 . S
O21 C23 1.214 . S
O22 Cd18 2.352 . S
O22 C25 1.258 . S
C23 O20 1.320 . S
C23 O21 1.214 . S
O24 Cd16 2.277 . S
O24 C19 1.209 . S
C25 O22 1.258 . S
C25 O27 1.282 . S
O26 Cd18 2.277 . S
O26 C19 1.226 . S
O27 Cd18 2.356 . S
O27 C25 1.282 . S
C28 O29 1.306 . S
C28 O31 1.160 1_545 S
O29 C28 1.306 . S
O29 Cd30 2.228 . S
Cd30 O29 2.228 . S
Cd30 O34 2.283 . S
Cd30 O38 2.277 . S
O31 C28 1.160 1_565 S
O31 Cd32 2.203 . S
Cd32 O31 2.203 . S
Cd32 O34 2.406 1_565 S
Cd32 O35 2.333 . S
Cd32 O36 2.352 . S
Cd32 O40 2.277 . S
Cd32 O41 2.356 . S
C33 O38 1.209 . S
C33 O40 1.226 1_545 S
O34 Cd30 2.283 . S
O34 Cd32 2.406 1_545 S
O34 C37 1.315 1_545 S
O35 Cd32 2.333 . S
O35 C37 1.214 . S
O36 Cd32 2.352 . S
O36 C39 1.258 . S
C37 O34 1.315 1_565 S
C37 O35 1.214 . S
O38 Cd30 2.277 . S
O38 C33 1.209 . S
C39 O36 1.258 . S
C39 O41 1.282 . S
O40 Cd32 2.277 . S
O40 C33 1.226 1_565 S
O41 Cd32 2.356 . S
O41 C39 1.282 . S
C42 O43 1.306 . S
C42 O45 1.160 . S
O43 C42 1.306 . S
O43 Cd44 2.228 . S
Cd44 O43 2.228 . S
Cd44 O48 2.273 . S
Cd44 O52 2.277 . S
O45 C42 1.160 . S
O45 Cd46 2.203 . S
Cd46 O45 2.203 . S
Cd46 O48 2.411 . S
Cd46 O49 2.333 . S
Cd46 O50 2.352 . S
Cd46 O54 2.277 . S
Cd46 O55 2.356 . S
C47 O52 1.209 . S
C47 O54 1.226 . S
O48 Cd44 2.273 . S
O48 Cd46 2.411 . S
O48 C51 1.320 . S
O49 Cd46 2.333 . S
O49 C51 1.214 . S
O50 Cd46 2.352 . S
O50 C53 1.258 . S
C51 O48 1.320 . S
C51 O49 1.214 . S
O52 Cd44 2.277 . S
O52 C47 1.209 . S
C53 O50 1.258 . S
C53 O55 1.282 . S
O54 Cd46 2.277 . S
O54 C47 1.226 . S
O55 Cd46 2.356 . S
O55 C53 1.282 . S
C56 O57 1.306 . S
C56 O59 1.160 1_545 S
O57 C56 1.306 . S
O57 Cd58 2.228 . S
Cd58 O57 2.228 . S
Cd58 O62 2.283 . S
Cd58 O66 2.277 1_455 S
O59 C56 1.160 1_565 S
O59 Cd60 2.203 1_455 S
Cd60 O59 2.203 1_655 S
Cd60 O62 2.406 1_665 S
Cd60 O63 2.333 . S
Cd60 O64 2.352 1_655 S
Cd60 O68 2.277 . S
Cd60 O69 2.356 . S
C61 O66 1.209 . S
C61 O68 1.226 1_545 S
O62 Cd58 2.283 . S
O62 Cd60 2.406 1_445 S
O62 C65 1.315 1_445 S
O63 Cd60 2.333 . S
O63 C65 1.214 . S
O64 Cd60 2.352 1_455 S
O64 C67 1.258 . S
C65 O62 1.315 1_665 S
C65 O63 1.214 . S
O66 Cd58 2.277 1_655 S
O66 C61 1.209 . S
C67 O64 1.258 . S
C67 O69 1.282 1_455 S
O68 Cd60 2.277 . S
O68 C61 1.226 1_565 S
O69 Cd60 2.356 . S
O69 C67 1.282 1_655 S
C70 O71 1.306 . S
C70 O73 1.160 . S
O71 C70 1.306 . S
O71 Cd72 2.228 . S
Cd72 O71 2.228 . S
Cd72 O76 2.273 . S
Cd72 O80 2.277 . S
O73 C70 1.160 . S
O73 Cd74 2.203 . S
Cd74 O73 2.203 . S
Cd74 O76 2.411 . S
Cd74 O77 2.333 . S
Cd74 O78 2.352 . S
Cd74 O82 2.277 . S
Cd74 O83 2.356 . S
C75 O80 1.209 . S
C75 O82 1.226 . S
O76 Cd72 2.273 . S
O76 Cd74 2.411 . S
O76 C79 1.320 . S
O77 Cd74 2.333 . S
O77 C79 1.214 . S
O78 Cd74 2.352 . S
O78 C81 1.258 . S
C79 O76 1.320 . S
C79 O77 1.214 . S
O80 Cd72 2.277 . S
O80 C75 1.209 . S
C81 O78 1.258 . S
C81 O83 1.282 . S
O82 Cd74 2.277 . S
O82 C75 1.226 . S
O83 Cd74 2.356 . S
O83 C81 1.282 . S
C84 O85 1.306 . S
C84 O87 1.160 1_565 S
O85 C84 1.306 . S
O85 Cd86 2.228 . S
Cd86 O85 2.228 . S
Cd86 O90 2.283 . S
Cd86 O94 2.277 . S
O87 C84 1.160 1_545 S
O87 Cd88 2.203 . S
Cd88 O87 2.203 . S
Cd88 O90 2.406 1_545 S
Cd88 O91 2.333 . S
Cd88 O92 2.352 . S
Cd88 O96 2.277 . S
Cd88 O97 2.356 . S
C89 O94 1.209 . S
C89 O96 1.226 1_565 S
O90 Cd86 2.283 . S
O90 Cd88 2.406 1_565 S
O90 C93 1.315 1_565 S
O91 Cd88 2.333 . S
O91 C93 1.214 . S
O92 Cd88 2.352 . S
O92 C95 1.258 . S
C93 O90 1.315 1_545 S
C93 O91 1.214 . S
O94 Cd86 2.277 . S
O94 C89 1.209 . S
C95 O92 1.258 . S
C95 O97 1.282 . S
O96 Cd88 2.277 . S
O96 C89 1.226 1_545 S
O97 Cd88 2.356 . S
O97 C95 1.282 . S
C98 O99 1.306 . S
C98 O101 1.160 . S
O99 C98 1.306 . S
O99 Cd100 2.228 . S
Cd100 O99 2.228 . S
Cd100 O104 2.273 . S
Cd100 O108 2.277 . S
O101 C98 1.160 . S
O101 Cd102 2.203 . S
Cd102 O101 2.203 . S
Cd102 O104 2.411 . S
Cd102 O105 2.333 . S
Cd102 O106 2.352 . S
Cd102 O110 2.277 . S
Cd102 O111 2.356 . S
C103 O108 1.209 . S
C103 O110 1.226 . S
O104 Cd100 2.273 . S
O104 Cd102 2.411 . S
O104 C107 1.320 . S
O105 Cd102 2.333 . S
O105 C107 1.214 . S
O106 Cd102 2.352 . S
O106 C109 1.258 . S
C107 O104 1.320 . S
C107 O105 1.214 . S
O108 Cd100 2.277 . S
O108 C103 1.209 . S
C109 O106 1.258 . S
C109 O111 1.282 . S
O110 Cd102 2.277 . S
O110 C103 1.226 . S
O111 Cd102 2.356 . S
O111 C109 1.282 . S
C112 O113 1.306 . S
C112 O115 1.160 . S
O113 C112 1.306 . S
O113 Cd114 2.228 . S
Cd114 O113 2.228 . S
Cd114 O118 2.273 . S
Cd114 O122 2.277 . S
O115 C112 1.160 . S
O115 Cd116 2.203 . S
Cd116 O115 2.203 . S
Cd116 O118 2.411 . S
Cd116 O119 2.333 . S
Cd116 O120 2.352 . S
Cd116 O124 2.277 . S
Cd116 O125 2.356 . S
C117 O122 1.209 . S
C117 O124 1.226 . S
O118 Cd114 2.273 . S
O118 Cd116 2.411 . S
O118 C121 1.320 . S
O119 Cd116 2.333 . S
O119 C121 1.214 . S
O120 Cd116 2.352 . S
O120 C123 1.258 . S
C121 O118 1.320 . S
C121 O119 1.214 . S
O122 Cd114 2.277 . S
O122 C117 1.209 . S
C123 O120 1.258 . S
C123 O125 1.282 . S
O124 Cd116 2.277 . S
O124 C117 1.226 . S
O125 Cd116 2.356 . S
O125 C123 1.282 . S
C126 O127 1.306 . S
C126 O129 1.160 . S
O127 C126 1.306 . S
O127 Cd128 2.228 . S
Cd128 O127 2.228 . S
Cd128 O132 2.273 . S
Cd128 O136 2.277 . S
O129 C126 1.160 . S
O129 Cd130 2.203 . S
Cd130 O129 2.203 . S
Cd130 O132 2.411 . S
Cd130 O133 2.333 . S
Cd130 O134 2.352 . S
Cd130 O138 2.277 . S
Cd130 O139 2.356 . S
C131 O136 1.209 . S
C131 O138 1.226 . S
O132 Cd128 2.273 . S
O132 Cd130 2.411 . S
O132 C135 1.320 . S
O133 Cd130 2.333 . S
O133 C135 1.214 . S
O134 Cd130 2.352 . S
O134 C137 1.258 . S
C135 O132 1.320 . S
C135 O133 1.214 . S
O136 Cd128 2.277 . S
O136 C131 1.209 . S
C137 O134 1.258 . S
C137 O139 1.282 . S
O138 Cd130 2.277 . S
O138 C131 1.226 . S
O139 Cd130 2.356 . S
O139 C137 1.282 . S
C140 O141 1.306 . S
C140 O143 1.160 . S
O141 C140 1.306 . S
O141 Cd142 2.228 . S
Cd142 O141 2.228 . S
Cd142 O146 2.273 . S
Cd142 O150 2.277 . S
O143 C140 1.160 . S
O143 Cd144 2.203 . S
Cd144 O143 2.203 . S
Cd144 O146 2.411 . S
Cd144 O147 2.333 . S
Cd144 O148 2.352 . S
Cd144 O152 2.277 . S
Cd144 O153 2.356 . S
C145 O150 1.209 . S
C145 O152 1.226 . S
O146 Cd142 2.273 . S
O146 Cd144 2.411 . S
O146 C149 1.320 . S
O147 Cd144 2.333 . S
O147 C149 1.214 . S
O148 Cd144 2.352 . S
O148 C151 1.258 . S
C149 O146 1.320 . S
C149 O147 1.214 . S
O150 Cd142 2.277 . S
O150 C145 1.209 . S
C151 O148 1.258 . S
C151 O153 1.282 . S
O152 Cd144 2.277 . S
O152 C145 1.226 . S
O153 Cd144 2.356 . S
O153 C151 1.282 . S
C154 O155 1.306 . S
C154 O157 1.160 . S
O155 C154 1.306 . S
O155 Cd156 2.228 . S
Cd156 O155 2.228 . S
Cd156 O160 2.273 . S
Cd156 O164 2.277 . S
O157 C154 1.160 . S
O157 Cd158 2.203 . S
Cd158 O157 2.203 . S
Cd158 O160 2.411 . S
Cd158 O161 2.333 . S
Cd158 O162 2.352 . S
Cd158 O166 2.277 . S
Cd158 O167 2.356 . S
C159 O164 1.209 . S
C159 O166 1.226 . S
O160 Cd156 2.273 . S
O160 Cd158 2.411 . S
O160 C163 1.320 . S
O161 Cd158 2.333 . S
O161 C163 1.214 . S
O162 Cd158 2.352 . S
O162 C165 1.258 . S
C163 O160 1.320 . S
C163 O161 1.214 . S
O164 Cd156 2.277 . S
O164 C159 1.209 . S
C165 O162 1.258 . S
C165 O167 1.282 . S
O166 Cd158 2.277 . S
O166 C159 1.226 . S
O167 Cd158 2.356 . S
O167 C165 1.282 . S
C168 O169 1.306 . S
C168 O171 1.160 . S
O169 C168 1.306 . S
O169 Cd170 2.228 . S
Cd170 O169 2.228 . S
Cd170 O174 2.273 . S
Cd170 O178 2.277 . S
O171 C168 1.160 . S
O171 Cd172 2.203 . S
Cd172 O171 2.203 . S
Cd172 O174 2.411 . S
Cd172 O175 2.333 . S
Cd172 O176 2.352 . S
Cd172 O180 2.277 . S
Cd172 O181 2.356 . S
C173 O178 1.209 . S
C173 O180 1.226 . S
O174 Cd170 2.273 . S
O174 Cd172 2.411 . S
O174 C177 1.320 . S
O175 Cd172 2.333 . S
O175 C177 1.214 . S
O176 Cd172 2.352 . S
O176 C179 1.258 . S
C177 O174 1.320 . S
C177 O175 1.214 . S
O178 Cd170 2.277 . S
O178 C173 1.209 . S
C179 O176 1.258 . S
C179 O181 1.282 . S
O180 Cd172 2.277 . S
O180 C173 1.226 . S
O181 Cd172 2.356 . S
O181 C179 1.282 . S
C182 O183 1.306 . S
C182 O185 1.160 . S
O183 C182 1.306 . S
O183 Cd184 2.228 . S
Cd184 O183 2.228 . S
Cd184 O188 2.273 . S
Cd184 O192 2.277 1_655 S
O185 C182 1.160 . S
O185 Cd186 2.203 1_655 S
Cd186 O185 2.203 1_455 S
Cd186 O188 2.411 1_455 S
Cd186 O189 2.333 . S
Cd186 O190 2.352 1_455 S
Cd186 O194 2.277 . S
Cd186 O195 2.356 . S
C187 O192 1.209 . S
C187 O194 1.226 . S
O188 Cd184 2.273 . S
O188 Cd186 2.411 1_655 S
O188 C191 1.320 1_655 S
O189 Cd186 2.333 . S
O189 C191 1.214 . S
O190 Cd186 2.352 1_655 S
O190 C193 1.258 . S
C191 O188 1.320 1_455 S
C191 O189 1.214 . S
O192 Cd184 2.277 1_455 S
O192 C187 1.209 . S
C193 O190 1.258 . S
C193 O195 1.282 1_655 S
O194 Cd186 2.277 . S
O194 C187 1.226 . S
O195 Cd186 2.356 . S
O195 C193 1.282 1_455 S
C196 O197 1.306 . S
C196 O199 1.160 . S
O197 C196 1.306 . S
O197 Cd198 2.228 . S
Cd198 O197 2.228 . S
Cd198 O202 2.273 . S
Cd198 O206 2.277 . S
O199 C196 1.160 . S
O199 Cd200 2.203 . S
Cd200 O199 2.203 . S
Cd200 O202 2.411 . S
Cd200 O203 2.333 . S
Cd200 O204 2.352 . S
Cd200 O208 2.277 . S
Cd200 O209 2.356 . S
C201 O206 1.209 . S
C201 O208 1.226 . S
O202 Cd198 2.273 . S
O202 Cd200 2.411 . S
O202 C205 1.320 . S
O203 Cd200 2.333 . S
O203 C205 1.214 . S
O204 Cd200 2.352 . S
O204 C207 1.258 . S
C205 O202 1.320 . S
C205 O203 1.214 . S
O206 Cd198 2.277 . S
O206 C201 1.209 . S
C207 O204 1.258 . S
C207 O209 1.282 . S
O208 Cd200 2.277 . S
O208 C201 1.226 . S
O209 Cd200 2.356 . S
O209 C207 1.282 . S
C210 O211 1.306 . S
C210 O213 1.160 . S
O211 C210 1.306 . S
O211 Cd212 2.228 . S
Cd212 O211 2.228 . S
Cd212 O216 2.273 . S
Cd212 O220 2.277 1_655 S
O213 C210 1.160 . S
O213 Cd214 2.203 1_655 S
Cd214 O213 2.203 1_455 S
Cd214 O216 2.411 1_455 S
Cd214 O217 2.333 . S
Cd214 O218 2.352 1_455 S
Cd214 O222 2.277 . S
Cd214 O223 2.356 . S
C215 O220 1.209 . S
C215 O222 1.226 . S
O216 Cd212 2.273 . S
O216 Cd214 2.411 1_655 S
O216 C219 1.320 1_655 S
O217 Cd214 2.333 . S
O217 C219 1.214 . S
O218 Cd214 2.352 1_655 S
O218 C221 1.258 . S
C219 O216 1.320 1_455 S
C219 O217 1.214 . S
O220 Cd212 2.277 1_455 S
O220 C215 1.209 . S
C221 O218 1.258 . S
C221 O223 1.282 1_655 S
O222 Cd214 2.277 . S
O222 C215 1.226 . S
O223 Cd214 2.356 . S
O223 C221 1.282 1_455 S
C224 C225 1.363 1_655 S
C224 C230 1.379 . S
C224 N232 1.356 . S
C225 C224 1.363 1_455 S
C225 C231 1.363 . S
C226 C227 1.363 1_455 S
C226 C231 1.379 . S
C226 N233 1.356 . S
C227 C226 1.363 1_655 S
C227 C230 1.363 . S
N228 C230 1.356 . S
N228 H240 0.984 . S
N228 H241 0.985 . S
N229 C231 1.356 . S
N229 H234 0.984 . S
N229 H235 0.985 . S
C230 C224 1.379 . S
C230 C227 1.363 . S
C230 N228 1.356 . S
C231 C225 1.363 . S
C231 C226 1.379 . S
C231 N229 1.356 . S
N232 C224 1.356 . S
N232 H238 0.984 . S
N232 H239 0.984 . S
N233 C226 1.356 . S
N233 H236 0.984 . S
N233 H237 0.985 . S
H234 N229 0.984 . S
H235 N229 0.985 . S
H236 N233 0.984 . S
H237 N233 0.985 . S
H238 N232 0.984 . S
H239 N232 0.984 . S
H240 N228 0.984 . S
H241 N228 0.985 . S
C242 C243 1.363 . S
C242 C248 1.379 1_655 S
C242 N250 1.356 . S
C243 C242 1.363 . S
C243 C249 1.363 . S
C244 C245 1.363 . S
C244 C249 1.379 1_455 S
C244 N251 1.356 . S
C245 C244 1.363 . S
C245 C248 1.363 . S
N246 C248 1.356 . S
N246 H258 0.984 . S
N246 H259 0.985 . S
N247 C249 1.356 . S
N247 H252 0.984 . S
N247 H253 0.985 . S
C248 C242 1.379 1_455 S
C248 C245 1.363 . S
C248 N246 1.356 . S
C249 C243 1.363 . S
C249 C244 1.379 1_655 S
C249 N247 1.356 . S
N250 C242 1.356 . S
N250 H256 0.984 . S
N250 H257 0.984 . S
N251 C244 1.356 . S
N251 H254 0.984 . S
N251 H255 0.985 . S
H252 N247 0.984 . S
H253 N247 0.985 . S
H254 N251 0.984 . S
H255 N251 0.985 . S
H256 N250 0.984 . S
H257 N250 0.984 . S
H258 N246 0.984 . S
H259 N246 0.985 . S
C260 C261 1.363 . S
C260 C266 1.379 . S
C260 N268 1.356 . S
C261 C260 1.363 . S
C261 C267 1.363 . S
C262 C263 1.363 . S
C262 C267 1.379 . S
C262 N269 1.356 . S
C263 C262 1.363 . S
C263 C266 1.363 . S
N264 C266 1.356 . S
N264 H276 0.984 . S
N264 H277 0.985 . S
N265 C267 1.356 . S
N265 H270 0.984 . S
N265 H271 0.985 . S
C266 C260 1.379 . S
C266 C263 1.363 . S
C266 N264 1.356 . S
C267 C261 1.363 . S
C267 C262 1.379 . S
C267 N265 1.356 . S
N268 C260 1.356 . S
N268 H274 0.984 . S
N268 H275 0.984 . S
N269 C262 1.356 . S
N269 H272 0.984 . S
N269 H273 0.985 . S
H270 N265 0.984 . S
H271 N265 0.985 . S
H272 N269 0.984 . S
H273 N269 0.985 . S
H274 N268 0.984 . S
H275 N268 0.984 . S
H276 N264 0.984 . S
H277 N264 0.985 . S
C278 C279 1.363 . S
C278 C284 1.379 . S
C278 N286 1.356 . S
C279 C278 1.363 . S
C279 C285 1.363 . S
C280 C281 1.363 . S
C280 C285 1.379 . S
C280 N287 1.356 . S
C281 C280 1.363 . S
C281 C284 1.363 . S
N282 C284 1.356 . S
N282 H294 0.984 . S
N282 H295 0.985 . S
N283 C285 1.356 . S
N283 H288 0.984 . S
N283 H289 0.985 . S
C284 C278 1.379 . S
C284 C281 1.363 . S
C284 N282 1.356 . S
C285 C279 1.363 . S
C285 C280 1.379 . S
C285 N283 1.356 . S
N286 C278 1.356 . S
N286 H292 0.984 . S
N286 H293 0.984 . S
N287 C280 1.356 . S
N287 H290 0.984 . S
N287 H291 0.985 . S
H288 N283 0.984 . S
H289 N283 0.985 . S
H290 N287 0.984 . S
H291 N287 0.985 . S
H292 N286 0.984 . S
H293 N286 0.984 . S
H294 N282 0.984 . S
H295 N282 0.985 . S
C296 C297 1.363 1_655 S
C296 C302 1.379 . S
C296 N304 1.356 . S
C297 C296 1.363 1_455 S
C297 C303 1.363 . S
C298 C299 1.363 1_455 S
C298 C303 1.379 . S
C298 N305 1.356 . S
C299 C298 1.363 1_655 S
C299 C302 1.363 . S
N300 C302 1.356 . S
N300 H312 0.984 . S
N300 H313 0.985 . S
N301 C303 1.356 . S
N301 H306 0.984 . S
N301 H307 0.985 . S
C302 C296 1.379 . S
C302 C299 1.363 . S
C302 N300 1.356 . S
C303 C297 1.363 . S
C303 C298 1.379 . S
C303 N301 1.356 . S
N304 C296 1.356 . S
N304 H310 0.984 . S
N304 H311 0.984 . S
N305 C298 1.356 . S
N305 H308 0.984 . S
N305 H309 0.985 . S
H306 N301 0.984 . S
H307 N301 0.985 . S
H308 N305 0.984 . S
H309 N305 0.985 . S
H310 N304 0.984 . S
H311 N304 0.984 . S
H312 N300 0.984 . S
H313 N300 0.985 . S
C314 C315 1.363 . S
C314 C320 1.379 . S
C314 N322 1.356 . S
C315 C314 1.363 . S
C315 C321 1.363 . S
C316 C317 1.363 . S
C316 C321 1.379 . S
C316 N323 1.356 . S
C317 C316 1.363 . S
C317 C320 1.363 . S
N318 C320 1.356 . S
N318 H330 0.984 . S
N318 H331 0.985 . S
N319 C321 1.356 . S
N319 H324 0.984 . S
N319 H325 0.985 . S
C320 C314 1.379 . S
C320 C317 1.363 . S
C320 N318 1.356 . S
C321 C315 1.363 . S
C321 C316 1.379 . S
C321 N319 1.356 . S
N322 C314 1.356 . S
N322 H328 0.984 . S
N322 H329 0.984 . S
N323 C316 1.356 . S
N323 H326 0.984 . S
N323 H327 0.985 . S
H324 N319 0.984 . S
H325 N319 0.985 . S
H326 N323 0.984 . S
H327 N323 0.985 . S
H328 N322 0.984 . S
H329 N322 0.984 . S
H330 N318 0.984 . S
H331 N318 0.985 . S
C332 C333 1.363 . S
C332 C338 1.379 . S
C332 N340 1.356 . S
C333 C332 1.363 . S
C333 C339 1.363 . S
C334 C335 1.363 . S
C334 C339 1.379 . S
C334 N341 1.356 . S
C335 C334 1.363 . S
C335 C338 1.363 . S
N336 C338 1.356 . S
N336 H348 0.984 . S
N336 H349 0.985 . S
N337 C339 1.356 . S
N337 H342 0.984 . S
N337 H343 0.985 . S
C338 C332 1.379 . S
C338 C335 1.363 . S
C338 N336 1.356 . S
C339 C333 1.363 . S
C339 C334 1.379 . S
C339 N337 1.356 . S
N340 C332 1.356 . S
N340 H346 0.984 . S
N340 H347 0.984 . S
N341 C334 1.356 . S
N341 H344 0.984 . S
N341 H345 0.985 . S
H342 N337 0.984 . S
H343 N337 0.985 . S
H344 N341 0.984 . S
H345 N341 0.985 . S
H346 N340 0.984 . S
H347 N340 0.984 . S
H348 N336 0.984 . S
H349 N336 0.985 . S
C350 C351 1.363 . S
C350 C356 1.379 1_455 S
C350 N358 1.356 . S
C351 C350 1.363 . S
C351 C357 1.363 . S
C352 C353 1.363 . S
C352 C357 1.379 1_655 S
C352 N359 1.356 . S
C353 C352 1.363 . S
C353 C356 1.363 . S
N354 C356 1.356 . S
N354 H366 0.984 . S
N354 H367 0.985 . S
N355 C357 1.356 . S
N355 H360 0.984 . S
N355 H361 0.985 . S
C356 C350 1.379 1_655 S
C356 C353 1.363 . S
C356 N354 1.356 . S
C357 C351 1.363 . S
C357 C352 1.379 1_455 S
C357 N355 1.356 . S
N358 C350 1.356 . S
N358 H364 0.984 . S
N358 H365 0.984 . S
N359 C352 1.356 . S
N359 H362 0.984 . S
N359 H363 0.985 . S
H360 N355 0.984 . S
H361 N355 0.985 . S
H362 N359 0.984 . S
H363 N359 0.985 . S
H364 N358 0.984 . S
H365 N358 0.984 . S
H366 N354 0.984 . S
H367 N354 0.985 . S
C368 C369 1.363 1_445 S
C368 C374 1.379 . S
C368 N376 1.356 . S
C369 C368 1.363 1_665 S
C369 C375 1.363 . S
C370 C371 1.363 1_565 S
C370 C375 1.379 . S
C370 N377 1.356 . S
C371 C370 1.363 1_545 S
C371 C374 1.363 1_655 S
N372 C374 1.356 . S
N372 H384 0.984 . S
N372 H385 0.985 . S
N373 C375 1.356 . S
N373 H378 0.984 . S
N373 H379 0.985 . S
C374 C368 1.379 . S
C374 C371 1.363 1_455 S
C374 N372 1.356 . S
C375 C369 1.363 . S
C375 C370 1.379 . S
C375 N373 1.356 . S
N376 C368 1.356 . S
N376 H382 0.984 . S
N376 H383 0.984 . S
N377 C370 1.356 . S
N377 H380 0.984 . S
N377 H381 0.985 . S
H378 N373 0.984 . S
H379 N373 0.985 . S
H380 N377 0.984 . S
H381 N377 0.985 . S
H382 N376 0.984 . S
H383 N376 0.984 . S
H384 N372 0.984 . S
H385 N372 0.985 . S
C386 C387 1.363 . S
C386 C392 1.379 . S
C386 N394 1.356 . S
C387 C386 1.363 . S
C387 C393 1.363 . S
C388 C389 1.363 . S
C388 C393 1.379 . S
C388 N395 1.356 . S
C389 C388 1.363 . S
C389 C392 1.363 . S
N390 C392 1.356 . S
N390 H402 0.984 . S
N390 H403 0.985 . S
N391 C393 1.356 . S
N391 H396 0.984 . S
N391 H397 0.985 . S
C392 C386 1.379 . S
C392 C389 1.363 . S
C392 N390 1.356 . S
C393 C387 1.363 . S
C393 C388 1.379 . S
C393 N391 1.356 . S
N394 C386 1.356 . S
N394 H400 0.984 . S
N394 H401 0.984 . S
N395 C388 1.356 . S
N395 H398 0.984 . S
N395 H399 0.985 . S
H396 N391 0.984 . S
H397 N391 0.985 . S
H398 N395 0.984 . S
H399 N395 0.985 . S
H400 N394 0.984 . S
H401 N394 0.984 . S
H402 N390 0.984 . S
H403 N390 0.985 . S
C404 C405 1.363 1_545 S
C404 C410 1.379 1_554 S
C404 N412 1.356 . S
C405 C404 1.363 1_565 S
C405 C411 1.363 . S
C406 C407 1.363 1_565 S
C406 C411 1.379 1_556 S
C406 N413 1.356 . S
C407 C406 1.363 1_545 S
C407 C410 1.363 . S
N408 C410 1.356 . S
N408 H420 0.984 . S
N408 H421 0.985 . S
N409 C411 1.356 . S
N409 H414 0.984 . S
N409 H415 0.985 . S
C410 C404 1.379 1_556 S
C410 C407 1.363 . S
C410 N408 1.356 . S
C411 C405 1.363 . S
C411 C406 1.379 1_554 S
C411 N409 1.356 . S
N412 C404 1.356 . S
N412 H418 0.984 . S
N412 H419 0.984 . S
N413 C406 1.356 . S
N413 H416 0.984 . S
N413 H417 0.985 . S
H414 N409 0.984 . S
H415 N409 0.985 . S
H416 N413 0.984 . S
H417 N413 0.985 . S
H418 N412 0.984 . S
H419 N412 0.984 . S
H420 N408 0.984 . S
H421 N408 0.985 . S
C422 C423 1.363 . S
C422 C428 1.379 . S
C422 N430 1.356 . S
C423 C422 1.363 . S
C423 C429 1.363 . S
C424 C425 1.363 . S
C424 C429 1.379 . S
C424 N431 1.356 . S
C425 C424 1.363 . S
C425 C428 1.363 . S
N426 C428 1.356 . S
N426 H438 0.984 . S
N426 H439 0.985 . S
N427 C429 1.356 . S
N427 H432 0.984 . S
N427 H433 0.985 . S
C428 C422 1.379 . S
C428 C425 1.363 . S
C428 N426 1.356 . S
C429 C423 1.363 . S
C429 C424 1.379 . S
C429 N427 1.356 . S
N430 C422 1.356 . S
N430 H436 0.984 . S
N430 H437 0.984 . S
N431 C424 1.356 . S
N431 H434 0.984 . S
N431 H435 0.985 . S
H432 N427 0.984 . S
H433 N427 0.985 . S
H434 N431 0.984 . S
H435 N431 0.985 . S
H436 N430 0.984 . S
H437 N430 0.984 . S
H438 N426 0.984 . S
H439 N426 0.985 . S
C440 C441 1.363 . S
C440 C446 1.379 . S
C440 N448 1.356 . S
C441 C440 1.363 . S
C441 C447 1.363 . S
C442 C443 1.363 . S
C442 C447 1.379 . S
C442 N449 1.356 . S
C443 C442 1.363 . S
C443 C446 1.363 . S
N444 C446 1.356 . S
N444 H456 0.984 . S
N444 H457 0.985 . S
N445 C447 1.356 . S
N445 H450 0.984 . S
N445 H451 0.985 . S
C446 C440 1.379 . S
C446 C443 1.363 . S
C446 N444 1.356 . S
C447 C441 1.363 . S
C447 C442 1.379 . S
C447 N445 1.356 . S
N448 C440 1.356 . S
N448 H454 0.984 . S
N448 H455 0.984 . S
N449 C442 1.356 . S
N449 H452 0.984 . S
N449 H453 0.985 . S
H450 N445 0.984 . S
H451 N445 0.985 . S
H452 N449 0.984 . S
H453 N449 0.985 . S
H454 N448 0.984 . S
H455 N448 0.984 . S
H456 N444 0.984 . S
H457 N444 0.985 . S
C458 C459 1.363 . S
C458 C464 1.379 . S
C458 N466 1.356 . S
C459 C458 1.363 . S
C459 C465 1.363 . S
C460 C461 1.363 . S
C460 C465 1.379 . S
C460 N467 1.356 . S
C461 C460 1.363 . S
C461 C464 1.363 . S
N462 C464 1.356 . S
N462 H474 0.984 . S
N462 H475 0.985 . S
N463 C465 1.356 . S
N463 H468 0.984 . S
N463 H469 0.985 . S
C464 C458 1.379 . S
C464 C461 1.363 . S
C464 N462 1.356 . S
C465 C459 1.363 . S
C465 C460 1.379 . S
C465 N463 1.356 . S
N466 C458 1.356 . S
N466 H472 0.984 . S
N466 H473 0.984 . S
N467 C460 1.356 . S
N467 H470 0.984 . S
N467 H471 0.985 . S
H468 N463 0.984 . S
H469 N463 0.985 . S
H470 N467 0.984 . S
H471 N467 0.985 . S
H472 N466 0.984 . S
H473 N466 0.984 . S
H474 N462 0.984 . S
H475 N462 0.985 . S
C476 C477 1.363 . S
C476 C482 1.379 1_556 S
C476 N484 1.356 . S
C477 C476 1.363 . S
C477 C483 1.363 . S
C478 C479 1.363 . S
C478 C483 1.379 1_554 S
C478 N485 1.356 . S
C479 C478 1.363 . S
C479 C482 1.363 . S
N480 C482 1.356 . S
N480 H492 0.984 . S
N480 H493 0.985 . S
N481 C483 1.356 . S
N481 H486 0.984 . S
N481 H487 0.985 . S
C482 C476 1.379 1_554 S
C482 C479 1.363 . S
C482 N480 1.356 . S
C483 C477 1.363 . S
C483 C478 1.379 1_556 S
C483 N481 1.356 . S
N484 C476 1.356 . S
N484 H490 0.984 . S
N484 H491 0.984 . S
N485 C478 1.356 . S
N485 H488 0.984 . S
N485 H489 0.985 . S
H486 N481 0.984 . S
H487 N481 0.985 . S
H488 N485 0.984 . S
H489 N485 0.985 . S
H490 N484 0.984 . S
H491 N484 0.984 . S
H492 N480 0.984 . S
H493 N480 0.985 . S
C494 C495 1.363 1_655 S
C494 C500 1.379 . S
C494 N502 1.356 . S
C495 C494 1.363 1_455 S
C495 C501 1.363 . S
C496 C497 1.363 . S
C496 C501 1.379 . S
C496 N503 1.356 . S
C497 C496 1.363 . S
C497 C500 1.363 1_455 S
N498 C500 1.356 . S
N498 H510 0.984 . S
N498 H511 0.985 . S
N499 C501 1.356 . S
N499 H504 0.984 . S
N499 H505 0.985 . S
C500 C494 1.379 . S
C500 C497 1.363 1_655 S
C500 N498 1.356 . S
C501 C495 1.363 . S
C501 C496 1.379 . S
C501 N499 1.356 . S
N502 C494 1.356 . S
N502 H508 0.984 . S
N502 H509 0.984 . S
N503 C496 1.356 . S
N503 H506 0.984 . S
N503 H507 0.985 . S
H504 N499 0.984 . S
H505 N499 0.985 . S
H506 N503 0.984 . S
H507 N503 0.985 . S
H508 N502 0.984 . S
H509 N502 0.984 . S
H510 N498 0.984 . S
H511 N498 0.985 . S
C512 C513 1.363 . S
C512 C518 1.379 . S
C512 N520 1.356 . S
C513 C512 1.363 . S
C513 C519 1.363 . S
C514 C515 1.363 . S
C514 C519 1.379 . S
C514 N521 1.356 . S
C515 C514 1.363 . S
C515 C518 1.363 . S
N516 C518 1.356 . S
N516 H528 0.984 . S
N516 H529 0.985 . S
N517 C519 1.356 . S
N517 H522 0.984 . S
N517 H523 0.985 . S
C518 C512 1.379 . S
C518 C515 1.363 . S
C518 N516 1.356 . S
C519 C513 1.363 . S
C519 C514 1.379 . S
C519 N517 1.356 . S
N520 C512 1.356 . S
N520 H526 0.984 . S
N520 H527 0.984 . S
N521 C514 1.356 . S
N521 H524 0.984 . S
N521 H525 0.985 . S
H522 N517 0.984 . S
H523 N517 0.985 . S
H524 N521 0.984 . S
H525 N521 0.985 . S
H526 N520 0.984 . S
H527 N520 0.984 . S
H528 N516 0.984 . S
H529 N516 0.985 . S
C530 C531 1.363 . S
C530 C536 1.379 . S
C530 N538 1.356 . S
C531 C530 1.363 . S
C531 C537 1.363 . S
C532 C533 1.363 . S
C532 C537 1.379 . S
C532 N539 1.356 . S
C533 C532 1.363 . S
C533 C536 1.363 . S
N534 C536 1.356 . S
N534 H546 0.984 . S
N534 H547 0.985 . S
N535 C537 1.356 . S
N535 H540 0.984 . S
N535 H541 0.985 . S
C536 C530 1.379 . S
C536 C533 1.363 . S
C536 N534 1.356 . S
C537 C531 1.363 . S
C537 C532 1.379 . S
C537 N535 1.356 . S
N538 C530 1.356 . S
N538 H544 0.984 . S
N538 H545 0.984 . S
N539 C532 1.356 . S
N539 H542 0.984 1_565 S
N539 H543 0.985 . S
H540 N535 0.984 . S
H541 N535 0.985 . S
H542 N539 0.984 1_545 S
H543 N539 0.985 . S
H544 N538 0.984 . S
H545 N538 0.984 . S
H546 N534 0.984 . S
H547 N534 0.985 . S
C548 C549 1.363 . S
C548 C554 1.379 . S
C548 N556 1.356 . S
C549 C548 1.363 . S
C549 C555 1.363 . S
C550 C551 1.363 . S
C550 C555 1.379 . S
C550 N557 1.356 . S
C551 C550 1.363 . S
C551 C554 1.363 . S
N552 C554 1.356 . S
N552 H564 0.984 . S
N552 H565 0.985 . S
N553 C555 1.356 1_565 S
N553 H558 0.984 . S
N553 H559 0.985 . S
C554 C548 1.379 . S
C554 C551 1.363 . S
C554 N552 1.356 . S
C555 C549 1.363 . S
C555 C550 1.379 . S
C555 N553 1.356 1_545 S
N556 C548 1.356 . S
N556 H562 0.984 . S
N556 H563 0.984 . S
N557 C550 1.356 . S
N557 H560 0.984 . S
N557 H561 0.985 . S
H558 N553 0.984 . S
H559 N553 0.985 . S
H560 N557 0.984 . S
H561 N557 0.985 . S
H562 N556 0.984 . S
H563 N556 0.984 . S
H564 N552 0.984 . S
H565 N552 0.985 . S
C566 C567 1.363 . S
C566 C572 1.379 . S
C566 N574 1.356 . S
C567 C566 1.363 . S
C567 C573 1.363 . S
C568 C569 1.363 . S
C568 C573 1.379 . S
C568 N575 1.356 . S
C569 C568 1.363 . S
C569 C572 1.363 . S
N570 C572 1.356 . S
N570 H582 0.984 . S
N570 H583 0.985 . S
N571 C573 1.356 1_565 S
N571 H576 0.984 . S
N571 H577 0.985 . S
C572 C566 1.379 . S
C572 C569 1.363 . S
C572 N570 1.356 . S
C573 C567 1.363 . S
C573 C568 1.379 . S
C573 N571 1.356 1_545 S
N574 C566 1.356 . S
N574 H580 0.984 . S
N574 H581 0.984 . S
N575 C568 1.356 . S
N575 H578 0.984 . S
N575 H579 0.985 . S
H576 N571 0.984 . S
H577 N571 0.985 . S
H578 N575 0.984 . S
H579 N575 0.985 . S
H580 N574 0.984 . S
H581 N574 0.984 . S
H582 N570 0.984 . S
H583 N570 0.985 . S
C584 C585 1.363 . S
C584 C590 1.379 . S
C584 N592 1.356 . S
C585 C584 1.363 . S
C585 C591 1.363 . S
C586 C587 1.363 . S
C586 C591 1.379 . S
C586 N593 1.356 . S
C587 C586 1.363 . S
C587 C590 1.363 . S
N588 C590 1.356 . S
N588 H600 0.984 . S
N588 H601 0.985 . S
N589 C591 1.356 . S
N589 H594 0.984 . S
N589 H595 0.985 . S
C590 C584 1.379 . S
C590 C587 1.363 . S
C590 N588 1.356 . S
C591 C585 1.363 . S
C591 C586 1.379 . S
C591 N589 1.356 . S
N592 C584 1.356 . S
N592 H598 0.984 . S
N592 H599 0.984 . S
N593 C586 1.356 . S
N593 H596 0.984 . S
N593 H597 0.985 . S
H594 N589 0.984 . S
H595 N589 0.985 . S
H596 N593 0.984 . S
H597 N593 0.985 . S
H598 N592 0.984 . S
H599 N592 0.984 . S
H600 N588 0.984 . S
H601 N588 0.985 . S
C602 C603 1.363 . S
C602 C608 1.379 . S
C602 N610 1.356 . S
C603 C602 1.363 . S
C603 C609 1.363 . S
C604 C605 1.363 . S
C604 C609 1.379 . S
C604 N611 1.356 . S
C605 C604 1.363 . S
C605 C608 1.363 . S
N606 C608 1.356 . S
N606 H618 0.984 . S
N606 H619 0.985 . S
N607 C609 1.356 . S
N607 H612 0.984 1_545 S
N607 H613 0.985 1_545 S
C608 C602 1.379 . S
C608 C605 1.363 . S
C608 N606 1.356 . S
C609 C603 1.363 . S
C609 C604 1.379 . S
C609 N607 1.356 . S
N610 C602 1.356 . S
N610 H616 0.984 . S
N610 H617 0.984 . S
N611 C604 1.356 . S
N611 H614 0.984 . S
N611 H615 0.985 . S
H612 N607 0.984 1_565 S
H613 N607 0.985 1_565 S
H614 N611 0.984 . S
H615 N611 0.985 . S
H616 N610 0.984 . S
H617 N610 0.984 . S
H618 N606 0.984 . S
H619 N606 0.985 . S
C620 C621 1.363 . S
C620 C626 1.379 . S
C620 N628 1.356 . S
C621 C620 1.363 . S
C621 C627 1.363 . S
C622 C623 1.363 . S
C622 C627 1.379 . S
C622 N629 1.356 . S
C623 C622 1.363 . S
C623 C626 1.363 . S
N624 C626 1.356 1_545 S
N624 H636 0.984 . S
N624 H637 0.985 . S
N625 C627 1.356 . S
N625 H630 0.984 . S
N625 H631 0.985 . S
C626 C620 1.379 . S
C626 C623 1.363 . S
C626 N624 1.356 1_565 S
C627 C621 1.363 . S
C627 C622 1.379 . S
C627 N625 1.356 . S
N628 C620 1.356 . S
N628 H634 0.984 . S
N628 H635 0.984 . S
N629 C622 1.356 . S
N629 H632 0.984 . S
N629 H633 0.985 . S
H630 N625 0.984 . S
H631 N625 0.985 . S
H632 N629 0.984 . S
H633 N629 0.985 . S
H634 N628 0.984 . S
H635 N628 0.984 . S
H636 N624 0.984 . S
H637 N624 0.985 . S
C638 C639 1.363 . S
C638 C644 1.379 . S
C638 N646 1.356 . S
C639 C638 1.363 . S
C639 C645 1.363 . S
C640 C641 1.363 . S
C640 C645 1.379 . S
C640 N647 1.356 . S
C641 C640 1.363 . S
C641 C644 1.363 . S
N642 C644 1.356 . S
N642 H654 0.984 . S
N642 H655 0.985 . S
N643 C645 1.356 . S
N643 H648 0.984 . S
N643 H649 0.985 . S
C644 C638 1.379 . S
C644 C641 1.363 . S
C644 N642 1.356 . S
C645 C639 1.363 . S
C645 C640 1.379 . S
C645 N643 1.356 . S
N646 C638 1.356 . S
N646 H652 0.984 . S
N646 H653 0.984 . S
N647 C640 1.356 . S
N647 H650 0.984 . S
N647 H651 0.985 . S
H648 N643 0.984 . S
H649 N643 0.985 . S
H650 N647 0.984 . S
H651 N647 0.985 . S
H652 N646 0.984 . S
H653 N646 0.984 . S
H654 N642 0.984 . S
H655 N642 0.985 . S
C656 C657 1.363 . S
C656 C662 1.379 . S
C656 N664 1.356 . S
C657 C656 1.363 . S
C657 C663 1.363 . S
C658 C659 1.363 . S
C658 C663 1.379 . S
C658 N665 1.356 . S
C659 C658 1.363 . S
C659 C662 1.363 . S
N660 C662 1.356 . S
N660 H672 0.984 . S
N660 H673 0.985 . S
N661 C663 1.356 . S
N661 H666 0.984 . S
N661 H667 0.985 . S
C662 C656 1.379 . S
C662 C659 1.363 . S
C662 N660 1.356 . S
C663 C657 1.363 . S
C663 C658 1.379 . S
C663 N661 1.356 . S
N664 C656 1.356 . S
N664 H670 0.984 . S
N664 H671 0.984 . S
N665 C658 1.356 . S
N665 H668 0.984 . S
N665 H669 0.985 . S
H666 N661 0.984 . S
H667 N661 0.985 . S
H668 N665 0.984 . S
H669 N665 0.985 . S
H670 N664 0.984 . S
H671 N664 0.984 . S
H672 N660 0.984 . S
H673 N660 0.985 . S
C674 C675 1.363 . S
C674 C680 1.379 . S
C674 N682 1.356 . S
C675 C674 1.363 . S
C675 C681 1.363 . S
C676 C677 1.363 . S
C676 C681 1.379 . S
C676 N683 1.356 . S
C677 C676 1.363 . S
C677 C680 1.363 . S
N678 C680 1.356 . S
N678 H690 0.984 . S
N678 H691 0.985 . S
N679 C681 1.356 . S
N679 H684 0.984 . S
N679 H685 0.985 . S
C680 C674 1.379 . S
C680 C677 1.363 . S
C680 N678 1.356 . S
C681 C675 1.363 . S
C681 C676 1.379 . S
C681 N679 1.356 . S
N682 C674 1.356 . S
N682 H688 0.984 . S
N682 H689 0.984 . S
N683 C676 1.356 . S
N683 H686 0.984 . S
N683 H687 0.985 . S
H684 N679 0.984 . S
H685 N679 0.985 . S
H686 N683 0.984 . S
H687 N683 0.985 . S
H688 N682 0.984 . S
H689 N682 0.984 . S
H690 N678 0.984 . S
H691 N678 0.985 . S
C692 C693 1.363 . S
C692 C698 1.379 . S
C692 N700 1.356 . S
C693 C692 1.363 . S
C693 C699 1.363 . S
C694 C695 1.363 . S
C694 C699 1.379 . S
C694 N701 1.356 . S
C695 C694 1.363 . S
C695 C698 1.363 . S
N696 C698 1.356 . S
N696 H708 0.984 . S
N696 H709 0.985 . S
N697 C699 1.356 . S
N697 H702 0.984 . S
N697 H703 0.985 . S
C698 C692 1.379 . S
C698 C695 1.363 . S
C698 N696 1.356 . S
C699 C693 1.363 . S
C699 C694 1.379 . S
C699 N697 1.356 . S
N700 C692 1.356 . S
N700 H706 0.984 . S
N700 H707 0.984 . S
N701 C694 1.356 . S
N701 H704 0.984 . S
N701 H705 0.985 . S
H702 N697 0.984 . S
H703 N697 0.985 . S
H704 N701 0.984 . S
H705 N701 0.985 . S
H706 N700 0.984 . S
H707 N700 0.984 . S
H708 N696 0.984 . S
H709 N696 0.985 . S
C710 C711 1.363 . S
C710 C716 1.379 . S
C710 N718 1.356 . S
C711 C710 1.363 . S
C711 C717 1.363 . S
C712 C713 1.363 . S
C712 C717 1.379 . S
C712 N719 1.356 . S
C713 C712 1.363 . S
C713 C716 1.363 . S
N714 C716 1.356 . S
N714 H726 0.984 . S
N714 H727 0.985 . S
N715 C717 1.356 . S
N715 H720 0.984 . S
N715 H721 0.985 . S
C716 C710 1.379 . S
C716 C713 1.363 . S
C716 N714 1.356 . S
C717 C711 1.363 . S
C717 C712 1.379 . S
C717 N715 1.356 . S
N718 C710 1.356 . S
N718 H724 0.984 . S
N718 H725 0.984 . S
N719 C712 1.356 . S
N719 H722 0.984 . S
N719 H723 0.985 . S
H720 N715 0.984 . S
H721 N715 0.985 . S
H722 N719 0.984 . S
H723 N719 0.985 . S
H724 N718 0.984 . S
H725 N718 0.984 . S
H726 N714 0.984 . S
H727 N714 0.985 . S
C728 C729 1.363 . S
C728 C734 1.379 . S
C728 N736 1.356 . S
C729 C728 1.363 . S
C729 C735 1.363 . S
C730 C731 1.363 . S
C730 C735 1.379 . S
C730 N737 1.356 . S
C731 C730 1.363 . S
C731 C734 1.363 . S
N732 C734 1.356 . S
N732 H744 0.984 . S
N732 H745 0.985 . S
N733 C735 1.356 . S
N733 H738 0.984 . S
N733 H739 0.985 . S
C734 C728 1.379 . S
C734 C731 1.363 . S
C734 N732 1.356 . S
C735 C729 1.363 . S
C735 C730 1.379 . S
C735 N733 1.356 . S
N736 C728 1.356 . S
N736 H742 0.984 . S
N736 H743 0.984 . S
N737 C730 1.356 . S
N737 H740 0.984 . S
N737 H741 0.985 . S
H738 N733 0.984 . S
H739 N733 0.985 . S
H740 N737 0.984 . S
H741 N737 0.985 . S
H742 N736 0.984 . S
H743 N736 0.984 . S
H744 N732 0.984 . S
H745 N732 0.985 . S
C746 C747 1.363 . S
C746 C752 1.379 . S
C746 N754 1.356 . S
C747 C746 1.363 . S
C747 C753 1.363 . S
C748 C749 1.363 . S
C748 C753 1.379 . S
C748 N755 1.356 . S
C749 C748 1.363 . S
C749 C752 1.363 . S
N750 C752 1.356 . S
N750 H762 0.984 . S
N750 H763 0.985 . S
N751 C753 1.356 . S
N751 H756 0.984 . S
N751 H757 0.985 . S
C752 C746 1.379 . S
C752 C749 1.363 . S
C752 N750 1.356 . S
C753 C747 1.363 . S
C753 C748 1.379 . S
C753 N751 1.356 . S
N754 C746 1.356 . S
N754 H760 0.984 . S
N754 H761 0.984 . S
N755 C748 1.356 . S
N755 H758 0.984 . S
N755 H759 0.985 . S
H756 N751 0.984 . S
H757 N751 0.985 . S
H758 N755 0.984 . S
H759 N755 0.985 . S
H760 N754 0.984 . S
H761 N754 0.984 . S
H762 N750 0.984 . S
H763 N750 0.985 . S
C764 C765 1.363 . S
C764 C770 1.379 . S
C764 N772 1.356 . S
C765 C764 1.363 . S
C765 C771 1.363 . S
C766 C767 1.363 . S
C766 C771 1.379 . S
C766 N773 1.356 . S
C767 C766 1.363 . S
C767 C770 1.363 . S
N768 C770 1.356 . S
N768 H780 0.984 . S
N768 H781 0.985 . S
N769 C771 1.356 . S
N769 H774 0.984 . S
N769 H775 0.985 . S
C770 C764 1.379 . S
C770 C767 1.363 . S
C770 N768 1.356 . S
C771 C765 1.363 . S
C771 C766 1.379 . S
C771 N769 1.356 . S
N772 C764 1.356 . S
N772 H778 0.984 . S
N772 H779 0.984 . S
N773 C766 1.356 . S
N773 H776 0.984 . S
N773 H777 0.985 . S
H774 N769 0.984 . S
H775 N769 0.985 . S
H776 N773 0.984 . S
H777 N773 0.985 . S
H778 N772 0.984 . S
H779 N772 0.984 . S
H780 N768 0.984 . S
H781 N768 0.985 . S
C782 C783 1.363 . S
C782 C788 1.379 . S
C782 N790 1.356 . S
C783 C782 1.363 . S
C783 C789 1.363 . S
C784 C785 1.363 . S
C784 C789 1.379 . S
C784 N791 1.356 . S
C785 C784 1.363 . S
C785 C788 1.363 . S
N786 C788 1.356 . S
N786 H798 0.984 . S
N786 H799 0.985 . S
N787 C789 1.356 . S
N787 H792 0.984 . S
N787 H793 0.985 . S
C788 C782 1.379 . S
C788 C785 1.363 . S
C788 N786 1.356 . S
C789 C783 1.363 . S
C789 C784 1.379 . S
C789 N787 1.356 . S
N790 C782 1.356 . S
N790 H796 0.984 . S
N790 H797 0.984 . S
N791 C784 1.356 . S
N791 H794 0.984 . S
N791 H795 0.985 . S
H792 N787 0.984 . S
H793 N787 0.985 . S
H794 N791 0.984 . S
H795 N791 0.985 . S
H796 N790 0.984 . S
H797 N790 0.984 . S
H798 N786 0.984 . S
H799 N786 0.985 . S
C225 C11 1.341 . S
C227 C193 1.341 . S
C243 C165 1.341 . S
C245 C25 1.341 . S
C261 C179 1.341 . S
C263 C39 1.341 . S
C279 C151 1.341 . S
C281 C53 1.341 . S
C297 C67 1.341 . S
C299 C221 1.341 . S
C315 C81 1.341 . S
C317 C137 1.341 . S
C333 C207 1.341 . S
C335 C95 1.341 . S
C351 C109 1.341 . S
C353 C123 1.341 . S
C369 C65 1.617 . S
C371 C9 1.617 . S
C387 C23 1.617 . S
C389 C79 1.617 . S
C405 C37 1.617 . S
C407 C93 1.617 . S
C423 C107 1.617 . S
C425 C51 1.617 . S
C441 C121 1.617 . S
C443 C149 1.617 . S
C459 C135 1.617 . S
C461 C163 1.617 . S
C477 C205 1.617 . S
C479 C177 1.617 . S
C495 C191 1.617 . S
C497 C219 1.617 . S
C513 C70 1.483 . S
C515 C0 1.483 . S
C531 C14 1.483 . S
C533 C84 1.483 . S
C549 C28 1.483 . S
C551 C98 1.483 . S
C567 C56 1.483 . S
C569 C42 1.483 . S
C585 C61 1.329 . S
C587 C145 1.329 . S
C603 C33 1.329 . S
C605 C117 1.329 . S
C621 C159 1.329 . S
C623 C89 1.329 . S
C639 C131 1.329 . S
C641 C5 1.329 . S
C657 C112 1.483 . S
C659 C168 1.483 . S
C675 C140 1.483 . S
C677 C210 1.483 . S
C693 C182 1.483 . S
C695 C126 1.483 . S
C711 C154 1.483 . S
C713 C196 1.483 . S
C729 C201 1.329 . S
C731 C19 1.329 . S
C747 C187 1.329 . S
C749 C75 1.329 . S
C765 C215 1.329 . S
C767 C47 1.329 . S
C783 C173 1.329 . S
C785 C103 1.329 . S
