# Generated by pormake.
# Topology ume, (4)-cn, num edge types: 1
# Building blocks:
#     Node 0, Type 0, BuildingBlock: ESEHIV_clean_sbu_0, # of connection points: 4
#     Node 1, Type 0, BuildingBlock: ESEHIV_clean_sbu_0, # of connection points: 4
#     Node 2, Type 0, BuildingBlock: ESEHIV_clean_sbu_0, # of connection points: 4
#     Node 3, Type 0, BuildingBlock: ESEHIV_clean_sbu_0, # of connection points: 4
#     Node 4, Type 0, BuildingBlock: ESEHIV_clean_sbu_0, # of connection points: 4
#     Node 5, Type 0, BuildingBlock: ESEHIV_clean_sbu_0, # of connection points: 4
#     Node 6, Type 0, BuildingBlock: ESEHIV_clean_sbu_0, # of connection points: 4
#     Node 7, Type 0, BuildingBlock: ESEHIV_clean_sbu_0, # of connection points: 4
#     Node 8, Type 0, BuildingBlock: ESEHIV_clean_sbu_0, # of connection points: 4
#     Node 9, Type 0, BuildingBlock: ESEHIV_clean_sbu_0, # of connection points: 4
#     Node 10, Type 0, BuildingBlock: ESEHIV_clean_sbu_0, # of connection points: 4
#     Node 11, Type 0, BuildingBlock: ESEHIV_clean_sbu_0, # of connection points: 4
#     Node 12, Type 0, BuildingBlock: ESEHIV_clean_sbu_0, # of connection points: 4
#     Node 13, Type 0, BuildingBlock: ESEHIV_clean_sbu_0, # of connection points: 4
#     Node 14, Type 0, BuildingBlock: ESEHIV_clean_sbu_0, # of connection points: 4
#     Node 15, Type 0, BuildingBlock: ESEHIV_clean_sbu_0, # of connection points: 4
#     Edge 16, Type (0, 0), None
#     Edge 17, Type (0, 0), None
#     Edge 18, Type (0, 0), None
#     Edge 19, Type (0, 0), None
#     Edge 20, Type (0, 0), None
#     Edge 21, Type (0, 0), None
#     Edge 22, Type (0, 0), None
#     Edge 23, Type (0, 0), None
#     Edge 24, Type (0, 0), None
#     Edge 25, Type (0, 0), None
#     Edge 26, Type (0, 0), None
#     Edge 27, Type (0, 0), None
#     Edge 28, Type (0, 0), None
#     Edge 29, Type (0, 0), None
#     Edge 30, Type (0, 0), None
#     Edge 31, Type (0, 0), None
#     Edge 32, Type (0, 0), None
#     Edge 33, Type (0, 0), None
#     Edge 34, Type (0, 0), None
#     Edge 35, Type (0, 0), None
#     Edge 36, Type (0, 0), None
#     Edge 37, Type (0, 0), None
#     Edge 38, Type (0, 0), None
#     Edge 39, Type (0, 0), None
#     Edge 40, Type (0, 0), None
#     Edge 41, Type (0, 0), None
#     Edge 42, Type (0, 0), None
#     Edge 43, Type (0, 0), None
#     Edge 44, Type (0, 0), None
#     Edge 45, Type (0, 0), None
#     Edge 46, Type (0, 0), None
#     Edge 47, Type (0, 0), None
# Relax obj value: 0.043
# Max RMSD: 0.194
# Mean RMSD: 0.144
data_MOF--net-ume--node1-ESEHIV_clean_sbu_0--edge1-none
_symmetry_space_group_name_H-M    P1
_symmetry_Int_Tables_number       1
_symmetry_cell_setting            triclinic
loop_
_symmetry_equiv_pos_as_xyz
'x, y, z'
_cell_length_a     13.245945
_cell_length_b     16.014134
_cell_length_c     58.146885
_cell_angle_alpha  89.986067
_cell_angle_beta   90.000656
_cell_angle_gamma 90.020479
loop_
_atom_site_label
_atom_site_type_symbol
_atom_site_fract_x
_atom_site_fract_y
_atom_site_fract_z
_atom_type_partial_charge
Cu0 Cu 0.25245 0.14301 0.32114 0.0
N1 N 0.28112 0.1705 0.35166 0.0
N2 N 0.26564 0.18604 0.38954 0.0
C3 C 0.21654 0.17268 0.36954 0.0
C4 C 0.36425 0.19253 0.38424 0.0
C5 C 0.37351 0.18307 0.36079 0.0
O6 O 0.12899 1.07754 0.32007 0.0
C7 C 0.4505 0.11217 0.30524 0.0
O8 O 0.45811 0.19392 0.30563 0.0
H9 H 0.13635 0.16111 0.36803 0.0
H10 H 0.44336 0.18258 0.35121 0.0
N11 N 0.23684 0.23964 0.30371 0.0
N12 N 0.2314 0.32616 0.27371 0.0
C13 C 0.23668 0.24579 0.28062 0.0
C14 C 0.22978 0.31833 0.31165 0.0
C15 C 0.22662 0.37204 0.29314 0.0
C16 C 0.04247 0.11211 0.32057 0.0
O17 O 0.0356 0.1938 0.32164 0.0
H18 H 0.2456 0.1928 0.26923 0.0
H19 H 0.23004 0.33543 0.32965 0.0
O20 O 0.36622 1.07791 0.30997 0.0
H21 H 0.42504 0.20163 0.39642 0.0
H22 H 0.22477 0.4396 0.29393 0.0
Cu23 Cu 0.81504 0.83763 0.59467 0.0
N24 N 0.92231 0.91355 0.59486 0.0
N25 N 0.99427 1.03968 0.59627 0.0
C26 C 0.91531 0.99234 0.60296 0.0
C27 C 0.0534 0.98926 0.58346 0.0
C28 C 0.00833 0.91146 0.58251 0.0
O29 O 0.74801 0.86348 0.56569 0.0
C30 C 0.72186 0.81708 0.63905 0.0
O31 O 0.7372 0.7367 0.63663 0.0
H32 H 0.85031 1.01569 0.6122 0.0
H33 H 0.03294 0.85899 0.57224 0.0
N34 N 0.85834 0.7255 0.59561 0.0
N35 N 0.95361 0.61062 0.59677 0.0
C36 C 0.95311 0.69506 0.59679 0.0
C37 C 0.79786 0.65764 0.59495 0.0
C38 C 0.85638 0.58662 0.59566 0.0
C39 C 0.74317 0.81372 0.54861 0.0
O40 O 0.76492 0.73449 0.55145 0.0
H41 H 0.01982 0.73381 0.59759 0.0
H42 H 0.71637 0.65988 0.59385 0.0
O43 O 0.73771 0.86616 0.62216 0.0
H44 H 0.12133 1.00801 0.57452 0.0
H45 H 0.82957 0.52284 0.59517 0.0
Cu46 Cu 0.23774 0.52668 0.82118 0.0
N47 N 0.20945 0.49894 0.85171 0.0
N48 N 0.22517 0.48372 0.8896 0.0
C49 C 0.27403 0.49768 0.8696 0.0
C50 C 0.12672 0.47589 0.8843 0.0
C51 C 0.1173 0.48515 0.86083 0.0
O52 O 0.36111 0.59224 0.82008 0.0
C53 C 0.03955 0.55767 0.80538 0.0
O54 O 0.03186 0.47592 0.80573 0.0
H55 H 0.35399 0.51031 0.86809 0.0
H56 H 0.04748 0.48464 0.85124 0.0
N57 N 0.2533 0.43016 0.80372 0.0
N58 N 0.25873 0.34375 0.7737 0.0
C59 C 0.25334 0.42409 0.78063 0.0
C60 C 0.26052 0.35145 0.81165 0.0
C61 C 0.26368 0.2978 0.79313 0.0
C62 C 0.44765 0.55774 0.8206 0.0
O63 O 0.45461 0.47606 0.82171 0.0
H64 H 0.24431 0.47711 0.76925 0.0
H65 H 0.26041 0.33428 0.82964 0.0
O66 O 0.12387 0.59184 0.8101 0.0
H67 H 0.0661 0.46599 0.89647 0.0
H68 H 0.26566 0.23025 0.79391 0.0
Cu69 Cu 0.67502 0.83243 0.09467 0.0
N70 N 0.56776 0.75649 0.09484 0.0
N71 N 0.49582 0.63035 0.09624 0.0
C72 C 0.57476 0.67768 0.10294 0.0
C73 C 0.43669 0.68079 0.08343 0.0
C74 C 0.48176 0.7586 0.08249 0.0
O75 O 0.74213 0.80667 0.06569 0.0
C76 C 0.76816 0.85293 0.13905 0.0
O77 O 0.75286 0.93331 0.13663 0.0
H78 H 0.63975 0.65432 0.11219 0.0
H79 H 0.45715 0.8111 0.07222 0.0
N80 N 0.6317 0.94455 0.09561 0.0
N81 N 0.53642 1.05942 0.09677 0.0
C82 C 0.53692 0.97498 0.09679 0.0
C83 C 0.69217 1.01242 0.09494 0.0
C84 C 0.63365 1.08343 0.09565 0.0
C85 C 0.74682 0.85642 0.04861 0.0
O86 O 0.72486 0.93562 0.05142 0.0
H87 H 0.47022 0.93623 0.09759 0.0
H88 H 0.77365 1.01018 0.09383 0.0
O89 O 0.75229 0.80386 0.12217 0.0
H90 H 0.36877 0.66206 0.07449 0.0
H91 H 0.66045 0.14721 0.09516 0.0
Cu92 Cu 0.25326 0.52798 0.98023 0.0
N93 N 0.28249 0.50088 0.9497 0.0
N94 N 0.26742 0.48467 0.91184 0.0
C95 C 0.21795 0.49712 0.93183 0.0
C96 C 0.3662 0.48034 0.91713 0.0
C97 C 0.37522 0.49023 0.94057 0.0
O98 O 0.12972 0.59331 0.98126 0.0
C99 C 0.45112 0.55863 0.99626 0.0
O100 O 0.4586 0.47688 0.99577 0.0
H101 H 0.13742 0.50691 0.93335 0.0
H102 H 0.44506 0.49233 0.95014 0.0
N103 N 0.23751 0.43116 0.99757 0.0
N104 N 0.232 0.34443 1.02753 0.0
C105 C 0.23715 0.42486 1.02065 0.0
C106 C 0.23071 0.35252 0.98959 0.0
C107 C 0.2275 0.29867 1.00807 0.0
C108 C 0.04321 0.55867 0.98081 0.0
O109 O 0.03635 0.47696 0.97981 0.0
H110 H 0.24589 0.47779 1.03208 0.0
H111 H 0.23122 0.33554 0.97158 0.0
O112 O 0.36691 0.59299 0.99154 0.0
H113 H 0.42723 0.4724 0.90495 0.0
H114 H 0.22586 0.23112 1.00724 0.0
Cu115 Cu 0.67474 0.83821 0.20671 0.0
N116 N 0.56748 0.91407 0.20648 0.0
N117 N 0.49553 1.04017 0.20506 0.0
C118 C 0.57454 0.99288 0.19839 0.0
C119 C 0.4363 0.98968 0.21784 0.0
C120 C 0.48136 0.9119 0.2188 0.0
O121 O 0.74162 0.86405 0.23571 0.0
C122 C 0.76818 0.81775 0.16236 0.0
O123 O 0.75289 0.73735 0.16477 0.0
H124 H 0.63961 1.01629 0.18917 0.0
H125 H 0.45667 0.85939 0.22905 0.0
N126 N 0.63145 0.72607 0.20575 0.0
N127 N 0.53619 0.61113 0.20454 0.0
C128 C 0.53669 0.69557 0.20452 0.0
C129 C 0.69192 0.65824 0.20644 0.0
C130 C 0.63341 0.58718 0.20571 0.0
C131 C 0.7462 0.81429 0.2528 0.0
O132 O 0.72427 0.73508 0.24996 0.0
H133 H 0.46999 0.73428 0.20369 0.0
H134 H 0.7734 0.66052 0.20759 0.0
O135 O 0.7522 0.86683 0.17923 0.0
H136 H 0.3683 1.00837 0.22675 0.0
H137 H 0.66022 0.52342 0.20621 0.0
Cu138 Cu 0.23695 0.1424 0.48018 0.0
N139 N 0.20808 0.16978 0.44965 0.0
N140 N 0.22339 0.18568 0.41178 0.0
C141 C 0.27264 0.17263 0.43178 0.0
C142 C 0.12472 0.19134 0.41708 0.0
C143 C 0.11556 0.18164 0.44053 0.0
O144 O 0.3604 1.07698 0.48124 0.0
C145 C 0.03896 0.11159 0.49613 0.0
O146 O 0.03142 0.19334 0.49569 0.0
H147 H 0.35297 0.16178 0.43329 0.0
H148 H 0.0457 0.18052 0.4501 0.0
N149 N 0.25266 0.2391 0.49757 0.0
N150 N 0.25817 0.3257 0.52754 0.0
C151 C 0.2529 0.24531 0.52065 0.0
C152 C 0.25966 0.31777 0.4896 0.0
C153 C 0.26287 0.37154 0.50809 0.0
C154 C 0.44695 0.11156 0.48078 0.0
O155 O 0.45388 0.19326 0.47975 0.0
H156 H 0.24402 0.19235 0.53206 0.0
H157 H 0.25931 0.33483 0.4716 0.0
O158 O 0.12321 1.07732 0.49141 0.0
H159 H 0.06384 0.20008 0.40491 0.0
H160 H 0.26467 0.43909 0.50727 0.0
Cu161 Cu 0.8153 0.83175 0.7067 0.0
N162 N 0.92258 0.75591 0.70646 0.0
N163 N 0.99454 0.62983 0.70503 0.0
C164 C 0.91552 0.67712 0.69836 0.0
C165 C 0.05377 0.68028 0.71781 0.0
C166 C 0.0087 0.75806 0.71877 0.0
O167 O 0.7485 0.80583 0.73571 0.0
C168 C 0.72183 0.85226 0.66236 0.0
O169 O 0.73714 0.93265 0.66476 0.0
H170 H 0.85045 0.65373 0.68915 0.0
H171 H 0.03339 0.81054 0.72904 0.0
N172 N 0.85858 0.94391 0.70574 0.0
N173 N 0.95383 1.05885 0.70454 0.0
C174 C 0.95334 0.97442 0.70453 0.0
C175 C 0.79811 1.01173 0.70642 0.0
C176 C 0.85661 1.08279 0.70569 0.0
C177 C 0.74376 0.8556 0.75278 0.0
O178 O 0.76545 0.93485 0.74993 0.0
H179 H 0.02005 0.93571 0.7037 0.0
H180 H 0.71662 1.00944 0.70755 0.0
O181 O 0.7378 0.80317 0.67923 0.0
H182 H 0.12178 0.66158 0.72672 0.0
H183 H 0.8298 0.14655 0.70618 0.0
Cu184 Cu 0.74964 0.63973 0.82115 0.0
N185 N 0.77946 0.6664 0.85167 0.0
N186 N 0.76566 0.68165 0.88958 0.0
C187 C 0.71567 0.66836 0.86969 0.0
C188 C 0.864 0.68832 0.88407 0.0
C189 C 0.87222 0.67905 0.8606 0.0
O190 O 0.62608 0.57443 0.82011 0.0
C191 C 0.9476 0.60889 0.80525 0.0
O192 O 0.95533 0.69064 0.80567 0.0
H193 H 0.63541 0.65687 0.86835 0.0
H194 H 0.94166 0.6789 0.85087 0.0
N195 N 0.73395 0.73706 0.80401 0.0
N196 N 0.72997 0.82527 0.77437 0.0
C197 C 0.73217 0.74441 0.78095 0.0
C198 C 0.73064 0.81546 0.81228 0.0
C199 C 0.72846 0.87018 0.794 0.0
C200 C 0.53956 0.60898 0.8206 0.0
O201 O 0.53265 0.69068 0.82164 0.0
H202 H 0.73897 0.69187 0.76932 0.0
H203 H 0.73358 0.83162 0.83033 0.0
O204 O 0.86312 0.57469 0.80981 0.0
H205 H 0.92529 0.69757 0.8961 0.0
H206 H 0.73017 0.93769 0.79508 0.0
Cu207 Cu 0.31027 0.33843 0.09594 0.0
N208 N 0.41468 0.41607 0.09931 0.0
N209 N 0.48349 0.54347 0.09973 0.0
C210 C 0.40862 0.49509 0.0914 0.0
C211 C 0.5392 0.49346 0.11343 0.0
C212 C 0.4959 0.41473 0.11327 0.0
O213 O 0.25254 0.36568 0.06603 0.0
C214 C 0.20811 0.31637 0.13911 0.0
O215 O 0.22864 0.23657 0.13739 0.0
H216 H 0.34743 0.51736 0.08073 0.0
H217 H 0.51855 0.36184 0.12363 0.0
N218 N 0.35514 0.22677 0.09678 0.0
N219 N 0.45108 0.1122 0.09712 0.0
C220 C 0.45025 0.19667 0.09708 0.0
C221 C 0.29498 0.15871 0.09645 0.0
C222 C 0.35385 0.08794 0.09673 0.0
C223 C 0.24377 0.31496 0.04927 0.0
O224 O 0.25738 0.23476 0.05265 0.0
H225 H 0.51688 0.23566 0.09698 0.0
H226 H 0.21339 0.16064 0.09578 0.0
O227 O 0.22249 0.36426 0.12191 0.0
H228 H 0.60338 0.513 0.1236 0.0
H229 H 0.3272 1.0241 0.09635 0.0
Cu230 Cu 0.74037 1.03032 0.32108 0.0
N231 N 0.71032 1.00386 0.35161 0.0
N232 N 0.72396 0.98855 0.38952 0.0
C233 C 0.77409 1.00137 0.36963 0.0
C234 C 0.62554 0.98272 0.38402 0.0
C235 C 0.61741 0.99204 0.36054 0.0
O236 O 0.86401 0.09554 0.32005 0.0
C237 C 0.5425 1.06102 0.30511 0.0
O238 O 0.53485 0.97927 0.30558 0.0
H239 H 0.8545 1.01219 0.36828 0.0
H240 H 0.54795 0.9928 0.35082 0.0
N241 N 0.75609 0.93291 0.30399 0.0
N242 N 0.76002 0.84463 0.27438 0.0
C243 C 0.75797 0.92551 0.28093 0.0
C244 C 0.75921 0.85453 0.31229 0.0
C245 C 0.76135 0.79976 0.29403 0.0
C246 C 0.9505 1.06093 0.32057 0.0
O247 O 0.95732 0.97923 0.32165 0.0
H248 H 0.75128 0.97803 0.26929 0.0
H249 H 0.75612 0.83841 0.33034 0.0
O250 O 0.62695 0.09529 0.30967 0.0
H251 H 0.56414 0.97405 0.39606 0.0
H252 H 0.75948 0.73226 0.29512 0.0
Cu253 Cu 0.17977 0.33161 0.59594 0.0
N254 N 0.07537 0.25396 0.59933 0.0
N255 N 0.00658 0.12656 0.59975 0.0
C256 C 0.08143 0.17496 0.59143 0.0
C257 C 0.95088 0.17654 0.61346 0.0
C258 C 0.99417 0.25528 0.61329 0.0
O259 O 0.23746 0.30435 0.56604 0.0
C260 C 0.28195 0.35365 0.63912 0.0
O261 O 0.26141 0.43345 0.63739 0.0
H262 H 0.14262 0.1527 0.58075 0.0
H263 H 0.97152 0.30815 0.62365 0.0
N264 N 0.13489 0.44327 0.59678 0.0
N265 N 0.03894 0.55783 0.59711 0.0
C266 C 0.03977 0.47337 0.59708 0.0
C267 C 0.19504 0.51133 0.59644 0.0
C268 C 0.13618 0.5821 0.59672 0.0
C269 C 0.24641 0.35511 0.54928 0.0
O270 O 0.23301 0.43533 0.55267 0.0
H271 H 0.97315 0.43438 0.59699 0.0
H272 H 0.27664 0.50941 0.59578 0.0
O273 O 0.26757 0.30577 0.62192 0.0
H274 H 0.88671 0.15698 0.62363 0.0
H275 H 0.16283 0.64593 0.59634 0.0
Cu276 Cu 0.74897 1.02978 0.48031 0.0
N277 N 0.77892 1.00335 0.44978 0.0
N278 N 0.76523 0.98845 0.41186 0.0
C279 C 0.71516 1.00135 0.43175 0.0
C280 C 0.86358 0.98201 0.41737 0.0
C281 C 0.87174 0.99109 0.44085 0.0
O282 O 0.62539 0.09501 0.48134 0.0
C283 C 0.9469 1.06045 0.49627 0.0
O284 O 0.95447 0.9787 0.49583 0.0
H285 H 0.63485 1.01256 0.4331 0.0
H286 H 0.94117 0.99138 0.45058 0.0
N287 N 0.73318 0.93237 0.4974 0.0
N288 N 0.72926 0.84408 0.52703 0.0
C289 C 0.73144 0.92496 0.52047 0.0
C290 C 0.72984 0.85399 0.48912 0.0
C291 C 0.7277 0.79922 0.50739 0.0
C292 C 0.53888 1.06039 0.48078 0.0
O293 O 0.53201 0.97871 0.47966 0.0
H294 H 0.73831 0.97747 0.5321 0.0
H295 H 0.73277 0.83788 0.47107 0.0
O296 O 0.86249 0.09472 0.4917 0.0
H297 H 0.92492 0.97305 0.40533 0.0
H298 H 0.72943 0.73171 0.5063 0.0
Cu299 Cu 0.17999 0.33801 0.70532 0.0
N300 N 0.07558 0.41558 0.70195 0.0
N301 N 0.00682 0.54295 0.70154 0.0
C302 C 0.0817 0.4946 0.70985 0.0
C303 C 0.95103 0.49294 0.68785 0.0
C304 C 0.99431 0.41422 0.68801 0.0
O305 O 0.23774 0.36526 0.73522 0.0
C306 C 0.28217 0.31608 0.66214 0.0
O307 O 0.26189 0.23622 0.66386 0.0
H308 H 0.14295 0.51688 0.72051 0.0
H309 H 0.97159 0.36133 0.67766 0.0
N310 N 0.13511 0.22632 0.70447 0.0
N311 N 0.03916 0.11169 0.70416 0.0
C312 C 0.03999 0.19616 0.7042 0.0
C313 C 0.19526 0.15829 0.70478 0.0
C314 C 0.1364 0.08748 0.70452 0.0
C315 C 0.24691 0.31443 0.75195 0.0
O316 O 0.23374 0.2342 0.74853 0.0
H317 H 0.97337 0.23511 0.70433 0.0
H318 H 0.27686 0.16025 0.70542 0.0
O319 O 0.26771 0.36395 0.67933 0.0
H320 H 0.88681 0.51247 0.67769 0.0
H321 H 0.16305 1.02366 0.70488 0.0
Cu322 Cu 0.74107 0.64024 0.98038 0.0
N323 N 0.71088 0.66649 0.94984 0.0
N324 N 0.7244 0.68146 0.91192 0.0
C325 C 0.77462 0.66901 0.93181 0.0
C326 C 0.62597 0.68707 0.91742 0.0
C327 C 0.61792 0.67795 0.94091 0.0
O328 O 0.86473 0.57509 0.9814 0.0
C329 C 0.54324 0.6097 0.9964 0.0
O330 O 0.53574 0.69146 0.99592 0.0
H331 H 0.85506 0.65845 0.93317 0.0
H332 H 0.54848 0.67705 0.95063 0.0
N333 N 0.7569 0.73773 0.99743 0.0
N334 N 0.76077 0.82606 1.02703 0.0
C335 C 0.75872 0.74517 1.02049 0.0
C336 C 0.76006 0.8161 0.98912 0.0
C337 C 0.76217 0.8709 1.00737 0.0
C338 C 0.95121 0.60977 0.98081 0.0
O339 O 0.95799 0.69146 0.97967 0.0
H340 H 0.75196 0.69268 1.03213 0.0
H341 H 0.75699 0.83218 0.97107 0.0
O342 O 0.62761 0.57537 0.99184 0.0
H343 H 0.56453 0.69548 0.90538 0.0
H344 H 0.76029 0.9384 1.00627 0.0
Cu345 Cu 0.31004 0.33198 0.20532 0.0
N346 N 0.41446 0.25441 0.20197 0.0
N347 N 0.48325 0.12704 0.20157 0.0
C348 C 0.40834 0.17538 0.20987 0.0
C349 C 0.53904 0.17708 0.18788 0.0
C350 C 0.49575 0.25579 0.18803 0.0
O351 O 0.25225 0.30473 0.23522 0.0
C352 C 0.20789 0.35392 0.16213 0.0
O353 O 0.22815 0.43378 0.16385 0.0
H354 H 0.34708 0.15307 0.22052 0.0
H355 H 0.51848 0.3087 0.17768 0.0
N356 N 0.35491 0.44367 0.20446 0.0
N357 N 0.45086 0.55829 0.20416 0.0
C358 C 0.45003 0.47383 0.2042 0.0
C359 C 0.29476 0.5117 0.20476 0.0
C360 C 0.35362 0.5825 0.2045 0.0
C361 C 0.24321 0.35552 0.25196 0.0
O362 O 0.25657 0.43574 0.24854 0.0
H363 H 0.51665 0.43488 0.20434 0.0
H364 H 0.21316 0.50973 0.2054 0.0
O365 O 0.22235 0.30604 0.17933 0.0
H366 H 0.60328 0.15757 0.17773 0.0
H367 H 0.32697 0.64632 0.20486 0.0
loop_
_geom_bond_atom_site_label_1
_geom_bond_atom_site_label_2
_geom_bond_distance
_geom_bond_site_symmetry_2
_ccdc_geom_bond_type
Cu0 N1 1.999 . S
Cu0 O6 1.974 . S
Cu0 N11 1.985 . S
Cu0 O20 1.959 . S
N1 Cu0 1.999 . S
N1 C3 1.263 . S
N1 C5 1.389 . S
N2 C3 1.358 . S
N2 C4 1.400 . S
C3 N1 1.263 . S
C3 N2 1.358 . S
C3 H9 0.930 . S
C4 N2 1.400 . S
C4 C5 1.351 . S
C4 H21 0.930 . S
C5 N1 1.389 . S
C5 C4 1.351 . S
C5 H10 0.930 . S
O6 Cu0 1.974 . S
O6 C16 1.282 . S
C7 O8 1.261 1_545 S
C7 O20 1.251 . S
O8 C7 1.261 1_565 S
H9 C3 0.930 . S
H10 C5 0.930 . S
N11 Cu0 1.985 . S
N11 C13 1.335 . S
N11 C14 1.390 . S
N12 C13 1.345 . S
N12 C15 1.336 . S
C13 N11 1.335 . S
C13 N12 1.345 . S
C13 H18 0.930 . S
C14 N11 1.390 . S
C14 C15 1.346 . S
C14 H19 0.930 . S
C15 N12 1.336 . S
C15 C14 1.346 . S
C15 H22 0.929 . S
C16 O6 1.282 . S
C16 O17 1.216 1_545 S
O17 C16 1.216 1_565 S
H18 C13 0.930 . S
H19 C14 0.930 . S
O20 Cu0 1.959 . S
O20 C7 1.251 . S
H21 C4 0.930 . S
H22 C15 0.929 . S
Cu23 N24 1.999 1_655 S
Cu23 O29 1.974 . S
Cu23 N34 1.985 . S
Cu23 O43 1.959 1_655 S
N24 Cu23 1.999 1_455 S
N24 C26 1.263 1_455 S
N24 C28 1.389 . S
N25 C26 1.359 . S
N25 C27 1.398 1_655 S
C26 N24 1.263 1_655 S
C26 N25 1.359 . S
C26 H32 0.930 . S
C27 N25 1.398 1_455 S
C27 C28 1.351 . S
C27 H44 0.930 . S
C28 N24 1.389 . S
C28 C27 1.351 . S
C28 H33 0.930 . S
O29 Cu23 1.974 . S
O29 C39 1.282 . S
C30 O31 1.261 . S
C30 O43 1.251 1_655 S
O31 C30 1.261 . S
H32 C26 0.930 . S
H33 C28 0.930 . S
N34 Cu23 1.985 . S
N34 C36 1.335 . S
N34 C37 1.390 . S
N35 C36 1.345 . S
N35 C38 1.336 . S
C36 N34 1.335 . S
C36 N35 1.345 . S
C36 H41 0.930 1_655 S
C37 N34 1.390 . S
C37 C38 1.346 . S
C37 H42 0.930 . S
C38 N35 1.336 . S
C38 C37 1.346 . S
C38 H45 0.929 . S
C39 O29 1.282 . S
C39 O40 1.216 . S
O40 C39 1.216 . S
H41 C36 0.930 1_455 S
H42 C37 0.930 . S
O43 Cu23 1.959 1_455 S
O43 C30 1.251 1_455 S
H44 C27 0.930 . S
H45 C38 0.929 . S
Cu46 N47 1.999 . S
Cu46 O52 1.974 . S
Cu46 N57 1.985 . S
Cu46 O66 1.959 . S
N47 Cu46 1.999 . S
N47 C49 1.263 . S
N47 C51 1.389 . S
N48 C49 1.358 . S
N48 C50 1.400 . S
C49 N47 1.263 . S
C49 N48 1.358 . S
C49 H55 0.930 . S
C50 N48 1.400 . S
C50 C51 1.351 . S
C50 H67 0.930 . S
C51 N47 1.389 . S
C51 C50 1.351 . S
C51 H56 0.930 . S
O52 Cu46 1.974 . S
O52 C62 1.282 . S
C53 O54 1.261 . S
C53 O66 1.251 . S
O54 C53 1.261 . S
H55 C49 0.930 . S
H56 C51 0.930 . S
N57 Cu46 1.985 . S
N57 C59 1.335 . S
N57 C60 1.390 . S
N58 C59 1.345 . S
N58 C61 1.336 . S
C59 N57 1.335 . S
C59 N58 1.345 . S
C59 H64 0.930 . S
C60 N57 1.390 . S
C60 C61 1.346 . S
C60 H65 0.930 . S
C61 N58 1.336 . S
C61 C60 1.346 . S
C61 H68 0.929 . S
C62 O52 1.282 . S
C62 O63 1.216 . S
O63 C62 1.216 . S
H64 C59 0.930 . S
H65 C60 0.930 . S
O66 Cu46 1.959 . S
O66 C53 1.251 . S
H67 C50 0.930 . S
H68 C61 0.929 . S
Cu69 N70 1.999 . S
Cu69 O75 1.974 . S
Cu69 N80 1.985 . S
Cu69 O89 1.959 . S
N70 Cu69 1.999 . S
N70 C72 1.263 . S
N70 C74 1.389 . S
N71 C72 1.358 . S
N71 C73 1.400 . S
C72 N70 1.263 . S
C72 N71 1.358 . S
C72 H78 0.930 . S
C73 N71 1.400 . S
C73 C74 1.351 . S
C73 H90 0.930 . S
C74 N70 1.389 . S
C74 C73 1.351 . S
C74 H79 0.930 . S
O75 Cu69 1.974 . S
O75 C85 1.282 . S
C76 O77 1.261 . S
C76 O89 1.251 . S
O77 C76 1.261 . S
H78 C72 0.930 . S
H79 C74 0.930 . S
N80 Cu69 1.985 . S
N80 C82 1.335 . S
N80 C83 1.390 . S
N81 C82 1.345 . S
N81 C84 1.336 . S
C82 N80 1.335 . S
C82 N81 1.345 . S
C82 H87 0.930 . S
C83 N80 1.390 . S
C83 C84 1.346 . S
C83 H88 0.930 . S
C84 N81 1.336 . S
C84 C83 1.346 . S
C84 H91 0.929 . S
C85 O75 1.282 . S
C85 O86 1.216 . S
O86 C85 1.216 . S
H87 C82 0.930 . S
H88 C83 0.930 . S
O89 Cu69 1.959 . S
O89 C76 1.251 . S
H90 C73 0.930 . S
H91 C84 0.929 . S
Cu92 N93 1.999 . S
Cu92 O98 1.974 . S
Cu92 N103 1.985 . S
Cu92 O112 1.959 . S
N93 Cu92 1.999 . S
N93 C95 1.263 . S
N93 C97 1.389 . S
N94 C95 1.358 . S
N94 C96 1.400 . S
C95 N93 1.263 . S
C95 N94 1.358 . S
C95 H101 0.930 . S
C96 N94 1.400 . S
C96 C97 1.351 . S
C96 H113 0.930 . S
C97 N93 1.389 . S
C97 C96 1.351 . S
C97 H102 0.930 . S
O98 Cu92 1.974 . S
O98 C108 1.282 . S
C99 O100 1.261 . S
C99 O112 1.251 . S
O100 C99 1.261 . S
H101 C95 0.930 . S
H102 C97 0.930 . S
N103 Cu92 1.985 . S
N103 C105 1.335 . S
N103 C106 1.390 . S
N104 C105 1.345 1_554 S
N104 C107 1.336 . S
C105 N103 1.335 . S
C105 N104 1.345 1_556 S
C105 H110 0.930 . S
C106 N103 1.390 . S
C106 C107 1.346 1_556 S
C106 H111 0.930 . S
C107 N104 1.336 . S
C107 C106 1.346 1_554 S
C107 H114 0.929 . S
C108 O98 1.282 . S
C108 O109 1.216 . S
O109 C108 1.216 . S
H110 C105 0.930 . S
H111 C106 0.930 . S
O112 Cu92 1.959 . S
O112 C99 1.251 . S
H113 C96 0.930 . S
H114 C107 0.929 . S
Cu115 N116 1.999 . S
Cu115 O121 1.974 . S
Cu115 N126 1.985 . S
Cu115 O135 1.959 . S
N116 Cu115 1.999 . S
N116 C118 1.263 . S
N116 C120 1.389 . S
N117 C118 1.358 . S
N117 C119 1.400 . S
C118 N116 1.263 . S
C118 N117 1.358 . S
C118 H124 0.930 . S
C119 N117 1.400 . S
C119 C120 1.351 . S
C119 H136 0.930 . S
C120 N116 1.389 . S
C120 C119 1.351 . S
C120 H125 0.930 . S
O121 Cu115 1.974 . S
O121 C131 1.282 . S
C122 O123 1.261 . S
C122 O135 1.251 . S
O123 C122 1.261 . S
H124 C118 0.930 . S
H125 C120 0.930 . S
N126 Cu115 1.985 . S
N126 C128 1.335 . S
N126 C129 1.390 . S
N127 C128 1.345 . S
N127 C130 1.336 . S
C128 N126 1.335 . S
C128 N127 1.345 . S
C128 H133 0.930 . S
C129 N126 1.390 . S
C129 C130 1.346 . S
C129 H134 0.930 . S
C130 N127 1.336 . S
C130 C129 1.346 . S
C130 H137 0.929 . S
C131 O121 1.282 . S
C131 O132 1.216 . S
O132 C131 1.216 . S
H133 C128 0.930 . S
H134 C129 0.930 . S
O135 Cu115 1.959 . S
O135 C122 1.251 . S
H136 C119 0.930 . S
H137 C130 0.929 . S
Cu138 N139 1.999 . S
Cu138 O144 1.974 . S
Cu138 N149 1.985 . S
Cu138 O158 1.959 . S
N139 Cu138 1.999 . S
N139 C141 1.263 . S
N139 C143 1.389 . S
N140 C141 1.358 . S
N140 C142 1.400 . S
C141 N139 1.263 . S
C141 N140 1.358 . S
C141 H147 0.930 . S
C142 N140 1.400 . S
C142 C143 1.351 . S
C142 H159 0.930 . S
C143 N139 1.389 . S
C143 C142 1.351 . S
C143 H148 0.930 . S
O144 Cu138 1.974 . S
O144 C154 1.282 . S
C145 O146 1.261 1_545 S
C145 O158 1.251 . S
O146 C145 1.261 1_565 S
H147 C141 0.930 . S
H148 C143 0.930 . S
N149 Cu138 1.985 . S
N149 C151 1.335 . S
N149 C152 1.390 . S
N150 C151 1.345 . S
N150 C153 1.336 . S
C151 N149 1.335 . S
C151 N150 1.345 . S
C151 H156 0.930 . S
C152 N149 1.390 . S
C152 C153 1.346 . S
C152 H157 0.930 . S
C153 N150 1.336 . S
C153 C152 1.346 . S
C153 H160 0.929 . S
C154 O144 1.282 . S
C154 O155 1.216 1_545 S
O155 C154 1.216 1_565 S
H156 C151 0.930 . S
H157 C152 0.930 . S
O158 Cu138 1.959 . S
O158 C145 1.251 . S
H159 C142 0.930 . S
H160 C153 0.929 . S
Cu161 N162 1.999 1_655 S
Cu161 O167 1.974 . S
Cu161 N172 1.985 . S
Cu161 O181 1.959 1_655 S
N162 Cu161 1.999 1_455 S
N162 C164 1.263 1_455 S
N162 C166 1.389 . S
N163 C164 1.359 . S
N163 C165 1.399 1_655 S
C164 N162 1.263 1_655 S
C164 N163 1.359 . S
C164 H170 0.930 . S
C165 N163 1.399 1_455 S
C165 C166 1.351 . S
C165 H182 0.930 . S
C166 N162 1.389 . S
C166 C165 1.351 . S
C166 H171 0.930 . S
O167 Cu161 1.974 . S
O167 C177 1.282 . S
C168 O169 1.261 . S
C168 O181 1.251 1_655 S
O169 C168 1.261 . S
H170 C164 0.930 . S
H171 C166 0.930 . S
N172 Cu161 1.985 . S
N172 C174 1.335 . S
N172 C175 1.390 . S
N173 C174 1.345 . S
N173 C176 1.336 . S
C174 N172 1.335 . S
C174 N173 1.345 . S
C174 H179 0.930 1_655 S
C175 N172 1.390 . S
C175 C176 1.346 . S
C175 H180 0.930 . S
C176 N173 1.336 . S
C176 C175 1.346 . S
C176 H183 0.929 . S
C177 O167 1.282 . S
C177 O178 1.216 . S
O178 C177 1.216 . S
H179 C174 0.930 1_455 S
H180 C175 0.930 . S
O181 Cu161 1.959 1_455 S
O181 C168 1.251 1_455 S
H182 C165 0.930 . S
H183 C176 0.929 . S
Cu184 N185 1.999 . S
Cu184 O190 1.974 . S
Cu184 N195 1.985 . S
Cu184 O204 1.959 . S
N185 Cu184 1.999 . S
N185 C187 1.263 . S
N185 C189 1.389 . S
N186 C187 1.358 . S
N186 C188 1.400 . S
C187 N185 1.263 . S
C187 N186 1.358 . S
C187 H193 0.930 . S
C188 N186 1.400 . S
C188 C189 1.351 . S
C188 H205 0.930 . S
C189 N185 1.389 . S
C189 C188 1.351 . S
C189 H194 0.930 . S
O190 Cu184 1.974 . S
O190 C200 1.282 . S
C191 O192 1.261 . S
C191 O204 1.251 . S
O192 C191 1.261 . S
H193 C187 0.930 . S
H194 C189 0.930 . S
N195 Cu184 1.985 . S
N195 C197 1.335 . S
N195 C198 1.390 . S
N196 C197 1.345 . S
N196 C199 1.336 . S
C197 N195 1.335 . S
C197 N196 1.345 . S
C197 H202 0.930 . S
C198 N195 1.390 . S
C198 C199 1.346 . S
C198 H203 0.930 . S
C199 N196 1.336 . S
C199 C198 1.346 . S
C199 H206 0.929 . S
C200 O190 1.282 . S
C200 O201 1.216 . S
O201 C200 1.216 . S
H202 C197 0.930 . S
H203 C198 0.930 . S
O204 Cu184 1.959 . S
O204 C191 1.251 . S
H205 C188 0.930 . S
H206 C199 0.929 . S
Cu207 N208 1.999 . S
Cu207 O213 1.974 . S
Cu207 N218 1.985 . S
Cu207 O227 1.959 . S
N208 Cu207 1.999 . S
N208 C210 1.263 . S
N208 C212 1.389 . S
N209 C210 1.358 . S
N209 C211 1.400 . S
C210 N208 1.263 . S
C210 N209 1.358 . S
C210 H216 0.930 . S
C211 N209 1.400 . S
C211 C212 1.351 . S
C211 H228 0.930 . S
C212 N208 1.389 . S
C212 C211 1.351 . S
C212 H217 0.930 . S
O213 Cu207 1.974 . S
O213 C223 1.282 . S
C214 O215 1.261 . S
C214 O227 1.251 . S
O215 C214 1.261 . S
H216 C210 0.930 . S
H217 C212 0.930 . S
N218 Cu207 1.985 . S
N218 C220 1.335 . S
N218 C221 1.390 . S
N219 C220 1.345 . S
N219 C222 1.336 . S
C220 N218 1.335 . S
C220 N219 1.345 . S
C220 H225 0.930 . S
C221 N218 1.390 . S
C221 C222 1.346 . S
C221 H226 0.930 . S
C222 N219 1.336 . S
C222 C221 1.346 . S
C222 H229 0.929 . S
C223 O213 1.282 . S
C223 O224 1.216 . S
O224 C223 1.216 . S
H225 C220 0.930 . S
H226 C221 0.930 . S
O227 Cu207 1.959 . S
O227 C214 1.251 . S
H228 C211 0.930 . S
H229 C222 0.929 . S
Cu230 N231 1.999 . S
Cu230 O236 1.974 . S
Cu230 N241 1.985 . S
Cu230 O250 1.959 . S
N231 Cu230 1.999 . S
N231 C233 1.263 . S
N231 C235 1.389 . S
N232 C233 1.358 . S
N232 C234 1.400 . S
C233 N231 1.263 . S
C233 N232 1.358 . S
C233 H239 0.930 . S
C234 N232 1.400 . S
C234 C235 1.351 . S
C234 H251 0.930 . S
C235 N231 1.389 . S
C235 C234 1.351 . S
C235 H240 0.930 . S
O236 Cu230 1.974 . S
O236 C246 1.282 . S
C237 O238 1.261 1_565 S
C237 O250 1.251 . S
O238 C237 1.261 1_545 S
H239 C233 0.930 . S
H240 C235 0.930 . S
N241 Cu230 1.985 . S
N241 C243 1.335 . S
N241 C244 1.390 . S
N242 C243 1.345 . S
N242 C245 1.336 . S
C243 N241 1.335 . S
C243 N242 1.345 . S
C243 H248 0.930 . S
C244 N241 1.390 . S
C244 C245 1.346 . S
C244 H249 0.930 . S
C245 N242 1.336 . S
C245 C244 1.346 . S
C245 H252 0.929 . S
C246 O236 1.282 . S
C246 O247 1.216 1_565 S
O247 C246 1.216 1_545 S
H248 C243 0.930 . S
H249 C244 0.930 . S
O250 Cu230 1.959 . S
O250 C237 1.251 . S
H251 C234 0.930 . S
H252 C245 0.929 . S
Cu253 N254 1.999 1_455 S
Cu253 O259 1.974 . S
Cu253 N264 1.985 . S
Cu253 O273 1.959 1_455 S
N254 Cu253 1.999 1_655 S
N254 C256 1.263 1_655 S
N254 C258 1.389 . S
N255 C256 1.359 . S
N255 C257 1.398 1_455 S
C256 N254 1.263 1_455 S
C256 N255 1.359 . S
C256 H262 0.930 . S
C257 N255 1.398 1_655 S
C257 C258 1.351 . S
C257 H274 0.930 . S
C258 N254 1.389 . S
C258 C257 1.351 . S
C258 H263 0.930 . S
O259 Cu253 1.974 . S
O259 C269 1.282 . S
C260 O261 1.261 . S
C260 O273 1.251 1_455 S
O261 C260 1.261 . S
H262 C256 0.930 . S
H263 C258 0.930 . S
N264 Cu253 1.985 . S
N264 C266 1.335 . S
N264 C267 1.390 . S
N265 C266 1.345 . S
N265 C268 1.336 . S
C266 N264 1.335 . S
C266 N265 1.345 . S
C266 H271 0.930 1_455 S
C267 N264 1.390 . S
C267 C268 1.346 . S
C267 H272 0.930 . S
C268 N265 1.336 . S
C268 C267 1.346 . S
C268 H275 0.929 . S
C269 O259 1.282 . S
C269 O270 1.216 . S
O270 C269 1.216 . S
H271 C266 0.930 1_655 S
H272 C267 0.930 . S
O273 Cu253 1.959 1_655 S
O273 C260 1.251 1_655 S
H274 C257 0.930 . S
H275 C268 0.929 . S
Cu276 N277 1.999 . S
Cu276 O282 1.974 . S
Cu276 N287 1.985 . S
Cu276 O296 1.959 . S
N277 Cu276 1.999 . S
N277 C279 1.263 . S
N277 C281 1.389 . S
N278 C279 1.358 . S
N278 C280 1.400 . S
C279 N277 1.263 . S
C279 N278 1.358 . S
C279 H285 0.930 . S
C280 N278 1.400 . S
C280 C281 1.351 . S
C280 H297 0.930 . S
C281 N277 1.389 . S
C281 C280 1.351 . S
C281 H286 0.930 . S
O282 Cu276 1.974 . S
O282 C292 1.282 . S
C283 O284 1.261 1_565 S
C283 O296 1.251 . S
O284 C283 1.261 1_545 S
H285 C279 0.930 . S
H286 C281 0.930 . S
N287 Cu276 1.985 . S
N287 C289 1.335 . S
N287 C290 1.390 . S
N288 C289 1.345 . S
N288 C291 1.336 . S
C289 N287 1.335 . S
C289 N288 1.345 . S
C289 H294 0.930 . S
C290 N287 1.390 . S
C290 C291 1.346 . S
C290 H295 0.930 . S
C291 N288 1.336 . S
C291 C290 1.346 . S
C291 H298 0.929 . S
C292 O282 1.282 . S
C292 O293 1.216 1_565 S
O293 C292 1.216 1_545 S
H294 C289 0.930 . S
H295 C290 0.930 . S
O296 Cu276 1.959 . S
O296 C283 1.251 . S
H297 C280 0.930 . S
H298 C291 0.929 . S
Cu299 N300 1.999 1_455 S
Cu299 O305 1.974 . S
Cu299 N310 1.985 . S
Cu299 O319 1.959 1_455 S
N300 Cu299 1.999 1_655 S
N300 C302 1.263 1_655 S
N300 C304 1.389 . S
N301 C302 1.358 . S
N301 C303 1.400 1_455 S
C302 N300 1.263 1_455 S
C302 N301 1.358 . S
C302 H308 0.930 . S
C303 N301 1.400 1_655 S
C303 C304 1.351 . S
C303 H320 0.930 . S
C304 N300 1.389 . S
C304 C303 1.351 . S
C304 H309 0.930 . S
O305 Cu299 1.974 . S
O305 C315 1.282 . S
C306 O307 1.261 . S
C306 O319 1.251 1_455 S
O307 C306 1.261 . S
H308 C302 0.930 . S
H309 C304 0.930 . S
N310 Cu299 1.985 . S
N310 C312 1.335 . S
N310 C313 1.390 . S
N311 C312 1.345 . S
N311 C314 1.336 . S
C312 N310 1.335 . S
C312 N311 1.345 . S
C312 H317 0.930 1_455 S
C313 N310 1.390 . S
C313 C314 1.346 . S
C313 H318 0.930 . S
C314 N311 1.336 . S
C314 C313 1.346 . S
C314 H321 0.929 . S
C315 O305 1.282 . S
C315 O316 1.216 . S
O316 C315 1.216 . S
H317 C312 0.930 1_655 S
H318 C313 0.930 . S
O319 Cu299 1.959 1_655 S
O319 C306 1.251 1_655 S
H320 C303 0.930 . S
H321 C314 0.929 . S
Cu322 N323 1.999 . S
Cu322 O328 1.974 . S
Cu322 N333 1.985 . S
Cu322 O342 1.959 . S
N323 Cu322 1.999 . S
N323 C325 1.263 . S
N323 C327 1.389 . S
N324 C325 1.358 . S
N324 C326 1.400 . S
C325 N323 1.263 . S
C325 N324 1.358 . S
C325 H331 0.930 . S
C326 N324 1.400 . S
C326 C327 1.351 . S
C326 H343 0.930 . S
C327 N323 1.389 . S
C327 C326 1.351 . S
C327 H332 0.930 . S
O328 Cu322 1.974 . S
O328 C338 1.282 . S
C329 O330 1.261 . S
C329 O342 1.251 . S
O330 C329 1.261 . S
H331 C325 0.930 . S
H332 C327 0.930 . S
N333 Cu322 1.985 . S
N333 C335 1.335 . S
N333 C336 1.390 . S
N334 C335 1.345 1_554 S
N334 C337 1.336 . S
C335 N333 1.335 . S
C335 N334 1.345 1_556 S
C335 H340 0.930 . S
C336 N333 1.390 . S
C336 C337 1.346 1_556 S
C336 H341 0.930 . S
C337 N334 1.336 . S
C337 C336 1.346 1_554 S
C337 H344 0.929 . S
C338 O328 1.282 . S
C338 O339 1.216 . S
O339 C338 1.216 . S
H340 C335 0.930 . S
H341 C336 0.930 . S
O342 Cu322 1.959 . S
O342 C329 1.251 . S
H343 C326 0.930 . S
H344 C337 0.929 . S
Cu345 N346 1.999 . S
Cu345 O351 1.974 . S
Cu345 N356 1.985 . S
Cu345 O365 1.959 . S
N346 Cu345 1.999 . S
N346 C348 1.263 . S
N346 C350 1.389 . S
N347 C348 1.358 . S
N347 C349 1.400 . S
C348 N346 1.263 . S
C348 N347 1.358 . S
C348 H354 0.930 . S
C349 N347 1.400 . S
C349 C350 1.351 . S
C349 H366 0.930 . S
C350 N346 1.389 . S
C350 C349 1.351 . S
C350 H355 0.930 . S
O351 Cu345 1.974 . S
O351 C361 1.282 . S
C352 O353 1.261 . S
C352 O365 1.251 . S
O353 C352 1.261 . S
H354 C348 0.930 . S
H355 C350 0.930 . S
N356 Cu345 1.985 . S
N356 C358 1.335 . S
N356 C359 1.390 . S
N357 C358 1.345 . S
N357 C360 1.336 . S
C358 N356 1.335 . S
C358 N357 1.345 . S
C358 H363 0.930 . S
C359 N356 1.390 . S
C359 C360 1.346 . S
C359 H364 0.930 . S
C360 N357 1.336 . S
C360 C359 1.346 . S
C360 H367 0.929 . S
C361 O351 1.282 . S
C361 O362 1.216 . S
O362 C361 1.216 . S
H363 C358 0.930 . S
H364 C359 0.930 . S
O365 Cu345 1.959 . S
O365 C352 1.251 . S
H366 C349 0.930 . S
H367 C360 0.929 . S
C246 C16 2.314 1_665 S
N35 N265 1.972 1_655 S
C200 C62 2.315 . S
N219 N81 1.974 1_545 S
C108 C338 2.316 1_455 S
N357 N127 1.972 . S
C154 C292 2.316 1_545 S
N311 N173 1.970 1_445 S
C237 C7 1.836 1_565 S
N25 N255 0.733 1_665 S
C53 C191 1.835 1_455 S
N71 N209 0.733 . S
C99 C329 1.836 . S
N117 N347 0.734 1_565 S
C283 C145 1.836 1_665 S
N301 N163 0.733 1_455 S
N2 N140 1.565 . S
C30 C168 1.771 . S
N48 N94 1.565 . S
C76 C122 1.771 . S
N186 N324 1.565 . S
C352 C214 1.771 . S
N232 N278 1.565 . S
C306 C260 1.771 . S
N12 C361 1.954 . S
N288 C39 1.955 . S
C315 N58 1.955 . S
N334 C85 1.955 . S
C223 N104 1.955 . S
N242 C131 1.955 . S
N150 C269 1.955 . S
C177 N196 1.955 . S
