# Generated by pormake.
# Topology ske, (6)-cn, num edge types: 1
# Building blocks:
#     Node 0, Type 0, BuildingBlock: BETDEL_clean_sbu_0, # of connection points: 6
#     Node 1, Type 0, BuildingBlock: BETDEL_clean_sbu_0, # of connection points: 6
#     Node 2, Type 0, BuildingBlock: BETDEL_clean_sbu_0, # of connection points: 6
#     Node 3, Type 0, BuildingBlock: BETDEL_clean_sbu_0, # of connection points: 6
#     Node 4, Type 0, BuildingBlock: BETDEL_clean_sbu_0, # of connection points: 6
#     Node 5, Type 0, BuildingBlock: BETDEL_clean_sbu_0, # of connection points: 6
#     Node 6, Type 0, BuildingBlock: BETDEL_clean_sbu_0, # of connection points: 6
#     Node 7, Type 0, BuildingBlock: BETDEL_clean_sbu_0, # of connection points: 6
#     Edge 8, Type (0, 0), BuildingBlock: MIFKUJ_clean_linker_0, # of connection points: 2
#     Edge 9, Type (0, 0), BuildingBlock: MIFKUJ_clean_linker_0, # of connection points: 2
#     Edge 10, Type (0, 0), BuildingBlock: MIFKUJ_clean_linker_0, # of connection points: 2
#     Edge 11, Type (0, 0), BuildingBlock: MIFKUJ_clean_linker_0, # of connection points: 2
#     Edge 12, Type (0, 0), BuildingBlock: MIFKUJ_clean_linker_0, # of connection points: 2
#     Edge 13, Type (0, 0), BuildingBlock: MIFKUJ_clean_linker_0, # of connection points: 2
#     Edge 14, Type (0, 0), BuildingBlock: MIFKUJ_clean_linker_0, # of connection points: 2
#     Edge 15, Type (0, 0), BuildingBlock: MIFKUJ_clean_linker_0, # of connection points: 2
#     Edge 16, Type (0, 0), BuildingBlock: MIFKUJ_clean_linker_0, # of connection points: 2
#     Edge 17, Type (0, 0), BuildingBlock: MIFKUJ_clean_linker_0, # of connection points: 2
#     Edge 18, Type (0, 0), BuildingBlock: MIFKUJ_clean_linker_0, # of connection points: 2
#     Edge 19, Type (0, 0), BuildingBlock: MIFKUJ_clean_linker_0, # of connection points: 2
#     Edge 20, Type (0, 0), BuildingBlock: MIFKUJ_clean_linker_0, # of connection points: 2
#     Edge 21, Type (0, 0), BuildingBlock: MIFKUJ_clean_linker_0, # of connection points: 2
#     Edge 22, Type (0, 0), BuildingBlock: MIFKUJ_clean_linker_0, # of connection points: 2
#     Edge 23, Type (0, 0), BuildingBlock: MIFKUJ_clean_linker_0, # of connection points: 2
#     Edge 24, Type (0, 0), BuildingBlock: MIFKUJ_clean_linker_0, # of connection points: 2
#     Edge 25, Type (0, 0), BuildingBlock: MIFKUJ_clean_linker_0, # of connection points: 2
#     Edge 26, Type (0, 0), BuildingBlock: MIFKUJ_clean_linker_0, # of connection points: 2
#     Edge 27, Type (0, 0), BuildingBlock: MIFKUJ_clean_linker_0, # of connection points: 2
#     Edge 28, Type (0, 0), BuildingBlock: MIFKUJ_clean_linker_0, # of connection points: 2
#     Edge 29, Type (0, 0), BuildingBlock: MIFKUJ_clean_linker_0, # of connection points: 2
#     Edge 30, Type (0, 0), BuildingBlock: MIFKUJ_clean_linker_0, # of connection points: 2
#     Edge 31, Type (0, 0), BuildingBlock: MIFKUJ_clean_linker_0, # of connection points: 2
# Relax obj value: 0.143
# Max RMSD: 0.160
# Mean RMSD: 0.158
data_MOF--net-ske--node1-BETDEL_clean_sbu_0--edge1-MIFKUJ_clean_linker_0
_symmetry_space_group_name_H-M    P1
_symmetry_Int_Tables_number       1
_symmetry_cell_setting            triclinic
loop_
_symmetry_equiv_pos_as_xyz
'x, y, z'
_cell_length_a     88.646113
_cell_length_b     37.963129
_cell_length_c     19.993934
_cell_angle_alpha  89.944288
_cell_angle_beta   90.001095
_cell_angle_gamma 85.505603
loop_
_atom_site_label
_atom_site_type_symbol
_atom_site_fract_x
_atom_site_fract_y
_atom_site_fract_z
_atom_type_partial_charge
Dy0 Dy 0.15347 0.25952 0.55987 0.0
C1 C 0.08923 0.2554 0.54981 0.0
C2 C 0.18337 0.26904 0.58709 0.0
Dy3 Dy 0.12 0.26029 0.56064 0.0
O4 O 0.17847 0.2429 0.55397 0.0
O5 O 0.17193 0.29086 0.60325 0.0
O6 O 0.15592 0.20563 0.51652 0.0
O7 O 0.13776 0.21823 0.58222 0.0
C8 C 0.14373 0.19493 0.54276 0.0
C9 C 0.13047 0.32532 0.57132 0.0
O10 O 0.12407 0.24512 0.66727 0.0
O11 O 0.14799 0.26478 0.66913 0.0
O12 O 0.09581 0.28108 0.57681 0.0
O13 O 0.09951 0.23179 0.52823 0.0
O14 O 0.11895 0.31492 0.60335 0.0
O15 O 0.13577 0.30064 0.53383 0.0
O16 O 0.14936 0.27259 0.45195 0.0
O17 O 0.1251 0.25391 0.45114 0.0
C18 C 0.136 0.25442 0.7006 0.0
C19 C 0.13729 0.2632 0.41917 0.0
Dy20 Dy 0.86208 0.255 0.5709 0.0
C21 C 0.92616 0.2594 0.54293 0.0
C22 C 0.83227 0.25206 0.60758 0.0
Dy23 Dy 0.89575 0.25338 0.56367 0.0
O24 O 0.84063 0.27783 0.6192 0.0
O25 O 0.84014 0.22746 0.57434 0.0
O26 O 0.85965 0.30793 0.5229 0.0
O27 O 0.8783 0.29588 0.58618 0.0
C28 C 0.87209 0.31878 0.54647 0.0
C29 C 0.88539 0.18884 0.58151 0.0
O30 O 0.89307 0.26193 0.67365 0.0
O31 O 0.86923 0.24174 0.67611 0.0
O32 O 0.9185 0.23405 0.52119 0.0
O33 O 0.91712 0.28206 0.57516 0.0
O34 O 0.89754 0.19922 0.60879 0.0
O35 O 0.87953 0.2132 0.54439 0.0
O36 O 0.86454 0.24584 0.46085 0.0
O37 O 0.88874 0.26503 0.45727 0.0
C38 C 0.88142 0.25123 0.7072 0.0
C39 C 0.87632 0.25591 0.42679 0.0
Dy40 Dy 0.11951 0.7598 0.42625 0.0
C41 C 0.18257 0.77176 0.39781 0.0
C42 C 0.08881 0.75374 0.43669 0.0
Dy43 Dy 0.15295 0.76019 0.42683 0.0
O44 O 0.09524 0.7787 0.40645 0.0
O45 O 0.09921 0.73145 0.46168 0.0
O46 O 0.11784 0.8149 0.38567 0.0
O47 O 0.13507 0.8007 0.4535 0.0
C48 C 0.12943 0.82545 0.41686 0.0
C49 C 0.14368 0.69493 0.44214 0.0
O50 O 0.14861 0.77324 0.53461 0.0
O51 O 0.12471 0.75264 0.53545 0.0
O52 O 0.17823 0.7487 0.4402 0.0
O53 O 0.17071 0.78948 0.37342 0.0
O54 O 0.15603 0.70551 0.46691 0.0
O55 O 0.13752 0.71845 0.40367 0.0
O56 O 0.12374 0.74493 0.31956 0.0
O57 O 0.14733 0.76623 0.3179 0.0
C58 C 0.13676 0.76262 0.56743 0.0
C59 C 0.13549 0.75528 0.28628 0.0
Dy60 Dy 0.89518 0.75249 0.43437 0.0
C61 C 0.83138 0.7544 0.39456 0.0
C62 C 0.92569 0.75771 0.45347 0.0
Dy63 Dy 0.86134 0.7559 0.42998 0.0
O64 O 0.91803 0.7322 0.4746 0.0
O65 O 0.91661 0.78091 0.4227 0.0
O66 O 0.89648 0.69895 0.38739 0.0
O67 O 0.87861 0.71295 0.45266 0.0
C68 C 0.88427 0.68878 0.41459 0.0
C69 C 0.87217 0.81846 0.45755 0.0
O70 O 0.86411 0.74502 0.5392 0.0
O71 O 0.88875 0.7617 0.542 0.0
O72 O 0.83986 0.78009 0.38389 0.0
O73 O 0.83921 0.72914 0.42636 0.0
O74 O 0.85963 0.80806 0.48105 0.0
O75 O 0.8779 0.79599 0.41589 0.0
O76 O 0.89217 0.76204 0.32489 0.0
O77 O 0.86785 0.74453 0.3236 0.0
C78 C 0.87629 0.75307 0.57278 0.0
C79 C 0.8801 0.75326 0.292 0.0
Dy80 Dy 0.65296 0.75327 0.06153 0.0
C81 C 0.58831 0.75726 0.04461 0.0
C82 C 0.68317 0.75297 0.09366 0.0
Dy83 Dy 0.61908 0.75939 0.06115 0.0
O84 O 0.67474 0.72687 0.1012 0.0
O85 O 0.67516 0.7795 0.06658 0.0
O86 O 0.65318 0.70289 0.00474 0.0
O87 O 0.63591 0.71446 0.07593 0.0
C88 C 0.64088 0.6928 0.03126 0.0
C89 C 0.63141 0.82139 0.08243 0.0
O90 O 0.62242 0.74704 0.16919 0.0
O91 O 0.64706 0.76259 0.16951 0.0
O92 O 0.5959 0.78472 0.03606 0.0
O93 O 0.59758 0.73049 0.06151 0.0
O94 O 0.61938 0.81186 0.11227 0.0
O95 O 0.63613 0.79744 0.04203 0.0
O96 O 0.64983 0.76639 0.95351 0.0
O97 O 0.62471 0.75295 0.95183 0.0
C98 C 0.63478 0.75434 0.20157 0.0
C99 C 0.6373 0.76036 0.92052 0.0
Dy100 Dy 0.36081 0.75923 0.06525 0.0
C101 C 0.42507 0.76309 0.04778 0.0
C102 C 0.33122 0.74802 0.09533 0.0
Dy103 Dy 0.39441 0.75856 0.0644 0.0
O104 O 0.33553 0.77093 0.05255 0.0
O105 O 0.34309 0.73027 0.11961 0.0
O106 O 0.35785 0.81316 0.02231 0.0
O107 O 0.37654 0.80075 0.08504 0.0
C108 C 0.37029 0.82392 0.04591 0.0
C109 C 0.38387 0.69398 0.07995 0.0
O110 O 0.3913 0.76954 0.17311 0.0
O111 O 0.36635 0.75599 0.17461 0.0
O112 O 0.41808 0.73442 0.04638 0.0
O113 O 0.41524 0.78987 0.05747 0.0
O114 O 0.39537 0.70493 0.11165 0.0
O115 O 0.37854 0.71804 0.04094 0.0
O116 O 0.36505 0.74482 0.95814 0.0
O117 O 0.3886 0.76708 0.95622 0.0
C118 C 0.37887 0.76321 0.20596 0.0
C119 C 0.37674 0.7558 0.92478 0.0
Dy120 Dy 0.6186 0.26041 0.92842 0.0
C121 C 0.68279 0.25126 0.89762 0.0
C122 C 0.58779 0.25909 0.94443 0.0
Dy123 Dy 0.6525 0.25222 0.92856 0.0
O124 O 0.59544 0.28659 0.9512 0.0
O125 O 0.59702 0.23192 0.92949 0.0
O126 O 0.61966 0.31322 0.87902 0.0
O127 O 0.63609 0.29702 0.9498 0.0
C128 C 0.6317 0.32167 0.91018 0.0
C129 C 0.63955 0.19236 0.95611 0.0
O130 O 0.64941 0.26419 0.03701 0.0
O131 O 0.62402 0.25291 0.03768 0.0
O132 O 0.67438 0.22505 0.89154 0.0
O133 O 0.67473 0.27824 0.92264 0.0
O134 O 0.65216 0.20085 0.9822 0.0
O135 O 0.63501 0.2149 0.91221 0.0
O136 O 0.62183 0.24848 0.8204 0.0
O137 O 0.64674 0.26215 0.82046 0.0
C138 C 0.63671 0.25896 0.06946 0.0
C139 C 0.63432 0.25497 0.78824 0.0
Dy140 Dy 0.39397 0.25808 0.93432 0.0
C141 C 0.33042 0.25218 0.90212 0.0
C142 C 0.42462 0.26253 0.95088 0.0
Dy143 Dy 0.36024 0.26053 0.93256 0.0
O144 O 0.41774 0.23372 0.94902 0.0
O145 O 0.4147 0.28942 0.94448 0.0
O146 O 0.39471 0.20466 0.8871 0.0
O147 O 0.37765 0.2184 0.95666 0.0
C148 C 0.38298 0.19424 0.91784 0.0
C149 C 0.37067 0.32414 0.95338 0.0
O150 O 0.36384 0.24672 0.04033 0.0
O151 O 0.38814 0.26524 0.04305 0.0
O152 O 0.33534 0.27839 0.93499 0.0
O153 O 0.34177 0.22965 0.88813 0.0
O154 O 0.3582 0.31403 0.97802 0.0
O155 O 0.37647 0.30088 0.9134 0.0
O156 O 0.39096 0.2696 0.82555 0.0
O157 O 0.36585 0.25722 0.82334 0.0
C158 C 0.37586 0.25568 0.07398 0.0
C159 C 0.37848 0.26401 0.79234 0.0
H160 H 0.20749 0.22172 0.56304 0.0
H161 H 0.23256 0.2193 0.61487 0.0
H162 H 0.21976 0.31551 0.72221 0.0
H163 H 0.19464 0.31819 0.66983 0.0
H164 H 0.24885 0.31456 0.67587 0.0
H165 H 0.21916 0.23574 0.79898 0.0
H166 H 0.20288 0.18639 0.81206 0.0
H167 H 0.23793 0.11455 0.73034 0.0
H168 H 0.25434 0.16359 0.7159 0.0
H169 H 0.30655 0.3009 0.92109 0.0
H170 H 0.28179 0.30372 0.86641 0.0
H171 H 0.29448 0.20577 0.7645 0.0
H172 H 0.31928 0.20269 0.81981 0.0
H173 H 0.26558 0.20741 0.80679 0.0
H174 H 0.29527 0.28456 0.68269 0.0
H175 H 0.3118 0.33317 0.66606 0.0
H176 H 0.2773 0.4071 0.74592 0.0
H177 H 0.26062 0.35884 0.76365 0.0
C178 C 0.21007 0.24263 0.59702 0.0
C179 C 0.19907 0.27012 0.61245 0.0
C180 C 0.22439 0.24109 0.62699 0.0
C181 C 0.22802 0.26689 0.67344 0.0
C182 C 0.21725 0.29521 0.68678 0.0
C183 C 0.20289 0.29675 0.65678 0.0
C184 C 0.24283 0.26365 0.70955 0.0
C185 C 0.25241 0.29133 0.70522 0.0
C186 C 0.24772 0.23297 0.74658 0.0
C187 C 0.23792 0.2034 0.75578 0.0
C188 C 0.22335 0.20946 0.78337 0.0
C189 C 0.21411 0.18154 0.79109 0.0
C190 C 0.21935 0.14738 0.77189 0.0
C191 C 0.23387 0.14104 0.74511 0.0
C192 C 0.24316 0.16888 0.7372 0.0
C193 C 0.30401 0.27973 0.88764 0.0
C194 C 0.31487 0.25158 0.87472 0.0
C195 C 0.28987 0.28151 0.85597 0.0
C196 C 0.2863 0.25529 0.81028 0.0
C197 C 0.29695 0.22642 0.79926 0.0
C198 C 0.31112 0.22464 0.83097 0.0
C199 C 0.2716 0.25837 0.77331 0.0
C200 C 0.26204 0.23065 0.77747 0.0
C201 C 0.26677 0.28892 0.73577 0.0
C202 C 0.27675 0.31803 0.72509 0.0
C203 C 0.29125 0.31114 0.69717 0.0
C204 C 0.30064 0.33863 0.68744 0.0
C205 C 0.29562 0.37318 0.70511 0.0
C206 C 0.28118 0.38031 0.73234 0.0
C207 C 0.27175 0.35291 0.74215 0.0
H208 H 0.3029 0.39443 0.69755 0.0
H209 H 0.21218 0.1258 0.77789 0.0
H210 H 0.69895 0.19719 0.83504 0.0
H211 H 0.72416 0.19677 0.7859 0.0
H212 H 0.7277 0.30368 0.85361 0.0
H213 H 0.70214 0.30447 0.90156 0.0
H214 H 0.73738 0.29732 0.72933 0.0
H215 H 0.74756 0.23011 0.92945 0.0
H216 H 0.74425 0.18285 0.01161 0.0
H217 H 0.75512 0.10433 0.86109 0.0
H218 H 0.7583 0.15114 0.77777 0.0
H219 H 0.816 0.30346 0.67632 0.0
H220 H 0.79073 0.30219 0.72391 0.0
H221 H 0.78755 0.19729 0.64519 0.0
H222 H 0.81317 0.19829 0.59788 0.0
H223 H 0.77763 0.20181 0.7732 0.0
H224 H 0.76787 0.26967 0.57363 0.0
H225 H 0.77142 0.31733 0.4926 0.0
H226 H 0.75999 0.39513 0.6438 0.0
H227 H 0.75657 0.34792 0.72602 0.0
C228 C 0.70514 0.22055 0.84007 0.0
C229 C 0.69858 0.25082 0.87256 0.0
C230 C 0.71962 0.22022 0.8121 0.0
C231 C 0.72803 0.25 0.81666 0.0
C232 C 0.72151 0.28029 0.84947 0.0
C233 C 0.70693 0.2807 0.8772 0.0
C234 C 0.74338 0.24978 0.78529 0.0
C235 C 0.74624 0.2767 0.73982 0.0
C236 C 0.75489 0.22236 0.79715 0.0
C237 C 0.75303 0.19415 0.84722 0.0
C238 C 0.74914 0.20277 0.91374 0.0
C239 C 0.7473 0.17606 0.96055 0.0
C240 C 0.74944 0.14061 0.94154 0.0
C241 C 0.75345 0.1318 0.87573 0.0
C242 C 0.75529 0.15841 0.82871 0.0
C243 C 0.80991 0.28015 0.66863 0.0
C244 C 0.81656 0.25102 0.63298 0.0
C245 C 0.7954 0.27952 0.69576 0.0
C246 C 0.78707 0.24985 0.68755 0.0
C247 C 0.7937 0.22057 0.65204 0.0
C248 C 0.8083 0.22119 0.62475 0.0
C249 C 0.77163 0.2494 0.71755 0.0
C250 C 0.76875 0.22237 0.76271 0.0
C251 C 0.76012 0.27677 0.70558 0.0
C252 C 0.76209 0.30523 0.65613 0.0
C253 C 0.76622 0.29694 0.58973 0.0
C254 C 0.76819 0.32387 0.54357 0.0
C255 C 0.76597 0.35923 0.56308 0.0
C256 C 0.76172 0.36773 0.62877 0.0
C257 C 0.75975 0.34089 0.67515 0.0
H258 H 0.7675 0.38005 0.52726 0.0
H259 H 0.74801 0.11997 0.97785 0.0
H260 H 0.30525 0.78192 0.04572 0.0
H261 H 0.27996 0.78541 0.09585 0.0
H262 H 0.29678 0.7172 0.25646 0.0
H263 H 0.32193 0.71266 0.20502 0.0
H264 H 0.26977 0.70073 0.22445 0.0
H265 H 0.2912 0.81085 0.27112 0.0
H266 H 0.30299 0.86561 0.24226 0.0
H267 H 0.26441 0.89982 0.12222 0.0
H268 H 0.25247 0.84505 0.14972 0.0
H269 H 0.20853 0.73784 0.44756 0.0
H270 H 0.23383 0.73438 0.39759 0.0
H271 H 0.21707 0.80279 0.23716 0.0
H272 H 0.19191 0.80731 0.28846 0.0
H273 H 0.24406 0.81916 0.26911 0.0
H274 H 0.22263 0.70912 0.22222 0.0
H275 H 0.21083 0.65433 0.25079 0.0
H276 H 0.24938 0.61996 0.3709 0.0
H277 H 0.26133 0.67475 0.3437 0.0
C278 C 0.30349 0.76729 0.09123 0.0
C279 C 0.31558 0.74705 0.12146 0.0
C280 C 0.28904 0.76956 0.12029 0.0
C281 C 0.28644 0.75226 0.18104 0.0
C282 C 0.29843 0.73097 0.20987 0.0
C283 C 0.31282 0.72835 0.18036 0.0
C284 C 0.27137 0.75683 0.21525 0.0
C285 C 0.26426 0.72667 0.23491 0.0
C286 C 0.26391 0.79061 0.22797 0.0
C287 C 0.271 0.82372 0.21201 0.0
C288 C 0.28527 0.82996 0.23828 0.0
C289 C 0.29197 0.86101 0.22219 0.0
C290 C 0.28447 0.88614 0.18031 0.0
C291 C 0.27022 0.88032 0.1546 0.0
C292 C 0.26347 0.8493 0.17047 0.0
C293 C 0.21031 0.75253 0.40214 0.0
C294 C 0.19823 0.77281 0.37191 0.0
C295 C 0.22476 0.75027 0.37316 0.0
C296 C 0.22739 0.76762 0.31249 0.0
C297 C 0.21541 0.78897 0.28369 0.0
C298 C 0.20101 0.79159 0.31312 0.0
C299 C 0.24246 0.76306 0.27831 0.0
C300 C 0.24957 0.79322 0.25866 0.0
C301 C 0.24991 0.72928 0.26557 0.0
C302 C 0.24281 0.69617 0.2814 0.0
C303 C 0.22855 0.68996 0.25502 0.0
C304 C 0.22184 0.6589 0.27094 0.0
C305 C 0.22933 0.63372 0.31276 0.0
C306 C 0.24358 0.6395 0.33857 0.0
C307 C 0.25033 0.67053 0.32287 0.0
H308 H 0.22411 0.60971 0.32506 0.0
H309 H 0.28968 0.91014 0.16787 0.0
H310 H 0.699 0.70019 0.16128 0.0
H311 H 0.72408 0.70058 0.21174 0.0
H312 H 0.72808 0.80585 0.13615 0.0
H313 H 0.70277 0.80564 0.08541 0.0
H314 H 0.75477 0.76185 0.12099 0.0
H315 H 0.71957 0.79568 0.29479 0.0
H316 H 0.69723 0.7903 0.36639 0.0
H317 H 0.71686 0.69132 0.44263 0.0
H318 H 0.7392 0.69576 0.37046 0.0
H319 H 0.81562 0.80591 0.32379 0.0
H320 H 0.79062 0.80476 0.2732 0.0
H321 H 0.78662 0.70047 0.35361 0.0
H322 H 0.81184 0.70156 0.40499 0.0
H323 H 0.75995 0.74345 0.36603 0.0
H324 H 0.79534 0.71007 0.19263 0.0
H325 H 0.81769 0.71586 0.12123 0.0
H326 H 0.79768 0.81429 0.04412 0.0
H327 H 0.77534 0.80947 0.1161 0.0
C328 C 0.70524 0.72338 0.1549 0.0
C329 C 0.69888 0.75294 0.11944 0.0
C330 C 0.71957 0.7236 0.18407 0.0
C331 C 0.72793 0.75338 0.17851 0.0
C332 C 0.72183 0.78259 0.14128 0.0
C333 C 0.70738 0.78248 0.11235 0.0
C334 C 0.74286 0.75404 0.21295 0.0
C335 C 0.75587 0.75833 0.17466 0.0
C336 C 0.74439 0.74857 0.28288 0.0
C337 C 0.731 0.74588 0.32668 0.0
C338 C 0.71907 0.7726 0.32635 0.0
C339 C 0.7064 0.76974 0.36709 0.0
C340 C 0.7056 0.74045 0.40889 0.0
C341 C 0.71747 0.71396 0.41011 0.0
C342 C 0.73015 0.71664 0.36931 0.0
C343 C 0.80941 0.78275 0.33116 0.0
C344 C 0.81574 0.75374 0.36825 0.0
C345 C 0.79511 0.78209 0.30188 0.0
C346 C 0.78677 0.75235 0.30865 0.0
C347 C 0.79285 0.72368 0.34744 0.0
C348 C 0.80726 0.72428 0.37673 0.0
C349 C 0.77187 0.75127 0.27409 0.0
C350 C 0.75886 0.74691 0.31234 0.0
C351 C 0.77034 0.7567 0.20411 0.0
C352 C 0.78371 0.75956 0.16028 0.0
C353 C 0.79576 0.73311 0.16089 0.0
C354 C 0.80842 0.73621 0.12028 0.0
C355 C 0.80913 0.76547 0.07831 0.0
C356 C 0.79715 0.79168 0.07678 0.0
C357 C 0.78447 0.78877 0.11746 0.0
H358 H 0.81893 0.76775 0.04684 0.0
H359 H 0.6958 0.73838 0.44049 0.0
H360 H 0.10916 0.88086 0.38766 0.0
H361 H 0.11049 0.94287 0.41574 0.0
H362 H 0.15475 0.91897 0.50211 0.0
H363 H 0.15297 0.856 0.47752 0.0
H364 H 0.14085 0.96358 0.57771 0.0
H365 H 0.14748 0.96195 0.34118 0.0
H366 H 0.14186 0.94945 0.22315 0.0
H367 H 0.09968 0.01273 0.23807 0.0
H368 H 0.10493 0.0252 0.35651 0.0
H369 H 0.16471 0.13942 0.53671 0.0
H370 H 0.16069 0.07684 0.52439 0.0
H371 H 0.11244 0.10161 0.53191 0.0
H372 H 0.11645 0.1648 0.5468 0.0
H373 H 0.12715 0.05815 0.41219 0.0
H374 H 0.12325 0.06179 0.65287 0.0
H375 H 0.13182 0.07582 0.76638 0.0
H376 H 0.17283 0.0098 0.73621 0.0
H377 H 0.16462 0.99585 0.62203 0.0
C378 C 0.11924 0.88876 0.41225 0.0
C379 C 0.13102 0.8635 0.42997 0.0
C380 C 0.12004 0.92445 0.428 0.0
C381 C 0.13286 0.93617 0.45989 0.0
C382 C 0.14472 0.91088 0.47738 0.0
C383 C 0.14376 0.87489 0.46296 0.0
C384 C 0.13369 0.97454 0.47618 0.0
C385 C 0.138 0.98409 0.54103 0.0
C386 C 0.12977 1.00181 0.42909 0.0
C387 C 0.12653 0.99418 0.35796 0.0
C388 C 0.13694 0.97295 0.31946 0.0
C389 C 0.13383 0.96592 0.25246 0.0
C390 C 0.1204 0.9802 0.22319 0.0
C391 C 0.11006 1.00163 0.26084 0.0
C392 C 0.1131 0.0087 0.3279 0.0
C393 C 0.15323 0.13156 0.53685 0.0
C394 C 0.14087 0.15699 0.54282 0.0
C395 C 0.15096 0.09575 0.52985 0.0
C396 C 0.13629 0.08455 0.52722 0.0
C397 C 0.12387 0.10975 0.53405 0.0
C398 C 0.12615 0.14573 0.54284 0.0
C399 C 0.1342 0.04675 0.51323 0.0
C400 C 0.1298 0.03741 0.4487 0.0
C401 C 0.13843 0.01974 0.55991 0.0
C402 C 0.14337 0.02806 0.6286 0.0
C403 C 0.13416 0.05056 0.67015 0.0
C404 C 0.13895 0.05843 0.73469 0.0
C405 C 0.15288 0.04379 0.75843 0.0
C406 C 0.16205 0.02116 0.71773 0.0
C407 C 0.15733 0.01324 0.65311 0.0
H408 H 0.15656 0.0499 0.80842 0.0
H409 H 0.11802 0.97474 0.17129 0.0
H410 H 0.851 0.37323 0.56336 0.0
H411 H 0.85376 0.4361 0.54778 0.0
H412 H 0.90142 0.41363 0.50884 0.0
H413 H 0.89875 0.35021 0.528 0.0
H414 H 0.89718 0.47514 0.57172 0.0
H415 H 0.87498 0.42406 0.38387 0.0
H416 H 0.85695 0.38873 0.32581 0.0
H417 H 0.82032 0.46393 0.38044 0.0
H418 H 0.83807 0.49882 0.44224 0.0
H419 H 0.90341 0.63241 0.37774 0.0
H420 H 0.90162 0.5701 0.4051 0.0
H421 H 0.8587 0.59593 0.50146 0.0
H422 H 0.86063 0.65889 0.47587 0.0
H423 H 0.86126 0.5331 0.40746 0.0
H424 H 0.88552 0.58385 0.59684 0.0
H425 H 0.90501 0.61762 0.64907 0.0
H426 H 0.93977 0.54184 0.57777 0.0
H427 H 0.92052 0.50826 0.52286 0.0
C428 C 0.86214 0.38174 0.55266 0.0
C429 C 0.87465 0.35687 0.54645 0.0
C430 C 0.8637 0.41774 0.54336 0.0
C431 C 0.87771 0.42976 0.52508 0.0
C432 C 0.89045 0.40511 0.52239 0.0
C433 C 0.88894 0.3689 0.53334 0.0
C434 C 0.87866 0.46754 0.50486 0.0
C435 C 0.88942 0.48762 0.53527 0.0
C436 C 0.86854 0.48418 0.45721 0.0
C437 C 0.85786 0.46391 0.41832 0.0
C438 C 0.86307 0.43298 0.38399 0.0
C439 C 0.85288 0.41299 0.35039 0.0
C440 C 0.8375 0.42417 0.34894 0.0
C441 C 0.83225 0.4553 0.38153 0.0
C442 C 0.84236 0.47512 0.4162 0.0
C443 C 0.89351 0.62491 0.40428 0.0
C444 C 0.88216 0.65068 0.42483 0.0
C445 C 0.89254 0.58923 0.42006 0.0
C446 C 0.8801 0.57837 0.45576 0.0
C447 C 0.86842 0.60377 0.474 0.0
C448 C 0.86952 0.63969 0.45932 0.0
C449 C 0.87954 0.5406 0.47523 0.0
C450 C 0.86893 0.52053 0.44415 0.0
C451 C 0.89001 0.52387 0.52101 0.0
C452 C 0.90157 0.54373 0.55503 0.0
C453 C 0.89732 0.57457 0.59162 0.0
C454 C 0.90833 0.59365 0.62186 0.0
C455 C 0.92361 0.58186 0.6169 0.0
C456 C 0.92793 0.55096 0.58156 0.0
C457 C 0.91697 0.53193 0.55073 0.0
H458 H 0.93211 0.59665 0.64049 0.0
H459 H 0.82964 0.40869 0.32266 0.0
H460 H 0.85179 0.87432 0.43932 0.0
H461 H 0.85536 0.93703 0.45538 0.0
H462 H 0.90245 0.91097 0.50081 0.0
H463 H 0.89899 0.84775 0.48239 0.0
H464 H 0.88277 0.95674 0.60009 0.0
H465 H 0.89815 0.94911 0.3689 0.0
H466 H 0.8951 0.93311 0.25046 0.0
H467 H 0.85394 1.00048 0.23971 0.0
H468 H 0.85662 0.01645 0.35849 0.0
H469 H 0.90298 0.13259 0.6302 0.0
H470 H 0.90138 0.07015 0.60578 0.0
H471 H 0.86129 0.09564 0.48741 0.0
H472 H 0.86327 0.15875 0.50964 0.0
H473 H 0.87815 0.04887 0.42355 0.0
H474 H 0.86085 0.05564 0.64857 0.0
H475 H 0.86106 0.07018 0.76872 0.0
H476 H 0.90216 1.00388 0.79434 0.0
H477 H 0.90233 0.98933 0.67408 0.0
C478 C 0.86298 0.88201 0.45151 0.0
C479 C 0.87515 0.85627 0.45919 0.0
C480 C 0.86499 0.91783 0.46077 0.0
C481 C 0.87914 0.9287 0.47939 0.0
C482 C 0.89143 0.90311 0.48632 0.0
C483 C 0.88949 0.86713 0.47536 0.0
C484 C 0.88071 0.96666 0.49452 0.0
C485 C 0.8821 0.97691 0.56148 0.0
C486 C 0.87908 0.99301 0.4444 0.0
C487 C 0.87751 0.9837 0.37281 0.0
C488 C 0.88837 0.96026 0.34148 0.0
C489 C 0.88673 0.95125 0.27424 0.0
C490 C 0.87432 0.96569 0.23763 0.0
C491 C 0.86355 0.98928 0.26816 0.0
C492 C 0.86513 0.99834 0.33542 0.0
C493 C 0.89372 0.12496 0.59944 0.0
C494 C 0.88323 0.15071 0.57196 0.0
C495 C 0.89277 0.08906 0.5857 0.0
C496 C 0.8811 0.07776 0.54533 0.0
C497 C 0.87043 0.10347 0.51865 0.0
C498 C 0.87149 0.13956 0.53175 0.0
C499 C 0.88036 0.03932 0.52958 0.0
C500 C 0.87899 0.02889 0.46246 0.0
C501 C 0.88167 0.01279 0.57984 0.0
C502 C 0.88168 0.02167 0.65213 0.0
C503 C 0.87001 0.0444 0.67969 0.0
C504 C 0.87005 0.0526 0.74783 0.0
C505 C 0.88163 0.03801 0.78909 0.0
C506 C 0.89321 0.01519 0.76229 0.0
C507 C 0.89324 1.00693 0.69414 0.0
H508 H 0.88161 0.04427 0.84186 0.0
H509 H 0.87306 0.95867 0.18558 0.0
H510 H 0.16465 0.63935 0.43798 0.0
H511 H 0.16083 0.5767 0.45215 0.0
H512 H 0.11267 0.60183 0.46546 0.0
H513 H 0.11642 0.66503 0.44874 0.0
H514 H 0.13019 0.55743 0.57878 0.0
H515 H 0.12019 0.56289 0.34129 0.0
H516 H 0.12608 0.5785 0.22494 0.0
H517 H 0.16763 0.51249 0.23482 0.0
H518 H 0.16211 0.49696 0.35167 0.0
H519 H 0.11125 0.38126 0.60844 0.0
H520 H 0.11247 0.44329 0.57992 0.0
H521 H 0.15479 0.41829 0.4773 0.0
H522 H 0.15311 0.35535 0.50279 0.0
H523 H 0.13929 0.46407 0.40674 0.0
H524 H 0.1515 0.45983 0.6388 0.0
H525 H 0.14838 0.4453 0.75801 0.0
H526 H 0.1064 0.50984 0.76352 0.0
H527 H 0.10915 0.52434 0.64404 0.0
C528 C 0.1532 0.63152 0.44267 0.0
C529 C 0.1408 0.65702 0.44198 0.0
C530 C 0.15106 0.5957 0.45085 0.0
C531 C 0.13649 0.58461 0.46001 0.0
C532 C 0.12401 0.60989 0.45833 0.0
C533 C 0.12613 0.64587 0.44837 0.0
C534 C 0.13465 0.54676 0.4748 0.0
C535 C 0.13183 0.53698 0.54101 0.0
C536 C 0.13756 0.52011 0.42609 0.0
C537 C 0.1408 0.52903 0.35551 0.0
C538 C 0.13065 0.55195 0.31889 0.0
C539 C 0.13391 0.56074 0.25279 0.0
C540 C 0.14724 0.54657 0.22256 0.0
C541 C 0.15731 0.52348 0.25831 0.0
C542 C 0.15412 0.51465 0.32447 0.0
C543 C 0.12089 0.38891 0.58019 0.0
C544 C 0.13215 0.36335 0.55824 0.0
C545 C 0.12162 0.42459 0.5641 0.0
C546 C 0.13387 0.43597 0.52743 0.0
C547 C 0.14521 0.41042 0.50573 0.0
C548 C 0.14432 0.37446 0.5207 0.0
C549 C 0.13465 0.47435 0.51114 0.0
C550 C 0.13744 0.48433 0.44472 0.0
C551 C 0.13207 0.50124 0.56013 0.0
C552 C 0.13046 0.49289 0.63225 0.0
C553 C 0.14155 0.47075 0.66531 0.0
C554 C 0.13985 0.46253 0.73295 0.0
C555 C 0.12718 0.47656 0.76826 0.0
C556 C 0.1162 0.49895 0.73607 0.0
C557 C 0.11783 0.5072 0.6684 0.0
H558 H 0.12588 0.47014 0.8206 0.0
H559 H 0.14974 0.55343 0.17141 0.0
H560 H 0.63101 0.64678 0.12518 0.0
H561 H 0.62819 0.5832 0.10915 0.0
H562 H 0.63798 0.59373 0.89921 0.0
H563 H 0.64132 0.65659 0.91545 0.0
H564 H 0.61225 0.54943 0.93715 0.0
H565 H 0.66549 0.56671 0.98169 0.0
H566 H 0.68582 0.5885 0.05092 0.0
H567 H 0.67254 0.52542 0.216 0.0
H568 H 0.65197 0.50368 0.14794 0.0
H569 H 0.62869 0.37621 0.82155 0.0
H570 H 0.62968 0.43927 0.84486 0.0
H571 H 0.63976 0.41519 0.05198 0.0
H572 H 0.63986 0.35206 0.02735 0.0
H573 H 0.65392 0.46716 0.02437 0.0
H574 H 0.60237 0.44594 0.98738 0.0
H575 H 0.58044 0.42465 0.92818 0.0
H576 H 0.58764 0.49448 0.76415 0.0
H577 H 0.60974 0.51587 0.822 0.0
C578 C 0.63222 0.63558 0.07548 0.0
C579 C 0.63634 0.6565 0.02145 0.0
C580 C 0.6307 0.5993 0.06642 0.0
C581 C 0.63293 0.58374 0.00296 0.0
C582 C 0.63618 0.60516 0.94848 0.0
C583 C 0.63808 0.64104 0.95782 0.0
C584 C 0.63296 0.54485 0.99345 0.0
C585 C 0.62137 0.53136 0.95584 0.0
C586 C 0.64462 0.52122 0.01956 0.0
C587 C 0.6571 0.53391 0.06003 0.0
C588 C 0.66683 0.55774 0.03293 0.0
C589 C 0.67841 0.57003 0.07191 0.0
C590 C 0.68044 0.55844 0.13789 0.0
C591 C 0.67093 0.53443 0.16493 0.0
C592 C 0.65932 0.5221 0.12617 0.0
C593 C 0.63139 0.38446 0.87172 0.0
C594 C 0.6342 0.35926 0.92254 0.0
C595 C 0.63175 0.42059 0.88539 0.0
C596 C 0.63429 0.43248 0.95087 0.0
C597 C 0.63767 0.40707 0.00112 0.0
C598 C 0.63776 0.37087 0.98699 0.0
C599 C 0.63321 0.4712 0.96709 0.0
C600 C 0.64464 0.48484 0.00598 0.0
C601 C 0.62114 0.49488 0.94361 0.0
C602 C 0.60779 0.48228 0.90879 0.0
C603 C 0.59933 0.45661 0.93852 0.0
C604 C 0.58686 0.44454 0.90521 0.0
C605 C 0.58267 0.45815 0.84238 0.0
C606 C 0.59091 0.48394 0.81279 0.0
C607 C 0.6034 0.49607 0.84584 0.0
H608 H 0.57302 0.44876 0.81666 0.0
H609 H 0.68941 0.56799 0.16801 0.0
H610 H 0.34891 0.87836 0.05316 0.0
H611 H 0.35182 0.941 0.03687 0.0
H612 H 0.40012 0.91891 0.01743 0.0
H613 H 0.39721 0.8556 0.03695 0.0
H614 H 0.39458 0.98045 0.07802 0.0
H615 H 0.37662 0.93112 0.87817 0.0
H616 H 0.36035 0.89707 0.80691 0.0
H617 H 0.32183 0.96763 0.85768 0.0
H618 H 0.33784 1.00183 0.93009 0.0
H619 H 0.4026 0.1382 0.88398 0.0
H620 H 0.40083 0.07581 0.91106 0.0
H621 H 0.35733 0.10104 0.0027 0.0
H622 H 0.35925 0.1641 0.9777 0.0
H623 H 0.36143 0.03823 0.90309 0.0
H624 H 0.38205 0.0888 0.10203 0.0
H625 H 0.40045 0.12301 0.16084 0.0
H626 H 0.43664 0.04836 0.09923 0.0
H627 H 0.41852 0.01442 0.03759 0.0
C628 C 0.3602 0.88685 0.04646 0.0
C629 C 0.37283 0.86206 0.04592 0.0
C630 C 0.36185 0.92274 0.03662 0.0
C631 C 0.37614 0.93482 0.02371 0.0
C632 C 0.38894 0.91033 0.02664 0.0
C633 C 0.3873 0.87418 0.03795 0.0
C634 C 0.37739 0.97262 0.00448 0.0
C635 C 0.38744 0.99287 0.03924 0.0
C636 C 0.3681 0.98923 0.95381 0.0
C637 C 0.35841 0.96886 0.91005 0.0
C638 C 0.36466 0.93924 0.87452 0.0
C639 C 0.35549 0.91993 0.83387 0.0
C640 C 0.34006 0.93014 0.82789 0.0
C641 C 0.33378 0.95974 0.86243 0.0
C642 C 0.3429 0.97911 0.90325 0.0
C643 C 0.39258 0.13054 0.90951 0.0
C644 C 0.38105 0.15614 0.92879 0.0
C645 C 0.39164 0.09484 0.92514 0.0
C646 C 0.37901 0.0838 0.95925 0.0
C647 C 0.3672 0.10905 0.97648 0.0
C648 C 0.36829 0.145 0.96216 0.0
C649 C 0.37834 0.04592 0.97751 0.0
C650 C 0.36848 0.02569 0.94208 0.0
C651 C 0.38807 0.02925 0.02625 0.0
C652 C 0.39893 0.04929 0.06442 0.0
C653 C 0.39395 0.07988 0.10028 0.0
C654 C 0.40433 0.0992 0.13429 0.0
C655 C 0.4197 0.08784 0.13395 0.0
C656 C 0.42473 0.05715 0.09944 0.0
C657 C 0.41441 0.03791 0.06478 0.0
H658 H 0.42771 0.1028 0.16046 0.0
H659 H 0.33297 0.91515 0.79639 0.0
H660 H 0.34996 0.38004 0.94426 0.0
H661 H 0.35385 0.44266 0.95805 0.0
H662 H 0.40179 0.41674 0.98092 0.0
H663 H 0.39796 0.35357 0.96495 0.0
H664 H 0.38541 0.46116 0.08825 0.0
H665 H 0.39309 0.45612 0.85019 0.0
H666 H 0.38643 0.44158 0.7343 0.0
H667 H 0.34544 0.50927 0.74947 0.0
H668 H 0.35172 0.52372 0.86594 0.0
H669 H 0.40348 0.63851 0.11681 0.0
H670 H 0.40239 0.57631 0.08932 0.0
H671 H 0.35945 0.6001 0.99093 0.0
H672 H 0.361 0.66314 0.01519 0.0
H673 H 0.37456 0.55533 0.91893 0.0
H674 H 0.36419 0.55749 0.15305 0.0
H675 H 0.36811 0.57069 0.27225 0.0
H676 H 0.4105 0.5077 0.26959 0.0
H677 H 0.40694 0.49449 0.15008 0.0
C678 C 0.36138 0.3877 0.95098 0.0
C679 C 0.37369 0.36197 0.95319 0.0
C680 C 0.36357 0.42351 0.95886 0.0
C681 C 0.37809 0.43441 0.97052 0.0
C682 C 0.39049 0.40887 0.97176 0.0
C683 C 0.38832 0.37289 0.96221 0.0
C684 C 0.37994 0.47228 0.98528 0.0
C685 C 0.38337 0.48178 0.05099 0.0
C686 C 0.37656 0.4992 0.93736 0.0
C687 C 0.37281 0.49073 0.86711 0.0
C688 C 0.38258 0.46764 0.82908 0.0
C689 C 0.37889 0.45946 0.76322 0.0
C690 C 0.3655 0.47441 0.73459 0.0
C691 C 0.3558 0.49766 0.77173 0.0
C692 C 0.35943 0.50588 0.83767 0.0
C693 C 0.39371 0.63053 0.08983 0.0
C694 C 0.38226 0.65579 0.06855 0.0
C695 C 0.39306 0.59474 0.07434 0.0
C696 C 0.3807 0.58298 0.03899 0.0
C697 C 0.36913 0.60823 0.01828 0.0
C698 C 0.36995 0.64427 0.03257 0.0
C699 C 0.38006 0.54458 0.0224 0.0
C700 C 0.37676 0.53489 0.95638 0.0
C701 C 0.38318 0.51743 0.07054 0.0
C702 C 0.38537 0.52531 0.14242 0.0
C703 C 0.3744 0.54667 0.17775 0.0
C704 C 0.37655 0.55411 0.24539 0.0
C705 C 0.38957 0.54012 0.27842 0.0
C706 C 0.40044 0.51857 0.24391 0.0
C707 C 0.39836 0.51107 0.17624 0.0
H708 H 0.39121 0.54592 0.33079 0.0
H709 H 0.36266 0.46803 0.6836 0.0
H710 H 0.64813 0.13911 0.87054 0.0
H711 H 0.64644 0.07576 0.88963 0.0
H712 H 0.62077 0.09925 0.06985 0.0
H713 H 0.6231 0.16255 0.05184 0.0
H714 H 0.6416 0.0511 0.09688 0.0
H715 H 0.60535 0.06445 0.91891 0.0
H716 H 0.59576 0.0818 0.8069 0.0
H717 H 0.63049 0.0125 0.71604 0.0
H718 H 0.64042 0.9951 0.82751 0.0
H719 H 0.61923 0.87739 0.15476 0.0
H720 H 0.62058 0.94026 0.13108 0.0
H721 H 0.65038 0.91434 0.96479 0.0
H722 H 0.64896 0.85118 0.98804 0.0
H723 H 0.62777 0.96298 0.92932 0.0
H724 H 0.66355 0.94932 0.10924 0.0
H725 H 0.67258 0.93178 0.22199 0.0
H726 H 0.63774 1.00186 0.31002 0.0
H727 H 0.62835 0.01945 0.19776 0.0
C728 C 0.64173 0.13064 0.91299 0.0
C729 C 0.63541 0.15555 0.95889 0.0
C730 C 0.64077 0.0944 0.92408 0.0
C731 C 0.63332 0.08239 0.98095 0.0
C732 C 0.62657 0.10761 0.02558 0.0
C733 C 0.62772 0.1438 0.01493 0.0
C734 C 0.63351 0.04375 0.99656 0.0
C735 C 0.63831 0.03199 0.06041 0.0
C736 C 0.6297 0.01836 0.94868 0.0
C737 C 0.62372 0.02874 0.88159 0.0
C738 C 0.61102 0.05312 0.87504 0.0
C739 C 0.60551 0.06293 0.81164 0.0
C740 C 0.61253 0.04833 0.75439 0.0
C741 C 0.62507 0.02382 0.76043 0.0
C742 C 0.63064 0.01396 0.82371 0.0
C743 C 0.62626 0.88506 0.11374 0.0
C744 C 0.634 0.85928 0.07332 0.0
C745 C 0.62703 0.92108 0.10025 0.0
C746 C 0.63562 0.93221 0.04621 0.0
C747 C 0.64366 0.90648 0.00668 0.0
C748 C 0.64293 0.87038 0.02031 0.0
C749 C 0.63571 0.97058 0.02962 0.0
C750 C 0.63101 0.98221 0.96564 0.0
C751 C 0.6395 0.99591 0.07747 0.0
C752 C 0.64516 0.98545 0.14505 0.0
C753 C 0.65773 0.96078 0.15263 0.0
C754 C 0.66293 0.95087 0.21647 0.0
C755 C 0.65571 0.96563 0.27314 0.0
C756 C 0.64331 0.99041 0.26608 0.0
C757 C 0.63805 1.00039 0.20236 0.0
H758 H 0.65975 0.95792 0.32251 0.0
H759 H 0.60825 0.05596 0.70536 0.0
H760 H 0.11492 0.24343 0.33673 0.0
H761 H 0.11486 0.24193 0.21493 0.0
H762 H 0.15918 0.28136 0.21146 0.0
H763 H 0.15933 0.28327 0.33393 0.0
H764 H 0.1399 0.31446 0.11927 0.0
H765 H 0.15559 0.19561 0.1848 0.0
H766 H 0.15375 0.13975 0.24619 0.0
H767 H 0.1113 0.12543 0.15058 0.0
H768 H 0.11277 0.18152 0.08935 0.0
H769 H 0.15838 0.27318 0.78392 0.0
H770 H 0.15826 0.27432 0.90573 0.0
H771 H 0.11384 0.23543 0.90739 0.0
H772 H 0.11385 0.23394 0.78487 0.0
H773 H 0.13299 0.20211 0.00039 0.0
H774 H 0.11723 0.32068 0.93474 0.0
H775 H 0.119 0.37643 0.8729 0.0
H776 H 0.1614 0.39132 0.9685 0.0
H777 H 0.16001 0.33534 0.03019 0.0
C778 C 0.12467 0.25191 0.31029 0.0
C779 C 0.13717 0.26335 0.34518 0.0
C780 C 0.12462 0.25089 0.24057 0.0
C781 C 0.13708 0.26111 0.20426 0.0
C782 C 0.14946 0.27325 0.23869 0.0
C783 C 0.14954 0.27424 0.30862 0.0
C784 C 0.13717 0.25888 0.13031 0.0
C785 C 0.13861 0.28982 0.09321 0.0
C786 C 0.13509 0.22685 0.09653 0.0
C787 C 0.13422 0.19297 0.13296 0.0
C788 C 0.1458 0.1807 0.17725 0.0
C789 C 0.14483 0.14897 0.21197 0.0
C790 C 0.13239 0.12909 0.20243 0.0
C791 C 0.12092 0.14088 0.15799 0.0
C792 C 0.12182 0.17263 0.12323 0.0
C793 C 0.14857 0.26473 0.80996 0.0
C794 C 0.13607 0.25363 0.77457 0.0
C795 C 0.14852 0.26554 0.87967 0.0
C796 C 0.13597 0.25542 0.91547 0.0
C797 C 0.12362 0.24347 0.88055 0.0
C798 C 0.12363 0.24271 0.8106 0.0
C799 C 0.13575 0.25767 0.98939 0.0
C800 C 0.13428 0.22675 0.02646 0.0
C801 C 0.13778 0.28972 0.02315 0.0
C802 C 0.13858 0.32361 0.98662 0.0
C803 C 0.12699 0.33569 0.94221 0.0
C804 C 0.12792 0.36736 0.90723 0.0
C805 C 0.14032 0.38736 0.91662 0.0
C806 C 0.1518 0.37578 0.9612 0.0
C807 C 0.15095 0.34409 0.99624 0.0
H808 H 0.14102 0.41186 0.88946 0.0
H809 H 0.13167 0.10453 0.22935 0.0
H810 H 0.8956 0.28708 0.34299 0.0
H811 H 0.89587 0.2865 0.2211 0.0
H812 H 0.85653 0.2265 0.21983 0.0
H813 H 0.85618 0.22687 0.34254 0.0
H814 H 0.87866 0.19842 0.13544 0.0
H815 H 0.85206 0.31173 0.16808 0.0
H816 H 0.84684 0.37167 0.214 0.0
H817 H 0.88957 0.40103 0.13986 0.0
H818 H 0.89494 0.34128 0.09264 0.0
H819 H 0.86162 0.22099 0.78988 0.0
H820 H 0.86119 0.22107 0.91177 0.0
H821 H 0.90129 0.27843 0.91512 0.0
H822 H 0.90181 0.27857 0.79246 0.0
H823 H 0.8787 0.30746 -0.00164 0.0
H824 H 0.90379 0.1931 0.95689 0.0
H825 H 0.90714 0.13393 0.90577 0.0
H826 H 0.86578 0.10606 0.99623 0.0
H827 H 0.86206 0.16529 0.04714 0.0
C828 C 0.88693 0.27388 0.31699 0.0
C829 C 0.87587 0.25695 0.35264 0.0
C830 C 0.88706 0.27376 0.24715 0.0
C831 C 0.87616 0.25667 0.21127 0.0
C832 C 0.86503 0.2399 0.24655 0.0
C833 C 0.86482 0.24025 0.31664 0.0
C834 C 0.87683 0.25532 0.13704 0.0
C835 C 0.87843 0.22225 0.10536 0.0
C836 C 0.87691 0.28637 0.09786 0.0
C837 C 0.87396 0.32199 0.1275 0.0
C838 C 0.86039 0.3309 0.16206 0.0
C839 C 0.85738 0.36488 0.18803 0.0
C840 C 0.86791 0.3901 0.18024 0.0
C841 C 0.88144 0.38145 0.14599 0.0
C842 C 0.88444 0.34759 0.11931 0.0
C843 C 0.87043 0.23349 0.81633 0.0
C844 C 0.88176 0.24982 0.78129 0.0
C845 C 0.87019 0.23335 0.88614 0.0
C846 C 0.88126 0.24953 0.92256 0.0
C847 C 0.89265 0.26573 0.88791 0.0
C848 C 0.89297 0.26567 0.81786 0.0
C849 C 0.88056 0.25057 -0.00327 0.0
C850 C 0.87896 0.2836 0.02841 0.0
C851 C 0.88036 0.21946 0.03573 0.0
C852 C 0.88258 0.18377 0.00535 0.0
C853 C 0.89534 0.17447 0.96544 0.0
C854 C 0.89732 0.1409 0.93657 0.0
C855 C 0.88667 0.11629 0.94764 0.0
C856 C 0.87402 0.12518 0.98766 0.0
C857 C 0.87198 0.15873 0.0166 0.0
H858 H 0.88824 0.0903 0.92538 0.0
H859 H 0.86557 0.41638 0.20057 0.0
H860 H 0.11397 0.73231 0.20149 0.0
H861 H 0.11428 0.73298 0.07901 0.0
H862 H 0.15754 0.77768 0.08172 0.0
H863 H 0.15731 0.77738 0.20356 0.0
H864 H 0.13816 0.81198 0.99441 0.0
H865 H 0.15555 0.6921 0.04596 0.0
H866 H 0.15422 0.63396 0.09982 0.0
H867 H 0.11278 0.61946 0.99591 0.0
H868 H 0.11373 0.6778 0.9422 0.0
H869 H 0.15836 0.78459 0.6528 0.0
H870 H 0.15817 0.78275 0.77518 0.0
H871 H 0.11497 0.73784 0.77157 0.0
H872 H 0.11509 0.73925 0.64969 0.0
H873 H 0.13428 0.70347 0.85937 0.0
H874 H 0.11689 0.82355 0.80831 0.0
H875 H 0.11815 0.88192 0.75531 0.0
H876 H 0.15968 0.89605 0.85882 0.0
H877 H 0.15879 0.83749 0.91172 0.0
C878 C 0.12357 0.74219 0.17601 0.0
C879 C 0.13562 0.75471 0.21233 0.0
C880 C 0.12374 0.74248 0.10607 0.0
C881 C 0.13599 0.7552 0.07139 0.0
C882 C 0.14798 0.7678 0.10754 0.0
C883 C 0.14784 0.76746 0.17726 0.0
C884 C 0.13629 0.75575 -0.00265 0.0
C885 C 0.1375 0.78819 0.96484 0.0
C886 C 0.13513 0.72479 0.95897 0.0
C887 C 0.13463 0.6895 0.99058 0.0
C888 C 0.14609 0.67664 0.03498 0.0
C889 C 0.14541 0.64363 0.06543 0.0
C890 C 0.1334 0.62307 0.05146 0.0
C891 C 0.12206 0.63544 0.00678 0.0
C892 C 0.12267 0.66847 0.97628 0.0
C893 C 0.14881 0.77438 0.67803 0.0
C894 C 0.13672 0.76222 0.64142 0.0
C895 C 0.14871 0.77341 0.74794 0.0
C896 C 0.1365 0.76037 0.78237 0.0
C897 C 0.12449 0.74797 0.74596 0.0
C898 C 0.12457 0.74898 0.67622 0.0
C899 C 0.13617 0.7597 0.85643 0.0
C900 C 0.13495 0.72724 0.88894 0.0
C901 C 0.13733 0.79064 0.89486 0.0
C902 C 0.13785 0.82596 0.86343 0.0
C903 C 0.12636 0.83897 0.81936 0.0
C904 C 0.12699 0.87212 0.7894 0.0
C905 C 0.13901 0.89264 0.80353 0.0
C906 C 0.15039 0.8801 0.84783 0.0
C907 C 0.14982 0.84694 0.87785 0.0
H908 H 0.13949 0.91829 0.78028 0.0
H909 H 0.13289 0.59754 0.07515 0.0
H910 H 0.90023 0.75951 0.65629 0.0
H911 H 0.90044 0.75853 0.77805 0.0
H912 H 0.85265 0.74428 0.77986 0.0
H913 H 0.85229 0.74532 0.65719 0.0
H914 H 0.86059 0.79507 0.86998 0.0
H915 H 0.87641 0.67514 0.81655 0.0
H916 H 0.89145 0.6267 0.75967 0.0
H917 H 0.93218 0.66154 0.84494 0.0
H918 H 0.91735 0.7103 0.90231 0.0
H919 H 0.85603 0.74513 0.21006 0.0
H920 H 0.85551 0.74518 0.0883 0.0
H921 H 0.90316 0.76091 0.08343 0.0
H922 H 0.90384 0.76082 0.20611 0.0
H923 H 0.89506 0.70907 0.99481 0.0
H924 H 0.87836 0.82825 0.05268 0.0
H925 H 0.86266 0.87513 0.11091 0.0
H926 H 0.82284 0.84105 0.01637 0.0
H927 H 0.83826 0.79347 0.95856 0.0
C928 C 0.88973 0.75617 0.6823 0.0
C929 C 0.87623 0.75245 0.64685 0.0
C930 C 0.8899 0.75545 0.75204 0.0
C931 C 0.8766 0.75099 0.78794 0.0
C932 C 0.86305 0.74766 0.75297 0.0
C933 C 0.86287 0.74816 0.68293 0.0
C934 C 0.87693 0.75024 0.86205 0.0
C935 C 0.86794 0.77595 0.8974 0.0
C936 C 0.8868 0.72578 0.89757 0.0
C937 C 0.89579 0.69656 0.86319 0.0
C938 C 0.88859 0.67263 0.82276 0.0
C939 C 0.89707 0.64507 0.79054 0.0
C940 C 0.91278 0.64113 0.79839 0.0
C941 C 0.92002 0.66466 0.83881 0.0
C942 C 0.91157 0.6922 0.87135 0.0
C943 C 0.86645 0.74854 0.18336 0.0
C944 C 0.88 0.75302 0.21794 0.0
C945 C 0.86609 0.74871 0.11363 0.0
C946 C 0.87925 0.75338 0.0769 0.0
C947 C 0.89287 0.75736 0.11101 0.0
C948 C 0.89323 0.75741 0.18102 0.0
C949 C 0.87873 0.75395 0.00282 0.0
C950 C 0.8877 0.72821 0.96745 0.0
C951 C 0.86877 0.77828 0.96737 0.0
C952 C 0.85946 0.807 0.00186 0.0
C953 C 0.86624 0.8305 0.04481 0.0
C954 C 0.85739 0.85723 0.0777 0.0
C955 C 0.84175 0.86095 0.06758 0.0
C956 C 0.83494 0.83804 0.02436 0.0
C957 C 0.84373 0.81119 0.99149 0.0
H958 H 0.83491 0.88167 0.09306 0.0
H959 H 0.91933 0.6198 0.77332 0.0
H960 H 0.65895 0.76188 0.2835 0.0
H961 H 0.65935 0.76277 0.40537 0.0
H962 H 0.61164 0.74765 0.40981 0.0
H963 H 0.61108 0.74694 0.28734 0.0
H964 H 0.61913 0.79969 0.49555 0.0
H965 H 0.63698 0.68074 0.44356 0.0
H966 H 0.65318 0.63338 0.3893 0.0
H967 H 0.69224 0.66934 0.48718 0.0
H968 H 0.67634 0.71755 0.54068 0.0
H969 H 0.61334 0.75352 0.83701 0.0
H970 H 0.61329 0.75332 0.71514 0.0
H971 H 0.661 0.7685 0.71376 0.0
H972 H 0.66122 0.76848 0.83625 0.0
H973 H 0.65371 0.7168 0.62656 0.0
H974 H 0.63604 0.83628 0.67667 0.0
H975 H 0.61988 0.88366 0.73129 0.0
H976 H 0.58056 0.84604 0.63816 0.0
H977 H 0.59647 0.79811 0.58368 0.0
C978 C 0.64851 0.7587 0.3102 0.0
C979 C 0.63496 0.75428 0.27559 0.0
C980 C 0.6488 0.75909 0.37996 0.0
C981 C 0.63556 0.75498 0.41659 0.0
C982 C 0.62198 0.75081 0.38236 0.0
C983 C 0.6217 0.75027 0.31242 0.0
C984 C 0.63588 0.7555 0.49068 0.0
C985 C 0.62654 0.78125 0.52427 0.0
C986 C 0.64585 0.732 0.5279 0.0
C987 C 0.65547 0.70308 0.49552 0.0
C988 C 0.64905 0.67885 0.4529 0.0
C989 C 0.65818 0.65182 0.42229 0.0
C990 C 0.67375 0.64847 0.43449 0.0
C991 C 0.6802 0.67208 0.47749 0.0
C992 C 0.67113 0.69928 0.50795 0.0
C993 C 0.62384 0.75693 0.81101 0.0
C994 C 0.63729 0.7611 0.8465 0.0
C995 C 0.62377 0.75693 0.74124 0.0
C996 C 0.6371 0.76123 0.70545 0.0
C997 C 0.65058 0.76521 0.74055 0.0
C998 C 0.65066 0.76532 0.81051 0.0
C999 C 0.63696 0.76097 0.63135 0.0
C1000 C 0.64633 0.73526 0.59777 0.0
C1001 C 0.62703 0.78451 0.59411 0.0
C1002 C 0.61744 0.8134 0.62658 0.0
C1003 C 0.62393 0.83793 0.66825 0.0
C1004 C 0.61482 0.86492 0.69911 0.0
C1005 C 0.5992 0.8678 0.68833 0.0
C1006 C 0.59266 0.84375 0.64652 0.0
C1007 C 0.60172 0.81669 0.61558 0.0
H1008 H 0.59216 0.88872 0.71227 0.0
H1009 H 0.6808 0.6275 0.41083 0.0
H1010 H 0.35341 0.7436 0.83988 0.0
H1011 H 0.35377 0.74451 0.71745 0.0
H1012 H 0.40075 0.76684 0.72067 0.0
H1013 H 0.40041 0.76677 0.84242 0.0
H1014 H 0.38575 0.80841 0.63433 0.0
H1015 H 0.3897 0.68403 0.6821 0.0
H1016 H 0.38211 0.6289 0.73292 0.0
H1017 H 0.33966 0.64094 0.6287 0.0
H1018 H 0.34691 0.69643 0.57796 0.0
H1019 H 0.40251 0.77271 0.2911 0.0
H1020 H 0.40218 0.77117 0.41349 0.0
H1021 H 0.35473 0.75316 0.41027 0.0
H1022 H 0.35496 0.75418 0.28849 0.0
H1023 H 0.36999 0.70919 0.49629 0.0
H1024 H 0.36633 0.834 0.44889 0.0
H1025 H 0.37429 0.88876 0.39792 0.0
H1026 H 0.41677 0.87509 0.50156 0.0
H1027 H 0.40915 0.81998 0.55247 0.0
C1028 C 0.36383 0.74855 0.81446 0.0
C1029 C 0.37687 0.75511 0.85089 0.0
C1030 C 0.36403 0.74895 0.74452 0.0
C1031 C 0.37734 0.75545 0.70992 0.0
C1032 C 0.39036 0.76186 0.74629 0.0
C1033 C 0.39014 0.76172 0.81599 0.0
C1034 C 0.37769 0.7563 0.63582 0.0
C1035 C 0.38249 0.78651 0.60416 0.0
C1036 C 0.37315 0.72802 0.59648 0.0
C1037 C 0.36879 0.69458 0.62675 0.0
C1038 C 0.3787 0.67507 0.67042 0.0
C1039 C 0.37446 0.64373 0.69915 0.0
C1040 C 0.3604 0.63147 0.68419 0.0
C1041 C 0.35055 0.65049 0.64032 0.0
C1042 C 0.35472 0.68187 0.61152 0.0
C1043 C 0.39199 0.76859 0.31644 0.0
C1044 C 0.37877 0.76363 0.27995 0.0
C1045 C 0.39181 0.76778 0.38636 0.0
C1046 C 0.3784 0.76228 0.42091 0.0
C1047 C 0.36521 0.75737 0.38459 0.0
C1048 C 0.36537 0.7581 0.31488 0.0
C1049 C 0.37806 0.76126 0.49495 0.0
C1050 C 0.37326 0.73104 0.52655 0.0
C1051 C 0.38266 0.78946 0.53428 0.0
C1052 C 0.38723 0.82269 0.50396 0.0
C1053 C 0.37742 0.84253 0.46041 0.0
C1054 C 0.38186 0.87366 0.4316 0.0
C1055 C 0.39604 0.88535 0.44635 0.0
C1056 C 0.4058 0.86598 0.4901 0.0
C1057 C 0.40142 0.83482 0.51899 0.0
H1058 H 0.39946 0.90945 0.42399 0.0
H1059 H 0.35714 0.60719 0.70647 0.0
H1060 H 0.66072 0.26366 0.15463 0.0
H1061 H 0.66028 0.26313 0.277 0.0
H1062 H 0.61205 0.25469 0.27385 0.0
H1063 H 0.61233 0.25541 0.1519 0.0
H1064 H 0.62007 0.30315 0.36503 0.0
H1065 H 0.63513 0.18324 0.30521 0.0
H1066 H 0.65062 0.13544 0.24845 0.0
H1067 H 0.69015 0.16472 0.3523 0.0
H1068 H 0.67492 0.21306 0.40899 0.0
H1069 H 0.61039 0.25005 0.70277 0.0
H1070 H 0.61089 0.25095 0.5804 0.0
H1071 H 0.65903 0.26072 0.5842 0.0
H1072 H 0.65869 0.25968 0.70622 0.0
H1073 H 0.65108 0.21166 0.49276 0.0
H1074 H 0.63572 0.3316 0.55314 0.0
H1075 H 0.61998 0.37888 0.61016 0.0
H1076 H 0.58071 0.34895 0.50525 0.0
H1077 H 0.59618 0.3011 0.44832 0.0
C1078 C 0.65002 0.26179 0.17993 0.0
C1079 C 0.63657 0.25945 0.14343 0.0
C1080 C 0.64979 0.26136 0.24984 0.0
C1081 C 0.63615 0.25857 0.28437 0.0
C1082 C 0.62269 0.25685 0.24812 0.0
C1083 C 0.6229 0.25713 0.17835 0.0
C1084 C 0.63586 0.25718 0.35836 0.0
C1085 C 0.62671 0.28291 0.39298 0.0
C1086 C 0.64473 0.23111 0.39468 0.0
C1087 C 0.65392 0.20201 0.36081 0.0
C1088 C 0.64715 0.17968 0.31552 0.0
C1089 C 0.65588 0.15245 0.28344 0.0
C1090 C 0.67137 0.14711 0.29662 0.0
C1091 C 0.67815 0.16893 0.34206 0.0
C1092 C 0.66948 0.19623 0.37422 0.0
C1093 C 0.62109 0.25232 0.6776 0.0
C1094 C 0.63449 0.25495 0.71428 0.0
C1095 C 0.62134 0.25295 0.60771 0.0
C1096 C 0.63498 0.25619 0.57338 0.0
C1097 C 0.64839 0.25823 0.6098 0.0
C1098 C 0.64815 0.25778 0.67958 0.0
C1099 C 0.6353 0.25764 0.49941 0.0
C1100 C 0.64445 0.23192 0.4648 0.0
C1101 C 0.62639 0.28365 0.4631 0.0
C1102 C 0.61708 0.31253 0.49699 0.0
C1103 C 0.6237 0.3349 0.54264 0.0
C1104 C 0.61484 0.36184 0.57487 0.0
C1105 C 0.59935 0.36686 0.56147 0.0
C1106 C 0.5927 0.345 0.51566 0.0
C1107 C 0.60152 0.31798 0.48336 0.0
H1108 H 0.5925 0.38773 0.58647 0.0
H1109 H 0.6781 0.126 0.27176 0.0
H1110 H 0.39997 0.25971 0.1575 0.0
H1111 H 0.39997 0.26049 0.2794 0.0
H1112 H 0.3518 0.25109 0.28062 0.0
H1113 H 0.35167 0.25028 0.15795 0.0
H1114 H 0.36051 0.3032 0.36663 0.0
H1115 H 0.37382 0.18093 0.32501 0.0
H1116 H 0.38777 0.12908 0.27386 0.0
H1117 H 0.42938 0.16092 0.35564 0.0
H1118 H 0.41564 0.21303 0.40741 0.0
H1119 H 0.35416 0.26062 0.70973 0.0
H1120 H 0.35389 0.25987 0.58802 0.0
H1121 H 0.40209 0.2688 0.58465 0.0
H1122 H 0.40253 0.26925 0.70727 0.0
H1123 H 0.3931 0.21697 0.4997 0.0
H1124 H 0.37858 0.3394 0.54516 0.0
H1125 H 0.36347 0.38833 0.60054 0.0
H1126 H 0.32293 0.35393 0.51286 0.0
H1127 H 0.33778 0.30458 0.45741 0.0
C1128 C 0.38935 0.2577 0.1835 0.0
C1129 C 0.3758 0.25492 0.14796 0.0
C1130 C 0.3894 0.25801 0.25325 0.0
C1131 C 0.3759 0.25564 0.28898 0.0
C1132 C 0.36233 0.25292 0.25385 0.0
C1133 C 0.36229 0.2523 0.18385 0.0
C1134 C 0.37605 0.25667 0.36304 0.0
C1135 C 0.36747 0.28408 0.39584 0.0
C1136 C 0.38536 0.23212 0.40091 0.0
C1137 C 0.39372 0.20105 0.36948 0.0
C1138 C 0.38596 0.17704 0.33161 0.0
C1139 C 0.39383 0.14755 0.30266 0.0
C1140 C 0.40947 0.1418 0.31116 0.0
C1141 C 0.41727 0.16545 0.34898 0.0
C1142 C 0.40944 0.1949 0.37832 0.0
C1143 C 0.36474 0.26257 0.68337 0.0
C1144 C 0.37839 0.26504 0.71835 0.0
C1145 C 0.36453 0.26228 0.61366 0.0
C1146 C 0.37794 0.26461 0.57735 0.0
C1147 C 0.39161 0.26706 0.61188 0.0
C1148 C 0.39183 0.26747 0.68187 0.0
C1149 C 0.37765 0.26362 0.50331 0.0
C1150 C 0.38619 0.23618 0.47049 0.0
C1151 C 0.3682 0.28798 0.46554 0.0
C1152 C 0.35928 0.31814 0.49752 0.0
C1153 C 0.36643 0.34218 0.53791 0.0
C1154 C 0.35792 0.37001 0.56927 0.0
C1155 C 0.34225 0.37419 0.56033 0.0
C1156 C 0.33507 0.35066 0.51973 0.0
C1157 C 0.34353 0.3228 0.48821 0.0
H1158 H 0.33567 0.3957 0.58478 0.0
H1159 H 0.41555 0.11897 0.28864 0.0
H1160 H 0.06786 0.30448 0.59537 0.0
H1161 H 0.0404 0.30354 0.59037 0.0
H1162 H 0.04522 0.20276 0.49 0.0
H1163 H 0.07296 0.20381 0.49432 0.0
H1164 H 0.02301 0.24714 0.43274 0.0
H1165 H 0.03563 0.20733 0.6542 0.0
H1166 H 0.04766 0.20937 0.76518 0.0
H1167 H 0.02255 0.30831 0.80643 0.0
H1168 H 0.01052 0.30712 0.69526 0.0
H1169 H 0.94592 0.21093 0.48233 0.0
H1170 H 0.97354 0.20948 0.47955 0.0
H1171 H 0.97176 0.30786 0.58817 0.0
H1172 H 0.94406 0.30903 0.59202 0.0
H1173 H 0.99262 0.262 0.64061 0.0
H1174 H 0.9804 0.30256 0.41834 0.0
H1175 H 0.96846 0.30082 0.30714 0.0
H1176 H 0.99274 0.2007 0.26729 0.0
H1177 H 1.00468 0.20162 0.37868 0.0
C1178 C 0.0631 0.28205 0.57222 0.0
C1179 C 0.07258 0.25411 0.54553 0.0
C1180 C 0.04737 0.2815 0.56962 0.0
C1181 C 0.04068 0.25286 0.54067 0.0
C1182 C 0.0501 0.2251 0.51283 0.0
C1183 C 0.06594 0.22564 0.51547 0.0
C1184 C 0.02385 0.25225 0.53986 0.0
C1185 C 0.01637 0.2498 0.4783 0.0
C1186 C 0.01512 0.25655 0.59909 0.0
C1187 C 0.02227 0.25727 0.66614 0.0
C1188 C 0.03276 0.22966 0.68673 0.0
C1189 C 0.03956 0.23064 0.74971 0.0
C1190 C 0.03589 0.25899 0.79277 0.0
C1191 C 0.02539 0.28638 0.773 0.0
C1192 C 0.01856 0.28555 0.71003 0.0
C1193 C 0.95141 0.23243 0.50508 0.0
C1194 C 0.94281 0.26016 0.53724 0.0
C1195 C 0.96722 0.23164 0.50326 0.0
C1196 C 0.97482 0.25873 0.53308 0.0
C1197 C 0.96621 0.28665 0.56474 0.0
C1198 C 0.95037 0.2874 0.56667 0.0
C1199 C 0.99172 0.25728 0.5334 0.0
C1200 C 0.99923 0.25927 0.59498 0.0
C1201 C 1.00046 0.25257 0.47419 0.0
C1202 C 0.99332 0.252 0.40713 0.0
C1203 C 0.9831 0.28004 0.38608 0.0
C1204 C 0.97635 0.27922 0.32298 0.0
C1205 C 0.9798 0.25062 0.28025 0.0
C1206 C 0.99006 0.22282 0.30048 0.0
C1207 C 0.99683 0.22348 0.36357 0.0
H1208 H 0.97456 0.25004 0.23141 0.0
H1209 H 0.04117 0.2597 0.84151 0.0
H1210 H 0.9436 0.80698 0.4031 0.0
H1211 H 0.97132 0.80508 0.40443 0.0
H1212 H 0.97318 0.70707 0.51453 0.0
H1213 H 0.94549 0.70914 0.51401 0.0
H1214 H 0.99369 0.74897 0.56259 0.0
H1215 H 0.97989 0.70778 0.34628 0.0
H1216 H 0.96641 0.7104 0.23826 0.0
H1217 H 0.98723 0.80514 0.18661 0.0
H1218 H 1.00067 0.80335 0.29478 0.0
H1219 H 0.0728 0.70364 0.49896 0.0
H1220 H 0.04512 0.70249 0.50564 0.0
H1221 H 0.03978 0.79958 0.39276 0.0
H1222 H 0.06721 0.80049 0.38523 0.0
H1223 H 0.02102 0.75484 0.34687 0.0
H1224 H 0.03432 0.79681 0.56479 0.0
H1225 H 0.04774 0.79408 0.67293 0.0
H1226 H 0.02798 0.69753 0.72138 0.0
H1227 H 0.01459 0.69945 0.61306 0.0
C1228 C 0.94993 0.78521 0.42805 0.0
C1229 C 0.94238 0.75815 0.45821 0.0
C1230 C 0.96578 0.78402 0.4285 0.0
C1231 C 0.97441 0.75563 0.45874 0.0
C1232 C 0.96683 0.72919 0.49074 0.0
C1233 C 0.95099 0.73037 0.49029 0.0
C1234 C 0.99131 0.75305 0.4556 0.0
C1235 C 0.99967 0.7498 0.51533 0.0
C1236 C 0.99918 0.75455 0.39412 0.0
C1237 C 0.99117 0.75561 0.3289 0.0
C1238 C 0.9815 0.72932 0.31209 0.0
C1239 C 0.97389 0.73063 0.25081 0.0
C1240 C 0.97593 0.75797 0.20567 0.0
C1241 C 0.98564 0.784 0.22166 0.0
C1242 C 0.99327 0.78284 0.28293 0.0
C1243 C 0.06568 0.72466 0.47564 0.0
C1244 C 0.07217 0.75215 0.44163 0.0
C1245 C 0.04986 0.72411 0.4797 0.0
C1246 C 0.04028 0.75114 0.45014 0.0
C1247 C 0.04685 0.77839 0.41588 0.0
C1248 C 0.06257 0.77892 0.41178 0.0
C1249 C 0.02343 0.75128 0.45391 0.0
C1250 C 0.01506 0.75395 0.39417 0.0
C1251 C 0.01558 0.74922 0.51537 0.0
C1252 C 0.02359 0.74807 0.58053 0.0
C1253 C 0.03293 0.77485 0.59828 0.0
C1254 C 0.04052 0.77348 0.65964 0.0
C1255 C 0.03875 0.7456 0.70391 0.0
C1256 C 0.02936 0.71908 0.68698 0.0
C1257 C 0.02177 0.72031 0.62564 0.0
H1258 H 0.04463 0.74458 0.7514 0.0
H1259 H 0.97003 0.75894 0.15825 0.0
H1260 H 0.56824 0.81384 0.02075 0.0
H1261 H 0.5406 0.81555 0.0177 0.0
H1262 H 0.54282 0.70337 0.05517 0.0
H1263 H 0.5706 0.70156 0.05831 0.0
H1264 H 0.52202 0.72428 0.95615 0.0
H1265 H 0.53382 0.76017 0.17985 0.0
H1266 H 0.54574 0.79625 0.26441 0.0
H1267 H 0.52161 0.88995 0.18673 0.0
H1268 H 0.5097 0.85447 0.10107 0.0
H1269 H 0.44601 0.70702 0.04615 0.0
H1270 H 0.47349 0.70725 0.04194 0.0
H1271 H 0.4695 0.82118 0.03287 0.0
H1272 H 0.4418 0.82099 0.03966 0.0
H1273 H 0.49136 0.801 0.11411 0.0
H1274 H 0.4791 0.76682 0.89228 0.0
H1275 H 0.46732 0.73226 0.80493 0.0
H1276 H 0.49232 0.63773 0.87388 0.0
H1277 H 0.50411 0.67164 0.96226 0.0
C1278 C 0.56286 0.78949 0.02811 0.0
C1279 C 0.57159 0.75756 0.03997 0.0
C1280 C 0.54704 0.79054 0.02661 0.0
C1281 C 0.53958 0.75967 0.03694 0.0
C1282 C 0.54831 0.72755 0.04722 0.0
C1283 C 0.56417 0.72653 0.04912 0.0
C1284 C 0.52271 0.76107 0.03762 0.0
C1285 C 0.51531 0.7407 0.99124 0.0
C1286 C 0.51391 0.78337 0.08193 0.0
C1287 C 0.52099 0.80471 0.13364 0.0
C1288 C 0.53115 0.7885 0.18047 0.0
C1289 C 0.53788 0.80884 0.22866 0.0
C1290 C 0.53446 0.84538 0.23083 0.0
C1291 C 0.52426 0.86165 0.18493 0.0
C1292 C 0.51751 0.84144 0.13659 0.0
C1293 C 0.45097 0.73216 0.04294 0.0
C1294 C 0.44174 0.764 0.04286 0.0
C1295 C 0.46673 0.73225 0.04011 0.0
C1296 C 0.47369 0.76419 0.03571 0.0
C1297 C 0.46446 0.79614 0.03592 0.0
C1298 C 0.44863 0.79605 0.03956 0.0
C1299 C 0.49057 0.76404 0.03272 0.0
C1300 C 0.49801 0.78466 0.07871 0.0
C1301 C 0.49941 0.74221 0.98754 0.0
C1302 C 0.49239 0.72174 0.93427 0.0
C1303 C 0.48201 0.73862 0.88912 0.0
C1304 C 0.47534 0.71915 0.83937 0.0
C1305 C 0.47904 0.68281 0.83395 0.0
C1306 C 0.48945 0.66587 0.87817 0.0
C1307 C 0.49614 0.68521 0.92806 0.0
H1308 H 0.47387 0.66778 0.79541 0.0
H1309 H 0.53969 0.86108 0.26818 0.0
H1310 H 0.44108 0.3206 0.96327 0.0
H1311 H 0.46873 0.32145 0.9675 0.0
H1312 H 0.47329 0.20781 0.95001 0.0
H1313 H 0.44579 0.20687 0.9482 0.0
H1314 H 0.49277 0.22598 0.03625 0.0
H1315 H 0.47902 0.26627 0.81472 0.0
H1316 H 0.46548 0.30451 0.73084 0.0
H1317 H 0.48528 0.39504 0.81139 0.0
H1318 H 0.49879 0.35737 0.89632 0.0
H1319 H 0.57006 0.20345 0.93194 0.0
H1320 H 0.54235 0.20511 0.93741 0.0
H1321 H 0.54015 0.31737 0.97388 0.0
H1322 H 0.56778 0.31583 0.96802 0.0
H1323 H 0.51964 0.3016 0.8811 0.0
H1324 H 0.53429 0.25935 0.10009 0.0
H1325 H 0.54807 0.21981 0.18119 0.0
H1326 H 0.52674 0.13119 0.10154 0.0
H1327 H 0.51298 0.17014 0.01932 0.0
C1328 C 0.44802 0.29585 0.96065 0.0
C1329 C 0.44127 0.26369 0.95525 0.0
C1330 C 0.46383 0.29633 0.96263 0.0
C1331 C 0.47322 0.2647 0.95804 0.0
C1332 C 0.4664 0.23259 0.95366 0.0
C1333 C 0.45064 0.23209 0.95243 0.0
C1334 C 0.4901 0.26473 0.95741 0.0
C1335 C 0.49861 0.24226 0.00171 0.0
C1336 C 0.49786 0.28641 0.91342 0.0
C1337 C 0.48979 0.30907 0.8623 0.0
C1338 C 0.4804 0.29437 0.81484 0.0
C1339 C 0.47274 0.31593 0.76706 0.0
C1340 C 0.47448 0.3522 0.76591 0.0
C1341 C 0.48392 0.36695 0.81242 0.0
C1342 C 0.49159 0.34551 0.86035 0.0
C1343 C 0.56365 0.22842 0.94145 0.0
C1344 C 0.57109 0.25948 0.94975 0.0
C1345 C 0.54782 0.22935 0.94476 0.0
C1346 C 0.53911 0.26136 0.95659 0.0
C1347 C 0.54657 0.29238 0.9647 0.0
C1348 C 0.56238 0.29143 0.9616 0.0
C1349 C 0.52224 0.26269 0.95951 0.0
C1350 C 0.51376 0.28541 0.91569 0.0
C1351 C 0.51452 0.24104 0.00352 0.0
C1352 C 0.52271 0.21761 0.05315 0.0
C1353 C 0.53262 0.23139 0.09954 0.0
C1354 C 0.54041 0.20909 0.14577 0.0
C1355 C 0.53831 0.173 0.14641 0.0
C1356 C 0.52837 0.15914 0.10093 0.0
C1357 C 0.52056 0.18132 0.05455 0.0
H1358 H 0.54435 0.15578 0.18223 0.0
H1359 H 0.46854 0.36885 0.72889 0.0
loop_
_geom_bond_atom_site_label_1
_geom_bond_atom_site_label_2
_geom_bond_distance
_geom_bond_site_symmetry_2
_ccdc_geom_bond_type
Dy0 O4 2.398 . S
Dy0 O5 2.491 . S
Dy0 O6 2.403 . S
Dy0 O7 2.664 . S
Dy0 O11 2.326 . S
Dy0 O15 2.310 . S
Dy0 O16 2.351 . S
C1 O12 1.185 . S
C1 O13 1.355 . S
C2 O4 1.185 . S
C2 O5 1.355 . S
Dy3 O7 2.310 . S
Dy3 O10 2.351 . S
Dy3 O12 2.398 . S
Dy3 O13 2.491 . S
Dy3 O14 2.403 . S
Dy3 O15 2.664 . S
Dy3 O17 2.326 . S
O4 Dy0 2.398 . S
O4 C2 1.185 . S
O5 Dy0 2.491 . S
O5 C2 1.355 . S
O6 Dy0 2.403 . S
O6 C8 1.254 . S
O7 Dy0 2.664 . S
O7 Dy3 2.310 . S
O7 C8 1.268 . S
C8 O6 1.254 . S
C8 O7 1.268 . S
C9 O14 1.254 . S
C9 O15 1.268 . S
O10 Dy3 2.351 . S
O10 C18 1.249 . S
O11 Dy0 2.326 . S
O11 C18 1.267 . S
O12 C1 1.185 . S
O12 Dy3 2.398 . S
O13 C1 1.355 . S
O13 Dy3 2.491 . S
O14 Dy3 2.403 . S
O14 C9 1.254 . S
O15 Dy0 2.310 . S
O15 Dy3 2.664 . S
O15 C9 1.268 . S
O16 Dy0 2.351 . S
O16 C19 1.249 . S
O17 Dy3 2.326 . S
O17 C19 1.267 . S
C18 O10 1.249 . S
C18 O11 1.267 . S
C19 O16 1.249 . S
C19 O17 1.267 . S
Dy20 O24 2.398 . S
Dy20 O25 2.491 . S
Dy20 O26 2.403 . S
Dy20 O27 2.664 . S
Dy20 O31 2.326 . S
Dy20 O35 2.310 . S
Dy20 O36 2.351 . S
C21 O32 1.185 . S
C21 O33 1.355 . S
C22 O24 1.185 . S
C22 O25 1.355 . S
Dy23 O27 2.310 . S
Dy23 O30 2.351 . S
Dy23 O32 2.398 . S
Dy23 O33 2.491 . S
Dy23 O34 2.403 . S
Dy23 O35 2.664 . S
Dy23 O37 2.326 . S
O24 Dy20 2.398 . S
O24 C22 1.185 . S
O25 Dy20 2.491 . S
O25 C22 1.355 . S
O26 Dy20 2.403 . S
O26 C28 1.254 . S
O27 Dy20 2.664 . S
O27 Dy23 2.310 . S
O27 C28 1.268 . S
C28 O26 1.254 . S
C28 O27 1.268 . S
C29 O34 1.254 . S
C29 O35 1.268 . S
O30 Dy23 2.351 . S
O30 C38 1.249 . S
O31 Dy20 2.326 . S
O31 C38 1.267 . S
O32 C21 1.185 . S
O32 Dy23 2.398 . S
O33 C21 1.355 . S
O33 Dy23 2.491 . S
O34 Dy23 2.403 . S
O34 C29 1.254 . S
O35 Dy20 2.310 . S
O35 Dy23 2.664 . S
O35 C29 1.268 . S
O36 Dy20 2.351 . S
O36 C39 1.249 . S
O37 Dy23 2.326 . S
O37 C39 1.267 . S
C38 O30 1.249 . S
C38 O31 1.267 . S
C39 O36 1.249 . S
C39 O37 1.267 . S
Dy40 O44 2.398 . S
Dy40 O45 2.491 . S
Dy40 O46 2.403 . S
Dy40 O47 2.664 . S
Dy40 O51 2.326 . S
Dy40 O55 2.310 . S
Dy40 O56 2.351 . S
C41 O52 1.185 . S
C41 O53 1.355 . S
C42 O44 1.185 . S
C42 O45 1.355 . S
Dy43 O47 2.310 . S
Dy43 O50 2.351 . S
Dy43 O52 2.398 . S
Dy43 O53 2.491 . S
Dy43 O54 2.403 . S
Dy43 O55 2.664 . S
Dy43 O57 2.326 . S
O44 Dy40 2.398 . S
O44 C42 1.185 . S
O45 Dy40 2.491 . S
O45 C42 1.355 . S
O46 Dy40 2.403 . S
O46 C48 1.254 . S
O47 Dy40 2.664 . S
O47 Dy43 2.310 . S
O47 C48 1.268 . S
C48 O46 1.254 . S
C48 O47 1.268 . S
C49 O54 1.254 . S
C49 O55 1.268 . S
O50 Dy43 2.351 . S
O50 C58 1.249 . S
O51 Dy40 2.326 . S
O51 C58 1.267 . S
O52 C41 1.185 . S
O52 Dy43 2.398 . S
O53 C41 1.355 . S
O53 Dy43 2.491 . S
O54 Dy43 2.403 . S
O54 C49 1.254 . S
O55 Dy40 2.310 . S
O55 Dy43 2.664 . S
O55 C49 1.268 . S
O56 Dy40 2.351 . S
O56 C59 1.249 . S
O57 Dy43 2.326 . S
O57 C59 1.267 . S
C58 O50 1.249 . S
C58 O51 1.267 . S
C59 O56 1.249 . S
C59 O57 1.267 . S
Dy60 O64 2.398 . S
Dy60 O65 2.491 . S
Dy60 O66 2.403 . S
Dy60 O67 2.664 . S
Dy60 O71 2.326 . S
Dy60 O75 2.310 . S
Dy60 O76 2.351 . S
C61 O72 1.185 . S
C61 O73 1.355 . S
C62 O64 1.185 . S
C62 O65 1.355 . S
Dy63 O67 2.310 . S
Dy63 O70 2.351 . S
Dy63 O72 2.398 . S
Dy63 O73 2.491 . S
Dy63 O74 2.403 . S
Dy63 O75 2.664 . S
Dy63 O77 2.326 . S
O64 Dy60 2.398 . S
O64 C62 1.185 . S
O65 Dy60 2.491 . S
O65 C62 1.355 . S
O66 Dy60 2.403 . S
O66 C68 1.254 . S
O67 Dy60 2.664 . S
O67 Dy63 2.310 . S
O67 C68 1.268 . S
C68 O66 1.254 . S
C68 O67 1.268 . S
C69 O74 1.254 . S
C69 O75 1.268 . S
O70 Dy63 2.351 . S
O70 C78 1.249 . S
O71 Dy60 2.326 . S
O71 C78 1.267 . S
O72 C61 1.185 . S
O72 Dy63 2.398 . S
O73 C61 1.355 . S
O73 Dy63 2.491 . S
O74 Dy63 2.403 . S
O74 C69 1.254 . S
O75 Dy60 2.310 . S
O75 Dy63 2.664 . S
O75 C69 1.268 . S
O76 Dy60 2.351 . S
O76 C79 1.249 . S
O77 Dy63 2.326 . S
O77 C79 1.267 . S
C78 O70 1.249 . S
C78 O71 1.267 . S
C79 O76 1.249 . S
C79 O77 1.267 . S
Dy80 O84 2.398 1_556 S
Dy80 O85 2.491 1_556 S
Dy80 O86 2.403 . S
Dy80 O87 2.664 . S
Dy80 O91 2.326 1_556 S
Dy80 O95 2.310 1_556 S
Dy80 O96 2.351 . S
C81 O92 1.185 . S
C81 O93 1.355 . S
C82 O84 1.185 . S
C82 O85 1.355 . S
Dy83 O87 2.310 1_554 S
Dy83 O90 2.351 . S
Dy83 O92 2.398 1_554 S
Dy83 O93 2.491 1_554 S
Dy83 O94 2.403 . S
Dy83 O95 2.664 . S
Dy83 O97 2.326 1_554 S
O84 Dy80 2.398 1_554 S
O84 C82 1.185 . S
O85 Dy80 2.491 1_554 S
O85 C82 1.355 . S
O86 Dy80 2.403 . S
O86 C88 1.254 . S
O87 Dy80 2.664 . S
O87 Dy83 2.310 1_556 S
O87 C88 1.268 . S
C88 O86 1.254 . S
C88 O87 1.268 . S
C89 O94 1.254 . S
C89 O95 1.268 . S
O90 Dy83 2.351 . S
O90 C98 1.249 . S
O91 Dy80 2.326 1_554 S
O91 C98 1.267 . S
O92 C81 1.185 . S
O92 Dy83 2.398 1_556 S
O93 C81 1.355 . S
O93 Dy83 2.491 1_556 S
O94 Dy83 2.403 . S
O94 C89 1.254 . S
O95 Dy80 2.310 1_554 S
O95 Dy83 2.664 . S
O95 C89 1.268 . S
O96 Dy80 2.351 . S
O96 C99 1.249 . S
O97 Dy83 2.326 1_556 S
O97 C99 1.267 . S
C98 O90 1.249 . S
C98 O91 1.267 . S
C99 O96 1.249 . S
C99 O97 1.267 . S
Dy100 O104 2.398 1_556 S
Dy100 O105 2.491 1_556 S
Dy100 O106 2.403 . S
Dy100 O107 2.664 . S
Dy100 O111 2.326 1_556 S
Dy100 O115 2.310 1_556 S
Dy100 O116 2.351 . S
C101 O112 1.185 . S
C101 O113 1.355 . S
C102 O104 1.185 . S
C102 O105 1.355 . S
Dy103 O107 2.310 1_554 S
Dy103 O110 2.351 . S
Dy103 O112 2.398 1_554 S
Dy103 O113 2.491 1_554 S
Dy103 O114 2.403 . S
Dy103 O115 2.664 . S
Dy103 O117 2.326 1_554 S
O104 Dy100 2.398 1_554 S
O104 C102 1.185 . S
O105 Dy100 2.491 1_554 S
O105 C102 1.355 . S
O106 Dy100 2.403 . S
O106 C108 1.254 . S
O107 Dy100 2.664 . S
O107 Dy103 2.310 1_556 S
O107 C108 1.268 . S
C108 O106 1.254 . S
C108 O107 1.268 . S
C109 O114 1.254 . S
C109 O115 1.268 . S
O110 Dy103 2.351 . S
O110 C118 1.249 . S
O111 Dy100 2.326 1_554 S
O111 C118 1.267 . S
O112 C101 1.185 . S
O112 Dy103 2.398 1_556 S
O113 C101 1.355 . S
O113 Dy103 2.491 1_556 S
O114 Dy103 2.403 . S
O114 C109 1.254 . S
O115 Dy100 2.310 1_554 S
O115 Dy103 2.664 . S
O115 C109 1.268 . S
O116 Dy100 2.351 . S
O116 C119 1.249 . S
O117 Dy103 2.326 1_556 S
O117 C119 1.267 . S
C118 O110 1.249 . S
C118 O111 1.267 . S
C119 O116 1.249 . S
C119 O117 1.267 . S
Dy120 O124 2.398 1_556 S
Dy120 O125 2.491 1_556 S
Dy120 O126 2.403 . S
Dy120 O127 2.664 . S
Dy120 O131 2.326 1_556 S
Dy120 O135 2.310 1_556 S
Dy120 O136 2.351 . S
C121 O132 1.185 . S
C121 O133 1.355 . S
C122 O124 1.185 . S
C122 O125 1.355 . S
Dy123 O127 2.310 1_554 S
Dy123 O130 2.351 . S
Dy123 O132 2.398 1_554 S
Dy123 O133 2.491 1_554 S
Dy123 O134 2.403 . S
Dy123 O135 2.664 . S
Dy123 O137 2.326 1_554 S
O124 Dy120 2.398 1_554 S
O124 C122 1.185 . S
O125 Dy120 2.491 1_554 S
O125 C122 1.355 . S
O126 Dy120 2.403 . S
O126 C128 1.254 . S
O127 Dy120 2.664 . S
O127 Dy123 2.310 1_556 S
O127 C128 1.268 . S
C128 O126 1.254 . S
C128 O127 1.268 . S
C129 O134 1.254 . S
C129 O135 1.268 . S
O130 Dy123 2.351 . S
O130 C138 1.249 . S
O131 Dy120 2.326 1_554 S
O131 C138 1.267 . S
O132 C121 1.185 . S
O132 Dy123 2.398 1_556 S
O133 C121 1.355 . S
O133 Dy123 2.491 1_556 S
O134 Dy123 2.403 . S
O134 C129 1.254 . S
O135 Dy120 2.310 1_554 S
O135 Dy123 2.664 . S
O135 C129 1.268 . S
O136 Dy120 2.351 . S
O136 C139 1.249 . S
O137 Dy123 2.326 1_556 S
O137 C139 1.267 . S
C138 O130 1.249 . S
C138 O131 1.267 . S
C139 O136 1.249 . S
C139 O137 1.267 . S
Dy140 O144 2.398 1_556 S
Dy140 O145 2.491 1_556 S
Dy140 O146 2.403 . S
Dy140 O147 2.664 . S
Dy140 O151 2.326 1_556 S
Dy140 O155 2.310 1_556 S
Dy140 O156 2.351 . S
C141 O152 1.185 . S
C141 O153 1.355 . S
C142 O144 1.185 . S
C142 O145 1.355 . S
Dy143 O147 2.310 1_554 S
Dy143 O150 2.351 . S
Dy143 O152 2.398 1_554 S
Dy143 O153 2.491 1_554 S
Dy143 O154 2.403 . S
Dy143 O155 2.664 . S
Dy143 O157 2.326 1_554 S
O144 Dy140 2.398 1_554 S
O144 C142 1.185 . S
O145 Dy140 2.491 1_554 S
O145 C142 1.355 . S
O146 Dy140 2.403 . S
O146 C148 1.254 . S
O147 Dy140 2.664 . S
O147 Dy143 2.310 1_556 S
O147 C148 1.268 . S
C148 O146 1.254 . S
C148 O147 1.268 . S
C149 O154 1.254 . S
C149 O155 1.268 . S
O150 Dy143 2.351 . S
O150 C158 1.249 . S
O151 Dy140 2.326 1_554 S
O151 C158 1.267 . S
O152 C141 1.185 . S
O152 Dy143 2.398 1_556 S
O153 C141 1.355 . S
O153 Dy143 2.491 1_556 S
O154 Dy143 2.403 . S
O154 C149 1.254 . S
O155 Dy140 2.310 1_554 S
O155 Dy143 2.664 . S
O155 C149 1.268 . S
O156 Dy140 2.351 . S
O156 C159 1.249 . S
O157 Dy143 2.326 1_556 S
O157 C159 1.267 . S
C158 O150 1.249 . S
C158 O151 1.267 . S
C159 O156 1.249 . S
C159 O157 1.267 . S
H160 C178 0.951 . S
H161 C180 0.951 . S
H162 C182 0.950 . S
H163 C183 0.950 . S
H164 C185 0.950 . S
H165 C188 0.950 . S
H166 C189 0.950 . S
H167 C191 0.950 . S
H168 C192 0.950 . S
H169 C193 0.951 . S
H170 C195 0.951 . S
H171 C197 0.950 . S
H172 C198 0.950 . S
H173 C200 0.950 . S
H174 C203 0.950 . S
H175 C204 0.950 . S
H176 C206 0.950 . S
H177 C207 0.950 . S
C178 H160 0.951 . S
C178 C179 1.366 . S
C178 C180 1.388 . S
C179 C178 1.366 . S
C179 C183 1.385 . S
C180 H161 0.951 . S
C180 C178 1.388 . S
C180 C181 1.366 . S
C181 C180 1.366 . S
C181 C182 1.414 . S
C181 C184 1.499 . S
C182 H162 0.950 . S
C182 C181 1.414 . S
C182 C183 1.374 . S
C183 H163 0.950 . S
C183 C179 1.385 . S
C183 C182 1.374 . S
C184 C181 1.499 . S
C184 C185 1.373 . S
C184 C186 1.389 . S
C185 H164 0.950 . S
C185 C184 1.373 . S
C185 C201 1.377 . S
C186 C184 1.389 . S
C186 C187 1.524 . S
C186 C200 1.377 . S
C187 C186 1.524 . S
C187 C188 1.397 . S
C187 C192 1.363 . S
C188 H165 0.950 . S
C188 C187 1.397 . S
C188 C189 1.334 . S
C189 H166 0.950 . S
C189 C188 1.334 . S
C189 C190 1.287 . S
C190 C189 1.287 . S
C190 C191 1.524 . S
C190 H209 0.913 . S
C191 H167 0.950 . S
C191 C190 1.524 . S
C191 C192 1.415 . S
C192 H168 0.950 . S
C192 C187 1.363 . S
C192 C191 1.415 . S
C193 H169 0.951 . S
C193 C194 1.366 . S
C193 C195 1.388 . S
C194 C193 1.366 . S
C194 C198 1.385 . S
C195 H170 0.951 . S
C195 C193 1.388 . S
C195 C196 1.366 . S
C196 C195 1.366 . S
C196 C197 1.414 . S
C196 C199 1.499 . S
C197 H171 0.950 . S
C197 C196 1.414 . S
C197 C198 1.374 . S
C198 H172 0.950 . S
C198 C194 1.385 . S
C198 C197 1.374 . S
C199 C196 1.499 . S
C199 C200 1.373 . S
C199 C201 1.389 . S
C200 H173 0.950 . S
C200 C186 1.377 . S
C200 C199 1.373 . S
C201 C185 1.377 . S
C201 C199 1.389 . S
C201 C202 1.524 . S
C202 C201 1.524 . S
C202 C203 1.397 . S
C202 C207 1.363 . S
C203 H174 0.950 . S
C203 C202 1.397 . S
C203 C204 1.334 . S
C204 H175 0.950 . S
C204 C203 1.334 . S
C204 C205 1.287 . S
C205 C204 1.287 . S
C205 C206 1.524 . S
C205 H208 0.999 . S
C206 H176 0.950 . S
C206 C205 1.524 . S
C206 C207 1.415 . S
C207 H177 0.950 . S
C207 C202 1.363 . S
C207 C206 1.415 . S
H208 C205 0.999 . S
H209 C190 0.913 . S
H210 C228 0.951 . S
H211 C230 0.951 . S
H212 C232 0.950 . S
H213 C233 0.950 . S
H214 C235 0.950 . S
H215 C238 0.950 . S
H216 C239 0.950 . S
H217 C241 0.950 . S
H218 C242 0.950 . S
H219 C243 0.951 . S
H220 C245 0.951 . S
H221 C247 0.950 . S
H222 C248 0.950 . S
H223 C250 0.950 . S
H224 C253 0.950 . S
H225 C254 0.950 . S
H226 C256 0.950 . S
H227 C257 0.950 . S
C228 H210 0.951 . S
C228 C229 1.366 . S
C228 C230 1.388 . S
C229 C228 1.366 . S
C229 C233 1.385 . S
C230 H211 0.951 . S
C230 C228 1.388 . S
C230 C231 1.366 . S
C231 C230 1.366 . S
C231 C232 1.414 . S
C231 C234 1.499 . S
C232 H212 0.950 . S
C232 C231 1.414 . S
C232 C233 1.374 . S
C233 H213 0.950 . S
C233 C229 1.385 . S
C233 C232 1.374 . S
C234 C231 1.499 . S
C234 C235 1.373 . S
C234 C236 1.389 . S
C235 H214 0.950 . S
C235 C234 1.373 . S
C235 C251 1.377 . S
C236 C234 1.389 . S
C236 C237 1.524 . S
C236 C250 1.377 . S
C237 C236 1.524 . S
C237 C238 1.397 . S
C237 C242 1.363 . S
C238 H215 0.950 . S
C238 C237 1.397 . S
C238 C239 1.334 . S
C239 H216 0.950 . S
C239 C238 1.334 . S
C239 C240 1.287 . S
C240 C239 1.287 . S
C240 C241 1.524 . S
C240 H259 0.913 . S
C241 H217 0.950 . S
C241 C240 1.524 . S
C241 C242 1.415 . S
C242 H218 0.950 . S
C242 C237 1.363 . S
C242 C241 1.415 . S
C243 H219 0.951 . S
C243 C244 1.366 . S
C243 C245 1.388 . S
C244 C243 1.366 . S
C244 C248 1.385 . S
C245 H220 0.951 . S
C245 C243 1.388 . S
C245 C246 1.366 . S
C246 C245 1.366 . S
C246 C247 1.414 . S
C246 C249 1.499 . S
C247 H221 0.950 . S
C247 C246 1.414 . S
C247 C248 1.374 . S
C248 H222 0.950 . S
C248 C244 1.385 . S
C248 C247 1.374 . S
C249 C246 1.499 . S
C249 C250 1.373 . S
C249 C251 1.389 . S
C250 H223 0.950 . S
C250 C236 1.377 . S
C250 C249 1.373 . S
C251 C235 1.377 . S
C251 C249 1.389 . S
C251 C252 1.524 . S
C252 C251 1.524 . S
C252 C253 1.397 . S
C252 C257 1.363 . S
C253 H224 0.950 . S
C253 C252 1.397 . S
C253 C254 1.334 . S
C254 H225 0.950 . S
C254 C253 1.334 . S
C254 C255 1.287 . S
C255 C254 1.287 . S
C255 C256 1.524 . S
C255 H258 0.999 . S
C256 H226 0.950 . S
C256 C255 1.524 . S
C256 C257 1.415 . S
C257 H227 0.950 . S
C257 C252 1.363 . S
C257 C256 1.415 . S
H258 C255 0.999 . S
H259 C240 0.913 . S
H260 C278 0.951 . S
H261 C280 0.951 . S
H262 C282 0.950 . S
H263 C283 0.950 . S
H264 C285 0.950 . S
H265 C288 0.950 . S
H266 C289 0.950 . S
H267 C291 0.950 . S
H268 C292 0.950 . S
H269 C293 0.951 . S
H270 C295 0.951 . S
H271 C297 0.950 . S
H272 C298 0.950 . S
H273 C300 0.950 . S
H274 C303 0.950 . S
H275 C304 0.950 . S
H276 C306 0.950 . S
H277 C307 0.950 . S
C278 H260 0.951 . S
C278 C279 1.366 . S
C278 C280 1.388 . S
C279 C278 1.366 . S
C279 C283 1.385 . S
C280 H261 0.951 . S
C280 C278 1.388 . S
C280 C281 1.366 . S
C281 C280 1.366 . S
C281 C282 1.414 . S
C281 C284 1.499 . S
C282 H262 0.950 . S
C282 C281 1.414 . S
C282 C283 1.374 . S
C283 H263 0.950 . S
C283 C279 1.385 . S
C283 C282 1.374 . S
C284 C281 1.499 . S
C284 C285 1.373 . S
C284 C286 1.389 . S
C285 H264 0.950 . S
C285 C284 1.373 . S
C285 C301 1.377 . S
C286 C284 1.389 . S
C286 C287 1.524 . S
C286 C300 1.377 . S
C287 C286 1.524 . S
C287 C288 1.397 . S
C287 C292 1.363 . S
C288 H265 0.950 . S
C288 C287 1.397 . S
C288 C289 1.334 . S
C289 H266 0.950 . S
C289 C288 1.334 . S
C289 C290 1.287 . S
C290 C289 1.287 . S
C290 C291 1.524 . S
C290 H309 0.913 . S
C291 H267 0.950 . S
C291 C290 1.524 . S
C291 C292 1.415 . S
C292 H268 0.950 . S
C292 C287 1.363 . S
C292 C291 1.415 . S
C293 H269 0.951 . S
C293 C294 1.366 . S
C293 C295 1.388 . S
C294 C293 1.366 . S
C294 C298 1.385 . S
C295 H270 0.951 . S
C295 C293 1.388 . S
C295 C296 1.366 . S
C296 C295 1.366 . S
C296 C297 1.414 . S
C296 C299 1.499 . S
C297 H271 0.950 . S
C297 C296 1.414 . S
C297 C298 1.374 . S
C298 H272 0.950 . S
C298 C294 1.385 . S
C298 C297 1.374 . S
C299 C296 1.499 . S
C299 C300 1.373 . S
C299 C301 1.389 . S
C300 H273 0.950 . S
C300 C286 1.377 . S
C300 C299 1.373 . S
C301 C285 1.377 . S
C301 C299 1.389 . S
C301 C302 1.524 . S
C302 C301 1.524 . S
C302 C303 1.397 . S
C302 C307 1.363 . S
C303 H274 0.950 . S
C303 C302 1.397 . S
C303 C304 1.334 . S
C304 H275 0.950 . S
C304 C303 1.334 . S
C304 C305 1.287 . S
C305 C304 1.287 . S
C305 C306 1.524 . S
C305 H308 0.999 . S
C306 H276 0.950 . S
C306 C305 1.524 . S
C306 C307 1.415 . S
C307 H277 0.950 . S
C307 C302 1.363 . S
C307 C306 1.415 . S
H308 C305 0.999 . S
H309 C290 0.913 . S
H310 C328 0.951 . S
H311 C330 0.951 . S
H312 C332 0.950 . S
H313 C333 0.950 . S
H314 C335 0.950 . S
H315 C338 0.950 . S
H316 C339 0.950 . S
H317 C341 0.950 . S
H318 C342 0.950 . S
H319 C343 0.951 . S
H320 C345 0.951 . S
H321 C347 0.950 . S
H322 C348 0.950 . S
H323 C350 0.950 . S
H324 C353 0.950 . S
H325 C354 0.950 . S
H326 C356 0.950 . S
H327 C357 0.950 . S
C328 H310 0.951 . S
C328 C329 1.366 . S
C328 C330 1.388 . S
C329 C328 1.366 . S
C329 C333 1.385 . S
C330 H311 0.951 . S
C330 C328 1.388 . S
C330 C331 1.366 . S
C331 C330 1.366 . S
C331 C332 1.414 . S
C331 C334 1.499 . S
C332 H312 0.950 . S
C332 C331 1.414 . S
C332 C333 1.374 . S
C333 H313 0.950 . S
C333 C329 1.385 . S
C333 C332 1.374 . S
C334 C331 1.499 . S
C334 C335 1.373 . S
C334 C336 1.389 . S
C335 H314 0.950 . S
C335 C334 1.373 . S
C335 C351 1.377 . S
C336 C334 1.389 . S
C336 C337 1.524 . S
C336 C350 1.377 . S
C337 C336 1.524 . S
C337 C338 1.397 . S
C337 C342 1.363 . S
C338 H315 0.950 . S
C338 C337 1.397 . S
C338 C339 1.334 . S
C339 H316 0.950 . S
C339 C338 1.334 . S
C339 C340 1.287 . S
C340 C339 1.287 . S
C340 C341 1.524 . S
C340 H359 0.913 . S
C341 H317 0.950 . S
C341 C340 1.524 . S
C341 C342 1.415 . S
C342 H318 0.950 . S
C342 C337 1.363 . S
C342 C341 1.415 . S
C343 H319 0.951 . S
C343 C344 1.366 . S
C343 C345 1.388 . S
C344 C343 1.366 . S
C344 C348 1.385 . S
C345 H320 0.951 . S
C345 C343 1.388 . S
C345 C346 1.366 . S
C346 C345 1.366 . S
C346 C347 1.414 . S
C346 C349 1.499 . S
C347 H321 0.950 . S
C347 C346 1.414 . S
C347 C348 1.374 . S
C348 H322 0.950 . S
C348 C344 1.385 . S
C348 C347 1.374 . S
C349 C346 1.499 . S
C349 C350 1.373 . S
C349 C351 1.389 . S
C350 H323 0.950 . S
C350 C336 1.377 . S
C350 C349 1.373 . S
C351 C335 1.377 . S
C351 C349 1.389 . S
C351 C352 1.524 . S
C352 C351 1.524 . S
C352 C353 1.397 . S
C352 C357 1.363 . S
C353 H324 0.950 . S
C353 C352 1.397 . S
C353 C354 1.334 . S
C354 H325 0.950 . S
C354 C353 1.334 . S
C354 C355 1.287 . S
C355 C354 1.287 . S
C355 C356 1.524 . S
C355 H358 0.999 . S
C356 H326 0.950 . S
C356 C355 1.524 . S
C356 C357 1.415 . S
C357 H327 0.950 . S
C357 C352 1.363 . S
C357 C356 1.415 . S
H358 C355 0.999 . S
H359 C340 0.913 . S
H360 C378 0.951 . S
H361 C380 0.951 . S
H362 C382 0.950 . S
H363 C383 0.950 . S
H364 C385 0.950 . S
H365 C388 0.950 . S
H366 C389 0.950 . S
H367 C391 0.950 . S
H368 C392 0.950 . S
H369 C393 0.951 . S
H370 C395 0.951 . S
H371 C397 0.950 . S
H372 C398 0.950 . S
H373 C400 0.950 . S
H374 C403 0.950 . S
H375 C404 0.950 . S
H376 C406 0.950 . S
H377 C407 0.950 . S
C378 H360 0.951 . S
C378 C379 1.366 . S
C378 C380 1.388 . S
C379 C378 1.366 . S
C379 C383 1.385 . S
C380 H361 0.951 . S
C380 C378 1.388 . S
C380 C381 1.366 . S
C381 C380 1.366 . S
C381 C382 1.414 . S
C381 C384 1.499 . S
C382 H362 0.950 . S
C382 C381 1.414 . S
C382 C383 1.374 . S
C383 H363 0.950 . S
C383 C379 1.385 . S
C383 C382 1.374 . S
C384 C381 1.499 . S
C384 C385 1.373 . S
C384 C386 1.389 . S
C385 H364 0.950 . S
C385 C384 1.373 . S
C385 C401 1.377 1_565 S
C386 C384 1.389 . S
C386 C387 1.524 . S
C386 C400 1.377 1_565 S
C387 C386 1.524 . S
C387 C388 1.397 . S
C387 C392 1.363 . S
C388 H365 0.950 . S
C388 C387 1.397 . S
C388 C389 1.334 . S
C389 H366 0.950 . S
C389 C388 1.334 . S
C389 C390 1.287 . S
C390 C389 1.287 . S
C390 C391 1.524 . S
C390 H409 0.913 . S
C391 H367 0.950 . S
C391 C390 1.524 . S
C391 C392 1.415 . S
C392 H368 0.950 . S
C392 C387 1.363 . S
C392 C391 1.415 . S
C393 H369 0.951 . S
C393 C394 1.366 . S
C393 C395 1.388 . S
C394 C393 1.366 . S
C394 C398 1.385 . S
C395 H370 0.951 . S
C395 C393 1.388 . S
C395 C396 1.366 . S
C396 C395 1.366 . S
C396 C397 1.414 . S
C396 C399 1.499 . S
C397 H371 0.950 . S
C397 C396 1.414 . S
C397 C398 1.374 . S
C398 H372 0.950 . S
C398 C394 1.385 . S
C398 C397 1.374 . S
C399 C396 1.499 . S
C399 C400 1.373 . S
C399 C401 1.389 . S
C400 H373 0.950 . S
C400 C386 1.377 1_545 S
C400 C399 1.373 . S
C401 C385 1.377 1_545 S
C401 C399 1.389 . S
C401 C402 1.524 . S
C402 C401 1.524 . S
C402 C403 1.397 . S
C402 C407 1.363 . S
C403 H374 0.950 . S
C403 C402 1.397 . S
C403 C404 1.334 . S
C404 H375 0.950 . S
C404 C403 1.334 . S
C404 C405 1.287 . S
C405 C404 1.287 . S
C405 C406 1.524 . S
C405 H408 0.999 . S
C406 H376 0.950 . S
C406 C405 1.524 . S
C406 C407 1.415 . S
C407 H377 0.950 . S
C407 C402 1.363 . S
C407 C406 1.415 . S
H408 C405 0.999 . S
H409 C390 0.913 . S
H410 C428 0.951 . S
H411 C430 0.951 . S
H412 C432 0.950 . S
H413 C433 0.950 . S
H414 C435 0.950 . S
H415 C438 0.950 . S
H416 C439 0.950 . S
H417 C441 0.950 . S
H418 C442 0.950 . S
H419 C443 0.951 . S
H420 C445 0.951 . S
H421 C447 0.950 . S
H422 C448 0.950 . S
H423 C450 0.950 . S
H424 C453 0.950 . S
H425 C454 0.950 . S
H426 C456 0.950 . S
H427 C457 0.950 . S
C428 H410 0.951 . S
C428 C429 1.366 . S
C428 C430 1.388 . S
C429 C428 1.366 . S
C429 C433 1.385 . S
C430 H411 0.951 . S
C430 C428 1.388 . S
C430 C431 1.366 . S
C431 C430 1.366 . S
C431 C432 1.414 . S
C431 C434 1.499 . S
C432 H412 0.950 . S
C432 C431 1.414 . S
C432 C433 1.374 . S
C433 H413 0.950 . S
C433 C429 1.385 . S
C433 C432 1.374 . S
C434 C431 1.499 . S
C434 C435 1.373 . S
C434 C436 1.389 . S
C435 H414 0.950 . S
C435 C434 1.373 . S
C435 C451 1.377 . S
C436 C434 1.389 . S
C436 C437 1.524 . S
C436 C450 1.377 . S
C437 C436 1.524 . S
C437 C438 1.397 . S
C437 C442 1.363 . S
C438 H415 0.950 . S
C438 C437 1.397 . S
C438 C439 1.334 . S
C439 H416 0.950 . S
C439 C438 1.334 . S
C439 C440 1.287 . S
C440 C439 1.287 . S
C440 C441 1.524 . S
C440 H459 0.913 . S
C441 H417 0.950 . S
C441 C440 1.524 . S
C441 C442 1.415 . S
C442 H418 0.950 . S
C442 C437 1.363 . S
C442 C441 1.415 . S
C443 H419 0.951 . S
C443 C444 1.366 . S
C443 C445 1.388 . S
C444 C443 1.366 . S
C444 C448 1.385 . S
C445 H420 0.951 . S
C445 C443 1.388 . S
C445 C446 1.366 . S
C446 C445 1.366 . S
C446 C447 1.414 . S
C446 C449 1.499 . S
C447 H421 0.950 . S
C447 C446 1.414 . S
C447 C448 1.374 . S
C448 H422 0.950 . S
C448 C444 1.385 . S
C448 C447 1.374 . S
C449 C446 1.499 . S
C449 C450 1.373 . S
C449 C451 1.389 . S
C450 H423 0.950 . S
C450 C436 1.377 . S
C450 C449 1.373 . S
C451 C435 1.377 . S
C451 C449 1.389 . S
C451 C452 1.524 . S
C452 C451 1.524 . S
C452 C453 1.397 . S
C452 C457 1.363 . S
C453 H424 0.950 . S
C453 C452 1.397 . S
C453 C454 1.334 . S
C454 H425 0.950 . S
C454 C453 1.334 . S
C454 C455 1.287 . S
C455 C454 1.287 . S
C455 C456 1.524 . S
C455 H458 0.999 . S
C456 H426 0.950 . S
C456 C455 1.524 . S
C456 C457 1.415 . S
C457 H427 0.950 . S
C457 C452 1.363 . S
C457 C456 1.415 . S
H458 C455 0.999 . S
H459 C440 0.913 . S
H460 C478 0.951 . S
H461 C480 0.951 . S
H462 C482 0.950 . S
H463 C483 0.950 . S
H464 C485 0.950 . S
H465 C488 0.950 . S
H466 C489 0.950 . S
H467 C491 0.950 . S
H468 C492 0.950 . S
H469 C493 0.951 . S
H470 C495 0.951 . S
H471 C497 0.950 . S
H472 C498 0.950 . S
H473 C500 0.950 . S
H474 C503 0.950 . S
H475 C504 0.950 . S
H476 C506 0.950 . S
H477 C507 0.950 . S
C478 H460 0.951 . S
C478 C479 1.366 . S
C478 C480 1.388 . S
C479 C478 1.366 . S
C479 C483 1.385 . S
C480 H461 0.951 . S
C480 C478 1.388 . S
C480 C481 1.366 . S
C481 C480 1.366 . S
C481 C482 1.414 . S
C481 C484 1.499 . S
C482 H462 0.950 . S
C482 C481 1.414 . S
C482 C483 1.374 . S
C483 H463 0.950 . S
C483 C479 1.385 . S
C483 C482 1.374 . S
C484 C481 1.499 . S
C484 C485 1.373 . S
C484 C486 1.389 . S
C485 H464 0.950 . S
C485 C484 1.373 . S
C485 C501 1.377 1_565 S
C486 C484 1.389 . S
C486 C487 1.524 . S
C486 C500 1.377 1_565 S
C487 C486 1.524 . S
C487 C488 1.397 . S
C487 C492 1.363 . S
C488 H465 0.950 . S
C488 C487 1.397 . S
C488 C489 1.334 . S
C489 H466 0.950 . S
C489 C488 1.334 . S
C489 C490 1.287 . S
C490 C489 1.287 . S
C490 C491 1.524 . S
C490 H509 0.913 . S
C491 H467 0.950 . S
C491 C490 1.524 . S
C491 C492 1.415 . S
C492 H468 0.950 . S
C492 C487 1.363 . S
C492 C491 1.415 . S
C493 H469 0.951 . S
C493 C494 1.366 . S
C493 C495 1.388 . S
C494 C493 1.366 . S
C494 C498 1.385 . S
C495 H470 0.951 . S
C495 C493 1.388 . S
C495 C496 1.366 . S
C496 C495 1.366 . S
C496 C497 1.414 . S
C496 C499 1.499 . S
C497 H471 0.950 . S
C497 C496 1.414 . S
C497 C498 1.374 . S
C498 H472 0.950 . S
C498 C494 1.385 . S
C498 C497 1.374 . S
C499 C496 1.499 . S
C499 C500 1.373 . S
C499 C501 1.389 . S
C500 H473 0.950 . S
C500 C486 1.377 1_545 S
C500 C499 1.373 . S
C501 C485 1.377 1_545 S
C501 C499 1.389 . S
C501 C502 1.524 . S
C502 C501 1.524 . S
C502 C503 1.397 . S
C502 C507 1.363 . S
C503 H474 0.950 . S
C503 C502 1.397 . S
C503 C504 1.334 . S
C504 H475 0.950 . S
C504 C503 1.334 . S
C504 C505 1.287 . S
C505 C504 1.287 . S
C505 C506 1.524 . S
C505 H508 0.999 . S
C506 H476 0.950 . S
C506 C505 1.524 . S
C506 C507 1.415 . S
C507 H477 0.950 . S
C507 C502 1.363 . S
C507 C506 1.415 . S
H508 C505 0.999 . S
H509 C490 0.913 . S
H510 C528 0.951 . S
H511 C530 0.951 . S
H512 C532 0.950 . S
H513 C533 0.950 . S
H514 C535 0.950 . S
H515 C538 0.950 . S
H516 C539 0.950 . S
H517 C541 0.950 . S
H518 C542 0.950 . S
H519 C543 0.951 . S
H520 C545 0.951 . S
H521 C547 0.950 . S
H522 C548 0.950 . S
H523 C550 0.950 . S
H524 C553 0.950 . S
H525 C554 0.950 . S
H526 C556 0.950 . S
H527 C557 0.950 . S
C528 H510 0.951 . S
C528 C529 1.366 . S
C528 C530 1.388 . S
C529 C528 1.366 . S
C529 C533 1.385 . S
C530 H511 0.951 . S
C530 C528 1.388 . S
C530 C531 1.366 . S
C531 C530 1.366 . S
C531 C532 1.414 . S
C531 C534 1.499 . S
C532 H512 0.950 . S
C532 C531 1.414 . S
C532 C533 1.374 . S
C533 H513 0.950 . S
C533 C529 1.385 . S
C533 C532 1.374 . S
C534 C531 1.499 . S
C534 C535 1.373 . S
C534 C536 1.389 . S
C535 H514 0.950 . S
C535 C534 1.373 . S
C535 C551 1.377 . S
C536 C534 1.389 . S
C536 C537 1.524 . S
C536 C550 1.377 . S
C537 C536 1.524 . S
C537 C538 1.397 . S
C537 C542 1.363 . S
C538 H515 0.950 . S
C538 C537 1.397 . S
C538 C539 1.334 . S
C539 H516 0.950 . S
C539 C538 1.334 . S
C539 C540 1.287 . S
C540 C539 1.287 . S
C540 C541 1.524 . S
C540 H559 0.913 . S
C541 H517 0.950 . S
C541 C540 1.524 . S
C541 C542 1.415 . S
C542 H518 0.950 . S
C542 C537 1.363 . S
C542 C541 1.415 . S
C543 H519 0.951 . S
C543 C544 1.366 . S
C543 C545 1.388 . S
C544 C543 1.366 . S
C544 C548 1.385 . S
C545 H520 0.951 . S
C545 C543 1.388 . S
C545 C546 1.366 . S
C546 C545 1.366 . S
C546 C547 1.414 . S
C546 C549 1.499 . S
C547 H521 0.950 . S
C547 C546 1.414 . S
C547 C548 1.374 . S
C548 H522 0.950 . S
C548 C544 1.385 . S
C548 C547 1.374 . S
C549 C546 1.499 . S
C549 C550 1.373 . S
C549 C551 1.389 . S
C550 H523 0.950 . S
C550 C536 1.377 . S
C550 C549 1.373 . S
C551 C535 1.377 . S
C551 C549 1.389 . S
C551 C552 1.524 . S
C552 C551 1.524 . S
C552 C553 1.397 . S
C552 C557 1.363 . S
C553 H524 0.950 . S
C553 C552 1.397 . S
C553 C554 1.334 . S
C554 H525 0.950 . S
C554 C553 1.334 . S
C554 C555 1.287 . S
C555 C554 1.287 . S
C555 C556 1.524 . S
C555 H558 0.999 . S
C556 H526 0.950 . S
C556 C555 1.524 . S
C556 C557 1.415 . S
C557 H527 0.950 . S
C557 C552 1.363 . S
C557 C556 1.415 . S
H558 C555 0.999 . S
H559 C540 0.913 . S
H560 C578 0.951 . S
H561 C580 0.951 . S
H562 C582 0.950 . S
H563 C583 0.950 . S
H564 C585 0.950 . S
H565 C588 0.950 . S
H566 C589 0.950 . S
H567 C591 0.950 . S
H568 C592 0.950 . S
H569 C593 0.951 . S
H570 C595 0.951 . S
H571 C597 0.950 . S
H572 C598 0.950 . S
H573 C600 0.950 . S
H574 C603 0.950 . S
H575 C604 0.950 . S
H576 C606 0.950 . S
H577 C607 0.950 . S
C578 H560 0.951 . S
C578 C579 1.366 1_554 S
C578 C580 1.388 . S
C579 C578 1.366 1_556 S
C579 C583 1.385 . S
C580 H561 0.951 . S
C580 C578 1.388 . S
C580 C581 1.366 1_554 S
C581 C580 1.366 1_556 S
C581 C582 1.414 . S
C581 C584 1.499 . S
C582 H562 0.950 . S
C582 C581 1.414 . S
C582 C583 1.374 . S
C583 H563 0.950 . S
C583 C579 1.385 . S
C583 C582 1.374 . S
C584 C581 1.499 . S
C584 C585 1.373 . S
C584 C586 1.389 1_556 S
C585 H564 0.950 . S
C585 C584 1.373 . S
C585 C601 1.377 . S
C586 C584 1.389 1_554 S
C586 C587 1.524 . S
C586 C600 1.377 . S
C587 C586 1.524 . S
C587 C588 1.397 . S
C587 C592 1.363 . S
C588 H565 0.950 . S
C588 C587 1.397 . S
C588 C589 1.334 . S
C589 H566 0.950 . S
C589 C588 1.334 . S
C589 C590 1.287 . S
C590 C589 1.287 . S
C590 C591 1.524 . S
C590 H609 0.913 . S
C591 H567 0.950 . S
C591 C590 1.524 . S
C591 C592 1.415 . S
C592 H568 0.950 . S
C592 C587 1.363 . S
C592 C591 1.415 . S
C593 H569 0.951 . S
C593 C594 1.366 . S
C593 C595 1.388 . S
C594 C593 1.366 . S
C594 C598 1.385 1_556 S
C595 H570 0.951 . S
C595 C593 1.388 . S
C595 C596 1.366 . S
C596 C595 1.366 . S
C596 C597 1.414 1_556 S
C596 C599 1.499 . S
C597 H571 0.950 . S
C597 C596 1.414 1_554 S
C597 C598 1.374 . S
C598 H572 0.950 . S
C598 C594 1.385 1_554 S
C598 C597 1.374 . S
C599 C596 1.499 . S
C599 C600 1.373 1_556 S
C599 C601 1.389 . S
C600 H573 0.950 . S
C600 C586 1.377 . S
C600 C599 1.373 1_554 S
C601 C585 1.377 . S
C601 C599 1.389 . S
C601 C602 1.524 . S
C602 C601 1.524 . S
C602 C603 1.397 . S
C602 C607 1.363 . S
C603 H574 0.950 . S
C603 C602 1.397 . S
C603 C604 1.334 . S
C604 H575 0.950 . S
C604 C603 1.334 . S
C604 C605 1.287 . S
C605 C604 1.287 . S
C605 C606 1.524 . S
C605 H608 0.999 . S
C606 H576 0.950 . S
C606 C605 1.524 . S
C606 C607 1.415 . S
C607 H577 0.950 . S
C607 C602 1.363 . S
C607 C606 1.415 . S
H608 C605 0.999 . S
H609 C590 0.913 . S
H610 C628 0.951 1_554 S
H611 C630 0.951 . S
H612 C632 0.950 . S
H613 C633 0.950 . S
H614 C635 0.950 . S
H615 C638 0.950 . S
H616 C639 0.950 . S
H617 C641 0.950 . S
H618 C642 0.950 . S
H619 C643 0.951 . S
H620 C645 0.951 . S
H621 C647 0.950 . S
H622 C648 0.950 . S
H623 C650 0.950 . S
H624 C653 0.950 . S
H625 C654 0.950 . S
H626 C656 0.950 . S
H627 C657 0.950 . S
C628 H610 0.951 1_556 S
C628 C629 1.366 . S
C628 C630 1.388 . S
C629 C628 1.366 . S
C629 C633 1.385 . S
C630 H611 0.951 . S
C630 C628 1.388 . S
C630 C631 1.366 . S
C631 C630 1.366 . S
C631 C632 1.414 . S
C631 C634 1.499 . S
C632 H612 0.950 . S
C632 C631 1.414 . S
C632 C633 1.374 . S
C633 H613 0.950 . S
C633 C629 1.385 . S
C633 C632 1.374 . S
C634 C631 1.499 . S
C634 C635 1.373 1_556 S
C634 C636 1.389 . S
C635 H614 0.950 . S
C635 C634 1.373 1_554 S
C635 C651 1.377 1_565 S
C636 C634 1.389 . S
C636 C637 1.524 . S
C636 C650 1.377 1_565 S
C637 C636 1.524 . S
C637 C638 1.397 . S
C637 C642 1.363 . S
C638 H615 0.950 . S
C638 C637 1.397 . S
C638 C639 1.334 . S
C639 H616 0.950 . S
C639 C638 1.334 . S
C639 C640 1.287 . S
C640 C639 1.287 . S
C640 C641 1.524 . S
C640 H659 0.913 . S
C641 H617 0.950 . S
C641 C640 1.524 . S
C641 C642 1.415 . S
C642 H618 0.950 . S
C642 C637 1.363 . S
C642 C641 1.415 . S
C643 H619 0.951 . S
C643 C644 1.366 . S
C643 C645 1.388 . S
C644 C643 1.366 . S
C644 C648 1.385 1_556 S
C645 H620 0.951 . S
C645 C643 1.388 . S
C645 C646 1.365 1_556 S
C646 C645 1.365 1_554 S
C646 C647 1.414 . S
C646 C649 1.499 . S
C647 H621 0.950 . S
C647 C646 1.414 . S
C647 C648 1.374 . S
C648 H622 0.950 . S
C648 C644 1.385 1_554 S
C648 C647 1.374 . S
C649 C646 1.499 . S
C649 C650 1.365 1_554 S
C649 C651 1.397 . S
C650 H623 0.950 . S
C650 C636 1.377 1_545 S
C650 C649 1.365 1_556 S
C651 C635 1.377 1_545 S
C651 C649 1.397 . S
C651 C652 1.524 . S
C652 C651 1.524 . S
C652 C653 1.397 . S
C652 C657 1.363 . S
C653 H624 0.950 . S
C653 C652 1.397 . S
C653 C654 1.334 . S
C654 H625 0.950 . S
C654 C653 1.334 . S
C654 C655 1.287 . S
C655 C654 1.287 . S
C655 C656 1.524 . S
C655 H658 0.999 . S
C656 H626 0.950 . S
C656 C655 1.524 . S
C656 C657 1.415 . S
C657 H627 0.950 . S
C657 C652 1.363 . S
C657 C656 1.415 . S
H658 C655 0.999 . S
H659 C640 0.913 . S
H660 C678 0.951 . S
H661 C680 0.951 . S
H662 C682 0.950 . S
H663 C683 0.950 . S
H664 C685 0.950 . S
H665 C688 0.950 . S
H666 C689 0.950 . S
H667 C691 0.950 . S
H668 C692 0.950 . S
H669 C693 0.951 . S
H670 C695 0.951 . S
H671 C697 0.950 . S
H672 C698 0.950 . S
H673 C700 0.950 . S
H674 C703 0.950 . S
H675 C704 0.950 . S
H676 C706 0.950 . S
H677 C707 0.950 . S
C678 H660 0.951 . S
C678 C679 1.366 . S
C678 C680 1.388 . S
C679 C678 1.366 . S
C679 C683 1.385 . S
C680 H661 0.951 . S
C680 C678 1.388 . S
C680 C681 1.365 1_554 S
C681 C680 1.365 1_556 S
C681 C682 1.414 1_556 S
C681 C684 1.499 . S
C682 H662 0.950 . S
C682 C681 1.414 1_554 S
C682 C683 1.374 . S
C683 H663 0.950 . S
C683 C679 1.385 . S
C683 C682 1.374 . S
C684 C681 1.499 . S
C684 C685 1.366 1_556 S
C684 C686 1.396 . S
C685 H664 0.950 . S
C685 C684 1.366 1_554 S
C685 C701 1.377 . S
C686 C684 1.396 . S
C686 C687 1.524 . S
C686 C700 1.377 . S
C687 C686 1.524 . S
C687 C688 1.397 . S
C687 C692 1.363 . S
C688 H665 0.950 . S
C688 C687 1.397 . S
C688 C689 1.334 . S
C689 H666 0.950 . S
C689 C688 1.334 . S
C689 C690 1.287 . S
C690 C689 1.287 . S
C690 C691 1.524 . S
C690 H709 0.913 . S
C691 H667 0.950 . S
C691 C690 1.524 . S
C691 C692 1.415 . S
C692 H668 0.950 . S
C692 C687 1.363 . S
C692 C691 1.415 . S
C693 H669 0.951 . S
C693 C694 1.366 . S
C693 C695 1.388 . S
C694 C693 1.366 . S
C694 C698 1.385 . S
C695 H670 0.951 . S
C695 C693 1.388 . S
C695 C696 1.366 . S
C696 C695 1.366 . S
C696 C697 1.414 . S
C696 C699 1.499 . S
C697 H671 0.950 . S
C697 C696 1.414 . S
C697 C698 1.374 . S
C698 H672 0.950 . S
C698 C694 1.385 . S
C698 C697 1.374 . S
C699 C696 1.499 . S
C699 C700 1.373 1_554 S
C699 C701 1.389 . S
C700 H673 0.950 . S
C700 C686 1.377 . S
C700 C699 1.373 1_556 S
C701 C685 1.377 . S
C701 C699 1.389 . S
C701 C702 1.524 . S
C702 C701 1.524 . S
C702 C703 1.397 . S
C702 C707 1.363 . S
C703 H674 0.950 . S
C703 C702 1.397 . S
C703 C704 1.334 . S
C704 H675 0.950 . S
C704 C703 1.334 . S
C704 C705 1.287 . S
C705 C704 1.287 . S
C705 C706 1.524 . S
C705 H708 0.999 . S
C706 H676 0.950 . S
C706 C705 1.524 . S
C706 C707 1.415 . S
C707 H677 0.950 . S
C707 C702 1.363 . S
C707 C706 1.415 . S
H708 C705 0.999 . S
H709 C690 0.913 . S
H710 C728 0.951 . S
H711 C730 0.951 . S
H712 C732 0.950 . S
H713 C733 0.950 . S
H714 C735 0.950 . S
H715 C738 0.950 . S
H716 C739 0.950 . S
H717 C741 0.950 . S
H718 C742 0.950 . S
H719 C743 0.951 . S
H720 C745 0.951 . S
H721 C747 0.950 . S
H722 C748 0.950 . S
H723 C750 0.950 . S
H724 C753 0.950 . S
H725 C754 0.950 . S
H726 C756 0.950 . S
H727 C757 0.950 . S
C728 H710 0.951 . S
C728 C729 1.366 1_556 S
C728 C730 1.388 . S
C729 C728 1.366 1_554 S
C729 C733 1.385 . S
C730 H711 0.951 . S
C730 C728 1.388 . S
C730 C731 1.362 1_556 S
C731 C730 1.362 1_554 S
C731 C732 1.418 . S
C731 C734 1.499 . S
C732 H712 0.950 . S
C732 C731 1.418 . S
C732 C733 1.374 . S
C733 H713 0.950 . S
C733 C729 1.385 . S
C733 C732 1.374 . S
C734 C731 1.499 . S
C734 C735 1.373 . S
C734 C736 1.389 1_554 S
C735 H714 0.950 . S
C735 C734 1.373 . S
C735 C751 1.377 1_545 S
C736 C734 1.389 1_556 S
C736 C737 1.524 . S
C736 C750 1.377 1_545 S
C737 C736 1.524 . S
C737 C738 1.397 . S
C737 C742 1.363 . S
C738 H715 0.950 . S
C738 C737 1.397 . S
C738 C739 1.334 . S
C739 H716 0.950 . S
C739 C738 1.334 . S
C739 C740 1.287 . S
C740 C739 1.287 . S
C740 C741 1.524 . S
C740 H759 0.913 . S
C741 H717 0.950 . S
C741 C740 1.524 . S
C741 C742 1.415 . S
C742 H718 0.950 . S
C742 C737 1.363 . S
C742 C741 1.415 . S
C743 H719 0.951 . S
C743 C744 1.366 . S
C743 C745 1.388 . S
C744 C743 1.366 . S
C744 C748 1.385 1_554 S
C745 H720 0.951 . S
C745 C743 1.388 . S
C745 C746 1.366 . S
C746 C745 1.366 . S
C746 C747 1.414 1_554 S
C746 C749 1.499 . S
C747 H721 0.950 . S
C747 C746 1.414 1_556 S
C747 C748 1.374 . S
C748 H722 0.950 . S
C748 C744 1.385 1_556 S
C748 C747 1.374 . S
C749 C746 1.499 . S
C749 C750 1.373 1_554 S
C749 C751 1.389 . S
C750 H723 0.950 . S
C750 C736 1.377 1_565 S
C750 C749 1.373 1_556 S
C751 C735 1.377 1_565 S
C751 C749 1.389 . S
C751 C752 1.524 . S
C752 C751 1.524 . S
C752 C753 1.397 . S
C752 C757 1.363 . S
C753 H724 0.950 . S
C753 C752 1.397 . S
C753 C754 1.334 . S
C754 H725 0.950 . S
C754 C753 1.334 . S
C754 C755 1.287 . S
C755 C754 1.287 . S
C755 C756 1.524 . S
C755 H758 0.999 . S
C756 H726 0.950 . S
C756 C755 1.524 . S
C756 C757 1.415 . S
C757 H727 0.950 . S
C757 C752 1.363 . S
C757 C756 1.415 . S
H758 C755 0.999 . S
H759 C740 0.913 . S
H760 C778 0.951 . S
H761 C780 0.951 . S
H762 C782 0.950 . S
H763 C783 0.950 . S
H764 C785 0.950 . S
H765 C788 0.950 . S
H766 C789 0.950 . S
H767 C791 0.950 . S
H768 C792 0.950 . S
H769 C793 0.951 . S
H770 C795 0.951 . S
H771 C797 0.950 . S
H772 C798 0.950 . S
H773 C800 0.950 . S
H774 C803 0.950 . S
H775 C804 0.950 . S
H776 C806 0.950 . S
H777 C807 0.950 . S
C778 H760 0.951 . S
C778 C779 1.366 . S
C778 C780 1.388 . S
C779 C778 1.366 . S
C779 C783 1.385 . S
C780 H761 0.951 . S
C780 C778 1.388 . S
C780 C781 1.366 . S
C781 C780 1.366 . S
C781 C782 1.414 . S
C781 C784 1.499 . S
C782 H762 0.950 . S
C782 C781 1.414 . S
C782 C783 1.374 . S
C783 H763 0.950 . S
C783 C779 1.385 . S
C783 C782 1.374 . S
C784 C781 1.499 . S
C784 C785 1.373 . S
C784 C786 1.389 . S
C785 H764 0.950 . S
C785 C784 1.373 . S
C785 C801 1.377 1_554 S
C786 C784 1.389 . S
C786 C787 1.524 . S
C786 C800 1.377 1_554 S
C787 C786 1.524 . S
C787 C788 1.397 . S
C787 C792 1.363 . S
C788 H765 0.950 . S
C788 C787 1.397 . S
C788 C789 1.334 . S
C789 H766 0.950 . S
C789 C788 1.334 . S
C789 C790 1.287 . S
C790 C789 1.287 . S
C790 C791 1.524 . S
C790 H809 0.913 . S
C791 H767 0.950 . S
C791 C790 1.524 . S
C791 C792 1.415 . S
C792 H768 0.950 . S
C792 C787 1.363 . S
C792 C791 1.415 . S
C793 H769 0.951 . S
C793 C794 1.366 . S
C793 C795 1.388 . S
C794 C793 1.366 . S
C794 C798 1.385 . S
C795 H770 0.951 . S
C795 C793 1.388 . S
C795 C796 1.366 . S
C796 C795 1.366 . S
C796 C797 1.414 . S
C796 C799 1.499 . S
C797 H771 0.950 . S
C797 C796 1.414 . S
C797 C798 1.374 . S
C798 H772 0.950 . S
C798 C794 1.385 . S
C798 C797 1.374 . S
C799 C796 1.499 . S
C799 C800 1.373 . S
C799 C801 1.389 . S
C800 H773 0.950 . S
C800 C786 1.377 1_556 S
C800 C799 1.373 . S
C801 C785 1.377 1_556 S
C801 C799 1.389 . S
C801 C802 1.524 . S
C802 C801 1.524 . S
C802 C803 1.397 . S
C802 C807 1.363 . S
C803 H774 0.950 . S
C803 C802 1.397 . S
C803 C804 1.334 . S
C804 H775 0.950 . S
C804 C803 1.334 . S
C804 C805 1.287 . S
C805 C804 1.287 . S
C805 C806 1.524 . S
C805 H808 0.999 . S
C806 H776 0.950 . S
C806 C805 1.524 . S
C806 C807 1.415 . S
C807 H777 0.950 . S
C807 C802 1.363 . S
C807 C806 1.415 . S
H808 C805 0.999 . S
H809 C790 0.913 . S
H810 C828 0.951 . S
H811 C830 0.951 . S
H812 C832 0.950 . S
H813 C833 0.950 . S
H814 C835 0.950 . S
H815 C838 0.950 . S
H816 C839 0.950 . S
H817 C841 0.950 . S
H818 C842 0.950 1_556 S
H819 C843 0.951 . S
H820 C845 0.951 . S
H821 C847 0.950 . S
H822 C848 0.950 . S
H823 C850 0.950 . S
H824 C853 0.950 . S
H825 C854 0.950 . S
H826 C856 0.950 . S
H827 C857 0.950 . S
C828 H810 0.951 . S
C828 C829 1.366 . S
C828 C830 1.388 . S
C829 C828 1.366 . S
C829 C833 1.385 . S
C830 H811 0.951 . S
C830 C828 1.388 . S
C830 C831 1.366 . S
C831 C830 1.366 . S
C831 C832 1.414 . S
C831 C834 1.499 . S
C832 H812 0.950 . S
C832 C831 1.414 . S
C832 C833 1.374 . S
C833 H813 0.950 . S
C833 C829 1.385 . S
C833 C832 1.374 . S
C834 C831 1.499 . S
C834 C835 1.373 . S
C834 C836 1.389 . S
C835 H814 0.950 . S
C835 C834 1.373 . S
C835 C851 1.377 1_554 S
C836 C834 1.389 . S
C836 C837 1.524 . S
C836 C850 1.377 1_554 S
C837 C836 1.524 . S
C837 C838 1.397 . S
C837 C842 1.363 . S
C838 H815 0.950 . S
C838 C837 1.397 . S
C838 C839 1.334 . S
C839 H816 0.950 . S
C839 C838 1.334 . S
C839 C840 1.287 . S
C840 C839 1.287 . S
C840 C841 1.524 . S
C840 H859 0.913 . S
C841 H817 0.950 . S
C841 C840 1.524 . S
C841 C842 1.415 . S
C842 H818 0.950 1_554 S
C842 C837 1.363 . S
C842 C841 1.415 . S
C843 H819 0.951 . S
C843 C844 1.366 . S
C843 C845 1.388 . S
C844 C843 1.366 . S
C844 C848 1.385 . S
C845 H820 0.951 . S
C845 C843 1.388 . S
C845 C846 1.366 . S
C846 C845 1.366 . S
C846 C847 1.414 . S
C846 C849 1.499 . S
C847 H821 0.950 . S
C847 C846 1.414 . S
C847 C848 1.374 . S
C848 H822 0.950 . S
C848 C844 1.385 . S
C848 C847 1.374 . S
C849 C846 1.499 . S
C849 C850 1.373 . S
C849 C851 1.389 . S
C850 H823 0.950 . S
C850 C836 1.377 1_556 S
C850 C849 1.373 . S
C851 C835 1.377 1_556 S
C851 C849 1.389 . S
C851 C852 1.524 . S
C852 C851 1.524 . S
C852 C853 1.397 . S
C852 C857 1.363 . S
C853 H824 0.950 . S
C853 C852 1.397 . S
C853 C854 1.334 . S
C854 H825 0.950 . S
C854 C853 1.334 . S
C854 C855 1.287 . S
C855 C854 1.287 . S
C855 C856 1.524 . S
C855 H858 0.999 . S
C856 H826 0.950 . S
C856 C855 1.524 . S
C856 C857 1.415 . S
C857 H827 0.950 . S
C857 C852 1.363 . S
C857 C856 1.415 . S
H858 C855 0.999 . S
H859 C840 0.913 . S
H860 C878 0.951 . S
H861 C880 0.951 . S
H862 C882 0.950 . S
H863 C883 0.950 . S
H864 C885 0.950 . S
H865 C888 0.950 . S
H866 C889 0.950 . S
H867 C891 0.950 . S
H868 C892 0.950 . S
H869 C893 0.951 . S
H870 C895 0.951 . S
H871 C897 0.950 . S
H872 C898 0.950 . S
H873 C900 0.950 . S
H874 C903 0.950 . S
H875 C904 0.950 . S
H876 C906 0.950 . S
H877 C907 0.950 . S
C878 H860 0.951 . S
C878 C879 1.366 . S
C878 C880 1.388 . S
C879 C878 1.366 . S
C879 C883 1.385 . S
C880 H861 0.951 . S
C880 C878 1.388 . S
C880 C881 1.366 . S
C881 C880 1.366 . S
C881 C882 1.414 . S
C881 C884 1.499 . S
C882 H862 0.950 . S
C882 C881 1.414 . S
C882 C883 1.374 . S
C883 H863 0.950 . S
C883 C879 1.385 . S
C883 C882 1.374 . S
C884 C881 1.499 . S
C884 C885 1.373 . S
C884 C886 1.389 . S
C885 H864 0.950 . S
C885 C884 1.373 . S
C885 C901 1.377 1_554 S
C886 C884 1.389 . S
C886 C887 1.524 . S
C886 C900 1.377 1_554 S
C887 C886 1.524 . S
C887 C888 1.397 . S
C887 C892 1.363 . S
C888 H865 0.950 . S
C888 C887 1.397 . S
C888 C889 1.334 . S
C889 H866 0.950 . S
C889 C888 1.334 . S
C889 C890 1.287 . S
C890 C889 1.287 . S
C890 C891 1.524 . S
C890 H909 0.913 . S
C891 H867 0.950 . S
C891 C890 1.524 . S
C891 C892 1.415 . S
C892 H868 0.950 . S
C892 C887 1.363 . S
C892 C891 1.415 . S
C893 H869 0.951 . S
C893 C894 1.366 . S
C893 C895 1.388 . S
C894 C893 1.366 . S
C894 C898 1.385 . S
C895 H870 0.951 . S
C895 C893 1.388 . S
C895 C896 1.366 . S
C896 C895 1.366 . S
C896 C897 1.414 . S
C896 C899 1.499 . S
C897 H871 0.950 . S
C897 C896 1.414 . S
C897 C898 1.374 . S
C898 H872 0.950 . S
C898 C894 1.385 . S
C898 C897 1.374 . S
C899 C896 1.499 . S
C899 C900 1.373 . S
C899 C901 1.389 . S
C900 H873 0.950 . S
C900 C886 1.377 1_556 S
C900 C899 1.373 . S
C901 C885 1.377 1_556 S
C901 C899 1.389 . S
C901 C902 1.524 . S
C902 C901 1.524 . S
C902 C903 1.397 . S
C902 C907 1.363 . S
C903 H874 0.950 . S
C903 C902 1.397 . S
C903 C904 1.334 . S
C904 H875 0.950 . S
C904 C903 1.334 . S
C904 C905 1.287 . S
C905 C904 1.287 . S
C905 C906 1.524 . S
C905 H908 0.999 . S
C906 H876 0.950 . S
C906 C905 1.524 . S
C906 C907 1.415 . S
C907 H877 0.950 . S
C907 C902 1.363 . S
C907 C906 1.415 . S
H908 C905 0.999 . S
H909 C890 0.913 . S
H910 C928 0.951 . S
H911 C930 0.951 . S
H912 C932 0.950 . S
H913 C933 0.950 . S
H914 C935 0.950 . S
H915 C938 0.950 . S
H916 C939 0.950 . S
H917 C941 0.950 . S
H918 C942 0.957 . S
H919 C943 0.951 . S
H920 C945 0.951 . S
H921 C947 0.950 . S
H922 C948 0.950 . S
H923 C950 0.950 . S
H924 C953 0.950 . S
H925 C954 0.950 . S
H926 C956 0.950 . S
H927 C957 0.950 . S
C928 H910 0.951 . S
C928 C929 1.366 . S
C928 C930 1.388 . S
C929 C928 1.366 . S
C929 C933 1.385 . S
C930 H911 0.951 . S
C930 C928 1.388 . S
C930 C931 1.366 . S
C931 C930 1.366 . S
C931 C932 1.414 . S
C931 C934 1.499 . S
C932 H912 0.950 . S
C932 C931 1.414 . S
C932 C933 1.374 . S
C933 H913 0.950 . S
C933 C929 1.385 . S
C933 C932 1.374 . S
C934 C931 1.499 . S
C934 C935 1.373 . S
C934 C936 1.389 . S
C935 H914 0.950 . S
C935 C934 1.373 . S
C935 C951 1.377 1_556 S
C936 C934 1.389 . S
C936 C937 1.524 . S
C936 C950 1.377 1_556 S
C937 C936 1.524 . S
C937 C938 1.397 . S
C937 C942 1.363 . S
C938 H915 0.950 . S
C938 C937 1.397 . S
C938 C939 1.334 . S
C939 H916 0.950 . S
C939 C938 1.334 . S
C939 C940 1.287 . S
C940 C939 1.287 . S
C940 C941 1.524 . S
C940 H959 0.913 . S
C941 H917 0.950 . S
C941 C940 1.524 . S
C941 C942 1.415 . S
C942 H918 0.957 . S
C942 C937 1.363 . S
C942 C941 1.415 . S
C943 H919 0.951 . S
C943 C944 1.366 . S
C943 C945 1.388 . S
C944 C943 1.366 . S
C944 C948 1.385 . S
C945 H920 0.951 . S
C945 C943 1.388 . S
C945 C946 1.366 . S
C946 C945 1.366 . S
C946 C947 1.414 . S
C946 C949 1.499 . S
C947 H921 0.950 . S
C947 C946 1.414 . S
C947 C948 1.374 . S
C948 H922 0.950 . S
C948 C944 1.385 . S
C948 C947 1.374 . S
C949 C946 1.499 . S
C949 C950 1.373 . S
C949 C951 1.389 . S
C950 H923 0.950 . S
C950 C936 1.377 1_554 S
C950 C949 1.373 . S
C951 C935 1.377 1_554 S
C951 C949 1.389 . S
C951 C952 1.524 . S
C952 C951 1.524 . S
C952 C953 1.397 . S
C952 C957 1.363 . S
C953 H924 0.950 . S
C953 C952 1.397 . S
C953 C954 1.334 . S
C954 H925 0.950 . S
C954 C953 1.334 . S
C954 C955 1.287 . S
C955 C954 1.287 . S
C955 C956 1.524 . S
C955 H958 0.999 . S
C956 H926 0.950 . S
C956 C955 1.524 . S
C956 C957 1.415 . S
C957 H927 0.950 . S
C957 C952 1.363 . S
C957 C956 1.415 . S
H958 C955 0.999 . S
H959 C940 0.913 . S
H960 C978 0.951 . S
H961 C980 0.951 . S
H962 C982 0.950 . S
H963 C983 0.950 . S
H964 C985 0.950 . S
H965 C988 0.950 . S
H966 C989 0.950 . S
H967 C991 0.950 . S
H968 C992 0.950 . S
H969 C993 0.951 . S
H970 C995 0.951 . S
H971 C997 0.950 . S
H972 C998 0.950 . S
H973 C1000 0.950 . S
H974 C1003 0.950 . S
H975 C1004 0.950 . S
H976 C1006 0.950 . S
H977 C1007 0.950 . S
C978 H960 0.951 . S
C978 C979 1.366 . S
C978 C980 1.388 . S
C979 C978 1.366 . S
C979 C983 1.385 . S
C980 H961 0.951 . S
C980 C978 1.388 . S
C980 C981 1.366 . S
C981 C980 1.366 . S
C981 C982 1.414 . S
C981 C984 1.499 . S
C982 H962 0.950 . S
C982 C981 1.414 . S
C982 C983 1.374 . S
C983 H963 0.950 . S
C983 C979 1.385 . S
C983 C982 1.374 . S
C984 C981 1.499 . S
C984 C985 1.373 . S
C984 C986 1.389 . S
C985 H964 0.950 . S
C985 C984 1.373 . S
C985 C1001 1.377 . S
C986 C984 1.389 . S
C986 C987 1.524 . S
C986 C1000 1.377 . S
C987 C986 1.524 . S
C987 C988 1.397 . S
C987 C992 1.363 . S
C988 H965 0.950 . S
C988 C987 1.397 . S
C988 C989 1.334 . S
C989 H966 0.950 . S
C989 C988 1.334 . S
C989 C990 1.287 . S
C990 C989 1.287 . S
C990 C991 1.524 . S
C990 H1009 0.913 . S
C991 H967 0.950 . S
C991 C990 1.524 . S
C991 C992 1.415 . S
C992 H968 0.950 . S
C992 C987 1.363 . S
C992 C991 1.415 . S
C993 H969 0.951 . S
C993 C994 1.366 . S
C993 C995 1.388 . S
C994 C993 1.366 . S
C994 C998 1.385 . S
C995 H970 0.951 . S
C995 C993 1.388 . S
C995 C996 1.366 . S
C996 C995 1.366 . S
C996 C997 1.414 . S
C996 C999 1.499 . S
C997 H971 0.950 . S
C997 C996 1.414 . S
C997 C998 1.374 . S
C998 H972 0.950 . S
C998 C994 1.385 . S
C998 C997 1.374 . S
C999 C996 1.499 . S
C999 C1000 1.373 . S
C999 C1001 1.389 . S
C1000 H973 0.950 . S
C1000 C986 1.377 . S
C1000 C999 1.373 . S
C1001 C985 1.377 . S
C1001 C999 1.389 . S
C1001 C1002 1.524 . S
C1002 C1001 1.524 . S
C1002 C1003 1.397 . S
C1002 C1007 1.363 . S
C1003 H974 0.950 . S
C1003 C1002 1.397 . S
C1003 C1004 1.334 . S
C1004 H975 0.950 . S
C1004 C1003 1.334 . S
C1004 C1005 1.287 . S
C1005 C1004 1.287 . S
C1005 C1006 1.524 . S
C1005 H1008 0.999 . S
C1006 H976 0.950 . S
C1006 C1005 1.524 . S
C1006 C1007 1.415 . S
C1007 H977 0.950 . S
C1007 C1002 1.363 . S
C1007 C1006 1.415 . S
H1008 C1005 0.999 . S
H1009 C990 0.913 . S
H1010 C1028 0.951 . S
H1011 C1030 0.951 . S
H1012 C1032 0.950 . S
H1013 C1033 0.950 . S
H1014 C1035 0.950 . S
H1015 C1038 0.950 . S
H1016 C1039 0.950 . S
H1017 C1041 0.950 . S
H1018 C1042 0.950 . S
H1019 C1043 0.951 . S
H1020 C1045 0.951 . S
H1021 C1047 0.950 . S
H1022 C1048 0.950 . S
H1023 C1050 0.950 . S
H1024 C1053 0.950 . S
H1025 C1054 0.950 . S
H1026 C1056 0.950 . S
H1027 C1057 0.950 . S
C1028 H1010 0.951 . S
C1028 C1029 1.366 . S
C1028 C1030 1.388 . S
C1029 C1028 1.366 . S
C1029 C1033 1.385 . S
C1030 H1011 0.951 . S
C1030 C1028 1.388 . S
C1030 C1031 1.366 . S
C1031 C1030 1.366 . S
C1031 C1032 1.414 . S
C1031 C1034 1.499 . S
C1032 H1012 0.950 . S
C1032 C1031 1.414 . S
C1032 C1033 1.374 . S
C1033 H1013 0.950 . S
C1033 C1029 1.385 . S
C1033 C1032 1.374 . S
C1034 C1031 1.499 . S
C1034 C1035 1.373 . S
C1034 C1036 1.389 . S
C1035 H1014 0.950 . S
C1035 C1034 1.373 . S
C1035 C1051 1.377 . S
C1036 C1034 1.389 . S
C1036 C1037 1.524 . S
C1036 C1050 1.377 . S
C1037 C1036 1.524 . S
C1037 C1038 1.397 . S
C1037 C1042 1.363 . S
C1038 H1015 0.950 . S
C1038 C1037 1.397 . S
C1038 C1039 1.334 . S
C1039 H1016 0.950 . S
C1039 C1038 1.334 . S
C1039 C1040 1.287 . S
C1040 C1039 1.287 . S
C1040 C1041 1.524 . S
C1040 H1059 0.913 . S
C1041 H1017 0.950 . S
C1041 C1040 1.524 . S
C1041 C1042 1.415 . S
C1042 H1018 0.950 . S
C1042 C1037 1.363 . S
C1042 C1041 1.415 . S
C1043 H1019 0.951 . S
C1043 C1044 1.366 . S
C1043 C1045 1.388 . S
C1044 C1043 1.366 . S
C1044 C1048 1.385 . S
C1045 H1020 0.951 . S
C1045 C1043 1.388 . S
C1045 C1046 1.366 . S
C1046 C1045 1.366 . S
C1046 C1047 1.414 . S
C1046 C1049 1.499 . S
C1047 H1021 0.950 . S
C1047 C1046 1.414 . S
C1047 C1048 1.374 . S
C1048 H1022 0.950 . S
C1048 C1044 1.385 . S
C1048 C1047 1.374 . S
C1049 C1046 1.499 . S
C1049 C1050 1.373 . S
C1049 C1051 1.389 . S
C1050 H1023 0.950 . S
C1050 C1036 1.377 . S
C1050 C1049 1.373 . S
C1051 C1035 1.377 . S
C1051 C1049 1.389 . S
C1051 C1052 1.524 . S
C1052 C1051 1.524 . S
C1052 C1053 1.397 . S
C1052 C1057 1.363 . S
C1053 H1024 0.950 . S
C1053 C1052 1.397 . S
C1053 C1054 1.334 . S
C1054 H1025 0.950 . S
C1054 C1053 1.334 . S
C1054 C1055 1.287 . S
C1055 C1054 1.287 . S
C1055 C1056 1.524 . S
C1055 H1058 0.999 . S
C1056 H1026 0.950 . S
C1056 C1055 1.524 . S
C1056 C1057 1.415 . S
C1057 H1027 0.950 . S
C1057 C1052 1.363 . S
C1057 C1056 1.415 . S
H1058 C1055 0.999 . S
H1059 C1040 0.913 . S
H1060 C1078 0.951 . S
H1061 C1080 0.951 . S
H1062 C1082 0.950 . S
H1063 C1083 0.950 . S
H1064 C1085 0.950 . S
H1065 C1088 0.950 . S
H1066 C1089 0.950 . S
H1067 C1091 0.950 . S
H1068 C1092 0.950 . S
H1069 C1093 0.951 . S
H1070 C1095 0.951 . S
H1071 C1097 0.950 . S
H1072 C1098 0.950 . S
H1073 C1100 0.950 . S
H1074 C1103 0.950 . S
H1075 C1104 0.950 . S
H1076 C1106 0.950 . S
H1077 C1107 0.950 . S
C1078 H1060 0.951 . S
C1078 C1079 1.366 . S
C1078 C1080 1.388 . S
C1079 C1078 1.366 . S
C1079 C1083 1.385 . S
C1080 H1061 0.951 . S
C1080 C1078 1.388 . S
C1080 C1081 1.366 . S
C1081 C1080 1.366 . S
C1081 C1082 1.414 . S
C1081 C1084 1.499 . S
C1082 H1062 0.950 . S
C1082 C1081 1.414 . S
C1082 C1083 1.374 . S
C1083 H1063 0.950 . S
C1083 C1079 1.385 . S
C1083 C1082 1.374 . S
C1084 C1081 1.499 . S
C1084 C1085 1.373 . S
C1084 C1086 1.389 . S
C1085 H1064 0.950 . S
C1085 C1084 1.373 . S
C1085 C1101 1.377 . S
C1086 C1084 1.389 . S
C1086 C1087 1.524 . S
C1086 C1100 1.377 . S
C1087 C1086 1.524 . S
C1087 C1088 1.397 . S
C1087 C1092 1.363 . S
C1088 H1065 0.950 . S
C1088 C1087 1.397 . S
C1088 C1089 1.334 . S
C1089 H1066 0.950 . S
C1089 C1088 1.334 . S
C1089 C1090 1.287 . S
C1090 C1089 1.287 . S
C1090 C1091 1.524 . S
C1090 H1109 0.913 . S
C1091 H1067 0.950 . S
C1091 C1090 1.524 . S
C1091 C1092 1.415 . S
C1092 H1068 0.950 . S
C1092 C1087 1.363 . S
C1092 C1091 1.415 . S
C1093 H1069 0.951 . S
C1093 C1094 1.366 . S
C1093 C1095 1.388 . S
C1094 C1093 1.366 . S
C1094 C1098 1.385 . S
C1095 H1070 0.951 . S
C1095 C1093 1.388 . S
C1095 C1096 1.366 . S
C1096 C1095 1.366 . S
C1096 C1097 1.414 . S
C1096 C1099 1.499 . S
C1097 H1071 0.950 . S
C1097 C1096 1.414 . S
C1097 C1098 1.374 . S
C1098 H1072 0.950 . S
C1098 C1094 1.385 . S
C1098 C1097 1.374 . S
C1099 C1096 1.499 . S
C1099 C1100 1.373 . S
C1099 C1101 1.389 . S
C1100 H1073 0.950 . S
C1100 C1086 1.377 . S
C1100 C1099 1.373 . S
C1101 C1085 1.377 . S
C1101 C1099 1.389 . S
C1101 C1102 1.524 . S
C1102 C1101 1.524 . S
C1102 C1103 1.397 . S
C1102 C1107 1.363 . S
C1103 H1074 0.950 . S
C1103 C1102 1.397 . S
C1103 C1104 1.334 . S
C1104 H1075 0.950 . S
C1104 C1103 1.334 . S
C1104 C1105 1.287 . S
C1105 C1104 1.287 . S
C1105 C1106 1.524 . S
C1105 H1108 0.999 . S
C1106 H1076 0.950 . S
C1106 C1105 1.524 . S
C1106 C1107 1.415 . S
C1107 H1077 0.950 . S
C1107 C1102 1.363 . S
C1107 C1106 1.415 . S
H1108 C1105 0.999 . S
H1109 C1090 0.913 . S
H1110 C1128 0.951 . S
H1111 C1130 0.951 . S
H1112 C1132 0.950 . S
H1113 C1133 0.950 . S
H1114 C1135 0.950 . S
H1115 C1138 0.950 . S
H1116 C1139 0.950 . S
H1117 C1141 0.950 . S
H1118 C1142 0.950 . S
H1119 C1143 0.951 . S
H1120 C1145 0.951 . S
H1121 C1147 0.950 . S
H1122 C1148 0.950 . S
H1123 C1150 0.950 . S
H1124 C1153 0.950 . S
H1125 C1154 0.950 . S
H1126 C1156 0.950 . S
H1127 C1157 0.950 . S
C1128 H1110 0.951 . S
C1128 C1129 1.366 . S
C1128 C1130 1.388 . S
C1129 C1128 1.366 . S
C1129 C1133 1.385 . S
C1130 H1111 0.951 . S
C1130 C1128 1.388 . S
C1130 C1131 1.366 . S
C1131 C1130 1.366 . S
C1131 C1132 1.414 . S
C1131 C1134 1.499 . S
C1132 H1112 0.950 . S
C1132 C1131 1.414 . S
C1132 C1133 1.374 . S
C1133 H1113 0.950 . S
C1133 C1129 1.385 . S
C1133 C1132 1.374 . S
C1134 C1131 1.499 . S
C1134 C1135 1.373 . S
C1134 C1136 1.389 . S
C1135 H1114 0.950 . S
C1135 C1134 1.373 . S
C1135 C1151 1.377 . S
C1136 C1134 1.389 . S
C1136 C1137 1.524 . S
C1136 C1150 1.377 . S
C1137 C1136 1.524 . S
C1137 C1138 1.397 . S
C1137 C1142 1.363 . S
C1138 H1115 0.950 . S
C1138 C1137 1.397 . S
C1138 C1139 1.334 . S
C1139 H1116 0.950 . S
C1139 C1138 1.334 . S
C1139 C1140 1.287 . S
C1140 C1139 1.287 . S
C1140 C1141 1.524 . S
C1140 H1159 0.913 . S
C1141 H1117 0.950 . S
C1141 C1140 1.524 . S
C1141 C1142 1.415 . S
C1142 H1118 0.950 . S
C1142 C1137 1.363 . S
C1142 C1141 1.415 . S
C1143 H1119 0.951 . S
C1143 C1144 1.366 . S
C1143 C1145 1.388 . S
C1144 C1143 1.366 . S
C1144 C1148 1.385 . S
C1145 H1120 0.951 . S
C1145 C1143 1.388 . S
C1145 C1146 1.366 . S
C1146 C1145 1.366 . S
C1146 C1147 1.414 . S
C1146 C1149 1.499 . S
C1147 H1121 0.950 . S
C1147 C1146 1.414 . S
C1147 C1148 1.374 . S
C1148 H1122 0.950 . S
C1148 C1144 1.385 . S
C1148 C1147 1.374 . S
C1149 C1146 1.499 . S
C1149 C1150 1.373 . S
C1149 C1151 1.389 . S
C1150 H1123 0.950 . S
C1150 C1136 1.377 . S
C1150 C1149 1.373 . S
C1151 C1135 1.377 . S
C1151 C1149 1.389 . S
C1151 C1152 1.524 . S
C1152 C1151 1.524 . S
C1152 C1153 1.397 . S
C1152 C1157 1.363 . S
C1153 H1124 0.950 . S
C1153 C1152 1.397 . S
C1153 C1154 1.334 . S
C1154 H1125 0.950 . S
C1154 C1153 1.334 . S
C1154 C1155 1.287 . S
C1155 C1154 1.287 . S
C1155 C1156 1.524 . S
C1155 H1158 0.999 . S
C1156 H1126 0.950 . S
C1156 C1155 1.524 . S
C1156 C1157 1.415 . S
C1157 H1127 0.950 . S
C1157 C1152 1.363 . S
C1157 C1156 1.415 . S
H1158 C1155 0.999 . S
H1159 C1140 0.913 . S
H1160 C1178 0.951 . S
H1161 C1180 0.951 . S
H1162 C1182 0.950 . S
H1163 C1183 0.950 . S
H1164 C1185 0.950 . S
H1165 C1188 0.950 . S
H1166 C1189 0.950 . S
H1167 C1191 0.950 . S
H1168 C1192 0.950 . S
H1169 C1193 0.951 . S
H1170 C1195 0.951 . S
H1171 C1197 0.950 . S
H1172 C1198 0.950 . S
H1173 C1200 0.950 . S
H1174 C1203 0.950 . S
H1175 C1204 0.950 . S
H1176 C1206 0.950 . S
H1177 C1207 0.950 . S
C1178 H1160 0.951 . S
C1178 C1179 1.366 . S
C1178 C1180 1.388 . S
C1179 C1178 1.366 . S
C1179 C1183 1.385 . S
C1180 H1161 0.951 . S
C1180 C1178 1.388 . S
C1180 C1181 1.366 . S
C1181 C1180 1.366 . S
C1181 C1182 1.414 . S
C1181 C1184 1.499 . S
C1182 H1162 0.950 . S
C1182 C1181 1.414 . S
C1182 C1183 1.374 . S
C1183 H1163 0.950 . S
C1183 C1179 1.385 . S
C1183 C1182 1.374 . S
C1184 C1181 1.499 . S
C1184 C1185 1.373 . S
C1184 C1186 1.389 . S
C1185 H1164 0.950 . S
C1185 C1184 1.373 . S
C1185 C1201 1.377 1_455 S
C1186 C1184 1.389 . S
C1186 C1187 1.524 . S
C1186 C1200 1.377 1_455 S
C1187 C1186 1.524 . S
C1187 C1188 1.397 . S
C1187 C1192 1.363 . S
C1188 H1165 0.950 . S
C1188 C1187 1.397 . S
C1188 C1189 1.334 . S
C1189 H1166 0.950 . S
C1189 C1188 1.334 . S
C1189 C1190 1.287 . S
C1190 C1189 1.287 . S
C1190 C1191 1.524 . S
C1190 H1209 0.913 . S
C1191 H1167 0.950 . S
C1191 C1190 1.524 . S
C1191 C1192 1.415 . S
C1192 H1168 0.950 . S
C1192 C1187 1.363 . S
C1192 C1191 1.415 . S
C1193 H1169 0.951 . S
C1193 C1194 1.366 . S
C1193 C1195 1.388 . S
C1194 C1193 1.366 . S
C1194 C1198 1.385 . S
C1195 H1170 0.951 . S
C1195 C1193 1.388 . S
C1195 C1196 1.366 . S
C1196 C1195 1.366 . S
C1196 C1197 1.414 . S
C1196 C1199 1.499 . S
C1197 H1171 0.950 . S
C1197 C1196 1.414 . S
C1197 C1198 1.374 . S
C1198 H1172 0.950 . S
C1198 C1194 1.385 . S
C1198 C1197 1.374 . S
C1199 C1196 1.499 . S
C1199 C1200 1.373 . S
C1199 C1201 1.389 . S
C1200 H1173 0.950 . S
C1200 C1186 1.377 1_655 S
C1200 C1199 1.373 . S
C1201 C1185 1.377 1_655 S
C1201 C1199 1.389 . S
C1201 C1202 1.524 . S
C1202 C1201 1.524 . S
C1202 C1203 1.397 . S
C1202 C1207 1.363 . S
C1203 H1174 0.950 . S
C1203 C1202 1.397 . S
C1203 C1204 1.334 . S
C1204 H1175 0.950 . S
C1204 C1203 1.334 . S
C1204 C1205 1.287 . S
C1205 C1204 1.287 . S
C1205 C1206 1.524 . S
C1205 H1208 0.999 . S
C1206 H1176 0.950 . S
C1206 C1205 1.524 . S
C1206 C1207 1.415 . S
C1207 H1177 0.950 . S
C1207 C1202 1.363 . S
C1207 C1206 1.415 . S
H1208 C1205 0.999 . S
H1209 C1190 0.913 . S
H1210 C1228 0.951 . S
H1211 C1230 0.951 . S
H1212 C1232 0.950 . S
H1213 C1233 0.950 . S
H1214 C1235 0.950 . S
H1215 C1238 0.950 . S
H1216 C1239 0.950 . S
H1217 C1241 0.950 . S
H1218 C1242 0.950 . S
H1219 C1243 0.951 . S
H1220 C1245 0.951 . S
H1221 C1247 0.950 . S
H1222 C1248 0.950 . S
H1223 C1250 0.950 . S
H1224 C1253 0.950 . S
H1225 C1254 0.950 . S
H1226 C1256 0.950 . S
H1227 C1257 0.950 . S
C1228 H1210 0.951 . S
C1228 C1229 1.366 . S
C1228 C1230 1.388 . S
C1229 C1228 1.366 . S
C1229 C1233 1.385 . S
C1230 H1211 0.951 . S
C1230 C1228 1.388 . S
C1230 C1231 1.366 . S
C1231 C1230 1.366 . S
C1231 C1232 1.414 . S
C1231 C1234 1.499 . S
C1232 H1212 0.950 . S
C1232 C1231 1.414 . S
C1232 C1233 1.374 . S
C1233 H1213 0.950 . S
C1233 C1229 1.385 . S
C1233 C1232 1.374 . S
C1234 C1231 1.499 . S
C1234 C1235 1.373 . S
C1234 C1236 1.389 . S
C1235 H1214 0.950 . S
C1235 C1234 1.373 . S
C1235 C1251 1.377 1_655 S
C1236 C1234 1.389 . S
C1236 C1237 1.524 . S
C1236 C1250 1.377 1_655 S
C1237 C1236 1.524 . S
C1237 C1238 1.397 . S
C1237 C1242 1.363 . S
C1238 H1215 0.950 . S
C1238 C1237 1.397 . S
C1238 C1239 1.334 . S
C1239 H1216 0.950 . S
C1239 C1238 1.334 . S
C1239 C1240 1.287 . S
C1240 C1239 1.287 . S
C1240 C1241 1.524 . S
C1240 H1259 0.913 . S
C1241 H1217 0.950 . S
C1241 C1240 1.524 . S
C1241 C1242 1.415 . S
C1242 H1218 0.950 . S
C1242 C1237 1.363 . S
C1242 C1241 1.415 . S
C1243 H1219 0.951 . S
C1243 C1244 1.366 . S
C1243 C1245 1.388 . S
C1244 C1243 1.366 . S
C1244 C1248 1.385 . S
C1245 H1220 0.951 . S
C1245 C1243 1.388 . S
C1245 C1246 1.366 . S
C1246 C1245 1.366 . S
C1246 C1247 1.414 . S
C1246 C1249 1.499 . S
C1247 H1221 0.950 . S
C1247 C1246 1.414 . S
C1247 C1248 1.374 . S
C1248 H1222 0.950 . S
C1248 C1244 1.385 . S
C1248 C1247 1.374 . S
C1249 C1246 1.499 . S
C1249 C1250 1.373 . S
C1249 C1251 1.389 . S
C1250 H1223 0.950 . S
C1250 C1236 1.377 1_455 S
C1250 C1249 1.373 . S
C1251 C1235 1.377 1_455 S
C1251 C1249 1.389 . S
C1251 C1252 1.524 . S
C1252 C1251 1.524 . S
C1252 C1253 1.397 . S
C1252 C1257 1.363 . S
C1253 H1224 0.950 . S
C1253 C1252 1.397 . S
C1253 C1254 1.334 . S
C1254 H1225 0.950 . S
C1254 C1253 1.334 . S
C1254 C1255 1.287 . S
C1255 C1254 1.287 . S
C1255 C1256 1.524 . S
C1255 H1258 0.999 . S
C1256 H1226 0.950 . S
C1256 C1255 1.524 . S
C1256 C1257 1.415 . S
C1257 H1227 0.950 . S
C1257 C1252 1.363 . S
C1257 C1256 1.415 . S
H1258 C1255 0.999 . S
H1259 C1240 0.913 . S
H1260 C1278 0.951 . S
H1261 C1280 0.951 . S
H1262 C1282 0.950 . S
H1263 C1283 0.950 . S
H1264 C1285 0.950 . S
H1265 C1288 0.950 . S
H1266 C1289 0.950 . S
H1267 C1291 0.950 . S
H1268 C1292 0.950 . S
H1269 C1293 0.951 . S
H1270 C1295 0.951 . S
H1271 C1297 0.950 . S
H1272 C1298 0.950 . S
H1273 C1300 0.950 . S
H1274 C1303 0.950 . S
H1275 C1304 0.950 . S
H1276 C1306 0.950 . S
H1277 C1307 0.950 . S
C1278 H1260 0.951 . S
C1278 C1279 1.366 . S
C1278 C1280 1.388 . S
C1279 C1278 1.366 . S
C1279 C1283 1.385 . S
C1280 H1261 0.951 . S
C1280 C1278 1.388 . S
C1280 C1281 1.366 . S
C1281 C1280 1.366 . S
C1281 C1282 1.414 . S
C1281 C1284 1.499 . S
C1282 H1262 0.950 . S
C1282 C1281 1.414 . S
C1282 C1283 1.374 . S
C1283 H1263 0.950 . S
C1283 C1279 1.385 . S
C1283 C1282 1.374 . S
C1284 C1281 1.499 . S
C1284 C1285 1.373 . S
C1284 C1286 1.389 . S
C1285 H1264 0.950 . S
C1285 C1284 1.373 . S
C1285 C1301 1.377 . S
C1286 C1284 1.389 . S
C1286 C1287 1.524 . S
C1286 C1300 1.377 . S
C1287 C1286 1.524 . S
C1287 C1288 1.397 1_556 S
C1287 C1292 1.363 . S
C1288 H1265 0.950 . S
C1288 C1287 1.397 1_554 S
C1288 C1289 1.334 . S
C1289 H1266 0.950 . S
C1289 C1288 1.334 . S
C1289 C1290 1.287 . S
C1290 C1289 1.287 . S
C1290 C1291 1.524 . S
C1290 H1309 0.913 . S
C1291 H1267 0.950 . S
C1291 C1290 1.524 . S
C1291 C1292 1.415 1_554 S
C1292 H1268 0.950 . S
C1292 C1287 1.363 . S
C1292 C1291 1.415 1_556 S
C1293 H1269 0.951 . S
C1293 C1294 1.366 . S
C1293 C1295 1.388 . S
C1294 C1293 1.366 . S
C1294 C1298 1.385 . S
C1295 H1270 0.951 . S
C1295 C1293 1.388 . S
C1295 C1296 1.366 . S
C1296 C1295 1.366 . S
C1296 C1297 1.414 . S
C1296 C1299 1.499 . S
C1297 H1271 0.950 . S
C1297 C1296 1.414 . S
C1297 C1298 1.374 . S
C1298 H1272 0.950 . S
C1298 C1294 1.385 . S
C1298 C1297 1.374 . S
C1299 C1296 1.499 . S
C1299 C1300 1.373 . S
C1299 C1301 1.389 . S
C1300 H1273 0.950 . S
C1300 C1286 1.377 . S
C1300 C1299 1.373 . S
C1301 C1285 1.377 . S
C1301 C1299 1.389 . S
C1301 C1302 1.524 . S
C1302 C1301 1.524 . S
C1302 C1303 1.397 . S
C1302 C1307 1.363 . S
C1303 H1274 0.950 . S
C1303 C1302 1.397 . S
C1303 C1304 1.334 . S
C1304 H1275 0.950 . S
C1304 C1303 1.334 . S
C1304 C1305 1.287 . S
C1305 C1304 1.287 . S
C1305 C1306 1.524 . S
C1305 H1308 0.999 . S
C1306 H1276 0.950 . S
C1306 C1305 1.524 . S
C1306 C1307 1.415 . S
C1307 H1277 0.950 . S
C1307 C1302 1.363 . S
C1307 C1306 1.415 . S
H1308 C1305 0.999 . S
H1309 C1290 0.913 . S
H1310 C1328 0.951 . S
H1311 C1330 0.951 . S
H1312 C1332 0.950 . S
H1313 C1333 0.950 . S
H1314 C1335 0.950 . S
H1315 C1338 0.950 . S
H1316 C1339 0.950 . S
H1317 C1341 0.950 1_554 S
H1318 C1342 0.950 . S
H1319 C1343 0.951 . S
H1320 C1345 0.951 . S
H1321 C1347 0.950 . S
H1322 C1348 0.950 . S
H1323 C1350 0.950 . S
H1324 C1353 0.950 . S
H1325 C1354 0.950 . S
H1326 C1356 0.950 . S
H1327 C1357 0.950 . S
C1328 H1310 0.951 . S
C1328 C1329 1.366 . S
C1328 C1330 1.388 . S
C1329 C1328 1.366 . S
C1329 C1333 1.385 . S
C1330 H1311 0.951 . S
C1330 C1328 1.388 . S
C1330 C1331 1.366 . S
C1331 C1330 1.366 . S
C1331 C1332 1.414 . S
C1331 C1334 1.499 . S
C1332 H1312 0.950 . S
C1332 C1331 1.414 . S
C1332 C1333 1.374 . S
C1333 H1313 0.950 . S
C1333 C1329 1.385 . S
C1333 C1332 1.374 . S
C1334 C1331 1.499 . S
C1334 C1335 1.373 . S
C1334 C1336 1.389 . S
C1335 H1314 0.950 . S
C1335 C1334 1.373 . S
C1335 C1351 1.377 . S
C1336 C1334 1.389 . S
C1336 C1337 1.524 . S
C1336 C1350 1.377 . S
C1337 C1336 1.524 . S
C1337 C1338 1.397 1_554 S
C1337 C1342 1.363 . S
C1338 H1315 0.950 . S
C1338 C1337 1.397 1_556 S
C1338 C1339 1.334 . S
C1339 H1316 0.950 . S
C1339 C1338 1.334 . S
C1339 C1340 1.287 . S
C1340 C1339 1.287 . S
C1340 C1341 1.524 . S
C1340 H1359 0.913 . S
C1341 H1317 0.950 1_556 S
C1341 C1340 1.524 . S
C1341 C1342 1.415 1_556 S
C1342 H1318 0.950 . S
C1342 C1337 1.363 . S
C1342 C1341 1.415 1_554 S
C1343 H1319 0.951 . S
C1343 C1344 1.366 . S
C1343 C1345 1.388 . S
C1344 C1343 1.366 . S
C1344 C1348 1.385 . S
C1345 H1320 0.951 . S
C1345 C1343 1.388 . S
C1345 C1346 1.366 . S
C1346 C1345 1.366 . S
C1346 C1347 1.414 . S
C1346 C1349 1.499 . S
C1347 H1321 0.950 . S
C1347 C1346 1.414 . S
C1347 C1348 1.374 . S
C1348 H1322 0.950 . S
C1348 C1344 1.385 . S
C1348 C1347 1.374 . S
C1349 C1346 1.499 . S
C1349 C1350 1.373 . S
C1349 C1351 1.389 . S
C1350 H1323 0.950 . S
C1350 C1336 1.377 . S
C1350 C1349 1.373 . S
C1351 C1335 1.377 . S
C1351 C1349 1.389 . S
C1351 C1352 1.524 . S
C1352 C1351 1.524 . S
C1352 C1353 1.397 . S
C1352 C1357 1.363 . S
C1353 H1324 0.950 . S
C1353 C1352 1.397 . S
C1353 C1354 1.334 . S
C1354 H1325 0.950 . S
C1354 C1353 1.334 . S
C1354 C1355 1.287 . S
C1355 C1354 1.287 . S
C1355 C1356 1.524 . S
C1355 H1358 0.999 . S
C1356 H1326 0.950 . S
C1356 C1355 1.524 . S
C1356 C1357 1.415 . S
C1357 H1327 0.950 . S
C1357 C1352 1.363 . S
C1357 C1356 1.415 . S
H1358 C1355 0.999 . S
H1359 C1340 0.913 . S
C179 C2 1.725 . S
C194 C141 1.724 . S
C229 C121 1.725 . S
C244 C22 1.724 . S
C279 C102 1.725 . S
C294 C41 1.724 . S
C329 C82 1.725 . S
C344 C61 1.724 . S
C379 C48 1.461 . S
C394 C8 1.463 . S
C429 C28 1.463 . S
C444 C68 1.461 . S
C479 C69 1.462 . S
C494 C29 1.461 . S
C529 C49 1.463 . S
C544 C9 1.461 . S
C579 C88 1.459 . S
C594 C128 1.460 . S
C629 C108 1.459 . S
C644 C148 1.459 . S
C679 C149 1.459 . S
C694 C109 1.460 . S
C729 C129 1.459 . S
C744 C89 1.459 . S
C779 C19 1.626 . S
C794 C18 1.626 . S
C829 C39 1.625 . S
C844 C38 1.625 . S
C879 C59 1.625 . S
C894 C58 1.625 . S
C929 C78 1.626 . S
C944 C79 1.626 . S
C979 C98 1.626 . S
C994 C99 1.626 . S
C1029 C119 1.626 . S
C1044 C118 1.626 . S
C1079 C138 1.625 . S
C1094 C139 1.625 . S
C1129 C158 1.626 . S
C1144 C159 1.626 . S
C1179 C1 1.922 . S
C1194 C21 1.921 . S
C1229 C62 1.922 . S
C1244 C42 1.921 . S
C1279 C81 1.922 . S
C1294 C101 1.921 . S
C1329 C142 1.922 . S
C1344 C122 1.921 . S
