# Generated by pormake.
# Topology nov, (5)-cn, num edge types: 1
# Building blocks:
#     Node 0, Type 0, BuildingBlock: BEQFEK_clean_sbu_0, # of connection points: 5
#     Node 1, Type 0, BuildingBlock: BEQFEK_clean_sbu_0, # of connection points: 5
#     Node 2, Type 0, BuildingBlock: BEQFEK_clean_sbu_0, # of connection points: 5
#     Node 3, Type 0, BuildingBlock: BEQFEK_clean_sbu_0, # of connection points: 5
#     Node 4, Type 0, BuildingBlock: BEQFEK_clean_sbu_0, # of connection points: 5
#     Node 5, Type 0, BuildingBlock: BEQFEK_clean_sbu_0, # of connection points: 5
#     Node 6, Type 0, BuildingBlock: BEQFEK_clean_sbu_0, # of connection points: 5
#     Node 7, Type 0, BuildingBlock: BEQFEK_clean_sbu_0, # of connection points: 5
#     Edge 8, Type (0, 0), BuildingBlock: XIVTED_clean_linker_0, # of connection points: 2
#     Edge 9, Type (0, 0), BuildingBlock: XIVTED_clean_linker_0, # of connection points: 2
#     Edge 10, Type (0, 0), BuildingBlock: XIVTED_clean_linker_0, # of connection points: 2
#     Edge 11, Type (0, 0), BuildingBlock: XIVTED_clean_linker_0, # of connection points: 2
#     Edge 12, Type (0, 0), BuildingBlock: XIVTED_clean_linker_0, # of connection points: 2
#     Edge 13, Type (0, 0), BuildingBlock: XIVTED_clean_linker_0, # of connection points: 2
#     Edge 14, Type (0, 0), BuildingBlock: XIVTED_clean_linker_0, # of connection points: 2
#     Edge 15, Type (0, 0), BuildingBlock: XIVTED_clean_linker_0, # of connection points: 2
#     Edge 16, Type (0, 0), BuildingBlock: XIVTED_clean_linker_0, # of connection points: 2
#     Edge 17, Type (0, 0), BuildingBlock: XIVTED_clean_linker_0, # of connection points: 2
#     Edge 18, Type (0, 0), BuildingBlock: XIVTED_clean_linker_0, # of connection points: 2
#     Edge 19, Type (0, 0), BuildingBlock: XIVTED_clean_linker_0, # of connection points: 2
#     Edge 20, Type (0, 0), BuildingBlock: XIVTED_clean_linker_0, # of connection points: 2
#     Edge 21, Type (0, 0), BuildingBlock: XIVTED_clean_linker_0, # of connection points: 2
#     Edge 22, Type (0, 0), BuildingBlock: XIVTED_clean_linker_0, # of connection points: 2
#     Edge 23, Type (0, 0), BuildingBlock: XIVTED_clean_linker_0, # of connection points: 2
#     Edge 24, Type (0, 0), BuildingBlock: XIVTED_clean_linker_0, # of connection points: 2
#     Edge 25, Type (0, 0), BuildingBlock: XIVTED_clean_linker_0, # of connection points: 2
#     Edge 26, Type (0, 0), BuildingBlock: XIVTED_clean_linker_0, # of connection points: 2
#     Edge 27, Type (0, 0), BuildingBlock: XIVTED_clean_linker_0, # of connection points: 2
# Relax obj value: 0.074
# Max RMSD: 0.099
# Mean RMSD: 0.099
data_MOF--net-nov--node1-BEQFEK_clean_sbu_0--edge1-XIVTED_clean_linker_0
_symmetry_space_group_name_H-M    P1
_symmetry_Int_Tables_number       1
_symmetry_cell_setting            triclinic
loop_
_symmetry_equiv_pos_as_xyz
'x, y, z'
_cell_length_a     38.788949
_cell_length_b     40.821253
_cell_length_c     25.954679
_cell_angle_alpha  90.009151
_cell_angle_beta   89.991077
_cell_angle_gamma 90.031983
loop_
_atom_site_label
_atom_site_type_symbol
_atom_site_fract_x
_atom_site_fract_y
_atom_site_fract_z
_atom_type_partial_charge
Co0 Co 0.96728 0.13757 0.18248 0.0
Co1 Co 0.04863 0.13894 0.17446 0.0
C2 C 0.00607 0.08484 0.12811 0.0
O3 O 0.97765 0.09729 0.14283 0.0
O4 O 0.03479 0.09826 0.13897 0.0
C5 C 0.89879 0.11217 0.20086 0.0
O6 O 0.91376 0.0839 0.19174 0.0
C7 C 0.12013 0.11982 0.20083 0.0
C8 C 0.14977 0.15587 0.15528 0.0
C9 C 0.15344 0.12948 0.18832 0.0
N10 N 0.09787 0.13976 0.17639 0.0
N11 N 0.11582 0.16118 0.14921 0.0
C12 C 0.1095 0.09075 0.23212 0.0
H13 H 0.08199 0.08472 0.22506 0.0
H14 H 0.11289 0.09622 0.27364 0.0
H15 H 0.12606 0.06941 0.22262 0.0
C16 C 0.9848 0.14781 0.29224 0.0
N17 N 0.99445 0.14053 0.24377 0.0
N18 N 0.02821 0.14319 0.24017 0.0
C19 C 0.04091 0.15383 0.28552 0.0
C20 C 0.01385 0.15685 0.32035 0.0
C21 C 0.9481 0.14799 0.31005 0.0
H22 H 0.93501 0.12543 0.2965 0.0
H23 H 0.94636 0.14916 0.35269 0.0
H24 H 0.93457 0.16935 0.29305 0.0
O25 O 0.97692 0.17597 0.13657 0.0
O26 O 0.03419 0.17622 0.1325 0.0
H27 H 0.08673 0.17631 0.25459 0.0
H28 H 0.07677 0.18831 0.31943 0.0
C29 C 0.07654 0.16751 0.29193 0.0
H30 H 0.09378 0.14816 0.30716 0.0
H31 H 0.10487 0.17934 0.12612 0.0
O32 O 0.91682 0.13822 0.19942 0.0
C33 C 0.00513 0.18835 0.12034 0.0
Co34 Co 0.58183 0.85011 0.68515 0.0
Co35 Co 0.50105 0.8583 0.68379 0.0
C36 C 0.54432 0.9067 0.63146 0.0
O37 O 0.57142 0.8907 0.64372 0.0
O38 O 0.51455 0.89759 0.64633 0.0
C39 C 0.648 0.87518 0.71336 0.0
O40 O 0.6302 0.90231 0.71909 0.0
C41 C 0.42765 0.87691 0.70277 0.0
C42 C 0.40461 0.82738 0.70498 0.0
C43 C 0.39709 0.8602 0.71166 0.0
N44 N 0.45231 0.85472 0.69188 0.0
N45 N 0.43807 0.8253 0.69216 0.0
C46 C 0.43394 0.91278 0.70948 0.0
H47 H 0.46199 0.91813 0.71029 0.0
H48 H 0.4216 0.9215 0.74556 0.0
H49 H 0.42193 0.92617 0.6769 0.0
C50 C 0.5657 0.8375 0.7955 0.0
N51 N 0.55683 0.84859 0.74836 0.0
N52 N 0.5236 0.85501 0.74799 0.0
C53 C 0.51063 0.8497 0.7953 0.0
C54 C 0.53652 0.83757 0.82682 0.0
C55 C 0.59997 0.82242 0.80732 0.0
H56 H 0.61024 0.80989 0.77264 0.0
H57 H 0.61831 0.8421 0.81823 0.0
H58 H 0.59819 0.80463 0.8395 0.0
O59 O 0.56953 0.8115 0.64251 0.0
O60 O 0.51312 0.82018 0.64077 0.0
H61 H 0.45778 0.83457 0.79389 0.0
H62 H 0.47034 0.85544 0.85222 0.0
C63 C 0.47365 0.85476 0.80976 0.0
H64 H 0.46447 0.87826 0.79359 0.0
H65 H 0.45162 0.80358 0.686 0.0
O66 O 0.63242 0.84928 0.69915 0.0
C67 C 0.5394 0.80361 0.62742 0.0
Co68 Co 0.97022 0.85301 0.80444 0.0
Co69 Co 0.05127 0.85475 0.81591 0.0
C70 C 0.00781 0.90596 0.86398 0.0
O71 O 0.98016 0.89285 0.84708 0.0
O72 O 0.03726 0.89389 0.85383 0.0
C73 C 0.90373 0.87996 0.77865 0.0
O74 O 0.92002 0.908 0.78361 0.0
C75 C 0.12541 0.87357 0.80827 0.0
C76 C 0.14956 0.82566 0.82468 0.0
C77 C 0.15702 0.8581 0.81402 0.0
N78 N 0.10035 0.85109 0.81509 0.0
N79 N 0.1151 0.82258 0.82484 0.0
C80 C 0.11916 0.90924 0.79909 0.0
H81 H 0.0914 0.91519 0.80294 0.0
H82 H 0.12777 0.91585 0.7597 0.0
H83 H 0.13453 0.92399 0.82674 0.0
C84 C 0.99119 0.8416 0.69572 0.0
N85 N 0.99857 0.85067 0.74444 0.0
N86 N 0.03219 0.85377 0.74917 0.0
C87 C 0.04718 0.84796 0.70339 0.0
C88 C 0.02189 0.83938 0.66802 0.0
C89 C 0.9562 0.83025 0.6791 0.0
H90 H 0.94382 0.81621 0.71068 0.0
H91 H 0.9399 0.85196 0.67093 0.0
H92 H 0.9574 0.81467 0.64416 0.0
O93 O 0.97836 0.81403 0.84823 0.0
O94 O 0.03541 0.81591 0.85455 0.0
H95 H 0.09756 0.82767 0.71399 0.0
H96 H 0.09166 0.84827 0.65283 0.0
C97 C 0.0853 0.84886 0.69449 0.0
H98 H 0.09599 0.87165 0.71111 0.0
H99 H 0.10158 0.80093 0.83193 0.0
O100 O 0.92033 0.85341 0.78517 0.0
C101 C 0.0067 0.80234 0.8648 0.0
Co102 Co 0.57893 0.13868 0.30995 0.0
Co103 Co 0.49783 0.13157 0.31558 0.0
C104 C 0.54246 0.08069 0.36024 0.0
O105 O 0.56955 0.09679 0.34835 0.0
O106 O 0.51259 0.09082 0.34782 0.0
C107 C 0.644 0.11423 0.27552 0.0
O108 O 0.62556 0.08762 0.26823 0.0
C109 C 0.42436 0.11194 0.29973 0.0
C110 C 0.39834 0.15763 0.32367 0.0
C111 C 0.39214 0.12623 0.30595 0.0
N112 N 0.44855 0.1341 0.31299 0.0
N113 N 0.43268 0.16125 0.32742 0.0
C114 C 0.43191 0.07739 0.28416 0.0
H115 H 0.45984 0.07203 0.2877 0.0
H116 H 0.42384 0.0734 0.24367 0.0
H117 H 0.41684 0.06028 0.30861 0.0
C118 C 0.56027 0.15452 0.20168 0.0
N119 N 0.55203 0.14262 0.24856 0.0
N120 N 0.51849 0.13782 0.25059 0.0
C121 C 0.50449 0.14556 0.20479 0.0
C122 C 0.53031 0.15693 0.17235 0.0
C123 C 0.59509 0.16804 0.18863 0.0
H124 H 0.60651 0.18004 0.22297 0.0
H125 H 0.61224 0.14758 0.17706 0.0
H126 H 0.59379 0.18602 0.15667 0.0
O127 O 0.56808 0.17577 0.35684 0.0
O128 O 0.51157 0.16774 0.36136 0.0
H129 H 0.45288 0.16286 0.21519 0.0
H130 H 0.46144 0.14658 0.15152 0.0
C131 C 0.46674 0.14362 0.19325 0.0
H132 H 0.45686 0.11943 0.20545 0.0
H133 H 0.44533 0.18241 0.33977 0.0
O134 O 0.62924 0.13972 0.29306 0.0
C135 C 0.53852 0.1834 0.37458 0.0
Co136 Co 0.46832 0.63964 0.18654 0.0
Co137 Co 0.54977 0.63959 0.18364 0.0
C138 C 0.50763 0.58756 0.13125 0.0
O139 O 0.47917 0.6003 0.14512 0.0
O140 O 0.53635 0.59996 0.14473 0.0
C141 C 0.39912 0.61458 0.19875 0.0
O142 O 0.41406 0.58643 0.18871 0.0
C143 C 0.62044 0.62041 0.21538 0.0
C144 C 0.65139 0.65446 0.16795 0.0
C145 C 0.65401 0.62931 0.20341 0.0
N146 N 0.59889 0.63961 0.18818 0.0
N147 N 0.61763 0.65983 0.15991 0.0
C148 C 0.60914 0.5926 0.24884 0.0
H149 H 0.5806 0.59072 0.24957 0.0
H150 H 0.61902 0.59611 0.28854 0.0
H151 H 0.62031 0.56942 0.23396 0.0
C152 C 0.48274 0.64669 0.29789 0.0
N153 N 0.49368 0.64056 0.24963 0.0
N154 N 0.52754 0.64283 0.2483 0.0
C155 C 0.53904 0.65223 0.29502 0.0
C156 C 0.51108 0.65462 0.32836 0.0
C157 C 0.44558 0.64676 0.31341 0.0
H158 H 0.43279 0.66879 0.29724 0.0
H159 H 0.43262 0.62481 0.29734 0.0
H160 H 0.44265 0.64664 0.35593 0.0
O161 O 0.47997 0.67895 0.14359 0.0
O162 O 0.53728 0.67801 0.14291 0.0
H163 H 0.58622 0.67431 0.26805 0.0
H164 H 0.57384 0.6864 0.33189 0.0
C165 C 0.57451 0.66558 0.30442 0.0
H166 H 0.59093 0.64611 0.32124 0.0
H167 H 0.60736 0.67721 0.13472 0.0
O168 O 0.41743 0.64047 0.2002 0.0
C169 C 0.50888 0.69106 0.12972 0.0
Co170 Co 0.07798 0.35513 0.68027 0.0
Co171 Co 0.99698 0.363 0.6762 0.0
C172 C 0.04131 0.41389 0.63201 0.0
O173 O 0.06825 0.39744 0.64322 0.0
O174 O 0.01141 0.40389 0.64446 0.0
C175 C 0.14309 0.37138 0.72942 0.0
O176 O 0.12389 0.38907 0.76046 0.0
C177 C 0.92339 0.38266 0.69108 0.0
C178 C 0.89764 0.33643 0.66898 0.0
C179 C 0.89125 0.36816 0.68491 0.0
N180 N 0.94773 0.3603 0.67937 0.0
N181 N 0.93201 0.33281 0.66615 0.0
C182 C 0.9307 0.41752 0.70505 0.0
H183 H 0.95862 0.42297 0.70167 0.0
H184 H 0.92238 0.42222 0.74524 0.0
H185 H 0.9157 0.43408 0.67962 0.0
C186 C 0.05911 0.33721 0.78873 0.0
N187 N 0.05142 0.35023 0.7423 0.0
N188 N 0.0181 0.3564 0.74082 0.0
C189 C 0.00392 0.349 0.78664 0.0
C190 C 0.02924 0.33615 0.81845 0.0
C191 C 0.09256 0.32063 0.80092 0.0
H192 H 0.10641 0.31404 0.76504 0.0
H193 H 0.10886 0.33742 0.82408 0.0
H194 H 0.08811 0.29813 0.82399 0.0
O195 O 0.06664 0.31848 0.63289 0.0
O196 O 0.01019 0.32689 0.62983 0.0
H197 H 0.95142 0.3337 0.77876 0.0
H198 H 0.96155 0.35142 0.84089 0.0
C199 C 0.96645 0.35298 0.79885 0.0
H200 H 0.95761 0.37718 0.78506 0.0
H201 H 0.94479 0.31146 0.65501 0.0
O202 O 0.12884 0.35477 0.69379 0.0
C203 C 0.03684 0.31107 0.61585 0.0
Co204 Co 0.46709 0.35733 0.81104 0.0
Co205 Co 0.54841 0.35706 0.81743 0.0
C206 C 0.50568 0.41123 0.86289 0.0
O207 O 0.47735 0.39842 0.84849 0.0
O208 O 0.53447 0.3979 0.85235 0.0
C209 C 0.39936 0.37959 0.77831 0.0
O210 O 0.41581 0.40608 0.76341 0.0
C211 C 0.61972 0.37668 0.79001 0.0
C212 C 0.64968 0.34147 0.83665 0.0
C213 C 0.65309 0.36757 0.80301 0.0
N214 N 0.59764 0.35673 0.81486 0.0
N215 N 0.61579 0.33579 0.84263 0.0
C216 C 0.60891 0.40535 0.75802 0.0
H217 H 0.58083 0.40989 0.76222 0.0
H218 H 0.61474 0.40049 0.71692 0.0
H219 H 0.6237 0.42743 0.76968 0.0
C220 C 0.48391 0.34422 0.70111 0.0
N221 N 0.49356 0.35324 0.74893 0.0
N222 N 0.52744 0.35167 0.75214 0.0
C223 C 0.54025 0.34034 0.70728 0.0
C224 C 0.51313 0.33551 0.67315 0.0
C225 C 0.44718 0.34197 0.68378 0.0
H226 H 0.43325 0.32378 0.70779 0.0
H227 H 0.43466 0.36609 0.68899 0.0
H228 H 0.44503 0.33524 0.64252 0.0
O229 O 0.47772 0.31983 0.85804 0.0
O230 O 0.53499 0.31993 0.86063 0.0
H231 H 0.58627 0.31852 0.73832 0.0
H232 H 0.57764 0.30759 0.67257 0.0
C233 C 0.57633 0.32778 0.70109 0.0
H234 H 0.59316 0.34794 0.68753 0.0
H235 H 0.60501 0.31777 0.86619 0.0
O236 O 0.41622 0.35603 0.79815 0.0
C237 C 0.50615 0.30776 0.87383 0.0
Co238 Co 0.07935 0.64331 0.30431 0.0
Co239 Co 0.9983 0.64166 0.31724 0.0
C240 C 0.04261 0.59088 0.36559 0.0
O241 O 0.07015 0.60361 0.34761 0.0
O242 O 0.01314 0.60305 0.35587 0.0
C243 C 0.14375 0.61688 0.26819 0.0
O244 O 0.1254 0.58998 0.26335 0.0
C245 C 0.92412 0.62237 0.31175 0.0
C246 C 0.89971 0.67022 0.32769 0.0
C247 C 0.89237 0.63769 0.31759 0.0
N248 N 0.94908 0.64502 0.31786 0.0
N249 N 0.93418 0.67348 0.32757 0.0
C250 C 0.93059 0.58667 0.30296 0.0
H251 H 0.95743 0.58014 0.31337 0.0
H252 H 0.92663 0.5808 0.26167 0.0
H253 H 0.91211 0.57176 0.32571 0.0
C254 C 0.05747 0.6545 0.19589 0.0
N255 N 0.05046 0.64536 0.24472 0.0
N256 N 0.01685 0.64237 0.25004 0.0
C257 C 1.00151 0.64838 0.20456 0.0
C258 C 0.02657 0.65688 0.16873 0.0
C259 C 0.09229 0.66602 0.1787 0.0
H260 H 0.10548 0.67891 0.21074 0.0
H261 H 0.1081 0.64445 0.16787 0.0
H262 H 0.09058 0.68276 0.14517 0.0
O263 O 0.07138 0.68254 0.34777 0.0
O264 O 0.01432 0.68084 0.35449 0.0
H265 H 0.95154 0.66932 0.21615 0.0
H266 H 0.95655 0.64843 0.15501 0.0
C267 C 0.96331 0.64792 0.19653 0.0
H268 H 0.95247 0.62535 0.21361 0.0
H269 H 0.94758 0.69526 0.3341 0.0
O270 O 0.12913 0.64277 0.28448 0.0
C271 C 0.04309 0.69444 0.36421 0.0
H272 H 0.95019 0.93491 0.90595 0.0
H273 H 0.06152 0.05143 0.09001 0.0
H274 H 0.06142 0.94052 0.90504 0.0
H275 H 0.95019 0.05332 0.08573 0.0
H276 H 0.06122 0.0086 0.02489 0.0
H277 H 0.94892 0.97747 0.97249 0.0
C278 C 0.9743 0.94527 0.91932 0.0
C279 C 0.00596 0.93399 0.89998 0.0
C280 C 0.03681 0.01826 0.03826 0.0
C281 C 0.00467 0.98229 0.97642 0.0
C282 C 0.03695 0.04266 0.07572 0.0
C283 C 0.00583 0.05618 0.09325 0.0
C284 C 0.00534 0.00718 0.01797 0.0
C285 C 0.97482 0.04366 0.07331 0.0
C286 C 0.97355 0.96942 0.95749 0.0
C287 C 0.03638 0.94827 0.91888 0.0
N288 N 0.97536 0.01996 0.03649 0.0
N289 N 0.03495 0.9715 0.95613 0.0
H290 H 0.49037 0.04014 0.39047 0.0
H291 H 0.6023 0.93286 0.58553 0.0
H292 H 0.59983 0.05575 0.40925 0.0
H293 H 0.49147 0.94279 0.59179 0.0
H294 H 0.60373 0.97381 0.51625 0.0
H295 H 0.4924 -0.00169 0.45688 0.0
C296 C 0.51498 0.03457 0.40816 0.0
C297 C 0.54493 0.05182 0.39454 0.0
C298 C 0.57921 0.96706 0.53316 0.0
C299 C 0.5473 0.0039 0.47139 0.0
C300 C 0.57835 0.94383 0.57281 0.0
C301 C 0.54669 0.9342 0.59443 0.0
C302 C 0.54818 0.98038 0.5148 0.0
C303 C 0.5165 0.94924 0.57632 0.0
C304 C 0.51605 0.01077 0.44643 0.0
C305 C 0.57608 0.04318 0.41868 0.0
N306 N 0.518 0.97132 0.5374 0.0
N307 N 0.57644 0.0199 0.45626 0.0
H308 H 0.5631 0.55529 0.09027 0.0
H309 H 0.44944 0.44343 0.90237 0.0
H310 H 0.45176 0.55725 0.08716 0.0
H311 H 0.56081 0.44396 0.90398 0.0
H312 H 0.44955 0.48593 0.96865 0.0
H313 H 0.56247 0.5139 0.02264 0.0
C314 C 0.53848 0.54684 0.07573 0.0
C315 C 0.50743 0.55989 0.09443 0.0
C316 C 0.47395 0.47686 0.95426 0.0
C317 C 0.50657 0.51265 0.01636 0.0
C318 C 0.47392 0.45272 0.91616 0.0
C319 C 0.50517 0.43993 0.89769 0.0
C320 C 0.50543 0.48827 0.97409 0.0
C321 C 0.53607 0.45293 0.91713 0.0
C322 C 0.53816 0.52329 0.03684 0.0
C323 C 0.47634 0.54793 0.07396 0.0
N324 N 0.5354 0.47622 0.95445 0.0
N325 N 0.47672 0.52507 0.03589 0.0
H326 H 0.99024 0.45702 0.60766 0.0
H327 H 0.10043 0.55975 0.40354 0.0
H328 H 0.098 0.43722 0.57947 0.0
H329 H 0.98921 0.55969 0.41312 0.0
H330 H 0.10213 0.51822 0.47193 0.0
H331 H 0.99198 0.49993 0.54295 0.0
C332 C 0.01443 0.46189 0.58822 0.0
C333 C 0.04395 0.4432 0.59872 0.0
C334 C 0.07744 0.52729 0.45875 0.0
C335 C 0.04597 0.49231 0.52376 0.0
C336 C 0.07641 0.55085 0.4196 0.0
C337 C 0.04463 0.56337 0.40261 0.0
C338 C 0.0465 0.51647 0.48118 0.0
C339 C 0.01435 0.55096 0.42494 0.0
C340 C 0.01534 0.48633 0.55096 0.0
C341 C 0.0746 0.45096 0.5725 0.0
N342 N 0.01608 0.52842 0.46315 0.0
N343 N 0.07478 0.47482 0.53586 0.0
H344 H 0.37162 0.09821 0.21525 0.0
H345 H 0.17169 0.11298 0.28707 0.0
H346 H 0.33419 0.12802 0.36442 0.0
H347 H 0.21148 0.11898 0.13224 0.0
H348 H 0.23006 0.10146 0.31837 0.0
H349 H 0.31203 0.08855 0.18769 0.0
C350 C 0.35095 0.10154 0.24277 0.0
C351 C 0.3577 0.11362 0.2923 0.0
C352 C 0.22584 0.10461 0.27743 0.0
C353 C 0.28968 0.10339 0.26081 0.0
C354 C 0.19249 0.11083 0.2595 0.0
C355 C 0.18682 0.11679 0.20699 0.0
C356 C 0.25352 0.10417 0.2425 0.0
C357 C 0.21489 0.11464 0.17308 0.0
C358 C 0.31695 0.09644 0.22684 0.0
C359 C 0.32991 0.11865 0.3259 0.0
N360 N 0.24708 0.10868 0.19142 0.0
N361 N 0.29706 0.11371 0.30947 0.0
H362 H 0.3504 0.90338 0.67059 0.0
H363 H 0.21053 0.84847 0.87877 0.0
H364 H 0.3705 0.84329 0.80363 0.0
H365 H 0.18372 0.89582 0.73591 0.0
H366 H 0.2712 0.85969 0.86172 0.0
H367 H 0.29161 0.91347 0.70314 0.0
C368 C 0.34262 0.89307 0.70726 0.0
C369 C 0.36484 0.8723 0.73446 0.0
C370 C 0.25211 0.86823 0.83442 0.0
C371 C 0.29835 0.88343 0.77157 0.0
C372 C 0.21748 0.86191 0.84429 0.0
C373 C 0.19223 0.87125 0.80871 0.0
C374 C 0.2617 0.88334 0.78794 0.0
C375 C 0.20245 0.88859 0.76461 0.0
C376 C 0.30917 0.89865 0.72567 0.0
C377 C 0.35382 0.85923 0.78147 0.0
N378 N 0.23656 0.89359 0.75493 0.0
N379 N 0.32128 0.86478 0.79832 0.0
H380 H 0.85961 0.93207 0.77127 0.0
H381 H 0.69255 0.82285 0.71077 0.0
H382 H 0.86221 0.82657 0.76057 0.0
H383 H 0.6896 0.92721 0.73715 0.0
H384 H 0.75489 0.82365 0.7256 0.0
H385 H 0.79765 0.93074 0.75505 0.0
C386 C 0.8472 0.90859 0.76537 0.0
C387 C 0.86622 0.87938 0.76741 0.0
C388 C 0.74058 0.84636 0.72817 0.0
C389 C 0.79501 0.87767 0.7488 0.0
C390 C 0.70497 0.84593 0.71967 0.0
C391 C 0.68574 0.87502 0.72268 0.0
C392 C 0.75717 0.87611 0.73959 0.0
C393 C 0.70329 0.90418 0.73445 0.0
C394 C 0.81173 0.90785 0.75621 0.0
C395 C 0.8486 0.84971 0.75948 0.0
N396 N 0.73793 0.90398 0.74236 0.0
N397 N 0.81402 0.84962 0.75053 0.0
H398 H 0.68366 0.06271 0.24353 0.0
H399 H 0.85947 0.16574 0.22721 0.0
H400 H 0.68996 0.16552 0.28128 0.0
H401 H 0.85258 0.06151 0.20107 0.0
H402 H 0.79746 0.16684 0.24532 0.0
H403 H 0.74537 0.06254 0.22568 0.0
C404 C 0.69799 0.08531 0.24803 0.0
C405 C 0.6815 0.11418 0.26403 0.0
C406 C 0.80955 0.14375 0.23565 0.0
C407 C 0.75254 0.11414 0.24355 0.0
C408 C 0.84497 0.14309 0.22526 0.0
C409 C 0.86133 0.11348 0.21251 0.0
C410 C 0.7903 0.1146 0.23313 0.0
C411 C 0.84117 0.08491 0.21072 0.0
C412 C 0.73333 0.08518 0.23787 0.0
C413 C 0.70156 0.14268 0.26915 0.0
N414 N 0.80681 0.08621 0.2208 0.0
N415 N 0.736 0.14195 0.25892 0.0
H416 H 0.83568 0.65011 0.37571 0.0
H417 H 0.70964 0.60725 0.15077 0.0
H418 H 0.86899 0.5973 0.24077 0.0
H419 H 0.67307 0.6265 0.30454 0.0
H420 H 0.76771 0.59875 0.185 0.0
H421 H 0.77579 0.63754 0.3538 0.0
C422 C 0.83036 0.63517 0.34212 0.0
C423 C 0.85726 0.62456 0.31015 0.0
C424 C 0.74689 0.60402 0.21153 0.0
C425 C 0.78889 0.61078 0.28409 0.0
C426 C 0.7138 0.60884 0.19198 0.0
C427 C 0.68672 0.61732 0.22503 0.0
C428 C 0.75308 0.60879 0.26432 0.0
C429 C 0.69329 0.61948 0.278 0.0
C430 C 0.79621 0.62796 0.32966 0.0
C431 C 0.84908 0.60547 0.26694 0.0
N432 N 0.72602 0.61589 0.29597 0.0
N433 N 0.81555 0.5997 0.25462 0.0
H434 H 0.83439 0.36499 0.62438 0.0
H435 H 0.70965 0.38177 0.86018 0.0
H436 H 0.86922 0.39843 0.773 0.0
H437 H 0.67258 0.38075 0.70367 0.0
H438 H 0.76784 0.39289 0.82842 0.0
H439 H 0.77482 0.37558 0.65052 0.0
C440 C 0.82945 0.3754 0.66208 0.0
C441 C 0.85664 0.38113 0.69647 0.0
C442 C 0.74689 0.39103 0.80099 0.0
C443 C 0.78866 0.39236 0.72729 0.0
C444 C 0.71372 0.38465 0.81912 0.0
C445 C 0.68636 0.38053 0.78446 0.0
C446 C 0.75291 0.39235 0.74768 0.0
C447 C 0.69289 0.38429 0.73168 0.0
C448 C 0.7955 0.38143 0.67701 0.0
C449 C 0.84902 0.39429 0.74502 0.0
N450 N 0.72567 0.38939 0.71479 0.0
N451 N 0.81564 0.39889 0.75938 0.0
H452 H 0.35285 0.34748 0.83923 0.0
H453 H 0.19222 0.36579 0.65445 0.0
H454 H 0.36026 0.40554 0.70086 0.0
H455 H 0.17995 0.37606 0.8188 0.0
H456 H 0.25517 0.36723 0.66581 0.0
H457 H 0.28998 0.34464 0.8275 0.0
C458 C 0.34125 0.35942 0.80624 0.0
C459 C 0.36165 0.3769 0.77105 0.0
C460 C 0.23858 0.36906 0.69927 0.0
C461 C 0.29027 0.37309 0.75695 0.0
C462 C 0.2028 0.36807 0.6929 0.0
C463 C 0.18097 0.37094 0.73577 0.0
C464 C 0.25252 0.3719 0.74895 0.0
C465 C 0.19595 0.37402 0.78476 0.0
C466 C 0.3055 0.3579 0.79976 0.0
C467 C 0.34537 0.39204 0.72904 0.0
N468 N 0.23086 0.37409 0.79013 0.0
N469 N 0.31062 0.38951 0.72282 0.0
H470 H 0.18326 0.56527 0.23568 0.0
H471 H 0.35964 0.66788 0.22565 0.0
H472 H 0.18966 0.66811 0.27324 0.0
H473 H 0.35257 0.56427 0.19411 0.0
H474 H 0.29738 0.66902 0.24138 0.0
H475 H 0.24508 0.56504 0.21809 0.0
C476 C 0.19762 0.58786 0.24015 0.0
C477 C 0.18116 0.61674 0.25611 0.0
C478 C 0.30947 0.64605 0.23099 0.0
C479 C 0.25224 0.61664 0.23603 0.0
C480 C 0.34503 0.64538 0.22197 0.0
C481 C 0.36144 0.61592 0.20852 0.0
C482 C 0.29009 0.61707 0.22646 0.0
C483 C 0.34113 0.58754 0.20443 0.0
C484 C 0.233 0.5877 0.23013 0.0
C485 C 0.20123 0.64525 0.26114 0.0
N486 N 0.30662 0.58883 0.21333 0.0
N487 N 0.23568 0.64446 0.2512 0.0
H488 H 0.06768 0.33986 0.90666 0.0
H489 H 0.95238 0.20805 0.05717 0.0
H490 H 0.97939 0.29117 0.84074 0.0
H491 H 0.05741 0.23089 0.09896 0.0
H492 H 0.95606 0.24828 0.9873 0.0
H493 H 0.05917 0.30838 0.98636 0.0
C494 C 0.04639 0.32275 0.90919 0.0
C495 C 0.02395 0.31837 0.86746 0.0
C496 C 0.97814 0.24467 0.01219 0.0
C497 C 0.01383 0.28276 0.95805 0.0
C498 C 0.97597 0.22191 0.05222 0.0
C499 C 0.00476 0.21585 0.08342 0.0
C500 C 0.00919 0.26163 0.00378 0.0
C501 C 0.03474 0.23449 0.07529 0.0
C502 C 0.04146 0.30494 0.95456 0.0
C503 C 0.99675 0.29593 0.8725 0.0
N504 N 0.03625 0.25641 0.03605 0.0
N505 N 0.99242 0.27899 0.91697 0.0
H506 H 0.58752 0.75983 0.59005 0.0
H507 H 0.46836 0.70323 0.36223 0.0
H508 H 0.47938 0.78467 0.58171 0.0
H509 H 0.55514 0.64429 0.4091 0.0
H510 H 0.47315 0.73435 0.4418 0.0
H511 H 0.57822 0.71825 0.52303 0.0
C512 C 0.56184 0.75637 0.57459 0.0
C513 C 0.53431 0.77609 0.5911 0.0
C514 C 0.49081 0.71424 0.4352 0.0
C515 C 0.52367 0.72898 0.51456 0.0
C516 C 0.48784 0.6962 0.38994 0.0
C517 C 0.51111 0.67083 0.37938 0.0
C518 C 0.5178 0.70749 0.46959 0.0
C519 C 0.53677 0.66377 0.41588 0.0
C520 C 0.55655 0.73259 0.53656 0.0
C521 C 0.50151 0.77036 0.56993 0.0
N522 N 0.5398 0.68235 0.45917 0.0
N523 N 0.49724 0.74768 0.53235 0.0
H524 H 0.05954 0.76012 0.88556 0.0
H525 H 0.98148 0.70642 0.14944 0.0
H526 H 0.95389 0.78106 0.92611 0.0
H527 H 0.0593 0.64709 0.07611 0.0
H528 H 0.97267 0.73562 0.06884 0.0
H529 H 0.06185 0.71949 0.95482 0.0
C530 C 0.03668 0.75583 0.90857 0.0
C531 C 0.00657 0.77422 0.90051 0.0
C532 C 0.99129 0.71587 0.07004 0.0
C533 C 0.0093 0.7283 0.98 0.0
C534 C 0.99623 0.69905 0.11599 0.0
C535 C 0.0207 0.67385 0.11912 0.0
C536 C 0.0117 0.70819 0.02717 0.0
C537 C 0.04014 0.66635 0.07512 0.0
C538 C 0.03801 0.73258 0.9479 0.0
C539 C 0.97763 0.7675 0.93111 0.0
N540 N 0.03552 0.68375 0.03091 0.0
N541 N 0.97992 0.74548 0.9702 0.0
H542 H 0.47479 0.2821 0.64737 0.0
H543 H 0.58741 0.22752 0.40905 0.0
H544 H 0.5563 0.34435 0.59081 0.0
H545 H 0.48091 0.19912 0.429 0.0
H546 H 0.58019 0.26806 0.47837 0.0
H547 H 0.47997 0.24841 0.57035 0.0
C548 C 0.49324 0.28913 0.61806 0.0
C549 C 0.51456 0.31649 0.62471 0.0
C550 C 0.55844 0.25307 0.46696 0.0
C551 C 0.52176 0.27714 0.53752 0.0
C552 C 0.56255 0.22991 0.42765 0.0
C553 C 0.53483 0.20968 0.41343 0.0
C554 C 0.52661 0.2555 0.4925 0.0
C555 C 0.50311 0.21397 0.43868 0.0
C556 C 0.49643 0.26971 0.57432 0.0
C557 C 0.53918 0.32356 0.58665 0.0
N558 N 0.50002 0.2361 0.47725 0.0
N559 N 0.54237 0.30379 0.54468 0.0
H560 H 0.48766 0.79154 0.846 0.0
H561 H 0.56289 0.73246 0.11198 0.0
H562 H 0.57368 0.84101 0.91696 0.0
H563 H 0.45828 0.71272 0.06444 0.0
H564 H 0.56825 0.77225 0.04209 0.0
H565 H 0.47769 0.76158 0.92552 0.0
C566 C 0.50414 0.7965 0.87875 0.0
C567 C 0.53112 0.81928 0.87535 0.0
C568 C 0.54397 0.7596 0.04748 0.0
C569 C 0.52049 0.78416 0.96624 0.0
C570 C 0.54086 0.73685 0.08727 0.0
C571 C 0.51017 0.71898 0.09363 0.0
C572 C 0.51641 0.76408 0.0133 0.0
C573 C 0.48241 0.72586 0.06084 0.0
C574 C 0.49849 0.77927 0.92412 0.0
C575 C 0.55253 0.82371 0.91826 0.0
N576 N 0.48638 0.7475 0.02152 0.0
N577 N 0.5469 0.8061 0.96204 0.0
H578 H 0.97791 0.29404 0.56549 0.0
H579 H 0.05945 0.14886 0.39991 0.0
H580 H 0.0853 0.2673 0.5792 0.0
H581 H 0.9719 0.20647 0.35223 0.0
H582 H 0.0649 0.18357 0.47704 0.0
H583 H 0.9708 0.2527 0.4991 0.0
C584 C 1.00005 0.27936 0.55482 0.0
C585 C 0.03242 0.28447 0.57769 0.0
C586 C 0.04426 0.18819 0.44991 0.0
C587 C 0.0242 0.23683 0.50139 0.0
C588 C 0.04107 0.16843 0.40616 0.0
C589 C 0.01494 0.1746 0.37004 0.0
C590 C 0.02084 0.21391 0.45764 0.0
C591 C 0.99184 0.20025 0.37966 0.0
C592 C 0.9959 0.25577 0.51675 0.0
C593 C 0.05998 0.26441 0.56226 0.0
N594 N 0.99533 0.21894 0.42252 0.0
N595 N 0.05528 0.24146 0.52482 0.0
H596 H 0.45405 0.28817 0.93815 0.0
H597 H 0.56604 0.15117 0.08162 0.0
H598 H 0.55868 0.26527 0.8943 0.0
H599 H 0.48402 0.20558 0.15409 0.0
H600 H 0.55781 0.18395 0.00293 0.0
H601 H 0.45801 0.24748 0.00727 0.0
C602 C 0.47762 0.27424 0.94253 0.0
C603 C 0.50621 0.28036 0.91093 0.0
C604 C 0.54142 0.18835 0.036 0.0
C605 C 0.51088 0.23396 0.98958 0.0
C606 C 0.54617 0.1698 0.08072 0.0
C607 C 0.5254 0.17547 0.12398 0.0
C608 C 0.5155 0.21239 0.0347 0.0
C609 C 0.50002 0.19988 0.12114 0.0
C610 C 0.47994 0.25121 0.9821 0.0
C611 C 0.53618 0.2616 0.91831 0.0
N612 N 0.49571 0.21736 0.07722 0.0
N613 N 0.5378 0.23932 0.95705 0.0
H614 H 0.9906 0.73729 0.38328 0.0
H615 H 0.06658 0.7896 0.64909 0.0
H616 H 0.09566 0.71554 0.42608 0.0
H617 H 0.98938 0.84937 0.57525 0.0
H618 H 0.07589 0.7607 0.56835 0.0
H619 H 0.9879 0.77785 0.45259 0.0
C620 C 0.01328 0.74143 0.40677 0.0
C621 C 0.04329 0.72278 0.39941 0.0
C622 C 0.05729 0.78046 0.56947 0.0
C623 C 0.0401 0.7686 0.47895 0.0
C624 C 0.05202 0.79707 0.61551 0.0
C625 C 0.02762 0.82232 0.61849 0.0
C626 C 0.03727 0.78843 0.52633 0.0
C627 C 0.00848 0.83004 0.57433 0.0
C628 C 0.01171 0.76463 0.44613 0.0
C629 C 0.07199 0.72931 0.43057 0.0
N630 N 0.01344 0.81287 0.52997 0.0
N631 N 0.06947 0.75127 0.46969 0.0
loop_
_geom_bond_atom_site_label_1
_geom_bond_atom_site_label_2
_geom_bond_distance
_geom_bond_site_symmetry_2
_ccdc_geom_bond_type
Co0 O3 1.970 . S
Co0 N17 1.989 . S
Co0 O25 1.967 . S
Co0 O32 1.920 . S
Co1 O4 1.966 . S
Co1 N10 2.022 . S
Co1 N18 1.993 . S
Co1 O26 1.941 . S
C2 O3 1.258 1_455 S
C2 O4 1.263 . S
O3 Co0 1.970 . S
O3 C2 1.258 1_655 S
O4 Co1 1.966 . S
O4 C2 1.263 . S
C5 O6 1.235 . S
C5 O32 1.289 . S
O6 C5 1.235 . S
C7 C9 1.400 . S
C7 N10 1.351 . S
C7 C12 1.501 . S
C8 C9 1.387 . S
C8 N11 1.341 . S
C9 C7 1.400 . S
C9 C8 1.387 . S
N10 Co1 2.022 . S
N10 C7 1.351 . S
N10 N11 1.365 . S
N11 C8 1.341 . S
N11 N10 1.365 . S
N11 H31 0.862 . S
C12 C7 1.501 . S
C12 H13 0.961 . S
C12 H14 0.961 . S
C12 H15 0.960 . S
H13 C12 0.961 . S
H14 C12 0.961 . S
H15 C12 0.960 . S
C16 N17 1.342 . S
C16 C20 1.401 1_655 S
C16 C21 1.499 . S
N17 Co0 1.989 . S
N17 C16 1.342 . S
N17 N18 1.388 1_655 S
N18 Co1 1.993 . S
N18 N17 1.388 1_455 S
N18 C19 1.346 . S
C19 N18 1.346 . S
C19 C20 1.396 . S
C19 C29 1.510 . S
C20 C16 1.401 1_455 S
C20 C19 1.396 . S
C21 C16 1.499 . S
C21 H22 0.959 . S
C21 H23 0.960 . S
C21 H24 0.961 . S
H22 C21 0.959 . S
H23 C21 0.960 . S
H24 C21 0.961 . S
O25 Co0 1.967 . S
O25 C33 1.258 1_655 S
O26 Co1 1.941 . S
O26 C33 1.266 . S
H27 C29 0.959 . S
H28 C29 0.961 . S
C29 C19 1.510 . S
C29 H27 0.959 . S
C29 H28 0.961 . S
C29 H30 0.960 . S
H30 C29 0.960 . S
H31 N11 0.862 . S
O32 Co0 1.920 . S
O32 C5 1.289 . S
C33 O25 1.258 1_455 S
C33 O26 1.266 . S
Co34 O37 1.970 . S
Co34 N51 1.989 . S
Co34 O59 1.967 . S
Co34 O66 1.920 . S
Co35 O38 1.966 . S
Co35 N44 2.022 . S
Co35 N52 1.993 . S
Co35 O60 1.941 . S
C36 O37 1.258 . S
C36 O38 1.263 . S
O37 Co34 1.970 . S
O37 C36 1.258 . S
O38 Co35 1.966 . S
O38 C36 1.263 . S
C39 O40 1.235 . S
C39 O66 1.289 . S
O40 C39 1.235 . S
C41 C43 1.400 . S
C41 N44 1.351 . S
C41 C46 1.501 . S
C42 C43 1.387 . S
C42 N45 1.341 . S
C43 C41 1.400 . S
C43 C42 1.387 . S
N44 Co35 2.022 . S
N44 C41 1.351 . S
N44 N45 1.365 . S
N45 C42 1.341 . S
N45 N44 1.365 . S
N45 H65 0.862 . S
C46 C41 1.501 . S
C46 H47 0.961 . S
C46 H48 0.961 . S
C46 H49 0.960 . S
H47 C46 0.961 . S
H48 C46 0.961 . S
H49 C46 0.960 . S
C50 N51 1.342 . S
C50 C54 1.401 . S
C50 C55 1.499 . S
N51 Co34 1.989 . S
N51 C50 1.342 . S
N51 N52 1.388 . S
N52 Co35 1.993 . S
N52 N51 1.388 . S
N52 C53 1.346 . S
C53 N52 1.346 . S
C53 C54 1.396 . S
C53 C63 1.510 . S
C54 C50 1.401 . S
C54 C53 1.396 . S
C55 C50 1.499 . S
C55 H56 0.959 . S
C55 H57 0.960 . S
C55 H58 0.961 . S
H56 C55 0.959 . S
H57 C55 0.960 . S
H58 C55 0.961 . S
O59 Co34 1.967 . S
O59 C67 1.258 . S
O60 Co35 1.941 . S
O60 C67 1.266 . S
H61 C63 0.959 . S
H62 C63 0.961 . S
C63 C53 1.510 . S
C63 H61 0.959 . S
C63 H62 0.961 . S
C63 H64 0.960 . S
H64 C63 0.960 . S
H65 N45 0.862 . S
O66 Co34 1.920 . S
O66 C39 1.289 . S
C67 O59 1.258 . S
C67 O60 1.266 . S
Co68 O71 1.970 . S
Co68 N85 1.989 . S
Co68 O93 1.967 . S
Co68 O100 1.920 . S
Co69 O72 1.966 . S
Co69 N78 2.022 . S
Co69 N86 1.993 . S
Co69 O94 1.941 . S
C70 O71 1.258 1_455 S
C70 O72 1.263 . S
O71 Co68 1.970 . S
O71 C70 1.258 1_655 S
O72 Co69 1.966 . S
O72 C70 1.263 . S
C73 O74 1.235 . S
C73 O100 1.289 . S
O74 C73 1.235 . S
C75 C77 1.400 . S
C75 N78 1.351 . S
C75 C80 1.501 . S
C76 C77 1.387 . S
C76 N79 1.341 . S
C77 C75 1.400 . S
C77 C76 1.387 . S
N78 Co69 2.022 . S
N78 C75 1.351 . S
N78 N79 1.365 . S
N79 C76 1.341 . S
N79 N78 1.365 . S
N79 H99 0.862 . S
C80 C75 1.501 . S
C80 H81 0.961 . S
C80 H82 0.961 . S
C80 H83 0.960 . S
H81 C80 0.961 . S
H82 C80 0.961 . S
H83 C80 0.960 . S
C84 N85 1.342 . S
C84 C88 1.401 1_655 S
C84 C89 1.499 . S
N85 Co68 1.989 . S
N85 C84 1.342 . S
N85 N86 1.388 1_655 S
N86 Co69 1.993 . S
N86 N85 1.388 1_455 S
N86 C87 1.346 . S
C87 N86 1.346 . S
C87 C88 1.396 . S
C87 C97 1.510 . S
C88 C84 1.401 1_455 S
C88 C87 1.396 . S
C89 C84 1.499 . S
C89 H90 0.959 . S
C89 H91 0.960 . S
C89 H92 0.961 . S
H90 C89 0.959 . S
H91 C89 0.960 . S
H92 C89 0.961 . S
O93 Co68 1.967 . S
O93 C101 1.258 1_655 S
O94 Co69 1.941 . S
O94 C101 1.266 . S
H95 C97 0.959 . S
H96 C97 0.961 . S
C97 C87 1.510 . S
C97 H95 0.959 . S
C97 H96 0.961 . S
C97 H98 0.960 . S
H98 C97 0.960 . S
H99 N79 0.862 . S
O100 Co68 1.920 . S
O100 C73 1.289 . S
C101 O93 1.258 1_455 S
C101 O94 1.266 . S
Co102 O105 1.970 . S
Co102 N119 1.989 . S
Co102 O127 1.967 . S
Co102 O134 1.920 . S
Co103 O106 1.966 . S
Co103 N112 2.022 . S
Co103 N120 1.993 . S
Co103 O128 1.941 . S
C104 O105 1.258 . S
C104 O106 1.263 . S
O105 Co102 1.970 . S
O105 C104 1.258 . S
O106 Co103 1.966 . S
O106 C104 1.263 . S
C107 O108 1.235 . S
C107 O134 1.289 . S
O108 C107 1.235 . S
C109 C111 1.400 . S
C109 N112 1.351 . S
C109 C114 1.501 . S
C110 C111 1.387 . S
C110 N113 1.341 . S
C111 C109 1.400 . S
C111 C110 1.387 . S
N112 Co103 2.022 . S
N112 C109 1.351 . S
N112 N113 1.365 . S
N113 C110 1.341 . S
N113 N112 1.365 . S
N113 H133 0.862 . S
C114 C109 1.501 . S
C114 H115 0.961 . S
C114 H116 0.961 . S
C114 H117 0.960 . S
H115 C114 0.961 . S
H116 C114 0.961 . S
H117 C114 0.960 . S
C118 N119 1.342 . S
C118 C122 1.401 . S
C118 C123 1.499 . S
N119 Co102 1.989 . S
N119 C118 1.342 . S
N119 N120 1.388 . S
N120 Co103 1.993 . S
N120 N119 1.388 . S
N120 C121 1.346 . S
C121 N120 1.346 . S
C121 C122 1.396 . S
C121 C131 1.510 . S
C122 C118 1.401 . S
C122 C121 1.396 . S
C123 C118 1.499 . S
C123 H124 0.959 . S
C123 H125 0.960 . S
C123 H126 0.961 . S
H124 C123 0.959 . S
H125 C123 0.960 . S
H126 C123 0.961 . S
O127 Co102 1.967 . S
O127 C135 1.258 . S
O128 Co103 1.941 . S
O128 C135 1.266 . S
H129 C131 0.959 . S
H130 C131 0.961 . S
C131 C121 1.510 . S
C131 H129 0.959 . S
C131 H130 0.961 . S
C131 H132 0.960 . S
H132 C131 0.960 . S
H133 N113 0.862 . S
O134 Co102 1.920 . S
O134 C107 1.289 . S
C135 O127 1.258 . S
C135 O128 1.266 . S
Co136 O139 1.970 . S
Co136 N153 1.989 . S
Co136 O161 1.967 . S
Co136 O168 1.920 . S
Co137 O140 1.966 . S
Co137 N146 2.022 . S
Co137 N154 1.993 . S
Co137 O162 1.941 . S
C138 O139 1.258 . S
C138 O140 1.263 . S
O139 Co136 1.970 . S
O139 C138 1.258 . S
O140 Co137 1.966 . S
O140 C138 1.263 . S
C141 O142 1.235 . S
C141 O168 1.289 . S
O142 C141 1.235 . S
C143 C145 1.400 . S
C143 N146 1.351 . S
C143 C148 1.501 . S
C144 C145 1.387 . S
C144 N147 1.341 . S
C145 C143 1.400 . S
C145 C144 1.387 . S
N146 Co137 2.022 . S
N146 C143 1.351 . S
N146 N147 1.365 . S
N147 C144 1.341 . S
N147 N146 1.365 . S
N147 H167 0.862 . S
C148 C143 1.501 . S
C148 H149 0.961 . S
C148 H150 0.961 . S
C148 H151 0.960 . S
H149 C148 0.961 . S
H150 C148 0.961 . S
H151 C148 0.960 . S
C152 N153 1.342 . S
C152 C156 1.401 . S
C152 C157 1.499 . S
N153 Co136 1.989 . S
N153 C152 1.342 . S
N153 N154 1.388 . S
N154 Co137 1.993 . S
N154 N153 1.388 . S
N154 C155 1.346 . S
C155 N154 1.346 . S
C155 C156 1.396 . S
C155 C165 1.510 . S
C156 C152 1.401 . S
C156 C155 1.396 . S
C157 C152 1.499 . S
C157 H158 0.959 . S
C157 H159 0.960 . S
C157 H160 0.961 . S
H158 C157 0.959 . S
H159 C157 0.960 . S
H160 C157 0.961 . S
O161 Co136 1.967 . S
O161 C169 1.258 . S
O162 Co137 1.941 . S
O162 C169 1.266 . S
H163 C165 0.959 . S
H164 C165 0.961 . S
C165 C155 1.510 . S
C165 H163 0.959 . S
C165 H164 0.961 . S
C165 H166 0.960 . S
H166 C165 0.960 . S
H167 N147 0.862 . S
O168 Co136 1.920 . S
O168 C141 1.289 . S
C169 O161 1.258 . S
C169 O162 1.266 . S
Co170 O173 1.970 . S
Co170 N187 1.989 . S
Co170 O195 1.967 . S
Co170 O202 1.920 . S
Co171 O174 1.972 . S
Co171 N180 2.022 . S
Co171 N188 1.993 1_655 S
Co171 O196 1.941 . S
C172 O173 1.258 . S
C172 O174 1.243 1_455 S
O173 Co170 1.970 . S
O173 C172 1.258 . S
O174 Co171 1.972 . S
O174 C172 1.243 1_655 S
C175 O176 1.235 . S
C175 O202 1.289 . S
O176 C175 1.235 . S
C177 C179 1.400 . S
C177 N180 1.351 . S
C177 C182 1.501 . S
C178 C179 1.387 . S
C178 N181 1.341 . S
C179 C177 1.400 . S
C179 C178 1.387 . S
N180 Co171 2.022 . S
N180 C177 1.351 . S
N180 N181 1.365 . S
N181 C178 1.341 . S
N181 N180 1.365 . S
N181 H201 0.862 . S
C182 C177 1.501 . S
C182 H183 0.961 . S
C182 H184 0.961 . S
C182 H185 0.960 . S
H183 C182 0.961 . S
H184 C182 0.961 . S
H185 C182 0.960 . S
C186 N187 1.342 . S
C186 C190 1.401 . S
C186 C191 1.499 . S
N187 Co170 1.989 . S
N187 C186 1.342 . S
N187 N188 1.388 . S
N188 Co171 1.993 1_455 S
N188 N187 1.388 . S
N188 C189 1.346 1_455 S
C189 N188 1.346 1_655 S
C189 C190 1.396 1_655 S
C189 C199 1.510 . S
C190 C186 1.401 . S
C190 C189 1.396 1_455 S
C191 C186 1.499 . S
C191 H192 0.959 . S
C191 H193 0.960 . S
C191 H194 0.961 . S
H192 C191 0.959 . S
H193 C191 0.960 . S
H194 C191 0.961 . S
O195 Co170 1.967 . S
O195 C203 1.258 . S
O196 Co171 1.941 . S
O196 C203 1.266 1_655 S
H197 C199 0.959 . S
H198 C199 0.961 . S
C199 C189 1.510 . S
C199 H197 0.959 . S
C199 H198 0.961 . S
C199 H200 0.960 . S
H200 C199 0.960 . S
H201 N181 0.862 . S
O202 Co170 1.920 . S
O202 C175 1.289 . S
C203 O195 1.258 . S
C203 O196 1.266 1_455 S
Co204 O207 1.970 . S
Co204 N221 1.989 . S
Co204 O229 1.967 . S
Co204 O236 1.920 . S
Co205 O208 1.966 . S
Co205 N214 2.022 . S
Co205 N222 1.993 . S
Co205 O230 1.941 . S
C206 O207 1.258 . S
C206 O208 1.263 . S
O207 Co204 1.970 . S
O207 C206 1.258 . S
O208 Co205 1.966 . S
O208 C206 1.263 . S
C209 O210 1.235 . S
C209 O236 1.289 . S
O210 C209 1.235 . S
C211 C213 1.400 . S
C211 N214 1.351 . S
C211 C216 1.501 . S
C212 C213 1.387 . S
C212 N215 1.341 . S
C213 C211 1.400 . S
C213 C212 1.387 . S
N214 Co205 2.022 . S
N214 C211 1.351 . S
N214 N215 1.365 . S
N215 C212 1.341 . S
N215 N214 1.365 . S
N215 H235 0.862 . S
C216 C211 1.501 . S
C216 H217 0.961 . S
C216 H218 0.961 . S
C216 H219 0.960 . S
H217 C216 0.961 . S
H218 C216 0.961 . S
H219 C216 0.960 . S
C220 N221 1.342 . S
C220 C224 1.401 . S
C220 C225 1.499 . S
N221 Co204 1.989 . S
N221 C220 1.342 . S
N221 N222 1.388 . S
N222 Co205 1.993 . S
N222 N221 1.388 . S
N222 C223 1.346 . S
C223 N222 1.346 . S
C223 C224 1.396 . S
C223 C233 1.510 . S
C224 C220 1.401 . S
C224 C223 1.396 . S
C225 C220 1.499 . S
C225 H226 0.959 . S
C225 H227 0.960 . S
C225 H228 0.961 . S
H226 C225 0.959 . S
H227 C225 0.960 . S
H228 C225 0.961 . S
O229 Co204 1.967 . S
O229 C237 1.258 . S
O230 Co205 1.941 . S
O230 C237 1.266 . S
H231 C233 0.959 . S
H232 C233 0.961 . S
C233 C223 1.510 . S
C233 H231 0.959 . S
C233 H232 0.961 . S
C233 H234 0.960 . S
H234 C233 0.960 . S
H235 N215 0.862 . S
O236 Co204 1.920 . S
O236 C209 1.289 . S
C237 O229 1.258 . S
C237 O230 1.266 . S
Co238 O241 1.970 . S
Co238 N255 1.989 . S
Co238 O263 1.967 . S
Co238 O270 1.920 . S
Co239 O242 1.972 . S
Co239 N248 2.022 . S
Co239 N256 1.993 1_655 S
Co239 O264 1.941 . S
C240 O241 1.258 . S
C240 O242 1.243 1_455 S
O241 Co238 1.970 . S
O241 C240 1.258 . S
O242 Co239 1.972 . S
O242 C240 1.243 1_655 S
C243 O244 1.235 . S
C243 O270 1.289 . S
O244 C243 1.235 . S
C245 C247 1.400 . S
C245 N248 1.351 . S
C245 C250 1.501 . S
C246 C247 1.387 . S
C246 N249 1.341 . S
C247 C245 1.400 . S
C247 C246 1.387 . S
N248 Co239 2.022 . S
N248 C245 1.351 . S
N248 N249 1.365 . S
N249 C246 1.341 . S
N249 N248 1.365 . S
N249 H269 0.862 . S
C250 C245 1.501 . S
C250 H251 0.961 . S
C250 H252 0.961 . S
C250 H253 0.960 . S
H251 C250 0.961 . S
H252 C250 0.961 . S
H253 C250 0.960 . S
C254 N255 1.342 . S
C254 C258 1.401 . S
C254 C259 1.499 . S
N255 Co238 1.989 . S
N255 C254 1.342 . S
N255 N256 1.388 . S
N256 Co239 1.993 1_455 S
N256 N255 1.388 . S
N256 C257 1.346 1_455 S
C257 N256 1.346 1_655 S
C257 C258 1.396 1_655 S
C257 C267 1.510 . S
C258 C254 1.401 . S
C258 C257 1.396 1_455 S
C259 C254 1.499 . S
C259 H260 0.959 . S
C259 H261 0.960 . S
C259 H262 0.961 . S
H260 C259 0.959 . S
H261 C259 0.960 . S
H262 C259 0.961 . S
O263 Co238 1.967 . S
O263 C271 1.258 . S
O264 Co239 1.941 . S
O264 C271 1.266 1_655 S
H265 C267 0.959 . S
H266 C267 0.961 . S
C267 C257 1.510 . S
C267 H265 0.959 . S
C267 H266 0.961 . S
C267 H268 0.960 . S
H268 C267 0.960 . S
H269 N249 0.862 . S
O270 Co238 1.920 . S
O270 C243 1.289 . S
C271 O263 1.258 . S
C271 O264 1.266 1_455 S
H272 C278 0.930 . S
H273 C282 0.930 . S
H274 C287 0.929 . S
H275 C285 0.929 . S
H276 C280 0.929 . S
H277 C286 0.929 . S
C278 H272 0.930 . S
C278 C279 1.367 1_655 S
C278 C286 1.378 . S
C279 C278 1.367 1_455 S
C279 C287 1.433 . S
C280 H276 0.929 . S
C280 C282 1.378 . S
C280 C284 1.350 . S
C281 C284 1.463 1_566 S
C281 C286 1.350 1_455 S
C281 N289 1.427 . S
C282 H273 0.930 . S
C282 C280 1.378 . S
C282 C283 1.367 . S
C283 C282 1.367 . S
C283 C285 1.433 1_455 S
C284 C280 1.350 . S
C284 C281 1.463 1_544 S
C284 N288 1.427 1_455 S
C285 H275 0.929 . S
C285 C283 1.433 1_655 S
C285 N288 1.384 . S
C286 H277 0.929 . S
C286 C278 1.378 . S
C286 C281 1.350 1_655 S
C287 H274 0.929 . S
C287 C279 1.433 . S
C287 N289 1.384 . S
N288 C284 1.427 1_655 S
N288 C285 1.384 . S
N289 C281 1.427 . S
N289 C287 1.384 . S
H290 C296 0.930 . S
H291 C300 0.930 . S
H292 C305 0.929 . S
H293 C303 0.929 . S
H294 C298 0.929 . S
H295 C304 0.929 . S
C296 H290 0.930 . S
C296 C297 1.367 . S
C296 C304 1.378 . S
C297 C296 1.367 . S
C297 C305 1.433 . S
C298 H294 0.929 . S
C298 C300 1.378 . S
C298 C302 1.350 . S
C299 C302 1.463 1_545 S
C299 C304 1.350 . S
C299 N307 1.427 . S
C300 H291 0.930 . S
C300 C298 1.378 . S
C300 C301 1.367 . S
C301 C300 1.367 . S
C301 C303 1.433 . S
C302 C298 1.350 . S
C302 C299 1.463 1_565 S
C302 N306 1.427 . S
C303 H293 0.929 . S
C303 C301 1.433 . S
C303 N306 1.384 . S
C304 H295 0.929 . S
C304 C296 1.378 . S
C304 C299 1.350 . S
C305 H292 0.929 . S
C305 C297 1.433 . S
C305 N307 1.384 . S
N306 C302 1.427 . S
N306 C303 1.384 . S
N307 C299 1.427 . S
N307 C305 1.384 . S
H308 C314 0.930 . S
H309 C318 0.930 . S
H310 C323 0.929 . S
H311 C321 0.929 . S
H312 C316 0.929 . S
H313 C322 0.929 . S
C314 H308 0.930 . S
C314 C315 1.367 . S
C314 C322 1.378 . S
C315 C314 1.367 . S
C315 C323 1.433 . S
C316 H312 0.929 . S
C316 C318 1.378 . S
C316 C320 1.350 . S
C317 C320 1.463 1_554 S
C317 C322 1.350 . S
C317 N325 1.427 . S
C318 H309 0.930 . S
C318 C316 1.378 . S
C318 C319 1.367 . S
C319 C318 1.367 . S
C319 C321 1.433 . S
C320 C316 1.350 . S
C320 C317 1.463 1_556 S
C320 N324 1.427 . S
C321 H311 0.929 . S
C321 C319 1.433 . S
C321 N324 1.384 . S
C322 H313 0.929 . S
C322 C314 1.378 . S
C322 C317 1.350 . S
C323 H310 0.929 . S
C323 C315 1.433 . S
C323 N325 1.384 . S
N324 C320 1.427 . S
N324 C321 1.384 . S
N325 C317 1.427 . S
N325 C323 1.384 . S
H326 C332 0.930 1_655 S
H327 C336 0.930 . S
H328 C341 0.929 . S
H329 C339 0.929 1_655 S
H330 C334 0.929 . S
H331 C340 0.929 1_655 S
C332 H326 0.930 1_455 S
C332 C333 1.367 . S
C332 C340 1.378 . S
C333 C332 1.367 . S
C333 C341 1.433 . S
C334 H330 0.929 . S
C334 C336 1.378 . S
C334 C338 1.350 . S
C335 C338 1.463 . S
C335 C340 1.350 . S
C335 N343 1.427 . S
C336 H327 0.930 . S
C336 C334 1.378 . S
C336 C337 1.367 . S
C337 C336 1.367 . S
C337 C339 1.433 . S
C338 C334 1.350 . S
C338 C335 1.463 . S
C338 N342 1.427 . S
C339 H329 0.929 1_455 S
C339 C337 1.433 . S
C339 N342 1.384 . S
C340 H331 0.929 1_455 S
C340 C332 1.378 . S
C340 C335 1.350 . S
C341 H328 0.929 . S
C341 C333 1.433 . S
C341 N343 1.384 . S
N342 C338 1.427 . S
N342 C339 1.384 . S
N343 C335 1.427 . S
N343 C341 1.384 . S
H344 C350 0.930 . S
H345 C354 0.930 . S
H346 C359 0.929 . S
H347 C357 0.929 . S
H348 C352 0.929 . S
H349 C358 0.929 . S
C350 H344 0.930 . S
C350 C351 1.367 . S
C350 C358 1.378 . S
C351 C350 1.367 . S
C351 C359 1.433 . S
C352 H348 0.929 . S
C352 C354 1.378 . S
C352 C356 1.350 . S
C353 C356 1.463 . S
C353 C358 1.350 . S
C353 N361 1.427 . S
C354 H345 0.930 . S
C354 C352 1.378 . S
C354 C355 1.367 . S
C355 C354 1.367 . S
C355 C357 1.433 . S
C356 C352 1.350 . S
C356 C353 1.463 . S
C356 N360 1.427 . S
C357 H347 0.929 . S
C357 C355 1.433 . S
C357 N360 1.384 . S
C358 H349 0.929 . S
C358 C350 1.378 . S
C358 C353 1.350 . S
C359 H346 0.929 . S
C359 C351 1.433 . S
C359 N361 1.384 . S
N360 C356 1.427 . S
N360 C357 1.384 . S
N361 C353 1.427 . S
N361 C359 1.384 . S
H362 C368 0.930 . S
H363 C372 0.930 . S
H364 C377 0.929 . S
H365 C375 0.929 . S
H366 C370 0.929 . S
H367 C376 0.929 . S
C368 H362 0.930 . S
C368 C369 1.367 . S
C368 C376 1.378 . S
C369 C368 1.367 . S
C369 C377 1.433 . S
C370 H366 0.929 . S
C370 C372 1.378 . S
C370 C374 1.350 . S
C371 C374 1.463 . S
C371 C376 1.350 . S
C371 N379 1.427 . S
C372 H363 0.930 . S
C372 C370 1.378 . S
C372 C373 1.367 . S
C373 C372 1.367 . S
C373 C375 1.433 . S
C374 C370 1.350 . S
C374 C371 1.463 . S
C374 N378 1.427 . S
C375 H365 0.929 . S
C375 C373 1.433 . S
C375 N378 1.384 . S
C376 H367 0.929 . S
C376 C368 1.378 . S
C376 C371 1.350 . S
C377 H364 0.929 . S
C377 C369 1.433 . S
C377 N379 1.384 . S
N378 C374 1.427 . S
N378 C375 1.384 . S
N379 C371 1.427 . S
N379 C377 1.384 . S
H380 C386 0.930 . S
H381 C390 0.930 . S
H382 C395 0.929 . S
H383 C393 0.929 . S
H384 C388 0.929 . S
H385 C394 0.929 . S
C386 H380 0.930 . S
C386 C387 1.367 . S
C386 C394 1.378 . S
C387 C386 1.367 . S
C387 C395 1.433 . S
C388 H384 0.929 . S
C388 C390 1.378 . S
C388 C392 1.350 . S
C389 C392 1.463 . S
C389 C394 1.350 . S
C389 N397 1.427 . S
C390 H381 0.930 . S
C390 C388 1.378 . S
C390 C391 1.367 . S
C391 C390 1.367 . S
C391 C393 1.433 . S
C392 C388 1.350 . S
C392 C389 1.463 . S
C392 N396 1.427 . S
C393 H383 0.929 . S
C393 C391 1.433 . S
C393 N396 1.384 . S
C394 H385 0.929 . S
C394 C386 1.378 . S
C394 C389 1.350 . S
C395 H382 0.929 . S
C395 C387 1.433 . S
C395 N397 1.384 . S
N396 C392 1.427 . S
N396 C393 1.384 . S
N397 C389 1.427 . S
N397 C395 1.384 . S
H398 C404 0.930 . S
H399 C408 0.930 . S
H400 C413 0.929 . S
H401 C411 0.929 . S
H402 C406 0.929 . S
H403 C412 0.929 . S
C404 H398 0.930 . S
C404 C405 1.367 . S
C404 C412 1.378 . S
C405 C404 1.367 . S
C405 C413 1.433 . S
C406 H402 0.929 . S
C406 C408 1.378 . S
C406 C410 1.350 . S
C407 C410 1.463 . S
C407 C412 1.350 . S
C407 N415 1.427 . S
C408 H399 0.930 . S
C408 C406 1.378 . S
C408 C409 1.367 . S
C409 C408 1.367 . S
C409 C411 1.433 . S
C410 C406 1.350 . S
C410 C407 1.463 . S
C410 N414 1.427 . S
C411 H401 0.929 . S
C411 C409 1.433 . S
C411 N414 1.384 . S
C412 H403 0.929 . S
C412 C404 1.378 . S
C412 C407 1.350 . S
C413 H400 0.929 . S
C413 C405 1.433 . S
C413 N415 1.384 . S
N414 C410 1.427 . S
N414 C411 1.384 . S
N415 C407 1.427 . S
N415 C413 1.384 . S
H416 C422 0.930 . S
H417 C426 0.930 . S
H418 C431 0.929 . S
H419 C429 0.929 . S
H420 C424 0.929 . S
H421 C430 0.929 . S
C422 H416 0.930 . S
C422 C423 1.367 . S
C422 C430 1.378 . S
C423 C422 1.367 . S
C423 C431 1.433 . S
C424 H420 0.929 . S
C424 C426 1.378 . S
C424 C428 1.350 . S
C425 C428 1.463 . S
C425 C430 1.350 . S
C425 N433 1.427 . S
C426 H417 0.930 . S
C426 C424 1.378 . S
C426 C427 1.367 . S
C427 C426 1.367 . S
C427 C429 1.433 . S
C428 C424 1.350 . S
C428 C425 1.463 . S
C428 N432 1.427 . S
C429 H419 0.929 . S
C429 C427 1.433 . S
C429 N432 1.384 . S
C430 H421 0.929 . S
C430 C422 1.378 . S
C430 C425 1.350 . S
C431 H418 0.929 . S
C431 C423 1.433 . S
C431 N433 1.384 . S
N432 C428 1.427 . S
N432 C429 1.384 . S
N433 C425 1.427 . S
N433 C431 1.384 . S
H434 C440 0.930 . S
H435 C444 0.930 . S
H436 C449 0.929 . S
H437 C447 0.929 . S
H438 C442 0.929 . S
H439 C448 0.929 . S
C440 H434 0.930 . S
C440 C441 1.367 . S
C440 C448 1.378 . S
C441 C440 1.367 . S
C441 C449 1.433 . S
C442 H438 0.929 . S
C442 C444 1.378 . S
C442 C446 1.350 . S
C443 C446 1.463 . S
C443 C448 1.350 . S
C443 N451 1.427 . S
C444 H435 0.930 . S
C444 C442 1.378 . S
C444 C445 1.367 . S
C445 C444 1.367 . S
C445 C447 1.433 . S
C446 C442 1.350 . S
C446 C443 1.463 . S
C446 N450 1.427 . S
C447 H437 0.929 . S
C447 C445 1.433 . S
C447 N450 1.384 . S
C448 H439 0.929 . S
C448 C440 1.378 . S
C448 C443 1.350 . S
C449 H436 0.929 . S
C449 C441 1.433 . S
C449 N451 1.384 . S
N450 C446 1.427 . S
N450 C447 1.384 . S
N451 C443 1.427 . S
N451 C449 1.384 . S
H452 C458 0.930 . S
H453 C462 0.930 . S
H454 C467 0.929 . S
H455 C465 0.929 . S
H456 C460 0.929 . S
H457 C466 0.929 . S
C458 H452 0.930 . S
C458 C459 1.367 . S
C458 C466 1.378 . S
C459 C458 1.367 . S
C459 C467 1.433 . S
C460 H456 0.929 . S
C460 C462 1.378 . S
C460 C464 1.350 . S
C461 C464 1.463 . S
C461 C466 1.350 . S
C461 N469 1.427 . S
C462 H453 0.930 . S
C462 C460 1.378 . S
C462 C463 1.367 . S
C463 C462 1.367 . S
C463 C465 1.433 . S
C464 C460 1.350 . S
C464 C461 1.463 . S
C464 N468 1.427 . S
C465 H455 0.929 . S
C465 C463 1.433 . S
C465 N468 1.384 . S
C466 H457 0.929 . S
C466 C458 1.378 . S
C466 C461 1.350 . S
C467 H454 0.929 . S
C467 C459 1.433 . S
C467 N469 1.384 . S
N468 C464 1.427 . S
N468 C465 1.384 . S
N469 C461 1.427 . S
N469 C467 1.384 . S
H470 C476 0.930 . S
H471 C480 0.930 . S
H472 C485 0.929 . S
H473 C483 0.929 . S
H474 C478 0.929 . S
H475 C484 0.929 . S
C476 H470 0.930 . S
C476 C477 1.367 . S
C476 C484 1.378 . S
C477 C476 1.367 . S
C477 C485 1.433 . S
C478 H474 0.929 . S
C478 C480 1.378 . S
C478 C482 1.350 . S
C479 C482 1.463 . S
C479 C484 1.350 . S
C479 N487 1.427 . S
C480 H471 0.930 . S
C480 C478 1.378 . S
C480 C481 1.367 . S
C481 C480 1.367 . S
C481 C483 1.433 . S
C482 C478 1.350 . S
C482 C479 1.463 . S
C482 N486 1.427 . S
C483 H473 0.929 . S
C483 C481 1.433 . S
C483 N486 1.384 . S
C484 H475 0.929 . S
C484 C476 1.378 . S
C484 C479 1.350 . S
C485 H472 0.929 . S
C485 C477 1.433 . S
C485 N487 1.384 . S
N486 C482 1.427 . S
N486 C483 1.384 . S
N487 C479 1.427 . S
N487 C485 1.384 . S
H488 C494 0.930 . S
H489 C498 0.930 . S
H490 C503 0.932 . S
H491 C501 0.929 . S
H492 C496 0.929 . S
H493 C502 0.929 . S
C494 H488 0.930 . S
C494 C495 1.367 . S
C494 C502 1.378 . S
C495 C494 1.367 . S
C495 C503 1.430 1_455 S
C496 H492 0.929 . S
C496 C498 1.378 1_556 S
C496 C500 1.350 1_655 S
C497 C500 1.463 . S
C497 C502 1.350 . S
C497 N505 1.427 1_455 S
C498 H489 0.930 . S
C498 C496 1.378 1_554 S
C498 C499 1.367 1_655 S
C499 C498 1.367 1_455 S
C499 C501 1.433 . S
C500 C496 1.350 1_455 S
C500 C497 1.463 . S
C500 N504 1.427 1_556 S
C501 H491 0.929 . S
C501 C499 1.433 . S
C501 N504 1.384 . S
C502 H493 0.929 . S
C502 C494 1.378 . S
C502 C497 1.350 . S
C503 H490 0.932 . S
C503 C495 1.430 1_655 S
C503 N505 1.384 . S
N504 C500 1.427 1_554 S
N504 C501 1.384 . S
N505 C497 1.427 1_655 S
N505 C503 1.384 . S
H506 C512 0.930 . S
H507 C516 0.930 . S
H508 C521 0.929 . S
H509 C519 0.929 . S
H510 C514 0.929 . S
H511 C520 0.929 . S
C512 H506 0.930 . S
C512 C513 1.367 . S
C512 C520 1.378 . S
C513 C512 1.367 . S
C513 C521 1.433 . S
C514 H510 0.929 . S
C514 C516 1.378 . S
C514 C518 1.350 . S
C515 C518 1.463 . S
C515 C520 1.350 . S
C515 N523 1.427 . S
C516 H507 0.930 . S
C516 C514 1.378 . S
C516 C517 1.367 . S
C517 C516 1.367 . S
C517 C519 1.433 . S
C518 C514 1.350 . S
C518 C515 1.463 . S
C518 N522 1.427 . S
C519 H509 0.929 . S
C519 C517 1.433 . S
C519 N522 1.384 . S
C520 H511 0.929 . S
C520 C512 1.378 . S
C520 C515 1.350 . S
C521 H508 0.929 . S
C521 C513 1.433 . S
C521 N523 1.384 . S
N522 C518 1.427 . S
N522 C519 1.384 . S
N523 C515 1.427 . S
N523 C521 1.384 . S
H524 C530 0.930 . S
H525 C534 0.930 . S
H526 C539 0.929 . S
H527 C537 0.929 . S
H528 C532 0.929 . S
H529 C538 0.929 . S
C530 H524 0.930 . S
C530 C531 1.367 . S
C530 C538 1.378 . S
C531 C530 1.367 . S
C531 C539 1.433 1_455 S
C532 H528 0.929 . S
C532 C534 1.378 . S
C532 C536 1.350 1_655 S
C533 C536 1.463 . S
C533 C538 1.350 1_554 S
C533 N541 1.427 1_455 S
C534 H525 0.930 . S
C534 C532 1.378 . S
C534 C535 1.367 1_655 S
C535 C534 1.367 1_455 S
C535 C537 1.433 . S
C536 C532 1.350 1_455 S
C536 C533 1.463 . S
C536 N540 1.427 . S
C537 H527 0.929 . S
C537 C535 1.433 . S
C537 N540 1.384 . S
C538 H529 0.929 . S
C538 C530 1.378 . S
C538 C533 1.350 1_556 S
C539 H526 0.929 . S
C539 C531 1.433 1_655 S
C539 N541 1.384 1_556 S
N540 C536 1.427 . S
N540 C537 1.384 . S
N541 C533 1.427 1_655 S
N541 C539 1.384 1_554 S
H542 C548 0.930 . S
H543 C552 0.930 . S
H544 C557 0.929 . S
H545 C555 0.929 . S
H546 C550 0.929 . S
H547 C556 0.929 . S
C548 H542 0.930 . S
C548 C549 1.367 . S
C548 C556 1.378 . S
C549 C548 1.367 . S
C549 C557 1.433 . S
C550 H546 0.929 . S
C550 C552 1.378 . S
C550 C554 1.350 . S
C551 C554 1.463 . S
C551 C556 1.350 . S
C551 N559 1.427 . S
C552 H543 0.930 . S
C552 C550 1.378 . S
C552 C553 1.367 . S
C553 C552 1.367 . S
C553 C555 1.433 . S
C554 C550 1.350 . S
C554 C551 1.463 . S
C554 N558 1.427 . S
C555 H545 0.929 . S
C555 C553 1.433 . S
C555 N558 1.384 . S
C556 H547 0.929 . S
C556 C548 1.378 . S
C556 C551 1.350 . S
C557 H544 0.929 . S
C557 C549 1.433 . S
C557 N559 1.384 . S
N558 C554 1.427 . S
N558 C555 1.384 . S
N559 C551 1.427 . S
N559 C557 1.384 . S
H560 C566 0.930 . S
H561 C570 0.930 . S
H562 C575 0.929 . S
H563 C573 0.929 . S
H564 C568 0.929 . S
H565 C574 0.929 . S
C566 H560 0.930 . S
C566 C567 1.367 . S
C566 C574 1.378 . S
C567 C566 1.367 . S
C567 C575 1.433 . S
C568 H564 0.929 . S
C568 C570 1.378 . S
C568 C572 1.350 1_554 S
C569 C572 1.463 . S
C569 C574 1.350 . S
C569 N577 1.427 . S
C570 H561 0.930 . S
C570 C568 1.378 . S
C570 C571 1.367 . S
C571 C570 1.367 . S
C571 C573 1.433 . S
C572 C568 1.350 1_556 S
C572 C569 1.463 . S
C572 N576 1.427 . S
C573 H563 0.929 . S
C573 C571 1.433 . S
C573 N576 1.384 1_554 S
C574 H565 0.929 . S
C574 C566 1.378 . S
C574 C569 1.350 . S
C575 H562 0.929 . S
C575 C567 1.433 . S
C575 N577 1.384 . S
N576 C572 1.427 . S
N576 C573 1.384 1_556 S
N577 C569 1.427 . S
N577 C575 1.384 . S
H578 C584 0.930 1_655 S
H579 C588 0.930 . S
H580 C593 0.929 . S
H581 C591 0.929 . S
H582 C586 0.929 . S
H583 C592 0.909 1_655 S
C584 H578 0.930 1_455 S
C584 C585 1.367 . S
C584 C592 1.380 . S
C585 C584 1.367 . S
C585 C593 1.433 . S
C586 H582 0.929 . S
C586 C588 1.378 . S
C586 C590 1.350 . S
C587 C590 1.463 . S
C587 C592 1.368 . S
C587 N595 1.427 . S
C588 H579 0.930 . S
C588 C586 1.378 . S
C588 C589 1.367 . S
C589 C588 1.367 . S
C589 C591 1.433 1_455 S
C590 C586 1.350 . S
C590 C587 1.463 . S
C590 N594 1.427 1_455 S
C591 H581 0.929 . S
C591 C589 1.433 1_655 S
C591 N594 1.384 . S
C592 H583 0.909 1_455 S
C592 C584 1.380 . S
C592 C587 1.368 . S
C593 H580 0.929 . S
C593 C585 1.433 . S
C593 N595 1.384 . S
N594 C590 1.427 1_655 S
N594 C591 1.384 . S
N595 C587 1.427 . S
N595 C593 1.384 . S
H596 C602 0.930 . S
H597 C606 0.930 . S
H598 C611 0.929 . S
H599 C609 0.929 . S
H600 C604 0.929 . S
H601 C610 0.929 . S
C602 H596 0.930 . S
C602 C603 1.367 . S
C602 C610 1.378 1_556 S
C603 C602 1.367 . S
C603 C611 1.433 . S
C604 H600 0.929 . S
C604 C606 1.378 . S
C604 C608 1.350 . S
C605 C608 1.463 . S
C605 C610 1.350 . S
C605 N613 1.427 1_554 S
C606 H597 0.930 . S
C606 C604 1.378 . S
C606 C607 1.367 . S
C607 C606 1.367 . S
C607 C609 1.433 . S
C608 C604 1.350 . S
C608 C605 1.463 . S
C608 N612 1.427 . S
C609 H599 0.929 . S
C609 C607 1.433 . S
C609 N612 1.384 . S
C610 H601 0.929 . S
C610 C602 1.378 1_554 S
C610 C605 1.350 . S
C611 H598 0.929 . S
C611 C603 1.433 . S
C611 N613 1.384 . S
N612 C608 1.427 . S
N612 C609 1.384 . S
N613 C605 1.427 1_556 S
N613 C611 1.384 . S
H614 C620 0.930 . S
H615 C624 0.930 . S
H616 C629 0.929 . S
H617 C627 0.917 1_655 S
H618 C622 0.929 . S
H619 C628 0.929 1_655 S
C620 H614 0.930 . S
C620 C621 1.367 . S
C620 C628 1.378 . S
C621 C620 1.367 . S
C621 C629 1.433 . S
C622 H618 0.929 . S
C622 C624 1.378 . S
C622 C626 1.350 . S
C623 C626 1.463 . S
C623 C628 1.350 . S
C623 N631 1.427 . S
C624 H615 0.930 . S
C624 C622 1.378 . S
C624 C625 1.367 . S
C625 C624 1.367 . S
C625 C627 1.444 . S
C626 C622 1.350 . S
C626 C623 1.463 . S
C626 N630 1.427 . S
C627 H617 0.917 1_455 S
C627 C625 1.444 . S
C627 N630 1.386 . S
C628 H619 0.929 1_455 S
C628 C620 1.378 . S
C628 C623 1.350 . S
C629 H616 0.929 . S
C629 C621 1.433 . S
C629 N631 1.384 . S
N630 C626 1.427 . S
N630 C627 1.386 . S
N631 C623 1.427 . S
N631 C629 1.384 . S
C279 C70 1.674 . S
C283 C2 1.676 . S
C297 C104 1.669 . S
C301 C36 1.668 . S
C315 C138 1.678 . S
C319 C206 1.677 . S
C333 C172 1.670 . S
C337 C240 1.669 . S
C351 C111 1.139 . S
C355 C9 1.158 . S
C369 C43 1.157 . S
C373 C77 1.137 . S
C387 C73 1.880 . S
C391 C39 1.884 . S
C405 C107 1.881 . S
C409 C5 1.884 . S
C423 C247 1.136 . S
C427 C145 1.156 . S
C441 C179 1.142 . S
C445 C213 1.144 . S
C459 C209 1.883 . S
C463 C175 1.885 . S
C477 C243 1.877 . S
C481 C141 1.880 . S
C495 C190 1.289 . S
C499 C33 1.287 . S
C513 C67 1.285 . S
C517 C156 1.284 . S
C531 C101 1.281 . S
C535 C258 1.285 . S
C549 C224 1.284 . S
C553 C135 1.286 . S
C567 C54 1.285 . S
C571 C169 1.281 . S
C585 C203 1.282 . S
C589 C20 1.288 . S
C603 C237 1.287 . S
C607 C122 1.288 . S
C621 C271 1.282 . S
C625 C88 1.283 . S
