# Generated by pormake.
# Topology zfy, (5)-cn, num edge types: 1
# Building blocks:
#     Node 0, Type 0, BuildingBlock: XOMCOT_clean_sbu_1, # of connection points: 5
#     Node 1, Type 0, BuildingBlock: XOMCOT_clean_sbu_1, # of connection points: 5
#     Node 2, Type 0, BuildingBlock: XOMCOT_clean_sbu_1, # of connection points: 5
#     Node 3, Type 0, BuildingBlock: XOMCOT_clean_sbu_1, # of connection points: 5
#     Node 4, Type 0, BuildingBlock: XOMCOT_clean_sbu_1, # of connection points: 5
#     Node 5, Type 0, BuildingBlock: XOMCOT_clean_sbu_1, # of connection points: 5
#     Node 6, Type 0, BuildingBlock: XOMCOT_clean_sbu_1, # of connection points: 5
#     Node 7, Type 0, BuildingBlock: XOMCOT_clean_sbu_1, # of connection points: 5
#     Node 8, Type 0, BuildingBlock: XOMCOT_clean_sbu_1, # of connection points: 5
#     Node 9, Type 0, BuildingBlock: XOMCOT_clean_sbu_1, # of connection points: 5
#     Node 10, Type 0, BuildingBlock: XOMCOT_clean_sbu_1, # of connection points: 5
#     Node 11, Type 0, BuildingBlock: XOMCOT_clean_sbu_1, # of connection points: 5
#     Node 12, Type 0, BuildingBlock: XOMCOT_clean_sbu_1, # of connection points: 5
#     Node 13, Type 0, BuildingBlock: XOMCOT_clean_sbu_1, # of connection points: 5
#     Node 14, Type 0, BuildingBlock: XOMCOT_clean_sbu_1, # of connection points: 5
#     Node 15, Type 0, BuildingBlock: XOMCOT_clean_sbu_1, # of connection points: 5
#     Edge 16, Type (0, 0), BuildingBlock: TEMPAE_clean_linker_10, # of connection points: 2
#     Edge 17, Type (0, 0), BuildingBlock: TEMPAE_clean_linker_10, # of connection points: 2
#     Edge 18, Type (0, 0), BuildingBlock: TEMPAE_clean_linker_10, # of connection points: 2
#     Edge 19, Type (0, 0), BuildingBlock: TEMPAE_clean_linker_10, # of connection points: 2
#     Edge 20, Type (0, 0), BuildingBlock: TEMPAE_clean_linker_10, # of connection points: 2
#     Edge 21, Type (0, 0), BuildingBlock: TEMPAE_clean_linker_10, # of connection points: 2
#     Edge 22, Type (0, 0), BuildingBlock: TEMPAE_clean_linker_10, # of connection points: 2
#     Edge 23, Type (0, 0), BuildingBlock: TEMPAE_clean_linker_10, # of connection points: 2
#     Edge 24, Type (0, 0), BuildingBlock: TEMPAE_clean_linker_10, # of connection points: 2
#     Edge 25, Type (0, 0), BuildingBlock: TEMPAE_clean_linker_10, # of connection points: 2
#     Edge 26, Type (0, 0), BuildingBlock: TEMPAE_clean_linker_10, # of connection points: 2
#     Edge 27, Type (0, 0), BuildingBlock: TEMPAE_clean_linker_10, # of connection points: 2
#     Edge 28, Type (0, 0), BuildingBlock: TEMPAE_clean_linker_10, # of connection points: 2
#     Edge 29, Type (0, 0), BuildingBlock: TEMPAE_clean_linker_10, # of connection points: 2
#     Edge 30, Type (0, 0), BuildingBlock: TEMPAE_clean_linker_10, # of connection points: 2
#     Edge 31, Type (0, 0), BuildingBlock: TEMPAE_clean_linker_10, # of connection points: 2
#     Edge 32, Type (0, 0), BuildingBlock: TEMPAE_clean_linker_10, # of connection points: 2
#     Edge 33, Type (0, 0), BuildingBlock: TEMPAE_clean_linker_10, # of connection points: 2
#     Edge 34, Type (0, 0), BuildingBlock: TEMPAE_clean_linker_10, # of connection points: 2
#     Edge 35, Type (0, 0), BuildingBlock: TEMPAE_clean_linker_10, # of connection points: 2
#     Edge 36, Type (0, 0), BuildingBlock: TEMPAE_clean_linker_10, # of connection points: 2
#     Edge 37, Type (0, 0), BuildingBlock: TEMPAE_clean_linker_10, # of connection points: 2
#     Edge 38, Type (0, 0), BuildingBlock: TEMPAE_clean_linker_10, # of connection points: 2
#     Edge 39, Type (0, 0), BuildingBlock: TEMPAE_clean_linker_10, # of connection points: 2
#     Edge 40, Type (0, 0), BuildingBlock: TEMPAE_clean_linker_10, # of connection points: 2
#     Edge 41, Type (0, 0), BuildingBlock: TEMPAE_clean_linker_10, # of connection points: 2
#     Edge 42, Type (0, 0), BuildingBlock: TEMPAE_clean_linker_10, # of connection points: 2
#     Edge 43, Type (0, 0), BuildingBlock: TEMPAE_clean_linker_10, # of connection points: 2
#     Edge 44, Type (0, 0), BuildingBlock: TEMPAE_clean_linker_10, # of connection points: 2
#     Edge 45, Type (0, 0), BuildingBlock: TEMPAE_clean_linker_10, # of connection points: 2
#     Edge 46, Type (0, 0), BuildingBlock: TEMPAE_clean_linker_10, # of connection points: 2
#     Edge 47, Type (0, 0), BuildingBlock: TEMPAE_clean_linker_10, # of connection points: 2
#     Edge 48, Type (0, 0), BuildingBlock: TEMPAE_clean_linker_10, # of connection points: 2
#     Edge 49, Type (0, 0), BuildingBlock: TEMPAE_clean_linker_10, # of connection points: 2
#     Edge 50, Type (0, 0), BuildingBlock: TEMPAE_clean_linker_10, # of connection points: 2
#     Edge 51, Type (0, 0), BuildingBlock: TEMPAE_clean_linker_10, # of connection points: 2
#     Edge 52, Type (0, 0), BuildingBlock: TEMPAE_clean_linker_10, # of connection points: 2
#     Edge 53, Type (0, 0), BuildingBlock: TEMPAE_clean_linker_10, # of connection points: 2
#     Edge 54, Type (0, 0), BuildingBlock: TEMPAE_clean_linker_10, # of connection points: 2
#     Edge 55, Type (0, 0), BuildingBlock: TEMPAE_clean_linker_10, # of connection points: 2
# Relax obj value: 0.139
# Max RMSD: 0.187
# Mean RMSD: 0.187
data_MOF--net-zfy--node1-XOMCOT_clean_sbu_1--edge1-TEMPAE_clean_linker_10
_symmetry_space_group_name_H-M    P1
_symmetry_Int_Tables_number       1
_symmetry_cell_setting            triclinic
loop_
_symmetry_equiv_pos_as_xyz
'x, y, z'
_cell_length_a     51.316677
_cell_length_b     51.243601
_cell_length_c     32.141619
_cell_angle_alpha  89.8779
_cell_angle_beta   89.816375
_cell_angle_gamma 90.014509
loop_
_atom_site_label
_atom_site_type_symbol
_atom_site_fract_x
_atom_site_fract_y
_atom_site_fract_z
_atom_type_partial_charge
C0 C 0.2747 0.24087 0.04761 0.0
C1 C 0.26377 0.25047 0.08348 0.0
N2 N 0.28092 0.24746 0.11468 0.0
N3 N 0.29861 0.23112 0.05576 0.0
C4 C 0.30231 0.23667 0.09672 0.0
H5 H 0.26522 0.24038 1.01772 0.0
Co6 Co 0.31903 0.21181 1.01641 0.0
C7 C 0.3242 0.17786 0.09448 0.0
O8 O 0.30078 0.18342 0.10851 0.0
N9 N 0.33928 0.19256 0.97773 0.0
C10 C 0.35587 0.15776 0.94596 0.0
C11 C 0.33877 0.16624 0.97567 0.0
C12 C 0.35758 0.19959 0.94909 0.0
N13 N 0.36778 0.17863 0.92909 0.0
O14 O 0.34778 0.2361 0.02348 0.0
H15 H 0.32738 0.15366 0.99561 0.0
H16 H 0.36356 0.21952 0.94333 0.0
O17 O 0.33234 0.18789 0.06023 0.0
C18 C 0.34204 0.2562 1.00152 0.0
O19 O 0.31923 0.25665 0.98307 0.0
N20 N 0.28975 0.19062 1.00345 0.0
C21 C 0.24607 0.16704 0.96662 0.0
C22 C 0.25801 0.15596 1.00189 0.0
C23 C 0.27983 0.16806 0.01993 0.0
C24 C 0.27861 0.20128 0.96898 0.0
C25 C 0.25664 0.19028 0.95075 0.0
H26 H 0.28917 0.15838 0.04553 0.0
H27 H 0.28683 0.21885 0.95567 0.0
H28 H 0.31959 0.23115 0.11382 0.0
H29 H 0.24427 0.25829 0.08666 0.0
H30 H 0.36016 0.13758 0.93867 0.0
H31 H 0.25112 0.13768 1.0148 0.0
H32 H 0.24807 0.20013 0.9243 0.0
C33 C 0.5131 0.5431 0.30745 0.0
C34 C 0.50509 0.53283 0.34481 0.0
N35 N 0.52381 0.53704 0.37323 0.0
N36 N 0.53695 0.55381 0.31156 0.0
C37 C 0.54299 0.54996 0.35234 0.0
H38 H 0.50226 0.54239 0.27873 0.0
Co39 Co 0.55436 0.56832 0.2648 0.0
C40 C 0.60269 0.59532 0.29614 0.0
O41 O 0.61359 0.5928 0.25935 0.0
N42 N 0.57057 0.5829 0.21644 0.0
C43 C 0.58627 0.58778 0.15216 0.0
C44 C 0.57826 0.57008 0.18184 0.0
C45 C 0.5737 0.60853 0.20645 0.0
N46 N 0.58346 0.61202 0.16763 0.0
O47 O 0.53053 0.59781 0.26533 0.0
H48 H 0.57768 0.54918 0.17781 0.0
H49 H 0.56871 0.62435 0.22726 0.0
O50 O 0.57972 0.58612 0.30259 0.0
C51 C 0.51457 0.59324 0.23563 0.0
O52 O 0.51701 0.57108 0.21542 0.0
N53 N 0.57474 0.53752 0.26016 0.0
C54 C 0.59769 0.49132 0.23045 0.0
C55 C 0.61247 0.50998 0.25229 0.0
C56 C 0.60055 0.5328 0.26747 0.0
C57 C 0.55984 0.51874 0.24197 0.0
C58 C 0.57074 0.49554 0.22748 0.0
H59 H 0.61248 0.54671 0.28354 0.0
H60 H 0.53942 0.52245 0.2364 0.0
H61 H 0.56127 0.55581 0.36618 0.0
H62 H 0.48675 0.52302 0.35067 0.0
H63 H 0.59385 0.58309 0.12161 0.0
H64 H 0.6333 0.50768 0.25603 0.0
H65 H 0.55809 0.48148 0.21262 0.0
C66 C 0.22572 0.76422 0.55548 0.0
C67 C 0.23594 0.75586 0.59257 0.0
N68 N 0.23031 0.77362 0.62206 0.0
N69 N 0.21355 0.78725 0.56096 0.0
C70 C 0.21655 0.79253 0.60212 0.0
H71 H 0.22757 0.75432 0.52597 0.0
Co72 Co 0.19943 0.80508 0.51499 0.0
C73 C 0.17268 0.85296 0.54667 0.0
O74 O 0.17883 0.86479 0.51168 0.0
N75 N 0.18531 0.82189 0.46707 0.0
C76 C 0.18048 0.83917 0.40391 0.0
C77 C 0.19812 0.8304 0.43286 0.0
C78 C 0.15975 0.82537 0.45758 0.0
N79 N 0.15628 0.83602 0.41941 0.0
O80 O 0.17043 0.78069 0.51355 0.0
H81 H 0.21895 0.83006 0.42847 0.0
H82 H 0.14397 0.81998 0.47831 0.0
O83 O 0.18021 0.82935 0.55285 0.0
C84 C 0.17507 0.76494 0.48356 0.0
O85 O 0.19715 0.76772 0.46315 0.0
N86 N 0.22973 0.82623 0.51294 0.0
C87 C 0.27662 0.85138 0.49317 0.0
C88 C 0.25826 0.86327 0.51953 0.0
C89 C 0.23515 0.85004 0.53 0.0
C90 C 0.24824 0.81377 0.4898 0.0
C91 C 0.27171 0.82596 0.47943 0.0
H92 H 0.22192 0.85921 0.55147 0.0
H93 H 0.24415 0.79458 0.47752 0.0
H94 H 0.20964 0.81021 0.61685 0.0
H95 H 0.2468 0.73801 0.59744 0.0
H96 H 0.18523 0.84756 0.37391 0.0
H97 H 0.26174 0.8826 0.53187 0.0
H98 H 0.28539 0.81597 0.45927 0.0
C99 C 1.00849 0.48082 0.7977 0.0
C100 C 0.01729 0.49113 0.83444 0.0
N101 N 1.00038 0.48475 0.86494 0.0
N102 N 0.98602 0.46785 0.80438 0.0
C103 C 0.98155 0.47046 0.84592 0.0
H104 H 0.0177 0.48308 0.76761 0.0
Co105 Co 0.96785 0.45326 0.7592 0.0
C106 C 0.91789 0.43269 0.79243 0.0
O107 O 0.90658 0.44034 0.75786 0.0
N108 N 0.95059 0.43843 0.71204 0.0
C109 C 0.93637 0.43208 0.64737 0.0
C110 C 0.94512 0.45021 0.67541 0.0
C111 C 0.94502 0.41285 0.70498 0.0
N112 N 0.93641 0.40849 0.66578 0.0
O113 O 0.99017 0.4227 0.76087 0.0
H114 H 0.94812 0.47051 0.66822 0.0
H115 H 0.94816 0.39757 0.72771 0.0
O116 O 0.94232 0.43682 0.79759 0.0
C117 C 1.00668 0.42554 0.73132 0.0
O118 O 1.00588 0.44735 0.70974 0.0
N119 N 0.94867 0.4849 0.75426 0.0
C120 C 0.92591 0.53235 0.73006 0.0
C121 C 0.91459 0.5169 0.76157 0.0
C122 C 0.92666 0.49351 0.77403 0.0
C123 C 0.96121 0.50101 0.72699 0.0
C124 C 0.95005 0.52444 0.71389 0.0
H125 H 0.9181 0.48259 0.79927 0.0
H126 H 0.97944 0.49479 0.71325 0.0
H127 H 0.96449 0.46281 0.86164 0.0
H128 H 0.03485 0.50256 0.8384 0.0
H129 H 0.93062 0.43599 0.61559 0.0
H130 H 0.89655 0.52278 0.77638 0.0
H131 H 0.95981 0.53558 0.68979 0.0
C132 C 0.73959 0.77395 0.99519 0.0
C133 C 0.74932 0.76158 0.96048 0.0
N134 N 0.73361 0.76687 0.92815 0.0
N135 N 0.71782 0.78739 0.98518 0.0
C136 C 0.7143 0.78187 0.94417 0.0
H137 H 0.74819 0.77324 0.02576 0.0
Co138 Co 0.69787 0.8087 0.02268 0.0
C139 C 0.69497 0.84062 0.94308 0.0
O140 O 0.71944 0.83591 0.9335 0.0
N141 N 0.6778 0.82974 0.0595 0.0
C142 C 0.6602 0.86565 0.08652 0.0
C143 C 0.67694 0.85604 0.0571 0.0
C144 C 0.66069 0.82383 0.09062 0.0
N145 N 0.64987 0.8455 0.10778 0.0
O146 O 0.66878 0.78476 1.01757 0.0
H147 H 0.68706 0.86775 0.0343 0.0
H148 H 0.65601 0.80413 0.10022 0.0
O149 O 0.68507 0.83071 0.9762 0.0
C150 C 0.67398 0.76561 0.04184 0.0
O151 O 0.69614 0.7661 0.06217 0.0
N152 N 0.7277 0.82992 0.03357 0.0
C153 C 0.7733 0.85292 0.06505 0.0
C154 C 0.7592 0.86491 0.03283 0.0
C155 C 0.73634 0.85321 1.0177 0.0
C156 C 0.74062 0.81881 0.06608 0.0
C157 C 0.76348 0.82965 0.08183 0.0
H158 H 0.72541 0.86369 0.99461 0.0
H159 H 0.73298 0.80123 0.08017 0.0
H160 H 0.69807 0.78899 0.92602 0.0
H161 H 0.76717 0.75037 0.9588 0.0
H162 H 0.65511 0.88598 0.09075 0.0
H163 H 0.76567 0.88324 0.01955 0.0
H164 H 0.77302 0.82013 0.10776 0.0
C165 C 0.51093 0.47498 0.73911 0.0
C166 C 0.52035 0.48352 0.70144 0.0
N167 N 0.50128 0.48152 0.67298 0.0
N168 N 0.48597 0.46724 0.73495 0.0
C169 C 0.48044 0.47176 0.69416 0.0
H170 H 0.52175 0.47439 0.76787 0.0
Co171 Co 0.46729 0.45316 0.78062 0.0
C172 C 0.41774 0.43167 0.74719 0.0
O173 O 0.406 0.43843 0.78191 0.0
N174 N 0.44947 0.43865 0.82786 0.0
C175 C 0.43349 0.43305 0.89185 0.0
C176 C 0.44278 0.45094 0.86348 0.0
C177 C 0.44412 0.41309 0.83581 0.0
N178 N 0.43437 0.40915 0.87458 0.0
O179 O 0.48987 0.42281 0.78025 0.0
H180 H 0.44512 0.47151 0.86942 0.0
H181 H 0.44803 0.39755 0.8139 0.0
O182 O 0.44207 0.43652 0.74213 0.0
C183 C 0.50568 0.42632 0.81047 0.0
O184 O 0.50338 0.4479 0.83223 0.0
N185 N 0.44822 0.48481 0.78477 0.0
C186 C 0.42609 0.53187 0.81213 0.0
C187 C 0.41307 0.51591 0.78321 0.0
C188 C 0.4248 0.49275 0.76902 0.0
C189 C 0.46223 0.50145 0.80898 0.0
C190 C 0.45165 0.52493 0.82294 0.0
H191 H 0.41465 0.48136 0.74616 0.0
H192 H 0.48139 0.49573 0.81949 0.0
H193 H 0.46178 0.46752 0.6801 0.0
H194 H 0.53979 0.49088 0.69548 0.0
H195 H 0.42664 0.43738 0.92297 0.0
H196 H 0.39362 0.52063 0.77267 0.0
H197 H 0.46327 0.5371 0.84319 0.0
C198 C 0.77589 0.24692 0.48693 0.0
C199 C 0.7668 0.25938 0.45204 0.0
N200 N 0.78499 0.25773 0.42183 0.0
N201 N 0.79968 0.2368 0.47924 0.0
C202 C 0.80507 0.24456 0.43964 0.0
H203 H 0.76532 0.24504 0.51585 0.0
Co204 Co 0.81911 0.21611 0.51772 0.0
C205 C 0.82472 0.18458 0.43765 0.0
O206 O 0.80187 0.1915 0.42297 0.0
N207 N 0.83843 0.19559 0.55566 0.0
C208 C 0.85452 0.15997 0.58571 0.0
C209 C 0.83797 0.16924 0.55588 0.0
C210 C 0.85601 0.20186 0.58558 0.0
N211 N 0.86594 0.18039 0.60454 0.0
O212 O 0.84839 0.23964 0.51226 0.0
H213 H 0.827 0.15725 0.53465 0.0
H214 H 0.86168 0.22163 0.59302 0.0
O215 O 0.83236 0.19317 0.47298 0.0
C216 C 0.84297 0.25955 0.53465 0.0
O217 O 0.81998 0.26051 0.55271 0.0
N218 N 0.78937 0.19527 0.52888 0.0
C219 C 0.74574 0.17072 0.56459 0.0
C220 C 0.75764 0.16062 0.5285 0.0
C221 C 0.77945 0.17321 0.51102 0.0
C222 C 0.77808 0.20515 0.56384 0.0
C223 C 0.75612 0.19366 0.58158 0.0
H224 H 0.78882 0.16429 0.4847 0.0
H225 H 0.78629 0.22238 0.57811 0.0
H226 H 0.82306 0.23985 0.42373 0.0
H227 H 0.74763 0.26791 0.4488 0.0
H228 H 0.85877 0.13962 0.59178 0.0
H229 H 0.75078 0.14267 0.51462 0.0
H230 H 0.74751 0.20277 0.60868 0.0
C231 C 0.0123 0.54239 0.23127 0.0
C232 C 1.00356 0.53439 0.1931 0.0
N233 N 0.0226 0.53828 0.1649 0.0
N234 N 0.03678 0.55172 0.22776 0.0
C235 C 0.04275 0.54863 0.18677 0.0
H236 H 1.00137 0.5413 0.25998 0.0
Co237 Co 0.05445 0.56504 0.27471 0.0
C238 C 0.10223 0.59311 0.24352 0.0
O239 O 0.11393 0.58847 0.27906 0.0
N240 N 0.0709 0.57834 0.3233 0.0
C241 C 0.08925 0.58178 0.38576 0.0
C242 C 0.08004 0.56477 0.35624 0.0
C243 C 0.07414 0.60371 0.33439 0.0
N244 N 0.08565 0.60635 0.37201 0.0
O245 O 0.03083 0.59457 0.27644 0.0
H246 H 0.07996 0.54381 0.35926 0.0
H247 H 0.0689 0.61995 0.31454 0.0
O248 O 0.0791 0.58433 0.23747 0.0
C249 C 0.01312 0.5902 0.30367 0.0
O250 O 0.01362 0.56791 0.32396 0.0
N251 N 0.07523 0.53444 0.27629 0.0
C252 C 0.10116 0.48855 0.29932 0.0
C253 C 0.11362 0.50752 0.27467 0.0
C254 C 0.10013 0.53015 0.26271 0.0
C255 C 0.06223 0.51523 0.29724 0.0
C256 C 0.07479 0.49221 0.30917 0.0
H257 H 0.11012 0.54408 0.2434 0.0
H258 H 0.04236 0.51859 0.30717 0.0
H259 H 0.06126 0.55414 0.17312 0.0
H260 H 0.98465 0.52595 0.18662 0.0
H261 H 0.09774 0.57638 0.41533 0.0
H262 H 0.13374 0.50504 0.26521 0.0
H263 H 0.06432 0.47809 0.32796 0.0
C264 C 0.77815 0.74607 0.56072 0.0
C265 C 0.76776 0.75133 0.59922 0.0
N266 N 0.78142 0.73805 0.6279 0.0
N267 N 0.79821 0.72923 0.56453 0.0
C268 C 0.79993 0.72484 0.60622 0.0
H269 H 0.771 0.75362 0.53148 0.0
Co270 Co 0.81499 0.7153 0.51694 0.0
C271 C 0.84054 0.66587 0.54431 0.0
O272 O 0.83448 0.65543 0.5083 0.0
N273 N 0.83179 0.70237 0.46808 0.0
C274 C 0.84024 0.69091 0.40258 0.0
C275 C 0.82124 0.69859 0.43011 0.0
C276 C 0.85759 0.69746 0.46216 0.0
N277 N 0.86321 0.69014 0.42262 0.0
O278 O 0.84311 0.74036 0.52191 0.0
H279 H 0.80111 0.70152 0.42202 0.0
H280 H 0.872 0.69937 0.48649 0.0
O281 O 0.83353 0.68938 0.55226 0.0
C282 C 0.83683 0.76039 0.50031 0.0
O283 O 0.81355 0.76085 0.48342 0.0
N284 N 0.78555 0.69335 0.50865 0.0
C285 C 0.73871 0.66915 0.48539 0.0
C286 C 0.75549 0.65733 0.51441 0.0
C287 C 0.77856 0.67011 0.52652 0.0
C288 C 0.76863 0.70562 0.4825 0.0
C289 C 0.74544 0.69387 0.47014 0.0
H290 H 0.79036 0.6613 0.55039 0.0
H291 H 0.77362 0.72461 0.47008 0.0
H292 H 0.81376 0.71161 0.62031 0.0
H293 H 0.75125 0.76384 0.60572 0.0
H294 H 0.83716 0.68589 0.37028 0.0
H295 H 0.75066 0.63858 0.52799 0.0
H296 H 0.73325 0.70388 0.44776 0.0
C297 C 0.01266 0.04128 0.79772 0.0
C298 C 1.00344 0.03077 0.83423 0.0
N299 N 0.01993 0.03705 0.86513 0.0
N300 N 0.03502 0.05427 0.80491 0.0
C301 C 0.03897 0.05148 0.84656 0.0
H302 H 1.00388 0.03907 0.76741 0.0
Co303 Co 0.05387 0.06875 0.75986 0.0
C304 C 0.10431 0.0868 0.79302 0.0
O305 O 0.11542 0.07798 0.75895 0.0
N306 N 0.0719 0.08359 0.71287 0.0
C307 C 0.08651 0.0904 0.64831 0.0
C308 C 0.07721 0.07214 0.67595 0.0
C309 C 0.07821 0.10912 0.7064 0.0
N310 N 0.08703 0.11377 0.66725 0.0
O311 O 0.03234 0.09983 0.76167 0.0
H312 H 0.0737 0.05202 0.66825 0.0
H313 H 0.07533 0.12421 0.72948 0.0
O314 O 0.07967 0.08422 0.79828 0.0
C315 C 0.01607 0.09735 0.73188 0.0
O316 O 0.01657 0.07554 0.71044 0.0
N317 N 0.07217 0.03658 0.75484 0.0
C318 C 0.09292 0.98776 0.73322 0.0
C319 C 0.10404 1.00267 0.76531 0.0
C320 C 0.09284 0.02672 0.77659 0.0
C321 C 0.0598 0.02115 0.7266 0.0
C322 C 0.06999 0.99703 0.71483 0.0
H323 H 0.1009 0.03708 0.80268 0.0
H324 H 0.04234 0.02825 0.71158 0.0
H325 H 0.05585 0.05903 0.86268 0.0
H326 H 0.9859 0.01922 0.83774 0.0
H327 H 0.09218 0.08674 0.61638 0.0
H328 H 0.12113 0.99576 0.78165 0.0
H329 H 0.06044 0.98625 0.69026 0.0
C330 C 0.72036 0.26412 0.0616 0.0
C331 C 0.72858 0.25683 0.10055 0.0
N332 N 0.7318 0.27847 0.12362 0.0
N333 N 0.71798 0.29031 0.05985 0.0
C334 C 0.72543 0.29861 0.09814 0.0
H335 H 0.71638 0.25102 0.03612 0.0
Co336 Co 0.70647 0.30821 1.01208 0.0
C337 C 0.68243 0.35836 0.04203 0.0
O338 O 0.68774 0.36943 1.00609 0.0
N339 N 0.69468 0.32543 0.96309 0.0
C340 C 0.69197 0.34397 0.90047 0.0
C341 C 0.70866 0.33447 0.9304 0.0
C342 C 0.66952 0.32923 0.95171 0.0
N343 N 0.66732 0.34054 0.91387 0.0
O344 O 0.67557 0.28616 1.01002 0.0
H345 H 0.72964 0.33399 0.9279 0.0
H346 H 0.65305 0.32422 0.97127 0.0
O347 O 0.68878 0.33444 0.04837 0.0
C348 C 0.67942 0.27015 0.98004 0.0
O349 O 0.70198 0.27105 0.96059 0.0
N350 N 0.73841 0.32667 1.01023 0.0
C351 C 0.78595 0.34739 0.98222 0.0
C352 C 0.76824 0.36277 1.00511 0.0
C353 C 0.74475 0.35189 0.01957 0.0
C354 C 0.75644 0.3109 0.99188 0.0
C355 C 0.7803 0.32072 0.97802 0.0
H356 H 0.73168 0.36421 0.03673 0.0
H357 H 0.75155 0.29075 0.98561 0.0
H358 H 0.72577 0.31891 0.10736 0.0
H359 H 0.73217 0.23707 0.11105 0.0
H360 H 0.69756 0.35237 0.87083 0.0
H361 H 0.77174 0.38335 1.01009 0.0
H362 H 0.79367 0.30759 0.96251 0.0
C363 C 0.49479 0.99016 0.30021 0.0
C364 C 0.50701 1.00061 0.33431 0.0
N365 N 0.50166 0.98565 0.3678 0.0
N366 N 0.48123 0.96872 0.3115 0.0
C367 C 0.48691 0.96582 0.35262 0.0
H368 H 0.49562 0.99812 0.26913 0.0
Co369 Co 0.45909 0.94967 0.27447 0.0
C370 C 0.42799 0.94455 0.35558 0.0
O371 O 0.43338 0.96826 0.36847 0.0
N372 N 0.43717 0.9306 0.23779 0.0
C373 C 0.40069 0.91364 0.21201 0.0
C374 C 0.41092 0.93015 0.24108 0.0
C375 C 0.44236 0.91366 0.20628 0.0
N376 N 0.42038 0.90315 0.19 0.0
O377 O 0.4826 0.91988 0.27779 0.0
H378 H 0.39967 0.94021 0.26443 0.0
H379 H 0.46176 0.9087 0.19579 0.0
O380 O 0.43727 0.93638 0.3209 0.0
C381 C 0.49947 0.92396 0.24904 0.0
O382 O 0.49801 0.94612 0.2285 0.0
N383 N 0.43821 0.98004 0.26528 0.0
C384 C 0.41368 0.02514 0.23474 0.0
C385 C 0.4027 0.01089 0.26776 0.0
C386 C 0.41532 0.98842 0.28277 0.0
C387 C 0.44846 0.99336 0.23225 0.0
C388 C 0.43691 0.01613 0.21711 0.0
H389 H 0.40573 0.97742 0.30683 0.0
H390 H 0.46576 0.98602 0.21705 0.0
H391 H 0.47956 0.94997 0.37152 0.0
H392 H 0.51869 0.01818 0.33425 0.0
H393 H 0.38029 0.90866 0.20885 0.0
H394 H 0.38443 0.01696 0.28166 0.0
H395 H 0.4457 0.02618 0.1909 0.0
C396 C 0.24582 0.27464 0.48617 0.0
C397 C 0.25482 0.264 0.44959 0.0
N398 N 0.23809 0.27023 0.41903 0.0
N399 N 0.22353 0.28794 0.47914 0.0
C400 C 0.21889 0.28399 0.43799 0.0
H401 H 0.25542 0.27302 0.51588 0.0
Co402 Co 0.20493 0.30787 0.52 0.0
C403 C 0.19955 0.34274 0.44348 0.0
O404 O 0.22333 0.33792 0.43029 0.0
N405 N 0.18633 0.32761 0.56011 0.0
C406 C 0.17041 0.36253 0.59246 0.0
C407 C 0.1869 0.35394 0.56194 0.0
C408 C 0.16859 0.32071 0.5897 0.0
N409 N 0.15878 0.34172 0.61002 0.0
O410 O 0.17523 0.28457 0.51485 0.0
H411 H 0.19756 0.3665 0.54102 0.0
H412 H 0.16253 0.30084 0.59568 0.0
O413 O 0.19115 0.33205 0.47704 0.0
C414 C 0.18065 0.26422 0.5364 0.0
O415 O 0.20379 0.26278 0.55359 0.0
N416 N 0.23528 0.32806 0.531 0.0
C417 C 0.27988 0.35052 0.567 0.0
C418 C 0.26654 0.36315 0.53444 0.0
C419 C 0.24429 0.35161 0.5168 0.0
C420 C 0.248 0.31575 0.56256 0.0
C421 C 0.27046 0.32616 0.58017 0.0
H422 H 0.23371 0.36262 0.4939 0.0
H423 H 0.24037 0.29757 0.57461 0.0
H424 H 0.20205 0.29156 0.42181 0.0
H425 H 0.27294 0.25349 0.44546 0.0
H426 H 0.16611 0.38273 0.59955 0.0
H427 H 0.27251 0.38229 0.52376 0.0
H428 H 0.28009 0.31516 0.60443 0.0
C429 C 1.00174 0.9813 0.23164 0.0
C430 C 0.01054 0.98951 0.19346 0.0
N431 N 0.99274 0.98308 0.16462 0.0
N432 N 0.9785 0.96931 0.22755 0.0
C433 C 0.97326 0.97099 0.18609 0.0
H434 H 0.01179 0.98402 0.26077 0.0
Co435 Co 0.96188 0.95484 0.27504 0.0
C436 C 0.91256 0.9297 0.24726 0.0
O437 O 0.90195 0.93651 0.28287 0.0
N438 N 0.94655 0.94024 0.32424 0.0
C439 C 0.93191 0.93482 0.38906 0.0
C440 C 0.94038 0.95264 0.35998 0.0
C441 C 0.94207 0.91462 0.33303 0.0
N442 N 0.93292 0.91081 0.37221 0.0
O443 O 0.98566 0.92552 0.27382 0.0
H444 H 0.94216 0.97331 0.36539 0.0
H445 H 0.94564 0.89903 0.31107 0.0
O446 O 0.9362 0.93633 0.2392 0.0
C447 C 1.00376 0.93054 0.2999 0.0
O448 O 1.00255 0.95263 0.32052 0.0
N449 N 0.94121 0.98543 0.27928 0.0
C450 C 0.9168 0.03245 0.30053 0.0
C451 C 0.90483 0.01481 0.27318 0.0
C452 C 0.91771 0.99167 0.26195 0.0
C453 C 0.95388 1.00336 0.30312 0.0
C454 C 0.94202 0.02683 0.31439 0.0
H455 H 0.90859 0.97911 0.23951 0.0
H456 H 0.973 0.99879 0.31519 0.0
H457 H 0.95587 0.96317 0.17183 0.0
H458 H 0.02863 0.99973 0.18737 0.0
H459 H 0.92519 0.93933 0.42017 0.0
H460 H 0.88572 0.01891 0.26052 0.0
H461 H 0.95214 0.03997 0.33518 0.0
C462 C 0.29519 0.75964 0.98621 0.0
C463 C 0.2867 0.76975 0.94905 0.0
N464 N 0.28686 0.75062 0.92038 0.0
N465 N 0.30101 0.73419 0.98144 0.0
C466 C 0.29547 0.72909 0.94093 0.0
H467 H 0.2969 0.77024 1.01511 0.0
Co468 Co 0.31353 0.71395 0.02603 0.0
C469 C 0.33316 0.66424 0.99027 0.0
O470 O 0.32426 0.65212 0.02346 0.0
N471 N 0.3265 0.69423 0.07236 0.0
C472 C 0.33058 0.67244 0.13216 0.0
C473 C 0.31331 0.68337 0.10453 0.0
C474 C 0.35193 0.68971 0.08174 0.0
N475 N 0.35492 0.67655 0.11795 0.0
O476 O 0.34488 0.73524 0.02772 0.0
H477 H 0.29246 0.68338 0.10854 0.0
H478 H 0.36801 0.69584 0.06217 0.0
O479 O 0.32996 0.68898 0.98657 0.0
C480 C 0.34275 0.75033 0.05921 0.0
O481 O 0.32129 0.74889 0.08158 0.0
N482 N 0.28117 0.6961 0.02778 0.0
C483 C 0.23278 0.67467 0.04985 0.0
C484 C 0.24824 0.66317 0.01862 0.0
C485 C 0.27215 0.6746 1.0072 0.0
C486 C 0.2652 0.70888 0.05487 0.0
C487 C 0.2412 0.69842 0.06676 0.0
H488 H 0.28324 0.66586 0.98236 0.0
H489 H 0.272 0.72659 0.06954 0.0
H490 H 0.29796 0.71013 0.92669 0.0
H491 H 0.28049 0.78966 0.9437 0.0
H492 H 0.32559 0.66268 0.16101 0.0
H493 H 0.24203 0.64538 1.00344 0.0
H494 H 0.23006 0.70821 0.09076 0.0
C495 C 0.51383 0.044 0.73511 0.0
C496 C 0.50505 0.03442 0.69778 0.0
N497 N 0.52393 0.0375 0.66889 0.0
N498 N 0.53818 0.05333 0.73033 0.0
C499 C 0.54395 0.04894 0.68962 0.0
H500 H 0.50321 0.0438 0.76421 0.0
Co501 Co 0.55737 0.06713 0.77504 0.0
C502 C 0.60727 0.08516 0.73948 0.0
O503 O 0.61904 0.07542 0.77226 0.0
N504 N 0.5764 0.08152 0.82122 0.0
C505 C 0.59851 0.08765 0.88014 0.0
C506 C 0.58761 0.06946 0.85416 0.0
C507 C 0.58074 0.10731 0.82862 0.0
N508 N 0.59413 0.1115 0.86422 0.0
O509 O 0.53559 0.09815 0.77491 0.0
H510 H 0.5882 0.04878 0.85981 0.0
H511 H 0.57453 0.12277 0.80793 0.0
O512 O 0.58249 0.08315 0.7359 0.0
C513 C 0.5198 0.09548 0.8055 0.0
O514 O 0.52106 0.07373 0.82717 0.0
N515 N 0.57564 0.03509 0.77846 0.0
C516 C 0.59863 0.98781 0.80092 0.0
C517 C 0.60744 1.00152 0.7657 0.0
C518 C 0.59527 0.02508 0.75441 0.0
C519 C 0.56473 0.02006 0.80891 0.0
C520 C 0.57636 0.9968 0.82154 0.0
H521 H 0.60198 0.03522 0.72696 0.0
H522 H 0.54793 0.02726 0.82572 0.0
H523 H 0.56243 0.05402 0.67547 0.0
H524 H 0.48632 0.0253 0.69266 0.0
H525 H 0.60864 0.08361 0.90894 0.0
H526 H 0.62406 0.99459 0.74803 0.0
H527 H 0.56847 0.98631 0.84804 0.0
C528 C 0.49232 0.13598 0.79268 0.0
C529 C 0.50085 0.11582 0.81893 0.0
C530 C 0.47195 0.15289 0.80522 0.0
C531 C 0.45984 0.14934 0.84466 0.0
C532 C 0.46963 0.13004 0.87201 0.0
C533 C 0.48992 0.11373 0.85891 0.0
C534 C 0.46263 0.17362 0.77545 0.0
C535 C 0.45762 0.1254 0.91442 0.0
C536 C 0.41197 0.19142 0.90502 0.0
C537 C 0.38899 0.17704 0.89952 0.0
C538 C 0.43499 0.18463 0.8834 0.0
C539 C 0.43495 0.16285 0.85613 0.0
C540 C 0.41102 0.1503 0.84721 0.0
C541 C 0.38842 0.15761 0.86887 0.0
C542 C 0.4598 0.19923 0.89267 0.0
C543 C 0.40975 0.12716 0.81827 0.0
H544 H 0.50079 0.13793 0.7619 0.0
H545 H 0.49672 0.09864 0.87992 0.0
H546 H 0.44527 0.16634 0.75857 0.0
H547 H 0.45687 0.19161 0.79227 0.0
H548 H 0.47785 0.1786 0.75208 0.0
H549 H 0.46843 0.11056 0.93277 0.0
H550 H 0.45714 0.14381 0.93246 0.0
H551 H 0.43721 0.11862 0.91083 0.0
H552 H 0.4125 0.20658 0.92847 0.0
H553 H 0.37052 0.14683 0.86398 0.0
H554 H 0.47194 0.20133 0.86422 0.0
H555 H 0.47131 0.18815 0.91592 0.0
H556 H 0.45571 0.2189 0.9056 0.0
H557 H 0.42052 0.13125 0.78903 0.0
H558 H 0.38936 0.12184 0.81041 0.0
H559 H 0.41911 0.11007 0.83336 0.0
C560 C 0.5894 0.63849 0.10366 0.0
C561 C 0.59064 0.63623 0.14719 0.0
C562 C 0.59893 0.66076 0.08285 0.0
C563 C 0.61031 0.6813 0.10596 0.0
C564 C 0.61041 0.67971 0.15005 0.0
C565 C 0.60049 0.6573 0.1701 0.0
C566 C 0.59802 0.66168 0.03594 0.0
C567 C 0.62244 0.70102 0.17605 0.0
C568 C 0.66708 0.71901 0.05904 0.0
C569 C 0.65606 0.74345 0.05025 0.0
C570 C 0.65217 0.69854 0.07571 0.0
C571 C 0.62536 0.70245 0.08416 0.0
C572 C 0.61373 0.72672 0.07346 0.0
C573 C 0.62924 0.74699 0.05653 0.0
C574 C 0.66552 0.67307 0.08612 0.0
C575 C 0.58523 0.73172 0.08179 0.0
H576 H 0.58136 0.62255 0.08572 0.0
H577 H 0.60165 0.65572 0.20365 0.0
H578 H 0.59058 0.68085 0.02515 0.0
H579 H 0.61801 0.65936 0.02321 0.0
H580 H 0.58553 0.64601 0.02288 0.0
H581 H 0.61857 0.69825 0.2098 0.0
H582 H 0.64385 0.70124 0.17103 0.0
H583 H 0.61485 0.72037 0.16644 0.0
H584 H 0.68782 0.71616 0.05426 0.0
H585 H 0.62072 0.76597 0.05048 0.0
H586 H 0.65521 0.65656 0.07116 0.0
H587 H 0.66485 0.66975 0.12023 0.0
H588 H 0.68622 0.67277 0.07589 0.0
H589 H 0.57322 0.71525 0.07029 0.0
H590 H 0.57841 0.75007 0.06695 0.0
H591 H 0.58192 0.73319 0.11583 0.0
C592 C 0.13036 0.84487 0.35604 0.0
C593 C 0.13214 0.84374 0.39963 0.0
C594 C 0.10824 0.85522 0.33625 0.0
C595 C 0.08725 0.86476 0.36052 0.0
C596 C 0.08825 0.86225 0.40445 0.0
C597 C 0.11064 0.85178 0.42345 0.0
C598 C 0.10802 0.85732 0.2894 0.0
C599 C 0.06634 0.87212 0.43161 0.0
C600 C 0.04951 0.92357 0.32145 0.0
C601 C 0.02572 0.91264 0.30904 0.0
C602 C 0.06978 0.90807 0.33696 0.0
C603 C 0.06626 0.88077 0.34065 0.0
C604 C 0.04261 0.86938 0.32666 0.0
C605 C 0.02258 0.88548 0.31079 0.0
C606 C 0.09468 0.92115 0.35081 0.0
C607 C 0.03807 0.84038 0.3301 0.0
H608 H 0.14658 0.83816 0.33728 0.0
H609 H 0.1118 0.8511 0.45707 0.0
H610 H 0.08917 0.85034 0.27679 0.0
H611 H 0.11019 0.87808 0.28015 0.0
H612 H 0.12406 0.84597 0.27482 0.0
H613 H 0.06854 0.86586 0.46453 0.0
H614 H 0.06594 0.89376 0.43059 0.0
H615 H 0.04729 0.86506 0.41988 0.0
H616 H 0.05208 0.94456 0.31996 0.0
H617 H 1.00411 0.87699 0.30173 0.0
H618 H 0.11169 0.91218 0.33496 0.0
H619 H 0.09732 0.91828 0.38476 0.0
H620 H 0.09475 0.94243 0.34417 0.0
H621 H 0.05476 0.82948 0.31669 0.0
H622 H 0.01993 0.83422 0.3141 0.0
H623 H 0.03657 0.8348 0.3634 0.0
C624 C 0.91619 0.36456 0.66917 0.0
C625 C 0.92903 0.3841 0.64642 0.0
C626 C 0.90587 0.34237 0.6492 0.0
C627 C 0.90864 0.33953 0.60546 0.0
C628 C 0.92313 0.35837 0.58291 0.0
C629 C 0.93304 0.38038 0.60357 0.0
C630 C 0.8906 0.32279 0.67455 0.0
C631 C 0.9269 0.35609 0.53646 0.0
C632 C 0.88773 0.27484 0.55565 0.0
C633 C 0.86188 0.28044 0.54485 0.0
C634 C 0.90357 0.29397 0.57465 0.0
C635 C 0.89328 0.31921 0.58267 0.0
C636 C 0.8676 0.32515 0.56973 0.0
C637 C 0.85229 0.30573 0.55124 0.0
C638 C 0.9308 0.28679 0.58793 0.0
C639 C 0.85579 0.35177 0.57703 0.0
H640 H 0.91302 0.36728 0.70222 0.0
H641 H 0.94348 0.39508 0.5859 0.0
H642 H 0.86962 0.3243 0.66662 0.0
H643 H 0.89695 0.30265 0.66706 0.0
H644 H 0.89281 0.32601 0.70852 0.0
H645 H 0.94142 0.37033 0.5244 0.0
H646 H 0.93333 0.33611 0.52807 0.0
H647 H 0.90806 0.35968 0.52057 0.0
H648 H 0.89506 0.25516 0.55154 0.0
H649 H 0.83226 0.3101 0.54308 0.0
H650 H 0.93172 0.28605 0.6224 0.0
H651 H 0.94493 0.30181 0.57737 0.0
H652 H 0.93691 0.2675 0.57554 0.0
H653 H 0.8546 0.35567 0.61093 0.0
H654 H 0.83592 0.35353 0.56369 0.0
H655 H 0.86831 0.36712 0.56304 0.0
C656 C 0.6078 0.83172 0.13967 0.0
C657 C 0.62974 0.84808 0.1392 0.0
C658 C 0.58556 0.83812 0.16372 0.0
C659 C 0.58527 0.86144 0.18758 0.0
C660 C 0.60834 0.87654 0.19005 0.0
C661 C 0.63017 0.86964 0.16604 0.0
C662 C 0.56174 0.821 0.16097 0.0
C663 C 0.60926 0.90147 0.21497 0.0
C664 C 0.5257 0.90505 0.19162 0.0
C665 C 0.51837 0.90405 0.23373 0.0
C666 C 0.54623 0.88994 0.1759 0.0
C667 C 0.56011 0.87307 0.20281 0.0
C668 C 0.55166 0.87046 0.24482 0.0
C669 C 0.53083 0.88603 0.25988 0.0
C670 C 0.55414 0.89346 0.13089 0.0
C671 C 0.56545 0.85233 0.27442 0.0
H672 H 0.60731 0.81498 0.11915 0.0
H673 H 0.64727 0.88205 0.16642 0.0
H674 H 0.55195 0.81934 0.1917 0.0
H675 H 0.54763 0.82983 0.13898 0.0
H676 H 0.56669 0.80113 0.14962 0.0
H677 H 0.6294 0.90922 0.21782 0.0
H678 H 0.59706 0.91651 0.19953 0.0
H679 H 0.60121 0.8983 0.24663 0.0
H680 H 0.51584 0.91849 0.17086 0.0
H681 H 0.52523 0.885 0.29238 0.0
H682 H 0.55551 0.87428 0.11515 0.0
H683 H 0.57369 0.9027 0.12925 0.0
H684 H 0.54021 0.90588 0.11337 0.0
H685 H 0.57069 0.83375 0.25881 0.0
H686 H 0.55332 0.84793 0.30225 0.0
H687 H 0.5838 0.8616 0.28503 0.0
C688 C 0.3497 0.30288 0.98505 0.0
C689 C 0.3603 0.27804 0.99234 0.0
C690 C 0.36459 0.32311 0.96753 0.0
C691 C 0.39096 0.3186 0.9566 0.0
C692 C 0.40222 0.29388 0.96562 0.0
C693 C 0.38675 0.27385 0.98348 0.0
C694 C 0.35164 0.34906 0.95903 0.0
C695 C 0.43024 0.2882 0.95465 0.0
C696 C 0.41519 0.36468 0.87104 0.0
C697 C 0.4265 0.38487 0.89425 0.0
C698 C 0.40484 0.34227 0.8907 0.0
C699 C 0.40602 0.33976 0.93468 0.0
C700 C 0.41878 0.35941 0.95794 0.0
C701 C 0.4287 0.38167 0.93755 0.0
C702 C 0.39136 0.32195 0.86456 0.0
C703 C 0.42086 0.35755 1.00468 0.0
H704 H 0.32925 0.30624 0.99173 0.0
H705 H 0.39495 0.25459 0.98827 0.0
H706 H 0.36282 0.36506 0.97383 0.0
H707 H 0.35144 0.35289 0.92505 0.0
H708 H 0.33127 0.34974 0.97078 0.0
H709 H 0.43686 0.26916 0.9674 0.0
H710 H 0.43251 0.2878 0.92032 0.0
H711 H 0.44314 0.30385 0.96657 0.0
H712 H 0.41333 0.36696 0.83767 0.0
H713 H 0.43789 0.39686 0.95572 0.0
H714 H 0.37012 0.32234 0.87112 0.0
H715 H 0.39852 0.30216 0.87264 0.0
H716 H 0.39439 0.32529 0.83072 0.0
H717 H 0.40128 0.36008 0.01883 0.0
H718 H 0.43406 0.37264 1.01768 0.0
H719 H 0.42809 0.338 1.01402 0.0
C720 C 0.98872 0.11758 0.67724 0.0
C721 C 0.99778 0.11819 0.71838 0.0
C722 C 0.96853 0.13385 0.6638 0.0
C723 C 0.95693 0.15155 0.69207 0.0
C724 C 0.96732 0.15382 0.73284 0.0
C725 C 0.98767 0.13701 0.74564 0.0
C726 C 0.95842 0.13066 0.61995 0.0
C727 C 0.95608 0.17291 0.76366 0.0
C728 C 0.90893 0.1938 0.63247 0.0
C729 C 0.88653 0.17816 0.63489 0.0
C730 C 0.93158 0.18717 0.65496 0.0
C731 C 0.93179 0.16428 0.67995 0.0
C732 C 0.90829 0.15023 0.68581 0.0
C733 C 0.88602 0.15742 0.6634 0.0
C734 C 0.95586 0.20334 0.64906 0.0
C735 C 0.9073 0.12584 0.71224 0.0
H736 H 0.99685 0.10355 0.65559 0.0
H737 H 0.99472 0.13778 0.77736 0.0
H738 H 0.93829 0.12275 0.62093 0.0
H739 H 0.95766 0.14982 0.60393 0.0
H740 H 0.97068 0.11726 0.6011 0.0
H741 H 0.97023 0.17751 0.78869 0.0
H742 H 0.95016 0.19132 0.7481 0.0
H743 H 0.93849 0.16427 0.77835 0.0
H744 H 0.9094 0.21001 0.61075 0.0
H745 H 0.86852 0.14568 0.66609 0.0
H746 H 0.96855 0.19399 0.6254 0.0
H747 H 0.96707 0.20464 0.67845 0.0
H748 H 0.95114 0.22337 0.63812 0.0
H749 H 0.91818 0.10998 0.69637 0.0
H750 H 0.88701 0.11908 0.71776 0.0
H751 H 0.91673 0.12923 0.74274 0.0
C752 C 0.08135 0.65395 0.38517 0.0
C753 C 0.09414 0.63012 0.39221 0.0
C754 C 0.09043 0.67731 0.4032 0.0
C755 C 0.11304 0.67694 0.42847 0.0
C756 C 0.12545 0.6528 0.43675 0.0
C757 C 0.11586 0.6298 0.41866 0.0
C758 C 0.0764 0.70251 0.39387 0.0
C759 C 0.14978 0.65139 0.463 0.0
C760 C 0.1599 0.73413 0.42914 0.0
C761 C 0.1565 0.74455 0.4692 0.0
C762 C 0.14501 0.71304 0.41503 0.0
C763 C 0.126 0.7018 0.44151 0.0
C764 C 0.12145 0.71299 0.4813 0.0
C765 C 0.13676 0.73432 0.49472 0.0
C766 C 0.15058 0.702 0.37234 0.0
C767 C 0.10119 0.70174 0.5103 0.0
H768 H 0.06431 0.65436 0.36537 0.0
H769 H 0.1261 0.61164 0.424 0.0
H770 H 0.07349 0.71395 0.42278 0.0
H771 H 0.08842 0.71455 0.37245 0.0
H772 H 0.05715 0.6991 0.37912 0.0
H773 H 0.1557 0.63095 0.46968 0.0
H774 H 0.16605 0.66129 0.44652 0.0
H775 H 0.14675 0.66168 0.49295 0.0
H776 H 0.17477 0.74215 0.40877 0.0
H777 H 0.13392 0.74231 0.5256 0.0
H778 H 0.13234 0.70061 0.35406 0.0
H779 H 0.15856 0.68197 0.3754 0.0
H780 H 0.1648 0.71403 0.35455 0.0
H781 H 0.08253 0.69874 0.49362 0.0
H782 H 0.09763 0.71451 0.53762 0.0
H783 H 0.10777 0.68238 0.52163 0.0
C784 C 0.89253 0.68352 0.36215 0.0
C785 C 0.88788 0.68159 0.40518 0.0
C786 C 0.91461 0.67213 0.34361 0.0
C787 C 0.9328 0.65855 0.3686 0.0
C788 C 0.92915 0.65799 0.41239 0.0
C789 C 0.90674 0.66945 0.43013 0.0
C790 C 0.9176 0.67328 0.29689 0.0
C791 C 0.94814 0.64396 0.44035 0.0
C792 C 0.96726 0.59952 0.32264 0.0
C793 C 0.9923 0.6091 0.31422 0.0
C794 C 0.94772 0.61561 0.33921 0.0
C795 C 0.9534 0.642 0.34859 0.0
C796 C 0.97857 0.65203 0.33928 0.0
C797 C 0.99773 0.63548 0.32182 0.0
C798 C 0.92112 0.60408 0.34775 0.0
C799 C 0.98558 0.67989 0.34932 0.0
H800 H 0.87848 0.69341 0.34262 0.0
H801 H 0.90341 0.66777 0.46332 0.0
H802 H 0.93766 0.6793 0.28823 0.0
H803 H 0.91431 0.65357 0.28367 0.0
H804 H 0.90356 0.68703 0.28236 0.0
H805 H 0.94455 0.64823 0.47376 0.0
H806 H 0.94635 0.6226 0.43558 0.0
H807 H 0.96845 0.64954 0.43244 0.0
H808 H 0.96306 0.57909 0.31694 0.0
H809 H 0.01725 0.64279 0.31616 0.0
H810 H 0.90587 0.61581 0.33202 0.0
H811 H 0.91696 0.6046 0.38163 0.0
H812 H 0.91953 0.58355 0.33697 0.0
H813 H 0.97124 0.69347 0.33527 0.0
H814 H 1.00539 0.68516 0.33804 0.0
H815 H 0.98483 0.68282 0.38349 0.0
C816 C 0.10804 0.1574 0.67102 0.0
C817 C 0.09477 0.13828 0.64821 0.0
C818 C 0.11849 0.17974 0.65128 0.0
C819 C 0.1154 0.18324 0.6077 0.0
C820 C 0.10057 0.16478 0.58514 0.0
C821 C 0.09058 0.14259 0.60554 0.0
C822 C 0.13415 0.19883 0.67668 0.0
C823 C 0.09642 0.16773 0.53889 0.0
C824 C 0.13598 0.24871 0.55887 0.0
C825 C 0.16169 0.24322 0.54674 0.0
C826 C 0.12033 0.22933 0.57803 0.0
C827 C 0.13061 0.20392 0.58495 0.0
C828 C 0.15611 0.19815 0.57073 0.0
C829 C 0.17124 0.21779 0.55207 0.0
C830 C 0.09327 0.23638 0.5926 0.0
C831 C 0.16795 0.17142 0.5768 0.0
H832 H 0.11137 0.15424 0.70392 0.0
H833 H 0.07984 0.12825 0.5878 0.0
H834 H 0.15502 0.19739 0.66782 0.0
H835 H 0.12778 0.21911 0.67017 0.0
H836 H 0.13235 0.19505 0.71061 0.0
H837 H 0.0818 0.15367 0.52686 0.0
H838 H 0.08992 0.18783 0.53133 0.0
H839 H 0.11512 0.16439 0.5223 0.0
H840 H 0.12866 0.26845 0.55564 0.0
H841 H 0.19114 0.21347 0.54293 0.0
H842 H 0.0927 0.23646 0.62711 0.0
H843 H 0.07897 0.22161 0.58194 0.0
H844 H 0.08713 0.25592 0.58123 0.0
H845 H 0.16946 0.16702 0.61053 0.0
H846 H 0.18768 0.16983 0.5627 0.0
H847 H 0.15526 0.15629 0.5628 0.0
C848 C 0.53754 0.38983 0.79459 0.0
C849 C 0.5264 0.40756 0.82263 0.0
C850 C 0.55974 0.3751 0.80586 0.0
C851 C 0.57091 0.37831 0.84592 0.0
C852 C 0.55876 0.39516 0.87485 0.0
C853 C 0.53674 0.4094 0.86292 0.0
C854 C 0.57187 0.35697 0.77439 0.0
C855 C 0.56976 0.39925 0.91793 0.0
C856 C 0.62054 0.33396 0.89822 0.0
C857 C 0.64364 0.3483 0.893 0.0
C858 C 0.59697 0.34239 0.88033 0.0
C859 C 0.59635 0.36599 0.85728 0.0
C860 C 0.61986 0.37992 0.85047 0.0
C861 C 0.64318 0.37083 0.86817 0.0
C862 C 0.57253 0.32666 0.88775 0.0
C863 C 0.62014 0.40535 0.82666 0.0
H864 H 0.52965 0.38827 0.76345 0.0
H865 H 0.52801 0.42271 0.88512 0.0
H866 H 0.59053 0.36539 0.76313 0.0
H867 H 0.57637 0.33783 0.78887 0.0
H868 H 0.55897 0.35378 0.74717 0.0
H869 H 0.55729 0.41213 0.93734 0.0
H870 H 0.57196 0.38027 0.93419 0.0
H871 H 0.58942 0.40817 0.91555 0.0
H872 H 0.62086 0.31625 0.91668 0.0
H873 H 0.66089 0.38207 0.86416 0.0
H874 H 0.5613 0.32461 0.85849 0.0
H875 H 0.55989 0.33694 0.91046 0.0
H876 H 0.5769 0.3069 0.9002 0.0
H877 H 0.60998 0.40312 0.79648 0.0
H878 H 0.64025 0.41247 0.82063 0.0
H879 H 0.60952 0.42045 0.84472 0.0
C880 C 0.39482 0.88173 0.13515 0.0
C881 C 0.41743 0.88263 0.1595 0.0
C882 C 0.38818 0.85938 0.11241 0.0
C883 C 0.40472 0.83727 0.11347 0.0
C884 C 0.42897 0.83904 0.1344 0.0
C885 C 0.43502 0.86169 0.15741 0.0
C886 C 0.36219 0.85866 0.0905 0.0
C887 C 0.44763 0.81632 0.13523 0.0
C888 C 0.36426 0.77564 0.11492 0.0
C889 C 0.36327 0.76889 0.07268 0.0
C890 C 0.37932 0.79664 0.12887 0.0
C891 C 0.39404 0.81144 0.09993 0.0
C892 C 0.39497 0.80335 0.05768 0.0
C893 C 0.37946 0.78212 0.04444 0.0
C894 C 0.37772 0.8042 0.17424 0.0
C895 C 0.41097 0.81806 0.02599 0.0
H896 H 0.38149 0.89813 0.13577 0.0
H897 H 0.45263 0.86226 0.17588 0.0
H898 H 0.36447 0.85099 0.05847 0.0
H899 H 0.34879 0.84535 0.1075 0.0
H900 H 0.35295 0.87824 0.08877 0.0
H901 H 0.46768 0.82266 0.14337 0.0
H902 H 0.44106 0.80196 0.15892 0.0
H903 H 0.44814 0.80626 0.1047 0.0
H904 H 0.35219 0.76514 0.13709 0.0
H905 H 0.37889 0.77692 1.01178 0.0
H906 H 0.3675 0.8232 0.17724 0.0
H907 H 0.39752 0.80663 0.18738 0.0
H908 H 0.36708 0.7895 0.19323 0.0
H909 H 0.40017 0.83573 1.01598 0.0
H910 H 0.41494 0.80599 0.998 0.0
H911 H 0.42978 0.82455 0.03945 0.0
C912 C 0.13822 0.36306 0.67 0.0
C913 C 0.13767 0.34342 0.63972 0.0
C914 C 0.11561 0.37047 0.69156 0.0
C915 C 0.09171 0.35782 0.68287 0.0
C916 C 0.09171 0.33582 0.65606 0.0
C917 C 0.11473 0.32891 0.63457 0.0
C918 C 0.11684 0.39383 0.72005 0.0
C919 C 0.06693 0.3211 0.64704 0.0
C920 C 0.03412 0.38518 0.74524 0.0
C921 C 0.02572 0.40514 0.71852 0.0
C922 C 0.05455 0.3682 0.73326 0.0
C923 C 0.0668 0.37143 0.69387 0.0
C924 C 0.05712 0.39052 0.66603 0.0
C925 C 0.0368 0.40694 0.67863 0.0
C926 C 0.06379 0.34772 0.76355 0.0
C927 C 0.06924 0.39478 0.6236 0.0
H928 H 0.15609 0.37394 0.67462 0.0
H929 H 0.1142 0.31358 0.61141 0.0
H930 H 0.10758 0.41082 0.70453 0.0
H931 H 0.10596 0.39 0.74928 0.0
H932 H 0.13721 0.39916 0.72797 0.0
H933 H 0.07107 0.30127 0.63476 0.0
H934 H 0.05468 0.31934 0.67543 0.0
H935 H 0.05551 0.33189 0.62333 0.0
H936 H 0.02552 0.38347 0.77596 0.0
H937 H 0.03008 0.42188 0.65727 0.0
H938 H 0.08114 0.35511 0.78031 0.0
H939 H 0.06954 0.32956 0.74716 0.0
H940 H 0.04853 0.34298 0.78697 0.0
H941 H 0.08965 0.40159 0.62718 0.0
H942 H 0.05849 0.40946 0.60485 0.0
H943 H 0.06977 0.37621 0.60599 0.0
C944 C 0.91382 0.8663 0.36868 0.0
C945 C 0.92466 0.8867 0.39201 0.0
C946 C 0.90284 0.8442 0.3883 0.0
C947 C 0.90273 0.84231 0.43238 0.0
C948 C 0.91498 0.86215 0.4559 0.0
C949 C 0.92572 0.88401 0.43552 0.0
C950 C 0.89007 0.82356 0.36187 0.0
C951 C 0.91555 0.86099 0.50282 0.0
C952 C 0.84479 0.80651 0.47989 0.0
C953 C 0.85517 0.7819 0.4896 0.0
C954 C 0.86023 0.82633 0.46237 0.0
C955 C 0.88689 0.82158 0.45386 0.0
C956 C 0.89783 0.79709 0.46506 0.0
C957 C 0.88184 0.77752 0.48295 0.0
C958 C 0.84765 0.85213 0.45162 0.0
C959 C 0.92614 0.79118 0.45656 0.0
H960 H 0.91279 0.86817 0.33515 0.0
H961 H 0.93454 0.89933 0.45385 0.0
H962 H 0.89671 0.80385 0.37144 0.0
H963 H 0.86864 0.82429 0.36649 0.0
H964 H 0.89431 0.82628 0.32823 0.0
H965 H 0.92842 0.87619 0.51631 0.0
H966 H 0.89555 0.86385 0.51523 0.0
H967 H 0.92232 0.84155 0.51351 0.0
H968 H 0.8242 0.81007 0.48496 0.0
H969 H 0.88991 0.75843 0.48973 0.0
H970 H 0.84854 0.85535 0.41749 0.0
H971 H 0.8584 0.86837 0.46656 0.0
H972 H 0.82694 0.85306 0.46166 0.0
H973 H 0.92949 0.79035 0.42247 0.0
H974 H 0.93228 0.77229 0.47045 0.0
H975 H 0.9387 0.80694 0.469 0.0
C976 C 0.48131 0.62914 0.24707 0.0
C977 C 0.4947 0.61208 0.22053 0.0
C978 C 0.45955 0.64343 0.23256 0.0
C979 C 0.45118 0.64054 0.19069 0.0
C980 C 0.4658 0.62461 0.16337 0.0
C981 C 0.48726 0.61071 0.17858 0.0
C982 C 0.44473 0.66053 0.26253 0.0
C983 C 0.45787 0.62089 0.11852 0.0
C984 C 0.3797 0.64503 0.16049 0.0
C985 C 0.37887 0.66841 0.13776 0.0
C986 C 0.40281 0.63639 0.17936 0.0
C987 C 0.42579 0.65162 0.17599 0.0
C988 C 0.42488 0.67573 0.15428 0.0
C989 C 0.40151 0.68371 0.13508 0.0
C990 C 0.40288 0.61033 0.20142 0.0
C991 C 0.44874 0.69278 0.15043 0.0
H992 H 0.48696 0.63031 0.27947 0.0
H993 H 0.4978 0.59791 0.15761 0.0
H994 H 0.44029 0.67968 0.24802 0.0
H995 H 0.42588 0.65114 0.27048 0.0
H996 H 0.45573 0.66384 0.29177 0.0
H997 H 0.47242 0.60941 0.10059 0.0
H998 H 0.43889 0.61053 0.11727 0.0
H999 H 0.45526 0.64005 0.10299 0.0
H1000 H 0.36237 0.63302 0.16244 0.0
H1001 H 0.40088 0.70201 0.11818 0.0
H1002 H 0.41087 0.61245 0.23326 0.0
H1003 H 0.41568 0.59651 0.1844 0.0
H1004 H 0.38308 0.60167 0.2037 0.0
H1005 H 0.45802 0.69537 0.18129 0.0
H1006 H 0.44409 0.7123 0.13732 0.0
H1007 H 0.46325 0.68322 0.12986 0.0
C1008 C 0.58696 0.15839 0.87986 0.0
C1009 C 0.60263 0.13599 0.88189 0.0
C1010 C 0.59503 0.18205 0.89821 0.0
C1011 C 0.61958 0.18348 0.91826 0.0
C1012 C 0.63535 0.16081 0.92043 0.0
C1013 C 0.62662 0.13742 0.90254 0.0
C1014 C 0.57743 0.20558 0.89574 0.0
C1015 C 0.6619 0.16142 0.94058 0.0
C1016 C 0.65995 0.24532 0.9219 0.0
C1017 C 0.65956 0.25156 0.96439 0.0
C1018 C 0.64557 0.22433 0.90609 0.0
C1019 C 0.63026 0.20896 0.93341 0.0
C1020 C 0.62818 0.21634 0.97591 0.0
C1021 C 0.64288 0.23766 0.99099 0.0
C1022 C 0.64843 0.21745 0.86061 0.0
C1023 C 0.61176 0.20074 1.00596 0.0
H1024 H 0.56825 0.15728 0.86446 0.0
H1025 H 0.6389 0.12025 0.90387 0.0
H1026 H 0.57465 0.21412 0.92714 0.0
H1027 H 0.58661 0.22081 0.87597 0.0
H1028 H 0.55804 0.20073 0.88257 0.0
H1029 H 0.67129 0.14189 0.94121 0.0
H1030 H 0.67481 0.17506 0.92331 0.0
H1031 H 0.66029 0.16871 0.97295 0.0
H1032 H 0.67252 0.25628 0.90103 0.0
H1033 H 0.64252 0.24238 0.02384 0.0
H1034 H 0.62906 0.21429 0.84627 0.0
H1035 H 0.65954 0.19897 0.85762 0.0
H1036 H 0.65882 0.23287 0.84273 0.0
H1037 H 0.59251 0.19618 0.99214 0.0
H1038 H 0.60871 0.21124 0.03579 0.0
H1039 H 0.62158 0.18193 1.01272 0.0
C1040 C 0.29382 0.26022 0.18633 0.0
C1041 C 0.27517 0.25054 0.15858 0.0
C1042 C 0.28777 0.26392 0.22885 0.0
C1043 C 0.26266 0.25715 0.24424 0.0
C1044 C 0.244 0.24685 0.21637 0.0
C1045 C 0.25039 0.24391 0.17405 0.0
C1046 C 0.30814 0.27532 0.25725 0.0
C1047 C 0.21727 0.23869 0.2313 0.0
C1048 C 0.25462 0.24346 0.36063 0.0
C1049 C 0.24246 0.26629 0.37493 0.0
C1050 C 0.26111 0.24017 0.31834 0.0
C1051 C 0.25587 0.26045 0.28947 0.0
C1052 C 0.24349 0.28355 0.30374 0.0
C1053 C 0.2367 0.28606 0.34612 0.0
C1054 C 0.27359 0.21494 0.30455 0.0
C1055 C 0.23783 0.30584 0.27436 0.0
H1056 H 0.31294 0.26543 0.17454 0.0
H1057 H 0.23602 0.23594 0.15299 0.0
H1058 H 0.3005 0.29331 0.2721 0.0
H1059 H 0.3127 0.26132 0.28255 0.0
H1060 H 0.32646 0.28018 0.24043 0.0
H1061 H 0.20515 0.23055 0.20586 0.0
H1062 H 0.21909 0.22375 0.25616 0.0
H1063 H 0.20693 0.25565 0.24494 0.0
H1064 H 0.25903 0.22809 0.38271 0.0
H1065 H 0.22771 0.30392 0.35702 0.0
H1066 H 0.29308 0.21889 0.29091 0.0
H1067 H 0.26162 0.20571 0.27993 0.0
H1068 H 0.27586 0.20085 0.3306 0.0
H1069 H 0.2562 0.31254 0.25946 0.0
H1070 H 0.22859 0.32267 0.29039 0.0
H1071 H 0.22472 0.29919 0.24915 0.0
C1072 C 0.52727 0.48304 0.6081 0.0
C1073 C 0.50384 0.48822 0.62928 0.0
C1074 C 0.5312 0.49096 0.56657 0.0
C1075 C 0.51141 0.50493 0.54544 0.0
C1076 C 0.4876 0.51012 0.56658 0.0
C1077 C 0.484 0.50147 0.60804 0.0
C1078 C 0.55659 0.48426 0.54525 0.0
C1079 C 0.46607 0.52519 0.54558 0.0
C1080 C 0.5313 0.54463 0.44872 0.0
C1081 C 0.52272 0.52853 0.41629 0.0
C1082 C 0.52756 0.53739 0.49084 0.0
C1083 C 0.5154 0.51323 0.50086 0.0
C1084 C 0.50747 0.49663 0.46807 0.0
C1085 C 0.51103 0.50454 0.42647 0.0
C1086 C 0.53612 0.55584 0.52465 0.0
C1087 C 0.49511 0.47044 0.47688 0.0
H1088 H 0.5426 0.47259 0.62416 0.0
H1089 H 0.46599 0.50579 0.62432 0.0
H1090 H 0.55274 0.47262 0.51687 0.0
H1091 H 0.56667 0.50237 0.53523 0.0
H1092 H 0.56989 0.473 0.56574 0.0
H1093 H 0.44903 0.52823 0.56641 0.0
H1094 H 0.47347 0.54451 0.53526 0.0
H1095 H 0.45948 0.51465 0.5174 0.0
H1096 H 0.5401 0.56327 0.44113 0.0
H1097 H 0.50461 0.49186 0.4016 0.0
H1098 H 0.55036 0.54606 0.54535 0.0
H1099 H 0.5191 0.56137 0.54412 0.0
H1100 H 0.54516 0.57388 0.51191 0.0
H1101 H 0.50832 0.45839 0.49629 0.0
H1102 H 0.4906 0.45952 0.44795 0.0
H1103 H 0.47678 0.47312 0.49475 0.0
C1104 C 0.26276 0.76107 0.67511 0.0
C1105 C 0.23856 0.77222 0.66511 0.0
C1106 C 0.2706 0.75752 0.71663 0.0
C1107 C 0.25374 0.76499 0.74947 0.0
C1108 C 0.22937 0.7766 0.73967 0.0
C1109 C 0.22216 0.78028 0.69763 0.0
C1110 C 0.29698 0.74568 0.72529 0.0
C1111 C 0.2107 0.78472 0.7736 0.0
C1112 C 0.26615 0.73356 0.85607 0.0
C1113 C 0.27933 0.75351 0.87716 0.0
C1114 C 0.25727 0.73716 0.81488 0.0
C1115 C 0.26203 0.76113 0.7939 0.0
C1116 C 0.27574 0.78113 0.81492 0.0
C1117 C 0.28403 0.77714 0.85613 0.0
C1118 C 0.24257 0.71538 0.79389 0.0
C1119 C 0.28186 0.80675 0.79373 0.0
H1120 H 0.27572 0.75514 0.65019 0.0
H1121 H 0.20338 0.78869 0.69017 0.0
H1122 H 0.30875 0.7592 0.74453 0.0
H1123 H 0.29465 0.72733 0.7433 0.0
H1124 H 0.30798 0.74129 0.69631 0.0
H1125 H 0.19251 0.79338 0.761 0.0
H1126 H 0.20553 0.76754 0.79304 0.0
H1127 H 0.22013 0.79918 0.79431 0.0
H1128 H 0.26221 0.71538 0.87219 0.0
H1129 H 0.29449 0.79254 0.87194 0.0
H1130 H 0.25327 0.70893 0.76569 0.0
H1131 H 0.2232 0.72249 0.7836 0.0
H1132 H 0.23972 0.69827 0.8147 0.0
H1133 H 0.29381 0.80322 0.76547 0.0
H1134 H 0.29258 0.82038 0.81436 0.0
H1135 H 0.26358 0.81633 0.78352 0.0
C1136 C 0.99534 0.476 0.94074 0.0
C1137 C 1.00242 0.49279 0.90808 0.0
C1138 C 0.99937 0.48314 0.98271 0.0
C1139 C 0.01032 0.50787 0.9924 0.0
C1140 C 0.01693 0.52506 0.95945 0.0
C1141 C 0.01307 0.51727 0.91796 0.0
C1142 C 0.99222 0.46408 1.01672 0.0
C1143 C 0.028 0.55181 0.968 0.0
C1144 C 0.99701 0.53659 0.10002 0.0
C1145 C 0.02064 0.53236 0.12094 0.0
C1146 C 0.99352 0.52893 0.05839 0.0
C1147 C 0.01403 0.51624 0.03686 0.0
C1148 C 0.03811 0.51217 0.05764 0.0
C1149 C 0.04121 0.5205 0.09926 0.0
C1150 C 0.96776 0.53437 0.0375 0.0
C1151 C 0.06042 0.49853 0.03613 0.0
H1152 H 0.98734 0.45699 0.9334 0.0
H1153 H 0.01827 0.53053 0.89298 0.0
H1154 H 1.00958 0.45981 0.03607 0.0
H1155 H 0.97729 0.4728 0.03749 0.0
H1156 H 0.98451 0.44544 1.00419 0.0
H1157 H 0.03203 0.56293 0.93897 0.0
H1158 H 0.01417 0.56319 0.98738 0.0
H1159 H 0.04639 0.55005 0.98583 0.0
H1160 H 0.98112 0.54598 0.11645 0.0
H1161 H 0.05938 0.51692 0.11536 0.0
H1162 H 0.95857 0.51577 0.02777 0.0
H1163 H 0.97093 0.54621 1.00898 0.0
H1164 H 0.95398 0.54494 0.05817 0.0
H1165 H 0.05421 0.47876 0.0262 0.0
H1166 H 0.07777 0.49662 0.0565 0.0
H1167 H 0.06611 0.50943 1.00767 0.0
C1168 C 0.79449 0.74548 0.70103 0.0
C1169 C 0.77573 0.73778 0.67197 0.0
C1170 C 0.78778 0.74933 0.74327 0.0
C1171 C 0.76181 0.74473 0.75698 0.0
C1172 C 0.74317 0.73575 0.72788 0.0
C1173 C 0.75025 0.7328 0.68579 0.0
C1174 C 0.8082 0.75942 0.77283 0.0
C1175 C 0.71552 0.72981 0.74098 0.0
C1176 C 0.74946 0.73642 0.87392 0.0
C1177 C 0.73885 0.7607 0.88495 0.0
C1178 C 0.75661 0.7308 0.83247 0.0
C1179 C 0.75384 0.75019 0.80124 0.0
C1180 C 0.7431 0.77476 0.81228 0.0
C1181 C 0.73544 0.77958 0.85377 0.0
C1182 C 0.76715 0.70409 0.82213 0.0
C1183 C 0.74022 0.79624 0.78041 0.0
H1184 H 0.81407 0.74974 0.69024 0.0
H1185 H 0.73574 0.7269 0.66327 0.0
H1186 H 0.80222 0.77882 0.7848 0.0
H1187 H 0.80997 0.7462 0.80003 0.0
H1188 H 0.82762 0.76132 0.75775 0.0
H1189 H 0.70402 0.72088 0.71547 0.0
H1190 H 0.71542 0.71633 0.76805 0.0
H1191 H 0.70567 0.74804 0.75087 0.0
H1192 H 0.75208 0.72175 0.89787 0.0
H1193 H 0.72767 0.79851 0.8622 0.0
H1194 H 0.78736 0.70577 0.81013 0.0
H1195 H 0.75527 0.69508 0.7972 0.0
H1196 H 0.76718 0.69085 0.84955 0.0
H1197 H 0.75947 0.80068 0.76621 0.0
H1198 H 0.73217 0.81444 0.79409 0.0
H1199 H 0.72717 0.78978 0.755 0.0
C1200 C 0.75853 0.29686 0.18078 0.0
C1201 C 0.7399 0.27894 0.16668 0.0
C1202 C 0.76824 0.29556 0.22184 0.0
C1203 C 0.75865 0.27624 0.24971 0.0
C1204 C 0.73927 0.25864 0.23576 0.0
C1205 C 0.73039 0.26005 0.19449 0.0
C1206 C 0.78919 0.31441 0.2351 0.0
C1207 C 0.72791 0.23816 0.26441 0.0
C1208 C 0.79478 0.25218 0.34639 0.0
C1209 C 0.78138 0.26509 0.37852 0.0
C1210 C 0.78864 0.25672 0.30421 0.0
C1211 C 0.76838 0.27437 0.29365 0.0
C1212 C 0.75569 0.28837 0.32579 0.0
C1213 C 0.7625 0.28377 0.36755 0.0
C1214 C 0.80302 0.24167 0.27101 0.0
C1215 C 0.73386 0.30719 0.3163 0.0
H1216 H 0.76614 0.31128 0.15923 0.0
H1217 H 0.71584 0.24631 0.18379 0.0
H1218 H 0.78271 0.3255 0.26286 0.0
H1219 H 0.80696 0.30345 0.24408 0.0
H1220 H 0.79437 0.32847 0.21004 0.0
H1221 H 0.71244 0.22645 0.24915 0.0
H1222 H 0.74349 0.22473 0.27505 0.0
H1223 H 0.71952 0.24756 0.29249 0.0
H1224 H 0.8093 0.23766 0.35412 0.0
H1225 H 0.75239 0.29439 0.39178 0.0
H1226 H 0.80957 0.255 0.24581 0.0
H1227 H 0.78973 0.22713 0.25686 0.0
H1228 H 0.82024 0.23121 0.28363 0.0
H1229 H 0.74004 0.32145 0.29222 0.0
H1230 H 0.72733 0.31805 0.34433 0.0
H1231 H 0.71697 0.29629 0.30364 0.0
C1232 C 0.9749 0.99927 0.09748 0.0
C1233 C 0.99537 0.98834 0.12046 0.0
C1234 C 0.97871 1.00756 0.05586 0.0
C1235 C 1.00343 1.00437 0.0364 0.0
C1236 C 0.02383 0.99249 0.05921 0.0
C1237 C 0.01963 0.98492 0.10083 0.0
C1238 C 0.95647 0.02037 0.03304 0.0
C1239 C 0.05027 0.98794 0.03978 0.0
C1240 C 1.00732 1.00383 0.91747 0.0
C1241 C 0.01737 0.0287 0.90814 0.0
C1242 C 1.00279 0.99573 0.95877 0.0
C1243 C 1.008 0.013 0.99209 0.0
C1244 C 0.01834 0.03812 0.98294 0.0
C1245 C 0.02314 0.04556 0.94118 0.0
C1246 C 0.99248 0.96857 0.96671 0.0
C1247 C 0.02396 0.05731 1.01729 0.0
H1248 H 0.95625 1.00228 0.11262 0.0
H1249 H 0.03547 0.97635 0.11838 0.0
H1250 H 0.96216 0.04041 0.02351 0.0
H1251 H 0.95201 1.00937 1.00424 0.0
H1252 H 0.93851 0.0215 0.05235 0.0
H1253 H 0.06379 0.97764 0.06116 0.0
H1254 H 0.04822 0.97622 1.01099 0.0
H1255 H 0.05915 1.00686 0.03077 0.0
H1256 H 1.00309 0.99055 0.8922 0.0
H1257 H 0.03064 0.06486 0.93425 0.0
H1258 H 0.97354 0.96961 0.98336 0.0
H1259 H 1.00616 0.95766 0.98699 0.0
H1260 H 0.9897 0.95737 0.9375 0.0
H1261 H 1.00599 0.0609 0.03569 0.0
H1262 H 0.03132 0.07625 1.00518 0.0
H1263 H 0.03866 0.04906 0.03886 0.0
C1264 C 0.50708 0.97265 0.44225 0.0
C1265 C 0.50746 0.99189 0.41101 0.0
C1266 C 0.51139 0.97903 0.48446 0.0
C1267 C 0.51611 1.00532 0.49607 0.0
C1268 C 0.51695 0.02472 0.46465 0.0
C1269 C 0.51261 0.01783 0.42287 0.0
C1270 C 0.51037 0.95767 0.51681 0.0
C1271 C 0.52165 0.05303 0.4753 0.0
C1272 C 0.4981 0.0283 0.60548 0.0
C1273 C 0.5224 0.02976 0.62545 0.0
C1274 C 0.49583 0.02005 0.5639 0.0
C1275 C 0.51842 0.013 0.5411 0.0
C1276 C 0.54307 0.01447 0.56091 0.0
C1277 C 0.54478 0.02289 0.60269 0.0
C1278 C 0.46916 0.01916 0.5442 0.0
C1279 C 0.56767 1.00715 0.53791 0.0
H1280 H 0.50335 0.95256 0.4338 0.0
H1281 H 0.51249 0.03313 0.39965 0.0
H1282 H 0.52838 0.95791 0.53582 0.0
H1283 H 0.49374 0.96111 0.53824 0.0
H1284 H 0.50814 0.93803 0.50271 0.0
H1285 H 0.52325 0.06556 0.44716 0.0
H1286 H 0.5054 0.0604 0.49485 0.0
H1287 H 0.5398 0.05505 0.49367 0.0
H1288 H 0.48068 0.03396 0.62225 0.0
H1289 H 0.56362 0.02367 0.61774 0.0
H1290 H 0.46514 0.99927 0.53227 0.0
H1291 H 0.46847 0.0327 0.51725 0.0
H1292 H 0.45343 0.02461 0.56637 0.0
H1293 H 0.56613 0.98686 0.52618 0.0
H1294 H 0.58525 1.00868 0.55784 0.0
H1295 H 0.57027 0.02007 0.51046 0.0
C1296 C 0.11613 0.12018 0.84676 0.0
C1297 C 0.12131 0.09654 0.82662 0.0
C1298 C 0.13465 0.13135 0.87371 0.0
C1299 C 0.15849 0.11816 0.8814 0.0
C1300 C 0.16283 0.09337 0.86325 0.0
C1301 C 0.1444 0.0831 0.8356 0.0
C1302 C 0.12946 0.15802 0.8917 0.0
C1303 C 0.18756 0.07825 0.87132 0.0
C1304 C 0.2206 0.15636 0.90195 0.0
C1305 C 0.22337 0.15436 0.94537 0.0
C1306 C 0.19916 0.14549 0.88126 0.0
C1307 C 0.18019 0.13136 0.9041 0.0
C1308 C 0.18292 0.12881 0.94778 0.0
C1309 C 0.2043 0.14053 0.96794 0.0
C1310 C 0.19703 0.14888 0.83467 0.0
C1311 C 0.16344 0.11341 0.97312 0.0
H1312 H 0.09834 0.13064 0.83954 0.0
H1313 H 0.14829 0.06468 0.82025 0.0
H1314 H 0.13354 0.1582 0.92556 0.0
H1315 H 0.14271 0.17244 0.87686 0.0
H1316 H 0.10903 0.16442 0.8866 0.0
H1317 H 0.18639 0.05792 0.85952 0.0
H1318 H 0.2042 0.08811 0.85575 0.0
H1319 H 0.19182 0.07764 0.90513 0.0
H1320 H 0.23542 0.16621 0.88371 0.0
H1321 H 0.20593 0.13898 1.00144 0.0
H1322 H 0.17762 0.1569 0.82648 0.0
H1323 H 0.19891 0.12966 0.81915 0.0
H1324 H 0.21227 0.16211 0.82196 0.0
H1325 H 0.1436 0.12152 0.96879 0.0
H1326 H 0.1681 0.11348 1.00684 0.0
H1327 H 0.16298 0.09289 0.96214 0.0
C1328 C 0.59986 0.45988 0.17027 0.0
C1329 C 0.61017 0.4687 0.20826 0.0
C1330 C 0.61163 0.43959 0.14769 0.0
C1331 C 0.63484 0.42801 0.16256 0.0
C1332 C 0.64525 0.4364 0.2011 0.0
C1333 C 0.63274 0.45648 0.22358 0.0
C1334 C 0.59969 0.43129 0.1069 0.0
C1335 C 0.67014 0.42483 0.21785 0.0
C1336 C 0.65618 0.36516 0.10782 0.0
C1337 C 0.67209 0.37513 0.076 0.0
C1338 C 0.64453 0.38197 0.13732 0.0
C1339 C 0.6494 0.40923 0.13538 0.0
C1340 C 0.66659 0.41905 0.10458 0.0
C1341 C 0.67746 0.40199 0.07519 0.0
C1342 C 0.62608 0.37072 0.16927 0.0
C1343 C 0.67281 0.44782 0.10162 0.0
H1344 H 0.58293 0.46939 0.15714 0.0
H1345 H 0.64083 0.46271 0.25301 0.0
H1346 H 0.61262 0.43719 0.0808 0.0
H1347 H 0.5977 0.40974 0.10578 0.0
H1348 H 0.58019 0.44015 0.10184 0.0
H1349 H 0.67456 0.43178 0.24977 0.0
H1350 H 0.66891 0.40322 0.21829 0.0
H1351 H 0.68663 0.43019 0.19711 0.0
H1352 H 0.65197 0.34444 0.10863 0.0
H1353 H 0.69009 0.40983 0.05112 0.0
H1354 H 0.60595 0.37737 0.16248 0.0
H1355 H 0.63109 0.37785 0.20081 0.0
H1356 H 0.62633 0.34905 0.16946 0.0
H1357 H 0.6551 0.45876 0.09236 0.0
H1358 H 0.68845 0.45197 0.07855 0.0
H1359 H 0.67901 0.45538 0.13236 0.0
C1360 C 0.32482 0.85379 0.47961 0.0
C1361 C 0.30016 0.86558 0.47809 0.0
C1362 C 0.34683 0.86602 0.46203 0.0
C1363 C 0.34404 0.89037 0.44154 0.0
C1364 C 0.31922 0.90251 0.44044 0.0
C1365 C 0.29766 0.8901 0.45909 0.0
C1366 C 0.37299 0.85269 0.46486 0.0
C1367 C 0.31524 0.92823 0.41837 0.0
C1368 C 0.40247 0.93452 0.42031 0.0
C1369 C 0.40816 0.92893 0.37852 0.0
C1370 C 0.38225 0.92154 0.44158 0.0
C1371 C 0.36688 0.90289 0.42034 0.0
C1372 C 0.37284 0.89684 0.37834 0.0
C1373 C 0.39358 0.90968 0.35812 0.0
C1374 C 0.37703 0.92815 0.48659 0.0
C1375 C 0.35675 0.87739 0.35428 0.0
H1376 H 0.32685 0.83488 0.49442 0.0
H1377 H 0.27858 0.89912 0.45737 0.0
H1378 H 0.37994 0.84744 0.43325 0.0
H1379 H 0.38759 0.86617 0.47842 0.0
H1380 H 0.37222 0.83468 0.48412 0.0
H1381 H 0.2948 0.93523 0.42064 0.0
H1382 H 0.32827 0.94331 0.4317 0.0
H1383 H 0.32046 0.92619 0.385 0.0
H1384 H 0.41376 0.94924 0.43641 0.0
H1385 H 0.39773 0.90531 0.3258 0.0
H1386 H 0.37672 0.91009 0.50571 0.0
H1387 H 0.35759 0.93742 0.48963 0.0
H1388 H 0.39188 0.94165 0.49949 0.0
H1389 H 0.35672 0.85824 0.37043 0.0
H1390 H 0.36409 0.87458 0.32205 0.0
H1391 H 0.33623 0.88414 0.35276 0.0
C1392 C 0.8662 0.62618 0.56325 0.0
C1393 C 0.85381 0.64927 0.57592 0.0
C1394 C 0.87766 0.60913 0.59213 0.0
C1395 C 0.87661 0.61503 0.63513 0.0
C1396 C 0.86447 0.63851 0.64824 0.0
C1397 C 0.85334 0.65544 0.61846 0.0
C1398 C 0.89068 0.58457 0.57651 0.0
C1399 C 0.86281 0.64548 0.69375 0.0
C1400 C 0.88549 0.55491 0.70375 0.0
C1401 C 0.91233 0.55567 0.71209 0.0
C1402 C 0.87325 0.57494 0.68093 0.0
C1403 C 0.88815 0.59628 0.66585 0.0
C1404 C 0.91489 0.59794 0.67633 0.0
C1405 C 0.92659 0.57773 0.69936 0.0
C1406 C 0.84466 0.57243 0.67083 0.0
C1407 C 0.93156 0.62031 0.66112 0.0
H1408 H 0.86692 0.62131 0.53046 0.0
H1409 H 0.84376 0.67316 0.6286 0.0
H1410 H 0.91124 0.58394 0.58704 0.0
H1411 H 0.88072 0.56718 0.58967 0.0
H1412 H 0.89039 0.58313 0.54204 0.0
H1413 H 0.85345 0.66477 0.69885 0.0
H1414 H 0.85142 0.63039 0.71067 0.0
H1415 H 0.88258 0.64582 0.7076 0.0
H1416 H 0.87424 0.53797 0.71311 0.0
H1417 H 0.9472 0.57887 0.70635 0.0
H1418 H 0.84236 0.56808 0.63723 0.0
H1419 H 0.83436 0.59105 0.67709 0.0
H1420 H 0.83511 0.55662 0.68902 0.0
H1421 H 0.93408 0.61886 0.6269 0.0
H1422 H 0.95115 0.62034 0.67573 0.0
H1423 H 0.92193 0.63924 0.66764 0.0
C1424 C 0.79832 0.89174 0.09183 0.0
C1425 C 0.79731 0.86494 0.083 0.0
C1426 C 0.81942 0.90256 0.11377 0.0
C1427 C 0.84009 0.88624 0.1272 0.0
C1428 C 0.83991 0.8595 0.11616 0.0
C1429 C 0.81857 0.84921 0.09429 0.0
C1430 C 0.81879 0.93116 0.1248 0.0
C1431 C 0.86153 0.8414 0.12952 0.0
C1432 C 0.90137 0.91762 0.17315 0.0
C1433 C 0.89563 0.91688 0.21586 0.0
C1434 C 0.88367 0.90751 0.14371 0.0
C1435 C 0.85984 0.89628 0.15739 0.0
C1436 C 0.85445 0.89483 0.20055 0.0
C1437 C 0.87231 0.90512 0.22906 0.0
C1438 C 0.89016 0.9094 0.098 0.0
C1439 C 0.8295 0.88279 0.21675 0.0
H1440 H 0.78198 0.90406 0.08348 0.0
H1441 H 0.81822 0.82858 0.08692 0.0
H1442 H 0.8153 0.93331 0.15871 0.0
H1443 H 0.83781 0.94047 0.11765 0.0
H1444 H 0.80321 0.94181 0.10789 0.0
H1445 H 0.86025 0.82206 0.1141 0.0
H1446 H 0.88083 0.85012 0.12244 0.0
H1447 H 0.86049 0.83837 0.16368 0.0
H1448 H 0.91928 0.92675 0.16266 0.0
H1449 H 0.86779 0.90419 0.26201 0.0
H1450 H 0.87578 0.92217 0.08224 0.0
H1451 H 0.88883 0.88988 0.08331 0.0
H1452 H 0.90999 0.91741 0.09246 0.0
H1453 H 0.8125 0.89381 0.2047 0.0
H1454 H 0.82851 0.88267 0.25128 0.0
H1455 H 0.82769 0.86242 0.20554 0.0
C1456 C 0.41869 0.56052 0.87467 0.0
C1457 C 0.41294 0.55458 0.83297 0.0
C1458 C 0.40603 0.58086 0.89582 0.0
C1459 C 0.38646 0.59549 0.87541 0.0
C1460 C 0.38069 0.58999 0.83322 0.0
C1461 C 0.39407 0.56975 0.81245 0.0
C1462 C 0.41298 0.58602 0.94071 0.0
C1463 C 0.35977 0.60491 0.81043 0.0
C1464 C 0.33657 0.6224 0.95144 0.0
C1465 C 0.34484 0.6483 0.95651 0.0
C1466 C 0.34893 0.60559 0.92319 0.0
C1467 C 0.37057 0.61463 0.89983 0.0
C1468 C 0.37837 0.64112 0.90349 0.0
C1469 C 0.36521 0.65775 0.93153 0.0
C1470 C 0.33954 0.57774 0.91986 0.0
C1471 C 0.40151 0.65149 0.87957 0.0
H1472 H 0.43262 0.54872 0.89156 0.0
H1473 H 0.38957 0.56575 0.78019 0.0
H1474 H 0.41692 0.60709 0.94546 0.0
H1475 H 0.39632 0.58064 0.96108 0.0
H1476 H 0.43033 0.57474 0.95083 0.0
H1477 H 0.359 0.5998 0.77689 0.0
H1478 H 0.34051 0.60059 0.82465 0.0
H1479 H 0.36307 0.62622 0.81336 0.0
H1480 H 0.32057 0.61506 0.97023 0.0
H1481 H 0.3717 0.67773 0.93541 0.0
H1482 H 0.35434 0.56439 0.93326 0.0
H1483 H 0.33693 0.57225 0.88677 0.0
H1484 H 0.32081 0.57457 0.93657 0.0
H1485 H 0.4196 0.64254 0.89191 0.0
H1486 H 0.40324 0.67304 0.88201 0.0
H1487 H 0.40012 0.64609 0.84625 0.0
C1488 C 0.70416 0.14398 0.56296 0.0
C1489 C 0.72339 0.15724 0.58573 0.0
C1490 C 0.68311 0.13151 0.58313 0.0
C1491 C 0.68094 0.13268 0.62705 0.0
C1492 C 0.70012 0.14617 0.6501 0.0
C1493 C 0.72119 0.15785 0.62934 0.0
C1494 C 0.66337 0.11682 0.55753 0.0
C1495 C 0.69859 0.14806 0.69697 0.0
C1496 C 0.61794 0.11981 0.68694 0.0
C1497 C 0.62354 0.0957 0.70539 0.0
C1498 C 0.63591 0.13168 0.65955 0.0
C1499 C 0.65959 0.11873 0.6497 0.0
C1500 C 0.66425 0.09347 0.666 0.0
C1501 C 0.64639 0.08248 0.69415 0.0
C1502 C 0.63038 0.15881 0.64353 0.0
C1503 C 0.68882 0.07861 0.65558 0.0
H1504 H 0.70541 0.14348 0.52932 0.0
H1505 H 0.73618 0.16723 0.64762 0.0
H1506 H 0.6631 0.09599 0.56705 0.0
H1507 H 0.64356 0.12472 0.56325 0.0
H1508 H 0.66762 0.11795 0.52366 0.0
H1509 H 0.71399 0.16088 0.71002 0.0
H1510 H 0.6793 0.15578 0.7066 0.0
H1511 H 0.70067 0.12837 0.71095 0.0
H1512 H 0.60032 0.13007 0.69588 0.0
H1513 H 0.65058 0.06367 0.70815 0.0
H1514 H 0.63402 0.15997 0.60955 0.0
H1515 H 0.64376 0.17286 0.65874 0.0
H1516 H 0.61 0.16495 0.64993 0.0
H1517 H 0.69258 0.0791 0.62157 0.0
H1518 H 0.68777 0.05793 0.66588 0.0
H1519 H 0.7057 0.08794 0.67109 0.0
C1520 C 0.13971 0.46992 0.33698 0.0
C1521 C 0.11578 0.46594 0.31699 0.0
C1522 C 0.15276 0.44929 0.35701 0.0
C1523 C 0.14189 0.42385 0.35653 0.0
C1524 C 0.11803 0.41958 0.33549 0.0
C1525 C 0.10516 0.44069 0.31635 0.0
C1526 C 0.17794 0.45484 0.37949 0.0
C1527 C 0.10601 0.39273 0.33342 0.0
C1528 C 0.18883 0.36786 0.37881 0.0
C1529 C 0.1834 0.36214 0.42069 0.0
C1530 C 0.17496 0.38729 0.35726 0.0
C1531 C 0.15548 0.40183 0.37823 0.0
C1532 C 0.14965 0.39588 0.42038 0.0
C1533 C 0.16349 0.37595 0.44097 0.0
C1534 C 0.18147 0.39254 0.31216 0.0
C1535 C 0.1293 0.4111 0.44413 0.0
H1536 H 0.14785 0.48943 0.33815 0.0
H1537 H 0.08674 0.43744 0.30078 0.0
H1538 H 0.17588 0.44965 0.41288 0.0
H1539 H 0.19384 0.44263 0.36652 0.0
H1540 H 0.18379 0.47567 0.37712 0.0
H1541 H 0.08791 0.39245 0.31455 0.0
H1542 H 0.12012 0.37873 0.31978 0.0
H1543 H 0.1013 0.38574 0.36525 0.0
H1544 H 0.20404 0.35713 0.3628 0.0
H1545 H 0.15929 0.37177 0.47338 0.0
H1546 H 0.18962 0.41249 0.30879 0.0
H1547 H 0.16355 0.39165 0.293 0.0
H1548 H 0.19584 0.37837 0.29957 0.0
H1549 H 0.135 0.43197 0.44548 0.0
H1550 H 0.12667 0.40375 0.47642 0.0
H1551 H 0.11031 0.41009 0.42785 0.0
C1552 C 0.61365 0.60164 0.37233 0.0
C1553 C 0.61878 0.60665 0.33013 0.0
C1554 C 0.6308 0.61051 0.40362 0.0
C1555 C 0.65347 0.62482 0.3924 0.0
C1556 C 0.65819 0.63052 0.34992 0.0
C1557 C 0.64091 0.62139 0.31954 0.0
C1558 C 0.62501 0.60405 0.44851 0.0
C1559 C 0.68184 0.64596 0.33631 0.0
C1560 C 0.69179 0.67012 0.46291 0.0
C1561 C 0.71483 0.65587 0.46928 0.0
C1562 C 0.67073 0.65949 0.44072 0.0
C1563 C 0.67265 0.63393 0.42431 0.0
C1564 C 0.69505 0.61874 0.43339 0.0
C1565 C 0.71584 0.62986 0.45579 0.0
C1566 C 0.64724 0.67638 0.43226 0.0
C1567 C 0.69794 0.59138 0.41675 0.0
H1568 H 0.59668 0.5902 0.38083 0.0
H1569 H 0.64497 0.62564 0.28711 0.0
H1570 H 0.64043 0.59103 0.46089 0.0
H1571 H 0.62517 0.62206 0.46759 0.0
H1572 H 0.60585 0.59422 0.45241 0.0
H1573 H 0.68247 0.64912 0.30211 0.0
H1574 H 0.68198 0.66528 0.35183 0.0
H1575 H 0.69986 0.63558 0.34572 0.0
H1576 H 0.69061 0.69007 0.47392 0.0
H1577 H 0.73353 0.61869 0.46044 0.0
H1578 H 0.62897 0.66524 0.4374 0.0
H1579 H 0.64751 0.68272 0.39923 0.0
H1580 H 0.6469 0.69406 0.45222 0.0
H1581 H 0.67981 0.58003 0.42202 0.0
H1582 H 0.71448 0.58086 0.43138 0.0
H1583 H 0.70137 0.59221 0.38266 0.0
C1584 C 0.13235 0.96292 0.70858 0.0
C1585 C 0.10551 0.96348 0.71704 0.0
C1586 C 0.14368 0.94211 0.68639 0.0
C1587 C 0.12784 0.92123 0.67238 0.0
C1588 C 0.10112 0.92075 0.6836 0.0
C1589 C 0.0903 0.94184 0.70565 0.0
C1590 C 0.17224 0.94348 0.67527 0.0
C1591 C 0.08351 0.89884 0.66981 0.0
C1592 C 0.14696 0.89192 0.56815 0.0
C1593 C 0.15948 0.86863 0.57953 0.0
C1594 C 0.13633 0.90877 0.59801 0.0
C1595 C 0.13815 0.90237 0.64078 0.0
C1596 C 0.15011 0.87851 0.65263 0.0
C1597 C 0.1606 0.86185 0.62183 0.0
C1598 C 0.12358 0.9338 0.58367 0.0
C1599 C 0.15238 0.87092 0.69784 0.0
H1600 H 0.14428 0.97954 0.71704 0.0
H1601 H 0.06963 0.94183 0.71272 0.0
H1602 H 0.18185 0.92444 0.68108 0.0
H1603 H 0.17434 0.9479 0.6416 0.0
H1604 H 0.18259 0.95882 0.69315 0.0
H1605 H 0.06442 0.89922 0.6862 0.0
H1606 H 0.07991 0.90059 0.63589 0.0
H1607 H 0.09287 0.87964 0.67531 0.0
H1608 H 0.14571 0.89725 0.53555 0.0
H1609 H 0.1703 0.84396 0.63095 0.0
H1610 H 0.13417 0.95081 0.59661 0.0
H1611 H 0.10323 0.93477 0.59535 0.0
H1612 H 0.12327 0.93564 0.54923 0.0
H1613 H 0.16508 0.88508 0.71418 0.0
H1614 H 0.16068 0.85105 0.70188 0.0
H1615 H 0.13298 0.87163 0.71311 0.0
C1616 C 0.81673 0.3493 0.92106 0.0
C1617 C 0.80889 0.3592 0.95995 0.0
C1618 C 0.83691 0.36093 0.89797 0.0
C1619 C 0.84937 0.38356 0.91334 0.0
C1620 C 0.84211 0.39341 0.95288 0.0
C1621 C 0.82212 0.38104 0.97581 0.0
C1622 C 0.84407 0.34959 0.85612 0.0
C1623 C 0.8547 0.41766 0.97023 0.0
C1624 C 0.91148 0.40471 0.85636 0.0
C1625 C 0.90135 0.4217 0.8262 0.0
C1626 C 0.89499 0.39269 0.88596 0.0
C1627 C 0.86789 0.39822 0.88583 0.0
C1628 C 0.85791 0.41637 0.85668 0.0
C1629 C 0.87466 0.42763 0.82711 0.0
C1630 C 0.90636 0.37321 0.91611 0.0
C1631 C 0.8293 0.42328 0.85575 0.0
H1632 H 0.80646 0.33292 0.9076 0.0
H1633 H 0.81668 0.38875 1.00595 0.0
H1634 H 0.83792 0.36315 0.83106 0.0
H1635 H 0.8655 0.34717 0.85352 0.0
H1636 H 0.83468 0.33036 0.85068 0.0
H1637 H 0.84867 0.42149 1.00288 0.0
H1638 H 0.87624 0.41595 0.96899 0.0
H1639 H 0.84923 0.43476 0.95089 0.0
H1640 H 0.93208 0.40005 0.85581 0.0
H1641 H 0.86672 0.44106 0.80433 0.0
H1642 H 0.89902 0.35341 0.90861 0.0
H1643 H 0.90006 0.37771 0.94835 0.0
H1644 H 0.92799 0.37288 0.91494 0.0
H1645 H 0.81777 0.40596 0.8463 0.0
H1646 H 0.82506 0.43945 0.83371 0.0
H1647 H 0.82252 0.42906 0.88721 0.0
C1648 C 0.41427 0.07227 0.21347 0.0
C1649 C 0.40064 0.04864 0.21716 0.0
C1650 C 0.40276 0.09428 0.19477 0.0
C1651 C 0.37725 0.09244 0.17822 0.0
C1652 C 0.36344 0.06855 0.18189 0.0
C1653 C 0.37517 0.04706 0.20178 0.0
C1654 C 0.41793 0.11949 0.19266 0.0
C1655 C 0.33645 0.06552 0.16397 0.0
C1656 C 0.336 0.15319 0.15902 0.0
C1657 C 0.33963 0.15746 0.11625 0.0
C1658 C 0.34875 0.13267 0.17977 0.0
C1659 C 0.365 0.11544 0.15705 0.0
C1660 C 0.36897 0.11985 0.11389 0.0
C1661 C 0.35653 0.14101 0.09414 0.0
C1662 C 0.34453 0.12923 0.22597 0.0
C1663 C 0.38568 0.10169 0.08825 0.0
H1664 H 0.43396 0.07352 0.22543 0.0
H1665 H 0.36474 0.02871 0.20413 0.0
H1666 H 0.42137 0.12504 0.15972 0.0
H1667 H 0.4065 0.13546 0.20719 0.0
H1668 H 0.43705 0.11806 0.20859 0.0
H1669 H 0.32851 0.04555 0.1687 0.0
H1670 H 0.32296 0.07972 0.17858 0.0
H1671 H 0.33688 0.0698 0.13011 0.0
H1672 H 0.32308 0.16593 0.17634 0.0
H1673 H 0.35924 0.14404 0.06102 0.0
H1674 H 0.36356 0.12831 0.24221 0.0
H1675 H 0.33431 0.11052 0.23207 0.0
H1676 H 0.33282 0.14532 0.23963 0.0
H1677 H 0.40563 0.10072 0.1013 0.0
H1678 H 0.38702 0.10791 0.05518 0.0
H1679 H 0.37747 0.08167 0.08949 0.0
C1680 C 0.32037 0.37902 0.56762 0.0
C1681 C 0.30251 0.36294 0.58888 0.0
C1682 C 0.34135 0.39093 0.58856 0.0
C1683 C 0.34489 0.38636 0.63169 0.0
C1684 C 0.32726 0.36983 0.6531 0.0
C1685 C 0.30621 0.35874 0.63172 0.0
C1686 C 0.3594 0.40884 0.56477 0.0
C1687 C 0.33028 0.36425 0.69903 0.0
C1688 C 0.40833 0.39997 0.68961 0.0
C1689 C 0.40141 0.4221 0.71259 0.0
C1690 C 0.39058 0.38864 0.66148 0.0
C1691 C 0.36569 0.40018 0.6556 0.0
C1692 C 0.35952 0.42361 0.67671 0.0
C1693 C 0.37726 0.43402 0.70534 0.0
C1694 C 0.39778 0.36343 0.64022 0.0
C1695 C 0.33358 0.437 0.67077 0.0
H1696 H 0.31803 0.3823 0.53453 0.0
H1697 H 0.2923 0.34711 0.6491 0.0
H1698 H 0.35809 0.42887 0.57767 0.0
H1699 H 0.37988 0.40234 0.56839 0.0
H1700 H 0.35468 0.40962 0.53108 0.0
H1701 H 0.31633 0.34921 0.71029 0.0
H1702 H 0.35037 0.35748 0.70572 0.0
H1703 H 0.32702 0.3824 0.71707 0.0
H1704 H 0.42695 0.39067 0.69542 0.0
H1705 H 0.37199 0.45132 0.72285 0.0
H1706 H 0.39329 0.36446 0.60653 0.0
H1707 H 0.386 0.34728 0.65361 0.0
H1708 H 0.41874 0.35861 0.64408 0.0
H1709 H 0.32903 0.4389 0.63718 0.0
H1710 H 0.33317 0.45672 0.68507 0.0
H1711 H 0.31792 0.42507 0.68521 0.0
C1712 C 0.83555 0.15945 0.37303 0.0
C1713 C 0.83998 0.16424 0.41541 0.0
C1714 C 0.84842 0.13909 0.35208 0.0
C1715 C 0.86578 0.12267 0.37417 0.0
C1716 C 0.87062 0.12765 0.41685 0.0
C1717 C 0.85789 0.14851 0.43682 0.0
C1718 C 0.84313 0.1349 0.3064 0.0
C1719 C 0.88868 0.11045 0.44177 0.0
C1720 C 0.87785 0.05384 0.33327 0.0
C1721 C 0.90292 0.05605 0.31614 0.0
C1722 C 0.86551 0.07536 0.35202 0.0
C1723 C 0.87833 0.09988 0.35301 0.0
C1724 C 0.90331 0.1024 0.33451 0.0
C1725 C 0.9154 0.08043 0.31671 0.0
C1726 C 0.83906 0.07167 0.37187 0.0
C1727 C 0.91742 0.12825 0.334 0.0
H1728 H 0.82189 0.17163 0.35618 0.0
H1729 H 0.86133 0.15195 0.4696 0.0
H1730 H 0.86173 0.13452 0.28871 0.0
H1731 H 0.83353 0.11573 0.3018 0.0
H1732 H 0.83044 0.15034 0.29309 0.0
H1733 H 0.89061 0.11708 0.47451 0.0
H1734 H 0.88128 0.0901 0.44181 0.0
H1735 H 0.90831 0.11015 0.42724 0.0
H1736 H 0.86827 0.03498 0.33339 0.0
H1737 H 0.93472 0.08227 0.30329 0.0
H1738 H 0.82482 0.08541 0.35797 0.0
H1739 H 0.84017 0.07616 0.40558 0.0
H1740 H 0.83159 0.05147 0.36813 0.0
H1741 H 0.90489 0.1435 0.31985 0.0
H1742 H 0.93606 0.12732 0.31638 0.0
H1743 H 0.92168 0.13446 0.36631 0.0
C1744 C 0.1406 0.6193 0.2202 0.0
C1745 C 0.11755 0.60607 0.20986 0.0
C1746 C 0.15688 0.63009 0.18954 0.0
C1747 C 0.15017 0.62764 0.14703 0.0
C1748 C 0.12662 0.61484 0.13621 0.0
C1749 C 0.11052 0.60426 0.16778 0.0
C1750 C 0.1816 0.64375 0.20276 0.0
C1751 C 0.11874 0.61182 0.09131 0.0
C1752 C 0.18714 0.67606 0.07908 0.0
C1753 C 0.20913 0.66145 0.06732 0.0
C1754 C 0.16679 0.66481 0.10248 0.0
C1755 C 0.16835 0.63825 0.11455 0.0
C1756 C 0.18955 0.62294 0.10018 0.0
C1757 C 0.20964 0.63469 0.07678 0.0
C1758 C 0.14452 0.68188 0.11671 0.0
C1759 C 0.19202 0.59455 0.11209 0.0
H1760 H 0.14615 0.62107 0.25259 0.0
H1761 H 0.09281 0.59402 0.15943 0.0
H1762 H 0.19878 0.63352 0.18956 0.0
H1763 H 0.18186 0.66401 0.19053 0.0
H1764 H 0.18373 0.64449 0.23713 0.0
H1765 H 0.09926 0.60261 0.08806 0.0
H1766 H 0.11845 0.63114 0.07566 0.0
H1767 H 0.1333 0.59963 0.07474 0.0
H1768 H 0.18627 0.69662 0.07128 0.0
H1769 H 0.22654 0.62322 0.06812 0.0
H1770 H 0.14651 0.68584 0.15048 0.0
H1771 H 0.1256 0.67184 0.1121 0.0
H1772 H 0.14411 0.70085 0.09992 0.0
H1773 H 0.19692 0.59302 0.14561 0.0
H1774 H 0.20746 0.58448 0.09389 0.0
H1775 H 0.17327 0.58421 0.10734 0.0
C1776 C 0.62321 0.967 0.85879 0.0
C1777 C 0.61324 0.96534 0.81834 0.0
C1778 C 0.63631 0.94588 0.87712 0.0
C1779 C 0.63902 0.9222 0.85485 0.0
C1780 C 0.62889 0.92039 0.81392 0.0
C1781 C 0.61637 0.94214 0.79592 0.0
C1782 C 0.64734 0.94897 0.92035 0.0
C1783 C 0.63091 0.89538 0.78945 0.0
C1784 C 0.69328 0.8768 0.89061 0.0
C1785 C 0.68009 0.86001 0.91814 0.0
C1786 C 0.68007 0.89668 0.86911 0.0
C1787 C 0.65283 0.89963 0.87449 0.0
C1788 C 0.63921 0.88211 0.90099 0.0
C1789 C 0.65303 0.86271 0.92285 0.0
C1790 C 0.69548 0.91521 0.84195 0.0
C1791 C 0.61011 0.88425 0.90699 0.0
H1792 H 0.62084 0.98502 0.87604 0.0
H1793 H 0.60846 0.94083 0.76476 0.0
H1794 H 0.63812 0.9347 0.94181 0.0
H1795 H 0.66857 0.94485 0.92001 0.0
H1796 H 0.64423 0.9689 0.93297 0.0
H1797 H 0.6217 0.89699 0.75832 0.0
H1798 H 0.65166 0.88991 0.78527 0.0
H1799 H 0.62137 0.87928 0.80692 0.0
H1800 H 0.71419 0.875 0.88684 0.0
H1801 H 0.64265 0.84977 0.94385 0.0
H1802 H 0.69432 0.93522 0.85495 0.0
H1803 H 0.6871 0.91593 0.81022 0.0
H1804 H 0.71633 0.90957 0.83951 0.0
H1805 H 0.60539 0.90271 0.92332 0.0
H1806 H 0.60208 0.86772 0.92543 0.0
H1807 H 0.60019 0.88484 0.87637 0.0
loop_
_geom_bond_atom_site_label_1
_geom_bond_atom_site_label_2
_geom_bond_distance
_geom_bond_site_symmetry_2
_ccdc_geom_bond_type
C0 C1 1.351 . S
C0 N3 1.368 . S
C0 H5 0.931 . S
C1 C0 1.351 . S
C1 N2 1.373 . S
C1 H29 0.930 . S
N2 C1 1.373 . S
N2 C4 1.340 . S
N3 C0 1.368 . S
N3 C4 1.321 . S
N3 Co6 2.135 . S
C4 N2 1.340 . S
C4 N3 1.321 . S
C4 H28 0.930 . S
H5 C0 0.931 . S
Co6 N3 2.135 . S
Co6 N9 2.121 1_554 S
Co6 O14 2.055 . S
Co6 O17 2.039 . S
Co6 N20 2.140 1_554 S
C7 O8 1.227 . S
C7 O17 1.265 . S
O8 C7 1.227 . S
N9 Co6 2.121 1_556 S
N9 C11 1.375 . S
N9 C12 1.313 . S
C10 C11 1.338 . S
C10 N13 1.377 . S
C10 H30 0.930 . S
C11 N9 1.375 . S
C11 C10 1.338 . S
C11 H15 0.931 . S
C12 N9 1.313 . S
C12 N13 1.344 . S
C12 H16 0.930 . S
N13 C10 1.377 . S
N13 C12 1.344 . S
O14 Co6 2.055 . S
O14 C18 1.253 1_554 S
H15 C11 0.931 . S
H16 C12 0.930 . S
O17 Co6 2.039 . S
O17 C7 1.265 . S
C18 O14 1.253 1_556 S
C18 O19 1.227 . S
O19 C18 1.227 . S
N20 Co6 2.140 1_556 S
N20 C23 1.346 1_556 S
N20 C24 1.345 . S
C21 C22 1.370 1_556 S
C21 C25 1.391 . S
C22 C21 1.370 1_554 S
C22 C23 1.376 . S
C22 H31 0.940 . S
C23 N20 1.346 1_554 S
C23 C22 1.376 . S
C23 H26 0.928 . S
C24 N20 1.345 . S
C24 C25 1.371 . S
C24 H27 0.931 . S
C25 C21 1.391 . S
C25 C24 1.371 . S
C25 H32 0.930 . S
H26 C23 0.928 . S
H27 C24 0.931 . S
H28 C4 0.930 . S
H29 C1 0.930 . S
H30 C10 0.930 . S
H31 C22 0.940 . S
H32 C25 0.930 . S
C33 C34 1.351 . S
C33 N36 1.368 . S
C33 H38 0.931 . S
C34 C33 1.351 . S
C34 N35 1.373 . S
C34 H62 0.930 . S
N35 C34 1.373 . S
N35 C37 1.340 . S
N36 C33 1.368 . S
N36 C37 1.321 . S
N36 Co39 2.135 . S
C37 N35 1.340 . S
C37 N36 1.321 . S
C37 H61 0.930 . S
H38 C33 0.931 . S
Co39 N36 2.135 . S
Co39 N42 2.121 . S
Co39 O47 2.055 . S
Co39 O50 2.039 . S
Co39 N53 2.140 . S
C40 O41 1.227 . S
C40 O50 1.265 . S
O41 C40 1.227 . S
N42 Co39 2.121 . S
N42 C44 1.375 . S
N42 C45 1.313 . S
C43 C44 1.338 . S
C43 N46 1.377 . S
C43 H63 0.930 . S
C44 N42 1.375 . S
C44 C43 1.338 . S
C44 H48 0.931 . S
C45 N42 1.313 . S
C45 N46 1.344 . S
C45 H49 0.930 . S
N46 C43 1.377 . S
N46 C45 1.344 . S
O47 Co39 2.055 . S
O47 C51 1.253 . S
H48 C44 0.931 . S
H49 C45 0.930 . S
O50 Co39 2.039 . S
O50 C40 1.265 . S
C51 O47 1.253 . S
C51 O52 1.227 . S
O52 C51 1.227 . S
N53 Co39 2.140 . S
N53 C56 1.346 . S
N53 C57 1.345 . S
C54 C55 1.387 . S
C54 C58 1.391 . S
C55 C54 1.387 . S
C55 C56 1.369 . S
C55 H64 0.929 . S
C56 N53 1.346 . S
C56 C55 1.369 . S
C56 H59 0.928 . S
C57 N53 1.345 . S
C57 C58 1.371 . S
C57 H60 0.931 . S
C58 C54 1.391 . S
C58 C57 1.371 . S
C58 H65 0.930 . S
H59 C56 0.928 . S
H60 C57 0.931 . S
H61 C37 0.930 . S
H62 C34 0.930 . S
H63 C43 0.930 . S
H64 C55 0.929 . S
H65 C58 0.930 . S
C66 C67 1.351 . S
C66 N69 1.368 . S
C66 H71 0.931 . S
C67 C66 1.351 . S
C67 N68 1.373 . S
C67 H95 0.930 . S
N68 C67 1.373 . S
N68 C70 1.340 . S
N69 C66 1.368 . S
N69 C70 1.321 . S
N69 Co72 2.135 . S
C70 N68 1.340 . S
C70 N69 1.321 . S
C70 H94 0.930 . S
H71 C66 0.931 . S
Co72 N69 2.135 . S
Co72 N75 2.121 . S
Co72 O80 2.055 . S
Co72 O83 2.039 . S
Co72 N86 2.140 . S
C73 O74 1.227 . S
C73 O83 1.265 . S
O74 C73 1.227 . S
N75 Co72 2.121 . S
N75 C77 1.375 . S
N75 C78 1.313 . S
C76 C77 1.338 . S
C76 N79 1.377 . S
C76 H96 0.930 . S
C77 N75 1.375 . S
C77 C76 1.338 . S
C77 H81 0.931 . S
C78 N75 1.313 . S
C78 N79 1.344 . S
C78 H82 0.930 . S
N79 C76 1.377 . S
N79 C78 1.344 . S
O80 Co72 2.055 . S
O80 C84 1.253 . S
H81 C77 0.931 . S
H82 C78 0.930 . S
O83 Co72 2.039 . S
O83 C73 1.265 . S
C84 O80 1.253 . S
C84 O85 1.227 . S
O85 C84 1.227 . S
N86 Co72 2.140 . S
N86 C89 1.346 . S
N86 C90 1.345 . S
C87 C88 1.387 . S
C87 C91 1.391 . S
C88 C87 1.387 . S
C88 C89 1.369 . S
C88 H97 0.929 . S
C89 N86 1.346 . S
C89 C88 1.369 . S
C89 H92 0.928 . S
C90 N86 1.345 . S
C90 C91 1.371 . S
C90 H93 0.931 . S
C91 C87 1.391 . S
C91 C90 1.371 . S
C91 H98 0.930 . S
H92 C89 0.928 . S
H93 C90 0.931 . S
H94 C70 0.930 . S
H95 C67 0.930 . S
H96 C76 0.930 . S
H97 C88 0.929 . S
H98 C91 0.930 . S
C99 C100 1.351 . S
C99 N102 1.368 . S
C99 H104 0.931 . S
C100 C99 1.351 . S
C100 N101 1.373 . S
C100 H128 0.930 1_655 S
N101 C100 1.373 . S
N101 C103 1.340 . S
N102 C99 1.368 . S
N102 C103 1.321 . S
N102 Co105 2.135 . S
C103 N101 1.340 . S
C103 N102 1.321 . S
C103 H127 0.930 . S
H104 C99 0.931 . S
Co105 N102 2.135 . S
Co105 N108 2.121 . S
Co105 O113 2.055 . S
Co105 O116 2.039 . S
Co105 N119 2.140 . S
C106 O107 1.227 . S
C106 O116 1.265 . S
O107 C106 1.227 . S
N108 Co105 2.121 . S
N108 C110 1.375 . S
N108 C111 1.313 . S
C109 C110 1.338 . S
C109 N112 1.377 . S
C109 H129 0.930 . S
C110 N108 1.375 . S
C110 C109 1.338 . S
C110 H114 0.931 . S
C111 N108 1.313 . S
C111 N112 1.344 . S
C111 H115 0.930 . S
N112 C109 1.377 . S
N112 C111 1.344 . S
O113 Co105 2.055 . S
O113 C117 1.253 . S
H114 C110 0.931 . S
H115 C111 0.930 . S
O116 Co105 2.039 . S
O116 C106 1.265 . S
C117 O113 1.253 . S
C117 O118 1.227 . S
O118 C117 1.227 . S
N119 Co105 2.140 . S
N119 C122 1.346 . S
N119 C123 1.345 . S
C120 C121 1.387 . S
C120 C124 1.391 . S
C121 C120 1.387 . S
C121 C122 1.369 . S
C121 H130 0.929 . S
C122 N119 1.346 . S
C122 C121 1.369 . S
C122 H125 0.928 . S
C123 N119 1.345 . S
C123 C124 1.371 . S
C123 H126 0.931 . S
C124 C120 1.391 . S
C124 C123 1.371 . S
C124 H131 0.930 . S
H125 C122 0.928 . S
H126 C123 0.931 . S
H127 C103 0.930 . S
H128 C100 0.930 1_455 S
H129 C109 0.930 . S
H130 C121 0.929 . S
H131 C124 0.930 . S
C132 C133 1.351 . S
C132 N135 1.368 . S
C132 H137 0.931 . S
C133 C132 1.351 . S
C133 N134 1.373 . S
C133 H161 0.930 . S
N134 C133 1.373 . S
N134 C136 1.340 . S
N135 C132 1.368 . S
N135 C136 1.321 . S
N135 Co138 2.135 . S
C136 N134 1.340 . S
C136 N135 1.321 . S
C136 H160 0.930 . S
H137 C132 0.931 . S
Co138 N135 2.135 . S
Co138 N141 2.121 1_556 S
Co138 O146 2.055 . S
Co138 O149 2.039 . S
Co138 N152 2.140 1_556 S
C139 O140 1.227 . S
C139 O149 1.265 . S
O140 C139 1.227 . S
N141 Co138 2.121 1_554 S
N141 C143 1.375 . S
N141 C144 1.313 . S
C142 C143 1.338 . S
C142 N145 1.377 . S
C142 H162 0.930 . S
C143 N141 1.375 . S
C143 C142 1.338 . S
C143 H147 0.931 . S
C144 N141 1.313 . S
C144 N145 1.344 . S
C144 H148 0.930 . S
N145 C142 1.377 . S
N145 C144 1.344 . S
O146 Co138 2.055 . S
O146 C150 1.253 1_556 S
H147 C143 0.931 . S
H148 C144 0.930 . S
O149 Co138 2.039 . S
O149 C139 1.265 . S
C150 O146 1.253 1_554 S
C150 O151 1.227 . S
O151 C150 1.227 . S
N152 Co138 2.140 1_554 S
N152 C155 1.346 1_554 S
N152 C156 1.345 . S
C153 C154 1.370 1_554 S
C153 C157 1.391 . S
C154 C153 1.370 1_556 S
C154 C155 1.376 . S
C154 H163 0.940 . S
C155 N152 1.346 1_556 S
C155 C154 1.376 . S
C155 H158 0.928 . S
C156 N152 1.345 . S
C156 C157 1.371 . S
C156 H159 0.931 . S
C157 C153 1.391 . S
C157 C156 1.371 . S
C157 H164 0.930 . S
H158 C155 0.928 . S
H159 C156 0.931 . S
H160 C136 0.930 . S
H161 C133 0.930 . S
H162 C142 0.930 . S
H163 C154 0.940 . S
H164 C157 0.930 . S
C165 C166 1.351 . S
C165 N168 1.368 . S
C165 H170 0.931 . S
C166 C165 1.351 . S
C166 N167 1.373 . S
C166 H194 0.930 . S
N167 C166 1.373 . S
N167 C169 1.340 . S
N168 C165 1.368 . S
N168 C169 1.321 . S
N168 Co171 2.135 . S
C169 N167 1.340 . S
C169 N168 1.321 . S
C169 H193 0.930 . S
H170 C165 0.931 . S
Co171 N168 2.135 . S
Co171 N174 2.121 . S
Co171 O179 2.055 . S
Co171 O182 2.039 . S
Co171 N185 2.140 . S
C172 O173 1.227 . S
C172 O182 1.265 . S
O173 C172 1.227 . S
N174 Co171 2.121 . S
N174 C176 1.375 . S
N174 C177 1.313 . S
C175 C176 1.338 . S
C175 N178 1.377 . S
C175 H195 0.930 . S
C176 N174 1.375 . S
C176 C175 1.338 . S
C176 H180 0.931 . S
C177 N174 1.313 . S
C177 N178 1.344 . S
C177 H181 0.930 . S
N178 C175 1.377 . S
N178 C177 1.344 . S
O179 Co171 2.055 . S
O179 C183 1.253 . S
H180 C176 0.931 . S
H181 C177 0.930 . S
O182 Co171 2.039 . S
O182 C172 1.265 . S
C183 O179 1.253 . S
C183 O184 1.227 . S
O184 C183 1.227 . S
N185 Co171 2.140 . S
N185 C188 1.346 . S
N185 C189 1.345 . S
C186 C187 1.387 . S
C186 C190 1.391 . S
C187 C186 1.387 . S
C187 C188 1.369 . S
C187 H196 0.929 . S
C188 N185 1.346 . S
C188 C187 1.369 . S
C188 H191 0.928 . S
C189 N185 1.345 . S
C189 C190 1.371 . S
C189 H192 0.931 . S
C190 C186 1.391 . S
C190 C189 1.371 . S
C190 H197 0.930 . S
H191 C188 0.928 . S
H192 C189 0.931 . S
H193 C169 0.930 . S
H194 C166 0.930 . S
H195 C175 0.930 . S
H196 C187 0.929 . S
H197 C190 0.930 . S
C198 C199 1.351 . S
C198 N201 1.368 . S
C198 H203 0.931 . S
C199 C198 1.351 . S
C199 N200 1.373 . S
C199 H227 0.930 . S
N200 C199 1.373 . S
N200 C202 1.340 . S
N201 C198 1.368 . S
N201 C202 1.321 . S
N201 Co204 2.135 . S
C202 N200 1.340 . S
C202 N201 1.321 . S
C202 H226 0.930 . S
H203 C198 0.931 . S
Co204 N201 2.135 . S
Co204 N207 2.121 . S
Co204 O212 2.055 . S
Co204 O215 2.039 . S
Co204 N218 2.140 . S
C205 O206 1.227 . S
C205 O215 1.265 . S
O206 C205 1.227 . S
N207 Co204 2.121 . S
N207 C209 1.375 . S
N207 C210 1.313 . S
C208 C209 1.338 . S
C208 N211 1.377 . S
C208 H228 0.930 . S
C209 N207 1.375 . S
C209 C208 1.338 . S
C209 H213 0.931 . S
C210 N207 1.313 . S
C210 N211 1.344 . S
C210 H214 0.930 . S
N211 C208 1.377 . S
N211 C210 1.344 . S
O212 Co204 2.055 . S
O212 C216 1.253 . S
H213 C209 0.931 . S
H214 C210 0.930 . S
O215 Co204 2.039 . S
O215 C205 1.265 . S
C216 O212 1.253 . S
C216 O217 1.227 . S
O217 C216 1.227 . S
N218 Co204 2.140 . S
N218 C221 1.346 . S
N218 C222 1.345 . S
C219 C220 1.387 . S
C219 C223 1.391 . S
C220 C219 1.387 . S
C220 C221 1.369 . S
C220 H229 0.929 . S
C221 N218 1.346 . S
C221 C220 1.369 . S
C221 H224 0.928 . S
C222 N218 1.345 . S
C222 C223 1.371 . S
C222 H225 0.931 . S
C223 C219 1.391 . S
C223 C222 1.371 . S
C223 H230 0.930 . S
H224 C221 0.928 . S
H225 C222 0.931 . S
H226 C202 0.930 . S
H227 C199 0.930 . S
H228 C208 0.930 . S
H229 C220 0.929 . S
H230 C223 0.930 . S
C231 C232 1.351 . S
C231 N234 1.368 . S
C231 H236 0.931 . S
C232 C231 1.351 . S
C232 N233 1.373 . S
C232 H260 0.930 1_455 S
N233 C232 1.373 . S
N233 C235 1.340 . S
N234 C231 1.368 . S
N234 C235 1.321 . S
N234 Co237 2.135 . S
C235 N233 1.340 . S
C235 N234 1.321 . S
C235 H259 0.930 . S
H236 C231 0.931 . S
Co237 N234 2.135 . S
Co237 N240 2.121 . S
Co237 O245 2.055 . S
Co237 O248 2.039 . S
Co237 N251 2.140 . S
C238 O239 1.227 . S
C238 O248 1.265 . S
O239 C238 1.227 . S
N240 Co237 2.121 . S
N240 C242 1.375 . S
N240 C243 1.313 . S
C241 C242 1.338 . S
C241 N244 1.377 . S
C241 H261 0.930 . S
C242 N240 1.375 . S
C242 C241 1.338 . S
C242 H246 0.931 . S
C243 N240 1.313 . S
C243 N244 1.344 . S
C243 H247 0.930 . S
N244 C241 1.377 . S
N244 C243 1.344 . S
O245 Co237 2.055 . S
O245 C249 1.253 . S
H246 C242 0.931 . S
H247 C243 0.930 . S
O248 Co237 2.039 . S
O248 C238 1.265 . S
C249 O245 1.253 . S
C249 O250 1.227 . S
O250 C249 1.227 . S
N251 Co237 2.140 . S
N251 C254 1.346 . S
N251 C255 1.345 . S
C252 C253 1.387 . S
C252 C256 1.391 . S
C253 C252 1.387 . S
C253 C254 1.369 . S
C253 H262 0.929 . S
C254 N251 1.346 . S
C254 C253 1.369 . S
C254 H257 0.928 . S
C255 N251 1.345 . S
C255 C256 1.371 . S
C255 H258 0.931 . S
C256 C252 1.391 . S
C256 C255 1.371 . S
C256 H263 0.930 . S
H257 C254 0.928 . S
H258 C255 0.931 . S
H259 C235 0.930 . S
H260 C232 0.930 1_655 S
H261 C241 0.930 . S
H262 C253 0.929 . S
H263 C256 0.930 . S
C264 C265 1.351 . S
C264 N267 1.368 . S
C264 H269 0.931 . S
C265 C264 1.351 . S
C265 N266 1.373 . S
C265 H293 0.930 . S
N266 C265 1.373 . S
N266 C268 1.340 . S
N267 C264 1.368 . S
N267 C268 1.321 . S
N267 Co270 2.135 . S
C268 N266 1.340 . S
C268 N267 1.321 . S
C268 H292 0.930 . S
H269 C264 0.931 . S
Co270 N267 2.135 . S
Co270 N273 2.121 . S
Co270 O278 2.055 . S
Co270 O281 2.039 . S
Co270 N284 2.140 . S
C271 O272 1.227 . S
C271 O281 1.265 . S
O272 C271 1.227 . S
N273 Co270 2.121 . S
N273 C275 1.375 . S
N273 C276 1.313 . S
C274 C275 1.338 . S
C274 N277 1.377 . S
C274 H294 0.930 . S
C275 N273 1.375 . S
C275 C274 1.338 . S
C275 H279 0.931 . S
C276 N273 1.313 . S
C276 N277 1.344 . S
C276 H280 0.930 . S
N277 C274 1.377 . S
N277 C276 1.344 . S
O278 Co270 2.055 . S
O278 C282 1.253 . S
H279 C275 0.931 . S
H280 C276 0.930 . S
O281 Co270 2.039 . S
O281 C271 1.265 . S
C282 O278 1.253 . S
C282 O283 1.227 . S
O283 C282 1.227 . S
N284 Co270 2.140 . S
N284 C287 1.346 . S
N284 C288 1.345 . S
C285 C286 1.387 . S
C285 C289 1.391 . S
C286 C285 1.387 . S
C286 C287 1.369 . S
C286 H295 0.929 . S
C287 N284 1.346 . S
C287 C286 1.369 . S
C287 H290 0.928 . S
C288 N284 1.345 . S
C288 C289 1.371 . S
C288 H291 0.931 . S
C289 C285 1.391 . S
C289 C288 1.371 . S
C289 H296 0.930 . S
H290 C287 0.928 . S
H291 C288 0.931 . S
H292 C268 0.930 . S
H293 C265 0.930 . S
H294 C274 0.930 . S
H295 C286 0.929 . S
H296 C289 0.930 . S
C297 C298 1.351 . S
C297 N300 1.368 . S
C297 H302 0.931 . S
C298 C297 1.351 . S
C298 N299 1.373 . S
C298 H326 0.930 1_455 S
N299 C298 1.373 . S
N299 C301 1.340 . S
N300 C297 1.368 . S
N300 C301 1.321 . S
N300 Co303 2.135 . S
C301 N299 1.340 . S
C301 N300 1.321 . S
C301 H325 0.930 . S
H302 C297 0.931 . S
Co303 N300 2.135 . S
Co303 N306 2.121 . S
Co303 O311 2.055 . S
Co303 O314 2.039 . S
Co303 N317 2.140 . S
C304 O305 1.227 . S
C304 O314 1.265 . S
O305 C304 1.227 . S
N306 Co303 2.121 . S
N306 C308 1.375 . S
N306 C309 1.313 . S
C307 C308 1.338 . S
C307 N310 1.377 . S
C307 H327 0.930 . S
C308 N306 1.375 . S
C308 C307 1.338 . S
C308 H312 0.931 . S
C309 N306 1.313 . S
C309 N310 1.344 . S
C309 H313 0.930 . S
N310 C307 1.377 . S
N310 C309 1.344 . S
O311 Co303 2.055 . S
O311 C315 1.253 . S
H312 C308 0.931 . S
H313 C309 0.930 . S
O314 Co303 2.039 . S
O314 C304 1.265 . S
C315 O311 1.253 . S
C315 O316 1.227 . S
O316 C315 1.227 . S
N317 Co303 2.140 . S
N317 C320 1.346 . S
N317 C321 1.345 . S
C318 C319 1.387 . S
C318 C322 1.391 . S
C319 C318 1.387 . S
C319 C320 1.369 . S
C319 H328 0.929 1_545 S
C320 N317 1.346 . S
C320 C319 1.369 . S
C320 H323 0.928 . S
C321 N317 1.345 . S
C321 C322 1.371 . S
C321 H324 0.931 . S
C322 C318 1.391 . S
C322 C321 1.371 . S
C322 H329 0.930 . S
H323 C320 0.928 . S
H324 C321 0.931 . S
H325 C301 0.930 . S
H326 C298 0.930 1_655 S
H327 C307 0.930 . S
H328 C319 0.929 1_565 S
H329 C322 0.930 . S
C330 C331 1.351 . S
C330 N333 1.368 . S
C330 H335 0.931 . S
C331 C330 1.351 . S
C331 N332 1.373 . S
C331 H359 0.930 . S
N332 C331 1.373 . S
N332 C334 1.340 . S
N333 C330 1.368 . S
N333 C334 1.321 . S
N333 Co336 2.135 . S
C334 N332 1.340 . S
C334 N333 1.321 . S
C334 H358 0.930 . S
H335 C330 0.931 . S
Co336 N333 2.135 . S
Co336 N339 2.121 1_554 S
Co336 O344 2.055 . S
Co336 O347 2.039 . S
Co336 N350 2.140 1_554 S
C337 O338 1.227 . S
C337 O347 1.265 . S
O338 C337 1.227 . S
N339 Co336 2.121 1_556 S
N339 C341 1.375 . S
N339 C342 1.313 . S
C340 C341 1.338 . S
C340 N343 1.377 . S
C340 H360 0.930 . S
C341 N339 1.375 . S
C341 C340 1.338 . S
C341 H345 0.931 . S
C342 N339 1.313 . S
C342 N343 1.344 . S
C342 H346 0.930 . S
N343 C340 1.377 . S
N343 C342 1.344 . S
O344 Co336 2.055 . S
O344 C348 1.253 1_554 S
H345 C341 0.931 . S
H346 C342 0.930 . S
O347 Co336 2.039 . S
O347 C337 1.265 . S
C348 O344 1.253 1_556 S
C348 O349 1.227 . S
O349 C348 1.227 . S
N350 Co336 2.140 1_556 S
N350 C353 1.346 1_556 S
N350 C354 1.345 . S
C351 C352 1.370 1_556 S
C351 C355 1.391 . S
C352 C351 1.370 1_554 S
C352 C353 1.376 . S
C352 H361 0.940 . S
C353 N350 1.346 1_554 S
C353 C352 1.376 . S
C353 H356 0.928 . S
C354 N350 1.345 . S
C354 C355 1.371 . S
C354 H357 0.931 . S
C355 C351 1.391 . S
C355 C354 1.371 . S
C355 H362 0.930 . S
H356 C353 0.928 . S
H357 C354 0.931 . S
H358 C334 0.930 . S
H359 C331 0.930 . S
H360 C340 0.930 . S
H361 C352 0.940 . S
H362 C355 0.930 . S
C363 C364 1.351 . S
C363 N366 1.368 . S
C363 H368 0.931 . S
C364 C363 1.351 . S
C364 N365 1.373 . S
C364 H392 0.930 . S
N365 C364 1.373 . S
N365 C367 1.340 . S
N366 C363 1.368 . S
N366 C367 1.321 . S
N366 Co369 2.135 . S
C367 N365 1.340 . S
C367 N366 1.321 . S
C367 H391 0.930 . S
H368 C363 0.931 . S
Co369 N366 2.135 . S
Co369 N372 2.121 . S
Co369 O377 2.055 . S
Co369 O380 2.039 . S
Co369 N383 2.140 . S
C370 O371 1.227 . S
C370 O380 1.265 . S
O371 C370 1.227 . S
N372 Co369 2.121 . S
N372 C374 1.375 . S
N372 C375 1.313 . S
C373 C374 1.338 . S
C373 N376 1.377 . S
C373 H393 0.930 . S
C374 N372 1.375 . S
C374 C373 1.338 . S
C374 H378 0.931 . S
C375 N372 1.313 . S
C375 N376 1.344 . S
C375 H379 0.930 . S
N376 C373 1.377 . S
N376 C375 1.344 . S
O377 Co369 2.055 . S
O377 C381 1.253 . S
H378 C374 0.931 . S
H379 C375 0.930 . S
O380 Co369 2.039 . S
O380 C370 1.265 . S
C381 O377 1.253 . S
C381 O382 1.227 . S
O382 C381 1.227 . S
N383 Co369 2.140 . S
N383 C386 1.346 . S
N383 C387 1.345 . S
C384 C385 1.387 . S
C384 C388 1.391 . S
C385 C384 1.387 . S
C385 C386 1.369 . S
C385 H394 0.929 1_565 S
C386 N383 1.346 . S
C386 C385 1.369 . S
C386 H389 0.928 . S
C387 N383 1.345 . S
C387 C388 1.371 . S
C387 H390 0.931 . S
C388 C384 1.391 . S
C388 C387 1.371 . S
C388 H395 0.930 . S
H389 C386 0.928 . S
H390 C387 0.931 . S
H391 C367 0.930 . S
H392 C364 0.930 . S
H393 C373 0.930 . S
H394 C385 0.929 1_545 S
H395 C388 0.930 . S
C396 C397 1.351 . S
C396 N399 1.368 . S
C396 H401 0.931 . S
C397 C396 1.351 . S
C397 N398 1.373 . S
C397 H425 0.930 . S
N398 C397 1.373 . S
N398 C400 1.340 . S
N399 C396 1.368 . S
N399 C400 1.321 . S
N399 Co402 2.135 . S
C400 N398 1.340 . S
C400 N399 1.321 . S
C400 H424 0.930 . S
H401 C396 0.931 . S
Co402 N399 2.135 . S
Co402 N405 2.121 . S
Co402 O410 2.055 . S
Co402 O413 2.039 . S
Co402 N416 2.140 . S
C403 O404 1.227 . S
C403 O413 1.265 . S
O404 C403 1.227 . S
N405 Co402 2.121 . S
N405 C407 1.375 . S
N405 C408 1.313 . S
C406 C407 1.338 . S
C406 N409 1.377 . S
C406 H426 0.930 . S
C407 N405 1.375 . S
C407 C406 1.338 . S
C407 H411 0.931 . S
C408 N405 1.313 . S
C408 N409 1.344 . S
C408 H412 0.930 . S
N409 C406 1.377 . S
N409 C408 1.344 . S
O410 Co402 2.055 . S
O410 C414 1.253 . S
H411 C407 0.931 . S
H412 C408 0.930 . S
O413 Co402 2.039 . S
O413 C403 1.265 . S
C414 O410 1.253 . S
C414 O415 1.227 . S
O415 C414 1.227 . S
N416 Co402 2.140 . S
N416 C419 1.346 . S
N416 C420 1.345 . S
C417 C418 1.387 . S
C417 C421 1.391 . S
C418 C417 1.387 . S
C418 C419 1.369 . S
C418 H427 0.929 . S
C419 N416 1.346 . S
C419 C418 1.369 . S
C419 H422 0.928 . S
C420 N416 1.345 . S
C420 C421 1.371 . S
C420 H423 0.931 . S
C421 C417 1.391 . S
C421 C420 1.371 . S
C421 H428 0.930 . S
H422 C419 0.928 . S
H423 C420 0.931 . S
H424 C400 0.930 . S
H425 C397 0.930 . S
H426 C406 0.930 . S
H427 C418 0.929 . S
H428 C421 0.930 . S
C429 C430 1.351 . S
C429 N432 1.368 . S
C429 H434 0.931 . S
C430 C429 1.351 . S
C430 N431 1.373 . S
C430 H458 0.930 1_655 S
N431 C430 1.373 . S
N431 C433 1.340 . S
N432 C429 1.368 . S
N432 C433 1.321 . S
N432 Co435 2.135 . S
C433 N431 1.340 . S
C433 N432 1.321 . S
C433 H457 0.930 . S
H434 C429 0.931 . S
Co435 N432 2.135 . S
Co435 N438 2.121 . S
Co435 O443 2.055 . S
Co435 O446 2.039 . S
Co435 N449 2.140 . S
C436 O437 1.227 . S
C436 O446 1.265 . S
O437 C436 1.227 . S
N438 Co435 2.121 . S
N438 C440 1.375 . S
N438 C441 1.313 . S
C439 C440 1.338 . S
C439 N442 1.377 . S
C439 H459 0.930 . S
C440 N438 1.375 . S
C440 C439 1.338 . S
C440 H444 0.931 . S
C441 N438 1.313 . S
C441 N442 1.344 . S
C441 H445 0.930 . S
N442 C439 1.377 . S
N442 C441 1.344 . S
O443 Co435 2.055 . S
O443 C447 1.253 . S
H444 C440 0.931 . S
H445 C441 0.930 . S
O446 Co435 2.039 . S
O446 C436 1.265 . S
C447 O443 1.253 . S
C447 O448 1.227 . S
O448 C447 1.227 . S
N449 Co435 2.140 . S
N449 C452 1.346 . S
N449 C453 1.345 . S
C450 C451 1.387 . S
C450 C454 1.391 . S
C451 C450 1.387 . S
C451 C452 1.369 . S
C451 H460 0.929 1_565 S
C452 N449 1.346 . S
C452 C451 1.369 . S
C452 H455 0.928 . S
C453 N449 1.345 . S
C453 C454 1.371 . S
C453 H456 0.931 . S
C454 C450 1.391 . S
C454 C453 1.371 . S
C454 H461 0.930 . S
H455 C452 0.928 . S
H456 C453 0.931 . S
H457 C433 0.930 . S
H458 C430 0.930 1_455 S
H459 C439 0.930 . S
H460 C451 0.929 1_545 S
H461 C454 0.930 . S
C462 C463 1.351 . S
C462 N465 1.368 . S
C462 H467 0.931 . S
C463 C462 1.351 . S
C463 N464 1.373 . S
C463 H491 0.930 . S
N464 C463 1.373 . S
N464 C466 1.340 . S
N465 C462 1.368 . S
N465 C466 1.321 . S
N465 Co468 2.135 . S
C466 N464 1.340 . S
C466 N465 1.321 . S
C466 H490 0.930 . S
H467 C462 0.931 . S
Co468 N465 2.135 . S
Co468 N471 2.121 1_556 S
Co468 O476 2.055 . S
Co468 O479 2.039 . S
Co468 N482 2.140 1_556 S
C469 O470 1.227 . S
C469 O479 1.265 . S
O470 C469 1.227 . S
N471 Co468 2.121 1_554 S
N471 C473 1.375 . S
N471 C474 1.313 . S
C472 C473 1.338 . S
C472 N475 1.377 . S
C472 H492 0.930 . S
C473 N471 1.375 . S
C473 C472 1.338 . S
C473 H477 0.931 . S
C474 N471 1.313 . S
C474 N475 1.344 . S
C474 H478 0.930 . S
N475 C472 1.377 . S
N475 C474 1.344 . S
O476 Co468 2.055 . S
O476 C480 1.253 1_556 S
H477 C473 0.931 . S
H478 C474 0.930 . S
O479 Co468 2.039 . S
O479 C469 1.265 . S
C480 O476 1.253 1_554 S
C480 O481 1.227 . S
O481 C480 1.227 . S
N482 Co468 2.140 1_554 S
N482 C485 1.346 1_554 S
N482 C486 1.345 . S
C483 C484 1.370 1_554 S
C483 C487 1.391 . S
C484 C483 1.370 1_556 S
C484 C485 1.376 . S
C484 H493 0.940 . S
C485 N482 1.346 1_556 S
C485 C484 1.376 . S
C485 H488 0.928 . S
C486 N482 1.345 . S
C486 C487 1.371 . S
C486 H489 0.931 . S
C487 C483 1.391 . S
C487 C486 1.371 . S
C487 H494 0.930 . S
H488 C485 0.928 . S
H489 C486 0.931 . S
H490 C466 0.930 . S
H491 C463 0.930 . S
H492 C472 0.930 . S
H493 C484 0.940 . S
H494 C487 0.930 . S
C495 C496 1.351 . S
C495 N498 1.368 . S
C495 H500 0.931 . S
C496 C495 1.351 . S
C496 N497 1.373 . S
C496 H524 0.930 . S
N497 C496 1.373 . S
N497 C499 1.340 . S
N498 C495 1.368 . S
N498 C499 1.321 . S
N498 Co501 2.135 . S
C499 N497 1.340 . S
C499 N498 1.321 . S
C499 H523 0.930 . S
H500 C495 0.931 . S
Co501 N498 2.135 . S
Co501 N504 2.121 . S
Co501 O509 2.055 . S
Co501 O512 2.039 . S
Co501 N515 2.140 . S
C502 O503 1.227 . S
C502 O512 1.265 . S
O503 C502 1.227 . S
N504 Co501 2.121 . S
N504 C506 1.375 . S
N504 C507 1.313 . S
C505 C506 1.338 . S
C505 N508 1.377 . S
C505 H525 0.930 . S
C506 N504 1.375 . S
C506 C505 1.338 . S
C506 H510 0.931 . S
C507 N504 1.313 . S
C507 N508 1.344 . S
C507 H511 0.930 . S
N508 C505 1.377 . S
N508 C507 1.344 . S
O509 Co501 2.055 . S
O509 C513 1.253 . S
H510 C506 0.931 . S
H511 C507 0.930 . S
O512 Co501 2.039 . S
O512 C502 1.265 . S
C513 O509 1.253 . S
C513 O514 1.227 . S
O514 C513 1.227 . S
N515 Co501 2.140 . S
N515 C518 1.346 . S
N515 C519 1.345 . S
C516 C517 1.387 . S
C516 C520 1.391 . S
C517 C516 1.387 . S
C517 C518 1.369 . S
C517 H526 0.929 1_545 S
C518 N515 1.346 . S
C518 C517 1.369 . S
C518 H521 0.928 . S
C519 N515 1.345 . S
C519 C520 1.371 . S
C519 H522 0.931 . S
C520 C516 1.391 . S
C520 C519 1.371 . S
C520 H527 0.930 . S
H521 C518 0.928 . S
H522 C519 0.931 . S
H523 C499 0.930 . S
H524 C496 0.930 . S
H525 C505 0.930 . S
H526 C517 0.929 1_565 S
H527 C520 0.930 . S
C528 C529 1.391 . S
C528 C530 1.394 . S
C528 H544 0.931 . S
C529 C528 1.391 . S
C529 C533 1.376 . S
C530 C528 1.394 . S
C530 C531 1.369 . S
C530 C534 1.531 . S
C531 C530 1.369 . S
C531 C532 1.410 . S
C531 C539 1.503 . S
C532 C531 1.410 . S
C532 C533 1.392 . S
C532 C535 1.511 . S
C533 C529 1.376 . S
C533 C532 1.392 . S
C533 H545 0.929 . S
C534 C530 1.531 . S
C534 H546 0.960 . S
C534 H547 0.962 . S
C534 H548 0.960 . S
C535 C532 1.511 . S
C535 H549 0.961 . S
C535 H550 0.961 . S
C535 H551 0.961 . S
C536 C537 1.370 . S
C536 C538 1.363 . S
C536 H552 0.931 . S
C537 C536 1.370 . S
C537 C541 1.408 . S
C538 C536 1.363 . S
C538 C539 1.370 . S
C538 C542 1.524 . S
C539 C531 1.503 . S
C539 C538 1.370 . S
C539 C540 1.403 . S
C540 C539 1.403 . S
C540 C541 1.404 . S
C540 C543 1.539 . S
C541 C537 1.408 . S
C541 C540 1.404 . S
C541 H553 0.930 . S
C542 C538 1.524 . S
C542 H554 0.956 . S
C542 H555 0.961 . S
C542 H556 0.961 . S
C543 C540 1.539 . S
C543 H557 0.958 . S
C543 H558 0.961 . S
C543 H559 0.960 . S
H544 C528 0.931 . S
H545 C533 0.929 . S
H546 C534 0.960 . S
H547 C534 0.962 . S
H548 C534 0.960 . S
H549 C535 0.961 . S
H550 C535 0.961 . S
H551 C535 0.961 . S
H552 C536 0.931 . S
H553 C541 0.930 . S
H554 C542 0.956 . S
H555 C542 0.961 . S
H556 C542 0.961 . S
H557 C543 0.958 . S
H558 C543 0.961 . S
H559 C543 0.960 . S
C560 C561 1.391 . S
C560 C562 1.394 . S
C560 H576 0.931 . S
C561 C560 1.391 . S
C561 C565 1.376 . S
C562 C560 1.394 . S
C562 C563 1.369 . S
C562 C566 1.531 . S
C563 C562 1.369 . S
C563 C564 1.410 . S
C563 C571 1.503 . S
C564 C563 1.410 . S
C564 C565 1.392 . S
C564 C567 1.511 . S
C565 C561 1.376 . S
C565 C564 1.392 . S
C565 H577 0.929 . S
C566 C562 1.531 . S
C566 H578 0.960 . S
C566 H579 0.962 . S
C566 H580 0.960 . S
C567 C564 1.511 . S
C567 H581 0.961 . S
C567 H582 0.961 . S
C567 H583 0.961 . S
C568 C569 1.370 . S
C568 C570 1.363 . S
C568 H584 0.931 . S
C569 C568 1.370 . S
C569 C573 1.408 . S
C570 C568 1.363 . S
C570 C571 1.370 . S
C570 C574 1.524 . S
C571 C563 1.503 . S
C571 C570 1.370 . S
C571 C572 1.403 . S
C572 C571 1.403 . S
C572 C573 1.404 . S
C572 C575 1.539 . S
C573 C569 1.408 . S
C573 C572 1.404 . S
C573 H585 0.930 1_554 S
C574 C570 1.524 . S
C574 H586 0.956 . S
C574 H587 0.961 . S
C574 H588 0.961 . S
C575 C572 1.539 . S
C575 H589 0.958 . S
C575 H590 0.961 . S
C575 H591 0.960 . S
H576 C560 0.931 . S
H577 C565 0.929 . S
H578 C566 0.960 . S
H579 C566 0.962 . S
H580 C566 0.960 . S
H581 C567 0.961 . S
H582 C567 0.961 . S
H583 C567 0.961 . S
H584 C568 0.931 . S
H585 C573 0.930 1_556 S
H586 C574 0.956 . S
H587 C574 0.961 . S
H588 C574 0.961 . S
H589 C575 0.958 . S
H590 C575 0.961 . S
H591 C575 0.960 . S
C592 C593 1.391 . S
C592 C594 1.394 . S
C592 H608 0.931 . S
C593 C592 1.391 . S
C593 C597 1.376 . S
C594 C592 1.394 . S
C594 C595 1.369 . S
C594 C598 1.531 . S
C595 C594 1.369 . S
C595 C596 1.410 . S
C595 C603 1.503 . S
C596 C595 1.410 . S
C596 C597 1.392 . S
C596 C599 1.511 . S
C597 C593 1.376 . S
C597 C596 1.392 . S
C597 H609 0.929 . S
C598 C594 1.531 . S
C598 H610 0.960 . S
C598 H611 0.962 . S
C598 H612 0.960 . S
C599 C596 1.511 . S
C599 H613 0.961 . S
C599 H614 0.961 . S
C599 H615 0.961 . S
C600 C601 1.370 . S
C600 C602 1.363 . S
C600 H616 0.931 . S
C601 C600 1.370 . S
C601 C605 1.408 . S
C602 C600 1.363 . S
C602 C603 1.370 . S
C602 C606 1.524 . S
C603 C595 1.503 . S
C603 C602 1.370 . S
C603 C604 1.403 . S
C604 C603 1.403 . S
C604 C605 1.404 . S
C604 C607 1.539 . S
C605 C601 1.408 . S
C605 C604 1.404 . S
C605 H617 0.930 1_455 S
C606 C602 1.524 . S
C606 H618 0.956 . S
C606 H619 0.961 . S
C606 H620 0.961 . S
C607 C604 1.539 . S
C607 H621 0.958 . S
C607 H622 0.961 . S
C607 H623 0.960 . S
H608 C592 0.931 . S
H609 C597 0.929 . S
H610 C598 0.960 . S
H611 C598 0.962 . S
H612 C598 0.960 . S
H613 C599 0.961 . S
H614 C599 0.961 . S
H615 C599 0.961 . S
H616 C600 0.931 . S
H617 C605 0.930 1_655 S
H618 C606 0.956 . S
H619 C606 0.961 . S
H620 C606 0.961 . S
H621 C607 0.958 . S
H622 C607 0.961 . S
H623 C607 0.960 . S
C624 C625 1.391 . S
C624 C626 1.394 . S
C624 H640 0.931 . S
C625 C624 1.391 . S
C625 C629 1.376 . S
C626 C624 1.394 . S
C626 C627 1.369 . S
C626 C630 1.531 . S
C627 C626 1.369 . S
C627 C628 1.410 . S
C627 C635 1.503 . S
C628 C627 1.410 . S
C628 C629 1.392 . S
C628 C631 1.511 . S
C629 C625 1.376 . S
C629 C628 1.392 . S
C629 H641 0.929 . S
C630 C626 1.531 . S
C630 H642 0.960 . S
C630 H643 0.962 . S
C630 H644 0.960 . S
C631 C628 1.511 . S
C631 H645 0.961 . S
C631 H646 0.961 . S
C631 H647 0.961 . S
C632 C633 1.370 . S
C632 C634 1.363 . S
C632 H648 0.931 . S
C633 C632 1.370 . S
C633 C637 1.408 . S
C634 C632 1.363 . S
C634 C635 1.370 . S
C634 C638 1.524 . S
C635 C627 1.503 . S
C635 C634 1.370 . S
C635 C636 1.403 . S
C636 C635 1.403 . S
C636 C637 1.404 . S
C636 C639 1.539 . S
C637 C633 1.408 . S
C637 C636 1.404 . S
C637 H649 0.930 . S
C638 C634 1.524 . S
C638 H650 0.956 . S
C638 H651 0.961 . S
C638 H652 0.961 . S
C639 C636 1.539 . S
C639 H653 0.958 . S
C639 H654 0.961 . S
C639 H655 0.960 . S
H640 C624 0.931 . S
H641 C629 0.929 . S
H642 C630 0.960 . S
H643 C630 0.962 . S
H644 C630 0.960 . S
H645 C631 0.961 . S
H646 C631 0.961 . S
H647 C631 0.961 . S
H648 C632 0.931 . S
H649 C637 0.930 . S
H650 C638 0.956 . S
H651 C638 0.961 . S
H652 C638 0.961 . S
H653 C639 0.958 . S
H654 C639 0.961 . S
H655 C639 0.960 . S
C656 C657 1.391 . S
C656 C658 1.394 . S
C656 H672 0.931 . S
C657 C656 1.391 . S
C657 C661 1.376 . S
C658 C656 1.394 . S
C658 C659 1.369 . S
C658 C662 1.531 . S
C659 C658 1.369 . S
C659 C660 1.410 . S
C659 C667 1.503 . S
C660 C659 1.410 . S
C660 C661 1.392 . S
C660 C663 1.511 . S
C661 C657 1.376 . S
C661 C660 1.392 . S
C661 H673 0.929 . S
C662 C658 1.531 . S
C662 H674 0.960 . S
C662 H675 0.962 . S
C662 H676 0.960 . S
C663 C660 1.511 . S
C663 H677 0.961 . S
C663 H678 0.961 . S
C663 H679 0.961 . S
C664 C665 1.370 . S
C664 C666 1.363 . S
C664 H680 0.931 . S
C665 C664 1.370 . S
C665 C669 1.408 . S
C666 C664 1.363 . S
C666 C667 1.370 . S
C666 C670 1.524 . S
C667 C659 1.503 . S
C667 C666 1.370 . S
C667 C668 1.403 . S
C668 C667 1.403 . S
C668 C669 1.404 . S
C668 C671 1.539 . S
C669 C665 1.408 . S
C669 C668 1.404 . S
C669 H681 0.930 . S
C670 C666 1.524 . S
C670 H682 0.956 . S
C670 H683 0.961 . S
C670 H684 0.961 . S
C671 C668 1.539 . S
C671 H685 0.958 . S
C671 H686 0.961 . S
C671 H687 0.960 . S
H672 C656 0.931 . S
H673 C661 0.929 . S
H674 C662 0.960 . S
H675 C662 0.962 . S
H676 C662 0.960 . S
H677 C663 0.961 . S
H678 C663 0.961 . S
H679 C663 0.961 . S
H680 C664 0.931 . S
H681 C669 0.930 . S
H682 C670 0.956 . S
H683 C670 0.961 . S
H684 C670 0.961 . S
H685 C671 0.958 . S
H686 C671 0.961 . S
H687 C671 0.960 . S
C688 C689 1.391 . S
C688 C690 1.394 . S
C688 H704 0.931 . S
C689 C688 1.391 . S
C689 C693 1.376 . S
C690 C688 1.394 . S
C690 C691 1.369 . S
C690 C694 1.531 . S
C691 C690 1.369 . S
C691 C692 1.410 . S
C691 C699 1.503 . S
C692 C691 1.410 . S
C692 C693 1.392 . S
C692 C695 1.511 . S
C693 C689 1.376 . S
C693 C692 1.392 . S
C693 H705 0.929 . S
C694 C690 1.531 . S
C694 H706 0.960 . S
C694 H707 0.962 . S
C694 H708 0.960 . S
C695 C692 1.511 . S
C695 H709 0.961 . S
C695 H710 0.961 . S
C695 H711 0.961 . S
C696 C697 1.370 . S
C696 C698 1.363 . S
C696 H712 0.931 . S
C697 C696 1.370 . S
C697 C701 1.408 . S
C698 C696 1.363 . S
C698 C699 1.370 . S
C698 C702 1.524 . S
C699 C691 1.503 . S
C699 C698 1.370 . S
C699 C700 1.403 . S
C700 C699 1.403 . S
C700 C701 1.404 . S
C700 C703 1.539 . S
C701 C697 1.408 . S
C701 C700 1.404 . S
C701 H713 0.930 . S
C702 C698 1.524 . S
C702 H714 0.956 . S
C702 H715 0.961 . S
C702 H716 0.961 . S
C703 C700 1.539 . S
C703 H717 0.958 . S
C703 H718 0.961 . S
C703 H719 0.960 . S
H704 C688 0.931 . S
H705 C693 0.929 . S
H706 C694 0.960 . S
H707 C694 0.962 . S
H708 C694 0.960 . S
H709 C695 0.961 . S
H710 C695 0.961 . S
H711 C695 0.961 . S
H712 C696 0.931 . S
H713 C701 0.930 . S
H714 C702 0.956 . S
H715 C702 0.961 . S
H716 C702 0.961 . S
H717 C703 0.958 . S
H718 C703 0.961 . S
H719 C703 0.960 . S
C720 C721 1.391 . S
C720 C722 1.394 . S
C720 H736 0.931 . S
C721 C720 1.391 . S
C721 C725 1.376 . S
C722 C720 1.394 . S
C722 C723 1.369 . S
C722 C726 1.531 . S
C723 C722 1.369 . S
C723 C724 1.410 . S
C723 C731 1.503 . S
C724 C723 1.410 . S
C724 C725 1.392 . S
C724 C727 1.511 . S
C725 C721 1.376 . S
C725 C724 1.392 . S
C725 H737 0.929 . S
C726 C722 1.531 . S
C726 H738 0.960 . S
C726 H739 0.962 . S
C726 H740 0.960 . S
C727 C724 1.511 . S
C727 H741 0.961 . S
C727 H742 0.961 . S
C727 H743 0.961 . S
C728 C729 1.370 . S
C728 C730 1.363 . S
C728 H744 0.931 . S
C729 C728 1.370 . S
C729 C733 1.408 . S
C730 C728 1.363 . S
C730 C731 1.370 . S
C730 C734 1.524 . S
C731 C723 1.503 . S
C731 C730 1.370 . S
C731 C732 1.403 . S
C732 C731 1.403 . S
C732 C733 1.404 . S
C732 C735 1.539 . S
C733 C729 1.408 . S
C733 C732 1.404 . S
C733 H745 0.930 . S
C734 C730 1.524 . S
C734 H746 0.956 . S
C734 H747 0.961 . S
C734 H748 0.961 . S
C735 C732 1.539 . S
C735 H749 0.958 . S
C735 H750 0.961 . S
C735 H751 0.960 . S
H736 C720 0.931 . S
H737 C725 0.929 . S
H738 C726 0.960 . S
H739 C726 0.962 . S
H740 C726 0.960 . S
H741 C727 0.961 . S
H742 C727 0.961 . S
H743 C727 0.961 . S
H744 C728 0.931 . S
H745 C733 0.930 . S
H746 C734 0.956 . S
H747 C734 0.961 . S
H748 C734 0.961 . S
H749 C735 0.958 . S
H750 C735 0.961 . S
H751 C735 0.960 . S
C752 C753 1.391 . S
C752 C754 1.394 . S
C752 H768 0.931 . S
C753 C752 1.391 . S
C753 C757 1.376 . S
C754 C752 1.394 . S
C754 C755 1.369 . S
C754 C758 1.531 . S
C755 C754 1.369 . S
C755 C756 1.410 . S
C755 C763 1.503 . S
C756 C755 1.410 . S
C756 C757 1.392 . S
C756 C759 1.511 . S
C757 C753 1.376 . S
C757 C756 1.392 . S
C757 H769 0.929 . S
C758 C754 1.531 . S
C758 H770 0.960 . S
C758 H771 0.962 . S
C758 H772 0.960 . S
C759 C756 1.511 . S
C759 H773 0.961 . S
C759 H774 0.961 . S
C759 H775 0.961 . S
C760 C761 1.370 . S
C760 C762 1.363 . S
C760 H776 0.931 . S
C761 C760 1.370 . S
C761 C765 1.408 . S
C762 C760 1.363 . S
C762 C763 1.370 . S
C762 C766 1.524 . S
C763 C755 1.503 . S
C763 C762 1.370 . S
C763 C764 1.403 . S
C764 C763 1.403 . S
C764 C765 1.404 . S
C764 C767 1.539 . S
C765 C761 1.408 . S
C765 C764 1.404 . S
C765 H777 0.930 . S
C766 C762 1.524 . S
C766 H778 0.956 . S
C766 H779 0.961 . S
C766 H780 0.961 . S
C767 C764 1.539 . S
C767 H781 0.958 . S
C767 H782 0.961 . S
C767 H783 0.960 . S
H768 C752 0.931 . S
H769 C757 0.929 . S
H770 C758 0.960 . S
H771 C758 0.962 . S
H772 C758 0.960 . S
H773 C759 0.961 . S
H774 C759 0.961 . S
H775 C759 0.961 . S
H776 C760 0.931 . S
H777 C765 0.930 . S
H778 C766 0.956 . S
H779 C766 0.961 . S
H780 C766 0.961 . S
H781 C767 0.958 . S
H782 C767 0.961 . S
H783 C767 0.960 . S
C784 C785 1.391 . S
C784 C786 1.394 . S
C784 H800 0.931 . S
C785 C784 1.391 . S
C785 C789 1.376 . S
C786 C784 1.394 . S
C786 C787 1.369 . S
C786 C790 1.531 . S
C787 C786 1.369 . S
C787 C788 1.410 . S
C787 C795 1.503 . S
C788 C787 1.410 . S
C788 C789 1.392 . S
C788 C791 1.511 . S
C789 C785 1.376 . S
C789 C788 1.392 . S
C789 H801 0.929 . S
C790 C786 1.531 . S
C790 H802 0.960 . S
C790 H803 0.962 . S
C790 H804 0.960 . S
C791 C788 1.511 . S
C791 H805 0.961 . S
C791 H806 0.961 . S
C791 H807 0.961 . S
C792 C793 1.370 . S
C792 C794 1.363 . S
C792 H808 0.931 . S
C793 C792 1.370 . S
C793 C797 1.408 . S
C794 C792 1.363 . S
C794 C795 1.370 . S
C794 C798 1.524 . S
C795 C787 1.503 . S
C795 C794 1.370 . S
C795 C796 1.403 . S
C796 C795 1.403 . S
C796 C797 1.404 . S
C796 C799 1.539 . S
C797 C793 1.408 . S
C797 C796 1.404 . S
C797 H809 0.927 1_655 S
C798 C794 1.524 . S
C798 H810 0.956 . S
C798 H811 0.961 . S
C798 H812 0.961 . S
C799 C796 1.539 . S
C799 H813 0.958 . S
C799 H814 0.961 . S
C799 H815 0.960 . S
H800 C784 0.931 . S
H801 C789 0.929 . S
H802 C790 0.960 . S
H803 C790 0.962 . S
H804 C790 0.960 . S
H805 C791 0.961 . S
H806 C791 0.961 . S
H807 C791 0.961 . S
H808 C792 0.931 . S
H809 C797 0.927 1_455 S
H810 C798 0.956 . S
H811 C798 0.961 . S
H812 C798 0.961 . S
H813 C799 0.958 . S
H814 C799 0.961 . S
H815 C799 0.960 . S
C816 C817 1.391 . S
C816 C818 1.394 . S
C816 H832 0.931 . S
C817 C816 1.391 . S
C817 C821 1.376 . S
C818 C816 1.394 . S
C818 C819 1.369 . S
C818 C822 1.531 . S
C819 C818 1.369 . S
C819 C820 1.410 . S
C819 C827 1.503 . S
C820 C819 1.410 . S
C820 C821 1.392 . S
C820 C823 1.511 . S
C821 C817 1.376 . S
C821 C820 1.392 . S
C821 H833 0.929 . S
C822 C818 1.531 . S
C822 H834 0.960 . S
C822 H835 0.962 . S
C822 H836 0.960 . S
C823 C820 1.511 . S
C823 H837 0.961 . S
C823 H838 0.961 . S
C823 H839 0.961 . S
C824 C825 1.370 . S
C824 C826 1.363 . S
C824 H840 0.931 . S
C825 C824 1.370 . S
C825 C829 1.408 . S
C826 C824 1.363 . S
C826 C827 1.370 . S
C826 C830 1.524 . S
C827 C819 1.503 . S
C827 C826 1.370 . S
C827 C828 1.403 . S
C828 C827 1.403 . S
C828 C829 1.404 . S
C828 C831 1.539 . S
C829 C825 1.408 . S
C829 C828 1.404 . S
C829 H841 0.930 . S
C830 C826 1.524 . S
C830 H842 0.956 . S
C830 H843 0.961 . S
C830 H844 0.961 . S
C831 C828 1.539 . S
C831 H845 0.958 . S
C831 H846 0.961 . S
C831 H847 0.960 . S
H832 C816 0.931 . S
H833 C821 0.929 . S
H834 C822 0.960 . S
H835 C822 0.962 . S
H836 C822 0.960 . S
H837 C823 0.961 . S
H838 C823 0.961 . S
H839 C823 0.961 . S
H840 C824 0.931 . S
H841 C829 0.930 . S
H842 C830 0.956 . S
H843 C830 0.961 . S
H844 C830 0.961 . S
H845 C831 0.958 . S
H846 C831 0.961 . S
H847 C831 0.960 . S
C848 C849 1.391 . S
C848 C850 1.394 . S
C848 H864 0.931 . S
C849 C848 1.391 . S
C849 C853 1.376 . S
C850 C848 1.394 . S
C850 C851 1.369 . S
C850 C854 1.531 . S
C851 C850 1.369 . S
C851 C852 1.410 . S
C851 C859 1.503 . S
C852 C851 1.410 . S
C852 C853 1.392 . S
C852 C855 1.511 . S
C853 C849 1.376 . S
C853 C852 1.392 . S
C853 H865 0.929 . S
C854 C850 1.531 . S
C854 H866 0.960 . S
C854 H867 0.962 . S
C854 H868 0.960 . S
C855 C852 1.511 . S
C855 H869 0.961 . S
C855 H870 0.961 . S
C855 H871 0.961 . S
C856 C857 1.370 . S
C856 C858 1.363 . S
C856 H872 0.931 . S
C857 C856 1.370 . S
C857 C861 1.408 . S
C858 C856 1.363 . S
C858 C859 1.370 . S
C858 C862 1.524 . S
C859 C851 1.503 . S
C859 C858 1.370 . S
C859 C860 1.403 . S
C860 C859 1.403 . S
C860 C861 1.404 . S
C860 C863 1.539 . S
C861 C857 1.408 . S
C861 C860 1.404 . S
C861 H873 0.930 . S
C862 C858 1.524 . S
C862 H874 0.956 . S
C862 H875 0.961 . S
C862 H876 0.961 . S
C863 C860 1.539 . S
C863 H877 0.958 . S
C863 H878 0.961 . S
C863 H879 0.960 . S
H864 C848 0.931 . S
H865 C853 0.929 . S
H866 C854 0.960 . S
H867 C854 0.962 . S
H868 C854 0.960 . S
H869 C855 0.961 . S
H870 C855 0.961 . S
H871 C855 0.961 . S
H872 C856 0.931 . S
H873 C861 0.930 . S
H874 C862 0.956 . S
H875 C862 0.961 . S
H876 C862 0.961 . S
H877 C863 0.958 . S
H878 C863 0.961 . S
H879 C863 0.960 . S
C880 C881 1.391 . S
C880 C882 1.394 . S
C880 H896 0.931 . S
C881 C880 1.391 . S
C881 C885 1.376 . S
C882 C880 1.394 . S
C882 C883 1.369 . S
C882 C886 1.531 . S
C883 C882 1.369 . S
C883 C884 1.410 . S
C883 C891 1.503 . S
C884 C883 1.410 . S
C884 C885 1.392 . S
C884 C887 1.511 . S
C885 C881 1.376 . S
C885 C884 1.392 . S
C885 H897 0.929 . S
C886 C882 1.531 . S
C886 H898 0.960 . S
C886 H899 0.962 . S
C886 H900 0.960 . S
C887 C884 1.511 . S
C887 H901 0.961 . S
C887 H902 0.961 . S
C887 H903 0.961 . S
C888 C889 1.370 . S
C888 C890 1.363 . S
C888 H904 0.931 . S
C889 C888 1.370 . S
C889 C893 1.408 . S
C890 C888 1.363 . S
C890 C891 1.370 . S
C890 C894 1.524 . S
C891 C883 1.503 . S
C891 C890 1.370 . S
C891 C892 1.403 . S
C892 C891 1.403 . S
C892 C893 1.404 . S
C892 C895 1.539 . S
C893 C889 1.408 . S
C893 C892 1.404 . S
C893 H905 0.930 1_554 S
C894 C890 1.524 . S
C894 H906 0.956 . S
C894 H907 0.961 . S
C894 H908 0.961 . S
C895 C892 1.539 . S
C895 H909 0.958 1_554 S
C895 H910 0.961 1_554 S
C895 H911 0.960 . S
H896 C880 0.931 . S
H897 C885 0.929 . S
H898 C886 0.960 . S
H899 C886 0.962 . S
H900 C886 0.960 . S
H901 C887 0.961 . S
H902 C887 0.961 . S
H903 C887 0.961 . S
H904 C888 0.931 . S
H905 C893 0.930 1_556 S
H906 C894 0.956 . S
H907 C894 0.961 . S
H908 C894 0.961 . S
H909 C895 0.958 1_556 S
H910 C895 0.961 1_556 S
H911 C895 0.960 . S
C912 C913 1.391 . S
C912 C914 1.394 . S
C912 H928 0.931 . S
C913 C912 1.391 . S
C913 C917 1.376 . S
C914 C912 1.394 . S
C914 C915 1.369 . S
C914 C918 1.531 . S
C915 C914 1.369 . S
C915 C916 1.410 . S
C915 C923 1.503 . S
C916 C915 1.410 . S
C916 C917 1.392 . S
C916 C919 1.511 . S
C917 C913 1.376 . S
C917 C916 1.392 . S
C917 H929 0.929 . S
C918 C914 1.531 . S
C918 H930 0.960 . S
C918 H931 0.962 . S
C918 H932 0.960 . S
C919 C916 1.511 . S
C919 H933 0.961 . S
C919 H934 0.961 . S
C919 H935 0.961 . S
C920 C921 1.370 . S
C920 C922 1.363 . S
C920 H936 0.931 . S
C921 C920 1.370 . S
C921 C925 1.408 . S
C922 C920 1.363 . S
C922 C923 1.370 . S
C922 C926 1.524 . S
C923 C915 1.503 . S
C923 C922 1.370 . S
C923 C924 1.403 . S
C924 C923 1.403 . S
C924 C925 1.404 . S
C924 C927 1.539 . S
C925 C921 1.408 . S
C925 C924 1.404 . S
C925 H937 0.930 . S
C926 C922 1.524 . S
C926 H938 0.956 . S
C926 H939 0.961 . S
C926 H940 0.961 . S
C927 C924 1.539 . S
C927 H941 0.958 . S
C927 H942 0.961 . S
C927 H943 0.960 . S
H928 C912 0.931 . S
H929 C917 0.929 . S
H930 C918 0.960 . S
H931 C918 0.962 . S
H932 C918 0.960 . S
H933 C919 0.961 . S
H934 C919 0.961 . S
H935 C919 0.961 . S
H936 C920 0.931 . S
H937 C925 0.930 . S
H938 C926 0.956 . S
H939 C926 0.961 . S
H940 C926 0.961 . S
H941 C927 0.958 . S
H942 C927 0.961 . S
H943 C927 0.960 . S
C944 C945 1.391 . S
C944 C946 1.394 . S
C944 H960 0.931 . S
C945 C944 1.391 . S
C945 C949 1.376 . S
C946 C944 1.394 . S
C946 C947 1.369 . S
C946 C950 1.531 . S
C947 C946 1.369 . S
C947 C948 1.410 . S
C947 C955 1.503 . S
C948 C947 1.410 . S
C948 C949 1.392 . S
C948 C951 1.511 . S
C949 C945 1.376 . S
C949 C948 1.392 . S
C949 H961 0.929 . S
C950 C946 1.531 . S
C950 H962 0.960 . S
C950 H963 0.962 . S
C950 H964 0.960 . S
C951 C948 1.511 . S
C951 H965 0.961 . S
C951 H966 0.961 . S
C951 H967 0.961 . S
C952 C953 1.370 . S
C952 C954 1.363 . S
C952 H968 0.931 . S
C953 C952 1.370 . S
C953 C957 1.408 . S
C954 C952 1.363 . S
C954 C955 1.370 . S
C954 C958 1.524 . S
C955 C947 1.503 . S
C955 C954 1.370 . S
C955 C956 1.403 . S
C956 C955 1.403 . S
C956 C957 1.404 . S
C956 C959 1.539 . S
C957 C953 1.408 . S
C957 C956 1.404 . S
C957 H969 0.930 . S
C958 C954 1.524 . S
C958 H970 0.956 . S
C958 H971 0.961 . S
C958 H972 0.961 . S
C959 C956 1.539 . S
C959 H973 0.958 . S
C959 H974 0.961 . S
C959 H975 0.960 . S
H960 C944 0.931 . S
H961 C949 0.929 . S
H962 C950 0.960 . S
H963 C950 0.962 . S
H964 C950 0.960 . S
H965 C951 0.961 . S
H966 C951 0.961 . S
H967 C951 0.961 . S
H968 C952 0.931 . S
H969 C957 0.930 . S
H970 C958 0.956 . S
H971 C958 0.961 . S
H972 C958 0.961 . S
H973 C959 0.958 . S
H974 C959 0.961 . S
H975 C959 0.960 . S
C976 C977 1.391 . S
C976 C978 1.394 . S
C976 H992 0.931 . S
C977 C976 1.391 . S
C977 C981 1.376 . S
C978 C976 1.394 . S
C978 C979 1.369 . S
C978 C982 1.531 . S
C979 C978 1.369 . S
C979 C980 1.410 . S
C979 C987 1.503 . S
C980 C979 1.410 . S
C980 C981 1.392 . S
C980 C983 1.511 . S
C981 C977 1.376 . S
C981 C980 1.392 . S
C981 H993 0.929 . S
C982 C978 1.531 . S
C982 H994 0.960 . S
C982 H995 0.962 . S
C982 H996 0.960 . S
C983 C980 1.511 . S
C983 H997 0.961 . S
C983 H998 0.961 . S
C983 H999 0.961 . S
C984 C985 1.370 . S
C984 C986 1.363 . S
C984 H1000 0.931 . S
C985 C984 1.370 . S
C985 C989 1.408 . S
C986 C984 1.363 . S
C986 C987 1.370 . S
C986 C990 1.524 . S
C987 C979 1.503 . S
C987 C986 1.370 . S
C987 C988 1.403 . S
C988 C987 1.403 . S
C988 C989 1.404 . S
C988 C991 1.539 . S
C989 C985 1.408 . S
C989 C988 1.404 . S
C989 H1001 0.930 . S
C990 C986 1.524 . S
C990 H1002 0.956 . S
C990 H1003 0.961 . S
C990 H1004 0.961 . S
C991 C988 1.539 . S
C991 H1005 0.958 . S
C991 H1006 0.961 . S
C991 H1007 0.960 . S
H992 C976 0.931 . S
H993 C981 0.929 . S
H994 C982 0.960 . S
H995 C982 0.962 . S
H996 C982 0.960 . S
H997 C983 0.961 . S
H998 C983 0.961 . S
H999 C983 0.961 . S
H1000 C984 0.931 . S
H1001 C989 0.930 . S
H1002 C990 0.956 . S
H1003 C990 0.961 . S
H1004 C990 0.961 . S
H1005 C991 0.958 . S
H1006 C991 0.961 . S
H1007 C991 0.960 . S
C1008 C1009 1.391 . S
C1008 C1010 1.394 . S
C1008 H1024 0.931 . S
C1009 C1008 1.391 . S
C1009 C1013 1.376 . S
C1010 C1008 1.394 . S
C1010 C1011 1.369 . S
C1010 C1014 1.531 . S
C1011 C1010 1.369 . S
C1011 C1012 1.410 . S
C1011 C1019 1.503 . S
C1012 C1011 1.410 . S
C1012 C1013 1.392 . S
C1012 C1015 1.511 . S
C1013 C1009 1.376 . S
C1013 C1012 1.392 . S
C1013 H1025 0.929 . S
C1014 C1010 1.531 . S
C1014 H1026 0.960 . S
C1014 H1027 0.962 . S
C1014 H1028 0.960 . S
C1015 C1012 1.511 . S
C1015 H1029 0.961 . S
C1015 H1030 0.961 . S
C1015 H1031 0.961 . S
C1016 C1017 1.370 . S
C1016 C1018 1.363 . S
C1016 H1032 0.931 . S
C1017 C1016 1.370 . S
C1017 C1021 1.408 . S
C1018 C1016 1.363 . S
C1018 C1019 1.370 . S
C1018 C1022 1.524 . S
C1019 C1011 1.503 . S
C1019 C1018 1.370 . S
C1019 C1020 1.403 . S
C1020 C1019 1.403 . S
C1020 C1021 1.404 . S
C1020 C1023 1.539 . S
C1021 C1017 1.408 . S
C1021 C1020 1.404 . S
C1021 H1033 0.930 . S
C1022 C1018 1.524 . S
C1022 H1034 0.956 . S
C1022 H1035 0.961 . S
C1022 H1036 0.961 . S
C1023 C1020 1.539 . S
C1023 H1037 0.958 . S
C1023 H1038 0.961 . S
C1023 H1039 0.960 . S
H1024 C1008 0.931 . S
H1025 C1013 0.929 . S
H1026 C1014 0.960 . S
H1027 C1014 0.962 . S
H1028 C1014 0.960 . S
H1029 C1015 0.961 . S
H1030 C1015 0.961 . S
H1031 C1015 0.961 . S
H1032 C1016 0.931 . S
H1033 C1021 0.930 . S
H1034 C1022 0.956 . S
H1035 C1022 0.961 . S
H1036 C1022 0.961 . S
H1037 C1023 0.958 . S
H1038 C1023 0.961 . S
H1039 C1023 0.960 . S
C1040 C1041 1.391 . S
C1040 C1042 1.394 . S
C1040 H1056 0.931 . S
C1041 C1040 1.391 . S
C1041 C1045 1.376 . S
C1042 C1040 1.394 . S
C1042 C1043 1.369 . S
C1042 C1046 1.531 . S
C1043 C1042 1.369 . S
C1043 C1044 1.410 . S
C1043 C1051 1.503 . S
C1044 C1043 1.410 . S
C1044 C1045 1.392 . S
C1044 C1047 1.511 . S
C1045 C1041 1.376 . S
C1045 C1044 1.392 . S
C1045 H1057 0.929 . S
C1046 C1042 1.531 . S
C1046 H1058 0.960 . S
C1046 H1059 0.962 . S
C1046 H1060 0.960 . S
C1047 C1044 1.511 . S
C1047 H1061 0.961 . S
C1047 H1062 0.961 . S
C1047 H1063 0.961 . S
C1048 C1049 1.370 . S
C1048 C1050 1.363 . S
C1048 H1064 0.931 . S
C1049 C1048 1.370 . S
C1049 C1053 1.408 . S
C1050 C1048 1.363 . S
C1050 C1051 1.370 . S
C1050 C1054 1.524 . S
C1051 C1043 1.503 . S
C1051 C1050 1.370 . S
C1051 C1052 1.403 . S
C1052 C1051 1.403 . S
C1052 C1053 1.404 . S
C1052 C1055 1.539 . S
C1053 C1049 1.408 . S
C1053 C1052 1.404 . S
C1053 H1065 0.930 . S
C1054 C1050 1.524 . S
C1054 H1066 0.956 . S
C1054 H1067 0.961 . S
C1054 H1068 0.961 . S
C1055 C1052 1.539 . S
C1055 H1069 0.958 . S
C1055 H1070 0.961 . S
C1055 H1071 0.960 . S
H1056 C1040 0.931 . S
H1057 C1045 0.929 . S
H1058 C1046 0.960 . S
H1059 C1046 0.962 . S
H1060 C1046 0.960 . S
H1061 C1047 0.961 . S
H1062 C1047 0.961 . S
H1063 C1047 0.961 . S
H1064 C1048 0.931 . S
H1065 C1053 0.930 . S
H1066 C1054 0.956 . S
H1067 C1054 0.961 . S
H1068 C1054 0.961 . S
H1069 C1055 0.958 . S
H1070 C1055 0.961 . S
H1071 C1055 0.960 . S
C1072 C1073 1.391 . S
C1072 C1074 1.394 . S
C1072 H1088 0.931 . S
C1073 C1072 1.391 . S
C1073 C1077 1.376 . S
C1074 C1072 1.394 . S
C1074 C1075 1.369 . S
C1074 C1078 1.531 . S
C1075 C1074 1.369 . S
C1075 C1076 1.410 . S
C1075 C1083 1.503 . S
C1076 C1075 1.410 . S
C1076 C1077 1.392 . S
C1076 C1079 1.511 . S
C1077 C1073 1.376 . S
C1077 C1076 1.392 . S
C1077 H1089 0.929 . S
C1078 C1074 1.531 . S
C1078 H1090 0.960 . S
C1078 H1091 0.962 . S
C1078 H1092 0.960 . S
C1079 C1076 1.511 . S
C1079 H1093 0.961 . S
C1079 H1094 0.961 . S
C1079 H1095 0.961 . S
C1080 C1081 1.370 . S
C1080 C1082 1.363 . S
C1080 H1096 0.931 . S
C1081 C1080 1.370 . S
C1081 C1085 1.408 . S
C1082 C1080 1.363 . S
C1082 C1083 1.370 . S
C1082 C1086 1.524 . S
C1083 C1075 1.503 . S
C1083 C1082 1.370 . S
C1083 C1084 1.403 . S
C1084 C1083 1.403 . S
C1084 C1085 1.404 . S
C1084 C1087 1.539 . S
C1085 C1081 1.408 . S
C1085 C1084 1.404 . S
C1085 H1097 0.930 . S
C1086 C1082 1.524 . S
C1086 H1098 0.956 . S
C1086 H1099 0.961 . S
C1086 H1100 0.961 . S
C1087 C1084 1.539 . S
C1087 H1101 0.958 . S
C1087 H1102 0.961 . S
C1087 H1103 0.960 . S
H1088 C1072 0.931 . S
H1089 C1077 0.929 . S
H1090 C1078 0.960 . S
H1091 C1078 0.962 . S
H1092 C1078 0.960 . S
H1093 C1079 0.961 . S
H1094 C1079 0.961 . S
H1095 C1079 0.961 . S
H1096 C1080 0.931 . S
H1097 C1085 0.930 . S
H1098 C1086 0.956 . S
H1099 C1086 0.961 . S
H1100 C1086 0.961 . S
H1101 C1087 0.958 . S
H1102 C1087 0.961 . S
H1103 C1087 0.960 . S
C1104 C1105 1.391 . S
C1104 C1106 1.394 . S
C1104 H1120 0.931 . S
C1105 C1104 1.391 . S
C1105 C1109 1.376 . S
C1106 C1104 1.394 . S
C1106 C1107 1.369 . S
C1106 C1110 1.531 . S
C1107 C1106 1.369 . S
C1107 C1108 1.410 . S
C1107 C1115 1.503 . S
C1108 C1107 1.410 . S
C1108 C1109 1.392 . S
C1108 C1111 1.511 . S
C1109 C1105 1.376 . S
C1109 C1108 1.392 . S
C1109 H1121 0.929 . S
C1110 C1106 1.531 . S
C1110 H1122 0.960 . S
C1110 H1123 0.962 . S
C1110 H1124 0.960 . S
C1111 C1108 1.511 . S
C1111 H1125 0.961 . S
C1111 H1126 0.961 . S
C1111 H1127 0.961 . S
C1112 C1113 1.370 . S
C1112 C1114 1.363 . S
C1112 H1128 0.931 . S
C1113 C1112 1.370 . S
C1113 C1117 1.408 . S
C1114 C1112 1.363 . S
C1114 C1115 1.370 . S
C1114 C1118 1.524 . S
C1115 C1107 1.503 . S
C1115 C1114 1.370 . S
C1115 C1116 1.403 . S
C1116 C1115 1.403 . S
C1116 C1117 1.404 . S
C1116 C1119 1.539 . S
C1117 C1113 1.408 . S
C1117 C1116 1.404 . S
C1117 H1129 0.930 . S
C1118 C1114 1.524 . S
C1118 H1130 0.956 . S
C1118 H1131 0.961 . S
C1118 H1132 0.961 . S
C1119 C1116 1.539 . S
C1119 H1133 0.958 . S
C1119 H1134 0.961 . S
C1119 H1135 0.960 . S
H1120 C1104 0.931 . S
H1121 C1109 0.929 . S
H1122 C1110 0.960 . S
H1123 C1110 0.962 . S
H1124 C1110 0.960 . S
H1125 C1111 0.961 . S
H1126 C1111 0.961 . S
H1127 C1111 0.961 . S
H1128 C1112 0.931 . S
H1129 C1117 0.930 . S
H1130 C1118 0.956 . S
H1131 C1118 0.961 . S
H1132 C1118 0.961 . S
H1133 C1119 0.958 . S
H1134 C1119 0.961 . S
H1135 C1119 0.960 . S
C1136 C1137 1.391 . S
C1136 C1138 1.394 . S
C1136 H1152 0.931 . S
C1137 C1136 1.391 . S
C1137 C1141 1.376 . S
C1138 C1136 1.394 . S
C1138 C1139 1.370 1_655 S
C1138 C1142 1.531 1_556 S
C1139 C1138 1.370 1_455 S
C1139 C1140 1.409 . S
C1139 C1147 1.502 1_556 S
C1140 C1139 1.409 . S
C1140 C1141 1.392 1_455 S
C1140 C1143 1.511 . S
C1141 C1137 1.376 . S
C1141 C1140 1.392 1_655 S
C1141 H1153 0.929 . S
C1142 C1138 1.531 1_554 S
C1142 H1154 0.960 1_655 S
C1142 H1155 0.962 . S
C1142 H1156 0.960 . S
C1143 C1140 1.511 . S
C1143 H1157 0.961 . S
C1143 H1158 0.961 . S
C1143 H1159 0.961 . S
C1144 C1145 1.391 . S
C1144 C1146 1.357 1_455 S
C1144 H1160 0.917 1_455 S
C1145 C1144 1.391 . S
C1145 C1149 1.408 . S
C1146 C1144 1.357 1_655 S
C1146 C1147 1.370 1_655 S
C1146 C1150 1.524 . S
C1147 C1139 1.502 1_554 S
C1147 C1146 1.370 1_455 S
C1147 C1148 1.403 . S
C1148 C1147 1.403 . S
C1148 C1149 1.404 . S
C1148 C1151 1.539 . S
C1149 C1145 1.408 . S
C1149 C1148 1.404 . S
C1149 H1161 0.930 . S
C1150 C1146 1.524 . S
C1150 H1162 0.956 . S
C1150 H1163 0.961 . S
C1150 H1164 0.961 . S
C1151 C1148 1.539 . S
C1151 H1165 0.958 . S
C1151 H1166 0.961 . S
C1151 H1167 0.960 1_554 S
H1152 C1136 0.931 . S
H1153 C1141 0.929 . S
H1154 C1142 0.960 1_455 S
H1155 C1142 0.962 . S
H1156 C1142 0.960 . S
H1157 C1143 0.961 . S
H1158 C1143 0.961 . S
H1159 C1143 0.961 . S
H1160 C1144 0.917 1_655 S
H1161 C1149 0.930 . S
H1162 C1150 0.956 . S
H1163 C1150 0.961 . S
H1164 C1150 0.961 . S
H1165 C1151 0.958 . S
H1166 C1151 0.961 . S
H1167 C1151 0.960 1_556 S
C1168 C1169 1.391 . S
C1168 C1170 1.394 . S
C1168 H1184 0.931 . S
C1169 C1168 1.391 . S
C1169 C1173 1.376 . S
C1170 C1168 1.394 . S
C1170 C1171 1.369 . S
C1170 C1174 1.531 . S
C1171 C1170 1.369 . S
C1171 C1172 1.410 . S
C1171 C1179 1.503 . S
C1172 C1171 1.410 . S
C1172 C1173 1.392 . S
C1172 C1175 1.511 . S
C1173 C1169 1.376 . S
C1173 C1172 1.392 . S
C1173 H1185 0.929 . S
C1174 C1170 1.531 . S
C1174 H1186 0.960 . S
C1174 H1187 0.962 . S
C1174 H1188 0.960 . S
C1175 C1172 1.511 . S
C1175 H1189 0.961 . S
C1175 H1190 0.961 . S
C1175 H1191 0.961 . S
C1176 C1177 1.370 . S
C1176 C1178 1.363 . S
C1176 H1192 0.931 . S
C1177 C1176 1.370 . S
C1177 C1181 1.408 . S
C1178 C1176 1.363 . S
C1178 C1179 1.370 . S
C1178 C1182 1.524 . S
C1179 C1171 1.503 . S
C1179 C1178 1.370 . S
C1179 C1180 1.403 . S
C1180 C1179 1.403 . S
C1180 C1181 1.404 . S
C1180 C1183 1.539 . S
C1181 C1177 1.408 . S
C1181 C1180 1.404 . S
C1181 H1193 0.930 . S
C1182 C1178 1.524 . S
C1182 H1194 0.956 . S
C1182 H1195 0.961 . S
C1182 H1196 0.961 . S
C1183 C1180 1.539 . S
C1183 H1197 0.958 . S
C1183 H1198 0.961 . S
C1183 H1199 0.960 . S
H1184 C1168 0.931 . S
H1185 C1173 0.929 . S
H1186 C1174 0.960 . S
H1187 C1174 0.962 . S
H1188 C1174 0.960 . S
H1189 C1175 0.961 . S
H1190 C1175 0.961 . S
H1191 C1175 0.961 . S
H1192 C1176 0.931 . S
H1193 C1181 0.930 . S
H1194 C1182 0.956 . S
H1195 C1182 0.961 . S
H1196 C1182 0.961 . S
H1197 C1183 0.958 . S
H1198 C1183 0.961 . S
H1199 C1183 0.960 . S
C1200 C1201 1.391 . S
C1200 C1202 1.394 . S
C1200 H1216 0.931 . S
C1201 C1200 1.391 . S
C1201 C1205 1.376 . S
C1202 C1200 1.394 . S
C1202 C1203 1.369 . S
C1202 C1206 1.531 . S
C1203 C1202 1.369 . S
C1203 C1204 1.410 . S
C1203 C1211 1.503 . S
C1204 C1203 1.410 . S
C1204 C1205 1.392 . S
C1204 C1207 1.511 . S
C1205 C1201 1.376 . S
C1205 C1204 1.392 . S
C1205 H1217 0.929 . S
C1206 C1202 1.531 . S
C1206 H1218 0.960 . S
C1206 H1219 0.962 . S
C1206 H1220 0.960 . S
C1207 C1204 1.511 . S
C1207 H1221 0.961 . S
C1207 H1222 0.961 . S
C1207 H1223 0.961 . S
C1208 C1209 1.370 . S
C1208 C1210 1.363 . S
C1208 H1224 0.931 . S
C1209 C1208 1.370 . S
C1209 C1213 1.408 . S
C1210 C1208 1.363 . S
C1210 C1211 1.370 . S
C1210 C1214 1.524 . S
C1211 C1203 1.503 . S
C1211 C1210 1.370 . S
C1211 C1212 1.403 . S
C1212 C1211 1.403 . S
C1212 C1213 1.404 . S
C1212 C1215 1.539 . S
C1213 C1209 1.408 . S
C1213 C1212 1.404 . S
C1213 H1225 0.930 . S
C1214 C1210 1.524 . S
C1214 H1226 0.956 . S
C1214 H1227 0.961 . S
C1214 H1228 0.961 . S
C1215 C1212 1.539 . S
C1215 H1229 0.958 . S
C1215 H1230 0.961 . S
C1215 H1231 0.960 . S
H1216 C1200 0.931 . S
H1217 C1205 0.929 . S
H1218 C1206 0.960 . S
H1219 C1206 0.962 . S
H1220 C1206 0.960 . S
H1221 C1207 0.961 . S
H1222 C1207 0.961 . S
H1223 C1207 0.961 . S
H1224 C1208 0.931 . S
H1225 C1213 0.930 . S
H1226 C1214 0.956 . S
H1227 C1214 0.961 . S
H1228 C1214 0.961 . S
H1229 C1215 0.958 . S
H1230 C1215 0.961 . S
H1231 C1215 0.960 . S
C1232 C1233 1.391 . S
C1232 C1234 1.394 1_565 S
C1232 H1248 0.931 1_565 S
C1233 C1232 1.391 . S
C1233 C1237 1.376 1_655 S
C1234 C1232 1.394 1_545 S
C1234 C1235 1.375 . S
C1234 C1238 1.531 . S
C1235 C1234 1.375 . S
C1235 C1236 1.396 1_645 S
C1235 C1243 1.510 1_654 S
C1236 C1235 1.396 1_465 S
C1236 C1237 1.392 . S
C1236 C1239 1.511 . S
C1237 C1233 1.376 1_455 S
C1237 C1236 1.392 . S
C1237 H1249 0.929 . S
C1238 C1234 1.531 . S
C1238 H1250 0.960 1_554 S
C1238 H1251 0.962 1_554 S
C1238 H1252 0.960 . S
C1239 C1236 1.511 . S
C1239 H1253 0.961 . S
C1239 H1254 0.961 . S
C1239 H1255 0.961 . S
C1240 C1241 1.373 1_565 S
C1240 C1242 1.362 . S
C1240 H1256 0.929 . S
C1241 C1240 1.373 1_545 S
C1241 C1245 1.408 . S
C1242 C1240 1.362 . S
C1242 C1243 1.370 1_565 S
C1242 C1246 1.524 1_455 S
C1243 C1235 1.510 1_456 S
C1243 C1242 1.370 1_545 S
C1243 C1244 1.403 . S
C1244 C1243 1.403 . S
C1244 C1245 1.404 . S
C1244 C1247 1.539 1_556 S
C1245 C1241 1.408 . S
C1245 C1244 1.404 . S
C1245 H1257 0.930 . S
C1246 C1242 1.524 1_655 S
C1246 H1258 0.956 . S
C1246 H1259 0.961 . S
C1246 H1260 0.961 . S
C1247 C1244 1.539 1_554 S
C1247 H1261 0.958 . S
C1247 H1262 0.961 . S
C1247 H1263 0.960 . S
H1248 C1232 0.931 1_545 S
H1249 C1237 0.929 . S
H1250 C1238 0.960 1_556 S
H1251 C1238 0.962 1_556 S
H1252 C1238 0.960 . S
H1253 C1239 0.961 . S
H1254 C1239 0.961 . S
H1255 C1239 0.961 . S
H1256 C1240 0.929 . S
H1257 C1245 0.930 . S
H1258 C1246 0.956 . S
H1259 C1246 0.961 . S
H1260 C1246 0.961 . S
H1261 C1247 0.958 . S
H1262 C1247 0.961 . S
H1263 C1247 0.960 . S
C1264 C1265 1.391 . S
C1264 C1266 1.394 . S
C1264 H1280 0.931 . S
C1265 C1264 1.391 . S
C1265 C1269 1.376 . S
C1266 C1264 1.394 . S
C1266 C1267 1.369 . S
C1266 C1270 1.531 . S
C1267 C1266 1.369 . S
C1267 C1268 1.410 1_565 S
C1267 C1275 1.503 1_565 S
C1268 C1267 1.410 1_545 S
C1268 C1269 1.392 1_545 S
C1268 C1271 1.511 . S
C1269 C1265 1.376 . S
C1269 C1268 1.392 1_565 S
C1269 H1281 0.929 1_565 S
C1270 C1266 1.531 . S
C1270 H1282 0.960 . S
C1270 H1283 0.962 . S
C1270 H1284 0.960 . S
C1271 C1268 1.511 . S
C1271 H1285 0.961 . S
C1271 H1286 0.961 . S
C1271 H1287 0.961 . S
C1272 C1273 1.370 . S
C1272 C1274 1.363 . S
C1272 H1288 0.931 . S
C1273 C1272 1.370 . S
C1273 C1277 1.408 . S
C1274 C1272 1.363 . S
C1274 C1275 1.370 . S
C1274 C1278 1.524 . S
C1275 C1267 1.503 1_545 S
C1275 C1274 1.370 . S
C1275 C1276 1.403 1_545 S
C1276 C1275 1.403 1_565 S
C1276 C1277 1.404 1_565 S
C1276 C1279 1.539 . S
C1277 C1273 1.408 . S
C1277 C1276 1.404 1_545 S
C1277 H1289 0.930 1_545 S
C1278 C1274 1.524 . S
C1278 H1290 0.956 . S
C1278 H1291 0.961 . S
C1278 H1292 0.961 . S
C1279 C1276 1.539 . S
C1279 H1293 0.958 . S
C1279 H1294 0.961 . S
C1279 H1295 0.960 . S
H1280 C1264 0.931 . S
H1281 C1269 0.929 1_545 S
H1282 C1270 0.960 . S
H1283 C1270 0.962 . S
H1284 C1270 0.960 . S
H1285 C1271 0.961 . S
H1286 C1271 0.961 . S
H1287 C1271 0.961 . S
H1288 C1272 0.931 . S
H1289 C1277 0.930 1_565 S
H1290 C1278 0.956 . S
H1291 C1278 0.961 . S
H1292 C1278 0.961 . S
H1293 C1279 0.958 . S
H1294 C1279 0.961 . S
H1295 C1279 0.960 . S
C1296 C1297 1.391 . S
C1296 C1298 1.394 . S
C1296 H1312 0.931 . S
C1297 C1296 1.391 . S
C1297 C1301 1.376 . S
C1298 C1296 1.394 . S
C1298 C1299 1.369 . S
C1298 C1302 1.531 . S
C1299 C1298 1.369 . S
C1299 C1300 1.410 . S
C1299 C1307 1.503 . S
C1300 C1299 1.410 . S
C1300 C1301 1.392 . S
C1300 C1303 1.511 . S
C1301 C1297 1.376 . S
C1301 C1300 1.392 . S
C1301 H1313 0.929 . S
C1302 C1298 1.531 . S
C1302 H1314 0.960 . S
C1302 H1315 0.962 . S
C1302 H1316 0.960 . S
C1303 C1300 1.511 . S
C1303 H1317 0.961 . S
C1303 H1318 0.961 . S
C1303 H1319 0.961 . S
C1304 C1305 1.370 . S
C1304 C1306 1.363 . S
C1304 H1320 0.931 . S
C1305 C1304 1.370 . S
C1305 C1309 1.408 . S
C1306 C1304 1.363 . S
C1306 C1307 1.370 . S
C1306 C1310 1.524 . S
C1307 C1299 1.503 . S
C1307 C1306 1.370 . S
C1307 C1308 1.403 . S
C1308 C1307 1.403 . S
C1308 C1309 1.404 . S
C1308 C1311 1.539 . S
C1309 C1305 1.408 . S
C1309 C1308 1.404 . S
C1309 H1321 0.930 . S
C1310 C1306 1.524 . S
C1310 H1322 0.956 . S
C1310 H1323 0.961 . S
C1310 H1324 0.961 . S
C1311 C1308 1.539 . S
C1311 H1325 0.958 . S
C1311 H1326 0.961 1_556 S
C1311 H1327 0.960 . S
H1312 C1296 0.931 . S
H1313 C1301 0.929 . S
H1314 C1302 0.960 . S
H1315 C1302 0.962 . S
H1316 C1302 0.960 . S
H1317 C1303 0.961 . S
H1318 C1303 0.961 . S
H1319 C1303 0.961 . S
H1320 C1304 0.931 . S
H1321 C1309 0.930 . S
H1322 C1310 0.956 . S
H1323 C1310 0.961 . S
H1324 C1310 0.961 . S
H1325 C1311 0.958 . S
H1326 C1311 0.961 1_554 S
H1327 C1311 0.960 . S
C1328 C1329 1.391 . S
C1328 C1330 1.394 . S
C1328 H1344 0.931 . S
C1329 C1328 1.391 . S
C1329 C1333 1.376 . S
C1330 C1328 1.394 . S
C1330 C1331 1.369 . S
C1330 C1334 1.531 . S
C1331 C1330 1.369 . S
C1331 C1332 1.410 . S
C1331 C1339 1.503 . S
C1332 C1331 1.410 . S
C1332 C1333 1.392 . S
C1332 C1335 1.511 . S
C1333 C1329 1.376 . S
C1333 C1332 1.392 . S
C1333 H1345 0.929 . S
C1334 C1330 1.531 . S
C1334 H1346 0.960 . S
C1334 H1347 0.962 . S
C1334 H1348 0.960 . S
C1335 C1332 1.511 . S
C1335 H1349 0.961 . S
C1335 H1350 0.961 . S
C1335 H1351 0.961 . S
C1336 C1337 1.370 . S
C1336 C1338 1.363 . S
C1336 H1352 0.931 . S
C1337 C1336 1.370 . S
C1337 C1341 1.408 . S
C1338 C1336 1.363 . S
C1338 C1339 1.370 . S
C1338 C1342 1.524 . S
C1339 C1331 1.503 . S
C1339 C1338 1.370 . S
C1339 C1340 1.403 . S
C1340 C1339 1.403 . S
C1340 C1341 1.404 . S
C1340 C1343 1.539 . S
C1341 C1337 1.408 . S
C1341 C1340 1.404 . S
C1341 H1353 0.930 . S
C1342 C1338 1.524 . S
C1342 H1354 0.956 . S
C1342 H1355 0.961 . S
C1342 H1356 0.961 . S
C1343 C1340 1.539 . S
C1343 H1357 0.958 . S
C1343 H1358 0.961 . S
C1343 H1359 0.960 . S
H1344 C1328 0.931 . S
H1345 C1333 0.929 . S
H1346 C1334 0.960 . S
H1347 C1334 0.962 . S
H1348 C1334 0.960 . S
H1349 C1335 0.961 . S
H1350 C1335 0.961 . S
H1351 C1335 0.961 . S
H1352 C1336 0.931 . S
H1353 C1341 0.930 . S
H1354 C1342 0.956 . S
H1355 C1342 0.961 . S
H1356 C1342 0.961 . S
H1357 C1343 0.958 . S
H1358 C1343 0.961 . S
H1359 C1343 0.960 . S
C1360 C1361 1.391 . S
C1360 C1362 1.394 . S
C1360 H1376 0.931 . S
C1361 C1360 1.391 . S
C1361 C1365 1.376 . S
C1362 C1360 1.394 . S
C1362 C1363 1.369 . S
C1362 C1366 1.531 . S
C1363 C1362 1.369 . S
C1363 C1364 1.410 . S
C1363 C1371 1.503 . S
C1364 C1363 1.410 . S
C1364 C1365 1.392 . S
C1364 C1367 1.511 . S
C1365 C1361 1.376 . S
C1365 C1364 1.392 . S
C1365 H1377 0.929 . S
C1366 C1362 1.531 . S
C1366 H1378 0.960 . S
C1366 H1379 0.962 . S
C1366 H1380 0.960 . S
C1367 C1364 1.511 . S
C1367 H1381 0.961 . S
C1367 H1382 0.961 . S
C1367 H1383 0.961 . S
C1368 C1369 1.370 . S
C1368 C1370 1.363 . S
C1368 H1384 0.931 . S
C1369 C1368 1.370 . S
C1369 C1373 1.408 . S
C1370 C1368 1.363 . S
C1370 C1371 1.370 . S
C1370 C1374 1.524 . S
C1371 C1363 1.503 . S
C1371 C1370 1.370 . S
C1371 C1372 1.403 . S
C1372 C1371 1.403 . S
C1372 C1373 1.404 . S
C1372 C1375 1.539 . S
C1373 C1369 1.408 . S
C1373 C1372 1.404 . S
C1373 H1385 0.930 . S
C1374 C1370 1.524 . S
C1374 H1386 0.956 . S
C1374 H1387 0.961 . S
C1374 H1388 0.961 . S
C1375 C1372 1.539 . S
C1375 H1389 0.958 . S
C1375 H1390 0.961 . S
C1375 H1391 0.960 . S
H1376 C1360 0.931 . S
H1377 C1365 0.929 . S
H1378 C1366 0.960 . S
H1379 C1366 0.962 . S
H1380 C1366 0.960 . S
H1381 C1367 0.961 . S
H1382 C1367 0.961 . S
H1383 C1367 0.961 . S
H1384 C1368 0.931 . S
H1385 C1373 0.930 . S
H1386 C1374 0.956 . S
H1387 C1374 0.961 . S
H1388 C1374 0.961 . S
H1389 C1375 0.958 . S
H1390 C1375 0.961 . S
H1391 C1375 0.960 . S
C1392 C1393 1.391 . S
C1392 C1394 1.394 . S
C1392 H1408 0.931 . S
C1393 C1392 1.391 . S
C1393 C1397 1.376 . S
C1394 C1392 1.394 . S
C1394 C1395 1.369 . S
C1394 C1398 1.531 . S
C1395 C1394 1.369 . S
C1395 C1396 1.410 . S
C1395 C1403 1.503 . S
C1396 C1395 1.410 . S
C1396 C1397 1.392 . S
C1396 C1399 1.511 . S
C1397 C1393 1.376 . S
C1397 C1396 1.392 . S
C1397 H1409 0.929 . S
C1398 C1394 1.531 . S
C1398 H1410 0.960 . S
C1398 H1411 0.962 . S
C1398 H1412 0.960 . S
C1399 C1396 1.511 . S
C1399 H1413 0.961 . S
C1399 H1414 0.961 . S
C1399 H1415 0.961 . S
C1400 C1401 1.370 . S
C1400 C1402 1.363 . S
C1400 H1416 0.931 . S
C1401 C1400 1.370 . S
C1401 C1405 1.408 . S
C1402 C1400 1.363 . S
C1402 C1403 1.370 . S
C1402 C1406 1.524 . S
C1403 C1395 1.503 . S
C1403 C1402 1.370 . S
C1403 C1404 1.403 . S
C1404 C1403 1.403 . S
C1404 C1405 1.404 . S
C1404 C1407 1.539 . S
C1405 C1401 1.408 . S
C1405 C1404 1.404 . S
C1405 H1417 0.930 . S
C1406 C1402 1.524 . S
C1406 H1418 0.956 . S
C1406 H1419 0.961 . S
C1406 H1420 0.961 . S
C1407 C1404 1.539 . S
C1407 H1421 0.958 . S
C1407 H1422 0.961 . S
C1407 H1423 0.960 . S
H1408 C1392 0.931 . S
H1409 C1397 0.929 . S
H1410 C1398 0.960 . S
H1411 C1398 0.962 . S
H1412 C1398 0.960 . S
H1413 C1399 0.961 . S
H1414 C1399 0.961 . S
H1415 C1399 0.961 . S
H1416 C1400 0.931 . S
H1417 C1405 0.930 . S
H1418 C1406 0.956 . S
H1419 C1406 0.961 . S
H1420 C1406 0.961 . S
H1421 C1407 0.958 . S
H1422 C1407 0.961 . S
H1423 C1407 0.960 . S
C1424 C1425 1.391 . S
C1424 C1426 1.394 . S
C1424 H1440 0.931 . S
C1425 C1424 1.391 . S
C1425 C1429 1.376 . S
C1426 C1424 1.394 . S
C1426 C1427 1.369 . S
C1426 C1430 1.531 . S
C1427 C1426 1.369 . S
C1427 C1428 1.410 . S
C1427 C1435 1.503 . S
C1428 C1427 1.410 . S
C1428 C1429 1.392 . S
C1428 C1431 1.511 . S
C1429 C1425 1.376 . S
C1429 C1428 1.392 . S
C1429 H1441 0.929 . S
C1430 C1426 1.531 . S
C1430 H1442 0.960 . S
C1430 H1443 0.962 . S
C1430 H1444 0.960 . S
C1431 C1428 1.511 . S
C1431 H1445 0.961 . S
C1431 H1446 0.961 . S
C1431 H1447 0.961 . S
C1432 C1433 1.370 . S
C1432 C1434 1.363 . S
C1432 H1448 0.931 . S
C1433 C1432 1.370 . S
C1433 C1437 1.408 . S
C1434 C1432 1.363 . S
C1434 C1435 1.370 . S
C1434 C1438 1.524 . S
C1435 C1427 1.503 . S
C1435 C1434 1.370 . S
C1435 C1436 1.403 . S
C1436 C1435 1.403 . S
C1436 C1437 1.404 . S
C1436 C1439 1.539 . S
C1437 C1433 1.408 . S
C1437 C1436 1.404 . S
C1437 H1449 0.930 . S
C1438 C1434 1.524 . S
C1438 H1450 0.956 . S
C1438 H1451 0.961 . S
C1438 H1452 0.961 . S
C1439 C1436 1.539 . S
C1439 H1453 0.958 . S
C1439 H1454 0.961 . S
C1439 H1455 0.960 . S
H1440 C1424 0.931 . S
H1441 C1429 0.929 . S
H1442 C1430 0.960 . S
H1443 C1430 0.962 . S
H1444 C1430 0.960 . S
H1445 C1431 0.961 . S
H1446 C1431 0.961 . S
H1447 C1431 0.961 . S
H1448 C1432 0.931 . S
H1449 C1437 0.930 . S
H1450 C1438 0.956 . S
H1451 C1438 0.961 . S
H1452 C1438 0.961 . S
H1453 C1439 0.958 . S
H1454 C1439 0.961 . S
H1455 C1439 0.960 . S
C1456 C1457 1.391 . S
C1456 C1458 1.394 . S
C1456 H1472 0.931 . S
C1457 C1456 1.391 . S
C1457 C1461 1.376 . S
C1458 C1456 1.394 . S
C1458 C1459 1.369 . S
C1458 C1462 1.531 . S
C1459 C1458 1.369 . S
C1459 C1460 1.410 . S
C1459 C1467 1.503 . S
C1460 C1459 1.410 . S
C1460 C1461 1.392 . S
C1460 C1463 1.511 . S
C1461 C1457 1.376 . S
C1461 C1460 1.392 . S
C1461 H1473 0.929 . S
C1462 C1458 1.531 . S
C1462 H1474 0.960 . S
C1462 H1475 0.962 . S
C1462 H1476 0.960 . S
C1463 C1460 1.511 . S
C1463 H1477 0.961 . S
C1463 H1478 0.961 . S
C1463 H1479 0.961 . S
C1464 C1465 1.370 . S
C1464 C1466 1.363 . S
C1464 H1480 0.931 . S
C1465 C1464 1.370 . S
C1465 C1469 1.408 . S
C1466 C1464 1.363 . S
C1466 C1467 1.370 . S
C1466 C1470 1.524 . S
C1467 C1459 1.503 . S
C1467 C1466 1.370 . S
C1467 C1468 1.403 . S
C1468 C1467 1.403 . S
C1468 C1469 1.404 . S
C1468 C1471 1.539 . S
C1469 C1465 1.408 . S
C1469 C1468 1.404 . S
C1469 H1481 0.930 . S
C1470 C1466 1.524 . S
C1470 H1482 0.956 . S
C1470 H1483 0.961 . S
C1470 H1484 0.961 . S
C1471 C1468 1.539 . S
C1471 H1485 0.958 . S
C1471 H1486 0.961 . S
C1471 H1487 0.960 . S
H1472 C1456 0.931 . S
H1473 C1461 0.929 . S
H1474 C1462 0.960 . S
H1475 C1462 0.962 . S
H1476 C1462 0.960 . S
H1477 C1463 0.961 . S
H1478 C1463 0.961 . S
H1479 C1463 0.961 . S
H1480 C1464 0.931 . S
H1481 C1469 0.930 . S
H1482 C1470 0.956 . S
H1483 C1470 0.961 . S
H1484 C1470 0.961 . S
H1485 C1471 0.958 . S
H1486 C1471 0.961 . S
H1487 C1471 0.960 . S
C1488 C1489 1.391 . S
C1488 C1490 1.394 . S
C1488 H1504 0.931 . S
C1489 C1488 1.391 . S
C1489 C1493 1.376 . S
C1490 C1488 1.394 . S
C1490 C1491 1.369 . S
C1490 C1494 1.531 . S
C1491 C1490 1.369 . S
C1491 C1492 1.410 . S
C1491 C1499 1.503 . S
C1492 C1491 1.410 . S
C1492 C1493 1.392 . S
C1492 C1495 1.511 . S
C1493 C1489 1.376 . S
C1493 C1492 1.392 . S
C1493 H1505 0.929 . S
C1494 C1490 1.531 . S
C1494 H1506 0.960 . S
C1494 H1507 0.962 . S
C1494 H1508 0.960 . S
C1495 C1492 1.511 . S
C1495 H1509 0.961 . S
C1495 H1510 0.961 . S
C1495 H1511 0.961 . S
C1496 C1497 1.370 . S
C1496 C1498 1.363 . S
C1496 H1512 0.931 . S
C1497 C1496 1.370 . S
C1497 C1501 1.408 . S
C1498 C1496 1.363 . S
C1498 C1499 1.370 . S
C1498 C1502 1.524 . S
C1499 C1491 1.503 . S
C1499 C1498 1.370 . S
C1499 C1500 1.403 . S
C1500 C1499 1.403 . S
C1500 C1501 1.404 . S
C1500 C1503 1.539 . S
C1501 C1497 1.408 . S
C1501 C1500 1.404 . S
C1501 H1513 0.930 . S
C1502 C1498 1.524 . S
C1502 H1514 0.956 . S
C1502 H1515 0.961 . S
C1502 H1516 0.961 . S
C1503 C1500 1.539 . S
C1503 H1517 0.958 . S
C1503 H1518 0.961 . S
C1503 H1519 0.960 . S
H1504 C1488 0.931 . S
H1505 C1493 0.929 . S
H1506 C1494 0.960 . S
H1507 C1494 0.962 . S
H1508 C1494 0.960 . S
H1509 C1495 0.961 . S
H1510 C1495 0.961 . S
H1511 C1495 0.961 . S
H1512 C1496 0.931 . S
H1513 C1501 0.930 . S
H1514 C1502 0.956 . S
H1515 C1502 0.961 . S
H1516 C1502 0.961 . S
H1517 C1503 0.958 . S
H1518 C1503 0.961 . S
H1519 C1503 0.960 . S
C1520 C1521 1.391 . S
C1520 C1522 1.394 . S
C1520 H1536 0.931 . S
C1521 C1520 1.391 . S
C1521 C1525 1.376 . S
C1522 C1520 1.394 . S
C1522 C1523 1.369 . S
C1522 C1526 1.531 . S
C1523 C1522 1.369 . S
C1523 C1524 1.410 . S
C1523 C1531 1.503 . S
C1524 C1523 1.410 . S
C1524 C1525 1.392 . S
C1524 C1527 1.511 . S
C1525 C1521 1.376 . S
C1525 C1524 1.392 . S
C1525 H1537 0.929 . S
C1526 C1522 1.531 . S
C1526 H1538 0.960 . S
C1526 H1539 0.962 . S
C1526 H1540 0.960 . S
C1527 C1524 1.511 . S
C1527 H1541 0.961 . S
C1527 H1542 0.961 . S
C1527 H1543 0.961 . S
C1528 C1529 1.370 . S
C1528 C1530 1.363 . S
C1528 H1544 0.931 . S
C1529 C1528 1.370 . S
C1529 C1533 1.408 . S
C1530 C1528 1.363 . S
C1530 C1531 1.370 . S
C1530 C1534 1.524 . S
C1531 C1523 1.503 . S
C1531 C1530 1.370 . S
C1531 C1532 1.403 . S
C1532 C1531 1.403 . S
C1532 C1533 1.404 . S
C1532 C1535 1.539 . S
C1533 C1529 1.408 . S
C1533 C1532 1.404 . S
C1533 H1545 0.930 . S
C1534 C1530 1.524 . S
C1534 H1546 0.956 . S
C1534 H1547 0.961 . S
C1534 H1548 0.961 . S
C1535 C1532 1.539 . S
C1535 H1549 0.958 . S
C1535 H1550 0.961 . S
C1535 H1551 0.960 . S
H1536 C1520 0.931 . S
H1537 C1525 0.929 . S
H1538 C1526 0.960 . S
H1539 C1526 0.962 . S
H1540 C1526 0.960 . S
H1541 C1527 0.961 . S
H1542 C1527 0.961 . S
H1543 C1527 0.961 . S
H1544 C1528 0.931 . S
H1545 C1533 0.930 . S
H1546 C1534 0.956 . S
H1547 C1534 0.961 . S
H1548 C1534 0.961 . S
H1549 C1535 0.958 . S
H1550 C1535 0.961 . S
H1551 C1535 0.960 . S
C1552 C1553 1.391 . S
C1552 C1554 1.394 . S
C1552 H1568 0.931 . S
C1553 C1552 1.391 . S
C1553 C1557 1.376 . S
C1554 C1552 1.394 . S
C1554 C1555 1.369 . S
C1554 C1558 1.531 . S
C1555 C1554 1.369 . S
C1555 C1556 1.410 . S
C1555 C1563 1.503 . S
C1556 C1555 1.410 . S
C1556 C1557 1.392 . S
C1556 C1559 1.511 . S
C1557 C1553 1.376 . S
C1557 C1556 1.392 . S
C1557 H1569 0.929 . S
C1558 C1554 1.531 . S
C1558 H1570 0.960 . S
C1558 H1571 0.962 . S
C1558 H1572 0.960 . S
C1559 C1556 1.511 . S
C1559 H1573 0.961 . S
C1559 H1574 0.961 . S
C1559 H1575 0.961 . S
C1560 C1561 1.370 . S
C1560 C1562 1.363 . S
C1560 H1576 0.931 . S
C1561 C1560 1.370 . S
C1561 C1565 1.408 . S
C1562 C1560 1.363 . S
C1562 C1563 1.370 . S
C1562 C1566 1.524 . S
C1563 C1555 1.503 . S
C1563 C1562 1.370 . S
C1563 C1564 1.403 . S
C1564 C1563 1.403 . S
C1564 C1565 1.404 . S
C1564 C1567 1.539 . S
C1565 C1561 1.408 . S
C1565 C1564 1.404 . S
C1565 H1577 0.930 . S
C1566 C1562 1.524 . S
C1566 H1578 0.956 . S
C1566 H1579 0.961 . S
C1566 H1580 0.961 . S
C1567 C1564 1.539 . S
C1567 H1581 0.958 . S
C1567 H1582 0.961 . S
C1567 H1583 0.960 . S
H1568 C1552 0.931 . S
H1569 C1557 0.929 . S
H1570 C1558 0.960 . S
H1571 C1558 0.962 . S
H1572 C1558 0.960 . S
H1573 C1559 0.961 . S
H1574 C1559 0.961 . S
H1575 C1559 0.961 . S
H1576 C1560 0.931 . S
H1577 C1565 0.930 . S
H1578 C1566 0.956 . S
H1579 C1566 0.961 . S
H1580 C1566 0.961 . S
H1581 C1567 0.958 . S
H1582 C1567 0.961 . S
H1583 C1567 0.960 . S
C1584 C1585 1.391 . S
C1584 C1586 1.394 . S
C1584 H1600 0.931 . S
C1585 C1584 1.391 . S
C1585 C1589 1.376 . S
C1586 C1584 1.394 . S
C1586 C1587 1.369 . S
C1586 C1590 1.531 . S
C1587 C1586 1.369 . S
C1587 C1588 1.410 . S
C1587 C1595 1.503 . S
C1588 C1587 1.410 . S
C1588 C1589 1.392 . S
C1588 C1591 1.511 . S
C1589 C1585 1.376 . S
C1589 C1588 1.392 . S
C1589 H1601 0.929 . S
C1590 C1586 1.531 . S
C1590 H1602 0.960 . S
C1590 H1603 0.962 . S
C1590 H1604 0.960 . S
C1591 C1588 1.511 . S
C1591 H1605 0.961 . S
C1591 H1606 0.961 . S
C1591 H1607 0.961 . S
C1592 C1593 1.370 . S
C1592 C1594 1.363 . S
C1592 H1608 0.931 . S
C1593 C1592 1.370 . S
C1593 C1597 1.408 . S
C1594 C1592 1.363 . S
C1594 C1595 1.370 . S
C1594 C1598 1.524 . S
C1595 C1587 1.503 . S
C1595 C1594 1.370 . S
C1595 C1596 1.403 . S
C1596 C1595 1.403 . S
C1596 C1597 1.404 . S
C1596 C1599 1.539 . S
C1597 C1593 1.408 . S
C1597 C1596 1.404 . S
C1597 H1609 0.930 . S
C1598 C1594 1.524 . S
C1598 H1610 0.956 . S
C1598 H1611 0.961 . S
C1598 H1612 0.961 . S
C1599 C1596 1.539 . S
C1599 H1613 0.958 . S
C1599 H1614 0.961 . S
C1599 H1615 0.960 . S
H1600 C1584 0.931 . S
H1601 C1589 0.929 . S
H1602 C1590 0.960 . S
H1603 C1590 0.962 . S
H1604 C1590 0.960 . S
H1605 C1591 0.961 . S
H1606 C1591 0.961 . S
H1607 C1591 0.961 . S
H1608 C1592 0.931 . S
H1609 C1597 0.930 . S
H1610 C1598 0.956 . S
H1611 C1598 0.961 . S
H1612 C1598 0.961 . S
H1613 C1599 0.958 . S
H1614 C1599 0.961 . S
H1615 C1599 0.960 . S
C1616 C1617 1.391 . S
C1616 C1618 1.394 . S
C1616 H1632 0.931 . S
C1617 C1616 1.391 . S
C1617 C1621 1.376 . S
C1618 C1616 1.394 . S
C1618 C1619 1.369 . S
C1618 C1622 1.531 . S
C1619 C1618 1.369 . S
C1619 C1620 1.410 . S
C1619 C1627 1.503 . S
C1620 C1619 1.410 . S
C1620 C1621 1.392 . S
C1620 C1623 1.511 . S
C1621 C1617 1.376 . S
C1621 C1620 1.392 . S
C1621 H1633 0.929 . S
C1622 C1618 1.531 . S
C1622 H1634 0.960 . S
C1622 H1635 0.962 . S
C1622 H1636 0.960 . S
C1623 C1620 1.511 . S
C1623 H1637 0.961 . S
C1623 H1638 0.961 . S
C1623 H1639 0.961 . S
C1624 C1625 1.370 . S
C1624 C1626 1.363 . S
C1624 H1640 0.931 . S
C1625 C1624 1.370 . S
C1625 C1629 1.408 . S
C1626 C1624 1.363 . S
C1626 C1627 1.370 . S
C1626 C1630 1.524 . S
C1627 C1619 1.503 . S
C1627 C1626 1.370 . S
C1627 C1628 1.403 . S
C1628 C1627 1.403 . S
C1628 C1629 1.404 . S
C1628 C1631 1.539 . S
C1629 C1625 1.408 . S
C1629 C1628 1.404 . S
C1629 H1641 0.930 . S
C1630 C1626 1.524 . S
C1630 H1642 0.956 . S
C1630 H1643 0.961 . S
C1630 H1644 0.961 . S
C1631 C1628 1.539 . S
C1631 H1645 0.958 . S
C1631 H1646 0.961 . S
C1631 H1647 0.960 . S
H1632 C1616 0.931 . S
H1633 C1621 0.929 . S
H1634 C1622 0.960 . S
H1635 C1622 0.962 . S
H1636 C1622 0.960 . S
H1637 C1623 0.961 . S
H1638 C1623 0.961 . S
H1639 C1623 0.961 . S
H1640 C1624 0.931 . S
H1641 C1629 0.930 . S
H1642 C1630 0.956 . S
H1643 C1630 0.961 . S
H1644 C1630 0.961 . S
H1645 C1631 0.958 . S
H1646 C1631 0.961 . S
H1647 C1631 0.960 . S
C1648 C1649 1.391 . S
C1648 C1650 1.394 . S
C1648 H1664 0.931 . S
C1649 C1648 1.391 . S
C1649 C1653 1.376 . S
C1650 C1648 1.394 . S
C1650 C1651 1.369 . S
C1650 C1654 1.531 . S
C1651 C1650 1.369 . S
C1651 C1652 1.410 . S
C1651 C1659 1.503 . S
C1652 C1651 1.410 . S
C1652 C1653 1.392 . S
C1652 C1655 1.511 . S
C1653 C1649 1.376 . S
C1653 C1652 1.392 . S
C1653 H1665 0.929 . S
C1654 C1650 1.531 . S
C1654 H1666 0.960 . S
C1654 H1667 0.962 . S
C1654 H1668 0.960 . S
C1655 C1652 1.511 . S
C1655 H1669 0.961 . S
C1655 H1670 0.961 . S
C1655 H1671 0.961 . S
C1656 C1657 1.370 . S
C1656 C1658 1.363 . S
C1656 H1672 0.931 . S
C1657 C1656 1.370 . S
C1657 C1661 1.408 . S
C1658 C1656 1.363 . S
C1658 C1659 1.370 . S
C1658 C1662 1.524 . S
C1659 C1651 1.503 . S
C1659 C1658 1.370 . S
C1659 C1660 1.403 . S
C1660 C1659 1.403 . S
C1660 C1661 1.404 . S
C1660 C1663 1.539 . S
C1661 C1657 1.408 . S
C1661 C1660 1.404 . S
C1661 H1673 0.930 . S
C1662 C1658 1.524 . S
C1662 H1674 0.956 . S
C1662 H1675 0.961 . S
C1662 H1676 0.961 . S
C1663 C1660 1.539 . S
C1663 H1677 0.958 . S
C1663 H1678 0.961 . S
C1663 H1679 0.960 . S
H1664 C1648 0.931 . S
H1665 C1653 0.929 . S
H1666 C1654 0.960 . S
H1667 C1654 0.962 . S
H1668 C1654 0.960 . S
H1669 C1655 0.961 . S
H1670 C1655 0.961 . S
H1671 C1655 0.961 . S
H1672 C1656 0.931 . S
H1673 C1661 0.930 . S
H1674 C1662 0.956 . S
H1675 C1662 0.961 . S
H1676 C1662 0.961 . S
H1677 C1663 0.958 . S
H1678 C1663 0.961 . S
H1679 C1663 0.960 . S
C1680 C1681 1.391 . S
C1680 C1682 1.394 . S
C1680 H1696 0.931 . S
C1681 C1680 1.391 . S
C1681 C1685 1.376 . S
C1682 C1680 1.394 . S
C1682 C1683 1.369 . S
C1682 C1686 1.531 . S
C1683 C1682 1.369 . S
C1683 C1684 1.410 . S
C1683 C1691 1.503 . S
C1684 C1683 1.410 . S
C1684 C1685 1.392 . S
C1684 C1687 1.511 . S
C1685 C1681 1.376 . S
C1685 C1684 1.392 . S
C1685 H1697 0.929 . S
C1686 C1682 1.531 . S
C1686 H1698 0.960 . S
C1686 H1699 0.962 . S
C1686 H1700 0.960 . S
C1687 C1684 1.511 . S
C1687 H1701 0.961 . S
C1687 H1702 0.961 . S
C1687 H1703 0.961 . S
C1688 C1689 1.370 . S
C1688 C1690 1.363 . S
C1688 H1704 0.931 . S
C1689 C1688 1.370 . S
C1689 C1693 1.408 . S
C1690 C1688 1.363 . S
C1690 C1691 1.370 . S
C1690 C1694 1.524 . S
C1691 C1683 1.503 . S
C1691 C1690 1.370 . S
C1691 C1692 1.403 . S
C1692 C1691 1.403 . S
C1692 C1693 1.404 . S
C1692 C1695 1.539 . S
C1693 C1689 1.408 . S
C1693 C1692 1.404 . S
C1693 H1705 0.930 . S
C1694 C1690 1.524 . S
C1694 H1706 0.956 . S
C1694 H1707 0.961 . S
C1694 H1708 0.961 . S
C1695 C1692 1.539 . S
C1695 H1709 0.958 . S
C1695 H1710 0.961 . S
C1695 H1711 0.960 . S
H1696 C1680 0.931 . S
H1697 C1685 0.929 . S
H1698 C1686 0.960 . S
H1699 C1686 0.962 . S
H1700 C1686 0.960 . S
H1701 C1687 0.961 . S
H1702 C1687 0.961 . S
H1703 C1687 0.961 . S
H1704 C1688 0.931 . S
H1705 C1693 0.930 . S
H1706 C1694 0.956 . S
H1707 C1694 0.961 . S
H1708 C1694 0.961 . S
H1709 C1695 0.958 . S
H1710 C1695 0.961 . S
H1711 C1695 0.960 . S
C1712 C1713 1.391 . S
C1712 C1714 1.394 . S
C1712 H1728 0.931 . S
C1713 C1712 1.391 . S
C1713 C1717 1.376 . S
C1714 C1712 1.394 . S
C1714 C1715 1.369 . S
C1714 C1718 1.531 . S
C1715 C1714 1.369 . S
C1715 C1716 1.410 . S
C1715 C1723 1.503 . S
C1716 C1715 1.410 . S
C1716 C1717 1.392 . S
C1716 C1719 1.511 . S
C1717 C1713 1.376 . S
C1717 C1716 1.392 . S
C1717 H1729 0.929 . S
C1718 C1714 1.531 . S
C1718 H1730 0.960 . S
C1718 H1731 0.962 . S
C1718 H1732 0.960 . S
C1719 C1716 1.511 . S
C1719 H1733 0.961 . S
C1719 H1734 0.961 . S
C1719 H1735 0.961 . S
C1720 C1721 1.370 . S
C1720 C1722 1.363 . S
C1720 H1736 0.931 . S
C1721 C1720 1.370 . S
C1721 C1725 1.408 . S
C1722 C1720 1.363 . S
C1722 C1723 1.370 . S
C1722 C1726 1.524 . S
C1723 C1715 1.503 . S
C1723 C1722 1.370 . S
C1723 C1724 1.403 . S
C1724 C1723 1.403 . S
C1724 C1725 1.404 . S
C1724 C1727 1.539 . S
C1725 C1721 1.408 . S
C1725 C1724 1.404 . S
C1725 H1737 0.930 . S
C1726 C1722 1.524 . S
C1726 H1738 0.956 . S
C1726 H1739 0.961 . S
C1726 H1740 0.961 . S
C1727 C1724 1.539 . S
C1727 H1741 0.958 . S
C1727 H1742 0.961 . S
C1727 H1743 0.960 . S
H1728 C1712 0.931 . S
H1729 C1717 0.929 . S
H1730 C1718 0.960 . S
H1731 C1718 0.962 . S
H1732 C1718 0.960 . S
H1733 C1719 0.961 . S
H1734 C1719 0.961 . S
H1735 C1719 0.961 . S
H1736 C1720 0.931 . S
H1737 C1725 0.930 . S
H1738 C1726 0.956 . S
H1739 C1726 0.961 . S
H1740 C1726 0.961 . S
H1741 C1727 0.958 . S
H1742 C1727 0.961 . S
H1743 C1727 0.960 . S
C1744 C1745 1.391 . S
C1744 C1746 1.394 . S
C1744 H1760 0.931 . S
C1745 C1744 1.391 . S
C1745 C1749 1.376 . S
C1746 C1744 1.394 . S
C1746 C1747 1.369 . S
C1746 C1750 1.531 . S
C1747 C1746 1.369 . S
C1747 C1748 1.410 . S
C1747 C1755 1.503 . S
C1748 C1747 1.410 . S
C1748 C1749 1.392 . S
C1748 C1751 1.511 . S
C1749 C1745 1.376 . S
C1749 C1748 1.392 . S
C1749 H1761 0.929 . S
C1750 C1746 1.531 . S
C1750 H1762 0.960 . S
C1750 H1763 0.962 . S
C1750 H1764 0.960 . S
C1751 C1748 1.511 . S
C1751 H1765 0.961 . S
C1751 H1766 0.961 . S
C1751 H1767 0.961 . S
C1752 C1753 1.370 . S
C1752 C1754 1.363 . S
C1752 H1768 0.931 . S
C1753 C1752 1.370 . S
C1753 C1757 1.408 . S
C1754 C1752 1.363 . S
C1754 C1755 1.370 . S
C1754 C1758 1.524 . S
C1755 C1747 1.503 . S
C1755 C1754 1.370 . S
C1755 C1756 1.403 . S
C1756 C1755 1.403 . S
C1756 C1757 1.404 . S
C1756 C1759 1.539 . S
C1757 C1753 1.408 . S
C1757 C1756 1.404 . S
C1757 H1769 0.930 . S
C1758 C1754 1.524 . S
C1758 H1770 0.956 . S
C1758 H1771 0.961 . S
C1758 H1772 0.961 . S
C1759 C1756 1.539 . S
C1759 H1773 0.958 . S
C1759 H1774 0.961 1_554 S
C1759 H1775 0.960 . S
H1760 C1744 0.931 . S
H1761 C1749 0.929 . S
H1762 C1750 0.960 . S
H1763 C1750 0.962 . S
H1764 C1750 0.960 . S
H1765 C1751 0.961 . S
H1766 C1751 0.961 . S
H1767 C1751 0.961 . S
H1768 C1752 0.931 . S
H1769 C1757 0.930 . S
H1770 C1758 0.956 . S
H1771 C1758 0.961 . S
H1772 C1758 0.961 . S
H1773 C1759 0.958 . S
H1774 C1759 0.961 1_556 S
H1775 C1759 0.960 . S
C1776 C1777 1.391 . S
C1776 C1778 1.394 . S
C1776 H1792 0.931 . S
C1777 C1776 1.391 . S
C1777 C1781 1.376 . S
C1778 C1776 1.394 . S
C1778 C1779 1.369 . S
C1778 C1782 1.531 . S
C1779 C1778 1.369 . S
C1779 C1780 1.410 . S
C1779 C1787 1.503 . S
C1780 C1779 1.410 . S
C1780 C1781 1.392 . S
C1780 C1783 1.511 . S
C1781 C1777 1.376 . S
C1781 C1780 1.392 . S
C1781 H1793 0.929 . S
C1782 C1778 1.531 . S
C1782 H1794 0.960 . S
C1782 H1795 0.962 . S
C1782 H1796 0.960 . S
C1783 C1780 1.511 . S
C1783 H1797 0.961 . S
C1783 H1798 0.961 . S
C1783 H1799 0.961 . S
C1784 C1785 1.370 . S
C1784 C1786 1.363 . S
C1784 H1800 0.931 . S
C1785 C1784 1.370 . S
C1785 C1789 1.408 . S
C1786 C1784 1.363 . S
C1786 C1787 1.370 . S
C1786 C1790 1.524 . S
C1787 C1779 1.503 . S
C1787 C1786 1.370 . S
C1787 C1788 1.403 . S
C1788 C1787 1.403 . S
C1788 C1789 1.404 . S
C1788 C1791 1.539 . S
C1789 C1785 1.408 . S
C1789 C1788 1.404 . S
C1789 H1801 0.930 . S
C1790 C1786 1.524 . S
C1790 H1802 0.956 . S
C1790 H1803 0.961 . S
C1790 H1804 0.961 . S
C1791 C1788 1.539 . S
C1791 H1805 0.958 . S
C1791 H1806 0.961 . S
C1791 H1807 0.960 . S
H1792 C1776 0.931 . S
H1793 C1781 0.929 . S
H1794 C1782 0.960 . S
H1795 C1782 0.962 . S
H1796 C1782 0.960 . S
H1797 C1783 0.961 . S
H1798 C1783 0.961 . S
H1799 C1783 0.961 . S
H1800 C1784 0.931 . S
H1801 C1789 0.930 . S
H1802 C1790 0.956 . S
H1803 C1790 0.961 . S
H1804 C1790 0.961 . S
H1805 C1791 0.958 . S
H1806 C1791 0.961 . S
H1807 C1791 0.960 . S
C529 C513 1.447 . S
C537 N13 1.411 . S
C561 N46 1.442 . S
C569 C150 1.453 . S
C593 N79 1.437 . S
C601 C447 1.451 1_455 S
C625 N112 1.379 . S
C633 C216 1.440 . S
C657 N145 1.444 . S
C665 C381 1.455 . S
C689 C18 1.464 . S
C697 N178 1.428 . S
C721 C315 1.452 1_655 S
C729 N211 1.419 . S
C753 N244 1.440 . S
C761 C84 1.455 . S
C785 N277 1.438 . S
C793 C249 1.451 1_655 S
C817 N310 1.386 . S
C825 C414 1.444 . S
C849 C183 1.432 . S
C857 N343 1.403 . S
C881 N376 1.443 . S
C889 C480 1.455 . S
C913 N409 1.381 . S
C921 C117 1.440 1_455 S
C945 N442 1.441 . S
C953 C282 1.454 . S
C977 C51 1.464 . S
C985 N475 1.428 . S
C1009 N508 1.408 . S
C1017 C348 1.448 . S
C1041 N2 1.615 . S
C1049 N398 1.623 . S
C1073 N167 1.609 . S
C1081 N35 1.625 . S
C1105 N68 1.644 . S
C1113 N464 1.613 . S
C1137 N101 1.593 . S
C1145 N233 1.633 . S
C1169 N266 1.594 . S
C1177 N134 1.633 . S
C1201 N332 1.627 . S
C1209 N200 1.621 . S
C1233 N431 1.620 . S
C1241 N299 1.624 . S
C1265 N365 1.593 . S
C1273 N497 1.634 . S
C1297 C304 1.319 . S
C1305 C21 1.323 . S
C1329 C54 1.317 . S
C1337 C337 1.305 . S
C1361 C87 1.320 . S
C1369 C370 1.297 . S
C1393 C271 1.300 . S
C1401 C120 1.324 . S
C1425 C153 1.319 . S
C1433 C436 1.297 . S
C1457 C186 1.322 . S
C1465 C469 1.307 . S
C1489 C219 1.317 . S
C1497 C502 1.304 . S
C1521 C252 1.320 . S
C1529 C403 1.298 . S
C1553 C40 1.287 . S
C1561 C285 1.322 . S
C1585 C318 1.322 1_565 S
C1593 C73 1.312 . S
C1617 C351 1.317 . S
C1625 C106 1.305 . S
C1649 C384 1.319 1_545 S
C1657 C7 1.295 . S
C1681 C417 1.317 . S
C1689 C172 1.298 . S
C1713 C205 1.294 . S
C1721 C450 1.323 1_545 S
C1745 C238 1.313 . S
C1753 C483 1.323 . S
C1777 C516 1.321 1_565 S
C1785 C139 1.304 . S
