# Generated by pormake.
# Topology unh, (4)-cn, num edge types: 1
# Building blocks:
#     Node 0, Type 0, BuildingBlock: GALJAG_clean_sbu_0, # of connection points: 4
#     Node 1, Type 0, BuildingBlock: GALJAG_clean_sbu_0, # of connection points: 4
#     Node 2, Type 0, BuildingBlock: GALJAG_clean_sbu_0, # of connection points: 4
#     Node 3, Type 0, BuildingBlock: GALJAG_clean_sbu_0, # of connection points: 4
#     Node 4, Type 0, BuildingBlock: GALJAG_clean_sbu_0, # of connection points: 4
#     Node 5, Type 0, BuildingBlock: GALJAG_clean_sbu_0, # of connection points: 4
#     Edge 6, Type (0, 0), BuildingBlock: MIFKUJ_clean_linker_0, # of connection points: 2
#     Edge 7, Type (0, 0), BuildingBlock: MIFKUJ_clean_linker_0, # of connection points: 2
#     Edge 8, Type (0, 0), BuildingBlock: MIFKUJ_clean_linker_0, # of connection points: 2
#     Edge 9, Type (0, 0), BuildingBlock: MIFKUJ_clean_linker_0, # of connection points: 2
#     Edge 10, Type (0, 0), BuildingBlock: MIFKUJ_clean_linker_0, # of connection points: 2
#     Edge 11, Type (0, 0), BuildingBlock: MIFKUJ_clean_linker_0, # of connection points: 2
#     Edge 12, Type (0, 0), BuildingBlock: MIFKUJ_clean_linker_0, # of connection points: 2
#     Edge 13, Type (0, 0), BuildingBlock: MIFKUJ_clean_linker_0, # of connection points: 2
#     Edge 14, Type (0, 0), BuildingBlock: MIFKUJ_clean_linker_0, # of connection points: 2
#     Edge 15, Type (0, 0), BuildingBlock: MIFKUJ_clean_linker_0, # of connection points: 2
#     Edge 16, Type (0, 0), BuildingBlock: MIFKUJ_clean_linker_0, # of connection points: 2
#     Edge 17, Type (0, 0), BuildingBlock: MIFKUJ_clean_linker_0, # of connection points: 2
# Relax obj value: 0.030
# Max RMSD: 0.132
# Mean RMSD: 0.132
data_MOF--net-unh--node1-GALJAG_clean_sbu_0--edge1-MIFKUJ_clean_linker_0
_symmetry_space_group_name_H-M    P1
_symmetry_Int_Tables_number       1
_symmetry_cell_setting            triclinic
loop_
_symmetry_equiv_pos_as_xyz
'x, y, z'
_cell_length_a     58.673906
_cell_length_b     58.751242
_cell_length_c     26.162159
_cell_angle_alpha  89.960199
_cell_angle_beta   89.993008
_cell_angle_gamma 119.92491
loop_
_atom_site_label
_atom_site_type_symbol
_atom_site_fract_x
_atom_site_fract_y
_atom_site_fract_z
_atom_type_partial_charge
In0 In 0.13784 0.56402 0.09584 0.0
O1 O 0.10611 0.5244 0.06411 0.0
O2 O 0.12411 0.55696 0.01346 0.0
C3 C 0.16081 0.54038 0.14531 0.0
C4 C 0.10466 0.56925 0.15999 0.0
C5 C 0.17668 0.61097 0.06098 0.0
O6 O 0.15853 0.53975 0.09727 0.0
O7 O 0.15081 0.55219 0.16818 0.0
O8 O 0.15421 0.60721 0.07244 0.0
O9 O 0.17962 0.59144 0.0683 0.0
C10 C 0.10709 0.53311 0.01955 0.0
O11 O 0.09913 0.56262 0.11388 0.0
O12 O 0.12724 0.57396 0.17354 0.0
In13 In 0.56781 0.1408 0.24862 0.0
O14 O 0.5821 0.11925 0.19602 0.0
O15 O 0.54233 0.11043 0.19022 0.0
C16 C 0.61252 0.17442 0.29758 0.0
C17 C 0.54086 0.1047 0.32082 0.0
C18 C 0.55635 0.17473 0.20167 0.0
O19 O 0.61267 0.1654 0.25385 0.0
O20 O 0.58998 0.16655 0.31622 0.0
O21 O 0.54414 0.16211 0.24114 0.0
O22 O 0.5742 0.17031 0.18671 0.0
C23 C 0.55997 0.10581 0.17468 0.0
O24 O 0.53231 0.11879 0.30167 0.0
O25 O 0.56291 0.10925 0.30402 0.0
In26 In 0.43035 0.56361 0.40762 0.0
O27 O 0.47205 0.57167 0.39132 0.0
O28 O 0.44727 0.56635 0.32808 0.0
C29 C 0.44579 0.61276 0.44134 0.0
C30 C 0.42531 0.52457 0.46941 0.0
C31 C 0.38023 0.54431 0.37585 0.0
O32 O 0.43451 0.60424 0.39897 0.0
O33 O 0.44993 0.59677 0.46606 0.0
O34 O 0.38706 0.55048 0.42178 0.0
O35 O 0.39856 0.54747 0.3463 0.0
C36 C 0.46924 0.57009 0.34346 0.0
O37 O 0.42732 0.54561 0.4862 0.0
O38 O 0.42499 0.52284 0.42136 0.0
In39 In 0.86291 0.43612 0.58847 0.0
O40 O 0.8832 0.42113 0.64258 0.0
O41 O 0.89525 0.46188 0.64357 0.0
C42 C 0.83017 0.38873 0.54592 0.0
C43 C 0.89881 0.46527 0.51745 0.0
C44 C 0.83042 0.45112 0.63105 0.0
O45 O 0.83465 0.39167 0.59324 0.0
O46 O 0.84241 0.40949 0.52018 0.0
O47 O 0.83895 0.45736 0.586 0.0
O48 O 0.83828 0.43753 0.65415 0.0
C49 C 0.89836 0.4436 0.66114 0.0
O50 O 0.8799 0.46891 0.5287 0.0
O51 O 0.89916 0.44672 0.54116 0.0
In52 In 0.43332 0.85938 0.74869 0.0
O53 O 0.41798 0.88051 0.69748 0.0
O54 O 0.4587 0.89244 0.69472 0.0
C55 C 0.3887 0.82231 0.79283 0.0
C56 C 0.45922 0.89214 0.82659 0.0
C57 C 0.44497 0.82752 0.69475 0.0
O58 O 0.38886 0.83895 0.76194 0.0
O59 O 0.4109 0.82455 0.80123 0.0
O60 O 0.45606 0.83754 0.73679 0.0
O61 O 0.42831 0.83376 0.68015 0.0
C62 C 0.44035 0.8958 0.67849 0.0
O63 O 0.46972 0.8821 0.79942 0.0
O64 O 0.43579 0.88515 0.81501 0.0
In65 In 0.56569 0.43199 0.90405 0.0
O66 O 0.5382 0.41322 0.83515 0.0
O67 O 0.54762 0.45162 0.85804 0.0
C68 C 0.54928 0.38273 0.93874 0.0
C69 C 0.56157 0.45986 0.98176 0.0
C70 C 0.61579 0.45403 0.87028 0.0
O71 O 0.54313 0.39813 0.95999 0.0
O72 O 0.56318 0.39187 0.89917 0.0
O73 O 0.60855 0.44244 0.9128 0.0
O74 O 0.59796 0.45523 0.8456 0.0
C75 C 0.5351 0.43275 0.82776 0.0
O76 O 0.58364 0.46357 0.96671 0.0
O77 O 0.54208 0.44218 0.95804 0.0
H78 H 0.06675 0.48208 0.02382 0.0
H79 H 0.03015 0.46031 0.96301 0.0
H80 H 0.06625 0.52879 0.86609 0.0
H81 H 0.10287 0.55042 0.92575 0.0
H82 H 0.01244 0.51113 0.90536 0.0
H83 H 0.06595 0.47971 0.8222 0.0
H84 H 0.09017 0.45542 0.82039 0.0
H85 H 0.01979 0.38439 0.86179 0.0
H86 H 0.99524 0.40836 0.86457 0.0
H87 H 0.94115 0.4904 0.68336 0.0
H88 H 0.97532 0.49955 0.74601 0.0
H89 H 0.93599 0.41763 0.78857 0.0
H90 H 0.90213 0.40815 0.72364 0.0
H91 H 0.98695 0.43613 0.7874 0.0
H92 H 0.93193 0.46403 0.86448 0.0
H93 H 0.9059 0.48635 0.87101 0.0
H94 H 0.97585 0.56108 0.85023 0.0
H95 H 0.00227 0.5392 0.84282 0.0
C96 C 0.06716 0.4922 0.98891 0.0
C97 C 0.08753 0.51802 0.97968 0.0
C98 C 0.04628 0.47975 0.95433 0.0
C99 C 0.04555 0.49308 0.91042 0.0
C100 C 0.06653 0.51827 0.89991 0.0
C101 C 0.08744 0.53056 0.93401 0.0
C102 C 0.02184 0.48226 0.878 0.0
C103 C 0.0069 0.49484 0.87927 0.0
C104 C 0.01406 0.46025 0.84601 0.0
C105 C 0.02885 0.4459 0.84424 0.0
C106 C 0.05571 0.45898 0.83147 0.0
C107 C 0.06948 0.44525 0.83012 0.0
C108 C 0.05655 0.4184 0.84114 0.0
C109 C 0.0298 0.4052 0.85337 0.0
C110 C 0.01594 0.41884 0.8548 0.0
C111 C 0.93974 0.47432 0.70608 0.0
C112 C 0.91886 0.44862 0.69915 0.0
C113 C 0.95923 0.47958 0.74206 0.0
C114 C 0.95788 0.4594 0.773 0.0
C115 C 0.93733 0.43354 0.7654 0.0
C116 C 0.91799 0.42816 0.7285 0.0
C117 C 0.97803 0.46571 0.81315 0.0
C118 C 0.99219 0.45222 0.81383 0.0
C119 C 0.98483 0.4866 0.84793 0.0
C120 C 0.96906 0.49993 0.85281 0.0
C121 C 0.94175 0.48521 0.86101 0.0
C122 C 0.92692 0.49779 0.8649 0.0
C123 C 0.93921 0.52511 0.86097 0.0
C124 C 0.96636 0.53992 0.85327 0.0
C125 C 0.98128 0.52744 0.8493 0.0
H126 H 0.92769 0.53481 0.86396 0.0
H127 H 0.06725 0.4078 0.84007 0.0
H128 H 0.43896 0.91314 0.89219 0.0
H129 H 0.46296 0.95044 0.94921 0.0
H130 H 0.53597 0.95462 0.90662 0.0
H131 H 0.51189 0.91688 0.84922 0.0
H132 H 0.53156 0.96375 0.01381 0.0
H133 H 0.52329 0.99514 0.84997 0.0
H134 H 0.49958 0.9954 0.77236 0.0
H135 H 0.44852 0.01186 0.8631 0.0
H136 H 0.47164 0.01126 0.94138 0.0
H137 H 0.59412 0.09166 0.13324 0.0
H138 H 0.58374 0.05674 0.07046 0.0
H139 H 0.50298 0.03904 0.06745 0.0
H140 H 0.51325 0.07395 0.12882 0.0
H141 H 0.52024 0.04012 0.97361 0.0
H142 H 0.52343 0.00207 0.13688 0.0
H143 H 0.54504 -9e-05 0.21615 0.0
H144 H 0.60433 0.9953 0.12795 0.0
H145 H 0.58322 0.99776 0.04813 0.0
C146 C 0.46008 0.92172 0.89539 0.0
C147 C 0.4736 0.9123 0.86586 0.0
C148 C 0.47376 0.94305 0.92793 0.0
C149 C 0.50124 0.95551 0.93135 0.0
C150 C 0.51475 0.94528 0.90422 0.0
C151 C 0.501 0.9238 0.8715 0.0
C152 C 0.51555 0.98016 0.96082 0.0
C153 C 0.52962 0.98072 0.00457 0.0
C154 C 0.51279 0.00213 0.94873 0.0
C155 C 0.49914 0.00303 0.90159 0.0
C156 C 0.50692 -0.00132 0.85342 0.0
C157 C 0.49359 -0.00111 0.8093 0.0
C158 C 0.47254 0.00362 0.8128 0.0
C159 C 0.46483 0.00821 0.86044 0.0
C160 C 0.47807 0.00797 0.90469 0.0
C161 C 0.57421 0.08036 0.11887 0.0
C162 C 0.55449 0.0855 0.13588 0.0
C163 C 0.56829 0.06038 0.08325 0.0
C164 C 0.54254 0.04518 0.06455 0.0
C165 C 0.523 0.05058 0.08118 0.0
C166 C 0.5289 0.07051 0.1164 0.0
C167 C 0.53538 0.0234 0.02792 0.0
C168 C 0.52272 0.02343 0.98247 0.0
C169 C 0.53935 0.00199 0.03868 0.0
C170 C 0.55195 0.00043 0.08661 0.0
C171 C 0.54119 0.00081 0.13442 0.0
C172 C 0.55332 -0.00051 0.17944 0.0
C173 C 0.57609 0.99756 0.17709 0.0
C174 C 0.58673 0.99686 0.12971 0.0
C175 C 0.57469 0.9982 0.08458 0.0
H176 H 0.58546 0.99654 0.21198 0.0
H177 H 0.46223 0.00376 0.77861 0.0
H178 H 0.51483 0.57075 0.36881 0.0
H179 H 0.54104 0.55905 0.31299 0.0
H180 H 0.49202 0.5529 0.18507 0.0
H181 H 0.46598 0.56481 0.24005 0.0
H182 H 0.50215 0.50464 0.24262 0.0
H183 H 0.53416 0.58948 0.14487 0.0
H184 H 0.55837 0.63795 0.14446 0.0
H185 H 0.62539 0.63844 0.21168 0.0
H186 H 0.60136 0.58993 0.21305 0.0
H187 H 0.51642 0.45812 0.01058 0.0
H188 H 0.51004 0.48226 0.07921 0.0
H189 H 0.59257 0.51975 0.11657 0.0
H190 H 0.59929 0.49584 0.04637 0.0
H191 H 0.57495 0.55457 0.11992 0.0
H192 H 0.54869 0.4713 0.19284 0.0
H193 H 0.52641 0.42299 0.19776 0.0
H194 H 0.45126 0.41855 0.18757 0.0
H195 H 0.47308 0.46682 0.18182 0.0
C196 C 0.51018 0.56774 0.32844 0.0
C197 C 0.48828 0.56856 0.30878 0.0
C198 C 0.52518 0.56111 0.2967 0.0
C199 C 0.51856 0.55543 0.245 0.0
C200 C 0.49765 0.55768 0.22476 0.0
C201 C 0.48274 0.56438 0.25628 0.0
C202 C 0.53016 0.54287 0.21395 0.0
C203 C 0.51809 0.51546 0.21578 0.0
C204 C 0.55157 0.55719 0.18068 0.0
C205 C 0.56587 0.5862 0.17973 0.0
C206 C 0.55393 0.59995 0.16009 0.0
C207 C 0.56765 0.62741 0.15953 0.0
C208 C 0.59336 0.64127 0.17822 0.0
C209 C 0.60545 0.62769 0.19735 0.0
C210 C 0.5918 0.60023 0.19802 0.0
C211 C 0.53327 0.47145 0.03336 0.0
C212 C 0.55833 0.47493 0.02341 0.0
C213 C 0.52956 0.48518 0.07275 0.0
C214 C 0.55072 0.5024 0.10369 0.0
C215 C 0.57596 0.5064 0.09333 0.0
C216 C 0.57974 0.49272 0.05341 0.0
C217 C 0.54595 0.51602 0.14647 0.0
C218 C 0.55935 0.54361 0.14729 0.0
C219 C 0.52586 0.5018 0.18281 0.0
C220 C 0.51256 0.47272 0.1867 0.0
C221 C 0.52742 0.46003 0.19136 0.0
C222 C 0.51486 0.43264 0.19432 0.0
C223 C 0.48744 0.41771 0.19293 0.0
C224 C 0.4725 0.43014 0.18868 0.0
C225 C 0.48496 0.45752 0.18565 0.0
H226 H 0.47776 0.39651 0.19521 0.0
H227 H 0.60396 0.66253 0.17773 0.0
H228 H 0.8963 0.49544 0.4403 0.0
H229 H 0.93081 0.52151 0.37737 0.0
H230 H 0.98248 0.49888 0.45008 0.0
H231 H 0.94803 0.47233 0.51184 0.0
H232 H 0.00504 0.55612 0.42283 0.0
H233 H 0.95472 0.46631 0.35512 0.0
H234 H 0.91346 0.42766 0.3268 0.0
H235 H 0.90191 0.47514 0.21649 0.0
H236 H 0.94296 0.51417 0.24476 0.0
H237 H 0.10561 0.56658 0.26366 0.0
H238 H 0.06998 0.55767 0.32264 0.0
H239 H 0.02394 0.56163 0.19775 0.0
H240 H 0.05918 0.56917 0.13812 0.0
H241 H 0.99505 0.52059 0.2472 0.0
H242 H 0.0488 0.60841 0.30021 0.0
H243 H 0.089 0.64855 0.3272 0.0
H244 H 0.0931 0.60926 0.46237 0.0
H245 H 0.05314 0.56874 0.43587 0.0
C246 C 0.91508 0.49617 0.44285 0.0
C247 C 0.91951 0.48177 0.48056 0.0
C248 C 0.93471 0.51106 0.4071 0.0
C249 C 0.95912 0.51212 0.40944 0.0
C250 C 0.96379 0.49837 0.44798 0.0
C251 C 0.94405 0.48309 0.4829 0.0
C252 C 0.97945 0.52615 0.37012 0.0
C253 C 0.00302 0.5485 0.38432 0.0
C254 C 0.97622 0.51665 0.31958 0.0
C255 C 0.95167 0.49319 0.30251 0.0
C256 C 0.94323 0.46855 0.3252 0.0
C257 C 0.91993 0.44657 0.30908 0.0
C258 C 0.90502 0.44896 0.27 0.0
C259 C 0.91344 0.47333 0.24684 0.0
C260 C 0.93672 0.49538 0.26289 0.0
C261 C 0.08811 0.5661 0.24896 0.0
C262 C 0.08509 0.56846 0.19636 0.0
C263 C 0.06776 0.56117 0.2828 0.0
C264 C 0.04426 0.55925 0.26491 0.0
C265 C 0.04181 0.56297 0.21256 0.0
C266 C 0.06198 0.56737 0.17854 0.0
C267 C 0.02138 0.55048 0.29988 0.0
C268 C 0.99718 0.52893 0.28506 0.0
C269 C 0.02394 0.56111 0.34957 0.0
C270 C 0.048 0.58546 0.36586 0.0
C271 C 0.05836 0.60826 0.33552 0.0
C272 C 0.0811 0.6311 0.35077 0.0
C273 C 0.09361 0.63145 0.39644 0.0
C274 C 0.08338 0.60897 0.42701 0.0
C275 C 0.06065 0.58606 0.41193 0.0
H276 H 0.11121 0.64915 0.40817 0.0
H277 H 0.88698 0.43193 0.25755 0.0
H278 H 0.49099 0.08726 0.35769 0.0
H279 H 0.46599 0.05017 0.41614 0.0
H280 H 0.53248 0.03789 0.42663 0.0
H281 H 0.55722 0.07439 0.36833 0.0
H282 H 0.48773 0.99277 0.40746 0.0
H283 H 0.51686 0.06733 0.52258 0.0
H284 H 0.51969 0.10847 0.55245 0.0
H285 H 0.43555 0.06962 0.56467 0.0
H286 H 0.43222 0.02831 0.53423 0.0
H287 H 0.48573 0.92659 0.62744 0.0
H288 H 0.4943 0.96014 0.56367 0.0
H289 H 0.41474 0.94502 0.57879 0.0
H290 H 0.40587 0.91103 0.64323 0.0
H291 H 0.45452 -0.00014 0.57773 0.0
H292 H 0.4268 0.92313 0.47683 0.0
H293 H 0.42511 0.88213 0.44977 0.0
H294 H 0.50719 0.92515 0.41147 0.0
H295 H 0.50949 0.96637 0.43905 0.0
C296 C 0.50025 0.07671 0.37283 0.0
C297 C 0.52601 0.08364 0.35839 0.0
C298 C 0.48599 0.05558 0.40618 0.0
C299 C 0.49739 0.04127 0.42561 0.0
C300 C 0.52324 0.04854 0.41179 0.0
C301 C 0.5374 0.06949 0.37859 0.0
C302 C 0.48263 0.01827 0.45954 0.0
C303 C 0.48046 0.99433 0.44469 0.0
C304 C 0.47224 0.02003 0.50725 0.0
C305 C 0.47427 0.04485 0.52548 0.0
C306 C 0.49895 0.06763 0.53119 0.0
C307 C 0.50065 0.09096 0.54832 0.0
C308 C 0.47781 0.09169 0.56027 0.0
C309 C 0.45322 0.06905 0.55527 0.0
C310 C 0.45142 0.04568 0.5381 0.0
C311 C 0.46999 0.93032 0.61728 0.0
C312 C 0.44508 0.91609 0.64009 0.0
C313 C 0.47492 0.94947 0.58075 0.0
C314 C 0.45507 0.95482 0.56621 0.0
C315 C 0.43025 0.94105 0.58948 0.0
C316 C 0.42521 0.92163 0.62601 0.0
C317 C 0.46079 0.97485 0.5264 0.0
C318 C 0.46117 0.99813 0.53998 0.0
C319 C 0.46963 0.97257 0.47744 0.0
C320 C 0.46832 0.94785 0.46023 0.0
C321 C 0.44453 0.92383 0.46294 0.0
C322 C 0.44346 0.90055 0.44747 0.0
C323 C 0.46603 0.90103 0.42896 0.0
C324 C 0.48972 0.92481 0.42579 0.0
C325 C 0.4909 0.94815 0.44126 0.0
H326 H 0.46517 0.88298 0.41702 0.0
H327 H 0.47917 0.10977 0.57354 0.0
H328 H 0.51507 0.46537 0.82387 0.0
H329 H 0.48775 0.46851 0.75714 0.0
H330 H 0.48945 0.40612 0.67356 0.0
H331 H 0.51661 0.40247 0.74134 0.0
H332 H 0.50318 0.45428 0.61613 0.0
H333 H 0.43432 0.3903 0.71912 0.0
H334 H 0.41056 0.37009 0.79909 0.0
H335 H 0.40083 0.43677 0.82686 0.0
H336 H 0.4249 0.45759 0.74744 0.0
H337 H 0.42675 0.48047 0.44157 0.0
H338 H 0.43645 0.45272 0.49689 0.0
H339 H 0.43737 0.49758 0.62817 0.0
H340 H 0.42734 0.52507 0.57336 0.0
H341 H 0.41627 0.44603 0.65187 0.0
H342 H 0.49345 0.5136 0.56346 0.0
H343 H 0.51885 0.53638 0.48637 0.0
H344 H 0.51446 0.46502 0.43419 0.0
H345 H 0.48867 0.44171 0.51071 0.0
C346 C 0.50952 0.45218 0.79148 0.0
C347 C 0.51797 0.4337 0.78765 0.0
C348 C 0.49381 0.45391 0.75355 0.0
C349 C 0.48646 0.4374 0.71076 0.0
C350 C 0.49484 0.41889 0.70657 0.0
C351 C 0.51026 0.41682 0.74519 0.0
C352 C 0.47117 0.4409 0.6697 0.0
C353 C 0.48381 0.45173 0.62318 0.0
C354 C 0.44617 0.43801 0.67958 0.0
C355 C 0.43155 0.42556 0.72736 0.0
C356 C 0.42729 0.40075 0.74245 0.0
C357 C 0.41373 0.38917 0.78767 0.0
C358 C 0.40421 0.40215 0.81806 0.0
C359 C 0.40821 0.42673 0.80326 0.0
C360 C 0.42177 0.43841 0.75809 0.0
C361 C 0.42844 0.48402 0.48238 0.0
C362 C 0.4266 0.50511 0.50315 0.0
C363 C 0.43404 0.4682 0.51388 0.0
C364 C 0.43802 0.47336 0.56648 0.0
C365 C 0.43439 0.49327 0.58766 0.0
C366 C 0.42877 0.50904 0.55626 0.0
C367 C 0.44863 0.46014 0.59897 0.0
C368 C 0.4352 0.44769 0.64399 0.0
C369 C 0.47306 0.46178 0.58798 0.0
C370 C 0.48886 0.47585 0.5424 0.0
C371 C 0.49776 0.50273 0.53536 0.0
C372 C 0.51223 0.51574 0.49181 0.0
C373 C 0.51818 0.50213 0.45531 0.0
C374 C 0.50977 0.47551 0.46243 0.0
C375 C 0.49522 0.46239 0.50587 0.0
H376 H 0.52937 0.51223 0.4216 0.0
H377 H 0.39372 0.39315 0.85306 0.0
H378 H 0.16453 0.53565 0.24813 0.0
H379 H 0.19636 0.52765 0.29319 0.0
H380 H 0.22572 0.51739 0.14892 0.0
H381 H 0.19342 0.5247 0.10363 0.0
H382 H 0.22707 0.48495 0.22075 0.0
H383 H 0.25452 0.57688 0.20699 0.0
H384 H 0.24987 0.61608 0.21748 0.0
H385 H 0.24366 0.60464 0.38012 0.0
H386 H 0.2479 0.56512 0.37049 0.0
H387 H 0.36146 0.53021 0.27885 0.0
H388 H 0.31875 0.52116 0.24609 0.0
H389 H 0.2958 0.53076 0.39766 0.0
H390 H 0.33867 0.54009 0.43065 0.0
H391 H 0.28839 0.56028 0.32864 0.0
H392 H 0.26673 0.47051 0.34099 0.0
H393 H 0.27292 0.43241 0.32764 0.0
H394 H 0.27021 0.44084 0.16507 0.0
H395 H 0.26438 0.47925 0.17741 0.0
C396 C 0.1774 0.53114 0.22605 0.0
C397 C 0.17674 0.53111 0.17237 0.0
C398 C 0.19561 0.52664 0.25184 0.0
C399 C 0.21379 0.5225 0.22437 0.0
C400 C 0.21195 0.52065 0.17086 0.0
C401 C 0.19352 0.52489 0.14503 0.0
C402 C 0.23621 0.52266 0.25091 0.0
C403 C 0.24058 0.50145 0.24416 0.0
C404 C 0.2536 0.54404 0.28207 0.0
C405 C 0.25122 0.56789 0.28797 0.0
C406 C 0.25197 0.58262 0.24495 0.0
C407 C 0.24943 0.60491 0.25075 0.0
C408 C 0.24639 0.6128 0.29943 0.0
C409 C 0.24597 0.59847 0.34243 0.0
C410 C 0.24844 0.57613 0.33683 0.0
C411 C 0.34717 0.53 0.30535 0.0
C412 C 0.35342 0.53597 0.35727 0.0
C413 C 0.3227 0.52468 0.28662 0.0
C414 C 0.30401 0.5251 0.3195 0.0
C415 C 0.30993 0.53027 0.37167 0.0
C416 C 0.33439 0.53556 0.39046 0.0
C417 C 0.27936 0.52257 0.29855 0.0
C418 C 0.27467 0.54351 0.30603 0.0
C419 C 0.26192 0.50107 0.26773 0.0
C420 C 0.26531 0.4779 0.26015 0.0
C421 C 0.26765 0.46437 0.30238 0.0
C422 C 0.27106 0.44269 0.295 0.0
C423 C 0.27201 0.43424 0.24554 0.0
C424 C 0.26949 0.44742 0.20336 0.0
C425 C 0.26609 0.46913 0.21053 0.0
H426 H 0.27465 0.41745 0.2399 0.0
H427 H 0.24444 0.63006 0.30384 0.0
H428 H 0.61855 0.18364 0.39969 0.0
H429 H 0.65766 0.21649 0.4447 0.0
H430 H 0.69961 0.24137 0.30142 0.0
H431 H 0.66081 0.20742 0.25663 0.0
H432 H 0.73178 0.24357 0.37095 0.0
H433 H 0.67046 0.27473 0.36087 0.0
H434 H 0.62779 0.27285 0.37155 0.0
H435 H 0.63205 0.26507 0.53398 0.0
H436 H 0.67461 0.26657 0.52418 0.0
H437 H 0.82332 0.37617 0.44476 0.0
H438 H 0.7885 0.33593 0.40568 0.0
H439 H 0.75808 0.30451 0.55522 0.0
H440 H 0.79311 0.3446 0.59467 0.0
H441 H 0.7208 0.30462 0.48574 0.0
H442 H 0.78584 0.27764 0.49175 0.0
H443 H 0.82945 0.28239 0.47612 0.0
H444 H 0.81928 0.28627 0.31443 0.0
H445 H 0.77575 0.28192 0.32913 0.0
C446 C 0.6362 0.196 0.3779 0.0
C447 C 0.63665 0.19323 0.32469 0.0
C448 C 0.65851 0.21485 0.40359 0.0
C449 C 0.68141 0.23191 0.37634 0.0
C450 C 0.68215 0.22854 0.32329 0.0
C451 C 0.65998 0.20922 0.2977 0.0
C452 C 0.7042 0.25379 0.4029 0.0
C453 C 0.72939 0.25706 0.39562 0.0
C454 C 0.70112 0.27127 0.43568 0.0
C455 C 0.67559 0.2705 0.44173 0.0
C456 C 0.66221 0.27245 0.39882 0.0
C457 C 0.63806 0.27147 0.40472 0.0
C458 C 0.62718 0.26877 0.4534 0.0
C459 C 0.64048 0.26712 0.49629 0.0
C460 C 0.66463 0.26806 0.49059 0.0
C461 C 0.80944 0.36052 0.46932 0.0
C462 C 0.81083 0.3635 0.52272 0.0
C463 C 0.78964 0.33755 0.44697 0.0
C464 C 0.77082 0.31729 0.47763 0.0
C465 C 0.77251 0.31995 0.531 0.0
C466 C 0.79253 0.34279 0.55343 0.0
C467 C 0.74822 0.29429 0.45376 0.0
C468 C 0.72309 0.29094 0.46138 0.0
C469 C 0.75148 0.27717 0.42052 0.0
C470 C 0.77761 0.27968 0.41159 0.0
C471 C 0.79299 0.27973 0.45289 0.0
C472 C 0.81768 0.28231 0.44419 0.0
C473 C 0.82715 0.2847 0.39433 0.0
C474 C 0.81193 0.28444 0.35304 0.0
C475 C 0.78723 0.28189 0.36153 0.0
H476 H 0.84627 0.28669 0.38767 0.0
H477 H 0.60848 0.26802 0.45789 0.0
H478 H 0.42763 0.80849 0.59934 0.0
H479 H 0.43255 0.77496 0.55377 0.0
H480 H 0.47786 0.7704 0.67918 0.0
H481 H 0.47349 0.80452 0.72468 0.0
H482 H 0.49773 0.76657 0.58818 0.0
H483 H 0.41381 0.72613 0.66919 0.0
H484 H 0.37064 0.72065 0.69231 0.0
H485 H 0.3473 0.70801 0.53461 0.0
H486 H 0.3906 0.71399 0.51038 0.0
H487 H 0.47189 0.63606 0.52954 0.0
H488 H 0.47655 0.67589 0.56926 0.0
H489 H 0.43643 0.68662 0.44141 0.0
H490 H 0.43176 0.64688 0.40141 0.0
H491 H 0.41491 0.68737 0.53526 0.0
H492 H 0.50053 0.72738 0.45647 0.0
H493 H 0.54391 0.73226 0.43749 0.0
H494 H 0.5636 0.74347 0.59704 0.0
H495 H 0.52016 0.73829 0.61707 0.0
C496 C 0.43885 0.80053 0.61705 0.0
C497 C 0.44995 0.8089 0.66578 0.0
C498 C 0.4416 0.78134 0.591 0.0
C499 C 0.45515 0.76985 0.6135 0.0
C500 C 0.46725 0.77896 0.66123 0.0
C501 C 0.46467 0.79837 0.68721 0.0
C502 C 0.45542 0.74741 0.5882 0.0
C503 C 0.47964 0.74911 0.57712 0.0
C504 C 0.43179 0.72472 0.57346 0.0
C505 C 0.40557 0.72076 0.58791 0.0
C506 C 0.39955 0.72237 0.63937 0.0
C507 C 0.37504 0.71916 0.65269 0.0
C508 C 0.35624 0.71401 0.61495 0.0
C509 C 0.3619 0.71202 0.5638 0.0
C510 C 0.38643 0.71533 0.55025 0.0
C511 C 0.46444 0.64714 0.50954 0.0
C512 C 0.45139 0.63834 0.46246 0.0
C513 C 0.46717 0.66991 0.5322 0.0
C514 C 0.45686 0.68419 0.5082 0.0
C515 C 0.44451 0.67584 0.46051 0.0
C516 C 0.44194 0.6532 0.43766 0.0
C517 C 0.45721 0.70669 0.53444 0.0
C518 C 0.43303 0.70488 0.54609 0.0
C519 C 0.48084 0.72902 0.55032 0.0
C520 C 0.50698 0.73219 0.53831 0.0
C521 C 0.51401 0.73065 0.48756 0.0
C522 C 0.53863 0.73352 0.4766 0.0
C523 C 0.55647 0.7381 0.51604 0.0
C524 C 0.54975 0.73989 0.56653 0.0
C525 C 0.52514 0.73701 0.5777 0.0
H526 H 0.57552 0.74032 0.50748 0.0
H527 H 0.33727 0.71152 0.62533 0.0
H528 H 0.636 0.4803 0.78067 0.0
H529 H 0.67692 0.48901 0.73903 0.0
H530 H 0.69542 0.4554 0.86815 0.0
H531 H 0.65486 0.44721 0.91044 0.0
H532 H 0.73923 0.49653 0.83048 0.0
H533 H 0.66428 0.41853 0.76274 0.0
H534 H 0.6207 0.39359 0.72205 0.0
H535 H 0.64949 0.44328 0.58963 0.0
H536 H 0.69318 0.46875 0.6299 0.0
H537 H 0.81243 0.44186 0.72889 0.0
H538 H 0.78032 0.4514 0.76765 0.0
H539 H 0.77475 0.48624 0.62638 0.0
H540 H 0.80691 0.47651 0.58701 0.0
H541 H 0.72684 0.45128 0.66411 0.0
H542 H 0.80458 0.52484 0.7291 0.0
H543 H 0.84799 0.54776 0.7709 0.0
H544 H 0.81421 0.50482 0.90948 0.0
H545 H 0.77064 0.48135 0.86831 0.0
C546 C 0.64903 0.47522 0.80057 0.0
C547 C 0.64212 0.46282 0.84856 0.0
C548 C 0.67236 0.48013 0.77667 0.0
C549 C 0.68897 0.47239 0.80006 0.0
C550 C 0.68286 0.46146 0.84933 0.0
C551 C 0.65964 0.45673 0.8734 0.0
C552 C 0.71148 0.4736 0.77183 0.0
C553 C 0.73655 0.48659 0.79418 0.0
C554 C 0.70807 0.4611 0.7239 0.0
C555 C 0.68188 0.44573 0.69956 0.0
C556 C 0.66125 0.42425 0.7251 0.0
C557 C 0.63655 0.41001 0.7021 0.0
C558 C 0.63231 0.4169 0.65335 0.0
C559 C 0.65279 0.438 0.62744 0.0
C560 C 0.67752 0.45234 0.65032 0.0
C561 C 0.80457 0.45177 0.70615 0.0
C562 C 0.81213 0.45841 0.65488 0.0
C563 C 0.78634 0.45737 0.72848 0.0
C564 C 0.77538 0.46982 0.7001 0.0
C565 C 0.78309 0.47674 0.64901 0.0
C566 C 0.80145 0.4712 0.62662 0.0
C567 C 0.75457 0.47386 0.7231 0.0
C568 C 0.72973 0.46174 0.69985 0.0
C569 C 0.75819 0.48696 0.77036 0.0
C570 C 0.78434 0.50121 0.79547 0.0
C571 C 0.80642 0.52015 0.76838 0.0
C572 C 0.83106 0.53326 0.79199 0.0
C573 C 0.83386 0.52772 0.84278 0.0
C574 C 0.81201 0.50909 0.87013 0.0
C575 C 0.78732 0.49591 0.8467 0.0
H576 H 0.85296 0.53788 0.86097 0.0
H577 H 0.61317 0.40585 0.6356 0.0
H578 H 0.38343 0.78085 0.84806 0.0
H579 H 0.34387 0.74647 0.88929 0.0
H580 H 0.29987 0.78253 0.83527 0.0
H581 H 0.33962 0.81717 0.79333 0.0
H582 H 0.29143 0.76764 0.94025 0.0
H583 H 0.28941 0.72983 0.77803 0.0
H584 H 0.30675 0.71663 0.70496 0.0
H585 H 0.32157 0.6669 0.80324 0.0
H586 H 0.30476 0.68014 0.87712 0.0
H587 H 0.17237 0.65228 0.02396 0.0
H588 H 0.20557 0.69012 0.97556 0.0
H589 H 0.2605 0.66219 0.99547 0.0
H590 H 0.22737 0.62424 0.04267 0.0
H591 H 0.25861 0.67399 0.89852 0.0
H592 H 0.26574 0.7157 0.0618 0.0
H593 H 0.24906 0.72905 0.13574 0.0
H594 H 0.22506 0.77137 0.03616 0.0
H595 H 0.24131 0.75798 0.96151 0.0
C596 C 0.36535 0.78149 0.84484 0.0
C597 C 0.36456 0.80164 0.81739 0.0
C598 C 0.34276 0.7618 0.86829 0.0
C599 C 0.31895 0.76188 0.86492 0.0
C600 C 0.31809 0.78214 0.83812 0.0
C601 C 0.34073 0.8018 0.81412 0.0
C602 C 0.29519 0.74071 0.88994 0.0
C603 C 0.28385 0.74715 0.93057 0.0
C604 C 0.28566 0.71404 0.87759 0.0
C605 C 0.29595 0.70612 0.83324 0.0
C606 C 0.29659 0.71627 0.78419 0.0
C607 C 0.30629 0.70874 0.74259 0.0
C608 C 0.31525 0.69094 0.74947 0.0
C609 C 0.3146 0.68068 0.79798 0.0
C610 C 0.30497 0.68817 0.83972 0.0
C611 C 0.19165 0.65445 0.01851 0.0
C612 C 0.19729 0.63531 0.03692 0.0
C613 C 0.2106 0.67607 0.99092 0.0
C614 C 0.23553 0.67899 0.9819 0.0
C615 C 0.24135 0.66025 0.00166 0.0
C616 C 0.22243 0.63863 0.02883 0.0
C617 C 0.25538 0.70082 0.95012 0.0
C618 C 0.26593 0.69447 0.90793 0.0
C619 C 0.26419 0.72752 0.9612 0.0
C620 C 0.25445 0.73558 0.00604 0.0
C621 C 0.2567 0.72766 0.05563 0.0
C622 C 0.24737 0.73527 0.09768 0.0
C623 C 0.23593 0.75097 0.09064 0.0
C624 C 0.23387 0.75916 0.04154 0.0
C625 C 0.24315 0.75158 -0.00064 0.0
H626 H 0.22872 0.75685 0.12323 0.0
H627 H 0.32261 0.68501 0.7172 0.0
H628 H 0.56824 0.35065 0.91053 0.0
H629 H 0.56166 0.3111 0.95417 0.0
H630 H 0.50884 0.31719 0.06091 0.0
H631 H 0.51609 0.35736 0.01827 0.0
H632 H 0.54266 0.30972 0.11077 0.0
H633 H 0.48681 0.26718 0.96873 0.0
H634 H 0.47385 0.25867 0.87805 0.0
H635 H 0.53527 0.24076 0.84951 0.0
H636 H 0.54885 0.24951 0.93987 0.0
H637 H 0.52051 0.18979 0.22759 0.0
H638 H 0.51167 0.22112 0.18195 0.0
H639 H 0.57001 0.23242 0.06901 0.0
H640 H 0.57875 0.20119 0.11392 0.0
H641 H 0.52557 0.22739 0.02514 0.0
H642 H 0.58444 0.27608 0.1648 0.0
H643 H 0.59725 0.28462 0.2556 0.0
H644 H 0.52859 0.29042 0.2882 0.0
H645 H 0.5152 0.28155 0.19765 0.0
C646 C 0.5549 0.34333 0.94279 0.0
C647 C 0.54271 0.35709 0.96107 0.0
C648 C 0.55103 0.32061 0.9676 0.0
C649 C 0.53451 0.31095 0.01058 0.0
C650 C 0.52166 0.32425 0.02785 0.0
C651 C 0.52575 0.34714 0.00337 0.0
C652 C 0.53241 0.28826 0.03972 0.0
C653 C 0.53831 0.29149 0.09218 0.0
C654 C 0.52712 0.26457 0.01549 0.0
C655 C 0.51895 0.25917 0.96108 0.0
C656 C 0.49767 0.2616 0.94306 0.0
C657 C 0.4902 0.2567 0.89171 0.0
C658 C 0.50375 0.24922 0.85803 0.0
C659 C 0.52479 0.24656 0.87565 0.0
C660 C 0.53235 0.25144 0.92695 0.0
C661 C 0.53135 0.19893 0.19295 0.0
C662 C 0.5504 0.19317 0.17445 0.0
C663 C 0.52631 0.2168 0.16697 0.0
C664 C 0.54029 0.22916 0.12223 0.0
C665 C 0.55894 0.22303 0.10334 0.0
C666 C 0.56401 0.20529 0.12924 0.0
C667 C 0.53636 0.24921 0.09558 0.0
C668 C 0.52938 0.24546 0.04369 0.0
C669 C 0.54053 0.27237 0.12031 0.0
C670 C 0.54867 0.27784 0.17463 0.0
C671 C 0.57198 0.27897 0.19142 0.0
C672 C 0.57935 0.28391 0.24281 0.0
C673 C 0.5637 0.28798 0.27768 0.0
C674 C 0.54067 0.28721 0.26118 0.0
C675 C 0.53318 0.28224 0.20983 0.0
H676 H 0.56944 0.2918 0.31745 0.0
H677 H 0.49794 0.24544 0.81829 0.0
loop_
_geom_bond_atom_site_label_1
_geom_bond_atom_site_label_2
_geom_bond_distance
_geom_bond_site_symmetry_2
_ccdc_geom_bond_type
In0 O1 2.294 . S
In0 O2 2.326 . S
In0 O6 2.266 . S
In0 O7 2.326 . S
In0 O8 2.266 . S
In0 O9 2.326 . S
In0 O11 2.294 . S
In0 O12 2.326 . S
O1 In0 2.294 . S
O1 C10 1.240 . S
O2 In0 2.326 . S
O2 C10 1.252 . S
C3 O6 1.252 . S
C3 O7 1.260 . S
C4 O11 1.240 . S
C4 O12 1.252 . S
C5 O8 1.252 . S
C5 O9 1.260 . S
O6 In0 2.266 . S
O6 C3 1.252 . S
O7 In0 2.326 . S
O7 C3 1.260 . S
O8 In0 2.266 . S
O8 C5 1.252 . S
O9 In0 2.326 . S
O9 C5 1.260 . S
C10 O1 1.240 . S
C10 O2 1.252 . S
O11 In0 2.294 . S
O11 C4 1.240 . S
O12 In0 2.326 . S
O12 C4 1.252 . S
In13 O14 2.294 . S
In13 O15 2.326 . S
In13 O19 2.266 . S
In13 O20 2.326 . S
In13 O21 2.266 . S
In13 O22 2.326 . S
In13 O24 2.294 . S
In13 O25 2.326 . S
O14 In13 2.294 . S
O14 C23 1.240 . S
O15 In13 2.326 . S
O15 C23 1.252 . S
C16 O19 1.252 . S
C16 O20 1.260 . S
C17 O24 1.240 . S
C17 O25 1.252 . S
C18 O21 1.252 . S
C18 O22 1.260 . S
O19 In13 2.266 . S
O19 C16 1.252 . S
O20 In13 2.326 . S
O20 C16 1.260 . S
O21 In13 2.266 . S
O21 C18 1.252 . S
O22 In13 2.326 . S
O22 C18 1.260 . S
C23 O14 1.240 . S
C23 O15 1.252 . S
O24 In13 2.294 . S
O24 C17 1.240 . S
O25 In13 2.326 . S
O25 C17 1.252 . S
In26 O27 2.294 . S
In26 O28 2.326 . S
In26 O32 2.266 . S
In26 O33 2.326 . S
In26 O34 2.266 . S
In26 O35 2.326 . S
In26 O37 2.294 . S
In26 O38 2.326 . S
O27 In26 2.294 . S
O27 C36 1.240 . S
O28 In26 2.326 . S
O28 C36 1.252 . S
C29 O32 1.252 . S
C29 O33 1.260 . S
C30 O37 1.240 . S
C30 O38 1.252 . S
C31 O34 1.252 . S
C31 O35 1.260 . S
O32 In26 2.266 . S
O32 C29 1.252 . S
O33 In26 2.326 . S
O33 C29 1.260 . S
O34 In26 2.266 . S
O34 C31 1.252 . S
O35 In26 2.326 . S
O35 C31 1.260 . S
C36 O27 1.240 . S
C36 O28 1.252 . S
O37 In26 2.294 . S
O37 C30 1.240 . S
O38 In26 2.326 . S
O38 C30 1.252 . S
In39 O40 2.294 . S
In39 O41 2.326 . S
In39 O45 2.266 . S
In39 O46 2.326 . S
In39 O47 2.266 . S
In39 O48 2.326 . S
In39 O50 2.294 . S
In39 O51 2.326 . S
O40 In39 2.294 . S
O40 C49 1.240 . S
O41 In39 2.326 . S
O41 C49 1.252 . S
C42 O45 1.252 . S
C42 O46 1.260 . S
C43 O50 1.240 . S
C43 O51 1.252 . S
C44 O47 1.252 . S
C44 O48 1.260 . S
O45 In39 2.266 . S
O45 C42 1.252 . S
O46 In39 2.326 . S
O46 C42 1.260 . S
O47 In39 2.266 . S
O47 C44 1.252 . S
O48 In39 2.326 . S
O48 C44 1.260 . S
C49 O40 1.240 . S
C49 O41 1.252 . S
O50 In39 2.294 . S
O50 C43 1.240 . S
O51 In39 2.326 . S
O51 C43 1.252 . S
In52 O53 2.294 . S
In52 O54 2.326 . S
In52 O58 2.266 . S
In52 O59 2.326 . S
In52 O60 2.266 . S
In52 O61 2.326 . S
In52 O63 2.294 . S
In52 O64 2.326 . S
O53 In52 2.294 . S
O53 C62 1.240 . S
O54 In52 2.326 . S
O54 C62 1.252 . S
C55 O58 1.252 . S
C55 O59 1.260 . S
C56 O63 1.240 . S
C56 O64 1.252 . S
C57 O60 1.252 . S
C57 O61 1.260 . S
O58 In52 2.266 . S
O58 C55 1.252 . S
O59 In52 2.326 . S
O59 C55 1.260 . S
O60 In52 2.266 . S
O60 C57 1.252 . S
O61 In52 2.326 . S
O61 C57 1.260 . S
C62 O53 1.240 . S
C62 O54 1.252 . S
O63 In52 2.294 . S
O63 C56 1.240 . S
O64 In52 2.326 . S
O64 C56 1.252 . S
In65 O66 2.294 . S
In65 O67 2.326 . S
In65 O71 2.266 . S
In65 O72 2.326 . S
In65 O73 2.266 . S
In65 O74 2.326 . S
In65 O76 2.294 . S
In65 O77 2.326 . S
O66 In65 2.294 . S
O66 C75 1.240 . S
O67 In65 2.326 . S
O67 C75 1.252 . S
C68 O71 1.252 . S
C68 O72 1.260 . S
C69 O76 1.240 . S
C69 O77 1.252 . S
C70 O73 1.252 . S
C70 O74 1.260 . S
O71 In65 2.266 . S
O71 C68 1.252 . S
O72 In65 2.326 . S
O72 C68 1.260 . S
O73 In65 2.266 . S
O73 C70 1.252 . S
O74 In65 2.326 . S
O74 C70 1.260 . S
C75 O66 1.240 . S
C75 O67 1.252 . S
O76 In65 2.294 . S
O76 C69 1.240 . S
O77 In65 2.326 . S
O77 C69 1.252 . S
H78 C96 0.951 1_554 S
H79 C98 0.951 . S
H80 C100 0.950 . S
H81 C101 0.950 . S
H82 C103 0.950 . S
H83 C106 0.950 . S
H84 C107 0.950 . S
H85 C109 0.950 . S
H86 C110 0.950 1_655 S
H87 C111 0.951 . S
H88 C113 0.951 . S
H89 C115 0.950 . S
H90 C116 0.950 . S
H91 C118 0.950 . S
H92 C121 0.950 . S
H93 C122 0.950 . S
H94 C124 0.950 . S
H95 C125 0.950 1_455 S
C96 H78 0.951 1_556 S
C96 C97 1.366 . S
C96 C98 1.388 . S
C97 C96 1.366 . S
C97 C101 1.385 . S
C98 H79 0.951 . S
C98 C96 1.388 . S
C98 C99 1.366 . S
C99 C98 1.366 . S
C99 C100 1.414 . S
C99 C102 1.499 . S
C100 H80 0.950 . S
C100 C99 1.414 . S
C100 C101 1.374 . S
C101 H81 0.950 . S
C101 C97 1.385 . S
C101 C100 1.374 . S
C102 C99 1.499 . S
C102 C103 1.373 . S
C102 C104 1.389 . S
C103 H82 0.950 . S
C103 C102 1.373 . S
C103 C119 1.377 1_455 S
C104 C102 1.389 . S
C104 C105 1.524 . S
C104 C118 1.377 1_455 S
C105 C104 1.524 . S
C105 C106 1.397 . S
C105 C110 1.363 . S
C106 H83 0.950 . S
C106 C105 1.397 . S
C106 C107 1.334 . S
C107 H84 0.950 . S
C107 C106 1.334 . S
C107 C108 1.287 . S
C108 C107 1.287 . S
C108 C109 1.524 . S
C108 H127 0.913 . S
C109 H85 0.950 . S
C109 C108 1.524 . S
C109 C110 1.415 . S
C110 H86 0.950 1_455 S
C110 C105 1.363 . S
C110 C109 1.415 . S
C111 H87 0.951 . S
C111 C112 1.366 . S
C111 C113 1.388 . S
C112 C111 1.366 . S
C112 C116 1.385 . S
C113 H88 0.951 . S
C113 C111 1.388 . S
C113 C114 1.366 . S
C114 C113 1.366 . S
C114 C115 1.414 . S
C114 C117 1.499 . S
C115 H89 0.950 . S
C115 C114 1.414 . S
C115 C116 1.374 . S
C116 H90 0.950 . S
C116 C112 1.385 . S
C116 C115 1.374 . S
C117 C114 1.499 . S
C117 C118 1.373 . S
C117 C119 1.389 . S
C118 H91 0.950 . S
C118 C104 1.377 1_655 S
C118 C117 1.373 . S
C119 C103 1.377 1_655 S
C119 C117 1.389 . S
C119 C120 1.524 . S
C120 C119 1.524 . S
C120 C121 1.397 . S
C120 C125 1.363 . S
C121 H92 0.950 . S
C121 C120 1.397 . S
C121 C122 1.334 . S
C122 H93 0.950 . S
C122 C121 1.334 . S
C122 C123 1.287 . S
C123 C122 1.287 . S
C123 C124 1.524 . S
C123 H126 0.999 . S
C124 H94 0.950 . S
C124 C123 1.524 . S
C124 C125 1.415 . S
C125 H95 0.950 1_655 S
C125 C120 1.363 . S
C125 C124 1.415 . S
H126 C123 0.999 . S
H127 C108 0.913 . S
H128 C146 0.951 . S
H129 C148 0.951 . S
H130 C150 0.950 . S
H131 C151 0.950 . S
H132 C153 0.950 . S
H133 C156 0.950 . S
H134 C157 0.950 . S
H135 C159 0.950 . S
H136 C160 0.950 1_554 S
H137 C161 0.951 . S
H138 C163 0.951 . S
H139 C165 0.950 . S
H140 C166 0.950 . S
H141 C168 0.950 . S
H142 C171 0.950 . S
H143 C172 0.950 . S
H144 C174 0.950 . S
H145 C175 0.950 1_556 S
C146 H128 0.951 . S
C146 C147 1.366 . S
C146 C148 1.388 . S
C147 C146 1.366 . S
C147 C151 1.385 . S
C148 H129 0.951 . S
C148 C146 1.388 . S
C148 C149 1.366 . S
C149 C148 1.366 . S
C149 C150 1.414 . S
C149 C152 1.499 . S
C150 H130 0.950 . S
C150 C149 1.414 . S
C150 C151 1.374 . S
C151 H131 0.950 . S
C151 C147 1.385 . S
C151 C150 1.374 . S
C152 C149 1.499 . S
C152 C153 1.373 . S
C152 C154 1.389 . S
C153 H132 0.950 . S
C153 C152 1.373 . S
C153 C169 1.377 1_566 S
C154 C152 1.389 . S
C154 C155 1.524 . S
C154 C168 1.377 1_566 S
C155 C154 1.524 . S
C155 C156 1.397 . S
C155 C160 1.363 . S
C156 H133 0.950 . S
C156 C155 1.397 . S
C156 C157 1.334 . S
C157 H134 0.950 . S
C157 C156 1.334 . S
C157 C158 1.287 . S
C158 C157 1.287 . S
C158 C159 1.524 . S
C158 H177 0.913 . S
C159 H135 0.950 . S
C159 C158 1.524 . S
C159 C160 1.415 . S
C160 H136 0.950 1_556 S
C160 C155 1.363 . S
C160 C159 1.415 . S
C161 H137 0.951 . S
C161 C162 1.366 . S
C161 C163 1.388 . S
C162 C161 1.366 . S
C162 C166 1.385 . S
C163 H138 0.951 . S
C163 C161 1.388 . S
C163 C164 1.366 . S
C164 C163 1.366 . S
C164 C165 1.414 . S
C164 C167 1.499 . S
C165 H139 0.950 . S
C165 C164 1.414 . S
C165 C166 1.374 . S
C166 H140 0.950 . S
C166 C162 1.385 . S
C166 C165 1.374 . S
C167 C164 1.499 . S
C167 C168 1.373 . S
C167 C169 1.389 . S
C168 H141 0.950 . S
C168 C154 1.377 1_544 S
C168 C167 1.373 . S
C169 C153 1.377 1_544 S
C169 C167 1.389 . S
C169 C170 1.524 . S
C170 C169 1.524 . S
C170 C171 1.397 . S
C170 C175 1.363 . S
C171 H142 0.950 . S
C171 C170 1.397 . S
C171 C172 1.334 . S
C172 H143 0.950 . S
C172 C171 1.334 . S
C172 C173 1.287 . S
C173 C172 1.287 . S
C173 C174 1.524 . S
C173 H176 0.999 . S
C174 H144 0.950 . S
C174 C173 1.524 . S
C174 C175 1.415 . S
C175 H145 0.950 1_554 S
C175 C170 1.363 . S
C175 C174 1.415 . S
H176 C173 0.999 . S
H177 C158 0.913 . S
H178 C196 0.951 . S
H179 C198 0.951 . S
H180 C200 0.950 . S
H181 C201 0.950 . S
H182 C203 0.950 . S
H183 C206 0.950 . S
H184 C207 0.950 . S
H185 C209 0.950 . S
H186 C210 0.950 . S
H187 C211 0.951 1_556 S
H188 C213 0.951 . S
H189 C215 0.950 . S
H190 C216 0.950 . S
H191 C218 0.950 . S
H192 C221 0.950 . S
H193 C222 0.950 . S
H194 C224 0.950 . S
H195 C225 0.950 . S
C196 H178 0.951 . S
C196 C197 1.366 . S
C196 C198 1.388 . S
C197 C196 1.366 . S
C197 C201 1.385 . S
C198 H179 0.951 . S
C198 C196 1.388 . S
C198 C199 1.366 . S
C199 C198 1.366 . S
C199 C200 1.414 . S
C199 C202 1.499 . S
C200 H180 0.950 . S
C200 C199 1.414 . S
C200 C201 1.374 . S
C201 H181 0.950 . S
C201 C197 1.385 . S
C201 C200 1.374 . S
C202 C199 1.499 . S
C202 C203 1.373 . S
C202 C204 1.389 . S
C203 H182 0.950 . S
C203 C202 1.373 . S
C203 C219 1.377 . S
C204 C202 1.389 . S
C204 C205 1.524 . S
C204 C218 1.377 . S
C205 C204 1.524 . S
C205 C206 1.397 . S
C205 C210 1.363 . S
C206 H183 0.950 . S
C206 C205 1.397 . S
C206 C207 1.334 . S
C207 H184 0.950 . S
C207 C206 1.334 . S
C207 C208 1.287 . S
C208 C207 1.287 . S
C208 C209 1.524 . S
C208 H227 0.913 . S
C209 H185 0.950 . S
C209 C208 1.524 . S
C209 C210 1.415 . S
C210 H186 0.950 . S
C210 C205 1.363 . S
C210 C209 1.415 . S
C211 H187 0.951 1_554 S
C211 C212 1.366 . S
C211 C213 1.388 . S
C212 C211 1.366 . S
C212 C216 1.385 . S
C213 H188 0.951 . S
C213 C211 1.388 . S
C213 C214 1.366 . S
C214 C213 1.366 . S
C214 C215 1.414 . S
C214 C217 1.499 . S
C215 H189 0.950 . S
C215 C214 1.414 . S
C215 C216 1.374 . S
C216 H190 0.950 . S
C216 C212 1.385 . S
C216 C215 1.374 . S
C217 C214 1.499 . S
C217 C218 1.373 . S
C217 C219 1.389 . S
C218 H191 0.950 . S
C218 C204 1.377 . S
C218 C217 1.373 . S
C219 C203 1.377 . S
C219 C217 1.389 . S
C219 C220 1.524 . S
C220 C219 1.524 . S
C220 C221 1.397 . S
C220 C225 1.363 . S
C221 H192 0.950 . S
C221 C220 1.397 . S
C221 C222 1.334 . S
C222 H193 0.950 . S
C222 C221 1.334 . S
C222 C223 1.287 . S
C223 C222 1.287 . S
C223 C224 1.524 . S
C223 H226 0.999 . S
C224 H194 0.950 . S
C224 C223 1.524 . S
C224 C225 1.415 . S
C225 H195 0.950 . S
C225 C220 1.363 . S
C225 C224 1.415 . S
H226 C223 0.999 . S
H227 C208 0.913 . S
H228 C246 0.951 . S
H229 C248 0.951 . S
H230 C250 0.950 . S
H231 C251 0.950 . S
H232 C253 0.950 . S
H233 C256 0.950 . S
H234 C257 0.950 . S
H235 C259 0.950 . S
H236 C260 0.950 . S
H237 C261 0.951 . S
H238 C263 0.951 . S
H239 C265 0.950 . S
H240 C266 0.950 . S
H241 C268 0.950 . S
H242 C271 0.950 . S
H243 C272 0.950 . S
H244 C274 0.950 . S
H245 C275 0.950 . S
C246 H228 0.951 . S
C246 C247 1.366 . S
C246 C248 1.388 . S
C247 C246 1.366 . S
C247 C251 1.385 . S
C248 H229 0.951 . S
C248 C246 1.388 . S
C248 C249 1.366 . S
C249 C248 1.366 . S
C249 C250 1.414 . S
C249 C252 1.499 . S
C250 H230 0.950 . S
C250 C249 1.414 . S
C250 C251 1.374 . S
C251 H231 0.950 . S
C251 C247 1.385 . S
C251 C250 1.374 . S
C252 C249 1.499 . S
C252 C253 1.373 1_655 S
C252 C254 1.389 . S
C253 H232 0.950 . S
C253 C252 1.373 1_455 S
C253 C269 1.377 . S
C254 C252 1.389 . S
C254 C255 1.524 . S
C254 C268 1.377 . S
C255 C254 1.524 . S
C255 C256 1.397 . S
C255 C260 1.363 . S
C256 H233 0.950 . S
C256 C255 1.397 . S
C256 C257 1.334 . S
C257 H234 0.950 . S
C257 C256 1.334 . S
C257 C258 1.287 . S
C258 C257 1.287 . S
C258 C259 1.524 . S
C258 H277 0.913 . S
C259 H235 0.950 . S
C259 C258 1.524 . S
C259 C260 1.415 . S
C260 H236 0.950 . S
C260 C255 1.363 . S
C260 C259 1.415 . S
C261 H237 0.951 . S
C261 C262 1.366 . S
C261 C263 1.388 . S
C262 C261 1.366 . S
C262 C266 1.385 . S
C263 H238 0.951 . S
C263 C261 1.388 . S
C263 C264 1.366 . S
C264 C263 1.366 . S
C264 C265 1.414 . S
C264 C267 1.499 . S
C265 H239 0.950 . S
C265 C264 1.414 . S
C265 C266 1.374 . S
C266 H240 0.950 . S
C266 C262 1.385 . S
C266 C265 1.374 . S
C267 C264 1.499 . S
C267 C268 1.373 1_455 S
C267 C269 1.389 . S
C268 H241 0.950 . S
C268 C254 1.377 . S
C268 C267 1.373 1_655 S
C269 C253 1.377 . S
C269 C267 1.389 . S
C269 C270 1.524 . S
C270 C269 1.524 . S
C270 C271 1.397 . S
C270 C275 1.363 . S
C271 H242 0.950 . S
C271 C270 1.397 . S
C271 C272 1.334 . S
C272 H243 0.950 . S
C272 C271 1.334 . S
C272 C273 1.287 . S
C273 C272 1.287 . S
C273 C274 1.524 . S
C273 H276 0.999 . S
C274 H244 0.950 . S
C274 C273 1.524 . S
C274 C275 1.415 . S
C275 H245 0.950 . S
C275 C270 1.363 . S
C275 C274 1.415 . S
H276 C273 0.999 . S
H277 C258 0.913 . S
H278 C296 0.951 . S
H279 C298 0.951 . S
H280 C300 0.950 . S
H281 C301 0.950 . S
H282 C303 0.952 . S
H283 C306 0.950 . S
H284 C307 0.950 . S
H285 C309 0.950 . S
H286 C310 0.950 . S
H287 C311 0.951 . S
H288 C313 0.951 . S
H289 C315 0.950 . S
H290 C316 0.950 . S
H291 C318 0.952 . S
H292 C321 0.950 . S
H293 C322 0.950 . S
H294 C324 0.950 . S
H295 C325 0.950 . S
C296 H278 0.951 . S
C296 C297 1.366 . S
C296 C298 1.388 . S
C297 C296 1.366 . S
C297 C301 1.385 . S
C298 H279 0.951 . S
C298 C296 1.388 . S
C298 C299 1.366 . S
C299 C298 1.366 . S
C299 C300 1.414 . S
C299 C302 1.499 . S
C300 H280 0.950 . S
C300 C299 1.414 . S
C300 C301 1.374 . S
C301 H281 0.950 . S
C301 C297 1.385 . S
C301 C300 1.374 . S
C302 C299 1.499 . S
C302 C303 1.396 . S
C302 C304 1.389 . S
C303 H282 0.952 . S
C303 C302 1.396 . S
C303 C319 1.362 1_545 S
C304 C302 1.389 . S
C304 C305 1.524 . S
C304 C318 1.362 1_545 S
C305 C304 1.524 . S
C305 C306 1.397 . S
C305 C310 1.363 . S
C306 H283 0.950 . S
C306 C305 1.397 . S
C306 C307 1.334 . S
C307 H284 0.950 . S
C307 C306 1.334 . S
C307 C308 1.287 . S
C308 C307 1.287 . S
C308 C309 1.524 . S
C308 H327 0.913 . S
C309 H285 0.950 . S
C309 C308 1.524 . S
C309 C310 1.415 . S
C310 H286 0.950 . S
C310 C305 1.363 . S
C310 C309 1.415 . S
C311 H287 0.951 . S
C311 C312 1.366 . S
C311 C313 1.388 . S
C312 C311 1.366 . S
C312 C316 1.385 . S
C313 H288 0.951 . S
C313 C311 1.388 . S
C313 C314 1.366 . S
C314 C313 1.366 . S
C314 C315 1.414 . S
C314 C317 1.499 . S
C315 H289 0.950 . S
C315 C314 1.414 . S
C315 C316 1.374 . S
C316 H290 0.950 . S
C316 C312 1.385 . S
C316 C315 1.374 . S
C317 C314 1.499 . S
C317 C318 1.395 . S
C317 C319 1.389 . S
C318 H291 0.952 . S
C318 C304 1.362 1_565 S
C318 C317 1.395 . S
C319 C303 1.362 1_565 S
C319 C317 1.389 . S
C319 C320 1.524 . S
C320 C319 1.524 . S
C320 C321 1.397 . S
C320 C325 1.363 . S
C321 H292 0.950 . S
C321 C320 1.397 . S
C321 C322 1.334 . S
C322 H293 0.950 . S
C322 C321 1.334 . S
C322 C323 1.287 . S
C323 C322 1.287 . S
C323 C324 1.524 . S
C323 H326 0.999 . S
C324 H294 0.950 . S
C324 C323 1.524 . S
C324 C325 1.415 . S
C325 H295 0.950 . S
C325 C320 1.363 . S
C325 C324 1.415 . S
H326 C323 0.999 . S
H327 C308 0.913 . S
H328 C346 0.951 . S
H329 C348 0.951 . S
H330 C350 0.950 . S
H331 C351 0.950 . S
H332 C353 0.950 . S
H333 C356 0.950 . S
H334 C357 0.950 . S
H335 C359 0.950 . S
H336 C360 0.950 . S
H337 C361 0.951 . S
H338 C363 0.951 . S
H339 C365 0.950 . S
H340 C366 0.950 . S
H341 C368 0.950 . S
H342 C371 0.950 . S
H343 C372 0.950 . S
H344 C374 0.950 . S
H345 C375 0.950 . S
C346 H328 0.951 . S
C346 C347 1.366 . S
C346 C348 1.388 . S
C347 C346 1.366 . S
C347 C351 1.385 . S
C348 H329 0.951 . S
C348 C346 1.388 . S
C348 C349 1.366 . S
C349 C348 1.366 . S
C349 C350 1.414 . S
C349 C352 1.499 . S
C350 H330 0.950 . S
C350 C349 1.414 . S
C350 C351 1.374 . S
C351 H331 0.950 . S
C351 C347 1.385 . S
C351 C350 1.374 . S
C352 C349 1.499 . S
C352 C353 1.373 . S
C352 C354 1.389 . S
C353 H332 0.950 . S
C353 C352 1.373 . S
C353 C369 1.377 . S
C354 C352 1.389 . S
C354 C355 1.524 . S
C354 C368 1.377 . S
C355 C354 1.524 . S
C355 C356 1.397 . S
C355 C360 1.363 . S
C356 H333 0.950 . S
C356 C355 1.397 . S
C356 C357 1.334 . S
C357 H334 0.950 . S
C357 C356 1.334 . S
C357 C358 1.287 . S
C358 C357 1.287 . S
C358 C359 1.524 . S
C358 H377 0.913 . S
C359 H335 0.950 . S
C359 C358 1.524 . S
C359 C360 1.415 . S
C360 H336 0.950 . S
C360 C355 1.363 . S
C360 C359 1.415 . S
C361 H337 0.951 . S
C361 C362 1.366 . S
C361 C363 1.388 . S
C362 C361 1.366 . S
C362 C366 1.385 . S
C363 H338 0.951 . S
C363 C361 1.388 . S
C363 C364 1.366 . S
C364 C363 1.366 . S
C364 C365 1.414 . S
C364 C367 1.499 . S
C365 H339 0.950 . S
C365 C364 1.414 . S
C365 C366 1.374 . S
C366 H340 0.950 . S
C366 C362 1.385 . S
C366 C365 1.374 . S
C367 C364 1.499 . S
C367 C368 1.373 . S
C367 C369 1.389 . S
C368 H341 0.950 . S
C368 C354 1.377 . S
C368 C367 1.373 . S
C369 C353 1.377 . S
C369 C367 1.389 . S
C369 C370 1.524 . S
C370 C369 1.524 . S
C370 C371 1.397 . S
C370 C375 1.363 . S
C371 H342 0.950 . S
C371 C370 1.397 . S
C371 C372 1.334 . S
C372 H343 0.950 . S
C372 C371 1.334 . S
C372 C373 1.287 . S
C373 C372 1.287 . S
C373 C374 1.524 . S
C373 H376 0.999 . S
C374 H344 0.950 . S
C374 C373 1.524 . S
C374 C375 1.415 . S
C375 H345 0.950 . S
C375 C370 1.363 . S
C375 C374 1.415 . S
H376 C373 0.999 . S
H377 C358 0.913 . S
H378 C396 0.951 . S
H379 C398 0.951 . S
H380 C400 0.950 . S
H381 C401 0.950 . S
H382 C403 0.950 . S
H383 C406 0.950 . S
H384 C407 0.950 . S
H385 C409 0.950 . S
H386 C410 0.950 . S
H387 C411 0.951 . S
H388 C413 0.951 . S
H389 C415 0.950 . S
H390 C416 0.950 . S
H391 C418 0.950 . S
H392 C421 0.950 . S
H393 C422 0.950 . S
H394 C424 0.950 . S
H395 C425 0.950 . S
C396 H378 0.951 . S
C396 C397 1.366 . S
C396 C398 1.388 . S
C397 C396 1.366 . S
C397 C401 1.385 . S
C398 H379 0.951 . S
C398 C396 1.388 . S
C398 C399 1.366 . S
C399 C398 1.366 . S
C399 C400 1.414 . S
C399 C402 1.499 . S
C400 H380 0.950 . S
C400 C399 1.414 . S
C400 C401 1.374 . S
C401 H381 0.950 . S
C401 C397 1.385 . S
C401 C400 1.374 . S
C402 C399 1.499 . S
C402 C403 1.373 . S
C402 C404 1.389 . S
C403 H382 0.950 . S
C403 C402 1.373 . S
C403 C419 1.377 . S
C404 C402 1.389 . S
C404 C405 1.524 . S
C404 C418 1.377 . S
C405 C404 1.524 . S
C405 C406 1.397 . S
C405 C410 1.363 . S
C406 H383 0.950 . S
C406 C405 1.397 . S
C406 C407 1.334 . S
C407 H384 0.950 . S
C407 C406 1.334 . S
C407 C408 1.287 . S
C408 C407 1.287 . S
C408 C409 1.524 . S
C408 H427 0.913 . S
C409 H385 0.950 . S
C409 C408 1.524 . S
C409 C410 1.415 . S
C410 H386 0.950 . S
C410 C405 1.363 . S
C410 C409 1.415 . S
C411 H387 0.951 . S
C411 C412 1.366 . S
C411 C413 1.388 . S
C412 C411 1.366 . S
C412 C416 1.385 . S
C413 H388 0.951 . S
C413 C411 1.388 . S
C413 C414 1.366 . S
C414 C413 1.366 . S
C414 C415 1.414 . S
C414 C417 1.499 . S
C415 H389 0.950 . S
C415 C414 1.414 . S
C415 C416 1.374 . S
C416 H390 0.950 . S
C416 C412 1.385 . S
C416 C415 1.374 . S
C417 C414 1.499 . S
C417 C418 1.373 . S
C417 C419 1.389 . S
C418 H391 0.950 . S
C418 C404 1.377 . S
C418 C417 1.373 . S
C419 C403 1.377 . S
C419 C417 1.389 . S
C419 C420 1.524 . S
C420 C419 1.524 . S
C420 C421 1.397 . S
C420 C425 1.363 . S
C421 H392 0.950 . S
C421 C420 1.397 . S
C421 C422 1.334 . S
C422 H393 0.950 . S
C422 C421 1.334 . S
C422 C423 1.287 . S
C423 C422 1.287 . S
C423 C424 1.524 . S
C423 H426 0.999 . S
C424 H394 0.950 . S
C424 C423 1.524 . S
C424 C425 1.415 . S
C425 H395 0.950 . S
C425 C420 1.363 . S
C425 C424 1.415 . S
H426 C423 0.999 . S
H427 C408 0.913 . S
H428 C446 0.951 . S
H429 C448 0.951 . S
H430 C450 0.950 . S
H431 C451 0.950 . S
H432 C453 0.950 . S
H433 C456 0.950 . S
H434 C457 0.950 . S
H435 C459 0.950 . S
H436 C460 0.950 . S
H437 C461 0.951 . S
H438 C463 0.951 . S
H439 C465 0.950 . S
H440 C466 0.950 . S
H441 C468 0.950 . S
H442 C471 0.950 . S
H443 C472 0.950 . S
H444 C474 0.950 . S
H445 C475 0.950 . S
C446 H428 0.951 . S
C446 C447 1.366 . S
C446 C448 1.388 . S
C447 C446 1.366 . S
C447 C451 1.385 . S
C448 H429 0.951 . S
C448 C446 1.388 . S
C448 C449 1.366 . S
C449 C448 1.366 . S
C449 C450 1.414 . S
C449 C452 1.499 . S
C450 H430 0.950 . S
C450 C449 1.414 . S
C450 C451 1.374 . S
C451 H431 0.950 . S
C451 C447 1.385 . S
C451 C450 1.374 . S
C452 C449 1.499 . S
C452 C453 1.373 . S
C452 C454 1.389 . S
C453 H432 0.950 . S
C453 C452 1.373 . S
C453 C469 1.377 . S
C454 C452 1.389 . S
C454 C455 1.524 . S
C454 C468 1.377 . S
C455 C454 1.524 . S
C455 C456 1.397 . S
C455 C460 1.363 . S
C456 H433 0.950 . S
C456 C455 1.397 . S
C456 C457 1.334 . S
C457 H434 0.950 . S
C457 C456 1.334 . S
C457 C458 1.287 . S
C458 C457 1.287 . S
C458 C459 1.524 . S
C458 H477 0.913 . S
C459 H435 0.950 . S
C459 C458 1.524 . S
C459 C460 1.415 . S
C460 H436 0.950 . S
C460 C455 1.363 . S
C460 C459 1.415 . S
C461 H437 0.951 . S
C461 C462 1.366 . S
C461 C463 1.388 . S
C462 C461 1.366 . S
C462 C466 1.385 . S
C463 H438 0.951 . S
C463 C461 1.388 . S
C463 C464 1.366 . S
C464 C463 1.366 . S
C464 C465 1.414 . S
C464 C467 1.499 . S
C465 H439 0.950 . S
C465 C464 1.414 . S
C465 C466 1.374 . S
C466 H440 0.950 . S
C466 C462 1.385 . S
C466 C465 1.374 . S
C467 C464 1.499 . S
C467 C468 1.373 . S
C467 C469 1.389 . S
C468 H441 0.950 . S
C468 C454 1.377 . S
C468 C467 1.373 . S
C469 C453 1.377 . S
C469 C467 1.389 . S
C469 C470 1.524 . S
C470 C469 1.524 . S
C470 C471 1.397 . S
C470 C475 1.363 . S
C471 H442 0.950 . S
C471 C470 1.397 . S
C471 C472 1.334 . S
C472 H443 0.950 . S
C472 C471 1.334 . S
C472 C473 1.287 . S
C473 C472 1.287 . S
C473 C474 1.524 . S
C473 H476 0.999 . S
C474 H444 0.950 . S
C474 C473 1.524 . S
C474 C475 1.415 . S
C475 H445 0.950 . S
C475 C470 1.363 . S
C475 C474 1.415 . S
H476 C473 0.999 . S
H477 C458 0.913 . S
H478 C496 0.951 . S
H479 C498 0.951 . S
H480 C500 0.950 . S
H481 C501 0.950 . S
H482 C503 0.950 . S
H483 C506 0.950 . S
H484 C507 0.950 . S
H485 C509 0.950 . S
H486 C510 0.950 . S
H487 C511 0.951 . S
H488 C513 0.951 . S
H489 C515 0.950 . S
H490 C516 0.950 . S
H491 C518 0.950 . S
H492 C521 0.950 . S
H493 C522 0.950 . S
H494 C524 0.950 . S
H495 C525 0.950 . S
C496 H478 0.951 . S
C496 C497 1.366 . S
C496 C498 1.388 . S
C497 C496 1.366 . S
C497 C501 1.385 . S
C498 H479 0.951 . S
C498 C496 1.388 . S
C498 C499 1.366 . S
C499 C498 1.366 . S
C499 C500 1.414 . S
C499 C502 1.499 . S
C500 H480 0.950 . S
C500 C499 1.414 . S
C500 C501 1.374 . S
C501 H481 0.950 . S
C501 C497 1.385 . S
C501 C500 1.374 . S
C502 C499 1.499 . S
C502 C503 1.373 . S
C502 C504 1.389 . S
C503 H482 0.950 . S
C503 C502 1.373 . S
C503 C519 1.377 . S
C504 C502 1.389 . S
C504 C505 1.524 . S
C504 C518 1.377 . S
C505 C504 1.524 . S
C505 C506 1.397 . S
C505 C510 1.363 . S
C506 H483 0.950 . S
C506 C505 1.397 . S
C506 C507 1.334 . S
C507 H484 0.950 . S
C507 C506 1.334 . S
C507 C508 1.287 . S
C508 C507 1.287 . S
C508 C509 1.524 . S
C508 H527 0.913 . S
C509 H485 0.950 . S
C509 C508 1.524 . S
C509 C510 1.415 . S
C510 H486 0.950 . S
C510 C505 1.363 . S
C510 C509 1.415 . S
C511 H487 0.951 . S
C511 C512 1.366 . S
C511 C513 1.388 . S
C512 C511 1.366 . S
C512 C516 1.385 . S
C513 H488 0.951 . S
C513 C511 1.388 . S
C513 C514 1.366 . S
C514 C513 1.366 . S
C514 C515 1.414 . S
C514 C517 1.499 . S
C515 H489 0.950 . S
C515 C514 1.414 . S
C515 C516 1.374 . S
C516 H490 0.950 . S
C516 C512 1.385 . S
C516 C515 1.374 . S
C517 C514 1.499 . S
C517 C518 1.373 . S
C517 C519 1.389 . S
C518 H491 0.950 . S
C518 C504 1.377 . S
C518 C517 1.373 . S
C519 C503 1.377 . S
C519 C517 1.389 . S
C519 C520 1.524 . S
C520 C519 1.524 . S
C520 C521 1.397 . S
C520 C525 1.363 . S
C521 H492 0.950 . S
C521 C520 1.397 . S
C521 C522 1.334 . S
C522 H493 0.950 . S
C522 C521 1.334 . S
C522 C523 1.287 . S
C523 C522 1.287 . S
C523 C524 1.524 . S
C523 H526 0.999 . S
C524 H494 0.950 . S
C524 C523 1.524 . S
C524 C525 1.415 . S
C525 H495 0.950 . S
C525 C520 1.363 . S
C525 C524 1.415 . S
H526 C523 0.999 . S
H527 C508 0.913 . S
H528 C546 0.951 . S
H529 C548 0.951 . S
H530 C550 0.950 . S
H531 C551 0.950 . S
H532 C553 0.950 . S
H533 C556 0.950 . S
H534 C557 0.950 . S
H535 C559 0.950 . S
H536 C560 0.950 . S
H537 C561 0.951 . S
H538 C563 0.951 . S
H539 C565 0.950 . S
H540 C566 0.950 . S
H541 C568 0.950 . S
H542 C571 0.950 . S
H543 C572 0.950 . S
H544 C574 0.950 . S
H545 C575 0.950 . S
C546 H528 0.951 . S
C546 C547 1.366 . S
C546 C548 1.388 . S
C547 C546 1.366 . S
C547 C551 1.385 . S
C548 H529 0.951 . S
C548 C546 1.388 . S
C548 C549 1.366 . S
C549 C548 1.366 . S
C549 C550 1.414 . S
C549 C552 1.499 . S
C550 H530 0.950 . S
C550 C549 1.414 . S
C550 C551 1.374 . S
C551 H531 0.950 . S
C551 C547 1.385 . S
C551 C550 1.374 . S
C552 C549 1.499 . S
C552 C553 1.373 . S
C552 C554 1.389 . S
C553 H532 0.950 . S
C553 C552 1.373 . S
C553 C569 1.377 . S
C554 C552 1.389 . S
C554 C555 1.524 . S
C554 C568 1.377 . S
C555 C554 1.524 . S
C555 C556 1.397 . S
C555 C560 1.363 . S
C556 H533 0.950 . S
C556 C555 1.397 . S
C556 C557 1.334 . S
C557 H534 0.950 . S
C557 C556 1.334 . S
C557 C558 1.287 . S
C558 C557 1.287 . S
C558 C559 1.524 . S
C558 H577 0.913 . S
C559 H535 0.950 . S
C559 C558 1.524 . S
C559 C560 1.415 . S
C560 H536 0.950 . S
C560 C555 1.363 . S
C560 C559 1.415 . S
C561 H537 0.951 . S
C561 C562 1.366 . S
C561 C563 1.388 . S
C562 C561 1.366 . S
C562 C566 1.385 . S
C563 H538 0.951 . S
C563 C561 1.388 . S
C563 C564 1.366 . S
C564 C563 1.366 . S
C564 C565 1.414 . S
C564 C567 1.499 . S
C565 H539 0.950 . S
C565 C564 1.414 . S
C565 C566 1.374 . S
C566 H540 0.950 . S
C566 C562 1.385 . S
C566 C565 1.374 . S
C567 C564 1.499 . S
C567 C568 1.373 . S
C567 C569 1.389 . S
C568 H541 0.950 . S
C568 C554 1.377 . S
C568 C567 1.373 . S
C569 C553 1.377 . S
C569 C567 1.389 . S
C569 C570 1.524 . S
C570 C569 1.524 . S
C570 C571 1.397 . S
C570 C575 1.363 . S
C571 H542 0.950 . S
C571 C570 1.397 . S
C571 C572 1.334 . S
C572 H543 0.950 . S
C572 C571 1.334 . S
C572 C573 1.287 . S
C573 C572 1.287 . S
C573 C574 1.524 . S
C573 H576 0.999 . S
C574 H544 0.950 . S
C574 C573 1.524 . S
C574 C575 1.415 . S
C575 H545 0.950 . S
C575 C570 1.363 . S
C575 C574 1.415 . S
H576 C573 0.999 . S
H577 C558 0.913 . S
H578 C596 0.951 . S
H579 C598 0.951 . S
H580 C600 0.950 . S
H581 C601 0.950 . S
H582 C603 0.950 . S
H583 C606 0.950 . S
H584 C607 0.950 . S
H585 C609 0.950 . S
H586 C610 0.950 . S
H587 C611 0.953 . S
H588 C613 0.951 . S
H589 C615 0.950 . S
H590 C616 0.950 . S
H591 C618 0.950 . S
H592 C621 0.950 . S
H593 C622 0.950 . S
H594 C624 0.950 . S
H595 C625 0.950 . S
C596 H578 0.951 . S
C596 C597 1.366 . S
C596 C598 1.388 . S
C597 C596 1.366 . S
C597 C601 1.385 . S
C598 H579 0.951 . S
C598 C596 1.388 . S
C598 C599 1.366 . S
C599 C598 1.366 . S
C599 C600 1.414 . S
C599 C602 1.499 . S
C600 H580 0.950 . S
C600 C599 1.414 . S
C600 C601 1.374 . S
C601 H581 0.950 . S
C601 C597 1.385 . S
C601 C600 1.374 . S
C602 C599 1.499 . S
C602 C603 1.373 . S
C602 C604 1.389 . S
C603 H582 0.950 . S
C603 C602 1.373 . S
C603 C619 1.377 . S
C604 C602 1.389 . S
C604 C605 1.524 . S
C604 C618 1.377 . S
C605 C604 1.524 . S
C605 C606 1.397 . S
C605 C610 1.363 . S
C606 H583 0.950 . S
C606 C605 1.397 . S
C606 C607 1.334 . S
C607 H584 0.950 . S
C607 C606 1.334 . S
C607 C608 1.287 . S
C608 C607 1.287 . S
C608 C609 1.524 . S
C608 H627 0.913 . S
C609 H585 0.950 . S
C609 C608 1.524 . S
C609 C610 1.415 . S
C610 H586 0.950 . S
C610 C605 1.363 . S
C610 C609 1.415 . S
C611 H587 0.953 . S
C611 C612 1.375 . S
C611 C613 1.377 1_554 S
C612 C611 1.375 . S
C612 C616 1.385 . S
C613 H588 0.951 . S
C613 C611 1.377 1_556 S
C613 C614 1.366 . S
C614 C613 1.366 . S
C614 C615 1.414 . S
C614 C617 1.499 . S
C615 H589 0.950 . S
C615 C614 1.414 . S
C615 C616 1.374 1_556 S
C616 H590 0.950 . S
C616 C612 1.385 . S
C616 C615 1.374 1_554 S
C617 C614 1.499 . S
C617 C618 1.373 . S
C617 C619 1.389 . S
C618 H591 0.950 . S
C618 C604 1.377 . S
C618 C617 1.373 . S
C619 C603 1.377 . S
C619 C617 1.389 . S
C619 C620 1.524 . S
C620 C619 1.524 . S
C620 C621 1.397 1_556 S
C620 C625 1.363 . S
C621 H592 0.950 . S
C621 C620 1.397 1_554 S
C621 C622 1.334 . S
C622 H593 0.950 . S
C622 C621 1.334 . S
C622 C623 1.287 . S
C623 C622 1.287 . S
C623 C624 1.524 . S
C623 H626 0.999 . S
C624 H594 0.950 . S
C624 C623 1.524 . S
C624 C625 1.415 1_554 S
C625 H595 0.950 . S
C625 C620 1.363 . S
C625 C624 1.415 1_556 S
H626 C623 0.999 . S
H627 C608 0.913 . S
H628 C646 0.951 . S
H629 C648 0.951 . S
H630 C650 0.950 . S
H631 C651 0.950 . S
H632 C653 0.950 . S
H633 C656 0.950 . S
H634 C657 0.950 . S
H635 C659 0.950 . S
H636 C660 0.950 . S
H637 C661 0.951 . S
H638 C663 0.951 . S
H639 C665 0.950 . S
H640 C666 0.950 . S
H641 C668 0.950 . S
H642 C671 0.950 . S
H643 C672 0.950 . S
H644 C674 0.950 . S
H645 C675 0.950 . S
C646 H628 0.951 . S
C646 C647 1.366 . S
C646 C648 1.388 . S
C647 C646 1.366 . S
C647 C651 1.385 1_556 S
C648 H629 0.951 . S
C648 C646 1.388 . S
C648 C649 1.366 1_556 S
C649 C648 1.366 1_554 S
C649 C650 1.414 . S
C649 C652 1.499 . S
C650 H630 0.950 . S
C650 C649 1.414 . S
C650 C651 1.374 . S
C651 H631 0.950 . S
C651 C647 1.385 1_554 S
C651 C650 1.374 . S
C652 C649 1.499 . S
C652 C653 1.373 . S
C652 C654 1.389 . S
C653 H632 0.950 . S
C653 C652 1.373 . S
C653 C669 1.377 . S
C654 C652 1.389 . S
C654 C655 1.524 1_554 S
C654 C668 1.377 . S
C655 C654 1.524 1_556 S
C655 C656 1.397 . S
C655 C660 1.363 . S
C656 H633 0.950 . S
C656 C655 1.397 . S
C656 C657 1.334 . S
C657 H634 0.950 . S
C657 C656 1.334 . S
C657 C658 1.287 . S
C658 C657 1.287 . S
C658 C659 1.524 . S
C658 H677 0.913 . S
C659 H635 0.950 . S
C659 C658 1.524 . S
C659 C660 1.415 . S
C660 H636 0.950 . S
C660 C655 1.363 . S
C660 C659 1.415 . S
C661 H637 0.951 . S
C661 C662 1.366 . S
C661 C663 1.388 . S
C662 C661 1.366 . S
C662 C666 1.385 . S
C663 H638 0.951 . S
C663 C661 1.388 . S
C663 C664 1.366 . S
C664 C663 1.366 . S
C664 C665 1.414 . S
C664 C667 1.499 . S
C665 H639 0.950 . S
C665 C664 1.414 . S
C665 C666 1.374 . S
C666 H640 0.950 . S
C666 C662 1.385 . S
C666 C665 1.374 . S
C667 C664 1.499 . S
C667 C668 1.373 . S
C667 C669 1.389 . S
C668 H641 0.950 . S
C668 C654 1.377 . S
C668 C667 1.373 . S
C669 C653 1.377 . S
C669 C667 1.389 . S
C669 C670 1.524 . S
C670 C669 1.524 . S
C670 C671 1.397 . S
C670 C675 1.363 . S
C671 H642 0.950 . S
C671 C670 1.397 . S
C671 C672 1.334 . S
C672 H643 0.950 . S
C672 C671 1.334 . S
C672 C673 1.287 . S
C673 C672 1.287 . S
C673 C674 1.524 . S
C673 H676 0.999 . S
C674 H644 0.950 . S
C674 C673 1.524 . S
C674 C675 1.415 . S
C675 H645 0.950 . S
C675 C670 1.363 . S
C675 C674 1.415 . S
H676 C673 0.999 . S
H677 C658 0.913 . S
C97 C10 1.297 1_556 S
C112 C49 1.297 . S
C147 C56 1.297 . S
C162 C23 1.297 . S
C197 C36 1.297 . S
C212 C69 1.297 1_554 S
C247 C43 1.297 . S
C262 C4 1.297 . S
C297 C17 1.297 . S
C312 C62 1.297 . S
C347 C75 1.297 . S
C362 C30 1.297 . S
C397 C3 1.283 . S
C412 C31 1.282 . S
C447 C16 1.283 . S
C462 C42 1.282 . S
C497 C57 1.283 . S
C512 C29 1.282 . S
C547 C70 1.283 . S
C562 C44 1.282 . S
C597 C55 1.282 . S
C612 C5 1.282 . S
C647 C68 1.282 . S
C662 C18 1.282 . S
