# Generated by pormake.
# Topology crs, (6)-cn, num edge types: 1
# Building blocks:
#     Node 0, Type 0, BuildingBlock: MAKGUD_clean_sbu_1, # of connection points: 6
#     Node 1, Type 0, BuildingBlock: MAKGUD_clean_sbu_1, # of connection points: 6
#     Node 2, Type 0, BuildingBlock: MAKGUD_clean_sbu_1, # of connection points: 6
#     Node 3, Type 0, BuildingBlock: MAKGUD_clean_sbu_1, # of connection points: 6
#     Node 4, Type 0, BuildingBlock: MAKGUD_clean_sbu_1, # of connection points: 6
#     Node 5, Type 0, BuildingBlock: MAKGUD_clean_sbu_1, # of connection points: 6
#     Node 6, Type 0, BuildingBlock: MAKGUD_clean_sbu_1, # of connection points: 6
#     Node 7, Type 0, BuildingBlock: MAKGUD_clean_sbu_1, # of connection points: 6
#     Node 8, Type 0, BuildingBlock: MAKGUD_clean_sbu_1, # of connection points: 6
#     Node 9, Type 0, BuildingBlock: MAKGUD_clean_sbu_1, # of connection points: 6
#     Node 10, Type 0, BuildingBlock: MAKGUD_clean_sbu_1, # of connection points: 6
#     Node 11, Type 0, BuildingBlock: MAKGUD_clean_sbu_1, # of connection points: 6
#     Node 12, Type 0, BuildingBlock: MAKGUD_clean_sbu_1, # of connection points: 6
#     Node 13, Type 0, BuildingBlock: MAKGUD_clean_sbu_1, # of connection points: 6
#     Node 14, Type 0, BuildingBlock: MAKGUD_clean_sbu_1, # of connection points: 6
#     Node 15, Type 0, BuildingBlock: MAKGUD_clean_sbu_1, # of connection points: 6
#     Edge 16, Type (0, 0), BuildingBlock: TEMPAE_clean_linker_10, # of connection points: 2
#     Edge 17, Type (0, 0), BuildingBlock: TEMPAE_clean_linker_10, # of connection points: 2
#     Edge 18, Type (0, 0), BuildingBlock: TEMPAE_clean_linker_10, # of connection points: 2
#     Edge 19, Type (0, 0), BuildingBlock: TEMPAE_clean_linker_10, # of connection points: 2
#     Edge 20, Type (0, 0), BuildingBlock: TEMPAE_clean_linker_10, # of connection points: 2
#     Edge 21, Type (0, 0), BuildingBlock: TEMPAE_clean_linker_10, # of connection points: 2
#     Edge 22, Type (0, 0), BuildingBlock: TEMPAE_clean_linker_10, # of connection points: 2
#     Edge 23, Type (0, 0), BuildingBlock: TEMPAE_clean_linker_10, # of connection points: 2
#     Edge 24, Type (0, 0), BuildingBlock: TEMPAE_clean_linker_10, # of connection points: 2
#     Edge 25, Type (0, 0), BuildingBlock: TEMPAE_clean_linker_10, # of connection points: 2
#     Edge 26, Type (0, 0), BuildingBlock: TEMPAE_clean_linker_10, # of connection points: 2
#     Edge 27, Type (0, 0), BuildingBlock: TEMPAE_clean_linker_10, # of connection points: 2
#     Edge 28, Type (0, 0), BuildingBlock: TEMPAE_clean_linker_10, # of connection points: 2
#     Edge 29, Type (0, 0), BuildingBlock: TEMPAE_clean_linker_10, # of connection points: 2
#     Edge 30, Type (0, 0), BuildingBlock: TEMPAE_clean_linker_10, # of connection points: 2
#     Edge 31, Type (0, 0), BuildingBlock: TEMPAE_clean_linker_10, # of connection points: 2
#     Edge 32, Type (0, 0), BuildingBlock: TEMPAE_clean_linker_10, # of connection points: 2
#     Edge 33, Type (0, 0), BuildingBlock: TEMPAE_clean_linker_10, # of connection points: 2
#     Edge 34, Type (0, 0), BuildingBlock: TEMPAE_clean_linker_10, # of connection points: 2
#     Edge 35, Type (0, 0), BuildingBlock: TEMPAE_clean_linker_10, # of connection points: 2
#     Edge 36, Type (0, 0), BuildingBlock: TEMPAE_clean_linker_10, # of connection points: 2
#     Edge 37, Type (0, 0), BuildingBlock: TEMPAE_clean_linker_10, # of connection points: 2
#     Edge 38, Type (0, 0), BuildingBlock: TEMPAE_clean_linker_10, # of connection points: 2
#     Edge 39, Type (0, 0), BuildingBlock: TEMPAE_clean_linker_10, # of connection points: 2
#     Edge 40, Type (0, 0), BuildingBlock: TEMPAE_clean_linker_10, # of connection points: 2
#     Edge 41, Type (0, 0), BuildingBlock: TEMPAE_clean_linker_10, # of connection points: 2
#     Edge 42, Type (0, 0), BuildingBlock: TEMPAE_clean_linker_10, # of connection points: 2
#     Edge 43, Type (0, 0), BuildingBlock: TEMPAE_clean_linker_10, # of connection points: 2
#     Edge 44, Type (0, 0), BuildingBlock: TEMPAE_clean_linker_10, # of connection points: 2
#     Edge 45, Type (0, 0), BuildingBlock: TEMPAE_clean_linker_10, # of connection points: 2
#     Edge 46, Type (0, 0), BuildingBlock: TEMPAE_clean_linker_10, # of connection points: 2
#     Edge 47, Type (0, 0), BuildingBlock: TEMPAE_clean_linker_10, # of connection points: 2
#     Edge 48, Type (0, 0), BuildingBlock: TEMPAE_clean_linker_10, # of connection points: 2
#     Edge 49, Type (0, 0), BuildingBlock: TEMPAE_clean_linker_10, # of connection points: 2
#     Edge 50, Type (0, 0), BuildingBlock: TEMPAE_clean_linker_10, # of connection points: 2
#     Edge 51, Type (0, 0), BuildingBlock: TEMPAE_clean_linker_10, # of connection points: 2
#     Edge 52, Type (0, 0), BuildingBlock: TEMPAE_clean_linker_10, # of connection points: 2
#     Edge 53, Type (0, 0), BuildingBlock: TEMPAE_clean_linker_10, # of connection points: 2
#     Edge 54, Type (0, 0), BuildingBlock: TEMPAE_clean_linker_10, # of connection points: 2
#     Edge 55, Type (0, 0), BuildingBlock: TEMPAE_clean_linker_10, # of connection points: 2
#     Edge 56, Type (0, 0), BuildingBlock: TEMPAE_clean_linker_10, # of connection points: 2
#     Edge 57, Type (0, 0), BuildingBlock: TEMPAE_clean_linker_10, # of connection points: 2
#     Edge 58, Type (0, 0), BuildingBlock: TEMPAE_clean_linker_10, # of connection points: 2
#     Edge 59, Type (0, 0), BuildingBlock: TEMPAE_clean_linker_10, # of connection points: 2
#     Edge 60, Type (0, 0), BuildingBlock: TEMPAE_clean_linker_10, # of connection points: 2
#     Edge 61, Type (0, 0), BuildingBlock: TEMPAE_clean_linker_10, # of connection points: 2
#     Edge 62, Type (0, 0), BuildingBlock: TEMPAE_clean_linker_10, # of connection points: 2
#     Edge 63, Type (0, 0), BuildingBlock: TEMPAE_clean_linker_10, # of connection points: 2
# Relax obj value: 0.068
# Max RMSD: 0.239
# Mean RMSD: 0.231
data_MOF--net-crs--node1-MAKGUD_clean_sbu_1--edge1-TEMPAE_clean_linker_10
_symmetry_space_group_name_H-M    P1
_symmetry_Int_Tables_number       1
_symmetry_cell_setting            triclinic
loop_
_symmetry_equiv_pos_as_xyz
'x, y, z'
_cell_length_a     41.617138
_cell_length_b     54.576735
_cell_length_c     53.493054
_cell_angle_alpha  89.94644
_cell_angle_beta   90.116805
_cell_angle_gamma 77.911822
loop_
_atom_site_label
_atom_site_type_symbol
_atom_site_fract_x
_atom_site_fract_y
_atom_site_fract_z
_atom_type_partial_charge
O0 O 0.01694 0.10245 1.00225 0.0
Tb1 Tb 0.00733 0.06574 0.02389 0.0
C2 C 0.05266 1.00213 0.04585 0.0
O3 O 0.99345 0.01559 0.98883 0.0
Tb4 Tb 0.0162 0.96889 1.00196 0.0
C5 C 0.02918 0.93264 0.96656 0.0
O6 O 0.97555 0.05646 0.98108 0.0
O7 O 0.96764 0.95906 0.02664 0.0
C8 C 0.93878 0.96523 0.01542 0.0
O9 O 0.9272 0.98873 0.99937 0.0
O10 O 0.02747 0.02628 0.0333 0.0
O11 O 0.05268 0.97815 0.03996 0.0
O12 O 0.97274 0.08584 0.05317 0.0
C13 C 0.97411 0.0329 0.97521 0.0
C14 C 0.04742 0.09763 0.0182 0.0
O15 O 0.02139 0.95679 0.963 0.0
O16 O 0.03282 0.92881 0.9906 0.0
C17 C 0.98042 0.08344 0.077 0.0
O18 O 0.98415 0.06132 0.08765 0.0
O19 O 0.05627 0.07436 0.02539 0.0
O20 O 0.99403 0.25506 0.18253 0.0
Tb21 Tb 0.01607 0.26522 0.21941 0.0
C22 C 0.05064 0.23137 0.27153 0.0
O23 O 0.97484 0.29859 0.27688 0.0
Tb24 Tb 0.00676 0.27521 0.30602 0.0
C25 C 0.96367 0.2748 0.34648 0.0
O26 O 0.97261 0.29802 0.2328 0.0
O27 O 0.03132 0.30375 0.32028 0.0
C28 C 0.01764 0.3278 0.31829 0.0
O29 O 0.00294 0.33654 0.29743 0.0
O30 O 0.03761 0.24413 0.25186 0.0
O31 O 0.0409 0.23945 0.29436 0.0
O32 O 0.05673 0.27613 0.19997 0.0
C33 C 0.96261 0.3082 0.25531 0.0
C34 C 0.00923 0.23094 0.18431 0.0
O35 O 0.95389 0.28118 0.32383 0.0
O36 O 0.99535 0.26649 0.34582 0.0
C37 C 0.08735 0.26346 0.20172 0.0
O38 O 0.09803 0.25144 0.22239 0.0
O39 O 0.0209 0.2262 0.20671 0.0
O40 O 0.75098 0.19245 0.51004 0.0
Tb41 Tb 0.76082 0.22993 0.51767 0.0
C42 C 0.72086 0.28483 0.54105 0.0
O43 O 0.7871 0.27844 0.50092 0.0
Tb44 Tb 0.75813 0.31717 0.50696 0.0
C45 C 0.74572 0.35381 0.47156 0.0
O46 O 0.78726 0.24038 0.48423 0.0
O47 O 0.79963 0.33033 0.52244 0.0
C48 C 0.82874 0.32426 0.51177 0.0
O49 O 0.847 0.30217 0.5166 0.0
O50 O 0.73975 0.26904 0.52593 0.0
O51 O 0.72204 0.30868 0.53611 0.0
O52 O 0.78713 0.21224 0.55035 0.0
C53 C 0.79232 0.2636 0.48103 0.0
C54 C 0.71938 0.19914 0.51344 0.0
O55 O 0.75382 0.32957 0.46755 0.0
O56 O 0.74172 0.35714 0.49563 0.0
C57 C 0.77253 0.21404 0.57231 0.0
O58 O 0.75825 0.23619 0.58051 0.0
O59 O 0.71139 0.22332 0.51668 0.0
O60 O 0.7697 0.02439 0.84146 0.0
Tb61 Tb 0.76183 0.02068 0.80046 0.0
C62 C 0.80325 0.97894 0.75029 0.0
O63 O 0.72692 0.05396 0.74521 0.0
Tb64 Tb 0.74955 0.03042 0.71509 0.0
C65 C 0.75588 0.064 0.6791 0.0
O66 O 0.72756 0.05604 0.78871 0.0
O67 O 0.70616 0.02064 0.6978 0.0
C68 C 0.6775 0.03673 0.69676 0.0
O69 O 0.66989 0.05406 0.71402 0.0
O70 O 0.79321 0.98721 0.77292 0.0
O71 O 0.79228 0.99009 0.72835 0.0
O72 O 0.74044 0.9855 0.81698 0.0
C73 C 0.71679 0.06505 0.76631 0.0
C74 C 0.80157 0.02125 0.84075 0.0
O75 O 0.75563 0.0678 0.70313 0.0
O76 O 0.75682 0.04027 0.67536 0.0
C77 C 0.75476 0.96161 0.81656 0.0
O78 O 0.76719 0.95102 0.79575 0.0
O79 O 0.81026 0.02024 0.81729 0.0
O80 O 0.50526 0.75078 0.18087 0.0
Tb81 Tb 0.51682 0.76151 0.21992 0.0
C82 C 0.55061 0.7272 0.27059 0.0
O83 O 0.47532 0.79658 0.27792 0.0
Tb84 Tb 0.5042 0.7716 0.30516 0.0
C85 C 0.46525 0.77016 0.34544 0.0
O86 O 0.47758 0.79438 0.23341 0.0
O87 O 0.5296 0.79787 0.32295 0.0
C88 C 0.51776 0.82217 0.32169 0.0
O89 O 0.50564 0.83255 0.30063 0.0
O90 O 0.54472 0.73677 0.2479 0.0
O91 O 0.53549 0.73596 0.2918 0.0
O92 O 0.55819 0.77065 0.19871 0.0
C93 C 0.46559 0.80485 0.25536 0.0
C94 C 0.50687 0.72698 0.18517 0.0
O95 O 0.45529 0.77675 0.32289 0.0
O96 O 0.4969 0.76183 0.34472 0.0
C97 C 0.58951 0.75936 0.20137 0.0
O98 O 0.60102 0.75198 0.22354 0.0
O99 O 0.5103 0.72381 0.20924 0.0
O100 O 0.25147 0.69123 0.50236 0.0
Tb101 Tb 0.26358 0.72562 0.51727 0.0
C102 C 0.22281 0.7815 0.54044 0.0
O103 O 0.276 0.77449 0.49345 0.0
Tb104 Tb 0.26084 0.81356 0.50576 0.0
C105 C 0.25212 0.84999 0.47059 0.0
O106 O 0.29423 0.73395 0.48533 0.0
O107 O 0.30443 0.82304 0.52206 0.0
C108 C 0.33254 0.81838 0.50989 0.0
O109 O 0.34315 0.79647 0.49988 0.0
O110 O 0.24389 0.76498 0.52738 0.0
O111 O 0.22331 0.80534 0.53429 0.0
O112 O 0.29036 0.703 0.54683 0.0
C113 C 0.29565 0.75747 0.47992 0.0
C114 C 0.22118 0.69632 0.51009 0.0
O115 O 0.2609 0.82594 0.46656 0.0
O116 O 0.24536 0.85339 0.49432 0.0
C117 C 0.28409 0.70763 0.57052 0.0
O118 O 0.29534 0.72598 0.58088 0.0
O119 O 0.21418 0.71885 0.51938 0.0
O120 O 0.27354 0.52036 0.84266 0.0
Tb121 Tb 0.26549 0.51642 0.80182 0.0
C122 C 0.30365 0.48258 0.75225 0.0
O123 O 0.22944 0.55181 0.74577 0.0
Tb124 Tb 0.25432 0.52728 0.7168 0.0
C125 C 0.26486 0.56157 0.68203 0.0
O126 O 0.23273 0.55205 0.78978 0.0
O127 O 0.2117 0.51722 0.69822 0.0
C128 C 0.18131 0.53105 0.69831 0.0
O129 O 0.17202 0.54742 0.71622 0.0
O130 O 0.29383 0.49084 0.77478 0.0
O131 O 0.29272 0.4938 0.73033 0.0
O132 O 0.24159 0.48893 0.81875 0.0
C133 C 0.22072 0.5615 0.76785 0.0
C134 C 0.30541 0.51708 0.84165 0.0
O135 O 0.25684 0.56573 0.70532 0.0
O136 O 0.27005 0.53733 0.67868 0.0
C137 C 0.25348 0.46482 0.81578 0.0
O138 O 0.26493 0.45591 0.79408 0.0
O139 O 0.31399 0.51597 0.81818 0.0
O140 O 0.02102 0.59716 0.50429 0.0
Tb141 Tb 0.00913 0.56124 0.51505 0.0
C142 C 0.04994 0.50497 0.54244 0.0
O143 O 0.99162 0.51247 0.49591 0.0
Tb144 Tb 0.01114 0.47309 0.50578 0.0
C145 C 0.01742 0.43751 0.47023 0.0
O146 O 0.97596 0.5515 0.48274 0.0
O147 O 0.96655 0.46202 0.52416 0.0
C148 C 0.9371 0.46735 0.51427 0.0
O149 O 0.91735 0.48758 0.52268 0.0
O150 O 0.03295 0.52443 0.53006 0.0
O151 O 0.04736 0.48187 0.53474 0.0
O152 O 0.98161 0.58238 0.54675 0.0
C153 C 0.97436 0.52772 0.47936 0.0
C154 C 0.05255 0.58988 0.50771 0.0
O155 O 0.01175 0.46166 0.46625 0.0
O156 O 0.02357 0.43334 0.49396 0.0
C157 C 0.99327 0.57833 0.56964 0.0
O158 O 0.0054 0.55534 0.57825 0.0
O159 O 0.05953 0.56608 0.51289 0.0
O160 O 0.25302 0.19488 1.00188 0.0
Tb161 Tb 0.26175 0.23122 0.02358 0.0
C162 C 0.21907 0.28732 0.0463 0.0
O163 O 0.27408 0.2812 0.99001 0.0
Tb164 Tb 0.2567 0.32005 1.00212 0.0
C165 C 0.24266 0.35551 0.96625 0.0
O166 O 0.29317 0.24072 0.98228 0.0
O167 O 0.29995 0.33131 0.02569 0.0
C168 C 0.32919 0.32365 0.01571 0.0
O169 O 0.34059 0.30009 1.00061 0.0
O170 O 0.24015 0.27048 0.03339 0.0
O171 O 0.21985 0.31112 0.04034 0.0
O172 O 0.28984 0.21122 0.05401 0.0
C173 C 0.29503 0.26437 0.97719 0.0
C174 C 0.22239 0.19895 0.01949 0.0
O175 O 0.24801 0.33132 0.96303 0.0
O176 O 0.24185 0.35986 0.99023 0.0
C177 C 0.27519 0.21117 0.07565 0.0
O178 O 0.27242 0.23108 0.08983 0.0
O179 O 0.21325 0.22223 0.02636 0.0
O180 O 0.27267 0.03016 0.34445 0.0
Tb181 Tb 0.26326 0.02017 0.30527 0.0
C182 C 0.30521 0.97798 0.25527 0.0
O183 O 0.23013 0.05237 0.24929 0.0
Tb184 Tb 0.25353 0.02884 0.21916 0.0
C185 C 0.26086 0.06342 0.18443 0.0
O186 O 0.22949 0.05544 0.29254 0.0
O187 O 0.21157 0.01942 0.19971 0.0
C188 C 0.18153 0.03321 0.2012 0.0
O189 O 0.17161 0.04561 0.22175 0.0
O190 O 0.29389 0.98752 0.27706 0.0
O191 O 0.29532 0.98808 0.23272 0.0
O192 O 0.24334 0.98465 0.32343 0.0
C193 C 0.21889 0.06407 0.26994 0.0
C194 C 0.30453 0.02299 0.34393 0.0
O195 O 0.26111 0.06608 0.20861 0.0
O196 O 0.26059 0.04002 0.17973 0.0
C197 C 0.25506 0.96034 0.32095 0.0
O198 O 0.26466 0.95105 0.29893 0.0
O199 O 0.31303 0.01633 0.32113 0.0
O200 O 0.49813 0.25477 0.67793 0.0
Tb201 Tb 0.51386 0.26522 0.71576 0.0
C202 C 0.54773 0.23015 0.76734 0.0
O203 O 0.47508 0.29987 0.77465 0.0
Tb204 Tb 0.50458 0.27402 0.80169 0.0
C205 C 0.4663 0.27352 0.84267 0.0
O206 O 0.47423 0.29735 0.73 0.0
O207 O 0.52957 0.30143 0.8176 0.0
C208 C 0.51612 0.32548 0.81659 0.0
O209 O 0.50555 0.33609 0.79526 0.0
O210 O 0.53508 0.24326 0.74776 0.0
O211 O 0.53871 0.23848 0.79021 0.0
O212 O 0.55464 0.27829 0.69816 0.0
C213 C 0.46412 0.30827 0.75221 0.0
C214 C 0.50678 0.23051 0.68081 0.0
O215 O 0.45703 0.2732 0.81935 0.0
O216 O 0.49795 0.27191 0.84288 0.0
C217 C 0.58466 0.26431 0.69764 0.0
O218 O 0.59318 0.24644 0.71436 0.0
O219 O 0.51616 0.22628 0.70377 0.0
O220 O 0.00245 0.75059 0.67562 0.0
Tb221 Tb 0.01823 0.76024 0.7137 0.0
C222 C 0.05362 0.72788 0.76605 0.0
O223 O 0.97373 0.79723 0.77247 0.0
Tb224 Tb 0.00651 0.77173 0.80011 0.0
C225 C 0.96518 0.77089 0.8417 0.0
O226 O 0.97548 0.7929 0.72771 0.0
O227 O 0.03066 0.79903 0.81747 0.0
C228 C 0.0192 0.82327 0.81508 0.0
O229 O 0.00761 0.83277 0.79356 0.0
O230 O 0.04253 0.73828 0.74468 0.0
O231 O 0.04179 0.73686 0.78824 0.0
O232 O 0.0596 0.77004 0.69363 0.0
C233 C 0.96415 0.80449 0.74936 0.0
C234 C 0.01039 0.72625 0.67809 0.0
O235 O 0.95556 0.77041 0.81844 0.0
O236 O 0.99679 0.76943 0.84146 0.0
C237 C 0.08993 0.75665 0.69536 0.0
O238 O 0.10018 0.74485 0.71619 0.0
O239 O 0.01904 0.72155 0.70126 0.0
O240 O 0.77391 0.52586 0.34509 0.0
Tb241 Tb 0.7649 0.51683 0.30564 0.0
C242 C 0.80225 0.48265 0.25634 0.0
O243 O 0.72449 0.55099 0.24987 0.0
Tb244 Tb 0.75111 0.52691 0.22131 0.0
C245 C 0.75885 0.56175 0.18619 0.0
O246 O 0.7319 0.55224 0.29353 0.0
O247 O 0.70958 0.5159 0.2022 0.0
C248 C 0.67929 0.5298 0.2016 0.0
O249 O 0.6645 0.53758 0.2226 0.0
O250 O 0.7929 0.49069 0.27898 0.0
O251 O 0.79069 0.4939 0.23454 0.0
O252 O 0.73991 0.4908 0.3241 0.0
C253 C 0.71701 0.56071 0.27216 0.0
C254 C 0.8056 0.51767 0.34488 0.0
O255 O 0.75138 0.56585 0.20958 0.0
O256 O 0.76539 0.53747 0.18301 0.0
C257 C 0.75034 0.46643 0.32196 0.0
O258 O 0.76098 0.45647 0.30041 0.0
O259 O 0.81446 0.51143 0.32208 0.0
O260 O 0.75058 0.69204 0.99918 0.0
Tb261 Tb 0.76232 0.72703 0.02243 0.0
C262 C 0.72226 0.78174 0.04721 0.0
O263 O 0.77221 0.77748 0.98831 0.0
Tb264 Tb 0.75674 0.81595 1.00232 0.0
C265 C 0.74495 0.85341 0.968 0.0
O266 O 0.79382 0.73709 0.98157 0.0
O267 O 0.80186 0.82298 0.02677 0.0
C268 C 0.82798 0.82035 1.00228 0.0
O269 O 0.84273 0.7979 0.99512 0.0
O270 O 0.74225 0.76592 0.03283 0.0
O271 O 0.72189 0.80588 0.04173 0.0
O272 O 0.78774 0.70612 0.05383 0.0
C273 C 0.79435 0.76091 0.97613 0.0
C274 C 0.71901 0.69826 0.01421 0.0
O275 O 0.74862 0.82944 0.96374 0.0
O276 O 0.7445 0.85653 0.99221 0.0
C277 C 0.7781 0.71032 0.07713 0.0
O278 O 0.7701 0.73343 0.08538 0.0
O279 O 0.7121 0.72142 0.02159 0.0
O280 O 0.52025 0.09937 0.50359 0.0
Tb281 Tb 0.50722 0.06513 0.51809 0.0
C282 C 0.54993 1.00195 0.54081 0.0
O283 O 0.49187 0.01563 0.49472 0.0
Tb284 Tb 0.51116 0.96899 0.50829 0.0
C285 C 0.52155 0.93238 0.47314 0.0
O286 O 0.4786 0.05639 0.48473 0.0
O287 O 0.46741 0.96295 0.52762 0.0
C288 C 0.43891 0.96496 0.51612 0.0
O289 O 0.41751 0.98631 0.51789 0.0
O290 O 0.52742 0.02572 0.52615 0.0
O291 O 0.54863 0.97799 0.53623 0.0
O292 O 0.4801 0.08548 0.54892 0.0
C293 C 0.47548 0.03303 0.47955 0.0
C294 C 0.54957 0.09485 0.51342 0.0
O295 O 0.51314 0.95648 0.46926 0.0
O296 O 0.52667 0.92884 0.4971 0.0
C297 C 0.49078 0.08174 0.57205 0.0
O298 O 0.49412 0.05936 0.58178 0.0
O299 O 0.55587 0.07277 0.52374 0.0
O300 O 0.51783 0.59863 1.00089 0.0
Tb301 Tb 0.50887 0.56167 0.02233 0.0
C302 C 0.54829 0.50602 0.04587 0.0
O303 O 0.49703 0.51185 0.98858 0.0
Tb304 Tb 0.5131 0.47274 1.00117 0.0
C305 C 0.52428 0.43561 0.96656 0.0
O306 O 0.47808 0.5528 0.9813 0.0
O307 O 0.46932 0.46287 0.02668 0.0
C308 C 0.44133 0.46775 0.01443 0.0
O309 O 0.42787 0.49104 0.99893 0.0
O310 O 0.52993 0.52234 0.03089 0.0
O311 O 0.54738 0.48206 0.0407 0.0
O312 O 0.48586 0.58082 0.05524 0.0
C313 C 0.47696 0.5292 0.97552 0.0
C314 C 0.54898 0.59292 0.01451 0.0
O315 O 0.51611 0.45965 0.96233 0.0
O316 O 0.52958 0.43251 0.99055 0.0
C317 C 0.49871 0.57587 0.07759 0.0
O318 O 0.50781 0.5526 0.08515 0.0
O319 O 0.55779 0.56927 0.02001 0.0
C320 C 0.99405 0.12617 0.07902 0.0
C321 C 0.98643 0.1054 0.09134 0.0
C322 C 0.00354 0.14697 0.09258 0.0
C323 C 0.00414 0.14651 0.11898 0.0
C324 C 0.99353 0.12523 0.13138 0.0
C325 C 0.98577 0.10537 0.11748 0.0
C326 C 0.0085 0.16981 0.07886 0.0
C327 C 0.99203 0.12387 0.15939 0.0
C328 C 0.03842 0.19388 0.15874 0.0
C329 C 0.00956 0.21163 0.16443 0.0
C330 C 0.03758 0.17325 0.14284 0.0
C331 C 0.00698 0.16966 0.13345 0.0
C332 C 0.97458 0.1883 0.13816 0.0
C333 C 0.97646 0.20937 0.15284 0.0
C334 C 0.06908 0.15492 0.13675 0.0
C335 C 0.94147 0.18593 0.12813 0.0
H336 H 0.99488 0.12645 0.05879 0.0
H337 H 0.97943 0.08961 0.12722 0.0
H338 H 0.98911 0.18705 0.0866 0.0
H339 H 0.03418 0.17132 0.08214 0.0
H340 H 0.00269 0.16928 0.05868 0.0
H341 H 0.00236 0.10412 0.16594 0.0
H342 H 0.01243 0.13459 0.16855 0.0
H343 H 0.96647 0.13185 0.1654 0.0
H344 H 0.06151 0.19592 0.16703 0.0
H345 H 0.95434 0.22328 0.15668 0.0
H346 H 0.07237 0.15355 0.11618 0.0
H347 H 0.0677 0.13599 0.14368 0.0
H348 H 0.09093 0.16048 0.14515 0.0
H349 H 0.93913 0.19238 0.10842 0.0
H350 H 0.92112 0.19763 0.13891 0.0
H351 H 0.93826 0.16627 0.12862 0.0
C352 C 0.84861 0.27002 0.46935 0.0
C353 C 0.81722 0.26746 0.46169 0.0
C354 C 0.87348 0.27261 0.45218 0.0
C355 C 0.86784 0.27131 0.42615 0.0
C356 C 0.83663 0.26738 0.41818 0.0
C357 C 0.81177 0.26562 0.43591 0.0
C358 C 0.9059 0.2766 0.46215 0.0
C359 C 0.82995 0.26361 0.39095 0.0
C360 C 0.91976 0.29685 0.37656 0.0
C361 C 0.94189 0.27503 0.3688 0.0
C362 C 0.89696 0.2961 0.39612 0.0
C363 C 0.89484 0.27292 0.40739 0.0
C364 C 0.91807 0.25119 0.40003 0.0
C365 C 0.94186 0.25272 0.38161 0.0
C366 C 0.87423 0.31989 0.40428 0.0
C367 C 0.91785 0.22592 0.41115 0.0
H368 H 0.85446 0.26845 0.48897 0.0
H369 H 0.78828 0.26234 0.42958 0.0
H370 H 0.92683 0.26522 0.45175 0.0
H371 H 0.90699 0.29661 0.45974 0.0
H372 H 0.90901 0.27189 0.48234 0.0
H373 H 0.80319 0.26684 0.38699 0.0
H374 H 0.84094 0.27621 0.37889 0.0
H375 H 0.84126 0.244 0.38582 0.0
H376 H 0.92015 0.31445 0.36726 0.0
H377 H 0.95931 0.23593 0.37613 0.0
H378 H 0.87784 0.32306 0.4245 0.0
H379 H 0.8485 0.3178 0.40179 0.0
H380 H 0.87813 0.3365 0.39362 0.0
H381 H 0.93262 0.22369 0.42861 0.0
H382 H 0.92896 0.21059 0.39819 0.0
H383 H 0.89262 0.22379 0.41578 0.0
C384 C 0.7354 0.0884 0.63903 0.0
C385 C 0.75661 0.08386 0.65998 0.0
C386 C 0.73531 0.10932 0.62311 0.0
C387 C 0.75819 0.12488 0.62749 0.0
C388 C 0.77798 0.12086 0.64928 0.0
C389 C 0.77668 0.1007 0.66508 0.0
C390 C 0.70982 0.11569 0.60263 0.0
C391 C 0.79816 0.13926 0.65795 0.0
C392 C 0.78473 0.16737 0.57827 0.0
C393 C 0.76804 0.19114 0.58594 0.0
C394 C 0.78108 0.14562 0.59116 0.0
C395 C 0.75917 0.14734 0.61153 0.0
C396 C 0.7426 0.17118 0.61953 0.0
C397 C 0.74663 0.19283 0.60645 0.0
C398 C 0.80261 0.12093 0.58428 0.0
C399 C 0.72148 0.17351 0.6425 0.0
H400 H 0.71806 0.07642 0.63578 0.0
H401 H 0.79149 0.09826 0.68197 0.0
H402 H 0.69792 0.1359 0.60325 0.0
H403 H 0.72194 0.11206 0.58414 0.0
H404 H 0.69047 0.10451 0.60419 0.0
H405 H 0.82062 0.1294 0.66788 0.0
H406 H 0.80568 0.15038 0.64251 0.0
H407 H 0.78351 0.15237 0.67154 0.0
H408 H 0.80157 0.16576 0.56264 0.0
H409 H 0.73374 0.21108 0.61256 0.0
H410 H 0.78704 0.10755 0.57893 0.0
H411 H 0.81752 0.11302 0.60076 0.0
H412 H 0.81951 0.12266 0.56864 0.0
H413 H 0.69662 0.17197 0.63631 0.0
H414 H 0.72258 0.19081 0.65288 0.0
H415 H 0.72848 0.15836 0.65636 0.0
C416 C 0.91883 0.04599 0.9548 0.0
C417 C 0.94859 0.02829 0.95649 0.0
C418 C 0.89443 0.04413 0.93691 0.0
C419 C 0.899 0.02379 0.92004 0.0
C420 C 0.9324 0.99839 0.92092 0.0
C421 C 0.95674 1.00065 0.93907 0.0
C422 C 0.86366 0.0643 0.93608 0.0
C423 C 0.93994 0.97762 0.9021 0.0
C424 C 0.82588 1.00181 0.88559 0.0
C425 C 0.82482 0.0214 0.86224 0.0
C426 C 0.85034 1.00175 0.90437 0.0
C427 C 0.87338 0.02228 0.90012 0.0
C428 C 0.87559 0.03313 0.87629 0.0
C429 C 0.85156 0.03253 0.85801 0.0
C430 C 0.84917 0.98751 0.9284 0.0
C431 C 0.90312 0.04592 0.86961 0.0
H432 H 0.91449 0.0617 0.96762 0.0
H433 H 0.98008 0.98762 0.93871 0.0
H434 H 0.85618 0.06948 0.91654 0.0
H435 H 0.84346 0.05715 0.94512 0.0
H436 H 0.86683 0.08147 0.94609 0.0
H437 H 0.94387 0.9597 0.91236 0.0
H438 H 0.92016 0.97716 0.88835 0.0
H439 H 0.96252 0.97914 0.89176 0.0
H440 H 0.80602 0.99215 0.88889 0.0
H441 H 0.85368 0.04123 0.84001 0.0
H442 H 0.84589 1.00075 0.94439 0.0
H443 H 0.87289 0.97403 0.9313 0.0
H444 H 0.82896 0.97706 0.92848 0.0
H445 H 0.89575 0.066 0.87477 0.0
H446 H 0.90802 0.04486 0.84918 0.0
H447 H 0.92631 0.03776 0.87949 0.0
C448 C 0.10419 0.99353 0.07428 0.0
C449 C 0.07185 0.01746 0.06612 0.0
C450 C 0.12315 1.00003 0.09455 0.0
C451 C 0.10842 0.02986 0.10878 0.0
C452 C 0.07965 0.04636 0.10027 0.0
C453 C 0.06311 0.04064 0.07847 0.0
C454 C 0.1554 0.98296 0.10115 0.0
C455 C 0.06474 0.06961 0.11463 0.0
C456 C 0.13274 0.02474 0.17827 0.0
C457 C 0.1599 0.03591 0.1789 0.0
C458 C 0.11527 0.02353 0.15585 0.0
C459 C 0.12464 0.03422 0.13348 0.0
C460 C 0.14952 0.04854 0.13513 0.0
C461 C 0.16737 0.04868 0.15762 0.0
C462 C 0.09036 1.00222 0.156 0.0
C463 C 0.15831 0.06317 0.11325 0.0
H464 H 0.11256 0.97589 0.06468 0.0
H465 H 0.04261 0.05418 0.07144 0.0
H466 H 0.17373 0.99385 0.10734 0.0
H467 H 0.15148 0.97054 0.11679 0.0
H468 H 0.16568 0.97112 0.08501 0.0
H469 H 0.03999 0.06773 0.12067 0.0
H470 H 0.07858 0.07285 0.13158 0.0
H471 H 0.06223 0.08624 0.10224 0.0
H472 H 0.12619 0.01574 0.19503 0.0
H473 H 0.18755 0.05843 0.15842 0.0
H474 H 0.09719 0.98484 0.14474 0.0
H475 H 0.06517 0.02196 0.14731 0.0
H476 H 0.08402 0.9971 0.17521 0.0
H477 H 0.17891 0.05129 0.10291 0.0
H478 H 0.16667 0.08018 0.1197 0.0
H479 H 0.13732 0.06899 0.10023 0.0
C480 C 0.98832 0.40455 0.4482 0.0
C481 C 0.01717 0.41837 0.45038 0.0
C482 C 0.98548 0.39035 0.42639 0.0
C483 C 0.01199 0.38988 0.40671 0.0
C484 C 0.03796 0.40277 0.40959 0.0
C485 C 0.04002 0.41684 0.4312 0.0
C486 C 0.95766 0.37658 0.42386 0.0
C487 C 0.06305 0.40287 0.3894 0.0
C488 C 0.02802 0.33371 0.36346 0.0
C489 C 0.01459 0.34391 0.34082 0.0
C490 C 0.02663 0.34847 0.38493 0.0
C491 C 0.01073 0.37402 0.38413 0.0
C492 C 0.99097 0.38404 0.36181 0.0
C493 C 0.99306 0.36883 0.34036 0.0
C494 C 0.04263 0.33668 0.40854 0.0
C495 C 0.97099 0.41046 0.36059 0.0
H496 H 0.97049 0.40543 0.46302 0.0
H497 H 0.05929 0.42742 0.4328 0.0
H498 H 0.96433 0.35923 0.41261 0.0
H499 H 0.94948 0.37132 0.44238 0.0
H500 H 0.93691 0.38886 0.41399 0.0
H501 H 0.08594 0.40744 0.39704 0.0
H502 H 0.06953 0.38457 0.37967 0.0
H503 H 0.05261 0.41743 0.37542 0.0
H504 H 0.04031 0.31416 0.36439 0.0
H505 H 0.98093 0.37653 0.32327 0.0
H506 H 0.02375 0.33713 0.42323 0.0
H507 H 0.06062 0.3475 0.41551 0.0
H508 H 0.05555 0.31691 0.40573 0.0
H509 H 0.94616 0.41067 0.36825 0.0
H510 H 0.96805 0.41748 0.34103 0.0
H511 H 0.98221 0.42351 0.37191 0.0
C512 C 0.67418 0.26648 0.56131 0.0
C513 C 0.70223 0.27719 0.56361 0.0
C514 C 0.65589 0.26126 0.58265 0.0
C515 C 0.66583 0.26625 0.60729 0.0
C516 C 0.69591 0.27454 0.60962 0.0
C517 C 0.71255 0.28095 0.58813 0.0
C518 C 0.62518 0.25118 0.57864 0.0
C519 C 0.71189 0.27547 0.63479 0.0
C520 C 0.60339 0.28694 0.66101 0.0
C521 C 0.60578 0.26512 0.67524 0.0
C522 C 0.6222 0.2873 0.63899 0.0
C523 C 0.64367 0.26531 0.63022 0.0
C524 C 0.64471 0.24319 0.64435 0.0
C525 C 0.62652 0.2433 0.66666 0.0
C526 C 0.61888 0.31143 0.62492 0.0
C527 C 0.66653 0.21955 0.63686 0.0
H528 H 0.66575 0.26299 0.54274 0.0
H529 H 0.7348 0.28807 0.59056 0.0
H530 H 0.62289 0.23667 0.5926 0.0
H531 H 0.60342 0.2667 0.58086 0.0
H532 H 0.62448 0.2431 0.55968 0.0
H533 H 0.72891 0.28865 0.63475 0.0
H534 H 0.69363 0.2809 0.64993 0.0
H535 H 0.7265 0.25649 0.63919 0.0
H536 H 0.58691 0.30392 0.6672 0.0
H537 H 0.62808 0.22608 0.67718 0.0
H538 H 0.61018 0.30892 0.60564 0.0
H539 H 0.64324 0.31657 0.62354 0.0
H540 H 0.60141 0.32704 0.63401 0.0
H541 H 0.66147 0.21411 0.61755 0.0
H542 H 0.66379 0.20437 0.64994 0.0
H543 H 0.69155 0.22321 0.63739 0.0
C544 C 0.78478 0.9437 0.85515 0.0
C545 C 0.75694 0.94684 0.83965 0.0
C546 C 0.78581 0.93071 0.87806 0.0
C547 C 0.75836 0.9207 0.88542 0.0
C548 C 0.73057 0.92391 0.86933 0.0
C549 C 0.73028 0.93695 0.84677 0.0
C550 C 0.81638 0.92739 0.89397 0.0
C551 C 0.70028 0.91428 0.87592 0.0
C552 C 0.76249 0.86275 0.92526 0.0
C553 C 0.74941 0.87213 0.94826 0.0
C554 C 0.76841 0.87844 0.90579 0.0
C555 C 0.75919 0.90468 0.90838 0.0
C556 C 0.74581 0.91473 0.9315 0.0
C557 C 0.74208 0.89837 0.95155 0.0
C558 C 0.78267 0.86683 0.88164 0.0
C559 C 0.73482 0.94267 0.93477 0.0
H560 H 0.80553 0.95153 0.84944 0.0
H561 H 0.70885 0.93964 0.83469 0.0
H562 H 0.81002 0.9297 0.91408 0.0
H563 H 0.83117 0.90815 0.89131 0.0
H564 H 0.83185 0.94091 0.88879 0.0
H565 H 0.68611 0.91138 0.85893 0.0
H566 H 0.70607 0.89639 0.88642 0.0
H567 H 0.68426 0.92844 0.88779 0.0
H568 H 0.76763 0.84272 0.92221 0.0
H569 H 0.73226 0.90607 0.96928 0.0
H570 H 0.80635 0.87242 0.87791 0.0
H571 H 0.76584 0.8736 0.86583 0.0
H572 H 0.78675 0.84612 0.88193 0.0
H573 H 0.75677 0.95096 0.93743 0.0
H574 H 0.71851 0.94739 0.95125 0.0
H575 H 0.72156 0.95152 0.91796 0.0
C576 C 0.17013 0.29923 0.07652 0.0
C577 C 0.19661 0.28106 0.06705 0.0
C578 C 0.15083 0.29412 0.09714 0.0
C579 C 0.15953 0.27119 0.1103 0.0
C580 C 0.18619 0.25329 0.10134 0.0
C581 C 0.20237 0.25748 0.07882 0.0
C582 C 0.12193 0.31368 0.10561 0.0
C583 C 0.19746 0.22969 0.11595 0.0
C584 C 0.13858 0.26887 0.18008 0.0
C585 C 0.10858 0.26135 0.17937 0.0
C586 C 0.15545 0.27176 0.15782 0.0
C587 C 0.14246 0.26632 0.13432 0.0
C588 C 0.11515 0.25439 0.13435 0.0
C589 C 0.09789 0.25287 0.15674 0.0
C590 C 0.18716 0.28084 0.15952 0.0
C591 C 0.10343 0.2435 0.11104 0.0
H592 H 0.16423 0.3175 0.06771 0.0
H593 H 0.21998 0.24251 0.07069 0.0
H594 H 0.101 0.305 0.11078 0.0
H595 H 0.12909 0.32312 0.12248 0.0
H596 H 0.11369 0.32798 0.09088 0.0
H597 H 0.22435 0.22371 0.11482 0.0
H598 H 0.19209 0.23108 0.13617 0.0
H599 H 0.1837 0.21606 0.10863 0.0
H600 H 0.14783 0.27397 0.19787 0.0
H601 H 0.07573 0.24534 0.15648 0.0
H602 H 0.18426 0.29912 0.14974 0.0
H603 H 0.20733 0.26758 0.15014 0.0
H604 H 0.19466 0.28312 0.17918 0.0
H605 H 0.08412 0.25795 0.10206 0.0
H606 H 0.09242 0.22716 0.11563 0.0
H607 H 0.12359 0.23743 0.09744 0.0
C608 C 0.77577 0.45351 0.36354 0.0
C609 C 0.75347 0.45074 0.34457 0.0
C610 C 0.77717 0.43982 0.38605 0.0
C611 C 0.75544 0.42321 0.3897 0.0
C612 C 0.7336 0.42017 0.37 0.0
C613 C 0.73327 0.43369 0.34765 0.0
C614 C 0.80191 0.44324 0.40567 0.0
C615 C 0.70903 0.40365 0.37266 0.0
C616 C 0.77259 0.36677 0.43339 0.0
C617 C 0.74964 0.37358 0.45261 0.0
C618 C 0.77607 0.38334 0.41387 0.0
C619 C 0.75631 0.40774 0.41318 0.0
C620 C 0.73442 0.4156 0.43333 0.0
C621 C 0.73173 0.39863 0.45311 0.0
C622 C 0.79943 0.37405 0.39287 0.0
C623 C 0.71342 0.44174 0.43361 0.0
H624 H 0.79201 0.46643 0.36078 0.0
H625 H 0.71618 0.43162 0.33285 0.0
H626 H 0.7911 0.44384 0.42465 0.0
H627 H 0.82316 0.42714 0.40499 0.0
H628 H 0.81124 0.46066 0.40256 0.0
H629 H 0.70184 0.39727 0.35414 0.0
H630 H 0.71843 0.3869 0.38436 0.0
H631 H 0.6866 0.41466 0.38167 0.0
H632 H 0.78758 0.34795 0.43326 0.0
H633 H 0.71469 0.40461 0.46828 0.0
H634 H 0.8175 0.38624 0.39085 0.0
H635 H 0.78565 0.37473 0.37501 0.0
H636 H 0.81278 0.35455 0.39594 0.0
H637 H 0.72906 0.45521 0.43847 0.0
H638 H 0.69324 0.44359 0.44747 0.0
H639 H 0.70253 0.44709 0.41492 0.0
C640 C 0.59732 0.02278 0.56108 0.0
C641 C 0.56536 0.0179 0.56297 0.0
C642 C 0.61416 0.02987 0.58234 0.0
C643 C 0.59862 0.03304 0.6061 0.0
C644 C 0.56586 0.02959 0.6076 0.0
C645 C 0.55052 0.02096 0.58662 0.0
C646 C 0.64915 0.03298 0.57964 0.0
C647 C 0.54699 0.03486 0.63167 0.0
C648 C 0.65182 0.01403 0.6646 0.0
C649 C 0.65553 0.03673 0.67472 0.0
C650 C 0.63318 0.013 0.64281 0.0
C651 C 0.61806 0.03522 0.62995 0.0
C652 C 0.62143 0.05857 0.64044 0.0
C653 C 0.64009 0.05904 0.66264 0.0
C654 C 0.63314 0.97985 0.63339 0.0
C655 C 0.60606 0.0831 0.62832 0.0
H656 H 0.60957 0.02042 0.54313 0.0
H657 H 0.52643 0.01664 0.58873 0.0
H658 H 0.65356 0.04907 0.59085 0.0
H659 H 0.66598 0.01585 0.58675 0.0
H660 H 0.6554 0.03582 0.55983 0.0
H661 H 0.52186 0.03108 0.63018 0.0
H662 H 0.56027 0.02333 0.64706 0.0
H663 H 0.54507 0.05481 0.63683 0.0
H664 H 0.66669 0.98897 0.67387 0.0
H665 H 0.64328 0.07684 0.67016 0.0
H666 H 0.64491 0.97656 0.61476 0.0
H667 H 0.60685 0.9791 0.63122 0.0
H668 H 0.64481 0.96446 0.64616 0.0
H669 H 0.62325 0.08788 0.61418 0.0
H670 H 0.60151 0.09828 0.64246 0.0
H671 H 0.58259 0.08225 0.61882 0.0
C672 C 0.00722 0.92326 0.92542 0.0
C673 C 0.02566 0.91398 0.94654 0.0
C674 C 0.00337 0.90816 0.9049 0.0
C675 C 0.01874 0.88259 0.90498 0.0
C676 C 0.03717 0.87252 0.92641 0.0
C677 C 0.03997 0.88819 0.94724 0.0
C678 C 0.97998 0.92037 0.8828 0.0
C679 C 0.056 0.84574 0.92644 0.0
C680 C 0.9896 0.83953 0.85557 0.0
C681 C 0.01748 0.83946 0.83723 0.0
C682 C 0.98929 0.85375 0.87758 0.0
C683 C 0.01821 0.86732 0.88169 0.0
C684 C 0.0416 0.86789 0.86252 0.0
C685 C 0.04053 0.85431 0.84039 0.0
C686 C 0.96209 0.85446 0.89631 0.0
C687 C 0.0674 0.88341 0.86473 0.0
H688 H 0.99293 0.94301 0.9245 0.0
H689 H 0.0545 0.88055 0.96335 0.0
H690 H 0.98436 0.90943 0.86528 0.0
H691 H 0.95343 0.92316 0.88725 0.0
H692 H 0.98596 0.93888 0.87906 0.0
H693 H 0.06172 0.83869 0.94576 0.0
H694 H 0.04223 0.8332 0.91668 0.0
H695 H 0.0795 0.84478 0.91633 0.0
H696 H 0.97105 0.8285 0.85265 0.0
H697 H 0.05843 0.85474 0.82578 0.0
H698 H 0.94858 0.8741 0.89893 0.0
H699 H 0.9727 0.84754 0.91469 0.0
H700 H 0.94434 0.84295 0.89037 0.0
H701 H 0.05675 0.90274 0.85825 0.0
H702 H 0.08906 0.87578 0.85286 0.0
H703 H 0.07589 0.88442 0.88429 0.0
C704 C 0.10044 0.10624 0.99459 0.0
C705 C 0.07021 0.11496 0.01622 0.0
C706 C 0.12516 0.12001 0.99455 0.0
C707 C 0.12009 0.14282 0.01726 0.0
C708 C 0.08956 0.1526 0.02875 0.0
C709 C 0.06457 0.13858 0.02792 0.0
C710 C 0.15677 0.10929 0.98125 0.0
C711 C 0.08377 0.17805 0.0411 0.0
C712 C 0.19798 0.16393 0.03668 0.0
C713 C 0.19989 0.1816 0.01785 0.0
C714 C 0.17132 0.15167 0.03726 0.0
C715 C 0.14713 0.15674 0.01824 0.0
C716 C 0.14973 0.17471 0.98983 0.0
C717 C 0.17635 0.18653 0.98967 0.0
C718 C 0.1682 0.13408 0.05849 0.0
C719 C 0.12396 0.18177 0.96983 0.0
H720 H 0.10468 0.08813 0.98542 0.0
H721 H 0.04135 0.14552 0.03684 0.0
H722 H 0.16736 0.12413 0.97227 0.0
H723 H 0.1748 0.09938 0.99511 0.0
H724 H 0.15317 0.09564 0.96665 0.0
H725 H 0.06149 0.18184 0.05254 0.0
H726 H 0.1051 0.18016 0.05281 0.0
H727 H 0.08046 0.19282 0.02652 0.0
H728 H 0.21647 0.16032 0.05121 0.0
H729 H 0.17775 0.20046 0.97545 0.0
H730 H 0.17771 0.11447 0.05241 0.0
H731 H 0.1422 0.13578 0.06421 0.0
H732 H 0.18222 0.1379 0.07509 0.0
H733 H 0.13038 0.16873 0.95386 0.0
H734 H 0.12294 0.20114 0.96297 0.0
H735 H 0.09912 0.18052 0.97635 0.0
C736 C 0.66741 0.58922 0.25288 0.0
C737 C 0.69142 0.58459 0.27188 0.0
C738 C 0.64276 0.61122 0.25212 0.0
C739 C 0.6437 0.63056 0.26948 0.0
C740 C 0.6691 0.62671 0.28773 0.0
C741 C 0.6919 0.60362 0.28921 0.0
C742 C 0.61608 0.61358 0.23256 0.0
C743 C 0.672 0.64677 0.30631 0.0
C744 C 0.60175 0.69821 0.25468 0.0
C745 C 0.57456 0.70255 0.27088 0.0
C746 C 0.62398 0.67493 0.25364 0.0
C747 C 0.61861 0.65486 0.26868 0.0
C748 C 0.59031 0.6587 0.28414 0.0
C749 C 0.56885 0.68245 0.2852 0.0
C750 C 0.65368 0.67204 0.23691 0.0
C751 C 0.58182 0.6376 0.29909 0.0
H752 H 0.66772 0.57577 0.23837 0.0
H753 H 0.71078 0.60081 0.30354 0.0
H754 H 0.59209 0.62386 0.23987 0.0
H755 H 0.62268 0.62411 0.21628 0.0
H756 H 0.61314 0.5949 0.22586 0.0
H757 H 0.69742 0.6442 0.31378 0.0
H758 H 0.66506 0.66577 0.29798 0.0
H759 H 0.65518 0.64568 0.32215 0.0
H760 H 0.60618 0.71312 0.24302 0.0
H761 H 0.54712 0.68509 0.29685 0.0
H762 H 0.65301 0.65732 0.22275 0.0
H763 H 0.67642 0.66593 0.24813 0.0
H764 H 0.65506 0.68972 0.22706 0.0
H765 H 0.56869 0.6266 0.28674 0.0
H766 H 0.56545 0.64475 0.31502 0.0
H767 H 0.60405 0.62476 0.30648 0.0
C768 C 0.34887 0.8564 0.52542 0.0
C769 C 0.35165 0.83806 0.50709 0.0
C770 C 0.36594 0.87571 0.52352 0.0
C771 C 0.38528 0.87744 0.50214 0.0
C772 C 0.38773 0.85932 0.48303 0.0
C773 C 0.37114 0.83946 0.48583 0.0
C774 C 0.36247 0.89446 0.54449 0.0
C775 C 0.40829 0.86085 0.46011 0.0
C776 C 0.3946 0.9439 0.50037 0.0
C777 C 0.42691 0.94215 0.50903 0.0
C778 C 0.38299 0.92254 0.49372 0.0
C779 C 0.40194 0.89881 0.49999 0.0
C780 C 0.43441 0.89672 0.50896 0.0
C781 C 0.44708 0.91838 0.51209 0.0
C782 C 0.34948 0.92539 0.4818 0.0
C783 C 0.4545 0.87228 0.5184 0.0
H784 H 0.33359 0.85548 0.54165 0.0
H785 H 0.37282 0.82544 0.47132 0.0
H786 H 0.38522 0.90166 0.54739 0.0
H787 H 0.34216 0.91053 0.53993 0.0
H788 H 0.3563 0.88617 0.56237 0.0
H789 H 0.40023 0.85085 0.44417 0.0
H790 H 0.40709 0.88054 0.45426 0.0
H791 H 0.43433 0.85223 0.46431 0.0
H792 H 0.37756 0.96175 0.50005 0.0
H793 H 0.47189 0.91667 0.51911 0.0
H794 H 0.33124 0.92281 0.49612 0.0
H795 H 0.34982 0.91092 0.46718 0.0
H796 H 0.34127 0.9442 0.47318 0.0
H797 H 0.44897 0.8705 0.53854 0.0
H798 H 0.48122 0.87178 0.51662 0.0
H799 H 0.44871 0.85591 0.50849 0.0
C800 C 0.09192 0.69399 0.74112 0.0
C801 C 0.07997 0.70417 0.76445 0.0
C802 C 0.11668 0.67188 0.73931 0.0
C803 C 0.12939 0.65876 0.76127 0.0
C804 C 0.11777 0.66913 0.78471 0.0
C805 C 0.09362 0.69156 0.78602 0.0
C806 C 0.12861 0.66252 0.71377 0.0
C807 C 0.13153 0.6569 0.80875 0.0
C808 C 0.16366 0.58777 0.76349 0.0
C809 C 0.19743 0.58629 0.76685 0.0
C810 C 0.14163 0.61109 0.76029 0.0
C811 C 0.15344 0.6337 0.7603 0.0
C812 C 0.1879 0.63202 0.7623 0.0
C813 C 0.20938 0.60841 0.76522 0.0
C814 C 0.10544 0.61163 0.75758 0.0
C815 C 0.2025 0.65501 0.76105 0.0
H816 H 0.08179 0.70312 0.72403 0.0
H817 H 0.08531 0.69915 0.80415 0.0
H818 H 0.15525 0.65392 0.714 0.0
H819 H 0.11516 0.64801 0.70773 0.0
H820 H 0.12408 0.67787 0.6997 0.0
H821 H 0.11521 0.66348 0.82486 0.0
H822 H 0.1353 0.63619 0.80774 0.0
H823 H 0.15576 0.66171 0.81231 0.0
H824 H 0.15442 0.57062 0.76346 0.0
H825 H 0.23568 0.60725 0.76621 0.0
H826 H 0.09606 0.62138 0.73999 0.0
H827 H 0.09185 0.62234 0.77329 0.0
H828 H 0.10006 0.59254 0.75739 0.0
H829 H 0.20465 0.66018 0.74114 0.0
H830 H 0.22744 0.65158 0.76954 0.0
H831 H 0.18679 0.67119 0.77063 0.0
C832 C 0.87883 0.34081 0.50048 0.0
C833 C 0.84455 0.34435 0.5024 0.0
C834 C 0.89366 0.36119 0.49577 0.0
C835 C 0.87371 0.38545 0.49303 0.0
C836 C 0.83922 0.38832 0.4914 0.0
C837 C 0.8251 0.36765 0.496 0.0
C838 C 0.93064 0.35702 0.49624 0.0
C839 C 0.81684 0.41329 0.4861 0.0
C840 C 0.90813 0.43476 0.5272 0.0
C841 C 0.92145 0.44643 0.5079 0.0
C842 C 0.89207 0.41526 0.52236 0.0
C843 C 0.88844 0.40761 0.49746 0.0
C844 C 0.90016 0.42033 0.47759 0.0
C845 C 0.9177 0.43916 0.48306 0.0
C846 C 0.87929 0.40268 0.54413 0.0
C847 C 0.89288 0.41468 0.4509 0.0
H848 H 0.8942 0.32254 0.50418 0.0
H849 H 0.79865 0.37015 0.49598 0.0
H850 H 0.93971 0.37101 0.48471 0.0
H851 H 0.93889 0.35887 0.51576 0.0
H852 H 0.94205 0.33793 0.48954 0.0
H853 H 0.79148 0.41389 0.49294 0.0
H854 H 0.82599 0.42904 0.49465 0.0
H855 H 0.81544 0.41625 0.46557 0.0
H856 H 0.91063 0.4408 0.54629 0.0
H857 H 0.92795 0.44843 0.46804 0.0
H858 H 0.89412 0.38336 0.54616 0.0
H859 H 0.85338 0.40136 0.54082 0.0
H860 H 0.88059 0.41284 0.56196 0.0
H861 H 0.89679 0.39421 0.4478 0.0
H862 H 0.90769 0.42325 0.43753 0.0
H863 H 0.86654 0.42247 0.44697 0.0
C864 C 0.35269 0.94735 0.27685 0.0
C865 C 0.3292 0.95274 0.2573 0.0
C866 C 0.37347 0.92311 0.27996 0.0
C867 C 0.37078 0.9031 0.26349 0.0
C868 C 0.34537 0.90819 0.24519 0.0
C869 C 0.3256 0.93262 0.24209 0.0
C870 C 0.39837 0.91915 0.30085 0.0
C871 C 0.3378 0.88744 0.22927 0.0
C872 C 0.44493 0.85077 0.24375 0.0
C873 C 0.43996 0.8293 0.25624 0.0
C874 C 0.42384 0.87466 0.2473 0.0
C875 C 0.3959 0.87784 0.26322 0.0
C876 C 0.39109 0.85621 0.27646 0.0
C877 C 0.41339 0.83266 0.27331 0.0
C878 C 0.43156 0.89684 0.23377 0.0
C879 C 0.36288 0.85778 0.29443 0.0
H880 H 0.3551 0.96222 0.28969 0.0
H881 H 0.30632 0.93578 0.22808 0.0
H882 H 0.40139 0.90008 0.30895 0.0
H883 H 0.42251 0.92116 0.29332 0.0
H884 H 0.39132 0.93317 0.31598 0.0
H885 H 0.32251 0.8948 0.21278 0.0
H886 H 0.36056 0.87477 0.2226 0.0
H887 H 0.32398 0.87618 0.24072 0.0
H888 H 0.46616 0.84908 0.23168 0.0
H889 H 0.40986 0.8167 0.28424 0.0
H890 H 0.43456 0.91144 0.2475 0.0
H891 H 0.4108 0.90505 0.22124 0.0
H892 H 0.45432 0.89182 0.22245 0.0
H893 H 0.36997 0.86462 0.31274 0.0
H894 H 0.35673 0.83914 0.29742 0.0
H895 H 0.34057 0.87107 0.28776 0.0
C896 C 0.35328 0.4522 0.77123 0.0
C897 C 0.32793 0.45731 0.75304 0.0
C898 C 0.37404 0.42793 0.77421 0.0
C899 C 0.36958 0.40744 0.75901 0.0
C900 C 0.3424 0.41223 0.74216 0.0
C901 C 0.32253 0.43675 0.73915 0.0
C902 C 0.40085 0.42446 0.79365 0.0
C903 C 0.33301 0.39107 0.72791 0.0
C904 C 0.44225 0.35376 0.73861 0.0
C905 C 0.43875 0.33304 0.75313 0.0
C906 C 0.42111 0.3778 0.74145 0.0
C907 C 0.39446 0.38191 0.75867 0.0
C908 C 0.39102 0.36101 0.77373 0.0
C909 C 0.41341 0.33737 0.77123 0.0
C910 C 0.42745 0.39918 0.72586 0.0
C911 C 0.36422 0.36344 0.79301 0.0
H912 H 0.35706 0.46734 0.78323 0.0
H913 H 0.30178 0.43962 0.72643 0.0
H914 H 0.40446 0.40569 0.80251 0.0
H915 H 0.42425 0.42603 0.78453 0.0
H916 H 0.39538 0.43899 0.80847 0.0
H917 H 0.31612 0.39798 0.71215 0.0
H918 H 0.35496 0.37804 0.72043 0.0
H919 H 0.32031 0.38031 0.74084 0.0
H920 H 0.46238 0.3514 0.72542 0.0
H921 H 0.4108 0.32205 0.78345 0.0
H922 H 0.43177 0.41447 0.73827 0.0
H923 H 0.40551 0.40679 0.71422 0.0
H924 H 0.44904 0.39348 0.71341 0.0
H925 H 0.37278 0.37087 0.81055 0.0
H926 H 0.35821 0.34498 0.79728 0.0
H927 H 0.3415 0.37657 0.78684 0.0
C928 C 0.16829 0.78476 0.56544 0.0
C929 C 0.20193 0.77411 0.56177 0.0
C930 C 0.15031 0.77773 0.5861 0.0
C931 C 0.16613 0.76026 0.60432 0.0
C932 C 0.19967 0.74934 0.6005 0.0
C933 C 0.21661 0.75635 0.57955 0.0
C934 C 0.11447 0.78971 0.58899 0.0
C935 C 0.21813 0.73032 0.61865 0.0
C936 C 0.13391 0.77105 0.6716 0.0
C937 C 0.11235 0.75482 0.6736 0.0
C938 C 0.15203 0.77222 0.64958 0.0
C939 C 0.14919 0.75646 0.6289 0.0
C940 C 0.13001 0.73788 0.63216 0.0
C941 C 0.11132 0.73762 0.65424 0.0
C942 C 0.1735 0.79115 0.64822 0.0
C943 C 0.12817 0.71866 0.61236 0.0
H944 H 0.15593 0.79859 0.55217 0.0
H945 H 0.24219 0.74894 0.57763 0.0
H946 H 0.1003 0.77604 0.59608 0.0
H947 H 0.11202 0.80516 0.6028 0.0
H948 H 0.1035 0.79755 0.57101 0.0
H949 H 0.24484 0.73003 0.61817 0.0
H950 H 0.20966 0.73397 0.63818 0.0
H951 H 0.21411 0.71151 0.61341 0.0
H952 H 0.13553 0.78371 0.68695 0.0
H953 H 0.09546 0.72428 0.65614 0.0
H954 H 0.16334 0.80558 0.63405 0.0
H955 H 0.19868 0.78201 0.64229 0.0
H956 H 0.17516 0.80059 0.66643 0.0
H957 H 0.10671 0.72585 0.6001 0.0
H958 H 0.12457 0.70085 0.62089 0.0
H959 H 0.15064 0.71467 0.60066 0.0
C960 C 0.26457 0.91838 0.34239 0.0
C961 C 0.26212 0.94433 0.34361 0.0
C962 C 0.26908 0.90356 0.36422 0.0
C963 C 0.2713 0.9149 0.38786 0.0
C964 C 0.2726 0.94063 0.38862 0.0
C965 C 0.26797 0.95499 0.36656 0.0
C966 C 0.26937 0.87604 0.36188 0.0
C967 C 0.27844 0.95326 0.41272 0.0
C968 C 0.23064 0.88573 0.44107 0.0
C969 C 0.25732 0.86968 0.45239 0.0
C970 C 0.23521 0.90104 0.42063 0.0
C971 C 0.26728 0.90086 0.41153 0.0
C972 C 0.29456 0.88627 0.42433 0.0
C973 C 0.28925 0.87068 0.44439 0.0
C974 C 0.20545 0.91643 0.40781 0.0
C975 C 0.32927 0.88562 0.4159 0.0
H976 H 0.26162 0.90974 0.32452 0.0
H977 H 0.26844 0.97476 0.36739 0.0
H978 H 0.28476 0.86489 0.37654 0.0
H979 H 0.24385 0.87322 0.36388 0.0
H980 H 0.27866 0.8688 0.34327 0.0
H981 H 0.272 0.97401 0.41108 0.0
H982 H 0.26404 0.94744 0.42824 0.0
H983 H 0.30486 0.94769 0.4177 0.0
H984 H 0.206 0.88527 0.44727 0.0
H985 H 0.31013 0.85859 0.4533 0.0
H986 H 0.20294 0.90857 0.38894 0.0
H987 H 0.20836 0.93604 0.40535 0.0
H988 H 0.18249 0.91657 0.41841 0.0
H989 H 0.336 0.87095 0.40137 0.0
H990 H 0.34684 0.88081 0.43166 0.0
H991 H 0.33203 0.90375 0.40774 0.0
C992 C 0.9898 0.70799 0.63734 0.0
C993 C 0.01534 0.70687 0.65761 0.0
C994 C 0.99194 0.68747 0.62074 0.0
C995 C 0.02041 0.66543 0.62414 0.0
C996 C 0.04492 0.66568 0.64249 0.0
C997 C 0.04195 0.6862 0.65905 0.0
C998 C 0.96626 0.68878 0.60063 0.0
C999 C 0.07397 0.64408 0.64503 0.0
C1000 C 0.98964 0.60425 0.60844 0.0
C1001 C 0.00514 0.59939 0.58418 0.0
C1002 C 0.99532 0.62523 0.6217 0.0
C1003 C 0.0179 0.64143 0.61088 0.0
C1004 C 0.03232 0.6351 0.58713 0.0
C1005 C 0.0252 0.61451 0.5739 0.0
C1006 C 0.98012 0.63056 0.64711 0.0
C1007 C 0.05423 0.65033 0.57496 0.0
H1008 H 0.96988 0.72421 0.63535 0.0
H1009 H 0.06015 0.68577 0.67367 0.0
H1010 H 0.97644 0.67832 0.58365 0.0
H1011 H 0.94612 0.68025 0.60783 0.0
H1012 H 0.95567 0.70849 0.59528 0.0
H1013 H 0.08743 0.64485 0.66287 0.0
H1014 H 0.0662 0.62589 0.64396 0.0
H1015 H 0.09118 0.64476 0.62934 0.0
H1016 H 0.97485 0.5922 0.61669 0.0
H1017 H 0.03538 0.61026 0.55545 0.0
H1018 H 0.9608 0.64798 0.6462 0.0
H1019 H 0.00274 0.63362 0.66081 0.0
H1020 H 0.96887 0.61507 0.65395 0.0
H1021 H 0.03972 0.66305 0.56093 0.0
H1022 H 0.07458 0.63787 0.56491 0.0
H1023 H 0.06491 0.66175 0.58853 0.0
C1024 C 0.35409 0.75749 0.46779 0.0
C1025 C 0.32057 0.76275 0.4615 0.0
C1026 C 0.37852 0.76085 0.45056 0.0
C1027 C 0.37 0.76694 0.42532 0.0
C1028 C 0.33631 0.77056 0.41839 0.0
C1029 C 0.31202 0.76903 0.43657 0.0
C1030 C 0.41339 0.75817 0.45965 0.0
C1031 C 0.326 0.77433 0.39144 0.0
C1032 C 0.42594 0.79198 0.37866 0.0
C1033 C 0.44352 0.76984 0.36757 0.0
C1034 C 0.4034 0.79119 0.39832 0.0
C1035 C 0.39632 0.768 0.40594 0.0
C1036 C 0.41388 0.74582 0.39437 0.0
C1037 C 0.43818 0.74697 0.37633 0.0
C1038 C 0.38691 0.81505 0.411 0.0
C1039 C 0.40665 0.72059 0.40021 0.0
H1040 H 0.36121 0.75128 0.48664 0.0
H1041 H 0.28648 0.77155 0.431 0.0
H1042 H 0.4312 0.74762 0.44612 0.0
H1043 H 0.41883 0.77713 0.46168 0.0
H1044 H 0.41729 0.74859 0.47807 0.0
H1045 H 0.29923 0.78216 0.38958 0.0
H1046 H 0.33959 0.78694 0.38169 0.0
H1047 H 0.33171 0.7559 0.38184 0.0
H1048 H 0.42946 0.80987 0.37183 0.0
H1049 H 0.4516 0.72984 0.36784 0.0
H1050 H 0.39361 0.81341 0.43105 0.0
H1051 H 0.35979 0.81756 0.40982 0.0
H1052 H 0.39419 0.83181 0.40288 0.0
H1053 H 0.42233 0.7122 0.41612 0.0
H1054 H 0.41235 0.70774 0.38397 0.0
H1055 H 0.38055 0.72188 0.40538 0.0
C1056 C 0.24985 0.08324 0.1407 0.0
C1057 C 0.25742 0.08485 0.1663 0.0
C1058 C 0.24778 0.10425 0.12465 0.0
C1059 C 0.25385 0.12708 0.1343 0.0
C1060 C 0.25873 0.12914 0.16029 0.0
C1061 C 0.26013 0.10822 0.17579 0.0
C1062 C 0.24062 0.10144 0.09726 0.0
C1063 C 0.26237 0.15343 0.17221 0.0
C1064 C 0.29595 0.16988 0.09567 0.0
C1065 C 0.26955 0.18762 0.08677 0.0
C1066 C 0.29073 0.14924 0.10955 0.0
C1067 C 0.25855 0.14779 0.11717 0.0
C1068 C 0.2316 0.16576 0.108 0.0
C1069 C 0.23762 0.18381 0.09069 0.0
C1070 C 0.31974 0.12876 0.11578 0.0
C1071 C 0.19703 0.16674 0.11728 0.0
H1072 H 0.24595 0.06567 0.13316 0.0
H1073 H 0.26417 0.11015 0.19565 0.0
H1074 H 0.23392 0.1195 0.08721 0.0
H1075 H 0.26288 0.09028 0.08819 0.0
H1076 H 0.22047 0.09113 0.09493 0.0
H1077 H 0.27548 0.15016 0.19041 0.0
H1078 H 0.27576 0.16437 0.16007 0.0
H1079 H 0.23748 0.16498 0.1757 0.0
H1080 H 0.32071 0.17209 0.09167 0.0
H1081 H 0.21742 0.19595 0.0812 0.0
H1082 H 0.31601 0.11097 0.10736 0.0
H1083 H 0.32179 0.12606 0.13632 0.0
H1084 H 0.34314 0.13275 0.10859 0.0
H1085 H 0.17856 0.17421 0.10268 0.0
H1086 H 0.19246 0.17944 0.13368 0.0
H1087 H 0.19309 0.14822 0.1235 0.0
C1088 C 0.8176 0.7883 0.94411 0.0
C1089 C 0.8211 0.76671 0.95925 0.0
C1090 C 0.84309 0.79199 0.92767 0.0
C1091 C 0.87273 0.77372 0.92573 0.0
C1092 C 0.87655 0.7524 0.94144 0.0
C1093 C 0.85103 0.74919 0.95771 0.0
C1094 C 0.83771 0.81491 0.91136 0.0
C1095 C 0.90785 0.73272 0.94123 0.0
C1096 C 0.91422 0.76339 0.86157 0.0
C1097 C 0.94301 0.77242 0.8642 0.0
C1098 C 0.89178 0.76391 0.88127 0.0
C1099 C 0.89705 0.77458 0.90464 0.0
C1100 C 0.92566 0.78487 0.90746 0.0
C1101 C 0.94857 0.78342 0.88735 0.0
C1102 C 0.86234 0.75246 0.87697 0.0
C1103 C 0.93141 0.79814 0.93126 0.0
H1104 H 0.7948 0.80191 0.94441 0.0
H1105 H 0.85464 0.73258 0.96937 0.0
H1106 H 0.86107 0.82035 0.90622 0.0
H1107 H 0.82523 0.81098 0.89395 0.0
H1108 H 0.82225 0.83101 0.92093 0.0
H1109 H 0.90449 0.71492 0.94988 0.0
H1110 H 0.91729 0.72865 0.92198 0.0
H1111 H 0.9268 0.73978 0.95207 0.0
H1112 H 0.90939 0.75522 0.84385 0.0
H1113 H 0.97022 0.79133 0.88957 0.0
H1114 H 0.83951 0.76701 0.87905 0.0
H1115 H 0.86181 0.73768 0.89114 0.0
H1116 H 0.86234 0.74398 0.8581 0.0
H1117 H 0.9161 0.81743 0.93086 0.0
H1118 H 0.95754 0.79953 0.93326 0.0
H1119 H 0.92407 0.78852 0.94793 0.0
C1120 C 0.23704 0.60359 0.66472 0.0
C1121 C 0.26198 0.58187 0.66247 0.0
C1122 C 0.23589 0.62475 0.64922 0.0
C1123 C 0.26018 0.62439 0.63067 0.0
C1124 C 0.28428 0.602 0.62725 0.0
C1125 C 0.28466 0.58093 0.6429 0.0
C1126 C 0.20926 0.64777 0.65344 0.0
C1127 C 0.31155 0.60093 0.6085 0.0
C1128 C 0.25413 0.67267 0.57783 0.0
C1129 C 0.27542 0.68771 0.58646 0.0
C1130 C 0.24725 0.65292 0.59259 0.0
C1131 C 0.26248 0.64779 0.61632 0.0
C1132 C 0.28243 0.66399 0.62543 0.0
C1133 C 0.28819 0.68384 0.61061 0.0
C1134 C 0.22484 0.6369 0.58242 0.0
C1135 C 0.29816 0.66054 0.65089 0.0
H1136 H 0.21874 0.6043 0.67925 0.0
H1137 H 0.30392 0.56432 0.64076 0.0
H1138 H 0.21955 0.66496 0.65349 0.0
H1139 H 0.19107 0.6496 0.63801 0.0
H1140 H 0.19616 0.6468 0.67137 0.0
H1141 H 0.322 0.58134 0.60275 0.0
H1142 H 0.30312 0.61217 0.59153 0.0
H1143 H 0.33145 0.60871 0.61728 0.0
H1144 H 0.24314 0.67619 0.55947 0.0
H1145 H 0.30368 0.69594 0.61774 0.0
H1146 H 0.20425 0.63696 0.59557 0.0
H1147 H 0.23861 0.61723 0.58067 0.0
H1148 H 0.21452 0.64344 0.56385 0.0
H1149 H 0.2795 0.66856 0.66508 0.0
H1150 H 0.31901 0.67027 0.65247 0.0
H1151 H 0.30732 0.64045 0.65535 0.0
C1152 C 0.36118 0.99675 0.36513 0.0
C1153 C 0.32769 0.02154 0.36562 0.0
C1154 C 0.38543 0.99721 0.38354 0.0
C1155 C 0.37651 0.02304 0.403 0.0
C1156 C 0.34459 0.03865 0.40475 0.0
C1157 C 0.32053 0.03754 0.38625 0.0
C1158 C 0.4173 0.97828 0.38209 0.0
C1159 C 0.33609 0.0575 0.42546 0.0
C1160 C 0.43629 1.00274 0.46067 0.0
C1161 C 0.45305 0.02829 0.45854 0.0
C1162 C 0.41062 1.00175 0.44344 0.0
C1163 C 0.40327 0.02486 0.42191 0.0
C1164 C 0.42486 0.04158 0.41857 0.0
C1165 C 0.4487 0.04356 0.43708 0.0
C1166 C 0.38707 0.98506 0.44892 0.0
C1167 C 0.42331 0.0572 0.39527 0.0
H1168 H 0.3663 0.98331 0.34999 0.0
H1169 H 0.2967 0.05016 0.3873 0.0
H1170 H 0.43854 0.987 0.3862 0.0
H1171 H 0.41689 0.96357 0.39635 0.0
H1172 H 0.42096 0.96917 0.36345 0.0
H1173 H 0.30913 0.06252 0.42865 0.0
H1174 H 0.34839 0.05049 0.44326 0.0
H1175 H 0.3445 0.07477 0.42007 0.0
H1176 H 0.43996 0.9903 0.47633 0.0
H1177 H 0.46416 0.05708 0.43463 0.0
H1178 H 0.39577 0.96649 0.44007 0.0
H1179 H 0.36179 0.99302 0.44224 0.0
H1180 H 0.38561 0.98287 0.46916 0.0
H1181 H 0.43739 0.04556 0.38034 0.0
H1182 H 0.43433 0.07382 0.3983 0.0
H1183 H 0.39767 0.06365 0.38859 0.0
C1184 C 0.84783 0.85131 0.9754 0.0
C1185 C 0.84469 0.8412 0.99913 0.0
C1186 C 0.86109 0.87284 0.97261 0.0
C1187 C 0.87216 0.88387 0.99406 0.0
C1188 C 0.86858 0.87324 0.02767 0.0
C1189 C 0.85461 0.8522 0.02988 0.0
C1190 C 0.86323 0.88365 0.94689 0.0
C1191 C 0.87845 0.88472 0.05131 0.0
C1192 C 0.93885 0.92127 0.99446 0.0
C1193 C 0.92107 0.94545 0.99971 0.0
C1194 C 0.9229 0.90141 0.99053 0.0
C1195 C 0.88826 0.90571 0.99205 0.0
C1196 C 0.86998 0.93042 0.99582 0.0
C1197 C 0.88664 0.95017 0.99907 0.0
C1198 C 0.94331 0.87543 0.9866 0.0
C1199 C 0.83294 0.93594 0.99712 0.0
H1200 H 0.83908 0.84281 0.95921 0.0
H1201 H 0.85157 0.84447 0.04821 0.0
H1202 H 0.85674 0.90443 0.94732 0.0
H1203 H 0.88885 0.87798 0.94001 0.0
H1204 H 0.84676 0.87682 0.93339 0.0
H1205 H 0.88388 0.87067 0.0666 0.0
H1206 H 0.9003 0.89306 0.04865 0.0
H1207 H 0.85769 0.89979 0.05736 0.0
H1208 H 0.96546 0.91771 0.99398 0.0
H1209 H 0.87277 0.96903 1.00232 0.0
H1210 H 0.93506 0.86707 0.96948 0.0
H1211 H 0.93987 0.86331 1.00263 0.0
H1212 H 0.96992 0.87538 0.98484 0.0
H1213 H 0.82289 0.93621 0.97787 0.0
H1214 H 0.82266 0.95427 0.01564 0.0
H1215 H 0.82346 0.9212 0.01753 0.0
C1216 C 0.70468 0.15615 0.51713 0.0
C1217 C 0.69615 0.18248 0.51813 0.0
C1218 C 0.68048 0.14181 0.52119 0.0
C1219 C 0.64741 0.1542 0.52556 0.0
C1220 C 0.63985 0.18042 0.52859 0.0
C1221 C 0.66433 0.19402 0.52526 0.0
C1222 C 0.68987 0.11363 0.5198 0.0
C1223 C 0.60565 0.19457 0.53476 0.0
C1224 C 0.58016 0.12581 0.49669 0.0
C1225 C 0.57022 0.11333 0.51705 0.0
C1226 C 0.60557 0.13895 0.4994 0.0
C1227 C 0.61999 0.14065 0.5232 0.0
C1228 C 0.60703 0.13053 0.54432 0.0
C1229 C 0.58281 0.11642 0.54089 0.0
C1230 C 0.61818 0.14998 0.47653 0.0
C1231 C 0.6199 0.13309 0.57031 0.0
H1232 H 0.72973 0.14689 0.51286 0.0
H1233 H 0.65796 0.21419 0.52752 0.0
H1234 H 0.67485 0.10474 0.53273 0.0
H1235 H 0.68551 0.10761 0.50049 0.0
H1236 H 0.71625 0.10672 0.52441 0.0
H1237 H 0.60211 0.21473 0.52981 0.0
H1238 H 0.58654 0.1868 0.52492 0.0
H1239 H 0.60163 0.19317 0.55517 0.0
H1240 H 0.56985 0.12374 0.47838 0.0
H1241 H 0.57437 0.10718 0.55681 0.0
H1242 H 0.64384 0.14001 0.4729 0.0
H1243 H 0.61842 0.17004 0.47966 0.0
H1244 H 0.6031 0.14843 0.45968 0.0
H1245 H 0.64136 0.11755 0.57364 0.0
H1246 H 0.601 0.13175 0.58458 0.0
H1247 H 0.62798 0.15104 0.57287 0.0
C1248 C 0.85699 0.45427 0.26981 0.0
C1249 C 0.82659 0.4574 0.25695 0.0
C1250 C 0.87799 0.43017 0.27362 0.0
C1251 C 0.8687 0.40794 0.26489 0.0
C1252 C 0.83661 0.41103 0.25434 0.0
C1253 C 0.81644 0.43529 0.25036 0.0
C1254 C 0.91023 0.4287 0.287 0.0
C1255 C 0.82263 0.3885 0.24813 0.0
C1256 C 0.93383 0.35166 0.23893 0.0
C1257 C 0.93734 0.33316 0.25755 0.0
C1258 C 0.91279 0.37574 0.24183 0.0
C1259 C 0.89332 0.38226 0.26363 0.0
C1260 C 0.89666 0.36361 0.28273 0.0
C1261 C 0.91874 0.33985 0.27969 0.0
C1262 C 0.91149 0.39463 0.22125 0.0
C1263 C 0.87767 0.36865 0.30679 0.0
H1264 H 0.86447 0.4708 0.27696 0.0
H1265 H 0.79196 0.43691 0.2427 0.0
H1266 H 0.91683 0.4114 0.29846 0.0
H1267 H 0.9299 0.42834 0.27295 0.0
H1268 H 0.90951 0.44518 0.29933 0.0
H1269 H 0.80057 0.39345 0.23594 0.0
H1270 H 0.84109 0.37382 0.23872 0.0
H1271 H 0.81535 0.38044 0.26577 0.0
H1272 H 0.94838 0.34757 0.22209 0.0
H1273 H 0.92126 0.32636 0.29482 0.0
H1274 H 0.91915 0.41152 0.22866 0.0
H1275 H 0.88589 0.4005 0.21428 0.0
H1276 H 0.92767 0.38717 0.20532 0.0
H1277 H 0.89162 0.37819 0.31999 0.0
H1278 H 0.87437 0.35094 0.3157 0.0
H1279 H 0.85317 0.381 0.3038 0.0
C1280 C 0.10167 0.59945 0.52859 0.0
C1281 C 0.0759 0.60652 0.51143 0.0
C1282 C 0.12647 0.61317 0.53098 0.0
C1283 C 0.1253 0.63457 0.51596 0.0
C1284 C 0.09806 0.64278 0.49982 0.0
C1285 C 0.07326 0.62885 0.49805 0.0
C1286 C 0.15392 0.60455 0.54948 0.0
C1287 C 0.09631 0.66508 0.48287 0.0
C1288 C 0.17497 0.68324 0.53114 0.0
C1289 C 0.19997 0.67809 0.51329 0.0
C1290 C 0.15139 0.66851 0.53298 0.0
C1291 C 0.15286 0.64808 0.51659 0.0
C1292 C 0.18008 0.6412 0.50027 0.0
C1293 C 0.20385 0.65613 0.4991 0.0
C1294 C 0.12397 0.67562 0.5516 0.0
C1295 C 0.18374 0.61844 0.48374 0.0
H1296 H 0.10265 0.58291 0.53999 0.0
H1297 H 0.05291 0.63466 0.4852 0.0
H1298 H 0.17741 0.60925 0.5435 0.0
H1299 H 0.14693 0.61376 0.56773 0.0
H1300 H 0.15849 0.58405 0.55227 0.0
H1301 H 0.07053 0.67341 0.47753 0.0
H1302 H 0.1073 0.67984 0.49158 0.0
H1303 H 0.11025 0.65874 0.46556 0.0
H1304 H 0.17321 0.69936 0.5433 0.0
H1305 H 0.22431 0.65137 0.48626 0.0
H1306 H 0.12406 0.65974 0.56457 0.0
H1307 H 0.09996 0.67961 0.5417 0.0
H1308 H 0.12616 0.69235 0.56273 0.0
H1309 H 0.19326 0.60145 0.49513 0.0
H1310 H 0.20116 0.61908 0.46816 0.0
H1311 H 0.15977 0.61658 0.4757 0.0
C1312 C 0.6987 0.10886 0.7491 0.0
C1313 C 0.69198 0.08914 0.7638 0.0
C1314 C 0.67492 0.13127 0.74538 0.0
C1315 C 0.64322 0.13409 0.75622 0.0
C1316 C 0.63559 0.1132 0.76901 0.0
C1317 C 0.66001 0.09123 0.77288 0.0
C1318 C 0.68433 0.15206 0.73042 0.0
C1319 C 0.60129 0.11381 0.77828 0.0
C1320 C 0.59745 0.1978 0.78137 0.0
C1321 C 0.57243 0.20574 0.76375 0.0
C1322 C 0.62108 0.17524 0.77831 0.0
C1323 C 0.61972 0.15945 0.75746 0.0
C1324 C 0.5946 0.16738 0.73942 0.0
C1325 C 0.57174 0.1904 0.74264 0.0
C1326 C 0.64754 0.16802 0.79778 0.0
C1327 C 0.59185 0.1519 0.71649 0.0
H1328 H 0.72286 0.10695 0.74084 0.0
H1329 H 0.65389 0.07543 0.78267 0.0
H1330 H 0.66298 0.16311 0.72011 0.0
H1331 H 0.69361 0.16488 0.74337 0.0
H1332 H 0.70413 0.14462 0.71684 0.0
H1333 H 0.60047 0.09815 0.79139 0.0
H1334 H 0.59095 0.13176 0.78782 0.0
H1335 H 0.58525 0.11216 0.76203 0.0
H1336 H 0.59884 0.20945 0.79756 0.0
H1337 H 0.55275 0.19594 0.72882 0.0
H1338 H 0.67206 0.16542 0.78884 0.0
H1339 H 0.64564 0.14989 0.80646 0.0
H1340 H 0.6459 0.18232 0.81274 0.0
H1341 H 0.60931 0.15591 0.70216 0.0
H1342 H 0.56672 0.15655 0.70834 0.0
H1343 H 0.59822 0.13154 0.72066 0.0
C1344 C 0.72754 0.59858 0.16072 0.0
C1345 C 0.75738 0.58191 0.16663 0.0
C1346 C 0.72669 0.62007 0.1455 0.0
C1347 C 0.75643 0.62535 0.13617 0.0
C1348 C 0.78629 0.60816 0.14153 0.0
C1349 C 0.78631 0.58661 0.15623 0.0
C1350 C 0.69411 0.63738 0.13995 0.0
C1351 C 0.81891 0.61341 0.13351 0.0
C1352 C 0.76356 0.66812 0.08066 0.0
C1353 C 0.77095 0.68928 0.09237 0.0
C1354 C 0.75643 0.64806 0.09469 0.0
C1355 C 0.75715 0.64876 0.12116 0.0
C1356 C 0.76293 0.67079 0.13294 0.0
C1357 C 0.76928 0.69084 0.11844 0.0
C1358 C 0.74954 0.62557 0.08111 0.0
C1359 C 0.76232 0.67348 0.16092 0.0
H1360 H 0.70487 0.59509 0.16849 0.0
H1361 H 0.80944 0.57415 0.16085 0.0
H1362 H 0.69587 0.65728 0.14217 0.0
H1363 H 0.68703 0.63479 0.12028 0.0
H1364 H 0.67428 0.63358 0.1523 0.0
H1365 H 0.83819 0.59595 0.13278 0.0
H1366 H 0.81748 0.62263 0.11495 0.0
H1367 H 0.82663 0.62617 0.14738 0.0
H1368 H 0.7632 0.66722 0.06043 0.0
H1369 H 0.77354 0.70759 0.12759 0.0
H1370 H 0.72575 0.62163 0.0874 0.0
H1371 H 0.76899 0.6089 0.08566 0.0
H1372 H 0.7486 0.62823 0.06051 0.0
H1373 H 0.73635 0.67848 0.16714 0.0
H1374 H 0.77489 0.68848 0.16716 0.0
H1375 H 0.77413 0.6557 0.17025 0.0
C1376 C 0.95324 0.5293 0.43458 0.0
C1377 C 0.95278 0.52022 0.45911 0.0
C1378 C 0.9296 0.52568 0.41653 0.0
C1379 C 0.90428 0.51295 0.42301 0.0
C1380 C 0.904 0.50343 0.4475 0.0
C1381 C 0.92787 0.50748 0.465 0.0
C1382 C 0.93059 0.53698 0.39098 0.0
C1383 C 0.87758 0.48985 0.45543 0.0
C1384 C 0.82304 0.53128 0.38679 0.0
C1385 C 0.82793 0.51413 0.36706 0.0
C1386 C 0.84723 0.53061 0.40547 0.0
C1387 C 0.87646 0.51171 0.40509 0.0
C1388 C 0.87905 0.49227 0.38716 0.0
C1389 C 0.85521 0.49403 0.36804 0.0
C1390 C 0.84234 0.55116 0.42472 0.0
C1391 C 0.90766 0.47018 0.38717 0.0
H1392 H 0.97157 0.53994 0.42965 0.0
H1393 H 0.92538 0.50272 0.4839 0.0
H1394 H 0.92428 0.52446 0.37627 0.0
H1395 H 0.91217 0.55491 0.39017 0.0
H1396 H 0.95517 0.5409 0.38682 0.0
H1397 H 0.87834 0.48591 0.47579 0.0
H1398 H 0.85277 0.50086 0.45084 0.0
H1399 H 0.88048 0.47204 0.44487 0.0
H1400 H 0.80136 0.54628 0.38669 0.0
H1401 H 0.85829 0.47986 0.35354 0.0
H1402 H 0.86069 0.56295 0.42161 0.0
H1403 H 0.84636 0.54329 0.44384 0.0
H1404 H 0.81733 0.56326 0.42377 0.0
H1405 H 0.92727 0.47453 0.37498 0.0
H1406 H 0.90023 0.45324 0.37957 0.0
H1407 H 0.91801 0.4658 0.40618 0.0
C1408 C 0.16836 0.51012 0.65938 0.0
C1409 C 0.15881 0.52926 0.6768 0.0
C1410 C 0.14917 0.50768 0.63836 0.0
C1411 C 0.11957 0.52526 0.63363 0.0
C1412 C 0.10983 0.54533 0.65084 0.0
C1413 C 0.12937 0.54697 0.67236 0.0
C1414 C 0.16159 0.48617 0.62095 0.0
C1415 C 0.07857 0.56468 0.64694 0.0
C1416 C 0.09233 0.52485 0.56496 0.0
C1417 C 0.06982 0.50882 0.56536 0.0
C1418 C 0.10753 0.53119 0.58713 0.0
C1419 C 0.09967 0.52198 0.6106 0.0
C1420 C 0.07652 0.50624 0.61114 0.0
C1421 C 0.06276 0.4993 0.58865 0.0
C1422 C 0.13201 0.54791 0.58553 0.0
C1423 C 0.06659 0.49607 0.63542 0.0
H1424 H 0.1912 0.49662 0.66218 0.0
H1425 H 0.12179 0.56223 0.68545 0.0
H1426 H 0.14129 0.47846 0.61279 0.0
H1427 H 0.17521 0.49289 0.60546 0.0
H1428 H 0.17865 0.47066 0.63064 0.0
H1429 H 0.07864 0.58195 0.65789 0.0
H1430 H 0.07469 0.56973 0.62689 0.0
H1431 H 0.05742 0.55682 0.65324 0.0
H1432 H 0.09791 0.53257 0.54722 0.0
H1433 H 0.04508 0.48729 0.58946 0.0
H1434 H 0.15604 0.53822 0.59334 0.0
H1435 H 0.12334 0.56513 0.59674 0.0
H1436 H 0.13584 0.55307 0.56595 0.0
H1437 H 0.08381 0.47809 0.6396 0.0
H1438 H 0.04137 0.4924 0.63416 0.0
H1439 H 0.06743 0.5091 0.6512 0.0
C1440 C 0.64566 0.75288 0.18073 0.0
C1441 C 0.61149 0.75496 0.17902 0.0
C1442 C 0.66517 0.75208 0.15895 0.0
C1443 C 0.65023 0.75343 0.13491 0.0
C1444 C 0.61664 0.7518 0.1335 0.0
C1445 C 0.5979 0.75247 0.15547 0.0
C1446 C 0.70135 0.75134 0.16195 0.0
C1447 C 0.59982 0.74998 0.10886 0.0
C1448 C 0.68389 0.792 0.0846 0.0
C1449 C 0.70229 0.77382 0.06872 0.0
C1450 C 0.66686 0.78547 0.10572 0.0
C1451 C 0.66808 0.76003 0.11189 0.0
C1452 C 0.6858 0.74147 0.09587 0.0
C1453 C 0.70218 0.74851 0.07452 0.0
C1454 C 0.64753 0.80599 0.12174 0.0
C1455 C 0.68787 0.71417 0.1018 0.0
H1456 H 0.65696 0.75318 0.19897 0.0
H1457 H 0.57207 0.75187 0.1541 0.0
H1458 H 0.71578 0.74225 0.14581 0.0
H1459 H 0.70512 0.77083 0.16343 0.0
H1460 H 0.71106 0.74118 0.17929 0.0
H1461 H 0.57263 0.75506 0.1106 0.0
H1462 H 0.60759 0.76224 0.09454 0.0
H1463 H 0.60647 0.73037 0.10213 0.0
H1464 H 0.68303 0.81161 0.08069 0.0
H1465 H 0.71603 0.73396 0.06306 0.0
H1466 H 0.65854 0.8049 0.14074 0.0
H1467 H 0.62186 0.80348 0.1237 0.0
H1468 H 0.64705 0.82491 0.11389 0.0
H1469 H 0.69884 0.70973 0.12061 0.0
H1470 H 0.70265 0.70164 0.08794 0.0
H1471 H 0.66292 0.71008 0.10239 0.0
C1472 C 0.62807 0.54718 0.17566 0.0
C1473 C 0.66009 0.53241 0.17779 0.0
C1474 C 0.60966 0.54729 0.1533 0.0
C1475 C 0.62303 0.53159 0.13305 0.0
C1476 C 0.6564 0.51885 0.13464 0.0
C1477 C 0.67455 0.52006 0.15654 0.0
C1478 C 0.57572 0.5636 0.15161 0.0
C1479 C 0.67351 0.50335 0.11346 0.0
C1480 C 0.56753 0.50071 0.09107 0.0
C1481 C 0.56701 0.51344 0.0682 0.0
C1482 C 0.58442 0.50723 0.11231 0.0
C1483 C 0.60203 0.5268 0.11108 0.0
C1484 C 0.60247 0.53933 0.08798 0.0
C1485 C 0.5848 0.53277 0.06709 0.0
C1486 C 0.58434 0.49252 0.13609 0.0
C1487 C 0.62282 0.55885 0.08465 0.0
H1488 H 0.61718 0.55825 0.19149 0.0
H1489 H 0.69995 0.51007 0.15728 0.0
H1490 H 0.57164 0.57266 0.13294 0.0
H1491 H 0.55721 0.55184 0.15409 0.0
H1492 H 0.57165 0.57832 0.16626 0.0
H1493 H 0.69446 0.48874 0.12028 0.0
H1494 H 0.65662 0.49396 0.10285 0.0
H1495 H 0.68342 0.51581 0.10049 0.0
H1496 H 0.55441 0.48558 0.09246 0.0
H1497 H 0.5868 0.54178 0.0495 0.0
H1498 H 0.57281 0.50522 0.15124 0.0
H1499 H 0.60998 0.48434 0.14189 0.0
H1500 H 0.57079 0.47714 0.13404 0.0
H1501 H 0.60657 0.57773 0.08507 0.0
H1502 H 0.63531 0.55588 0.06631 0.0
H1503 H 0.64198 0.55839 0.09914 0.0
C1504 C 0.43553 0.42953 0.98201 0.0
C1505 C 0.42437 0.44753 1.00041 0.0
C1506 C 0.42172 0.40827 0.97955 0.0
C1507 C 0.39611 0.40521 0.99584 0.0
C1508 C 0.38398 0.4237 0.02373 0.0
C1509 C 0.39815 0.44475 0.02567 0.0
C1510 C 0.43474 0.38911 0.95978 0.0
C1511 C 0.35821 0.4207 0.04257 0.0
C1512 C 0.33675 0.36249 0.98434 0.0
C1513 C 0.34941 0.34241 1.00031 0.0
C1514 C 0.35313 0.38228 0.98119 0.0
C1515 C 0.38225 0.38221 0.99491 0.0
C1516 C 0.3954 0.36116 0.01983 0.0
C1517 C 0.37919 0.34113 0.02178 0.0
C1518 C 0.33827 0.404 0.96451 0.0
C1519 C 0.42642 0.36013 0.03476 0.0
H1520 H 0.45534 0.43195 0.96983 0.0
H1521 H 0.38997 0.45863 0.04005 0.0
H1522 H 0.43739 0.36976 0.96711 0.0
H1523 H 0.41711 0.39133 0.94394 0.0
H1524 H 0.45891 0.39136 0.95254 0.0
H1525 H 0.34522 0.43914 0.04994 0.0
H1526 H 0.3397 0.41093 0.03464 0.0
H1527 H 0.37049 0.40939 0.05849 0.0
H1528 H 0.31361 0.36298 0.97479 0.0
H1529 H 0.38909 0.32529 0.03375 0.0
H1530 H 0.35677 0.40746 0.95077 0.0
H1531 H 0.33092 0.42123 0.97594 0.0
H1532 H 0.31634 0.40069 0.95423 0.0
H1533 H 0.44789 0.35426 0.02226 0.0
H1534 H 0.42854 0.34643 0.05036 0.0
H1535 H 0.42764 0.37868 0.04269 0.0
C1536 C 0.06539 0.18454 0.26267 0.0
C1537 C 0.0755 0.20703 0.2678 0.0
C1538 C 0.08839 0.16164 0.25877 0.0
C1539 C 0.12275 0.16072 0.26028 0.0
C1540 C 0.13299 0.18378 0.26366 0.0
C1541 C 0.10946 0.20644 0.26745 0.0
C1542 C 0.07552 0.13833 0.25366 0.0
C1543 C 0.16893 0.18468 0.26281 0.0
C1544 C 0.17867 0.10137 0.28798 0.0
C1545 C 0.19447 0.0888 0.26714 0.0
C1546 C 0.15551 0.12431 0.28564 0.0
C1547 C 0.14751 0.1357 0.26193 0.0
C1548 C 0.16374 0.12326 0.24066 0.0
C1549 C 0.18654 0.10006 0.24346 0.0
C1550 C 0.13942 0.13658 0.30887 0.0
C1551 C 0.15675 0.13392 0.21477 0.0
H1552 H 0.0393 0.18477 0.26187 0.0
H1553 H 0.11771 0.22382 0.27015 0.0
H1554 H 0.09221 0.12524 0.24122 0.0
H1555 H 0.0735 0.12858 0.27162 0.0
H1556 H 0.05074 0.14295 0.24491 0.0
H1557 H 0.17353 0.20263 0.27025 0.0
H1558 H 0.18403 0.169 0.27357 0.0
H1559 H 0.17735 0.18278 0.2431 0.0
H1560 H 0.18422 0.09317 0.30634 0.0
H1561 H 0.19825 0.09082 0.22692 0.0
H1562 H 0.11242 0.13829 0.30752 0.0
H1563 H 0.14421 0.15576 0.31058 0.0
H1564 H 0.14844 0.12587 0.32606 0.0
H1565 H 0.13482 0.12785 0.20721 0.0
H1566 H 0.17767 0.12703 0.20195 0.0
H1567 H 0.1515 0.1547 0.2149 0.0
C1568 C 0.26556 0.36371 0.92504 0.0
C1569 C 0.24712 0.37345 0.94597 0.0
C1570 C 0.27041 0.37876 0.90474 0.0
C1571 C 0.25573 0.4045 0.90476 0.0
C1572 C 0.23724 0.41486 0.92594 0.0
C1573 C 0.23385 0.39936 0.94668 0.0
C1574 C 0.29064 0.36656 0.88302 0.0
C1575 C 0.21868 0.44173 0.92575 0.0
C1576 C 0.28041 0.44809 0.85577 0.0
C1577 C 0.25614 0.44814 0.8375 0.0
C1578 C 0.28119 0.43353 0.8776 0.0
C1579 C 0.25641 0.41961 0.88147 0.0
C1580 C 0.23281 0.41912 0.86237 0.0
C1581 C 0.23349 0.43297 0.84042 0.0
C1582 C 0.30819 0.43312 0.89653 0.0
C1583 C 0.20693 0.40368 0.8646 0.0
H1584 H 0.2757 0.3438 0.92417 0.0
H1585 H 0.21945 0.40723 0.96271 0.0
H1586 H 0.28316 0.3759 0.86491 0.0
H1587 H 0.31675 0.36726 0.8864 0.0
H1588 H 0.28869 0.34668 0.88112 0.0
H1589 H 0.21316 0.44892 0.94502 0.0
H1590 H 0.23247 0.45413 0.91584 0.0
H1591 H 0.19505 0.44275 0.91573 0.0
H1592 H 0.29856 0.45949 0.85301 0.0
H1593 H 0.21544 0.43264 0.82584 0.0
H1594 H 0.32157 0.41353 0.89971 0.0
H1595 H 0.29735 0.44047 0.91467 0.0
H1596 H 0.32607 0.44445 0.89046 0.0
H1597 H 0.21746 0.38434 0.85816 0.0
H1598 H 0.18521 0.41136 0.85273 0.0
H1599 H 0.19851 0.40268 0.88416 0.0
C1600 C 0.32105 0.29284 0.94775 0.0
C1601 C 0.32179 0.26971 0.95983 0.0
C1602 C 0.34667 0.29638 0.93135 0.0
C1603 C 0.37369 0.27645 0.92634 0.0
C1604 C 0.37516 0.2536 0.93926 0.0
C1605 C 0.3495 0.25052 0.95548 0.0
C1606 C 0.34446 0.3213 0.91877 0.0
C1607 C 0.40434 0.23224 0.9364 0.0
C1608 C 0.41264 0.27021 0.86115 0.0
C1609 C 0.44362 0.27564 0.86482 0.0
C1610 C 0.39015 0.27078 0.88081 0.0
C1611 C 0.3977 0.27799 0.90519 0.0
C1612 C 0.42844 0.28509 0.90897 0.0
C1613 C 0.45127 0.28352 0.88886 0.0
C1614 C 0.35831 0.26285 0.87544 0.0
C1615 C 0.43679 0.29502 0.9339 0.0
H1616 H 0.30065 0.30815 0.95094 0.0
H1617 H 0.3514 0.23274 0.96501 0.0
H1618 H 0.36902 0.32518 0.91466 0.0
H1619 H 0.33143 0.32096 0.90078 0.0
H1620 H 0.33111 0.33675 0.93061 0.0
H1621 H 0.39903 0.21427 0.9432 0.0
H1622 H 0.41244 0.22979 0.91665 0.0
H1623 H 0.42505 0.23648 0.94753 0.0
H1624 H 0.40614 0.26464 0.84269 0.0
H1625 H 0.4747 0.28877 0.89187 0.0
H1626 H 0.33736 0.27854 0.87957 0.0
H1627 H 0.35606 0.24687 0.88768 0.0
H1628 H 0.35639 0.25707 0.85567 0.0
H1629 H 0.424 0.31496 0.93553 0.0
H1630 H 0.46361 0.29405 0.93586 0.0
H1631 H 0.42838 0.28461 0.94957 0.0
C1632 C 0.42126 0.54118 0.9558 0.0
C1633 C 0.45177 0.52434 0.95701 0.0
C1634 C 0.39738 0.53898 0.93764 0.0
C1635 C 0.40364 0.51935 0.91994 0.0
C1636 C 0.43513 0.50321 0.92007 0.0
C1637 C 0.45855 0.50546 0.9388 0.0
C1638 C 0.36557 0.55813 0.93729 0.0
C1639 C 0.44461 0.48473 0.89932 0.0
C1640 C 0.32798 0.50439 0.88571 0.0
C1641 C 0.3288 0.51724 0.86288 0.0
C1642 C 0.35294 0.504 0.90409 0.0
C1643 C 0.37844 0.51733 0.89992 0.0
C1644 C 0.37895 0.52988 0.87678 0.0
C1645 C 0.35452 0.52947 0.85881 0.0
C1646 C 0.35252 0.48915 0.92782 0.0
C1647 C 0.40441 0.5449 0.8707 0.0
H1648 H 0.41596 0.55641 0.96916 0.0
H1649 H 0.48274 0.49355 0.93813 0.0
H1650 H 0.35747 0.56348 0.9179 0.0
H1651 H 0.34624 0.54997 0.94634 0.0
H1652 H 0.36769 0.57539 0.94758 0.0
H1653 H 0.47068 0.47496 0.90064 0.0
H1654 H 0.42789 0.47134 0.89961 0.0
H1655 H 0.44143 0.49433 0.88094 0.0
H1656 H 0.30861 0.49421 0.88889 0.0
H1657 H 0.35539 0.53932 0.84128 0.0
H1658 H 0.34851 0.50209 0.94404 0.0
H1659 H 0.37671 0.47623 0.93058 0.0
H1660 H 0.333 0.47804 0.92762 0.0
H1661 H 0.39438 0.56477 0.87563 0.0
H1662 H 0.40989 0.54412 0.85035 0.0
H1663 H 0.42775 0.53862 0.88105 0.0
C1664 C 0.67401 0.6854 0.03743 0.0
C1665 C 0.69634 0.68106 0.01757 0.0
C1666 C 0.6487 0.67221 0.03958 0.0
C1667 C 0.64525 0.65457 0.02106 0.0
C1668 C 0.66957 0.64898 0.99214 0.0
C1669 C 0.69539 0.66198 0.99091 0.0
C1670 C 0.62539 0.67761 0.06139 0.0
C1671 C 0.66668 0.63048 0.97179 0.0
C1672 C 0.59942 0.60297 0.03219 0.0
C1673 C 0.57073 0.61086 0.01816 0.0
C1674 C 0.62289 0.61775 0.03449 0.0
C1675 C 0.61768 0.6411 0.02229 0.0
C1676 C 0.58796 0.65034 0.99989 0.0
C1677 C 0.56434 0.63523 0.99836 0.0
C1678 C 0.6544 0.60778 0.04852 0.0
C1679 C 0.58105 0.67569 0.98747 0.0
H1680 H 0.67558 0.69988 0.05086 0.0
H1681 H 0.71304 0.6583 0.97578 0.0
H1682 H 0.5996 0.67879 0.05531 0.0
H1683 H 0.63156 0.66219 0.07522 0.0
H1684 H 0.62702 0.69539 0.07088 0.0
H1685 H 0.69085 0.62291 0.96298 0.0
H1686 H 0.65649 0.61456 0.97878 0.0
H1687 H 0.64977 0.64028 0.95716 0.0
H1688 H 0.60413 0.58462 0.0406 0.0
H1689 H 0.54152 0.64184 0.98832 0.0
H1690 H 0.65643 0.62008 0.06468 0.0
H1691 H 0.67589 0.60766 0.03625 0.0
H1692 H 0.65611 0.58851 0.05544 0.0
H1693 H 0.57384 0.69033 1.00197 0.0
H1694 H 0.56077 0.67749 0.97361 0.0
H1695 H 0.6032 0.67934 0.97788 0.0
C1696 C 0.94896 0.8514 0.74099 0.0
C1697 C 0.93935 0.82937 0.74859 0.0
C1698 C 0.92767 0.87545 0.74286 0.0
C1699 C 0.89525 0.87835 0.75262 0.0
C1700 C 0.88572 0.85607 0.76103 0.0
C1701 C 0.90778 0.83223 0.75927 0.0
C1702 C 0.94057 0.89796 0.73475 0.0
C1703 C 0.85171 0.85706 0.77113 0.0
C1704 C 0.84723 0.94524 0.77198 0.0
C1705 C 0.82809 0.95385 0.7505 0.0
C1706 C 0.86865 0.92108 0.77312 0.0
C1707 C 0.87118 0.90421 0.75256 0.0
C1708 C 0.85109 0.91264 0.73137 0.0
C1709 C 0.8307 0.9371 0.73039 0.0
C1710 C 0.88844 0.9135 0.79652 0.0
C1711 C 0.85104 0.89593 0.7091 0.0
H1712 H 0.97374 0.84991 0.73403 0.0
H1713 H 0.90012 0.81567 0.76616 0.0
H1714 H 0.92177 0.91123 0.72395 0.0
H1715 H 0.94679 0.90788 0.75161 0.0
H1716 H 0.96303 0.89261 0.72313 0.0
H1717 H 0.85107 0.84082 0.78351 0.0
H1718 H 0.84241 0.8746 0.78168 0.0
H1719 H 0.83476 0.85645 0.75521 0.0
H1720 H 0.84557 0.95745 0.7881 0.0
H1721 H 0.8159 0.94281 0.71387 0.0
H1722 H 0.91503 0.91047 0.79211 0.0
H1723 H 0.8837 0.8955 0.80369 0.0
H1724 H 0.88265 0.92785 0.81147 0.0
H1725 H 0.87092 0.89857 0.69623 0.0
H1726 H 0.82731 0.90078 0.69884 0.0
H1727 H 0.85541 0.87587 0.71445 0.0
C1728 C 0.53883 0.19381 0.65633 0.0
C1729 C 0.50883 0.21053 0.66129 0.0
C1730 C 0.54026 0.17233 0.64119 0.0
C1731 C 0.51089 0.16699 0.63108 0.0
C1732 C 0.48085 0.18427 0.63555 0.0
C1733 C 0.48031 0.20593 0.6501 0.0
C1734 C 0.57324 0.15547 0.63642 0.0
C1735 C 0.44853 0.17901 0.62676 0.0
C1736 C 0.50582 0.12382 0.57558 0.0
C1737 C 0.49816 0.10274 0.5872 0.0
C1738 C 0.51248 0.14398 0.58972 0.0
C1739 C 0.51066 0.14351 0.61616 0.0
C1740 C 0.50458 0.12158 0.6279 0.0
C1741 C 0.49895 0.10139 0.61333 0.0
C1742 C 0.52028 0.16626 0.57633 0.0
C1743 C 0.50393 0.11917 0.6559 0.0
H1744 H 0.5612 0.19729 0.66473 0.0
H1745 H 0.45705 0.21849 0.65408 0.0
H1746 H 0.57102 0.1361 0.63207 0.0
H1747 H 0.58482 0.16281 0.62016 0.0
H1748 H 0.58987 0.15516 0.65274 0.0
H1749 H 0.42936 0.19651 0.6254 0.0
H1750 H 0.45065 0.16955 0.60832 0.0
H1751 H 0.44018 0.16647 0.64055 0.0
H1752 H 0.50652 0.12464 0.55535 0.0
H1753 H 0.49405 0.08485 0.62249 0.0
H1754 H 0.54398 0.16991 0.58329 0.0
H1755 H 0.50092 0.18311 0.58036 0.0
H1756 H 0.522 0.16348 0.55577 0.0
H1757 H 0.52962 0.11398 0.66283 0.0
H1758 H 0.49081 0.10439 0.66185 0.0
H1759 H 0.49202 0.13708 0.66485 0.0
C1760 C 0.48926 0.34009 0.85713 0.0
C1761 C 0.514 0.34056 0.83946 0.0
C1762 C 0.48856 0.35317 0.8799 0.0
C1763 C 0.51349 0.3667 0.8851 0.0
C1764 C 0.53777 0.36759 0.86668 0.0
C1765 C 0.53759 0.35459 0.84412 0.0
C1766 C 0.46098 0.35275 0.89806 0.0
C1767 C 0.56487 0.38164 0.87074 0.0
C1768 C 0.49948 0.42387 0.92702 0.0
C1769 C 0.51995 0.41607 0.94764 0.0
C1770 C 0.49579 0.40752 0.90745 0.0
C1771 C 0.5126 0.38233 0.90829 0.0
C1772 C 0.53164 0.37355 0.92977 0.0
C1773 C 0.53479 0.39043 0.94946 0.0
C1774 C 0.47572 0.41751 0.88478 0.0
C1775 C 0.54892 0.34644 0.93168 0.0
H1776 H 0.47056 0.32946 0.85314 0.0
H1777 H 0.55649 0.35493 0.83027 0.0
H1778 H 0.47056 0.3499 0.91745 0.0
H1779 H 0.4432 0.37096 0.89748 0.0
H1780 H 0.44741 0.33786 0.89347 0.0
H1781 H 0.57497 0.38674 0.85271 0.0
H1782 H 0.55657 0.39902 0.88172 0.0
H1783 H 0.58508 0.36936 0.88121 0.0
H1784 H 0.4864 0.4431 0.92615 0.0
H1785 H 0.54967 0.38376 0.9657 0.0
H1786 H 0.45744 0.40599 0.88051 0.0
H1787 H 0.49208 0.41674 0.86831 0.0
H1788 H 0.46244 0.43691 0.88717 0.0
H1789 H 0.53045 0.33493 0.93561 0.0
H1790 H 0.56758 0.34337 0.94686 0.0
H1791 H 0.56115 0.3397 0.91381 0.0
C1792 C 0.49057 0.83761 0.36202 0.0
C1793 C 0.51579 0.83736 0.34458 0.0
C1794 C 0.48978 0.85094 0.38468 0.0
C1795 C 0.51478 0.86438 0.38985 0.0
C1796 C 0.53977 0.86433 0.37178 0.0
C1797 C 0.53982 0.85093 0.34942 0.0
C1798 C 0.46203 0.85072 0.40271 0.0
C1799 C 0.56755 0.87759 0.37614 0.0
C1800 C 0.49996 0.92148 0.43226 0.0
C1801 C 0.51872 0.91315 0.45357 0.0
C1802 C 0.49746 0.90552 0.41214 0.0
C1803 C 0.51385 0.88015 0.41299 0.0
C1804 C 0.5315 0.87091 0.43497 0.0
C1805 C 0.53349 0.88744 0.45523 0.0
C1806 C 0.4783 0.91625 0.38935 0.0
C1807 C 0.54817 0.84364 0.43695 0.0
H1808 H 0.47163 0.82733 0.3579 0.0
H1809 H 0.55922 0.85063 0.33584 0.0
H1810 H 0.46903 0.85376 0.4223 0.0
H1811 H 0.44078 0.86582 0.39753 0.0
H1812 H 0.45398 0.83263 0.40182 0.0
H1813 H 0.57823 0.88234 0.3582 0.0
H1814 H 0.55976 0.89506 0.38707 0.0
H1815 H 0.58718 0.86487 0.38676 0.0
H1816 H 0.48741 0.94097 0.43103 0.0
H1817 H 0.54726 0.88043 0.47188 0.0
H1818 H 0.45729 0.90694 0.38652 0.0
H1819 H 0.49411 0.91276 0.3725 0.0
H1820 H 0.46891 0.93671 0.39097 0.0
H1821 H 0.52929 0.83246 0.44076 0.0
H1822 H 0.56659 0.84035 0.45229 0.0
H1823 H 0.56054 0.83667 0.4192 0.0
C1824 C 0.48284 0.6068 0.11167 0.0
C1825 C 0.50518 0.59654 0.09331 0.0
C1826 C 0.48751 0.62738 0.12597 0.0
C1827 C 0.51525 0.63827 0.12178 0.0
C1828 C 0.53908 0.62679 0.10403 0.0
C1829 C 0.53351 0.60627 0.08978 0.0
C1830 C 0.46174 0.63779 0.145 0.0
C1831 C 0.57076 0.63562 0.10041 0.0
C1832 C 0.49989 0.70753 0.14182 0.0
C1833 C 0.51216 0.7056 0.16652 0.0
C1834 C 0.5027 0.68587 0.12641 0.0
C1835 C 0.51828 0.66189 0.13562 0.0
C1836 C 0.5335 0.66051 0.15936 0.0
C1837 C 0.53015 0.68212 0.17436 0.0
C1838 C 0.48796 0.68827 0.10054 0.0
C1839 C 0.5514 0.63592 0.17009 0.0
H1840 H 0.46119 0.59901 0.11455 0.0
H1841 H 0.55118 0.59788 0.07577 0.0
H1842 H 0.47251 0.64512 0.16165 0.0
H1843 H 0.44378 0.65341 0.13633 0.0
H1844 H 0.44823 0.62335 0.15128 0.0
H1845 H 0.5825 0.62926 0.08226 0.0
H1846 H 0.56679 0.65635 0.10139 0.0
H1847 H 0.5882 0.62771 0.11551 0.0
H1848 H 0.48695 0.72559 0.13494 0.0
H1849 H 0.54109 0.68038 0.19286 0.0
H1850 H 0.46628 0.67939 0.10017 0.0
H1851 H 0.50598 0.6782 0.08681 0.0
H1852 H 0.48014 0.70814 0.09464 0.0
H1853 H 0.5334 0.62685 0.17979 0.0
H1854 H 0.57024 0.63871 0.18393 0.0
H1855 H 0.56357 0.62303 0.15535 0.0
loop_
_geom_bond_atom_site_label_1
_geom_bond_atom_site_label_2
_geom_bond_distance
_geom_bond_site_symmetry_2
_ccdc_geom_bond_type
O0 Tb1 2.506 1_556 S
O0 C14 1.265 1_556 S
Tb1 O0 2.506 1_554 S
Tb1 O6 2.312 1_454 S
Tb1 O10 2.271 . S
Tb1 O12 2.338 1_455 S
Tb1 O19 2.441 . S
C2 O10 1.252 . S
C2 O11 1.253 1_545 S
O3 Tb4 2.269 1_656 S
O3 C13 1.252 1_565 S
Tb4 O3 2.269 1_454 S
Tb4 O7 2.338 1_455 S
Tb4 O11 2.314 . S
Tb4 O15 2.437 1_554 S
Tb4 O16 2.505 1_554 S
C5 O15 1.244 . S
C5 O16 1.265 . S
O6 Tb1 2.312 1_656 S
O6 C13 1.253 . S
O7 Tb4 2.338 1_655 S
O7 C8 1.258 1_554 S
C8 O7 1.258 1_556 S
C8 O9 1.251 1_556 S
O9 C8 1.251 1_554 S
O10 Tb1 2.271 . S
O10 C2 1.252 . S
O11 C2 1.253 1_565 S
O11 Tb4 2.314 . S
O12 Tb1 2.338 1_655 S
O12 C17 1.259 . S
C13 O3 1.252 1_545 S
C13 O6 1.253 . S
C14 O0 1.265 1_554 S
C14 O19 1.244 . S
O15 Tb4 2.437 1_556 S
O15 C5 1.244 . S
O16 Tb4 2.505 1_556 S
O16 C5 1.265 . S
C17 O12 1.259 . S
C17 O18 1.259 . S
O18 C17 1.259 . S
O19 Tb1 2.441 . S
O19 C14 1.244 . S
O20 Tb21 2.506 . S
O20 C34 1.265 . S
Tb21 O20 2.506 . S
Tb21 O26 2.312 1_455 S
Tb21 O30 2.271 . S
Tb21 O32 2.338 . S
Tb21 O39 2.441 . S
C22 O30 1.252 . S
C22 O31 1.253 . S
O23 Tb24 2.271 1_655 S
O23 C33 1.252 . S
Tb24 O23 2.271 1_455 S
Tb24 O27 2.338 . S
Tb24 O31 2.312 . S
Tb24 O35 2.441 1_455 S
Tb24 O36 2.506 1_455 S
C25 O35 1.244 . S
C25 O36 1.265 . S
O26 Tb21 2.312 1_655 S
O26 C33 1.253 . S
O27 Tb24 2.338 . S
O27 C28 1.258 . S
C28 O27 1.258 . S
C28 O29 1.251 . S
O29 C28 1.251 . S
O30 Tb21 2.271 . S
O30 C22 1.252 . S
O31 C22 1.253 . S
O31 Tb24 2.312 . S
O32 Tb21 2.338 . S
O32 C37 1.258 . S
C33 O23 1.252 . S
C33 O26 1.253 . S
C34 O20 1.265 . S
C34 O39 1.244 . S
O35 Tb24 2.441 1_655 S
O35 C25 1.244 . S
O36 Tb24 2.506 1_655 S
O36 C25 1.265 . S
C37 O32 1.258 . S
C37 O38 1.251 . S
O38 C37 1.251 . S
O39 Tb21 2.441 . S
O39 C34 1.244 . S
O40 Tb41 2.506 . S
O40 C54 1.265 . S
Tb41 O40 2.506 . S
Tb41 O46 2.312 . S
Tb41 O50 2.271 . S
Tb41 O52 2.338 . S
Tb41 O59 2.441 . S
C42 O50 1.252 . S
C42 O51 1.253 . S
O43 Tb44 2.271 . S
O43 C53 1.252 . S
Tb44 O43 2.271 . S
Tb44 O47 2.338 . S
Tb44 O51 2.312 . S
Tb44 O55 2.441 . S
Tb44 O56 2.506 . S
C45 O55 1.244 . S
C45 O56 1.265 . S
O46 Tb41 2.312 . S
O46 C53 1.253 . S
O47 Tb44 2.338 . S
O47 C48 1.258 . S
C48 O47 1.258 . S
C48 O49 1.251 . S
O49 C48 1.251 . S
O50 Tb41 2.271 . S
O50 C42 1.252 . S
O51 C42 1.253 . S
O51 Tb44 2.312 . S
O52 Tb41 2.338 . S
O52 C57 1.258 . S
C53 O43 1.252 . S
C53 O46 1.253 . S
C54 O40 1.265 . S
C54 O59 1.244 . S
O55 Tb44 2.441 . S
O55 C45 1.244 . S
O56 Tb44 2.506 . S
O56 C45 1.265 . S
C57 O52 1.258 . S
C57 O58 1.251 . S
O58 C57 1.251 . S
O59 Tb41 2.441 . S
O59 C54 1.244 . S
O60 Tb61 2.506 . S
O60 C74 1.265 . S
Tb61 O60 2.506 . S
Tb61 O66 2.312 . S
Tb61 O70 2.271 1_545 S
Tb61 O72 2.338 1_545 S
Tb61 O79 2.441 1_545 S
C62 O70 1.252 . S
C62 O71 1.253 . S
O63 Tb64 2.271 . S
O63 C73 1.252 . S
Tb64 O63 2.271 . S
Tb64 O67 2.338 . S
Tb64 O71 2.312 1_545 S
Tb64 O75 2.441 . S
Tb64 O76 2.506 . S
C65 O75 1.244 . S
C65 O76 1.265 . S
O66 Tb61 2.312 . S
O66 C73 1.253 . S
O67 Tb64 2.338 . S
O67 C68 1.258 . S
C68 O67 1.258 . S
C68 O69 1.251 . S
O69 C68 1.251 . S
O70 Tb61 2.271 1_565 S
O70 C62 1.252 . S
O71 C62 1.253 . S
O71 Tb64 2.312 1_565 S
O72 Tb61 2.338 1_565 S
O72 C77 1.258 . S
C73 O63 1.252 . S
C73 O66 1.253 . S
C74 O60 1.265 . S
C74 O79 1.244 1_545 S
O75 Tb64 2.441 . S
O75 C65 1.244 . S
O76 Tb64 2.506 . S
O76 C65 1.265 . S
C77 O72 1.258 . S
C77 O78 1.251 . S
O78 C77 1.251 . S
O79 Tb61 2.441 1_565 S
O79 C74 1.244 1_565 S
O80 Tb81 2.506 . S
O80 C94 1.265 . S
Tb81 O80 2.506 . S
Tb81 O86 2.312 . S
Tb81 O90 2.271 . S
Tb81 O92 2.338 . S
Tb81 O99 2.441 . S
C82 O90 1.252 . S
C82 O91 1.253 . S
O83 Tb84 2.271 . S
O83 C93 1.252 . S
Tb84 O83 2.271 . S
Tb84 O87 2.338 . S
Tb84 O91 2.312 . S
Tb84 O95 2.441 . S
Tb84 O96 2.506 . S
C85 O95 1.244 . S
C85 O96 1.265 . S
O86 Tb81 2.312 . S
O86 C93 1.253 . S
O87 Tb84 2.338 . S
O87 C88 1.258 . S
C88 O87 1.258 . S
C88 O89 1.251 . S
O89 C88 1.251 . S
O90 Tb81 2.271 . S
O90 C82 1.252 . S
O91 C82 1.253 . S
O91 Tb84 2.312 . S
O92 Tb81 2.338 . S
O92 C97 1.258 . S
C93 O83 1.252 . S
C93 O86 1.253 . S
C94 O80 1.265 . S
C94 O99 1.244 . S
O95 Tb84 2.441 . S
O95 C85 1.244 . S
O96 Tb84 2.506 . S
O96 C85 1.265 . S
C97 O92 1.258 . S
C97 O98 1.251 . S
O98 C97 1.251 . S
O99 Tb81 2.441 . S
O99 C94 1.244 . S
O100 Tb101 2.506 . S
O100 C114 1.265 . S
Tb101 O100 2.506 . S
Tb101 O106 2.312 . S
Tb101 O110 2.271 . S
Tb101 O112 2.338 . S
Tb101 O119 2.441 . S
C102 O110 1.252 . S
C102 O111 1.253 . S
O103 Tb104 2.271 . S
O103 C113 1.252 . S
Tb104 O103 2.271 . S
Tb104 O107 2.338 . S
Tb104 O111 2.312 . S
Tb104 O115 2.441 . S
Tb104 O116 2.506 . S
C105 O115 1.244 . S
C105 O116 1.265 . S
O106 Tb101 2.312 . S
O106 C113 1.253 . S
O107 Tb104 2.338 . S
O107 C108 1.258 . S
C108 O107 1.258 . S
C108 O109 1.251 . S
O109 C108 1.251 . S
O110 Tb101 2.271 . S
O110 C102 1.252 . S
O111 C102 1.253 . S
O111 Tb104 2.312 . S
O112 Tb101 2.338 . S
O112 C117 1.258 . S
C113 O103 1.252 . S
C113 O106 1.253 . S
C114 O100 1.265 . S
C114 O119 1.244 . S
O115 Tb104 2.441 . S
O115 C105 1.244 . S
O116 Tb104 2.506 . S
O116 C105 1.265 . S
C117 O112 1.258 . S
C117 O118 1.251 . S
O118 C117 1.251 . S
O119 Tb101 2.441 . S
O119 C114 1.244 . S
O120 Tb121 2.506 . S
O120 C134 1.265 . S
Tb121 O120 2.506 . S
Tb121 O126 2.312 . S
Tb121 O130 2.271 . S
Tb121 O132 2.338 . S
Tb121 O139 2.441 . S
C122 O130 1.252 . S
C122 O131 1.253 . S
O123 Tb124 2.271 . S
O123 C133 1.252 . S
Tb124 O123 2.271 . S
Tb124 O127 2.338 . S
Tb124 O131 2.312 . S
Tb124 O135 2.441 . S
Tb124 O136 2.506 . S
C125 O135 1.244 . S
C125 O136 1.265 . S
O126 Tb121 2.312 . S
O126 C133 1.253 . S
O127 Tb124 2.338 . S
O127 C128 1.258 . S
C128 O127 1.258 . S
C128 O129 1.251 . S
O129 C128 1.251 . S
O130 Tb121 2.271 . S
O130 C122 1.252 . S
O131 C122 1.253 . S
O131 Tb124 2.312 . S
O132 Tb121 2.338 . S
O132 C137 1.258 . S
C133 O123 1.252 . S
C133 O126 1.253 . S
C134 O120 1.265 . S
C134 O139 1.244 . S
O135 Tb124 2.441 . S
O135 C125 1.244 . S
O136 Tb124 2.506 . S
O136 C125 1.265 . S
C137 O132 1.258 . S
C137 O138 1.251 . S
O138 C137 1.251 . S
O139 Tb121 2.441 . S
O139 C134 1.244 . S
O140 Tb141 2.506 . S
O140 C154 1.265 . S
Tb141 O140 2.506 . S
Tb141 O146 2.312 1_455 S
Tb141 O150 2.271 . S
Tb141 O152 2.338 1_455 S
Tb141 O159 2.441 . S
C142 O150 1.252 . S
C142 O151 1.253 . S
O143 Tb144 2.271 1_655 S
O143 C153 1.252 . S
Tb144 O143 2.271 1_455 S
Tb144 O147 2.338 1_455 S
Tb144 O151 2.312 . S
Tb144 O155 2.441 . S
Tb144 O156 2.506 . S
C145 O155 1.244 . S
C145 O156 1.265 . S
O146 Tb141 2.312 1_655 S
O146 C153 1.253 . S
O147 Tb144 2.338 1_655 S
O147 C148 1.258 . S
C148 O147 1.258 . S
C148 O149 1.251 . S
O149 C148 1.251 . S
O150 Tb141 2.271 . S
O150 C142 1.252 . S
O151 C142 1.253 . S
O151 Tb144 2.312 . S
O152 Tb141 2.338 1_655 S
O152 C157 1.259 . S
C153 O143 1.252 . S
C153 O146 1.253 . S
C154 O140 1.265 . S
C154 O159 1.244 . S
O155 Tb144 2.441 . S
O155 C145 1.244 . S
O156 Tb144 2.506 . S
O156 C145 1.265 . S
C157 O152 1.259 . S
C157 O158 1.259 . S
O158 C157 1.259 . S
O159 Tb141 2.441 . S
O159 C154 1.244 . S
O160 Tb161 2.506 1_556 S
O160 C174 1.265 1_556 S
Tb161 O160 2.506 1_554 S
Tb161 O166 2.312 1_554 S
Tb161 O170 2.271 . S
Tb161 O172 2.338 . S
Tb161 O179 2.441 . S
C162 O170 1.252 . S
C162 O171 1.253 . S
O163 Tb164 2.268 1_556 S
O163 C173 1.252 . S
Tb164 O163 2.268 1_554 S
Tb164 O167 2.338 . S
Tb164 O171 2.314 . S
Tb164 O175 2.437 1_554 S
Tb164 O176 2.505 1_554 S
C165 O175 1.244 . S
C165 O176 1.265 . S
O166 Tb161 2.312 1_556 S
O166 C173 1.253 . S
O167 Tb164 2.338 . S
O167 C168 1.258 1_554 S
C168 O167 1.258 1_556 S
C168 O169 1.251 1_556 S
O169 C168 1.251 1_554 S
O170 Tb161 2.271 . S
O170 C162 1.252 . S
O171 C162 1.253 . S
O171 Tb164 2.314 . S
O172 Tb161 2.338 . S
O172 C177 1.258 . S
C173 O163 1.252 . S
C173 O166 1.253 . S
C174 O160 1.265 1_554 S
C174 O179 1.244 . S
O175 Tb164 2.437 1_556 S
O175 C165 1.244 . S
O176 Tb164 2.505 1_556 S
O176 C165 1.265 . S
C177 O172 1.258 . S
C177 O178 1.251 . S
O178 C177 1.251 . S
O179 Tb161 2.441 . S
O179 C174 1.244 . S
O180 Tb181 2.506 . S
O180 C194 1.265 . S
Tb181 O180 2.506 . S
Tb181 O186 2.312 . S
Tb181 O190 2.271 1_545 S
Tb181 O192 2.338 1_545 S
Tb181 O199 2.441 1_545 S
C182 O190 1.252 . S
C182 O191 1.253 . S
O183 Tb184 2.271 . S
O183 C193 1.252 . S
Tb184 O183 2.271 . S
Tb184 O187 2.338 . S
Tb184 O191 2.312 1_545 S
Tb184 O195 2.441 . S
Tb184 O196 2.506 . S
C185 O195 1.244 . S
C185 O196 1.265 . S
O186 Tb181 2.312 . S
O186 C193 1.253 . S
O187 Tb184 2.338 . S
O187 C188 1.258 . S
C188 O187 1.258 . S
C188 O189 1.251 . S
O189 C188 1.251 . S
O190 Tb181 2.271 1_565 S
O190 C182 1.252 . S
O191 C182 1.253 . S
O191 Tb184 2.312 1_565 S
O192 Tb181 2.338 1_565 S
O192 C197 1.258 . S
C193 O183 1.252 . S
C193 O186 1.253 . S
C194 O180 1.265 . S
C194 O199 1.244 1_545 S
O195 Tb184 2.441 . S
O195 C185 1.244 . S
O196 Tb184 2.506 . S
O196 C185 1.265 . S
C197 O192 1.258 . S
C197 O198 1.251 . S
O198 C197 1.251 . S
O199 Tb181 2.441 1_565 S
O199 C194 1.244 1_565 S
O200 Tb201 2.506 . S
O200 C214 1.265 . S
Tb201 O200 2.506 . S
Tb201 O206 2.312 . S
Tb201 O210 2.271 . S
Tb201 O212 2.338 . S
Tb201 O219 2.441 . S
C202 O210 1.252 . S
C202 O211 1.253 . S
O203 Tb204 2.271 . S
O203 C213 1.252 . S
Tb204 O203 2.271 . S
Tb204 O207 2.338 . S
Tb204 O211 2.312 . S
Tb204 O215 2.441 . S
Tb204 O216 2.506 . S
C205 O215 1.244 . S
C205 O216 1.265 . S
O206 Tb201 2.312 . S
O206 C213 1.253 . S
O207 Tb204 2.338 . S
O207 C208 1.258 . S
C208 O207 1.258 . S
C208 O209 1.251 . S
O209 C208 1.251 . S
O210 Tb201 2.271 . S
O210 C202 1.252 . S
O211 C202 1.253 . S
O211 Tb204 2.312 . S
O212 Tb201 2.338 . S
O212 C217 1.258 . S
C213 O203 1.252 . S
C213 O206 1.253 . S
C214 O200 1.265 . S
C214 O219 1.244 . S
O215 Tb204 2.441 . S
O215 C205 1.244 . S
O216 Tb204 2.506 . S
O216 C205 1.265 . S
C217 O212 1.258 . S
C217 O218 1.251 . S
O218 C217 1.251 . S
O219 Tb201 2.441 . S
O219 C214 1.244 . S
O220 Tb221 2.506 . S
O220 C234 1.265 . S
Tb221 O220 2.506 . S
Tb221 O226 2.312 1_455 S
Tb221 O230 2.271 . S
Tb221 O232 2.338 . S
Tb221 O239 2.441 . S
C222 O230 1.252 . S
C222 O231 1.253 . S
O223 Tb224 2.271 1_655 S
O223 C233 1.252 . S
Tb224 O223 2.271 1_455 S
Tb224 O227 2.338 . S
Tb224 O231 2.312 . S
Tb224 O235 2.441 1_455 S
Tb224 O236 2.506 1_455 S
C225 O235 1.244 . S
C225 O236 1.265 . S
O226 Tb221 2.312 1_655 S
O226 C233 1.253 . S
O227 Tb224 2.338 . S
O227 C228 1.258 . S
C228 O227 1.258 . S
C228 O229 1.251 . S
O229 C228 1.251 . S
O230 Tb221 2.271 . S
O230 C222 1.252 . S
O231 C222 1.253 . S
O231 Tb224 2.312 . S
O232 Tb221 2.338 . S
O232 C237 1.258 . S
C233 O223 1.252 . S
C233 O226 1.253 . S
C234 O220 1.265 . S
C234 O239 1.244 . S
O235 Tb224 2.441 1_655 S
O235 C225 1.244 . S
O236 Tb224 2.506 1_655 S
O236 C225 1.265 . S
C237 O232 1.258 . S
C237 O238 1.251 . S
O238 C237 1.251 . S
O239 Tb221 2.441 . S
O239 C234 1.244 . S
O240 Tb241 2.506 . S
O240 C254 1.265 . S
Tb241 O240 2.506 . S
Tb241 O246 2.312 . S
Tb241 O250 2.271 . S
Tb241 O252 2.338 . S
Tb241 O259 2.441 . S
C242 O250 1.252 . S
C242 O251 1.253 . S
O243 Tb244 2.271 . S
O243 C253 1.252 . S
Tb244 O243 2.271 . S
Tb244 O247 2.338 . S
Tb244 O251 2.312 . S
Tb244 O255 2.441 . S
Tb244 O256 2.506 . S
C245 O255 1.244 . S
C245 O256 1.265 . S
O246 Tb241 2.312 . S
O246 C253 1.253 . S
O247 Tb244 2.338 . S
O247 C248 1.258 . S
C248 O247 1.258 . S
C248 O249 1.251 . S
O249 C248 1.251 . S
O250 Tb241 2.271 . S
O250 C242 1.252 . S
O251 C242 1.253 . S
O251 Tb244 2.312 . S
O252 Tb241 2.338 . S
O252 C257 1.258 . S
C253 O243 1.252 . S
C253 O246 1.253 . S
C254 O240 1.265 . S
C254 O259 1.244 . S
O255 Tb244 2.441 . S
O255 C245 1.244 . S
O256 Tb244 2.506 . S
O256 C245 1.265 . S
C257 O252 1.258 . S
C257 O258 1.251 . S
O258 C257 1.251 . S
O259 Tb241 2.441 . S
O259 C254 1.244 . S
O260 Tb261 2.506 1_556 S
O260 C274 1.265 1_556 S
Tb261 O260 2.506 1_554 S
Tb261 O266 2.312 1_554 S
Tb261 O270 2.271 . S
Tb261 O272 2.338 . S
Tb261 O279 2.441 . S
C262 O270 1.252 . S
C262 O271 1.253 . S
O263 Tb264 2.269 1_556 S
O263 C273 1.252 . S
Tb264 O263 2.269 1_554 S
Tb264 O267 2.338 . S
Tb264 O271 2.314 . S
Tb264 O275 2.437 1_554 S
Tb264 O276 2.505 1_554 S
C265 O275 1.244 . S
C265 O276 1.265 . S
O266 Tb261 2.312 1_556 S
O266 C273 1.253 . S
O267 Tb264 2.338 . S
O267 C268 1.258 1_554 S
C268 O267 1.258 1_556 S
C268 O269 1.251 1_556 S
O269 C268 1.251 1_554 S
O270 Tb261 2.271 . S
O270 C262 1.252 . S
O271 C262 1.253 . S
O271 Tb264 2.314 . S
O272 Tb261 2.338 . S
O272 C277 1.258 . S
C273 O263 1.252 . S
C273 O266 1.253 . S
C274 O260 1.265 1_554 S
C274 O279 1.244 . S
O275 Tb264 2.437 1_556 S
O275 C265 1.244 . S
O276 Tb264 2.505 1_556 S
O276 C265 1.265 . S
C277 O272 1.258 . S
C277 O278 1.251 . S
O278 C277 1.251 . S
O279 Tb261 2.441 . S
O279 C274 1.244 . S
O280 Tb281 2.506 . S
O280 C294 1.265 . S
Tb281 O280 2.506 . S
Tb281 O286 2.312 . S
Tb281 O290 2.271 . S
Tb281 O292 2.338 . S
Tb281 O299 2.441 . S
C282 O290 1.252 . S
C282 O291 1.253 1_545 S
O283 Tb284 2.271 . S
O283 C293 1.252 1_565 S
Tb284 O283 2.271 . S
Tb284 O287 2.338 . S
Tb284 O291 2.312 . S
Tb284 O295 2.441 . S
Tb284 O296 2.506 . S
C285 O295 1.244 . S
C285 O296 1.265 . S
O286 Tb281 2.312 . S
O286 C293 1.253 . S
O287 Tb284 2.338 . S
O287 C288 1.258 . S
C288 O287 1.258 . S
C288 O289 1.251 . S
O289 C288 1.251 . S
O290 Tb281 2.271 . S
O290 C282 1.252 . S
O291 C282 1.253 1_565 S
O291 Tb284 2.312 . S
O292 Tb281 2.338 . S
O292 C297 1.258 . S
C293 O283 1.252 1_545 S
C293 O286 1.253 . S
C294 O280 1.265 . S
C294 O299 1.244 . S
O295 Tb284 2.441 . S
O295 C285 1.244 . S
O296 Tb284 2.506 . S
O296 C285 1.265 . S
C297 O292 1.258 . S
C297 O298 1.251 . S
O298 C297 1.251 . S
O299 Tb281 2.441 . S
O299 C294 1.244 . S
O300 Tb301 2.506 1_556 S
O300 C314 1.265 1_556 S
Tb301 O300 2.506 1_554 S
Tb301 O306 2.312 1_554 S
Tb301 O310 2.271 . S
Tb301 O312 2.338 . S
Tb301 O319 2.441 . S
C302 O310 1.252 . S
C302 O311 1.253 . S
O303 Tb304 2.268 1_556 S
O303 C313 1.252 . S
Tb304 O303 2.268 1_554 S
Tb304 O307 2.338 . S
Tb304 O311 2.314 . S
Tb304 O315 2.437 1_554 S
Tb304 O316 2.505 1_554 S
C305 O315 1.244 . S
C305 O316 1.265 . S
O306 Tb301 2.312 1_556 S
O306 C313 1.253 . S
O307 Tb304 2.338 . S
O307 C308 1.258 1_554 S
C308 O307 1.258 1_556 S
C308 O309 1.251 1_556 S
O309 C308 1.251 1_554 S
O310 Tb301 2.271 . S
O310 C302 1.252 . S
O311 C302 1.253 . S
O311 Tb304 2.314 . S
O312 Tb301 2.338 . S
O312 C317 1.258 . S
C313 O303 1.252 . S
C313 O306 1.253 . S
C314 O300 1.265 1_554 S
C314 O319 1.244 . S
O315 Tb304 2.437 1_556 S
O315 C305 1.244 . S
O316 Tb304 2.505 1_556 S
O316 C305 1.265 . S
C317 O312 1.258 . S
C317 O318 1.251 . S
O318 C317 1.251 . S
O319 Tb301 2.441 . S
O319 C314 1.244 . S
C320 C321 1.391 . S
C320 C322 1.394 . S
C320 H336 0.931 . S
C321 C320 1.391 . S
C321 C325 1.376 . S
C322 C320 1.394 . S
C322 C323 1.369 . S
C322 C326 1.531 . S
C323 C322 1.369 . S
C323 C324 1.410 . S
C323 C331 1.503 . S
C324 C323 1.410 . S
C324 C325 1.392 . S
C324 C327 1.511 1_455 S
C325 C321 1.376 . S
C325 C324 1.392 . S
C325 H337 0.926 1_455 S
C326 C322 1.531 . S
C326 H338 0.960 . S
C326 H339 0.962 . S
C326 H340 0.960 . S
C327 C324 1.511 1_655 S
C327 H341 0.961 1_655 S
C327 H342 0.961 1_655 S
C327 H343 0.961 . S
C328 C329 1.370 . S
C328 C330 1.363 . S
C328 H344 0.931 . S
C329 C328 1.370 . S
C329 C333 1.408 1_455 S
C330 C328 1.363 . S
C330 C331 1.370 . S
C330 C334 1.524 . S
C331 C323 1.503 . S
C331 C330 1.370 . S
C331 C332 1.403 1_455 S
C332 C331 1.403 1_655 S
C332 C333 1.404 . S
C332 C335 1.539 . S
C333 C329 1.408 1_655 S
C333 C332 1.404 . S
C333 H345 0.930 . S
C334 C330 1.524 . S
C334 H346 0.956 . S
C334 H347 0.961 . S
C334 H348 0.961 . S
C335 C332 1.539 . S
C335 H349 0.958 . S
C335 H350 0.961 . S
C335 H351 0.960 . S
H336 C320 0.931 . S
H337 C325 0.926 1_655 S
H338 C326 0.960 . S
H339 C326 0.962 . S
H340 C326 0.960 . S
H341 C327 0.961 1_455 S
H342 C327 0.961 1_455 S
H343 C327 0.961 . S
H344 C328 0.931 . S
H345 C333 0.930 . S
H346 C334 0.956 . S
H347 C334 0.961 . S
H348 C334 0.961 . S
H349 C335 0.958 . S
H350 C335 0.961 . S
H351 C335 0.960 . S
C352 C353 1.391 . S
C352 C354 1.394 . S
C352 H368 0.931 . S
C353 C352 1.391 . S
C353 C357 1.376 . S
C354 C352 1.394 . S
C354 C355 1.369 . S
C354 C358 1.531 . S
C355 C354 1.369 . S
C355 C356 1.410 . S
C355 C363 1.503 . S
C356 C355 1.410 . S
C356 C357 1.392 . S
C356 C359 1.511 . S
C357 C353 1.376 . S
C357 C356 1.392 . S
C357 H369 0.929 . S
C358 C354 1.531 . S
C358 H370 0.960 . S
C358 H371 0.962 . S
C358 H372 0.960 . S
C359 C356 1.511 . S
C359 H373 0.961 . S
C359 H374 0.961 . S
C359 H375 0.961 . S
C360 C361 1.370 . S
C360 C362 1.363 . S
C360 H376 0.931 . S
C361 C360 1.370 . S
C361 C365 1.408 . S
C362 C360 1.363 . S
C362 C363 1.370 . S
C362 C366 1.524 . S
C363 C355 1.503 . S
C363 C362 1.370 . S
C363 C364 1.403 . S
C364 C363 1.403 . S
C364 C365 1.404 . S
C364 C367 1.539 . S
C365 C361 1.408 . S
C365 C364 1.404 . S
C365 H377 0.930 . S
C366 C362 1.524 . S
C366 H378 0.956 . S
C366 H379 0.961 . S
C366 H380 0.961 . S
C367 C364 1.539 . S
C367 H381 0.958 . S
C367 H382 0.961 . S
C367 H383 0.960 . S
H368 C352 0.931 . S
H369 C357 0.929 . S
H370 C358 0.960 . S
H371 C358 0.962 . S
H372 C358 0.960 . S
H373 C359 0.961 . S
H374 C359 0.961 . S
H375 C359 0.961 . S
H376 C360 0.931 . S
H377 C365 0.930 . S
H378 C366 0.956 . S
H379 C366 0.961 . S
H380 C366 0.961 . S
H381 C367 0.958 . S
H382 C367 0.961 . S
H383 C367 0.960 . S
C384 C385 1.391 . S
C384 C386 1.394 . S
C384 H400 0.931 . S
C385 C384 1.391 . S
C385 C389 1.376 . S
C386 C384 1.394 . S
C386 C387 1.369 . S
C386 C390 1.531 . S
C387 C386 1.369 . S
C387 C388 1.410 . S
C387 C395 1.503 . S
C388 C387 1.410 . S
C388 C389 1.392 . S
C388 C391 1.511 . S
C389 C385 1.376 . S
C389 C388 1.392 . S
C389 H401 0.929 . S
C390 C386 1.531 . S
C390 H402 0.960 . S
C390 H403 0.962 . S
C390 H404 0.960 . S
C391 C388 1.511 . S
C391 H405 0.961 . S
C391 H406 0.961 . S
C391 H407 0.961 . S
C392 C393 1.370 . S
C392 C394 1.363 . S
C392 H408 0.931 . S
C393 C392 1.370 . S
C393 C397 1.408 . S
C394 C392 1.363 . S
C394 C395 1.370 . S
C394 C398 1.524 . S
C395 C387 1.503 . S
C395 C394 1.370 . S
C395 C396 1.403 . S
C396 C395 1.403 . S
C396 C397 1.404 . S
C396 C399 1.539 . S
C397 C393 1.408 . S
C397 C396 1.404 . S
C397 H409 0.930 . S
C398 C394 1.524 . S
C398 H410 0.956 . S
C398 H411 0.961 . S
C398 H412 0.961 . S
C399 C396 1.539 . S
C399 H413 0.958 . S
C399 H414 0.961 . S
C399 H415 0.960 . S
H400 C384 0.931 . S
H401 C389 0.929 . S
H402 C390 0.960 . S
H403 C390 0.962 . S
H404 C390 0.960 . S
H405 C391 0.961 . S
H406 C391 0.961 . S
H407 C391 0.961 . S
H408 C392 0.931 . S
H409 C397 0.930 . S
H410 C398 0.956 . S
H411 C398 0.961 . S
H412 C398 0.961 . S
H413 C399 0.958 . S
H414 C399 0.961 . S
H415 C399 0.960 . S
C416 C417 1.391 . S
C416 C418 1.394 . S
C416 H432 0.931 . S
C417 C416 1.391 . S
C417 C421 1.376 1_545 S
C418 C416 1.394 . S
C418 C419 1.369 . S
C418 C422 1.531 . S
C419 C418 1.369 . S
C419 C420 1.410 1_545 S
C419 C427 1.503 . S
C420 C419 1.410 1_565 S
C420 C421 1.392 . S
C420 C423 1.511 . S
C421 C417 1.376 1_565 S
C421 C420 1.392 . S
C421 H433 0.929 . S
C422 C418 1.531 . S
C422 H434 0.960 . S
C422 H435 0.962 . S
C422 H436 0.960 . S
C423 C420 1.511 . S
C423 H437 0.961 . S
C423 H438 0.961 . S
C423 H439 0.961 . S
C424 C425 1.374 . S
C424 C426 1.363 . S
C424 H440 0.931 . S
C425 C424 1.374 . S
C425 C429 1.402 1_565 S
C426 C424 1.363 . S
C426 C427 1.370 1_565 S
C426 C430 1.524 . S
C427 C419 1.503 . S
C427 C426 1.370 1_545 S
C427 C428 1.403 . S
C428 C427 1.403 . S
C428 C429 1.404 . S
C428 C431 1.539 . S
C429 C425 1.402 1_545 S
C429 C428 1.404 . S
C429 H441 0.930 . S
C430 C426 1.524 . S
C430 H442 0.956 . S
C430 H443 0.961 . S
C430 H444 0.961 . S
C431 C428 1.539 . S
C431 H445 0.958 . S
C431 H446 0.961 . S
C431 H447 0.960 . S
H432 C416 0.931 . S
H433 C421 0.929 . S
H434 C422 0.960 . S
H435 C422 0.962 . S
H436 C422 0.960 . S
H437 C423 0.961 . S
H438 C423 0.961 . S
H439 C423 0.961 . S
H440 C424 0.931 . S
H441 C429 0.930 . S
H442 C430 0.956 . S
H443 C430 0.961 . S
H444 C430 0.961 . S
H445 C431 0.958 . S
H446 C431 0.961 . S
H447 C431 0.960 . S
C448 C449 1.391 1_565 S
C448 C450 1.397 . S
C448 H464 0.931 . S
C449 C448 1.391 1_545 S
C449 C453 1.376 . S
C450 C448 1.397 . S
C450 C451 1.360 1_565 S
C450 C454 1.535 . S
C451 C450 1.360 1_545 S
C451 C452 1.410 . S
C451 C459 1.503 . S
C452 C451 1.410 . S
C452 C453 1.392 . S
C452 C455 1.511 . S
C453 C449 1.376 . S
C453 C452 1.392 . S
C453 H465 0.929 . S
C454 C450 1.535 . S
C454 H466 0.960 . S
C454 H467 0.962 . S
C454 H468 0.960 . S
C455 C452 1.511 . S
C455 H469 0.961 . S
C455 H470 0.961 . S
C455 H471 0.961 . S
C456 C457 1.370 . S
C456 C458 1.363 . S
C456 H472 0.931 . S
C457 C456 1.370 . S
C457 C461 1.408 . S
C458 C456 1.363 . S
C458 C459 1.370 . S
C458 C462 1.524 1_545 S
C459 C451 1.503 . S
C459 C458 1.370 . S
C459 C460 1.403 . S
C460 C459 1.403 . S
C460 C461 1.404 . S
C460 C463 1.539 . S
C461 C457 1.408 . S
C461 C460 1.404 . S
C461 H473 0.930 . S
C462 C458 1.524 1_565 S
C462 H474 0.956 . S
C462 H475 0.961 1_565 S
C462 H476 0.961 . S
C463 C460 1.539 . S
C463 H477 0.958 . S
C463 H478 0.961 . S
C463 H479 0.960 . S
H464 C448 0.931 . S
H465 C453 0.929 . S
H466 C454 0.960 . S
H467 C454 0.962 . S
H468 C454 0.960 . S
H469 C455 0.961 . S
H470 C455 0.961 . S
H471 C455 0.961 . S
H472 C456 0.931 . S
H473 C461 0.930 . S
H474 C462 0.956 . S
H475 C462 0.961 1_545 S
H476 C462 0.961 . S
H477 C463 0.958 . S
H478 C463 0.961 . S
H479 C463 0.960 . S
C480 C481 1.391 1_655 S
C480 C482 1.394 . S
C480 H496 0.931 . S
C481 C480 1.391 1_455 S
C481 C485 1.376 . S
C482 C480 1.394 . S
C482 C483 1.369 1_655 S
C482 C486 1.531 . S
C483 C482 1.369 1_455 S
C483 C484 1.410 . S
C483 C491 1.503 . S
C484 C483 1.410 . S
C484 C485 1.392 . S
C484 C487 1.511 . S
C485 C481 1.376 . S
C485 C484 1.392 . S
C485 H497 0.929 . S
C486 C482 1.531 . S
C486 H498 0.960 . S
C486 H499 0.962 . S
C486 H500 0.960 . S
C487 C484 1.511 . S
C487 H501 0.961 . S
C487 H502 0.961 . S
C487 H503 0.961 . S
C488 C489 1.370 . S
C488 C490 1.363 . S
C488 H504 0.931 . S
C489 C488 1.370 . S
C489 C493 1.408 1_455 S
C490 C488 1.363 . S
C490 C491 1.370 . S
C490 C494 1.524 . S
C491 C483 1.503 . S
C491 C490 1.370 . S
C491 C492 1.403 1_455 S
C492 C491 1.403 1_655 S
C492 C493 1.404 . S
C492 C495 1.539 . S
C493 C489 1.408 1_655 S
C493 C492 1.404 . S
C493 H505 0.930 . S
C494 C490 1.524 . S
C494 H506 0.956 . S
C494 H507 0.961 . S
C494 H508 0.961 . S
C495 C492 1.539 . S
C495 H509 0.958 . S
C495 H510 0.961 . S
C495 H511 0.960 . S
H496 C480 0.931 . S
H497 C485 0.929 . S
H498 C486 0.960 . S
H499 C486 0.962 . S
H500 C486 0.960 . S
H501 C487 0.961 . S
H502 C487 0.961 . S
H503 C487 0.961 . S
H504 C488 0.931 . S
H505 C493 0.930 . S
H506 C494 0.956 . S
H507 C494 0.961 . S
H508 C494 0.961 . S
H509 C495 0.958 . S
H510 C495 0.961 . S
H511 C495 0.960 . S
C512 C513 1.391 . S
C512 C514 1.394 . S
C512 H528 0.931 . S
C513 C512 1.391 . S
C513 C517 1.376 . S
C514 C512 1.394 . S
C514 C515 1.369 . S
C514 C518 1.531 . S
C515 C514 1.369 . S
C515 C516 1.410 . S
C515 C523 1.503 . S
C516 C515 1.410 . S
C516 C517 1.392 . S
C516 C519 1.511 . S
C517 C513 1.376 . S
C517 C516 1.392 . S
C517 H529 0.929 . S
C518 C514 1.531 . S
C518 H530 0.960 . S
C518 H531 0.962 . S
C518 H532 0.960 . S
C519 C516 1.511 . S
C519 H533 0.961 . S
C519 H534 0.961 . S
C519 H535 0.961 . S
C520 C521 1.370 . S
C520 C522 1.363 . S
C520 H536 0.931 . S
C521 C520 1.370 . S
C521 C525 1.408 . S
C522 C520 1.363 . S
C522 C523 1.370 . S
C522 C526 1.524 . S
C523 C515 1.503 . S
C523 C522 1.370 . S
C523 C524 1.403 . S
C524 C523 1.403 . S
C524 C525 1.404 . S
C524 C527 1.539 . S
C525 C521 1.408 . S
C525 C524 1.404 . S
C525 H537 0.930 . S
C526 C522 1.524 . S
C526 H538 0.956 . S
C526 H539 0.961 . S
C526 H540 0.961 . S
C527 C524 1.539 . S
C527 H541 0.958 . S
C527 H542 0.961 . S
C527 H543 0.960 . S
H528 C512 0.931 . S
H529 C517 0.929 . S
H530 C518 0.960 . S
H531 C518 0.962 . S
H532 C518 0.960 . S
H533 C519 0.961 . S
H534 C519 0.961 . S
H535 C519 0.961 . S
H536 C520 0.931 . S
H537 C525 0.930 . S
H538 C526 0.956 . S
H539 C526 0.961 . S
H540 C526 0.961 . S
H541 C527 0.958 . S
H542 C527 0.961 . S
H543 C527 0.960 . S
C544 C545 1.391 . S
C544 C546 1.394 . S
C544 H560 0.931 . S
C545 C544 1.391 . S
C545 C549 1.376 . S
C546 C544 1.394 . S
C546 C547 1.369 . S
C546 C550 1.531 . S
C547 C546 1.369 . S
C547 C548 1.410 . S
C547 C555 1.503 . S
C548 C547 1.410 . S
C548 C549 1.392 . S
C548 C551 1.511 . S
C549 C545 1.376 . S
C549 C548 1.392 . S
C549 H561 0.929 . S
C550 C546 1.531 . S
C550 H562 0.960 . S
C550 H563 0.962 . S
C550 H564 0.960 . S
C551 C548 1.511 . S
C551 H565 0.961 . S
C551 H566 0.961 . S
C551 H567 0.961 . S
C552 C553 1.370 . S
C552 C554 1.363 . S
C552 H568 0.931 . S
C553 C552 1.370 . S
C553 C557 1.408 . S
C554 C552 1.363 . S
C554 C555 1.370 . S
C554 C558 1.524 . S
C555 C547 1.503 . S
C555 C554 1.370 . S
C555 C556 1.403 . S
C556 C555 1.403 . S
C556 C557 1.404 . S
C556 C559 1.539 . S
C557 C553 1.408 . S
C557 C556 1.404 . S
C557 H569 0.930 . S
C558 C554 1.524 . S
C558 H570 0.956 . S
C558 H571 0.961 . S
C558 H572 0.961 . S
C559 C556 1.539 . S
C559 H573 0.958 . S
C559 H574 0.961 . S
C559 H575 0.960 . S
H560 C544 0.931 . S
H561 C549 0.929 . S
H562 C550 0.960 . S
H563 C550 0.962 . S
H564 C550 0.960 . S
H565 C551 0.961 . S
H566 C551 0.961 . S
H567 C551 0.961 . S
H568 C552 0.931 . S
H569 C557 0.930 . S
H570 C558 0.956 . S
H571 C558 0.961 . S
H572 C558 0.961 . S
H573 C559 0.958 . S
H574 C559 0.961 . S
H575 C559 0.960 . S
C576 C577 1.391 . S
C576 C578 1.394 . S
C576 H592 0.931 . S
C577 C576 1.391 . S
C577 C581 1.376 . S
C578 C576 1.394 . S
C578 C579 1.369 . S
C578 C582 1.531 . S
C579 C578 1.369 . S
C579 C580 1.410 . S
C579 C587 1.503 . S
C580 C579 1.410 . S
C580 C581 1.392 . S
C580 C583 1.511 . S
C581 C577 1.376 . S
C581 C580 1.392 . S
C581 H593 0.929 . S
C582 C578 1.531 . S
C582 H594 0.960 . S
C582 H595 0.962 . S
C582 H596 0.960 . S
C583 C580 1.511 . S
C583 H597 0.961 . S
C583 H598 0.961 . S
C583 H599 0.961 . S
C584 C585 1.370 . S
C584 C586 1.363 . S
C584 H600 0.931 . S
C585 C584 1.370 . S
C585 C589 1.408 . S
C586 C584 1.363 . S
C586 C587 1.370 . S
C586 C590 1.524 . S
C587 C579 1.503 . S
C587 C586 1.370 . S
C587 C588 1.403 . S
C588 C587 1.403 . S
C588 C589 1.404 . S
C588 C591 1.539 . S
C589 C585 1.408 . S
C589 C588 1.404 . S
C589 H601 0.930 . S
C590 C586 1.524 . S
C590 H602 0.956 . S
C590 H603 0.961 . S
C590 H604 0.961 . S
C591 C588 1.539 . S
C591 H605 0.958 . S
C591 H606 0.961 . S
C591 H607 0.960 . S
H592 C576 0.931 . S
H593 C581 0.929 . S
H594 C582 0.960 . S
H595 C582 0.962 . S
H596 C582 0.960 . S
H597 C583 0.961 . S
H598 C583 0.961 . S
H599 C583 0.961 . S
H600 C584 0.931 . S
H601 C589 0.930 . S
H602 C590 0.956 . S
H603 C590 0.961 . S
H604 C590 0.961 . S
H605 C591 0.958 . S
H606 C591 0.961 . S
H607 C591 0.960 . S
C608 C609 1.391 . S
C608 C610 1.394 . S
C608 H624 0.931 . S
C609 C608 1.391 . S
C609 C613 1.376 . S
C610 C608 1.394 . S
C610 C611 1.369 . S
C610 C614 1.531 . S
C611 C610 1.369 . S
C611 C612 1.410 . S
C611 C619 1.503 . S
C612 C611 1.410 . S
C612 C613 1.392 . S
C612 C615 1.511 . S
C613 C609 1.376 . S
C613 C612 1.392 . S
C613 H625 0.929 . S
C614 C610 1.531 . S
C614 H626 0.960 . S
C614 H627 0.962 . S
C614 H628 0.960 . S
C615 C612 1.511 . S
C615 H629 0.961 . S
C615 H630 0.961 . S
C615 H631 0.961 . S
C616 C617 1.370 . S
C616 C618 1.363 . S
C616 H632 0.931 . S
C617 C616 1.370 . S
C617 C621 1.408 . S
C618 C616 1.363 . S
C618 C619 1.370 . S
C618 C622 1.524 . S
C619 C611 1.503 . S
C619 C618 1.370 . S
C619 C620 1.403 . S
C620 C619 1.403 . S
C620 C621 1.404 . S
C620 C623 1.539 . S
C621 C617 1.408 . S
C621 C620 1.404 . S
C621 H633 0.930 . S
C622 C618 1.524 . S
C622 H634 0.956 . S
C622 H635 0.961 . S
C622 H636 0.961 . S
C623 C620 1.539 . S
C623 H637 0.958 . S
C623 H638 0.961 . S
C623 H639 0.960 . S
H624 C608 0.931 . S
H625 C613 0.929 . S
H626 C614 0.960 . S
H627 C614 0.962 . S
H628 C614 0.960 . S
H629 C615 0.961 . S
H630 C615 0.961 . S
H631 C615 0.961 . S
H632 C616 0.931 . S
H633 C621 0.930 . S
H634 C622 0.956 . S
H635 C622 0.961 . S
H636 C622 0.961 . S
H637 C623 0.958 . S
H638 C623 0.961 . S
H639 C623 0.960 . S
C640 C641 1.391 . S
C640 C642 1.394 . S
C640 H656 0.931 . S
C641 C640 1.391 . S
C641 C645 1.376 . S
C642 C640 1.394 . S
C642 C643 1.369 . S
C642 C646 1.531 . S
C643 C642 1.369 . S
C643 C644 1.410 . S
C643 C651 1.503 . S
C644 C643 1.410 . S
C644 C645 1.392 . S
C644 C647 1.511 . S
C645 C641 1.376 . S
C645 C644 1.392 . S
C645 H657 0.929 . S
C646 C642 1.531 . S
C646 H658 0.960 . S
C646 H659 0.962 . S
C646 H660 0.960 . S
C647 C644 1.511 . S
C647 H661 0.961 . S
C647 H662 0.961 . S
C647 H663 0.961 . S
C648 C649 1.370 . S
C648 C650 1.363 . S
C648 H664 0.931 1_545 S
C649 C648 1.370 . S
C649 C653 1.408 . S
C650 C648 1.363 . S
C650 C651 1.370 . S
C650 C654 1.524 1_545 S
C651 C643 1.503 . S
C651 C650 1.370 . S
C651 C652 1.403 . S
C652 C651 1.403 . S
C652 C653 1.404 . S
C652 C655 1.539 . S
C653 C649 1.408 . S
C653 C652 1.404 . S
C653 H665 0.930 . S
C654 C650 1.524 1_565 S
C654 H666 0.956 . S
C654 H667 0.961 . S
C654 H668 0.961 . S
C655 C652 1.539 . S
C655 H669 0.958 . S
C655 H670 0.961 . S
C655 H671 0.960 . S
H656 C640 0.931 . S
H657 C645 0.929 . S
H658 C646 0.960 . S
H659 C646 0.962 . S
H660 C646 0.960 . S
H661 C647 0.961 . S
H662 C647 0.961 . S
H663 C647 0.961 . S
H664 C648 0.931 1_565 S
H665 C653 0.930 . S
H666 C654 0.956 . S
H667 C654 0.961 . S
H668 C654 0.961 . S
H669 C655 0.958 . S
H670 C655 0.961 . S
H671 C655 0.960 . S
C672 C673 1.391 1_655 S
C672 C674 1.394 . S
C672 H688 0.931 . S
C673 C672 1.391 1_455 S
C673 C677 1.376 . S
C674 C672 1.394 . S
C674 C675 1.369 1_655 S
C674 C678 1.531 . S
C675 C674 1.369 1_455 S
C675 C676 1.410 . S
C675 C683 1.503 . S
C676 C675 1.410 . S
C676 C677 1.392 . S
C676 C679 1.511 . S
C677 C673 1.376 . S
C677 C676 1.392 . S
C677 H689 0.929 . S
C678 C674 1.531 . S
C678 H690 0.960 . S
C678 H691 0.962 . S
C678 H692 0.960 . S
C679 C676 1.511 . S
C679 H693 0.961 . S
C679 H694 0.961 . S
C679 H695 0.961 . S
C680 C681 1.370 1_655 S
C680 C682 1.363 . S
C680 H696 0.931 . S
C681 C680 1.370 1_455 S
C681 C685 1.408 . S
C682 C680 1.363 . S
C682 C683 1.370 1_655 S
C682 C686 1.524 . S
C683 C675 1.503 . S
C683 C682 1.370 1_455 S
C683 C684 1.403 . S
C684 C683 1.403 . S
C684 C685 1.404 . S
C684 C687 1.539 . S
C685 C681 1.408 . S
C685 C684 1.404 . S
C685 H697 0.930 . S
C686 C682 1.524 . S
C686 H698 0.956 . S
C686 H699 0.961 . S
C686 H700 0.961 . S
C687 C684 1.539 . S
C687 H701 0.958 . S
C687 H702 0.961 . S
C687 H703 0.960 . S
H688 C672 0.931 . S
H689 C677 0.929 . S
H690 C678 0.960 . S
H691 C678 0.962 . S
H692 C678 0.960 . S
H693 C679 0.961 . S
H694 C679 0.961 . S
H695 C679 0.961 . S
H696 C680 0.931 . S
H697 C685 0.930 . S
H698 C686 0.956 . S
H699 C686 0.961 . S
H700 C686 0.961 . S
H701 C687 0.958 . S
H702 C687 0.961 . S
H703 C687 0.960 . S
C704 C705 1.391 1_556 S
C704 C706 1.394 . S
C704 H720 0.931 . S
C705 C704 1.391 1_554 S
C705 C709 1.376 . S
C706 C704 1.394 . S
C706 C707 1.369 1_556 S
C706 C710 1.531 . S
C707 C706 1.369 1_554 S
C707 C708 1.410 . S
C707 C715 1.503 . S
C708 C707 1.410 . S
C708 C709 1.392 . S
C708 C711 1.511 . S
C709 C705 1.376 . S
C709 C708 1.392 . S
C709 H721 0.929 . S
C710 C706 1.531 . S
C710 H722 0.960 . S
C710 H723 0.962 . S
C710 H724 0.960 . S
C711 C708 1.511 . S
C711 H725 0.961 . S
C711 H726 0.961 . S
C711 H727 0.961 . S
C712 C713 1.370 . S
C712 C714 1.363 . S
C712 H728 0.931 . S
C713 C712 1.370 . S
C713 C717 1.408 1_554 S
C714 C712 1.363 . S
C714 C715 1.370 . S
C714 C718 1.524 . S
C715 C707 1.503 . S
C715 C714 1.370 . S
C715 C716 1.403 1_554 S
C716 C715 1.403 1_556 S
C716 C717 1.404 . S
C716 C719 1.539 . S
C717 C713 1.408 1_556 S
C717 C716 1.404 . S
C717 H729 0.930 . S
C718 C714 1.524 . S
C718 H730 0.956 . S
C718 H731 0.961 . S
C718 H732 0.961 . S
C719 C716 1.539 . S
C719 H733 0.958 . S
C719 H734 0.961 . S
C719 H735 0.960 . S
H720 C704 0.931 . S
H721 C709 0.929 . S
H722 C710 0.960 . S
H723 C710 0.962 . S
H724 C710 0.960 . S
H725 C711 0.961 . S
H726 C711 0.961 . S
H727 C711 0.961 . S
H728 C712 0.931 . S
H729 C717 0.930 . S
H730 C718 0.956 . S
H731 C718 0.961 . S
H732 C718 0.961 . S
H733 C719 0.958 . S
H734 C719 0.961 . S
H735 C719 0.960 . S
C736 C737 1.391 . S
C736 C738 1.394 . S
C736 H752 0.931 . S
C737 C736 1.391 . S
C737 C741 1.376 . S
C738 C736 1.394 . S
C738 C739 1.369 . S
C738 C742 1.531 . S
C739 C738 1.369 . S
C739 C740 1.410 . S
C739 C747 1.503 . S
C740 C739 1.410 . S
C740 C741 1.392 . S
C740 C743 1.511 . S
C741 C737 1.376 . S
C741 C740 1.392 . S
C741 H753 0.929 . S
C742 C738 1.531 . S
C742 H754 0.960 . S
C742 H755 0.962 . S
C742 H756 0.960 . S
C743 C740 1.511 . S
C743 H757 0.961 . S
C743 H758 0.961 . S
C743 H759 0.961 . S
C744 C745 1.370 . S
C744 C746 1.363 . S
C744 H760 0.931 . S
C745 C744 1.370 . S
C745 C749 1.408 . S
C746 C744 1.363 . S
C746 C747 1.370 . S
C746 C750 1.524 . S
C747 C739 1.503 . S
C747 C746 1.370 . S
C747 C748 1.403 . S
C748 C747 1.403 . S
C748 C749 1.404 . S
C748 C751 1.539 . S
C749 C745 1.408 . S
C749 C748 1.404 . S
C749 H761 0.930 . S
C750 C746 1.524 . S
C750 H762 0.956 . S
C750 H763 0.961 . S
C750 H764 0.961 . S
C751 C748 1.539 . S
C751 H765 0.958 . S
C751 H766 0.961 . S
C751 H767 0.960 . S
H752 C736 0.931 . S
H753 C741 0.929 . S
H754 C742 0.960 . S
H755 C742 0.962 . S
H756 C742 0.960 . S
H757 C743 0.961 . S
H758 C743 0.961 . S
H759 C743 0.961 . S
H760 C744 0.931 . S
H761 C749 0.930 . S
H762 C750 0.956 . S
H763 C750 0.961 . S
H764 C750 0.961 . S
H765 C751 0.958 . S
H766 C751 0.961 . S
H767 C751 0.960 . S
C768 C769 1.391 . S
C768 C770 1.394 . S
C768 H784 0.931 . S
C769 C768 1.391 . S
C769 C773 1.376 . S
C770 C768 1.394 . S
C770 C771 1.369 . S
C770 C774 1.531 . S
C771 C770 1.369 . S
C771 C772 1.410 . S
C771 C779 1.503 . S
C772 C771 1.410 . S
C772 C773 1.392 . S
C772 C775 1.511 . S
C773 C769 1.376 . S
C773 C772 1.392 . S
C773 H785 0.929 . S
C774 C770 1.531 . S
C774 H786 0.960 . S
C774 H787 0.962 . S
C774 H788 0.960 . S
C775 C772 1.511 . S
C775 H789 0.961 . S
C775 H790 0.961 . S
C775 H791 0.961 . S
C776 C777 1.370 . S
C776 C778 1.363 . S
C776 H792 0.931 . S
C777 C776 1.370 . S
C777 C781 1.408 . S
C778 C776 1.363 . S
C778 C779 1.370 . S
C778 C782 1.524 . S
C779 C771 1.503 . S
C779 C778 1.370 . S
C779 C780 1.403 . S
C780 C779 1.403 . S
C780 C781 1.404 . S
C780 C783 1.539 . S
C781 C777 1.408 . S
C781 C780 1.404 . S
C781 H793 0.930 . S
C782 C778 1.524 . S
C782 H794 0.956 . S
C782 H795 0.961 . S
C782 H796 0.961 . S
C783 C780 1.539 . S
C783 H797 0.958 . S
C783 H798 0.961 . S
C783 H799 0.960 . S
H784 C768 0.931 . S
H785 C773 0.929 . S
H786 C774 0.960 . S
H787 C774 0.962 . S
H788 C774 0.960 . S
H789 C775 0.961 . S
H790 C775 0.961 . S
H791 C775 0.961 . S
H792 C776 0.931 . S
H793 C781 0.930 . S
H794 C782 0.956 . S
H795 C782 0.961 . S
H796 C782 0.961 . S
H797 C783 0.958 . S
H798 C783 0.961 . S
H799 C783 0.960 . S
C800 C801 1.391 . S
C800 C802 1.394 . S
C800 H816 0.931 . S
C801 C800 1.391 . S
C801 C805 1.376 . S
C802 C800 1.394 . S
C802 C803 1.369 . S
C802 C806 1.531 . S
C803 C802 1.369 . S
C803 C804 1.410 . S
C803 C811 1.503 . S
C804 C803 1.410 . S
C804 C805 1.392 . S
C804 C807 1.511 . S
C805 C801 1.376 . S
C805 C804 1.392 . S
C805 H817 0.929 . S
C806 C802 1.531 . S
C806 H818 0.960 . S
C806 H819 0.962 . S
C806 H820 0.960 . S
C807 C804 1.511 . S
C807 H821 0.961 . S
C807 H822 0.961 . S
C807 H823 0.961 . S
C808 C809 1.370 . S
C808 C810 1.363 . S
C808 H824 0.931 . S
C809 C808 1.370 . S
C809 C813 1.408 . S
C810 C808 1.363 . S
C810 C811 1.370 . S
C810 C814 1.524 . S
C811 C803 1.503 . S
C811 C810 1.370 . S
C811 C812 1.403 . S
C812 C811 1.403 . S
C812 C813 1.404 . S
C812 C815 1.539 . S
C813 C809 1.408 . S
C813 C812 1.404 . S
C813 H825 0.930 . S
C814 C810 1.524 . S
C814 H826 0.956 . S
C814 H827 0.961 . S
C814 H828 0.961 . S
C815 C812 1.539 . S
C815 H829 0.958 . S
C815 H830 0.961 . S
C815 H831 0.960 . S
H816 C800 0.931 . S
H817 C805 0.929 . S
H818 C806 0.960 . S
H819 C806 0.962 . S
H820 C806 0.960 . S
H821 C807 0.961 . S
H822 C807 0.961 . S
H823 C807 0.961 . S
H824 C808 0.931 . S
H825 C813 0.930 . S
H826 C814 0.956 . S
H827 C814 0.961 . S
H828 C814 0.961 . S
H829 C815 0.958 . S
H830 C815 0.961 . S
H831 C815 0.960 . S
C832 C833 1.391 . S
C832 C834 1.394 . S
C832 H848 0.931 . S
C833 C832 1.391 . S
C833 C837 1.376 . S
C834 C832 1.394 . S
C834 C835 1.369 . S
C834 C838 1.531 . S
C835 C834 1.369 . S
C835 C836 1.410 . S
C835 C843 1.503 . S
C836 C835 1.410 . S
C836 C837 1.392 . S
C836 C839 1.511 . S
C837 C833 1.376 . S
C837 C836 1.392 . S
C837 H849 0.929 . S
C838 C834 1.531 . S
C838 H850 0.960 . S
C838 H851 0.962 . S
C838 H852 0.960 . S
C839 C836 1.511 . S
C839 H853 0.961 . S
C839 H854 0.961 . S
C839 H855 0.961 . S
C840 C841 1.370 . S
C840 C842 1.363 . S
C840 H856 0.931 . S
C841 C840 1.370 . S
C841 C845 1.408 . S
C842 C840 1.363 . S
C842 C843 1.370 . S
C842 C846 1.524 . S
C843 C835 1.503 . S
C843 C842 1.370 . S
C843 C844 1.403 . S
C844 C843 1.403 . S
C844 C845 1.404 . S
C844 C847 1.539 . S
C845 C841 1.408 . S
C845 C844 1.404 . S
C845 H857 0.930 . S
C846 C842 1.524 . S
C846 H858 0.956 . S
C846 H859 0.961 . S
C846 H860 0.961 . S
C847 C844 1.539 . S
C847 H861 0.958 . S
C847 H862 0.961 . S
C847 H863 0.960 . S
H848 C832 0.931 . S
H849 C837 0.929 . S
H850 C838 0.960 . S
H851 C838 0.962 . S
H852 C838 0.960 . S
H853 C839 0.961 . S
H854 C839 0.961 . S
H855 C839 0.961 . S
H856 C840 0.931 . S
H857 C845 0.930 . S
H858 C846 0.956 . S
H859 C846 0.961 . S
H860 C846 0.961 . S
H861 C847 0.958 . S
H862 C847 0.961 . S
H863 C847 0.960 . S
C864 C865 1.391 . S
C864 C866 1.394 . S
C864 H880 0.931 . S
C865 C864 1.391 . S
C865 C869 1.376 . S
C866 C864 1.394 . S
C866 C867 1.369 . S
C866 C870 1.531 . S
C867 C866 1.369 . S
C867 C868 1.410 . S
C867 C875 1.503 . S
C868 C867 1.410 . S
C868 C869 1.392 . S
C868 C871 1.511 . S
C869 C865 1.376 . S
C869 C868 1.392 . S
C869 H881 0.929 . S
C870 C866 1.531 . S
C870 H882 0.960 . S
C870 H883 0.962 . S
C870 H884 0.960 . S
C871 C868 1.511 . S
C871 H885 0.961 . S
C871 H886 0.961 . S
C871 H887 0.961 . S
C872 C873 1.370 . S
C872 C874 1.363 . S
C872 H888 0.931 . S
C873 C872 1.370 . S
C873 C877 1.408 . S
C874 C872 1.363 . S
C874 C875 1.370 . S
C874 C878 1.524 . S
C875 C867 1.503 . S
C875 C874 1.370 . S
C875 C876 1.403 . S
C876 C875 1.403 . S
C876 C877 1.404 . S
C876 C879 1.539 . S
C877 C873 1.408 . S
C877 C876 1.404 . S
C877 H889 0.930 . S
C878 C874 1.524 . S
C878 H890 0.956 . S
C878 H891 0.961 . S
C878 H892 0.961 . S
C879 C876 1.539 . S
C879 H893 0.958 . S
C879 H894 0.961 . S
C879 H895 0.960 . S
H880 C864 0.931 . S
H881 C869 0.929 . S
H882 C870 0.960 . S
H883 C870 0.962 . S
H884 C870 0.960 . S
H885 C871 0.961 . S
H886 C871 0.961 . S
H887 C871 0.961 . S
H888 C872 0.931 . S
H889 C877 0.930 . S
H890 C878 0.956 . S
H891 C878 0.961 . S
H892 C878 0.961 . S
H893 C879 0.958 . S
H894 C879 0.961 . S
H895 C879 0.960 . S
C896 C897 1.391 . S
C896 C898 1.394 . S
C896 H912 0.931 . S
C897 C896 1.391 . S
C897 C901 1.376 . S
C898 C896 1.394 . S
C898 C899 1.369 . S
C898 C902 1.531 . S
C899 C898 1.369 . S
C899 C900 1.410 . S
C899 C907 1.503 . S
C900 C899 1.410 . S
C900 C901 1.392 . S
C900 C903 1.511 . S
C901 C897 1.376 . S
C901 C900 1.392 . S
C901 H913 0.929 . S
C902 C898 1.531 . S
C902 H914 0.960 . S
C902 H915 0.962 . S
C902 H916 0.960 . S
C903 C900 1.511 . S
C903 H917 0.961 . S
C903 H918 0.961 . S
C903 H919 0.961 . S
C904 C905 1.370 . S
C904 C906 1.363 . S
C904 H920 0.931 . S
C905 C904 1.370 . S
C905 C909 1.408 . S
C906 C904 1.363 . S
C906 C907 1.370 . S
C906 C910 1.524 . S
C907 C899 1.503 . S
C907 C906 1.370 . S
C907 C908 1.403 . S
C908 C907 1.403 . S
C908 C909 1.404 . S
C908 C911 1.539 . S
C909 C905 1.408 . S
C909 C908 1.404 . S
C909 H921 0.930 . S
C910 C906 1.524 . S
C910 H922 0.956 . S
C910 H923 0.961 . S
C910 H924 0.961 . S
C911 C908 1.539 . S
C911 H925 0.958 . S
C911 H926 0.961 . S
C911 H927 0.960 . S
H912 C896 0.931 . S
H913 C901 0.929 . S
H914 C902 0.960 . S
H915 C902 0.962 . S
H916 C902 0.960 . S
H917 C903 0.961 . S
H918 C903 0.961 . S
H919 C903 0.961 . S
H920 C904 0.931 . S
H921 C909 0.930 . S
H922 C910 0.956 . S
H923 C910 0.961 . S
H924 C910 0.961 . S
H925 C911 0.958 . S
H926 C911 0.961 . S
H927 C911 0.960 . S
C928 C929 1.391 . S
C928 C930 1.394 . S
C928 H944 0.931 . S
C929 C928 1.391 . S
C929 C933 1.376 . S
C930 C928 1.394 . S
C930 C931 1.369 . S
C930 C934 1.531 . S
C931 C930 1.369 . S
C931 C932 1.410 . S
C931 C939 1.503 . S
C932 C931 1.410 . S
C932 C933 1.392 . S
C932 C935 1.511 . S
C933 C929 1.376 . S
C933 C932 1.392 . S
C933 H945 0.929 . S
C934 C930 1.531 . S
C934 H946 0.960 . S
C934 H947 0.962 . S
C934 H948 0.960 . S
C935 C932 1.511 . S
C935 H949 0.961 . S
C935 H950 0.961 . S
C935 H951 0.961 . S
C936 C937 1.370 . S
C936 C938 1.363 . S
C936 H952 0.931 . S
C937 C936 1.370 . S
C937 C941 1.408 . S
C938 C936 1.363 . S
C938 C939 1.370 . S
C938 C942 1.524 . S
C939 C931 1.503 . S
C939 C938 1.370 . S
C939 C940 1.403 . S
C940 C939 1.403 . S
C940 C941 1.404 . S
C940 C943 1.539 . S
C941 C937 1.408 . S
C941 C940 1.404 . S
C941 H953 0.930 . S
C942 C938 1.524 . S
C942 H954 0.956 . S
C942 H955 0.961 . S
C942 H956 0.961 . S
C943 C940 1.539 . S
C943 H957 0.958 . S
C943 H958 0.961 . S
C943 H959 0.960 . S
H944 C928 0.931 . S
H945 C933 0.929 . S
H946 C934 0.960 . S
H947 C934 0.962 . S
H948 C934 0.960 . S
H949 C935 0.961 . S
H950 C935 0.961 . S
H951 C935 0.961 . S
H952 C936 0.931 . S
H953 C941 0.930 . S
H954 C942 0.956 . S
H955 C942 0.961 . S
H956 C942 0.961 . S
H957 C943 0.958 . S
H958 C943 0.961 . S
H959 C943 0.960 . S
C960 C961 1.391 . S
C960 C962 1.394 . S
C960 H976 0.931 . S
C961 C960 1.391 . S
C961 C965 1.376 . S
C962 C960 1.394 . S
C962 C963 1.369 . S
C962 C966 1.531 . S
C963 C962 1.369 . S
C963 C964 1.410 . S
C963 C971 1.503 . S
C964 C963 1.410 . S
C964 C965 1.392 . S
C964 C967 1.511 . S
C965 C961 1.376 . S
C965 C964 1.392 . S
C965 H977 0.929 . S
C966 C962 1.531 . S
C966 H978 0.960 . S
C966 H979 0.962 . S
C966 H980 0.960 . S
C967 C964 1.511 . S
C967 H981 0.961 . S
C967 H982 0.961 . S
C967 H983 0.961 . S
C968 C969 1.370 . S
C968 C970 1.363 . S
C968 H984 0.931 . S
C969 C968 1.370 . S
C969 C973 1.408 . S
C970 C968 1.363 . S
C970 C971 1.370 . S
C970 C974 1.524 . S
C971 C963 1.503 . S
C971 C970 1.370 . S
C971 C972 1.403 . S
C972 C971 1.403 . S
C972 C973 1.404 . S
C972 C975 1.539 . S
C973 C969 1.408 . S
C973 C972 1.404 . S
C973 H985 0.930 . S
C974 C970 1.524 . S
C974 H986 0.956 . S
C974 H987 0.961 . S
C974 H988 0.961 . S
C975 C972 1.539 . S
C975 H989 0.958 . S
C975 H990 0.961 . S
C975 H991 0.960 . S
H976 C960 0.931 . S
H977 C965 0.929 . S
H978 C966 0.960 . S
H979 C966 0.962 . S
H980 C966 0.960 . S
H981 C967 0.961 . S
H982 C967 0.961 . S
H983 C967 0.961 . S
H984 C968 0.931 . S
H985 C973 0.930 . S
H986 C974 0.956 . S
H987 C974 0.961 . S
H988 C974 0.961 . S
H989 C975 0.958 . S
H990 C975 0.961 . S
H991 C975 0.960 . S
C992 C993 1.391 1_655 S
C992 C994 1.394 . S
C992 H1008 0.931 . S
C993 C992 1.391 1_455 S
C993 C997 1.376 . S
C994 C992 1.394 . S
C994 C995 1.369 1_655 S
C994 C998 1.531 . S
C995 C994 1.369 1_455 S
C995 C996 1.410 . S
C995 C1003 1.503 . S
C996 C995 1.410 . S
C996 C997 1.392 . S
C996 C999 1.511 . S
C997 C993 1.376 . S
C997 C996 1.392 . S
C997 H1009 0.929 . S
C998 C994 1.531 . S
C998 H1010 0.960 . S
C998 H1011 0.962 . S
C998 H1012 0.960 . S
C999 C996 1.511 . S
C999 H1013 0.961 . S
C999 H1014 0.961 . S
C999 H1015 0.961 . S
C1000 C1001 1.370 1_655 S
C1000 C1002 1.371 . S
C1000 H1016 0.931 . S
C1001 C1000 1.370 1_455 S
C1001 C1005 1.408 . S
C1002 C1000 1.371 . S
C1002 C1003 1.352 1_655 S
C1002 C1006 1.536 . S
C1003 C995 1.503 . S
C1003 C1002 1.352 1_455 S
C1003 C1004 1.403 . S
C1004 C1003 1.403 . S
C1004 C1005 1.404 . S
C1004 C1007 1.539 . S
C1005 C1001 1.408 . S
C1005 C1004 1.404 . S
C1005 H1017 0.930 . S
C1006 C1002 1.536 . S
C1006 H1018 0.956 . S
C1006 H1019 0.961 . S
C1006 H1020 0.961 . S
C1007 C1004 1.539 . S
C1007 H1021 0.958 . S
C1007 H1022 0.961 . S
C1007 H1023 0.960 . S
H1008 C992 0.931 . S
H1009 C997 0.929 . S
H1010 C998 0.960 . S
H1011 C998 0.962 . S
H1012 C998 0.960 . S
H1013 C999 0.961 . S
H1014 C999 0.961 . S
H1015 C999 0.961 . S
H1016 C1000 0.931 . S
H1017 C1005 0.930 . S
H1018 C1006 0.956 . S
H1019 C1006 0.961 . S
H1020 C1006 0.961 . S
H1021 C1007 0.958 . S
H1022 C1007 0.961 . S
H1023 C1007 0.960 . S
C1024 C1025 1.391 . S
C1024 C1026 1.394 . S
C1024 H1040 0.931 . S
C1025 C1024 1.391 . S
C1025 C1029 1.376 . S
C1026 C1024 1.394 . S
C1026 C1027 1.369 . S
C1026 C1030 1.531 . S
C1027 C1026 1.369 . S
C1027 C1028 1.410 . S
C1027 C1035 1.503 . S
C1028 C1027 1.410 . S
C1028 C1029 1.392 . S
C1028 C1031 1.511 . S
C1029 C1025 1.376 . S
C1029 C1028 1.392 . S
C1029 H1041 0.929 . S
C1030 C1026 1.531 . S
C1030 H1042 0.960 . S
C1030 H1043 0.962 . S
C1030 H1044 0.960 . S
C1031 C1028 1.511 . S
C1031 H1045 0.961 . S
C1031 H1046 0.961 . S
C1031 H1047 0.961 . S
C1032 C1033 1.370 . S
C1032 C1034 1.363 . S
C1032 H1048 0.931 . S
C1033 C1032 1.370 . S
C1033 C1037 1.408 . S
C1034 C1032 1.363 . S
C1034 C1035 1.370 . S
C1034 C1038 1.524 . S
C1035 C1027 1.503 . S
C1035 C1034 1.370 . S
C1035 C1036 1.403 . S
C1036 C1035 1.403 . S
C1036 C1037 1.404 . S
C1036 C1039 1.539 . S
C1037 C1033 1.408 . S
C1037 C1036 1.404 . S
C1037 H1049 0.930 . S
C1038 C1034 1.524 . S
C1038 H1050 0.956 . S
C1038 H1051 0.961 . S
C1038 H1052 0.961 . S
C1039 C1036 1.539 . S
C1039 H1053 0.958 . S
C1039 H1054 0.961 . S
C1039 H1055 0.960 . S
H1040 C1024 0.931 . S
H1041 C1029 0.929 . S
H1042 C1030 0.960 . S
H1043 C1030 0.962 . S
H1044 C1030 0.960 . S
H1045 C1031 0.961 . S
H1046 C1031 0.961 . S
H1047 C1031 0.961 . S
H1048 C1032 0.931 . S
H1049 C1037 0.930 . S
H1050 C1038 0.956 . S
H1051 C1038 0.961 . S
H1052 C1038 0.961 . S
H1053 C1039 0.958 . S
H1054 C1039 0.961 . S
H1055 C1039 0.960 . S
C1056 C1057 1.391 . S
C1056 C1058 1.394 . S
C1056 H1072 0.931 . S
C1057 C1056 1.391 . S
C1057 C1061 1.376 . S
C1058 C1056 1.394 . S
C1058 C1059 1.369 . S
C1058 C1062 1.531 . S
C1059 C1058 1.369 . S
C1059 C1060 1.410 . S
C1059 C1067 1.503 . S
C1060 C1059 1.410 . S
C1060 C1061 1.392 . S
C1060 C1063 1.511 . S
C1061 C1057 1.376 . S
C1061 C1060 1.392 . S
C1061 H1073 0.929 . S
C1062 C1058 1.531 . S
C1062 H1074 0.960 . S
C1062 H1075 0.962 . S
C1062 H1076 0.960 . S
C1063 C1060 1.511 . S
C1063 H1077 0.961 . S
C1063 H1078 0.961 . S
C1063 H1079 0.961 . S
C1064 C1065 1.370 . S
C1064 C1066 1.363 . S
C1064 H1080 0.931 . S
C1065 C1064 1.370 . S
C1065 C1069 1.408 . S
C1066 C1064 1.363 . S
C1066 C1067 1.370 . S
C1066 C1070 1.524 . S
C1067 C1059 1.503 . S
C1067 C1066 1.370 . S
C1067 C1068 1.403 . S
C1068 C1067 1.403 . S
C1068 C1069 1.404 . S
C1068 C1071 1.539 . S
C1069 C1065 1.408 . S
C1069 C1068 1.404 . S
C1069 H1081 0.930 . S
C1070 C1066 1.524 . S
C1070 H1082 0.956 . S
C1070 H1083 0.961 . S
C1070 H1084 0.961 . S
C1071 C1068 1.539 . S
C1071 H1085 0.958 . S
C1071 H1086 0.961 . S
C1071 H1087 0.960 . S
H1072 C1056 0.931 . S
H1073 C1061 0.929 . S
H1074 C1062 0.960 . S
H1075 C1062 0.962 . S
H1076 C1062 0.960 . S
H1077 C1063 0.961 . S
H1078 C1063 0.961 . S
H1079 C1063 0.961 . S
H1080 C1064 0.931 . S
H1081 C1069 0.930 . S
H1082 C1070 0.956 . S
H1083 C1070 0.961 . S
H1084 C1070 0.961 . S
H1085 C1071 0.958 . S
H1086 C1071 0.961 . S
H1087 C1071 0.960 . S
C1088 C1089 1.391 . S
C1088 C1090 1.394 . S
C1088 H1104 0.931 . S
C1089 C1088 1.391 . S
C1089 C1093 1.376 . S
C1090 C1088 1.394 . S
C1090 C1091 1.369 . S
C1090 C1094 1.531 . S
C1091 C1090 1.369 . S
C1091 C1092 1.410 . S
C1091 C1099 1.503 . S
C1092 C1091 1.410 . S
C1092 C1093 1.392 . S
C1092 C1095 1.511 . S
C1093 C1089 1.376 . S
C1093 C1092 1.392 . S
C1093 H1105 0.929 . S
C1094 C1090 1.531 . S
C1094 H1106 0.960 . S
C1094 H1107 0.962 . S
C1094 H1108 0.960 . S
C1095 C1092 1.511 . S
C1095 H1109 0.961 . S
C1095 H1110 0.961 . S
C1095 H1111 0.961 . S
C1096 C1097 1.370 . S
C1096 C1098 1.363 . S
C1096 H1112 0.931 . S
C1097 C1096 1.370 . S
C1097 C1101 1.408 . S
C1098 C1096 1.363 . S
C1098 C1099 1.370 . S
C1098 C1102 1.524 . S
C1099 C1091 1.503 . S
C1099 C1098 1.370 . S
C1099 C1100 1.403 . S
C1100 C1099 1.403 . S
C1100 C1101 1.404 . S
C1100 C1103 1.539 . S
C1101 C1097 1.408 . S
C1101 C1100 1.404 . S
C1101 H1113 0.930 . S
C1102 C1098 1.524 . S
C1102 H1114 0.956 . S
C1102 H1115 0.961 . S
C1102 H1116 0.961 . S
C1103 C1100 1.539 . S
C1103 H1117 0.958 . S
C1103 H1118 0.961 . S
C1103 H1119 0.960 . S
H1104 C1088 0.931 . S
H1105 C1093 0.929 . S
H1106 C1094 0.960 . S
H1107 C1094 0.962 . S
H1108 C1094 0.960 . S
H1109 C1095 0.961 . S
H1110 C1095 0.961 . S
H1111 C1095 0.961 . S
H1112 C1096 0.931 . S
H1113 C1101 0.930 . S
H1114 C1102 0.956 . S
H1115 C1102 0.961 . S
H1116 C1102 0.961 . S
H1117 C1103 0.958 . S
H1118 C1103 0.961 . S
H1119 C1103 0.960 . S
C1120 C1121 1.391 . S
C1120 C1122 1.394 . S
C1120 H1136 0.931 . S
C1121 C1120 1.391 . S
C1121 C1125 1.376 . S
C1122 C1120 1.394 . S
C1122 C1123 1.369 . S
C1122 C1126 1.531 . S
C1123 C1122 1.369 . S
C1123 C1124 1.410 . S
C1123 C1131 1.503 . S
C1124 C1123 1.410 . S
C1124 C1125 1.392 . S
C1124 C1127 1.511 . S
C1125 C1121 1.376 . S
C1125 C1124 1.392 . S
C1125 H1137 0.929 . S
C1126 C1122 1.531 . S
C1126 H1138 0.960 . S
C1126 H1139 0.962 . S
C1126 H1140 0.960 . S
C1127 C1124 1.511 . S
C1127 H1141 0.961 . S
C1127 H1142 0.961 . S
C1127 H1143 0.961 . S
C1128 C1129 1.370 . S
C1128 C1130 1.363 . S
C1128 H1144 0.931 . S
C1129 C1128 1.370 . S
C1129 C1133 1.408 . S
C1130 C1128 1.363 . S
C1130 C1131 1.370 . S
C1130 C1134 1.524 . S
C1131 C1123 1.503 . S
C1131 C1130 1.370 . S
C1131 C1132 1.403 . S
C1132 C1131 1.403 . S
C1132 C1133 1.404 . S
C1132 C1135 1.539 . S
C1133 C1129 1.408 . S
C1133 C1132 1.404 . S
C1133 H1145 0.930 . S
C1134 C1130 1.524 . S
C1134 H1146 0.956 . S
C1134 H1147 0.961 . S
C1134 H1148 0.961 . S
C1135 C1132 1.539 . S
C1135 H1149 0.958 . S
C1135 H1150 0.961 . S
C1135 H1151 0.960 . S
H1136 C1120 0.931 . S
H1137 C1125 0.929 . S
H1138 C1126 0.960 . S
H1139 C1126 0.962 . S
H1140 C1126 0.960 . S
H1141 C1127 0.961 . S
H1142 C1127 0.961 . S
H1143 C1127 0.961 . S
H1144 C1128 0.931 . S
H1145 C1133 0.930 . S
H1146 C1134 0.956 . S
H1147 C1134 0.961 . S
H1148 C1134 0.961 . S
H1149 C1135 0.958 . S
H1150 C1135 0.961 . S
H1151 C1135 0.960 . S
C1152 C1153 1.376 1_565 S
C1152 C1154 1.394 . S
C1152 H1168 0.931 . S
C1153 C1152 1.376 1_545 S
C1153 C1157 1.404 . S
C1154 C1152 1.394 . S
C1154 C1155 1.369 1_565 S
C1154 C1158 1.531 . S
C1155 C1154 1.369 1_545 S
C1155 C1156 1.410 . S
C1155 C1163 1.503 . S
C1156 C1155 1.410 . S
C1156 C1157 1.392 . S
C1156 C1159 1.511 . S
C1157 C1153 1.404 . S
C1157 C1156 1.392 . S
C1157 H1169 0.929 . S
C1158 C1154 1.531 . S
C1158 H1170 0.960 . S
C1158 H1171 0.962 . S
C1158 H1172 0.960 . S
C1159 C1156 1.511 . S
C1159 H1173 0.961 . S
C1159 H1174 0.961 . S
C1159 H1175 0.961 . S
C1160 C1161 1.370 1_565 S
C1160 C1162 1.363 . S
C1160 H1176 0.931 . S
C1161 C1160 1.370 1_545 S
C1161 C1165 1.408 . S
C1162 C1160 1.363 . S
C1162 C1163 1.370 1_565 S
C1162 C1166 1.524 . S
C1163 C1155 1.503 . S
C1163 C1162 1.370 1_545 S
C1163 C1164 1.403 . S
C1164 C1163 1.403 . S
C1164 C1165 1.404 . S
C1164 C1167 1.539 . S
C1165 C1161 1.408 . S
C1165 C1164 1.404 . S
C1165 H1177 0.930 . S
C1166 C1162 1.524 . S
C1166 H1178 0.956 . S
C1166 H1179 0.961 . S
C1166 H1180 0.961 . S
C1167 C1164 1.539 . S
C1167 H1181 0.958 . S
C1167 H1182 0.961 . S
C1167 H1183 0.960 . S
H1168 C1152 0.931 . S
H1169 C1157 0.929 . S
H1170 C1158 0.960 . S
H1171 C1158 0.962 . S
H1172 C1158 0.960 . S
H1173 C1159 0.961 . S
H1174 C1159 0.961 . S
H1175 C1159 0.961 . S
H1176 C1160 0.931 . S
H1177 C1165 0.930 . S
H1178 C1166 0.956 . S
H1179 C1166 0.961 . S
H1180 C1166 0.961 . S
H1181 C1167 0.958 . S
H1182 C1167 0.961 . S
H1183 C1167 0.960 . S
C1184 C1185 1.391 . S
C1184 C1186 1.394 . S
C1184 H1200 0.931 . S
C1185 C1184 1.391 . S
C1185 C1189 1.376 1_556 S
C1186 C1184 1.394 . S
C1186 C1187 1.369 . S
C1186 C1190 1.531 . S
C1187 C1186 1.369 . S
C1187 C1188 1.410 1_556 S
C1187 C1195 1.503 . S
C1188 C1187 1.410 1_554 S
C1188 C1189 1.392 . S
C1188 C1191 1.511 . S
C1189 C1185 1.376 1_554 S
C1189 C1188 1.392 . S
C1189 H1201 0.929 . S
C1190 C1186 1.531 . S
C1190 H1202 0.960 . S
C1190 H1203 0.962 . S
C1190 H1204 0.960 . S
C1191 C1188 1.511 . S
C1191 H1205 0.961 . S
C1191 H1206 0.961 . S
C1191 H1207 0.961 . S
C1192 C1193 1.370 . S
C1192 C1194 1.363 . S
C1192 H1208 0.931 . S
C1193 C1192 1.370 . S
C1193 C1197 1.408 . S
C1194 C1192 1.363 . S
C1194 C1195 1.370 . S
C1194 C1198 1.524 . S
C1195 C1187 1.503 . S
C1195 C1194 1.370 . S
C1195 C1196 1.403 . S
C1196 C1195 1.403 . S
C1196 C1197 1.404 . S
C1196 C1199 1.539 . S
C1197 C1193 1.408 . S
C1197 C1196 1.404 . S
C1197 H1209 0.930 . S
C1198 C1194 1.524 . S
C1198 H1210 0.956 . S
C1198 H1211 0.961 . S
C1198 H1212 0.961 . S
C1199 C1196 1.539 . S
C1199 H1213 0.958 . S
C1199 H1214 0.961 1_556 S
C1199 H1215 0.960 1_556 S
H1200 C1184 0.931 . S
H1201 C1189 0.929 . S
H1202 C1190 0.960 . S
H1203 C1190 0.962 . S
H1204 C1190 0.960 . S
H1205 C1191 0.961 . S
H1206 C1191 0.961 . S
H1207 C1191 0.961 . S
H1208 C1192 0.931 . S
H1209 C1197 0.930 . S
H1210 C1198 0.956 . S
H1211 C1198 0.961 . S
H1212 C1198 0.961 . S
H1213 C1199 0.958 . S
H1214 C1199 0.961 1_554 S
H1215 C1199 0.960 1_554 S
C1216 C1217 1.391 . S
C1216 C1218 1.394 . S
C1216 H1232 0.931 . S
C1217 C1216 1.391 . S
C1217 C1221 1.376 . S
C1218 C1216 1.394 . S
C1218 C1219 1.369 . S
C1218 C1222 1.531 . S
C1219 C1218 1.369 . S
C1219 C1220 1.410 . S
C1219 C1227 1.503 . S
C1220 C1219 1.410 . S
C1220 C1221 1.392 . S
C1220 C1223 1.511 . S
C1221 C1217 1.376 . S
C1221 C1220 1.392 . S
C1221 H1233 0.929 . S
C1222 C1218 1.531 . S
C1222 H1234 0.960 . S
C1222 H1235 0.962 . S
C1222 H1236 0.960 . S
C1223 C1220 1.511 . S
C1223 H1237 0.961 . S
C1223 H1238 0.961 . S
C1223 H1239 0.961 . S
C1224 C1225 1.370 . S
C1224 C1226 1.363 . S
C1224 H1240 0.931 . S
C1225 C1224 1.370 . S
C1225 C1229 1.408 . S
C1226 C1224 1.363 . S
C1226 C1227 1.370 . S
C1226 C1230 1.524 . S
C1227 C1219 1.503 . S
C1227 C1226 1.370 . S
C1227 C1228 1.403 . S
C1228 C1227 1.403 . S
C1228 C1229 1.404 . S
C1228 C1231 1.539 . S
C1229 C1225 1.408 . S
C1229 C1228 1.404 . S
C1229 H1241 0.930 . S
C1230 C1226 1.524 . S
C1230 H1242 0.956 . S
C1230 H1243 0.961 . S
C1230 H1244 0.961 . S
C1231 C1228 1.539 . S
C1231 H1245 0.958 . S
C1231 H1246 0.961 . S
C1231 H1247 0.960 . S
H1232 C1216 0.931 . S
H1233 C1221 0.929 . S
H1234 C1222 0.960 . S
H1235 C1222 0.962 . S
H1236 C1222 0.960 . S
H1237 C1223 0.961 . S
H1238 C1223 0.961 . S
H1239 C1223 0.961 . S
H1240 C1224 0.931 . S
H1241 C1229 0.930 . S
H1242 C1230 0.956 . S
H1243 C1230 0.961 . S
H1244 C1230 0.961 . S
H1245 C1231 0.958 . S
H1246 C1231 0.961 . S
H1247 C1231 0.960 . S
C1248 C1249 1.391 . S
C1248 C1250 1.394 . S
C1248 H1264 0.931 . S
C1249 C1248 1.391 . S
C1249 C1253 1.376 . S
C1250 C1248 1.394 . S
C1250 C1251 1.369 . S
C1250 C1254 1.531 . S
C1251 C1250 1.369 . S
C1251 C1252 1.410 . S
C1251 C1259 1.503 . S
C1252 C1251 1.410 . S
C1252 C1253 1.392 . S
C1252 C1255 1.511 . S
C1253 C1249 1.376 . S
C1253 C1252 1.392 . S
C1253 H1265 0.929 . S
C1254 C1250 1.531 . S
C1254 H1266 0.960 . S
C1254 H1267 0.962 . S
C1254 H1268 0.960 . S
C1255 C1252 1.511 . S
C1255 H1269 0.961 . S
C1255 H1270 0.961 . S
C1255 H1271 0.961 . S
C1256 C1257 1.370 . S
C1256 C1258 1.363 . S
C1256 H1272 0.931 . S
C1257 C1256 1.370 . S
C1257 C1261 1.408 . S
C1258 C1256 1.363 . S
C1258 C1259 1.370 . S
C1258 C1262 1.524 . S
C1259 C1251 1.503 . S
C1259 C1258 1.370 . S
C1259 C1260 1.403 . S
C1260 C1259 1.403 . S
C1260 C1261 1.404 . S
C1260 C1263 1.539 . S
C1261 C1257 1.408 . S
C1261 C1260 1.404 . S
C1261 H1273 0.930 . S
C1262 C1258 1.524 . S
C1262 H1274 0.956 . S
C1262 H1275 0.961 . S
C1262 H1276 0.961 . S
C1263 C1260 1.539 . S
C1263 H1277 0.958 . S
C1263 H1278 0.961 . S
C1263 H1279 0.960 . S
H1264 C1248 0.931 . S
H1265 C1253 0.929 . S
H1266 C1254 0.960 . S
H1267 C1254 0.962 . S
H1268 C1254 0.960 . S
H1269 C1255 0.961 . S
H1270 C1255 0.961 . S
H1271 C1255 0.961 . S
H1272 C1256 0.931 . S
H1273 C1261 0.930 . S
H1274 C1262 0.956 . S
H1275 C1262 0.961 . S
H1276 C1262 0.961 . S
H1277 C1263 0.958 . S
H1278 C1263 0.961 . S
H1279 C1263 0.960 . S
C1280 C1281 1.391 . S
C1280 C1282 1.394 . S
C1280 H1296 0.931 . S
C1281 C1280 1.391 . S
C1281 C1285 1.376 . S
C1282 C1280 1.394 . S
C1282 C1283 1.369 . S
C1282 C1286 1.531 . S
C1283 C1282 1.369 . S
C1283 C1284 1.410 . S
C1283 C1291 1.503 . S
C1284 C1283 1.410 . S
C1284 C1285 1.392 . S
C1284 C1287 1.511 . S
C1285 C1281 1.376 . S
C1285 C1284 1.392 . S
C1285 H1297 0.929 . S
C1286 C1282 1.531 . S
C1286 H1298 0.960 . S
C1286 H1299 0.962 . S
C1286 H1300 0.960 . S
C1287 C1284 1.511 . S
C1287 H1301 0.961 . S
C1287 H1302 0.961 . S
C1287 H1303 0.961 . S
C1288 C1289 1.370 . S
C1288 C1290 1.363 . S
C1288 H1304 0.931 . S
C1289 C1288 1.370 . S
C1289 C1293 1.408 . S
C1290 C1288 1.363 . S
C1290 C1291 1.370 . S
C1290 C1294 1.524 . S
C1291 C1283 1.503 . S
C1291 C1290 1.370 . S
C1291 C1292 1.403 . S
C1292 C1291 1.403 . S
C1292 C1293 1.404 . S
C1292 C1295 1.539 . S
C1293 C1289 1.408 . S
C1293 C1292 1.404 . S
C1293 H1305 0.930 . S
C1294 C1290 1.524 . S
C1294 H1306 0.956 . S
C1294 H1307 0.961 . S
C1294 H1308 0.961 . S
C1295 C1292 1.539 . S
C1295 H1309 0.958 . S
C1295 H1310 0.961 . S
C1295 H1311 0.960 . S
H1296 C1280 0.931 . S
H1297 C1285 0.929 . S
H1298 C1286 0.960 . S
H1299 C1286 0.962 . S
H1300 C1286 0.960 . S
H1301 C1287 0.961 . S
H1302 C1287 0.961 . S
H1303 C1287 0.961 . S
H1304 C1288 0.931 . S
H1305 C1293 0.930 . S
H1306 C1294 0.956 . S
H1307 C1294 0.961 . S
H1308 C1294 0.961 . S
H1309 C1295 0.958 . S
H1310 C1295 0.961 . S
H1311 C1295 0.960 . S
C1312 C1313 1.391 . S
C1312 C1314 1.394 . S
C1312 H1328 0.931 . S
C1313 C1312 1.391 . S
C1313 C1317 1.376 . S
C1314 C1312 1.394 . S
C1314 C1315 1.369 . S
C1314 C1318 1.531 . S
C1315 C1314 1.369 . S
C1315 C1316 1.410 . S
C1315 C1323 1.503 . S
C1316 C1315 1.410 . S
C1316 C1317 1.392 . S
C1316 C1319 1.511 . S
C1317 C1313 1.376 . S
C1317 C1316 1.392 . S
C1317 H1329 0.929 . S
C1318 C1314 1.531 . S
C1318 H1330 0.960 . S
C1318 H1331 0.962 . S
C1318 H1332 0.960 . S
C1319 C1316 1.511 . S
C1319 H1333 0.961 . S
C1319 H1334 0.961 . S
C1319 H1335 0.961 . S
C1320 C1321 1.370 . S
C1320 C1322 1.363 . S
C1320 H1336 0.931 . S
C1321 C1320 1.370 . S
C1321 C1325 1.408 . S
C1322 C1320 1.363 . S
C1322 C1323 1.370 . S
C1322 C1326 1.524 . S
C1323 C1315 1.503 . S
C1323 C1322 1.370 . S
C1323 C1324 1.403 . S
C1324 C1323 1.403 . S
C1324 C1325 1.404 . S
C1324 C1327 1.539 . S
C1325 C1321 1.408 . S
C1325 C1324 1.404 . S
C1325 H1337 0.930 . S
C1326 C1322 1.524 . S
C1326 H1338 0.956 . S
C1326 H1339 0.961 . S
C1326 H1340 0.961 . S
C1327 C1324 1.539 . S
C1327 H1341 0.958 . S
C1327 H1342 0.961 . S
C1327 H1343 0.960 . S
H1328 C1312 0.931 . S
H1329 C1317 0.929 . S
H1330 C1318 0.960 . S
H1331 C1318 0.962 . S
H1332 C1318 0.960 . S
H1333 C1319 0.961 . S
H1334 C1319 0.961 . S
H1335 C1319 0.961 . S
H1336 C1320 0.931 . S
H1337 C1325 0.930 . S
H1338 C1326 0.956 . S
H1339 C1326 0.961 . S
H1340 C1326 0.961 . S
H1341 C1327 0.958 . S
H1342 C1327 0.961 . S
H1343 C1327 0.960 . S
C1344 C1345 1.391 . S
C1344 C1346 1.394 . S
C1344 H1360 0.931 . S
C1345 C1344 1.391 . S
C1345 C1349 1.376 . S
C1346 C1344 1.394 . S
C1346 C1347 1.369 . S
C1346 C1350 1.531 . S
C1347 C1346 1.369 . S
C1347 C1348 1.410 . S
C1347 C1355 1.503 . S
C1348 C1347 1.410 . S
C1348 C1349 1.392 . S
C1348 C1351 1.511 . S
C1349 C1345 1.376 . S
C1349 C1348 1.392 . S
C1349 H1361 0.929 . S
C1350 C1346 1.531 . S
C1350 H1362 0.960 . S
C1350 H1363 0.962 . S
C1350 H1364 0.960 . S
C1351 C1348 1.511 . S
C1351 H1365 0.961 . S
C1351 H1366 0.961 . S
C1351 H1367 0.961 . S
C1352 C1353 1.370 . S
C1352 C1354 1.363 . S
C1352 H1368 0.931 . S
C1353 C1352 1.370 . S
C1353 C1357 1.408 . S
C1354 C1352 1.363 . S
C1354 C1355 1.370 . S
C1354 C1358 1.524 . S
C1355 C1347 1.503 . S
C1355 C1354 1.370 . S
C1355 C1356 1.403 . S
C1356 C1355 1.403 . S
C1356 C1357 1.404 . S
C1356 C1359 1.539 . S
C1357 C1353 1.408 . S
C1357 C1356 1.404 . S
C1357 H1369 0.930 . S
C1358 C1354 1.524 . S
C1358 H1370 0.956 . S
C1358 H1371 0.961 . S
C1358 H1372 0.961 . S
C1359 C1356 1.539 . S
C1359 H1373 0.958 . S
C1359 H1374 0.961 . S
C1359 H1375 0.960 . S
H1360 C1344 0.931 . S
H1361 C1349 0.929 . S
H1362 C1350 0.960 . S
H1363 C1350 0.962 . S
H1364 C1350 0.960 . S
H1365 C1351 0.961 . S
H1366 C1351 0.961 . S
H1367 C1351 0.961 . S
H1368 C1352 0.931 . S
H1369 C1357 0.930 . S
H1370 C1358 0.956 . S
H1371 C1358 0.961 . S
H1372 C1358 0.961 . S
H1373 C1359 0.958 . S
H1374 C1359 0.961 . S
H1375 C1359 0.960 . S
C1376 C1377 1.391 . S
C1376 C1378 1.394 . S
C1376 H1392 0.931 . S
C1377 C1376 1.391 . S
C1377 C1381 1.376 . S
C1378 C1376 1.394 . S
C1378 C1379 1.369 . S
C1378 C1382 1.531 . S
C1379 C1378 1.369 . S
C1379 C1380 1.410 . S
C1379 C1387 1.503 . S
C1380 C1379 1.410 . S
C1380 C1381 1.392 . S
C1380 C1383 1.511 . S
C1381 C1377 1.376 . S
C1381 C1380 1.392 . S
C1381 H1393 0.929 . S
C1382 C1378 1.531 . S
C1382 H1394 0.960 . S
C1382 H1395 0.962 . S
C1382 H1396 0.960 . S
C1383 C1380 1.511 . S
C1383 H1397 0.961 . S
C1383 H1398 0.961 . S
C1383 H1399 0.961 . S
C1384 C1385 1.370 . S
C1384 C1386 1.363 . S
C1384 H1400 0.931 . S
C1385 C1384 1.370 . S
C1385 C1389 1.408 . S
C1386 C1384 1.363 . S
C1386 C1387 1.370 . S
C1386 C1390 1.524 . S
C1387 C1379 1.503 . S
C1387 C1386 1.370 . S
C1387 C1388 1.403 . S
C1388 C1387 1.403 . S
C1388 C1389 1.404 . S
C1388 C1391 1.539 . S
C1389 C1385 1.408 . S
C1389 C1388 1.404 . S
C1389 H1401 0.930 . S
C1390 C1386 1.524 . S
C1390 H1402 0.956 . S
C1390 H1403 0.961 . S
C1390 H1404 0.961 . S
C1391 C1388 1.539 . S
C1391 H1405 0.958 . S
C1391 H1406 0.961 . S
C1391 H1407 0.960 . S
H1392 C1376 0.931 . S
H1393 C1381 0.929 . S
H1394 C1382 0.960 . S
H1395 C1382 0.962 . S
H1396 C1382 0.960 . S
H1397 C1383 0.961 . S
H1398 C1383 0.961 . S
H1399 C1383 0.961 . S
H1400 C1384 0.931 . S
H1401 C1389 0.930 . S
H1402 C1390 0.956 . S
H1403 C1390 0.961 . S
H1404 C1390 0.961 . S
H1405 C1391 0.958 . S
H1406 C1391 0.961 . S
H1407 C1391 0.960 . S
C1408 C1409 1.391 . S
C1408 C1410 1.394 . S
C1408 H1424 0.931 . S
C1409 C1408 1.391 . S
C1409 C1413 1.376 . S
C1410 C1408 1.394 . S
C1410 C1411 1.369 . S
C1410 C1414 1.531 . S
C1411 C1410 1.369 . S
C1411 C1412 1.410 . S
C1411 C1419 1.503 . S
C1412 C1411 1.410 . S
C1412 C1413 1.392 . S
C1412 C1415 1.511 . S
C1413 C1409 1.376 . S
C1413 C1412 1.392 . S
C1413 H1425 0.929 . S
C1414 C1410 1.531 . S
C1414 H1426 0.960 . S
C1414 H1427 0.962 . S
C1414 H1428 0.960 . S
C1415 C1412 1.511 . S
C1415 H1429 0.961 . S
C1415 H1430 0.961 . S
C1415 H1431 0.961 . S
C1416 C1417 1.370 . S
C1416 C1418 1.363 . S
C1416 H1432 0.931 . S
C1417 C1416 1.370 . S
C1417 C1421 1.408 . S
C1418 C1416 1.363 . S
C1418 C1419 1.370 . S
C1418 C1422 1.524 . S
C1419 C1411 1.503 . S
C1419 C1418 1.370 . S
C1419 C1420 1.403 . S
C1420 C1419 1.403 . S
C1420 C1421 1.404 . S
C1420 C1423 1.539 . S
C1421 C1417 1.408 . S
C1421 C1420 1.404 . S
C1421 H1433 0.930 . S
C1422 C1418 1.524 . S
C1422 H1434 0.956 . S
C1422 H1435 0.961 . S
C1422 H1436 0.961 . S
C1423 C1420 1.539 . S
C1423 H1437 0.958 . S
C1423 H1438 0.961 . S
C1423 H1439 0.960 . S
H1424 C1408 0.931 . S
H1425 C1413 0.929 . S
H1426 C1414 0.960 . S
H1427 C1414 0.962 . S
H1428 C1414 0.960 . S
H1429 C1415 0.961 . S
H1430 C1415 0.961 . S
H1431 C1415 0.961 . S
H1432 C1416 0.931 . S
H1433 C1421 0.930 . S
H1434 C1422 0.956 . S
H1435 C1422 0.961 . S
H1436 C1422 0.961 . S
H1437 C1423 0.958 . S
H1438 C1423 0.961 . S
H1439 C1423 0.960 . S
C1440 C1441 1.391 . S
C1440 C1442 1.394 . S
C1440 H1456 0.931 . S
C1441 C1440 1.391 . S
C1441 C1445 1.376 . S
C1442 C1440 1.394 . S
C1442 C1443 1.369 . S
C1442 C1446 1.531 . S
C1443 C1442 1.369 . S
C1443 C1444 1.410 . S
C1443 C1451 1.503 . S
C1444 C1443 1.410 . S
C1444 C1445 1.392 . S
C1444 C1447 1.511 . S
C1445 C1441 1.376 . S
C1445 C1444 1.392 . S
C1445 H1457 0.929 . S
C1446 C1442 1.531 . S
C1446 H1458 0.960 . S
C1446 H1459 0.962 . S
C1446 H1460 0.960 . S
C1447 C1444 1.511 . S
C1447 H1461 0.961 . S
C1447 H1462 0.961 . S
C1447 H1463 0.961 . S
C1448 C1449 1.370 . S
C1448 C1450 1.363 . S
C1448 H1464 0.931 . S
C1449 C1448 1.370 . S
C1449 C1453 1.408 . S
C1450 C1448 1.363 . S
C1450 C1451 1.370 . S
C1450 C1454 1.524 . S
C1451 C1443 1.503 . S
C1451 C1450 1.370 . S
C1451 C1452 1.403 . S
C1452 C1451 1.403 . S
C1452 C1453 1.404 . S
C1452 C1455 1.539 . S
C1453 C1449 1.408 . S
C1453 C1452 1.404 . S
C1453 H1465 0.930 . S
C1454 C1450 1.524 . S
C1454 H1466 0.956 . S
C1454 H1467 0.961 . S
C1454 H1468 0.961 . S
C1455 C1452 1.539 . S
C1455 H1469 0.958 . S
C1455 H1470 0.961 . S
C1455 H1471 0.960 . S
H1456 C1440 0.931 . S
H1457 C1445 0.929 . S
H1458 C1446 0.960 . S
H1459 C1446 0.962 . S
H1460 C1446 0.960 . S
H1461 C1447 0.961 . S
H1462 C1447 0.961 . S
H1463 C1447 0.961 . S
H1464 C1448 0.931 . S
H1465 C1453 0.930 . S
H1466 C1454 0.956 . S
H1467 C1454 0.961 . S
H1468 C1454 0.961 . S
H1469 C1455 0.958 . S
H1470 C1455 0.961 . S
H1471 C1455 0.960 . S
C1472 C1473 1.391 . S
C1472 C1474 1.394 . S
C1472 H1488 0.931 . S
C1473 C1472 1.391 . S
C1473 C1477 1.376 . S
C1474 C1472 1.394 . S
C1474 C1475 1.369 . S
C1474 C1478 1.531 . S
C1475 C1474 1.369 . S
C1475 C1476 1.410 . S
C1475 C1483 1.503 . S
C1476 C1475 1.410 . S
C1476 C1477 1.392 . S
C1476 C1479 1.511 . S
C1477 C1473 1.376 . S
C1477 C1476 1.392 . S
C1477 H1489 0.929 . S
C1478 C1474 1.531 . S
C1478 H1490 0.960 . S
C1478 H1491 0.962 . S
C1478 H1492 0.960 . S
C1479 C1476 1.511 . S
C1479 H1493 0.961 . S
C1479 H1494 0.961 . S
C1479 H1495 0.961 . S
C1480 C1481 1.370 . S
C1480 C1482 1.363 . S
C1480 H1496 0.931 . S
C1481 C1480 1.370 . S
C1481 C1485 1.408 . S
C1482 C1480 1.363 . S
C1482 C1483 1.370 . S
C1482 C1486 1.524 . S
C1483 C1475 1.503 . S
C1483 C1482 1.370 . S
C1483 C1484 1.403 . S
C1484 C1483 1.403 . S
C1484 C1485 1.404 . S
C1484 C1487 1.539 . S
C1485 C1481 1.408 . S
C1485 C1484 1.404 . S
C1485 H1497 0.930 . S
C1486 C1482 1.524 . S
C1486 H1498 0.956 . S
C1486 H1499 0.961 . S
C1486 H1500 0.961 . S
C1487 C1484 1.539 . S
C1487 H1501 0.958 . S
C1487 H1502 0.961 . S
C1487 H1503 0.960 . S
H1488 C1472 0.931 . S
H1489 C1477 0.929 . S
H1490 C1478 0.960 . S
H1491 C1478 0.962 . S
H1492 C1478 0.960 . S
H1493 C1479 0.961 . S
H1494 C1479 0.961 . S
H1495 C1479 0.961 . S
H1496 C1480 0.931 . S
H1497 C1485 0.930 . S
H1498 C1486 0.956 . S
H1499 C1486 0.961 . S
H1500 C1486 0.961 . S
H1501 C1487 0.958 . S
H1502 C1487 0.961 . S
H1503 C1487 0.960 . S
C1504 C1505 1.391 . S
C1504 C1506 1.394 . S
C1504 H1520 0.931 . S
C1505 C1504 1.391 . S
C1505 C1509 1.376 1_556 S
C1506 C1504 1.394 . S
C1506 C1507 1.369 . S
C1506 C1510 1.531 . S
C1507 C1506 1.369 . S
C1507 C1508 1.410 1_556 S
C1507 C1515 1.503 . S
C1508 C1507 1.410 1_554 S
C1508 C1509 1.392 . S
C1508 C1511 1.511 . S
C1509 C1505 1.376 1_554 S
C1509 C1508 1.392 . S
C1509 H1521 0.929 . S
C1510 C1506 1.531 . S
C1510 H1522 0.960 . S
C1510 H1523 0.962 . S
C1510 H1524 0.960 . S
C1511 C1508 1.511 . S
C1511 H1525 0.961 . S
C1511 H1526 0.961 . S
C1511 H1527 0.961 . S
C1512 C1513 1.370 . S
C1512 C1514 1.363 . S
C1512 H1528 0.931 . S
C1513 C1512 1.370 . S
C1513 C1517 1.408 1_556 S
C1514 C1512 1.363 . S
C1514 C1515 1.370 . S
C1514 C1518 1.524 . S
C1515 C1507 1.503 . S
C1515 C1514 1.370 . S
C1515 C1516 1.403 1_556 S
C1516 C1515 1.403 1_554 S
C1516 C1517 1.404 . S
C1516 C1519 1.539 . S
C1517 C1513 1.408 1_554 S
C1517 C1516 1.404 . S
C1517 H1529 0.930 . S
C1518 C1514 1.524 . S
C1518 H1530 0.956 . S
C1518 H1531 0.961 . S
C1518 H1532 0.961 . S
C1519 C1516 1.539 . S
C1519 H1533 0.958 . S
C1519 H1534 0.961 . S
C1519 H1535 0.960 . S
H1520 C1504 0.931 . S
H1521 C1509 0.929 . S
H1522 C1510 0.960 . S
H1523 C1510 0.962 . S
H1524 C1510 0.960 . S
H1525 C1511 0.961 . S
H1526 C1511 0.961 . S
H1527 C1511 0.961 . S
H1528 C1512 0.931 . S
H1529 C1517 0.930 . S
H1530 C1518 0.956 . S
H1531 C1518 0.961 . S
H1532 C1518 0.961 . S
H1533 C1519 0.958 . S
H1534 C1519 0.961 . S
H1535 C1519 0.960 . S
C1536 C1537 1.391 . S
C1536 C1538 1.394 . S
C1536 H1552 0.931 . S
C1537 C1536 1.391 . S
C1537 C1541 1.376 . S
C1538 C1536 1.394 . S
C1538 C1539 1.369 . S
C1538 C1542 1.531 . S
C1539 C1538 1.369 . S
C1539 C1540 1.410 . S
C1539 C1547 1.503 . S
C1540 C1539 1.410 . S
C1540 C1541 1.392 . S
C1540 C1543 1.511 . S
C1541 C1537 1.376 . S
C1541 C1540 1.392 . S
C1541 H1553 0.929 . S
C1542 C1538 1.531 . S
C1542 H1554 0.960 . S
C1542 H1555 0.962 . S
C1542 H1556 0.960 . S
C1543 C1540 1.511 . S
C1543 H1557 0.961 . S
C1543 H1558 0.961 . S
C1543 H1559 0.961 . S
C1544 C1545 1.370 . S
C1544 C1546 1.363 . S
C1544 H1560 0.931 . S
C1545 C1544 1.370 . S
C1545 C1549 1.408 . S
C1546 C1544 1.363 . S
C1546 C1547 1.370 . S
C1546 C1550 1.524 . S
C1547 C1539 1.503 . S
C1547 C1546 1.370 . S
C1547 C1548 1.403 . S
C1548 C1547 1.403 . S
C1548 C1549 1.404 . S
C1548 C1551 1.539 . S
C1549 C1545 1.408 . S
C1549 C1548 1.404 . S
C1549 H1561 0.930 . S
C1550 C1546 1.524 . S
C1550 H1562 0.956 . S
C1550 H1563 0.961 . S
C1550 H1564 0.961 . S
C1551 C1548 1.539 . S
C1551 H1565 0.958 . S
C1551 H1566 0.961 . S
C1551 H1567 0.960 . S
H1552 C1536 0.931 . S
H1553 C1541 0.929 . S
H1554 C1542 0.960 . S
H1555 C1542 0.962 . S
H1556 C1542 0.960 . S
H1557 C1543 0.961 . S
H1558 C1543 0.961 . S
H1559 C1543 0.961 . S
H1560 C1544 0.931 . S
H1561 C1549 0.930 . S
H1562 C1550 0.956 . S
H1563 C1550 0.961 . S
H1564 C1550 0.961 . S
H1565 C1551 0.958 . S
H1566 C1551 0.961 . S
H1567 C1551 0.960 . S
C1568 C1569 1.391 . S
C1568 C1570 1.394 . S
C1568 H1584 0.931 . S
C1569 C1568 1.391 . S
C1569 C1573 1.376 . S
C1570 C1568 1.394 . S
C1570 C1571 1.369 . S
C1570 C1574 1.531 . S
C1571 C1570 1.369 . S
C1571 C1572 1.410 . S
C1571 C1579 1.503 . S
C1572 C1571 1.410 . S
C1572 C1573 1.392 . S
C1572 C1575 1.511 . S
C1573 C1569 1.376 . S
C1573 C1572 1.392 . S
C1573 H1585 0.929 . S
C1574 C1570 1.531 . S
C1574 H1586 0.960 . S
C1574 H1587 0.962 . S
C1574 H1588 0.960 . S
C1575 C1572 1.511 . S
C1575 H1589 0.961 . S
C1575 H1590 0.961 . S
C1575 H1591 0.961 . S
C1576 C1577 1.370 . S
C1576 C1578 1.363 . S
C1576 H1592 0.931 . S
C1577 C1576 1.370 . S
C1577 C1581 1.408 . S
C1578 C1576 1.363 . S
C1578 C1579 1.370 . S
C1578 C1582 1.524 . S
C1579 C1571 1.503 . S
C1579 C1578 1.370 . S
C1579 C1580 1.403 . S
C1580 C1579 1.403 . S
C1580 C1581 1.404 . S
C1580 C1583 1.539 . S
C1581 C1577 1.408 . S
C1581 C1580 1.404 . S
C1581 H1593 0.930 . S
C1582 C1578 1.524 . S
C1582 H1594 0.956 . S
C1582 H1595 0.961 . S
C1582 H1596 0.961 . S
C1583 C1580 1.539 . S
C1583 H1597 0.958 . S
C1583 H1598 0.961 . S
C1583 H1599 0.960 . S
H1584 C1568 0.931 . S
H1585 C1573 0.929 . S
H1586 C1574 0.960 . S
H1587 C1574 0.962 . S
H1588 C1574 0.960 . S
H1589 C1575 0.961 . S
H1590 C1575 0.961 . S
H1591 C1575 0.961 . S
H1592 C1576 0.931 . S
H1593 C1581 0.930 . S
H1594 C1582 0.956 . S
H1595 C1582 0.961 . S
H1596 C1582 0.961 . S
H1597 C1583 0.958 . S
H1598 C1583 0.961 . S
H1599 C1583 0.960 . S
C1600 C1601 1.391 . S
C1600 C1602 1.394 . S
C1600 H1616 0.931 . S
C1601 C1600 1.391 . S
C1601 C1605 1.376 . S
C1602 C1600 1.394 . S
C1602 C1603 1.369 . S
C1602 C1606 1.531 . S
C1603 C1602 1.369 . S
C1603 C1604 1.410 . S
C1603 C1611 1.503 . S
C1604 C1603 1.410 . S
C1604 C1605 1.392 . S
C1604 C1607 1.511 . S
C1605 C1601 1.376 . S
C1605 C1604 1.392 . S
C1605 H1617 0.929 . S
C1606 C1602 1.531 . S
C1606 H1618 0.960 . S
C1606 H1619 0.962 . S
C1606 H1620 0.960 . S
C1607 C1604 1.511 . S
C1607 H1621 0.961 . S
C1607 H1622 0.961 . S
C1607 H1623 0.961 . S
C1608 C1609 1.370 . S
C1608 C1610 1.363 . S
C1608 H1624 0.931 . S
C1609 C1608 1.370 . S
C1609 C1613 1.408 . S
C1610 C1608 1.363 . S
C1610 C1611 1.370 . S
C1610 C1614 1.524 . S
C1611 C1603 1.503 . S
C1611 C1610 1.370 . S
C1611 C1612 1.403 . S
C1612 C1611 1.403 . S
C1612 C1613 1.404 . S
C1612 C1615 1.539 . S
C1613 C1609 1.408 . S
C1613 C1612 1.404 . S
C1613 H1625 0.930 . S
C1614 C1610 1.524 . S
C1614 H1626 0.956 . S
C1614 H1627 0.961 . S
C1614 H1628 0.961 . S
C1615 C1612 1.539 . S
C1615 H1629 0.958 . S
C1615 H1630 0.961 . S
C1615 H1631 0.960 . S
H1616 C1600 0.931 . S
H1617 C1605 0.929 . S
H1618 C1606 0.960 . S
H1619 C1606 0.962 . S
H1620 C1606 0.960 . S
H1621 C1607 0.961 . S
H1622 C1607 0.961 . S
H1623 C1607 0.961 . S
H1624 C1608 0.931 . S
H1625 C1613 0.930 . S
H1626 C1614 0.956 . S
H1627 C1614 0.961 . S
H1628 C1614 0.961 . S
H1629 C1615 0.958 . S
H1630 C1615 0.961 . S
H1631 C1615 0.960 . S
C1632 C1633 1.391 . S
C1632 C1634 1.394 . S
C1632 H1648 0.931 . S
C1633 C1632 1.391 . S
C1633 C1637 1.376 . S
C1634 C1632 1.394 . S
C1634 C1635 1.369 . S
C1634 C1638 1.531 . S
C1635 C1634 1.369 . S
C1635 C1636 1.410 . S
C1635 C1643 1.503 . S
C1636 C1635 1.410 . S
C1636 C1637 1.392 . S
C1636 C1639 1.511 . S
C1637 C1633 1.376 . S
C1637 C1636 1.392 . S
C1637 H1649 0.929 . S
C1638 C1634 1.531 . S
C1638 H1650 0.960 . S
C1638 H1651 0.962 . S
C1638 H1652 0.960 . S
C1639 C1636 1.511 . S
C1639 H1653 0.961 . S
C1639 H1654 0.961 . S
C1639 H1655 0.961 . S
C1640 C1641 1.370 . S
C1640 C1642 1.363 . S
C1640 H1656 0.931 . S
C1641 C1640 1.370 . S
C1641 C1645 1.408 . S
C1642 C1640 1.363 . S
C1642 C1643 1.370 . S
C1642 C1646 1.524 . S
C1643 C1635 1.503 . S
C1643 C1642 1.370 . S
C1643 C1644 1.403 . S
C1644 C1643 1.403 . S
C1644 C1645 1.404 . S
C1644 C1647 1.539 . S
C1645 C1641 1.408 . S
C1645 C1644 1.404 . S
C1645 H1657 0.930 . S
C1646 C1642 1.524 . S
C1646 H1658 0.956 . S
C1646 H1659 0.961 . S
C1646 H1660 0.961 . S
C1647 C1644 1.539 . S
C1647 H1661 0.958 . S
C1647 H1662 0.961 . S
C1647 H1663 0.960 . S
H1648 C1632 0.931 . S
H1649 C1637 0.929 . S
H1650 C1638 0.960 . S
H1651 C1638 0.962 . S
H1652 C1638 0.960 . S
H1653 C1639 0.961 . S
H1654 C1639 0.961 . S
H1655 C1639 0.961 . S
H1656 C1640 0.931 . S
H1657 C1645 0.930 . S
H1658 C1646 0.956 . S
H1659 C1646 0.961 . S
H1660 C1646 0.961 . S
H1661 C1647 0.958 . S
H1662 C1647 0.961 . S
H1663 C1647 0.960 . S
C1664 C1665 1.391 . S
C1664 C1666 1.394 . S
C1664 H1680 0.931 . S
C1665 C1664 1.391 . S
C1665 C1669 1.376 1_554 S
C1666 C1664 1.394 . S
C1666 C1667 1.369 . S
C1666 C1670 1.531 . S
C1667 C1666 1.369 . S
C1667 C1668 1.410 1_554 S
C1667 C1675 1.503 . S
C1668 C1667 1.410 1_556 S
C1668 C1669 1.392 . S
C1668 C1671 1.511 . S
C1669 C1665 1.376 1_556 S
C1669 C1668 1.392 . S
C1669 H1681 0.929 . S
C1670 C1666 1.531 . S
C1670 H1682 0.960 . S
C1670 H1683 0.962 . S
C1670 H1684 0.960 . S
C1671 C1668 1.511 . S
C1671 H1685 0.961 . S
C1671 H1686 0.961 . S
C1671 H1687 0.961 . S
C1672 C1673 1.370 . S
C1672 C1674 1.363 . S
C1672 H1688 0.931 . S
C1673 C1672 1.370 . S
C1673 C1677 1.408 1_554 S
C1674 C1672 1.363 . S
C1674 C1675 1.370 . S
C1674 C1678 1.524 . S
C1675 C1667 1.503 . S
C1675 C1674 1.370 . S
C1675 C1676 1.403 1_554 S
C1676 C1675 1.403 1_556 S
C1676 C1677 1.404 . S
C1676 C1679 1.539 . S
C1677 C1673 1.408 1_556 S
C1677 C1676 1.404 . S
C1677 H1689 0.930 . S
C1678 C1674 1.524 . S
C1678 H1690 0.956 . S
C1678 H1691 0.961 . S
C1678 H1692 0.961 . S
C1679 C1676 1.539 . S
C1679 H1693 0.958 . S
C1679 H1694 0.961 . S
C1679 H1695 0.960 . S
H1680 C1664 0.931 . S
H1681 C1669 0.929 . S
H1682 C1670 0.960 . S
H1683 C1670 0.962 . S
H1684 C1670 0.960 . S
H1685 C1671 0.961 . S
H1686 C1671 0.961 . S
H1687 C1671 0.961 . S
H1688 C1672 0.931 . S
H1689 C1677 0.930 . S
H1690 C1678 0.956 . S
H1691 C1678 0.961 . S
H1692 C1678 0.961 . S
H1693 C1679 0.958 . S
H1694 C1679 0.961 . S
H1695 C1679 0.960 . S
C1696 C1697 1.391 . S
C1696 C1698 1.394 . S
C1696 H1712 0.931 . S
C1697 C1696 1.391 . S
C1697 C1701 1.376 . S
C1698 C1696 1.394 . S
C1698 C1699 1.369 . S
C1698 C1702 1.531 . S
C1699 C1698 1.369 . S
C1699 C1700 1.410 . S
C1699 C1707 1.503 . S
C1700 C1699 1.410 . S
C1700 C1701 1.392 . S
C1700 C1703 1.511 . S
C1701 C1697 1.376 . S
C1701 C1700 1.392 . S
C1701 H1713 0.929 . S
C1702 C1698 1.531 . S
C1702 H1714 0.960 . S
C1702 H1715 0.962 . S
C1702 H1716 0.960 . S
C1703 C1700 1.511 . S
C1703 H1717 0.961 . S
C1703 H1718 0.961 . S
C1703 H1719 0.961 . S
C1704 C1705 1.370 . S
C1704 C1706 1.363 . S
C1704 H1720 0.931 . S
C1705 C1704 1.370 . S
C1705 C1709 1.408 . S
C1706 C1704 1.363 . S
C1706 C1707 1.370 . S
C1706 C1710 1.524 . S
C1707 C1699 1.503 . S
C1707 C1706 1.370 . S
C1707 C1708 1.403 . S
C1708 C1707 1.403 . S
C1708 C1709 1.404 . S
C1708 C1711 1.539 . S
C1709 C1705 1.408 . S
C1709 C1708 1.404 . S
C1709 H1721 0.930 . S
C1710 C1706 1.524 . S
C1710 H1722 0.956 . S
C1710 H1723 0.961 . S
C1710 H1724 0.961 . S
C1711 C1708 1.539 . S
C1711 H1725 0.958 . S
C1711 H1726 0.961 . S
C1711 H1727 0.960 . S
H1712 C1696 0.931 . S
H1713 C1701 0.929 . S
H1714 C1702 0.960 . S
H1715 C1702 0.962 . S
H1716 C1702 0.960 . S
H1717 C1703 0.961 . S
H1718 C1703 0.961 . S
H1719 C1703 0.961 . S
H1720 C1704 0.931 . S
H1721 C1709 0.930 . S
H1722 C1710 0.956 . S
H1723 C1710 0.961 . S
H1724 C1710 0.961 . S
H1725 C1711 0.958 . S
H1726 C1711 0.961 . S
H1727 C1711 0.960 . S
C1728 C1729 1.391 . S
C1728 C1730 1.394 . S
C1728 H1744 0.931 . S
C1729 C1728 1.391 . S
C1729 C1733 1.376 . S
C1730 C1728 1.394 . S
C1730 C1731 1.369 . S
C1730 C1734 1.531 . S
C1731 C1730 1.369 . S
C1731 C1732 1.410 . S
C1731 C1739 1.503 . S
C1732 C1731 1.410 . S
C1732 C1733 1.392 . S
C1732 C1735 1.511 . S
C1733 C1729 1.376 . S
C1733 C1732 1.392 . S
C1733 H1745 0.929 . S
C1734 C1730 1.531 . S
C1734 H1746 0.960 . S
C1734 H1747 0.962 . S
C1734 H1748 0.960 . S
C1735 C1732 1.511 . S
C1735 H1749 0.961 . S
C1735 H1750 0.961 . S
C1735 H1751 0.961 . S
C1736 C1737 1.370 . S
C1736 C1738 1.363 . S
C1736 H1752 0.931 . S
C1737 C1736 1.370 . S
C1737 C1741 1.408 . S
C1738 C1736 1.363 . S
C1738 C1739 1.370 . S
C1738 C1742 1.524 . S
C1739 C1731 1.503 . S
C1739 C1738 1.370 . S
C1739 C1740 1.403 . S
C1740 C1739 1.403 . S
C1740 C1741 1.404 . S
C1740 C1743 1.539 . S
C1741 C1737 1.408 . S
C1741 C1740 1.404 . S
C1741 H1753 0.930 . S
C1742 C1738 1.524 . S
C1742 H1754 0.956 . S
C1742 H1755 0.961 . S
C1742 H1756 0.961 . S
C1743 C1740 1.539 . S
C1743 H1757 0.958 . S
C1743 H1758 0.961 . S
C1743 H1759 0.960 . S
H1744 C1728 0.931 . S
H1745 C1733 0.929 . S
H1746 C1734 0.960 . S
H1747 C1734 0.962 . S
H1748 C1734 0.960 . S
H1749 C1735 0.961 . S
H1750 C1735 0.961 . S
H1751 C1735 0.961 . S
H1752 C1736 0.931 . S
H1753 C1741 0.930 . S
H1754 C1742 0.956 . S
H1755 C1742 0.961 . S
H1756 C1742 0.961 . S
H1757 C1743 0.958 . S
H1758 C1743 0.961 . S
H1759 C1743 0.960 . S
C1760 C1761 1.391 . S
C1760 C1762 1.394 . S
C1760 H1776 0.931 . S
C1761 C1760 1.391 . S
C1761 C1765 1.376 . S
C1762 C1760 1.394 . S
C1762 C1763 1.369 . S
C1762 C1766 1.531 . S
C1763 C1762 1.369 . S
C1763 C1764 1.410 . S
C1763 C1771 1.503 . S
C1764 C1763 1.410 . S
C1764 C1765 1.392 . S
C1764 C1767 1.511 . S
C1765 C1761 1.376 . S
C1765 C1764 1.392 . S
C1765 H1777 0.929 . S
C1766 C1762 1.531 . S
C1766 H1778 0.960 . S
C1766 H1779 0.962 . S
C1766 H1780 0.960 . S
C1767 C1764 1.511 . S
C1767 H1781 0.961 . S
C1767 H1782 0.961 . S
C1767 H1783 0.961 . S
C1768 C1769 1.370 . S
C1768 C1770 1.363 . S
C1768 H1784 0.931 . S
C1769 C1768 1.370 . S
C1769 C1773 1.408 . S
C1770 C1768 1.363 . S
C1770 C1771 1.370 . S
C1770 C1774 1.524 . S
C1771 C1763 1.503 . S
C1771 C1770 1.370 . S
C1771 C1772 1.403 . S
C1772 C1771 1.403 . S
C1772 C1773 1.404 . S
C1772 C1775 1.539 . S
C1773 C1769 1.408 . S
C1773 C1772 1.404 . S
C1773 H1785 0.930 . S
C1774 C1770 1.524 . S
C1774 H1786 0.956 . S
C1774 H1787 0.961 . S
C1774 H1788 0.961 . S
C1775 C1772 1.539 . S
C1775 H1789 0.958 . S
C1775 H1790 0.961 . S
C1775 H1791 0.960 . S
H1776 C1760 0.931 . S
H1777 C1765 0.929 . S
H1778 C1766 0.960 . S
H1779 C1766 0.962 . S
H1780 C1766 0.960 . S
H1781 C1767 0.961 . S
H1782 C1767 0.961 . S
H1783 C1767 0.961 . S
H1784 C1768 0.931 . S
H1785 C1773 0.930 . S
H1786 C1774 0.956 . S
H1787 C1774 0.961 . S
H1788 C1774 0.961 . S
H1789 C1775 0.958 . S
H1790 C1775 0.961 . S
H1791 C1775 0.960 . S
C1792 C1793 1.391 . S
C1792 C1794 1.394 . S
C1792 H1808 0.931 . S
C1793 C1792 1.391 . S
C1793 C1797 1.376 . S
C1794 C1792 1.394 . S
C1794 C1795 1.369 . S
C1794 C1798 1.531 . S
C1795 C1794 1.369 . S
C1795 C1796 1.410 . S
C1795 C1803 1.503 . S
C1796 C1795 1.410 . S
C1796 C1797 1.392 . S
C1796 C1799 1.511 . S
C1797 C1793 1.376 . S
C1797 C1796 1.392 . S
C1797 H1809 0.929 . S
C1798 C1794 1.531 . S
C1798 H1810 0.960 . S
C1798 H1811 0.962 . S
C1798 H1812 0.960 . S
C1799 C1796 1.511 . S
C1799 H1813 0.961 . S
C1799 H1814 0.961 . S
C1799 H1815 0.961 . S
C1800 C1801 1.370 . S
C1800 C1802 1.363 . S
C1800 H1816 0.931 . S
C1801 C1800 1.370 . S
C1801 C1805 1.408 . S
C1802 C1800 1.363 . S
C1802 C1803 1.370 . S
C1802 C1806 1.524 . S
C1803 C1795 1.503 . S
C1803 C1802 1.370 . S
C1803 C1804 1.403 . S
C1804 C1803 1.403 . S
C1804 C1805 1.404 . S
C1804 C1807 1.539 . S
C1805 C1801 1.408 . S
C1805 C1804 1.404 . S
C1805 H1817 0.930 . S
C1806 C1802 1.524 . S
C1806 H1818 0.956 . S
C1806 H1819 0.961 . S
C1806 H1820 0.961 . S
C1807 C1804 1.539 . S
C1807 H1821 0.958 . S
C1807 H1822 0.961 . S
C1807 H1823 0.960 . S
H1808 C1792 0.931 . S
H1809 C1797 0.929 . S
H1810 C1798 0.960 . S
H1811 C1798 0.962 . S
H1812 C1798 0.960 . S
H1813 C1799 0.961 . S
H1814 C1799 0.961 . S
H1815 C1799 0.961 . S
H1816 C1800 0.931 . S
H1817 C1805 0.930 . S
H1818 C1806 0.956 . S
H1819 C1806 0.961 . S
H1820 C1806 0.961 . S
H1821 C1807 0.958 . S
H1822 C1807 0.961 . S
H1823 C1807 0.960 . S
C1824 C1825 1.391 . S
C1824 C1826 1.394 . S
C1824 H1840 0.931 . S
C1825 C1824 1.391 . S
C1825 C1829 1.376 . S
C1826 C1824 1.394 . S
C1826 C1827 1.369 . S
C1826 C1830 1.531 . S
C1827 C1826 1.369 . S
C1827 C1828 1.410 . S
C1827 C1835 1.503 . S
C1828 C1827 1.410 . S
C1828 C1829 1.392 . S
C1828 C1831 1.511 . S
C1829 C1825 1.376 . S
C1829 C1828 1.392 . S
C1829 H1841 0.929 . S
C1830 C1826 1.531 . S
C1830 H1842 0.960 . S
C1830 H1843 0.962 . S
C1830 H1844 0.960 . S
C1831 C1828 1.511 . S
C1831 H1845 0.961 . S
C1831 H1846 0.961 . S
C1831 H1847 0.961 . S
C1832 C1833 1.370 . S
C1832 C1834 1.363 . S
C1832 H1848 0.931 . S
C1833 C1832 1.370 . S
C1833 C1837 1.408 . S
C1834 C1832 1.363 . S
C1834 C1835 1.370 . S
C1834 C1838 1.524 . S
C1835 C1827 1.503 . S
C1835 C1834 1.370 . S
C1835 C1836 1.403 . S
C1836 C1835 1.403 . S
C1836 C1837 1.404 . S
C1836 C1839 1.539 . S
C1837 C1833 1.408 . S
C1837 C1836 1.404 . S
C1837 H1849 0.930 . S
C1838 C1834 1.524 . S
C1838 H1850 0.956 . S
C1838 H1851 0.961 . S
C1838 H1852 0.961 . S
C1839 C1836 1.539 . S
C1839 H1853 0.958 . S
C1839 H1854 0.961 . S
C1839 H1855 0.960 . S
H1840 C1824 0.931 . S
H1841 C1829 0.929 . S
H1842 C1830 0.960 . S
H1843 C1830 0.962 . S
H1844 C1830 0.960 . S
H1845 C1831 0.961 . S
H1846 C1831 0.961 . S
H1847 C1831 0.961 . S
H1848 C1832 0.931 . S
H1849 C1837 0.930 . S
H1850 C1838 0.956 . S
H1851 C1838 0.961 . S
H1852 C1838 0.961 . S
H1853 C1839 0.958 . S
H1854 C1839 0.961 . S
H1855 C1839 0.960 . S
C321 C17 1.704 1_455 S
C329 C34 1.776 . S
C353 C53 1.641 . S
C361 C25 1.582 . S
C385 C65 1.772 . S
C393 C57 1.752 . S
C417 C13 1.638 . S
C425 C74 1.583 1_565 S
C449 C2 2.011 . S
C457 C188 1.793 . S
C481 C145 1.721 . S
C489 C28 1.649 . S
C513 C42 2.005 . S
C521 C217 1.800 . S
C545 C77 1.604 . S
C553 C265 1.746 . S
C577 C162 2.013 . S
C585 C37 1.789 . S
C609 C257 1.597 . S
C617 C45 1.744 . S
C641 C282 2.006 . S
C649 C68 1.801 . S
C673 C5 1.722 . S
C681 C228 1.627 . S
C705 C14 1.351 . S
C713 C174 1.344 . S
C737 C253 1.928 . S
C745 C82 1.924 . S
C769 C108 1.498 . S
C777 C288 1.490 . S
C801 C222 1.933 . S
C809 C133 1.924 . S
C833 C48 1.538 . S
C841 C148 1.519 . S
C865 C182 2.320 . S
C873 C93 2.324 . S
C897 C122 2.320 . S
C905 C213 2.324 . S
C929 C102 2.009 . S
C937 C237 1.796 . S
C961 C197 1.669 . S
C969 C105 1.742 . S
C993 C234 1.799 . S
C1001 C157 1.736 1_455 S
C1025 C113 1.640 . S
C1033 C85 1.580 . S
C1057 C185 1.783 . S
C1065 C177 1.753 . S
C1089 C273 1.632 . S
C1097 C225 1.600 . S
C1121 C125 1.754 . S
C1129 C117 1.738 . S
C1153 C194 1.559 . S
C1161 C293 1.641 . S
C1185 C268 1.476 . S
C1193 C8 1.506 . S
C1217 C54 1.371 . S
C1225 C294 1.362 . S
C1249 C242 2.321 . S
C1257 C33 2.324 . S
C1281 C154 1.324 . S
C1289 C114 1.355 . S
C1313 C73 1.932 . S
C1321 C202 1.927 . S
C1345 C245 1.756 . S
C1353 C277 1.745 . S
C1377 C153 1.630 . S
C1385 C254 1.598 . S
C1409 C128 1.762 . S
C1417 C142 2.019 . S
C1441 C97 1.821 . S
C1449 C262 2.015 . S
C1473 C248 1.805 . S
C1481 C302 2.017 . S
C1505 C308 1.460 . S
C1513 C168 1.495 . S
C1537 C22 1.929 . S
C1545 C193 1.929 . S
C1569 C165 1.722 . S
C1577 C137 1.627 . S
C1601 C173 1.633 . S
C1609 C205 1.599 . S
C1633 C313 1.638 . S
C1641 C134 1.582 . S
C1665 C274 1.324 . S
C1673 C314 1.357 . S
C1697 C233 2.315 . S
C1705 C62 2.322 . S
C1729 C214 1.756 . S
C1737 C297 1.744 . S
C1761 C208 1.599 . S
C1769 C305 1.745 . S
C1793 C88 1.600 . S
C1801 C285 1.745 . S
C1825 C317 1.763 . S
C1833 C94 1.778 . S
