# Generated by pormake.
# Topology qtz-a, (4)-cn, num edge types: 1
# Building blocks:
#     Node 0, Type 0, BuildingBlock: AZAVOO_clean_sbu_0, # of connection points: 4
#     Node 1, Type 0, BuildingBlock: AZAVOO_clean_sbu_0, # of connection points: 4
#     Node 2, Type 0, BuildingBlock: AZAVOO_clean_sbu_0, # of connection points: 4
#     Node 3, Type 0, BuildingBlock: AZAVOO_clean_sbu_0, # of connection points: 4
#     Node 4, Type 0, BuildingBlock: AZAVOO_clean_sbu_0, # of connection points: 4
#     Node 5, Type 0, BuildingBlock: AZAVOO_clean_sbu_0, # of connection points: 4
#     Node 6, Type 0, BuildingBlock: AZAVOO_clean_sbu_0, # of connection points: 4
#     Node 7, Type 0, BuildingBlock: AZAVOO_clean_sbu_0, # of connection points: 4
#     Node 8, Type 0, BuildingBlock: AZAVOO_clean_sbu_0, # of connection points: 4
#     Node 9, Type 0, BuildingBlock: AZAVOO_clean_sbu_0, # of connection points: 4
#     Node 10, Type 0, BuildingBlock: AZAVOO_clean_sbu_0, # of connection points: 4
#     Node 11, Type 0, BuildingBlock: AZAVOO_clean_sbu_0, # of connection points: 4
#     Edge 12, Type (0, 0), BuildingBlock: EZIPEK_clean_linker_0, # of connection points: 2
#     Edge 13, Type (0, 0), BuildingBlock: EZIPEK_clean_linker_0, # of connection points: 2
#     Edge 14, Type (0, 0), BuildingBlock: EZIPEK_clean_linker_0, # of connection points: 2
#     Edge 15, Type (0, 0), BuildingBlock: EZIPEK_clean_linker_0, # of connection points: 2
#     Edge 16, Type (0, 0), BuildingBlock: EZIPEK_clean_linker_0, # of connection points: 2
#     Edge 17, Type (0, 0), BuildingBlock: EZIPEK_clean_linker_0, # of connection points: 2
#     Edge 18, Type (0, 0), BuildingBlock: EZIPEK_clean_linker_0, # of connection points: 2
#     Edge 19, Type (0, 0), BuildingBlock: EZIPEK_clean_linker_0, # of connection points: 2
#     Edge 20, Type (0, 0), BuildingBlock: EZIPEK_clean_linker_0, # of connection points: 2
#     Edge 21, Type (0, 0), BuildingBlock: EZIPEK_clean_linker_0, # of connection points: 2
#     Edge 22, Type (0, 0), BuildingBlock: EZIPEK_clean_linker_0, # of connection points: 2
#     Edge 23, Type (0, 0), BuildingBlock: EZIPEK_clean_linker_0, # of connection points: 2
#     Edge 24, Type (0, 0), BuildingBlock: EZIPEK_clean_linker_0, # of connection points: 2
#     Edge 25, Type (0, 0), BuildingBlock: EZIPEK_clean_linker_0, # of connection points: 2
#     Edge 26, Type (0, 0), BuildingBlock: EZIPEK_clean_linker_0, # of connection points: 2
#     Edge 27, Type (0, 0), BuildingBlock: EZIPEK_clean_linker_0, # of connection points: 2
#     Edge 28, Type (0, 0), BuildingBlock: EZIPEK_clean_linker_0, # of connection points: 2
#     Edge 29, Type (0, 0), BuildingBlock: EZIPEK_clean_linker_0, # of connection points: 2
#     Edge 30, Type (0, 0), BuildingBlock: EZIPEK_clean_linker_0, # of connection points: 2
#     Edge 31, Type (0, 0), BuildingBlock: EZIPEK_clean_linker_0, # of connection points: 2
#     Edge 32, Type (0, 0), BuildingBlock: EZIPEK_clean_linker_0, # of connection points: 2
#     Edge 33, Type (0, 0), BuildingBlock: EZIPEK_clean_linker_0, # of connection points: 2
#     Edge 34, Type (0, 0), BuildingBlock: EZIPEK_clean_linker_0, # of connection points: 2
#     Edge 35, Type (0, 0), BuildingBlock: EZIPEK_clean_linker_0, # of connection points: 2
# Relax obj value: 0.785
# Max RMSD: 0.301
# Mean RMSD: 0.301
data_MOF--net-qtz-a--node1-AZAVOO_clean_sbu_0--edge1-EZIPEK_clean_linker_0
_symmetry_space_group_name_H-M    P1
_symmetry_Int_Tables_number       1
_symmetry_cell_setting            triclinic
loop_
_symmetry_equiv_pos_as_xyz
'x, y, z'
_cell_length_a     28.063033
_cell_length_b     28.28013
_cell_length_c     37.16095
_cell_angle_alpha  90.082924
_cell_angle_beta   90.362947
_cell_angle_gamma 96.991948
loop_
_atom_site_label
_atom_site_type_symbol
_atom_site_fract_x
_atom_site_fract_y
_atom_site_fract_z
_atom_type_partial_charge
Mg0 Mg 0.45048 0.16255 0.0637 0.0
O1 O 0.50645 0.17567 0.01691 0.0
O2 O 0.49847 0.10927 0.98285 0.0
Mg3 Mg 0.42381 0.07465 -0.00622 0.0
C4 C 0.52086 0.14961 0.99194 0.0
C5 C 0.45008 0.25745 0.10595 0.0
O6 O 0.40361 0.24537 0.102 0.0
O7 O 0.3841 0.1885 0.03506 0.0
O8 O 0.41396 0.15236 0.99155 0.0
O9 O 0.49913 0.11473 0.08839 0.0
O10 O 0.43869 0.08745 0.05244 0.0
C11 C 0.37763 0.16771 0.0049 0.0
C12 C 0.47515 0.07926 0.07172 0.0
O13 O 0.4779 0.23445 0.08792 0.0
Mg14 Mg 0.31832 0.46416 0.46525 0.0
O15 O 0.31968 0.5286 0.42819 0.0
O16 O 0.37703 0.52323 0.3878 0.0
Mg17 Mg 0.4133 0.45716 0.39984 0.0
C18 C 0.34364 0.54459 0.40097 0.0
C19 C 0.23208 0.48694 0.51403 0.0
O20 O 0.18858 0.49742 0.5204 0.0
O21 O 0.28298 0.41108 0.42326 0.0
O22 O 0.34479 0.40684 0.38662 0.0
O23 O 0.37401 0.50655 0.50082 0.0
O24 O 0.39175 0.45938 0.45683 0.0
C25 C 0.30157 0.39329 0.39593 0.0
C26 C 0.4063 0.48939 0.4817 0.0
O27 O 0.24452 0.48076 0.48183 0.0
Mg28 Mg 0.99855 0.324 0.89454 0.0
O29 O 0.95088 0.34296 0.849 0.0
O30 O 0.9865 0.40781 0.82215 0.0
Mg31 Mg 0.05847 0.43059 0.8516 0.0
C32 C 0.95133 0.37509 0.82529 0.0
C33 C 0.91425 0.23771 0.90789 0.0
O34 O 0.90549 0.25894 0.93818 0.0
O35 O 0.05113 0.29451 0.85524 0.0
O36 O 0.08621 0.36306 0.83245 0.0
O37 O 0.96247 0.37563 0.92973 0.0
O38 O 0.03005 0.396 0.90114 0.0
C39 C 0.08175 0.31782 0.83468 0.0
C40 C 0.99597 0.40879 0.92031 0.0
O41 O 0.95051 0.25338 0.88934 0.0
Mg42 Mg 0.49907 0.79584 0.05237 0.0
O43 O 0.45568 0.76139 0.00289 0.0
O44 O 0.46141 0.83719 0.00915 0.0
Mg45 Mg 0.47957 0.91308 -0.00205 0.0
C46 C 0.44536 0.8009 0.99109 0.0
C47 C 0.53641 0.69793 0.08757 0.0
O48 O 0.56084 0.66237 0.08032 0.0
O49 O 0.56585 0.82292 0.0181 0.0
O50 O 0.55612 0.892 0.99013 0.0
O51 O 0.52274 0.85299 0.09459 0.0
O52 O 0.47705 0.8669 0.04827 0.0
C53 C 0.58138 0.85859 -0.00157 0.0
C54 C 0.49932 0.88218 0.07689 0.0
O55 O 0.53055 0.72618 0.06175 0.0
Mg56 Mg 0.6996 0.51115 0.45144 0.0
O57 O 0.69763 0.43329 0.46556 0.0
O58 O 0.70248 0.44486 0.40835 0.0
Mg59 Mg 0.63807 0.47798 0.38525 0.0
C60 C 0.69371 0.41543 0.43414 0.0
C61 C 0.79308 0.532 0.50249 0.0
O62 O 0.83971 0.53716 0.50789 0.0
O63 O 0.70182 0.58466 0.429 0.0
O64 O 0.67486 0.55563 0.3763 0.0
O65 O 0.64626 0.52575 0.49484 0.0
O66 O 0.6205 0.50105 0.4416 0.0
C67 C 0.6936 0.59068 0.39567 0.0
C68 C 0.61073 0.5141 0.47344 0.0
O69 O 0.77697 0.525 0.47069 0.0
Mg70 Mg 0.02545 0.70002 0.90394 0.0
O71 O 0.06317 0.65994 0.85883 0.0
O72 O 0.00559 0.60422 0.83964 0.0
Mg73 Mg 0.93502 0.61484 0.86257 0.0
C74 C 0.04947 0.62254 0.84025 0.0
C75 C 0.12924 0.76545 0.9123 0.0
O76 O 0.14152 0.73231 0.934 0.0
O77 O 0.97371 0.74242 0.8697 0.0
O78 O 0.97017 0.68075 0.83565 0.0
O79 O 0.04707 0.64035 0.93865 0.0
O80 O 0.97686 0.63597 0.91289 0.0
C81 C 0.95493 0.71959 0.84271 0.0
C82 C 0.00671 0.61471 0.93152 0.0
O83 O 0.08703 0.76184 0.89893 0.0
Mg84 Mg 0.84326 0.56008 0.6899 0.0
O85 O 0.83182 0.49118 0.72397 0.0
O86 O 0.89648 0.49734 0.76019 0.0
Mg87 Mg 0.94882 0.56305 0.74955 0.0
C88 C 0.85667 0.47529 0.74916 0.0
C89 C 0.76251 0.5732 0.63982 0.0
O90 O 0.79116 0.61358 0.63863 0.0
O91 O 0.82448 0.60885 0.73705 0.0
O92 O 0.89395 0.61085 0.76734 0.0
O93 O 0.88405 0.52204 0.64935 0.0
O94 O 0.91712 0.56099 0.69606 0.0
C95 C 0.85269 0.62453 0.76283 0.0
C96 C 0.92163 0.53327 0.66917 0.0
O97 O 0.76843 0.54532 0.66575 0.0
Mg98 Mg 0.32336 0.98824 0.84183 0.0
O99 O 0.34593 0.92168 0.8703 0.0
O100 O 0.41353 0.94887 0.90009 0.0
Mg101 Mg 0.43586 0.02783 0.89066 0.0
C102 C 0.38094 0.91531 0.89124 0.0
C103 C 0.21268 0.91966 0.83411 0.0
O104 O 0.17471 0.91745 0.81307 0.0
O105 O 0.29734 0.01766 0.89512 0.0
O106 O 0.36846 0.04495 0.91978 0.0
O107 O 0.37028 0.97725 0.79342 0.0
O108 O 0.39487 0.0198 0.84087 0.0
C109 C 0.32262 0.03966 0.92009 0.0
C110 C 0.40502 0.00223 0.81047 0.0
O111 O 0.24786 0.95135 0.82758 0.0
Mg112 Mg 0.46351 0.30855 0.29543 0.0
O113 O 0.52864 0.31301 0.33394 0.0
O114 O 0.48941 0.32621 0.383 0.0
Mg115 Mg 0.44697 0.38753 0.36899 0.0
C116 C 0.52854 0.32069 0.36759 0.0
C117 C 0.48769 0.22423 0.24279 0.0
O118 O 0.49809 0.18079 0.23708 0.0
O119 O 0.40237 0.26929 0.33068 0.0
O120 O 0.38659 0.3298 0.36551 0.0
O121 O 0.50531 0.37028 0.26595 0.0
O122 O 0.4557 0.37778 0.31053 0.0
C123 C 0.37511 0.28832 0.35256 0.0
C124 C 0.48602 0.39782 0.28802 0.0
O125 O 0.48239 0.23763 0.27494 0.0
Mg126 Mg 0.19051 0.44669 0.68575 0.0
O127 O 0.18037 0.50377 0.73036 0.0
O128 O 0.14374 0.45309 0.76937 0.0
Mg129 Mg 0.08831 0.39669 0.7411 0.0
C130 C 0.15637 0.49606 0.75931 0.0
C131 C 0.28671 0.45325 0.65009 0.0
O132 O 0.27622 0.40707 0.65466 0.0
O133 O 0.21764 0.38663 0.72075 0.0
O134 O 0.16635 0.40588 0.75961 0.0
O135 O 0.14391 0.48776 0.65297 0.0
O136 O 0.11483 0.42855 0.68859 0.0
C137 C 0.19469 0.377 0.74964 0.0
C138 C 0.10731 0.4644 0.66865 0.0
O139 O 0.26477 0.48009 0.66987 0.0
Mg140 Mg 0.68418 0.02365 0.8401 0.0
O141 O 0.65708 0.0745 0.88056 0.0
O142 O 0.58337 0.04439 0.89738 0.0
Mg143 Mg 0.5631 0.97295 0.8685 0.0
C144 C 0.61932 0.07666 0.8988 0.0
C145 C 0.77751 0.10087 0.83315 0.0
O146 O 0.76146 0.10928 0.80078 0.0
O147 O 0.69944 0.97215 0.88529 0.0
O148 O 0.62354 0.94302 0.89795 0.0
O149 O 0.64259 0.05791 0.79559 0.0
O150 O 0.61423 0.99445 0.82596 0.0
C151 C 0.66871 0.94412 0.90266 0.0
C152 C 0.60677 0.02616 0.80296 0.0
O153 O 0.75619 0.06734 0.85179 0.0
Mg154 Mg 0.54183 0.69553 0.2874 0.0
O155 O 0.47548 0.69283 0.32529 0.0
O156 O 0.48355 0.63813 0.36797 0.0
Mg157 Mg 0.56238 0.62882 0.36855 0.0
C158 C 0.45897 0.66693 0.35173 0.0
C159 C 0.54017 0.77335 0.23049 0.0
O160 O 0.58308 0.793 0.2404 0.0
O161 O 0.59234 0.75081 0.31977 0.0
O162 O 0.56511 0.70825 0.36412 0.0
O163 O 0.50804 0.62752 0.26289 0.0
O164 O 0.55902 0.62862 0.30856 0.0
C165 C 0.60077 0.73217 0.34968 0.0
C166 C 0.52974 0.60427 0.28664 0.0
O167 O 0.51273 0.75301 0.2543 0.0
C168 C 0.60558 0.14195 0.98478 0.0
C169 C 0.56605 0.16408 0.97293 0.0
C170 C 0.59069 0.15458 0.91099 0.0
C171 C 0.61648 0.11768 0.92288 0.0
N172 N 0.6585 0.0827 0.97066 0.0
N173 N 0.52815 0.20362 0.92577 0.0
C174 C 0.62835 0.11429 0.95975 0.0
C175 C 0.56219 0.1759 0.93624 0.0
N176 N 0.6186 0.14531 0.02013 0.0
N177 N 0.59315 0.16803 0.87583 0.0
H178 H 0.50768 0.21941 0.94473 0.0
H179 H 0.51975 0.20974 0.89897 0.0
H180 H 0.6159 0.15325 0.85801 0.0
H181 H 0.57704 0.19653 0.86565 0.0
H182 H 0.64863 0.1317 0.03059 0.0
H183 H 0.60042 0.16505 0.03815 0.0
H184 H 0.66489 0.07527 -0.00242 0.0
H185 H 0.67625 0.06324 0.95224 0.0
C186 C 0.39763 0.66481 0.39907 0.0
C187 C 0.4079 0.66473 0.36192 0.0
C188 C 0.34167 0.60257 0.35144 0.0
C189 C 0.34113 0.59401 0.38884 0.0
N190 N 0.34608 0.63078 0.44727 0.0
N191 N 0.37396 0.6541 0.30264 0.0
C192 C 0.36069 0.63072 0.41237 0.0
C193 C 0.37358 0.64125 0.33796 0.0
N194 N 0.42636 0.69423 0.42142 0.0
N195 N 0.31473 0.57131 0.32932 0.0
H196 H 0.39741 0.68284 0.29323 0.0
H197 H 0.34892 0.63913 0.2838 0.0
H198 H 0.29124 0.54327 0.33984 0.0
H199 H 0.31616 0.57274 0.30136 0.0
H200 H 0.42446 0.69281 0.44937 0.0
H201 H 0.45311 0.71948 0.41116 0.0
H202 H 0.35811 0.65753 0.46561 0.0
H203 H 0.31831 0.60604 0.4566 0.0
C204 C 0.83584 0.4165 0.79653 0.0
C205 C 0.8477 0.42509 0.76023 0.0
C206 C 0.91312 0.37688 0.76449 0.0
C207 C 0.90841 0.37725 0.80232 0.0
N208 N 0.85238 0.37544 0.85172 0.0
N209 N 0.87877 0.39208 0.70711 0.0
C210 C 0.86502 0.38923 0.81761 0.0
C211 C 0.87852 0.39631 0.74342 0.0
N212 N 0.79956 0.43808 0.81099 0.0
N213 N 0.9511 0.35951 0.74866 0.0
H214 H 0.8537 0.40644 0.69081 0.0
H215 H 0.8537 0.40644 0.69081 0.0
H216 H 0.97694 0.34425 0.76356 0.0
H217 H 0.95613 0.36059 0.72083 0.0
H218 H 0.79143 0.4376 0.8383 0.0
H219 H 0.77844 0.45756 0.7948 0.0
H220 H 0.81979 0.38087 0.86328 0.0
H221 H 0.87269 0.35467 0.86729 0.0
C222 C 0.44874 0.82041 0.92605 0.0
C223 C 0.4207 0.80693 0.95657 0.0
C224 C 0.355 0.84792 0.93346 0.0
C225 C 0.38614 0.86758 0.90596 0.0
N226 N 0.45376 0.86026 0.86807 0.0
N227 N 0.34319 0.79262 0.98379 0.0
C228 C 0.42995 0.84902 0.8994 0.0
C229 C 0.37202 0.81506 0.95798 0.0
N230 N 0.49433 0.80849 0.9241 0.0
N231 N 0.31112 0.8634 0.93768 0.0
H232 H 0.35594 0.76868 0.0018 0.0
H233 H 0.30647 0.79444 0.98553 0.0
H234 H 0.29742 0.88641 0.91953 0.0
H235 H 0.28861 0.85438 0.95938 0.0
H236 H 0.51922 0.82168 0.90484 0.0
H237 H 0.5073 0.78559 0.94278 0.0
H238 H 0.4847 0.84617 0.86031 0.0
H239 H 0.43964 0.88097 0.84841 0.0
C240 C 0.60867 0.38348 0.4377 0.0
C241 C 0.6551 0.37566 0.42757 0.0
C242 C 0.61801 0.31873 0.38233 0.0
C243 C 0.574 0.33836 0.38677 0.0
N244 N 0.54074 0.40817 0.40828 0.0
N245 N 0.70496 0.33287 0.39018 0.0
C246 C 0.5725 0.37573 0.41187 0.0
C247 C 0.66018 0.34188 0.39989 0.0
N248 N 0.59893 0.40019 0.47077 0.0
N249 N 0.61964 0.27865 0.36216 0.0
H250 H 0.7356 0.34791 0.40406 0.0
H251 H 0.71139 0.3121 0.36796 0.0
H252 H 0.58922 0.26062 0.34984 0.0
H253 H 0.65021 0.26126 0.36039 0.0
H254 H 0.56365 0.40358 0.47804 0.0
H255 H 0.62412 0.40341 0.49163 0.0
H256 H 0.53998 0.43653 0.4262 0.0
H257 H 0.52292 0.41169 0.384 0.0
C258 C 0.08445 0.52088 0.78875 0.0
C259 C 0.13194 0.53408 0.7769 0.0
C260 C 0.12813 0.6124 0.80544 0.0
C261 C 0.08415 0.59376 0.82232 0.0
N262 N 0.03361 0.52185 0.83948 0.0
N263 N 0.20223 0.59269 0.77846 0.0
C264 C 0.06756 0.54494 0.81758 0.0
C265 C 0.15505 0.58012 0.78646 0.0
N266 N 0.05366 0.48669 0.77229 0.0
N267 N 0.14348 0.66004 0.8061 0.0
H268 H 0.22266 0.57 0.76492 0.0
H269 H 0.22176 0.62406 0.78781 0.0
H270 H 0.12486 0.68483 0.81888 0.0
H271 H 0.17288 0.67529 0.79138 0.0
H272 H 0.06084 0.47176 0.74756 0.0
H273 H 0.06084 0.47176 0.74756 0.0
H274 H 0.01423 0.48957 0.83242 0.0
H275 H 0.02724 0.53428 0.86525 0.0
C276 C 0.32267 0.09304 0.00889 0.0
C277 C 0.33073 0.14032 -0.00408 0.0
C278 C 0.2921 0.11365 0.93912 0.0
C279 C 0.30035 0.06674 0.94809 0.0
N280 N 0.30927 0.00935 -0.00563 0.0
N281 N 0.31082 0.19816 0.95334 0.0
C282 C 0.30946 0.05564 0.98427 0.0
C283 C 0.3096 0.15149 0.96289 0.0
N284 N 0.3322 0.08265 0.04367 0.0
N285 N 0.27061 0.1216 0.90707 0.0
H286 H 0.32343 0.22543 0.97125 0.0
H287 H 0.29999 0.20964 0.92834 0.0
H288 H 0.25801 0.09349 0.88992 0.0
H289 H 0.26206 0.15474 0.8989 0.0
H290 H 0.34247 0.10887 0.06297 0.0
H291 H 0.34247 0.10887 0.06297 0.0
H292 H 0.31772 -0.0003 0.02055 0.0
H293 H 0.29983 0.9814 0.97627 0.0
C294 C 0.29901 0.2992 0.32924 0.0
C295 C 0.32308 0.27241 0.35384 0.0
C296 C 0.28033 0.30666 0.40231 0.0
C297 C 0.27921 0.34737 0.38024 0.0
N298 N 0.27356 0.3777 0.32029 0.0
N299 N 0.31641 0.23288 0.41043 0.0
C300 C 0.28191 0.3413 0.34248 0.0
C301 C 0.30459 0.26873 0.38905 0.0
N302 N 0.30069 0.28892 0.29355 0.0
N303 N 0.26134 0.30622 0.43596 0.0
H304 H 0.33584 0.20674 0.40003 0.0
H305 H 0.30791 0.22965 0.43761 0.0
H306 H 0.24297 0.33391 0.44493 0.0
H307 H 0.26029 0.27729 0.45333 0.0
H308 H 0.28366 0.30712 0.27386 0.0
H309 H 0.31704 0.25973 0.28471 0.0
H310 H 0.27969 0.37751 0.29268 0.0
H311 H 0.26149 0.40854 0.33051 0.0
C312 C 0.19778 0.31718 0.7964 0.0
C313 C 0.18233 0.32727 0.76141 0.0
C314 C 0.10158 0.29009 0.77466 0.0
C315 C 0.11392 0.29377 0.81155 0.0
N316 N 0.17411 0.29075 0.85693 0.0
N317 N 0.12854 0.30367 0.71281 0.0
C318 C 0.16275 0.29899 0.82198 0.0
C319 C 0.13751 0.30506 0.74889 0.0
N320 N 0.24469 0.33005 0.80545 0.0
N321 N 0.05473 0.27767 0.76512 0.0
H322 H 0.15515 0.31649 0.69453 0.0
H323 H 0.09677 0.28759 0.70124 0.0
H324 H 0.02877 0.26689 0.78444 0.0
H325 H 0.04176 0.2784 0.73886 0.0
H326 H 0.25889 0.32662 0.83111 0.0
H327 H 0.26943 0.34398 0.78613 0.0
H328 H 0.20901 0.29377 0.86703 0.0
H329 H 0.14748 0.27835 0.87533 0.0
C330 C 0.63563 0.83814 0.94968 0.0
C331 C 0.62999 0.86135 0.98277 0.0
C332 C 0.68849 0.92768 0.96533 0.0
C333 C 0.68337 0.91076 0.92965 0.0
N334 N 0.67373 0.84301 0.89074 0.0
N335 N 0.67055 0.91088 0.02833 0.0
C336 C 0.6656 0.8626 0.9233 0.0
C337 C 0.66354 0.90039 -0.00718 0.0
N338 N 0.60976 0.79505 0.94298 0.0
N339 N 0.71292 0.9715 0.9719 0.0
H340 H 0.65385 0.88838 0.04797 0.0
H341 H 0.696 0.93795 0.03786 0.0
H342 H 0.73161 0.99097 0.95146 0.0
H343 H 0.71366 0.98838 -0.00314 0.0
H344 H 0.60869 0.77782 0.91818 0.0
H345 H 0.58928 0.77663 0.96302 0.0
H346 H 0.66283 0.8076 0.88399 0.0
H347 H 0.6946 0.86259 0.8714 0.0
C348 C 0.66396 0.71421 0.39264 0.0
C349 C 0.64783 0.71464 0.35648 0.0
C350 C 0.69052 0.64645 0.34282 0.0
C351 C 0.69645 0.63998 0.38037 0.0
N352 N 0.71823 0.68322 0.43508 0.0
N353 N 0.66613 0.69716 0.29487 0.0
C354 C 0.69296 0.6791 0.40356 0.0
C355 C 0.66802 0.68608 0.33054 0.0
N356 N 0.64939 0.74585 0.41676 0.0
N357 N 0.7064 0.61465 0.31943 0.0
H358 H 0.65504 0.72896 0.28594 0.0
H359 H 0.68052 0.67815 0.2745 0.0
H360 H 0.72774 0.58905 0.32812 0.0
H361 H 0.69924 0.61378 0.29193 0.0
H362 H 0.65504 0.74361 0.44442 0.0
H363 H 0.63013 0.77346 0.40878 0.0
H364 H 0.71871 0.71237 0.45231 0.0
H365 H 0.74405 0.66079 0.44108 0.0
C366 C 0.86928 0.69012 0.84591 0.0
C367 C 0.90511 0.72354 0.83074 0.0
C368 C 0.86606 0.71045 0.77206 0.0
C369 C 0.8439 0.6662 0.78489 0.0
N370 N 0.81194 0.61957 0.83464 0.0
N371 N 0.92973 0.77595 0.78221 0.0
C372 C 0.8399 0.65897 0.8224 0.0
C373 C 0.89947 0.7384 0.79487 0.0
N374 N 0.86731 0.68563 0.88238 0.0
N375 N 0.8583 0.72267 0.73725 0.0
H376 H 0.95402 0.79599 0.79938 0.0
H377 H 0.93117 0.78661 0.7554 0.0
H378 H 0.83452 0.70099 0.72074 0.0
H379 H 0.8723 0.75496 0.72587 0.0
H380 H 0.84162 0.66261 0.89579 0.0
H381 H 0.89025 0.70798 0.89905 0.0
H382 H 0.8102 0.60909 0.86148 0.0
H383 H 0.79075 0.59714 0.8169 0.0
C384 C 0.53664 0.96617 0.07043 0.0
C385 C 0.50042 0.93337 0.08581 0.0
C386 C 0.45318 0.99877 0.09895 0.0
C387 C 0.48561 0.02983 0.07816 0.0
N388 N 0.55704 0.04304 0.04222 0.0
N389 N 0.42344 0.91718 0.11427 0.0
C390 C 0.52745 0.01371 0.06376 0.0
C391 C 0.4587 0.94947 0.1004 0.0
N392 N 0.57979 0.95155 0.06227 0.0
N393 N 0.41764 0.0166 0.1178 0.0
H394 H 0.42746 0.88119 0.1172 0.0
H395 H 0.38954 0.92549 0.12122 0.0
H396 H 0.41247 0.05251 0.1173 0.0
H397 H 0.3959 0.99678 0.13633 0.0
H398 H 0.60935 0.97441 0.05356 0.0
H399 H 0.58704 0.91709 0.068 0.0
H400 H 0.58485 0.03178 0.02727 0.0
H401 H 0.55137 0.07811 0.03735 0.0
C402 C 0.53673 0.48482 0.50916 0.0
C403 C 0.55988 0.51713 0.48381 0.0
C404 C 0.48193 0.54321 0.46779 0.0
C405 C 0.45859 0.50405 0.48724 0.0
N406 N 0.46255 0.43813 0.52762 0.0
N407 N 0.55696 0.58424 0.44466 0.0
C408 C 0.48566 0.47552 0.50879 0.0
C409 C 0.53307 0.54876 0.46493 0.0
N410 N 0.56346 0.46317 0.53358 0.0
N411 N 0.45483 0.57454 0.45204 0.0
H412 H 0.59436 0.59033 0.44363 0.0
H413 H 0.54037 0.60844 0.42955 0.0
H414 H 0.41768 0.57147 0.45492 0.0
H415 H 0.46852 0.60492 0.43809 0.0
H416 H 0.54867 0.44259 0.55486 0.0
H417 H 0.60083 0.46894 0.53436 0.0
H418 H 0.48017 0.41218 0.54008 0.0
H419 H 0.42521 0.43169 0.52929 0.0
C420 C 0.0354 0.53634 0.95353 0.0
C421 C 0.99869 0.56121 0.93839 0.0
C422 C 0.95637 0.4849 0.91694 0.0
C423 C 0.99465 0.46046 0.9292 0.0
N424 N 0.06487 0.46046 0.96662 0.0
N425 N 0.9139 0.55355 0.92463 0.0
C426 C 0.03267 0.4856 0.94959 0.0
C427 C 0.95594 0.53385 0.92579 0.0
N428 N 0.07188 0.56081 0.97293 0.0
N429 N 0.92133 0.46219 0.89532 0.0
H430 H 0.9107 0.58698 0.93558 0.0
H431 H 0.88101 0.53419 0.918 0.0
H432 H 0.92057 0.42661 0.88806 0.0
H433 H 0.89577 0.47985 0.88214 0.0
H434 H 0.10408 0.54775 0.97895 0.0
H435 H 0.06878 0.59371 0.98473 0.0
H436 H 0.09147 0.47526 0.98429 0.0
H437 H 0.06303 0.42345 0.96508 0.0
C438 C 0.01065 0.54757 0.66959 0.0
C439 C 0.96879 0.51565 0.6623 0.0
C440 C 0.01956 0.45162 0.65235 0.0
C441 C 0.05958 0.48175 0.66619 0.0
N442 N 0.09175 0.5578 0.69197 0.0
N443 N 0.9335 0.43625 0.64455 0.0
C444 C 0.05478 0.52958 0.67577 0.0
C445 C 0.97315 0.46744 0.65268 0.0
N446 N 0.00879 0.59568 0.66873 0.0
N447 N 0.02628 0.40869 0.63742 0.0
H448 H 0.8993 0.44598 0.64122 0.0
H449 H 0.93395 0.3996 0.64253 0.0
H450 H 0.05963 0.39601 0.63664 0.0
H451 H 0.99998 0.38743 0.6229 0.0
H452 H 0.03916 0.62074 0.67068 0.0
H453 H 0.9779 0.61053 0.66139 0.0
H454 H 0.08751 0.5902 0.70422 0.0
H455 H 0.12564 0.5475 0.69589 0.0
C456 C 0.47937 0.0581 0.79794 0.0
C457 C 0.45524 0.01087 0.7967 0.0
C458 C 0.53102 0.98222 0.77966 0.0
C459 C 0.55638 0.02671 0.78988 0.0
N460 N 0.55466 0.10933 0.80497 0.0
N461 N 0.4584 0.92711 0.78509 0.0
C462 C 0.53055 0.06568 0.79718 0.0
C463 C 0.48083 0.97276 0.78627 0.0
N464 N 0.45305 0.0957 0.79919 0.0
N465 N 0.5556 0.94884 0.76404 0.0
H466 H 0.4219 0.91814 0.78965 0.0
H467 H 0.47664 0.89744 0.78207 0.0
H468 H 0.59231 0.95557 0.75877 0.0
H469 H 0.53908 0.91708 0.75303 0.0
H470 H 0.46789 0.13114 0.79709 0.0
H471 H 0.41559 0.09122 0.79853 0.0
H472 H 0.53823 0.13743 0.81535 0.0
H473 H 0.59151 0.11732 0.80159 0.0
C474 C 0.54649 0.47183 0.28947 0.0
C475 C 0.49792 0.45056 0.28798 0.0
C476 C 0.47119 0.52995 0.29176 0.0
C477 C 0.5194 0.55143 0.2892 0.0
N478 N 0.60271 0.54247 0.27898 0.0
N479 N 0.41315 0.46213 0.2848 0.0
C480 C 0.5571 0.5223 0.28643 0.0
C481 C 0.4603 0.48008 0.28841 0.0
N482 N 0.58244 0.44425 0.29568 0.0
N483 N 0.43488 0.55713 0.29709 0.0
H484 H 0.40065 0.42641 0.27999 0.0
H485 H 0.40065 0.42641 0.27999 0.0
H486 H 0.44089 0.59379 0.30086 0.0
H487 H 0.39905 0.5425 0.29929 0.0
H488 H 0.61786 0.45838 0.30085 0.0
H489 H 0.57622 0.4075 0.29943 0.0
H490 H 0.63044 0.52262 0.2726 0.0
H491 H 0.61195 0.57904 0.27578 0.0
C492 C 0.44154 0.27465 0.20248 0.0
C493 C 0.48516 0.25659 0.21171 0.0
C494 C 0.51615 0.27558 0.15135 0.0
C495 C 0.46869 0.28026 0.14038 0.0
N496 N 0.39787 0.31404 0.15675 0.0
N497 N 0.5683 0.25126 0.1986 0.0
C498 C 0.43536 0.29036 0.16664 0.0
C499 C 0.52436 0.26186 0.18742 0.0
N500 N 0.40471 0.27261 0.22647 0.0
N501 N 0.55243 0.28408 0.12706 0.0
H502 H 0.5755 0.24395 0.22549 0.0
H503 H 0.5973 0.24936 0.18159 0.0
H504 H 0.54603 0.2966 0.10125 0.0
H505 H 0.5885 0.28283 0.13306 0.0
H506 H 0.37055 0.28073 0.21978 0.0
H507 H 0.40749 0.2605 0.25273 0.0
H508 H 0.37373 0.32569 0.17495 0.0
H509 H 0.39461 0.32624 0.13042 0.0
C510 C 0.29388 0.51731 0.60292 0.0
C511 C 0.30144 0.47075 0.61337 0.0
C512 C 0.28527 0.44146 0.55233 0.0
C513 C 0.26617 0.4846 0.54432 0.0
N514 N 0.26338 0.56772 0.55725 0.0
N515 N 0.33341 0.4004 0.59383 0.0
C516 C 0.27489 0.52429 0.56798 0.0
C517 C 0.30732 0.43686 0.58638 0.0
N518 N 0.30528 0.55402 0.62651 0.0
N519 N 0.2786 0.40363 0.52917 0.0
H520 H 0.35069 0.39826 0.61866 0.0
H521 H 0.34218 0.37618 0.57454 0.0
H522 H 0.2618 0.40495 0.5042 0.0
H523 H 0.2872 0.36987 0.53568 0.0
H524 H 0.30172 0.58947 0.62104 0.0
H525 H 0.32219 0.54874 0.65105 0.0
H526 H 0.26484 0.59746 0.57388 0.0
H527 H 0.25233 0.57399 0.53099 0.0
C528 C 0.80035 0.18203 0.85983 0.0
C529 C 0.81311 0.1361 0.85156 0.0
C530 C 0.89082 0.15571 0.88244 0.0
C531 C 0.87792 0.20141 0.89117 0.0
N532 N 0.82028 0.25833 0.88978 0.0
N533 N 0.86739 0.07677 0.8573 0.0
C534 C 0.83258 0.2146 0.88035 0.0
C535 C 0.85752 0.12227 0.86357 0.0
N536 N 0.75724 0.19446 0.848 0.0
N537 N 0.93538 0.14467 0.89186 0.0
H538 H 0.84532 0.05237 0.84165 0.0
H539 H 0.8962 0.06213 0.86866 0.0
H540 H 0.95922 0.16669 0.90802 0.0
H541 H 0.94982 0.11469 0.88279 0.0
H542 H 0.74773 0.22882 0.84866 0.0
H543 H 0.73048 0.17049 0.83624 0.0
H544 H 0.78622 0.26867 0.88666 0.0
H545 H 0.84375 0.28477 0.90222 0.0
C546 C 0.55576 0.70931 0.18729 0.0
C547 C 0.53516 0.75185 0.19425 0.0
C548 C 0.49789 0.74675 0.1343 0.0
C549 C 0.52489 0.70912 0.1258 0.0
N550 N 0.55018 0.63783 0.15135 0.0
N551 N 0.48521 0.81091 0.17538 0.0
C552 C 0.54539 0.68515 0.15433 0.0
C553 C 0.50526 0.77028 0.16816 0.0
N554 N 0.58604 0.69226 0.2117 0.0
N555 N 0.46163 0.75597 0.11178 0.0
H556 H 0.48957 0.82861 0.20006 0.0
H557 H 0.46691 0.82873 0.15627 0.0
H558 H 0.45208 0.73468 0.08927 0.0
H559 H 0.43779 0.78043 0.11739 0.0
H560 H 0.60586 0.66433 0.20599 0.0
H561 H 0.59472 0.70837 0.23645 0.0
H562 H 0.56138 0.61767 0.17255 0.0
H563 H 0.53519 0.61707 0.12997 0.0
C564 C 0.7433 0.50659 0.59494 0.0
C565 C 0.74027 0.55441 0.60517 0.0
C566 C 0.74441 0.57877 0.54208 0.0
C567 C 0.76106 0.53473 0.53368 0.0
N568 N 0.76785 0.45328 0.54899 0.0
N569 N 0.71434 0.62869 0.58827 0.0
C570 C 0.75672 0.49709 0.55902 0.0
C571 C 0.73221 0.5879 0.57832 0.0
N572 N 0.73264 0.4709 0.61931 0.0
N573 N 0.7441 0.61278 0.51608 0.0
H574 H 0.70503 0.63449 0.61496 0.0
H575 H 0.70533 0.65443 0.57034 0.0
H576 H 0.7525 0.60624 0.48941 0.0
H577 H 0.73646 0.64732 0.52075 0.0
H578 H 0.73236 0.43491 0.61334 0.0
H579 H 0.71837 0.47734 0.64445 0.0
H580 H 0.77066 0.42547 0.56687 0.0
H581 H 0.77542 0.44535 0.52233 0.0
C582 C 0.20049 0.79872 0.87542 0.0
C583 C 0.16489 0.8061 0.90121 0.0
C584 C 0.18417 0.89269 0.89454 0.0
C585 C 0.21185 0.88481 0.86397 0.0
N586 N 0.25493 0.83343 0.82883 0.0
N587 N 0.12767 0.85898 0.93988 0.0
C588 C 0.22363 0.83867 0.85615 0.0
C589 C 0.15891 0.85294 0.91266 0.0
N590 N 0.21057 0.75349 0.86852 0.0
N591 N 0.18161 0.93848 0.90538 0.0
H592 H 0.11068 0.83039 0.95457 0.0
H593 H 0.11797 0.89176 0.94779 0.0
H594 H 0.20056 0.96742 0.8922 0.0
H595 H 0.16411 0.94784 0.92843 0.0
H596 H 0.23726 0.74518 0.85119 0.0
H597 H 0.1934 0.72363 0.88158 0.0
H598 H 0.26306 0.80093 0.81904 0.0
H599 H 0.27332 0.8628 0.8158 0.0
loop_
_geom_bond_atom_site_label_1
_geom_bond_atom_site_label_2
_geom_bond_distance
_geom_bond_site_symmetry_2
_ccdc_geom_bond_type
Mg0 O1 2.028 . S
Mg0 O7 1.986 . S
Mg0 O9 2.114 . S
Mg0 O10 2.251 . S
Mg0 O13 2.010 . S
O1 Mg0 2.028 . S
O1 C4 1.250 . S
O2 Mg3 2.028 . S
O2 C4 1.248 1_556 S
Mg3 O2 2.028 . S
Mg3 O8 2.032 . S
Mg3 O10 2.079 1_556 S
C4 O1 1.250 . S
C4 O2 1.248 1_554 S
C5 O6 1.264 . S
C5 O13 1.249 . S
O6 C5 1.264 . S
O7 Mg0 1.986 . S
O7 C11 1.246 1_554 S
O8 Mg3 2.032 . S
O8 C11 1.259 . S
O9 Mg0 2.114 . S
O9 C12 1.252 . S
O10 Mg0 2.251 . S
O10 Mg3 2.079 1_554 S
O10 C12 1.273 . S
C11 O7 1.246 1_556 S
C11 O8 1.259 . S
C12 O9 1.252 . S
C12 O10 1.273 . S
O13 Mg0 2.010 . S
O13 C5 1.249 . S
Mg14 O15 2.028 . S
Mg14 O21 1.986 . S
Mg14 O23 2.114 . S
Mg14 O24 2.251 . S
Mg14 O27 2.010 . S
O15 Mg14 2.028 . S
O15 C18 1.250 . S
O16 Mg17 2.028 . S
O16 C18 1.248 . S
Mg17 O16 2.028 . S
Mg17 O22 2.032 . S
Mg17 O24 2.079 . S
C18 O15 1.250 . S
C18 O16 1.248 . S
C19 O20 1.264 . S
C19 O27 1.249 . S
O20 C19 1.264 . S
O21 Mg14 1.986 . S
O21 C25 1.246 . S
O22 Mg17 2.032 . S
O22 C25 1.259 . S
O23 Mg14 2.114 . S
O23 C26 1.252 . S
O24 Mg14 2.251 . S
O24 Mg17 2.079 . S
O24 C26 1.273 . S
C25 O21 1.246 . S
C25 O22 1.259 . S
C26 O23 1.252 . S
C26 O24 1.273 . S
O27 Mg14 2.010 . S
O27 C19 1.249 . S
Mg28 O29 2.028 . S
Mg28 O35 1.986 1_655 S
Mg28 O37 2.114 . S
Mg28 O38 2.251 1_655 S
Mg28 O41 2.010 . S
O29 Mg28 2.028 . S
O29 C32 1.250 . S
O30 Mg31 2.028 1_655 S
O30 C32 1.248 . S
Mg31 O30 2.028 1_455 S
Mg31 O36 2.032 . S
Mg31 O38 2.079 . S
C32 O29 1.250 . S
C32 O30 1.248 . S
C33 O34 1.264 . S
C33 O41 1.249 . S
O34 C33 1.264 . S
O35 Mg28 1.986 1_455 S
O35 C39 1.246 . S
O36 Mg31 2.032 . S
O36 C39 1.259 . S
O37 Mg28 2.114 . S
O37 C40 1.252 . S
O38 Mg28 2.251 1_455 S
O38 Mg31 2.079 . S
O38 C40 1.273 1_455 S
C39 O35 1.246 . S
C39 O36 1.259 . S
C40 O37 1.252 . S
C40 O38 1.273 1_655 S
O41 Mg28 2.010 . S
O41 C33 1.249 . S
Mg42 O43 2.028 . S
Mg42 O49 1.986 . S
Mg42 O51 2.114 . S
Mg42 O52 2.251 . S
Mg42 O55 2.010 . S
O43 Mg42 2.028 . S
O43 C46 1.250 . S
O44 Mg45 2.028 . S
O44 C46 1.248 1_556 S
Mg45 O44 2.028 . S
Mg45 O50 2.032 . S
Mg45 O52 2.079 1_556 S
C46 O43 1.250 . S
C46 O44 1.248 1_554 S
C47 O48 1.264 . S
C47 O55 1.249 . S
O48 C47 1.264 . S
O49 Mg42 1.986 . S
O49 C53 1.246 1_554 S
O50 Mg45 2.032 . S
O50 C53 1.259 . S
O51 Mg42 2.114 . S
O51 C54 1.252 . S
O52 Mg42 2.251 . S
O52 Mg45 2.079 1_554 S
O52 C54 1.273 . S
C53 O49 1.246 1_556 S
C53 O50 1.259 . S
C54 O51 1.252 . S
C54 O52 1.273 . S
O55 Mg42 2.010 . S
O55 C47 1.249 . S
Mg56 O57 2.028 . S
Mg56 O63 1.986 . S
Mg56 O65 2.114 . S
Mg56 O66 2.251 . S
Mg56 O69 2.010 . S
O57 Mg56 2.028 . S
O57 C60 1.250 . S
O58 Mg59 2.028 . S
O58 C60 1.248 . S
Mg59 O58 2.028 . S
Mg59 O64 2.032 . S
Mg59 O66 2.079 . S
C60 O57 1.250 . S
C60 O58 1.248 . S
C61 O62 1.264 . S
C61 O69 1.249 . S
O62 C61 1.264 . S
O63 Mg56 1.986 . S
O63 C67 1.246 . S
O64 Mg59 2.032 . S
O64 C67 1.259 . S
O65 Mg56 2.114 . S
O65 C68 1.252 . S
O66 Mg56 2.251 . S
O66 Mg59 2.079 . S
O66 C68 1.273 . S
C67 O63 1.246 . S
C67 O64 1.259 . S
C68 O65 1.252 . S
C68 O66 1.273 . S
O69 Mg56 2.010 . S
O69 C61 1.249 . S
Mg70 O71 2.028 . S
Mg70 O77 1.986 1_455 S
Mg70 O79 2.114 . S
Mg70 O80 2.251 1_455 S
Mg70 O83 2.010 . S
O71 Mg70 2.028 . S
O71 C74 1.250 . S
O72 Mg73 2.028 1_455 S
O72 C74 1.248 . S
Mg73 O72 2.028 1_655 S
Mg73 O78 2.032 . S
Mg73 O80 2.079 . S
C74 O71 1.250 . S
C74 O72 1.248 . S
C75 O76 1.264 . S
C75 O83 1.249 . S
O76 C75 1.264 . S
O77 Mg70 1.986 1_655 S
O77 C81 1.246 . S
O78 Mg73 2.032 . S
O78 C81 1.259 . S
O79 Mg70 2.114 . S
O79 C82 1.252 . S
O80 Mg70 2.251 1_655 S
O80 Mg73 2.079 . S
O80 C82 1.273 1_655 S
C81 O77 1.246 . S
C81 O78 1.259 . S
C82 O79 1.252 . S
C82 O80 1.273 1_455 S
O83 Mg70 2.010 . S
O83 C75 1.249 . S
Mg84 O85 2.028 . S
Mg84 O91 1.986 . S
Mg84 O93 2.114 . S
Mg84 O94 2.251 . S
Mg84 O97 2.010 . S
O85 Mg84 2.028 . S
O85 C88 1.250 . S
O86 Mg87 2.028 . S
O86 C88 1.248 . S
Mg87 O86 2.028 . S
Mg87 O92 2.032 . S
Mg87 O94 2.079 . S
C88 O85 1.250 . S
C88 O86 1.248 . S
C89 O90 1.264 . S
C89 O97 1.249 . S
O90 C89 1.264 . S
O91 Mg84 1.986 . S
O91 C95 1.246 . S
O92 Mg87 2.032 . S
O92 C95 1.259 . S
O93 Mg84 2.114 . S
O93 C96 1.252 . S
O94 Mg84 2.251 . S
O94 Mg87 2.079 . S
O94 C96 1.273 . S
C95 O91 1.246 . S
C95 O92 1.259 . S
C96 O93 1.252 . S
C96 O94 1.273 . S
O97 Mg84 2.010 . S
O97 C89 1.249 . S
Mg98 O99 2.028 . S
Mg98 O105 1.986 1_565 S
Mg98 O107 2.114 . S
Mg98 O108 2.251 1_565 S
Mg98 O111 2.010 . S
O99 Mg98 2.028 . S
O99 C102 1.250 . S
O100 Mg101 2.028 1_565 S
O100 C102 1.248 . S
Mg101 O100 2.028 1_545 S
Mg101 O106 2.032 . S
Mg101 O108 2.079 . S
C102 O99 1.250 . S
C102 O100 1.248 . S
C103 O104 1.264 . S
C103 O111 1.249 . S
O104 C103 1.264 . S
O105 Mg98 1.986 1_545 S
O105 C109 1.246 . S
O106 Mg101 2.032 . S
O106 C109 1.259 . S
O107 Mg98 2.114 . S
O107 C110 1.252 . S
O108 Mg98 2.251 1_545 S
O108 Mg101 2.079 . S
O108 C110 1.273 1_545 S
C109 O105 1.246 . S
C109 O106 1.259 . S
C110 O107 1.252 . S
C110 O108 1.273 1_565 S
O111 Mg98 2.010 . S
O111 C103 1.249 . S
Mg112 O113 2.028 . S
Mg112 O119 1.986 . S
Mg112 O121 2.114 . S
Mg112 O122 2.251 . S
Mg112 O125 2.010 . S
O113 Mg112 2.028 . S
O113 C116 1.250 . S
O114 Mg115 2.028 . S
O114 C116 1.248 . S
Mg115 O114 2.028 . S
Mg115 O120 2.032 . S
Mg115 O122 2.079 . S
C116 O113 1.250 . S
C116 O114 1.248 . S
C117 O118 1.264 . S
C117 O125 1.249 . S
O118 C117 1.264 . S
O119 Mg112 1.986 . S
O119 C123 1.246 . S
O120 Mg115 2.032 . S
O120 C123 1.259 . S
O121 Mg112 2.114 . S
O121 C124 1.252 . S
O122 Mg112 2.251 . S
O122 Mg115 2.079 . S
O122 C124 1.273 . S
C123 O119 1.246 . S
C123 O120 1.259 . S
C124 O121 1.252 . S
C124 O122 1.273 . S
O125 Mg112 2.010 . S
O125 C117 1.249 . S
Mg126 O127 2.028 . S
Mg126 O133 1.986 . S
Mg126 O135 2.114 . S
Mg126 O136 2.251 . S
Mg126 O139 2.010 . S
O127 Mg126 2.028 . S
O127 C130 1.250 . S
O128 Mg129 2.028 . S
O128 C130 1.248 . S
Mg129 O128 2.028 . S
Mg129 O134 2.032 . S
Mg129 O136 2.079 . S
C130 O127 1.250 . S
C130 O128 1.248 . S
C131 O132 1.264 . S
C131 O139 1.249 . S
O132 C131 1.264 . S
O133 Mg126 1.986 . S
O133 C137 1.246 . S
O134 Mg129 2.032 . S
O134 C137 1.259 . S
O135 Mg126 2.114 . S
O135 C138 1.252 . S
O136 Mg126 2.251 . S
O136 Mg129 2.079 . S
O136 C138 1.273 . S
C137 O133 1.246 . S
C137 O134 1.259 . S
C138 O135 1.252 . S
C138 O136 1.273 . S
O139 Mg126 2.010 . S
O139 C131 1.249 . S
Mg140 O141 2.028 . S
Mg140 O147 1.986 1_545 S
Mg140 O149 2.114 . S
Mg140 O150 2.251 1_545 S
Mg140 O153 2.010 . S
O141 Mg140 2.028 . S
O141 C144 1.250 . S
O142 Mg143 2.028 1_545 S
O142 C144 1.248 . S
Mg143 O142 2.028 1_565 S
Mg143 O148 2.032 . S
Mg143 O150 2.079 . S
C144 O141 1.250 . S
C144 O142 1.248 . S
C145 O146 1.264 . S
C145 O153 1.249 . S
O146 C145 1.264 . S
O147 Mg140 1.986 1_565 S
O147 C151 1.246 . S
O148 Mg143 2.032 . S
O148 C151 1.259 . S
O149 Mg140 2.114 . S
O149 C152 1.252 . S
O150 Mg140 2.251 1_565 S
O150 Mg143 2.079 . S
O150 C152 1.273 1_565 S
C151 O147 1.246 . S
C151 O148 1.259 . S
C152 O149 1.252 . S
C152 O150 1.273 1_545 S
O153 Mg140 2.010 . S
O153 C145 1.249 . S
Mg154 O155 2.028 . S
Mg154 O161 1.986 . S
Mg154 O163 2.114 . S
Mg154 O164 2.251 . S
Mg154 O167 2.010 . S
O155 Mg154 2.028 . S
O155 C158 1.250 . S
O156 Mg157 2.028 . S
O156 C158 1.248 . S
Mg157 O156 2.028 . S
Mg157 O162 2.032 . S
Mg157 O164 2.079 . S
C158 O155 1.250 . S
C158 O156 1.248 . S
C159 O160 1.264 . S
C159 O167 1.249 . S
O160 C159 1.264 . S
O161 Mg154 1.986 . S
O161 C165 1.246 . S
O162 Mg157 2.032 . S
O162 C165 1.259 . S
O163 Mg154 2.114 . S
O163 C166 1.252 . S
O164 Mg154 2.251 . S
O164 Mg157 2.079 . S
O164 C166 1.273 . S
C165 O161 1.246 . S
C165 O162 1.259 . S
C166 O163 1.252 . S
C166 O164 1.273 . S
O167 Mg154 2.010 . S
O167 C159 1.249 . S
C168 C169 1.363 1_554 S
C168 C174 1.379 1_554 S
C168 N176 1.356 . S
C169 C168 1.363 1_556 S
C169 C175 1.363 . S
C170 C171 1.363 . S
C170 C175 1.379 . S
C170 N177 1.356 . S
C171 C170 1.363 . S
C171 C174 1.363 . S
N172 C174 1.356 . S
N172 H184 0.984 1_556 S
N172 H185 0.985 . S
N173 C175 1.356 . S
N173 H178 0.984 . S
N173 H179 0.985 . S
C174 C168 1.379 1_556 S
C174 C171 1.363 . S
C174 N172 1.356 . S
C175 C169 1.363 . S
C175 C170 1.379 . S
C175 N173 1.356 . S
N176 C168 1.356 . S
N176 H182 0.984 . S
N176 H183 0.984 . S
N177 C170 1.356 . S
N177 H180 0.984 . S
N177 H181 0.985 . S
H178 N173 0.984 . S
H179 N173 0.985 . S
H180 N177 0.984 . S
H181 N177 0.985 . S
H182 N176 0.984 . S
H183 N176 0.984 . S
H184 N172 0.984 1_554 S
H185 N172 0.985 . S
C186 C187 1.363 . S
C186 C192 1.379 . S
C186 N194 1.356 . S
C187 C186 1.363 . S
C187 C193 1.363 . S
C188 C189 1.363 . S
C188 C193 1.379 . S
C188 N195 1.356 . S
C189 C188 1.363 . S
C189 C192 1.363 . S
N190 C192 1.356 . S
N190 H202 0.984 . S
N190 H203 0.985 . S
N191 C193 1.356 . S
N191 H196 0.984 . S
N191 H197 0.985 . S
C192 C186 1.379 . S
C192 C189 1.363 . S
C192 N190 1.356 . S
C193 C187 1.363 . S
C193 C188 1.379 . S
C193 N191 1.356 . S
N194 C186 1.356 . S
N194 H200 0.984 . S
N194 H201 0.984 . S
N195 C188 1.356 . S
N195 H198 0.984 . S
N195 H199 0.985 . S
H196 N191 0.984 . S
H197 N191 0.985 . S
H198 N195 0.984 . S
H199 N195 0.985 . S
H200 N194 0.984 . S
H201 N194 0.984 . S
H202 N190 0.984 . S
H203 N190 0.985 . S
C204 C205 1.363 . S
C204 C210 1.379 . S
C204 N212 1.356 . S
C205 C204 1.363 . S
C205 C211 1.363 . S
C206 C207 1.363 . S
C206 C211 1.379 . S
C206 N213 1.356 . S
C207 C206 1.363 . S
C207 C210 1.363 . S
N208 C210 1.356 . S
N208 H220 0.984 . S
N208 H221 0.985 . S
N209 C211 1.356 . S
N209 H214 0.984 . S
N209 H215 0.985 . S
C210 C204 1.379 . S
C210 C207 1.363 . S
C210 N208 1.356 . S
C211 C205 1.363 . S
C211 C206 1.379 . S
C211 N209 1.356 . S
N212 C204 1.356 . S
N212 H218 0.984 . S
N212 H219 0.984 . S
N213 C206 1.356 . S
N213 H216 0.984 . S
N213 H217 0.985 . S
H214 N209 0.984 . S
H215 N209 0.985 . S
H216 N213 0.984 . S
H217 N213 0.985 . S
H218 N212 0.984 . S
H219 N212 0.984 . S
H220 N208 0.984 . S
H221 N208 0.985 . S
C222 C223 1.363 . S
C222 C228 1.379 . S
C222 N230 1.356 . S
C223 C222 1.363 . S
C223 C229 1.363 . S
C224 C225 1.363 . S
C224 C229 1.379 . S
C224 N231 1.356 . S
C225 C224 1.363 . S
C225 C228 1.363 . S
N226 C228 1.356 . S
N226 H238 0.984 . S
N226 H239 0.985 . S
N227 C229 1.356 1_554 S
N227 H232 0.984 . S
N227 H233 0.985 . S
C228 C222 1.379 . S
C228 C225 1.363 . S
C228 N226 1.356 . S
C229 C223 1.363 . S
C229 C224 1.379 . S
C229 N227 1.356 1_556 S
N230 C222 1.356 . S
N230 H236 0.984 . S
N230 H237 0.984 . S
N231 C224 1.356 . S
N231 H234 0.984 . S
N231 H235 0.985 . S
H232 N227 0.984 . S
H233 N227 0.985 . S
H234 N231 0.984 . S
H235 N231 0.985 . S
H236 N230 0.984 . S
H237 N230 0.984 . S
H238 N226 0.984 . S
H239 N226 0.985 . S
C240 C241 1.363 . S
C240 C246 1.379 . S
C240 N248 1.356 . S
C241 C240 1.363 . S
C241 C247 1.363 . S
C242 C243 1.363 . S
C242 C247 1.379 . S
C242 N249 1.356 . S
C243 C242 1.363 . S
C243 C246 1.363 . S
N244 C246 1.356 . S
N244 H256 0.984 . S
N244 H257 0.985 . S
N245 C247 1.356 . S
N245 H250 0.984 . S
N245 H251 0.985 . S
C246 C240 1.379 . S
C246 C243 1.363 . S
C246 N244 1.356 . S
C247 C241 1.363 . S
C247 C242 1.379 . S
C247 N245 1.356 . S
N248 C240 1.356 . S
N248 H254 0.984 . S
N248 H255 0.984 . S
N249 C242 1.356 . S
N249 H252 0.984 . S
N249 H253 0.985 . S
H250 N245 0.984 . S
H251 N245 0.985 . S
H252 N249 0.984 . S
H253 N249 0.985 . S
H254 N248 0.984 . S
H255 N248 0.984 . S
H256 N244 0.984 . S
H257 N244 0.985 . S
C258 C259 1.363 . S
C258 C264 1.379 . S
C258 N266 1.356 . S
C259 C258 1.363 . S
C259 C265 1.363 . S
C260 C261 1.363 . S
C260 C265 1.379 . S
C260 N267 1.356 . S
C261 C260 1.363 . S
C261 C264 1.363 . S
N262 C264 1.356 . S
N262 H274 0.984 . S
N262 H275 0.985 . S
N263 C265 1.356 . S
N263 H268 0.984 . S
N263 H269 0.985 . S
C264 C258 1.379 . S
C264 C261 1.363 . S
C264 N262 1.356 . S
C265 C259 1.363 . S
C265 C260 1.379 . S
C265 N263 1.356 . S
N266 C258 1.356 . S
N266 H272 0.984 . S
N266 H273 0.984 . S
N267 C260 1.356 . S
N267 H270 0.984 . S
N267 H271 0.985 . S
H268 N263 0.984 . S
H269 N263 0.985 . S
H270 N267 0.984 . S
H271 N267 0.985 . S
H272 N266 0.984 . S
H273 N266 0.984 . S
H274 N262 0.984 . S
H275 N262 0.985 . S
C276 C277 1.363 . S
C276 C282 1.379 . S
C276 N284 1.356 . S
C277 C276 1.363 . S
C277 C283 1.363 . S
C278 C279 1.363 . S
C278 C283 1.379 . S
C278 N285 1.356 . S
C279 C278 1.363 . S
C279 C282 1.363 . S
N280 C282 1.356 . S
N280 H292 0.984 . S
N280 H293 0.985 . S
N281 C283 1.356 . S
N281 H286 0.981 1_556 S
N281 H287 0.985 . S
C282 C276 1.379 . S
C282 C279 1.363 . S
C282 N280 1.356 . S
C283 C277 1.363 . S
C283 C278 1.379 . S
C283 N281 1.356 . S
N284 C276 1.356 . S
N284 H290 0.984 . S
N284 H291 0.984 1_556 S
N285 C278 1.356 . S
N285 H288 0.984 . S
N285 H289 0.985 . S
H286 N281 0.981 1_554 S
H287 N281 0.985 . S
H288 N285 0.984 . S
H289 N285 0.985 . S
H290 N284 0.984 . S
H291 N284 0.984 1_554 S
H292 N280 0.984 . S
H293 N280 0.985 . S
C294 C295 1.363 . S
C294 C300 1.379 . S
C294 N302 1.356 . S
C295 C294 1.363 . S
C295 C301 1.363 . S
C296 C297 1.363 . S
C296 C301 1.379 . S
C296 N303 1.356 . S
C297 C296 1.363 . S
C297 C300 1.363 . S
N298 C300 1.356 . S
N298 H310 0.984 . S
N298 H311 0.985 . S
N299 C301 1.356 . S
N299 H304 0.984 . S
N299 H305 0.985 . S
C300 C294 1.379 . S
C300 C297 1.363 . S
C300 N298 1.356 . S
C301 C295 1.363 . S
C301 C296 1.379 . S
C301 N299 1.356 . S
N302 C294 1.356 . S
N302 H308 0.984 . S
N302 H309 0.984 . S
N303 C296 1.356 . S
N303 H306 0.984 . S
N303 H307 0.985 . S
H304 N299 0.984 . S
H305 N299 0.985 . S
H306 N303 0.984 . S
H307 N303 0.985 . S
H308 N302 0.984 . S
H309 N302 0.984 . S
H310 N298 0.984 . S
H311 N298 0.985 . S
C312 C313 1.363 . S
C312 C318 1.379 . S
C312 N320 1.356 . S
C313 C312 1.363 . S
C313 C319 1.363 . S
C314 C315 1.363 . S
C314 C319 1.379 . S
C314 N321 1.356 . S
C315 C314 1.363 . S
C315 C318 1.363 . S
N316 C318 1.356 . S
N316 H328 0.984 . S
N316 H329 0.985 . S
N317 C319 1.356 . S
N317 H322 0.984 . S
N317 H323 0.985 . S
C318 C312 1.379 . S
C318 C315 1.363 . S
C318 N316 1.356 . S
C319 C313 1.363 . S
C319 C314 1.379 . S
C319 N317 1.356 . S
N320 C312 1.356 . S
N320 H326 0.984 . S
N320 H327 0.984 . S
N321 C314 1.356 . S
N321 H324 0.984 1_455 S
N321 H325 0.983 1_455 S
H322 N317 0.984 . S
H323 N317 0.985 . S
H324 N321 0.984 1_655 S
H325 N321 0.983 1_655 S
H326 N320 0.984 . S
H327 N320 0.984 . S
H328 N316 0.984 . S
H329 N316 0.985 . S
C330 C331 1.363 . S
C330 C336 1.379 . S
C330 N338 1.356 . S
C331 C330 1.363 . S
C331 C337 1.363 1_556 S
C332 C333 1.363 . S
C332 C337 1.379 1_556 S
C332 N339 1.356 . S
C333 C332 1.363 . S
C333 C336 1.363 . S
N334 C336 1.356 . S
N334 H346 0.984 . S
N334 H347 0.985 . S
N335 C337 1.356 . S
N335 H340 0.984 . S
N335 H341 0.985 . S
C336 C330 1.379 . S
C336 C333 1.363 . S
C336 N334 1.356 . S
C337 C331 1.363 1_554 S
C337 C332 1.379 1_554 S
C337 N335 1.356 . S
N338 C330 1.356 . S
N338 H344 0.984 . S
N338 H345 0.984 . S
N339 C332 1.356 . S
N339 H342 0.984 . S
N339 H343 0.985 1_556 S
H340 N335 0.984 . S
H341 N335 0.985 . S
H342 N339 0.984 . S
H343 N339 0.985 1_554 S
H344 N338 0.984 . S
H345 N338 0.984 . S
H346 N334 0.984 . S
H347 N334 0.985 . S
C348 C349 1.363 . S
C348 C354 1.379 . S
C348 N356 1.356 . S
C349 C348 1.363 . S
C349 C355 1.363 . S
C350 C351 1.363 . S
C350 C355 1.379 . S
C350 N357 1.356 . S
C351 C350 1.363 . S
C351 C354 1.363 . S
N352 C354 1.356 . S
N352 H364 0.984 . S
N352 H365 0.985 . S
N353 C355 1.356 . S
N353 H358 0.984 . S
N353 H359 0.985 . S
C354 C348 1.379 . S
C354 C351 1.363 . S
C354 N352 1.356 . S
C355 C349 1.363 . S
C355 C350 1.379 . S
C355 N353 1.356 . S
N356 C348 1.356 . S
N356 H362 0.984 . S
N356 H363 0.984 . S
N357 C350 1.356 . S
N357 H360 0.984 . S
N357 H361 0.985 . S
H358 N353 0.984 . S
H359 N353 0.985 . S
H360 N357 0.984 . S
H361 N357 0.985 . S
H362 N356 0.984 . S
H363 N356 0.984 . S
H364 N352 0.984 . S
H365 N352 0.985 . S
C366 C367 1.363 . S
C366 C372 1.379 . S
C366 N374 1.356 . S
C367 C366 1.363 . S
C367 C373 1.363 . S
C368 C369 1.363 . S
C368 C373 1.379 . S
C368 N375 1.356 . S
C369 C368 1.363 . S
C369 C372 1.363 . S
N370 C372 1.356 . S
N370 H382 0.984 . S
N370 H383 0.985 . S
N371 C373 1.356 . S
N371 H376 0.984 . S
N371 H377 0.985 . S
C372 C366 1.379 . S
C372 C369 1.363 . S
C372 N370 1.356 . S
C373 C367 1.363 . S
C373 C368 1.379 . S
C373 N371 1.356 . S
N374 C366 1.356 . S
N374 H380 0.984 . S
N374 H381 0.984 . S
N375 C368 1.356 . S
N375 H378 0.984 . S
N375 H379 0.985 . S
H376 N371 0.984 . S
H377 N371 0.985 . S
H378 N375 0.984 . S
H379 N375 0.985 . S
H380 N374 0.984 . S
H381 N374 0.984 . S
H382 N370 0.984 . S
H383 N370 0.985 . S
C384 C385 1.363 . S
C384 C390 1.379 1_565 S
C384 N392 1.356 . S
C385 C384 1.363 . S
C385 C391 1.363 . S
C386 C387 1.363 . S
C386 C391 1.379 1_545 S
C386 N393 1.356 . S
C387 C386 1.363 . S
C387 C390 1.363 . S
N388 C390 1.356 . S
N388 H400 0.984 . S
N388 H401 0.985 . S
N389 C391 1.356 . S
N389 H394 0.984 . S
N389 H395 0.985 . S
C390 C384 1.379 1_545 S
C390 C387 1.363 . S
C390 N388 1.356 . S
C391 C385 1.363 . S
C391 C386 1.379 1_565 S
C391 N389 1.356 . S
N392 C384 1.356 . S
N392 H398 0.984 . S
N392 H399 0.984 . S
N393 C386 1.356 . S
N393 H396 0.984 . S
N393 H397 0.985 . S
H394 N389 0.984 . S
H395 N389 0.985 . S
H396 N393 0.984 . S
H397 N393 0.985 . S
H398 N392 0.984 . S
H399 N392 0.984 . S
H400 N388 0.984 . S
H401 N388 0.985 . S
C402 C403 1.363 . S
C402 C408 1.379 . S
C402 N410 1.356 . S
C403 C402 1.363 . S
C403 C409 1.363 . S
C404 C405 1.363 . S
C404 C409 1.379 . S
C404 N411 1.356 . S
C405 C404 1.363 . S
C405 C408 1.363 . S
N406 C408 1.356 . S
N406 H418 0.984 . S
N406 H419 0.985 . S
N407 C409 1.356 . S
N407 H412 0.984 . S
N407 H413 0.985 . S
C408 C402 1.379 . S
C408 C405 1.363 . S
C408 N406 1.356 . S
C409 C403 1.363 . S
C409 C404 1.379 . S
C409 N407 1.356 . S
N410 C402 1.356 . S
N410 H416 0.984 . S
N410 H417 0.984 . S
N411 C404 1.356 . S
N411 H414 0.984 . S
N411 H415 0.985 . S
H412 N407 0.984 . S
H413 N407 0.985 . S
H414 N411 0.984 . S
H415 N411 0.985 . S
H416 N410 0.984 . S
H417 N410 0.984 . S
H418 N406 0.984 . S
H419 N406 0.985 . S
C420 C421 1.363 . S
C420 C426 1.379 . S
C420 N428 1.356 . S
C421 C420 1.363 . S
C421 C427 1.363 1_455 S
C422 C423 1.363 . S
C422 C427 1.379 . S
C422 N429 1.356 . S
C423 C422 1.363 . S
C423 C426 1.363 1_655 S
N424 C426 1.356 . S
N424 H436 0.984 . S
N424 H437 0.985 . S
N425 C427 1.356 . S
N425 H430 0.984 . S
N425 H431 0.985 . S
C426 C420 1.379 . S
C426 C423 1.363 1_455 S
C426 N424 1.356 . S
C427 C421 1.363 1_655 S
C427 C422 1.379 . S
C427 N425 1.356 . S
N428 C420 1.356 . S
N428 H434 0.984 . S
N428 H435 0.984 . S
N429 C422 1.356 . S
N429 H432 0.984 . S
N429 H433 0.985 . S
H430 N425 0.984 . S
H431 N425 0.985 . S
H432 N429 0.984 . S
H433 N429 0.985 . S
H434 N428 0.984 . S
H435 N428 0.984 . S
H436 N424 0.984 . S
H437 N424 0.985 . S
C438 C439 1.363 . S
C438 C444 1.379 1_655 S
C438 N446 1.356 . S
C439 C438 1.363 . S
C439 C445 1.363 . S
C440 C441 1.363 . S
C440 C445 1.379 1_455 S
C440 N447 1.356 . S
C441 C440 1.363 . S
C441 C444 1.363 . S
N442 C444 1.356 . S
N442 H454 0.984 . S
N442 H455 0.985 . S
N443 C445 1.356 . S
N443 H448 0.984 . S
N443 H449 0.985 . S
C444 C438 1.379 1_455 S
C444 C441 1.363 . S
C444 N442 1.356 . S
C445 C439 1.363 . S
C445 C440 1.379 1_655 S
C445 N443 1.356 . S
N446 C438 1.356 . S
N446 H452 0.984 . S
N446 H453 0.984 . S
N447 C440 1.356 . S
N447 H450 0.984 . S
N447 H451 0.985 . S
H448 N443 0.984 . S
H449 N443 0.985 . S
H450 N447 0.984 . S
H451 N447 0.985 . S
H452 N446 0.984 . S
H453 N446 0.984 . S
H454 N442 0.984 . S
H455 N442 0.985 . S
C456 C457 1.363 1_545 S
C456 C462 1.379 . S
C456 N464 1.356 . S
C457 C456 1.363 1_565 S
C457 C463 1.363 . S
C458 C459 1.363 1_565 S
C458 C463 1.379 . S
C458 N465 1.356 . S
C459 C458 1.363 1_545 S
C459 C462 1.363 . S
N460 C462 1.356 . S
N460 H472 0.984 . S
N460 H473 0.985 . S
N461 C463 1.356 . S
N461 H466 0.984 . S
N461 H467 0.985 . S
C462 C456 1.379 . S
C462 C459 1.363 . S
C462 N460 1.356 . S
C463 C457 1.363 . S
C463 C458 1.379 . S
C463 N461 1.356 . S
N464 C456 1.356 . S
N464 H470 0.984 . S
N464 H471 0.984 . S
N465 C458 1.356 . S
N465 H468 0.984 . S
N465 H469 0.985 . S
H466 N461 0.984 . S
H467 N461 0.985 . S
H468 N465 0.984 . S
H469 N465 0.985 . S
H470 N464 0.984 . S
H471 N464 0.984 . S
H472 N460 0.984 . S
H473 N460 0.985 . S
C474 C475 1.363 . S
C474 C480 1.379 . S
C474 N482 1.356 . S
C475 C474 1.363 . S
C475 C481 1.363 . S
C476 C477 1.363 . S
C476 C481 1.379 . S
C476 N483 1.356 . S
C477 C476 1.363 . S
C477 C480 1.363 . S
N478 C480 1.356 . S
N478 H490 0.984 . S
N478 H491 0.985 . S
N479 C481 1.356 . S
N479 H484 0.984 . S
N479 H485 0.985 . S
C480 C474 1.379 . S
C480 C477 1.363 . S
C480 N478 1.356 . S
C481 C475 1.363 . S
C481 C476 1.379 . S
C481 N479 1.356 . S
N482 C474 1.356 . S
N482 H488 0.984 . S
N482 H489 0.984 . S
N483 C476 1.356 . S
N483 H486 0.984 . S
N483 H487 0.985 . S
H484 N479 0.984 . S
H485 N479 0.985 . S
H486 N483 0.984 . S
H487 N483 0.985 . S
H488 N482 0.984 . S
H489 N482 0.984 . S
H490 N478 0.984 . S
H491 N478 0.985 . S
C492 C493 1.363 . S
C492 C498 1.379 . S
C492 N500 1.356 . S
C493 C492 1.363 . S
C493 C499 1.363 . S
C494 C495 1.363 . S
C494 C499 1.379 . S
C494 N501 1.356 . S
C495 C494 1.363 . S
C495 C498 1.363 . S
N496 C498 1.356 . S
N496 H508 0.984 . S
N496 H509 0.985 . S
N497 C499 1.356 . S
N497 H502 0.984 . S
N497 H503 0.985 . S
C498 C492 1.379 . S
C498 C495 1.363 . S
C498 N496 1.356 . S
C499 C493 1.363 . S
C499 C494 1.379 . S
C499 N497 1.356 . S
N500 C492 1.356 . S
N500 H506 0.984 . S
N500 H507 0.984 . S
N501 C494 1.356 . S
N501 H504 0.984 . S
N501 H505 0.985 . S
H502 N497 0.984 . S
H503 N497 0.985 . S
H504 N501 0.984 . S
H505 N501 0.985 . S
H506 N500 0.984 . S
H507 N500 0.984 . S
H508 N496 0.984 . S
H509 N496 0.985 . S
C510 C511 1.363 . S
C510 C516 1.379 . S
C510 N518 1.356 . S
C511 C510 1.363 . S
C511 C517 1.363 . S
C512 C513 1.363 . S
C512 C517 1.379 . S
C512 N519 1.356 . S
C513 C512 1.363 . S
C513 C516 1.363 . S
N514 C516 1.356 . S
N514 H526 0.984 . S
N514 H527 0.985 . S
N515 C517 1.356 . S
N515 H520 0.984 . S
N515 H521 0.985 . S
C516 C510 1.379 . S
C516 C513 1.363 . S
C516 N514 1.356 . S
C517 C511 1.363 . S
C517 C512 1.379 . S
C517 N515 1.356 . S
N518 C510 1.356 . S
N518 H524 0.984 . S
N518 H525 0.984 . S
N519 C512 1.356 . S
N519 H522 0.984 . S
N519 H523 0.985 . S
H520 N515 0.984 . S
H521 N515 0.985 . S
H522 N519 0.984 . S
H523 N519 0.985 . S
H524 N518 0.984 . S
H525 N518 0.984 . S
H526 N514 0.984 . S
H527 N514 0.985 . S
C528 C529 1.363 . S
C528 C534 1.379 . S
C528 N536 1.356 . S
C529 C528 1.363 . S
C529 C535 1.363 . S
C530 C531 1.363 . S
C530 C535 1.379 . S
C530 N537 1.356 . S
C531 C530 1.363 . S
C531 C534 1.363 . S
N532 C534 1.356 . S
N532 H544 0.984 . S
N532 H545 0.985 . S
N533 C535 1.356 . S
N533 H538 0.984 . S
N533 H539 0.985 . S
C534 C528 1.379 . S
C534 C531 1.363 . S
C534 N532 1.356 . S
C535 C529 1.363 . S
C535 C530 1.379 . S
C535 N533 1.356 . S
N536 C528 1.356 . S
N536 H542 0.984 . S
N536 H543 0.984 . S
N537 C530 1.356 . S
N537 H540 0.984 . S
N537 H541 0.985 . S
H538 N533 0.984 . S
H539 N533 0.985 . S
H540 N537 0.984 . S
H541 N537 0.985 . S
H542 N536 0.984 . S
H543 N536 0.984 . S
H544 N532 0.984 . S
H545 N532 0.985 . S
C546 C547 1.363 . S
C546 C552 1.379 . S
C546 N554 1.356 . S
C547 C546 1.363 . S
C547 C553 1.363 . S
C548 C549 1.363 . S
C548 C553 1.379 . S
C548 N555 1.356 . S
C549 C548 1.363 . S
C549 C552 1.363 . S
N550 C552 1.356 . S
N550 H562 0.984 . S
N550 H563 0.985 . S
N551 C553 1.356 . S
N551 H556 0.984 . S
N551 H557 0.985 . S
C552 C546 1.379 . S
C552 C549 1.363 . S
C552 N550 1.356 . S
C553 C547 1.363 . S
C553 C548 1.379 . S
C553 N551 1.356 . S
N554 C546 1.356 . S
N554 H560 0.984 . S
N554 H561 0.984 . S
N555 C548 1.356 . S
N555 H558 0.984 . S
N555 H559 0.985 . S
H556 N551 0.984 . S
H557 N551 0.985 . S
H558 N555 0.984 . S
H559 N555 0.985 . S
H560 N554 0.984 . S
H561 N554 0.984 . S
H562 N550 0.984 . S
H563 N550 0.985 . S
C564 C565 1.363 . S
C564 C570 1.379 . S
C564 N572 1.356 . S
C565 C564 1.363 . S
C565 C571 1.363 . S
C566 C567 1.363 . S
C566 C571 1.379 . S
C566 N573 1.356 . S
C567 C566 1.363 . S
C567 C570 1.363 . S
N568 C570 1.356 . S
N568 H580 0.984 . S
N568 H581 0.985 . S
N569 C571 1.356 . S
N569 H574 0.984 . S
N569 H575 0.985 . S
C570 C564 1.379 . S
C570 C567 1.363 . S
C570 N568 1.356 . S
C571 C565 1.363 . S
C571 C566 1.379 . S
C571 N569 1.356 . S
N572 C564 1.356 . S
N572 H578 0.984 . S
N572 H579 0.984 . S
N573 C566 1.356 . S
N573 H576 0.984 . S
N573 H577 0.985 . S
H574 N569 0.984 . S
H575 N569 0.985 . S
H576 N573 0.984 . S
H577 N573 0.985 . S
H578 N572 0.984 . S
H579 N572 0.984 . S
H580 N568 0.984 . S
H581 N568 0.985 . S
C582 C583 1.363 . S
C582 C588 1.379 . S
C582 N590 1.356 . S
C583 C582 1.363 . S
C583 C589 1.363 . S
C584 C585 1.363 . S
C584 C589 1.379 . S
C584 N591 1.356 . S
C585 C584 1.363 . S
C585 C588 1.363 . S
N586 C588 1.356 . S
N586 H598 0.984 . S
N586 H599 0.985 . S
N587 C589 1.356 . S
N587 H592 0.984 . S
N587 H593 0.985 . S
C588 C582 1.379 . S
C588 C585 1.363 . S
C588 N586 1.356 . S
C589 C583 1.363 . S
C589 C584 1.379 . S
C589 N587 1.356 . S
N590 C582 1.356 . S
N590 H596 0.984 . S
N590 H597 0.984 . S
N591 C584 1.356 . S
N591 H594 0.984 . S
N591 H595 0.985 . S
H592 N587 0.984 . S
H593 N587 0.985 . S
H594 N591 0.984 . S
H595 N591 0.985 . S
H596 N590 0.984 . S
H597 N590 0.984 . S
H598 N586 0.984 . S
H599 N586 0.985 . S
C169 C4 0.888 1_556 S
C171 C144 1.107 . S
C187 C158 0.999 . S
C189 C18 0.999 . S
C205 C88 0.888 . S
C207 C32 1.108 . S
C223 C46 0.888 1_556 S
C225 C102 1.107 . S
C241 C60 0.999 . S
C243 C116 0.999 . S
C259 C130 0.888 . S
C261 C74 1.108 . S
C277 C11 0.799 . S
C279 C109 0.817 . S
C295 C123 1.032 . S
C297 C25 1.032 . S
C313 C137 0.799 . S
C315 C39 0.817 . S
C331 C53 0.799 . S
C333 C151 0.817 . S
C349 C165 1.032 . S
C351 C67 1.032 . S
C367 C81 0.817 . S
C369 C95 0.799 . S
C385 C54 0.686 . S
C387 C12 0.686 . S
C403 C68 0.931 . S
C405 C26 0.931 . S
C421 C82 1.249 . S
C423 C40 1.249 . S
C439 C96 0.686 . S
C441 C138 0.686 . S
C457 C110 1.249 . S
C459 C152 1.249 . S
C475 C124 0.932 . S
C477 C166 0.932 . S
C493 C117 1.099 . S
C495 C5 1.196 . S
C511 C131 1.197 . S
C513 C19 1.100 . S
C529 C145 1.592 . S
C531 C33 1.592 . S
C547 C159 1.099 . S
C549 C47 1.196 . S
C565 C89 1.197 . S
C567 C61 1.100 . S
C583 C75 1.592 . S
C585 C103 1.592 . S
