# Generated by pormake.
# Topology uli, (4)-cn, num edge types: 1
# Building blocks:
#     Node 0, Type 0, BuildingBlock: TATPOV_clean_sbu_0, # of connection points: 4
#     Node 1, Type 0, BuildingBlock: TATPOV_clean_sbu_0, # of connection points: 4
#     Node 2, Type 0, BuildingBlock: TATPOV_clean_sbu_0, # of connection points: 4
#     Node 3, Type 0, BuildingBlock: TATPOV_clean_sbu_0, # of connection points: 4
#     Node 4, Type 0, BuildingBlock: TATPOV_clean_sbu_0, # of connection points: 4
#     Node 5, Type 0, BuildingBlock: TATPOV_clean_sbu_0, # of connection points: 4
#     Node 6, Type 0, BuildingBlock: TATPOV_clean_sbu_0, # of connection points: 4
#     Node 7, Type 0, BuildingBlock: TATPOV_clean_sbu_0, # of connection points: 4
#     Node 8, Type 0, BuildingBlock: TATPOV_clean_sbu_0, # of connection points: 4
#     Node 9, Type 0, BuildingBlock: TATPOV_clean_sbu_0, # of connection points: 4
#     Node 10, Type 0, BuildingBlock: TATPOV_clean_sbu_0, # of connection points: 4
#     Node 11, Type 0, BuildingBlock: TATPOV_clean_sbu_0, # of connection points: 4
#     Node 12, Type 0, BuildingBlock: TATPOV_clean_sbu_0, # of connection points: 4
#     Node 13, Type 0, BuildingBlock: TATPOV_clean_sbu_0, # of connection points: 4
#     Node 14, Type 0, BuildingBlock: TATPOV_clean_sbu_0, # of connection points: 4
#     Node 15, Type 0, BuildingBlock: TATPOV_clean_sbu_0, # of connection points: 4
#     Node 16, Type 0, BuildingBlock: TATPOV_clean_sbu_0, # of connection points: 4
#     Node 17, Type 0, BuildingBlock: TATPOV_clean_sbu_0, # of connection points: 4
#     Node 18, Type 0, BuildingBlock: TATPOV_clean_sbu_0, # of connection points: 4
#     Node 19, Type 0, BuildingBlock: TATPOV_clean_sbu_0, # of connection points: 4
#     Node 20, Type 0, BuildingBlock: TATPOV_clean_sbu_0, # of connection points: 4
#     Node 21, Type 0, BuildingBlock: TATPOV_clean_sbu_0, # of connection points: 4
#     Node 22, Type 0, BuildingBlock: TATPOV_clean_sbu_0, # of connection points: 4
#     Node 23, Type 0, BuildingBlock: TATPOV_clean_sbu_0, # of connection points: 4
#     Node 24, Type 0, BuildingBlock: TATPOV_clean_sbu_0, # of connection points: 4
#     Node 25, Type 0, BuildingBlock: TATPOV_clean_sbu_0, # of connection points: 4
#     Node 26, Type 0, BuildingBlock: TATPOV_clean_sbu_0, # of connection points: 4
#     Node 27, Type 0, BuildingBlock: TATPOV_clean_sbu_0, # of connection points: 4
#     Node 28, Type 0, BuildingBlock: TATPOV_clean_sbu_0, # of connection points: 4
#     Node 29, Type 0, BuildingBlock: TATPOV_clean_sbu_0, # of connection points: 4
#     Node 30, Type 0, BuildingBlock: TATPOV_clean_sbu_0, # of connection points: 4
#     Node 31, Type 0, BuildingBlock: TATPOV_clean_sbu_0, # of connection points: 4
#     Node 32, Type 0, BuildingBlock: TATPOV_clean_sbu_0, # of connection points: 4
#     Node 33, Type 0, BuildingBlock: TATPOV_clean_sbu_0, # of connection points: 4
#     Node 34, Type 0, BuildingBlock: TATPOV_clean_sbu_0, # of connection points: 4
#     Node 35, Type 0, BuildingBlock: TATPOV_clean_sbu_0, # of connection points: 4
#     Node 36, Type 0, BuildingBlock: TATPOV_clean_sbu_0, # of connection points: 4
#     Node 37, Type 0, BuildingBlock: TATPOV_clean_sbu_0, # of connection points: 4
#     Node 38, Type 0, BuildingBlock: TATPOV_clean_sbu_0, # of connection points: 4
#     Node 39, Type 0, BuildingBlock: TATPOV_clean_sbu_0, # of connection points: 4
#     Node 40, Type 0, BuildingBlock: TATPOV_clean_sbu_0, # of connection points: 4
#     Node 41, Type 0, BuildingBlock: TATPOV_clean_sbu_0, # of connection points: 4
#     Node 42, Type 0, BuildingBlock: TATPOV_clean_sbu_0, # of connection points: 4
#     Node 43, Type 0, BuildingBlock: TATPOV_clean_sbu_0, # of connection points: 4
#     Node 44, Type 0, BuildingBlock: TATPOV_clean_sbu_0, # of connection points: 4
#     Node 45, Type 0, BuildingBlock: TATPOV_clean_sbu_0, # of connection points: 4
#     Node 46, Type 0, BuildingBlock: TATPOV_clean_sbu_0, # of connection points: 4
#     Node 47, Type 0, BuildingBlock: TATPOV_clean_sbu_0, # of connection points: 4
#     Edge 48, Type (0, 0), BuildingBlock: OJICUG_clean_linker_0, # of connection points: 2
#     Edge 49, Type (0, 0), BuildingBlock: OJICUG_clean_linker_0, # of connection points: 2
#     Edge 50, Type (0, 0), BuildingBlock: OJICUG_clean_linker_0, # of connection points: 2
#     Edge 51, Type (0, 0), BuildingBlock: OJICUG_clean_linker_0, # of connection points: 2
#     Edge 52, Type (0, 0), BuildingBlock: OJICUG_clean_linker_0, # of connection points: 2
#     Edge 53, Type (0, 0), BuildingBlock: OJICUG_clean_linker_0, # of connection points: 2
#     Edge 54, Type (0, 0), BuildingBlock: OJICUG_clean_linker_0, # of connection points: 2
#     Edge 55, Type (0, 0), BuildingBlock: OJICUG_clean_linker_0, # of connection points: 2
#     Edge 56, Type (0, 0), BuildingBlock: OJICUG_clean_linker_0, # of connection points: 2
#     Edge 57, Type (0, 0), BuildingBlock: OJICUG_clean_linker_0, # of connection points: 2
#     Edge 58, Type (0, 0), BuildingBlock: OJICUG_clean_linker_0, # of connection points: 2
#     Edge 59, Type (0, 0), BuildingBlock: OJICUG_clean_linker_0, # of connection points: 2
#     Edge 60, Type (0, 0), BuildingBlock: OJICUG_clean_linker_0, # of connection points: 2
#     Edge 61, Type (0, 0), BuildingBlock: OJICUG_clean_linker_0, # of connection points: 2
#     Edge 62, Type (0, 0), BuildingBlock: OJICUG_clean_linker_0, # of connection points: 2
#     Edge 63, Type (0, 0), BuildingBlock: OJICUG_clean_linker_0, # of connection points: 2
#     Edge 64, Type (0, 0), BuildingBlock: OJICUG_clean_linker_0, # of connection points: 2
#     Edge 65, Type (0, 0), BuildingBlock: OJICUG_clean_linker_0, # of connection points: 2
#     Edge 66, Type (0, 0), BuildingBlock: OJICUG_clean_linker_0, # of connection points: 2
#     Edge 67, Type (0, 0), BuildingBlock: OJICUG_clean_linker_0, # of connection points: 2
#     Edge 68, Type (0, 0), BuildingBlock: OJICUG_clean_linker_0, # of connection points: 2
#     Edge 69, Type (0, 0), BuildingBlock: OJICUG_clean_linker_0, # of connection points: 2
#     Edge 70, Type (0, 0), BuildingBlock: OJICUG_clean_linker_0, # of connection points: 2
#     Edge 71, Type (0, 0), BuildingBlock: OJICUG_clean_linker_0, # of connection points: 2
#     Edge 72, Type (0, 0), BuildingBlock: OJICUG_clean_linker_0, # of connection points: 2
#     Edge 73, Type (0, 0), BuildingBlock: OJICUG_clean_linker_0, # of connection points: 2
#     Edge 74, Type (0, 0), BuildingBlock: OJICUG_clean_linker_0, # of connection points: 2
#     Edge 75, Type (0, 0), BuildingBlock: OJICUG_clean_linker_0, # of connection points: 2
#     Edge 76, Type (0, 0), BuildingBlock: OJICUG_clean_linker_0, # of connection points: 2
#     Edge 77, Type (0, 0), BuildingBlock: OJICUG_clean_linker_0, # of connection points: 2
#     Edge 78, Type (0, 0), BuildingBlock: OJICUG_clean_linker_0, # of connection points: 2
#     Edge 79, Type (0, 0), BuildingBlock: OJICUG_clean_linker_0, # of connection points: 2
#     Edge 80, Type (0, 0), BuildingBlock: OJICUG_clean_linker_0, # of connection points: 2
#     Edge 81, Type (0, 0), BuildingBlock: OJICUG_clean_linker_0, # of connection points: 2
#     Edge 82, Type (0, 0), BuildingBlock: OJICUG_clean_linker_0, # of connection points: 2
#     Edge 83, Type (0, 0), BuildingBlock: OJICUG_clean_linker_0, # of connection points: 2
#     Edge 84, Type (0, 0), BuildingBlock: OJICUG_clean_linker_0, # of connection points: 2
#     Edge 85, Type (0, 0), BuildingBlock: OJICUG_clean_linker_0, # of connection points: 2
#     Edge 86, Type (0, 0), BuildingBlock: OJICUG_clean_linker_0, # of connection points: 2
#     Edge 87, Type (0, 0), BuildingBlock: OJICUG_clean_linker_0, # of connection points: 2
#     Edge 88, Type (0, 0), BuildingBlock: OJICUG_clean_linker_0, # of connection points: 2
#     Edge 89, Type (0, 0), BuildingBlock: OJICUG_clean_linker_0, # of connection points: 2
#     Edge 90, Type (0, 0), BuildingBlock: OJICUG_clean_linker_0, # of connection points: 2
#     Edge 91, Type (0, 0), BuildingBlock: OJICUG_clean_linker_0, # of connection points: 2
#     Edge 92, Type (0, 0), BuildingBlock: OJICUG_clean_linker_0, # of connection points: 2
#     Edge 93, Type (0, 0), BuildingBlock: OJICUG_clean_linker_0, # of connection points: 2
#     Edge 94, Type (0, 0), BuildingBlock: OJICUG_clean_linker_0, # of connection points: 2
#     Edge 95, Type (0, 0), BuildingBlock: OJICUG_clean_linker_0, # of connection points: 2
#     Edge 96, Type (0, 0), BuildingBlock: OJICUG_clean_linker_0, # of connection points: 2
#     Edge 97, Type (0, 0), BuildingBlock: OJICUG_clean_linker_0, # of connection points: 2
#     Edge 98, Type (0, 0), BuildingBlock: OJICUG_clean_linker_0, # of connection points: 2
#     Edge 99, Type (0, 0), BuildingBlock: OJICUG_clean_linker_0, # of connection points: 2
#     Edge 100, Type (0, 0), BuildingBlock: OJICUG_clean_linker_0, # of connection points: 2
#     Edge 101, Type (0, 0), BuildingBlock: OJICUG_clean_linker_0, # of connection points: 2
#     Edge 102, Type (0, 0), BuildingBlock: OJICUG_clean_linker_0, # of connection points: 2
#     Edge 103, Type (0, 0), BuildingBlock: OJICUG_clean_linker_0, # of connection points: 2
#     Edge 104, Type (0, 0), BuildingBlock: OJICUG_clean_linker_0, # of connection points: 2
#     Edge 105, Type (0, 0), BuildingBlock: OJICUG_clean_linker_0, # of connection points: 2
#     Edge 106, Type (0, 0), BuildingBlock: OJICUG_clean_linker_0, # of connection points: 2
#     Edge 107, Type (0, 0), BuildingBlock: OJICUG_clean_linker_0, # of connection points: 2
#     Edge 108, Type (0, 0), BuildingBlock: OJICUG_clean_linker_0, # of connection points: 2
#     Edge 109, Type (0, 0), BuildingBlock: OJICUG_clean_linker_0, # of connection points: 2
#     Edge 110, Type (0, 0), BuildingBlock: OJICUG_clean_linker_0, # of connection points: 2
#     Edge 111, Type (0, 0), BuildingBlock: OJICUG_clean_linker_0, # of connection points: 2
#     Edge 112, Type (0, 0), BuildingBlock: OJICUG_clean_linker_0, # of connection points: 2
#     Edge 113, Type (0, 0), BuildingBlock: OJICUG_clean_linker_0, # of connection points: 2
#     Edge 114, Type (0, 0), BuildingBlock: OJICUG_clean_linker_0, # of connection points: 2
#     Edge 115, Type (0, 0), BuildingBlock: OJICUG_clean_linker_0, # of connection points: 2
#     Edge 116, Type (0, 0), BuildingBlock: OJICUG_clean_linker_0, # of connection points: 2
#     Edge 117, Type (0, 0), BuildingBlock: OJICUG_clean_linker_0, # of connection points: 2
#     Edge 118, Type (0, 0), BuildingBlock: OJICUG_clean_linker_0, # of connection points: 2
#     Edge 119, Type (0, 0), BuildingBlock: OJICUG_clean_linker_0, # of connection points: 2
#     Edge 120, Type (0, 0), BuildingBlock: OJICUG_clean_linker_0, # of connection points: 2
#     Edge 121, Type (0, 0), BuildingBlock: OJICUG_clean_linker_0, # of connection points: 2
#     Edge 122, Type (0, 0), BuildingBlock: OJICUG_clean_linker_0, # of connection points: 2
#     Edge 123, Type (0, 0), BuildingBlock: OJICUG_clean_linker_0, # of connection points: 2
#     Edge 124, Type (0, 0), BuildingBlock: OJICUG_clean_linker_0, # of connection points: 2
#     Edge 125, Type (0, 0), BuildingBlock: OJICUG_clean_linker_0, # of connection points: 2
#     Edge 126, Type (0, 0), BuildingBlock: OJICUG_clean_linker_0, # of connection points: 2
#     Edge 127, Type (0, 0), BuildingBlock: OJICUG_clean_linker_0, # of connection points: 2
#     Edge 128, Type (0, 0), BuildingBlock: OJICUG_clean_linker_0, # of connection points: 2
#     Edge 129, Type (0, 0), BuildingBlock: OJICUG_clean_linker_0, # of connection points: 2
#     Edge 130, Type (0, 0), BuildingBlock: OJICUG_clean_linker_0, # of connection points: 2
#     Edge 131, Type (0, 0), BuildingBlock: OJICUG_clean_linker_0, # of connection points: 2
#     Edge 132, Type (0, 0), BuildingBlock: OJICUG_clean_linker_0, # of connection points: 2
#     Edge 133, Type (0, 0), BuildingBlock: OJICUG_clean_linker_0, # of connection points: 2
#     Edge 134, Type (0, 0), BuildingBlock: OJICUG_clean_linker_0, # of connection points: 2
#     Edge 135, Type (0, 0), BuildingBlock: OJICUG_clean_linker_0, # of connection points: 2
#     Edge 136, Type (0, 0), BuildingBlock: OJICUG_clean_linker_0, # of connection points: 2
#     Edge 137, Type (0, 0), BuildingBlock: OJICUG_clean_linker_0, # of connection points: 2
#     Edge 138, Type (0, 0), BuildingBlock: OJICUG_clean_linker_0, # of connection points: 2
#     Edge 139, Type (0, 0), BuildingBlock: OJICUG_clean_linker_0, # of connection points: 2
#     Edge 140, Type (0, 0), BuildingBlock: OJICUG_clean_linker_0, # of connection points: 2
#     Edge 141, Type (0, 0), BuildingBlock: OJICUG_clean_linker_0, # of connection points: 2
#     Edge 142, Type (0, 0), BuildingBlock: OJICUG_clean_linker_0, # of connection points: 2
#     Edge 143, Type (0, 0), BuildingBlock: OJICUG_clean_linker_0, # of connection points: 2
# Relax obj value: 0.404
# Max RMSD: 0.198
# Mean RMSD: 0.198
data_MOF--net-uli--node1-TATPOV_clean_sbu_0--edge1-OJICUG_clean_linker_0
_symmetry_space_group_name_H-M    P1
_symmetry_Int_Tables_number       1
_symmetry_cell_setting            triclinic
loop_
_symmetry_equiv_pos_as_xyz
'x, y, z'
_cell_length_a     49.596415
_cell_length_b     49.338463
_cell_length_c     49.286486
_cell_angle_alpha  90.041188
_cell_angle_beta   89.866262
_cell_angle_gamma 90.007096
loop_
_atom_site_label
_atom_site_type_symbol
_atom_site_fract_x
_atom_site_fract_y
_atom_site_fract_z
_atom_type_partial_charge
Zn0 Zn 0.13056 0.27106 0.26619 0.0
Zn1 Zn 0.09531 0.26202 0.23245 0.0
O2 O 0.10509 0.22722 0.25372 0.0
O3 O 0.13306 0.23599 0.28667 0.0
O4 O 0.0574 0.25284 0.22269 0.0
O5 O 0.11512 0.30389 0.28435 0.0
O6 O 0.09526 0.30243 0.24496 0.0
C7 C 0.11887 0.21908 0.27384 0.0
C8 C 0.14406 0.27141 0.20522 0.0
O9 O 0.12038 0.26267 0.20046 0.0
O10 O 0.15139 0.27639 0.22952 0.0
C11 C 0.05306 0.22849 0.21545 0.0
O12 O 0.07355 0.21342 0.20779 0.0
C13 C 0.10294 0.31612 0.26551 0.0
Zn14 Zn 0.73745 0.12842 0.2807 0.0
Zn15 Zn 0.73795 0.09155 0.24455 0.0
O16 O 0.76818 0.08653 0.27289 0.0
O17 O 0.76281 0.11252 0.30831 0.0
O18 O 0.73766 0.05449 0.22807 0.0
O19 O 0.69731 0.12871 0.28607 0.0
O20 O 0.69782 0.10131 0.25104 0.0
C21 C 0.77621 0.09443 0.29611 0.0
C22 C 0.75748 0.14309 0.22463 0.0
O23 O 0.75184 0.11888 0.21769 0.0
O24 O 0.75369 0.15087 0.24898 0.0
C25 C 0.75996 0.04337 0.22179 0.0
O26 O 0.78193 0.05826 0.22137 0.0
C27 C 0.6847 0.116 0.26777 0.0
Zn28 Zn 0.87468 0.70948 0.25637 0.0
Zn29 Zn 0.90206 0.73218 0.22343 0.0
O30 O 0.88249 0.75955 0.24941 0.0
O31 O 0.86347 0.73775 0.28294 0.0
O32 O 0.93804 0.7497 0.21444 0.0
O33 O 0.89742 0.67801 0.26802 0.0
O34 O 0.90946 0.69036 0.22736 0.0
C35 C 0.86877 0.7599 0.27133 0.0
C36 C 0.8558 0.71597 0.197 0.0
O37 O 0.87635 0.73078 0.1923 0.0
O38 O 0.8523 0.70562 0.22049 0.0
C39 C 0.94246 0.77467 0.21933 0.0
O40 O 0.92236 0.79017 0.22711 0.0
C41 C 0.90741 0.67176 0.24526 0.0
Zn42 Zn 0.30183 0.8603 0.27368 0.0
Zn43 Zn 0.29104 0.89818 0.24426 0.0
O44 O 0.25553 0.88431 0.26274 0.0
O45 O 0.26662 0.85182 0.29075 0.0
O46 O 0.28276 0.9375 0.23728 0.0
O47 O 0.33135 0.87608 0.29639 0.0
O48 O 0.33072 0.89935 0.2589 0.0
C49 C 0.24866 0.86635 0.28002 0.0
C50 C 0.30506 0.85227 0.21259 0.0
O51 O 0.29452 0.87572 0.21009 0.0
O52 O 0.31062 0.84312 0.2361 0.0
C53 C 0.25924 0.94606 0.23172 0.0
O54 O 0.24003 0.9285 0.22643 0.0
C55 C 0.34362 0.89103 0.27967 0.0
Zn56 Zn 0.12243 0.78446 0.85065 0.0
Zn57 Zn 0.08381 0.76075 0.82848 0.0
O58 O 0.08414 0.8012 0.81571 0.0
O59 O 0.12002 0.82051 0.83288 0.0
O60 O 0.04644 0.75013 0.81712 0.0
O61 O 0.14257 0.75158 0.83394 0.0
O62 O 0.11016 0.73735 0.80697 0.0
C63 C 0.09907 0.82206 0.81849 0.0
C64 C 0.10055 0.75683 0.8895 0.0
O65 O 0.09037 0.74674 0.86797 0.0
O66 O 0.10817 0.78123 0.88866 0.0
C67 C 0.0273 0.76466 0.82627 0.0
O68 O 0.03261 0.78312 0.84473 0.0
C69 C 0.13412 0.73514 0.81593 0.0
Zn70 Zn 0.25394 0.12321 0.72453 0.0
Zn71 Zn 0.25555 0.0977 0.76632 0.0
O72 O 0.21939 0.09367 0.74546 0.0
O73 O 0.22264 0.1078 0.70368 0.0
O74 O 0.25773 0.06129 0.78429 0.0
O75 O 0.29198 0.12081 0.71103 0.0
O76 O 0.29417 0.10875 0.75363 0.0
C77 C 0.20866 0.09707 0.72226 0.0
C78 C 0.24373 0.151 0.7797 0.0
O79 O 0.24716 0.12823 0.79139 0.0
O80 O 0.24551 0.15273 0.75392 0.0
C81 C 0.23657 0.05284 0.7962 0.0
O82 O 0.21745 0.07037 0.802 0.0
C83 C 0.30591 0.11705 0.73213 0.0
Zn84 Zn 0.84181 0.29199 0.73089 0.0
Zn85 Zn 0.87815 0.2717 0.75738 0.0
O86 O 0.8609 0.24142 0.73353 0.0
O87 O 0.82845 0.26031 0.71021 0.0
O88 O 0.91407 0.25515 0.76524 0.0
O89 O 0.86301 0.32054 0.71154 0.0
O90 O 0.88755 0.31185 0.74705 0.0
C91 C 0.84152 0.23937 0.71672 0.0
C92 C 0.83371 0.28817 0.79108 0.0
O93 O 0.85522 0.27406 0.79129 0.0
O94 O 0.82562 0.29881 0.76903 0.0
C95 C 0.91717 0.23115 0.77405 0.0
O96 O 0.89605 0.2171 0.78189 0.0
C97 C 0.88104 0.32799 0.72794 0.0
Zn98 Zn 0.71584 0.85934 0.84194 0.0
Zn99 Zn 0.73763 0.89273 0.81052 0.0
O100 O 0.75697 0.86201 0.79164 0.0
O101 O 0.73994 0.8323 0.82043 0.0
O102 O 0.749 0.92818 0.79292 0.0
O103 O 0.67726 0.86314 0.83194 0.0
O104 O 0.69687 0.8882 0.801 0.0
C105 C 0.75534 0.83777 0.80046 0.0
C106 C 0.75216 0.8827 0.87213 0.0
O107 O 0.75624 0.89105 0.84798 0.0
O108 O 0.72943 0.87257 0.87778 0.0
C109 C 0.75449 0.94888 0.80731 0.0
O110 O 0.75337 0.94683 0.83386 0.0
C111 C 0.67571 0.87662 0.81024 0.0
Zn112 Zn 0.23347 0.15626 0.27771 0.0
Zn113 Zn 0.23727 0.11046 0.27737 0.0
O114 O 0.25217 0.12547 0.24057 0.0
O115 O 0.26723 0.16374 0.25679 0.0
O116 O 0.24315 0.07034 0.27295 0.0
O117 O 0.23367 0.15859 0.31818 0.0
O118 O 0.25831 0.12226 0.31219 0.0
C119 C 0.26645 0.14675 0.23765 0.0
C120 C 0.18421 0.13552 0.2694 0.0
O121 O 0.19617 0.11708 0.28282 0.0
O122 O 0.19832 0.15336 0.25775 0.0
C123 C 0.23072 0.05741 0.25448 0.0
O124 O 0.21248 0.07006 0.23992 0.0
C125 C 0.25045 0.14171 0.32739 0.0
Zn126 Zn 0.85071 0.18632 0.249 0.0
Zn127 Zn 0.90084 0.18253 0.26391 0.0
O128 O 0.89982 0.18834 0.22226 0.0
O129 O 0.85791 0.18378 0.20902 0.0
O130 O 0.94066 0.18642 0.2681 0.0
O131 O 0.84709 0.22256 0.26836 0.0
O132 O 0.88594 0.2133 0.28783 0.0
C133 C 0.88256 0.18681 0.20329 0.0
C134 C 0.86443 0.13784 0.28059 0.0
O135 O 0.88897 0.14529 0.27894 0.0
O136 O 0.8458 0.15214 0.27042 0.0
C137 C 0.95546 0.17517 0.25025 0.0
O138 O 0.94503 0.15622 0.23474 0.0
C139 C 0.86488 0.22793 0.28595 0.0
Zn140 Zn 0.72786 0.84334 0.294 0.0
Zn141 Zn 0.75082 0.88221 0.27423 0.0
O142 O 0.72739 0.86432 0.24397 0.0
O143 O 0.70612 0.83038 0.26291 0.0
O144 O 0.75448 0.92006 0.26013 0.0
O145 O 0.7093 0.86092 0.32553 0.0
O146 O 0.74298 0.88749 0.31578 0.0
C147 C 0.71132 0.84424 0.24205 0.0
C148 C 0.78813 0.83993 0.28654 0.0
O149 O 0.78625 0.86214 0.27351 0.0
O150 O 0.76727 0.82962 0.29758 0.0
C151 C 0.77135 0.92961 0.24323 0.0
O152 O 0.79104 0.9143 0.23407 0.0
C153 C 0.72583 0.87883 0.33307 0.0
Zn154 Zn 0.1336 0.74855 0.27796 0.0
Zn155 Zn 0.10608 0.78084 0.25518 0.0
O156 O 0.12718 0.75717 0.22688 0.0
O157 O 0.14797 0.72489 0.2488 0.0
O158 O 0.0711 0.78831 0.23596 0.0
O159 O 0.10917 0.73343 0.30666 0.0
O160 O 0.09495 0.77369 0.29574 0.0
C161 C 0.14249 0.7364 0.22665 0.0
C162 C 0.15045 0.80841 0.27564 0.0
O163 O 0.13065 0.81286 0.25978 0.0
O164 O 0.15411 0.78475 0.28539 0.0
C165 C 0.05185 0.80243 0.2454 0.0
O166 O 0.05558 0.81634 0.26783 0.0
C167 C 0.0964 0.75461 0.31315 0.0
Zn168 Zn 0.16131 0.86522 0.71059 0.0
Zn169 Zn 0.18791 0.9017 0.73627 0.0
O170 O 0.20292 0.87079 0.75829 0.0
O171 O 0.17741 0.83955 0.73932 0.0
O172 O 0.20472 0.93531 0.75224 0.0
O173 O 0.17927 0.87023 0.67468 0.0
O174 O 0.20315 0.90023 0.697 0.0
C175 C 0.19451 0.84645 0.75722 0.0
C176 C 0.12515 0.89267 0.73985 0.0
O177 O 0.14777 0.90235 0.74748 0.0
O178 O 0.12421 0.87938 0.71792 0.0
C179 C 0.19814 0.94528 0.77512 0.0
O180 O 0.17908 0.9336 0.7895 0.0
C181 C 0.19838 0.88716 0.67518 0.0
Zn182 Zn 0.12374 0.20449 0.75129 0.0
Zn183 Zn 0.07783 0.19159 0.74691 0.0
O184 O 0.0818 0.20896 0.7856 0.0
O185 O 0.12526 0.20489 0.7918 0.0
O186 O 0.03764 0.19005 0.74417 0.0
O187 O 0.12096 0.23892 0.72933 0.0
O188 O 0.08814 0.21441 0.71287 0.0
C189 C 0.10214 0.20986 0.80131 0.0
C190 C 0.11751 0.15014 0.73255 0.0
O191 O 0.09382 0.15292 0.74231 0.0
O192 O 0.13327 0.17027 0.73161 0.0
C193 C 0.02282 0.1834 0.76417 0.0
O194 O 0.03394 0.1726 0.78577 0.0
C195 C 0.10471 0.23398 0.71022 0.0
Zn196 Zn 0.71889 0.12647 0.70202 0.0
Zn197 Zn 0.75154 0.09612 0.72013 0.0
O198 O 0.72784 0.11348 0.75105 0.0
O199 O 0.69442 0.1357 0.73266 0.0
O200 O 0.76113 0.05876 0.73411 0.0
O201 O 0.70524 0.10782 0.66866 0.0
O202 O 0.74523 0.09227 0.67816 0.0
C203 C 0.70673 0.12806 0.7537 0.0
C204 C 0.77813 0.1439 0.70734 0.0
O205 O 0.78297 0.12156 0.71938 0.0
O206 O 0.75443 0.14894 0.6987 0.0
C207 C 0.76596 0.05519 0.75919 0.0
O208 O 0.76732 0.07646 0.77519 0.0
C209 C 0.72692 0.097 0.6606 0.0
Zn210 Zn 0.84113 0.6964 0.7468 0.0
Zn211 Zn 0.88179 0.73241 0.74843 0.0
O212 O 0.88601 0.7028 0.77682 0.0
O213 O 0.85596 0.67052 0.77553 0.0
O214 O 0.91718 0.75081 0.75527 0.0
O215 O 0.84843 0.69285 0.70607 0.0
O216 O 0.8794 0.72476 0.70774 0.0
C217 C 0.8767 0.68079 0.78636 0.0
C218 C 0.82698 0.75301 0.76307 0.0
O219 O 0.85178 0.75843 0.75901 0.0
O220 O 0.81827 0.72897 0.75993 0.0
C221 C 0.92079 0.75814 0.77975 0.0
O222 O 0.9002 0.7577 0.79658 0.0
C223 C 0.86481 0.70856 0.69401 0.0
Zn224 Zn 0.28431 0.27005 0.12977 0.0
Zn225 Zn 0.27296 0.23787 0.09902 0.0
O226 O 0.23884 0.25605 0.11767 0.0
O227 O 0.25252 0.29245 0.13892 0.0
O228 O 0.26439 0.23462 0.05913 0.0
O229 O 0.31786 0.28734 0.1149 0.0
O230 O 0.3149 0.24485 0.10361 0.0
C231 C 0.23349 0.2769 0.13213 0.0
C232 C 0.28143 0.20803 0.14303 0.0
O233 O 0.27236 0.2033 0.1193 0.0
O234 O 0.28731 0.23228 0.15008 0.0
C235 C 0.24171 0.22584 0.05098 0.0
O236 O 0.22443 0.21633 0.06884 0.0
C237 C 0.32957 0.26524 0.1096 0.0
Zn238 Zn 0.22816 0.7115 0.86079 0.0
Zn239 Zn 0.24805 0.74775 0.88741 0.0
O240 O 0.21164 0.73296 0.90297 0.0
O241 O 0.20132 0.69356 0.88604 0.0
O242 O 0.26379 0.76253 0.922 0.0
O243 O 0.26097 0.69237 0.84811 0.0
O244 O 0.27937 0.72888 0.86536 0.0
C245 C 0.19592 0.71253 0.90234 0.0
C246 C 0.22292 0.76971 0.84105 0.0
O247 O 0.23647 0.77688 0.86178 0.0
O248 O 0.21695 0.74484 0.83753 0.0
C249 C 0.24846 0.7772 0.93667 0.0
O250 O 0.22609 0.7867 0.92606 0.0
C251 C 0.28135 0.7075 0.85086 0.0
Zn252 Zn 0.18222 0.2965 0.84857 0.0
Zn253 Zn 0.20324 0.27691 0.89049 0.0
O254 O 0.22035 0.24925 0.86562 0.0
O255 O 0.19903 0.26362 0.82922 0.0
O256 O 0.21556 0.26643 0.92819 0.0
O257 O 0.20045 0.33181 0.848 0.0
O258 O 0.22093 0.31513 0.88379 0.0
C259 C 0.21461 0.24666 0.84061 0.0
C260 C 0.14129 0.27547 0.87587 0.0
O261 O 0.16223 0.26722 0.88846 0.0
O262 O 0.14367 0.29509 0.85962 0.0
C263 C 0.20564 0.24659 0.94133 0.0
O264 O 0.18618 0.23224 0.93038 0.0
C265 C 0.21778 0.33418 0.86653 0.0
Zn266 Zn 0.6931 0.25942 0.8584 0.0
Zn267 Zn 0.71183 0.2291 0.89248 0.0
O268 O 0.7425 0.25464 0.87761 0.0
O269 O 0.72404 0.28268 0.84868 0.0
O270 O 0.72428 0.21832 0.93004 0.0
O271 O 0.66251 0.2759 0.8792 0.0
O272 O 0.67062 0.23695 0.89809 0.0
C273 C 0.74477 0.27414 0.86073 0.0
C274 C 0.69863 0.19979 0.8444 0.0
O275 O 0.71149 0.19724 0.86663 0.0
O276 O 0.68852 0.22267 0.83803 0.0
C277 C 0.74886 0.21958 0.93725 0.0
O278 O 0.76735 0.22523 0.91898 0.0
C279 C 0.65408 0.25608 0.89296 0.0
Zn280 Zn 0.82855 0.75112 0.85711 0.0
Zn281 Zn 0.81293 0.73697 0.90478 0.0
O282 O 0.81316 0.77892 0.90351 0.0
O283 O 0.82191 0.79095 0.86163 0.0
O284 O 0.80214 0.73158 0.94361 0.0
O285 O 0.79964 0.72424 0.84323 0.0
O286 O 0.78183 0.72043 0.884 0.0
C287 C 0.81619 0.79741 0.88579 0.0
C288 C 0.86558 0.71615 0.87952 0.0
O289 O 0.84594 0.71257 0.89588 0.0
O290 O 0.86575 0.73712 0.86479 0.0
C291 C 0.81215 0.74712 0.96153 0.0
O292 O 0.83256 0.76282 0.955 0.0
C293 C 0.78146 0.71484 0.85881 0.0
Zn294 Zn 0.70621 0.71676 0.13774 0.0
Zn295 Zn 0.71853 0.74881 0.10295 0.0
O296 O 0.75277 0.73034 0.11898 0.0
O297 O 0.74069 0.69814 0.14678 0.0
O298 O 0.73132 0.75713 0.06528 0.0
O299 O 0.67589 0.69647 0.12029 0.0
O300 O 0.67855 0.73529 0.09942 0.0
C301 C 0.75918 0.71143 0.13527 0.0
C302 C 0.70359 0.77764 0.1494 0.0
O303 O 0.71432 0.78182 0.12627 0.0
O304 O 0.69813 0.75354 0.15696 0.0
C305 C 0.75538 0.76554 0.06232 0.0
O306 O 0.76903 0.77312 0.08385 0.0
C307 C 0.66461 0.71464 0.10632 0.0
Zn308 Zn 0.28381 0.71339 0.13834 0.0
Zn309 Zn 0.25866 0.73228 0.10194 0.0
O310 O 0.28141 0.76289 0.12088 0.0
O311 O 0.30873 0.74286 0.14923 0.0
O312 O 0.25662 0.74309 0.06252 0.0
O313 O 0.29819 0.67824 0.12401 0.0
O314 O 0.26263 0.68982 0.10087 0.0
C315 C 0.30004 0.76442 0.13865 0.0
C316 C 0.22307 0.72386 0.14481 0.0
O317 O 0.22329 0.73518 0.12156 0.0
O318 O 0.24471 0.71371 0.15439 0.0
C319 C 0.24908 0.76582 0.05307 0.0
O320 O 0.2399 0.78455 0.06965 0.0
C321 C 0.27856 0.67131 0.10927 0.0
Zn322 Zn 0.83254 0.26986 0.13158 0.0
Zn323 Zn 0.80759 0.24634 0.09697 0.0
O324 O 0.79033 0.21963 0.12175 0.0
O325 O 0.81408 0.23892 0.15432 0.0
O326 O 0.79744 0.23818 0.05818 0.0
O327 O 0.81636 0.30652 0.13296 0.0
O328 O 0.78819 0.2822 0.10895 0.0
C329 C 0.79755 0.22069 0.14651 0.0
C330 C 0.86958 0.24114 0.11152 0.0
O331 O 0.84702 0.23325 0.10198 0.0
O332 O 0.87111 0.26508 0.12045 0.0
C333 C 0.77463 0.22873 0.05124 0.0
O334 O 0.75633 0.22409 0.06999 0.0
C335 C 0.7934 0.30374 0.12237 0.0
Zn336 Zn 0.65083 0.77283 0.70512 0.0
Zn337 Zn 0.59831 0.7741 0.70001 0.0
O338 O 0.60901 0.73805 0.71848 0.0
O339 O 0.65307 0.73391 0.71739 0.0
O340 O 0.55852 0.76669 0.69952 0.0
O341 O 0.64729 0.80391 0.73106 0.0
O342 O 0.60344 0.80779 0.7244 0.0
C343 C 0.63015 0.72421 0.72294 0.0
C344 C 0.63429 0.7844 0.65077 0.0
O345 O 0.61044 0.78033 0.6597 0.0
O346 O 0.65438 0.78239 0.66636 0.0
C347 C 0.55264 0.74402 0.68875 0.0
O348 O 0.57137 0.73109 0.67497 0.0
C349 C 0.62524 0.81621 0.73511 0.0
Zn350 Zn 0.26612 0.64559 0.78185 0.0
Zn351 Zn 0.24374 0.62079 0.74433 0.0
O352 O 0.27997 0.60383 0.75719 0.0
O353 O 0.292 0.61768 0.79722 0.0
O354 O 0.22997 0.58743 0.7254 0.0
O355 O 0.23305 0.65635 0.80164 0.0
O356 O 0.21211 0.63867 0.76666 0.0
C357 C 0.29625 0.60252 0.77708 0.0
C358 C 0.26911 0.66955 0.7255 0.0
O359 O 0.25438 0.64982 0.71789 0.0
O360 O 0.27705 0.67099 0.75002 0.0
C361 C 0.24703 0.57715 0.70901 0.0
O362 O 0.26592 0.59298 0.69905 0.0
C363 C 0.21148 0.65251 0.78858 0.0
Zn364 Zn 0.34611 0.25322 0.70823 0.0
Zn365 Zn 0.39321 0.25492 0.69527 0.0
O366 O 0.38499 0.29086 0.71648 0.0
O367 O 0.34075 0.29242 0.71692 0.0
O368 O 0.43347 0.25535 0.69496 0.0
O369 O 0.34989 0.22491 0.73741 0.0
O370 O 0.38465 0.21676 0.7113 0.0
C371 C 0.36316 0.30368 0.72133 0.0
C372 C 0.35691 0.24481 0.65072 0.0
O373 O 0.37986 0.25516 0.65583 0.0
O374 O 0.3404 0.24024 0.66984 0.0
C375 C 0.44768 0.27518 0.6868 0.0
O376 O 0.43592 0.29589 0.67498 0.0
C377 C 0.36785 0.20869 0.72915 0.0
Zn378 Zn 0.78219 0.37054 0.75419 0.0
Zn379 Zn 0.76395 0.40408 0.72408 0.0
O380 O 0.73302 0.38758 0.74836 0.0
O381 O 0.7516 0.35994 0.77756 0.0
O382 O 0.75135 0.44239 0.71668 0.0
O383 O 0.81305 0.39051 0.77106 0.0
O384 O 0.80547 0.40857 0.7316 0.0
C385 C 0.7307 0.37089 0.76803 0.0
C386 C 0.77708 0.35742 0.69375 0.0
O387 O 0.7643 0.37971 0.69107 0.0
O388 O 0.78669 0.3509 0.71683 0.0
C389 C 0.72661 0.4487 0.71421 0.0
O390 O 0.70851 0.42929 0.71288 0.0
C391 C 0.82188 0.40345 0.75085 0.0
Zn392 Zn 0.63272 0.24546 0.21736 0.0
Zn393 Zn 0.60264 0.25163 0.26092 0.0
O394 O 0.59329 0.27912 0.23143 0.0
O395 O 0.61366 0.27254 0.19273 0.0
O396 O 0.5707 0.25814 0.2847 0.0
O397 O 0.62587 0.20489 0.21671 0.0
O398 O 0.60492 0.21045 0.25561 0.0
C399 C 0.59732 0.28621 0.20697 0.0
C400 C 0.65952 0.26561 0.26852 0.0
O401 O 0.63654 0.26372 0.27995 0.0
O402 O 0.66221 0.25964 0.24352 0.0
C403 C 0.56503 0.28275 0.2899 0.0
O404 O 0.58396 0.30118 0.28709 0.0
C405 C 0.61477 0.19479 0.23758 0.0
Zn406 Zn 0.79248 0.631 0.21867 0.0
Zn407 Zn 0.78096 0.59497 0.24935 0.0
O408 O 0.74628 0.61075 0.23144 0.0
O409 O 0.75798 0.63916 0.19965 0.0
O410 O 0.76944 0.55668 0.25602 0.0
O411 O 0.8242 0.61601 0.19845 0.0
O412 O 0.82129 0.59352 0.23638 0.0
C413 C 0.73964 0.62717 0.21271 0.0
C414 C 0.79389 0.64052 0.28008 0.0
O415 O 0.78414 0.61686 0.28333 0.0
O416 O 0.79909 0.64922 0.25627 0.0
C417 C 0.74577 0.55249 0.26506 0.0
O418 O 0.73158 0.57308 0.27415 0.0
C419 C 0.83553 0.60182 0.21642 0.0
Zn420 Zn 0.3692 0.78493 0.25289 0.0
Zn421 Zn 0.39666 0.76054 0.28482 0.0
O422 O 0.3761 0.73391 0.25939 0.0
O423 O 0.35429 0.75676 0.22844 0.0
O424 O 0.43024 0.73899 0.29218 0.0
O425 O 0.3957 0.81203 0.23849 0.0
O426 O 0.40946 0.80061 0.27875 0.0
C427 C 0.36057 0.73428 0.23883 0.0
C428 C 0.35166 0.78118 0.31239 0.0
O429 O 0.37111 0.76472 0.31635 0.0
O430 O 0.34856 0.79206 0.28913 0.0
C431 C 0.45021 0.74488 0.30711 0.0
O432 O 0.44905 0.76649 0.32267 0.0
C433 C 0.40859 0.81808 0.2597 0.0
Zn434 Zn 0.23096 0.3687 0.23828 0.0
Zn435 Zn 0.23422 0.40179 0.27789 0.0
O436 O 0.26653 0.40589 0.25167 0.0
O437 O 0.25963 0.38397 0.21386 0.0
O438 O 0.23618 0.43768 0.29695 0.0
O439 O 0.19176 0.37461 0.23054 0.0
O440 O 0.19366 0.39821 0.26814 0.0
C441 C 0.27452 0.39913 0.22807 0.0
C442 C 0.24653 0.34636 0.29323 0.0
O443 O 0.24367 0.37038 0.30239 0.0
O444 O 0.24252 0.34146 0.26819 0.0
C445 C 0.25891 0.44859 0.30177 0.0
O446 O 0.28069 0.43345 0.30099 0.0
C447 C 0.17982 0.38753 0.24918 0.0
Zn448 Zn 0.67471 0.67475 0.8041 0.0
Zn449 Zn 0.69288 0.60658 0.7739 0.0
O450 O 0.70246 0.63852 0.74927 0.0
O451 O 0.69324 0.67988 0.76637 0.0
O452 O 0.70542 0.57155 0.75628 0.0
O453 O 0.68285 0.63776 0.82119 0.0
O454 O 0.71586 0.61274 0.80792 0.0
C455 C 0.70243 0.66447 0.74753 0.0
C456 C 0.64331 0.62896 0.7863 0.0
O457 O 0.65142 0.60696 0.77588 0.0
O458 O 0.65648 0.63687 0.80696 0.0
C459 C 0.69031 0.55663 0.74171 0.0
O460 O 0.66534 0.56423 0.73717 0.0
C461 C 0.70756 0.63157 0.82326 0.0
Zn462 Zn 0.36193 0.66287 0.70771 0.0
Zn463 Zn 0.40232 0.68261 0.73089 0.0
O464 O 0.39867 0.69888 0.69205 0.0
O465 O 0.36177 0.68375 0.67308 0.0
O466 O 0.44061 0.69374 0.73745 0.0
O467 O 0.34452 0.67627 0.74362 0.0
O468 O 0.37808 0.70146 0.75851 0.0
C469 C 0.38278 0.69813 0.67181 0.0
C470 C 0.3868 0.62137 0.72955 0.0
O471 O 0.39764 0.64178 0.74117 0.0
O472 O 0.37657 0.62495 0.7064 0.0
C473 C 0.4561 0.68552 0.71857 0.0
O474 O 0.44696 0.66722 0.70151 0.0
C475 C 0.35419 0.6924 0.76129 0.0
Zn476 Zn 0.31899 0.36252 0.80377 0.0
Zn477 Zn 0.29613 0.42646 0.7696 0.0
O478 O 0.2816 0.39211 0.75083 0.0
O479 O 0.29454 0.35321 0.77067 0.0
O480 O 0.2794 0.45939 0.75201 0.0
O481 O 0.31536 0.40137 0.81915 0.0
O482 O 0.28181 0.42681 0.80858 0.0
C483 C 0.28185 0.36613 0.75212 0.0
C484 C 0.34718 0.40508 0.7751 0.0
O485 O 0.33699 0.42525 0.76294 0.0
O486 O 0.33733 0.39994 0.79836 0.0
C487 C 0.28417 0.46881 0.72848 0.0
O488 O 0.30203 0.45674 0.71289 0.0
C489 C 0.29229 0.41067 0.82549 0.0
Zn490 Zn 0.63615 0.23839 0.78197 0.0
Zn491 Zn 0.59953 0.2646 0.76184 0.0
O492 O 0.61684 0.24144 0.73085 0.0
O493 O 0.6495 0.21841 0.74979 0.0
O494 O 0.56314 0.27265 0.74666 0.0
O495 O 0.61539 0.21833 0.81041 0.0
O496 O 0.59013 0.25333 0.80176 0.0
C497 C 0.63649 0.22488 0.7288 0.0
C498 C 0.64339 0.29861 0.77902 0.0
O499 O 0.62197 0.29869 0.76481 0.0
O500 O 0.6518 0.27656 0.78939 0.0
C501 C 0.55773 0.28294 0.72369 0.0
O502 O 0.5773 0.29216 0.70824 0.0
C503 C 0.5968 0.23417 0.81775 0.0
Zn504 Zn 0.68325 0.34652 0.24065 0.0
Zn505 Zn 0.69232 0.39612 0.22691 0.0
O506 O 0.70673 0.38995 0.2659 0.0
O507 O 0.6998 0.3476 0.27756 0.0
O508 O 0.70028 0.43577 0.22419 0.0
O509 O 0.70473 0.33623 0.20655 0.0
O510 O 0.71631 0.37858 0.19842 0.0
C511 C 0.70871 0.37089 0.28317 0.0
C512 C 0.63559 0.37183 0.22322 0.0
O513 O 0.65212 0.39023 0.21586 0.0
O514 O 0.64375 0.3523 0.23762 0.0
C515 C 0.69239 0.45077 0.24363 0.0
O516 O 0.67581 0.44071 0.26185 0.0
C517 C 0.71742 0.35354 0.19236 0.0
Zn518 Zn 0.62274 0.74663 0.21395 0.0
Zn519 Zn 0.59501 0.71244 0.23445 0.0
O520 O 0.61373 0.73723 0.26317 0.0
O521 O 0.63322 0.77184 0.24372 0.0
O522 O 0.5588 0.70357 0.25148 0.0
O523 O 0.6001 0.75973 0.18299 0.0
O524 O 0.58822 0.71839 0.19276 0.0
C525 C 0.62725 0.7591 0.26509 0.0
C526 C 0.64177 0.68699 0.21806 0.0
O527 O 0.62092 0.68146 0.23222 0.0
O528 O 0.64527 0.71093 0.20888 0.0
C529 C 0.5552 0.70621 0.27695 0.0
O530 O 0.57617 0.71022 0.29266 0.0
C531 C 0.59038 0.73737 0.17527 0.0
Zn532 Zn 0.22346 0.63922 0.21532 0.0
Zn533 Zn 0.25044 0.60539 0.23741 0.0
O534 O 0.22587 0.62516 0.26553 0.0
O535 O 0.19744 0.65099 0.24379 0.0
O536 O 0.25428 0.56838 0.2538 0.0
O537 O 0.21088 0.62074 0.18148 0.0
O538 O 0.24696 0.59978 0.19537 0.0
C539 C 0.20633 0.64192 0.26596 0.0
C540 C 0.28345 0.64965 0.22591 0.0
O541 O 0.28432 0.62726 0.23877 0.0
O542 O 0.26149 0.65736 0.21493 0.0
C543 C 0.27125 0.56012 0.27121 0.0
O544 O 0.29095 0.57609 0.27902 0.0
C545 C 0.23111 0.60614 0.17602 0.0
Zn546 Zn 0.35981 0.29008 0.2425 0.0
Zn547 Zn 0.4054 0.30827 0.2462 0.0
O548 O 0.39574 0.29168 0.28384 0.0
O549 O 0.35203 0.28505 0.28221 0.0
O550 O 0.44537 0.31055 0.25042 0.0
O551 O 0.36853 0.25898 0.21731 0.0
O552 O 0.40132 0.28755 0.20964 0.0
C553 C 0.37368 0.28558 0.29561 0.0
C554 C 0.36616 0.34753 0.22847 0.0
O555 O 0.38876 0.34597 0.24066 0.0
O556 O 0.35194 0.32643 0.22519 0.0
C557 C 0.45686 0.31999 0.27142 0.0
O558 O 0.44267 0.33331 0.28958 0.0
C559 C 0.38691 0.26767 0.20175 0.0
Zn560 Zn 0.75757 0.7622 0.61499 0.0
Zn561 Zn 0.74723 0.71933 0.59111 0.0
O562 O 0.71835 0.74889 0.58539 0.0
O563 O 0.73226 0.78903 0.59736 0.0
O564 O 0.74336 0.69725 0.55731 0.0
O565 O 0.79798 0.7635 0.61142 0.0
O566 O 0.78818 0.72224 0.59863 0.0
C567 C 0.71393 0.7742 0.58749 0.0
C568 C 0.73425 0.71393 0.64629 0.0
O569 O 0.73417 0.70044 0.62424 0.0
O570 O 0.74237 0.73845 0.6465 0.0
C571 C 0.71996 0.694 0.54733 0.0
O572 O 0.69884 0.69885 0.56274 0.0
C573 C 0.80562 0.73955 0.60638 0.0
Zn574 Zn 0.80343 0.34004 0.32251 0.0
Zn575 Zn 0.77592 0.31122 0.38876 0.0
O576 O 0.7535 0.30134 0.35438 0.0
O577 O 0.76966 0.31699 0.31456 0.0
O578 O 0.75915 0.2939 0.4221 0.0
O579 O 0.82086 0.32917 0.35863 0.0
O580 O 0.81344 0.29426 0.38366 0.0
C581 C 0.75229 0.30363 0.32839 0.0
C582 C 0.78135 0.36352 0.3718 0.0
O583 O 0.7738 0.35243 0.39365 0.0
O584 O 0.80335 0.35444 0.36203 0.0
C585 C 0.74177 0.30615 0.43667 0.0
O586 O 0.73348 0.33033 0.42928 0.0
C587 C 0.82723 0.30501 0.36486 0.0
Zn588 Zn 0.76377 0.77934 0.35655 0.0
Zn589 Zn 0.73967 0.75433 0.39205 0.0
O590 O 0.76564 0.72751 0.37248 0.0
O591 O 0.78714 0.7505 0.34126 0.0
O592 O 0.73338 0.73502 0.4272 0.0
O593 O 0.78016 0.8087 0.3792 0.0
O594 O 0.74541 0.79509 0.40255 0.0
C595 C 0.78245 0.72823 0.3529 0.0
C596 C 0.70434 0.77039 0.34906 0.0
O597 O 0.7058 0.75488 0.36965 0.0
O598 O 0.72508 0.78344 0.3412 0.0
C599 C 0.71251 0.7227 0.43568 0.0
O600 O 0.69033 0.72287 0.42116 0.0
C601 C 0.76223 0.8138 0.39669 0.0
Zn602 Zn 0.20001 0.77668 0.36419 0.0
Zn603 Zn 0.21072 0.74596 0.4007 0.0
O604 O 0.24608 0.76502 0.38718 0.0
O605 O 0.23477 0.79524 0.35684 0.0
O606 O 0.21913 0.73792 0.43978 0.0
O607 O 0.16884 0.79752 0.37954 0.0
O608 O 0.17039 0.75874 0.40049 0.0
C609 C 0.25287 0.78344 0.37035 0.0
C610 C 0.19853 0.71571 0.35397 0.0
O611 O 0.2085 0.71249 0.37756 0.0
O612 O 0.19292 0.73945 0.34548 0.0
C613 C 0.24166 0.72778 0.44667 0.0
O614 O 0.25823 0.71917 0.42769 0.0
C615 C 0.15666 0.77906 0.39237 0.0
Zn616 Zn 0.33226 0.21432 0.36388 0.0
Zn617 Zn 0.30492 0.2515 0.42388 0.0
O618 O 0.28981 0.26593 0.38813 0.0
O619 O 0.30516 0.24438 0.351 0.0
O620 O 0.2861 0.27139 0.45449 0.0
O621 O 0.32923 0.20267 0.40413 0.0
O622 O 0.2932 0.21149 0.42664 0.0
C623 C 0.29067 0.26271 0.36234 0.0
C624 C 0.35739 0.24824 0.40388 0.0
O625 O 0.34514 0.262 0.4218 0.0
O626 O 0.34936 0.22394 0.40116 0.0
C627 C 0.29343 0.29382 0.46484 0.0
O628 O 0.31525 0.30584 0.45565 0.0
C629 C 0.30631 0.19467 0.41236 0.0
Zn630 Zn 0.22671 0.24861 0.63625 0.0
Zn631 Zn 0.2228 0.29062 0.60844 0.0
O632 O 0.25673 0.26769 0.59962 0.0
O633 O 0.2549 0.22703 0.61671 0.0
O634 O 0.22182 0.31117 0.5732 0.0
O635 O 0.18843 0.23705 0.6346 0.0
O636 O 0.18351 0.27792 0.61787 0.0
C637 C 0.26718 0.24432 0.60243 0.0
C638 C 0.24003 0.30281 0.66257 0.0
O639 O 0.23409 0.31392 0.64001 0.0
O640 O 0.2385 0.27715 0.66509 0.0
C641 C 0.24414 0.32204 0.56648 0.0
O642 O 0.26193 0.32686 0.58561 0.0
C643 C 0.17319 0.25624 0.6275 0.0
Zn644 Zn 0.76342 0.21374 0.62158 0.0
Zn645 Zn 0.73194 0.22954 0.58923 0.0
O646 O 0.75269 0.26234 0.60707 0.0
O647 O 0.78597 0.24571 0.63079 0.0
O648 O 0.72523 0.2412 0.55052 0.0
O649 O 0.77975 0.18035 0.60531 0.0
O650 O 0.74063 0.18783 0.58669 0.0
C651 C 0.77305 0.26608 0.62244 0.0
C652 C 0.70289 0.21685 0.63537 0.0
O653 O 0.69876 0.22798 0.61241 0.0
O654 O 0.72666 0.20958 0.64202 0.0
C655 C 0.71875 0.26528 0.5441 0.0
O656 O 0.71335 0.28282 0.56344 0.0
C657 C 0.75946 0.17128 0.59279 0.0
Zn658 Zn 0.32378 0.80768 0.63613 0.0
Zn659 Zn 0.29544 0.78433 0.59942 0.0
O660 O 0.28253 0.7593 0.6291 0.0
O661 O 0.3097 0.77638 0.66005 0.0
O662 O 0.27795 0.77091 0.56498 0.0
O663 O 0.30467 0.84329 0.63555 0.0
O664 O 0.27925 0.82261 0.60565 0.0
C665 C 0.29251 0.75865 0.65287 0.0
C666 C 0.35865 0.78127 0.60533 0.0
O667 O 0.33558 0.7742 0.5964 0.0
O668 O 0.3603 0.80261 0.61946 0.0
C669 C 0.2856 0.74954 0.55274 0.0
O670 O 0.3057 0.73536 0.56267 0.0
C671 C 0.28428 0.84339 0.62022 0.0
C672 C 0.9869 0.21466 0.25083 0.0
C673 C 0.98112 0.18812 0.24228 0.0
H674 H 0.01353 0.24856 0.2483 0.0
C675 C -0.00138 0.17537 0.22378 0.0
H676 H 0.97361 0.22525 0.26472 0.0
C677 C 0.02161 0.18881 0.2143 0.0
C678 C 0.02729 0.2154 0.22281 0.0
H679 H 0.99453 0.15503 0.2166 0.0
H680 H 0.03503 0.17831 0.20047 0.0
C681 C 0.00958 0.22822 0.24104 0.0
C682 C 0.74279 0.97043 0.23615 0.0
C683 C 0.76812 0.95787 0.23399 0.0
H684 H 0.72013 0.00702 0.23307 0.0
C685 C 0.7901 0.9729 0.22417 0.0
H686 H 0.72534 0.95921 0.24317 0.0
C687 C 0.78716 0.00057 0.21851 0.0
C688 C 0.7621 0.01347 0.22223 0.0
H689 H 0.8098 0.96364 0.22212 0.0
H690 H 0.80476 0.01205 0.21237 0.0
C691 C 0.73976 0.99784 0.23013 0.0
C692 C 0.01869 0.77646 0.21728 0.0
C693 C 0.02429 0.79851 0.23452 0.0
H694 H 0.98837 0.75156 0.19896 0.0
C695 C 0.00281 0.81469 0.24365 0.0
H696 H 0.03475 0.76358 0.2098 0.0
C697 C 0.97621 0.80798 0.23708 0.0
C698 C 0.97052 0.78468 0.22161 0.0
H699 H 0.00646 0.8319 0.2568 0.0
H700 H 0.96006 0.82018 0.24547 0.0
C701 C 0.99208 0.76949 0.21109 0.0
C702 C 0.27006 0.99177 0.25076 0.0
C703 C 0.25261 0.97504 0.23578 0.0
H704 H 0.27657 0.03065 0.26885 0.0
C705 C 0.22798 0.98573 0.22669 0.0
H706 H 0.2891 0.98412 0.25827 0.0
C707 C 0.22088 0.01256 0.2326 0.0
C708 C 0.23806 0.02904 0.24816 0.0
H709 H 0.21408 0.97332 0.21518 0.0
H710 H 0.20176 0.02026 0.22536 0.0
C711 C 0.26276 0.01838 0.25708 0.0
C712 C 0.95216 0.77344 0.81628 0.0
C713 C 0.94831 0.7617 0.79059 0.0
H714 H 0.98018 0.78356 0.84769 0.0
C715 C 0.97066 0.75092 0.77672 0.0
H716 H 0.93529 0.78174 0.82753 0.0
C717 C 0.99625 0.75136 0.78856 0.0
C718 C 6e-05 0.76301 0.81429 0.0
H719 H 0.96829 0.74143 0.75704 0.0
H720 H 0.01307 0.74278 0.77743 0.0
C721 C 0.97782 0.77432 0.82789 0.0
C722 C 0.24451 0.00601 0.77846 0.0
C723 C 0.23 0.02357 0.79559 0.0
H724 H 0.2456 0.96757 0.75833 0.0
C725 C 0.20662 0.01384 0.80853 0.0
H726 H 0.26259 0.01281 0.76813 0.0
C727 C 0.19701 0.98774 0.80305 0.0
C728 C 0.21036 0.97107 0.7842 0.0
H729 H 0.19503 0.02686 0.82188 0.0
H730 H 0.17833 0.98124 0.81242 0.0
C731 C 0.23466 0.98013 0.77263 0.0
C732 C 0.98711 0.21519 0.74861 0.0
C733 C 0.99484 0.1936 0.76545 0.0
H734 H 0.95688 0.24428 0.73867 0.0
C735 C 0.97653 0.18395 0.78501 0.0
H736 H 0.00079 0.22329 0.73348 0.0
C737 C 0.95102 0.19589 0.78777 0.0
C738 C 0.94381 0.2181 0.77151 0.0
H739 H 0.98201 0.1674 0.79833 0.0
H740 H 0.93722 0.18817 0.80298 0.0
C741 C 0.96204 0.22747 0.75181 0.0
C742 C 0.76907 0.02386 0.79904 0.0
C743 C 0.76617 0.02749 0.77091 0.0
H744 H 0.76778 0.99633 0.83251 0.0
C745 C 0.76132 0.00462 0.75456 0.0
H746 H 0.7729 0.04097 0.81226 0.0
C747 C 0.75834 0.9789 0.76623 0.0
C748 C 0.76012 0.97551 0.7945 0.0
H749 H 0.75901 0.00667 0.73281 0.0
H750 H 0.7539 0.96184 0.75315 0.0
C751 C 0.76607 0.99821 0.81069 0.0
C752 C 0.20986 0.21734 0.01239 0.0
C753 C 0.2336 0.22937 0.02226 0.0
H754 H 0.18253 0.21316 0.97906 0.0
C755 C 0.24861 0.24625 0.0049 0.0
H756 H 0.19786 0.20422 0.02523 0.0
C757 C 0.23963 0.25167 0.97858 0.0
C758 C 0.21563 0.24005 0.96888 0.0
H759 H 0.26694 0.25592 0.01186 0.0
H760 H 0.25143 0.26514 0.9659 0.0
C761 C 0.20107 0.22249 0.98593 0.0
C762 C 0.26851 0.75818 0.97912 0.0
C763 C 0.25184 0.77744 0.96653 0.0
H764 H 0.28037 0.73919 0.01622 0.0
C765 C 0.2357 0.79432 0.98289 0.0
H766 H 0.28109 0.74475 0.96717 0.0
C767 C 0.23544 0.79125 0.01114 0.0
C768 C 0.25094 0.7709 0.02352 0.0
H769 H 0.22261 0.80934 0.9738 0.0
H770 H 0.22231 0.80407 0.02316 0.0
C771 C 0.26788 0.7548 0.00725 0.0
C772 C 0.78242 0.22492 0.97478 0.0
C773 C 0.75601 0.21889 0.96644 0.0
H774 H 0.80899 0.23283 0.00799 0.0
C775 C 0.73612 0.21445 0.98633 0.0
H776 H 0.79826 0.22844 0.96003 0.0
C777 C 0.7423 0.21697 0.01391 0.0
C778 C 0.76847 0.22409 0.02219 0.0
H779 H 0.71557 0.20973 0.98062 0.0
H780 H 0.72637 0.21401 0.02869 0.0
C781 C 0.78856 0.22756 0.00232 0.0
C782 C 0.80973 0.7669 0.00827 0.0
C783 C 0.79808 0.75104 0.98771 0.0
H784 H 0.80526 0.78417 0.04789 0.0
C785 C 0.77191 0.74076 0.99156 0.0
H786 H 0.82978 0.77527 0.00583 0.0
C787 C 0.75768 0.7463 0.0154 0.0
C788 C 0.76941 0.76198 0.03606 0.0
H789 H 0.76222 0.72873 0.97599 0.0
H790 H 0.73764 0.73788 0.01779 0.0
C791 C 0.7956 0.77219 0.03227 0.0
C792 C 0.51033 0.73968 0.71653 0.0
C793 C 0.52727 0.72988 0.69581 0.0
H794 H 0.47484 0.73303 0.74052 0.0
C795 C 0.52107 0.70498 0.68347 0.0
H796 H 0.51474 0.75865 0.72668 0.0
C797 C 0.49843 0.69024 0.69154 0.0
C798 C 0.48148 0.69996 0.71224 0.0
H799 H 0.5338 0.69674 0.6676 0.0
H800 H 0.49412 0.67127 0.68136 0.0
C801 C 0.4877 0.72482 0.72474 0.0
C802 C 0.24944 0.50516 0.73478 0.0
C803 C 0.27139 0.49462 0.72005 0.0
H804 H 0.22381 0.53922 0.74226 0.0
C805 C 0.28214 0.50996 0.6986 0.0
H806 H 0.24042 0.49369 0.75119 0.0
C807 C 0.27262 0.53617 0.69348 0.0
C808 C 0.25199 0.54749 0.70955 0.0
H809 H 0.29892 0.50235 0.68672 0.0
H810 H 0.28247 0.54811 0.67791 0.0
C811 C 0.23973 0.53123 0.72949 0.0
C812 C 0.48591 0.25954 0.71532 0.0
C813 C 0.47636 0.27658 0.69467 0.0
H814 H 0.51875 0.2486 0.74087 0.0
C815 C 0.49397 0.29576 0.68316 0.0
H816 H 0.47287 0.24465 0.72477 0.0
C817 C 0.52066 0.29784 0.69229 0.0
C818 C 0.52984 0.28119 0.71346 0.0
H819 H 0.48712 0.30919 0.66722 0.0
H820 H 0.5339 0.31273 0.68315 0.0
C821 C 0.5122 0.26198 0.72476 0.0
C822 C 0.73636 0.497 0.72682 0.0
C823 C 0.71798 0.4773 0.71769 0.0
H824 H 0.74206 0.5374 0.74167 0.0
C825 C 0.69078 0.48464 0.7145 0.0
H826 H 0.75747 0.49208 0.72953 0.0
C827 C 0.68198 0.51073 0.72133 0.0
C828 C 0.70012 0.52998 0.73179 0.0
H829 H 0.67611 0.47 0.70745 0.0
H830 H 0.66075 0.51547 0.71932 0.0
C831 C 0.72751 0.52299 0.73392 0.0
C832 C 0.50273 0.32714 0.29166 0.0
C833 C 0.48422 0.31054 0.278 0.0
H834 H 0.54334 0.33131 0.30615 0.0
C835 C 0.49163 0.28397 0.27108 0.0
H836 H 0.49728 0.3476 0.29745 0.0
C837 C 0.51734 0.27435 0.27693 0.0
C838 C 0.53651 0.29133 0.2892 0.0
H839 H 0.47751 0.27055 0.26104 0.0
H840 H 0.52253 0.25399 0.27055 0.0
C841 C 0.5289 0.31774 0.29683 0.0
C842 C 0.73003 0.48349 0.23574 0.0
C843 C 0.7054 0.47726 0.24843 0.0
H844 H 0.76246 0.51172 0.23165 0.0
C845 C 0.69454 0.49562 0.26733 0.0
H846 H 0.73911 0.4696 0.22135 0.0
C847 C 0.70791 0.51988 0.27318 0.0
C848 C 0.73263 0.52599 0.26061 0.0
H849 H 0.67568 0.49127 0.27756 0.0
H850 H 0.69888 0.53385 0.28753 0.0
C851 C 0.7436 0.50747 0.24193 0.0
C852 C 0.52413 0.72623 0.31171 0.0
C853 C 0.52773 0.71128 0.28762 0.0
H854 H 0.49674 0.74876 0.33678 0.0
C855 C 0.505 0.70445 0.27217 0.0
H856 H 0.54126 0.73184 0.3241 0.0
C857 C 0.47946 0.71383 0.27966 0.0
C858 C 0.47617 0.73068 0.30252 0.0
H859 H 0.50709 0.69283 0.25362 0.0
H860 H 0.46257 0.70914 0.26658 0.0
C861 C 0.49863 0.73603 0.31896 0.0
C862 C 0.29002 0.51814 0.29296 0.0
C863 C 0.26792 0.53278 0.28291 0.0
H864 H 0.30451 0.47974 0.30714 0.0
C865 C 0.24231 0.52064 0.28303 0.0
H866 H 0.30995 0.52713 0.29332 0.0
C867 C 0.23905 0.49389 0.29147 0.0
C868 C 0.26145 0.47842 0.29949 0.0
H869 H 0.22478 0.53163 0.27592 0.0
H870 H 0.21916 0.48492 0.29017 0.0
C871 C 0.28686 0.49108 0.30099 0.0
C872 C 0.74016 0.69478 0.50098 0.0
C873 C 0.71702 0.69417 0.51747 0.0
H874 H 0.75676 0.70445 0.46216 0.0
C875 C 0.69168 0.69877 0.50549 0.0
H876 H 0.75996 0.69102 0.50941 0.0
C877 C 0.68985 0.70641 0.4782 0.0
C878 C 0.71335 0.70973 0.46262 0.0
H879 H 0.67343 0.69829 0.51759 0.0
H880 H 0.67028 0.71143 0.46988 0.0
C881 C 0.73835 0.70268 0.47391 0.0
C882 C 0.71912 0.31063 0.48202 0.0
C883 C 0.73308 0.29456 0.46305 0.0
H884 H 0.70357 0.314 0.52247 0.0
C885 C 0.74004 0.2679 0.47021 0.0
H886 H 0.71337 0.33124 0.47716 0.0
C887 C 0.73416 0.25792 0.49612 0.0
C888 C 0.72144 0.27448 0.51557 0.0
H889 H 0.75064 0.25492 0.45602 0.0
H890 H 0.74056 0.23757 0.50121 0.0
C891 C 0.7135 0.30075 0.50804 0.0
C892 C 0.27521 0.71802 0.48338 0.0
C893 C 0.25108 0.73038 0.47504 0.0
H894 H 0.30492 0.71415 0.51462 0.0
C895 C 0.23741 0.74749 0.4933 0.0
H896 H 0.28619 0.70471 0.46981 0.0
C897 C 0.24834 0.75322 0.51877 0.0
C898 C 0.27297 0.74167 0.52672 0.0
H899 H 0.2188 0.75739 0.48754 0.0
H900 H 0.23772 0.76713 0.53204 0.0
C901 C 0.28595 0.72345 0.50905 0.0
C902 C 0.2787 0.33112 0.53047 0.0
C903 C 0.2537 0.3199 0.53802 0.0
H904 H 0.3108 0.33187 0.5013 0.0
C905 C 0.24044 0.30269 0.51961 0.0
H906 H 0.28943 0.34447 0.54417 0.0
C907 C 0.25291 0.29509 0.49529 0.0
C908 C 0.27872 0.30486 0.48862 0.0
H909 H 0.2212 0.29362 0.52473 0.0
H910 H 0.24274 0.28075 0.48218 0.0
C911 C 0.291 0.32381 0.50594 0.0
C912 C 0.13975 0.14986 0.25336 0.0
C913 C 0.15638 0.14345 0.27539 0.0
H914 H 0.11344 0.17929 0.23596 0.0
C915 C 0.15227 0.15687 0.3002 0.0
H916 H 0.14261 0.13979 0.23401 0.0
C917 C 0.13655 0.18037 0.30107 0.0
C918 C 0.12399 0.1898 0.27738 0.0
H919 H 0.16493 0.15227 0.3175 0.0
H920 H 0.13699 0.19281 0.31919 0.0
C921 C 0.1233 0.17282 0.25445 0.0
C922 C 0.84783 0.09146 0.27912 0.0
C923 C 0.85585 0.11346 0.29522 0.0
H924 H 0.81484 0.06614 0.2678 0.0
C925 C 0.84199 0.11817 0.31966 0.0
H926 H 0.85852 0.08695 0.26045 0.0
C927 C 0.81641 0.10686 0.32358 0.0
C928 C 0.80507 0.09058 0.30313 0.0
H929 H 0.84815 0.13465 0.33282 0.0
H930 H 0.80401 0.1147 0.33992 0.0
C931 C 0.82244 0.07978 0.28322 0.0
C932 C 0.83756 0.78443 0.30274 0.0
C933 C 0.85406 0.78476 0.27953 0.0
H934 H 0.8037 0.80195 0.32322 0.0
C935 C 0.85215 0.80688 0.2616 0.0
H936 H 0.83895 0.76809 0.31731 0.0
C937 C 0.83203 0.82649 0.26515 0.0
C938 C 0.81347 0.82416 0.28659 0.0
H939 H 0.8647 0.8079 0.24362 0.0
H940 H 0.82967 0.8421 0.2499 0.0
C941 C 0.81734 0.80382 0.30612 0.0
C942 C 0.2011 0.86411 0.26294 0.0
C943 C 0.22006 0.85843 0.28338 0.0
H944 H 0.16363 0.85262 0.24446 0.0
C945 C 0.21291 0.84042 0.30423 0.0
H946 H 0.20599 0.87797 0.24661 0.0
C947 C 0.18884 0.82591 0.30292 0.0
C948 C 0.17132 0.82919 0.28079 0.0
H949 H 0.22688 0.836 0.32048 0.0
H950 H 0.18486 0.81072 0.3183 0.0
C951 C 0.17684 0.84956 0.26166 0.0
C952 C 0.10798 0.87079 0.80854 0.0
C953 C 0.0947 0.84656 0.80181 0.0
H954 H 0.12613 0.90704 0.79364 0.0
C955 C 0.08201 0.84456 0.77645 0.0
H956 H 0.11709 0.87336 0.82834 0.0
C957 C 0.08725 0.86396 0.7564 0.0
C958 C 0.10566 0.88513 0.76151 0.0
H959 H 0.07092 0.82646 0.77094 0.0
H960 H 0.08037 0.85987 0.73596 0.0
C961 C 0.11289 0.89031 0.78863 0.0
C962 C 0.16318 0.09382 0.74385 0.0
C963 C 0.17881 0.09706 0.72014 0.0
H964 H 0.12905 0.10833 0.76627 0.0
C965 C 0.16657 0.1086 0.6972 0.0
H966 H 0.17168 0.08439 0.76174 0.0
C967 C 0.14188 0.12199 0.69982 0.0
C968 C 0.12924 0.12381 0.72528 0.0
H969 H 0.1777 0.11083 0.67839 0.0
H970 H 0.13502 0.13451 0.68314 0.0
C971 C 0.13846 0.10728 0.74643 0.0
C972 C 0.80997 0.21083 0.68985 0.0
C973 C 0.83071 0.21248 0.70911 0.0
H974 H 0.77737 0.1876 0.67389 0.0
C975 C 0.83717 0.18929 0.72439 0.0
H976 H 0.80467 0.22824 0.67765 0.0
C977 C 0.82129 0.16588 0.72244 0.0
C978 C 0.7988 0.16539 0.70516 0.0
H979 H 0.85309 0.18991 0.73939 0.0
H980 H 0.82544 0.14901 0.73585 0.0
C981 C 0.79421 0.18755 0.68787 0.0
C982 C 0.78377 0.76824 0.78463 0.0
C983 C 0.80817 0.77473 0.77162 0.0
H984 H 0.74801 0.78307 0.804 0.0
C985 C 0.81446 0.80215 0.76703 0.0
H986 H 0.77836 0.74732 0.78853 0.0
C987 C 0.79679 0.82264 0.77543 0.0
C988 C 0.77272 0.81615 0.78906 0.0
H989 H 0.83305 0.80778 0.75693 0.0
H990 H 0.80237 0.84358 0.77196 0.0
C991 C 0.76637 0.78873 0.79348 0.0
C992 C 0.26204 0.14886 0.18721 0.0
C993 C 0.2765 0.15534 0.21085 0.0
H994 H 0.25231 0.16082 0.1465 0.0
C995 C 0.29673 0.17517 0.2096 0.0
H996 H 0.24628 0.13366 0.18767 0.0
C997 C 0.30009 0.19064 0.18623 0.0
C998 C 0.28326 0.18656 0.16372 0.0
H999 H 0.30839 0.18032 0.22745 0.0
H1000 H 0.31448 0.20717 0.18658 0.0
C1001 C 0.2654 0.16447 0.16368 0.0
C1002 C 0.90514 0.22882 0.14484 0.0
C1003 C 0.88606 0.22026 0.12551 0.0
H1004 H 0.91885 0.22444 0.18582 0.0
C1005 C 0.87468 0.19424 0.12857 0.0
H1006 H 0.9151 0.24825 0.14273 0.0
C1007 C 0.87589 0.18125 0.15368 0.0
C1008 C 0.89019 0.19311 0.17511 0.0
H1009 H 0.86083 0.18626 0.11359 0.0
H1010 H 0.86335 0.1636 0.15716 0.0
C1011 C 0.90708 0.2153 0.16973 0.0
C1012 C 0.68387 0.81292 0.21384 0.0
C1013 C 0.70338 0.83347 0.21523 0.0
H1014 H 0.66838 0.77923 0.19154 0.0
C1015 C 0.71894 0.8392 0.19201 0.0
H1016 H 0.6713 0.80836 0.23118 0.0
C1017 C 0.71726 0.82245 0.16909 0.0
C1018 C 0.70006 0.79982 0.16922 0.0
H1019 H 0.73413 0.85497 0.19242 0.0
H1020 H 0.73109 0.8258 0.15238 0.0
C1021 C 0.68226 0.79619 0.19112 0.0
C1022 C 0.17649 0.70756 0.203 0.0
C1023 C 0.15816 0.72924 0.20202 0.0
H1024 H 0.2113 0.68884 0.18557 0.0
C1025 C 0.15863 0.74656 0.17932 0.0
H1026 H 0.1765 0.6937 0.21999 0.0
C1027 C 0.17866 0.74373 0.15938 0.0
C1028 C 0.19857 0.72365 0.16198 0.0
H1029 H 0.14475 0.76345 0.1779 0.0
H1030 H 0.17965 0.75838 0.14305 0.0
C1031 C 0.19654 0.70488 0.18331 0.0
C1032 C 0.21874 0.83477 0.80032 0.0
C1033 C 0.20276 0.82668 0.7782 0.0
H1034 H 0.23737 0.82326 0.83776 0.0
C1035 C 0.1932 0.79989 0.77723 0.0
H1036 H 0.22623 0.85534 0.80181 0.0
C1037 C 0.19945 0.78161 0.79785 0.0
C1038 C 0.21536 0.78967 0.82002 0.0
H1039 H 0.18068 0.79301 0.76061 0.0
H1040 H 0.19181 0.76109 0.79634 0.0
C1041 C 0.22493 0.81646 0.82105 0.0
C1042 C 0.1174 0.21119 0.84909 0.0
C1043 C 0.10044 0.22146 0.8288 0.0
H1044 H 0.14227 0.22059 0.883 0.0
C1045 C 0.08863 0.24703 0.83246 0.0
H1046 H 0.12635 0.19126 0.84693 0.0
C1047 C 0.0981 0.26416 0.85302 0.0
C1048 C 0.11957 0.25576 0.86971 0.0
H1049 H 0.07522 0.25527 0.81723 0.0
H1050 H 0.09186 0.2852 0.8528 0.0
C1051 C 0.12638 0.22808 0.86995 0.0
C1052 C 0.71792 0.13835 0.80239 0.0
C1053 C 0.70037 0.14109 0.78012 0.0
H1054 H 0.73103 0.15474 0.84052 0.0
C1055 C 0.67958 0.16039 0.78163 0.0
H1056 H 0.73413 0.12365 0.80196 0.0
C1057 C 0.67811 0.17837 0.80346 0.0
C1058 C 0.69709 0.17725 0.82455 0.0
H1059 H 0.66551 0.16293 0.76505 0.0
H1060 H 0.6629 0.19408 0.80309 0.0
C1061 C 0.71621 0.15623 0.82448 0.0
C1062 C 0.90343 0.69738 0.85326 0.0
C1063 C 0.8795 0.69241 0.86775 0.0
H1064 H 0.92197 0.69623 0.81413 0.0
C1065 C 0.8627 0.67127 0.85866 0.0
H1066 H 0.91732 0.71286 0.86018 0.0
C1067 C 0.86484 0.66223 0.83178 0.0
C1068 C 0.88438 0.67372 0.81458 0.0
H1069 H 0.84458 0.66609 0.86984 0.0
H1070 H 0.8485 0.65025 0.82352 0.0
C1071 C 0.90588 0.68801 0.82658 0.0
C1072 C 0.16499 0.25822 0.16064 0.0
C1073 C 0.16361 0.27581 0.18302 0.0
H1074 H 0.18839 0.24481 0.1265 0.0
C1075 C 0.18277 0.29659 0.18546 0.0
H1076 H 0.15033 0.24212 0.15826 0.0
C1077 C 0.20408 0.29857 0.16706 0.0
C1078 C 0.20708 0.27941 0.14613 0.0
H1079 H 0.18188 0.31073 0.20228 0.0
H1080 H 0.2192 0.31404 0.17049 0.0
C1081 C 0.18672 0.25986 0.14243 0.0
C1082 C 0.14706 0.70029 0.90125 0.0
C1083 C 0.16801 0.71553 0.91297 0.0
H1084 H 0.10701 0.70144 0.88547 0.0
C1085 C 0.16114 0.73893 0.92774 0.0
H1086 H 0.15138 0.6816 0.89054 0.0
C1087 C 0.13536 0.75016 0.92519 0.0
C1088 C 0.11661 0.73847 0.90721 0.0
H1089 H 0.17656 0.75064 0.93797 0.0
H1090 H 0.13195 0.77025 0.93341 0.0
C1091 C 0.12136 0.71171 0.89844 0.0
C1092 C 0.23366 0.19959 0.8386 0.0
C1093 C 0.22418 0.22285 0.82515 0.0
H1094 H 0.24698 0.15839 0.83482 0.0
C1095 C 0.22198 0.22244 0.79677 0.0
H1096 H 0.2354 0.19924 0.8605 0.0
C1097 C 0.22868 0.1992 0.78214 0.0
C1098 C 0.23746 0.17568 0.79556 0.0
H1099 H 0.21475 0.24002 0.78581 0.0
H1100 H 0.22647 0.19958 0.76028 0.0
C1101 C 0.24009 0.17615 0.82393 0.0
C1102 C 0.79368 0.26492 0.85186 0.0
C1103 C 0.77152 0.28266 0.85043 0.0
H1104 H 0.83132 0.25289 0.83402 0.0
C1105 C 0.77339 0.30564 0.83373 0.0
H1106 H 0.79291 0.24705 0.86461 0.0
C1107 C 0.7952 0.30886 0.81611 0.0
C1108 C 0.8157 0.28925 0.81503 0.0
H1109 H 0.7569 0.31996 0.83258 0.0
H1110 H 0.79495 0.32562 0.80192 0.0
C1111 C 0.81568 0.26822 0.83426 0.0
C1112 C 0.77143 0.85376 0.90854 0.0
C1113 C 0.77588 0.87195 0.88698 0.0
H1114 H 0.78116 0.81484 0.92498 0.0
C1115 C 0.80053 0.8702 0.87279 0.0
H1116 H 0.7532 0.85505 0.92063 0.0
C1117 C 0.81606 0.84667 0.87463 0.0
C1118 C 0.80797 0.82555 0.89186 0.0
H1119 H 0.80537 0.8845 0.85684 0.0
H1120 H 0.83254 0.8438 0.86044 0.0
C1121 C 0.78736 0.83047 0.91085 0.0
C1122 C 0.79394 0.68789 0.16304 0.0
C1123 C 0.78726 0.70887 0.14507 0.0
H1124 H 0.82095 0.67375 0.19362 0.0
C1125 C 0.80604 0.72985 0.14073 0.0
H1126 H 0.78023 0.67119 0.16629 0.0
C1127 C 0.82967 0.73123 0.15621 0.0
C1128 C 0.83471 0.71174 0.17632 0.0
H1129 H 0.80157 0.74629 0.1269 0.0
H1130 H 0.84288 0.74856 0.15384 0.0
C1131 C 0.81728 0.6894 0.17867 0.0
C1132 C 0.32664 0.79143 0.17198 0.0
C1133 C 0.30682 0.79068 0.15165 0.0
H1134 H 0.34164 0.81174 0.20719 0.0
C1135 C 0.29 0.81343 0.14826 0.0
H1136 H 0.3402 0.77449 0.17492 0.0
C1137 C 0.29098 0.83502 0.16679 0.0
C1138 C 0.30867 0.83405 0.18899 0.0
H1139 H 0.27455 0.81356 0.13277 0.0
H1140 H 0.27638 0.85125 0.16502 0.0
C1141 C 0.32742 0.81277 0.19056 0.0
C1142 C 0.78146 0.18612 0.21312 0.0
C1143 C 0.76815 0.16252 0.20446 0.0
H1144 H 0.8013 0.22282 0.20165 0.0
C1145 C 0.76471 0.15803 0.17652 0.0
H1146 H 0.78459 0.19006 0.23451 0.0
C1147 C 0.774 0.17704 0.15763 0.0
C1148 C 0.78727 0.20068 0.16633 0.0
H1149 H 0.75448 0.14005 0.16926 0.0
H1150 H 0.77095 0.17313 0.13623 0.0
C1151 C 0.79107 0.20489 0.19427 0.0
C1152 C 0.6216 0.67383 0.77928 0.0
C1153 C 0.63346 0.65053 0.76798 0.0
H1154 H 0.61092 0.71552 0.7734 0.0
C1155 C 0.64002 0.65044 0.74016 0.0
H1156 H 0.61617 0.67436 0.80058 0.0
C1157 C 0.63802 0.67432 0.72497 0.0
C1158 C 0.62817 0.69809 0.73703 0.0
H1159 H 0.64903 0.63276 0.73079 0.0
H1160 H 0.64523 0.67453 0.7042 0.0
C1161 C 0.61873 0.69736 0.76383 0.0
C1162 C 0.34547 0.60172 0.78746 0.0
C1163 C 0.32374 0.59151 0.77224 0.0
H1164 H 0.38511 0.61849 0.78546 0.0
C1165 C 0.32947 0.57899 0.74724 0.0
H1166 H 0.34212 0.61041 0.80738 0.0
C1167 C 0.35451 0.5832 0.73478 0.0
C1168 C 0.37346 0.60064 0.74697 0.0
H1169 H 0.31351 0.56973 0.73546 0.0
H1170 H 0.3568 0.5772 0.71375 0.0
C1171 C 0.37039 0.60625 0.77483 0.0
C1172 C 0.34841 0.35181 0.7201 0.0
C1173 C 0.36351 0.33128 0.7326 0.0
H1174 H 0.33254 0.39203 0.72306 0.0
C1175 C 0.37623 0.33657 0.75741 0.0
H1176 H 0.33835 0.34805 0.70096 0.0
C1177 C 0.37215 0.36141 0.77056 0.0
C1178 C 0.35599 0.38157 0.75867 0.0
H1179 H 0.38781 0.32091 0.76745 0.0
H1180 H 0.38064 0.36444 0.79057 0.0
C1181 C 0.34518 0.37698 0.73272 0.0
C1182 C 0.66087 0.3423 0.75984 0.0
C1183 C 0.66085 0.32285 0.78068 0.0
H1184 H 0.68326 0.37351 0.7396 0.0
C1185 C 0.68081 0.32422 0.8008 0.0
H1186 H 0.64564 0.34183 0.74414 0.0
C1187 C 0.70214 0.34249 0.79837 0.0
C1188 C 0.7041 0.35953 0.77562 0.0
H1189 H 0.68101 0.30986 0.81742 0.0
H1190 H 0.71822 0.34167 0.81314 0.0
C1191 C 0.68241 0.36052 0.7573 0.0
C1192 C 0.61511 0.35391 0.18286 0.0
C1193 C 0.61063 0.36655 0.20805 0.0
H1194 H 0.61453 0.31559 0.16247 0.0
C1195 C 0.58868 0.35746 0.22361 0.0
H1196 H 0.63088 0.36133 0.16954 0.0
C1197 C 0.5787 0.33127 0.21935 0.0
C1198 C 0.59083 0.31463 0.1995 0.0
H1199 H 0.58363 0.3676 0.24246 0.0
H1200 H 0.56562 0.32261 0.2347 0.0
C1201 C 0.60589 0.32734 0.17891 0.0
C1202 C 0.69243 0.63122 0.2308 0.0
C1203 C 0.71138 0.63651 0.21013 0.0
H1204 H 0.65509 0.64309 0.24949 0.0
C1205 C 0.70458 0.65493 0.18958 0.0
H1206 H 0.697 0.61703 0.24691 0.0
C1207 C 0.68089 0.67006 0.1913 0.0
C1208 C 0.66323 0.66673 0.21338 0.0
H1209 H 0.71842 0.65895 0.17309 0.0
H1210 H 0.67711 0.68541 0.17607 0.0
C1211 C 0.66845 0.64618 0.23236 0.0
C1212 C 0.32824 0.66519 0.24373 0.0
C1213 C 0.30692 0.6681 0.22525 0.0
H1214 H 0.36253 0.68388 0.26229 0.0
C1215 C 0.30668 0.69066 0.20784 0.0
H1216 H 0.32909 0.6479 0.25723 0.0
C1217 C 0.32582 0.71115 0.21065 0.0
C1218 C 0.3456 0.70958 0.23091 0.0
H1219 H 0.29081 0.69327 0.19299 0.0
H1220 H 0.32391 0.7291 0.19822 0.0
C1221 C 0.34744 0.68579 0.24656 0.0
C1222 C 0.33788 0.37458 0.19798 0.0
C1223 C 0.35321 0.37347 0.2219 0.0
H1224 H 0.29991 0.38518 0.18067 0.0
C1225 C 0.34682 0.39114 0.24323 0.0
H1226 H 0.34275 0.36141 0.18105 0.0
C1227 C 0.32211 0.40485 0.24306 0.0
C1228 C 0.30372 0.40048 0.22171 0.0
H1229 H 0.3585 0.39087 0.26178 0.0
H1230 H 0.31584 0.41505 0.26147 0.0
C1231 C 0.31319 0.38814 0.19784 0.0
C1232 C 0.71476 0.66108 0.69836 0.0
C1233 C 0.71125 0.67701 0.72179 0.0
H1234 H 0.72446 0.66026 0.65603 0.0
C1235 C 0.71502 0.70516 0.72005 0.0
H1236 H 0.71172 0.63935 0.69894 0.0
C1237 C 0.72229 0.71711 0.69546 0.0
C1238 C 0.72577 0.7012 0.67203 0.0
H1239 H 0.71235 0.71803 0.73767 0.0
H1240 H 0.72511 0.73887 0.69484 0.0
C1241 C 0.72185 0.67307 0.6737 0.0
C1242 C 0.37354 0.71132 0.62388 0.0
C1243 C 0.38684 0.71644 0.64846 0.0
H1244 H 0.35657 0.7284 0.58807 0.0
C1245 C 0.40024 0.74129 0.65183 0.0
H1246 H 0.36395 0.69193 0.62023 0.0
C1247 C 0.39583 0.7624 0.6334 0.0
C1248 C 0.37758 0.75885 0.6118 0.0
H1249 H 0.41142 0.74551 0.67021 0.0
H1250 H 0.40327 0.78239 0.63857 0.0
C1251 C 0.36964 0.73223 0.60523 0.0
C1252 C 0.25979 0.36311 0.70628 0.0
C1253 C 0.26915 0.35028 0.72996 0.0
H1254 H 0.24338 0.35827 0.66636 0.0
C1255 C 0.26792 0.32186 0.73151 0.0
H1256 H 0.26058 0.38496 0.7043 0.0
C1257 C 0.25808 0.30662 0.70982 0.0
C1258 C 0.24931 0.31936 0.68589 0.0
H1259 H 0.27496 0.31124 0.74937 0.0
H1260 H 0.25779 0.28475 0.71169 0.0
C1261 C 0.25004 0.34781 0.68445 0.0
C1262 C 0.68469 0.1962 0.67761 0.0
C1263 C 0.68118 0.21415 0.65579 0.0
H1264 H 0.67265 0.18504 0.71766 0.0
C1265 C 0.65891 0.23176 0.65595 0.0
H1266 H 0.70136 0.18198 0.67784 0.0
C1267 C 0.64226 0.23343 0.67893 0.0
C1268 C 0.64772 0.21749 0.70196 0.0
H1269 H 0.65563 0.24571 0.63933 0.0
H1270 H 0.62663 0.24876 0.67948 0.0
C1271 C 0.66813 0.19783 0.70042 0.0
C1272 C 0.71625 0.36245 0.33241 0.0
C1273 C 0.72442 0.3748 0.30813 0.0
H1274 H 0.72747 0.35034 0.37244 0.0
C1275 C 0.74959 0.38771 0.30687 0.0
H1276 H 0.69682 0.35248 0.33381 0.0
C1277 C 0.76751 0.38577 0.32862 0.0
C1278 C 0.76027 0.37139 0.35212 0.0
H1279 H 0.75627 0.3974 0.28831 0.0
H1280 H 0.78764 0.39402 0.32641 0.0
C1281 C 0.73382 0.36131 0.35451 0.0
C1282 C 0.65711 0.7893 0.29248 0.0
C1283 C 0.64092 0.766 0.29086 0.0
H1284 H 0.68992 0.80901 0.31249 0.0
C1285 C 0.64214 0.74688 0.312 0.0
H1286 H 0.65614 0.80477 0.27697 0.0
C1287 C 0.66141 0.74944 0.33254 0.0
C1288 C 0.67978 0.7711 0.33215 0.0
H1289 H 0.62978 0.72879 0.31154 0.0
H1290 H 0.66327 0.73336 0.34737 0.0
C1291 C 0.67647 0.79173 0.31283 0.0
C1292 C 0.21221 0.66978 0.33698 0.0
C1293 C 0.19552 0.69268 0.33502 0.0
H1294 H 0.22851 0.63514 0.31651 0.0
C1295 C 0.17827 0.69515 0.31258 0.0
H1296 H 0.22557 0.66726 0.35415 0.0
C1297 C 0.17965 0.67662 0.29123 0.0
C1298 C 0.19861 0.65549 0.29167 0.0
H1299 H 0.16478 0.71234 0.31076 0.0
H1300 H 0.1673 0.68011 0.27349 0.0
C1301 C 0.21381 0.65134 0.31541 0.0
C1302 C 0.38475 0.24874 0.36155 0.0
C1303 C 0.36626 0.26192 0.37874 0.0
H1304 H 0.40208 0.24646 0.32163 0.0
C1305 C 0.35282 0.28512 0.36924 0.0
H1306 H 0.39526 0.23075 0.36837 0.0
C1307 C 0.35576 0.29324 0.34221 0.0
C1308 C 0.37317 0.27912 0.32471 0.0
H1309 H 0.33839 0.29565 0.38197 0.0
H1310 H 0.34384 0.31005 0.33474 0.0
C1311 C 0.38852 0.25756 0.33484 0.0
C1312 C 0.67964 0.80895 0.59991 0.0
C1313 C 0.68546 0.78351 0.58849 0.0
H1314 H 0.65557 0.82995 0.62913 0.0
C1315 C 0.66478 0.76387 0.58804 0.0
H1316 H 0.69461 0.82495 0.59982 0.0
C1317 C 0.64234 0.76677 0.60508 0.0
C1318 C 0.64042 0.78947 0.62206 0.0
H1319 H 0.66803 0.74438 0.57846 0.0
H1320 H 0.62953 0.7493 0.60854 0.0
C1321 C 0.657 0.81194 0.6166 0.0
C1322 C 0.73025 0.28885 0.28534 0.0
C1323 C 0.72894 0.29221 0.31364 0.0
H1324 H 0.70952 0.27792 0.24902 0.0
C1325 C 0.70468 0.28628 0.32717 0.0
H1326 H 0.74863 0.29325 0.27427 0.0
C1327 C 0.68204 0.27768 0.31257 0.0
C1328 C 0.68334 0.27459 0.28422 0.0
H1329 H 0.70295 0.28894 0.34892 0.0
H1330 H 0.66352 0.27354 0.32351 0.0
C1331 C 0.70778 0.28006 0.27083 0.0
C1332 C 0.7807 0.65664 0.32651 0.0
C1333 C 0.79671 0.65944 0.30312 0.0
H1334 H 0.7639 0.67649 0.36133 0.0
C1335 C 0.81262 0.68279 0.30005 0.0
H1336 H 0.76839 0.63875 0.3295 0.0
C1337 C 0.81018 0.70425 0.31827 0.0
C1338 C 0.79171 0.70287 0.33985 0.0
H1339 H 0.82561 0.68529 0.28251 0.0
H1340 H 0.82113 0.72274 0.31414 0.0
C1341 C 0.7782 0.67826 0.34478 0.0
C1342 C 0.28844 0.80834 0.34468 0.0
C1343 C 0.28144 0.7871 0.36229 0.0
H1344 H 0.31648 0.82326 0.31534 0.0
C1345 C 0.30061 0.76671 0.36753 0.0
H1346 H 0.27435 0.82457 0.34054 0.0
C1347 C 0.32497 0.76598 0.35303 0.0
C1348 C 0.33043 0.78559 0.33309 0.0
H1349 H 0.29587 0.75009 0.38107 0.0
H1350 H 0.33837 0.74888 0.35582 0.0
C1351 C 0.31262 0.80756 0.33019 0.0
C1352 C 0.26722 0.30736 0.35617 0.0
C1353 C 0.27687 0.28294 0.34497 0.0
H1354 H 0.25024 0.34658 0.34869 0.0
C1355 C 0.27511 0.2791 0.31678 0.0
H1356 H 0.26838 0.31111 0.37779 0.0
C1357 C 0.26455 0.2994 0.30014 0.0
C1358 C 0.25576 0.32418 0.31124 0.0
H1359 H 0.28237 0.26059 0.30745 0.0
H1360 H 0.26397 0.29592 0.27845 0.0
C1361 C 0.25692 0.3278 0.33948 0.0
C1362 C 0.33381 0.21638 0.61768 0.0
C1363 C 0.34667 0.24115 0.62309 0.0
H1364 H 0.29698 0.19765 0.60539 0.0
C1365 C 0.33793 0.26443 0.60941 0.0
H1366 H 0.34057 0.19802 0.62763 0.0
C1367 C 0.3128 0.26429 0.59656 0.0
C1368 C 0.29651 0.24091 0.59786 0.0
H1369 H 0.34778 0.28372 0.61292 0.0
H1370 H 0.30445 0.28352 0.59012 0.0
C1371 C 0.30863 0.21623 0.60509 0.0
C1372 C 0.79885 0.29558 0.65437 0.0
C1373 C 0.77798 0.29288 0.63531 0.0
H1374 H 0.81477 0.31807 0.68771 0.0
C1375 C 0.75926 0.3142 0.63265 0.0
H1376 H 0.81378 0.27976 0.65685 0.0
C1377 C 0.76003 0.3365 0.65038 0.0
C1378 C 0.77937 0.33768 0.67115 0.0
H1379 H 0.74293 0.31281 0.61817 0.0
H1380 H 0.74438 0.35175 0.64903 0.0
C1381 C 0.79939 0.31757 0.67217 0.0
C1382 C 0.29165 0.71373 0.71513 0.0
C1383 C 0.2756 0.69188 0.70652 0.0
H1384 H 0.30934 0.75193 0.70514 0.0
C1385 C 0.26475 0.69237 0.6802 0.0
H1386 H 0.30019 0.71414 0.73533 0.0
C1387 C 0.26975 0.7143 0.66292 0.0
C1388 C 0.28579 0.73615 0.67158 0.0
H1389 H 0.25219 0.67593 0.67298 0.0
H1390 H 0.26122 0.714 0.64272 0.0
C1391 C 0.29674 0.73555 0.69786 0.0
C1392 C 0.14079 0.37847 0.27948 0.0
C1393 C 0.15063 0.38262 0.25302 0.0
H1394 H 0.11586 0.35353 0.30463 0.0
C1395 C 0.13529 0.37308 0.23107 0.0
H1396 H 0.15176 0.38608 0.29687 0.0
C1397 C 0.1142 0.35482 0.23558 0.0
C1398 C 0.10901 0.34534 0.26202 0.0
H1399 H 0.14195 0.37658 0.21041 0.0
H1400 H 0.10547 0.3448 0.21811 0.0
C1401 C 0.12004 0.35978 0.28397 0.0
C1402 C 0.65047 0.12853 0.23326 0.0
C1403 C 0.65725 0.12545 0.26079 0.0
H1404 H 0.63076 0.15351 0.20387 0.0
C1405 C 0.64188 0.13929 0.28036 0.0
H1406 H 0.66168 0.1179 0.21764 0.0
C1407 C 0.62369 0.15941 0.27241 0.0
C1408 C 0.62119 0.16634 0.24482 0.0
H1409 H 0.64634 0.137 0.30174 0.0
H1410 H 0.61468 0.17193 0.28806 0.0
C1411 C 0.63273 0.14907 0.2253 0.0
C1412 C 0.87972 0.61972 0.20038 0.0
C1413 C 0.86503 0.60549 0.22024 0.0
H1414 H 0.90708 0.6523 0.19299 0.0
C1415 C 0.8754 0.60484 0.2468 0.0
H1416 H 0.87304 0.61982 0.17946 0.0
C1417 C 0.89489 0.62378 0.2547 0.0
C1418 C 0.90411 0.64326 0.23599 0.0
H1419 H 0.86537 0.59324 0.26252 0.0
H1420 H 0.89906 0.62607 0.27615 0.0
C1421 C 0.89939 0.63848 0.20823 0.0
C1422 C 0.40384 0.86631 0.24647 0.0
C1423 C 0.41031 0.84731 0.26672 0.0
H1424 H 0.37659 0.89783 0.23529 0.0
C1425 C 0.40541 0.85464 0.2939 0.0
H1426 H 0.40862 0.86213 0.22541 0.0
C1427 C 0.38665 0.87506 0.29962 0.0
C1428 C 0.37338 0.88819 0.27813 0.0
H1429 H 0.41142 0.84138 0.31032 0.0
H1430 H 0.37895 0.87668 0.32015 0.0
C1431 C 0.38528 0.8869 0.25221 0.0
C1432 C 0.16952 0.70196 0.82815 0.0
C1433 C 0.15132 0.71159 0.8087 0.0
H1434 H 0.2015 0.67462 0.83747 0.0
C1435 C 0.15003 0.69839 0.78342 0.0
H1436 H 0.17051 0.7113 0.84795 0.0
C1437 C 0.16824 0.67731 0.77719 0.0
C1438 C 0.18756 0.6689 0.79639 0.0
H1439 H 0.13591 0.70515 0.76813 0.0
H1440 H 0.1682 0.66874 0.75696 0.0
C1441 C 0.18711 0.68079 0.82222 0.0
C1442 C 0.36205 0.1624 0.71043 0.0
C1443 C 0.36312 0.17944 0.73329 0.0
H1444 H 0.34267 0.12818 0.69209 0.0
C1445 C 0.35198 0.17034 0.75783 0.0
H1446 H 0.3704 0.16898 0.6912 0.0
C1447 C 0.33681 0.14645 0.75854 0.0
C1448 C 0.3317 0.13198 0.73445 0.0
H1449 H 0.35257 0.1831 0.77572 0.0
H1450 H 0.32608 0.14162 0.77709 0.0
C1451 C 0.34613 0.13897 0.71091 0.0
C1452 C 0.86782 0.38946 0.76471 0.0
C1453 C 0.85105 0.40063 0.7446 0.0
H1454 H 0.89321 0.35596 0.77451 0.0
C1455 C 0.85837 0.39646 0.71731 0.0
H1456 H 0.86383 0.39345 0.78597 0.0
C1457 C 0.87525 0.3747 0.71066 0.0
C1458 C 0.88474 0.35761 0.7314 0.0
H1459 H 0.84704 0.40591 0.7011 0.0
H1460 H 0.87615 0.3682 0.68967 0.0
C1461 C 0.88481 0.36779 0.75806 0.0
C1462 C 0.65532 0.87779 0.76415 0.0
C1463 C 0.65267 0.87143 0.79183 0.0
H1464 H 0.64767 0.86454 0.72355 0.0
C1465 C 0.63251 0.85288 0.79973 0.0
H1466 H 0.67024 0.89231 0.75732 0.0
C1467 C 0.61937 0.8371 0.78021 0.0
C1468 C 0.62604 0.8401 0.75276 0.0
H1469 H 0.62953 0.84787 0.82093 0.0
H1470 H 0.60696 0.82027 0.78683 0.0
C1471 C 0.64229 0.86194 0.74471 0.0
C1472 C 0.26293 0.17646 0.3938 0.0
C1473 C 0.29119 0.17529 0.39521 0.0
H1474 H 0.22774 0.1662 0.37101 0.0
C1475 C 0.30515 0.158 0.37729 0.0
H1476 H 0.2515 0.18929 0.40746 0.0
C1477 C 0.29141 0.14438 0.35659 0.0
C1478 C 0.26357 0.14813 0.35341 0.0
H1479 H 0.32692 0.15643 0.37813 0.0
H1480 H 0.30288 0.13297 0.34175 0.0
C1481 C 0.2493 0.16317 0.37294 0.0
C1482 C 0.85239 0.27532 0.29836 0.0
C1483 C 0.85936 0.249 0.30633 0.0
H1484 H 0.83876 0.31441 0.31077 0.0
C1485 C 0.85837 0.24207 0.3339 0.0
H1486 H 0.85321 0.28108 0.27716 0.0
C1487 C 0.84879 0.26068 0.35304 0.0
C1488 C 0.8407 0.2868 0.34504 0.0
H1489 H 0.86359 0.22177 0.34044 0.0
H1490 H 0.84701 0.25437 0.37402 0.0
C1491 C 0.84383 0.2943 0.31765 0.0
C1492 C 0.76003 0.88114 0.36941 0.0
C1493 C 0.73258 0.87955 0.3624 0.0
H1494 H 0.79234 0.86014 0.38881 0.0
C1495 C 0.71511 0.86623 0.38057 0.0
H1496 H 0.77403 0.89247 0.35689 0.0
C1497 C 0.72573 0.84773 0.39923 0.0
C1498 C 0.75364 0.84255 0.39913 0.0
H1499 H 0.6936 0.86581 0.37675 0.0
H1500 H 0.71189 0.83383 0.40904 0.0
C1501 C 0.77064 0.8625 0.38794 0.0
C1502 C 0.11397 0.79566 0.37199 0.0
C1503 C 0.12761 0.77512 0.38622 0.0
H1504 H 0.09107 0.80488 0.33657 0.0
C1505 C 0.11804 0.74837 0.38362 0.0
H1506 H 0.11987 0.81667 0.37439 0.0
C1507 C 0.10171 0.74148 0.36155 0.0
C1508 C 0.09468 0.76144 0.34246 0.0
H1509 H 0.12705 0.73205 0.39517 0.0
H1510 H 0.09881 0.7202 0.35696 0.0
C1511 C 0.09737 0.7888 0.35011 0.0
C1512 C 0.23643 0.85848 0.61646 0.0
C1513 C 0.26289 0.8638 0.62512 0.0
H1514 H 0.19448 0.86255 0.62555 0.0
C1515 C 0.26707 0.88436 0.64447 0.0
H1516 H 0.23247 0.84326 0.60113 0.0
C1517 C 0.24519 0.89549 0.6585 0.0
C1518 C 0.21893 0.88613 0.65335 0.0
H1519 H 0.28725 0.8895 0.65109 0.0
H1520 H 0.24924 0.90879 0.67551 0.0
C1521 C 0.21457 0.86955 0.63055 0.0
C1522 C 0.13981 0.27649 0.65852 0.0
C1523 C 0.14588 0.2563 0.63931 0.0
H1524 H 0.12159 0.28499 0.69709 0.0
C1525 C 0.13105 0.23206 0.6397 0.0
H1526 H 0.15114 0.29527 0.65885 0.0
C1527 C 0.11351 0.22647 0.66125 0.0
C1528 C 0.11132 0.24474 0.68305 0.0
H1529 H 0.13553 0.21612 0.62524 0.0
H1530 H 0.1048 0.20637 0.66264 0.0
C1531 C 0.123 0.27055 0.68057 0.0
C1532 C 0.76294 0.10463 0.62623 0.0
C1533 C 0.73524 0.10192 0.63202 0.0
H1534 H 0.79306 0.12958 0.60775 0.0
C1535 C 0.71677 0.11417 0.61419 0.0
H1536 H 0.77787 0.09465 0.63874 0.0
C1537 C 0.72558 0.13417 0.59611 0.0
C1538 C 0.75287 0.14205 0.5959 0.0
H1539 H 0.69527 0.1117 0.61727 0.0
H1540 H 0.71048 0.14628 0.58589 0.0
C1541 C 0.77174 0.12481 0.60834 0.0
C1542 C 0.84836 0.74802 0.63187 0.0
C1543 C 0.8309 0.72959 0.61905 0.0
H1544 H 0.87402 0.75533 0.66588 0.0
C1545 C 0.83288 0.70194 0.62592 0.0
H1546 H 0.84778 0.76936 0.62674 0.0
C1547 C 0.84747 0.69396 0.6488 0.0
C1548 C 0.86094 0.71338 0.6646 0.0
H1549 H 0.82022 0.68698 0.61611 0.0
H1550 H 0.84563 0.67324 0.65583 0.0
C1551 C 0.86345 0.73991 0.65442 0.0
C1552 C 0.3581 0.23676 0.13936 0.0
C1553 C 0.35557 0.26041 0.12354 0.0
H1554 H 0.37027 0.22056 0.17774 0.0
C1555 C 0.37226 0.28262 0.12957 0.0
H1556 H 0.34584 0.21908 0.13515 0.0
C1557 C 0.38695 0.28312 0.15378 0.0
C1558 C 0.38461 0.26164 0.17242 0.0
H1559 H 0.37101 0.301 0.11763 0.0
H1560 H 0.39672 0.30189 0.15956 0.0
C1561 C 0.37208 0.23757 0.16396 0.0
C1562 C 0.33837 0.72131 0.80098 0.0
C1563 C 0.33879 0.6966 0.78676 0.0
H1564 H 0.31968 0.74434 0.83305 0.0
C1565 C 0.32371 0.67482 0.79686 0.0
H1566 H 0.35012 0.73837 0.7938 0.0
C1567 C 0.30715 0.67784 0.81951 0.0
C1568 C 0.30473 0.70299 0.8325 0.0
H1569 H 0.32431 0.65548 0.78665 0.0
H1570 H 0.29502 0.66081 0.82603 0.0
C1571 C 0.32122 0.72457 0.82361 0.0
C1572 C 0.2278 0.38168 0.85376 0.0
C1573 C 0.23683 0.35699 0.86456 0.0
H1574 H 0.23833 0.41841 0.83353 0.0
C1575 C 0.26465 0.35244 0.86709 0.0
H1576 H 0.20642 0.38569 0.85172 0.0
C1577 C 0.28307 0.371 0.85613 0.0
C1578 C 0.27384 0.39438 0.84267 0.0
H1579 H 0.27211 0.33347 0.87519 0.0
H1580 H 0.30435 0.36609 0.85653 0.0
C1581 C 0.24612 0.40031 0.84315 0.0
C1582 C 0.6015 0.21607 0.86429 0.0
C1583 C 0.59215 0.23697 0.84734 0.0
H1584 H 0.62916 0.2063 0.89587 0.0
C1585 C 0.59141 0.26341 0.85802 0.0
H1586 H 0.60102 0.19521 0.8574 0.0
C1587 C 0.60788 0.26986 0.88013 0.0
C1588 C 0.62487 0.24979 0.89104 0.0
H1589 H 0.58301 0.27993 0.8463 0.0
H1590 H 0.61156 0.29108 0.88447 0.0
C1591 C 0.61778 0.22253 0.88652 0.0
C1592 C 0.72005 0.66941 0.85434 0.0
C1593 C 0.72668 0.65274 0.83222 0.0
H1594 H 0.73221 0.70213 0.88019 0.0
C1595 C 0.75077 0.65762 0.81795 0.0
H1596 H 0.70144 0.66625 0.86546 0.0
C1597 C 0.76799 0.67866 0.82585 0.0
C1598 C 0.76172 0.69486 0.84849 0.0
H1599 H 0.75617 0.64541 0.80049 0.0
H1600 H 0.78659 0.68172 0.8147 0.0
C1601 C 0.73755 0.69003 0.86263 0.0
C1602 C 0.62029 0.69636 0.12142 0.0
C1603 C 0.63488 0.71738 0.10887 0.0
H1604 H 0.5922 0.68641 0.15273 0.0
C1605 C 0.62372 0.74361 0.10934 0.0
H1606 H 0.62759 0.67568 0.12054 0.0
C1607 C 0.60343 0.74988 0.12811 0.0
C1608 C 0.59426 0.72988 0.14629 0.0
H1609 H 0.63366 0.76021 0.09899 0.0
H1610 H 0.59858 0.77102 0.13152 0.0
C1611 C 0.59984 0.7026 0.14001 0.0
C1612 C 0.22722 0.62118 0.12798 0.0
C1613 C 0.24228 0.60773 0.14804 0.0
H1614 H 0.22775 0.65232 0.09793 0.0
C1615 C 0.27045 0.60635 0.14468 0.0
H1616 H 0.20541 0.62174 0.12916 0.0
C1617 C 0.28339 0.62424 0.12688 0.0
C1618 C 0.26813 0.64321 0.11215 0.0
H1619 H 0.28278 0.59522 0.15897 0.0
H1620 H 0.30511 0.62619 0.12813 0.0
C1621 C 0.24016 0.63887 0.10997 0.0
C1622 C 0.75832 0.35777 0.16286 0.0
C1623 C 0.73433 0.34419 0.16954 0.0
H1624 H 0.79617 0.35558 0.1419 0.0
C1625 C 0.72771 0.3202 0.15574 0.0
H1626 H 0.76377 0.37644 0.17306 0.0
C1627 C 0.7458 0.30875 0.13727 0.0
C1628 C 0.77116 0.3207 0.13287 0.0
H1629 H 0.70909 0.30959 0.1602 0.0
H1630 H 0.74091 0.28923 0.12849 0.0
C1631 C 0.77675 0.34596 0.14487 0.0
loop_
_geom_bond_atom_site_label_1
_geom_bond_atom_site_label_2
_geom_bond_distance
_geom_bond_site_symmetry_2
_ccdc_geom_bond_type
Zn0 O3 2.031 . S
Zn0 O5 2.049 . S
Zn0 O10 2.067 . S
Zn1 O2 1.962 . S
Zn1 O4 1.986 . S
Zn1 O6 1.996 . S
Zn1 O9 1.943 . S
O2 Zn1 1.962 . S
O2 C7 1.254 . S
O3 Zn0 2.031 . S
O3 C7 1.269 . S
O4 Zn1 1.986 . S
O4 C11 1.262 . S
O5 Zn0 2.049 . S
O5 C13 1.260 . S
O6 Zn1 1.996 . S
O6 C13 1.257 . S
C7 O2 1.254 . S
C7 O3 1.269 . S
C8 O9 1.249 . S
C8 O10 1.270 . S
O9 Zn1 1.943 . S
O9 C8 1.249 . S
O10 Zn0 2.067 . S
O10 C8 1.270 . S
C11 O4 1.262 . S
C11 O12 1.232 . S
O12 C11 1.232 . S
C13 O5 1.260 . S
C13 O6 1.257 . S
Zn14 O17 2.031 . S
Zn14 O19 2.049 . S
Zn14 O24 2.067 . S
Zn15 O16 1.962 . S
Zn15 O18 1.986 . S
Zn15 O20 1.996 . S
Zn15 O23 1.943 . S
O16 Zn15 1.962 . S
O16 C21 1.254 . S
O17 Zn14 2.031 . S
O17 C21 1.269 . S
O18 Zn15 1.986 . S
O18 C25 1.262 . S
O19 Zn14 2.049 . S
O19 C27 1.260 . S
O20 Zn15 1.996 . S
O20 C27 1.257 . S
C21 O16 1.254 . S
C21 O17 1.269 . S
C22 O23 1.249 . S
C22 O24 1.270 . S
O23 Zn15 1.943 . S
O23 C22 1.249 . S
O24 Zn14 2.067 . S
O24 C22 1.270 . S
C25 O18 1.262 . S
C25 O26 1.232 . S
O26 C25 1.232 . S
C27 O19 1.260 . S
C27 O20 1.257 . S
Zn28 O31 2.031 . S
Zn28 O33 2.049 . S
Zn28 O38 2.067 . S
Zn29 O30 1.962 . S
Zn29 O32 1.986 . S
Zn29 O34 1.996 . S
Zn29 O37 1.943 . S
O30 Zn29 1.962 . S
O30 C35 1.254 . S
O31 Zn28 2.031 . S
O31 C35 1.269 . S
O32 Zn29 1.986 . S
O32 C39 1.262 . S
O33 Zn28 2.049 . S
O33 C41 1.260 . S
O34 Zn29 1.996 . S
O34 C41 1.257 . S
C35 O30 1.254 . S
C35 O31 1.269 . S
C36 O37 1.249 . S
C36 O38 1.270 . S
O37 Zn29 1.943 . S
O37 C36 1.249 . S
O38 Zn28 2.067 . S
O38 C36 1.270 . S
C39 O32 1.262 . S
C39 O40 1.232 . S
O40 C39 1.232 . S
C41 O33 1.260 . S
C41 O34 1.257 . S
Zn42 O45 2.031 . S
Zn42 O47 2.049 . S
Zn42 O52 2.067 . S
Zn43 O44 1.962 . S
Zn43 O46 1.986 . S
Zn43 O48 1.996 . S
Zn43 O51 1.943 . S
O44 Zn43 1.962 . S
O44 C49 1.254 . S
O45 Zn42 2.031 . S
O45 C49 1.269 . S
O46 Zn43 1.986 . S
O46 C53 1.262 . S
O47 Zn42 2.049 . S
O47 C55 1.260 . S
O48 Zn43 1.996 . S
O48 C55 1.257 . S
C49 O44 1.254 . S
C49 O45 1.269 . S
C50 O51 1.249 . S
C50 O52 1.270 . S
O51 Zn43 1.943 . S
O51 C50 1.249 . S
O52 Zn42 2.067 . S
O52 C50 1.270 . S
C53 O46 1.262 . S
C53 O54 1.232 . S
O54 C53 1.232 . S
C55 O47 1.260 . S
C55 O48 1.257 . S
Zn56 O59 2.031 . S
Zn56 O61 2.049 . S
Zn56 O66 2.067 . S
Zn57 O58 1.962 . S
Zn57 O60 1.986 . S
Zn57 O62 1.996 . S
Zn57 O65 1.943 . S
O58 Zn57 1.962 . S
O58 C63 1.254 . S
O59 Zn56 2.031 . S
O59 C63 1.269 . S
O60 Zn57 1.986 . S
O60 C67 1.262 . S
O61 Zn56 2.049 . S
O61 C69 1.260 . S
O62 Zn57 1.996 . S
O62 C69 1.257 . S
C63 O58 1.254 . S
C63 O59 1.269 . S
C64 O65 1.249 . S
C64 O66 1.270 . S
O65 Zn57 1.943 . S
O65 C64 1.249 . S
O66 Zn56 2.067 . S
O66 C64 1.270 . S
C67 O60 1.262 . S
C67 O68 1.232 . S
O68 C67 1.232 . S
C69 O61 1.260 . S
C69 O62 1.257 . S
Zn70 O73 2.031 . S
Zn70 O75 2.049 . S
Zn70 O80 2.067 . S
Zn71 O72 1.962 . S
Zn71 O74 1.986 . S
Zn71 O76 1.996 . S
Zn71 O79 1.943 . S
O72 Zn71 1.962 . S
O72 C77 1.254 . S
O73 Zn70 2.031 . S
O73 C77 1.269 . S
O74 Zn71 1.986 . S
O74 C81 1.262 . S
O75 Zn70 2.049 . S
O75 C83 1.260 . S
O76 Zn71 1.996 . S
O76 C83 1.257 . S
C77 O72 1.254 . S
C77 O73 1.269 . S
C78 O79 1.249 . S
C78 O80 1.270 . S
O79 Zn71 1.943 . S
O79 C78 1.249 . S
O80 Zn70 2.067 . S
O80 C78 1.270 . S
C81 O74 1.262 . S
C81 O82 1.232 . S
O82 C81 1.232 . S
C83 O75 1.260 . S
C83 O76 1.257 . S
Zn84 O87 2.031 . S
Zn84 O89 2.049 . S
Zn84 O94 2.067 . S
Zn85 O86 1.962 . S
Zn85 O88 1.986 . S
Zn85 O90 1.996 . S
Zn85 O93 1.943 . S
O86 Zn85 1.962 . S
O86 C91 1.254 . S
O87 Zn84 2.031 . S
O87 C91 1.269 . S
O88 Zn85 1.986 . S
O88 C95 1.262 . S
O89 Zn84 2.049 . S
O89 C97 1.260 . S
O90 Zn85 1.996 . S
O90 C97 1.257 . S
C91 O86 1.254 . S
C91 O87 1.269 . S
C92 O93 1.249 . S
C92 O94 1.270 . S
O93 Zn85 1.943 . S
O93 C92 1.249 . S
O94 Zn84 2.067 . S
O94 C92 1.270 . S
C95 O88 1.262 . S
C95 O96 1.232 . S
O96 C95 1.232 . S
C97 O89 1.260 . S
C97 O90 1.257 . S
Zn98 O101 2.031 . S
Zn98 O103 2.049 . S
Zn98 O108 2.067 . S
Zn99 O100 1.962 . S
Zn99 O102 1.986 . S
Zn99 O104 1.996 . S
Zn99 O107 1.943 . S
O100 Zn99 1.962 . S
O100 C105 1.254 . S
O101 Zn98 2.031 . S
O101 C105 1.269 . S
O102 Zn99 1.986 . S
O102 C109 1.262 . S
O103 Zn98 2.049 . S
O103 C111 1.260 . S
O104 Zn99 1.996 . S
O104 C111 1.257 . S
C105 O100 1.254 . S
C105 O101 1.269 . S
C106 O107 1.249 . S
C106 O108 1.270 . S
O107 Zn99 1.943 . S
O107 C106 1.249 . S
O108 Zn98 2.067 . S
O108 C106 1.270 . S
C109 O102 1.262 . S
C109 O110 1.232 . S
O110 C109 1.232 . S
C111 O103 1.260 . S
C111 O104 1.257 . S
Zn112 O115 2.031 . S
Zn112 O117 2.049 . S
Zn112 O122 2.067 . S
Zn113 O114 1.962 . S
Zn113 O116 1.986 . S
Zn113 O118 1.996 . S
Zn113 O121 1.943 . S
O114 Zn113 1.962 . S
O114 C119 1.254 . S
O115 Zn112 2.031 . S
O115 C119 1.269 . S
O116 Zn113 1.986 . S
O116 C123 1.262 . S
O117 Zn112 2.049 . S
O117 C125 1.260 . S
O118 Zn113 1.996 . S
O118 C125 1.257 . S
C119 O114 1.254 . S
C119 O115 1.269 . S
C120 O121 1.249 . S
C120 O122 1.270 . S
O121 Zn113 1.943 . S
O121 C120 1.249 . S
O122 Zn112 2.067 . S
O122 C120 1.270 . S
C123 O116 1.262 . S
C123 O124 1.232 . S
O124 C123 1.232 . S
C125 O117 1.260 . S
C125 O118 1.257 . S
Zn126 O129 2.031 . S
Zn126 O131 2.049 . S
Zn126 O136 2.067 . S
Zn127 O128 1.962 . S
Zn127 O130 1.986 . S
Zn127 O132 1.996 . S
Zn127 O135 1.943 . S
O128 Zn127 1.962 . S
O128 C133 1.254 . S
O129 Zn126 2.031 . S
O129 C133 1.269 . S
O130 Zn127 1.986 . S
O130 C137 1.262 . S
O131 Zn126 2.049 . S
O131 C139 1.260 . S
O132 Zn127 1.996 . S
O132 C139 1.257 . S
C133 O128 1.254 . S
C133 O129 1.269 . S
C134 O135 1.249 . S
C134 O136 1.270 . S
O135 Zn127 1.943 . S
O135 C134 1.249 . S
O136 Zn126 2.067 . S
O136 C134 1.270 . S
C137 O130 1.262 . S
C137 O138 1.232 . S
O138 C137 1.232 . S
C139 O131 1.260 . S
C139 O132 1.257 . S
Zn140 O143 2.031 . S
Zn140 O145 2.049 . S
Zn140 O150 2.067 . S
Zn141 O142 1.962 . S
Zn141 O144 1.986 . S
Zn141 O146 1.996 . S
Zn141 O149 1.943 . S
O142 Zn141 1.962 . S
O142 C147 1.254 . S
O143 Zn140 2.031 . S
O143 C147 1.269 . S
O144 Zn141 1.986 . S
O144 C151 1.262 . S
O145 Zn140 2.049 . S
O145 C153 1.260 . S
O146 Zn141 1.996 . S
O146 C153 1.257 . S
C147 O142 1.254 . S
C147 O143 1.269 . S
C148 O149 1.249 . S
C148 O150 1.270 . S
O149 Zn141 1.943 . S
O149 C148 1.249 . S
O150 Zn140 2.067 . S
O150 C148 1.270 . S
C151 O144 1.262 . S
C151 O152 1.232 . S
O152 C151 1.232 . S
C153 O145 1.260 . S
C153 O146 1.257 . S
Zn154 O157 2.031 . S
Zn154 O159 2.049 . S
Zn154 O164 2.067 . S
Zn155 O156 1.962 . S
Zn155 O158 1.986 . S
Zn155 O160 1.996 . S
Zn155 O163 1.943 . S
O156 Zn155 1.962 . S
O156 C161 1.254 . S
O157 Zn154 2.031 . S
O157 C161 1.269 . S
O158 Zn155 1.986 . S
O158 C165 1.262 . S
O159 Zn154 2.049 . S
O159 C167 1.260 . S
O160 Zn155 1.996 . S
O160 C167 1.257 . S
C161 O156 1.254 . S
C161 O157 1.269 . S
C162 O163 1.249 . S
C162 O164 1.270 . S
O163 Zn155 1.943 . S
O163 C162 1.249 . S
O164 Zn154 2.067 . S
O164 C162 1.270 . S
C165 O158 1.262 . S
C165 O166 1.232 . S
O166 C165 1.232 . S
C167 O159 1.260 . S
C167 O160 1.257 . S
Zn168 O171 2.031 . S
Zn168 O173 2.049 . S
Zn168 O178 2.067 . S
Zn169 O170 1.962 . S
Zn169 O172 1.986 . S
Zn169 O174 1.996 . S
Zn169 O177 1.943 . S
O170 Zn169 1.962 . S
O170 C175 1.254 . S
O171 Zn168 2.031 . S
O171 C175 1.269 . S
O172 Zn169 1.986 . S
O172 C179 1.262 . S
O173 Zn168 2.049 . S
O173 C181 1.260 . S
O174 Zn169 1.996 . S
O174 C181 1.257 . S
C175 O170 1.254 . S
C175 O171 1.269 . S
C176 O177 1.249 . S
C176 O178 1.270 . S
O177 Zn169 1.943 . S
O177 C176 1.249 . S
O178 Zn168 2.067 . S
O178 C176 1.270 . S
C179 O172 1.262 . S
C179 O180 1.232 . S
O180 C179 1.232 . S
C181 O173 1.260 . S
C181 O174 1.257 . S
Zn182 O185 2.031 . S
Zn182 O187 2.049 . S
Zn182 O192 2.067 . S
Zn183 O184 1.962 . S
Zn183 O186 1.986 . S
Zn183 O188 1.996 . S
Zn183 O191 1.943 . S
O184 Zn183 1.962 . S
O184 C189 1.254 . S
O185 Zn182 2.031 . S
O185 C189 1.269 . S
O186 Zn183 1.986 . S
O186 C193 1.262 . S
O187 Zn182 2.049 . S
O187 C195 1.260 . S
O188 Zn183 1.996 . S
O188 C195 1.257 . S
C189 O184 1.254 . S
C189 O185 1.269 . S
C190 O191 1.249 . S
C190 O192 1.270 . S
O191 Zn183 1.943 . S
O191 C190 1.249 . S
O192 Zn182 2.067 . S
O192 C190 1.270 . S
C193 O186 1.262 . S
C193 O194 1.232 . S
O194 C193 1.232 . S
C195 O187 1.260 . S
C195 O188 1.257 . S
Zn196 O199 2.031 . S
Zn196 O201 2.049 . S
Zn196 O206 2.067 . S
Zn197 O198 1.962 . S
Zn197 O200 1.986 . S
Zn197 O202 1.996 . S
Zn197 O205 1.943 . S
O198 Zn197 1.962 . S
O198 C203 1.254 . S
O199 Zn196 2.031 . S
O199 C203 1.269 . S
O200 Zn197 1.986 . S
O200 C207 1.262 . S
O201 Zn196 2.049 . S
O201 C209 1.260 . S
O202 Zn197 1.996 . S
O202 C209 1.257 . S
C203 O198 1.254 . S
C203 O199 1.269 . S
C204 O205 1.249 . S
C204 O206 1.270 . S
O205 Zn197 1.943 . S
O205 C204 1.249 . S
O206 Zn196 2.067 . S
O206 C204 1.270 . S
C207 O200 1.262 . S
C207 O208 1.232 . S
O208 C207 1.232 . S
C209 O201 1.260 . S
C209 O202 1.257 . S
Zn210 O213 2.031 . S
Zn210 O215 2.049 . S
Zn210 O220 2.067 . S
Zn211 O212 1.962 . S
Zn211 O214 1.986 . S
Zn211 O216 1.996 . S
Zn211 O219 1.943 . S
O212 Zn211 1.962 . S
O212 C217 1.254 . S
O213 Zn210 2.031 . S
O213 C217 1.269 . S
O214 Zn211 1.986 . S
O214 C221 1.262 . S
O215 Zn210 2.049 . S
O215 C223 1.260 . S
O216 Zn211 1.996 . S
O216 C223 1.257 . S
C217 O212 1.254 . S
C217 O213 1.269 . S
C218 O219 1.249 . S
C218 O220 1.270 . S
O219 Zn211 1.943 . S
O219 C218 1.249 . S
O220 Zn210 2.067 . S
O220 C218 1.270 . S
C221 O214 1.262 . S
C221 O222 1.232 . S
O222 C221 1.232 . S
C223 O215 1.260 . S
C223 O216 1.257 . S
Zn224 O227 2.031 . S
Zn224 O229 2.049 . S
Zn224 O234 2.067 . S
Zn225 O226 1.962 . S
Zn225 O228 1.986 . S
Zn225 O230 1.996 . S
Zn225 O233 1.943 . S
O226 Zn225 1.962 . S
O226 C231 1.254 . S
O227 Zn224 2.031 . S
O227 C231 1.269 . S
O228 Zn225 1.986 . S
O228 C235 1.262 . S
O229 Zn224 2.049 . S
O229 C237 1.260 . S
O230 Zn225 1.996 . S
O230 C237 1.257 . S
C231 O226 1.254 . S
C231 O227 1.269 . S
C232 O233 1.249 . S
C232 O234 1.270 . S
O233 Zn225 1.943 . S
O233 C232 1.249 . S
O234 Zn224 2.067 . S
O234 C232 1.270 . S
C235 O228 1.262 . S
C235 O236 1.232 . S
O236 C235 1.232 . S
C237 O229 1.260 . S
C237 O230 1.257 . S
Zn238 O241 2.031 . S
Zn238 O243 2.049 . S
Zn238 O248 2.067 . S
Zn239 O240 1.962 . S
Zn239 O242 1.986 . S
Zn239 O244 1.996 . S
Zn239 O247 1.943 . S
O240 Zn239 1.962 . S
O240 C245 1.254 . S
O241 Zn238 2.031 . S
O241 C245 1.269 . S
O242 Zn239 1.986 . S
O242 C249 1.262 . S
O243 Zn238 2.049 . S
O243 C251 1.260 . S
O244 Zn239 1.996 . S
O244 C251 1.257 . S
C245 O240 1.254 . S
C245 O241 1.269 . S
C246 O247 1.249 . S
C246 O248 1.270 . S
O247 Zn239 1.943 . S
O247 C246 1.249 . S
O248 Zn238 2.067 . S
O248 C246 1.270 . S
C249 O242 1.262 . S
C249 O250 1.232 . S
O250 C249 1.232 . S
C251 O243 1.260 . S
C251 O244 1.257 . S
Zn252 O255 2.031 . S
Zn252 O257 2.049 . S
Zn252 O262 2.067 . S
Zn253 O254 1.962 . S
Zn253 O256 1.986 . S
Zn253 O258 1.996 . S
Zn253 O261 1.943 . S
O254 Zn253 1.962 . S
O254 C259 1.254 . S
O255 Zn252 2.031 . S
O255 C259 1.269 . S
O256 Zn253 1.986 . S
O256 C263 1.262 . S
O257 Zn252 2.049 . S
O257 C265 1.260 . S
O258 Zn253 1.996 . S
O258 C265 1.257 . S
C259 O254 1.254 . S
C259 O255 1.269 . S
C260 O261 1.249 . S
C260 O262 1.270 . S
O261 Zn253 1.943 . S
O261 C260 1.249 . S
O262 Zn252 2.067 . S
O262 C260 1.270 . S
C263 O256 1.262 . S
C263 O264 1.232 . S
O264 C263 1.232 . S
C265 O257 1.260 . S
C265 O258 1.257 . S
Zn266 O269 2.031 . S
Zn266 O271 2.049 . S
Zn266 O276 2.067 . S
Zn267 O268 1.962 . S
Zn267 O270 1.986 . S
Zn267 O272 1.996 . S
Zn267 O275 1.943 . S
O268 Zn267 1.962 . S
O268 C273 1.254 . S
O269 Zn266 2.031 . S
O269 C273 1.269 . S
O270 Zn267 1.986 . S
O270 C277 1.262 . S
O271 Zn266 2.049 . S
O271 C279 1.260 . S
O272 Zn267 1.996 . S
O272 C279 1.257 . S
C273 O268 1.254 . S
C273 O269 1.269 . S
C274 O275 1.249 . S
C274 O276 1.270 . S
O275 Zn267 1.943 . S
O275 C274 1.249 . S
O276 Zn266 2.067 . S
O276 C274 1.270 . S
C277 O270 1.262 . S
C277 O278 1.232 . S
O278 C277 1.232 . S
C279 O271 1.260 . S
C279 O272 1.257 . S
Zn280 O283 2.031 . S
Zn280 O285 2.049 . S
Zn280 O290 2.067 . S
Zn281 O282 1.962 . S
Zn281 O284 1.986 . S
Zn281 O286 1.996 . S
Zn281 O289 1.943 . S
O282 Zn281 1.962 . S
O282 C287 1.254 . S
O283 Zn280 2.031 . S
O283 C287 1.269 . S
O284 Zn281 1.986 . S
O284 C291 1.262 . S
O285 Zn280 2.049 . S
O285 C293 1.260 . S
O286 Zn281 1.996 . S
O286 C293 1.257 . S
C287 O282 1.254 . S
C287 O283 1.269 . S
C288 O289 1.249 . S
C288 O290 1.270 . S
O289 Zn281 1.943 . S
O289 C288 1.249 . S
O290 Zn280 2.067 . S
O290 C288 1.270 . S
C291 O284 1.262 . S
C291 O292 1.232 . S
O292 C291 1.232 . S
C293 O285 1.260 . S
C293 O286 1.257 . S
Zn294 O297 2.031 . S
Zn294 O299 2.049 . S
Zn294 O304 2.067 . S
Zn295 O296 1.962 . S
Zn295 O298 1.986 . S
Zn295 O300 1.996 . S
Zn295 O303 1.943 . S
O296 Zn295 1.962 . S
O296 C301 1.254 . S
O297 Zn294 2.031 . S
O297 C301 1.269 . S
O298 Zn295 1.986 . S
O298 C305 1.262 . S
O299 Zn294 2.049 . S
O299 C307 1.260 . S
O300 Zn295 1.996 . S
O300 C307 1.257 . S
C301 O296 1.254 . S
C301 O297 1.269 . S
C302 O303 1.249 . S
C302 O304 1.270 . S
O303 Zn295 1.943 . S
O303 C302 1.249 . S
O304 Zn294 2.067 . S
O304 C302 1.270 . S
C305 O298 1.262 . S
C305 O306 1.232 . S
O306 C305 1.232 . S
C307 O299 1.260 . S
C307 O300 1.257 . S
Zn308 O311 2.031 . S
Zn308 O313 2.049 . S
Zn308 O318 2.067 . S
Zn309 O310 1.962 . S
Zn309 O312 1.986 . S
Zn309 O314 1.996 . S
Zn309 O317 1.943 . S
O310 Zn309 1.962 . S
O310 C315 1.254 . S
O311 Zn308 2.031 . S
O311 C315 1.269 . S
O312 Zn309 1.986 . S
O312 C319 1.262 . S
O313 Zn308 2.049 . S
O313 C321 1.260 . S
O314 Zn309 1.996 . S
O314 C321 1.257 . S
C315 O310 1.254 . S
C315 O311 1.269 . S
C316 O317 1.249 . S
C316 O318 1.270 . S
O317 Zn309 1.943 . S
O317 C316 1.249 . S
O318 Zn308 2.067 . S
O318 C316 1.270 . S
C319 O312 1.262 . S
C319 O320 1.232 . S
O320 C319 1.232 . S
C321 O313 1.260 . S
C321 O314 1.257 . S
Zn322 O325 2.031 . S
Zn322 O327 2.049 . S
Zn322 O332 2.067 . S
Zn323 O324 1.962 . S
Zn323 O326 1.986 . S
Zn323 O328 1.996 . S
Zn323 O331 1.943 . S
O324 Zn323 1.962 . S
O324 C329 1.254 . S
O325 Zn322 2.031 . S
O325 C329 1.269 . S
O326 Zn323 1.986 . S
O326 C333 1.262 . S
O327 Zn322 2.049 . S
O327 C335 1.260 . S
O328 Zn323 1.996 . S
O328 C335 1.257 . S
C329 O324 1.254 . S
C329 O325 1.269 . S
C330 O331 1.249 . S
C330 O332 1.270 . S
O331 Zn323 1.943 . S
O331 C330 1.249 . S
O332 Zn322 2.067 . S
O332 C330 1.270 . S
C333 O326 1.262 . S
C333 O334 1.232 . S
O334 C333 1.232 . S
C335 O327 1.260 . S
C335 O328 1.257 . S
Zn336 O339 2.031 . S
Zn336 O341 2.049 . S
Zn336 O346 2.067 . S
Zn337 O338 1.962 . S
Zn337 O340 1.986 . S
Zn337 O342 1.996 . S
Zn337 O345 1.943 . S
O338 Zn337 1.962 . S
O338 C343 1.254 . S
O339 Zn336 2.031 . S
O339 C343 1.269 . S
O340 Zn337 1.986 . S
O340 C347 1.262 . S
O341 Zn336 2.049 . S
O341 C349 1.260 . S
O342 Zn337 1.996 . S
O342 C349 1.257 . S
C343 O338 1.254 . S
C343 O339 1.269 . S
C344 O345 1.249 . S
C344 O346 1.270 . S
O345 Zn337 1.943 . S
O345 C344 1.249 . S
O346 Zn336 2.067 . S
O346 C344 1.270 . S
C347 O340 1.262 . S
C347 O348 1.232 . S
O348 C347 1.232 . S
C349 O341 1.260 . S
C349 O342 1.257 . S
Zn350 O353 2.031 . S
Zn350 O355 2.049 . S
Zn350 O360 2.067 . S
Zn351 O352 1.962 . S
Zn351 O354 1.986 . S
Zn351 O356 1.996 . S
Zn351 O359 1.943 . S
O352 Zn351 1.962 . S
O352 C357 1.254 . S
O353 Zn350 2.031 . S
O353 C357 1.269 . S
O354 Zn351 1.986 . S
O354 C361 1.262 . S
O355 Zn350 2.049 . S
O355 C363 1.260 . S
O356 Zn351 1.996 . S
O356 C363 1.257 . S
C357 O352 1.254 . S
C357 O353 1.269 . S
C358 O359 1.249 . S
C358 O360 1.270 . S
O359 Zn351 1.943 . S
O359 C358 1.249 . S
O360 Zn350 2.067 . S
O360 C358 1.270 . S
C361 O354 1.262 . S
C361 O362 1.232 . S
O362 C361 1.232 . S
C363 O355 1.260 . S
C363 O356 1.257 . S
Zn364 O367 2.031 . S
Zn364 O369 2.049 . S
Zn364 O374 2.067 . S
Zn365 O366 1.962 . S
Zn365 O368 1.986 . S
Zn365 O370 1.996 . S
Zn365 O373 1.943 . S
O366 Zn365 1.962 . S
O366 C371 1.254 . S
O367 Zn364 2.031 . S
O367 C371 1.269 . S
O368 Zn365 1.986 . S
O368 C375 1.262 . S
O369 Zn364 2.049 . S
O369 C377 1.260 . S
O370 Zn365 1.996 . S
O370 C377 1.257 . S
C371 O366 1.254 . S
C371 O367 1.269 . S
C372 O373 1.249 . S
C372 O374 1.270 . S
O373 Zn365 1.943 . S
O373 C372 1.249 . S
O374 Zn364 2.067 . S
O374 C372 1.270 . S
C375 O368 1.262 . S
C375 O376 1.232 . S
O376 C375 1.232 . S
C377 O369 1.260 . S
C377 O370 1.257 . S
Zn378 O381 2.031 . S
Zn378 O383 2.049 . S
Zn378 O388 2.067 . S
Zn379 O380 1.962 . S
Zn379 O382 1.986 . S
Zn379 O384 1.996 . S
Zn379 O387 1.943 . S
O380 Zn379 1.962 . S
O380 C385 1.254 . S
O381 Zn378 2.031 . S
O381 C385 1.269 . S
O382 Zn379 1.986 . S
O382 C389 1.262 . S
O383 Zn378 2.049 . S
O383 C391 1.260 . S
O384 Zn379 1.996 . S
O384 C391 1.257 . S
C385 O380 1.254 . S
C385 O381 1.269 . S
C386 O387 1.249 . S
C386 O388 1.270 . S
O387 Zn379 1.943 . S
O387 C386 1.249 . S
O388 Zn378 2.067 . S
O388 C386 1.270 . S
C389 O382 1.262 . S
C389 O390 1.232 . S
O390 C389 1.232 . S
C391 O383 1.260 . S
C391 O384 1.257 . S
Zn392 O395 2.031 . S
Zn392 O397 2.049 . S
Zn392 O402 2.067 . S
Zn393 O394 1.962 . S
Zn393 O396 1.986 . S
Zn393 O398 1.996 . S
Zn393 O401 1.943 . S
O394 Zn393 1.962 . S
O394 C399 1.254 . S
O395 Zn392 2.031 . S
O395 C399 1.269 . S
O396 Zn393 1.986 . S
O396 C403 1.262 . S
O397 Zn392 2.049 . S
O397 C405 1.260 . S
O398 Zn393 1.996 . S
O398 C405 1.257 . S
C399 O394 1.254 . S
C399 O395 1.269 . S
C400 O401 1.249 . S
C400 O402 1.270 . S
O401 Zn393 1.943 . S
O401 C400 1.249 . S
O402 Zn392 2.067 . S
O402 C400 1.270 . S
C403 O396 1.262 . S
C403 O404 1.232 . S
O404 C403 1.232 . S
C405 O397 1.260 . S
C405 O398 1.257 . S
Zn406 O409 2.031 . S
Zn406 O411 2.049 . S
Zn406 O416 2.067 . S
Zn407 O408 1.962 . S
Zn407 O410 1.986 . S
Zn407 O412 1.996 . S
Zn407 O415 1.943 . S
O408 Zn407 1.962 . S
O408 C413 1.254 . S
O409 Zn406 2.031 . S
O409 C413 1.269 . S
O410 Zn407 1.986 . S
O410 C417 1.262 . S
O411 Zn406 2.049 . S
O411 C419 1.260 . S
O412 Zn407 1.996 . S
O412 C419 1.257 . S
C413 O408 1.254 . S
C413 O409 1.269 . S
C414 O415 1.249 . S
C414 O416 1.270 . S
O415 Zn407 1.943 . S
O415 C414 1.249 . S
O416 Zn406 2.067 . S
O416 C414 1.270 . S
C417 O410 1.262 . S
C417 O418 1.232 . S
O418 C417 1.232 . S
C419 O411 1.260 . S
C419 O412 1.257 . S
Zn420 O423 2.031 . S
Zn420 O425 2.049 . S
Zn420 O430 2.067 . S
Zn421 O422 1.962 . S
Zn421 O424 1.986 . S
Zn421 O426 1.996 . S
Zn421 O429 1.943 . S
O422 Zn421 1.962 . S
O422 C427 1.254 . S
O423 Zn420 2.031 . S
O423 C427 1.269 . S
O424 Zn421 1.986 . S
O424 C431 1.262 . S
O425 Zn420 2.049 . S
O425 C433 1.260 . S
O426 Zn421 1.996 . S
O426 C433 1.257 . S
C427 O422 1.254 . S
C427 O423 1.269 . S
C428 O429 1.249 . S
C428 O430 1.270 . S
O429 Zn421 1.943 . S
O429 C428 1.249 . S
O430 Zn420 2.067 . S
O430 C428 1.270 . S
C431 O424 1.262 . S
C431 O432 1.232 . S
O432 C431 1.232 . S
C433 O425 1.260 . S
C433 O426 1.257 . S
Zn434 O437 2.031 . S
Zn434 O439 2.049 . S
Zn434 O444 2.067 . S
Zn435 O436 1.962 . S
Zn435 O438 1.986 . S
Zn435 O440 1.996 . S
Zn435 O443 1.943 . S
O436 Zn435 1.962 . S
O436 C441 1.254 . S
O437 Zn434 2.031 . S
O437 C441 1.269 . S
O438 Zn435 1.986 . S
O438 C445 1.262 . S
O439 Zn434 2.049 . S
O439 C447 1.260 . S
O440 Zn435 1.996 . S
O440 C447 1.257 . S
C441 O436 1.254 . S
C441 O437 1.269 . S
C442 O443 1.249 . S
C442 O444 1.270 . S
O443 Zn435 1.943 . S
O443 C442 1.249 . S
O444 Zn434 2.067 . S
O444 C442 1.270 . S
C445 O438 1.262 . S
C445 O446 1.232 . S
O446 C445 1.232 . S
C447 O439 1.260 . S
C447 O440 1.257 . S
Zn448 O451 2.031 . S
Zn448 O453 2.049 . S
Zn448 O458 2.067 . S
Zn449 O450 1.962 . S
Zn449 O452 1.986 . S
Zn449 O454 1.996 . S
Zn449 O457 1.943 . S
O450 Zn449 1.962 . S
O450 C455 1.254 . S
O451 Zn448 2.031 . S
O451 C455 1.269 . S
O452 Zn449 1.986 . S
O452 C459 1.262 . S
O453 Zn448 2.049 . S
O453 C461 1.260 . S
O454 Zn449 1.996 . S
O454 C461 1.257 . S
C455 O450 1.254 . S
C455 O451 1.269 . S
C456 O457 1.249 . S
C456 O458 1.270 . S
O457 Zn449 1.943 . S
O457 C456 1.249 . S
O458 Zn448 2.067 . S
O458 C456 1.270 . S
C459 O452 1.262 . S
C459 O460 1.232 . S
O460 C459 1.232 . S
C461 O453 1.260 . S
C461 O454 1.257 . S
Zn462 O465 2.031 . S
Zn462 O467 2.049 . S
Zn462 O472 2.067 . S
Zn463 O464 1.962 . S
Zn463 O466 1.986 . S
Zn463 O468 1.996 . S
Zn463 O471 1.943 . S
O464 Zn463 1.962 . S
O464 C469 1.254 . S
O465 Zn462 2.031 . S
O465 C469 1.269 . S
O466 Zn463 1.986 . S
O466 C473 1.262 . S
O467 Zn462 2.049 . S
O467 C475 1.260 . S
O468 Zn463 1.996 . S
O468 C475 1.257 . S
C469 O464 1.254 . S
C469 O465 1.269 . S
C470 O471 1.249 . S
C470 O472 1.270 . S
O471 Zn463 1.943 . S
O471 C470 1.249 . S
O472 Zn462 2.067 . S
O472 C470 1.270 . S
C473 O466 1.262 . S
C473 O474 1.232 . S
O474 C473 1.232 . S
C475 O467 1.260 . S
C475 O468 1.257 . S
Zn476 O479 2.031 . S
Zn476 O481 2.049 . S
Zn476 O486 2.067 . S
Zn477 O478 1.962 . S
Zn477 O480 1.986 . S
Zn477 O482 1.996 . S
Zn477 O485 1.943 . S
O478 Zn477 1.962 . S
O478 C483 1.254 . S
O479 Zn476 2.031 . S
O479 C483 1.269 . S
O480 Zn477 1.986 . S
O480 C487 1.262 . S
O481 Zn476 2.049 . S
O481 C489 1.260 . S
O482 Zn477 1.996 . S
O482 C489 1.257 . S
C483 O478 1.254 . S
C483 O479 1.269 . S
C484 O485 1.249 . S
C484 O486 1.270 . S
O485 Zn477 1.943 . S
O485 C484 1.249 . S
O486 Zn476 2.067 . S
O486 C484 1.270 . S
C487 O480 1.262 . S
C487 O488 1.232 . S
O488 C487 1.232 . S
C489 O481 1.260 . S
C489 O482 1.257 . S
Zn490 O493 2.031 . S
Zn490 O495 2.049 . S
Zn490 O500 2.067 . S
Zn491 O492 1.962 . S
Zn491 O494 1.986 . S
Zn491 O496 1.996 . S
Zn491 O499 1.943 . S
O492 Zn491 1.962 . S
O492 C497 1.254 . S
O493 Zn490 2.031 . S
O493 C497 1.269 . S
O494 Zn491 1.986 . S
O494 C501 1.262 . S
O495 Zn490 2.049 . S
O495 C503 1.260 . S
O496 Zn491 1.996 . S
O496 C503 1.257 . S
C497 O492 1.254 . S
C497 O493 1.269 . S
C498 O499 1.249 . S
C498 O500 1.270 . S
O499 Zn491 1.943 . S
O499 C498 1.249 . S
O500 Zn490 2.067 . S
O500 C498 1.270 . S
C501 O494 1.262 . S
C501 O502 1.232 . S
O502 C501 1.232 . S
C503 O495 1.260 . S
C503 O496 1.257 . S
Zn504 O507 2.031 . S
Zn504 O509 2.049 . S
Zn504 O514 2.067 . S
Zn505 O506 1.962 . S
Zn505 O508 1.986 . S
Zn505 O510 1.996 . S
Zn505 O513 1.943 . S
O506 Zn505 1.962 . S
O506 C511 1.254 . S
O507 Zn504 2.031 . S
O507 C511 1.269 . S
O508 Zn505 1.986 . S
O508 C515 1.262 . S
O509 Zn504 2.049 . S
O509 C517 1.260 . S
O510 Zn505 1.996 . S
O510 C517 1.257 . S
C511 O506 1.254 . S
C511 O507 1.269 . S
C512 O513 1.249 . S
C512 O514 1.270 . S
O513 Zn505 1.943 . S
O513 C512 1.249 . S
O514 Zn504 2.067 . S
O514 C512 1.270 . S
C515 O508 1.262 . S
C515 O516 1.232 . S
O516 C515 1.232 . S
C517 O509 1.260 . S
C517 O510 1.257 . S
Zn518 O521 2.031 . S
Zn518 O523 2.049 . S
Zn518 O528 2.067 . S
Zn519 O520 1.962 . S
Zn519 O522 1.986 . S
Zn519 O524 1.996 . S
Zn519 O527 1.943 . S
O520 Zn519 1.962 . S
O520 C525 1.254 . S
O521 Zn518 2.031 . S
O521 C525 1.269 . S
O522 Zn519 1.986 . S
O522 C529 1.262 . S
O523 Zn518 2.049 . S
O523 C531 1.260 . S
O524 Zn519 1.996 . S
O524 C531 1.257 . S
C525 O520 1.254 . S
C525 O521 1.269 . S
C526 O527 1.249 . S
C526 O528 1.270 . S
O527 Zn519 1.943 . S
O527 C526 1.249 . S
O528 Zn518 2.067 . S
O528 C526 1.270 . S
C529 O522 1.262 . S
C529 O530 1.232 . S
O530 C529 1.232 . S
C531 O523 1.260 . S
C531 O524 1.257 . S
Zn532 O535 2.031 . S
Zn532 O537 2.049 . S
Zn532 O542 2.067 . S
Zn533 O534 1.962 . S
Zn533 O536 1.986 . S
Zn533 O538 1.996 . S
Zn533 O541 1.943 . S
O534 Zn533 1.962 . S
O534 C539 1.254 . S
O535 Zn532 2.031 . S
O535 C539 1.269 . S
O536 Zn533 1.986 . S
O536 C543 1.262 . S
O537 Zn532 2.049 . S
O537 C545 1.260 . S
O538 Zn533 1.996 . S
O538 C545 1.257 . S
C539 O534 1.254 . S
C539 O535 1.269 . S
C540 O541 1.249 . S
C540 O542 1.270 . S
O541 Zn533 1.943 . S
O541 C540 1.249 . S
O542 Zn532 2.067 . S
O542 C540 1.270 . S
C543 O536 1.262 . S
C543 O544 1.232 . S
O544 C543 1.232 . S
C545 O537 1.260 . S
C545 O538 1.257 . S
Zn546 O549 2.031 . S
Zn546 O551 2.049 . S
Zn546 O556 2.067 . S
Zn547 O548 1.962 . S
Zn547 O550 1.986 . S
Zn547 O552 1.996 . S
Zn547 O555 1.943 . S
O548 Zn547 1.962 . S
O548 C553 1.254 . S
O549 Zn546 2.031 . S
O549 C553 1.269 . S
O550 Zn547 1.986 . S
O550 C557 1.262 . S
O551 Zn546 2.049 . S
O551 C559 1.260 . S
O552 Zn547 1.996 . S
O552 C559 1.257 . S
C553 O548 1.254 . S
C553 O549 1.269 . S
C554 O555 1.249 . S
C554 O556 1.270 . S
O555 Zn547 1.943 . S
O555 C554 1.249 . S
O556 Zn546 2.067 . S
O556 C554 1.270 . S
C557 O550 1.262 . S
C557 O558 1.232 . S
O558 C557 1.232 . S
C559 O551 1.260 . S
C559 O552 1.257 . S
Zn560 O563 2.031 . S
Zn560 O565 2.049 . S
Zn560 O570 2.067 . S
Zn561 O562 1.962 . S
Zn561 O564 1.986 . S
Zn561 O566 1.996 . S
Zn561 O569 1.943 . S
O562 Zn561 1.962 . S
O562 C567 1.254 . S
O563 Zn560 2.031 . S
O563 C567 1.269 . S
O564 Zn561 1.986 . S
O564 C571 1.262 . S
O565 Zn560 2.049 . S
O565 C573 1.260 . S
O566 Zn561 1.996 . S
O566 C573 1.257 . S
C567 O562 1.254 . S
C567 O563 1.269 . S
C568 O569 1.249 . S
C568 O570 1.270 . S
O569 Zn561 1.943 . S
O569 C568 1.249 . S
O570 Zn560 2.067 . S
O570 C568 1.270 . S
C571 O564 1.262 . S
C571 O572 1.232 . S
O572 C571 1.232 . S
C573 O565 1.260 . S
C573 O566 1.257 . S
Zn574 O577 2.031 . S
Zn574 O579 2.049 . S
Zn574 O584 2.067 . S
Zn575 O576 1.962 . S
Zn575 O578 1.986 . S
Zn575 O580 1.996 . S
Zn575 O583 1.943 . S
O576 Zn575 1.962 . S
O576 C581 1.254 . S
O577 Zn574 2.031 . S
O577 C581 1.269 . S
O578 Zn575 1.986 . S
O578 C585 1.262 . S
O579 Zn574 2.049 . S
O579 C587 1.260 . S
O580 Zn575 1.996 . S
O580 C587 1.257 . S
C581 O576 1.254 . S
C581 O577 1.269 . S
C582 O583 1.249 . S
C582 O584 1.270 . S
O583 Zn575 1.943 . S
O583 C582 1.249 . S
O584 Zn574 2.067 . S
O584 C582 1.270 . S
C585 O578 1.262 . S
C585 O586 1.232 . S
O586 C585 1.232 . S
C587 O579 1.260 . S
C587 O580 1.257 . S
Zn588 O591 2.031 . S
Zn588 O593 2.049 . S
Zn588 O598 2.067 . S
Zn589 O590 1.962 . S
Zn589 O592 1.986 . S
Zn589 O594 1.996 . S
Zn589 O597 1.943 . S
O590 Zn589 1.962 . S
O590 C595 1.254 . S
O591 Zn588 2.031 . S
O591 C595 1.269 . S
O592 Zn589 1.986 . S
O592 C599 1.262 . S
O593 Zn588 2.049 . S
O593 C601 1.260 . S
O594 Zn589 1.996 . S
O594 C601 1.257 . S
C595 O590 1.254 . S
C595 O591 1.269 . S
C596 O597 1.249 . S
C596 O598 1.270 . S
O597 Zn589 1.943 . S
O597 C596 1.249 . S
O598 Zn588 2.067 . S
O598 C596 1.270 . S
C599 O592 1.262 . S
C599 O600 1.232 . S
O600 C599 1.232 . S
C601 O593 1.260 . S
C601 O594 1.257 . S
Zn602 O605 2.031 . S
Zn602 O607 2.049 . S
Zn602 O612 2.067 . S
Zn603 O604 1.962 . S
Zn603 O606 1.986 . S
Zn603 O608 1.996 . S
Zn603 O611 1.943 . S
O604 Zn603 1.962 . S
O604 C609 1.254 . S
O605 Zn602 2.031 . S
O605 C609 1.269 . S
O606 Zn603 1.986 . S
O606 C613 1.262 . S
O607 Zn602 2.049 . S
O607 C615 1.260 . S
O608 Zn603 1.996 . S
O608 C615 1.257 . S
C609 O604 1.254 . S
C609 O605 1.269 . S
C610 O611 1.249 . S
C610 O612 1.270 . S
O611 Zn603 1.943 . S
O611 C610 1.249 . S
O612 Zn602 2.067 . S
O612 C610 1.270 . S
C613 O606 1.262 . S
C613 O614 1.232 . S
O614 C613 1.232 . S
C615 O607 1.260 . S
C615 O608 1.257 . S
Zn616 O619 2.031 . S
Zn616 O621 2.049 . S
Zn616 O626 2.067 . S
Zn617 O618 1.962 . S
Zn617 O620 1.986 . S
Zn617 O622 1.996 . S
Zn617 O625 1.943 . S
O618 Zn617 1.962 . S
O618 C623 1.254 . S
O619 Zn616 2.031 . S
O619 C623 1.269 . S
O620 Zn617 1.986 . S
O620 C627 1.262 . S
O621 Zn616 2.049 . S
O621 C629 1.260 . S
O622 Zn617 1.996 . S
O622 C629 1.257 . S
C623 O618 1.254 . S
C623 O619 1.269 . S
C624 O625 1.249 . S
C624 O626 1.270 . S
O625 Zn617 1.943 . S
O625 C624 1.249 . S
O626 Zn616 2.067 . S
O626 C624 1.270 . S
C627 O620 1.262 . S
C627 O628 1.232 . S
O628 C627 1.232 . S
C629 O621 1.260 . S
C629 O622 1.257 . S
Zn630 O633 2.031 . S
Zn630 O635 2.049 . S
Zn630 O640 2.067 . S
Zn631 O632 1.962 . S
Zn631 O634 1.986 . S
Zn631 O636 1.996 . S
Zn631 O639 1.943 . S
O632 Zn631 1.962 . S
O632 C637 1.254 . S
O633 Zn630 2.031 . S
O633 C637 1.269 . S
O634 Zn631 1.986 . S
O634 C641 1.262 . S
O635 Zn630 2.049 . S
O635 C643 1.260 . S
O636 Zn631 1.996 . S
O636 C643 1.257 . S
C637 O632 1.254 . S
C637 O633 1.269 . S
C638 O639 1.249 . S
C638 O640 1.270 . S
O639 Zn631 1.943 . S
O639 C638 1.249 . S
O640 Zn630 2.067 . S
O640 C638 1.270 . S
C641 O634 1.262 . S
C641 O642 1.232 . S
O642 C641 1.232 . S
C643 O635 1.260 . S
C643 O636 1.257 . S
Zn644 O647 2.031 . S
Zn644 O649 2.049 . S
Zn644 O654 2.067 . S
Zn645 O646 1.962 . S
Zn645 O648 1.986 . S
Zn645 O650 1.996 . S
Zn645 O653 1.943 . S
O646 Zn645 1.962 . S
O646 C651 1.254 . S
O647 Zn644 2.031 . S
O647 C651 1.269 . S
O648 Zn645 1.986 . S
O648 C655 1.262 . S
O649 Zn644 2.049 . S
O649 C657 1.260 . S
O650 Zn645 1.996 . S
O650 C657 1.257 . S
C651 O646 1.254 . S
C651 O647 1.269 . S
C652 O653 1.249 . S
C652 O654 1.270 . S
O653 Zn645 1.943 . S
O653 C652 1.249 . S
O654 Zn644 2.067 . S
O654 C652 1.270 . S
C655 O648 1.262 . S
C655 O656 1.232 . S
O656 C655 1.232 . S
C657 O649 1.260 . S
C657 O650 1.257 . S
Zn658 O661 2.031 . S
Zn658 O663 2.049 . S
Zn658 O668 2.067 . S
Zn659 O660 1.962 . S
Zn659 O662 1.986 . S
Zn659 O664 1.996 . S
Zn659 O667 1.943 . S
O660 Zn659 1.962 . S
O660 C665 1.254 . S
O661 Zn658 2.031 . S
O661 C665 1.269 . S
O662 Zn659 1.986 . S
O662 C669 1.262 . S
O663 Zn658 2.049 . S
O663 C671 1.260 . S
O664 Zn659 1.996 . S
O664 C671 1.257 . S
C665 O660 1.254 . S
C665 O661 1.269 . S
C666 O667 1.249 . S
C666 O668 1.270 . S
O667 Zn659 1.943 . S
O667 C666 1.249 . S
O668 Zn658 2.067 . S
O668 C666 1.270 . S
C669 O662 1.262 . S
C669 O670 1.232 . S
O670 C669 1.232 . S
C671 O663 1.260 . S
C671 O664 1.257 . S
C672 C673 1.387 . S
C672 H676 0.950 . S
C672 C681 1.390 . S
C673 C672 1.387 . S
C673 C675 1.387 1_655 S
H674 C681 0.950 . S
C675 C673 1.387 1_455 S
C675 C677 1.390 . S
C675 H679 0.950 . S
H676 C672 0.950 . S
C677 C675 1.390 . S
C677 C678 1.387 . S
C677 H680 0.950 . S
C678 C677 1.387 . S
C678 C681 1.387 1_455 S
H679 C675 0.950 . S
H680 C677 0.950 . S
C681 C672 1.390 . S
C681 H674 0.950 . S
C681 C678 1.387 1_655 S
C682 C683 1.387 . S
C682 H686 0.950 . S
C682 C691 1.390 . S
C683 C682 1.387 . S
C683 C685 1.387 1_565 S
H684 C691 0.950 . S
C685 C683 1.387 1_545 S
C685 C687 1.390 . S
C685 H689 0.950 . S
H686 C682 0.950 . S
C687 C685 1.390 . S
C687 C688 1.387 . S
C687 H690 0.950 . S
C688 C687 1.387 . S
C688 C691 1.387 1_545 S
H689 C685 0.950 . S
H690 C687 0.950 . S
C691 C682 1.390 . S
C691 H684 0.950 . S
C691 C688 1.387 1_565 S
C692 C693 1.387 . S
C692 H696 0.950 . S
C692 C701 1.390 . S
C693 C692 1.387 . S
C693 C695 1.387 1_455 S
H694 C701 0.950 . S
C695 C693 1.387 1_655 S
C695 C697 1.390 . S
C695 H699 0.950 . S
H696 C692 0.950 . S
C697 C695 1.390 . S
C697 C698 1.387 . S
C697 H700 0.950 . S
C698 C697 1.387 . S
C698 C701 1.387 1_655 S
H699 C695 0.950 . S
H700 C697 0.950 . S
C701 C692 1.390 . S
C701 H694 0.950 . S
C701 C698 1.387 1_455 S
C702 C703 1.387 . S
C702 H706 0.950 . S
C702 C711 1.390 . S
C703 C702 1.387 . S
C703 C705 1.387 1_565 S
H704 C711 0.950 . S
C705 C703 1.387 1_545 S
C705 C707 1.390 . S
C705 H709 0.950 . S
H706 C702 0.950 . S
C707 C705 1.390 . S
C707 C708 1.387 . S
C707 H710 0.950 . S
C708 C707 1.387 . S
C708 C711 1.387 1_545 S
H709 C705 0.950 . S
H710 C707 0.950 . S
C711 C702 1.390 . S
C711 H704 0.950 . S
C711 C708 1.387 1_565 S
C712 C713 1.387 . S
C712 H716 0.950 . S
C712 C721 1.390 1_655 S
C713 C712 1.387 . S
C713 C715 1.387 . S
H714 C721 0.950 . S
C715 C713 1.387 . S
C715 C717 1.390 1_655 S
C715 H719 0.950 . S
H716 C712 0.950 . S
C717 C715 1.390 1_455 S
C717 C718 1.387 . S
C717 H720 0.950 . S
C718 C717 1.387 . S
C718 C721 1.387 . S
H719 C715 0.950 . S
H720 C717 0.950 . S
C721 C712 1.390 1_455 S
C721 H714 0.950 . S
C721 C718 1.387 . S
C722 C723 1.387 . S
C722 H726 0.950 . S
C722 C731 1.390 . S
C723 C722 1.387 . S
C723 C725 1.387 1_545 S
H724 C731 0.950 . S
C725 C723 1.387 1_565 S
C725 C727 1.390 . S
C725 H729 0.950 . S
H726 C722 0.950 . S
C727 C725 1.390 . S
C727 C728 1.387 . S
C727 H730 0.950 . S
C728 C727 1.387 . S
C728 C731 1.387 1_565 S
H729 C725 0.950 . S
H730 C727 0.950 . S
C731 C722 1.390 . S
C731 H724 0.950 . S
C731 C728 1.387 1_545 S
C732 C733 1.387 . S
C732 H736 0.950 . S
C732 C741 1.390 . S
C733 C732 1.387 . S
C733 C735 1.387 1_455 S
H734 C741 0.950 . S
C735 C733 1.387 1_655 S
C735 C737 1.390 . S
C735 H739 0.950 . S
H736 C732 0.950 . S
C737 C735 1.390 . S
C737 C738 1.387 . S
C737 H740 0.950 . S
C738 C737 1.387 . S
C738 C741 1.387 1_655 S
H739 C735 0.950 . S
H740 C737 0.950 . S
C741 C732 1.390 . S
C741 H734 0.950 . S
C741 C738 1.387 1_455 S
C742 C743 1.387 . S
C742 H746 0.950 . S
C742 C751 1.390 . S
C743 C742 1.387 . S
C743 C745 1.387 1_545 S
H744 C751 0.950 . S
C745 C743 1.387 1_565 S
C745 C747 1.390 . S
C745 H749 0.950 . S
H746 C742 0.950 . S
C747 C745 1.390 . S
C747 C748 1.387 . S
C747 H750 0.950 . S
C748 C747 1.387 . S
C748 C751 1.387 1_565 S
H749 C745 0.950 . S
H750 C747 0.950 . S
C751 C742 1.390 . S
C751 H744 0.950 . S
C751 C748 1.387 1_545 S
C752 C753 1.403 . S
C752 H756 0.951 . S
C752 C761 1.374 1_554 S
C753 C752 1.403 . S
C753 C755 1.387 . S
H754 C761 0.950 . S
C755 C753 1.387 . S
C755 C757 1.374 1_554 S
C755 H759 0.950 . S
H756 C752 0.951 . S
C757 C755 1.374 1_556 S
C757 C758 1.403 . S
C757 H760 0.951 . S
C758 C757 1.403 . S
C758 C761 1.387 . S
H759 C755 0.950 . S
H760 C757 0.951 . S
C761 C752 1.374 1_556 S
C761 H754 0.950 . S
C761 C758 1.387 . S
C762 C763 1.387 . S
C762 H766 0.950 . S
C762 C771 1.390 . S
C763 C762 1.387 . S
C763 C765 1.387 1_556 S
H764 C771 0.950 . S
C765 C763 1.387 1_554 S
C765 C767 1.390 . S
C765 H769 0.950 . S
H766 C762 0.950 . S
C767 C765 1.390 . S
C767 C768 1.387 . S
C767 H770 0.950 . S
C768 C767 1.387 . S
C768 C771 1.387 1_554 S
H769 C765 0.950 . S
H770 C767 0.950 . S
C771 C762 1.390 . S
C771 H764 0.950 . S
C771 C768 1.387 1_556 S
C772 C773 1.387 . S
C772 H776 0.950 . S
C772 C781 1.390 . S
C773 C772 1.387 . S
C773 C775 1.387 1_556 S
H774 C781 0.950 . S
C775 C773 1.387 1_554 S
C775 C777 1.390 . S
C775 H779 0.950 . S
H776 C772 0.950 . S
C777 C775 1.390 . S
C777 C778 1.387 . S
C777 H780 0.950 . S
C778 C777 1.387 . S
C778 C781 1.387 1_554 S
H779 C775 0.950 . S
H780 C777 0.950 . S
C781 C772 1.390 . S
C781 H774 0.950 . S
C781 C778 1.387 1_556 S
C782 C783 1.387 . S
C782 H786 0.950 . S
C782 C791 1.390 1_556 S
C783 C782 1.387 . S
C783 C785 1.387 . S
H784 C791 0.950 . S
C785 C783 1.387 . S
C785 C787 1.390 1_556 S
C785 H789 0.950 . S
H786 C782 0.950 . S
C787 C785 1.390 1_554 S
C787 C788 1.387 . S
C787 H790 0.950 . S
C788 C787 1.387 . S
C788 C791 1.387 . S
H789 C785 0.950 . S
H790 C787 0.950 . S
C791 C782 1.390 1_554 S
C791 H784 0.950 . S
C791 C788 1.387 . S
C792 C793 1.387 . S
C792 H796 0.950 . S
C792 C801 1.390 . S
C793 C792 1.387 . S
C793 C795 1.387 . S
H794 C801 0.950 . S
C795 C793 1.387 . S
C795 C797 1.390 . S
C795 H799 0.950 . S
H796 C792 0.950 . S
C797 C795 1.390 . S
C797 C798 1.387 . S
C797 H800 0.950 . S
C798 C797 1.387 . S
C798 C801 1.387 . S
H799 C795 0.950 . S
H800 C797 0.950 . S
C801 C792 1.390 . S
C801 H794 0.950 . S
C801 C798 1.387 . S
C802 C803 1.387 . S
C802 H806 0.950 . S
C802 C811 1.390 . S
C803 C802 1.387 . S
C803 C805 1.387 . S
H804 C811 0.950 . S
C805 C803 1.387 . S
C805 C807 1.390 . S
C805 H809 0.950 . S
H806 C802 0.950 . S
C807 C805 1.390 . S
C807 C808 1.387 . S
C807 H810 0.950 . S
C808 C807 1.387 . S
C808 C811 1.387 . S
H809 C805 0.950 . S
H810 C807 0.950 . S
C811 C802 1.390 . S
C811 H804 0.950 . S
C811 C808 1.387 . S
C812 C813 1.387 . S
C812 H816 0.950 . S
C812 C821 1.390 . S
C813 C812 1.387 . S
C813 C815 1.387 . S
H814 C821 0.950 . S
C815 C813 1.387 . S
C815 C817 1.390 . S
C815 H819 0.950 . S
H816 C812 0.950 . S
C817 C815 1.390 . S
C817 C818 1.387 . S
C817 H820 0.950 . S
C818 C817 1.387 . S
C818 C821 1.387 . S
H819 C815 0.950 . S
H820 C817 0.950 . S
C821 C812 1.390 . S
C821 H814 0.950 . S
C821 C818 1.387 . S
C822 C823 1.387 . S
C822 H826 0.950 . S
C822 C831 1.390 . S
C823 C822 1.387 . S
C823 C825 1.387 . S
H824 C831 0.950 . S
C825 C823 1.387 . S
C825 C827 1.390 . S
C825 H829 0.950 . S
H826 C822 0.950 . S
C827 C825 1.390 . S
C827 C828 1.387 . S
C827 H830 0.950 . S
C828 C827 1.387 . S
C828 C831 1.387 . S
H829 C825 0.950 . S
H830 C827 0.950 . S
C831 C822 1.390 . S
C831 H824 0.950 . S
C831 C828 1.387 . S
C832 C833 1.387 . S
C832 H836 0.950 . S
C832 C841 1.390 . S
C833 C832 1.387 . S
C833 C835 1.387 . S
H834 C841 0.950 . S
C835 C833 1.387 . S
C835 C837 1.390 . S
C835 H839 0.950 . S
H836 C832 0.950 . S
C837 C835 1.390 . S
C837 C838 1.387 . S
C837 H840 0.950 . S
C838 C837 1.387 . S
C838 C841 1.387 . S
H839 C835 0.950 . S
H840 C837 0.950 . S
C841 C832 1.390 . S
C841 H834 0.950 . S
C841 C838 1.387 . S
C842 C843 1.387 . S
C842 H846 0.950 . S
C842 C851 1.390 . S
C843 C842 1.387 . S
C843 C845 1.387 . S
H844 C851 0.950 . S
C845 C843 1.387 . S
C845 C847 1.390 . S
C845 H849 0.950 . S
H846 C842 0.950 . S
C847 C845 1.390 . S
C847 C848 1.387 . S
C847 H850 0.950 . S
C848 C847 1.387 . S
C848 C851 1.387 . S
H849 C845 0.950 . S
H850 C847 0.950 . S
C851 C842 1.390 . S
C851 H844 0.950 . S
C851 C848 1.387 . S
C852 C853 1.387 . S
C852 H856 0.950 . S
C852 C861 1.390 . S
C853 C852 1.387 . S
C853 C855 1.387 . S
H854 C861 0.950 . S
C855 C853 1.387 . S
C855 C857 1.390 . S
C855 H859 0.950 . S
H856 C852 0.950 . S
C857 C855 1.390 . S
C857 C858 1.387 . S
C857 H860 0.950 . S
C858 C857 1.387 . S
C858 C861 1.387 . S
H859 C855 0.950 . S
H860 C857 0.950 . S
C861 C852 1.390 . S
C861 H854 0.950 . S
C861 C858 1.387 . S
C862 C863 1.387 . S
C862 H866 0.950 . S
C862 C871 1.390 . S
C863 C862 1.387 . S
C863 C865 1.387 . S
H864 C871 0.950 . S
C865 C863 1.387 . S
C865 C867 1.390 . S
C865 H869 0.950 . S
H866 C862 0.950 . S
C867 C865 1.390 . S
C867 C868 1.387 . S
C867 H870 0.950 . S
C868 C867 1.387 . S
C868 C871 1.387 . S
H869 C865 0.950 . S
H870 C867 0.950 . S
C871 C862 1.390 . S
C871 H864 0.950 . S
C871 C868 1.387 . S
C872 C873 1.387 . S
C872 H876 0.950 . S
C872 C881 1.390 . S
C873 C872 1.387 . S
C873 C875 1.387 . S
H874 C881 0.950 . S
C875 C873 1.387 . S
C875 C877 1.390 . S
C875 H879 0.950 . S
H876 C872 0.950 . S
C877 C875 1.390 . S
C877 C878 1.387 . S
C877 H880 0.950 . S
C878 C877 1.387 . S
C878 C881 1.387 . S
H879 C875 0.950 . S
H880 C877 0.950 . S
C881 C872 1.390 . S
C881 H874 0.950 . S
C881 C878 1.387 . S
C882 C883 1.387 . S
C882 H886 0.950 . S
C882 C891 1.390 . S
C883 C882 1.387 . S
C883 C885 1.387 . S
H884 C891 0.950 . S
C885 C883 1.387 . S
C885 C887 1.390 . S
C885 H889 0.950 . S
H886 C882 0.950 . S
C887 C885 1.390 . S
C887 C888 1.387 . S
C887 H890 0.950 . S
C888 C887 1.387 . S
C888 C891 1.387 . S
H889 C885 0.950 . S
H890 C887 0.950 . S
C891 C882 1.390 . S
C891 H884 0.950 . S
C891 C888 1.387 . S
C892 C893 1.387 . S
C892 H896 0.950 . S
C892 C901 1.390 . S
C893 C892 1.387 . S
C893 C895 1.387 . S
H894 C901 0.950 . S
C895 C893 1.387 . S
C895 C897 1.390 . S
C895 H899 0.950 . S
H896 C892 0.950 . S
C897 C895 1.390 . S
C897 C898 1.387 . S
C897 H900 0.950 . S
C898 C897 1.387 . S
C898 C901 1.387 . S
H899 C895 0.950 . S
H900 C897 0.950 . S
C901 C892 1.390 . S
C901 H894 0.950 . S
C901 C898 1.387 . S
C902 C903 1.387 . S
C902 H906 0.950 . S
C902 C911 1.390 . S
C903 C902 1.387 . S
C903 C905 1.387 . S
H904 C911 0.950 . S
C905 C903 1.387 . S
C905 C907 1.390 . S
C905 H909 0.950 . S
H906 C902 0.950 . S
C907 C905 1.390 . S
C907 C908 1.387 . S
C907 H910 0.950 . S
C908 C907 1.387 . S
C908 C911 1.387 . S
H909 C905 0.950 . S
H910 C907 0.950 . S
C911 C902 1.390 . S
C911 H904 0.950 . S
C911 C908 1.387 . S
C912 C913 1.387 . S
C912 H916 0.950 . S
C912 C921 1.390 . S
C913 C912 1.387 . S
C913 C915 1.387 . S
H914 C921 0.950 . S
C915 C913 1.387 . S
C915 C917 1.390 . S
C915 H919 0.950 . S
H916 C912 0.950 . S
C917 C915 1.390 . S
C917 C918 1.387 . S
C917 H920 0.950 . S
C918 C917 1.387 . S
C918 C921 1.387 . S
H919 C915 0.950 . S
H920 C917 0.950 . S
C921 C912 1.390 . S
C921 H914 0.950 . S
C921 C918 1.387 . S
C922 C923 1.387 . S
C922 H926 0.950 . S
C922 C931 1.390 . S
C923 C922 1.387 . S
C923 C925 1.387 . S
H924 C931 0.950 . S
C925 C923 1.387 . S
C925 C927 1.390 . S
C925 H929 0.950 . S
H926 C922 0.950 . S
C927 C925 1.390 . S
C927 C928 1.387 . S
C927 H930 0.950 . S
C928 C927 1.387 . S
C928 C931 1.387 . S
H929 C925 0.950 . S
H930 C927 0.950 . S
C931 C922 1.390 . S
C931 H924 0.950 . S
C931 C928 1.387 . S
C932 C933 1.387 . S
C932 H936 0.950 . S
C932 C941 1.390 . S
C933 C932 1.387 . S
C933 C935 1.387 . S
H934 C941 0.950 . S
C935 C933 1.387 . S
C935 C937 1.390 . S
C935 H939 0.950 . S
H936 C932 0.950 . S
C937 C935 1.390 . S
C937 C938 1.387 . S
C937 H940 0.950 . S
C938 C937 1.387 . S
C938 C941 1.387 . S
H939 C935 0.950 . S
H940 C937 0.950 . S
C941 C932 1.390 . S
C941 H934 0.950 . S
C941 C938 1.387 . S
C942 C943 1.387 . S
C942 H946 0.950 . S
C942 C951 1.390 . S
C943 C942 1.387 . S
C943 C945 1.387 . S
H944 C951 0.950 . S
C945 C943 1.387 . S
C945 C947 1.390 . S
C945 H949 0.950 . S
H946 C942 0.950 . S
C947 C945 1.390 . S
C947 C948 1.387 . S
C947 H950 0.950 . S
C948 C947 1.387 . S
C948 C951 1.387 . S
H949 C945 0.950 . S
H950 C947 0.950 . S
C951 C942 1.390 . S
C951 H944 0.950 . S
C951 C948 1.387 . S
C952 C953 1.387 . S
C952 H956 0.950 . S
C952 C961 1.390 . S
C953 C952 1.387 . S
C953 C955 1.387 . S
H954 C961 0.950 . S
C955 C953 1.387 . S
C955 C957 1.390 . S
C955 H959 0.950 . S
H956 C952 0.950 . S
C957 C955 1.390 . S
C957 C958 1.387 . S
C957 H960 0.950 . S
C958 C957 1.387 . S
C958 C961 1.387 . S
H959 C955 0.950 . S
H960 C957 0.950 . S
C961 C952 1.390 . S
C961 H954 0.950 . S
C961 C958 1.387 . S
C962 C963 1.387 . S
C962 H966 0.950 . S
C962 C971 1.390 . S
C963 C962 1.387 . S
C963 C965 1.387 . S
H964 C971 0.950 . S
C965 C963 1.387 . S
C965 C967 1.390 . S
C965 H969 0.950 . S
H966 C962 0.950 . S
C967 C965 1.390 . S
C967 C968 1.387 . S
C967 H970 0.950 . S
C968 C967 1.387 . S
C968 C971 1.387 . S
H969 C965 0.950 . S
H970 C967 0.950 . S
C971 C962 1.390 . S
C971 H964 0.950 . S
C971 C968 1.387 . S
C972 C973 1.387 . S
C972 H976 0.950 . S
C972 C981 1.390 . S
C973 C972 1.387 . S
C973 C975 1.387 . S
H974 C981 0.950 . S
C975 C973 1.387 . S
C975 C977 1.390 . S
C975 H979 0.950 . S
H976 C972 0.950 . S
C977 C975 1.390 . S
C977 C978 1.387 . S
C977 H980 0.950 . S
C978 C977 1.387 . S
C978 C981 1.387 . S
H979 C975 0.950 . S
H980 C977 0.950 . S
C981 C972 1.390 . S
C981 H974 0.950 . S
C981 C978 1.387 . S
C982 C983 1.387 . S
C982 H986 0.950 . S
C982 C991 1.390 . S
C983 C982 1.387 . S
C983 C985 1.387 . S
H984 C991 0.950 . S
C985 C983 1.387 . S
C985 C987 1.390 . S
C985 H989 0.950 . S
H986 C982 0.950 . S
C987 C985 1.390 . S
C987 C988 1.387 . S
C987 H990 0.950 . S
C988 C987 1.387 . S
C988 C991 1.387 . S
H989 C985 0.950 . S
H990 C987 0.950 . S
C991 C982 1.390 . S
C991 H984 0.950 . S
C991 C988 1.387 . S
C992 C993 1.387 . S
C992 H996 0.950 . S
C992 C1001 1.390 . S
C993 C992 1.387 . S
C993 C995 1.387 . S
H994 C1001 0.950 . S
C995 C993 1.387 . S
C995 C997 1.390 . S
C995 H999 0.950 . S
H996 C992 0.950 . S
C997 C995 1.390 . S
C997 C998 1.387 . S
C997 H1000 0.950 . S
C998 C997 1.387 . S
C998 C1001 1.387 . S
H999 C995 0.950 . S
H1000 C997 0.950 . S
C1001 C992 1.390 . S
C1001 H994 0.950 . S
C1001 C998 1.387 . S
C1002 C1003 1.387 . S
C1002 H1006 0.950 . S
C1002 C1011 1.390 . S
C1003 C1002 1.387 . S
C1003 C1005 1.387 . S
H1004 C1011 0.950 . S
C1005 C1003 1.387 . S
C1005 C1007 1.390 . S
C1005 H1009 0.950 . S
H1006 C1002 0.950 . S
C1007 C1005 1.390 . S
C1007 C1008 1.387 . S
C1007 H1010 0.950 . S
C1008 C1007 1.387 . S
C1008 C1011 1.387 . S
H1009 C1005 0.950 . S
H1010 C1007 0.950 . S
C1011 C1002 1.390 . S
C1011 H1004 0.950 . S
C1011 C1008 1.387 . S
C1012 C1013 1.387 . S
C1012 H1016 0.950 . S
C1012 C1021 1.390 . S
C1013 C1012 1.387 . S
C1013 C1015 1.387 . S
H1014 C1021 0.950 . S
C1015 C1013 1.387 . S
C1015 C1017 1.390 . S
C1015 H1019 0.950 . S
H1016 C1012 0.950 . S
C1017 C1015 1.390 . S
C1017 C1018 1.387 . S
C1017 H1020 0.950 . S
C1018 C1017 1.387 . S
C1018 C1021 1.387 . S
H1019 C1015 0.950 . S
H1020 C1017 0.950 . S
C1021 C1012 1.390 . S
C1021 H1014 0.950 . S
C1021 C1018 1.387 . S
C1022 C1023 1.387 . S
C1022 H1026 0.950 . S
C1022 C1031 1.390 . S
C1023 C1022 1.387 . S
C1023 C1025 1.387 . S
H1024 C1031 0.950 . S
C1025 C1023 1.387 . S
C1025 C1027 1.390 . S
C1025 H1029 0.950 . S
H1026 C1022 0.950 . S
C1027 C1025 1.390 . S
C1027 C1028 1.387 . S
C1027 H1030 0.950 . S
C1028 C1027 1.387 . S
C1028 C1031 1.387 . S
H1029 C1025 0.950 . S
H1030 C1027 0.950 . S
C1031 C1022 1.390 . S
C1031 H1024 0.950 . S
C1031 C1028 1.387 . S
C1032 C1033 1.387 . S
C1032 H1036 0.950 . S
C1032 C1041 1.390 . S
C1033 C1032 1.387 . S
C1033 C1035 1.387 . S
H1034 C1041 0.950 . S
C1035 C1033 1.387 . S
C1035 C1037 1.390 . S
C1035 H1039 0.950 . S
H1036 C1032 0.950 . S
C1037 C1035 1.390 . S
C1037 C1038 1.387 . S
C1037 H1040 0.950 . S
C1038 C1037 1.387 . S
C1038 C1041 1.387 . S
H1039 C1035 0.950 . S
H1040 C1037 0.950 . S
C1041 C1032 1.390 . S
C1041 H1034 0.950 . S
C1041 C1038 1.387 . S
C1042 C1043 1.387 . S
C1042 H1046 0.950 . S
C1042 C1051 1.390 . S
C1043 C1042 1.387 . S
C1043 C1045 1.387 . S
H1044 C1051 0.950 . S
C1045 C1043 1.387 . S
C1045 C1047 1.390 . S
C1045 H1049 0.950 . S
H1046 C1042 0.950 . S
C1047 C1045 1.390 . S
C1047 C1048 1.387 . S
C1047 H1050 0.950 . S
C1048 C1047 1.387 . S
C1048 C1051 1.387 . S
H1049 C1045 0.950 . S
H1050 C1047 0.950 . S
C1051 C1042 1.390 . S
C1051 H1044 0.950 . S
C1051 C1048 1.387 . S
C1052 C1053 1.387 . S
C1052 H1056 0.950 . S
C1052 C1061 1.390 . S
C1053 C1052 1.387 . S
C1053 C1055 1.387 . S
H1054 C1061 0.950 . S
C1055 C1053 1.387 . S
C1055 C1057 1.390 . S
C1055 H1059 0.950 . S
H1056 C1052 0.950 . S
C1057 C1055 1.390 . S
C1057 C1058 1.387 . S
C1057 H1060 0.950 . S
C1058 C1057 1.387 . S
C1058 C1061 1.387 . S
H1059 C1055 0.950 . S
H1060 C1057 0.950 . S
C1061 C1052 1.390 . S
C1061 H1054 0.950 . S
C1061 C1058 1.387 . S
C1062 C1063 1.387 . S
C1062 H1066 0.950 . S
C1062 C1071 1.390 . S
C1063 C1062 1.387 . S
C1063 C1065 1.387 . S
H1064 C1071 0.950 . S
C1065 C1063 1.387 . S
C1065 C1067 1.390 . S
C1065 H1069 0.950 . S
H1066 C1062 0.950 . S
C1067 C1065 1.390 . S
C1067 C1068 1.387 . S
C1067 H1070 0.950 . S
C1068 C1067 1.387 . S
C1068 C1071 1.387 . S
H1069 C1065 0.950 . S
H1070 C1067 0.950 . S
C1071 C1062 1.390 . S
C1071 H1064 0.950 . S
C1071 C1068 1.387 . S
C1072 C1073 1.387 . S
C1072 H1076 0.950 . S
C1072 C1081 1.390 . S
C1073 C1072 1.387 . S
C1073 C1075 1.387 . S
H1074 C1081 0.950 . S
C1075 C1073 1.387 . S
C1075 C1077 1.390 . S
C1075 H1079 0.950 . S
H1076 C1072 0.950 . S
C1077 C1075 1.390 . S
C1077 C1078 1.387 . S
C1077 H1080 0.950 . S
C1078 C1077 1.387 . S
C1078 C1081 1.387 . S
H1079 C1075 0.950 . S
H1080 C1077 0.950 . S
C1081 C1072 1.390 . S
C1081 H1074 0.950 . S
C1081 C1078 1.387 . S
C1082 C1083 1.387 . S
C1082 H1086 0.950 . S
C1082 C1091 1.390 . S
C1083 C1082 1.387 . S
C1083 C1085 1.387 . S
H1084 C1091 0.950 . S
C1085 C1083 1.387 . S
C1085 C1087 1.390 . S
C1085 H1089 0.950 . S
H1086 C1082 0.950 . S
C1087 C1085 1.390 . S
C1087 C1088 1.387 . S
C1087 H1090 0.950 . S
C1088 C1087 1.387 . S
C1088 C1091 1.387 . S
H1089 C1085 0.950 . S
H1090 C1087 0.950 . S
C1091 C1082 1.390 . S
C1091 H1084 0.950 . S
C1091 C1088 1.387 . S
C1092 C1093 1.387 . S
C1092 H1096 0.950 . S
C1092 C1101 1.390 . S
C1093 C1092 1.387 . S
C1093 C1095 1.387 . S
H1094 C1101 0.950 . S
C1095 C1093 1.387 . S
C1095 C1097 1.390 . S
C1095 H1099 0.950 . S
H1096 C1092 0.950 . S
C1097 C1095 1.390 . S
C1097 C1098 1.387 . S
C1097 H1100 0.950 . S
C1098 C1097 1.387 . S
C1098 C1101 1.387 . S
H1099 C1095 0.950 . S
H1100 C1097 0.950 . S
C1101 C1092 1.390 . S
C1101 H1094 0.950 . S
C1101 C1098 1.387 . S
C1102 C1103 1.387 . S
C1102 H1106 0.950 . S
C1102 C1111 1.390 . S
C1103 C1102 1.387 . S
C1103 C1105 1.387 . S
H1104 C1111 0.950 . S
C1105 C1103 1.387 . S
C1105 C1107 1.390 . S
C1105 H1109 0.950 . S
H1106 C1102 0.950 . S
C1107 C1105 1.390 . S
C1107 C1108 1.387 . S
C1107 H1110 0.950 . S
C1108 C1107 1.387 . S
C1108 C1111 1.387 . S
H1109 C1105 0.950 . S
H1110 C1107 0.950 . S
C1111 C1102 1.390 . S
C1111 H1104 0.950 . S
C1111 C1108 1.387 . S
C1112 C1113 1.387 . S
C1112 H1116 0.950 . S
C1112 C1121 1.390 . S
C1113 C1112 1.387 . S
C1113 C1115 1.387 . S
H1114 C1121 0.950 . S
C1115 C1113 1.387 . S
C1115 C1117 1.390 . S
C1115 H1119 0.950 . S
H1116 C1112 0.950 . S
C1117 C1115 1.390 . S
C1117 C1118 1.387 . S
C1117 H1120 0.950 . S
C1118 C1117 1.387 . S
C1118 C1121 1.387 . S
H1119 C1115 0.950 . S
H1120 C1117 0.950 . S
C1121 C1112 1.390 . S
C1121 H1114 0.950 . S
C1121 C1118 1.387 . S
C1122 C1123 1.387 . S
C1122 H1126 0.950 . S
C1122 C1131 1.390 . S
C1123 C1122 1.387 . S
C1123 C1125 1.387 . S
H1124 C1131 0.950 . S
C1125 C1123 1.387 . S
C1125 C1127 1.390 . S
C1125 H1129 0.950 . S
H1126 C1122 0.950 . S
C1127 C1125 1.390 . S
C1127 C1128 1.387 . S
C1127 H1130 0.950 . S
C1128 C1127 1.387 . S
C1128 C1131 1.387 . S
H1129 C1125 0.950 . S
H1130 C1127 0.950 . S
C1131 C1122 1.390 . S
C1131 H1124 0.950 . S
C1131 C1128 1.387 . S
C1132 C1133 1.387 . S
C1132 H1136 0.950 . S
C1132 C1141 1.390 . S
C1133 C1132 1.387 . S
C1133 C1135 1.387 . S
H1134 C1141 0.950 . S
C1135 C1133 1.387 . S
C1135 C1137 1.390 . S
C1135 H1139 0.950 . S
H1136 C1132 0.950 . S
C1137 C1135 1.390 . S
C1137 C1138 1.387 . S
C1137 H1140 0.950 . S
C1138 C1137 1.387 . S
C1138 C1141 1.387 . S
H1139 C1135 0.950 . S
H1140 C1137 0.950 . S
C1141 C1132 1.390 . S
C1141 H1134 0.950 . S
C1141 C1138 1.387 . S
C1142 C1143 1.387 . S
C1142 H1146 0.950 . S
C1142 C1151 1.390 . S
C1143 C1142 1.387 . S
C1143 C1145 1.387 . S
H1144 C1151 0.950 . S
C1145 C1143 1.387 . S
C1145 C1147 1.390 . S
C1145 H1149 0.950 . S
H1146 C1142 0.950 . S
C1147 C1145 1.390 . S
C1147 C1148 1.387 . S
C1147 H1150 0.950 . S
C1148 C1147 1.387 . S
C1148 C1151 1.387 . S
H1149 C1145 0.950 . S
H1150 C1147 0.950 . S
C1151 C1142 1.390 . S
C1151 H1144 0.950 . S
C1151 C1148 1.387 . S
C1152 C1153 1.387 . S
C1152 H1156 0.950 . S
C1152 C1161 1.390 . S
C1153 C1152 1.387 . S
C1153 C1155 1.387 . S
H1154 C1161 0.950 . S
C1155 C1153 1.387 . S
C1155 C1157 1.390 . S
C1155 H1159 0.950 . S
H1156 C1152 0.950 . S
C1157 C1155 1.390 . S
C1157 C1158 1.387 . S
C1157 H1160 0.950 . S
C1158 C1157 1.387 . S
C1158 C1161 1.387 . S
H1159 C1155 0.950 . S
H1160 C1157 0.950 . S
C1161 C1152 1.390 . S
C1161 H1154 0.950 . S
C1161 C1158 1.387 . S
C1162 C1163 1.387 . S
C1162 H1166 0.950 . S
C1162 C1171 1.390 . S
C1163 C1162 1.387 . S
C1163 C1165 1.387 . S
H1164 C1171 0.950 . S
C1165 C1163 1.387 . S
C1165 C1167 1.390 . S
C1165 H1169 0.950 . S
H1166 C1162 0.950 . S
C1167 C1165 1.390 . S
C1167 C1168 1.387 . S
C1167 H1170 0.950 . S
C1168 C1167 1.387 . S
C1168 C1171 1.387 . S
H1169 C1165 0.950 . S
H1170 C1167 0.950 . S
C1171 C1162 1.390 . S
C1171 H1164 0.950 . S
C1171 C1168 1.387 . S
C1172 C1173 1.387 . S
C1172 H1176 0.950 . S
C1172 C1181 1.390 . S
C1173 C1172 1.387 . S
C1173 C1175 1.387 . S
H1174 C1181 0.950 . S
C1175 C1173 1.387 . S
C1175 C1177 1.390 . S
C1175 H1179 0.950 . S
H1176 C1172 0.950 . S
C1177 C1175 1.390 . S
C1177 C1178 1.387 . S
C1177 H1180 0.950 . S
C1178 C1177 1.387 . S
C1178 C1181 1.387 . S
H1179 C1175 0.950 . S
H1180 C1177 0.950 . S
C1181 C1172 1.390 . S
C1181 H1174 0.950 . S
C1181 C1178 1.387 . S
C1182 C1183 1.387 . S
C1182 H1186 0.950 . S
C1182 C1191 1.390 . S
C1183 C1182 1.387 . S
C1183 C1185 1.387 . S
H1184 C1191 0.950 . S
C1185 C1183 1.387 . S
C1185 C1187 1.390 . S
C1185 H1189 0.950 . S
H1186 C1182 0.950 . S
C1187 C1185 1.390 . S
C1187 C1188 1.387 . S
C1187 H1190 0.950 . S
C1188 C1187 1.387 . S
C1188 C1191 1.387 . S
H1189 C1185 0.950 . S
H1190 C1187 0.950 . S
C1191 C1182 1.390 . S
C1191 H1184 0.950 . S
C1191 C1188 1.387 . S
C1192 C1193 1.387 . S
C1192 H1196 0.950 . S
C1192 C1201 1.390 . S
C1193 C1192 1.387 . S
C1193 C1195 1.387 . S
H1194 C1201 0.950 . S
C1195 C1193 1.387 . S
C1195 C1197 1.390 . S
C1195 H1199 0.950 . S
H1196 C1192 0.950 . S
C1197 C1195 1.390 . S
C1197 C1198 1.387 . S
C1197 H1200 0.950 . S
C1198 C1197 1.387 . S
C1198 C1201 1.387 . S
H1199 C1195 0.950 . S
H1200 C1197 0.950 . S
C1201 C1192 1.390 . S
C1201 H1194 0.950 . S
C1201 C1198 1.387 . S
C1202 C1203 1.387 . S
C1202 H1206 0.950 . S
C1202 C1211 1.390 . S
C1203 C1202 1.387 . S
C1203 C1205 1.387 . S
H1204 C1211 0.950 . S
C1205 C1203 1.387 . S
C1205 C1207 1.390 . S
C1205 H1209 0.950 . S
H1206 C1202 0.950 . S
C1207 C1205 1.390 . S
C1207 C1208 1.387 . S
C1207 H1210 0.950 . S
C1208 C1207 1.387 . S
C1208 C1211 1.387 . S
H1209 C1205 0.950 . S
H1210 C1207 0.950 . S
C1211 C1202 1.390 . S
C1211 H1204 0.950 . S
C1211 C1208 1.387 . S
C1212 C1213 1.387 . S
C1212 H1216 0.950 . S
C1212 C1221 1.390 . S
C1213 C1212 1.387 . S
C1213 C1215 1.387 . S
H1214 C1221 0.950 . S
C1215 C1213 1.387 . S
C1215 C1217 1.390 . S
C1215 H1219 0.950 . S
H1216 C1212 0.950 . S
C1217 C1215 1.390 . S
C1217 C1218 1.387 . S
C1217 H1220 0.950 . S
C1218 C1217 1.387 . S
C1218 C1221 1.387 . S
H1219 C1215 0.950 . S
H1220 C1217 0.950 . S
C1221 C1212 1.390 . S
C1221 H1214 0.950 . S
C1221 C1218 1.387 . S
C1222 C1223 1.387 . S
C1222 H1226 0.950 . S
C1222 C1231 1.390 . S
C1223 C1222 1.387 . S
C1223 C1225 1.387 . S
H1224 C1231 0.950 . S
C1225 C1223 1.387 . S
C1225 C1227 1.390 . S
C1225 H1229 0.950 . S
H1226 C1222 0.950 . S
C1227 C1225 1.390 . S
C1227 C1228 1.387 . S
C1227 H1230 0.950 . S
C1228 C1227 1.387 . S
C1228 C1231 1.387 . S
H1229 C1225 0.950 . S
H1230 C1227 0.950 . S
C1231 C1222 1.390 . S
C1231 H1224 0.950 . S
C1231 C1228 1.387 . S
C1232 C1233 1.387 . S
C1232 H1236 0.950 . S
C1232 C1241 1.390 . S
C1233 C1232 1.387 . S
C1233 C1235 1.387 . S
H1234 C1241 0.950 . S
C1235 C1233 1.387 . S
C1235 C1237 1.390 . S
C1235 H1239 0.950 . S
H1236 C1232 0.950 . S
C1237 C1235 1.390 . S
C1237 C1238 1.387 . S
C1237 H1240 0.950 . S
C1238 C1237 1.387 . S
C1238 C1241 1.387 . S
H1239 C1235 0.950 . S
H1240 C1237 0.950 . S
C1241 C1232 1.390 . S
C1241 H1234 0.950 . S
C1241 C1238 1.387 . S
C1242 C1243 1.387 . S
C1242 H1246 0.950 . S
C1242 C1251 1.390 . S
C1243 C1242 1.387 . S
C1243 C1245 1.387 . S
H1244 C1251 0.950 . S
C1245 C1243 1.387 . S
C1245 C1247 1.390 . S
C1245 H1249 0.950 . S
H1246 C1242 0.950 . S
C1247 C1245 1.390 . S
C1247 C1248 1.387 . S
C1247 H1250 0.950 . S
C1248 C1247 1.387 . S
C1248 C1251 1.387 . S
H1249 C1245 0.950 . S
H1250 C1247 0.950 . S
C1251 C1242 1.390 . S
C1251 H1244 0.950 . S
C1251 C1248 1.387 . S
C1252 C1253 1.387 . S
C1252 H1256 0.950 . S
C1252 C1261 1.390 . S
C1253 C1252 1.387 . S
C1253 C1255 1.387 . S
H1254 C1261 0.950 . S
C1255 C1253 1.387 . S
C1255 C1257 1.390 . S
C1255 H1259 0.950 . S
H1256 C1252 0.950 . S
C1257 C1255 1.390 . S
C1257 C1258 1.387 . S
C1257 H1260 0.950 . S
C1258 C1257 1.387 . S
C1258 C1261 1.387 . S
H1259 C1255 0.950 . S
H1260 C1257 0.950 . S
C1261 C1252 1.390 . S
C1261 H1254 0.950 . S
C1261 C1258 1.387 . S
C1262 C1263 1.387 . S
C1262 H1266 0.950 . S
C1262 C1271 1.390 . S
C1263 C1262 1.387 . S
C1263 C1265 1.387 . S
H1264 C1271 0.950 . S
C1265 C1263 1.387 . S
C1265 C1267 1.390 . S
C1265 H1269 0.950 . S
H1266 C1262 0.950 . S
C1267 C1265 1.390 . S
C1267 C1268 1.387 . S
C1267 H1270 0.950 . S
C1268 C1267 1.387 . S
C1268 C1271 1.387 . S
H1269 C1265 0.950 . S
H1270 C1267 0.950 . S
C1271 C1262 1.390 . S
C1271 H1264 0.950 . S
C1271 C1268 1.387 . S
C1272 C1273 1.387 . S
C1272 H1276 0.950 . S
C1272 C1281 1.390 . S
C1273 C1272 1.387 . S
C1273 C1275 1.387 . S
H1274 C1281 0.950 . S
C1275 C1273 1.387 . S
C1275 C1277 1.390 . S
C1275 H1279 0.950 . S
H1276 C1272 0.950 . S
C1277 C1275 1.390 . S
C1277 C1278 1.387 . S
C1277 H1280 0.950 . S
C1278 C1277 1.387 . S
C1278 C1281 1.387 . S
H1279 C1275 0.950 . S
H1280 C1277 0.950 . S
C1281 C1272 1.390 . S
C1281 H1274 0.950 . S
C1281 C1278 1.387 . S
C1282 C1283 1.387 . S
C1282 H1286 0.950 . S
C1282 C1291 1.390 . S
C1283 C1282 1.387 . S
C1283 C1285 1.387 . S
H1284 C1291 0.950 . S
C1285 C1283 1.387 . S
C1285 C1287 1.390 . S
C1285 H1289 0.950 . S
H1286 C1282 0.950 . S
C1287 C1285 1.390 . S
C1287 C1288 1.387 . S
C1287 H1290 0.950 . S
C1288 C1287 1.387 . S
C1288 C1291 1.387 . S
H1289 C1285 0.950 . S
H1290 C1287 0.950 . S
C1291 C1282 1.390 . S
C1291 H1284 0.950 . S
C1291 C1288 1.387 . S
C1292 C1293 1.387 . S
C1292 H1296 0.950 . S
C1292 C1301 1.390 . S
C1293 C1292 1.387 . S
C1293 C1295 1.387 . S
H1294 C1301 0.950 . S
C1295 C1293 1.387 . S
C1295 C1297 1.390 . S
C1295 H1299 0.950 . S
H1296 C1292 0.950 . S
C1297 C1295 1.390 . S
C1297 C1298 1.387 . S
C1297 H1300 0.950 . S
C1298 C1297 1.387 . S
C1298 C1301 1.387 . S
H1299 C1295 0.950 . S
H1300 C1297 0.950 . S
C1301 C1292 1.390 . S
C1301 H1294 0.950 . S
C1301 C1298 1.387 . S
C1302 C1303 1.387 . S
C1302 H1306 0.950 . S
C1302 C1311 1.390 . S
C1303 C1302 1.387 . S
C1303 C1305 1.387 . S
H1304 C1311 0.950 . S
C1305 C1303 1.387 . S
C1305 C1307 1.390 . S
C1305 H1309 0.950 . S
H1306 C1302 0.950 . S
C1307 C1305 1.390 . S
C1307 C1308 1.387 . S
C1307 H1310 0.950 . S
C1308 C1307 1.387 . S
C1308 C1311 1.387 . S
H1309 C1305 0.950 . S
H1310 C1307 0.950 . S
C1311 C1302 1.390 . S
C1311 H1304 0.950 . S
C1311 C1308 1.387 . S
C1312 C1313 1.387 . S
C1312 H1316 0.950 . S
C1312 C1321 1.390 . S
C1313 C1312 1.387 . S
C1313 C1315 1.387 . S
H1314 C1321 0.950 . S
C1315 C1313 1.387 . S
C1315 C1317 1.390 . S
C1315 H1319 0.950 . S
H1316 C1312 0.950 . S
C1317 C1315 1.390 . S
C1317 C1318 1.387 . S
C1317 H1320 0.950 . S
C1318 C1317 1.387 . S
C1318 C1321 1.387 . S
H1319 C1315 0.950 . S
H1320 C1317 0.950 . S
C1321 C1312 1.390 . S
C1321 H1314 0.950 . S
C1321 C1318 1.387 . S
C1322 C1323 1.387 . S
C1322 H1326 0.950 . S
C1322 C1331 1.390 . S
C1323 C1322 1.387 . S
C1323 C1325 1.387 . S
H1324 C1331 0.950 . S
C1325 C1323 1.387 . S
C1325 C1327 1.390 . S
C1325 H1329 0.950 . S
H1326 C1322 0.950 . S
C1327 C1325 1.390 . S
C1327 C1328 1.387 . S
C1327 H1330 0.950 . S
C1328 C1327 1.387 . S
C1328 C1331 1.387 . S
H1329 C1325 0.950 . S
H1330 C1327 0.950 . S
C1331 C1322 1.390 . S
C1331 H1324 0.950 . S
C1331 C1328 1.387 . S
C1332 C1333 1.387 . S
C1332 H1336 0.950 . S
C1332 C1341 1.390 . S
C1333 C1332 1.387 . S
C1333 C1335 1.387 . S
H1334 C1341 0.950 . S
C1335 C1333 1.387 . S
C1335 C1337 1.390 . S
C1335 H1339 0.950 . S
H1336 C1332 0.950 . S
C1337 C1335 1.390 . S
C1337 C1338 1.387 . S
C1337 H1340 0.950 . S
C1338 C1337 1.387 . S
C1338 C1341 1.387 . S
H1339 C1335 0.950 . S
H1340 C1337 0.950 . S
C1341 C1332 1.390 . S
C1341 H1334 0.950 . S
C1341 C1338 1.387 . S
C1342 C1343 1.387 . S
C1342 H1346 0.950 . S
C1342 C1351 1.390 . S
C1343 C1342 1.387 . S
C1343 C1345 1.387 . S
H1344 C1351 0.950 . S
C1345 C1343 1.387 . S
C1345 C1347 1.390 . S
C1345 H1349 0.950 . S
H1346 C1342 0.950 . S
C1347 C1345 1.390 . S
C1347 C1348 1.387 . S
C1347 H1350 0.950 . S
C1348 C1347 1.387 . S
C1348 C1351 1.387 . S
H1349 C1345 0.950 . S
H1350 C1347 0.950 . S
C1351 C1342 1.390 . S
C1351 H1344 0.950 . S
C1351 C1348 1.387 . S
C1352 C1353 1.387 . S
C1352 H1356 0.950 . S
C1352 C1361 1.390 . S
C1353 C1352 1.387 . S
C1353 C1355 1.387 . S
H1354 C1361 0.950 . S
C1355 C1353 1.387 . S
C1355 C1357 1.390 . S
C1355 H1359 0.950 . S
H1356 C1352 0.950 . S
C1357 C1355 1.390 . S
C1357 C1358 1.387 . S
C1357 H1360 0.950 . S
C1358 C1357 1.387 . S
C1358 C1361 1.387 . S
H1359 C1355 0.950 . S
H1360 C1357 0.950 . S
C1361 C1352 1.390 . S
C1361 H1354 0.950 . S
C1361 C1358 1.387 . S
C1362 C1363 1.387 . S
C1362 H1366 0.950 . S
C1362 C1371 1.390 . S
C1363 C1362 1.387 . S
C1363 C1365 1.387 . S
H1364 C1371 0.950 . S
C1365 C1363 1.387 . S
C1365 C1367 1.390 . S
C1365 H1369 0.950 . S
H1366 C1362 0.950 . S
C1367 C1365 1.390 . S
C1367 C1368 1.387 . S
C1367 H1370 0.950 . S
C1368 C1367 1.387 . S
C1368 C1371 1.387 . S
H1369 C1365 0.950 . S
H1370 C1367 0.950 . S
C1371 C1362 1.390 . S
C1371 H1364 0.950 . S
C1371 C1368 1.387 . S
C1372 C1373 1.387 . S
C1372 H1376 0.950 . S
C1372 C1381 1.390 . S
C1373 C1372 1.387 . S
C1373 C1375 1.387 . S
H1374 C1381 0.950 . S
C1375 C1373 1.387 . S
C1375 C1377 1.390 . S
C1375 H1379 0.950 . S
H1376 C1372 0.950 . S
C1377 C1375 1.390 . S
C1377 C1378 1.387 . S
C1377 H1380 0.950 . S
C1378 C1377 1.387 . S
C1378 C1381 1.387 . S
H1379 C1375 0.950 . S
H1380 C1377 0.950 . S
C1381 C1372 1.390 . S
C1381 H1374 0.950 . S
C1381 C1378 1.387 . S
C1382 C1383 1.387 . S
C1382 H1386 0.950 . S
C1382 C1391 1.390 . S
C1383 C1382 1.387 . S
C1383 C1385 1.387 . S
H1384 C1391 0.950 . S
C1385 C1383 1.387 . S
C1385 C1387 1.390 . S
C1385 H1389 0.950 . S
H1386 C1382 0.950 . S
C1387 C1385 1.390 . S
C1387 C1388 1.387 . S
C1387 H1390 0.950 . S
C1388 C1387 1.387 . S
C1388 C1391 1.387 . S
H1389 C1385 0.950 . S
H1390 C1387 0.950 . S
C1391 C1382 1.390 . S
C1391 H1384 0.950 . S
C1391 C1388 1.387 . S
C1392 C1393 1.387 . S
C1392 H1396 0.950 . S
C1392 C1401 1.390 . S
C1393 C1392 1.387 . S
C1393 C1395 1.387 . S
H1394 C1401 0.950 . S
C1395 C1393 1.387 . S
C1395 C1397 1.390 . S
C1395 H1399 0.950 . S
H1396 C1392 0.950 . S
C1397 C1395 1.390 . S
C1397 C1398 1.387 . S
C1397 H1400 0.950 . S
C1398 C1397 1.387 . S
C1398 C1401 1.387 . S
H1399 C1395 0.950 . S
H1400 C1397 0.950 . S
C1401 C1392 1.390 . S
C1401 H1394 0.950 . S
C1401 C1398 1.387 . S
C1402 C1403 1.387 . S
C1402 H1406 0.950 . S
C1402 C1411 1.390 . S
C1403 C1402 1.387 . S
C1403 C1405 1.387 . S
H1404 C1411 0.950 . S
C1405 C1403 1.387 . S
C1405 C1407 1.390 . S
C1405 H1409 0.950 . S
H1406 C1402 0.950 . S
C1407 C1405 1.390 . S
C1407 C1408 1.387 . S
C1407 H1410 0.950 . S
C1408 C1407 1.387 . S
C1408 C1411 1.387 . S
H1409 C1405 0.950 . S
H1410 C1407 0.950 . S
C1411 C1402 1.390 . S
C1411 H1404 0.950 . S
C1411 C1408 1.387 . S
C1412 C1413 1.387 . S
C1412 H1416 0.950 . S
C1412 C1421 1.390 . S
C1413 C1412 1.387 . S
C1413 C1415 1.387 . S
H1414 C1421 0.950 . S
C1415 C1413 1.387 . S
C1415 C1417 1.390 . S
C1415 H1419 0.950 . S
H1416 C1412 0.950 . S
C1417 C1415 1.390 . S
C1417 C1418 1.387 . S
C1417 H1420 0.950 . S
C1418 C1417 1.387 . S
C1418 C1421 1.387 . S
H1419 C1415 0.950 . S
H1420 C1417 0.950 . S
C1421 C1412 1.390 . S
C1421 H1414 0.950 . S
C1421 C1418 1.387 . S
C1422 C1423 1.387 . S
C1422 H1426 0.950 . S
C1422 C1431 1.390 . S
C1423 C1422 1.387 . S
C1423 C1425 1.387 . S
H1424 C1431 0.950 . S
C1425 C1423 1.387 . S
C1425 C1427 1.390 . S
C1425 H1429 0.950 . S
H1426 C1422 0.950 . S
C1427 C1425 1.390 . S
C1427 C1428 1.387 . S
C1427 H1430 0.950 . S
C1428 C1427 1.387 . S
C1428 C1431 1.387 . S
H1429 C1425 0.950 . S
H1430 C1427 0.950 . S
C1431 C1422 1.390 . S
C1431 H1424 0.950 . S
C1431 C1428 1.387 . S
C1432 C1433 1.387 . S
C1432 H1436 0.950 . S
C1432 C1441 1.390 . S
C1433 C1432 1.387 . S
C1433 C1435 1.387 . S
H1434 C1441 0.950 . S
C1435 C1433 1.387 . S
C1435 C1437 1.390 . S
C1435 H1439 0.950 . S
H1436 C1432 0.950 . S
C1437 C1435 1.390 . S
C1437 C1438 1.387 . S
C1437 H1440 0.950 . S
C1438 C1437 1.387 . S
C1438 C1441 1.387 . S
H1439 C1435 0.950 . S
H1440 C1437 0.950 . S
C1441 C1432 1.390 . S
C1441 H1434 0.950 . S
C1441 C1438 1.387 . S
C1442 C1443 1.387 . S
C1442 H1446 0.950 . S
C1442 C1451 1.390 . S
C1443 C1442 1.387 . S
C1443 C1445 1.387 . S
H1444 C1451 0.950 . S
C1445 C1443 1.387 . S
C1445 C1447 1.390 . S
C1445 H1449 0.950 . S
H1446 C1442 0.950 . S
C1447 C1445 1.390 . S
C1447 C1448 1.387 . S
C1447 H1450 0.950 . S
C1448 C1447 1.387 . S
C1448 C1451 1.387 . S
H1449 C1445 0.950 . S
H1450 C1447 0.950 . S
C1451 C1442 1.390 . S
C1451 H1444 0.950 . S
C1451 C1448 1.387 . S
C1452 C1453 1.387 . S
C1452 H1456 0.950 . S
C1452 C1461 1.390 . S
C1453 C1452 1.387 . S
C1453 C1455 1.387 . S
H1454 C1461 0.950 . S
C1455 C1453 1.387 . S
C1455 C1457 1.390 . S
C1455 H1459 0.950 . S
H1456 C1452 0.950 . S
C1457 C1455 1.390 . S
C1457 C1458 1.387 . S
C1457 H1460 0.950 . S
C1458 C1457 1.387 . S
C1458 C1461 1.387 . S
H1459 C1455 0.950 . S
H1460 C1457 0.950 . S
C1461 C1452 1.390 . S
C1461 H1454 0.950 . S
C1461 C1458 1.387 . S
C1462 C1463 1.387 . S
C1462 H1466 0.950 . S
C1462 C1471 1.390 . S
C1463 C1462 1.387 . S
C1463 C1465 1.387 . S
H1464 C1471 0.950 . S
C1465 C1463 1.387 . S
C1465 C1467 1.390 . S
C1465 H1469 0.950 . S
H1466 C1462 0.950 . S
C1467 C1465 1.390 . S
C1467 C1468 1.387 . S
C1467 H1470 0.950 . S
C1468 C1467 1.387 . S
C1468 C1471 1.387 . S
H1469 C1465 0.950 . S
H1470 C1467 0.950 . S
C1471 C1462 1.390 . S
C1471 H1464 0.950 . S
C1471 C1468 1.387 . S
C1472 C1473 1.387 . S
C1472 H1476 0.950 . S
C1472 C1481 1.390 . S
C1473 C1472 1.387 . S
C1473 C1475 1.387 . S
H1474 C1481 0.950 . S
C1475 C1473 1.387 . S
C1475 C1477 1.390 . S
C1475 H1479 0.950 . S
H1476 C1472 0.950 . S
C1477 C1475 1.390 . S
C1477 C1478 1.387 . S
C1477 H1480 0.950 . S
C1478 C1477 1.387 . S
C1478 C1481 1.387 . S
H1479 C1475 0.950 . S
H1480 C1477 0.950 . S
C1481 C1472 1.390 . S
C1481 H1474 0.950 . S
C1481 C1478 1.387 . S
C1482 C1483 1.387 . S
C1482 H1486 0.950 . S
C1482 C1491 1.390 . S
C1483 C1482 1.387 . S
C1483 C1485 1.387 . S
H1484 C1491 0.950 . S
C1485 C1483 1.387 . S
C1485 C1487 1.390 . S
C1485 H1489 0.950 . S
H1486 C1482 0.950 . S
C1487 C1485 1.390 . S
C1487 C1488 1.387 . S
C1487 H1490 0.950 . S
C1488 C1487 1.387 . S
C1488 C1491 1.387 . S
H1489 C1485 0.950 . S
H1490 C1487 0.950 . S
C1491 C1482 1.390 . S
C1491 H1484 0.950 . S
C1491 C1488 1.387 . S
C1492 C1493 1.387 . S
C1492 H1496 0.950 . S
C1492 C1501 1.390 . S
C1493 C1492 1.387 . S
C1493 C1495 1.387 . S
H1494 C1501 0.950 . S
C1495 C1493 1.387 . S
C1495 C1497 1.390 . S
C1495 H1499 0.950 . S
H1496 C1492 0.950 . S
C1497 C1495 1.390 . S
C1497 C1498 1.387 . S
C1497 H1500 0.950 . S
C1498 C1497 1.387 . S
C1498 C1501 1.387 . S
H1499 C1495 0.950 . S
H1500 C1497 0.950 . S
C1501 C1492 1.390 . S
C1501 H1494 0.950 . S
C1501 C1498 1.387 . S
C1502 C1503 1.387 . S
C1502 H1506 0.950 . S
C1502 C1511 1.390 . S
C1503 C1502 1.387 . S
C1503 C1505 1.387 . S
H1504 C1511 0.950 . S
C1505 C1503 1.387 . S
C1505 C1507 1.390 . S
C1505 H1509 0.950 . S
H1506 C1502 0.950 . S
C1507 C1505 1.390 . S
C1507 C1508 1.387 . S
C1507 H1510 0.950 . S
C1508 C1507 1.387 . S
C1508 C1511 1.387 . S
H1509 C1505 0.950 . S
H1510 C1507 0.950 . S
C1511 C1502 1.390 . S
C1511 H1504 0.950 . S
C1511 C1508 1.387 . S
C1512 C1513 1.387 . S
C1512 H1516 0.950 . S
C1512 C1521 1.390 . S
C1513 C1512 1.387 . S
C1513 C1515 1.387 . S
H1514 C1521 0.950 . S
C1515 C1513 1.387 . S
C1515 C1517 1.390 . S
C1515 H1519 0.950 . S
H1516 C1512 0.950 . S
C1517 C1515 1.390 . S
C1517 C1518 1.387 . S
C1517 H1520 0.950 . S
C1518 C1517 1.387 . S
C1518 C1521 1.387 . S
H1519 C1515 0.950 . S
H1520 C1517 0.950 . S
C1521 C1512 1.390 . S
C1521 H1514 0.950 . S
C1521 C1518 1.387 . S
C1522 C1523 1.387 . S
C1522 H1526 0.950 . S
C1522 C1531 1.390 . S
C1523 C1522 1.387 . S
C1523 C1525 1.387 . S
H1524 C1531 0.950 . S
C1525 C1523 1.387 . S
C1525 C1527 1.390 . S
C1525 H1529 0.950 . S
H1526 C1522 0.950 . S
C1527 C1525 1.390 . S
C1527 C1528 1.387 . S
C1527 H1530 0.950 . S
C1528 C1527 1.387 . S
C1528 C1531 1.387 . S
H1529 C1525 0.950 . S
H1530 C1527 0.950 . S
C1531 C1522 1.390 . S
C1531 H1524 0.950 . S
C1531 C1528 1.387 . S
C1532 C1533 1.387 . S
C1532 H1536 0.950 . S
C1532 C1541 1.390 . S
C1533 C1532 1.387 . S
C1533 C1535 1.387 . S
H1534 C1541 0.950 . S
C1535 C1533 1.387 . S
C1535 C1537 1.390 . S
C1535 H1539 0.950 . S
H1536 C1532 0.950 . S
C1537 C1535 1.390 . S
C1537 C1538 1.387 . S
C1537 H1540 0.950 . S
C1538 C1537 1.387 . S
C1538 C1541 1.387 . S
H1539 C1535 0.950 . S
H1540 C1537 0.950 . S
C1541 C1532 1.390 . S
C1541 H1534 0.950 . S
C1541 C1538 1.387 . S
C1542 C1543 1.387 . S
C1542 H1546 0.950 . S
C1542 C1551 1.390 . S
C1543 C1542 1.387 . S
C1543 C1545 1.387 . S
H1544 C1551 0.950 . S
C1545 C1543 1.387 . S
C1545 C1547 1.390 . S
C1545 H1549 0.950 . S
H1546 C1542 0.950 . S
C1547 C1545 1.390 . S
C1547 C1548 1.387 . S
C1547 H1550 0.950 . S
C1548 C1547 1.387 . S
C1548 C1551 1.387 . S
H1549 C1545 0.950 . S
H1550 C1547 0.950 . S
C1551 C1542 1.390 . S
C1551 H1544 0.950 . S
C1551 C1548 1.387 . S
C1552 C1553 1.387 . S
C1552 H1556 0.950 . S
C1552 C1561 1.390 . S
C1553 C1552 1.387 . S
C1553 C1555 1.387 . S
H1554 C1561 0.950 . S
C1555 C1553 1.387 . S
C1555 C1557 1.390 . S
C1555 H1559 0.950 . S
H1556 C1552 0.950 . S
C1557 C1555 1.390 . S
C1557 C1558 1.387 . S
C1557 H1560 0.950 . S
C1558 C1557 1.387 . S
C1558 C1561 1.387 . S
H1559 C1555 0.950 . S
H1560 C1557 0.950 . S
C1561 C1552 1.390 . S
C1561 H1554 0.950 . S
C1561 C1558 1.387 . S
C1562 C1563 1.387 . S
C1562 H1566 0.950 . S
C1562 C1571 1.390 . S
C1563 C1562 1.387 . S
C1563 C1565 1.387 . S
H1564 C1571 0.950 . S
C1565 C1563 1.387 . S
C1565 C1567 1.390 . S
C1565 H1569 0.950 . S
H1566 C1562 0.950 . S
C1567 C1565 1.390 . S
C1567 C1568 1.387 . S
C1567 H1570 0.950 . S
C1568 C1567 1.387 . S
C1568 C1571 1.387 . S
H1569 C1565 0.950 . S
H1570 C1567 0.950 . S
C1571 C1562 1.390 . S
C1571 H1564 0.950 . S
C1571 C1568 1.387 . S
C1572 C1573 1.387 . S
C1572 H1576 0.950 . S
C1572 C1581 1.390 . S
C1573 C1572 1.387 . S
C1573 C1575 1.387 . S
H1574 C1581 0.950 . S
C1575 C1573 1.387 . S
C1575 C1577 1.390 . S
C1575 H1579 0.950 . S
H1576 C1572 0.950 . S
C1577 C1575 1.390 . S
C1577 C1578 1.387 . S
C1577 H1580 0.950 . S
C1578 C1577 1.387 . S
C1578 C1581 1.387 . S
H1579 C1575 0.950 . S
H1580 C1577 0.950 . S
C1581 C1572 1.390 . S
C1581 H1574 0.950 . S
C1581 C1578 1.387 . S
C1582 C1583 1.387 . S
C1582 H1586 0.950 . S
C1582 C1591 1.390 . S
C1583 C1582 1.387 . S
C1583 C1585 1.387 . S
H1584 C1591 0.950 . S
C1585 C1583 1.387 . S
C1585 C1587 1.390 . S
C1585 H1589 0.950 . S
H1586 C1582 0.950 . S
C1587 C1585 1.390 . S
C1587 C1588 1.387 . S
C1587 H1590 0.950 . S
C1588 C1587 1.387 . S
C1588 C1591 1.387 . S
H1589 C1585 0.950 . S
H1590 C1587 0.950 . S
C1591 C1582 1.390 . S
C1591 H1584 0.950 . S
C1591 C1588 1.387 . S
C1592 C1593 1.387 . S
C1592 H1596 0.950 . S
C1592 C1601 1.390 . S
C1593 C1592 1.387 . S
C1593 C1595 1.387 . S
H1594 C1601 0.950 . S
C1595 C1593 1.387 . S
C1595 C1597 1.390 . S
C1595 H1599 0.950 . S
H1596 C1592 0.950 . S
C1597 C1595 1.390 . S
C1597 C1598 1.387 . S
C1597 H1600 0.950 . S
C1598 C1597 1.387 . S
C1598 C1601 1.387 . S
H1599 C1595 0.950 . S
H1600 C1597 0.950 . S
C1601 C1592 1.390 . S
C1601 H1594 0.950 . S
C1601 C1598 1.387 . S
C1602 C1603 1.387 . S
C1602 H1606 0.950 . S
C1602 C1611 1.390 . S
C1603 C1602 1.387 . S
C1603 C1605 1.387 . S
H1604 C1611 0.950 . S
C1605 C1603 1.387 . S
C1605 C1607 1.390 . S
C1605 H1609 0.950 . S
H1606 C1602 0.950 . S
C1607 C1605 1.390 . S
C1607 C1608 1.387 . S
C1607 H1610 0.950 . S
C1608 C1607 1.387 . S
C1608 C1611 1.387 . S
H1609 C1605 0.950 . S
H1610 C1607 0.950 . S
C1611 C1602 1.390 . S
C1611 H1604 0.950 . S
C1611 C1608 1.387 . S
C1612 C1613 1.387 . S
C1612 H1616 0.950 . S
C1612 C1621 1.390 . S
C1613 C1612 1.387 . S
C1613 C1615 1.387 . S
H1614 C1621 0.950 . S
C1615 C1613 1.387 . S
C1615 C1617 1.390 . S
C1615 H1619 0.950 . S
H1616 C1612 0.950 . S
C1617 C1615 1.390 . S
C1617 C1618 1.387 . S
C1617 H1620 0.950 . S
C1618 C1617 1.387 . S
C1618 C1621 1.387 . S
H1619 C1615 0.950 . S
H1620 C1617 0.950 . S
C1621 C1612 1.390 . S
C1621 H1614 0.950 . S
C1621 C1618 1.387 . S
C1622 C1623 1.387 . S
C1622 H1626 0.950 . S
C1622 C1631 1.390 . S
C1623 C1622 1.387 . S
C1623 C1625 1.387 . S
H1624 C1631 0.950 . S
C1625 C1623 1.387 . S
C1625 C1627 1.390 . S
C1625 H1629 0.950 . S
H1626 C1622 0.950 . S
C1627 C1625 1.390 . S
C1627 C1628 1.387 . S
C1627 H1630 0.950 . S
C1628 C1627 1.387 . S
C1628 C1631 1.387 . S
H1629 C1625 0.950 . S
H1630 C1627 0.950 . S
C1631 C1622 1.390 . S
C1631 H1624 0.950 . S
C1631 C1628 1.387 . S
C673 C137 1.685 . S
C678 C11 1.685 . S
C683 C151 1.687 . S
C688 C25 1.687 . S
C693 C165 1.686 . S
C698 C39 1.686 . S
C703 C53 1.686 . S
C708 C123 1.686 . S
C713 C221 1.690 . S
C718 C67 1.690 . S
C723 C81 1.685 . S
C728 C179 1.685 . S
C733 C193 1.685 . S
C738 C95 1.685 . S
C743 C207 1.687 . S
C748 C109 1.688 . S
C753 C235 1.690 . S
C758 C263 1.689 . S
C763 C249 1.686 . S
C768 C319 1.686 . S
C773 C277 1.687 . S
C778 C333 1.687 . S
C783 C291 1.690 . S
C788 C305 1.690 . S
C793 C347 1.685 . S
C798 C473 1.685 . S
C803 C487 1.685 . S
C808 C361 1.686 . S
C813 C375 1.686 . S
C818 C501 1.685 . S
C823 C389 1.686 . S
C828 C459 1.687 . S
C833 C557 1.689 . S
C838 C403 1.690 . S
C843 C515 1.685 . S
C848 C417 1.685 . S
C853 C529 1.689 . S
C858 C431 1.689 . S
C863 C543 1.688 . S
C868 C445 1.689 . S
C873 C571 1.687 . S
C878 C599 1.686 . S
C883 C585 1.688 . S
C888 C655 1.688 . S
C893 C613 1.687 . S
C898 C669 1.688 . S
C903 C641 1.689 . S
C908 C627 1.689 . S
C913 C120 1.096 . S
C918 C7 1.314 . S
C923 C134 1.096 . S
C928 C21 1.314 . S
C933 C35 1.313 . S
C938 C148 1.101 . S
C943 C49 1.313 . S
C948 C162 1.095 . S
C953 C63 1.313 . S
C958 C176 1.095 . S
C963 C77 1.313 . S
C968 C190 1.095 . S
C973 C91 1.313 . S
C978 C204 1.101 . S
C983 C218 1.100 . S
C988 C105 1.313 . S
C993 C119 1.313 . S
C998 C232 1.097 . S
C1003 C330 1.101 . S
C1008 C133 1.313 . S
C1013 C147 1.313 . S
C1018 C302 1.099 . S
C1023 C161 1.313 . S
C1028 C316 1.099 . S
C1033 C175 1.313 . S
C1038 C246 1.098 . S
C1043 C189 1.313 . S
C1048 C260 1.094 . S
C1053 C203 1.313 . S
C1058 C274 1.097 . S
C1063 C288 1.094 . S
C1068 C217 1.313 . S
C1073 C8 1.096 . S
C1078 C231 1.314 . S
C1083 C245 1.313 . S
C1088 C64 1.100 . S
C1093 C259 1.313 . S
C1098 C78 1.099 . S
C1103 C273 1.314 . S
C1108 C92 1.095 . S
C1113 C106 1.099 . S
C1118 C287 1.313 . S
C1123 C301 1.313 . S
C1128 C36 1.101 . S
C1133 C315 1.313 . S
C1138 C50 1.101 . S
C1143 C22 1.098 . S
C1148 C329 1.313 . S
C1153 C456 1.100 . S
C1158 C343 1.313 . S
C1163 C357 1.313 . S
C1168 C470 1.099 . S
C1173 C371 1.314 . S
C1178 C484 1.097 . S
C1183 C498 1.096 . S
C1188 C385 1.314 . S
C1193 C512 1.099 . S
C1198 C399 1.313 . S
C1203 C413 1.314 . S
C1208 C526 1.096 . S
C1213 C540 1.096 . S
C1218 C427 1.314 . S
C1223 C554 1.100 . S
C1228 C441 1.313 . S
C1233 C455 1.313 . S
C1238 C568 1.097 . S
C1243 C469 1.313 . S
C1248 C666 1.094 . S
C1253 C483 1.313 . S
C1258 C638 1.098 . S
C1263 C652 1.101 . S
C1268 C497 1.313 . S
C1273 C511 1.313 . S
C1278 C582 1.098 . S
C1283 C525 1.313 . S
C1288 C596 1.098 . S
C1293 C610 1.095 . S
C1298 C539 1.314 . S
C1303 C624 1.099 . S
C1308 C553 1.313 . S
C1313 C567 1.313 . S
C1318 C344 1.099 . S
C1323 C581 1.313 . S
C1328 C400 1.100 . S
C1333 C414 1.096 . S
C1338 C595 1.314 . S
C1343 C609 1.313 . S
C1348 C428 1.099 . S
C1353 C623 1.313 . S
C1358 C442 1.098 . S
C1363 C372 1.101 . S
C1368 C637 1.313 . S
C1373 C651 1.313 . S
C1378 C386 1.098 . S
C1383 C358 1.097 . S
C1388 C665 1.314 . S
C1393 C447 1.309 . S
C1398 C13 1.315 . S
C1403 C27 1.310 . S
C1408 C405 1.315 . S
C1413 C419 1.314 . S
C1418 C41 1.310 . S
C1423 C433 1.314 . S
C1428 C55 1.310 . S
C1433 C69 1.309 . S
C1438 C363 1.315 . S
C1443 C377 1.309 . S
C1448 C83 1.315 . S
C1453 C391 1.315 . S
C1458 C97 1.309 . S
C1463 C111 1.314 . S
C1468 C349 1.310 . S
C1473 C629 1.314 . S
C1478 C125 1.310 . S
C1483 C139 1.313 . S
C1488 C587 1.311 . S
C1493 C153 1.312 . S
C1498 C601 1.313 . S
C1503 C615 1.314 . S
C1508 C167 1.310 . S
C1513 C671 1.313 . S
C1518 C181 1.311 . S
C1523 C643 1.312 . S
C1528 C195 1.313 . S
C1533 C209 1.310 . S
C1538 C657 1.314 . S
C1543 C573 1.315 . S
C1548 C223 1.309 . S
C1553 C237 1.311 . S
C1558 C559 1.314 . S
C1563 C475 1.314 . S
C1568 C251 1.310 . S
C1573 C265 1.311 . S
C1578 C489 1.314 . S
C1583 C503 1.315 . S
C1588 C279 1.310 . S
C1593 C461 1.312 . S
C1598 C293 1.313 . S
C1603 C307 1.314 . S
C1608 C531 1.310 . S
C1613 C545 1.313 . S
C1618 C321 1.311 . S
C1623 C517 1.315 . S
C1628 C335 1.309 . S
