# Generated by pormake.
# Topology uop, (4)-cn, num edge types: 1
# Building blocks:
#     Node 0, Type 0, BuildingBlock: ICAMEG_clean_sbu_1, # of connection points: 4
#     Node 1, Type 0, BuildingBlock: ICAMEG_clean_sbu_1, # of connection points: 4
#     Node 2, Type 0, BuildingBlock: ICAMEG_clean_sbu_1, # of connection points: 4
#     Node 3, Type 0, BuildingBlock: ICAMEG_clean_sbu_1, # of connection points: 4
#     Node 4, Type 0, BuildingBlock: ICAMEG_clean_sbu_1, # of connection points: 4
#     Node 5, Type 0, BuildingBlock: ICAMEG_clean_sbu_1, # of connection points: 4
#     Node 6, Type 0, BuildingBlock: ICAMEG_clean_sbu_1, # of connection points: 4
#     Node 7, Type 0, BuildingBlock: ICAMEG_clean_sbu_1, # of connection points: 4
#     Node 8, Type 0, BuildingBlock: ICAMEG_clean_sbu_1, # of connection points: 4
#     Node 9, Type 0, BuildingBlock: ICAMEG_clean_sbu_1, # of connection points: 4
#     Node 10, Type 0, BuildingBlock: ICAMEG_clean_sbu_1, # of connection points: 4
#     Node 11, Type 0, BuildingBlock: ICAMEG_clean_sbu_1, # of connection points: 4
#     Edge 12, Type (0, 0), BuildingBlock: CIFDUS_clean_linker_0, # of connection points: 2
#     Edge 13, Type (0, 0), BuildingBlock: CIFDUS_clean_linker_0, # of connection points: 2
#     Edge 14, Type (0, 0), BuildingBlock: CIFDUS_clean_linker_0, # of connection points: 2
#     Edge 15, Type (0, 0), BuildingBlock: CIFDUS_clean_linker_0, # of connection points: 2
#     Edge 16, Type (0, 0), BuildingBlock: CIFDUS_clean_linker_0, # of connection points: 2
#     Edge 17, Type (0, 0), BuildingBlock: CIFDUS_clean_linker_0, # of connection points: 2
#     Edge 18, Type (0, 0), BuildingBlock: CIFDUS_clean_linker_0, # of connection points: 2
#     Edge 19, Type (0, 0), BuildingBlock: CIFDUS_clean_linker_0, # of connection points: 2
#     Edge 20, Type (0, 0), BuildingBlock: CIFDUS_clean_linker_0, # of connection points: 2
#     Edge 21, Type (0, 0), BuildingBlock: CIFDUS_clean_linker_0, # of connection points: 2
#     Edge 22, Type (0, 0), BuildingBlock: CIFDUS_clean_linker_0, # of connection points: 2
#     Edge 23, Type (0, 0), BuildingBlock: CIFDUS_clean_linker_0, # of connection points: 2
#     Edge 24, Type (0, 0), BuildingBlock: CIFDUS_clean_linker_0, # of connection points: 2
#     Edge 25, Type (0, 0), BuildingBlock: CIFDUS_clean_linker_0, # of connection points: 2
#     Edge 26, Type (0, 0), BuildingBlock: CIFDUS_clean_linker_0, # of connection points: 2
#     Edge 27, Type (0, 0), BuildingBlock: CIFDUS_clean_linker_0, # of connection points: 2
#     Edge 28, Type (0, 0), BuildingBlock: CIFDUS_clean_linker_0, # of connection points: 2
#     Edge 29, Type (0, 0), BuildingBlock: CIFDUS_clean_linker_0, # of connection points: 2
#     Edge 30, Type (0, 0), BuildingBlock: CIFDUS_clean_linker_0, # of connection points: 2
#     Edge 31, Type (0, 0), BuildingBlock: CIFDUS_clean_linker_0, # of connection points: 2
#     Edge 32, Type (0, 0), BuildingBlock: CIFDUS_clean_linker_0, # of connection points: 2
#     Edge 33, Type (0, 0), BuildingBlock: CIFDUS_clean_linker_0, # of connection points: 2
#     Edge 34, Type (0, 0), BuildingBlock: CIFDUS_clean_linker_0, # of connection points: 2
#     Edge 35, Type (0, 0), BuildingBlock: CIFDUS_clean_linker_0, # of connection points: 2
# Relax obj value: 0.106
# Max RMSD: 0.102
# Mean RMSD: 0.102
data_MOF--net-uop--node1-ICAMEG_clean_sbu_1--edge1-CIFDUS_clean_linker_0
_symmetry_space_group_name_H-M    P1
_symmetry_Int_Tables_number       1
_symmetry_cell_setting            triclinic
loop_
_symmetry_equiv_pos_as_xyz
'x, y, z'
_cell_length_a     31.170771
_cell_length_b     31.19809
_cell_length_c     38.609344
_cell_angle_alpha  90.005037
_cell_angle_beta   89.954501
_cell_angle_gamma 119.82725
loop_
_atom_site_label
_atom_site_type_symbol
_atom_site_fract_x
_atom_site_fract_y
_atom_site_fract_z
_atom_type_partial_charge
Co0 Co 0.27183 0.43953 0.22897 0.0
Co1 Co 0.24818 0.3505 0.16727 0.0
O2 O 0.23866 0.40242 0.18754 0.0
C3 C 0.29375 0.51568 0.17592 0.0
O4 O 0.30542 0.49 0.15489 0.0
C5 C 0.14175 0.27116 0.16641 0.0
O6 O 0.15334 0.24345 0.18539 0.0
O7 O 0.2366 0.31672 0.21302 0.0
O8 O 0.26346 0.37855 0.25189 0.0
H9 H 0.31553 0.23408 0.15949 0.0
H10 H 0.18601 0.44377 0.19991 0.0
O11 O 0.28019 0.50106 0.20684 0.0
H12 H 0.13935 0.38589 0.32019 0.0
H13 H 0.31385 0.57022 0.32001 0.0
H14 H 0.34693 0.44078 0.2766 0.0
H15 H 0.22094 0.40542 0.29717 0.0
H16 H 0.2696 0.52044 0.26884 0.0
O17 O 0.17521 0.31413 0.15695 0.0
H18 H 0.30569 0.30114 0.18506 0.0
H19 H 0.20686 0.28723 0.10457 0.0
H20 H 0.39162 0.48933 0.32807 0.0
H21 H 0.10419 0.42514 0.22193 0.0
H22 H 0.37518 0.55461 0.35007 0.0
H23 H 0.08037 0.39587 0.28246 0.0
O24 O 0.33711 0.4538 0.21028 0.0
H25 H 0.21357 0.43752 0.07089 0.0
H26 H 0.32568 0.37989 0.1128 0.0
H27 H 0.34287 0.4238 0.05695 0.0
H28 H 0.28651 0.45283 0.03561 0.0
H29 H 0.198 0.39391 0.12673 0.0
H30 H 0.21546 0.21989 0.07812 0.0
H31 H 0.27016 0.19294 0.10562 0.0
O32 O 0.32123 0.38766 0.17759 0.0
C33 C 0.24757 0.33343 0.24387 0.0
C34 C 0.29153 0.24545 0.14728 0.0
C35 C 0.23535 0.23746 0.10164 0.0
N36 N 0.25557 0.29791 0.14644 0.0
C37 C 0.28581 0.28338 0.16167 0.0
C38 C 0.23052 0.27551 0.11678 0.0
C39 C 0.26607 0.22237 0.11706 0.0
C40 C 0.17597 0.43122 0.22632 0.0
N41 N 0.20816 0.42558 0.24723 0.0
C42 C 0.12956 0.42065 0.23862 0.0
C43 C 0.11621 0.40419 0.27258 0.0
C44 C 0.14926 0.39854 0.29375 0.0
C45 C 0.19531 0.40943 0.28054 0.0
C46 C 0.32121 0.54177 0.31072 0.0
C47 C 0.33927 0.46883 0.28621 0.0
C48 C 0.29636 0.51355 0.28172 0.0
N49 N 0.3054 0.47747 0.26992 0.0
C50 C 0.36481 0.49632 0.31529 0.0
C51 C 0.35562 0.53299 0.32759 0.0
C52 C 0.35105 0.42829 0.19267 0.0
C53 C 0.23828 0.42485 0.07984 0.0
C54 C 0.30105 0.39253 0.10375 0.0
C55 C 0.31092 0.41728 0.07206 0.0
C56 C 0.27927 0.43352 0.06009 0.0
N57 N 0.26067 0.38401 0.12293 0.0
C58 C 0.22951 0.3999 0.11137 0.0
Co59 Co 0.82308 0.27672 0.58194 0.0
Co60 Co 0.88525 0.26374 0.51206 0.0
O61 O 0.82497 0.24726 0.53783 0.0
C62 C 0.76017 0.29706 0.53609 0.0
O63 O 0.79518 0.3107 0.51272 0.0
C64 C 0.83728 0.15538 0.52253 0.0
O65 O 0.83491 0.16381 0.5556 0.0
O66 O 0.91797 0.25681 0.55428 0.0
O67 O 0.88093 0.27199 0.599 0.0
H68 H 0.06839 0.35143 0.48982 0.0
H69 H 0.73345 0.18908 0.55486 0.0
O70 O 0.76499 0.28185 0.56563 0.0
H71 H 0.76473 0.13832 0.66869 0.0
H72 H 0.73877 0.30465 0.68376 0.0
H73 H 0.89885 0.35219 0.6282 0.0
H74 H 0.81858 0.22296 0.64692 0.0
H75 H 0.74214 0.2653 0.62915 0.0
O76 O 0.85709 0.19146 0.50128 0.0
H77 H 0.99268 0.33191 0.52232 0.0
H78 H 0.90449 0.22739 0.44572 0.0
H79 H 0.8972 0.39216 0.68296 0.0
H80 H 0.67837 0.10414 0.5757 0.0
H81 H 0.81672 0.3685 0.71104 0.0
H82 H 0.694 0.07825 0.63295 0.0
O83 O 0.868 0.34443 0.56392 0.0
H84 H 0.74581 0.21296 0.42738 0.0
H85 H 0.91593 0.34079 0.4572 0.0
H86 H 0.87571 0.35198 0.40571 0.0
H87 H 0.79004 0.28776 0.39052 0.0
H88 H 0.78727 0.20342 0.47877 0.0
H89 H 0.97928 0.2455 0.41248 0.0
H90 H 0.06197 0.30804 0.43446 0.0
O91 O 0.9142 0.33611 0.52246 0.0
C92 C 0.91355 0.26301 0.58649 0.0
C93 C 0.03258 0.32417 0.47994 0.0
C94 C 0.98257 0.26466 0.43656 0.0
N95 N 0.94423 0.27869 0.48589 0.0
C96 C 0.98957 0.31303 0.4982 0.0
C97 C 0.94036 0.25446 0.45554 0.0
C98 C 0.02895 0.29978 0.4489 0.0
C99 C 0.74026 0.17815 0.5799 0.0
N100 N 0.77922 0.21087 0.59964 0.0
C101 C 0.70904 0.12998 0.59152 0.0
C102 C 0.71787 0.11546 0.62363 0.0
C103 C 0.75757 0.14913 0.64368 0.0
C104 C 0.78806 0.19694 0.63118 0.0
C105 C 0.77408 0.31516 0.67181 0.0
C106 C 0.86371 0.34134 0.64047 0.0
C107 C 0.77621 0.29308 0.64086 0.0
N108 N 0.82068 0.30616 0.62566 0.0
C109 C 0.863 0.3642 0.67141 0.0
C110 C 0.81783 0.35094 0.68714 0.0
C111 C 0.90322 0.36239 0.54193 0.0
C112 C 0.7832 0.24113 0.43367 0.0
C113 C 0.87862 0.31271 0.45078 0.0
C114 C 0.85607 0.31921 0.42156 0.0
C115 C 0.80801 0.28314 0.41303 0.0
N116 N 0.85406 0.27138 0.47088 0.0
C117 C 0.80695 0.23583 0.46265 0.0
Co118 Co 0.55894 0.82449 0.89288 0.0
Co119 Co 0.65126 0.89819 0.83605 0.0
O120 O 0.60344 0.83352 0.85462 0.0
C121 C 0.49215 0.75948 0.83882 0.0
O122 O 0.51616 0.79619 0.81707 0.0
C123 C 0.71066 0.85001 0.85117 0.0
O124 O 0.69312 0.84314 0.88286 0.0
O125 O 0.6788 0.92314 0.88319 0.0
O126 O 0.61048 0.88515 0.9162 0.0
H127 H 0.74501 0.08371 0.8314 0.0
H128 H 0.57421 0.74163 0.87222 0.0
O129 O 0.50556 0.76386 0.87035 0.0
H130 H 0.62917 0.7773 0.99379 0.0
H131 H 0.42994 0.72465 0.98247 0.0
H132 H 0.53426 0.89068 0.93285 0.0
H133 H 0.59596 0.82466 0.9642 0.0
H134 H 0.48615 0.73721 0.93365 0.0
O135 O 0.69915 0.87326 0.82928 0.0
H136 H 0.68392 1.00216 0.8547 0.0
H137 H 0.72295 0.93075 0.77742 0.0
H138 H 0.47887 0.87987 0.98184 0.0
H139 H 0.60688 0.6931 0.90089 0.0
H140 H 0.42678 0.79645 0.00729 0.0
H141 H 0.63476 0.71096 0.96209 0.0
O142 O 0.53501 0.86461 0.86859 0.0
H143 H 0.59147 0.77603 0.73796 0.0
H144 H 0.61786 0.93753 0.77792 0.0
H145 H 0.58233 0.90706 0.72004 0.0
H146 H 0.56904 0.82581 0.69968 0.0
H147 H 0.62641 0.80762 0.7958 0.0
H148 H 0.78479 0.01154 0.75344 0.0
H149 H 0.79596 0.08874 0.78039 0.0
O150 O 0.60331 0.92359 0.84211 0.0
C151 C 0.65557 0.91776 0.9115 0.0
C152 C 0.74038 0.05034 0.81936 0.0
C153 C 0.76276 0.00983 0.77564 0.0
N154 N 0.69962 0.96179 0.81726 0.0
C155 C 0.70575 0.00407 0.83238 0.0
C156 C 0.72778 0.9642 0.78937 0.0
C157 C 0.76899 0.05313 0.79076 0.0
C158 C 0.58579 0.74923 0.89897 0.0
N159 N 0.58292 0.7857 0.91657 0.0
C160 C 0.60445 0.72179 0.91502 0.0
C161 C 0.62017 0.73189 0.94934 0.0
C162 C 0.61707 0.76913 0.96714 0.0
C163 C 0.59832 0.79588 0.95022 0.0
C164 C 0.45279 0.76124 0.97179 0.0
C165 C 0.5117 0.8543 0.94379 0.0
C166 C 0.4846 0.76856 0.94409 0.0
N167 N 0.51398 0.81476 0.93074 0.0
C168 C 0.48032 0.84837 0.97147 0.0
C169 C 0.45096 0.80153 0.98566 0.0
C170 C 0.5584 0.90537 0.8522 0.0
C171 C 0.59723 0.81155 0.7465 0.0
C172 C 0.61199 0.90203 0.76933 0.0
C173 C 0.59198 0.88504 0.73648 0.0
C174 C 0.58457 0.83947 0.72506 0.0
N175 N 0.6244 0.87448 0.79019 0.0
C176 C 0.61721 0.82975 0.77918 0.0
Co177 Co 0.72586 0.56684 0.2417 0.0
Co178 Co 0.74912 0.64764 0.17375 0.0
O179 O 0.76103 0.60054 0.19948 0.0
C180 C 0.7114 0.48685 0.19483 0.0
O181 O 0.69926 0.50908 0.17113 0.0
C182 C 0.85807 0.70278 0.18507 0.0
O183 O 0.84953 0.69313 0.21828 0.0
O184 O 0.75679 0.68644 0.21667 0.0
O185 O 0.72957 0.62884 0.25899 0.0
H186 H 0.67244 0.75367 0.15121 0.0
H187 H 0.81648 0.56555 0.21999 0.0
O188 O 0.72251 0.50458 0.22524 0.0
H189 H 0.85215 0.63809 0.33715 0.0
H190 H 0.68224 0.44682 0.34065 0.0
H191 H 0.64546 0.56604 0.2832 0.0
H192 H 0.77092 0.61044 0.31 0.0
H193 H 0.72976 0.49332 0.28929 0.0
O194 O 0.82204 0.688 0.16395 0.0
H195 H 0.68601 0.69319 0.18342 0.0
H196 H 0.79034 0.70399 0.10821 0.0
H197 H 0.59735 0.52066 0.3347 0.0
H198 H 0.89811 0.59231 0.24625 0.0
H199 H 0.61549 0.46037 0.36367 0.0
H200 H 0.91641 0.62903 0.3052 0.0
O201 O 0.66063 0.54639 0.21964 0.0
H202 H 0.79553 0.55557 0.08863 0.0
H203 H 0.67366 0.6071 0.11748 0.0
H204 H 0.66155 0.55684 0.06522 0.0
H205 H 0.72281 0.53081 0.05048 0.0
H206 H 0.80599 0.60544 0.14081 0.0
H207 H 0.77814 0.76477 0.07521 0.0
H208 H 0.71873 0.78991 0.09664 0.0
O209 O 0.67605 0.60816 0.18272 0.0
C210 C 0.74446 0.67264 0.24802 0.0
C211 C 0.6984 0.74299 0.14158 0.0
C212 C 0.75777 0.74927 0.09896 0.0
N213 N 0.73885 0.69502 0.14775 0.0
C214 C 0.70619 0.70873 0.15972 0.0
C215 C 0.76463 0.71494 0.11782 0.0
C216 C 0.72441 0.76333 0.11098 0.0
C217 C 0.82411 0.58125 0.24573 0.0
N218 N 0.78906 0.58656 0.26343 0.0
C219 C 0.87041 0.59643 0.26044 0.0
C220 C 0.88067 0.61708 0.2935 0.0
C221 C 0.84466 0.62221 0.31143 0.0
C222 C 0.79881 0.60667 0.29589 0.0
C223 C 0.67408 0.47308 0.3283 0.0
C224 C 0.65397 0.54031 0.29593 0.0
C225 C 0.7008 0.49947 0.29917 0.0
N226 N 0.69062 0.53263 0.2834 0.0
C227 C 0.62648 0.51458 0.32499 0.0
C228 C 0.63665 0.48073 0.34122 0.0
C229 C 0.64639 0.56872 0.19899 0.0
C230 C 0.76869 0.56685 0.09471 0.0
C231 C 0.70041 0.5958 0.1113 0.0
C232 C 0.69342 0.56744 0.08163 0.0
C233 C 0.72782 0.55288 0.07335 0.0
N234 N 0.74062 0.6094 0.13209 0.0
C235 C 0.77453 0.59528 0.12414 0.0
Co236 Co 0.18703 0.73619 0.57618 0.0
Co237 Co 0.11669 0.74959 0.51244 0.0
O238 O 0.17987 0.76556 0.53357 0.0
C239 C 0.24259 0.71455 0.52442 0.0
O240 O 0.20441 0.70088 0.50391 0.0
C241 C 0.16921 0.85871 0.52098 0.0
O242 O 0.17628 0.85153 0.5535 0.0
O243 O 0.09057 0.75842 0.55745 0.0
O244 O 0.13188 0.74149 0.59813 0.0
H245 H 0.93147 0.66406 0.50284 0.0
H246 H 0.27362 0.82307 0.54519 0.0
O247 O 0.24232 0.7303 0.5548 0.0
H248 H 0.25741 0.87527 0.66274 0.0
H249 H 0.28338 0.70801 0.66935 0.0
H250 H 0.11714 0.66147 0.62577 0.0
H251 H 0.20016 0.79069 0.64234 0.0
H252 H 0.2734 0.74711 0.61673 0.0
O253 O 0.14475 0.82174 0.50107 0.0
H254 H 0.01086 0.68307 0.52952 0.0
H255 H 0.08949 0.78514 0.44903 0.0
H256 H 0.12542 0.62175 0.67865 0.0
H257 H 0.33198 0.90793 0.56458 0.0
H258 H 0.20902 0.64492 0.70071 0.0
H259 H 0.32394 0.93454 0.62372 0.0
O260 O 0.13948 0.66853 0.55948 0.0
H261 H 0.24339 0.79527 0.41811 0.0
H262 H 0.07705 0.67095 0.45834 0.0
H263 H 0.10925 0.65726 0.40358 0.0
H264 H 0.19299 0.71971 0.38313 0.0
H265 H 0.20995 0.80732 0.47285 0.0
H266 H 0.01095 0.76748 0.42155 0.0
H267 H 0.9312 0.70643 0.44843 0.0
O268 O 0.08788 0.67727 0.52318 0.0
C269 C 0.09849 0.75147 0.58887 0.0
C270 C 0.96597 0.6907 0.49085 0.0
C271 C 0.01058 0.7488 0.44526 0.0
N272 N 0.05474 0.73513 0.49086 0.0
C273 C 0.01104 0.70157 0.50584 0.0
C274 C 0.05493 0.75877 0.46101 0.0
C275 C 0.96585 0.71452 0.46034 0.0
C276 C 0.27013 0.83431 0.57104 0.0
N277 N 0.23351 0.80202 0.59261 0.0
C278 C 0.30318 0.88243 0.58184 0.0
C279 C 0.29861 0.89736 0.61501 0.0
C280 C 0.26127 0.86414 0.63691 0.0
C281 C 0.22884 0.81636 0.62518 0.0
C282 C 0.24676 0.69772 0.66004 0.0
C283 C 0.15364 0.6721 0.63542 0.0
C284 C 0.24088 0.71967 0.63024 0.0
N285 N 0.19473 0.70687 0.61837 0.0
C286 C 0.1581 0.64938 0.66531 0.0
C287 C 0.20502 0.66235 0.67765 0.0
C288 C 0.10117 0.65077 0.5403 0.0
C289 C 0.20678 0.76788 0.42669 0.0
C290 C 0.11354 0.69828 0.44964 0.0
C291 C 0.13154 0.69036 0.41858 0.0
C292 C 0.17852 0.72543 0.4071 0.0
N293 N 0.14148 0.74002 0.46869 0.0
C294 C 0.18754 0.7746 0.45759 0.0
Co295 Co 0.46484 0.17558 0.89806 0.0
Co296 Co 0.37389 0.11424 0.8366 0.0
O297 O 0.42271 0.17429 0.86039 0.0
C298 C 0.53556 0.24104 0.84531 0.0
O299 O 0.50936 0.20696 0.82232 0.0
C300 C 0.31779 0.1621 0.86099 0.0
O301 O 0.33637 0.16358 0.89176 0.0
O302 O 0.34515 0.08082 0.88153 0.0
O303 O 0.40773 0.11648 0.92 0.0
H304 H 0.27465 0.93163 0.81383 0.0
H305 H 0.45802 0.2646 0.88107 0.0
O306 O 0.52238 0.23487 0.87696 0.0
H307 H 0.41052 0.22973 0.00409 0.0
H308 H 0.61201 0.25801 0.97687 0.0
H309 H 0.47687 0.09886 0.9343 0.0
H310 H 0.43493 0.17752 0.97104 0.0
H311 H 0.54647 0.25532 0.93954 0.0
O312 O 0.32796 0.1423 0.8357 0.0
H313 H 0.33756 0.00678 0.84348 0.0
H314 H 0.30363 0.09595 0.77878 0.0
H315 H 0.5411 0.09981 0.97202 0.0
H316 H 0.43417 0.31802 0.91314 0.0
H317 H 0.61095 0.17992 0.99154 0.0
H318 H 0.41005 0.30057 0.97509 0.0
O319 O 0.48324 0.13277 0.87167 0.0
H320 H 0.44045 0.25509 0.75176 0.0
H321 H 0.40661 0.08509 0.77258 0.0
H322 H 0.44472 0.12639 0.7174 0.0
H323 H 0.46183 0.21199 0.7067 0.0
H324 H 0.40281 0.21262 0.80669 0.0
H325 H 0.24012 0.02175 0.74853 0.0
H326 H 0.22541 0.93886 0.76595 0.0
O327 O 0.41905 0.08516 0.83706 0.0
C328 C 0.36352 0.08431 0.91165 0.0
C329 C 0.28078 0.96754 0.80595 0.0
C330 C 0.26135 0.01812 0.76933 0.0
N331 N 0.32441 0.05569 0.81278 0.0
C332 C 0.31642 0.01023 0.82261 0.0
C333 C 0.29727 0.05999 0.78661 0.0
C334 C 0.25314 0.97162 0.77911 0.0
C335 C 0.4478 0.25699 0.90807 0.0
N336 N 0.44769 0.21796 0.92418 0.0
C337 C 0.43424 0.28727 0.92607 0.0
C338 C 0.42067 0.27744 0.96082 0.0
C339 C 0.42089 0.23767 0.97711 0.0
C340 C 0.43459 0.20816 0.95826 0.0
C341 C 0.58214 0.22289 0.96795 0.0
C342 C 0.50574 0.13375 0.94427 0.0
C343 C 0.54483 0.22113 0.94696 0.0
N344 N 0.50803 0.17699 0.93465 0.0
C345 C 0.54229 0.13407 0.9653 0.0
C346 C 0.5813 0.17907 0.97648 0.0
C347 C 0.46113 0.09738 0.85036 0.0
C348 C 0.43304 0.21774 0.75608 0.0
C349 C 0.41405 0.12239 0.76816 0.0
C350 C 0.43554 0.14554 0.73683 0.0
C351 C 0.4451 0.19356 0.73083 0.0
N352 N 0.40229 0.14633 0.79278 0.0
C353 C 0.41152 0.1934 0.78707 0.0
Co354 Co 0.56851 0.73645 0.43358 0.0
Co355 Co 0.65871 0.75689 0.49367 0.0
O356 O 0.60694 0.76808 0.47498 0.0
C357 C 0.49366 0.71366 0.48786 0.0
O358 O 0.52024 0.70236 0.50827 0.0
C359 C 0.70764 0.86511 0.48324 0.0
O360 O 0.69124 0.85542 0.45128 0.0
O361 O 0.69083 0.76713 0.44742 0.0
O362 O 0.62857 0.74444 0.40933 0.0
H363 H 0.77012 0.68336 0.49747 0.0
H364 H 0.56578 0.82159 0.46524 0.0
O365 O 0.50767 0.72801 0.45696 0.0
H366 H 0.62456 0.87326 0.34567 0.0
H367 H 0.43663 0.70015 0.34459 0.0
H368 H 0.56462 0.6622 0.38384 0.0
H369 H 0.6028 0.79002 0.36629 0.0
H370 H 0.48787 0.74192 0.39578 0.0
O371 O 0.69918 0.82975 0.50385 0.0
H372 H 0.70388 0.69617 0.4738 0.0
H373 H 0.72557 0.79719 0.5547 0.0
H374 H 0.51452 0.6199 0.33232 0.0
H375 H 0.58676 0.90506 0.44567 0.0
H376 H 0.44998 0.63881 0.31242 0.0
H377 H 0.6166 0.93144 0.38552 0.0
O378 O 0.55349 0.67019 0.45064 0.0
H379 H 0.57976 0.79704 0.59265 0.0
H380 H 0.62879 0.67944 0.54813 0.0
H381 H 0.58754 0.66431 0.60498 0.0
H382 H 0.56283 0.72343 0.62761 0.0
H383 H 0.62069 0.81053 0.53581 0.0
H384 H 0.79231 0.78575 0.57916 0.0
H385 H 0.81486 0.72836 0.55054 0.0
O386 O 0.61874 0.684 0.48361 0.0
C387 C 0.67342 0.75789 0.4167 0.0
C388 C 0.76058 0.70839 0.51022 0.0
C389 C 0.77307 0.76591 0.55603 0.0
N390 N 0.71075 0.74722 0.51291 0.0
C391 C 0.72302 0.7157 0.49697 0.0
C392 C 0.73535 0.77234 0.54201 0.0
C393 C 0.78569 0.73368 0.53998 0.0
C394 C 0.57837 0.83268 0.43895 0.0
N395 N 0.58313 0.801 0.41692 0.0
C396 C 0.59034 0.88004 0.42805 0.0
C397 C 0.60714 0.89483 0.39431 0.0
C398 C 0.61167 0.86223 0.37195 0.0
C399 C 0.59947 0.8152 0.38379 0.0
C400 C 0.46475 0.69172 0.35296 0.0
C401 C 0.53687 0.67091 0.37515 0.0
C402 C 0.4938 0.71517 0.38196 0.0
N403 N 0.52946 0.70478 0.39262 0.0
C404 C 0.50851 0.64673 0.34604 0.0
C405 C 0.47226 0.6573 0.33491 0.0
C406 C 0.57812 0.65512 0.46816 0.0
C407 C 0.5905 0.77111 0.58311 0.0
C408 C 0.618 0.70525 0.55775 0.0
C409 C 0.59476 0.69655 0.58999 0.0
C410 C 0.58093 0.72975 0.60269 0.0
N411 N 0.62736 0.74596 0.53874 0.0
C412 C 0.61389 0.77866 0.55101 0.0
Co413 Co 0.85297 0.56733 0.76941 0.0
Co414 Co 0.91593 0.65336 0.83348 0.0
O415 O 0.85526 0.60408 0.81082 0.0
C416 C 0.79301 0.49006 0.82034 0.0
O417 O 0.82884 0.5142 0.84268 0.0
C418 C 0.86128 0.70694 0.8197 0.0
O419 O 0.85847 0.6933 0.78723 0.0
O420 O 0.94426 0.68794 0.78869 0.0
O421 O 0.90872 0.62796 0.74844 0.0
H422 H 0.09962 0.75969 0.84949 0.0
H423 H 0.76284 0.5664 0.79505 0.0
O424 O 0.79676 0.50615 0.78957 0.0
H425 H 0.78656 0.63058 0.67568 0.0
H426 H 0.76765 0.44083 0.67541 0.0
H427 H 0.9284 0.56389 0.72454 0.0
H428 H 0.84359 0.60557 0.70072 0.0
H429 H 0.77144 0.48995 0.72661 0.0
O430 O 0.88401 0.69496 0.84172 0.0
H431 H 0.02359 0.69681 0.82068 0.0
H432 H 0.93557 0.71638 0.89603 0.0
H433 H 0.92631 0.51599 0.67306 0.0
H434 H 0.70463 0.59057 0.77099 0.0
H435 H 0.84549 0.45397 0.64816 0.0
H436 H 0.71644 0.62311 0.71093 0.0
O437 O 0.90064 0.54941 0.78992 0.0
H438 H 0.78391 0.57058 0.92418 0.0
H439 H 0.95461 0.618 0.89075 0.0
H440 H 0.92031 0.57313 0.94554 0.0
H441 H 0.8344 0.54918 0.96258 0.0
H442 H 0.81951 0.61511 0.8695 0.0
H443 H 0.01061 0.7797 0.9256 0.0
H444 H 0.0934 0.80161 0.90239 0.0
O445 O 0.94855 0.61247 0.82554 0.0
C446 C 0.93957 0.67209 0.75764 0.0
C447 C 0.06377 0.75043 0.85988 0.0
C448 C 0.01382 0.76171 0.90257 0.0
N449 N 0.97522 0.70287 0.85665 0.0
C450 C 0.0206 0.71481 0.84368 0.0
C451 C 0.97145 0.72594 0.88564 0.0
C452 C 0.06025 0.77397 0.88954 0.0
C453 C 0.76802 0.58023 0.76882 0.0
N454 N 0.80663 0.58471 0.74932 0.0
C455 C 0.73502 0.59398 0.75536 0.0
C456 C 0.74171 0.61229 0.72168 0.0
C457 C 0.78106 0.61654 0.7019 0.0
C458 C 0.81336 0.60251 0.71624 0.0
C459 C 0.80309 0.46791 0.68594 0.0
C460 C 0.8931 0.53726 0.71367 0.0
C461 C 0.80547 0.49573 0.71499 0.0
N462 N 0.85011 0.53002 0.72839 0.0
C463 C 0.89214 0.51013 0.68459 0.0
C464 C 0.84679 0.47529 0.67066 0.0
C465 C 0.93808 0.57244 0.8097 0.0
C466 C 0.82145 0.58096 0.91709 0.0
C467 C 0.91715 0.6076 0.89795 0.0
C468 C 0.89797 0.58229 0.92904 0.0
C469 C 0.84977 0.56889 0.9386 0.0
N470 N 0.88918 0.61939 0.87703 0.0
C471 C 0.84189 0.60638 0.88623 0.0
Co472 Co 0.26667 0.82109 0.08986 0.0
Co473 Co 0.25631 0.89293 0.15397 0.0
O474 O 0.23713 0.82956 0.13195 0.0
C475 C 0.28195 0.76154 0.14186 0.0
O476 O 0.29542 0.79915 0.16288 0.0
C477 C 0.14824 0.84703 0.14181 0.0
O478 O 0.15661 0.83978 0.1096 0.0
O479 O 0.25426 0.92334 0.10881 0.0
O480 O 0.26655 0.87885 0.0681 0.0
H481 H 0.3545 0.0774 0.16799 0.0
H482 H 0.17616 0.73651 0.11901 0.0
O483 O 0.26813 0.76332 0.11112 0.0
H484 H 0.13002 0.76103 0.00156 0.0
H485 H 0.28685 0.7217 0.995 0.0
H486 H 0.3453 0.88896 0.04153 0.0
H487 H 0.21498 0.81358 0.02322 0.0
H488 H 0.25098 0.73359 0.04867 0.0
O489 O 0.1844 0.86996 0.16262 0.0
H490 H 0.3309 0.99762 0.14003 0.0
H491 H 0.21998 0.92197 0.21617 0.0
H492 H 0.38192 0.87878 0.98763 0.0
H493 H 0.09081 0.68284 0.09834 0.0
H494 H 0.35228 0.7947 0.96385 0.0
H495 H 0.06725 0.69509 0.03927 0.0
O496 O 0.3347 0.86536 0.10773 0.0
H497 H 0.19341 0.76103 0.24568 0.0
H498 H 0.33015 0.92448 0.21113 0.0
H499 H 0.33562 0.88733 0.26615 0.0
H500 H 0.26689 0.80504 0.28375 0.0
H501 H 0.18961 0.79929 0.19076 0.0
H502 H 0.24213 1.00097 0.24484 0.0
H503 H 0.30995 0.07941 0.2208 0.0
O504 O 0.32819 0.91613 0.1461 0.0
C505 C 0.26123 0.91514 0.07744 0.0
C506 C 0.3249 0.04348 0.17873 0.0
C507 C 0.26179 1.00058 0.22183 0.0
N508 N 0.27414 0.95519 0.17645 0.0
C509 C 0.31141 0.99818 0.16302 0.0
C510 C 0.24929 0.95598 0.20541 0.0
C511 C 0.29987 0.04458 0.20834 0.0
C512 C 0.16627 0.74175 0.09316 0.0
N513 N 0.20051 0.77806 0.07231 0.0
C514 C 0.11786 0.71138 0.08165 0.0
C515 C 0.10464 0.71832 0.04851 0.0
C516 C 0.13983 0.75533 0.02736 0.0
C517 C 0.18785 0.78507 0.03978 0.0
C518 C 0.29982 0.75855 0.00499 0.0
C519 C 0.3322 0.85226 0.03131 0.0
C520 C 0.27978 0.76549 0.03543 0.0
N521 N 0.29568 0.81195 0.048 0.0
C522 C 0.35312 0.84672 0.00082 0.0
C523 C 0.33653 0.79953 0.98752 0.0
C524 C 0.35367 0.90186 0.12866 0.0
C525 C 0.22351 0.79698 0.23836 0.0
C526 C 0.3001 0.88864 0.21859 0.0
C527 C 0.30338 0.86782 0.2498 0.0
C528 C 0.26479 0.82166 0.25967 0.0
N529 N 0.25946 0.86424 0.19783 0.0
C530 C 0.22147 0.81896 0.20735 0.0
Co531 Co 0.44079 0.28122 0.41677 0.0
Co532 Co 0.35998 0.25692 0.48499 0.0
O533 O 0.40814 0.24647 0.45931 0.0
C534 C 0.52293 0.30103 0.46358 0.0
O535 O 0.49963 0.31159 0.48745 0.0
C536 C 0.30766 0.14773 0.4742 0.0
O537 O 0.31746 0.15592 0.44098 0.0
O538 O 0.3206 0.24799 0.4421 0.0
O539 O 0.37754 0.27454 0.39934 0.0
H540 H 0.2509 0.33014 0.50784 0.0
H541 H 0.44682 0.19366 0.43961 0.0
O542 O 0.5045 0.28802 0.43344 0.0
H543 H 0.37252 0.15204 0.32306 0.0
H544 H 0.56067 0.32619 0.31748 0.0
H545 H 0.43788 0.35874 0.37415 0.0
H546 H 0.39723 0.23325 0.34915 0.0
H547 H 0.51568 0.27929 0.36946 0.0
O548 O 0.32117 0.18396 0.495 0.0
H549 H 0.3124 0.31821 0.47549 0.0
H550 H 0.30392 0.21479 0.5505 0.0
H551 H 0.48166 0.40614 0.322 0.0
H552 H 0.42304 0.11212 0.41443 0.0
H553 H 0.54373 0.39014 0.29343 0.0
H554 H 0.38545 0.09084 0.35579 0.0
O555 O 0.45905 0.34632 0.43799 0.0
H556 H 0.45572 0.21485 0.56981 0.0
H557 H 0.39898 0.33262 0.54113 0.0
H558 H 0.45018 0.34656 0.59314 0.0
H559 H 0.47888 0.28739 0.60778 0.0
H560 H 0.40481 0.20252 0.51791 0.0
H561 H 0.24211 0.22535 0.58362 0.0
H562 H 0.2153 0.28348 0.56236 0.0
O563 O 0.39798 0.33003 0.47588 0.0
C564 C 0.33376 0.2594 0.41054 0.0
C565 C 0.26227 0.30469 0.51738 0.0
C566 C 0.2573 0.24584 0.55988 0.0
N567 N 0.3117 0.26583 0.51102 0.0
C568 C 0.2971 0.29781 0.49915 0.0
C569 C 0.29219 0.23989 0.54094 0.0
C570 C 0.2423 0.27849 0.54795 0.0
C571 C 0.43074 0.18473 0.414 0.0
N572 N 0.42332 0.21809 0.39588 0.0
C573 C 0.41725 0.13849 0.39991 0.0
C574 C 0.39611 0.12654 0.36702 0.0
C575 C 0.3888 0.16084 0.34865 0.0
C576 C 0.40269 0.20669 0.36359 0.0
C577 C 0.53362 0.33342 0.32966 0.0
C578 C 0.46441 0.35115 0.3616 0.0
C579 C 0.50809 0.30703 0.35913 0.0
N580 N 0.47394 0.31603 0.37468 0.0
C581 C 0.48922 0.37824 0.33217 0.0
C582 C 0.52407 0.36927 0.31616 0.0
C583 C 0.43668 0.36005 0.45902 0.0
C584 C 0.44329 0.24079 0.56378 0.0
C585 C 0.41138 0.30675 0.54729 0.0
C586 C 0.44029 0.31478 0.57682 0.0
C587 C 0.45635 0.28155 0.58503 0.0
N588 N 0.3987 0.26666 0.52658 0.0
C589 C 0.41426 0.23388 0.5345 0.0
Co590 Co 0.17377 0.4379 0.75878 0.0
Co591 Co 0.11615 0.34885 0.8221 0.0
O592 O 0.1747 0.39952 0.7982 0.0
C593 C 0.23522 0.51203 0.81062 0.0
O594 O 0.20042 0.48592 0.83325 0.0
C595 C 0.1699 0.29791 0.79975 0.0
O596 O 0.17016 0.31527 0.76874 0.0
O597 O 0.08381 0.31684 0.77752 0.0
O598 O 0.11749 0.37793 0.73788 0.0
H599 H 0.93425 0.24083 0.84503 0.0
H600 H 0.26645 0.43991 0.77919 0.0
O601 O 0.23033 0.49837 0.77913 0.0
H602 H 0.23616 0.38148 0.65823 0.0
H603 H 0.25182 0.56985 0.66722 0.0
H604 H 0.09495 0.44184 0.71838 0.0
H605 H 0.17961 0.4035 0.68781 0.0
H606 H 0.25197 0.51852 0.71581 0.0
O607 O 0.14872 0.30693 0.82475 0.0
H608 H 0.00758 0.30558 0.81467 0.0
H609 H 0.10213 0.28242 0.88162 0.0
H610 H 0.09311 0.49192 0.66954 0.0
H611 H 0.32424 0.41873 0.75055 0.0
H612 H 0.17196 0.55646 0.64365 0.0
H613 H 0.30913 0.38907 0.68967 0.0
O614 O 0.12655 0.45339 0.78278 0.0
H615 H 0.25616 0.42685 0.90741 0.0
H616 H 0.08286 0.38083 0.8844 0.0
H617 H 0.12217 0.42286 0.9391 0.0
H618 H 0.20942 0.44611 0.9509 0.0
H619 H 0.21556 0.38513 0.85295 0.0
H620 H 0.02984 0.21717 0.91262 0.0
H621 H 0.94516 0.19612 0.89442 0.0
O622 O 0.08294 0.39005 0.8194 0.0
C623 C 0.08678 0.3337 0.74694 0.0
C624 C 0.97095 0.24972 0.85325 0.0
C625 C 0.0246 0.2364 0.89116 0.0
N626 N 0.05904 0.2979 0.84643 0.0
C627 C 0.0126 0.28642 0.83619 0.0
C628 C 0.06538 0.27328 0.87344 0.0
C629 C 0.9771 0.22462 0.88094 0.0
C630 C 0.25984 0.42738 0.75261 0.0
N631 N 0.21966 0.42286 0.73518 0.0
C632 C 0.2926 0.4153 0.73657 0.0
C633 C 0.28407 0.3986 0.70242 0.0
C634 C 0.24311 0.39428 0.68478 0.0
C635 C 0.21111 0.40662 0.70168 0.0
C636 C 0.21722 0.5417 0.6782 0.0
C637 C 0.12941 0.46956 0.70704 0.0
C638 C 0.21707 0.51261 0.70577 0.0
N639 N 0.1735 0.47696 0.71974 0.0
C640 C 0.12814 0.49792 0.67948 0.0
C641 C 0.1724 0.53418 0.66499 0.0
C642 C 0.09136 0.43001 0.8043 0.0
C643 C 0.21806 0.41675 0.90262 0.0
C644 C 0.12086 0.3909 0.88933 0.0
C645 C 0.1429 0.41461 0.92037 0.0
C646 C 0.19185 0.42762 0.92698 0.0
N647 N 0.1468 0.38029 0.86559 0.0
C648 C 0.1948 0.39291 0.8719 0.0
Co649 Co 0.71729 0.17707 0.11286 0.0
Co650 Co 0.74302 0.09362 0.14976 0.0
O651 O 0.75939 0.16218 0.14186 0.0
C652 C 0.72579 0.24034 0.17347 0.0
O653 O 0.71047 0.20238 0.19447 0.0
C654 C 0.85021 0.14673 0.13317 0.0
O655 O 0.83978 0.16581 0.10637 0.0
O656 O 0.74398 0.08348 0.09887 0.0
O657 O 0.69997 0.11891 0.08229 0.0
H658 H 0.65309 0.91072 0.1273 0.0
H659 H 0.82065 0.25536 0.12559 0.0
O660 O 0.73338 0.2362 0.1416 0.0
H661 H 0.80604 0.23545 0.99869 0.0
H662 H 0.66741 0.29078 0.05644 0.0
H663 H 0.61544 0.11766 0.085 0.0
H664 H 0.73431 0.1853 0.03642 0.0
H665 H 0.72666 0.2689 0.08159 0.0
O666 O 0.8156 0.1163 0.15288 0.0
H667 H 0.67201 0.99672 0.11887 0.0
H668 H 0.78342 0.04581 0.19618 0.0
H669 H 0.55484 0.13793 0.06024 0.0
H670 H 0.89325 0.30664 0.08881 0.0
H671 H 0.58026 0.2253 0.04701 0.0
H672 H 0.8862 0.29671 0.02487 0.0
O673 O 0.66029 0.1353 0.14324 0.0
H674 H 0.80734 0.18725 0.26118 0.0
H675 H 0.67311 0.03721 0.20702 0.0
H676 H 0.66987 0.05087 0.26965 0.0
H677 H 0.73738 0.1263 0.29715 0.0
H678 H 0.80894 0.17228 0.19857 0.0
H679 H 0.76596 0.96034 0.20526 0.0
H680 H 0.70027 0.89206 0.17075 0.0
O681 O 0.6695 0.0688 0.14726 0.0
C682 C 0.71785 0.09056 0.07667 0.0
C683 C 0.68169 0.94012 0.14258 0.0
C684 C 0.74509 0.96798 0.1863 0.0
N685 N 0.72848 0.0262 0.15722 0.0
C686 C 0.69247 0.98889 0.13799 0.0
C687 C 0.75488 0.01632 0.18099 0.0
C688 C 0.70821 0.92969 0.16694 0.0
C689 C 0.81724 0.25117 0.09777 0.0
N690 N 0.77335 0.21746 0.08317 0.0
C691 C 0.85849 0.28016 0.07709 0.0
C692 C 0.85453 0.27451 0.04122 0.0
C693 C 0.80958 0.24011 0.02651 0.0
C694 C 0.76914 0.2117 0.04801 0.0
C695 C 0.65569 0.25268 0.06264 0.0
C696 C 0.62711 0.15561 0.07861 0.0
C697 C 0.68914 0.24003 0.07674 0.0
N698 N 0.67435 0.19217 0.08537 0.0
C699 C 0.59251 0.16691 0.06481 0.0
C700 C 0.60682 0.21593 0.05735 0.0
C701 C 0.64294 0.08945 0.14902 0.0
C702 C 0.77778 0.15417 0.24952 0.0
C703 C 0.70258 0.07018 0.21877 0.0
C704 C 0.70058 0.07767 0.25426 0.0
C705 C 0.73849 0.11999 0.26968 0.0
N706 N 0.74135 0.10379 0.1992 0.0
C707 C 0.77856 0.14542 0.2141 0.0
H708 H 0.2855 0.69174 0.10188 0.0
H709 H 0.28362 0.73334 0.20829 0.0
H710 H 0.28771 0.66111 0.22807 0.0
H711 H 0.29134 0.58623 0.21523 0.0
H712 H 0.29599 0.54553 0.109 0.0
H713 H 0.29171 0.61774 0.08901 0.0
C714 C 0.28579 0.68485 0.12939 0.0
C715 C 0.284 0.71762 0.15361 0.0
C716 C 0.28891 0.64368 0.14058 0.0
C717 C 0.28505 0.70865 0.18916 0.0
C718 C 0.28735 0.66738 0.20049 0.0
C719 C 0.29148 0.59315 0.18768 0.0
C720 C 0.29382 0.56053 0.16363 0.0
C721 C 0.28929 0.6347 0.17644 0.0
C722 C 0.29443 0.57023 0.12804 0.0
C723 C 0.29176 0.61136 0.1166 0.0
H724 H 0.72636 0.30422 0.47285 0.0
H725 H 0.69207 0.29374 0.58194 0.0
H726 H 0.61649 0.29594 0.56923 0.0
H727 H 0.55934 0.29938 0.52709 0.0
H728 H 0.59192 0.30625 0.41787 0.0
H729 H 0.66899 0.30708 0.43071 0.0
C730 C 0.70247 0.30268 0.49384 0.0
C731 C 0.71483 0.29895 0.52825 0.0
C732 C 0.65873 0.30327 0.48635 0.0
C733 C 0.68327 0.29646 0.55518 0.0
C734 C 0.64009 0.29781 0.54797 0.0
C735 C 0.5835 0.3014 0.50614 0.0
C736 C 0.57007 0.3029 0.47163 0.0
C737 C 0.62736 0.30104 0.51365 0.0
C738 C 0.60141 0.30492 0.44469 0.0
C739 C 0.6455 0.30544 0.45198 0.0
H740 H 0.42183 0.68951 0.87996 0.0
H741 H 0.46102 0.72865 0.77269 0.0
H742 H 0.38469 0.65518 0.75456 0.0
H743 H 0.30678 0.58068 0.76929 0.0
H744 H 0.26669 0.54299 0.87665 0.0
H745 H 0.34368 0.61557 0.89468 0.0
C746 C 0.4139 0.68184 0.85259 0.0
C747 C 0.44711 0.71432 0.82767 0.0
C748 C 0.36976 0.64009 0.84242 0.0
C749 C 0.436 0.70418 0.79235 0.0
C750 C 0.3924 0.66224 0.78198 0.0
C751 C 0.31485 0.58828 0.79665 0.0
C752 C 0.28108 0.5565 0.82161 0.0
C753 C 0.35897 0.6301 0.80681 0.0
C754 C 0.29196 0.56702 0.85693 0.0
C755 C 0.33603 0.60839 0.86726 0.0
H756 H 0.71111 0.41852 0.23886 0.0
H757 H 0.72086 0.45718 0.13057 0.0
H758 H 0.73017 0.38642 0.11527 0.0
H759 H 0.73465 0.31417 0.13226 0.0
H760 H 0.71859 0.2698 0.23953 0.0
H761 H 0.71374 0.34334 0.25585 0.0
C762 C 0.7153 0.41139 0.21192 0.0
C763 C 0.71528 0.44298 0.18583 0.0
C764 C 0.71992 0.37014 0.20324 0.0
C765 C 0.72038 0.43322 0.15106 0.0
C766 C 0.72598 0.39296 0.14231 0.0
C767 C 0.73022 0.32028 0.15928 0.0
C768 C 0.72699 0.28635 0.18462 0.0
C769 C 0.72573 0.36127 0.16817 0.0
C770 C 0.72127 0.29534 0.2195 0.0
C771 C 0.71829 0.33723 0.22879 0.0
H772 H 0.41949 0.70983 0.44931 0.0
H773 H 0.46535 0.71223 0.55508 0.0
H774 H 0.39135 0.71269 0.57581 0.0
H775 H 0.31478 0.71448 0.56366 0.0
H776 H 0.26811 0.70937 0.45774 0.0
H777 H 0.34153 0.70792 0.43724 0.0
C778 C 0.4133 0.71042 0.47692 0.0
C779 C 0.44793 0.71131 0.50065 0.0
C780 C 0.37068 0.71031 0.48858 0.0
C781 C 0.43913 0.71142 0.53632 0.0
C782 C 0.39696 0.71187 0.54817 0.0
C783 C 0.32073 0.71308 0.53609 0.0
C784 C 0.28629 0.71234 0.51222 0.0
C785 C 0.3627 0.71169 0.5245 0.0
C786 C 0.29408 0.7099 0.47661 0.0
C787 C 0.33606 0.70917 0.46487 0.0
H788 H 0.6081 0.30702 0.8874 0.0
H789 H 0.56615 0.27608 0.77982 0.0
H790 H 0.64231 0.35046 0.76272 0.0
H791 H 0.72044 0.42406 0.77833 0.0
H792 H 0.76334 0.45403 0.88581 0.0
H793 H 0.68698 0.37987 0.90295 0.0
C794 C 0.61548 0.31661 0.8602 0.0
C795 C 0.5814 0.28616 0.83491 0.0
C796 C 0.65949 0.35908 0.85056 0.0
C797 C 0.5918 0.29885 0.79978 0.0
C798 C 0.6353 0.34138 0.78999 0.0
C799 C 0.71313 0.41444 0.80553 0.0
C800 C 0.7475 0.44459 0.83077 0.0
C801 C 0.66937 0.37171 0.81516 0.0
C802 C 0.73759 0.43137 0.86586 0.0
C803 C 0.69388 0.38907 0.87568 0.0
H804 H 0.57221 0.47252 0.19895 0.0
H805 H 0.59996 0.62202 0.19015 0.0
H806 H 0.51125 0.5919 0.18702 0.0
H807 H 0.42544 0.52325 0.18883 0.0
H808 H 0.39703 0.37327 0.19298 0.0
H809 H 0.48603 0.40315 0.19562 0.0
C810 C 0.55871 0.49838 0.1962 0.0
C811 C 0.59259 0.54945 0.195 0.0
C812 C 0.50751 0.48069 0.19357 0.0
C813 C 0.5747 0.58256 0.19099 0.0
C814 C 0.52393 0.56537 0.18933 0.0
C815 C 0.43883 0.49715 0.19008 0.0
C816 C 0.4048 0.44618 0.19094 0.0
C817 C 0.48999 0.51457 0.19087 0.0
C818 C 0.42255 0.41269 0.19214 0.0
C819 C 0.47341 0.42978 0.19383 0.0
H820 H 1.00087 0.59508 0.5391 0.0
H821 H 0.13363 0.58464 0.53679 0.0
H822 H 0.08413 0.49442 0.53447 0.0
H823 H 1.00287 0.41817 0.53506 0.0
H824 H 0.87041 0.42841 0.54385 0.0
H825 H 0.91964 0.51872 0.5416 0.0
C826 C 0.01882 0.57294 0.53779 0.0
C827 C 0.07075 0.59635 0.53782 0.0
C828 C 0.99009 0.52102 0.53772 0.0
C829 C 0.09367 0.56734 0.5368 0.0
C830 C 0.0654 0.5158 0.53544 0.0
C831 C 0.98488 0.44028 0.53614 0.0
C832 C 0.93314 0.41681 0.53926 0.0
C833 C 0.01357 0.49218 0.53613 0.0
C834 C 0.91024 0.44577 0.54139 0.0
C835 C 0.93835 0.49735 0.54009 0.0
H836 H 0.41805 0.99746 0.84484 0.0
H837 H 0.55896 0.13183 0.84043 0.0
H838 H 0.60162 0.08407 0.83709 0.0
H839 H 0.59942 0.00442 0.84106 0.0
H840 H 0.45884 0.87014 0.85051 0.0
H841 H 0.4157 0.91724 0.84615 0.0
C842 C 0.45798 0.0161 0.84234 0.0
C843 C 0.48533 0.068 0.84264 0.0
C844 C 0.48244 0.98838 0.84183 0.0
C845 C 0.53716 0.09184 0.84016 0.0
C846 C 0.56158 0.06458 0.8384 0.0
C847 C 0.55933 0.98538 0.84166 0.0
C848 C 0.53251 0.93382 0.84623 0.0
C849 C 0.53471 0.01285 0.84009 0.0
C850 C 0.48051 0.90985 0.84728 0.0
C851 C 0.45573 0.93675 0.84475 0.0
H852 H 0.48244 0.581 0.46993 0.0
H853 H 0.63233 0.60842 0.46831 0.0
H854 H 0.60208 0.5196 0.46491 0.0
H855 H 0.53266 0.43389 0.46044 0.0
H856 H 0.38295 0.40635 0.46695 0.0
H857 H 0.41326 0.49514 0.47048 0.0
C858 C 0.50841 0.56742 0.46904 0.0
C859 C 0.55954 0.60122 0.46917 0.0
C860 C 0.49073 0.51623 0.46786 0.0
C861 C 0.59281 0.58316 0.46842 0.0
C862 C 0.57553 0.53237 0.4663 0.0
C863 C 0.50679 0.44745 0.46276 0.0
C864 C 0.45565 0.41369 0.46319 0.0
C865 C 0.52455 0.49856 0.46568 0.0
C866 C 0.42247 0.4316 0.46668 0.0
C867 C 0.43978 0.48238 0.46858 0.0
H868 H 0.91612 0.47644 0.8133 0.0
H869 H 0.03839 0.62588 0.81228 0.0
H870 H 0.09693 0.59528 0.81144 0.0
H871 H 0.11334 0.52581 0.80777 0.0
H872 H 0.99155 0.3764 0.81341 0.0
H873 H 0.93298 0.40697 0.81602 0.0
C874 C 0.95561 0.5022 0.8132 0.0
C875 C 0.97293 0.55333 0.81262 0.0
C876 C 0.98914 0.4843 0.81351 0.0
C877 C 0.02416 0.58638 0.81289 0.0
C878 C 0.05766 0.56889 0.81225 0.0
C879 C 0.07398 0.50004 0.80995 0.0
C880 C 0.05677 0.44892 0.8102 0.0
C881 C 0.04058 0.51794 0.8121 0.0
C882 C 0.00575 0.4159 0.81337 0.0
C883 C 0.97221 0.43337 0.81465 0.0
H884 H 0.41108 0.99267 0.15776 0.0
H885 H 0.41932 0.87241 0.10893 0.0
H886 H 0.50923 0.91796 0.11412 0.0
H887 H 0.58589 0.9936 0.12973 0.0
H888 H 0.57805 0.11603 0.17482 0.0
H889 H 0.48769 0.06777 0.17423 0.0
C890 C 0.43244 0.97622 0.14844 0.0
C891 C 0.40826 0.92913 0.1329 0.0
C892 C 0.48431 0.003 0.15091 0.0
C893 C 0.43679 0.90866 0.12082 0.0
C894 C 0.48829 0.93464 0.12384 0.0
C895 C 0.56441 0.00938 0.14002 0.0
C896 C 0.58865 0.05817 0.1526 0.0
C897 C 0.51249 0.98202 0.13854 0.0
C898 C 0.56025 0.07847 0.16513 0.0
C899 C 0.5086 0.05097 0.16468 0.0
H900 H 0.22969 0.33631 0.31233 0.0
H901 H 0.26745 0.25785 0.23748 0.0
H902 H 0.29131 0.22107 0.28408 0.0
H903 H 0.31509 0.22346 0.34523 0.0
H904 H 0.27529 0.30018 0.42005 0.0
H905 H 0.23741 0.32457 0.37448 0.0
C906 C 0.24204 0.31029 0.30626 0.0
C907 C 0.24819 0.30097 0.27149 0.0
C908 C 0.25564 0.28929 0.33319 0.0
C909 C 0.26306 0.26622 0.26398 0.0
C910 C 0.27695 0.24534 0.29064 0.0
C911 C 0.29695 0.24441 0.35159 0.0
C912 C 0.29868 0.26082 0.38572 0.0
C913 C 0.27554 0.25848 0.32521 0.0
C914 C 0.27442 0.2872 0.39395 0.0
C915 C 0.25317 0.30153 0.36782 0.0
H916 H 0.89985 0.23359 0.65352 0.0
H917 H 0.01116 0.29676 0.57371 0.0
H918 H 0.07598 0.31825 0.61684 0.0
H919 H 0.10076 0.33107 0.67803 0.0
H920 H 0.98953 0.26699 0.75777 0.0
H921 H 0.92467 0.23281 0.71381 0.0
C922 C 0.93823 0.25119 0.64552 0.0
C923 C 0.95086 0.26469 0.6107 0.0
C924 C 0.9752 0.26354 0.67045 0.0
C925 C 1.00057 0.28639 0.60043 0.0
C926 C 0.03766 0.29894 0.62511 0.0
C927 C 0.06239 0.30874 0.6857 0.0
C928 C 0.04975 0.30249 0.721 0.0
C929 C 0.02542 0.28956 0.66032 0.0
C930 C 1.00008 0.27257 0.73074 0.0
C931 C 0.96298 0.25334 0.70561 0.0
H932 H 0.61737 0.96676 0.94284 0.0
H933 H 0.74559 0.94871 0.94279 0.0
H934 H 0.77725 1.00133 0.99471 0.0
H935 H 0.76508 0.04891 0.04191 0.0
H936 H 0.63636 0.06697 0.03865 0.0
H937 H 0.60806 0.01761 0.98636 0.0
C938 C 0.65242 0.97462 0.95415 0.0
C939 C 0.67903 0.95384 0.93955 0.0
C940 C 0.66997 0.00453 0.98352 0.0
C941 C 0.72473 0.96469 0.95379 0.0
C942 C 0.7425 0.99437 0.98351 0.0
C943 C 0.73095 0.042 0.02964 0.0
C944 C 0.70281 0.06142 0.04432 0.0
C945 C 0.71495 0.01387 -0.00104 0.0
C946 C 0.65889 0.05269 0.02794 0.0
C947 C 0.64252 0.02436 0.998 0.0
H948 H 0.66671 0.77371 0.34833 0.0
H949 H 0.75024 0.73952 0.42122 0.0
H950 H 0.78655 0.71675 0.37364 0.0
H951 H 0.78292 0.69311 0.31243 0.0
H952 H 0.70006 0.72797 0.23966 0.0
H953 H 0.67594 0.76516 0.28596 0.0
C954 C 0.69368 0.76234 0.35378 0.0
C955 C 0.70472 0.75702 0.38828 0.0
C956 C 0.71424 0.74917 0.32632 0.0
C957 C 0.74061 0.74334 0.39493 0.0
C958 C 0.76122 0.73007 0.36772 0.0
C959 C 0.76059 0.70996 0.30668 0.0
C960 C 0.74252 0.70719 0.27297 0.0
C961 C 0.74654 0.73074 0.33349 0.0
C962 C 0.71437 0.72979 0.26546 0.0
C963 C 0.70021 0.75061 0.292 0.0
H964 H 0.11853 0.77564 0.65676 0.0
H965 H 1.00042 0.72112 0.58184 0.0
H966 H 0.93975 0.6971 0.62841 0.0
H967 H 0.92014 0.67971 0.69033 0.0
H968 H 0.03815 0.73624 0.76526 0.0
H969 H 0.0992 0.77236 0.71882 0.0
C970 C 0.07961 0.75947 0.65062 0.0
C971 C 0.06389 0.74906 0.61597 0.0
C972 C 0.04497 0.74578 0.67753 0.0
C973 C 0.01346 0.7291 0.6083 0.0
C974 C 0.97869 0.71508 0.63495 0.0
C975 C 0.95917 0.70081 0.69647 0.0
C976 C 0.97474 0.7044 0.73103 0.0
C977 C 0.99396 0.72136 0.66964 0.0
C978 C 0.0253 0.73274 0.73884 0.0
C979 C 0.06024 0.7531 0.71226 0.0
H980 H 0.24531 0.90045 0.00829 0.0
H981 H 0.29906 0.01447 0.0863 0.0
H982 H 0.33358 0.07785 0.0413 0.0
H983 H 0.35733 0.10023 0.98015 0.0
H984 H 0.30052 0.98619 0.90223 0.0
H985 H 0.25816 0.92334 0.9468 0.0
C986 C 0.26368 0.93917 0.01544 0.0
C987 C 0.27034 0.95266 0.05064 0.0
C988 C 0.28353 0.97535 0.98945 0.0
C989 C 0.29356 0.003 0.05945 0.0
C990 C 0.31371 0.03931 0.03371 0.0
C991 C 0.33528 0.06166 0.97299 0.0
C992 C 0.33278 0.04767 0.9381 0.0
C993 C 0.31045 0.02583 0.99872 0.0
C994 C 0.30318 0.99777 0.92895 0.0
C995 C 0.27906 0.96183 0.95443 0.0
H996 H 0.93391 0.22444 0.1066 0.0
H997 H 0.88379 0.10404 0.17951 0.0
H998 H 0.96921 0.13085 0.1955 0.0
H999 H 0.05835 0.18964 0.18988 0.0
H1000 H 0.10812 0.31154 0.11828 0.0
H1001 H 0.02295 0.28296 0.10081 0.0
C1002 C 0.94166 0.20384 0.12581 0.0
C1003 C 0.90237 0.16219 0.14172 0.0
C1004 C 0.99096 0.21985 0.13529 0.0
C1005 C 0.91321 0.13627 0.16683 0.0
C1006 C 0.96212 0.15157 0.17603 0.0
C1007 C 0.05062 0.20984 0.17034 0.0
C1008 C 0.08976 0.25272 0.15549 0.0
C1009 C 1.00132 0.19349 0.1606 0.0
C1010 C 0.07886 0.27854 0.13032 0.0
C1011 C 0.03007 0.26219 0.12023 0.0
H1012 H 0.80619 0.07128 0.56052 0.0
H1013 H 0.81878 0.12349 0.45543 0.0
H1014 H 0.78033 0.0387 0.43406 0.0
H1015 H 0.74174 0.94947 0.44515 0.0
H1016 H 0.7313 0.89735 0.55008 0.0
H1017 H 0.77038 0.9822 0.57143 0.0
C1018 C 0.80063 0.06416 0.53293 0.0
C1019 C 0.8153 0.10383 0.50967 0.0
C1020 C 0.77885 0.01523 0.52073 0.0
C1021 C 0.80801 0.0938 0.47397 0.0
C1022 C 0.78591 0.04524 0.46169 0.0
C1023 C 0.74816 0.95663 0.47269 0.0
C1024 C 0.73347 0.91693 0.49593 0.0
C1025 C 0.771 0.00563 0.48483 0.0
C1026 C 0.74231 0.92707 0.53154 0.0
C1027 C 0.76457 0.97565 0.54382 0.0
H1028 H 0.82399 0.75256 0.77942 0.0
H1029 H 0.84165 0.72267 0.88603 0.0
H1030 H 0.7974 0.76468 0.90519 0.0
H1031 H 0.75188 0.80835 0.89173 0.0
H1032 H 0.73656 0.84049 0.78518 0.0
H1033 H 0.78175 0.79947 0.76611 0.0
C1034 C 0.8183 0.75534 0.80686 0.0
C1035 C 0.83606 0.73429 0.83119 0.0
C1036 C 0.79318 0.78003 0.81778 0.0
C1037 C 0.82855 0.73858 0.86667 0.0
C1038 C 0.80311 0.76254 0.87769 0.0
C1039 C 0.75863 0.80662 0.86434 0.0
C1040 C 0.74069 0.82749 0.83998 0.0
C1041 C 0.78503 0.78321 0.85348 0.0
C1042 C 0.75001 0.82497 0.80458 0.0
C1043 C 0.77577 0.80134 0.7936 0.0
H1044 H 0.94394 0.75287 0.22191 0.0
H1045 H 0.88815 0.71235 0.11769 0.0
H1046 H 0.97241 0.75391 0.0951 0.0
H1047 H 0.06229 0.80049 0.1048 0.0
H1048 H 0.11813 0.84283 0.20886 0.0
H1049 H 0.03384 0.8022 0.2314 0.0
C1050 C 0.95019 0.7532 0.19425 0.0
C1051 C 0.9096 0.72935 0.17162 0.0
C1052 C 0.99891 0.77763 0.18129 0.0
C1053 C 0.91854 0.73045 0.1358 0.0
C1054 C 0.96682 0.75418 0.12279 0.0
C1055 C 0.05607 0.80113 0.13239 0.0
C1056 C 0.0967 0.8248 0.15501 0.0
C1057 C 0.00733 0.77777 0.14527 0.0
C1058 C 0.08773 0.82514 0.19072 0.0
C1059 C 0.03943 0.80173 0.20372 0.0
H1060 H 0.21404 0.94567 0.55677 0.0
H1061 H 0.17551 0.88675 0.45317 0.0
H1062 H 0.21489 0.97041 0.42952 0.0
H1063 H 0.2613 0.06074 0.43807 0.0
H1064 H 0.2976 0.11922 0.54192 0.0
H1065 H 0.25819 0.03564 0.56542 0.0
C1066 C 0.21409 0.95106 0.52902 0.0
C1067 C 0.19175 0.90978 0.50686 0.0
C1068 C 0.23655 0.99939 0.51552 0.0
C1069 C 0.19218 0.91769 0.47094 0.0
C1070 C 0.21485 0.96562 0.45733 0.0
C1071 C 0.26053 0.05522 0.46584 0.0
C1072 C 0.28251 0.09643 0.4881 0.0
C1073 C 0.2373 0.00681 0.47935 0.0
C1074 C 0.28091 0.08838 0.52408 0.0
C1075 C 0.25841 0.04048 0.53761 0.0
H1076 H 0.19284 0.2717 0.86164 0.0
H1077 H 0.2063 0.26098 0.75111 0.0
H1078 H 0.25139 0.21662 0.76022 0.0
H1079 H 0.28883 0.18239 0.79941 0.0
H1080 H 0.27843 0.19588 0.90995 0.0
H1081 H 0.2304 0.23736 0.90094 0.0
C1082 C 0.20535 0.25938 0.83954 0.0
C1083 C 0.19594 0.26958 0.80573 0.0
C1084 C 0.23198 0.23439 0.84493 0.0
C1085 C 0.21292 0.25371 0.77742 0.0
C1086 C 0.23877 0.22828 0.78259 0.0
C1087 C 0.27579 0.19408 0.82156 0.0
C1088 C 0.28713 0.18576 0.85532 0.0
C1089 C 0.24874 0.21861 0.81621 0.0
C1090 C 0.27029 0.2017 0.88367 0.0
C1091 C 0.24278 0.22548 0.87855 0.0
loop_
_geom_bond_atom_site_label_1
_geom_bond_atom_site_label_2
_geom_bond_distance
_geom_bond_site_symmetry_2
_ccdc_geom_bond_type
Co0 O2 2.143 . S
Co0 O8 2.074 . S
Co0 O11 2.093 . S
Co0 O24 2.097 . S
Co0 N41 2.151 . S
Co0 N49 2.214 . S
Co1 O2 2.160 . S
Co1 O7 2.058 . S
Co1 O17 2.057 . S
Co1 O32 2.037 . S
Co1 N36 2.145 . S
Co1 N57 2.257 . S
O2 Co0 2.143 . S
O2 Co1 2.160 . S
C3 O4 1.278 . S
C3 O11 1.224 . S
O4 C3 1.278 . S
C5 O6 1.245 . S
C5 O17 1.232 . S
O6 C5 1.245 . S
O7 Co1 2.058 . S
O7 C33 1.269 . S
O8 Co0 2.074 . S
O8 C33 1.257 . S
H9 C34 0.930 . S
H10 C40 0.930 . S
O11 Co0 2.093 . S
O11 C3 1.224 . S
H12 C44 0.929 . S
H13 C46 0.930 . S
H14 C47 0.930 . S
H15 C45 0.929 . S
H16 C48 0.928 . S
O17 Co1 2.057 . S
O17 C5 1.232 . S
H18 C37 0.929 . S
H19 C38 0.929 . S
H20 C50 0.931 . S
H21 C42 0.929 . S
H22 C51 0.930 . S
H23 C43 0.931 . S
O24 Co0 2.097 . S
O24 C52 1.214 . S
H25 C53 0.929 . S
H26 C54 0.929 . S
H27 C55 0.930 . S
H28 C56 0.929 . S
H29 C58 0.930 . S
H30 C35 0.930 . S
H31 C39 0.930 . S
O32 Co1 2.037 . S
O32 C52 1.234 . S
C33 O7 1.269 . S
C33 O8 1.257 . S
C34 H9 0.930 . S
C34 C37 1.388 . S
C34 C39 1.418 . S
C35 H30 0.930 . S
C35 C38 1.404 . S
C35 C39 1.353 . S
N36 Co1 2.145 . S
N36 C37 1.397 . S
N36 C38 1.334 . S
C37 H18 0.929 . S
C37 C34 1.388 . S
C37 N36 1.397 . S
C38 H19 0.929 . S
C38 C35 1.404 . S
C38 N36 1.334 . S
C39 H31 0.930 . S
C39 C34 1.418 . S
C39 C35 1.353 . S
C40 H10 0.930 . S
C40 N41 1.330 . S
C40 C42 1.446 . S
N41 Co0 2.151 . S
N41 C40 1.330 . S
N41 C45 1.418 . S
C42 H21 0.929 . S
C42 C40 1.446 . S
C42 C43 1.332 . S
C43 H23 0.931 . S
C43 C42 1.332 . S
C43 C44 1.267 . S
C44 H12 0.929 . S
C44 C43 1.267 . S
C44 C45 1.251 . S
C45 H15 0.929 . S
C45 N41 1.418 . S
C45 C44 1.251 . S
C46 H13 0.930 . S
C46 C48 1.406 . S
C46 C51 1.261 . S
C47 H14 0.930 . S
C47 N49 1.325 . S
C47 C50 1.357 . S
C48 H16 0.928 . S
C48 C46 1.406 . S
C48 N49 1.261 . S
N49 Co0 2.214 . S
N49 C47 1.325 . S
N49 C48 1.261 . S
C50 H20 0.931 . S
C50 C47 1.357 . S
C50 C51 1.312 . S
C51 H22 0.930 . S
C51 C46 1.261 . S
C51 C50 1.312 . S
C52 O24 1.214 . S
C52 O32 1.234 . S
C53 H25 0.929 . S
C53 C56 1.391 . S
C53 C58 1.391 . S
C54 H26 0.929 . S
C54 C55 1.390 . S
C54 N57 1.391 . S
C55 H27 0.930 . S
C55 C54 1.390 . S
C55 C56 1.392 . S
C56 H28 0.929 . S
C56 C53 1.391 . S
C56 C55 1.392 . S
N57 Co1 2.257 . S
N57 C54 1.391 . S
N57 C58 1.388 . S
C58 H29 0.930 . S
C58 C53 1.391 . S
C58 N57 1.388 . S
Co59 O61 2.143 . S
Co59 O67 2.074 . S
Co59 O70 2.093 . S
Co59 O83 2.097 . S
Co59 N100 2.151 . S
Co59 N108 2.214 . S
Co60 O61 2.160 . S
Co60 O66 2.058 . S
Co60 O76 2.057 . S
Co60 O91 2.037 . S
Co60 N95 2.145 . S
Co60 N116 2.257 . S
O61 Co59 2.143 . S
O61 Co60 2.160 . S
C62 O63 1.278 . S
C62 O70 1.224 . S
O63 C62 1.278 . S
C64 O65 1.245 . S
C64 O76 1.232 . S
O65 C64 1.245 . S
O66 Co60 2.058 . S
O66 C92 1.269 . S
O67 Co59 2.074 . S
O67 C92 1.257 . S
H68 C93 0.930 . S
H69 C99 0.930 . S
O70 Co59 2.093 . S
O70 C62 1.224 . S
H71 C103 0.929 . S
H72 C105 0.930 . S
H73 C106 0.930 . S
H74 C104 0.929 . S
H75 C107 0.928 . S
O76 Co60 2.057 . S
O76 C64 1.232 . S
H77 C96 0.929 . S
H78 C97 0.929 . S
H79 C109 0.931 . S
H80 C101 0.929 . S
H81 C110 0.930 . S
H82 C102 0.931 . S
O83 Co59 2.097 . S
O83 C111 1.214 . S
H84 C112 0.929 . S
H85 C113 0.929 . S
H86 C114 0.930 . S
H87 C115 0.929 . S
H88 C117 0.930 . S
H89 C94 0.930 . S
H90 C98 0.930 . S
O91 Co60 2.037 . S
O91 C111 1.234 . S
C92 O66 1.269 . S
C92 O67 1.257 . S
C93 H68 0.930 . S
C93 C96 1.388 . S
C93 C98 1.418 . S
C94 H89 0.930 . S
C94 C97 1.404 1_455 S
C94 C98 1.353 . S
N95 Co60 2.145 . S
N95 C96 1.397 1_655 S
N95 C97 1.334 . S
C96 H77 0.929 . S
C96 C93 1.388 . S
C96 N95 1.397 1_455 S
C97 H78 0.929 . S
C97 C94 1.404 1_655 S
C97 N95 1.334 . S
C98 H90 0.930 . S
C98 C93 1.418 . S
C98 C94 1.353 . S
C99 H69 0.930 . S
C99 N100 1.330 . S
C99 C101 1.446 . S
N100 Co59 2.151 . S
N100 C99 1.330 . S
N100 C104 1.418 . S
C101 H80 0.929 . S
C101 C99 1.446 . S
C101 C102 1.332 . S
C102 H82 0.931 . S
C102 C101 1.332 . S
C102 C103 1.267 . S
C103 H71 0.929 . S
C103 C102 1.267 . S
C103 C104 1.251 . S
C104 H74 0.929 . S
C104 N100 1.418 . S
C104 C103 1.251 . S
C105 H72 0.930 . S
C105 C107 1.406 . S
C105 C110 1.261 . S
C106 H73 0.930 . S
C106 N108 1.325 . S
C106 C109 1.357 . S
C107 H75 0.928 . S
C107 C105 1.406 . S
C107 N108 1.261 . S
N108 Co59 2.214 . S
N108 C106 1.325 . S
N108 C107 1.261 . S
C109 H79 0.931 . S
C109 C106 1.357 . S
C109 C110 1.312 . S
C110 H81 0.930 . S
C110 C105 1.261 . S
C110 C109 1.312 . S
C111 O83 1.214 . S
C111 O91 1.234 . S
C112 H84 0.929 . S
C112 C115 1.391 . S
C112 C117 1.391 . S
C113 H85 0.929 . S
C113 C114 1.390 . S
C113 N116 1.391 . S
C114 H86 0.930 . S
C114 C113 1.390 . S
C114 C115 1.392 . S
C115 H87 0.929 . S
C115 C112 1.391 . S
C115 C114 1.392 . S
N116 Co60 2.257 . S
N116 C113 1.391 . S
N116 C117 1.388 . S
C117 H88 0.930 . S
C117 C112 1.391 . S
C117 N116 1.388 . S
Co118 O120 2.143 . S
Co118 O126 2.074 . S
Co118 O129 2.093 . S
Co118 O142 2.097 . S
Co118 N159 2.151 . S
Co118 N167 2.214 . S
Co119 O120 2.160 . S
Co119 O125 2.058 . S
Co119 O135 2.057 . S
Co119 O150 2.037 . S
Co119 N154 2.145 . S
Co119 N175 2.257 . S
O120 Co118 2.143 . S
O120 Co119 2.160 . S
C121 O122 1.278 . S
C121 O129 1.224 . S
O122 C121 1.278 . S
C123 O124 1.245 . S
C123 O135 1.232 . S
O124 C123 1.245 . S
O125 Co119 2.058 . S
O125 C151 1.269 . S
O126 Co118 2.074 . S
O126 C151 1.257 . S
H127 C152 0.930 . S
H128 C158 0.930 . S
O129 Co118 2.093 . S
O129 C121 1.224 . S
H130 C162 0.920 1_554 S
H131 C164 0.930 . S
H132 C165 0.930 . S
H133 C163 0.929 . S
H134 C166 0.928 . S
O135 Co119 2.057 . S
O135 C123 1.232 . S
H136 C155 0.929 . S
H137 C156 0.929 . S
H138 C168 0.931 . S
H139 C160 0.929 . S
H140 C169 0.930 . S
H141 C161 0.931 . S
O142 Co118 2.097 . S
O142 C170 1.214 . S
H143 C171 0.929 . S
H144 C172 0.929 . S
H145 C173 0.930 . S
H146 C174 0.929 . S
H147 C176 0.930 . S
H148 C153 0.930 . S
H149 C157 0.930 . S
O150 Co119 2.037 . S
O150 C170 1.234 . S
C151 O125 1.269 . S
C151 O126 1.257 . S
C152 H127 0.930 . S
C152 C155 1.388 . S
C152 C157 1.418 . S
C153 H148 0.930 . S
C153 C156 1.404 1_545 S
C153 C157 1.353 . S
N154 Co119 2.145 . S
N154 C155 1.397 1_565 S
N154 C156 1.334 . S
C155 H136 0.929 . S
C155 C152 1.388 . S
C155 N154 1.397 1_545 S
C156 H137 0.929 . S
C156 C153 1.404 1_565 S
C156 N154 1.334 . S
C157 H149 0.930 . S
C157 C152 1.418 . S
C157 C153 1.353 . S
C158 H128 0.930 . S
C158 N159 1.330 . S
C158 C160 1.446 . S
N159 Co118 2.151 . S
N159 C158 1.330 . S
N159 C163 1.418 . S
C160 H139 0.929 . S
C160 C158 1.446 . S
C160 C161 1.332 . S
C161 H141 0.931 . S
C161 C160 1.332 . S
C161 C162 1.267 . S
C162 H130 0.920 1_556 S
C162 C161 1.267 . S
C162 C163 1.251 . S
C163 H133 0.929 . S
C163 N159 1.418 . S
C163 C162 1.251 . S
C164 H131 0.930 . S
C164 C166 1.406 . S
C164 C169 1.261 . S
C165 H132 0.930 . S
C165 N167 1.325 . S
C165 C168 1.357 . S
C166 H134 0.928 . S
C166 C164 1.406 . S
C166 N167 1.261 . S
N167 Co118 2.214 . S
N167 C165 1.325 . S
N167 C166 1.261 . S
C168 H138 0.931 . S
C168 C165 1.357 . S
C168 C169 1.312 . S
C169 H140 0.930 . S
C169 C164 1.261 . S
C169 C168 1.312 . S
C170 O142 1.214 . S
C170 O150 1.234 . S
C171 H143 0.929 . S
C171 C174 1.391 . S
C171 C176 1.391 . S
C172 H144 0.929 . S
C172 C173 1.390 . S
C172 N175 1.391 . S
C173 H145 0.930 . S
C173 C172 1.390 . S
C173 C174 1.392 . S
C174 H146 0.929 . S
C174 C171 1.391 . S
C174 C173 1.392 . S
N175 Co119 2.257 . S
N175 C172 1.391 . S
N175 C176 1.388 . S
C176 H147 0.930 . S
C176 C171 1.391 . S
C176 N175 1.388 . S
Co177 O179 2.143 . S
Co177 O185 2.074 . S
Co177 O188 2.093 . S
Co177 O201 2.097 . S
Co177 N218 2.151 . S
Co177 N226 2.214 . S
Co178 O179 2.160 . S
Co178 O184 2.058 . S
Co178 O194 2.057 . S
Co178 O209 2.037 . S
Co178 N213 2.145 . S
Co178 N234 2.257 . S
O179 Co177 2.143 . S
O179 Co178 2.160 . S
C180 O181 1.278 . S
C180 O188 1.224 . S
O181 C180 1.278 . S
C182 O183 1.245 . S
C182 O194 1.232 . S
O183 C182 1.245 . S
O184 Co178 2.058 . S
O184 C210 1.269 . S
O185 Co177 2.074 . S
O185 C210 1.257 . S
H186 C211 0.930 . S
H187 C217 0.930 . S
O188 Co177 2.093 . S
O188 C180 1.224 . S
H189 C221 0.929 . S
H190 C223 0.930 . S
H191 C224 0.930 . S
H192 C222 0.929 . S
H193 C225 0.928 . S
O194 Co178 2.057 . S
O194 C182 1.232 . S
H195 C214 0.929 . S
H196 C215 0.929 . S
H197 C227 0.931 . S
H198 C219 0.929 . S
H199 C228 0.930 . S
H200 C220 0.931 . S
O201 Co177 2.097 . S
O201 C229 1.214 . S
H202 C230 0.929 . S
H203 C231 0.929 . S
H204 C232 0.930 . S
H205 C233 0.929 . S
H206 C235 0.930 . S
H207 C212 0.930 . S
H208 C216 0.930 . S
O209 Co178 2.037 . S
O209 C229 1.234 . S
C210 O184 1.269 . S
C210 O185 1.257 . S
C211 H186 0.930 . S
C211 C214 1.388 . S
C211 C216 1.418 . S
C212 H207 0.930 . S
C212 C215 1.404 . S
C212 C216 1.353 . S
N213 Co178 2.145 . S
N213 C214 1.397 . S
N213 C215 1.334 . S
C214 H195 0.929 . S
C214 C211 1.388 . S
C214 N213 1.397 . S
C215 H196 0.929 . S
C215 C212 1.404 . S
C215 N213 1.334 . S
C216 H208 0.930 . S
C216 C211 1.418 . S
C216 C212 1.353 . S
C217 H187 0.930 . S
C217 N218 1.330 . S
C217 C219 1.446 . S
N218 Co177 2.151 . S
N218 C217 1.330 . S
N218 C222 1.418 . S
C219 H198 0.929 . S
C219 C217 1.446 . S
C219 C220 1.332 . S
C220 H200 0.931 . S
C220 C219 1.332 . S
C220 C221 1.267 . S
C221 H189 0.929 . S
C221 C220 1.267 . S
C221 C222 1.251 . S
C222 H192 0.929 . S
C222 N218 1.418 . S
C222 C221 1.251 . S
C223 H190 0.930 . S
C223 C225 1.406 . S
C223 C228 1.261 . S
C224 H191 0.930 . S
C224 N226 1.325 . S
C224 C227 1.357 . S
C225 H193 0.928 . S
C225 C223 1.406 . S
C225 N226 1.261 . S
N226 Co177 2.214 . S
N226 C224 1.325 . S
N226 C225 1.261 . S
C227 H197 0.931 . S
C227 C224 1.357 . S
C227 C228 1.312 . S
C228 H199 0.930 . S
C228 C223 1.261 . S
C228 C227 1.312 . S
C229 O201 1.214 . S
C229 O209 1.234 . S
C230 H202 0.929 . S
C230 C233 1.391 . S
C230 C235 1.391 . S
C231 H203 0.929 . S
C231 C232 1.390 . S
C231 N234 1.391 . S
C232 H204 0.930 . S
C232 C231 1.390 . S
C232 C233 1.392 . S
C233 H205 0.929 . S
C233 C230 1.391 . S
C233 C232 1.392 . S
N234 Co178 2.257 . S
N234 C231 1.391 . S
N234 C235 1.388 . S
C235 H206 0.930 . S
C235 C230 1.391 . S
C235 N234 1.388 . S
Co236 O238 2.143 . S
Co236 O244 2.074 . S
Co236 O247 2.093 . S
Co236 O260 2.097 . S
Co236 N277 2.151 . S
Co236 N285 2.214 . S
Co237 O238 2.160 . S
Co237 O243 2.058 . S
Co237 O253 2.057 . S
Co237 O268 2.037 . S
Co237 N272 2.145 . S
Co237 N293 2.257 . S
O238 Co236 2.143 . S
O238 Co237 2.160 . S
C239 O240 1.278 . S
C239 O247 1.224 . S
O240 C239 1.278 . S
C241 O242 1.245 . S
C241 O253 1.232 . S
O242 C241 1.245 . S
O243 Co237 2.058 . S
O243 C269 1.269 . S
O244 Co236 2.074 . S
O244 C269 1.257 . S
H245 C270 0.930 . S
H246 C276 0.930 . S
O247 Co236 2.093 . S
O247 C239 1.224 . S
H248 C280 0.929 . S
H249 C282 0.930 . S
H250 C283 0.930 . S
H251 C281 0.929 . S
H252 C284 0.928 . S
O253 Co237 2.057 . S
O253 C241 1.232 . S
H254 C273 0.929 . S
H255 C274 0.929 . S
H256 C286 0.931 . S
H257 C278 0.929 . S
H258 C287 0.930 . S
H259 C279 0.931 . S
O260 Co236 2.097 . S
O260 C288 1.214 . S
H261 C289 0.929 . S
H262 C290 0.929 . S
H263 C291 0.930 . S
H264 C292 0.929 . S
H265 C294 0.930 . S
H266 C271 0.930 . S
H267 C275 0.930 . S
O268 Co237 2.037 . S
O268 C288 1.234 . S
C269 O243 1.269 . S
C269 O244 1.257 . S
C270 H245 0.930 . S
C270 C273 1.388 . S
C270 C275 1.418 . S
C271 H266 0.930 . S
C271 C274 1.404 1_655 S
C271 C275 1.353 . S
N272 Co237 2.145 . S
N272 C273 1.397 1_455 S
N272 C274 1.334 . S
C273 H254 0.929 . S
C273 C270 1.388 . S
C273 N272 1.397 1_655 S
C274 H255 0.929 . S
C274 C271 1.404 1_455 S
C274 N272 1.334 . S
C275 H267 0.930 . S
C275 C270 1.418 . S
C275 C271 1.353 . S
C276 H246 0.930 . S
C276 N277 1.330 . S
C276 C278 1.446 . S
N277 Co236 2.151 . S
N277 C276 1.330 . S
N277 C281 1.418 . S
C278 H257 0.929 . S
C278 C276 1.446 . S
C278 C279 1.332 . S
C279 H259 0.931 . S
C279 C278 1.332 . S
C279 C280 1.267 . S
C280 H248 0.929 . S
C280 C279 1.267 . S
C280 C281 1.251 . S
C281 H251 0.929 . S
C281 N277 1.418 . S
C281 C280 1.251 . S
C282 H249 0.930 . S
C282 C284 1.406 . S
C282 C287 1.261 . S
C283 H250 0.930 . S
C283 N285 1.325 . S
C283 C286 1.357 . S
C284 H252 0.928 . S
C284 C282 1.406 . S
C284 N285 1.261 . S
N285 Co236 2.214 . S
N285 C283 1.325 . S
N285 C284 1.261 . S
C286 H256 0.931 . S
C286 C283 1.357 . S
C286 C287 1.312 . S
C287 H258 0.930 . S
C287 C282 1.261 . S
C287 C286 1.312 . S
C288 O260 1.214 . S
C288 O268 1.234 . S
C289 H261 0.929 . S
C289 C292 1.391 . S
C289 C294 1.391 . S
C290 H262 0.929 . S
C290 C291 1.390 . S
C290 N293 1.391 . S
C291 H263 0.930 . S
C291 C290 1.390 . S
C291 C292 1.392 . S
C292 H264 0.929 . S
C292 C289 1.391 . S
C292 C291 1.392 . S
N293 Co237 2.257 . S
N293 C290 1.391 . S
N293 C294 1.388 . S
C294 H265 0.930 . S
C294 C289 1.391 . S
C294 N293 1.388 . S
Co295 O297 2.143 . S
Co295 O303 2.074 . S
Co295 O306 2.093 . S
Co295 O319 2.097 . S
Co295 N336 2.151 . S
Co295 N344 2.214 . S
Co296 O297 2.160 . S
Co296 O302 2.058 . S
Co296 O312 2.057 . S
Co296 O327 2.037 . S
Co296 N331 2.145 . S
Co296 N352 2.257 . S
O297 Co295 2.143 . S
O297 Co296 2.160 . S
C298 O299 1.278 . S
C298 O306 1.224 . S
O299 C298 1.278 . S
C300 O301 1.245 . S
C300 O312 1.232 . S
O301 C300 1.245 . S
O302 Co296 2.058 . S
O302 C328 1.269 . S
O303 Co295 2.074 . S
O303 C328 1.257 . S
H304 C329 0.930 . S
H305 C335 0.930 . S
O306 Co295 2.093 . S
O306 C298 1.224 . S
H307 C339 0.920 1_554 S
H308 C341 0.930 . S
H309 C342 0.930 . S
H310 C340 0.929 . S
H311 C343 0.928 . S
O312 Co296 2.057 . S
O312 C300 1.232 . S
H313 C332 0.929 . S
H314 C333 0.929 . S
H315 C345 0.931 . S
H316 C337 0.929 . S
H317 C346 0.930 . S
H318 C338 0.931 . S
O319 Co295 2.097 . S
O319 C347 1.214 . S
H320 C348 0.929 . S
H321 C349 0.929 . S
H322 C350 0.930 . S
H323 C351 0.929 . S
H324 C353 0.930 . S
H325 C330 0.930 . S
H326 C334 0.930 . S
O327 Co296 2.037 . S
O327 C347 1.234 . S
C328 O302 1.269 . S
C328 O303 1.257 . S
C329 H304 0.930 . S
C329 C332 1.388 . S
C329 C334 1.418 . S
C330 H325 0.930 . S
C330 C333 1.404 1_565 S
C330 C334 1.353 . S
N331 Co296 2.145 . S
N331 C332 1.397 1_545 S
N331 C333 1.334 . S
C332 H313 0.929 . S
C332 C329 1.388 . S
C332 N331 1.397 1_565 S
C333 H314 0.929 . S
C333 C330 1.404 1_545 S
C333 N331 1.334 . S
C334 H326 0.930 . S
C334 C329 1.418 . S
C334 C330 1.353 . S
C335 H305 0.930 . S
C335 N336 1.330 . S
C335 C337 1.446 . S
N336 Co295 2.151 . S
N336 C335 1.330 . S
N336 C340 1.418 . S
C337 H316 0.929 . S
C337 C335 1.446 . S
C337 C338 1.332 . S
C338 H318 0.931 . S
C338 C337 1.332 . S
C338 C339 1.267 . S
C339 H307 0.920 1_556 S
C339 C338 1.267 . S
C339 C340 1.251 . S
C340 H310 0.929 . S
C340 N336 1.418 . S
C340 C339 1.251 . S
C341 H308 0.930 . S
C341 C343 1.406 . S
C341 C346 1.261 . S
C342 H309 0.930 . S
C342 N344 1.325 . S
C342 C345 1.357 . S
C343 H311 0.928 . S
C343 C341 1.406 . S
C343 N344 1.261 . S
N344 Co295 2.214 . S
N344 C342 1.325 . S
N344 C343 1.261 . S
C345 H315 0.931 . S
C345 C342 1.357 . S
C345 C346 1.312 . S
C346 H317 0.930 . S
C346 C341 1.261 . S
C346 C345 1.312 . S
C347 O319 1.214 . S
C347 O327 1.234 . S
C348 H320 0.929 . S
C348 C351 1.391 . S
C348 C353 1.391 . S
C349 H321 0.929 . S
C349 C350 1.390 . S
C349 N352 1.391 . S
C350 H322 0.930 . S
C350 C349 1.390 . S
C350 C351 1.392 . S
C351 H323 0.929 . S
C351 C348 1.391 . S
C351 C350 1.392 . S
N352 Co296 2.257 . S
N352 C349 1.391 . S
N352 C353 1.388 . S
C353 H324 0.930 . S
C353 C348 1.391 . S
C353 N352 1.388 . S
Co354 O356 2.143 . S
Co354 O362 2.074 . S
Co354 O365 2.093 . S
Co354 O378 2.097 . S
Co354 N395 2.151 . S
Co354 N403 2.214 . S
Co355 O356 2.160 . S
Co355 O361 2.058 . S
Co355 O371 2.057 . S
Co355 O386 2.037 . S
Co355 N390 2.145 . S
Co355 N411 2.257 . S
O356 Co354 2.143 . S
O356 Co355 2.160 . S
C357 O358 1.278 . S
C357 O365 1.224 . S
O358 C357 1.278 . S
C359 O360 1.245 . S
C359 O371 1.232 . S
O360 C359 1.245 . S
O361 Co355 2.058 . S
O361 C387 1.269 . S
O362 Co354 2.074 . S
O362 C387 1.257 . S
H363 C388 0.930 . S
H364 C394 0.930 . S
O365 Co354 2.093 . S
O365 C357 1.224 . S
H366 C398 0.929 . S
H367 C400 0.930 . S
H368 C401 0.930 . S
H369 C399 0.929 . S
H370 C402 0.928 . S
O371 Co355 2.057 . S
O371 C359 1.232 . S
H372 C391 0.929 . S
H373 C392 0.929 . S
H374 C404 0.931 . S
H375 C396 0.929 . S
H376 C405 0.930 . S
H377 C397 0.931 . S
O378 Co354 2.097 . S
O378 C406 1.214 . S
H379 C407 0.929 . S
H380 C408 0.929 . S
H381 C409 0.930 . S
H382 C410 0.929 . S
H383 C412 0.930 . S
H384 C389 0.930 . S
H385 C393 0.930 . S
O386 Co355 2.037 . S
O386 C406 1.234 . S
C387 O361 1.269 . S
C387 O362 1.257 . S
C388 H363 0.930 . S
C388 C391 1.388 . S
C388 C393 1.418 . S
C389 H384 0.930 . S
C389 C392 1.404 . S
C389 C393 1.353 . S
N390 Co355 2.145 . S
N390 C391 1.397 . S
N390 C392 1.334 . S
C391 H372 0.929 . S
C391 C388 1.388 . S
C391 N390 1.397 . S
C392 H373 0.929 . S
C392 C389 1.404 . S
C392 N390 1.334 . S
C393 H385 0.930 . S
C393 C388 1.418 . S
C393 C389 1.353 . S
C394 H364 0.930 . S
C394 N395 1.330 . S
C394 C396 1.446 . S
N395 Co354 2.151 . S
N395 C394 1.330 . S
N395 C399 1.418 . S
C396 H375 0.929 . S
C396 C394 1.446 . S
C396 C397 1.332 . S
C397 H377 0.931 . S
C397 C396 1.332 . S
C397 C398 1.267 . S
C398 H366 0.929 . S
C398 C397 1.267 . S
C398 C399 1.251 . S
C399 H369 0.929 . S
C399 N395 1.418 . S
C399 C398 1.251 . S
C400 H367 0.930 . S
C400 C402 1.406 . S
C400 C405 1.261 . S
C401 H368 0.930 . S
C401 N403 1.325 . S
C401 C404 1.357 . S
C402 H370 0.928 . S
C402 C400 1.406 . S
C402 N403 1.261 . S
N403 Co354 2.214 . S
N403 C401 1.325 . S
N403 C402 1.261 . S
C404 H374 0.931 . S
C404 C401 1.357 . S
C404 C405 1.312 . S
C405 H376 0.930 . S
C405 C400 1.261 . S
C405 C404 1.312 . S
C406 O378 1.214 . S
C406 O386 1.234 . S
C407 H379 0.929 . S
C407 C410 1.391 . S
C407 C412 1.391 . S
C408 H380 0.929 . S
C408 C409 1.390 . S
C408 N411 1.391 . S
C409 H381 0.930 . S
C409 C408 1.390 . S
C409 C410 1.392 . S
C410 H382 0.929 . S
C410 C407 1.391 . S
C410 C409 1.392 . S
N411 Co355 2.257 . S
N411 C408 1.391 . S
N411 C412 1.388 . S
C412 H383 0.930 . S
C412 C407 1.391 . S
C412 N411 1.388 . S
Co413 O415 2.143 . S
Co413 O421 2.074 . S
Co413 O424 2.093 . S
Co413 O437 2.097 . S
Co413 N454 2.151 . S
Co413 N462 2.214 . S
Co414 O415 2.160 . S
Co414 O420 2.058 . S
Co414 O430 2.057 . S
Co414 O445 2.037 . S
Co414 N449 2.145 . S
Co414 N470 2.257 . S
O415 Co413 2.143 . S
O415 Co414 2.160 . S
C416 O417 1.278 . S
C416 O424 1.224 . S
O417 C416 1.278 . S
C418 O419 1.245 . S
C418 O430 1.232 . S
O419 C418 1.245 . S
O420 Co414 2.058 . S
O420 C446 1.269 . S
O421 Co413 2.074 . S
O421 C446 1.257 . S
H422 C447 0.930 . S
H423 C453 0.930 . S
O424 Co413 2.093 . S
O424 C416 1.224 . S
H425 C457 0.929 . S
H426 C459 0.930 . S
H427 C460 0.930 . S
H428 C458 0.929 . S
H429 C461 0.928 . S
O430 Co414 2.057 . S
O430 C418 1.232 . S
H431 C450 0.929 . S
H432 C451 0.929 . S
H433 C463 0.931 . S
H434 C455 0.929 . S
H435 C464 0.930 . S
H436 C456 0.931 . S
O437 Co413 2.097 . S
O437 C465 1.214 . S
H438 C466 0.929 . S
H439 C467 0.929 . S
H440 C468 0.930 . S
H441 C469 0.929 . S
H442 C471 0.930 . S
H443 C448 0.930 . S
H444 C452 0.930 . S
O445 Co414 2.037 . S
O445 C465 1.234 . S
C446 O420 1.269 . S
C446 O421 1.257 . S
C447 H422 0.930 . S
C447 C450 1.388 . S
C447 C452 1.418 . S
C448 H443 0.930 . S
C448 C451 1.404 1_455 S
C448 C452 1.353 . S
N449 Co414 2.145 . S
N449 C450 1.397 1_655 S
N449 C451 1.334 . S
C450 H431 0.929 . S
C450 C447 1.388 . S
C450 N449 1.397 1_455 S
C451 H432 0.929 . S
C451 C448 1.404 1_655 S
C451 N449 1.334 . S
C452 H444 0.930 . S
C452 C447 1.418 . S
C452 C448 1.353 . S
C453 H423 0.930 . S
C453 N454 1.330 . S
C453 C455 1.446 . S
N454 Co413 2.151 . S
N454 C453 1.330 . S
N454 C458 1.418 . S
C455 H434 0.929 . S
C455 C453 1.446 . S
C455 C456 1.332 . S
C456 H436 0.931 . S
C456 C455 1.332 . S
C456 C457 1.267 . S
C457 H425 0.929 . S
C457 C456 1.267 . S
C457 C458 1.251 . S
C458 H428 0.929 . S
C458 N454 1.418 . S
C458 C457 1.251 . S
C459 H426 0.930 . S
C459 C461 1.406 . S
C459 C464 1.261 . S
C460 H427 0.930 . S
C460 N462 1.325 . S
C460 C463 1.357 . S
C461 H429 0.928 . S
C461 C459 1.406 . S
C461 N462 1.261 . S
N462 Co413 2.214 . S
N462 C460 1.325 . S
N462 C461 1.261 . S
C463 H433 0.931 . S
C463 C460 1.357 . S
C463 C464 1.312 . S
C464 H435 0.930 . S
C464 C459 1.261 . S
C464 C463 1.312 . S
C465 O437 1.214 . S
C465 O445 1.234 . S
C466 H438 0.929 . S
C466 C469 1.391 . S
C466 C471 1.391 . S
C467 H439 0.929 . S
C467 C468 1.390 . S
C467 N470 1.391 . S
C468 H440 0.930 . S
C468 C467 1.390 . S
C468 C469 1.392 . S
C469 H441 0.929 . S
C469 C466 1.391 . S
C469 C468 1.392 . S
N470 Co414 2.257 . S
N470 C467 1.391 . S
N470 C471 1.388 . S
C471 H442 0.930 . S
C471 C466 1.391 . S
C471 N470 1.388 . S
Co472 O474 2.143 . S
Co472 O480 2.074 . S
Co472 O483 2.093 . S
Co472 O496 2.097 . S
Co472 N513 2.151 . S
Co472 N521 2.214 . S
Co473 O474 2.160 . S
Co473 O479 2.058 . S
Co473 O489 2.057 . S
Co473 O504 2.037 . S
Co473 N508 2.145 . S
Co473 N529 2.257 . S
O474 Co472 2.143 . S
O474 Co473 2.160 . S
C475 O476 1.278 . S
C475 O483 1.224 . S
O476 C475 1.278 . S
C477 O478 1.245 . S
C477 O489 1.232 . S
O478 C477 1.245 . S
O479 Co473 2.058 . S
O479 C505 1.269 . S
O480 Co472 2.074 . S
O480 C505 1.257 . S
H481 C506 0.930 . S
H482 C512 0.930 . S
O483 Co472 2.093 . S
O483 C475 1.224 . S
H484 C516 0.919 1_556 S
H485 C518 0.930 . S
H486 C519 0.930 . S
H487 C517 0.929 . S
H488 C520 0.928 . S
O489 Co473 2.057 . S
O489 C477 1.232 . S
H490 C509 0.929 . S
H491 C510 0.929 . S
H492 C522 0.931 . S
H493 C514 0.929 . S
H494 C523 0.930 . S
H495 C515 0.931 . S
O496 Co472 2.097 . S
O496 C524 1.214 . S
H497 C525 0.929 . S
H498 C526 0.929 . S
H499 C527 0.930 . S
H500 C528 0.929 . S
H501 C530 0.930 . S
H502 C507 0.930 . S
H503 C511 0.930 . S
O504 Co473 2.037 . S
O504 C524 1.234 . S
C505 O479 1.269 . S
C505 O480 1.257 . S
C506 H481 0.930 . S
C506 C509 1.388 . S
C506 C511 1.418 . S
C507 H502 0.930 . S
C507 C510 1.404 1_545 S
C507 C511 1.353 . S
N508 Co473 2.145 . S
N508 C509 1.397 1_565 S
N508 C510 1.334 . S
C509 H490 0.929 . S
C509 C506 1.388 . S
C509 N508 1.397 1_545 S
C510 H491 0.929 . S
C510 C507 1.404 1_565 S
C510 N508 1.334 . S
C511 H503 0.930 . S
C511 C506 1.418 . S
C511 C507 1.353 . S
C512 H482 0.930 . S
C512 N513 1.330 . S
C512 C514 1.446 . S
N513 Co472 2.151 . S
N513 C512 1.330 . S
N513 C517 1.418 . S
C514 H493 0.929 . S
C514 C512 1.446 . S
C514 C515 1.332 . S
C515 H495 0.931 . S
C515 C514 1.332 . S
C515 C516 1.267 . S
C516 H484 0.919 1_554 S
C516 C515 1.267 . S
C516 C517 1.251 . S
C517 H487 0.929 . S
C517 N513 1.418 . S
C517 C516 1.251 . S
C518 H485 0.930 . S
C518 C520 1.406 . S
C518 C523 1.261 . S
C519 H486 0.930 . S
C519 N521 1.325 . S
C519 C522 1.357 . S
C520 H488 0.928 . S
C520 C518 1.406 . S
C520 N521 1.261 . S
N521 Co472 2.214 . S
N521 C519 1.325 . S
N521 C520 1.261 . S
C522 H492 0.931 . S
C522 C519 1.357 . S
C522 C523 1.312 . S
C523 H494 0.930 . S
C523 C518 1.261 . S
C523 C522 1.312 . S
C524 O496 1.214 . S
C524 O504 1.234 . S
C525 H497 0.929 . S
C525 C528 1.391 . S
C525 C530 1.391 . S
C526 H498 0.929 . S
C526 C527 1.390 . S
C526 N529 1.391 . S
C527 H499 0.930 . S
C527 C526 1.390 . S
C527 C528 1.392 . S
C528 H500 0.929 . S
C528 C525 1.391 . S
C528 C527 1.392 . S
N529 Co473 2.257 . S
N529 C526 1.391 . S
N529 C530 1.388 . S
C530 H501 0.930 . S
C530 C525 1.391 . S
C530 N529 1.388 . S
Co531 O533 2.143 . S
Co531 O539 2.074 . S
Co531 O542 2.093 . S
Co531 O555 2.097 . S
Co531 N572 2.151 . S
Co531 N580 2.214 . S
Co532 O533 2.160 . S
Co532 O538 2.058 . S
Co532 O548 2.057 . S
Co532 O563 2.037 . S
Co532 N567 2.145 . S
Co532 N588 2.257 . S
O533 Co531 2.143 . S
O533 Co532 2.160 . S
C534 O535 1.278 . S
C534 O542 1.224 . S
O535 C534 1.278 . S
C536 O537 1.245 . S
C536 O548 1.232 . S
O537 C536 1.245 . S
O538 Co532 2.058 . S
O538 C564 1.269 . S
O539 Co531 2.074 . S
O539 C564 1.257 . S
H540 C565 0.930 . S
H541 C571 0.930 . S
O542 Co531 2.093 . S
O542 C534 1.224 . S
H543 C575 0.929 . S
H544 C577 0.930 . S
H545 C578 0.930 . S
H546 C576 0.929 . S
H547 C579 0.928 . S
O548 Co532 2.057 . S
O548 C536 1.232 . S
H549 C568 0.929 . S
H550 C569 0.929 . S
H551 C581 0.931 . S
H552 C573 0.929 . S
H553 C582 0.930 . S
H554 C574 0.931 . S
O555 Co531 2.097 . S
O555 C583 1.214 . S
H556 C584 0.929 . S
H557 C585 0.929 . S
H558 C586 0.930 . S
H559 C587 0.929 . S
H560 C589 0.930 . S
H561 C566 0.930 . S
H562 C570 0.930 . S
O563 Co532 2.037 . S
O563 C583 1.234 . S
C564 O538 1.269 . S
C564 O539 1.257 . S
C565 H540 0.930 . S
C565 C568 1.388 . S
C565 C570 1.418 . S
C566 H561 0.930 . S
C566 C569 1.404 . S
C566 C570 1.353 . S
N567 Co532 2.145 . S
N567 C568 1.397 . S
N567 C569 1.334 . S
C568 H549 0.929 . S
C568 C565 1.388 . S
C568 N567 1.397 . S
C569 H550 0.929 . S
C569 C566 1.404 . S
C569 N567 1.334 . S
C570 H562 0.930 . S
C570 C565 1.418 . S
C570 C566 1.353 . S
C571 H541 0.930 . S
C571 N572 1.330 . S
C571 C573 1.446 . S
N572 Co531 2.151 . S
N572 C571 1.330 . S
N572 C576 1.418 . S
C573 H552 0.929 . S
C573 C571 1.446 . S
C573 C574 1.332 . S
C574 H554 0.931 . S
C574 C573 1.332 . S
C574 C575 1.267 . S
C575 H543 0.929 . S
C575 C574 1.267 . S
C575 C576 1.251 . S
C576 H546 0.929 . S
C576 N572 1.418 . S
C576 C575 1.251 . S
C577 H544 0.930 . S
C577 C579 1.406 . S
C577 C582 1.261 . S
C578 H545 0.930 . S
C578 N580 1.325 . S
C578 C581 1.357 . S
C579 H547 0.928 . S
C579 C577 1.406 . S
C579 N580 1.261 . S
N580 Co531 2.214 . S
N580 C578 1.325 . S
N580 C579 1.261 . S
C581 H551 0.931 . S
C581 C578 1.357 . S
C581 C582 1.312 . S
C582 H553 0.930 . S
C582 C577 1.261 . S
C582 C581 1.312 . S
C583 O555 1.214 . S
C583 O563 1.234 . S
C584 H556 0.929 . S
C584 C587 1.391 . S
C584 C589 1.391 . S
C585 H557 0.929 . S
C585 C586 1.390 . S
C585 N588 1.391 . S
C586 H558 0.930 . S
C586 C585 1.390 . S
C586 C587 1.392 . S
C587 H559 0.929 . S
C587 C584 1.391 . S
C587 C586 1.392 . S
N588 Co532 2.257 . S
N588 C585 1.391 . S
N588 C589 1.388 . S
C589 H560 0.930 . S
C589 C584 1.391 . S
C589 N588 1.388 . S
Co590 O592 2.143 . S
Co590 O598 2.074 . S
Co590 O601 2.093 . S
Co590 O614 2.097 . S
Co590 N631 2.151 . S
Co590 N639 2.214 . S
Co591 O592 2.160 . S
Co591 O597 2.058 . S
Co591 O607 2.057 . S
Co591 O622 2.037 . S
Co591 N626 2.145 . S
Co591 N647 2.257 . S
O592 Co590 2.143 . S
O592 Co591 2.160 . S
C593 O594 1.278 . S
C593 O601 1.224 . S
O594 C593 1.278 . S
C595 O596 1.245 . S
C595 O607 1.232 . S
O596 C595 1.245 . S
O597 Co591 2.058 . S
O597 C623 1.269 . S
O598 Co590 2.074 . S
O598 C623 1.257 . S
H599 C624 0.930 . S
H600 C630 0.930 . S
O601 Co590 2.093 . S
O601 C593 1.224 . S
H602 C634 0.929 . S
H603 C636 0.930 . S
H604 C637 0.930 . S
H605 C635 0.929 . S
H606 C638 0.928 . S
O607 Co591 2.057 . S
O607 C595 1.232 . S
H608 C627 0.929 . S
H609 C628 0.929 . S
H610 C640 0.931 . S
H611 C632 0.929 . S
H612 C641 0.930 . S
H613 C633 0.931 . S
O614 Co590 2.097 . S
O614 C642 1.214 . S
H615 C643 0.929 . S
H616 C644 0.929 . S
H617 C645 0.930 . S
H618 C646 0.929 . S
H619 C648 0.930 . S
H620 C625 0.930 . S
H621 C629 0.930 . S
O622 Co591 2.037 . S
O622 C642 1.234 . S
C623 O597 1.269 . S
C623 O598 1.257 . S
C624 H599 0.930 . S
C624 C627 1.388 . S
C624 C629 1.418 . S
C625 H620 0.930 . S
C625 C628 1.404 1_655 S
C625 C629 1.353 . S
N626 Co591 2.145 . S
N626 C627 1.397 1_455 S
N626 C628 1.334 . S
C627 H608 0.929 . S
C627 C624 1.388 . S
C627 N626 1.397 1_655 S
C628 H609 0.929 . S
C628 C625 1.404 1_455 S
C628 N626 1.334 . S
C629 H621 0.930 . S
C629 C624 1.418 . S
C629 C625 1.353 . S
C630 H600 0.930 . S
C630 N631 1.330 . S
C630 C632 1.446 . S
N631 Co590 2.151 . S
N631 C630 1.330 . S
N631 C635 1.418 . S
C632 H611 0.929 . S
C632 C630 1.446 . S
C632 C633 1.332 . S
C633 H613 0.931 . S
C633 C632 1.332 . S
C633 C634 1.267 . S
C634 H602 0.929 . S
C634 C633 1.267 . S
C634 C635 1.251 . S
C635 H605 0.929 . S
C635 N631 1.418 . S
C635 C634 1.251 . S
C636 H603 0.930 . S
C636 C638 1.406 . S
C636 C641 1.261 . S
C637 H604 0.930 . S
C637 N639 1.325 . S
C637 C640 1.357 . S
C638 H606 0.928 . S
C638 C636 1.406 . S
C638 N639 1.261 . S
N639 Co590 2.214 . S
N639 C637 1.325 . S
N639 C638 1.261 . S
C640 H610 0.931 . S
C640 C637 1.357 . S
C640 C641 1.312 . S
C641 H612 0.930 . S
C641 C636 1.261 . S
C641 C640 1.312 . S
C642 O614 1.214 . S
C642 O622 1.234 . S
C643 H615 0.929 . S
C643 C646 1.391 . S
C643 C648 1.391 . S
C644 H616 0.929 . S
C644 C645 1.390 . S
C644 N647 1.391 . S
C645 H617 0.930 . S
C645 C644 1.390 . S
C645 C646 1.392 . S
C646 H618 0.929 . S
C646 C643 1.391 . S
C646 C645 1.392 . S
N647 Co591 2.257 . S
N647 C644 1.391 . S
N647 C648 1.388 . S
C648 H619 0.930 . S
C648 C643 1.391 . S
C648 N647 1.388 . S
Co649 O651 2.143 . S
Co649 O657 2.074 . S
Co649 O660 2.093 . S
Co649 O673 2.097 . S
Co649 N690 2.151 . S
Co649 N698 2.214 . S
Co650 O651 2.160 . S
Co650 O656 2.058 . S
Co650 O666 2.057 . S
Co650 O681 2.037 . S
Co650 N685 2.145 . S
Co650 N706 2.257 . S
O651 Co649 2.143 . S
O651 Co650 2.160 . S
C652 O653 1.278 . S
C652 O660 1.224 . S
O653 C652 1.278 . S
C654 O655 1.245 . S
C654 O666 1.232 . S
O655 C654 1.245 . S
O656 Co650 2.058 . S
O656 C682 1.269 . S
O657 Co649 2.074 . S
O657 C682 1.257 . S
H658 C683 0.930 . S
H659 C689 0.930 . S
O660 Co649 2.093 . S
O660 C652 1.224 . S
H661 C693 0.919 1_556 S
H662 C695 0.930 . S
H663 C696 0.930 . S
H664 C694 0.929 . S
H665 C697 0.928 . S
O666 Co650 2.057 . S
O666 C654 1.232 . S
H667 C686 0.929 . S
H668 C687 0.929 . S
H669 C699 0.931 . S
H670 C691 0.929 . S
H671 C700 0.930 . S
H672 C692 0.931 . S
O673 Co649 2.097 . S
O673 C701 1.214 . S
H674 C702 0.929 . S
H675 C703 0.929 . S
H676 C704 0.930 . S
H677 C705 0.929 . S
H678 C707 0.930 . S
H679 C684 0.930 . S
H680 C688 0.930 . S
O681 Co650 2.037 . S
O681 C701 1.234 . S
C682 O656 1.269 . S
C682 O657 1.257 . S
C683 H658 0.930 . S
C683 C686 1.388 . S
C683 C688 1.418 . S
C684 H679 0.930 . S
C684 C687 1.404 1_565 S
C684 C688 1.353 . S
N685 Co650 2.145 . S
N685 C686 1.397 1_545 S
N685 C687 1.334 . S
C686 H667 0.929 . S
C686 C683 1.388 . S
C686 N685 1.397 1_565 S
C687 H668 0.929 . S
C687 C684 1.404 1_545 S
C687 N685 1.334 . S
C688 H680 0.930 . S
C688 C683 1.418 . S
C688 C684 1.353 . S
C689 H659 0.930 . S
C689 N690 1.330 . S
C689 C691 1.446 . S
N690 Co649 2.151 . S
N690 C689 1.330 . S
N690 C694 1.418 . S
C691 H670 0.929 . S
C691 C689 1.446 . S
C691 C692 1.332 . S
C692 H672 0.931 . S
C692 C691 1.332 . S
C692 C693 1.267 . S
C693 H661 0.919 1_554 S
C693 C692 1.267 . S
C693 C694 1.251 . S
C694 H664 0.929 . S
C694 N690 1.418 . S
C694 C693 1.251 . S
C695 H662 0.930 . S
C695 C697 1.406 . S
C695 C700 1.261 . S
C696 H663 0.930 . S
C696 N698 1.325 . S
C696 C699 1.357 . S
C697 H665 0.928 . S
C697 C695 1.406 . S
C697 N698 1.261 . S
N698 Co649 2.214 . S
N698 C696 1.325 . S
N698 C697 1.261 . S
C699 H669 0.931 . S
C699 C696 1.357 . S
C699 C700 1.312 . S
C700 H671 0.930 . S
C700 C695 1.261 . S
C700 C699 1.312 . S
C701 O673 1.214 . S
C701 O681 1.234 . S
C702 H674 0.929 . S
C702 C705 1.391 . S
C702 C707 1.391 . S
C703 H675 0.929 . S
C703 C704 1.390 . S
C703 N706 1.391 . S
C704 H676 0.930 . S
C704 C703 1.390 . S
C704 C705 1.392 . S
C705 H677 0.929 . S
C705 C702 1.391 . S
C705 C704 1.392 . S
N706 Co650 2.257 . S
N706 C703 1.391 . S
N706 C707 1.388 . S
C707 H678 0.930 . S
C707 C702 1.391 . S
C707 N706 1.388 . S
H708 C714 0.930 . S
H709 C717 0.930 . S
H710 C718 0.930 . S
H711 C719 0.930 . S
H712 C722 0.930 . S
H713 C723 0.930 . S
C714 H708 0.930 . S
C714 C715 1.355 . S
C714 C716 1.415 . S
C715 C714 1.355 . S
C715 C717 1.419 . S
C716 C714 1.415 . S
C716 C721 1.425 . S
C716 C723 1.409 . S
C717 H709 0.930 . S
C717 C715 1.419 . S
C717 C718 1.362 . S
C718 H710 0.930 . S
C718 C717 1.362 . S
C718 C721 1.409 . S
C719 H711 0.930 . S
C719 C720 1.355 . S
C719 C721 1.415 . S
C720 C719 1.355 . S
C720 C722 1.419 . S
C721 C716 1.425 . S
C721 C718 1.409 . S
C721 C719 1.415 . S
C722 H712 0.930 . S
C722 C720 1.419 . S
C722 C723 1.362 . S
C723 H713 0.930 . S
C723 C716 1.409 . S
C723 C722 1.362 . S
H724 C730 0.930 . S
H725 C733 0.930 . S
H726 C734 0.930 . S
H727 C735 0.930 . S
H728 C738 0.930 . S
H729 C739 0.930 . S
C730 H724 0.930 . S
C730 C731 1.355 . S
C730 C732 1.415 . S
C731 C730 1.355 . S
C731 C733 1.419 . S
C732 C730 1.415 . S
C732 C737 1.425 . S
C732 C739 1.409 . S
C733 H725 0.930 . S
C733 C731 1.419 . S
C733 C734 1.362 . S
C734 H726 0.930 . S
C734 C733 1.362 . S
C734 C737 1.409 . S
C735 H727 0.930 . S
C735 C736 1.355 . S
C735 C737 1.415 . S
C736 C735 1.355 . S
C736 C738 1.419 . S
C737 C732 1.425 . S
C737 C734 1.409 . S
C737 C735 1.415 . S
C738 H728 0.930 . S
C738 C736 1.419 . S
C738 C739 1.362 . S
C739 H729 0.930 . S
C739 C732 1.409 . S
C739 C738 1.362 . S
H740 C746 0.930 . S
H741 C749 0.930 . S
H742 C750 0.930 . S
H743 C751 0.930 . S
H744 C754 0.930 . S
H745 C755 0.930 . S
C746 H740 0.930 . S
C746 C747 1.355 . S
C746 C748 1.415 . S
C747 C746 1.355 . S
C747 C749 1.419 . S
C748 C746 1.415 . S
C748 C753 1.425 . S
C748 C755 1.409 . S
C749 H741 0.930 . S
C749 C747 1.419 . S
C749 C750 1.362 . S
C750 H742 0.930 . S
C750 C749 1.362 . S
C750 C753 1.409 . S
C751 H743 0.930 . S
C751 C752 1.355 . S
C751 C753 1.415 . S
C752 C751 1.355 . S
C752 C754 1.419 . S
C753 C748 1.425 . S
C753 C750 1.409 . S
C753 C751 1.415 . S
C754 H744 0.930 . S
C754 C752 1.419 . S
C754 C755 1.362 . S
C755 H745 0.930 . S
C755 C748 1.409 . S
C755 C754 1.362 . S
H756 C762 0.930 . S
H757 C765 0.930 . S
H758 C766 0.930 . S
H759 C767 0.930 . S
H760 C770 0.930 . S
H761 C771 0.930 . S
C762 H756 0.930 . S
C762 C763 1.355 . S
C762 C764 1.415 . S
C763 C762 1.355 . S
C763 C765 1.419 . S
C764 C762 1.415 . S
C764 C769 1.425 . S
C764 C771 1.409 . S
C765 H757 0.930 . S
C765 C763 1.419 . S
C765 C766 1.362 . S
C766 H758 0.930 . S
C766 C765 1.362 . S
C766 C769 1.409 . S
C767 H759 0.930 . S
C767 C768 1.355 . S
C767 C769 1.415 . S
C768 C767 1.355 . S
C768 C770 1.419 . S
C769 C764 1.425 . S
C769 C766 1.409 . S
C769 C767 1.415 . S
C770 H760 0.930 . S
C770 C768 1.419 . S
C770 C771 1.362 . S
C771 H761 0.930 . S
C771 C764 1.409 . S
C771 C770 1.362 . S
H772 C778 0.930 . S
H773 C781 0.930 . S
H774 C782 0.930 . S
H775 C783 0.930 . S
H776 C786 0.930 . S
H777 C787 0.930 . S
C778 H772 0.930 . S
C778 C779 1.355 . S
C778 C780 1.415 . S
C779 C778 1.355 . S
C779 C781 1.419 . S
C780 C778 1.415 . S
C780 C785 1.425 . S
C780 C787 1.409 . S
C781 H773 0.930 . S
C781 C779 1.419 . S
C781 C782 1.362 . S
C782 H774 0.930 . S
C782 C781 1.362 . S
C782 C785 1.409 . S
C783 H775 0.930 . S
C783 C784 1.355 . S
C783 C785 1.415 . S
C784 C783 1.355 . S
C784 C786 1.419 . S
C785 C780 1.425 . S
C785 C782 1.409 . S
C785 C783 1.415 . S
C786 H776 0.930 . S
C786 C784 1.419 . S
C786 C787 1.362 . S
C787 H777 0.930 . S
C787 C780 1.409 . S
C787 C786 1.362 . S
H788 C794 0.930 . S
H789 C797 0.930 . S
H790 C798 0.930 . S
H791 C799 0.930 . S
H792 C802 0.930 . S
H793 C803 0.930 . S
C794 H788 0.930 . S
C794 C795 1.355 . S
C794 C796 1.415 . S
C795 C794 1.355 . S
C795 C797 1.419 . S
C796 C794 1.415 . S
C796 C801 1.425 . S
C796 C803 1.409 . S
C797 H789 0.930 . S
C797 C795 1.419 . S
C797 C798 1.362 . S
C798 H790 0.930 . S
C798 C797 1.362 . S
C798 C801 1.409 . S
C799 H791 0.930 . S
C799 C800 1.355 . S
C799 C801 1.415 . S
C800 C799 1.355 . S
C800 C802 1.419 . S
C801 C796 1.425 . S
C801 C798 1.409 . S
C801 C799 1.415 . S
C802 H792 0.930 . S
C802 C800 1.419 . S
C802 C803 1.362 . S
C803 H793 0.930 . S
C803 C796 1.409 . S
C803 C802 1.362 . S
H804 C810 0.930 . S
H805 C813 0.930 . S
H806 C814 0.930 . S
H807 C815 0.930 . S
H808 C818 0.930 . S
H809 C819 0.930 . S
C810 H804 0.930 . S
C810 C811 1.355 . S
C810 C812 1.415 . S
C811 C810 1.355 . S
C811 C813 1.419 . S
C812 C810 1.415 . S
C812 C817 1.425 . S
C812 C819 1.409 . S
C813 H805 0.930 . S
C813 C811 1.419 . S
C813 C814 1.362 . S
C814 H806 0.930 . S
C814 C813 1.362 . S
C814 C817 1.409 . S
C815 H807 0.930 . S
C815 C816 1.355 . S
C815 C817 1.415 . S
C816 C815 1.355 . S
C816 C818 1.419 . S
C817 C812 1.425 . S
C817 C814 1.409 . S
C817 C815 1.415 . S
C818 H808 0.930 . S
C818 C816 1.419 . S
C818 C819 1.362 . S
C819 H809 0.930 . S
C819 C812 1.409 . S
C819 C818 1.362 . S
H820 C826 0.930 . S
H821 C829 0.930 . S
H822 C830 0.930 . S
H823 C831 0.930 . S
H824 C834 0.930 . S
H825 C835 0.930 . S
C826 H820 0.930 . S
C826 C827 1.355 1_655 S
C826 C828 1.415 . S
C827 C826 1.355 1_455 S
C827 C829 1.419 . S
C828 C826 1.415 . S
C828 C833 1.425 1_655 S
C828 C835 1.409 . S
C829 H821 0.930 . S
C829 C827 1.419 . S
C829 C830 1.362 . S
C830 H822 0.930 . S
C830 C829 1.362 . S
C830 C833 1.409 . S
C831 H823 0.930 . S
C831 C832 1.355 1_455 S
C831 C833 1.415 . S
C832 C831 1.355 1_655 S
C832 C834 1.419 . S
C833 C828 1.425 1_455 S
C833 C830 1.409 . S
C833 C831 1.415 . S
C834 H824 0.930 . S
C834 C832 1.419 . S
C834 C835 1.362 . S
C835 H825 0.930 . S
C835 C828 1.409 . S
C835 C834 1.362 . S
H836 C842 0.930 . S
H837 C845 0.930 . S
H838 C846 0.930 . S
H839 C847 0.930 . S
H840 C850 0.930 . S
H841 C851 0.930 . S
C842 H836 0.930 . S
C842 C843 1.355 1_565 S
C842 C844 1.415 . S
C843 C842 1.355 1_545 S
C843 C845 1.419 . S
C844 C842 1.415 . S
C844 C849 1.425 1_565 S
C844 C851 1.409 . S
C845 H837 0.930 . S
C845 C843 1.419 . S
C845 C846 1.362 . S
C846 H838 0.930 . S
C846 C845 1.362 . S
C846 C849 1.409 . S
C847 H839 0.930 . S
C847 C848 1.355 1_545 S
C847 C849 1.415 . S
C848 C847 1.355 1_565 S
C848 C850 1.419 . S
C849 C844 1.425 1_545 S
C849 C846 1.409 . S
C849 C847 1.415 . S
C850 H840 0.930 . S
C850 C848 1.419 . S
C850 C851 1.362 . S
C851 H841 0.930 . S
C851 C844 1.409 . S
C851 C850 1.362 . S
H852 C858 0.930 . S
H853 C861 0.930 . S
H854 C862 0.930 . S
H855 C863 0.930 . S
H856 C866 0.930 . S
H857 C867 0.930 . S
C858 H852 0.930 . S
C858 C859 1.355 . S
C858 C860 1.415 . S
C859 C858 1.355 . S
C859 C861 1.419 . S
C860 C858 1.415 . S
C860 C865 1.425 . S
C860 C867 1.409 . S
C861 H853 0.930 . S
C861 C859 1.419 . S
C861 C862 1.362 . S
C862 H854 0.930 . S
C862 C861 1.362 . S
C862 C865 1.409 . S
C863 H855 0.930 . S
C863 C864 1.355 . S
C863 C865 1.415 . S
C864 C863 1.355 . S
C864 C866 1.419 . S
C865 C860 1.425 . S
C865 C862 1.409 . S
C865 C863 1.415 . S
C866 H856 0.930 . S
C866 C864 1.419 . S
C866 C867 1.362 . S
C867 H857 0.930 . S
C867 C860 1.409 . S
C867 C866 1.362 . S
H868 C874 0.930 . S
H869 C877 0.930 . S
H870 C878 0.930 . S
H871 C879 0.930 . S
H872 C882 0.930 . S
H873 C883 0.930 . S
C874 H868 0.930 . S
C874 C875 1.355 . S
C874 C876 1.415 . S
C875 C874 1.355 . S
C875 C877 1.419 1_655 S
C876 C874 1.415 . S
C876 C881 1.425 1_655 S
C876 C883 1.409 . S
C877 H869 0.930 . S
C877 C875 1.419 1_455 S
C877 C878 1.362 . S
C878 H870 0.930 . S
C878 C877 1.362 . S
C878 C881 1.409 . S
C879 H871 0.930 . S
C879 C880 1.355 . S
C879 C881 1.415 . S
C880 C879 1.355 . S
C880 C882 1.419 1_455 S
C881 C876 1.425 1_455 S
C881 C878 1.409 . S
C881 C879 1.415 . S
C882 H872 0.930 . S
C882 C880 1.419 1_655 S
C882 C883 1.362 . S
C883 H873 0.930 . S
C883 C876 1.409 . S
C883 C882 1.362 . S
H884 C890 0.930 . S
H885 C893 0.930 . S
H886 C894 0.930 . S
H887 C895 0.930 . S
H888 C898 0.930 . S
H889 C899 0.930 . S
C890 H884 0.930 . S
C890 C891 1.355 1_545 S
C890 C892 1.415 . S
C891 C890 1.355 1_565 S
C891 C893 1.419 . S
C892 C890 1.415 . S
C892 C897 1.425 1_545 S
C892 C899 1.409 . S
C893 H885 0.930 . S
C893 C891 1.419 . S
C893 C894 1.362 . S
C894 H886 0.930 . S
C894 C893 1.362 . S
C894 C897 1.409 . S
C895 H887 0.930 . S
C895 C896 1.355 1_565 S
C895 C897 1.415 . S
C896 C895 1.355 1_545 S
C896 C898 1.419 . S
C897 C892 1.425 1_565 S
C897 C894 1.409 . S
C897 C895 1.415 . S
C898 H888 0.930 . S
C898 C896 1.419 . S
C898 C899 1.362 . S
C899 H889 0.930 . S
C899 C892 1.409 . S
C899 C898 1.362 . S
H900 C906 0.930 . S
H901 C909 0.930 . S
H902 C910 0.930 . S
H903 C911 0.930 . S
H904 C914 0.930 . S
H905 C915 0.930 . S
C906 H900 0.930 . S
C906 C907 1.355 . S
C906 C908 1.415 . S
C907 C906 1.355 . S
C907 C909 1.419 . S
C908 C906 1.415 . S
C908 C913 1.425 . S
C908 C915 1.409 . S
C909 H901 0.930 . S
C909 C907 1.419 . S
C909 C910 1.362 . S
C910 H902 0.930 . S
C910 C909 1.362 . S
C910 C913 1.409 . S
C911 H903 0.930 . S
C911 C912 1.355 . S
C911 C913 1.415 . S
C912 C911 1.355 . S
C912 C914 1.419 . S
C913 C908 1.425 . S
C913 C910 1.409 . S
C913 C911 1.415 . S
C914 H904 0.930 . S
C914 C912 1.419 . S
C914 C915 1.362 . S
C915 H905 0.930 . S
C915 C908 1.409 . S
C915 C914 1.362 . S
H916 C922 0.930 1_455 S
H917 C925 0.930 . S
H918 C926 0.930 . S
H919 C927 0.930 1_655 S
H920 C930 0.930 . S
H921 C931 0.930 . S
C922 H916 0.930 1_655 S
C922 C923 1.355 . S
C922 C924 1.415 1_655 S
C923 C922 1.355 . S
C923 C925 1.419 . S
C924 C922 1.415 1_455 S
C924 C929 1.425 1_455 S
C924 C931 1.409 . S
C925 H917 0.930 . S
C925 C923 1.419 . S
C925 C926 1.362 . S
C926 H918 0.930 . S
C926 C925 1.362 . S
C926 C929 1.409 . S
C927 H919 0.930 1_455 S
C927 C928 1.355 . S
C927 C929 1.415 1_455 S
C928 C927 1.355 . S
C928 C930 1.419 . S
C929 C924 1.425 1_655 S
C929 C926 1.409 . S
C929 C927 1.415 1_655 S
C930 H920 0.930 . S
C930 C928 1.419 . S
C930 C931 1.362 . S
C931 H921 0.930 . S
C931 C924 1.409 . S
C931 C930 1.362 . S
H932 C938 0.930 . S
H933 C941 0.930 . S
H934 C942 0.930 . S
H935 C943 0.930 . S
H936 C946 0.930 . S
H937 C947 0.930 . S
C938 H932 0.930 . S
C938 C939 1.355 . S
C938 C940 1.415 . S
C939 C938 1.355 . S
C939 C941 1.419 . S
C940 C938 1.415 . S
C940 C945 1.425 1_566 S
C940 C947 1.409 1_556 S
C941 H933 0.930 . S
C941 C939 1.419 . S
C941 C942 1.362 1_565 S
C942 H934 0.930 . S
C942 C941 1.362 1_545 S
C942 C945 1.409 1_556 S
C943 H935 0.930 . S
C943 C944 1.355 . S
C943 C945 1.415 . S
C944 C943 1.355 . S
C944 C946 1.419 . S
C945 C940 1.425 1_544 S
C945 C942 1.409 1_554 S
C945 C943 1.415 . S
C946 H936 0.930 . S
C946 C944 1.419 . S
C946 C947 1.362 1_545 S
C947 H937 0.930 . S
C947 C940 1.409 1_554 S
C947 C946 1.362 1_565 S
H948 C954 0.930 . S
H949 C957 0.930 . S
H950 C958 0.930 . S
H951 C959 0.930 . S
H952 C962 0.930 . S
H953 C963 0.930 . S
C954 H948 0.930 . S
C954 C955 1.355 . S
C954 C956 1.415 . S
C955 C954 1.355 . S
C955 C957 1.419 . S
C956 C954 1.415 . S
C956 C961 1.425 . S
C956 C963 1.409 . S
C957 H949 0.930 . S
C957 C955 1.419 . S
C957 C958 1.362 . S
C958 H950 0.930 . S
C958 C957 1.362 . S
C958 C961 1.409 . S
C959 H951 0.930 . S
C959 C960 1.355 . S
C959 C961 1.415 . S
C960 C959 1.355 . S
C960 C962 1.419 . S
C961 C956 1.425 . S
C961 C958 1.409 . S
C961 C959 1.415 . S
C962 H952 0.930 . S
C962 C960 1.419 . S
C962 C963 1.362 . S
C963 H953 0.930 . S
C963 C956 1.409 . S
C963 C962 1.362 . S
H964 C970 0.930 . S
H965 C973 0.930 . S
H966 C974 0.930 1_655 S
H967 C975 0.930 . S
H968 C978 0.930 . S
H969 C979 0.930 1_455 S
C970 H964 0.930 . S
C970 C971 1.355 . S
C970 C972 1.415 . S
C971 C970 1.355 . S
C971 C973 1.419 . S
C972 C970 1.415 . S
C972 C977 1.425 1_455 S
C972 C979 1.409 1_455 S
C973 H965 0.930 . S
C973 C971 1.419 . S
C973 C974 1.362 . S
C974 H966 0.930 1_455 S
C974 C973 1.362 . S
C974 C977 1.409 1_455 S
C975 H967 0.930 . S
C975 C976 1.355 . S
C975 C977 1.415 . S
C976 C975 1.355 . S
C976 C978 1.419 . S
C977 C972 1.425 1_655 S
C977 C974 1.409 1_655 S
C977 C975 1.415 . S
C978 H968 0.930 . S
C978 C976 1.419 . S
C978 C979 1.362 . S
C979 H969 0.930 1_655 S
C979 C972 1.409 1_655 S
C979 C978 1.362 . S
H980 C986 0.930 . S
H981 C989 0.930 . S
H982 C990 0.930 . S
H983 C991 0.930 . S
H984 C994 0.930 . S
H985 C995 0.930 . S
C986 H980 0.930 . S
C986 C987 1.355 . S
C986 C988 1.415 1_554 S
C987 C986 1.355 . S
C987 C989 1.419 1_565 S
C988 C986 1.415 1_556 S
C988 C993 1.425 1_566 S
C988 C995 1.409 . S
C989 H981 0.930 . S
C989 C987 1.419 1_545 S
C989 C990 1.362 . S
C990 H982 0.930 . S
C990 C989 1.362 . S
C990 C993 1.409 . S
C991 H983 0.930 . S
C991 C992 1.355 . S
C991 C993 1.415 1_556 S
C992 C991 1.355 . S
C992 C994 1.419 1_545 S
C993 C988 1.425 1_544 S
C993 C990 1.409 . S
C993 C991 1.415 1_554 S
C994 H984 0.930 . S
C994 C992 1.419 1_565 S
C994 C995 1.362 . S
C995 H985 0.930 . S
C995 C988 1.409 . S
C995 C994 1.362 . S
H996 C1002 0.930 . S
H997 C1005 0.930 . S
H998 C1006 0.930 . S
H999 C1007 0.930 . S
H1000 C1010 0.930 . S
H1001 C1011 0.930 . S
C1002 H996 0.930 . S
C1002 C1003 1.355 . S
C1002 C1004 1.415 . S
C1003 C1002 1.355 . S
C1003 C1005 1.419 . S
C1004 C1002 1.415 . S
C1004 C1009 1.425 1_655 S
C1004 C1011 1.409 1_655 S
C1005 H997 0.930 . S
C1005 C1003 1.419 . S
C1005 C1006 1.362 . S
C1006 H998 0.930 . S
C1006 C1005 1.362 . S
C1006 C1009 1.409 1_655 S
C1007 H999 0.930 . S
C1007 C1008 1.355 . S
C1007 C1009 1.415 . S
C1008 C1007 1.355 . S
C1008 C1010 1.419 . S
C1009 C1004 1.425 1_455 S
C1009 C1006 1.409 1_455 S
C1009 C1007 1.415 . S
C1010 H1000 0.930 . S
C1010 C1008 1.419 . S
C1010 C1011 1.362 . S
C1011 H1001 0.930 . S
C1011 C1004 1.409 1_455 S
C1011 C1010 1.362 . S
H1012 C1018 0.930 . S
H1013 C1021 0.930 . S
H1014 C1022 0.930 . S
H1015 C1023 0.930 . S
H1016 C1026 0.930 . S
H1017 C1027 0.930 . S
C1018 H1012 0.930 . S
C1018 C1019 1.355 . S
C1018 C1020 1.415 . S
C1019 C1018 1.355 . S
C1019 C1021 1.419 . S
C1020 C1018 1.415 . S
C1020 C1025 1.425 1_545 S
C1020 C1027 1.409 1_545 S
C1021 H1013 0.930 . S
C1021 C1019 1.419 . S
C1021 C1022 1.362 . S
C1022 H1014 0.930 . S
C1022 C1021 1.362 . S
C1022 C1025 1.409 1_545 S
C1023 H1015 0.930 . S
C1023 C1024 1.355 . S
C1023 C1025 1.415 . S
C1024 C1023 1.355 . S
C1024 C1026 1.419 . S
C1025 C1020 1.425 1_565 S
C1025 C1022 1.409 1_565 S
C1025 C1023 1.415 . S
C1026 H1016 0.930 . S
C1026 C1024 1.419 . S
C1026 C1027 1.362 . S
C1027 H1017 0.930 . S
C1027 C1020 1.409 1_565 S
C1027 C1026 1.362 . S
H1028 C1034 0.930 . S
H1029 C1037 0.930 . S
H1030 C1038 0.930 . S
H1031 C1039 0.930 . S
H1032 C1042 0.930 . S
H1033 C1043 0.930 . S
C1034 H1028 0.930 . S
C1034 C1035 1.355 . S
C1034 C1036 1.415 . S
C1035 C1034 1.355 . S
C1035 C1037 1.419 . S
C1036 C1034 1.415 . S
C1036 C1041 1.425 . S
C1036 C1043 1.409 . S
C1037 H1029 0.930 . S
C1037 C1035 1.419 . S
C1037 C1038 1.362 . S
C1038 H1030 0.930 . S
C1038 C1037 1.362 . S
C1038 C1041 1.409 . S
C1039 H1031 0.930 . S
C1039 C1040 1.355 . S
C1039 C1041 1.415 . S
C1040 C1039 1.355 . S
C1040 C1042 1.419 . S
C1041 C1036 1.425 . S
C1041 C1038 1.409 . S
C1041 C1039 1.415 . S
C1042 H1032 0.930 . S
C1042 C1040 1.419 . S
C1042 C1043 1.362 . S
C1043 H1033 0.930 . S
C1043 C1036 1.409 . S
C1043 C1042 1.362 . S
H1044 C1050 0.930 . S
H1045 C1053 0.930 . S
H1046 C1054 0.930 . S
H1047 C1055 0.930 . S
H1048 C1058 0.930 . S
H1049 C1059 0.930 . S
C1050 H1044 0.930 . S
C1050 C1051 1.355 . S
C1050 C1052 1.415 . S
C1051 C1050 1.355 . S
C1051 C1053 1.419 . S
C1052 C1050 1.415 . S
C1052 C1057 1.425 1_655 S
C1052 C1059 1.409 1_655 S
C1053 H1045 0.930 . S
C1053 C1051 1.419 . S
C1053 C1054 1.362 . S
C1054 H1046 0.930 . S
C1054 C1053 1.362 . S
C1054 C1057 1.409 1_655 S
C1055 H1047 0.930 . S
C1055 C1056 1.355 . S
C1055 C1057 1.415 . S
C1056 C1055 1.355 . S
C1056 C1058 1.419 . S
C1057 C1052 1.425 1_455 S
C1057 C1054 1.409 1_455 S
C1057 C1055 1.415 . S
C1058 H1048 0.930 . S
C1058 C1056 1.419 . S
C1058 C1059 1.362 . S
C1059 H1049 0.930 . S
C1059 C1052 1.409 1_455 S
C1059 C1058 1.362 . S
H1060 C1066 0.930 . S
H1061 C1069 0.930 . S
H1062 C1070 0.930 . S
H1063 C1071 0.930 . S
H1064 C1074 0.930 . S
H1065 C1075 0.930 . S
C1066 H1060 0.930 . S
C1066 C1067 1.355 . S
C1066 C1068 1.415 . S
C1067 C1066 1.355 . S
C1067 C1069 1.419 . S
C1068 C1066 1.415 . S
C1068 C1073 1.425 1_565 S
C1068 C1075 1.409 1_565 S
C1069 H1061 0.930 . S
C1069 C1067 1.419 . S
C1069 C1070 1.362 . S
C1070 H1062 0.930 . S
C1070 C1069 1.362 . S
C1070 C1073 1.409 1_565 S
C1071 H1063 0.930 . S
C1071 C1072 1.355 . S
C1071 C1073 1.415 . S
C1072 C1071 1.355 . S
C1072 C1074 1.419 . S
C1073 C1068 1.425 1_545 S
C1073 C1070 1.409 1_545 S
C1073 C1071 1.415 . S
C1074 H1064 0.930 . S
C1074 C1072 1.419 . S
C1074 C1075 1.362 . S
C1075 H1065 0.930 . S
C1075 C1068 1.409 1_545 S
C1075 C1074 1.362 . S
H1076 C1082 0.930 . S
H1077 C1085 0.930 . S
H1078 C1086 0.930 . S
H1079 C1087 0.930 . S
H1080 C1090 0.930 . S
H1081 C1091 0.930 . S
C1082 H1076 0.930 . S
C1082 C1083 1.355 . S
C1082 C1084 1.415 . S
C1083 C1082 1.355 . S
C1083 C1085 1.419 . S
C1084 C1082 1.415 . S
C1084 C1089 1.425 . S
C1084 C1091 1.409 . S
C1085 H1077 0.930 . S
C1085 C1083 1.419 . S
C1085 C1086 1.362 . S
C1086 H1078 0.930 . S
C1086 C1085 1.362 . S
C1086 C1089 1.409 . S
C1087 H1079 0.930 . S
C1087 C1088 1.355 . S
C1087 C1089 1.415 . S
C1088 C1087 1.355 . S
C1088 C1090 1.419 . S
C1089 C1084 1.425 . S
C1089 C1086 1.409 . S
C1089 C1087 1.415 . S
C1090 H1080 0.930 . S
C1090 C1088 1.419 . S
C1090 C1091 1.362 . S
C1091 H1081 0.930 . S
C1091 C1084 1.409 . S
C1091 C1090 1.362 . S
C715 C475 1.641 . S
C720 C3 1.616 . S
C731 C62 1.618 . S
C736 C534 1.616 . S
C747 C121 1.636 . S
C752 C593 1.613 . S
C763 C180 1.639 . S
C768 C652 1.614 . S
C779 C357 1.651 . S
C784 C239 1.636 . S
C795 C298 1.642 . S
C800 C416 1.650 . S
C811 C229 1.408 . S
C816 C52 1.401 . S
C827 C288 1.344 . S
C832 C111 1.353 . S
C843 C347 1.348 . S
C848 C170 1.348 . S
C859 C406 1.407 . S
C864 C583 1.403 . S
C875 C465 1.407 . S
C880 C642 1.404 . S
C891 C524 1.348 . S
C896 C701 1.348 . S
C907 C33 1.618 . S
C912 C564 1.602 . S
C923 C92 1.609 . S
C928 C623 1.586 . S
C939 C151 1.618 . S
C944 C682 1.598 . S
C955 C387 1.609 . S
C960 C210 1.615 . S
C971 C269 1.617 . S
C976 C446 1.595 . S
C987 C505 1.602 . S
C992 C328 1.617 . S
C1003 C654 1.453 . S
C1008 C5 1.424 . S
C1019 C64 1.461 . S
C1024 C359 1.435 . S
C1035 C418 1.465 . S
C1040 C123 1.448 . S
C1051 C182 1.438 . S
C1056 C477 1.463 . S
C1067 C241 1.456 . S
C1072 C536 1.427 . S
C1083 C595 1.415 . S
C1088 C300 1.406 . S
