# Generated by pormake.
# Topology smu, (6)-cn, num edge types: 1
# Building blocks:
#     Node 0, Type 0, BuildingBlock: VOLQOD_clean_sbu_1, # of connection points: 6
#     Node 1, Type 0, BuildingBlock: VOLQOD_clean_sbu_1, # of connection points: 6
#     Node 2, Type 0, BuildingBlock: VOLQOD_clean_sbu_1, # of connection points: 6
#     Node 3, Type 0, BuildingBlock: VOLQOD_clean_sbu_1, # of connection points: 6
#     Node 4, Type 0, BuildingBlock: VOLQOD_clean_sbu_1, # of connection points: 6
#     Node 5, Type 0, BuildingBlock: VOLQOD_clean_sbu_1, # of connection points: 6
#     Edge 6, Type (0, 0), BuildingBlock: FUNLAD_clean_linker_0, # of connection points: 2
#     Edge 7, Type (0, 0), BuildingBlock: FUNLAD_clean_linker_0, # of connection points: 2
#     Edge 8, Type (0, 0), BuildingBlock: FUNLAD_clean_linker_0, # of connection points: 2
#     Edge 9, Type (0, 0), BuildingBlock: FUNLAD_clean_linker_0, # of connection points: 2
#     Edge 10, Type (0, 0), BuildingBlock: FUNLAD_clean_linker_0, # of connection points: 2
#     Edge 11, Type (0, 0), BuildingBlock: FUNLAD_clean_linker_0, # of connection points: 2
#     Edge 12, Type (0, 0), BuildingBlock: FUNLAD_clean_linker_0, # of connection points: 2
#     Edge 13, Type (0, 0), BuildingBlock: FUNLAD_clean_linker_0, # of connection points: 2
#     Edge 14, Type (0, 0), BuildingBlock: FUNLAD_clean_linker_0, # of connection points: 2
#     Edge 15, Type (0, 0), BuildingBlock: FUNLAD_clean_linker_0, # of connection points: 2
#     Edge 16, Type (0, 0), BuildingBlock: FUNLAD_clean_linker_0, # of connection points: 2
#     Edge 17, Type (0, 0), BuildingBlock: FUNLAD_clean_linker_0, # of connection points: 2
#     Edge 18, Type (0, 0), BuildingBlock: FUNLAD_clean_linker_0, # of connection points: 2
#     Edge 19, Type (0, 0), BuildingBlock: FUNLAD_clean_linker_0, # of connection points: 2
#     Edge 20, Type (0, 0), BuildingBlock: FUNLAD_clean_linker_0, # of connection points: 2
#     Edge 21, Type (0, 0), BuildingBlock: FUNLAD_clean_linker_0, # of connection points: 2
#     Edge 22, Type (0, 0), BuildingBlock: FUNLAD_clean_linker_0, # of connection points: 2
#     Edge 23, Type (0, 0), BuildingBlock: FUNLAD_clean_linker_0, # of connection points: 2
# Relax obj value: 0.300
# Max RMSD: 0.244
# Mean RMSD: 0.244
data_MOF--net-smu--node1-VOLQOD_clean_sbu_1--edge1-FUNLAD_clean_linker_0
_symmetry_space_group_name_H-M    P1
_symmetry_Int_Tables_number       1
_symmetry_cell_setting            triclinic
loop_
_symmetry_equiv_pos_as_xyz
'x, y, z'
_cell_length_a     35.333133
_cell_length_b     35.265928
_cell_length_c     37.8736
_cell_angle_alpha  90.005776
_cell_angle_beta   90.030135
_cell_angle_gamma 119.90246
loop_
_atom_site_label
_atom_site_type_symbol
_atom_site_fract_x
_atom_site_fract_y
_atom_site_fract_z
_atom_type_partial_charge
O0 O 0.38264 0.16921 0.22769 0.0
Zn1 Zn 0.33104 0.11071 0.21645 0.0
O2 O 0.32169 0.0685 0.2533 0.0
Zn3 Zn 0.3272 0.0206 0.23276 0.0
Zn4 Zn 0.36384 0.09693 0.29076 0.0
Zn5 Zn 0.26472 0.04753 0.27392 0.0
O6 O 0.27182 0.96242 0.24095 0.0
O7 O 0.22708 0.98514 0.26111 0.0
O8 O 0.33529 0.08953 0.16806 0.0
O9 O 0.3322 0.02644 0.17994 0.0
O10 O 0.38271 0.02278 0.25005 0.0
O11 O 0.4084 0.07835 0.28806 0.0
O12 O 0.33683 0.08052 0.33933 0.0
O13 O 0.28213 0.12359 0.21519 0.0
O14 O 0.26633 0.04798 0.32673 0.0
O15 O 0.23797 0.0835 0.25842 0.0
C16 C 0.40114 0.1859 0.25702 0.0
C17 C 0.23408 0.95494 0.2505 0.0
C18 C 0.41188 0.04873 0.27168 0.0
C19 C 0.33481 0.05488 0.15789 0.0
C20 C 0.2971 0.06125 0.34915 0.0
C21 C 0.24848 0.11202 0.23416 0.0
O22 O 0.39451 0.16234 0.2844 0.0
O23 O 0.78236 0.6142 0.19953 0.0
Zn24 Zn 0.77092 0.66379 0.19089 0.0
O25 O 0.73811 0.66969 0.22972 0.0
Zn26 Zn 0.68423 0.66537 0.21187 0.0
Zn27 Zn 0.72569 0.62484 0.26425 0.0
Zn28 Zn 0.77373 0.72475 0.25335 0.0
O29 O 0.68283 0.72127 0.22239 0.0
O30 O 0.7504 0.76427 0.24286 0.0
O31 O 0.74121 0.65685 0.14397 0.0
O32 O 0.682 0.65977 0.15905 0.0
O33 O 0.63127 0.61002 0.23013 0.0
O34 O 0.66308 0.58002 0.26137 0.0
O35 O 0.73481 0.64734 0.31393 0.0
O36 O 0.83164 0.71528 0.18891 0.0
O37 O 0.77011 0.71901 0.30617 0.0
O38 O 0.8364 0.75137 0.2383 0.0
C39 C 0.78106 0.59397 0.22777 0.0
C40 C 0.71345 0.75837 0.2329 0.0
C41 C 0.62915 0.57872 0.24858 0.0
C42 C 0.70603 0.6564 0.13566 0.0
C43 C 0.75288 0.6859 0.32644 0.0
C44 C 0.85404 0.7452 0.21121 0.0
O45 O 0.7624 0.59707 0.25551 0.0
O46 O 0.82272 0.22474 0.21877 0.0
Zn47 Zn 0.88194 0.23098 0.21191 0.0
O48 O 0.91917 0.25974 0.25243 0.0
Zn49 Zn 0.97158 0.31226 0.23689 0.0
Zn50 Zn 0.88764 0.27394 0.28654 0.0
Zn51 Zn 0.93368 0.2201 0.27567 0.0
O52 O 0.02591 0.31013 0.25076 0.0
O53 O -0.0037 0.24039 0.26759 0.0
O54 O 0.9097 0.26086 0.16576 0.0
O55 O 0.97329 0.31545 0.18408 0.0
O56 O 0.97078 0.36648 0.25356 0.0
O57 O 0.90805 0.33752 0.28326 0.0
O58 O 0.89976 0.26359 0.33661 0.0
O59 O 0.86788 0.1685 0.20901 0.0
O60 O 0.92968 0.22215 0.32832 0.0
O61 O 0.89593 0.15844 0.25825 0.0
C62 C 0.8028 0.22438 0.24694 0.0
C63 C 0.02937 0.27733 0.26037 0.0
C64 C 0.94191 0.37046 0.27075 0.0
C65 C 0.94703 0.29388 0.15926 0.0
C66 C 0.91687 0.24199 0.34886 0.0
C67 C 0.87294 0.14352 0.23037 0.0
O68 O 0.82323 0.23939 0.27597 0.0
O69 O 0.16502 0.38908 0.77737 0.0
Zn70 Zn 0.10627 0.3372 0.78806 0.0
O71 O 0.06639 0.32612 0.74887 0.0
Zn72 Zn 0.0155 0.32861 0.76539 0.0
Zn73 Zn 0.09558 0.36855 0.71203 0.0
Zn74 Zn 0.05001 0.27009 0.72843 0.0
O75 O 0.95983 0.27123 0.75565 0.0
O76 O 0.98811 0.2294 0.74019 0.0
O77 O 0.08173 0.34328 0.83474 0.0
O78 O 0.01775 0.33474 0.81797 0.0
O79 O 0.016 0.38275 0.74632 0.0
O80 O 0.07673 0.41299 0.71398 0.0
O81 O 0.07952 0.34181 0.6634 0.0
O82 O 0.12044 0.28881 0.79259 0.0
O83 O 0.05047 0.27138 0.67554 0.0
O84 O 0.08875 0.24722 0.74562 0.0
C85 C 0.18292 0.40566 0.74783 0.0
C86 C 0.95564 0.23407 0.74804 0.0
C87 C 0.04411 0.41392 0.72723 0.0
C88 C 0.04523 0.34056 0.84206 0.0
C89 C 0.0618 0.30217 0.65331 0.0
C90 C 0.11376 0.2572 0.77242 0.0
O91 O 0.16046 0.39793 0.71964 0.0
O92 O 0.19946 0.82201 0.78322 0.0
Zn93 Zn 0.21107 0.88316 0.79153 0.0
O94 O 0.24574 0.9219 0.75341 0.0
Zn95 Zn 0.30141 0.96822 0.77193 0.0
Zn96 Zn 0.2546 0.8881 0.71763 0.0
Zn97 Zn 0.21362 0.94642 0.73125 0.0
O98 O 0.3065 0.02806 0.76522 0.0
O99 O 0.24002 0.00869 0.74479 0.0
O100 O 0.23919 0.90547 0.83914 0.0
O101 O 0.30389 0.96155 0.82443 0.0
O102 O 0.35199 0.96342 0.75123 0.0
O103 O 0.3166 0.90287 0.71884 0.0
O104 O 0.24543 0.90355 0.66845 0.0
O105 O 0.1507 0.87479 0.79146 0.0
O106 O 0.21811 0.94697 0.67841 0.0
O107 O 0.15041 0.91327 0.74519 0.0
C108 C 0.19893 0.80242 0.75479 0.0
C109 C 0.27742 0.03746 0.75593 0.0
C110 C 0.3518 0.93394 0.73153 0.0
C111 C 0.27695 0.9365 0.84762 0.0
C112 C 0.23156 0.92837 0.65714 0.0
C113 C 0.13057 0.88666 0.77033 0.0
O114 O 0.21622 0.82358 0.72649 0.0
O115 O 0.59942 0.77248 0.75204 0.0
Zn116 Zn 0.64839 0.76293 0.7665 0.0
O117 O 0.65865 0.72915 0.73086 0.0
Zn118 Zn 0.65219 0.67575 0.75245 0.0
Zn119 Zn 0.61782 0.71526 0.69213 0.0
Zn120 Zn 0.71656 0.76408 0.7116 0.0
O121 O 0.70799 0.67262 0.74866 0.0
O122 O 0.75261 0.73805 0.7254 0.0
O123 O 0.6376 0.7355 0.81483 0.0
O124 O 0.64184 0.67583 0.80446 0.0
O125 O 0.59881 0.62242 0.73295 0.0
O126 O 0.5736 0.65186 0.69409 0.0
O127 O 0.64708 0.72663 0.64454 0.0
O128 O 0.69921 0.82381 0.76991 0.0
O129 O 0.71712 0.76459 0.65878 0.0
O130 O 0.74502 0.82593 0.7289 0.0
C131 C 0.58052 0.76881 0.72259 0.0
C132 C 0.74572 0.70188 0.73829 0.0
C133 C 0.57025 0.61883 0.71052 0.0
C134 C 0.63659 0.70081 0.82566 0.0
C135 C 0.68714 0.74741 0.63566 0.0
C136 C 0.73456 0.84464 0.75258 0.0
O137 O 0.58635 0.74965 0.69635 0.0
C138 C 0.25696 0.93462 0.91116 0.0
C139 C 0.28917 0.94559 0.88523 0.0
C140 C 0.2688 0.94726 0.94624 0.0
C141 C 0.31305 0.97043 0.95607 0.0
C142 C 0.34515 0.97944 0.93053 0.0
C143 C 0.33337 0.96772 0.8953 0.0
C144 C 0.32628 0.98573 0.99276 0.0
C145 C 0.30664 0.00352 0.01142 0.0
C146 C 0.31876 0.0193 0.0482 0.0
C147 C 0.31226 0.05329 0.06014 0.0
C148 C 0.31974 0.06648 0.09544 0.0
C149 C 0.33295 0.04521 0.11972 0.0
H150 H 0.33812 0.97221 0.06397 0.0
C151 C 0.34044 0.01183 0.10759 0.0
C152 C 0.3336 -0.00091 0.07215 0.0
H153 H 0.35053 -0.00527 0.12567 0.0
H154 H 0.22266 0.91757 0.90416 0.0
H155 H 0.24335 0.93905 0.96564 0.0
H156 H 0.37942 -0.00312 0.93764 0.0
H157 H 0.35888 0.97629 0.87587 0.0
H158 H 0.35442 0.98507 0.0036 0.0
H159 H 0.28158 0.00816 -0.00119 0.0
H160 H 0.30066 0.06922 0.0422 0.0
H161 H 0.31336 0.09209 0.10397 0.0
C162 C 0.66826 0.72245 0.57292 0.0
C163 C 0.69946 0.7491 0.59811 0.0
C164 C 0.68077 0.72093 0.53821 0.0
C165 C 0.72477 0.74612 0.52797 0.0
C166 C 0.75555 0.77428 0.55266 0.0
C167 C 0.74314 0.77552 0.58746 0.0
C168 C 0.73938 0.74387 0.49173 0.0
C169 C 0.72032 0.70678 0.47254 0.0
C170 C 0.73347 0.70313 0.43602 0.0
C171 C 0.7203 0.66132 0.42246 0.0
C172 C 0.72843 0.65586 0.3873 0.0
C173 C 0.74972 0.69218 0.36476 0.0
H174 H 0.76596 0.7724 0.42284 0.0
C175 C 0.76423 0.73422 0.3786 0.0
C176 C 0.75607 0.73968 0.41379 0.0
H177 H 0.78047 0.76291 0.36192 0.0
H178 H 0.6343 0.70193 0.58017 0.0
H179 H 0.65591 0.70001 0.51948 0.0
H180 H 0.78952 0.79447 0.54528 0.0
H181 H 0.76795 0.79671 0.60614 0.0
H182 H 0.76805 0.7727 0.48172 0.0
H183 H 0.6944 0.67711 0.48443 0.0
H184 H 0.70279 0.63259 0.43894 0.0
H185 H 0.71676 0.62299 0.37756 0.0
C186 C 0.9348 0.28199 0.09386 0.0
C187 C 0.96153 0.30634 0.12224 0.0
C188 C 0.95001 0.29211 0.05912 0.0
C189 C -0.00773 0.32706 0.05202 0.0
C190 C 0.01867 0.35163 0.08036 0.0
C191 C 0.00347 0.3416 0.11502 0.0
C192 C 0.01089 0.33714 0.0158 0.0
C193 C 0.98623 0.32661 0.98642 0.0
C194 C 0.00437 0.33427 0.95004 0.0
C195 C 0.97861 0.33498 0.92216 0.0
C196 C -0.00734 0.33859 0.88728 0.0
C197 C 0.0328 0.34123 0.87933 0.0
H198 H 0.06548 0.33639 0.96284 0.0
C199 C 0.05917 0.34155 0.90726 0.0
C200 C 0.04507 0.33794 0.94225 0.0
H201 H 0.0901 0.34321 0.90207 0.0
H202 H 0.90247 0.25443 0.09847 0.0
H203 H 0.92905 0.27152 0.03815 0.0
H204 H 0.05141 0.37851 0.0757 0.0
H205 H 0.02505 0.36107 0.13619 0.0
H206 H 0.04622 0.35492 0.01354 0.0
H207 H 0.95114 0.31258 0.98887 0.0
H208 H 0.94709 0.33205 0.92733 0.0
H209 H 0.97145 0.33829 0.86649 0.0
C210 C 0.31745 0.0539 0.41118 0.0
C211 C 0.28602 0.05108 0.38694 0.0
C212 C 0.30571 0.03993 0.44603 0.0
C213 C 0.2623 0.02303 0.45736 0.0
C214 C 0.23144 0.02223 0.43363 0.0
C215 C 0.24303 0.03572 0.39869 0.0
C216 C 0.24831 0.00626 0.49372 0.0
C217 C 0.26625 0.98641 0.51202 0.0
C218 C 0.25293 0.969 0.5484 0.0
C219 C 0.26331 0.93775 0.56072 0.0
C220 C 0.25453 0.92297 0.59559 0.0
C221 C 0.23544 0.93946 0.61908 0.0
H222 H 0.22501 0.00943 0.56352 0.0
C223 C 0.22389 0.96985 0.6065 0.0
C224 C 0.23265 0.9846 0.5716 0.0
H225 H 0.20942 0.98348 0.62392 0.0
H226 H 0.35089 0.06579 0.40304 0.0
H227 H 0.33067 0.04239 0.46401 0.0
H228 H 0.19795 0.00994 0.44185 0.0
H229 H 0.21809 0.03347 0.38077 0.0
H230 H 0.22068 0.00782 0.50454 0.0
H231 H 0.29096 0.98127 0.4994 0.0
H232 H 0.27904 0.92524 0.54347 0.0
H233 H 0.26399 0.89964 0.60436 0.0
C234 C 0.63253 0.65312 0.87612 0.0
C235 C 0.63246 0.69074 0.86388 0.0
C236 C 0.63348 0.6458 0.91223 0.0
C237 C 0.63464 0.67611 0.93694 0.0
C238 C 0.63201 0.71234 0.92483 0.0
C239 C 0.63114 0.71975 0.88865 0.0
C240 C 0.63964 0.67146 0.97534 0.0
C241 C 0.66151 0.65218 0.98812 0.0
C242 C 0.67103 0.65146 0.02621 0.0
C243 C 0.70776 0.64841 0.03593 0.0
C244 C 0.71893 0.64948 0.07145 0.0
C245 C 0.69326 0.65318 0.09806 0.0
H246 H 0.61514 0.65468 0.04647 0.0
C247 C 0.65562 0.65474 0.08835 0.0
C248 C 0.64455 0.6538 0.05284 0.0
H249 H 0.63479 0.65709 0.10817 0.0
H250 H 0.63286 0.62968 0.85781 0.0
H251 H 0.6337 0.61657 0.92061 0.0
H252 H 0.63222 0.73586 0.94337 0.0
H253 H 0.63071 0.74886 0.88016 0.0
H254 H 0.6286 0.688 0.99323 0.0
H255 H 0.6763 0.63958 0.96987 0.0
H256 H 0.72846 0.64611 0.01594 0.0
H257 H 0.74796 0.64788 0.07797 0.0
C258 C 0.95201 0.22626 0.3999 0.0
C259 C 0.92727 0.24453 0.38702 0.0
C260 C 0.96776 0.23416 0.43452 0.0
C261 C 0.9587 0.26018 0.45731 0.0
C262 C 0.93253 0.27697 0.44482 0.0
C263 C 0.91692 0.26922 0.41012 0.0
C264 C 0.97807 0.27299 0.49328 0.0
C265 C -0.00359 0.253 0.51093 0.0
C266 C 0.01613 0.26715 0.54654 0.0
C267 C 0.01591 0.23595 0.56964 0.0
C268 C 0.03224 0.24764 0.60393 0.0
C269 C 0.04978 0.29104 0.61571 0.0
H270 H 0.03774 0.33625 0.54018 0.0
C271 C 0.05212 0.32277 0.59195 0.0
C272 C 0.03547 0.31097 0.55772 0.0
H273 H 0.06566 0.35654 0.60006 0.0
H274 H 0.96089 0.20732 0.3828 0.0
H275 H 0.98844 0.2212 0.44253 0.0
H276 H 0.92499 0.29713 0.46171 0.0
H277 H 0.89803 0.28388 0.4011 0.0
H278 H 0.97631 0.29969 0.50599 0.0
H279 H -0.00505 0.22382 0.50015 0.0
H280 H 0.00186 0.20212 0.56149 0.0
H281 H 0.03017 0.2224 0.62145 0.0
C282 C 0.473 0.04283 0.24454 0.0
C283 C 0.45377 0.04945 0.27459 0.0
C284 C 0.51736 0.05562 0.24471 0.0
C285 C 0.54278 0.07464 0.27511 0.0
C286 C 0.52235 0.07675 0.30615 0.0
C287 C 0.47831 0.06478 0.3058 0.0
C288 C 0.59099 0.09622 0.2746 0.0
C289 C 0.61455 0.11973 0.24665 0.0
C290 C 0.66274 0.14789 0.24737 0.0
C291 C 0.68586 0.15769 0.21546 0.0
C292 C 0.73127 0.18389 0.2151 0.0
C293 C 0.7545 0.20133 0.24669 0.0
H294 H 0.66896 0.16156 0.30375 0.0
C295 C 0.73114 0.19311 0.27845 0.0
C296 C 0.68575 0.16673 0.27882 0.0
H297 H 0.74793 0.20624 0.30324 0.0
H298 H 0.45475 0.03105 0.22015 0.0
H299 H 0.53207 0.05234 0.22067 0.0
H300 H 0.54117 0.09073 0.33001 0.0
H301 H 0.46408 0.06988 0.3294 0.0
H302 H 0.60722 0.09656 0.29904 0.0
H303 H 0.59798 0.11936 0.22237 0.0
H304 H 0.66882 0.1443 0.19079 0.0
H305 H 0.74818 0.18969 0.19012 0.0
C306 C 0.58073 0.5134 0.28423 0.0
C307 C 0.58742 0.53794 0.25336 0.0
C308 C 0.54708 0.47014 0.28602 0.0
C309 C 0.52009 0.45027 0.25657 0.0
C310 C 0.52403 0.47614 0.22705 0.0
C311 C 0.55754 0.51982 0.22542 0.0
C312 C 0.49032 0.40227 0.25478 0.0
C313 C 0.49917 0.37395 0.27177 0.0
C314 C 0.47346 0.32586 0.26733 0.0
C315 C 0.47409 0.2991 0.2945 0.0
C316 C 0.45127 0.25364 0.29099 0.0
C317 C 0.42787 0.23402 0.25995 0.0
H318 H 0.45077 0.32588 0.21397 0.0
C319 C 0.42818 0.26089 0.23237 0.0
C320 C 0.45071 0.30632 0.236 0.0
H321 H 0.41056 0.24687 0.20804 0.0
H322 H 0.6029 0.52705 0.30642 0.0
H323 H 0.54354 0.45196 0.30999 0.0
H324 H 0.50308 0.46178 0.20427 0.0
H325 H 0.56205 0.5382 0.20135 0.0
H326 H 0.46262 0.39016 0.23697 0.0
H327 H 0.52714 0.38616 0.2893 0.0
H328 H 0.49196 0.31342 0.31869 0.0
H329 H 0.4518 0.23391 0.31271 0.0
C330 C 0.95772 0.44124 0.24367 0.0
C331 C 0.94425 0.41317 0.27299 0.0
C332 C 0.94868 0.47555 0.24213 0.0
C333 C 0.92668 0.48243 0.27016 0.0
C334 C 0.91769 0.45734 0.30094 0.0
C335 C 0.92585 0.42257 0.30218 0.0
C336 C 0.90816 0.51169 0.26683 0.0
C337 C 0.88902 0.51395 0.23678 0.0
C338 C 0.86087 0.534 0.23495 0.0
C339 C 0.85553 0.54987 0.20248 0.0
C340 C 0.82853 0.56818 0.19978 0.0
C341 C 0.80585 0.57042 0.22949 0.0
H342 H 0.83874 0.5212 0.28951 0.0
C343 C 0.80995 0.553 0.26169 0.0
C344 C 0.83707 0.53492 0.2644 0.0
H345 H 0.79274 0.5539 0.28505 0.0
H346 H 0.972 0.43462 0.22086 0.0
H347 H 0.95706 0.49529 0.21844 0.0
H348 H 0.9012 0.46242 0.323 0.0
H349 H 0.91551 0.4015 0.32519 0.0
H350 H 0.90505 0.5268 0.29082 0.0
H351 H 0.89215 0.49869 0.21287 0.0
H352 H 0.8728 0.54869 0.17924 0.0
H353 H 0.82603 0.5812 0.17453 0.0
C354 C 0.0299 0.47138 0.75165 0.0
C355 C 0.04242 0.45456 0.7232 0.0
C356 C 0.03894 0.51477 0.75103 0.0
C357 C 0.06005 0.54155 0.7217 0.0
C358 C 0.06837 0.52323 0.69194 0.0
C359 C 0.06017 0.48027 0.69284 0.0
C360 C 0.07765 0.58941 0.72238 0.0
C361 C 0.09645 0.61343 0.7515 0.0
C362 C 0.12253 0.66193 0.75145 0.0
C363 C 0.12864 0.68441 0.78339 0.0
C364 C 0.15416 0.72995 0.78468 0.0
C365 C 0.17458 0.75401 0.75403 0.0
H366 H 0.14142 0.66976 0.69606 0.0
C367 C 0.16937 0.7314 0.72221 0.0
C368 C 0.14374 0.68589 0.72092 0.0
H369 H 0.18481 0.74885 0.69814 0.0
H370 H 0.01613 0.45215 0.77535 0.0
H371 H 0.03099 0.52776 0.77397 0.0
H372 H 0.08414 0.54311 0.6689 0.0
H373 H 0.06978 0.46786 0.67045 0.0
H374 H 0.0797 0.60539 0.69739 0.0
H375 H 0.09436 0.59702 0.77632 0.0
H376 H 0.11331 0.66671 0.80741 0.0
H377 H 0.15751 0.74627 0.80967 0.0
C378 C 0.39562 0.91166 0.69481 0.0
C379 C 0.3923 0.93275 0.72512 0.0
C380 C 0.42901 0.90175 0.69169 0.0
C381 C 0.45929 0.91198 0.71923 0.0
C382 C 0.45835 0.93667 0.74801 0.0
C383 C 0.42507 0.94705 0.75096 0.0
C384 C 0.48988 0.89464 0.72009 0.0
C385 C 0.48094 0.85687 0.70411 0.0
C386 C 0.50744 0.83538 0.70906 0.0
C387 C 0.50704 0.80723 0.68267 0.0
C388 C 0.53032 0.7851 0.68708 0.0
C389 C 0.55391 0.79021 0.7183 0.0
H390 H 0.53029 0.8601 0.76199 0.0
C391 C 0.55351 0.81771 0.74502 0.0
C392 C 0.53055 0.84003 0.74049 0.0
H393 H 0.57121 0.82233 0.76947 0.0
H394 H 0.37128 0.9012 0.67408 0.0
H395 H 0.42998 0.88482 0.66819 0.0
H396 H 0.48179 0.94564 0.76929 0.0
H397 H 0.42334 0.96352 0.77453 0.0
H398 H 0.51862 0.91155 0.73672 0.0
H399 H 0.45225 0.83976 0.68749 0.0
H400 H 0.48889 0.80257 0.65845 0.0
H401 H 0.52988 0.76411 0.66601 0.0
C402 C 0.25202 0.4429 0.71265 0.0
C403 C 0.23113 0.42995 0.74559 0.0
C404 C 0.29719 0.461 0.71003 0.0
C405 C 0.32244 0.4664 0.74036 0.0
C406 C 0.3018 0.45515 0.77339 0.0
C407 C 0.25662 0.43692 0.77601 0.0
C408 C 0.37051 0.48582 0.73886 0.0
C409 C 0.39226 0.48564 0.70973 0.0
C410 C 0.44036 0.5122 0.70768 0.0
C411 C 0.45923 0.5364 0.67694 0.0
C412 C 0.50304 0.56905 0.67679 0.0
C413 C 0.52882 0.57725 0.70718 0.0
H414 H 0.45358 0.49809 0.76057 0.0
C415 C 0.51121 0.54957 0.73655 0.0
C416 C 0.46713 0.51738 0.73688 0.0
H417 H 0.53041 0.55506 0.76027 0.0
H418 H 0.23344 0.43827 0.6887 0.0
H419 H 0.31203 0.47101 0.68424 0.0
H420 H 0.32059 0.45976 0.79723 0.0
H421 H 0.24165 0.42746 0.80185 0.0
H422 H 0.38871 0.50209 0.76259 0.0
H423 H 0.3747 0.46997 0.68567 0.0
H424 H 0.4393 0.53248 0.65396 0.0
H425 H 0.51601 0.58967 0.65366 0.0
C426 C 0.19822 0.13604 0.25847 0.0
C427 C 0.22473 0.13637 0.23075 0.0
C428 C 0.18102 0.16402 0.25777 0.0
C429 C 0.18978 0.19272 0.22921 0.0
C430 C 0.21406 0.19128 0.20055 0.0
C431 C 0.23186 0.1637 0.20146 0.0
C432 C 0.17205 0.22282 0.22841 0.0
C433 C 0.16893 0.24231 0.25793 0.0
C434 C 0.14055 0.2619 0.26018 0.0
C435 C 0.11685 0.25552 0.29141 0.0
C436 C 0.08245 0.26408 0.29231 0.0
C437 C 0.07216 0.28045 0.26233 0.0
H438 H 0.15138 0.28836 0.20698 0.0
C439 C 0.09874 0.29143 0.23229 0.0
C440 C 0.13273 0.28195 0.2311 0.0
H441 H 0.09107 0.30394 0.20888 0.0
H442 H 0.19197 0.11529 0.28135 0.0
H443 H 0.16084 0.16313 0.27963 0.0
H444 H 0.22035 0.21243 0.17794 0.0
H445 H 0.25194 0.16446 0.17956 0.0
H446 H 0.15921 0.22677 0.20348 0.0
H447 H 0.18227 0.238 0.28251 0.0
H448 H 0.12257 0.24052 0.31424 0.0
H449 H 0.06218 0.25544 0.31573 0.0
C450 C 0.92801 0.79 0.23779 0.0
C451 C 0.90213 0.76868 0.20818 0.0
C452 C 0.97292 0.8062 0.237 0.0
C453 C -0.00701 0.80171 0.20648 0.0
C454 C 0.9677 0.78281 0.1762 0.0
C455 C 0.92252 0.76592 0.17713 0.0
C456 C 0.04062 0.8186 0.20564 0.0
C457 C 0.062 0.81565 0.234 0.0
C458 C 0.10981 0.84318 0.23837 0.0
C459 C 0.12577 0.8592 0.27226 0.0
C460 C 0.16839 0.89338 0.27674 0.0
C461 C 0.19605 0.91107 0.24753 0.0
H462 H 0.12777 0.84539 0.18322 0.0
C463 C 0.18191 0.89181 0.21419 0.0
C464 C 0.13883 0.85806 0.20954 0.0
H465 H 0.20283 0.90535 0.1913 0.0
H466 H 0.91344 0.79282 0.2621 0.0
H467 H -0.00809 0.82225 0.26035 0.0
H468 H 0.98271 0.77994 0.15216 0.0
H469 H 0.90347 0.74985 0.15381 0.0
H470 H 0.05826 0.8361 0.18214 0.0
H471 H 0.04331 0.7976 0.25702 0.0
H472 H 0.10418 0.84796 0.29492 0.0
H473 H 0.17876 0.90808 0.30264 0.0
C474 C 0.8414 0.06676 0.25206 0.0
C475 C 0.84802 0.09579 0.22428 0.0
C476 C 0.81424 0.02183 0.24751 0.0
C477 C 0.79328 0.00494 0.215 0.0
C478 C 0.80122 0.03369 0.1868 0.0
C479 C 0.82794 0.07878 0.19149 0.0
C480 C 0.76545 0.95722 0.20953 0.0
C481 C 0.74046 0.93041 0.23552 0.0
C482 C 0.72262 0.8825 0.23449 0.0
C483 C 0.72126 0.86143 0.26624 0.0
C484 C 0.71435 0.81895 0.26592 0.0
C485 C 0.70734 0.79644 0.23394 0.0
H486 H 0.71133 0.87352 0.17789 0.0
C487 C 0.70407 0.81557 0.2025 0.0
C488 C 0.71181 0.85856 0.20271 0.0
H489 H 0.69899 0.79866 0.17755 0.0
H490 H 0.85642 0.07875 0.27763 0.0
H491 H 0.81017 0.00036 0.2694 0.0
H492 H 0.78612 0.0213 0.16131 0.0
H493 H 0.83257 0.10032 0.1695 0.0
H494 H 0.76796 0.94405 0.18428 0.0
H495 H 0.73825 0.94448 0.26045 0.0
H496 H 0.72909 0.87902 0.29108 0.0
H497 H 0.71723 0.80467 0.29041 0.0
C498 C 0.14559 0.21247 0.75015 0.0
C499 C 0.13933 0.23494 0.77811 0.0
C500 C 0.17353 0.19549 0.75406 0.0
C501 C 0.19556 0.20026 0.78613 0.0
C502 C 0.18795 0.22102 0.81457 0.0
C503 C 0.16055 0.23878 0.81048 0.0
C504 C 0.2243 0.1812 0.7907 0.0
C505 C 0.25004 0.18149 0.76435 0.0
C506 C 0.26899 0.15226 0.76347 0.0
C507 C 0.27419 0.13758 0.73035 0.0
C508 C 0.28167 0.10243 0.7279 0.0
C509 C 0.28535 0.08224 0.75853 0.0
H510 H 0.27462 0.14623 0.82014 0.0
C511 C 0.2851 0.09984 0.79166 0.0
C512 C 0.27693 0.13474 0.79418 0.0
H513 H 0.28743 0.0843 0.81559 0.0
H514 H 0.12978 0.20894 0.72488 0.0
H515 H 0.1775 0.17821 0.73202 0.0
H516 H 0.20391 0.22427 0.83973 0.0
H517 H 0.15624 0.25579 0.83256 0.0
H518 H 0.22173 0.16436 0.81533 0.0
H519 H 0.2522 0.19926 0.74026 0.0
H520 H 0.26871 0.15077 0.70628 0.0
H521 H 0.28132 0.08892 0.70211 0.0
C522 C 0.05888 0.82704 0.7931 0.0
C523 C 0.08242 0.86456 0.77206 0.0
C524 C 0.01349 0.80171 0.79022 0.0
C525 C -0.00924 0.81362 0.76629 0.0
C526 C 0.01412 0.85258 0.74697 0.0
C527 C 0.05941 0.87769 0.7497 0.0
C528 C 0.94328 0.78626 0.75926 0.0
C529 C 0.91705 0.7453 0.77134 0.0
C530 C 0.87054 0.72147 0.76081 0.0
C531 C 0.83778 0.70173 0.78651 0.0
C532 C 0.79455 0.6896 0.77814 0.0
C533 C 0.78416 0.69712 0.74402 0.0
H534 H 0.88332 0.73714 0.70517 0.0
C535 C 0.81594 0.7116 0.71745 0.0
C536 C 0.85877 0.72335 0.7257 0.0
H537 H 0.80846 0.71739 0.69091 0.0
H538 H 0.07563 0.81608 0.81074 0.0
H539 H -0.00314 0.77258 0.80623 0.0
H540 H -0.00253 0.86291 0.72864 0.0
H541 H 0.07646 0.90655 0.7333 0.0
H542 H 0.92909 0.80059 0.74204 0.0
H543 H 0.92846 0.72997 0.79004 0.0
H544 H 0.84619 0.69945 0.81364 0.0
H545 H 0.77049 0.67876 0.79907 0.0
C546 C 0.90201 0.16431 0.72106 0.0
C547 C 0.91278 0.19433 0.74873 0.0
C548 C 0.86879 0.12129 0.72524 0.0
C549 C 0.8464 0.1074 0.75749 0.0
C550 C 0.85382 0.13845 0.78375 0.0
C551 C 0.8871 0.18196 0.77941 0.0
C552 C 0.81921 0.06013 0.76495 0.0
C553 C 0.83409 0.03284 0.75614 0.0
C554 C 0.80931 0.98452 0.75922 0.0
C555 C 0.82621 0.96087 0.74204 0.0
C556 C 0.80274 0.91535 0.7411 0.0
C557 C 0.76189 0.89235 0.75763 0.0
H558 H 0.75556 0.9783 0.79154 0.0
C559 C 0.74593 0.9158 0.77653 0.0
C560 C 0.76936 0.96151 0.77728 0.0
H561 H 0.71459 0.89898 0.78971 0.0
H562 H 0.92127 0.17341 0.69706 0.0
H563 H 0.86256 0.0982 0.70409 0.0
H564 H 0.8364 0.12841 0.80861 0.0
H565 H 0.89518 0.20475 0.80112 0.0
H566 H 0.78828 0.04866 0.77831 0.0
H567 H 0.86641 0.04683 0.74438 0.0
H568 H 0.85714 0.9777 0.72821 0.0
H569 H 0.81615 0.89828 0.72658 0.0
loop_
_geom_bond_atom_site_label_1
_geom_bond_atom_site_label_2
_geom_bond_distance
_geom_bond_site_symmetry_2
_ccdc_geom_bond_type
O0 Zn1 1.953 . S
O0 C16 1.225 . S
Zn1 O0 1.953 . S
Zn1 O2 1.949 . S
Zn1 O8 1.919 . S
Zn1 O13 1.924 . S
O2 Zn1 1.949 . S
O2 Zn3 1.923 . S
O2 Zn4 1.950 . S
O2 Zn5 1.945 . S
Zn3 O2 1.923 . S
Zn3 O6 1.933 1_545 S
Zn3 O9 1.941 . S
Zn3 O10 1.965 . S
Zn4 O2 1.950 . S
Zn4 O11 1.938 . S
Zn4 O12 1.906 . S
Zn4 O22 1.953 . S
Zn5 O2 1.945 . S
Zn5 O7 1.932 . S
Zn5 O14 1.977 . S
Zn5 O15 1.910 . S
O6 Zn3 1.933 1_565 S
O6 C17 1.226 . S
O7 Zn5 1.932 . S
O7 C17 1.307 1_545 S
O8 Zn1 1.919 . S
O8 C19 1.253 . S
O9 Zn3 1.941 . S
O9 C19 1.283 . S
O10 Zn3 1.965 . S
O10 C18 1.303 . S
O11 Zn4 1.938 . S
O11 C18 1.247 . S
O12 Zn4 1.906 . S
O12 C20 1.304 . S
O13 Zn1 1.924 . S
O13 C21 1.311 . S
O14 Zn5 1.977 . S
O14 C20 1.272 . S
O15 Zn5 1.910 . S
O15 C21 1.231 . S
C16 O0 1.225 . S
C16 O22 1.298 . S
C17 O6 1.226 . S
C17 O7 1.307 1_565 S
C18 O10 1.303 . S
C18 O11 1.247 . S
C19 O8 1.253 . S
C19 O9 1.283 . S
C20 O12 1.304 . S
C20 O14 1.272 . S
C21 O13 1.311 . S
C21 O15 1.231 . S
O22 Zn4 1.953 . S
O22 C16 1.298 . S
O23 Zn24 1.953 . S
O23 C39 1.225 . S
Zn24 O23 1.953 . S
Zn24 O25 1.949 . S
Zn24 O31 1.919 . S
Zn24 O36 1.924 . S
O25 Zn24 1.949 . S
O25 Zn26 1.923 . S
O25 Zn27 1.950 . S
O25 Zn28 1.945 . S
Zn26 O25 1.923 . S
Zn26 O29 1.933 . S
Zn26 O32 1.941 . S
Zn26 O33 1.965 . S
Zn27 O25 1.950 . S
Zn27 O34 1.938 . S
Zn27 O35 1.906 . S
Zn27 O45 1.953 . S
Zn28 O25 1.945 . S
Zn28 O30 1.932 . S
Zn28 O37 1.977 . S
Zn28 O38 1.910 . S
O29 Zn26 1.933 . S
O29 C40 1.226 . S
O30 Zn28 1.932 . S
O30 C40 1.307 . S
O31 Zn24 1.919 . S
O31 C42 1.253 . S
O32 Zn26 1.941 . S
O32 C42 1.283 . S
O33 Zn26 1.965 . S
O33 C41 1.303 . S
O34 Zn27 1.938 . S
O34 C41 1.247 . S
O35 Zn27 1.906 . S
O35 C43 1.304 . S
O36 Zn24 1.924 . S
O36 C44 1.311 . S
O37 Zn28 1.977 . S
O37 C43 1.272 . S
O38 Zn28 1.910 . S
O38 C44 1.231 . S
C39 O23 1.225 . S
C39 O45 1.298 . S
C40 O29 1.226 . S
C40 O30 1.307 . S
C41 O33 1.303 . S
C41 O34 1.247 . S
C42 O31 1.253 . S
C42 O32 1.283 . S
C43 O35 1.304 . S
C43 O37 1.272 . S
C44 O36 1.311 . S
C44 O38 1.231 . S
O45 Zn27 1.953 . S
O45 C39 1.298 . S
O46 Zn47 1.953 . S
O46 C62 1.225 . S
Zn47 O46 1.953 . S
Zn47 O48 1.949 . S
Zn47 O54 1.919 . S
Zn47 O59 1.924 . S
O48 Zn47 1.949 . S
O48 Zn49 1.923 . S
O48 Zn50 1.950 . S
O48 Zn51 1.945 . S
Zn49 O48 1.923 . S
Zn49 O52 1.933 1_655 S
Zn49 O55 1.941 . S
Zn49 O56 1.965 . S
Zn50 O48 1.950 . S
Zn50 O57 1.938 . S
Zn50 O58 1.906 . S
Zn50 O68 1.953 . S
Zn51 O48 1.945 . S
Zn51 O53 1.932 . S
Zn51 O60 1.977 . S
Zn51 O61 1.910 . S
O52 Zn49 1.933 1_455 S
O52 C63 1.226 . S
O53 Zn51 1.932 . S
O53 C63 1.307 1_655 S
O54 Zn47 1.919 . S
O54 C65 1.253 . S
O55 Zn49 1.941 . S
O55 C65 1.283 . S
O56 Zn49 1.965 . S
O56 C64 1.303 . S
O57 Zn50 1.938 . S
O57 C64 1.247 . S
O58 Zn50 1.906 . S
O58 C66 1.304 . S
O59 Zn47 1.924 . S
O59 C67 1.311 . S
O60 Zn51 1.977 . S
O60 C66 1.272 . S
O61 Zn51 1.910 . S
O61 C67 1.231 . S
C62 O46 1.225 . S
C62 O68 1.298 . S
C63 O52 1.226 . S
C63 O53 1.307 1_455 S
C64 O56 1.303 . S
C64 O57 1.247 . S
C65 O54 1.253 . S
C65 O55 1.283 . S
C66 O58 1.304 . S
C66 O60 1.272 . S
C67 O59 1.311 . S
C67 O61 1.231 . S
O68 Zn50 1.953 . S
O68 C62 1.298 . S
O69 Zn70 1.953 . S
O69 C85 1.225 . S
Zn70 O69 1.953 . S
Zn70 O71 1.949 . S
Zn70 O77 1.919 . S
Zn70 O82 1.924 . S
O71 Zn70 1.949 . S
O71 Zn72 1.923 . S
O71 Zn73 1.950 . S
O71 Zn74 1.945 . S
Zn72 O71 1.923 . S
Zn72 O75 1.933 1_455 S
Zn72 O78 1.941 . S
Zn72 O79 1.965 . S
Zn73 O71 1.950 . S
Zn73 O80 1.938 . S
Zn73 O81 1.906 . S
Zn73 O91 1.953 . S
Zn74 O71 1.945 . S
Zn74 O76 1.932 . S
Zn74 O83 1.977 . S
Zn74 O84 1.910 . S
O75 Zn72 1.933 1_655 S
O75 C86 1.226 . S
O76 Zn74 1.932 . S
O76 C86 1.307 1_455 S
O77 Zn70 1.919 . S
O77 C88 1.253 . S
O78 Zn72 1.941 . S
O78 C88 1.283 . S
O79 Zn72 1.965 . S
O79 C87 1.303 . S
O80 Zn73 1.938 . S
O80 C87 1.247 . S
O81 Zn73 1.906 . S
O81 C89 1.304 . S
O82 Zn70 1.924 . S
O82 C90 1.311 . S
O83 Zn74 1.977 . S
O83 C89 1.272 . S
O84 Zn74 1.910 . S
O84 C90 1.231 . S
C85 O69 1.225 . S
C85 O91 1.298 . S
C86 O75 1.226 . S
C86 O76 1.307 1_655 S
C87 O79 1.303 . S
C87 O80 1.247 . S
C88 O77 1.253 . S
C88 O78 1.283 . S
C89 O81 1.304 . S
C89 O83 1.272 . S
C90 O82 1.311 . S
C90 O84 1.231 . S
O91 Zn73 1.953 . S
O91 C85 1.298 . S
O92 Zn93 1.953 . S
O92 C108 1.225 . S
Zn93 O92 1.953 . S
Zn93 O94 1.949 . S
Zn93 O100 1.919 . S
Zn93 O105 1.924 . S
O94 Zn93 1.949 . S
O94 Zn95 1.923 . S
O94 Zn96 1.950 . S
O94 Zn97 1.945 . S
Zn95 O94 1.923 . S
Zn95 O98 1.933 1_565 S
Zn95 O101 1.941 . S
Zn95 O102 1.965 . S
Zn96 O94 1.950 . S
Zn96 O103 1.938 . S
Zn96 O104 1.906 . S
Zn96 O114 1.953 . S
Zn97 O94 1.945 . S
Zn97 O99 1.932 . S
Zn97 O106 1.977 . S
Zn97 O107 1.910 . S
O98 Zn95 1.933 1_545 S
O98 C109 1.226 . S
O99 Zn97 1.932 . S
O99 C109 1.307 1_565 S
O100 Zn93 1.919 . S
O100 C111 1.253 . S
O101 Zn95 1.941 . S
O101 C111 1.283 . S
O102 Zn95 1.965 . S
O102 C110 1.303 . S
O103 Zn96 1.938 . S
O103 C110 1.247 . S
O104 Zn96 1.906 . S
O104 C112 1.304 . S
O105 Zn93 1.924 . S
O105 C113 1.311 . S
O106 Zn97 1.977 . S
O106 C112 1.272 . S
O107 Zn97 1.910 . S
O107 C113 1.231 . S
C108 O92 1.225 . S
C108 O114 1.298 . S
C109 O98 1.226 . S
C109 O99 1.307 1_545 S
C110 O102 1.303 . S
C110 O103 1.247 . S
C111 O100 1.253 . S
C111 O101 1.283 . S
C112 O104 1.304 . S
C112 O106 1.272 . S
C113 O105 1.311 . S
C113 O107 1.231 . S
O114 Zn96 1.953 . S
O114 C108 1.298 . S
O115 Zn116 1.953 . S
O115 C131 1.225 . S
Zn116 O115 1.953 . S
Zn116 O117 1.949 . S
Zn116 O123 1.919 . S
Zn116 O128 1.924 . S
O117 Zn116 1.949 . S
O117 Zn118 1.923 . S
O117 Zn119 1.950 . S
O117 Zn120 1.945 . S
Zn118 O117 1.923 . S
Zn118 O121 1.933 . S
Zn118 O124 1.941 . S
Zn118 O125 1.965 . S
Zn119 O117 1.950 . S
Zn119 O126 1.938 . S
Zn119 O127 1.906 . S
Zn119 O137 1.953 . S
Zn120 O117 1.945 . S
Zn120 O122 1.932 . S
Zn120 O129 1.977 . S
Zn120 O130 1.910 . S
O121 Zn118 1.933 . S
O121 C132 1.226 . S
O122 Zn120 1.932 . S
O122 C132 1.307 . S
O123 Zn116 1.919 . S
O123 C134 1.253 . S
O124 Zn118 1.941 . S
O124 C134 1.283 . S
O125 Zn118 1.965 . S
O125 C133 1.303 . S
O126 Zn119 1.938 . S
O126 C133 1.247 . S
O127 Zn119 1.906 . S
O127 C135 1.304 . S
O128 Zn116 1.924 . S
O128 C136 1.311 . S
O129 Zn120 1.977 . S
O129 C135 1.272 . S
O130 Zn120 1.910 . S
O130 C136 1.231 . S
C131 O115 1.225 . S
C131 O137 1.298 . S
C132 O121 1.226 . S
C132 O122 1.307 . S
C133 O125 1.303 . S
C133 O126 1.247 . S
C134 O123 1.253 . S
C134 O124 1.283 . S
C135 O127 1.304 . S
C135 O129 1.272 . S
C136 O128 1.311 . S
C136 O130 1.231 . S
O137 Zn119 1.953 . S
O137 C131 1.298 . S
C138 C139 1.386 . S
C138 C140 1.383 . S
C138 H154 0.951 . S
C139 C138 1.386 . S
C139 C143 1.383 . S
C140 C138 1.383 . S
C140 C141 1.402 . S
C140 H155 0.951 . S
C141 C140 1.402 . S
C141 C142 1.375 . S
C141 C144 1.481 . S
C142 C141 1.375 . S
C142 C143 1.367 . S
C142 H156 0.951 . S
C143 C139 1.383 . S
C143 C142 1.367 . S
C143 H157 0.950 . S
C144 C141 1.481 . S
C144 C145 1.297 1_556 S
C144 H158 0.950 1_565 S
C145 C144 1.297 1_554 S
C145 C146 1.479 1_565 S
C145 H159 0.950 . S
C146 C145 1.479 1_545 S
C146 C147 1.375 . S
C146 C152 1.404 . S
C147 C146 1.375 . S
C147 C148 1.369 . S
C147 H160 0.950 1_545 S
C148 C147 1.369 . S
C148 C149 1.392 . S
C148 H161 0.951 . S
C149 C148 1.392 . S
C149 C151 1.384 . S
H150 C152 0.949 . S
C151 C149 1.384 . S
C151 C152 1.385 . S
C151 H153 0.950 . S
C152 C146 1.404 . S
C152 H150 0.949 . S
C152 C151 1.385 . S
H153 C151 0.950 . S
H154 C138 0.951 . S
H155 C140 0.951 . S
H156 C142 0.951 . S
H157 C143 0.950 . S
H158 C144 0.950 1_545 S
H159 C145 0.950 . S
H160 C147 0.950 1_565 S
H161 C148 0.951 . S
C162 C163 1.386 . S
C162 C164 1.383 . S
C162 H178 0.951 . S
C163 C162 1.386 . S
C163 C167 1.383 . S
C164 C162 1.383 . S
C164 C165 1.402 . S
C164 H179 0.951 . S
C165 C164 1.402 . S
C165 C166 1.375 . S
C165 C168 1.481 . S
C166 C165 1.375 . S
C166 C167 1.367 . S
C166 H180 0.951 . S
C167 C163 1.383 . S
C167 C166 1.367 . S
C167 H181 0.950 . S
C168 C165 1.481 . S
C168 C169 1.297 . S
C168 H182 0.950 . S
C169 C168 1.297 . S
C169 C170 1.479 . S
C169 H183 0.950 . S
C170 C169 1.479 . S
C170 C171 1.375 . S
C170 C176 1.404 . S
C171 C170 1.375 . S
C171 C172 1.369 . S
C171 H184 0.950 . S
C172 C171 1.369 . S
C172 C173 1.392 . S
C172 H185 0.951 . S
C173 C172 1.392 . S
C173 C175 1.384 . S
H174 C176 0.949 . S
C175 C173 1.384 . S
C175 C176 1.385 . S
C175 H177 0.950 . S
C176 C170 1.404 . S
C176 H174 0.949 . S
C176 C175 1.385 . S
H177 C175 0.950 . S
H178 C162 0.951 . S
H179 C164 0.951 . S
H180 C166 0.951 . S
H181 C167 0.950 . S
H182 C168 0.950 . S
H183 C169 0.950 . S
H184 C171 0.950 . S
H185 C172 0.951 . S
C186 C187 1.386 . S
C186 C188 1.383 . S
C186 H202 0.951 . S
C187 C186 1.386 . S
C187 C191 1.383 . S
C188 C186 1.383 . S
C188 C189 1.402 . S
C188 H203 0.951 . S
C189 C188 1.402 . S
C189 C190 1.375 1_655 S
C189 C192 1.481 1_655 S
C190 C189 1.375 1_455 S
C190 C191 1.367 1_455 S
C190 H204 0.951 . S
C191 C187 1.383 . S
C191 C190 1.367 1_655 S
C191 H205 0.949 . S
C192 C189 1.481 1_455 S
C192 C193 1.297 1_554 S
C192 H206 0.950 . S
C193 C192 1.297 1_556 S
C193 C194 1.479 . S
C193 H207 0.950 1_455 S
C194 C193 1.479 . S
C194 C195 1.375 . S
C194 C200 1.404 . S
C195 C194 1.375 . S
C195 C196 1.369 . S
C195 H208 0.950 1_455 S
C196 C195 1.369 . S
C196 C197 1.392 . S
C196 H209 0.951 . S
C197 C196 1.392 . S
C197 C199 1.384 . S
H198 C200 0.949 . S
C199 C197 1.384 . S
C199 C200 1.385 . S
C199 H201 0.950 . S
C200 C194 1.404 . S
C200 H198 0.949 . S
C200 C199 1.385 . S
H201 C199 0.950 . S
H202 C186 0.951 . S
H203 C188 0.951 . S
H204 C190 0.951 . S
H205 C191 0.949 . S
H206 C192 0.950 . S
H207 C193 0.950 1_655 S
H208 C195 0.950 1_655 S
H209 C196 0.951 . S
C210 C211 1.386 . S
C210 C212 1.383 . S
C210 H226 0.951 . S
C211 C210 1.386 . S
C211 C215 1.383 . S
C212 C210 1.383 . S
C212 C213 1.402 . S
C212 H227 0.951 1_545 S
C213 C212 1.402 . S
C213 C214 1.375 . S
C213 C216 1.481 . S
C214 C213 1.375 . S
C214 C215 1.367 . S
C214 H228 0.951 . S
C215 C211 1.383 . S
C215 C214 1.367 . S
C215 H229 0.950 . S
C216 C213 1.481 . S
C216 C217 1.297 . S
C216 H230 0.950 . S
C217 C216 1.297 . S
C217 C218 1.479 1_545 S
C217 H231 0.950 1_545 S
C218 C217 1.479 1_565 S
C218 C219 1.375 . S
C218 C224 1.404 1_565 S
C219 C218 1.375 . S
C219 C220 1.369 . S
C219 H232 0.950 . S
C220 C219 1.369 . S
C220 C221 1.392 . S
C220 H233 0.951 . S
C221 C220 1.392 . S
C221 C223 1.384 . S
H222 C224 0.949 . S
C223 C221 1.384 . S
C223 C224 1.385 1_565 S
C223 H225 0.950 . S
C224 C218 1.404 1_545 S
C224 H222 0.949 . S
C224 C223 1.385 1_545 S
H225 C223 0.950 . S
H226 C210 0.951 . S
H227 C212 0.951 1_565 S
H228 C214 0.951 . S
H229 C215 0.950 . S
H230 C216 0.950 . S
H231 C217 0.950 1_565 S
H232 C219 0.950 . S
H233 C220 0.951 . S
C234 C235 1.386 . S
C234 C236 1.383 . S
C234 H250 0.951 . S
C235 C234 1.386 . S
C235 C239 1.383 . S
C236 C234 1.383 . S
C236 C237 1.402 . S
C236 H251 0.951 . S
C237 C236 1.402 . S
C237 C238 1.375 . S
C237 C240 1.481 . S
C238 C237 1.375 . S
C238 C239 1.367 . S
C238 H252 0.951 . S
C239 C235 1.383 . S
C239 C238 1.367 . S
C239 H253 0.950 . S
C240 C237 1.481 . S
C240 C241 1.297 1_556 S
C240 H254 0.950 1_556 S
C241 C240 1.297 1_554 S
C241 C242 1.479 . S
C241 H255 0.950 1_554 S
C242 C241 1.479 . S
C242 C243 1.375 . S
C242 C248 1.404 . S
C243 C242 1.375 . S
C243 C244 1.369 . S
C243 H256 0.950 . S
C244 C243 1.369 . S
C244 C245 1.392 . S
C244 H257 0.951 . S
C245 C244 1.392 . S
C245 C247 1.384 . S
H246 C248 0.949 . S
C247 C245 1.384 . S
C247 C248 1.385 . S
C247 H249 0.950 . S
C248 C242 1.404 . S
C248 H246 0.949 . S
C248 C247 1.385 . S
H249 C247 0.950 . S
H250 C234 0.951 . S
H251 C236 0.951 . S
H252 C238 0.951 . S
H253 C239 0.950 . S
H254 C240 0.950 1_554 S
H255 C241 0.950 1_556 S
H256 C243 0.950 . S
H257 C244 0.951 . S
C258 C259 1.386 . S
C258 C260 1.383 . S
C258 H274 0.951 . S
C259 C258 1.386 . S
C259 C263 1.383 . S
C260 C258 1.383 . S
C260 C261 1.402 . S
C260 H275 0.951 . S
C261 C260 1.402 . S
C261 C262 1.375 1_655 S
C261 C264 1.481 1_655 S
C262 C261 1.375 1_455 S
C262 C263 1.367 1_455 S
C262 H276 0.951 . S
C263 C259 1.383 . S
C263 C262 1.367 1_655 S
C263 H277 0.950 . S
C264 C261 1.481 1_455 S
C264 C265 1.297 . S
C264 H278 0.950 . S
C265 C264 1.297 . S
C265 C266 1.479 . S
C265 H279 0.950 1_455 S
C266 C265 1.479 . S
C266 C267 1.375 . S
C266 C272 1.404 . S
C267 C266 1.375 . S
C267 C268 1.369 . S
C267 H280 0.950 1_455 S
C268 C267 1.369 . S
C268 C269 1.392 . S
C268 H281 0.951 . S
C269 C268 1.392 . S
C269 C271 1.384 . S
H270 C272 0.949 . S
C271 C269 1.384 . S
C271 C272 1.385 . S
C271 H273 0.950 . S
C272 C266 1.404 . S
C272 H270 0.949 . S
C272 C271 1.385 . S
H273 C271 0.950 . S
H274 C258 0.951 . S
H275 C260 0.951 . S
H276 C262 0.951 . S
H277 C263 0.950 . S
H278 C264 0.950 . S
H279 C265 0.950 1_655 S
H280 C267 0.950 1_655 S
H281 C268 0.951 . S
C282 C283 1.386 . S
C282 C284 1.383 . S
C282 H298 0.951 . S
C283 C282 1.386 . S
C283 C287 1.383 . S
C284 C282 1.383 . S
C284 C285 1.402 . S
C284 H299 0.951 . S
C285 C284 1.402 . S
C285 C286 1.375 . S
C285 C288 1.481 . S
C286 C285 1.375 . S
C286 C287 1.367 . S
C286 H300 0.951 . S
C287 C283 1.383 . S
C287 C286 1.367 . S
C287 H301 0.950 . S
C288 C285 1.481 . S
C288 C289 1.297 . S
C288 H302 0.950 . S
C289 C288 1.297 . S
C289 C290 1.479 . S
C289 H303 0.950 . S
C290 C289 1.479 . S
C290 C291 1.375 . S
C290 C296 1.404 . S
C291 C290 1.375 . S
C291 C292 1.369 . S
C291 H304 0.950 . S
C292 C291 1.369 . S
C292 C293 1.392 . S
C292 H305 0.951 . S
C293 C292 1.392 . S
C293 C295 1.384 . S
H294 C296 0.949 . S
C295 C293 1.384 . S
C295 C296 1.385 . S
C295 H297 0.950 . S
C296 C290 1.404 . S
C296 H294 0.949 . S
C296 C295 1.385 . S
H297 C295 0.950 . S
H298 C282 0.951 . S
H299 C284 0.951 . S
H300 C286 0.951 . S
H301 C287 0.950 . S
H302 C288 0.950 . S
H303 C289 0.950 . S
H304 C291 0.950 . S
H305 C292 0.951 . S
C306 C307 1.386 . S
C306 C308 1.383 . S
C306 H322 0.951 . S
C307 C306 1.386 . S
C307 C311 1.383 . S
C308 C306 1.383 . S
C308 C309 1.402 . S
C308 H323 0.951 . S
C309 C308 1.402 . S
C309 C310 1.375 . S
C309 C312 1.481 . S
C310 C309 1.375 . S
C310 C311 1.367 . S
C310 H324 0.951 . S
C311 C307 1.383 . S
C311 C310 1.367 . S
C311 H325 0.950 . S
C312 C309 1.481 . S
C312 C313 1.297 . S
C312 H326 0.950 . S
C313 C312 1.297 . S
C313 C314 1.479 . S
C313 H327 0.950 . S
C314 C313 1.479 . S
C314 C315 1.375 . S
C314 C320 1.404 . S
C315 C314 1.375 . S
C315 C316 1.369 . S
C315 H328 0.950 . S
C316 C315 1.369 . S
C316 C317 1.392 . S
C316 H329 0.951 . S
C317 C316 1.392 . S
C317 C319 1.384 . S
H318 C320 0.949 . S
C319 C317 1.384 . S
C319 C320 1.385 . S
C319 H321 0.950 . S
C320 C314 1.404 . S
C320 H318 0.949 . S
C320 C319 1.385 . S
H321 C319 0.950 . S
H322 C306 0.951 . S
H323 C308 0.951 . S
H324 C310 0.951 . S
H325 C311 0.950 . S
H326 C312 0.950 . S
H327 C313 0.950 . S
H328 C315 0.950 . S
H329 C316 0.951 . S
C330 C331 1.386 . S
C330 C332 1.383 . S
C330 H346 0.951 . S
C331 C330 1.386 . S
C331 C335 1.383 . S
C332 C330 1.383 . S
C332 C333 1.402 . S
C332 H347 0.951 . S
C333 C332 1.402 . S
C333 C334 1.375 . S
C333 C336 1.481 . S
C334 C333 1.375 . S
C334 C335 1.367 . S
C334 H348 0.951 . S
C335 C331 1.383 . S
C335 C334 1.367 . S
C335 H349 0.950 . S
C336 C333 1.481 . S
C336 C337 1.297 . S
C336 H350 0.950 . S
C337 C336 1.297 . S
C337 C338 1.479 . S
C337 H351 0.950 . S
C338 C337 1.479 . S
C338 C339 1.375 . S
C338 C344 1.404 . S
C339 C338 1.375 . S
C339 C340 1.369 . S
C339 H352 0.950 . S
C340 C339 1.369 . S
C340 C341 1.392 . S
C340 H353 0.951 . S
C341 C340 1.392 . S
C341 C343 1.384 . S
H342 C344 0.949 . S
C343 C341 1.384 . S
C343 C344 1.385 . S
C343 H345 0.950 . S
C344 C338 1.404 . S
C344 H342 0.949 . S
C344 C343 1.385 . S
H345 C343 0.950 . S
H346 C330 0.951 . S
H347 C332 0.951 . S
H348 C334 0.951 . S
H349 C335 0.950 . S
H350 C336 0.950 . S
H351 C337 0.950 . S
H352 C339 0.950 . S
H353 C340 0.951 . S
C354 C355 1.386 . S
C354 C356 1.383 . S
C354 H370 0.951 . S
C355 C354 1.386 . S
C355 C359 1.383 . S
C356 C354 1.383 . S
C356 C357 1.402 . S
C356 H371 0.951 . S
C357 C356 1.402 . S
C357 C358 1.375 . S
C357 C360 1.481 . S
C358 C357 1.375 . S
C358 C359 1.367 . S
C358 H372 0.951 . S
C359 C355 1.383 . S
C359 C358 1.367 . S
C359 H373 0.950 . S
C360 C357 1.481 . S
C360 C361 1.297 . S
C360 H374 0.950 . S
C361 C360 1.297 . S
C361 C362 1.479 . S
C361 H375 0.950 . S
C362 C361 1.479 . S
C362 C363 1.375 . S
C362 C368 1.404 . S
C363 C362 1.375 . S
C363 C364 1.369 . S
C363 H376 0.950 . S
C364 C363 1.369 . S
C364 C365 1.392 . S
C364 H377 0.951 . S
C365 C364 1.392 . S
C365 C367 1.384 . S
H366 C368 0.949 . S
C367 C365 1.384 . S
C367 C368 1.385 . S
C367 H369 0.950 . S
C368 C362 1.404 . S
C368 H366 0.949 . S
C368 C367 1.385 . S
H369 C367 0.950 . S
H370 C354 0.951 . S
H371 C356 0.951 . S
H372 C358 0.951 . S
H373 C359 0.950 . S
H374 C360 0.950 . S
H375 C361 0.950 . S
H376 C363 0.950 . S
H377 C364 0.951 . S
C378 C379 1.386 . S
C378 C380 1.383 . S
C378 H394 0.951 . S
C379 C378 1.386 . S
C379 C383 1.383 . S
C380 C378 1.383 . S
C380 C381 1.402 . S
C380 H395 0.951 . S
C381 C380 1.402 . S
C381 C382 1.375 . S
C381 C384 1.481 . S
C382 C381 1.375 . S
C382 C383 1.367 . S
C382 H396 0.951 . S
C383 C379 1.383 . S
C383 C382 1.367 . S
C383 H397 0.950 . S
C384 C381 1.481 . S
C384 C385 1.297 . S
C384 H398 0.950 . S
C385 C384 1.297 . S
C385 C386 1.479 . S
C385 H399 0.950 . S
C386 C385 1.479 . S
C386 C387 1.375 . S
C386 C392 1.404 . S
C387 C386 1.375 . S
C387 C388 1.369 . S
C387 H400 0.950 . S
C388 C387 1.369 . S
C388 C389 1.392 . S
C388 H401 0.951 . S
C389 C388 1.392 . S
C389 C391 1.384 . S
H390 C392 0.949 . S
C391 C389 1.384 . S
C391 C392 1.385 . S
C391 H393 0.950 . S
C392 C386 1.404 . S
C392 H390 0.949 . S
C392 C391 1.385 . S
H393 C391 0.950 . S
H394 C378 0.951 . S
H395 C380 0.951 . S
H396 C382 0.951 . S
H397 C383 0.950 . S
H398 C384 0.950 . S
H399 C385 0.950 . S
H400 C387 0.950 . S
H401 C388 0.951 . S
C402 C403 1.386 . S
C402 C404 1.383 . S
C402 H418 0.951 . S
C403 C402 1.386 . S
C403 C407 1.383 . S
C404 C402 1.383 . S
C404 C405 1.402 . S
C404 H419 0.951 . S
C405 C404 1.402 . S
C405 C406 1.375 . S
C405 C408 1.481 . S
C406 C405 1.375 . S
C406 C407 1.367 . S
C406 H420 0.951 . S
C407 C403 1.383 . S
C407 C406 1.367 . S
C407 H421 0.950 . S
C408 C405 1.481 . S
C408 C409 1.297 . S
C408 H422 0.950 . S
C409 C408 1.297 . S
C409 C410 1.479 . S
C409 H423 0.950 . S
C410 C409 1.479 . S
C410 C411 1.375 . S
C410 C416 1.404 . S
C411 C410 1.375 . S
C411 C412 1.369 . S
C411 H424 0.950 . S
C412 C411 1.369 . S
C412 C413 1.392 . S
C412 H425 0.951 . S
C413 C412 1.392 . S
C413 C415 1.384 . S
H414 C416 0.949 . S
C415 C413 1.384 . S
C415 C416 1.385 . S
C415 H417 0.950 . S
C416 C410 1.404 . S
C416 H414 0.949 . S
C416 C415 1.385 . S
H417 C415 0.950 . S
H418 C402 0.951 . S
H419 C404 0.951 . S
H420 C406 0.951 . S
H421 C407 0.950 . S
H422 C408 0.950 . S
H423 C409 0.950 . S
H424 C411 0.950 . S
H425 C412 0.951 . S
C426 C427 1.386 . S
C426 C428 1.383 . S
C426 H442 0.951 . S
C427 C426 1.386 . S
C427 C431 1.383 . S
C428 C426 1.383 . S
C428 C429 1.402 . S
C428 H443 0.951 . S
C429 C428 1.402 . S
C429 C430 1.375 . S
C429 C432 1.481 . S
C430 C429 1.375 . S
C430 C431 1.367 . S
C430 H444 0.951 . S
C431 C427 1.383 . S
C431 C430 1.367 . S
C431 H445 0.950 . S
C432 C429 1.481 . S
C432 C433 1.297 . S
C432 H446 0.950 . S
C433 C432 1.297 . S
C433 C434 1.479 . S
C433 H447 0.950 . S
C434 C433 1.479 . S
C434 C435 1.375 . S
C434 C440 1.404 . S
C435 C434 1.375 . S
C435 C436 1.369 . S
C435 H448 0.950 . S
C436 C435 1.369 . S
C436 C437 1.392 . S
C436 H449 0.951 . S
C437 C436 1.392 . S
C437 C439 1.384 . S
H438 C440 0.949 . S
C439 C437 1.384 . S
C439 C440 1.385 . S
C439 H441 0.950 . S
C440 C434 1.404 . S
C440 H438 0.949 . S
C440 C439 1.385 . S
H441 C439 0.950 . S
H442 C426 0.951 . S
H443 C428 0.951 . S
H444 C430 0.951 . S
H445 C431 0.950 . S
H446 C432 0.950 . S
H447 C433 0.950 . S
H448 C435 0.950 . S
H449 C436 0.951 . S
C450 C451 1.386 . S
C450 C452 1.383 . S
C450 H466 0.951 . S
C451 C450 1.386 . S
C451 C455 1.383 . S
C452 C450 1.383 . S
C452 C453 1.402 1_655 S
C452 H467 0.950 1_655 S
C453 C452 1.402 1_455 S
C453 C454 1.375 1_455 S
C453 C456 1.481 . S
C454 C453 1.375 1_655 S
C454 C455 1.367 . S
C454 H468 0.939 1_655 S
C455 C451 1.383 . S
C455 C454 1.367 . S
C455 H469 0.950 . S
C456 C453 1.481 . S
C456 C457 1.297 . S
C456 H470 0.950 . S
C457 C456 1.297 . S
C457 C458 1.479 . S
C457 H471 0.950 . S
C458 C457 1.479 . S
C458 C459 1.375 . S
C458 C464 1.404 . S
C459 C458 1.375 . S
C459 C460 1.369 . S
C459 H472 0.950 . S
C460 C459 1.369 . S
C460 C461 1.392 . S
C460 H473 0.951 . S
C461 C460 1.392 . S
C461 C463 1.384 . S
H462 C464 0.949 . S
C463 C461 1.384 . S
C463 C464 1.385 . S
C463 H465 0.950 . S
C464 C458 1.404 . S
C464 H462 0.949 . S
C464 C463 1.385 . S
H465 C463 0.950 . S
H466 C450 0.951 . S
H467 C452 0.950 1_455 S
H468 C454 0.939 1_455 S
H469 C455 0.950 . S
H470 C456 0.950 . S
H471 C457 0.950 . S
H472 C459 0.950 . S
H473 C460 0.951 . S
C474 C475 1.386 . S
C474 C476 1.383 . S
C474 H490 0.951 . S
C475 C474 1.386 . S
C475 C479 1.383 . S
C476 C474 1.383 . S
C476 C477 1.402 1_545 S
C476 H491 0.951 1_545 S
C477 C476 1.402 1_565 S
C477 C478 1.375 1_565 S
C477 C480 1.481 . S
C478 C477 1.375 1_545 S
C478 C479 1.367 . S
C478 H492 0.951 . S
C479 C475 1.383 . S
C479 C478 1.367 . S
C479 H493 0.950 . S
C480 C477 1.481 . S
C480 C481 1.297 . S
C480 H494 0.950 . S
C481 C480 1.297 . S
C481 C482 1.479 . S
C481 H495 0.950 . S
C482 C481 1.479 . S
C482 C483 1.375 . S
C482 C488 1.404 . S
C483 C482 1.375 . S
C483 C484 1.369 . S
C483 H496 0.950 . S
C484 C483 1.369 . S
C484 C485 1.392 . S
C484 H497 0.951 . S
C485 C484 1.392 . S
C485 C487 1.384 . S
H486 C488 0.949 . S
C487 C485 1.384 . S
C487 C488 1.385 . S
C487 H489 0.950 . S
C488 C482 1.404 . S
C488 H486 0.949 . S
C488 C487 1.385 . S
H489 C487 0.950 . S
H490 C474 0.951 . S
H491 C476 0.951 1_565 S
H492 C478 0.951 . S
H493 C479 0.950 . S
H494 C480 0.950 . S
H495 C481 0.950 . S
H496 C483 0.950 . S
H497 C484 0.951 . S
C498 C499 1.386 . S
C498 C500 1.383 . S
C498 H514 0.951 . S
C499 C498 1.386 . S
C499 C503 1.383 . S
C500 C498 1.383 . S
C500 C501 1.402 . S
C500 H515 0.951 . S
C501 C500 1.402 . S
C501 C502 1.375 . S
C501 C504 1.481 . S
C502 C501 1.375 . S
C502 C503 1.367 . S
C502 H516 0.951 . S
C503 C499 1.383 . S
C503 C502 1.367 . S
C503 H517 0.950 . S
C504 C501 1.481 . S
C504 C505 1.297 . S
C504 H518 0.950 . S
C505 C504 1.297 . S
C505 C506 1.479 . S
C505 H519 0.950 . S
C506 C505 1.479 . S
C506 C507 1.375 . S
C506 C512 1.404 . S
C507 C506 1.375 . S
C507 C508 1.369 . S
C507 H520 0.950 . S
C508 C507 1.369 . S
C508 C509 1.392 . S
C508 H521 0.951 . S
C509 C508 1.392 . S
C509 C511 1.384 . S
H510 C512 0.949 . S
C511 C509 1.384 . S
C511 C512 1.385 . S
C511 H513 0.950 . S
C512 C506 1.404 . S
C512 H510 0.949 . S
C512 C511 1.385 . S
H513 C511 0.950 . S
H514 C498 0.951 . S
H515 C500 0.951 . S
H516 C502 0.951 . S
H517 C503 0.950 . S
H518 C504 0.950 . S
H519 C505 0.950 . S
H520 C507 0.950 . S
H521 C508 0.951 . S
C522 C523 1.386 . S
C522 C524 1.383 . S
C522 H538 0.951 . S
C523 C522 1.386 . S
C523 C527 1.383 . S
C524 C522 1.383 . S
C524 C525 1.402 1_455 S
C524 H539 0.951 1_455 S
C525 C524 1.402 1_655 S
C525 C526 1.375 1_655 S
C525 C528 1.481 . S
C526 C525 1.375 1_455 S
C526 C527 1.367 . S
C526 H540 0.951 . S
C527 C523 1.383 . S
C527 C526 1.367 . S
C527 H541 0.950 . S
C528 C525 1.481 . S
C528 C529 1.297 . S
C528 H542 0.950 . S
C529 C528 1.297 . S
C529 C530 1.479 . S
C529 H543 0.950 . S
C530 C529 1.479 . S
C530 C531 1.375 . S
C530 C536 1.404 . S
C531 C530 1.375 . S
C531 C532 1.369 . S
C531 H544 0.950 . S
C532 C531 1.369 . S
C532 C533 1.392 . S
C532 H545 0.951 . S
C533 C532 1.392 . S
C533 C535 1.384 . S
H534 C536 0.949 . S
C535 C533 1.384 . S
C535 C536 1.385 . S
C535 H537 0.950 . S
C536 C530 1.404 . S
C536 H534 0.949 . S
C536 C535 1.385 . S
H537 C535 0.950 . S
H538 C522 0.951 . S
H539 C524 0.951 1_655 S
H540 C526 0.951 . S
H541 C527 0.950 . S
H542 C528 0.950 . S
H543 C529 0.950 . S
H544 C531 0.950 . S
H545 C532 0.951 . S
C546 C547 1.386 . S
C546 C548 1.383 . S
C546 H562 0.951 . S
C547 C546 1.386 . S
C547 C551 1.383 . S
C548 C546 1.383 . S
C548 C549 1.402 . S
C548 H563 0.951 . S
C549 C548 1.402 . S
C549 C550 1.375 . S
C549 C552 1.481 . S
C550 C549 1.375 . S
C550 C551 1.367 . S
C550 H564 0.951 . S
C551 C547 1.383 . S
C551 C550 1.367 . S
C551 H565 0.950 . S
C552 C549 1.481 . S
C552 C553 1.297 . S
C552 H566 0.950 . S
C553 C552 1.297 . S
C553 C554 1.479 . S
C553 H567 0.950 . S
C554 C553 1.479 . S
C554 C555 1.375 1_545 S
C554 C560 1.404 1_545 S
C555 C554 1.375 1_565 S
C555 C556 1.369 . S
C555 H568 0.950 . S
C556 C555 1.369 . S
C556 C557 1.392 . S
C556 H569 0.951 . S
C557 C556 1.392 . S
C557 C559 1.384 . S
H558 C560 0.949 1_545 S
C559 C557 1.384 . S
C559 C560 1.385 . S
C559 H561 0.950 . S
C560 C554 1.404 1_565 S
C560 H558 0.949 1_565 S
C560 C559 1.385 . S
H561 C559 0.950 . S
H562 C546 0.951 . S
H563 C548 0.951 . S
H564 C550 0.951 . S
H565 C551 0.950 . S
H566 C552 0.950 . S
H567 C553 0.950 . S
H568 C555 0.950 . S
H569 C556 0.951 . S
C139 C111 1.751 . S
C149 C19 1.747 . S
C163 C135 1.770 . S
C173 C43 1.763 . S
C187 C65 1.759 . S
C197 C88 1.735 . S
C211 C20 1.773 . S
C221 C112 1.769 . S
C235 C134 1.771 . S
C245 C42 1.773 . S
C259 C66 1.773 . S
C269 C89 1.759 . S
C283 C18 1.147 . S
C293 C62 1.155 . S
C307 C41 1.155 . S
C317 C16 1.153 . S
C331 C64 1.127 . S
C341 C39 1.164 . S
C355 C87 1.127 . S
C365 C108 1.169 . S
C379 C110 1.153 . S
C389 C131 1.163 . S
C403 C85 1.165 . S
C413 C133 1.124 . S
C427 C21 0.762 . S
C437 C63 0.817 . S
C451 C44 0.772 . S
C461 C17 0.796 . S
C475 C67 0.738 . S
C485 C40 0.831 . S
C499 C90 0.755 . S
C509 C109 0.825 . S
C523 C113 0.705 . S
C533 C132 0.671 . S
C547 C86 0.744 . S
C557 C136 0.664 . S
