# Generated by pormake.
# Topology wio, (6)-cn, num edge types: 1
# Building blocks:
#     Node 0, Type 0, BuildingBlock: INOVEN_clean_sbu_0, # of connection points: 6
#     Node 1, Type 0, BuildingBlock: INOVEN_clean_sbu_0, # of connection points: 6
#     Node 2, Type 0, BuildingBlock: INOVEN_clean_sbu_0, # of connection points: 6
#     Node 3, Type 0, BuildingBlock: INOVEN_clean_sbu_0, # of connection points: 6
#     Node 4, Type 0, BuildingBlock: INOVEN_clean_sbu_0, # of connection points: 6
#     Node 5, Type 0, BuildingBlock: INOVEN_clean_sbu_0, # of connection points: 6
#     Node 6, Type 0, BuildingBlock: INOVEN_clean_sbu_0, # of connection points: 6
#     Node 7, Type 0, BuildingBlock: INOVEN_clean_sbu_0, # of connection points: 6
#     Node 8, Type 0, BuildingBlock: INOVEN_clean_sbu_0, # of connection points: 6
#     Node 9, Type 0, BuildingBlock: INOVEN_clean_sbu_0, # of connection points: 6
#     Node 10, Type 0, BuildingBlock: INOVEN_clean_sbu_0, # of connection points: 6
#     Node 11, Type 0, BuildingBlock: INOVEN_clean_sbu_0, # of connection points: 6
#     Node 12, Type 0, BuildingBlock: INOVEN_clean_sbu_0, # of connection points: 6
#     Node 13, Type 0, BuildingBlock: INOVEN_clean_sbu_0, # of connection points: 6
#     Node 14, Type 0, BuildingBlock: INOVEN_clean_sbu_0, # of connection points: 6
#     Node 15, Type 0, BuildingBlock: INOVEN_clean_sbu_0, # of connection points: 6
#     Node 16, Type 0, BuildingBlock: INOVEN_clean_sbu_0, # of connection points: 6
#     Node 17, Type 0, BuildingBlock: INOVEN_clean_sbu_0, # of connection points: 6
#     Node 18, Type 0, BuildingBlock: INOVEN_clean_sbu_0, # of connection points: 6
#     Node 19, Type 0, BuildingBlock: INOVEN_clean_sbu_0, # of connection points: 6
#     Node 20, Type 0, BuildingBlock: INOVEN_clean_sbu_0, # of connection points: 6
#     Node 21, Type 0, BuildingBlock: INOVEN_clean_sbu_0, # of connection points: 6
#     Node 22, Type 0, BuildingBlock: INOVEN_clean_sbu_0, # of connection points: 6
#     Node 23, Type 0, BuildingBlock: INOVEN_clean_sbu_0, # of connection points: 6
#     Node 24, Type 0, BuildingBlock: INOVEN_clean_sbu_0, # of connection points: 6
#     Node 25, Type 0, BuildingBlock: INOVEN_clean_sbu_0, # of connection points: 6
#     Node 26, Type 0, BuildingBlock: INOVEN_clean_sbu_0, # of connection points: 6
#     Node 27, Type 0, BuildingBlock: INOVEN_clean_sbu_0, # of connection points: 6
#     Node 28, Type 0, BuildingBlock: INOVEN_clean_sbu_0, # of connection points: 6
#     Node 29, Type 0, BuildingBlock: INOVEN_clean_sbu_0, # of connection points: 6
#     Node 30, Type 0, BuildingBlock: INOVEN_clean_sbu_0, # of connection points: 6
#     Node 31, Type 0, BuildingBlock: INOVEN_clean_sbu_0, # of connection points: 6
#     Edge 32, Type (0, 0), None
#     Edge 33, Type (0, 0), None
#     Edge 34, Type (0, 0), None
#     Edge 35, Type (0, 0), None
#     Edge 36, Type (0, 0), None
#     Edge 37, Type (0, 0), None
#     Edge 38, Type (0, 0), None
#     Edge 39, Type (0, 0), None
#     Edge 40, Type (0, 0), None
#     Edge 41, Type (0, 0), None
#     Edge 42, Type (0, 0), None
#     Edge 43, Type (0, 0), None
#     Edge 44, Type (0, 0), None
#     Edge 45, Type (0, 0), None
#     Edge 46, Type (0, 0), None
#     Edge 47, Type (0, 0), None
#     Edge 48, Type (0, 0), None
#     Edge 49, Type (0, 0), None
#     Edge 50, Type (0, 0), None
#     Edge 51, Type (0, 0), None
#     Edge 52, Type (0, 0), None
#     Edge 53, Type (0, 0), None
#     Edge 54, Type (0, 0), None
#     Edge 55, Type (0, 0), None
#     Edge 56, Type (0, 0), None
#     Edge 57, Type (0, 0), None
#     Edge 58, Type (0, 0), None
#     Edge 59, Type (0, 0), None
#     Edge 60, Type (0, 0), None
#     Edge 61, Type (0, 0), None
#     Edge 62, Type (0, 0), None
#     Edge 63, Type (0, 0), None
#     Edge 64, Type (0, 0), None
#     Edge 65, Type (0, 0), None
#     Edge 66, Type (0, 0), None
#     Edge 67, Type (0, 0), None
#     Edge 68, Type (0, 0), None
#     Edge 69, Type (0, 0), None
#     Edge 70, Type (0, 0), None
#     Edge 71, Type (0, 0), None
#     Edge 72, Type (0, 0), None
#     Edge 73, Type (0, 0), None
#     Edge 74, Type (0, 0), None
#     Edge 75, Type (0, 0), None
#     Edge 76, Type (0, 0), None
#     Edge 77, Type (0, 0), None
#     Edge 78, Type (0, 0), None
#     Edge 79, Type (0, 0), None
#     Edge 80, Type (0, 0), None
#     Edge 81, Type (0, 0), None
#     Edge 82, Type (0, 0), None
#     Edge 83, Type (0, 0), None
#     Edge 84, Type (0, 0), None
#     Edge 85, Type (0, 0), None
#     Edge 86, Type (0, 0), None
#     Edge 87, Type (0, 0), None
#     Edge 88, Type (0, 0), None
#     Edge 89, Type (0, 0), None
#     Edge 90, Type (0, 0), None
#     Edge 91, Type (0, 0), None
#     Edge 92, Type (0, 0), None
#     Edge 93, Type (0, 0), None
#     Edge 94, Type (0, 0), None
#     Edge 95, Type (0, 0), None
#     Edge 96, Type (0, 0), None
#     Edge 97, Type (0, 0), None
#     Edge 98, Type (0, 0), None
#     Edge 99, Type (0, 0), None
#     Edge 100, Type (0, 0), None
#     Edge 101, Type (0, 0), None
#     Edge 102, Type (0, 0), None
#     Edge 103, Type (0, 0), None
#     Edge 104, Type (0, 0), None
#     Edge 105, Type (0, 0), None
#     Edge 106, Type (0, 0), None
#     Edge 107, Type (0, 0), None
#     Edge 108, Type (0, 0), None
#     Edge 109, Type (0, 0), None
#     Edge 110, Type (0, 0), None
#     Edge 111, Type (0, 0), None
#     Edge 112, Type (0, 0), None
#     Edge 113, Type (0, 0), None
#     Edge 114, Type (0, 0), None
#     Edge 115, Type (0, 0), None
#     Edge 116, Type (0, 0), None
#     Edge 117, Type (0, 0), None
#     Edge 118, Type (0, 0), None
#     Edge 119, Type (0, 0), None
#     Edge 120, Type (0, 0), None
#     Edge 121, Type (0, 0), None
#     Edge 122, Type (0, 0), None
#     Edge 123, Type (0, 0), None
#     Edge 124, Type (0, 0), None
#     Edge 125, Type (0, 0), None
#     Edge 126, Type (0, 0), None
#     Edge 127, Type (0, 0), None
# Relax obj value: 0.262
# Max RMSD: 0.262
# Mean RMSD: 0.262
data_MOF--net-wio--node1-INOVEN_clean_sbu_0--edge1-none
_symmetry_space_group_name_H-M    P1
_symmetry_Int_Tables_number       1
_symmetry_cell_setting            triclinic
loop_
_symmetry_equiv_pos_as_xyz
'x, y, z'
_cell_length_a     33.233509
_cell_length_b     33.233074
_cell_length_c     27.200384
_cell_angle_alpha  89.997862
_cell_angle_beta   90.002104
_cell_angle_gamma 89.999509
loop_
_atom_site_label
_atom_site_type_symbol
_atom_site_fract_x
_atom_site_fract_y
_atom_site_fract_z
_atom_type_partial_charge
Gd0 Gd 0.20615 0.12558 0.36717 0.0
Gd1 Gd 0.11789 0.13818 0.36466 0.0
C2 C 0.16622 0.15158 0.261 0.0
C3 C 0.28019 0.10377 0.36322 0.0
C4 C 0.31393 0.12462 0.34094 0.0
C5 C 0.30905 0.16497 0.32661 0.0
C6 C 0.3473 0.10271 0.32514 0.0
C7 C 0.3629 0.15665 0.26866 0.0
C8 C 0.3722 0.11902 0.28922 0.0
C9 C 0.33388 0.18116 0.29055 0.0
C10 C 0.18702 0.19944 0.40122 0.0
C11 C 0.16259 0.11836 0.4662 0.0
C12 C 0.04578 0.15753 0.39284 0.0
C13 C 1.02659 0.15593 0.44249 0.0
C14 C 1.03191 0.12232 0.47321 0.0
C15 C 1.00178 0.18736 0.45916 0.0
C16 C 0.98257 0.14841 0.53204 0.0
C17 C 0.98016 0.18372 0.50352 0.0
C18 C 1.01002 0.11855 0.51704 0.0
C19 C 0.14089 0.05851 0.35251 0.0
O20 O 0.19709 0.13557 0.28493 0.0
O21 O 0.13143 0.15833 0.28445 0.0
O22 O 0.2647 0.12233 0.40091 0.0
O23 O 0.25305 0.09076 0.33195 0.0
O24 O 0.21973 0.18046 0.41117 0.0
O25 O 0.16852 0.18144 0.36643 0.0
O26 O 0.13242 0.13783 0.44622 0.0
O27 O 0.18898 0.09973 0.43863 0.0
O28 O 0.05459 0.1231 0.37236 0.0
O29 O 0.07422 0.18403 0.38643 0.0
O30 O 0.11172 0.07609 0.32898 0.0
O31 O 0.15572 0.08405 0.38134 0.0
H32 H 0.28329 0.18227 0.33888 0.0
H33 H 0.35143 0.07168 0.33626 0.0
H34 H 0.39463 0.09982 0.27225 0.0
H35 H 0.32619 0.21007 0.27465 0.0
H36 H 0.05147 0.09785 0.46219 0.0
H37 H 0.99757 0.21396 0.43672 0.0
H38 H 0.95932 0.20722 0.51278 0.0
H39 H 1.01239 0.09067 0.53751 0.0
Gd40 Gd 0.19732 0.9561 0.61714 0.0
Gd41 Gd 0.18472 0.86784 0.61466 0.0
C42 C 0.17133 0.91615 0.51098 0.0
C43 C 0.21914 1.03014 0.61315 0.0
C44 C 0.19827 0.06387 0.59087 0.0
C45 C 0.15792 0.05896 0.57654 0.0
C46 C 0.22015 0.09727 0.57509 0.0
C47 C 0.16618 0.11289 0.51869 0.0
C48 C 0.20381 0.12219 0.53921 0.0
C49 C 0.1417 0.0838 0.54051 0.0
C50 C 0.12347 0.93698 0.6512 0.0
C51 C 0.20455 0.91255 0.71619 0.0
C52 C 0.16537 0.79573 0.64286 0.0
C53 C 0.16695 0.77655 0.6925 0.0
C54 C 0.20056 0.78187 0.72323 0.0
C55 C 0.13553 0.75173 0.70916 0.0
C56 C 0.17446 0.73252 0.78206 0.0
C57 C 0.13916 0.73012 0.75353 0.0
C58 C 0.20432 0.75998 0.76707 0.0
C59 C 0.2644 0.89084 0.60251 0.0
O60 O 0.18733 0.94703 0.5349 0.0
O61 O 0.16458 0.88138 0.53444 0.0
O62 O 0.20059 1.01466 0.65087 0.0
O63 O 0.23213 1.003 0.58189 0.0
O64 O 0.14245 0.9697 0.66113 0.0
O65 O 0.14147 0.91847 0.61642 0.0
O66 O 0.18507 0.88238 0.69621 0.0
O67 O 0.22317 0.93894 0.68861 0.0
O68 O 0.1998 0.80454 0.62239 0.0
O69 O 0.13887 0.82417 0.63643 0.0
O70 O 0.24681 0.86166 0.57899 0.0
O71 O 0.23885 0.90568 0.63132 0.0
H72 H 0.14065 1.03318 0.58878 0.0
H73 H 0.25118 0.10141 0.58621 0.0
H74 H 0.22299 0.14465 0.52225 0.0
H75 H 0.11279 0.07611 0.52461 0.0
H76 H 0.22503 0.80143 0.71222 0.0
H77 H 0.10893 0.74752 0.68671 0.0
H78 H 0.11565 0.70928 0.76278 0.0
H79 H 0.2322 0.76234 0.78755 0.0
Gd80 Gd 0.3668 0.94726 0.86713 0.0
Gd81 Gd 0.45507 0.93466 0.86464 0.0
C82 C 0.40675 0.92127 0.76097 0.0
C83 C 0.29277 0.96909 0.86314 0.0
C84 C 0.25904 0.94823 0.84086 0.0
C85 C 0.26394 0.90788 0.82653 0.0
C86 C 0.22564 0.97012 0.82507 0.0
C87 C 0.21002 0.91614 0.76867 0.0
C88 C 0.20073 0.95378 0.78918 0.0
C89 C 0.23909 0.89166 0.7905 0.0
C90 C 0.38593 0.8734 0.90119 0.0
C91 C 0.41035 0.95447 0.96618 0.0
C92 C 0.52717 0.91531 0.89284 0.0
C93 C 0.54636 0.91691 0.94248 0.0
C94 C 0.54104 0.95052 0.9732 0.0
C95 C 0.57119 0.8855 0.95914 0.0
C96 C 0.59039 0.92444 1.03203 0.0
C97 C 0.59281 0.88914 1.00351 0.0
C98 C 0.56293 0.95429 1.01703 0.0
C99 C 0.43206 1.01434 0.8525 0.0
O100 O 0.37587 0.93727 0.78489 0.0
O101 O 0.44153 0.91452 0.78443 0.0
O102 O 0.30825 0.95053 0.90086 0.0
O103 O 0.31991 0.98208 0.83188 0.0
O104 O 0.3532 0.89238 0.91111 0.0
O105 O 0.40444 0.8914 0.86641 0.0
O106 O 0.44053 0.935 0.9462 0.0
O107 O 0.38396 0.9731 0.9386 0.0
O108 O 0.51836 0.94974 0.87235 0.0
O109 O 0.49873 0.88881 0.88642 0.0
O110 O 0.46124 0.99676 0.82898 0.0
O111 O 0.41723 0.98879 0.88132 0.0
H112 H 0.28971 0.8906 0.83878 0.0
H113 H 0.22151 1.00115 0.83619 0.0
H114 H 0.17828 0.97297 0.77222 0.0
H115 H 0.24678 0.86275 0.7746 0.0
H116 H 0.52147 0.97499 0.96218 0.0
H117 H 0.57541 0.8589 0.9367 0.0
H118 H 0.61366 0.86564 1.01276 0.0
H119 H 0.56056 0.98217 1.0375 0.0
Gd120 Gd 0.37565 0.11672 0.11713 0.0
Gd121 Gd 0.38824 0.20499 0.11466 0.0
C122 C 0.40163 0.15668 1.01098 0.0
C123 C 0.35383 0.04268 0.11314 0.0
C124 C 0.37469 1.00895 1.09085 0.0
C125 C 0.41504 1.01386 1.07652 0.0
C126 C 0.3528 0.97556 1.07507 0.0
C127 C 0.40677 0.95994 1.01867 0.0
C128 C 0.36913 0.95064 1.03918 0.0
C129 C 0.43125 0.98902 1.04049 0.0
C130 C 0.4495 0.13585 0.15121 0.0
C131 C 0.3684 0.16025 0.21618 0.0
C132 C 0.4076 0.27709 0.14286 0.0
C133 C 0.40602 0.29628 0.1925 0.0
C134 C 0.37241 0.29096 0.22324 0.0
C135 C 0.43744 0.3211 0.20916 0.0
C136 C 0.39851 0.34031 0.28205 0.0
C137 C 0.43381 0.34272 0.25352 0.0
C138 C 0.36865 0.31285 0.26706 0.0
C139 C 0.30857 0.18199 1.10251 0.0
O140 O 0.38564 0.1258 1.0349 0.0
O141 O 0.40838 0.19146 1.03445 0.0
O142 O 0.37238 0.05816 0.15085 0.0
O143 O 0.34083 0.06983 1.08188 0.0
O144 O 0.43052 0.10313 0.16113 0.0
O145 O 0.43149 0.15436 0.11643 0.0
O146 O 0.38787 0.19044 0.19622 0.0
O147 O 0.34979 0.13386 0.18859 0.0
O148 O 0.37317 0.26829 0.12239 0.0
O149 O 0.4341 0.24865 0.13644 0.0
O150 O 0.32615 0.21118 1.079 0.0
O151 O 0.33411 0.16715 0.13132 0.0
H152 H 0.43232 0.03964 1.08876 0.0
H153 H 0.32177 0.97142 1.08619 0.0
H154 H 0.34995 0.92819 1.02223 0.0
H155 H 0.46016 0.99671 1.02458 0.0
H156 H 0.34794 0.27139 0.21223 0.0
H157 H 0.46403 0.32531 0.18671 0.0
H158 H 0.45731 0.36357 0.26276 0.0
H159 H 0.34078 0.31049 0.28754 0.0
Gd160 Gd 0.20617 0.94723 0.34931 0.0
Gd161 Gd 0.11789 0.93464 0.35178 0.0
C162 C 0.16621 0.92128 0.45547 0.0
C163 C 0.2802 0.96906 0.35326 0.0
C164 C 0.31395 0.94823 0.37552 0.0
C165 C 0.30909 0.90788 0.38986 0.0
C166 C 0.34734 0.97014 0.39129 0.0
C167 C 0.363 0.9162 0.44775 0.0
C168 C 0.37227 0.95383 0.42718 0.0
C169 C 0.33396 0.89168 0.42589 0.0
C170 C 0.18705 0.87335 0.31531 0.0
C171 C 0.16263 0.95437 0.25023 0.0
C172 C 0.04579 0.91529 0.32359 0.0
C173 C 1.02662 0.91689 0.27394 0.0
C174 C 1.03196 0.95049 0.2432 0.0
C175 C 1.00178 0.88547 0.25727 0.0
C176 C 0.98261 0.92441 0.18436 0.0
C177 C 0.98018 0.88911 0.2129 0.0
C178 C 1.01008 0.95425 0.19936 0.0
C179 C 0.14085 1.0143 0.36379 0.0
O180 O 0.19708 0.93728 0.43155 0.0
O181 O 0.13143 0.91452 0.43201 0.0
O182 O 0.26471 0.95049 0.31556 0.0
O183 O 0.25306 0.98206 0.38453 0.0
O184 O 0.21978 0.89231 0.30541 0.0
O185 O 0.16852 0.89138 0.35006 0.0
O186 O 0.13244 0.93494 0.27022 0.0
O187 O 0.18903 0.973 0.27779 0.0
O188 O 0.0546 0.94973 0.34406 0.0
O189 O 0.07422 0.88879 0.33002 0.0
O190 O 0.11171 0.99675 0.38742 0.0
O191 O 0.15574 0.98875 0.33503 0.0
H192 H 0.28333 0.89057 0.37762 0.0
H193 H 0.35145 1.00117 0.38016 0.0
H194 H 0.39471 0.97304 0.44412 0.0
H195 H 0.3263 0.86277 0.44179 0.0
H196 H 0.05153 0.97495 0.25421 0.0
H197 H 0.99755 0.85888 0.27973 0.0
H198 H 0.95933 0.86562 0.20365 0.0
H199 H 1.01247 0.98213 0.17887 0.0
Gd200 Gd 0.37568 0.95613 0.59931 0.0
Gd201 Gd 0.38826 0.86785 0.60176 0.0
C202 C 0.40162 0.91615 0.70546 0.0
C203 C 0.35385 1.03017 0.60327 0.0
C204 C 0.37469 0.06391 0.62553 0.0
C205 C 0.41504 0.05905 0.63987 0.0
C206 C 0.35278 0.0973 0.64129 0.0
C207 C 0.40671 0.11296 0.69775 0.0
C208 C 0.36909 0.12223 0.67718 0.0
C209 C 0.43123 0.08392 0.6759 0.0
C210 C 0.44955 0.937 0.5653 0.0
C211 C 0.3685 0.91261 0.50023 0.0
C212 C 0.40762 0.79575 0.57356 0.0
C213 C 0.40604 0.77658 0.52391 0.0
C214 C 0.37245 0.78191 0.49317 0.0
C215 C 0.43746 0.75175 0.50726 0.0
C216 C 0.39854 0.73256 0.43435 0.0
C217 C 0.43384 0.73014 0.46289 0.0
C218 C 0.36869 0.76004 0.44933 0.0
C219 C 0.3086 0.8908 0.61378 0.0
O220 O 0.38562 0.94703 0.68154 0.0
O221 O 0.40838 0.88138 0.68199 0.0
O222 O 0.37242 1.01468 0.56557 0.0
O223 O 0.34085 1.00303 0.63453 0.0
O224 O 0.43059 0.96974 0.5554 0.0
O225 O 0.43152 0.91848 0.60004 0.0
O226 O 0.38793 0.88241 0.5202 0.0
O227 O 0.34989 0.93901 0.5278 0.0
O228 O 0.37318 0.80455 0.59402 0.0
O229 O 0.43412 0.82419 0.58001 0.0
O230 O 0.32615 0.86166 0.6374 0.0
O231 O 0.33415 0.9057 0.58503 0.0
H232 H 0.43234 1.03329 0.62764 0.0
H233 H 0.32175 0.10142 0.63015 0.0
H234 H 0.34988 0.14467 0.69412 0.0
H235 H 0.46014 0.07625 0.69181 0.0
H236 H 0.34798 0.80148 0.50417 0.0
H237 H 0.46405 0.74753 0.52972 0.0
H238 H 0.45734 0.70929 0.45364 0.0
H239 H 0.34082 0.76241 0.42884 0.0
Gd240 Gd 0.36678 0.12562 0.84932 0.0
Gd241 Gd 0.45505 0.1382 0.85178 0.0
C242 C 0.40675 0.15156 0.95547 0.0
C243 C 0.29274 0.10378 0.85327 0.0
C244 C 0.25899 0.12461 0.87554 0.0
C245 C 0.26384 0.16496 0.88988 0.0
C246 C 0.22561 0.1027 0.89131 0.0
C247 C 0.20995 0.15662 0.94777 0.0
C248 C 0.20068 0.119 0.9272 0.0
C249 C 0.23898 0.18115 0.92591 0.0
C250 C 0.3859 0.1995 0.81531 0.0
C251 C 0.41029 0.11846 0.75024 0.0
C252 C 0.52716 0.15755 0.82358 0.0
C253 C 0.54633 0.15597 0.77394 0.0
C254 C 0.54099 0.12237 0.7432 0.0
C255 C 0.57117 0.18738 0.75728 0.0
C256 C 0.59035 0.14844 0.68438 0.0
C257 C 0.59278 0.18374 0.71291 0.0
C258 C 0.56287 0.1186 0.69936 0.0
C259 C 0.4321 0.05854 0.86379 0.0
O260 O 0.37587 0.13556 0.93155 0.0
O261 O 0.44152 0.15832 0.932 0.0
O262 O 0.30823 0.12236 0.81558 0.0
O263 O 0.31988 0.09079 0.88454 0.0
O264 O 0.35316 0.18054 0.80542 0.0
O265 O 0.40443 0.18146 0.85005 0.0
O266 O 0.4405 0.13788 0.77022 0.0
O267 O 0.38389 0.09984 0.77781 0.0
O268 O 0.51835 0.12312 0.84406 0.0
O269 O 0.49872 0.18405 0.83001 0.0
O270 O 0.46124 0.07609 0.88741 0.0
O271 O 0.4172 0.0841 0.83504 0.0
H272 H 0.2896 0.18228 0.87764 0.0
H273 H 0.2215 0.07166 0.88018 0.0
H274 H 0.17825 0.09978 0.94415 0.0
H275 H 0.24664 0.21006 0.94181 0.0
H276 H 0.52141 0.09791 0.7542 0.0
H277 H 0.5754 0.21396 0.77974 0.0
H278 H 0.61364 0.20723 0.70367 0.0
H279 H 0.56048 0.09073 0.67887 0.0
Gd280 Gd 0.19729 0.1167 1.09935 0.0
Gd281 Gd 0.18471 0.20499 1.10178 0.0
C282 C 0.17134 0.15669 0.20549 0.0
C283 C 0.21913 0.04267 1.10334 0.0
C284 C 0.19827 1.00893 0.12561 0.0
C285 C 0.15793 1.01382 0.13995 0.0
C286 C 0.22017 0.97552 0.14135 0.0
C287 C 0.1662 0.95985 0.19774 0.0
C288 C 0.20384 0.95057 0.17721 0.0
C289 C 0.14171 0.98894 0.17594 0.0
C290 C 0.12341 0.13582 1.06533 0.0
C291 C 0.20444 0.16021 1.00025 0.0
C292 C 0.16534 0.27708 1.07357 0.0
C293 C 0.16692 0.29626 1.02392 0.0
C294 C 0.20052 0.29092 0.99317 0.0
C295 C 0.13551 0.3211 1.00727 0.0
C296 C 0.17443 0.34028 0.93436 0.0
C297 C 0.13914 0.34271 0.9629 0.0
C298 C 0.20427 0.31279 0.94934 0.0
C299 C 0.26436 0.18203 0.11379 0.0
O300 O 0.18734 0.12581 0.18158 0.0
O301 O 0.16459 0.19146 0.18201 0.0
O302 O 0.20057 0.05815 1.06563 0.0
O303 O 0.23211 0.06982 0.13461 0.0
O304 O 0.14237 0.10307 1.05545 0.0
O305 O 0.14145 0.15436 1.10006 0.0
O306 O 0.18503 0.19042 1.02022 0.0
O307 O 0.22306 0.13381 1.02783 0.0
O308 O 0.19978 0.26828 1.09404 0.0
O309 O 0.13885 0.24865 1.08001 0.0
O310 O 0.24682 0.21118 0.1374 0.0
O311 O 0.2388 0.16713 1.08505 0.0
H312 H 0.14064 0.0396 0.12773 0.0
H313 H 0.2512 0.9714 0.13023 0.0
H314 H 0.22303 0.92811 0.19414 0.0
H315 H 0.1128 0.99661 0.19186 0.0
H316 H 0.22497 0.27134 1.00417 0.0
H317 H 0.10893 0.32533 1.02974 0.0
H318 H 0.11564 0.36357 0.95366 0.0
H319 H 0.23214 0.31041 0.92884 0.0
Gd320 Gd 0.9549 0.9346 0.85172 0.0
Gd321 Gd 0.86652 0.94755 0.84934 0.0
C322 C 0.91012 0.95465 0.75033 0.0
C323 C 1.0269 0.91491 0.82344 0.0
C324 C 0.04601 0.91637 0.77375 0.0
C325 C 0.04043 0.9498 0.7428 0.0
C326 C 0.07109 0.88506 0.75731 0.0
C327 C 0.09003 0.92387 0.68422 0.0
C328 C 0.0927 0.88868 0.71293 0.0
C329 C 0.06232 0.95356 0.69898 0.0
C330 C 0.93236 1.01432 0.86388 0.0
C331 C 0.90654 0.92145 0.95545 0.0
C332 C 0.79255 0.96962 0.85326 0.0
C333 C 0.75874 0.94882 0.87544 0.0
C334 C 0.76343 0.90835 0.88937 0.0
C335 C 0.72558 0.97084 0.89169 0.0
C336 C 0.70998 0.91669 0.94786 0.0
C337 C 0.70079 0.95448 0.92768 0.0
C338 C 0.73871 0.89211 0.92552 0.0
C339 C 0.88551 0.8738 0.81508 0.0
O340 O 0.9402 0.93497 0.77021 0.0
O341 O 0.88391 0.97347 0.77798 0.0
O342 O 1.01824 0.94942 0.84381 0.0
O343 O 0.99837 0.88853 0.83001 0.0
O344 O 0.9616 0.99665 0.88716 0.0
O345 O 0.91711 0.98887 0.83523 0.0
O346 O 0.87567 0.93751 0.93155 0.0
O347 O 0.94129 0.91459 0.93197 0.0
O348 O 0.80801 0.9511 0.81551 0.0
O349 O 0.81971 0.98247 0.8846 0.0
O350 O 0.85281 0.89283 0.80522 0.0
O351 O 0.90403 0.89161 0.85003 0.0
H352 H 1.02068 0.97416 0.75366 0.0
H353 H 0.0755 0.8586 0.77993 0.0
H354 H 0.11371 0.86529 0.7038 0.0
H355 H 0.05975 0.98134 0.67832 0.0
H356 H 0.78901 0.89096 0.87676 0.0
H357 H 0.72161 1.00197 0.8809 0.0
H358 H 0.67857 0.97372 0.94499 0.0
H359 H 0.7463 0.86307 0.9411 0.0
Gd360 Gd 0.88829 0.20482 0.60173 0.0
Gd361 Gd 0.87535 0.11642 0.59936 0.0
C362 C 0.86823 0.16004 0.50034 0.0
C363 C 0.90799 0.27681 0.57344 0.0
C364 C 0.90654 0.29593 0.52376 0.0
C365 C 0.8731 0.29036 0.4928 0.0
C366 C 0.93785 0.32099 0.50731 0.0
C367 C 0.89905 0.33996 0.43422 0.0
C368 C 0.93424 0.3426 0.46294 0.0
C369 C 0.86935 0.31226 0.44898 0.0
C370 C 0.80857 0.18226 0.61389 0.0
C371 C 0.90146 0.15646 0.70546 0.0
C372 C 0.85327 0.04246 0.60332 0.0
C373 C 0.87409 1.00866 0.6255 0.0
C374 C 0.91456 1.01337 0.63942 0.0
C375 C 0.85209 0.97549 0.64175 0.0
C376 C 0.90628 0.95986 0.69783 0.0
C377 C 0.86847 0.95067 0.6777 0.0
C378 C 0.93083 0.98863 0.67553 0.0
C379 C 0.94905 0.13545 0.56503 0.0
O380 O 0.8879 0.19012 0.52022 0.0
O381 O 0.84943 0.13382 0.528 0.0
O382 O 0.87347 0.26815 0.59381 0.0
O383 O 0.93436 0.24828 0.58002 0.0
O384 O 0.82623 0.21151 0.63716 0.0
O385 O 0.83403 0.16701 0.58525 0.0
O386 O 0.88542 0.12558 0.68157 0.0
O387 O 0.9083 0.19122 0.68198 0.0
O388 O 0.87178 0.05791 0.56555 0.0
O389 O 0.84044 0.06962 0.63465 0.0
O390 O 0.93006 0.10271 0.55522 0.0
O391 O 0.93128 0.15395 0.60002 0.0
H392 H 0.84873 0.27062 0.50365 0.0
H393 H 0.96431 0.32539 0.52994 0.0
H394 H 0.95763 0.36362 0.45382 0.0
H395 H 0.84157 0.30971 0.42833 0.0
H396 H 0.93193 0.03896 0.62682 0.0
H397 H 0.82095 0.9715 0.63097 0.0
H398 H 0.84924 0.92844 0.69502 0.0
H399 H 0.95987 0.99623 0.69112 0.0
Gd400 Gd 0.61807 0.13824 0.35173 0.0
Gd401 Gd 0.70644 0.12529 0.34936 0.0
C402 C 0.66285 0.11821 0.25034 0.0
C403 C 0.54607 0.15792 0.32345 0.0
C404 C 0.52695 0.15647 0.27376 0.0
C405 C 0.53254 0.12304 0.24281 0.0
C406 C 0.50187 0.18776 0.25732 0.0
C407 C 0.48293 0.14896 0.18423 0.0
C408 C 0.48025 0.18414 0.21294 0.0
C409 C 0.51065 0.11927 0.19898 0.0
C410 C 0.64061 0.05852 0.36388 0.0
C411 C 0.66641 0.15138 0.45547 0.0
C412 C 0.7804 0.10322 0.35333 0.0
C413 C 0.8142 0.12403 0.37552 0.0
C414 C 0.80948 0.16449 0.38946 0.0
C415 C 0.84738 0.10203 0.39175 0.0
C416 C 0.86301 0.1562 0.44785 0.0
C417 C 0.8722 0.1184 0.42771 0.0
C418 C 0.83422 0.18075 0.42557 0.0
C419 C 0.68746 0.19905 0.31511 0.0
O420 O 0.63277 0.13788 0.27022 0.0
O421 O 0.68907 0.09939 0.27799 0.0
O422 O 0.55473 0.12342 0.34382 0.0
O423 O 0.57459 0.18431 0.33001 0.0
O424 O 0.61137 0.07618 0.38717 0.0
O425 O 0.65586 0.08397 0.33524 0.0
O426 O 0.69728 0.13533 0.43158 0.0
O427 O 0.63166 0.15825 0.43198 0.0
O428 O 0.76495 0.12173 0.31557 0.0
O429 O 0.75324 0.09038 0.38466 0.0
O430 O 0.72016 0.18002 0.30525 0.0
O431 O 0.66894 0.18123 0.35005 0.0
H432 H 0.5523 0.09868 0.25366 0.0
H433 H 0.49744 0.21422 0.27995 0.0
H434 H 0.45923 0.20752 0.20382 0.0
H435 H 0.51323 0.0915 0.17832 0.0
H436 H 0.78388 0.18186 0.37687 0.0
H437 H 0.85136 0.0709 0.38096 0.0
H438 H 0.89443 0.09917 0.44501 0.0
H439 H 0.82662 0.20979 0.44117 0.0
Gd440 Gd 0.68467 0.86804 1.10172 0.0
Gd441 Gd 0.6976 0.95643 1.09937 0.0
C442 C 0.70474 0.91283 1.00035 0.0
C443 C 0.66496 0.79605 1.07344 0.0
C444 C 0.66641 0.77693 1.02376 0.0
C445 C 0.69983 0.7825 0.9928 0.0
C446 C 0.6351 0.75186 1.00733 0.0
C447 C 0.67389 0.73289 0.93423 0.0
C448 C 0.63871 0.73024 0.96296 0.0
C449 C 0.70358 0.7606 0.94898 0.0
C450 C 0.76438 0.89059 0.11389 0.0
C451 C 0.67149 0.91638 0.20546 0.0
C452 C 0.71968 1.0304 1.10332 0.0
C453 C 0.69887 0.0642 0.12551 0.0
C454 C 0.6584 0.0595 0.13943 0.0
C455 C 0.72088 0.09737 0.14176 0.0
C456 C 0.6667 0.113 0.19784 0.0
C457 C 0.7045 0.12218 0.17771 0.0
C458 C 0.64214 0.08423 0.17554 0.0
C459 C 0.6239 0.93741 1.06503 0.0
O460 O 0.68507 0.88274 1.02021 0.0
O461 O 0.72353 0.93906 1.02801 0.0
O462 O 0.69948 0.8047 1.09381 0.0
O463 O 0.63859 0.82458 1.08001 0.0
O464 O 0.74672 0.86133 0.13716 0.0
O465 O 0.73893 0.90585 1.08526 0.0
O466 O 0.68753 0.94727 0.18157 0.0
O467 O 0.66466 0.88163 0.18198 0.0
O468 O 0.70116 1.01495 1.06556 0.0
O469 O 0.73252 1.00323 0.13466 0.0
O470 O 0.64289 0.97015 1.05522 0.0
O471 O 0.64168 0.91891 1.10001 0.0
H472 H 0.7242 0.80225 1.00364 0.0
H473 H 0.60864 0.74745 1.02996 0.0
H474 H 0.61532 0.70922 0.95385 0.0
H475 H 0.73136 0.76315 0.92832 0.0
H476 H 0.64102 1.0339 0.12683 0.0
H477 H 0.75201 0.10135 0.13098 0.0
H478 H 0.72374 0.14441 0.19503 0.0
H479 H 0.6131 0.07664 0.19113 0.0
Gd480 Gd 0.95491 0.13824 0.86473 0.0
Gd481 Gd 0.86652 0.12533 0.8671 0.0
C482 C 0.91011 0.11828 0.96614 0.0
C483 C 1.02691 0.15792 0.89301 0.0
C484 C 0.04602 0.15645 0.9427 0.0
C485 C 0.04043 0.123 0.97364 0.0
C486 C 0.07108 0.18775 0.95918 0.0
C487 C 0.09 0.14893 1.03227 0.0
C488 C 0.09267 0.18412 1.00357 0.0
C489 C 0.0623 0.11924 1.01748 0.0
C490 C 0.9324 0.05854 0.85271 0.0
C491 C 0.90656 0.15136 0.76098 0.0
C492 C 0.79255 0.10327 0.86318 0.0
C493 C 0.75874 0.12406 0.841 0.0
C494 C 0.76343 0.16453 0.82704 0.0
C495 C 0.72556 0.10205 0.8248 0.0
C496 C 0.70992 0.15619 0.76863 0.0
C497 C 0.70074 0.11841 0.78884 0.0
C498 C 0.73868 0.18076 0.79093 0.0
C499 C 0.88554 0.19909 0.9013 0.0
O500 O 0.94022 0.1379 0.94624 0.0
O501 O 0.88388 0.09948 0.93851 0.0
O502 O 1.01825 0.12341 0.87263 0.0
O503 O 0.99839 0.1843 0.88644 0.0
O504 O 0.96161 0.07616 0.82932 0.0
O505 O 0.9171 0.084 0.88129 0.0
O506 O 0.87569 0.13532 0.78488 0.0
O507 O 0.94131 0.15823 0.78447 0.0
O508 O 0.80802 0.1218 0.90092 0.0
O509 O 0.81971 0.09041 0.83184 0.0
O510 O 0.85281 0.18009 0.91114 0.0
O511 O 0.90406 0.18125 0.86638 0.0
H512 H 1.02069 0.09864 0.96277 0.0
H513 H 0.0755 0.21422 0.93657 0.0
H514 H 0.11367 0.20752 1.01272 0.0
H515 H 0.05972 0.09146 1.03813 0.0
H516 H 0.78902 0.18192 0.83962 0.0
H517 H 0.72158 0.07093 0.83562 0.0
H518 H 0.6785 0.09916 0.77157 0.0
H519 H 0.74626 0.2098 0.77531 0.0
Gd520 Gd 0.68466 0.20482 0.61473 0.0
Gd521 Gd 0.69757 0.11642 0.6171 0.0
C522 C 0.70466 0.16001 0.71614 0.0
C523 C 0.66497 0.27681 0.64302 0.0
C524 C 0.66643 0.29592 0.69271 0.0
C525 C 0.69987 0.29035 0.72365 0.0
C526 C 0.63511 0.32096 0.70918 0.0
C527 C 0.67392 0.33992 0.78227 0.0
C528 C 0.63873 0.34256 0.75356 0.0
C529 C 0.70362 0.31223 0.76748 0.0
C530 C 0.76436 0.1823 0.60271 0.0
C531 C 0.67151 0.15647 0.51099 0.0
C532 C 0.71962 0.04245 0.61318 0.0
C533 C 0.69883 1.00863 0.591 0.0
C534 C 0.65837 1.01331 0.57706 0.0
C535 C 0.72085 0.97546 0.57479 0.0
C536 C 0.66671 0.95981 0.51863 0.0
C537 C 0.7045 0.95064 0.53883 0.0
C538 C 0.64213 0.98856 0.54094 0.0
C539 C 0.62385 0.13547 0.65138 0.0
O540 O 0.68504 0.19013 0.69625 0.0
O541 O 0.72344 0.13377 0.6885 0.0
O542 O 0.69948 0.26816 0.62264 0.0
O543 O 0.63859 0.24828 0.63645 0.0
O544 O 0.74674 0.21152 0.57933 0.0
O545 O 0.73889 0.16699 0.63128 0.0
O546 O 0.68754 0.12559 0.53489 0.0
O547 O 0.66467 0.19123 0.53447 0.0
O548 O 0.70109 0.05791 0.65092 0.0
O549 O 0.73248 0.0696 0.58185 0.0
O550 O 0.64282 0.10271 0.66119 0.0
O551 O 0.64166 0.15397 0.61641 0.0
H552 H 0.72424 0.27062 0.71278 0.0
H553 H 0.60864 0.32537 0.68656 0.0
H554 H 0.61533 0.36356 0.7627 0.0
H555 H 0.7314 0.30968 0.78812 0.0
H556 H 0.64097 0.03889 0.58964 0.0
H557 H 0.75198 0.97149 0.5856 0.0
H558 H 0.72375 0.92841 0.52154 0.0
H559 H 0.61309 0.99613 0.52534 0.0
Gd560 Gd 0.61806 0.9346 0.36474 0.0
Gd561 Gd 0.70645 0.94751 0.36709 0.0
C562 C 0.66288 0.95456 0.46614 0.0
C563 C 0.54607 0.91491 0.39302 0.0
C564 C 0.52696 0.91638 0.44271 0.0
C565 C 0.53255 0.94981 0.47365 0.0
C566 C 0.50189 0.88508 0.45917 0.0
C567 C 0.48297 0.92389 0.53226 0.0
C568 C 0.48029 0.8887 0.50355 0.0
C569 C 0.51068 0.95358 0.51748 0.0
C570 C 0.64057 1.0143 0.35271 0.0
C571 C 0.6664 0.92148 0.26098 0.0
C572 C 0.78042 0.96956 0.36317 0.0
C573 C 0.81423 0.94877 0.34098 0.0
C574 C 0.80955 0.90831 0.32702 0.0
C575 C 0.8474 0.97079 0.32479 0.0
C576 C 0.86305 0.91666 0.26861 0.0
C577 C 0.87223 0.95444 0.28882 0.0
C578 C 0.8343 0.89209 0.2909 0.0
C579 C 0.68743 0.87374 0.4013 0.0
O580 O 0.63277 0.93495 0.44625 0.0
O581 O 0.68911 0.97336 0.4385 0.0
O582 O 0.55472 0.94942 0.37263 0.0
O583 O 0.57459 0.88853 0.38645 0.0
O584 O 0.61136 0.99668 0.32933 0.0
O585 O 0.65588 0.98883 0.38129 0.0
O586 O 0.69728 0.93751 0.28488 0.0
O587 O 0.63165 0.91462 0.28447 0.0
O588 O 0.76496 0.95102 0.40091 0.0
O589 O 0.75326 0.98242 0.33184 0.0
O590 O 0.72016 0.89274 0.41114 0.0
O591 O 0.66891 0.89159 0.36638 0.0
H592 H 0.5523 0.97417 0.46278 0.0
H593 H 0.49747 0.85861 0.43655 0.0
H594 H 0.45928 0.86531 0.5127 0.0
H595 H 0.51326 0.98135 0.53813 0.0
H596 H 0.78395 0.89092 0.33959 0.0
H597 H 0.85138 1.00192 0.33561 0.0
H598 H 0.89446 0.9737 0.27155 0.0
H599 H 0.82672 0.86305 0.27529 0.0
Gd600 Gd 0.88829 0.86802 0.11472 0.0
Gd601 Gd 0.87539 0.95643 0.11707 0.0
C602 C 0.86832 0.91285 0.21612 0.0
C603 C 0.90798 0.79603 0.14301 0.0
C604 C 0.90653 0.77692 0.1927 0.0
C605 C 0.87309 0.7825 0.22365 0.0
C606 C 0.93783 0.75186 0.20916 0.0
C607 C 0.89903 0.73292 0.28226 0.0
C608 C 0.93422 0.73026 0.25354 0.0
C609 C 0.86934 0.76062 0.26748 0.0
C610 C 0.80859 0.89055 1.1027 0.0
C611 C 0.90144 0.91636 1.01097 0.0
C612 C 0.85333 1.03039 0.11311 0.0
C613 C 0.87413 0.0642 1.09093 0.0
C614 C 0.9146 0.0595 1.07698 0.0
C615 C 0.85213 0.09739 1.07474 0.0
C616 C 0.9063 0.11306 1.01864 0.0
C617 C 0.8685 0.12224 1.0388 0.0
C618 C 0.93085 0.08426 1.04089 0.0
C619 C 0.94911 0.93738 0.15135 0.0
O620 O 0.88792 0.88272 0.19624 0.0
O621 O 0.84954 0.93909 0.18848 0.0
O622 O 0.87348 0.80469 0.12263 0.0
O623 O 0.93436 0.82456 0.13644 0.0
O624 O 0.82621 0.86133 1.07933 0.0
O625 O 0.83407 0.90586 0.13127 0.0
O626 O 0.88542 0.94725 1.03486 0.0
O627 O 0.90828 0.88161 1.03446 0.0
O628 O 0.87186 1.01494 0.15086 0.0
O629 O 0.84048 1.00323 1.08178 0.0
O630 O 0.93014 0.97014 0.16114 0.0
O631 O 0.9313 0.91888 0.11639 0.0
H632 H 0.84872 0.80224 0.21278 0.0
H633 H 0.9643 0.74745 0.18654 0.0
H634 H 0.95761 0.70925 0.26268 0.0
H635 H 0.84156 0.76318 0.28812 0.0
H636 H 0.93197 1.03389 1.08954 0.0
H637 H 0.821 0.10137 1.08554 0.0
H638 H 0.84927 0.14448 1.02153 0.0
H639 H 0.95989 0.07667 1.02528 0.0
Gd640 Gd 0.70615 0.62559 0.86717 0.0
Gd641 Gd 0.61788 0.63818 0.86466 0.0
C642 C 0.66621 0.65159 0.761 0.0
C643 C 0.78019 0.60378 0.86323 0.0
C644 C 0.81392 0.62463 0.84094 0.0
C645 C 0.80904 0.66498 0.82661 0.0
C646 C 0.8473 0.60272 0.82514 0.0
C647 C 0.8629 0.65666 0.76866 0.0
C648 C 0.87219 0.61903 0.78921 0.0
C649 C 0.83387 0.68117 0.79055 0.0
C650 C 0.68698 0.69941 0.90128 0.0
C651 C 0.66257 0.61834 0.9662 0.0
C652 C 0.54578 0.65753 0.89284 0.0
C653 C 0.52659 0.65594 0.94248 0.0
C654 C 0.5319 0.62232 0.97321 0.0
C655 C 0.50177 0.68736 0.95915 0.0
C656 C 0.48256 0.64842 1.03204 0.0
C657 C 0.48016 0.68372 1.00352 0.0
C658 C 0.51002 0.61856 1.01704 0.0
C659 C 0.64089 0.55851 0.85251 0.0
O660 O 0.69709 0.6356 0.78494 0.0
O661 O 0.63143 0.65833 0.78445 0.0
O662 O 0.7647 0.62235 0.90092 0.0
O663 O 0.75305 0.59077 0.83196 0.0
O664 O 0.71972 0.68045 0.91121 0.0
O665 O 0.6685 0.68144 0.86646 0.0
O666 O 0.63241 0.63782 0.94622 0.0
O667 O 0.68897 0.59972 0.93862 0.0
O668 O 0.55458 0.6231 0.87236 0.0
O669 O 0.57422 0.68403 0.88643 0.0
O670 O 0.61171 0.57609 0.82898 0.0
O671 O 0.65572 0.58405 0.88133 0.0
H672 H 0.78329 0.68228 0.83888 0.0
H673 H 0.85142 0.57169 0.83626 0.0
H674 H 0.89462 0.59983 0.77224 0.0
H675 H 0.82619 0.71008 0.77465 0.0
H676 H 0.55147 0.59785 0.96219 0.0
H677 H 0.49756 0.71396 0.93671 0.0
H678 H 0.45932 0.70723 1.01277 0.0
H679 H 0.51238 0.59068 1.03752 0.0
Gd680 Gd 0.69733 0.45609 0.11713 0.0
Gd681 Gd 0.68472 0.36782 0.11465 0.0
C682 C 0.67133 0.41614 1.01098 0.0
C683 C 0.71915 0.53013 0.11314 0.0
C684 C 0.69827 0.56385 1.09086 0.0
C685 C 0.65793 0.55893 1.07653 0.0
C686 C 0.72014 0.59726 1.07509 0.0
C687 C 0.66616 0.61287 1.01869 0.0
C688 C 0.7038 0.62218 1.03921 0.0
C689 C 0.64169 0.58378 1.04051 0.0
C690 C 0.62347 0.43697 0.1512 0.0
C691 C 0.70455 0.41254 0.21618 0.0
C692 C 0.66536 0.29572 0.14286 0.0
C693 C 0.66696 0.27655 0.19251 0.0
C694 C 0.70057 0.28187 0.22323 0.0
C695 C 0.63554 0.25172 0.20919 0.0
C696 C 0.67449 0.23254 0.28207 0.0
C697 C 0.63918 0.23012 0.25356 0.0
C698 C 0.70434 0.26 0.26707 0.0
C699 C 0.7644 0.39082 1.1025 0.0
O700 O 0.68734 0.44701 1.0349 0.0
O701 O 0.66458 0.38136 1.03444 0.0
O702 O 0.70061 0.51464 0.15086 0.0
O703 O 0.73214 0.50298 1.08188 0.0
O704 O 0.64245 0.46969 0.16113 0.0
O705 O 0.64147 0.41846 0.11642 0.0
O706 O 0.68508 0.38237 0.19621 0.0
O707 O 0.72318 0.43893 0.1886 0.0
O708 O 0.6998 0.30452 0.12238 0.0
O709 O 0.63887 0.32416 0.13644 0.0
O710 O 0.74681 0.36164 1.07899 0.0
O711 O 0.73885 0.40566 0.13132 0.0
H712 H 0.64066 0.53315 1.08877 0.0
H713 H 0.75118 0.6014 1.0862 0.0
H714 H 0.72297 0.64464 1.02225 0.0
H715 H 0.61279 0.57608 1.0246 0.0
H716 H 0.72504 0.30144 0.21222 0.0
H717 H 0.60894 0.24751 0.18674 0.0
H718 H 0.61568 0.20928 0.26283 0.0
H719 H 0.73222 0.26237 0.28755 0.0
Gd720 Gd 0.8668 0.44725 0.36713 0.0
Gd721 Gd 0.95507 0.43466 0.36464 0.0
C722 C 0.90675 0.42125 0.26097 0.0
C723 C 0.79277 0.46908 0.36315 0.0
C724 C 0.75904 0.44821 0.34086 0.0
C725 C 0.76394 0.40787 0.32653 0.0
C726 C 0.72565 0.47011 0.32507 0.0
C727 C 0.71002 0.41613 0.26867 0.0
C728 C 0.70073 0.45377 0.28918 0.0
C729 C 0.7391 0.39165 0.2905 0.0
C730 C 0.88596 0.37344 0.40125 0.0
C731 C 0.91037 0.45448 0.46618 0.0
C732 C 1.02718 0.41531 0.39283 0.0
C733 C 0.04636 0.41691 0.44247 0.0
C734 C 0.04104 0.45052 0.4732 0.0
C735 C 0.0712 0.38549 0.45914 0.0
C736 C 0.09039 0.42443 0.53203 0.0
C737 C 0.09281 0.38913 0.5035 0.0
C738 C 0.06293 0.45428 0.51703 0.0
C739 C 0.93206 0.51434 0.3525 0.0
O740 O 0.87587 0.43725 0.2849 0.0
O741 O 0.94153 0.41452 0.28443 0.0
O742 O 0.80825 0.45052 0.40086 0.0
O743 O 0.81991 0.48208 0.33189 0.0
O744 O 0.85321 0.39239 0.41115 0.0
O745 O 0.90445 0.39141 0.36643 0.0
O746 O 0.94054 0.43501 0.4462 0.0
O747 O 0.88397 0.4731 0.4386 0.0
O748 O 1.01837 0.44974 0.37235 0.0
O749 O 0.99874 0.38882 0.38642 0.0
O750 O 0.96124 0.49676 0.32898 0.0
O751 O 0.91723 0.48879 0.38131 0.0
H752 H 0.78971 0.39058 0.33878 0.0
H753 H 0.72151 0.50114 0.33619 0.0
H754 H 0.67828 0.47296 0.27222 0.0
H755 H 0.74679 0.36274 0.2746 0.0
H756 H 1.02147 0.47498 0.46219 0.0
H757 H 0.07541 0.3589 0.43669 0.0
H758 H 0.11366 0.36563 0.51275 0.0
H759 H 0.06056 0.48216 0.53751 0.0
Gd760 Gd 0.87564 0.61673 0.61712 0.0
Gd761 Gd 0.88824 0.70501 0.61466 0.0
C762 C 0.90163 0.6567 0.51098 0.0
C763 C 0.85382 0.5427 0.61312 0.0
C764 C 0.87469 0.50897 0.59084 0.0
C765 C 0.91503 0.51388 0.57651 0.0
C766 C 0.85281 0.47557 0.57507 0.0
C767 C 0.90678 0.45995 0.51866 0.0
C768 C 0.86914 0.45065 0.53918 0.0
C769 C 0.93126 0.48904 0.54048 0.0
C770 C 0.94949 0.63586 0.6512 0.0
C771 C 0.8684 0.66026 0.71618 0.0
C772 C 0.90761 0.77711 0.64287 0.0
C773 C 0.90601 0.79629 0.69251 0.0
C774 C 0.8724 0.79096 0.72324 0.0
C775 C 0.93743 0.82112 0.70918 0.0
C776 C 0.89848 0.84031 0.78205 0.0
C777 C 0.93379 0.84274 0.75354 0.0
C778 C 0.86863 0.81285 0.76707 0.0
C779 C 0.80857 0.68201 0.60251 0.0
O780 O 0.88563 0.62582 0.5349 0.0
O781 O 0.90838 0.69148 0.53445 0.0
O782 O 0.87237 0.55817 0.65084 0.0
O783 O 0.84083 0.56984 0.58186 0.0
O784 O 0.93052 0.60313 0.66112 0.0
O785 O 0.93149 0.65437 0.61643 0.0
O786 O 0.88786 0.69045 0.69622 0.0
O787 O 0.84978 0.63387 0.68859 0.0
O788 O 0.87317 0.76831 0.62238 0.0
O789 O 0.9341 0.74866 0.63646 0.0
O790 O 0.82615 0.7112 0.579 0.0
O791 O 0.83411 0.66716 0.63131 0.0
H792 H 0.93231 0.53967 0.58875 0.0
H793 H 0.82177 0.47143 0.58618 0.0
H794 H 0.84997 0.42819 0.52223 0.0
H795 H 0.96016 0.49674 0.52458 0.0
H796 H 0.84794 0.77139 0.71222 0.0
H797 H 0.96402 0.82534 0.68673 0.0
H798 H 0.95729 0.86358 0.76281 0.0
H799 H 0.84075 0.81047 0.78755 0.0
Gd800 Gd 0.70616 0.44722 0.8493 0.0
Gd801 Gd 0.61789 0.43465 0.85179 0.0
C802 C 0.66621 0.42127 0.95547 0.0
C803 C 0.7802 0.46905 0.85325 0.0
C804 C 0.81395 0.44821 0.87552 0.0
C805 C 0.80909 0.40787 0.88986 0.0
C806 C 0.84733 0.47013 0.89129 0.0
C807 C 0.86299 0.41619 0.94775 0.0
C808 C 0.87226 0.45382 0.92718 0.0
C809 C 0.83396 0.39168 0.92589 0.0
C810 C 0.68701 0.37338 0.81525 0.0
C811 C 0.66262 0.45438 0.75023 0.0
C812 C 0.54579 0.4153 0.82359 0.0
C813 C 0.52661 0.41688 0.77394 0.0
C814 C 0.53196 0.45048 0.74319 0.0
C815 C 0.50178 0.38547 0.75728 0.0
C816 C 0.48261 0.4244 0.68436 0.0
C817 C 0.48017 0.3891 0.7129 0.0
C818 C 0.51008 0.45424 0.69935 0.0
C819 C 0.64085 0.5143 0.86379 0.0
O820 O 0.69708 0.43726 0.93154 0.0
O821 O 0.63143 0.41452 0.93201 0.0
O822 O 0.76471 0.45048 0.81556 0.0
O823 O 0.75306 0.48205 0.88452 0.0
O824 O 0.71977 0.39232 0.80537 0.0
O825 O 0.66851 0.39138 0.85003 0.0
O826 O 0.63243 0.43495 0.77023 0.0
O827 O 0.68902 0.47301 0.7778 0.0
O828 O 0.55459 0.44973 0.84406 0.0
O829 O 0.57422 0.3888 0.83003 0.0
O830 O 0.61171 0.49676 0.88742 0.0
O831 O 0.65574 0.48875 0.83504 0.0
H832 H 0.78333 0.39056 0.87762 0.0
H833 H 0.85144 0.50116 0.88016 0.0
H834 H 0.8947 0.47303 0.94413 0.0
H835 H 0.82629 0.36276 0.94179 0.0
H836 H 0.55153 0.47494 0.7542 0.0
H837 H 0.49755 0.35888 0.77974 0.0
H838 H 0.45932 0.36561 0.70366 0.0
H839 H 0.51247 0.48211 0.67886 0.0
Gd840 Gd 0.87567 0.45611 1.09932 0.0
Gd841 Gd 0.88826 0.36783 1.10176 0.0
C842 C 0.90162 0.41613 0.20547 0.0
C843 C 0.85384 0.53015 1.10328 0.0
C844 C 0.87469 0.5639 0.12555 0.0
C845 C 0.91504 0.55903 0.13988 0.0
C846 C 0.85279 0.59729 0.1413 0.0
C847 C 0.90672 0.61294 0.19776 0.0
C848 C 0.8691 0.62222 0.17718 0.0
C849 C 0.93123 0.58389 0.17591 0.0
C850 C 0.94955 0.43699 1.0653 0.0
C851 C 0.8685 0.4126 1.00023 0.0
C852 C 0.90763 0.29573 1.07356 0.0
C853 C 0.90604 0.27656 1.0239 0.0
C854 C 0.87243 0.28191 0.99317 0.0
C855 C 0.93745 0.25173 1.00724 0.0
C856 C 0.89851 0.23257 0.93434 0.0
C857 C 0.93382 0.23013 0.96286 0.0
C858 C 0.86867 0.26004 0.94932 0.0
C859 C 0.8086 0.39078 0.11378 0.0
O860 O 0.88562 0.44701 0.18155 0.0
O861 O 0.90838 0.38136 0.18199 0.0
O862 O 0.87241 0.51466 1.06558 0.0
O863 O 0.84085 0.50301 0.13455 0.0
O864 O 0.93059 0.46974 1.05541 0.0
O865 O 0.93151 0.41846 1.10004 0.0
O866 O 0.88792 0.38239 1.0202 0.0
O867 O 0.84988 0.439 1.02781 0.0
O868 O 0.87319 0.30453 1.09403 0.0
O869 O 0.93412 0.32417 1.07999 0.0
O870 O 0.82615 0.36163 0.13739 0.0
O871 O 0.83416 0.40569 1.08504 0.0
H872 H 0.93234 0.53326 0.12765 0.0
H873 H 0.82175 0.60141 0.13016 0.0
H874 H 0.8499 0.64467 0.19412 0.0
H875 H 0.96014 0.57622 0.19182 0.0
H876 H 0.84798 0.30148 1.00418 0.0
H877 H 0.96404 0.2475 1.02969 0.0
H878 H 0.95732 0.20929 0.9536 0.0
H879 H 0.8408 0.26243 0.92883 0.0
Gd880 Gd 0.86678 0.62563 0.34932 0.0
Gd881 Gd 0.95506 0.6382 0.35178 0.0
C882 C 0.90675 0.65158 0.45547 0.0
C883 C 0.79274 0.6038 0.35327 0.0
C884 C 0.75899 0.62463 0.37554 0.0
C885 C 0.76384 0.66498 0.38988 0.0
C886 C 0.72561 0.60271 0.39131 0.0
C887 C 0.70995 0.65664 0.44777 0.0
C888 C 0.70069 0.61901 0.42721 0.0
C889 C 0.73898 0.68116 0.42591 0.0
C890 C 0.88593 0.69946 0.31525 0.0
C891 C 0.91031 0.61845 0.25024 0.0
C892 C 1.02716 0.65756 0.32359 0.0
C893 C 0.04633 0.65597 0.27394 0.0
C894 C 0.04099 0.62237 0.24319 0.0
C895 C 0.07118 0.68738 0.25729 0.0
C896 C 0.09035 0.64846 0.18438 0.0
C897 C 0.09278 0.68375 0.21292 0.0
C898 C 0.06287 0.61861 0.19936 0.0
C899 C 0.9321 0.55854 0.36379 0.0
O900 O 0.87586 0.63559 0.43155 0.0
O901 O 0.94153 0.65832 0.43201 0.0
O902 O 0.80823 0.62238 0.31558 0.0
O903 O 0.81988 0.59079 0.38453 0.0
O904 O 0.85317 0.68053 0.30538 0.0
O905 O 0.90444 0.68146 0.35003 0.0
O906 O 0.94051 0.63787 0.27022 0.0
O907 O 0.8839 0.59984 0.27781 0.0
O908 O 1.01836 0.62312 0.34406 0.0
O909 O 0.99872 0.68405 0.33001 0.0
O910 O 0.96124 0.57608 0.38741 0.0
O911 O 0.9172 0.5841 0.33505 0.0
H912 H 0.7896 0.68229 0.37764 0.0
H913 H 0.72151 0.57167 0.38018 0.0
H914 H 0.67825 0.59979 0.44415 0.0
H915 H 0.74664 0.71007 0.44182 0.0
H916 H 1.02141 0.59792 0.2542 0.0
H917 H 0.07541 0.71397 0.27975 0.0
H918 H 0.11364 0.70724 0.20368 0.0
H919 H 0.06048 0.59074 0.17886 0.0
Gd920 Gd 0.69729 0.61672 0.59935 0.0
Gd921 Gd 0.6847 0.705 0.60178 0.0
C922 C 0.67134 0.65671 0.70549 0.0
C923 C 0.71913 0.54269 0.60336 0.0
C924 C 0.69827 0.50895 0.62562 0.0
C925 C 0.65793 0.51384 0.63996 0.0
C926 C 0.72016 0.47554 0.64136 0.0
C927 C 0.66619 0.45986 0.69774 0.0
C928 C 0.70383 0.45058 0.67721 0.0
C929 C 0.6417 0.48896 0.67595 0.0
C930 C 0.62342 0.63583 0.56533 0.0
C931 C 0.70445 0.66022 0.50026 0.0
C932 C 0.66534 0.7771 0.57357 0.0
C933 C 0.66693 0.79627 0.52391 0.0
C934 C 0.70053 0.79091 0.49317 0.0
C935 C 0.63552 0.82111 0.50725 0.0
C936 C 0.67446 0.84026 0.43435 0.0
C937 C 0.63915 0.84271 0.46287 0.0
C938 C 0.70429 0.81278 0.44933 0.0
C939 C 0.76436 0.68205 0.6138 0.0
O940 O 0.68735 0.62583 0.68158 0.0
O941 O 0.66458 0.69148 0.68201 0.0
O942 O 0.70058 0.55816 0.56564 0.0
O943 O 0.73211 0.56983 0.63462 0.0
O944 O 0.64237 0.60308 0.55546 0.0
O945 O 0.64145 0.65437 0.60006 0.0
O946 O 0.68503 0.69043 0.52023 0.0
O947 O 0.72306 0.63382 0.52783 0.0
O948 O 0.69978 0.7683 0.59404 0.0
O949 O 0.63885 0.74866 0.58 0.0
O950 O 0.74682 0.7112 0.6374 0.0
O951 O 0.7388 0.66714 0.58506 0.0
H952 H 0.64065 0.53963 0.62775 0.0
H953 H 0.75119 0.47141 0.63024 0.0
H954 H 0.72301 0.42812 0.69414 0.0
H955 H 0.6128 0.49664 0.69186 0.0
H956 H 0.72498 0.77133 0.50418 0.0
H957 H 0.60893 0.82535 0.5297 0.0
H958 H 0.61566 0.86356 0.45361 0.0
H959 H 0.73216 0.81039 0.42884 0.0
Gd960 Gd 0.45491 0.4346 0.35173 0.0
Gd961 Gd 0.36652 0.44755 0.34933 0.0
C962 C 0.41015 0.45467 0.25033 0.0
C963 C 0.52691 0.4149 0.32345 0.0
C964 C 0.54602 0.41636 0.27376 0.0
C965 C 0.54045 0.4498 0.24282 0.0
C966 C 0.57109 0.38506 0.25731 0.0
C967 C 0.59004 0.42387 0.18422 0.0
C968 C 0.5927 0.38868 0.21293 0.0
C969 C 0.56233 0.45356 0.19899 0.0
C970 C 0.43236 0.51432 0.36389 0.0
C971 C 0.40655 0.42144 0.45545 0.0
C972 C 0.29256 0.46962 0.35326 0.0
C973 C 0.25875 0.44882 0.37544 0.0
C974 C 0.26343 0.40835 0.38936 0.0
C975 C 0.2256 0.47084 0.3917 0.0
C976 C 0.20998 0.41669 0.44786 0.0
C977 C 0.2008 0.45448 0.42769 0.0
C978 C 0.23871 0.39211 0.42551 0.0
C979 C 0.38555 0.37384 0.31502 0.0
O980 O 0.44022 0.43498 0.27022 0.0
O981 O 0.38392 0.47347 0.27798 0.0
O982 O 0.51825 0.44941 0.34383 0.0
O983 O 0.49837 0.38853 0.33001 0.0
O984 O 0.46161 0.49666 0.38717 0.0
O985 O 0.41711 0.48887 0.33524 0.0
O986 O 0.37567 0.43748 0.43155 0.0
O987 O 0.4413 0.41459 0.43197 0.0
O988 O 0.30802 0.45109 0.31551 0.0
O989 O 0.31971 0.48247 0.38459 0.0
O990 O 0.35282 0.39284 0.30519 0.0
O991 O 0.40404 0.39162 0.35001 0.0
H992 H 0.5207 0.47416 0.25367 0.0
H993 H 0.57551 0.3586 0.27993 0.0
H994 H 0.61371 0.36529 0.2038 0.0
H995 H 0.55977 0.48134 0.17833 0.0
H996 H 0.28901 0.39095 0.37675 0.0
H997 H 0.22162 0.50198 0.38092 0.0
H998 H 0.17859 0.47373 0.44501 0.0
H999 H 0.2463 0.36306 0.44109 0.0
Gd1000 Gd 0.38829 0.70483 1.10173 0.0
Gd1001 Gd 0.37535 0.61644 1.09936 0.0
C1002 C 0.36822 0.66005 1.00034 0.0
C1003 C 0.40799 0.77683 1.07343 0.0
C1004 C 0.40653 0.79594 1.02374 0.0
C1005 C 0.37309 0.79037 0.9928 0.0
C1006 C 0.43783 0.82101 1.00729 0.0
C1007 C 0.39903 0.83996 0.93421 0.0
C1008 C 0.43422 0.84262 0.96291 0.0
C1009 C 0.36933 0.81225 0.94897 0.0
C1010 C 0.30857 0.68228 0.11389 0.0
C1011 C 0.40146 0.65648 0.20547 0.0
C1012 C 0.35328 0.54248 1.10333 0.0
C1013 C 0.3741 0.50868 0.12551 0.0
C1014 C 0.41457 0.5134 0.13944 0.0
C1015 C 0.35211 0.47549 0.14175 0.0
C1016 C 0.4063 0.45988 0.19783 0.0
C1017 C 0.3685 0.45068 0.1777 0.0
C1018 C 0.43084 0.48867 0.17555 0.0
C1019 C 0.44905 0.63546 1.06504 0.0
O1020 O 0.3879 0.69013 1.02022 0.0
O1021 O 0.34943 0.63383 1.028 0.0
O1022 O 0.37348 0.76817 1.09381 0.0
O1023 O 0.43436 0.74829 1.08 0.0
O1024 O 0.32623 0.71153 0.13716 0.0
O1025 O 0.33403 0.66703 1.08526 0.0
O1026 O 0.38542 0.6256 0.18157 0.0
O1027 O 0.40831 0.69123 0.18198 0.0
O1028 O 0.37178 0.55793 1.06556 0.0
O1029 O 0.34044 0.56964 0.13467 0.0
O1030 O 0.43006 0.60272 1.05522 0.0
O1031 O 0.43127 0.65396 1.10002 0.0
H1032 H 0.34873 0.77062 1.00365 0.0
H1033 H 0.4643 0.82542 1.02992 0.0
H1034 H 0.45761 0.86363 0.95378 0.0
H1035 H 0.34156 0.80969 0.92832 0.0
H1036 H 0.43193 0.539 0.12685 0.0
H1037 H 0.32098 0.4715 0.13096 0.0
H1038 H 0.34928 0.42844 0.19501 0.0
H1039 H 0.45988 0.49627 0.19114 0.0
Gd1040 Gd 0.11805 0.63824 0.85174 0.0
Gd1041 Gd 0.20644 0.62529 0.84937 0.0
C1042 C 0.16283 0.61819 0.75035 0.0
C1043 C 0.04606 0.65793 0.82346 0.0
C1044 C 1.02694 0.65647 0.77377 0.0
C1045 C 1.03252 0.62304 0.74282 0.0
C1046 C 1.00185 0.68777 0.75733 0.0
C1047 C 0.98292 0.64897 0.68424 0.0
C1048 C 0.98024 0.68415 0.71295 0.0
C1049 C 1.01064 0.61928 0.69899 0.0
C1050 C 0.1406 0.55851 0.86389 0.0
C1051 C 0.16641 0.6514 0.95547 0.0
C1052 C 0.2804 0.60321 0.85333 0.0
C1053 C 0.31421 0.62402 0.87552 0.0
C1054 C 0.30949 0.66449 0.88944 0.0
C1055 C 0.34738 0.60202 0.89176 0.0
C1056 C 0.36301 0.6562 0.94785 0.0
C1057 C 0.37219 0.6184 0.92772 0.0
C1058 C 0.33423 0.68075 0.92556 0.0
C1059 C 0.18742 0.699 0.81505 0.0
O1060 O 0.13274 0.63786 0.77023 0.0
O1061 O 0.18905 0.59938 0.778 0.0
O1062 O 0.05471 0.62342 0.84384 0.0
O1063 O 0.07459 0.6843 0.83001 0.0
O1064 O 0.11136 0.57617 0.88717 0.0
O1065 O 0.15585 0.58397 0.83526 0.0
O1066 O 0.19729 0.63536 0.93158 0.0
O1067 O 0.13165 0.65824 0.93199 0.0
O1068 O 0.26495 0.62173 0.81557 0.0
O1069 O 0.25324 0.59037 0.88466 0.0
O1070 O 0.22016 0.68001 0.80523 0.0
O1071 O 0.16892 0.68122 0.85003 0.0
H1072 H 0.05228 0.59868 0.75368 0.0
H1073 H 0.99743 0.71423 0.77995 0.0
H1074 H 0.95922 0.70753 0.70382 0.0
H1075 H 1.01321 0.5915 0.67834 0.0
H1076 H 0.2839 0.68187 0.87685 0.0
H1077 H 0.35136 0.57089 0.88098 0.0
H1078 H 0.39442 0.59917 0.94503 0.0
H1079 H 0.32663 0.7098 0.94115 0.0
Gd1080 Gd 0.18467 0.36802 0.60172 0.0
Gd1081 Gd 0.1976 0.45642 0.59937 0.0
C1082 C 0.20475 0.41283 0.50035 0.0
C1083 C 0.16496 0.29603 0.57343 0.0
C1084 C 0.16641 0.27691 0.52374 0.0
C1085 C 0.19984 0.28249 0.49279 0.0
C1086 C 0.13511 0.25184 0.5073 0.0
C1087 C 0.17391 0.23289 0.43422 0.0
C1088 C 0.13873 0.23022 0.46293 0.0
C1089 C 0.2036 0.2606 0.44897 0.0
C1090 C 0.26438 0.39057 0.61389 0.0
C1091 C 0.1715 0.41636 0.70546 0.0
C1092 C 0.21967 0.53038 0.60334 0.0
C1093 C 0.19885 0.56418 0.62552 0.0
C1094 C 0.15839 0.55946 0.63946 0.0
C1095 C 0.22085 0.59736 0.64176 0.0
C1096 C 0.16667 0.61298 0.69785 0.0
C1097 C 0.20446 0.62217 0.67771 0.0
C1098 C 0.14212 0.58419 0.67557 0.0
C1099 C 0.1239 0.43739 0.56503 0.0
O1100 O 0.18508 0.38273 0.52021 0.0
O1101 O 0.22353 0.43905 0.52802 0.0
O1102 O 0.19947 0.30468 0.5938 0.0
O1103 O 0.13859 0.32457 0.57999 0.0
O1104 O 0.24672 0.36131 0.63715 0.0
O1105 O 0.23893 0.40583 0.58526 0.0
O1106 O 0.18753 0.44725 0.68158 0.0
O1107 O 0.16466 0.38161 0.68197 0.0
O1108 O 0.20116 0.51493 0.56557 0.0
O1109 O 0.23251 0.50322 0.63467 0.0
O1110 O 0.1429 0.47013 0.55522 0.0
O1111 O 0.14168 0.41889 0.60001 0.0
H1112 H 0.2242 0.30225 0.50364 0.0
H1113 H 0.10865 0.24742 0.52993 0.0
H1114 H 0.11534 0.2092 0.45381 0.0
H1115 H 0.23137 0.26317 0.42831 0.0
H1116 H 0.14102 0.53386 0.62687 0.0
H1117 H 0.25198 0.60135 0.63097 0.0
H1118 H 0.22369 0.64441 0.69502 0.0
H1119 H 0.11308 0.57659 0.69116 0.0
Gd1120 Gd 0.45492 0.63824 0.36472 0.0
Gd1121 Gd 0.36653 0.62533 0.3671 0.0
C1122 C 0.41013 0.61827 0.46614 0.0
C1123 C 0.52692 0.65792 0.393 0.0
C1124 C 0.54603 0.65645 0.4427 0.0
C1125 C 0.54044 0.623 0.47363 0.0
C1126 C 0.57109 0.68775 0.45917 0.0
C1127 C 0.59 0.64893 0.53226 0.0
C1128 C 0.59268 0.68413 0.50357 0.0
C1129 C 0.56231 0.61924 0.51747 0.0
C1130 C 0.43241 0.55853 0.35271 0.0
C1131 C 0.40657 0.65138 0.26098 0.0
C1132 C 0.29256 0.60327 0.36318 0.0
C1133 C 0.25874 0.62406 0.341 0.0
C1134 C 0.26343 0.66453 0.32705 0.0
C1135 C 0.22557 0.60204 0.32479 0.0
C1136 C 0.20992 0.65618 0.26863 0.0
C1137 C 0.20075 0.6184 0.28883 0.0
C1138 C 0.23868 0.68076 0.29093 0.0
C1139 C 0.38557 0.69905 0.40136 0.0
O1140 O 0.44024 0.63789 0.44623 0.0
O1141 O 0.38389 0.59947 0.43851 0.0
O1142 O 0.51826 0.62342 0.37261 0.0
O1143 O 0.49839 0.6843 0.38645 0.0
O1144 O 0.46162 0.57616 0.32932 0.0
O1145 O 0.41711 0.584 0.38128 0.0
O1146 O 0.37569 0.63535 0.28488 0.0
O1147 O 0.44132 0.65823 0.28446 0.0
O1148 O 0.30802 0.6218 0.40092 0.0
O1149 O 0.31971 0.59041 0.33185 0.0
O1150 O 0.35282 0.68008 0.41117 0.0
O1151 O 0.40407 0.68124 0.3664 0.0
H1152 H 0.5207 0.59864 0.46275 0.0
H1153 H 0.5755 0.71422 0.43656 0.0
H1154 H 0.61367 0.70752 0.51272 0.0
H1155 H 0.55973 0.59146 0.53812 0.0
H1156 H 0.28901 0.68192 0.33963 0.0
H1157 H 0.2216 0.57092 0.33561 0.0
H1158 H 0.17852 0.59915 0.27155 0.0
H1159 H 0.24625 0.7098 0.27533 0.0
Gd1160 Gd 0.18466 0.70484 0.11474 0.0
Gd1161 Gd 0.19757 0.61643 0.1171 0.0
C1162 C 0.20466 0.66002 0.21614 0.0
C1163 C 0.16497 0.77683 0.14303 0.0
C1164 C 0.16644 0.79593 0.19272 0.0
C1165 C 0.19988 0.79036 0.22366 0.0
C1166 C 0.13513 0.82099 0.2092 0.0
C1167 C 0.17394 0.83992 0.28228 0.0
C1168 C 0.13875 0.84258 0.25358 0.0
C1169 C 0.20364 0.81222 0.2675 0.0
C1170 C 0.26436 0.68232 1.10271 0.0
C1171 C 0.17151 0.65649 1.01099 0.0
C1172 C 0.21961 0.54246 0.11317 0.0
C1173 C 0.19881 0.50865 1.09099 0.0
C1174 C 0.15835 0.51334 1.07704 0.0
C1175 C 0.22082 0.47547 1.07479 0.0
C1176 C 0.16668 0.45983 1.01862 0.0
C1177 C 0.20446 0.45065 1.03883 0.0
C1178 C 0.14211 0.4886 1.04092 0.0
C1179 C 0.12385 0.63548 0.15138 0.0
O1180 O 0.18504 0.69014 0.19626 0.0
O1181 O 0.22344 0.63378 0.18849 0.0
O1182 O 0.19947 0.76818 0.12264 0.0
O1183 O 0.13859 0.7483 0.13647 0.0
O1184 O 0.24674 0.71154 1.07934 0.0
O1185 O 0.23889 0.66701 0.13128 0.0
O1186 O 0.18754 0.62561 1.03488 0.0
O1187 O 0.16467 0.69125 1.03448 0.0
O1188 O 0.20108 0.55793 0.15091 0.0
O1189 O 0.23247 0.56961 1.08183 0.0
O1190 O 0.14282 0.60273 0.16118 0.0
O1191 O 0.14166 0.65399 0.11641 0.0
H1192 H 0.22424 0.77062 0.21279 0.0
H1193 H 0.10865 0.8254 0.18659 0.0
H1194 H 0.11535 0.86358 0.26274 0.0
H1195 H 0.23142 0.80966 0.28814 0.0
H1196 H 0.14096 0.53894 1.08961 0.0
H1197 H 0.25195 0.47149 1.08561 0.0
H1198 H 0.22371 0.42841 1.02155 0.0
H1199 H 0.11308 0.49618 1.02531 0.0
Gd1200 Gd 0.11805 0.4346 0.86472 0.0
Gd1201 Gd 0.20645 0.4475 0.86709 0.0
C1202 C 0.16286 0.45458 0.96613 0.0
C1203 C 0.04606 0.41491 0.89301 0.0
C1204 C 1.02695 0.41638 0.94269 0.0
C1205 C 1.03253 0.44981 0.97363 0.0
C1206 C 1.00188 0.38507 0.95916 0.0
C1207 C 0.98296 0.42388 1.03225 0.0
C1208 C 0.98029 0.3887 1.00355 0.0
C1209 C 1.01067 0.45358 1.01747 0.0
C1210 C 0.14057 0.5143 0.8527 0.0
C1211 C 0.1664 0.42146 0.76098 0.0
C1212 C 0.28042 0.46956 0.86317 0.0
C1213 C 0.31423 0.44877 0.84099 0.0
C1214 C 0.30955 0.40831 0.82703 0.0
C1215 C 0.3474 0.4708 0.82478 0.0
C1216 C 0.36305 0.41666 0.76861 0.0
C1217 C 0.37223 0.45445 0.78881 0.0
C1218 C 0.3343 0.39208 0.79091 0.0
C1219 C 0.1874 0.37379 0.90136 0.0
O1220 O 0.13274 0.43497 0.94624 0.0
O1221 O 0.1891 0.47337 0.93849 0.0
O1222 O 0.05471 0.44941 0.87261 0.0
O1223 O 0.07459 0.38853 0.88645 0.0
O1224 O 0.11135 0.49668 0.82933 0.0
O1225 O 0.15587 0.48883 0.88128 0.0
O1226 O 0.19728 0.43748 0.78488 0.0
O1227 O 0.13164 0.41461 0.78446 0.0
O1228 O 0.26496 0.45102 0.90091 0.0
O1229 O 0.25326 0.48243 0.83184 0.0
O1230 O 0.22015 0.39276 0.91117 0.0
O1231 O 0.1689 0.3916 0.8664 0.0
H1232 H 0.05228 0.47417 0.96277 0.0
H1233 H 0.99746 0.35861 0.93654 0.0
H1234 H 0.95928 0.36531 1.01269 0.0
H1235 H 1.01324 0.48135 1.03812 0.0
H1236 H 0.28397 0.39091 0.83961 0.0
H1237 H 0.35137 0.50192 0.83559 0.0
H1238 H 0.39445 0.4737 0.77153 0.0
H1239 H 0.32673 0.36304 0.77531 0.0
Gd1240 Gd 0.38829 0.36801 0.61473 0.0
Gd1241 Gd 0.37539 0.45641 0.61706 0.0
C1242 C 0.36831 0.41284 0.71612 0.0
C1243 C 0.40799 0.29602 0.64302 0.0
C1244 C 0.40652 0.27691 0.69271 0.0
C1245 C 0.37308 0.28249 0.72365 0.0
C1246 C 0.43782 0.25184 0.70918 0.0
C1247 C 0.39901 0.23292 0.78227 0.0
C1248 C 0.4342 0.23024 0.75357 0.0
C1249 C 0.36932 0.26062 0.76749 0.0
C1250 C 0.30859 0.39053 0.6027 0.0
C1251 C 0.40144 0.41634 0.51097 0.0
C1252 C 0.35334 0.53038 0.6131 0.0
C1253 C 0.37415 0.56418 0.59092 0.0
C1254 C 0.41461 0.55946 0.57696 0.0
C1255 C 0.35215 0.59738 0.57473 0.0
C1256 C 0.40632 0.61304 0.51864 0.0
C1257 C 0.36853 0.62222 0.53881 0.0
C1258 C 0.43087 0.58423 0.54088 0.0
C1259 C 0.44911 0.43737 0.65135 0.0
O1260 O 0.38792 0.38271 0.69624 0.0
O1261 O 0.34953 0.43908 0.68847 0.0
O1262 O 0.37348 0.30467 0.62263 0.0
O1263 O 0.43436 0.32455 0.63646 0.0
O1264 O 0.32621 0.3613 0.57933 0.0
O1265 O 0.33407 0.40584 0.63127 0.0
O1266 O 0.38542 0.44723 0.53485 0.0
O1267 O 0.40828 0.38159 0.53446 0.0
O1268 O 0.37185 0.51492 0.65086 0.0
O1269 O 0.34048 0.50322 0.58177 0.0
O1270 O 0.43014 0.47013 0.66114 0.0
O1271 O 0.4313 0.41886 0.61639 0.0
H1272 H 0.34872 0.30224 0.71278 0.0
H1273 H 0.46429 0.24742 0.68657 0.0
H1274 H 0.45759 0.20924 0.76272 0.0
H1275 H 0.34154 0.2632 0.78814 0.0
H1276 H 0.43198 0.53385 0.58951 0.0
H1277 H 0.32103 0.60137 0.58554 0.0
H1278 H 0.34931 0.64448 0.52154 0.0
H1279 H 0.4599 0.57663 0.52526 0.0
loop_
_geom_bond_atom_site_label_1
_geom_bond_atom_site_label_2
_geom_bond_distance
_geom_bond_site_symmetry_2
_ccdc_geom_bond_type
Gd0 C3 2.818 . S
Gd0 O20 2.377 . S
Gd0 O22 2.448 . S
Gd0 O23 2.506 . S
Gd0 O24 2.435 . S
Gd0 O25 2.717 . S
Gd0 O27 2.395 . S
Gd0 O31 2.327 . S
Gd1 C12 2.818 . S
Gd1 O21 2.395 . S
Gd1 O25 2.327 . S
Gd1 O26 2.377 . S
Gd1 O28 2.448 . S
Gd1 O29 2.506 . S
Gd1 O30 2.435 . S
Gd1 O31 2.717 . S
C2 O20 1.240 . S
C2 O21 1.240 . S
C3 Gd0 2.818 . S
C3 C4 1.510 . S
C3 O22 1.249 . S
C3 O23 1.252 . S
C4 C3 1.510 . S
C4 C5 1.404 . S
C4 C6 1.352 . S
C5 C4 1.404 . S
C5 C9 1.389 . S
C5 H32 0.930 . S
C6 C4 1.352 . S
C6 C8 1.374 . S
C6 H33 0.931 . S
C7 C8 1.359 . S
C7 C9 1.364 . S
C8 C6 1.374 . S
C8 C7 1.359 . S
C8 H34 0.931 . S
C9 C5 1.389 . S
C9 C7 1.364 . S
C9 H35 0.931 . S
C10 O24 1.256 . S
C10 O25 1.257 . S
C11 O26 1.240 . S
C11 O27 1.240 . S
C12 Gd1 2.818 . S
C12 C13 1.510 1_455 S
C12 O28 1.249 . S
C12 O29 1.252 . S
C13 C12 1.510 1_655 S
C13 C14 1.404 . S
C13 C15 1.352 . S
C14 C13 1.404 . S
C14 C18 1.389 . S
C14 H36 0.930 . S
C15 C13 1.352 . S
C15 C17 1.374 . S
C15 H37 0.931 1_655 S
C16 C17 1.359 . S
C16 C18 1.364 . S
C17 C15 1.374 . S
C17 C16 1.359 . S
C17 H38 0.931 . S
C18 C14 1.389 . S
C18 C16 1.364 . S
C18 H39 0.931 . S
C19 O30 1.256 . S
C19 O31 1.257 . S
O20 Gd0 2.377 . S
O20 C2 1.240 . S
O21 Gd1 2.395 . S
O21 C2 1.240 . S
O22 Gd0 2.448 . S
O22 C3 1.249 . S
O23 Gd0 2.506 . S
O23 C3 1.252 . S
O24 Gd0 2.435 . S
O24 C10 1.256 . S
O25 Gd0 2.717 . S
O25 Gd1 2.327 . S
O25 C10 1.257 . S
O26 Gd1 2.377 . S
O26 C11 1.240 . S
O27 Gd0 2.395 . S
O27 C11 1.240 . S
O28 Gd1 2.448 . S
O28 C12 1.249 . S
O29 Gd1 2.506 . S
O29 C12 1.252 . S
O30 Gd1 2.435 . S
O30 C19 1.256 . S
O31 Gd0 2.327 . S
O31 Gd1 2.717 . S
O31 C19 1.257 . S
H32 C5 0.930 . S
H33 C6 0.931 . S
H34 C8 0.931 . S
H35 C9 0.931 . S
H36 C14 0.930 . S
H37 C15 0.931 1_455 S
H38 C17 0.931 . S
H39 C18 0.931 . S
Gd40 C43 2.818 . S
Gd40 O60 2.377 . S
Gd40 O62 2.448 . S
Gd40 O63 2.506 . S
Gd40 O64 2.435 . S
Gd40 O65 2.717 . S
Gd40 O67 2.395 . S
Gd40 O71 2.327 . S
Gd41 C52 2.818 . S
Gd41 O61 2.395 . S
Gd41 O65 2.327 . S
Gd41 O66 2.377 . S
Gd41 O68 2.448 . S
Gd41 O69 2.506 . S
Gd41 O70 2.435 . S
Gd41 O71 2.717 . S
C42 O60 1.240 . S
C42 O61 1.240 . S
C43 Gd40 2.818 . S
C43 C44 1.510 1_565 S
C43 O62 1.249 . S
C43 O63 1.252 . S
C44 C43 1.510 1_545 S
C44 C45 1.404 . S
C44 C46 1.352 . S
C45 C44 1.404 . S
C45 C49 1.389 . S
C45 H72 0.930 . S
C46 C44 1.352 . S
C46 C48 1.374 . S
C46 H73 0.931 1_545 S
C47 C48 1.359 . S
C47 C49 1.364 . S
C48 C46 1.374 . S
C48 C47 1.359 . S
C48 H74 0.931 . S
C49 C45 1.389 . S
C49 C47 1.364 . S
C49 H75 0.931 . S
C50 O64 1.256 . S
C50 O65 1.257 . S
C51 O66 1.240 . S
C51 O67 1.240 . S
C52 Gd41 2.818 . S
C52 C53 1.510 . S
C52 O68 1.249 . S
C52 O69 1.252 . S
C53 C52 1.510 . S
C53 C54 1.404 . S
C53 C55 1.352 . S
C54 C53 1.404 . S
C54 C58 1.389 . S
C54 H76 0.930 . S
C55 C53 1.352 . S
C55 C57 1.374 . S
C55 H77 0.931 . S
C56 C57 1.359 . S
C56 C58 1.364 . S
C57 C55 1.374 . S
C57 C56 1.359 . S
C57 H78 0.931 . S
C58 C54 1.389 . S
C58 C56 1.364 . S
C58 H79 0.931 . S
C59 O70 1.256 . S
C59 O71 1.257 . S
O60 Gd40 2.377 . S
O60 C42 1.240 . S
O61 Gd41 2.395 . S
O61 C42 1.240 . S
O62 Gd40 2.448 . S
O62 C43 1.249 . S
O63 Gd40 2.506 . S
O63 C43 1.252 . S
O64 Gd40 2.435 . S
O64 C50 1.256 . S
O65 Gd40 2.717 . S
O65 Gd41 2.327 . S
O65 C50 1.257 . S
O66 Gd41 2.377 . S
O66 C51 1.240 . S
O67 Gd40 2.395 . S
O67 C51 1.240 . S
O68 Gd41 2.448 . S
O68 C52 1.249 . S
O69 Gd41 2.506 . S
O69 C52 1.252 . S
O70 Gd41 2.435 . S
O70 C59 1.256 . S
O71 Gd40 2.327 . S
O71 Gd41 2.717 . S
O71 C59 1.257 . S
H72 C45 0.930 . S
H73 C46 0.931 1_565 S
H74 C48 0.931 . S
H75 C49 0.931 . S
H76 C54 0.930 . S
H77 C55 0.931 . S
H78 C57 0.931 . S
H79 C58 0.931 . S
Gd80 C83 2.818 . S
Gd80 O100 2.377 . S
Gd80 O102 2.448 . S
Gd80 O103 2.506 . S
Gd80 O104 2.435 . S
Gd80 O105 2.717 . S
Gd80 O107 2.395 . S
Gd80 O111 2.327 . S
Gd81 C92 2.818 . S
Gd81 O101 2.395 . S
Gd81 O105 2.327 . S
Gd81 O106 2.377 . S
Gd81 O108 2.448 . S
Gd81 O109 2.506 . S
Gd81 O110 2.435 . S
Gd81 O111 2.717 . S
C82 O100 1.240 . S
C82 O101 1.240 . S
C83 Gd80 2.818 . S
C83 C84 1.510 . S
C83 O102 1.249 . S
C83 O103 1.252 . S
C84 C83 1.510 . S
C84 C85 1.404 . S
C84 C86 1.352 . S
C85 C84 1.404 . S
C85 C89 1.389 . S
C85 H112 0.930 . S
C86 C84 1.352 . S
C86 C88 1.374 . S
C86 H113 0.931 . S
C87 C88 1.359 . S
C87 C89 1.364 . S
C88 C86 1.374 . S
C88 C87 1.359 . S
C88 H114 0.931 . S
C89 C85 1.389 . S
C89 C87 1.364 . S
C89 H115 0.931 . S
C90 O104 1.256 . S
C90 O105 1.257 . S
C91 O106 1.240 . S
C91 O107 1.240 . S
C92 Gd81 2.818 . S
C92 C93 1.510 . S
C92 O108 1.249 . S
C92 O109 1.252 . S
C93 C92 1.510 . S
C93 C94 1.404 . S
C93 C95 1.352 . S
C94 C93 1.404 . S
C94 C98 1.389 . S
C94 H116 0.930 . S
C95 C93 1.352 . S
C95 C97 1.374 . S
C95 H117 0.931 . S
C96 C97 1.359 . S
C96 C98 1.364 . S
C97 C95 1.374 . S
C97 C96 1.359 . S
C97 H118 0.931 . S
C98 C94 1.389 . S
C98 C96 1.364 . S
C98 H119 0.931 . S
C99 O110 1.256 . S
C99 O111 1.257 . S
O100 Gd80 2.377 . S
O100 C82 1.240 . S
O101 Gd81 2.395 . S
O101 C82 1.240 . S
O102 Gd80 2.448 . S
O102 C83 1.249 . S
O103 Gd80 2.506 . S
O103 C83 1.252 . S
O104 Gd80 2.435 . S
O104 C90 1.256 . S
O105 Gd80 2.717 . S
O105 Gd81 2.327 . S
O105 C90 1.257 . S
O106 Gd81 2.377 . S
O106 C91 1.240 . S
O107 Gd80 2.395 . S
O107 C91 1.240 . S
O108 Gd81 2.448 . S
O108 C92 1.249 . S
O109 Gd81 2.506 . S
O109 C92 1.252 . S
O110 Gd81 2.435 . S
O110 C99 1.256 . S
O111 Gd80 2.327 . S
O111 Gd81 2.717 . S
O111 C99 1.257 . S
H112 C85 0.930 . S
H113 C86 0.931 . S
H114 C88 0.931 . S
H115 C89 0.931 . S
H116 C94 0.930 . S
H117 C95 0.931 . S
H118 C97 0.931 . S
H119 C98 0.931 . S
Gd120 C123 2.818 1_554 S
Gd120 O140 2.377 1_554 S
Gd120 O142 2.448 1_554 S
Gd120 O143 2.506 1_554 S
Gd120 O144 2.435 . S
Gd120 O145 2.717 . S
Gd120 O147 2.395 . S
Gd120 O151 2.327 1_554 S
Gd121 C132 2.818 . S
Gd121 O141 2.395 1_554 S
Gd121 O145 2.327 . S
Gd121 O146 2.377 . S
Gd121 O148 2.448 . S
Gd121 O149 2.506 . S
Gd121 O150 2.435 1_554 S
Gd121 O151 2.717 1_554 S
C122 O140 1.240 . S
C122 O141 1.240 . S
C123 Gd120 2.818 1_556 S
C123 C124 1.510 1_545 S
C123 O142 1.249 . S
C123 O143 1.252 . S
C124 C123 1.510 1_565 S
C124 C125 1.404 . S
C124 C126 1.352 . S
C125 C124 1.404 . S
C125 C129 1.389 . S
C125 H152 0.930 . S
C126 C124 1.352 . S
C126 C128 1.374 . S
C126 H153 0.931 1_565 S
C127 C128 1.359 . S
C127 C129 1.364 . S
C128 C126 1.374 . S
C128 C127 1.359 . S
C128 H154 0.931 . S
C129 C125 1.389 . S
C129 C127 1.364 . S
C129 H155 0.931 . S
C130 O144 1.256 . S
C130 O145 1.257 . S
C131 O146 1.240 . S
C131 O147 1.240 . S
C132 Gd121 2.818 . S
C132 C133 1.510 . S
C132 O148 1.249 . S
C132 O149 1.252 . S
C133 C132 1.510 . S
C133 C134 1.404 . S
C133 C135 1.352 . S
C134 C133 1.404 . S
C134 C138 1.389 . S
C134 H156 0.930 . S
C135 C133 1.352 . S
C135 C137 1.374 . S
C135 H157 0.931 . S
C136 C137 1.359 . S
C136 C138 1.364 . S
C137 C135 1.374 . S
C137 C136 1.359 . S
C137 H158 0.931 . S
C138 C134 1.389 . S
C138 C136 1.364 . S
C138 H159 0.931 . S
C139 O150 1.256 . S
C139 O151 1.257 . S
O140 Gd120 2.377 1_556 S
O140 C122 1.240 . S
O141 Gd121 2.395 1_556 S
O141 C122 1.240 . S
O142 Gd120 2.448 1_556 S
O142 C123 1.249 . S
O143 Gd120 2.506 1_556 S
O143 C123 1.252 . S
O144 Gd120 2.435 . S
O144 C130 1.256 . S
O145 Gd120 2.717 . S
O145 Gd121 2.327 . S
O145 C130 1.257 . S
O146 Gd121 2.377 . S
O146 C131 1.240 . S
O147 Gd120 2.395 . S
O147 C131 1.240 . S
O148 Gd121 2.448 . S
O148 C132 1.249 . S
O149 Gd121 2.506 . S
O149 C132 1.252 . S
O150 Gd121 2.435 1_556 S
O150 C139 1.256 . S
O151 Gd120 2.327 1_556 S
O151 Gd121 2.717 1_556 S
O151 C139 1.257 . S
H152 C125 0.930 . S
H153 C126 0.931 1_545 S
H154 C128 0.931 . S
H155 C129 0.931 . S
H156 C134 0.930 . S
H157 C135 0.931 . S
H158 C137 0.931 . S
H159 C138 0.931 . S
Gd160 C163 2.818 . S
Gd160 O180 2.377 . S
Gd160 O182 2.448 . S
Gd160 O183 2.506 . S
Gd160 O184 2.435 . S
Gd160 O185 2.717 . S
Gd160 O187 2.395 . S
Gd160 O191 2.327 . S
Gd161 C172 2.818 . S
Gd161 O181 2.395 . S
Gd161 O185 2.327 . S
Gd161 O186 2.377 . S
Gd161 O188 2.448 . S
Gd161 O189 2.506 . S
Gd161 O190 2.435 . S
Gd161 O191 2.717 . S
C162 O180 1.240 . S
C162 O181 1.240 . S
C163 Gd160 2.818 . S
C163 C164 1.510 . S
C163 O182 1.249 . S
C163 O183 1.252 . S
C164 C163 1.510 . S
C164 C165 1.404 . S
C164 C166 1.352 . S
C165 C164 1.404 . S
C165 C169 1.389 . S
C165 H192 0.930 . S
C166 C164 1.352 . S
C166 C168 1.374 . S
C166 H193 0.931 . S
C167 C168 1.359 . S
C167 C169 1.364 . S
C168 C166 1.374 . S
C168 C167 1.359 . S
C168 H194 0.931 . S
C169 C165 1.389 . S
C169 C167 1.364 . S
C169 H195 0.931 . S
C170 O184 1.256 . S
C170 O185 1.257 . S
C171 O186 1.240 . S
C171 O187 1.240 . S
C172 Gd161 2.818 . S
C172 C173 1.510 1_455 S
C172 O188 1.249 . S
C172 O189 1.252 . S
C173 C172 1.510 1_655 S
C173 C174 1.404 . S
C173 C175 1.352 . S
C174 C173 1.404 . S
C174 C178 1.389 . S
C174 H196 0.930 . S
C175 C173 1.352 . S
C175 C177 1.374 . S
C175 H197 0.931 1_655 S
C176 C177 1.359 . S
C176 C178 1.364 . S
C177 C175 1.374 . S
C177 C176 1.359 . S
C177 H198 0.931 . S
C178 C174 1.389 . S
C178 C176 1.364 . S
C178 H199 0.931 . S
C179 O190 1.256 . S
C179 O191 1.257 . S
O180 Gd160 2.377 . S
O180 C162 1.240 . S
O181 Gd161 2.395 . S
O181 C162 1.240 . S
O182 Gd160 2.448 . S
O182 C163 1.249 . S
O183 Gd160 2.506 . S
O183 C163 1.252 . S
O184 Gd160 2.435 . S
O184 C170 1.256 . S
O185 Gd160 2.717 . S
O185 Gd161 2.327 . S
O185 C170 1.257 . S
O186 Gd161 2.377 . S
O186 C171 1.240 . S
O187 Gd160 2.395 . S
O187 C171 1.240 . S
O188 Gd161 2.448 . S
O188 C172 1.249 . S
O189 Gd161 2.506 . S
O189 C172 1.252 . S
O190 Gd161 2.435 . S
O190 C179 1.256 . S
O191 Gd160 2.327 . S
O191 Gd161 2.717 . S
O191 C179 1.257 . S
H192 C165 0.930 . S
H193 C166 0.931 . S
H194 C168 0.931 . S
H195 C169 0.931 . S
H196 C174 0.930 . S
H197 C175 0.931 1_455 S
H198 C177 0.931 . S
H199 C178 0.931 . S
Gd200 C203 2.818 . S
Gd200 O220 2.377 . S
Gd200 O222 2.448 . S
Gd200 O223 2.506 . S
Gd200 O224 2.435 . S
Gd200 O225 2.717 . S
Gd200 O227 2.395 . S
Gd200 O231 2.327 . S
Gd201 C212 2.818 . S
Gd201 O221 2.395 . S
Gd201 O225 2.327 . S
Gd201 O226 2.377 . S
Gd201 O228 2.448 . S
Gd201 O229 2.506 . S
Gd201 O230 2.435 . S
Gd201 O231 2.717 . S
C202 O220 1.240 . S
C202 O221 1.240 . S
C203 Gd200 2.818 . S
C203 C204 1.510 1_565 S
C203 O222 1.249 . S
C203 O223 1.252 . S
C204 C203 1.510 1_545 S
C204 C205 1.404 . S
C204 C206 1.352 . S
C205 C204 1.404 . S
C205 C209 1.389 . S
C205 H232 0.930 . S
C206 C204 1.352 . S
C206 C208 1.374 . S
C206 H233 0.931 1_545 S
C207 C208 1.359 . S
C207 C209 1.364 . S
C208 C206 1.374 . S
C208 C207 1.359 . S
C208 H234 0.931 . S
C209 C205 1.389 . S
C209 C207 1.364 . S
C209 H235 0.931 . S
C210 O224 1.256 . S
C210 O225 1.257 . S
C211 O226 1.240 . S
C211 O227 1.240 . S
C212 Gd201 2.818 . S
C212 C213 1.510 . S
C212 O228 1.249 . S
C212 O229 1.252 . S
C213 C212 1.510 . S
C213 C214 1.404 . S
C213 C215 1.352 . S
C214 C213 1.404 . S
C214 C218 1.389 . S
C214 H236 0.930 . S
C215 C213 1.352 . S
C215 C217 1.374 . S
C215 H237 0.931 . S
C216 C217 1.359 . S
C216 C218 1.364 . S
C217 C215 1.374 . S
C217 C216 1.359 . S
C217 H238 0.931 . S
C218 C214 1.389 . S
C218 C216 1.364 . S
C218 H239 0.931 . S
C219 O230 1.256 . S
C219 O231 1.257 . S
O220 Gd200 2.377 . S
O220 C202 1.240 . S
O221 Gd201 2.395 . S
O221 C202 1.240 . S
O222 Gd200 2.448 . S
O222 C203 1.249 . S
O223 Gd200 2.506 . S
O223 C203 1.252 . S
O224 Gd200 2.435 . S
O224 C210 1.256 . S
O225 Gd200 2.717 . S
O225 Gd201 2.327 . S
O225 C210 1.257 . S
O226 Gd201 2.377 . S
O226 C211 1.240 . S
O227 Gd200 2.395 . S
O227 C211 1.240 . S
O228 Gd201 2.448 . S
O228 C212 1.249 . S
O229 Gd201 2.506 . S
O229 C212 1.252 . S
O230 Gd201 2.435 . S
O230 C219 1.256 . S
O231 Gd200 2.327 . S
O231 Gd201 2.717 . S
O231 C219 1.257 . S
H232 C205 0.930 . S
H233 C206 0.931 1_565 S
H234 C208 0.931 . S
H235 C209 0.931 . S
H236 C214 0.930 . S
H237 C215 0.931 . S
H238 C217 0.931 . S
H239 C218 0.931 . S
Gd240 C243 2.818 . S
Gd240 O260 2.377 . S
Gd240 O262 2.448 . S
Gd240 O263 2.506 . S
Gd240 O264 2.435 . S
Gd240 O265 2.717 . S
Gd240 O267 2.395 . S
Gd240 O271 2.327 . S
Gd241 C252 2.818 . S
Gd241 O261 2.395 . S
Gd241 O265 2.327 . S
Gd241 O266 2.377 . S
Gd241 O268 2.448 . S
Gd241 O269 2.506 . S
Gd241 O270 2.435 . S
Gd241 O271 2.717 . S
C242 O260 1.240 . S
C242 O261 1.240 . S
C243 Gd240 2.818 . S
C243 C244 1.510 . S
C243 O262 1.249 . S
C243 O263 1.252 . S
C244 C243 1.510 . S
C244 C245 1.404 . S
C244 C246 1.352 . S
C245 C244 1.404 . S
C245 C249 1.389 . S
C245 H272 0.930 . S
C246 C244 1.352 . S
C246 C248 1.374 . S
C246 H273 0.931 . S
C247 C248 1.359 . S
C247 C249 1.364 . S
C248 C246 1.374 . S
C248 C247 1.359 . S
C248 H274 0.931 . S
C249 C245 1.389 . S
C249 C247 1.364 . S
C249 H275 0.931 . S
C250 O264 1.256 . S
C250 O265 1.257 . S
C251 O266 1.240 . S
C251 O267 1.240 . S
C252 Gd241 2.818 . S
C252 C253 1.510 . S
C252 O268 1.249 . S
C252 O269 1.252 . S
C253 C252 1.510 . S
C253 C254 1.404 . S
C253 C255 1.352 . S
C254 C253 1.404 . S
C254 C258 1.389 . S
C254 H276 0.930 . S
C255 C253 1.352 . S
C255 C257 1.374 . S
C255 H277 0.931 . S
C256 C257 1.359 . S
C256 C258 1.364 . S
C257 C255 1.374 . S
C257 C256 1.359 . S
C257 H278 0.931 . S
C258 C254 1.389 . S
C258 C256 1.364 . S
C258 H279 0.931 . S
C259 O270 1.256 . S
C259 O271 1.257 . S
O260 Gd240 2.377 . S
O260 C242 1.240 . S
O261 Gd241 2.395 . S
O261 C242 1.240 . S
O262 Gd240 2.448 . S
O262 C243 1.249 . S
O263 Gd240 2.506 . S
O263 C243 1.252 . S
O264 Gd240 2.435 . S
O264 C250 1.256 . S
O265 Gd240 2.717 . S
O265 Gd241 2.327 . S
O265 C250 1.257 . S
O266 Gd241 2.377 . S
O266 C251 1.240 . S
O267 Gd240 2.395 . S
O267 C251 1.240 . S
O268 Gd241 2.448 . S
O268 C252 1.249 . S
O269 Gd241 2.506 . S
O269 C252 1.252 . S
O270 Gd241 2.435 . S
O270 C259 1.256 . S
O271 Gd240 2.327 . S
O271 Gd241 2.717 . S
O271 C259 1.257 . S
H272 C245 0.930 . S
H273 C246 0.931 . S
H274 C248 0.931 . S
H275 C249 0.931 . S
H276 C254 0.930 . S
H277 C255 0.931 . S
H278 C257 0.931 . S
H279 C258 0.931 . S
Gd280 C283 2.818 1_556 S
Gd280 O300 2.377 1_556 S
Gd280 O302 2.448 1_556 S
Gd280 O303 2.506 1_556 S
Gd280 O304 2.435 . S
Gd280 O305 2.717 . S
Gd280 O307 2.395 . S
Gd280 O311 2.327 1_556 S
Gd281 C292 2.818 . S
Gd281 O301 2.395 1_556 S
Gd281 O305 2.327 . S
Gd281 O306 2.377 . S
Gd281 O308 2.448 . S
Gd281 O309 2.506 . S
Gd281 O310 2.435 1_556 S
Gd281 O311 2.717 1_556 S
C282 O300 1.240 . S
C282 O301 1.240 . S
C283 Gd280 2.818 1_554 S
C283 C284 1.510 1_545 S
C283 O302 1.249 . S
C283 O303 1.252 . S
C284 C283 1.510 1_565 S
C284 C285 1.404 . S
C284 C286 1.352 . S
C285 C284 1.404 . S
C285 C289 1.389 . S
C285 H312 0.930 . S
C286 C284 1.352 . S
C286 C288 1.374 . S
C286 H313 0.931 1_565 S
C287 C288 1.359 . S
C287 C289 1.364 . S
C288 C286 1.374 . S
C288 C287 1.359 . S
C288 H314 0.931 . S
C289 C285 1.389 . S
C289 C287 1.364 . S
C289 H315 0.931 . S
C290 O304 1.256 . S
C290 O305 1.257 . S
C291 O306 1.240 . S
C291 O307 1.240 . S
C292 Gd281 2.818 . S
C292 C293 1.510 . S
C292 O308 1.249 . S
C292 O309 1.252 . S
C293 C292 1.510 . S
C293 C294 1.404 . S
C293 C295 1.352 . S
C294 C293 1.404 . S
C294 C298 1.389 . S
C294 H316 0.930 . S
C295 C293 1.352 . S
C295 C297 1.374 . S
C295 H317 0.931 . S
C296 C297 1.359 . S
C296 C298 1.364 . S
C297 C295 1.374 . S
C297 C296 1.359 . S
C297 H318 0.931 . S
C298 C294 1.389 . S
C298 C296 1.364 . S
C298 H319 0.931 . S
C299 O310 1.256 . S
C299 O311 1.257 . S
O300 Gd280 2.377 1_554 S
O300 C282 1.240 . S
O301 Gd281 2.395 1_554 S
O301 C282 1.240 . S
O302 Gd280 2.448 1_554 S
O302 C283 1.249 . S
O303 Gd280 2.506 1_554 S
O303 C283 1.252 . S
O304 Gd280 2.435 . S
O304 C290 1.256 . S
O305 Gd280 2.717 . S
O305 Gd281 2.327 . S
O305 C290 1.257 . S
O306 Gd281 2.377 . S
O306 C291 1.240 . S
O307 Gd280 2.395 . S
O307 C291 1.240 . S
O308 Gd281 2.448 . S
O308 C292 1.249 . S
O309 Gd281 2.506 . S
O309 C292 1.252 . S
O310 Gd281 2.435 1_554 S
O310 C299 1.256 . S
O311 Gd280 2.327 1_554 S
O311 Gd281 2.717 1_554 S
O311 C299 1.257 . S
H312 C285 0.930 . S
H313 C286 0.931 1_545 S
H314 C288 0.931 . S
H315 C289 0.931 . S
H316 C294 0.930 . S
H317 C295 0.931 . S
H318 C297 0.931 . S
H319 C298 0.931 . S
Gd320 C323 2.818 . S
Gd320 O340 2.377 . S
Gd320 O342 2.448 . S
Gd320 O343 2.506 . S
Gd320 O344 2.435 . S
Gd320 O345 2.717 . S
Gd320 O347 2.395 . S
Gd320 O351 2.327 . S
Gd321 C332 2.818 . S
Gd321 O341 2.395 . S
Gd321 O345 2.327 . S
Gd321 O346 2.377 . S
Gd321 O348 2.448 . S
Gd321 O349 2.506 . S
Gd321 O350 2.435 . S
Gd321 O351 2.717 . S
C322 O340 1.240 . S
C322 O341 1.240 . S
C323 Gd320 2.818 . S
C323 C324 1.510 1_655 S
C323 O342 1.249 . S
C323 O343 1.252 . S
C324 C323 1.510 1_455 S
C324 C325 1.404 . S
C324 C326 1.352 . S
C325 C324 1.404 . S
C325 C329 1.389 . S
C325 H352 0.930 . S
C326 C324 1.352 . S
C326 C328 1.374 . S
C326 H353 0.931 1_455 S
C327 C328 1.359 . S
C327 C329 1.364 . S
C328 C326 1.374 . S
C328 C327 1.359 . S
C328 H354 0.931 . S
C329 C325 1.389 . S
C329 C327 1.364 . S
C329 H355 0.931 . S
C330 O344 1.256 . S
C330 O345 1.257 . S
C331 O346 1.240 . S
C331 O347 1.240 . S
C332 Gd321 2.818 . S
C332 C333 1.510 . S
C332 O348 1.249 . S
C332 O349 1.252 . S
C333 C332 1.510 . S
C333 C334 1.404 . S
C333 C335 1.352 . S
C334 C333 1.404 . S
C334 C338 1.389 . S
C334 H356 0.930 . S
C335 C333 1.352 . S
C335 C337 1.374 . S
C335 H357 0.931 . S
C336 C337 1.359 . S
C336 C338 1.364 . S
C337 C335 1.374 . S
C337 C336 1.359 . S
C337 H358 0.931 . S
C338 C334 1.389 . S
C338 C336 1.364 . S
C338 H359 0.931 . S
C339 O350 1.256 . S
C339 O351 1.257 . S
O340 Gd320 2.377 . S
O340 C322 1.240 . S
O341 Gd321 2.395 . S
O341 C322 1.240 . S
O342 Gd320 2.448 . S
O342 C323 1.249 . S
O343 Gd320 2.506 . S
O343 C323 1.252 . S
O344 Gd320 2.435 . S
O344 C330 1.256 . S
O345 Gd320 2.717 . S
O345 Gd321 2.327 . S
O345 C330 1.257 . S
O346 Gd321 2.377 . S
O346 C331 1.240 . S
O347 Gd320 2.395 . S
O347 C331 1.240 . S
O348 Gd321 2.448 . S
O348 C332 1.249 . S
O349 Gd321 2.506 . S
O349 C332 1.252 . S
O350 Gd321 2.435 . S
O350 C339 1.256 . S
O351 Gd320 2.327 . S
O351 Gd321 2.717 . S
O351 C339 1.257 . S
H352 C325 0.930 . S
H353 C326 0.931 1_655 S
H354 C328 0.931 . S
H355 C329 0.931 . S
H356 C334 0.930 . S
H357 C335 0.931 . S
H358 C337 0.931 . S
H359 C338 0.931 . S
Gd360 C363 2.818 . S
Gd360 O380 2.377 . S
Gd360 O382 2.448 . S
Gd360 O383 2.506 . S
Gd360 O384 2.435 . S
Gd360 O385 2.717 . S
Gd360 O387 2.395 . S
Gd360 O391 2.327 . S
Gd361 C372 2.818 . S
Gd361 O381 2.395 . S
Gd361 O385 2.327 . S
Gd361 O386 2.377 . S
Gd361 O388 2.448 . S
Gd361 O389 2.506 . S
Gd361 O390 2.435 . S
Gd361 O391 2.717 . S
C362 O380 1.240 . S
C362 O381 1.240 . S
C363 Gd360 2.818 . S
C363 C364 1.510 . S
C363 O382 1.249 . S
C363 O383 1.252 . S
C364 C363 1.510 . S
C364 C365 1.404 . S
C364 C366 1.352 . S
C365 C364 1.404 . S
C365 C369 1.389 . S
C365 H392 0.930 . S
C366 C364 1.352 . S
C366 C368 1.374 . S
C366 H393 0.931 . S
C367 C368 1.359 . S
C367 C369 1.364 . S
C368 C366 1.374 . S
C368 C367 1.359 . S
C368 H394 0.931 . S
C369 C365 1.389 . S
C369 C367 1.364 . S
C369 H395 0.931 . S
C370 O384 1.256 . S
C370 O385 1.257 . S
C371 O386 1.240 . S
C371 O387 1.240 . S
C372 Gd361 2.818 . S
C372 C373 1.510 1_545 S
C372 O388 1.249 . S
C372 O389 1.252 . S
C373 C372 1.510 1_565 S
C373 C374 1.404 . S
C373 C375 1.352 . S
C374 C373 1.404 . S
C374 C378 1.389 . S
C374 H396 0.930 . S
C375 C373 1.352 . S
C375 C377 1.374 . S
C375 H397 0.931 1_565 S
C376 C377 1.359 . S
C376 C378 1.364 . S
C377 C375 1.374 . S
C377 C376 1.359 . S
C377 H398 0.931 . S
C378 C374 1.389 . S
C378 C376 1.364 . S
C378 H399 0.931 . S
C379 O390 1.256 . S
C379 O391 1.257 . S
O380 Gd360 2.377 . S
O380 C362 1.240 . S
O381 Gd361 2.395 . S
O381 C362 1.240 . S
O382 Gd360 2.448 . S
O382 C363 1.249 . S
O383 Gd360 2.506 . S
O383 C363 1.252 . S
O384 Gd360 2.435 . S
O384 C370 1.256 . S
O385 Gd360 2.717 . S
O385 Gd361 2.327 . S
O385 C370 1.257 . S
O386 Gd361 2.377 . S
O386 C371 1.240 . S
O387 Gd360 2.395 . S
O387 C371 1.240 . S
O388 Gd361 2.448 . S
O388 C372 1.249 . S
O389 Gd361 2.506 . S
O389 C372 1.252 . S
O390 Gd361 2.435 . S
O390 C379 1.256 . S
O391 Gd360 2.327 . S
O391 Gd361 2.717 . S
O391 C379 1.257 . S
H392 C365 0.930 . S
H393 C366 0.931 . S
H394 C368 0.931 . S
H395 C369 0.931 . S
H396 C374 0.930 . S
H397 C375 0.931 1_545 S
H398 C377 0.931 . S
H399 C378 0.931 . S
Gd400 C403 2.818 . S
Gd400 O420 2.377 . S
Gd400 O422 2.448 . S
Gd400 O423 2.506 . S
Gd400 O424 2.435 . S
Gd400 O425 2.717 . S
Gd400 O427 2.395 . S
Gd400 O431 2.327 . S
Gd401 C412 2.818 . S
Gd401 O421 2.395 . S
Gd401 O425 2.327 . S
Gd401 O426 2.377 . S
Gd401 O428 2.448 . S
Gd401 O429 2.506 . S
Gd401 O430 2.435 . S
Gd401 O431 2.717 . S
C402 O420 1.240 . S
C402 O421 1.240 . S
C403 Gd400 2.818 . S
C403 C404 1.510 . S
C403 O422 1.249 . S
C403 O423 1.252 . S
C404 C403 1.510 . S
C404 C405 1.404 . S
C404 C406 1.352 . S
C405 C404 1.404 . S
C405 C409 1.389 . S
C405 H432 0.930 . S
C406 C404 1.352 . S
C406 C408 1.374 . S
C406 H433 0.931 . S
C407 C408 1.359 . S
C407 C409 1.364 . S
C408 C406 1.374 . S
C408 C407 1.359 . S
C408 H434 0.931 . S
C409 C405 1.389 . S
C409 C407 1.364 . S
C409 H435 0.931 . S
C410 O424 1.256 . S
C410 O425 1.257 . S
C411 O426 1.240 . S
C411 O427 1.240 . S
C412 Gd401 2.818 . S
C412 C413 1.510 . S
C412 O428 1.249 . S
C412 O429 1.252 . S
C413 C412 1.510 . S
C413 C414 1.404 . S
C413 C415 1.352 . S
C414 C413 1.404 . S
C414 C418 1.389 . S
C414 H436 0.930 . S
C415 C413 1.352 . S
C415 C417 1.374 . S
C415 H437 0.931 . S
C416 C417 1.359 . S
C416 C418 1.364 . S
C417 C415 1.374 . S
C417 C416 1.359 . S
C417 H438 0.931 . S
C418 C414 1.389 . S
C418 C416 1.364 . S
C418 H439 0.931 . S
C419 O430 1.256 . S
C419 O431 1.257 . S
O420 Gd400 2.377 . S
O420 C402 1.240 . S
O421 Gd401 2.395 . S
O421 C402 1.240 . S
O422 Gd400 2.448 . S
O422 C403 1.249 . S
O423 Gd400 2.506 . S
O423 C403 1.252 . S
O424 Gd400 2.435 . S
O424 C410 1.256 . S
O425 Gd400 2.717 . S
O425 Gd401 2.327 . S
O425 C410 1.257 . S
O426 Gd401 2.377 . S
O426 C411 1.240 . S
O427 Gd400 2.395 . S
O427 C411 1.240 . S
O428 Gd401 2.448 . S
O428 C412 1.249 . S
O429 Gd401 2.506 . S
O429 C412 1.252 . S
O430 Gd401 2.435 . S
O430 C419 1.256 . S
O431 Gd400 2.327 . S
O431 Gd401 2.717 . S
O431 C419 1.257 . S
H432 C405 0.930 . S
H433 C406 0.931 . S
H434 C408 0.931 . S
H435 C409 0.931 . S
H436 C414 0.930 . S
H437 C415 0.931 . S
H438 C417 0.931 . S
H439 C418 0.931 . S
Gd440 C443 2.818 . S
Gd440 O460 2.377 . S
Gd440 O462 2.448 . S
Gd440 O463 2.506 . S
Gd440 O464 2.435 1_556 S
Gd440 O465 2.717 1_556 S
Gd440 O467 2.395 1_556 S
Gd440 O471 2.327 . S
Gd441 C452 2.818 1_556 S
Gd441 O461 2.395 . S
Gd441 O465 2.327 1_556 S
Gd441 O466 2.377 1_556 S
Gd441 O468 2.448 1_556 S
Gd441 O469 2.506 1_556 S
Gd441 O470 2.435 . S
Gd441 O471 2.717 . S
C442 O460 1.240 . S
C442 O461 1.240 . S
C443 Gd440 2.818 . S
C443 C444 1.510 . S
C443 O462 1.249 . S
C443 O463 1.252 . S
C444 C443 1.510 . S
C444 C445 1.404 . S
C444 C446 1.352 . S
C445 C444 1.404 . S
C445 C449 1.389 . S
C445 H472 0.930 . S
C446 C444 1.352 . S
C446 C448 1.374 . S
C446 H473 0.931 . S
C447 C448 1.359 . S
C447 C449 1.364 . S
C448 C446 1.374 . S
C448 C447 1.359 . S
C448 H474 0.931 . S
C449 C445 1.389 . S
C449 C447 1.364 . S
C449 H475 0.931 . S
C450 O464 1.256 . S
C450 O465 1.257 . S
C451 O466 1.240 . S
C451 O467 1.240 . S
C452 Gd441 2.818 1_554 S
C452 C453 1.510 1_565 S
C452 O468 1.249 . S
C452 O469 1.252 . S
C453 C452 1.510 1_545 S
C453 C454 1.404 . S
C453 C455 1.352 . S
C454 C453 1.404 . S
C454 C458 1.389 . S
C454 H476 0.930 . S
C455 C453 1.352 . S
C455 C457 1.374 . S
C455 H477 0.931 1_545 S
C456 C457 1.359 . S
C456 C458 1.364 . S
C457 C455 1.374 . S
C457 C456 1.359 . S
C457 H478 0.931 . S
C458 C454 1.389 . S
C458 C456 1.364 . S
C458 H479 0.931 . S
C459 O470 1.256 . S
C459 O471 1.257 . S
O460 Gd440 2.377 . S
O460 C442 1.240 . S
O461 Gd441 2.395 . S
O461 C442 1.240 . S
O462 Gd440 2.448 . S
O462 C443 1.249 . S
O463 Gd440 2.506 . S
O463 C443 1.252 . S
O464 Gd440 2.435 1_554 S
O464 C450 1.256 . S
O465 Gd440 2.717 1_554 S
O465 Gd441 2.327 1_554 S
O465 C450 1.257 . S
O466 Gd441 2.377 1_554 S
O466 C451 1.240 . S
O467 Gd440 2.395 1_554 S
O467 C451 1.240 . S
O468 Gd441 2.448 1_554 S
O468 C452 1.249 . S
O469 Gd441 2.506 1_554 S
O469 C452 1.252 . S
O470 Gd441 2.435 . S
O470 C459 1.256 . S
O471 Gd440 2.327 . S
O471 Gd441 2.717 . S
O471 C459 1.257 . S
H472 C445 0.930 . S
H473 C446 0.931 . S
H474 C448 0.931 . S
H475 C449 0.931 . S
H476 C454 0.930 . S
H477 C455 0.931 1_565 S
H478 C457 0.931 . S
H479 C458 0.931 . S
Gd480 C483 2.818 . S
Gd480 O500 2.377 . S
Gd480 O502 2.448 . S
Gd480 O503 2.506 . S
Gd480 O504 2.435 . S
Gd480 O505 2.717 . S
Gd480 O507 2.395 . S
Gd480 O511 2.327 . S
Gd481 C492 2.818 . S
Gd481 O501 2.395 . S
Gd481 O505 2.327 . S
Gd481 O506 2.377 . S
Gd481 O508 2.448 . S
Gd481 O509 2.506 . S
Gd481 O510 2.435 . S
Gd481 O511 2.717 . S
C482 O500 1.240 . S
C482 O501 1.240 . S
C483 Gd480 2.818 . S
C483 C484 1.510 1_655 S
C483 O502 1.249 . S
C483 O503 1.252 . S
C484 C483 1.510 1_455 S
C484 C485 1.404 . S
C484 C486 1.352 . S
C485 C484 1.404 . S
C485 C489 1.389 . S
C485 H512 0.930 . S
C486 C484 1.352 . S
C486 C488 1.374 . S
C486 H513 0.931 1_455 S
C487 C488 1.359 . S
C487 C489 1.364 . S
C488 C486 1.374 . S
C488 C487 1.359 . S
C488 H514 0.931 . S
C489 C485 1.389 . S
C489 C487 1.364 . S
C489 H515 0.931 . S
C490 O504 1.256 . S
C490 O505 1.257 . S
C491 O506 1.240 . S
C491 O507 1.240 . S
C492 Gd481 2.818 . S
C492 C493 1.510 . S
C492 O508 1.249 . S
C492 O509 1.252 . S
C493 C492 1.510 . S
C493 C494 1.404 . S
C493 C495 1.352 . S
C494 C493 1.404 . S
C494 C498 1.389 . S
C494 H516 0.930 . S
C495 C493 1.352 . S
C495 C497 1.374 . S
C495 H517 0.931 . S
C496 C497 1.359 . S
C496 C498 1.364 . S
C497 C495 1.374 . S
C497 C496 1.359 . S
C497 H518 0.931 . S
C498 C494 1.389 . S
C498 C496 1.364 . S
C498 H519 0.931 . S
C499 O510 1.256 . S
C499 O511 1.257 . S
O500 Gd480 2.377 . S
O500 C482 1.240 . S
O501 Gd481 2.395 . S
O501 C482 1.240 . S
O502 Gd480 2.448 . S
O502 C483 1.249 . S
O503 Gd480 2.506 . S
O503 C483 1.252 . S
O504 Gd480 2.435 . S
O504 C490 1.256 . S
O505 Gd480 2.717 . S
O505 Gd481 2.327 . S
O505 C490 1.257 . S
O506 Gd481 2.377 . S
O506 C491 1.240 . S
O507 Gd480 2.395 . S
O507 C491 1.240 . S
O508 Gd481 2.448 . S
O508 C492 1.249 . S
O509 Gd481 2.506 . S
O509 C492 1.252 . S
O510 Gd481 2.435 . S
O510 C499 1.256 . S
O511 Gd480 2.327 . S
O511 Gd481 2.717 . S
O511 C499 1.257 . S
H512 C485 0.930 . S
H513 C486 0.931 1_655 S
H514 C488 0.931 . S
H515 C489 0.931 . S
H516 C494 0.930 . S
H517 C495 0.931 . S
H518 C497 0.931 . S
H519 C498 0.931 . S
Gd520 C523 2.818 . S
Gd520 O540 2.377 . S
Gd520 O542 2.448 . S
Gd520 O543 2.506 . S
Gd520 O544 2.435 . S
Gd520 O545 2.717 . S
Gd520 O547 2.395 . S
Gd520 O551 2.327 . S
Gd521 C532 2.818 . S
Gd521 O541 2.395 . S
Gd521 O545 2.327 . S
Gd521 O546 2.377 . S
Gd521 O548 2.448 . S
Gd521 O549 2.506 . S
Gd521 O550 2.435 . S
Gd521 O551 2.717 . S
C522 O540 1.240 . S
C522 O541 1.240 . S
C523 Gd520 2.818 . S
C523 C524 1.510 . S
C523 O542 1.249 . S
C523 O543 1.252 . S
C524 C523 1.510 . S
C524 C525 1.404 . S
C524 C526 1.352 . S
C525 C524 1.404 . S
C525 C529 1.389 . S
C525 H552 0.930 . S
C526 C524 1.352 . S
C526 C528 1.374 . S
C526 H553 0.931 . S
C527 C528 1.359 . S
C527 C529 1.364 . S
C528 C526 1.374 . S
C528 C527 1.359 . S
C528 H554 0.931 . S
C529 C525 1.389 . S
C529 C527 1.364 . S
C529 H555 0.931 . S
C530 O544 1.256 . S
C530 O545 1.257 . S
C531 O546 1.240 . S
C531 O547 1.240 . S
C532 Gd521 2.818 . S
C532 C533 1.510 1_545 S
C532 O548 1.249 . S
C532 O549 1.252 . S
C533 C532 1.510 1_565 S
C533 C534 1.404 . S
C533 C535 1.352 . S
C534 C533 1.404 . S
C534 C538 1.389 . S
C534 H556 0.930 . S
C535 C533 1.352 . S
C535 C537 1.374 . S
C535 H557 0.931 1_565 S
C536 C537 1.359 . S
C536 C538 1.364 . S
C537 C535 1.374 . S
C537 C536 1.359 . S
C537 H558 0.931 . S
C538 C534 1.389 . S
C538 C536 1.364 . S
C538 H559 0.931 . S
C539 O550 1.256 . S
C539 O551 1.257 . S
O540 Gd520 2.377 . S
O540 C522 1.240 . S
O541 Gd521 2.395 . S
O541 C522 1.240 . S
O542 Gd520 2.448 . S
O542 C523 1.249 . S
O543 Gd520 2.506 . S
O543 C523 1.252 . S
O544 Gd520 2.435 . S
O544 C530 1.256 . S
O545 Gd520 2.717 . S
O545 Gd521 2.327 . S
O545 C530 1.257 . S
O546 Gd521 2.377 . S
O546 C531 1.240 . S
O547 Gd520 2.395 . S
O547 C531 1.240 . S
O548 Gd521 2.448 . S
O548 C532 1.249 . S
O549 Gd521 2.506 . S
O549 C532 1.252 . S
O550 Gd521 2.435 . S
O550 C539 1.256 . S
O551 Gd520 2.327 . S
O551 Gd521 2.717 . S
O551 C539 1.257 . S
H552 C525 0.930 . S
H553 C526 0.931 . S
H554 C528 0.931 . S
H555 C529 0.931 . S
H556 C534 0.930 . S
H557 C535 0.931 1_545 S
H558 C537 0.931 . S
H559 C538 0.931 . S
Gd560 C563 2.818 . S
Gd560 O580 2.377 . S
Gd560 O582 2.448 . S
Gd560 O583 2.506 . S
Gd560 O584 2.435 . S
Gd560 O585 2.717 . S
Gd560 O587 2.395 . S
Gd560 O591 2.327 . S
Gd561 C572 2.818 . S
Gd561 O581 2.395 . S
Gd561 O585 2.327 . S
Gd561 O586 2.377 . S
Gd561 O588 2.448 . S
Gd561 O589 2.506 . S
Gd561 O590 2.435 . S
Gd561 O591 2.717 . S
C562 O580 1.240 . S
C562 O581 1.240 . S
C563 Gd560 2.818 . S
C563 C564 1.510 . S
C563 O582 1.249 . S
C563 O583 1.252 . S
C564 C563 1.510 . S
C564 C565 1.404 . S
C564 C566 1.352 . S
C565 C564 1.404 . S
C565 C569 1.389 . S
C565 H592 0.930 . S
C566 C564 1.352 . S
C566 C568 1.374 . S
C566 H593 0.931 . S
C567 C568 1.359 . S
C567 C569 1.364 . S
C568 C566 1.374 . S
C568 C567 1.359 . S
C568 H594 0.931 . S
C569 C565 1.389 . S
C569 C567 1.364 . S
C569 H595 0.931 . S
C570 O584 1.256 . S
C570 O585 1.257 . S
C571 O586 1.240 . S
C571 O587 1.240 . S
C572 Gd561 2.818 . S
C572 C573 1.510 . S
C572 O588 1.249 . S
C572 O589 1.252 . S
C573 C572 1.510 . S
C573 C574 1.404 . S
C573 C575 1.352 . S
C574 C573 1.404 . S
C574 C578 1.389 . S
C574 H596 0.930 . S
C575 C573 1.352 . S
C575 C577 1.374 . S
C575 H597 0.931 . S
C576 C577 1.359 . S
C576 C578 1.364 . S
C577 C575 1.374 . S
C577 C576 1.359 . S
C577 H598 0.931 . S
C578 C574 1.389 . S
C578 C576 1.364 . S
C578 H599 0.931 . S
C579 O590 1.256 . S
C579 O591 1.257 . S
O580 Gd560 2.377 . S
O580 C562 1.240 . S
O581 Gd561 2.395 . S
O581 C562 1.240 . S
O582 Gd560 2.448 . S
O582 C563 1.249 . S
O583 Gd560 2.506 . S
O583 C563 1.252 . S
O584 Gd560 2.435 . S
O584 C570 1.256 . S
O585 Gd560 2.717 . S
O585 Gd561 2.327 . S
O585 C570 1.257 . S
O586 Gd561 2.377 . S
O586 C571 1.240 . S
O587 Gd560 2.395 . S
O587 C571 1.240 . S
O588 Gd561 2.448 . S
O588 C572 1.249 . S
O589 Gd561 2.506 . S
O589 C572 1.252 . S
O590 Gd561 2.435 . S
O590 C579 1.256 . S
O591 Gd560 2.327 . S
O591 Gd561 2.717 . S
O591 C579 1.257 . S
H592 C565 0.930 . S
H593 C566 0.931 . S
H594 C568 0.931 . S
H595 C569 0.931 . S
H596 C574 0.930 . S
H597 C575 0.931 . S
H598 C577 0.931 . S
H599 C578 0.931 . S
Gd600 C603 2.818 . S
Gd600 O620 2.377 . S
Gd600 O622 2.448 . S
Gd600 O623 2.506 . S
Gd600 O624 2.435 1_554 S
Gd600 O625 2.717 1_554 S
Gd600 O627 2.395 1_554 S
Gd600 O631 2.327 . S
Gd601 C612 2.818 1_554 S
Gd601 O621 2.395 . S
Gd601 O625 2.327 1_554 S
Gd601 O626 2.377 1_554 S
Gd601 O628 2.448 1_554 S
Gd601 O629 2.506 1_554 S
Gd601 O630 2.435 . S
Gd601 O631 2.717 . S
C602 O620 1.240 . S
C602 O621 1.240 . S
C603 Gd600 2.818 . S
C603 C604 1.510 . S
C603 O622 1.249 . S
C603 O623 1.252 . S
C604 C603 1.510 . S
C604 C605 1.404 . S
C604 C606 1.352 . S
C605 C604 1.404 . S
C605 C609 1.389 . S
C605 H632 0.930 . S
C606 C604 1.352 . S
C606 C608 1.374 . S
C606 H633 0.931 . S
C607 C608 1.359 . S
C607 C609 1.364 . S
C608 C606 1.374 . S
C608 C607 1.359 . S
C608 H634 0.931 . S
C609 C605 1.389 . S
C609 C607 1.364 . S
C609 H635 0.931 . S
C610 O624 1.256 . S
C610 O625 1.257 . S
C611 O626 1.240 . S
C611 O627 1.240 . S
C612 Gd601 2.818 1_556 S
C612 C613 1.510 1_565 S
C612 O628 1.249 . S
C612 O629 1.252 . S
C613 C612 1.510 1_545 S
C613 C614 1.404 . S
C613 C615 1.352 . S
C614 C613 1.404 . S
C614 C618 1.389 . S
C614 H636 0.930 . S
C615 C613 1.352 . S
C615 C617 1.374 . S
C615 H637 0.931 1_545 S
C616 C617 1.359 . S
C616 C618 1.364 . S
C617 C615 1.374 . S
C617 C616 1.359 . S
C617 H638 0.931 . S
C618 C614 1.389 . S
C618 C616 1.364 . S
C618 H639 0.931 . S
C619 O630 1.256 . S
C619 O631 1.257 . S
O620 Gd600 2.377 . S
O620 C602 1.240 . S
O621 Gd601 2.395 . S
O621 C602 1.240 . S
O622 Gd600 2.448 . S
O622 C603 1.249 . S
O623 Gd600 2.506 . S
O623 C603 1.252 . S
O624 Gd600 2.435 1_556 S
O624 C610 1.256 . S
O625 Gd600 2.717 1_556 S
O625 Gd601 2.327 1_556 S
O625 C610 1.257 . S
O626 Gd601 2.377 1_556 S
O626 C611 1.240 . S
O627 Gd600 2.395 1_556 S
O627 C611 1.240 . S
O628 Gd601 2.448 1_556 S
O628 C612 1.249 . S
O629 Gd601 2.506 1_556 S
O629 C612 1.252 . S
O630 Gd601 2.435 . S
O630 C619 1.256 . S
O631 Gd600 2.327 . S
O631 Gd601 2.717 . S
O631 C619 1.257 . S
H632 C605 0.930 . S
H633 C606 0.931 . S
H634 C608 0.931 . S
H635 C609 0.931 . S
H636 C614 0.930 . S
H637 C615 0.931 1_565 S
H638 C617 0.931 . S
H639 C618 0.931 . S
Gd640 C643 2.818 . S
Gd640 O660 2.377 . S
Gd640 O662 2.448 . S
Gd640 O663 2.506 . S
Gd640 O664 2.435 . S
Gd640 O665 2.717 . S
Gd640 O667 2.395 . S
Gd640 O671 2.327 . S
Gd641 C652 2.818 . S
Gd641 O661 2.395 . S
Gd641 O665 2.327 . S
Gd641 O666 2.377 . S
Gd641 O668 2.448 . S
Gd641 O669 2.506 . S
Gd641 O670 2.435 . S
Gd641 O671 2.717 . S
C642 O660 1.240 . S
C642 O661 1.240 . S
C643 Gd640 2.818 . S
C643 C644 1.510 . S
C643 O662 1.249 . S
C643 O663 1.252 . S
C644 C643 1.510 . S
C644 C645 1.404 . S
C644 C646 1.352 . S
C645 C644 1.404 . S
C645 C649 1.389 . S
C645 H672 0.930 . S
C646 C644 1.352 . S
C646 C648 1.374 . S
C646 H673 0.931 . S
C647 C648 1.359 . S
C647 C649 1.364 . S
C648 C646 1.374 . S
C648 C647 1.359 . S
C648 H674 0.931 . S
C649 C645 1.389 . S
C649 C647 1.364 . S
C649 H675 0.931 . S
C650 O664 1.256 . S
C650 O665 1.257 . S
C651 O666 1.240 . S
C651 O667 1.240 . S
C652 Gd641 2.818 . S
C652 C653 1.510 . S
C652 O668 1.249 . S
C652 O669 1.252 . S
C653 C652 1.510 . S
C653 C654 1.404 . S
C653 C655 1.352 . S
C654 C653 1.404 . S
C654 C658 1.389 . S
C654 H676 0.930 . S
C655 C653 1.352 . S
C655 C657 1.374 . S
C655 H677 0.931 . S
C656 C657 1.359 . S
C656 C658 1.364 . S
C657 C655 1.374 . S
C657 C656 1.359 . S
C657 H678 0.931 . S
C658 C654 1.389 . S
C658 C656 1.364 . S
C658 H679 0.931 . S
C659 O670 1.256 . S
C659 O671 1.257 . S
O660 Gd640 2.377 . S
O660 C642 1.240 . S
O661 Gd641 2.395 . S
O661 C642 1.240 . S
O662 Gd640 2.448 . S
O662 C643 1.249 . S
O663 Gd640 2.506 . S
O663 C643 1.252 . S
O664 Gd640 2.435 . S
O664 C650 1.256 . S
O665 Gd640 2.717 . S
O665 Gd641 2.327 . S
O665 C650 1.257 . S
O666 Gd641 2.377 . S
O666 C651 1.240 . S
O667 Gd640 2.395 . S
O667 C651 1.240 . S
O668 Gd641 2.448 . S
O668 C652 1.249 . S
O669 Gd641 2.506 . S
O669 C652 1.252 . S
O670 Gd641 2.435 . S
O670 C659 1.256 . S
O671 Gd640 2.327 . S
O671 Gd641 2.717 . S
O671 C659 1.257 . S
H672 C645 0.930 . S
H673 C646 0.931 . S
H674 C648 0.931 . S
H675 C649 0.931 . S
H676 C654 0.930 . S
H677 C655 0.931 . S
H678 C657 0.931 . S
H679 C658 0.931 . S
Gd680 C683 2.818 1_554 S
Gd680 O700 2.377 1_554 S
Gd680 O702 2.448 1_554 S
Gd680 O703 2.506 1_554 S
Gd680 O704 2.435 . S
Gd680 O705 2.717 . S
Gd680 O707 2.395 . S
Gd680 O711 2.327 1_554 S
Gd681 C692 2.818 . S
Gd681 O701 2.395 1_554 S
Gd681 O705 2.327 . S
Gd681 O706 2.377 . S
Gd681 O708 2.448 . S
Gd681 O709 2.506 . S
Gd681 O710 2.435 1_554 S
Gd681 O711 2.717 1_554 S
C682 O700 1.240 . S
C682 O701 1.240 . S
C683 Gd680 2.818 1_556 S
C683 C684 1.510 . S
C683 O702 1.249 . S
C683 O703 1.252 . S
C684 C683 1.510 . S
C684 C685 1.404 . S
C684 C686 1.352 . S
C685 C684 1.404 . S
C685 C689 1.389 . S
C685 H712 0.930 . S
C686 C684 1.352 . S
C686 C688 1.374 . S
C686 H713 0.931 . S
C687 C688 1.359 . S
C687 C689 1.364 . S
C688 C686 1.374 . S
C688 C687 1.359 . S
C688 H714 0.931 . S
C689 C685 1.389 . S
C689 C687 1.364 . S
C689 H715 0.931 . S
C690 O704 1.256 . S
C690 O705 1.257 . S
C691 O706 1.240 . S
C691 O707 1.240 . S
C692 Gd681 2.818 . S
C692 C693 1.510 . S
C692 O708 1.249 . S
C692 O709 1.252 . S
C693 C692 1.510 . S
C693 C694 1.404 . S
C693 C695 1.352 . S
C694 C693 1.404 . S
C694 C698 1.389 . S
C694 H716 0.930 . S
C695 C693 1.352 . S
C695 C697 1.374 . S
C695 H717 0.931 . S
C696 C697 1.359 . S
C696 C698 1.364 . S
C697 C695 1.374 . S
C697 C696 1.359 . S
C697 H718 0.931 . S
C698 C694 1.389 . S
C698 C696 1.364 . S
C698 H719 0.931 . S
C699 O710 1.256 . S
C699 O711 1.257 . S
O700 Gd680 2.377 1_556 S
O700 C682 1.240 . S
O701 Gd681 2.395 1_556 S
O701 C682 1.240 . S
O702 Gd680 2.448 1_556 S
O702 C683 1.249 . S
O703 Gd680 2.506 1_556 S
O703 C683 1.252 . S
O704 Gd680 2.435 . S
O704 C690 1.256 . S
O705 Gd680 2.717 . S
O705 Gd681 2.327 . S
O705 C690 1.257 . S
O706 Gd681 2.377 . S
O706 C691 1.240 . S
O707 Gd680 2.395 . S
O707 C691 1.240 . S
O708 Gd681 2.448 . S
O708 C692 1.249 . S
O709 Gd681 2.506 . S
O709 C692 1.252 . S
O710 Gd681 2.435 1_556 S
O710 C699 1.256 . S
O711 Gd680 2.327 1_556 S
O711 Gd681 2.717 1_556 S
O711 C699 1.257 . S
H712 C685 0.930 . S
H713 C686 0.931 . S
H714 C688 0.931 . S
H715 C689 0.931 . S
H716 C694 0.930 . S
H717 C695 0.931 . S
H718 C697 0.931 . S
H719 C698 0.931 . S
Gd720 C723 2.818 . S
Gd720 O740 2.377 . S
Gd720 O742 2.448 . S
Gd720 O743 2.506 . S
Gd720 O744 2.435 . S
Gd720 O745 2.717 . S
Gd720 O747 2.395 . S
Gd720 O751 2.327 . S
Gd721 C732 2.818 . S
Gd721 O741 2.395 . S
Gd721 O745 2.327 . S
Gd721 O746 2.377 . S
Gd721 O748 2.448 . S
Gd721 O749 2.506 . S
Gd721 O750 2.435 . S
Gd721 O751 2.717 . S
C722 O740 1.240 . S
C722 O741 1.240 . S
C723 Gd720 2.818 . S
C723 C724 1.510 . S
C723 O742 1.249 . S
C723 O743 1.252 . S
C724 C723 1.510 . S
C724 C725 1.404 . S
C724 C726 1.352 . S
C725 C724 1.404 . S
C725 C729 1.389 . S
C725 H752 0.930 . S
C726 C724 1.352 . S
C726 C728 1.374 . S
C726 H753 0.931 . S
C727 C728 1.359 . S
C727 C729 1.364 . S
C728 C726 1.374 . S
C728 C727 1.359 . S
C728 H754 0.931 . S
C729 C725 1.389 . S
C729 C727 1.364 . S
C729 H755 0.931 . S
C730 O744 1.256 . S
C730 O745 1.257 . S
C731 O746 1.240 . S
C731 O747 1.240 . S
C732 Gd721 2.818 . S
C732 C733 1.510 1_655 S
C732 O748 1.249 . S
C732 O749 1.252 . S
C733 C732 1.510 1_455 S
C733 C734 1.404 . S
C733 C735 1.352 . S
C734 C733 1.404 . S
C734 C738 1.389 . S
C734 H756 0.930 . S
C735 C733 1.352 . S
C735 C737 1.374 . S
C735 H757 0.931 1_455 S
C736 C737 1.359 . S
C736 C738 1.364 . S
C737 C735 1.374 . S
C737 C736 1.359 . S
C737 H758 0.931 . S
C738 C734 1.389 . S
C738 C736 1.364 . S
C738 H759 0.931 . S
C739 O750 1.256 . S
C739 O751 1.257 . S
O740 Gd720 2.377 . S
O740 C722 1.240 . S
O741 Gd721 2.395 . S
O741 C722 1.240 . S
O742 Gd720 2.448 . S
O742 C723 1.249 . S
O743 Gd720 2.506 . S
O743 C723 1.252 . S
O744 Gd720 2.435 . S
O744 C730 1.256 . S
O745 Gd720 2.717 . S
O745 Gd721 2.327 . S
O745 C730 1.257 . S
O746 Gd721 2.377 . S
O746 C731 1.240 . S
O747 Gd720 2.395 . S
O747 C731 1.240 . S
O748 Gd721 2.448 . S
O748 C732 1.249 . S
O749 Gd721 2.506 . S
O749 C732 1.252 . S
O750 Gd721 2.435 . S
O750 C739 1.256 . S
O751 Gd720 2.327 . S
O751 Gd721 2.717 . S
O751 C739 1.257 . S
H752 C725 0.930 . S
H753 C726 0.931 . S
H754 C728 0.931 . S
H755 C729 0.931 . S
H756 C734 0.930 . S
H757 C735 0.931 1_655 S
H758 C737 0.931 . S
H759 C738 0.931 . S
Gd760 C763 2.818 . S
Gd760 O780 2.377 . S
Gd760 O782 2.448 . S
Gd760 O783 2.506 . S
Gd760 O784 2.435 . S
Gd760 O785 2.717 . S
Gd760 O787 2.395 . S
Gd760 O791 2.327 . S
Gd761 C772 2.818 . S
Gd761 O781 2.395 . S
Gd761 O785 2.327 . S
Gd761 O786 2.377 . S
Gd761 O788 2.448 . S
Gd761 O789 2.506 . S
Gd761 O790 2.435 . S
Gd761 O791 2.717 . S
C762 O780 1.240 . S
C762 O781 1.240 . S
C763 Gd760 2.818 . S
C763 C764 1.510 . S
C763 O782 1.249 . S
C763 O783 1.252 . S
C764 C763 1.510 . S
C764 C765 1.404 . S
C764 C766 1.352 . S
C765 C764 1.404 . S
C765 C769 1.389 . S
C765 H792 0.930 . S
C766 C764 1.352 . S
C766 C768 1.374 . S
C766 H793 0.931 . S
C767 C768 1.359 . S
C767 C769 1.364 . S
C768 C766 1.374 . S
C768 C767 1.359 . S
C768 H794 0.931 . S
C769 C765 1.389 . S
C769 C767 1.364 . S
C769 H795 0.931 . S
C770 O784 1.256 . S
C770 O785 1.257 . S
C771 O786 1.240 . S
C771 O787 1.240 . S
C772 Gd761 2.818 . S
C772 C773 1.510 . S
C772 O788 1.249 . S
C772 O789 1.252 . S
C773 C772 1.510 . S
C773 C774 1.404 . S
C773 C775 1.352 . S
C774 C773 1.404 . S
C774 C778 1.389 . S
C774 H796 0.930 . S
C775 C773 1.352 . S
C775 C777 1.374 . S
C775 H797 0.931 . S
C776 C777 1.359 . S
C776 C778 1.364 . S
C777 C775 1.374 . S
C777 C776 1.359 . S
C777 H798 0.931 . S
C778 C774 1.389 . S
C778 C776 1.364 . S
C778 H799 0.931 . S
C779 O790 1.256 . S
C779 O791 1.257 . S
O780 Gd760 2.377 . S
O780 C762 1.240 . S
O781 Gd761 2.395 . S
O781 C762 1.240 . S
O782 Gd760 2.448 . S
O782 C763 1.249 . S
O783 Gd760 2.506 . S
O783 C763 1.252 . S
O784 Gd760 2.435 . S
O784 C770 1.256 . S
O785 Gd760 2.717 . S
O785 Gd761 2.327 . S
O785 C770 1.257 . S
O786 Gd761 2.377 . S
O786 C771 1.240 . S
O787 Gd760 2.395 . S
O787 C771 1.240 . S
O788 Gd761 2.448 . S
O788 C772 1.249 . S
O789 Gd761 2.506 . S
O789 C772 1.252 . S
O790 Gd761 2.435 . S
O790 C779 1.256 . S
O791 Gd760 2.327 . S
O791 Gd761 2.717 . S
O791 C779 1.257 . S
H792 C765 0.930 . S
H793 C766 0.931 . S
H794 C768 0.931 . S
H795 C769 0.931 . S
H796 C774 0.930 . S
H797 C775 0.931 . S
H798 C777 0.931 . S
H799 C778 0.931 . S
Gd800 C803 2.818 . S
Gd800 O820 2.377 . S
Gd800 O822 2.448 . S
Gd800 O823 2.506 . S
Gd800 O824 2.435 . S
Gd800 O825 2.717 . S
Gd800 O827 2.395 . S
Gd800 O831 2.327 . S
Gd801 C812 2.818 . S
Gd801 O821 2.395 . S
Gd801 O825 2.327 . S
Gd801 O826 2.377 . S
Gd801 O828 2.448 . S
Gd801 O829 2.506 . S
Gd801 O830 2.435 . S
Gd801 O831 2.717 . S
C802 O820 1.240 . S
C802 O821 1.240 . S
C803 Gd800 2.818 . S
C803 C804 1.510 . S
C803 O822 1.249 . S
C803 O823 1.252 . S
C804 C803 1.510 . S
C804 C805 1.404 . S
C804 C806 1.352 . S
C805 C804 1.404 . S
C805 C809 1.389 . S
C805 H832 0.930 . S
C806 C804 1.352 . S
C806 C808 1.374 . S
C806 H833 0.931 . S
C807 C808 1.359 . S
C807 C809 1.364 . S
C808 C806 1.374 . S
C808 C807 1.359 . S
C808 H834 0.931 . S
C809 C805 1.389 . S
C809 C807 1.364 . S
C809 H835 0.931 . S
C810 O824 1.256 . S
C810 O825 1.257 . S
C811 O826 1.240 . S
C811 O827 1.240 . S
C812 Gd801 2.818 . S
C812 C813 1.510 . S
C812 O828 1.249 . S
C812 O829 1.252 . S
C813 C812 1.510 . S
C813 C814 1.404 . S
C813 C815 1.352 . S
C814 C813 1.404 . S
C814 C818 1.389 . S
C814 H836 0.930 . S
C815 C813 1.352 . S
C815 C817 1.374 . S
C815 H837 0.931 . S
C816 C817 1.359 . S
C816 C818 1.364 . S
C817 C815 1.374 . S
C817 C816 1.359 . S
C817 H838 0.931 . S
C818 C814 1.389 . S
C818 C816 1.364 . S
C818 H839 0.931 . S
C819 O830 1.256 . S
C819 O831 1.257 . S
O820 Gd800 2.377 . S
O820 C802 1.240 . S
O821 Gd801 2.395 . S
O821 C802 1.240 . S
O822 Gd800 2.448 . S
O822 C803 1.249 . S
O823 Gd800 2.506 . S
O823 C803 1.252 . S
O824 Gd800 2.435 . S
O824 C810 1.256 . S
O825 Gd800 2.717 . S
O825 Gd801 2.327 . S
O825 C810 1.257 . S
O826 Gd801 2.377 . S
O826 C811 1.240 . S
O827 Gd800 2.395 . S
O827 C811 1.240 . S
O828 Gd801 2.448 . S
O828 C812 1.249 . S
O829 Gd801 2.506 . S
O829 C812 1.252 . S
O830 Gd801 2.435 . S
O830 C819 1.256 . S
O831 Gd800 2.327 . S
O831 Gd801 2.717 . S
O831 C819 1.257 . S
H832 C805 0.930 . S
H833 C806 0.931 . S
H834 C808 0.931 . S
H835 C809 0.931 . S
H836 C814 0.930 . S
H837 C815 0.931 . S
H838 C817 0.931 . S
H839 C818 0.931 . S
Gd840 C843 2.818 1_556 S
Gd840 O860 2.377 1_556 S
Gd840 O862 2.448 1_556 S
Gd840 O863 2.506 1_556 S
Gd840 O864 2.435 . S
Gd840 O865 2.717 . S
Gd840 O867 2.395 . S
Gd840 O871 2.327 1_556 S
Gd841 C852 2.818 . S
Gd841 O861 2.395 1_556 S
Gd841 O865 2.327 . S
Gd841 O866 2.377 . S
Gd841 O868 2.448 . S
Gd841 O869 2.506 . S
Gd841 O870 2.435 1_556 S
Gd841 O871 2.717 1_556 S
C842 O860 1.240 . S
C842 O861 1.240 . S
C843 Gd840 2.818 1_554 S
C843 C844 1.510 . S
C843 O862 1.249 . S
C843 O863 1.252 . S
C844 C843 1.510 . S
C844 C845 1.404 . S
C844 C846 1.352 . S
C845 C844 1.404 . S
C845 C849 1.389 . S
C845 H872 0.930 . S
C846 C844 1.352 . S
C846 C848 1.374 . S
C846 H873 0.931 . S
C847 C848 1.359 . S
C847 C849 1.364 . S
C848 C846 1.374 . S
C848 C847 1.359 . S
C848 H874 0.931 . S
C849 C845 1.389 . S
C849 C847 1.364 . S
C849 H875 0.931 . S
C850 O864 1.256 . S
C850 O865 1.257 . S
C851 O866 1.240 . S
C851 O867 1.240 . S
C852 Gd841 2.818 . S
C852 C853 1.510 . S
C852 O868 1.249 . S
C852 O869 1.252 . S
C853 C852 1.510 . S
C853 C854 1.404 . S
C853 C855 1.352 . S
C854 C853 1.404 . S
C854 C858 1.389 . S
C854 H876 0.930 . S
C855 C853 1.352 . S
C855 C857 1.374 . S
C855 H877 0.931 . S
C856 C857 1.359 . S
C856 C858 1.364 . S
C857 C855 1.374 . S
C857 C856 1.359 . S
C857 H878 0.931 . S
C858 C854 1.389 . S
C858 C856 1.364 . S
C858 H879 0.931 . S
C859 O870 1.256 . S
C859 O871 1.257 . S
O860 Gd840 2.377 1_554 S
O860 C842 1.240 . S
O861 Gd841 2.395 1_554 S
O861 C842 1.240 . S
O862 Gd840 2.448 1_554 S
O862 C843 1.249 . S
O863 Gd840 2.506 1_554 S
O863 C843 1.252 . S
O864 Gd840 2.435 . S
O864 C850 1.256 . S
O865 Gd840 2.717 . S
O865 Gd841 2.327 . S
O865 C850 1.257 . S
O866 Gd841 2.377 . S
O866 C851 1.240 . S
O867 Gd840 2.395 . S
O867 C851 1.240 . S
O868 Gd841 2.448 . S
O868 C852 1.249 . S
O869 Gd841 2.506 . S
O869 C852 1.252 . S
O870 Gd841 2.435 1_554 S
O870 C859 1.256 . S
O871 Gd840 2.327 1_554 S
O871 Gd841 2.717 1_554 S
O871 C859 1.257 . S
H872 C845 0.930 . S
H873 C846 0.931 . S
H874 C848 0.931 . S
H875 C849 0.931 . S
H876 C854 0.930 . S
H877 C855 0.931 . S
H878 C857 0.931 . S
H879 C858 0.931 . S
Gd880 C883 2.818 . S
Gd880 O900 2.377 . S
Gd880 O902 2.448 . S
Gd880 O903 2.506 . S
Gd880 O904 2.435 . S
Gd880 O905 2.717 . S
Gd880 O907 2.395 . S
Gd880 O911 2.327 . S
Gd881 C892 2.818 . S
Gd881 O901 2.395 . S
Gd881 O905 2.327 . S
Gd881 O906 2.377 . S
Gd881 O908 2.448 . S
Gd881 O909 2.506 . S
Gd881 O910 2.435 . S
Gd881 O911 2.717 . S
C882 O900 1.240 . S
C882 O901 1.240 . S
C883 Gd880 2.818 . S
C883 C884 1.510 . S
C883 O902 1.249 . S
C883 O903 1.252 . S
C884 C883 1.510 . S
C884 C885 1.404 . S
C884 C886 1.352 . S
C885 C884 1.404 . S
C885 C889 1.389 . S
C885 H912 0.930 . S
C886 C884 1.352 . S
C886 C888 1.374 . S
C886 H913 0.931 . S
C887 C888 1.359 . S
C887 C889 1.364 . S
C888 C886 1.374 . S
C888 C887 1.359 . S
C888 H914 0.931 . S
C889 C885 1.389 . S
C889 C887 1.364 . S
C889 H915 0.931 . S
C890 O904 1.256 . S
C890 O905 1.257 . S
C891 O906 1.240 . S
C891 O907 1.240 . S
C892 Gd881 2.818 . S
C892 C893 1.510 1_655 S
C892 O908 1.249 . S
C892 O909 1.252 . S
C893 C892 1.510 1_455 S
C893 C894 1.404 . S
C893 C895 1.352 . S
C894 C893 1.404 . S
C894 C898 1.389 . S
C894 H916 0.930 . S
C895 C893 1.352 . S
C895 C897 1.374 . S
C895 H917 0.931 1_455 S
C896 C897 1.359 . S
C896 C898 1.364 . S
C897 C895 1.374 . S
C897 C896 1.359 . S
C897 H918 0.931 . S
C898 C894 1.389 . S
C898 C896 1.364 . S
C898 H919 0.931 . S
C899 O910 1.256 . S
C899 O911 1.257 . S
O900 Gd880 2.377 . S
O900 C882 1.240 . S
O901 Gd881 2.395 . S
O901 C882 1.240 . S
O902 Gd880 2.448 . S
O902 C883 1.249 . S
O903 Gd880 2.506 . S
O903 C883 1.252 . S
O904 Gd880 2.435 . S
O904 C890 1.256 . S
O905 Gd880 2.717 . S
O905 Gd881 2.327 . S
O905 C890 1.257 . S
O906 Gd881 2.377 . S
O906 C891 1.240 . S
O907 Gd880 2.395 . S
O907 C891 1.240 . S
O908 Gd881 2.448 . S
O908 C892 1.249 . S
O909 Gd881 2.506 . S
O909 C892 1.252 . S
O910 Gd881 2.435 . S
O910 C899 1.256 . S
O911 Gd880 2.327 . S
O911 Gd881 2.717 . S
O911 C899 1.257 . S
H912 C885 0.930 . S
H913 C886 0.931 . S
H914 C888 0.931 . S
H915 C889 0.931 . S
H916 C894 0.930 . S
H917 C895 0.931 1_655 S
H918 C897 0.931 . S
H919 C898 0.931 . S
Gd920 C923 2.818 . S
Gd920 O940 2.377 . S
Gd920 O942 2.448 . S
Gd920 O943 2.506 . S
Gd920 O944 2.435 . S
Gd920 O945 2.717 . S
Gd920 O947 2.395 . S
Gd920 O951 2.327 . S
Gd921 C932 2.818 . S
Gd921 O941 2.395 . S
Gd921 O945 2.327 . S
Gd921 O946 2.377 . S
Gd921 O948 2.448 . S
Gd921 O949 2.506 . S
Gd921 O950 2.435 . S
Gd921 O951 2.717 . S
C922 O940 1.240 . S
C922 O941 1.240 . S
C923 Gd920 2.818 . S
C923 C924 1.510 . S
C923 O942 1.249 . S
C923 O943 1.252 . S
C924 C923 1.510 . S
C924 C925 1.404 . S
C924 C926 1.352 . S
C925 C924 1.404 . S
C925 C929 1.389 . S
C925 H952 0.930 . S
C926 C924 1.352 . S
C926 C928 1.374 . S
C926 H953 0.931 . S
C927 C928 1.359 . S
C927 C929 1.364 . S
C928 C926 1.374 . S
C928 C927 1.359 . S
C928 H954 0.931 . S
C929 C925 1.389 . S
C929 C927 1.364 . S
C929 H955 0.931 . S
C930 O944 1.256 . S
C930 O945 1.257 . S
C931 O946 1.240 . S
C931 O947 1.240 . S
C932 Gd921 2.818 . S
C932 C933 1.510 . S
C932 O948 1.249 . S
C932 O949 1.252 . S
C933 C932 1.510 . S
C933 C934 1.404 . S
C933 C935 1.352 . S
C934 C933 1.404 . S
C934 C938 1.389 . S
C934 H956 0.930 . S
C935 C933 1.352 . S
C935 C937 1.374 . S
C935 H957 0.931 . S
C936 C937 1.359 . S
C936 C938 1.364 . S
C937 C935 1.374 . S
C937 C936 1.359 . S
C937 H958 0.931 . S
C938 C934 1.389 . S
C938 C936 1.364 . S
C938 H959 0.931 . S
C939 O950 1.256 . S
C939 O951 1.257 . S
O940 Gd920 2.377 . S
O940 C922 1.240 . S
O941 Gd921 2.395 . S
O941 C922 1.240 . S
O942 Gd920 2.448 . S
O942 C923 1.249 . S
O943 Gd920 2.506 . S
O943 C923 1.252 . S
O944 Gd920 2.435 . S
O944 C930 1.256 . S
O945 Gd920 2.717 . S
O945 Gd921 2.327 . S
O945 C930 1.257 . S
O946 Gd921 2.377 . S
O946 C931 1.240 . S
O947 Gd920 2.395 . S
O947 C931 1.240 . S
O948 Gd921 2.448 . S
O948 C932 1.249 . S
O949 Gd921 2.506 . S
O949 C932 1.252 . S
O950 Gd921 2.435 . S
O950 C939 1.256 . S
O951 Gd920 2.327 . S
O951 Gd921 2.717 . S
O951 C939 1.257 . S
H952 C925 0.930 . S
H953 C926 0.931 . S
H954 C928 0.931 . S
H955 C929 0.931 . S
H956 C934 0.930 . S
H957 C935 0.931 . S
H958 C937 0.931 . S
H959 C938 0.931 . S
Gd960 C963 2.818 . S
Gd960 O980 2.377 . S
Gd960 O982 2.448 . S
Gd960 O983 2.506 . S
Gd960 O984 2.435 . S
Gd960 O985 2.717 . S
Gd960 O987 2.395 . S
Gd960 O991 2.327 . S
Gd961 C972 2.818 . S
Gd961 O981 2.395 . S
Gd961 O985 2.327 . S
Gd961 O986 2.377 . S
Gd961 O988 2.448 . S
Gd961 O989 2.506 . S
Gd961 O990 2.435 . S
Gd961 O991 2.717 . S
C962 O980 1.240 . S
C962 O981 1.240 . S
C963 Gd960 2.818 . S
C963 C964 1.510 . S
C963 O982 1.249 . S
C963 O983 1.252 . S
C964 C963 1.510 . S
C964 C965 1.404 . S
C964 C966 1.352 . S
C965 C964 1.404 . S
C965 C969 1.389 . S
C965 H992 0.930 . S
C966 C964 1.352 . S
C966 C968 1.374 . S
C966 H993 0.931 . S
C967 C968 1.359 . S
C967 C969 1.364 . S
C968 C966 1.374 . S
C968 C967 1.359 . S
C968 H994 0.931 . S
C969 C965 1.389 . S
C969 C967 1.364 . S
C969 H995 0.931 . S
C970 O984 1.256 . S
C970 O985 1.257 . S
C971 O986 1.240 . S
C971 O987 1.240 . S
C972 Gd961 2.818 . S
C972 C973 1.510 . S
C972 O988 1.249 . S
C972 O989 1.252 . S
C973 C972 1.510 . S
C973 C974 1.404 . S
C973 C975 1.352 . S
C974 C973 1.404 . S
C974 C978 1.389 . S
C974 H996 0.930 . S
C975 C973 1.352 . S
C975 C977 1.374 . S
C975 H997 0.931 . S
C976 C977 1.359 . S
C976 C978 1.364 . S
C977 C975 1.374 . S
C977 C976 1.359 . S
C977 H998 0.931 . S
C978 C974 1.389 . S
C978 C976 1.364 . S
C978 H999 0.931 . S
C979 O990 1.256 . S
C979 O991 1.257 . S
O980 Gd960 2.377 . S
O980 C962 1.240 . S
O981 Gd961 2.395 . S
O981 C962 1.240 . S
O982 Gd960 2.448 . S
O982 C963 1.249 . S
O983 Gd960 2.506 . S
O983 C963 1.252 . S
O984 Gd960 2.435 . S
O984 C970 1.256 . S
O985 Gd960 2.717 . S
O985 Gd961 2.327 . S
O985 C970 1.257 . S
O986 Gd961 2.377 . S
O986 C971 1.240 . S
O987 Gd960 2.395 . S
O987 C971 1.240 . S
O988 Gd961 2.448 . S
O988 C972 1.249 . S
O989 Gd961 2.506 . S
O989 C972 1.252 . S
O990 Gd961 2.435 . S
O990 C979 1.256 . S
O991 Gd960 2.327 . S
O991 Gd961 2.717 . S
O991 C979 1.257 . S
H992 C965 0.930 . S
H993 C966 0.931 . S
H994 C968 0.931 . S
H995 C969 0.931 . S
H996 C974 0.930 . S
H997 C975 0.931 . S
H998 C977 0.931 . S
H999 C978 0.931 . S
Gd1000 C1003 2.818 . S
Gd1000 O1020 2.377 . S
Gd1000 O1022 2.448 . S
Gd1000 O1023 2.506 . S
Gd1000 O1024 2.435 1_556 S
Gd1000 O1025 2.717 1_556 S
Gd1000 O1027 2.395 1_556 S
Gd1000 O1031 2.327 . S
Gd1001 C1012 2.818 1_556 S
Gd1001 O1021 2.395 . S
Gd1001 O1025 2.327 1_556 S
Gd1001 O1026 2.377 1_556 S
Gd1001 O1028 2.448 1_556 S
Gd1001 O1029 2.506 1_556 S
Gd1001 O1030 2.435 . S
Gd1001 O1031 2.717 . S
C1002 O1020 1.240 . S
C1002 O1021 1.240 . S
C1003 Gd1000 2.818 . S
C1003 C1004 1.510 . S
C1003 O1022 1.249 . S
C1003 O1023 1.252 . S
C1004 C1003 1.510 . S
C1004 C1005 1.404 . S
C1004 C1006 1.352 . S
C1005 C1004 1.404 . S
C1005 C1009 1.389 . S
C1005 H1032 0.930 . S
C1006 C1004 1.352 . S
C1006 C1008 1.374 . S
C1006 H1033 0.931 . S
C1007 C1008 1.359 . S
C1007 C1009 1.364 . S
C1008 C1006 1.374 . S
C1008 C1007 1.359 . S
C1008 H1034 0.931 . S
C1009 C1005 1.389 . S
C1009 C1007 1.364 . S
C1009 H1035 0.931 . S
C1010 O1024 1.256 . S
C1010 O1025 1.257 . S
C1011 O1026 1.240 . S
C1011 O1027 1.240 . S
C1012 Gd1001 2.818 1_554 S
C1012 C1013 1.510 . S
C1012 O1028 1.249 . S
C1012 O1029 1.252 . S
C1013 C1012 1.510 . S
C1013 C1014 1.404 . S
C1013 C1015 1.352 . S
C1014 C1013 1.404 . S
C1014 C1018 1.389 . S
C1014 H1036 0.930 . S
C1015 C1013 1.352 . S
C1015 C1017 1.374 . S
C1015 H1037 0.931 . S
C1016 C1017 1.359 . S
C1016 C1018 1.364 . S
C1017 C1015 1.374 . S
C1017 C1016 1.359 . S
C1017 H1038 0.931 . S
C1018 C1014 1.389 . S
C1018 C1016 1.364 . S
C1018 H1039 0.931 . S
C1019 O1030 1.256 . S
C1019 O1031 1.257 . S
O1020 Gd1000 2.377 . S
O1020 C1002 1.240 . S
O1021 Gd1001 2.395 . S
O1021 C1002 1.240 . S
O1022 Gd1000 2.448 . S
O1022 C1003 1.249 . S
O1023 Gd1000 2.506 . S
O1023 C1003 1.252 . S
O1024 Gd1000 2.435 1_554 S
O1024 C1010 1.256 . S
O1025 Gd1000 2.717 1_554 S
O1025 Gd1001 2.327 1_554 S
O1025 C1010 1.257 . S
O1026 Gd1001 2.377 1_554 S
O1026 C1011 1.240 . S
O1027 Gd1000 2.395 1_554 S
O1027 C1011 1.240 . S
O1028 Gd1001 2.448 1_554 S
O1028 C1012 1.249 . S
O1029 Gd1001 2.506 1_554 S
O1029 C1012 1.252 . S
O1030 Gd1001 2.435 . S
O1030 C1019 1.256 . S
O1031 Gd1000 2.327 . S
O1031 Gd1001 2.717 . S
O1031 C1019 1.257 . S
H1032 C1005 0.930 . S
H1033 C1006 0.931 . S
H1034 C1008 0.931 . S
H1035 C1009 0.931 . S
H1036 C1014 0.930 . S
H1037 C1015 0.931 . S
H1038 C1017 0.931 . S
H1039 C1018 0.931 . S
Gd1040 C1043 2.818 . S
Gd1040 O1060 2.377 . S
Gd1040 O1062 2.448 . S
Gd1040 O1063 2.506 . S
Gd1040 O1064 2.435 . S
Gd1040 O1065 2.717 . S
Gd1040 O1067 2.395 . S
Gd1040 O1071 2.327 . S
Gd1041 C1052 2.818 . S
Gd1041 O1061 2.395 . S
Gd1041 O1065 2.327 . S
Gd1041 O1066 2.377 . S
Gd1041 O1068 2.448 . S
Gd1041 O1069 2.506 . S
Gd1041 O1070 2.435 . S
Gd1041 O1071 2.717 . S
C1042 O1060 1.240 . S
C1042 O1061 1.240 . S
C1043 Gd1040 2.818 . S
C1043 C1044 1.510 1_455 S
C1043 O1062 1.249 . S
C1043 O1063 1.252 . S
C1044 C1043 1.510 1_655 S
C1044 C1045 1.404 . S
C1044 C1046 1.352 . S
C1045 C1044 1.404 . S
C1045 C1049 1.389 . S
C1045 H1072 0.930 . S
C1046 C1044 1.352 . S
C1046 C1048 1.374 . S
C1046 H1073 0.931 1_655 S
C1047 C1048 1.359 . S
C1047 C1049 1.364 . S
C1048 C1046 1.374 . S
C1048 C1047 1.359 . S
C1048 H1074 0.931 . S
C1049 C1045 1.389 . S
C1049 C1047 1.364 . S
C1049 H1075 0.931 . S
C1050 O1064 1.256 . S
C1050 O1065 1.257 . S
C1051 O1066 1.240 . S
C1051 O1067 1.240 . S
C1052 Gd1041 2.818 . S
C1052 C1053 1.510 . S
C1052 O1068 1.249 . S
C1052 O1069 1.252 . S
C1053 C1052 1.510 . S
C1053 C1054 1.404 . S
C1053 C1055 1.352 . S
C1054 C1053 1.404 . S
C1054 C1058 1.389 . S
C1054 H1076 0.930 . S
C1055 C1053 1.352 . S
C1055 C1057 1.374 . S
C1055 H1077 0.931 . S
C1056 C1057 1.359 . S
C1056 C1058 1.364 . S
C1057 C1055 1.374 . S
C1057 C1056 1.359 . S
C1057 H1078 0.931 . S
C1058 C1054 1.389 . S
C1058 C1056 1.364 . S
C1058 H1079 0.931 . S
C1059 O1070 1.256 . S
C1059 O1071 1.257 . S
O1060 Gd1040 2.377 . S
O1060 C1042 1.240 . S
O1061 Gd1041 2.395 . S
O1061 C1042 1.240 . S
O1062 Gd1040 2.448 . S
O1062 C1043 1.249 . S
O1063 Gd1040 2.506 . S
O1063 C1043 1.252 . S
O1064 Gd1040 2.435 . S
O1064 C1050 1.256 . S
O1065 Gd1040 2.717 . S
O1065 Gd1041 2.327 . S
O1065 C1050 1.257 . S
O1066 Gd1041 2.377 . S
O1066 C1051 1.240 . S
O1067 Gd1040 2.395 . S
O1067 C1051 1.240 . S
O1068 Gd1041 2.448 . S
O1068 C1052 1.249 . S
O1069 Gd1041 2.506 . S
O1069 C1052 1.252 . S
O1070 Gd1041 2.435 . S
O1070 C1059 1.256 . S
O1071 Gd1040 2.327 . S
O1071 Gd1041 2.717 . S
O1071 C1059 1.257 . S
H1072 C1045 0.930 . S
H1073 C1046 0.931 1_455 S
H1074 C1048 0.931 . S
H1075 C1049 0.931 . S
H1076 C1054 0.930 . S
H1077 C1055 0.931 . S
H1078 C1057 0.931 . S
H1079 C1058 0.931 . S
Gd1080 C1083 2.818 . S
Gd1080 O1100 2.377 . S
Gd1080 O1102 2.448 . S
Gd1080 O1103 2.506 . S
Gd1080 O1104 2.435 . S
Gd1080 O1105 2.717 . S
Gd1080 O1107 2.395 . S
Gd1080 O1111 2.327 . S
Gd1081 C1092 2.818 . S
Gd1081 O1101 2.395 . S
Gd1081 O1105 2.327 . S
Gd1081 O1106 2.377 . S
Gd1081 O1108 2.448 . S
Gd1081 O1109 2.506 . S
Gd1081 O1110 2.435 . S
Gd1081 O1111 2.717 . S
C1082 O1100 1.240 . S
C1082 O1101 1.240 . S
C1083 Gd1080 2.818 . S
C1083 C1084 1.510 . S
C1083 O1102 1.249 . S
C1083 O1103 1.252 . S
C1084 C1083 1.510 . S
C1084 C1085 1.404 . S
C1084 C1086 1.352 . S
C1085 C1084 1.404 . S
C1085 C1089 1.389 . S
C1085 H1112 0.930 . S
C1086 C1084 1.352 . S
C1086 C1088 1.374 . S
C1086 H1113 0.931 . S
C1087 C1088 1.359 . S
C1087 C1089 1.364 . S
C1088 C1086 1.374 . S
C1088 C1087 1.359 . S
C1088 H1114 0.931 . S
C1089 C1085 1.389 . S
C1089 C1087 1.364 . S
C1089 H1115 0.931 . S
C1090 O1104 1.256 . S
C1090 O1105 1.257 . S
C1091 O1106 1.240 . S
C1091 O1107 1.240 . S
C1092 Gd1081 2.818 . S
C1092 C1093 1.510 . S
C1092 O1108 1.249 . S
C1092 O1109 1.252 . S
C1093 C1092 1.510 . S
C1093 C1094 1.404 . S
C1093 C1095 1.352 . S
C1094 C1093 1.404 . S
C1094 C1098 1.389 . S
C1094 H1116 0.930 . S
C1095 C1093 1.352 . S
C1095 C1097 1.374 . S
C1095 H1117 0.931 . S
C1096 C1097 1.359 . S
C1096 C1098 1.364 . S
C1097 C1095 1.374 . S
C1097 C1096 1.359 . S
C1097 H1118 0.931 . S
C1098 C1094 1.389 . S
C1098 C1096 1.364 . S
C1098 H1119 0.931 . S
C1099 O1110 1.256 . S
C1099 O1111 1.257 . S
O1100 Gd1080 2.377 . S
O1100 C1082 1.240 . S
O1101 Gd1081 2.395 . S
O1101 C1082 1.240 . S
O1102 Gd1080 2.448 . S
O1102 C1083 1.249 . S
O1103 Gd1080 2.506 . S
O1103 C1083 1.252 . S
O1104 Gd1080 2.435 . S
O1104 C1090 1.256 . S
O1105 Gd1080 2.717 . S
O1105 Gd1081 2.327 . S
O1105 C1090 1.257 . S
O1106 Gd1081 2.377 . S
O1106 C1091 1.240 . S
O1107 Gd1080 2.395 . S
O1107 C1091 1.240 . S
O1108 Gd1081 2.448 . S
O1108 C1092 1.249 . S
O1109 Gd1081 2.506 . S
O1109 C1092 1.252 . S
O1110 Gd1081 2.435 . S
O1110 C1099 1.256 . S
O1111 Gd1080 2.327 . S
O1111 Gd1081 2.717 . S
O1111 C1099 1.257 . S
H1112 C1085 0.930 . S
H1113 C1086 0.931 . S
H1114 C1088 0.931 . S
H1115 C1089 0.931 . S
H1116 C1094 0.930 . S
H1117 C1095 0.931 . S
H1118 C1097 0.931 . S
H1119 C1098 0.931 . S
Gd1120 C1123 2.818 . S
Gd1120 O1140 2.377 . S
Gd1120 O1142 2.448 . S
Gd1120 O1143 2.506 . S
Gd1120 O1144 2.435 . S
Gd1120 O1145 2.717 . S
Gd1120 O1147 2.395 . S
Gd1120 O1151 2.327 . S
Gd1121 C1132 2.818 . S
Gd1121 O1141 2.395 . S
Gd1121 O1145 2.327 . S
Gd1121 O1146 2.377 . S
Gd1121 O1148 2.448 . S
Gd1121 O1149 2.506 . S
Gd1121 O1150 2.435 . S
Gd1121 O1151 2.717 . S
C1122 O1140 1.240 . S
C1122 O1141 1.240 . S
C1123 Gd1120 2.818 . S
C1123 C1124 1.510 . S
C1123 O1142 1.249 . S
C1123 O1143 1.252 . S
C1124 C1123 1.510 . S
C1124 C1125 1.404 . S
C1124 C1126 1.352 . S
C1125 C1124 1.404 . S
C1125 C1129 1.389 . S
C1125 H1152 0.930 . S
C1126 C1124 1.352 . S
C1126 C1128 1.374 . S
C1126 H1153 0.931 . S
C1127 C1128 1.359 . S
C1127 C1129 1.364 . S
C1128 C1126 1.374 . S
C1128 C1127 1.359 . S
C1128 H1154 0.931 . S
C1129 C1125 1.389 . S
C1129 C1127 1.364 . S
C1129 H1155 0.931 . S
C1130 O1144 1.256 . S
C1130 O1145 1.257 . S
C1131 O1146 1.240 . S
C1131 O1147 1.240 . S
C1132 Gd1121 2.818 . S
C1132 C1133 1.510 . S
C1132 O1148 1.249 . S
C1132 O1149 1.252 . S
C1133 C1132 1.510 . S
C1133 C1134 1.404 . S
C1133 C1135 1.352 . S
C1134 C1133 1.404 . S
C1134 C1138 1.389 . S
C1134 H1156 0.930 . S
C1135 C1133 1.352 . S
C1135 C1137 1.374 . S
C1135 H1157 0.931 . S
C1136 C1137 1.359 . S
C1136 C1138 1.364 . S
C1137 C1135 1.374 . S
C1137 C1136 1.359 . S
C1137 H1158 0.931 . S
C1138 C1134 1.389 . S
C1138 C1136 1.364 . S
C1138 H1159 0.931 . S
C1139 O1150 1.256 . S
C1139 O1151 1.257 . S
O1140 Gd1120 2.377 . S
O1140 C1122 1.240 . S
O1141 Gd1121 2.395 . S
O1141 C1122 1.240 . S
O1142 Gd1120 2.448 . S
O1142 C1123 1.249 . S
O1143 Gd1120 2.506 . S
O1143 C1123 1.252 . S
O1144 Gd1120 2.435 . S
O1144 C1130 1.256 . S
O1145 Gd1120 2.717 . S
O1145 Gd1121 2.327 . S
O1145 C1130 1.257 . S
O1146 Gd1121 2.377 . S
O1146 C1131 1.240 . S
O1147 Gd1120 2.395 . S
O1147 C1131 1.240 . S
O1148 Gd1121 2.448 . S
O1148 C1132 1.249 . S
O1149 Gd1121 2.506 . S
O1149 C1132 1.252 . S
O1150 Gd1121 2.435 . S
O1150 C1139 1.256 . S
O1151 Gd1120 2.327 . S
O1151 Gd1121 2.717 . S
O1151 C1139 1.257 . S
H1152 C1125 0.930 . S
H1153 C1126 0.931 . S
H1154 C1128 0.931 . S
H1155 C1129 0.931 . S
H1156 C1134 0.930 . S
H1157 C1135 0.931 . S
H1158 C1137 0.931 . S
H1159 C1138 0.931 . S
Gd1160 C1163 2.818 . S
Gd1160 O1180 2.377 . S
Gd1160 O1182 2.448 . S
Gd1160 O1183 2.506 . S
Gd1160 O1184 2.435 1_554 S
Gd1160 O1185 2.717 1_554 S
Gd1160 O1187 2.395 1_554 S
Gd1160 O1191 2.327 . S
Gd1161 C1172 2.818 1_554 S
Gd1161 O1181 2.395 . S
Gd1161 O1185 2.327 1_554 S
Gd1161 O1186 2.377 1_554 S
Gd1161 O1188 2.448 1_554 S
Gd1161 O1189 2.506 1_554 S
Gd1161 O1190 2.435 . S
Gd1161 O1191 2.717 . S
C1162 O1180 1.240 . S
C1162 O1181 1.240 . S
C1163 Gd1160 2.818 . S
C1163 C1164 1.510 . S
C1163 O1182 1.249 . S
C1163 O1183 1.252 . S
C1164 C1163 1.510 . S
C1164 C1165 1.404 . S
C1164 C1166 1.352 . S
C1165 C1164 1.404 . S
C1165 C1169 1.389 . S
C1165 H1192 0.930 . S
C1166 C1164 1.352 . S
C1166 C1168 1.374 . S
C1166 H1193 0.931 . S
C1167 C1168 1.359 . S
C1167 C1169 1.364 . S
C1168 C1166 1.374 . S
C1168 C1167 1.359 . S
C1168 H1194 0.931 . S
C1169 C1165 1.389 . S
C1169 C1167 1.364 . S
C1169 H1195 0.931 . S
C1170 O1184 1.256 . S
C1170 O1185 1.257 . S
C1171 O1186 1.240 . S
C1171 O1187 1.240 . S
C1172 Gd1161 2.818 1_556 S
C1172 C1173 1.510 . S
C1172 O1188 1.249 . S
C1172 O1189 1.252 . S
C1173 C1172 1.510 . S
C1173 C1174 1.404 . S
C1173 C1175 1.352 . S
C1174 C1173 1.404 . S
C1174 C1178 1.389 . S
C1174 H1196 0.930 . S
C1175 C1173 1.352 . S
C1175 C1177 1.374 . S
C1175 H1197 0.931 . S
C1176 C1177 1.359 . S
C1176 C1178 1.364 . S
C1177 C1175 1.374 . S
C1177 C1176 1.359 . S
C1177 H1198 0.931 . S
C1178 C1174 1.389 . S
C1178 C1176 1.364 . S
C1178 H1199 0.931 . S
C1179 O1190 1.256 . S
C1179 O1191 1.257 . S
O1180 Gd1160 2.377 . S
O1180 C1162 1.240 . S
O1181 Gd1161 2.395 . S
O1181 C1162 1.240 . S
O1182 Gd1160 2.448 . S
O1182 C1163 1.249 . S
O1183 Gd1160 2.506 . S
O1183 C1163 1.252 . S
O1184 Gd1160 2.435 1_556 S
O1184 C1170 1.256 . S
O1185 Gd1160 2.717 1_556 S
O1185 Gd1161 2.327 1_556 S
O1185 C1170 1.257 . S
O1186 Gd1161 2.377 1_556 S
O1186 C1171 1.240 . S
O1187 Gd1160 2.395 1_556 S
O1187 C1171 1.240 . S
O1188 Gd1161 2.448 1_556 S
O1188 C1172 1.249 . S
O1189 Gd1161 2.506 1_556 S
O1189 C1172 1.252 . S
O1190 Gd1161 2.435 . S
O1190 C1179 1.256 . S
O1191 Gd1160 2.327 . S
O1191 Gd1161 2.717 . S
O1191 C1179 1.257 . S
H1192 C1165 0.930 . S
H1193 C1166 0.931 . S
H1194 C1168 0.931 . S
H1195 C1169 0.931 . S
H1196 C1174 0.930 . S
H1197 C1175 0.931 . S
H1198 C1177 0.931 . S
H1199 C1178 0.931 . S
Gd1200 C1203 2.818 . S
Gd1200 O1220 2.377 . S
Gd1200 O1222 2.448 . S
Gd1200 O1223 2.506 . S
Gd1200 O1224 2.435 . S
Gd1200 O1225 2.717 . S
Gd1200 O1227 2.395 . S
Gd1200 O1231 2.327 . S
Gd1201 C1212 2.818 . S
Gd1201 O1221 2.395 . S
Gd1201 O1225 2.327 . S
Gd1201 O1226 2.377 . S
Gd1201 O1228 2.448 . S
Gd1201 O1229 2.506 . S
Gd1201 O1230 2.435 . S
Gd1201 O1231 2.717 . S
C1202 O1220 1.240 . S
C1202 O1221 1.240 . S
C1203 Gd1200 2.818 . S
C1203 C1204 1.510 1_455 S
C1203 O1222 1.249 . S
C1203 O1223 1.252 . S
C1204 C1203 1.510 1_655 S
C1204 C1205 1.404 . S
C1204 C1206 1.352 . S
C1205 C1204 1.404 . S
C1205 C1209 1.389 . S
C1205 H1232 0.930 . S
C1206 C1204 1.352 . S
C1206 C1208 1.374 . S
C1206 H1233 0.931 1_655 S
C1207 C1208 1.359 . S
C1207 C1209 1.364 . S
C1208 C1206 1.374 . S
C1208 C1207 1.359 . S
C1208 H1234 0.931 . S
C1209 C1205 1.389 . S
C1209 C1207 1.364 . S
C1209 H1235 0.931 . S
C1210 O1224 1.256 . S
C1210 O1225 1.257 . S
C1211 O1226 1.240 . S
C1211 O1227 1.240 . S
C1212 Gd1201 2.818 . S
C1212 C1213 1.510 . S
C1212 O1228 1.249 . S
C1212 O1229 1.252 . S
C1213 C1212 1.510 . S
C1213 C1214 1.404 . S
C1213 C1215 1.352 . S
C1214 C1213 1.404 . S
C1214 C1218 1.389 . S
C1214 H1236 0.930 . S
C1215 C1213 1.352 . S
C1215 C1217 1.374 . S
C1215 H1237 0.931 . S
C1216 C1217 1.359 . S
C1216 C1218 1.364 . S
C1217 C1215 1.374 . S
C1217 C1216 1.359 . S
C1217 H1238 0.931 . S
C1218 C1214 1.389 . S
C1218 C1216 1.364 . S
C1218 H1239 0.931 . S
C1219 O1230 1.256 . S
C1219 O1231 1.257 . S
O1220 Gd1200 2.377 . S
O1220 C1202 1.240 . S
O1221 Gd1201 2.395 . S
O1221 C1202 1.240 . S
O1222 Gd1200 2.448 . S
O1222 C1203 1.249 . S
O1223 Gd1200 2.506 . S
O1223 C1203 1.252 . S
O1224 Gd1200 2.435 . S
O1224 C1210 1.256 . S
O1225 Gd1200 2.717 . S
O1225 Gd1201 2.327 . S
O1225 C1210 1.257 . S
O1226 Gd1201 2.377 . S
O1226 C1211 1.240 . S
O1227 Gd1200 2.395 . S
O1227 C1211 1.240 . S
O1228 Gd1201 2.448 . S
O1228 C1212 1.249 . S
O1229 Gd1201 2.506 . S
O1229 C1212 1.252 . S
O1230 Gd1201 2.435 . S
O1230 C1219 1.256 . S
O1231 Gd1200 2.327 . S
O1231 Gd1201 2.717 . S
O1231 C1219 1.257 . S
H1232 C1205 0.930 . S
H1233 C1206 0.931 1_455 S
H1234 C1208 0.931 . S
H1235 C1209 0.931 . S
H1236 C1214 0.930 . S
H1237 C1215 0.931 . S
H1238 C1217 0.931 . S
H1239 C1218 0.931 . S
Gd1240 C1243 2.818 . S
Gd1240 O1260 2.377 . S
Gd1240 O1262 2.448 . S
Gd1240 O1263 2.506 . S
Gd1240 O1264 2.435 . S
Gd1240 O1265 2.717 . S
Gd1240 O1267 2.395 . S
Gd1240 O1271 2.327 . S
Gd1241 C1252 2.818 . S
Gd1241 O1261 2.395 . S
Gd1241 O1265 2.327 . S
Gd1241 O1266 2.377 . S
Gd1241 O1268 2.448 . S
Gd1241 O1269 2.506 . S
Gd1241 O1270 2.435 . S
Gd1241 O1271 2.717 . S
C1242 O1260 1.240 . S
C1242 O1261 1.240 . S
C1243 Gd1240 2.818 . S
C1243 C1244 1.510 . S
C1243 O1262 1.249 . S
C1243 O1263 1.252 . S
C1244 C1243 1.510 . S
C1244 C1245 1.404 . S
C1244 C1246 1.352 . S
C1245 C1244 1.404 . S
C1245 C1249 1.389 . S
C1245 H1272 0.930 . S
C1246 C1244 1.352 . S
C1246 C1248 1.374 . S
C1246 H1273 0.931 . S
C1247 C1248 1.359 . S
C1247 C1249 1.364 . S
C1248 C1246 1.374 . S
C1248 C1247 1.359 . S
C1248 H1274 0.931 . S
C1249 C1245 1.389 . S
C1249 C1247 1.364 . S
C1249 H1275 0.931 . S
C1250 O1264 1.256 . S
C1250 O1265 1.257 . S
C1251 O1266 1.240 . S
C1251 O1267 1.240 . S
C1252 Gd1241 2.818 . S
C1252 C1253 1.510 . S
C1252 O1268 1.249 . S
C1252 O1269 1.252 . S
C1253 C1252 1.510 . S
C1253 C1254 1.404 . S
C1253 C1255 1.352 . S
C1254 C1253 1.404 . S
C1254 C1258 1.389 . S
C1254 H1276 0.930 . S
C1255 C1253 1.352 . S
C1255 C1257 1.374 . S
C1255 H1277 0.931 . S
C1256 C1257 1.359 . S
C1256 C1258 1.364 . S
C1257 C1255 1.374 . S
C1257 C1256 1.359 . S
C1257 H1278 0.931 . S
C1258 C1254 1.389 . S
C1258 C1256 1.364 . S
C1258 H1279 0.931 . S
C1259 O1270 1.256 . S
C1259 O1271 1.257 . S
O1260 Gd1240 2.377 . S
O1260 C1242 1.240 . S
O1261 Gd1241 2.395 . S
O1261 C1242 1.240 . S
O1262 Gd1240 2.448 . S
O1262 C1243 1.249 . S
O1263 Gd1240 2.506 . S
O1263 C1243 1.252 . S
O1264 Gd1240 2.435 . S
O1264 C1250 1.256 . S
O1265 Gd1240 2.717 . S
O1265 Gd1241 2.327 . S
O1265 C1250 1.257 . S
O1266 Gd1241 2.377 . S
O1266 C1251 1.240 . S
O1267 Gd1240 2.395 . S
O1267 C1251 1.240 . S
O1268 Gd1241 2.448 . S
O1268 C1252 1.249 . S
O1269 Gd1241 2.506 . S
O1269 C1252 1.252 . S
O1270 Gd1241 2.435 . S
O1270 C1259 1.256 . S
O1271 Gd1240 2.327 . S
O1271 Gd1241 2.717 . S
O1271 C1259 1.257 . S
H1272 C1245 0.930 . S
H1273 C1246 0.931 . S
H1274 C1248 0.931 . S
H1275 C1249 0.931 . S
H1276 C1254 0.930 . S
H1277 C1255 0.931 . S
H1278 C1257 0.931 . S
H1279 C1258 0.931 . S
C7 C131 0.605 . S
C11 C47 0.605 . S
C87 C51 0.605 . S
C91 C127 0.605 . S
C211 C167 0.605 . S
C207 C251 0.605 . S
C291 C247 0.605 . S
C171 C287 0.605 . S
C336 C442 0.605 . S
C376 C322 0.605 . S
C416 C362 0.605 . S
C456 C402 0.605 . S
C496 C522 0.605 . S
C536 C562 0.605 . S
C602 C576 0.605 . S
C482 C616 0.605 . S
C647 C771 0.605 . S
C651 C687 0.605 . S
C691 C727 0.605 . S
C767 C731 0.605 . S
C807 C851 0.605 . S
C891 C847 0.605 . S
C887 C931 0.605 . S
C811 C927 0.605 . S
C1082 C976 0.605 . S
C962 C1016 0.605 . S
C1056 C1002 0.605 . S
C1042 C1096 0.605 . S
C1162 C1136 0.605 . S
C1202 C1176 0.605 . S
C1242 C1216 0.605 . S
C1256 C1122 0.605 . S
C1087 C10 1.825 . S
C50 C327 1.826 . S
C90 C1007 1.825 . S
C130 C407 1.826 . S
C170 C1167 1.825 . S
C567 C210 1.826 . S
C1247 C250 1.825 . S
C290 C487 1.826 . S
C339 C776 1.825 . S
C16 C379 1.826 . S
C696 C419 1.825 . S
C96 C459 1.826 . S
C856 C499 1.825 . S
C256 C539 1.826 . S
C579 C936 1.825 . S
C619 C176 1.826 . S
C650 C447 1.825 . S
C690 C967 1.826 . S
C730 C367 1.825 . S
C770 C1047 1.826 . S
C810 C527 1.825 . S
C850 C1207 1.826 . S
C607 C890 1.825 . S
C930 C1127 1.826 . S
C136 C979 1.825 . S
C656 C1019 1.826 . S
C56 C1059 1.825 . S
C736 C1099 1.826 . S
C216 C1139 1.825 . S
C1179 C896 1.826 . S
C1219 C296 1.825 . S
C816 C1259 1.826 . S
C19 C179 2.849 1_545 S
C59 C219 2.849 . S
C99 C259 2.849 1_565 S
C299 C139 2.849 1_554 S
C490 C330 2.849 1_545 S
C530 C370 2.849 . S
C410 C570 2.849 1_545 S
C450 C610 2.849 1_554 S
C659 C819 2.849 . S
C859 C699 2.849 1_554 S
C899 C739 2.849 . S
C939 C779 2.849 . S
C1130 C970 2.849 . S
C1010 C1170 2.849 1_554 S
C1210 C1050 2.849 . S
C1090 C1250 2.849 . S
C282 C2 3.842 . S
C42 C162 3.842 . S
C82 C202 3.842 . S
C242 C122 3.842 . S
C331 C611 3.842 . S
C491 C371 3.842 . S
C531 C411 3.842 . S
C451 C571 3.842 . S
C642 C922 3.842 . S
C802 C682 3.842 . S
C842 C722 3.842 . S
C882 C762 3.842 . S
C971 C1251 3.842 . S
C1131 C1011 3.842 . S
C1051 C1171 3.842 . S
C1211 C1091 3.842 . S
