# Generated by pormake.
# Topology uog, (4)-cn, num edge types: 1
# Building blocks:
#     Node 0, Type 0, BuildingBlock: ICAMEG_clean_sbu_1, # of connection points: 4
#     Node 1, Type 0, BuildingBlock: ICAMEG_clean_sbu_1, # of connection points: 4
#     Node 2, Type 0, BuildingBlock: ICAMEG_clean_sbu_1, # of connection points: 4
#     Node 3, Type 0, BuildingBlock: ICAMEG_clean_sbu_1, # of connection points: 4
#     Node 4, Type 0, BuildingBlock: ICAMEG_clean_sbu_1, # of connection points: 4
#     Node 5, Type 0, BuildingBlock: ICAMEG_clean_sbu_1, # of connection points: 4
#     Edge 6, Type (0, 0), BuildingBlock: EZIPEK_clean_linker_0, # of connection points: 2
#     Edge 7, Type (0, 0), BuildingBlock: EZIPEK_clean_linker_0, # of connection points: 2
#     Edge 8, Type (0, 0), BuildingBlock: EZIPEK_clean_linker_0, # of connection points: 2
#     Edge 9, Type (0, 0), BuildingBlock: EZIPEK_clean_linker_0, # of connection points: 2
#     Edge 10, Type (0, 0), BuildingBlock: EZIPEK_clean_linker_0, # of connection points: 2
#     Edge 11, Type (0, 0), BuildingBlock: EZIPEK_clean_linker_0, # of connection points: 2
#     Edge 12, Type (0, 0), BuildingBlock: EZIPEK_clean_linker_0, # of connection points: 2
#     Edge 13, Type (0, 0), BuildingBlock: EZIPEK_clean_linker_0, # of connection points: 2
#     Edge 14, Type (0, 0), BuildingBlock: EZIPEK_clean_linker_0, # of connection points: 2
#     Edge 15, Type (0, 0), BuildingBlock: EZIPEK_clean_linker_0, # of connection points: 2
#     Edge 16, Type (0, 0), BuildingBlock: EZIPEK_clean_linker_0, # of connection points: 2
#     Edge 17, Type (0, 0), BuildingBlock: EZIPEK_clean_linker_0, # of connection points: 2
# Relax obj value: 0.060
# Max RMSD: 0.119
# Mean RMSD: 0.119
data_MOF--net-uog--node1-ICAMEG_clean_sbu_1--edge1-EZIPEK_clean_linker_0
_symmetry_space_group_name_H-M    P1
_symmetry_Int_Tables_number       1
_symmetry_cell_setting            triclinic
loop_
_symmetry_equiv_pos_as_xyz
'x, y, z'
_cell_length_a     22.569691
_cell_length_b     22.576584
_cell_length_c     33.86501
_cell_angle_alpha  89.925902
_cell_angle_beta   89.919502
_cell_angle_gamma 120.23648
loop_
_atom_site_label
_atom_site_type_symbol
_atom_site_fract_x
_atom_site_fract_y
_atom_site_fract_z
_atom_type_partial_charge
Co0 Co 0.6627 0.37835 0.15774 0.0
Co1 Co 0.50889 0.26412 0.20133 0.0
O2 O 0.5808 0.28672 0.1617 0.0
C3 C 0.61166 0.33993 0.07547 0.0
O4 O 0.5493 0.31711 0.08872 0.0
C5 C 0.53466 0.1471 0.20334 0.0
O6 O 0.59987 0.19128 0.19774 0.0
O7 O 0.57949 0.29493 0.24374 0.0
O8 O 0.66716 0.39017 0.21693 0.0
H9 H 0.41044 0.30631 0.32414 0.0
H10 H 0.6653 0.26148 0.11922 0.0
O11 O 0.66268 0.36814 0.09874 0.0
H12 H 0.85657 0.35504 0.21403 0.0
H13 H 0.89322 0.55345 0.10301 0.0
H14 H 0.70483 0.51391 0.19299 0.0
H15 H 0.78448 0.40769 0.20674 0.0
H16 H 0.79161 0.43809 0.11012 0.0
O17 O 0.49191 0.16789 0.20613 0.0
H18 H 0.49813 0.33389 0.27277 0.0
H19 H 0.36978 0.14343 0.2164 0.0
H20 H 0.8058 0.63 0.18717 0.0
H21 H 0.73681 0.20795 0.12502 0.0
H22 H 0.90098 0.65032 0.1419 0.0
H23 H 0.83305 0.25448 0.17293 0.0
O24 O 0.60312 0.42022 0.15317 0.0
H25 H 0.39709 0.14409 0.07484 0.0
H26 H 0.39408 0.28952 0.18242 0.0
H27 H 0.31079 0.25632 0.12808 0.0
H28 H 0.31167 0.18276 0.07385 0.0
H29 H 0.4801 0.1796 0.12957 0.0
H30 H 0.28085 0.11334 0.26737 0.0
H31 H 0.30076 0.19526 0.32161 0.0
O32 O 0.52078 0.35807 0.19759 0.0
C33 C 0.63727 0.35045 0.24632 0.0
C34 C 0.40094 0.27038 0.3005 0.0
C35 C 0.32828 0.16203 0.26868 0.0
N36 N 0.43868 0.24099 0.24122 0.0
C37 C 0.45031 0.28594 0.27121 0.0
C38 C 0.37886 0.17934 0.23992 0.0
C39 C 0.33947 0.20802 0.29911 0.0
C40 C 0.70749 0.28256 0.13973 0.0
N41 N 0.72044 0.3376 0.16258 0.0
C42 C 0.74766 0.25181 0.14306 0.0
C43 C 0.80157 0.27787 0.16998 0.0
C44 C 0.81475 0.33424 0.19307 0.0
C45 C 0.77351 0.36367 0.18891 0.0
C46 C 0.85228 0.54517 0.12301 0.0
C47 C 0.74641 0.52219 0.17369 0.0
C48 C 0.79459 0.47996 0.12716 0.0
N49 N 0.74291 0.46903 0.15259 0.0
C50 C 0.80328 0.58811 0.1703 0.0
C51 C 0.8566 0.5995 0.14484 0.0
C52 C 0.55232 0.40991 0.17481 0.0
C53 C 0.39573 0.17567 0.09845 0.0
C54 C 0.3948 0.25744 0.15898 0.0
C55 C 0.34745 0.23878 0.12828 0.0
C56 C 0.34797 0.19752 0.09787 0.0
N57 N 0.4412 0.23537 0.15949 0.0
C58 C 0.44232 0.19548 0.12961 0.0
Co59 Co 0.29122 0.66715 0.48987 0.0
Co60 Co 0.24997 0.50503 0.52298 0.0
O61 O 0.3008 0.58558 0.48892 0.0
C62 C 0.26736 0.62122 0.4064 0.0
O63 O 0.23737 0.55908 0.42086 0.0
C64 C 0.39767 0.53936 0.52425 0.0
O65 O 0.4165 0.60099 0.51123 0.0
O66 O 0.2753 0.56459 0.57035 0.0
O67 O 0.28923 0.66573 0.54958 0.0
H68 H 0.08801 0.37063 0.63319 0.0
H69 H 0.40539 0.67583 0.44147 0.0
O70 O 0.29426 0.67138 0.43043 0.0
H71 H 0.51683 0.85123 0.5449 0.0
H72 H 0.35239 0.90532 0.44757 0.0
H73 H 0.19632 0.70492 0.52833 0.0
H74 H 0.39092 0.78037 0.54199 0.0
H75 H 0.36325 0.80208 0.44828 0.0
O76 O 0.33439 0.49643 0.53066 0.0
H77 H 0.15167 0.47026 0.58918 0.0
H78 H 0.24247 0.36952 0.53048 0.0
H79 H 0.18417 0.80736 0.5291 0.0
H80 H 0.5314 0.74699 0.44269 0.0
H81 H 0.26272 0.90873 0.48848 0.0
H82 H 0.58802 0.83504 0.4949 0.0
O83 O 0.1888 0.60906 0.48782 0.0
H84 H 0.2925 0.43107 0.39092 0.0
H85 H 0.11919 0.38779 0.49302 0.0
H86 H 0.08466 0.31762 0.43258 0.0
H87 H 0.17167 0.33892 0.38104 0.0
H88 H 0.32459 0.50059 0.45156 0.0
H89 H 0.18038 0.26901 0.5741 0.0
H90 H 0.1022 0.269 0.6258 0.0
O91 O 0.16441 0.50973 0.5171 0.0
C92 C 0.28678 0.6252 0.57695 0.0
C93 C 0.1217 0.36988 0.61067 0.0
C94 C 0.17363 0.31291 0.57755 0.0
N95 N 0.20021 0.42553 0.55699 0.0
C96 C 0.15768 0.42608 0.58555 0.0
C97 C 0.2088 0.37007 0.55299 0.0
C98 C 0.12975 0.31292 0.60654 0.0
C99 C 0.42945 0.71476 0.4639 0.0
N100 N 0.39059 0.72361 0.49168 0.0
C101 C 0.50093 0.75458 0.46462 0.0
C102 C 0.53267 0.80386 0.49397 0.0
C103 C 0.49276 0.81285 0.52209 0.0
C104 C 0.42142 0.77212 0.52046 0.0
C105 C 0.31848 0.86189 0.46585 0.0
C106 C 0.23184 0.74932 0.51155 0.0
C107 C 0.32457 0.80333 0.46653 0.0
N108 N 0.28232 0.7484 0.48978 0.0
C109 C 0.2242 0.80699 0.51165 0.0
C110 C 0.26812 0.86374 0.48876 0.0
C111 C 0.14655 0.54989 0.50176 0.0
C112 C 0.25425 0.42075 0.41335 0.0
C113 C 0.15752 0.39709 0.4709 0.0
C114 C 0.1376 0.35723 0.43668 0.0
C115 C 0.18643 0.3692 0.40778 0.0
N116 N 0.22431 0.44719 0.47636 0.0
C117 C 0.27225 0.45962 0.44792 0.0
Co118 Co 0.63587 0.28833 0.82889 0.0
Co119 Co 0.73584 0.22408 0.86685 0.0
O120 O 0.72063 0.28391 0.83107 0.0
C121 C 0.68406 0.2957 0.74434 0.0
O122 O 0.7342 0.28773 0.75713 0.0
C123 C 0.85899 0.36293 0.87586 0.0
O124 O 0.81732 0.38726 0.87331 0.0
O125 O 0.70911 0.26028 0.91311 0.0
O126 O 0.63022 0.284 0.88853 0.0
H127 H 0.67506 0.04853 0.97468 0.0
H128 H 0.76826 0.39858 0.79393 0.0
O129 O 0.64015 0.29492 0.76867 0.0
H130 H 0.68785 0.51836 0.88099 0.0
H131 H 0.4769 0.36772 0.77807 0.0
H132 H 0.5047 0.21862 0.87324 0.0
H133 H 0.62135 0.39274 0.87475 0.0
H134 H 0.58465 0.3657 0.78116 0.0
O135 O 0.83479 0.29841 0.87426 0.0
H136 H 0.65476 0.12185 0.92954 0.0
H137 H 0.85214 0.19887 0.87889 0.0
H138 H 0.39595 0.21911 0.87162 0.0
H139 H 0.83609 0.52398 0.79929 0.0
H140 H 0.38138 0.29413 0.82366 0.0
H141 H 0.79608 0.58503 0.84304 0.0
O142 O 0.57971 0.18604 0.82463 0.0
H143 H 0.86261 0.24306 0.74085 0.0
H144 H 0.69459 0.08376 0.83783 0.0
H145 H 0.72371 0.03752 0.77987 0.0
H146 H 0.80844 0.11737 0.73087 0.0
H147 H 0.83073 0.28703 0.79886 0.0
H148 H 0.87493 0.1265 0.92353 0.0
H149 H 0.78604 0.05054 0.97192 0.0
O150 O 0.6381 0.14824 0.86045 0.0
C151 C 0.66417 0.27845 0.91719 0.0
C152 C 0.71444 0.08178 0.95394 0.0
C153 C 0.82657 0.12554 0.92525 0.0
N154 N 0.75246 0.16587 0.90209 0.0
C155 C 0.70323 0.12378 0.92841 0.0
C156 C 0.81348 0.16681 0.9002 0.0
C157 C 0.77666 0.08287 0.95235 0.0
C158 C 0.74958 0.4243 0.81254 0.0
N159 N 0.68959 0.38788 0.83308 0.0
C160 C 0.78864 0.4956 0.81567 0.0
C161 C 0.76624 0.52981 0.84026 0.0
C162 C 0.70549 0.49247 0.86148 0.0
C163 C 0.66783 0.42123 0.85763 0.0
C164 C 0.4824 0.33448 0.79896 0.0
C165 C 0.49878 0.25096 0.85223 0.0
C166 C 0.54334 0.33274 0.8006 0.0
N167 N 0.55107 0.29127 0.827 0.0
C168 C 0.43704 0.25123 0.85147 0.0
C169 C 0.42889 0.29329 0.82457 0.0
C170 C 0.58531 0.13819 0.84111 0.0
C171 C 0.82579 0.2077 0.76204 0.0
C172 C 0.73121 0.11895 0.81658 0.0
C173 C 0.74769 0.09239 0.78386 0.0
C174 C 0.79528 0.13721 0.75642 0.0
N175 N 0.76109 0.18823 0.82179 0.0
C176 C 0.80795 0.23234 0.7951 0.0
Co177 Co 0.35093 0.64497 0.16039 0.0
Co178 Co 0.51118 0.75924 0.19826 0.0
O179 O 0.43517 0.73435 0.16154 0.0
C180 C 0.40215 0.67531 0.07774 0.0
O181 O 0.46476 0.70177 0.09136 0.0
C182 C 0.4736 0.86598 0.20572 0.0
O183 O 0.40944 0.81644 0.20399 0.0
O184 O 0.44677 0.72508 0.24434 0.0
O185 O 0.34726 0.64089 0.21984 0.0
H186 H 0.63204 0.72352 0.31243 0.0
H187 H 0.35351 0.75856 0.11447 0.0
O188 O 0.35094 0.64807 0.1011 0.0
H189 H 0.16807 0.69037 0.21217 0.0
H190 H 0.115 0.4745 0.11098 0.0
H191 H 0.30297 0.5111 0.19993 0.0
H192 H 0.23402 0.6306 0.20933 0.0
H193 H 0.22109 0.58713 0.11419 0.0
O194 O 0.522 0.85258 0.20456 0.0
H195 H 0.53665 0.69151 0.26599 0.0
H196 H 0.64757 0.88504 0.20921 0.0
H197 H 0.1975 0.39786 0.19821 0.0
H198 H 0.28775 0.8186 0.1157 0.0
H199 H 0.10245 0.37901 0.15344 0.0
H200 H 0.19461 0.78499 0.16504 0.0
O201 O 0.40558 0.59735 0.15885 0.0
H202 H 0.61204 0.89464 0.07356 0.0
H203 H 0.62318 0.7362 0.16961 0.0
H204 H 0.70102 0.77541 0.11217 0.0
H205 H 0.69588 0.85534 0.06368 0.0
H206 H 0.53434 0.85321 0.13102 0.0
H207 H 0.74399 0.91968 0.25531 0.0
H208 H 0.73675 0.83846 0.30724 0.0
O209 O 0.50242 0.66697 0.1923 0.0
C210 C 0.38451 0.67723 0.24864 0.0
C211 C 0.63602 0.75921 0.28977 0.0
C212 C 0.69879 0.86933 0.25775 0.0
N213 N 0.58692 0.78576 0.2345 0.0
C214 C 0.58225 0.74114 0.26325 0.0
C215 C 0.64399 0.84943 0.23175 0.0
C216 C 0.6947 0.82374 0.28688 0.0
C217 C 0.31251 0.74293 0.13566 0.0
N218 N 0.29789 0.69115 0.16181 0.0
C219 C 0.27565 0.77741 0.13637 0.0
C220 C 0.22349 0.75861 0.16411 0.0
C221 C 0.20866 0.70562 0.1906 0.0
C222 C 0.24653 0.67222 0.18899 0.0
C223 C 0.15577 0.48223 0.13088 0.0
C224 C 0.2614 0.50367 0.18106 0.0
C225 C 0.21596 0.54594 0.13287 0.0
N226 N 0.26744 0.55626 0.15818 0.0
C227 C 0.20199 0.43926 0.17989 0.0
C228 C 0.14877 0.42867 0.1547 0.0
C229 C 0.46247 0.61083 0.17461 0.0
C230 C 0.6149 0.85993 0.09452 0.0
C231 C 0.62015 0.77052 0.1485 0.0
C232 C 0.66464 0.79282 0.11612 0.0
C233 C 0.66181 0.83775 0.08895 0.0
N234 N 0.57401 0.79223 0.15367 0.0
C235 C 0.57123 0.83657 0.12726 0.0
Co236 Co 0.709 0.34495 0.49109 0.0
Co237 Co 0.75651 0.50587 0.5278 0.0
O238 O 0.70364 0.42885 0.492 0.0
C239 C 0.72834 0.39488 0.40863 0.0
O240 O 0.76581 0.45698 0.42271 0.0
C241 C 0.61224 0.47008 0.53572 0.0
O242 O 0.59614 0.40556 0.53526 0.0
O243 O 0.72616 0.44275 0.57395 0.0
O244 O 0.71279 0.34341 0.55082 0.0
H245 H 0.91623 0.62759 0.64068 0.0
H246 H 0.59489 0.34299 0.44618 0.0
O247 O 0.70303 0.34335 0.43178 0.0
H248 H 0.48302 0.16303 0.54764 0.0
H249 H 0.63906 0.10709 0.44399 0.0
H250 H 0.80127 0.30097 0.52629 0.0
H251 H 0.60897 0.23048 0.54277 0.0
H252 H 0.63234 0.21257 0.44767 0.0
O253 O 0.6747 0.51767 0.53403 0.0
H254 H 0.85173 0.53204 0.5944 0.0
H255 H 0.76871 0.64263 0.53859 0.0
H256 H 0.80929 0.19618 0.5241 0.0
H257 H 0.46874 0.27545 0.44938 0.0
H258 H 0.72762 0.09809 0.4827 0.0
H259 H 0.41193 0.18511 0.50063 0.0
O260 O 0.81148 0.40033 0.48765 0.0
H261 H 0.72275 0.60771 0.4036 0.0
H262 H 0.89266 0.61576 0.49808 0.0
H263 H 0.93195 0.69324 0.44053 0.0
H264 H 0.84672 0.6897 0.39283 0.0
H265 H 0.68576 0.52996 0.46103 0.0
H266 H 0.83178 0.73919 0.58449 0.0
H267 H 0.90642 0.73214 0.63589 0.0
O268 O 0.83942 0.49621 0.52202 0.0
C269 C 0.71421 0.38168 0.57922 0.0
C270 C 0.88414 0.63143 0.61829 0.0
C271 C 0.83667 0.69402 0.58679 0.0
N272 N 0.80722 0.58208 0.56352 0.0
C273 C 0.84773 0.57758 0.5919 0.0
C274 C 0.80104 0.63916 0.5609 0.0
C275 C 0.87854 0.69003 0.61562 0.0
C276 C 0.57071 0.30332 0.46829 0.0
N277 N 0.60953 0.29121 0.49439 0.0
C278 C 0.49916 0.26541 0.47008 0.0
C279 C 0.46732 0.21481 0.49887 0.0
C280 C 0.50717 0.2025 0.5253 0.0
C281 C 0.57858 0.24131 0.52258 0.0
C282 C 0.6743 0.14905 0.4626 0.0
C283 C 0.76439 0.25794 0.50922 0.0
C284 C 0.67057 0.20886 0.46495 0.0
N285 N 0.71445 0.26186 0.4887 0.0
C286 C 0.7697 0.19897 0.50762 0.0
C287 C 0.72404 0.14406 0.48429 0.0
C288 C 0.85528 0.45672 0.50381 0.0
C289 C 0.76039 0.60974 0.42417 0.0
C290 C 0.85521 0.6132 0.47724 0.0
C291 C 0.87779 0.65756 0.44482 0.0
C292 C 0.82995 0.65564 0.41811 0.0
N293 N 0.78689 0.56791 0.48285 0.0
C294 C 0.7397 0.56603 0.45689 0.0
Co295 Co 0.36731 0.70709 0.8272 0.0
Co296 Co 0.24196 0.73278 0.86963 0.0
O297 O 0.2725 0.68858 0.8313 0.0
C298 C 0.31548 0.69802 0.74382 0.0
O299 O 0.26255 0.69998 0.75799 0.0
C300 C 0.14134 0.58412 0.8773 0.0
O301 O 0.19285 0.57319 0.87415 0.0
O302 O 0.28222 0.70506 0.91352 0.0
O303 O 0.37656 0.71161 0.88633 0.0
H304 H 0.26317 0.87043 0.99097 0.0
H305 H 0.25187 0.58312 0.78986 0.0
O306 O 0.36201 0.70233 0.76715 0.0
H307 H 0.3623 0.49559 0.87936 0.0
H308 H 0.55858 0.67559 0.77406 0.0
H309 H 0.49795 0.80657 0.86547 0.0
H310 H 0.40714 0.61976 0.87309 0.0
H311 H 0.43916 0.64998 0.77977 0.0
O312 O 0.15179 0.64499 0.87638 0.0
H313 H 0.30156 0.81641 0.94194 0.0
H314 H 0.11178 0.7344 0.88169 0.0
H315 H 0.61803 0.83356 0.86112 0.0
H316 H 0.20581 0.4587 0.79489 0.0
H317 H 0.64905 0.76781 0.81511 0.0
H318 H 0.26105 0.41404 0.83996 0.0
O319 O 0.40254 0.80762 0.8245 0.0
H320 H 0.09566 0.69047 0.74917 0.0
H321 H 0.25404 0.86493 0.84315 0.0
H322 H 0.20697 0.89963 0.78807 0.0
H323 H 0.12702 0.81212 0.74062 0.0
H324 H 0.14524 0.65814 0.80406 0.0
H325 H 0.07065 0.78661 0.93037 0.0
H326 H 0.14677 0.85573 0.98536 0.0
O327 O 0.33046 0.82277 0.86343 0.0
C328 C 0.33855 0.7047 0.91599 0.0
C329 C 0.22988 0.84134 0.96681 0.0
C330 C 0.12182 0.79418 0.93286 0.0
N331 N 0.21034 0.77475 0.90798 0.0
C332 C 0.2518 0.81134 0.93866 0.0
C333 C 0.14555 0.76496 0.90527 0.0
C334 C 0.16451 0.83289 0.96371 0.0
C335 C 0.2769 0.56438 0.80907 0.0
N336 N 0.33306 0.60905 0.83047 0.0
C337 C 0.25031 0.49371 0.81198 0.0
C338 C 0.28123 0.46869 0.83732 0.0
C339 C 0.33805 0.51441 0.8594 0.0
C340 C 0.36326 0.58474 0.85567 0.0
C341 C 0.54572 0.70455 0.79427 0.0
C342 C 0.51088 0.7774 0.84564 0.0
C343 C 0.47811 0.6904 0.7975 0.0
N344 N 0.46129 0.72635 0.82314 0.0
C345 C 0.57905 0.79308 0.84318 0.0
C346 C 0.59644 0.75625 0.81732 0.0
C347 C 0.38559 0.84617 0.84296 0.0
C348 C 0.13048 0.7291 0.76964 0.0
C349 C 0.22016 0.82657 0.82234 0.0
C350 C 0.1932 0.84651 0.79136 0.0
C351 C 0.14821 0.79737 0.76481 0.0
N352 N 0.2031 0.75955 0.8267 0.0
C353 C 0.15842 0.71102 0.80099 0.0
C354 C 0.46504 0.02445 0.18044 0.0
C355 C 0.51176 0.07293 0.20788 0.0
C356 C 0.52783 0.98245 0.23761 0.0
C357 C 0.48944 0.93798 0.20626 0.0
N358 N 0.43625 0.92312 0.14251 0.0
N359 N 0.5862 0.09801 0.264 0.0
C360 C 0.46217 0.96078 0.17618 0.0
C361 C 0.54309 0.05188 0.23679 0.0
N362 N 0.42142 0.03748 0.15935 0.0
N363 N 0.54706 0.95765 0.26892 0.0
H364 H 0.59091 0.14602 0.26764 0.0
H365 H 0.61811 0.08935 0.28231 0.0
H366 H 0.53681 0.90725 0.27059 0.0
H367 H 0.56879 0.98532 0.29464 0.0
H368 H 0.38315 1.00125 0.14115 0.0
H369 H 0.41607 0.07973 0.1646 0.0
H370 H 0.42196 0.94093 0.11798 0.0
H371 H 0.43657 0.8778 0.13728 0.0
C372 C 0.5081 0.55752 0.55475 0.0
C373 C 0.4506 0.51892 0.52956 0.0
C374 C 0.50585 0.45679 0.5047 0.0
C375 C 0.55737 0.48767 0.5338 0.0
N376 N 0.60016 0.55828 0.59197 0.0
N377 N 0.3891 0.41887 0.48744 0.0
C378 C 0.5565 0.53551 0.56045 0.0
C379 C 0.44733 0.46417 0.50696 0.0
N380 N 0.51755 0.61561 0.57294 0.0
N381 N 0.51468 0.42417 0.47324 0.0
H382 H 0.34392 0.42005 0.48866 0.0
H383 H 0.38349 0.37501 0.47373 0.0
H384 H 0.55978 0.42312 0.46864 0.0
H385 H 0.48131 0.40634 0.44924 0.0
H386 H 0.56238 0.64907 0.58796 0.0
H387 H 0.48379 0.63396 0.57029 0.0
H388 H 0.59679 0.58773 0.61457 0.0
H389 H 0.63524 0.54212 0.59766 0.0
C390 C 0.9562 0.46426 0.9103 0.0
C391 C 0.93409 0.41191 0.88117 0.0
C392 C 0.04682 0.47429 0.84926 0.0
C393 C 0.07008 0.52505 0.87908 0.0
N394 N 0.05174 0.56166 0.94249 0.0
N395 N 0.96858 0.35647 0.83245 0.0
C396 C 0.02607 0.51828 0.91092 0.0
C397 C 0.98249 0.41332 0.8537 0.0
N398 N 0.91054 0.46177 0.93776 0.0
N399 N 0.08436 0.48566 0.8155 0.0
H400 H 0.9255 0.30883 0.83726 0.0
H401 H 0.00467 0.3541 0.81431 0.0
H402 H 0.13002 0.53122 0.81002 0.0
H403 H 0.06624 0.45331 0.79108 0.0
H404 H 0.9202 0.50266 0.95608 0.0
H405 H 0.86186 0.41893 0.94157 0.0
H406 H 0.02434 0.55543 0.9684 0.0
H407 H 0.10276 0.60094 0.94426 0.0
C408 C 0.0352 0.51096 0.4658 0.0
C409 C 0.07209 0.52657 0.5018 0.0
C410 C 0.96474 0.48625 0.53875 0.0
C411 C 0.92918 0.47758 0.50272 0.0
N412 N 0.93318 0.49276 0.43202 0.0
N413 N 0.07391 0.53869 0.57262 0.0
C414 C 0.96507 0.49278 0.46623 0.0
C415 C 0.03733 0.51677 0.53833 0.0
N416 N 0.06626 0.51073 0.43124 0.0
N417 N 0.92887 0.46301 0.57331 0.0
H418 H 0.12701 0.56069 0.57361 0.0
H419 H 0.05252 0.54041 0.59956 0.0
H420 H 0.87569 0.43999 0.57483 0.0
H421 H 0.95095 0.4608 0.59985 0.0
H422 H 0.03999 0.49205 0.40475 0.0
H423 H 0.11722 0.52324 0.42982 0.0
H424 H 0.95888 0.51149 0.40529 0.0
H425 H 0.88203 0.47956 0.43101 0.0
C426 C 0.46521 0.95517 0.80466 0.0
C427 C 0.43306 0.9225 0.84096 0.0
C428 C 0.48526 0.03592 0.87199 0.0
C429 C 0.52725 0.06622 0.83853 0.0
N430 N 0.56155 0.05331 0.77321 0.0
N431 N 0.42712 0.93438 0.91179 0.0
C432 C 0.5185 0.02545 0.80481 0.0
C433 C 0.44664 0.96362 0.87532 0.0
N434 N 0.44274 0.92054 0.7698 0.0
N435 N 0.48099 0.07619 0.90043 0.0
H436 H 0.40434 0.88203 0.91634 0.0
H437 H 0.44162 0.9627 0.93786 0.0
H438 H 0.5065 0.12926 0.89774 0.0
H439 H 0.44627 0.05662 0.92387 0.0
H440 H 0.46059 0.94379 0.74237 0.0
H441 H 0.4007 0.871 0.76794 0.0
H442 H 0.56254 0.02408 0.74971 0.0
H443 H 0.59943 0.10499 0.77186 0.0
C444 C 0.49375 0.53301 0.21051 0.0
C445 C 0.48277 0.55739 0.17419 0.0
C446 C 0.50937 0.47888 0.1384 0.0
C447 C 0.52849 0.46084 0.17444 0.0
N448 N 0.54604 0.47751 0.24488 0.0
N449 N 0.49052 0.56113 0.10306 0.0
C450 C 0.52237 0.48961 0.21051 0.0
C451 C 0.49329 0.53231 0.13796 0.0
N452 N 0.4744 0.54923 0.24521 0.0
N453 N 0.50282 0.44253 0.10488 0.0
H454 H 0.47895 0.60018 0.10142 0.0
H455 H 0.5056 0.55056 0.07614 0.0
H456 H 0.51113 0.40122 0.10436 0.0
H457 H 0.48203 0.44843 0.07875 0.0
H458 H 0.47251 0.5259 0.27211 0.0
H459 H 0.4544 0.58175 0.24671 0.0
H460 H 0.55182 0.50436 0.27093 0.0
H461 H 0.56505 0.44431 0.24675 0.0
C462 C 0.60922 0.24009 0.98427 0.0
C463 C 0.65043 0.29425 0.95778 0.0
C464 C 0.65987 0.37825 0.00729 0.0
C465 C 0.62267 0.32417 0.03453 0.0
N466 N 0.57171 0.20445 0.05154 0.0
N467 N 0.72522 0.41521 0.94639 0.0
C468 C 0.59969 0.25524 0.02369 0.0
C469 C 0.67849 0.36352 0.96991 0.0
N470 N 0.57805 0.17391 0.97151 0.0
N471 N 0.67581 0.44348 0.01678 0.0
H472 H 0.74035 0.4062 0.9191 0.0
H473 H 0.7533 0.46623 0.9552 0.0
H474 H 0.66322 0.45605 0.04395 0.0
H475 H 0.69627 0.484 0.99671 0.0
H476 H 0.5404 0.13243 0.98739 0.0
H477 H 0.58661 0.16119 0.94351 0.0
H478 H 0.56164 0.15467 0.04678 0.0
H479 H 0.56376 0.21317 0.08071 0.0
C480 C 0.35433 0.71735 0.31233 0.0
C481 C 0.35181 0.66332 0.28895 0.0
C482 C 0.27089 0.57956 0.33712 0.0
C483 C 0.28211 0.63363 0.36286 0.0
N484 N 0.30197 0.74846 0.36481 0.0
N485 N 0.31578 0.54287 0.28405 0.0
C486 C 0.31489 0.70128 0.3477 0.0
C487 C 0.31175 0.59436 0.30257 0.0
N488 N 0.3951 0.78436 0.30165 0.0
N489 N 0.21701 0.51491 0.34346 0.0
H490 H 0.3475 0.55139 0.25995 0.0
H491 H 0.29389 0.49328 0.29539 0.0
H492 H 0.17909 0.50437 0.36442 0.0
H493 H 0.2034 0.47454 0.32387 0.0
H494 H 0.40669 0.82519 0.3205 0.0
H495 H 0.42174 0.80007 0.27529 0.0
H496 H 0.31881 0.79719 0.35332 0.0
H497 H 0.26557 0.73527 0.38718 0.0
C498 C 0.70252 0.27898 0.67275 0.0
C499 C 0.6836 0.31207 0.70158 0.0
C500 C 0.66757 0.37589 0.64834 0.0
C501 C 0.70064 0.35421 0.62085 0.0
N502 N 0.76704 0.29757 0.6129 0.0
N503 N 0.66947 0.40947 0.71571 0.0
C504 C 0.72254 0.30858 0.63451 0.0
C505 C 0.67167 0.36526 0.6892 0.0
N506 N 0.70146 0.21942 0.68158 0.0
N507 N 0.63052 0.40496 0.63596 0.0
H508 H 0.68104 0.40956 0.74536 0.0
H509 H 0.66597 0.45199 0.70712 0.0
H510 H 0.62019 0.40782 0.6064 0.0
H511 H 0.6023 0.41715 0.65535 0.0
H512 H 0.71038 0.19132 0.66038 0.0
H513 H 0.68381 0.19425 0.7086 0.0
H514 H 0.7877 0.26829 0.62325 0.0
H515 H 0.79122 0.32592 0.58781 0.0
C516 C 0.41257 0.75281 0.97619 0.0
C517 C 0.36105 0.69527 0.95565 0.0
C518 C 0.34707 0.62223 0.01295 0.0
C519 C 0.39047 0.68175 0.03525 0.0
N520 N 0.45498 0.80538 0.0398 0.0
N521 N 0.28054 0.57397 0.95337 0.0
C522 C 0.42113 0.74754 0.0173 0.0
C523 C 0.32854 0.62954 0.9738 0.0
N524 N 0.45453 0.81213 0.95633 0.0
N525 N 0.32605 0.55878 0.02863 0.0
H526 H 0.27237 0.57619 0.92334 0.0
H527 H 0.24798 0.52649 0.96624 0.0
H528 H 0.34003 0.55162 0.05681 0.0
H529 H 0.29977 0.51337 0.01272 0.0
H530 H 0.49707 0.85371 0.96915 0.0
H531 H 0.45151 0.81675 0.92594 0.0
H532 H 0.47195 0.85448 0.02878 0.0
H533 H 0.45985 0.80419 0.07032 0.0
C534 C 0.71971 0.33924 0.34258 0.0
C535 C 0.70945 0.3853 0.36619 0.0
C536 C 0.67503 0.42333 0.30749 0.0
C537 C 0.67187 0.36857 0.28553 0.0
N538 N 0.69543 0.27594 0.2811 0.0
N539 N 0.66088 0.45898 0.37203 0.0
C540 C 0.6953 0.3267 0.30287 0.0
C541 C 0.68282 0.42425 0.34891 0.0
N542 N 0.75509 0.30981 0.35753 0.0
N543 N 0.67322 0.47596 0.28896 0.0
H544 H 0.65992 0.45614 0.40275 0.0
H545 H 0.63574 0.48332 0.36061 0.0
H546 H 0.67436 0.48034 0.25839 0.0
H547 H 0.68031 0.51949 0.30381 0.0
H548 H 0.76993 0.28086 0.34075 0.0
H549 H 0.77512 0.31925 0.38605 0.0
H550 H 0.70469 0.23881 0.29296 0.0
H551 H 0.68395 0.26977 0.25108 0.0
C552 C 0.33688 0.63956 0.68552 0.0
C553 C 0.31759 0.68635 0.70046 0.0
C554 C 0.27393 0.69043 0.63486 0.0
C555 C 0.30019 0.64992 0.61894 0.0
N556 N 0.37792 0.60668 0.62878 0.0
N557 N 0.28868 0.77324 0.68469 0.0
C558 C 0.3385 0.63116 0.64412 0.0
C559 C 0.29306 0.71743 0.67359 0.0
N560 N 0.34918 0.59921 0.71022 0.0
N561 N 0.2268 0.69927 0.61463 0.0
H562 H 0.30594 0.79706 0.71202 0.0
H563 H 0.27583 0.80049 0.66497 0.0
H564 H 0.20519 0.6738 0.58844 0.0
H565 H 0.20242 0.72395 0.62663 0.0
H566 H 0.35686 0.56 0.70003 0.0
H567 H 0.34343 0.59868 0.74058 0.0
H568 H 0.41131 0.5982 0.64593 0.0
H569 H 0.38358 0.60295 0.59858 0.0
loop_
_geom_bond_atom_site_label_1
_geom_bond_atom_site_label_2
_geom_bond_distance
_geom_bond_site_symmetry_2
_ccdc_geom_bond_type
Co0 O2 2.143 . S
Co0 O8 2.074 . S
Co0 O11 2.093 . S
Co0 O24 2.097 . S
Co0 N41 2.151 . S
Co0 N49 2.214 . S
Co1 O2 2.160 . S
Co1 O7 2.058 . S
Co1 O17 2.057 . S
Co1 O32 2.037 . S
Co1 N36 2.145 . S
Co1 N57 2.257 . S
O2 Co0 2.143 . S
O2 Co1 2.160 . S
C3 O4 1.278 . S
C3 O11 1.224 . S
O4 C3 1.278 . S
C5 O6 1.245 . S
C5 O17 1.232 . S
O6 C5 1.245 . S
O7 Co1 2.058 . S
O7 C33 1.269 . S
O8 Co0 2.074 . S
O8 C33 1.257 . S
H9 C34 0.930 . S
H10 C40 0.930 . S
O11 Co0 2.093 . S
O11 C3 1.224 . S
H12 C44 0.929 . S
H13 C46 0.930 . S
H14 C47 0.930 . S
H15 C45 0.929 . S
H16 C48 0.928 . S
O17 Co1 2.057 . S
O17 C5 1.232 . S
H18 C37 0.929 . S
H19 C38 0.929 . S
H20 C50 0.931 . S
H21 C42 0.929 . S
H22 C51 0.930 . S
H23 C43 0.931 . S
O24 Co0 2.097 . S
O24 C52 1.214 . S
H25 C53 0.929 . S
H26 C54 0.929 . S
H27 C55 0.930 . S
H28 C56 0.929 . S
H29 C58 0.930 . S
H30 C35 0.930 . S
H31 C39 0.930 . S
O32 Co1 2.037 . S
O32 C52 1.234 . S
C33 O7 1.269 . S
C33 O8 1.257 . S
C34 H9 0.930 . S
C34 C37 1.388 . S
C34 C39 1.418 . S
C35 H30 0.930 . S
C35 C38 1.404 . S
C35 C39 1.353 . S
N36 Co1 2.145 . S
N36 C37 1.397 . S
N36 C38 1.334 . S
C37 H18 0.929 . S
C37 C34 1.388 . S
C37 N36 1.397 . S
C38 H19 0.929 . S
C38 C35 1.404 . S
C38 N36 1.334 . S
C39 H31 0.930 . S
C39 C34 1.418 . S
C39 C35 1.353 . S
C40 H10 0.930 . S
C40 N41 1.330 . S
C40 C42 1.446 . S
N41 Co0 2.151 . S
N41 C40 1.330 . S
N41 C45 1.418 . S
C42 H21 0.929 . S
C42 C40 1.446 . S
C42 C43 1.332 . S
C43 H23 0.931 . S
C43 C42 1.332 . S
C43 C44 1.267 . S
C44 H12 0.929 . S
C44 C43 1.267 . S
C44 C45 1.251 . S
C45 H15 0.929 . S
C45 N41 1.418 . S
C45 C44 1.251 . S
C46 H13 0.930 . S
C46 C48 1.406 . S
C46 C51 1.261 . S
C47 H14 0.930 . S
C47 N49 1.325 . S
C47 C50 1.357 . S
C48 H16 0.928 . S
C48 C46 1.406 . S
C48 N49 1.261 . S
N49 Co0 2.214 . S
N49 C47 1.325 . S
N49 C48 1.261 . S
C50 H20 0.931 . S
C50 C47 1.357 . S
C50 C51 1.312 . S
C51 H22 0.930 . S
C51 C46 1.261 . S
C51 C50 1.312 . S
C52 O24 1.214 . S
C52 O32 1.234 . S
C53 H25 0.929 . S
C53 C56 1.391 . S
C53 C58 1.391 . S
C54 H26 0.929 . S
C54 C55 1.390 . S
C54 N57 1.391 . S
C55 H27 0.930 . S
C55 C54 1.390 . S
C55 C56 1.392 . S
C56 H28 0.929 . S
C56 C53 1.391 . S
C56 C55 1.392 . S
N57 Co1 2.257 . S
N57 C54 1.391 . S
N57 C58 1.388 . S
C58 H29 0.930 . S
C58 C53 1.391 . S
C58 N57 1.388 . S
Co59 O61 2.143 . S
Co59 O67 2.074 . S
Co59 O70 2.093 . S
Co59 O83 2.097 . S
Co59 N100 2.151 . S
Co59 N108 2.214 . S
Co60 O61 2.160 . S
Co60 O66 2.058 . S
Co60 O76 2.057 . S
Co60 O91 2.037 . S
Co60 N95 2.145 . S
Co60 N116 2.257 . S
O61 Co59 2.143 . S
O61 Co60 2.160 . S
C62 O63 1.278 . S
C62 O70 1.224 . S
O63 C62 1.278 . S
C64 O65 1.245 . S
C64 O76 1.232 . S
O65 C64 1.245 . S
O66 Co60 2.058 . S
O66 C92 1.269 . S
O67 Co59 2.074 . S
O67 C92 1.257 . S
H68 C93 0.930 . S
H69 C99 0.930 . S
O70 Co59 2.093 . S
O70 C62 1.224 . S
H71 C103 0.929 . S
H72 C105 0.930 . S
H73 C106 0.930 . S
H74 C104 0.929 . S
H75 C107 0.928 . S
O76 Co60 2.057 . S
O76 C64 1.232 . S
H77 C96 0.929 . S
H78 C97 0.929 . S
H79 C109 0.931 . S
H80 C101 0.929 . S
H81 C110 0.930 . S
H82 C102 0.931 . S
O83 Co59 2.097 . S
O83 C111 1.214 . S
H84 C112 0.929 . S
H85 C113 0.929 . S
H86 C114 0.930 . S
H87 C115 0.929 . S
H88 C117 0.930 . S
H89 C94 0.930 . S
H90 C98 0.930 . S
O91 Co60 2.037 . S
O91 C111 1.234 . S
C92 O66 1.269 . S
C92 O67 1.257 . S
C93 H68 0.930 . S
C93 C96 1.388 . S
C93 C98 1.418 . S
C94 H89 0.930 . S
C94 C97 1.404 . S
C94 C98 1.353 . S
N95 Co60 2.145 . S
N95 C96 1.397 . S
N95 C97 1.334 . S
C96 H77 0.929 . S
C96 C93 1.388 . S
C96 N95 1.397 . S
C97 H78 0.929 . S
C97 C94 1.404 . S
C97 N95 1.334 . S
C98 H90 0.930 . S
C98 C93 1.418 . S
C98 C94 1.353 . S
C99 H69 0.930 . S
C99 N100 1.330 . S
C99 C101 1.446 . S
N100 Co59 2.151 . S
N100 C99 1.330 . S
N100 C104 1.418 . S
C101 H80 0.929 . S
C101 C99 1.446 . S
C101 C102 1.332 . S
C102 H82 0.931 . S
C102 C101 1.332 . S
C102 C103 1.267 . S
C103 H71 0.929 . S
C103 C102 1.267 . S
C103 C104 1.251 . S
C104 H74 0.929 . S
C104 N100 1.418 . S
C104 C103 1.251 . S
C105 H72 0.930 . S
C105 C107 1.406 . S
C105 C110 1.261 . S
C106 H73 0.930 . S
C106 N108 1.325 . S
C106 C109 1.357 . S
C107 H75 0.928 . S
C107 C105 1.406 . S
C107 N108 1.261 . S
N108 Co59 2.214 . S
N108 C106 1.325 . S
N108 C107 1.261 . S
C109 H79 0.931 . S
C109 C106 1.357 . S
C109 C110 1.312 . S
C110 H81 0.930 . S
C110 C105 1.261 . S
C110 C109 1.312 . S
C111 O83 1.214 . S
C111 O91 1.234 . S
C112 H84 0.929 . S
C112 C115 1.391 . S
C112 C117 1.391 . S
C113 H85 0.929 . S
C113 C114 1.390 . S
C113 N116 1.391 . S
C114 H86 0.930 . S
C114 C113 1.390 . S
C114 C115 1.392 . S
C115 H87 0.929 . S
C115 C112 1.391 . S
C115 C114 1.392 . S
N116 Co60 2.257 . S
N116 C113 1.391 . S
N116 C117 1.388 . S
C117 H88 0.930 . S
C117 C112 1.391 . S
C117 N116 1.388 . S
Co118 O120 2.143 . S
Co118 O126 2.074 . S
Co118 O129 2.093 . S
Co118 O142 2.097 . S
Co118 N159 2.151 . S
Co118 N167 2.214 . S
Co119 O120 2.160 . S
Co119 O125 2.058 . S
Co119 O135 2.057 . S
Co119 O150 2.037 . S
Co119 N154 2.145 . S
Co119 N175 2.257 . S
O120 Co118 2.143 . S
O120 Co119 2.160 . S
C121 O122 1.278 . S
C121 O129 1.224 . S
O122 C121 1.278 . S
C123 O124 1.245 . S
C123 O135 1.232 . S
O124 C123 1.245 . S
O125 Co119 2.058 . S
O125 C151 1.269 . S
O126 Co118 2.074 . S
O126 C151 1.257 . S
H127 C152 0.930 . S
H128 C158 0.930 . S
O129 Co118 2.093 . S
O129 C121 1.224 . S
H130 C162 0.929 . S
H131 C164 0.930 . S
H132 C165 0.930 . S
H133 C163 0.929 . S
H134 C166 0.928 . S
O135 Co119 2.057 . S
O135 C123 1.232 . S
H136 C155 0.929 . S
H137 C156 0.929 . S
H138 C168 0.931 . S
H139 C160 0.929 . S
H140 C169 0.930 . S
H141 C161 0.931 . S
O142 Co118 2.097 . S
O142 C170 1.214 . S
H143 C171 0.929 . S
H144 C172 0.929 . S
H145 C173 0.930 . S
H146 C174 0.929 . S
H147 C176 0.930 . S
H148 C153 0.930 . S
H149 C157 0.930 . S
O150 Co119 2.037 . S
O150 C170 1.234 . S
C151 O125 1.269 . S
C151 O126 1.257 . S
C152 H127 0.930 . S
C152 C155 1.388 . S
C152 C157 1.418 . S
C153 H148 0.930 . S
C153 C156 1.404 . S
C153 C157 1.353 . S
N154 Co119 2.145 . S
N154 C155 1.397 . S
N154 C156 1.334 . S
C155 H136 0.929 . S
C155 C152 1.388 . S
C155 N154 1.397 . S
C156 H137 0.929 . S
C156 C153 1.404 . S
C156 N154 1.334 . S
C157 H149 0.930 . S
C157 C152 1.418 . S
C157 C153 1.353 . S
C158 H128 0.930 . S
C158 N159 1.330 . S
C158 C160 1.446 . S
N159 Co118 2.151 . S
N159 C158 1.330 . S
N159 C163 1.418 . S
C160 H139 0.929 . S
C160 C158 1.446 . S
C160 C161 1.332 . S
C161 H141 0.931 . S
C161 C160 1.332 . S
C161 C162 1.267 . S
C162 H130 0.929 . S
C162 C161 1.267 . S
C162 C163 1.251 . S
C163 H133 0.929 . S
C163 N159 1.418 . S
C163 C162 1.251 . S
C164 H131 0.930 . S
C164 C166 1.406 . S
C164 C169 1.261 . S
C165 H132 0.930 . S
C165 N167 1.325 . S
C165 C168 1.357 . S
C166 H134 0.928 . S
C166 C164 1.406 . S
C166 N167 1.261 . S
N167 Co118 2.214 . S
N167 C165 1.325 . S
N167 C166 1.261 . S
C168 H138 0.931 . S
C168 C165 1.357 . S
C168 C169 1.312 . S
C169 H140 0.930 . S
C169 C164 1.261 . S
C169 C168 1.312 . S
C170 O142 1.214 . S
C170 O150 1.234 . S
C171 H143 0.929 . S
C171 C174 1.391 . S
C171 C176 1.391 . S
C172 H144 0.929 . S
C172 C173 1.390 . S
C172 N175 1.391 . S
C173 H145 0.930 . S
C173 C172 1.390 . S
C173 C174 1.392 . S
C174 H146 0.929 . S
C174 C171 1.391 . S
C174 C173 1.392 . S
N175 Co119 2.257 . S
N175 C172 1.391 . S
N175 C176 1.388 . S
C176 H147 0.930 . S
C176 C171 1.391 . S
C176 N175 1.388 . S
Co177 O179 2.143 . S
Co177 O185 2.074 . S
Co177 O188 2.093 . S
Co177 O201 2.097 . S
Co177 N218 2.151 . S
Co177 N226 2.214 . S
Co178 O179 2.160 . S
Co178 O184 2.058 . S
Co178 O194 2.057 . S
Co178 O209 2.037 . S
Co178 N213 2.145 . S
Co178 N234 2.257 . S
O179 Co177 2.143 . S
O179 Co178 2.160 . S
C180 O181 1.278 . S
C180 O188 1.224 . S
O181 C180 1.278 . S
C182 O183 1.245 . S
C182 O194 1.232 . S
O183 C182 1.245 . S
O184 Co178 2.058 . S
O184 C210 1.269 . S
O185 Co177 2.074 . S
O185 C210 1.257 . S
H186 C211 0.930 . S
H187 C217 0.930 . S
O188 Co177 2.093 . S
O188 C180 1.224 . S
H189 C221 0.929 . S
H190 C223 0.930 . S
H191 C224 0.930 . S
H192 C222 0.929 . S
H193 C225 0.928 . S
O194 Co178 2.057 . S
O194 C182 1.232 . S
H195 C214 0.929 . S
H196 C215 0.929 . S
H197 C227 0.931 . S
H198 C219 0.929 . S
H199 C228 0.930 . S
H200 C220 0.931 . S
O201 Co177 2.097 . S
O201 C229 1.214 . S
H202 C230 0.929 . S
H203 C231 0.929 . S
H204 C232 0.930 . S
H205 C233 0.929 . S
H206 C235 0.930 . S
H207 C212 0.930 . S
H208 C216 0.930 . S
O209 Co178 2.037 . S
O209 C229 1.234 . S
C210 O184 1.269 . S
C210 O185 1.257 . S
C211 H186 0.930 . S
C211 C214 1.388 . S
C211 C216 1.418 . S
C212 H207 0.930 . S
C212 C215 1.404 . S
C212 C216 1.353 . S
N213 Co178 2.145 . S
N213 C214 1.397 . S
N213 C215 1.334 . S
C214 H195 0.929 . S
C214 C211 1.388 . S
C214 N213 1.397 . S
C215 H196 0.929 . S
C215 C212 1.404 . S
C215 N213 1.334 . S
C216 H208 0.930 . S
C216 C211 1.418 . S
C216 C212 1.353 . S
C217 H187 0.930 . S
C217 N218 1.330 . S
C217 C219 1.446 . S
N218 Co177 2.151 . S
N218 C217 1.330 . S
N218 C222 1.418 . S
C219 H198 0.929 . S
C219 C217 1.446 . S
C219 C220 1.332 . S
C220 H200 0.931 . S
C220 C219 1.332 . S
C220 C221 1.267 . S
C221 H189 0.929 . S
C221 C220 1.267 . S
C221 C222 1.251 . S
C222 H192 0.929 . S
C222 N218 1.418 . S
C222 C221 1.251 . S
C223 H190 0.930 . S
C223 C225 1.406 . S
C223 C228 1.261 . S
C224 H191 0.930 . S
C224 N226 1.325 . S
C224 C227 1.357 . S
C225 H193 0.928 . S
C225 C223 1.406 . S
C225 N226 1.261 . S
N226 Co177 2.214 . S
N226 C224 1.325 . S
N226 C225 1.261 . S
C227 H197 0.931 . S
C227 C224 1.357 . S
C227 C228 1.312 . S
C228 H199 0.930 . S
C228 C223 1.261 . S
C228 C227 1.312 . S
C229 O201 1.214 . S
C229 O209 1.234 . S
C230 H202 0.929 . S
C230 C233 1.391 . S
C230 C235 1.391 . S
C231 H203 0.929 . S
C231 C232 1.390 . S
C231 N234 1.391 . S
C232 H204 0.930 . S
C232 C231 1.390 . S
C232 C233 1.392 . S
C233 H205 0.929 . S
C233 C230 1.391 . S
C233 C232 1.392 . S
N234 Co178 2.257 . S
N234 C231 1.391 . S
N234 C235 1.388 . S
C235 H206 0.930 . S
C235 C230 1.391 . S
C235 N234 1.388 . S
Co236 O238 2.143 . S
Co236 O244 2.074 . S
Co236 O247 2.093 . S
Co236 O260 2.097 . S
Co236 N277 2.151 . S
Co236 N285 2.214 . S
Co237 O238 2.160 . S
Co237 O243 2.058 . S
Co237 O253 2.057 . S
Co237 O268 2.037 . S
Co237 N272 2.145 . S
Co237 N293 2.257 . S
O238 Co236 2.143 . S
O238 Co237 2.160 . S
C239 O240 1.278 . S
C239 O247 1.224 . S
O240 C239 1.278 . S
C241 O242 1.245 . S
C241 O253 1.232 . S
O242 C241 1.245 . S
O243 Co237 2.058 . S
O243 C269 1.269 . S
O244 Co236 2.074 . S
O244 C269 1.257 . S
H245 C270 0.930 . S
H246 C276 0.930 . S
O247 Co236 2.093 . S
O247 C239 1.224 . S
H248 C280 0.929 . S
H249 C282 0.930 . S
H250 C283 0.930 . S
H251 C281 0.929 . S
H252 C284 0.928 . S
O253 Co237 2.057 . S
O253 C241 1.232 . S
H254 C273 0.929 . S
H255 C274 0.929 . S
H256 C286 0.931 . S
H257 C278 0.929 . S
H258 C287 0.930 . S
H259 C279 0.931 . S
O260 Co236 2.097 . S
O260 C288 1.214 . S
H261 C289 0.929 . S
H262 C290 0.929 . S
H263 C291 0.930 . S
H264 C292 0.929 . S
H265 C294 0.930 . S
H266 C271 0.930 . S
H267 C275 0.930 . S
O268 Co237 2.037 . S
O268 C288 1.234 . S
C269 O243 1.269 . S
C269 O244 1.257 . S
C270 H245 0.930 . S
C270 C273 1.388 . S
C270 C275 1.418 . S
C271 H266 0.930 . S
C271 C274 1.404 . S
C271 C275 1.353 . S
N272 Co237 2.145 . S
N272 C273 1.397 . S
N272 C274 1.334 . S
C273 H254 0.929 . S
C273 C270 1.388 . S
C273 N272 1.397 . S
C274 H255 0.929 . S
C274 C271 1.404 . S
C274 N272 1.334 . S
C275 H267 0.930 . S
C275 C270 1.418 . S
C275 C271 1.353 . S
C276 H246 0.930 . S
C276 N277 1.330 . S
C276 C278 1.446 . S
N277 Co236 2.151 . S
N277 C276 1.330 . S
N277 C281 1.418 . S
C278 H257 0.929 . S
C278 C276 1.446 . S
C278 C279 1.332 . S
C279 H259 0.931 . S
C279 C278 1.332 . S
C279 C280 1.267 . S
C280 H248 0.929 . S
C280 C279 1.267 . S
C280 C281 1.251 . S
C281 H251 0.929 . S
C281 N277 1.418 . S
C281 C280 1.251 . S
C282 H249 0.930 . S
C282 C284 1.406 . S
C282 C287 1.261 . S
C283 H250 0.930 . S
C283 N285 1.325 . S
C283 C286 1.357 . S
C284 H252 0.928 . S
C284 C282 1.406 . S
C284 N285 1.261 . S
N285 Co236 2.214 . S
N285 C283 1.325 . S
N285 C284 1.261 . S
C286 H256 0.931 . S
C286 C283 1.357 . S
C286 C287 1.312 . S
C287 H258 0.930 . S
C287 C282 1.261 . S
C287 C286 1.312 . S
C288 O260 1.214 . S
C288 O268 1.234 . S
C289 H261 0.929 . S
C289 C292 1.391 . S
C289 C294 1.391 . S
C290 H262 0.929 . S
C290 C291 1.390 . S
C290 N293 1.391 . S
C291 H263 0.930 . S
C291 C290 1.390 . S
C291 C292 1.392 . S
C292 H264 0.929 . S
C292 C289 1.391 . S
C292 C291 1.392 . S
N293 Co237 2.257 . S
N293 C290 1.391 . S
N293 C294 1.388 . S
C294 H265 0.930 . S
C294 C289 1.391 . S
C294 N293 1.388 . S
Co295 O297 2.143 . S
Co295 O303 2.074 . S
Co295 O306 2.093 . S
Co295 O319 2.097 . S
Co295 N336 2.151 . S
Co295 N344 2.214 . S
Co296 O297 2.160 . S
Co296 O302 2.058 . S
Co296 O312 2.057 . S
Co296 O327 2.037 . S
Co296 N331 2.145 . S
Co296 N352 2.257 . S
O297 Co295 2.143 . S
O297 Co296 2.160 . S
C298 O299 1.278 . S
C298 O306 1.224 . S
O299 C298 1.278 . S
C300 O301 1.245 . S
C300 O312 1.232 . S
O301 C300 1.245 . S
O302 Co296 2.058 . S
O302 C328 1.269 . S
O303 Co295 2.074 . S
O303 C328 1.257 . S
H304 C329 0.930 . S
H305 C335 0.930 . S
O306 Co295 2.093 . S
O306 C298 1.224 . S
H307 C339 0.929 . S
H308 C341 0.930 . S
H309 C342 0.930 . S
H310 C340 0.929 . S
H311 C343 0.928 . S
O312 Co296 2.057 . S
O312 C300 1.232 . S
H313 C332 0.929 . S
H314 C333 0.929 . S
H315 C345 0.931 . S
H316 C337 0.929 . S
H317 C346 0.930 . S
H318 C338 0.931 . S
O319 Co295 2.097 . S
O319 C347 1.214 . S
H320 C348 0.929 . S
H321 C349 0.929 . S
H322 C350 0.930 . S
H323 C351 0.929 . S
H324 C353 0.930 . S
H325 C330 0.930 . S
H326 C334 0.930 . S
O327 Co296 2.037 . S
O327 C347 1.234 . S
C328 O302 1.269 . S
C328 O303 1.257 . S
C329 H304 0.930 . S
C329 C332 1.388 . S
C329 C334 1.418 . S
C330 H325 0.930 . S
C330 C333 1.404 . S
C330 C334 1.353 . S
N331 Co296 2.145 . S
N331 C332 1.397 . S
N331 C333 1.334 . S
C332 H313 0.929 . S
C332 C329 1.388 . S
C332 N331 1.397 . S
C333 H314 0.929 . S
C333 C330 1.404 . S
C333 N331 1.334 . S
C334 H326 0.930 . S
C334 C329 1.418 . S
C334 C330 1.353 . S
C335 H305 0.930 . S
C335 N336 1.330 . S
C335 C337 1.446 . S
N336 Co295 2.151 . S
N336 C335 1.330 . S
N336 C340 1.418 . S
C337 H316 0.929 . S
C337 C335 1.446 . S
C337 C338 1.332 . S
C338 H318 0.931 . S
C338 C337 1.332 . S
C338 C339 1.267 . S
C339 H307 0.929 . S
C339 C338 1.267 . S
C339 C340 1.251 . S
C340 H310 0.929 . S
C340 N336 1.418 . S
C340 C339 1.251 . S
C341 H308 0.930 . S
C341 C343 1.406 . S
C341 C346 1.261 . S
C342 H309 0.930 . S
C342 N344 1.325 . S
C342 C345 1.357 . S
C343 H311 0.928 . S
C343 C341 1.406 . S
C343 N344 1.261 . S
N344 Co295 2.214 . S
N344 C342 1.325 . S
N344 C343 1.261 . S
C345 H315 0.931 . S
C345 C342 1.357 . S
C345 C346 1.312 . S
C346 H317 0.930 . S
C346 C341 1.261 . S
C346 C345 1.312 . S
C347 O319 1.214 . S
C347 O327 1.234 . S
C348 H320 0.929 . S
C348 C351 1.391 . S
C348 C353 1.391 . S
C349 H321 0.929 . S
C349 C350 1.390 . S
C349 N352 1.391 . S
C350 H322 0.930 . S
C350 C349 1.390 . S
C350 C351 1.392 . S
C351 H323 0.929 . S
C351 C348 1.391 . S
C351 C350 1.392 . S
N352 Co296 2.257 . S
N352 C349 1.391 . S
N352 C353 1.388 . S
C353 H324 0.930 . S
C353 C348 1.391 . S
C353 N352 1.388 . S
C354 C355 1.363 . S
C354 C360 1.379 1_545 S
C354 N362 1.356 . S
C355 C354 1.363 . S
C355 C361 1.363 . S
C356 C357 1.363 . S
C356 C361 1.379 1_565 S
C356 N363 1.356 . S
C357 C356 1.363 . S
C357 C360 1.363 . S
N358 C360 1.356 . S
N358 H370 0.984 . S
N358 H371 0.985 . S
N359 C361 1.356 . S
N359 H364 0.984 . S
N359 H365 0.985 . S
C360 C354 1.379 1_565 S
C360 C357 1.363 . S
C360 N358 1.356 . S
C361 C355 1.363 . S
C361 C356 1.379 1_545 S
C361 N359 1.356 . S
N362 C354 1.356 . S
N362 H368 0.984 . S
N362 H369 0.984 . S
N363 C356 1.356 . S
N363 H366 0.984 . S
N363 H367 0.985 . S
H364 N359 0.984 . S
H365 N359 0.985 . S
H366 N363 0.984 . S
H367 N363 0.985 . S
H368 N362 0.984 . S
H369 N362 0.984 . S
H370 N358 0.984 . S
H371 N358 0.985 . S
C372 C373 1.363 . S
C372 C378 1.379 . S
C372 N380 1.356 . S
C373 C372 1.363 . S
C373 C379 1.363 . S
C374 C375 1.363 . S
C374 C379 1.379 . S
C374 N381 1.356 . S
C375 C374 1.363 . S
C375 C378 1.363 . S
N376 C378 1.356 . S
N376 H388 0.984 . S
N376 H389 0.985 . S
N377 C379 1.356 . S
N377 H382 0.984 . S
N377 H383 0.985 . S
C378 C372 1.379 . S
C378 C375 1.363 . S
C378 N376 1.356 . S
C379 C373 1.363 . S
C379 C374 1.379 . S
C379 N377 1.356 . S
N380 C372 1.356 . S
N380 H386 0.984 . S
N380 H387 0.984 . S
N381 C374 1.356 . S
N381 H384 0.984 . S
N381 H385 0.985 . S
H382 N377 0.984 . S
H383 N377 0.985 . S
H384 N381 0.984 . S
H385 N381 0.985 . S
H386 N380 0.984 . S
H387 N380 0.984 . S
H388 N376 0.984 . S
H389 N376 0.985 . S
C390 C391 1.363 . S
C390 C396 1.379 1_655 S
C390 N398 1.356 . S
C391 C390 1.363 . S
C391 C397 1.363 . S
C392 C393 1.363 . S
C392 C397 1.379 1_455 S
C392 N399 1.356 . S
C393 C392 1.363 . S
C393 C396 1.363 . S
N394 C396 1.356 . S
N394 H406 0.984 . S
N394 H407 0.985 . S
N395 C397 1.356 . S
N395 H400 0.984 . S
N395 H401 0.985 . S
C396 C390 1.379 1_455 S
C396 C393 1.363 . S
C396 N394 1.356 . S
C397 C391 1.363 . S
C397 C392 1.379 1_655 S
C397 N395 1.356 . S
N398 C390 1.356 . S
N398 H404 0.984 . S
N398 H405 0.984 . S
N399 C392 1.356 . S
N399 H402 0.984 . S
N399 H403 0.985 . S
H400 N395 0.984 . S
H401 N395 0.985 . S
H402 N399 0.984 . S
H403 N399 0.985 . S
H404 N398 0.984 . S
H405 N398 0.984 . S
H406 N394 0.984 . S
H407 N394 0.985 . S
C408 C409 1.363 . S
C408 C414 1.379 1_455 S
C408 N416 1.356 . S
C409 C408 1.363 . S
C409 C415 1.363 . S
C410 C411 1.363 . S
C410 C415 1.379 1_655 S
C410 N417 1.356 . S
C411 C410 1.363 . S
C411 C414 1.363 . S
N412 C414 1.356 . S
N412 H424 0.984 . S
N412 H425 0.985 . S
N413 C415 1.356 . S
N413 H418 0.984 . S
N413 H419 0.985 . S
C414 C408 1.379 1_655 S
C414 C411 1.363 . S
C414 N412 1.356 . S
C415 C409 1.363 . S
C415 C410 1.379 1_455 S
C415 N413 1.356 . S
N416 C408 1.356 . S
N416 H422 0.984 . S
N416 H423 0.984 . S
N417 C410 1.356 . S
N417 H420 0.984 . S
N417 H421 0.985 . S
H418 N413 0.984 . S
H419 N413 0.985 . S
H420 N417 0.984 . S
H421 N417 0.985 . S
H422 N416 0.984 . S
H423 N416 0.984 . S
H424 N412 0.984 . S
H425 N412 0.985 . S
C426 C427 1.363 . S
C426 C432 1.379 1_565 S
C426 N434 1.356 . S
C427 C426 1.363 . S
C427 C433 1.363 . S
C428 C429 1.363 . S
C428 C433 1.379 1_545 S
C428 N435 1.356 . S
C429 C428 1.363 . S
C429 C432 1.363 . S
N430 C432 1.356 . S
N430 H442 0.984 . S
N430 H443 0.985 . S
N431 C433 1.356 . S
N431 H436 0.984 . S
N431 H437 0.985 . S
C432 C426 1.379 1_545 S
C432 C429 1.363 . S
C432 N430 1.356 . S
C433 C427 1.363 . S
C433 C428 1.379 1_565 S
C433 N431 1.356 . S
N434 C426 1.356 . S
N434 H440 0.984 . S
N434 H441 0.984 . S
N435 C428 1.356 . S
N435 H438 0.984 . S
N435 H439 0.985 . S
H436 N431 0.984 . S
H437 N431 0.985 . S
H438 N435 0.984 . S
H439 N435 0.985 . S
H440 N434 0.984 . S
H441 N434 0.984 . S
H442 N430 0.984 . S
H443 N430 0.985 . S
C444 C445 1.363 . S
C444 C450 1.379 . S
C444 N452 1.356 . S
C445 C444 1.363 . S
C445 C451 1.363 . S
C446 C447 1.363 . S
C446 C451 1.379 . S
C446 N453 1.356 . S
C447 C446 1.363 . S
C447 C450 1.363 . S
N448 C450 1.356 . S
N448 H460 0.984 . S
N448 H461 0.985 . S
N449 C451 1.356 . S
N449 H454 0.984 . S
N449 H455 0.985 . S
C450 C444 1.379 . S
C450 C447 1.363 . S
C450 N448 1.356 . S
C451 C445 1.363 . S
C451 C446 1.379 . S
C451 N449 1.356 . S
N452 C444 1.356 . S
N452 H458 0.984 . S
N452 H459 0.984 . S
N453 C446 1.356 . S
N453 H456 0.984 . S
N453 H457 0.985 . S
H454 N449 0.984 . S
H455 N449 0.985 . S
H456 N453 0.984 . S
H457 N453 0.985 . S
H458 N452 0.984 . S
H459 N452 0.984 . S
H460 N448 0.984 . S
H461 N448 0.985 . S
C462 C463 1.363 . S
C462 C468 1.379 1_556 S
C462 N470 1.356 . S
C463 C462 1.363 . S
C463 C469 1.363 . S
C464 C465 1.363 . S
C464 C469 1.379 1_554 S
C464 N471 1.356 . S
C465 C464 1.363 . S
C465 C468 1.363 . S
N466 C468 1.356 . S
N466 H478 0.984 . S
N466 H479 0.985 . S
N467 C469 1.356 . S
N467 H472 0.984 . S
N467 H473 0.985 . S
C468 C462 1.379 1_554 S
C468 C465 1.363 . S
C468 N466 1.356 . S
C469 C463 1.363 . S
C469 C464 1.379 1_556 S
C469 N467 1.356 . S
N470 C462 1.356 . S
N470 H476 0.984 . S
N470 H477 0.984 . S
N471 C464 1.356 . S
N471 H474 0.984 . S
N471 H475 0.985 . S
H472 N467 0.984 . S
H473 N467 0.985 . S
H474 N471 0.984 . S
H475 N471 0.985 . S
H476 N470 0.984 . S
H477 N470 0.984 . S
H478 N466 0.984 . S
H479 N466 0.985 . S
C480 C481 1.363 . S
C480 C486 1.379 . S
C480 N488 1.356 . S
C481 C480 1.363 . S
C481 C487 1.363 . S
C482 C483 1.363 . S
C482 C487 1.379 . S
C482 N489 1.356 . S
C483 C482 1.363 . S
C483 C486 1.363 . S
N484 C486 1.356 . S
N484 H496 0.984 . S
N484 H497 0.985 . S
N485 C487 1.356 . S
N485 H490 0.984 . S
N485 H491 0.985 . S
C486 C480 1.379 . S
C486 C483 1.363 . S
C486 N484 1.356 . S
C487 C481 1.363 . S
C487 C482 1.379 . S
C487 N485 1.356 . S
N488 C480 1.356 . S
N488 H494 0.984 . S
N488 H495 0.984 . S
N489 C482 1.356 . S
N489 H492 0.984 . S
N489 H493 0.985 . S
H490 N485 0.984 . S
H491 N485 0.985 . S
H492 N489 0.984 . S
H493 N489 0.985 . S
H494 N488 0.984 . S
H495 N488 0.984 . S
H496 N484 0.984 . S
H497 N484 0.985 . S
C498 C499 1.363 . S
C498 C504 1.379 . S
C498 N506 1.356 . S
C499 C498 1.363 . S
C499 C505 1.363 . S
C500 C501 1.363 . S
C500 C505 1.379 . S
C500 N507 1.356 . S
C501 C500 1.363 . S
C501 C504 1.363 . S
N502 C504 1.356 . S
N502 H514 0.984 . S
N502 H515 0.985 . S
N503 C505 1.356 . S
N503 H508 0.984 . S
N503 H509 0.985 . S
C504 C498 1.379 . S
C504 C501 1.363 . S
C504 N502 1.356 . S
C505 C499 1.363 . S
C505 C500 1.379 . S
C505 N503 1.356 . S
N506 C498 1.356 . S
N506 H512 0.984 . S
N506 H513 0.984 . S
N507 C500 1.356 . S
N507 H510 0.984 . S
N507 H511 0.985 . S
H508 N503 0.984 . S
H509 N503 0.985 . S
H510 N507 0.984 . S
H511 N507 0.985 . S
H512 N506 0.984 . S
H513 N506 0.984 . S
H514 N502 0.984 . S
H515 N502 0.985 . S
C516 C517 1.363 . S
C516 C522 1.379 1_556 S
C516 N524 1.356 . S
C517 C516 1.363 . S
C517 C523 1.363 . S
C518 C519 1.363 . S
C518 C523 1.379 1_554 S
C518 N525 1.356 . S
C519 C518 1.363 . S
C519 C522 1.363 . S
N520 C522 1.356 . S
N520 H532 0.984 . S
N520 H533 0.985 . S
N521 C523 1.356 . S
N521 H526 0.984 . S
N521 H527 0.985 . S
C522 C516 1.379 1_554 S
C522 C519 1.363 . S
C522 N520 1.356 . S
C523 C517 1.363 . S
C523 C518 1.379 1_556 S
C523 N521 1.356 . S
N524 C516 1.356 . S
N524 H530 0.984 . S
N524 H531 0.984 . S
N525 C518 1.356 . S
N525 H528 0.984 . S
N525 H529 0.985 . S
H526 N521 0.984 . S
H527 N521 0.985 . S
H528 N525 0.984 . S
H529 N525 0.985 . S
H530 N524 0.984 . S
H531 N524 0.984 . S
H532 N520 0.984 . S
H533 N520 0.985 . S
C534 C535 1.363 . S
C534 C540 1.379 . S
C534 N542 1.356 . S
C535 C534 1.363 . S
C535 C541 1.363 . S
C536 C537 1.363 . S
C536 C541 1.379 . S
C536 N543 1.356 . S
C537 C536 1.363 . S
C537 C540 1.363 . S
N538 C540 1.356 . S
N538 H550 0.984 . S
N538 H551 0.985 . S
N539 C541 1.356 . S
N539 H544 0.984 . S
N539 H545 0.985 . S
C540 C534 1.379 . S
C540 C537 1.363 . S
C540 N538 1.356 . S
C541 C535 1.363 . S
C541 C536 1.379 . S
C541 N539 1.356 . S
N542 C534 1.356 . S
N542 H548 0.984 . S
N542 H549 0.984 . S
N543 C536 1.356 . S
N543 H546 0.984 . S
N543 H547 0.985 . S
H544 N539 0.984 . S
H545 N539 0.985 . S
H546 N543 0.984 . S
H547 N543 0.985 . S
H548 N542 0.984 . S
H549 N542 0.984 . S
H550 N538 0.984 . S
H551 N538 0.985 . S
C552 C553 1.363 . S
C552 C558 1.379 . S
C552 N560 1.356 . S
C553 C552 1.363 . S
C553 C559 1.363 . S
C554 C555 1.363 . S
C554 C559 1.379 . S
C554 N561 1.356 . S
C555 C554 1.363 . S
C555 C558 1.363 . S
N556 C558 1.356 . S
N556 H568 0.984 . S
N556 H569 0.985 . S
N557 C559 1.356 . S
N557 H562 0.984 . S
N557 H563 0.985 . S
C558 C552 1.379 . S
C558 C555 1.363 . S
C558 N556 1.356 . S
C559 C553 1.363 . S
C559 C554 1.379 . S
C559 N557 1.356 . S
N560 C552 1.356 . S
N560 H566 0.984 . S
N560 H567 0.984 . S
N561 C554 1.356 . S
N561 H564 0.984 . S
N561 H565 0.985 . S
H562 N557 0.984 . S
H563 N557 0.985 . S
H564 N561 0.984 . S
H565 N561 0.985 . S
H566 N560 0.984 . S
H567 N560 0.984 . S
H568 N556 0.984 . S
H569 N556 0.985 . S
C355 C5 1.257 . S
C357 C182 1.257 . S
C373 C64 1.257 . S
C375 C241 1.257 . S
C391 C123 1.258 . S
C393 C300 1.258 . S
C409 C111 1.795 . S
C411 C288 1.795 . S
C427 C347 1.795 . S
C429 C170 1.795 . S
C445 C229 1.795 . S
C447 C52 1.795 . S
C463 C151 1.456 . S
C465 C3 1.441 . S
C481 C210 1.456 . S
C483 C62 1.442 . S
C499 C121 1.442 . S
C501 C269 1.456 . S
C517 C328 1.456 . S
C519 C180 1.441 . S
C535 C239 1.441 . S
C537 C33 1.456 . S
C553 C298 1.442 . S
C555 C92 1.456 . S
