# Generated by pormake.
# Topology smm, (6)-cn, num edge types: 1
# Building blocks:
#     Node 0, Type 0, BuildingBlock: GEDQOX_clean_sbu_0, # of connection points: 6
#     Node 1, Type 0, BuildingBlock: GEDQOX_clean_sbu_0, # of connection points: 6
#     Node 2, Type 0, BuildingBlock: GEDQOX_clean_sbu_0, # of connection points: 6
#     Node 3, Type 0, BuildingBlock: GEDQOX_clean_sbu_0, # of connection points: 6
#     Node 4, Type 0, BuildingBlock: GEDQOX_clean_sbu_0, # of connection points: 6
#     Node 5, Type 0, BuildingBlock: GEDQOX_clean_sbu_0, # of connection points: 6
#     Node 6, Type 0, BuildingBlock: GEDQOX_clean_sbu_0, # of connection points: 6
#     Node 7, Type 0, BuildingBlock: GEDQOX_clean_sbu_0, # of connection points: 6
#     Node 8, Type 0, BuildingBlock: GEDQOX_clean_sbu_0, # of connection points: 6
#     Edge 9, Type (0, 0), BuildingBlock: OJICUG_clean_linker_0, # of connection points: 2
#     Edge 10, Type (0, 0), BuildingBlock: OJICUG_clean_linker_0, # of connection points: 2
#     Edge 11, Type (0, 0), BuildingBlock: OJICUG_clean_linker_0, # of connection points: 2
#     Edge 12, Type (0, 0), BuildingBlock: OJICUG_clean_linker_0, # of connection points: 2
#     Edge 13, Type (0, 0), BuildingBlock: OJICUG_clean_linker_0, # of connection points: 2
#     Edge 14, Type (0, 0), BuildingBlock: OJICUG_clean_linker_0, # of connection points: 2
#     Edge 15, Type (0, 0), BuildingBlock: OJICUG_clean_linker_0, # of connection points: 2
#     Edge 16, Type (0, 0), BuildingBlock: OJICUG_clean_linker_0, # of connection points: 2
#     Edge 17, Type (0, 0), BuildingBlock: OJICUG_clean_linker_0, # of connection points: 2
#     Edge 18, Type (0, 0), BuildingBlock: OJICUG_clean_linker_0, # of connection points: 2
#     Edge 19, Type (0, 0), BuildingBlock: OJICUG_clean_linker_0, # of connection points: 2
#     Edge 20, Type (0, 0), BuildingBlock: OJICUG_clean_linker_0, # of connection points: 2
#     Edge 21, Type (0, 0), BuildingBlock: OJICUG_clean_linker_0, # of connection points: 2
#     Edge 22, Type (0, 0), BuildingBlock: OJICUG_clean_linker_0, # of connection points: 2
#     Edge 23, Type (0, 0), BuildingBlock: OJICUG_clean_linker_0, # of connection points: 2
#     Edge 24, Type (0, 0), BuildingBlock: OJICUG_clean_linker_0, # of connection points: 2
#     Edge 25, Type (0, 0), BuildingBlock: OJICUG_clean_linker_0, # of connection points: 2
#     Edge 26, Type (0, 0), BuildingBlock: OJICUG_clean_linker_0, # of connection points: 2
#     Edge 27, Type (0, 0), BuildingBlock: OJICUG_clean_linker_0, # of connection points: 2
#     Edge 28, Type (0, 0), BuildingBlock: OJICUG_clean_linker_0, # of connection points: 2
#     Edge 29, Type (0, 0), BuildingBlock: OJICUG_clean_linker_0, # of connection points: 2
#     Edge 30, Type (0, 0), BuildingBlock: OJICUG_clean_linker_0, # of connection points: 2
#     Edge 31, Type (0, 0), BuildingBlock: OJICUG_clean_linker_0, # of connection points: 2
#     Edge 32, Type (0, 0), BuildingBlock: OJICUG_clean_linker_0, # of connection points: 2
#     Edge 33, Type (0, 0), BuildingBlock: OJICUG_clean_linker_0, # of connection points: 2
#     Edge 34, Type (0, 0), BuildingBlock: OJICUG_clean_linker_0, # of connection points: 2
#     Edge 35, Type (0, 0), BuildingBlock: OJICUG_clean_linker_0, # of connection points: 2
# Relax obj value: 0.042
# Max RMSD: 0.122
# Mean RMSD: 0.122
data_MOF--net-smm--node1-GEDQOX_clean_sbu_0--edge1-OJICUG_clean_linker_0
_symmetry_space_group_name_H-M    P1
_symmetry_Int_Tables_number       1
_symmetry_cell_setting            triclinic
loop_
_symmetry_equiv_pos_as_xyz
'x, y, z'
_cell_length_a     56.479775
_cell_length_b     56.710753
_cell_length_c     10.538362
_cell_angle_alpha  89.865903
_cell_angle_beta   90.142963
_cell_angle_gamma 120.02837
loop_
_atom_site_label
_atom_site_type_symbol
_atom_site_fract_x
_atom_site_fract_y
_atom_site_fract_z
_atom_type_partial_charge
Nd0 Nd 0.07728 0.2348 0.01784 0.0
Nd1 Nd 1.02829 0.17711 0.01543 0.0
C2 C 0.12206 0.28351 0.03069 0.0
C3 C 0.1319 0.31115 0.97555 0.0
C4 C 0.1289 0.33092 0.04243 0.0
C5 C 0.13836 0.35696 -0.00895 0.0
C6 C 0.15122 0.36405 0.87148 0.0
C7 C 0.15444 0.34432 0.80516 0.0
C8 C 0.14496 0.31828 0.85651 0.0
C9 C 0.05388 0.21677 0.78352 0.0
C10 C 1.01795 0.2294 0.04846 0.0
C11 C 0.9842 0.12876 0.97556 0.0
C12 C 0.97494 0.09918 -0.01299 0.0
C13 C 0.97942 0.08501 0.88916 0.0
C14 C 0.96922 0.05684 0.89842 0.0
C15 C 0.95414 0.04205 0.00543 0.0
C16 C 0.94995 0.05634 0.10364 0.0
C17 C 0.96009 0.08444 0.09432 0.0
C18 C 0.05115 0.19444 0.25087 0.0
C19 C 0.08786 0.18274 0.01972 0.0
O20 O 0.10249 0.27461 0.11525 0.0
O21 O 0.11921 0.26434 0.95281 0.0
O22 O 0.06213 0.2411 0.8255 0.0
O23 O 0.05801 0.20298 0.86478 0.0
O24 O 1.04432 0.24491 0.07159 0.0
O25 O 1.00765 0.20395 0.00783 0.0
O26 O 1.00172 0.14289 0.88614 0.0
O27 O 0.98889 0.1425 0.08106 0.0
O28 O 1.04198 0.16983 0.20929 0.0
O29 O 0.04767 0.2087 0.16942 0.0
O30 O 0.06231 0.16724 -0.01796 0.0
O31 O 0.09702 0.20811 0.05836 0.0
H32 H 0.11932 0.32634 0.13502 0.0
H33 H 0.13594 0.3717 0.04627 0.0
H34 H 0.164 0.34887 0.71257 0.0
H35 H 0.14788 0.30371 0.80248 0.0
H36 H 0.99047 0.09558 0.80438 0.0
H37 H 0.97258 0.04656 0.82002 0.0
H38 H 0.93881 0.04583 0.18832 0.0
H39 H 0.95603 0.09458 0.17109 0.0
Nd40 Nd 0.85507 0.86376 0.03077 0.0
Nd41 Nd 0.9095 0.86743 0.00192 0.0
C42 C 0.80378 0.85151 0.07245 0.0
C43 C 0.77683 0.83529 0.00838 0.0
C44 C 0.7558 0.81229 0.06915 0.0
C45 C 0.73027 0.79671 0.01064 0.0
C46 C 0.72501 0.80378 0.88982 0.0
C47 C 0.746 0.82697 0.82941 0.0
C48 C 0.77162 0.8425 0.88773 0.0
C49 C 0.8709 0.86583 0.78238 0.0
C50 C 0.85882 0.80781 0.04681 0.0
C51 C 0.9591 0.87807 0.93159 0.0
C52 C 0.98873 0.89797 0.94974 0.0
C53 C 1.0033 0.91825 0.85847 0.0
C54 C 1.03162 0.93561 0.87003 0.0
C55 C 1.0462 0.93305 0.97276 0.0
C56 C 1.03155 0.91287 0.06452 0.0
C57 C 1.00324 0.89555 0.05306 0.0
C58 C 0.89409 0.86463 0.25069 0.0
C59 C 0.90637 0.92402 0.0287 0.0
O60 O 0.81461 0.83803 0.12316 0.0
O61 O 0.82197 0.8739 0.01685 0.0
O62 O 0.85845 0.87799 0.82498 0.0
O63 O 0.87368 0.85189 0.86829 0.0
O64 O 0.84644 0.82088 0.0871 0.0
O65 O 0.88227 0.82093 -0.0148 0.0
O66 O 0.94434 0.88563 0.86568 0.0
O67 O 0.94575 0.86256 0.0278 0.0
O68 O 0.9078 0.85371 0.20753 0.0
O69 O 0.89066 0.87847 0.16613 0.0
O70 O 0.91969 0.91244 -0.01963 0.0
O71 O 0.88189 0.90895 0.07926 0.0
H72 H 0.75909 0.80636 0.16241 0.0
H73 H 0.7145 0.77926 0.06106 0.0
H74 H 0.74277 0.83291 0.73608 0.0
H75 H 0.78734 0.86008 0.83788 0.0
H76 H 0.9929 0.92039 0.77658 0.0
H77 H 1.0422 0.95061 0.79643 0.0
H78 H 1.04196 0.91047 0.14565 0.0
H79 H 0.99281 0.87999 0.12462 0.0
Nd80 Nd 0.22694 1.01209 -0.00241 0.0
Nd81 Nd 0.21932 0.06171 -0.0056 0.0
C82 C 0.22973 0.96673 0.01243 0.0
C83 C 0.24759 0.95702 0.95953 0.0
C84 C 0.23948 0.92928 0.96558 0.0
C85 C 0.25584 0.91966 0.91286 0.0
C86 C 0.28077 0.93761 0.85274 0.0
C87 C 0.28874 0.96547 0.8466 0.0
C88 C 0.27231 0.97504 0.89915 0.0
C89 C 0.23276 0.03558 0.76323 0.0
C90 C 0.28152 0.07065 0.02843 0.0
C91 C 0.21654 0.10657 0.95545 0.0
C92 C 0.19688 0.1167 0.96716 0.0
C93 C 0.17487 0.1086 0.88238 0.0
C94 C 0.15718 0.11916 0.89303 0.0
C95 C 0.16101 0.13811 -0.01137 0.0
C96 C 0.18303 0.14611 0.07336 0.0
C97 C 0.20074 0.13563 0.06244 0.0
C98 C 0.21345 0.03882 0.22995 0.0
C99 C 0.16461 1.00313 -0.00168 0.0
O100 O 0.24056 0.98624 0.09675 0.0
O101 O 0.21443 0.97036 0.93062 0.0
O102 O 0.24858 1.02693 0.80582 0.0
O103 O 0.21488 0.03182 0.84402 0.0
O104 O 0.27026 0.04439 0.05271 0.0
O105 O 0.2667 0.08123 -0.01419 0.0
O106 O 0.21254 0.08897 0.86581 0.0
O107 O 0.22524 0.10138 0.0611 0.0
O108 O 0.19829 0.0484 0.18794 0.0
O109 O 0.2311 0.0419 0.1488 0.0
O110 O 0.17514 1.02859 0.95988 0.0
O111 O 0.18047 0.99346 0.03743 0.0
H112 H 0.22043 0.91499 0.01124 0.0
H113 H 0.24916 0.89819 0.9212 0.0
H114 H 0.30757 0.97988 0.79986 0.0
H115 H 0.27885 0.99651 0.89218 0.0
H116 H 0.17139 0.09425 0.80704 0.0
H117 H 0.14077 0.11279 0.82465 0.0
H118 H 0.1865 0.16034 0.14922 0.0
H119 H 0.2176 0.14244 0.12874 0.0
Nd120 Nd 0.74524 0.56607 0.35782 0.0
Nd121 Nd 0.69383 0.5122 0.32801 0.0
C122 C 0.78473 0.61696 0.40132 0.0
C123 C 0.79518 0.64427 0.34178 0.0
C124 C 0.79303 0.66469 0.40697 0.0
C125 C 0.80297 0.69059 0.35327 0.0
C126 C 0.81549 0.69688 0.23289 0.0
C127 C 0.81782 0.67647 0.16798 0.0
C128 C 0.80776 0.65049 0.22153 0.0
C129 C 0.73129 0.55045 0.10923 0.0
C130 C 0.68564 0.56334 0.37016 0.0
C131 C 0.65423 0.4632 0.2561 0.0
C132 C 0.64397 0.43377 0.27446 0.0
C133 C 0.61597 0.41542 0.25831 0.0
C134 C 0.60531 0.38745 0.27646 0.0
C135 C 0.62242 0.37707 0.31143 0.0
C136 C 0.65061 0.39558 0.32716 0.0
C137 C 0.66128 0.42368 0.30923 0.0
C138 C 0.70673 0.52744 0.57696 0.0
C139 C 0.75324 0.51416 0.35364 0.0
O140 O 0.76077 0.60593 0.45599 0.0
O141 O 0.78845 0.59911 0.33986 0.0
O142 O 0.75598 0.56256 0.15226 0.0
O143 O 0.71461 0.54792 0.19485 0.0
O144 O 0.71121 0.57552 0.4104 0.0
O145 O 0.67503 0.53983 0.30967 0.0
O146 O 0.677 0.47743 0.19287 0.0
O147 O 0.65227 0.4764 0.35299 0.0
O148 O 0.68201 0.5141 0.53346 0.0
O149 O 0.72394 0.53059 0.4926 0.0
O150 O 0.72821 0.50138 0.30562 0.0
O151 O 0.76321 0.53862 0.40444 0.0
H152 H 0.78372 0.66066 0.50013 0.0
H153 H 0.80119 0.70585 0.40724 0.0
H154 H 0.8271 0.68044 0.07481 0.0
H155 H 0.80982 0.63531 0.16835 0.0
H156 H 0.60225 0.42275 0.23136 0.0
H157 H 0.58364 0.3739 0.26127 0.0
H158 H 0.66438 0.38841 0.35512 0.0
H159 H 0.68295 0.4375 0.32303 0.0
Nd160 Nd 0.52182 0.19947 0.36188 0.0
Nd161 Nd 0.57569 0.20214 0.33275 0.0
C162 C 0.47074 0.18788 0.40407 0.0
C163 C 0.44359 0.17118 0.34184 0.0
C164 C 0.42471 0.1454 0.39042 0.0
C165 C 0.39914 0.12954 0.33264 0.0
C166 C 0.39163 0.13907 0.2249 0.0
C167 C 0.4104 0.16501 0.17714 0.0
C168 C 0.43602 0.18086 0.2348 0.0
C169 C 0.53747 0.20129 0.11335 0.0
C170 C 0.52447 0.14283 0.37429 0.0
C171 C 0.62521 0.21251 0.26334 0.0
C172 C 0.65466 0.23237 0.28508 0.0
C173 C 0.67064 0.24966 0.18629 0.0
C174 C 0.69884 0.26702 0.20202 0.0
C175 C 0.71185 0.26737 0.31677 0.0
C176 C 0.69577 0.2503 0.41618 0.0
C177 C 0.66755 0.23302 0.40062 0.0
C178 C 0.56046 0.19969 0.58166 0.0
C179 C 0.57375 0.25934 0.35778 0.0
O180 O 0.48171 0.1749 0.45869 0.0
O181 O 0.48883 0.20971 0.34441 0.0
O182 O 0.52546 0.21387 0.15619 0.0
O183 O 0.53994 0.18713 0.19911 0.0
O184 O 0.51239 0.15615 0.41543 0.0
O185 O 0.54799 0.15582 0.31317 0.0
O186 O 0.61082 0.22061 0.19808 0.0
O187 O 0.61142 0.19642 0.35723 0.0
O188 O 0.57372 0.1883 0.53837 0.0
O189 O 0.55736 0.21374 0.49711 0.0
O190 O 0.58655 0.24725 0.30939 0.0
O191 O 0.54927 0.24471 0.40908 0.0
H192 H 0.42969 0.13745 0.47358 0.0
H193 H 0.38507 0.10991 0.37378 0.0
H194 H 0.40545 0.17297 0.09399 0.0
H195 H 0.44991 0.20069 0.19498 0.0
H196 H 0.6614 0.24939 0.09569 0.0
H197 H 0.71059 0.27961 0.1228 0.0
H198 H 0.705 0.25026 0.50633 0.0
H199 H 0.65596 0.21993 0.47882 0.0
Nd200 Nd 0.89021 0.34267 0.36077 0.0
Nd201 Nd 0.88749 0.39378 0.33079 0.0
C202 C 0.90131 0.30298 0.40598 0.0
C203 C 0.91785 0.29247 0.34568 0.0
C204 C 0.9127 0.26616 0.37456 0.0
C205 C 0.92797 0.25577 0.31723 0.0
C206 C 0.94881 0.27151 0.22957 0.0
C207 C 0.95371 0.29786 0.20013 0.0
C208 C 0.93836 0.30819 0.2573 0.0
C209 C 0.88826 0.3565 0.11219 0.0
C210 C 0.94702 0.4021 0.37152 0.0
C211 C 0.87658 0.43258 0.26283 0.0
C212 C 0.85644 0.44185 0.28472 0.0
C213 C 0.83823 0.43948 0.18779 0.0
C214 C 0.82071 0.45011 0.2033 0.0
C215 C 0.82105 0.46362 0.31595 0.0
C216 C 0.83904 0.46564 0.41359 0.0
C217 C 0.85649 0.45494 0.39824 0.0
C218 C 0.8901 0.38093 0.57993 0.0
C219 C 0.83024 0.33463 0.3558 0.0
O220 O 0.9146 0.32706 0.45842 0.0
O221 O 0.87995 0.29952 0.34244 0.0
O222 O 0.8757 0.33193 0.15534 0.0
O223 O 0.90249 0.37313 0.19767 0.0
O224 O 0.93372 0.3767 0.41277 0.0
O225 O 0.93396 0.41257 0.31046 0.0
O226 O 0.86874 0.41035 0.19679 0.0
O227 O 0.89276 0.43489 0.35668 0.0
O228 O 0.90158 0.40554 0.53627 0.0
O229 O 0.87594 0.36385 0.49553 0.0
O230 O 0.84243 0.35939 0.30627 0.0
O231 O 0.84483 0.32487 0.40834 0.0
H232 H 0.8969 0.25364 0.4421 0.0
H233 H 0.92381 0.23559 0.34375 0.0
H234 H 0.96931 0.31048 0.13207 0.0
H235 H 0.9425 0.32845 0.23246 0.0
H236 H 0.83792 0.42987 0.09859 0.0
H237 H 0.80744 0.44844 0.12529 0.0
H238 H 0.83967 0.47556 0.50225 0.0
H239 H 0.8703 0.45731 0.47495 0.0
Nd240 Nd 0.41084 0.89965 0.6692 0.0
Nd241 Nd 0.3601 0.84526 0.63944 0.0
C242 C 0.44958 0.95079 0.71432 0.0
C243 C 0.45976 0.97818 0.65629 0.0
C244 C 0.45822 0.99858 0.72484 0.0
C245 C 0.46813 1.02465 0.67311 0.0
C246 C 0.48002 0.03112 0.55139 0.0
C247 C 0.48165 1.01069 0.4829 0.0
C248 C 0.4716 0.98455 0.53448 0.0
C249 C 0.39717 0.88392 0.42054 0.0
C250 C 0.35052 0.89552 0.67933 0.0
C251 C 0.32164 0.79548 0.57086 0.0
C252 C 0.31248 0.76622 0.59368 0.0
C253 C 0.3142 0.75032 0.49597 0.0
C254 C 0.30365 0.72227 0.51247 0.0
C255 C 0.2909 0.70931 0.62693 0.0
C256 C 0.28952 0.72532 0.72529 0.0
C257 C 0.30015 0.75339 0.70896 0.0
C258 C 0.37284 0.86066 0.88834 0.0
C259 C 0.42013 0.84855 0.66416 0.0
O260 O 0.42553 0.93931 0.76827 0.0
O261 O 0.45376 0.93332 0.65207 0.0
O262 O 0.42186 0.89653 0.46363 0.0
O263 O 0.38033 0.881 0.50604 0.0
O264 O 0.37606 0.90815 0.72033 0.0
O265 O 0.34043 0.87205 0.61891 0.0
O266 O 0.34414 0.81004 0.5061 0.0
O267 O 0.31892 0.80917 0.66368 0.0
O268 O 0.34814 0.84698 0.84485 0.0
O269 O 0.39014 0.86411 0.80398 0.0
O270 O 0.39514 0.83545 0.61598 0.0
O271 O 0.42969 0.87292 0.71532 0.0
H272 H 0.44946 0.9944 0.8192 0.0
H273 H 0.46689 0.0399 0.7297 0.0
H274 H 0.4904 1.0148 0.38859 0.0
H275 H 0.47314 0.96937 0.47869 0.0
H276 H 0.32323 0.7595 0.40554 0.0
H277 H 0.30481 0.7106 0.43397 0.0
H278 H 0.28018 0.71617 0.81526 0.0
H279 H 0.29833 0.7649 0.78635 0.0
Nd280 Nd 0.18956 0.53131 0.67809 0.0
Nd281 Nd 0.24373 0.53464 0.64797 0.0
C282 C 0.13844 0.51924 0.72372 0.0
C283 C 0.11108 0.50233 0.66435 0.0
C284 C 0.09024 0.48053 0.7324 0.0
C285 C 0.06428 0.46442 0.67869 0.0
C286 C 0.05838 0.46976 0.55551 0.0
C287 C 0.07921 0.49172 0.48765 0.0
C288 C 0.10526 0.50776 0.54118 0.0
C289 C 0.20495 0.53305 0.42905 0.0
C290 C 0.19314 0.47515 0.69066 0.0
C291 C 0.29343 0.54563 0.57834 0.0
C292 C 0.32279 0.56577 0.60048 0.0
C293 C 0.3387 0.58318 0.50187 0.0
C294 C 0.36684 0.60083 0.51805 0.0
C295 C 0.37985 0.60138 0.63309 0.0
C296 C 0.36382 0.58419 0.73234 0.0
C297 C 0.33567 0.56662 0.71633 0.0
C298 C 0.22867 0.53229 0.89729 0.0
C299 C 0.24107 0.59142 0.67052 0.0
O300 O 0.14969 0.50637 0.77676 0.0
O301 O 0.15619 0.54103 0.66271 0.0
O302 O 0.19257 0.54528 0.4719 0.0
O303 O 0.20779 0.51916 0.515 0.0
O304 O 0.1808 0.48819 0.73206 0.0
O305 O 0.21651 0.48833 0.62859 0.0
O306 O 0.27884 0.55353 0.51333 0.0
O307 O 0.27975 0.52937 0.67191 0.0
O308 O 0.24212 0.52111 0.85398 0.0
O309 O 0.22529 0.54612 0.81249 0.0
O310 O 0.25393 0.57942 0.62215 0.0
O311 O 0.21672 0.57675 0.72306 0.0
H312 H 0.09403 0.47597 0.8277 0.0
H313 H 0.04867 0.44796 0.73466 0.0
H314 H 0.0755 0.4963 0.3923 0.0
H315 H 0.12082 0.52438 0.48573 0.0
H316 H 0.32947 0.58277 0.41107 0.0
H317 H 0.37855 0.6135 0.43896 0.0
H318 H 0.37305 0.5843 0.82271 0.0
H319 H 0.32412 0.55346 0.79444 0.0
Nd320 Nd 0.55816 0.67777 0.67812 0.0
Nd321 Nd 0.55528 0.72893 0.64861 0.0
C322 C 0.56957 0.63829 0.7222 0.0
C323 C 0.58658 0.62812 0.66325 0.0
C324 C 0.61094 0.6457 0.59892 0.0
C325 C 0.62664 0.63561 0.54319 0.0
C326 C 0.61827 0.60766 0.54977 0.0
C327 C 0.59366 0.59014 0.61313 0.0
C328 C 0.57804 0.60027 0.66918 0.0
C329 C 0.55615 0.69172 0.42982 0.0
C330 C 0.61487 0.73729 0.69081 0.0
C331 C 0.54435 0.7677 0.58012 0.0
C332 C 0.52418 0.77698 0.60059 0.0
C333 C 0.50608 0.77452 0.5029 0.0
C334 C 0.48857 0.78521 0.51702 0.0
C335 C 0.48881 0.79885 0.62901 0.0
C336 C 0.5067 0.80101 0.72734 0.0
C337 C 0.52414 0.79025 0.71337 0.0
C338 C 0.55791 0.71603 0.8973 0.0
C339 C 0.49812 0.66954 0.67368 0.0
O340 O 0.58233 0.66212 0.77734 0.0
O341 O 0.54839 0.63479 0.657 0.0
O342 O 0.54362 0.66713 0.47278 0.0
O343 O 0.57037 0.70834 0.51541 0.0
O344 O 0.6016 0.71177 0.73027 0.0
O345 O 0.60185 0.74792 0.63063 0.0
O346 O 0.53671 0.74554 0.51375 0.0
O347 O 0.56028 0.76991 0.67493 0.0
O348 O 0.56922 0.74065 0.85396 0.0
O349 O 0.54381 0.69888 0.81283 0.0
O350 O 0.51021 0.69437 0.62471 0.0
O351 O 0.51278 0.65982 0.72577 0.0
H352 H 0.61783 0.66725 0.59163 0.0
H353 H 0.64525 0.6497 0.49397 0.0
H354 H 0.58669 0.56861 0.6218 0.0
H355 H 0.55928 0.5863 0.71783 0.0
H356 H 0.50585 0.76479 0.41419 0.0
H357 H 0.47538 0.78344 0.43847 0.0
H358 H 0.50725 0.81103 0.81553 0.0
H359 H 0.53788 0.79272 0.79059 0.0
C360 C 0.18629 0.40565 0.75078 0.0
C361 C 0.16131 0.39192 0.8171 0.0
H362 H 0.2159 0.44247 0.65823 0.0
C363 C 0.14625 0.40532 0.83339 0.0
H364 H 0.19861 0.39613 0.73711 0.0
C365 C 0.1562 0.43188 0.78844 0.0
C366 C 0.18152 0.44591 0.72552 0.0
H367 H 0.12669 0.39529 0.88145 0.0
H368 H 0.14413 0.44158 0.80514 0.0
C369 C 0.19627 0.43229 0.70557 0.0
C370 C 0.68414 0.75834 0.83663 0.0
C371 C 0.69772 0.78689 0.82801 0.0
H372 H 0.64792 0.72048 0.79833 0.0
C373 C 0.6846 0.799 0.76355 0.0
H374 H 0.69379 0.74825 0.88303 0.0
C375 C 0.6581 0.78296 0.7139 0.0
C376 C 0.64417 0.75445 0.72726 0.0
H377 H 0.69439 0.82095 0.75547 0.0
H378 H 0.64822 0.79298 0.66901 0.0
C379 C 0.65782 0.74237 0.78699 0.0
C380 C 0.32724 0.94275 0.81444 0.0
C381 C 0.29865 0.92744 0.79992 0.0
H382 H 0.36581 0.94492 0.78743 0.0
C383 C 0.2874 0.90207 0.73784 0.0
H384 H 0.33672 0.96219 0.86274 0.0
C385 C 0.30419 0.89206 0.69436 0.0
C386 C 0.33269 0.90708 0.71233 0.0
H387 H 0.26553 0.88985 0.72319 0.0
H388 H 0.29474 0.87224 0.64946 0.0
C389 C 0.34397 0.93272 0.77153 0.0
C390 C 0.35296 0.09364 0.15302 0.0
C391 C 0.36426 0.12198 0.16378 0.0
H392 H 0.3185 0.05546 0.10015 0.0
C393 C 0.34884 0.13361 0.11901 0.0
H394 H 0.36438 0.08399 0.18373 0.0
C395 C 0.32241 0.11717 0.06963 0.0
C396 C 0.31076 0.08871 0.06378 0.0
H397 H 0.35678 0.15534 0.12632 0.0
H398 H 0.31078 0.12671 0.04036 0.0
C399 C 0.32663 0.07727 0.10388 0.0
C400 C 0.95454 0.23336 0.13723 0.0
C401 C 0.966 0.26089 0.17298 0.0
H402 H 0.96167 0.20183 0.06796 0.0
C403 C 0.99436 0.27813 0.15841 0.0
H404 H 0.93274 0.21952 0.14543 0.0
C405 C 1.01087 0.26803 0.11346 0.0
C406 C 0.99958 0.24037 0.08114 0.0
H407 H 1.00405 0.29934 0.18597 0.0
H408 H 1.0327 0.28191 0.10701 0.0
C409 C 0.9711 0.22324 0.0915 0.0
C410 C 0.86144 0.76462 0.06433 0.0
C411 C 0.84693 0.77855 0.08231 0.0
H412 H 0.86315 0.72815 0.09847 0.0
C413 C 0.82144 0.7648 0.14402 0.0
H414 H 0.88117 0.77457 0.01783 0.0
C415 C 0.81114 0.73829 0.19014 0.0
C416 C 0.82597 0.72461 0.17615 0.0
H417 H 0.8095 0.77469 0.15906 0.0
H418 H 0.7915 0.72854 0.23755 0.0
C419 C 0.85106 0.73796 0.11055 0.0
C420 C 1.01657 0.42403 0.51708 0.0
C421 C 1.0306 0.4524 0.49894 0.0
H422 H 0.97974 0.38607 0.48961 0.0
C423 C 1.01753 0.46395 0.4296 0.0
H424 H 1.02614 0.41433 0.56766 0.0
C425 C 0.99074 0.44762 0.3839 0.0
C426 C 0.97644 0.41935 0.40602 0.0
H427 H 1.02765 0.48574 0.41429 0.0
H428 H 0.98099 0.45728 0.33453 0.0
C429 C 0.98994 0.40777 0.47126 0.0
C430 C 0.66416 0.61185 0.50677 0.0
C431 C 0.63551 0.59697 0.49468 0.0
H432 H 0.70223 0.61315 0.47663 0.0
C433 C 0.62358 0.57147 0.43344 0.0
H434 H 0.67414 0.63138 0.55438 0.0
C435 C 0.63981 0.5609 0.38849 0.0
C436 C 0.66838 0.57549 0.40422 0.0
H437 H 0.60163 0.55955 0.42075 0.0
H438 H 0.62986 0.54099 0.34439 0.0
C439 C 0.68032 0.60127 0.46247 0.0
C440 C 0.48699 0.09992 0.472 0.0
C441 C 0.51222 0.11344 0.40797 0.0
H442 H 0.45701 0.06361 0.56526 0.0
C443 C 0.52617 0.09911 0.38551 0.0
H444 H 0.47549 0.11013 0.49058 0.0
C445 C 0.51553 0.07226 0.4294 0.0
C446 C 0.49071 0.05909 0.49718 0.0
H447 H 0.54569 0.10887 0.33708 0.0
H448 H 0.52721 0.06213 0.41375 0.0
C449 C 0.47642 0.0732 0.5159 0.0
C450 C 0.15225 0.17696 0.03361 0.0
C451 C 0.14223 0.14954 -0.00041 0.0
H452 H 0.14319 0.20893 0.06698 0.0
C453 C 0.11405 0.13313 0.97553 0.0
H454 H 0.17385 0.19039 0.05132 0.0
C455 C 0.09651 0.14385 -0.01641 0.0
C456 C 0.10656 0.17131 0.01642 0.0
H457 H 0.1054 0.11184 0.95134 0.0
H458 H 0.07498 0.13051 0.96367 0.0
C459 C 0.13466 0.18768 0.04209 0.0
C460 C 0.90471 0.96679 0.07252 0.0
C461 C 0.91903 0.95425 0.02608 0.0
H462 H 0.90416 1.00387 0.10063 0.0
C463 C 0.9452 0.97087 0.97403 0.0
H464 H 0.88446 0.95471 0.1126 0.0
C465 C 0.95665 0.99925 0.96784 0.0
C466 C 0.94224 1.0118 0.01354 0.0
H467 H 0.95688 0.96198 0.93743 0.0
H468 H 0.97692 1.01137 0.92809 0.0
C469 C 0.91613 0.99511 0.06624 0.0
C470 C 0.08904 0.9788 0.95006 0.0
C471 C 0.07654 0.95108 -0.01699 0.0
H472 H 0.12623 1.01679 0.92975 0.0
C473 C 0.09334 0.94073 0.02413 0.0
H474 H 0.07683 0.98764 0.9199 0.0
C475 C 0.12185 0.95756 0.03057 0.0
C476 C 0.13431 0.9852 -0.00383 0.0
H477 H 0.08451 0.91943 0.04892 0.0
H478 H 0.13412 0.94881 0.06115 0.0
C479 C 0.11748 0.99559 0.95655 0.0
C480 C 0.79703 0.51389 0.39775 0.0
C481 C 0.77021 0.50078 0.34925 0.0
H482 H 0.83406 0.51272 0.42443 0.0
C483 C 0.76002 0.47501 0.29266 0.0
H484 H 0.80564 0.53376 0.44162 0.0
C485 C 0.77633 0.46289 0.28307 0.0
C486 C 0.80329 0.47612 0.33008 0.0
H487 H 0.73945 0.46421 0.2545 0.0
H488 H 0.76773 0.44303 0.23912 0.0
C489 C 0.81332 0.50172 0.38844 0.0
C490 C 0.58506 0.33116 0.38802 0.0
C491 C 0.61074 0.34706 0.32988 0.0
H492 H 0.55341 0.29135 0.44321 0.0
C493 C 0.62464 0.33387 0.28604 0.0
H494 H 0.57392 0.34059 0.42492 0.0
C495 C 0.61289 0.30553 0.29714 0.0
C496 C 0.58694 0.2896 0.35275 0.0
H497 H 0.64431 0.34534 0.23978 0.0
H498 H 0.62401 0.29608 0.26009 0.0
C499 C 0.57334 0.30286 0.3993 0.0
C500 C 0.75584 0.31158 0.28167 0.0
C501 C 0.74212 0.28499 0.3314 0.0
H502 H 0.79411 0.34806 0.2512 0.0
C503 C 0.75764 0.27516 0.39283 0.0
H504 H 0.74455 0.31998 0.23531 0.0
C505 C 0.78615 0.29133 0.40238 0.0
C506 C 0.79988 0.31778 0.35109 0.0
H507 H 0.74783 0.25468 0.43103 0.0
H508 H 0.79745 0.28293 0.44864 0.0
C509 C 0.78431 0.32777 0.29153 0.0
C510 C 0.48071 0.83684 0.70016 0.0
C511 C 0.47092 0.81126 0.64195 0.0
H512 H 0.47262 0.86866 0.75276 0.0
C513 C 0.44402 0.79787 0.59422 0.0
H514 H 0.5014 0.84796 0.7367 0.0
C515 C 0.42753 0.8098 0.60313 0.0
C516 C 0.43745 0.83552 0.6598 0.0
H517 H 0.43559 0.77801 0.55039 0.0
H518 H 0.40701 0.79885 0.56453 0.0
C519 C 0.46422 0.84882 0.70882 0.0
C520 C 0.27975 0.63731 0.60472 0.0
C521 C 0.25423 0.62166 0.66439 0.0
H522 H 0.31139 0.67696 0.54742 0.0
C523 C 0.24119 0.63519 0.71443 0.0
H524 H 0.29049 0.62767 0.56524 0.0
C525 C 0.2532 0.66356 0.70375 0.0
C526 C 0.27855 0.67917 0.64238 0.0
H527 H 0.2215 0.62385 0.76068 0.0
H528 H 0.24228 0.67318 0.74111 0.0
C529 C 0.29171 0.66563 0.59372 0.0
C530 C 0.45205 0.66228 0.60873 0.0
C531 C 0.46777 0.65251 0.66867 0.0
H532 H 0.4122 0.65408 0.55175 0.0
C533 C 0.45423 0.62605 0.71991 0.0
H534 H 0.46172 0.68257 0.56836 0.0
C535 C 0.42575 0.60966 0.70996 0.0
C536 C 0.41007 0.61926 0.64815 0.0
H537 H 0.46564 0.61781 0.76644 0.0
H538 H 0.4161 0.58918 0.74813 0.0
C539 C 0.42361 0.64586 0.59844 0.0
C540 C 0.04923 0.18585 0.60605 0.0
C541 C 0.05197 0.21062 0.64733 0.0
H542 H 0.04746 0.16154 0.44736 0.0
C543 C 0.05522 0.23033 0.55752 0.0
H544 H 0.04691 0.1704 0.67362 0.0
C545 C 0.05584 0.22538 0.42835 0.0
C546 C 0.05308 0.20059 0.38706 0.0
H547 H 0.05759 0.24968 0.58702 0.0
H548 H 0.05816 0.24083 0.36082 0.0
C549 C 0.04983 0.18089 0.47687 0.0
C550 C 0.87037 0.87988 0.55873 0.0
C551 C 0.87694 0.86534 0.64674 0.0
H552 H 0.87052 0.89095 0.36399 0.0
C553 C 0.88906 0.85049 0.60357 0.0
H554 H 0.86099 0.89152 0.58952 0.0
C555 C 0.89452 0.8502 0.47436 0.0
C556 C 0.88797 0.86479 0.38646 0.0
H557 H 0.89433 0.83913 0.66947 0.0
H558 H 0.90391 0.83858 0.44336 0.0
C559 C 0.87579 0.87957 0.4297 0.0
C560 C 0.24496 0.03406 0.53761 0.0
C561 C 0.22862 0.03762 0.62689 0.0
H562 H 0.25248 0.031 0.34113 0.0
C563 C 0.20678 0.04082 0.58491 0.0
H564 H 0.2618 0.03134 0.56765 0.0
C565 C 0.20128 0.04035 0.45557 0.0
C566 C 0.2176 0.03678 0.36627 0.0
H567 H 0.19375 0.0434 0.65206 0.0
H568 H 0.18443 0.04306 0.42554 0.0
C569 C 0.23945 0.03358 0.40826 0.0
C570 C 0.74007 0.5453 0.75679 0.0
C571 C 0.71308 0.53351 0.71287 0.0
H572 H 0.76688 0.55974 0.91723 0.0
C573 C 0.69194 0.52732 0.80026 0.0
H574 H 0.75673 0.55029 0.69151 0.0
C575 C 0.69771 0.53274 0.92957 0.0
C576 C 0.72471 0.54446 0.97343 0.0
H577 H 0.67091 0.51825 0.76876 0.0
H578 H 0.68108 0.52775 -0.00499 0.0
C579 C 0.74583 0.55067 0.88594 0.0
C580 C 0.54269 0.21518 0.76072 0.0
C581 C 0.55442 0.19999 0.71744 0.0
H582 H 0.52828 0.22753 0.92058 0.0
C583 C 0.56057 0.18509 0.80531 0.0
H584 H 0.53773 0.2268 0.69504 0.0
C585 C 0.55515 0.18546 0.93449 0.0
C586 C 0.54346 0.20071 -0.0223 0.0
H587 H 0.5696 0.17315 0.77428 0.0
H588 H 0.5601 0.17386 0.00035 0.0
C589 C 0.53731 0.21558 0.88976 0.0
C590 C 0.90475 0.39564 0.80328 0.0
C591 C 0.88975 0.37461 0.71583 0.0
H592 H 0.91599 0.40644 -0.00181 0.0
C593 C 0.87438 0.34774 0.75965 0.0
H594 H 0.91683 0.41657 0.77179 0.0
C595 C 0.87391 0.342 0.88887 0.0
C596 C 0.88887 0.36302 -0.02359 0.0
H597 H 0.86267 0.33117 0.69426 0.0
H598 H 0.86181 0.32106 0.92017 0.0
C599 C 0.9043 0.3899 0.93264 0.0
C600 C 0.41188 0.8845 0.19721 0.0
C601 C 0.39067 0.87785 0.28475 0.0
H602 H 0.42289 0.8844 0.00273 0.0
C603 C 0.36362 0.86563 0.24096 0.0
H604 H 0.43296 0.89396 0.22846 0.0
C605 C 0.3579 0.86016 0.11167 0.0
C606 C 0.37913 0.86679 0.02422 0.0
H607 H 0.34693 0.86029 0.30645 0.0
H608 H 0.33684 0.8507 0.08024 0.0
C609 C 0.40617 0.87907 0.06806 0.0
C610 C 0.2289 0.51773 0.12102 0.0
C611 C 0.22247 0.53241 0.0331 0.0
H612 H 0.22848 0.50646 0.31599 0.0
C613 C 0.21024 0.54715 0.07636 0.0
H614 H 0.23831 0.50614 0.09007 0.0
C615 C 0.20465 0.54731 0.20535 0.0
C616 C 0.2111 0.53267 0.29335 0.0
H617 H 0.20504 0.55859 0.01068 0.0
H618 H 0.19524 0.55893 0.23612 0.0
C619 C 0.22328 0.51788 0.25015 0.0
C620 C 0.5418 0.67718 0.20652 0.0
C621 C 0.55675 0.69822 0.29397 0.0
H622 H 0.53055 0.66628 0.01197 0.0
C623 C 0.57215 0.72509 0.25003 0.0
H624 H 0.52973 0.65623 0.23793 0.0
C625 C 0.57258 0.73079 0.1206 0.0
C626 C 0.55759 0.70972 0.03323 0.0
H627 H 0.58382 0.74164 0.31543 0.0
H628 H 0.58463 0.75171 0.08902 0.0
C629 C 0.54226 0.68287 0.07724 0.0
loop_
_geom_bond_atom_site_label_1
_geom_bond_atom_site_label_2
_geom_bond_distance
_geom_bond_site_symmetry_2
_ccdc_geom_bond_type
Nd0 C2 2.836 . S
Nd0 O20 2.500 1_556 S
Nd0 O21 2.492 . S
Nd0 O22 2.487 . S
Nd0 O23 2.682 . S
Nd0 O24 2.410 . S
Nd0 O29 2.414 1_556 S
Nd0 O31 2.424 . S
Nd1 C11 2.836 . S
Nd1 O23 2.414 1_654 S
Nd1 O25 2.424 . S
Nd1 O26 2.500 1_554 S
Nd1 O27 2.492 . S
Nd1 O28 2.487 . S
Nd1 O29 2.682 1_655 S
Nd1 O30 2.410 1_655 S
C2 Nd0 2.836 . S
C2 C3 1.498 . S
C2 O20 1.258 1_556 S
C2 O21 1.239 . S
C3 C2 1.498 . S
C3 C4 1.362 1_556 S
C3 C8 1.412 . S
C4 C3 1.362 1_554 S
C4 C5 1.392 . S
C4 H32 0.930 . S
C5 C4 1.392 . S
C5 C6 1.398 . S
C5 H33 0.929 . S
C6 C5 1.398 . S
C6 C7 1.352 1_554 S
C7 C6 1.352 1_556 S
C7 C8 1.384 . S
C7 H34 0.930 . S
C8 C3 1.412 . S
C8 C7 1.384 . S
C8 H35 0.929 . S
C9 O22 1.241 . S
C9 O23 1.273 . S
C10 O24 1.251 1_654 S
C10 O25 1.268 . S
C11 Nd1 2.836 . S
C11 C12 1.498 . S
C11 O26 1.258 1_554 S
C11 O27 1.239 . S
C12 C11 1.498 . S
C12 C13 1.366 1_554 S
C12 C17 1.407 . S
C13 C12 1.366 1_556 S
C13 C14 1.392 . S
C13 H36 0.930 . S
C14 C13 1.392 . S
C14 C15 1.396 1_556 S
C14 H37 0.929 . S
C15 C14 1.396 1_554 S
C15 C16 1.355 . S
C16 C15 1.355 . S
C16 C17 1.384 . S
C16 H38 0.930 . S
C17 C12 1.407 . S
C17 C16 1.384 . S
C17 H39 0.929 . S
C18 O28 1.241 1_455 S
C18 O29 1.273 . S
C19 O30 1.251 1_556 S
C19 O31 1.268 . S
O20 Nd0 2.500 1_554 S
O20 C2 1.258 1_554 S
O21 Nd0 2.492 . S
O21 C2 1.239 . S
O22 Nd0 2.487 . S
O22 C9 1.241 . S
O23 Nd0 2.682 . S
O23 Nd1 2.414 1_456 S
O23 C9 1.273 . S
O24 Nd0 2.410 . S
O24 C10 1.251 1_456 S
O25 Nd1 2.424 . S
O25 C10 1.268 . S
O26 Nd1 2.500 1_556 S
O26 C11 1.258 1_556 S
O27 Nd1 2.492 . S
O27 C11 1.239 . S
O28 Nd1 2.487 . S
O28 C18 1.241 1_655 S
O29 Nd0 2.414 1_554 S
O29 Nd1 2.682 1_455 S
O29 C18 1.273 . S
O30 Nd1 2.410 1_455 S
O30 C19 1.251 1_554 S
O31 Nd0 2.424 . S
O31 C19 1.268 . S
H32 C4 0.930 . S
H33 C5 0.929 . S
H34 C7 0.930 . S
H35 C8 0.929 . S
H36 C13 0.930 . S
H37 C14 0.929 . S
H38 C16 0.930 . S
H39 C17 0.929 . S
Nd40 C42 2.836 . S
Nd40 O60 2.500 1_556 S
Nd40 O61 2.492 . S
Nd40 O62 2.487 . S
Nd40 O63 2.682 . S
Nd40 O64 2.410 . S
Nd40 O69 2.414 1_556 S
Nd40 O71 2.424 . S
Nd41 C51 2.836 . S
Nd41 O63 2.414 1_554 S
Nd41 O65 2.424 . S
Nd41 O66 2.500 1_554 S
Nd41 O67 2.492 . S
Nd41 O68 2.487 . S
Nd41 O69 2.682 . S
Nd41 O70 2.410 . S
C42 Nd40 2.836 . S
C42 C43 1.498 . S
C42 O60 1.258 1_556 S
C42 O61 1.239 . S
C43 C42 1.498 . S
C43 C44 1.366 1_556 S
C43 C48 1.407 . S
C44 C43 1.366 1_554 S
C44 C45 1.392 . S
C44 H72 0.930 . S
C45 C44 1.392 . S
C45 C46 1.398 . S
C45 H73 0.929 . S
C46 C45 1.398 . S
C46 C47 1.352 1_554 S
C47 C46 1.352 1_556 S
C47 C48 1.384 . S
C47 H74 0.930 . S
C48 C43 1.407 . S
C48 C47 1.384 . S
C48 H75 0.929 . S
C49 O62 1.241 . S
C49 O63 1.273 . S
C50 O64 1.251 1_554 S
C50 O65 1.268 . S
C51 Nd41 2.836 . S
C51 C52 1.498 . S
C51 O66 1.258 1_554 S
C51 O67 1.239 . S
C52 C51 1.498 . S
C52 C53 1.366 1_554 S
C52 C57 1.407 . S
C53 C52 1.366 1_556 S
C53 C54 1.392 . S
C53 H76 0.930 . S
C54 C53 1.392 . S
C54 C55 1.398 1_656 S
C54 H77 0.929 . S
C55 C54 1.398 1_454 S
C55 C56 1.353 1_455 S
C56 C55 1.353 1_655 S
C56 C57 1.384 . S
C56 H78 0.930 1_655 S
C57 C52 1.407 . S
C57 C56 1.384 . S
C57 H79 0.929 . S
C58 O68 1.241 . S
C58 O69 1.273 . S
C59 O70 1.251 1_556 S
C59 O71 1.268 . S
O60 Nd40 2.500 1_554 S
O60 C42 1.258 1_554 S
O61 Nd40 2.492 . S
O61 C42 1.239 . S
O62 Nd40 2.487 . S
O62 C49 1.241 . S
O63 Nd40 2.682 . S
O63 Nd41 2.414 1_556 S
O63 C49 1.273 . S
O64 Nd40 2.410 . S
O64 C50 1.251 1_556 S
O65 Nd41 2.424 . S
O65 C50 1.268 . S
O66 Nd41 2.500 1_556 S
O66 C51 1.258 1_556 S
O67 Nd41 2.492 . S
O67 C51 1.239 . S
O68 Nd41 2.487 . S
O68 C58 1.241 . S
O69 Nd40 2.414 1_554 S
O69 Nd41 2.682 . S
O69 C58 1.273 . S
O70 Nd41 2.410 . S
O70 C59 1.251 1_554 S
O71 Nd40 2.424 . S
O71 C59 1.268 . S
H72 C44 0.930 . S
H73 C45 0.929 . S
H74 C47 0.930 . S
H75 C48 0.929 . S
H76 C53 0.930 . S
H77 C54 0.929 . S
H78 C56 0.930 1_455 S
H79 C57 0.929 . S
Nd80 C82 2.836 . S
Nd80 O100 2.500 1_556 S
Nd80 O101 2.492 . S
Nd80 O102 2.487 . S
Nd80 O103 2.682 1_565 S
Nd80 O104 2.410 1_565 S
Nd80 O109 2.414 1_566 S
Nd80 O111 2.424 . S
Nd81 C91 2.836 . S
Nd81 O103 2.414 1_554 S
Nd81 O105 2.424 . S
Nd81 O106 2.500 1_554 S
Nd81 O107 2.492 . S
Nd81 O108 2.487 . S
Nd81 O109 2.682 . S
Nd81 O110 2.410 . S
C82 Nd80 2.836 . S
C82 C83 1.498 . S
C82 O100 1.258 1_556 S
C82 O101 1.239 . S
C83 C82 1.498 . S
C83 C84 1.366 1_556 S
C83 C88 1.407 . S
C84 C83 1.366 1_554 S
C84 C85 1.392 . S
C84 H112 0.930 . S
C85 C84 1.392 . S
C85 C86 1.398 . S
C85 H113 0.929 . S
C86 C85 1.398 . S
C86 C87 1.352 1_554 S
C87 C86 1.352 1_556 S
C87 C88 1.384 . S
C87 H114 0.930 . S
C88 C83 1.407 . S
C88 C87 1.384 . S
C88 H115 0.929 . S
C89 O102 1.241 1_545 S
C89 O103 1.273 . S
C90 O104 1.251 1_554 S
C90 O105 1.268 . S
C91 Nd81 2.836 . S
C91 C92 1.498 . S
C91 O106 1.258 1_554 S
C91 O107 1.239 . S
C92 C91 1.498 . S
C92 C93 1.366 1_554 S
C92 C97 1.407 . S
C93 C92 1.366 1_556 S
C93 C94 1.392 . S
C93 H116 0.930 . S
C94 C93 1.392 . S
C94 C95 1.399 1_556 S
C94 H117 0.929 . S
C95 C94 1.399 1_554 S
C95 C96 1.352 . S
C96 C95 1.352 . S
C96 C97 1.384 . S
C96 H118 0.930 . S
C97 C92 1.407 . S
C97 C96 1.384 . S
C97 H119 0.929 . S
C98 O108 1.241 . S
C98 O109 1.273 . S
C99 O110 1.251 1_566 S
C99 O111 1.268 . S
O100 Nd80 2.500 1_554 S
O100 C82 1.258 1_554 S
O101 Nd80 2.492 . S
O101 C82 1.239 . S
O102 Nd80 2.487 . S
O102 C89 1.241 1_565 S
O103 Nd80 2.682 1_545 S
O103 Nd81 2.414 1_556 S
O103 C89 1.273 . S
O104 Nd80 2.410 1_545 S
O104 C90 1.251 1_556 S
O105 Nd81 2.424 . S
O105 C90 1.268 . S
O106 Nd81 2.500 1_556 S
O106 C91 1.258 1_556 S
O107 Nd81 2.492 . S
O107 C91 1.239 . S
O108 Nd81 2.487 . S
O108 C98 1.241 . S
O109 Nd80 2.414 1_544 S
O109 Nd81 2.682 . S
O109 C98 1.273 . S
O110 Nd81 2.410 . S
O110 C99 1.251 1_544 S
O111 Nd80 2.424 . S
O111 C99 1.268 . S
H112 C84 0.930 . S
H113 C85 0.929 . S
H114 C87 0.930 . S
H115 C88 0.929 . S
H116 C93 0.930 . S
H117 C94 0.929 . S
H118 C96 0.930 . S
H119 C97 0.929 . S
Nd120 C122 2.836 . S
Nd120 O140 2.500 . S
Nd120 O141 2.492 . S
Nd120 O142 2.487 . S
Nd120 O143 2.682 . S
Nd120 O144 2.410 . S
Nd120 O149 2.414 . S
Nd120 O151 2.424 . S
Nd121 C131 2.836 . S
Nd121 O143 2.414 . S
Nd121 O145 2.424 . S
Nd121 O146 2.500 . S
Nd121 O147 2.492 . S
Nd121 O148 2.487 . S
Nd121 O149 2.682 . S
Nd121 O150 2.410 . S
C122 Nd120 2.836 . S
C122 C123 1.498 . S
C122 O140 1.258 . S
C122 O141 1.239 . S
C123 C122 1.498 . S
C123 C124 1.366 . S
C123 C128 1.407 . S
C124 C123 1.366 . S
C124 C125 1.392 . S
C124 H152 0.930 . S
C125 C124 1.392 . S
C125 C126 1.398 . S
C125 H153 0.929 . S
C126 C125 1.398 . S
C126 C127 1.352 . S
C127 C126 1.352 . S
C127 C128 1.384 . S
C127 H154 0.930 . S
C128 C123 1.407 . S
C128 C127 1.384 . S
C128 H155 0.929 . S
C129 O142 1.241 . S
C129 O143 1.273 . S
C130 O144 1.251 . S
C130 O145 1.268 . S
C131 Nd121 2.836 . S
C131 C132 1.498 . S
C131 O146 1.258 . S
C131 O147 1.239 . S
C132 C131 1.498 . S
C132 C133 1.366 . S
C132 C137 1.407 . S
C133 C132 1.366 . S
C133 C134 1.392 . S
C133 H156 0.930 . S
C134 C133 1.392 . S
C134 C135 1.398 . S
C134 H157 0.929 . S
C135 C134 1.398 . S
C135 C136 1.352 . S
C136 C135 1.352 . S
C136 C137 1.384 . S
C136 H158 0.930 . S
C137 C132 1.407 . S
C137 C136 1.384 . S
C137 H159 0.929 . S
C138 O148 1.241 . S
C138 O149 1.273 . S
C139 O150 1.251 . S
C139 O151 1.268 . S
O140 Nd120 2.500 . S
O140 C122 1.258 . S
O141 Nd120 2.492 . S
O141 C122 1.239 . S
O142 Nd120 2.487 . S
O142 C129 1.241 . S
O143 Nd120 2.682 . S
O143 Nd121 2.414 . S
O143 C129 1.273 . S
O144 Nd120 2.410 . S
O144 C130 1.251 . S
O145 Nd121 2.424 . S
O145 C130 1.268 . S
O146 Nd121 2.500 . S
O146 C131 1.258 . S
O147 Nd121 2.492 . S
O147 C131 1.239 . S
O148 Nd121 2.487 . S
O148 C138 1.241 . S
O149 Nd120 2.414 . S
O149 Nd121 2.682 . S
O149 C138 1.273 . S
O150 Nd121 2.410 . S
O150 C139 1.251 . S
O151 Nd120 2.424 . S
O151 C139 1.268 . S
H152 C124 0.930 . S
H153 C125 0.929 . S
H154 C127 0.930 . S
H155 C128 0.929 . S
H156 C133 0.930 . S
H157 C134 0.929 . S
H158 C136 0.930 . S
H159 C137 0.929 . S
Nd160 C162 2.836 . S
Nd160 O180 2.500 . S
Nd160 O181 2.492 . S
Nd160 O182 2.487 . S
Nd160 O183 2.682 . S
Nd160 O184 2.410 . S
Nd160 O189 2.414 . S
Nd160 O191 2.424 . S
Nd161 C171 2.836 . S
Nd161 O183 2.414 . S
Nd161 O185 2.424 . S
Nd161 O186 2.500 . S
Nd161 O187 2.492 . S
Nd161 O188 2.487 . S
Nd161 O189 2.682 . S
Nd161 O190 2.410 . S
C162 Nd160 2.836 . S
C162 C163 1.498 . S
C162 O180 1.258 . S
C162 O181 1.239 . S
C163 C162 1.498 . S
C163 C164 1.366 . S
C163 C168 1.407 . S
C164 C163 1.366 . S
C164 C165 1.392 . S
C164 H192 0.930 . S
C165 C164 1.392 . S
C165 C166 1.398 . S
C165 H193 0.929 . S
C166 C165 1.398 . S
C166 C167 1.352 . S
C167 C166 1.352 . S
C167 C168 1.384 . S
C167 H194 0.930 . S
C168 C163 1.407 . S
C168 C167 1.384 . S
C168 H195 0.929 . S
C169 O182 1.241 . S
C169 O183 1.273 . S
C170 O184 1.251 . S
C170 O185 1.268 . S
C171 Nd161 2.836 . S
C171 C172 1.498 . S
C171 O186 1.258 . S
C171 O187 1.239 . S
C172 C171 1.498 . S
C172 C173 1.366 . S
C172 C177 1.407 . S
C173 C172 1.366 . S
C173 C174 1.392 . S
C173 H196 0.930 . S
C174 C173 1.392 . S
C174 C175 1.398 . S
C174 H197 0.929 . S
C175 C174 1.398 . S
C175 C176 1.352 . S
C176 C175 1.352 . S
C176 C177 1.384 . S
C176 H198 0.930 . S
C177 C172 1.407 . S
C177 C176 1.384 . S
C177 H199 0.929 . S
C178 O188 1.241 . S
C178 O189 1.273 . S
C179 O190 1.251 . S
C179 O191 1.268 . S
O180 Nd160 2.500 . S
O180 C162 1.258 . S
O181 Nd160 2.492 . S
O181 C162 1.239 . S
O182 Nd160 2.487 . S
O182 C169 1.241 . S
O183 Nd160 2.682 . S
O183 Nd161 2.414 . S
O183 C169 1.273 . S
O184 Nd160 2.410 . S
O184 C170 1.251 . S
O185 Nd161 2.424 . S
O185 C170 1.268 . S
O186 Nd161 2.500 . S
O186 C171 1.258 . S
O187 Nd161 2.492 . S
O187 C171 1.239 . S
O188 Nd161 2.487 . S
O188 C178 1.241 . S
O189 Nd160 2.414 . S
O189 Nd161 2.682 . S
O189 C178 1.273 . S
O190 Nd161 2.410 . S
O190 C179 1.251 . S
O191 Nd160 2.424 . S
O191 C179 1.268 . S
H192 C164 0.930 . S
H193 C165 0.929 . S
H194 C167 0.930 . S
H195 C168 0.929 . S
H196 C173 0.930 . S
H197 C174 0.929 . S
H198 C176 0.930 . S
H199 C177 0.929 . S
Nd200 C202 2.836 . S
Nd200 O220 2.500 . S
Nd200 O221 2.492 . S
Nd200 O222 2.487 . S
Nd200 O223 2.682 . S
Nd200 O224 2.410 . S
Nd200 O229 2.414 . S
Nd200 O231 2.424 . S
Nd201 C211 2.836 . S
Nd201 O223 2.414 . S
Nd201 O225 2.424 . S
Nd201 O226 2.500 . S
Nd201 O227 2.492 . S
Nd201 O228 2.487 . S
Nd201 O229 2.682 . S
Nd201 O230 2.410 . S
C202 Nd200 2.836 . S
C202 C203 1.498 . S
C202 O220 1.258 . S
C202 O221 1.239 . S
C203 C202 1.498 . S
C203 C204 1.366 . S
C203 C208 1.407 . S
C204 C203 1.366 . S
C204 C205 1.392 . S
C204 H232 0.930 . S
C205 C204 1.392 . S
C205 C206 1.398 . S
C205 H233 0.929 . S
C206 C205 1.398 . S
C206 C207 1.352 . S
C207 C206 1.352 . S
C207 C208 1.384 . S
C207 H234 0.930 . S
C208 C203 1.407 . S
C208 C207 1.384 . S
C208 H235 0.929 . S
C209 O222 1.241 . S
C209 O223 1.273 . S
C210 O224 1.251 . S
C210 O225 1.268 . S
C211 Nd201 2.836 . S
C211 C212 1.498 . S
C211 O226 1.258 . S
C211 O227 1.239 . S
C212 C211 1.498 . S
C212 C213 1.366 . S
C212 C217 1.407 . S
C213 C212 1.366 . S
C213 C214 1.392 . S
C213 H236 0.930 . S
C214 C213 1.392 . S
C214 C215 1.398 . S
C214 H237 0.929 . S
C215 C214 1.398 . S
C215 C216 1.352 . S
C216 C215 1.352 . S
C216 C217 1.384 . S
C216 H238 0.930 . S
C217 C212 1.407 . S
C217 C216 1.384 . S
C217 H239 0.929 . S
C218 O228 1.241 . S
C218 O229 1.273 . S
C219 O230 1.251 . S
C219 O231 1.268 . S
O220 Nd200 2.500 . S
O220 C202 1.258 . S
O221 Nd200 2.492 . S
O221 C202 1.239 . S
O222 Nd200 2.487 . S
O222 C209 1.241 . S
O223 Nd200 2.682 . S
O223 Nd201 2.414 . S
O223 C209 1.273 . S
O224 Nd200 2.410 . S
O224 C210 1.251 . S
O225 Nd201 2.424 . S
O225 C210 1.268 . S
O226 Nd201 2.500 . S
O226 C211 1.258 . S
O227 Nd201 2.492 . S
O227 C211 1.239 . S
O228 Nd201 2.487 . S
O228 C218 1.241 . S
O229 Nd200 2.414 . S
O229 Nd201 2.682 . S
O229 C218 1.273 . S
O230 Nd201 2.410 . S
O230 C219 1.251 . S
O231 Nd200 2.424 . S
O231 C219 1.268 . S
H232 C204 0.930 . S
H233 C205 0.929 . S
H234 C207 0.930 . S
H235 C208 0.929 . S
H236 C213 0.930 . S
H237 C214 0.929 . S
H238 C216 0.930 . S
H239 C217 0.929 . S
Nd240 C242 2.836 . S
Nd240 O260 2.500 . S
Nd240 O261 2.492 . S
Nd240 O262 2.487 . S
Nd240 O263 2.682 . S
Nd240 O264 2.410 . S
Nd240 O269 2.414 . S
Nd240 O271 2.424 . S
Nd241 C251 2.836 . S
Nd241 O263 2.414 . S
Nd241 O265 2.424 . S
Nd241 O266 2.500 . S
Nd241 O267 2.492 . S
Nd241 O268 2.487 . S
Nd241 O269 2.682 . S
Nd241 O270 2.410 . S
C242 Nd240 2.836 . S
C242 C243 1.498 . S
C242 O260 1.258 . S
C242 O261 1.239 . S
C243 C242 1.498 . S
C243 C244 1.366 . S
C243 C248 1.407 . S
C244 C243 1.366 . S
C244 C245 1.392 . S
C244 H272 0.930 . S
C245 C244 1.392 . S
C245 C246 1.398 1_565 S
C245 H273 0.929 . S
C246 C245 1.398 1_545 S
C246 C247 1.352 1_545 S
C247 C246 1.352 1_565 S
C247 C248 1.384 . S
C247 H274 0.930 1_565 S
C248 C243 1.407 . S
C248 C247 1.384 . S
C248 H275 0.929 . S
C249 O262 1.241 . S
C249 O263 1.273 . S
C250 O264 1.251 . S
C250 O265 1.268 . S
C251 Nd241 2.836 . S
C251 C252 1.498 . S
C251 O266 1.258 . S
C251 O267 1.239 . S
C252 C251 1.498 . S
C252 C253 1.366 . S
C252 C257 1.407 . S
C253 C252 1.366 . S
C253 C254 1.392 . S
C253 H276 0.930 . S
C254 C253 1.392 . S
C254 C255 1.398 . S
C254 H277 0.929 . S
C255 C254 1.398 . S
C255 C256 1.352 . S
C256 C255 1.352 . S
C256 C257 1.384 . S
C256 H278 0.930 . S
C257 C252 1.407 . S
C257 C256 1.384 . S
C257 H279 0.929 . S
C258 O268 1.241 . S
C258 O269 1.273 . S
C259 O270 1.251 . S
C259 O271 1.268 . S
O260 Nd240 2.500 . S
O260 C242 1.258 . S
O261 Nd240 2.492 . S
O261 C242 1.239 . S
O262 Nd240 2.487 . S
O262 C249 1.241 . S
O263 Nd240 2.682 . S
O263 Nd241 2.414 . S
O263 C249 1.273 . S
O264 Nd240 2.410 . S
O264 C250 1.251 . S
O265 Nd241 2.424 . S
O265 C250 1.268 . S
O266 Nd241 2.500 . S
O266 C251 1.258 . S
O267 Nd241 2.492 . S
O267 C251 1.239 . S
O268 Nd241 2.487 . S
O268 C258 1.241 . S
O269 Nd240 2.414 . S
O269 Nd241 2.682 . S
O269 C258 1.273 . S
O270 Nd241 2.410 . S
O270 C259 1.251 . S
O271 Nd240 2.424 . S
O271 C259 1.268 . S
H272 C244 0.930 . S
H273 C245 0.929 . S
H274 C247 0.930 1_545 S
H275 C248 0.929 . S
H276 C253 0.930 . S
H277 C254 0.929 . S
H278 C256 0.930 . S
H279 C257 0.929 . S
Nd280 C282 2.836 . S
Nd280 O300 2.500 . S
Nd280 O301 2.492 . S
Nd280 O302 2.487 . S
Nd280 O303 2.682 . S
Nd280 O304 2.410 . S
Nd280 O309 2.414 . S
Nd280 O311 2.424 . S
Nd281 C291 2.836 . S
Nd281 O303 2.414 . S
Nd281 O305 2.424 . S
Nd281 O306 2.500 . S
Nd281 O307 2.492 . S
Nd281 O308 2.487 . S
Nd281 O309 2.682 . S
Nd281 O310 2.410 . S
C282 Nd280 2.836 . S
C282 C283 1.498 . S
C282 O300 1.258 . S
C282 O301 1.239 . S
C283 C282 1.498 . S
C283 C284 1.366 . S
C283 C288 1.407 . S
C284 C283 1.366 . S
C284 C285 1.392 . S
C284 H312 0.930 . S
C285 C284 1.392 . S
C285 C286 1.398 . S
C285 H313 0.929 . S
C286 C285 1.398 . S
C286 C287 1.352 . S
C287 C286 1.352 . S
C287 C288 1.384 . S
C287 H314 0.930 . S
C288 C283 1.407 . S
C288 C287 1.384 . S
C288 H315 0.929 . S
C289 O302 1.241 . S
C289 O303 1.273 . S
C290 O304 1.251 . S
C290 O305 1.268 . S
C291 Nd281 2.836 . S
C291 C292 1.498 . S
C291 O306 1.258 . S
C291 O307 1.239 . S
C292 C291 1.498 . S
C292 C293 1.366 . S
C292 C297 1.407 . S
C293 C292 1.366 . S
C293 C294 1.392 . S
C293 H316 0.930 . S
C294 C293 1.392 . S
C294 C295 1.398 . S
C294 H317 0.929 . S
C295 C294 1.398 . S
C295 C296 1.352 . S
C296 C295 1.352 . S
C296 C297 1.384 . S
C296 H318 0.930 . S
C297 C292 1.407 . S
C297 C296 1.384 . S
C297 H319 0.929 . S
C298 O308 1.241 . S
C298 O309 1.273 . S
C299 O310 1.251 . S
C299 O311 1.268 . S
O300 Nd280 2.500 . S
O300 C282 1.258 . S
O301 Nd280 2.492 . S
O301 C282 1.239 . S
O302 Nd280 2.487 . S
O302 C289 1.241 . S
O303 Nd280 2.682 . S
O303 Nd281 2.414 . S
O303 C289 1.273 . S
O304 Nd280 2.410 . S
O304 C290 1.251 . S
O305 Nd281 2.424 . S
O305 C290 1.268 . S
O306 Nd281 2.500 . S
O306 C291 1.258 . S
O307 Nd281 2.492 . S
O307 C291 1.239 . S
O308 Nd281 2.487 . S
O308 C298 1.241 . S
O309 Nd280 2.414 . S
O309 Nd281 2.682 . S
O309 C298 1.273 . S
O310 Nd281 2.410 . S
O310 C299 1.251 . S
O311 Nd280 2.424 . S
O311 C299 1.268 . S
H312 C284 0.930 . S
H313 C285 0.929 . S
H314 C287 0.930 . S
H315 C288 0.929 . S
H316 C293 0.930 . S
H317 C294 0.929 . S
H318 C296 0.930 . S
H319 C297 0.929 . S
Nd320 C322 2.836 . S
Nd320 O340 2.500 . S
Nd320 O341 2.492 . S
Nd320 O342 2.487 . S
Nd320 O343 2.682 . S
Nd320 O344 2.410 . S
Nd320 O349 2.414 . S
Nd320 O351 2.424 . S
Nd321 C331 2.836 . S
Nd321 O343 2.414 . S
Nd321 O345 2.424 . S
Nd321 O346 2.500 . S
Nd321 O347 2.492 . S
Nd321 O348 2.487 . S
Nd321 O349 2.682 . S
Nd321 O350 2.410 . S
C322 Nd320 2.836 . S
C322 C323 1.498 . S
C322 O340 1.258 . S
C322 O341 1.239 . S
C323 C322 1.498 . S
C323 C324 1.366 . S
C323 C328 1.407 . S
C324 C323 1.366 . S
C324 C325 1.392 . S
C324 H352 0.930 . S
C325 C324 1.392 . S
C325 C326 1.398 . S
C325 H353 0.929 . S
C326 C325 1.398 . S
C326 C327 1.352 . S
C327 C326 1.352 . S
C327 C328 1.384 . S
C327 H354 0.930 . S
C328 C323 1.407 . S
C328 C327 1.384 . S
C328 H355 0.929 . S
C329 O342 1.241 . S
C329 O343 1.273 . S
C330 O344 1.251 . S
C330 O345 1.268 . S
C331 Nd321 2.836 . S
C331 C332 1.498 . S
C331 O346 1.258 . S
C331 O347 1.239 . S
C332 C331 1.498 . S
C332 C333 1.366 . S
C332 C337 1.407 . S
C333 C332 1.366 . S
C333 C334 1.392 . S
C333 H356 0.930 . S
C334 C333 1.392 . S
C334 C335 1.398 . S
C334 H357 0.929 . S
C335 C334 1.398 . S
C335 C336 1.352 . S
C336 C335 1.352 . S
C336 C337 1.384 . S
C336 H358 0.930 . S
C337 C332 1.407 . S
C337 C336 1.384 . S
C337 H359 0.929 . S
C338 O348 1.241 . S
C338 O349 1.273 . S
C339 O350 1.251 . S
C339 O351 1.268 . S
O340 Nd320 2.500 . S
O340 C322 1.258 . S
O341 Nd320 2.492 . S
O341 C322 1.239 . S
O342 Nd320 2.487 . S
O342 C329 1.241 . S
O343 Nd320 2.682 . S
O343 Nd321 2.414 . S
O343 C329 1.273 . S
O344 Nd320 2.410 . S
O344 C330 1.251 . S
O345 Nd321 2.424 . S
O345 C330 1.268 . S
O346 Nd321 2.500 . S
O346 C331 1.258 . S
O347 Nd321 2.492 . S
O347 C331 1.239 . S
O348 Nd321 2.487 . S
O348 C338 1.241 . S
O349 Nd320 2.414 . S
O349 Nd321 2.682 . S
O349 C338 1.273 . S
O350 Nd321 2.410 . S
O350 C339 1.251 . S
O351 Nd320 2.424 . S
O351 C339 1.268 . S
H352 C324 0.930 . S
H353 C325 0.929 . S
H354 C327 0.930 . S
H355 C328 0.929 . S
H356 C333 0.930 . S
H357 C334 0.929 . S
H358 C336 0.930 . S
H359 C337 0.929 . S
C360 C361 1.387 . S
C360 H364 0.950 . S
C360 C369 1.390 . S
C361 C360 1.387 . S
C361 C363 1.387 . S
H362 C369 0.950 . S
C363 C361 1.387 . S
C363 C365 1.390 . S
C363 H367 0.950 1_556 S
H364 C360 0.950 . S
C365 C363 1.390 . S
C365 C366 1.387 . S
C365 H368 0.950 . S
C366 C365 1.387 . S
C366 C369 1.387 . S
H367 C363 0.950 1_554 S
H368 C365 0.950 . S
C369 C360 1.390 . S
C369 H362 0.950 . S
C369 C366 1.387 . S
C370 C371 1.387 . S
C370 H374 0.950 1_556 S
C370 C379 1.390 . S
C371 C370 1.387 . S
C371 C373 1.387 . S
H372 C379 0.950 . S
C373 C371 1.387 . S
C373 C375 1.390 . S
C373 H377 0.950 . S
H374 C370 0.950 1_554 S
C375 C373 1.390 . S
C375 C376 1.387 . S
C375 H378 0.950 . S
C376 C375 1.387 . S
C376 C379 1.387 . S
H377 C373 0.950 . S
H378 C375 0.950 . S
C379 C370 1.390 . S
C379 H372 0.950 . S
C379 C376 1.387 . S
C380 C381 1.387 . S
C380 H384 0.950 . S
C380 C389 1.390 . S
C381 C380 1.387 . S
C381 C383 1.387 . S
H382 C389 0.950 . S
C383 C381 1.387 . S
C383 C385 1.390 . S
C383 H387 0.950 1_556 S
H384 C380 0.950 . S
C385 C383 1.390 . S
C385 C386 1.387 . S
C385 H388 0.950 . S
C386 C385 1.387 . S
C386 C389 1.387 . S
H387 C383 0.950 1_554 S
H388 C385 0.950 . S
C389 C380 1.390 . S
C389 H382 0.950 . S
C389 C386 1.387 . S
C390 C391 1.387 . S
C390 H394 0.950 . S
C390 C399 1.390 . S
C391 C390 1.387 . S
C391 C393 1.387 . S
H392 C399 0.950 . S
C393 C391 1.387 . S
C393 C395 1.390 . S
C393 H397 0.950 . S
H394 C390 0.950 . S
C395 C393 1.390 . S
C395 C396 1.387 . S
C395 H398 0.950 1_554 S
C396 C395 1.387 . S
C396 C399 1.387 . S
H397 C393 0.950 . S
H398 C395 0.950 1_556 S
C399 C390 1.390 . S
C399 H392 0.950 . S
C399 C396 1.387 . S
C400 C401 1.387 . S
C400 H404 0.950 . S
C400 C409 1.390 . S
C401 C400 1.387 . S
C401 C403 1.387 . S
H402 C409 0.950 . S
C403 C401 1.387 . S
C403 C405 1.390 . S
C403 H407 0.950 . S
H404 C400 0.950 . S
C405 C403 1.390 . S
C405 C406 1.387 . S
C405 H408 0.950 . S
C406 C405 1.387 . S
C406 C409 1.387 . S
H407 C403 0.950 . S
H408 C405 0.950 . S
C409 C400 1.390 . S
C409 H402 0.950 . S
C409 C406 1.387 . S
C410 C411 1.387 . S
C410 H414 0.950 . S
C410 C419 1.390 . S
C411 C410 1.387 . S
C411 C413 1.387 . S
H412 C419 0.950 . S
C413 C411 1.387 . S
C413 C415 1.390 . S
C413 H417 0.950 . S
H414 C410 0.950 . S
C415 C413 1.390 . S
C415 C416 1.387 . S
C415 H418 0.950 . S
C416 C415 1.387 . S
C416 C419 1.387 . S
H417 C413 0.950 . S
H418 C415 0.950 . S
C419 C410 1.390 . S
C419 H412 0.950 . S
C419 C416 1.387 . S
C420 C421 1.387 . S
C420 H424 0.950 . S
C420 C429 1.390 . S
C421 C420 1.387 . S
C421 C423 1.387 . S
H422 C429 0.950 . S
C423 C421 1.387 . S
C423 C425 1.390 . S
C423 H427 0.950 . S
H424 C420 0.950 . S
C425 C423 1.390 . S
C425 C426 1.387 . S
C425 H428 0.950 . S
C426 C425 1.387 . S
C426 C429 1.387 . S
H427 C423 0.950 . S
H428 C425 0.950 . S
C429 C420 1.390 . S
C429 H422 0.950 . S
C429 C426 1.387 . S
C430 C431 1.387 . S
C430 H434 0.950 . S
C430 C439 1.390 . S
C431 C430 1.387 . S
C431 C433 1.387 . S
H432 C439 0.950 . S
C433 C431 1.387 . S
C433 C435 1.390 . S
C433 H437 0.950 . S
H434 C430 0.950 . S
C435 C433 1.390 . S
C435 C436 1.387 . S
C435 H438 0.950 . S
C436 C435 1.387 . S
C436 C439 1.387 . S
H437 C433 0.950 . S
H438 C435 0.950 . S
C439 C430 1.390 . S
C439 H432 0.950 . S
C439 C436 1.387 . S
C440 C441 1.387 . S
C440 H444 0.950 . S
C440 C449 1.390 . S
C441 C440 1.387 . S
C441 C443 1.387 . S
H442 C449 0.950 . S
C443 C441 1.387 . S
C443 C445 1.390 . S
C443 H447 0.950 . S
H444 C440 0.950 . S
C445 C443 1.390 . S
C445 C446 1.387 . S
C445 H448 0.950 . S
C446 C445 1.387 . S
C446 C449 1.387 . S
H447 C443 0.950 . S
H448 C445 0.950 . S
C449 C440 1.390 . S
C449 H442 0.950 . S
C449 C446 1.387 . S
C450 C451 1.387 1_554 S
C450 H454 0.950 . S
C450 C459 1.390 . S
C451 C450 1.387 1_556 S
C451 C453 1.387 . S
H452 C459 0.950 . S
C453 C451 1.387 . S
C453 C455 1.390 . S
C453 H457 0.950 . S
H454 C450 0.950 . S
C455 C453 1.390 . S
C455 C456 1.387 . S
C455 H458 0.950 . S
C456 C455 1.387 . S
C456 C459 1.387 1_556 S
H457 C453 0.950 . S
H458 C455 0.950 . S
C459 C450 1.390 . S
C459 H452 0.950 . S
C459 C456 1.387 1_554 S
C460 C461 1.387 1_554 S
C460 H464 0.950 . S
C460 C469 1.390 . S
C461 C460 1.387 1_556 S
C461 C463 1.387 . S
H462 C469 0.950 . S
C463 C461 1.387 . S
C463 C465 1.390 . S
C463 H467 0.950 . S
H464 C460 0.950 . S
C465 C463 1.390 . S
C465 C466 1.387 . S
C465 H468 0.950 . S
C466 C465 1.387 . S
C466 C469 1.387 1_556 S
H467 C463 0.950 . S
H468 C465 0.950 . S
C469 C460 1.390 . S
C469 H462 0.950 . S
C469 C466 1.387 1_554 S
C470 C471 1.387 . S
C470 H474 0.950 . S
C470 C479 1.390 . S
C471 C470 1.387 . S
C471 C473 1.387 1_556 S
H472 C479 0.950 . S
C473 C471 1.387 1_554 S
C473 C475 1.390 . S
C473 H477 0.950 . S
H474 C470 0.950 . S
C475 C473 1.390 . S
C475 C476 1.387 1_554 S
C475 H478 0.950 . S
C476 C475 1.387 1_556 S
C476 C479 1.387 . S
H477 C473 0.950 . S
H478 C475 0.950 . S
C479 C470 1.390 . S
C479 H472 0.950 . S
C479 C476 1.387 . S
C480 C481 1.387 . S
C480 H484 0.950 . S
C480 C489 1.390 . S
C481 C480 1.387 . S
C481 C483 1.387 . S
H482 C489 0.950 . S
C483 C481 1.387 . S
C483 C485 1.390 . S
C483 H487 0.950 . S
H484 C480 0.950 . S
C485 C483 1.390 . S
C485 C486 1.387 . S
C485 H488 0.950 . S
C486 C485 1.387 . S
C486 C489 1.387 . S
H487 C483 0.950 . S
H488 C485 0.950 . S
C489 C480 1.390 . S
C489 H482 0.950 . S
C489 C486 1.387 . S
C490 C491 1.387 . S
C490 H494 0.950 . S
C490 C499 1.390 . S
C491 C490 1.387 . S
C491 C493 1.387 . S
H492 C499 0.950 . S
C493 C491 1.387 . S
C493 C495 1.390 . S
C493 H497 0.950 . S
H494 C490 0.950 . S
C495 C493 1.390 . S
C495 C496 1.387 . S
C495 H498 0.950 . S
C496 C495 1.387 . S
C496 C499 1.387 . S
H497 C493 0.950 . S
H498 C495 0.950 . S
C499 C490 1.390 . S
C499 H492 0.950 . S
C499 C496 1.387 . S
C500 C501 1.387 . S
C500 H504 0.950 . S
C500 C509 1.390 . S
C501 C500 1.387 . S
C501 C503 1.387 . S
H502 C509 0.950 . S
C503 C501 1.387 . S
C503 C505 1.390 . S
C503 H507 0.950 . S
H504 C500 0.950 . S
C505 C503 1.390 . S
C505 C506 1.387 . S
C505 H508 0.950 . S
C506 C505 1.387 . S
C506 C509 1.387 . S
H507 C503 0.950 . S
H508 C505 0.950 . S
C509 C500 1.390 . S
C509 H502 0.950 . S
C509 C506 1.387 . S
C510 C511 1.387 . S
C510 H514 0.950 . S
C510 C519 1.390 . S
C511 C510 1.387 . S
C511 C513 1.387 . S
H512 C519 0.950 . S
C513 C511 1.387 . S
C513 C515 1.390 . S
C513 H517 0.950 . S
H514 C510 0.950 . S
C515 C513 1.390 . S
C515 C516 1.387 . S
C515 H518 0.950 . S
C516 C515 1.387 . S
C516 C519 1.387 . S
H517 C513 0.950 . S
H518 C515 0.950 . S
C519 C510 1.390 . S
C519 H512 0.950 . S
C519 C516 1.387 . S
C520 C521 1.387 . S
C520 H524 0.950 . S
C520 C529 1.390 . S
C521 C520 1.387 . S
C521 C523 1.387 . S
H522 C529 0.950 . S
C523 C521 1.387 . S
C523 C525 1.390 . S
C523 H527 0.950 . S
H524 C520 0.950 . S
C525 C523 1.390 . S
C525 C526 1.387 . S
C525 H528 0.950 . S
C526 C525 1.387 . S
C526 C529 1.387 . S
H527 C523 0.950 . S
H528 C525 0.950 . S
C529 C520 1.390 . S
C529 H522 0.950 . S
C529 C526 1.387 . S
C530 C531 1.387 . S
C530 H534 0.950 . S
C530 C539 1.390 . S
C531 C530 1.387 . S
C531 C533 1.387 . S
H532 C539 0.950 . S
C533 C531 1.387 . S
C533 C535 1.390 . S
C533 H537 0.950 . S
H534 C530 0.950 . S
C535 C533 1.390 . S
C535 C536 1.387 . S
C535 H538 0.950 . S
C536 C535 1.387 . S
C536 C539 1.387 . S
H537 C533 0.950 . S
H538 C535 0.950 . S
C539 C530 1.390 . S
C539 H532 0.950 . S
C539 C536 1.387 . S
C540 C541 1.387 1_655 S
C540 H544 0.950 . S
C540 C549 1.390 . S
C541 C540 1.387 1_455 S
C541 C543 1.387 . S
H542 C549 0.950 . S
C543 C541 1.387 . S
C543 C545 1.390 . S
C543 H547 0.950 . S
H544 C540 0.950 . S
C545 C543 1.390 . S
C545 C546 1.387 . S
C545 H548 0.950 . S
C546 C545 1.387 . S
C546 C549 1.387 1_455 S
H547 C543 0.950 . S
H548 C545 0.950 . S
C549 C540 1.390 . S
C549 H542 0.950 . S
C549 C546 1.387 1_655 S
C550 C551 1.387 . S
C550 H554 0.950 . S
C550 C559 1.390 . S
C551 C550 1.387 . S
C551 C553 1.387 . S
H552 C559 0.950 . S
C553 C551 1.387 . S
C553 C555 1.390 . S
C553 H557 0.950 . S
H554 C550 0.950 . S
C555 C553 1.390 . S
C555 C556 1.387 . S
C555 H558 0.950 . S
C556 C555 1.387 . S
C556 C559 1.387 . S
H557 C553 0.950 . S
H558 C555 0.950 . S
C559 C550 1.390 . S
C559 H552 0.950 . S
C559 C556 1.387 . S
C560 C561 1.387 . S
C560 H564 0.950 . S
C560 C569 1.390 . S
C561 C560 1.387 . S
C561 C563 1.387 1_545 S
H562 C569 0.950 . S
C563 C561 1.387 1_565 S
C563 C565 1.390 . S
C563 H567 0.950 . S
H564 C560 0.950 . S
C565 C563 1.390 . S
C565 C566 1.387 1_565 S
C565 H568 0.950 . S
C566 C565 1.387 1_545 S
C566 C569 1.387 . S
H567 C563 0.950 . S
H568 C565 0.950 . S
C569 C560 1.390 . S
C569 H562 0.950 . S
C569 C566 1.387 . S
C570 C571 1.387 . S
C570 H574 0.950 . S
C570 C579 1.390 . S
C571 C570 1.387 . S
C571 C573 1.387 . S
H572 C579 0.950 . S
C573 C571 1.387 . S
C573 C575 1.390 . S
C573 H577 0.950 . S
H574 C570 0.950 . S
C575 C573 1.390 . S
C575 C576 1.387 . S
C575 H578 0.950 . S
C576 C575 1.387 . S
C576 C579 1.387 . S
H577 C573 0.950 . S
H578 C575 0.950 . S
C579 C570 1.390 . S
C579 H572 0.950 . S
C579 C576 1.387 . S
C580 C581 1.387 . S
C580 H584 0.950 . S
C580 C589 1.390 . S
C581 C580 1.387 . S
C581 C583 1.387 . S
H582 C589 0.950 . S
C583 C581 1.387 . S
C583 C585 1.390 . S
C583 H587 0.950 . S
H584 C580 0.950 . S
C585 C583 1.390 . S
C585 C586 1.387 . S
C585 H588 0.950 . S
C586 C585 1.387 . S
C586 C589 1.387 . S
H587 C583 0.950 . S
H588 C585 0.950 . S
C589 C580 1.390 . S
C589 H582 0.950 . S
C589 C586 1.387 . S
C590 C591 1.387 . S
C590 H594 0.950 . S
C590 C599 1.390 . S
C591 C590 1.387 . S
C591 C593 1.387 . S
H592 C599 0.950 . S
C593 C591 1.387 . S
C593 C595 1.390 . S
C593 H597 0.950 . S
H594 C590 0.950 . S
C595 C593 1.390 . S
C595 C596 1.387 . S
C595 H598 0.950 . S
C596 C595 1.387 . S
C596 C599 1.387 . S
H597 C593 0.950 . S
H598 C595 0.950 . S
C599 C590 1.390 . S
C599 H592 0.950 . S
C599 C596 1.387 . S
C600 C601 1.387 . S
C600 H604 0.950 . S
C600 C609 1.390 . S
C601 C600 1.387 . S
C601 C603 1.387 . S
H602 C609 0.950 . S
C603 C601 1.387 . S
C603 C605 1.390 . S
C603 H607 0.950 . S
H604 C600 0.950 . S
C605 C603 1.390 . S
C605 C606 1.387 . S
C605 H608 0.950 . S
C606 C605 1.387 . S
C606 C609 1.387 . S
H607 C603 0.950 . S
H608 C605 0.950 . S
C609 C600 1.390 . S
C609 H602 0.950 . S
C609 C606 1.387 . S
C610 C611 1.387 . S
C610 H614 0.950 . S
C610 C619 1.390 . S
C611 C610 1.387 . S
C611 C613 1.387 . S
H612 C619 0.950 . S
C613 C611 1.387 . S
C613 C615 1.390 . S
C613 H617 0.950 . S
H614 C610 0.950 . S
C615 C613 1.390 . S
C615 C616 1.387 . S
C615 H618 0.950 . S
C616 C615 1.387 . S
C616 C619 1.387 . S
H617 C613 0.950 . S
H618 C615 0.950 . S
C619 C610 1.390 . S
C619 H612 0.950 . S
C619 C616 1.387 . S
C620 C621 1.387 . S
C620 H624 0.950 . S
C620 C629 1.390 . S
C621 C620 1.387 . S
C621 C623 1.387 . S
H622 C629 0.950 . S
C623 C621 1.387 . S
C623 C625 1.390 . S
C623 H627 0.950 . S
H624 C620 0.950 . S
C625 C623 1.390 . S
C625 C626 1.387 . S
C625 H628 0.950 . S
C626 C625 1.387 . S
C626 C629 1.387 . S
H627 C623 0.950 . S
H628 C625 0.950 . S
C629 C620 1.390 . S
C629 H622 0.950 . S
C629 C626 1.387 . S
C361 C6 1.947 1_556 S
C366 C290 2.029 . S
C371 C46 1.945 1_556 S
C376 C330 2.027 . S
C381 C86 1.945 1_556 S
C386 C250 2.028 . S
C391 C166 1.946 . S
C396 C90 2.028 . S
C401 C206 1.947 . S
C406 C10 2.029 . S
C411 C50 2.029 . S
C416 C126 1.948 . S
C421 C286 1.946 1_655 S
C426 C210 2.028 . S
C431 C326 1.947 . S
C436 C130 2.029 . S
C441 C170 2.027 . S
C446 C246 1.945 . S
C451 C95 1.652 1_556 S
C456 C19 1.642 . S
C461 C59 1.642 . S
C466 C15 1.652 1_566 S
C471 C55 1.651 1_556 S
C476 C99 1.642 . S
C481 C139 1.642 . S
C486 C215 1.652 . S
C491 C135 1.651 . S
C496 C179 1.643 . S
C501 C175 1.651 . S
C506 C219 1.643 . S
C511 C335 1.652 . S
C516 C259 1.642 . S
C521 C299 1.642 . S
C526 C255 1.651 . S
C531 C339 1.643 . S
C536 C295 1.651 . S
C541 C9 1.075 . S
C546 C18 1.075 . S
C551 C49 1.071 . S
C556 C58 1.071 . S
C561 C89 1.075 . S
C566 C98 1.075 . S
C571 C138 1.071 . S
C576 C129 1.071 1_556 S
C581 C178 1.071 . S
C586 C169 1.071 1_556 S
C591 C218 1.076 . S
C596 C209 1.076 1_556 S
C601 C249 1.071 . S
C606 C258 1.071 1_554 S
C611 C298 1.076 1_554 S
C616 C289 1.076 . S
C621 C329 1.071 . S
C626 C338 1.071 1_554 S
