# Generated by pormake.
# Topology nbo-a, (3)-cn, num edge types: 1
# Building blocks:
#     Node 0, Type 0, BuildingBlock: OLANEW_clean_sbu_2, # of connection points: 3
#     Node 1, Type 0, BuildingBlock: OLANEW_clean_sbu_2, # of connection points: 3
#     Node 2, Type 0, BuildingBlock: OLANEW_clean_sbu_2, # of connection points: 3
#     Node 3, Type 0, BuildingBlock: OLANEW_clean_sbu_2, # of connection points: 3
#     Node 4, Type 0, BuildingBlock: OLANEW_clean_sbu_2, # of connection points: 3
#     Node 5, Type 0, BuildingBlock: OLANEW_clean_sbu_2, # of connection points: 3
#     Node 6, Type 0, BuildingBlock: OLANEW_clean_sbu_2, # of connection points: 3
#     Node 7, Type 0, BuildingBlock: OLANEW_clean_sbu_2, # of connection points: 3
#     Node 8, Type 0, BuildingBlock: OLANEW_clean_sbu_2, # of connection points: 3
#     Node 9, Type 0, BuildingBlock: OLANEW_clean_sbu_2, # of connection points: 3
#     Node 10, Type 0, BuildingBlock: OLANEW_clean_sbu_2, # of connection points: 3
#     Node 11, Type 0, BuildingBlock: OLANEW_clean_sbu_2, # of connection points: 3
#     Node 12, Type 0, BuildingBlock: OLANEW_clean_sbu_2, # of connection points: 3
#     Node 13, Type 0, BuildingBlock: OLANEW_clean_sbu_2, # of connection points: 3
#     Node 14, Type 0, BuildingBlock: OLANEW_clean_sbu_2, # of connection points: 3
#     Node 15, Type 0, BuildingBlock: OLANEW_clean_sbu_2, # of connection points: 3
#     Node 16, Type 0, BuildingBlock: OLANEW_clean_sbu_2, # of connection points: 3
#     Node 17, Type 0, BuildingBlock: OLANEW_clean_sbu_2, # of connection points: 3
#     Node 18, Type 0, BuildingBlock: OLANEW_clean_sbu_2, # of connection points: 3
#     Node 19, Type 0, BuildingBlock: OLANEW_clean_sbu_2, # of connection points: 3
#     Node 20, Type 0, BuildingBlock: OLANEW_clean_sbu_2, # of connection points: 3
#     Node 21, Type 0, BuildingBlock: OLANEW_clean_sbu_2, # of connection points: 3
#     Node 22, Type 0, BuildingBlock: OLANEW_clean_sbu_2, # of connection points: 3
#     Node 23, Type 0, BuildingBlock: OLANEW_clean_sbu_2, # of connection points: 3
#     Edge 24, Type (0, 0), BuildingBlock: UVAHIK_clean_linker_0, # of connection points: 2
#     Edge 25, Type (0, 0), BuildingBlock: UVAHIK_clean_linker_0, # of connection points: 2
#     Edge 26, Type (0, 0), BuildingBlock: UVAHIK_clean_linker_0, # of connection points: 2
#     Edge 27, Type (0, 0), BuildingBlock: UVAHIK_clean_linker_0, # of connection points: 2
#     Edge 28, Type (0, 0), BuildingBlock: UVAHIK_clean_linker_0, # of connection points: 2
#     Edge 29, Type (0, 0), BuildingBlock: UVAHIK_clean_linker_0, # of connection points: 2
#     Edge 30, Type (0, 0), BuildingBlock: UVAHIK_clean_linker_0, # of connection points: 2
#     Edge 31, Type (0, 0), BuildingBlock: UVAHIK_clean_linker_0, # of connection points: 2
#     Edge 32, Type (0, 0), BuildingBlock: UVAHIK_clean_linker_0, # of connection points: 2
#     Edge 33, Type (0, 0), BuildingBlock: UVAHIK_clean_linker_0, # of connection points: 2
#     Edge 34, Type (0, 0), BuildingBlock: UVAHIK_clean_linker_0, # of connection points: 2
#     Edge 35, Type (0, 0), BuildingBlock: UVAHIK_clean_linker_0, # of connection points: 2
#     Edge 36, Type (0, 0), BuildingBlock: UVAHIK_clean_linker_0, # of connection points: 2
#     Edge 37, Type (0, 0), BuildingBlock: UVAHIK_clean_linker_0, # of connection points: 2
#     Edge 38, Type (0, 0), BuildingBlock: UVAHIK_clean_linker_0, # of connection points: 2
#     Edge 39, Type (0, 0), BuildingBlock: UVAHIK_clean_linker_0, # of connection points: 2
#     Edge 40, Type (0, 0), BuildingBlock: UVAHIK_clean_linker_0, # of connection points: 2
#     Edge 41, Type (0, 0), BuildingBlock: UVAHIK_clean_linker_0, # of connection points: 2
#     Edge 42, Type (0, 0), BuildingBlock: UVAHIK_clean_linker_0, # of connection points: 2
#     Edge 43, Type (0, 0), BuildingBlock: UVAHIK_clean_linker_0, # of connection points: 2
#     Edge 44, Type (0, 0), BuildingBlock: UVAHIK_clean_linker_0, # of connection points: 2
#     Edge 45, Type (0, 0), BuildingBlock: UVAHIK_clean_linker_0, # of connection points: 2
#     Edge 46, Type (0, 0), BuildingBlock: UVAHIK_clean_linker_0, # of connection points: 2
#     Edge 47, Type (0, 0), BuildingBlock: UVAHIK_clean_linker_0, # of connection points: 2
#     Edge 48, Type (0, 0), BuildingBlock: UVAHIK_clean_linker_0, # of connection points: 2
#     Edge 49, Type (0, 0), BuildingBlock: UVAHIK_clean_linker_0, # of connection points: 2
#     Edge 50, Type (0, 0), BuildingBlock: UVAHIK_clean_linker_0, # of connection points: 2
#     Edge 51, Type (0, 0), BuildingBlock: UVAHIK_clean_linker_0, # of connection points: 2
#     Edge 52, Type (0, 0), BuildingBlock: UVAHIK_clean_linker_0, # of connection points: 2
#     Edge 53, Type (0, 0), BuildingBlock: UVAHIK_clean_linker_0, # of connection points: 2
#     Edge 54, Type (0, 0), BuildingBlock: UVAHIK_clean_linker_0, # of connection points: 2
#     Edge 55, Type (0, 0), BuildingBlock: UVAHIK_clean_linker_0, # of connection points: 2
#     Edge 56, Type (0, 0), BuildingBlock: UVAHIK_clean_linker_0, # of connection points: 2
#     Edge 57, Type (0, 0), BuildingBlock: UVAHIK_clean_linker_0, # of connection points: 2
#     Edge 58, Type (0, 0), BuildingBlock: UVAHIK_clean_linker_0, # of connection points: 2
#     Edge 59, Type (0, 0), BuildingBlock: UVAHIK_clean_linker_0, # of connection points: 2
# Relax obj value: 0.008
# Max RMSD: 0.054
# Mean RMSD: 0.047
data_MOF--net-nbo-a--node1-OLANEW_clean_sbu_2--edge1-UVAHIK_clean_linker_0
_symmetry_space_group_name_H-M    P1
_symmetry_Int_Tables_number       1
_symmetry_cell_setting            triclinic
loop_
_symmetry_equiv_pos_as_xyz
'x, y, z'
_cell_length_a     100.46389
_cell_length_b     100.45553
_cell_length_c     100.31843
_cell_angle_alpha  90.13377
_cell_angle_beta   90.721317
_cell_angle_gamma 94.959861
loop_
_atom_site_label
_atom_site_type_symbol
_atom_site_fract_x
_atom_site_fract_y
_atom_site_fract_z
_atom_type_partial_charge
O0 O 0.07168 0.17673 0.52372 0.0
Cd1 Cd 0.05106 0.18784 0.52098 0.0
O2 O 0.06825 0.16463 0.50549 0.0
Cd3 Cd 0.04761 0.16952 0.50267 0.0
O4 O 0.02614 0.16345 0.50236 0.0
C5 C 0.02138 0.15781 0.5128 0.0
O6 O 0.02934 0.15676 0.52318 0.0
C7 C 0.07564 0.16837 0.51543 0.0
C8 C 0.05585 0.21569 0.52117 0.0
O9 O 0.05377 0.20915 0.53201 0.0
O10 O 0.05569 0.20906 0.51023 0.0
O11 O 0.90216 0.05775 0.50412 0.0
Cd12 Cd 0.88822 0.03651 0.50321 0.0
O13 O 0.91382 0.05128 0.52128 0.0
Cd14 Cd 0.90616 0.03022 0.52088 0.0
O15 O 0.9115 0.00957 0.52199 0.0
C16 C 0.91882 0.00687 0.53189 0.0
O17 O 0.92178 0.01619 0.54093 0.0
C18 C 0.91115 0.06029 0.51302 0.0
C19 C 0.86115 0.03968 0.50714 0.0
O20 O 0.86902 0.03789 0.51701 0.0
O21 O 0.86609 0.04003 0.49541 0.0
O22 O 0.07227 0.89878 0.5434 0.0
Cd23 Cd 0.05331 0.88319 0.53653 0.0
O24 O 0.05959 0.91259 0.55324 0.0
Cd25 Cd 0.03997 0.90283 0.54778 0.0
O26 O 0.01927 0.90679 0.54335 0.0
C27 C 0.01775 0.91568 0.5346 0.0
O28 O 0.02835 0.92096 0.52836 0.0
C29 C 0.07112 0.9094 0.55005 0.0
C30 C 0.05928 0.85651 0.53714 0.0
O31 O 0.06223 0.86394 0.52705 0.0
O32 O 0.05357 0.8617 0.54701 0.0
O33 O 0.1844 0.01821 0.5519 0.0
Cd34 Cd 0.1993 0.03881 0.55055 0.0
O35 O 0.16842 0.02933 0.56016 0.0
Cd36 Cd 0.17715 0.04956 0.55592 0.0
O37 O 0.17295 0.06913 0.54814 0.0
C38 C 0.16921 0.07803 0.55594 0.0
O39 O 0.16901 0.07569 0.56882 0.0
C40 C 0.17285 0.01829 0.55694 0.0
C41 C 0.22636 0.03465 0.54832 0.0
O42 O 0.22065 0.03426 0.55969 0.0
O43 O 0.21925 0.03683 0.53798 0.0
O44 O 0.60019 0.01895 0.17179 0.0
Cd45 Cd 0.60529 0.03905 0.18542 0.0
O46 O 0.58425 0.02753 0.16024 0.0
Cd47 Cd 0.58825 0.04797 0.16772 0.0
O48 O 0.59136 0.06914 0.16244 0.0
C49 C 0.60103 0.07251 0.15476 0.0
O50 O 0.60904 0.06344 0.15133 0.0
C51 C 0.59096 0.01769 0.16296 0.0
C52 C 0.59721 0.03556 0.21186 0.0
O53 O 0.5897 0.04072 0.20322 0.0
O54 O 0.60849 0.032 0.208 0.0
O55 O 0.07175 0.55827 0.16203 0.0
Cd56 Cd 0.05094 0.55452 0.17448 0.0
O57 O 0.06486 0.54297 0.14714 0.0
Cd58 Cd 0.04383 0.54053 0.15273 0.0
O59 O 0.02288 0.53776 0.14618 0.0
C60 C 0.02044 0.54218 0.13461 0.0
O61 O 0.03032 0.54829 0.1279 0.0
C62 C 0.07402 0.55124 0.15188 0.0
C63 C 0.05547 0.55346 0.20203 0.0
O64 O 0.05635 0.54317 0.19463 0.0
O65 O 0.05247 0.56429 0.19643 0.0
O66 O 0.59477 0.06 0.88936 0.0
Cd67 Cd 0.60112 0.04148 0.87554 0.0
O68 O 0.58052 0.04741 0.90141 0.0
Cd69 Cd 0.58603 0.02817 0.89402 0.0
O70 O 0.59144 0.00842 0.90016 0.0
C71 C 0.58227 -0.00076 0.90258 0.0
O72 O 0.56978 0.00153 0.90021 0.0
C73 C 0.58604 0.05888 0.89845 0.0
C74 C 0.59345 0.04386 0.84881 0.0
O75 O 0.58615 0.03669 0.85691 0.0
O76 O 0.60432 0.04993 0.85334 0.0
O77 O 0.08201 0.53086 0.89575 0.0
Cd78 Cd 0.0616 0.52333 0.88332 0.0
O79 O 0.08121 0.51246 0.90768 0.0
Cd80 Cd 0.06019 0.50668 0.9031 0.0
O81 O 0.04052 0.50485 0.91237 0.0
C82 C 0.03846 0.51417 0.92049 0.0
O83 O 0.0477 0.52417 0.92196 0.0
C84 C 0.08736 0.52348 0.90421 0.0
C85 C 0.0659 0.52423 0.85584 0.0
O86 O 0.06106 0.53394 0.86189 0.0
O87 O 0.06862 0.51408 0.86275 0.0
O88 O 0.1892 0.55529 0.01028 0.0
Cd89 Cd 0.20175 0.56 0.03107 0.0
O90 O 0.18234 0.57548 0.00939 0.0
Cd91 Cd 0.18733 0.57942 0.03038 0.0
O92 O 0.18066 0.57831 0.05106 0.0
C93 C 0.17473 0.56719 0.05453 0.0
O94 O 0.17384 0.55726 0.04592 0.0
C95 C 0.18326 0.56411 0.00403 0.0
C96 C 0.22887 0.55704 0.02751 0.0
O97 O 0.22107 0.54752 0.03231 0.0
O98 O 0.22388 0.56798 0.02451 0.0
O99 O 0.58482 0.17839 0.05454 0.0
Cd100 Cd 0.57803 0.18793 0.03332 0.0
O101 O 0.59989 0.16664 0.0455 0.0
Cd102 Cd 0.59521 0.17106 0.02471 0.0
O103 O 0.59172 0.16366 0.00431 0.0
C104 C 0.58151 0.15549 0.00224 0.0
O105 O 0.57324 0.15275 0.01209 0.0
C106 C 0.59393 0.17042 0.05577 0.0
C107 C 0.57488 0.21527 0.03505 0.0
O108 O 0.56547 0.20653 0.03839 0.0
O109 O 0.58584 0.2111 0.03097 0.0
O110 O 0.88547 0.50497 0.07019 0.0
Cd111 Cd 0.86611 0.49518 0.05739 0.0
O112 O 0.89671 0.50571 0.05164 0.0
Cd113 Cd 0.91391 0.50794 0.03834 0.0
O114 O 0.92821 0.50961 0.02202 0.0
C115 C 0.9386 0.50322 0.02221 0.0
O116 O 0.94085 0.49568 0.03254 0.0
C117 C 0.89643 0.50768 0.06417 0.0
C118 C 0.84238 0.50732 0.06067 0.0
O119 O 0.84574 0.49829 0.06875 0.0
O120 O 0.8504 0.51084 0.05122 0.0
O121 O 0.58398 0.89931 0.01054 0.0
Cd122 Cd 0.58117 0.88861 0.03236 0.0
O123 O 0.6029 0.91066 0.01629 0.0
Cd124 Cd 0.60108 0.90616 0.03754 0.0
O125 O 0.59864 0.91326 0.05795 0.0
C126 C 0.58796 0.91867 0.06045 0.0
O127 O 0.57875 0.91884 0.05105 0.0
C128 C 0.59406 0.9072 0.00747 0.0
C129 C 0.57769 0.86075 0.03037 0.0
O130 O 0.56767 0.86782 0.02982 0.0
O131 O 0.58936 0.86685 0.03183 0.0
O132 O 0.57288 0.67769 0.02511 0.0
Cd133 Cd 0.55231 0.68907 0.02364 0.0
O134 O 0.57051 0.66926 0.00487 0.0
Cd135 Cd 0.54997 0.67458 0.00263 0.0
O136 O 0.5286 0.66819 0.00281 0.0
C137 C 0.52432 0.662 0.01315 0.0
O138 O 0.53267 0.66067 0.02315 0.0
C139 C 0.57735 0.67104 0.01559 0.0
C140 C 0.55722 0.71689 0.0244 0.0
O141 O 0.55549 0.7101 0.03514 0.0
O142 O 0.55666 0.71051 0.01329 0.0
O143 O 0.40844 0.55862 0.0014 0.0
Cd144 Cd 0.39461 0.53752 -0.00153 0.0
O145 O 0.41945 0.55179 0.01885 0.0
Cd146 Cd 0.41162 0.53081 0.0177 0.0
O147 O 0.41571 0.5098 0.0191 0.0
C148 C 0.41798 0.5051 0.03058 0.0
O149 O 0.41677 0.51272 0.04108 0.0
C150 C 0.41704 0.56099 0.0107 0.0
C151 C 0.36773 0.5405 0.00347 0.0
O152 O 0.37537 0.53626 0.01256 0.0
O153 O 0.37278 0.5433 -0.00796 0.0
O154 O 0.56768 0.39694 0.03846 0.0
Cd155 Cd 0.54774 0.38214 0.0329 0.0
O156 O 0.55794 0.40841 0.05371 0.0
Cd157 Cd 0.53758 0.40007 0.04908 0.0
O158 O 0.51708 0.40448 0.04435 0.0
C159 C 0.51035 0.4093 0.05356 0.0
O160 O 0.5156 0.41042 0.06562 0.0
C161 C 0.56837 0.40596 0.04742 0.0
C162 C 0.55275 0.35521 0.03428 0.0
O163 O 0.55545 0.36212 0.02378 0.0
O164 O 0.54766 0.36101 0.04415 0.0
O165 O 0.66703 0.52435 0.06563 0.0
Cd166 Cd 0.67974 0.54622 0.06698 0.0
O167 O 0.66818 0.52324 0.04377 0.0
Cd168 Cd 0.6743 0.54457 0.04178 0.0
O169 O 0.67007 0.56494 0.03653 0.0
C170 C 0.6664 0.57289 0.04536 0.0
O171 O 0.66605 0.56903 0.05787 0.0
C172 C 0.66493 0.5178 0.05483 0.0
C173 C 0.70714 0.54331 0.06643 0.0
O174 O 0.70074 0.54266 0.07741 0.0
O175 O 0.70061 0.54549 0.0557 0.0
O176 O 0.09584 0.51695 0.67523 0.0
Cd177 Cd 0.10144 0.5371 0.68867 0.0
O178 O 0.09031 0.52836 0.65758 0.0
Cd179 Cd 0.09457 0.54867 0.66531 0.0
O180 O 0.09756 0.5698 0.65984 0.0
C181 C 0.10706 0.57306 0.6519 0.0
O182 O 0.11494 0.56392 0.64837 0.0
C183 C 0.0917 0.51722 0.66321 0.0
C184 C 0.09469 0.53376 0.71549 0.0
O185 O 0.08673 0.53879 0.7072 0.0
O186 O 0.10579 0.53023 0.71109 0.0
O187 O 0.57107 0.05785 0.66841 0.0
Cd188 Cd 0.55125 0.05548 0.6825 0.0
O189 O 0.56372 0.07487 0.65763 0.0
Cd190 Cd 0.54313 0.07123 0.66443 0.0
O191 O 0.52244 0.06492 0.65867 0.0
C192 C 0.51958 0.05263 0.65592 0.0
O193 O 0.52881 0.04428 0.6577 0.0
C194 C 0.57295 0.06726 0.65999 0.0
C195 C 0.55795 0.05355 0.70954 0.0
O196 O 0.55488 0.04305 0.70249 0.0
O197 O 0.55786 0.06494 0.70383 0.0
O198 O 0.08069 0.56099 0.38423 0.0
Cd199 Cd 0.07367 0.54023 0.37225 0.0
O200 O 0.09647 0.55233 0.39596 0.0
Cd201 Cd 0.09202 0.53154 0.38968 0.0
O202 O 0.09044 0.51059 0.39595 0.0
C203 C 0.0813 0.50695 0.40416 0.0
O204 O 0.07281 0.51556 0.40757 0.0
C205 C 0.09018 0.56233 0.39277 0.0
C206 C 0.07204 0.54365 0.34462 0.0
O207 O 0.06243 0.5463 0.35219 0.0
O208 O 0.08248 0.53945 0.3501 0.0
O209 O 0.57417 0.02829 0.39116 0.0
Cd210 Cd 0.55451 0.02143 0.37731 0.0
O211 O 0.572 0.00978 0.40293 0.0
Cd212 Cd 0.55145 0.00397 0.39645 0.0
O213 O 0.53068 -0.00041 0.40253 0.0
C214 C 0.52299 0.00896 0.40334 0.0
O215 O 0.5274 0.02101 0.39946 0.0
C216 C 0.57865 0.0207 0.39998 0.0
C217 C 0.56054 0.02316 0.35018 0.0
O218 O 0.55544 0.03273 0.3562 0.0
O219 O 0.56272 0.01275 0.35696 0.0
O220 O 0.68058 0.04758 0.508 0.0
Cd221 Cd 0.69264 0.05098 0.52927 0.0
O222 O 0.67288 0.06742 0.50833 0.0
Cd223 Cd 0.67821 0.07128 0.52927 0.0
O224 O 0.67191 0.07473 0.54971 0.0
C225 C 0.67002 0.06509 0.55785 0.0
O226 O 0.67285 0.05312 0.55413 0.0
C227 C 0.67424 0.05646 0.50233 0.0
C228 C 0.72012 0.04959 0.52614 0.0
O229 O 0.71236 0.03911 0.52864 0.0
O230 O 0.71489 0.06076 0.52517 0.0
O231 O 0.09055 0.67905 0.55129 0.0
Cd232 Cd 0.08412 0.68927 0.53031 0.0
O233 O 0.105 0.66673 0.54198 0.0
Cd234 Cd 0.1009 0.67175 0.5212 0.0
O235 O 0.09926 0.66544 0.50028 0.0
C236 C 0.10839 0.65849 0.49617 0.0
O237 O 0.11826 0.65627 0.50437 0.0
C238 C 0.09926 0.67063 0.55234 0.0
C239 C 0.08133 0.71662 0.53287 0.0
O240 O 0.07175 0.7079 0.5358 0.0
O241 O 0.09227 0.71243 0.52879 0.0
O242 O 0.40871 0.02469 0.55527 0.0
Cd243 Cd 0.3952 0.02 0.535 0.0
O244 O 0.421 0.00817 0.55074 0.0
Cd245 Cd 0.41438 0.00538 0.52998 0.0
O246 O 0.41987 0.00508 0.50893 0.0
C247 C 0.4258 -0.00474 0.50465 0.0
O248 O 0.42749 -0.01473 0.51275 0.0
C249 C 0.41784 0.01729 0.55863 0.0
C250 C 0.36799 0.02288 0.53832 0.0
O251 O 0.37307 0.01214 0.54183 0.0
O252 O 0.37577 0.03233 0.53337 0.0
O253 O 0.08195 0.39906 0.50693 0.0
Cd254 Cd 0.08019 0.38734 0.52831 0.0
O255 O 0.09459 0.41598 0.5156 0.0
Cd256 Cd 0.09389 0.40972 0.53647 0.0
O257 O 0.09453 0.41562 0.5575 0.0
C258 C 0.08389 0.41576 0.5642 0.0
O259 O 0.07245 0.41132 0.55863 0.0
C260 C 0.08872 0.41026 0.50554 0.0
C261 C 0.07675 0.35953 0.52556 0.0
O262 O 0.0667 0.36657 0.5256 0.0
O263 O 0.08845 0.36565 0.52671 0.0
C264 C 0.1588 0.09961 0.55911 0.0
C265 C 0.16335 0.08997 0.55049 0.0
C266 C 0.15171 0.10993 0.55409 0.0
C267 C 0.12964 0.11655 0.52612 0.0
H268 H 0.13266 0.15282 0.53983 0.0
C269 C 0.09351 0.15415 0.50803 0.0
C270 C 0.08828 0.16212 0.51788 0.0
C271 C 0.10453 0.14698 0.51083 0.0
C272 C 0.13163 0.14271 0.53596 0.0
H273 H 0.16465 0.08405 0.52976 0.0
H274 H 0.15228 0.10205 0.52104 0.0
H275 H 0.14878 0.13732 0.54699 0.0
H276 H 0.09089 0.1692 0.53827 0.0
H277 H 0.10984 0.15643 0.54327 0.0
H278 H 0.11225 0.12164 0.51553 0.0
C279 C 0.15407 0.10153 0.53169 0.0
C280 C 0.14089 0.13385 0.54004 0.0
C281 C 0.16122 0.09126 0.53669 0.0
C282 C 0.09468 0.16318 0.53043 0.0
C283 C 0.10561 0.15589 0.53328 0.0
C284 C 0.12034 0.12535 0.52213 0.0
C285 C 0.14896 0.1108 0.54036 0.0
C286 C 0.13991 0.12063 0.53526 0.0
C287 C 0.1105 0.14746 0.52361 0.0
C288 C 0.12111 0.13851 0.5271 0.0
H289 H 0.1603 0.09894 0.56979 0.0
H290 H 0.14783 0.11686 0.56105 0.0
H291 H 0.12846 0.10637 0.52244 0.0
H292 H 0.08892 0.15322 0.49821 0.0
H293 H 0.1082 0.14084 0.50303 0.0
C294 C 0.91939 0.08201 0.5023 0.0
C295 C 0.91926 0.07334 0.5133 0.0
C296 C 0.92826 0.09356 0.50203 0.0
C297 C 0.95048 0.11639 0.52328 0.0
H298 H 0.97238 0.12056 0.49177 0.0
C299 C 0.00284 0.14428 0.52425 0.0
C300 C 0.00758 0.15126 0.51289 0.0
C301 C -0.00963 0.13697 0.52403 0.0
C302 C 0.96621 0.11976 0.50055 0.0
H303 H 0.92787 0.07036 0.5329 0.0
H304 H 0.94321 0.09046 0.53244 0.0
H305 H 0.95326 0.10391 0.4919 0.0
H306 H 0.00264 0.15648 0.49256 0.0
H307 H 0.98075 0.14382 0.49224 0.0
H308 H 0.96357 0.13203 0.53204 0.0
C309 C 0.93648 0.08837 0.52403 0.0
C310 C 0.95523 0.11019 0.50062 0.0
C311 C 0.92774 0.07679 0.52425 0.0
C312 C -0.00068 0.15116 0.50146 0.0
C313 C -0.0132 0.14384 0.50126 0.0
C314 C 0.9614 0.126 0.52319 0.0
C315 C 0.93705 0.09674 0.51282 0.0
C316 C 0.94746 0.10816 0.51211 0.0
C317 C -0.01773 0.13647 0.51247 0.0
C318 C 0.96962 0.12757 0.51195 0.0
H319 H 0.91299 0.07964 0.4937 0.0
H320 H 0.9284 0.09988 0.49329 0.0
H321 H 0.94454 0.1152 0.5322 0.0
H322 H 0.00893 0.14413 0.53322 0.0
H323 H -0.01268 0.13128 0.5328 0.0
C324 C 0.92329 -0.01544 0.52226 0.0
C325 C 0.92523 -0.00587 0.53251 0.0
C326 C 0.93056 0.97327 0.52223 0.0
C327 C 0.95285 0.95382 0.54337 0.0
H328 H 0.96861 0.94572 0.50956 0.0
C329 C -0.00649 0.91675 0.54017 0.0
C330 C 0.00467 0.92123 0.53257 0.0
C331 C -0.01833 0.92313 0.53926 0.0
C332 C 0.9643 0.94784 0.51909 0.0
H333 H 0.93591 -0.00097 0.55105 0.0
H334 H 0.94868 0.97962 0.55088 0.0
H335 H 0.95172 0.96165 0.51034 0.0
H336 H 0.01192 0.93554 0.51759 0.0
H337 H -0.00848 0.94674 0.51619 0.0
H338 H 0.96603 0.94066 0.55224 0.0
C339 C 0.94143 0.98065 0.54294 0.0
C340 C 0.95446 0.95686 0.51952 0.0
C341 C 0.93416 -0.00812 0.54299 0.0
C342 C 0.00353 0.93183 0.52362 0.0
C343 C -0.00825 0.93821 0.52273 0.0
C344 C 0.96274 0.94486 0.54295 0.0
C345 C 0.93993 0.97132 0.53244 0.0
C346 C 0.94888 0.96026 0.53172 0.0
C347 C 0.98075 0.93413 0.53073 0.0
C348 C 0.96887 0.94205 0.53086 0.0
H349 H 0.91643 -0.01405 0.51407 0.0
H350 H 0.929 0.96619 0.51409 0.0
H351 H 0.94859 0.956 0.55291 0.0
H352 H -0.00597 0.90856 0.54711 0.0
H353 H 0.97333 0.9196 0.54542 0.0
C354 C 0.08168 0.92999 0.5613 0.0
C355 C 0.08301 0.91872 0.55326 0.0
C356 C 0.09235 0.93971 0.56306 0.0
C357 C 0.12885 0.94727 0.55915 0.0
H358 H 0.11894 -0.01646 0.55542 0.0
C359 C 0.16709 -0.0062 0.55227 0.0
C360 C 0.1641 0.00574 0.55847 0.0
C361 C 0.15799 -0.01759 0.55264 0.0
C362 C 0.12189 0.9735 0.55669 0.0
H363 H 0.09685 0.9085 0.54131 0.0
H364 H 0.1155 0.9256 0.54432 0.0
H365 H 0.10175 0.96504 0.55446 0.0
H366 H 0.14956 0.0148 0.57059 0.0
H367 H 0.13392 -0.00499 0.57142 0.0
H368 H 0.14909 0.95587 0.56127 0.0
C369 C 0.10619 0.92685 0.54931 0.0
C370 C 0.11202 0.96287 0.55613 0.0
C371 C 0.09549 0.91707 0.54756 0.0
C372 C 0.15212 0.00584 0.56555 0.0
C373 C 0.1431 -0.0055 0.56597 0.0
C374 C 0.13879 0.95797 0.55973 0.0
C375 C 0.10462 0.93845 0.5568 0.0
C376 C 0.11534 0.94963 0.55745 0.0
C377 C 0.14575 -0.01726 0.55924 0.0
C378 C 0.13539 0.97122 0.55859 0.0
H379 H 0.07227 0.93152 0.56597 0.0
H380 H 0.09089 0.94838 0.56914 0.0
H381 H 0.13173 0.93718 0.56025 0.0
H382 H 0.17623 -0.00662 0.54673 0.0
H383 H 0.16031 0.97353 0.54731 0.0
C384 C 0.58846 0.16618 0.07985 0.0
C385 C 0.59681 0.16452 0.06893 0.0
C386 C 0.59008 0.15907 0.09166 0.0
C387 C 0.61318 0.1384 0.11007 0.0
H388 H 0.58048 0.1194 0.12252 0.0
C389 C 0.61231 0.08897 0.13895 0.0
C390 C 0.60227 0.08584 0.14835 0.0
C391 C 0.61256 0.10079 0.13162 0.0
C392 C 0.5897 0.12482 0.11941 0.0
H393 H 0.61393 0.1547 0.06218 0.0
H394 H 0.61672 0.14233 0.08269 0.0
H395 H 0.57938 0.13643 0.10547 0.0
H396 H 0.58506 0.09308 0.15796 0.0
H397 H 0.5856 0.11383 0.14527 0.0
H398 H 0.62352 0.1265 0.12377 0.0
C399 C 0.60894 0.14914 0.08217 0.0
C400 C 0.58907 0.1346 0.1096 0.0
C401 C 0.60727 0.15618 0.07036 0.0
C402 C 0.59288 0.09514 0.15073 0.0
C403 C 0.59314 0.107 0.1434 0.0
C404 C 0.61382 0.12864 0.11992 0.0
C405 C 0.60015 0.15023 0.09284 0.0
C406 C 0.60081 0.14127 0.10457 0.0
C407 C 0.6028 0.10982 0.13353 0.0
C408 C 0.6021 0.12148 0.12447 0.0
H409 H 0.58032 0.17256 0.07911 0.0
H410 H 0.58325 0.16025 0.09976 0.0
H411 H 0.6224 0.14352 0.10654 0.0
H412 H 0.61972 0.08206 0.13688 0.0
H413 H 0.62006 0.10253 0.12401 0.0
C414 C 0.00466 0.5445 0.11541 0.0
C415 C 0.00697 0.53987 0.12838 0.0
C416 C -0.00778 0.54179 0.10916 0.0
C417 C 0.96205 0.51816 0.10994 0.0
H418 H 0.94711 0.54437 0.08714 0.0
C419 C 0.90984 0.50861 0.08534 0.0
C420 C 0.90864 0.51227 0.07189 0.0
C421 C 0.92145 0.51251 0.09267 0.0
C422 C 0.9512 0.5369 0.09338 0.0
H423 H -0.00212 0.529 0.14507 0.0
H424 H 0.97608 0.52438 0.13418 0.0
H425 H 0.96789 0.55036 0.09941 0.0
H426 H 0.91836 0.52362 0.05586 0.0
H427 H 0.93879 0.53012 0.06853 0.0
H428 H 0.94541 0.50468 0.10384 0.0
C429 C -0.01602 0.52995 0.12878 0.0
C430 C 0.96311 0.54033 0.10043 0.0
C431 C -0.00355 0.53267 0.13506 0.0
C432 C 0.91915 0.52024 0.06604 0.0
C433 C 0.93077 0.52417 0.07339 0.0
C434 C 0.95013 0.51473 0.10291 0.0
C435 C -0.01825 0.53438 0.11571 0.0
C436 C 0.96873 0.53097 0.10872 0.0
C437 C 0.9321 0.52024 0.08676 0.0
C438 C 0.94461 0.52404 0.09448 0.0
H439 H 0.01254 0.55006 0.10996 0.0
H440 H -0.00907 0.54521 0.09903 0.0
H441 H 0.9662 0.51063 0.11606 0.0
H442 H 0.90187 0.50255 0.09016 0.0
H443 H 0.92205 0.5095 0.10301 0.0
C444 C 0.59824 -0.00424 0.15499 0.0
C445 C 0.5887 0.00522 0.15502 0.0
C446 C 0.5969 -0.01511 0.14618 0.0
C447 C 0.58069 0.97523 0.11391 0.0
H448 H 0.59264 0.94038 0.12182 0.0
C449 C 0.57513 0.93291 0.07524 0.0
C450 C 0.58657 0.92611 0.07308 0.0
C451 C 0.57437 0.9412 0.08635 0.0
C452 C 0.58932 0.95009 0.11947 0.0
H453 H 0.56984 0.01017 0.14642 0.0
H454 H 0.56733 -0.00893 0.13138 0.0
H455 H 0.59292 0.95731 0.13943 0.0
H456 H 0.60592 0.92217 0.08128 0.0
H457 H 0.6046 0.93671 0.10069 0.0
H458 H 0.57718 0.9681 0.09398 0.0
C459 C 0.57606 -0.00775 0.13785 0.0
C460 C 0.5895 0.95979 0.12954 0.0
C461 C 0.57746 0.00317 0.14655 0.0
C462 C 0.59697 0.92729 0.08263 0.0
C463 C 0.5962 0.93558 0.09379 0.0
C464 C 0.58045 0.96553 0.1039 0.0
C465 C 0.58595 -0.01683 0.13728 0.0
C466 C 0.58524 0.97252 0.12686 0.0
C467 C 0.58502 0.94288 0.09559 0.0
C468 C 0.58481 0.95287 0.10653 0.0
H469 H 0.60704 -0.00294 0.16137 0.0
H470 H 0.60477 0.97817 0.14597 0.0
H471 H 0.57765 -0.01501 0.11136 0.0
H472 H 0.56688 0.93215 0.06815 0.0
H473 H 0.56553 0.9465 0.08758 0.0
C474 C 0.09586 0.56446 0.14709 0.0
C475 C 0.08708 0.55292 0.14512 0.0
C476 C 0.10761 0.56644 0.13971 0.0
C477 C 0.13094 0.54888 0.11914 0.0
H478 H 0.1362 0.58225 0.0998 0.0
C479 C 0.16051 0.55359 0.07063 0.0
C480 C 0.16773 0.56574 0.06743 0.0
C481 C 0.1528 0.55245 0.08212 0.0
C482 C 0.13509 0.57298 0.10532 0.0
H483 H 0.08404 0.53417 0.13426 0.0
H484 H 0.10451 0.53756 0.12156 0.0
H485 H 0.11889 0.57949 0.11664 0.0
H486 H 0.17296 0.58609 0.07412 0.0
H487 H 0.15961 0.58404 0.09433 0.0
H488 H 0.14695 0.54226 0.10771 0.0
C489 C 0.10234 0.54509 0.12877 0.0
C490 C 0.12514 0.5714 0.11497 0.0
C491 C 0.09055 0.54319 0.13599 0.0
C492 C 0.16746 0.5766 0.07626 0.0
C493 C 0.15975 0.57545 0.08781 0.0
C494 C 0.14094 0.55049 0.10958 0.0
C495 C 0.1109 0.55681 0.13039 0.0
C496 C 0.12271 0.5592 0.1217 0.0
C497 C 0.15215 0.56341 0.09076 0.0
C498 C 0.14288 0.56242 0.10226 0.0
H499 H 0.09345 0.57214 0.15403 0.0
H500 H 0.11406 0.57554 0.14119 0.0
H501 H 0.12943 0.53944 0.12433 0.0
H502 H 0.16047 0.54502 0.06406 0.0
H503 H 0.14694 0.54308 0.08393 0.0
C504 C 0.57516 0.97719 0.91309 0.0
C505 C 0.58541 -0.01299 0.9098 0.0
C506 C 0.57775 0.96658 0.92147 0.0
C507 C 0.60045 0.95923 0.94869 0.0
H508 H 0.5834 0.92322 0.94549 0.0
C509 C 0.60667 0.92094 -0.00982 0.0
C510 C 0.59496 0.91334 -0.00595 0.0
C511 C 0.607 0.92815 0.97828 0.0
C512 C 0.58818 0.93325 0.94657 0.0
H513 H 0.60661 -0.00706 0.91211 0.0
H514 H 0.61111 0.97441 0.9267 0.0
H515 H 0.58125 0.93908 0.92732 0.0
H516 H 0.5746 0.90685 -0.0119 0.0
H517 H 0.57504 0.91965 0.96752 0.0
H518 H 0.60695 0.95369 0.96808 0.0
C519 C 0.60103 0.97502 0.92293 0.0
C520 C 0.58697 0.94232 0.93614 0.0
C521 C 0.59846 -0.0144 0.91451 0.0
C522 C 0.58379 0.91259 -0.01458 0.0
C523 C 0.58407 0.9199 0.97356 0.0
C524 C 0.60159 0.95021 0.95913 0.0
C525 C 0.59064 0.96559 0.92678 0.0
C526 C 0.59295 0.95547 0.93717 0.0
C527 C 0.59558 0.92804 0.96999 0.0
C528 C 0.59533 0.93715 0.9583 0.0
H529 H 0.56501 0.97794 0.9096 0.0
H530 H 0.56951 0.95954 0.92431 0.0
H531 H 0.60499 0.96935 0.94992 0.0
H532 H 0.61551 0.92162 -0.00347 0.0
H533 H 0.61613 0.93406 0.97571 0.0
C534 C 0.10516 0.54161 0.91034 0.0
C535 C 0.10017 0.52811 0.91088 0.0
C536 C 0.11627 0.54629 0.91809 0.0
C537 C 0.14495 0.53586 0.93775 0.0
H538 H 0.13896 0.56622 0.96014 0.0
C539 C 0.17445 0.54758 -0.01336 0.0
C540 C 0.17663 0.5609 -0.009 0.0
C541 C 0.16692 0.54438 0.97508 0.0
C542 C 0.141 0.55792 0.95379 0.0
H543 H 0.10342 0.50879 0.91937 0.0
H544 H 0.12286 0.51694 0.93276 0.0
H545 H 0.12283 0.55922 0.9427 0.0
H546 H 0.17328 0.58139 -0.01378 0.0
H547 H 0.16051 0.57587 0.96585 0.0
H548 H 0.16308 0.53447 0.9489 0.0
C549 C 0.11816 0.52391 0.92638 0.0
C550 C 0.1317 0.5539 0.9438 0.0
C551 C 0.10697 0.51926 0.91877 0.0
C552 C 0.17166 0.57101 -0.01679 0.0
C553 C 0.16426 0.56783 0.97157 0.0
C554 C 0.15434 0.53997 0.94766 0.0
C555 C 0.12273 0.53753 0.92638 0.0
C556 C 0.13344 0.54267 0.93585 0.0
C557 C 0.16152 0.55444 0.96751 0.0
C558 C 0.15234 0.55089 0.95601 0.0
H559 H 0.10016 0.54869 0.90436 0.0
H560 H 0.11966 0.55682 0.91781 0.0
H561 H 0.14661 0.52725 0.93166 0.0
H562 H 0.17811 0.53953 -0.00756 0.0
H563 H 0.1649 0.53394 0.97241 0.0
C564 C 0.58947 0.1495 0.97951 0.0
C565 C 0.57981 0.14791 -0.01046 0.0
C566 C 0.58859 0.14119 0.96824 0.0
C567 C 0.57484 0.10759 0.95831 0.0
H568 H 0.58404 0.11913 0.92248 0.0
C569 C 0.57234 0.06978 0.91532 0.0
C570 C 0.58312 0.07066 0.90648 0.0
C571 C 0.57054 0.08022 0.92416 0.0
C572 C 0.58154 0.11573 0.93244 0.0
H573 H 0.56125 0.13684 -0.00478 0.0
H574 H 0.5597 0.12246 0.9756 0.0
H575 H 0.58353 0.13569 0.94034 0.0
H576 H 0.60011 0.08348 0.89959 0.0
H577 H 0.59715 0.10157 0.91523 0.0
H578 H 0.57322 0.08767 0.95066 0.0
C579 C 0.56807 0.12997 0.97654 0.0
C580 C 0.58122 0.12523 0.94266 0.0
C581 C 0.56894 0.13826 -0.01224 0.0
C582 C 0.59169 0.08249 0.90626 0.0
C583 C 0.58996 0.0929 0.9152 0.0
C584 C 0.57522 0.09813 0.94815 0.0
C585 C 0.57804 0.13112 0.9668 0.0
C586 C 0.5779 0.12125 0.95572 0.0
C587 C 0.57955 0.09175 0.9245 0.0
C588 C 0.5786 0.10204 0.93508 0.0
H589 H 0.59796 0.15685 0.98055 0.0
H590 H 0.59647 0.14229 0.96096 0.0
H591 H 0.57252 0.10415 0.9683 0.0
H592 H 0.56546 0.06088 0.91565 0.0
H593 H 0.56221 0.07911 0.93094 0.0
C594 C 0.01723 0.50199 0.92875 0.0
C595 C 0.02652 0.51329 0.92908 0.0
C596 C 0.0066 0.50081 0.93768 0.0
C597 C -0.01256 0.52037 0.96109 0.0
H598 H 0.97982 0.48621 0.97853 0.0
C599 C 0.94513 0.51154 -0.00057 0.0
C600 C 0.94793 0.50413 0.01085 0.0
C601 C 0.95391 0.51236 -0.01129 0.0
C602 C -0.01813 0.49584 0.9738 0.0
H603 H 0.03167 0.53239 0.93882 0.0
H604 H 0.0133 0.53028 0.9544 0.0
H605 H -0.00356 0.48841 0.961 0.0
H606 H 0.96219 0.49176 0.01992 0.0
H607 H 0.97761 0.49337 0.00133 0.0
H608 H 0.97323 0.52793 0.97421 0.0
C609 C 0.0141 0.52237 0.94717 0.0
C610 C -0.00873 0.49705 0.96362 0.0
C611 C 0.02471 0.52354 0.93827 0.0
C612 C 0.9597 0.49753 0.01127 0.0
C613 C 0.9685 0.49837 0.00056 0.0
C614 C 0.97805 0.51916 0.97128 0.0
C615 C 0.00501 0.51092 0.94711 0.0
C616 C -0.00572 0.50938 0.95724 0.0
C617 C 0.96573 0.50581 -0.01086 0.0
C618 C 0.97525 0.50692 0.97787 0.0
H619 H 0.01832 0.49392 0.92177 0.0
H620 H -0.00033 0.49194 0.93725 0.0
H621 H -0.0106 0.52997 0.95629 0.0
H622 H 0.93611 0.5167 -0.00126 0.0
H623 H 0.95137 0.51803 0.98001 0.0
C624 C 0.59534 0.65786 0.00659 0.0
C625 C 0.58981 0.66431 0.01738 0.0
C626 C 0.60604 0.65004 0.00858 0.0
C627 C 0.63175 0.64113 0.0335 0.0
H628 H 0.62794 0.60711 0.01491 0.0
C629 C 0.65641 0.59417 0.05113 0.0
C630 C 0.66097 0.5856 0.04142 0.0
C631 C 0.64986 0.60534 0.04739 0.0
C632 C 0.62931 0.61665 0.02002 0.0
H633 H 0.5916 0.66809 0.03866 0.0
H634 H 0.61002 0.65423 0.04219 0.0
H635 H 0.61267 0.62389 0.00976 0.0
H636 H 0.66283 0.58244 0.02014 0.0
H637 H 0.65141 0.60193 0.01364 0.0
H638 H 0.64814 0.63356 0.04412 0.0
C639 C 0.60626 0.65536 0.03213 0.0
C640 C 0.62055 0.62631 0.01705 0.0
C641 C 0.59563 0.66327 0.03011 0.0
C642 C 0.65937 0.58878 0.02789 0.0
C643 C 0.65277 0.59992 0.02415 0.0
C644 C 0.64048 0.6314 0.03653 0.0
C645 C 0.61139 0.64837 0.02144 0.0
C646 C 0.62153 0.63863 0.02386 0.0
C647 C 0.64768 0.60815 0.03386 0.0
C648 C 0.63925 0.61899 0.02993 0.0
H649 H 0.59119 0.65856 -0.00338 0.0
H650 H 0.60993 0.64506 7e-05 0.0
H651 H 0.63293 0.65057 0.0388 0.0
H652 H 0.65751 0.59204 0.06165 0.0
H653 H 0.64598 0.61143 0.05512 0.0
C654 C 0.4247 0.5834 0.00111 0.0
C655 C 0.42494 0.57414 0.01159 0.0
C656 C 0.43325 0.59516 0.00136 0.0
C657 C 0.45518 0.61736 0.02349 0.0
H658 H 0.47615 0.62426 -0.00833 0.0
C659 C 0.50655 0.64733 0.0245 0.0
C660 C 0.5107 0.65504 0.01339 0.0
C661 C 0.49433 0.63958 0.02428 0.0
C662 C 0.47022 0.62269 0.00056 0.0
H663 H 0.43392 0.57029 0.03083 0.0
H664 H 0.44877 0.59076 0.03127 0.0
H665 H 0.45767 0.6069 -0.00867 0.0
H666 H 0.50493 0.66114 -0.00643 0.0
H667 H 0.48346 0.64772 -0.00674 0.0
H668 H 0.46789 0.63297 0.03281 0.0
C669 C 0.44196 0.58897 0.02287 0.0
C670 C 0.45962 0.61271 0.00036 0.0
C671 C 0.4335 0.57718 0.02257 0.0
C672 C 0.50207 0.65526 0.00226 0.0
C673 C 0.4898 0.6475 0.00206 0.0
C674 C 0.46573 0.62739 0.02367 0.0
C675 C 0.44212 0.59797 0.01216 0.0
C676 C 0.45219 0.60971 0.01191 0.0
C677 C 0.4859 0.63936 0.01297 0.0
C678 C 0.4736 0.62996 0.01231 0.0
H679 H 0.41821 0.58138 -0.00749 0.0
H680 H 0.43307 0.60197 -0.00698 0.0
H681 H 0.4495 0.61542 0.03249 0.0
H682 H 0.51294 0.64693 0.03324 0.0
H683 H 0.49176 0.63331 0.0328 0.0
C684 C 0.49292 0.41587 0.03725 0.0
C685 C 0.49764 0.4152 0.05046 0.0
C686 C 0.48186 0.42293 0.03419 0.0
C687 C 0.45345 0.43893 0.04918 0.0
H688 H 0.45874 0.46357 0.01966 0.0
C689 C 0.42687 0.4873 0.04474 0.0
C690 C 0.42359 0.492 0.03204 0.0
C691 C 0.43367 0.47582 0.04613 0.0
C692 C 0.45693 0.45658 0.02777 0.0
H693 H 0.49402 0.42083 0.0709 0.0
H694 H 0.47489 0.4332 0.06557 0.0
H695 H 0.47465 0.44706 0.02362 0.0
H696 H 0.42427 0.48788 0.01083 0.0
H697 H 0.43607 0.46776 0.01327 0.0
H698 H 0.43592 0.44877 0.05356 0.0
C699 C 0.47963 0.42821 0.05756 0.0
C700 C 0.46608 0.4471 0.03005 0.0
C701 C 0.49068 0.42118 0.06061 0.0
C702 C 0.42672 0.48458 0.02076 0.0
C703 C 0.43354 0.47309 0.02216 0.0
C704 C 0.44429 0.44843 0.0469 0.0
C705 C 0.47527 0.42944 0.04428 0.0
C706 C 0.46462 0.43834 0.04095 0.0
C707 C 0.43737 0.46874 0.03485 0.0
C708 C 0.44608 0.45756 0.03634 0.0
H709 H 0.49801 0.41132 0.02919 0.0
H710 H 0.47864 0.42352 0.02388 0.0
H711 H 0.45191 0.43219 0.05754 0.0
H712 H 0.42459 0.49274 0.05365 0.0
H713 H 0.43657 0.47285 0.05605 0.0
C714 C 0.65065 0.49968 0.06623 0.0
C715 C 0.65795 0.50419 0.05503 0.0
C716 C 0.64297 0.48739 0.06595 0.0
C717 C 0.62663 0.46302 0.04175 0.0
H718 H 0.61933 0.44187 0.07353 0.0
C719 C 0.59135 0.41471 0.04041 0.0
C720 C 0.58099 0.41448 0.04972 0.0
C721 C 0.60246 0.42406 0.04161 0.0
C722 C 0.62131 0.44768 0.06458 0.0
H723 H 0.66353 0.49901 0.03499 0.0
H724 H 0.65057 0.47738 0.03464 0.0
H725 H 0.63595 0.4611 0.07446 0.0
H726 H 0.57457 0.42336 0.06803 0.0
H727 H 0.59403 0.43955 0.07019 0.0
H728 H 0.61199 0.44958 0.0319 0.0
C729 C 0.65037 0.48351 0.04352 0.0
C730 C 0.63078 0.45875 0.0651 0.0
C731 C 0.65789 0.49588 0.04374 0.0
C732 C 0.58234 0.42331 0.06066 0.0
C733 C 0.59352 0.43254 0.06193 0.0
C734 C 0.61732 0.45188 0.04119 0.0
C735 C 0.64255 0.47922 0.0545 0.0
C736 C 0.6334 0.46672 0.05375 0.0
C737 C 0.60352 0.43324 0.05223 0.0
C738 C 0.6144 0.44422 0.05264 0.0
H739 H 0.65044 0.50587 0.07507 0.0
H740 H 0.63696 0.48457 0.07454 0.0
H741 H 0.62813 0.46902 0.03285 0.0
H742 H 0.59064 0.40805 0.03188 0.0
H743 H 0.61009 0.42431 0.03405 0.0
C744 C 0.09379 0.66624 0.5764 0.0
C745 C 0.10202 0.66449 0.5654 0.0
C746 C 0.09542 0.65909 0.58818 0.0
C747 C 0.11859 0.63844 0.60643 0.0
H748 H 0.08603 0.61963 0.61946 0.0
C749 C 0.11807 0.58933 0.63577 0.0
C750 C 0.10818 0.58631 0.64534 0.0
C751 C 0.11821 0.60106 0.62831 0.0
C752 C 0.09522 0.62499 0.61618 0.0
H753 H 0.11889 0.65439 0.55846 0.0
H754 H 0.12171 0.64197 0.57893 0.0
H755 H 0.08475 0.63651 0.60225 0.0
H756 H 0.09111 0.59366 0.65512 0.0
H757 H 0.09145 0.61426 0.6422 0.0
H758 H 0.12908 0.62666 0.62013 0.0
C759 C 0.11402 0.64888 0.57849 0.0
C760 C 0.09447 0.63469 0.60629 0.0
C761 C 0.11234 0.65595 0.5667 0.0
C762 C 0.09882 0.59563 0.64776 0.0
C763 C 0.09896 0.6074 0.6403 0.0
C764 C 0.11934 0.62878 0.61637 0.0
C765 C 0.10539 0.65013 0.58926 0.0
C766 C 0.10616 0.64127 0.60105 0.0
C767 C 0.10848 0.61011 0.63026 0.0
C768 C 0.10767 0.62168 0.62112 0.0
H769 H 0.08577 0.67277 0.57575 0.0
H770 H 0.08871 0.66037 0.59636 0.0
H771 H 0.12777 0.64349 0.60275 0.0
H772 H 0.12545 0.58239 0.63366 0.0
H773 H 0.12559 0.60271 0.62058 0.0
C774 C 0.49757 0.05726 0.64547 0.0
C775 C 0.50678 0.04809 0.64913 0.0
C776 C 0.48636 0.05318 0.63756 0.0
C777 C 0.47593 0.02784 0.61235 0.0
H778 H 0.44071 0.04029 0.61622 0.0
C779 C 0.43365 0.01006 0.57608 0.0
C780 C 0.42553 0.01973 0.57123 0.0
C781 C 0.44215 0.01282 0.58704 0.0
C782 C 0.45052 0.03681 0.61495 0.0
H783 H 0.51099 0.02729 0.64801 0.0
H784 H 0.49145 0.02022 0.63432 0.0
H785 H 0.45813 0.04646 0.63294 0.0
H786 H 0.41956 0.0397 0.57446 0.0
H787 H 0.43468 0.04467 0.59342 0.0
H788 H 0.46862 0.01855 0.59425 0.0
C789 C 0.49301 0.0306 0.63737 0.0
C790 C 0.46048 0.04032 0.62454 0.0
C791 C 0.50417 0.03465 0.64528 0.0
C792 C 0.42568 0.03203 0.57797 0.0
C793 C 0.43432 0.03486 0.58888 0.0
C794 C 0.46605 0.02441 0.60277 0.0
C795 C 0.48416 0.03988 0.63313 0.0
C796 C 0.4733 0.03587 0.62334 0.0
C797 C 0.4429 0.02539 0.59334 0.0
C798 C 0.4532 0.02883 0.60391 0.0
H799 H 0.49926 0.06768 0.6483 0.0
H800 H 0.47976 0.06059 0.63442 0.0
H801 H 0.48578 0.02449 0.61095 0.0
H802 H 0.43365 0.00041 0.57124 0.0
H803 H 0.44834 0.00515 0.59041 0.0
C804 C 0.09607 0.42924 0.58235 0.0
C805 C 0.08416 0.42256 0.57736 0.0
C806 C 0.09601 0.43714 0.59383 0.0
C807 C 0.07308 0.45658 0.61255 0.0
H808 H 0.10327 0.46226 0.63698 0.0
C809 C 0.08375 0.50513 0.64238 0.0
C810 C 0.08902 0.50469 0.65541 0.0
C811 C 0.08199 0.49359 0.63457 0.0
C812 C 0.09466 0.46067 0.63038 0.0
H813 H 0.063 0.41826 0.58103 0.0
H814 H 0.06293 0.43188 0.60118 0.0
H815 H 0.10258 0.44407 0.62074 0.0
H816 H 0.09628 0.49162 0.67054 0.0
H817 H 0.09314 0.47137 0.65685 0.0
H818 H 0.06519 0.47319 0.62211 0.0
C819 C 0.07227 0.43125 0.59604 0.0
C820 C 0.09434 0.45033 0.62097 0.0
C821 C 0.07233 0.42338 0.58452 0.0
C822 C 0.09221 0.49232 0.66055 0.0
C823 C 0.09048 0.48073 0.65268 0.0
C824 C 0.0734 0.46688 0.62196 0.0
C825 C 0.08404 0.43851 0.60064 0.0
C826 C 0.08368 0.44835 0.61174 0.0
C827 C 0.08545 0.48127 0.63956 0.0
C828 C 0.08434 0.46926 0.63076 0.0
H829 H 0.10538 0.42882 0.57709 0.0
H830 H 0.10524 0.44268 0.59698 0.0
H831 H 0.06477 0.45545 0.60555 0.0
H832 H 0.08118 0.51447 0.63808 0.0
H833 H 0.07829 0.49443 0.62445 0.0
C834 C 0.65809 0.07926 0.5736 0.0
C835 C 0.66311 0.06698 0.57061 0.0
C836 C 0.65017 0.08058 0.5848 0.0
C837 C 0.63974 0.06504 0.61688 0.0
H838 H 0.60667 0.08105 0.6096 0.0
C839 C 0.59389 0.05844 0.65146 0.0
C840 C 0.58541 0.06883 0.65218 0.0
C841 C 0.60474 0.05932 0.6428 0.0
C842 C 0.61595 0.07679 0.61195 0.0
H843 H 0.66432 0.04664 0.57746 0.0
H844 H 0.6505 0.04897 0.59702 0.0
H845 H 0.62337 0.08076 0.59235 0.0
H846 H 0.58219 0.08867 0.64502 0.0
H847 H 0.60131 0.09039 0.63028 0.0
H848 H 0.63225 0.06098 0.63649 0.0
C849 C 0.65271 0.05758 0.5907 0.0
C850 C 0.62553 0.0766 0.60201 0.0
C851 C 0.66058 0.05624 0.57945 0.0
C852 C 0.58843 0.08041 0.64458 0.0
C853 C 0.59935 0.08135 0.63605 0.0
C854 C 0.63017 0.06531 0.62689 0.0
C855 C 0.64715 0.06967 0.59332 0.0
C856 C 0.63748 0.07062 0.6043 0.0
C857 C 0.60745 0.07068 0.63477 0.0
C858 C 0.61809 0.07108 0.62451 0.0
H859 H 0.6599 0.08777 0.56705 0.0
H860 H 0.64619 0.09008 0.58667 0.0
H861 H 0.64891 0.06046 0.61898 0.0
H862 H 0.59182 0.04937 0.65716 0.0
H863 H 0.61066 0.05085 0.64202 0.0
C864 C 0.08115 0.41231 0.48166 0.0
C865 C 0.08922 0.41717 0.49248 0.0
C866 C 0.08076 0.41963 0.46981 0.0
C867 C 0.09847 0.44783 0.45129 0.0
H868 H 0.06324 0.45281 0.43694 0.0
C869 C 0.09132 0.48534 0.40889 0.0
C870 C 0.08121 0.49391 0.41107 0.0
C871 C 0.09207 0.47384 0.41663 0.0
C872 C 0.07316 0.45151 0.4408 0.0
H873 H 0.1036 0.43328 0.49908 0.0
H874 H 0.10283 0.44601 0.4786 0.0
H875 H 0.06567 0.43669 0.45474 0.0
H876 H 0.06357 0.49674 0.42265 0.0
H877 H 0.06496 0.47688 0.43618 0.0
H878 H 0.10589 0.46315 0.43787 0.0
C879 C 0.09689 0.43651 0.47916 0.0
C880 C 0.07457 0.44215 0.45091 0.0
C881 C 0.09725 0.42923 0.49098 0.0
C882 C 0.07151 0.49039 0.42072 0.0
C883 C 0.07226 0.47892 0.42843 0.0
C884 C 0.09706 0.4572 0.44119 0.0
C885 C 0.08848 0.43192 0.46851 0.0
C886 C 0.0872 0.44045 0.45652 0.0
C887 C 0.08271 0.47064 0.42669 0.0
C888 C 0.08435 0.4594 0.43606 0.0
H889 H 0.07487 0.40304 0.48247 0.0
H890 H 0.07428 0.41576 0.46174 0.0
H891 H 0.10837 0.44663 0.45524 0.0
H892 H 0.09891 0.48771 0.40149 0.0
H893 H 0.10014 0.46758 0.4149 0.0
C894 C 0.59644 0.0383 0.40753 0.0
C895 C 0.59113 0.02488 0.40747 0.0
C896 C 0.60735 0.04245 0.41578 0.0
C897 C 0.6353 0.03069 0.43545 0.0
H898 H 0.62977 0.06043 0.45883 0.0
C899 C 0.6653 0.04056 0.48443 0.0
C900 C 0.66755 0.05372 0.48924 0.0
C901 C 0.65763 0.03779 0.47286 0.0
C902 C 0.63168 0.0523 0.45222 0.0
H903 H 0.59354 0.00519 0.41553 0.0
H904 H 0.61266 0.01243 0.42977 0.0
H905 H 0.61362 0.05431 0.44113 0.0
H906 H 0.66421 0.07438 0.48526 0.0
H907 H 0.65127 0.06962 0.46485 0.0
H908 H 0.65335 0.02863 0.44651 0.0
C909 C 0.60835 0.01974 0.42348 0.0
C910 C 0.62237 0.04878 0.44208 0.0
C911 C 0.59735 0.01561 0.41538 0.0
C912 C 0.66253 0.06411 0.48189 0.0
C913 C 0.65502 0.06136 0.47022 0.0
C914 C 0.64472 0.03432 0.44549 0.0
C915 C 0.61329 0.03325 0.42398 0.0
C916 C 0.62395 0.03779 0.43375 0.0
C917 C 0.65218 0.04813 0.46572 0.0
C918 C 0.64291 0.04502 0.45418 0.0
H919 H 0.59187 0.04568 0.40156 0.0
H920 H 0.61102 0.05292 0.41591 0.0
H921 H 0.63683 0.02226 0.42907 0.0
H922 H 0.66897 0.03232 0.48989 0.0
H923 H 0.65555 0.02745 0.46985 0.0
C924 C 0.10461 0.57709 0.40826 0.0
C925 C 0.09326 0.5752 0.3999 0.0
C926 C 0.10675 0.5885 0.41624 0.0
C927 C 0.08805 0.61295 0.43322 0.0
H928 H 0.12325 0.63046 0.44082 0.0
C929 C 0.09637 0.65326 0.47438 0.0
C930 C 0.10738 0.65191 0.4829 0.0
C931 C 0.09495 0.64605 0.46241 0.0
C932 C 0.11336 0.62565 0.43885 0.0
H933 H 0.07555 0.58416 0.39296 0.0
H934 H 0.07929 0.6041 0.40699 0.0
H935 H 0.12033 0.61392 0.42294 0.0
H936 H 0.12577 0.64226 0.48529 0.0
H937 H 0.1232 0.62958 0.46466 0.0
H938 H 0.08114 0.62424 0.44945 0.0
C939 C 0.08647 0.59667 0.40739 0.0
C940 C 0.11169 0.61619 0.42858 0.0
C941 C 0.08438 0.58528 0.3993 0.0
C942 C 0.11716 0.64355 0.47898 0.0
C943 C 0.11573 0.63633 0.46706 0.0
C944 C 0.08973 0.62235 0.44354 0.0
C945 C 0.09755 0.59828 0.41613 0.0
C946 C 0.09907 0.60953 0.42584 0.0
C947 C 0.10451 0.63732 0.4587 0.0
C948 C 0.10246 0.6286 0.44669 0.0
H949 H 0.11167 0.56955 0.40895 0.0
H950 H 0.11532 0.58937 0.42295 0.0
H951 H 0.07823 0.60789 0.43146 0.0
H952 H 0.0887 0.65967 0.47707 0.0
H953 H 0.08628 0.64719 0.45613 0.0
C954 C 0.43932 -0.01479 0.48704 0.0
C955 C 0.43221 -0.00418 0.4914 0.0
C956 C 0.44673 -0.01368 0.47532 0.0
C957 C 0.46427 0.01197 0.45451 0.0
H958 H 0.46871 -0.0178 0.43078 0.0
C959 C 0.50171 0.01724 0.41154 0.0
C960 C 0.51002 0.00676 0.41023 0.0
C961 C 0.4903 0.01571 0.41943 0.0
C962 C 0.46762 -0.00941 0.43734 0.0
H963 H 0.42673 0.01566 0.48649 0.0
H964 H 0.43959 0.01756 0.466 0.0
H965 H 0.45198 0.97983 0.44827 0.0
H966 H 0.51247 -0.01378 0.41568 0.0
H967 H 0.49275 -0.01638 0.42958 0.0
H968 H 0.48014 0.02261 0.44393 0.0
C969 C 0.43959 0.00845 0.47175 0.0
C970 C 0.45802 -0.01076 0.44736 0.0
C971 C 0.43216 0.00733 0.48346 0.0
C972 C 0.50631 -0.00549 0.41648 0.0
C973 C 0.49493 -0.00701 0.4244 0.0
C974 C 0.47387 0.01331 0.44454 0.0
C975 C 0.4472 -0.00192 0.4677 0.0
C976 C 0.45638 -0.00015 0.45619 0.0
C977 C 0.48695 0.00368 0.42623 0.0
C978 C 0.47582 0.00258 0.43595 0.0
H979 H 0.43956 0.97619 0.49289 0.0
H980 H 0.45256 0.97818 0.47257 0.0
H981 H 0.46344 0.02027 0.46127 0.0
H982 H 0.5042 0.02678 0.40678 0.0
H983 H 0.48425 0.02406 0.42041 0.0
C984 C 0.05978 0.23762 0.50931 0.0
C985 C 0.05833 0.23045 0.5213 0.0
C986 C 0.06201 0.25157 0.50945 0.0
C987 C 0.07415 0.27999 0.53104 0.0
H988 H 0.05501 0.30088 0.50594 0.0
C989 C 0.0859 0.33706 0.52538 0.0
C990 C 0.07489 0.34477 0.52442 0.0
C991 C 0.08409 0.32311 0.52465 0.0
C992 C 0.06039 0.29519 0.51305 0.0
H993 H 0.05813 0.23232 0.54285 0.0
H994 H 0.06199 0.25663 0.54308 0.0
H995 H 0.05137 0.27654 0.50552 0.0
H996 H 0.05336 0.34384 0.5218 0.0
H997 H 0.05023 0.31952 0.52055 0.0
H998 H 0.08302 0.29865 0.53871 0.0
C999 C 0.06151 0.25146 0.53357 0.0
C1000 C 0.0584 0.28124 0.51272 0.0
C1001 C 0.05922 0.23753 0.53343 0.0
C1002 C 0.06206 0.33821 0.52257 0.0
C1003 C 0.06027 0.32427 0.52178 0.0
C1004 C 0.07619 0.29394 0.53133 0.0
C1005 C 0.06291 0.25865 0.52158 0.0
C1006 C 0.06521 0.27348 0.52175 0.0
C1007 C 0.07125 0.31655 0.52288 0.0
C1008 C 0.06929 0.30171 0.52237 0.0
H1009 H 0.05917 0.23248 0.4998 0.0
H1010 H 0.06318 0.25679 0.50005 0.0
H1011 H 0.07965 0.2743 0.53805 0.0
H1012 H 0.09592 0.34179 0.52679 0.0
H1013 H 0.09278 0.31747 0.52538 0.0
C1014 C 0.74315 0.06041 0.52202 0.0
C1015 C 0.73466 0.04881 0.52438 0.0
C1016 C 0.75687 0.05965 0.5203 0.0
C1017 C 0.78406 0.03774 0.5268 0.0
H1018 H 0.8027 0.05962 0.49995 0.0
C1019 C 0.8381 0.04251 0.49828 0.0
C1020 C 0.84677 0.04116 0.50921 0.0
C1021 C 0.82449 0.0437 0.50022 0.0
C1022 C 0.79763 0.05337 0.50743 0.0
H1023 H 0.73392 0.0273 0.52673 0.0
H1024 H 0.75778 0.02596 0.52355 0.0
H1025 H 0.77882 0.06096 0.50299 0.0
H1026 H 0.84793 0.04014 0.53079 0.0
H1027 H 0.82424 0.04238 0.53419 0.0
H1028 H 0.8028 0.02991 0.53102 0.0
C1029 C 0.75389 0.03568 0.52324 0.0
C1030 C 0.78396 0.05426 0.50928 0.0
C1031 C 0.74019 0.03644 0.52498 0.0
C1032 C 0.84152 0.04111 0.52214 0.0
C1033 C 0.82792 0.04231 0.52409 0.0
C1034 C 0.79773 0.03685 0.52494 0.0
C1035 C 0.76241 0.04727 0.52087 0.0
C1036 C 0.77699 0.04644 0.51898 0.0
C1037 C 0.81922 0.04358 0.51315 0.0
C1038 C 0.80469 0.04464 0.51521 0.0
H1039 H 0.73923 0.07011 0.52154 0.0
H1040 H 0.76315 0.0688 0.51867 0.0
H1041 H 0.77905 0.03168 0.53445 0.0
H1042 H 0.8418 0.04255 0.48818 0.0
H1043 H 0.81806 0.04447 0.49157 0.0
C1044 C 0.05602 0.83335 0.54649 0.0
C1045 C 0.06223 0.84232 0.5373 0.0
C1046 C 0.05848 0.81985 0.54633 0.0
C1047 C 0.07201 0.79417 0.52456 0.0
H1048 H 0.07197 0.77386 0.55739 0.0
C1049 C 0.08867 0.7405 0.52762 0.0
C1050 C 0.07972 0.73109 0.53397 0.0
C1051 C 0.08687 0.75414 0.52829 0.0
C1052 C 0.07195 0.77942 0.54815 0.0
H1053 H 0.07618 0.84427 0.52097 0.0
H1054 H 0.08089 0.82091 0.521 0.0
H1055 H 0.06854 0.7976 0.55815 0.0
H1056 H 0.06205 0.72864 0.54622 0.0
H1057 H 0.05909 0.75251 0.54759 0.0
H1058 H 0.07576 0.77597 0.51465 0.0
C1059 C 0.07377 0.82413 0.52807 0.0
C1060 C 0.06991 0.79301 0.54855 0.0
C1061 C 0.07114 0.83757 0.5281 0.0
C1062 C 0.06909 0.73564 0.5412 0.0
C1063 C 0.06743 0.7493 0.54204 0.0
C1064 C 0.07425 0.78063 0.5242 0.0
C1065 C 0.06738 0.81503 0.5371 0.0
C1066 C 0.06983 0.80058 0.53675 0.0
C1067 C 0.07623 0.75867 0.53549 0.0
C1068 C 0.07417 0.77311 0.53597 0.0
H1069 H 0.04904 0.83669 0.55364 0.0
H1070 H 0.05318 0.81317 0.55329 0.0
H1071 H 0.07175 0.79952 0.51522 0.0
H1072 H 0.09694 0.73731 0.52196 0.0
H1073 H 0.09385 0.76117 0.52322 0.0
C1074 C 0.3458 0.0159 0.54844 0.0
C1075 C 0.35351 0.02423 0.53974 0.0
C1076 C 0.33209 0.01707 0.54964 0.0
C1077 C 0.30557 0.03986 0.54138 0.0
H1078 H 0.28188 0.00814 0.54833 0.0
C1079 C 0.24791 0.03765 0.53596 0.0
C1080 C 0.24079 0.03294 0.54722 0.0
C1081 C 0.26166 0.03654 0.53515 0.0
C1082 C 0.28841 0.01707 0.54645 0.0
H1083 H 0.3529 0.0402 0.52532 0.0
H1084 H 0.32896 0.04185 0.5269 0.0
H1085 H 0.30584 0.00631 0.54653 0.0
H1086 H 0.24242 0.02312 0.56632 0.0
H1087 H 0.26642 0.02083 0.5647 0.0
H1088 H 0.28792 0.05045 0.5408 0.0
C1089 C 0.33348 0.03471 0.5332 0.0
C1090 C 0.30217 0.01608 0.5455 0.0
C1091 C 0.34723 0.03372 0.53221 0.0
C1092 C 0.24765 0.02687 0.55754 0.0
C1093 C 0.26135 0.02551 0.5566 0.0
C1094 C 0.29178 0.04078 0.54207 0.0
C1095 C 0.32569 0.02642 0.54196 0.0
C1096 C 0.31098 0.02747 0.54299 0.0
C1097 C 0.2685 0.03046 0.54546 0.0
C1098 C 0.28309 0.02941 0.54465 0.0
H1099 H 0.35038 0.00856 0.55445 0.0
H1100 H 0.32656 0.01069 0.5567 0.0
H1101 H 0.31196 0.04892 0.53973 0.0
H1102 H 0.24291 0.04241 0.52787 0.0
H1103 H 0.26695 0.04036 0.52643 0.0
C1104 C 0.59985 0.02574 0.23458 0.0
C1105 C 0.59307 0.03388 0.22592 0.0
C1106 C 0.59606 0.02427 0.2479 0.0
C1107 C 0.56823 0.02979 0.27107 0.0
H1108 H 0.59565 0.02638 0.29811 0.0
C1109 C 0.55903 0.0341 0.32783 0.0
C1110 C 0.56394 0.02413 0.33587 0.0
C1111 C 0.56232 0.03505 0.31433 0.0
C1112 C 0.58788 0.02722 0.29065 0.0
H1113 H 0.57704 0.04695 0.22446 0.0
H1114 H 0.57072 0.0448 0.24776 0.0
H1115 H 0.60193 0.02869 0.2748 0.0
H1116 H 0.57618 0.00737 0.33607 0.0
H1117 H 0.5821 0.0092 0.31254 0.0
H1118 H 0.55426 0.0287 0.28711 0.0
C1119 C 0.57874 0.03921 0.24423 0.0
C1120 C 0.59145 0.02849 0.27726 0.0
C1121 C 0.58241 0.04053 0.23086 0.0
C1122 C 0.57222 0.01515 0.33013 0.0
C1123 C 0.57567 0.01623 0.31669 0.0
C1124 C 0.5647 0.02871 0.28449 0.0
C1125 C 0.58551 0.03107 0.25295 0.0
C1126 C 0.58168 0.02975 0.26726 0.0
C1127 C 0.57074 0.02618 0.30865 0.0
C1128 C 0.57448 0.02737 0.29441 0.0
H1129 H 0.60804 0.0204 0.23105 0.0
H1130 H 0.60135 0.01769 0.25419 0.0
H1131 H 0.56038 0.03048 0.26368 0.0
H1132 H 0.55261 0.04115 0.33194 0.0
H1133 H 0.55845 0.04287 0.30838 0.0
C1134 C 0.053 0.56242 0.22513 0.0
C1135 C 0.05774 0.55282 0.21662 0.0
C1136 C 0.05486 0.56162 0.23894 0.0
C1137 C 0.06367 0.53786 0.26564 0.0
H1138 H 0.06824 0.57018 0.28703 0.0
C1139 C 0.07936 0.53864 0.32148 0.0
C1140 C 0.071 0.54519 0.32998 0.0
C1141 C 0.07805 0.53972 0.30763 0.0
C1142 C 0.06693 0.56108 0.28116 0.0
H1143 H 0.06846 0.53503 0.21588 0.0
H1144 H 0.07226 0.53393 0.23983 0.0
H1145 H 0.06574 0.57183 0.26289 0.0
H1146 H 0.05491 0.55823 0.33063 0.0
H1147 H 0.05288 0.56039 0.30641 0.0
H1148 H 0.06531 0.5272 0.284 0.0
C1149 C 0.06666 0.54184 0.23597 0.0
C1150 C 0.0654 0.56199 0.26732 0.0
C1151 C 0.06458 0.54251 0.22219 0.0
C1152 C 0.06148 0.55304 0.32434 0.0
C1153 C 0.06035 0.55433 0.3105 0.0
C1154 C 0.06545 0.53698 0.27945 0.0
C1155 C 0.06174 0.55132 0.24458 0.0
C1156 C 0.06366 0.55039 0.25934 0.0
C1157 C 0.06854 0.54758 0.30202 0.0
C1158 C 0.06701 0.54857 0.28734 0.0
H1159 H 0.0476 0.57043 0.22113 0.0
H1160 H 0.05068 0.56896 0.24518 0.0
H1161 H 0.06208 0.52867 0.25996 0.0
H1162 H 0.08677 0.53249 0.32552 0.0
H1163 H 0.08454 0.53447 0.3013 0.0
C1164 C 0.57988 0.03575 0.8288 0.0
C1165 C 0.58953 0.04501 0.8346 0.0
C1166 C 0.57642 0.03665 0.8153 0.0
C1167 C 0.58833 0.0526 0.78349 0.0
H1168 H 0.55206 0.04207 0.7716 0.0
C1169 C 0.56814 0.06352 0.73062 0.0
C1170 C 0.56149 0.05256 0.72386 0.0
C1171 C 0.57159 0.06257 0.74411 0.0
C1172 C 0.56224 0.04497 0.77479 0.0
H1173 H 0.60292 0.06266 0.83089 0.0
H1174 H 0.59652 0.06461 0.80755 0.0
H1175 H 0.55784 0.04079 0.79521 0.0
H1176 H 0.5531 0.03206 0.72599 0.0
H1177 H 0.55887 0.03052 0.74967 0.0
H1178 H 0.59253 0.05716 0.76302 0.0
C1179 C 0.59191 0.05635 0.81323 0.0
C1180 C 0.56561 0.04418 0.78832 0.0
C1181 C 0.59552 0.0553 0.82667 0.0
C1182 C 0.55825 0.04067 0.73091 0.0
C1183 C 0.56149 0.0398 0.74447 0.0
C1184 C 0.5849 0.05359 0.76999 0.0
C1185 C 0.58237 0.04698 0.80731 0.0
C1186 C 0.57872 0.04794 0.79287 0.0
C1187 C 0.56825 0.05071 0.75118 0.0
C1188 C 0.57184 0.04974 0.76551 0.0
H1189 H 0.57516 0.02764 0.83463 0.0
H1190 H 0.56923 0.02909 0.8111 0.0
H1191 H 0.59859 0.05532 0.78649 0.0
H1192 H 0.5708 0.07281 0.72545 0.0
H1193 H 0.57673 0.07115 0.74908 0.0
C1194 C 0.09857 0.52427 0.73815 0.0
C1195 C 0.09128 0.53223 0.72976 0.0
C1196 C 0.0955 0.52299 0.75167 0.0
C1197 C 0.06894 0.52874 0.77623 0.0
H1198 H 0.09785 0.52618 0.80183 0.0
C1199 C 0.06293 0.53447 0.83333 0.0
C1200 C 0.0684 0.52478 0.84132 0.0
C1201 C 0.06541 0.53505 0.81964 0.0
C1202 C 0.08967 0.52679 0.79478 0.0
H1203 H 0.07509 0.54515 0.72898 0.0
H1204 H 0.07003 0.54332 0.75261 0.0
H1205 H 0.1028 0.528 0.77816 0.0
H1206 H 0.08079 0.50813 0.84122 0.0
H1207 H 0.0853 0.50932 0.81735 0.0
H1208 H 0.0559 0.52793 0.79302 0.0
C1209 C 0.07789 0.53774 0.74873 0.0
C1210 C 0.09248 0.52776 0.78119 0.0
C1211 C 0.08084 0.53887 0.73517 0.0
C1212 C 0.07642 0.5157 0.83534 0.0
C1213 C 0.07906 0.51642 0.82169 0.0
C1214 C 0.06617 0.52795 0.78985 0.0
C1215 C 0.08519 0.5298 0.75719 0.0
C1216 C 0.08216 0.52872 0.7717 0.0
C1217 C 0.07357 0.52609 0.81371 0.0
C1218 C 0.0765 0.52693 0.79925 0.0
H1219 H 0.10661 0.51894 0.73426 0.0
H1220 H 0.10118 0.51657 0.75776 0.0
H1221 H 0.06069 0.52921 0.76926 0.0
H1222 H 0.0567 0.54159 0.83764 0.0
H1223 H 0.06114 0.54266 0.81373 0.0
C1224 C 0.25075 0.56417 0.01687 0.0
C1225 C 0.24319 0.55542 0.02535 0.0
C1226 C 0.26419 0.56246 0.01456 0.0
C1227 C 0.29359 0.54896 0.02903 0.0
H1228 H 0.30598 0.54759 -0.00735 0.0
C1229 C 0.34708 0.53594 0.01707 0.0
C1230 C 0.3535 0.54216 0.00608 0.0
C1231 C 0.3336 0.53741 0.01944 0.0
C1232 C 0.30279 0.54817 0.00288 0.0
H1233 H 0.24383 0.53815 0.0382 0.0
H1234 H 0.26745 0.53537 0.03438 0.0
H1235 H 0.28263 0.55078 -0.00314 0.0
H1236 H 0.35088 0.55499 -0.01092 0.0
H1237 H 0.32758 0.55803 -0.00652 0.0
H1238 H 0.31374 0.54681 0.03515 0.0
C1239 C 0.26291 0.54347 0.02946 0.0
C1240 C 0.28937 0.54993 0.00527 0.0
C1241 C 0.2494 0.54503 0.0316 0.0
C1242 C 0.34618 0.54998 -0.00242 0.0
C1243 C 0.33276 0.55164 6e-05 0.0
C1244 C 0.30707 0.54743 0.02666 0.0
C1245 C 0.2704 0.55211 0.02085 0.0
C1246 C 0.28464 0.5503 0.01836 0.0
C1247 C 0.32624 0.54532 0.01099 0.0
C1248 C 0.31186 0.54698 0.01355 0.0
H1249 H 0.24624 0.57224 0.01189 0.0
H1250 H 0.26978 0.5693 0.00794 0.0
H1251 H 0.29021 0.54935 0.03923 0.0
H1252 H 0.35244 0.52976 0.02375 0.0
H1253 H 0.32891 0.53217 0.0278 0.0
C1254 C 0.54939 0.33256 0.04477 0.0
C1255 C 0.55538 0.34095 0.03493 0.0
C1256 C 0.55167 0.31902 0.0452 0.0
C1257 C 0.57551 0.29526 0.03586 0.0
H1258 H 0.5452 0.26867 0.03704 0.0
C1259 C 0.58166 0.23902 0.02883 0.0
C1260 C 0.57307 0.22973 0.03571 0.0
C1261 C 0.57966 0.25263 0.02909 0.0
C1262 C 0.55382 0.27592 0.03696 0.0
H1263 H 0.56862 0.34178 0.01799 0.0
H1264 H 0.5728 0.31818 0.01894 0.0
H1265 H 0.54151 0.29233 0.03716 0.0
H1266 H 0.55585 0.22744 0.04858 0.0
H1267 H 0.55267 0.25117 0.0495 0.0
H1268 H 0.58789 0.27899 0.03601 0.0
C1269 C 0.56629 0.32208 0.02624 0.0
C1270 C 0.55167 0.28949 0.03696 0.0
C1271 C 0.56383 0.33556 0.02566 0.0
C1272 C 0.56258 0.23435 0.04307 0.0
C1273 C 0.5607 0.24798 0.04351 0.0
C1274 C 0.57769 0.2817 0.03607 0.0
C1275 C 0.56016 0.31366 0.03595 0.0
C1276 C 0.56249 0.29929 0.03632 0.0
C1277 C 0.56914 0.25731 0.03642 0.0
C1278 C 0.56687 0.27181 0.03654 0.0
H1279 H 0.54282 0.33641 0.05204 0.0
H1280 H 0.54688 0.31275 0.05283 0.0
H1281 H 0.58404 0.30263 0.0355 0.0
H1282 H 0.58978 0.23575 0.02299 0.0
H1283 H 0.58623 0.25942 0.02331 0.0
C1284 C 0.82129 0.51024 0.07304 0.0
C1285 C 0.82935 0.51305 0.06187 0.0
C1286 C 0.80861 0.51493 0.07377 0.0
C1287 C 0.78137 0.52467 0.05243 0.0
H1288 H 0.76831 0.53991 0.08478 0.0
C1289 C 0.72892 0.54384 0.05443 0.0
C1290 C 0.72156 0.5413 0.0661 0.0
C1291 C 0.74243 0.54152 0.054 0.0
C1292 C 0.77173 0.53553 0.07571 0.0
H1293 H 0.83051 0.52321 0.0428 0.0
H1294 H 0.80831 0.53129 0.04404 0.0
H1295 H 0.79128 0.53381 0.084 0.0
H1296 H 0.72265 0.53441 0.08653 0.0
H1297 H 0.74607 0.53002 0.08569 0.0
H1298 H 0.76179 0.52596 0.04422 0.0
C1299 C 0.81182 0.52543 0.05221 0.0
C1300 C 0.78491 0.53209 0.07526 0.0
C1301 C 0.82455 0.52087 0.05155 0.0
C1302 C 0.72805 0.53653 0.07739 0.0
C1303 C 0.74153 0.5341 0.07693 0.0
C1304 C 0.76815 0.52798 0.05291 0.0
C1305 C 0.80367 0.52241 0.06327 0.0
C1306 C 0.78985 0.52658 0.06363 0.0
C1307 C 0.74889 0.53649 0.06521 0.0
C1308 C 0.76313 0.53341 0.06458 0.0
H1309 H 0.8247 0.50426 0.08116 0.0
H1310 H 0.80252 0.51236 0.08237 0.0
H1311 H 0.78483 0.52026 0.04339 0.0
H1312 H 0.72423 0.54761 0.04558 0.0
H1313 H 0.74782 0.54372 0.04488 0.0
C1314 C 0.56103 0.73906 0.01296 0.0
C1315 C 0.55969 0.73165 0.02481 0.0
C1316 C 0.5632 0.753 0.01337 0.0
C1317 C 0.57519 0.7811 0.03551 0.0
H1318 H 0.55607 0.80226 0.01065 0.0
C1319 C 0.58681 0.83826 0.03058 0.0
C1320 C 0.57582 0.84597 0.02942 0.0
C1321 C 0.58501 0.82432 0.02983 0.0
C1322 C 0.56143 0.7965 0.01771 0.0
H1323 H 0.55963 0.73309 0.04639 0.0
H1324 H 0.56336 0.75739 0.04709 0.0
H1325 H 0.55253 0.77794 0.00986 0.0
H1326 H 0.55433 0.84505 0.0265 0.0
H1327 H 0.5512 0.82073 0.02525 0.0
H1328 H 0.58393 0.79966 0.04351 0.0
C1329 C 0.56286 0.75242 0.03748 0.0
C1330 C 0.55951 0.78255 0.01716 0.0
C1331 C 0.56064 0.73849 0.03708 0.0
C1332 C 0.56301 0.83942 0.02741 0.0
C1333 C 0.56122 0.82548 0.02662 0.0
C1334 C 0.57715 0.79504 0.03602 0.0
C1335 C 0.56413 0.75985 0.02563 0.0
C1336 C 0.56633 0.77468 0.02608 0.0
C1337 C 0.5722 0.81775 0.02785 0.0
C1338 C 0.57026 0.80291 0.02716 0.0
H1339 H 0.56037 0.7341 0.00335 0.0
H1340 H 0.5643 0.75841 0.00407 0.0
H1341 H 0.5807 0.77533 0.04244 0.0
H1342 H 0.59681 0.84299 0.0321 0.0
H1343 H 0.5937 0.81867 0.03065 0.0
loop_
_geom_bond_atom_site_label_1
_geom_bond_atom_site_label_2
_geom_bond_distance
_geom_bond_site_symmetry_2
_ccdc_geom_bond_type
O0 Cd1 2.300 . S
O0 C7 1.275 . S
Cd1 O0 2.300 . S
Cd1 O9 2.381 . S
Cd1 O10 2.378 . S
O2 Cd3 2.385 . S
O2 C7 1.255 . S
Cd3 O2 2.385 . S
Cd3 O4 2.317 . S
O4 Cd3 2.317 . S
O4 C5 1.232 . S
C5 O4 1.232 . S
C5 O6 1.218 . S
O6 C5 1.218 . S
C7 O0 1.275 . S
C7 O2 1.255 . S
C8 O9 1.258 . S
C8 O10 1.256 . S
O9 Cd1 2.381 . S
O9 C8 1.258 . S
O10 Cd1 2.378 . S
O10 C8 1.256 . S
O11 Cd12 2.300 . S
O11 C18 1.275 . S
Cd12 O11 2.300 . S
Cd12 O20 2.381 . S
Cd12 O21 2.378 . S
O13 Cd14 2.385 . S
O13 C18 1.255 . S
Cd14 O13 2.385 . S
Cd14 O15 2.317 . S
O15 Cd14 2.317 . S
O15 C16 1.232 . S
C16 O15 1.232 . S
C16 O17 1.218 . S
O17 C16 1.218 . S
C18 O11 1.275 . S
C18 O13 1.255 . S
C19 O20 1.258 . S
C19 O21 1.256 . S
O20 Cd12 2.381 . S
O20 C19 1.258 . S
O21 Cd12 2.378 . S
O21 C19 1.256 . S
O22 Cd23 2.300 . S
O22 C29 1.275 . S
Cd23 O22 2.300 . S
Cd23 O31 2.381 . S
Cd23 O32 2.378 . S
O24 Cd25 2.385 . S
O24 C29 1.255 . S
Cd25 O24 2.385 . S
Cd25 O26 2.317 . S
O26 Cd25 2.317 . S
O26 C27 1.232 . S
C27 O26 1.232 . S
C27 O28 1.218 . S
O28 C27 1.218 . S
C29 O22 1.275 . S
C29 O24 1.255 . S
C30 O31 1.258 . S
C30 O32 1.256 . S
O31 Cd23 2.381 . S
O31 C30 1.258 . S
O32 Cd23 2.378 . S
O32 C30 1.256 . S
O33 Cd34 2.300 . S
O33 C40 1.275 . S
Cd34 O33 2.300 . S
Cd34 O42 2.381 . S
Cd34 O43 2.378 . S
O35 Cd36 2.385 . S
O35 C40 1.255 . S
Cd36 O35 2.385 . S
Cd36 O37 2.317 . S
O37 Cd36 2.317 . S
O37 C38 1.232 . S
C38 O37 1.232 . S
C38 O39 1.218 . S
O39 C38 1.218 . S
C40 O33 1.275 . S
C40 O35 1.255 . S
C41 O42 1.258 . S
C41 O43 1.256 . S
O42 Cd34 2.381 . S
O42 C41 1.258 . S
O43 Cd34 2.378 . S
O43 C41 1.256 . S
O44 Cd45 2.300 . S
O44 C51 1.275 . S
Cd45 O44 2.300 . S
Cd45 O53 2.381 . S
Cd45 O54 2.378 . S
O46 Cd47 2.385 . S
O46 C51 1.255 . S
Cd47 O46 2.385 . S
Cd47 O48 2.317 . S
O48 Cd47 2.317 . S
O48 C49 1.232 . S
C49 O48 1.232 . S
C49 O50 1.218 . S
O50 C49 1.218 . S
C51 O44 1.275 . S
C51 O46 1.255 . S
C52 O53 1.258 . S
C52 O54 1.256 . S
O53 Cd45 2.381 . S
O53 C52 1.258 . S
O54 Cd45 2.378 . S
O54 C52 1.256 . S
O55 Cd56 2.300 . S
O55 C62 1.275 . S
Cd56 O55 2.300 . S
Cd56 O64 2.381 . S
Cd56 O65 2.378 . S
O57 Cd58 2.385 . S
O57 C62 1.255 . S
Cd58 O57 2.385 . S
Cd58 O59 2.317 . S
O59 Cd58 2.317 . S
O59 C60 1.232 . S
C60 O59 1.232 . S
C60 O61 1.218 . S
O61 C60 1.218 . S
C62 O55 1.275 . S
C62 O57 1.255 . S
C63 O64 1.258 . S
C63 O65 1.256 . S
O64 Cd56 2.381 . S
O64 C63 1.258 . S
O65 Cd56 2.378 . S
O65 C63 1.256 . S
O66 Cd67 2.300 . S
O66 C73 1.275 . S
Cd67 O66 2.300 . S
Cd67 O75 2.381 . S
Cd67 O76 2.378 . S
O68 Cd69 2.385 . S
O68 C73 1.255 . S
Cd69 O68 2.385 . S
Cd69 O70 2.317 . S
O70 Cd69 2.317 . S
O70 C71 1.232 . S
C71 O70 1.232 . S
C71 O72 1.218 . S
O72 C71 1.218 . S
C73 O66 1.275 . S
C73 O68 1.255 . S
C74 O75 1.258 . S
C74 O76 1.256 . S
O75 Cd67 2.381 . S
O75 C74 1.258 . S
O76 Cd67 2.378 . S
O76 C74 1.256 . S
O77 Cd78 2.300 . S
O77 C84 1.275 . S
Cd78 O77 2.300 . S
Cd78 O86 2.381 . S
Cd78 O87 2.378 . S
O79 Cd80 2.385 . S
O79 C84 1.255 . S
Cd80 O79 2.385 . S
Cd80 O81 2.317 . S
O81 Cd80 2.317 . S
O81 C82 1.232 . S
C82 O81 1.232 . S
C82 O83 1.218 . S
O83 C82 1.218 . S
C84 O77 1.275 . S
C84 O79 1.255 . S
C85 O86 1.258 . S
C85 O87 1.256 . S
O86 Cd78 2.381 . S
O86 C85 1.258 . S
O87 Cd78 2.378 . S
O87 C85 1.256 . S
O88 Cd89 2.300 . S
O88 C95 1.275 . S
Cd89 O88 2.300 . S
Cd89 O97 2.381 . S
Cd89 O98 2.378 . S
O90 Cd91 2.385 . S
O90 C95 1.255 . S
Cd91 O90 2.385 . S
Cd91 O92 2.317 . S
O92 Cd91 2.317 . S
O92 C93 1.232 . S
C93 O92 1.232 . S
C93 O94 1.218 . S
O94 C93 1.218 . S
C95 O88 1.275 . S
C95 O90 1.255 . S
C96 O97 1.258 . S
C96 O98 1.256 . S
O97 Cd89 2.381 . S
O97 C96 1.258 . S
O98 Cd89 2.378 . S
O98 C96 1.256 . S
O99 Cd100 2.300 . S
O99 C106 1.275 . S
Cd100 O99 2.300 . S
Cd100 O108 2.381 . S
Cd100 O109 2.378 . S
O101 Cd102 2.385 . S
O101 C106 1.255 . S
Cd102 O101 2.385 . S
Cd102 O103 2.317 . S
O103 Cd102 2.317 . S
O103 C104 1.232 . S
C104 O103 1.232 . S
C104 O105 1.218 . S
O105 C104 1.218 . S
C106 O99 1.275 . S
C106 O101 1.255 . S
C107 O108 1.258 . S
C107 O109 1.256 . S
O108 Cd100 2.381 . S
O108 C107 1.258 . S
O109 Cd100 2.378 . S
O109 C107 1.256 . S
O110 Cd111 2.300 . S
O110 C117 1.275 . S
Cd111 O110 2.300 . S
Cd111 O119 2.381 . S
Cd111 O120 2.378 . S
O112 Cd113 2.385 . S
O112 C117 1.255 . S
Cd113 O112 2.385 . S
Cd113 O114 2.317 . S
O114 Cd113 2.317 . S
O114 C115 1.232 . S
C115 O114 1.232 . S
C115 O116 1.218 . S
O116 C115 1.218 . S
C117 O110 1.275 . S
C117 O112 1.255 . S
C118 O119 1.258 . S
C118 O120 1.256 . S
O119 Cd111 2.381 . S
O119 C118 1.258 . S
O120 Cd111 2.378 . S
O120 C118 1.256 . S
O121 Cd122 2.300 . S
O121 C128 1.275 . S
Cd122 O121 2.300 . S
Cd122 O130 2.381 . S
Cd122 O131 2.378 . S
O123 Cd124 2.385 . S
O123 C128 1.255 . S
Cd124 O123 2.385 . S
Cd124 O125 2.317 . S
O125 Cd124 2.317 . S
O125 C126 1.232 . S
C126 O125 1.232 . S
C126 O127 1.218 . S
O127 C126 1.218 . S
C128 O121 1.275 . S
C128 O123 1.255 . S
C129 O130 1.258 . S
C129 O131 1.256 . S
O130 Cd122 2.381 . S
O130 C129 1.258 . S
O131 Cd122 2.378 . S
O131 C129 1.256 . S
O132 Cd133 2.300 . S
O132 C139 1.275 . S
Cd133 O132 2.300 . S
Cd133 O141 2.381 . S
Cd133 O142 2.378 . S
O134 Cd135 2.385 1_554 S
O134 C139 1.255 . S
Cd135 O134 2.385 1_556 S
Cd135 O136 2.317 1_556 S
O136 Cd135 2.317 1_554 S
O136 C137 1.232 . S
C137 O136 1.232 . S
C137 O138 1.218 . S
O138 C137 1.218 . S
C139 O132 1.275 . S
C139 O134 1.255 . S
C140 O141 1.258 . S
C140 O142 1.256 . S
O141 Cd133 2.381 . S
O141 C140 1.258 . S
O142 Cd133 2.378 . S
O142 C140 1.256 . S
O143 Cd144 2.300 . S
O143 C150 1.275 . S
Cd144 O143 2.300 . S
Cd144 O152 2.381 . S
Cd144 O153 2.378 . S
O145 Cd146 2.385 1_554 S
O145 C150 1.255 . S
Cd146 O145 2.385 1_556 S
Cd146 O147 2.317 1_556 S
O147 Cd146 2.317 1_554 S
O147 C148 1.232 . S
C148 O147 1.232 . S
C148 O149 1.218 . S
O149 C148 1.218 . S
C150 O143 1.275 . S
C150 O145 1.255 . S
C151 O152 1.258 . S
C151 O153 1.256 . S
O152 Cd144 2.381 . S
O152 C151 1.258 . S
O153 Cd144 2.378 . S
O153 C151 1.256 . S
O154 Cd155 2.300 . S
O154 C161 1.275 . S
Cd155 O154 2.300 . S
Cd155 O163 2.381 . S
Cd155 O164 2.378 . S
O156 Cd157 2.385 . S
O156 C161 1.255 . S
Cd157 O156 2.385 . S
Cd157 O158 2.317 . S
O158 Cd157 2.317 . S
O158 C159 1.232 . S
C159 O158 1.232 . S
C159 O160 1.218 . S
O160 C159 1.218 . S
C161 O154 1.275 . S
C161 O156 1.255 . S
C162 O163 1.258 . S
C162 O164 1.256 . S
O163 Cd155 2.381 . S
O163 C162 1.258 . S
O164 Cd155 2.378 . S
O164 C162 1.256 . S
O165 Cd166 2.300 . S
O165 C172 1.275 . S
Cd166 O165 2.300 . S
Cd166 O174 2.381 . S
Cd166 O175 2.378 . S
O167 Cd168 2.385 . S
O167 C172 1.255 . S
Cd168 O167 2.385 . S
Cd168 O169 2.317 . S
O169 Cd168 2.317 . S
O169 C170 1.232 . S
C170 O169 1.232 . S
C170 O171 1.218 . S
O171 C170 1.218 . S
C172 O165 1.275 . S
C172 O167 1.255 . S
C173 O174 1.258 . S
C173 O175 1.256 . S
O174 Cd166 2.381 . S
O174 C173 1.258 . S
O175 Cd166 2.378 . S
O175 C173 1.256 . S
O176 Cd177 2.300 . S
O176 C183 1.275 . S
Cd177 O176 2.300 . S
Cd177 O185 2.381 . S
Cd177 O186 2.378 . S
O178 Cd179 2.385 . S
O178 C183 1.255 . S
Cd179 O178 2.385 . S
Cd179 O180 2.317 . S
O180 Cd179 2.317 . S
O180 C181 1.232 . S
C181 O180 1.232 . S
C181 O182 1.218 . S
O182 C181 1.218 . S
C183 O176 1.275 . S
C183 O178 1.255 . S
C184 O185 1.258 . S
C184 O186 1.256 . S
O185 Cd177 2.381 . S
O185 C184 1.258 . S
O186 Cd177 2.378 . S
O186 C184 1.256 . S
O187 Cd188 2.300 . S
O187 C194 1.275 . S
Cd188 O187 2.300 . S
Cd188 O196 2.381 . S
Cd188 O197 2.378 . S
O189 Cd190 2.385 . S
O189 C194 1.255 . S
Cd190 O189 2.385 . S
Cd190 O191 2.317 . S
O191 Cd190 2.317 . S
O191 C192 1.232 . S
C192 O191 1.232 . S
C192 O193 1.218 . S
O193 C192 1.218 . S
C194 O187 1.275 . S
C194 O189 1.255 . S
C195 O196 1.258 . S
C195 O197 1.256 . S
O196 Cd188 2.381 . S
O196 C195 1.258 . S
O197 Cd188 2.378 . S
O197 C195 1.256 . S
O198 Cd199 2.300 . S
O198 C205 1.275 . S
Cd199 O198 2.300 . S
Cd199 O207 2.381 . S
Cd199 O208 2.378 . S
O200 Cd201 2.385 . S
O200 C205 1.255 . S
Cd201 O200 2.385 . S
Cd201 O202 2.317 . S
O202 Cd201 2.317 . S
O202 C203 1.232 . S
C203 O202 1.232 . S
C203 O204 1.218 . S
O204 C203 1.218 . S
C205 O198 1.275 . S
C205 O200 1.255 . S
C206 O207 1.258 . S
C206 O208 1.256 . S
O207 Cd199 2.381 . S
O207 C206 1.258 . S
O208 Cd199 2.378 . S
O208 C206 1.256 . S
O209 Cd210 2.300 . S
O209 C216 1.275 . S
Cd210 O209 2.300 . S
Cd210 O218 2.381 . S
Cd210 O219 2.378 . S
O211 Cd212 2.414 . S
O211 C216 1.255 . S
Cd212 O211 2.414 . S
Cd212 O213 2.344 . S
O213 Cd212 2.344 . S
O213 C214 1.232 . S
C214 O213 1.232 . S
C214 O215 1.218 . S
O215 C214 1.218 . S
C216 O209 1.275 . S
C216 O211 1.255 . S
C217 O218 1.258 . S
C217 O219 1.256 . S
O218 Cd210 2.381 . S
O218 C217 1.258 . S
O219 Cd210 2.378 . S
O219 C217 1.256 . S
O220 Cd221 2.300 . S
O220 C227 1.275 . S
Cd221 O220 2.300 . S
Cd221 O229 2.381 . S
Cd221 O230 2.378 . S
O222 Cd223 2.385 . S
O222 C227 1.255 . S
Cd223 O222 2.385 . S
Cd223 O224 2.317 . S
O224 Cd223 2.317 . S
O224 C225 1.232 . S
C225 O224 1.232 . S
C225 O226 1.218 . S
O226 C225 1.218 . S
C227 O220 1.275 . S
C227 O222 1.255 . S
C228 O229 1.258 . S
C228 O230 1.256 . S
O229 Cd221 2.381 . S
O229 C228 1.258 . S
O230 Cd221 2.378 . S
O230 C228 1.256 . S
O231 Cd232 2.300 . S
O231 C238 1.275 . S
Cd232 O231 2.300 . S
Cd232 O240 2.381 . S
Cd232 O241 2.378 . S
O233 Cd234 2.385 . S
O233 C238 1.255 . S
Cd234 O233 2.385 . S
Cd234 O235 2.317 . S
O235 Cd234 2.317 . S
O235 C236 1.232 . S
C236 O235 1.232 . S
C236 O237 1.218 . S
O237 C236 1.218 . S
C238 O231 1.275 . S
C238 O233 1.255 . S
C239 O240 1.258 . S
C239 O241 1.256 . S
O240 Cd232 2.381 . S
O240 C239 1.258 . S
O241 Cd232 2.378 . S
O241 C239 1.256 . S
O242 Cd243 2.300 . S
O242 C249 1.275 . S
Cd243 O242 2.300 . S
Cd243 O251 2.381 . S
Cd243 O252 2.378 . S
O244 Cd245 2.385 . S
O244 C249 1.255 . S
Cd245 O244 2.385 . S
Cd245 O246 2.317 . S
O246 Cd245 2.317 . S
O246 C247 1.232 . S
C247 O246 1.232 . S
C247 O248 1.218 . S
O248 C247 1.218 . S
C249 O242 1.275 . S
C249 O244 1.255 . S
C250 O251 1.258 . S
C250 O252 1.256 . S
O251 Cd243 2.381 . S
O251 C250 1.258 . S
O252 Cd243 2.378 . S
O252 C250 1.256 . S
O253 Cd254 2.300 . S
O253 C260 1.275 . S
Cd254 O253 2.300 . S
Cd254 O262 2.381 . S
Cd254 O263 2.378 . S
O255 Cd256 2.385 . S
O255 C260 1.255 . S
Cd256 O255 2.385 . S
Cd256 O257 2.317 . S
O257 Cd256 2.317 . S
O257 C258 1.232 . S
C258 O257 1.232 . S
C258 O259 1.218 . S
O259 C258 1.218 . S
C260 O253 1.275 . S
C260 O255 1.255 . S
C261 O262 1.258 . S
C261 O263 1.256 . S
O262 Cd254 2.381 . S
O262 C261 1.258 . S
O263 Cd254 2.378 . S
O263 C261 1.256 . S
C264 C265 1.349 . S
C264 C266 1.327 . S
C264 H289 0.950 . S
C265 C264 1.349 . S
C265 C281 1.349 . S
C266 C264 1.327 . S
C266 C285 1.429 . S
C266 H290 0.950 . S
C267 C284 1.574 . S
C267 C286 1.368 . S
C267 H291 0.949 . S
H268 C272 0.949 . S
C269 C270 1.349 . S
C269 C271 1.327 . S
C269 H292 0.950 . S
C270 C269 1.349 . S
C270 C282 1.349 . S
C271 C269 1.327 . S
C271 C287 1.429 . S
C271 H293 0.950 . S
C272 H268 0.949 . S
C272 C280 1.574 . S
C272 C288 1.368 . S
H273 C281 0.950 . S
H274 C279 0.950 . S
H275 C280 0.949 . S
H276 C282 0.950 . S
H277 C283 0.950 . S
H278 C284 0.949 . S
C279 H274 0.950 . S
C279 C281 1.327 . S
C279 C285 1.429 . S
C280 C272 1.574 . S
C280 H275 0.949 . S
C280 C286 1.368 . S
C281 C265 1.349 . S
C281 H273 0.950 . S
C281 C279 1.327 . S
C282 C270 1.349 . S
C282 H276 0.950 . S
C282 C283 1.327 . S
C283 H277 0.950 . S
C283 C282 1.327 . S
C283 C287 1.429 . S
C284 C267 1.574 . S
C284 H278 0.949 . S
C284 C288 1.368 . S
C285 C266 1.429 . S
C285 C279 1.429 . S
C285 C286 1.523 . S
C286 C267 1.368 . S
C286 C280 1.368 . S
C286 C285 1.523 . S
C287 C271 1.429 . S
C287 C283 1.429 . S
C287 C288 1.523 . S
C288 C272 1.368 . S
C288 C284 1.368 . S
C288 C287 1.523 . S
H289 C264 0.950 . S
H290 C266 0.950 . S
H291 C267 0.949 . S
H292 C269 0.950 . S
H293 C271 0.950 . S
C294 C295 1.349 . S
C294 C296 1.327 . S
C294 H319 0.950 . S
C295 C294 1.349 . S
C295 C311 1.349 . S
C296 C294 1.327 . S
C296 C315 1.429 . S
C296 H320 0.950 . S
C297 C314 1.574 . S
C297 C316 1.368 . S
C297 H321 0.949 . S
H298 C302 0.949 . S
C299 C300 1.349 . S
C299 C301 1.327 . S
C299 H322 0.950 . S
C300 C299 1.349 . S
C300 C312 1.349 . S
C301 C299 1.327 . S
C301 C317 1.429 . S
C301 H323 0.950 . S
C302 H298 0.949 . S
C302 C310 1.574 . S
C302 C318 1.368 . S
H303 C311 0.950 . S
H304 C309 0.950 . S
H305 C310 0.949 . S
H306 C312 0.950 . S
H307 C313 0.950 . S
H308 C314 0.949 1_455 S
C309 H304 0.950 . S
C309 C311 1.327 . S
C309 C315 1.429 . S
C310 C302 1.574 . S
C310 H305 0.949 . S
C310 C316 1.368 . S
C311 C295 1.349 . S
C311 H303 0.950 . S
C311 C309 1.327 . S
C312 C300 1.349 . S
C312 H306 0.950 . S
C312 C313 1.327 . S
C313 H307 0.950 . S
C313 C312 1.327 . S
C313 C317 1.429 . S
C314 C297 1.574 . S
C314 H308 0.949 1_655 S
C314 C318 1.368 . S
C315 C296 1.429 . S
C315 C309 1.429 . S
C315 C316 1.523 . S
C316 C297 1.368 . S
C316 C310 1.368 . S
C316 C315 1.523 . S
C317 C301 1.429 . S
C317 C313 1.429 . S
C317 C318 1.523 1_455 S
C318 C302 1.368 . S
C318 C314 1.368 . S
C318 C317 1.523 1_655 S
H319 C294 0.950 . S
H320 C296 0.950 . S
H321 C297 0.949 . S
H322 C299 0.950 . S
H323 C301 0.950 . S
C324 C325 1.349 . S
C324 C326 1.327 1_545 S
C324 H349 0.950 . S
C325 C324 1.349 . S
C325 C341 1.349 . S
C326 C324 1.327 1_565 S
C326 C345 1.429 . S
C326 H350 0.950 . S
C327 C344 1.574 . S
C327 C346 1.368 . S
C327 H351 0.949 . S
H328 C332 0.975 . S
C329 C330 1.349 . S
C329 C331 1.327 . S
C329 H352 0.950 . S
C330 C329 1.349 . S
C330 C342 1.349 . S
C331 C329 1.327 . S
C331 C347 1.429 . S
C331 H353 0.950 . S
C332 H328 0.975 . S
C332 C340 1.574 . S
C332 C348 1.368 . S
H333 C341 0.950 . S
H334 C339 0.950 . S
H335 C340 0.949 . S
H336 C342 0.950 . S
H337 C343 0.950 . S
H338 C344 0.949 . S
C339 H334 0.950 . S
C339 C341 1.327 . S
C339 C345 1.429 1_545 S
C340 C332 1.574 . S
C340 H335 0.949 . S
C340 C346 1.368 . S
C341 C325 1.349 . S
C341 H333 0.950 . S
C341 C339 1.327 . S
C342 C330 1.349 . S
C342 H336 0.950 . S
C342 C343 1.327 . S
C343 H337 0.950 . S
C343 C342 1.327 . S
C343 C347 1.429 . S
C344 C327 1.574 . S
C344 H338 0.949 . S
C344 C348 1.368 . S
C345 C326 1.429 . S
C345 C339 1.429 1_565 S
C345 C346 1.523 . S
C346 C327 1.368 . S
C346 C340 1.368 . S
C346 C345 1.523 . S
C347 C331 1.429 . S
C347 C343 1.429 . S
C347 C348 1.523 1_455 S
C348 C332 1.368 . S
C348 C344 1.368 . S
C348 C347 1.523 1_655 S
H349 C324 0.950 . S
H350 C326 0.950 . S
H351 C327 0.949 . S
H352 C329 0.950 . S
H353 C331 0.950 . S
C354 C355 1.349 . S
C354 C356 1.327 . S
C354 H379 0.950 . S
C355 C354 1.349 . S
C355 C371 1.349 . S
C356 C354 1.327 . S
C356 C375 1.429 . S
C356 H380 0.950 . S
C357 C374 1.574 . S
C357 C376 1.368 . S
C357 H381 0.949 . S
H358 C362 0.949 1_545 S
C359 C360 1.349 . S
C359 C361 1.327 . S
C359 H382 0.950 . S
C360 C359 1.349 . S
C360 C372 1.349 . S
C361 C359 1.327 . S
C361 C377 1.429 . S
C361 H383 0.950 . S
C362 H358 0.949 1_565 S
C362 C370 1.574 . S
C362 C378 1.368 . S
H363 C371 0.950 . S
H364 C369 0.950 . S
H365 C370 0.949 . S
H366 C372 0.950 . S
H367 C373 0.950 . S
H368 C374 0.949 . S
C369 H364 0.950 . S
C369 C371 1.327 . S
C369 C375 1.429 . S
C370 C362 1.574 . S
C370 H365 0.949 . S
C370 C376 1.368 . S
C371 C355 1.349 . S
C371 H363 0.950 . S
C371 C369 1.327 . S
C372 C360 1.349 . S
C372 H366 0.950 . S
C372 C373 1.327 . S
C373 H367 0.950 . S
C373 C372 1.327 . S
C373 C377 1.429 . S
C374 C357 1.574 . S
C374 H368 0.949 . S
C374 C378 1.368 . S
C375 C356 1.429 . S
C375 C369 1.429 . S
C375 C376 1.523 . S
C376 C357 1.368 . S
C376 C370 1.368 . S
C376 C375 1.523 . S
C377 C361 1.429 . S
C377 C373 1.429 . S
C377 C378 1.523 1_545 S
C378 C362 1.368 . S
C378 C374 1.368 . S
C378 C377 1.523 1_565 S
H379 C354 0.950 . S
H380 C356 0.950 . S
H381 C357 0.949 . S
H382 C359 0.950 . S
H383 C361 0.950 . S
C384 C385 1.349 . S
C384 C386 1.327 . S
C384 H409 0.950 . S
C385 C384 1.349 . S
C385 C401 1.349 . S
C386 C384 1.327 . S
C386 C405 1.429 . S
C386 H410 0.950 . S
C387 C404 1.574 . S
C387 C406 1.368 . S
C387 H411 0.949 . S
H388 C392 0.949 . S
C389 C390 1.349 . S
C389 C391 1.327 . S
C389 H412 0.950 . S
C390 C389 1.349 . S
C390 C402 1.349 . S
C391 C389 1.327 . S
C391 C407 1.429 . S
C391 H413 0.950 . S
C392 H388 0.949 . S
C392 C400 1.574 . S
C392 C408 1.368 . S
H393 C401 0.950 . S
H394 C399 0.950 . S
H395 C400 0.949 . S
H396 C402 0.950 . S
H397 C403 0.950 . S
H398 C404 0.949 . S
C399 H394 0.950 . S
C399 C401 1.327 . S
C399 C405 1.429 . S
C400 C392 1.574 . S
C400 H395 0.949 . S
C400 C406 1.368 . S
C401 C385 1.349 . S
C401 H393 0.950 . S
C401 C399 1.327 . S
C402 C390 1.349 . S
C402 H396 0.950 . S
C402 C403 1.327 . S
C403 H397 0.950 . S
C403 C402 1.327 . S
C403 C407 1.429 . S
C404 C387 1.574 . S
C404 H398 0.949 . S
C404 C408 1.368 . S
C405 C386 1.429 . S
C405 C399 1.429 . S
C405 C406 1.523 . S
C406 C387 1.368 . S
C406 C400 1.368 . S
C406 C405 1.523 . S
C407 C391 1.429 . S
C407 C403 1.429 . S
C407 C408 1.523 . S
C408 C392 1.368 . S
C408 C404 1.368 . S
C408 C407 1.523 . S
H409 C384 0.950 . S
H410 C386 0.950 . S
H411 C387 0.949 . S
H412 C389 0.950 . S
H413 C391 0.950 . S
C414 C415 1.349 . S
C414 C416 1.327 . S
C414 H439 0.950 . S
C415 C414 1.349 . S
C415 C431 1.349 . S
C416 C414 1.327 . S
C416 C435 1.429 . S
C416 H440 0.950 . S
C417 C434 1.574 . S
C417 C436 1.368 . S
C417 H441 0.949 . S
H418 C422 0.949 . S
C419 C420 1.349 . S
C419 C421 1.327 . S
C419 H442 0.950 . S
C420 C419 1.349 . S
C420 C432 1.349 . S
C421 C419 1.327 . S
C421 C437 1.429 . S
C421 H443 0.950 . S
C422 H418 0.949 . S
C422 C430 1.574 . S
C422 C438 1.368 . S
H423 C431 0.950 . S
H424 C429 0.950 1_655 S
H425 C430 0.949 . S
H426 C432 0.950 . S
H427 C433 0.950 . S
H428 C434 0.949 . S
C429 H424 0.950 1_455 S
C429 C431 1.327 . S
C429 C435 1.429 . S
C430 C422 1.574 . S
C430 H425 0.949 . S
C430 C436 1.368 . S
C431 C415 1.349 . S
C431 H423 0.950 . S
C431 C429 1.327 . S
C432 C420 1.349 . S
C432 H426 0.950 . S
C432 C433 1.327 . S
C433 H427 0.950 . S
C433 C432 1.327 . S
C433 C437 1.429 . S
C434 C417 1.574 . S
C434 H428 0.949 . S
C434 C438 1.368 . S
C435 C416 1.429 . S
C435 C429 1.429 . S
C435 C436 1.523 1_455 S
C436 C417 1.368 . S
C436 C430 1.368 . S
C436 C435 1.523 1_655 S
C437 C421 1.429 . S
C437 C433 1.429 . S
C437 C438 1.523 . S
C438 C422 1.368 . S
C438 C434 1.368 . S
C438 C437 1.523 . S
H439 C414 0.950 . S
H440 C416 0.950 . S
H441 C417 0.949 . S
H442 C419 0.950 . S
H443 C421 0.950 . S
C444 C445 1.349 . S
C444 C446 1.327 . S
C444 H469 0.950 . S
C445 C444 1.349 . S
C445 C461 1.349 . S
C446 C444 1.327 . S
C446 C465 1.429 . S
C446 H470 0.950 . S
C447 C464 1.574 1_545 S
C447 C466 1.368 . S
C447 H471 0.949 . S
H448 C452 0.949 . S
C449 C450 1.349 . S
C449 C451 1.327 . S
C449 H472 0.950 . S
C450 C449 1.349 . S
C450 C462 1.349 . S
C451 C449 1.327 . S
C451 C467 1.429 . S
C451 H473 0.950 . S
C452 H448 0.949 . S
C452 C460 1.574 . S
C452 C468 1.368 . S
H453 C461 0.950 . S
H454 C459 0.950 . S
H455 C460 0.949 . S
H456 C462 0.950 . S
H457 C463 0.950 . S
H458 C464 0.949 . S
C459 H454 0.950 . S
C459 C461 1.327 . S
C459 C465 1.429 . S
C460 C452 1.574 . S
C460 H455 0.949 . S
C460 C466 1.368 1_565 S
C461 C445 1.349 . S
C461 H453 0.950 . S
C461 C459 1.327 . S
C462 C450 1.349 . S
C462 H456 0.950 . S
C462 C463 1.327 . S
C463 H457 0.950 . S
C463 C462 1.327 . S
C463 C467 1.429 . S
C464 C447 1.574 1_565 S
C464 H458 0.949 . S
C464 C468 1.368 . S
C465 C446 1.429 . S
C465 C459 1.429 . S
C465 C466 1.523 . S
C466 C447 1.368 . S
C466 C460 1.368 1_545 S
C466 C465 1.523 . S
C467 C451 1.429 . S
C467 C463 1.429 . S
C467 C468 1.523 . S
C468 C452 1.368 . S
C468 C464 1.368 . S
C468 C467 1.523 . S
H469 C444 0.950 . S
H470 C446 0.950 . S
H471 C447 0.949 . S
H472 C449 0.950 . S
H473 C451 0.950 . S
C474 C475 1.349 . S
C474 C476 1.327 . S
C474 H499 0.950 . S
C475 C474 1.349 . S
C475 C491 1.349 . S
C476 C474 1.327 . S
C476 C495 1.429 . S
C476 H500 0.950 . S
C477 C494 1.574 . S
C477 C496 1.368 . S
C477 H501 0.949 . S
H478 C482 0.949 . S
C479 C480 1.349 . S
C479 C481 1.327 . S
C479 H502 0.950 . S
C480 C479 1.349 . S
C480 C492 1.349 . S
C481 C479 1.327 . S
C481 C497 1.429 . S
C481 H503 0.950 . S
C482 H478 0.949 . S
C482 C490 1.574 . S
C482 C498 1.368 . S
H483 C491 0.950 . S
H484 C489 0.950 . S
H485 C490 0.949 . S
H486 C492 0.950 . S
H487 C493 0.950 . S
H488 C494 0.949 . S
C489 H484 0.950 . S
C489 C491 1.327 . S
C489 C495 1.429 . S
C490 C482 1.574 . S
C490 H485 0.949 . S
C490 C496 1.368 . S
C491 C475 1.349 . S
C491 H483 0.950 . S
C491 C489 1.327 . S
C492 C480 1.349 . S
C492 H486 0.950 . S
C492 C493 1.327 . S
C493 H487 0.950 . S
C493 C492 1.327 . S
C493 C497 1.429 . S
C494 C477 1.574 . S
C494 H488 0.949 . S
C494 C498 1.368 . S
C495 C476 1.429 . S
C495 C489 1.429 . S
C495 C496 1.523 . S
C496 C477 1.368 . S
C496 C490 1.368 . S
C496 C495 1.523 . S
C497 C481 1.429 . S
C497 C493 1.429 . S
C497 C498 1.523 . S
C498 C482 1.368 . S
C498 C494 1.368 . S
C498 C497 1.523 . S
H499 C474 0.950 . S
H500 C476 0.950 . S
H501 C477 0.949 . S
H502 C479 0.950 . S
H503 C481 0.950 . S
C504 C505 1.349 . S
C504 C506 1.327 . S
C504 H529 0.950 . S
C505 C504 1.349 . S
C505 C521 1.349 . S
C506 C504 1.327 . S
C506 C525 1.429 1_545 S
C506 H530 0.950 . S
C507 C524 1.574 . S
C507 C526 1.368 . S
C507 H531 0.949 . S
H508 C512 0.977 . S
C509 C510 1.349 . S
C509 C511 1.327 . S
C509 H532 0.950 . S
C510 C509 1.349 . S
C510 C522 1.349 . S
C511 C509 1.327 . S
C511 C527 1.429 . S
C511 H533 0.950 . S
C512 H508 0.977 . S
C512 C520 1.574 . S
C512 C528 1.368 . S
H513 C521 0.950 . S
H514 C519 0.950 1_565 S
H515 C520 0.949 . S
H516 C522 0.950 . S
H517 C523 0.950 . S
H518 C524 0.949 . S
C519 H514 0.950 1_545 S
C519 C521 1.327 . S
C519 C525 1.429 1_545 S
C520 C512 1.574 . S
C520 H515 0.949 . S
C520 C526 1.368 . S
C521 C505 1.349 . S
C521 H513 0.950 . S
C521 C519 1.327 . S
C522 C510 1.349 . S
C522 H516 0.950 . S
C522 C523 1.327 . S
C523 H517 0.950 . S
C523 C522 1.327 . S
C523 C527 1.429 . S
C524 C507 1.574 . S
C524 H518 0.949 . S
C524 C528 1.368 . S
C525 C506 1.429 1_565 S
C525 C519 1.429 1_565 S
C525 C526 1.523 . S
C526 C507 1.368 . S
C526 C520 1.368 . S
C526 C525 1.523 . S
C527 C511 1.429 . S
C527 C523 1.429 . S
C527 C528 1.523 1_554 S
C528 C512 1.368 . S
C528 C524 1.368 . S
C528 C527 1.523 1_556 S
H529 C504 0.950 . S
H530 C506 0.950 . S
H531 C507 0.949 . S
H532 C509 0.950 . S
H533 C511 0.950 . S
C534 C535 1.349 . S
C534 C536 1.327 . S
C534 H559 0.950 . S
C535 C534 1.349 . S
C535 C551 1.349 . S
C536 C534 1.327 . S
C536 C555 1.429 . S
C536 H560 0.950 . S
C537 C554 1.574 . S
C537 C556 1.368 . S
C537 H561 0.949 . S
H538 C542 0.949 . S
C539 C540 1.349 . S
C539 C541 1.355 . S
C539 H562 0.950 . S
C540 C539 1.349 . S
C540 C552 1.349 . S
C541 C539 1.355 . S
C541 C557 1.420 1_554 S
C541 H563 0.932 1_554 S
C542 H538 0.949 . S
C542 C550 1.574 . S
C542 C558 1.368 . S
H543 C551 0.950 . S
H544 C549 0.950 . S
H545 C550 0.949 . S
H546 C552 0.950 . S
H547 C553 0.950 . S
H548 C554 0.949 . S
C549 H544 0.950 . S
C549 C551 1.327 . S
C549 C555 1.429 . S
C550 C542 1.574 . S
C550 H545 0.949 . S
C550 C556 1.368 . S
C551 C535 1.349 . S
C551 H543 0.950 . S
C551 C549 1.327 . S
C552 C540 1.349 . S
C552 H546 0.950 . S
C552 C553 1.327 . S
C553 H547 0.950 . S
C553 C552 1.327 . S
C553 C557 1.429 1_554 S
C554 C537 1.574 . S
C554 H548 0.949 . S
C554 C558 1.368 . S
C555 C536 1.429 . S
C555 C549 1.429 . S
C555 C556 1.523 . S
C556 C537 1.368 . S
C556 C550 1.368 . S
C556 C555 1.523 . S
C557 C541 1.420 1_556 S
C557 C553 1.429 1_556 S
C557 C558 1.523 . S
C558 C542 1.368 . S
C558 C554 1.368 . S
C558 C557 1.523 . S
H559 C534 0.950 . S
H560 C536 0.950 . S
H561 C537 0.949 . S
H562 C539 0.950 . S
H563 C541 0.932 1_556 S
C564 C565 1.349 1_556 S
C564 C566 1.327 . S
C564 H589 0.950 . S
C565 C564 1.349 1_554 S
C565 C581 1.349 . S
C566 C564 1.327 . S
C566 C585 1.429 . S
C566 H590 0.950 . S
C567 C584 1.574 . S
C567 C586 1.368 . S
C567 H591 0.949 . S
H568 C572 0.949 . S
C569 C570 1.349 . S
C569 C571 1.327 . S
C569 H592 0.950 . S
C570 C569 1.349 . S
C570 C582 1.349 . S
C571 C569 1.327 . S
C571 C587 1.429 . S
C571 H593 0.950 . S
C572 H568 0.949 . S
C572 C580 1.574 . S
C572 C588 1.368 . S
H573 C581 0.950 . S
H574 C579 0.950 . S
H575 C580 0.949 . S
H576 C582 0.950 . S
H577 C583 0.950 . S
H578 C584 0.949 . S
C579 H574 0.950 . S
C579 C581 1.327 . S
C579 C585 1.429 1_554 S
C580 C572 1.574 . S
C580 H575 0.949 . S
C580 C586 1.368 . S
C581 C565 1.349 . S
C581 H573 0.950 . S
C581 C579 1.327 . S
C582 C570 1.349 . S
C582 H576 0.950 . S
C582 C583 1.327 . S
C583 H577 0.950 . S
C583 C582 1.327 . S
C583 C587 1.429 . S
C584 C567 1.574 . S
C584 H578 0.949 . S
C584 C588 1.368 . S
C585 C566 1.429 . S
C585 C579 1.429 1_556 S
C585 C586 1.523 . S
C586 C567 1.368 . S
C586 C580 1.368 . S
C586 C585 1.523 . S
C587 C571 1.429 . S
C587 C583 1.429 . S
C587 C588 1.523 . S
C588 C572 1.368 . S
C588 C584 1.368 . S
C588 C587 1.523 . S
H589 C564 0.950 . S
H590 C566 0.950 . S
H591 C567 0.949 . S
H592 C569 0.950 . S
H593 C571 0.950 . S
C594 C595 1.349 . S
C594 C596 1.327 . S
C594 H619 0.950 . S
C595 C594 1.349 . S
C595 C611 1.349 . S
C596 C594 1.327 . S
C596 C615 1.429 . S
C596 H620 0.950 . S
C597 C614 1.574 . S
C597 C616 1.368 1_655 S
C597 H621 0.949 . S
H598 C602 0.949 . S
C599 C600 1.349 . S
C599 C601 1.327 1_554 S
C599 H622 0.950 . S
C600 C599 1.349 . S
C600 C612 1.349 . S
C601 C599 1.327 1_556 S
C601 C617 1.429 . S
C601 H623 0.950 . S
C602 H598 0.949 . S
C602 C610 1.574 1_655 S
C602 C618 1.368 . S
H603 C611 0.950 . S
H604 C609 0.950 . S
H605 C610 0.949 . S
H606 C612 0.950 . S
H607 C613 0.950 . S
H608 C614 0.949 . S
C609 H604 0.950 . S
C609 C611 1.327 . S
C609 C615 1.429 . S
C610 C602 1.574 1_455 S
C610 H605 0.949 . S
C610 C616 1.368 . S
C611 C595 1.349 . S
C611 H603 0.950 . S
C611 C609 1.327 . S
C612 C600 1.349 . S
C612 H606 0.950 . S
C612 C613 1.327 . S
C613 H607 0.950 . S
C613 C612 1.327 . S
C613 C617 1.429 1_554 S
C614 C597 1.574 . S
C614 H608 0.949 . S
C614 C618 1.368 . S
C615 C596 1.429 . S
C615 C609 1.429 . S
C615 C616 1.523 . S
C616 C597 1.368 1_455 S
C616 C610 1.368 . S
C616 C615 1.523 . S
C617 C601 1.429 . S
C617 C613 1.429 1_556 S
C617 C618 1.523 . S
C618 C602 1.368 . S
C618 C614 1.368 . S
C618 C617 1.523 . S
H619 C594 0.950 . S
H620 C596 0.950 . S
H621 C597 0.949 . S
H622 C599 0.950 . S
H623 C601 0.950 . S
C624 C625 1.349 . S
C624 C626 1.327 . S
C624 H649 0.950 . S
C625 C624 1.349 . S
C625 C641 1.349 . S
C626 C624 1.327 . S
C626 C645 1.429 . S
C626 H650 0.950 . S
C627 C644 1.574 . S
C627 C646 1.368 . S
C627 H651 0.949 . S
H628 C632 0.949 . S
C629 C630 1.349 . S
C629 C631 1.327 . S
C629 H652 0.950 . S
C630 C629 1.349 . S
C630 C642 1.349 . S
C631 C629 1.327 . S
C631 C647 1.429 . S
C631 H653 0.950 . S
C632 H628 0.949 . S
C632 C640 1.574 . S
C632 C648 1.368 . S
H633 C641 0.950 . S
H634 C639 0.950 . S
H635 C640 0.949 . S
H636 C642 0.950 . S
H637 C643 0.950 . S
H638 C644 0.949 . S
C639 H634 0.950 . S
C639 C641 1.327 . S
C639 C645 1.429 . S
C640 C632 1.574 . S
C640 H635 0.949 . S
C640 C646 1.368 . S
C641 C625 1.349 . S
C641 H633 0.950 . S
C641 C639 1.327 . S
C642 C630 1.349 . S
C642 H636 0.950 . S
C642 C643 1.327 . S
C643 H637 0.950 . S
C643 C642 1.327 . S
C643 C647 1.429 . S
C644 C627 1.574 . S
C644 H638 0.949 . S
C644 C648 1.368 . S
C645 C626 1.429 . S
C645 C639 1.429 . S
C645 C646 1.523 . S
C646 C627 1.368 . S
C646 C640 1.368 . S
C646 C645 1.523 . S
C647 C631 1.429 . S
C647 C643 1.429 . S
C647 C648 1.523 . S
C648 C632 1.368 . S
C648 C644 1.368 . S
C648 C647 1.523 . S
H649 C624 0.950 . S
H650 C626 0.950 . S
H651 C627 0.949 . S
H652 C629 0.950 . S
H653 C631 0.950 . S
C654 C655 1.349 . S
C654 C656 1.327 . S
C654 H679 0.950 1_554 S
C655 C654 1.349 . S
C655 C671 1.349 . S
C656 C654 1.327 . S
C656 C675 1.429 . S
C656 H680 0.950 1_554 S
C657 C674 1.574 . S
C657 C676 1.368 . S
C657 H681 0.949 . S
H658 C662 0.949 1_556 S
C659 C660 1.349 . S
C659 C661 1.327 . S
C659 H682 0.950 . S
C660 C659 1.349 . S
C660 C672 1.349 . S
C661 C659 1.327 . S
C661 C677 1.429 . S
C661 H683 0.950 . S
C662 H658 0.949 1_554 S
C662 C670 1.574 . S
C662 C678 1.368 . S
H663 C671 0.950 . S
H664 C669 0.950 . S
H665 C670 0.949 1_556 S
H666 C672 0.945 1_556 S
H667 C673 0.903 1_556 S
H668 C674 0.949 . S
C669 H664 0.950 . S
C669 C671 1.327 . S
C669 C675 1.429 . S
C670 C662 1.574 . S
C670 H665 0.949 1_554 S
C670 C676 1.368 . S
C671 C655 1.349 . S
C671 H663 0.950 . S
C671 C669 1.327 . S
C672 C660 1.349 . S
C672 H666 0.945 1_554 S
C672 C673 1.327 . S
C673 H667 0.903 1_554 S
C673 C672 1.327 . S
C673 C677 1.429 . S
C674 C657 1.574 . S
C674 H668 0.949 . S
C674 C678 1.368 . S
C675 C656 1.429 . S
C675 C669 1.429 . S
C675 C676 1.523 . S
C676 C657 1.368 . S
C676 C670 1.368 . S
C676 C675 1.523 . S
C677 C661 1.429 . S
C677 C673 1.429 . S
C677 C678 1.523 . S
C678 C662 1.368 . S
C678 C674 1.368 . S
C678 C677 1.523 . S
H679 C654 0.950 1_556 S
H680 C656 0.950 1_556 S
H681 C657 0.949 . S
H682 C659 0.950 . S
H683 C661 0.950 . S
C684 C685 1.349 . S
C684 C686 1.327 . S
C684 H709 0.950 . S
C685 C684 1.349 . S
C685 C701 1.349 . S
C686 C684 1.327 . S
C686 C705 1.429 . S
C686 H710 0.950 . S
C687 C704 1.574 . S
C687 C706 1.368 . S
C687 H711 0.949 . S
H688 C692 0.949 . S
C689 C690 1.349 . S
C689 C691 1.327 . S
C689 H712 0.950 . S
C690 C689 1.349 . S
C690 C702 1.349 . S
C691 C689 1.327 . S
C691 C707 1.429 . S
C691 H713 0.950 . S
C692 H688 0.949 . S
C692 C700 1.574 . S
C692 C708 1.368 . S
H693 C701 0.950 . S
H694 C699 0.950 . S
H695 C700 0.949 . S
H696 C702 0.950 . S
H697 C703 0.950 . S
H698 C704 0.949 . S
C699 H694 0.950 . S
C699 C701 1.327 . S
C699 C705 1.429 . S
C700 C692 1.574 . S
C700 H695 0.949 . S
C700 C706 1.368 . S
C701 C685 1.349 . S
C701 H693 0.950 . S
C701 C699 1.327 . S
C702 C690 1.349 . S
C702 H696 0.950 . S
C702 C703 1.327 . S
C703 H697 0.950 . S
C703 C702 1.327 . S
C703 C707 1.429 . S
C704 C687 1.574 . S
C704 H698 0.949 . S
C704 C708 1.368 . S
C705 C686 1.429 . S
C705 C699 1.429 . S
C705 C706 1.523 . S
C706 C687 1.368 . S
C706 C700 1.368 . S
C706 C705 1.523 . S
C707 C691 1.429 . S
C707 C703 1.429 . S
C707 C708 1.523 . S
C708 C692 1.368 . S
C708 C704 1.368 . S
C708 C707 1.523 . S
H709 C684 0.950 . S
H710 C686 0.950 . S
H711 C687 0.949 . S
H712 C689 0.950 . S
H713 C691 0.950 . S
C714 C715 1.349 . S
C714 C716 1.327 . S
C714 H739 0.950 . S
C715 C714 1.349 . S
C715 C731 1.349 . S
C716 C714 1.327 . S
C716 C735 1.429 . S
C716 H740 0.950 . S
C717 C734 1.574 . S
C717 C736 1.368 . S
C717 H741 0.949 . S
H718 C722 0.949 . S
C719 C720 1.349 . S
C719 C721 1.327 . S
C719 H742 0.950 . S
C720 C719 1.349 . S
C720 C732 1.349 . S
C721 C719 1.327 . S
C721 C737 1.429 . S
C721 H743 0.950 . S
C722 H718 0.949 . S
C722 C730 1.574 . S
C722 C738 1.368 . S
H723 C731 0.950 . S
H724 C729 0.950 . S
H725 C730 0.949 . S
H726 C732 0.950 . S
H727 C733 0.950 . S
H728 C734 0.949 . S
C729 H724 0.950 . S
C729 C731 1.327 . S
C729 C735 1.429 . S
C730 C722 1.574 . S
C730 H725 0.949 . S
C730 C736 1.368 . S
C731 C715 1.349 . S
C731 H723 0.950 . S
C731 C729 1.327 . S
C732 C720 1.349 . S
C732 H726 0.950 . S
C732 C733 1.327 . S
C733 H727 0.950 . S
C733 C732 1.327 . S
C733 C737 1.429 . S
C734 C717 1.574 . S
C734 H728 0.949 . S
C734 C738 1.368 . S
C735 C716 1.429 . S
C735 C729 1.429 . S
C735 C736 1.523 . S
C736 C717 1.368 . S
C736 C730 1.368 . S
C736 C735 1.523 . S
C737 C721 1.429 . S
C737 C733 1.429 . S
C737 C738 1.523 . S
C738 C722 1.368 . S
C738 C734 1.368 . S
C738 C737 1.523 . S
H739 C714 0.950 . S
H740 C716 0.950 . S
H741 C717 0.949 . S
H742 C719 0.950 . S
H743 C721 0.950 . S
C744 C745 1.349 . S
C744 C746 1.327 . S
C744 H769 0.950 . S
C745 C744 1.349 . S
C745 C761 1.349 . S
C746 C744 1.327 . S
C746 C765 1.429 . S
C746 H770 0.950 . S
C747 C764 1.574 . S
C747 C766 1.368 . S
C747 H771 0.949 . S
H748 C752 0.949 . S
C749 C750 1.349 . S
C749 C751 1.327 . S
C749 H772 0.950 . S
C750 C749 1.349 . S
C750 C762 1.349 . S
C751 C749 1.327 . S
C751 C767 1.429 . S
C751 H773 0.950 . S
C752 H748 0.949 . S
C752 C760 1.574 . S
C752 C768 1.368 . S
H753 C761 0.950 . S
H754 C759 0.950 . S
H755 C760 0.949 . S
H756 C762 0.950 . S
H757 C763 0.950 . S
H758 C764 0.949 . S
C759 H754 0.950 . S
C759 C761 1.327 . S
C759 C765 1.429 . S
C760 C752 1.574 . S
C760 H755 0.949 . S
C760 C766 1.368 . S
C761 C745 1.349 . S
C761 H753 0.950 . S
C761 C759 1.327 . S
C762 C750 1.349 . S
C762 H756 0.950 . S
C762 C763 1.327 . S
C763 H757 0.950 . S
C763 C762 1.327 . S
C763 C767 1.429 . S
C764 C747 1.574 . S
C764 H758 0.949 . S
C764 C768 1.368 . S
C765 C746 1.429 . S
C765 C759 1.429 . S
C765 C766 1.523 . S
C766 C747 1.368 . S
C766 C760 1.368 . S
C766 C765 1.523 . S
C767 C751 1.429 . S
C767 C763 1.429 . S
C767 C768 1.523 . S
C768 C752 1.368 . S
C768 C764 1.368 . S
C768 C767 1.523 . S
H769 C744 0.950 . S
H770 C746 0.950 . S
H771 C747 0.949 . S
H772 C749 0.950 . S
H773 C751 0.950 . S
C774 C775 1.349 . S
C774 C776 1.327 . S
C774 H799 0.950 . S
C775 C774 1.349 . S
C775 C791 1.349 . S
C776 C774 1.327 . S
C776 C795 1.429 . S
C776 H800 0.950 . S
C777 C794 1.574 . S
C777 C796 1.368 . S
C777 H801 0.949 . S
H778 C782 0.949 . S
C779 C780 1.349 . S
C779 C781 1.327 . S
C779 H802 0.950 . S
C780 C779 1.349 . S
C780 C792 1.349 . S
C781 C779 1.327 . S
C781 C797 1.429 . S
C781 H803 0.950 . S
C782 H778 0.949 . S
C782 C790 1.574 . S
C782 C798 1.368 . S
H783 C791 0.950 . S
H784 C789 0.950 . S
H785 C790 0.949 . S
H786 C792 0.950 . S
H787 C793 0.950 . S
H788 C794 0.949 . S
C789 H784 0.950 . S
C789 C791 1.327 . S
C789 C795 1.429 . S
C790 C782 1.574 . S
C790 H785 0.949 . S
C790 C796 1.368 . S
C791 C775 1.349 . S
C791 H783 0.950 . S
C791 C789 1.327 . S
C792 C780 1.349 . S
C792 H786 0.950 . S
C792 C793 1.327 . S
C793 H787 0.950 . S
C793 C792 1.327 . S
C793 C797 1.429 . S
C794 C777 1.574 . S
C794 H788 0.949 . S
C794 C798 1.368 . S
C795 C776 1.429 . S
C795 C789 1.429 . S
C795 C796 1.523 . S
C796 C777 1.368 . S
C796 C790 1.368 . S
C796 C795 1.523 . S
C797 C781 1.429 . S
C797 C793 1.429 . S
C797 C798 1.523 . S
C798 C782 1.368 . S
C798 C794 1.368 . S
C798 C797 1.523 . S
H799 C774 0.950 . S
H800 C776 0.950 . S
H801 C777 0.949 . S
H802 C779 0.950 . S
H803 C781 0.950 . S
C804 C805 1.349 . S
C804 C806 1.327 . S
C804 H829 0.950 . S
C805 C804 1.349 . S
C805 C821 1.349 . S
C806 C804 1.327 . S
C806 C825 1.429 . S
C806 H830 0.950 . S
C807 C824 1.574 . S
C807 C826 1.368 . S
C807 H831 0.949 . S
H808 C812 0.949 . S
C809 C810 1.349 . S
C809 C811 1.327 . S
C809 H832 0.950 . S
C810 C809 1.349 . S
C810 C822 1.349 . S
C811 C809 1.327 . S
C811 C827 1.429 . S
C811 H833 0.950 . S
C812 H808 0.949 . S
C812 C820 1.574 . S
C812 C828 1.368 . S
H813 C821 0.950 . S
H814 C819 0.950 . S
H815 C820 0.949 . S
H816 C822 0.950 . S
H817 C823 0.950 . S
H818 C824 0.949 . S
C819 H814 0.950 . S
C819 C821 1.327 . S
C819 C825 1.429 . S
C820 C812 1.574 . S
C820 H815 0.949 . S
C820 C826 1.368 . S
C821 C805 1.349 . S
C821 H813 0.950 . S
C821 C819 1.327 . S
C822 C810 1.349 . S
C822 H816 0.950 . S
C822 C823 1.327 . S
C823 H817 0.950 . S
C823 C822 1.327 . S
C823 C827 1.429 . S
C824 C807 1.574 . S
C824 H818 0.949 . S
C824 C828 1.368 . S
C825 C806 1.429 . S
C825 C819 1.429 . S
C825 C826 1.523 . S
C826 C807 1.368 . S
C826 C820 1.368 . S
C826 C825 1.523 . S
C827 C811 1.429 . S
C827 C823 1.429 . S
C827 C828 1.523 . S
C828 C812 1.368 . S
C828 C824 1.368 . S
C828 C827 1.523 . S
H829 C804 0.950 . S
H830 C806 0.950 . S
H831 C807 0.949 . S
H832 C809 0.950 . S
H833 C811 0.950 . S
C834 C835 1.349 . S
C834 C836 1.327 . S
C834 H859 0.950 . S
C835 C834 1.349 . S
C835 C851 1.349 . S
C836 C834 1.327 . S
C836 C855 1.429 . S
C836 H860 0.950 . S
C837 C854 1.574 . S
C837 C856 1.368 . S
C837 H861 0.949 . S
H838 C842 0.949 . S
C839 C840 1.349 . S
C839 C841 1.327 . S
C839 H862 0.950 . S
C840 C839 1.349 . S
C840 C852 1.349 . S
C841 C839 1.327 . S
C841 C857 1.429 . S
C841 H863 0.950 . S
C842 H838 0.949 . S
C842 C850 1.574 . S
C842 C858 1.368 . S
H843 C851 0.950 . S
H844 C849 0.950 . S
H845 C850 0.949 . S
H846 C852 0.950 . S
H847 C853 0.950 . S
H848 C854 0.949 . S
C849 H844 0.950 . S
C849 C851 1.327 . S
C849 C855 1.429 . S
C850 C842 1.574 . S
C850 H845 0.949 . S
C850 C856 1.368 . S
C851 C835 1.349 . S
C851 H843 0.950 . S
C851 C849 1.327 . S
C852 C840 1.349 . S
C852 H846 0.950 . S
C852 C853 1.327 . S
C853 H847 0.950 . S
C853 C852 1.327 . S
C853 C857 1.429 . S
C854 C837 1.574 . S
C854 H848 0.949 . S
C854 C858 1.368 . S
C855 C836 1.429 . S
C855 C849 1.429 . S
C855 C856 1.523 . S
C856 C837 1.368 . S
C856 C850 1.368 . S
C856 C855 1.523 . S
C857 C841 1.429 . S
C857 C853 1.429 . S
C857 C858 1.523 . S
C858 C842 1.368 . S
C858 C854 1.368 . S
C858 C857 1.523 . S
H859 C834 0.950 . S
H860 C836 0.950 . S
H861 C837 0.949 . S
H862 C839 0.950 . S
H863 C841 0.950 . S
C864 C865 1.349 . S
C864 C866 1.327 . S
C864 H889 0.950 . S
C865 C864 1.349 . S
C865 C881 1.349 . S
C866 C864 1.327 . S
C866 C885 1.429 . S
C866 H890 0.950 . S
C867 C884 1.574 . S
C867 C886 1.368 . S
C867 H891 0.949 . S
H868 C872 0.949 . S
C869 C870 1.349 . S
C869 C871 1.327 . S
C869 H892 0.950 . S
C870 C869 1.349 . S
C870 C882 1.349 . S
C871 C869 1.327 . S
C871 C887 1.429 . S
C871 H893 0.950 . S
C872 H868 0.949 . S
C872 C880 1.574 . S
C872 C888 1.368 . S
H873 C881 0.950 . S
H874 C879 0.950 . S
H875 C880 0.949 . S
H876 C882 0.950 . S
H877 C883 0.950 . S
H878 C884 0.949 . S
C879 H874 0.950 . S
C879 C881 1.327 . S
C879 C885 1.429 . S
C880 C872 1.574 . S
C880 H875 0.949 . S
C880 C886 1.368 . S
C881 C865 1.349 . S
C881 H873 0.950 . S
C881 C879 1.327 . S
C882 C870 1.349 . S
C882 H876 0.950 . S
C882 C883 1.327 . S
C883 H877 0.950 . S
C883 C882 1.327 . S
C883 C887 1.429 . S
C884 C867 1.574 . S
C884 H878 0.949 . S
C884 C888 1.368 . S
C885 C866 1.429 . S
C885 C879 1.429 . S
C885 C886 1.523 . S
C886 C867 1.368 . S
C886 C880 1.368 . S
C886 C885 1.523 . S
C887 C871 1.429 . S
C887 C883 1.429 . S
C887 C888 1.523 . S
C888 C872 1.368 . S
C888 C884 1.368 . S
C888 C887 1.523 . S
H889 C864 0.950 . S
H890 C866 0.950 . S
H891 C867 0.949 . S
H892 C869 0.950 . S
H893 C871 0.950 . S
C894 C895 1.349 . S
C894 C896 1.327 . S
C894 H919 0.950 . S
C895 C894 1.349 . S
C895 C911 1.349 . S
C896 C894 1.327 . S
C896 C915 1.429 . S
C896 H920 0.950 . S
C897 C914 1.574 . S
C897 C916 1.368 . S
C897 H921 0.949 . S
H898 C902 0.949 . S
C899 C900 1.349 . S
C899 C901 1.327 . S
C899 H922 0.950 . S
C900 C899 1.349 . S
C900 C912 1.349 . S
C901 C899 1.327 . S
C901 C917 1.429 . S
C901 H923 0.950 . S
C902 H898 0.949 . S
C902 C910 1.574 . S
C902 C918 1.368 . S
H903 C911 0.950 . S
H904 C909 0.950 . S
H905 C910 0.949 . S
H906 C912 0.950 . S
H907 C913 0.950 . S
H908 C914 0.949 . S
C909 H904 0.950 . S
C909 C911 1.327 . S
C909 C915 1.429 . S
C910 C902 1.574 . S
C910 H905 0.949 . S
C910 C916 1.368 . S
C911 C895 1.349 . S
C911 H903 0.950 . S
C911 C909 1.327 . S
C912 C900 1.349 . S
C912 H906 0.950 . S
C912 C913 1.327 . S
C913 H907 0.950 . S
C913 C912 1.327 . S
C913 C917 1.429 . S
C914 C897 1.574 . S
C914 H908 0.949 . S
C914 C918 1.368 . S
C915 C896 1.429 . S
C915 C909 1.429 . S
C915 C916 1.523 . S
C916 C897 1.368 . S
C916 C910 1.368 . S
C916 C915 1.523 . S
C917 C901 1.429 . S
C917 C913 1.429 . S
C917 C918 1.523 . S
C918 C902 1.368 . S
C918 C914 1.368 . S
C918 C917 1.523 . S
H919 C894 0.950 . S
H920 C896 0.950 . S
H921 C897 0.949 . S
H922 C899 0.950 . S
H923 C901 0.950 . S
C924 C925 1.349 . S
C924 C926 1.327 . S
C924 H949 0.950 . S
C925 C924 1.349 . S
C925 C941 1.349 . S
C926 C924 1.327 . S
C926 C945 1.429 . S
C926 H950 0.950 . S
C927 C944 1.574 . S
C927 C946 1.368 . S
C927 H951 0.949 . S
H928 C932 0.949 . S
C929 C930 1.349 . S
C929 C931 1.327 . S
C929 H952 0.950 . S
C930 C929 1.349 . S
C930 C942 1.349 . S
C931 C929 1.327 . S
C931 C947 1.429 . S
C931 H953 0.950 . S
C932 H928 0.949 . S
C932 C940 1.574 . S
C932 C948 1.368 . S
H933 C941 0.950 . S
H934 C939 0.950 . S
H935 C940 0.949 . S
H936 C942 0.950 . S
H937 C943 0.950 . S
H938 C944 0.949 . S
C939 H934 0.950 . S
C939 C941 1.327 . S
C939 C945 1.429 . S
C940 C932 1.574 . S
C940 H935 0.949 . S
C940 C946 1.368 . S
C941 C925 1.349 . S
C941 H933 0.950 . S
C941 C939 1.327 . S
C942 C930 1.349 . S
C942 H936 0.950 . S
C942 C943 1.327 . S
C943 H937 0.950 . S
C943 C942 1.327 . S
C943 C947 1.429 . S
C944 C927 1.574 . S
C944 H938 0.949 . S
C944 C948 1.368 . S
C945 C926 1.429 . S
C945 C939 1.429 . S
C945 C946 1.523 . S
C946 C927 1.368 . S
C946 C940 1.368 . S
C946 C945 1.523 . S
C947 C931 1.429 . S
C947 C943 1.429 . S
C947 C948 1.523 . S
C948 C932 1.368 . S
C948 C944 1.368 . S
C948 C947 1.523 . S
H949 C924 0.950 . S
H950 C926 0.950 . S
H951 C927 0.949 . S
H952 C929 0.950 . S
H953 C931 0.950 . S
C954 C955 1.349 . S
C954 C956 1.327 . S
C954 H979 0.950 . S
C955 C954 1.349 . S
C955 C971 1.349 . S
C956 C954 1.327 . S
C956 C975 1.429 . S
C956 H980 0.950 . S
C957 C974 1.574 . S
C957 C976 1.368 . S
C957 H981 0.949 . S
H958 C962 0.949 . S
C959 C960 1.349 . S
C959 C961 1.327 . S
C959 H982 0.950 . S
C960 C959 1.349 . S
C960 C972 1.349 . S
C961 C959 1.327 . S
C961 C977 1.429 . S
C961 H983 0.950 . S
C962 H958 0.949 . S
C962 C970 1.574 . S
C962 C978 1.368 . S
H963 C971 0.950 . S
H964 C969 0.950 . S
H965 C970 0.949 . S
H966 C972 0.950 . S
H967 C973 0.950 . S
H968 C974 0.949 . S
C969 H964 0.950 . S
C969 C971 1.327 . S
C969 C975 1.429 . S
C970 C962 1.574 . S
C970 H965 0.949 . S
C970 C976 1.368 . S
C971 C955 1.349 . S
C971 H963 0.950 . S
C971 C969 1.327 . S
C972 C960 1.349 . S
C972 H966 0.950 . S
C972 C973 1.327 . S
C973 H967 0.950 . S
C973 C972 1.327 . S
C973 C977 1.429 . S
C974 C957 1.574 . S
C974 H968 0.949 . S
C974 C978 1.368 . S
C975 C956 1.429 . S
C975 C969 1.429 . S
C975 C976 1.523 . S
C976 C957 1.368 . S
C976 C970 1.368 . S
C976 C975 1.523 . S
C977 C961 1.429 . S
C977 C973 1.429 . S
C977 C978 1.523 . S
C978 C962 1.368 . S
C978 C974 1.368 . S
C978 C977 1.523 . S
H979 C954 0.950 . S
H980 C956 0.950 . S
H981 C957 0.949 . S
H982 C959 0.950 . S
H983 C961 0.950 . S
C984 C985 1.349 . S
C984 C986 1.327 . S
C984 H1009 0.950 . S
C985 C984 1.349 . S
C985 C1001 1.349 . S
C986 C984 1.327 . S
C986 C1005 1.429 . S
C986 H1010 0.950 . S
C987 C1004 1.574 . S
C987 C1006 1.368 . S
C987 H1011 0.949 . S
H988 C992 0.949 . S
C989 C990 1.349 . S
C989 C991 1.327 . S
C989 H1012 0.950 . S
C990 C989 1.349 . S
C990 C1002 1.349 . S
C991 C989 1.327 . S
C991 C1007 1.429 . S
C991 H1013 0.950 . S
C992 H988 0.949 . S
C992 C1000 1.574 . S
C992 C1008 1.368 . S
H993 C1001 0.950 . S
H994 C999 0.950 . S
H995 C1000 0.949 . S
H996 C1002 0.950 . S
H997 C1003 0.950 . S
H998 C1004 0.949 . S
C999 H994 0.950 . S
C999 C1001 1.327 . S
C999 C1005 1.429 . S
C1000 C992 1.574 . S
C1000 H995 0.949 . S
C1000 C1006 1.368 . S
C1001 C985 1.349 . S
C1001 H993 0.950 . S
C1001 C999 1.327 . S
C1002 C990 1.349 . S
C1002 H996 0.950 . S
C1002 C1003 1.327 . S
C1003 H997 0.950 . S
C1003 C1002 1.327 . S
C1003 C1007 1.429 . S
C1004 C987 1.574 . S
C1004 H998 0.949 . S
C1004 C1008 1.368 . S
C1005 C986 1.429 . S
C1005 C999 1.429 . S
C1005 C1006 1.523 . S
C1006 C987 1.368 . S
C1006 C1000 1.368 . S
C1006 C1005 1.523 . S
C1007 C991 1.429 . S
C1007 C1003 1.429 . S
C1007 C1008 1.523 . S
C1008 C992 1.368 . S
C1008 C1004 1.368 . S
C1008 C1007 1.523 . S
H1009 C984 0.950 . S
H1010 C986 0.950 . S
H1011 C987 0.949 . S
H1012 C989 0.950 . S
H1013 C991 0.950 . S
C1014 C1015 1.349 . S
C1014 C1016 1.327 . S
C1014 H1039 0.950 . S
C1015 C1014 1.349 . S
C1015 C1031 1.349 . S
C1016 C1014 1.327 . S
C1016 C1035 1.429 . S
C1016 H1040 0.950 . S
C1017 C1034 1.574 . S
C1017 C1036 1.368 . S
C1017 H1041 0.949 . S
H1018 C1022 0.949 . S
C1019 C1020 1.349 . S
C1019 C1021 1.327 . S
C1019 H1042 0.950 . S
C1020 C1019 1.349 . S
C1020 C1032 1.349 . S
C1021 C1019 1.327 . S
C1021 C1037 1.429 . S
C1021 H1043 0.950 . S
C1022 H1018 0.949 . S
C1022 C1030 1.574 . S
C1022 C1038 1.368 . S
H1023 C1031 0.950 . S
H1024 C1029 0.950 . S
H1025 C1030 0.949 . S
H1026 C1032 0.950 . S
H1027 C1033 0.950 . S
H1028 C1034 0.949 . S
C1029 H1024 0.950 . S
C1029 C1031 1.327 . S
C1029 C1035 1.429 . S
C1030 C1022 1.574 . S
C1030 H1025 0.949 . S
C1030 C1036 1.368 . S
C1031 C1015 1.349 . S
C1031 H1023 0.950 . S
C1031 C1029 1.327 . S
C1032 C1020 1.349 . S
C1032 H1026 0.950 . S
C1032 C1033 1.327 . S
C1033 H1027 0.950 . S
C1033 C1032 1.327 . S
C1033 C1037 1.429 . S
C1034 C1017 1.574 . S
C1034 H1028 0.949 . S
C1034 C1038 1.368 . S
C1035 C1016 1.429 . S
C1035 C1029 1.429 . S
C1035 C1036 1.523 . S
C1036 C1017 1.368 . S
C1036 C1030 1.368 . S
C1036 C1035 1.523 . S
C1037 C1021 1.429 . S
C1037 C1033 1.429 . S
C1037 C1038 1.523 . S
C1038 C1022 1.368 . S
C1038 C1034 1.368 . S
C1038 C1037 1.523 . S
H1039 C1014 0.950 . S
H1040 C1016 0.950 . S
H1041 C1017 0.949 . S
H1042 C1019 0.950 . S
H1043 C1021 0.950 . S
C1044 C1045 1.349 . S
C1044 C1046 1.327 . S
C1044 H1069 0.950 . S
C1045 C1044 1.349 . S
C1045 C1061 1.349 . S
C1046 C1044 1.327 . S
C1046 C1065 1.429 . S
C1046 H1070 0.950 . S
C1047 C1064 1.574 . S
C1047 C1066 1.368 . S
C1047 H1071 0.949 . S
H1048 C1052 0.949 . S
C1049 C1050 1.349 . S
C1049 C1051 1.327 . S
C1049 H1072 0.950 . S
C1050 C1049 1.349 . S
C1050 C1062 1.349 . S
C1051 C1049 1.327 . S
C1051 C1067 1.429 . S
C1051 H1073 0.950 . S
C1052 H1048 0.949 . S
C1052 C1060 1.574 . S
C1052 C1068 1.368 . S
H1053 C1061 0.950 . S
H1054 C1059 0.950 . S
H1055 C1060 0.949 . S
H1056 C1062 0.950 . S
H1057 C1063 0.950 . S
H1058 C1064 0.949 . S
C1059 H1054 0.950 . S
C1059 C1061 1.327 . S
C1059 C1065 1.429 . S
C1060 C1052 1.574 . S
C1060 H1055 0.949 . S
C1060 C1066 1.368 . S
C1061 C1045 1.349 . S
C1061 H1053 0.950 . S
C1061 C1059 1.327 . S
C1062 C1050 1.349 . S
C1062 H1056 0.950 . S
C1062 C1063 1.327 . S
C1063 H1057 0.950 . S
C1063 C1062 1.327 . S
C1063 C1067 1.429 . S
C1064 C1047 1.574 . S
C1064 H1058 0.949 . S
C1064 C1068 1.368 . S
C1065 C1046 1.429 . S
C1065 C1059 1.429 . S
C1065 C1066 1.523 . S
C1066 C1047 1.368 . S
C1066 C1060 1.368 . S
C1066 C1065 1.523 . S
C1067 C1051 1.429 . S
C1067 C1063 1.429 . S
C1067 C1068 1.523 . S
C1068 C1052 1.368 . S
C1068 C1064 1.368 . S
C1068 C1067 1.523 . S
H1069 C1044 0.950 . S
H1070 C1046 0.950 . S
H1071 C1047 0.949 . S
H1072 C1049 0.950 . S
H1073 C1051 0.950 . S
C1074 C1075 1.349 . S
C1074 C1076 1.327 . S
C1074 H1099 0.950 . S
C1075 C1074 1.349 . S
C1075 C1091 1.349 . S
C1076 C1074 1.327 . S
C1076 C1095 1.429 . S
C1076 H1100 0.950 . S
C1077 C1094 1.574 . S
C1077 C1096 1.368 . S
C1077 H1101 0.949 . S
H1078 C1082 0.949 . S
C1079 C1080 1.349 . S
C1079 C1081 1.327 . S
C1079 H1102 0.950 . S
C1080 C1079 1.349 . S
C1080 C1092 1.349 . S
C1081 C1079 1.327 . S
C1081 C1097 1.429 . S
C1081 H1103 0.950 . S
C1082 H1078 0.949 . S
C1082 C1090 1.574 . S
C1082 C1098 1.368 . S
H1083 C1091 0.950 . S
H1084 C1089 0.950 . S
H1085 C1090 0.949 . S
H1086 C1092 0.950 . S
H1087 C1093 0.950 . S
H1088 C1094 0.949 . S
C1089 H1084 0.950 . S
C1089 C1091 1.327 . S
C1089 C1095 1.429 . S
C1090 C1082 1.574 . S
C1090 H1085 0.949 . S
C1090 C1096 1.368 . S
C1091 C1075 1.349 . S
C1091 H1083 0.950 . S
C1091 C1089 1.327 . S
C1092 C1080 1.349 . S
C1092 H1086 0.950 . S
C1092 C1093 1.327 . S
C1093 H1087 0.950 . S
C1093 C1092 1.327 . S
C1093 C1097 1.429 . S
C1094 C1077 1.574 . S
C1094 H1088 0.949 . S
C1094 C1098 1.368 . S
C1095 C1076 1.429 . S
C1095 C1089 1.429 . S
C1095 C1096 1.523 . S
C1096 C1077 1.368 . S
C1096 C1090 1.368 . S
C1096 C1095 1.523 . S
C1097 C1081 1.429 . S
C1097 C1093 1.429 . S
C1097 C1098 1.523 . S
C1098 C1082 1.368 . S
C1098 C1094 1.368 . S
C1098 C1097 1.523 . S
H1099 C1074 0.950 . S
H1100 C1076 0.950 . S
H1101 C1077 0.949 . S
H1102 C1079 0.950 . S
H1103 C1081 0.950 . S
C1104 C1105 1.349 . S
C1104 C1106 1.327 . S
C1104 H1129 0.950 . S
C1105 C1104 1.349 . S
C1105 C1121 1.349 . S
C1106 C1104 1.327 . S
C1106 C1125 1.429 . S
C1106 H1130 0.950 . S
C1107 C1124 1.574 . S
C1107 C1126 1.368 . S
C1107 H1131 0.949 . S
H1108 C1112 0.949 . S
C1109 C1110 1.349 . S
C1109 C1111 1.327 . S
C1109 H1132 0.950 . S
C1110 C1109 1.349 . S
C1110 C1122 1.349 . S
C1111 C1109 1.327 . S
C1111 C1127 1.429 . S
C1111 H1133 0.950 . S
C1112 H1108 0.949 . S
C1112 C1120 1.574 . S
C1112 C1128 1.368 . S
H1113 C1121 0.950 . S
H1114 C1119 0.950 . S
H1115 C1120 0.949 . S
H1116 C1122 0.950 . S
H1117 C1123 0.950 . S
H1118 C1124 0.949 . S
C1119 H1114 0.950 . S
C1119 C1121 1.327 . S
C1119 C1125 1.429 . S
C1120 C1112 1.574 . S
C1120 H1115 0.949 . S
C1120 C1126 1.368 . S
C1121 C1105 1.349 . S
C1121 H1113 0.950 . S
C1121 C1119 1.327 . S
C1122 C1110 1.349 . S
C1122 H1116 0.950 . S
C1122 C1123 1.327 . S
C1123 H1117 0.950 . S
C1123 C1122 1.327 . S
C1123 C1127 1.429 . S
C1124 C1107 1.574 . S
C1124 H1118 0.949 . S
C1124 C1128 1.368 . S
C1125 C1106 1.429 . S
C1125 C1119 1.429 . S
C1125 C1126 1.523 . S
C1126 C1107 1.368 . S
C1126 C1120 1.368 . S
C1126 C1125 1.523 . S
C1127 C1111 1.429 . S
C1127 C1123 1.429 . S
C1127 C1128 1.523 . S
C1128 C1112 1.368 . S
C1128 C1124 1.368 . S
C1128 C1127 1.523 . S
H1129 C1104 0.950 . S
H1130 C1106 0.950 . S
H1131 C1107 0.949 . S
H1132 C1109 0.950 . S
H1133 C1111 0.950 . S
C1134 C1135 1.349 . S
C1134 C1136 1.327 . S
C1134 H1159 0.950 . S
C1135 C1134 1.349 . S
C1135 C1151 1.349 . S
C1136 C1134 1.327 . S
C1136 C1155 1.429 . S
C1136 H1160 0.950 . S
C1137 C1154 1.574 . S
C1137 C1156 1.368 . S
C1137 H1161 0.949 . S
H1138 C1142 0.949 . S
C1139 C1140 1.349 . S
C1139 C1141 1.327 . S
C1139 H1162 0.950 . S
C1140 C1139 1.349 . S
C1140 C1152 1.349 . S
C1141 C1139 1.327 . S
C1141 C1157 1.429 . S
C1141 H1163 0.950 . S
C1142 H1138 0.949 . S
C1142 C1150 1.574 . S
C1142 C1158 1.368 . S
H1143 C1151 0.950 . S
H1144 C1149 0.950 . S
H1145 C1150 0.949 . S
H1146 C1152 0.950 . S
H1147 C1153 0.950 . S
H1148 C1154 0.949 . S
C1149 H1144 0.950 . S
C1149 C1151 1.327 . S
C1149 C1155 1.429 . S
C1150 C1142 1.574 . S
C1150 H1145 0.949 . S
C1150 C1156 1.368 . S
C1151 C1135 1.349 . S
C1151 H1143 0.950 . S
C1151 C1149 1.327 . S
C1152 C1140 1.349 . S
C1152 H1146 0.950 . S
C1152 C1153 1.327 . S
C1153 H1147 0.950 . S
C1153 C1152 1.327 . S
C1153 C1157 1.429 . S
C1154 C1137 1.574 . S
C1154 H1148 0.949 . S
C1154 C1158 1.368 . S
C1155 C1136 1.429 . S
C1155 C1149 1.429 . S
C1155 C1156 1.523 . S
C1156 C1137 1.368 . S
C1156 C1150 1.368 . S
C1156 C1155 1.523 . S
C1157 C1141 1.429 . S
C1157 C1153 1.429 . S
C1157 C1158 1.523 . S
C1158 C1142 1.368 . S
C1158 C1154 1.368 . S
C1158 C1157 1.523 . S
H1159 C1134 0.950 . S
H1160 C1136 0.950 . S
H1161 C1137 0.949 . S
H1162 C1139 0.950 . S
H1163 C1141 0.950 . S
C1164 C1165 1.349 . S
C1164 C1166 1.327 . S
C1164 H1189 0.950 . S
C1165 C1164 1.349 . S
C1165 C1181 1.349 . S
C1166 C1164 1.327 . S
C1166 C1185 1.429 . S
C1166 H1190 0.950 . S
C1167 C1184 1.574 . S
C1167 C1186 1.368 . S
C1167 H1191 0.949 . S
H1168 C1172 0.949 . S
C1169 C1170 1.349 . S
C1169 C1171 1.327 . S
C1169 H1192 0.950 . S
C1170 C1169 1.349 . S
C1170 C1182 1.349 . S
C1171 C1169 1.327 . S
C1171 C1187 1.429 . S
C1171 H1193 0.950 . S
C1172 H1168 0.949 . S
C1172 C1180 1.574 . S
C1172 C1188 1.368 . S
H1173 C1181 0.950 . S
H1174 C1179 0.950 . S
H1175 C1180 0.949 . S
H1176 C1182 0.950 . S
H1177 C1183 0.950 . S
H1178 C1184 0.949 . S
C1179 H1174 0.950 . S
C1179 C1181 1.327 . S
C1179 C1185 1.429 . S
C1180 C1172 1.574 . S
C1180 H1175 0.949 . S
C1180 C1186 1.368 . S
C1181 C1165 1.349 . S
C1181 H1173 0.950 . S
C1181 C1179 1.327 . S
C1182 C1170 1.349 . S
C1182 H1176 0.950 . S
C1182 C1183 1.327 . S
C1183 H1177 0.950 . S
C1183 C1182 1.327 . S
C1183 C1187 1.429 . S
C1184 C1167 1.574 . S
C1184 H1178 0.949 . S
C1184 C1188 1.368 . S
C1185 C1166 1.429 . S
C1185 C1179 1.429 . S
C1185 C1186 1.523 . S
C1186 C1167 1.368 . S
C1186 C1180 1.368 . S
C1186 C1185 1.523 . S
C1187 C1171 1.429 . S
C1187 C1183 1.429 . S
C1187 C1188 1.523 . S
C1188 C1172 1.368 . S
C1188 C1184 1.368 . S
C1188 C1187 1.523 . S
H1189 C1164 0.950 . S
H1190 C1166 0.950 . S
H1191 C1167 0.949 . S
H1192 C1169 0.950 . S
H1193 C1171 0.950 . S
C1194 C1195 1.349 . S
C1194 C1196 1.327 . S
C1194 H1219 0.950 . S
C1195 C1194 1.349 . S
C1195 C1211 1.349 . S
C1196 C1194 1.327 . S
C1196 C1215 1.429 . S
C1196 H1220 0.950 . S
C1197 C1214 1.574 . S
C1197 C1216 1.368 . S
C1197 H1221 0.949 . S
H1198 C1202 0.949 . S
C1199 C1200 1.349 . S
C1199 C1201 1.327 . S
C1199 H1222 0.950 . S
C1200 C1199 1.349 . S
C1200 C1212 1.349 . S
C1201 C1199 1.327 . S
C1201 C1217 1.429 . S
C1201 H1223 0.950 . S
C1202 H1198 0.949 . S
C1202 C1210 1.574 . S
C1202 C1218 1.368 . S
H1203 C1211 0.950 . S
H1204 C1209 0.950 . S
H1205 C1210 0.949 . S
H1206 C1212 0.950 . S
H1207 C1213 0.950 . S
H1208 C1214 0.949 . S
C1209 H1204 0.950 . S
C1209 C1211 1.327 . S
C1209 C1215 1.429 . S
C1210 C1202 1.574 . S
C1210 H1205 0.949 . S
C1210 C1216 1.368 . S
C1211 C1195 1.349 . S
C1211 H1203 0.950 . S
C1211 C1209 1.327 . S
C1212 C1200 1.349 . S
C1212 H1206 0.950 . S
C1212 C1213 1.327 . S
C1213 H1207 0.950 . S
C1213 C1212 1.327 . S
C1213 C1217 1.429 . S
C1214 C1197 1.574 . S
C1214 H1208 0.949 . S
C1214 C1218 1.368 . S
C1215 C1196 1.429 . S
C1215 C1209 1.429 . S
C1215 C1216 1.523 . S
C1216 C1197 1.368 . S
C1216 C1210 1.368 . S
C1216 C1215 1.523 . S
C1217 C1201 1.429 . S
C1217 C1213 1.429 . S
C1217 C1218 1.523 . S
C1218 C1202 1.368 . S
C1218 C1214 1.368 . S
C1218 C1217 1.523 . S
H1219 C1194 0.950 . S
H1220 C1196 0.950 . S
H1221 C1197 0.949 . S
H1222 C1199 0.950 . S
H1223 C1201 0.950 . S
C1224 C1225 1.349 . S
C1224 C1226 1.327 . S
C1224 H1249 0.950 . S
C1225 C1224 1.349 . S
C1225 C1241 1.349 . S
C1226 C1224 1.327 . S
C1226 C1245 1.429 . S
C1226 H1250 0.950 . S
C1227 C1244 1.574 . S
C1227 C1246 1.368 . S
C1227 H1251 0.949 . S
H1228 C1232 0.949 . S
C1229 C1230 1.349 . S
C1229 C1231 1.327 . S
C1229 H1252 0.950 . S
C1230 C1229 1.349 . S
C1230 C1242 1.349 . S
C1231 C1229 1.327 . S
C1231 C1247 1.429 . S
C1231 H1253 0.950 . S
C1232 H1228 0.949 . S
C1232 C1240 1.574 . S
C1232 C1248 1.368 . S
H1233 C1241 0.950 . S
H1234 C1239 0.950 . S
H1235 C1240 0.949 . S
H1236 C1242 0.950 . S
H1237 C1243 0.950 . S
H1238 C1244 0.949 . S
C1239 H1234 0.950 . S
C1239 C1241 1.327 . S
C1239 C1245 1.429 . S
C1240 C1232 1.574 . S
C1240 H1235 0.949 . S
C1240 C1246 1.368 . S
C1241 C1225 1.349 . S
C1241 H1233 0.950 . S
C1241 C1239 1.327 . S
C1242 C1230 1.349 . S
C1242 H1236 0.950 . S
C1242 C1243 1.327 . S
C1243 H1237 0.950 . S
C1243 C1242 1.327 . S
C1243 C1247 1.429 . S
C1244 C1227 1.574 . S
C1244 H1238 0.949 . S
C1244 C1248 1.368 . S
C1245 C1226 1.429 . S
C1245 C1239 1.429 . S
C1245 C1246 1.523 . S
C1246 C1227 1.368 . S
C1246 C1240 1.368 . S
C1246 C1245 1.523 . S
C1247 C1231 1.429 . S
C1247 C1243 1.429 . S
C1247 C1248 1.523 . S
C1248 C1232 1.368 . S
C1248 C1244 1.368 . S
C1248 C1247 1.523 . S
H1249 C1224 0.950 . S
H1250 C1226 0.950 . S
H1251 C1227 0.949 . S
H1252 C1229 0.950 . S
H1253 C1231 0.950 . S
C1254 C1255 1.349 . S
C1254 C1256 1.327 . S
C1254 H1279 0.950 . S
C1255 C1254 1.349 . S
C1255 C1271 1.349 . S
C1256 C1254 1.327 . S
C1256 C1275 1.429 . S
C1256 H1280 0.950 . S
C1257 C1274 1.574 . S
C1257 C1276 1.368 . S
C1257 H1281 0.949 . S
H1258 C1262 0.949 . S
C1259 C1260 1.349 . S
C1259 C1261 1.327 . S
C1259 H1282 0.950 . S
C1260 C1259 1.349 . S
C1260 C1272 1.349 . S
C1261 C1259 1.327 . S
C1261 C1277 1.429 . S
C1261 H1283 0.950 . S
C1262 H1258 0.949 . S
C1262 C1270 1.574 . S
C1262 C1278 1.368 . S
H1263 C1271 0.950 . S
H1264 C1269 0.950 . S
H1265 C1270 0.949 . S
H1266 C1272 0.950 . S
H1267 C1273 0.950 . S
H1268 C1274 0.949 . S
C1269 H1264 0.950 . S
C1269 C1271 1.327 . S
C1269 C1275 1.429 . S
C1270 C1262 1.574 . S
C1270 H1265 0.949 . S
C1270 C1276 1.368 . S
C1271 C1255 1.349 . S
C1271 H1263 0.950 . S
C1271 C1269 1.327 . S
C1272 C1260 1.349 . S
C1272 H1266 0.950 . S
C1272 C1273 1.327 . S
C1273 H1267 0.950 . S
C1273 C1272 1.327 . S
C1273 C1277 1.429 . S
C1274 C1257 1.574 . S
C1274 H1268 0.949 . S
C1274 C1278 1.368 . S
C1275 C1256 1.429 . S
C1275 C1269 1.429 . S
C1275 C1276 1.523 . S
C1276 C1257 1.368 . S
C1276 C1270 1.368 . S
C1276 C1275 1.523 . S
C1277 C1261 1.429 . S
C1277 C1273 1.429 . S
C1277 C1278 1.523 . S
C1278 C1262 1.368 . S
C1278 C1274 1.368 . S
C1278 C1277 1.523 . S
H1279 C1254 0.950 . S
H1280 C1256 0.950 . S
H1281 C1257 0.949 . S
H1282 C1259 0.950 . S
H1283 C1261 0.950 . S
C1284 C1285 1.349 . S
C1284 C1286 1.327 . S
C1284 H1309 0.950 . S
C1285 C1284 1.349 . S
C1285 C1301 1.349 . S
C1286 C1284 1.327 . S
C1286 C1305 1.429 . S
C1286 H1310 0.950 . S
C1287 C1304 1.574 . S
C1287 C1306 1.368 . S
C1287 H1311 0.949 . S
H1288 C1292 0.949 . S
C1289 C1290 1.349 . S
C1289 C1291 1.327 . S
C1289 H1312 0.950 . S
C1290 C1289 1.349 . S
C1290 C1302 1.349 . S
C1291 C1289 1.327 . S
C1291 C1307 1.429 . S
C1291 H1313 0.950 . S
C1292 H1288 0.949 . S
C1292 C1300 1.574 . S
C1292 C1308 1.368 . S
H1293 C1301 0.950 . S
H1294 C1299 0.950 . S
H1295 C1300 0.949 . S
H1296 C1302 0.950 . S
H1297 C1303 0.950 . S
H1298 C1304 0.949 . S
C1299 H1294 0.950 . S
C1299 C1301 1.327 . S
C1299 C1305 1.429 . S
C1300 C1292 1.574 . S
C1300 H1295 0.949 . S
C1300 C1306 1.368 . S
C1301 C1285 1.349 . S
C1301 H1293 0.950 . S
C1301 C1299 1.327 . S
C1302 C1290 1.349 . S
C1302 H1296 0.950 . S
C1302 C1303 1.327 . S
C1303 H1297 0.950 . S
C1303 C1302 1.327 . S
C1303 C1307 1.429 . S
C1304 C1287 1.574 . S
C1304 H1298 0.949 . S
C1304 C1308 1.368 . S
C1305 C1286 1.429 . S
C1305 C1299 1.429 . S
C1305 C1306 1.523 . S
C1306 C1287 1.368 . S
C1306 C1300 1.368 . S
C1306 C1305 1.523 . S
C1307 C1291 1.429 . S
C1307 C1303 1.429 . S
C1307 C1308 1.523 . S
C1308 C1292 1.368 . S
C1308 C1304 1.368 . S
C1308 C1307 1.523 . S
H1309 C1284 0.950 . S
H1310 C1286 0.950 . S
H1311 C1287 0.949 . S
H1312 C1289 0.950 . S
H1313 C1291 0.950 . S
C1314 C1315 1.349 . S
C1314 C1316 1.327 . S
C1314 H1339 0.950 . S
C1315 C1314 1.349 . S
C1315 C1331 1.349 . S
C1316 C1314 1.327 . S
C1316 C1335 1.429 . S
C1316 H1340 0.950 . S
C1317 C1334 1.574 . S
C1317 C1336 1.368 . S
C1317 H1341 0.949 . S
H1318 C1322 0.949 . S
C1319 C1320 1.349 . S
C1319 C1321 1.327 . S
C1319 H1342 0.950 . S
C1320 C1319 1.349 . S
C1320 C1332 1.349 . S
C1321 C1319 1.327 . S
C1321 C1337 1.429 . S
C1321 H1343 0.950 . S
C1322 H1318 0.949 . S
C1322 C1330 1.574 . S
C1322 C1338 1.368 . S
H1323 C1331 0.950 . S
H1324 C1329 0.950 . S
H1325 C1330 0.949 . S
H1326 C1332 0.950 . S
H1327 C1333 0.950 . S
H1328 C1334 0.949 . S
C1329 H1324 0.950 . S
C1329 C1331 1.327 . S
C1329 C1335 1.429 . S
C1330 C1322 1.574 . S
C1330 H1325 0.949 . S
C1330 C1336 1.368 . S
C1331 C1315 1.349 . S
C1331 H1323 0.950 . S
C1331 C1329 1.327 . S
C1332 C1320 1.349 . S
C1332 H1326 0.950 . S
C1332 C1333 1.327 . S
C1333 H1327 0.950 . S
C1333 C1332 1.327 . S
C1333 C1337 1.429 . S
C1334 C1317 1.574 . S
C1334 H1328 0.949 . S
C1334 C1338 1.368 . S
C1335 C1316 1.429 . S
C1335 C1329 1.429 . S
C1335 C1336 1.523 . S
C1336 C1317 1.368 . S
C1336 C1330 1.368 . S
C1336 C1335 1.523 . S
C1337 C1321 1.429 . S
C1337 C1333 1.429 . S
C1337 C1338 1.523 . S
C1338 C1322 1.368 . S
C1338 C1334 1.368 . S
C1338 C1337 1.523 . S
H1339 C1314 0.950 . S
H1340 C1316 0.950 . S
H1341 C1317 0.949 . S
H1342 C1319 0.950 . S
H1343 C1321 0.950 . S
C265 C38 1.314 . S
C270 C7 1.606 . S
C295 C18 1.429 . S
C300 C5 1.284 . S
C325 C16 1.365 . S
C330 C27 1.370 . S
C355 C29 1.609 . S
C360 C40 1.562 . S
C385 C106 1.455 . S
C390 C49 1.301 . S
C415 C60 1.366 . S
C420 C117 1.427 . S
C445 C51 1.439 . S
C450 C126 1.286 . S
C475 C62 1.606 . S
C480 C93 1.463 . S
C505 C71 1.305 . S
C510 C128 1.449 . S
C535 C84 1.599 . S
C540 C95 1.597 . S
C565 C104 1.323 . S
C570 C73 1.467 . S
C595 C82 1.288 . S
C600 C115 1.189 . S
C625 C139 1.607 . S
C630 C170 1.315 . S
C655 C150 1.429 . S
C660 C137 1.285 . S
C685 C159 1.370 . S
C690 C148 1.365 . S
C715 C172 1.562 . S
C720 C161 1.609 . S
C745 C238 1.456 . S
C750 C181 1.301 . S
C775 C192 1.366 . S
C780 C249 1.428 . S
C805 C258 1.286 . S
C810 C183 1.439 . S
C835 C225 1.463 . S
C840 C194 1.606 . S
C865 C260 1.449 . S
C870 C203 1.305 . S
C895 C216 1.599 . S
C900 C227 1.597 . S
C925 C205 1.467 . S
C930 C236 1.323 . S
C955 C247 1.189 . S
C960 C214 1.288 . S
C985 C8 1.476 . S
C990 C261 1.474 . S
C1015 C228 1.550 . S
C1020 C19 1.550 . S
C1045 C30 1.531 . S
C1050 C239 1.530 . S
C1075 C250 1.523 . S
C1080 C41 1.524 . S
C1105 C52 1.480 . S
C1110 C217 1.481 . S
C1135 C63 1.521 . S
C1140 C206 1.519 . S
C1165 C74 1.520 . S
C1170 C195 1.522 . S
C1195 C184 1.480 . S
C1200 C85 1.481 . S
C1225 C96 1.550 . S
C1230 C151 1.550 . S
C1255 C162 1.531 . S
C1260 C107 1.530 . S
C1285 C118 1.523 . S
C1290 C173 1.524 . S
C1315 C140 1.477 . S
C1320 C129 1.475 . S
