# Generated by pormake.
# Topology bcu-g, (3)-cn, num edge types: 1
# Building blocks:
#     Node 0, Type 0, BuildingBlock: WUSLED_clean_sbu_0, # of connection points: 3
#     Node 1, Type 0, BuildingBlock: WUSLED_clean_sbu_0, # of connection points: 3
#     Node 2, Type 0, BuildingBlock: WUSLED_clean_sbu_0, # of connection points: 3
#     Node 3, Type 0, BuildingBlock: WUSLED_clean_sbu_0, # of connection points: 3
#     Node 4, Type 0, BuildingBlock: WUSLED_clean_sbu_0, # of connection points: 3
#     Node 5, Type 0, BuildingBlock: WUSLED_clean_sbu_0, # of connection points: 3
#     Node 6, Type 0, BuildingBlock: WUSLED_clean_sbu_0, # of connection points: 3
#     Node 7, Type 0, BuildingBlock: WUSLED_clean_sbu_0, # of connection points: 3
#     Node 8, Type 0, BuildingBlock: WUSLED_clean_sbu_0, # of connection points: 3
#     Node 9, Type 0, BuildingBlock: WUSLED_clean_sbu_0, # of connection points: 3
#     Node 10, Type 0, BuildingBlock: WUSLED_clean_sbu_0, # of connection points: 3
#     Node 11, Type 0, BuildingBlock: WUSLED_clean_sbu_0, # of connection points: 3
#     Node 12, Type 0, BuildingBlock: WUSLED_clean_sbu_0, # of connection points: 3
#     Node 13, Type 0, BuildingBlock: WUSLED_clean_sbu_0, # of connection points: 3
#     Node 14, Type 0, BuildingBlock: WUSLED_clean_sbu_0, # of connection points: 3
#     Node 15, Type 0, BuildingBlock: WUSLED_clean_sbu_0, # of connection points: 3
#     Edge 16, Type (0, 0), BuildingBlock: UVAHIK_clean_linker_0, # of connection points: 2
#     Edge 17, Type (0, 0), BuildingBlock: UVAHIK_clean_linker_0, # of connection points: 2
#     Edge 18, Type (0, 0), BuildingBlock: UVAHIK_clean_linker_0, # of connection points: 2
#     Edge 19, Type (0, 0), BuildingBlock: UVAHIK_clean_linker_0, # of connection points: 2
#     Edge 20, Type (0, 0), BuildingBlock: UVAHIK_clean_linker_0, # of connection points: 2
#     Edge 21, Type (0, 0), BuildingBlock: UVAHIK_clean_linker_0, # of connection points: 2
#     Edge 22, Type (0, 0), BuildingBlock: UVAHIK_clean_linker_0, # of connection points: 2
#     Edge 23, Type (0, 0), BuildingBlock: UVAHIK_clean_linker_0, # of connection points: 2
#     Edge 24, Type (0, 0), BuildingBlock: UVAHIK_clean_linker_0, # of connection points: 2
#     Edge 25, Type (0, 0), BuildingBlock: UVAHIK_clean_linker_0, # of connection points: 2
#     Edge 26, Type (0, 0), BuildingBlock: UVAHIK_clean_linker_0, # of connection points: 2
#     Edge 27, Type (0, 0), BuildingBlock: UVAHIK_clean_linker_0, # of connection points: 2
#     Edge 28, Type (0, 0), BuildingBlock: UVAHIK_clean_linker_0, # of connection points: 2
#     Edge 29, Type (0, 0), BuildingBlock: UVAHIK_clean_linker_0, # of connection points: 2
#     Edge 30, Type (0, 0), BuildingBlock: UVAHIK_clean_linker_0, # of connection points: 2
#     Edge 31, Type (0, 0), BuildingBlock: UVAHIK_clean_linker_0, # of connection points: 2
#     Edge 32, Type (0, 0), BuildingBlock: UVAHIK_clean_linker_0, # of connection points: 2
#     Edge 33, Type (0, 0), BuildingBlock: UVAHIK_clean_linker_0, # of connection points: 2
#     Edge 34, Type (0, 0), BuildingBlock: UVAHIK_clean_linker_0, # of connection points: 2
#     Edge 35, Type (0, 0), BuildingBlock: UVAHIK_clean_linker_0, # of connection points: 2
#     Edge 36, Type (0, 0), BuildingBlock: UVAHIK_clean_linker_0, # of connection points: 2
#     Edge 37, Type (0, 0), BuildingBlock: UVAHIK_clean_linker_0, # of connection points: 2
#     Edge 38, Type (0, 0), BuildingBlock: UVAHIK_clean_linker_0, # of connection points: 2
#     Edge 39, Type (0, 0), BuildingBlock: UVAHIK_clean_linker_0, # of connection points: 2
# Relax obj value: 0.205
# Max RMSD: 0.162
# Mean RMSD: 0.115
data_MOF--net-bcu-g--node1-WUSLED_clean_sbu_0--edge1-UVAHIK_clean_linker_0
_symmetry_space_group_name_H-M    P1
_symmetry_Int_Tables_number       1
_symmetry_cell_setting            triclinic
loop_
_symmetry_equiv_pos_as_xyz
'x, y, z'
_cell_length_a     63.745937
_cell_length_b     63.736142
_cell_length_c     74.68388
_cell_angle_alpha  89.691479
_cell_angle_beta   90.32968
_cell_angle_gamma 90.337835
loop_
_atom_site_label
_atom_site_type_symbol
_atom_site_fract_x
_atom_site_fract_y
_atom_site_fract_z
_atom_type_partial_charge
C0 C 0.58538 0.20786 0.14321 0.0
C1 C 0.57637 0.18827 0.14737 0.0
C2 C 0.5619 0.18587 0.11713 0.0
C3 C 0.56475 0.17734 0.13441 0.0
C4 C 0.57 0.20599 0.11344 0.0
C5 C 0.58164 0.21683 0.12635 0.0
U6 U 0.6111 0.21941 0.18919 0.0
O7 O 0.64508 0.21869 0.19412 0.0
O8 O 0.62753 0.24803 0.19856 0.0
C9 C 0.6459 0.23872 0.19811 0.0
C10 C 0.60089 0.21792 0.15511 0.0
C11 C 0.66317 0.24611 0.20954 0.0
C12 C 0.69835 0.26073 0.21047 0.0
C13 C 0.68034 0.25531 0.20091 0.0
C14 C 0.68185 0.24884 0.23786 0.0
C15 C 0.69958 0.25746 0.2291 0.0
C16 C 0.66384 0.243 0.22811 0.0
C17 C 0.58106 0.19018 0.22882 0.0
C18 C 0.59101 0.17046 0.25537 0.0
C19 C 0.55541 0.16827 0.24385 0.0
C20 C 0.56044 0.18278 0.23055 0.0
C21 C 0.57093 0.1612 0.25577 0.0
C22 C 0.59615 0.18481 0.24179 0.0
C23 C 0.58682 0.19894 0.21137 0.0
O24 O 0.59419 0.23269 0.16585 0.0
O25 O 0.61432 0.20515 0.16278 0.0
O26 O 0.60273 0.19032 0.20311 0.0
O27 O 0.58459 0.21913 0.20823 0.0
H28 H 0.57904 0.18105 0.16035 0.0
H29 H 0.55844 0.16201 0.13775 0.0
H30 H 0.56828 0.21294 0.10025 0.0
H31 H 0.58859 0.23185 0.12286 0.0
H32 H 0.71157 0.26669 0.20294 0.0
H33 H 0.68013 0.25764 0.18652 0.0
H34 H 0.68187 0.24637 0.25221 0.0
H35 H 0.65067 0.23583 0.23498 0.0
H36 H 0.60321 0.16511 0.26443 0.0
H37 H 0.53986 0.16133 0.24395 0.0
H38 H 0.54866 0.18669 0.22057 0.0
H39 H 0.61219 0.19032 0.24057 0.0
C40 C 0.65435 0.54328 0.09242 0.0
C41 C 0.65411 0.52153 0.08934 0.0
C42 C 0.6726 0.52692 0.06098 0.0
C43 C 0.66312 0.51341 0.07368 0.0
C44 C 0.67267 0.54862 0.06439 0.0
C45 C 0.66354 0.55663 0.07978 0.0
U46 U 0.62695 0.54283 0.13878 0.0
O47 O 0.63568 0.56089 0.16287 0.0
O48 O 0.6048 0.56594 0.14967 0.0
C49 C 0.61745 0.57041 0.16311 0.0
C50 C 0.64589 0.5529 0.10876 0.0
C51 C 0.61461 0.58959 0.17363 0.0
C52 C 0.61483 0.6274 0.17784 0.0
C53 C 0.61747 0.60991 0.16669 0.0
C54 C 0.60658 0.60425 0.20267 0.0
C55 C 0.60946 0.62476 0.19607 0.0
C56 C 0.60901 0.58698 0.19157 0.0
C57 C 0.60953 0.48645 0.15587 0.0
C58 C 0.59831 0.47123 0.18427 0.0
C59 C 0.6013 0.44946 0.15791 0.0
C60 C 0.60746 0.46679 0.14791 0.0
C61 C 0.59722 0.45126 0.17628 0.0
C62 C 0.60458 0.48884 0.17409 0.0
C63 C 0.61819 0.50318 0.14449 0.0
O64 O 0.62539 0.55285 0.11053 0.0
O65 O 0.65597 0.54886 0.12377 0.0
O66 O 0.63599 0.51194 0.14944 0.0
O67 O 0.60505 0.51609 0.13656 0.0
H68 H 0.64709 0.51091 0.09899 0.0
H69 H 0.66253 0.49663 0.07152 0.0
H70 H 0.68027 0.55959 0.05539 0.0
H71 H 0.664 0.57342 0.08198 0.0
H72 H 0.61692 0.64293 0.17215 0.0
H73 H 0.62178 0.61223 0.15281 0.0
H74 H 0.60298 0.60132 0.2166 0.0
H75 H 0.60679 0.57139 0.19713 0.0
H76 H 0.59516 0.47306 0.19841 0.0
H77 H 0.60012 0.43445 0.15123 0.0
H78 H 0.61115 0.46469 0.13388 0.0
H79 H 0.60606 0.50402 0.18045 0.0
C80 C 0.94705 0.16352 0.20411 0.0
C81 C 0.94293 0.16525 0.22245 0.0
C82 C 0.90784 0.15085 0.21776 0.0
C83 C 0.92347 0.15891 0.22925 0.0
C84 C 0.91252 0.14824 0.19951 0.0
C85 C 0.93195 0.1546 0.19274 0.0
U86 U 0.99985 0.18988 0.18324 0.0
O87 O 0.01461 0.17443 0.16015 0.0
O88 O 0.99407 0.20163 0.15607 0.0
C89 C 1.00665 0.18801 0.14869 0.0
C90 C 0.96607 0.17301 0.19659 0.0
C91 C 0.02054 0.19677 0.13488 0.0
C92 C 0.02497 0.20501 0.10345 0.0
C93 C 0.01394 0.19505 0.11711 0.0
C94 C 0.05029 0.21793 0.12508 0.0
C95 C 0.04339 0.21663 0.10708 0.0
C96 C 0.03881 0.20827 0.13891 0.0
C97 C 0.02812 0.22071 0.22137 0.0
C98 C 0.05067 0.242 0.24037 0.0
C99 C 0.01312 0.24123 0.24529 0.0
C100 C 0.01068 0.22664 0.23152 0.0
C101 C 0.03299 0.24983 0.24909 0.0
C102 C 0.04822 0.2275 0.22654 0.0
C103 C 0.02551 0.21195 0.20335 0.0
O104 O 0.96648 0.19248 0.19072 0.0
O105 O 0.98382 0.16266 0.19563 0.0
O106 O 0.0274 0.19156 0.20137 0.0
O107 O 0.01025 0.22013 0.19375 0.0
H108 H 0.95442 0.17227 0.23136 0.0
H109 H 0.9203 0.16133 0.24332 0.0
H110 H 0.90093 0.14182 0.19037 0.0
H111 H 0.93491 0.15321 0.17853 0.0
H112 H 0.01839 0.20407 0.09011 0.0
H113 H 0.99967 0.18655 0.11381 0.0
H114 H 0.06445 0.22643 0.1286 0.0
H115 H 0.044 0.20999 0.15266 0.0
H116 H 0.06608 0.2486 0.243 0.0
H117 H 0.9993 0.24715 0.25191 0.0
H118 H 0.99503 0.22154 0.22776 0.0
H119 H 0.06182 0.22313 0.2188 0.0
C120 C 0.96352 0.88683 0.09396 0.0
C121 C 0.96072 0.90856 0.09206 0.0
C122 C 0.94348 0.90304 0.06301 0.0
C123 C 0.95086 0.91663 0.07661 0.0
C124 C 0.94654 0.88133 0.06526 0.0
C125 C 0.95659 0.87344 0.08041 0.0
U126 U 0.99158 0.87967 0.14112 0.0
O127 O 0.98168 0.85541 0.16034 0.0
O128 O 0.01242 0.85279 0.14697 0.0
C129 C 0.99853 0.84407 0.15767 0.0
C130 C 0.97251 0.87688 0.11 0.0
C131 C 1.00521 0.82914 0.17161 0.0
C132 C 0.01247 0.79278 0.17918 0.0
C133 C 0.00885 0.80841 0.16641 0.0
C134 C 0.00975 0.81863 0.20269 0.0
C135 C 0.01274 0.79756 0.19755 0.0
C136 C 1.00585 0.83428 0.18982 0.0
C137 C 0.00956 0.93455 0.16363 0.0
C138 C 0.02268 0.9509 0.19079 0.0
C139 C 0.01484 0.9722 0.16464 0.0
C140 C 0.00895 0.95424 0.15532 0.0
C141 C 0.02184 0.97086 0.18251 0.0
C142 C 0.01646 0.93285 0.18142 0.0
C143 C 1.00203 0.91655 0.15326 0.0
O144 O 0.99301 0.8767 0.11176 0.0
O145 O 0.96247 0.87904 0.12518 0.0
O146 O 0.98409 0.90742 0.15726 0.0
O147 O 0.01498 0.90523 0.14371 0.0
H148 H 0.96596 0.91916 0.10248 0.0
H149 H 0.94907 0.93345 0.07536 0.0
H150 H 0.94064 0.87015 0.0556 0.0
H151 H 0.95849 0.8566 0.08174 0.0
H152 H 0.01422 0.7768 0.1746 0.0
H153 H 0.00809 0.8041 0.15239 0.0
H154 H 0.01015 0.82302 0.21667 0.0
H155 H 1.00293 0.85021 0.19409 0.0
H156 H 0.02819 0.94918 0.20445 0.0
H157 H 0.01335 0.98718 0.15788 0.0
H158 H 1.00347 0.95581 0.14161 0.0
H159 H 0.01696 0.91769 0.18804 0.0
C160 C 0.58477 0.19853 0.3744 0.0
C161 C 0.57344 0.21674 0.37018 0.0
C162 C 0.56076 0.21845 0.4009 0.0
C163 C 0.56152 0.22663 0.38335 0.0
C164 C 0.57142 0.19967 0.40473 0.0
C165 C 0.58331 0.18985 0.3916 0.0
U166 U 0.60963 0.19197 0.32788 0.0
O167 O 0.64357 0.19365 0.32272 0.0
O168 O 0.62572 0.16464 0.31626 0.0
C169 C 0.6441 0.17406 0.31737 0.0
C170 C 0.60015 0.18974 0.36198 0.0
C171 C 0.66199 0.16668 0.30695 0.0
C172 C 0.69757 0.15343 0.30763 0.0
C173 C 0.67935 0.15919 0.3165 0.0
C174 C 0.68098 0.16174 0.27923 0.0
C175 C 0.69882 0.15475 0.28885 0.0
C176 C 0.66273 0.16781 0.28823 0.0
C177 C 0.58027 0.22419 0.28998 0.0
C178 C 0.59156 0.24443 0.26418 0.0
C179 C 0.55518 0.24527 0.27342 0.0
C180 C 0.55969 0.23105 0.28712 0.0
C181 C 0.57126 0.25289 0.26234 0.0
C182 C 0.59607 0.2302 0.27799 0.0
C183 C 0.58502 0.21449 0.30733 0.0
O184 O 0.59321 0.1761 0.35017 0.0
O185 O 0.61348 0.20339 0.35528 0.0
O186 O 0.60097 0.22235 0.31635 0.0
O187 O 0.58273 0.19407 0.30914 0.0
H188 H 0.57442 0.2237 0.35694 0.0
H189 H 0.55326 0.24092 0.37992 0.0
H190 H 0.57141 0.19307 0.41812 0.0
H191 H 0.59211 0.17591 0.39511 0.0
H192 H 0.71089 0.14873 0.31571 0.0
H193 H 0.67905 0.15833 0.331 0.0
H194 H 0.68109 0.16268 0.26476 0.0
H195 H 0.6494 0.17359 0.28066 0.0
H196 H 0.60433 0.25002 0.25589 0.0
H197 H 0.53934 0.25117 0.27214 0.0
H198 H 0.54732 0.22657 0.2963 0.0
H199 H 0.61208 0.22508 0.28005 0.0
C200 C 0.96451 0.5377 0.42388 0.0
C201 C 0.96211 0.51591 0.42625 0.0
C202 C 0.94538 0.52149 0.45535 0.0
C203 C 0.95271 0.50786 0.4419 0.0
C204 C 0.94808 0.54324 0.45271 0.0
C205 C 0.95765 0.55114 0.43732 0.0
U206 U 0.99224 0.53768 0.37746 0.0
O207 O 0.98421 0.55614 0.35327 0.0
O208 O 0.01491 0.56085 0.36672 0.0
C209 C 1.00257 0.56562 0.35314 0.0
C210 C 0.97319 0.54736 0.40744 0.0
C211 C 1.00542 0.58552 0.3432 0.0
C212 C 1.00609 0.62363 0.34023 0.0
C213 C 1.00324 0.60548 0.35084 0.0
C214 C 0.01327 0.6019 0.31453 0.0
C215 C 0.01109 0.62206 0.32184 0.0
C216 C 0.01056 0.58399 0.32507 0.0
C217 C 0.00918 0.48183 0.35994 0.0
C218 C 0.01903 0.46774 0.33095 0.0
C219 C 0.01941 0.44542 0.3573 0.0
C220 C 0.01302 0.46222 0.36769 0.0
C221 C 0.02247 0.44781 0.33878 0.0
C222 C 0.01235 0.48467 0.34147 0.0
C223 C 1.00042 0.49798 0.37171 0.0
O224 O 0.9937 0.54737 0.40575 0.0
O225 O 0.96318 0.54347 0.39238 0.0
O226 O 0.98283 0.50696 0.3667 0.0
O227 O 0.01359 0.5107 0.37988 0.0
H228 H 0.96734 0.50518 0.41601 0.0
H229 H 0.95124 0.49102 0.44341 0.0
H230 H 0.94226 0.55444 0.46228 0.0
H231 H 0.95925 0.56798 0.43573 0.0
H232 H 1.00449 0.63883 0.34645 0.0
H233 H 0.99934 0.60704 0.36486 0.0
H234 H 0.01659 0.59979 0.30046 0.0
H235 H 0.01229 0.56874 0.31893 0.0
H236 H 0.02135 0.47021 0.31674 0.0
H237 H 0.02125 0.43033 0.36381 0.0
H238 H 0.01043 0.45968 0.38187 0.0
H239 H 0.00937 0.49974 0.3352 0.0
C240 C 0.94579 0.25024 0.3216 0.0
C241 C 0.94271 0.24695 0.30322 0.0
C242 C 0.9075 0.26158 0.30535 0.0
C243 C 0.92367 0.25275 0.29509 0.0
C244 C 0.91122 0.26569 0.32356 0.0
C245 C 0.93017 0.26007 0.33157 0.0
U246 U 0.99825 0.22303 0.34147 0.0
O247 O 0.01423 0.23675 0.36502 0.0
O248 O 0.99417 0.20883 0.36799 0.0
C249 C 1.00688 0.2222 0.37587 0.0
C250 C 0.96386 0.24181 0.33142 0.0
C251 C 0.02136 0.21306 0.38909 0.0
C252 C 0.02992 0.20876 0.42053 0.0
C253 C 0.01922 0.21925 0.4069 0.0
C254 C 0.04608 0.1862 0.39861 0.0
C255 C 0.04294 0.19167 0.41666 0.0
C256 C 0.03525 0.19679 0.38487 0.0
C257 C 0.02794 0.19458 0.30214 0.0
C258 C 0.05269 0.17354 0.28565 0.0
C259 C 0.01656 0.17589 0.27555 0.0
C260 C 0.01218 0.1896 0.28962 0.0
C261 C 0.03658 0.16696 0.27413 0.0
C262 C 0.04841 0.18742 0.29948 0.0
C263 C 0.02309 0.20271 0.31994 0.0
O264 O 0.96448 0.22172 0.33539 0.0
O265 O 0.98215 0.2515 0.33143 0.0
O266 O 0.02528 0.22291 0.32301 0.0
O267 O 1.0072 0.1939 0.32831 0.0
H268 H 0.95462 0.23926 0.29537 0.0
H269 H 0.92118 0.24931 0.28105 0.0
H270 H 0.8992 0.2727 0.33175 0.0
H271 H 0.9323 0.26267 0.3458 0.0
H272 H 0.02748 0.21368 0.43421 0.0
H273 H 0.00853 0.23173 0.41038 0.0
H274 H 0.05598 0.17308 0.39519 0.0
H275 H 0.03701 0.19173 0.37114 0.0
H276 H 0.06814 0.16662 0.28486 0.0
H277 H 1.00389 0.17074 0.26685 0.0
H278 H 0.99623 0.19488 0.29157 0.0
H279 H 0.0607 0.19098 0.3091 0.0
C280 C 0.65408 0.87867 0.43054 0.0
C281 C 0.66259 0.89905 0.43002 0.0
C282 C 0.67383 0.89546 0.46119 0.0
C283 C 0.67242 0.9074 0.44528 0.0
C284 C 0.66425 0.87554 0.46173 0.0
C285 C 0.65461 0.86725 0.44656 0.0
U286 U 0.62801 0.87419 0.38336 0.0
O287 O 0.63785 0.85264 0.36207 0.0
O288 O 0.60641 0.84893 0.37464 0.0
C289 C 0.62041 0.84166 0.36343 0.0
C290 C 0.64614 0.8679 0.41451 0.0
C291 C 0.61523 0.82525 0.35051 0.0
C292 C 0.61623 0.78845 0.34258 0.0
C293 C 0.61931 0.80432 0.35512 0.0
C294 C 0.60407 0.81419 0.32091 0.0
C295 C 0.60879 0.7933 0.32536 0.0
C296 C 0.60742 0.83016 0.33343 0.0
C297 C 0.6111 0.92969 0.36288 0.0
C298 C 0.59354 0.94371 0.33649 0.0
C299 C 0.60627 0.96712 0.35966 0.0
C300 C 0.61364 0.95005 0.36937 0.0
C301 C 0.59584 0.96426 0.34323 0.0
C302 C 0.60114 0.92644 0.3463 0.0
C303 C 0.61911 0.91279 0.37431 0.0
O304 O 0.6257 0.86742 0.41223 0.0
O305 O 0.65661 0.87088 0.3996 0.0
O306 O 0.63693 0.90385 0.37011 0.0
O307 O 0.60567 0.9004 0.38255 0.0
H308 H 0.66225 0.90817 0.41773 0.0
H309 H 0.67962 0.9228 0.44436 0.0
H310 H 0.66445 0.86614 0.47384 0.0
H311 H 0.64802 0.85154 0.44721 0.0
H312 H 0.62001 0.77242 0.34621 0.0
H313 H 0.62542 0.80032 0.36827 0.0
H314 H 0.59852 0.8182 0.30759 0.0
H315 H 0.60433 0.84631 0.32971 0.0
H316 H 0.58559 0.94098 0.32385 0.0
H317 H 0.60898 0.98264 0.36505 0.0
H318 H 0.62144 0.9528 0.38209 0.0
H319 H 0.59913 0.91073 0.34109 0.0
C320 C 0.41621 0.01516 0.86178 0.0
C321 C 0.42251 0.01232 0.84392 0.0
C322 C 0.38597 1.00684 0.83458 0.0
C323 C 0.40752 0.00819 0.83044 0.0
C324 C 0.38006 0.00874 0.85265 0.0
C325 C 0.39495 0.01294 0.86599 0.0
U326 U 0.47167 0.02082 0.88241 0.0
O327 O 0.48593 0.0473 0.89704 0.0
O328 O 0.48287 0.01639 0.91023 0.0
C329 C 0.48976 0.03583 0.91136 0.0
C330 C 0.43103 0.0215 0.87617 0.0
C331 C 0.49054 0.04612 0.92901 0.0
C332 C 0.47619 0.06737 0.953 0.0
C333 C 0.47363 0.05693 0.93653 0.0
C334 C 0.51242 0.05631 0.95429 0.0
C335 C 0.49572 0.06727 0.96208 0.0
C336 C 0.50979 0.04581 0.93811 0.0
C337 C 0.51735 0.99988 0.85289 0.0
C338 C 0.55497 0.99909 0.85861 0.0
C339 C 0.54105 0.98851 0.82975 0.0
C340 C 0.52082 0.99245 0.83561 0.0
C341 C 0.55843 0.99215 0.84099 0.0
C342 C 0.53447 1.003 0.86455 0.0
C343 C 0.49557 1.00436 0.85776 0.0
O344 O 0.44031 1.00629 0.88509 0.0
O345 O 0.44367 0.03729 0.87247 0.0
O346 O 0.49008 0.02419 0.85776 0.0
O347 O 0.48745 0.99338 0.87098 0.0
H348 H 0.4389 0.01384 0.84033 0.0
H349 H 0.41274 1.00684 0.81672 0.0
H350 H 0.36379 1.00722 0.85654 0.0
H351 H 0.38974 0.01487 0.87966 0.0
H352 H 0.46288 0.07546 0.95861 0.0
H353 H 0.45862 0.05743 0.92967 0.0
H354 H 0.52785 0.05622 0.96041 0.0
H355 H 0.5231 0.03774 0.93244 0.0
H356 H 0.56806 1.00208 0.86756 0.0
H357 H 0.54307 0.98272 0.81626 0.0
H358 H 0.50777 0.98984 0.8265 0.0
H359 H 0.53202 0.0087 0.87801 0.0
C360 C 0.84149 0.35775 0.8112 0.0
C361 C 0.82715 0.34931 0.79885 0.0
C362 C 0.85043 0.31978 0.79401 0.0
C363 C 0.8316 0.33038 0.79032 0.0
C364 C 0.86526 0.32889 0.80554 0.0
C365 C 0.86076 0.34773 0.81412 0.0
U366 U 0.81476 0.40763 0.83346 0.0
O367 O 0.80484 0.40433 0.86131 0.0
O368 O 0.82996 0.42668 0.85451 0.0
C369 C 0.81775 0.41893 0.86706 0.0
C370 C 0.8355 0.3743 0.82372 0.0
C371 C 0.80873 0.43363 0.87986 0.0
C372 C 0.80724 0.44474 0.91075 0.0
C373 C 0.81732 0.43404 0.89711 0.0
C374 C 0.78028 0.45589 0.8898 0.0
C375 C 0.7883 0.45523 0.90739 0.0
C376 C 0.7904 0.44501 0.87607 0.0
C377 C 0.77746 0.43313 0.79643 0.0
C378 C 0.74606 0.44806 0.7834 0.0
C379 C 0.77039 0.42918 0.76466 0.0
C380 C 0.78342 0.42565 0.7796 0.0
C381 C 0.75127 0.44004 0.76652 0.0
C382 C 0.75905 0.44471 0.7981 0.0
C383 C 0.7891 0.42896 0.813 0.0
O384 O 0.84318 0.39338 0.82178 0.0
O385 O 0.8163 0.37364 0.83004 0.0
O386 O 0.78308 0.41279 0.82272 0.0
O387 O 0.80938 0.43287 0.81364 0.0
H388 H 0.8121 0.3567 0.79655 0.0
H389 H 0.81997 0.32353 0.78143 0.0
H390 H 0.87974 0.32083 0.80873 0.0
H391 H 0.87184 0.35383 0.82389 0.0
H392 H 0.81392 0.44422 0.92411 0.0
H393 H 0.83139 0.42525 0.90024 0.0
H394 H 0.76566 0.46382 0.88688 0.0
H395 H 0.78348 0.4447 0.86279 0.0
H396 H 0.73136 0.45602 0.78563 0.0
H397 H 0.77505 0.423 0.75181 0.0
H398 H 0.79775 0.4168 0.77809 0.0
H399 H 0.75428 0.45063 0.81103 0.0
C400 C 0.13589 0.35617 0.92467 0.0
C401 C 0.11434 0.35151 0.92525 0.0
C402 C 0.11857 0.33707 0.95547 0.0
C403 C 0.10572 0.34206 0.9406 0.0
C404 C 0.14004 0.34221 0.95472 0.0
C405 C 0.1485 0.35174 0.93956 0.0
U406 U 0.14075 0.38329 0.87769 0.0
O407 O 0.16733 0.40378 0.86934 0.0
O408 O 0.16164 0.37293 0.85634 0.0
C409 C 0.17373 0.38962 0.85788 0.0
C410 C 0.14639 0.36421 0.90855 0.0
C411 C 0.18935 0.39421 0.84403 0.0
C412 C 0.22596 0.39964 0.83638 0.0
C413 C 0.21024 0.39763 0.84923 0.0
C414 C 0.19987 0.39585 0.81289 0.0
C415 C 0.22107 0.39854 0.818 0.0
C416 C 0.18419 0.3935 0.8258 0.0
C417 C 0.08613 0.40306 0.85726 0.0
C418 C 0.07237 0.4172 0.82926 0.0
C419 C 0.04888 0.40908 0.8538 0.0
C420 C 0.06582 0.40273 0.86421 0.0
C421 C 0.05189 0.41604 0.83617 0.0
C422 C 0.08952 0.41054 0.83976 0.0
C423 C 0.10263 0.39427 0.86874 0.0
O424 O 0.14267 0.35422 0.89352 0.0
O425 O 0.14757 0.38467 0.90662 0.0
O426 O 0.11566 0.407 0.87709 0.0
O427 O 0.1107 0.37606 0.86444 0.0
H428 H 0.10434 0.35483 0.91383 0.0
H429 H 0.08908 0.33858 0.94077 0.0
H430 H 0.15059 0.33825 0.96561 0.0
H431 H 0.16519 0.35509 0.93927 0.0
H432 H 0.24203 0.40129 0.84094 0.0
H433 H 0.21452 0.39797 0.86329 0.0
H434 H 0.19535 0.39535 0.79891 0.0
H435 H 0.16812 0.39083 0.82157 0.0
H436 H 0.07497 0.42252 0.81565 0.0
H437 H 0.03327 0.40825 0.85946 0.0
H438 H 0.06295 0.39703 0.87769 0.0
H439 H 0.10516 0.41084 0.83419 0.0
C440 C 0.80225 0.99252 0.88063 0.0
C441 C 0.82055 0.98094 0.87777 0.0
C442 C 0.82208 0.97207 0.90962 0.0
C443 C 0.83034 0.97062 0.89219 0.0
C444 C 0.80319 0.9829 0.91209 0.0
C445 C 0.79342 0.993 0.89774 0.0
U446 U 0.7882 0.02331 0.83527 0.0
O447 O 0.78427 0.05727 0.83751 0.0
O448 O 0.7572 0.03759 0.83017 0.0
C449 C 0.76439 0.05668 0.83293 0.0
C450 C 0.79335 1.0067 0.8671 0.0
C451 C 0.75751 0.07347 0.82075 0.0
C452 C 0.73929 0.10659 0.818 0.0
C453 C 0.74366 0.0883 0.82756 0.0
C454 C 0.76184 0.09506 0.79402 0.0
C455 C 0.74887 0.1106 0.80142 0.0
C456 C 0.76623 0.07661 0.80369 0.0
C457 C 0.82184 0.99865 0.79582 0.0
C458 C 0.84251 0.99701 0.76881 0.0
C459 C 0.84583 0.96971 0.79138 0.0
C460 C 0.8306 0.9797 0.80181 0.0
C461 C 0.85199 0.97847 0.77483 0.0
C462 C 0.82789 1.00711 0.77934 0.0
C463 C 0.80722 0.01117 0.80625 0.0
O464 O 0.8056 0.0215 0.86061 0.0
O465 O 0.77901 0.99982 0.85579 0.0
O466 O 0.81518 0.0252 0.81722 0.0
O467 O 0.78938 1.00279 0.81157 0.0
H468 H 0.82767 0.98058 0.86464 0.0
H469 H 0.84492 0.96246 0.88988 0.0
H470 H 0.79621 0.98403 0.92523 0.0
H471 H 0.77936 1.002 0.9002 0.0
H472 H 0.72887 0.11794 0.82393 0.0
H473 H 0.73685 0.08617 0.84072 0.0
H474 H 0.7695 0.09767 0.78129 0.0
H475 H 0.77709 0.06531 0.79827 0.0
H476 H 0.84729 1.00445 0.75639 0.0
H477 H 0.85309 0.95549 0.79635 0.0
H478 H 0.82618 0.97306 0.81464 0.0
H479 H 0.82179 0.02207 0.77484 0.0
C480 C 0.41437 0.37785 0.65782 0.0
C481 C 0.4212 0.38154 0.67548 0.0
C482 C 0.38493 0.38622 0.68513 0.0
C483 C 0.4066 0.38567 0.68903 0.0
C484 C 0.37844 0.38344 0.66723 0.0
C485 C 0.39296 0.37919 0.65381 0.0
U486 U 0.4696 0.37434 0.63811 0.0
O487 O 0.48492 0.34885 0.62338 0.0
O488 O 0.48113 0.3799 0.61064 0.0
C489 C 0.4885 0.36075 0.60928 0.0
C490 C 0.42898 0.37191 0.64343 0.0
C491 C 0.48895 0.35084 0.59148 0.0
C492 C 0.47471 0.32883 0.56769 0.0
C493 C 0.47236 0.33888 0.58432 0.0
C494 C 0.5101 0.34255 0.56555 0.0
C495 C 0.49372 0.33047 0.55811 0.0
C496 C 0.50765 0.35267 0.58188 0.0
C497 C 0.51428 0.39718 0.6679 0.0
C498 C 0.5518 0.39694 0.66236 0.0
C499 C 0.53821 0.41387 0.68883 0.0
C500 C 0.51788 0.40845 0.68364 0.0
C501 C 0.55545 0.40823 0.67828 0.0
C502 C 0.53131 0.39143 0.65719 0.0
C503 C 0.49253 0.39161 0.6634 0.0
O504 O 0.4379 0.38749 0.63468 0.0
O505 O 0.44197 0.35655 0.64723 0.0
O506 O 0.48794 0.3715 0.66301 0.0
O507 O 0.48378 0.40239 0.65034 0.0
H508 H 0.43774 0.38074 0.67885 0.0
H509 H 0.41224 0.38768 0.70262 0.0
H510 H 0.36203 0.38435 0.66353 0.0
H511 H 0.38738 0.37664 0.64026 0.0
H512 H 0.46165 0.31985 0.56237 0.0
H513 H 0.45779 0.33718 0.59158 0.0
H514 H 0.52518 0.34382 0.55904 0.0
H515 H 0.52072 0.36163 0.58727 0.0
H516 H 0.56472 0.39249 0.65385 0.0
H517 H 0.5404 0.42213 0.70133 0.0
H518 H 0.50489 0.41291 0.69208 0.0
H519 H 0.52876 0.38273 0.64494 0.0
C520 C 0.80145 0.43118 0.6352 0.0
C521 C 0.81993 0.44244 0.6391 0.0
C522 C 0.82284 0.4527 0.60771 0.0
C523 C 0.83053 0.45324 0.62542 0.0
C524 C 0.80365 0.44248 0.60425 0.0
C525 C 0.79311 0.43182 0.61785 0.0
U526 U 0.79255 0.40613 0.68203 0.0
O527 O 0.79239 0.3721 0.68668 0.0
O528 O 0.76396 0.39052 0.69242 0.0
C529 C 0.77256 0.37185 0.69138 0.0
C530 C 0.79209 0.41629 0.64795 0.0
C531 C 0.76527 0.35469 0.70296 0.0
C532 C 0.749 0.32019 0.70436 0.0
C533 C 0.75419 0.33828 0.69477 0.0
C534 C 0.76516 0.33508 0.73089 0.0
C535 C 0.75473 0.31814 0.72247 0.0
C536 C 0.7705 0.35323 0.72116 0.0
C537 C 0.82472 0.43437 0.72086 0.0
C538 C 0.84433 0.42296 0.74705 0.0
C539 C 0.84712 0.45898 0.7367 0.0
C540 C 0.83261 0.45474 0.72317 0.0
C541 C 0.85387 0.44289 0.74822 0.0
C542 C 0.82991 0.41865 0.73331 0.0
C543 C 0.81512 0.42958 0.70348 0.0
O544 O 0.80515 0.40271 0.65504 0.0
O545 O 0.77837 0.42357 0.6594 0.0
O546 O 0.82269 0.4135 0.69471 0.0
O547 O 0.79488 0.43249 0.70114 0.0
H548 H 0.82664 0.44203 0.65246 0.0
H549 H 0.84529 0.46096 0.62849 0.0
H550 H 0.79711 0.44211 0.59083 0.0
H551 H 0.77891 0.42318 0.61461 0.0
H552 H 0.74135 0.30745 0.69731 0.0
H553 H 0.75021 0.33911 0.68065 0.0
H554 H 0.76956 0.33413 0.7449 0.0
H555 H 0.77912 0.36577 0.72767 0.0
H556 H 0.84932 0.41027 0.75576 0.0
H557 H 0.85406 0.47451 0.73745 0.0
H558 H 0.82882 0.46703 0.71362 0.0
H559 H 0.82401 0.4028 0.73165 0.0
C560 C 0.12192 0.04325 0.59959 0.0
C561 C 0.10158 0.05084 0.59692 0.0
C562 C 0.11146 0.06492 0.56774 0.0
C563 C 0.09634 0.06145 0.5811 0.0
C564 C 0.13188 0.05718 0.57045 0.0
C565 C 0.13703 0.0463 0.58622 0.0
U566 U 0.13829 0.01543 0.64687 0.0
O567 O 0.16917 0.99992 0.64709 0.0
O568 O 0.16529 0.0304 0.66016 0.0
C569 C 0.17792 0.01469 0.65688 0.0
C570 C 0.12753 0.03325 0.61672 0.0
C571 C 0.1918 0.00785 0.67169 0.0
C572 C 0.22727 0.99955 0.68144 0.0
C573 C 0.21275 1.00343 0.66775 0.0
C574 C 0.19982 1.0033 0.70342 0.0
C575 C 0.22119 0.99979 0.69954 0.0
C576 C 0.18528 0.00738 0.68963 0.0
C577 C 0.08828 0.99415 0.67249 0.0
C578 C 0.06421 0.97649 0.69262 0.0
C579 C 0.05075 1.0004 0.67004 0.0
C580 C 0.0713 1.00412 0.66399 0.0
C581 C 0.04712 0.9869 0.68474 0.0
C582 C 0.0845 0.98011 0.68657 0.0
C583 C 0.11034 0.99887 0.66845 0.0
O584 O 0.1279 0.04361 0.63189 0.0
O585 O 0.13259 0.0133 0.61774 0.0
O586 O 0.11944 0.98817 0.65569 0.0
O587 O 0.11639 0.01859 0.66928 0.0
H588 H 0.08977 0.04871 0.60716 0.0
H589 H 0.08055 0.06739 0.57953 0.0
H590 H 0.14383 0.05945 0.56036 0.0
H591 H 0.15289 0.04064 0.58812 0.0
H592 H 0.24349 0.9973 0.67775 0.0
H593 H 0.21812 1.00379 0.65401 0.0
H594 H 0.19434 1.00319 0.71711 0.0
H595 H 0.16913 0.01064 0.69301 0.0
H596 H 0.06194 0.96568 0.70369 0.0
H597 H 0.03785 0.00864 0.66371 0.0
H598 H 0.07395 0.01508 0.65309 0.0
H599 H 0.09742 0.97229 0.69327 0.0
C600 C 0.84716 0.07534 0.70115 0.0
C601 C 0.84123 0.0761 0.7192 0.0
C602 C 0.85584 0.11153 0.72159 0.0
C603 C 0.84569 0.094 0.72939 0.0
C604 C 0.86214 0.11024 0.7036 0.0
C605 C 0.85794 0.09231 0.69356 0.0
U606 U 0.81712 0.02426 0.69109 0.0
O607 O 0.7968 0.01903 0.66754 0.0
O608 O 0.8247 0.99874 0.67233 0.0
C609 C 0.80882 1.0038 0.66187 0.0
C610 C 0.84053 0.05818 0.68938 0.0
C611 C 0.80275 0.99097 0.64652 0.0
C612 C 0.80088 0.98745 0.61428 0.0
C613 C 0.80881 0.99755 0.6294 0.0
C614 C 0.78143 0.9634 0.63332 0.0
C615 C 0.7867 0.97061 0.61607 0.0
C616 C 0.78934 0.97363 0.64849 0.0
C617 C 0.78619 1.00043 0.73169 0.0
C618 C 0.75693 0.97596 0.73269 0.0
C619 C 0.76815 0.99399 0.75963 0.0
C620 C 0.78389 1.00401 0.75 0.0
C621 C 0.75402 0.9804 0.75098 0.0
C622 C 0.77299 0.98594 0.72305 0.0
C623 C 0.80064 0.01428 0.72204 0.0
O624 O 0.84822 0.03947 0.69281 0.0
O625 O 0.82042 0.05789 0.68555 0.0
O626 O 0.792 0.02756 0.71073 0.0
O627 O 0.81843 1.00637 0.71645 0.0
H628 H 0.83274 0.06312 0.72524 0.0
H629 H 0.84089 0.09417 0.74327 0.0
H630 H 0.86952 0.12341 0.69689 0.0
H631 H 0.8624 0.09204 0.67959 0.0
H632 H 0.80542 0.99316 0.60116 0.0
H633 H 0.81911 0.01099 0.6277 0.0
H634 H 0.77042 0.95056 0.63508 0.0
H635 H 0.78442 0.96853 0.66168 0.0
H636 H 0.74624 0.96552 0.7257 0.0
H637 H 0.7661 0.99821 0.77354 0.0
H638 H 0.79341 0.01574 0.75662 0.0
H639 H 0.77445 0.98316 0.70881 0.0
C640 C 0.57138 0.13998 0.28415 0.0
C641 C 0.56751 0.14146 0.26568 0.0
C642 C 0.57042 0.12044 0.29275 0.0
C643 C 0.58286 0.06724 0.28415 0.0
H644 H 0.5483 0.05125 0.32454 0.0
C645 C 0.58943 0.98464 0.31474 0.0
C646 C 0.58781 0.98295 0.33343 0.0
C647 C 0.58394 1.00328 0.30597 0.0
C648 C 0.55833 0.05551 0.31344 0.0
H649 H 0.55935 0.12408 0.24171 0.0
H650 H 0.55828 0.08995 0.25668 0.0
H651 H 0.54455 0.0861 0.31121 0.0
H652 H 0.57776 0.99913 0.3574 0.0
H653 H 0.56977 0.03179 0.34249 0.0
H654 H 0.59763 0.0375 0.28677 0.0
C655 C 0.56161 0.10385 0.26452 0.0
C656 C 0.55602 0.07542 0.30579 0.0
C657 C 0.56214 0.12332 0.25603 0.0
C658 C 0.57975 1.00001 0.34303 0.0
C659 C 0.57475 0.01873 0.33437 0.0
C660 C 0.58555 0.04757 0.29203 0.0
C661 C 0.56611 0.10223 0.28284 0.0
C662 C 0.56825 0.08134 0.29108 0.0
C663 C 0.57705 0.02079 0.31575 0.0
C664 C 0.57334 0.04139 0.30681 0.0
H665 H 0.57562 0.1538 0.29176 0.0
H666 H 0.57404 0.1194 0.30692 0.0
H667 H 0.59258 0.07166 0.27287 0.0
H668 H 0.5956 0.97184 0.30691 0.0
H669 H 0.58543 1.00402 0.29155 0.0
C670 C 0.57665 0.43016 0.19904 0.0
C671 C 0.59317 0.43179 0.18672 0.0
C672 C 0.57203 0.41081 0.20724 0.0
C673 C 0.59554 0.35782 0.21484 0.0
H674 H 0.53821 0.34072 0.22445 0.0
C675 C 0.57754 0.27349 0.23414 0.0
C676 C 0.56764 0.27155 0.25081 0.0
C677 C 0.5773 0.2926 0.22493 0.0
C678 C 0.55426 0.34536 0.22172 0.0
H679 H 0.61837 0.41477 0.17403 0.0
H680 H 0.60975 0.38136 0.18722 0.0
H681 H 0.54529 0.37585 0.21232 0.0
H682 H 0.54857 0.28781 0.27033 0.0
H683 H 0.54803 0.32101 0.25409 0.0
H684 H 0.60446 0.32728 0.22376 0.0
C685 C 0.60052 0.39478 0.19108 0.0
C686 C 0.55837 0.36552 0.21498 0.0
C687 C 0.60531 0.41399 0.18323 0.0
C688 C 0.55617 0.28866 0.25741 0.0
C689 C 0.55584 0.30772 0.24814 0.0
C690 C 0.59139 0.33768 0.22115 0.0
C691 C 0.58385 0.39282 0.20321 0.0
C692 C 0.57911 0.37194 0.21133 0.0
C693 C 0.56711 0.31007 0.23219 0.0
C694 C 0.57077 0.33119 0.22457 0.0
H695 H 0.56699 0.44363 0.20195 0.0
H696 H 0.55923 0.40998 0.21669 0.0
H697 H 0.61176 0.36231 0.21287 0.0
H698 H 0.58619 0.26051 0.22858 0.0
H699 H 0.58589 0.294 0.2125 0.0
C700 C 0.04587 0.27214 0.27463 0.0
C701 C 0.03449 0.26995 0.25861 0.0
C702 C 0.04685 0.29168 0.28318 0.0
C703 C 0.01779 0.34176 0.28453 0.0
H704 H 0.06746 0.36361 0.30825 0.0
C705 C 0.01918 0.42595 0.31084 0.0
C706 C 0.02805 0.4291 0.3279 0.0
C707 C 0.02219 0.40705 0.3018 0.0
C708 C 0.05341 0.35765 0.30178 0.0
H709 H 0.01663 0.28628 0.23819 0.0
H710 H 0.01879 0.32027 0.25265 0.0
H711 H 0.06849 0.32904 0.29423 0.0
H712 H 0.04843 0.41526 0.34813 0.0
H713 H 0.05274 0.38211 0.33282 0.0
H714 H 1.00257 0.37001 0.2921 0.0
C715 C 0.02618 0.30698 0.25915 0.0
C716 C 0.054 0.33783 0.2938 0.0
C717 C 0.02495 0.28755 0.25084 0.0
C718 C 0.04089 0.41325 0.33522 0.0
C719 C 0.04365 0.39428 0.32631 0.0
C720 C 0.01719 0.36146 0.29246 0.0
C721 C 0.03669 0.30923 0.27562 0.0
C722 C 0.03623 0.32978 0.2849 0.0
C723 C 0.03395 0.39075 0.30967 0.0
C724 C 0.03501 0.36979 0.30105 0.0
H725 H 0.05361 0.25873 0.28064 0.0
H726 H 0.05508 0.29291 0.29585 0.0
H727 H 1.00362 0.33582 0.27824 0.0
H728 H 0.00916 0.43767 0.30477 0.0
H729 H 0.01487 0.40504 0.2888 0.0
C730 C 0.03961 0.14743 0.24518 0.0
C731 C 0.03932 0.14752 0.26395 0.0
C732 C 0.04078 0.12835 0.23602 0.0
C733 C 0.02388 0.07468 0.24113 0.0
H734 H 0.06407 0.06012 0.20458 0.0
C735 C 0.02298 0.99235 0.21073 0.0
C736 C 0.02743 0.99039 0.1924 0.0
C737 C 0.02671 0.01126 0.21959 0.0
C738 C 0.0525 0.06402 0.21456 0.0
H739 H 0.04034 0.12836 0.28796 0.0
H740 H 0.04181 0.09508 0.272 0.0
H741 H 0.06627 0.09443 0.21898 0.0
H742 H 0.04043 1.00676 0.16935 0.0
H743 H 0.04539 0.03995 0.18438 0.0
H744 H 0.00939 0.04505 0.23641 0.0
C745 C 0.0414 0.10958 0.26436 0.0
C746 C 0.05388 0.08363 0.22283 0.0
C747 C 0.04061 0.12854 0.27345 0.0
C748 C 0.03626 0.00773 0.18335 0.0
C749 C 0.03952 0.02677 0.1921 0.0
C750 C 0.02223 0.05533 0.23267 0.0
C751 C 0.04116 0.10929 0.24559 0.0
C752 C 0.03966 0.08899 0.23628 0.0
C753 C 0.03453 0.0289 0.2103 0.0
C754 C 0.0366 0.0496 0.21936 0.0
H755 H 0.03863 0.162 0.2377 0.0
H756 H 0.0405 0.12841 0.22151 0.0
H757 H 0.01256 0.07863 0.25133 0.0
H758 H 0.01604 0.97949 0.21819 0.0
H759 H 0.02317 0.01205 0.23373 0.0
C760 C 0.73516 0.96863 0.77876 0.0
C761 C 0.73462 0.974 0.76044 0.0
C762 C 0.71662 0.96754 0.78863 0.0
C763 C 0.66693 0.99356 0.78902 0.0
H764 H 0.64684 0.95011 0.82128 0.0
C765 C 0.58405 0.9963 0.81611 0.0
C766 C 0.57988 0.98958 0.83368 0.0
C767 C 0.60361 0.99315 0.80851 0.0
C768 C 0.65244 0.96252 0.81255 0.0
H769 H 0.71415 0.98115 0.73795 0.0
H770 H 0.68189 0.97898 0.75514 0.0
H771 H 0.67986 0.94516 0.8051 0.0
H772 H 0.59321 0.97453 0.85719 0.0
H773 H 0.62803 0.96971 0.84402 0.0
H774 H 0.64021 0.01126 0.79656 0.0
C775 C 0.69666 0.97574 0.76182 0.0
C776 C 0.67122 0.9596 0.80324 0.0
C777 C 0.71512 0.97673 0.75195 0.0
C778 C 0.596 0.97999 0.84365 0.0
C779 C 0.61582 0.977 0.83604 0.0
C780 C 0.64848 0.99661 0.79845 0.0
C781 C 0.69734 0.97191 0.78034 0.0
C782 C 0.67826 0.97493 0.79108 0.0
C783 C 0.61981 0.98362 0.81837 0.0
C784 C 0.64067 0.98093 0.80996 0.0
H785 H 0.75 0.96635 0.78562 0.0
H786 H 0.71748 0.96458 0.80292 0.0
H787 H 0.67237 1.00585 0.78006 0.0
H788 H 0.57213 1.00405 0.80812 0.0
H789 H 0.60591 0.99808 0.79476 0.0
C790 C 0.5935 0.39932 0.68243 0.0
C791 C 0.57705 0.41369 0.68431 0.0
C792 C 0.61343 0.40388 0.68925 0.0
C793 C 0.64743 0.44714 0.70575 0.0
H794 H 0.67644 0.4015 0.72958 0.0
C795 C 0.72117 0.45773 0.75068 0.0
C796 C 0.73539 0.44092 0.75184 0.0
C797 C 0.70305 0.45612 0.74019 0.0
C798 C 0.66878 0.41436 0.72267 0.0
H799 H 0.56894 0.44453 0.69428 0.0
H800 H 0.60351 0.45214 0.70672 0.0
H801 H 0.64223 0.39523 0.71633 0.0
H802 H 0.74277 0.41026 0.74109 0.0
H803 H 0.71202 0.40811 0.72194 0.0
H804 H 0.67403 0.46633 0.7124 0.0
C805 C 0.60107 0.43745 0.69977 0.0
C806 C 0.64909 0.41076 0.7151 0.0
C807 C 0.58117 0.43295 0.69283 0.0
C808 C 0.73224 0.42351 0.74067 0.0
C809 C 0.71434 0.42209 0.72991 0.0
C810 C 0.66723 0.45076 0.71334 0.0
C811 C 0.61737 0.42286 0.69824 0.0
C812 C 0.63824 0.42703 0.70642 0.0
C813 C 0.69901 0.43786 0.73028 0.0
C814 C 0.67821 0.43432 0.72175 0.0
H815 H 0.59088 0.38427 0.67611 0.0
H816 H 0.62575 0.39244 0.68759 0.0
H817 H 0.6395 0.46 0.69909 0.0
H818 H 0.72343 0.47172 0.75865 0.0
H819 H 0.69167 0.46865 0.74071 0.0
C820 C 0.03014 0.44088 0.81773 0.0
C821 C 0.0332 0.42087 0.82517 0.0
C822 C 0.0108 0.44606 0.80989 0.0
C823 C 0.95513 0.42717 0.80932 0.0
H824 H 0.94975 0.46693 0.77038 0.0
C825 C 0.874 0.43896 0.777 0.0
C826 C 0.873 0.44595 0.75923 0.0
C827 C 0.89296 0.43983 0.78651 0.0
C828 C 0.95069 0.45537 0.78096 0.0
H829 H 0.01929 0.39018 0.82927 0.0
H830 H 0.98625 0.39862 0.81482 0.0
H831 H 0.98404 0.45895 0.78209 0.0
H832 H 0.89082 0.45967 0.73748 0.0
H833 H 0.92373 0.45982 0.75312 0.0
H834 H 0.92252 0.4217 0.80734 0.0
C835 C 0.99811 0.4108 0.8157 0.0
C836 C 0.97061 0.45117 0.78801 0.0
C837 C 0.01718 0.4058 0.82376 0.0
C838 C 0.89109 0.45435 0.75128 0.0
C839 C 0.91016 0.45453 0.76049 0.0
C840 C 0.93538 0.43068 0.80185 0.0
C841 C 0.99434 0.43119 0.80918 0.0
C842 C 0.97314 0.43674 0.80212 0.0
C843 C 0.91167 0.44683 0.77821 0.0
C844 C 0.93269 0.44464 0.78731 0.0
H845 H 0.04229 0.45277 0.81878 0.0
H846 H 0.00854 0.46194 0.80508 0.0
H847 H 0.95621 0.41655 0.82065 0.0
H848 H 0.86016 0.43266 0.7835 0.0
H849 H 0.89268 0.43464 0.80028 0.0
C850 C 0.88935 0.96735 0.7735 0.0
C851 C 0.87009 0.97039 0.76473 0.0
C852 C 0.90774 0.96516 0.76364 0.0
C853 C 0.92845 0.97956 0.71898 0.0
H854 H 0.97787 0.9509 0.73674 0.0
C855 C 0.00812 0.98101 0.68169 0.0
C856 C 0.02592 0.98409 0.69257 0.0
C857 C 0.98849 0.97721 0.68942 0.0
C858 C 0.9642 0.95904 0.73164 0.0
H859 H 0.85455 0.9716 0.73887 0.0
H860 H 0.88649 0.96691 0.72161 0.0
H861 H 0.94455 0.94597 0.75196 0.0
H862 H 0.03689 0.98658 0.72004 0.0
H863 H 1.00284 0.98001 0.73343 0.0
H864 H 0.94824 0.99263 0.69866 0.0
C865 C 0.88761 0.96701 0.73608 0.0
C866 C 0.94509 0.95626 0.74039 0.0
C867 C 0.86927 0.96944 0.74595 0.0
C868 C 0.02358 0.98379 0.71128 0.0
C869 C 1.00406 0.97997 0.71897 0.0
C870 C 0.94754 0.98217 0.71013 0.0
C871 C 0.9072 0.96572 0.74478 0.0
C872 C 0.92703 0.96678 0.73438 0.0
C873 C 0.98633 0.97643 0.70816 0.0
C874 C 0.9657 0.97226 0.71657 0.0
H875 H 0.89046 0.96831 0.78796 0.0
H876 H 0.92248 0.96442 0.77087 0.0
H877 H 0.91504 0.98828 0.71411 0.0
H878 H 0.00947 0.98103 0.66724 0.0
H879 H 0.97508 0.97446 0.68076 0.0
C880 C 0.48939 0.09811 0.98264 0.0
C881 C 0.49921 0.07879 0.97931 0.0
C882 C 0.49408 0.10953 0.99819 0.0
C883 C 0.51858 0.10441 0.04347 0.0
H884 H 0.5259 0.1646 0.03932 0.0
C885 C 0.55721 0.15211 0.10039 0.0
C886 C 0.55197 0.17331 0.10258 0.0
C887 C 0.54935 0.14066 0.08588 0.0
C888 C 0.52356 0.14787 0.04094 0.0
H889 H 0.52101 0.05605 0.99048 0.0
H890 H 0.52978 0.07623 0.01687 0.0
H891 H 0.51432 0.14464 0.01348 0.0
H892 H 0.53375 0.19893 0.09153 0.0
H893 H 0.51931 0.17886 0.06668 0.0
H894 H 0.52746 0.10751 0.07091 0.0
C895 C 0.51824 0.08251 1.00762 0.0
C896 C 0.51694 0.13637 0.02599 0.0
C897 C 0.51341 0.07103 0.99224 0.0
C898 C 0.53825 0.18266 0.09013 0.0
C899 C 0.5301 0.17112 0.07576 0.0
C900 C 0.52496 0.11591 0.05846 0.0
C901 C 0.50877 0.10198 0.01079 0.0
C902 C 0.5146 0.11444 0.02698 0.0
C903 C 0.53571 0.14998 0.07325 0.0
C904 C 0.52783 0.13782 0.05741 0.0
H905 H 0.4785 0.10476 0.97303 0.0
H906 H 0.48624 0.12433 1.00029 0.0
H907 H 0.51657 0.0876 0.04487 0.0
H908 H 0.56806 0.14452 0.10953 0.0
H909 H 0.55455 0.12465 0.08436 0.0
C910 C 0.77368 0.45134 0.9381 0.0
C911 C 0.77626 0.46368 0.92263 0.0
C912 C 0.76261 0.45891 0.9527 0.0
C913 C 0.72365 0.49863 0.9657 0.0
H914 H 0.74271 0.48404 0.01353 0.0
C915 C 0.68327 0.53107 0.02868 0.0
C916 C 0.6829 0.51882 0.04444 0.0
C917 C 0.69465 0.52478 0.01375 0.0
C918 C 0.73691 0.488 1.0003 0.0
H919 H 0.76914 0.4936 0.91021 0.0
H920 H 0.74994 0.50714 0.93599 0.0
H921 H 0.76299 0.47321 0.98784 0.0
H922 H 0.69369 0.48957 0.05623 0.0
H923 H 0.71224 0.47788 0.02978 0.0
H924 H 0.69743 0.51317 0.97808 0.0
C925 C 0.75631 0.49145 0.93672 0.0
C926 C 0.74864 0.48184 0.98551 0.0
C927 C 0.76731 0.48375 0.92197 0.0
C928 C 0.69344 0.49947 0.04442 0.0
C929 C 0.70447 0.49294 0.02929 0.0
C930 C 0.71185 0.50471 0.98049 0.0
C931 C 0.75389 0.4791 0.95229 0.0
C932 C 0.74205 0.48688 0.96801 0.0
C933 C 0.70557 0.5057 0.01385 0.0
C934 C 0.71821 0.49934 0.99802 0.0
H935 H 0.78001 0.43562 0.93884 0.0
H936 H 0.76061 0.44873 0.96423 0.0
H937 H 0.71796 0.50258 0.95242 0.0
H938 H 0.67491 0.54578 0.02784 0.0
H939 H 0.69518 0.53521 1.00228 0.0
C940 C 0.06607 0.2464 0.09507 0.0
C941 C 0.05447 0.22785 0.09211 0.0
C942 C 0.07472 0.25769 0.08072 0.0
C943 C 0.08265 0.255 0.03049 0.0
H944 H 0.08954 0.31506 0.03583 0.0
C945 C 0.09485 0.30997 0.96969 0.0
C946 C 0.11016 0.32582 0.97148 0.0
C947 C 0.08838 0.29824 0.98458 0.0
C948 C 0.08782 0.29827 0.03414 0.0
H949 H 0.04455 0.2061 0.07129 0.0
H950 H 0.05692 0.22673 0.04671 0.0
H951 H 0.07863 0.29412 0.06128 0.0
H952 H 0.12991 0.34228 0.99069 0.0
H953 H 0.11921 0.3214 0.01637 0.0
H954 H 0.09102 0.25957 1.00303 0.0
C955 C 0.06027 0.23241 0.06003 0.0
C956 C 0.0817 0.2861 0.04886 0.0
C957 C 0.05248 0.2207 0.07436 0.0
C958 C 0.11839 0.32996 0.98865 0.0
C959 C 0.11205 0.31815 1.00348 0.0
C960 C 0.0883 0.26726 0.0157 0.0
C961 C 0.07143 0.25123 0.06288 0.0
C962 C 0.07891 0.26421 0.04731 0.0
C963 C 0.09712 0.30203 1.00161 0.0
C964 C 0.09092 0.28904 0.01734 0.0
H965 H 0.06808 0.25268 0.1084 0.0
H966 H 0.08377 0.27164 0.08376 0.0
H967 H 0.08148 0.23823 0.02859 0.0
H968 H 0.08828 0.30615 0.9567 0.0
H969 H 0.07661 0.28611 0.98274 0.0
C970 C 0.84366 0.94413 0.92491 0.0
C971 C 0.8337 0.96372 0.92542 0.0
C972 C 0.85493 0.93675 0.93979 0.0
C973 C 0.86238 0.94524 0.98869 0.0
H974 H 0.91603 0.91879 0.98069 0.0
C975 C 0.91923 0.92885 0.04755 0.0
C976 C 0.93204 0.91097 0.04679 0.0
C977 C 0.90738 0.93516 0.03264 0.0
C978 C 0.90094 0.92579 0.98329 0.0
H979 H 0.82808 0.99107 0.94188 0.0
H980 H 0.84772 0.97832 0.96762 0.0
H981 H 0.89438 0.92873 0.95527 0.0
H982 H 0.943 0.88645 0.02903 0.0
H983 H 0.92123 0.89626 1.00395 0.0
H984 H 0.86867 0.94208 0.01667 0.0
C985 C 0.84647 0.96838 0.95595 0.0
C986 C 0.8885 0.93155 0.96861 0.0
C987 C 0.8352 0.97571 0.94114 0.0
C988 C 0.93293 0.89993 0.03052 0.0
C989 C 0.92067 0.90587 0.01583 0.0
C990 C 0.8747 0.9393 1.00339 0.0
C991 C 0.85655 0.94885 0.95547 0.0
C992 C 0.86917 0.94155 0.97112 0.0
C993 C 0.90762 0.92354 0.01664 0.0
C994 C 0.89429 0.92966 1.00093 0.0
H995 H 0.84262 0.93445 0.91307 0.0
H996 H 0.86228 0.92151 0.93905 0.0
H997 H 0.8474 0.95259 0.99114 0.0
H998 H 0.91789 0.93776 0.05978 0.0
H999 H 0.89797 0.94917 0.03376 0.0
C1000 C 0.51018 0.32829 0.52752 0.0
C1001 C 0.49704 0.31941 0.54069 0.0
C1002 C 0.51493 0.31736 0.51191 0.0
C1003 C 0.51576 0.26376 0.49303 0.0
H1004 H 0.52253 0.29385 0.44824 0.0
C1005 C 0.53885 0.21933 0.42881 0.0
C1006 C 0.55024 0.23007 0.41554 0.0
C1007 C 0.53035 0.23011 0.44332 0.0
C1008 C 0.5212 0.28508 0.46062 0.0
H1009 H 0.4781 0.29202 0.54716 0.0
H1010 H 0.48563 0.27338 0.51951 0.0
H1011 H 0.5119 0.31262 0.47468 0.0
H1012 H 0.56169 0.26063 0.40718 0.0
H1013 H 0.54789 0.27925 0.43257 0.0
H1014 H 0.52586 0.23641 0.47939 0.0
C1015 C 0.49273 0.28865 0.5216 0.0
C1016 C 0.51489 0.29596 0.47587 0.0
C1017 C 0.48815 0.29952 0.53737 0.0
C1018 C 0.5527 0.25189 0.417 0.0
C1019 C 0.5446 0.26263 0.43168 0.0
C1020 C 0.52244 0.25292 0.47786 0.0
C1021 C 0.5064 0.29733 0.50876 0.0
C1022 C 0.51219 0.28549 0.49231 0.0
C1023 C 0.53337 0.25195 0.44521 0.0
C1024 C 0.52542 0.26339 0.46136 0.0
H1025 H 0.517 0.34374 0.52925 0.0
H1026 H 0.52568 0.32451 0.50247 0.0
H1027 H 0.51413 0.25519 0.50551 0.0
H1028 H 0.53644 0.20253 0.42798 0.0
H1029 H 0.52136 0.22116 0.45295 0.0
C1030 C 0.84589 0.4804 0.59345 0.0
C1031 C 0.83546 0.46095 0.59252 0.0
C1032 C 0.85769 0.48778 0.5789 0.0
C1033 C 0.86527 0.47917 0.53003 0.0
H1034 H 0.9188 0.50663 0.53822 0.0
C1035 C 0.92185 0.49523 0.47138 0.0
C1036 C 0.93433 0.51353 0.47179 0.0
C1037 C 0.91026 0.48894 0.4864 0.0
C1038 C 0.90376 0.49929 0.53558 0.0
H1039 H 0.82992 0.43364 0.5759 0.0
H1040 H 0.85051 0.44625 0.55084 0.0
H1041 H 0.89717 0.4967 0.5636 0.0
H1042 H 0.94509 0.53874 0.48916 0.0
H1043 H 0.92387 0.52881 0.51447 0.0
H1044 H 0.87158 0.4819 0.50209 0.0
C1045 C 0.84913 0.45621 0.56247 0.0
C1046 C 0.89132 0.49357 0.55023 0.0
C1047 C 0.83732 0.44894 0.57689 0.0
C1048 C 0.93525 0.52493 0.48791 0.0
C1049 C 0.9233 0.51895 0.50273 0.0
C1050 C 0.87761 0.48501 0.5154 0.0
C1051 C 0.8594 0.47576 0.5632 0.0
C1052 C 0.87204 0.48318 0.54765 0.0
C1053 C 0.91046 0.50095 0.5022 0.0
C1054 C 0.89717 0.49496 0.51792 0.0
H1055 H 0.84468 0.49003 0.60531 0.0
H1056 H 0.86525 0.50299 0.57988 0.0
H1057 H 0.8503 0.47162 0.52749 0.0
H1058 H 0.92051 0.48598 0.45932 0.0
H1059 H 0.90104 0.47466 0.48551 0.0
C1060 C 0.08676 0.07319 0.54246 0.0
C1061 C 0.10591 0.07688 0.55123 0.0
C1062 C 0.08113 0.08476 0.52725 0.0
C1063 C 0.10177 0.12744 0.49539 0.0
H1064 H 0.04391 0.12517 0.47961 0.0
C1065 C 0.07209 0.17079 0.43125 0.0
C1066 C 0.05156 0.17873 0.43159 0.0
C1067 C 0.07966 0.15839 0.44543 0.0
C1068 C 0.0601 0.12636 0.48396 0.0
H1069 H 0.13421 0.09577 0.55094 0.0
H1070 H 0.12422 0.11675 0.5254 0.0
H1071 H 0.05434 0.10509 0.50506 0.0
H1072 H 0.02286 0.17959 0.44705 0.0
H1073 H 0.03615 0.15908 0.47184 0.0
H1074 H 0.10658 0.15048 0.4748 0.0
C1075 C 0.11352 0.10445 0.52945 0.0
C1076 C 0.06643 0.1142 0.49857 0.0
C1077 C 0.11938 0.0924 0.54438 0.0
C1078 C 0.03886 0.17405 0.44642 0.0
C1079 C 0.04642 0.1619 0.46057 0.0
C1080 C 0.0952 0.14019 0.48109 0.0
C1081 C 0.09417 0.101 0.52053 0.0
C1082 C 0.08746 0.11428 0.50465 0.0
C1083 C 0.06682 0.15363 0.46024 0.0
C1084 C 0.07424 0.13984 0.47519 0.0
H1085 H 0.07616 0.06106 0.54721 0.0
H1086 H 0.06652 0.08046 0.52089 0.0
H1087 H 0.1182 0.12809 0.4989 0.0
H1088 H 0.08231 0.17422 0.42006 0.0
H1089 H 0.0954 0.15221 0.4446 0.0
C1090 C 0.68579 0.92436 0.48189 0.0
C1091 C 0.68591 0.90311 0.47701 0.0
C1092 C 0.69707 0.93123 0.49689 0.0
C1093 C 0.73925 0.91454 0.52892 0.0
H1094 H 0.71722 0.96028 0.55701 0.0
C1095 C 0.77351 0.94015 0.59782 0.0
C1096 C 0.77616 0.96189 0.6 0.0
C1097 C 0.76291 0.93228 0.58281 0.0
C1098 C 0.72361 0.94756 0.54923 0.0
H1099 H 0.69859 0.87253 0.48391 0.0
H1100 H 0.71702 0.88416 0.51048 0.0
H1101 H 0.69775 0.94803 0.531 0.0
H1102 H 0.76968 0.99242 0.5883 0.0
H1103 H 0.75135 0.97872 0.56217 0.0
H1104 H 0.76488 0.91386 0.54763 0.0
C1105 C 0.70867 0.89572 0.50257 0.0
C1106 C 0.71252 0.94059 0.53422 0.0
C1107 C 0.69771 0.88895 0.48744 0.0
C1108 C 0.7681 0.97558 0.58689 0.0
C1109 C 0.75741 0.96775 0.57202 0.0
C1110 C 0.75018 0.92133 0.54412 0.0
C1111 C 0.70855 0.91696 0.50752 0.0
C1112 C 0.72027 0.92413 0.52373 0.0
C1113 C 0.75456 0.94606 0.56988 0.0
C1114 C 0.74258 0.93806 0.55428 0.0
H1115 H 0.6768 0.93569 0.47425 0.0
H1116 H 0.69688 0.94778 0.50003 0.0
H1117 H 0.74596 0.90206 0.52107 0.0
H1118 H 0.77965 0.92926 0.6077 0.0
H1119 H 0.76085 0.91548 0.58149 0.0
C1120 C 0.88291 0.27388 0.28089 0.0
C1121 C 0.88613 0.26456 0.29779 0.0
C1122 C 0.86256 0.27571 0.27379 0.0
C1123 C 0.81171 0.24937 0.27614 0.0
H1124 H 0.78823 0.29999 0.25549 0.0
C1125 C 0.72563 0.24979 0.2539 0.0
C1126 C 0.71977 0.2618 0.23885 0.0
C1127 C 0.74541 0.25229 0.2618 0.0
C1128 C 0.79457 0.28558 0.26094 0.0
H1129 H 0.87062 0.24992 0.32046 0.0
H1130 H 0.83541 0.25304 0.30811 0.0
H1131 H 0.8242 0.3003 0.26693 0.0
H1132 H 0.73014 0.28716 0.22131 0.0
H1133 H 0.76499 0.28998 0.23387 0.0
H1134 H 0.78295 0.23417 0.2696 0.0
C1135 C 0.8485 0.25901 0.30037 0.0
C1136 C 0.8152 0.28585 0.26756 0.0
C1137 C 0.86866 0.25738 0.3075 0.0
C1138 C 0.73412 0.27697 0.23244 0.0
C1139 C 0.75417 0.27896 0.23996 0.0
C1140 C 0.79136 0.24895 0.26925 0.0
C1141 C 0.84522 0.26791 0.28336 0.0
C1142 C 0.82383 0.2678 0.27545 0.0
C1143 C 0.7603 0.26635 0.25457 0.0
C1144 C 0.78227 0.2671 0.26176 0.0
H1145 H 0.89609 0.27967 0.27318 0.0
H1146 H 0.86046 0.2826 0.26062 0.0
H1147 H 0.81811 0.2351 0.28184 0.0
H1148 H 0.71532 0.23785 0.25933 0.0
H1149 H 0.74907 0.24279 0.27344 0.0
C1150 C 0.58852 0.76992 0.30462 0.0
C1151 C 0.60775 0.77669 0.31174 0.0
C1152 C 0.58788 0.75368 0.29206 0.0
C1153 C 0.62377 0.72255 0.26222 0.0
H1154 H 0.57369 0.68876 0.25593 0.0
C1155 C 0.62027 0.6609 0.2064 0.0
C1156 C 0.60752 0.64301 0.20846 0.0
C1157 C 0.61928 0.67741 0.2186 0.0
C1158 C 0.58804 0.69768 0.25766 0.0
H1159 H 0.64129 0.77209 0.31169 0.0
H1160 H 0.6404 0.74342 0.29064 0.0
H1161 H 0.57439 0.71561 0.27855 0.0
H1162 H 0.58308 0.62905 0.22494 0.0
H1163 H 0.58272 0.65667 0.24689 0.0
H1164 H 0.6382 0.70334 0.24275 0.0
C1165 C 0.62569 0.75075 0.29393 0.0
C1166 C 0.58826 0.71361 0.2705 0.0
C1167 C 0.62628 0.76707 0.30626 0.0
C1168 C 0.59357 0.64228 0.22303 0.0
C1169 C 0.59305 0.65849 0.23554 0.0
C1170 C 0.62384 0.70611 0.24997 0.0
C1171 C 0.6065 0.74379 0.28646 0.0
C1172 C 0.60611 0.72648 0.27291 0.0
C1173 C 0.60598 0.67634 0.23361 0.0
C1174 C 0.60589 0.69356 0.24723 0.0
H1175 H 0.57402 0.7771 0.30885 0.0
H1176 H 0.57276 0.74923 0.28661 0.0
H1177 H 0.63774 0.7322 0.26305 0.0
H1178 H 0.6314 0.66208 0.19555 0.0
H1179 H 0.62908 0.69101 0.21612 0.0
C1180 C 0.86898 0.15412 0.21419 0.0
C1181 C 0.88619 0.14714 0.22439 0.0
C1182 C 0.84864 0.1524 0.22082 0.0
C1183 C 0.81471 0.12594 0.25348 0.0
H1184 H 0.78252 0.17717 0.24954 0.0
C1185 C 0.73346 0.13571 0.28715 0.0
C1186 C 0.7191 0.15014 0.27972 0.0
C1187 C 0.75357 0.13355 0.28004 0.0
C1188 C 0.79095 0.16251 0.25042 0.0
H1189 H 0.89543 0.1322 0.24935 0.0
H1190 H 0.85961 0.12925 0.26102 0.0
H1191 H 0.81785 0.17625 0.238 0.0
H1192 H 0.71465 0.17257 0.25804 0.0
H1193 H 0.74866 0.1674 0.2448 0.0
H1194 H 0.78759 0.11198 0.26549 0.0
C1195 C 0.86202 0.136 0.24784 0.0
C1196 C 0.81137 0.16208 0.24391 0.0
C1197 C 0.88249 0.13784 0.24123 0.0
C1198 C 0.72502 0.16122 0.26421 0.0
C1199 C 0.74489 0.15859 0.2568 0.0
C1200 C 0.79402 0.12623 0.25975 0.0
C1201 C 0.84495 0.14366 0.23781 0.0
C1202 C 0.82344 0.14381 0.24526 0.0
C1203 C 0.75976 0.14529 0.26496 0.0
C1204 C 0.78178 0.14453 0.25821 0.0
H1205 H 0.87125 0.16161 0.20129 0.0
H1206 H 0.83577 0.15825 0.21272 0.0
H1207 H 0.82368 0.11161 0.25465 0.0
H1208 H 0.72941 0.12631 0.29875 0.0
H1209 H 0.76443 0.12315 0.28681 0.0
C1210 C 0.02749 0.7627 0.20772 0.0
C1211 C 0.015 0.7804 0.21114 0.0
C1212 C 0.02822 0.74588 0.21984 0.0
C1213 C 0.99791 0.72206 0.25711 0.0
H1214 H 0.04909 0.69126 0.2664 0.0
C1215 C 1.00099 0.65893 0.31261 0.0
C1216 C 0.0134 0.64104 0.31002 0.0
C1217 C 1.00217 0.67605 0.30081 0.0
C1218 C 0.03455 0.69946 0.26382 0.0
H1219 H 0.99377 0.79415 0.23038 0.0
H1220 H 0.99582 0.76539 0.25175 0.0
H1221 H 0.04945 0.72061 0.24539 0.0
H1222 H 0.03755 0.62784 0.29309 0.0
H1223 H 0.03868 0.65694 0.2721 0.0
H1224 H 0.98285 0.70086 0.27518 0.0
C1225 C 1.00466 0.76428 0.23946 0.0
C1226 C 0.03479 0.71638 0.25175 0.0
C1227 C 1.00378 0.781 0.22729 0.0
C1228 C 0.02734 0.64104 0.29542 0.0
C1229 C 0.02827 0.658 0.28345 0.0
C1230 C 0.99763 0.70511 0.26906 0.0
C1231 C 0.01662 0.74634 0.23579 0.0
C1232 C 0.0165 0.72804 0.24837 0.0
C1233 C 0.01556 0.67573 0.28586 0.0
C1234 C 0.01597 0.69364 0.27277 0.0
H1235 H 0.03665 0.76173 0.19559 0.0
H1236 H 0.03752 0.7323 0.21647 0.0
H1237 H 0.98339 0.73029 0.25452 0.0
H1238 H 0.98992 0.65959 0.32352 0.0
H1239 H 0.99246 0.68954 0.30345 0.0
C1240 C 0.25545 0.9854 0.71174 0.0
C1241 C 0.23735 0.99768 0.71413 0.0
C1242 C 0.27152 0.98512 0.72463 0.0
C1243 C 0.29205 0.01648 0.76296 0.0
H1244 H 0.32567 0.96719 0.77266 0.0
C1245 C 0.35024 0.01515 0.82193 0.0
C1246 C 0.36946 1.00459 0.82029 0.0
C1247 C 0.33456 0.01327 0.8089 0.0
C1248 C 0.31662 0.98119 0.76998 0.0
H1249 H 0.22204 0.01881 0.73258 0.0
H1250 H 0.24932 0.01741 0.7553 0.0
H1251 H 0.29725 0.9654 0.75066 0.0
H1252 H 0.38701 0.98362 0.80325 0.0
H1253 H 0.3598 0.9809 0.7801 0.0
H1254 H 0.31133 0.03235 0.78208 0.0
C1255 C 0.25145 0.00848 0.74316 0.0
C1256 C 0.30025 0.98016 0.75733 0.0
C1257 C 0.23551 0.00898 0.73018 0.0
C1258 C 0.37252 0.99214 0.80499 0.0
C1259 C 0.35677 0.99036 0.79179 0.0
C1260 C 0.30834 0.01751 0.77554 0.0
C1261 C 0.26991 0.99691 0.74044 0.0
C1262 C 0.28758 0.99777 0.75376 0.0
C1263 C 0.33758 1.00103 0.79352 0.0
C1264 C 0.32077 0.99985 0.77942 0.0
H1265 H 0.25739 0.9761 0.69979 0.0
H1266 H 0.28546 0.97608 0.72193 0.0
H1267 H 0.28316 0.03058 0.76027 0.0
H1268 H 0.3473 0.02521 0.83326 0.0
H1269 H 0.31994 0.02143 0.81099 0.0
C1270 C 0.8754 0.14532 0.72784 0.0
C1271 C 0.85851 0.13163 0.73156 0.0
C1272 C 0.8764 0.1653 0.73545 0.0
C1273 C 0.84131 0.20434 0.75599 0.0
H1274 H 0.89313 0.23278 0.76886 0.0
C1275 C 0.83893 0.28261 0.7923 0.0
C1276 C 0.85345 0.2982 0.78752 0.0
C1277 C 0.84131 0.26214 0.78627 0.0
C1278 C 0.87854 0.22512 0.76515 0.0
H1279 H 0.82997 0.1282 0.74712 0.0
H1280 H 0.8325 0.16221 0.76121 0.0
H1281 H 0.89424 0.19701 0.75733 0.0
H1282 H 0.88227 0.30474 0.77332 0.0
H1283 H 0.88602 0.26891 0.76193 0.0
H1284 H 0.82557 0.23227 0.76353 0.0
C1285 C 0.84456 0.15784 0.75181 0.0
C1286 C 0.87917 0.2046 0.75856 0.0
C1287 C 0.84334 0.13806 0.74395 0.0
C1288 C 0.87078 0.29291 0.77698 0.0
C1289 C 0.87298 0.2724 0.77063 0.0
C1290 C 0.84069 0.22473 0.76253 0.0
C1291 C 0.86073 0.17197 0.74725 0.0
C1292 C 0.8605 0.19387 0.7541 0.0
C1293 C 0.85805 0.25684 0.775 0.0
C1294 C 0.85923 0.23532 0.76744 0.0
H1295 H 0.88772 0.14082 0.71875 0.0
H1296 H 0.88907 0.17573 0.73159 0.0
H1297 H 0.82666 0.19691 0.75215 0.0
H1298 H 0.82575 0.28628 0.80081 0.0
H1299 H 0.8299 0.25046 0.79043 0.0
C1300 C 0.25646 0.41115 0.80704 0.0
C1301 C 0.23809 0.39914 0.80433 0.0
C1302 C 0.27288 0.41062 0.79469 0.0
C1303 C 0.2935 0.37775 0.75791 0.0
H1304 H 0.32649 0.42719 0.74624 0.0
C1305 C 0.34983 0.37755 0.69849 0.0
C1306 C 0.36894 0.38864 0.69955 0.0
C1307 C 0.33458 0.37964 0.71166 0.0
C1308 C 0.31763 0.41316 0.74951 0.0
H1309 H 0.22279 0.37728 0.78618 0.0
H1310 H 0.25072 0.37729 0.76435 0.0
H1311 H 0.29842 0.42958 0.76821 0.0
H1312 H 0.38684 0.41072 0.71564 0.0
H1313 H 0.36045 0.41374 0.73911 0.0
H1314 H 0.31257 0.36126 0.7394 0.0
C1315 C 0.25272 0.38671 0.77627 0.0
C1316 C 0.30148 0.41454 0.76212 0.0
C1317 C 0.23645 0.38701 0.7887 0.0
C1318 C 0.37241 0.40179 0.7144 0.0
C1319 C 0.35714 0.40373 0.72776 0.0
C1320 C 0.30958 0.37637 0.74539 0.0
C1321 C 0.2713 0.39824 0.7792 0.0
C1322 C 0.28902 0.39689 0.7663 0.0
C1323 C 0.33803 0.39259 0.72659 0.0
C1324 C 0.3217 0.3941 0.74078 0.0
H1325 H 0.25824 0.42097 0.81874 0.0
H1326 H 0.28698 0.41961 0.79748 0.0
H1327 H 0.28469 0.36366 0.76113 0.0
H1328 H 0.34662 0.36695 0.68752 0.0
H1329 H 0.31997 0.3711 0.71003 0.0
C1330 C 0.74457 0.13432 0.77434 0.0
C1331 C 0.74674 0.13171 0.79297 0.0
C1332 C 0.74326 0.1545 0.76677 0.0
C1333 C 0.75569 0.21022 0.77836 0.0
H1334 H 0.72567 0.22228 0.73434 0.0
C1335 C 0.76695 0.28972 0.74332 0.0
C1336 C 0.75134 0.29775 0.73193 0.0
C1337 C 0.76496 0.26971 0.75082 0.0
C1338 C 0.73385 0.21942 0.74684 0.0
H1339 H 0.74925 0.14836 0.81818 0.0
H1340 H 0.74577 0.1829 0.80533 0.0
H1341 H 0.72383 0.18726 0.74727 0.0
H1342 H 0.72088 0.29117 0.72005 0.0
H1343 H 0.71694 0.25668 0.73367 0.0
H1344 H 0.76445 0.24238 0.77892 0.0
C1345 C 0.74566 0.16965 0.79634 0.0
C1346 C 0.73311 0.19907 0.75409 0.0
C1347 C 0.74726 0.14966 0.80381 0.0
C1348 C 0.73335 0.28541 0.72862 0.0
C1349 C 0.73118 0.26545 0.73638 0.0
C1350 C 0.7559 0.23057 0.77147 0.0
C1351 C 0.74407 0.17248 0.77769 0.0
C1352 C 0.7442 0.19414 0.7699 0.0
C1353 C 0.74708 0.25716 0.74749 0.0
C1354 C 0.74537 0.23552 0.75539 0.0
H1355 H 0.74394 0.12081 0.76562 0.0
H1356 H 0.74217 0.15594 0.75235 0.0
H1357 H 0.76487 0.20717 0.79031 0.0
H1358 H 0.78124 0.2985 0.74587 0.0
H1359 H 0.77797 0.26396 0.75876 0.0
loop_
_geom_bond_atom_site_label_1
_geom_bond_atom_site_label_2
_geom_bond_distance
_geom_bond_site_symmetry_2
_ccdc_geom_bond_type
C0 C1 1.264 . S
C0 C5 1.479 . S
C0 C10 1.465 . S
C1 C0 1.264 . S
C1 C3 1.339 . S
C1 H28 0.931 . S
C2 C3 1.395 . S
C2 C4 1.320 . S
C3 C1 1.339 . S
C3 C2 1.395 . S
C3 H29 0.929 . S
C4 C2 1.320 . S
C4 C5 1.405 . S
C4 H30 0.930 . S
C5 C0 1.479 . S
C5 C4 1.405 . S
C5 H31 0.931 . S
U6 O7 2.454 . S
U6 O8 2.458 . S
U6 C9 2.984 . S
U6 C10 2.847 . S
U6 C23 2.882 . S
U6 O24 2.441 . S
U6 O25 2.420 . S
U6 O26 2.455 . S
U6 O27 2.449 . S
O7 U6 2.454 . S
O7 C9 1.353 . S
O8 U6 2.458 . S
O8 C9 1.286 . S
C9 U6 2.984 . S
C9 O7 1.353 . S
C9 O8 1.286 . S
C9 C11 1.363 . S
C10 C0 1.465 . S
C10 U6 2.847 . S
C10 O24 1.249 . S
C10 O25 1.202 . S
C11 C9 1.363 . S
C11 C13 1.408 . S
C11 C16 1.342 . S
C12 C13 1.310 . S
C12 C15 1.461 . S
C12 H32 0.932 . S
C13 C11 1.408 . S
C13 C12 1.310 . S
C13 H33 0.930 . S
C14 C15 1.474 . S
C14 C16 1.285 . S
C14 H34 0.929 . S
C15 C12 1.461 . S
C15 C14 1.474 . S
C16 C11 1.342 . S
C16 C14 1.285 . S
C16 H35 0.930 . S
C17 C20 1.424 . S
C17 C22 1.245 . S
C17 C23 1.428 . S
C18 C21 1.260 . S
C18 C22 1.477 . S
C18 H36 0.932 . S
C19 C20 1.384 . S
C19 C21 1.479 . S
C19 H37 0.929 . S
C20 C17 1.424 . S
C20 C19 1.384 . S
C20 H38 0.928 . S
C21 C18 1.260 . S
C21 C19 1.479 . S
C22 C17 1.245 . S
C22 C18 1.477 . S
C22 H39 0.932 . S
C23 U6 2.882 . S
C23 C17 1.428 . S
C23 O26 1.301 . S
C23 O27 1.282 . S
O24 U6 2.441 . S
O24 C10 1.249 . S
O25 U6 2.420 . S
O25 C10 1.202 . S
O26 U6 2.455 . S
O26 C23 1.301 . S
O27 U6 2.449 . S
O27 C23 1.282 . S
H28 C1 0.931 . S
H29 C3 0.929 . S
H30 C4 0.930 . S
H31 C5 0.931 . S
H32 C12 0.932 . S
H33 C13 0.930 . S
H34 C14 0.929 . S
H35 C16 0.930 . S
H36 C18 0.932 . S
H37 C19 0.929 . S
H38 C20 0.928 . S
H39 C22 0.932 . S
C40 C41 1.264 . S
C40 C45 1.479 . S
C40 C50 1.465 . S
C41 C40 1.264 . S
C41 C43 1.339 . S
C41 H68 0.931 . S
C42 C43 1.395 . S
C42 C44 1.320 . S
C43 C41 1.339 . S
C43 C42 1.395 . S
C43 H69 0.929 . S
C44 C42 1.320 . S
C44 C45 1.405 . S
C44 H70 0.930 . S
C45 C40 1.479 . S
C45 C44 1.405 . S
C45 H71 0.931 . S
U46 O47 2.454 . S
U46 O48 2.458 . S
U46 C49 2.984 . S
U46 C50 2.847 . S
U46 C63 2.882 . S
U46 O64 2.441 . S
U46 O65 2.420 . S
U46 O66 2.455 . S
U46 O67 2.449 . S
O47 U46 2.454 . S
O47 C49 1.353 . S
O48 U46 2.458 . S
O48 C49 1.286 . S
C49 U46 2.984 . S
C49 O47 1.353 . S
C49 O48 1.286 . S
C49 C51 1.363 . S
C50 C40 1.465 . S
C50 U46 2.847 . S
C50 O64 1.249 . S
C50 O65 1.202 . S
C51 C49 1.363 . S
C51 C53 1.408 . S
C51 C56 1.342 . S
C52 C53 1.310 . S
C52 C55 1.461 . S
C52 H72 0.932 . S
C53 C51 1.408 . S
C53 C52 1.310 . S
C53 H73 0.930 . S
C54 C55 1.474 . S
C54 C56 1.285 . S
C54 H74 0.929 . S
C55 C52 1.461 . S
C55 C54 1.474 . S
C56 C51 1.342 . S
C56 C54 1.285 . S
C56 H75 0.930 . S
C57 C60 1.424 . S
C57 C62 1.245 . S
C57 C63 1.428 . S
C58 C61 1.260 . S
C58 C62 1.477 . S
C58 H76 0.932 . S
C59 C60 1.384 . S
C59 C61 1.479 . S
C59 H77 0.929 . S
C60 C57 1.424 . S
C60 C59 1.384 . S
C60 H78 0.928 . S
C61 C58 1.260 . S
C61 C59 1.479 . S
C62 C57 1.245 . S
C62 C58 1.477 . S
C62 H79 0.932 . S
C63 U46 2.882 . S
C63 C57 1.428 . S
C63 O66 1.301 . S
C63 O67 1.282 . S
O64 U46 2.441 . S
O64 C50 1.249 . S
O65 U46 2.420 . S
O65 C50 1.202 . S
O66 U46 2.455 . S
O66 C63 1.301 . S
O67 U46 2.449 . S
O67 C63 1.282 . S
H68 C41 0.931 . S
H69 C43 0.929 . S
H70 C44 0.930 . S
H71 C45 0.931 . S
H72 C52 0.932 . S
H73 C53 0.930 . S
H74 C54 0.929 . S
H75 C56 0.930 . S
H76 C58 0.932 . S
H77 C59 0.929 . S
H78 C60 0.928 . S
H79 C62 0.932 . S
C80 C81 1.264 . S
C80 C85 1.479 . S
C80 C90 1.465 . S
C81 C80 1.264 . S
C81 C83 1.339 . S
C81 H108 0.931 . S
C82 C83 1.395 . S
C82 C84 1.320 . S
C83 C81 1.339 . S
C83 C82 1.395 . S
C83 H109 0.929 . S
C84 C82 1.320 . S
C84 C85 1.405 . S
C84 H110 0.930 . S
C85 C80 1.479 . S
C85 C84 1.405 . S
C85 H111 0.931 . S
U86 O87 2.454 . S
U86 O88 2.458 . S
U86 C89 2.984 . S
U86 C90 2.847 1_455 S
U86 C103 2.882 . S
U86 O104 2.441 1_455 S
U86 O105 2.420 1_455 S
U86 O106 2.455 . S
U86 O107 2.449 . S
O87 U86 2.454 . S
O87 C89 1.353 . S
O88 U86 2.458 . S
O88 C89 1.286 . S
C89 U86 2.984 . S
C89 O87 1.353 . S
C89 O88 1.286 . S
C89 C91 1.363 . S
C90 C80 1.465 . S
C90 U86 2.847 1_655 S
C90 O104 1.249 . S
C90 O105 1.202 . S
C91 C89 1.363 . S
C91 C93 1.408 . S
C91 C96 1.342 . S
C92 C93 1.310 . S
C92 C95 1.461 . S
C92 H112 0.932 . S
C93 C91 1.408 . S
C93 C92 1.310 . S
C93 H113 0.930 . S
C94 C95 1.474 . S
C94 C96 1.285 . S
C94 H114 0.929 . S
C95 C92 1.461 . S
C95 C94 1.474 . S
C96 C91 1.342 . S
C96 C94 1.285 . S
C96 H115 0.930 . S
C97 C100 1.424 . S
C97 C102 1.245 . S
C97 C103 1.428 . S
C98 C101 1.260 . S
C98 C102 1.477 . S
C98 H116 0.932 . S
C99 C100 1.384 . S
C99 C101 1.479 . S
C99 H117 0.929 . S
C100 C97 1.424 . S
C100 C99 1.384 . S
C100 H118 0.928 . S
C101 C98 1.260 . S
C101 C99 1.479 . S
C102 C97 1.245 . S
C102 C98 1.477 . S
C102 H119 0.932 . S
C103 U86 2.882 . S
C103 C97 1.428 . S
C103 O106 1.301 . S
C103 O107 1.282 . S
O104 U86 2.441 1_655 S
O104 C90 1.249 . S
O105 U86 2.420 1_655 S
O105 C90 1.202 . S
O106 U86 2.455 . S
O106 C103 1.301 . S
O107 U86 2.449 . S
O107 C103 1.282 . S
H108 C81 0.931 . S
H109 C83 0.929 . S
H110 C84 0.930 . S
H111 C85 0.931 . S
H112 C92 0.932 . S
H113 C93 0.930 . S
H114 C94 0.929 . S
H115 C96 0.930 . S
H116 C98 0.932 . S
H117 C99 0.929 . S
H118 C100 0.928 . S
H119 C102 0.932 . S
C120 C121 1.264 . S
C120 C125 1.479 . S
C120 C130 1.465 . S
C121 C120 1.264 . S
C121 C123 1.339 . S
C121 H148 0.931 . S
C122 C123 1.395 . S
C122 C124 1.320 . S
C123 C121 1.339 . S
C123 C122 1.395 . S
C123 H149 0.929 . S
C124 C122 1.320 . S
C124 C125 1.405 . S
C124 H150 0.930 . S
C125 C120 1.479 . S
C125 C124 1.405 . S
C125 H151 0.931 . S
U126 O127 2.454 . S
U126 O128 2.458 1_655 S
U126 C129 2.984 1_655 S
U126 C130 2.847 . S
U126 C143 2.882 . S
U126 O144 2.441 . S
U126 O145 2.420 . S
U126 O146 2.455 . S
U126 O147 2.449 . S
O127 U126 2.454 . S
O127 C129 1.354 1_655 S
O128 U126 2.458 1_455 S
O128 C129 1.286 . S
C129 U126 2.984 1_455 S
C129 O127 1.354 1_455 S
C129 O128 1.286 . S
C129 C131 1.363 . S
C130 C120 1.465 . S
C130 U126 2.847 . S
C130 O144 1.249 . S
C130 O145 1.202 . S
C131 C129 1.363 . S
C131 C133 1.418 . S
C131 C136 1.342 . S
C132 C133 1.323 . S
C132 C135 1.461 . S
C132 H152 0.932 . S
C133 C131 1.418 . S
C133 C132 1.323 . S
C133 H153 0.911 1_455 S
C134 C135 1.474 . S
C134 C136 1.285 . S
C134 H154 0.929 . S
C135 C132 1.461 . S
C135 C134 1.474 . S
C136 C131 1.342 . S
C136 C134 1.285 . S
C136 H155 0.930 . S
C137 C140 1.424 . S
C137 C142 1.245 . S
C137 C143 1.428 1_455 S
C138 C141 1.260 . S
C138 C142 1.477 . S
C138 H156 0.932 . S
C139 C140 1.384 . S
C139 C141 1.479 . S
C139 H157 0.929 . S
C140 C137 1.424 . S
C140 C139 1.384 . S
C140 H158 0.927 1_455 S
C141 C138 1.260 . S
C141 C139 1.479 . S
C142 C137 1.245 . S
C142 C138 1.477 . S
C142 H159 0.932 . S
C143 U126 2.882 . S
C143 C137 1.428 1_655 S
C143 O146 1.301 . S
C143 O147 1.282 . S
O144 U126 2.441 . S
O144 C130 1.249 . S
O145 U126 2.420 . S
O145 C130 1.202 . S
O146 U126 2.455 . S
O146 C143 1.301 . S
O147 U126 2.449 . S
O147 C143 1.282 . S
H148 C121 0.931 . S
H149 C123 0.929 . S
H150 C124 0.930 . S
H151 C125 0.931 . S
H152 C132 0.932 . S
H153 C133 0.911 1_655 S
H154 C134 0.929 . S
H155 C136 0.930 . S
H156 C138 0.932 . S
H157 C139 0.929 . S
H158 C140 0.927 1_655 S
H159 C142 0.932 . S
C160 C161 1.264 . S
C160 C165 1.479 . S
C160 C170 1.465 . S
C161 C160 1.264 . S
C161 C163 1.339 . S
C161 H188 0.931 . S
C162 C163 1.395 . S
C162 C164 1.320 . S
C163 C161 1.339 . S
C163 C162 1.395 . S
C163 H189 0.929 . S
C164 C162 1.320 . S
C164 C165 1.405 . S
C164 H190 0.930 . S
C165 C160 1.479 . S
C165 C164 1.405 . S
C165 H191 0.931 . S
U166 O167 2.454 . S
U166 O168 2.458 . S
U166 C169 2.984 . S
U166 C170 2.847 . S
U166 C183 2.882 . S
U166 O184 2.441 . S
U166 O185 2.420 . S
U166 O186 2.455 . S
U166 O187 2.449 . S
O167 U166 2.454 . S
O167 C169 1.353 . S
O168 U166 2.458 . S
O168 C169 1.286 . S
C169 U166 2.984 . S
C169 O167 1.353 . S
C169 O168 1.286 . S
C169 C171 1.363 . S
C170 C160 1.465 . S
C170 U166 2.847 . S
C170 O184 1.249 . S
C170 O185 1.202 . S
C171 C169 1.363 . S
C171 C173 1.408 . S
C171 C176 1.342 . S
C172 C173 1.310 . S
C172 C175 1.461 . S
C172 H192 0.932 . S
C173 C171 1.408 . S
C173 C172 1.310 . S
C173 H193 0.930 . S
C174 C175 1.474 . S
C174 C176 1.285 . S
C174 H194 0.929 . S
C175 C172 1.461 . S
C175 C174 1.474 . S
C176 C171 1.342 . S
C176 C174 1.285 . S
C176 H195 0.930 . S
C177 C180 1.424 . S
C177 C182 1.245 . S
C177 C183 1.428 . S
C178 C181 1.260 . S
C178 C182 1.477 . S
C178 H196 0.932 . S
C179 C180 1.384 . S
C179 C181 1.479 . S
C179 H197 0.929 . S
C180 C177 1.424 . S
C180 C179 1.384 . S
C180 H198 0.928 . S
C181 C178 1.260 . S
C181 C179 1.479 . S
C182 C177 1.245 . S
C182 C178 1.477 . S
C182 H199 0.932 . S
C183 U166 2.882 . S
C183 C177 1.428 . S
C183 O186 1.301 . S
C183 O187 1.282 . S
O184 U166 2.441 . S
O184 C170 1.249 . S
O185 U166 2.420 . S
O185 C170 1.202 . S
O186 U166 2.455 . S
O186 C183 1.301 . S
O187 U166 2.449 . S
O187 C183 1.282 . S
H188 C161 0.931 . S
H189 C163 0.929 . S
H190 C164 0.930 . S
H191 C165 0.931 . S
H192 C172 0.932 . S
H193 C173 0.930 . S
H194 C174 0.929 . S
H195 C176 0.930 . S
H196 C178 0.932 . S
H197 C179 0.929 . S
H198 C180 0.928 . S
H199 C182 0.932 . S
C200 C201 1.264 . S
C200 C205 1.479 . S
C200 C210 1.465 . S
C201 C200 1.264 . S
C201 C203 1.339 . S
C201 H228 0.931 . S
C202 C203 1.395 . S
C202 C204 1.320 . S
C203 C201 1.339 . S
C203 C202 1.395 . S
C203 H229 0.929 . S
C204 C202 1.320 . S
C204 C205 1.405 . S
C204 H230 0.930 . S
C205 C200 1.479 . S
C205 C204 1.405 . S
C205 H231 0.931 . S
U206 O207 2.454 . S
U206 O208 2.458 1_655 S
U206 C209 2.985 1_655 S
U206 C210 2.847 . S
U206 C223 2.882 . S
U206 O224 2.441 . S
U206 O225 2.420 . S
U206 O226 2.455 . S
U206 O227 2.449 . S
O207 U206 2.454 . S
O207 C209 1.355 1_655 S
O208 U206 2.458 1_455 S
O208 C209 1.285 . S
C209 U206 2.985 1_455 S
C209 O207 1.355 1_455 S
C209 O208 1.285 . S
C209 C211 1.362 . S
C210 C200 1.465 . S
C210 U206 2.847 . S
C210 O224 1.249 . S
C210 O225 1.202 . S
C211 C209 1.362 . S
C211 C213 1.419 . S
C211 C216 1.342 . S
C212 C213 1.324 . S
C212 C215 1.461 . S
C212 H232 0.932 . S
C213 C211 1.419 . S
C213 C212 1.324 . S
C213 H233 0.909 1_455 S
C214 C215 1.474 . S
C214 C216 1.285 . S
C214 H234 0.929 . S
C215 C212 1.461 . S
C215 C214 1.474 . S
C216 C211 1.342 . S
C216 C214 1.285 . S
C216 H235 0.930 . S
C217 C220 1.424 . S
C217 C222 1.245 . S
C217 C223 1.428 1_455 S
C218 C221 1.260 . S
C218 C222 1.477 . S
C218 H236 0.932 . S
C219 C220 1.384 . S
C219 C221 1.479 . S
C219 H237 0.929 . S
C220 C217 1.424 . S
C220 C219 1.384 . S
C220 H238 0.923 1_455 S
C221 C218 1.260 . S
C221 C219 1.479 . S
C222 C217 1.245 . S
C222 C218 1.477 . S
C222 H239 0.932 . S
C223 U206 2.882 . S
C223 C217 1.428 1_655 S
C223 O226 1.301 . S
C223 O227 1.282 . S
O224 U206 2.441 . S
O224 C210 1.249 . S
O225 U206 2.420 . S
O225 C210 1.202 . S
O226 U206 2.455 . S
O226 C223 1.301 . S
O227 U206 2.449 . S
O227 C223 1.282 . S
H228 C201 0.931 . S
H229 C203 0.929 . S
H230 C204 0.930 . S
H231 C205 0.931 . S
H232 C212 0.932 . S
H233 C213 0.909 1_655 S
H234 C214 0.929 . S
H235 C216 0.930 . S
H236 C218 0.932 . S
H237 C219 0.929 . S
H238 C220 0.923 1_655 S
H239 C222 0.932 . S
C240 C241 1.264 . S
C240 C245 1.479 . S
C240 C250 1.465 . S
C241 C240 1.264 . S
C241 C243 1.339 . S
C241 H268 0.931 . S
C242 C243 1.395 . S
C242 C244 1.320 . S
C243 C241 1.339 . S
C243 C242 1.395 . S
C243 H269 0.929 . S
C244 C242 1.320 . S
C244 C245 1.405 . S
C244 H270 0.930 . S
C245 C240 1.479 . S
C245 C244 1.405 . S
C245 H271 0.931 . S
U246 O247 2.454 . S
U246 O248 2.458 . S
U246 C249 2.984 . S
U246 C250 2.847 1_455 S
U246 C263 2.882 . S
U246 O264 2.441 1_455 S
U246 O265 2.420 1_455 S
U246 O266 2.455 . S
U246 O267 2.449 . S
O247 U246 2.454 . S
O247 C249 1.353 . S
O248 U246 2.458 . S
O248 C249 1.286 . S
C249 U246 2.984 . S
C249 O247 1.353 . S
C249 O248 1.286 . S
C249 C251 1.363 . S
C250 C240 1.465 . S
C250 U246 2.847 1_655 S
C250 O264 1.249 . S
C250 O265 1.202 . S
C251 C249 1.363 . S
C251 C253 1.408 . S
C251 C256 1.342 . S
C252 C253 1.310 . S
C252 C255 1.461 . S
C252 H272 0.932 . S
C253 C251 1.408 . S
C253 C252 1.310 . S
C253 H273 0.930 . S
C254 C255 1.474 . S
C254 C256 1.285 . S
C254 H274 0.929 . S
C255 C252 1.461 . S
C255 C254 1.474 . S
C256 C251 1.342 . S
C256 C254 1.285 . S
C256 H275 0.930 . S
C257 C260 1.424 . S
C257 C262 1.245 . S
C257 C263 1.428 . S
C258 C261 1.260 . S
C258 C262 1.477 . S
C258 H276 0.932 . S
C259 C260 1.384 . S
C259 C261 1.479 . S
C259 H277 0.929 . S
C260 C257 1.424 . S
C260 C259 1.384 . S
C260 H278 0.928 . S
C261 C258 1.260 . S
C261 C259 1.479 . S
C262 C257 1.245 . S
C262 C258 1.477 . S
C262 H279 0.932 . S
C263 U246 2.882 . S
C263 C257 1.428 . S
C263 O266 1.301 . S
C263 O267 1.282 . S
O264 U246 2.441 1_655 S
O264 C250 1.249 . S
O265 U246 2.420 1_655 S
O265 C250 1.202 . S
O266 U246 2.455 . S
O266 C263 1.301 . S
O267 U246 2.449 . S
O267 C263 1.282 . S
H268 C241 0.931 . S
H269 C243 0.929 . S
H270 C244 0.930 . S
H271 C245 0.931 . S
H272 C252 0.932 . S
H273 C253 0.930 . S
H274 C254 0.929 . S
H275 C256 0.930 . S
H276 C258 0.932 . S
H277 C259 0.929 . S
H278 C260 0.928 . S
H279 C262 0.932 . S
C280 C281 1.264 . S
C280 C285 1.479 . S
C280 C290 1.465 . S
C281 C280 1.264 . S
C281 C283 1.339 . S
C281 H308 0.931 . S
C282 C283 1.395 . S
C282 C284 1.320 . S
C283 C281 1.339 . S
C283 C282 1.395 . S
C283 H309 0.929 . S
C284 C282 1.320 . S
C284 C285 1.405 . S
C284 H310 0.930 . S
C285 C280 1.479 . S
C285 C284 1.405 . S
C285 H311 0.931 . S
U286 O287 2.454 . S
U286 O288 2.458 . S
U286 C289 2.984 . S
U286 C290 2.847 . S
U286 C303 2.882 . S
U286 O304 2.441 . S
U286 O305 2.420 . S
U286 O306 2.455 . S
U286 O307 2.449 . S
O287 U286 2.454 . S
O287 C289 1.353 . S
O288 U286 2.458 . S
O288 C289 1.286 . S
C289 U286 2.984 . S
C289 O287 1.353 . S
C289 O288 1.286 . S
C289 C291 1.363 . S
C290 C280 1.465 . S
C290 U286 2.847 . S
C290 O304 1.249 . S
C290 O305 1.202 . S
C291 C289 1.363 . S
C291 C293 1.408 . S
C291 C296 1.342 . S
C292 C293 1.310 . S
C292 C295 1.461 . S
C292 H312 0.932 . S
C293 C291 1.408 . S
C293 C292 1.310 . S
C293 H313 0.930 . S
C294 C295 1.474 . S
C294 C296 1.285 . S
C294 H314 0.929 . S
C295 C292 1.461 . S
C295 C294 1.474 . S
C296 C291 1.342 . S
C296 C294 1.285 . S
C296 H315 0.930 . S
C297 C300 1.424 . S
C297 C302 1.245 . S
C297 C303 1.428 . S
C298 C301 1.260 . S
C298 C302 1.477 . S
C298 H316 0.932 . S
C299 C300 1.384 . S
C299 C301 1.479 . S
C299 H317 0.929 . S
C300 C297 1.424 . S
C300 C299 1.384 . S
C300 H318 0.928 . S
C301 C298 1.260 . S
C301 C299 1.479 . S
C302 C297 1.245 . S
C302 C298 1.477 . S
C302 H319 0.932 . S
C303 U286 2.882 . S
C303 C297 1.428 . S
C303 O306 1.301 . S
C303 O307 1.282 . S
O304 U286 2.441 . S
O304 C290 1.249 . S
O305 U286 2.420 . S
O305 C290 1.202 . S
O306 U286 2.455 . S
O306 C303 1.301 . S
O307 U286 2.449 . S
O307 C303 1.282 . S
H308 C281 0.931 . S
H309 C283 0.929 . S
H310 C284 0.930 . S
H311 C285 0.931 . S
H312 C292 0.932 . S
H313 C293 0.930 . S
H314 C294 0.929 . S
H315 C296 0.930 . S
H316 C298 0.932 . S
H317 C299 0.929 . S
H318 C300 0.928 . S
H319 C302 0.932 . S
C320 C321 1.250 1_545 S
C320 C325 1.484 . S
C320 C330 1.480 . S
C321 C320 1.250 1_565 S
C321 C323 1.339 . S
C321 H348 0.931 . S
C322 C323 1.395 . S
C322 C324 1.320 . S
C323 C321 1.339 . S
C323 C322 1.395 . S
C323 H349 0.929 . S
C324 C322 1.320 . S
C324 C325 1.405 1_565 S
C324 H350 0.930 . S
C325 C320 1.484 . S
C325 C324 1.405 1_545 S
C325 H351 0.931 . S
U326 O327 2.454 . S
U326 O328 2.458 . S
U326 C329 2.984 . S
U326 C330 2.847 . S
U326 C343 2.882 . S
U326 O344 2.441 . S
U326 O345 2.420 . S
U326 O346 2.455 . S
U326 O347 2.449 . S
O327 U326 2.454 . S
O327 C329 1.353 . S
O328 U326 2.458 . S
O328 C329 1.286 . S
C329 U326 2.984 . S
C329 O327 1.353 . S
C329 O328 1.286 . S
C329 C331 1.363 . S
C330 C320 1.480 . S
C330 U326 2.847 . S
C330 O344 1.249 . S
C330 O345 1.202 . S
C331 C329 1.363 . S
C331 C333 1.408 . S
C331 C336 1.342 . S
C332 C333 1.310 . S
C332 C335 1.461 . S
C332 H352 0.932 . S
C333 C331 1.408 . S
C333 C332 1.310 . S
C333 H353 0.930 . S
C334 C335 1.474 . S
C334 C336 1.285 . S
C334 H354 0.929 . S
C335 C332 1.461 . S
C335 C334 1.474 . S
C336 C331 1.342 . S
C336 C334 1.285 . S
C336 H355 0.930 . S
C337 C340 1.424 . S
C337 C342 1.245 . S
C337 C343 1.428 1_565 S
C338 C341 1.260 . S
C338 C342 1.477 . S
C338 H356 0.932 . S
C339 C340 1.384 . S
C339 C341 1.479 . S
C339 H357 0.929 . S
C340 C337 1.424 . S
C340 C339 1.384 . S
C340 H358 0.928 . S
C341 C338 1.260 . S
C341 C339 1.479 . S
C342 C337 1.245 . S
C342 C338 1.477 . S
C342 H359 0.932 1_565 S
C343 U326 2.882 . S
C343 C337 1.428 1_545 S
C343 O346 1.301 . S
C343 O347 1.282 . S
O344 U326 2.441 . S
O344 C330 1.249 . S
O345 U326 2.420 . S
O345 C330 1.202 . S
O346 U326 2.455 . S
O346 C343 1.301 . S
O347 U326 2.449 . S
O347 C343 1.282 . S
H348 C321 0.931 . S
H349 C323 0.929 . S
H350 C324 0.930 . S
H351 C325 0.931 . S
H352 C332 0.932 . S
H353 C333 0.930 . S
H354 C334 0.929 . S
H355 C336 0.930 . S
H356 C338 0.932 . S
H357 C339 0.929 . S
H358 C340 0.928 . S
H359 C342 0.932 1_545 S
C360 C361 1.264 . S
C360 C365 1.479 . S
C360 C370 1.465 . S
C361 C360 1.264 . S
C361 C363 1.339 . S
C361 H388 0.931 . S
C362 C363 1.395 . S
C362 C364 1.320 . S
C363 C361 1.339 . S
C363 C362 1.395 . S
C363 H389 0.929 . S
C364 C362 1.320 . S
C364 C365 1.405 . S
C364 H390 0.930 . S
C365 C360 1.479 . S
C365 C364 1.405 . S
C365 H391 0.931 . S
U366 O367 2.454 . S
U366 O368 2.458 . S
U366 C369 2.984 . S
U366 C370 2.847 . S
U366 C383 2.882 . S
U366 O384 2.441 . S
U366 O385 2.420 . S
U366 O386 2.455 . S
U366 O387 2.449 . S
O367 U366 2.454 . S
O367 C369 1.353 . S
O368 U366 2.458 . S
O368 C369 1.286 . S
C369 U366 2.984 . S
C369 O367 1.353 . S
C369 O368 1.286 . S
C369 C371 1.363 . S
C370 C360 1.465 . S
C370 U366 2.847 . S
C370 O384 1.249 . S
C370 O385 1.202 . S
C371 C369 1.363 . S
C371 C373 1.408 . S
C371 C376 1.342 . S
C372 C373 1.310 . S
C372 C375 1.461 . S
C372 H392 0.932 . S
C373 C371 1.408 . S
C373 C372 1.310 . S
C373 H393 0.930 . S
C374 C375 1.474 . S
C374 C376 1.285 . S
C374 H394 0.929 . S
C375 C372 1.461 . S
C375 C374 1.474 . S
C376 C371 1.342 . S
C376 C374 1.285 . S
C376 H395 0.930 . S
C377 C380 1.424 . S
C377 C382 1.245 . S
C377 C383 1.428 . S
C378 C381 1.260 . S
C378 C382 1.477 . S
C378 H396 0.932 . S
C379 C380 1.384 . S
C379 C381 1.479 . S
C379 H397 0.929 . S
C380 C377 1.424 . S
C380 C379 1.384 . S
C380 H398 0.928 . S
C381 C378 1.260 . S
C381 C379 1.479 . S
C382 C377 1.245 . S
C382 C378 1.477 . S
C382 H399 0.932 . S
C383 U366 2.882 . S
C383 C377 1.428 . S
C383 O386 1.301 . S
C383 O387 1.282 . S
O384 U366 2.441 . S
O384 C370 1.249 . S
O385 U366 2.420 . S
O385 C370 1.202 . S
O386 U366 2.455 . S
O386 C383 1.301 . S
O387 U366 2.449 . S
O387 C383 1.282 . S
H388 C361 0.931 . S
H389 C363 0.929 . S
H390 C364 0.930 . S
H391 C365 0.931 . S
H392 C372 0.932 . S
H393 C373 0.930 . S
H394 C374 0.929 . S
H395 C376 0.930 . S
H396 C378 0.932 . S
H397 C379 0.929 . S
H398 C380 0.928 . S
H399 C382 0.932 . S
C400 C401 1.264 . S
C400 C405 1.479 . S
C400 C410 1.465 . S
C401 C400 1.264 . S
C401 C403 1.339 . S
C401 H428 0.931 . S
C402 C403 1.395 . S
C402 C404 1.320 . S
C403 C401 1.339 . S
C403 C402 1.395 . S
C403 H429 0.929 . S
C404 C402 1.320 . S
C404 C405 1.405 . S
C404 H430 0.930 . S
C405 C400 1.479 . S
C405 C404 1.405 . S
C405 H431 0.931 . S
U406 O407 2.454 . S
U406 O408 2.458 . S
U406 C409 2.984 . S
U406 C410 2.847 . S
U406 C423 2.882 . S
U406 O424 2.441 . S
U406 O425 2.420 . S
U406 O426 2.455 . S
U406 O427 2.449 . S
O407 U406 2.454 . S
O407 C409 1.353 . S
O408 U406 2.458 . S
O408 C409 1.286 . S
C409 U406 2.984 . S
C409 O407 1.353 . S
C409 O408 1.286 . S
C409 C411 1.363 . S
C410 C400 1.465 . S
C410 U406 2.847 . S
C410 O424 1.249 . S
C410 O425 1.202 . S
C411 C409 1.363 . S
C411 C413 1.408 . S
C411 C416 1.342 . S
C412 C413 1.310 . S
C412 C415 1.461 . S
C412 H432 0.932 . S
C413 C411 1.408 . S
C413 C412 1.310 . S
C413 H433 0.930 . S
C414 C415 1.474 . S
C414 C416 1.285 . S
C414 H434 0.929 . S
C415 C412 1.461 . S
C415 C414 1.474 . S
C416 C411 1.342 . S
C416 C414 1.285 . S
C416 H435 0.930 . S
C417 C420 1.424 . S
C417 C422 1.245 . S
C417 C423 1.428 . S
C418 C421 1.260 . S
C418 C422 1.477 . S
C418 H436 0.932 . S
C419 C420 1.384 . S
C419 C421 1.479 . S
C419 H437 0.929 . S
C420 C417 1.424 . S
C420 C419 1.384 . S
C420 H438 0.928 . S
C421 C418 1.260 . S
C421 C419 1.479 . S
C422 C417 1.245 . S
C422 C418 1.477 . S
C422 H439 0.932 . S
C423 U406 2.882 . S
C423 C417 1.428 . S
C423 O426 1.301 . S
C423 O427 1.282 . S
O424 U406 2.441 . S
O424 C410 1.249 . S
O425 U406 2.420 . S
O425 C410 1.202 . S
O426 U406 2.455 . S
O426 C423 1.301 . S
O427 U406 2.449 . S
O427 C423 1.282 . S
H428 C401 0.931 . S
H429 C403 0.929 . S
H430 C404 0.930 . S
H431 C405 0.931 . S
H432 C412 0.932 . S
H433 C413 0.930 . S
H434 C414 0.929 . S
H435 C416 0.930 . S
H436 C418 0.932 . S
H437 C419 0.929 . S
H438 C420 0.928 . S
H439 C422 0.932 . S
C440 C441 1.264 . S
C440 C445 1.479 . S
C440 C450 1.465 . S
C441 C440 1.264 . S
C441 C443 1.339 . S
C441 H468 0.931 . S
C442 C443 1.395 . S
C442 C444 1.320 . S
C443 C441 1.339 . S
C443 C442 1.395 . S
C443 H469 0.929 . S
C444 C442 1.320 . S
C444 C445 1.405 . S
C444 H470 0.930 . S
C445 C440 1.479 . S
C445 C444 1.405 . S
C445 H471 0.931 . S
U446 O447 2.454 1_565 S
U446 O448 2.458 1_565 S
U446 C449 2.984 1_565 S
U446 C450 2.847 . S
U446 C463 2.882 . S
U446 O464 2.441 . S
U446 O465 2.420 . S
U446 O466 2.455 . S
U446 O467 2.449 . S
O447 U446 2.454 1_545 S
O447 C449 1.353 . S
O448 U446 2.458 1_545 S
O448 C449 1.286 . S
C449 U446 2.984 1_545 S
C449 O447 1.353 . S
C449 O448 1.286 . S
C449 C451 1.363 . S
C450 C440 1.465 . S
C450 U446 2.847 . S
C450 O464 1.249 . S
C450 O465 1.202 . S
C451 C449 1.363 . S
C451 C453 1.408 . S
C451 C456 1.342 . S
C452 C453 1.310 . S
C452 C455 1.461 . S
C452 H472 0.932 . S
C453 C451 1.408 . S
C453 C452 1.310 . S
C453 H473 0.930 . S
C454 C455 1.474 . S
C454 C456 1.285 . S
C454 H474 0.929 . S
C455 C452 1.461 . S
C455 C454 1.474 . S
C456 C451 1.342 . S
C456 C454 1.285 . S
C456 H475 0.930 . S
C457 C460 1.424 . S
C457 C462 1.245 . S
C457 C463 1.428 . S
C458 C461 1.260 . S
C458 C462 1.477 . S
C458 H476 0.932 . S
C459 C460 1.384 . S
C459 C461 1.479 . S
C459 H477 0.929 . S
C460 C457 1.424 . S
C460 C459 1.384 . S
C460 H478 0.928 . S
C461 C458 1.260 . S
C461 C459 1.479 . S
C462 C457 1.245 . S
C462 C458 1.477 . S
C462 H479 0.932 . S
C463 U446 2.882 . S
C463 C457 1.428 . S
C463 O466 1.301 . S
C463 O467 1.282 . S
O464 U446 2.441 . S
O464 C450 1.249 . S
O465 U446 2.420 . S
O465 C450 1.202 . S
O466 U446 2.455 . S
O466 C463 1.301 . S
O467 U446 2.449 . S
O467 C463 1.282 . S
H468 C441 0.931 . S
H469 C443 0.929 . S
H470 C444 0.930 . S
H471 C445 0.931 . S
H472 C452 0.932 . S
H473 C453 0.930 . S
H474 C454 0.929 . S
H475 C456 0.930 . S
H476 C458 0.932 . S
H477 C459 0.929 . S
H478 C460 0.928 . S
H479 C462 0.932 . S
C480 C481 1.264 . S
C480 C485 1.479 . S
C480 C490 1.465 . S
C481 C480 1.264 . S
C481 C483 1.339 . S
C481 H508 0.931 . S
C482 C483 1.395 . S
C482 C484 1.320 . S
C483 C481 1.339 . S
C483 C482 1.395 . S
C483 H509 0.929 . S
C484 C482 1.320 . S
C484 C485 1.405 . S
C484 H510 0.930 . S
C485 C480 1.479 . S
C485 C484 1.405 . S
C485 H511 0.931 . S
U486 O487 2.454 . S
U486 O488 2.458 . S
U486 C489 2.984 . S
U486 C490 2.847 . S
U486 C503 2.882 . S
U486 O504 2.441 . S
U486 O505 2.420 . S
U486 O506 2.455 . S
U486 O507 2.449 . S
O487 U486 2.454 . S
O487 C489 1.353 . S
O488 U486 2.458 . S
O488 C489 1.286 . S
C489 U486 2.984 . S
C489 O487 1.353 . S
C489 O488 1.286 . S
C489 C491 1.363 . S
C490 C480 1.465 . S
C490 U486 2.847 . S
C490 O504 1.249 . S
C490 O505 1.202 . S
C491 C489 1.363 . S
C491 C493 1.408 . S
C491 C496 1.342 . S
C492 C493 1.310 . S
C492 C495 1.461 . S
C492 H512 0.932 . S
C493 C491 1.408 . S
C493 C492 1.310 . S
C493 H513 0.930 . S
C494 C495 1.474 . S
C494 C496 1.285 . S
C494 H514 0.929 . S
C495 C492 1.461 . S
C495 C494 1.474 . S
C496 C491 1.342 . S
C496 C494 1.285 . S
C496 H515 0.930 . S
C497 C500 1.424 . S
C497 C502 1.245 . S
C497 C503 1.428 . S
C498 C501 1.260 . S
C498 C502 1.477 . S
C498 H516 0.932 . S
C499 C500 1.384 . S
C499 C501 1.479 . S
C499 H517 0.929 . S
C500 C497 1.424 . S
C500 C499 1.384 . S
C500 H518 0.928 . S
C501 C498 1.260 . S
C501 C499 1.479 . S
C502 C497 1.245 . S
C502 C498 1.477 . S
C502 H519 0.932 . S
C503 U486 2.882 . S
C503 C497 1.428 . S
C503 O506 1.301 . S
C503 O507 1.282 . S
O504 U486 2.441 . S
O504 C490 1.249 . S
O505 U486 2.420 . S
O505 C490 1.202 . S
O506 U486 2.455 . S
O506 C503 1.301 . S
O507 U486 2.449 . S
O507 C503 1.282 . S
H508 C481 0.931 . S
H509 C483 0.929 . S
H510 C484 0.930 . S
H511 C485 0.931 . S
H512 C492 0.932 . S
H513 C493 0.930 . S
H514 C494 0.929 . S
H515 C496 0.930 . S
H516 C498 0.932 . S
H517 C499 0.929 . S
H518 C500 0.928 . S
H519 C502 0.932 . S
C520 C521 1.264 . S
C520 C525 1.479 . S
C520 C530 1.465 . S
C521 C520 1.264 . S
C521 C523 1.339 . S
C521 H548 0.931 . S
C522 C523 1.395 . S
C522 C524 1.320 . S
C523 C521 1.339 . S
C523 C522 1.395 . S
C523 H549 0.929 . S
C524 C522 1.320 . S
C524 C525 1.405 . S
C524 H550 0.930 . S
C525 C520 1.479 . S
C525 C524 1.405 . S
C525 H551 0.931 . S
U526 O527 2.454 . S
U526 O528 2.458 . S
U526 C529 2.984 . S
U526 C530 2.847 . S
U526 C543 2.882 . S
U526 O544 2.441 . S
U526 O545 2.420 . S
U526 O546 2.455 . S
U526 O547 2.449 . S
O527 U526 2.454 . S
O527 C529 1.353 . S
O528 U526 2.458 . S
O528 C529 1.286 . S
C529 U526 2.984 . S
C529 O527 1.353 . S
C529 O528 1.286 . S
C529 C531 1.363 . S
C530 C520 1.465 . S
C530 U526 2.847 . S
C530 O544 1.249 . S
C530 O545 1.202 . S
C531 C529 1.363 . S
C531 C533 1.408 . S
C531 C536 1.342 . S
C532 C533 1.310 . S
C532 C535 1.461 . S
C532 H552 0.932 . S
C533 C531 1.408 . S
C533 C532 1.310 . S
C533 H553 0.930 . S
C534 C535 1.474 . S
C534 C536 1.285 . S
C534 H554 0.929 . S
C535 C532 1.461 . S
C535 C534 1.474 . S
C536 C531 1.342 . S
C536 C534 1.285 . S
C536 H555 0.930 . S
C537 C540 1.424 . S
C537 C542 1.245 . S
C537 C543 1.428 . S
C538 C541 1.260 . S
C538 C542 1.477 . S
C538 H556 0.932 . S
C539 C540 1.384 . S
C539 C541 1.479 . S
C539 H557 0.929 . S
C540 C537 1.424 . S
C540 C539 1.384 . S
C540 H558 0.928 . S
C541 C538 1.260 . S
C541 C539 1.479 . S
C542 C537 1.245 . S
C542 C538 1.477 . S
C542 H559 0.932 . S
C543 U526 2.882 . S
C543 C537 1.428 . S
C543 O546 1.301 . S
C543 O547 1.282 . S
O544 U526 2.441 . S
O544 C530 1.249 . S
O545 U526 2.420 . S
O545 C530 1.202 . S
O546 U526 2.455 . S
O546 C543 1.301 . S
O547 U526 2.449 . S
O547 C543 1.282 . S
H548 C521 0.931 . S
H549 C523 0.929 . S
H550 C524 0.930 . S
H551 C525 0.931 . S
H552 C532 0.932 . S
H553 C533 0.930 . S
H554 C534 0.929 . S
H555 C536 0.930 . S
H556 C538 0.932 . S
H557 C539 0.929 . S
H558 C540 0.928 . S
H559 C542 0.932 . S
C560 C561 1.264 . S
C560 C565 1.479 . S
C560 C570 1.465 . S
C561 C560 1.264 . S
C561 C563 1.339 . S
C561 H588 0.931 . S
C562 C563 1.395 . S
C562 C564 1.320 . S
C563 C561 1.339 . S
C563 C562 1.395 . S
C563 H589 0.929 . S
C564 C562 1.320 . S
C564 C565 1.405 . S
C564 H590 0.930 . S
C565 C560 1.479 . S
C565 C564 1.405 . S
C565 H591 0.931 . S
U566 O567 2.454 . S
U566 O568 2.458 . S
U566 C569 2.984 . S
U566 C570 2.847 1_565 S
U566 C583 2.882 . S
U566 O584 2.441 1_565 S
U566 O585 2.420 . S
U566 O586 2.455 . S
U566 O587 2.449 . S
O567 U566 2.454 . S
O567 C569 1.353 . S
O568 U566 2.458 . S
O568 C569 1.286 . S
C569 U566 2.984 . S
C569 O567 1.353 . S
C569 O568 1.286 . S
C569 C571 1.363 . S
C570 C560 1.465 . S
C570 U566 2.847 1_545 S
C570 O584 1.249 . S
C570 O585 1.202 1_545 S
C571 C569 1.363 . S
C571 C573 1.408 . S
C571 C576 1.342 . S
C572 C573 1.310 . S
C572 C575 1.461 . S
C572 H592 0.932 . S
C573 C571 1.408 . S
C573 C572 1.310 . S
C573 H593 0.930 . S
C574 C575 1.474 . S
C574 C576 1.285 . S
C574 H594 0.929 . S
C575 C572 1.461 . S
C575 C574 1.474 . S
C576 C571 1.342 . S
C576 C574 1.285 . S
C576 H595 0.930 . S
C577 C580 1.424 . S
C577 C582 1.245 . S
C577 C583 1.428 . S
C578 C581 1.260 . S
C578 C582 1.477 . S
C578 H596 0.932 . S
C579 C580 1.384 . S
C579 C581 1.479 . S
C579 H597 0.929 . S
C580 C577 1.424 . S
C580 C579 1.384 . S
C580 H598 0.928 . S
C581 C578 1.260 . S
C581 C579 1.479 . S
C582 C577 1.245 . S
C582 C578 1.477 . S
C582 H599 0.932 . S
C583 U566 2.882 . S
C583 C577 1.428 . S
C583 O586 1.301 . S
C583 O587 1.282 . S
O584 U566 2.441 1_545 S
O584 C570 1.249 . S
O585 U566 2.420 . S
O585 C570 1.202 1_565 S
O586 U566 2.455 . S
O586 C583 1.301 . S
O587 U566 2.449 . S
O587 C583 1.282 . S
H588 C561 0.931 . S
H589 C563 0.929 . S
H590 C564 0.930 . S
H591 C565 0.931 . S
H592 C572 0.932 . S
H593 C573 0.930 . S
H594 C574 0.929 . S
H595 C576 0.930 . S
H596 C578 0.932 . S
H597 C579 0.929 . S
H598 C580 0.928 . S
H599 C582 0.932 . S
C600 C601 1.264 . S
C600 C605 1.479 . S
C600 C610 1.465 . S
C601 C600 1.264 . S
C601 C603 1.339 . S
C601 H628 0.931 . S
C602 C603 1.395 . S
C602 C604 1.320 . S
C603 C601 1.339 . S
C603 C602 1.395 . S
C603 H629 0.929 . S
C604 C602 1.320 . S
C604 C605 1.405 . S
C604 H630 0.930 . S
C605 C600 1.479 . S
C605 C604 1.405 . S
C605 H631 0.931 . S
U606 O607 2.454 . S
U606 O608 2.458 1_545 S
U606 C609 2.984 1_545 S
U606 C610 2.847 . S
U606 C623 2.882 1_545 S
U606 O624 2.441 . S
U606 O625 2.420 . S
U606 O626 2.455 1_545 S
U606 O627 2.449 . S
O607 U606 2.454 . S
O607 C609 1.353 1_545 S
O608 U606 2.458 1_565 S
O608 C609 1.286 . S
C609 U606 2.984 1_565 S
C609 O607 1.353 1_565 S
C609 O608 1.286 . S
C609 C611 1.363 . S
C610 C600 1.465 . S
C610 U606 2.847 . S
C610 O624 1.249 . S
C610 O625 1.202 . S
C611 C609 1.363 . S
C611 C613 1.408 . S
C611 C616 1.342 . S
C612 C613 1.310 . S
C612 C615 1.461 . S
C612 H632 0.932 . S
C613 C611 1.408 . S
C613 C612 1.310 . S
C613 H633 0.930 . S
C614 C615 1.474 . S
C614 C616 1.285 . S
C614 H634 0.929 . S
C615 C612 1.461 . S
C615 C614 1.474 . S
C616 C611 1.342 . S
C616 C614 1.285 . S
C616 H635 0.930 . S
C617 C620 1.424 . S
C617 C622 1.245 . S
C617 C623 1.428 . S
C618 C621 1.260 . S
C618 C622 1.477 . S
C618 H636 0.932 . S
C619 C620 1.384 . S
C619 C621 1.479 . S
C619 H637 0.929 . S
C620 C617 1.424 . S
C620 C619 1.384 . S
C620 H638 0.928 . S
C621 C618 1.260 . S
C621 C619 1.479 . S
C622 C617 1.245 . S
C622 C618 1.477 . S
C622 H639 0.932 . S
C623 U606 2.882 1_565 S
C623 C617 1.428 . S
C623 O626 1.301 . S
C623 O627 1.282 1_565 S
O624 U606 2.441 . S
O624 C610 1.249 . S
O625 U606 2.420 . S
O625 C610 1.202 . S
O626 U606 2.455 1_565 S
O626 C623 1.301 . S
O627 U606 2.449 . S
O627 C623 1.282 1_545 S
H628 C601 0.931 . S
H629 C603 0.929 . S
H630 C604 0.930 . S
H631 C605 0.931 . S
H632 C612 0.932 . S
H633 C613 0.930 . S
H634 C614 0.929 . S
H635 C616 0.930 . S
H636 C618 0.932 . S
H637 C619 0.929 . S
H638 C620 0.928 . S
H639 C622 0.932 . S
C640 C641 1.349 . S
C640 C642 1.327 . S
C640 H665 0.950 . S
C641 C640 1.349 . S
C641 C657 1.349 . S
C642 C640 1.327 . S
C642 C661 1.429 . S
C642 H666 0.950 . S
C643 C660 1.574 . S
C643 C662 1.368 . S
C643 H667 0.949 . S
H644 C648 0.949 . S
C645 C646 1.349 . S
C645 C647 1.327 1_565 S
C645 H668 0.950 . S
C646 C645 1.349 . S
C646 C658 1.349 . S
C647 C645 1.327 1_545 S
C647 C663 1.429 . S
C647 H669 0.950 . S
C648 H644 0.949 . S
C648 C656 1.574 . S
C648 C664 1.368 . S
H649 C657 0.950 . S
H650 C655 0.950 . S
H651 C656 0.949 . S
H652 C658 0.950 . S
H653 C659 0.950 . S
H654 C660 0.949 . S
C655 H650 0.950 . S
C655 C657 1.327 . S
C655 C661 1.429 . S
C656 C648 1.574 . S
C656 H651 0.949 . S
C656 C662 1.368 . S
C657 C641 1.349 . S
C657 H649 0.950 . S
C657 C655 1.327 . S
C658 C646 1.349 . S
C658 H652 0.950 . S
C658 C659 1.327 1_565 S
C659 H653 0.950 . S
C659 C658 1.327 1_545 S
C659 C663 1.429 . S
C660 C643 1.574 . S
C660 H654 0.949 . S
C660 C664 1.368 . S
C661 C642 1.429 . S
C661 C655 1.429 . S
C661 C662 1.523 . S
C662 C643 1.368 . S
C662 C656 1.368 . S
C662 C661 1.523 . S
C663 C647 1.429 . S
C663 C659 1.429 . S
C663 C664 1.523 . S
C664 C648 1.368 . S
C664 C660 1.368 . S
C664 C663 1.523 . S
H665 C640 0.950 . S
H666 C642 0.950 . S
H667 C643 0.949 . S
H668 C645 0.950 . S
H669 C647 0.950 . S
C670 C671 1.349 . S
C670 C672 1.327 . S
C670 H695 0.950 . S
C671 C670 1.349 . S
C671 C687 1.349 . S
C672 C670 1.327 . S
C672 C691 1.429 . S
C672 H696 0.950 . S
C673 C690 1.574 . S
C673 C692 1.368 . S
C673 H697 0.949 . S
H674 C678 0.949 . S
C675 C676 1.349 . S
C675 C677 1.327 . S
C675 H698 0.950 . S
C676 C675 1.349 . S
C676 C688 1.349 . S
C677 C675 1.327 . S
C677 C693 1.429 . S
C677 H699 0.950 . S
C678 H674 0.949 . S
C678 C686 1.574 . S
C678 C694 1.368 . S
H679 C687 0.950 . S
H680 C685 0.950 . S
H681 C686 0.949 . S
H682 C688 0.950 . S
H683 C689 0.950 . S
H684 C690 0.949 . S
C685 H680 0.950 . S
C685 C687 1.327 . S
C685 C691 1.429 . S
C686 C678 1.574 . S
C686 H681 0.949 . S
C686 C692 1.368 . S
C687 C671 1.349 . S
C687 H679 0.950 . S
C687 C685 1.327 . S
C688 C676 1.349 . S
C688 H682 0.950 . S
C688 C689 1.327 . S
C689 H683 0.950 . S
C689 C688 1.327 . S
C689 C693 1.429 . S
C690 C673 1.574 . S
C690 H684 0.949 . S
C690 C694 1.368 . S
C691 C672 1.429 . S
C691 C685 1.429 . S
C691 C692 1.523 . S
C692 C673 1.368 . S
C692 C686 1.368 . S
C692 C691 1.523 . S
C693 C677 1.429 . S
C693 C689 1.429 . S
C693 C694 1.523 . S
C694 C678 1.368 . S
C694 C690 1.368 . S
C694 C693 1.523 . S
H695 C670 0.950 . S
H696 C672 0.950 . S
H697 C673 0.949 . S
H698 C675 0.950 . S
H699 C677 0.950 . S
C700 C701 1.349 . S
C700 C702 1.327 . S
C700 H725 0.950 . S
C701 C700 1.349 . S
C701 C717 1.349 . S
C702 C700 1.327 . S
C702 C721 1.429 . S
C702 H726 0.950 . S
C703 C720 1.574 . S
C703 C722 1.368 . S
C703 H727 0.949 . S
H704 C708 0.949 . S
C705 C706 1.349 . S
C705 C707 1.327 . S
C705 H728 0.950 . S
C706 C705 1.349 . S
C706 C718 1.349 . S
C707 C705 1.327 . S
C707 C723 1.429 . S
C707 H729 0.950 . S
C708 H704 0.949 . S
C708 C716 1.574 . S
C708 C724 1.368 . S
H709 C717 0.950 . S
H710 C715 0.950 . S
H711 C716 0.949 . S
H712 C718 0.950 . S
H713 C719 0.950 . S
H714 C720 0.949 . S
C715 H710 0.950 . S
C715 C717 1.327 . S
C715 C721 1.429 . S
C716 C708 1.574 . S
C716 H711 0.949 . S
C716 C722 1.368 . S
C717 C701 1.349 . S
C717 H709 0.950 . S
C717 C715 1.327 . S
C718 C706 1.349 . S
C718 H712 0.950 . S
C718 C719 1.327 . S
C719 H713 0.950 . S
C719 C718 1.327 . S
C719 C723 1.429 . S
C720 C703 1.574 . S
C720 H714 0.949 . S
C720 C724 1.368 . S
C721 C702 1.429 . S
C721 C715 1.429 . S
C721 C722 1.523 . S
C722 C703 1.368 . S
C722 C716 1.368 . S
C722 C721 1.523 . S
C723 C707 1.429 . S
C723 C719 1.429 . S
C723 C724 1.523 . S
C724 C708 1.368 . S
C724 C720 1.368 . S
C724 C723 1.523 . S
H725 C700 0.950 . S
H726 C702 0.950 . S
H727 C703 0.949 . S
H728 C705 0.950 . S
H729 C707 0.950 . S
C730 C731 1.349 . S
C730 C732 1.327 . S
C730 H755 0.950 . S
C731 C730 1.349 . S
C731 C747 1.349 . S
C732 C730 1.327 . S
C732 C751 1.429 . S
C732 H756 0.950 . S
C733 C750 1.574 . S
C733 C752 1.368 . S
C733 H757 0.949 . S
H734 C738 0.949 . S
C735 C736 1.349 . S
C735 C737 1.327 1_565 S
C735 H758 0.950 . S
C736 C735 1.349 . S
C736 C748 1.349 1_565 S
C737 C735 1.327 1_545 S
C737 C753 1.429 . S
C737 H759 0.950 . S
C738 H734 0.949 . S
C738 C746 1.574 . S
C738 C754 1.368 . S
H739 C747 0.950 . S
H740 C745 0.950 . S
H741 C746 0.949 . S
H742 C748 0.950 1_565 S
H743 C749 0.950 . S
H744 C750 0.949 . S
C745 H740 0.950 . S
C745 C747 1.327 . S
C745 C751 1.429 . S
C746 C738 1.574 . S
C746 H741 0.949 . S
C746 C752 1.368 . S
C747 C731 1.349 . S
C747 H739 0.950 . S
C747 C745 1.327 . S
C748 C736 1.349 1_545 S
C748 H742 0.950 1_545 S
C748 C749 1.327 . S
C749 H743 0.950 . S
C749 C748 1.327 . S
C749 C753 1.429 . S
C750 C733 1.574 . S
C750 H744 0.949 . S
C750 C754 1.368 . S
C751 C732 1.429 . S
C751 C745 1.429 . S
C751 C752 1.523 . S
C752 C733 1.368 . S
C752 C746 1.368 . S
C752 C751 1.523 . S
C753 C737 1.429 . S
C753 C749 1.429 . S
C753 C754 1.523 . S
C754 C738 1.368 . S
C754 C750 1.368 . S
C754 C753 1.523 . S
H755 C730 0.950 . S
H756 C732 0.950 . S
H757 C733 0.949 . S
H758 C735 0.950 . S
H759 C737 0.950 . S
C760 C761 1.349 . S
C760 C762 1.327 . S
C760 H785 0.950 . S
C761 C760 1.349 . S
C761 C777 1.349 . S
C762 C760 1.327 . S
C762 C781 1.429 . S
C762 H786 0.950 . S
C763 C780 1.574 . S
C763 C782 1.368 . S
C763 H787 0.949 . S
H764 C768 0.949 . S
C765 C766 1.349 . S
C765 C767 1.327 . S
C765 H788 0.950 . S
C766 C765 1.349 . S
C766 C778 1.349 . S
C767 C765 1.327 . S
C767 C783 1.429 . S
C767 H789 0.950 . S
C768 H764 0.949 . S
C768 C776 1.574 . S
C768 C784 1.368 . S
H769 C777 0.950 . S
H770 C775 0.950 . S
H771 C776 0.949 . S
H772 C778 0.950 . S
H773 C779 0.950 . S
H774 C780 0.949 . S
C775 H770 0.950 . S
C775 C777 1.327 . S
C775 C781 1.429 . S
C776 C768 1.574 . S
C776 H771 0.949 . S
C776 C782 1.368 . S
C777 C761 1.349 . S
C777 H769 0.950 . S
C777 C775 1.327 . S
C778 C766 1.349 . S
C778 H772 0.950 . S
C778 C779 1.327 . S
C779 H773 0.950 . S
C779 C778 1.327 . S
C779 C783 1.429 . S
C780 C763 1.574 . S
C780 H774 0.949 . S
C780 C784 1.368 . S
C781 C762 1.429 . S
C781 C775 1.429 . S
C781 C782 1.523 . S
C782 C763 1.368 . S
C782 C776 1.368 . S
C782 C781 1.523 . S
C783 C767 1.429 . S
C783 C779 1.429 . S
C783 C784 1.523 . S
C784 C768 1.368 . S
C784 C780 1.368 . S
C784 C783 1.523 . S
H785 C760 0.950 . S
H786 C762 0.950 . S
H787 C763 0.949 . S
H788 C765 0.950 . S
H789 C767 0.950 . S
C790 C791 1.349 . S
C790 C792 1.327 . S
C790 H815 0.950 . S
C791 C790 1.349 . S
C791 C807 1.349 . S
C792 C790 1.327 . S
C792 C811 1.429 . S
C792 H816 0.950 . S
C793 C810 1.574 . S
C793 C812 1.368 . S
C793 H817 0.949 . S
H794 C798 0.949 . S
C795 C796 1.349 . S
C795 C797 1.327 . S
C795 H818 0.950 . S
C796 C795 1.349 . S
C796 C808 1.349 . S
C797 C795 1.327 . S
C797 C813 1.429 . S
C797 H819 0.950 . S
C798 H794 0.949 . S
C798 C806 1.574 . S
C798 C814 1.368 . S
H799 C807 0.950 . S
H800 C805 0.950 . S
H801 C806 0.949 . S
H802 C808 0.950 . S
H803 C809 0.950 . S
H804 C810 0.949 . S
C805 H800 0.950 . S
C805 C807 1.327 . S
C805 C811 1.429 . S
C806 C798 1.574 . S
C806 H801 0.949 . S
C806 C812 1.368 . S
C807 C791 1.349 . S
C807 H799 0.950 . S
C807 C805 1.327 . S
C808 C796 1.349 . S
C808 H802 0.950 . S
C808 C809 1.327 . S
C809 H803 0.950 . S
C809 C808 1.327 . S
C809 C813 1.429 . S
C810 C793 1.574 . S
C810 H804 0.949 . S
C810 C814 1.368 . S
C811 C792 1.429 . S
C811 C805 1.429 . S
C811 C812 1.523 . S
C812 C793 1.368 . S
C812 C806 1.368 . S
C812 C811 1.523 . S
C813 C797 1.429 . S
C813 C809 1.429 . S
C813 C814 1.523 . S
C814 C798 1.368 . S
C814 C810 1.368 . S
C814 C813 1.523 . S
H815 C790 0.950 . S
H816 C792 0.950 . S
H817 C793 0.949 . S
H818 C795 0.950 . S
H819 C797 0.950 . S
C820 C821 1.349 . S
C820 C822 1.291 1_455 S
C820 H845 0.950 . S
C821 C820 1.349 . S
C821 C837 1.349 . S
C822 C820 1.291 1_655 S
C822 C841 1.462 . S
C822 H846 0.953 . S
C823 C840 1.574 . S
C823 C842 1.368 . S
C823 H847 0.949 . S
H824 C828 0.949 . S
C825 C826 1.349 . S
C825 C827 1.327 . S
C825 H848 0.950 . S
C826 C825 1.349 . S
C826 C838 1.349 . S
C827 C825 1.327 . S
C827 C843 1.429 . S
C827 H849 0.950 . S
C828 H824 0.949 . S
C828 C836 1.574 . S
C828 C844 1.368 . S
H829 C837 0.950 . S
H830 C835 0.950 . S
H831 C836 0.949 . S
H832 C838 0.950 . S
H833 C839 0.950 . S
H834 C840 0.949 . S
C835 H830 0.950 . S
C835 C837 1.327 1_655 S
C835 C841 1.429 . S
C836 C828 1.574 . S
C836 H831 0.949 . S
C836 C842 1.368 . S
C837 C821 1.349 . S
C837 H829 0.950 . S
C837 C835 1.327 1_455 S
C838 C826 1.349 . S
C838 H832 0.950 . S
C838 C839 1.327 . S
C839 H833 0.950 . S
C839 C838 1.327 . S
C839 C843 1.429 . S
C840 C823 1.574 . S
C840 H834 0.949 . S
C840 C844 1.368 . S
C841 C822 1.462 . S
C841 C835 1.429 . S
C841 C842 1.523 . S
C842 C823 1.368 . S
C842 C836 1.368 . S
C842 C841 1.523 . S
C843 C827 1.429 . S
C843 C839 1.429 . S
C843 C844 1.523 . S
C844 C828 1.368 . S
C844 C840 1.368 . S
C844 C843 1.523 . S
H845 C820 0.950 . S
H846 C822 0.953 . S
H847 C823 0.949 . S
H848 C825 0.950 . S
H849 C827 0.950 . S
C850 C851 1.349 . S
C850 C852 1.327 . S
C850 H875 0.950 . S
C851 C850 1.349 . S
C851 C867 1.349 . S
C852 C850 1.327 . S
C852 C871 1.429 . S
C852 H876 0.950 . S
C853 C870 1.574 . S
C853 C872 1.368 . S
C853 H877 0.949 . S
H854 C858 0.949 . S
C855 C856 1.349 1_655 S
C855 C857 1.327 . S
C855 H878 0.947 1_655 S
C856 C855 1.349 1_455 S
C856 C868 1.349 . S
C857 C855 1.327 . S
C857 C873 1.429 . S
C857 H879 0.950 . S
C858 H854 0.949 . S
C858 C866 1.574 . S
C858 C874 1.368 . S
H859 C867 0.950 . S
H860 C865 0.950 . S
H861 C866 0.949 . S
H862 C868 0.950 . S
H863 C869 0.950 . S
H864 C870 0.949 . S
C865 H860 0.950 . S
C865 C867 1.327 . S
C865 C871 1.429 . S
C866 C858 1.574 . S
C866 H861 0.949 . S
C866 C872 1.368 . S
C867 C851 1.349 . S
C867 H859 0.950 . S
C867 C865 1.327 . S
C868 C856 1.349 . S
C868 H862 0.950 . S
C868 C869 1.327 1_455 S
C869 H863 0.950 . S
C869 C868 1.327 1_655 S
C869 C873 1.429 . S
C870 C853 1.574 . S
C870 H864 0.949 . S
C870 C874 1.368 . S
C871 C852 1.429 . S
C871 C865 1.429 . S
C871 C872 1.523 . S
C872 C853 1.368 . S
C872 C866 1.368 . S
C872 C871 1.523 . S
C873 C857 1.429 . S
C873 C869 1.429 . S
C873 C874 1.523 . S
C874 C858 1.368 . S
C874 C870 1.368 . S
C874 C873 1.523 . S
H875 C850 0.950 . S
H876 C852 0.950 . S
H877 C853 0.949 . S
H878 C855 0.947 1_455 S
H879 C857 0.950 . S
C880 C881 1.349 . S
C880 C882 1.327 . S
C880 H905 0.950 . S
C881 C880 1.349 . S
C881 C897 1.350 1_556 S
C882 C880 1.327 . S
C882 C901 1.429 1_556 S
C882 H906 0.950 . S
C883 C900 1.574 . S
C883 C902 1.368 . S
C883 H907 0.949 . S
H884 C888 0.949 . S
C885 C886 1.349 . S
C885 C887 1.327 . S
C885 H908 0.950 . S
C886 C885 1.349 . S
C886 C898 1.349 . S
C887 C885 1.327 . S
C887 C903 1.429 . S
C887 H909 0.950 . S
C888 H884 0.949 . S
C888 C896 1.574 . S
C888 C904 1.368 . S
H889 C897 0.950 . S
H890 C895 0.950 . S
H891 C896 0.949 . S
H892 C898 0.950 . S
H893 C899 0.950 . S
H894 C900 0.949 . S
C895 H890 0.950 . S
C895 C897 1.326 . S
C895 C901 1.429 . S
C896 C888 1.574 . S
C896 H891 0.949 . S
C896 C902 1.368 . S
C897 C881 1.350 1_554 S
C897 H889 0.950 . S
C897 C895 1.326 . S
C898 C886 1.349 . S
C898 H892 0.950 . S
C898 C899 1.327 . S
C899 H893 0.950 . S
C899 C898 1.327 . S
C899 C903 1.429 . S
C900 C883 1.574 . S
C900 H894 0.949 . S
C900 C904 1.368 . S
C901 C882 1.429 1_554 S
C901 C895 1.429 . S
C901 C902 1.523 . S
C902 C883 1.368 . S
C902 C896 1.368 . S
C902 C901 1.523 . S
C903 C887 1.429 . S
C903 C899 1.429 . S
C903 C904 1.523 . S
C904 C888 1.368 . S
C904 C900 1.368 . S
C904 C903 1.523 . S
H905 C880 0.950 . S
H906 C882 0.950 . S
H907 C883 0.949 . S
H908 C885 0.950 . S
H909 C887 0.950 . S
C910 C911 1.349 . S
C910 C912 1.327 . S
C910 H935 0.950 . S
C911 C910 1.349 . S
C911 C927 1.349 . S
C912 C910 1.327 . S
C912 C931 1.429 . S
C912 H936 0.950 . S
C913 C930 1.574 . S
C913 C932 1.368 . S
C913 H937 0.949 . S
H914 C918 0.949 . S
C915 C916 1.349 . S
C915 C917 1.327 1_554 S
C915 H938 0.950 . S
C916 C915 1.349 . S
C916 C928 1.349 . S
C917 C915 1.327 1_556 S
C917 C933 1.429 . S
C917 H939 0.950 . S
C918 H914 0.949 . S
C918 C926 1.574 . S
C918 C934 1.368 . S
H919 C927 0.950 . S
H920 C925 0.950 . S
H921 C926 0.949 . S
H922 C928 0.950 . S
H923 C929 0.950 . S
H924 C930 0.949 . S
C925 H920 0.950 . S
C925 C927 1.327 . S
C925 C931 1.429 . S
C926 C918 1.574 . S
C926 H921 0.949 . S
C926 C932 1.368 . S
C927 C911 1.349 . S
C927 H919 0.950 . S
C927 C925 1.327 . S
C928 C916 1.349 . S
C928 H922 0.950 . S
C928 C929 1.327 . S
C929 H923 0.950 . S
C929 C928 1.327 . S
C929 C933 1.429 1_554 S
C930 C913 1.574 . S
C930 H924 0.949 . S
C930 C934 1.368 . S
C931 C912 1.429 . S
C931 C925 1.429 . S
C931 C932 1.523 . S
C932 C913 1.368 . S
C932 C926 1.368 . S
C932 C931 1.523 . S
C933 C917 1.429 . S
C933 C929 1.429 1_556 S
C933 C934 1.523 . S
C934 C918 1.368 . S
C934 C930 1.368 . S
C934 C933 1.523 . S
H935 C910 0.950 . S
H936 C912 0.950 . S
H937 C913 0.949 . S
H938 C915 0.950 . S
H939 C917 0.950 . S
C940 C941 1.349 . S
C940 C942 1.327 . S
C940 H965 0.950 . S
C941 C940 1.349 . S
C941 C957 1.349 . S
C942 C940 1.327 . S
C942 C961 1.429 . S
C942 H966 0.950 . S
C943 C960 1.574 . S
C943 C962 1.368 . S
C943 H967 0.949 . S
H944 C948 0.949 . S
C945 C946 1.349 . S
C945 C947 1.327 . S
C945 H968 0.950 . S
C946 C945 1.349 . S
C946 C958 1.349 . S
C947 C945 1.327 . S
C947 C963 1.429 . S
C947 H969 0.950 . S
C948 H944 0.949 . S
C948 C956 1.574 . S
C948 C964 1.368 . S
H949 C957 0.950 . S
H950 C955 0.950 . S
H951 C956 0.949 . S
H952 C958 0.950 . S
H953 C959 0.988 . S
H954 C960 0.949 1_556 S
C955 H950 0.950 . S
C955 C957 1.327 . S
C955 C961 1.429 . S
C956 C948 1.574 . S
C956 H951 0.949 . S
C956 C962 1.368 . S
C957 C941 1.349 . S
C957 H949 0.950 . S
C957 C955 1.327 . S
C958 C946 1.349 . S
C958 H952 0.950 . S
C958 C959 1.299 1_556 S
C959 H953 0.988 . S
C959 C958 1.299 1_554 S
C959 C963 1.420 1_554 S
C960 C943 1.574 . S
C960 H954 0.949 1_554 S
C960 C964 1.368 . S
C961 C942 1.429 . S
C961 C955 1.429 . S
C961 C962 1.523 . S
C962 C943 1.368 . S
C962 C956 1.368 . S
C962 C961 1.523 . S
C963 C947 1.429 . S
C963 C959 1.420 1_556 S
C963 C964 1.523 1_556 S
C964 C948 1.368 . S
C964 C960 1.368 . S
C964 C963 1.523 1_554 S
H965 C940 0.950 . S
H966 C942 0.950 . S
H967 C943 0.949 . S
H968 C945 0.950 . S
H969 C947 0.950 . S
C970 C971 1.349 . S
C970 C972 1.327 . S
C970 H995 0.950 . S
C971 C970 1.349 . S
C971 C987 1.349 . S
C972 C970 1.327 . S
C972 C991 1.429 . S
C972 H996 0.950 . S
C973 C990 1.574 . S
C973 C992 1.368 . S
C973 H997 0.949 . S
H974 C978 0.949 . S
C975 C976 1.349 . S
C975 C977 1.327 . S
C975 H998 0.950 . S
C976 C975 1.349 . S
C976 C988 1.349 . S
C977 C975 1.327 . S
C977 C993 1.370 1_554 S
C977 H999 0.950 . S
C978 H974 0.949 . S
C978 C986 1.574 . S
C978 C994 1.368 . S
H979 C987 0.950 . S
H980 C985 0.950 . S
H981 C986 0.949 . S
H982 C988 0.950 . S
H983 C989 0.950 . S
H984 C990 0.949 1_554 S
C985 H980 0.950 . S
C985 C987 1.327 . S
C985 C991 1.429 . S
C986 C978 1.574 . S
C986 H981 0.949 . S
C986 C992 1.368 . S
C987 C971 1.349 . S
C987 H979 0.950 . S
C987 C985 1.327 . S
C988 C976 1.349 . S
C988 H982 0.950 . S
C988 C989 1.327 1_554 S
C989 H983 0.950 . S
C989 C988 1.327 1_556 S
C989 C993 1.442 . S
C990 C973 1.574 . S
C990 H984 0.949 1_556 S
C990 C994 1.368 . S
C991 C972 1.429 . S
C991 C985 1.429 . S
C991 C992 1.523 . S
C992 C973 1.368 . S
C992 C986 1.368 . S
C992 C991 1.523 . S
C993 C977 1.370 1_556 S
C993 C989 1.442 . S
C993 C994 1.568 . S
C994 C978 1.368 . S
C994 C990 1.368 . S
C994 C993 1.568 . S
H995 C970 0.950 . S
H996 C972 0.950 . S
H997 C973 0.949 . S
H998 C975 0.950 . S
H999 C977 0.950 . S
C1000 C1001 1.349 . S
C1000 C1002 1.327 . S
C1000 H1025 0.950 . S
C1001 C1000 1.349 . S
C1001 C1017 1.349 . S
C1002 C1000 1.327 . S
C1002 C1021 1.429 . S
C1002 H1026 0.950 . S
C1003 C1020 1.574 . S
C1003 C1022 1.368 . S
C1003 H1027 0.949 . S
H1004 C1008 0.949 . S
C1005 C1006 1.349 . S
C1005 C1007 1.327 . S
C1005 H1028 0.950 . S
C1006 C1005 1.349 . S
C1006 C1018 1.349 . S
C1007 C1005 1.327 . S
C1007 C1023 1.429 . S
C1007 H1029 0.950 . S
C1008 H1004 0.949 . S
C1008 C1016 1.574 . S
C1008 C1024 1.368 . S
H1009 C1017 0.950 . S
H1010 C1015 0.950 . S
H1011 C1016 0.949 . S
H1012 C1018 0.950 . S
H1013 C1019 0.950 . S
H1014 C1020 0.949 . S
C1015 H1010 0.950 . S
C1015 C1017 1.327 . S
C1015 C1021 1.429 . S
C1016 C1008 1.574 . S
C1016 H1011 0.949 . S
C1016 C1022 1.368 . S
C1017 C1001 1.349 . S
C1017 H1009 0.950 . S
C1017 C1015 1.327 . S
C1018 C1006 1.349 . S
C1018 H1012 0.950 . S
C1018 C1019 1.327 . S
C1019 H1013 0.950 . S
C1019 C1018 1.327 . S
C1019 C1023 1.429 . S
C1020 C1003 1.574 . S
C1020 H1014 0.949 . S
C1020 C1024 1.368 . S
C1021 C1002 1.429 . S
C1021 C1015 1.429 . S
C1021 C1022 1.523 . S
C1022 C1003 1.368 . S
C1022 C1016 1.368 . S
C1022 C1021 1.523 . S
C1023 C1007 1.429 . S
C1023 C1019 1.429 . S
C1023 C1024 1.523 . S
C1024 C1008 1.368 . S
C1024 C1020 1.368 . S
C1024 C1023 1.523 . S
H1025 C1000 0.950 . S
H1026 C1002 0.950 . S
H1027 C1003 0.949 . S
H1028 C1005 0.950 . S
H1029 C1007 0.950 . S
C1030 C1031 1.349 . S
C1030 C1032 1.327 . S
C1030 H1055 0.950 . S
C1031 C1030 1.349 . S
C1031 C1047 1.349 . S
C1032 C1030 1.327 . S
C1032 C1051 1.429 . S
C1032 H1056 0.950 . S
C1033 C1050 1.574 . S
C1033 C1052 1.368 . S
C1033 H1057 0.949 . S
H1034 C1038 0.949 . S
C1035 C1036 1.349 . S
C1035 C1037 1.327 . S
C1035 H1058 0.950 . S
C1036 C1035 1.349 . S
C1036 C1048 1.349 . S
C1037 C1035 1.327 . S
C1037 C1053 1.429 . S
C1037 H1059 0.950 . S
C1038 H1034 0.949 . S
C1038 C1046 1.574 . S
C1038 C1054 1.368 . S
H1039 C1047 0.950 . S
H1040 C1045 0.950 . S
H1041 C1046 0.949 . S
H1042 C1048 0.950 . S
H1043 C1049 0.950 . S
H1044 C1050 0.949 . S
C1045 H1040 0.950 . S
C1045 C1047 1.327 . S
C1045 C1051 1.429 . S
C1046 C1038 1.574 . S
C1046 H1041 0.949 . S
C1046 C1052 1.368 . S
C1047 C1031 1.349 . S
C1047 H1039 0.950 . S
C1047 C1045 1.327 . S
C1048 C1036 1.349 . S
C1048 H1042 0.950 . S
C1048 C1049 1.327 . S
C1049 H1043 0.950 . S
C1049 C1048 1.327 . S
C1049 C1053 1.429 . S
C1050 C1033 1.574 . S
C1050 H1044 0.949 . S
C1050 C1054 1.368 . S
C1051 C1032 1.429 . S
C1051 C1045 1.429 . S
C1051 C1052 1.523 . S
C1052 C1033 1.368 . S
C1052 C1046 1.368 . S
C1052 C1051 1.523 . S
C1053 C1037 1.429 . S
C1053 C1049 1.429 . S
C1053 C1054 1.523 . S
C1054 C1038 1.368 . S
C1054 C1050 1.368 . S
C1054 C1053 1.523 . S
H1055 C1030 0.950 . S
H1056 C1032 0.950 . S
H1057 C1033 0.949 . S
H1058 C1035 0.950 . S
H1059 C1037 0.950 . S
C1060 C1061 1.349 . S
C1060 C1062 1.327 . S
C1060 H1085 0.950 . S
C1061 C1060 1.349 . S
C1061 C1077 1.349 . S
C1062 C1060 1.327 . S
C1062 C1081 1.429 . S
C1062 H1086 0.950 . S
C1063 C1080 1.574 . S
C1063 C1082 1.368 . S
C1063 H1087 0.949 . S
H1064 C1068 0.949 . S
C1065 C1066 1.349 . S
C1065 C1067 1.327 . S
C1065 H1088 0.950 . S
C1066 C1065 1.349 . S
C1066 C1078 1.349 . S
C1067 C1065 1.327 . S
C1067 C1083 1.429 . S
C1067 H1089 0.950 . S
C1068 H1064 0.949 . S
C1068 C1076 1.574 . S
C1068 C1084 1.368 . S
H1069 C1077 0.950 . S
H1070 C1075 0.950 . S
H1071 C1076 0.949 . S
H1072 C1078 0.950 . S
H1073 C1079 0.950 . S
H1074 C1080 0.949 . S
C1075 H1070 0.950 . S
C1075 C1077 1.327 . S
C1075 C1081 1.429 . S
C1076 C1068 1.574 . S
C1076 H1071 0.949 . S
C1076 C1082 1.368 . S
C1077 C1061 1.349 . S
C1077 H1069 0.950 . S
C1077 C1075 1.327 . S
C1078 C1066 1.349 . S
C1078 H1072 0.950 . S
C1078 C1079 1.327 . S
C1079 H1073 0.950 . S
C1079 C1078 1.327 . S
C1079 C1083 1.429 . S
C1080 C1063 1.574 . S
C1080 H1074 0.949 . S
C1080 C1084 1.368 . S
C1081 C1062 1.429 . S
C1081 C1075 1.429 . S
C1081 C1082 1.523 . S
C1082 C1063 1.368 . S
C1082 C1076 1.368 . S
C1082 C1081 1.523 . S
C1083 C1067 1.429 . S
C1083 C1079 1.429 . S
C1083 C1084 1.523 . S
C1084 C1068 1.368 . S
C1084 C1080 1.368 . S
C1084 C1083 1.523 . S
H1085 C1060 0.950 . S
H1086 C1062 0.950 . S
H1087 C1063 0.949 . S
H1088 C1065 0.950 . S
H1089 C1067 0.950 . S
C1090 C1091 1.349 . S
C1090 C1092 1.327 . S
C1090 H1115 0.950 . S
C1091 C1090 1.349 . S
C1091 C1107 1.349 . S
C1092 C1090 1.327 . S
C1092 C1111 1.429 . S
C1092 H1116 0.950 . S
C1093 C1110 1.574 . S
C1093 C1112 1.368 . S
C1093 H1117 0.949 . S
H1094 C1098 0.949 . S
C1095 C1096 1.349 . S
C1095 C1097 1.327 . S
C1095 H1118 0.950 . S
C1096 C1095 1.349 . S
C1096 C1108 1.349 . S
C1097 C1095 1.327 . S
C1097 C1113 1.429 . S
C1097 H1119 0.950 . S
C1098 H1094 0.949 . S
C1098 C1106 1.574 . S
C1098 C1114 1.368 . S
H1099 C1107 0.950 . S
H1100 C1105 0.950 . S
H1101 C1106 0.949 . S
H1102 C1108 0.950 . S
H1103 C1109 0.950 . S
H1104 C1110 0.949 . S
C1105 H1100 0.950 . S
C1105 C1107 1.327 . S
C1105 C1111 1.429 . S
C1106 C1098 1.574 . S
C1106 H1101 0.949 . S
C1106 C1112 1.368 . S
C1107 C1091 1.349 . S
C1107 H1099 0.950 . S
C1107 C1105 1.327 . S
C1108 C1096 1.349 . S
C1108 H1102 0.950 . S
C1108 C1109 1.327 . S
C1109 H1103 0.950 . S
C1109 C1108 1.327 . S
C1109 C1113 1.429 . S
C1110 C1093 1.574 . S
C1110 H1104 0.949 . S
C1110 C1114 1.368 . S
C1111 C1092 1.429 . S
C1111 C1105 1.429 . S
C1111 C1112 1.523 . S
C1112 C1093 1.368 . S
C1112 C1106 1.368 . S
C1112 C1111 1.523 . S
C1113 C1097 1.429 . S
C1113 C1109 1.429 . S
C1113 C1114 1.523 . S
C1114 C1098 1.368 . S
C1114 C1110 1.368 . S
C1114 C1113 1.523 . S
H1115 C1090 0.950 . S
H1116 C1092 0.950 . S
H1117 C1093 0.949 . S
H1118 C1095 0.950 . S
H1119 C1097 0.950 . S
C1120 C1121 1.349 . S
C1120 C1122 1.327 . S
C1120 H1145 0.950 . S
C1121 C1120 1.349 . S
C1121 C1137 1.349 . S
C1122 C1120 1.327 . S
C1122 C1141 1.429 . S
C1122 H1146 0.950 . S
C1123 C1140 1.574 . S
C1123 C1142 1.368 . S
C1123 H1147 0.949 . S
H1124 C1128 0.949 . S
C1125 C1126 1.349 . S
C1125 C1127 1.327 . S
C1125 H1148 0.950 . S
C1126 C1125 1.349 . S
C1126 C1138 1.349 . S
C1127 C1125 1.327 . S
C1127 C1143 1.429 . S
C1127 H1149 0.950 . S
C1128 H1124 0.949 . S
C1128 C1136 1.574 . S
C1128 C1144 1.368 . S
H1129 C1137 0.950 . S
H1130 C1135 0.950 . S
H1131 C1136 0.949 . S
H1132 C1138 0.950 . S
H1133 C1139 0.950 . S
H1134 C1140 0.949 . S
C1135 H1130 0.950 . S
C1135 C1137 1.327 . S
C1135 C1141 1.429 . S
C1136 C1128 1.574 . S
C1136 H1131 0.949 . S
C1136 C1142 1.368 . S
C1137 C1121 1.349 . S
C1137 H1129 0.950 . S
C1137 C1135 1.327 . S
C1138 C1126 1.349 . S
C1138 H1132 0.950 . S
C1138 C1139 1.327 . S
C1139 H1133 0.950 . S
C1139 C1138 1.327 . S
C1139 C1143 1.429 . S
C1140 C1123 1.574 . S
C1140 H1134 0.949 . S
C1140 C1144 1.368 . S
C1141 C1122 1.429 . S
C1141 C1135 1.429 . S
C1141 C1142 1.523 . S
C1142 C1123 1.368 . S
C1142 C1136 1.368 . S
C1142 C1141 1.523 . S
C1143 C1127 1.429 . S
C1143 C1139 1.429 . S
C1143 C1144 1.523 . S
C1144 C1128 1.368 . S
C1144 C1140 1.368 . S
C1144 C1143 1.523 . S
H1145 C1120 0.950 . S
H1146 C1122 0.950 . S
H1147 C1123 0.949 . S
H1148 C1125 0.950 . S
H1149 C1127 0.950 . S
C1150 C1151 1.349 . S
C1150 C1152 1.327 . S
C1150 H1175 0.950 . S
C1151 C1150 1.349 . S
C1151 C1167 1.349 . S
C1152 C1150 1.327 . S
C1152 C1171 1.429 . S
C1152 H1176 0.950 . S
C1153 C1170 1.574 . S
C1153 C1172 1.368 . S
C1153 H1177 0.949 . S
H1154 C1158 0.949 . S
C1155 C1156 1.349 . S
C1155 C1157 1.327 . S
C1155 H1178 0.950 . S
C1156 C1155 1.349 . S
C1156 C1168 1.349 . S
C1157 C1155 1.327 . S
C1157 C1173 1.429 . S
C1157 H1179 0.950 . S
C1158 H1154 0.949 . S
C1158 C1166 1.574 . S
C1158 C1174 1.368 . S
H1159 C1167 0.950 . S
H1160 C1165 0.950 . S
H1161 C1166 0.949 . S
H1162 C1168 0.950 . S
H1163 C1169 0.950 . S
H1164 C1170 0.949 . S
C1165 H1160 0.950 . S
C1165 C1167 1.327 . S
C1165 C1171 1.429 . S
C1166 C1158 1.574 . S
C1166 H1161 0.949 . S
C1166 C1172 1.368 . S
C1167 C1151 1.349 . S
C1167 H1159 0.950 . S
C1167 C1165 1.327 . S
C1168 C1156 1.349 . S
C1168 H1162 0.950 . S
C1168 C1169 1.327 . S
C1169 H1163 0.950 . S
C1169 C1168 1.327 . S
C1169 C1173 1.429 . S
C1170 C1153 1.574 . S
C1170 H1164 0.949 . S
C1170 C1174 1.368 . S
C1171 C1152 1.429 . S
C1171 C1165 1.429 . S
C1171 C1172 1.523 . S
C1172 C1153 1.368 . S
C1172 C1166 1.368 . S
C1172 C1171 1.523 . S
C1173 C1157 1.429 . S
C1173 C1169 1.429 . S
C1173 C1174 1.523 . S
C1174 C1158 1.368 . S
C1174 C1170 1.368 . S
C1174 C1173 1.523 . S
H1175 C1150 0.950 . S
H1176 C1152 0.950 . S
H1177 C1153 0.949 . S
H1178 C1155 0.950 . S
H1179 C1157 0.950 . S
C1180 C1181 1.349 . S
C1180 C1182 1.327 . S
C1180 H1205 0.950 . S
C1181 C1180 1.349 . S
C1181 C1197 1.349 . S
C1182 C1180 1.327 . S
C1182 C1201 1.429 . S
C1182 H1206 0.950 . S
C1183 C1200 1.574 . S
C1183 C1202 1.368 . S
C1183 H1207 0.949 . S
H1184 C1188 0.949 . S
C1185 C1186 1.349 . S
C1185 C1187 1.327 . S
C1185 H1208 0.950 . S
C1186 C1185 1.349 . S
C1186 C1198 1.349 . S
C1187 C1185 1.327 . S
C1187 C1203 1.429 . S
C1187 H1209 0.950 . S
C1188 H1184 0.949 . S
C1188 C1196 1.574 . S
C1188 C1204 1.368 . S
H1189 C1197 0.950 . S
H1190 C1195 0.950 . S
H1191 C1196 0.949 . S
H1192 C1198 0.950 . S
H1193 C1199 0.950 . S
H1194 C1200 0.949 . S
C1195 H1190 0.950 . S
C1195 C1197 1.327 . S
C1195 C1201 1.429 . S
C1196 C1188 1.574 . S
C1196 H1191 0.949 . S
C1196 C1202 1.368 . S
C1197 C1181 1.349 . S
C1197 H1189 0.950 . S
C1197 C1195 1.327 . S
C1198 C1186 1.349 . S
C1198 H1192 0.950 . S
C1198 C1199 1.327 . S
C1199 H1193 0.950 . S
C1199 C1198 1.327 . S
C1199 C1203 1.429 . S
C1200 C1183 1.574 . S
C1200 H1194 0.949 . S
C1200 C1204 1.368 . S
C1201 C1182 1.429 . S
C1201 C1195 1.429 . S
C1201 C1202 1.523 . S
C1202 C1183 1.368 . S
C1202 C1196 1.368 . S
C1202 C1201 1.523 . S
C1203 C1187 1.429 . S
C1203 C1199 1.429 . S
C1203 C1204 1.523 . S
C1204 C1188 1.368 . S
C1204 C1200 1.368 . S
C1204 C1203 1.523 . S
H1205 C1180 0.950 . S
H1206 C1182 0.950 . S
H1207 C1183 0.949 . S
H1208 C1185 0.950 . S
H1209 C1187 0.950 . S
C1210 C1211 1.349 . S
C1210 C1212 1.327 . S
C1210 H1235 0.950 . S
C1211 C1210 1.349 . S
C1211 C1227 1.371 . S
C1212 C1210 1.327 . S
C1212 C1231 1.429 . S
C1212 H1236 0.950 . S
C1213 C1230 1.574 . S
C1213 C1232 1.339 1_655 S
C1213 H1237 0.976 . S
H1214 C1218 0.949 . S
C1215 C1216 1.367 . S
C1215 C1217 1.327 . S
C1215 H1238 0.932 1_455 S
C1216 C1215 1.367 . S
C1216 C1228 1.349 . S
C1217 C1215 1.327 . S
C1217 C1233 1.428 . S
C1217 H1239 0.950 1_455 S
C1218 H1214 0.949 . S
C1218 C1226 1.574 . S
C1218 C1234 1.368 . S
H1219 C1227 0.928 1_655 S
H1220 C1225 0.947 1_655 S
H1221 C1226 0.949 . S
H1222 C1228 0.950 . S
H1223 C1229 0.950 . S
H1224 C1230 0.977 . S
C1225 H1220 0.947 1_455 S
C1225 C1227 1.327 . S
C1225 C1231 1.431 . S
C1226 C1218 1.574 . S
C1226 H1221 0.949 . S
C1226 C1232 1.368 . S
C1227 C1211 1.371 . S
C1227 H1219 0.928 1_455 S
C1227 C1225 1.327 . S
C1228 C1216 1.349 . S
C1228 H1222 0.950 . S
C1228 C1229 1.327 . S
C1229 H1223 0.950 . S
C1229 C1228 1.327 . S
C1229 C1233 1.429 . S
C1230 C1213 1.574 . S
C1230 H1224 0.977 . S
C1230 C1234 1.339 1_655 S
C1231 C1212 1.429 . S
C1231 C1225 1.431 . S
C1231 C1232 1.523 . S
C1232 C1213 1.339 1_455 S
C1232 C1226 1.368 . S
C1232 C1231 1.523 . S
C1233 C1217 1.428 . S
C1233 C1229 1.429 . S
C1233 C1234 1.523 . S
C1234 C1218 1.368 . S
C1234 C1230 1.339 1_455 S
C1234 C1233 1.523 . S
H1235 C1210 0.950 . S
H1236 C1212 0.950 . S
H1237 C1213 0.976 . S
H1238 C1215 0.932 1_655 S
H1239 C1217 0.950 1_655 S
C1240 C1241 1.349 . S
C1240 C1242 1.327 . S
C1240 H1265 0.950 . S
C1241 C1240 1.349 . S
C1241 C1257 1.386 . S
C1242 C1240 1.327 . S
C1242 C1261 1.429 . S
C1242 H1266 0.950 . S
C1243 C1260 1.574 . S
C1243 C1262 1.361 1_545 S
C1243 H1267 0.956 . S
H1244 C1248 0.949 . S
C1245 C1246 1.389 . S
C1245 C1247 1.327 . S
C1245 H1268 0.912 1_565 S
C1246 C1245 1.389 . S
C1246 C1258 1.349 . S
C1247 C1245 1.327 . S
C1247 C1263 1.449 . S
C1247 H1269 0.928 1_565 S
C1248 H1244 0.949 . S
C1248 C1256 1.574 . S
C1248 C1264 1.368 . S
H1249 C1257 0.914 1_545 S
H1250 C1255 0.930 1_545 S
H1251 C1256 0.949 . S
H1252 C1258 0.950 . S
H1253 C1259 0.950 . S
H1254 C1260 0.955 . S
C1255 H1250 0.930 1_565 S
C1255 C1257 1.327 . S
C1255 C1261 1.447 . S
C1256 C1248 1.574 . S
C1256 H1251 0.949 . S
C1256 C1262 1.368 . S
C1257 C1241 1.386 . S
C1257 H1249 0.914 1_565 S
C1257 C1255 1.327 . S
C1258 C1246 1.349 . S
C1258 H1252 0.950 . S
C1258 C1259 1.327 . S
C1259 H1253 0.950 . S
C1259 C1258 1.327 . S
C1259 C1263 1.429 . S
C1260 C1243 1.574 . S
C1260 H1254 0.955 . S
C1260 C1264 1.362 1_545 S
C1261 C1242 1.429 . S
C1261 C1255 1.447 . S
C1261 C1262 1.523 . S
C1262 C1243 1.361 1_565 S
C1262 C1256 1.368 . S
C1262 C1261 1.523 . S
C1263 C1247 1.449 . S
C1263 C1259 1.429 . S
C1263 C1264 1.523 . S
C1264 C1248 1.368 . S
C1264 C1260 1.362 1_565 S
C1264 C1263 1.523 . S
H1265 C1240 0.950 . S
H1266 C1242 0.950 . S
H1267 C1243 0.956 . S
H1268 C1245 0.912 1_545 S
H1269 C1247 0.928 1_545 S
C1270 C1271 1.349 . S
C1270 C1272 1.327 . S
C1270 H1295 0.950 . S
C1271 C1270 1.349 . S
C1271 C1287 1.349 . S
C1272 C1270 1.327 . S
C1272 C1291 1.429 . S
C1272 H1296 0.950 . S
C1273 C1290 1.574 . S
C1273 C1292 1.368 . S
C1273 H1297 0.949 . S
H1274 C1278 0.949 . S
C1275 C1276 1.349 . S
C1275 C1277 1.327 . S
C1275 H1298 0.950 . S
C1276 C1275 1.349 . S
C1276 C1288 1.349 . S
C1277 C1275 1.327 . S
C1277 C1293 1.429 . S
C1277 H1299 0.950 . S
C1278 H1274 0.949 . S
C1278 C1286 1.574 . S
C1278 C1294 1.368 . S
H1279 C1287 0.950 . S
H1280 C1285 0.950 . S
H1281 C1286 0.949 . S
H1282 C1288 0.950 . S
H1283 C1289 0.950 . S
H1284 C1290 0.949 . S
C1285 H1280 0.950 . S
C1285 C1287 1.327 . S
C1285 C1291 1.429 . S
C1286 C1278 1.574 . S
C1286 H1281 0.949 . S
C1286 C1292 1.368 . S
C1287 C1271 1.349 . S
C1287 H1279 0.950 . S
C1287 C1285 1.327 . S
C1288 C1276 1.349 . S
C1288 H1282 0.950 . S
C1288 C1289 1.327 . S
C1289 H1283 0.950 . S
C1289 C1288 1.327 . S
C1289 C1293 1.429 . S
C1290 C1273 1.574 . S
C1290 H1284 0.949 . S
C1290 C1294 1.368 . S
C1291 C1272 1.429 . S
C1291 C1285 1.429 . S
C1291 C1292 1.523 . S
C1292 C1273 1.368 . S
C1292 C1286 1.368 . S
C1292 C1291 1.523 . S
C1293 C1277 1.429 . S
C1293 C1289 1.429 . S
C1293 C1294 1.523 . S
C1294 C1278 1.368 . S
C1294 C1290 1.368 . S
C1294 C1293 1.523 . S
H1295 C1270 0.950 . S
H1296 C1272 0.950 . S
H1297 C1273 0.949 . S
H1298 C1275 0.950 . S
H1299 C1277 0.950 . S
C1300 C1301 1.349 . S
C1300 C1302 1.327 . S
C1300 H1325 0.950 . S
C1301 C1300 1.349 . S
C1301 C1317 1.349 . S
C1302 C1300 1.327 . S
C1302 C1321 1.429 . S
C1302 H1326 0.950 . S
C1303 C1320 1.574 . S
C1303 C1322 1.368 . S
C1303 H1327 0.949 . S
H1304 C1308 0.949 . S
C1305 C1306 1.349 . S
C1305 C1307 1.327 . S
C1305 H1328 0.950 . S
C1306 C1305 1.349 . S
C1306 C1318 1.349 . S
C1307 C1305 1.327 . S
C1307 C1323 1.429 . S
C1307 H1329 0.950 . S
C1308 H1304 0.949 . S
C1308 C1316 1.574 . S
C1308 C1324 1.368 . S
H1309 C1317 0.950 . S
H1310 C1315 0.950 . S
H1311 C1316 0.949 . S
H1312 C1318 0.950 . S
H1313 C1319 0.950 . S
H1314 C1320 0.949 . S
C1315 H1310 0.950 . S
C1315 C1317 1.327 . S
C1315 C1321 1.429 . S
C1316 C1308 1.574 . S
C1316 H1311 0.949 . S
C1316 C1322 1.368 . S
C1317 C1301 1.349 . S
C1317 H1309 0.950 . S
C1317 C1315 1.327 . S
C1318 C1306 1.349 . S
C1318 H1312 0.950 . S
C1318 C1319 1.327 . S
C1319 H1313 0.950 . S
C1319 C1318 1.327 . S
C1319 C1323 1.429 . S
C1320 C1303 1.574 . S
C1320 H1314 0.949 . S
C1320 C1324 1.368 . S
C1321 C1302 1.429 . S
C1321 C1315 1.429 . S
C1321 C1322 1.523 . S
C1322 C1303 1.368 . S
C1322 C1316 1.368 . S
C1322 C1321 1.523 . S
C1323 C1307 1.429 . S
C1323 C1319 1.429 . S
C1323 C1324 1.523 . S
C1324 C1308 1.368 . S
C1324 C1320 1.368 . S
C1324 C1323 1.523 . S
H1325 C1300 0.950 . S
H1326 C1302 0.950 . S
H1327 C1303 0.949 . S
H1328 C1305 0.950 . S
H1329 C1307 0.950 . S
C1330 C1331 1.349 . S
C1330 C1332 1.327 . S
C1330 H1355 0.950 . S
C1331 C1330 1.349 . S
C1331 C1347 1.349 . S
C1332 C1330 1.327 . S
C1332 C1351 1.429 . S
C1332 H1356 0.950 . S
C1333 C1350 1.574 . S
C1333 C1352 1.368 . S
C1333 H1357 0.949 . S
H1334 C1338 0.949 . S
C1335 C1336 1.349 . S
C1335 C1337 1.327 . S
C1335 H1358 0.950 . S
C1336 C1335 1.349 . S
C1336 C1348 1.349 . S
C1337 C1335 1.327 . S
C1337 C1353 1.429 . S
C1337 H1359 0.950 . S
C1338 H1334 0.949 . S
C1338 C1346 1.574 . S
C1338 C1354 1.368 . S
H1339 C1347 0.950 . S
H1340 C1345 0.950 . S
H1341 C1346 0.949 . S
H1342 C1348 0.950 . S
H1343 C1349 0.950 . S
H1344 C1350 0.949 . S
C1345 H1340 0.950 . S
C1345 C1347 1.327 . S
C1345 C1351 1.429 . S
C1346 C1338 1.574 . S
C1346 H1341 0.949 . S
C1346 C1352 1.368 . S
C1347 C1331 1.349 . S
C1347 H1339 0.950 . S
C1347 C1345 1.327 . S
C1348 C1336 1.349 . S
C1348 H1342 0.950 . S
C1348 C1349 1.327 . S
C1349 H1343 0.950 . S
C1349 C1348 1.327 . S
C1349 C1353 1.429 . S
C1350 C1333 1.574 . S
C1350 H1344 0.949 . S
C1350 C1354 1.368 . S
C1351 C1332 1.429 . S
C1351 C1345 1.429 . S
C1351 C1352 1.523 . S
C1352 C1333 1.368 . S
C1352 C1346 1.368 . S
C1352 C1351 1.523 . S
C1353 C1337 1.429 . S
C1353 C1349 1.429 . S
C1353 C1354 1.523 . S
C1354 C1338 1.368 . S
C1354 C1350 1.368 . S
C1354 C1353 1.523 . S
H1355 C1330 0.950 . S
H1356 C1332 0.950 . S
H1357 C1333 0.949 . S
H1358 C1335 0.950 . S
H1359 C1337 0.950 . S
C641 C21 0.818 . S
C646 C301 0.870 . S
C671 C61 0.971 . S
C676 C181 0.888 . S
C701 C101 1.040 . S
C706 C221 1.052 . S
C731 C261 0.949 . S
C736 C141 0.958 . S
C761 C621 0.929 . S
C766 C341 1.014 . S
C791 C501 0.975 . S
C796 C381 0.885 . S
C821 C421 0.872 . S
C826 C541 0.861 . S
C851 C461 0.899 . S
C856 C581 0.912 . S
C881 C335 2.767 . S
C886 C2 2.601 . S
C911 C375 2.612 . S
C916 C42 2.663 . S
C941 C95 2.638 . S
C946 C402 2.785 . S
C971 C442 2.807 . S
C976 C122 2.756 . S
C1001 C495 2.669 . S
C1006 C162 2.500 . S
C1031 C522 2.811 . S
C1036 C202 2.762 . S
C1061 C562 2.863 . S
C1066 C255 2.718 . S
C1091 C282 2.651 . S
C1096 C615 2.606 . S
C1121 C242 2.728 . S
C1126 C15 2.642 . S
C1151 C295 1.970 . S
C1156 C55 1.972 . S
C1181 C82 2.700 . S
C1186 C175 2.616 . S
C1211 C135 2.093 . S
C1216 C215 2.095 . S
C1241 C575 2.076 . S
C1246 C322 2.053 . S
C1271 C602 2.597 . S
C1276 C362 2.580 . S
C1301 C415 1.944 . S
C1306 C482 1.929 . S
C1331 C455 2.673 . S
C1336 C535 2.656 . S
