# Generated by pormake.
# Topology cab, (5)-cn, num edge types: 1
# Building blocks:
#     Node 0, Type 0, BuildingBlock: XOMCOT_clean_sbu_1, # of connection points: 5
#     Node 1, Type 0, BuildingBlock: XOMCOT_clean_sbu_1, # of connection points: 5
#     Node 2, Type 0, BuildingBlock: XOMCOT_clean_sbu_1, # of connection points: 5
#     Node 3, Type 0, BuildingBlock: XOMCOT_clean_sbu_1, # of connection points: 5
#     Node 4, Type 0, BuildingBlock: XOMCOT_clean_sbu_1, # of connection points: 5
#     Node 5, Type 0, BuildingBlock: XOMCOT_clean_sbu_1, # of connection points: 5
#     Edge 6, Type (0, 0), BuildingBlock: EZIPEK_clean_linker_0, # of connection points: 2
#     Edge 7, Type (0, 0), BuildingBlock: EZIPEK_clean_linker_0, # of connection points: 2
#     Edge 8, Type (0, 0), BuildingBlock: EZIPEK_clean_linker_0, # of connection points: 2
#     Edge 9, Type (0, 0), BuildingBlock: EZIPEK_clean_linker_0, # of connection points: 2
#     Edge 10, Type (0, 0), BuildingBlock: EZIPEK_clean_linker_0, # of connection points: 2
#     Edge 11, Type (0, 0), BuildingBlock: EZIPEK_clean_linker_0, # of connection points: 2
#     Edge 12, Type (0, 0), BuildingBlock: EZIPEK_clean_linker_0, # of connection points: 2
#     Edge 13, Type (0, 0), BuildingBlock: EZIPEK_clean_linker_0, # of connection points: 2
#     Edge 14, Type (0, 0), BuildingBlock: EZIPEK_clean_linker_0, # of connection points: 2
#     Edge 15, Type (0, 0), BuildingBlock: EZIPEK_clean_linker_0, # of connection points: 2
#     Edge 16, Type (0, 0), BuildingBlock: EZIPEK_clean_linker_0, # of connection points: 2
#     Edge 17, Type (0, 0), BuildingBlock: EZIPEK_clean_linker_0, # of connection points: 2
#     Edge 18, Type (0, 0), BuildingBlock: EZIPEK_clean_linker_0, # of connection points: 2
#     Edge 19, Type (0, 0), BuildingBlock: EZIPEK_clean_linker_0, # of connection points: 2
#     Edge 20, Type (0, 0), BuildingBlock: EZIPEK_clean_linker_0, # of connection points: 2
# Relax obj value: 0.879
# Max RMSD: 0.216
# Mean RMSD: 0.213
data_MOF--net-cab--node1-XOMCOT_clean_sbu_1--edge1-EZIPEK_clean_linker_0
_symmetry_space_group_name_H-M    P1
_symmetry_Int_Tables_number       1
_symmetry_cell_setting            triclinic
loop_
_symmetry_equiv_pos_as_xyz
'x, y, z'
_cell_length_a     27.984638
_cell_length_b     27.581818
_cell_length_c     27.78752
_cell_angle_alpha  79.579054
_cell_angle_beta   67.789995
_cell_angle_gamma 79.39333
loop_
_atom_site_label
_atom_site_type_symbol
_atom_site_fract_x
_atom_site_fract_y
_atom_site_fract_z
_atom_type_partial_charge
C0 C 0.00401 0.9341 0.49067 0.0
C1 C 0.01624 0.88365 0.48799 0.0
N2 N 0.0367 0.87681 0.43713 0.0
N3 N 0.01709 0.95854 0.44163 0.0
C4 C 0.03675 0.92246 0.40989 0.0
H5 H 0.98524 0.95164 0.52613 0.0
Co6 Co 0.00474 0.02639 0.42141 0.0
C7 C 0.10443 0.05303 0.34222 0.0
O8 O 0.09871 0.09232 0.36542 0.0
N9 N -0.00861 0.09547 0.39948 0.0
C10 C 0.97161 0.17727 0.3924 0.0
C11 C 0.98488 0.13624 0.42272 0.0
C12 C 0.98371 0.11383 0.3539 0.0
N13 N 0.96767 0.16346 0.34985 0.0
O14 O 0.96837 0.01345 0.38157 0.0
H15 H -0.00935 0.13754 0.4586 0.0
H16 H -0.00743 0.09068 0.32362 0.0
O17 O 0.07036 0.02278 0.36113 0.0
C18 C 0.92054 0.01349 0.41018 0.0
O19 O 0.90656 0.01191 0.46114 0.0
N20 N 0.03408 0.03885 0.46665 0.0
C21 C 0.05633 0.06231 0.54778 0.0
C22 C 0.09644 0.04236 0.50514 0.0
C23 C 0.08427 0.02992 0.46489 0.0
C24 C -0.00538 0.05355 0.51027 0.0
C25 C 0.00492 0.06727 0.55055 0.0
H26 H 0.11481 0.01306 0.43299 0.0
H27 H 0.95476 0.05684 0.51242 0.0
H28 H 0.04904 0.92934 0.36762 0.0
H29 H 0.00902 0.8543 0.52054 0.0
H30 H 0.96762 0.21479 0.4009 0.0
H31 H 0.13644 0.03645 0.50321 0.0
H32 H 0.97309 0.08134 0.5837 0.0
C33 C 0.1245 0.99614 0.88623 0.0
C34 C 0.07593 0.99496 0.92472 0.0
N35 N 0.05732 0.04149 0.93671 0.0
N36 N 0.13614 0.0432 0.87448 0.0
C37 C 0.09403 0.07012 0.90559 0.0
H38 H 0.15011 0.96464 0.86854 0.0
Co39 Co 0.19867 0.06337 0.82784 0.0
C40 C 0.19168 0.16881 0.84425 0.0
O41 O 0.21594 0.18239 0.79428 0.0
N42 N 0.2628 0.08386 0.77989 0.0
C43 C 0.32868 0.10934 0.70867 0.0
C44 C 0.27676 0.10309 0.72856 0.0
C45 C 0.30686 0.07997 0.79007 0.0
N46 N 0.34705 0.09438 0.74769 0.0
O47 O 0.22924 0.03243 0.87796 0.0
H48 H 0.25146 0.11197 0.70611 0.0
H49 H 0.31055 0.06547 0.82751 0.0
O50 O 0.18192 0.12409 0.85888 0.0
C51 C 0.25037 0.98787 0.87211 0.0
O52 O 0.26036 0.97268 0.82668 0.0
N53 N 0.16703 0.08794 0.7801 0.0
C54 C 0.11956 0.1001 0.70734 0.0
C55 C 0.10716 0.1358 0.74168 0.0
C56 C 0.13142 0.12877 0.77862 0.0
C57 C 0.17817 0.05268 0.74772 0.0
C58 C 0.15561 0.05847 0.71028 0.0
H59 H 0.11996 0.15472 0.80696 0.0
H60 H 0.2048 0.01966 0.75149 0.0
H61 H 0.09009 0.10979 0.90603 0.0
H62 H 0.05596 0.96258 0.94287 0.0
H63 H 0.35146 0.12209 0.66866 0.0
H64 H 0.0781 0.16755 0.74093 0.0
H65 H 0.16496 0.0299 0.68483 0.0
C66 C 0.36875 0.05433 0.10468 0.0
C67 C 0.33314 0.06001 0.15423 0.0
N68 N 0.29198 0.0373 0.16113 0.0
N69 N 0.3508 0.02684 0.08118 0.0
C70 C 0.30349 0.01775 0.1164 0.0
H71 H 0.40479 0.07021 0.08645 0.0
Co72 Co 0.38153 0.01002 0.01254 0.0
C73 C 0.36725 0.90177 0.04246 0.0
O74 O 0.417 0.88694 0.03277 0.0
N75 N 0.4107 0.99503 0.94328 0.0
C76 C 0.4477 0.96289 0.86807 0.0
C77 C 0.42508 0.95234 0.92143 0.0
C78 C 0.42448 0.0307 0.90229 0.0
N79 N 0.4486 0.01249 0.85571 0.0
O80 O 0.31996 0.04182 0.00055 0.0
H81 H 0.41906 0.91569 0.94186 0.0
H82 H 0.41605 0.06964 0.90706 0.0
O83 O 0.35175 0.94812 0.03634 0.0
C84 C 0.31862 0.08881 0.99445 0.0
O85 O 0.35969 0.1071 0.99225 0.0
N86 N 0.44391 0.98258 0.02413 0.0
C87 C 0.53024 0.98047 0.05029 0.0
C88 C 0.48664 0.95974 0.08667 0.0
C89 C 0.44385 0.96025 0.07235 0.0
C90 C 0.48867 0.99788 0.98702 0.0
C91 C 0.53303 0.99535 -0.00119 0.0
H92 H 0.40865 0.94808 0.10198 0.0
H93 H 0.48934 0.0176 0.94977 0.0
H94 H 0.2772 0.99844 0.109 0.0
H95 H 0.33589 0.0813 0.182 0.0
H96 H 0.45986 0.9357 0.84091 0.0
H97 H 0.48381 0.9478 0.12689 0.0
H98 H 0.56637 0.01187 0.97019 0.0
C99 C 0.15127 0.32978 0.08004 0.0
C100 C 0.19209 0.29155 0.06923 0.0
N101 N 0.17477 0.25241 0.06101 0.0
N102 N 0.10919 0.31454 0.07754 0.0
C103 C 0.12476 0.26705 0.06714 0.0
H104 H 0.15334 0.36703 0.08559 0.0
Co105 Co 0.04543 0.34627 0.07495 0.0
C106 C 0.04884 0.31031 0.97574 0.0
O107 O 0.01278 0.34224 0.96378 0.0
N108 N 0.97999 0.37538 0.0713 0.0
C109 C 0.9014 0.41918 0.08599 0.0
C110 C 0.95337 0.42163 0.07556 0.0
C111 C 0.9438 0.34638 0.07706 0.0
N112 N 0.89583 0.37141 0.08786 0.0
O113 O 0.01443 0.29238 0.12417 0.0
H114 H 0.96892 0.45441 0.07619 0.0
H115 H 0.95144 0.30636 0.07857 0.0
O116 O 0.05897 0.31235 0.01609 0.0
C117 C 0.98615 0.30472 0.16936 0.0
O118 O 0.97196 0.35223 0.17413 0.0
N119 N 0.07773 0.39988 0.03239 0.0
C120 C 0.14597 0.47061 -0.00058 0.0
C121 C 0.15225 0.43433 0.96738 0.0
C122 C 0.11748 0.39871 0.98487 0.0
C123 C 0.07014 0.43647 0.06237 0.0
C124 C 0.1032 0.47272 0.0462 0.0
H125 H 0.12603 0.36773 0.96291 0.0
H126 H 0.04135 0.43455 0.10156 0.0
H127 H 0.10067 0.24404 0.061 0.0
H128 H 0.23195 0.29336 0.06449 0.0
H129 H 0.86969 0.44896 0.09682 0.0
H130 H 0.18566 0.43138 0.93146 0.0
H131 H 0.09794 0.49983 0.07215 0.0
C132 C 0.70929 0.16971 0.21505 0.0
C133 C 0.71209 0.22018 0.20282 0.0
N134 N 0.7623 0.2264 0.17621 0.0
N135 N 0.75758 0.1449 0.19606 0.0
C136 C 0.78902 0.18058 0.17303 0.0
H137 H 0.67444 0.15221 0.23651 0.0
Co138 Co 0.77747 0.0768 0.20051 0.0
C139 C 0.85995 0.05832 0.09868 0.0
O140 O 0.83843 0.01984 0.0986 0.0
N141 N 0.79944 0.00675 0.20538 0.0
C142 C 0.81378 0.92464 0.2026 0.0
C143 C 0.77896 0.96692 0.20238 0.0
C144 C 0.84647 0.98682 0.20831 0.0
N145 N 0.85598 0.93737 0.20671 0.0
O146 O 0.81589 0.08254 0.24123 0.0
H147 H 0.74229 0.96756 0.19795 0.0
H148 H 0.87462 0.00833 0.20938 0.0
O149 O 0.83834 0.08562 0.13577 0.0
C150 C 0.78912 0.07572 0.28982 0.0
O151 O 0.73912 0.07283 0.30493 0.0
N152 N 0.73518 0.0717 0.16526 0.0
C153 C 0.66776 0.05058 0.12383 0.0
C154 C 0.70871 0.07756 0.09214 0.0
C155 C 0.74152 0.08922 0.1144 0.0
C156 C 0.69114 0.05227 0.19781 0.0
C157 C 0.65732 0.03992 0.17756 0.0
H158 H 0.77208 0.11157 0.091 0.0
H159 H 0.68454 0.04297 0.23916 0.0
H160 H 0.83091 0.17337 0.15487 0.0
H161 H 0.68018 0.24986 0.21299 0.0
H162 H 0.80897 0.88754 0.19907 0.0
H163 H 0.71542 0.08877 0.05092 0.0
H164 H 0.62434 0.02109 0.20312 0.0
C165 C 0.13688 0.75575 0.04458 0.0
C166 C 0.15655 0.78877 0.00022 0.0
N167 N 0.17189 0.82572 0.01441 0.0
N168 N 0.14049 0.77205 0.08594 0.0
C169 C 0.16112 0.81511 0.06617 0.0
H170 H 0.12265 0.7214 0.04615 0.0
Co171 Co 0.12825 0.7436 0.1551 0.0
C172 C 0.22335 0.7661 0.17039 0.0
O173 O 0.2258 0.73205 0.20937 0.0
N174 N 0.11649 0.7176 0.22567 0.0
C175 C 0.09705 0.67699 0.30666 0.0
C176 C 0.10962 0.67242 0.25429 0.0
C177 C 0.10857 0.7483 0.26144 0.0
N178 N 0.0961 0.72508 0.3104 0.0
O179 O 0.0846 0.80271 0.17756 0.0
H180 H 0.11198 0.63841 0.23901 0.0
H181 H 0.11091 0.78781 0.25218 0.0
O182 O 0.18765 0.7699 0.15178 0.0
C183 C 0.03804 0.80022 0.1828 0.0
O184 O 0.02739 0.75976 0.17223 0.0
N185 N 0.16755 0.68499 0.13085 0.0
C186 C 0.20318 0.60977 0.06683 0.0
C187 C 0.23691 0.64264 0.06443 0.0
C188 C 0.21812 0.68051 0.097 0.0
C189 C 0.13549 0.65163 0.13512 0.0
C190 C 0.15277 0.61324 0.10408 0.0
H191 H 0.24252 0.70881 0.09083 0.0
H192 H 0.09473 0.65773 0.15918 0.0
H193 H 0.16923 0.83821 0.08904 0.0
H194 H 0.16042 0.7854 0.96067 0.0
H195 H 0.0875 0.64794 0.33937 0.0
H196 H 0.27581 0.64123 0.03525 0.0
H197 H 0.12566 0.58876 0.10621 0.0
C198 C 0.96452 0.28121 0.26647 0.0
C199 C 0.97274 0.26722 0.21685 0.0
C200 C 0.95966 0.18168 0.25944 0.0
C201 C 0.95502 0.19691 0.30766 0.0
N202 N 0.91093 0.26579 0.35685 0.0
N203 N 0.95739 0.20774 0.17173 0.0
C204 C 0.94377 0.24825 0.31142 0.0
C205 C 0.96459 0.21824 0.21457 0.0
N206 N 0.97953 0.32375 0.27168 0.0
N207 N 0.9543 0.13416 0.25742 0.0
H208 H 0.95535 0.23463 0.1408 0.0
H209 H 0.94754 0.17397 0.16915 0.0
H210 H 0.93446 0.11181 0.29083 0.0
H211 H 0.96627 0.11845 0.22268 0.0
H212 H 0.97469 0.33269 0.30833 0.0
H213 H 0.00343 0.34557 0.24042 0.0
H214 H 0.90013 0.30378 0.35966 0.0
H215 H 0.89003 0.2421 0.38868 0.0
C216 C 0.82886 0.00831 0.34093 0.0
C217 C 0.81585 0.0598 0.32743 0.0
C218 C 0.85856 0.07898 0.38222 0.0
C219 C 0.88084 0.02839 0.38595 0.0
N220 N 0.88961 0.94473 0.3667 0.0
N221 N 0.81961 0.14506 0.333 0.0
C222 C 0.86657 0.99288 0.36486 0.0
C223 C 0.83074 0.09553 0.34773 0.0
N224 N 0.80404 0.97419 0.33264 0.0
N225 N 0.86352 0.11105 0.4117 0.0
H226 H 0.79766 0.15838 0.30913 0.0
H227 H 0.83511 0.17262 0.34152 0.0
H228 H 0.88322 0.10041 0.43785 0.0
H229 H 0.84428 0.14716 0.41362 0.0
H230 H 0.80716 0.93711 0.34868 0.0
H231 H 0.77586 0.98382 0.31537 0.0
H232 H 0.88468 0.91869 0.3466 0.0
H233 H 0.91637 0.93176 0.38543 0.0
C234 C 0.10274 0.80884 0.39819 0.0
C235 C 0.05016 0.83049 0.41552 0.0
C236 C 0.02632 0.76783 0.37941 0.0
C237 C 0.0798 0.75067 0.35579 0.0
N238 N 0.169 0.75096 0.34389 0.0
N239 N 0.9612 0.83204 0.42448 0.0
C240 C 0.11799 0.76949 0.36654 0.0
C241 C 0.0115 0.80971 0.40753 0.0
N242 N 0.13775 0.82686 0.41154 0.0
N243 N -0.00982 0.74462 0.37344 0.0
H244 H 0.94944 0.86217 0.44602 0.0
H245 H 0.93151 0.82251 0.41553 0.0
H246 H 0.00051 0.71433 0.35233 0.0
H247 H 0.95021 0.75274 0.39208 0.0
H248 H 0.17643 0.81146 0.40301 0.0
H249 H 0.12699 0.85624 0.43404 0.0
H250 H 0.20012 0.76551 0.3453 0.0
H251 H 0.1801 0.72074 0.32245 0.0
C252 C 0.21001 0.08528 0.21145 0.0
C253 C 0.24292 0.03954 0.20432 0.0
C254 C 0.18364 1.00035 0.28648 0.0
C255 C 0.14972 0.04597 0.29279 0.0
N256 N 0.12414 0.12755 0.25439 0.0
N257 N 0.25787 0.9516 0.22909 0.0
C258 C 0.16116 0.08728 0.25329 0.0
C259 C 0.22836 0.99635 0.23979 0.0
N260 N 0.22555 0.12693 0.17801 0.0
N261 N 0.1753 0.96197 0.32627 0.0
H262 H 0.29269 0.94804 0.19722 0.0
H263 H 0.2462 0.91771 0.24962 0.0
H264 H 0.14387 0.96325 0.36147 0.0
H265 H 0.20169 0.93 0.32628 0.0
H266 H 0.20736 0.16271 0.18544 0.0
H267 H 0.258 0.126 0.14352 0.0
H268 H 0.1286 0.15752 0.22501 0.0
H269 H 0.08658 0.12903 0.28221 0.0
C270 C 0.17332 0.91602 0.99144 0.0
C271 C 0.19742 0.86719 0.982 0.0
C272 C 0.27169 0.90091 0.91131 0.0
C273 C 0.24482 0.94949 0.91862 0.0
N274 N 0.18795 1.00094 0.98449 0.0
N275 N 0.27624 0.81298 0.94508 0.0
C276 C 0.20138 0.9565 0.96494 0.0
C277 C 0.24899 0.85944 0.94561 0.0
N278 N 0.12266 0.92395 0.02361 0.0
N279 N 0.31847 0.89493 0.87133 0.0
H280 H 0.26056 0.78255 0.97076 0.0
H281 H 0.31536 0.80526 0.92236 0.0
H282 H 0.33754 0.92532 0.84945 0.0
H283 H 0.33782 0.8606 0.85973 0.0
H284 H 0.10221 0.95943 0.02828 0.0
H285 H 0.09993 0.89504 0.04081 0.0
H286 H 0.15921 0.0058 0.02101 0.0
H287 H 0.21095 0.02974 0.96829 0.0
C288 C 0.44728 0.0933 0.80063 0.0
C289 C 0.45957 0.04113 0.80428 0.0
C290 C 0.42871 0.03931 0.73429 0.0
C291 C 0.39962 0.08622 0.74569 0.0
N292 N 0.38991 0.16355 0.77806 0.0
N293 N 0.49783 0.9773 0.74795 0.0
C294 C 0.41353 0.11594 0.77345 0.0
C295 C 0.46256 0.01813 0.76175 0.0
N296 N 0.467 0.11978 0.82402 0.0
N297 N 0.41977 0.01347 0.70179 0.0
H298 H 0.52454 0.96432 0.76683 0.0
H299 H 0.50385 0.96022 0.71526 0.0
H300 H 0.39555 0.02916 0.68078 0.0
H301 H 0.43536 0.9766 0.69685 0.0
H302 H 0.46127 0.15844 0.82107 0.0
H303 H 0.49268 0.10205 0.84288 0.0
H304 H 0.39417 0.18592 0.80225 0.0
H305 H 0.36494 0.17972 0.75791 0.0
C306 C 0.13281 0.19125 0.93367 0.0
C307 C 0.16419 0.20676 0.88146 0.0
C308 C 0.12095 0.29219 0.89115 0.0
C309 C 0.08417 0.27464 0.93995 0.0
N310 N 0.05148 0.20631 0.00522 0.0
N311 N 0.20594 0.27532 0.82442 0.0
C312 C 0.08924 0.22382 0.96056 0.0
C313 C 0.16335 0.25833 0.86363 0.0
N314 N 0.14758 0.14736 0.9592 0.0
N315 N 0.11562 0.34107 0.87106 0.0
H316 H 0.24082 0.25222 0.80996 0.0
H317 H 0.20985 0.31277 0.81195 0.0
H318 H 0.08704 0.36777 0.89094 0.0
H319 H 0.13733 0.35469 0.83299 0.0
H320 H 0.12865 0.13612 -0.00117 0.0
H321 H 0.18328 0.126 0.94283 0.0
H322 H 0.05064 0.16863 0.01907 0.0
H323 H 0.01833 0.22899 0.02559 0.0
C324 C 0.95506 0.07046 0.06591 0.0
C325 C 0.90956 0.06845 0.05513 0.0
C326 C 0.96285 0.06351 0.96218 0.0
C327 C 0.00792 0.05709 0.975 0.0
N328 N 0.04966 0.0574 0.03587 0.0
N329 N 0.86892 0.06936 0.99211 0.0
C330 C 0.00475 0.06251 0.02578 0.0
C331 C 0.91315 0.0675 0.00272 0.0
N332 N 0.95117 0.07887 0.11436 0.0
N333 N 0.96824 0.06613 0.91082 0.0
H334 H 0.83182 0.07702 0.01952 0.0
H335 H 0.86848 0.06266 0.95665 0.0
H336 H 0.00461 0.06314 0.88083 0.0
H337 H 0.93751 0.07463 0.8971 0.0
H338 H 0.98224 0.08573 0.12293 0.0
H339 H 0.91638 0.08255 0.14592 0.0
H340 H 0.05131 0.05433 0.07308 0.0
H341 H 0.08618 0.05414 0.00636 0.0
C342 C 0.27558 0.1703 0.96736 0.0
C343 C 0.27036 0.12376 -0.001 0.0
C344 C 0.19402 0.16078 0.06629 0.0
C345 C 0.20461 0.20838 0.03846 0.0
N346 N 0.2394 0.25666 0.95473 0.0
N347 N 0.21183 0.07121 0.06524 0.0
C348 C 0.24046 0.21264 0.98628 0.0
C349 C 0.22504 0.11769 0.04412 0.0
N350 N 0.31535 0.17373 0.92 0.0
N351 N 0.15539 0.15717 0.11441 0.0
H352 H 0.23167 0.03976 0.04719 0.0
H353 H 0.17806 0.06401 0.0968 0.0
H354 H 0.13337 0.18818 0.13225 0.0
H355 H 0.1469 0.12386 0.13827 0.0
H356 H 0.3256 0.20719 0.89724 0.0
H357 H 0.33881 0.14221 0.90409 0.0
H358 H 0.2615 0.26133 0.91493 0.0
H359 H 0.21257 0.28758 0.96742 0.0
C360 C 0.2756 0.88215 0.09445 0.0
C361 C 0.32867 0.8653 0.06791 0.0
C362 C 0.314 0.78055 0.11135 0.0
C363 C 0.2634 0.79969 0.1433 0.0
N364 N 0.19978 0.87019 0.1722 0.0
N365 N 0.38954 0.79534 0.03296 0.0
C366 C 0.24564 0.85106 0.13711 0.0
C367 C 0.34587 0.81343 0.07151 0.0
N368 N 0.25193 0.92483 0.07517 0.0
N369 N 0.33141 0.73113 0.11887 0.0
H370 H 0.40866 0.81782 -0.00095 0.0
H371 H 0.4028 0.75775 0.03056 0.0
H372 H 0.30859 0.70566 0.14619 0.0
H373 H 0.36969 0.71573 0.10089 0.0
H374 H 0.21215 0.93654 0.09126 0.0
H375 H 0.26982 0.94377 0.03835 0.0
H376 H 0.18739 0.90825 0.17192 0.0
H377 H 0.17721 0.84832 0.20469 0.0
C378 C 0.79358 0.29325 0.10496 0.0
C379 C 0.78477 0.27207 0.15744 0.0
C380 C 0.83429 0.33131 0.16772 0.0
C381 C 0.84957 0.34743 0.1132 0.0
N382 N 0.8438 0.34648 0.02967 0.0
N383 N 0.79603 0.26887 0.23936 0.0
C384 C 0.82826 0.32982 0.08193 0.0
C385 C 0.80417 0.29121 0.18932 0.0
N386 N 0.76951 0.27723 0.0773 0.0
N387 N 0.84964 0.35393 0.19834 0.0
H388 H 0.77256 0.24049 0.25642 0.0
H389 H 0.81428 0.27646 0.26308 0.0
H390 H 0.87175 0.38336 0.1834 0.0
H391 H 0.83713 0.34655 0.23896 0.0
H392 H 0.77124 0.2929 0.0398 0.0
H393 H 0.74483 0.24973 0.09361 0.0
H394 H 0.83418 0.33218 0.00282 0.0
H395 H 0.86803 0.37434 0.01295 0.0
C396 C -0.00186 0.88814 0.16964 0.0
C397 C -0.00457 0.84111 0.20008 0.0
C398 C 0.90164 0.86362 0.24432 0.0
C399 C 0.90323 0.90547 0.20587 0.0
N400 N 0.95269 0.95186 0.12561 0.0
N401 N 0.94617 0.78533 0.27115 0.0
C402 C 0.9515 0.91672 0.16728 0.0
C403 C 0.94754 0.82944 0.23928 0.0
N404 N 0.04474 0.90579 0.14293 0.0
N405 N 0.85657 0.85713 0.28587 0.0
H406 H 0.97995 0.7619 0.27139 0.0
H407 H 0.91198 0.77139 0.29623 0.0
H408 H 0.82225 0.88116 0.29015 0.0
H409 H 0.85394 0.8303 0.31803 0.0
H410 H 0.04735 0.94224 0.12474 0.0
H411 H 0.07993 0.88668 0.14446 0.0
H412 H 0.98673 0.95813 0.0938 0.0
H413 H 0.919 0.97004 0.11974 0.0
C414 C 0.11115 0.12835 0.62001 0.0
C415 C 0.09237 0.10209 0.67079 0.0
C416 C 0.04922 0.05067 0.64145 0.0
C417 C 0.06745 0.07712 0.59051 0.0
N418 N 0.10342 0.14933 0.53452 0.0
N419 N 0.03171 0.04968 0.73389 0.0
C420 C 0.09453 0.11871 0.58074 0.0
C421 C 0.05695 0.06734 0.68283 0.0
N422 N 0.1466 0.16065 0.60881 0.0
N423 N 0.02751 0.00795 0.64966 0.0
H424 H 0.037 0.06158 0.76493 0.0
H425 H 0.002 0.02744 0.74554 0.0
H426 H 0.02299 0.99317 0.61988 0.0
H427 H 0.01843 0.98461 0.68496 0.0
H428 H 0.16658 0.17627 0.57095 0.0
H429 H 0.15799 0.16987 0.63734 0.0
H430 H 0.11863 0.18276 0.52729 0.0
H431 H 0.09128 0.14359 0.50504 0.0
C432 C 0.59016 0.06539 0.09803 0.0
C433 C 0.63481 0.03369 0.10152 0.0
C434 C 0.60965 0.96557 0.0745 0.0
C435 C 0.56642 0.99813 0.06831 0.0
N436 N 0.51888 0.0809 0.06637 0.0
N437 N 0.69207 0.9566 0.08741 0.0
C438 C 0.55766 0.04863 0.07776 0.0
C439 C 0.6461 0.98455 0.08803 0.0
N440 N 0.57791 0.11089 0.11584 0.0
N441 N 0.61519 0.91654 0.06824 0.0
H442 H 0.71932 0.96926 0.09783 0.0
H443 H 0.70512 0.92234 0.07313 0.0
H444 H 0.58985 0.90197 0.05675 0.0
H445 H 0.64275 0.88959 0.07747 0.0
H446 H 0.54237 0.13302 0.12088 0.0
H447 H 0.60193 0.12539 0.12914 0.0
H448 H 0.51502 0.11923 0.06588 0.0
H449 H 0.49241 0.07014 0.05359 0.0
C450 C 0.195 0.58998 0.98702 0.0
C451 C 0.21611 0.57534 0.02721 0.0
C452 C 0.22035 0.48818 0.01805 0.0
C453 C 0.18616 0.50306 0.98983 0.0
N454 N 0.14879 0.56593 0.93811 0.0
N455 N 0.25825 0.51219 0.07459 0.0
C456 C 0.17738 0.55341 0.96991 0.0
C457 C 0.23327 0.52479 0.0395 0.0
N458 N 0.18964 0.63903 0.96775 0.0
N459 N 0.2377 0.43893 0.02632 0.0
H460 H 0.26914 0.53907 0.08914 0.0
H461 H 0.26739 0.47586 0.0898 0.0
H462 H 0.22808 0.41213 0.01057 0.0
H463 H 0.26448 0.42514 0.04472 0.0
H464 H 0.17646 0.65257 0.93692 0.0
H465 H 0.20255 0.66585 0.98042 0.0
H466 H 0.13606 0.60227 0.92601 0.0
H467 H 0.13721 0.53889 0.92441 0.0
loop_
_geom_bond_atom_site_label_1
_geom_bond_atom_site_label_2
_geom_bond_distance
_geom_bond_site_symmetry_2
_ccdc_geom_bond_type
C0 C1 1.351 . S
C0 N3 1.368 1_655 S
C0 H5 0.931 . S
C1 C0 1.351 . S
C1 N2 1.373 1_655 S
C1 H29 0.930 . S
N2 C1 1.373 1_455 S
N2 C4 1.340 . S
N3 C0 1.368 1_455 S
N3 C4 1.321 . S
N3 Co6 2.135 1_565 S
C4 N2 1.340 . S
C4 N3 1.321 . S
C4 H28 0.930 . S
H5 C0 0.931 . S
Co6 N3 2.135 1_545 S
Co6 N9 2.121 . S
Co6 O14 2.055 1_455 S
Co6 O17 2.039 1_545 S
Co6 N20 2.140 . S
C7 O8 1.227 . S
C7 O17 1.265 . S
O8 C7 1.227 . S
N9 Co6 2.121 . S
N9 C11 1.375 . S
N9 C12 1.313 1_455 S
C10 C11 1.338 . S
C10 N13 1.377 . S
C10 H30 0.930 . S
C11 N9 1.375 . S
C11 C10 1.338 . S
C11 H15 0.931 . S
C12 N9 1.313 1_655 S
C12 N13 1.344 1_655 S
C12 H16 0.930 . S
N13 C10 1.377 . S
N13 C12 1.344 1_455 S
O14 Co6 2.055 1_655 S
O14 C18 1.253 . S
H15 C11 0.931 . S
H16 C12 0.930 . S
O17 Co6 2.039 1_565 S
O17 C7 1.265 . S
C18 O14 1.253 . S
C18 O19 1.227 . S
O19 C18 1.227 . S
N20 Co6 2.140 . S
N20 C23 1.346 1_545 S
N20 C24 1.345 . S
C21 C22 1.387 1_545 S
C21 C25 1.391 . S
C22 C21 1.387 1_565 S
C22 C23 1.369 . S
C22 H31 0.929 . S
C23 N20 1.346 1_565 S
C23 C22 1.369 . S
C23 H26 0.928 . S
C24 N20 1.345 . S
C24 C25 1.371 . S
C24 H27 0.931 1_455 S
C25 C21 1.391 . S
C25 C24 1.371 . S
C25 H32 0.930 1_455 S
H26 C23 0.928 . S
H27 C24 0.931 1_655 S
H28 C4 0.930 . S
H29 C1 0.930 . S
H30 C10 0.930 . S
H31 C22 0.929 . S
H32 C25 0.930 1_655 S
C33 C34 1.351 . S
C33 N36 1.368 . S
C33 H38 0.931 1_545 S
C34 C33 1.351 . S
C34 N35 1.373 . S
C34 H62 0.930 . S
N35 C34 1.373 . S
N35 C37 1.340 . S
N36 C33 1.368 . S
N36 C37 1.321 . S
N36 Co39 2.135 . S
C37 N35 1.340 . S
C37 N36 1.321 . S
C37 H61 0.930 . S
H38 C33 0.931 1_565 S
Co39 N36 2.135 . S
Co39 N42 2.121 . S
Co39 O47 2.055 . S
Co39 O50 2.039 . S
Co39 N53 2.140 . S
C40 O41 1.227 . S
C40 O50 1.265 . S
O41 C40 1.227 . S
N42 Co39 2.121 . S
N42 C44 1.375 . S
N42 C45 1.313 . S
C43 C44 1.338 . S
C43 N46 1.377 . S
C43 H63 0.930 . S
C44 N42 1.375 . S
C44 C43 1.338 . S
C44 H48 0.931 . S
C45 N42 1.313 . S
C45 N46 1.344 . S
C45 H49 0.930 . S
N46 C43 1.377 . S
N46 C45 1.344 . S
O47 Co39 2.055 . S
O47 C51 1.253 1_545 S
H48 C44 0.931 . S
H49 C45 0.930 . S
O50 Co39 2.039 . S
O50 C40 1.265 . S
C51 O47 1.253 1_565 S
C51 O52 1.227 . S
O52 C51 1.227 . S
N53 Co39 2.140 . S
N53 C56 1.346 . S
N53 C57 1.345 . S
C54 C55 1.387 . S
C54 C58 1.391 . S
C55 C54 1.387 . S
C55 C56 1.369 . S
C55 H64 0.929 . S
C56 N53 1.346 . S
C56 C55 1.369 . S
C56 H59 0.928 . S
C57 N53 1.345 . S
C57 C58 1.371 . S
C57 H60 0.931 . S
C58 C54 1.391 . S
C58 C57 1.371 . S
C58 H65 0.930 . S
H59 C56 0.928 . S
H60 C57 0.931 . S
H61 C37 0.930 . S
H62 C34 0.930 . S
H63 C43 0.930 . S
H64 C55 0.929 . S
H65 C58 0.930 . S
C66 C67 1.351 . S
C66 N69 1.368 . S
C66 H71 0.931 . S
C67 C66 1.351 . S
C67 N68 1.373 . S
C67 H95 0.930 . S
N68 C67 1.373 . S
N68 C70 1.340 1_545 S
N69 C66 1.368 . S
N69 C70 1.321 1_545 S
N69 Co72 2.135 . S
C70 N68 1.340 1_565 S
C70 N69 1.321 1_565 S
C70 H94 0.930 . S
H71 C66 0.931 . S
Co72 N69 2.135 . S
Co72 N75 2.121 1_554 S
Co72 O80 2.055 . S
Co72 O83 2.039 1_545 S
Co72 N86 2.140 . S
C73 O74 1.227 . S
C73 O83 1.265 . S
O74 C73 1.227 . S
N75 Co72 2.121 1_556 S
N75 C77 1.375 1_545 S
N75 C78 1.313 . S
C76 C77 1.338 . S
C76 N79 1.377 1_565 S
C76 H96 0.930 . S
C77 N75 1.375 1_565 S
C77 C76 1.338 . S
C77 H81 0.931 . S
C78 N75 1.313 . S
C78 N79 1.344 . S
C78 H82 0.930 . S
N79 C76 1.377 1_545 S
N79 C78 1.344 . S
O80 Co72 2.055 . S
O80 C84 1.253 . S
H81 C77 0.931 . S
H82 C78 0.930 . S
O83 Co72 2.039 1_565 S
O83 C73 1.265 . S
C84 O80 1.253 . S
C84 O85 1.227 . S
O85 C84 1.227 . S
N86 Co72 2.140 . S
N86 C89 1.346 1_545 S
N86 C90 1.345 1_554 S
C87 C88 1.387 1_545 S
C87 C91 1.391 1_554 S
C88 C87 1.387 1_565 S
C88 C89 1.369 . S
C88 H97 0.929 . S
C89 N86 1.346 1_565 S
C89 C88 1.369 . S
C89 H92 0.928 . S
C90 N86 1.345 1_556 S
C90 C91 1.371 . S
C90 H93 0.931 . S
C91 C87 1.391 1_556 S
C91 C90 1.371 . S
C91 H98 0.930 . S
H92 C89 0.928 . S
H93 C90 0.931 . S
H94 C70 0.930 . S
H95 C67 0.930 . S
H96 C76 0.930 . S
H97 C88 0.929 . S
H98 C91 0.930 . S
C99 C100 1.351 . S
C99 N102 1.368 . S
C99 H104 0.931 . S
C100 C99 1.351 . S
C100 N101 1.373 . S
C100 H128 0.930 . S
N101 C100 1.373 . S
N101 C103 1.340 . S
N102 C99 1.368 . S
N102 C103 1.321 . S
N102 Co105 2.135 . S
C103 N101 1.340 . S
C103 N102 1.321 . S
C103 H127 0.930 1_554 S
H104 C99 0.931 . S
Co105 N102 2.135 . S
Co105 N108 2.121 1_455 S
Co105 O113 2.055 . S
Co105 O116 2.039 1_554 S
Co105 N119 2.140 . S
C106 O107 1.227 . S
C106 O116 1.265 . S
O107 C106 1.227 . S
N108 Co105 2.121 1_655 S
N108 C110 1.375 . S
N108 C111 1.313 . S
C109 C110 1.338 . S
C109 N112 1.377 . S
C109 H129 0.930 . S
C110 N108 1.375 . S
C110 C109 1.338 . S
C110 H114 0.931 1_554 S
C111 N108 1.313 . S
C111 N112 1.344 . S
C111 H115 0.930 . S
N112 C109 1.377 . S
N112 C111 1.344 . S
O113 Co105 2.055 . S
O113 C117 1.253 . S
H114 C110 0.931 1_556 S
H115 C111 0.930 . S
O116 Co105 2.039 1_556 S
O116 C106 1.265 . S
C117 O113 1.253 . S
C117 O118 1.227 . S
O118 C117 1.227 . S
N119 Co105 2.140 . S
N119 C122 1.346 . S
N119 C123 1.345 . S
C120 C121 1.387 . S
C120 C124 1.391 . S
C121 C120 1.387 . S
C121 C122 1.369 . S
C121 H130 0.929 1_554 S
C122 N119 1.346 . S
C122 C121 1.369 . S
C122 H125 0.928 1_554 S
C123 N119 1.345 . S
C123 C124 1.371 . S
C123 H126 0.931 1_455 S
C124 C120 1.391 . S
C124 C123 1.371 . S
C124 H131 0.930 1_455 S
H125 C122 0.928 1_556 S
H126 C123 0.931 1_655 S
H127 C103 0.930 1_556 S
H128 C100 0.930 . S
H129 C109 0.930 . S
H130 C121 0.929 1_556 S
H131 C124 0.930 1_655 S
C132 C133 1.351 . S
C132 N135 1.368 . S
C132 H137 0.931 . S
C133 C132 1.351 . S
C133 N134 1.373 . S
C133 H161 0.930 . S
N134 C133 1.373 . S
N134 C136 1.340 . S
N135 C132 1.368 . S
N135 C136 1.321 . S
N135 Co138 2.135 . S
C136 N134 1.340 . S
C136 N135 1.321 . S
C136 H160 0.930 . S
H137 C132 0.931 . S
Co138 N135 2.135 . S
Co138 N141 2.121 . S
Co138 O146 2.055 . S
Co138 O149 2.039 . S
Co138 N152 2.140 . S
C139 O140 1.227 . S
C139 O149 1.265 . S
O140 C139 1.227 . S
N141 Co138 2.121 . S
N141 C143 1.375 1_545 S
N141 C144 1.313 1_545 S
C142 C143 1.338 . S
C142 N145 1.377 . S
C142 H162 0.930 . S
C143 N141 1.375 1_565 S
C143 C142 1.338 . S
C143 H147 0.931 . S
C144 N141 1.313 1_565 S
C144 N145 1.344 . S
C144 H148 0.930 . S
N145 C142 1.377 . S
N145 C144 1.344 . S
O146 Co138 2.055 . S
O146 C150 1.253 . S
H147 C143 0.931 . S
H148 C144 0.930 . S
O149 Co138 2.039 . S
O149 C139 1.265 . S
C150 O146 1.253 . S
C150 O151 1.227 . S
O151 C150 1.227 . S
N152 Co138 2.140 . S
N152 C155 1.346 . S
N152 C156 1.345 . S
C153 C154 1.387 . S
C153 C157 1.391 . S
C154 C153 1.387 . S
C154 C155 1.369 . S
C154 H163 0.929 . S
C155 N152 1.346 . S
C155 C154 1.369 . S
C155 H158 0.928 . S
C156 N152 1.345 . S
C156 C157 1.371 . S
C156 H159 0.931 . S
C157 C153 1.391 . S
C157 C156 1.371 . S
C157 H164 0.930 . S
H158 C155 0.928 . S
H159 C156 0.931 . S
H160 C136 0.930 . S
H161 C133 0.930 . S
H162 C142 0.930 . S
H163 C154 0.929 . S
H164 C157 0.930 . S
C165 C166 1.351 . S
C165 N168 1.368 . S
C165 H170 0.931 . S
C166 C165 1.351 . S
C166 N167 1.373 1_554 S
C166 H194 0.930 1_554 S
N167 C166 1.373 1_556 S
N167 C169 1.340 1_556 S
N168 C165 1.368 . S
N168 C169 1.321 . S
N168 Co171 2.135 . S
C169 N167 1.340 1_554 S
C169 N168 1.321 . S
C169 H193 0.930 . S
H170 C165 0.931 . S
Co171 N168 2.135 . S
Co171 N174 2.121 . S
Co171 O179 2.055 . S
Co171 O182 2.039 . S
Co171 N185 2.140 . S
C172 O173 1.227 . S
C172 O182 1.265 . S
O173 C172 1.227 . S
N174 Co171 2.121 . S
N174 C176 1.375 . S
N174 C177 1.313 . S
C175 C176 1.338 . S
C175 N178 1.377 . S
C175 H195 0.930 . S
C176 N174 1.375 . S
C176 C175 1.338 . S
C176 H180 0.931 . S
C177 N174 1.313 . S
C177 N178 1.344 . S
C177 H181 0.930 . S
N178 C175 1.377 . S
N178 C177 1.344 . S
O179 Co171 2.055 . S
O179 C183 1.253 . S
H180 C176 0.931 . S
H181 C177 0.930 . S
O182 Co171 2.039 . S
O182 C172 1.265 . S
C183 O179 1.253 . S
C183 O184 1.227 . S
O184 C183 1.227 . S
N185 Co171 2.140 . S
N185 C188 1.346 . S
N185 C189 1.345 . S
C186 C187 1.387 . S
C186 C190 1.391 . S
C187 C186 1.387 . S
C187 C188 1.369 . S
C187 H196 0.929 . S
C188 N185 1.346 . S
C188 C187 1.369 . S
C188 H191 0.928 . S
C189 N185 1.345 . S
C189 C190 1.371 . S
C189 H192 0.931 . S
C190 C186 1.391 . S
C190 C189 1.371 . S
C190 H197 0.930 . S
H191 C188 0.928 . S
H192 C189 0.931 . S
H193 C169 0.930 . S
H194 C166 0.930 1_556 S
H195 C175 0.930 . S
H196 C187 0.929 . S
H197 C190 0.930 . S
C198 C199 1.363 . S
C198 C204 1.379 . S
C198 N206 1.356 . S
C199 C198 1.363 . S
C199 C205 1.363 1_455 S
C200 C201 1.363 . S
C200 C205 1.379 . S
C200 N207 1.356 . S
C201 C200 1.363 . S
C201 C204 1.363 1_655 S
N202 C204 1.356 . S
N202 H214 0.984 . S
N202 H215 0.985 . S
N203 C205 1.356 . S
N203 H208 0.984 . S
N203 H209 0.985 . S
C204 C198 1.379 . S
C204 C201 1.363 1_455 S
C204 N202 1.356 . S
C205 C199 1.363 1_655 S
C205 C200 1.379 . S
C205 N203 1.356 . S
N206 C198 1.356 . S
N206 H212 0.984 . S
N206 H213 0.984 . S
N207 C200 1.356 . S
N207 H210 0.984 . S
N207 H211 0.985 . S
H208 N203 0.984 . S
H209 N203 0.985 . S
H210 N207 0.984 . S
H211 N207 0.985 . S
H212 N206 0.984 . S
H213 N206 0.984 . S
H214 N202 0.984 . S
H215 N202 0.985 . S
C216 C217 1.363 . S
C216 C222 1.379 1_545 S
C216 N224 1.356 1_545 S
C217 C216 1.363 . S
C217 C223 1.363 . S
C218 C219 1.363 . S
C218 C223 1.379 . S
C218 N225 1.356 . S
C219 C218 1.363 . S
C219 C222 1.363 1_545 S
N220 C222 1.356 . S
N220 H232 0.984 . S
N220 H233 0.985 . S
N221 C223 1.356 . S
N221 H226 0.984 . S
N221 H227 0.985 . S
C222 C216 1.379 1_565 S
C222 C219 1.363 1_565 S
C222 N220 1.356 . S
C223 C217 1.363 . S
C223 C218 1.379 . S
C223 N221 1.356 . S
N224 C216 1.356 1_565 S
N224 H230 0.984 . S
N224 H231 0.984 1_565 S
N225 C218 1.356 . S
N225 H228 0.984 . S
N225 H229 0.985 . S
H226 N221 0.984 . S
H227 N221 0.985 . S
H228 N225 0.984 . S
H229 N225 0.985 . S
H230 N224 0.984 . S
H231 N224 0.984 1_545 S
H232 N220 0.984 . S
H233 N220 0.985 . S
C234 C235 1.363 . S
C234 C240 1.379 . S
C234 N242 1.356 . S
C235 C234 1.363 . S
C235 C241 1.363 . S
C236 C237 1.363 . S
C236 C241 1.379 . S
C236 N243 1.356 . S
C237 C236 1.363 . S
C237 C240 1.363 . S
N238 C240 1.356 . S
N238 H250 0.984 . S
N238 H251 0.985 . S
N239 C241 1.356 . S
N239 H244 0.984 . S
N239 H245 0.985 . S
C240 C234 1.379 . S
C240 C237 1.363 . S
C240 N238 1.356 . S
C241 C235 1.363 . S
C241 C236 1.379 . S
C241 N239 1.356 . S
N242 C234 1.356 . S
N242 H248 0.984 . S
N242 H249 0.984 . S
N243 C236 1.356 . S
N243 H246 0.984 . S
N243 H247 0.985 . S
H244 N239 0.984 . S
H245 N239 0.985 . S
H246 N243 0.984 . S
H247 N243 0.985 . S
H248 N242 0.984 . S
H249 N242 0.984 . S
H250 N238 0.984 . S
H251 N238 0.985 . S
C252 C253 1.363 1_545 S
C252 C258 1.379 . S
C252 N260 1.356 . S
C253 C252 1.363 1_565 S
C253 C259 1.363 . S
C254 C255 1.363 . S
C254 C259 1.379 . S
C254 N261 1.356 . S
C255 C254 1.363 . S
C255 C258 1.363 1_565 S
N256 C258 1.356 . S
N256 H268 0.984 . S
N256 H269 0.985 . S
N257 C259 1.356 . S
N257 H262 0.984 . S
N257 H263 0.985 . S
C258 C252 1.379 . S
C258 C255 1.363 1_545 S
C258 N256 1.356 . S
C259 C253 1.363 . S
C259 C254 1.379 . S
C259 N257 1.356 . S
N260 C252 1.356 . S
N260 H266 0.984 . S
N260 H267 0.984 . S
N261 C254 1.356 . S
N261 H264 0.984 . S
N261 H265 0.985 . S
H262 N257 0.984 . S
H263 N257 0.985 . S
H264 N261 0.984 . S
H265 N261 0.985 . S
H266 N260 0.984 . S
H267 N260 0.984 . S
H268 N256 0.984 . S
H269 N256 0.985 . S
C270 C271 1.363 . S
C270 C276 1.379 . S
C270 N278 1.356 1_556 S
C271 C270 1.363 . S
C271 C277 1.363 . S
C272 C273 1.363 . S
C272 C277 1.379 . S
C272 N279 1.356 . S
C273 C272 1.363 . S
C273 C276 1.363 . S
N274 C276 1.356 . S
N274 H286 0.984 1_556 S
N274 H287 0.985 . S
N275 C277 1.356 . S
N275 H280 0.984 . S
N275 H281 0.985 . S
C276 C270 1.379 . S
C276 C273 1.363 . S
C276 N274 1.356 . S
C277 C271 1.363 . S
C277 C272 1.379 . S
C277 N275 1.356 . S
N278 C270 1.356 1_554 S
N278 H284 0.984 . S
N278 H285 0.984 . S
N279 C272 1.356 . S
N279 H282 0.984 . S
N279 H283 0.985 . S
H280 N275 0.984 . S
H281 N275 0.985 . S
H282 N279 0.984 . S
H283 N279 0.985 . S
H284 N278 0.984 . S
H285 N278 0.984 . S
H286 N274 0.984 1_554 S
H287 N274 0.985 . S
C288 C289 1.363 . S
C288 C294 1.379 . S
C288 N296 1.356 . S
C289 C288 1.363 . S
C289 C295 1.363 . S
C290 C291 1.363 . S
C290 C295 1.379 . S
C290 N297 1.356 1_545 S
C291 C290 1.363 . S
C291 C294 1.363 . S
N292 C294 1.356 . S
N292 H304 0.984 . S
N292 H305 0.985 . S
N293 C295 1.356 1_565 S
N293 H298 0.984 . S
N293 H299 0.985 . S
C294 C288 1.379 . S
C294 C291 1.363 . S
C294 N292 1.356 . S
C295 C289 1.363 . S
C295 C290 1.379 . S
C295 N293 1.356 1_545 S
N296 C288 1.356 . S
N296 H302 0.984 . S
N296 H303 0.984 . S
N297 C290 1.356 1_565 S
N297 H300 0.984 1_565 S
N297 H301 0.985 . S
H298 N293 0.984 . S
H299 N293 0.985 . S
H300 N297 0.984 1_545 S
H301 N297 0.985 . S
H302 N296 0.984 . S
H303 N296 0.984 . S
H304 N292 0.984 . S
H305 N292 0.985 . S
C306 C307 1.363 . S
C306 C312 1.379 . S
C306 N314 1.356 . S
C307 C306 1.363 . S
C307 C313 1.363 . S
C308 C309 1.363 . S
C308 C313 1.379 . S
C308 N315 1.356 . S
C309 C308 1.363 . S
C309 C312 1.363 . S
N310 C312 1.356 . S
N310 H322 0.984 . S
N310 H323 0.985 . S
N311 C313 1.356 . S
N311 H316 0.984 . S
N311 H317 0.985 . S
C312 C306 1.379 . S
C312 C309 1.363 . S
C312 N310 1.356 . S
C313 C307 1.363 . S
C313 C308 1.379 . S
C313 N311 1.356 . S
N314 C306 1.356 . S
N314 H320 0.984 . S
N314 H321 0.984 . S
N315 C308 1.356 . S
N315 H318 0.984 . S
N315 H319 0.985 . S
H316 N311 0.984 . S
H317 N311 0.985 . S
H318 N315 0.984 . S
H319 N315 0.985 . S
H320 N314 0.984 . S
H321 N314 0.984 . S
H322 N310 0.984 . S
H323 N310 0.985 . S
C324 C325 1.363 . S
C324 C330 1.379 1_554 S
C324 N332 1.356 . S
C325 C324 1.363 . S
C325 C331 1.363 1_554 S
C326 C327 1.363 . S
C326 C331 1.379 . S
C326 N333 1.356 . S
C327 C326 1.363 . S
C327 C330 1.363 . S
N328 C330 1.356 1_455 S
N328 H340 0.984 . S
N328 H341 0.985 . S
N329 C331 1.356 1_554 S
N329 H334 0.984 . S
N329 H335 0.985 . S
C330 C324 1.379 1_556 S
C330 C327 1.363 . S
C330 N328 1.356 1_655 S
C331 C325 1.363 1_556 S
C331 C326 1.379 . S
C331 N329 1.356 1_556 S
N332 C324 1.356 . S
N332 H338 0.984 . S
N332 H339 0.984 . S
N333 C326 1.356 . S
N333 H336 0.984 . S
N333 H337 0.985 . S
H334 N329 0.984 . S
H335 N329 0.985 . S
H336 N333 0.984 . S
H337 N333 0.985 . S
H338 N332 0.984 . S
H339 N332 0.984 . S
H340 N328 0.984 . S
H341 N328 0.985 . S
C342 C343 1.363 1_556 S
C342 C348 1.379 . S
C342 N350 1.356 . S
C343 C342 1.363 1_554 S
C343 C349 1.363 . S
C344 C345 1.363 . S
C344 C349 1.379 . S
C344 N351 1.356 . S
C345 C344 1.363 . S
C345 C348 1.363 1_554 S
N346 C348 1.356 . S
N346 H358 0.984 . S
N346 H359 0.985 . S
N347 C349 1.356 . S
N347 H352 0.984 . S
N347 H353 0.985 . S
C348 C342 1.379 . S
C348 C345 1.363 1_556 S
C348 N346 1.356 . S
C349 C343 1.363 . S
C349 C344 1.379 . S
C349 N347 1.356 . S
N350 C342 1.356 . S
N350 H356 0.984 . S
N350 H357 0.984 . S
N351 C344 1.356 . S
N351 H354 0.984 . S
N351 H355 0.985 . S
H352 N347 0.984 . S
H353 N347 0.985 . S
H354 N351 0.984 . S
H355 N351 0.985 . S
H356 N350 0.984 . S
H357 N350 0.984 . S
H358 N346 0.984 . S
H359 N346 0.985 . S
C360 C361 1.363 . S
C360 C366 1.379 . S
C360 N368 1.356 . S
C361 C360 1.363 . S
C361 C367 1.363 . S
C362 C363 1.363 . S
C362 C367 1.379 . S
C362 N369 1.356 . S
C363 C362 1.363 . S
C363 C366 1.363 . S
N364 C366 1.356 . S
N364 H376 0.984 . S
N364 H377 0.985 . S
N365 C367 1.356 . S
N365 H370 0.984 1_554 S
N365 H371 0.985 1_554 S
C366 C360 1.379 . S
C366 C363 1.363 . S
C366 N364 1.356 . S
C367 C361 1.363 . S
C367 C362 1.379 . S
C367 N365 1.356 . S
N368 C360 1.356 . S
N368 H374 0.984 . S
N368 H375 0.984 . S
N369 C362 1.356 . S
N369 H372 0.984 . S
N369 H373 0.985 . S
H370 N365 0.984 1_556 S
H371 N365 0.985 1_556 S
H372 N369 0.984 . S
H373 N369 0.985 . S
H374 N368 0.984 . S
H375 N368 0.984 . S
H376 N364 0.984 . S
H377 N364 0.985 . S
C378 C379 1.363 . S
C378 C384 1.379 . S
C378 N386 1.356 . S
C379 C378 1.363 . S
C379 C385 1.363 . S
C380 C381 1.363 . S
C380 C385 1.379 . S
C380 N387 1.356 . S
C381 C380 1.363 . S
C381 C384 1.363 . S
N382 C384 1.356 . S
N382 H394 0.984 . S
N382 H395 0.985 . S
N383 C385 1.356 . S
N383 H388 0.984 . S
N383 H389 0.985 . S
C384 C378 1.379 . S
C384 C381 1.363 . S
C384 N382 1.356 . S
C385 C379 1.363 . S
C385 C380 1.379 . S
C385 N383 1.356 . S
N386 C378 1.356 . S
N386 H392 0.984 . S
N386 H393 0.984 . S
N387 C380 1.356 . S
N387 H390 0.984 . S
N387 H391 0.985 . S
H388 N383 0.984 . S
H389 N383 0.985 . S
H390 N387 0.984 . S
H391 N387 0.985 . S
H392 N386 0.984 . S
H393 N386 0.984 . S
H394 N382 0.984 . S
H395 N382 0.985 . S
C396 C397 1.363 . S
C396 C402 1.379 . S
C396 N404 1.356 1_655 S
C397 C396 1.363 . S
C397 C403 1.363 . S
C398 C399 1.363 . S
C398 C403 1.379 . S
C398 N405 1.356 . S
C399 C398 1.363 . S
C399 C402 1.363 . S
N400 C402 1.356 . S
N400 H412 0.984 . S
N400 H413 0.985 . S
N401 C403 1.356 . S
N401 H406 0.984 1_655 S
N401 H407 0.985 . S
C402 C396 1.379 . S
C402 C399 1.363 . S
C402 N400 1.356 . S
C403 C397 1.363 . S
C403 C398 1.379 . S
C403 N401 1.356 . S
N404 C396 1.356 1_455 S
N404 H410 0.984 . S
N404 H411 0.984 . S
N405 C398 1.356 . S
N405 H408 0.984 . S
N405 H409 0.985 . S
H406 N401 0.984 1_455 S
H407 N401 0.985 . S
H408 N405 0.984 . S
H409 N405 0.985 . S
H410 N404 0.984 . S
H411 N404 0.984 . S
H412 N400 0.984 . S
H413 N400 0.985 . S
C414 C415 1.363 . S
C414 C420 1.379 . S
C414 N422 1.356 . S
C415 C414 1.363 . S
C415 C421 1.363 . S
C416 C417 1.363 1_565 S
C416 C421 1.379 1_565 S
C416 N423 1.356 . S
C417 C416 1.363 1_545 S
C417 C420 1.363 . S
N418 C420 1.356 . S
N418 H430 0.984 . S
N418 H431 0.985 . S
N419 C421 1.356 1_565 S
N419 H424 0.984 1_565 S
N419 H425 0.985 . S
C420 C414 1.379 . S
C420 C417 1.363 . S
C420 N418 1.356 . S
C421 C415 1.363 . S
C421 C416 1.379 1_545 S
C421 N419 1.356 1_545 S
N422 C414 1.356 . S
N422 H428 0.984 . S
N422 H429 0.984 . S
N423 C416 1.356 . S
N423 H426 0.984 . S
N423 H427 0.985 . S
H424 N419 0.984 1_545 S
H425 N419 0.985 . S
H426 N423 0.984 . S
H427 N423 0.985 . S
H428 N422 0.984 . S
H429 N422 0.984 . S
H430 N418 0.984 . S
H431 N418 0.985 . S
C432 C433 1.363 . S
C432 C438 1.379 . S
C432 N440 1.356 . S
C433 C432 1.363 . S
C433 C439 1.363 . S
C434 C435 1.363 1_565 S
C434 C439 1.379 1_565 S
C434 N441 1.356 . S
C435 C434 1.363 1_545 S
C435 C438 1.363 . S
N436 C438 1.356 . S
N436 H448 0.984 . S
N436 H449 0.985 1_554 S
N437 C439 1.356 1_565 S
N437 H442 0.984 1_565 S
N437 H443 0.985 . S
C438 C432 1.379 . S
C438 C435 1.363 . S
C438 N436 1.356 . S
C439 C433 1.363 . S
C439 C434 1.379 1_545 S
C439 N437 1.356 1_545 S
N440 C432 1.356 . S
N440 H446 0.984 . S
N440 H447 0.984 . S
N441 C434 1.356 . S
N441 H444 0.984 . S
N441 H445 0.985 . S
H442 N437 0.984 1_545 S
H443 N437 0.985 . S
H444 N441 0.984 . S
H445 N441 0.985 . S
H446 N440 0.984 . S
H447 N440 0.984 . S
H448 N436 0.984 . S
H449 N436 0.985 1_556 S
C450 C451 1.363 . S
C450 C456 1.379 . S
C450 N458 1.356 . S
C451 C450 1.363 . S
C451 C457 1.363 . S
C452 C453 1.363 . S
C452 C457 1.379 . S
C452 N459 1.356 . S
C453 C452 1.363 . S
C453 C456 1.363 . S
N454 C456 1.356 . S
N454 H466 0.984 . S
N454 H467 0.985 . S
N455 C457 1.356 . S
N455 H460 0.984 . S
N455 H461 0.985 . S
C456 C450 1.379 . S
C456 C453 1.363 . S
C456 N454 1.356 . S
C457 C451 1.363 . S
C457 C452 1.379 . S
C457 N455 1.356 . S
N458 C450 1.356 . S
N458 H464 0.984 . S
N458 H465 0.984 . S
N459 C452 1.356 . S
N459 H462 0.984 . S
N459 H463 0.985 . S
H460 N455 0.984 . S
H461 N455 0.985 . S
H462 N459 0.984 . S
H463 N459 0.985 . S
H464 N458 0.984 . S
H465 N458 0.984 . S
H466 N454 0.984 . S
H467 N454 0.985 . S
C199 C117 1.774 . S
C201 N13 1.485 1_655 S
C217 C150 1.028 . S
C219 C18 1.028 . S
C235 N2 0.949 . S
C237 N178 0.948 . S
C253 N68 1.339 1_565 S
C255 C7 1.594 . S
C271 N167 1.364 . S
C273 C51 1.658 . S
C289 N79 0.995 . S
C291 N46 0.995 . S
C307 C40 1.215 . S
C309 C106 1.194 . S
C325 C139 1.594 . S
C327 N35 1.339 1_655 S
C343 C84 1.658 . S
C345 N101 1.364 . S
C361 C73 1.214 . S
C363 C172 1.193 . S
C379 N134 0.949 . S
C381 N112 0.947 . S
C397 C183 1.774 1_655 S
C399 N145 1.485 . S
C415 C54 1.471 . S
C417 C21 1.472 . S
C433 C153 1.472 . S
C435 C87 1.470 . S
C451 C186 1.485 . S
C453 C120 1.485 . S
