# Generated by pormake.
# Topology whh, (6)-cn, num edge types: 1
# Building blocks:
#     Node 0, Type 0, BuildingBlock: KUMBOL_clean_sbu_1, # of connection points: 6
#     Node 1, Type 0, BuildingBlock: KUMBOL_clean_sbu_1, # of connection points: 6
#     Node 2, Type 0, BuildingBlock: KUMBOL_clean_sbu_1, # of connection points: 6
#     Node 3, Type 0, BuildingBlock: KUMBOL_clean_sbu_1, # of connection points: 6
#     Node 4, Type 0, BuildingBlock: KUMBOL_clean_sbu_1, # of connection points: 6
#     Node 5, Type 0, BuildingBlock: KUMBOL_clean_sbu_1, # of connection points: 6
#     Node 6, Type 0, BuildingBlock: KUMBOL_clean_sbu_1, # of connection points: 6
#     Node 7, Type 0, BuildingBlock: KUMBOL_clean_sbu_1, # of connection points: 6
#     Node 8, Type 0, BuildingBlock: KUMBOL_clean_sbu_1, # of connection points: 6
#     Node 9, Type 0, BuildingBlock: KUMBOL_clean_sbu_1, # of connection points: 6
#     Node 10, Type 0, BuildingBlock: KUMBOL_clean_sbu_1, # of connection points: 6
#     Node 11, Type 0, BuildingBlock: KUMBOL_clean_sbu_1, # of connection points: 6
#     Node 12, Type 0, BuildingBlock: KUMBOL_clean_sbu_1, # of connection points: 6
#     Node 13, Type 0, BuildingBlock: KUMBOL_clean_sbu_1, # of connection points: 6
#     Node 14, Type 0, BuildingBlock: KUMBOL_clean_sbu_1, # of connection points: 6
#     Node 15, Type 0, BuildingBlock: KUMBOL_clean_sbu_1, # of connection points: 6
#     Edge 16, Type (0, 0), BuildingBlock: TEMPAE_clean_linker_10, # of connection points: 2
#     Edge 17, Type (0, 0), BuildingBlock: TEMPAE_clean_linker_10, # of connection points: 2
#     Edge 18, Type (0, 0), BuildingBlock: TEMPAE_clean_linker_10, # of connection points: 2
#     Edge 19, Type (0, 0), BuildingBlock: TEMPAE_clean_linker_10, # of connection points: 2
#     Edge 20, Type (0, 0), BuildingBlock: TEMPAE_clean_linker_10, # of connection points: 2
#     Edge 21, Type (0, 0), BuildingBlock: TEMPAE_clean_linker_10, # of connection points: 2
#     Edge 22, Type (0, 0), BuildingBlock: TEMPAE_clean_linker_10, # of connection points: 2
#     Edge 23, Type (0, 0), BuildingBlock: TEMPAE_clean_linker_10, # of connection points: 2
#     Edge 24, Type (0, 0), BuildingBlock: TEMPAE_clean_linker_10, # of connection points: 2
#     Edge 25, Type (0, 0), BuildingBlock: TEMPAE_clean_linker_10, # of connection points: 2
#     Edge 26, Type (0, 0), BuildingBlock: TEMPAE_clean_linker_10, # of connection points: 2
#     Edge 27, Type (0, 0), BuildingBlock: TEMPAE_clean_linker_10, # of connection points: 2
#     Edge 28, Type (0, 0), BuildingBlock: TEMPAE_clean_linker_10, # of connection points: 2
#     Edge 29, Type (0, 0), BuildingBlock: TEMPAE_clean_linker_10, # of connection points: 2
#     Edge 30, Type (0, 0), BuildingBlock: TEMPAE_clean_linker_10, # of connection points: 2
#     Edge 31, Type (0, 0), BuildingBlock: TEMPAE_clean_linker_10, # of connection points: 2
#     Edge 32, Type (0, 0), BuildingBlock: TEMPAE_clean_linker_10, # of connection points: 2
#     Edge 33, Type (0, 0), BuildingBlock: TEMPAE_clean_linker_10, # of connection points: 2
#     Edge 34, Type (0, 0), BuildingBlock: TEMPAE_clean_linker_10, # of connection points: 2
#     Edge 35, Type (0, 0), BuildingBlock: TEMPAE_clean_linker_10, # of connection points: 2
#     Edge 36, Type (0, 0), BuildingBlock: TEMPAE_clean_linker_10, # of connection points: 2
#     Edge 37, Type (0, 0), BuildingBlock: TEMPAE_clean_linker_10, # of connection points: 2
#     Edge 38, Type (0, 0), BuildingBlock: TEMPAE_clean_linker_10, # of connection points: 2
#     Edge 39, Type (0, 0), BuildingBlock: TEMPAE_clean_linker_10, # of connection points: 2
#     Edge 40, Type (0, 0), BuildingBlock: TEMPAE_clean_linker_10, # of connection points: 2
#     Edge 41, Type (0, 0), BuildingBlock: TEMPAE_clean_linker_10, # of connection points: 2
#     Edge 42, Type (0, 0), BuildingBlock: TEMPAE_clean_linker_10, # of connection points: 2
#     Edge 43, Type (0, 0), BuildingBlock: TEMPAE_clean_linker_10, # of connection points: 2
#     Edge 44, Type (0, 0), BuildingBlock: TEMPAE_clean_linker_10, # of connection points: 2
#     Edge 45, Type (0, 0), BuildingBlock: TEMPAE_clean_linker_10, # of connection points: 2
#     Edge 46, Type (0, 0), BuildingBlock: TEMPAE_clean_linker_10, # of connection points: 2
#     Edge 47, Type (0, 0), BuildingBlock: TEMPAE_clean_linker_10, # of connection points: 2
#     Edge 48, Type (0, 0), BuildingBlock: TEMPAE_clean_linker_10, # of connection points: 2
#     Edge 49, Type (0, 0), BuildingBlock: TEMPAE_clean_linker_10, # of connection points: 2
#     Edge 50, Type (0, 0), BuildingBlock: TEMPAE_clean_linker_10, # of connection points: 2
#     Edge 51, Type (0, 0), BuildingBlock: TEMPAE_clean_linker_10, # of connection points: 2
#     Edge 52, Type (0, 0), BuildingBlock: TEMPAE_clean_linker_10, # of connection points: 2
#     Edge 53, Type (0, 0), BuildingBlock: TEMPAE_clean_linker_10, # of connection points: 2
#     Edge 54, Type (0, 0), BuildingBlock: TEMPAE_clean_linker_10, # of connection points: 2
#     Edge 55, Type (0, 0), BuildingBlock: TEMPAE_clean_linker_10, # of connection points: 2
#     Edge 56, Type (0, 0), BuildingBlock: TEMPAE_clean_linker_10, # of connection points: 2
#     Edge 57, Type (0, 0), BuildingBlock: TEMPAE_clean_linker_10, # of connection points: 2
#     Edge 58, Type (0, 0), BuildingBlock: TEMPAE_clean_linker_10, # of connection points: 2
#     Edge 59, Type (0, 0), BuildingBlock: TEMPAE_clean_linker_10, # of connection points: 2
#     Edge 60, Type (0, 0), BuildingBlock: TEMPAE_clean_linker_10, # of connection points: 2
#     Edge 61, Type (0, 0), BuildingBlock: TEMPAE_clean_linker_10, # of connection points: 2
#     Edge 62, Type (0, 0), BuildingBlock: TEMPAE_clean_linker_10, # of connection points: 2
#     Edge 63, Type (0, 0), BuildingBlock: TEMPAE_clean_linker_10, # of connection points: 2
# Relax obj value: 0.300
# Max RMSD: 0.307
# Mean RMSD: 0.305
data_MOF--net-whh--node1-KUMBOL_clean_sbu_1--edge1-TEMPAE_clean_linker_10
_symmetry_space_group_name_H-M    P1
_symmetry_Int_Tables_number       1
_symmetry_cell_setting            triclinic
loop_
_symmetry_equiv_pos_as_xyz
'x, y, z'
_cell_length_a     46.062394
_cell_length_b     45.919242
_cell_length_c     40.24546
_cell_angle_alpha  90.277388
_cell_angle_beta   90.021322
_cell_angle_gamma 89.944252
loop_
_atom_site_label
_atom_site_type_symbol
_atom_site_fract_x
_atom_site_fract_y
_atom_site_fract_z
_atom_type_partial_charge
C0 C 0.93481 0.68095 0.12305 0.0
C1 C 0.92232 0.68633 0.06494 0.0
C2 C 0.93799 0.67231 0.0904 0.0
C3 C 0.90438 0.7101 0.07285 0.0
C4 C 0.91551 0.70371 0.13139 0.0
C5 C 0.90099 0.7188 0.10604 0.0
N6 N 0.94885 0.66561 0.14686 0.0
C7 C 0.94279 0.67048 0.17962 0.0
C8 C 0.91079 0.71008 0.16498 0.0
C9 C 0.9242 0.69311 0.18922 0.0
Gd10 Gd 0.06806 0.62005 0.11991 0.0
Gd11 Gd 0.97883 0.62705 0.12879 0.0
N12 N 0.95506 0.64897 0.08374 0.0
C13 C 0.92448 0.67541 0.03249 0.0
C14 C 0.95547 0.63696 0.05271 0.0
C15 C 0.94081 0.6503 0.02644 0.0
H16 H 0.96745 0.61727 0.04851 0.0
H17 H 0.94187 0.64104 0.00169 0.0
H18 H 0.07968 0.64214 0.20095 0.0
H19 H 0.95253 0.65695 0.19854 0.0
H20 H 0.09986 0.62155 0.25172 0.0
H21 H 0.9129 0.68562 0.0122 0.0
H22 H 0.8925 0.72143 0.05359 0.0
H23 H 0.08263 0.57175 0.06088 0.0
H24 H 0.89624 0.72748 0.17243 0.0
H25 H 0.92001 0.69723 0.21527 0.0
H26 H 0.13397 0.52704 0.2196 0.0
H27 H 0.8865 0.7367 0.11191 0.0
H28 H 0.12598 0.49915 0.10515 0.0
H29 H 0.10626 0.52365 0.05538 0.0
N30 N 0.0879 0.57372 0.11328 0.0
C31 C 0.09999 0.56155 0.14067 0.0
C32 C 0.09083 0.56101 0.08279 0.0
C33 C 0.11549 0.52017 0.10772 0.0
C34 C 0.10437 0.5339 0.07956 0.0
C35 C 0.11366 0.53409 0.1387 0.0
H36 H 0.13603 0.50055 0.16644 0.0
N37 N 0.0869 0.60398 0.17141 0.0
C38 C 0.09918 0.57689 0.17061 0.0
C39 C 0.11132 0.58069 0.22891 0.0
C40 C 0.1116 0.56456 0.19937 0.0
C41 C 0.08774 0.62021 0.19999 0.0
C42 C 0.09963 0.6087 0.22911 0.0
O43 O 1.00305 0.65224 0.08881 0.0
O44 O 0.04838 0.66337 0.10889 0.0
O45 O 0.11303 0.6338 0.12433 0.0
O46 O 0.09392 0.62652 0.0757 0.0
O47 O 0.99709 0.58957 0.09893 0.0
O48 O 0.03994 0.60636 0.07575 0.0
O49 O 0.04267 0.58164 0.13795 0.0
O50 O 0.00987 0.60845 0.16665 0.0
O51 O 0.94728 0.5934 0.11366 0.0
O52 O 0.94832 0.61009 0.16455 0.0
O53 O 0.05265 0.65674 0.15545 0.0
O54 O 1.00225 0.6562 0.16616 0.0
C55 C 0.0241 0.67105 0.09427 0.0
C56 C 0.01729 0.58868 0.07592 0.0
C57 C 0.13592 0.6568 0.07793 0.0
C58 C 0.17744 0.68942 0.08295 0.0
C59 C 0.15722 0.6786 0.02866 0.0
C60 C 0.13652 0.66059 0.04326 0.0
C61 C 0.17775 0.69279 0.04835 0.0
C62 C 0.1564 0.67161 0.09778 0.0
C63 C 0.11704 0.63414 0.09228 0.0
C64 C 0.12441 0.5368 0.19771 0.0
C65 C 0.12556 0.52168 0.16744 0.0
H66 H 0.12056 0.57194 0.25153 0.0
C67 C 0.0233 0.58375 0.16135 0.0
C68 C 0.02891 0.66642 0.17125 0.0
C69 C 0.9114 0.57392 0.15298 0.0
C70 C 0.86882 0.54418 0.14059 0.0
C71 C 0.88478 0.55046 0.1976 0.0
C72 C 0.90651 0.56922 0.1869 0.0
C73 C 0.8661 0.53783 0.17454 0.0
C74 C 0.89211 0.56158 0.1296 0.0
C75 C 0.93566 0.59311 0.14312 0.0
H76 H 0.15767 0.68116 0.00195 0.0
H77 H 0.12152 0.64897 0.02727 0.0
H78 H 0.19389 0.70646 0.0366 0.0
H79 H 0.15673 0.66856 0.12447 0.0
H80 H 0.88165 0.54668 0.2239 0.0
H81 H 0.91918 0.58075 0.20512 0.0
H82 H 0.84829 0.52459 0.18338 0.0
H83 H 0.89416 0.56675 0.10347 0.0
C84 C 0.82262 0.93934 0.11619 0.0
C85 C 0.81862 0.92881 0.05714 0.0
C86 C 0.83234 0.94338 0.08379 0.0
C87 C 0.79421 0.91136 0.06327 0.0
C88 C 0.79873 0.92098 0.12248 0.0
C89 C 0.78415 0.90765 0.09581 0.0
N90 N 0.83782 0.95152 0.14165 0.0
C91 C 0.83171 0.94448 0.17386 0.0
C92 C 0.79104 0.91541 0.1555 0.0
C93 C 0.80793 0.92678 0.18128 0.0
Gd94 Gd 0.88719 0.06812 0.12143 0.0
Gd95 Gd 0.878 0.97955 0.12604 0.0
N96 N 0.85598 0.96044 0.07842 0.0
C97 C 0.83026 0.93167 0.02517 0.0
C98 C 0.86855 0.96171 0.04772 0.0
C99 C 0.85555 0.94789 0.02054 0.0
H100 H 0.88855 0.97347 0.04421 0.0
H101 H 0.86525 0.94944 0.99612 0.0
H102 H 0.86821 0.08032 0.20219 0.0
H103 H 0.84513 0.95276 0.19385 0.0
H104 H 0.88938 0.10159 0.25245 0.0
H105 H 0.82036 0.92078 0.00409 0.0
H106 H 0.78322 0.90027 0.04305 0.0
H107 H 0.9347 0.08122 0.06151 0.0
H108 H 0.77275 0.90151 0.16132 0.0
H109 H 0.80272 0.92182 0.20686 0.0
H110 H 0.98388 0.13283 0.21833 0.0
H111 H 0.76564 0.89365 0.10017 0.0
H112 H 0.01005 0.12068 0.10399 0.0
H113 H 0.98394 0.10131 0.05491 0.0
N114 N 0.93444 0.08547 0.11389 0.0
C115 C 0.94763 0.09736 0.14089 0.0
C116 C 0.94668 0.08771 0.0832 0.0
C117 C 0.98884 0.11088 0.10708 0.0
C118 C 0.97426 0.09986 0.07935 0.0
C119 C 0.97538 0.11017 0.13825 0.0
H120 H 0.00969 0.13254 0.16489 0.0
N121 N 0.90552 0.08644 0.1723 0.0
C122 C 0.93282 0.0978 0.17095 0.0
C123 C 0.93001 0.11177 0.22888 0.0
C124 C 0.94576 0.11074 0.19922 0.0
C125 C 0.88992 0.08817 0.20104 0.0
C126 C 0.9019 0.10059 0.22972 0.0
O127 O 0.85191 0.00613 0.08887 0.0
O128 O 0.84256 0.05064 0.11242 0.0
O129 O 0.87562 0.11351 0.12892 0.0
O130 O 0.8796 0.0959 0.07901 0.0
O131 O 0.91508 0.99787 0.09699 0.0
O132 O 0.89993 0.04157 0.075 0.0
O133 O 0.92327 0.03951 0.1392 0.0
O134 O 0.89855 0.00455 0.16825 0.0
O135 O 0.91929 0.9571 0.11758 0.0
O136 O 0.88411 0.93494 0.14205 0.0
O137 O 0.85101 0.05274 0.15734 0.0
O138 O 0.85516 1.00261 0.16911 0.0
C139 C 0.83363 0.02702 0.0971 0.0
C140 C 0.91677 0.01814 0.07425 0.0
C141 C 0.84816 0.13669 0.08654 0.0
C142 C 0.81684 0.17893 0.09536 0.0
C143 C 0.81609 0.15316 0.04249 0.0
C144 C 0.8371 0.13388 0.05409 0.0
C145 C 0.8061 0.17561 0.06287 0.0
C146 C 0.83766 0.15923 0.10729 0.0
C147 C 0.87288 0.11851 0.09725 0.0
C148 C 0.97368 0.1228 0.19687 0.0
C149 C 0.98841 0.12259 0.16646 0.0
H150 H 0.93918 0.12148 0.25111 0.0
C151 C 0.92107 0.02173 0.16424 0.0
C152 C 0.84319 0.02871 0.17372 0.0
C153 C 0.93073 0.91432 0.14854 0.0
C154 C 0.95991 0.86988 0.14974 0.0
C155 C 0.95133 0.89759 0.20048 0.0
C156 C 0.9345 0.91761 0.18287 0.0
C157 C 0.96371 0.87376 0.18414 0.0
C158 C 0.94386 0.89068 0.13193 0.0
C159 C 0.91019 0.93275 0.13022 0.0
H160 H 0.80786 0.15098 0.0174 0.0
H161 H 0.8451 0.11717 0.03735 0.0
H162 H 0.78997 0.19054 0.0532 0.0
H163 H 0.84642 0.16218 0.13209 0.0
H164 H 0.95408 0.89988 0.22704 0.0
H165 H 0.92356 0.93503 0.19599 0.0
H166 H 0.97571 0.858 0.19856 0.0
H167 H 0.94008 0.88751 0.10556 0.0
C168 C 0.40702 0.93814 0.08328 0.0
C169 C 0.39762 0.92013 0.02743 0.0
C170 C 0.40898 0.91579 0.05959 0.0
C171 C 0.38396 0.94663 0.01962 0.0
C172 C 0.39375 0.96488 0.07528 0.0
C173 C 0.38202 0.96889 0.04345 0.0
N174 N 0.41923 0.93409 0.11371 0.0
C175 C 0.41782 0.95513 0.13769 0.0
C176 C 0.39277 0.98688 0.09953 0.0
C177 C 0.40481 0.98194 0.13087 0.0
Gd178 Gd 0.52422 0.8818 0.12205 0.0
Gd179 Gd 0.43544 0.8869 0.12379 0.0
N180 N 0.42293 0.89045 0.06754 0.0
C181 C 0.40105 0.898 0.00374 0.0
C182 C 0.42614 0.86876 0.04459 0.0
C183 C 0.41548 0.87233 0.0123 0.0
H184 H 0.43645 0.84851 0.05096 0.0
H185 H 0.41813 0.85513 0.99408 0.0
H186 H 0.53144 0.91627 0.19456 0.0
H187 H 0.4259 0.95093 0.16237 0.0
H188 H 0.56145 0.91341 0.24456 0.0
H189 H 0.39283 0.90061 0.9787 0.0
H190 H 0.37513 0.95029 0.99503 0.0
H191 H 0.54619 0.82732 0.07153 0.0
H192 H 0.38263 0.00767 0.09437 0.0
H193 H 0.40371 0.99862 0.14993 0.0
H194 H 0.61867 0.82724 0.22797 0.0
H195 H 0.37164 0.98926 0.03689 0.0
H196 H 0.60969 0.77717 0.12389 0.0
H197 H 0.5808 0.78624 0.07317 0.0
N198 N 0.55426 0.84039 0.12151 0.0
C199 C 0.57026 0.83603 0.14943 0.0
C200 C 0.55818 0.82312 0.0941 0.0
C201 C 0.59422 0.79495 0.12351 0.0
C202 C 0.57796 0.80002 0.09482 0.0
C203 C 0.59071 0.81319 0.15116 0.0
H204 H 0.62332 0.7923 0.18177 0.0
N205 N 0.54758 0.8773 0.17334 0.0
C206 C 0.56716 0.85528 0.17587 0.0
C207 C 0.58318 0.87407 0.2289 0.0
C208 C 0.58507 0.85274 0.20413 0.0
C209 C 0.54558 0.89801 0.19753 0.0
C210 C 0.56309 0.89665 0.22574 0.0
O211 O 0.46216 0.9218 0.09719 0.0
O212 O 0.49873 0.89423 0.07652 0.0
O213 O 0.55423 0.9199 0.12139 0.0
O214 O 0.55937 0.88277 0.08773 0.0
O215 O 0.45178 0.84229 0.10879 0.0
O216 O 0.49862 0.85031 0.08941 0.0
O217 O 0.50486 0.85512 0.1645 0.0
O218 O 0.4542 0.85184 0.15799 0.0
O219 O 0.39217 0.86828 0.11797 0.0
O220 O 0.40186 0.89668 0.15976 0.0
O221 O 0.50192 0.92199 0.14314 0.0
O222 O 0.46033 0.90406 0.16739 0.0
C223 C 0.4834 0.91819 0.07585 0.0
C224 C 0.47683 0.83281 0.09706 0.0
C225 C 0.59499 0.92015 0.08066 0.0
C226 C 0.63605 0.95367 0.0766 0.0
C227 C 0.62848 0.91689 0.03401 0.0
C228 C 0.604 0.90707 0.05065 0.0
C229 C 0.64436 0.94003 0.04679 0.0
C230 C 0.61132 0.94357 0.09388 0.0
C231 C 0.56943 0.90763 0.09776 0.0
C232 C 0.60494 0.82965 0.20628 0.0
C233 C 0.60759 0.80978 0.17996 0.0
H234 H 0.59744 0.87349 0.2503 0.0
C235 C 0.47916 0.84381 0.17194 0.0
C236 C 0.48058 0.92387 0.16486 0.0
C237 C 0.35878 0.8682 0.16418 0.0
C238 C 0.31983 0.83266 0.17107 0.0
C239 C 0.32376 0.87376 0.20898 0.0
C240 C 0.34807 0.88365 0.19183 0.0
C241 C 0.30973 0.8484 0.19877 0.0
C242 C 0.34435 0.84273 0.15366 0.0
C243 C 0.38214 0.88154 0.14429 0.0
H244 H 0.63537 0.90631 0.01125 0.0
H245 H 0.59225 0.88888 0.03996 0.0
H246 H 0.66376 0.94686 0.03374 0.0
H247 H 0.60518 0.9535 0.11733 0.0
H248 H 0.31545 0.88609 0.22991 0.0
H249 H 0.35805 0.90391 0.19969 0.0
H250 H 0.29047 0.84149 0.212 0.0
H251 H 0.3518 0.83102 0.13181 0.0
C252 C 0.67755 0.57316 0.12585 0.0
C253 C 0.67995 0.58712 0.06794 0.0
C254 C 0.66753 0.57051 0.09364 0.0
C255 C 0.70282 0.60632 0.07524 0.0
C256 C 0.69996 0.59297 0.13354 0.0
C257 C 0.7125 0.60957 0.10806 0.0
N258 N 0.66429 0.55756 0.14998 0.0
C259 C 0.67193 0.56118 0.1825 0.0
C260 C 0.70874 0.59586 0.1667 0.0
C261 C 0.69459 0.57992 0.19131 0.0
Gd262 Gd 0.61836 0.43835 0.12226 0.0
Gd263 Gd 0.62545 0.52776 0.13357 0.0
N264 N 0.64461 0.55275 0.08775 0.0
C265 C 0.66826 0.58476 0.03593 0.0
C266 C 0.63182 0.55198 0.05714 0.0
C267 C 0.64386 0.56733 0.03059 0.0
H268 H 0.61255 0.53916 0.05317 0.0
H269 H 0.63408 0.56602 0.00617 0.0
H270 H 0.63255 0.42971 0.20522 0.0
H271 H 0.66001 0.55012 0.20176 0.0
H272 H 0.60829 0.40887 0.25369 0.0
H273 H 0.67731 0.597 0.01545 0.0
H274 H 0.71268 0.61925 0.05584 0.0
H275 H 0.57248 0.4284 0.05885 0.0
H276 H 0.72604 0.61068 0.1736 0.0
H277 H 0.70075 0.58246 0.21711 0.0
H278 H 0.51806 0.37239 0.21145 0.0
H279 H 0.7298 0.62485 0.11346 0.0
H280 H 0.49684 0.38557 0.09601 0.0
H281 H 0.52393 0.40736 0.04928 0.0
N282 N 0.57187 0.42067 0.1109 0.0
C283 C 0.55801 0.40766 0.13672 0.0
C284 C 0.56044 0.41986 0.07965 0.0
C285 C 0.51796 0.39518 0.10046 0.0
C286 C 0.53313 0.40755 0.07403 0.0
C287 C 0.53044 0.3949 0.13221 0.0
H288 H 0.4951 0.37219 0.15632 0.0
N289 N 0.59797 0.42007 0.17166 0.0
C290 C 0.57131 0.40745 0.16791 0.0
C291 C 0.57036 0.39558 0.22635 0.0
C292 C 0.55685 0.39491 0.19522 0.0
C293 C 0.61132 0.42043 0.20197 0.0
C294 C 0.59766 0.4084 0.2297 0.0
O295 O 0.65016 0.50477 0.09236 0.0
O296 O 0.66179 0.45919 0.11165 0.0
O297 O 0.63208 0.39373 0.12986 0.0
O298 O 0.62549 0.40997 0.0799 0.0
O299 O 0.58864 0.50881 0.10347 0.0
O300 O 0.60693 0.46729 0.07839 0.0
O301 O 0.58063 0.46338 0.14355 0.0
O302 O 0.61085 0.494 0.16891 0.0
O303 O 0.58663 0.5538 0.12331 0.0
O304 O 0.60895 0.5585 0.17002 0.0
O305 O 0.65454 0.45192 0.15888 0.0
O306 O 0.65333 0.50234 0.17123 0.0
C307 C 0.66915 0.48388 0.0974 0.0
C308 C 0.58852 0.48932 0.07951 0.0
C309 C 0.6576 0.36964 0.08627 0.0
C310 C 0.69136 0.32955 0.09537 0.0
C311 C 0.6844 0.3489 0.03985 0.0
C312 C 0.66427 0.36885 0.05218 0.0
C313 C 0.69777 0.32926 0.06123 0.0
C314 C 0.67151 0.34999 0.10792 0.0
C315 C 0.63341 0.38796 0.09818 0.0
C316 C 0.52938 0.38222 0.19074 0.0
C317 C 0.51626 0.38215 0.15935 0.0
H318 H 0.55992 0.38622 0.24792 0.0
C319 C 0.58495 0.48341 0.16588 0.0
C320 C 0.66356 0.47538 0.1758 0.0
C321 C 0.58514 0.60067 0.14917 0.0
C322 C 0.5566 0.64406 0.13518 0.0
C323 C 0.60319 0.64902 0.16292 0.0
C324 C 0.60668 0.61889 0.16278 0.0
C325 C 0.57835 0.66152 0.14934 0.0
C326 C 0.55991 0.61347 0.13524 0.0
C327 C 0.58848 0.56852 0.15092 0.0
H328 H 0.68923 0.34826 0.01354 0.0
H329 H 0.6534 0.38317 0.03484 0.0
H330 H 0.71304 0.3136 0.05107 0.0
H331 H 0.66604 0.34965 0.13412 0.0
H332 H 0.61981 0.66278 0.1737 0.0
H333 H 0.62623 0.60991 0.17362 0.0
H334 H 0.57617 0.68504 0.14964 0.0
H335 H 0.54312 0.59982 0.12453 0.0
C336 C 0.93625 0.82463 0.37347 0.0
C337 C 0.91789 0.82483 0.43002 0.0
C338 C 0.936 0.83657 0.40521 0.0
C339 C 0.90027 0.80076 0.42252 0.0
C340 C 0.91801 0.80091 0.36564 0.0
C341 C 0.90031 0.78885 0.39041 0.0
N342 N 0.95324 0.83707 0.34989 0.0
C343 C 0.95245 0.82723 0.31776 0.0
C344 C 0.91773 0.79028 0.33299 0.0
C345 C 0.93505 0.8035 0.30897 0.0
Gd346 Gd 0.06613 0.88797 0.37788 0.0
Gd347 Gd 0.9778 0.87958 0.36649 0.0
N348 N 0.95298 0.86005 0.41171 0.0
C349 C 0.91769 0.83798 0.4615 0.0
C350 C 0.95146 0.87409 0.44161 0.0
C351 C 0.9344 0.86288 0.46723 0.0
H352 H 0.96347 0.89391 0.44552 0.0
H353 H 0.93376 0.87371 0.49117 0.0
H354 H 0.07398 0.86984 0.29568 0.0
H355 H 0.9642 0.83833 0.29838 0.0
H356 H 0.09503 0.89157 0.24572 0.0
H357 H 0.90423 0.82949 0.48128 0.0
H358 H 0.88635 0.79134 0.4413 0.0
H359 H 0.07745 0.9361 0.43872 0.0
H360 H 0.90405 0.77207 0.32601 0.0
H361 H 0.93459 0.79578 0.28351 0.0
H362 H 0.13466 0.98239 0.28321 0.0
H363 H 0.88635 0.77047 0.3849 0.0
H364 H 0.1233 0.00854 0.39779 0.0
H365 H 0.10087 0.98405 0.44599 0.0
N366 N 0.08485 0.9345 0.38663 0.0
C367 C 0.09826 0.94678 0.36007 0.0
C368 C 0.08646 0.947 0.41737 0.0
C369 C 0.11274 0.98766 0.39438 0.0
C370 C 0.10004 0.97397 0.42165 0.0
C371 C 0.11218 0.97401 0.36318 0.0
H372 H 0.13607 0.00754 0.33722 0.0
N373 N 0.08452 0.90567 0.32725 0.0
C374 C 0.098 0.93209 0.32958 0.0
C375 C 0.10962 0.93026 0.27105 0.0
C376 C 0.11094 0.945 0.3015 0.0
C377 C 0.08369 0.89102 0.29767 0.0
C378 C 0.09594 0.9032 0.26915 0.0
O379 O 0.99994 0.8546 0.40828 0.0
O380 O 0.04643 0.84435 0.39025 0.0
O381 O 0.11106 0.87541 0.37191 0.0
O382 O 0.09345 0.88225 0.42152 0.0
O383 O 0.99444 0.91778 0.39649 0.0
O384 O 0.03686 0.90126 0.42083 0.0
O385 O 0.04105 0.92507 0.35489 0.0
O386 O 0.00905 0.8958 0.32885 0.0
O387 O 0.95268 0.92073 0.37143 0.0
O388 O 0.93848 0.88578 0.33832 0.0
O389 O 0.05277 0.84906 0.34513 0.0
O390 O 0.00567 0.85832 0.32544 0.0
C391 C 0.02222 0.83668 0.40528 0.0
C392 C 0.01493 0.9197 0.41911 0.0
C393 C 0.13843 0.85615 0.41725 0.0
C394 C 0.17881 0.82266 0.40896 0.0
C395 C 0.17005 0.84363 0.46342 0.0
C396 C 0.14628 0.85889 0.45087 0.0
C397 C 0.18637 0.82568 0.44254 0.0
C398 C 0.15477 0.83772 0.39633 0.0
C399 C 0.11632 0.876 0.40372 0.0
C400 C 0.12457 0.97224 0.30453 0.0
C401 C 0.1253 0.98663 0.33528 0.0
H402 H 0.11916 0.93953 0.24889 0.0
C403 C 0.02093 0.92129 0.33248 0.0
C404 C 0.03022 0.84298 0.32559 0.0
C405 C 0.90741 0.92821 0.3391 0.0
C406 C 0.86736 0.96321 0.34695 0.0
C407 C 0.87346 0.93763 0.29418 0.0
C408 C 0.89732 0.92276 0.30675 0.0
C409 C 0.85859 0.95754 0.31398 0.0
C410 C 0.8922 0.94846 0.35943 0.0
C411 C 0.93286 0.91123 0.35099 0.0
H412 H 0.17608 0.84605 0.48928 0.0
H413 H 0.13452 0.87352 0.46725 0.0
H414 H 0.20487 0.81406 0.45257 0.0
H415 H 0.14938 0.8356 0.3702 0.0
H416 H 0.8661 0.93327 0.2691 0.0
H417 H 0.908 0.90689 0.29093 0.0
H418 H 0.8394 0.96775 0.30367 0.0
H419 H 0.89929 0.95228 0.38474 0.0
C420 C 0.67199 0.92735 0.37207 0.0
C421 C 0.67649 0.91343 0.42986 0.0
C422 C 0.66343 0.93033 0.40485 0.0
C423 C 0.6989 0.89399 0.4214 0.0
C424 C 0.69407 0.90751 0.36328 0.0
C425 C 0.70768 0.89104 0.38818 0.0
N426 N 0.659 0.94421 0.34886 0.0
C427 C 0.66591 0.94131 0.31602 0.0
C428 C 0.70199 0.90508 0.32979 0.0
C429 C 0.68767 0.9219 0.30602 0.0
Gd430 Gd 0.62152 0.0668 0.37712 0.0
Gd431 Gd 0.62439 0.97767 0.36827 0.0
N432 N 0.64244 0.94998 0.4123 0.0
C433 C 0.66651 0.91654 0.46257 0.0
C434 C 0.63158 0.95211 0.44372 0.0
C435 C 0.64367 0.93571 0.46944 0.0
H436 H 0.6139 0.96682 0.4489 0.0
H437 H 0.63541 0.9379 0.49451 0.0
H438 H 0.63279 0.07402 0.29412 0.0
H439 H 0.65479 0.9542 0.29753 0.0
H440 H 0.60827 0.09603 0.24627 0.0
H441 H 0.67599 0.90397 0.48254 0.0
H442 H 0.70946 0.88103 0.44031 0.0
H443 H 0.57863 0.08034 0.44282 0.0
H444 H 0.71897 0.8902 0.32202 0.0
H445 H 0.69342 0.91999 0.28003 0.0
H446 H 0.52135 0.13735 0.29195 0.0
H447 H 0.72494 0.87593 0.38199 0.0
H448 H 0.50375 0.12636 0.40846 0.0
H449 H 0.53156 0.1039 0.45425 0.0
N450 N 0.57648 0.08733 0.39066 0.0
C451 C 0.5622 0.10065 0.3653 0.0
C452 C 0.56627 0.08917 0.42242 0.0
C453 C 0.52421 0.11564 0.40318 0.0
C454 C 0.53979 0.10291 0.42909 0.0
C455 C 0.53546 0.11488 0.37088 0.0
H456 H 0.50039 0.13912 0.34807 0.0
N457 N 0.60007 0.08592 0.32876 0.0
C458 C 0.57429 0.09996 0.33354 0.0
C459 C 0.57197 0.11151 0.27504 0.0
C460 C 0.55955 0.11304 0.30672 0.0
C461 C 0.61233 0.08462 0.29795 0.0
C462 C 0.59845 0.09723 0.27066 0.0
O463 O 0.6538 0.99853 0.40724 0.0
O464 O 0.66422 0.04526 0.38936 0.0
O465 O 0.63971 0.1091 0.36596 0.0
O466 O 0.63079 0.09692 0.41777 0.0
O467 O 0.58925 1.00009 0.39768 0.0
O468 O 0.61015 0.03986 0.42266 0.0
O469 O 0.58304 0.0432 0.35514 0.0
O470 O 0.61176 0.01043 0.33052 0.0
O471 O 0.58521 0.95344 0.38121 0.0
O472 O 0.60348 0.94997 0.33174 0.0
O473 O 0.6561 0.05097 0.33946 0.0
O474 O 0.65632 0.99977 0.33325 0.0
C475 C 0.67207 0.0204 0.40286 0.0
C476 C 0.5913 0.01829 0.42266 0.0
C477 C 0.65033 0.14538 0.40811 0.0
C478 C 0.67546 0.19057 0.39608 0.0
C479 C 0.6516 0.18412 0.44929 0.0
C480 C 0.64292 0.15622 0.43967 0.0
C481 C 0.66771 0.20132 0.42756 0.0
C482 C 0.66689 0.16257 0.38646 0.0
C483 C 0.63974 0.1168 0.39714 0.0
C484 C 0.53289 0.12712 0.31226 0.0
C485 C 0.52092 0.12808 0.34422 0.0
H486 H 0.56131 0.12128 0.25383 0.0
C487 C 0.58664 0.0231 0.33262 0.0
C488 C 0.66608 0.02622 0.32609 0.0
C489 C 0.57309 0.91065 0.34902 0.0
C490 C 0.54769 0.86766 0.37007 0.0
C491 C 0.55989 0.87091 0.31176 0.0
C492 C 0.57286 0.89791 0.3172 0.0
C493 C 0.54737 0.85597 0.33788 0.0
C494 C 0.56051 0.89518 0.37583 0.0
C495 C 0.58323 0.94125 0.352 0.0
H496 H 0.64588 0.19242 0.47365 0.0
H497 H 0.63011 0.14331 0.4567 0.0
H498 H 0.67472 0.22276 0.43557 0.0
H499 H 0.67315 0.15429 0.36222 0.0
H500 H 0.55925 0.86132 0.28728 0.0
H501 H 0.58226 0.90924 0.29633 0.0
H502 H 0.53782 0.83478 0.33304 0.0
H503 H 0.5604 0.90444 0.40064 0.0
C504 C 0.40845 0.57401 0.41446 0.0
C505 C 0.40504 0.58785 0.47259 0.0
C506 C 0.41316 0.59437 0.43967 0.0
C507 C 0.3925 0.5607 0.47982 0.0
C508 C 0.39575 0.54681 0.42161 0.0
C509 C 0.38791 0.54025 0.45442 0.0
N510 N 0.41696 0.58055 0.38304 0.0
C511 C 0.41181 0.56182 0.35732 0.0
C512 C 0.39139 0.52698 0.39552 0.0
C513 C 0.39924 0.53463 0.3632 0.0
Gd514 Gd 0.52472 0.62557 0.3656 0.0
Gd515 Gd 0.43786 0.62642 0.37587 0.0
N516 N 0.42586 0.62035 0.43208 0.0
C517 C 0.40976 0.60884 0.49732 0.0
C518 C 0.42998 0.64108 0.45597 0.0
C519 C 0.42212 0.63558 0.48894 0.0
H520 H 0.43896 0.66202 0.44982 0.0
H521 H 0.4255 0.65205 0.50787 0.0
H522 H 0.52707 0.59498 0.29046 0.0
H523 H 0.41705 0.56789 0.33216 0.0
H524 H 0.54454 0.60704 0.23397 0.0
H525 H 0.40375 0.60469 0.52289 0.0
H526 H 0.38624 0.55531 0.505 0.0
H527 H 0.55495 0.67486 0.41714 0.0
H528 H 0.38171 0.50586 0.4 0.0
H529 H 0.39548 0.51967 0.34279 0.0
H530 H 0.58803 0.7013 0.24726 0.0
H531 H 0.37823 0.51942 0.46042 0.0
H532 H 0.59592 0.73984 0.35757 0.0
H533 H 0.58319 0.72004 0.41283 0.0
N534 N 0.55031 0.66964 0.36482 0.0
C535 C 0.55912 0.67872 0.33427 0.0
C536 C 0.5596 0.68363 0.39286 0.0
C537 C 0.58314 0.72011 0.35927 0.0
C538 C 0.57583 0.70919 0.39049 0.0
C539 C 0.57545 0.70447 0.33067 0.0
H540 H 0.59728 0.73278 0.29572 0.0
N541 N 0.5392 0.63563 0.31115 0.0
C542 C 0.55395 0.66096 0.30679 0.0
C543 C 0.56081 0.64914 0.24869 0.0
C544 C 0.56484 0.66856 0.27526 0.0
C545 C 0.5369 0.6158 0.28593 0.0
C546 C 0.54706 0.62249 0.25414 0.0
O547 O 0.46459 0.58919 0.39813 0.0
O548 O 0.50584 0.61217 0.41544 0.0
O549 O 0.54705 0.58364 0.3676 0.0
O550 O 0.57102 0.62348 0.37413 0.0
O551 O 0.46113 0.66677 0.39479 0.0
O552 O 0.50745 0.6521 0.40925 0.0
O553 O 0.49741 0.64604 0.3238 0.0
O554 O 0.45826 0.66553 0.351 0.0
O555 O 0.39624 0.64766 0.38501 0.0
O556 O 0.40626 0.62892 0.33639 0.0
O557 O 0.49944 0.58672 0.34726 0.0
O558 O 0.45606 0.60622 0.32944 0.0
C559 C 0.48729 0.59048 0.41804 0.0
C560 C 0.48658 0.67177 0.40876 0.0
C561 C 0.589 0.58267 0.40157 0.0
C562 C 0.63096 0.55468 0.42011 0.0
C563 C 0.60044 0.58007 0.46026 0.0
C564 C 0.5829 0.59034 0.43459 0.0
C565 C 0.62431 0.56236 0.45314 0.0
C566 C 0.61304 0.56491 0.39435 0.0
C567 C 0.57214 0.5953 0.3743 0.0
C568 C 0.57979 0.69493 0.27137 0.0
C569 C 0.58497 0.71291 0.29897 0.0
H570 H 0.56873 0.65425 0.22408 0.0
C571 C 0.47677 0.6659 0.32616 0.0
C572 C 0.47588 0.58576 0.32891 0.0
C573 C 0.35668 0.63989 0.34737 0.0
C574 C 0.31016 0.66413 0.33963 0.0
C575 C 0.31612 0.61338 0.32358 0.0
C576 C 0.34507 0.61409 0.33411 0.0
C577 C 0.29876 0.63834 0.32601 0.0
C578 C 0.33908 0.66461 0.35039 0.0
C579 C 0.38767 0.64334 0.35449 0.0
H580 H 0.5959 0.58634 0.48568 0.0
H581 H 0.56503 0.60483 0.44036 0.0
H582 H 0.6381 0.5554 0.47342 0.0
H583 H 0.61802 0.55948 0.36873 0.0
H584 H 0.30719 0.59353 0.31318 0.0
H585 H 0.35845 0.59483 0.33127 0.0
H586 H 0.2764 0.63742 0.31772 0.0
H587 H 0.34825 0.68468 0.36013 0.0
C588 C 0.81991 0.56909 0.38104 0.0
C589 C 0.81739 0.58248 0.43945 0.0
C590 C 0.83063 0.56683 0.41327 0.0
C591 C 0.79279 0.59963 0.43301 0.0
C592 C 0.79564 0.5869 0.37443 0.0
C593 C 0.78187 0.60171 0.40065 0.0
N594 N 0.83453 0.55576 0.35586 0.0
C595 C 0.82692 0.56059 0.32353 0.0
C596 C 0.78657 0.59025 0.34145 0.0
C597 C 0.80238 0.57714 0.31588 0.0
Gd598 Gd 0.88767 0.44233 0.37544 0.0
Gd599 Gd 0.87671 0.53075 0.37149 0.0
N600 N 0.8547 0.5504 0.41884 0.0
C601 C 0.82969 0.581 0.47122 0.0
C602 C 0.86788 0.55045 0.44926 0.0
C603 C 0.85519 0.56511 0.47608 0.0
H604 H 0.88809 0.53898 0.45281 0.0
H605 H 0.86532 0.56453 0.50033 0.0
H606 H 0.87488 0.44117 0.29159 0.0
H607 H 0.84043 0.55266 0.30353 0.0
H608 H 0.89903 0.42322 0.24138 0.0
H609 H 0.82008 0.59263 0.49197 0.0
H610 H 0.78224 0.61163 0.45286 0.0
H611 H 0.9275 0.41783 0.43799 0.0
H612 H 0.76796 0.60367 0.3354 0.0
H613 H 0.79622 0.58052 0.29022 0.0
H614 H 0.98608 0.378 0.28096 0.0
H615 H 0.76312 0.61537 0.39603 0.0
H616 H 1.00291 0.37601 0.39833 0.0
H617 H 0.97421 0.39258 0.44682 0.0
N618 N 0.93178 0.41909 0.38566 0.0
C619 C 0.94609 0.40859 0.35867 0.0
C620 C 0.94092 0.41253 0.41693 0.0
C621 C 0.98292 0.38799 0.39446 0.0
C622 C 0.9669 0.39745 0.42189 0.0
C623 C 0.97232 0.39302 0.36236 0.0
H624 H 0.0069 0.37035 0.33648 0.0
N625 N 0.90811 0.42682 0.32459 0.0
C626 C 0.93393 0.41244 0.32732 0.0
C627 C 0.93564 0.40563 0.26776 0.0
C628 C 0.94832 0.40146 0.29894 0.0
C629 C 0.89547 0.43047 0.29418 0.0
C630 C 0.90911 0.42014 0.2654 0.0
O631 O 0.85443 0.50379 0.4109 0.0
O632 O 0.84345 0.46045 0.38644 0.0
O633 O 0.87291 0.39862 0.36337 0.0
O634 O 0.87673 0.41292 0.4157 0.0
O635 O 0.91496 0.51302 0.39983 0.0
O636 O 0.90313 0.46783 0.42131 0.0
O637 O 0.9237 0.47 0.35458 0.0
O638 O 0.89536 0.50437 0.32982 0.0
O639 O 0.91818 0.5538 0.37671 0.0
O640 O 0.88095 0.57589 0.35647 0.0
O641 O 0.85096 0.45707 0.34122 0.0
O642 O 0.85447 0.50669 0.32785 0.0
C643 C 0.83549 0.48347 0.40346 0.0
C644 C 0.91788 0.49263 0.42241 0.0
C645 C 0.86094 0.36333 0.40567 0.0
C646 C 0.82808 0.32222 0.40073 0.0
C647 C 0.86599 0.32227 0.4428 0.0
C648 C 0.875 0.3497 0.4323 0.0
C649 C 0.84257 0.30863 0.42725 0.0
C650 C 0.83774 0.34938 0.38952 0.0
C651 C 0.87065 0.39199 0.39472 0.0
C652 C 0.97479 0.38657 0.30251 0.0
C653 C 0.98671 0.3823 0.33411 0.0
H654 H 0.94604 0.39754 0.24539 0.0
C655 C 0.92024 0.49075 0.33269 0.0
C656 C 0.8428 0.48031 0.32397 0.0
C657 C 0.92654 0.59885 0.34826 0.0
C658 C 0.95827 0.64183 0.34889 0.0
C659 C 0.94294 0.61989 0.29649 0.0
C660 C 0.92615 0.59961 0.31354 0.0
C661 C 0.95922 0.64047 0.31391 0.0
C662 C 0.9425 0.62016 0.36598 0.0
C663 C 0.90764 0.57844 0.36639 0.0
H664 H 0.87697 0.31168 0.46322 0.0
H665 H 0.8931 0.36016 0.44474 0.0
H666 H 0.83554 0.28753 0.43611 0.0
H667 H 0.82655 0.3601 0.36924 0.0
H668 H 0.94273 0.62026 0.2696 0.0
H669 H 0.91222 0.58502 0.29971 0.0
H670 H 0.97176 0.65608 0.29982 0.0
H671 H 0.94121 0.62082 0.39286 0.0
C672 C 0.89846 0.441 0.86745 0.0
C673 C 0.87785 0.43913 0.81191 0.0
C674 C 0.89454 0.42646 0.8374 0.0
C675 C 0.86454 0.46629 0.81735 0.0
C676 C 0.88478 0.46806 0.87316 0.0
C677 C 0.86792 0.48066 0.84792 0.0
N678 N 0.91611 0.42895 0.89082 0.0
C679 C 0.91818 0.44114 0.92163 0.0
C680 C 0.88855 0.48168 0.90406 0.0
C681 C 0.90493 0.46789 0.9286 0.0
Gd682 Gd 0.03251 0.38159 0.86469 0.0
Gd683 Gd 0.93882 0.38481 0.87625 0.0
N684 N 0.90924 0.40102 0.8322 0.0
C685 C 0.87577 0.42452 0.78139 0.0
C686 C 0.90685 0.38641 0.80272 0.0
C687 C 0.89018 0.398 0.77686 0.0
H688 H 0.91807 0.36603 0.79891 0.0
H689 H 0.88867 0.38659 0.75333 0.0
H690 H 0.04306 0.39787 0.94475 0.0
H691 H 0.92932 0.42985 0.94111 0.0
H692 H 0.071 0.37847 0.99233 0.0
H693 H 0.86328 0.43363 0.76111 0.0
H694 H 0.85177 0.47647 0.79799 0.0
H695 H 0.04902 0.33911 0.79847 0.0
H696 H 0.87842 0.50248 0.90945 0.0
H697 H 0.90714 0.4777 0.95298 0.0
H698 H 0.12196 0.29634 0.9467 0.0
H699 H 0.8575 0.50158 0.85174 0.0
H700 H 0.11124 0.2764 0.83049 0.0
H701 H 0.08128 0.29801 0.78602 0.0
N702 N 0.05791 0.33908 0.85057 0.0
C703 C 0.07462 0.32787 0.87529 0.0
C704 C 0.06045 0.32888 0.81871 0.0
C705 C 0.09644 0.29403 0.83639 0.0
C706 C 0.07939 0.306 0.81128 0.0
C707 C 0.09414 0.30484 0.86888 0.0
H708 H 0.12561 0.27539 0.89052 0.0
N709 N 0.05596 0.3639 0.91189 0.0
C710 C 0.07339 0.34041 0.90683 0.0
C711 C 0.08897 0.3427 0.96418 0.0
C712 C 0.09045 0.3292 0.93293 0.0
C713 C 0.05581 0.3783 0.94168 0.0
C714 C 0.07173 0.36748 0.9685 0.0
O715 O 0.95067 0.41978 0.83986 0.0
O716 O 0.99055 0.39904 0.85012 0.0
O717 O 0.06284 0.41743 0.8745 0.0
O718 O 0.06443 0.39323 0.8275 0.0
O719 O 0.95793 0.35278 0.83771 0.0
O720 O 0.00698 0.36071 0.82159 0.0
O721 O 0.0124 0.35406 0.9054 0.0
O722 O 0.96797 0.34523 0.88174 0.0
O723 O 0.90359 0.3542 0.87238 0.0
O724 O 0.91324 0.37411 0.92007 0.0
O725 O 0.0119 0.41974 0.89075 0.0
O726 O 0.97023 0.40199 0.91675 0.0
C727 C 0.97773 0.41947 0.83336 0.0
C728 C 0.98101 0.3481 0.81828 0.0
C729 C 0.10074 0.43109 0.83492 0.0
C730 C 0.14327 0.46174 0.84478 0.0
C731 C 0.12799 0.45035 0.78844 0.0
C732 C 0.10676 0.43195 0.80083 0.0
C733 C 0.14556 0.46579 0.81026 0.0
C734 C 0.11961 0.44561 0.85729 0.0
C735 C 0.07605 0.41323 0.8463 0.0
C736 C 0.10882 0.30535 0.92691 0.0
C737 C 0.11088 0.2934 0.89492 0.0
H738 H 0.10156 0.33456 0.9849 0.0
C739 C 0.98842 0.33849 0.90324 0.0
C740 C 0.9924 0.42054 0.91476 0.0
C741 C 0.86435 0.35896 0.90922 0.0
C742 C 0.81658 0.33821 0.89897 0.0
C743 C 0.82215 0.37799 0.93831 0.0
C744 C 0.85206 0.37859 0.93213 0.0
C745 C 0.8044 0.35786 0.92179 0.0
C746 C 0.84641 0.33885 0.89282 0.0
C747 C 0.89581 0.35719 0.90325 0.0
H748 H 0.1315 0.45189 0.7619 0.0
H749 H 0.09511 0.41824 0.78368 0.0
H750 H 0.16233 0.47945 0.80012 0.0
H751 H 0.11704 0.44284 0.88385 0.0
H752 H 0.81279 0.39284 0.95632 0.0
H753 H 0.86549 0.39406 0.9455 0.0
H754 H 0.78142 0.35712 0.92741 0.0
H755 H 0.85577 0.32311 0.87569 0.0
C756 C 0.06314 0.91274 0.86367 0.0
C757 C 0.06178 0.90055 0.80484 0.0
C758 C 0.07611 0.91316 0.83234 0.0
C759 C 0.0345 0.88746 0.80919 0.0
C760 C 0.03603 0.89903 0.86816 0.0
C761 C 0.02173 0.88661 0.84074 0.0
N762 N 0.07734 0.92493 0.88988 0.0
C763 C 0.06686 0.92223 0.92142 0.0
C764 C 0.02437 0.89759 0.90025 0.0
C765 C 0.04001 0.90898 0.92703 0.0
Gd766 Gd 0.12969 0.03206 0.86997 0.0
Gd767 Gd 0.12306 0.9441 0.87802 0.0
N768 N 0.10278 0.92562 0.82881 0.0
C769 C 0.07544 0.90117 0.77379 0.0
C770 C 0.11652 0.92561 0.79878 0.0
C771 C 0.10294 0.91366 0.77079 0.0
H772 H 0.13791 0.93473 0.79615 0.0
H773 H 0.11375 0.91395 0.74693 0.0
H774 H 0.1175 0.04176 0.95036 0.0
H775 H 0.07921 0.93013 0.94241 0.0
H776 H 0.13618 0.07201 0.99669 0.0
H777 H 0.06509 0.89178 0.75207 0.0
H778 H 0.02325 0.8776 0.78834 0.0
H779 H 0.16788 0.05099 0.80161 0.0
H780 H 0.00365 0.88717 0.90472 0.0
H781 H 0.03153 0.90735 0.95203 0.0
H782 H 0.21325 0.12703 0.947 0.0
H783 H 1.0009 0.876 0.84375 0.0
H784 H 0.23345 0.1113 0.83152 0.0
H785 H 0.21002 0.08145 0.7878 0.0
N786 N 0.17016 0.05964 0.85355 0.0
C787 C 0.18206 0.07667 0.87772 0.0
C788 C 0.17929 0.062 0.82137 0.0
C789 C 0.2157 0.09693 0.83799 0.0
C790 C 0.20264 0.08001 0.81327 0.0
C791 C 0.20501 0.09593 0.87052 0.0
H792 H 0.23373 0.12896 0.89062 0.0
N793 N 0.14906 0.05612 0.91611 0.0
C794 C 0.17056 0.07552 0.90964 0.0
C795 C 0.16943 0.09195 0.96678 0.0
C796 C 0.18168 0.09364 0.93501 0.0
C797 C 0.136 0.05553 0.94647 0.0
C798 C 0.14632 0.07295 0.97246 0.0
O799 O 0.08793 0.97174 0.85479 0.0
O800 O 0.11203 0.0072 0.82608 0.0
O801 O 0.08748 0.05397 0.87588 0.0
O802 O 0.12354 0.07585 0.85221 0.0
O803 O 0.15995 0.95889 0.84416 0.0
O804 O 0.15186 0.00709 0.82751 0.0
O805 O 0.15709 0.00904 0.90925 0.0
O806 O 0.16683 0.96277 0.88977 0.0
O807 O 0.13904 0.90082 0.86626 0.0
O808 O 0.13115 0.91362 0.91835 0.0
O809 O 0.09234 0.01295 0.89886 0.0
O810 O 0.11013 0.97126 0.92321 0.0
C811 C 0.09162 0.98733 0.82795 0.0
C812 C 0.16605 0.98193 0.82565 0.0
C813 C 0.07782 0.09862 0.84637 0.0
C814 C 0.04756 0.14245 0.8488 0.0
C815 C 0.06295 0.12241 0.79551 0.0
C816 C 0.07858 0.10066 0.8117 0.0
C817 C 0.04724 0.14287 0.81381 0.0
C818 C 0.06225 0.11959 0.86497 0.0
C819 C 0.09729 0.07828 0.86358 0.0
C820 C 0.20445 0.11292 0.92784 0.0
C821 C 0.21615 0.11399 0.89573 0.0
H822 H 0.17734 0.10553 0.98692 0.0
C823 C 0.17498 0.98683 0.90474 0.0
C824 C 0.09174 0.99334 0.92244 0.0
C825 C 0.14821 0.86422 0.90802 0.0
C826 C 0.17812 0.82106 0.90023 0.0
C827 C 0.14355 0.8235 0.94577 0.0
C828 C 0.13537 0.85142 0.93597 0.0
C829 C 0.16492 0.80844 0.92815 0.0
C830 C 0.16935 0.8488 0.88984 0.0
C831 C 0.13889 0.89324 0.89739 0.0
H832 H 0.06344 0.12375 0.76866 0.0
H833 H 0.09173 0.08569 0.79722 0.0
H834 H 0.03584 0.15991 0.80058 0.0
H835 H 0.06342 0.11935 0.89188 0.0
H836 H 0.1335 0.81361 0.96724 0.0
H837 H 0.11878 0.86286 0.94996 0.0
H838 H 0.17142 0.78699 0.93649 0.0
H839 H 0.17963 0.85869 0.86845 0.0
C840 C 0.43635 0.16742 0.84922 0.0
C841 C 0.41874 0.14479 0.79867 0.0
C842 C 0.43872 0.14575 0.82525 0.0
C843 C 0.39864 0.16745 0.79449 0.0
C844 C 0.41499 0.18933 0.84612 0.0
C845 C 0.39708 0.18995 0.81792 0.0
N846 N 0.45235 0.16498 0.87745 0.0
C847 C 0.44694 0.1826 0.90405 0.0
C848 C 0.41057 0.2085 0.8727 0.0
C849 C 0.42623 0.20474 0.90204 0.0
Gd850 Gd 0.57137 0.12422 0.87286 0.0
Gd851 Gd 0.4833 0.12459 0.88091 0.0
N852 N 0.45826 0.12389 0.8299 0.0
C853 C 0.41831 0.1202 0.77824 0.0
C854 C 0.45847 0.10042 0.80897 0.0
C855 C 0.43905 0.09856 0.78243 0.0
H856 H 0.47189 0.08196 0.81385 0.0
H857 H 0.43925 0.07992 0.76596 0.0
H858 H 0.57408 0.15937 0.94765 0.0
H859 H 0.45716 0.17823 0.92749 0.0
H860 H 0.59049 0.14877 0.00437 0.0
H861 H 0.40159 0.11738 0.75958 0.0
H862 H 0.38358 0.16725 0.77379 0.0
H863 H 0.58666 0.06478 0.82809 0.0
H864 H 0.39413 0.22536 0.87144 0.0
H865 H 0.4218 0.21841 0.92339 0.0
H866 H 0.63162 0.05302 0.99705 0.0
H867 H 0.38076 0.20676 0.81502 0.0
H868 H 0.62911 1.0037 0.89194 0.0
H869 H 0.60968 0.01671 0.83663 0.0
N870 N 0.59281 0.07841 0.87808 0.0
C871 C 0.60411 0.07218 0.90849 0.0
C872 C 0.59493 0.05914 0.85233 0.0
C873 C 0.61918 0.02485 0.88829 0.0
C874 C 0.60811 0.03204 0.85705 0.0
C875 C 0.61718 0.04494 0.91451 0.0
H876 H 0.63726 0.01747 0.95166 0.0
N877 N 0.58697 0.1182 0.92806 0.0
C878 C 0.60086 0.09247 0.93422 0.0
C879 C 0.60676 0.10614 0.99188 0.0
C880 C 0.61078 0.08568 0.96644 0.0
C881 C 0.58374 0.13852 0.95262 0.0
C882 C 0.59335 0.1327 0.98489 0.0
O883 O 0.49905 0.15851 0.84299 0.0
O884 O 0.54954 0.15529 0.83688 0.0
O885 O 0.60969 0.15149 0.87686 0.0
O886 O 0.60501 0.12117 0.83538 0.0
O887 O 0.50707 0.08656 0.85695 0.0
O888 O 0.54635 0.10622 0.82991 0.0
O889 O 0.548 0.08707 0.89934 0.0
O890 O 0.51267 0.11342 0.92388 0.0
O891 O 0.45801 0.08458 0.88516 0.0
O892 O 0.44868 0.12117 0.91722 0.0
O893 O 0.55143 0.16552 0.89324 0.0
O894 O 0.50651 0.15509 0.91665 0.0
C895 C 0.524 0.16652 0.82924 0.0
C896 C 0.52688 0.08584 0.83343 0.0
C897 C 0.65234 0.13961 0.84648 0.0
C898 C 0.69755 0.16636 0.83957 0.0
C899 C 0.69767 0.11334 0.84079 0.0
C900 C 0.66754 0.11318 0.84523 0.0
C901 C 0.71267 0.13975 0.838 0.0
C902 C 0.66731 0.16589 0.84326 0.0
C903 C 0.62075 0.14131 0.84934 0.0
C904 C 0.62401 0.05861 0.9724 0.0
C905 C 0.62724 0.03834 0.94654 0.0
H906 H 0.61401 0.1017 0.01697 0.0
C907 C 0.52834 0.08967 0.92275 0.0
C908 C 0.52822 0.17306 0.91044 0.0
C909 C 0.40888 0.09217 0.90019 0.0
C910 C 0.36542 0.06192 0.89708 0.0
C911 C 0.36289 0.1131 0.88259 0.0
C912 C 0.39222 0.11619 0.88999 0.0
C913 C 0.34954 0.08614 0.88599 0.0
C914 C 0.39522 0.06492 0.90413 0.0
C915 C 0.44024 0.09562 0.90701 0.0
H916 H 0.70948 0.09297 0.83981 0.0
H917 H 0.6562 0.09263 0.84747 0.0
H918 H 0.73608 0.13936 0.83552 0.0
H919 H 0.65519 0.18617 0.84357 0.0
H920 H 0.35037 0.13177 0.87463 0.0
H921 H 0.40163 0.13755 0.88822 0.0
H922 H 0.32653 0.0843 0.88073 0.0
H923 H 0.40759 0.04629 0.91264 0.0
C924 C 0.44692 0.60284 0.85802 0.0
C925 C 0.44315 0.6176 0.80033 0.0
C926 C 0.43149 0.60319 0.82824 0.0
C927 C 0.4702 0.63154 0.80277 0.0
C928 C 0.47385 0.61734 0.86066 0.0
C929 C 0.48548 0.63144 0.83283 0.0
N930 N 0.43524 0.5891 0.88468 0.0
C931 C 0.4478 0.59155 0.91519 0.0
C932 C 0.48794 0.61795 0.89149 0.0
C933 C 0.47462 0.60534 0.91901 0.0
Gd934 Gd 0.38053 0.4812 0.87225 0.0
Gd935 Gd 0.38875 0.56997 0.87715 0.0
N936 N 0.40543 0.58908 0.82637 0.0
C937 C 0.42759 0.61698 0.77049 0.0
C938 C 0.39008 0.58877 0.79731 0.0
C939 C 0.40105 0.60243 0.76898 0.0
H940 H 0.36918 0.57853 0.79559 0.0
H941 H 0.38885 0.60194 0.74599 0.0
H942 H 0.38915 0.47541 0.95416 0.0
H943 H 0.43643 0.5843 0.93681 0.0
H944 H 0.36662 0.44896 0.0009 0.0
H945 H 0.43596 0.62752 0.74845 0.0
H946 H 0.4795 0.64251 0.78151 0.0
H947 H 0.34805 0.45686 0.8032 0.0
H948 H 0.50855 0.629 0.89457 0.0
H949 H 0.48458 0.60693 0.94333 0.0
H950 H 0.28997 0.39419 0.94992 0.0
H951 H 0.50616 0.64259 0.8344 0.0
H952 H 0.2814 0.39741 0.83154 0.0
H953 H 0.30824 0.4236 0.78772 0.0
N954 N 0.34053 0.45346 0.85509 0.0
C955 C 0.32655 0.43882 0.87958 0.0
C956 C 0.33462 0.44771 0.82244 0.0
C957 C 0.29792 0.4131 0.83844 0.0
C958 C 0.31282 0.42801 0.81363 0.0
C959 C 0.30495 0.41807 0.87184 0.0
H960 H 0.27453 0.38686 0.89202 0.0
N961 N 0.35778 0.46132 0.91886 0.0
C962 C 0.33543 0.44282 0.91232 0.0
C963 C 0.33343 0.42946 0.97034 0.0
C964 C 0.3226 0.42645 0.938 0.0
C965 C 0.36991 0.46253 0.94986 0.0
C966 C 0.3574 0.44734 0.97622 0.0
O967 O 0.42468 0.54363 0.85384 0.0
O968 O 0.40044 0.50517 0.82922 0.0
O969 O 0.41858 0.45591 0.88736 0.0
O970 O 0.38867 0.43813 0.8515 0.0
O971 O 0.35168 0.5543 0.84326 0.0
O972 O 0.35738 0.50475 0.82943 0.0
O973 O 0.35559 0.50748 0.91099 0.0
O974 O 0.3446 0.55175 0.88826 0.0
O975 O 0.37719 0.61476 0.86871 0.0
O976 O 0.38065 0.59888 0.91941 0.0
O977 O 0.41906 0.50219 0.89676 0.0
O978 O 0.4032 0.54376 0.92268 0.0
C979 C 0.42268 0.52305 0.83123 0.0
C980 C 0.34469 0.53063 0.82569 0.0
C981 C 0.43372 0.413 0.85749 0.0
C982 C 0.4642 0.37004 0.86637 0.0
C983 C 0.4615 0.3922 0.81201 0.0
C984 C 0.44157 0.41272 0.82385 0.0
C985 C 0.47275 0.37113 0.833 0.0
C986 C 0.44511 0.39145 0.87884 0.0
C987 C 0.41124 0.4332 0.86994 0.0
C988 C 0.30019 0.40678 0.93048 0.0
C989 C 0.29142 0.40259 0.8975 0.0
H990 H 0.32409 0.41731 0.99071 0.0
C991 C 0.33679 0.52825 0.90444 0.0
C992 C 0.41925 0.51984 0.92242 0.0
C993 C 0.35453 0.64351 0.91049 0.0
C994 C 0.31999 0.68177 0.89686 0.0
C995 C 0.33901 0.67792 0.95292 0.0
C996 C 0.3556 0.65391 0.94334 0.0
C997 C 0.32133 0.69185 0.92981 0.0
C998 C 0.33652 0.65757 0.88716 0.0
C999 C 0.37561 0.62116 0.90017 0.0
H1000 H 0.46833 0.39227 0.78641 0.0
H1001 H 0.43227 0.42831 0.80679 0.0
H1002 H 0.48743 0.35489 0.82285 0.0
H1003 H 0.43791 0.39038 0.90445 0.0
H1004 H 0.34016 0.686 0.97819 0.0
H1005 H 0.36992 0.64396 0.96139 0.0
H1006 H 0.30872 0.7106 0.9376 0.0
H1007 H 0.3357 0.65021 0.86155 0.0
C1008 C 0.90883 0.06324 0.63804 0.0
C1009 C 0.89703 0.06368 0.6968 0.0
C1010 C 0.90986 0.07705 0.66893 0.0
C1011 C 0.88297 0.03671 0.69316 0.0
C1012 C 0.8946 0.03622 0.63431 0.0
C1013 C 0.88172 0.02306 0.66202 0.0
N1014 N 0.92171 0.07624 0.61161 0.0
C1015 C 0.91943 0.06452 0.58057 0.0
C1016 C 0.89344 0.02335 0.60271 0.0
C1017 C 0.90572 0.03771 0.57566 0.0
Gd1018 Gd 0.03155 0.12774 0.63032 0.0
Gd1019 Gd 0.94207 0.12207 0.6214 0.0
N1020 N 0.9237 0.10324 0.67175 0.0
C1021 C 0.89867 0.0778 0.72759 0.0
C1022 C 0.92508 0.11714 0.70181 0.0
C1023 C 0.91276 0.10459 0.73008 0.0
H1024 H 0.9354 0.13797 0.70452 0.0
H1025 H 0.914 0.11572 0.75381 0.0
H1026 H 0.04128 0.11315 0.54941 0.0
H1027 H 0.92724 0.07632 0.55942 0.0
H1028 H 0.0635 0.13622 0.50027 0.0
H1029 H 0.88908 0.06824 0.74957 0.0
H1030 H 0.87292 0.02625 0.71431 0.0
H1031 H 0.05957 0.16176 0.69656 0.0
H1032 H 0.88263 1.00267 0.59883 0.0
H1033 H 0.90421 0.02841 0.55096 0.0
H1034 H 0.10994 0.22164 0.54438 0.0
H1035 H 0.87065 1.00234 0.65961 0.0
H1036 H 0.11128 0.23316 0.66279 0.0
H1037 H 0.09097 0.20403 0.70882 0.0
N1038 N 0.06147 0.16738 0.6442 0.0
C1039 C 0.07362 0.18211 0.61864 0.0
C1040 C 0.06828 0.17439 0.67626 0.0
C1041 C 0.0975 0.21465 0.65728 0.0
C1042 C 0.08609 0.19828 0.68332 0.0
C1043 C 0.09172 0.20637 0.62444 0.0
H1044 H 0.11797 0.23973 0.60131 0.0
N1045 N 0.05337 0.14726 0.58248 0.0
C1046 C 0.0693 0.17182 0.58672 0.0
C1047 C 0.07989 0.17298 0.52796 0.0
C1048 C 0.08279 0.18554 0.55955 0.0
C1049 C 0.05241 0.13366 0.55221 0.0
C1050 C 0.06505 0.14664 0.52438 0.0
O1051 O 0.9663 0.08387 0.64295 0.0
O1052 O 0.99928 0.11252 0.66791 0.0
O1053 O 0.06017 0.09042 0.61828 0.0
O1054 O 0.064 0.11374 0.66544 0.0
O1055 O 0.95736 0.15818 0.65721 0.0
O1056 O 0.00763 0.156 0.66876 0.0
O1057 O 0.00717 0.15123 0.58969 0.0
O1058 O 0.96303 0.16549 0.60988 0.0
O1059 O 0.89844 0.13876 0.63004 0.0
O1060 O 0.91369 0.12996 0.57916 0.0
O1061 O 0.01108 0.09014 0.60287 0.0
O1062 O 0.96981 0.10763 0.57709 0.0
C1063 C 0.98679 0.0872 0.66497 0.0
C1064 C 0.98107 0.16698 0.6735 0.0
C1065 C 0.09739 0.07376 0.65801 0.0
C1066 C 0.13957 0.0422 0.6482 0.0
C1067 C 0.12245 0.05159 0.70455 0.0
C1068 C 0.1007 0.06962 0.69234 0.0
C1069 C 0.14155 0.03783 0.68276 0.0
C1070 C 0.11706 0.06016 0.63586 0.0
C1071 C 0.07393 0.0932 0.64635 0.0
C1072 C 0.09963 0.2106 0.56496 0.0
C1073 C 0.10422 0.2209 0.59738 0.0
H1074 H 0.0899 0.18286 0.50644 0.0
C1075 C 0.98762 0.17148 0.59487 0.0
C1076 C 0.9927 0.09013 0.57786 0.0
C1077 C 0.864 0.14697 0.58524 0.0
C1078 C 0.81943 0.17504 0.59042 0.0
C1079 C 0.82602 0.14211 0.54373 0.0
C1080 C 0.85346 0.13451 0.55568 0.0
C1081 C 0.80908 0.16241 0.56092 0.0
C1082 C 0.84678 0.16713 0.6027 0.0
C1083 C 0.89234 0.13798 0.59845 0.0
H1084 H 0.12459 0.04832 0.73107 0.0
H1085 H 0.08622 0.08018 0.70981 0.0
H1086 H 0.15845 0.02433 0.69316 0.0
H1087 H 0.1151 0.06384 0.60938 0.0
H1088 H 0.81794 0.13237 0.521 0.0
H1089 H 0.86625 0.11862 0.5421 0.0
H1090 H 0.78805 0.16851 0.55107 0.0
H1091 H 0.8548 0.17708 0.62541 0.0
C1092 C 0.44501 0.90584 0.63758 0.0
C1093 C 0.44772 0.89796 0.69709 0.0
C1094 C 0.43279 0.90856 0.66903 0.0
C1095 C 0.47494 0.88455 0.69309 0.0
C1096 C 0.47204 0.89182 0.6334 0.0
C1097 C 0.48703 0.88143 0.66133 0.0
N1098 N 0.43029 0.91651 0.61102 0.0
C1099 C 0.44003 0.91163 0.57952 0.0
C1100 C 0.48305 0.88835 0.60119 0.0
C1101 C 0.46676 0.89796 0.57409 0.0
Gd1102 Gd 0.38386 0.02984 0.62749 0.0
Gd1103 Gd 0.38649 0.94036 0.62266 0.0
N1104 N 0.40654 0.92199 0.6722 0.0
C1105 C 0.4349 0.90122 0.7284 0.0
C1106 C 0.39366 0.92464 0.70262 0.0
C1107 C 0.40771 0.91449 0.73113 0.0
H1108 H 0.3727 0.93477 0.70528 0.0
H1109 H 0.39758 0.91695 0.75524 0.0
H1110 H 0.38759 0.03759 0.54481 0.0
H1111 H 0.42689 0.91769 0.55852 0.0
H1112 H 0.35898 0.06089 0.50006 0.0
H1113 H 0.44573 0.89347 0.75057 0.0
H1114 H 0.48674 0.87636 0.71439 0.0
H1115 H 0.36073 0.05905 0.69903 0.0
H1116 H 0.50372 0.87769 0.59693 0.0
H1117 H 0.47462 0.89457 0.54902 0.0
H1118 H 0.28253 0.11084 0.55825 0.0
H1119 H 0.50789 0.87075 0.65862 0.0
H1120 H 0.28636 0.11201 0.6774 0.0
H1121 H 0.32025 0.09052 0.71833 0.0
N1122 N 0.34875 0.06191 0.64823 0.0
C1123 C 0.33126 0.07454 0.62522 0.0
C1124 C 0.34586 0.06834 0.68116 0.0
C1125 C 0.30401 0.09826 0.66889 0.0
C1126 C 0.32309 0.08616 0.69208 0.0
C1127 C 0.30825 0.09292 0.63494 0.0
H1128 H 0.27228 0.11925 0.61755 0.0
N1129 N 0.35928 0.05195 0.58327 0.0
C1130 C 0.33666 0.06935 0.59178 0.0
C1131 C 0.32747 0.07928 0.5338 0.0
C1132 C 0.3197 0.08301 0.56721 0.0
C1133 C 0.36834 0.05001 0.55097 0.0
C1134 C 0.35225 0.06316 0.5257 0.0
O1135 O 0.42271 0.9655 0.6476 0.0
O1136 O 0.39711 1.00294 0.67126 0.0
O1137 O 0.40607 0.06833 0.60835 0.0
O1138 O 0.42002 0.04908 0.65418 0.0
O1139 O 0.35209 0.9591 0.65829 0.0
O1140 O 0.35424 0.0099 0.66722 0.0
O1141 O 0.36148 1.00275 0.58805 0.0
O1142 O 0.34394 0.96173 0.61092 0.0
O1143 O 0.36499 0.90021 0.63549 0.0
O1144 O 0.37359 0.9105 0.58336 0.0
O1145 O 0.42018 0.00501 0.60336 0.0
O1146 O 0.40364 0.96435 0.57662 0.0
C1147 C 0.41928 0.98506 0.6711 0.0
C1148 C 0.34327 0.98355 0.67322 0.0
C1149 C 0.42966 0.09936 0.64708 0.0
C1150 C 0.45293 0.1472 0.64225 0.0
C1151 C 0.43119 0.13201 0.69426 0.0
C1152 C 0.42221 0.10591 0.68007 0.0
C1153 C 0.44741 0.15168 0.67628 0.0
C1154 C 0.44453 0.12034 0.62788 0.0
C1155 C 0.42378 0.07018 0.63326 0.0
C1156 C 0.29612 0.10053 0.57677 0.0
C1157 C 0.29035 0.10541 0.61055 0.0
H1158 H 0.31503 0.08946 0.51417 0.0
C1159 C 0.3395 0.98553 0.59422 0.0
C1160 C 0.41978 0.9882 0.57707 0.0
C1161 C 0.36135 0.86128 0.597 0.0
C1162 C 0.33322 0.81672 0.59975 0.0
C1163 C 0.37761 0.8184 0.56709 0.0
C1164 C 0.38158 0.84759 0.57609 0.0
C1165 C 0.35338 0.80307 0.57855 0.0
C1166 C 0.3376 0.84565 0.60917 0.0
C1167 C 0.36209 0.89237 0.60453 0.0
H1168 H 0.42591 0.13755 0.71933 0.0
H1169 H 0.41016 0.09063 0.69514 0.0
H1170 H 0.45516 0.17078 0.68939 0.0
H1171 H 0.44931 0.11572 0.60204 0.0
H1172 H 0.39302 0.8078 0.55072 0.0
H1173 H 0.39996 0.85949 0.56633 0.0
H1174 H 0.35028 0.78067 0.57078 0.0
H1175 H 0.32163 0.85653 0.62472 0.0
C1176 C 0.43732 0.33028 0.65892 0.0
C1177 C 0.42424 0.34515 0.71482 0.0
C1178 C 0.43966 0.35001 0.685 0.0
C1179 C 0.4086 0.31921 0.71899 0.0
C1180 C 0.41946 0.30547 0.66203 0.0
C1181 C 0.40612 0.29945 0.69258 0.0
N1182 N 0.45056 0.33651 0.62967 0.0
C1183 C 0.44449 0.32067 0.60182 0.0
C1184 C 0.41427 0.28831 0.63384 0.0
C1185 C 0.4263 0.29637 0.60343 0.0
Gd1186 Gd 0.56646 0.38515 0.62307 0.0
Gd1187 Gd 0.47771 0.37953 0.62771 0.0
N1188 N 0.45453 0.37521 0.68001 0.0
C1189 C 0.42312 0.36742 0.73858 0.0
C1190 C 0.45189 0.39755 0.70242 0.0
C1191 C 0.43601 0.39412 0.73162 0.0
H1192 H 0.46073 0.41864 0.69733 0.0
H1193 H 0.43338 0.4123 0.74851 0.0
H1194 H 0.57413 0.34833 0.55131 0.0
H1195 H 0.4527 0.32752 0.57809 0.0
H1196 H 0.59282 0.35736 0.49474 0.0
H1197 H 0.41095 0.36483 0.76141 0.0
H1198 H 0.39707 0.31496 0.74192 0.0
H1199 H 0.59396 0.4395 0.67072 0.0
H1200 H 0.40037 0.26933 0.63509 0.0
H1201 H 0.42146 0.28395 0.58121 0.0
H1202 H 0.63101 0.45449 0.5002 0.0
H1203 H 0.39285 0.28018 0.6956 0.0
H1204 H 0.63238 0.50232 0.60615 0.0
H1205 H 0.61804 0.48695 0.66264 0.0
N1206 N 0.59206 0.42945 0.6192 0.0
C1207 C 0.60179 0.4364 0.58839 0.0
C1208 C 0.5991 0.44655 0.6459 0.0
C1209 C 0.6213 0.48174 0.60954 0.0
C1210 C 0.61318 0.47319 0.64144 0.0
C1211 C 0.6163 0.46298 0.58263 0.0
H1212 H 0.63698 0.49005 0.54556 0.0
N1213 N 0.58556 0.39034 0.56941 0.0
C1214 C 0.59873 0.41618 0.56286 0.0
C1215 C 0.60718 0.40092 0.50612 0.0
C1216 C 0.60968 0.42227 0.5309 0.0
C1217 C 0.5839 0.36907 0.54567 0.0
C1218 C 0.5945 0.37412 0.51364 0.0
O1219 O 0.5003 0.34132 0.65146 0.0
O1220 O 0.54423 0.36168 0.66772 0.0
O1221 O 0.60394 0.35666 0.61778 0.0
O1222 O 0.59795 0.38227 0.66288 0.0
O1223 O 0.50295 0.40435 0.66702 0.0
O1224 O 0.5456 0.42357 0.647 0.0
O1225 O 0.53951 0.40171 0.57877 0.0
O1226 O 0.49836 0.41912 0.60406 0.0
O1227 O 0.43937 0.4069 0.63321 0.0
O1228 O 0.44702 0.38346 0.5872 0.0
O1229 O 0.54678 0.34361 0.60666 0.0
O1230 O 0.50118 0.35433 0.58601 0.0
C1231 C 0.52408 0.34083 0.66974 0.0
C1232 C 0.5219 0.42559 0.66444 0.0
C1233 C 0.64588 0.36638 0.65036 0.0
C1234 C 0.6926 0.34155 0.65469 0.0
C1235 C 0.68974 0.39429 0.66014 0.0
C1236 C 0.65971 0.39325 0.65533 0.0
C1237 C 0.70616 0.36866 0.65977 0.0
C1238 C 0.66233 0.34074 0.65037 0.0
C1239 C 0.61426 0.36371 0.64689 0.0
C1240 C 0.62284 0.44929 0.52471 0.0
C1241 C 0.62615 0.46959 0.55052 0.0
H1242 H 0.61527 0.40479 0.48125 0.0
C1243 C 0.51771 0.42047 0.58012 0.0
C1244 C 0.52388 0.33667 0.58908 0.0
C1245 C 0.41821 0.42642 0.58452 0.0
C1246 C 0.37956 0.46226 0.57698 0.0
C1247 C 0.41759 0.45728 0.53577 0.0
C1248 C 0.43043 0.43508 0.55421 0.0
C1249 C 0.39248 0.47104 0.54716 0.0
C1250 C 0.39258 0.44 0.59573 0.0
C1251 C 0.43023 0.40164 0.60319 0.0
H1252 H 0.70037 0.41506 0.66398 0.0
H1253 H 0.64745 0.41329 0.6558 0.0
H1254 H 0.72947 0.37015 0.66276 0.0
H1255 H 0.65136 0.32001 0.64732 0.0
H1256 H 0.42671 0.46338 0.51216 0.0
H1257 H 0.44962 0.4244 0.54447 0.0
H1258 H 0.38235 0.48757 0.5319 0.0
H1259 H 0.38222 0.43262 0.61838 0.0
C1260 C 0.06011 0.59857 0.63911 0.0
C1261 C 0.06164 0.61333 0.69711 0.0
C1262 C 0.07492 0.59999 0.66935 0.0
C1263 C 0.0336 0.62512 0.69414 0.0
C1264 C 0.03217 0.61088 0.63595 0.0
C1265 C 0.01897 0.62399 0.66365 0.0
N1266 N 0.07319 0.58553 0.61266 0.0
C1267 C 0.06079 0.58631 0.5819 0.0
C1268 C 0.01854 0.61014 0.60483 0.0
C1269 C 0.03306 0.59806 0.57762 0.0
Gd1270 Gd 0.12729 0.48133 0.63215 0.0
Gd1271 Gd 0.12044 0.56892 0.62148 0.0
N1272 N 0.10231 0.5887 0.67148 0.0
C1273 C 0.07706 0.61479 0.72701 0.0
C1274 C 0.11772 0.59094 0.70037 0.0
C1275 C 0.10523 0.6037 0.72857 0.0
H1276 H 0.1398 0.58347 0.70202 0.0
H1277 H 0.11747 0.60522 0.75147 0.0
H1278 H 0.11219 0.47134 0.55142 0.0
H1279 H 0.07246 0.57839 0.56043 0.0
H1280 H 0.13266 0.44535 0.50315 0.0
H1281 H 0.06757 0.62483 0.74888 0.0
H1282 H 0.02315 0.6355 0.71521 0.0
H1283 H 0.16815 0.46239 0.69782 0.0
H1284 H 0.99713 0.61946 0.60139 0.0
H1285 H 0.0231 0.59818 0.55325 0.0
H1286 H 0.21482 0.3947 0.54758 0.0
H1287 H 0.99753 0.63357 0.66168 0.0
H1288 H 0.23538 0.40561 0.66358 0.0
H1289 H 0.21164 0.43289 0.70923 0.0
N1290 N 0.16953 0.45528 0.64554 0.0
C1291 C 0.18213 0.44033 0.62014 0.0
C1292 C 0.17947 0.45228 0.67734 0.0
C1293 C 0.21698 0.41953 0.65822 0.0
C1294 C 0.2037 0.43494 0.68403 0.0
C1295 C 0.20586 0.4216 0.62594 0.0
H1296 H 0.23527 0.39022 0.60372 0.0
N1297 N 0.14648 0.4595 0.58408 0.0
C1298 C 0.1703 0.44252 0.58852 0.0
C1299 C 0.16877 0.42795 0.53071 0.0
C1300 C 0.182 0.42615 0.56194 0.0
C1301 C 0.13227 0.45963 0.55423 0.0
C1302 C 0.14364 0.44459 0.52692 0.0
O1303 O 0.08337 0.54267 0.64208 0.0
O1304 O 0.10914 0.50995 0.67242 0.0
O1305 O 0.08658 0.45661 0.62503 0.0
O1306 O 0.12086 0.44075 0.65796 0.0
O1307 O 0.15737 0.55522 0.65692 0.0
O1308 O 0.1493 0.50717 0.67453 0.0
O1309 O 0.15187 0.50515 0.59193 0.0
O1310 O 0.16482 0.54959 0.61281 0.0
O1311 O 0.13019 0.61462 0.62646 0.0
O1312 O 0.12836 0.5949 0.57735 0.0
O1313 O 0.08959 0.49898 0.60239 0.0
O1314 O 0.10817 0.54006 0.57748 0.0
C1315 C 0.08577 0.5255 0.66764 0.0
C1316 C 0.16318 0.53259 0.67657 0.0
C1317 C 0.07812 0.41075 0.65488 0.0
C1318 C 0.04599 0.36967 0.64265 0.0
C1319 C 0.06095 0.3798 0.69945 0.0
C1320 C 0.07796 0.40292 0.68848 0.0
C1321 C 0.04488 0.36343 0.6768 0.0
C1322 C 0.06241 0.39375 0.63174 0.0
C1323 C 0.0957 0.43594 0.64446 0.0
C1324 C 0.20568 0.40758 0.56763 0.0
C1325 C 0.21727 0.40498 0.59963 0.0
H1326 H 0.1772 0.41581 0.50966 0.0
C1327 C 0.17154 0.52516 0.59759 0.0
C1328 C 0.08913 0.51866 0.57877 0.0
C1329 C 0.15538 0.639 0.58343 0.0
C1330 C 0.18681 0.68034 0.59469 0.0
C1331 C 0.17979 0.6636 0.53802 0.0
C1332 C 0.16119 0.64183 0.5493 0.0
C1333 C 0.19252 0.68285 0.56059 0.0
C1334 C 0.1684 0.65842 0.60613 0.0
C1335 C 0.13285 0.61861 0.5946 0.0
H1336 H 0.06068 0.37413 0.72552 0.0
H1337 H 0.09094 0.4149 0.70633 0.0
H1338 H 0.03267 0.34491 0.68582 0.0
H1339 H 0.06354 0.39874 0.60547 0.0
H1340 H 0.18406 0.66579 0.51171 0.0
H1341 H 0.15084 0.62765 0.53127 0.0
H1342 H 0.20679 0.69977 0.55147 0.0
H1343 H 0.16386 0.65702 0.6325 0.0
C1344 C 0.72048 0.47762 0.11505 0.0
C1345 C 0.70059 0.48978 0.09276 0.0
C1346 C 0.74971 0.4859 0.11529 0.0
C1347 C 0.76014 0.50504 0.09057 0.0
C1348 C 0.74083 0.51476 0.06544 0.0
C1349 C 0.71099 0.50795 0.06755 0.0
C1350 C 0.76844 0.47487 0.14337 0.0
C1351 C 0.75178 0.53229 0.03645 0.0
C1352 C 0.81897 0.55473 0.12298 0.0
C1353 C 0.84374 0.53752 0.11906 0.0
C1354 C 0.7919 0.54518 0.11168 0.0
C1355 C 0.78959 0.51823 0.09459 0.0
C1356 C 0.81515 0.50182 0.08809 0.0
C1357 C 0.84199 0.51145 0.10098 0.0
C1358 C 0.76538 0.56232 0.12159 0.0
C1359 C 0.81377 0.47265 0.07084 0.0
H1360 H 0.71295 0.46268 0.13372 0.0
H1361 H 0.69591 0.51661 0.04942 0.0
H1362 H 0.78959 0.48602 0.14608 0.0
H1363 H 0.75669 0.47763 0.16712 0.0
H1364 H 0.77246 0.45125 0.13968 0.0
H1365 H 0.73424 0.53748 0.01847 0.0
H1366 H 0.76174 0.55292 0.04515 0.0
H1367 H 0.76903 0.51977 0.02341 0.0
H1368 H 0.8204 0.57458 0.13764 0.0
H1369 H 0.86111 0.49779 0.09869 0.0
H1370 H 0.75217 0.54941 0.13927 0.0
H1371 H 0.75184 0.56653 0.09946 0.0
H1372 H 0.7709 0.58349 0.13347 0.0
H1373 H 0.80862 0.4556 0.08938 0.0
H1374 H 0.83492 0.46697 0.05922 0.0
H1375 H 0.79657 0.47234 0.05151 0.0
C1376 C 0.03717 0.72247 0.10716 0.0
C1377 C 0.01929 0.70279 0.08986 0.0
C1378 C 0.03031 0.75208 0.10924 0.0
C1379 C 0.00493 0.76253 0.09353 0.0
C1380 C 0.98911 0.74362 0.07225 0.0
C1381 C 0.9964 0.71382 0.07078 0.0
C1382 C 0.0493 0.77101 0.13089 0.0
C1383 C 0.96339 0.75456 0.05281 0.0
C1384 C 0.96292 0.81579 0.14717 0.0
C1385 C 0.97034 0.84273 0.13343 0.0
C1386 C 0.9733 0.7897 0.13348 0.0
C1387 C 0.99167 0.79038 0.10528 0.0
C1388 C 0.99893 0.81751 0.09086 0.0
C1389 C 0.98795 0.84345 0.10498 0.0
C1390 C 0.96555 0.76138 0.15013 0.0
C1391 C 0.01961 0.81925 0.0619 0.0
H1392 H 0.05575 0.71463 0.12105 0.0
H1393 H 0.98374 0.69912 0.05553 0.0
H1394 H 0.0438 0.79448 0.1299 0.0
H1395 H 0.04746 0.76346 0.15689 0.0
H1396 H 0.07238 0.76824 0.12353 0.0
H1397 H 0.95572 0.73832 0.03424 0.0
H1398 H 0.94533 0.75967 0.07013 0.0
H1399 H 0.96906 0.77499 0.03974 0.0
H1400 H 0.94911 0.81516 0.16897 0.0
H1401 H 0.99391 0.86431 0.0945 0.0
H1402 H 0.98527 0.75173 0.16147 0.0
H1403 H 0.95746 0.74564 0.13142 0.0
H1404 H 0.94883 0.76421 0.16976 0.0
H1405 H 0.04197 0.81464 0.07075 0.0
H1406 H 0.01945 0.84113 0.05024 0.0
H1407 H 0.01423 0.80262 0.04278 0.0
C1408 C 0.66242 1.00037 0.06985 0.0
C1409 C 0.65585 0.97625 0.08979 0.0
C1410 C 0.68911 0.0149 0.07303 0.0
C1411 C 0.70965 0.00478 0.0964 0.0
C1412 C 0.70129 0.98321 0.11951 0.0
C1413 C 0.67442 0.96911 0.116 0.0
C1414 C 0.69642 0.03901 0.04919 0.0
C1415 C 0.72183 0.97338 0.14614 0.0
C1416 C 0.78974 1.00148 0.07336 0.0
C1417 C 0.80167 0.0231 0.09376 0.0
C1418 C 0.7597 0.99593 0.07338 0.0
C1419 C 0.74094 0.01302 0.09357 0.0
C1420 C 0.75265 0.03633 0.11233 0.0
C1421 C 0.78276 0.04098 0.11228 0.0
C1422 C 0.7481 0.97119 0.05244 0.0
C1423 C 0.73379 0.05679 0.13232 0.0
H1424 H 0.6479 0.00599 0.04965 0.0
H1425 H 0.66938 0.95053 0.13151 0.0
H1426 H 0.70774 0.05703 0.0623 0.0
H1427 H 0.71128 0.0305 0.02973 0.0
H1428 H 0.6767 0.04781 0.03689 0.0
H1429 H 0.71091 0.95962 0.165 0.0
H1430 H 0.73986 0.96072 0.13478 0.0
H1431 H 0.73136 0.99276 0.15854 0.0
H1432 H 0.80385 0.98889 0.05739 0.0
H1433 H 0.79146 0.05846 0.1275 0.0
H1434 H 0.72917 0.97847 0.03758 0.0
H1435 H 0.74056 0.95343 0.06894 0.0
H1436 H 0.76473 0.96229 0.0352 0.0
H1437 H 0.72868 0.0761 0.1169 0.0
H1438 H 0.7455 0.06472 0.15474 0.0
H1439 H 0.71301 0.04672 0.14001 0.0
C1440 C 0.50326 0.7892 0.11685 0.0
C1441 C 0.48153 0.8008 0.09666 0.0
C1442 C 0.50899 0.75931 0.11776 0.0
C1443 C 0.49091 0.73977 0.09992 0.0
C1444 C 0.4672 0.75108 0.08143 0.0
C1445 C 0.46285 0.78158 0.07989 0.0
C1446 C 0.53515 0.74895 0.13715 0.0
C1447 C 0.44592 0.73123 0.06411 0.0
C1448 C 0.53593 0.67252 0.08865 0.0
C1449 C 0.53166 0.65922 0.11951 0.0
C1450 C 0.51921 0.6967 0.0791 0.0
C1451 C 0.49795 0.70793 0.10111 0.0
C1452 C 0.49038 0.69156 0.12962 0.0
C1453 C 0.50771 0.66757 0.13887 0.0
C1454 C 0.52689 0.71239 0.04749 0.0
C1455 C 0.46597 0.70137 0.15204 0.0
H1456 H 0.51556 0.80351 0.13276 0.0
H1457 H 0.44482 0.79035 0.06579 0.0
H1458 H 0.53018 0.72944 0.15206 0.0
H1459 H 0.55256 0.74271 0.11943 0.0
H1460 H 0.5437 0.76602 0.15417 0.0
H1461 H 0.43461 0.74258 0.0435 0.0
H1462 H 0.45664 0.71139 0.05415 0.0
H1463 H 0.42929 0.72422 0.08233 0.0
H1464 H 0.55432 0.66594 0.07354 0.0
H1465 H 0.5042 0.65714 0.16264 0.0
H1466 H 0.54095 0.73131 0.05355 0.0
H1467 H 0.50709 0.72074 0.03503 0.0
H1468 H 0.53878 0.69796 0.0299 0.0
H1469 H 0.46963 0.72406 0.16061 0.0
H1470 H 0.46349 0.68713 0.1741 0.0
H1471 H 0.44533 0.70136 0.13782 0.0
C1472 C 0.83924 0.9741 0.39965 0.0
C1473 C 0.84831 0.98252 0.36783 0.0
C1474 C 0.81447 0.98684 0.41446 0.0
C1475 C 0.79753 0.00716 0.39629 0.0
C1476 C 0.80968 0.01934 0.36703 0.0
C1477 C 0.83502 0.007 0.35344 0.0
C1478 C 0.80523 0.97662 0.44836 0.0
C1479 C 0.7955 0.0442 0.3486 0.0
C1480 C 0.71658 0.98927 0.40033 0.0
C1481 C 0.7039 0.01604 0.40803 0.0
C1482 C 0.74674 0.98607 0.39673 0.0
C1483 C 0.76548 0.01009 0.40332 0.0
C1484 C 0.75281 0.03677 0.41416 0.0
C1485 C 0.72227 0.03964 0.41532 0.0
C1486 C 0.75757 0.95697 0.38393 0.0
C1487 C 0.77087 0.06292 0.42358 0.0
H1488 H 0.84996 0.9561 0.41193 0.0
H1489 H 0.84315 0.01507 0.32994 0.0
H1490 H 0.79035 0.99239 0.46063 0.0
H1491 H 0.7941 0.95531 0.44606 0.0
H1492 H 0.82453 0.97338 0.46449 0.0
H1493 H 0.80226 0.04469 0.32211 0.0
H1494 H 0.77147 0.04324 0.34954 0.0
H1495 H 0.80252 0.06505 0.36007 0.0
H1496 H 0.70279 0.97127 0.39401 0.0
H1497 H 0.71279 0.06061 0.42145 0.0
H1498 H 0.75831 0.9413 0.40481 0.0
H1499 H 0.77926 0.95796 0.37219 0.0
H1500 H 0.74232 0.94799 0.36515 0.0
H1501 H 0.76253 0.07266 0.44702 0.0
H1502 H 0.76859 0.0798 0.4041 0.0
H1503 H 0.79419 0.05765 0.42689 0.0
C1504 C 0.50657 0.84296 0.39804 0.0
C1505 C 0.53644 0.84871 0.39667 0.0
C1506 C 0.49623 0.81607 0.40975 0.0
C1507 C 0.51636 0.79424 0.41921 0.0
C1508 C 0.54618 0.80161 0.42192 0.0
C1509 C 0.55577 0.82892 0.41093 0.0
C1510 C 0.46411 0.80987 0.40811 0.0
C1511 C 0.56897 0.77966 0.43142 0.0
C1512 C 0.49399 0.71684 0.44409 0.0
C1513 C 0.4944 0.70279 0.41313 0.0
C1514 C 0.50049 0.74688 0.44668 0.0
C1515 C 0.50761 0.76289 0.41769 0.0
C1516 C 0.50768 0.74853 0.38648 0.0
C1517 C 0.50099 0.71889 0.38475 0.0
C1518 C 0.49987 0.76152 0.48027 0.0
C1519 C 0.51518 0.76421 0.35466 0.0
H1520 H 0.49155 0.85821 0.38675 0.0
H1521 H 0.5789 0.83317 0.40944 0.0
H1522 H 0.45911 0.7979 0.38479 0.0
H1523 H 0.45722 0.79606 0.42924 0.0
H1524 H 0.45118 0.83031 0.40834 0.0
H1525 H 0.58597 0.7901 0.447 0.0
H1526 H 0.56001 0.76077 0.44501 0.0
H1527 H 0.57973 0.77181 0.40841 0.0
H1528 H 0.48848 0.70447 0.46606 0.0
H1529 H 0.50182 0.70802 0.36101 0.0
H1530 H 0.48461 0.78023 0.47979 0.0
H1531 H 0.52169 0.7703 0.48628 0.0
H1532 H 0.49319 0.74637 0.50029 0.0
H1533 H 0.49818 0.78057 0.34898 0.0
H1534 H 0.51686 0.74903 0.33318 0.0
H1535 H 0.53612 0.7759 0.35729 0.0
C1536 C 0.665 0.51366 0.43255 0.0
C1537 C 0.6577 0.53771 0.4129 0.0
C1538 C 0.69232 0.50035 0.42989 0.0
C1539 C 0.71303 0.51176 0.40749 0.0
C1540 C 0.70475 0.53418 0.38534 0.0
C1541 C 0.67721 0.54704 0.38844 0.0
C1542 C 0.69925 0.47513 0.45245 0.0
C1543 C 0.72557 0.54636 0.3601 0.0
C1544 C 0.79317 0.50951 0.43009 0.0
C1545 C 0.80381 0.4886 0.4078 0.0
C1546 C 0.76347 0.51671 0.43079 0.0
C1547 C 0.7439 0.50219 0.40919 0.0
C1548 C 0.75411 0.47921 0.38888 0.0
C1549 C 0.78386 0.47273 0.38847 0.0
C1550 C 0.75297 0.54007 0.45436 0.0
C1551 C 0.73411 0.46175 0.36679 0.0
H1552 H 0.64962 0.50578 0.45081 0.0
H1553 H 0.67168 0.56551 0.37299 0.0
H1554 H 0.7152 0.45995 0.44108 0.0
H1555 H 0.70859 0.48366 0.47597 0.0
H1556 H 0.67931 0.46271 0.45871 0.0
H1557 H 0.71388 0.55625 0.33879 0.0
H1558 H 0.73841 0.56367 0.37236 0.0
H1559 H 0.74078 0.52957 0.35051 0.0
H1560 H 0.80803 0.52026 0.44692 0.0
H1561 H 0.79144 0.45541 0.37244 0.0
H1562 H 0.73519 0.53149 0.4701 0.0
H1563 H 0.74395 0.55855 0.43997 0.0
H1564 H 0.77051 0.54823 0.47087 0.0
H1565 H 0.71106 0.46292 0.37461 0.0
H1566 H 0.74077 0.43852 0.36665 0.0
H1567 H 0.73577 0.47003 0.34103 0.0
C1568 C 0.0406 0.78507 0.40585 0.0
C1569 C 0.01893 0.80536 0.41446 0.0
C1570 C 0.03481 0.75498 0.40558 0.0
C1571 C 0.0066 0.7451 0.41365 0.0
C1572 C 0.98699 0.76489 0.42875 0.0
C1573 C 0.9934 0.79486 0.42903 0.0
C1574 C 0.05884 0.73412 0.39638 0.0
C1575 C 0.95822 0.75457 0.44198 0.0
C1576 C 0.96866 0.69524 0.35202 0.0
C1577 C 0.97116 0.66761 0.36649 0.0
C1578 C 0.98059 0.72004 0.36701 0.0
C1579 C 0.99495 0.7178 0.39802 0.0
C1580 C 0.99739 0.6901 0.41322 0.0
C1581 C 0.98555 0.66528 0.39723 0.0
C1582 C 0.97768 0.74885 0.34946 0.0
C1583 C 0.013 0.6865 0.44586 0.0
H1584 H 0.0616 0.79264 0.39738 0.0
H1585 H 0.97789 0.81002 0.43929 0.0
H1586 H 0.05067 0.71443 0.38336 0.0
H1587 H 0.07562 0.7448 0.38081 0.0
H1588 H 0.06963 0.72682 0.41955 0.0
H1589 H 0.94819 0.77091 0.45887 0.0
H1590 H 0.94322 0.75041 0.42093 0.0
H1591 H 0.96096 0.73377 0.45557 0.0
H1592 H 0.95696 0.69767 0.32883 0.0
H1593 H 0.98787 0.64405 0.40859 0.0
H1594 H 0.99941 0.75832 0.34511 0.0
H1595 H 0.96567 0.76437 0.3654 0.0
H1596 H 0.96616 0.74689 0.32535 0.0
H1597 H 0.03676 0.68661 0.4413 0.0
H1598 H 0.00732 0.6656 0.45803 0.0
H1599 H 0.00797 0.70474 0.46311 0.0
C1600 C 0.1659 0.48852 0.89381 0.0
C1601 C 0.16848 0.47055 0.86564 0.0
C1602 C 0.19094 0.49978 0.90969 0.0
C1603 C 0.21885 0.49317 0.89664 0.0
C1604 C 0.2212 0.47401 0.86917 0.0
C1605 C 0.1962 0.46249 0.85466 0.0
C1606 C 0.18733 0.5201 0.93892 0.0
C1607 C 0.25016 0.46707 0.85357 0.0
C1608 C 0.28501 0.54055 0.89252 0.0
C1609 C 0.30518 0.52366 0.91014 0.0
C1610 C 0.25557 0.53296 0.89129 0.0
C1611 C 0.24583 0.50801 0.90845 0.0
C1612 C 0.26524 0.49337 0.93004 0.0
C1613 C 0.29477 0.50138 0.93064 0.0
C1614 C 0.23577 0.54966 0.86838 0.0
C1615 C 0.25531 0.46762 0.95012 0.0
H1616 H 0.1445 0.49476 0.90249 0.0
H1617 H 0.19833 0.4481 0.83335 0.0
H1618 H 0.20565 0.51814 0.95669 0.0
H1619 H 0.18677 0.54288 0.92989 0.0
H1620 H 0.16665 0.51585 0.95224 0.0
H1621 H 0.24853 0.44987 0.83418 0.0
H1622 H 0.25936 0.48693 0.84208 0.0
H1623 H 0.26554 0.46003 0.87298 0.0
H1624 H 0.29243 0.55869 0.87773 0.0
H1625 H 0.3098 0.48953 0.94618 0.0
H1626 H 0.2136 0.55156 0.87886 0.0
H1627 H 0.23415 0.53784 0.84433 0.0
H1628 H 0.2442 0.57187 0.8635 0.0
H1629 H 0.23439 0.4726 0.96258 0.0
H1630 H 0.27155 0.46128 0.96918 0.0
H1631 H 0.25156 0.44878 0.9333 0.0
C1632 C 0.96925 0.28719 0.90237 0.0
C1633 C 0.99041 0.3072 0.9131 0.0
C1634 C 0.97482 0.25705 0.90231 0.0
C1635 C 1.00215 0.24675 0.91346 0.0
C1636 C 0.02074 0.26633 0.93054 0.0
C1637 C 0.01478 0.29639 0.92996 0.0
C1638 C 0.95167 0.23681 0.88905 0.0
C1639 C 0.0481 0.25579 0.94714 0.0
C1640 C 0.01868 0.166 0.89574 0.0
C1641 C 0.03637 0.16828 0.86742 0.0
C1642 C 0.00778 0.19122 0.91187 0.0
C1643 C 0.01458 0.21921 0.89916 0.0
C1644 C 0.03306 0.22121 0.87108 0.0
C1645 C 0.04389 0.19598 0.85607 0.0
C1646 C 0.98853 0.18766 0.94184 0.0
C1647 C 0.04269 0.24991 0.85689 0.0
H1648 H 0.94918 0.29506 0.89157 0.0
H1649 H 0.03004 0.3114 0.94112 0.0
H1650 H 0.96068 0.2166 0.87795 0.0
H1651 H 0.93733 0.23043 0.90992 0.0
H1652 H 0.93792 0.24781 0.87018 0.0
H1653 H 0.05552 0.2713 0.96664 0.0
H1654 H 0.04465 0.23406 0.95845 0.0
H1655 H 0.06564 0.25368 0.92845 0.0
H1656 H 0.01292 0.14461 0.90489 0.0
H1657 H 0.05853 0.19803 0.8351 0.0
H1658 H 0.96559 0.18635 0.93354 0.0
H1659 H 0.99058 0.20632 0.95933 0.0
H1660 H 0.99366 0.16722 0.95529 0.0
H1661 H 0.04747 0.2481 0.82989 0.0
H1662 H 0.063 0.25587 0.86975 0.0
H1663 H 0.02677 0.2677 0.86058 0.0
C1664 C 0.21912 0.01683 0.91632 0.0
C1665 C 0.20643 0.98946 0.91312 0.0
C1666 C 0.24922 0.02061 0.9167 0.0
C1667 C 0.26763 0.99589 0.91614 0.0
C1668 C 0.2551 0.96772 0.91616 0.0
C1669 C 0.22464 0.96482 0.91395 0.0
C1670 C 0.26066 0.05143 0.9147 0.0
C1671 C 0.27378 0.94077 0.9181 0.0
C1672 C 0.33551 0.02146 0.87523 0.0
C1673 C 0.3494 0.03449 0.90241 0.0
C1674 C 0.3107 1.0043 0.87979 0.0
C1675 C 0.29951 1.00042 0.91223 0.0
C1676 C 0.31634 0.00944 0.93992 0.0
C1677 C 0.34114 0.0267 0.93467 0.0
C1678 C 0.29418 0.99413 0.84961 0.0
C1679 C 0.3056 0.00514 0.97491 0.0
H1680 H 0.20566 0.03562 0.91671 0.0
H1681 H 0.21516 0.94327 0.91227 0.0
H1682 H 0.2825 0.05414 0.92565 0.0
H1683 H 0.26179 0.05788 0.88817 0.0
H1684 H 0.24586 0.06679 0.92763 0.0
H1685 H 0.26096 0.9205 0.9146 0.0
H1686 H 0.29131 0.94132 0.89925 0.0
H1687 H 0.2844 0.94 0.94283 0.0
H1688 H 0.34212 0.02732 0.85028 0.0
H1689 H 0.35192 0.03681 0.95572 0.0
H1690 H 0.276 0.00941 0.84483 0.0
H1691 H 0.28474 0.97232 0.85379 0.0
H1692 H 0.3083 0.99314 0.82727 0.0
H1693 H 0.28971 0.02256 0.98105 0.0
H1694 H 0.32368 0.00637 0.99314 0.0
H1695 H 0.29445 0.98386 0.97744 0.0
C1696 C 0.50353 0.2141 0.94155 0.0
C1697 C 0.52548 0.20435 0.92008 0.0
C1698 C 0.49505 0.24358 0.942 0.0
C1699 C 0.50971 0.26383 0.92155 0.0
C1700 C 0.5354 0.25489 0.90494 0.0
C1701 C 0.54284 0.22524 0.90428 0.0
C1702 C 0.46911 0.25273 0.96236 0.0
C1703 C 0.55482 0.27592 0.88665 0.0
C1704 C 0.46257 0.31688 0.87372 0.0
C1705 C 0.47219 0.34381 0.88554 0.0
C1706 C 0.47364 0.29082 0.88625 0.0
C1707 C 0.49495 0.29152 0.91176 0.0
C1708 C 0.50325 0.3188 0.92555 0.0
C1709 C 0.49189 0.34479 0.91206 0.0
C1710 C 0.46203 0.26303 0.87119 0.0
C1711 C 0.52484 0.32053 0.95363 0.0
H1712 H 0.49201 0.19853 0.95669 0.0
H1713 H 0.56117 0.21834 0.88928 0.0
H1714 H 0.4746 0.27221 0.97754 0.0
H1715 H 0.45102 0.25897 0.94563 0.0
H1716 H 0.46146 0.2351 0.979 0.0
H1717 H 0.56376 0.26572 0.86374 0.0
H1718 H 0.54385 0.29654 0.87987 0.0
H1719 H 0.57355 0.28138 0.90287 0.0
H1720 H 0.44702 0.31618 0.85346 0.0
H1721 H 0.49931 0.36574 0.92121 0.0
H1722 H 0.4393 0.26055 0.87961 0.0
H1723 H 0.47444 0.24324 0.8778 0.0
H1724 H 0.46121 0.26467 0.84368 0.0
H1725 H 0.51876 0.30511 0.97361 0.0
H1726 H 0.52628 0.34284 0.9643 0.0
H1727 H 0.54664 0.31411 0.94447 0.0
C1728 C 0.17382 1.00174 0.63301 0.0
C1729 C 0.16275 0.02965 0.6264 0.0
C1730 C 0.20063 0.99259 0.61999 0.0
C1731 C 0.21655 0.01151 0.59911 0.0
C1732 C 0.20373 0.03809 0.58898 0.0
C1733 C 0.17707 0.047 0.60292 0.0
C1734 C 0.21345 0.96423 0.63185 0.0
C1735 C 0.21951 0.05833 0.56578 0.0
C1736 C 0.29734 0.013 0.61668 0.0
C1737 C 0.30902 0.99564 0.59146 0.0
C1738 C 0.26762 0.01889 0.61868 0.0
C1739 C 0.24849 0.00684 0.59477 0.0
C1740 C 0.26005 0.98941 0.5687 0.0
C1741 C 0.29021 0.98371 0.56762 0.0
C1742 C 0.25679 0.03756 0.6471 0.0
C1743 C 0.24068 0.97578 0.54275 0.0
H1744 H 0.16251 0.98784 0.65043 0.0
H1745 H 0.16868 0.0685 0.59737 0.0
H1746 H 0.22135 0.95115 0.61046 0.0
H1747 H 0.23239 0.96888 0.64807 0.0
H1748 H 0.19759 0.95105 0.64612 0.0
H1749 H 0.20478 0.07509 0.55527 0.0
H1750 H 0.23714 0.06958 0.57954 0.0
H1751 H 0.22967 0.04588 0.54511 0.0
H1752 H 0.3112 0.02114 0.63593 0.0
H1753 H 0.29894 0.9693 0.54869 0.0
H1754 H 0.23666 0.02853 0.65782 0.0
H1755 H 0.2515 0.05959 0.63771 0.0
H1756 H 0.27313 0.03975 0.66726 0.0
H1757 H 0.232 0.95493 0.55237 0.0
H1758 H 0.25289 0.97092 0.51958 0.0
H1759 H 0.222 0.99009 0.5367 0.0
C1760 C 0.54079 0.28542 0.5961 0.0
C1761 C 0.52193 0.30518 0.58019 0.0
C1762 C 0.5354 0.25544 0.59581 0.0
C1763 C 0.51055 0.24484 0.57919 0.0
C1764 C 0.49454 0.26392 0.5584 0.0
C1765 C 0.50053 0.29402 0.55901 0.0
C1766 C 0.55421 0.2357 0.61672 0.0
C1767 C 0.46897 0.25291 0.53865 0.0
C1768 C 0.48547 0.16666 0.596 0.0
C1769 C 0.4665 0.1714 0.62292 0.0
C1770 C 0.49961 0.19028 0.58039 0.0
C1771 C 0.49566 0.21885 0.59311 0.0
C1772 C 0.47739 0.22329 0.62084 0.0
C1773 C 0.46158 0.20014 0.63353 0.0
C1774 C 0.5199 0.18446 0.55175 0.0
C1775 C 0.47685 0.2517 0.63986 0.0
H1776 H 0.55855 0.29338 0.61127 0.0
H1777 H 0.48743 0.30884 0.54448 0.0
H1778 H 0.54105 0.22473 0.63604 0.0
H1779 H 0.56381 0.21847 0.60075 0.0
H1780 H 0.57211 0.24766 0.62927 0.0
H1781 H 0.46009 0.2698 0.52177 0.0
H1782 H 0.47546 0.23358 0.52375 0.0
H1783 H 0.45151 0.24588 0.5558 0.0
H1784 H 0.48982 0.14464 0.58759 0.0
H1785 H 0.44613 0.20473 0.65314 0.0
H1786 H 0.54265 0.18668 0.56042 0.0
H1787 H 0.51653 0.20058 0.53167 0.0
H1788 H 0.51706 0.16218 0.5414 0.0
H1789 H 0.49715 0.25329 0.65454 0.0
H1790 H 0.45837 0.25296 0.65745 0.0
H1791 H 0.47629 0.27074 0.62325 0.0
C1792 C 0.21841 0.52268 0.56625 0.0
C1793 C 0.20246 0.51743 0.59516 0.0
C1794 C 0.24836 0.51636 0.56503 0.0
C1795 C 0.26245 0.50497 0.59352 0.0
C1796 C 0.24633 0.50069 0.62292 0.0
C1797 C 0.21657 0.50657 0.62315 0.0
C1798 C 0.26484 0.52138 0.53323 0.0
C1799 C 0.26054 0.49056 0.65448 0.0
C1800 C 0.32666 0.45435 0.5809 0.0
C1801 C 0.35023 0.47306 0.58518 0.0
C1802 C 0.29817 0.4647 0.58347 0.0
C1803 C 0.29301 0.49431 0.59152 0.0
C1804 C 0.3169 0.51303 0.59768 0.0
C1805 C 0.34535 0.50231 0.59363 0.0
C1806 C 0.2735 0.4438 0.57797 0.0
C1807 C 0.31269 0.54444 0.60774 0.0
H1808 H 0.2075 0.53157 0.5447 0.0
H1809 H 0.20432 0.50255 0.64541 0.0
H1810 H 0.28348 0.5361 0.53799 0.0
H1811 H 0.27377 0.50039 0.52396 0.0
H1812 H 0.25099 0.53107 0.51357 0.0
H1813 H 0.24436 0.48646 0.67433 0.0
H1814 H 0.27326 0.47038 0.65024 0.0
H1815 H 0.27578 0.50769 0.66311 0.0
H1816 H 0.33056 0.43176 0.57425 0.0
H1817 H 0.36374 0.51678 0.59683 0.0
H1818 H 0.25785 0.45267 0.55962 0.0
H1819 H 0.26195 0.44122 0.60186 0.0
H1820 H 0.28094 0.42202 0.56937 0.0
H1821 H 0.31064 0.55793 0.58507 0.0
H1822 H 0.33159 0.55263 0.62218 0.0
H1823 H 0.29277 0.54752 0.62284 0.0
C1824 C 0.05081 0.33242 0.59774 0.0
C1825 C 0.03284 0.34837 0.61922 0.0
C1826 C 0.04152 0.3057 0.58423 0.0
C1827 C 0.01362 0.29486 0.59237 0.0
C1828 C 0.99409 0.31291 0.61026 0.0
C1829 C 0.00403 0.33937 0.62376 0.0
C1830 C 0.06305 0.28724 0.56537 0.0
C1831 C 0.96369 0.30285 0.61808 0.0
C1832 C 0.98751 0.21929 0.56458 0.0
C1833 C 0.99596 0.20244 0.59187 0.0
C1834 C 0.99369 0.24943 0.56358 0.0
C1835 C 0.0081 0.26282 0.5908 0.0
C1836 C 0.01686 0.24555 0.61807 0.0
C1837 C 0.0107 0.21576 0.61811 0.0
C1838 C 0.98449 0.26692 0.53378 0.0
C1839 C 0.03175 0.25866 0.64806 0.0
H1840 H 0.07313 0.33925 0.5943 0.0
H1841 H 0.98999 0.35191 0.64007 0.0
H1842 H 0.07214 0.27072 0.58244 0.0
H1843 H 0.05237 0.27548 0.54456 0.0
H1844 H 0.08128 0.30042 0.55547 0.0
H1845 H 0.95094 0.3197 0.63158 0.0
H1846 H 0.95212 0.29722 0.59476 0.0
H1847 H 0.96449 0.28283 0.63337 0.0
H1848 H 0.97586 0.209 0.54428 0.0
H1849 H 0.01709 0.20299 0.63917 0.0
H1850 H 1.00317 0.27944 0.52397 0.0
H1851 H 0.96761 0.28292 0.54117 0.0
H1852 H 0.97564 0.25293 0.5136 0.0
H1853 H 0.04051 0.24174 0.66481 0.0
H1854 H 0.01593 0.27209 0.66218 0.0
H1855 H 0.04996 0.27296 0.64063 0.0
C1856 C 0.05823 0.70764 0.19763 0.0
C1857 C 0.03173 0.69277 0.19363 0.0
C1858 C 0.06014 0.73347 0.21695 0.0
C1859 C 0.03496 0.74512 0.23247 0.0
C1860 C 0.0083 0.73025 0.22848 0.0
C1861 C 0.0072 0.70438 0.20969 0.0
C1862 C 0.08906 0.74852 0.2204 0.0
C1863 C 0.98065 0.7417 0.24397 0.0
C1864 C 0.04203 0.79108 0.31158 0.0
C1865 C 0.03342 0.81879 0.301 0.0
C1866 C 0.04267 0.76714 0.2895 0.0
C1867 C 0.03653 0.77121 0.25535 0.0
C1868 C 0.02934 0.79962 0.24418 0.0
C1869 C 0.02716 0.82287 0.26722 0.0
C1870 C 0.04886 0.73717 0.30297 0.0
C1871 C 0.02457 0.80563 0.20786 0.0
H1872 H 0.0775 0.69929 0.18544 0.0
H1873 H 0.98682 0.69332 0.20773 0.0
H1874 H 0.08699 0.77174 0.21325 0.0
H1875 H 0.09619 0.748 0.24671 0.0
H1876 H 0.10612 0.73815 0.20481 0.0
H1877 H 0.96267 0.72565 0.2427 0.0
H1878 H 0.98427 0.74771 0.27033 0.0
H1879 H 0.97373 0.7617 0.23076 0.0
H1880 H 0.04698 0.7878 0.33754 0.0
H1881 H 0.02101 0.84439 0.25874 0.0
H1882 H 0.07039 0.7296 0.29415 0.0
H1883 H 0.03235 0.72132 0.29419 0.0
H1884 H 0.04876 0.73699 0.33037 0.0
H1885 H 0.04557 0.80326 0.19468 0.0
H1886 H 0.01644 0.828 0.20341 0.0
H1887 H 0.00913 0.78977 0.19696 0.0
C1888 C 0.71601 0.01025 0.31074 0.0
C1889 C 0.69172 0.0275 0.30373 0.0
C1890 C 0.74094 0.01078 0.29058 0.0
C1891 C 0.74133 0.02821 0.26151 0.0
C1892 C 0.71594 0.04426 0.25323 0.0
C1893 C 0.69185 0.04441 0.27488 0.0
C1894 C 0.7661 0.99171 0.30064 0.0
C1895 C 0.71329 0.05939 0.22023 0.0
C1896 C 0.81031 0.05394 0.21639 0.0
C1897 C 0.81695 0.02993 0.19597 0.0
C1898 C 0.78626 0.05357 0.23825 0.0
C1899 C 0.76757 0.02891 0.23911 0.0
C1900 C 0.77384 0.00501 0.21791 0.0
C1901 C 0.79762 0.0064 0.19609 0.0
C1902 C 0.78152 0.07972 0.26052 0.0
C1903 C 0.75627 0.97729 0.21878 0.0
H1904 H 0.71565 0.9963 0.33232 0.0
H1905 H 0.67266 0.05668 0.26833 0.0
H1906 H 0.76074 0.96866 0.29513 0.0
H1907 H 0.78682 0.99757 0.28838 0.0
H1908 H 0.7691 0.99273 0.32782 0.0
H1909 H 0.69183 0.07006 0.21689 0.0
H1910 H 0.73047 0.07604 0.21744 0.0
H1911 H 0.71625 0.04302 0.20016 0.0
H1912 H 0.82379 0.07308 0.21579 0.0
H1913 H 0.80051 0.98924 0.17817 0.0
H1914 H 0.76828 0.07464 0.28276 0.0
H1915 H 0.77038 0.09704 0.24621 0.0
H1916 H 0.80265 0.0888 0.26892 0.0
H1917 H 0.76397 0.96356 0.23947 0.0
H1918 H 0.75946 0.964 0.19605 0.0
H1919 H 0.73278 0.98173 0.22234 0.0
C1920 C 0.50167 0.81203 0.21674 0.0
C1921 C 0.47838 0.81821 0.19531 0.0
C1922 C 0.50151 0.78741 0.23778 0.0
C1923 C 0.47765 0.76766 0.23721 0.0
C1924 C 0.45441 0.77346 0.21489 0.0
C1925 C 0.45487 0.79867 0.19486 0.0
C1926 C 0.5274 0.78317 0.26024 0.0
C1927 C 0.42879 0.75315 0.21155 0.0
C1928 C 0.49242 0.69123 0.27304 0.0
C1929 C 0.47583 0.69112 0.30226 0.0
C1930 C 0.49345 0.71579 0.25199 0.0
C1931 C 0.4769 0.74113 0.25963 0.0
C1932 C 0.45939 0.74081 0.28872 0.0
C1933 C 0.45891 0.71593 0.3093 0.0
C1934 C 0.51319 0.71459 0.22217 0.0
C1935 C 0.44111 0.76668 0.29876 0.0
H1936 H 0.52016 0.82661 0.21738 0.0
H1937 H 0.43689 0.80261 0.17807 0.0
H1938 H 0.5253 0.76451 0.27735 0.0
H1939 H 0.54709 0.77986 0.24475 0.0
H1940 H 0.53102 0.80323 0.2752 0.0
H1941 H 0.42023 0.75321 0.18573 0.0
H1942 H 0.43429 0.7304 0.21826 0.0
H1943 H 0.41109 0.76085 0.22809 0.0
H1944 H 0.50462 0.67198 0.26641 0.0
H1945 H 0.44563 0.71631 0.33152 0.0
H1946 H 0.53502 0.72245 0.22955 0.0
H1947 H 0.50527 0.72869 0.20193 0.0
H1948 H 0.51557 0.69197 0.21264 0.0
H1949 H 0.4505 0.78756 0.29014 0.0
H1950 H 0.43847 0.76781 0.32618 0.0
H1951 H 0.41915 0.76426 0.28777 0.0
C1952 C 0.69273 0.49229 0.22548 0.0
C1953 C 0.68772 0.47153 0.20044 0.0
C1954 C 0.71742 0.49087 0.24614 0.0
C1955 C 0.73882 0.46899 0.24069 0.0
C1956 C 0.73286 0.44686 0.21671 0.0
C1957 C 0.70702 0.44794 0.19789 0.0
C1958 C 0.72074 0.51363 0.27309 0.0
C1959 C 0.75396 0.42257 0.20895 0.0
C1960 C 0.81223 0.49601 0.27454 0.0
C1961 C 0.81809 0.47611 0.3 0.0
C1962 C 0.78751 0.49312 0.25397 0.0
C1963 C 0.76727 0.47014 0.25949 0.0
C1964 C 0.77393 0.44921 0.28427 0.0
C1965 C 0.79948 0.45203 0.30327 0.0
C1966 C 0.78414 0.51478 0.22608 0.0
C1967 C 0.75434 0.42363 0.29142 0.0
H1968 H 0.67728 0.50974 0.22916 0.0
H1969 H 0.70299 0.4311 0.17948 0.0
H1970 H 0.73327 0.50527 0.29456 0.0
H1971 H 0.73233 0.53277 0.26289 0.0
H1972 H 0.69924 0.52127 0.28213 0.0
H1973 H 0.75455 0.41814 0.18182 0.0
H1974 H 0.77636 0.42724 0.2175 0.0
H1975 H 0.74616 0.40224 0.22073 0.0
H1976 H 0.8272 0.51373 0.27018 0.0
H1977 H 0.8043 0.43556 0.32165 0.0
H1978 H 0.76347 0.51292 0.21221 0.0
H1979 H 0.80214 0.51162 0.20812 0.0
H1980 H 0.7861 0.53729 0.23605 0.0
H1981 H 0.73118 0.42853 0.2863 0.0
H1982 H 0.75644 0.41645 0.31758 0.0
H1983 H 0.76119 0.40485 0.2759 0.0
C1984 C 1.00309 0.20722 0.70798 0.0
C1985 C 0.97821 0.19263 0.69663 0.0
C1986 C 1.00149 0.23326 0.72624 0.0
C1987 C 0.9741 0.2447 0.7352 0.0
C1988 C 0.94865 0.22939 0.72566 0.0
C1989 C 0.95096 0.20396 0.70584 0.0
C1990 C 0.02929 0.24865 0.73592 0.0
C1991 C 0.91902 0.23996 0.73615 0.0
C1992 C 0.98053 0.29463 0.81035 0.0
C1993 C 0.97899 0.32236 0.7962 0.0
C1994 C 0.97745 0.26932 0.79094 0.0
C1995 C 0.97281 0.27167 0.75631 0.0
C1996 C 0.97036 0.29981 0.74198 0.0
C1997 C 0.97361 0.32487 0.76212 0.0
C1998 C 0.97894 0.23996 0.80752 0.0
C1999 C 0.96519 0.30394 0.70535 0.0
H2000 H 0.02411 0.19893 0.70171 0.0
H2001 H 0.93138 0.193 0.69766 0.0
H2002 H 0.02866 0.27157 0.72728 0.0
H2003 H 0.03163 0.24917 0.76334 0.0
H2004 H 0.04884 0.23792 0.72539 0.0
H2005 H 0.9019 0.22346 0.73125 0.0
H2006 H 0.91888 0.24549 0.76304 0.0
H2007 H 0.91355 0.26007 0.7223 0.0
H2008 H 0.98432 0.29279 0.83676 0.0
H2009 H 0.97185 0.34636 0.75123 0.0
H2010 H 0.99488 0.22547 0.79508 0.0
H2011 H 0.95741 0.22922 0.80596 0.0
H2012 H 0.98523 0.2419 0.83387 0.0
H2013 H 0.98625 0.30848 0.69307 0.0
H2014 H 0.95082 0.32298 0.70098 0.0
H2015 H 0.95532 0.28454 0.69341 0.0
C2016 C 0.29756 0.95885 0.69309 0.0
C2017 C 0.31806 0.98133 0.69663 0.0
C2018 C 0.27247 0.9576 0.71321 0.0
C2019 C 0.26797 0.97881 0.73851 0.0
C2020 C 0.28899 1.00127 0.74253 0.0
C2021 C 0.31345 1.00234 0.72147 0.0
C2022 C 0.25061 0.93377 0.70669 0.0
C2023 C 0.2856 0.02532 0.76793 0.0
C2024 C 0.1925 0.99688 0.77353 0.0
C2025 C 0.19108 0.97953 0.80204 0.0
C2026 C 0.21711 0.99664 0.7527 0.0
C2027 C 0.24102 0.97816 0.75993 0.0
C2028 C 0.23927 0.95979 0.78818 0.0
C2029 C 0.2144 0.96066 0.80871 0.0
C2030 C 0.21699 0.01582 0.72248 0.0
C2031 C 0.26357 0.93915 0.79705 0.0
H2032 H 0.3006 0.94262 0.67375 0.0
H2033 H 0.32903 0.01978 0.72461 0.0
H2034 H 0.25389 0.91596 0.72478 0.0
H2035 H 0.22804 0.94193 0.70946 0.0
H2036 H 0.2531 0.92432 0.68138 0.0
H2037 H 0.27939 0.04568 0.75497 0.0
H2038 H 0.26895 0.02066 0.78701 0.0
H2039 H 0.30666 0.02957 0.7805 0.0
H2040 H 0.1742 0.01064 0.76729 0.0
H2041 H 0.21358 0.94697 0.83057 0.0
H2042 H 0.21173 1.00223 0.70042 0.0
H2043 H 0.23844 0.02602 0.71839 0.0
H2044 H 0.20066 0.03352 0.72461 0.0
H2045 H 0.26169 0.91915 0.78169 0.0
H2046 H 0.26247 0.93243 0.8235 0.0
H2047 H 0.28515 0.94898 0.7922 0.0
C2048 C 0.51908 0.22023 0.81671 0.0
C2049 C 0.5245 0.19173 0.80542 0.0
C2050 C 0.52271 0.24469 0.79571 0.0
C2051 C 0.53092 0.24089 0.76198 0.0
C2052 C 0.53652 0.21209 0.75047 0.0
C2053 C 0.53387 0.18808 0.77239 0.0
C2054 C 0.51779 0.27485 0.80951 0.0
C2055 C 0.54501 0.20663 0.71478 0.0
C2056 C 0.50239 0.2988 0.70167 0.0
C2057 C 0.52682 0.31604 0.6944 0.0
C2058 C 0.50369 0.27463 0.72313 0.0
C2059 C 0.53027 0.26662 0.73822 0.0
C2060 C 0.55526 0.28389 0.73133 0.0
C2061 C 0.55322 0.30835 0.70975 0.0
C2062 C 0.47636 0.25731 0.72934 0.0
C2063 C 0.58408 0.277 0.74724 0.0
H2064 H 0.51268 0.22345 0.84232 0.0
H2065 H 0.53881 0.1663 0.76356 0.0
H2066 H 0.53715 0.28863 0.80495 0.0
H2067 H 0.49909 0.28527 0.79687 0.0
H2068 H 0.51347 0.27455 0.83648 0.0
H2069 H 0.54879 0.18316 0.7095 0.0
H2070 H 0.52764 0.21466 0.69802 0.0
H2071 H 0.56506 0.21891 0.70879 0.0
H2072 H 0.48185 0.30395 0.69027 0.0
H2073 H 0.57242 0.3212 0.70461 0.0
H2074 H 0.47174 0.25628 0.75635 0.0
H2075 H 0.47939 0.23462 0.72033 0.0
H2076 H 0.45714 0.26679 0.71677 0.0
H2077 H 0.58372 0.28444 0.77351 0.0
H2078 H 0.60233 0.28807 0.73443 0.0
H2079 H 0.58824 0.2532 0.74726 0.0
C2080 C 0.21265 0.55268 0.69202 0.0
C2081 C 0.18891 0.53472 0.6998 0.0
C2082 C 0.23863 0.55228 0.71087 0.0
C2083 C 0.24103 0.5342 0.73938 0.0
C2084 C 0.21678 0.51649 0.74774 0.0
C2085 C 0.1913 0.51692 0.72799 0.0
C2086 C 0.26342 0.57111 0.69921 0.0
C2087 C 0.21723 0.49682 0.77762 0.0
C2088 C 0.31444 0.51126 0.77783 0.0
C2089 C 0.31945 0.53289 0.80185 0.0
C2090 C 0.28926 0.51108 0.75783 0.0
C2091 C 0.26845 0.53395 0.76053 0.0
C2092 C 0.27392 0.55655 0.78398 0.0
C2093 C 0.29923 0.55585 0.80403 0.0
C2094 C 0.28558 0.48583 0.73418 0.0
C2095 C 0.25265 0.58125 0.78857 0.0
H2096 H 0.21151 0.56631 0.67014 0.0
H2097 H 0.17315 0.50318 0.73479 0.0
H2098 H 0.28465 0.56475 0.70995 0.0
H2099 H 0.26514 0.57018 0.6717 0.0
H2100 H 0.25884 0.59411 0.70602 0.0
H2101 H 0.20578 0.47611 0.77201 0.0
H2102 H 0.23937 0.49126 0.78607 0.0
H2103 H 0.20589 0.50792 0.79845 0.0
H2104 H 0.33031 0.49421 0.77442 0.0
H2105 H 0.30282 0.57314 0.82195 0.0
H2106 H 0.29849 0.49014 0.71151 0.0
H2107 H 0.26267 0.48196 0.7273 0.0
H2108 H 0.29422 0.46547 0.74526 0.0
H2109 H 0.25227 0.59488 0.76593 0.0
H2110 H 0.25834 0.59544 0.81002 0.0
H2111 H 0.2304 0.57254 0.79227 0.0
C2112 C 0.22865 0.69662 0.10066 0.0
C2113 C 0.19941 0.70467 0.1031 0.0
C2114 C 0.25043 0.71392 0.11502 0.0
C2115 C 0.24264 0.74017 0.13133 0.0
C2116 C 0.21292 0.74739 0.1355 0.0
C2117 C 0.19158 0.72936 0.12144 0.0
C2118 C 0.28178 0.70496 0.11116 0.0
C2119 C 0.20368 0.77524 0.15257 0.0
C2120 C 0.29541 0.78525 0.1825 0.0
C2121 C 0.30342 0.80677 0.15968 0.0
C2122 C 0.27669 0.76253 0.17329 0.0
C2123 C 0.26535 0.76168 0.14062 0.0
C2124 C 0.27433 0.78272 0.11709 0.0
C2125 C 0.29346 0.80493 0.12686 0.0
C2126 C 0.26813 0.74025 0.19891 0.0
C2127 C 0.26261 0.78257 0.08201 0.0
H2128 H 0.23449 0.67731 0.08653 0.0
H2129 H 0.16887 0.73546 0.1231 0.0
H2130 H 0.29282 0.71989 0.09365 0.0
H2131 H 0.29327 0.7066 0.13534 0.0
H2132 H 0.28397 0.68234 0.10154 0.0
H2133 H 0.17999 0.77567 0.15771 0.0
H2134 H 0.21552 0.77823 0.17633 0.0
H2135 H 0.20908 0.79401 0.13644 0.0
H2136 H 0.30333 0.7866 0.20784 0.0
H2137 H 0.29947 0.8217 0.10929 0.0
H2138 H 0.26951 0.71792 0.18838 0.0
H2139 H 0.24527 0.74396 0.20651 0.0
H2140 H 0.28203 0.74147 0.22145 0.0
H2141 H 0.26663 0.76113 0.07005 0.0
H2142 H 0.27256 0.79978 0.06642 0.0
H2143 H 0.23875 0.78599 0.08251 0.0
C2144 C 0.79066 0.1993 0.14495 0.0
C2145 C 0.80642 0.20376 0.11562 0.0
C2146 C 0.77305 0.22165 0.15807 0.0
C2147 C 0.77084 0.24837 0.14077 0.0
C2148 C 0.79044 0.2542 0.11442 0.0
C2149 C 0.80801 0.23174 0.10223 0.0
C2150 C 0.75492 0.21545 0.18837 0.0
C2151 C 0.79005 0.2828 0.09594 0.0
C2152 C 0.70162 0.27801 0.10817 0.0
C2153 C 0.70482 0.30732 0.11683 0.0
C2154 C 0.72071 0.257 0.12049 0.0
C2155 C 0.74359 0.26577 0.1419 0.0
C2156 C 0.74358 0.29437 0.15524 0.0
C2157 C 0.72425 0.31515 0.14215 0.0
C2158 C 0.71852 0.22626 0.10716 0.0
C2159 C 0.76529 0.30332 0.18141 0.0
H2160 H 0.7901 0.17781 0.15598 0.0
H2161 H 0.82107 0.2353 0.0802 0.0
H2162 H 0.74495 0.23545 0.19897 0.0
H2163 H 0.73749 0.19976 0.18185 0.0
H2164 H 0.76856 0.205 0.20772 0.0
H2165 H 0.8078 0.28426 0.07735 0.0
H2166 H 0.76903 0.28539 0.08277 0.0
H2167 H 0.79233 0.30129 0.11355 0.0
H2168 H 0.68573 0.27195 0.08947 0.0
H2169 H 0.72592 0.33778 0.14971 0.0
H2170 H 0.71792 0.21059 0.12801 0.0
H2171 H 0.73783 0.22107 0.09172 0.0
H2172 H 0.69879 0.22291 0.09174 0.0
H2173 H 0.76278 0.28911 0.20347 0.0
H2174 H 0.76245 0.32638 0.18925 0.0
H2175 H 0.78778 0.30028 0.17219 0.0
C2176 C 0.27623 0.70167 0.31654 0.0
C2177 C 0.29203 0.69052 0.34341 0.0
C2178 C 0.25842 0.72631 0.32053 0.0
C2179 C 0.25619 0.73965 0.35223 0.0
C2180 C 0.27305 0.72907 0.37904 0.0
C2181 C 0.29083 0.7047 0.37424 0.0
C2182 C 0.24187 0.73788 0.29103 0.0
C2183 C 0.27125 0.74256 0.41331 0.0
C2184 C 0.22247 0.81225 0.37448 0.0
C2185 C 0.19593 0.80306 0.38769 0.0
C2186 C 0.2415 0.79214 0.35964 0.0
C2187 C 0.23389 0.76227 0.35898 0.0
C2188 C 0.20611 0.75343 0.37018 0.0
C2189 C 0.18738 0.77404 0.38436 0.0
C2190 C 0.27052 0.80255 0.34701 0.0
C2191 C 0.19712 0.72181 0.36978 0.0
H2192 H 0.27784 0.69111 0.29246 0.0
H2193 H 0.30315 0.69611 0.39496 0.0
H2194 H 0.21854 0.74061 0.29717 0.0
H2195 H 0.25042 0.75966 0.28436 0.0
H2196 H 0.24376 0.72335 0.26899 0.0
H2197 H 0.2874 0.73313 0.43073 0.0
H2198 H 0.27484 0.7664 0.41204 0.0
H2199 H 0.24921 0.73905 0.4237 0.0
H2200 H 0.22884 0.83487 0.37711 0.0
H2201 H 0.16676 0.7672 0.3947 0.0
H2202 H 0.27647 0.79118 0.3236 0.0
H2203 H 0.28755 0.79762 0.36565 0.0
H2204 H 0.27052 0.82642 0.34258 0.0
H2205 H 0.20095 0.71208 0.34489 0.0
H2206 H 0.17388 0.71895 0.37635 0.0
H2207 H 0.2105 0.70952 0.38789 0.0
C2208 C 0.77951 0.3008 0.40859 0.0
C2209 C 0.80172 0.30861 0.38682 0.0
C2210 C 0.75636 0.28361 0.39786 0.0
C2211 C 0.75545 0.27398 0.36433 0.0
C2212 C 0.77627 0.2843 0.34135 0.0
C2213 C 0.79943 0.30157 0.35296 0.0
C2214 C 0.73414 0.274 0.42322 0.0
C2215 C 0.77497 0.2759 0.30508 0.0
C2216 C 0.72419 0.20033 0.37336 0.0
C2217 C 0.69485 0.20787 0.375 0.0
C2218 C 0.74489 0.22101 0.36398 0.0
C2219 C 0.73562 0.2496 0.35598 0.0
C2220 C 0.70567 0.25534 0.35168 0.0
C2221 C 0.68545 0.2345 0.36212 0.0
C2222 C 0.77662 0.21365 0.36825 0.0
C2223 C 0.69484 0.28477 0.34082 0.0
H2224 H 0.78097 0.30712 0.43455 0.0
H2225 H 0.81644 0.30822 0.33602 0.0
H2226 H 0.71193 0.2794 0.41461 0.0
H2227 H 0.73532 0.25005 0.42651 0.0
H2228 H 0.7375 0.28449 0.44785 0.0
H2229 H 0.78888 0.2902 0.2896 0.0
H2230 H 0.78254 0.25314 0.30185 0.0
H2231 H 0.75233 0.27698 0.29572 0.0
H2232 H 0.73123 0.17944 0.38298 0.0
H2233 H 0.66253 0.23991 0.36273 0.0
H2234 H 0.78449 0.22296 0.39212 0.0
H2235 H 0.7898 0.22316 0.34802 0.0
H2236 H 0.78031 0.18974 0.36868 0.0
H2237 H 0.69026 0.29838 0.36306 0.0
H2238 H 0.67427 0.28256 0.32659 0.0
H2239 H 0.71105 0.29625 0.32529 0.0
C2240 C 0.73683 0.19972 0.8188 0.0
C2241 C 0.71305 0.19469 0.83974 0.0
C2242 C 0.75299 0.22558 0.8214 0.0
C2243 C 0.74528 0.24656 0.84578 0.0
C2244 C 0.71998 0.24254 0.86509 0.0
C2245 C 0.70436 0.2166 0.86205 0.0
C2246 C 0.77932 0.22932 0.79956 0.0
C2247 C 0.71065 0.2646 0.89097 0.0
C2248 C 0.80261 0.28641 0.89495 0.0
C2249 C 0.79902 0.31495 0.88382 0.0
C2250 C 0.78622 0.26368 0.88136 0.0
C2251 C 0.76596 0.26972 0.85581 0.0
C2252 C 0.76334 0.29838 0.84329 0.0
C2253 C 0.7798 0.32087 0.85778 0.0
C2254 C 0.78971 0.23339 0.89535 0.0
C2255 C 0.74272 0.30535 0.8153 0.0
H2256 H 0.74322 0.18321 0.8009 0.0
H2257 H 0.68611 0.21292 0.87849 0.0
H2258 H 0.78393 0.2526 0.79458 0.0
H2259 H 0.7985 0.21984 0.81223 0.0
H2260 H 0.77651 0.21774 0.77546 0.0
H2261 H 0.68846 0.26019 0.9005 0.0
H2262 H 0.72601 0.26403 0.91221 0.0
H2263 H 0.7111 0.28693 0.88061 0.0
H2264 H 0.81789 0.28202 0.91483 0.0
H2265 H 0.77769 0.343 0.84883 0.0
H2266 H 0.79368 0.21749 0.87501 0.0
H2267 H 0.7694 0.22684 0.9081 0.0
H2268 H 0.80789 0.23199 0.91342 0.0
H2269 H 0.74554 0.28958 0.79456 0.0
H2270 H 0.74598 0.32774 0.80564 0.0
H2271 H 0.72 0.30338 0.82416 0.0
C2272 C 0.31084 0.72068 0.85535 0.0
C2273 C 0.3006 0.69689 0.87356 0.0
C2274 C 0.29147 0.74221 0.84424 0.0
C2275 C 0.26177 0.74007 0.85292 0.0
C2276 C 0.25106 0.71358 0.86612 0.0
C2277 C 0.27077 0.69225 0.87642 0.0
C2278 C 0.30342 0.76902 0.82769 0.0
C2279 C 0.21942 0.70978 0.87487 0.0
C2280 C 0.22684 0.79913 0.90352 0.0
C2281 C 0.20263 0.80585 0.88418 0.0
C2282 C 0.24807 0.77993 0.89191 0.0
C2283 C 0.24486 0.76697 0.86003 0.0
C2284 C 0.22205 0.77618 0.83889 0.0
C2285 C 0.20097 0.79564 0.85134 0.0
C2286 C 0.27237 0.7715 0.91525 0.0
C2287 C 0.21928 0.76451 0.80392 0.0
H2288 H 0.33404 0.72395 0.85272 0.0
H2289 H 0.26304 0.67355 0.8902 0.0
H2290 H 0.28694 0.77946 0.81155 0.0
H2291 H 0.31009 0.78503 0.84696 0.0
H2292 H 0.32287 0.76357 0.81257 0.0
H2293 H 0.214 0.68661 0.87972 0.0
H2294 H 0.21443 0.72262 0.89761 0.0
H2295 H 0.20525 0.71783 0.85464 0.0
H2296 H 0.2283 0.80774 0.92862 0.0
H2297 H 0.18242 0.80151 0.83618 0.0
H2298 H 0.2937 0.77386 0.90283 0.0
H2299 H 0.2699 0.74837 0.92255 0.0
H2300 H 0.27259 0.78501 0.93822 0.0
H2301 H 0.23917 0.76979 0.78964 0.0
H2302 H 0.20022 0.77376 0.79073 0.0
H2303 H 0.21732 0.74044 0.80411 0.0
C2304 C 0.80459 0.22659 0.59475 0.0
C2305 C 0.80255 0.1982 0.60674 0.0
C2306 C 0.78702 0.24876 0.60772 0.0
C2307 C 0.7668 0.2422 0.63312 0.0
C2308 C 0.76553 0.21365 0.64628 0.0
C2309 C 0.7835 0.19185 0.63279 0.0
C2310 C 0.78923 0.27895 0.59317 0.0
C2311 C 0.74419 0.20559 0.67315 0.0
C2312 C 0.73408 0.30962 0.67285 0.0
C2313 C 0.70992 0.31427 0.65226 0.0
C2314 C 0.75192 0.28506 0.66848 0.0
C2315 C 0.74532 0.26474 0.64303 0.0
C2316 C 0.71988 0.26829 0.62378 0.0
C2317 C 0.70272 0.29315 0.62834 0.0
C2318 C 0.77848 0.2815 0.69005 0.0
C2319 C 0.71164 0.24668 0.59698 0.0
H2320 H 0.81949 0.23124 0.5746 0.0
H2321 H 0.78206 0.1697 0.64188 0.0
H2322 H 0.76892 0.28421 0.5796 0.0
H2323 H 0.79181 0.29537 0.61326 0.0
H2324 H 0.80774 0.281 0.57566 0.0
H2325 H 0.75167 0.18624 0.68725 0.0
H2326 H 0.74053 0.22383 0.69083 0.0
H2327 H 0.72303 0.20014 0.6615 0.0
H2328 H 0.73935 0.32542 0.69201 0.0
H2329 H 0.68427 0.29655 0.6121 0.0
H2330 H 0.7983 0.28411 0.67468 0.0
H2331 H 0.7791 0.25929 0.70077 0.0
H2332 H 0.77914 0.29768 0.71066 0.0
H2333 H 0.7269 0.24867 0.57578 0.0
H2334 H 0.68923 0.2503 0.58765 0.0
H2335 H 0.71327 0.22409 0.60644 0.0
C2336 C 0.29827 0.80049 0.64366 0.0
C2337 C 0.30647 0.80165 0.6101 0.0
C2338 C 0.2737 0.78462 0.6535 0.0
C2339 C 0.25725 0.76972 0.62909 0.0
C2340 C 0.26405 0.77324 0.59492 0.0
C2341 C 0.28873 0.78897 0.58594 0.0
C2342 C 0.26656 0.78278 0.69002 0.0
C2343 C 0.2464 0.75887 0.56772 0.0
C2344 C 0.2293 0.69478 0.62792 0.0
C2345 C 0.20092 0.70062 0.61782 0.0
C2346 C 0.24737 0.71746 0.63846 0.0
C2347 C 0.23659 0.74635 0.63811 0.0
C2348 C 0.20645 0.75125 0.63435 0.0
C2349 C 0.18884 0.72819 0.62344 0.0
C2350 C 0.2791 0.71113 0.64439 0.0
C2351 C 0.19379 0.78143 0.63713 0.0
H2352 H 0.31165 0.81107 0.66231 0.0
H2353 H 0.2945 0.79098 0.55993 0.0
H2354 H 0.2436 0.77666 0.69446 0.0
H2355 H 0.28074 0.76624 0.70179 0.0
H2356 H 0.27096 0.80394 0.70255 0.0
H2357 H 0.25362 0.76542 0.54251 0.0
H2358 H 0.24832 0.73485 0.56963 0.0
H2359 H 0.22312 0.76463 0.57032 0.0
H2360 H 0.23826 0.67316 0.62409 0.0
H2361 H 0.16651 0.73234 0.61632 0.0
H2362 H 0.28728 0.72393 0.66585 0.0
H2363 H 0.2918 0.71752 0.62215 0.0
H2364 H 0.283 0.68763 0.64915 0.0
H2365 H 0.20373 0.79343 0.65827 0.0
H2366 H 0.16986 0.78076 0.64057 0.0
H2367 H 0.19853 0.79376 0.61413 0.0
C2368 C 0.98108 0.44397 0.97047 0.0
C2369 C 0.99661 0.44369 0.9405 0.0
C2370 C 0.98401 0.46714 0.99335 0.0
C2371 C 0.0045 0.48953 0.98723 0.0
C2372 C 0.02164 0.48829 0.95811 0.0
C2373 C 0.01705 0.4659 0.93489 0.0
C2374 C 0.96434 0.46823 0.02331 0.0
C2375 C 0.04496 0.51064 0.95141 0.0
C2376 C 0.99926 0.56621 0.02306 0.0
C2377 C 0.01585 0.56406 0.0521 0.0
C2378 C 0.99386 0.54165 0.00301 0.0
C2379 C 0.0076 0.51484 0.01046 0.0
C2380 C 0.02533 0.51284 0.03916 0.0
C2381 C 0.0278 0.53702 0.06057 0.0
C2382 C 0.97306 0.54435 0.97416 0.0
C2383 C 0.04191 0.48537 0.04715 0.0
H2384 H 0.96645 0.42624 0.97606 0.0
H2385 H 0.02969 0.46592 0.91219 0.0
H2386 H 0.97722 0.47004 0.04647 0.0
H2387 H 0.95037 0.48789 0.02191 0.0
H2388 H 0.95019 0.44872 0.02503 0.0
H2389 H 0.05808 0.50517 0.92907 0.0
H2390 H 0.03503 0.53237 0.94765 0.0
H2391 H 0.05971 0.51239 0.97316 0.0
H2392 H 0.98991 0.58688 0.01619 0.0
H2393 H 0.03911 0.53474 0.084 0.0
H2394 H 0.95731 0.52605 0.97428 0.0
H2395 H 0.98515 0.54321 0.95038 0.0
H2396 H 0.96079 0.56519 0.97488 0.0
H2397 H 0.02669 0.46809 0.0551 0.0
H2398 H 0.05799 0.48886 0.06735 0.0
H2399 H 0.05351 0.47725 0.02476 0.0
C2400 C 0.06816 0.00861 0.97602 0.0
C2401 C 0.06637 0.99437 0.94522 0.0
C2402 C 0.04306 0.01434 0.99505 0.0
C2403 C 0.01568 1.00376 0.98421 0.0
C2404 C 0.01403 0.98833 0.95364 0.0
C2405 C 0.03909 0.98508 0.93389 0.0
C2406 C 0.04588 0.03206 0.02658 0.0
C2407 C 0.98587 0.97507 0.94181 0.0
C2408 C 0.96093 0.99154 0.05362 0.0
C2409 C 0.94091 0.01451 0.04943 0.0
C2410 C 0.98451 0.98737 0.03203 0.0
C2411 C 0.98929 0.00722 0.00587 0.0
C2412 C 0.96914 0.03029 0.00103 0.0
C2413 C 0.94482 0.0332 0.02231 0.0
C2414 C 0.0044 0.96162 0.03744 0.0
C2415 C 0.97385 0.0526 0.9742 0.0
H2416 H 0.08904 0.0161 0.98489 0.0
H2417 H 0.03738 0.97503 0.90953 0.0
H2418 H 0.02852 0.04882 0.02795 0.0
H2419 H 0.04342 0.01768 0.04844 0.0
H2420 H 0.06729 0.04309 0.02835 0.0
H2421 H 0.98901 0.9608 0.91972 0.0
H2422 H 0.97586 0.96202 0.96192 0.0
H2423 H 0.97031 0.99254 0.93521 0.0
H2424 H 0.95844 0.97654 0.07407 0.0
H2425 H 0.92916 0.05034 0.01789 0.0
H2426 H 0.02612 0.9693 0.04547 0.0
H2427 H 0.00735 0.94933 0.01386 0.0
H2428 H 0.99597 0.94649 0.0566 0.0
H2429 H 0.9936 0.06547 0.9801 0.0
H2430 H 0.95518 0.06779 0.97185 0.0
H2431 H 0.97758 0.04185 0.94987 0.0
C2432 C 0.53409 0.03696 0.93925 0.0
C2433 C 0.52255 0.06475 0.94587 0.0
C2434 C 0.5285 0.01305 0.96026 0.0
C2435 C 0.51124 0.01679 0.98919 0.0
C2436 C 0.49994 0.04493 0.99632 0.0
C2437 C 0.50548 0.0684 0.97454 0.0
C2438 C 0.54068 0.98357 0.95109 0.0
C2439 C 0.48207 0.05033 0.02717 0.0
C2440 C 0.47294 0.95029 0.02672 0.0
C2441 C 0.49132 0.94258 0.05301 0.0
C2442 C 0.47906 0.97425 0.00598 0.0
C2443 C 0.50443 0.99117 0.0114 0.0
C2444 C 0.52323 0.98334 0.03791 0.0
C2445 C 0.51643 0.95925 0.0583 0.0
C2446 C 0.45827 0.98141 0.9782 0.0
C2447 C 0.55051 1.00049 0.04492 0.0
H2448 H 0.54719 0.03369 0.91717 0.0
H2449 H 0.4966 0.08972 0.98016 0.0
H2450 H 0.55404 0.97496 0.97177 0.0
H2451 H 0.52262 0.96799 0.94692 0.0
H2452 H 0.55426 0.98431 0.9283 0.0
H2453 H 0.47462 0.07329 0.02918 0.0
H2454 H 0.46279 0.03588 0.02727 0.0
H2455 H 0.49511 0.045 0.04953 0.0
H2456 H 0.45387 0.93732 0.02204 0.0
H2457 H 0.53051 0.95388 0.07885 0.0
H2458 H 0.46988 0.98101 0.95405 0.0
H2459 H 0.44951 1.00373 0.98169 0.0
H2460 H 0.43976 0.96595 0.9769 0.0
H2461 H 0.56585 0.99803 0.02385 0.0
H2462 H 0.56159 0.99318 0.06796 0.0
H2463 H 0.54536 0.02401 0.04732 0.0
C2464 C 0.53574 0.48555 0.06778 0.0
C2465 C 0.5639 0.49065 0.05606 0.0
C2466 C 0.51143 0.48944 0.04715 0.0
C2467 C 0.51522 0.50053 0.01464 0.0
C2468 C 0.54373 0.50627 0.00296 0.0
C2469 C 0.56779 0.5006 0.02358 0.0
C2470 C 0.48176 0.48148 0.06013 0.0
C2471 C 0.54875 0.51944 0.96915 0.0
C2472 C 0.45885 0.48889 0.94683 0.0
C2473 C 0.44204 0.5145 0.94839 0.0
C2474 C 0.4817 0.48361 0.96908 0.0
C2475 C 0.4895 0.50525 0.9925 0.0
C2476 C 0.4726 0.53107 0.99466 0.0
C2477 C 0.44821 0.53463 0.97379 0.0
C2478 C 0.49757 0.45481 0.96731 0.0
C2479 C 0.48039 0.55524 0.01859 0.0
H2480 H 0.53277 0.47829 0.09316 0.0
H2481 H 0.58956 0.5051 0.01479 0.0
H2482 H 0.46802 0.50124 0.06203 0.0
H2483 H 0.47089 0.46627 0.04259 0.0
H2484 H 0.48282 0.47109 0.08498 0.0
H2485 H 0.57214 0.52324 0.96406 0.0
H2486 H 0.53991 0.50501 0.94945 0.0
H2487 H 0.53703 0.54053 0.96745 0.0
H2488 H 0.45432 0.4726 0.92815 0.0
H2489 H 0.43441 0.55344 0.97718 0.0
H2490 H 0.49879 0.44488 0.99237 0.0
H2491 H 0.52015 0.45826 0.95866 0.0
H2492 H 0.48687 0.43912 0.95015 0.0
H2493 H 0.47263 0.54964 0.04382 0.0
H2494 H 0.47022 0.57623 0.01134 0.0
H2495 H 0.50427 0.55833 0.01989 0.0
C2496 C 0.97834 0.06424 0.52444 0.0
C2497 C 0.99699 0.06715 0.55183 0.0
C2498 C 0.981 0.04055 0.50219 0.0
C2499 C 0.00404 0.02031 0.5061 0.0
C2500 C 0.0242 0.02441 0.53221 0.0
C2501 C 0.02013 0.0473 0.55498 0.0
C2502 C 0.95857 0.03663 0.47521 0.0
C2503 C 0.05011 0.00453 0.53623 0.0
C2504 C 1.00002 0.94237 0.47309 0.0
C2505 C 0.01355 0.94485 0.44212 0.0
C2506 C 0.99573 0.96699 0.49349 0.0
C2507 C 0.00684 0.99442 0.48356 0.0
C2508 C 0.02138 0.99673 0.45265 0.0
C2509 C 0.02335 0.97219 0.4317 0.0
C2510 C 0.9789 0.96373 0.52544 0.0
C2511 C 0.03507 0.02496 0.4417 0.0
H2512 H 0.96138 0.08017 0.52056 0.0
H2513 H 0.03527 0.04946 0.57543 0.0
H2514 H 0.9691 0.03667 0.45046 0.0
H2515 H 0.94776 0.01519 0.47809 0.0
H2516 H 0.94174 0.05397 0.47577 0.0
H2517 H 0.06476 0.01173 0.55661 0.0
H2518 H 0.04278 0.98205 0.5416 0.0
H2519 H 0.06271 1.00369 0.51273 0.0
H2520 H 0.99214 0.92132 0.48105 0.0
H2521 H 0.03294 0.97431 0.40723 0.0
H2522 H 0.9611 0.98003 0.52649 0.0
H2523 H 0.99332 0.96791 0.547 0.0
H2524 H 0.96939 0.94163 0.52805 0.0
H2525 H 0.0179 0.04074 0.4348 0.0
H2526 H 0.04959 0.02184 0.41993 0.0
H2527 H 0.04785 0.03478 0.46227 0.0
C2528 C 0.45992 0.01916 0.55451 0.0
C2529 C 0.4433 0.99347 0.55203 0.0
C2530 C 0.48385 0.02435 0.53373 0.0
C2531 C 0.49203 1.00321 0.50985 0.0
C2532 C 0.47512 0.97748 0.50658 0.0
C2533 C 0.45061 0.97325 0.52716 0.0
C2534 C 0.50044 0.05255 0.53749 0.0
C2535 C 0.48339 0.95405 0.48194 0.0
C2536 C 0.53889 0.02496 0.43572 0.0
C2537 C 0.56694 0.01804 0.4467 0.0
C2538 C 0.51455 0.0212 0.45637 0.0
C2539 C 0.51801 0.00835 0.48809 0.0
C2540 C 0.54637 1.00096 0.49912 0.0
C2541 C 0.57055 0.00655 0.47859 0.0
C2542 C 0.48511 0.03079 0.44408 0.0
C2543 C 0.55119 0.98659 0.53232 0.0
H2544 H 0.45439 0.03544 0.57304 0.0
H2545 H 0.43756 0.95393 0.52395 0.0
H2546 H 0.52318 0.04798 0.54486 0.0
H2547 H 0.50118 0.06411 0.51334 0.0
H2548 H 0.49063 0.06729 0.55638 0.0
H2549 H 0.46836 0.93515 0.48268 0.0
H2550 H 0.4835 0.96299 0.4564 0.0
H2551 H 0.50573 0.94625 0.48729 0.0
H2552 H 0.536 0.03329 0.41076 0.0
H2553 H 0.59215 1.00076 0.48695 0.0
H2554 H 0.47466 0.04532 0.46268 0.0
H2555 H 0.47082 0.01158 0.44079 0.0
H2556 H 0.48646 0.04253 0.42005 0.0
H2557 H 0.54737 1.00262 0.55255 0.0
H2558 H 0.57363 0.97798 0.53487 0.0
H2559 H 0.53564 0.96841 0.53583 0.0
C2560 C 0.53262 0.44692 0.52687 0.0
C2561 C 0.51507 0.4451 0.55539 0.0
C2562 C 0.52974 0.47017 0.50393 0.0
C2563 C 0.50826 0.49207 0.50888 0.0
C2564 C 0.49037 0.49017 0.53747 0.0
C2565 C 0.49427 0.46724 0.56036 0.0
C2566 C 0.54987 0.47138 0.47443 0.0
C2567 C 0.46684 0.51242 0.5439 0.0
C2568 C 0.51306 0.5677 0.46761 0.0
C2569 C 0.49335 0.56532 0.44104 0.0
C2570 C 0.51861 0.54401 0.48921 0.0
C2571 C 0.50419 0.51695 0.48446 0.0
C2572 C 0.48452 0.51439 0.45738 0.0
C2573 C 0.47932 0.5384 0.4363 0.0
C2574 C 0.53977 0.54807 0.51747 0.0
C2575 C 0.46896 0.48615 0.4504 0.0
H2576 H 0.54851 0.43003 0.52227 0.0
H2577 H 0.48059 0.46658 0.58224 0.0
H2578 H 0.53714 0.4722 0.45105 0.0
H2579 H 0.56307 0.49156 0.47567 0.0
H2580 H 0.56479 0.45237 0.47334 0.0
H2581 H 0.45398 0.50743 0.56652 0.0
H2582 H 0.4766 0.53435 0.54688 0.0
H2583 H 0.45186 0.51343 0.52232 0.0
H2584 H 0.52383 0.58832 0.47195 0.0
H2585 H 0.46429 0.53592 0.41576 0.0
H2586 H 0.55731 0.53156 0.51574 0.0
H2587 H 0.52854 0.54473 0.54153 0.0
H2588 H 0.54971 0.57009 0.51759 0.0
H2589 H 0.4849 0.46935 0.44257 0.0
H2590 H 0.45227 0.48837 0.43063 0.0
H2591 H 0.45837 0.47816 0.47323 0.0
C2592 C 0.0359 0.51917 0.5682 0.0
C2593 C 0.0642 0.51804 0.55551 0.0
C2594 C 0.01161 0.5171 0.54715 0.0
C2595 C 0.01563 0.51213 0.51267 0.0
C2596 C 0.04432 0.51101 0.49973 0.0
C2597 C 0.06827 0.51461 0.52125 0.0
C2598 C 0.98164 0.51995 0.562 0.0
C2599 C 0.04973 0.50516 0.46333 0.0
C2600 C 0.95241 0.47514 0.46751 0.0
C2601 C 0.94129 0.49766 0.44783 0.0
C2602 C 0.97709 0.47928 0.48774 0.0
C2603 C 0.98988 0.50727 0.49045 0.0
C2604 C 0.97758 0.53065 0.47247 0.0
C2605 C 0.95392 0.52548 0.45108 0.0
C2606 C 0.98987 0.45345 0.50566 0.0
C2607 C 0.98913 0.56128 0.47614 0.0
H2608 H 0.03279 0.52208 0.59472 0.0
H2609 H 0.09019 0.51354 0.5115 0.0
H2610 H 0.96812 0.53496 0.54698 0.0
H2611 H 0.97078 0.49842 0.56189 0.0
H2612 H 0.98233 0.52816 0.588 0.0
H2613 H 0.07324 0.50348 0.45747 0.0
H2614 H 0.03892 0.48457 0.45575 0.0
H2615 H 0.04021 0.52286 0.44815 0.0
H2616 H 0.94223 0.45413 0.46694 0.0
H2617 H 0.94523 0.54352 0.43696 0.0
H2618 H 0.98809 0.45669 0.5329 0.0
H2619 H 0.01331 0.45139 0.49966 0.0
H2620 H 0.97886 0.43273 0.49892 0.0
H2621 H 0.9861 0.56879 0.50216 0.0
H2622 H 0.97804 0.57686 0.45932 0.0
H2623 H 0.01275 0.56185 0.47092 0.0
C2624 C 0.94091 0.52281 0.29012 0.0
C2625 C 0.94367 0.49773 0.30917 0.0
C2626 C 0.962 0.53052 0.26711 0.0
C2627 C 0.98614 0.51205 0.26175 0.0
C2628 C 0.98938 0.48652 0.28097 0.0
C2629 C 0.96825 0.47992 0.3051 0.0
C2630 C 0.95843 0.55886 0.24883 0.0
C2631 C 0.01513 0.4666 0.27657 0.0
C2632 C 0.00699 0.53437 0.17716 0.0
C2633 C 0.02125 0.56021 0.18557 0.0
C2634 C 0.99942 0.5144 0.20198 0.0
C2635 C 0.00699 0.52053 0.23548 0.0
C2636 C 0.02608 0.54386 0.24259 0.0
C2637 C 0.03195 0.56422 0.21773 0.0
C2638 C 0.97899 0.4899 0.19318 0.0
C2639 C 0.0362 0.55013 0.27752 0.0
H2640 H 0.92211 0.53665 0.29327 0.0
H2641 H 0.97085 0.46074 0.32033 0.0
H2642 H 0.9752 0.57456 0.2572 0.0
H2643 H 0.96099 0.55565 0.22172 0.0
H2644 H 0.9369 0.56864 0.2535 0.0
H2645 H 0.01171 0.44523 0.2888 0.0
H2646 H 0.01981 0.46285 0.24985 0.0
H2647 H 0.0346 0.47698 0.2877 0.0
H2648 H 0.99931 0.53117 0.15192 0.0
H2649 H 0.04335 0.58408 0.22399 0.0
H2650 H 0.9563 0.49734 0.19718 0.0
H2651 H 0.98275 0.47064 0.20912 0.0
H2652 H 0.98127 0.48336 0.16669 0.0
H2653 H 0.01987 0.56393 0.29038 0.0
H2654 H 0.05714 0.56213 0.27741 0.0
H2655 H 0.03885 0.52974 0.29188 0.0
C2656 C 0.03172 0.96705 0.30101 0.0
C2657 C 0.01265 0.94453 0.30956 0.0
C2658 C 0.02439 0.98679 0.27576 0.0
C2659 C 0.9969 0.98446 0.2603 0.0
C2660 C 0.97694 0.96293 0.27076 0.0
C2661 C 0.98542 0.94288 0.29456 0.0
C2662 C 0.04584 0.00998 0.26584 0.0
C2663 C 0.94616 0.96117 0.25784 0.0
C2664 C 0.94632 0.03229 0.21682 0.0
C2665 C 0.94608 0.01845 0.18593 0.0
C2666 C 0.96783 0.02587 0.2401 0.0
C2667 C 0.98806 1.00359 0.23276 0.0
C2668 C 0.99008 0.99234 0.19994 0.0
C2669 C 0.96893 1.00016 0.17661 0.0
C2670 C 0.96568 0.03921 0.27431 0.0
C2671 C 0.01113 0.96832 0.1911 0.0
H2672 H 0.05257 0.96874 0.31319 0.0
H2673 H 0.97053 0.92572 0.30135 0.0
H2674 H 0.04835 0.01058 0.23844 0.0
H2675 H 0.03761 0.03161 0.27381 0.0
H2676 H 0.06751 0.00648 0.2773 0.0
H2677 H 0.93752 0.93877 0.25958 0.0
H2678 H 0.93211 0.97554 0.27319 0.0
H2679 H 0.94412 0.96813 0.23176 0.0
H2680 H 0.92862 0.0465 0.22371 0.0
H2681 H 0.96877 0.98999 0.15222 0.0
H2682 H 0.98737 0.04107 0.28609 0.0
H2683 H 0.95195 0.02516 0.29022 0.0
H2684 H 0.95549 0.06113 0.27334 0.0
H2685 H 0.03221 0.97134 0.20398 0.0
H2686 H 0.01495 0.96717 0.16387 0.0
H2687 H 1.00192 0.94714 0.19911 0.0
C2688 C 0.53602 0.02761 0.30991 0.0
C2689 C 0.56471 0.0177 0.30678 0.0
C2690 C 0.51501 0.01992 0.28605 0.0
C2691 C 0.52302 1.00158 0.25916 0.0
C2692 C 0.55254 0.99369 0.25472 0.0
C2693 C 0.57288 1.00192 0.27853 0.0
C2694 C 0.48431 0.03083 0.29016 0.0
C2695 C 0.56321 0.97636 0.22509 0.0
C2696 C 0.48028 0.94004 0.22355 0.0
C2697 C 0.48203 0.94715 0.1899 0.0
C2698 C 0.49033 0.95955 0.24779 0.0
C2699 C 0.50096 0.98717 0.2379 0.0
C2700 C 0.49789 0.99607 0.20446 0.0
C2701 C 0.48928 0.97554 0.18052 0.0
C2702 C 0.4937 0.94881 0.283 0.0
C2703 C 0.50701 0.02602 0.19344 0.0
H2704 H 0.52984 0.04066 0.3313 0.0
H2705 H 0.59532 0.99534 0.27519 0.0
H2706 H 0.474 0.03497 0.2657 0.0
H2707 H 0.47118 0.0142 0.3032 0.0
H2708 H 0.48365 0.05117 0.30521 0.0
H2709 H 0.58352 0.96431 0.23083 0.0
H2710 H 0.54695 0.96055 0.21607 0.0
H2711 H 0.56805 0.99155 0.20448 0.0
H2712 H 0.47435 0.91806 0.23061 0.0
H2713 H 0.48974 0.98117 0.15438 0.0
H2714 H 0.48664 0.96565 0.30106 0.0
H2715 H 0.51695 0.94403 0.28788 0.0
H2716 H 0.48101 0.92863 0.28748 0.0
H2717 H 0.50098 0.04263 0.21235 0.0
H2718 H 0.49696 0.03186 0.16927 0.0
H2719 H 0.53093 0.02665 0.19041 0.0
C2720 C 0.47397 0.57202 0.26981 0.0
C2721 C 0.47512 0.56344 0.30302 0.0
C2722 C 0.48541 0.55388 0.24501 0.0
C2723 C 0.49663 0.52624 0.25394 0.0
C2724 C 0.49291 0.51575 0.28666 0.0
C2725 C 0.48266 0.53485 0.31115 0.0
C2726 C 0.48937 0.56598 0.21047 0.0
C2727 C 0.50436 0.48637 0.297 0.0
C2728 C 0.53316 0.48375 0.18458 0.0
C2729 C 0.56199 0.49277 0.18872 0.0
C2730 C 0.51149 0.49353 0.2065 0.0
C2731 C 0.51908 0.51282 0.23263 0.0
C2732 C 0.54852 0.52078 0.23759 0.0
C2733 C 0.56944 0.51072 0.21548 0.0
C2734 C 0.48066 0.48324 0.2018 0.0
C2735 C 0.55894 0.54016 0.26565 0.0
H2736 H 0.46796 0.59424 0.26387 0.0
H2737 H 0.48311 0.52834 0.33703 0.0
H2738 H 0.51286 0.56835 0.20498 0.0
H2739 H 0.48018 0.55078 0.19178 0.0
H2740 H 0.47884 0.58759 0.20749 0.0
H2741 H 0.49345 0.47856 0.31991 0.0
H2742 H 0.50143 0.46997 0.27694 0.0
H2743 H 0.52796 0.48821 0.30226 0.0
H2744 H 0.52752 0.46933 0.16417 0.0
H2745 H 0.59185 0.51716 0.21934 0.0
H2746 H 0.46668 0.50175 0.19433 0.0
H2747 H 0.47196 0.47477 0.22557 0.0
H2748 H 0.47897 0.46591 0.18253 0.0
H2749 H 0.56873 0.56017 0.2551 0.0
H2750 H 0.57646 0.52886 0.27953 0.0
H2751 H 0.54197 0.54654 0.28363 0.0
C2752 C 0.03737 0.50448 0.67845 0.0
C2753 C 0.06097 0.52101 0.68943 0.0
C2754 C 0.01718 0.49366 0.70135 0.0
C2755 C 0.02115 0.49969 0.73566 0.0
C2756 C 0.04278 0.51972 0.74588 0.0
C2757 C 0.06285 0.52977 0.72256 0.0
C2758 C 0.99448 0.47238 0.68935 0.0
C2759 C 0.04724 0.52762 0.78194 0.0
C2760 C 0.97447 0.46636 0.80321 0.0
C2761 C 0.99023 0.44085 0.81037 0.0
C2762 C 0.98359 0.48559 0.77832 0.0
C2763 C 0.00927 0.4793 0.76064 0.0
C2764 C 0.02476 0.45336 0.76737 0.0
C2765 C 0.01493 0.43433 0.792 0.0
C2766 C 0.96537 0.51195 0.77021 0.0
C2767 C 0.05164 0.44548 0.74821 0.0
H2768 H 0.03616 0.49786 0.65258 0.0
H2769 H 0.08109 0.54291 0.73065 0.0
H2770 H 1.00264 0.44981 0.69261 0.0
H2771 H 0.97414 0.47456 0.70389 0.0
H2772 H 0.98957 0.47547 0.66257 0.0
H2773 H 0.05894 0.54866 0.78457 0.0
H2774 H 0.02628 0.52921 0.79536 0.0
H2775 H 0.06046 0.51041 0.79398 0.0
H2776 H 0.95456 0.47099 0.81662 0.0
H2777 H 0.02562 0.41372 0.79562 0.0
H2778 H 0.95712 0.51005 0.74438 0.0
H2779 H 0.97871 0.53202 0.77147 0.0
H2780 H 0.94653 0.51437 0.78724 0.0
H2781 H 0.05742 0.42238 0.75204 0.0
H2782 H 0.06972 0.45985 0.75615 0.0
H2783 H 0.04864 0.44868 0.72123 0.0
C2784 C 0.98695 0.0345 0.68198 0.0
C2785 C 0.99444 0.06367 0.68806 0.0
C2786 C 0.99694 0.01224 0.70317 0.0
C2787 C 0.01431 0.01967 0.73099 0.0
C2788 C 0.0199 0.04938 0.73813 0.0
C2789 C 0.01015 0.07081 0.71654 0.0
C2790 C 0.98915 0.981 0.6957 0.0
C2791 C 0.03779 0.05955 0.76723 0.0
C2792 C 0.04052 0.98441 0.80799 0.0
C2793 C 0.07029 0.98534 0.80092 0.0
C2794 C 0.02013 0.99081 0.78309 0.0
C2795 C 0.03009 0.99745 0.75068 0.0
C2796 C 0.05957 0.99247 0.74244 0.0
C2797 C 0.07958 0.9874 0.76796 0.0
C2798 C 0.98895 0.99576 0.79291 0.0
C2799 C 0.07047 0.99629 0.70739 0.0
H2800 H 0.97412 0.029 0.66025 0.0
H2801 H 0.01548 0.09337 0.72188 0.0
H2802 H 0.00888 0.96716 0.6952 0.0
H2803 H 0.97495 0.97258 0.71572 0.0
H2804 H 0.97757 0.97866 0.67162 0.0
H2805 H 0.02586 0.07709 0.78052 0.0
H2806 H 0.04349 0.04274 0.78558 0.0
H2807 H 0.05823 0.06877 0.7574 0.0
H2808 H 0.03337 0.98203 0.8335 0.0
H2809 H 0.10262 0.98666 0.76244 0.0
H2810 H 0.97402 0.98996 0.77229 0.0
H2811 H 0.98579 0.0192 0.7988 0.0
H2812 H 0.98312 0.98297 0.8153 0.0
H2813 H 0.05782 0.98229 0.69018 0.0
H2814 H 0.09384 0.99067 0.70491 0.0
H2815 H 0.06721 0.01911 0.69936 0.0
C2816 C 0.43239 1.00046 0.72788 0.0
C2817 C 0.44085 0.98773 0.69785 0.0
C2818 C 0.45285 0.00791 0.75197 0.0
C2819 C 0.48273 1.00298 0.74547 0.0
C2820 C 0.49097 0.9865 0.71718 0.0
C2821 C 0.46981 0.97912 0.69337 0.0
C2822 C 0.44185 0.02099 0.7841 0.0
C2823 C 0.522 0.97692 0.71213 0.0
C2824 C 0.52426 0.06806 0.77551 0.0
C2825 C 0.52565 0.06177 0.80935 0.0
C2826 C 0.51313 0.04749 0.75307 0.0
C2827 C 0.50459 0.01966 0.76488 0.0
C2828 C 0.5108 0.01182 0.7981 0.0
C2829 C 0.5205 0.03334 0.82031 0.0
C2830 C 0.50694 0.05706 0.71788 0.0
C2831 C 0.50394 0.98196 0.81133 0.0
H2832 H 0.40966 0.00538 0.73225 0.0
H2833 H 0.47614 0.96789 0.67075 0.0
H2834 H 0.45735 0.03642 0.79542 0.0
H2835 H 0.42074 0.0323 0.78057 0.0
H2836 H 0.43811 1.00317 0.80209 0.0
H2837 H 0.52491 0.96437 0.6887 0.0
H2838 H 0.5368 0.99595 0.71186 0.0
H2839 H 0.52872 0.96306 0.73332 0.0
H2840 H 0.52858 0.09008 0.76723 0.0
H2841 H 0.52231 0.0284 0.84656 0.0
H2842 H 0.48311 0.05871 0.71412 0.0
H2843 H 0.51539 0.04092 0.69977 0.0
H2844 H 0.51678 0.07855 0.71222 0.0
H2845 H 0.48256 0.98251 0.824 0.0
H2846 H 0.52035 0.97536 0.83009 0.0
H2847 H 0.5032 0.96531 0.79126 0.0
C2848 C 0.46 0.49 0.80857 0.0
C2849 C 0.44774 0.51768 0.80969 0.0
C2850 C 0.48141 0.48326 0.78516 0.0
C2851 C 0.49009 0.50474 0.76204 0.0
C2852 C 0.48073 0.53375 0.76626 0.0
C2853 C 0.45915 0.53973 0.78977 0.0
C2854 C 0.49224 0.45234 0.78338 0.0
C2855 C 0.4917 0.5581 0.74462 0.0
C2856 C 0.53813 0.46353 0.70482 0.0
C2857 C 0.51693 0.45232 0.68336 0.0
C2858 C 0.53106 0.4857 0.72745 0.0
C2859 C 0.50182 0.49482 0.72979 0.0
C2860 C 0.4817 0.48659 0.7048 0.0
C2861 C 0.48987 0.46575 0.68129 0.0
C2862 C 0.55378 0.49633 0.75162 0.0
C2863 C 0.45049 0.4967 0.7053 0.0
H2864 H 0.45217 0.47343 0.82537 0.0
H2865 H 0.45002 0.56113 0.79083 0.0
H2866 H 0.51471 0.45055 0.77413 0.0
H2867 H 0.49194 0.44231 0.80836 0.0
H2868 H 0.47805 0.43985 0.76623 0.0
H2869 H 0.49426 0.57836 0.75954 0.0
H2870 H 0.5128 0.55266 0.7328 0.0
H2871 H 0.47558 0.56274 0.72486 0.0
H2872 H 0.55935 0.45357 0.70595 0.0
H2873 H 0.47425 0.45814 0.66303 0.0
H2874 H 0.5537 0.48251 0.77414 0.0
H2875 H 0.54938 0.51912 0.75949 0.0
H2876 H 0.5758 0.49504 0.74047 0.0
H2877 H 0.43906 0.48665 0.72664 0.0
H2878 H 0.43874 0.49065 0.68215 0.0
H2879 H 0.44932 0.52065 0.70837 0.0
loop_
_geom_bond_atom_site_label_1
_geom_bond_atom_site_label_2
_geom_bond_distance
_geom_bond_site_symmetry_2
_ccdc_geom_bond_type
C0 C2 1.422 . S
C0 C4 1.415 . S
C0 N6 1.369 . S
C1 C2 1.421 . S
C1 C3 1.417 . S
C1 C13 1.422 . S
C2 C0 1.422 . S
C2 C1 1.421 . S
C2 N12 1.359 . S
C3 C1 1.417 . S
C3 C5 1.329 . S
C3 H22 0.930 . S
C4 C0 1.415 . S
C4 C5 1.437 . S
C4 C8 1.413 . S
C5 C3 1.329 . S
C5 C4 1.437 . S
C5 H27 0.929 . S
N6 C0 1.369 . S
N6 C7 1.338 . S
N6 Gd11 2.622 . S
C7 N6 1.338 . S
C7 C9 1.378 . S
C7 H19 0.929 . S
C8 C4 1.413 . S
C8 C9 1.348 . S
C8 H24 0.931 . S
C9 C7 1.378 . S
C9 C8 1.348 . S
C9 H25 0.930 . S
Gd10 N30 2.622 . S
Gd10 N37 2.570 . S
Gd10 O44 2.353 . S
Gd10 O45 2.468 . S
Gd10 O46 2.427 . S
Gd10 O48 2.388 . S
Gd10 O49 2.386 . S
Gd10 O53 2.307 . S
Gd10 C63 2.805 . S
Gd11 N6 2.622 . S
Gd11 N12 2.570 . S
Gd11 O43 2.386 1_655 S
Gd11 O47 2.307 1_655 S
Gd11 O50 2.353 . S
Gd11 O51 2.468 . S
Gd11 O52 2.427 . S
Gd11 O54 2.373 1_655 S
Gd11 C75 2.805 . S
N12 C2 1.359 . S
N12 Gd11 2.570 . S
N12 C14 1.343 . S
C13 C1 1.422 . S
C13 C15 1.321 . S
C13 H21 0.931 . S
C14 N12 1.343 . S
C14 C15 1.390 . S
C14 H16 0.931 . S
C15 C13 1.321 . S
C15 C14 1.390 . S
C15 H17 0.930 . S
H16 C14 0.931 . S
H17 C15 0.930 . S
H18 C41 0.931 . S
H19 C7 0.929 . S
H20 C42 0.930 . S
H21 C13 0.931 . S
H22 C3 0.930 . S
H23 C32 0.929 . S
H24 C8 0.931 . S
H25 C9 0.930 . S
H26 C64 0.930 . S
H27 C5 0.929 . S
H28 C33 0.931 . S
H29 C34 0.930 . S
N30 Gd10 2.622 . S
N30 C31 1.369 . S
N30 C32 1.338 . S
C31 N30 1.369 . S
C31 C35 1.415 . S
C31 C38 1.422 . S
C32 H23 0.929 . S
C32 N30 1.338 . S
C32 C34 1.378 . S
C33 H28 0.931 . S
C33 C34 1.348 . S
C33 C35 1.413 . S
C34 H29 0.930 . S
C34 C32 1.378 . S
C34 C33 1.348 . S
C35 C31 1.415 . S
C35 C33 1.413 . S
C35 C65 1.437 . S
H36 C65 0.929 . S
N37 Gd10 2.570 . S
N37 C38 1.359 . S
N37 C41 1.343 . S
C38 C31 1.422 . S
C38 N37 1.359 . S
C38 C40 1.421 . S
C39 C40 1.422 . S
C39 C42 1.321 . S
C39 H66 0.931 . S
C40 C38 1.421 . S
C40 C39 1.422 . S
C40 C64 1.417 . S
C41 H18 0.931 . S
C41 N37 1.343 . S
C41 C42 1.390 . S
C42 H20 0.930 . S
C42 C39 1.321 . S
C42 C41 1.390 . S
O43 Gd11 2.386 1_455 S
O43 C55 1.265 . S
O44 Gd10 2.353 . S
O44 C55 1.242 . S
O45 Gd10 2.468 . S
O45 C63 1.263 . S
O46 Gd10 2.427 . S
O46 C63 1.252 . S
O47 Gd11 2.307 1_455 S
O47 C56 1.261 . S
O48 Gd10 2.388 . S
O48 C56 1.252 . S
O49 Gd10 2.386 . S
O49 C67 1.265 . S
O50 Gd11 2.353 . S
O50 C67 1.242 1_655 S
O51 Gd11 2.468 . S
O51 C75 1.263 . S
O52 Gd11 2.427 . S
O52 C75 1.252 . S
O53 Gd10 2.307 . S
O53 C68 1.261 . S
O54 Gd11 2.373 1_455 S
O54 C68 1.286 . S
C55 O43 1.265 . S
C55 O44 1.242 . S
C56 O47 1.261 . S
C56 O48 1.252 . S
C57 C60 1.394 . S
C57 C62 1.370 . S
C57 C63 1.500 . S
C58 C61 1.383 . S
C58 C62 1.395 . S
C59 C60 1.396 . S
C59 C61 1.365 . S
C59 H76 0.929 . S
C60 C57 1.394 . S
C60 C59 1.396 . S
C60 H77 0.930 . S
C61 C58 1.383 . S
C61 C59 1.365 . S
C61 H78 0.931 . S
C62 C57 1.370 . S
C62 C58 1.395 . S
C62 H79 0.930 . S
C63 Gd10 2.805 . S
C63 O45 1.263 . S
C63 O46 1.252 . S
C63 C57 1.500 . S
C64 H26 0.930 . S
C64 C40 1.417 . S
C64 C65 1.329 . S
C65 C35 1.437 . S
C65 H36 0.929 . S
C65 C64 1.329 . S
H66 C39 0.931 . S
C67 O49 1.265 . S
C67 O50 1.242 1_455 S
C68 O53 1.261 . S
C68 O54 1.286 . S
C69 C72 1.394 . S
C69 C74 1.370 . S
C69 C75 1.500 . S
C70 C73 1.383 . S
C70 C74 1.395 . S
C71 C72 1.396 . S
C71 C73 1.365 . S
C71 H80 0.929 . S
C72 C69 1.394 . S
C72 C71 1.396 . S
C72 H81 0.930 . S
C73 C70 1.383 . S
C73 C71 1.365 . S
C73 H82 0.931 . S
C74 C69 1.370 . S
C74 C70 1.395 . S
C74 H83 0.930 . S
C75 Gd11 2.805 . S
C75 O51 1.263 . S
C75 O52 1.252 . S
C75 C69 1.500 . S
H76 C59 0.929 . S
H77 C60 0.930 . S
H78 C61 0.931 . S
H79 C62 0.930 . S
H80 C71 0.929 . S
H81 C72 0.930 . S
H82 C73 0.931 . S
H83 C74 0.930 . S
C84 C86 1.422 . S
C84 C88 1.415 . S
C84 N90 1.369 . S
C85 C86 1.421 . S
C85 C87 1.417 . S
C85 C97 1.422 . S
C86 C84 1.422 . S
C86 C85 1.421 . S
C86 N96 1.359 . S
C87 C85 1.417 . S
C87 C89 1.329 . S
C87 H106 0.930 . S
C88 C84 1.415 . S
C88 C89 1.437 . S
C88 C92 1.413 . S
C89 C87 1.329 . S
C89 C88 1.437 . S
C89 H111 0.929 . S
N90 C84 1.369 . S
N90 C91 1.338 . S
N90 Gd95 2.622 . S
C91 N90 1.338 . S
C91 C93 1.378 . S
C91 H103 0.929 . S
C92 C88 1.413 . S
C92 C93 1.348 . S
C92 H108 0.931 . S
C93 C91 1.378 . S
C93 C92 1.348 . S
C93 H109 0.930 . S
Gd94 N114 2.622 . S
Gd94 N121 2.570 . S
Gd94 O128 2.353 . S
Gd94 O129 2.468 . S
Gd94 O130 2.427 . S
Gd94 O132 2.388 . S
Gd94 O133 2.386 . S
Gd94 O137 2.307 . S
Gd94 C147 2.805 . S
Gd95 N90 2.622 . S
Gd95 N96 2.570 . S
Gd95 O127 2.386 1_565 S
Gd95 O131 2.307 1_565 S
Gd95 O134 2.353 . S
Gd95 O135 2.468 . S
Gd95 O136 2.427 . S
Gd95 O138 2.388 1_565 S
Gd95 C159 2.805 . S
N96 C86 1.359 . S
N96 Gd95 2.570 . S
N96 C98 1.343 . S
C97 C85 1.422 . S
C97 C99 1.321 . S
C97 H105 0.931 . S
C98 N96 1.343 . S
C98 C99 1.390 . S
C98 H100 0.931 . S
C99 C97 1.321 . S
C99 C98 1.390 . S
C99 H101 0.930 . S
H100 C98 0.931 . S
H101 C99 0.930 . S
H102 C125 0.931 . S
H103 C91 0.929 . S
H104 C126 0.930 . S
H105 C97 0.931 . S
H106 C87 0.930 . S
H107 C116 0.929 . S
H108 C92 0.931 . S
H109 C93 0.930 . S
H110 C148 0.930 . S
H111 C89 0.929 . S
H112 C117 0.931 1_455 S
H113 C118 0.930 . S
N114 Gd94 2.622 . S
N114 C115 1.369 . S
N114 C116 1.338 . S
C115 N114 1.369 . S
C115 C119 1.415 . S
C115 C122 1.422 . S
C116 H107 0.929 . S
C116 N114 1.338 . S
C116 C118 1.378 . S
C117 H112 0.931 1_655 S
C117 C118 1.348 . S
C117 C119 1.413 . S
C118 H113 0.930 . S
C118 C116 1.378 . S
C118 C117 1.348 . S
C119 C115 1.415 . S
C119 C117 1.413 . S
C119 C149 1.437 . S
H120 C149 0.929 1_455 S
N121 Gd94 2.570 . S
N121 C122 1.359 . S
N121 C125 1.343 . S
C122 C115 1.422 . S
C122 N121 1.359 . S
C122 C124 1.421 . S
C123 C124 1.422 . S
C123 C126 1.321 . S
C123 H150 0.931 . S
C124 C122 1.421 . S
C124 C123 1.422 . S
C124 C148 1.417 . S
C125 H102 0.931 . S
C125 N121 1.343 . S
C125 C126 1.390 . S
C126 H104 0.930 . S
C126 C123 1.321 . S
C126 C125 1.390 . S
O127 Gd95 2.386 1_545 S
O127 C139 1.265 . S
O128 Gd94 2.353 . S
O128 C139 1.242 . S
O129 Gd94 2.468 . S
O129 C147 1.263 . S
O130 Gd94 2.427 . S
O130 C147 1.252 . S
O131 Gd95 2.307 1_545 S
O131 C140 1.261 . S
O132 Gd94 2.388 . S
O132 C140 1.252 . S
O133 Gd94 2.386 . S
O133 C151 1.265 . S
O134 Gd95 2.353 . S
O134 C151 1.242 1_565 S
O135 Gd95 2.468 . S
O135 C159 1.263 . S
O136 Gd95 2.427 . S
O136 C159 1.252 . S
O137 Gd94 2.307 . S
O137 C152 1.261 . S
O138 Gd95 2.388 1_545 S
O138 C152 1.252 . S
C139 O127 1.265 . S
C139 O128 1.242 . S
C140 O131 1.261 . S
C140 O132 1.252 . S
C141 C144 1.394 . S
C141 C146 1.370 . S
C141 C147 1.500 . S
C142 C145 1.383 . S
C142 C146 1.395 . S
C143 C144 1.396 . S
C143 C145 1.365 . S
C143 H160 0.929 . S
C144 C141 1.394 . S
C144 C143 1.396 . S
C144 H161 0.930 . S
C145 C142 1.383 . S
C145 C143 1.365 . S
C145 H162 0.931 . S
C146 C141 1.370 . S
C146 C142 1.395 . S
C146 H163 0.930 . S
C147 Gd94 2.805 . S
C147 O129 1.263 . S
C147 O130 1.252 . S
C147 C141 1.500 . S
C148 H110 0.930 . S
C148 C124 1.417 . S
C148 C149 1.329 . S
C149 C119 1.437 . S
C149 H120 0.929 1_655 S
C149 C148 1.329 . S
H150 C123 0.931 . S
C151 O133 1.265 . S
C151 O134 1.242 1_545 S
C152 O137 1.261 . S
C152 O138 1.252 . S
C153 C156 1.394 . S
C153 C158 1.370 . S
C153 C159 1.500 . S
C154 C157 1.383 . S
C154 C158 1.395 . S
C155 C156 1.396 . S
C155 C157 1.365 . S
C155 H164 0.929 . S
C156 C153 1.394 . S
C156 C155 1.396 . S
C156 H165 0.930 . S
C157 C154 1.383 . S
C157 C155 1.365 . S
C157 H166 0.931 . S
C158 C153 1.370 . S
C158 C154 1.395 . S
C158 H167 0.930 . S
C159 Gd95 2.805 . S
C159 O135 1.263 . S
C159 O136 1.252 . S
C159 C153 1.500 . S
H160 C143 0.929 . S
H161 C144 0.930 . S
H162 C145 0.931 . S
H163 C146 0.930 . S
H164 C155 0.929 . S
H165 C156 0.930 . S
H166 C157 0.931 . S
H167 C158 0.930 . S
C168 C170 1.422 . S
C168 C172 1.415 . S
C168 N174 1.369 . S
C169 C170 1.421 . S
C169 C171 1.417 . S
C169 C181 1.422 . S
C170 C168 1.422 . S
C170 C169 1.421 . S
C170 N180 1.359 . S
C171 C169 1.417 . S
C171 C173 1.329 . S
C171 H190 0.930 . S
C172 C168 1.415 . S
C172 C173 1.437 . S
C172 C176 1.440 . S
C173 C171 1.329 . S
C173 C172 1.437 . S
C173 H195 0.927 1_565 S
N174 C168 1.369 . S
N174 C175 1.338 . S
N174 Gd179 2.622 . S
C175 N174 1.338 . S
C175 C177 1.378 . S
C175 H187 0.929 . S
C176 C172 1.440 . S
C176 C177 1.358 . S
C176 H192 0.896 1_565 S
C177 C175 1.378 . S
C177 C176 1.358 . S
C177 H193 0.930 1_565 S
Gd178 N198 2.622 . S
Gd178 N205 2.570 . S
Gd178 O212 2.353 . S
Gd178 O213 2.468 . S
Gd178 O214 2.427 . S
Gd178 O216 2.388 . S
Gd178 O217 2.386 . S
Gd178 O221 2.307 . S
Gd178 C231 2.805 . S
Gd179 N174 2.622 . S
Gd179 N180 2.570 . S
Gd179 O211 2.386 . S
Gd179 O215 2.307 . S
Gd179 O218 2.353 . S
Gd179 O219 2.468 . S
Gd179 O220 2.427 . S
Gd179 O222 2.388 . S
Gd179 C243 2.805 . S
N180 C170 1.359 . S
N180 Gd179 2.570 . S
N180 C182 1.343 . S
C181 C169 1.422 . S
C181 C183 1.321 . S
C181 H189 0.931 1_554 S
C182 N180 1.343 . S
C182 C183 1.390 . S
C182 H184 0.931 . S
C183 C181 1.321 . S
C183 C182 1.390 . S
C183 H185 0.930 1_554 S
H184 C182 0.931 . S
H185 C183 0.930 1_556 S
H186 C209 0.931 . S
H187 C175 0.929 . S
H188 C210 0.930 . S
H189 C181 0.931 1_556 S
H190 C171 0.930 . S
H191 C200 0.929 . S
H192 C176 0.896 1_545 S
H193 C177 0.930 1_545 S
H194 C232 0.930 . S
H195 C173 0.927 1_545 S
H196 C201 0.931 . S
H197 C202 0.930 . S
N198 Gd178 2.622 . S
N198 C199 1.369 . S
N198 C200 1.338 . S
C199 N198 1.369 . S
C199 C203 1.415 . S
C199 C206 1.422 . S
C200 H191 0.929 . S
C200 N198 1.338 . S
C200 C202 1.378 . S
C201 H196 0.931 . S
C201 C202 1.348 . S
C201 C203 1.413 . S
C202 H197 0.930 . S
C202 C200 1.378 . S
C202 C201 1.348 . S
C203 C199 1.415 . S
C203 C201 1.413 . S
C203 C233 1.437 . S
H204 C233 0.929 . S
N205 Gd178 2.570 . S
N205 C206 1.359 . S
N205 C209 1.343 . S
C206 C199 1.422 . S
C206 N205 1.359 . S
C206 C208 1.421 . S
C207 C208 1.422 . S
C207 C210 1.321 . S
C207 H234 0.931 . S
C208 C206 1.421 . S
C208 C207 1.422 . S
C208 C232 1.417 . S
C209 H186 0.931 . S
C209 N205 1.343 . S
C209 C210 1.390 . S
C210 H188 0.930 . S
C210 C207 1.321 . S
C210 C209 1.390 . S
O211 Gd179 2.386 . S
O211 C223 1.265 . S
O212 Gd178 2.353 . S
O212 C223 1.242 . S
O213 Gd178 2.468 . S
O213 C231 1.263 . S
O214 Gd178 2.427 . S
O214 C231 1.252 . S
O215 Gd179 2.307 . S
O215 C224 1.261 . S
O216 Gd178 2.388 . S
O216 C224 1.252 . S
O217 Gd178 2.386 . S
O217 C235 1.265 . S
O218 Gd179 2.353 . S
O218 C235 1.242 . S
O219 Gd179 2.468 . S
O219 C243 1.263 . S
O220 Gd179 2.427 . S
O220 C243 1.252 . S
O221 Gd178 2.307 . S
O221 C236 1.261 . S
O222 Gd179 2.388 . S
O222 C236 1.252 . S
C223 O211 1.265 . S
C223 O212 1.242 . S
C224 O215 1.261 . S
C224 O216 1.252 . S
C225 C228 1.394 . S
C225 C230 1.370 . S
C225 C231 1.500 . S
C226 C229 1.383 . S
C226 C230 1.395 . S
C227 C228 1.396 . S
C227 C229 1.365 . S
C227 H244 0.929 . S
C228 C225 1.394 . S
C228 C227 1.396 . S
C228 H245 0.930 . S
C229 C226 1.383 . S
C229 C227 1.365 . S
C229 H246 0.931 . S
C230 C225 1.370 . S
C230 C226 1.395 . S
C230 H247 0.930 . S
C231 Gd178 2.805 . S
C231 O213 1.263 . S
C231 O214 1.252 . S
C231 C225 1.500 . S
C232 H194 0.930 . S
C232 C208 1.417 . S
C232 C233 1.329 . S
C233 C203 1.437 . S
C233 H204 0.929 . S
C233 C232 1.329 . S
H234 C207 0.931 . S
C235 O217 1.265 . S
C235 O218 1.242 . S
C236 O221 1.261 . S
C236 O222 1.252 . S
C237 C240 1.394 . S
C237 C242 1.370 . S
C237 C243 1.500 . S
C238 C241 1.383 . S
C238 C242 1.395 . S
C239 C240 1.396 . S
C239 C241 1.365 . S
C239 H248 0.929 . S
C240 C237 1.394 . S
C240 C239 1.396 . S
C240 H249 0.930 . S
C241 C238 1.383 . S
C241 C239 1.365 . S
C241 H250 0.931 . S
C242 C237 1.370 . S
C242 C238 1.395 . S
C242 H251 0.930 . S
C243 Gd179 2.805 . S
C243 O219 1.263 . S
C243 O220 1.252 . S
C243 C237 1.500 . S
H244 C227 0.929 . S
H245 C228 0.930 . S
H246 C229 0.931 . S
H247 C230 0.930 . S
H248 C239 0.929 . S
H249 C240 0.930 . S
H250 C241 0.931 . S
H251 C242 0.930 . S
C252 C254 1.422 . S
C252 C256 1.415 . S
C252 N258 1.369 . S
C253 C254 1.421 . S
C253 C255 1.417 . S
C253 C265 1.422 . S
C254 C252 1.422 . S
C254 C253 1.421 . S
C254 N264 1.359 . S
C255 C253 1.417 . S
C255 C257 1.329 . S
C255 H274 0.930 . S
C256 C252 1.415 . S
C256 C257 1.437 . S
C256 C260 1.413 . S
C257 C255 1.329 . S
C257 C256 1.437 . S
C257 H279 0.929 . S
N258 C252 1.369 . S
N258 C259 1.338 . S
N258 Gd263 2.622 . S
C259 N258 1.338 . S
C259 C261 1.378 . S
C259 H271 0.929 . S
C260 C256 1.413 . S
C260 C261 1.348 . S
C260 H276 0.931 . S
C261 C259 1.378 . S
C261 C260 1.348 . S
C261 H277 0.930 . S
Gd262 N282 2.622 . S
Gd262 N289 2.570 . S
Gd262 O296 2.353 . S
Gd262 O297 2.468 . S
Gd262 O298 2.427 . S
Gd262 O300 2.388 . S
Gd262 O301 2.386 . S
Gd262 O305 2.307 . S
Gd262 C315 2.805 . S
Gd263 N258 2.622 . S
Gd263 N264 2.570 . S
Gd263 O295 2.386 . S
Gd263 O299 2.307 . S
Gd263 O302 2.353 . S
Gd263 O303 2.468 . S
Gd263 O304 2.427 . S
Gd263 O306 2.388 . S
Gd263 C327 2.805 . S
N264 C254 1.359 . S
N264 Gd263 2.570 . S
N264 C266 1.343 . S
C265 C253 1.422 . S
C265 C267 1.321 . S
C265 H273 0.931 . S
C266 N264 1.343 . S
C266 C267 1.390 . S
C266 H268 0.931 . S
C267 C265 1.321 . S
C267 C266 1.390 . S
C267 H269 0.930 . S
H268 C266 0.931 . S
H269 C267 0.930 . S
H270 C293 0.931 . S
H271 C259 0.929 . S
H272 C294 0.930 . S
H273 C265 0.931 . S
H274 C255 0.930 . S
H275 C284 0.929 . S
H276 C260 0.931 . S
H277 C261 0.930 . S
H278 C316 0.930 . S
H279 C257 0.929 . S
H280 C285 0.931 . S
H281 C286 0.930 . S
N282 Gd262 2.622 . S
N282 C283 1.369 . S
N282 C284 1.338 . S
C283 N282 1.369 . S
C283 C287 1.415 . S
C283 C290 1.422 . S
C284 H275 0.929 . S
C284 N282 1.338 . S
C284 C286 1.378 . S
C285 H280 0.931 . S
C285 C286 1.348 . S
C285 C287 1.413 . S
C286 H281 0.930 . S
C286 C284 1.378 . S
C286 C285 1.348 . S
C287 C283 1.415 . S
C287 C285 1.413 . S
C287 C317 1.437 . S
H288 C317 0.929 . S
N289 Gd262 2.570 . S
N289 C290 1.359 . S
N289 C293 1.343 . S
C290 C283 1.422 . S
C290 N289 1.359 . S
C290 C292 1.421 . S
C291 C292 1.422 . S
C291 C294 1.321 . S
C291 H318 0.931 . S
C292 C290 1.421 . S
C292 C291 1.422 . S
C292 C316 1.417 . S
C293 H270 0.931 . S
C293 N289 1.343 . S
C293 C294 1.390 . S
C294 H272 0.930 . S
C294 C291 1.321 . S
C294 C293 1.390 . S
O295 Gd263 2.386 . S
O295 C307 1.265 . S
O296 Gd262 2.353 . S
O296 C307 1.242 . S
O297 Gd262 2.468 . S
O297 C315 1.263 . S
O298 Gd262 2.427 . S
O298 C315 1.252 . S
O299 Gd263 2.307 . S
O299 C308 1.261 . S
O300 Gd262 2.388 . S
O300 C308 1.252 . S
O301 Gd262 2.386 . S
O301 C319 1.265 . S
O302 Gd263 2.353 . S
O302 C319 1.242 . S
O303 Gd263 2.468 . S
O303 C327 1.263 . S
O304 Gd263 2.427 . S
O304 C327 1.252 . S
O305 Gd262 2.307 . S
O305 C320 1.261 . S
O306 Gd263 2.388 . S
O306 C320 1.252 . S
C307 O295 1.265 . S
C307 O296 1.242 . S
C308 O299 1.261 . S
C308 O300 1.252 . S
C309 C312 1.394 . S
C309 C314 1.370 . S
C309 C315 1.500 . S
C310 C313 1.383 . S
C310 C314 1.395 . S
C311 C312 1.396 . S
C311 C313 1.365 . S
C311 H328 0.929 . S
C312 C309 1.394 . S
C312 C311 1.396 . S
C312 H329 0.930 . S
C313 C310 1.383 . S
C313 C311 1.365 . S
C313 H330 0.931 . S
C314 C309 1.370 . S
C314 C310 1.395 . S
C314 H331 0.930 . S
C315 Gd262 2.805 . S
C315 O297 1.263 . S
C315 O298 1.252 . S
C315 C309 1.500 . S
C316 H278 0.930 . S
C316 C292 1.417 . S
C316 C317 1.329 . S
C317 C287 1.437 . S
C317 H288 0.929 . S
C317 C316 1.329 . S
H318 C291 0.931 . S
C319 O301 1.265 . S
C319 O302 1.242 . S
C320 O305 1.261 . S
C320 O306 1.252 . S
C321 C324 1.394 . S
C321 C326 1.370 . S
C321 C327 1.500 . S
C322 C325 1.383 . S
C322 C326 1.395 . S
C323 C324 1.396 . S
C323 C325 1.365 . S
C323 H332 0.929 . S
C324 C321 1.394 . S
C324 C323 1.396 . S
C324 H333 0.930 . S
C325 C322 1.383 . S
C325 C323 1.365 . S
C325 H334 0.931 . S
C326 C321 1.370 . S
C326 C322 1.395 . S
C326 H335 0.930 . S
C327 Gd263 2.805 . S
C327 O303 1.263 . S
C327 O304 1.252 . S
C327 C321 1.500 . S
H328 C311 0.929 . S
H329 C312 0.930 . S
H330 C313 0.931 . S
H331 C314 0.930 . S
H332 C323 0.929 . S
H333 C324 0.930 . S
H334 C325 0.931 . S
H335 C326 0.930 . S
C336 C338 1.422 . S
C336 C340 1.415 . S
C336 N342 1.369 . S
C337 C338 1.421 . S
C337 C339 1.417 . S
C337 C349 1.422 . S
C338 C336 1.422 . S
C338 C337 1.421 . S
C338 N348 1.359 . S
C339 C337 1.417 . S
C339 C341 1.329 . S
C339 H358 0.930 . S
C340 C336 1.415 . S
C340 C341 1.437 . S
C340 C344 1.413 . S
C341 C339 1.329 . S
C341 C340 1.437 . S
C341 H363 0.929 . S
N342 C336 1.369 . S
N342 C343 1.338 . S
N342 Gd347 2.622 . S
C343 N342 1.338 . S
C343 C345 1.378 . S
C343 H355 0.929 . S
C344 C340 1.413 . S
C344 C345 1.348 . S
C344 H360 0.931 . S
C345 C343 1.378 . S
C345 C344 1.348 . S
C345 H361 0.930 . S
Gd346 N366 2.622 . S
Gd346 N373 2.570 . S
Gd346 O380 2.353 . S
Gd346 O381 2.468 . S
Gd346 O382 2.427 . S
Gd346 O384 2.388 . S
Gd346 O385 2.386 . S
Gd346 O389 2.307 . S
Gd346 C399 2.805 . S
Gd347 N342 2.622 . S
Gd347 N348 2.570 . S
Gd347 O379 2.386 1_655 S
Gd347 O383 2.307 1_655 S
Gd347 O386 2.353 . S
Gd347 O387 2.468 . S
Gd347 O388 2.427 . S
Gd347 O390 2.373 1_655 S
Gd347 C411 2.805 . S
N348 C338 1.359 . S
N348 Gd347 2.570 . S
N348 C350 1.343 . S
C349 C337 1.422 . S
C349 C351 1.321 . S
C349 H357 0.931 . S
C350 N348 1.343 . S
C350 C351 1.390 . S
C350 H352 0.931 . S
C351 C349 1.321 . S
C351 C350 1.390 . S
C351 H353 0.930 . S
H352 C350 0.931 . S
H353 C351 0.930 . S
H354 C377 0.931 . S
H355 C343 0.929 . S
H356 C378 0.930 . S
H357 C349 0.931 . S
H358 C339 0.930 . S
H359 C368 0.929 . S
H360 C344 0.931 . S
H361 C345 0.930 . S
H362 C400 0.930 . S
H363 C341 0.929 . S
H364 C369 0.931 1_545 S
H365 C370 0.930 . S
N366 Gd346 2.622 . S
N366 C367 1.369 . S
N366 C368 1.338 . S
C367 N366 1.369 . S
C367 C371 1.415 . S
C367 C374 1.422 . S
C368 H359 0.929 . S
C368 N366 1.338 . S
C368 C370 1.378 . S
C369 H364 0.931 1_565 S
C369 C370 1.348 . S
C369 C371 1.413 . S
C370 H365 0.930 . S
C370 C368 1.378 . S
C370 C369 1.348 . S
C371 C367 1.415 . S
C371 C369 1.413 . S
C371 C401 1.437 . S
H372 C401 0.929 1_545 S
N373 Gd346 2.570 . S
N373 C374 1.359 . S
N373 C377 1.343 . S
C374 C367 1.422 . S
C374 N373 1.359 . S
C374 C376 1.421 . S
C375 C376 1.422 . S
C375 C378 1.321 . S
C375 H402 0.931 . S
C376 C374 1.421 . S
C376 C375 1.422 . S
C376 C400 1.417 . S
C377 H354 0.931 . S
C377 N373 1.343 . S
C377 C378 1.390 . S
C378 H356 0.930 . S
C378 C375 1.321 . S
C378 C377 1.390 . S
O379 Gd347 2.386 1_455 S
O379 C391 1.265 . S
O380 Gd346 2.353 . S
O380 C391 1.242 . S
O381 Gd346 2.468 . S
O381 C399 1.263 . S
O382 Gd346 2.427 . S
O382 C399 1.252 . S
O383 Gd347 2.307 1_455 S
O383 C392 1.261 . S
O384 Gd346 2.388 . S
O384 C392 1.252 . S
O385 Gd346 2.386 . S
O385 C403 1.265 . S
O386 Gd347 2.353 . S
O386 C403 1.242 1_655 S
O387 Gd347 2.468 . S
O387 C411 1.263 . S
O388 Gd347 2.427 . S
O388 C411 1.252 . S
O389 Gd346 2.307 . S
O389 C404 1.261 . S
O390 Gd347 2.373 1_455 S
O390 C404 1.286 . S
C391 O379 1.265 . S
C391 O380 1.242 . S
C392 O383 1.261 . S
C392 O384 1.252 . S
C393 C396 1.394 . S
C393 C398 1.370 . S
C393 C399 1.500 . S
C394 C397 1.383 . S
C394 C398 1.395 . S
C395 C396 1.396 . S
C395 C397 1.365 . S
C395 H412 0.929 . S
C396 C393 1.394 . S
C396 C395 1.396 . S
C396 H413 0.930 . S
C397 C394 1.383 . S
C397 C395 1.365 . S
C397 H414 0.931 . S
C398 C393 1.370 . S
C398 C394 1.395 . S
C398 H415 0.930 . S
C399 Gd346 2.805 . S
C399 O381 1.263 . S
C399 O382 1.252 . S
C399 C393 1.500 . S
C400 H362 0.930 . S
C400 C376 1.417 . S
C400 C401 1.329 . S
C401 C371 1.437 . S
C401 H372 0.929 1_565 S
C401 C400 1.329 . S
H402 C375 0.931 . S
C403 O385 1.265 . S
C403 O386 1.242 1_455 S
C404 O389 1.261 . S
C404 O390 1.286 . S
C405 C408 1.394 . S
C405 C410 1.370 . S
C405 C411 1.500 . S
C406 C409 1.383 . S
C406 C410 1.395 . S
C407 C408 1.396 . S
C407 C409 1.365 . S
C407 H416 0.929 . S
C408 C405 1.394 . S
C408 C407 1.396 . S
C408 H417 0.930 . S
C409 C406 1.383 . S
C409 C407 1.365 . S
C409 H418 0.931 . S
C410 C405 1.370 . S
C410 C406 1.395 . S
C410 H419 0.930 . S
C411 Gd347 2.805 . S
C411 O387 1.263 . S
C411 O388 1.252 . S
C411 C405 1.500 . S
H412 C395 0.929 . S
H413 C396 0.930 . S
H414 C397 0.931 . S
H415 C398 0.930 . S
H416 C407 0.929 . S
H417 C408 0.930 . S
H418 C409 0.931 . S
H419 C410 0.930 . S
C420 C422 1.422 . S
C420 C424 1.415 . S
C420 N426 1.369 . S
C421 C422 1.421 . S
C421 C423 1.417 . S
C421 C433 1.422 . S
C422 C420 1.422 . S
C422 C421 1.421 . S
C422 N432 1.359 . S
C423 C421 1.417 . S
C423 C425 1.329 . S
C423 H442 0.930 . S
C424 C420 1.415 . S
C424 C425 1.437 . S
C424 C428 1.413 . S
C425 C423 1.329 . S
C425 C424 1.437 . S
C425 H447 0.929 . S
N426 C420 1.369 . S
N426 C427 1.338 . S
N426 Gd431 2.622 . S
C427 N426 1.338 . S
C427 C429 1.378 . S
C427 H439 0.929 . S
C428 C424 1.413 . S
C428 C429 1.348 . S
C428 H444 0.931 . S
C429 C427 1.378 . S
C429 C428 1.348 . S
C429 H445 0.930 . S
Gd430 N450 2.622 . S
Gd430 N457 2.570 . S
Gd430 O464 2.353 . S
Gd430 O465 2.468 . S
Gd430 O466 2.427 . S
Gd430 O468 2.388 . S
Gd430 O469 2.386 . S
Gd430 O473 2.307 . S
Gd430 C483 2.805 . S
Gd431 N426 2.622 . S
Gd431 N432 2.570 . S
Gd431 O463 2.386 1_565 S
Gd431 O467 2.307 1_565 S
Gd431 O470 2.353 . S
Gd431 O471 2.468 . S
Gd431 O472 2.427 . S
Gd431 O474 2.379 1_565 S
Gd431 C495 2.805 . S
N432 C422 1.359 . S
N432 Gd431 2.570 . S
N432 C434 1.343 . S
C433 C421 1.422 . S
C433 C435 1.321 . S
C433 H441 0.931 . S
C434 N432 1.343 . S
C434 C435 1.390 . S
C434 H436 0.931 . S
C435 C433 1.321 . S
C435 C434 1.390 . S
C435 H437 0.930 . S
H436 C434 0.931 . S
H437 C435 0.930 . S
H438 C461 0.931 . S
H439 C427 0.929 . S
H440 C462 0.930 . S
H441 C433 0.931 . S
H442 C423 0.930 . S
H443 C452 0.929 . S
H444 C428 0.931 . S
H445 C429 0.930 . S
H446 C484 0.930 . S
H447 C425 0.929 . S
H448 C453 0.931 . S
H449 C454 0.930 . S
N450 Gd430 2.622 . S
N450 C451 1.369 . S
N450 C452 1.338 . S
C451 N450 1.369 . S
C451 C455 1.415 . S
C451 C458 1.422 . S
C452 H443 0.929 . S
C452 N450 1.338 . S
C452 C454 1.378 . S
C453 H448 0.931 . S
C453 C454 1.348 . S
C453 C455 1.413 . S
C454 H449 0.930 . S
C454 C452 1.378 . S
C454 C453 1.348 . S
C455 C451 1.415 . S
C455 C453 1.413 . S
C455 C485 1.437 . S
H456 C485 0.929 . S
N457 Gd430 2.570 . S
N457 C458 1.359 . S
N457 C461 1.343 . S
C458 C451 1.422 . S
C458 N457 1.359 . S
C458 C460 1.421 . S
C459 C460 1.422 . S
C459 C462 1.321 . S
C459 H486 0.931 . S
C460 C458 1.421 . S
C460 C459 1.422 . S
C460 C484 1.417 . S
C461 H438 0.931 . S
C461 N457 1.343 . S
C461 C462 1.390 . S
C462 H440 0.930 . S
C462 C459 1.321 . S
C462 C461 1.390 . S
O463 Gd431 2.386 1_545 S
O463 C475 1.265 . S
O464 Gd430 2.353 . S
O464 C475 1.242 . S
O465 Gd430 2.468 . S
O465 C483 1.263 . S
O466 Gd430 2.427 . S
O466 C483 1.252 . S
O467 Gd431 2.307 1_545 S
O467 C476 1.261 . S
O468 Gd430 2.388 . S
O468 C476 1.252 . S
O469 Gd430 2.386 . S
O469 C487 1.265 . S
O470 Gd431 2.353 . S
O470 C487 1.242 1_565 S
O471 Gd431 2.468 . S
O471 C495 1.263 . S
O472 Gd431 2.427 . S
O472 C495 1.252 . S
O473 Gd430 2.307 . S
O473 C488 1.261 . S
O474 Gd431 2.379 1_545 S
O474 C488 1.271 . S
C475 O463 1.265 . S
C475 O464 1.242 . S
C476 O467 1.261 . S
C476 O468 1.252 . S
C477 C480 1.394 . S
C477 C482 1.370 . S
C477 C483 1.500 . S
C478 C481 1.383 . S
C478 C482 1.395 . S
C479 C480 1.396 . S
C479 C481 1.365 . S
C479 H496 0.929 . S
C480 C477 1.394 . S
C480 C479 1.396 . S
C480 H497 0.930 . S
C481 C478 1.383 . S
C481 C479 1.365 . S
C481 H498 0.931 . S
C482 C477 1.370 . S
C482 C478 1.395 . S
C482 H499 0.930 . S
C483 Gd430 2.805 . S
C483 O465 1.263 . S
C483 O466 1.252 . S
C483 C477 1.500 . S
C484 H446 0.930 . S
C484 C460 1.417 . S
C484 C485 1.329 . S
C485 C455 1.437 . S
C485 H456 0.929 . S
C485 C484 1.329 . S
H486 C459 0.931 . S
C487 O469 1.265 . S
C487 O470 1.242 1_545 S
C488 O473 1.261 . S
C488 O474 1.271 . S
C489 C492 1.394 . S
C489 C494 1.370 . S
C489 C495 1.500 . S
C490 C493 1.383 . S
C490 C494 1.395 . S
C491 C492 1.396 . S
C491 C493 1.365 . S
C491 H500 0.929 . S
C492 C489 1.394 . S
C492 C491 1.396 . S
C492 H501 0.930 . S
C493 C490 1.383 . S
C493 C491 1.365 . S
C493 H502 0.931 . S
C494 C489 1.370 . S
C494 C490 1.395 . S
C494 H503 0.930 . S
C495 Gd431 2.805 . S
C495 O471 1.263 . S
C495 O472 1.252 . S
C495 C489 1.500 . S
H496 C479 0.929 . S
H497 C480 0.930 . S
H498 C481 0.931 . S
H499 C482 0.930 . S
H500 C491 0.929 . S
H501 C492 0.930 . S
H502 C493 0.931 . S
H503 C494 0.930 . S
C504 C506 1.422 . S
C504 C508 1.415 . S
C504 N510 1.369 . S
C505 C506 1.421 . S
C505 C507 1.417 . S
C505 C517 1.422 . S
C506 C504 1.422 . S
C506 C505 1.421 . S
C506 N516 1.359 . S
C507 C505 1.417 . S
C507 C509 1.329 . S
C507 H526 0.930 . S
C508 C504 1.415 . S
C508 C509 1.437 . S
C508 C512 1.413 . S
C509 C507 1.329 . S
C509 C508 1.437 . S
C509 H531 0.929 . S
N510 C504 1.369 . S
N510 C511 1.338 . S
N510 Gd515 2.622 . S
C511 N510 1.338 . S
C511 C513 1.378 . S
C511 H523 0.929 . S
C512 C508 1.413 . S
C512 C513 1.348 . S
C512 H528 0.931 . S
C513 C511 1.378 . S
C513 C512 1.348 . S
C513 H529 0.930 . S
Gd514 N534 2.622 . S
Gd514 N541 2.570 . S
Gd514 O548 2.353 . S
Gd514 O549 2.468 . S
Gd514 O550 2.427 . S
Gd514 O552 2.388 . S
Gd514 O553 2.386 . S
Gd514 O557 2.307 . S
Gd514 C567 2.805 . S
Gd515 N510 2.622 . S
Gd515 N516 2.570 . S
Gd515 O547 2.386 . S
Gd515 O551 2.307 . S
Gd515 O554 2.353 . S
Gd515 O555 2.468 . S
Gd515 O556 2.427 . S
Gd515 O558 2.388 . S
Gd515 C579 2.805 . S
N516 C506 1.359 . S
N516 Gd515 2.570 . S
N516 C518 1.343 . S
C517 C505 1.422 . S
C517 C519 1.321 . S
C517 H525 0.931 . S
C518 N516 1.343 . S
C518 C519 1.390 . S
C518 H520 0.931 . S
C519 C517 1.321 . S
C519 C518 1.390 . S
C519 H521 0.930 . S
H520 C518 0.931 . S
H521 C519 0.930 . S
H522 C545 0.931 . S
H523 C511 0.929 . S
H524 C546 0.930 . S
H525 C517 0.931 . S
H526 C507 0.930 . S
H527 C536 0.929 . S
H528 C512 0.931 . S
H529 C513 0.930 . S
H530 C568 0.930 . S
H531 C509 0.929 . S
H532 C537 0.931 . S
H533 C538 0.930 . S
N534 Gd514 2.622 . S
N534 C535 1.369 . S
N534 C536 1.338 . S
C535 N534 1.369 . S
C535 C539 1.415 . S
C535 C542 1.422 . S
C536 H527 0.929 . S
C536 N534 1.338 . S
C536 C538 1.378 . S
C537 H532 0.931 . S
C537 C538 1.348 . S
C537 C539 1.413 . S
C538 H533 0.930 . S
C538 C536 1.378 . S
C538 C537 1.348 . S
C539 C535 1.415 . S
C539 C537 1.413 . S
C539 C569 1.437 . S
H540 C569 0.929 . S
N541 Gd514 2.570 . S
N541 C542 1.359 . S
N541 C545 1.343 . S
C542 C535 1.422 . S
C542 N541 1.359 . S
C542 C544 1.421 . S
C543 C544 1.422 . S
C543 C546 1.321 . S
C543 H570 0.931 . S
C544 C542 1.421 . S
C544 C543 1.422 . S
C544 C568 1.417 . S
C545 H522 0.931 . S
C545 N541 1.343 . S
C545 C546 1.390 . S
C546 H524 0.930 . S
C546 C543 1.321 . S
C546 C545 1.390 . S
O547 Gd515 2.386 . S
O547 C559 1.265 . S
O548 Gd514 2.353 . S
O548 C559 1.242 . S
O549 Gd514 2.468 . S
O549 C567 1.263 . S
O550 Gd514 2.427 . S
O550 C567 1.252 . S
O551 Gd515 2.307 . S
O551 C560 1.261 . S
O552 Gd514 2.388 . S
O552 C560 1.252 . S
O553 Gd514 2.386 . S
O553 C571 1.265 . S
O554 Gd515 2.353 . S
O554 C571 1.242 . S
O555 Gd515 2.468 . S
O555 C579 1.263 . S
O556 Gd515 2.427 . S
O556 C579 1.252 . S
O557 Gd514 2.307 . S
O557 C572 1.261 . S
O558 Gd515 2.388 . S
O558 C572 1.252 . S
C559 O547 1.265 . S
C559 O548 1.242 . S
C560 O551 1.261 . S
C560 O552 1.252 . S
C561 C564 1.394 . S
C561 C566 1.370 . S
C561 C567 1.500 . S
C562 C565 1.383 . S
C562 C566 1.395 . S
C563 C564 1.396 . S
C563 C565 1.365 . S
C563 H580 0.929 . S
C564 C561 1.394 . S
C564 C563 1.396 . S
C564 H581 0.930 . S
C565 C562 1.383 . S
C565 C563 1.365 . S
C565 H582 0.931 . S
C566 C561 1.370 . S
C566 C562 1.395 . S
C566 H583 0.930 . S
C567 Gd514 2.805 . S
C567 O549 1.263 . S
C567 O550 1.252 . S
C567 C561 1.500 . S
C568 H530 0.930 . S
C568 C544 1.417 . S
C568 C569 1.329 . S
C569 C539 1.437 . S
C569 H540 0.929 . S
C569 C568 1.329 . S
H570 C543 0.931 . S
C571 O553 1.265 . S
C571 O554 1.242 . S
C572 O557 1.261 . S
C572 O558 1.252 . S
C573 C576 1.394 . S
C573 C578 1.370 . S
C573 C579 1.500 . S
C574 C577 1.383 . S
C574 C578 1.395 . S
C575 C576 1.396 . S
C575 C577 1.365 . S
C575 H584 0.929 . S
C576 C573 1.394 . S
C576 C575 1.396 . S
C576 H585 0.930 . S
C577 C574 1.383 . S
C577 C575 1.365 . S
C577 H586 0.931 . S
C578 C573 1.370 . S
C578 C574 1.395 . S
C578 H587 0.930 . S
C579 Gd515 2.805 . S
C579 O555 1.263 . S
C579 O556 1.252 . S
C579 C573 1.500 . S
H580 C563 0.929 . S
H581 C564 0.930 . S
H582 C565 0.931 . S
H583 C566 0.930 . S
H584 C575 0.929 . S
H585 C576 0.930 . S
H586 C577 0.931 . S
H587 C578 0.930 . S
C588 C590 1.422 . S
C588 C592 1.415 . S
C588 N594 1.369 . S
C589 C590 1.421 . S
C589 C591 1.417 . S
C589 C601 1.422 . S
C590 C588 1.422 . S
C590 C589 1.421 . S
C590 N600 1.359 . S
C591 C589 1.417 . S
C591 C593 1.329 . S
C591 H610 0.930 . S
C592 C588 1.415 . S
C592 C593 1.437 . S
C592 C596 1.413 . S
C593 C591 1.329 . S
C593 C592 1.437 . S
C593 H615 0.929 . S
N594 C588 1.369 . S
N594 C595 1.338 . S
N594 Gd599 2.622 . S
C595 N594 1.338 . S
C595 C597 1.378 . S
C595 H607 0.929 . S
C596 C592 1.413 . S
C596 C597 1.348 . S
C596 H612 0.931 . S
C597 C595 1.378 . S
C597 C596 1.348 . S
C597 H613 0.930 . S
Gd598 N618 2.622 . S
Gd598 N625 2.570 . S
Gd598 O632 2.353 . S
Gd598 O633 2.468 . S
Gd598 O634 2.427 . S
Gd598 O636 2.388 . S
Gd598 O637 2.386 . S
Gd598 O641 2.307 . S
Gd598 C651 2.805 . S
Gd599 N594 2.622 . S
Gd599 N600 2.570 . S
Gd599 O631 2.386 . S
Gd599 O635 2.307 . S
Gd599 O638 2.353 . S
Gd599 O639 2.468 . S
Gd599 O640 2.427 . S
Gd599 O642 2.388 . S
Gd599 C663 2.805 . S
N600 C590 1.359 . S
N600 Gd599 2.570 . S
N600 C602 1.343 . S
C601 C589 1.422 . S
C601 C603 1.321 . S
C601 H609 0.931 . S
C602 N600 1.343 . S
C602 C603 1.390 . S
C602 H604 0.931 . S
C603 C601 1.321 . S
C603 C602 1.390 . S
C603 H605 0.930 . S
H604 C602 0.931 . S
H605 C603 0.930 . S
H606 C629 0.931 . S
H607 C595 0.929 . S
H608 C630 0.930 . S
H609 C601 0.931 . S
H610 C591 0.930 . S
H611 C620 0.929 . S
H612 C596 0.931 . S
H613 C597 0.930 . S
H614 C652 0.930 . S
H615 C593 0.929 . S
H616 C621 0.931 1_455 S
H617 C622 0.930 . S
N618 Gd598 2.622 . S
N618 C619 1.369 . S
N618 C620 1.338 . S
C619 N618 1.369 . S
C619 C623 1.415 . S
C619 C626 1.422 . S
C620 H611 0.929 . S
C620 N618 1.338 . S
C620 C622 1.378 . S
C621 H616 0.931 1_655 S
C621 C622 1.348 . S
C621 C623 1.413 . S
C622 H617 0.930 . S
C622 C620 1.378 . S
C622 C621 1.348 . S
C623 C619 1.415 . S
C623 C621 1.413 . S
C623 C653 1.437 . S
H624 C653 0.929 1_455 S
N625 Gd598 2.570 . S
N625 C626 1.359 . S
N625 C629 1.343 . S
C626 C619 1.422 . S
C626 N625 1.359 . S
C626 C628 1.421 . S
C627 C628 1.422 . S
C627 C630 1.321 . S
C627 H654 0.931 . S
C628 C626 1.421 . S
C628 C627 1.422 . S
C628 C652 1.417 . S
C629 H606 0.931 . S
C629 N625 1.343 . S
C629 C630 1.390 . S
C630 H608 0.930 . S
C630 C627 1.321 . S
C630 C629 1.390 . S
O631 Gd599 2.386 . S
O631 C643 1.265 . S
O632 Gd598 2.353 . S
O632 C643 1.242 . S
O633 Gd598 2.468 . S
O633 C651 1.263 . S
O634 Gd598 2.427 . S
O634 C651 1.252 . S
O635 Gd599 2.307 . S
O635 C644 1.261 . S
O636 Gd598 2.388 . S
O636 C644 1.252 . S
O637 Gd598 2.386 . S
O637 C655 1.265 . S
O638 Gd599 2.353 . S
O638 C655 1.242 . S
O639 Gd599 2.468 . S
O639 C663 1.263 . S
O640 Gd599 2.427 . S
O640 C663 1.252 . S
O641 Gd598 2.307 . S
O641 C656 1.261 . S
O642 Gd599 2.388 . S
O642 C656 1.252 . S
C643 O631 1.265 . S
C643 O632 1.242 . S
C644 O635 1.261 . S
C644 O636 1.252 . S
C645 C648 1.394 . S
C645 C650 1.370 . S
C645 C651 1.500 . S
C646 C649 1.383 . S
C646 C650 1.395 . S
C647 C648 1.396 . S
C647 C649 1.365 . S
C647 H664 0.929 . S
C648 C645 1.394 . S
C648 C647 1.396 . S
C648 H665 0.930 . S
C649 C646 1.383 . S
C649 C647 1.365 . S
C649 H666 0.931 . S
C650 C645 1.370 . S
C650 C646 1.395 . S
C650 H667 0.930 . S
C651 Gd598 2.805 . S
C651 O633 1.263 . S
C651 O634 1.252 . S
C651 C645 1.500 . S
C652 H614 0.930 . S
C652 C628 1.417 . S
C652 C653 1.329 . S
C653 C623 1.437 . S
C653 H624 0.929 1_655 S
C653 C652 1.329 . S
H654 C627 0.931 . S
C655 O637 1.265 . S
C655 O638 1.242 . S
C656 O641 1.261 . S
C656 O642 1.252 . S
C657 C660 1.394 . S
C657 C662 1.370 . S
C657 C663 1.500 . S
C658 C661 1.383 . S
C658 C662 1.395 . S
C659 C660 1.396 . S
C659 C661 1.365 . S
C659 H668 0.929 . S
C660 C657 1.394 . S
C660 C659 1.396 . S
C660 H669 0.930 . S
C661 C658 1.383 . S
C661 C659 1.365 . S
C661 H670 0.931 . S
C662 C657 1.370 . S
C662 C658 1.395 . S
C662 H671 0.930 . S
C663 Gd599 2.805 . S
C663 O639 1.263 . S
C663 O640 1.252 . S
C663 C657 1.500 . S
H664 C647 0.929 . S
H665 C648 0.930 . S
H666 C649 0.931 . S
H667 C650 0.930 . S
H668 C659 0.929 . S
H669 C660 0.930 . S
H670 C661 0.931 . S
H671 C662 0.930 . S
C672 C674 1.422 . S
C672 C676 1.415 . S
C672 N678 1.369 . S
C673 C674 1.421 . S
C673 C675 1.417 . S
C673 C685 1.422 . S
C674 C672 1.422 . S
C674 C673 1.421 . S
C674 N684 1.359 . S
C675 C673 1.417 . S
C675 C677 1.329 . S
C675 H694 0.930 . S
C676 C672 1.415 . S
C676 C677 1.437 . S
C676 C680 1.413 . S
C677 C675 1.329 . S
C677 C676 1.437 . S
C677 H699 0.929 . S
N678 C672 1.369 . S
N678 C679 1.338 . S
N678 Gd683 2.622 . S
C679 N678 1.338 . S
C679 C681 1.378 . S
C679 H691 0.929 . S
C680 C676 1.413 . S
C680 C681 1.348 . S
C680 H696 0.931 . S
C681 C679 1.378 . S
C681 C680 1.348 . S
C681 H697 0.930 . S
Gd682 N702 2.622 . S
Gd682 N709 2.570 . S
Gd682 O716 2.353 . S
Gd682 O717 2.468 . S
Gd682 O718 2.427 . S
Gd682 O720 2.373 1_455 S
Gd682 O721 2.386 1_455 S
Gd682 O725 2.307 1_455 S
Gd682 C735 2.805 . S
Gd683 N678 2.622 . S
Gd683 N684 2.570 . S
Gd683 O715 2.386 . S
Gd683 O719 2.307 . S
Gd683 O722 2.353 . S
Gd683 O723 2.468 . S
Gd683 O724 2.427 . S
Gd683 O726 2.388 . S
Gd683 C747 2.805 . S
N684 C674 1.359 . S
N684 Gd683 2.570 . S
N684 C686 1.343 . S
C685 C673 1.422 . S
C685 C687 1.321 . S
C685 H693 0.931 . S
C686 N684 1.343 . S
C686 C687 1.390 . S
C686 H688 0.931 . S
C687 C685 1.321 . S
C687 C686 1.390 . S
C687 H689 0.930 . S
H688 C686 0.931 . S
H689 C687 0.930 . S
H690 C713 0.931 . S
H691 C679 0.929 . S
H692 C714 0.930 . S
H693 C685 0.931 . S
H694 C675 0.930 . S
H695 C704 0.929 . S
H696 C680 0.931 . S
H697 C681 0.930 . S
H698 C736 0.930 . S
H699 C677 0.929 . S
H700 C705 0.931 . S
H701 C706 0.930 . S
N702 Gd682 2.622 . S
N702 C703 1.369 . S
N702 C704 1.338 . S
C703 N702 1.369 . S
C703 C707 1.415 . S
C703 C710 1.422 . S
C704 H695 0.929 . S
C704 N702 1.338 . S
C704 C706 1.378 . S
C705 H700 0.931 . S
C705 C706 1.348 . S
C705 C707 1.413 . S
C706 H701 0.930 . S
C706 C704 1.378 . S
C706 C705 1.348 . S
C707 C703 1.415 . S
C707 C705 1.413 . S
C707 C737 1.437 . S
H708 C737 0.929 . S
N709 Gd682 2.570 . S
N709 C710 1.359 . S
N709 C713 1.343 . S
C710 C703 1.422 . S
C710 N709 1.359 . S
C710 C712 1.421 . S
C711 C712 1.422 . S
C711 C714 1.321 . S
C711 H738 0.931 . S
C712 C710 1.421 . S
C712 C711 1.422 . S
C712 C736 1.417 . S
C713 H690 0.931 . S
C713 N709 1.343 . S
C713 C714 1.390 . S
C714 H692 0.930 . S
C714 C711 1.321 . S
C714 C713 1.390 . S
O715 Gd683 2.386 . S
O715 C727 1.265 . S
O716 Gd682 2.353 . S
O716 C727 1.242 1_455 S
O717 Gd682 2.468 . S
O717 C735 1.263 . S
O718 Gd682 2.427 . S
O718 C735 1.252 . S
O719 Gd683 2.307 . S
O719 C728 1.261 . S
O720 Gd682 2.373 1_655 S
O720 C728 1.286 . S
O721 Gd682 2.386 1_655 S
O721 C739 1.265 . S
O722 Gd683 2.353 . S
O722 C739 1.242 . S
O723 Gd683 2.468 . S
O723 C747 1.263 . S
O724 Gd683 2.427 . S
O724 C747 1.252 . S
O725 Gd682 2.307 1_655 S
O725 C740 1.261 . S
O726 Gd683 2.388 . S
O726 C740 1.252 . S
C727 O715 1.265 . S
C727 O716 1.242 1_655 S
C728 O719 1.261 . S
C728 O720 1.286 . S
C729 C732 1.394 . S
C729 C734 1.370 . S
C729 C735 1.500 . S
C730 C733 1.383 . S
C730 C734 1.395 . S
C731 C732 1.396 . S
C731 C733 1.365 . S
C731 H748 0.929 . S
C732 C729 1.394 . S
C732 C731 1.396 . S
C732 H749 0.930 . S
C733 C730 1.383 . S
C733 C731 1.365 . S
C733 H750 0.931 . S
C734 C729 1.370 . S
C734 C730 1.395 . S
C734 H751 0.930 . S
C735 Gd682 2.805 . S
C735 O717 1.263 . S
C735 O718 1.252 . S
C735 C729 1.500 . S
C736 H698 0.930 . S
C736 C712 1.417 . S
C736 C737 1.329 . S
C737 C707 1.437 . S
C737 H708 0.929 . S
C737 C736 1.329 . S
H738 C711 0.931 . S
C739 O721 1.265 . S
C739 O722 1.242 . S
C740 O725 1.261 . S
C740 O726 1.252 . S
C741 C744 1.394 . S
C741 C746 1.370 . S
C741 C747 1.500 . S
C742 C745 1.383 . S
C742 C746 1.395 . S
C743 C744 1.396 . S
C743 C745 1.365 . S
C743 H752 0.929 . S
C744 C741 1.394 . S
C744 C743 1.396 . S
C744 H753 0.930 . S
C745 C742 1.383 . S
C745 C743 1.365 . S
C745 H754 0.931 . S
C746 C741 1.370 . S
C746 C742 1.395 . S
C746 H755 0.930 . S
C747 Gd683 2.805 . S
C747 O723 1.263 . S
C747 O724 1.252 . S
C747 C741 1.500 . S
H748 C731 0.929 . S
H749 C732 0.930 . S
H750 C733 0.931 . S
H751 C734 0.930 . S
H752 C743 0.929 . S
H753 C744 0.930 . S
H754 C745 0.931 . S
H755 C746 0.930 . S
C756 C758 1.422 . S
C756 C760 1.415 . S
C756 N762 1.369 . S
C757 C758 1.421 . S
C757 C759 1.417 . S
C757 C769 1.422 . S
C758 C756 1.422 . S
C758 C757 1.421 . S
C758 N768 1.359 . S
C759 C757 1.417 . S
C759 C761 1.329 . S
C759 H778 0.930 . S
C760 C756 1.415 . S
C760 C761 1.437 . S
C760 C764 1.413 . S
C761 C759 1.329 . S
C761 C760 1.437 . S
C761 H783 0.929 1_455 S
N762 C756 1.369 . S
N762 C763 1.338 . S
N762 Gd767 2.622 . S
C763 N762 1.338 . S
C763 C765 1.378 . S
C763 H775 0.929 . S
C764 C760 1.413 . S
C764 C765 1.348 . S
C764 H780 0.931 1_455 S
C765 C763 1.378 . S
C765 C764 1.348 . S
C765 H781 0.930 . S
Gd766 N786 2.622 . S
Gd766 N793 2.570 . S
Gd766 O800 2.353 . S
Gd766 O801 2.468 . S
Gd766 O802 2.427 . S
Gd766 O804 2.388 1_545 S
Gd766 O805 2.386 1_545 S
Gd766 O809 2.307 1_545 S
Gd766 C819 2.805 . S
Gd767 N762 2.622 . S
Gd767 N768 2.570 . S
Gd767 O799 2.386 . S
Gd767 O803 2.307 . S
Gd767 O806 2.353 . S
Gd767 O807 2.468 . S
Gd767 O808 2.427 . S
Gd767 O810 2.388 . S
Gd767 C831 2.805 . S
N768 C758 1.359 . S
N768 Gd767 2.570 . S
N768 C770 1.343 . S
C769 C757 1.422 . S
C769 C771 1.321 . S
C769 H777 0.931 . S
C770 N768 1.343 . S
C770 C771 1.390 . S
C770 H772 0.931 . S
C771 C769 1.321 . S
C771 C770 1.390 . S
C771 H773 0.930 . S
H772 C770 0.931 . S
H773 C771 0.930 . S
H774 C797 0.931 . S
H775 C763 0.929 . S
H776 C798 0.930 . S
H777 C769 0.931 . S
H778 C759 0.930 . S
H779 C788 0.929 . S
H780 C764 0.931 1_655 S
H781 C765 0.930 . S
H782 C820 0.930 . S
H783 C761 0.929 1_655 S
H784 C789 0.931 . S
H785 C790 0.930 . S
N786 Gd766 2.622 . S
N786 C787 1.369 . S
N786 C788 1.338 . S
C787 N786 1.369 . S
C787 C791 1.415 . S
C787 C794 1.422 . S
C788 H779 0.929 . S
C788 N786 1.338 . S
C788 C790 1.378 . S
C789 H784 0.931 . S
C789 C790 1.348 . S
C789 C791 1.413 . S
C790 H785 0.930 . S
C790 C788 1.378 . S
C790 C789 1.348 . S
C791 C787 1.415 . S
C791 C789 1.413 . S
C791 C821 1.437 . S
H792 C821 0.929 . S
N793 Gd766 2.570 . S
N793 C794 1.359 . S
N793 C797 1.343 . S
C794 C787 1.422 . S
C794 N793 1.359 . S
C794 C796 1.421 . S
C795 C796 1.422 . S
C795 C798 1.321 . S
C795 H822 0.931 . S
C796 C794 1.421 . S
C796 C795 1.422 . S
C796 C820 1.417 . S
C797 H774 0.931 . S
C797 N793 1.343 . S
C797 C798 1.390 . S
C798 H776 0.930 . S
C798 C795 1.321 . S
C798 C797 1.390 . S
O799 Gd767 2.386 . S
O799 C811 1.265 . S
O800 Gd766 2.353 . S
O800 C811 1.242 1_545 S
O801 Gd766 2.468 . S
O801 C819 1.263 . S
O802 Gd766 2.427 . S
O802 C819 1.252 . S
O803 Gd767 2.307 . S
O803 C812 1.261 . S
O804 Gd766 2.388 1_565 S
O804 C812 1.252 . S
O805 Gd766 2.386 1_565 S
O805 C823 1.265 . S
O806 Gd767 2.353 . S
O806 C823 1.242 . S
O807 Gd767 2.468 . S
O807 C831 1.263 . S
O808 Gd767 2.427 . S
O808 C831 1.252 . S
O809 Gd766 2.307 1_565 S
O809 C824 1.261 . S
O810 Gd767 2.388 . S
O810 C824 1.252 . S
C811 O799 1.265 . S
C811 O800 1.242 1_565 S
C812 O803 1.261 . S
C812 O804 1.252 . S
C813 C816 1.394 . S
C813 C818 1.370 . S
C813 C819 1.500 . S
C814 C817 1.383 . S
C814 C818 1.395 . S
C815 C816 1.396 . S
C815 C817 1.365 . S
C815 H832 0.929 . S
C816 C813 1.394 . S
C816 C815 1.396 . S
C816 H833 0.930 . S
C817 C814 1.383 . S
C817 C815 1.365 . S
C817 H834 0.931 . S
C818 C813 1.370 . S
C818 C814 1.395 . S
C818 H835 0.930 . S
C819 Gd766 2.805 . S
C819 O801 1.263 . S
C819 O802 1.252 . S
C819 C813 1.500 . S
C820 H782 0.930 . S
C820 C796 1.417 . S
C820 C821 1.329 . S
C821 C791 1.437 . S
C821 H792 0.929 . S
C821 C820 1.329 . S
H822 C795 0.931 . S
C823 O805 1.265 . S
C823 O806 1.242 . S
C824 O809 1.261 . S
C824 O810 1.252 . S
C825 C828 1.394 . S
C825 C830 1.370 . S
C825 C831 1.500 . S
C826 C829 1.383 . S
C826 C830 1.395 . S
C827 C828 1.396 . S
C827 C829 1.365 . S
C827 H836 0.929 . S
C828 C825 1.394 . S
C828 C827 1.396 . S
C828 H837 0.930 . S
C829 C826 1.383 . S
C829 C827 1.365 . S
C829 H838 0.931 . S
C830 C825 1.370 . S
C830 C826 1.395 . S
C830 H839 0.930 . S
C831 Gd767 2.805 . S
C831 O807 1.263 . S
C831 O808 1.252 . S
C831 C825 1.500 . S
H832 C815 0.929 . S
H833 C816 0.930 . S
H834 C817 0.931 . S
H835 C818 0.930 . S
H836 C827 0.929 . S
H837 C828 0.930 . S
H838 C829 0.931 . S
H839 C830 0.930 . S
C840 C842 1.422 . S
C840 C844 1.415 . S
C840 N846 1.369 . S
C841 C842 1.421 . S
C841 C843 1.417 . S
C841 C853 1.422 . S
C842 C840 1.422 . S
C842 C841 1.421 . S
C842 N852 1.359 . S
C843 C841 1.417 . S
C843 C845 1.329 . S
C843 H862 0.930 . S
C844 C840 1.415 . S
C844 C845 1.437 . S
C844 C848 1.413 . S
C845 C843 1.329 . S
C845 C844 1.437 . S
C845 H867 0.929 . S
N846 C840 1.369 . S
N846 C847 1.338 . S
N846 Gd851 2.622 . S
C847 N846 1.338 . S
C847 C849 1.378 . S
C847 H859 0.929 . S
C848 C844 1.413 . S
C848 C849 1.348 . S
C848 H864 0.931 . S
C849 C847 1.378 . S
C849 C848 1.348 . S
C849 H865 0.930 . S
Gd850 N870 2.622 . S
Gd850 N877 2.570 . S
Gd850 O884 2.353 . S
Gd850 O885 2.468 . S
Gd850 O886 2.427 . S
Gd850 O888 2.388 . S
Gd850 O889 2.386 . S
Gd850 O893 2.307 . S
Gd850 C903 2.805 . S
Gd851 N846 2.622 . S
Gd851 N852 2.570 . S
Gd851 O883 2.386 . S
Gd851 O887 2.307 . S
Gd851 O890 2.353 . S
Gd851 O891 2.468 . S
Gd851 O892 2.427 . S
Gd851 O894 2.388 . S
Gd851 C915 2.805 . S
N852 C842 1.359 . S
N852 Gd851 2.570 . S
N852 C854 1.343 . S
C853 C841 1.422 . S
C853 C855 1.321 . S
C853 H861 0.931 . S
C854 N852 1.343 . S
C854 C855 1.390 . S
C854 H856 0.931 . S
C855 C853 1.321 . S
C855 C854 1.390 . S
C855 H857 0.930 . S
H856 C854 0.931 . S
H857 C855 0.930 . S
H858 C881 0.931 . S
H859 C847 0.929 . S
H860 C882 0.930 1_554 S
H861 C853 0.931 . S
H862 C843 0.930 . S
H863 C872 0.929 . S
H864 C848 0.931 . S
H865 C849 0.930 . S
H866 C904 0.930 . S
H867 C845 0.929 . S
H868 C873 0.896 1_565 S
H869 C874 0.930 1_565 S
N870 Gd850 2.622 . S
N870 C871 1.369 . S
N870 C872 1.338 . S
C871 N870 1.369 . S
C871 C875 1.415 . S
C871 C878 1.422 . S
C872 H863 0.929 . S
C872 N870 1.338 . S
C872 C874 1.378 . S
C873 H868 0.896 1_545 S
C873 C874 1.358 . S
C873 C875 1.440 . S
C874 H869 0.930 1_545 S
C874 C872 1.378 . S
C874 C873 1.358 . S
C875 C871 1.415 . S
C875 C873 1.440 . S
C875 C905 1.437 . S
H876 C905 0.927 1_565 S
N877 Gd850 2.570 . S
N877 C878 1.359 . S
N877 C881 1.343 . S
C878 C871 1.422 . S
C878 N877 1.359 . S
C878 C880 1.421 . S
C879 C880 1.422 . S
C879 C882 1.321 . S
C879 H906 0.931 1_556 S
C880 C878 1.421 . S
C880 C879 1.422 . S
C880 C904 1.417 . S
C881 H858 0.931 . S
C881 N877 1.343 . S
C881 C882 1.390 . S
C882 H860 0.930 1_556 S
C882 C879 1.321 . S
C882 C881 1.390 . S
O883 Gd851 2.386 . S
O883 C895 1.265 . S
O884 Gd850 2.353 . S
O884 C895 1.242 . S
O885 Gd850 2.468 . S
O885 C903 1.263 . S
O886 Gd850 2.427 . S
O886 C903 1.252 . S
O887 Gd851 2.307 . S
O887 C896 1.261 . S
O888 Gd850 2.388 . S
O888 C896 1.252 . S
O889 Gd850 2.386 . S
O889 C907 1.265 . S
O890 Gd851 2.353 . S
O890 C907 1.242 . S
O891 Gd851 2.468 . S
O891 C915 1.263 . S
O892 Gd851 2.427 . S
O892 C915 1.252 . S
O893 Gd850 2.307 . S
O893 C908 1.261 . S
O894 Gd851 2.388 . S
O894 C908 1.252 . S
C895 O883 1.265 . S
C895 O884 1.242 . S
C896 O887 1.261 . S
C896 O888 1.252 . S
C897 C900 1.394 . S
C897 C902 1.370 . S
C897 C903 1.500 . S
C898 C901 1.383 . S
C898 C902 1.395 . S
C899 C900 1.396 . S
C899 C901 1.365 . S
C899 H916 0.929 . S
C900 C897 1.394 . S
C900 C899 1.396 . S
C900 H917 0.930 . S
C901 C898 1.383 . S
C901 C899 1.365 . S
C901 H918 0.931 . S
C902 C897 1.370 . S
C902 C898 1.395 . S
C902 H919 0.930 . S
C903 Gd850 2.805 . S
C903 O885 1.263 . S
C903 O886 1.252 . S
C903 C897 1.500 . S
C904 H866 0.930 . S
C904 C880 1.417 . S
C904 C905 1.329 . S
C905 C875 1.437 . S
C905 H876 0.927 1_545 S
C905 C904 1.329 . S
H906 C879 0.931 1_554 S
C907 O889 1.265 . S
C907 O890 1.242 . S
C908 O893 1.261 . S
C908 O894 1.252 . S
C909 C912 1.394 . S
C909 C914 1.370 . S
C909 C915 1.500 . S
C910 C913 1.383 . S
C910 C914 1.395 . S
C911 C912 1.396 . S
C911 C913 1.365 . S
C911 H920 0.929 . S
C912 C909 1.394 . S
C912 C911 1.396 . S
C912 H921 0.930 . S
C913 C910 1.383 . S
C913 C911 1.365 . S
C913 H922 0.931 . S
C914 C909 1.370 . S
C914 C910 1.395 . S
C914 H923 0.930 . S
C915 Gd851 2.805 . S
C915 O891 1.263 . S
C915 O892 1.252 . S
C915 C909 1.500 . S
H916 C899 0.929 . S
H917 C900 0.930 . S
H918 C901 0.931 . S
H919 C902 0.930 . S
H920 C911 0.929 . S
H921 C912 0.930 . S
H922 C913 0.931 . S
H923 C914 0.930 . S
C924 C926 1.422 . S
C924 C928 1.415 . S
C924 N930 1.369 . S
C925 C926 1.421 . S
C925 C927 1.417 . S
C925 C937 1.422 . S
C926 C924 1.422 . S
C926 C925 1.421 . S
C926 N936 1.359 . S
C927 C925 1.417 . S
C927 C929 1.329 . S
C927 H946 0.930 . S
C928 C924 1.415 . S
C928 C929 1.437 . S
C928 C932 1.413 . S
C929 C927 1.329 . S
C929 C928 1.437 . S
C929 H951 0.929 . S
N930 C924 1.369 . S
N930 C931 1.338 . S
N930 Gd935 2.622 . S
C931 N930 1.338 . S
C931 C933 1.378 . S
C931 H943 0.929 . S
C932 C928 1.413 . S
C932 C933 1.348 . S
C932 H948 0.931 . S
C933 C931 1.378 . S
C933 C932 1.348 . S
C933 H949 0.930 . S
Gd934 N954 2.622 . S
Gd934 N961 2.570 . S
Gd934 O968 2.353 . S
Gd934 O969 2.468 . S
Gd934 O970 2.427 . S
Gd934 O972 2.388 . S
Gd934 O973 2.386 . S
Gd934 O977 2.307 . S
Gd934 C987 2.805 . S
Gd935 N930 2.622 . S
Gd935 N936 2.570 . S
Gd935 O967 2.386 . S
Gd935 O971 2.307 . S
Gd935 O974 2.353 . S
Gd935 O975 2.468 . S
Gd935 O976 2.427 . S
Gd935 O978 2.388 . S
Gd935 C999 2.805 . S
N936 C926 1.359 . S
N936 Gd935 2.570 . S
N936 C938 1.343 . S
C937 C925 1.422 . S
C937 C939 1.321 . S
C937 H945 0.931 . S
C938 N936 1.343 . S
C938 C939 1.390 . S
C938 H940 0.931 . S
C939 C937 1.321 . S
C939 C938 1.390 . S
C939 H941 0.930 . S
H940 C938 0.931 . S
H941 C939 0.930 . S
H942 C965 0.931 . S
H943 C931 0.929 . S
H944 C966 0.930 . S
H945 C937 0.931 . S
H946 C927 0.930 . S
H947 C956 0.929 . S
H948 C932 0.931 . S
H949 C933 0.930 . S
H950 C988 0.930 . S
H951 C929 0.929 . S
H952 C957 0.931 . S
H953 C958 0.930 . S
N954 Gd934 2.622 . S
N954 C955 1.369 . S
N954 C956 1.338 . S
C955 N954 1.369 . S
C955 C959 1.415 . S
C955 C962 1.422 . S
C956 H947 0.929 . S
C956 N954 1.338 . S
C956 C958 1.378 . S
C957 H952 0.931 . S
C957 C958 1.348 . S
C957 C959 1.413 . S
C958 H953 0.930 . S
C958 C956 1.378 . S
C958 C957 1.348 . S
C959 C955 1.415 . S
C959 C957 1.413 . S
C959 C989 1.437 . S
H960 C989 0.929 . S
N961 Gd934 2.570 . S
N961 C962 1.359 . S
N961 C965 1.343 . S
C962 C955 1.422 . S
C962 N961 1.359 . S
C962 C964 1.421 . S
C963 C964 1.422 . S
C963 C966 1.321 . S
C963 H990 0.931 . S
C964 C962 1.421 . S
C964 C963 1.422 . S
C964 C988 1.417 . S
C965 H942 0.931 . S
C965 N961 1.343 . S
C965 C966 1.390 . S
C966 H944 0.930 . S
C966 C963 1.321 . S
C966 C965 1.390 . S
O967 Gd935 2.386 . S
O967 C979 1.265 . S
O968 Gd934 2.353 . S
O968 C979 1.242 . S
O969 Gd934 2.468 . S
O969 C987 1.263 . S
O970 Gd934 2.427 . S
O970 C987 1.252 . S
O971 Gd935 2.307 . S
O971 C980 1.261 . S
O972 Gd934 2.388 . S
O972 C980 1.252 . S
O973 Gd934 2.386 . S
O973 C991 1.265 . S
O974 Gd935 2.353 . S
O974 C991 1.242 . S
O975 Gd935 2.468 . S
O975 C999 1.263 . S
O976 Gd935 2.427 . S
O976 C999 1.252 . S
O977 Gd934 2.307 . S
O977 C992 1.261 . S
O978 Gd935 2.388 . S
O978 C992 1.252 . S
C979 O967 1.265 . S
C979 O968 1.242 . S
C980 O971 1.261 . S
C980 O972 1.252 . S
C981 C984 1.394 . S
C981 C986 1.370 . S
C981 C987 1.500 . S
C982 C985 1.383 . S
C982 C986 1.395 . S
C983 C984 1.396 . S
C983 C985 1.365 . S
C983 H1000 0.929 . S
C984 C981 1.394 . S
C984 C983 1.396 . S
C984 H1001 0.930 . S
C985 C982 1.383 . S
C985 C983 1.365 . S
C985 H1002 0.931 . S
C986 C981 1.370 . S
C986 C982 1.395 . S
C986 H1003 0.930 . S
C987 Gd934 2.805 . S
C987 O969 1.263 . S
C987 O970 1.252 . S
C987 C981 1.500 . S
C988 H950 0.930 . S
C988 C964 1.417 . S
C988 C989 1.329 . S
C989 C959 1.437 . S
C989 H960 0.929 . S
C989 C988 1.329 . S
H990 C963 0.931 . S
C991 O973 1.265 . S
C991 O974 1.242 . S
C992 O977 1.261 . S
C992 O978 1.252 . S
C993 C996 1.394 . S
C993 C998 1.370 . S
C993 C999 1.500 . S
C994 C997 1.383 . S
C994 C998 1.395 . S
C995 C996 1.396 . S
C995 C997 1.365 . S
C995 H1004 0.929 . S
C996 C993 1.394 . S
C996 C995 1.396 . S
C996 H1005 0.930 . S
C997 C994 1.383 . S
C997 C995 1.365 . S
C997 H1006 0.931 . S
C998 C993 1.370 . S
C998 C994 1.395 . S
C998 H1007 0.930 . S
C999 Gd935 2.805 . S
C999 O975 1.263 . S
C999 O976 1.252 . S
C999 C993 1.500 . S
H1000 C983 0.929 . S
H1001 C984 0.930 . S
H1002 C985 0.931 . S
H1003 C986 0.930 . S
H1004 C995 0.929 . S
H1005 C996 0.930 . S
H1006 C997 0.931 . S
H1007 C998 0.930 . S
C1008 C1010 1.422 . S
C1008 C1012 1.415 . S
C1008 N1014 1.369 . S
C1009 C1010 1.421 . S
C1009 C1011 1.417 . S
C1009 C1021 1.422 . S
C1010 C1008 1.422 . S
C1010 C1009 1.421 . S
C1010 N1020 1.359 . S
C1011 C1009 1.417 . S
C1011 C1013 1.329 . S
C1011 H1030 0.930 . S
C1012 C1008 1.415 . S
C1012 C1013 1.437 . S
C1012 C1016 1.413 . S
C1013 C1011 1.329 . S
C1013 C1012 1.437 . S
C1013 H1035 0.929 1_545 S
N1014 C1008 1.369 . S
N1014 C1015 1.338 . S
N1014 Gd1019 2.622 . S
C1015 N1014 1.338 . S
C1015 C1017 1.378 . S
C1015 H1027 0.929 . S
C1016 C1012 1.413 . S
C1016 C1017 1.348 . S
C1016 H1032 0.931 1_545 S
C1017 C1015 1.378 . S
C1017 C1016 1.348 . S
C1017 H1033 0.930 . S
Gd1018 N1038 2.622 . S
Gd1018 N1045 2.570 . S
Gd1018 O1052 2.353 . S
Gd1018 O1053 2.468 . S
Gd1018 O1054 2.427 . S
Gd1018 O1056 2.373 1_455 S
Gd1018 O1057 2.386 1_455 S
Gd1018 O1061 2.307 1_455 S
Gd1018 C1071 2.805 . S
Gd1019 N1014 2.622 . S
Gd1019 N1020 2.570 . S
Gd1019 O1051 2.386 . S
Gd1019 O1055 2.307 . S
Gd1019 O1058 2.353 . S
Gd1019 O1059 2.468 . S
Gd1019 O1060 2.427 . S
Gd1019 O1062 2.388 . S
Gd1019 C1083 2.805 . S
N1020 C1010 1.359 . S
N1020 Gd1019 2.570 . S
N1020 C1022 1.343 . S
C1021 C1009 1.422 . S
C1021 C1023 1.321 . S
C1021 H1029 0.931 . S
C1022 N1020 1.343 . S
C1022 C1023 1.390 . S
C1022 H1024 0.931 . S
C1023 C1021 1.321 . S
C1023 C1022 1.390 . S
C1023 H1025 0.930 . S
H1024 C1022 0.931 . S
H1025 C1023 0.930 . S
H1026 C1049 0.931 . S
H1027 C1015 0.929 . S
H1028 C1050 0.930 . S
H1029 C1021 0.931 . S
H1030 C1011 0.930 . S
H1031 C1040 0.929 . S
H1032 C1016 0.931 1_565 S
H1033 C1017 0.930 . S
H1034 C1072 0.930 . S
H1035 C1013 0.929 1_565 S
H1036 C1041 0.931 . S
H1037 C1042 0.930 . S
N1038 Gd1018 2.622 . S
N1038 C1039 1.369 . S
N1038 C1040 1.338 . S
C1039 N1038 1.369 . S
C1039 C1043 1.415 . S
C1039 C1046 1.422 . S
C1040 H1031 0.929 . S
C1040 N1038 1.338 . S
C1040 C1042 1.378 . S
C1041 H1036 0.931 . S
C1041 C1042 1.348 . S
C1041 C1043 1.413 . S
C1042 H1037 0.930 . S
C1042 C1040 1.378 . S
C1042 C1041 1.348 . S
C1043 C1039 1.415 . S
C1043 C1041 1.413 . S
C1043 C1073 1.437 . S
H1044 C1073 0.929 . S
N1045 Gd1018 2.570 . S
N1045 C1046 1.359 . S
N1045 C1049 1.343 . S
C1046 C1039 1.422 . S
C1046 N1045 1.359 . S
C1046 C1048 1.421 . S
C1047 C1048 1.422 . S
C1047 C1050 1.321 . S
C1047 H1074 0.931 . S
C1048 C1046 1.421 . S
C1048 C1047 1.422 . S
C1048 C1072 1.417 . S
C1049 H1026 0.931 . S
C1049 N1045 1.343 . S
C1049 C1050 1.390 . S
C1050 H1028 0.930 . S
C1050 C1047 1.321 . S
C1050 C1049 1.390 . S
O1051 Gd1019 2.386 . S
O1051 C1063 1.265 . S
O1052 Gd1018 2.353 . S
O1052 C1063 1.242 1_455 S
O1053 Gd1018 2.468 . S
O1053 C1071 1.263 . S
O1054 Gd1018 2.427 . S
O1054 C1071 1.252 . S
O1055 Gd1019 2.307 . S
O1055 C1064 1.261 . S
O1056 Gd1018 2.373 1_655 S
O1056 C1064 1.286 . S
O1057 Gd1018 2.386 1_655 S
O1057 C1075 1.265 . S
O1058 Gd1019 2.353 . S
O1058 C1075 1.242 . S
O1059 Gd1019 2.468 . S
O1059 C1083 1.263 . S
O1060 Gd1019 2.427 . S
O1060 C1083 1.252 . S
O1061 Gd1018 2.307 1_655 S
O1061 C1076 1.261 . S
O1062 Gd1019 2.388 . S
O1062 C1076 1.252 . S
C1063 O1051 1.265 . S
C1063 O1052 1.242 1_655 S
C1064 O1055 1.261 . S
C1064 O1056 1.286 . S
C1065 C1068 1.394 . S
C1065 C1070 1.370 . S
C1065 C1071 1.500 . S
C1066 C1069 1.383 . S
C1066 C1070 1.395 . S
C1067 C1068 1.396 . S
C1067 C1069 1.365 . S
C1067 H1084 0.929 . S
C1068 C1065 1.394 . S
C1068 C1067 1.396 . S
C1068 H1085 0.930 . S
C1069 C1066 1.383 . S
C1069 C1067 1.365 . S
C1069 H1086 0.931 . S
C1070 C1065 1.370 . S
C1070 C1066 1.395 . S
C1070 H1087 0.930 . S
C1071 Gd1018 2.805 . S
C1071 O1053 1.263 . S
C1071 O1054 1.252 . S
C1071 C1065 1.500 . S
C1072 H1034 0.930 . S
C1072 C1048 1.417 . S
C1072 C1073 1.329 . S
C1073 C1043 1.437 . S
C1073 H1044 0.929 . S
C1073 C1072 1.329 . S
H1074 C1047 0.931 . S
C1075 O1057 1.265 . S
C1075 O1058 1.242 . S
C1076 O1061 1.261 . S
C1076 O1062 1.252 . S
C1077 C1080 1.394 . S
C1077 C1082 1.370 . S
C1077 C1083 1.500 . S
C1078 C1081 1.383 . S
C1078 C1082 1.395 . S
C1079 C1080 1.396 . S
C1079 C1081 1.365 . S
C1079 H1088 0.929 . S
C1080 C1077 1.394 . S
C1080 C1079 1.396 . S
C1080 H1089 0.930 . S
C1081 C1078 1.383 . S
C1081 C1079 1.365 . S
C1081 H1090 0.931 . S
C1082 C1077 1.370 . S
C1082 C1078 1.395 . S
C1082 H1091 0.930 . S
C1083 Gd1019 2.805 . S
C1083 O1059 1.263 . S
C1083 O1060 1.252 . S
C1083 C1077 1.500 . S
H1084 C1067 0.929 . S
H1085 C1068 0.930 . S
H1086 C1069 0.931 . S
H1087 C1070 0.930 . S
H1088 C1079 0.929 . S
H1089 C1080 0.930 . S
H1090 C1081 0.931 . S
H1091 C1082 0.930 . S
C1092 C1094 1.422 . S
C1092 C1096 1.415 . S
C1092 N1098 1.369 . S
C1093 C1094 1.421 . S
C1093 C1095 1.417 . S
C1093 C1105 1.422 . S
C1094 C1092 1.422 . S
C1094 C1093 1.421 . S
C1094 N1104 1.359 . S
C1095 C1093 1.417 . S
C1095 C1097 1.329 . S
C1095 H1114 0.930 . S
C1096 C1092 1.415 . S
C1096 C1097 1.437 . S
C1096 C1100 1.413 . S
C1097 C1095 1.329 . S
C1097 C1096 1.437 . S
C1097 H1119 0.929 . S
N1098 C1092 1.369 . S
N1098 C1099 1.338 . S
N1098 Gd1103 2.622 . S
C1099 N1098 1.338 . S
C1099 C1101 1.378 . S
C1099 H1111 0.929 . S
C1100 C1096 1.413 . S
C1100 C1101 1.348 . S
C1100 H1116 0.931 . S
C1101 C1099 1.378 . S
C1101 C1100 1.348 . S
C1101 H1117 0.930 . S
Gd1102 N1122 2.622 . S
Gd1102 N1129 2.570 . S
Gd1102 O1136 2.353 . S
Gd1102 O1137 2.468 . S
Gd1102 O1138 2.427 . S
Gd1102 O1140 2.379 1_545 S
Gd1102 O1141 2.386 1_545 S
Gd1102 O1145 2.307 1_545 S
Gd1102 C1155 2.805 . S
Gd1103 N1098 2.622 . S
Gd1103 N1104 2.570 . S
Gd1103 O1135 2.386 . S
Gd1103 O1139 2.307 . S
Gd1103 O1142 2.353 . S
Gd1103 O1143 2.468 . S
Gd1103 O1144 2.427 . S
Gd1103 O1146 2.388 . S
Gd1103 C1167 2.805 . S
N1104 C1094 1.359 . S
N1104 Gd1103 2.570 . S
N1104 C1106 1.343 . S
C1105 C1093 1.422 . S
C1105 C1107 1.321 . S
C1105 H1113 0.931 . S
C1106 N1104 1.343 . S
C1106 C1107 1.390 . S
C1106 H1108 0.931 . S
C1107 C1105 1.321 . S
C1107 C1106 1.390 . S
C1107 H1109 0.930 . S
H1108 C1106 0.931 . S
H1109 C1107 0.930 . S
H1110 C1133 0.931 . S
H1111 C1099 0.929 . S
H1112 C1134 0.930 . S
H1113 C1105 0.931 . S
H1114 C1095 0.930 . S
H1115 C1124 0.929 . S
H1116 C1100 0.931 . S
H1117 C1101 0.930 . S
H1118 C1156 0.930 . S
H1119 C1097 0.929 . S
H1120 C1125 0.931 . S
H1121 C1126 0.930 . S
N1122 Gd1102 2.622 . S
N1122 C1123 1.369 . S
N1122 C1124 1.338 . S
C1123 N1122 1.369 . S
C1123 C1127 1.415 . S
C1123 C1130 1.422 . S
C1124 H1115 0.929 . S
C1124 N1122 1.338 . S
C1124 C1126 1.378 . S
C1125 H1120 0.931 . S
C1125 C1126 1.348 . S
C1125 C1127 1.413 . S
C1126 H1121 0.930 . S
C1126 C1124 1.378 . S
C1126 C1125 1.348 . S
C1127 C1123 1.415 . S
C1127 C1125 1.413 . S
C1127 C1157 1.437 . S
H1128 C1157 0.929 . S
N1129 Gd1102 2.570 . S
N1129 C1130 1.359 . S
N1129 C1133 1.343 . S
C1130 C1123 1.422 . S
C1130 N1129 1.359 . S
C1130 C1132 1.421 . S
C1131 C1132 1.422 . S
C1131 C1134 1.321 . S
C1131 H1158 0.931 . S
C1132 C1130 1.421 . S
C1132 C1131 1.422 . S
C1132 C1156 1.417 . S
C1133 H1110 0.931 . S
C1133 N1129 1.343 . S
C1133 C1134 1.390 . S
C1134 H1112 0.930 . S
C1134 C1131 1.321 . S
C1134 C1133 1.390 . S
O1135 Gd1103 2.386 . S
O1135 C1147 1.265 . S
O1136 Gd1102 2.353 . S
O1136 C1147 1.242 1_545 S
O1137 Gd1102 2.468 . S
O1137 C1155 1.263 . S
O1138 Gd1102 2.427 . S
O1138 C1155 1.252 . S
O1139 Gd1103 2.307 . S
O1139 C1148 1.261 . S
O1140 Gd1102 2.379 1_565 S
O1140 C1148 1.271 . S
O1141 Gd1102 2.386 1_565 S
O1141 C1159 1.265 . S
O1142 Gd1103 2.353 . S
O1142 C1159 1.242 . S
O1143 Gd1103 2.468 . S
O1143 C1167 1.263 . S
O1144 Gd1103 2.427 . S
O1144 C1167 1.252 . S
O1145 Gd1102 2.307 1_565 S
O1145 C1160 1.261 . S
O1146 Gd1103 2.388 . S
O1146 C1160 1.252 . S
C1147 O1135 1.265 . S
C1147 O1136 1.242 1_565 S
C1148 O1139 1.261 . S
C1148 O1140 1.271 . S
C1149 C1152 1.394 . S
C1149 C1154 1.370 . S
C1149 C1155 1.500 . S
C1150 C1153 1.383 . S
C1150 C1154 1.395 . S
C1151 C1152 1.396 . S
C1151 C1153 1.365 . S
C1151 H1168 0.929 . S
C1152 C1149 1.394 . S
C1152 C1151 1.396 . S
C1152 H1169 0.930 . S
C1153 C1150 1.383 . S
C1153 C1151 1.365 . S
C1153 H1170 0.931 . S
C1154 C1149 1.370 . S
C1154 C1150 1.395 . S
C1154 H1171 0.930 . S
C1155 Gd1102 2.805 . S
C1155 O1137 1.263 . S
C1155 O1138 1.252 . S
C1155 C1149 1.500 . S
C1156 H1118 0.930 . S
C1156 C1132 1.417 . S
C1156 C1157 1.329 . S
C1157 C1127 1.437 . S
C1157 H1128 0.929 . S
C1157 C1156 1.329 . S
H1158 C1131 0.931 . S
C1159 O1141 1.265 . S
C1159 O1142 1.242 . S
C1160 O1145 1.261 . S
C1160 O1146 1.252 . S
C1161 C1164 1.394 . S
C1161 C1166 1.370 . S
C1161 C1167 1.500 . S
C1162 C1165 1.383 . S
C1162 C1166 1.395 . S
C1163 C1164 1.396 . S
C1163 C1165 1.365 . S
C1163 H1172 0.929 . S
C1164 C1161 1.394 . S
C1164 C1163 1.396 . S
C1164 H1173 0.930 . S
C1165 C1162 1.383 . S
C1165 C1163 1.365 . S
C1165 H1174 0.931 . S
C1166 C1161 1.370 . S
C1166 C1162 1.395 . S
C1166 H1175 0.930 . S
C1167 Gd1103 2.805 . S
C1167 O1143 1.263 . S
C1167 O1144 1.252 . S
C1167 C1161 1.500 . S
H1168 C1151 0.929 . S
H1169 C1152 0.930 . S
H1170 C1153 0.931 . S
H1171 C1154 0.930 . S
H1172 C1163 0.929 . S
H1173 C1164 0.930 . S
H1174 C1165 0.931 . S
H1175 C1166 0.930 . S
C1176 C1178 1.422 . S
C1176 C1180 1.415 . S
C1176 N1182 1.369 . S
C1177 C1178 1.421 . S
C1177 C1179 1.417 . S
C1177 C1189 1.422 . S
C1178 C1176 1.422 . S
C1178 C1177 1.421 . S
C1178 N1188 1.359 . S
C1179 C1177 1.417 . S
C1179 C1181 1.329 . S
C1179 H1198 0.930 . S
C1180 C1176 1.415 . S
C1180 C1181 1.437 . S
C1180 C1184 1.413 . S
C1181 C1179 1.329 . S
C1181 C1180 1.437 . S
C1181 H1203 0.929 . S
N1182 C1176 1.369 . S
N1182 C1183 1.338 . S
N1182 Gd1187 2.622 . S
C1183 N1182 1.338 . S
C1183 C1185 1.378 . S
C1183 H1195 0.929 . S
C1184 C1180 1.413 . S
C1184 C1185 1.348 . S
C1184 H1200 0.931 . S
C1185 C1183 1.378 . S
C1185 C1184 1.348 . S
C1185 H1201 0.930 . S
Gd1186 N1206 2.622 . S
Gd1186 N1213 2.570 . S
Gd1186 O1220 2.353 . S
Gd1186 O1221 2.468 . S
Gd1186 O1222 2.427 . S
Gd1186 O1224 2.388 . S
Gd1186 O1225 2.386 . S
Gd1186 O1229 2.307 . S
Gd1186 C1239 2.805 . S
Gd1187 N1182 2.622 . S
Gd1187 N1188 2.570 . S
Gd1187 O1219 2.386 . S
Gd1187 O1223 2.307 . S
Gd1187 O1226 2.353 . S
Gd1187 O1227 2.468 . S
Gd1187 O1228 2.427 . S
Gd1187 O1230 2.388 . S
Gd1187 C1251 2.805 . S
N1188 C1178 1.359 . S
N1188 Gd1187 2.570 . S
N1188 C1190 1.343 . S
C1189 C1177 1.422 . S
C1189 C1191 1.321 . S
C1189 H1197 0.931 . S
C1190 N1188 1.343 . S
C1190 C1191 1.390 . S
C1190 H1192 0.931 . S
C1191 C1189 1.321 . S
C1191 C1190 1.390 . S
C1191 H1193 0.930 . S
H1192 C1190 0.931 . S
H1193 C1191 0.930 . S
H1194 C1217 0.931 . S
H1195 C1183 0.929 . S
H1196 C1218 0.930 . S
H1197 C1189 0.931 . S
H1198 C1179 0.930 . S
H1199 C1208 0.929 . S
H1200 C1184 0.931 . S
H1201 C1185 0.930 . S
H1202 C1240 0.930 . S
H1203 C1181 0.929 . S
H1204 C1209 0.931 . S
H1205 C1210 0.930 . S
N1206 Gd1186 2.622 . S
N1206 C1207 1.369 . S
N1206 C1208 1.338 . S
C1207 N1206 1.369 . S
C1207 C1211 1.415 . S
C1207 C1214 1.422 . S
C1208 H1199 0.929 . S
C1208 N1206 1.338 . S
C1208 C1210 1.378 . S
C1209 H1204 0.931 . S
C1209 C1210 1.348 . S
C1209 C1211 1.413 . S
C1210 H1205 0.930 . S
C1210 C1208 1.378 . S
C1210 C1209 1.348 . S
C1211 C1207 1.415 . S
C1211 C1209 1.413 . S
C1211 C1241 1.437 . S
H1212 C1241 0.929 . S
N1213 Gd1186 2.570 . S
N1213 C1214 1.359 . S
N1213 C1217 1.343 . S
C1214 C1207 1.422 . S
C1214 N1213 1.359 . S
C1214 C1216 1.421 . S
C1215 C1216 1.422 . S
C1215 C1218 1.321 . S
C1215 H1242 0.931 . S
C1216 C1214 1.421 . S
C1216 C1215 1.422 . S
C1216 C1240 1.417 . S
C1217 H1194 0.931 . S
C1217 N1213 1.343 . S
C1217 C1218 1.390 . S
C1218 H1196 0.930 . S
C1218 C1215 1.321 . S
C1218 C1217 1.390 . S
O1219 Gd1187 2.386 . S
O1219 C1231 1.265 . S
O1220 Gd1186 2.353 . S
O1220 C1231 1.242 . S
O1221 Gd1186 2.468 . S
O1221 C1239 1.263 . S
O1222 Gd1186 2.427 . S
O1222 C1239 1.252 . S
O1223 Gd1187 2.307 . S
O1223 C1232 1.261 . S
O1224 Gd1186 2.388 . S
O1224 C1232 1.252 . S
O1225 Gd1186 2.386 . S
O1225 C1243 1.265 . S
O1226 Gd1187 2.353 . S
O1226 C1243 1.242 . S
O1227 Gd1187 2.468 . S
O1227 C1251 1.263 . S
O1228 Gd1187 2.427 . S
O1228 C1251 1.252 . S
O1229 Gd1186 2.307 . S
O1229 C1244 1.261 . S
O1230 Gd1187 2.388 . S
O1230 C1244 1.252 . S
C1231 O1219 1.265 . S
C1231 O1220 1.242 . S
C1232 O1223 1.261 . S
C1232 O1224 1.252 . S
C1233 C1236 1.394 . S
C1233 C1238 1.370 . S
C1233 C1239 1.500 . S
C1234 C1237 1.383 . S
C1234 C1238 1.395 . S
C1235 C1236 1.396 . S
C1235 C1237 1.365 . S
C1235 H1252 0.929 . S
C1236 C1233 1.394 . S
C1236 C1235 1.396 . S
C1236 H1253 0.930 . S
C1237 C1234 1.383 . S
C1237 C1235 1.365 . S
C1237 H1254 0.931 . S
C1238 C1233 1.370 . S
C1238 C1234 1.395 . S
C1238 H1255 0.930 . S
C1239 Gd1186 2.805 . S
C1239 O1221 1.263 . S
C1239 O1222 1.252 . S
C1239 C1233 1.500 . S
C1240 H1202 0.930 . S
C1240 C1216 1.417 . S
C1240 C1241 1.329 . S
C1241 C1211 1.437 . S
C1241 H1212 0.929 . S
C1241 C1240 1.329 . S
H1242 C1215 0.931 . S
C1243 O1225 1.265 . S
C1243 O1226 1.242 . S
C1244 O1229 1.261 . S
C1244 O1230 1.252 . S
C1245 C1248 1.394 . S
C1245 C1250 1.370 . S
C1245 C1251 1.500 . S
C1246 C1249 1.383 . S
C1246 C1250 1.395 . S
C1247 C1248 1.396 . S
C1247 C1249 1.365 . S
C1247 H1256 0.929 . S
C1248 C1245 1.394 . S
C1248 C1247 1.396 . S
C1248 H1257 0.930 . S
C1249 C1246 1.383 . S
C1249 C1247 1.365 . S
C1249 H1258 0.931 . S
C1250 C1245 1.370 . S
C1250 C1246 1.395 . S
C1250 H1259 0.930 . S
C1251 Gd1187 2.805 . S
C1251 O1227 1.263 . S
C1251 O1228 1.252 . S
C1251 C1245 1.500 . S
H1252 C1235 0.929 . S
H1253 C1236 0.930 . S
H1254 C1237 0.931 . S
H1255 C1238 0.930 . S
H1256 C1247 0.929 . S
H1257 C1248 0.930 . S
H1258 C1249 0.931 . S
H1259 C1250 0.930 . S
C1260 C1262 1.422 . S
C1260 C1264 1.415 . S
C1260 N1266 1.369 . S
C1261 C1262 1.421 . S
C1261 C1263 1.417 . S
C1261 C1273 1.422 . S
C1262 C1260 1.422 . S
C1262 C1261 1.421 . S
C1262 N1272 1.359 . S
C1263 C1261 1.417 . S
C1263 C1265 1.329 . S
C1263 H1282 0.930 . S
C1264 C1260 1.415 . S
C1264 C1265 1.437 . S
C1264 C1268 1.413 . S
C1265 C1263 1.329 . S
C1265 C1264 1.437 . S
C1265 H1287 0.929 1_455 S
N1266 C1260 1.369 . S
N1266 C1267 1.338 . S
N1266 Gd1271 2.622 . S
C1267 N1266 1.338 . S
C1267 C1269 1.378 . S
C1267 H1279 0.929 . S
C1268 C1264 1.413 . S
C1268 C1269 1.348 . S
C1268 H1284 0.931 1_455 S
C1269 C1267 1.378 . S
C1269 C1268 1.348 . S
C1269 H1285 0.930 . S
Gd1270 N1290 2.622 . S
Gd1270 N1297 2.570 . S
Gd1270 O1304 2.353 . S
Gd1270 O1305 2.468 . S
Gd1270 O1306 2.427 . S
Gd1270 O1308 2.388 . S
Gd1270 O1309 2.386 . S
Gd1270 O1313 2.307 . S
Gd1270 C1323 2.805 . S
Gd1271 N1266 2.622 . S
Gd1271 N1272 2.570 . S
Gd1271 O1303 2.386 . S
Gd1271 O1307 2.307 . S
Gd1271 O1310 2.353 . S
Gd1271 O1311 2.468 . S
Gd1271 O1312 2.427 . S
Gd1271 O1314 2.388 . S
Gd1271 C1335 2.805 . S
N1272 C1262 1.359 . S
N1272 Gd1271 2.570 . S
N1272 C1274 1.343 . S
C1273 C1261 1.422 . S
C1273 C1275 1.321 . S
C1273 H1281 0.931 . S
C1274 N1272 1.343 . S
C1274 C1275 1.390 . S
C1274 H1276 0.931 . S
C1275 C1273 1.321 . S
C1275 C1274 1.390 . S
C1275 H1277 0.930 . S
H1276 C1274 0.931 . S
H1277 C1275 0.930 . S
H1278 C1301 0.931 . S
H1279 C1267 0.929 . S
H1280 C1302 0.930 . S
H1281 C1273 0.931 . S
H1282 C1263 0.930 . S
H1283 C1292 0.929 . S
H1284 C1268 0.931 1_655 S
H1285 C1269 0.930 . S
H1286 C1324 0.930 . S
H1287 C1265 0.929 1_655 S
H1288 C1293 0.931 . S
H1289 C1294 0.930 . S
N1290 Gd1270 2.622 . S
N1290 C1291 1.369 . S
N1290 C1292 1.338 . S
C1291 N1290 1.369 . S
C1291 C1295 1.415 . S
C1291 C1298 1.422 . S
C1292 H1283 0.929 . S
C1292 N1290 1.338 . S
C1292 C1294 1.378 . S
C1293 H1288 0.931 . S
C1293 C1294 1.348 . S
C1293 C1295 1.413 . S
C1294 H1289 0.930 . S
C1294 C1292 1.378 . S
C1294 C1293 1.348 . S
C1295 C1291 1.415 . S
C1295 C1293 1.413 . S
C1295 C1325 1.437 . S
H1296 C1325 0.929 . S
N1297 Gd1270 2.570 . S
N1297 C1298 1.359 . S
N1297 C1301 1.343 . S
C1298 C1291 1.422 . S
C1298 N1297 1.359 . S
C1298 C1300 1.421 . S
C1299 C1300 1.422 . S
C1299 C1302 1.321 . S
C1299 H1326 0.931 . S
C1300 C1298 1.421 . S
C1300 C1299 1.422 . S
C1300 C1324 1.417 . S
C1301 H1278 0.931 . S
C1301 N1297 1.343 . S
C1301 C1302 1.390 . S
C1302 H1280 0.930 . S
C1302 C1299 1.321 . S
C1302 C1301 1.390 . S
O1303 Gd1271 2.386 . S
O1303 C1315 1.265 . S
O1304 Gd1270 2.353 . S
O1304 C1315 1.242 . S
O1305 Gd1270 2.468 . S
O1305 C1323 1.263 . S
O1306 Gd1270 2.427 . S
O1306 C1323 1.252 . S
O1307 Gd1271 2.307 . S
O1307 C1316 1.261 . S
O1308 Gd1270 2.388 . S
O1308 C1316 1.252 . S
O1309 Gd1270 2.386 . S
O1309 C1327 1.265 . S
O1310 Gd1271 2.353 . S
O1310 C1327 1.242 . S
O1311 Gd1271 2.468 . S
O1311 C1335 1.263 . S
O1312 Gd1271 2.427 . S
O1312 C1335 1.252 . S
O1313 Gd1270 2.307 . S
O1313 C1328 1.261 . S
O1314 Gd1271 2.388 . S
O1314 C1328 1.252 . S
C1315 O1303 1.265 . S
C1315 O1304 1.242 . S
C1316 O1307 1.261 . S
C1316 O1308 1.252 . S
C1317 C1320 1.394 . S
C1317 C1322 1.370 . S
C1317 C1323 1.500 . S
C1318 C1321 1.383 . S
C1318 C1322 1.395 . S
C1319 C1320 1.396 . S
C1319 C1321 1.365 . S
C1319 H1336 0.929 . S
C1320 C1317 1.394 . S
C1320 C1319 1.396 . S
C1320 H1337 0.930 . S
C1321 C1318 1.383 . S
C1321 C1319 1.365 . S
C1321 H1338 0.931 . S
C1322 C1317 1.370 . S
C1322 C1318 1.395 . S
C1322 H1339 0.930 . S
C1323 Gd1270 2.805 . S
C1323 O1305 1.263 . S
C1323 O1306 1.252 . S
C1323 C1317 1.500 . S
C1324 H1286 0.930 . S
C1324 C1300 1.417 . S
C1324 C1325 1.329 . S
C1325 C1295 1.437 . S
C1325 H1296 0.929 . S
C1325 C1324 1.329 . S
H1326 C1299 0.931 . S
C1327 O1309 1.265 . S
C1327 O1310 1.242 . S
C1328 O1313 1.261 . S
C1328 O1314 1.252 . S
C1329 C1332 1.394 . S
C1329 C1334 1.370 . S
C1329 C1335 1.500 . S
C1330 C1333 1.383 . S
C1330 C1334 1.395 . S
C1331 C1332 1.396 . S
C1331 C1333 1.365 . S
C1331 H1340 0.929 . S
C1332 C1329 1.394 . S
C1332 C1331 1.396 . S
C1332 H1341 0.930 . S
C1333 C1330 1.383 . S
C1333 C1331 1.365 . S
C1333 H1342 0.931 . S
C1334 C1329 1.370 . S
C1334 C1330 1.395 . S
C1334 H1343 0.930 . S
C1335 Gd1271 2.805 . S
C1335 O1311 1.263 . S
C1335 O1312 1.252 . S
C1335 C1329 1.500 . S
H1336 C1319 0.929 . S
H1337 C1320 0.930 . S
H1338 C1321 0.931 . S
H1339 C1322 0.930 . S
H1340 C1331 0.929 . S
H1341 C1332 0.930 . S
H1342 C1333 0.931 . S
H1343 C1334 0.930 . S
C1344 C1345 1.391 . S
C1344 C1346 1.394 . S
C1344 H1360 0.931 . S
C1345 C1344 1.391 . S
C1345 C1349 1.376 . S
C1346 C1344 1.394 . S
C1346 C1347 1.369 . S
C1346 C1350 1.531 . S
C1347 C1346 1.369 . S
C1347 C1348 1.410 . S
C1347 C1355 1.503 . S
C1348 C1347 1.410 . S
C1348 C1349 1.392 . S
C1348 C1351 1.511 . S
C1349 C1345 1.376 . S
C1349 C1348 1.392 . S
C1349 H1361 0.929 . S
C1350 C1346 1.531 . S
C1350 H1362 0.960 . S
C1350 H1363 0.962 . S
C1350 H1364 0.960 . S
C1351 C1348 1.511 . S
C1351 H1365 0.961 . S
C1351 H1366 0.961 . S
C1351 H1367 0.961 . S
C1352 C1353 1.370 . S
C1352 C1354 1.363 . S
C1352 H1368 0.931 . S
C1353 C1352 1.370 . S
C1353 C1357 1.408 . S
C1354 C1352 1.363 . S
C1354 C1355 1.370 . S
C1354 C1358 1.524 . S
C1355 C1347 1.503 . S
C1355 C1354 1.370 . S
C1355 C1356 1.403 . S
C1356 C1355 1.403 . S
C1356 C1357 1.404 . S
C1356 C1359 1.539 . S
C1357 C1353 1.408 . S
C1357 C1356 1.404 . S
C1357 H1369 0.930 . S
C1358 C1354 1.524 . S
C1358 H1370 0.956 . S
C1358 H1371 0.961 . S
C1358 H1372 0.961 . S
C1359 C1356 1.539 . S
C1359 H1373 0.958 . S
C1359 H1374 0.961 . S
C1359 H1375 0.960 . S
H1360 C1344 0.931 . S
H1361 C1349 0.929 . S
H1362 C1350 0.960 . S
H1363 C1350 0.962 . S
H1364 C1350 0.960 . S
H1365 C1351 0.961 . S
H1366 C1351 0.961 . S
H1367 C1351 0.961 . S
H1368 C1352 0.931 . S
H1369 C1357 0.930 . S
H1370 C1358 0.956 . S
H1371 C1358 0.961 . S
H1372 C1358 0.961 . S
H1373 C1359 0.958 . S
H1374 C1359 0.961 . S
H1375 C1359 0.960 . S
C1376 C1377 1.391 . S
C1376 C1378 1.394 . S
C1376 H1392 0.931 . S
C1377 C1376 1.391 . S
C1377 C1381 1.376 . S
C1378 C1376 1.394 . S
C1378 C1379 1.369 . S
C1378 C1382 1.531 . S
C1379 C1378 1.369 . S
C1379 C1380 1.410 1_455 S
C1379 C1387 1.503 . S
C1380 C1379 1.410 1_655 S
C1380 C1381 1.392 1_655 S
C1380 C1383 1.511 . S
C1381 C1377 1.376 . S
C1381 C1380 1.392 1_455 S
C1381 H1393 0.929 1_455 S
C1382 C1378 1.531 . S
C1382 H1394 0.960 . S
C1382 H1395 0.962 . S
C1382 H1396 0.960 . S
C1383 C1380 1.511 . S
C1383 H1397 0.961 . S
C1383 H1398 0.961 . S
C1383 H1399 0.961 . S
C1384 C1385 1.370 . S
C1384 C1386 1.363 . S
C1384 H1400 0.931 . S
C1385 C1384 1.370 . S
C1385 C1389 1.408 1_655 S
C1386 C1384 1.363 . S
C1386 C1387 1.370 1_655 S
C1386 C1390 1.524 . S
C1387 C1379 1.503 . S
C1387 C1386 1.370 1_455 S
C1387 C1388 1.403 . S
C1388 C1387 1.403 . S
C1388 C1389 1.404 . S
C1388 C1391 1.539 . S
C1389 C1385 1.408 1_455 S
C1389 C1388 1.404 . S
C1389 H1401 0.930 . S
C1390 C1386 1.524 . S
C1390 H1402 0.956 . S
C1390 H1403 0.961 . S
C1390 H1404 0.961 . S
C1391 C1388 1.539 . S
C1391 H1405 0.958 . S
C1391 H1406 0.961 . S
C1391 H1407 0.960 . S
H1392 C1376 0.931 . S
H1393 C1381 0.929 1_655 S
H1394 C1382 0.960 . S
H1395 C1382 0.962 . S
H1396 C1382 0.960 . S
H1397 C1383 0.961 . S
H1398 C1383 0.961 . S
H1399 C1383 0.961 . S
H1400 C1384 0.931 . S
H1401 C1389 0.930 . S
H1402 C1390 0.956 . S
H1403 C1390 0.961 . S
H1404 C1390 0.961 . S
H1405 C1391 0.958 . S
H1406 C1391 0.961 . S
H1407 C1391 0.960 . S
C1408 C1409 1.391 1_545 S
C1408 C1410 1.394 . S
C1408 H1424 0.931 . S
C1409 C1408 1.391 1_565 S
C1409 C1413 1.376 . S
C1410 C1408 1.394 . S
C1410 C1411 1.369 . S
C1410 C1414 1.531 . S
C1411 C1410 1.369 . S
C1411 C1412 1.410 1_545 S
C1411 C1419 1.503 . S
C1412 C1411 1.410 1_565 S
C1412 C1413 1.392 . S
C1412 C1415 1.511 . S
C1413 C1409 1.376 . S
C1413 C1412 1.392 . S
C1413 H1425 0.929 . S
C1414 C1410 1.531 . S
C1414 H1426 0.960 . S
C1414 H1427 0.962 . S
C1414 H1428 0.960 . S
C1415 C1412 1.511 . S
C1415 H1429 0.961 . S
C1415 H1430 0.961 . S
C1415 H1431 0.961 . S
C1416 C1417 1.370 . S
C1416 C1418 1.363 1_545 S
C1416 H1432 0.931 1_545 S
C1417 C1416 1.370 . S
C1417 C1421 1.408 . S
C1418 C1416 1.363 1_565 S
C1418 C1419 1.370 1_565 S
C1418 C1422 1.524 . S
C1419 C1411 1.503 . S
C1419 C1418 1.370 1_545 S
C1419 C1420 1.403 . S
C1420 C1419 1.403 . S
C1420 C1421 1.404 . S
C1420 C1423 1.539 . S
C1421 C1417 1.408 . S
C1421 C1420 1.404 . S
C1421 H1433 0.930 . S
C1422 C1418 1.524 . S
C1422 H1434 0.956 . S
C1422 H1435 0.961 . S
C1422 H1436 0.961 . S
C1423 C1420 1.539 . S
C1423 H1437 0.958 . S
C1423 H1438 0.961 . S
C1423 H1439 0.960 . S
H1424 C1408 0.931 . S
H1425 C1413 0.929 . S
H1426 C1414 0.960 . S
H1427 C1414 0.962 . S
H1428 C1414 0.960 . S
H1429 C1415 0.961 . S
H1430 C1415 0.961 . S
H1431 C1415 0.961 . S
H1432 C1416 0.931 1_565 S
H1433 C1421 0.930 . S
H1434 C1422 0.956 . S
H1435 C1422 0.961 . S
H1436 C1422 0.961 . S
H1437 C1423 0.958 . S
H1438 C1423 0.961 . S
H1439 C1423 0.960 . S
C1440 C1441 1.391 . S
C1440 C1442 1.394 . S
C1440 H1456 0.931 . S
C1441 C1440 1.391 . S
C1441 C1445 1.376 . S
C1442 C1440 1.394 . S
C1442 C1443 1.369 . S
C1442 C1446 1.531 . S
C1443 C1442 1.369 . S
C1443 C1444 1.410 . S
C1443 C1451 1.503 . S
C1444 C1443 1.410 . S
C1444 C1445 1.392 . S
C1444 C1447 1.511 . S
C1445 C1441 1.376 . S
C1445 C1444 1.392 . S
C1445 H1457 0.929 . S
C1446 C1442 1.531 . S
C1446 H1458 0.960 . S
C1446 H1459 0.962 . S
C1446 H1460 0.960 . S
C1447 C1444 1.511 . S
C1447 H1461 0.961 . S
C1447 H1462 0.961 . S
C1447 H1463 0.961 . S
C1448 C1449 1.370 . S
C1448 C1450 1.363 . S
C1448 H1464 0.931 . S
C1449 C1448 1.370 . S
C1449 C1453 1.408 . S
C1450 C1448 1.363 . S
C1450 C1451 1.370 . S
C1450 C1454 1.524 . S
C1451 C1443 1.503 . S
C1451 C1450 1.370 . S
C1451 C1452 1.403 . S
C1452 C1451 1.403 . S
C1452 C1453 1.404 . S
C1452 C1455 1.539 . S
C1453 C1449 1.408 . S
C1453 C1452 1.404 . S
C1453 H1465 0.930 . S
C1454 C1450 1.524 . S
C1454 H1466 0.956 . S
C1454 H1467 0.961 . S
C1454 H1468 0.961 . S
C1455 C1452 1.539 . S
C1455 H1469 0.958 . S
C1455 H1470 0.961 . S
C1455 H1471 0.960 . S
H1456 C1440 0.931 . S
H1457 C1445 0.929 . S
H1458 C1446 0.960 . S
H1459 C1446 0.962 . S
H1460 C1446 0.960 . S
H1461 C1447 0.961 . S
H1462 C1447 0.961 . S
H1463 C1447 0.961 . S
H1464 C1448 0.931 . S
H1465 C1453 0.930 . S
H1466 C1454 0.956 . S
H1467 C1454 0.961 . S
H1468 C1454 0.961 . S
H1469 C1455 0.958 . S
H1470 C1455 0.961 . S
H1471 C1455 0.960 . S
C1472 C1473 1.391 . S
C1472 C1474 1.405 . S
C1472 H1488 0.931 . S
C1473 C1472 1.391 . S
C1473 C1477 1.376 1_565 S
C1474 C1472 1.405 . S
C1474 C1475 1.355 1_565 S
C1474 C1478 1.535 . S
C1475 C1474 1.355 1_545 S
C1475 C1476 1.410 . S
C1475 C1483 1.503 . S
C1476 C1475 1.410 . S
C1476 C1477 1.392 . S
C1476 C1479 1.511 . S
C1477 C1473 1.376 1_545 S
C1477 C1476 1.392 . S
C1477 H1489 0.929 . S
C1478 C1474 1.535 . S
C1478 H1490 0.960 1_565 S
C1478 H1491 0.962 . S
C1478 H1492 0.966 . S
C1479 C1476 1.511 . S
C1479 H1493 0.961 . S
C1479 H1494 0.961 . S
C1479 H1495 0.961 . S
C1480 C1481 1.370 1_565 S
C1480 C1482 1.363 . S
C1480 H1496 0.931 . S
C1481 C1480 1.370 1_545 S
C1481 C1485 1.408 . S
C1482 C1480 1.363 . S
C1482 C1483 1.370 1_565 S
C1482 C1486 1.524 . S
C1483 C1475 1.503 . S
C1483 C1482 1.370 1_545 S
C1483 C1484 1.403 . S
C1484 C1483 1.403 . S
C1484 C1485 1.404 . S
C1484 C1487 1.539 . S
C1485 C1481 1.408 . S
C1485 C1484 1.404 . S
C1485 H1497 0.930 . S
C1486 C1482 1.524 . S
C1486 H1498 0.956 . S
C1486 H1499 0.961 . S
C1486 H1500 0.961 . S
C1487 C1484 1.539 . S
C1487 H1501 0.958 . S
C1487 H1502 0.961 . S
C1487 H1503 0.960 . S
H1488 C1472 0.931 . S
H1489 C1477 0.929 . S
H1490 C1478 0.960 1_545 S
H1491 C1478 0.962 . S
H1492 C1478 0.966 . S
H1493 C1479 0.961 . S
H1494 C1479 0.961 . S
H1495 C1479 0.961 . S
H1496 C1480 0.931 . S
H1497 C1485 0.930 . S
H1498 C1486 0.956 . S
H1499 C1486 0.961 . S
H1500 C1486 0.961 . S
H1501 C1487 0.958 . S
H1502 C1487 0.961 . S
H1503 C1487 0.960 . S
C1504 C1505 1.391 . S
C1504 C1506 1.394 . S
C1504 H1520 0.931 . S
C1505 C1504 1.391 . S
C1505 C1509 1.376 . S
C1506 C1504 1.394 . S
C1506 C1507 1.369 . S
C1506 C1510 1.531 . S
C1507 C1506 1.369 . S
C1507 C1508 1.410 . S
C1507 C1515 1.503 . S
C1508 C1507 1.410 . S
C1508 C1509 1.392 . S
C1508 C1511 1.511 . S
C1509 C1505 1.376 . S
C1509 C1508 1.392 . S
C1509 H1521 0.929 . S
C1510 C1506 1.531 . S
C1510 H1522 0.960 . S
C1510 H1523 0.962 . S
C1510 H1524 0.960 . S
C1511 C1508 1.511 . S
C1511 H1525 0.961 . S
C1511 H1526 0.961 . S
C1511 H1527 0.961 . S
C1512 C1513 1.370 . S
C1512 C1514 1.363 . S
C1512 H1528 0.931 . S
C1513 C1512 1.370 . S
C1513 C1517 1.408 . S
C1514 C1512 1.363 . S
C1514 C1515 1.370 . S
C1514 C1518 1.524 . S
C1515 C1507 1.503 . S
C1515 C1514 1.370 . S
C1515 C1516 1.403 . S
C1516 C1515 1.403 . S
C1516 C1517 1.404 . S
C1516 C1519 1.539 . S
C1517 C1513 1.408 . S
C1517 C1516 1.404 . S
C1517 H1529 0.930 . S
C1518 C1514 1.524 . S
C1518 H1530 0.956 . S
C1518 H1531 0.961 . S
C1518 H1532 0.961 . S
C1519 C1516 1.539 . S
C1519 H1533 0.958 . S
C1519 H1534 0.961 . S
C1519 H1535 0.960 . S
H1520 C1504 0.931 . S
H1521 C1509 0.929 . S
H1522 C1510 0.960 . S
H1523 C1510 0.962 . S
H1524 C1510 0.960 . S
H1525 C1511 0.961 . S
H1526 C1511 0.961 . S
H1527 C1511 0.961 . S
H1528 C1512 0.931 . S
H1529 C1517 0.930 . S
H1530 C1518 0.956 . S
H1531 C1518 0.961 . S
H1532 C1518 0.961 . S
H1533 C1519 0.958 . S
H1534 C1519 0.961 . S
H1535 C1519 0.960 . S
C1536 C1537 1.391 . S
C1536 C1538 1.394 . S
C1536 H1552 0.931 . S
C1537 C1536 1.391 . S
C1537 C1541 1.376 . S
C1538 C1536 1.394 . S
C1538 C1539 1.369 . S
C1538 C1542 1.531 . S
C1539 C1538 1.369 . S
C1539 C1540 1.410 . S
C1539 C1547 1.503 . S
C1540 C1539 1.410 . S
C1540 C1541 1.392 . S
C1540 C1543 1.511 . S
C1541 C1537 1.376 . S
C1541 C1540 1.392 . S
C1541 H1553 0.929 . S
C1542 C1538 1.531 . S
C1542 H1554 0.960 . S
C1542 H1555 0.962 . S
C1542 H1556 0.960 . S
C1543 C1540 1.511 . S
C1543 H1557 0.961 . S
C1543 H1558 0.961 . S
C1543 H1559 0.961 . S
C1544 C1545 1.370 . S
C1544 C1546 1.363 . S
C1544 H1560 0.931 . S
C1545 C1544 1.370 . S
C1545 C1549 1.408 . S
C1546 C1544 1.363 . S
C1546 C1547 1.370 . S
C1546 C1550 1.524 . S
C1547 C1539 1.503 . S
C1547 C1546 1.370 . S
C1547 C1548 1.403 . S
C1548 C1547 1.403 . S
C1548 C1549 1.404 . S
C1548 C1551 1.539 . S
C1549 C1545 1.408 . S
C1549 C1548 1.404 . S
C1549 H1561 0.930 . S
C1550 C1546 1.524 . S
C1550 H1562 0.956 . S
C1550 H1563 0.961 . S
C1550 H1564 0.961 . S
C1551 C1548 1.539 . S
C1551 H1565 0.958 . S
C1551 H1566 0.961 . S
C1551 H1567 0.960 . S
H1552 C1536 0.931 . S
H1553 C1541 0.929 . S
H1554 C1542 0.960 . S
H1555 C1542 0.962 . S
H1556 C1542 0.960 . S
H1557 C1543 0.961 . S
H1558 C1543 0.961 . S
H1559 C1543 0.961 . S
H1560 C1544 0.931 . S
H1561 C1549 0.930 . S
H1562 C1550 0.956 . S
H1563 C1550 0.961 . S
H1564 C1550 0.961 . S
H1565 C1551 0.958 . S
H1566 C1551 0.961 . S
H1567 C1551 0.960 . S
C1568 C1569 1.391 . S
C1568 C1570 1.394 . S
C1568 H1584 0.931 . S
C1569 C1568 1.391 . S
C1569 C1573 1.376 1_455 S
C1570 C1568 1.394 . S
C1570 C1571 1.369 . S
C1570 C1574 1.531 . S
C1571 C1570 1.369 . S
C1571 C1572 1.410 1_455 S
C1571 C1579 1.503 . S
C1572 C1571 1.410 1_655 S
C1572 C1573 1.392 . S
C1572 C1575 1.511 . S
C1573 C1569 1.376 1_655 S
C1573 C1572 1.392 . S
C1573 H1585 0.929 . S
C1574 C1570 1.531 . S
C1574 H1586 0.960 . S
C1574 H1587 0.962 . S
C1574 H1588 0.960 . S
C1575 C1572 1.511 . S
C1575 H1589 0.961 . S
C1575 H1590 0.961 . S
C1575 H1591 0.961 . S
C1576 C1577 1.370 . S
C1576 C1578 1.363 . S
C1576 H1592 0.931 . S
C1577 C1576 1.370 . S
C1577 C1581 1.408 1_655 S
C1578 C1576 1.363 . S
C1578 C1579 1.370 1_655 S
C1578 C1582 1.524 . S
C1579 C1571 1.503 . S
C1579 C1578 1.370 1_455 S
C1579 C1580 1.403 . S
C1580 C1579 1.403 . S
C1580 C1581 1.404 . S
C1580 C1583 1.539 . S
C1581 C1577 1.408 1_455 S
C1581 C1580 1.404 . S
C1581 H1593 0.930 . S
C1582 C1578 1.524 . S
C1582 H1594 0.956 1_655 S
C1582 H1595 0.961 . S
C1582 H1596 0.961 . S
C1583 C1580 1.539 . S
C1583 H1597 0.958 . S
C1583 H1598 0.961 . S
C1583 H1599 0.960 . S
H1584 C1568 0.931 . S
H1585 C1573 0.929 . S
H1586 C1574 0.960 . S
H1587 C1574 0.962 . S
H1588 C1574 0.960 . S
H1589 C1575 0.961 . S
H1590 C1575 0.961 . S
H1591 C1575 0.961 . S
H1592 C1576 0.931 . S
H1593 C1581 0.930 . S
H1594 C1582 0.956 1_455 S
H1595 C1582 0.961 . S
H1596 C1582 0.961 . S
H1597 C1583 0.958 . S
H1598 C1583 0.961 . S
H1599 C1583 0.960 . S
C1600 C1601 1.391 . S
C1600 C1602 1.394 . S
C1600 H1616 0.931 . S
C1601 C1600 1.391 . S
C1601 C1605 1.376 . S
C1602 C1600 1.394 . S
C1602 C1603 1.369 . S
C1602 C1606 1.531 . S
C1603 C1602 1.369 . S
C1603 C1604 1.410 . S
C1603 C1611 1.503 . S
C1604 C1603 1.410 . S
C1604 C1605 1.392 . S
C1604 C1607 1.511 . S
C1605 C1601 1.376 . S
C1605 C1604 1.392 . S
C1605 H1617 0.929 . S
C1606 C1602 1.531 . S
C1606 H1618 0.960 . S
C1606 H1619 0.962 . S
C1606 H1620 0.960 . S
C1607 C1604 1.511 . S
C1607 H1621 0.961 . S
C1607 H1622 0.961 . S
C1607 H1623 0.961 . S
C1608 C1609 1.370 . S
C1608 C1610 1.363 . S
C1608 H1624 0.931 . S
C1609 C1608 1.370 . S
C1609 C1613 1.408 . S
C1610 C1608 1.363 . S
C1610 C1611 1.370 . S
C1610 C1614 1.524 . S
C1611 C1603 1.503 . S
C1611 C1610 1.370 . S
C1611 C1612 1.403 . S
C1612 C1611 1.403 . S
C1612 C1613 1.404 . S
C1612 C1615 1.539 . S
C1613 C1609 1.408 . S
C1613 C1612 1.404 . S
C1613 H1625 0.930 . S
C1614 C1610 1.524 . S
C1614 H1626 0.956 . S
C1614 H1627 0.961 . S
C1614 H1628 0.961 . S
C1615 C1612 1.539 . S
C1615 H1629 0.958 . S
C1615 H1630 0.961 . S
C1615 H1631 0.960 . S
H1616 C1600 0.931 . S
H1617 C1605 0.929 . S
H1618 C1606 0.960 . S
H1619 C1606 0.962 . S
H1620 C1606 0.960 . S
H1621 C1607 0.961 . S
H1622 C1607 0.961 . S
H1623 C1607 0.961 . S
H1624 C1608 0.931 . S
H1625 C1613 0.930 . S
H1626 C1614 0.956 . S
H1627 C1614 0.961 . S
H1628 C1614 0.961 . S
H1629 C1615 0.958 . S
H1630 C1615 0.961 . S
H1631 C1615 0.960 . S
C1632 C1633 1.391 . S
C1632 C1634 1.394 . S
C1632 H1648 0.931 . S
C1633 C1632 1.391 . S
C1633 C1637 1.376 1_655 S
C1634 C1632 1.394 . S
C1634 C1635 1.369 . S
C1634 C1638 1.531 . S
C1635 C1634 1.369 . S
C1635 C1636 1.410 1_655 S
C1635 C1643 1.505 . S
C1636 C1635 1.410 1_455 S
C1636 C1637 1.392 . S
C1636 C1639 1.511 . S
C1637 C1633 1.376 1_455 S
C1637 C1636 1.392 . S
C1637 H1649 0.929 . S
C1638 C1634 1.531 . S
C1638 H1650 0.960 . S
C1638 H1651 0.962 . S
C1638 H1652 0.960 . S
C1639 C1636 1.511 . S
C1639 H1653 0.961 . S
C1639 H1654 0.961 . S
C1639 H1655 0.961 . S
C1640 C1641 1.370 1_655 S
C1640 C1642 1.363 . S
C1640 H1656 0.931 . S
C1641 C1640 1.370 1_455 S
C1641 C1645 1.408 . S
C1642 C1640 1.363 . S
C1642 C1643 1.372 . S
C1642 C1646 1.524 . S
C1643 C1635 1.505 . S
C1643 C1642 1.372 . S
C1643 C1644 1.400 1_655 S
C1644 C1643 1.400 1_455 S
C1644 C1645 1.404 . S
C1644 C1647 1.539 . S
C1645 C1641 1.408 . S
C1645 C1644 1.404 . S
C1645 H1657 0.930 . S
C1646 C1642 1.524 . S
C1646 H1658 0.956 . S
C1646 H1659 0.961 . S
C1646 H1660 0.961 . S
C1647 C1644 1.539 . S
C1647 H1661 0.958 . S
C1647 H1662 0.961 . S
C1647 H1663 0.960 . S
H1648 C1632 0.931 . S
H1649 C1637 0.929 . S
H1650 C1638 0.960 . S
H1651 C1638 0.962 . S
H1652 C1638 0.960 . S
H1653 C1639 0.961 . S
H1654 C1639 0.961 . S
H1655 C1639 0.961 . S
H1656 C1640 0.931 . S
H1657 C1645 0.930 . S
H1658 C1646 0.956 . S
H1659 C1646 0.961 . S
H1660 C1646 0.961 . S
H1661 C1647 0.958 . S
H1662 C1647 0.961 . S
H1663 C1647 0.960 . S
C1664 C1665 1.391 1_545 S
C1664 C1666 1.394 . S
C1664 H1680 0.931 . S
C1665 C1664 1.391 1_565 S
C1665 C1669 1.376 . S
C1666 C1664 1.394 . S
C1666 C1667 1.369 1_545 S
C1666 C1670 1.531 . S
C1667 C1666 1.369 1_565 S
C1667 C1668 1.410 . S
C1667 C1675 1.510 . S
C1668 C1667 1.410 . S
C1668 C1669 1.392 . S
C1668 C1671 1.511 . S
C1669 C1665 1.376 . S
C1669 C1668 1.392 . S
C1669 H1681 0.929 . S
C1670 C1666 1.531 . S
C1670 H1682 0.960 . S
C1670 H1683 0.962 . S
C1670 H1684 0.960 . S
C1671 C1668 1.511 . S
C1671 H1685 0.961 . S
C1671 H1686 0.961 . S
C1671 H1687 0.961 . S
C1672 C1673 1.378 . S
C1672 C1674 1.358 1_545 S
C1672 H1688 0.928 1_545 S
C1673 C1672 1.378 . S
C1673 C1677 1.408 . S
C1674 C1672 1.358 1_565 S
C1674 C1675 1.376 . S
C1674 C1678 1.524 . S
C1675 C1667 1.510 . S
C1675 C1674 1.376 . S
C1675 C1676 1.391 1_565 S
C1676 C1675 1.391 1_545 S
C1676 C1677 1.404 . S
C1676 C1679 1.539 . S
C1677 C1673 1.408 . S
C1677 C1676 1.404 . S
C1677 H1689 0.930 . S
C1678 C1674 1.524 . S
C1678 H1690 0.956 . S
C1678 H1691 0.961 . S
C1678 H1692 0.961 . S
C1679 C1676 1.539 . S
C1679 H1693 0.958 . S
C1679 H1694 0.961 . S
C1679 H1695 0.960 . S
H1680 C1664 0.931 . S
H1681 C1669 0.929 . S
H1682 C1670 0.960 . S
H1683 C1670 0.962 . S
H1684 C1670 0.960 . S
H1685 C1671 0.961 . S
H1686 C1671 0.961 . S
H1687 C1671 0.961 . S
H1688 C1672 0.928 1_565 S
H1689 C1677 0.930 . S
H1690 C1678 0.956 . S
H1691 C1678 0.961 . S
H1692 C1678 0.961 . S
H1693 C1679 0.958 . S
H1694 C1679 0.961 . S
H1695 C1679 0.960 . S
C1696 C1697 1.391 . S
C1696 C1698 1.394 . S
C1696 H1712 0.931 . S
C1697 C1696 1.391 . S
C1697 C1701 1.376 . S
C1698 C1696 1.394 . S
C1698 C1699 1.369 . S
C1698 C1702 1.531 . S
C1699 C1698 1.369 . S
C1699 C1700 1.410 . S
C1699 C1707 1.503 . S
C1700 C1699 1.410 . S
C1700 C1701 1.392 . S
C1700 C1703 1.511 . S
C1701 C1697 1.376 . S
C1701 C1700 1.392 . S
C1701 H1713 0.929 . S
C1702 C1698 1.531 . S
C1702 H1714 0.960 . S
C1702 H1715 0.962 . S
C1702 H1716 0.960 . S
C1703 C1700 1.511 . S
C1703 H1717 0.961 . S
C1703 H1718 0.961 . S
C1703 H1719 0.961 . S
C1704 C1705 1.370 . S
C1704 C1706 1.363 . S
C1704 H1720 0.931 . S
C1705 C1704 1.370 . S
C1705 C1709 1.408 . S
C1706 C1704 1.363 . S
C1706 C1707 1.370 . S
C1706 C1710 1.524 . S
C1707 C1699 1.503 . S
C1707 C1706 1.370 . S
C1707 C1708 1.403 . S
C1708 C1707 1.403 . S
C1708 C1709 1.404 . S
C1708 C1711 1.539 . S
C1709 C1705 1.408 . S
C1709 C1708 1.404 . S
C1709 H1721 0.930 . S
C1710 C1706 1.524 . S
C1710 H1722 0.956 . S
C1710 H1723 0.961 . S
C1710 H1724 0.961 . S
C1711 C1708 1.539 . S
C1711 H1725 0.958 . S
C1711 H1726 0.961 . S
C1711 H1727 0.960 . S
H1712 C1696 0.931 . S
H1713 C1701 0.929 . S
H1714 C1702 0.960 . S
H1715 C1702 0.962 . S
H1716 C1702 0.960 . S
H1717 C1703 0.961 . S
H1718 C1703 0.961 . S
H1719 C1703 0.961 . S
H1720 C1704 0.931 . S
H1721 C1709 0.930 . S
H1722 C1710 0.956 . S
H1723 C1710 0.961 . S
H1724 C1710 0.961 . S
H1725 C1711 0.958 . S
H1726 C1711 0.961 . S
H1727 C1711 0.960 . S
C1728 C1729 1.391 1_565 S
C1728 C1730 1.394 . S
C1728 H1744 0.931 . S
C1729 C1728 1.391 1_545 S
C1729 C1733 1.376 . S
C1730 C1728 1.394 . S
C1730 C1731 1.369 . S
C1730 C1734 1.531 . S
C1731 C1730 1.369 . S
C1731 C1732 1.410 1_565 S
C1731 C1739 1.503 . S
C1732 C1731 1.410 1_545 S
C1732 C1733 1.392 . S
C1732 C1735 1.511 . S
C1733 C1729 1.376 . S
C1733 C1732 1.392 . S
C1733 H1745 0.929 . S
C1734 C1730 1.531 . S
C1734 H1746 0.960 . S
C1734 H1747 0.962 . S
C1734 H1748 0.960 . S
C1735 C1732 1.511 . S
C1735 H1749 0.961 . S
C1735 H1750 0.961 . S
C1735 H1751 0.961 . S
C1736 C1737 1.370 . S
C1736 C1738 1.363 . S
C1736 H1752 0.937 . S
C1737 C1736 1.370 . S
C1737 C1741 1.408 . S
C1738 C1736 1.363 . S
C1738 C1739 1.370 . S
C1738 C1742 1.524 1_565 S
C1739 C1731 1.503 . S
C1739 C1738 1.370 . S
C1739 C1740 1.403 . S
C1740 C1739 1.403 . S
C1740 C1741 1.404 . S
C1740 C1743 1.539 . S
C1741 C1737 1.408 . S
C1741 C1740 1.404 . S
C1741 H1753 0.930 . S
C1742 C1738 1.524 1_545 S
C1742 H1754 0.956 . S
C1742 H1755 0.961 . S
C1742 H1756 0.961 . S
C1743 C1740 1.539 . S
C1743 H1757 0.958 . S
C1743 H1758 0.961 . S
C1743 H1759 0.960 . S
H1744 C1728 0.931 . S
H1745 C1733 0.929 . S
H1746 C1734 0.960 . S
H1747 C1734 0.962 . S
H1748 C1734 0.960 . S
H1749 C1735 0.961 . S
H1750 C1735 0.961 . S
H1751 C1735 0.961 . S
H1752 C1736 0.937 . S
H1753 C1741 0.930 . S
H1754 C1742 0.956 . S
H1755 C1742 0.961 . S
H1756 C1742 0.961 . S
H1757 C1743 0.958 . S
H1758 C1743 0.961 . S
H1759 C1743 0.960 . S
C1760 C1761 1.391 . S
C1760 C1762 1.394 . S
C1760 H1776 0.931 . S
C1761 C1760 1.391 . S
C1761 C1765 1.376 . S
C1762 C1760 1.394 . S
C1762 C1763 1.369 . S
C1762 C1766 1.531 . S
C1763 C1762 1.369 . S
C1763 C1764 1.410 . S
C1763 C1771 1.503 . S
C1764 C1763 1.410 . S
C1764 C1765 1.392 . S
C1764 C1767 1.511 . S
C1765 C1761 1.376 . S
C1765 C1764 1.392 . S
C1765 H1777 0.929 . S
C1766 C1762 1.531 . S
C1766 H1778 0.960 . S
C1766 H1779 0.962 . S
C1766 H1780 0.960 . S
C1767 C1764 1.511 . S
C1767 H1781 0.961 . S
C1767 H1782 0.961 . S
C1767 H1783 0.961 . S
C1768 C1769 1.370 . S
C1768 C1770 1.363 . S
C1768 H1784 0.931 . S
C1769 C1768 1.370 . S
C1769 C1773 1.408 . S
C1770 C1768 1.363 . S
C1770 C1771 1.370 . S
C1770 C1774 1.524 . S
C1771 C1763 1.503 . S
C1771 C1770 1.370 . S
C1771 C1772 1.403 . S
C1772 C1771 1.403 . S
C1772 C1773 1.404 . S
C1772 C1775 1.539 . S
C1773 C1769 1.408 . S
C1773 C1772 1.404 . S
C1773 H1785 0.930 . S
C1774 C1770 1.524 . S
C1774 H1786 0.956 . S
C1774 H1787 0.961 . S
C1774 H1788 0.961 . S
C1775 C1772 1.539 . S
C1775 H1789 0.958 . S
C1775 H1790 0.961 . S
C1775 H1791 0.960 . S
H1776 C1760 0.931 . S
H1777 C1765 0.929 . S
H1778 C1766 0.960 . S
H1779 C1766 0.962 . S
H1780 C1766 0.960 . S
H1781 C1767 0.961 . S
H1782 C1767 0.961 . S
H1783 C1767 0.961 . S
H1784 C1768 0.931 . S
H1785 C1773 0.930 . S
H1786 C1774 0.956 . S
H1787 C1774 0.961 . S
H1788 C1774 0.961 . S
H1789 C1775 0.958 . S
H1790 C1775 0.961 . S
H1791 C1775 0.960 . S
C1792 C1793 1.391 . S
C1792 C1794 1.394 . S
C1792 H1808 0.931 . S
C1793 C1792 1.391 . S
C1793 C1797 1.376 . S
C1794 C1792 1.394 . S
C1794 C1795 1.369 . S
C1794 C1798 1.531 . S
C1795 C1794 1.369 . S
C1795 C1796 1.410 . S
C1795 C1803 1.503 . S
C1796 C1795 1.410 . S
C1796 C1797 1.392 . S
C1796 C1799 1.511 . S
C1797 C1793 1.376 . S
C1797 C1796 1.392 . S
C1797 H1809 0.929 . S
C1798 C1794 1.531 . S
C1798 H1810 0.960 . S
C1798 H1811 0.962 . S
C1798 H1812 0.960 . S
C1799 C1796 1.511 . S
C1799 H1813 0.961 . S
C1799 H1814 0.961 . S
C1799 H1815 0.961 . S
C1800 C1801 1.370 . S
C1800 C1802 1.363 . S
C1800 H1816 0.931 . S
C1801 C1800 1.370 . S
C1801 C1805 1.408 . S
C1802 C1800 1.363 . S
C1802 C1803 1.370 . S
C1802 C1806 1.524 . S
C1803 C1795 1.503 . S
C1803 C1802 1.370 . S
C1803 C1804 1.403 . S
C1804 C1803 1.403 . S
C1804 C1805 1.404 . S
C1804 C1807 1.539 . S
C1805 C1801 1.408 . S
C1805 C1804 1.404 . S
C1805 H1817 0.930 . S
C1806 C1802 1.524 . S
C1806 H1818 0.956 . S
C1806 H1819 0.961 . S
C1806 H1820 0.961 . S
C1807 C1804 1.539 . S
C1807 H1821 0.958 . S
C1807 H1822 0.961 . S
C1807 H1823 0.960 . S
H1808 C1792 0.931 . S
H1809 C1797 0.929 . S
H1810 C1798 0.960 . S
H1811 C1798 0.962 . S
H1812 C1798 0.960 . S
H1813 C1799 0.961 . S
H1814 C1799 0.961 . S
H1815 C1799 0.961 . S
H1816 C1800 0.931 . S
H1817 C1805 0.930 . S
H1818 C1806 0.956 . S
H1819 C1806 0.961 . S
H1820 C1806 0.961 . S
H1821 C1807 0.958 . S
H1822 C1807 0.961 . S
H1823 C1807 0.960 . S
C1824 C1825 1.391 . S
C1824 C1826 1.394 . S
C1824 H1840 0.931 . S
C1825 C1824 1.391 . S
C1825 C1829 1.376 1_455 S
C1826 C1824 1.394 . S
C1826 C1827 1.372 . S
C1826 C1830 1.531 . S
C1827 C1826 1.372 . S
C1827 C1828 1.407 1_455 S
C1827 C1835 1.502 1_455 S
C1828 C1827 1.407 1_655 S
C1828 C1829 1.392 . S
C1828 C1831 1.511 . S
C1829 C1825 1.376 1_655 S
C1829 C1828 1.392 . S
C1829 H1841 0.929 . S
C1830 C1826 1.531 . S
C1830 H1842 0.960 . S
C1830 H1843 0.962 . S
C1830 H1844 0.960 . S
C1831 C1828 1.511 . S
C1831 H1845 0.961 . S
C1831 H1846 0.961 . S
C1831 H1847 0.961 . S
C1832 C1833 1.370 . S
C1832 C1834 1.363 . S
C1832 H1848 0.931 . S
C1833 C1832 1.370 . S
C1833 C1837 1.408 . S
C1834 C1832 1.363 . S
C1834 C1835 1.370 . S
C1834 C1838 1.524 . S
C1835 C1827 1.502 1_655 S
C1835 C1834 1.370 . S
C1835 C1836 1.403 . S
C1836 C1835 1.403 . S
C1836 C1837 1.404 . S
C1836 C1839 1.539 1_655 S
C1837 C1833 1.408 . S
C1837 C1836 1.404 . S
C1837 H1849 0.930 . S
C1838 C1834 1.524 . S
C1838 H1850 0.956 . S
C1838 H1851 0.961 . S
C1838 H1852 0.961 . S
C1839 C1836 1.539 1_455 S
C1839 H1853 0.958 . S
C1839 H1854 0.961 1_455 S
C1839 H1855 0.960 1_455 S
H1840 C1824 0.931 . S
H1841 C1829 0.929 . S
H1842 C1830 0.960 . S
H1843 C1830 0.962 . S
H1844 C1830 0.960 . S
H1845 C1831 0.961 . S
H1846 C1831 0.961 . S
H1847 C1831 0.961 . S
H1848 C1832 0.931 . S
H1849 C1837 0.930 . S
H1850 C1838 0.956 . S
H1851 C1838 0.961 . S
H1852 C1838 0.961 . S
H1853 C1839 0.958 . S
H1854 C1839 0.961 1_655 S
H1855 C1839 0.960 1_655 S
C1856 C1857 1.391 . S
C1856 C1858 1.394 . S
C1856 H1872 0.931 . S
C1857 C1856 1.391 . S
C1857 C1861 1.376 . S
C1858 C1856 1.394 . S
C1858 C1859 1.369 . S
C1858 C1862 1.531 . S
C1859 C1858 1.369 . S
C1859 C1860 1.410 . S
C1859 C1867 1.503 . S
C1860 C1859 1.410 . S
C1860 C1861 1.392 . S
C1860 C1863 1.511 1_455 S
C1861 C1857 1.376 . S
C1861 C1860 1.392 . S
C1861 H1873 0.929 1_455 S
C1862 C1858 1.531 . S
C1862 H1874 0.960 . S
C1862 H1875 0.962 . S
C1862 H1876 0.960 . S
C1863 C1860 1.511 1_655 S
C1863 H1877 0.961 . S
C1863 H1878 0.961 . S
C1863 H1879 0.961 . S
C1864 C1865 1.370 . S
C1864 C1866 1.363 . S
C1864 H1880 0.931 . S
C1865 C1864 1.370 . S
C1865 C1869 1.408 . S
C1866 C1864 1.363 . S
C1866 C1867 1.370 . S
C1866 C1870 1.524 . S
C1867 C1859 1.503 . S
C1867 C1866 1.370 . S
C1867 C1868 1.403 . S
C1868 C1867 1.403 . S
C1868 C1869 1.404 . S
C1868 C1871 1.539 . S
C1869 C1865 1.408 . S
C1869 C1868 1.404 . S
C1869 H1881 0.930 . S
C1870 C1866 1.524 . S
C1870 H1882 0.956 . S
C1870 H1883 0.961 . S
C1870 H1884 0.961 . S
C1871 C1868 1.539 . S
C1871 H1885 0.958 . S
C1871 H1886 0.961 . S
C1871 H1887 0.960 . S
H1872 C1856 0.931 . S
H1873 C1861 0.929 1_655 S
H1874 C1862 0.960 . S
H1875 C1862 0.962 . S
H1876 C1862 0.960 . S
H1877 C1863 0.961 . S
H1878 C1863 0.961 . S
H1879 C1863 0.961 . S
H1880 C1864 0.931 . S
H1881 C1869 0.930 . S
H1882 C1870 0.956 . S
H1883 C1870 0.961 . S
H1884 C1870 0.961 . S
H1885 C1871 0.958 . S
H1886 C1871 0.961 . S
H1887 C1871 0.960 . S
C1888 C1889 1.391 . S
C1888 C1890 1.394 . S
C1888 H1904 0.931 . S
C1889 C1888 1.391 . S
C1889 C1893 1.376 . S
C1890 C1888 1.394 . S
C1890 C1891 1.369 . S
C1890 C1894 1.531 . S
C1891 C1890 1.369 . S
C1891 C1892 1.410 . S
C1891 C1899 1.503 . S
C1892 C1891 1.410 . S
C1892 C1893 1.392 . S
C1892 C1895 1.511 . S
C1893 C1889 1.376 . S
C1893 C1892 1.392 . S
C1893 H1905 0.929 . S
C1894 C1890 1.531 . S
C1894 H1906 0.960 1_545 S
C1894 H1907 0.962 . S
C1894 H1908 0.960 1_545 S
C1895 C1892 1.511 . S
C1895 H1909 0.961 . S
C1895 H1910 0.961 . S
C1895 H1911 0.961 . S
C1896 C1897 1.370 . S
C1896 C1898 1.363 . S
C1896 H1912 0.931 . S
C1897 C1896 1.370 . S
C1897 C1901 1.408 . S
C1898 C1896 1.363 . S
C1898 C1899 1.370 . S
C1898 C1902 1.524 . S
C1899 C1891 1.503 . S
C1899 C1898 1.370 . S
C1899 C1900 1.403 . S
C1900 C1899 1.403 . S
C1900 C1901 1.404 . S
C1900 C1903 1.539 1_545 S
C1901 C1897 1.408 . S
C1901 C1900 1.404 . S
C1901 H1913 0.930 1_545 S
C1902 C1898 1.524 . S
C1902 H1914 0.956 . S
C1902 H1915 0.961 . S
C1902 H1916 0.961 . S
C1903 C1900 1.539 1_565 S
C1903 H1917 0.958 . S
C1903 H1918 0.961 . S
C1903 H1919 0.960 . S
H1904 C1888 0.931 . S
H1905 C1893 0.929 . S
H1906 C1894 0.960 1_565 S
H1907 C1894 0.962 . S
H1908 C1894 0.960 1_565 S
H1909 C1895 0.961 . S
H1910 C1895 0.961 . S
H1911 C1895 0.961 . S
H1912 C1896 0.931 . S
H1913 C1901 0.930 1_565 S
H1914 C1902 0.956 . S
H1915 C1902 0.961 . S
H1916 C1902 0.961 . S
H1917 C1903 0.958 . S
H1918 C1903 0.961 . S
H1919 C1903 0.960 . S
C1920 C1921 1.391 . S
C1920 C1922 1.394 . S
C1920 H1936 0.931 . S
C1921 C1920 1.391 . S
C1921 C1925 1.376 . S
C1922 C1920 1.394 . S
C1922 C1923 1.369 . S
C1922 C1926 1.531 . S
C1923 C1922 1.369 . S
C1923 C1924 1.410 . S
C1923 C1931 1.503 . S
C1924 C1923 1.410 . S
C1924 C1925 1.392 . S
C1924 C1927 1.511 . S
C1925 C1921 1.376 . S
C1925 C1924 1.392 . S
C1925 H1937 0.929 . S
C1926 C1922 1.531 . S
C1926 H1938 0.960 . S
C1926 H1939 0.962 . S
C1926 H1940 0.960 . S
C1927 C1924 1.511 . S
C1927 H1941 0.961 . S
C1927 H1942 0.961 . S
C1927 H1943 0.961 . S
C1928 C1929 1.370 . S
C1928 C1930 1.363 . S
C1928 H1944 0.931 . S
C1929 C1928 1.370 . S
C1929 C1933 1.408 . S
C1930 C1928 1.363 . S
C1930 C1931 1.370 . S
C1930 C1934 1.524 . S
C1931 C1923 1.503 . S
C1931 C1930 1.370 . S
C1931 C1932 1.403 . S
C1932 C1931 1.403 . S
C1932 C1933 1.404 . S
C1932 C1935 1.539 . S
C1933 C1929 1.408 . S
C1933 C1932 1.404 . S
C1933 H1945 0.930 . S
C1934 C1930 1.524 . S
C1934 H1946 0.956 . S
C1934 H1947 0.961 . S
C1934 H1948 0.961 . S
C1935 C1932 1.539 . S
C1935 H1949 0.958 . S
C1935 H1950 0.961 . S
C1935 H1951 0.960 . S
H1936 C1920 0.931 . S
H1937 C1925 0.929 . S
H1938 C1926 0.960 . S
H1939 C1926 0.962 . S
H1940 C1926 0.960 . S
H1941 C1927 0.961 . S
H1942 C1927 0.961 . S
H1943 C1927 0.961 . S
H1944 C1928 0.931 . S
H1945 C1933 0.930 . S
H1946 C1934 0.956 . S
H1947 C1934 0.961 . S
H1948 C1934 0.961 . S
H1949 C1935 0.958 . S
H1950 C1935 0.961 . S
H1951 C1935 0.960 . S
C1952 C1953 1.391 . S
C1952 C1954 1.394 . S
C1952 H1968 0.931 . S
C1953 C1952 1.391 . S
C1953 C1957 1.376 . S
C1954 C1952 1.394 . S
C1954 C1955 1.369 . S
C1954 C1958 1.531 . S
C1955 C1954 1.369 . S
C1955 C1956 1.410 . S
C1955 C1963 1.503 . S
C1956 C1955 1.410 . S
C1956 C1957 1.392 . S
C1956 C1959 1.511 . S
C1957 C1953 1.376 . S
C1957 C1956 1.392 . S
C1957 H1969 0.929 . S
C1958 C1954 1.531 . S
C1958 H1970 0.960 . S
C1958 H1971 0.962 . S
C1958 H1972 0.960 . S
C1959 C1956 1.511 . S
C1959 H1973 0.961 . S
C1959 H1974 0.961 . S
C1959 H1975 0.961 . S
C1960 C1961 1.370 . S
C1960 C1962 1.363 . S
C1960 H1976 0.931 . S
C1961 C1960 1.370 . S
C1961 C1965 1.408 . S
C1962 C1960 1.363 . S
C1962 C1963 1.370 . S
C1962 C1966 1.524 . S
C1963 C1955 1.503 . S
C1963 C1962 1.370 . S
C1963 C1964 1.403 . S
C1964 C1963 1.403 . S
C1964 C1965 1.404 . S
C1964 C1967 1.539 . S
C1965 C1961 1.408 . S
C1965 C1964 1.404 . S
C1965 H1977 0.930 . S
C1966 C1962 1.524 . S
C1966 H1978 0.956 . S
C1966 H1979 0.961 . S
C1966 H1980 0.961 . S
C1967 C1964 1.539 . S
C1967 H1981 0.958 . S
C1967 H1982 0.961 . S
C1967 H1983 0.960 . S
H1968 C1952 0.931 . S
H1969 C1957 0.929 . S
H1970 C1958 0.960 . S
H1971 C1958 0.962 . S
H1972 C1958 0.960 . S
H1973 C1959 0.961 . S
H1974 C1959 0.961 . S
H1975 C1959 0.961 . S
H1976 C1960 0.931 . S
H1977 C1965 0.930 . S
H1978 C1966 0.956 . S
H1979 C1966 0.961 . S
H1980 C1966 0.961 . S
H1981 C1967 0.958 . S
H1982 C1967 0.961 . S
H1983 C1967 0.960 . S
C1984 C1985 1.391 . S
C1984 C1986 1.394 . S
C1984 H2000 0.931 1_655 S
C1985 C1984 1.391 . S
C1985 C1989 1.376 . S
C1986 C1984 1.394 . S
C1986 C1987 1.369 . S
C1986 C1990 1.531 1_655 S
C1987 C1986 1.369 . S
C1987 C1988 1.410 . S
C1987 C1995 1.503 . S
C1988 C1987 1.410 . S
C1988 C1989 1.392 . S
C1988 C1991 1.511 . S
C1989 C1985 1.376 . S
C1989 C1988 1.392 . S
C1989 H2001 0.929 . S
C1990 C1986 1.531 1_455 S
C1990 H2002 0.960 . S
C1990 H2003 0.962 . S
C1990 H2004 0.960 . S
C1991 C1988 1.511 . S
C1991 H2005 0.961 . S
C1991 H2006 0.961 . S
C1991 H2007 0.961 . S
C1992 C1993 1.370 . S
C1992 C1994 1.363 . S
C1992 H2008 0.931 . S
C1993 C1992 1.370 . S
C1993 C1997 1.408 . S
C1994 C1992 1.363 . S
C1994 C1995 1.370 . S
C1994 C1998 1.524 . S
C1995 C1987 1.503 . S
C1995 C1994 1.370 . S
C1995 C1996 1.403 . S
C1996 C1995 1.403 . S
C1996 C1997 1.404 . S
C1996 C1999 1.539 . S
C1997 C1993 1.408 . S
C1997 C1996 1.404 . S
C1997 H2009 0.930 . S
C1998 C1994 1.524 . S
C1998 H2010 0.956 1_655 S
C1998 H2011 0.961 . S
C1998 H2012 0.961 . S
C1999 C1996 1.539 . S
C1999 H2013 0.958 . S
C1999 H2014 0.961 . S
C1999 H2015 0.960 . S
H2000 C1984 0.931 1_455 S
H2001 C1989 0.929 . S
H2002 C1990 0.960 . S
H2003 C1990 0.962 . S
H2004 C1990 0.960 . S
H2005 C1991 0.961 . S
H2006 C1991 0.961 . S
H2007 C1991 0.961 . S
H2008 C1992 0.931 . S
H2009 C1997 0.930 . S
H2010 C1998 0.956 1_455 S
H2011 C1998 0.961 . S
H2012 C1998 0.961 . S
H2013 C1999 0.958 . S
H2014 C1999 0.961 . S
H2015 C1999 0.960 . S
C2016 C2017 1.391 . S
C2016 C2018 1.394 . S
C2016 H2032 0.931 . S
C2017 C2016 1.391 . S
C2017 C2021 1.376 . S
C2018 C2016 1.394 . S
C2018 C2019 1.369 . S
C2018 C2022 1.531 . S
C2019 C2018 1.369 . S
C2019 C2020 1.410 . S
C2019 C2027 1.503 . S
C2020 C2019 1.410 . S
C2020 C2021 1.392 . S
C2020 C2023 1.511 . S
C2021 C2017 1.376 . S
C2021 C2020 1.392 . S
C2021 H2033 0.929 . S
C2022 C2018 1.531 . S
C2022 H2034 0.960 . S
C2022 H2035 0.962 . S
C2022 H2036 0.960 . S
C2023 C2020 1.511 . S
C2023 H2037 0.961 1_565 S
C2023 H2038 0.961 1_565 S
C2023 H2039 0.961 . S
C2024 C2025 1.370 . S
C2024 C2026 1.363 . S
C2024 H2040 0.931 . S
C2025 C2024 1.370 . S
C2025 C2029 1.408 . S
C2026 C2024 1.363 . S
C2026 C2027 1.370 . S
C2026 C2030 1.524 1_565 S
C2027 C2019 1.503 . S
C2027 C2026 1.370 . S
C2027 C2028 1.403 . S
C2028 C2027 1.403 . S
C2028 C2029 1.404 . S
C2028 C2031 1.539 . S
C2029 C2025 1.408 . S
C2029 C2028 1.404 . S
C2029 H2041 0.930 . S
C2030 C2026 1.524 1_545 S
C2030 H2042 0.956 1_545 S
C2030 H2043 0.961 . S
C2030 H2044 0.961 . S
C2031 C2028 1.539 . S
C2031 H2045 0.958 . S
C2031 H2046 0.961 . S
C2031 H2047 0.960 . S
H2032 C2016 0.931 . S
H2033 C2021 0.929 . S
H2034 C2022 0.960 . S
H2035 C2022 0.962 . S
H2036 C2022 0.960 . S
H2037 C2023 0.961 1_545 S
H2038 C2023 0.961 1_545 S
H2039 C2023 0.961 . S
H2040 C2024 0.931 . S
H2041 C2029 0.930 . S
H2042 C2030 0.956 1_565 S
H2043 C2030 0.961 . S
H2044 C2030 0.961 . S
H2045 C2031 0.958 . S
H2046 C2031 0.961 . S
H2047 C2031 0.960 . S
C2048 C2049 1.391 . S
C2048 C2050 1.394 . S
C2048 H2064 0.931 . S
C2049 C2048 1.391 . S
C2049 C2053 1.376 . S
C2050 C2048 1.394 . S
C2050 C2051 1.369 . S
C2050 C2054 1.531 . S
C2051 C2050 1.369 . S
C2051 C2052 1.410 . S
C2051 C2059 1.503 . S
C2052 C2051 1.410 . S
C2052 C2053 1.392 . S
C2052 C2055 1.511 . S
C2053 C2049 1.376 . S
C2053 C2052 1.392 . S
C2053 H2065 0.929 . S
C2054 C2050 1.531 . S
C2054 H2066 0.960 . S
C2054 H2067 0.962 . S
C2054 H2068 0.960 . S
C2055 C2052 1.511 . S
C2055 H2069 0.961 . S
C2055 H2070 0.961 . S
C2055 H2071 0.961 . S
C2056 C2057 1.370 . S
C2056 C2058 1.363 . S
C2056 H2072 0.931 . S
C2057 C2056 1.370 . S
C2057 C2061 1.408 . S
C2058 C2056 1.363 . S
C2058 C2059 1.370 . S
C2058 C2062 1.524 . S
C2059 C2051 1.503 . S
C2059 C2058 1.370 . S
C2059 C2060 1.403 . S
C2060 C2059 1.403 . S
C2060 C2061 1.404 . S
C2060 C2063 1.539 . S
C2061 C2057 1.408 . S
C2061 C2060 1.404 . S
C2061 H2073 0.930 . S
C2062 C2058 1.524 . S
C2062 H2074 0.956 . S
C2062 H2075 0.961 . S
C2062 H2076 0.961 . S
C2063 C2060 1.539 . S
C2063 H2077 0.958 . S
C2063 H2078 0.961 . S
C2063 H2079 0.960 . S
H2064 C2048 0.931 . S
H2065 C2053 0.929 . S
H2066 C2054 0.960 . S
H2067 C2054 0.962 . S
H2068 C2054 0.960 . S
H2069 C2055 0.961 . S
H2070 C2055 0.961 . S
H2071 C2055 0.961 . S
H2072 C2056 0.931 . S
H2073 C2061 0.930 . S
H2074 C2062 0.956 . S
H2075 C2062 0.961 . S
H2076 C2062 0.961 . S
H2077 C2063 0.958 . S
H2078 C2063 0.961 . S
H2079 C2063 0.960 . S
C2080 C2081 1.391 . S
C2080 C2082 1.394 . S
C2080 H2096 0.931 . S
C2081 C2080 1.391 . S
C2081 C2085 1.376 . S
C2082 C2080 1.394 . S
C2082 C2083 1.369 . S
C2082 C2086 1.531 . S
C2083 C2082 1.369 . S
C2083 C2084 1.410 . S
C2083 C2091 1.503 . S
C2084 C2083 1.410 . S
C2084 C2085 1.392 . S
C2084 C2087 1.511 . S
C2085 C2081 1.376 . S
C2085 C2084 1.392 . S
C2085 H2097 0.929 . S
C2086 C2082 1.531 . S
C2086 H2098 0.960 . S
C2086 H2099 0.962 . S
C2086 H2100 0.960 . S
C2087 C2084 1.511 . S
C2087 H2101 0.961 . S
C2087 H2102 0.961 . S
C2087 H2103 0.961 . S
C2088 C2089 1.370 . S
C2088 C2090 1.363 . S
C2088 H2104 0.931 . S
C2089 C2088 1.370 . S
C2089 C2093 1.408 . S
C2090 C2088 1.363 . S
C2090 C2091 1.370 . S
C2090 C2094 1.524 . S
C2091 C2083 1.503 . S
C2091 C2090 1.370 . S
C2091 C2092 1.403 . S
C2092 C2091 1.403 . S
C2092 C2093 1.404 . S
C2092 C2095 1.539 . S
C2093 C2089 1.408 . S
C2093 C2092 1.404 . S
C2093 H2105 0.930 . S
C2094 C2090 1.524 . S
C2094 H2106 0.956 . S
C2094 H2107 0.961 . S
C2094 H2108 0.961 . S
C2095 C2092 1.539 . S
C2095 H2109 0.958 . S
C2095 H2110 0.961 . S
C2095 H2111 0.960 . S
H2096 C2080 0.931 . S
H2097 C2085 0.929 . S
H2098 C2086 0.960 . S
H2099 C2086 0.962 . S
H2100 C2086 0.960 . S
H2101 C2087 0.961 . S
H2102 C2087 0.961 . S
H2103 C2087 0.961 . S
H2104 C2088 0.931 . S
H2105 C2093 0.930 . S
H2106 C2094 0.956 . S
H2107 C2094 0.961 . S
H2108 C2094 0.961 . S
H2109 C2095 0.958 . S
H2110 C2095 0.961 . S
H2111 C2095 0.960 . S
C2112 C2113 1.391 . S
C2112 C2114 1.394 . S
C2112 H2128 0.931 . S
C2113 C2112 1.391 . S
C2113 C2117 1.376 . S
C2114 C2112 1.394 . S
C2114 C2115 1.369 . S
C2114 C2118 1.531 . S
C2115 C2114 1.369 . S
C2115 C2116 1.410 . S
C2115 C2123 1.503 . S
C2116 C2115 1.410 . S
C2116 C2117 1.392 . S
C2116 C2119 1.511 . S
C2117 C2113 1.376 . S
C2117 C2116 1.392 . S
C2117 H2129 0.929 . S
C2118 C2114 1.531 . S
C2118 H2130 0.960 . S
C2118 H2131 0.962 . S
C2118 H2132 0.960 . S
C2119 C2116 1.511 . S
C2119 H2133 0.961 . S
C2119 H2134 0.961 . S
C2119 H2135 0.961 . S
C2120 C2121 1.370 . S
C2120 C2122 1.363 . S
C2120 H2136 0.931 . S
C2121 C2120 1.370 . S
C2121 C2125 1.408 . S
C2122 C2120 1.363 . S
C2122 C2123 1.370 . S
C2122 C2126 1.524 . S
C2123 C2115 1.503 . S
C2123 C2122 1.370 . S
C2123 C2124 1.403 . S
C2124 C2123 1.403 . S
C2124 C2125 1.404 . S
C2124 C2127 1.539 . S
C2125 C2121 1.408 . S
C2125 C2124 1.404 . S
C2125 H2137 0.930 . S
C2126 C2122 1.524 . S
C2126 H2138 0.956 . S
C2126 H2139 0.961 . S
C2126 H2140 0.961 . S
C2127 C2124 1.539 . S
C2127 H2141 0.958 . S
C2127 H2142 0.961 . S
C2127 H2143 0.960 . S
H2128 C2112 0.931 . S
H2129 C2117 0.929 . S
H2130 C2118 0.960 . S
H2131 C2118 0.962 . S
H2132 C2118 0.960 . S
H2133 C2119 0.961 . S
H2134 C2119 0.961 . S
H2135 C2119 0.961 . S
H2136 C2120 0.931 . S
H2137 C2125 0.930 . S
H2138 C2126 0.956 . S
H2139 C2126 0.961 . S
H2140 C2126 0.961 . S
H2141 C2127 0.958 . S
H2142 C2127 0.961 . S
H2143 C2127 0.960 . S
C2144 C2145 1.391 . S
C2144 C2146 1.394 . S
C2144 H2160 0.931 . S
C2145 C2144 1.391 . S
C2145 C2149 1.376 . S
C2146 C2144 1.394 . S
C2146 C2147 1.369 . S
C2146 C2150 1.531 . S
C2147 C2146 1.369 . S
C2147 C2148 1.410 . S
C2147 C2155 1.503 . S
C2148 C2147 1.410 . S
C2148 C2149 1.392 . S
C2148 C2151 1.511 . S
C2149 C2145 1.376 . S
C2149 C2148 1.392 . S
C2149 H2161 0.929 . S
C2150 C2146 1.531 . S
C2150 H2162 0.960 . S
C2150 H2163 0.962 . S
C2150 H2164 0.960 . S
C2151 C2148 1.511 . S
C2151 H2165 0.961 . S
C2151 H2166 0.961 . S
C2151 H2167 0.961 . S
C2152 C2153 1.370 . S
C2152 C2154 1.363 . S
C2152 H2168 0.931 . S
C2153 C2152 1.370 . S
C2153 C2157 1.408 . S
C2154 C2152 1.363 . S
C2154 C2155 1.370 . S
C2154 C2158 1.524 . S
C2155 C2147 1.503 . S
C2155 C2154 1.370 . S
C2155 C2156 1.403 . S
C2156 C2155 1.403 . S
C2156 C2157 1.404 . S
C2156 C2159 1.539 . S
C2157 C2153 1.408 . S
C2157 C2156 1.404 . S
C2157 H2169 0.930 . S
C2158 C2154 1.524 . S
C2158 H2170 0.956 . S
C2158 H2171 0.961 . S
C2158 H2172 0.961 . S
C2159 C2156 1.539 . S
C2159 H2173 0.958 . S
C2159 H2174 0.961 . S
C2159 H2175 0.960 . S
H2160 C2144 0.931 . S
H2161 C2149 0.929 . S
H2162 C2150 0.960 . S
H2163 C2150 0.962 . S
H2164 C2150 0.960 . S
H2165 C2151 0.961 . S
H2166 C2151 0.961 . S
H2167 C2151 0.961 . S
H2168 C2152 0.931 . S
H2169 C2157 0.930 . S
H2170 C2158 0.956 . S
H2171 C2158 0.961 . S
H2172 C2158 0.961 . S
H2173 C2159 0.958 . S
H2174 C2159 0.961 . S
H2175 C2159 0.960 . S
C2176 C2177 1.391 . S
C2176 C2178 1.394 . S
C2176 H2192 0.931 . S
C2177 C2176 1.391 . S
C2177 C2181 1.376 . S
C2178 C2176 1.394 . S
C2178 C2179 1.369 . S
C2178 C2182 1.531 . S
C2179 C2178 1.369 . S
C2179 C2180 1.410 . S
C2179 C2187 1.503 . S
C2180 C2179 1.410 . S
C2180 C2181 1.392 . S
C2180 C2183 1.511 . S
C2181 C2177 1.376 . S
C2181 C2180 1.392 . S
C2181 H2193 0.929 . S
C2182 C2178 1.531 . S
C2182 H2194 0.960 . S
C2182 H2195 0.962 . S
C2182 H2196 0.960 . S
C2183 C2180 1.511 . S
C2183 H2197 0.961 . S
C2183 H2198 0.961 . S
C2183 H2199 0.961 . S
C2184 C2185 1.370 . S
C2184 C2186 1.363 . S
C2184 H2200 0.931 . S
C2185 C2184 1.370 . S
C2185 C2189 1.408 . S
C2186 C2184 1.363 . S
C2186 C2187 1.370 . S
C2186 C2190 1.524 . S
C2187 C2179 1.503 . S
C2187 C2186 1.370 . S
C2187 C2188 1.403 . S
C2188 C2187 1.403 . S
C2188 C2189 1.404 . S
C2188 C2191 1.539 . S
C2189 C2185 1.408 . S
C2189 C2188 1.404 . S
C2189 H2201 0.930 . S
C2190 C2186 1.524 . S
C2190 H2202 0.956 . S
C2190 H2203 0.961 . S
C2190 H2204 0.961 . S
C2191 C2188 1.539 . S
C2191 H2205 0.958 . S
C2191 H2206 0.961 . S
C2191 H2207 0.960 . S
H2192 C2176 0.931 . S
H2193 C2181 0.929 . S
H2194 C2182 0.960 . S
H2195 C2182 0.962 . S
H2196 C2182 0.960 . S
H2197 C2183 0.961 . S
H2198 C2183 0.961 . S
H2199 C2183 0.961 . S
H2200 C2184 0.931 . S
H2201 C2189 0.930 . S
H2202 C2190 0.956 . S
H2203 C2190 0.961 . S
H2204 C2190 0.961 . S
H2205 C2191 0.958 . S
H2206 C2191 0.961 . S
H2207 C2191 0.960 . S
C2208 C2209 1.391 . S
C2208 C2210 1.394 . S
C2208 H2224 0.931 . S
C2209 C2208 1.391 . S
C2209 C2213 1.376 . S
C2210 C2208 1.394 . S
C2210 C2211 1.369 . S
C2210 C2214 1.531 . S
C2211 C2210 1.369 . S
C2211 C2212 1.410 . S
C2211 C2219 1.503 . S
C2212 C2211 1.410 . S
C2212 C2213 1.392 . S
C2212 C2215 1.511 . S
C2213 C2209 1.376 . S
C2213 C2212 1.392 . S
C2213 H2225 0.929 . S
C2214 C2210 1.531 . S
C2214 H2226 0.960 . S
C2214 H2227 0.962 . S
C2214 H2228 0.960 . S
C2215 C2212 1.511 . S
C2215 H2229 0.961 . S
C2215 H2230 0.961 . S
C2215 H2231 0.961 . S
C2216 C2217 1.370 . S
C2216 C2218 1.363 . S
C2216 H2232 0.931 . S
C2217 C2216 1.370 . S
C2217 C2221 1.408 . S
C2218 C2216 1.363 . S
C2218 C2219 1.370 . S
C2218 C2222 1.524 . S
C2219 C2211 1.503 . S
C2219 C2218 1.370 . S
C2219 C2220 1.403 . S
C2220 C2219 1.403 . S
C2220 C2221 1.404 . S
C2220 C2223 1.539 . S
C2221 C2217 1.408 . S
C2221 C2220 1.404 . S
C2221 H2233 0.930 . S
C2222 C2218 1.524 . S
C2222 H2234 0.956 . S
C2222 H2235 0.961 . S
C2222 H2236 0.961 . S
C2223 C2220 1.539 . S
C2223 H2237 0.958 . S
C2223 H2238 0.961 . S
C2223 H2239 0.960 . S
H2224 C2208 0.931 . S
H2225 C2213 0.929 . S
H2226 C2214 0.960 . S
H2227 C2214 0.962 . S
H2228 C2214 0.960 . S
H2229 C2215 0.961 . S
H2230 C2215 0.961 . S
H2231 C2215 0.961 . S
H2232 C2216 0.931 . S
H2233 C2221 0.930 . S
H2234 C2222 0.956 . S
H2235 C2222 0.961 . S
H2236 C2222 0.961 . S
H2237 C2223 0.958 . S
H2238 C2223 0.961 . S
H2239 C2223 0.960 . S
C2240 C2241 1.391 . S
C2240 C2242 1.394 . S
C2240 H2256 0.931 . S
C2241 C2240 1.391 . S
C2241 C2245 1.376 . S
C2242 C2240 1.394 . S
C2242 C2243 1.369 . S
C2242 C2246 1.531 . S
C2243 C2242 1.369 . S
C2243 C2244 1.410 . S
C2243 C2251 1.503 . S
C2244 C2243 1.410 . S
C2244 C2245 1.392 . S
C2244 C2247 1.511 . S
C2245 C2241 1.376 . S
C2245 C2244 1.392 . S
C2245 H2257 0.929 . S
C2246 C2242 1.531 . S
C2246 H2258 0.960 . S
C2246 H2259 0.962 . S
C2246 H2260 0.960 . S
C2247 C2244 1.511 . S
C2247 H2261 0.961 . S
C2247 H2262 0.961 . S
C2247 H2263 0.961 . S
C2248 C2249 1.370 . S
C2248 C2250 1.363 . S
C2248 H2264 0.931 . S
C2249 C2248 1.370 . S
C2249 C2253 1.408 . S
C2250 C2248 1.363 . S
C2250 C2251 1.370 . S
C2250 C2254 1.524 . S
C2251 C2243 1.503 . S
C2251 C2250 1.370 . S
C2251 C2252 1.403 . S
C2252 C2251 1.403 . S
C2252 C2253 1.404 . S
C2252 C2255 1.539 . S
C2253 C2249 1.408 . S
C2253 C2252 1.404 . S
C2253 H2265 0.930 . S
C2254 C2250 1.524 . S
C2254 H2266 0.956 . S
C2254 H2267 0.961 . S
C2254 H2268 0.961 . S
C2255 C2252 1.539 . S
C2255 H2269 0.958 . S
C2255 H2270 0.961 . S
C2255 H2271 0.960 . S
H2256 C2240 0.931 . S
H2257 C2245 0.929 . S
H2258 C2246 0.960 . S
H2259 C2246 0.962 . S
H2260 C2246 0.960 . S
H2261 C2247 0.961 . S
H2262 C2247 0.961 . S
H2263 C2247 0.961 . S
H2264 C2248 0.931 . S
H2265 C2253 0.930 . S
H2266 C2254 0.956 . S
H2267 C2254 0.961 . S
H2268 C2254 0.961 . S
H2269 C2255 0.958 . S
H2270 C2255 0.961 . S
H2271 C2255 0.960 . S
C2272 C2273 1.391 . S
C2272 C2274 1.394 . S
C2272 H2288 0.931 . S
C2273 C2272 1.391 . S
C2273 C2277 1.376 . S
C2274 C2272 1.394 . S
C2274 C2275 1.369 . S
C2274 C2278 1.531 . S
C2275 C2274 1.369 . S
C2275 C2276 1.410 . S
C2275 C2283 1.503 . S
C2276 C2275 1.410 . S
C2276 C2277 1.392 . S
C2276 C2279 1.511 . S
C2277 C2273 1.376 . S
C2277 C2276 1.392 . S
C2277 H2289 0.929 . S
C2278 C2274 1.531 . S
C2278 H2290 0.960 . S
C2278 H2291 0.962 . S
C2278 H2292 0.960 . S
C2279 C2276 1.511 . S
C2279 H2293 0.961 . S
C2279 H2294 0.961 . S
C2279 H2295 0.961 . S
C2280 C2281 1.370 . S
C2280 C2282 1.363 . S
C2280 H2296 0.931 . S
C2281 C2280 1.370 . S
C2281 C2285 1.408 . S
C2282 C2280 1.363 . S
C2282 C2283 1.370 . S
C2282 C2286 1.524 . S
C2283 C2275 1.503 . S
C2283 C2282 1.370 . S
C2283 C2284 1.403 . S
C2284 C2283 1.403 . S
C2284 C2285 1.404 . S
C2284 C2287 1.539 . S
C2285 C2281 1.408 . S
C2285 C2284 1.404 . S
C2285 H2297 0.930 . S
C2286 C2282 1.524 . S
C2286 H2298 0.956 . S
C2286 H2299 0.961 . S
C2286 H2300 0.961 . S
C2287 C2284 1.539 . S
C2287 H2301 0.958 . S
C2287 H2302 0.961 . S
C2287 H2303 0.960 . S
H2288 C2272 0.931 . S
H2289 C2277 0.929 . S
H2290 C2278 0.960 . S
H2291 C2278 0.962 . S
H2292 C2278 0.960 . S
H2293 C2279 0.961 . S
H2294 C2279 0.961 . S
H2295 C2279 0.961 . S
H2296 C2280 0.931 . S
H2297 C2285 0.930 . S
H2298 C2286 0.956 . S
H2299 C2286 0.961 . S
H2300 C2286 0.961 . S
H2301 C2287 0.958 . S
H2302 C2287 0.961 . S
H2303 C2287 0.960 . S
C2304 C2305 1.391 . S
C2304 C2306 1.394 . S
C2304 H2320 0.931 . S
C2305 C2304 1.391 . S
C2305 C2309 1.376 . S
C2306 C2304 1.394 . S
C2306 C2307 1.369 . S
C2306 C2310 1.531 . S
C2307 C2306 1.369 . S
C2307 C2308 1.410 . S
C2307 C2315 1.503 . S
C2308 C2307 1.410 . S
C2308 C2309 1.392 . S
C2308 C2311 1.511 . S
C2309 C2305 1.376 . S
C2309 C2308 1.392 . S
C2309 H2321 0.929 . S
C2310 C2306 1.531 . S
C2310 H2322 0.960 . S
C2310 H2323 0.962 . S
C2310 H2324 0.960 . S
C2311 C2308 1.511 . S
C2311 H2325 0.961 . S
C2311 H2326 0.961 . S
C2311 H2327 0.961 . S
C2312 C2313 1.370 . S
C2312 C2314 1.363 . S
C2312 H2328 0.931 . S
C2313 C2312 1.370 . S
C2313 C2317 1.408 . S
C2314 C2312 1.363 . S
C2314 C2315 1.370 . S
C2314 C2318 1.524 . S
C2315 C2307 1.503 . S
C2315 C2314 1.370 . S
C2315 C2316 1.403 . S
C2316 C2315 1.403 . S
C2316 C2317 1.404 . S
C2316 C2319 1.539 . S
C2317 C2313 1.408 . S
C2317 C2316 1.404 . S
C2317 H2329 0.930 . S
C2318 C2314 1.524 . S
C2318 H2330 0.956 . S
C2318 H2331 0.961 . S
C2318 H2332 0.961 . S
C2319 C2316 1.539 . S
C2319 H2333 0.958 . S
C2319 H2334 0.961 . S
C2319 H2335 0.960 . S
H2320 C2304 0.931 . S
H2321 C2309 0.929 . S
H2322 C2310 0.960 . S
H2323 C2310 0.962 . S
H2324 C2310 0.960 . S
H2325 C2311 0.961 . S
H2326 C2311 0.961 . S
H2327 C2311 0.961 . S
H2328 C2312 0.931 . S
H2329 C2317 0.930 . S
H2330 C2318 0.956 . S
H2331 C2318 0.961 . S
H2332 C2318 0.961 . S
H2333 C2319 0.958 . S
H2334 C2319 0.961 . S
H2335 C2319 0.960 . S
C2336 C2337 1.391 . S
C2336 C2338 1.394 . S
C2336 H2352 0.931 . S
C2337 C2336 1.391 . S
C2337 C2341 1.376 . S
C2338 C2336 1.394 . S
C2338 C2339 1.369 . S
C2338 C2342 1.531 . S
C2339 C2338 1.369 . S
C2339 C2340 1.410 . S
C2339 C2347 1.503 . S
C2340 C2339 1.410 . S
C2340 C2341 1.392 . S
C2340 C2343 1.511 . S
C2341 C2337 1.376 . S
C2341 C2340 1.392 . S
C2341 H2353 0.929 . S
C2342 C2338 1.531 . S
C2342 H2354 0.960 . S
C2342 H2355 0.962 . S
C2342 H2356 0.960 . S
C2343 C2340 1.511 . S
C2343 H2357 0.961 . S
C2343 H2358 0.961 . S
C2343 H2359 0.961 . S
C2344 C2345 1.370 . S
C2344 C2346 1.363 . S
C2344 H2360 0.931 . S
C2345 C2344 1.370 . S
C2345 C2349 1.408 . S
C2346 C2344 1.363 . S
C2346 C2347 1.370 . S
C2346 C2350 1.524 . S
C2347 C2339 1.503 . S
C2347 C2346 1.370 . S
C2347 C2348 1.403 . S
C2348 C2347 1.403 . S
C2348 C2349 1.404 . S
C2348 C2351 1.539 . S
C2349 C2345 1.408 . S
C2349 C2348 1.404 . S
C2349 H2361 0.930 . S
C2350 C2346 1.524 . S
C2350 H2362 0.956 . S
C2350 H2363 0.961 . S
C2350 H2364 0.961 . S
C2351 C2348 1.539 . S
C2351 H2365 0.958 . S
C2351 H2366 0.961 . S
C2351 H2367 0.960 . S
H2352 C2336 0.931 . S
H2353 C2341 0.929 . S
H2354 C2342 0.960 . S
H2355 C2342 0.962 . S
H2356 C2342 0.960 . S
H2357 C2343 0.961 . S
H2358 C2343 0.961 . S
H2359 C2343 0.961 . S
H2360 C2344 0.931 . S
H2361 C2349 0.930 . S
H2362 C2350 0.956 . S
H2363 C2350 0.961 . S
H2364 C2350 0.961 . S
H2365 C2351 0.958 . S
H2366 C2351 0.961 . S
H2367 C2351 0.960 . S
C2368 C2369 1.391 . S
C2368 C2370 1.414 . S
C2368 H2384 0.931 . S
C2369 C2368 1.391 . S
C2369 C2373 1.376 1_655 S
C2370 C2368 1.414 . S
C2370 C2371 1.377 1_655 S
C2370 C2374 1.502 1_556 S
C2371 C2370 1.377 1_455 S
C2371 C2372 1.410 . S
C2371 C2379 1.503 1_556 S
C2372 C2371 1.410 . S
C2372 C2373 1.392 . S
C2372 C2375 1.511 . S
C2373 C2369 1.376 1_455 S
C2373 C2372 1.392 . S
C2373 H2385 0.929 . S
C2374 C2370 1.502 1_554 S
C2374 H2386 0.960 . S
C2374 H2387 0.962 . S
C2374 H2388 0.960 . S
C2375 C2372 1.511 . S
C2375 H2389 0.961 . S
C2375 H2390 0.961 . S
C2375 H2391 0.961 . S
C2376 C2377 1.370 1_655 S
C2376 C2378 1.363 . S
C2376 H2392 0.931 . S
C2377 C2376 1.370 1_455 S
C2377 C2381 1.408 . S
C2378 C2376 1.363 . S
C2378 C2379 1.370 1_655 S
C2378 C2382 1.524 1_554 S
C2379 C2371 1.503 1_554 S
C2379 C2378 1.370 1_455 S
C2379 C2380 1.403 . S
C2380 C2379 1.403 . S
C2380 C2381 1.404 . S
C2380 C2383 1.539 . S
C2381 C2377 1.408 . S
C2381 C2380 1.404 . S
C2381 H2393 0.930 . S
C2382 C2378 1.524 1_556 S
C2382 H2394 0.956 . S
C2382 H2395 0.961 . S
C2382 H2396 0.961 . S
C2383 C2380 1.539 . S
C2383 H2397 0.958 . S
C2383 H2398 0.961 . S
C2383 H2399 0.960 . S
H2384 C2368 0.931 . S
H2385 C2373 0.929 . S
H2386 C2374 0.960 . S
H2387 C2374 0.962 . S
H2388 C2374 0.960 . S
H2389 C2375 0.961 . S
H2390 C2375 0.961 . S
H2391 C2375 0.961 . S
H2392 C2376 0.931 . S
H2393 C2381 0.930 . S
H2394 C2382 0.956 . S
H2395 C2382 0.961 . S
H2396 C2382 0.961 . S
H2397 C2383 0.958 . S
H2398 C2383 0.961 . S
H2399 C2383 0.960 . S
C2400 C2401 1.391 1_545 S
C2400 C2402 1.394 . S
C2400 H2416 0.931 . S
C2401 C2400 1.391 1_565 S
C2401 C2405 1.376 . S
C2402 C2400 1.394 . S
C2402 C2403 1.369 . S
C2402 C2406 1.531 1_556 S
C2403 C2402 1.369 . S
C2403 C2404 1.410 1_545 S
C2403 C2411 1.503 1_456 S
C2404 C2403 1.410 1_565 S
C2404 C2405 1.392 . S
C2404 C2407 1.511 1_455 S
C2405 C2401 1.376 . S
C2405 C2404 1.392 . S
C2405 H2417 0.929 . S
C2406 C2402 1.531 1_554 S
C2406 H2418 0.960 . S
C2406 H2419 0.962 . S
C2406 H2420 0.960 . S
C2407 C2404 1.511 1_655 S
C2407 H2421 0.961 . S
C2407 H2422 0.961 . S
C2407 H2423 0.961 . S
C2408 C2409 1.370 1_565 S
C2408 C2410 1.363 . S
C2408 H2424 0.931 . S
C2409 C2408 1.370 1_545 S
C2409 C2413 1.408 . S
C2410 C2408 1.363 . S
C2410 C2411 1.370 1_565 S
C2410 C2414 1.524 1_655 S
C2411 C2403 1.503 1_654 S
C2411 C2410 1.370 1_545 S
C2411 C2412 1.403 . S
C2412 C2411 1.403 . S
C2412 C2413 1.404 . S
C2412 C2415 1.539 1_554 S
C2413 C2409 1.408 . S
C2413 C2412 1.404 . S
C2413 H2425 0.930 . S
C2414 C2410 1.524 1_455 S
C2414 H2426 0.956 . S
C2414 H2427 0.961 . S
C2414 H2428 0.961 1_455 S
C2415 C2412 1.539 1_556 S
C2415 H2429 0.958 . S
C2415 H2430 0.961 . S
C2415 H2431 0.960 . S
H2416 C2400 0.931 . S
H2417 C2405 0.929 . S
H2418 C2406 0.960 . S
H2419 C2406 0.962 . S
H2420 C2406 0.960 . S
H2421 C2407 0.961 . S
H2422 C2407 0.961 . S
H2423 C2407 0.961 . S
H2424 C2408 0.931 . S
H2425 C2413 0.930 . S
H2426 C2414 0.956 . S
H2427 C2414 0.961 . S
H2428 C2414 0.961 1_655 S
H2429 C2415 0.958 . S
H2430 C2415 0.961 . S
H2431 C2415 0.960 . S
C2432 C2433 1.391 . S
C2432 C2434 1.394 . S
C2432 H2448 0.931 . S
C2433 C2432 1.391 . S
C2433 C2437 1.376 . S
C2434 C2432 1.394 . S
C2434 C2435 1.369 . S
C2434 C2438 1.531 1_545 S
C2435 C2434 1.369 . S
C2435 C2436 1.413 . S
C2435 C2443 1.503 1_546 S
C2436 C2435 1.413 . S
C2436 C2437 1.403 . S
C2436 C2439 1.498 1_556 S
C2437 C2433 1.376 . S
C2437 C2436 1.403 . S
C2437 H2449 0.929 . S
C2438 C2434 1.531 1_565 S
C2438 H2450 0.960 . S
C2438 H2451 0.962 . S
C2438 H2452 0.960 . S
C2439 C2436 1.498 1_554 S
C2439 H2453 0.961 . S
C2439 H2454 0.961 . S
C2439 H2455 0.961 . S
C2440 C2441 1.370 . S
C2440 C2442 1.363 . S
C2440 H2456 0.931 . S
C2441 C2440 1.370 . S
C2441 C2445 1.408 . S
C2442 C2440 1.363 . S
C2442 C2443 1.370 . S
C2442 C2446 1.524 1_554 S
C2443 C2435 1.503 1_564 S
C2443 C2442 1.370 . S
C2443 C2444 1.403 . S
C2444 C2443 1.403 . S
C2444 C2445 1.404 . S
C2444 C2447 1.539 . S
C2445 C2441 1.408 . S
C2445 C2444 1.404 . S
C2445 H2457 0.930 . S
C2446 C2442 1.524 1_556 S
C2446 H2458 0.956 . S
C2446 H2459 0.961 1_565 S
C2446 H2460 0.961 . S
C2447 C2444 1.539 . S
C2447 H2461 0.958 . S
C2447 H2462 0.961 . S
C2447 H2463 0.960 1_565 S
H2448 C2432 0.931 . S
H2449 C2437 0.929 . S
H2450 C2438 0.960 . S
H2451 C2438 0.962 . S
H2452 C2438 0.960 . S
H2453 C2439 0.961 . S
H2454 C2439 0.961 . S
H2455 C2439 0.961 . S
H2456 C2440 0.931 . S
H2457 C2445 0.930 . S
H2458 C2446 0.956 . S
H2459 C2446 0.961 1_545 S
H2460 C2446 0.961 . S
H2461 C2447 0.958 . S
H2462 C2447 0.961 . S
H2463 C2447 0.960 1_545 S
C2464 C2465 1.391 . S
C2464 C2466 1.394 . S
C2464 H2480 0.931 . S
C2465 C2464 1.391 . S
C2465 C2469 1.376 . S
C2466 C2464 1.394 . S
C2466 C2467 1.369 . S
C2466 C2470 1.531 . S
C2467 C2466 1.369 . S
C2467 C2468 1.410 . S
C2467 C2475 1.503 1_554 S
C2468 C2467 1.410 . S
C2468 C2469 1.392 . S
C2468 C2471 1.511 1_554 S
C2469 C2465 1.376 . S
C2469 C2468 1.392 . S
C2469 H2481 0.929 . S
C2470 C2466 1.531 . S
C2470 H2482 0.960 . S
C2470 H2483 0.962 . S
C2470 H2484 0.960 . S
C2471 C2468 1.511 1_556 S
C2471 H2485 0.961 . S
C2471 H2486 0.961 . S
C2471 H2487 0.961 . S
C2472 C2473 1.370 . S
C2472 C2474 1.363 . S
C2472 H2488 0.931 . S
C2473 C2472 1.370 . S
C2473 C2477 1.408 . S
C2474 C2472 1.363 . S
C2474 C2475 1.370 . S
C2474 C2478 1.524 . S
C2475 C2467 1.503 1_556 S
C2475 C2474 1.370 . S
C2475 C2476 1.403 . S
C2476 C2475 1.403 . S
C2476 C2477 1.404 . S
C2476 C2479 1.539 1_556 S
C2477 C2473 1.408 . S
C2477 C2476 1.404 . S
C2477 H2489 0.930 . S
C2478 C2474 1.524 . S
C2478 H2490 0.956 . S
C2478 H2491 0.961 . S
C2478 H2492 0.961 . S
C2479 C2476 1.539 1_554 S
C2479 H2493 0.958 . S
C2479 H2494 0.961 1_554 S
C2479 H2495 0.960 . S
H2480 C2464 0.931 . S
H2481 C2469 0.929 . S
H2482 C2470 0.960 . S
H2483 C2470 0.962 . S
H2484 C2470 0.960 . S
H2485 C2471 0.961 . S
H2486 C2471 0.961 . S
H2487 C2471 0.961 . S
H2488 C2472 0.931 . S
H2489 C2477 0.930 . S
H2490 C2478 0.956 . S
H2491 C2478 0.961 . S
H2492 C2478 0.961 . S
H2493 C2479 0.958 . S
H2494 C2479 0.961 1_556 S
H2495 C2479 0.960 . S
C2496 C2497 1.391 . S
C2496 C2498 1.394 . S
C2496 H2512 0.931 . S
C2497 C2496 1.391 . S
C2497 C2501 1.376 1_655 S
C2498 C2496 1.394 . S
C2498 C2499 1.342 1_655 S
C2498 C2502 1.531 . S
C2499 C2498 1.342 1_455 S
C2499 C2500 1.431 . S
C2499 C2507 1.509 1_545 S
C2500 C2499 1.431 . S
C2500 C2501 1.392 . S
C2500 C2503 1.511 . S
C2501 C2497 1.376 1_455 S
C2501 C2500 1.392 . S
C2501 H2513 0.929 . S
C2502 C2498 1.531 . S
C2502 H2514 0.960 . S
C2502 H2515 0.962 . S
C2502 H2516 0.960 . S
C2503 C2500 1.511 . S
C2503 H2517 0.960 1_545 S
C2503 H2518 0.961 1_545 S
C2503 H2519 0.961 . S
C2504 C2505 1.370 1_655 S
C2504 C2506 1.363 . S
C2504 H2520 0.931 . S
C2505 C2504 1.370 1_455 S
C2505 C2509 1.408 . S
C2506 C2504 1.363 . S
C2506 C2507 1.370 1_655 S
C2506 C2510 1.524 . S
C2507 C2499 1.509 1_565 S
C2507 C2506 1.370 1_455 S
C2507 C2508 1.403 . S
C2508 C2507 1.403 . S
C2508 C2509 1.404 . S
C2508 C2511 1.539 1_565 S
C2509 C2505 1.408 . S
C2509 C2508 1.404 . S
C2509 H2521 0.930 . S
C2510 C2506 1.524 . S
C2510 H2522 0.956 . S
C2510 H2523 0.961 . S
C2510 H2524 0.961 . S
C2511 C2508 1.539 1_545 S
C2511 H2525 0.958 . S
C2511 H2526 0.961 . S
C2511 H2527 0.960 . S
H2512 C2496 0.931 . S
H2513 C2501 0.929 . S
H2514 C2502 0.960 . S
H2515 C2502 0.962 . S
H2516 C2502 0.960 . S
H2517 C2503 0.960 1_565 S
H2518 C2503 0.961 1_565 S
H2519 C2503 0.961 . S
H2520 C2504 0.931 . S
H2521 C2509 0.930 . S
H2522 C2510 0.956 . S
H2523 C2510 0.961 . S
H2524 C2510 0.961 . S
H2525 C2511 0.958 . S
H2526 C2511 0.961 . S
H2527 C2511 0.960 . S
C2528 C2529 1.391 1_545 S
C2528 C2530 1.394 . S
C2528 H2544 0.931 . S
C2529 C2528 1.391 1_565 S
C2529 C2533 1.376 . S
C2530 C2528 1.394 . S
C2530 C2531 1.369 1_545 S
C2530 C2534 1.531 . S
C2531 C2530 1.369 1_565 S
C2531 C2532 1.410 . S
C2531 C2539 1.503 1_565 S
C2532 C2531 1.410 . S
C2532 C2533 1.392 . S
C2532 C2535 1.511 . S
C2533 C2529 1.376 . S
C2533 C2532 1.392 . S
C2533 H2545 0.929 . S
C2534 C2530 1.531 . S
C2534 H2546 0.960 . S
C2534 H2547 0.962 . S
C2534 H2548 0.960 . S
C2535 C2532 1.511 . S
C2535 H2549 0.961 . S
C2535 H2550 0.961 . S
C2535 H2551 0.961 . S
C2536 C2537 1.370 . S
C2536 C2538 1.363 . S
C2536 H2552 0.931 . S
C2537 C2536 1.370 . S
C2537 C2541 1.407 . S
C2538 C2536 1.363 . S
C2538 C2539 1.370 . S
C2538 C2542 1.524 . S
C2539 C2531 1.503 1_545 S
C2539 C2538 1.370 . S
C2539 C2540 1.403 1_545 S
C2540 C2539 1.403 1_565 S
C2540 C2541 1.404 1_565 S
C2540 C2543 1.539 . S
C2541 C2537 1.407 . S
C2541 C2540 1.404 1_545 S
C2541 H2553 0.930 1_545 S
C2542 C2538 1.524 . S
C2542 H2554 0.956 . S
C2542 H2555 0.961 . S
C2542 H2556 0.961 . S
C2543 C2540 1.539 . S
C2543 H2557 0.958 . S
C2543 H2558 0.961 . S
C2543 H2559 0.960 . S
H2544 C2528 0.931 . S
H2545 C2533 0.929 . S
H2546 C2534 0.960 . S
H2547 C2534 0.962 . S
H2548 C2534 0.960 . S
H2549 C2535 0.961 . S
H2550 C2535 0.961 . S
H2551 C2535 0.961 . S
H2552 C2536 0.931 . S
H2553 C2541 0.930 1_565 S
H2554 C2542 0.956 . S
H2555 C2542 0.961 . S
H2556 C2542 0.961 . S
H2557 C2543 0.958 . S
H2558 C2543 0.961 . S
H2559 C2543 0.960 . S
C2560 C2561 1.391 . S
C2560 C2562 1.394 . S
C2560 H2576 0.931 . S
C2561 C2560 1.391 . S
C2561 C2565 1.376 . S
C2562 C2560 1.394 . S
C2562 C2563 1.369 . S
C2562 C2566 1.531 . S
C2563 C2562 1.369 . S
C2563 C2564 1.410 . S
C2563 C2571 1.503 . S
C2564 C2563 1.410 . S
C2564 C2565 1.392 . S
C2564 C2567 1.511 . S
C2565 C2561 1.376 . S
C2565 C2564 1.392 . S
C2565 H2577 0.929 . S
C2566 C2562 1.531 . S
C2566 H2578 0.960 . S
C2566 H2579 0.962 . S
C2566 H2580 0.960 . S
C2567 C2564 1.511 . S
C2567 H2581 0.961 . S
C2567 H2582 0.961 . S
C2567 H2583 0.961 . S
C2568 C2569 1.370 . S
C2568 C2570 1.363 . S
C2568 H2584 0.931 . S
C2569 C2568 1.370 . S
C2569 C2573 1.408 . S
C2570 C2568 1.363 . S
C2570 C2571 1.370 . S
C2570 C2574 1.524 . S
C2571 C2563 1.503 . S
C2571 C2570 1.370 . S
C2571 C2572 1.403 . S
C2572 C2571 1.403 . S
C2572 C2573 1.404 . S
C2572 C2575 1.539 . S
C2573 C2569 1.408 . S
C2573 C2572 1.404 . S
C2573 H2585 0.930 . S
C2574 C2570 1.524 . S
C2574 H2586 0.956 . S
C2574 H2587 0.961 . S
C2574 H2588 0.961 . S
C2575 C2572 1.539 . S
C2575 H2589 0.958 . S
C2575 H2590 0.961 . S
C2575 H2591 0.960 . S
H2576 C2560 0.931 . S
H2577 C2565 0.929 . S
H2578 C2566 0.960 . S
H2579 C2566 0.962 . S
H2580 C2566 0.960 . S
H2581 C2567 0.961 . S
H2582 C2567 0.961 . S
H2583 C2567 0.961 . S
H2584 C2568 0.931 . S
H2585 C2573 0.930 . S
H2586 C2574 0.956 . S
H2587 C2574 0.961 . S
H2588 C2574 0.961 . S
H2589 C2575 0.958 . S
H2590 C2575 0.961 . S
H2591 C2575 0.960 . S
C2592 C2593 1.391 . S
C2592 C2594 1.394 . S
C2592 H2608 0.931 . S
C2593 C2592 1.391 . S
C2593 C2597 1.376 . S
C2594 C2592 1.394 . S
C2594 C2595 1.369 . S
C2594 C2598 1.531 1_455 S
C2595 C2594 1.369 . S
C2595 C2596 1.410 . S
C2595 C2603 1.503 1_455 S
C2596 C2595 1.410 . S
C2596 C2597 1.392 . S
C2596 C2599 1.511 . S
C2597 C2593 1.376 . S
C2597 C2596 1.392 . S
C2597 H2609 0.929 . S
C2598 C2594 1.531 1_655 S
C2598 H2610 0.960 . S
C2598 H2611 0.962 . S
C2598 H2612 0.960 . S
C2599 C2596 1.511 . S
C2599 H2613 0.961 . S
C2599 H2614 0.961 . S
C2599 H2615 0.961 . S
C2600 C2601 1.370 . S
C2600 C2602 1.363 . S
C2600 H2616 0.931 . S
C2601 C2600 1.370 . S
C2601 C2605 1.408 . S
C2602 C2600 1.363 . S
C2602 C2603 1.370 . S
C2602 C2606 1.524 . S
C2603 C2595 1.503 1_655 S
C2603 C2602 1.370 . S
C2603 C2604 1.403 . S
C2604 C2603 1.403 . S
C2604 C2605 1.404 . S
C2604 C2607 1.539 . S
C2605 C2601 1.408 . S
C2605 C2604 1.404 . S
C2605 H2617 0.930 . S
C2606 C2602 1.524 . S
C2606 H2618 0.956 . S
C2606 H2619 0.961 1_655 S
C2606 H2620 0.961 . S
C2607 C2604 1.539 . S
C2607 H2621 0.958 . S
C2607 H2622 0.961 . S
C2607 H2623 0.960 1_655 S
H2608 C2592 0.931 . S
H2609 C2597 0.929 . S
H2610 C2598 0.960 . S
H2611 C2598 0.962 . S
H2612 C2598 0.960 . S
H2613 C2599 0.961 . S
H2614 C2599 0.961 . S
H2615 C2599 0.961 . S
H2616 C2600 0.931 . S
H2617 C2605 0.930 . S
H2618 C2606 0.956 . S
H2619 C2606 0.961 1_455 S
H2620 C2606 0.961 . S
H2621 C2607 0.958 . S
H2622 C2607 0.961 . S
H2623 C2607 0.960 1_455 S
C2624 C2625 1.391 . S
C2624 C2626 1.394 . S
C2624 H2640 0.931 . S
C2625 C2624 1.391 . S
C2625 C2629 1.376 . S
C2626 C2624 1.394 . S
C2626 C2627 1.369 . S
C2626 C2630 1.531 . S
C2627 C2626 1.369 . S
C2627 C2628 1.410 . S
C2627 C2635 1.503 . S
C2628 C2627 1.410 . S
C2628 C2629 1.392 . S
C2628 C2631 1.511 1_655 S
C2629 C2625 1.376 . S
C2629 C2628 1.392 . S
C2629 H2641 0.929 . S
C2630 C2626 1.531 . S
C2630 H2642 0.960 . S
C2630 H2643 0.962 . S
C2630 H2644 0.960 . S
C2631 C2628 1.511 1_455 S
C2631 H2645 0.961 . S
C2631 H2646 0.961 . S
C2631 H2647 0.961 . S
C2632 C2633 1.370 1_655 S
C2632 C2634 1.363 . S
C2632 H2648 0.931 . S
C2633 C2632 1.370 1_455 S
C2633 C2637 1.408 . S
C2634 C2632 1.363 . S
C2634 C2635 1.370 . S
C2634 C2638 1.524 . S
C2635 C2627 1.503 . S
C2635 C2634 1.370 . S
C2635 C2636 1.403 1_655 S
C2636 C2635 1.403 1_455 S
C2636 C2637 1.404 . S
C2636 C2639 1.539 . S
C2637 C2633 1.408 . S
C2637 C2636 1.404 . S
C2637 H2649 0.930 . S
C2638 C2634 1.524 . S
C2638 H2650 0.956 . S
C2638 H2651 0.961 . S
C2638 H2652 0.961 . S
C2639 C2636 1.539 . S
C2639 H2653 0.958 . S
C2639 H2654 0.961 . S
C2639 H2655 0.960 . S
H2640 C2624 0.931 . S
H2641 C2629 0.929 . S
H2642 C2630 0.960 . S
H2643 C2630 0.962 . S
H2644 C2630 0.960 . S
H2645 C2631 0.961 . S
H2646 C2631 0.961 . S
H2647 C2631 0.961 . S
H2648 C2632 0.931 . S
H2649 C2637 0.930 . S
H2650 C2638 0.956 . S
H2651 C2638 0.961 . S
H2652 C2638 0.961 . S
H2653 C2639 0.958 . S
H2654 C2639 0.961 . S
H2655 C2639 0.960 . S
C2656 C2657 1.391 . S
C2656 C2658 1.394 . S
C2656 H2672 0.931 . S
C2657 C2656 1.391 . S
C2657 C2661 1.376 1_455 S
C2658 C2656 1.394 . S
C2658 C2659 1.369 1_455 S
C2658 C2662 1.531 1_565 S
C2659 C2658 1.369 1_655 S
C2659 C2660 1.410 . S
C2659 C2667 1.503 . S
C2660 C2659 1.410 . S
C2660 C2661 1.392 . S
C2660 C2663 1.511 . S
C2661 C2657 1.376 1_655 S
C2661 C2660 1.392 . S
C2661 H2673 0.929 . S
C2662 C2658 1.531 1_545 S
C2662 H2674 0.960 . S
C2662 H2675 0.962 . S
C2662 H2676 0.960 . S
C2663 C2660 1.511 . S
C2663 H2677 0.961 . S
C2663 H2678 0.961 . S
C2663 H2679 0.961 . S
C2664 C2665 1.370 . S
C2664 C2666 1.363 . S
C2664 H2680 0.931 . S
C2665 C2664 1.370 . S
C2665 C2669 1.408 1_545 S
C2666 C2664 1.363 . S
C2666 C2667 1.370 1_545 S
C2666 C2670 1.524 . S
C2667 C2659 1.503 . S
C2667 C2666 1.370 1_565 S
C2667 C2668 1.403 . S
C2668 C2667 1.403 . S
C2668 C2669 1.404 . S
C2668 C2671 1.539 1_655 S
C2669 C2665 1.408 1_565 S
C2669 C2668 1.404 . S
C2669 H2681 0.930 . S
C2670 C2666 1.524 . S
C2670 H2682 0.956 . S
C2670 H2683 0.961 . S
C2670 H2684 0.961 . S
C2671 C2668 1.539 1_455 S
C2671 H2685 0.958 . S
C2671 H2686 0.961 1_455 S
C2671 H2687 0.960 . S
H2672 C2656 0.931 . S
H2673 C2661 0.929 . S
H2674 C2662 0.960 . S
H2675 C2662 0.962 . S
H2676 C2662 0.960 . S
H2677 C2663 0.961 . S
H2678 C2663 0.961 . S
H2679 C2663 0.961 . S
H2680 C2664 0.931 . S
H2681 C2669 0.930 . S
H2682 C2670 0.956 . S
H2683 C2670 0.961 . S
H2684 C2670 0.961 . S
H2685 C2671 0.958 . S
H2686 C2671 0.961 1_655 S
H2687 C2671 0.960 . S
C2688 C2689 1.391 . S
C2688 C2690 1.394 . S
C2688 H2704 0.931 . S
C2689 C2688 1.391 . S
C2689 C2693 1.376 . S
C2690 C2688 1.394 . S
C2690 C2691 1.369 1_545 S
C2690 C2694 1.531 . S
C2691 C2690 1.369 1_565 S
C2691 C2692 1.410 . S
C2691 C2699 1.503 . S
C2692 C2691 1.410 . S
C2692 C2693 1.392 1_565 S
C2692 C2695 1.511 . S
C2693 C2689 1.376 . S
C2693 C2692 1.392 1_545 S
C2693 H2705 0.933 . S
C2694 C2690 1.531 . S
C2694 H2706 0.960 . S
C2694 H2707 0.962 . S
C2694 H2708 0.960 . S
C2695 C2692 1.511 . S
C2695 H2709 0.961 . S
C2695 H2710 0.961 . S
C2695 H2711 0.961 . S
C2696 C2697 1.370 . S
C2696 C2698 1.363 . S
C2696 H2712 0.931 . S
C2697 C2696 1.370 . S
C2697 C2701 1.408 . S
C2698 C2696 1.363 . S
C2698 C2699 1.370 . S
C2698 C2702 1.524 . S
C2699 C2691 1.503 . S
C2699 C2698 1.370 . S
C2699 C2700 1.403 . S
C2700 C2699 1.403 . S
C2700 C2701 1.404 . S
C2700 C2703 1.539 1_565 S
C2701 C2697 1.408 . S
C2701 C2700 1.404 . S
C2701 H2713 0.930 . S
C2702 C2698 1.524 . S
C2702 H2714 0.956 . S
C2702 H2715 0.961 . S
C2702 H2716 0.961 . S
C2703 C2700 1.539 1_545 S
C2703 H2717 0.958 . S
C2703 H2718 0.961 . S
C2703 H2719 0.960 . S
H2704 C2688 0.931 . S
H2705 C2693 0.933 . S
H2706 C2694 0.960 . S
H2707 C2694 0.962 . S
H2708 C2694 0.960 . S
H2709 C2695 0.961 . S
H2710 C2695 0.961 . S
H2711 C2695 0.961 . S
H2712 C2696 0.931 . S
H2713 C2701 0.930 . S
H2714 C2702 0.956 . S
H2715 C2702 0.961 . S
H2716 C2702 0.961 . S
H2717 C2703 0.958 . S
H2718 C2703 0.961 . S
H2719 C2703 0.960 . S
C2720 C2721 1.391 . S
C2720 C2722 1.394 . S
C2720 H2736 0.931 . S
C2721 C2720 1.391 . S
C2721 C2725 1.376 . S
C2722 C2720 1.394 . S
C2722 C2723 1.369 . S
C2722 C2726 1.531 . S
C2723 C2722 1.369 . S
C2723 C2724 1.410 . S
C2723 C2731 1.503 . S
C2724 C2723 1.410 . S
C2724 C2725 1.392 . S
C2724 C2727 1.511 . S
C2725 C2721 1.376 . S
C2725 C2724 1.392 . S
C2725 H2737 0.929 . S
C2726 C2722 1.531 . S
C2726 H2738 0.960 . S
C2726 H2739 0.962 . S
C2726 H2740 0.960 . S
C2727 C2724 1.511 . S
C2727 H2741 0.961 . S
C2727 H2742 0.961 . S
C2727 H2743 0.961 . S
C2728 C2729 1.370 . S
C2728 C2730 1.363 . S
C2728 H2744 0.931 . S
C2729 C2728 1.370 . S
C2729 C2733 1.408 . S
C2730 C2728 1.363 . S
C2730 C2731 1.370 . S
C2730 C2734 1.524 . S
C2731 C2723 1.503 . S
C2731 C2730 1.370 . S
C2731 C2732 1.403 . S
C2732 C2731 1.403 . S
C2732 C2733 1.404 . S
C2732 C2735 1.539 . S
C2733 C2729 1.408 . S
C2733 C2732 1.404 . S
C2733 H2745 0.930 . S
C2734 C2730 1.524 . S
C2734 H2746 0.956 . S
C2734 H2747 0.961 . S
C2734 H2748 0.961 . S
C2735 C2732 1.539 . S
C2735 H2749 0.958 . S
C2735 H2750 0.961 . S
C2735 H2751 0.960 . S
H2736 C2720 0.931 . S
H2737 C2725 0.929 . S
H2738 C2726 0.960 . S
H2739 C2726 0.962 . S
H2740 C2726 0.960 . S
H2741 C2727 0.961 . S
H2742 C2727 0.961 . S
H2743 C2727 0.961 . S
H2744 C2728 0.931 . S
H2745 C2733 0.930 . S
H2746 C2734 0.956 . S
H2747 C2734 0.961 . S
H2748 C2734 0.961 . S
H2749 C2735 0.958 . S
H2750 C2735 0.961 . S
H2751 C2735 0.960 . S
C2752 C2753 1.391 . S
C2752 C2754 1.394 . S
C2752 H2768 0.931 . S
C2753 C2752 1.391 . S
C2753 C2757 1.376 . S
C2754 C2752 1.394 . S
C2754 C2755 1.369 . S
C2754 C2758 1.531 . S
C2755 C2754 1.369 . S
C2755 C2756 1.410 . S
C2755 C2763 1.503 . S
C2756 C2755 1.410 . S
C2756 C2757 1.392 . S
C2756 C2759 1.511 . S
C2757 C2753 1.376 . S
C2757 C2756 1.392 . S
C2757 H2769 0.929 . S
C2758 C2754 1.531 . S
C2758 H2770 0.960 . S
C2758 H2771 0.962 1_455 S
C2758 H2772 0.960 . S
C2759 C2756 1.511 . S
C2759 H2773 0.961 . S
C2759 H2774 0.961 . S
C2759 H2775 0.961 . S
C2760 C2761 1.370 . S
C2760 C2762 1.363 . S
C2760 H2776 0.931 . S
C2761 C2760 1.370 . S
C2761 C2765 1.408 1_655 S
C2762 C2760 1.363 . S
C2762 C2763 1.370 1_655 S
C2762 C2766 1.524 . S
C2763 C2755 1.503 . S
C2763 C2762 1.370 1_455 S
C2763 C2764 1.403 . S
C2764 C2763 1.403 . S
C2764 C2765 1.404 . S
C2764 C2767 1.539 . S
C2765 C2761 1.408 1_455 S
C2765 C2764 1.404 . S
C2765 H2777 0.930 . S
C2766 C2762 1.524 . S
C2766 H2778 0.956 . S
C2766 H2779 0.961 . S
C2766 H2780 0.961 . S
C2767 C2764 1.539 . S
C2767 H2781 0.958 . S
C2767 H2782 0.961 . S
C2767 H2783 0.960 . S
H2768 C2752 0.931 . S
H2769 C2757 0.929 . S
H2770 C2758 0.960 . S
H2771 C2758 0.962 1_655 S
H2772 C2758 0.960 . S
H2773 C2759 0.961 . S
H2774 C2759 0.961 . S
H2775 C2759 0.961 . S
H2776 C2760 0.931 . S
H2777 C2765 0.930 . S
H2778 C2766 0.956 . S
H2779 C2766 0.961 . S
H2780 C2766 0.961 . S
H2781 C2767 0.958 . S
H2782 C2767 0.961 . S
H2783 C2767 0.960 . S
C2784 C2785 1.391 . S
C2784 C2786 1.394 . S
C2784 H2800 0.931 . S
C2785 C2784 1.391 . S
C2785 C2789 1.375 1_655 S
C2786 C2784 1.394 . S
C2786 C2787 1.369 1_655 S
C2786 C2790 1.531 1_545 S
C2787 C2786 1.369 1_455 S
C2787 C2788 1.410 . S
C2787 C2795 1.503 . S
C2788 C2787 1.410 . S
C2788 C2789 1.393 . S
C2788 C2791 1.511 . S
C2789 C2785 1.375 1_455 S
C2789 C2788 1.393 . S
C2789 H2801 0.929 . S
C2790 C2786 1.531 1_565 S
C2790 H2802 0.960 1_655 S
C2790 H2803 0.962 . S
C2790 H2804 0.960 . S
C2791 C2788 1.511 . S
C2791 H2805 0.961 . S
C2791 H2806 0.961 . S
C2791 H2807 0.961 . S
C2792 C2793 1.370 . S
C2792 C2794 1.363 1_565 S
C2792 H2808 0.931 . S
C2793 C2792 1.370 . S
C2793 C2797 1.408 . S
C2794 C2792 1.363 1_545 S
C2794 C2795 1.370 . S
C2794 C2798 1.524 1_455 S
C2795 C2787 1.503 . S
C2795 C2794 1.370 . S
C2795 C2796 1.403 1_545 S
C2796 C2795 1.403 1_565 S
C2796 C2797 1.404 . S
C2796 C2799 1.544 . S
C2797 C2793 1.408 . S
C2797 C2796 1.404 . S
C2797 H2809 0.930 . S
C2798 C2794 1.524 1_655 S
C2798 H2810 0.956 . S
C2798 H2811 0.961 . S
C2798 H2812 0.961 . S
C2799 C2796 1.544 . S
C2799 H2813 0.986 . S
C2799 H2814 0.958 1_565 S
C2799 H2815 0.931 1_565 S
H2800 C2784 0.931 . S
H2801 C2789 0.929 . S
H2802 C2790 0.960 1_455 S
H2803 C2790 0.962 . S
H2804 C2790 0.960 . S
H2805 C2791 0.961 . S
H2806 C2791 0.961 . S
H2807 C2791 0.961 . S
H2808 C2792 0.931 . S
H2809 C2797 0.930 . S
H2810 C2798 0.956 . S
H2811 C2798 0.961 . S
H2812 C2798 0.961 . S
H2813 C2799 0.986 . S
H2814 C2799 0.958 1_545 S
H2815 C2799 0.931 1_545 S
C2816 C2817 1.391 . S
C2816 C2818 1.394 1_565 S
C2816 H2832 0.931 1_565 S
C2817 C2816 1.391 . S
C2817 C2821 1.376 . S
C2818 C2816 1.394 1_545 S
C2818 C2819 1.369 . S
C2818 C2822 1.531 . S
C2819 C2818 1.369 . S
C2819 C2820 1.410 1_545 S
C2819 C2827 1.503 . S
C2820 C2819 1.410 1_565 S
C2820 C2821 1.392 . S
C2820 C2823 1.511 . S
C2821 C2817 1.376 . S
C2821 C2820 1.392 . S
C2821 H2833 0.929 . S
C2822 C2818 1.531 . S
C2822 H2834 0.960 . S
C2822 H2835 0.962 . S
C2822 H2836 0.960 . S
C2823 C2820 1.511 . S
C2823 H2837 0.961 . S
C2823 H2838 0.961 . S
C2823 H2839 0.961 . S
C2824 C2825 1.370 . S
C2824 C2826 1.363 . S
C2824 H2840 0.931 . S
C2825 C2824 1.370 . S
C2825 C2829 1.408 . S
C2826 C2824 1.363 . S
C2826 C2827 1.370 . S
C2826 C2830 1.524 . S
C2827 C2819 1.503 . S
C2827 C2826 1.370 . S
C2827 C2828 1.403 . S
C2828 C2827 1.403 . S
C2828 C2829 1.404 . S
C2828 C2831 1.539 1_545 S
C2829 C2825 1.408 . S
C2829 C2828 1.404 . S
C2829 H2841 0.930 . S
C2830 C2826 1.524 . S
C2830 H2842 0.956 . S
C2830 H2843 0.961 . S
C2830 H2844 0.961 . S
C2831 C2828 1.539 1_565 S
C2831 H2845 0.958 . S
C2831 H2846 0.961 . S
C2831 H2847 0.960 . S
H2832 C2816 0.931 1_545 S
H2833 C2821 0.929 . S
H2834 C2822 0.960 . S
H2835 C2822 0.962 . S
H2836 C2822 0.960 . S
H2837 C2823 0.961 . S
H2838 C2823 0.961 . S
H2839 C2823 0.961 . S
H2840 C2824 0.931 . S
H2841 C2829 0.930 . S
H2842 C2830 0.956 . S
H2843 C2830 0.961 . S
H2844 C2830 0.961 . S
H2845 C2831 0.958 . S
H2846 C2831 0.961 . S
H2847 C2831 0.960 . S
C2848 C2849 1.391 . S
C2848 C2850 1.394 . S
C2848 H2864 0.931 . S
C2849 C2848 1.391 . S
C2849 C2853 1.376 . S
C2850 C2848 1.394 . S
C2850 C2851 1.369 . S
C2850 C2854 1.531 . S
C2851 C2850 1.369 . S
C2851 C2852 1.410 . S
C2851 C2859 1.503 . S
C2852 C2851 1.410 . S
C2852 C2853 1.392 . S
C2852 C2855 1.511 . S
C2853 C2849 1.376 . S
C2853 C2852 1.392 . S
C2853 H2865 0.929 . S
C2854 C2850 1.531 . S
C2854 H2866 0.960 . S
C2854 H2867 0.962 . S
C2854 H2868 0.960 . S
C2855 C2852 1.511 . S
C2855 H2869 0.961 . S
C2855 H2870 0.961 . S
C2855 H2871 0.961 . S
C2856 C2857 1.370 . S
C2856 C2858 1.363 . S
C2856 H2872 0.931 . S
C2857 C2856 1.370 . S
C2857 C2861 1.408 . S
C2858 C2856 1.363 . S
C2858 C2859 1.370 . S
C2858 C2862 1.524 . S
C2859 C2851 1.503 . S
C2859 C2858 1.370 . S
C2859 C2860 1.403 . S
C2860 C2859 1.403 . S
C2860 C2861 1.404 . S
C2860 C2863 1.539 . S
C2861 C2857 1.408 . S
C2861 C2860 1.404 . S
C2861 H2873 0.930 . S
C2862 C2858 1.524 . S
C2862 H2874 0.956 . S
C2862 H2875 0.961 . S
C2862 H2876 0.961 . S
C2863 C2860 1.539 . S
C2863 H2877 0.958 . S
C2863 H2878 0.961 . S
C2863 H2879 0.960 . S
H2864 C2848 0.931 . S
H2865 C2853 0.929 . S
H2866 C2854 0.960 . S
H2867 C2854 0.962 . S
H2868 C2854 0.960 . S
H2869 C2855 0.961 . S
H2870 C2855 0.961 . S
H2871 C2855 0.961 . S
H2872 C2856 0.931 . S
H2873 C2861 0.930 . S
H2874 C2862 0.956 . S
H2875 C2862 0.961 . S
H2876 C2862 0.961 . S
H2877 C2863 0.958 . S
H2878 C2863 0.961 . S
H2879 C2863 0.960 . S
C1345 C307 1.777 . S
C1353 C70 1.784 . S
C1377 C55 1.780 . S
C1385 C154 1.768 . S
C1409 C226 1.709 . S
C1417 C139 1.760 . S
C1441 C224 1.834 . S
C1449 C322 1.785 . S
C1473 C406 1.800 . S
C1481 C475 1.764 . S
C1505 C490 1.772 . S
C1513 C560 1.849 . S
C1537 C562 1.706 . S
C1545 C643 1.758 . S
C1569 C391 1.786 . S
C1577 C658 1.765 . S
C1601 C730 1.755 . S
C1609 C991 1.765 . S
C1633 C739 1.703 . S
C1641 C814 1.734 . S
C1665 C823 1.805 . S
C1673 C910 1.653 . S
C1697 C908 1.886 . S
C1705 C982 1.806 . S
C1729 C1066 1.802 . S
C1737 C1159 1.776 . S
C1761 C1244 1.822 . S
C1769 C1150 1.774 . S
C1793 C1327 1.766 . S
C1801 C1246 1.685 . S
C1825 C1318 1.712 . S
C1833 C1075 1.731 . S
C1857 C68 2.187 . S
C1865 C404 2.205 . S
C1889 C488 2.240 . S
C1897 C152 2.245 . S
C1921 C235 2.162 . S
C1929 C571 2.133 . S
C1953 C320 2.263 . S
C1961 C656 2.253 . S
C1985 C1064 2.195 . S
C1993 C728 2.209 . S
C2017 C1148 2.264 . S
C2025 C812 2.253 . S
C2049 C895 2.131 . S
C2057 C1231 2.146 . S
C2081 C1316 2.263 . S
C2089 C980 2.252 . S
C2113 C58 0.867 . S
C2121 C238 0.911 . S
C2145 C142 0.930 . S
C2153 C310 0.951 . S
C2177 C574 0.863 . S
C2185 C394 0.911 . S
C2209 C646 0.972 . S
C2217 C478 0.916 . S
C2241 C898 0.918 . S
C2249 C742 0.908 . S
C2273 C994 0.992 . S
C2281 C826 0.940 . S
C2305 C1078 0.833 . S
C2313 C1234 0.938 . S
C2337 C1162 0.949 . S
C2345 C1330 0.902 . S
C2369 C740 1.310 . S
C2377 C56 1.300 . S
C2401 C824 1.334 . S
C2409 C140 1.325 . S
C2433 C907 1.275 . S
C2441 C223 1.254 . S
C2465 C308 1.330 . S
C2473 C992 1.317 . S
C2497 C1076 1.307 . S
C2505 C392 1.300 . S
C2529 C1160 1.314 . S
C2537 C476 1.324 . S
C2561 C1243 1.279 . S
C2569 C559 1.256 . S
C2593 C1328 1.312 . S
C2601 C644 1.333 . S
C2625 C655 0.882 . S
C2633 C67 0.887 . S
C2657 C403 0.876 . S
C2665 C151 0.872 . S
C2689 C487 0.899 . S
C2697 C236 0.890 . S
C2721 C572 0.848 . S
C2729 C319 0.861 . S
C2753 C1315 0.832 . S
C2761 C727 0.860 . S
C2785 C1063 0.851 . S
C2793 C811 0.868 . S
C2817 C1147 0.896 . S
C2825 C896 0.892 . S
C2849 C979 0.850 . S
C2857 C1232 0.875 . S
