# Generated by pormake.
# Topology noy, (5)-cn, num edge types: 1
# Building blocks:
#     Node 0, Type 0, BuildingBlock: BEQFEK_clean_sbu_0, # of connection points: 5
#     Node 1, Type 0, BuildingBlock: BEQFEK_clean_sbu_0, # of connection points: 5
#     Node 2, Type 0, BuildingBlock: BEQFEK_clean_sbu_0, # of connection points: 5
#     Node 3, Type 0, BuildingBlock: BEQFEK_clean_sbu_0, # of connection points: 5
#     Node 4, Type 0, BuildingBlock: BEQFEK_clean_sbu_0, # of connection points: 5
#     Node 5, Type 0, BuildingBlock: BEQFEK_clean_sbu_0, # of connection points: 5
#     Node 6, Type 0, BuildingBlock: BEQFEK_clean_sbu_0, # of connection points: 5
#     Node 7, Type 0, BuildingBlock: BEQFEK_clean_sbu_0, # of connection points: 5
#     Edge 8, Type (0, 0), BuildingBlock: KIFKEQ_clean_linker_1, # of connection points: 2
#     Edge 9, Type (0, 0), BuildingBlock: KIFKEQ_clean_linker_1, # of connection points: 2
#     Edge 10, Type (0, 0), BuildingBlock: KIFKEQ_clean_linker_1, # of connection points: 2
#     Edge 11, Type (0, 0), BuildingBlock: KIFKEQ_clean_linker_1, # of connection points: 2
#     Edge 12, Type (0, 0), BuildingBlock: KIFKEQ_clean_linker_1, # of connection points: 2
#     Edge 13, Type (0, 0), BuildingBlock: KIFKEQ_clean_linker_1, # of connection points: 2
#     Edge 14, Type (0, 0), BuildingBlock: KIFKEQ_clean_linker_1, # of connection points: 2
#     Edge 15, Type (0, 0), BuildingBlock: KIFKEQ_clean_linker_1, # of connection points: 2
#     Edge 16, Type (0, 0), BuildingBlock: KIFKEQ_clean_linker_1, # of connection points: 2
#     Edge 17, Type (0, 0), BuildingBlock: KIFKEQ_clean_linker_1, # of connection points: 2
#     Edge 18, Type (0, 0), BuildingBlock: KIFKEQ_clean_linker_1, # of connection points: 2
#     Edge 19, Type (0, 0), BuildingBlock: KIFKEQ_clean_linker_1, # of connection points: 2
#     Edge 20, Type (0, 0), BuildingBlock: KIFKEQ_clean_linker_1, # of connection points: 2
#     Edge 21, Type (0, 0), BuildingBlock: KIFKEQ_clean_linker_1, # of connection points: 2
#     Edge 22, Type (0, 0), BuildingBlock: KIFKEQ_clean_linker_1, # of connection points: 2
#     Edge 23, Type (0, 0), BuildingBlock: KIFKEQ_clean_linker_1, # of connection points: 2
#     Edge 24, Type (0, 0), BuildingBlock: KIFKEQ_clean_linker_1, # of connection points: 2
#     Edge 25, Type (0, 0), BuildingBlock: KIFKEQ_clean_linker_1, # of connection points: 2
#     Edge 26, Type (0, 0), BuildingBlock: KIFKEQ_clean_linker_1, # of connection points: 2
#     Edge 27, Type (0, 0), BuildingBlock: KIFKEQ_clean_linker_1, # of connection points: 2
# Relax obj value: 0.052
# Max RMSD: 0.089
# Mean RMSD: 0.089
data_MOF--net-noy--node1-BEQFEK_clean_sbu_0--edge1-KIFKEQ_clean_linker_1
_symmetry_space_group_name_H-M    P1
_symmetry_Int_Tables_number       1
_symmetry_cell_setting            triclinic
loop_
_symmetry_equiv_pos_as_xyz
'x, y, z'
_cell_length_a     45.725599
_cell_length_b     47.447551
_cell_length_c     24.403767
_cell_angle_alpha  89.951025
_cell_angle_beta   90.044013
_cell_angle_gamma 89.952036
loop_
_atom_site_label
_atom_site_type_symbol
_atom_site_fract_x
_atom_site_fract_y
_atom_site_fract_z
_atom_type_partial_charge
Co0 Co 0.3381 0.41197 0.25896 0.0
Co1 Co 0.34208 0.36887 0.16178 0.0
C2 C 0.32645 0.42991 0.14335 0.0
O3 O 0.32905 0.43538 0.19418 0.0
O4 O 0.33012 0.40495 0.12506 0.0
C5 C 0.31392 0.45411 0.33222 0.0
O6 O 0.29486 0.45885 0.29296 0.0
C7 C 0.31928 0.33163 0.07484 0.0
C8 C 0.3552 0.30072 0.0671 0.0
C9 C 0.32753 0.30716 0.04748 0.0
N10 N 0.34104 0.33907 0.10905 0.0
N11 N 0.36256 0.32068 0.10371 0.0
C12 C 0.29041 0.34642 0.0725 0.0
H13 H 0.28702 0.35923 0.11003 0.0
H14 H 0.27236 0.33097 0.06786 0.0
H15 H 0.29013 0.36076 0.03657 0.0
C16 C 0.29828 0.36837 0.30252 0.0
N17 N 0.31487 0.37895 0.26191 0.0
N18 N 0.31758 0.35998 0.22292 0.0
C19 C 0.30336 0.33631 0.23837 0.0
C20 C 0.29061 0.34084 0.28941 0.0
C21 C 0.29005 0.38452 0.35288 0.0
H22 H 0.28164 0.40551 0.34078 0.0
H23 H 0.27285 0.37366 0.37692 0.0
H24 H 0.30973 0.38762 0.37879 0.0
O25 O 0.3799 0.40133 0.25759 0.0
O26 O 0.38339 0.37203 0.18705 0.0
H27 H 0.29941 0.29081 0.23509 0.0
H28 H 0.28984 0.30934 0.17308 0.0
C29 C 0.30516 0.30887 0.20832 0.0
H30 H 0.32762 0.30567 0.19254 0.0
H31 H 0.38196 0.32131 0.12618 0.0
O32 O 0.33319 0.43507 0.32591 0.0
C33 C 0.39507 0.38549 0.22656 0.0
Co34 Co 0.67057 0.60748 0.75808 0.0
Co35 Co 0.66576 0.65188 0.66289 0.0
C36 C 0.68253 0.59087 0.64286 0.0
O37 O 0.68112 0.58494 0.6936 0.0
O38 O 0.67732 0.61575 0.62554 0.0
C39 C 0.69706 0.56711 0.83193 0.0
O40 O 0.71871 0.56666 0.79657 0.0
C41 C 0.69024 0.689 0.5773 0.0
C42 C 0.65346 0.7182 0.5622 0.0
C43 C 0.68198 0.71244 0.54641 0.0
N44 N 0.66776 0.68169 0.60995 0.0
N45 N 0.64583 0.69917 0.60051 0.0
C46 C 0.71836 0.67289 0.57465 0.0
H47 H 0.71542 0.65121 0.59061 0.0
H48 H 0.73496 0.68348 0.60057 0.0
H49 H 0.72659 0.67205 0.5319 0.0
C50 C 0.70878 0.65198 0.8047 0.0
N51 N 0.69282 0.64121 0.76328 0.0
N52 N 0.68992 0.6604 0.72465 0.0
C53 C 0.7033 0.68433 0.74109 0.0
C54 C 0.71581 0.67978 0.79233 0.0
C55 C 0.7171 0.63573 0.85498 0.0
H56 H 0.72825 0.61605 0.84255 0.0
H57 H 0.73226 0.64759 0.88182 0.0
H58 H 0.6971 0.63002 0.87815 0.0
O59 O 0.62838 0.61675 0.75397 0.0
O60 O 0.62444 0.64888 0.68805 0.0
H61 H 0.705 0.72997 0.73993 0.0
H62 H 0.71654 0.71275 0.67785 0.0
C63 C 0.70061 0.71202 0.71203 0.0
H64 H 0.67829 0.71439 0.69492 0.0
H65 H 0.62569 0.69822 0.62047 0.0
O66 O 0.67531 0.58326 0.82371 0.0
C67 C 0.61296 0.63349 0.72507 0.0
Co68 Co 0.33752 0.6078 0.75726 0.0
Co69 Co 0.34254 0.65172 0.85303 0.0
C70 C 0.32611 0.59041 0.8722 0.0
O71 O 0.32747 0.58466 0.82136 0.0
O72 O 0.33111 0.61529 0.88978 0.0
C73 C 0.31352 0.56594 0.68328 0.0
O74 O 0.29432 0.5612 0.72223 0.0
C75 C 0.31838 0.68903 0.93867 0.0
C76 C 0.35578 0.71727 0.95474 0.0
C77 C 0.32707 0.71212 0.96996 0.0
N78 N 0.34083 0.6813 0.90632 0.0
N79 N 0.36312 0.69823 0.91631 0.0
C80 C 0.28989 0.67356 0.94093 0.0
H81 H 0.29245 0.65183 0.92499 0.0
H82 H 0.27361 0.68456 0.91486 0.0
H83 H 0.28147 0.67291 0.98356 0.0
C84 C 0.29838 0.6519 0.71268 0.0
N85 N 0.31492 0.64131 0.75347 0.0
N86 N 0.3181 0.66054 0.79184 0.0
C87 C 0.30445 0.68441 0.77563 0.0
C88 C 0.29138 0.67971 0.72491 0.0
C89 C 0.2895 0.63545 0.66308 0.0
H90 H 0.28113 0.61459 0.67602 0.0
H91 H 0.27209 0.64627 0.63941 0.0
H92 H 0.30886 0.63206 0.63651 0.0
O93 O 0.37965 0.6172 0.76093 0.0
O94 O 0.38378 0.6489 0.82739 0.0
H95 H 0.3036 0.73004 0.77565 0.0
H96 H 0.29105 0.71343 0.83765 0.0
C97 C 0.30738 0.71219 0.80419 0.0
H98 H 0.32953 0.71425 0.82213 0.0
H99 H 0.38333 0.69687 0.89668 0.0
O100 O 0.33283 0.58487 0.69001 0.0
C101 C 0.39516 0.63375 0.78993 0.0
Co102 Co 0.66921 0.41358 0.25535 0.0
Co103 Co 0.66692 0.37056 0.35307 0.0
C104 C 0.68219 0.43088 0.37197 0.0
O105 O 0.67892 0.43617 0.32118 0.0
O106 O 0.67891 0.406 0.39073 0.0
C107 C 0.69874 0.44948 0.17676 0.0
O108 O 0.72269 0.44341 0.2041 0.0
C109 C 0.6875 0.33379 0.44337 0.0
C110 C 0.65481 0.29958 0.43986 0.0
C111 C 0.68009 0.30795 0.46668 0.0
N112 N 0.66766 0.34002 0.40437 0.0
N113 N 0.64798 0.31967 0.40313 0.0
C114 C 0.71433 0.35102 0.45369 0.0
H115 H 0.71885 0.36506 0.41829 0.0
H116 H 0.73348 0.33717 0.46132 0.0
H117 H 0.71078 0.36433 0.49046 0.0
C118 C 0.70731 0.3687 0.20858 0.0
N119 N 0.69192 0.38012 0.25017 0.0
N120 N 0.69148 0.36226 0.29156 0.0
C121 C 0.70705 0.33912 0.27774 0.0
C122 C 0.71764 0.34253 0.22485 0.0
C123 C 0.70871 0.38066 0.15184 0.0
H124 H 0.68847 0.39258 0.14244 0.0
H125 H 0.72776 0.39501 0.14876 0.0
H126 H 0.71148 0.36372 0.12093 0.0
O127 O 0.62758 0.40332 0.25713 0.0
O128 O 0.62532 0.37404 0.32802 0.0
H129 H 0.68986 0.3043 0.32315 0.0
H130 H 0.72595 0.2981 0.29534 0.0
C131 C 0.71135 0.31405 0.31412 0.0
H132 H 0.72132 0.32094 0.35318 0.0
H133 H 0.63036 0.31907 0.37598 0.0
O134 O 0.67452 0.43874 0.19131 0.0
C135 C 0.61299 0.38739 0.28892 0.0
Co136 Co 0.83812 0.91286 0.25553 0.0
Co137 Co 0.84305 0.86854 0.16058 0.0
C138 C 0.82711 0.9295 0.13937 0.0
O139 O 0.82863 0.93545 0.19013 0.0
O140 O 0.83172 0.90448 0.12215 0.0
C141 C 0.82085 0.95999 0.32401 0.0
O142 O 0.81181 0.9717 0.27824 0.0
C143 C 0.82043 0.83198 0.07309 0.0
C144 C 0.85385 0.79835 0.07056 0.0
C145 C 0.82739 0.80661 0.04797 0.0
N146 N 0.84177 0.83833 0.10896 0.0
N147 N 0.86188 0.81834 0.10666 0.0
C148 C 0.79277 0.84856 0.06728 0.0
H149 H 0.78922 0.86198 0.10392 0.0
H150 H 0.77383 0.83425 0.06133 0.0
H151 H 0.79451 0.8624 0.03076 0.0
C152 C 0.79837 0.86965 0.30014 0.0
N153 N 0.81532 0.87969 0.25953 0.0
N154 N 0.81796 0.86041 0.22114 0.0
C155 C 0.80322 0.8371 0.23689 0.0
C156 C 0.79029 0.84218 0.2876 0.0
C157 C 0.79033 0.88619 0.35014 0.0
H158 H 0.80963 0.88764 0.37759 0.0
H159 H 0.78393 0.90787 0.33807 0.0
H160 H 0.77191 0.87633 0.37264 0.0
O161 O 0.88018 0.90332 0.25341 0.0
O162 O 0.88418 0.87153 0.18708 0.0
H163 H 0.82735 0.80525 0.19427 0.0
H164 H 0.79708 0.79178 0.23338 0.0
C165 C 0.80458 0.8095 0.20732 0.0
H166 H 0.79059 0.81061 0.17025 0.0
H167 H 0.88059 0.81785 0.13113 0.0
O168 O 0.83231 0.93559 0.32269 0.0
C169 C 0.89561 0.88663 0.22458 0.0
Co170 Co 0.17018 0.10914 0.75757 0.0
Co171 Co 0.16547 0.15267 0.66085 0.0
C172 C 0.181 0.09181 0.64092 0.0
O173 O 0.17963 0.08615 0.69191 0.0
O174 O 0.17623 0.1167 0.62314 0.0
C175 C 0.18706 0.0618 0.82655 0.0
O176 O 0.19447 0.04932 0.78059 0.0
C177 C 0.18603 0.1887 0.57024 0.0
C178 C 0.15438 0.22385 0.57407 0.0
C179 C 0.17927 0.21467 0.54711 0.0
N180 N 0.16613 0.18297 0.60925 0.0
N181 N 0.14701 0.20386 0.61067 0.0
C182 C 0.2126 0.17108 0.55995 0.0
H183 H 0.21719 0.15731 0.59574 0.0
H184 H 0.23183 0.18464 0.55135 0.0
H185 H 0.20864 0.15755 0.52364 0.0
C186 C 0.21024 0.15251 0.80067 0.0
N187 N 0.19315 0.14219 0.76046 0.0
N188 N 0.19094 0.16096 0.72091 0.0
C189 C 0.20637 0.18408 0.73527 0.0
C190 C 0.21918 0.17942 0.78614 0.0
C191 C 0.21519 0.13792 0.85431 0.0
H192 H 0.19378 0.13386 0.87417 0.0
H193 H 0.22583 0.11725 0.84684 0.0
H194 H 0.22896 0.15056 0.88247 0.0
O195 O 0.12814 0.11941 0.75691 0.0
O196 O 0.12458 0.14963 0.6877 0.0
H197 H 0.18578 0.2187 0.69439 0.0
H198 H 0.22146 0.2269 0.72225 0.0
C199 C 0.20813 0.21046 0.7018 0.0
H200 H 0.21821 0.20555 0.66167 0.0
H201 H 0.12956 0.20497 0.6381 0.0
O202 O 0.17665 0.08663 0.82511 0.0
C203 C 0.11295 0.13571 0.72666 0.0
Co204 Co 0.83843 0.10987 0.75424 0.0
Co205 Co 0.84161 0.15198 0.85338 0.0
C206 C 0.82731 0.09053 0.86932 0.0
O207 O 0.82978 0.08559 0.81827 0.0
O208 O 0.83075 0.11531 0.88847 0.0
C209 C 0.81978 0.06429 0.68359 0.0
O210 O 0.80916 0.05304 0.72857 0.0
C211 C 0.81903 0.18748 0.94384 0.0
C212 C 0.85351 0.21996 0.94905 0.0
C213 C 0.82679 0.21215 0.97109 0.0
N214 N 0.83996 0.18147 0.90684 0.0
N215 N 0.86059 0.20085 0.91059 0.0
C216 C 0.79273 0.16939 0.95374 0.0
H217 H 0.79712 0.14733 0.94158 0.0
H218 H 0.77417 0.17719 0.92869 0.0
H219 H 0.7863 0.17007 0.99757 0.0
C220 C 0.79788 0.15327 0.7125 0.0
N221 N 0.8148 0.1426 0.75266 0.0
N222 N 0.81674 0.16099 0.79284 0.0
C223 C 0.80142 0.18428 0.77889 0.0
C224 C 0.7888 0.18006 0.72771 0.0
C225 C 0.79336 0.13923 0.65823 0.0
H226 H 0.81493 0.13523 0.63894 0.0
H227 H 0.78256 0.11856 0.66468 0.0
H228 H 0.77994 0.15221 0.63001 0.0
O229 O 0.88007 0.12081 0.75615 0.0
O230 O 0.88299 0.14952 0.8278 0.0
H231 H 0.82221 0.21754 0.82352 0.0
H232 H 0.78804 0.22772 0.79156 0.0
C233 C 0.7998 0.21047 0.81292 0.0
H234 H 0.78803 0.20578 0.85144 0.0
H235 H 0.87932 0.2013 0.88622 0.0
O236 O 0.83269 0.08796 0.68602 0.0
C237 C 0.89495 0.13649 0.788 0.0
Co238 Co 0.17117 0.91276 0.25878 0.0
Co239 Co 0.16565 0.8683 0.35363 0.0
C240 C 0.18212 0.9291 0.3752 0.0
O241 O 0.18164 0.93516 0.32434 0.0
O242 O 0.17629 0.90425 0.39207 0.0
C243 C 0.19025 0.95891 0.1884 0.0
O244 O 0.20146 0.97006 0.23295 0.0
C245 C 0.18635 0.83212 0.44403 0.0
C246 C 0.15497 0.79681 0.43967 0.0
C247 C 0.17978 0.80605 0.46688 0.0
N248 N 0.16643 0.83784 0.40495 0.0
N249 N 0.14747 0.81685 0.40322 0.0
C250 C 0.2128 0.84985 0.45453 0.0
H251 H 0.21731 0.86369 0.41884 0.0
H252 H 0.23212 0.83637 0.46313 0.0
H253 H 0.20873 0.86332 0.49088 0.0
C254 C 0.21019 0.86888 0.21377 0.0
N255 N 0.1934 0.8792 0.25441 0.0
N256 N 0.19116 0.86027 0.29363 0.0
C257 C 0.20639 0.8371 0.27879 0.0
C258 C 0.21899 0.84181 0.22776 0.0
C259 C 0.21494 0.88365 0.16027 0.0
H260 H 0.19343 0.88865 0.14153 0.0
H261 H 0.22648 0.90384 0.16775 0.0
H262 H 0.22778 0.87071 0.13111 0.0
O263 O 0.12892 0.90381 0.26117 0.0
O264 O 0.12476 0.87127 0.32615 0.0
H265 H 0.18609 0.80212 0.31887 0.0
H266 H 0.22218 0.79449 0.29233 0.0
C267 C 0.20835 0.81072 0.31225 0.0
H268 H 0.21797 0.81573 0.35272 0.0
H269 H 0.13006 0.81571 0.37568 0.0
O270 O 0.17708 0.93539 0.19138 0.0
C271 C 0.11342 0.8868 0.28918 0.0
H272 H 0.42536 0.40147 0.31792 0.0
H273 H 0.43693 0.36392 0.15805 0.0
H274 H 0.47802 0.39929 0.33329 0.0
H275 H 0.48972 0.36189 0.1736 0.0
H276 H 0.58199 0.40213 0.19774 0.0
H277 H 0.52937 0.39903 0.18327 0.0
H278 H 0.51891 0.36318 0.3447 0.0
H279 H 0.57179 0.36612 0.35937 0.0
C280 C 0.4391 0.39266 0.28612 0.0
C281 C 0.42694 0.38302 0.23659 0.0
C282 C 0.46924 0.39123 0.29515 0.0
C283 C 0.48793 0.38045 0.25463 0.0
C284 C 0.4758 0.37048 0.20539 0.0
C285 C 0.44559 0.37156 0.1966 0.0
C286 C 0.56854 0.39348 0.23017 0.0
C287 C 0.58109 0.38451 0.27986 0.0
C288 C 0.53841 0.39153 0.22165 0.0
C289 C 0.52008 0.38086 0.26283 0.0
C290 C 0.53256 0.37165 0.31238 0.0
C291 C 0.56281 0.37324 0.32067 0.0
H292 H 0.5791 0.59383 0.77481 0.0
H293 H 0.57457 0.67563 0.69715 0.0
H294 H 0.52642 0.59501 0.79019 0.0
H295 H 0.52165 0.67688 0.71359 0.0
H296 H 0.43373 0.6755 0.81873 0.0
H297 H 0.48664 0.67661 0.8021 0.0
H298 H 0.48145 0.59544 0.72314 0.0
H299 H 0.42879 0.5944 0.73871 0.0
C300 C 0.5669 0.61213 0.76126 0.0
C301 C 0.581 0.63461 0.73463 0.0
C302 C 0.53674 0.61273 0.76992 0.0
C303 C 0.52007 0.63602 0.75303 0.0
C304 C 0.53411 0.65875 0.7272 0.0
C305 C 0.5643 0.65794 0.71756 0.0
C306 C 0.4439 0.65794 0.79774 0.0
C307 C 0.42709 0.63485 0.78009 0.0
C308 C 0.47408 0.65867 0.788 0.0
C309 C 0.48801 0.63608 0.76148 0.0
C310 C 0.47123 0.61304 0.74395 0.0
C311 C 0.44108 0.61253 0.75272 0.0
H312 H 0.07519 0.8445 0.31616 0.0
H313 H 0.07955 0.92641 0.23893 0.0
H314 H 0.02229 0.84324 0.2996 0.0
H315 H 0.02686 0.92521 0.2234 0.0
H316 H 0.92937 0.92585 0.27578 0.0
H317 H 0.98209 0.92476 0.29074 0.0
H318 H 0.98703 0.84362 0.21158 0.0
H319 H 0.93406 0.84478 0.19557 0.0
C320 C 0.06489 0.8622 0.29576 0.0
C321 C 0.08153 0.88558 0.27894 0.0
C322 C 0.03471 0.86139 0.28605 0.0
C323 C 0.02061 0.88416 0.26038 0.0
C324 C 0.03723 0.90747 0.24357 0.0
C325 C 0.06739 0.90807 0.25231 0.0
C326 C 0.94161 0.90772 0.26162 0.0
C327 C 0.92754 0.88542 0.23437 0.0
C328 C 0.9718 0.90718 0.27001 0.0
C329 C 0.98853 0.88414 0.25222 0.0
C330 C 0.97452 0.86157 0.22586 0.0
C331 C 0.9443 0.86232 0.21649 0.0
H332 H 0.08234 0.11857 0.81697 0.0
H333 H 0.07143 0.15854 0.659 0.0
H334 H 0.02964 0.12123 0.83209 0.0
H335 H 0.01869 0.16103 0.67426 0.0
H336 H 0.92558 0.12235 0.69609 0.0
H337 H 0.9783 0.12442 0.68201 0.0
H338 H 0.98949 0.1582 0.84486 0.0
H339 H 0.93656 0.1563 0.85913 0.0
C340 C 0.06874 0.12799 0.78554 0.0
C341 C 0.08109 0.13822 0.73664 0.0
C342 C 0.03859 0.12969 0.79442 0.0
C343 C 0.02011 0.14131 0.75433 0.0
C344 C 0.03243 0.15179 0.70568 0.0
C345 C 0.06263 0.15044 0.69708 0.0
C346 C 0.93922 0.13035 0.72888 0.0
C347 C 0.92686 0.13906 0.77884 0.0
C348 C 0.9694 0.1317 0.72062 0.0
C349 C 0.98796 0.14144 0.76235 0.0
C350 C 0.97567 0.15041 0.81215 0.0
C351 C 0.94538 0.14945 0.82017 0.0
H352 H 0.33202 0.53411 0.85357 0.0
H353 H 0.30899 0.5938 0.97989 0.0
H354 H 0.32869 0.49588 0.91903 0.0
H355 H 0.30387 0.5552 0.0453 0.0
H356 H 0.33533 0.4859 0.16161 0.0
H357 H 0.33178 0.52437 0.09662 0.0
H358 H 0.30086 0.46633 0.97284 0.0
H359 H 0.3062 0.42746 0.03753 0.0
C360 C 0.3256 0.53902 0.89521 0.0
C361 C 0.32096 0.56708 0.91155 0.0
C362 C 0.32346 0.51695 0.9329 0.0
C363 C 0.31607 0.52219 0.98794 0.0
C364 C 0.31027 0.55025 1.00372 0.0
C365 C 0.31297 0.57244 0.96612 0.0
C366 C 0.32754 0.48134 0.12063 0.0
C367 C 0.32125 0.45353 0.10467 0.0
C368 C 0.32528 0.50356 0.08323 0.0
C369 C 0.31612 0.49871 0.02897 0.0
C370 C 0.30866 0.47095 0.01374 0.0
C371 C 0.31149 0.44861 0.05095 0.0
H372 H 0.70399 0.42864 0.47661 0.0
H373 H 0.67249 0.48678 0.35375 0.0
H374 H 0.70959 0.46753 0.54099 0.0
H375 H 0.67634 0.52529 0.41856 0.0
H376 H 0.69907 0.59478 0.5349 0.0
H377 H 0.70443 0.5564 0.46915 0.0
H378 H 0.68142 0.49646 0.59564 0.0
H379 H 0.67781 0.53446 0.66135 0.0
C380 C 0.69825 0.44974 0.46339 0.0
C381 C 0.6877 0.45458 0.41015 0.0
C382 C 0.70124 0.47208 0.50043 0.0
C383 C 0.69316 0.49974 0.48551 0.0
C384 C 0.6833 0.50454 0.43164 0.0
C385 C 0.68087 0.48232 0.39438 0.0
C386 C 0.69555 0.57333 0.54863 0.0
C387 C 0.68795 0.56772 0.60332 0.0
C388 C 0.6984 0.55127 0.51086 0.0
C389 C 0.69317 0.52311 0.52663 0.0
C390 C 0.68621 0.51763 0.58178 0.0
C391 C 0.6839 0.53957 0.61962 0.0
H392 H 0.74522 0.55162 0.89074 0.0
H393 H 0.65133 0.54345 0.88549 0.0
H394 H 0.74657 0.5246 0.97576 0.0
H395 H 0.65253 0.51465 0.96771 0.0
H396 H 0.65711 0.48596 0.14175 0.0
H397 H 0.65779 0.51533 0.06024 0.0
H398 H 0.74269 0.48139 0.0174 0.0
H399 H 0.74266 0.45373 0.10167 0.0
C400 C 0.72492 0.54362 0.90749 0.0
C401 C 0.69817 0.54969 0.8819 0.0
C402 C 0.72564 0.52795 0.95608 0.0
C403 C 0.69964 0.51737 0.97933 0.0
C404 C 0.67298 0.52301 0.95245 0.0
C405 C 0.67223 0.53932 0.90486 0.0
C406 C 0.67597 0.48501 0.11496 0.0
C407 C 0.69983 0.46766 0.12784 0.0
C408 C 0.6763 0.50164 0.06777 0.0
C409 C 0.70014 0.50064 0.03125 0.0
C410 C 0.72412 0.48323 0.04461 0.0
C411 C 0.7241 0.46719 0.09278 0.0
H412 H 0.35578 0.45671 0.41157 0.0
H413 H 0.26988 0.4882 0.36972 0.0
H414 H 0.35477 0.48384 0.49631 0.0
H415 H 0.2689 0.51528 0.4551 0.0
H416 H 0.26947 0.53216 0.64493 0.0
H417 H 0.26869 0.50517 0.55944 0.0
H418 H 0.35482 0.5362 0.51965 0.0
H419 H 0.35563 0.56324 0.60452 0.0
C420 C 0.33664 0.46936 0.4205 0.0
C421 C 0.31293 0.47038 0.38385 0.0
C422 C 0.33615 0.48498 0.46891 0.0
C423 C 0.3118 0.50169 0.4821 0.0
C424 C 0.28787 0.50243 0.44597 0.0
C425 C 0.28852 0.48707 0.39705 0.0
C426 C 0.28821 0.53322 0.61789 0.0
C427 C 0.31264 0.54976 0.63153 0.0
C428 C 0.28767 0.51792 0.56889 0.0
C429 C 0.31173 0.51856 0.53314 0.0
C430 C 0.33609 0.53514 0.54676 0.0
C431 C 0.33648 0.5507 0.59524 0.0
H432 H 0.83703 0.03467 0.85014 0.0
H433 H 0.80648 0.09225 0.97452 0.0
H434 H 0.83364 0.99585 0.91463 0.0
H435 H 0.80133 0.05313 0.03848 0.0
H436 H 0.83287 0.98581 0.1578 0.0
H437 H 0.82968 0.02396 0.09225 0.0
H438 H 0.80578 0.96455 0.96553 0.0
H439 H 0.81069 0.92597 0.03117 0.0
C440 C 0.82899 0.03895 0.89105 0.0
C441 C 0.82227 0.06662 0.90733 0.0
C442 C 0.82683 0.01656 0.92812 0.0
C443 C 0.81736 0.02113 0.98227 0.0
C444 C 0.80942 0.04873 0.9977 0.0
C445 C 0.81215 0.07122 0.96089 0.0
C446 C 0.82668 0.98084 0.11606 0.0
C447 C 0.82217 0.95276 0.09972 0.0
C448 C 0.82462 1.00287 0.0783 0.0
C449 C 0.81747 0.9976 0.02315 0.0
C450 C 0.81193 0.96952 1.00725 0.0
C451 C 0.81452 0.94735 0.04497 0.0
H452 H 0.20018 0.03829 0.66304 0.0
H453 H 0.17349 0.09237 0.52954 0.0
H454 H 0.20494 0.99896 0.59969 0.0
H455 H 0.17709 0.05283 0.46652 0.0
H456 H 0.20355 0.982 0.35547 0.0
H457 H 0.20767 0.02108 0.4195 0.0
H458 H 0.17515 0.96774 0.54954 0.0
H459 H 0.17218 0.92838 0.48592 0.0
C460 C 0.19537 0.04182 0.62012 0.0
C461 C 0.18631 0.06851 0.6015 0.0
C462 C 0.1979 0.01916 0.58376 0.0
C463 C 0.19116 0.02249 0.52785 0.0
C464 C 0.18288 0.04942 0.50904 0.0
C465 C 0.18064 0.07216 0.54532 0.0
C466 C 0.1976 0.9785 0.3979 0.0
C467 C 0.18737 0.95204 0.41543 0.0
C468 C 0.19975 1.00104 0.43461 0.0
C469 C 0.19145 0.99782 0.48978 0.0
C470 C 0.18211 0.97105 0.50764 0.0
C471 C 0.18025 0.94843 0.47101 0.0
H472 H 0.17668 0.08273 0.92901 0.0
H473 H 0.20405 1.00723 0.84429 0.0
H474 H 0.17936 0.05775 0.01611 0.0
H475 H 0.20719 0.98238 0.93168 0.0
H476 H 0.17212 0.93998 0.08838 0.0
H477 H 0.17325 0.96494 1.00127 0.0
H478 H 0.2142 0.03622 0.08013 0.0
H479 H 0.21264 0.01139 0.16778 0.0
C480 C 0.18345 0.06085 0.92897 0.0
C481 C 0.18999 0.04692 0.87963 0.0
C482 C 0.18519 0.04659 0.97899 0.0
C483 C 0.19344 0.01807 0.98082 0.0
C484 C 0.20041 1.00426 0.93156 0.0
C485 C 0.19876 0.01854 0.88151 0.0
C486 C 0.18145 0.96095 0.08722 0.0
C487 C 0.19216 0.97375 0.13514 0.0
C488 C 0.18228 0.97518 0.03714 0.0
C489 C 0.1938 1.00257 0.03375 0.0
C490 C 0.20488 0.01525 0.08153 0.0
C491 C 0.20412 1.00097 0.13168 0.0
H492 H 0.79918 0.01103 0.66499 0.0
H493 H 0.83522 0.08373 0.58232 0.0
H494 H 0.79711 0.98589 0.57786 0.0
H495 H 0.83353 0.05845 0.49556 0.0
H496 H 0.80152 0.01386 0.34137 0.0
H497 H 0.79889 0.03913 0.42832 0.0
H498 H 0.83224 0.96572 0.51263 0.0
H499 H 0.83444 0.94032 0.42609 0.0
C500 C 0.80658 0.02167 0.62826 0.0
C501 C 0.81748 0.04932 0.63063 0.0
C502 C 0.80554 1.00722 0.57841 0.0
C503 C 0.81522 0.02016 0.52986 0.0
C504 C 0.82561 0.048 0.53212 0.0
C505 C 0.82677 0.06241 0.58195 0.0
C506 C 0.80814 1.00307 0.37849 0.0
C507 C 0.81831 0.97513 0.37676 0.0
C508 C 0.80677 0.01759 0.42825 0.0
C509 C 0.81542 1.00444 0.47731 0.0
C510 C 0.82511 0.97634 0.47565 0.0
C511 C 0.82656 0.96186 0.42595 0.0
H512 H 0.3268 0.25017 0.04229 0.0
H513 H 0.29076 0.32414 0.96436 0.0
H514 H 0.30058 0.22026 0.9781 0.0
H515 H 0.26491 0.29424 0.89889 0.0
H516 H 0.20012 0.22977 0.82579 0.0
H517 H 0.22576 0.26144 0.88865 0.0
H518 H 0.30084 0.20594 0.88569 0.0
H519 H 0.27456 0.17403 0.82453 0.0
C520 C 0.31328 0.26004 0.01124 0.0
C521 C 0.31057 0.28949 0.00881 0.0
C522 C 0.29838 0.24289 0.9741 0.0
C523 C 0.28071 0.25476 0.93287 0.0
C524 C 0.27795 0.28431 0.93054 0.0
C525 C 0.2927 0.30149 0.96818 0.0
C526 C 0.22221 0.22463 0.83843 0.0
C527 C 0.23549 0.19961 0.8206 0.0
C528 C 0.23696 0.24275 0.87425 0.0
C529 C 0.26537 0.23623 0.89269 0.0
C530 C 0.2788 0.21141 0.87342 0.0
C531 C 0.26393 0.19322 0.83804 0.0
H532 H 0.66049 0.74174 0.4595 0.0
H533 H 0.74153 0.72252 0.54259 0.0
H534 H 0.68679 0.77208 0.39604 0.0
H535 H 0.76805 0.75112 0.47702 0.0
H536 H 0.80154 0.83098 0.39495 0.0
H537 H 0.77564 0.79888 0.4557 0.0
H538 H 0.71986 0.7737 0.32121 0.0
H539 H 0.7449 0.80728 0.26136 0.0
C540 C 0.68401 0.74353 0.46365 0.0
C541 C 0.69888 0.72909 0.50563 0.0
C542 C 0.69916 0.76076 0.42685 0.0
C543 C 0.72964 0.76404 0.43103 0.0
C544 C 0.74456 0.74933 0.47268 0.0
C545 C 0.72935 0.7323 0.50978 0.0
C546 C 0.78351 0.8188 0.37862 0.0
C547 C 0.77498 0.82181 0.32367 0.0
C548 C 0.76891 0.80004 0.41322 0.0
C549 C 0.74561 0.78353 0.39352 0.0
C550 C 0.7374 0.78631 0.33811 0.0
C551 C 0.75189 0.80531 0.30362 0.0
H552 H 0.27323 0.848 0.18407 0.0
H553 H 0.20053 0.79038 0.19259 0.0
H554 H 0.29911 0.81545 0.12323 0.0
H555 H 0.22646 0.75745 0.13248 0.0
H556 H 0.26818 0.72511 0.97076 0.0
H557 H 0.24223 0.75494 0.03567 0.0
H558 H 0.32267 0.76893 0.12432 0.0
H559 H 0.3486 0.7387 0.05981 0.0
C560 C 0.26297 0.82821 0.17312 0.0
C561 C 0.23506 0.82153 0.19299 0.0
C562 C 0.27778 0.80952 0.13862 0.0
C563 C 0.26487 0.78381 0.12309 0.0
C564 C 0.23691 0.77716 0.1433 0.0
C565 C 0.22218 0.79583 0.17802 0.0
C566 C 0.28023 0.73376 1.00492 0.0
C567 C 0.31041 0.72892 0.01069 0.0
C568 C 0.26534 0.75112 0.04197 0.0
C569 C 0.28036 0.7643 0.08524 0.0
C570 C 0.3105 0.75934 0.09112 0.0
C571 C 0.32533 0.74192 0.05426 0.0
H572 H 0.71226 0.32506 0.55654 0.0
H573 H 0.68405 0.251 0.46846 0.0
H574 H 0.73817 0.29516 0.62216 0.0
H575 H 0.70989 0.22124 0.53354 0.0
H576 H 0.73397 0.17371 0.68733 0.0
H577 H 0.70719 0.20573 0.62688 0.0
H578 H 0.7801 0.26366 0.63001 0.0
H579 H 0.80649 0.23163 0.69141 0.0
C580 C 0.71199 0.30248 0.55058 0.0
C581 C 0.69642 0.29045 0.50679 0.0
C582 C 0.72673 0.28531 0.58837 0.0
C583 C 0.72606 0.25575 0.58329 0.0
C584 C 0.71046 0.24385 0.5394 0.0
C585 C 0.69575 0.26095 0.50187 0.0
C586 C 0.74404 0.19342 0.6753 0.0
C587 C 0.77212 0.20036 0.69394 0.0
C588 C 0.72887 0.21169 0.64045 0.0
C589 C 0.74156 0.23723 0.6232 0.0
C590 C 0.76953 0.24436 0.64293 0.0
C591 C 0.78466 0.22606 0.67795 0.0
H592 H 0.75958 0.71647 0.76564 0.0
H593 H 0.70421 0.69076 0.89979 0.0
H594 H 0.785 0.74952 0.82671 0.0
H595 H 0.7305 0.72266 0.96117 0.0
H596 H 0.81644 0.75066 0.05428 0.0
H597 H 0.78764 0.72176 0.99123 0.0
H598 H 0.77026 0.79502 0.89147 0.0
H599 H 0.79868 0.82421 0.95546 0.0
C600 C 0.75281 0.71799 0.80806 0.0
C601 C 0.73035 0.70069 0.82832 0.0
C602 C 0.7673 0.73684 0.84286 0.0
C603 C 0.7598 0.73836 0.89859 0.0
C604 C 0.73688 0.72159 0.91847 0.0
C605 C 0.72203 0.70323 0.8835 0.0
C606 C 0.80636 0.7606 0.01901 0.0
C607 C 0.80952 0.78965 0.00986 0.0
C608 C 0.78983 0.74412 0.98316 0.0
C609 C 0.77675 0.75625 0.93673 0.0
C610 C 0.78017 0.78526 0.92707 0.0
C611 C 0.7962 0.80191 0.96375 0.0
H612 H 0.19191 0.27022 0.55426 0.0
H613 H 0.20498 0.19739 0.45125 0.0
H614 H 0.22011 0.29899 0.49025 0.0
H615 H 0.233 0.22645 0.38645 0.0
H616 H 0.24619 0.3048 0.26248 0.0
H617 H 0.22035 0.27198 0.32351 0.0
H618 H 0.27548 0.29787 0.45792 0.0
H619 H 0.302 0.3296 0.39672 0.0
C620 C 0.2008 0.26041 0.51782 0.0
C621 C 0.19653 0.23157 0.50786 0.0
C622 C 0.21702 0.27682 0.4814 0.0
C623 C 0.22877 0.26487 0.43364 0.0
C624 C 0.22413 0.2361 0.42305 0.0
C625 C 0.20835 0.21949 0.46021 0.0
C626 C 0.25299 0.3031 0.30489 0.0
C627 C 0.27573 0.32005 0.32517 0.0
C628 C 0.23826 0.28439 0.33968 0.0
C629 C 0.24582 0.28266 0.3954 0.0
C630 C 0.26901 0.2991 0.41526 0.0
C631 C 0.28402 0.31736 0.38036 0.0
H632 H 0.76721 0.21972 0.97975 0.0
H633 H 0.84934 0.24354 0.05389 0.0
H634 H 0.74117 0.24964 0.04432 0.0
H635 H 0.82324 0.27395 0.11798 0.0
H636 H 0.7686 0.35133 0.17077 0.0
H637 H 0.79501 0.31833 0.11176 0.0
H638 H 0.72948 0.25481 0.14336 0.0
H639 H 0.70291 0.28813 0.20166 0.0
C640 C 0.7797 0.23062 0.01078 0.0
C641 C 0.81036 0.22865 0.01247 0.0
C642 C 0.76474 0.24803 0.04755 0.0
C643 C 0.78014 0.26414 0.08631 0.0
C644 C 0.81077 0.262 0.08826 0.0
C645 C 0.82569 0.2445 0.0517 0.0
C646 C 0.76001 0.33025 0.16515 0.0
C647 C 0.734 0.32207 0.19101 0.0
C648 C 0.77516 0.31132 0.13175 0.0
C649 C 0.76441 0.28391 0.12315 0.0
C650 C 0.73825 0.27581 0.14902 0.0
C651 C 0.7232 0.29472 0.18271 0.0
H652 H 0.20601 0.82333 0.56236 0.0
H653 H 0.19212 0.75038 0.46006 0.0
H654 H 0.23426 0.79426 0.62689 0.0
H655 H 0.22043 0.72156 0.52391 0.0
H656 H 0.30165 0.6895 0.61661 0.0
H657 H 0.27518 0.72126 0.55528 0.0
H658 H 0.22254 0.75001 0.69091 0.0
H659 H 0.24836 0.71725 0.75216 0.0
C660 C 0.20925 0.8012 0.55347 0.0
C661 C 0.19714 0.78911 0.50607 0.0
C662 C 0.22516 0.78457 0.59051 0.0
C663 C 0.22961 0.75575 0.58011 0.0
C664 C 0.21754 0.74378 0.53262 0.0
C665 C 0.20124 0.76022 0.49629 0.0
C666 C 0.28421 0.70236 0.63323 0.0
C667 C 0.2766 0.7005 0.68886 0.0
C668 C 0.26922 0.72065 0.59823 0.0
C669 C 0.24672 0.7379 0.61835 0.0
C670 C 0.23989 0.73698 0.67447 0.0
C671 C 0.25462 0.71828 0.7094 0.0
loop_
_geom_bond_atom_site_label_1
_geom_bond_atom_site_label_2
_geom_bond_distance
_geom_bond_site_symmetry_2
_ccdc_geom_bond_type
Co0 O3 1.970 . S
Co0 N17 1.989 . S
Co0 O25 1.967 . S
Co0 O32 1.920 . S
Co1 O4 1.966 . S
Co1 N10 2.022 . S
Co1 N18 1.993 . S
Co1 O26 1.941 . S
C2 O3 1.258 . S
C2 O4 1.263 . S
O3 Co0 1.970 . S
O3 C2 1.258 . S
O4 Co1 1.966 . S
O4 C2 1.263 . S
C5 O6 1.235 . S
C5 O32 1.289 . S
O6 C5 1.235 . S
C7 C9 1.400 . S
C7 N10 1.351 . S
C7 C12 1.501 . S
C8 C9 1.387 . S
C8 N11 1.341 . S
C9 C7 1.400 . S
C9 C8 1.387 . S
N10 Co1 2.022 . S
N10 C7 1.351 . S
N10 N11 1.365 . S
N11 C8 1.341 . S
N11 N10 1.365 . S
N11 H31 0.862 . S
C12 C7 1.501 . S
C12 H13 0.961 . S
C12 H14 0.961 . S
C12 H15 0.960 . S
H13 C12 0.961 . S
H14 C12 0.961 . S
H15 C12 0.960 . S
C16 N17 1.342 . S
C16 C20 1.401 . S
C16 C21 1.499 . S
N17 Co0 1.989 . S
N17 C16 1.342 . S
N17 N18 1.388 . S
N18 Co1 1.993 . S
N18 N17 1.388 . S
N18 C19 1.346 . S
C19 N18 1.346 . S
C19 C20 1.396 . S
C19 C29 1.510 . S
C20 C16 1.401 . S
C20 C19 1.396 . S
C21 C16 1.499 . S
C21 H22 0.959 . S
C21 H23 0.960 . S
C21 H24 0.961 . S
H22 C21 0.959 . S
H23 C21 0.960 . S
H24 C21 0.961 . S
O25 Co0 1.967 . S
O25 C33 1.258 . S
O26 Co1 1.941 . S
O26 C33 1.266 . S
H27 C29 0.959 . S
H28 C29 0.961 . S
C29 C19 1.510 . S
C29 H27 0.959 . S
C29 H28 0.961 . S
C29 H30 0.960 . S
H30 C29 0.960 . S
H31 N11 0.862 . S
O32 Co0 1.920 . S
O32 C5 1.289 . S
C33 O25 1.258 . S
C33 O26 1.266 . S
Co34 O37 1.970 . S
Co34 N51 1.989 . S
Co34 O59 1.967 . S
Co34 O66 1.920 . S
Co35 O38 1.966 . S
Co35 N44 2.022 . S
Co35 N52 1.993 . S
Co35 O60 1.941 . S
C36 O37 1.258 . S
C36 O38 1.263 . S
O37 Co34 1.970 . S
O37 C36 1.258 . S
O38 Co35 1.966 . S
O38 C36 1.263 . S
C39 O40 1.235 . S
C39 O66 1.289 . S
O40 C39 1.235 . S
C41 C43 1.400 . S
C41 N44 1.351 . S
C41 C46 1.501 . S
C42 C43 1.387 . S
C42 N45 1.341 . S
C43 C41 1.400 . S
C43 C42 1.387 . S
N44 Co35 2.022 . S
N44 C41 1.351 . S
N44 N45 1.365 . S
N45 C42 1.341 . S
N45 N44 1.365 . S
N45 H65 0.862 . S
C46 C41 1.501 . S
C46 H47 0.961 . S
C46 H48 0.961 . S
C46 H49 0.960 . S
H47 C46 0.961 . S
H48 C46 0.961 . S
H49 C46 0.960 . S
C50 N51 1.342 . S
C50 C54 1.401 . S
C50 C55 1.499 . S
N51 Co34 1.989 . S
N51 C50 1.342 . S
N51 N52 1.388 . S
N52 Co35 1.993 . S
N52 N51 1.388 . S
N52 C53 1.346 . S
C53 N52 1.346 . S
C53 C54 1.396 . S
C53 C63 1.510 . S
C54 C50 1.401 . S
C54 C53 1.396 . S
C55 C50 1.499 . S
C55 H56 0.959 . S
C55 H57 0.960 . S
C55 H58 0.961 . S
H56 C55 0.959 . S
H57 C55 0.960 . S
H58 C55 0.961 . S
O59 Co34 1.967 . S
O59 C67 1.258 . S
O60 Co35 1.941 . S
O60 C67 1.266 . S
H61 C63 0.959 . S
H62 C63 0.961 . S
C63 C53 1.510 . S
C63 H61 0.959 . S
C63 H62 0.961 . S
C63 H64 0.960 . S
H64 C63 0.960 . S
H65 N45 0.862 . S
O66 Co34 1.920 . S
O66 C39 1.289 . S
C67 O59 1.258 . S
C67 O60 1.266 . S
Co68 O71 1.970 . S
Co68 N85 1.989 . S
Co68 O93 1.967 . S
Co68 O100 1.920 . S
Co69 O72 1.966 . S
Co69 N78 2.022 . S
Co69 N86 1.993 . S
Co69 O94 1.941 . S
C70 O71 1.258 . S
C70 O72 1.263 . S
O71 Co68 1.970 . S
O71 C70 1.258 . S
O72 Co69 1.966 . S
O72 C70 1.263 . S
C73 O74 1.235 . S
C73 O100 1.289 . S
O74 C73 1.235 . S
C75 C77 1.400 . S
C75 N78 1.351 . S
C75 C80 1.501 . S
C76 C77 1.387 . S
C76 N79 1.341 . S
C77 C75 1.400 . S
C77 C76 1.387 . S
N78 Co69 2.022 . S
N78 C75 1.351 . S
N78 N79 1.365 . S
N79 C76 1.341 . S
N79 N78 1.365 . S
N79 H99 0.862 . S
C80 C75 1.501 . S
C80 H81 0.961 . S
C80 H82 0.961 . S
C80 H83 0.960 . S
H81 C80 0.961 . S
H82 C80 0.961 . S
H83 C80 0.960 . S
C84 N85 1.342 . S
C84 C88 1.401 . S
C84 C89 1.499 . S
N85 Co68 1.989 . S
N85 C84 1.342 . S
N85 N86 1.388 . S
N86 Co69 1.993 . S
N86 N85 1.388 . S
N86 C87 1.346 . S
C87 N86 1.346 . S
C87 C88 1.396 . S
C87 C97 1.510 . S
C88 C84 1.401 . S
C88 C87 1.396 . S
C89 C84 1.499 . S
C89 H90 0.959 . S
C89 H91 0.960 . S
C89 H92 0.961 . S
H90 C89 0.959 . S
H91 C89 0.960 . S
H92 C89 0.961 . S
O93 Co68 1.967 . S
O93 C101 1.258 . S
O94 Co69 1.941 . S
O94 C101 1.266 . S
H95 C97 0.959 . S
H96 C97 0.961 . S
C97 C87 1.510 . S
C97 H95 0.959 . S
C97 H96 0.961 . S
C97 H98 0.960 . S
H98 C97 0.960 . S
H99 N79 0.862 . S
O100 Co68 1.920 . S
O100 C73 1.289 . S
C101 O93 1.258 . S
C101 O94 1.266 . S
Co102 O105 1.970 . S
Co102 N119 1.989 . S
Co102 O127 1.967 . S
Co102 O134 1.920 . S
Co103 O106 1.966 . S
Co103 N112 2.022 . S
Co103 N120 1.993 . S
Co103 O128 1.941 . S
C104 O105 1.258 . S
C104 O106 1.263 . S
O105 Co102 1.970 . S
O105 C104 1.258 . S
O106 Co103 1.966 . S
O106 C104 1.263 . S
C107 O108 1.235 . S
C107 O134 1.289 . S
O108 C107 1.235 . S
C109 C111 1.400 . S
C109 N112 1.351 . S
C109 C114 1.501 . S
C110 C111 1.387 . S
C110 N113 1.341 . S
C111 C109 1.400 . S
C111 C110 1.387 . S
N112 Co103 2.022 . S
N112 C109 1.351 . S
N112 N113 1.365 . S
N113 C110 1.341 . S
N113 N112 1.365 . S
N113 H133 0.862 . S
C114 C109 1.501 . S
C114 H115 0.961 . S
C114 H116 0.961 . S
C114 H117 0.960 . S
H115 C114 0.961 . S
H116 C114 0.961 . S
H117 C114 0.960 . S
C118 N119 1.342 . S
C118 C122 1.401 . S
C118 C123 1.499 . S
N119 Co102 1.989 . S
N119 C118 1.342 . S
N119 N120 1.388 . S
N120 Co103 1.993 . S
N120 N119 1.388 . S
N120 C121 1.346 . S
C121 N120 1.346 . S
C121 C122 1.396 . S
C121 C131 1.510 . S
C122 C118 1.401 . S
C122 C121 1.396 . S
C123 C118 1.499 . S
C123 H124 0.959 . S
C123 H125 0.960 . S
C123 H126 0.961 . S
H124 C123 0.959 . S
H125 C123 0.960 . S
H126 C123 0.961 . S
O127 Co102 1.967 . S
O127 C135 1.258 . S
O128 Co103 1.941 . S
O128 C135 1.266 . S
H129 C131 0.959 . S
H130 C131 0.961 . S
C131 C121 1.510 . S
C131 H129 0.959 . S
C131 H130 0.961 . S
C131 H132 0.960 . S
H132 C131 0.960 . S
H133 N113 0.862 . S
O134 Co102 1.920 . S
O134 C107 1.289 . S
C135 O127 1.258 . S
C135 O128 1.266 . S
Co136 O139 1.970 . S
Co136 N153 1.989 . S
Co136 O161 1.967 . S
Co136 O168 1.920 . S
Co137 O140 1.966 . S
Co137 N146 2.022 . S
Co137 N154 1.993 . S
Co137 O162 1.941 . S
C138 O139 1.258 . S
C138 O140 1.263 . S
O139 Co136 1.970 . S
O139 C138 1.258 . S
O140 Co137 1.966 . S
O140 C138 1.263 . S
C141 O142 1.235 . S
C141 O168 1.289 . S
O142 C141 1.235 . S
C143 C145 1.400 . S
C143 N146 1.351 . S
C143 C148 1.501 . S
C144 C145 1.387 . S
C144 N147 1.341 . S
C145 C143 1.400 . S
C145 C144 1.387 . S
N146 Co137 2.022 . S
N146 C143 1.351 . S
N146 N147 1.365 . S
N147 C144 1.341 . S
N147 N146 1.365 . S
N147 H167 0.862 . S
C148 C143 1.501 . S
C148 H149 0.961 . S
C148 H150 0.961 . S
C148 H151 0.960 . S
H149 C148 0.961 . S
H150 C148 0.961 . S
H151 C148 0.960 . S
C152 N153 1.342 . S
C152 C156 1.401 . S
C152 C157 1.499 . S
N153 Co136 1.989 . S
N153 C152 1.342 . S
N153 N154 1.388 . S
N154 Co137 1.993 . S
N154 N153 1.388 . S
N154 C155 1.346 . S
C155 N154 1.346 . S
C155 C156 1.396 . S
C155 C165 1.510 . S
C156 C152 1.401 . S
C156 C155 1.396 . S
C157 C152 1.499 . S
C157 H158 0.959 . S
C157 H159 0.960 . S
C157 H160 0.961 . S
H158 C157 0.959 . S
H159 C157 0.960 . S
H160 C157 0.961 . S
O161 Co136 1.967 . S
O161 C169 1.258 . S
O162 Co137 1.941 . S
O162 C169 1.266 . S
H163 C165 0.959 . S
H164 C165 0.961 . S
C165 C155 1.510 . S
C165 H163 0.959 . S
C165 H164 0.961 . S
C165 H166 0.960 . S
H166 C165 0.960 . S
H167 N147 0.862 . S
O168 Co136 1.920 . S
O168 C141 1.289 . S
C169 O161 1.258 . S
C169 O162 1.266 . S
Co170 O173 1.970 . S
Co170 N187 1.989 . S
Co170 O195 1.967 . S
Co170 O202 1.920 . S
Co171 O174 1.966 . S
Co171 N180 2.022 . S
Co171 N188 1.993 . S
Co171 O196 1.941 . S
C172 O173 1.258 . S
C172 O174 1.263 . S
O173 Co170 1.970 . S
O173 C172 1.258 . S
O174 Co171 1.966 . S
O174 C172 1.263 . S
C175 O176 1.235 . S
C175 O202 1.289 . S
O176 C175 1.235 . S
C177 C179 1.400 . S
C177 N180 1.351 . S
C177 C182 1.501 . S
C178 C179 1.387 . S
C178 N181 1.341 . S
C179 C177 1.400 . S
C179 C178 1.387 . S
N180 Co171 2.022 . S
N180 C177 1.351 . S
N180 N181 1.365 . S
N181 C178 1.341 . S
N181 N180 1.365 . S
N181 H201 0.862 . S
C182 C177 1.501 . S
C182 H183 0.961 . S
C182 H184 0.961 . S
C182 H185 0.960 . S
H183 C182 0.961 . S
H184 C182 0.961 . S
H185 C182 0.960 . S
C186 N187 1.342 . S
C186 C190 1.401 . S
C186 C191 1.499 . S
N187 Co170 1.989 . S
N187 C186 1.342 . S
N187 N188 1.388 . S
N188 Co171 1.993 . S
N188 N187 1.388 . S
N188 C189 1.346 . S
C189 N188 1.346 . S
C189 C190 1.396 . S
C189 C199 1.510 . S
C190 C186 1.401 . S
C190 C189 1.396 . S
C191 C186 1.499 . S
C191 H192 0.959 . S
C191 H193 0.960 . S
C191 H194 0.961 . S
H192 C191 0.959 . S
H193 C191 0.960 . S
H194 C191 0.961 . S
O195 Co170 1.967 . S
O195 C203 1.258 . S
O196 Co171 1.941 . S
O196 C203 1.266 . S
H197 C199 0.959 . S
H198 C199 0.961 . S
C199 C189 1.510 . S
C199 H197 0.959 . S
C199 H198 0.961 . S
C199 H200 0.960 . S
H200 C199 0.960 . S
H201 N181 0.862 . S
O202 Co170 1.920 . S
O202 C175 1.289 . S
C203 O195 1.258 . S
C203 O196 1.266 . S
Co204 O207 1.970 . S
Co204 N221 1.989 . S
Co204 O229 1.967 . S
Co204 O236 1.920 . S
Co205 O208 1.966 . S
Co205 N214 2.022 . S
Co205 N222 1.993 . S
Co205 O230 1.941 . S
C206 O207 1.258 . S
C206 O208 1.263 . S
O207 Co204 1.970 . S
O207 C206 1.258 . S
O208 Co205 1.966 . S
O208 C206 1.263 . S
C209 O210 1.235 . S
C209 O236 1.289 . S
O210 C209 1.235 . S
C211 C213 1.400 . S
C211 N214 1.351 . S
C211 C216 1.501 . S
C212 C213 1.387 . S
C212 N215 1.341 . S
C213 C211 1.400 . S
C213 C212 1.387 . S
N214 Co205 2.022 . S
N214 C211 1.351 . S
N214 N215 1.365 . S
N215 C212 1.341 . S
N215 N214 1.365 . S
N215 H235 0.862 . S
C216 C211 1.501 . S
C216 H217 0.961 . S
C216 H218 0.961 . S
C216 H219 0.960 . S
H217 C216 0.961 . S
H218 C216 0.961 . S
H219 C216 0.960 . S
C220 N221 1.342 . S
C220 C224 1.401 . S
C220 C225 1.499 . S
N221 Co204 1.989 . S
N221 C220 1.342 . S
N221 N222 1.388 . S
N222 Co205 1.993 . S
N222 N221 1.388 . S
N222 C223 1.346 . S
C223 N222 1.346 . S
C223 C224 1.396 . S
C223 C233 1.510 . S
C224 C220 1.401 . S
C224 C223 1.396 . S
C225 C220 1.499 . S
C225 H226 0.959 . S
C225 H227 0.960 . S
C225 H228 0.961 . S
H226 C225 0.959 . S
H227 C225 0.960 . S
H228 C225 0.961 . S
O229 Co204 1.967 . S
O229 C237 1.258 . S
O230 Co205 1.941 . S
O230 C237 1.266 . S
H231 C233 0.959 . S
H232 C233 0.961 . S
C233 C223 1.510 . S
C233 H231 0.959 . S
C233 H232 0.961 . S
C233 H234 0.960 . S
H234 C233 0.960 . S
H235 N215 0.862 . S
O236 Co204 1.920 . S
O236 C209 1.289 . S
C237 O229 1.258 . S
C237 O230 1.266 . S
Co238 O241 1.970 . S
Co238 N255 1.989 . S
Co238 O263 1.967 . S
Co238 O270 1.920 . S
Co239 O242 1.966 . S
Co239 N248 2.022 . S
Co239 N256 1.993 . S
Co239 O264 1.941 . S
C240 O241 1.258 . S
C240 O242 1.263 . S
O241 Co238 1.970 . S
O241 C240 1.258 . S
O242 Co239 1.966 . S
O242 C240 1.263 . S
C243 O244 1.235 . S
C243 O270 1.289 . S
O244 C243 1.235 . S
C245 C247 1.400 . S
C245 N248 1.351 . S
C245 C250 1.501 . S
C246 C247 1.387 . S
C246 N249 1.341 . S
C247 C245 1.400 . S
C247 C246 1.387 . S
N248 Co239 2.022 . S
N248 C245 1.351 . S
N248 N249 1.365 . S
N249 C246 1.341 . S
N249 N248 1.365 . S
N249 H269 0.862 . S
C250 C245 1.501 . S
C250 H251 0.961 . S
C250 H252 0.961 . S
C250 H253 0.960 . S
H251 C250 0.961 . S
H252 C250 0.961 . S
H253 C250 0.960 . S
C254 N255 1.342 . S
C254 C258 1.401 . S
C254 C259 1.499 . S
N255 Co238 1.989 . S
N255 C254 1.342 . S
N255 N256 1.388 . S
N256 Co239 1.993 . S
N256 N255 1.388 . S
N256 C257 1.346 . S
C257 N256 1.346 . S
C257 C258 1.396 . S
C257 C267 1.510 . S
C258 C254 1.401 . S
C258 C257 1.396 . S
C259 C254 1.499 . S
C259 H260 0.959 . S
C259 H261 0.960 . S
C259 H262 0.961 . S
H260 C259 0.959 . S
H261 C259 0.960 . S
H262 C259 0.961 . S
O263 Co238 1.967 . S
O263 C271 1.258 . S
O264 Co239 1.941 . S
O264 C271 1.266 . S
H265 C267 0.959 . S
H266 C267 0.961 . S
C267 C257 1.510 . S
C267 H265 0.959 . S
C267 H266 0.961 . S
C267 H268 0.960 . S
H268 C267 0.960 . S
H269 N249 0.862 . S
O270 Co238 1.920 . S
O270 C243 1.289 . S
C271 O263 1.258 . S
C271 O264 1.266 . S
H272 C280 0.950 . S
H273 C285 0.950 . S
H274 C282 0.950 . S
H275 C284 0.950 . S
H276 C286 0.950 . S
H277 C288 0.950 . S
H278 C290 0.950 . S
H279 C291 0.950 . S
C280 H272 0.950 . S
C280 C281 1.386 . S
C280 C282 1.391 . S
C281 C280 1.386 . S
C281 C285 1.393 . S
C282 H274 0.950 . S
C282 C280 1.391 . S
C282 C283 1.400 . S
C283 C282 1.400 . S
C283 C284 1.398 . S
C283 C289 1.491 . S
C284 H275 0.950 . S
C284 C283 1.398 . S
C284 C285 1.391 . S
C285 H273 0.950 . S
C285 C281 1.393 . S
C285 C284 1.391 . S
C286 H276 0.950 . S
C286 C287 1.386 . S
C286 C288 1.391 . S
C287 C286 1.386 . S
C287 C291 1.393 . S
C288 H277 0.950 . S
C288 C286 1.391 . S
C288 C289 1.400 . S
C289 C283 1.491 . S
C289 C288 1.400 . S
C289 C290 1.398 . S
C290 H278 0.950 . S
C290 C289 1.398 . S
C290 C291 1.391 . S
C291 H279 0.950 . S
C291 C287 1.393 . S
C291 C290 1.391 . S
H292 C300 0.950 . S
H293 C305 0.950 . S
H294 C302 0.950 . S
H295 C304 0.950 . S
H296 C306 0.950 . S
H297 C308 0.950 . S
H298 C310 0.950 . S
H299 C311 0.950 . S
C300 H292 0.950 . S
C300 C301 1.386 . S
C300 C302 1.391 . S
C301 C300 1.386 . S
C301 C305 1.393 . S
C302 H294 0.950 . S
C302 C300 1.391 . S
C302 C303 1.400 . S
C303 C302 1.400 . S
C303 C304 1.398 . S
C303 C309 1.491 . S
C304 H295 0.950 . S
C304 C303 1.398 . S
C304 C305 1.391 . S
C305 H293 0.950 . S
C305 C301 1.393 . S
C305 C304 1.391 . S
C306 H296 0.950 . S
C306 C307 1.386 . S
C306 C308 1.391 . S
C307 C306 1.386 . S
C307 C311 1.393 . S
C308 H297 0.950 . S
C308 C306 1.391 . S
C308 C309 1.400 . S
C309 C303 1.491 . S
C309 C308 1.400 . S
C309 C310 1.398 . S
C310 H298 0.950 . S
C310 C309 1.398 . S
C310 C311 1.391 . S
C311 H299 0.950 . S
C311 C307 1.393 . S
C311 C310 1.391 . S
H312 C320 0.950 . S
H313 C325 0.950 . S
H314 C322 0.950 . S
H315 C324 0.950 . S
H316 C326 0.950 . S
H317 C328 0.950 . S
H318 C330 0.950 . S
H319 C331 0.950 . S
C320 H312 0.950 . S
C320 C321 1.386 . S
C320 C322 1.391 . S
C321 C320 1.386 . S
C321 C325 1.393 . S
C322 H314 0.950 . S
C322 C320 1.391 . S
C322 C323 1.400 . S
C323 C322 1.400 . S
C323 C324 1.398 . S
C323 C329 1.491 1_455 S
C324 H315 0.950 . S
C324 C323 1.398 . S
C324 C325 1.391 . S
C325 H313 0.950 . S
C325 C321 1.393 . S
C325 C324 1.391 . S
C326 H316 0.950 . S
C326 C327 1.386 . S
C326 C328 1.391 . S
C327 C326 1.386 . S
C327 C331 1.393 . S
C328 H317 0.950 . S
C328 C326 1.391 . S
C328 C329 1.400 . S
C329 C323 1.491 1_655 S
C329 C328 1.400 . S
C329 C330 1.398 . S
C330 H318 0.950 . S
C330 C329 1.398 . S
C330 C331 1.391 . S
C331 H319 0.950 . S
C331 C327 1.393 . S
C331 C330 1.391 . S
H332 C340 0.950 . S
H333 C345 0.950 . S
H334 C342 0.950 . S
H335 C344 0.950 . S
H336 C346 0.950 . S
H337 C348 0.950 . S
H338 C350 0.950 . S
H339 C351 0.950 . S
C340 H332 0.950 . S
C340 C341 1.386 . S
C340 C342 1.391 . S
C341 C340 1.386 . S
C341 C345 1.393 . S
C342 H334 0.950 . S
C342 C340 1.391 . S
C342 C343 1.400 . S
C343 C342 1.400 . S
C343 C344 1.398 . S
C343 C349 1.491 1_455 S
C344 H335 0.950 . S
C344 C343 1.398 . S
C344 C345 1.391 . S
C345 H333 0.950 . S
C345 C341 1.393 . S
C345 C344 1.391 . S
C346 H336 0.950 . S
C346 C347 1.386 . S
C346 C348 1.391 . S
C347 C346 1.386 . S
C347 C351 1.393 . S
C348 H337 0.950 . S
C348 C346 1.391 . S
C348 C349 1.400 . S
C349 C343 1.491 1_655 S
C349 C348 1.400 . S
C349 C350 1.398 . S
C350 H338 0.950 . S
C350 C349 1.398 . S
C350 C351 1.391 . S
C351 H339 0.950 . S
C351 C347 1.393 . S
C351 C350 1.391 . S
H352 C360 0.950 . S
H353 C365 0.950 . S
H354 C362 0.950 . S
H355 C364 0.950 1_554 S
H356 C366 0.950 . S
H357 C368 0.950 . S
H358 C370 0.950 1_556 S
H359 C371 0.950 . S
C360 H352 0.950 . S
C360 C361 1.386 . S
C360 C362 1.391 . S
C361 C360 1.386 . S
C361 C365 1.393 . S
C362 H354 0.950 . S
C362 C360 1.391 . S
C362 C363 1.400 . S
C363 C362 1.400 . S
C363 C364 1.398 . S
C363 C369 1.491 1_556 S
C364 H355 0.950 1_556 S
C364 C363 1.398 . S
C364 C365 1.391 . S
C365 H353 0.950 . S
C365 C361 1.393 . S
C365 C364 1.391 . S
C366 H356 0.950 . S
C366 C367 1.386 . S
C366 C368 1.391 . S
C367 C366 1.386 . S
C367 C371 1.393 . S
C368 H357 0.950 . S
C368 C366 1.391 . S
C368 C369 1.400 . S
C369 C363 1.491 1_554 S
C369 C368 1.400 . S
C369 C370 1.398 . S
C370 H358 0.950 1_554 S
C370 C369 1.398 . S
C370 C371 1.391 . S
C371 H359 0.950 . S
C371 C367 1.393 . S
C371 C370 1.391 . S
H372 C380 0.950 . S
H373 C385 0.950 . S
H374 C382 0.950 . S
H375 C384 0.950 . S
H376 C386 0.950 . S
H377 C388 0.950 . S
H378 C390 0.950 . S
H379 C391 0.950 . S
C380 H372 0.950 . S
C380 C381 1.386 . S
C380 C382 1.391 . S
C381 C380 1.386 . S
C381 C385 1.393 . S
C382 H374 0.950 . S
C382 C380 1.391 . S
C382 C383 1.400 . S
C383 C382 1.400 . S
C383 C384 1.398 . S
C383 C389 1.491 . S
C384 H375 0.950 . S
C384 C383 1.398 . S
C384 C385 1.391 . S
C385 H373 0.950 . S
C385 C381 1.393 . S
C385 C384 1.391 . S
C386 H376 0.950 . S
C386 C387 1.386 . S
C386 C388 1.391 . S
C387 C386 1.386 . S
C387 C391 1.393 . S
C388 H377 0.950 . S
C388 C386 1.391 . S
C388 C389 1.400 . S
C389 C383 1.491 . S
C389 C388 1.400 . S
C389 C390 1.398 . S
C390 H378 0.950 . S
C390 C389 1.398 . S
C390 C391 1.391 . S
C391 H379 0.950 . S
C391 C387 1.393 . S
C391 C390 1.391 . S
H392 C400 0.950 . S
H393 C405 0.950 . S
H394 C402 0.950 . S
H395 C404 0.950 . S
H396 C406 0.950 . S
H397 C408 0.950 . S
H398 C410 0.950 . S
H399 C411 0.950 . S
C400 H392 0.950 . S
C400 C401 1.386 . S
C400 C402 1.391 . S
C401 C400 1.386 . S
C401 C405 1.393 . S
C402 H394 0.950 . S
C402 C400 1.391 . S
C402 C403 1.400 . S
C403 C402 1.400 . S
C403 C404 1.398 . S
C403 C409 1.491 1_556 S
C404 H395 0.950 . S
C404 C403 1.398 . S
C404 C405 1.391 . S
C405 H393 0.950 . S
C405 C401 1.393 . S
C405 C404 1.391 . S
C406 H396 0.950 . S
C406 C407 1.386 . S
C406 C408 1.391 . S
C407 C406 1.386 . S
C407 C411 1.393 . S
C408 H397 0.950 . S
C408 C406 1.391 . S
C408 C409 1.400 . S
C409 C403 1.491 1_554 S
C409 C408 1.400 . S
C409 C410 1.398 . S
C410 H398 0.950 . S
C410 C409 1.398 . S
C410 C411 1.391 . S
C411 H399 0.950 . S
C411 C407 1.393 . S
C411 C410 1.391 . S
H412 C420 0.950 . S
H413 C425 0.950 . S
H414 C422 0.950 . S
H415 C424 0.950 . S
H416 C426 0.950 . S
H417 C428 0.950 . S
H418 C430 0.950 . S
H419 C431 0.950 . S
C420 H412 0.950 . S
C420 C421 1.386 . S
C420 C422 1.391 . S
C421 C420 1.386 . S
C421 C425 1.393 . S
C422 H414 0.950 . S
C422 C420 1.391 . S
C422 C423 1.400 . S
C423 C422 1.400 . S
C423 C424 1.398 . S
C423 C429 1.491 . S
C424 H415 0.950 . S
C424 C423 1.398 . S
C424 C425 1.391 . S
C425 H413 0.950 . S
C425 C421 1.393 . S
C425 C424 1.391 . S
C426 H416 0.950 . S
C426 C427 1.386 . S
C426 C428 1.391 . S
C427 C426 1.386 . S
C427 C431 1.393 . S
C428 H417 0.950 . S
C428 C426 1.391 . S
C428 C429 1.400 . S
C429 C423 1.491 . S
C429 C428 1.400 . S
C429 C430 1.398 . S
C430 H418 0.950 . S
C430 C429 1.398 . S
C430 C431 1.391 . S
C431 H419 0.950 . S
C431 C427 1.393 . S
C431 C430 1.391 . S
H432 C440 0.950 . S
H433 C445 0.950 . S
H434 C442 0.950 1_565 S
H435 C444 0.950 1_554 S
H436 C446 0.950 . S
H437 C448 0.950 1_545 S
H438 C450 0.950 1_556 S
H439 C451 0.950 . S
C440 H432 0.950 . S
C440 C441 1.386 . S
C440 C442 1.391 . S
C441 C440 1.386 . S
C441 C445 1.393 . S
C442 H434 0.950 1_545 S
C442 C440 1.391 . S
C442 C443 1.400 . S
C443 C442 1.400 . S
C443 C444 1.398 . S
C443 C449 1.491 1_546 S
C444 H435 0.950 1_556 S
C444 C443 1.398 . S
C444 C445 1.391 . S
C445 H433 0.950 . S
C445 C441 1.393 . S
C445 C444 1.391 . S
C446 H436 0.950 . S
C446 C447 1.386 . S
C446 C448 1.391 . S
C447 C446 1.386 . S
C447 C451 1.393 . S
C448 H437 0.950 1_565 S
C448 C446 1.391 . S
C448 C449 1.400 . S
C449 C443 1.491 1_564 S
C449 C448 1.400 . S
C449 C450 1.398 . S
C450 H438 0.950 1_554 S
C450 C449 1.398 . S
C450 C451 1.391 . S
C451 H439 0.950 . S
C451 C447 1.393 . S
C451 C450 1.391 . S
H452 C460 0.950 . S
H453 C465 0.950 . S
H454 C462 0.938 1_565 S
H455 C464 0.950 . S
H456 C466 0.950 . S
H457 C468 0.938 1_545 S
H458 C470 0.950 . S
H459 C471 0.950 . S
C460 H452 0.950 . S
C460 C461 1.386 . S
C460 C462 1.391 . S
C461 C460 1.386 . S
C461 C465 1.393 . S
C462 H454 0.938 1_545 S
C462 C460 1.391 . S
C462 C463 1.400 . S
C463 C462 1.400 . S
C463 C464 1.398 . S
C463 C469 1.491 1_545 S
C464 H455 0.950 . S
C464 C463 1.398 . S
C464 C465 1.391 . S
C465 H453 0.950 . S
C465 C461 1.393 . S
C465 C464 1.391 . S
C466 H456 0.950 . S
C466 C467 1.386 . S
C466 C468 1.391 . S
C467 C466 1.386 . S
C467 C471 1.393 . S
C468 H457 0.938 1_565 S
C468 C466 1.391 . S
C468 C469 1.400 . S
C469 C463 1.491 1_565 S
C469 C468 1.400 . S
C469 C470 1.398 . S
C470 H458 0.950 . S
C470 C469 1.398 . S
C470 C471 1.391 . S
C471 H459 0.950 . S
C471 C467 1.393 . S
C471 C470 1.391 . S
H472 C480 0.950 . S
H473 C485 0.950 . S
H474 C482 0.950 1_554 S
H475 C484 0.989 . S
H476 C486 0.950 . S
H477 C488 0.950 1_556 S
H478 C490 0.989 . S
H479 C491 0.950 . S
C480 H472 0.950 . S
C480 C481 1.386 . S
C480 C482 1.391 . S
C481 C480 1.386 . S
C481 C485 1.393 . S
C482 H474 0.950 1_556 S
C482 C480 1.391 . S
C482 C483 1.400 . S
C483 C482 1.400 . S
C483 C484 1.385 1_545 S
C483 C489 1.491 1_546 S
C484 H475 0.989 . S
C484 C483 1.385 1_565 S
C484 C485 1.367 1_565 S
C485 H473 0.950 . S
C485 C481 1.393 . S
C485 C484 1.367 1_545 S
C486 H476 0.950 . S
C486 C487 1.386 . S
C486 C488 1.391 . S
C487 C486 1.386 . S
C487 C491 1.393 . S
C488 H477 0.950 1_554 S
C488 C486 1.391 . S
C488 C489 1.400 . S
C489 C483 1.491 1_564 S
C489 C488 1.400 . S
C489 C490 1.385 1_565 S
C490 H478 0.989 . S
C490 C489 1.385 1_545 S
C490 C491 1.367 1_545 S
C491 H479 0.950 . S
C491 C487 1.393 . S
C491 C490 1.367 1_565 S
H492 C500 0.950 . S
H493 C505 0.950 . S
H494 C502 0.988 . S
H495 C504 0.950 . S
H496 C506 0.950 . S
H497 C508 0.988 . S
H498 C510 0.950 . S
H499 C511 0.950 . S
C500 H492 0.950 . S
C500 C501 1.386 . S
C500 C502 1.368 1_545 S
C501 C500 1.386 . S
C501 C505 1.393 . S
C502 H494 0.988 . S
C502 C500 1.368 1_565 S
C502 C503 1.387 1_565 S
C503 C502 1.387 1_545 S
C503 C504 1.398 . S
C503 C509 1.491 1_545 S
C504 H495 0.950 . S
C504 C503 1.398 . S
C504 C505 1.391 . S
C505 H493 0.950 . S
C505 C501 1.393 . S
C505 C504 1.391 . S
C506 H496 0.950 . S
C506 C507 1.386 . S
C506 C508 1.368 1_565 S
C507 C506 1.386 . S
C507 C511 1.393 . S
C508 H497 0.988 . S
C508 C506 1.368 1_545 S
C508 C509 1.387 1_545 S
C509 C503 1.491 1_565 S
C509 C508 1.387 1_565 S
C509 C510 1.398 . S
C510 H498 0.950 . S
C510 C509 1.398 . S
C510 C511 1.391 . S
C511 H499 0.950 . S
C511 C507 1.393 . S
C511 C510 1.391 . S
H512 C520 0.950 . S
H513 C525 0.950 . S
H514 C522 0.950 . S
H515 C524 0.950 . S
H516 C526 0.950 . S
H517 C528 0.950 . S
H518 C530 0.950 . S
H519 C531 0.950 . S
C520 H512 0.950 . S
C520 C521 1.386 . S
C520 C522 1.391 . S
C521 C520 1.386 . S
C521 C525 1.393 1_554 S
C522 H514 0.950 . S
C522 C520 1.391 . S
C522 C523 1.400 1_554 S
C523 C522 1.400 1_556 S
C523 C524 1.398 . S
C523 C529 1.491 . S
C524 H515 0.950 . S
C524 C523 1.398 . S
C524 C525 1.391 . S
C525 H513 0.950 . S
C525 C521 1.393 1_556 S
C525 C524 1.391 . S
C526 H516 0.950 . S
C526 C527 1.386 . S
C526 C528 1.391 . S
C527 C526 1.386 . S
C527 C531 1.393 . S
C528 H517 0.950 . S
C528 C526 1.391 . S
C528 C529 1.400 . S
C529 C523 1.491 . S
C529 C528 1.400 . S
C529 C530 1.398 . S
C530 H518 0.950 . S
C530 C529 1.398 . S
C530 C531 1.391 . S
C531 H519 0.950 . S
C531 C527 1.393 . S
C531 C530 1.391 . S
H532 C540 0.950 . S
H533 C545 0.950 . S
H534 C542 0.950 . S
H535 C544 0.950 . S
H536 C546 0.950 . S
H537 C548 0.950 . S
H538 C550 0.950 . S
H539 C551 0.950 . S
C540 H532 0.950 . S
C540 C541 1.386 . S
C540 C542 1.391 . S
C541 C540 1.386 . S
C541 C545 1.393 . S
C542 H534 0.950 . S
C542 C540 1.391 . S
C542 C543 1.400 . S
C543 C542 1.400 . S
C543 C544 1.398 . S
C543 C549 1.491 . S
C544 H535 0.950 . S
C544 C543 1.398 . S
C544 C545 1.391 . S
C545 H533 0.950 . S
C545 C541 1.393 . S
C545 C544 1.391 . S
C546 H536 0.950 . S
C546 C547 1.386 . S
C546 C548 1.391 . S
C547 C546 1.386 . S
C547 C551 1.393 . S
C548 H537 0.950 . S
C548 C546 1.391 . S
C548 C549 1.400 . S
C549 C543 1.491 . S
C549 C548 1.400 . S
C549 C550 1.398 . S
C550 H538 0.950 . S
C550 C549 1.398 . S
C550 C551 1.391 . S
C551 H539 0.950 . S
C551 C547 1.393 . S
C551 C550 1.391 . S
H552 C560 0.950 . S
H553 C565 0.950 . S
H554 C562 0.950 . S
H555 C564 0.950 . S
H556 C566 0.950 . S
H557 C568 0.950 . S
H558 C570 0.950 . S
H559 C571 0.950 . S
C560 H552 0.950 . S
C560 C561 1.386 . S
C560 C562 1.391 . S
C561 C560 1.386 . S
C561 C565 1.393 . S
C562 H554 0.950 . S
C562 C560 1.391 . S
C562 C563 1.400 . S
C563 C562 1.400 . S
C563 C564 1.398 . S
C563 C569 1.491 . S
C564 H555 0.950 . S
C564 C563 1.398 . S
C564 C565 1.391 . S
C565 H553 0.950 . S
C565 C561 1.393 . S
C565 C564 1.391 . S
C566 H556 0.950 . S
C566 C567 1.386 . S
C566 C568 1.391 1_556 S
C567 C566 1.386 . S
C567 C571 1.393 . S
C568 H557 0.950 . S
C568 C566 1.391 1_554 S
C568 C569 1.400 . S
C569 C563 1.491 . S
C569 C568 1.400 . S
C569 C570 1.398 . S
C570 H558 0.950 . S
C570 C569 1.398 . S
C570 C571 1.391 1_554 S
C571 H559 0.950 . S
C571 C567 1.393 . S
C571 C570 1.391 1_556 S
H572 C580 0.950 . S
H573 C585 0.950 . S
H574 C582 0.950 . S
H575 C584 0.950 . S
H576 C586 0.950 . S
H577 C588 0.950 . S
H578 C590 0.950 . S
H579 C591 0.950 . S
C580 H572 0.950 . S
C580 C581 1.386 . S
C580 C582 1.391 . S
C581 C580 1.386 . S
C581 C585 1.393 . S
C582 H574 0.950 . S
C582 C580 1.391 . S
C582 C583 1.400 . S
C583 C582 1.400 . S
C583 C584 1.398 . S
C583 C589 1.491 . S
C584 H575 0.950 . S
C584 C583 1.398 . S
C584 C585 1.391 . S
C585 H573 0.950 . S
C585 C581 1.393 . S
C585 C584 1.391 . S
C586 H576 0.950 . S
C586 C587 1.386 . S
C586 C588 1.391 . S
C587 C586 1.386 . S
C587 C591 1.393 . S
C588 H577 0.950 . S
C588 C586 1.391 . S
C588 C589 1.400 . S
C589 C583 1.491 . S
C589 C588 1.400 . S
C589 C590 1.398 . S
C590 H578 0.950 . S
C590 C589 1.398 . S
C590 C591 1.391 . S
C591 H579 0.950 . S
C591 C587 1.393 . S
C591 C590 1.391 . S
H592 C600 0.950 . S
H593 C605 0.950 . S
H594 C602 0.950 . S
H595 C604 0.950 . S
H596 C606 0.950 . S
H597 C608 0.950 . S
H598 C610 0.950 . S
H599 C611 0.950 . S
C600 H592 0.950 . S
C600 C601 1.386 . S
C600 C602 1.391 . S
C601 C600 1.386 . S
C601 C605 1.393 . S
C602 H594 0.950 . S
C602 C600 1.391 . S
C602 C603 1.400 . S
C603 C602 1.400 . S
C603 C604 1.398 . S
C603 C609 1.491 . S
C604 H595 0.950 . S
C604 C603 1.398 . S
C604 C605 1.391 . S
C605 H593 0.950 . S
C605 C601 1.393 . S
C605 C604 1.391 . S
C606 H596 0.950 . S
C606 C607 1.386 . S
C606 C608 1.391 . S
C607 C606 1.386 . S
C607 C611 1.393 1_554 S
C608 H597 0.950 . S
C608 C606 1.391 . S
C608 C609 1.400 1_554 S
C609 C603 1.491 . S
C609 C608 1.400 1_556 S
C609 C610 1.398 . S
C610 H598 0.950 . S
C610 C609 1.398 . S
C610 C611 1.391 . S
C611 H599 0.950 . S
C611 C607 1.393 1_556 S
C611 C610 1.391 . S
H612 C620 0.950 . S
H613 C625 0.950 . S
H614 C622 0.950 . S
H615 C624 0.950 . S
H616 C626 0.950 . S
H617 C628 0.950 . S
H618 C630 0.950 . S
H619 C631 0.950 . S
C620 H612 0.950 . S
C620 C621 1.386 . S
C620 C622 1.391 . S
C621 C620 1.386 . S
C621 C625 1.393 . S
C622 H614 0.950 . S
C622 C620 1.391 . S
C622 C623 1.400 . S
C623 C622 1.400 . S
C623 C624 1.398 . S
C623 C629 1.491 . S
C624 H615 0.950 . S
C624 C623 1.398 . S
C624 C625 1.391 . S
C625 H613 0.950 . S
C625 C621 1.393 . S
C625 C624 1.391 . S
C626 H616 0.950 . S
C626 C627 1.386 . S
C626 C628 1.391 . S
C627 C626 1.386 . S
C627 C631 1.393 . S
C628 H617 0.950 . S
C628 C626 1.391 . S
C628 C629 1.400 . S
C629 C623 1.491 . S
C629 C628 1.400 . S
C629 C630 1.398 . S
C630 H618 0.950 . S
C630 C629 1.398 . S
C630 C631 1.391 . S
C631 H619 0.950 . S
C631 C627 1.393 . S
C631 C630 1.391 . S
H632 C640 0.950 . S
H633 C645 0.950 . S
H634 C642 0.953 . S
H635 C644 0.950 . S
H636 C646 0.950 . S
H637 C648 0.950 . S
H638 C650 0.950 . S
H639 C651 0.950 . S
C640 H632 0.950 . S
C640 C641 1.386 . S
C640 C642 1.398 . S
C641 C640 1.386 . S
C641 C645 1.393 1_556 S
C642 H634 0.953 . S
C642 C640 1.398 . S
C642 C643 1.391 1_556 S
C643 C642 1.391 1_554 S
C643 C644 1.398 . S
C643 C649 1.491 . S
C644 H635 0.950 . S
C644 C643 1.398 . S
C644 C645 1.391 . S
C645 H633 0.950 . S
C645 C641 1.393 1_554 S
C645 C644 1.391 . S
C646 H636 0.950 . S
C646 C647 1.386 . S
C646 C648 1.391 . S
C647 C646 1.386 . S
C647 C651 1.393 . S
C648 H637 0.950 . S
C648 C646 1.391 . S
C648 C649 1.400 . S
C649 C643 1.491 . S
C649 C648 1.400 . S
C649 C650 1.398 . S
C650 H638 0.950 . S
C650 C649 1.398 . S
C650 C651 1.391 . S
C651 H639 0.950 . S
C651 C647 1.393 . S
C651 C650 1.391 . S
H652 C660 0.950 . S
H653 C665 0.950 . S
H654 C662 0.950 . S
H655 C664 0.950 . S
H656 C666 0.950 . S
H657 C668 0.950 . S
H658 C670 0.950 . S
H659 C671 0.950 . S
C660 H652 0.950 . S
C660 C661 1.386 . S
C660 C662 1.391 . S
C661 C660 1.386 . S
C661 C665 1.393 . S
C662 H654 0.950 . S
C662 C660 1.391 . S
C662 C663 1.400 . S
C663 C662 1.400 . S
C663 C664 1.398 . S
C663 C669 1.491 . S
C664 H655 0.950 . S
C664 C663 1.398 . S
C664 C665 1.391 . S
C665 H653 0.950 . S
C665 C661 1.393 . S
C665 C664 1.391 . S
C666 H656 0.950 . S
C666 C667 1.386 . S
C666 C668 1.391 . S
C667 C666 1.386 . S
C667 C671 1.393 . S
C668 H657 0.950 . S
C668 C666 1.391 . S
C668 C669 1.400 . S
C669 C663 1.491 . S
C669 C668 1.400 . S
C669 C670 1.398 . S
C670 H658 0.950 . S
C670 C669 1.398 . S
C670 C671 1.391 . S
C671 H659 0.950 . S
C671 C667 1.393 . S
C671 C670 1.391 . S
C281 C33 1.544 . S
C287 C135 1.543 . S
C301 C67 1.538 . S
C307 C101 1.538 . S
C321 C271 1.545 . S
C327 C169 1.545 . S
C341 C203 1.545 . S
C347 C237 1.544 . S
C361 C70 2.053 . S
C367 C2 2.057 . S
C381 C104 2.054 . S
C387 C36 2.054 . S
C401 C39 1.347 . S
C407 C107 1.338 . S
C421 C5 1.344 . S
C427 C73 1.343 . S
C441 C206 2.055 . S
C447 C138 2.057 . S
C461 C172 2.053 . S
C467 C240 2.056 . S
C481 C175 1.350 . S
C487 C243 1.336 . S
C501 C209 1.336 . S
C507 C141 1.350 . S
C521 C9 1.321 . S
C527 C190 1.349 . S
C541 C43 1.301 . S
C547 C156 1.348 . S
C561 C258 1.348 . S
C567 C77 1.302 . S
C581 C111 1.306 . S
C587 C224 1.347 . S
C601 C54 1.348 . S
C607 C145 1.297 . S
C621 C179 1.323 . S
C627 C20 1.349 . S
C641 C213 1.322 . S
C647 C122 1.348 . S
C661 C247 1.297 . S
C667 C88 1.348 . S
