# Generated by pormake.
# Topology unw, (4)-cn, num edge types: 1
# Building blocks:
#     Node 0, Type 0, BuildingBlock: NAWXER_clean_sbu_0, # of connection points: 4
#     Node 1, Type 0, BuildingBlock: NAWXER_clean_sbu_0, # of connection points: 4
#     Node 2, Type 0, BuildingBlock: NAWXER_clean_sbu_0, # of connection points: 4
#     Node 3, Type 0, BuildingBlock: NAWXER_clean_sbu_0, # of connection points: 4
#     Node 4, Type 0, BuildingBlock: NAWXER_clean_sbu_0, # of connection points: 4
#     Node 5, Type 0, BuildingBlock: NAWXER_clean_sbu_0, # of connection points: 4
#     Node 6, Type 0, BuildingBlock: NAWXER_clean_sbu_0, # of connection points: 4
#     Node 7, Type 0, BuildingBlock: NAWXER_clean_sbu_0, # of connection points: 4
#     Node 8, Type 0, BuildingBlock: NAWXER_clean_sbu_0, # of connection points: 4
#     Node 9, Type 0, BuildingBlock: NAWXER_clean_sbu_0, # of connection points: 4
#     Node 10, Type 0, BuildingBlock: NAWXER_clean_sbu_0, # of connection points: 4
#     Node 11, Type 0, BuildingBlock: NAWXER_clean_sbu_0, # of connection points: 4
#     Node 12, Type 0, BuildingBlock: NAWXER_clean_sbu_0, # of connection points: 4
#     Node 13, Type 0, BuildingBlock: NAWXER_clean_sbu_0, # of connection points: 4
#     Node 14, Type 0, BuildingBlock: NAWXER_clean_sbu_0, # of connection points: 4
#     Node 15, Type 0, BuildingBlock: NAWXER_clean_sbu_0, # of connection points: 4
#     Node 16, Type 0, BuildingBlock: NAWXER_clean_sbu_0, # of connection points: 4
#     Node 17, Type 0, BuildingBlock: NAWXER_clean_sbu_0, # of connection points: 4
#     Node 18, Type 0, BuildingBlock: NAWXER_clean_sbu_0, # of connection points: 4
#     Node 19, Type 0, BuildingBlock: NAWXER_clean_sbu_0, # of connection points: 4
#     Node 20, Type 0, BuildingBlock: NAWXER_clean_sbu_0, # of connection points: 4
#     Node 21, Type 0, BuildingBlock: NAWXER_clean_sbu_0, # of connection points: 4
#     Node 22, Type 0, BuildingBlock: NAWXER_clean_sbu_0, # of connection points: 4
#     Node 23, Type 0, BuildingBlock: NAWXER_clean_sbu_0, # of connection points: 4
#     Edge 24, Type (0, 0), BuildingBlock: KIFKEQ_clean_linker_1, # of connection points: 2
#     Edge 25, Type (0, 0), BuildingBlock: KIFKEQ_clean_linker_1, # of connection points: 2
#     Edge 26, Type (0, 0), BuildingBlock: KIFKEQ_clean_linker_1, # of connection points: 2
#     Edge 27, Type (0, 0), BuildingBlock: KIFKEQ_clean_linker_1, # of connection points: 2
#     Edge 28, Type (0, 0), BuildingBlock: KIFKEQ_clean_linker_1, # of connection points: 2
#     Edge 29, Type (0, 0), BuildingBlock: KIFKEQ_clean_linker_1, # of connection points: 2
#     Edge 30, Type (0, 0), BuildingBlock: KIFKEQ_clean_linker_1, # of connection points: 2
#     Edge 31, Type (0, 0), BuildingBlock: KIFKEQ_clean_linker_1, # of connection points: 2
#     Edge 32, Type (0, 0), BuildingBlock: KIFKEQ_clean_linker_1, # of connection points: 2
#     Edge 33, Type (0, 0), BuildingBlock: KIFKEQ_clean_linker_1, # of connection points: 2
#     Edge 34, Type (0, 0), BuildingBlock: KIFKEQ_clean_linker_1, # of connection points: 2
#     Edge 35, Type (0, 0), BuildingBlock: KIFKEQ_clean_linker_1, # of connection points: 2
#     Edge 36, Type (0, 0), BuildingBlock: KIFKEQ_clean_linker_1, # of connection points: 2
#     Edge 37, Type (0, 0), BuildingBlock: KIFKEQ_clean_linker_1, # of connection points: 2
#     Edge 38, Type (0, 0), BuildingBlock: KIFKEQ_clean_linker_1, # of connection points: 2
#     Edge 39, Type (0, 0), BuildingBlock: KIFKEQ_clean_linker_1, # of connection points: 2
#     Edge 40, Type (0, 0), BuildingBlock: KIFKEQ_clean_linker_1, # of connection points: 2
#     Edge 41, Type (0, 0), BuildingBlock: KIFKEQ_clean_linker_1, # of connection points: 2
#     Edge 42, Type (0, 0), BuildingBlock: KIFKEQ_clean_linker_1, # of connection points: 2
#     Edge 43, Type (0, 0), BuildingBlock: KIFKEQ_clean_linker_1, # of connection points: 2
#     Edge 44, Type (0, 0), BuildingBlock: KIFKEQ_clean_linker_1, # of connection points: 2
#     Edge 45, Type (0, 0), BuildingBlock: KIFKEQ_clean_linker_1, # of connection points: 2
#     Edge 46, Type (0, 0), BuildingBlock: KIFKEQ_clean_linker_1, # of connection points: 2
#     Edge 47, Type (0, 0), BuildingBlock: KIFKEQ_clean_linker_1, # of connection points: 2
#     Edge 48, Type (0, 0), BuildingBlock: KIFKEQ_clean_linker_1, # of connection points: 2
#     Edge 49, Type (0, 0), BuildingBlock: KIFKEQ_clean_linker_1, # of connection points: 2
#     Edge 50, Type (0, 0), BuildingBlock: KIFKEQ_clean_linker_1, # of connection points: 2
#     Edge 51, Type (0, 0), BuildingBlock: KIFKEQ_clean_linker_1, # of connection points: 2
#     Edge 52, Type (0, 0), BuildingBlock: KIFKEQ_clean_linker_1, # of connection points: 2
#     Edge 53, Type (0, 0), BuildingBlock: KIFKEQ_clean_linker_1, # of connection points: 2
#     Edge 54, Type (0, 0), BuildingBlock: KIFKEQ_clean_linker_1, # of connection points: 2
#     Edge 55, Type (0, 0), BuildingBlock: KIFKEQ_clean_linker_1, # of connection points: 2
#     Edge 56, Type (0, 0), BuildingBlock: KIFKEQ_clean_linker_1, # of connection points: 2
#     Edge 57, Type (0, 0), BuildingBlock: KIFKEQ_clean_linker_1, # of connection points: 2
#     Edge 58, Type (0, 0), BuildingBlock: KIFKEQ_clean_linker_1, # of connection points: 2
#     Edge 59, Type (0, 0), BuildingBlock: KIFKEQ_clean_linker_1, # of connection points: 2
#     Edge 60, Type (0, 0), BuildingBlock: KIFKEQ_clean_linker_1, # of connection points: 2
#     Edge 61, Type (0, 0), BuildingBlock: KIFKEQ_clean_linker_1, # of connection points: 2
#     Edge 62, Type (0, 0), BuildingBlock: KIFKEQ_clean_linker_1, # of connection points: 2
#     Edge 63, Type (0, 0), BuildingBlock: KIFKEQ_clean_linker_1, # of connection points: 2
#     Edge 64, Type (0, 0), BuildingBlock: KIFKEQ_clean_linker_1, # of connection points: 2
#     Edge 65, Type (0, 0), BuildingBlock: KIFKEQ_clean_linker_1, # of connection points: 2
#     Edge 66, Type (0, 0), BuildingBlock: KIFKEQ_clean_linker_1, # of connection points: 2
#     Edge 67, Type (0, 0), BuildingBlock: KIFKEQ_clean_linker_1, # of connection points: 2
#     Edge 68, Type (0, 0), BuildingBlock: KIFKEQ_clean_linker_1, # of connection points: 2
#     Edge 69, Type (0, 0), BuildingBlock: KIFKEQ_clean_linker_1, # of connection points: 2
#     Edge 70, Type (0, 0), BuildingBlock: KIFKEQ_clean_linker_1, # of connection points: 2
#     Edge 71, Type (0, 0), BuildingBlock: KIFKEQ_clean_linker_1, # of connection points: 2
# Relax obj value: 0.404
# Max RMSD: 0.268
# Mean RMSD: 0.268
data_MOF--net-unw--node1-NAWXER_clean_sbu_0--edge1-KIFKEQ_clean_linker_1
_symmetry_space_group_name_H-M    P1
_symmetry_Int_Tables_number       1
_symmetry_cell_setting            triclinic
loop_
_symmetry_equiv_pos_as_xyz
'x, y, z'
_cell_length_a     47.443824
_cell_length_b     47.367781
_cell_length_c     47.452622
_cell_angle_alpha  90.030943
_cell_angle_beta   89.969308
_cell_angle_gamma 89.994105
loop_
_atom_site_label
_atom_site_type_symbol
_atom_site_fract_x
_atom_site_fract_y
_atom_site_fract_z
_atom_type_partial_charge
C0 C 0.20591 0.41529 0.27709 0.0
C1 C 0.10597 0.39928 0.29943 0.0
O2 O 0.19136 0.40442 0.25723 0.0
Zn3 Zn 0.14951 0.39178 0.24798 0.0
O4 O 0.19397 0.42316 0.29988 0.0
Zn5 Zn 0.15576 0.41247 0.28768 0.0
O6 O 0.16418 0.36784 0.28712 0.0
O7 O 0.15872 0.35156 0.24376 0.0
O8 O 0.12316 0.41466 0.31311 0.0
O9 O 0.11322 0.39013 0.275 0.0
O10 O 0.14159 0.41583 0.21534 0.0
O11 O 0.14937 0.44152 0.2532 0.0
C12 C 0.16545 0.34746 0.26946 0.0
C13 C 0.14484 0.44001 0.22656 0.0
C14 C 0.63156 0.20189 0.28721 0.0
C15 C 0.64037 0.10151 0.31325 0.0
O16 O 0.63729 0.18535 0.26671 0.0
Zn17 Zn 0.64376 0.14142 0.25838 0.0
O18 O 0.62629 0.19178 0.31158 0.0
Zn19 Zn 0.63044 0.15204 0.30012 0.0
O20 O 0.6746 0.15558 0.29209 0.0
O21 O 0.68319 0.14662 0.24712 0.0
O22 O 0.62885 0.12107 0.32755 0.0
O23 O 0.64645 0.10628 0.28729 0.0
O24 O 0.61419 0.13475 0.23022 0.0
O25 O 0.5962 0.14864 0.27064 0.0
C26 C 0.69184 0.15423 0.27141 0.0
C27 C 0.59289 0.14268 0.24446 0.0
C28 C 0.92781 0.66643 0.28967 0.0
C29 C 0.84865 0.68643 0.22858 0.0
O30 O 0.92583 0.67686 0.26527 0.0
Zn31 Zn 0.88651 0.67092 0.25727 0.0
O32 O 0.90628 0.65342 0.2997 0.0
Zn33 Zn 0.86413 0.64492 0.28231 0.0
O34 O 0.86145 0.60522 0.27325 0.0
O35 O 0.87992 0.62908 0.23833 0.0
O36 O 0.84072 0.66865 0.24772 0.0
O37 O 0.87441 0.69337 0.22689 0.0
O38 O 0.86178 0.69092 0.29255 0.0
O39 O 0.84168 0.65458 0.31382 0.0
C40 C 0.86993 0.60583 0.24802 0.0
C41 C 0.84557 0.681 0.31206 0.0
C42 C 0.32997 0.87405 0.26337 0.0
C43 C 0.42639 0.88115 0.22297 0.0
O44 O 0.35049 0.87091 0.28039 0.0
Zn45 Zn 0.3948 0.87085 0.28218 0.0
O46 O 0.33474 0.88124 0.23783 0.0
Zn47 Zn 0.37652 0.88403 0.24179 0.0
O48 O 0.38119 0.84046 0.24747 0.0
O49 O 0.39666 0.82954 0.28999 0.0
O50 O 0.40399 0.8896 0.21075 0.0
O51 O 0.42523 0.87471 0.2492 0.0
O52 O 0.4005 0.90151 0.31003 0.0
O53 O 0.38018 0.91761 0.27156 0.0
C54 C 0.38786 0.8219 0.26569 0.0
C55 C 0.3888 0.9218 0.29683 0.0
C56 C 0.15365 0.68753 0.75032 0.0
C57 C 0.14176 0.59366 0.79445 0.0
O58 O 0.15552 0.66645 0.73364 0.0
Zn59 Zn 0.15294 0.62173 0.73366 0.0
O60 O 0.14661 0.68365 0.776 0.0
Zn61 Zn 0.1424 0.64216 0.77298 0.0
O62 O 0.18589 0.63458 0.76609 0.0
O63 O 0.19309 0.6157 0.72411 0.0
O64 O 0.13615 0.61747 0.80561 0.0
O65 O 0.14737 0.5926 0.768 0.0
O66 O 0.12206 0.61651 0.7066 0.0
O67 O 0.10694 0.6383 0.74476 0.0
C68 C 0.20277 0.62532 0.7473 0.0
C69 C 0.10217 0.62875 0.71987 0.0
C70 C 0.33397 0.13608 0.76183 0.0
C71 C 0.43222 0.13217 0.79681 0.0
O72 O 0.35329 0.1448 0.74543 0.0
Zn73 Zn 0.39652 0.15054 0.74217 0.0
O74 O 0.34043 0.12448 0.78528 0.0
Zn75 Zn 0.38207 0.12738 0.78 0.0
O76 O 0.38178 0.17147 0.78316 0.0
O77 O 0.3934 0.19274 0.74343 0.0
O78 O 0.41156 0.11942 0.8084 0.0
O79 O 0.42878 0.14322 0.77239 0.0
O80 O 0.40346 0.12663 0.70874 0.0
O81 O 0.38901 0.10069 0.74453 0.0
C82 C 0.38524 0.1941 0.76909 0.0
C83 C 0.39631 0.10261 0.71858 0.0
C84 C 0.88138 0.34916 0.73581 0.0
C85 C 0.8902 0.4337 0.79459 0.0
O86 O 0.87255 0.37399 0.73049 0.0
Zn87 Zn 0.88991 0.39144 0.7628 0.0
O88 O 0.89677 0.34483 0.75769 0.0
Zn89 Zn 0.91292 0.36988 0.79319 0.0
O90 O 0.89618 0.3483 0.82345 0.0
O91 O 0.86548 0.36855 0.79481 0.0
O92 O 0.90208 0.41241 0.80637 0.0
O93 O 0.88218 0.43141 0.76922 0.0
O94 O 0.93387 0.38632 0.75113 0.0
O95 O 0.95349 0.36684 0.78818 0.0
C96 C 0.87074 0.35256 0.81608 0.0
C97 C 0.95577 0.37592 0.76312 0.0
C98 C 0.63832 0.9204 0.72159 0.0
C99 C 0.6457 0.82708 0.76898 0.0
O100 O 0.6458 0.92113 0.74752 0.0
Zn101 Zn 0.65246 0.89291 0.78176 0.0
O102 O 0.63008 0.89708 0.7109 0.0
Zn103 Zn 0.63577 0.87165 0.74344 0.0
O104 O 0.6041 0.88014 0.77416 0.0
O105 O 0.62379 0.90053 0.81106 0.0
O106 O 0.63685 0.82933 0.74362 0.0
O107 O 0.65077 0.84915 0.78337 0.0
O108 O 0.69461 0.89422 0.78541 0.0
O109 O 0.67929 0.87546 0.74564 0.0
C110 C 0.60199 0.89018 0.79916 0.0
C111 C 0.6996 0.8831 0.76135 0.0
C112 C 0.26291 0.19168 0.37304 0.0
C113 C 0.29797 0.09434 0.38359 0.0
O114 O 0.24353 0.17291 0.37317 0.0
Zn115 Zn 0.23924 0.12805 0.3775 0.0
O116 O 0.28824 0.1848 0.37888 0.0
Zn117 Zn 0.28068 0.14443 0.38492 0.0
O118 O 0.26969 0.13682 0.34208 0.0
O119 O 0.22541 0.12243 0.33881 0.0
O120 O 0.3113 0.11678 0.38991 0.0
O121 O 0.27129 0.09587 0.37934 0.0
O122 O 0.21436 0.12455 0.41045 0.0
O123 O 0.25437 0.14501 0.42188 0.0
C124 C 0.24862 0.12937 0.32708 0.0
C125 C 0.22942 0.13706 0.42877 0.0
C126 C 0.93381 0.30399 0.38168 0.0
C127 C 0.83831 0.26956 0.36213 0.0
O128 O 0.93281 0.27728 0.3772 0.0
Zn129 Zn 0.901 0.24533 0.37207 0.0
O130 O 0.91092 0.31721 0.38624 0.0
Zn131 Zn 0.884 0.28684 0.37819 0.0
O132 O 0.87867 0.25989 0.41418 0.0
O133 O 0.90024 0.21991 0.40464 0.0
O134 O 0.8445 0.29494 0.36868 0.0
O135 O 0.857 0.25017 0.3635 0.0
O136 O 0.91026 0.23155 0.33416 0.0
O137 O 0.89582 0.27597 0.33621 0.0
C138 C 0.88524 0.23461 0.42133 0.0
C139 C 0.9047 0.25488 0.32194 0.0
C140 C 0.80194 0.88443 0.43904 0.0
C141 C 0.7515 0.86457 0.35028 0.0
O142 O 0.7753 0.88116 0.44247 0.0
Zn143 Zn 0.73863 0.87611 0.41612 0.0
O144 O 0.81153 0.88767 0.41418 0.0
Zn145 Zn 0.77695 0.88139 0.39233 0.0
O146 O 0.75116 0.91859 0.39244 0.0
O147 O 0.71427 0.90976 0.41905 0.0
O148 O 0.77734 0.87197 0.35176 0.0
O149 O 0.73591 0.86659 0.37219 0.0
O150 O 0.72645 0.838 0.42792 0.0
O151 O 0.76761 0.83973 0.40598 0.0
C152 C 0.7275 0.92658 0.40285 0.0
C153 C 0.7484 0.82557 0.41842 0.0
C154 C 0.20319 0.76483 0.38208 0.0
C155 C 0.10201 0.73824 0.38754 0.0
O156 O 0.18511 0.78322 0.3747 0.0
Zn157 Zn 0.14207 0.79039 0.3704 0.0
O158 O 0.19502 0.74151 0.39294 0.0
Zn159 Zn 0.15381 0.75023 0.39173 0.0
O160 O 0.15276 0.74883 0.34801 0.0
O161 O 0.14425 0.78995 0.32796 0.0
O162 O 0.12185 0.72421 0.39909 0.0
O163 O 0.10743 0.76277 0.37748 0.0
O164 O 0.1384 0.82332 0.39626 0.0
O165 O 0.15085 0.78512 0.4196 0.0
C166 C 0.15005 0.76364 0.32584 0.0
C167 C 0.14566 0.81168 0.4194 0.0
C168 C 0.25336 0.84638 0.65122 0.0
C169 C 0.30584 0.93456 0.63128 0.0
O170 O 0.23869 0.86902 0.65064 0.0
Zn171 Zn 0.24259 0.9131 0.64343 0.0
O172 O 0.27935 0.84724 0.64427 0.0
Zn173 Zn 0.28046 0.88816 0.63579 0.0
O174 O 0.27407 0.90153 0.67752 0.0
O175 O 0.23393 0.92465 0.68285 0.0
O176 O 0.31521 0.90954 0.62804 0.0
O177 O 0.27945 0.93818 0.63592 0.0
O178 O 0.21706 0.91805 0.61082 0.0
O179 O 0.25327 0.8911 0.59995 0.0
C180 C 0.25659 0.9145 0.69329 0.0
C181 C 0.22972 0.90244 0.59297 0.0
C182 C 0.15406 0.22243 0.60962 0.0
C183 C 0.16337 0.25555 0.7085 0.0
O184 O 0.16206 0.24811 0.6127 0.0
Zn185 Zn 0.16845 0.27841 0.64525 0.0
O186 O 0.14526 0.20887 0.63112 0.0
Zn187 Zn 0.15283 0.23734 0.66075 0.0
O188 O 0.12135 0.26917 0.65917 0.0
O189 O 0.13957 0.3085 0.64239 0.0
O190 O 0.15474 0.23071 0.70234 0.0
O191 O 0.16798 0.27339 0.689 0.0
O192 O 0.21015 0.2835 0.64381 0.0
O193 O 0.19654 0.24069 0.65631 0.0
C194 C 0.11861 0.29535 0.65295 0.0
C195 C 0.2162 0.25815 0.65084 0.0
C196 C 0.70947 0.17408 0.66048 0.0
C197 C 0.76496 0.15185 0.57715 0.0
O198 O 0.70282 0.17847 0.63488 0.0
Zn199 Zn 0.73342 0.15686 0.61887 0.0
O200 O 0.73052 0.15798 0.66625 0.0
Zn201 Zn 0.76312 0.13518 0.64271 0.0
O202 O 0.79504 0.15243 0.66108 0.0
O203 O 0.76869 0.18169 0.63602 0.0
O204 O 0.77619 0.14112 0.59928 0.0
O205 O 0.73965 0.16045 0.57852 0.0
O206 O 0.71992 0.11421 0.62882 0.0
O207 O 0.75643 0.09509 0.64973 0.0
C208 C 0.79019 0.17724 0.65189 0.0
C209 C 0.73134 0.09281 0.64086 0.0
C210 C 0.88929 0.76235 0.70485 0.0
C211 C 0.89684 0.79843 0.60709 0.0
O212 O 0.88165 0.7458 0.68516 0.0
Zn213 Zn 0.8782 0.74283 0.6414 0.0
O214 O 0.9011 0.78584 0.69887 0.0
Zn215 Zn 0.90016 0.78064 0.65719 0.0
O216 O 0.85626 0.78322 0.65557 0.0
O217 O 0.83585 0.74342 0.64257 0.0
O218 O 0.90821 0.80977 0.62866 0.0
O219 O 0.88631 0.77357 0.60925 0.0
O220 O 0.90283 0.70964 0.63547 0.0
O221 O 0.92788 0.74568 0.65093 0.0
C222 C 0.83396 0.76904 0.65092 0.0
C223 C 0.92645 0.71971 0.64345 0.0
C224 C 0.34781 0.23041 0.17716 0.0
C225 C 0.37236 0.28995 0.09836 0.0
O226 O 0.34288 0.22758 0.15104 0.0
Zn227 Zn 0.3662 0.25767 0.13938 0.0
O228 O 0.36521 0.24964 0.18557 0.0
Zn229 Zn 0.39052 0.28324 0.16305 0.0
O230 O 0.37977 0.31509 0.18441 0.0
O231 O 0.34476 0.29345 0.16242 0.0
O232 O 0.38409 0.30024 0.12049 0.0
O233 O 0.36232 0.2653 0.09977 0.0
O234 O 0.40759 0.23886 0.14817 0.0
O235 O 0.4295 0.27383 0.16869 0.0
C236 C 0.35367 0.31316 0.17902 0.0
C237 C 0.42984 0.24858 0.16013 0.0
C238 C 0.35194 0.73139 0.84531 0.0
C239 C 0.42793 0.79513 0.87085 0.0
O240 O 0.37822 0.72954 0.84065 0.0
Zn241 Zn 0.38881 0.7608 0.8638 0.0
O242 O 0.34272 0.7506 0.86227 0.0
Zn243 Zn 0.3628 0.78532 0.88711 0.0
O244 O 0.33953 0.81529 0.87526 0.0
O245 O 0.36532 0.79602 0.8415 0.0
O246 O 0.40468 0.80442 0.88123 0.0
O247 O 0.4285 0.77026 0.86116 0.0
O248 O 0.38083 0.74271 0.90583 0.0
O249 O 0.35711 0.77655 0.92623 0.0
C250 C 0.34676 0.81437 0.84954 0.0
C251 C 0.36792 0.75223 0.92767 0.0
C252 C 0.22174 0.42035 0.88535 0.0
C253 C 0.26847 0.32635 0.88117 0.0
O254 O 0.24819 0.42094 0.87978 0.0
Zn255 Zn 0.28276 0.39233 0.87631 0.0
O256 O 0.21039 0.39704 0.89254 0.0
Zn257 Zn 0.24306 0.37151 0.88877 0.0
O258 O 0.27133 0.37869 0.92291 0.0
O259 O 0.30955 0.40003 0.90728 0.0
O260 O 0.24238 0.32919 0.88739 0.0
O261 O 0.28379 0.34817 0.87792 0.0
O262 O 0.29132 0.39304 0.83518 0.0
O263 O 0.24963 0.37518 0.84559 0.0
C264 C 0.29602 0.38869 0.92757 0.0
C265 C 0.26795 0.38216 0.82731 0.0
C266 C 0.6989 0.25533 0.88703 0.0
C267 C 0.60085 0.22135 0.88972 0.0
O268 O 0.68046 0.27472 0.88342 0.0
Zn269 Zn 0.63548 0.2795 0.88229 0.0
O270 O 0.69109 0.23009 0.89211 0.0
Zn271 Zn 0.65058 0.2382 0.8925 0.0
O272 O 0.64571 0.24708 0.84853 0.0
O273 O 0.6319 0.29135 0.84289 0.0
O274 O 0.62273 0.20798 0.89758 0.0
O275 O 0.60294 0.24783 0.88433 0.0
O276 O 0.62962 0.30632 0.91321 0.0
O277 O 0.64794 0.26633 0.92805 0.0
C278 C 0.63881 0.26757 0.83239 0.0
C279 C 0.64024 0.29182 0.9331 0.0
C280 C 0.76052 0.70014 0.88437 0.0
C281 C 0.8051 0.60525 0.88572 0.0
O282 O 0.7458 0.67907 0.87667 0.0
Zn283 Zn 0.74644 0.63547 0.87104 0.0
O284 O 0.78548 0.69635 0.89383 0.0
Zn285 Zn 0.78425 0.65415 0.89071 0.0
O286 O 0.78369 0.6547 0.84668 0.0
O287 O 0.7439 0.63811 0.82915 0.0
O288 O 0.81584 0.6276 0.89616 0.0
O289 O 0.7796 0.60576 0.87683 0.0
O290 O 0.71546 0.62636 0.89722 0.0
O291 O 0.75159 0.64443 0.92028 0.0
C292 C 0.76813 0.64934 0.82552 0.0
C293 C 0.72623 0.63502 0.92029 0.0
C294 C 0.70035 0.77575 0.11654 0.0
C295 C 0.59908 0.79794 0.12798 0.0
O296 O 0.6853 0.75637 0.12759 0.0
Zn297 Zn 0.64309 0.74741 0.13906 0.0
O298 O 0.68871 0.79811 0.10698 0.0
Zn299 Zn 0.64976 0.78644 0.11634 0.0
O300 O 0.65708 0.78803 0.16055 0.0
O301 O 0.65089 0.74626 0.1801 0.0
O302 O 0.61657 0.81144 0.11273 0.0
O303 O 0.60647 0.77391 0.13805 0.0
O304 O 0.63697 0.71354 0.11583 0.0
O305 O 0.64484 0.75062 0.08897 0.0
C306 C 0.65817 0.77214 0.18229 0.0
C307 C 0.64089 0.72393 0.09138 0.0
C308 C 0.26029 0.64672 0.1979 0.0
C309 C 0.29401 0.65055 0.09851 0.0
O310 O 0.24375 0.65589 0.17897 0.0
Zn311 Zn 0.23959 0.6642 0.13641 0.0
O312 O 0.28458 0.63715 0.19105 0.0
Zn313 Zn 0.27919 0.64276 0.14926 0.0
O314 O 0.27951 0.68682 0.1525 0.0
O315 O 0.23826 0.70582 0.14227 0.0
O316 O 0.30722 0.63815 0.1184 0.0
O317 O 0.2691 0.65991 0.10319 0.0
O318 O 0.2074 0.63877 0.12941 0.0
O319 O 0.24509 0.61437 0.14164 0.0
C320 C 0.26375 0.70849 0.15057 0.0
C321 C 0.21882 0.61511 0.13531 0.0
C322 C 0.74095 0.37553 0.10002 0.0
C323 C 0.8048 0.35645 0.17631 0.0
O324 O 0.76634 0.36758 0.10058 0.0
Zn325 Zn 0.77502 0.37244 0.13973 0.0
O326 O 0.73057 0.38675 0.12238 0.0
Zn327 Zn 0.74875 0.39551 0.16404 0.0
O328 O 0.7558 0.43574 0.16803 0.0
O329 O 0.79142 0.41481 0.14748 0.0
O330 O 0.78489 0.37272 0.18541 0.0
O331 O 0.80696 0.35143 0.15014 0.0
O332 O 0.74206 0.34887 0.16452 0.0
O333 O 0.71882 0.38246 0.18716 0.0
C334 C 0.78074 0.437 0.15873 0.0
C335 C 0.72261 0.35643 0.18203 0.0
H336 H 0.16467 0.61118 0.15533 0.0
H337 H 0.23524 0.56032 0.12868 0.0
H338 H 0.14157 0.5689 0.17429 0.0
H339 H 0.21204 0.51815 0.14708 0.0
H340 H 0.15629 0.4435 0.16991 0.0
H341 H 0.16957 0.48555 0.14303 0.0
H342 H 0.15436 0.53738 0.21624 0.0
H343 H 0.14149 0.49537 0.24325 0.0
C344 C 0.17481 0.59087 0.15261 0.0
C345 C 0.20174 0.58915 0.14028 0.0
C346 C 0.16172 0.56667 0.16379 0.0
C347 C 0.17498 0.54008 0.16237 0.0
C348 C 0.20107 0.53817 0.14838 0.0
C349 C 0.21439 0.56238 0.13778 0.0
C350 C 0.15515 0.46391 0.18014 0.0
C351 C 0.1478 0.46594 0.20883 0.0
C352 C 0.16299 0.48803 0.16475 0.0
C353 C 0.16316 0.5149 0.17745 0.0
C354 C 0.15426 0.51711 0.20568 0.0
C355 C 0.14693 0.49296 0.22121 0.0
H356 H 0.5787 0.13877 0.18799 0.0
H357 H 0.54601 0.16572 0.26865 0.0
H358 H 0.53834 0.16128 0.16448 0.0
H359 H 0.50649 0.18842 0.24512 0.0
H360 H 0.47644 0.26348 0.19009 0.0
H361 H 0.51338 0.23322 0.20856 0.0
H362 H 0.47689 0.16153 0.16618 0.0
H363 H 0.43885 0.19192 0.14788 0.0
C364 C 0.56266 0.1488 0.20078 0.0
C365 C 0.56584 0.1505 0.23029 0.0
C366 C 0.53958 0.16172 0.18727 0.0
C367 C 0.51947 0.17684 0.20297 0.0
C368 C 0.52178 0.17708 0.23247 0.0
C369 C 0.54447 0.16392 0.24595 0.0
C370 C 0.47622 0.24136 0.1843 0.0
C371 C 0.45439 0.23022 0.16752 0.0
C372 C 0.49744 0.22399 0.19506 0.0
C373 C 0.49787 0.19499 0.18907 0.0
C374 C 0.47702 0.18384 0.17115 0.0
C375 C 0.4553 0.20126 0.16065 0.0
H376 H 0.76268 0.49166 0.1625 0.0
H377 H 0.83749 0.44029 0.16903 0.0
H378 H 0.78922 0.53269 0.17929 0.0
H379 H 0.86383 0.48124 0.18676 0.0
H380 H 0.8726 0.55016 0.26231 0.0
H381 H 0.855 0.50976 0.23537 0.0
H382 H 0.83453 0.56499 0.16612 0.0
H383 H 0.85312 0.60542 0.19278 0.0
C384 C 0.78493 0.48925 0.16702 0.0
C385 C 0.79798 0.46271 0.16429 0.0
C386 C 0.80014 0.51278 0.17658 0.0
C387 C 0.82861 0.5102 0.18439 0.0
C388 C 0.84193 0.48388 0.18088 0.0
C389 C 0.82688 0.46048 0.17056 0.0
C390 C 0.86513 0.55356 0.24101 0.0
C391 C 0.86448 0.58097 0.22961 0.0
C392 C 0.85505 0.53042 0.22558 0.0
C393 C 0.8433 0.53418 0.19865 0.0
C394 C 0.84348 0.56144 0.18682 0.0
C395 C 0.85433 0.58453 0.20198 0.0
H396 H 0.57531 0.84927 0.11267 0.0
H397 H 0.56114 0.77642 0.16552 0.0
H398 H 0.53361 0.87219 0.13345 0.0
H399 H 0.52022 0.79932 0.1862 0.0
H400 H 0.47596 0.86103 0.24399 0.0
H401 H 0.51617 0.84231 0.21843 0.0
H402 H 0.47776 0.86616 0.13963 0.0
H403 H 0.43672 0.88483 0.16539 0.0
C404 C 0.56318 0.83796 0.12837 0.0
C405 C 0.57183 0.81094 0.1374 0.0
C406 C 0.53928 0.85113 0.14027 0.0
C407 C 0.52378 0.83777 0.1618 0.0
C408 C 0.53189 0.81043 0.17001 0.0
C409 C 0.55537 0.7972 0.15794 0.0
C410 C 0.476 0.86274 0.22123 0.0
C411 C 0.45276 0.8744 0.20687 0.0
C412 C 0.49913 0.85177 0.20653 0.0
C413 C 0.50008 0.85229 0.17693 0.0
C414 C 0.47769 0.86537 0.16244 0.0
C415 C 0.45418 0.87613 0.17723 0.0
H416 H 0.23822 0.47541 0.88903 0.0
H417 H 0.16709 0.42343 0.86639 0.0
H418 H 0.21385 0.51703 0.87082 0.0
H419 H 0.14287 0.46515 0.8475 0.0
H420 H 0.13967 0.53835 0.77774 0.0
H421 H 0.15441 0.49665 0.80431 0.0
H422 H 0.1701 0.54879 0.87718 0.0
H423 H 0.15478 0.59052 0.85076 0.0
C424 C 0.21709 0.47296 0.88072 0.0
C425 C 0.20458 0.44606 0.87934 0.0
C426 C 0.2031 0.49686 0.87028 0.0
C427 C 0.17643 0.49447 0.85756 0.0
C428 C 0.16343 0.46772 0.85706 0.0
C429 C 0.1772 0.44385 0.86813 0.0
C430 C 0.14561 0.54086 0.79964 0.0
C431 C 0.14594 0.56786 0.81208 0.0
C432 C 0.15401 0.51691 0.8149 0.0
C433 C 0.16358 0.51934 0.84287 0.0
C434 C 0.16297 0.54618 0.85565 0.0
C435 C 0.15398 0.57008 0.84055 0.0
H436 H 0.58759 0.16483 0.89688 0.0
H437 H 0.55403 0.24316 0.86447 0.0
H438 H 0.54697 0.13941 0.87695 0.0
H439 H 0.51428 0.21774 0.84437 0.0
H440 H 0.4788 0.1588 0.77646 0.0
H441 H 0.51819 0.1782 0.80274 0.0
H442 H 0.48629 0.14075 0.87911 0.0
H443 H 0.44584 0.12152 0.85277 0.0
C444 C 0.57139 0.17672 0.88604 0.0
C445 C 0.57428 0.20612 0.88226 0.0
C446 C 0.54816 0.16212 0.87464 0.0
C447 C 0.52763 0.17657 0.85887 0.0
C448 C 0.52988 0.20602 0.85623 0.0
C449 C 0.5527 0.22059 0.86791 0.0
C450 C 0.48015 0.1542 0.79877 0.0
C451 C 0.45881 0.13869 0.81244 0.0
C452 C 0.50279 0.16549 0.81385 0.0
C453 C 0.50513 0.16133 0.84302 0.0
C454 C 0.48495 0.14431 0.85661 0.0
C455 C 0.46186 0.13324 0.84149 0.0
H456 H 0.85951 0.60306 0.86654 0.0
H457 H 0.78903 0.55006 0.88877 0.0
H458 H 0.88388 0.56192 0.84639 0.0
H459 H 0.81382 0.50887 0.86967 0.0
H460 H 0.88089 0.43842 0.85139 0.0
H461 H 0.8636 0.47976 0.87739 0.0
H462 H 0.86656 0.52914 0.80117 0.0
H463 H 0.88288 0.48763 0.77491 0.0
C464 C 0.84966 0.58249 0.86803 0.0
C465 C 0.82244 0.57978 0.87952 0.0
C466 C 0.86349 0.559 0.85625 0.0
C467 C 0.85075 0.53216 0.85643 0.0
C468 C 0.82426 0.52921 0.86938 0.0
C469 C 0.8101 0.55278 0.88039 0.0
C470 C 0.87828 0.4582 0.84025 0.0
C471 C 0.88332 0.45968 0.81104 0.0
C472 C 0.86825 0.48182 0.85514 0.0
C473 C 0.86381 0.50772 0.84135 0.0
C474 C 0.87001 0.50955 0.81242 0.0
C475 C 0.87928 0.48574 0.79738 0.0
H476 H 0.54814 0.89232 0.7791 0.0
H477 H 0.5958 0.87375 0.85418 0.0
H478 H 0.50555 0.87343 0.80137 0.0
H479 H 0.55329 0.85391 0.87614 0.0
H480 H 0.48329 0.77956 0.87241 0.0
H481 H 0.52458 0.80782 0.85971 0.0
H482 H 0.47112 0.88017 0.84618 0.0
H483 H 0.42974 0.85205 0.85988 0.0
C484 C 0.54934 0.8849 0.80066 0.0
C485 C 0.57533 0.88489 0.81497 0.0
C486 C 0.52493 0.87402 0.8134 0.0
C487 C 0.52602 0.86206 0.8405 0.0
C488 C 0.55176 0.86298 0.85525 0.0
C489 C 0.57605 0.87461 0.84278 0.0
C490 C 0.4804 0.80168 0.8674 0.0
C491 C 0.4532 0.81357 0.86735 0.0
C492 C 0.50408 0.8179 0.86017 0.0
C493 C 0.50117 0.84626 0.85192 0.0
C494 C 0.47406 0.85839 0.85248 0.0
C495 C 0.4504 0.84234 0.8605 0.0
H496 H 0.17359 0.2466 0.5613 0.0
H497 H 0.14798 0.16591 0.59512 0.0
H498 H 0.19051 0.22353 0.51885 0.0
H499 H 0.16482 0.14272 0.55183 0.0
H500 H 0.17825 0.1223 0.45269 0.0
H501 H 0.1572 0.141 0.49624 0.0
H502 H 0.23214 0.19032 0.5111 0.0
H503 H 0.2532 0.17165 0.46821 0.0
C504 C 0.17111 0.22394 0.55959 0.0
C505 C 0.15949 0.20819 0.58195 0.0
C506 C 0.18104 0.21067 0.53519 0.0
C507 C 0.17948 0.18122 0.53208 0.0
C508 C 0.1664 0.16546 0.5536 0.0
C509 C 0.15667 0.17878 0.57838 0.0
C510 C 0.19038 0.13682 0.46547 0.0
C511 C 0.21746 0.14547 0.45674 0.0
C512 C 0.17831 0.1475 0.49044 0.0
C513 C 0.19283 0.16744 0.50698 0.0
C514 C 0.22018 0.17533 0.49867 0.0
C515 C 0.23236 0.16442 0.47408 0.0
H516 H 0.82077 0.13884 0.56779 0.0
H517 H 0.74987 0.18177 0.53011 0.0
H518 H 0.85164 0.15762 0.53093 0.0
H519 H 0.78067 0.20045 0.49348 0.0
H520 H 0.84724 0.25897 0.45717 0.0
H521 H 0.81889 0.2363 0.49337 0.0
H522 H 0.86222 0.15758 0.47855 0.0
H523 H 0.89081 0.18033 0.44195 0.0
C524 C 0.81161 0.1518 0.55138 0.0
C525 C 0.78274 0.1588 0.55209 0.0
C526 C 0.82937 0.16262 0.53025 0.0
C527 C 0.81877 0.18096 0.50948 0.0
C528 C 0.78968 0.18685 0.50946 0.0
C529 C 0.77193 0.17586 0.53036 0.0
C530 C 0.85113 0.23691 0.46178 0.0
C531 C 0.87141 0.22155 0.44646 0.0
C532 C 0.83457 0.22381 0.48241 0.0
C533 C 0.83788 0.19496 0.48859 0.0
C534 C 0.85907 0.17982 0.4743 0.0
C535 C 0.87552 0.19291 0.45336 0.0
H536 H 0.85608 0.86412 0.43786 0.0
H537 H 0.79088 0.89083 0.49543 0.0
H538 H 0.88374 0.84613 0.47761 0.0
H539 H 0.81894 0.87356 0.53516 0.0
H540 H 0.89062 0.77855 0.55335 0.0
H541 H 0.87199 0.80379 0.5124 0.0
H542 H 0.86835 0.88056 0.56112 0.0
H543 H 0.88782 0.85546 0.60198 0.0
C544 C 0.84801 0.86698 0.45902 0.0
C545 C 0.82124 0.87909 0.46337 0.0
C546 C 0.86379 0.85643 0.48179 0.0
C547 C 0.85355 0.85835 0.50957 0.0
C548 C 0.82755 0.87193 0.51407 0.0
C549 C 0.81147 0.88185 0.49127 0.0
C550 C 0.88664 0.801 0.55512 0.0
C551 C 0.89101 0.81499 0.58094 0.0
C552 C 0.87591 0.81546 0.53164 0.0
C553 C 0.86857 0.84418 0.53349 0.0
C554 C 0.87375 0.85844 0.55901 0.0
C555 C 0.88518 0.84411 0.58234 0.0
H556 H 0.15994 0.79106 0.47098 0.0
H557 H 0.14704 0.86997 0.4272 0.0
H558 H 0.17869 0.81638 0.51127 0.0
H559 H 0.1656 0.89555 0.46851 0.0
H560 H 0.17915 0.92054 0.5695 0.0
H561 H 0.1557 0.90175 0.5271 0.0
H562 H 0.22626 0.84625 0.51275 0.0
H563 H 0.24976 0.86499 0.5542 0.0
C564 C 0.1606 0.81389 0.47002 0.0
C565 C 0.15211 0.82834 0.44549 0.0
C566 C 0.17149 0.82841 0.49323 0.0
C567 C 0.17399 0.85794 0.493 0.0
C568 C 0.16395 0.87277 0.4693 0.0
C569 C 0.15327 0.8581 0.44568 0.0
C570 C 0.18986 0.9047 0.557 0.0
C571 C 0.21638 0.89427 0.56552 0.0
C572 C 0.17641 0.89397 0.53271 0.0
C573 C 0.18901 0.87231 0.51674 0.0
C574 C 0.21586 0.86272 0.52473 0.0
C575 C 0.22939 0.87361 0.54856 0.0
H576 H 0.63082 0.97579 0.73539 0.0
H577 H 0.66199 0.92203 0.66898 0.0
H578 H 0.65058 0.0171 0.71145 0.0
H579 H 0.68268 0.96335 0.64547 0.0
H580 H 0.7511 0.03905 0.64928 0.0
H581 H 0.72445 0.99727 0.66404 0.0
H582 H 0.6476 0.04584 0.66267 0.0
H583 H 0.67409 0.08747 0.64701 0.0
C584 C 0.64124 0.9729 0.71527 0.0
C585 C 0.64443 0.94565 0.70389 0.0
C586 C 0.65266 0.99657 0.70161 0.0
C587 C 0.66833 0.99352 0.67662 0.0
C588 C 0.67075 0.96639 0.6647 0.0
C589 C 0.65861 0.94277 0.67799 0.0
C590 C 0.72845 0.04072 0.65161 0.0
C591 C 0.71477 0.06665 0.64684 0.0
C592 C 0.71316 0.01673 0.65998 0.0
C593 C 0.68389 0.01821 0.66453 0.0
C594 C 0.67011 0.044 0.65934 0.0
C595 C 0.6853 0.06782 0.65023 0.0
H596 H 0.92792 0.66559 0.66398 0.0
H597 H 0.98186 0.73306 0.63549 0.0
H598 H 0.96949 0.63946 0.68065 0.0
H599 H 0.02335 0.70651 0.6511 0.0
H600 H 0.09225 0.63709 0.66353 0.0
H601 H 0.04934 0.65573 0.64144 0.0
H602 H 1.0073 0.65478 0.72198 0.0
H603 H 0.05045 0.63712 0.7443 0.0
C604 C 0.94868 0.67442 0.66043 0.0
C605 C 0.95157 0.70132 0.64815 0.0
C606 C 0.97246 0.65957 0.67021 0.0
C607 C 0.99973 0.67091 0.66719 0.0
C608 C 1.00268 0.6971 0.65356 0.0
C609 C 0.97891 0.71229 0.64457 0.0
C610 C 0.0737 0.64032 0.67646 0.0
C611 C 0.07483 0.63548 0.70573 0.0
C612 C 0.04918 0.65118 0.66381 0.0
C613 C 0.02489 0.65671 0.67994 0.0
C614 C 0.02556 0.65054 0.70893 0.0
C615 C 0.05031 0.64044 0.72172 0.0
H616 H 0.39875 0.04705 0.73333 0.0
H617 H 0.38228 0.10143 0.66234 0.0
H618 H 0.38188 1.0065 0.70649 0.0
H619 H 0.365 0.06071 0.63542 0.0
H620 H 0.36131 0.93434 0.64797 0.0
H621 H 0.38896 0.97475 0.66457 0.0
H622 H 0.32128 0.03086 0.64111 0.0
H623 H 0.29364 0.99058 0.62483 0.0
C624 C 0.39219 0.05024 0.7117 0.0
C625 C 0.39198 0.07755 0.70001 0.0
C626 C 0.38253 0.02692 0.69625 0.0
C627 C 0.37189 0.03026 0.66879 0.0
C628 C 0.37288 0.05738 0.65657 0.0
C629 C 0.38306 0.08069 0.6719 0.0
C630 C 0.35267 0.95536 0.64557 0.0
C631 C 0.32521 0.95914 0.63501 0.0
C632 C 0.36842 0.97854 0.65536 0.0
C633 C 0.35732 1.00612 0.65439 0.0
C634 C 0.33065 1.01003 0.64203 0.0
C635 C 0.31475 0.98686 0.6327 0.0
H636 H 0.10709 0.35289 0.65402 0.0
H637 H 0.07179 0.27183 0.67638 0.0
H638 H 0.06846 0.37642 0.67964 0.0
H639 H 0.03425 0.29522 0.70217 0.0
H640 H 1.00112 0.34388 0.7786 0.0
H641 H 0.03969 0.32734 0.74892 0.0
H642 H 1.00877 0.37771 0.67992 0.0
H643 H 0.96946 0.39404 0.70952 0.0
C644 C 0.09091 0.34009 0.66381 0.0
C645 C 0.0928 0.31038 0.66315 0.0
C646 C 0.06889 0.35358 0.67859 0.0
C647 C 0.04864 0.33762 0.69333 0.0
C648 C 0.04977 0.30808 0.69142 0.0
C649 C 0.07132 0.29469 0.67641 0.0
C650 C 1.00268 0.35194 0.75731 0.0
C651 C 0.98196 0.37025 0.74652 0.0
C652 C 0.02476 0.3423 0.74023 0.0
C653 C 0.02711 0.35102 0.71201 0.0
C654 C 1.00751 0.37066 0.7016 0.0
C655 C 0.98501 0.38 0.71859 0.0
H656 H 0.67535 0.9492 0.4162 0.0
H657 H 0.74986 0.96539 0.36649 0.0
H658 H 0.65262 0.99072 0.39531 0.0
H659 H 0.72737 1.00664 0.34594 0.0
H660 H 0.66983 0.05777 0.2895 0.0
H661 H 0.68986 0.01652 0.31261 0.0
H662 H 0.65346 0.04297 0.3917 0.0
H663 H 0.63311 0.08438 0.36843 0.0
C664 C 0.68708 0.96178 0.40115 0.0
C665 C 0.71452 0.95373 0.39308 0.0
C666 C 0.674 0.98563 0.38914 0.0
C667 C 0.68792 1.00195 0.36854 0.0
C668 C 0.71566 0.99435 0.36122 0.0
C669 C 0.72874 0.97072 0.37328 0.0
C670 C 0.66575 0.05475 0.31178 0.0
C671 C 0.64979 0.07463 0.32701 0.0
C672 C 0.67753 0.03111 0.32514 0.0
C673 C 0.6737 0.02644 0.35421 0.0
C674 C 0.65685 0.04574 0.3693 0.0
C675 C 0.64516 0.06956 0.35593 0.0
H676 H 0.97366 0.69703 0.27375 0.0
H677 H 0.94098 0.64965 0.34435 0.0
H678 H 1.0136 0.71194 0.30196 0.0
H679 H 0.982 0.66448 0.37271 0.0
H680 H 0.08516 0.68212 0.39046 0.0
H681 H 0.04219 0.66151 0.36975 0.0
H682 H 1.01304 0.74487 0.34799 0.0
H683 H 0.0551 0.7654 0.36878 0.0
C684 C 0.97509 0.68941 0.29521 0.0
C685 C 0.95378 0.67219 0.3067 0.0
C686 C 0.99807 0.69811 0.31144 0.0
C687 C 1.00086 0.68965 0.33965 0.0
C688 C 0.9804 0.67134 0.35101 0.0
C689 C 0.95693 0.66287 0.33475 0.0
C690 C 0.06918 0.69608 0.38202 0.0
C691 C 0.07386 0.72548 0.38114 0.0
C692 C 0.04461 0.68425 0.37009 0.0
C693 C 0.02443 0.70157 0.35688 0.0
C694 C 0.02833 0.73094 0.35769 0.0
C695 C 0.05252 0.7427 0.36973 0.0
H696 H 0.35841 0.96542 0.27496 0.0
H697 H 0.40005 0.93937 0.35162 0.0
H698 H 0.33846 1.00584 0.29933 0.0
H699 H 0.38023 0.98085 0.376 0.0
H700 H 0.35472 0.08165 0.38966 0.0
H701 H 0.37984 0.04018 0.37097 0.0
H702 H 0.30107 1.00575 0.34159 0.0
H703 H 0.27599 0.04636 0.36052 0.0
C704 C 0.36381 0.96849 0.29692 0.0
C705 C 0.38086 0.94882 0.31125 0.0
C706 C 0.35216 0.99171 0.31093 0.0
C707 C 0.35747 0.9964 0.33966 0.0
C708 C 0.37574 0.97776 0.35383 0.0
C709 C 0.38713 0.95405 0.33984 0.0
C710 C 0.34269 0.06494 0.37977 0.0
C711 C 0.31324 0.06755 0.37661 0.0
C712 C 0.35712 0.0412 0.36906 0.0
C713 C 0.34246 0.01985 0.35454 0.0
C714 C 0.31299 0.02196 0.35243 0.0
C715 C 0.2986 0.04528 0.36347 0.0
H716 H 0.07046 0.35868 0.27934 0.0
H717 H 0.08124 0.41549 0.34976 0.0
H718 H 0.03013 0.33726 0.30264 0.0
H719 H 0.04022 0.39398 0.37304 0.0
H720 H 0.94408 0.36143 0.38425 0.0
H721 H 0.9855 0.3866 0.36602 0.0
H722 H 0.02515 0.30696 0.34675 0.0
H723 H 0.98434 0.28189 0.36507 0.0
C724 C 0.06406 0.36692 0.29965 0.0
C725 C 0.0793 0.38887 0.31261 0.0
C726 C 0.04099 0.35441 0.31313 0.0
C727 C 0.03214 0.36363 0.33988 0.0
C728 C 0.04653 0.38637 0.35246 0.0
C729 C 0.07002 0.39869 0.33909 0.0
C730 C 0.96191 0.34927 0.37675 0.0
C731 C 0.96066 0.31954 0.37608 0.0
C732 C 0.98562 0.36373 0.36623 0.0
C733 C 1.00842 0.34879 0.35447 0.0
C734 C 1.00775 0.31913 0.3552 0.0
C735 C 0.98434 0.30474 0.36596 0.0
H736 H 0.66989 0.64777 0.92382 0.0
H737 H 0.74365 0.63408 0.97512 0.0
H738 H 0.64443 0.66546 0.96527 0.0
H739 H 0.71809 0.6511 0.01653 0.0
H740 H 0.65876 0.66877 0.09029 0.0
H741 H 0.67575 0.64204 0.04941 0.0
H742 H 0.65199 0.71076 0.99477 0.0
H743 H 0.63557 0.73769 0.03558 0.0
C744 C 0.68038 0.6476 0.94409 0.0
C745 C 0.70879 0.6393 0.94614 0.0
C746 C 0.66587 0.65804 0.9678 0.0
C747 C 0.67921 0.65981 0.99426 0.0
C748 C 0.70705 0.64983 0.99659 0.0
C749 C 0.72173 0.64004 0.97282 0.0
C750 C 0.65649 0.67791 0.06949 0.0
C751 C 0.6457 0.70542 0.0663 0.0
C752 C 0.66647 0.66266 0.04607 0.0
C753 C 0.66534 0.67425 0.01876 0.0
C754 C 0.653 0.70106 0.01541 0.0
C755 C 0.64359 0.71653 0.03886 0.0
H756 H 0.26844 0.67084 0.05143 0.0
H757 H 0.35066 0.6484 0.08345 0.0
H758 H 0.29017 0.69252 1.01045 0.0
H759 H 0.37249 0.67001 0.04149 0.0
H760 H 0.3831 0.6965 0.93857 0.0
H761 H 0.36838 0.66732 0.97908 0.0
H762 H 0.32533 0.73904 0.01476 0.0
H763 H 0.34015 0.76807 0.97531 0.0
C764 C 0.29117 0.66994 0.04952 0.0
C765 C 0.30773 0.65803 0.07109 0.0
C766 C 0.30361 0.68245 0.02592 0.0
C767 C 0.33302 0.68321 0.02285 0.0
C768 C 0.34974 0.66965 0.04328 0.0
C769 C 0.33721 0.65724 0.06728 0.0
C770 C 0.37096 0.70614 0.95533 0.0
C771 C 0.36271 0.73469 0.95342 0.0
C772 C 0.36256 0.68942 0.97851 0.0
C773 C 0.34549 0.70087 0.99995 0.0
C774 C 0.33828 0.72956 0.99848 0.0
C775 C 0.34687 0.74622 0.97575 0.0
H776 H 0.35231 0.3931 0.94286 0.0
H777 H 0.27072 0.36833 0.97488 0.0
H778 H 0.3747 0.3723 0.98484 0.0
H779 H 0.29308 0.34737 0.01594 0.0
H780 H 0.34621 0.27302 0.05018 0.0
H781 H 0.33038 0.30174 1.01086 0.0
H782 H 0.36987 0.37498 0.04752 0.0
H783 H 0.38553 0.34615 0.08787 0.0
C784 C 0.33909 0.38398 0.95908 0.0
C785 C 0.30966 0.38226 0.95524 0.0
C786 C 0.35195 0.37201 0.98306 0.0
C787 C 0.33562 0.35796 1.00347 0.0
C788 C 0.3062 0.35787 1.00046 0.0
C789 C 0.2934 0.36998 0.97685 0.0
C790 C 0.35197 0.29514 0.04993 0.0
C791 C 0.36706 0.3072 0.07249 0.0
C792 C 0.34278 0.31162 0.02732 0.0
C793 C 0.34867 0.34062 0.02623 0.0
C794 C 0.36507 0.35264 0.04784 0.0
C795 C 0.37403 0.3361 0.07089 0.0
H796 H 0.68367 0.38407 0.09131 0.0
H797 H 0.75828 0.34974 0.05181 0.0
H798 H 0.65493 0.36548 0.05217 0.0
H799 H 0.72974 0.33101 1.01373 0.0
H800 H 0.66837 0.26747 0.97693 0.0
H801 H 0.68978 0.2907 0.01732 0.0
H802 H 0.65268 0.36989 0.99235 0.0
H803 H 0.63135 0.34671 0.95115 0.0
C804 C 0.69401 0.37301 0.07421 0.0
C805 C 0.72334 0.36832 0.07493 0.0
C806 C 0.67754 0.36234 0.05187 0.0
C807 C 0.69009 0.34644 0.03014 0.0
C808 C 0.71944 0.34283 0.03036 0.0
C809 C 0.73581 0.35373 0.05224 0.0
C810 C 0.6642 0.28973 0.98014 0.0
C811 C 0.64823 0.30519 0.96049 0.0
C812 C 0.67661 0.30305 1.00332 0.0
C813 C 0.67315 0.33215 1.00784 0.0
C814 C 0.65567 0.34741 0.98939 0.0
C815 C 0.64346 0.3341 0.96582 0.0
H816 H 0.2182 0.32941 0.25728 0.0
H817 H 0.1443 0.30871 0.30575 0.0
H818 H 0.24547 0.29445 0.28349 0.0
H819 H 0.17066 0.2724 0.33084 0.0
H820 H 0.22633 0.23074 0.39317 0.0
H821 H 0.20355 0.26803 0.36612 0.0
H822 H 0.25649 0.24789 0.29459 0.0
H823 H 0.28034 0.21196 0.32266 0.0
C824 C 0.20753 0.31638 0.27273 0.0
C825 C 0.17902 0.32118 0.27907 0.0
C826 C 0.22319 0.29643 0.28798 0.0
C827 C 0.21058 0.28067 0.30983 0.0
C828 C 0.18152 0.28458 0.3149 0.0
C829 C 0.1661 0.30492 0.30006 0.0
C830 C 0.23384 0.23525 0.37208 0.0
C831 C 0.25562 0.21911 0.3603 0.0
C832 C 0.22032 0.25614 0.3562 0.0
C833 C 0.22752 0.26074 0.32771 0.0
C834 C 0.25035 0.24536 0.31641 0.0
C835 C 0.26431 0.22488 0.3326 0.0
H836 H 0.79618 0.23901 0.38506 0.0
H837 H 0.82298 0.27922 0.30822 0.0
H838 H 0.76225 0.21078 0.35871 0.0
H839 H 0.79001 0.25008 0.28129 0.0
H840 H 0.70948 0.20298 0.24767 0.0
H841 H 0.74277 0.23585 0.26933 0.0
H842 H 0.76706 0.17113 0.32875 0.0
H843 H 0.73285 0.13902 0.30779 0.0
C844 C 0.79393 0.24256 0.36261 0.0
C845 C 0.81157 0.26174 0.34873 0.0
C846 C 0.77507 0.22587 0.34733 0.0
C847 C 0.774 0.22743 0.31768 0.0
C848 C 0.79023 0.24822 0.30403 0.0
C849 C 0.80885 0.26522 0.31947 0.0
C850 C 0.72299 0.19545 0.26447 0.0
C851 C 0.7191 0.16828 0.27572 0.0
C852 C 0.74176 0.21443 0.27721 0.0
C853 C 0.75702 0.20648 0.30138 0.0
C854 C 0.75495 0.17836 0.31081 0.0
C855 C 0.73594 0.15962 0.29835 0.0
H856 H 0.82594 0.73434 0.30189 0.0
H857 H 0.8288 0.66946 0.36571 0.0
H858 H 0.79561 0.76297 0.33254 0.0
H859 H 0.79913 0.69845 0.39657 0.0
H860 H 0.78431 0.78991 0.44474 0.0
H861 H 0.80653 0.75038 0.42007 0.0
H862 H 0.7433 0.75566 0.35502 0.0
H863 H 0.72052 0.79441 0.38032 0.0
C864 C 0.82042 0.7264 0.32258 0.0
C865 C 0.82984 0.69977 0.33147 0.0
C866 C 0.80279 0.74257 0.33995 0.0
C867 C 0.79474 0.73266 0.36674 0.0
C868 C 0.80484 0.70642 0.37595 0.0
C869 C 0.82189 0.68997 0.35834 0.0
C870 C 0.77398 0.78121 0.42631 0.0
C871 C 0.75043 0.79491 0.41469 0.0
C872 C 0.78702 0.75896 0.41187 0.0
C873 C 0.77697 0.7505 0.38535 0.0
C874 C 0.75161 0.76203 0.37532 0.0
C875 C 0.7382 0.78377 0.39014 0.0
H876 H 0.29993 0.89204 0.30829 0.0
H877 H 0.30135 0.82854 0.24349 0.0
H878 H 0.27193 0.86157 0.33803 0.0
H879 H 0.27409 0.79725 0.27321 0.0
H880 H 0.22151 0.74388 0.33297 0.0
H881 H 0.24665 0.773 0.29982 0.0
H882 H 0.27313 0.82729 0.36843 0.0
H883 H 0.24501 0.79941 0.40064 0.0
C884 C 0.29329 0.87177 0.30003 0.0
C885 C 0.30284 0.86275 0.27354 0.0
C886 C 0.27809 0.85356 0.31762 0.0
C887 C 0.27255 0.82537 0.30955 0.0
C888 C 0.27895 0.81789 0.28139 0.0
C889 C 0.29398 0.8363 0.26368 0.0
C890 C 0.23379 0.76139 0.34106 0.0
C891 C 0.23113 0.76933 0.36945 0.0
C892 C 0.24791 0.7788 0.32176 0.0
C893 C 0.26084 0.80421 0.33052 0.0
C894 C 0.26194 0.80937 0.35989 0.0
C895 C 0.24685 0.7925 0.37894 0.0
H896 H 0.14024 0.71031 0.70023 0.0
H897 H 0.1915 0.72439 0.77389 0.0
H898 H 0.16548 0.74727 0.67525 0.0
H899 H 0.2169 0.7621 0.7489 0.0
H900 H 0.27679 0.80326 0.68261 0.0
H901 H 0.251 0.76658 0.70878 0.0
H902 H 0.1727 0.79724 0.67388 0.0
H903 H 0.19824 0.83296 0.64767 0.0
C904 C 0.15631 0.7221 0.7114 0.0
C905 C 0.16345 0.71494 0.7392 0.0
C906 C 0.17097 0.74318 0.69702 0.0
C907 C 0.19341 0.75761 0.70995 0.0
C908 C 0.19994 0.75118 0.73821 0.0
C909 C 0.185 0.73008 0.75276 0.0
C910 C 0.25417 0.80156 0.68004 0.0
C911 C 0.23959 0.82081 0.66286 0.0
C912 C 0.23933 0.78095 0.69541 0.0
C913 C 0.2097 0.7791 0.69365 0.0
C914 C 0.19545 0.79782 0.67566 0.0
C915 C 0.21015 0.81832 0.66055 0.0
H916 H 0.31259 0.18356 0.78365 0.0
H917 H 0.29598 0.11851 0.72272 0.0
H918 H 0.29089 0.21802 0.75369 0.0
H919 H 0.2715 0.15204 0.69328 0.0
H920 H 0.2474 0.21494 0.63034 0.0
H921 H 0.27326 0.1836 0.66091 0.0
H922 H 0.27063 0.24706 0.72656 0.0
H923 H 0.24579 0.27832 0.69519 0.0
C924 C 0.30245 0.17628 0.7645 0.0
C925 C 0.30625 0.14831 0.75552 0.0
C926 C 0.29052 0.19645 0.74649 0.0
C927 C 0.28094 0.189 0.71925 0.0
C928 C 0.28042 0.15982 0.7127 0.0
C929 C 0.29328 0.13991 0.73036 0.0
C930 C 0.2537 0.22259 0.65093 0.0
C931 C 0.24422 0.24898 0.66044 0.0
C932 C 0.26751 0.204 0.66925 0.0
C933 C 0.27179 0.21107 0.69789 0.0
C934 C 0.26643 0.23942 0.70565 0.0
C935 C 0.25288 0.25811 0.68714 0.0
H936 H 0.82519 0.18088 0.69755 0.0
H937 H 0.7949 0.22842 0.62612 0.0
H938 H 0.84971 0.22259 0.71484 0.0
H939 H 0.82046 0.26982 0.64256 0.0
H940 H 0.83618 0.34619 0.70025 0.0
H941 H 0.81696 0.30426 0.67771 0.0
H942 H 0.88668 0.25496 0.7097 0.0
H943 H 0.90508 0.29673 0.7333 0.0
C944 C 0.82429 0.2001 0.68522 0.0
C945 C 0.80794 0.20142 0.66061 0.0
C946 C 0.83848 0.22407 0.69504 0.0
C947 C 0.83699 0.24982 0.68024 0.0
C948 C 0.82161 0.25065 0.65491 0.0
C949 C 0.8071 0.22682 0.64535 0.0
C950 C 0.8476 0.32647 0.70211 0.0
C951 C 0.87203 0.32475 0.7187 0.0
C952 C 0.83664 0.30235 0.68909 0.0
C953 C 0.85009 0.27598 0.69199 0.0
C954 C 0.87534 0.27466 0.70749 0.0
C955 C 0.88605 0.2987 0.72084 0.0
H956 H 0.81776 0.82131 0.63752 0.0
H957 H 0.79381 0.74972 0.68802 0.0
H958 H 0.79095 0.85219 0.66747 0.0
H959 H 0.76416 0.78036 0.71716 0.0
H960 H 0.7246 0.90146 0.71444 0.0
H961 H 0.75249 0.87179 0.68415 0.0
H962 H 0.76446 0.81284 0.75285 0.0
H963 H 0.73398 0.84207 0.78239 0.0
C964 C 0.8052 0.81193 0.65416 0.0
C965 C 0.80764 0.78299 0.66008 0.0
C966 C 0.78981 0.82981 0.67174 0.0
C967 C 0.77539 0.81928 0.69548 0.0
C968 C 0.77558 0.7897 0.69977 0.0
C969 C 0.79176 0.77179 0.68241 0.0
C970 C 0.73445 0.88291 0.72352 0.0
C971 C 0.7276 0.87455 0.75104 0.0
C972 C 0.75031 0.8654 0.7059 0.0
C973 C 0.76069 0.8392 0.71549 0.0
C974 C 0.75625 0.83227 0.74412 0.0
C975 C 0.73967 0.84962 0.76159 0.0
H976 H 0.22592 0.17392 0.30056 0.0
H977 H 0.28046 0.10221 0.2883 0.0
H978 H 0.2489 0.19822 0.26132 0.0
H979 H 0.30298 0.12608 0.24852 0.0
H980 H 0.32642 0.17789 0.16815 0.0
H981 H 0.29615 0.15021 0.19943 0.0
H982 H 0.3014 0.21587 0.2623 0.0
H983 H 0.33215 0.24344 0.23116 0.0
C984 C 0.2415 0.1626 0.28823 0.0
C985 C 0.25099 0.13592 0.29699 0.0
C986 C 0.25512 0.17676 0.26622 0.0
C987 C 0.27803 0.1642 0.25225 0.0
C988 C 0.28535 0.13624 0.25892 0.0
C989 C 0.27215 0.12235 0.28134 0.0
C990 C 0.32131 0.18631 0.18876 0.0
C991 C 0.33182 0.21274 0.19733 0.0
C992 C 0.30392 0.1705 0.20656 0.0
C993 C 0.29612 0.18107 0.23306 0.0
C994 C 0.30675 0.20743 0.24175 0.0
C995 C 0.32465 0.22301 0.22415 0.0
H996 H 0.93322 0.28915 0.28647 0.0
H997 H 0.86478 0.22951 0.29089 0.0
H998 H 0.91028 0.31274 0.24685 0.0
H999 H 0.84139 0.25349 0.25178 0.0
H1000 H 0.79249 0.33714 0.22907 0.0
H1001 H 0.82124 0.30549 0.25808 0.0
H1002 H 0.88767 0.30844 0.19597 0.0
H1003 H 0.85874 0.33961 0.16669 0.0
C1004 C 0.91421 0.27998 0.27773 0.0
C1005 C 0.90096 0.25729 0.29142 0.0
C1006 C 0.90081 0.29378 0.2554 0.0
C1007 C 0.87378 0.28531 0.24683 0.0
C1008 C 0.8621 0.2606 0.25829 0.0
C1009 C 0.87581 0.24645 0.28022 0.0
C1010 C 0.81338 0.33135 0.22185 0.0
C1011 C 0.8235 0.34099 0.19579 0.0
C1012 C 0.82962 0.3129 0.23817 0.0
C1013 C 0.85646 0.30418 0.22895 0.0
C1014 C 0.86698 0.31465 0.20339 0.0
C1015 C 0.8505 0.3326 0.1868 0.0
H1016 H 0.66461 0.74811 0.2353 0.0
H1017 H 0.68344 0.82328 0.18714 0.0
H1018 H 0.68962 0.76865 0.27587 0.0
H1019 H 0.7083 0.84309 0.22692 0.0
H1020 H 0.77338 0.86005 0.2963 0.0
H1021 H 0.75224 0.83507 0.25609 0.0
H1022 H 0.68162 0.81085 0.30808 0.0
H1023 H 0.70216 0.8357 0.34768 0.0
C1024 C 0.6739 0.7689 0.23335 0.0
C1025 C 0.67167 0.78404 0.20799 0.0
C1026 C 0.68831 0.78062 0.25647 0.0
C1027 C 0.70119 0.8074 0.25444 0.0
C1028 C 0.69908 0.82228 0.22905 0.0
C1029 C 0.68441 0.81091 0.2063 0.0
C1030 C 0.75334 0.84946 0.29905 0.0
C1031 C 0.73939 0.85028 0.32514 0.0
C1032 C 0.74127 0.83509 0.27611 0.0
C1033 C 0.7153 0.82086 0.27902 0.0
C1034 C 0.70176 0.82125 0.30524 0.0
C1035 C 0.7135 0.83588 0.32787 0.0
H1036 H 0.21334 0.62699 0.22194 0.0
H1037 H 0.28312 0.68316 0.23637 0.0
H1038 H 0.18272 0.65756 0.24839 0.0
H1039 H 0.25306 0.71301 0.26582 0.0
H1040 H 0.18995 0.78049 0.28725 0.0
H1041 H 0.21927 0.7475 0.26039 0.0
H1042 H 0.16351 0.67935 0.28458 0.0
H1043 H 0.1335 0.71256 0.30845 0.0
C1044 C 0.22266 0.64491 0.23268 0.0
C1045 C 0.25065 0.65264 0.22684 0.0
C1046 C 0.20483 0.66302 0.24763 0.0
C1047 C 0.21481 0.68884 0.25854 0.0
C1048 C 0.24404 0.6942 0.25656 0.0
C1049 C 0.26173 0.67639 0.24067 0.0
C1050 C 0.18315 0.75876 0.28516 0.0
C1051 C 0.1592 0.74923 0.29972 0.0
C1052 C 0.20057 0.73948 0.27069 0.0
C1053 C 0.19469 0.71018 0.27097 0.0
C1054 C 0.16921 0.70141 0.28344 0.0
C1055 C 0.15157 0.72068 0.29703 0.0
H1056 H 0.29783 0.84343 0.85752 0.0
H1057 H 0.36313 0.82865 0.79575 0.0
H1058 H 0.2733 0.87433 0.82453 0.0
H1059 H 0.3386 0.86002 0.76282 0.0
H1060 H 0.30325 0.93444 0.71826 0.0
H1061 H 0.32522 0.91274 0.75938 0.0
H1062 H 0.24826 0.86729 0.77641 0.0
H1063 H 0.22639 0.8889 0.73489 0.0
C1064 C 0.30712 0.84694 0.83696 0.0
C1065 C 0.33256 0.83358 0.82928 0.0
C1066 C 0.29294 0.86461 0.81807 0.0
C1067 C 0.3041 0.8698 0.79122 0.0
C1068 C 0.32968 0.85672 0.78358 0.0
C1069 C 0.34366 0.83861 0.80232 0.0
C1070 C 0.29052 0.92104 0.73172 0.0
C1071 C 0.263 0.91363 0.72361 0.0
C1072 C 0.3033 0.90815 0.75489 0.0
C1073 C 0.2887 0.88781 0.77066 0.0
C1074 C 0.26005 0.88287 0.76458 0.0
C1075 C 0.24731 0.89563 0.74111 0.0
H1076 H 0.29227 0.33437 0.80921 0.0
H1077 H 0.23055 0.39689 0.78659 0.0
H1078 H 0.26482 0.29829 0.78608 0.0
H1079 H 0.20374 0.36142 0.76127 0.0
H1080 H 0.14208 0.29542 0.7433 0.0
H1081 H 0.1722 0.32774 0.76902 0.0
H1082 H 0.24225 0.27049 0.75746 0.0
H1083 H 0.21129 0.23766 0.7334 0.0
C1084 C 0.27372 0.34076 0.7975 0.0
C1085 C 0.2636 0.36853 0.79983 0.0
C1086 C 0.25731 0.31973 0.78473 0.0
C1087 C 0.23064 0.32608 0.77316 0.0
C1088 C 0.223 0.35488 0.77153 0.0
C1089 C 0.23908 0.37572 0.78497 0.0
C1090 C 0.16357 0.28908 0.74779 0.0
C1091 C 0.17432 0.26401 0.73623 0.0
C1092 C 0.18138 0.30825 0.7615 0.0
C1093 C 0.21064 0.30315 0.76355 0.0
C1094 C 0.22033 0.27613 0.75555 0.0
C1095 C 0.20232 0.25673 0.74229 0.0
H1096 H 0.6564 0.19759 0.66106 0.0
H1097 H 0.73143 0.18727 0.71159 0.0
H1098 H 0.635 0.22588 0.69899 0.0
H1099 H 0.71044 0.21598 0.74871 0.0
H1100 H 0.67759 0.29049 0.79735 0.0
H1101 H 0.69252 0.27041 0.75206 0.0
H1102 H 0.62254 0.21233 0.75459 0.0
H1103 H 0.60816 0.23188 0.80024 0.0
C1104 C 0.66827 0.20135 0.68019 0.0
C1105 C 0.69548 0.18998 0.68346 0.0
C1106 C 0.65609 0.21759 0.70175 0.0
C1107 C 0.67128 0.2234 0.72651 0.0
C1108 C 0.69846 0.21215 0.72964 0.0
C1109 C 0.71031 0.19543 0.70851 0.0
C1110 C 0.66471 0.27435 0.78754 0.0
C1111 C 0.64149 0.26301 0.80188 0.0
C1112 C 0.67339 0.26267 0.76185 0.0
C1113 C 0.6587 0.23978 0.74998 0.0
C1114 C 0.63404 0.23011 0.76317 0.0
C1115 C 0.62574 0.24138 0.78915 0.0
H1116 H 0.84062 0.78353 0.72408 0.0
H1117 H 0.90597 0.72371 0.74369 0.0
H1118 H 0.80642 0.75471 0.74875 0.0
H1119 H 0.87256 0.6958 0.77082 0.0
H1120 H 0.80781 0.63156 0.78834 0.0
H1121 H 0.83847 0.66352 0.76244 0.0
H1122 H 0.78339 0.73313 0.78405 0.0
H1123 H 0.75176 0.70036 0.80736 0.0
C1124 C 0.84809 0.76517 0.7355 0.0
C1125 C 0.8761 0.75609 0.73218 0.0
C1126 C 0.82824 0.74816 0.74932 0.0
C1127 C 0.83612 0.72194 0.76099 0.0
C1128 C 0.86508 0.71497 0.76095 0.0
C1129 C 0.88469 0.73159 0.74635 0.0
C1130 C 0.80144 0.65339 0.78588 0.0
C1131 C 0.77705 0.66331 0.79932 0.0
C1132 C 0.81962 0.67212 0.772 0.0
C1133 C 0.81442 0.70149 0.77205 0.0
C1134 C 0.78857 0.71091 0.78337 0.0
C1135 C 0.77 0.69197 0.79646 0.0
H1136 H 0.24146 0.44277 0.24195 0.0
H1137 H 0.23673 0.37559 0.30296 0.0
H1138 H 0.28141 0.41933 0.21921 0.0
H1139 H 0.27601 0.35162 0.27973 0.0
H1140 H 0.36334 0.36708 0.19628 0.0
H1141 H 0.33312 0.39665 0.22605 0.0
H1142 H 0.27032 0.33077 0.22724 0.0
H1143 H 0.30021 0.30144 0.19687 0.0
C1144 C 0.25016 0.42395 0.25157 0.0
C1145 C 0.23642 0.41128 0.27454 0.0
C1146 C 0.27267 0.41025 0.23826 0.0
C1147 C 0.2813 0.38342 0.24741 0.0
C1148 C 0.26954 0.3722 0.27216 0.0
C1149 C 0.24751 0.38625 0.28585 0.0
C1150 C 0.3429 0.35909 0.20262 0.0
C1151 C 0.33397 0.33207 0.19408 0.0
C1152 C 0.32576 0.37594 0.21975 0.0
C1153 C 0.29969 0.36577 0.22928 0.0
C1154 C 0.29058 0.33889 0.2205 0.0
C1155 C 0.30744 0.3223 0.20281 0.0
H1156 H 0.29737 0.74222 0.83038 0.0
H1157 H 0.36235 0.67869 0.82421 0.0
H1158 H 0.26637 0.71307 0.80107 0.0
H1159 H 0.33093 0.64919 0.79557 0.0
H1160 H 0.23951 0.60049 0.78342 0.0
H1161 H 0.27922 0.62495 0.80574 0.0
H1162 H 0.26966 0.69384 0.74713 0.0
H1163 H 0.23069 0.66891 0.72428 0.0
C1164 C 0.3049 0.7219 0.82307 0.0
C1165 C 0.33226 0.71273 0.82968 0.0
C1166 C 0.28729 0.70536 0.80606 0.0
C1167 C 0.29642 0.67903 0.79581 0.0
C1168 C 0.32346 0.66946 0.80306 0.0
C1169 C 0.34135 0.68632 0.81949 0.0
C1170 C 0.24713 0.61998 0.77421 0.0
C1171 C 0.23264 0.63239 0.75157 0.0
C1172 C 0.26954 0.6342 0.78725 0.0
C1173 C 0.27722 0.66143 0.77837 0.0
C1174 C 0.26409 0.67291 0.75443 0.0
C1175 C 0.24218 0.65838 0.74099 0.0
H1176 H 0.24934 0.28708 0.84302 0.0
H1177 H 0.31941 0.30786 0.89688 0.0
H1178 H 0.28026 0.25667 0.81472 0.0
H1179 H 0.35051 0.2798 0.86796 0.0
H1180 H 0.3465 0.23252 0.74962 0.0
H1181 H 0.31609 0.2614 0.78 0.0
H1182 H 0.36694 0.23797 0.85192 0.0
H1183 H 0.39764 0.21105 0.82146 0.0
C1184 C 0.27103 0.28418 0.84954 0.0
C1185 C 0.28184 0.29955 0.87243 0.0
C1186 C 0.28905 0.26755 0.83275 0.0
C1187 C 0.31828 0.26634 0.83831 0.0
C1188 C 0.32831 0.27986 0.86274 0.0
C1189 C 0.31032 0.29585 0.87967 0.0
C1190 C 0.35195 0.23497 0.77165 0.0
C1191 C 0.37479 0.21997 0.78305 0.0
C1192 C 0.334 0.25075 0.78932 0.0
C1193 C 0.33846 0.25165 0.81875 0.0
C1194 C 0.36262 0.23823 0.82953 0.0
C1195 C 0.38058 0.22291 0.81194 0.0
H1196 H 0.73634 0.23267 0.84988 0.0
H1197 H 0.72741 0.29691 0.91367 0.0
H1198 H 0.78089 0.25429 0.83457 0.0
H1199 H 0.77235 0.3179 0.89909 0.0
H1200 H 0.86806 0.33133 0.86996 0.0
H1201 H 0.82954 0.30351 0.8909 0.0
H1202 H 0.78334 0.30886 0.81284 0.0
H1203 H 0.82104 0.33725 0.79227 0.0
C1204 C 0.74455 0.25063 0.86138 0.0
C1205 C 0.72874 0.26299 0.88312 0.0
C1206 C 0.76983 0.26313 0.8525 0.0
C1207 C 0.77994 0.28774 0.86568 0.0
C1208 C 0.76512 0.29882 0.88877 0.0
C1209 C 0.73952 0.28679 0.89714 0.0
C1210 C 0.84958 0.32667 0.8574 0.0
C1211 C 0.84743 0.33672 0.82959 0.0
C1212 C 0.82768 0.31071 0.86932 0.0
C1213 C 0.80373 0.3038 0.85331 0.0
C1214 C 0.80175 0.31362 0.82548 0.0
C1215 C 0.8232 0.33013 0.81386 0.0
H1216 H 0.78082 0.73936 0.84734 0.0
H1217 H 0.71065 0.71991 0.90146 0.0
H1218 H 0.75003 0.76806 0.81767 0.0
H1219 H 0.67943 0.74588 0.87115 0.0
H1220 H 0.62895 0.80702 0.81881 0.0
H1221 H 0.65939 0.78257 0.85118 0.0
H1222 H 0.71708 0.7641 0.78283 0.0
H1223 H 0.68713 0.7913 0.75096 0.0
C1224 C 0.75909 0.74241 0.8537 0.0
C1225 C 0.74824 0.72772 0.87699 0.0
C1226 C 0.74104 0.75795 0.83603 0.0
C1227 C 0.71166 0.75872 0.84106 0.0
C1228 C 0.70165 0.7463 0.86613 0.0
C1229 C 0.71976 0.73155 0.88402 0.0
C1230 C 0.64747 0.79653 0.81043 0.0
C1231 C 0.65528 0.80064 0.7822 0.0
C1232 C 0.66539 0.78266 0.82921 0.0
C1233 C 0.69143 0.77153 0.82018 0.0
C1234 C 0.69781 0.7731 0.7911 0.0
C1235 C 0.68007 0.78775 0.77239 0.0
H1236 H 0.73787 0.73963 0.09302 0.0
H1237 H 0.72853 0.80348 0.15703 0.0
H1238 H 0.77695 0.7187 0.11942 0.0
H1239 H 0.76682 0.78197 0.18404 0.0
H1240 H 0.794 0.70246 0.23875 0.0
H1241 H 0.76324 0.73005 0.20748 0.0
H1242 H 0.82741 0.72883 0.14304 0.0
H1243 H 0.85834 0.70199 0.17441 0.0
C1244 C 0.74533 0.7502 0.11185 0.0
C1245 C 0.73062 0.77359 0.12261 0.0
C1246 C 0.7673 0.73789 0.12727 0.0
C1247 C 0.77443 0.74837 0.15405 0.0
C1248 C 0.76151 0.77331 0.16358 0.0
C1249 C 0.74006 0.78603 0.14778 0.0
C1250 C 0.80135 0.70784 0.21781 0.0
C1251 C 0.82848 0.69997 0.20897 0.0
C1252 C 0.78397 0.72392 0.20008 0.0
C1253 C 0.79316 0.73186 0.17298 0.0
C1254 C 0.81989 0.72316 0.16384 0.0
C1255 C 0.83749 0.70771 0.18177 0.0
H1256 H 0.34419 0.79465 0.29015 0.0
H1257 H 0.40559 0.78729 0.22383 0.0
H1258 H 0.3106 0.76863 0.26217 0.0
H1259 H 0.37247 0.7606 0.19568 0.0
H1260 H 0.30492 0.74463 0.13401 0.0
H1261 H 0.33762 0.76681 0.16632 0.0
H1262 H 0.28306 0.74388 0.23594 0.0
H1263 H 0.24942 0.72483 0.20281 0.0
C1264 C 0.35103 0.78602 0.27012 0.0
C1265 C 0.37744 0.79342 0.25908 0.0
C1266 C 0.33123 0.77183 0.25333 0.0
C1267 C 0.33732 0.76474 0.22505 0.0
C1268 C 0.36562 0.7677 0.21621 0.0
C1269 C 0.38531 0.782 0.23293 0.0
C1270 C 0.29929 0.74598 0.15611 0.0
C1271 C 0.27441 0.73335 0.16581 0.0
C1272 C 0.31873 0.75759 0.17509 0.0
C1273 C 0.31448 0.75581 0.20456 0.0
C1274 C 0.28808 0.74556 0.21384 0.0
C1275 C 0.26821 0.73495 0.19467 0.0
H1276 H 0.67021 0.36253 0.20491 0.0
H1277 H 0.73877 0.30309 0.19693 0.0
H1278 H 0.64516 0.32951 0.23574 0.0
H1279 H 0.71392 0.27033 0.22824 0.0
H1280 H 0.6765 0.23083 0.30617 0.0
H1281 H 0.69799 0.27077 0.28149 0.0
H1282 H 0.62379 0.27848 0.2295 0.0
H1283 H 0.60273 0.23801 0.25373 0.0
C1284 C 0.67984 0.34233 0.20961 0.0
C1285 C 0.70635 0.33528 0.19831 0.0
C1286 C 0.66554 0.32353 0.22732 0.0
C1287 C 0.67777 0.29758 0.23467 0.0
C1288 C 0.70419 0.29041 0.22323 0.0
C1289 C 0.71823 0.30896 0.20501 0.0
C1290 C 0.66418 0.24209 0.29058 0.0
C1291 C 0.63764 0.23188 0.28236 0.0
C1292 C 0.67671 0.26453 0.27603 0.0
C1293 C 0.66269 0.27744 0.25335 0.0
C1294 C 0.63503 0.26898 0.24696 0.0
C1295 C 0.62277 0.24612 0.2611 0.0
loop_
_geom_bond_atom_site_label_1
_geom_bond_atom_site_label_2
_geom_bond_distance
_geom_bond_site_symmetry_2
_ccdc_geom_bond_type
C0 O2 1.247 . S
C0 O4 1.258 . S
C1 O8 1.247 . S
C1 O9 1.258 . S
O2 C0 1.247 . S
O2 Zn3 2.028 . S
Zn3 O2 2.028 . S
Zn3 O7 2.035 . S
Zn3 O9 2.035 . S
Zn3 O10 2.028 . S
O4 C0 1.258 . S
O4 Zn5 2.035 . S
Zn5 O4 2.035 . S
Zn5 O6 2.028 . S
Zn5 O8 2.028 . S
Zn5 O11 2.035 . S
O6 Zn5 2.028 . S
O6 C12 1.247 . S
O7 Zn3 2.035 . S
O7 C12 1.258 . S
O8 C1 1.247 . S
O8 Zn5 2.028 . S
O9 C1 1.258 . S
O9 Zn3 2.035 . S
O10 Zn3 2.028 . S
O10 C13 1.247 . S
O11 Zn5 2.035 . S
O11 C13 1.258 . S
C12 O6 1.247 . S
C12 O7 1.258 . S
C13 O10 1.247 . S
C13 O11 1.258 . S
C14 O16 1.247 . S
C14 O18 1.258 . S
C15 O22 1.247 . S
C15 O23 1.258 . S
O16 C14 1.247 . S
O16 Zn17 2.028 . S
Zn17 O16 2.028 . S
Zn17 O21 2.035 . S
Zn17 O23 2.035 . S
Zn17 O24 2.028 . S
O18 C14 1.258 . S
O18 Zn19 2.035 . S
Zn19 O18 2.035 . S
Zn19 O20 2.028 . S
Zn19 O22 2.028 . S
Zn19 O25 2.035 . S
O20 Zn19 2.028 . S
O20 C26 1.247 . S
O21 Zn17 2.035 . S
O21 C26 1.258 . S
O22 C15 1.247 . S
O22 Zn19 2.028 . S
O23 C15 1.258 . S
O23 Zn17 2.035 . S
O24 Zn17 2.028 . S
O24 C27 1.247 . S
O25 Zn19 2.035 . S
O25 C27 1.258 . S
C26 O20 1.247 . S
C26 O21 1.258 . S
C27 O24 1.247 . S
C27 O25 1.258 . S
C28 O30 1.247 . S
C28 O32 1.258 . S
C29 O36 1.247 . S
C29 O37 1.258 . S
O30 C28 1.247 . S
O30 Zn31 2.028 . S
Zn31 O30 2.028 . S
Zn31 O35 2.035 . S
Zn31 O37 2.035 . S
Zn31 O38 2.028 . S
O32 C28 1.258 . S
O32 Zn33 2.035 . S
Zn33 O32 2.035 . S
Zn33 O34 2.028 . S
Zn33 O36 2.028 . S
Zn33 O39 2.035 . S
O34 Zn33 2.028 . S
O34 C40 1.247 . S
O35 Zn31 2.035 . S
O35 C40 1.258 . S
O36 C29 1.247 . S
O36 Zn33 2.028 . S
O37 C29 1.258 . S
O37 Zn31 2.035 . S
O38 Zn31 2.028 . S
O38 C41 1.247 . S
O39 Zn33 2.035 . S
O39 C41 1.258 . S
C40 O34 1.247 . S
C40 O35 1.258 . S
C41 O38 1.247 . S
C41 O39 1.258 . S
C42 O44 1.247 . S
C42 O46 1.258 . S
C43 O50 1.247 . S
C43 O51 1.258 . S
O44 C42 1.247 . S
O44 Zn45 2.028 . S
Zn45 O44 2.028 . S
Zn45 O49 2.035 . S
Zn45 O51 2.035 . S
Zn45 O52 2.028 . S
O46 C42 1.258 . S
O46 Zn47 2.035 . S
Zn47 O46 2.035 . S
Zn47 O48 2.028 . S
Zn47 O50 2.028 . S
Zn47 O53 2.035 . S
O48 Zn47 2.028 . S
O48 C54 1.247 . S
O49 Zn45 2.035 . S
O49 C54 1.258 . S
O50 C43 1.247 . S
O50 Zn47 2.028 . S
O51 C43 1.258 . S
O51 Zn45 2.035 . S
O52 Zn45 2.028 . S
O52 C55 1.247 . S
O53 Zn47 2.035 . S
O53 C55 1.258 . S
C54 O48 1.247 . S
C54 O49 1.258 . S
C55 O52 1.247 . S
C55 O53 1.258 . S
C56 O58 1.247 . S
C56 O60 1.258 . S
C57 O64 1.247 . S
C57 O65 1.258 . S
O58 C56 1.247 . S
O58 Zn59 2.028 . S
Zn59 O58 2.028 . S
Zn59 O63 2.035 . S
Zn59 O65 2.035 . S
Zn59 O66 2.028 . S
O60 C56 1.258 . S
O60 Zn61 2.035 . S
Zn61 O60 2.035 . S
Zn61 O62 2.028 . S
Zn61 O64 2.028 . S
Zn61 O67 2.035 . S
O62 Zn61 2.028 . S
O62 C68 1.247 . S
O63 Zn59 2.035 . S
O63 C68 1.258 . S
O64 C57 1.247 . S
O64 Zn61 2.028 . S
O65 C57 1.258 . S
O65 Zn59 2.035 . S
O66 Zn59 2.028 . S
O66 C69 1.247 . S
O67 Zn61 2.035 . S
O67 C69 1.258 . S
C68 O62 1.247 . S
C68 O63 1.258 . S
C69 O66 1.247 . S
C69 O67 1.258 . S
C70 O72 1.247 . S
C70 O74 1.258 . S
C71 O78 1.247 . S
C71 O79 1.258 . S
O72 C70 1.247 . S
O72 Zn73 2.028 . S
Zn73 O72 2.028 . S
Zn73 O77 2.035 . S
Zn73 O79 2.035 . S
Zn73 O80 2.028 . S
O74 C70 1.258 . S
O74 Zn75 2.035 . S
Zn75 O74 2.035 . S
Zn75 O76 2.028 . S
Zn75 O78 2.028 . S
Zn75 O81 2.035 . S
O76 Zn75 2.028 . S
O76 C82 1.247 . S
O77 Zn73 2.035 . S
O77 C82 1.258 . S
O78 C71 1.247 . S
O78 Zn75 2.028 . S
O79 C71 1.258 . S
O79 Zn73 2.035 . S
O80 Zn73 2.028 . S
O80 C83 1.247 . S
O81 Zn75 2.035 . S
O81 C83 1.258 . S
C82 O76 1.247 . S
C82 O77 1.258 . S
C83 O80 1.247 . S
C83 O81 1.258 . S
C84 O86 1.247 . S
C84 O88 1.258 . S
C85 O92 1.247 . S
C85 O93 1.258 . S
O86 C84 1.247 . S
O86 Zn87 2.028 . S
Zn87 O86 2.028 . S
Zn87 O91 2.035 . S
Zn87 O93 2.035 . S
Zn87 O94 2.028 . S
O88 C84 1.258 . S
O88 Zn89 2.035 . S
Zn89 O88 2.035 . S
Zn89 O90 2.028 . S
Zn89 O92 2.028 . S
Zn89 O95 2.035 . S
O90 Zn89 2.028 . S
O90 C96 1.247 . S
O91 Zn87 2.035 . S
O91 C96 1.258 . S
O92 C85 1.247 . S
O92 Zn89 2.028 . S
O93 C85 1.258 . S
O93 Zn87 2.035 . S
O94 Zn87 2.028 . S
O94 C97 1.247 . S
O95 Zn89 2.035 . S
O95 C97 1.258 . S
C96 O90 1.247 . S
C96 O91 1.258 . S
C97 O94 1.247 . S
C97 O95 1.258 . S
C98 O100 1.247 . S
C98 O102 1.258 . S
C99 O106 1.247 . S
C99 O107 1.258 . S
O100 C98 1.247 . S
O100 Zn101 2.028 . S
Zn101 O100 2.028 . S
Zn101 O105 2.035 . S
Zn101 O107 2.035 . S
Zn101 O108 2.028 . S
O102 C98 1.258 . S
O102 Zn103 2.035 . S
Zn103 O102 2.035 . S
Zn103 O104 2.028 . S
Zn103 O106 2.028 . S
Zn103 O109 2.035 . S
O104 Zn103 2.028 . S
O104 C110 1.247 . S
O105 Zn101 2.035 . S
O105 C110 1.258 . S
O106 C99 1.247 . S
O106 Zn103 2.028 . S
O107 C99 1.258 . S
O107 Zn101 2.035 . S
O108 Zn101 2.028 . S
O108 C111 1.247 . S
O109 Zn103 2.035 . S
O109 C111 1.258 . S
C110 O104 1.247 . S
C110 O105 1.258 . S
C111 O108 1.247 . S
C111 O109 1.258 . S
C112 O114 1.247 . S
C112 O116 1.258 . S
C113 O120 1.247 . S
C113 O121 1.258 . S
O114 C112 1.247 . S
O114 Zn115 2.028 . S
Zn115 O114 2.028 . S
Zn115 O119 2.035 . S
Zn115 O121 2.035 . S
Zn115 O122 2.028 . S
O116 C112 1.258 . S
O116 Zn117 2.035 . S
Zn117 O116 2.035 . S
Zn117 O118 2.028 . S
Zn117 O120 2.028 . S
Zn117 O123 2.035 . S
O118 Zn117 2.028 . S
O118 C124 1.247 . S
O119 Zn115 2.035 . S
O119 C124 1.258 . S
O120 C113 1.247 . S
O120 Zn117 2.028 . S
O121 C113 1.258 . S
O121 Zn115 2.035 . S
O122 Zn115 2.028 . S
O122 C125 1.247 . S
O123 Zn117 2.035 . S
O123 C125 1.258 . S
C124 O118 1.247 . S
C124 O119 1.258 . S
C125 O122 1.247 . S
C125 O123 1.258 . S
C126 O128 1.247 . S
C126 O130 1.258 . S
C127 O134 1.247 . S
C127 O135 1.258 . S
O128 C126 1.247 . S
O128 Zn129 2.028 . S
Zn129 O128 2.028 . S
Zn129 O133 2.035 . S
Zn129 O135 2.035 . S
Zn129 O136 2.028 . S
O130 C126 1.258 . S
O130 Zn131 2.035 . S
Zn131 O130 2.035 . S
Zn131 O132 2.028 . S
Zn131 O134 2.028 . S
Zn131 O137 2.035 . S
O132 Zn131 2.028 . S
O132 C138 1.247 . S
O133 Zn129 2.035 . S
O133 C138 1.258 . S
O134 C127 1.247 . S
O134 Zn131 2.028 . S
O135 C127 1.258 . S
O135 Zn129 2.035 . S
O136 Zn129 2.028 . S
O136 C139 1.247 . S
O137 Zn131 2.035 . S
O137 C139 1.258 . S
C138 O132 1.247 . S
C138 O133 1.258 . S
C139 O136 1.247 . S
C139 O137 1.258 . S
C140 O142 1.247 . S
C140 O144 1.258 . S
C141 O148 1.247 . S
C141 O149 1.258 . S
O142 C140 1.247 . S
O142 Zn143 2.028 . S
Zn143 O142 2.028 . S
Zn143 O147 2.035 . S
Zn143 O149 2.035 . S
Zn143 O150 2.028 . S
O144 C140 1.258 . S
O144 Zn145 2.035 . S
Zn145 O144 2.035 . S
Zn145 O146 2.028 . S
Zn145 O148 2.028 . S
Zn145 O151 2.035 . S
O146 Zn145 2.028 . S
O146 C152 1.247 . S
O147 Zn143 2.035 . S
O147 C152 1.258 . S
O148 C141 1.247 . S
O148 Zn145 2.028 . S
O149 C141 1.258 . S
O149 Zn143 2.035 . S
O150 Zn143 2.028 . S
O150 C153 1.247 . S
O151 Zn145 2.035 . S
O151 C153 1.258 . S
C152 O146 1.247 . S
C152 O147 1.258 . S
C153 O150 1.247 . S
C153 O151 1.258 . S
C154 O156 1.247 . S
C154 O158 1.258 . S
C155 O162 1.247 . S
C155 O163 1.258 . S
O156 C154 1.247 . S
O156 Zn157 2.028 . S
Zn157 O156 2.028 . S
Zn157 O161 2.035 . S
Zn157 O163 2.035 . S
Zn157 O164 2.028 . S
O158 C154 1.258 . S
O158 Zn159 2.035 . S
Zn159 O158 2.035 . S
Zn159 O160 2.028 . S
Zn159 O162 2.028 . S
Zn159 O165 2.035 . S
O160 Zn159 2.028 . S
O160 C166 1.247 . S
O161 Zn157 2.035 . S
O161 C166 1.258 . S
O162 C155 1.247 . S
O162 Zn159 2.028 . S
O163 C155 1.258 . S
O163 Zn157 2.035 . S
O164 Zn157 2.028 . S
O164 C167 1.247 . S
O165 Zn159 2.035 . S
O165 C167 1.258 . S
C166 O160 1.247 . S
C166 O161 1.258 . S
C167 O164 1.247 . S
C167 O165 1.258 . S
C168 O170 1.247 . S
C168 O172 1.258 . S
C169 O176 1.247 . S
C169 O177 1.258 . S
O170 C168 1.247 . S
O170 Zn171 2.028 . S
Zn171 O170 2.028 . S
Zn171 O175 2.035 . S
Zn171 O177 2.035 . S
Zn171 O178 2.028 . S
O172 C168 1.258 . S
O172 Zn173 2.035 . S
Zn173 O172 2.035 . S
Zn173 O174 2.028 . S
Zn173 O176 2.028 . S
Zn173 O179 2.035 . S
O174 Zn173 2.028 . S
O174 C180 1.247 . S
O175 Zn171 2.035 . S
O175 C180 1.258 . S
O176 C169 1.247 . S
O176 Zn173 2.028 . S
O177 C169 1.258 . S
O177 Zn171 2.035 . S
O178 Zn171 2.028 . S
O178 C181 1.247 . S
O179 Zn173 2.035 . S
O179 C181 1.258 . S
C180 O174 1.247 . S
C180 O175 1.258 . S
C181 O178 1.247 . S
C181 O179 1.258 . S
C182 O184 1.247 . S
C182 O186 1.258 . S
C183 O190 1.247 . S
C183 O191 1.258 . S
O184 C182 1.247 . S
O184 Zn185 2.028 . S
Zn185 O184 2.028 . S
Zn185 O189 2.035 . S
Zn185 O191 2.035 . S
Zn185 O192 2.028 . S
O186 C182 1.258 . S
O186 Zn187 2.035 . S
Zn187 O186 2.035 . S
Zn187 O188 2.028 . S
Zn187 O190 2.028 . S
Zn187 O193 2.035 . S
O188 Zn187 2.028 . S
O188 C194 1.247 . S
O189 Zn185 2.035 . S
O189 C194 1.258 . S
O190 C183 1.247 . S
O190 Zn187 2.028 . S
O191 C183 1.258 . S
O191 Zn185 2.035 . S
O192 Zn185 2.028 . S
O192 C195 1.247 . S
O193 Zn187 2.035 . S
O193 C195 1.258 . S
C194 O188 1.247 . S
C194 O189 1.258 . S
C195 O192 1.247 . S
C195 O193 1.258 . S
C196 O198 1.247 . S
C196 O200 1.258 . S
C197 O204 1.247 . S
C197 O205 1.258 . S
O198 C196 1.247 . S
O198 Zn199 2.028 . S
Zn199 O198 2.028 . S
Zn199 O203 2.035 . S
Zn199 O205 2.035 . S
Zn199 O206 2.028 . S
O200 C196 1.258 . S
O200 Zn201 2.035 . S
Zn201 O200 2.035 . S
Zn201 O202 2.028 . S
Zn201 O204 2.028 . S
Zn201 O207 2.035 . S
O202 Zn201 2.028 . S
O202 C208 1.247 . S
O203 Zn199 2.035 . S
O203 C208 1.258 . S
O204 C197 1.247 . S
O204 Zn201 2.028 . S
O205 C197 1.258 . S
O205 Zn199 2.035 . S
O206 Zn199 2.028 . S
O206 C209 1.247 . S
O207 Zn201 2.035 . S
O207 C209 1.258 . S
C208 O202 1.247 . S
C208 O203 1.258 . S
C209 O206 1.247 . S
C209 O207 1.258 . S
C210 O212 1.247 . S
C210 O214 1.258 . S
C211 O218 1.247 . S
C211 O219 1.258 . S
O212 C210 1.247 . S
O212 Zn213 2.028 . S
Zn213 O212 2.028 . S
Zn213 O217 2.035 . S
Zn213 O219 2.035 . S
Zn213 O220 2.028 . S
O214 C210 1.258 . S
O214 Zn215 2.035 . S
Zn215 O214 2.035 . S
Zn215 O216 2.028 . S
Zn215 O218 2.028 . S
Zn215 O221 2.035 . S
O216 Zn215 2.028 . S
O216 C222 1.247 . S
O217 Zn213 2.035 . S
O217 C222 1.258 . S
O218 C211 1.247 . S
O218 Zn215 2.028 . S
O219 C211 1.258 . S
O219 Zn213 2.035 . S
O220 Zn213 2.028 . S
O220 C223 1.247 . S
O221 Zn215 2.035 . S
O221 C223 1.258 . S
C222 O216 1.247 . S
C222 O217 1.258 . S
C223 O220 1.247 . S
C223 O221 1.258 . S
C224 O226 1.247 . S
C224 O228 1.258 . S
C225 O232 1.247 . S
C225 O233 1.258 . S
O226 C224 1.247 . S
O226 Zn227 2.028 . S
Zn227 O226 2.028 . S
Zn227 O231 2.035 . S
Zn227 O233 2.035 . S
Zn227 O234 2.028 . S
O228 C224 1.258 . S
O228 Zn229 2.035 . S
Zn229 O228 2.035 . S
Zn229 O230 2.028 . S
Zn229 O232 2.028 . S
Zn229 O235 2.035 . S
O230 Zn229 2.028 . S
O230 C236 1.247 . S
O231 Zn227 2.035 . S
O231 C236 1.258 . S
O232 C225 1.247 . S
O232 Zn229 2.028 . S
O233 C225 1.258 . S
O233 Zn227 2.035 . S
O234 Zn227 2.028 . S
O234 C237 1.247 . S
O235 Zn229 2.035 . S
O235 C237 1.258 . S
C236 O230 1.247 . S
C236 O231 1.258 . S
C237 O234 1.247 . S
C237 O235 1.258 . S
C238 O240 1.247 . S
C238 O242 1.258 . S
C239 O246 1.247 . S
C239 O247 1.258 . S
O240 C238 1.247 . S
O240 Zn241 2.028 . S
Zn241 O240 2.028 . S
Zn241 O245 2.035 . S
Zn241 O247 2.035 . S
Zn241 O248 2.028 . S
O242 C238 1.258 . S
O242 Zn243 2.035 . S
Zn243 O242 2.035 . S
Zn243 O244 2.028 . S
Zn243 O246 2.028 . S
Zn243 O249 2.035 . S
O244 Zn243 2.028 . S
O244 C250 1.247 . S
O245 Zn241 2.035 . S
O245 C250 1.258 . S
O246 C239 1.247 . S
O246 Zn243 2.028 . S
O247 C239 1.258 . S
O247 Zn241 2.035 . S
O248 Zn241 2.028 . S
O248 C251 1.247 . S
O249 Zn243 2.035 . S
O249 C251 1.258 . S
C250 O244 1.247 . S
C250 O245 1.258 . S
C251 O248 1.247 . S
C251 O249 1.258 . S
C252 O254 1.247 . S
C252 O256 1.258 . S
C253 O260 1.247 . S
C253 O261 1.258 . S
O254 C252 1.247 . S
O254 Zn255 2.028 . S
Zn255 O254 2.028 . S
Zn255 O259 2.035 . S
Zn255 O261 2.035 . S
Zn255 O262 2.028 . S
O256 C252 1.258 . S
O256 Zn257 2.035 . S
Zn257 O256 2.035 . S
Zn257 O258 2.028 . S
Zn257 O260 2.028 . S
Zn257 O263 2.035 . S
O258 Zn257 2.028 . S
O258 C264 1.247 . S
O259 Zn255 2.035 . S
O259 C264 1.258 . S
O260 C253 1.247 . S
O260 Zn257 2.028 . S
O261 C253 1.258 . S
O261 Zn255 2.035 . S
O262 Zn255 2.028 . S
O262 C265 1.247 . S
O263 Zn257 2.035 . S
O263 C265 1.258 . S
C264 O258 1.247 . S
C264 O259 1.258 . S
C265 O262 1.247 . S
C265 O263 1.258 . S
C266 O268 1.247 . S
C266 O270 1.258 . S
C267 O274 1.247 . S
C267 O275 1.258 . S
O268 C266 1.247 . S
O268 Zn269 2.028 . S
Zn269 O268 2.028 . S
Zn269 O273 2.035 . S
Zn269 O275 2.035 . S
Zn269 O276 2.028 . S
O270 C266 1.258 . S
O270 Zn271 2.035 . S
Zn271 O270 2.035 . S
Zn271 O272 2.028 . S
Zn271 O274 2.028 . S
Zn271 O277 2.035 . S
O272 Zn271 2.028 . S
O272 C278 1.247 . S
O273 Zn269 2.035 . S
O273 C278 1.258 . S
O274 C267 1.247 . S
O274 Zn271 2.028 . S
O275 C267 1.258 . S
O275 Zn269 2.035 . S
O276 Zn269 2.028 . S
O276 C279 1.247 . S
O277 Zn271 2.035 . S
O277 C279 1.258 . S
C278 O272 1.247 . S
C278 O273 1.258 . S
C279 O276 1.247 . S
C279 O277 1.258 . S
C280 O282 1.247 . S
C280 O284 1.258 . S
C281 O288 1.247 . S
C281 O289 1.258 . S
O282 C280 1.247 . S
O282 Zn283 2.028 . S
Zn283 O282 2.028 . S
Zn283 O287 2.035 . S
Zn283 O289 2.035 . S
Zn283 O290 2.028 . S
O284 C280 1.258 . S
O284 Zn285 2.035 . S
Zn285 O284 2.035 . S
Zn285 O286 2.028 . S
Zn285 O288 2.028 . S
Zn285 O291 2.035 . S
O286 Zn285 2.028 . S
O286 C292 1.247 . S
O287 Zn283 2.035 . S
O287 C292 1.258 . S
O288 C281 1.247 . S
O288 Zn285 2.028 . S
O289 C281 1.258 . S
O289 Zn283 2.035 . S
O290 Zn283 2.028 . S
O290 C293 1.247 . S
O291 Zn285 2.035 . S
O291 C293 1.258 . S
C292 O286 1.247 . S
C292 O287 1.258 . S
C293 O290 1.247 . S
C293 O291 1.258 . S
C294 O296 1.247 . S
C294 O298 1.258 . S
C295 O302 1.247 . S
C295 O303 1.258 . S
O296 C294 1.247 . S
O296 Zn297 2.028 . S
Zn297 O296 2.028 . S
Zn297 O301 2.035 . S
Zn297 O303 2.035 . S
Zn297 O304 2.028 . S
O298 C294 1.258 . S
O298 Zn299 2.035 . S
Zn299 O298 2.035 . S
Zn299 O300 2.028 . S
Zn299 O302 2.028 . S
Zn299 O305 2.035 . S
O300 Zn299 2.028 . S
O300 C306 1.247 . S
O301 Zn297 2.035 . S
O301 C306 1.258 . S
O302 C295 1.247 . S
O302 Zn299 2.028 . S
O303 C295 1.258 . S
O303 Zn297 2.035 . S
O304 Zn297 2.028 . S
O304 C307 1.247 . S
O305 Zn299 2.035 . S
O305 C307 1.258 . S
C306 O300 1.247 . S
C306 O301 1.258 . S
C307 O304 1.247 . S
C307 O305 1.258 . S
C308 O310 1.247 . S
C308 O312 1.258 . S
C309 O316 1.247 . S
C309 O317 1.258 . S
O310 C308 1.247 . S
O310 Zn311 2.028 . S
Zn311 O310 2.028 . S
Zn311 O315 2.035 . S
Zn311 O317 2.035 . S
Zn311 O318 2.028 . S
O312 C308 1.258 . S
O312 Zn313 2.035 . S
Zn313 O312 2.035 . S
Zn313 O314 2.028 . S
Zn313 O316 2.028 . S
Zn313 O319 2.035 . S
O314 Zn313 2.028 . S
O314 C320 1.247 . S
O315 Zn311 2.035 . S
O315 C320 1.258 . S
O316 C309 1.247 . S
O316 Zn313 2.028 . S
O317 C309 1.258 . S
O317 Zn311 2.035 . S
O318 Zn311 2.028 . S
O318 C321 1.247 . S
O319 Zn313 2.035 . S
O319 C321 1.258 . S
C320 O314 1.247 . S
C320 O315 1.258 . S
C321 O318 1.247 . S
C321 O319 1.258 . S
C322 O324 1.247 . S
C322 O326 1.258 . S
C323 O330 1.247 . S
C323 O331 1.258 . S
O324 C322 1.247 . S
O324 Zn325 2.028 . S
Zn325 O324 2.028 . S
Zn325 O329 2.035 . S
Zn325 O331 2.035 . S
Zn325 O332 2.028 . S
O326 C322 1.258 . S
O326 Zn327 2.035 . S
Zn327 O326 2.035 . S
Zn327 O328 2.028 . S
Zn327 O330 2.028 . S
Zn327 O333 2.035 . S
O328 Zn327 2.028 . S
O328 C334 1.247 . S
O329 Zn325 2.035 . S
O329 C334 1.258 . S
O330 C323 1.247 . S
O330 Zn327 2.028 . S
O331 C323 1.258 . S
O331 Zn325 2.035 . S
O332 Zn325 2.028 . S
O332 C335 1.247 . S
O333 Zn327 2.035 . S
O333 C335 1.258 . S
C334 O328 1.247 . S
C334 O329 1.258 . S
C335 O332 1.247 . S
C335 O333 1.258 . S
H336 C344 0.950 . S
H337 C349 0.950 . S
H338 C346 0.950 . S
H339 C348 0.950 . S
H340 C350 0.950 . S
H341 C352 0.950 . S
H342 C354 0.950 . S
H343 C355 0.950 . S
C344 H336 0.950 . S
C344 C345 1.386 . S
C344 C346 1.391 . S
C345 C344 1.386 . S
C345 C349 1.393 . S
C346 H338 0.950 . S
C346 C344 1.391 . S
C346 C347 1.400 . S
C347 C346 1.400 . S
C347 C348 1.398 . S
C347 C353 1.491 . S
C348 H339 0.950 . S
C348 C347 1.398 . S
C348 C349 1.391 . S
C349 H337 0.950 . S
C349 C345 1.393 . S
C349 C348 1.391 . S
C350 H340 0.950 . S
C350 C351 1.386 . S
C350 C352 1.391 . S
C351 C350 1.386 . S
C351 C355 1.393 . S
C352 H341 0.950 . S
C352 C350 1.391 . S
C352 C353 1.400 . S
C353 C347 1.491 . S
C353 C352 1.400 . S
C353 C354 1.398 . S
C354 H342 0.950 . S
C354 C353 1.398 . S
C354 C355 1.391 . S
C355 H343 0.950 . S
C355 C351 1.393 . S
C355 C354 1.391 . S
H356 C364 0.950 . S
H357 C369 0.950 . S
H358 C366 0.950 . S
H359 C368 0.950 . S
H360 C370 0.950 . S
H361 C372 0.950 . S
H362 C374 0.950 . S
H363 C375 0.950 . S
C364 H356 0.950 . S
C364 C365 1.386 . S
C364 C366 1.391 . S
C365 C364 1.386 . S
C365 C369 1.393 . S
C366 H358 0.950 . S
C366 C364 1.391 . S
C366 C367 1.400 . S
C367 C366 1.400 . S
C367 C368 1.398 . S
C367 C373 1.491 . S
C368 H359 0.950 . S
C368 C367 1.398 . S
C368 C369 1.391 . S
C369 H357 0.950 . S
C369 C365 1.393 . S
C369 C368 1.391 . S
C370 H360 0.950 . S
C370 C371 1.386 . S
C370 C372 1.391 . S
C371 C370 1.386 . S
C371 C375 1.393 . S
C372 H361 0.950 . S
C372 C370 1.391 . S
C372 C373 1.400 . S
C373 C367 1.491 . S
C373 C372 1.400 . S
C373 C374 1.398 . S
C374 H362 0.950 . S
C374 C373 1.398 . S
C374 C375 1.391 . S
C375 H363 0.950 . S
C375 C371 1.393 . S
C375 C374 1.391 . S
H376 C384 0.950 . S
H377 C389 0.950 . S
H378 C386 0.950 . S
H379 C388 0.950 . S
H380 C390 0.950 . S
H381 C392 0.950 . S
H382 C394 0.950 . S
H383 C395 0.950 . S
C384 H376 0.950 . S
C384 C385 1.386 . S
C384 C386 1.391 . S
C385 C384 1.386 . S
C385 C389 1.393 . S
C386 H378 0.950 . S
C386 C384 1.391 . S
C386 C387 1.400 . S
C387 C386 1.400 . S
C387 C388 1.398 . S
C387 C393 1.491 . S
C388 H379 0.950 . S
C388 C387 1.398 . S
C388 C389 1.391 . S
C389 H377 0.950 . S
C389 C385 1.393 . S
C389 C388 1.391 . S
C390 H380 0.950 . S
C390 C391 1.386 . S
C390 C392 1.391 . S
C391 C390 1.386 . S
C391 C395 1.393 . S
C392 H381 0.950 . S
C392 C390 1.391 . S
C392 C393 1.400 . S
C393 C387 1.491 . S
C393 C392 1.400 . S
C393 C394 1.398 . S
C394 H382 0.950 . S
C394 C393 1.398 . S
C394 C395 1.391 . S
C395 H383 0.950 . S
C395 C391 1.393 . S
C395 C394 1.391 . S
H396 C404 0.950 . S
H397 C409 0.950 . S
H398 C406 0.950 . S
H399 C408 0.950 . S
H400 C410 0.950 . S
H401 C412 0.950 . S
H402 C414 0.950 . S
H403 C415 0.950 . S
C404 H396 0.950 . S
C404 C405 1.386 . S
C404 C406 1.391 . S
C405 C404 1.386 . S
C405 C409 1.393 . S
C406 H398 0.950 . S
C406 C404 1.391 . S
C406 C407 1.400 . S
C407 C406 1.400 . S
C407 C408 1.398 . S
C407 C413 1.491 . S
C408 H399 0.950 . S
C408 C407 1.398 . S
C408 C409 1.391 . S
C409 H397 0.950 . S
C409 C405 1.393 . S
C409 C408 1.391 . S
C410 H400 0.950 . S
C410 C411 1.386 . S
C410 C412 1.391 . S
C411 C410 1.386 . S
C411 C415 1.393 . S
C412 H401 0.950 . S
C412 C410 1.391 . S
C412 C413 1.400 . S
C413 C407 1.491 . S
C413 C412 1.400 . S
C413 C414 1.398 . S
C414 H402 0.950 . S
C414 C413 1.398 . S
C414 C415 1.391 . S
C415 H403 0.950 . S
C415 C411 1.393 . S
C415 C414 1.391 . S
H416 C424 0.950 . S
H417 C429 0.950 . S
H418 C426 0.950 . S
H419 C428 0.950 . S
H420 C430 0.950 . S
H421 C432 0.950 . S
H422 C434 0.950 . S
H423 C435 0.950 . S
C424 H416 0.950 . S
C424 C425 1.386 . S
C424 C426 1.391 . S
C425 C424 1.386 . S
C425 C429 1.393 . S
C426 H418 0.950 . S
C426 C424 1.391 . S
C426 C427 1.400 . S
C427 C426 1.400 . S
C427 C428 1.398 . S
C427 C433 1.491 . S
C428 H419 0.950 . S
C428 C427 1.398 . S
C428 C429 1.391 . S
C429 H417 0.950 . S
C429 C425 1.393 . S
C429 C428 1.391 . S
C430 H420 0.950 . S
C430 C431 1.386 . S
C430 C432 1.391 . S
C431 C430 1.386 . S
C431 C435 1.393 . S
C432 H421 0.950 . S
C432 C430 1.391 . S
C432 C433 1.400 . S
C433 C427 1.491 . S
C433 C432 1.400 . S
C433 C434 1.398 . S
C434 H422 0.950 . S
C434 C433 1.398 . S
C434 C435 1.391 . S
C435 H423 0.950 . S
C435 C431 1.393 . S
C435 C434 1.391 . S
H436 C444 0.950 . S
H437 C449 0.950 . S
H438 C446 0.950 . S
H439 C448 0.950 . S
H440 C450 0.950 . S
H441 C452 0.950 . S
H442 C454 0.950 . S
H443 C455 0.950 . S
C444 H436 0.950 . S
C444 C445 1.386 . S
C444 C446 1.391 . S
C445 C444 1.386 . S
C445 C449 1.393 . S
C446 H438 0.950 . S
C446 C444 1.391 . S
C446 C447 1.400 . S
C447 C446 1.400 . S
C447 C448 1.398 . S
C447 C453 1.491 . S
C448 H439 0.950 . S
C448 C447 1.398 . S
C448 C449 1.391 . S
C449 H437 0.950 . S
C449 C445 1.393 . S
C449 C448 1.391 . S
C450 H440 0.950 . S
C450 C451 1.386 . S
C450 C452 1.391 . S
C451 C450 1.386 . S
C451 C455 1.393 . S
C452 H441 0.950 . S
C452 C450 1.391 . S
C452 C453 1.400 . S
C453 C447 1.491 . S
C453 C452 1.400 . S
C453 C454 1.398 . S
C454 H442 0.950 . S
C454 C453 1.398 . S
C454 C455 1.391 . S
C455 H443 0.950 . S
C455 C451 1.393 . S
C455 C454 1.391 . S
H456 C464 0.950 . S
H457 C469 0.950 . S
H458 C466 0.950 . S
H459 C468 0.950 . S
H460 C470 0.950 . S
H461 C472 0.950 . S
H462 C474 0.950 . S
H463 C475 0.950 . S
C464 H456 0.950 . S
C464 C465 1.386 . S
C464 C466 1.391 . S
C465 C464 1.386 . S
C465 C469 1.393 . S
C466 H458 0.950 . S
C466 C464 1.391 . S
C466 C467 1.400 . S
C467 C466 1.400 . S
C467 C468 1.398 . S
C467 C473 1.491 . S
C468 H459 0.950 . S
C468 C467 1.398 . S
C468 C469 1.391 . S
C469 H457 0.950 . S
C469 C465 1.393 . S
C469 C468 1.391 . S
C470 H460 0.950 . S
C470 C471 1.386 . S
C470 C472 1.391 . S
C471 C470 1.386 . S
C471 C475 1.393 . S
C472 H461 0.950 . S
C472 C470 1.391 . S
C472 C473 1.400 . S
C473 C467 1.491 . S
C473 C472 1.400 . S
C473 C474 1.398 . S
C474 H462 0.950 . S
C474 C473 1.398 . S
C474 C475 1.391 . S
C475 H463 0.950 . S
C475 C471 1.393 . S
C475 C474 1.391 . S
H476 C484 0.950 . S
H477 C489 0.950 . S
H478 C486 0.950 . S
H479 C488 0.950 . S
H480 C490 0.950 . S
H481 C492 0.950 . S
H482 C494 0.950 . S
H483 C495 0.950 . S
C484 H476 0.950 . S
C484 C485 1.386 . S
C484 C486 1.391 . S
C485 C484 1.386 . S
C485 C489 1.393 . S
C486 H478 0.950 . S
C486 C484 1.391 . S
C486 C487 1.400 . S
C487 C486 1.400 . S
C487 C488 1.398 . S
C487 C493 1.491 . S
C488 H479 0.950 . S
C488 C487 1.398 . S
C488 C489 1.391 . S
C489 H477 0.950 . S
C489 C485 1.393 . S
C489 C488 1.391 . S
C490 H480 0.950 . S
C490 C491 1.386 . S
C490 C492 1.391 . S
C491 C490 1.386 . S
C491 C495 1.393 . S
C492 H481 0.950 . S
C492 C490 1.391 . S
C492 C493 1.400 . S
C493 C487 1.491 . S
C493 C492 1.400 . S
C493 C494 1.398 . S
C494 H482 0.950 . S
C494 C493 1.398 . S
C494 C495 1.391 . S
C495 H483 0.950 . S
C495 C491 1.393 . S
C495 C494 1.391 . S
H496 C504 0.950 . S
H497 C509 0.950 . S
H498 C506 0.950 . S
H499 C508 0.950 . S
H500 C510 0.950 . S
H501 C512 0.950 . S
H502 C514 0.950 . S
H503 C515 0.950 . S
C504 H496 0.950 . S
C504 C505 1.386 . S
C504 C506 1.391 . S
C505 C504 1.386 . S
C505 C509 1.393 . S
C506 H498 0.950 . S
C506 C504 1.391 . S
C506 C507 1.400 . S
C507 C506 1.400 . S
C507 C508 1.398 . S
C507 C513 1.491 . S
C508 H499 0.950 . S
C508 C507 1.398 . S
C508 C509 1.391 . S
C509 H497 0.950 . S
C509 C505 1.393 . S
C509 C508 1.391 . S
C510 H500 0.950 . S
C510 C511 1.386 . S
C510 C512 1.391 . S
C511 C510 1.386 . S
C511 C515 1.393 . S
C512 H501 0.950 . S
C512 C510 1.391 . S
C512 C513 1.400 . S
C513 C507 1.491 . S
C513 C512 1.400 . S
C513 C514 1.398 . S
C514 H502 0.950 . S
C514 C513 1.398 . S
C514 C515 1.391 . S
C515 H503 0.950 . S
C515 C511 1.393 . S
C515 C514 1.391 . S
H516 C524 0.950 . S
H517 C529 0.950 . S
H518 C526 0.950 . S
H519 C528 0.950 . S
H520 C530 0.950 . S
H521 C532 0.950 . S
H522 C534 0.950 . S
H523 C535 0.950 . S
C524 H516 0.950 . S
C524 C525 1.386 . S
C524 C526 1.391 . S
C525 C524 1.386 . S
C525 C529 1.393 . S
C526 H518 0.950 . S
C526 C524 1.391 . S
C526 C527 1.400 . S
C527 C526 1.400 . S
C527 C528 1.398 . S
C527 C533 1.491 . S
C528 H519 0.950 . S
C528 C527 1.398 . S
C528 C529 1.391 . S
C529 H517 0.950 . S
C529 C525 1.393 . S
C529 C528 1.391 . S
C530 H520 0.950 . S
C530 C531 1.386 . S
C530 C532 1.391 . S
C531 C530 1.386 . S
C531 C535 1.393 . S
C532 H521 0.950 . S
C532 C530 1.391 . S
C532 C533 1.400 . S
C533 C527 1.491 . S
C533 C532 1.400 . S
C533 C534 1.398 . S
C534 H522 0.950 . S
C534 C533 1.398 . S
C534 C535 1.391 . S
C535 H523 0.950 . S
C535 C531 1.393 . S
C535 C534 1.391 . S
H536 C544 0.950 . S
H537 C549 0.950 . S
H538 C546 0.950 . S
H539 C548 0.950 . S
H540 C550 0.950 . S
H541 C552 0.950 . S
H542 C554 0.950 . S
H543 C555 0.950 . S
C544 H536 0.950 . S
C544 C545 1.386 . S
C544 C546 1.391 . S
C545 C544 1.386 . S
C545 C549 1.393 . S
C546 H538 0.950 . S
C546 C544 1.391 . S
C546 C547 1.400 . S
C547 C546 1.400 . S
C547 C548 1.398 . S
C547 C553 1.491 . S
C548 H539 0.950 . S
C548 C547 1.398 . S
C548 C549 1.391 . S
C549 H537 0.950 . S
C549 C545 1.393 . S
C549 C548 1.391 . S
C550 H540 0.950 . S
C550 C551 1.386 . S
C550 C552 1.391 . S
C551 C550 1.386 . S
C551 C555 1.393 . S
C552 H541 0.950 . S
C552 C550 1.391 . S
C552 C553 1.400 . S
C553 C547 1.491 . S
C553 C552 1.400 . S
C553 C554 1.398 . S
C554 H542 0.950 . S
C554 C553 1.398 . S
C554 C555 1.391 . S
C555 H543 0.950 . S
C555 C551 1.393 . S
C555 C554 1.391 . S
H556 C564 0.950 . S
H557 C569 0.950 . S
H558 C566 0.950 . S
H559 C568 0.950 . S
H560 C570 0.950 . S
H561 C572 0.950 . S
H562 C574 0.950 . S
H563 C575 0.950 . S
C564 H556 0.950 . S
C564 C565 1.386 . S
C564 C566 1.391 . S
C565 C564 1.386 . S
C565 C569 1.393 . S
C566 H558 0.950 . S
C566 C564 1.391 . S
C566 C567 1.400 . S
C567 C566 1.400 . S
C567 C568 1.398 . S
C567 C573 1.491 . S
C568 H559 0.950 . S
C568 C567 1.398 . S
C568 C569 1.391 . S
C569 H557 0.950 . S
C569 C565 1.393 . S
C569 C568 1.391 . S
C570 H560 0.950 . S
C570 C571 1.386 . S
C570 C572 1.391 . S
C571 C570 1.386 . S
C571 C575 1.393 . S
C572 H561 0.950 . S
C572 C570 1.391 . S
C572 C573 1.400 . S
C573 C567 1.491 . S
C573 C572 1.400 . S
C573 C574 1.398 . S
C574 H562 0.950 . S
C574 C573 1.398 . S
C574 C575 1.391 . S
C575 H563 0.950 . S
C575 C571 1.393 . S
C575 C574 1.391 . S
H576 C584 0.950 . S
H577 C589 0.950 . S
H578 C586 0.950 1_545 S
H579 C588 0.950 . S
H580 C590 0.950 . S
H581 C592 0.950 1_565 S
H582 C594 0.950 . S
H583 C595 0.950 . S
C584 H576 0.950 . S
C584 C585 1.386 . S
C584 C586 1.391 . S
C585 C584 1.386 . S
C585 C589 1.393 . S
C586 H578 0.950 1_565 S
C586 C584 1.391 . S
C586 C587 1.400 . S
C587 C586 1.400 . S
C587 C588 1.398 . S
C587 C593 1.491 1_565 S
C588 H579 0.950 . S
C588 C587 1.398 . S
C588 C589 1.391 . S
C589 H577 0.950 . S
C589 C585 1.393 . S
C589 C588 1.391 . S
C590 H580 0.950 . S
C590 C591 1.386 . S
C590 C592 1.391 . S
C591 C590 1.386 . S
C591 C595 1.393 . S
C592 H581 0.950 1_545 S
C592 C590 1.391 . S
C592 C593 1.400 . S
C593 C587 1.491 1_545 S
C593 C592 1.400 . S
C593 C594 1.398 . S
C594 H582 0.950 . S
C594 C593 1.398 . S
C594 C595 1.391 . S
C595 H583 0.950 . S
C595 C591 1.393 . S
C595 C594 1.391 . S
H596 C604 0.950 . S
H597 C609 0.950 . S
H598 C606 0.950 . S
H599 C608 0.950 1_455 S
H600 C610 0.950 . S
H601 C612 0.950 . S
H602 C614 0.950 1_655 S
H603 C615 0.950 . S
C604 H596 0.950 . S
C604 C605 1.386 . S
C604 C606 1.391 . S
C605 C604 1.386 . S
C605 C609 1.393 . S
C606 H598 0.950 . S
C606 C604 1.391 . S
C606 C607 1.400 . S
C607 C606 1.400 . S
C607 C608 1.398 . S
C607 C613 1.491 1_655 S
C608 H599 0.950 1_655 S
C608 C607 1.398 . S
C608 C609 1.391 . S
C609 H597 0.950 . S
C609 C605 1.393 . S
C609 C608 1.391 . S
C610 H600 0.950 . S
C610 C611 1.386 . S
C610 C612 1.391 . S
C611 C610 1.386 . S
C611 C615 1.393 . S
C612 H601 0.950 . S
C612 C610 1.391 . S
C612 C613 1.400 . S
C613 C607 1.491 1_455 S
C613 C612 1.400 . S
C613 C614 1.398 . S
C614 H602 0.950 1_455 S
C614 C613 1.398 . S
C614 C615 1.391 . S
C615 H603 0.950 . S
C615 C611 1.393 . S
C615 C614 1.391 . S
H616 C624 0.950 . S
H617 C629 0.950 . S
H618 C626 0.950 . S
H619 C628 0.950 . S
H620 C630 0.950 . S
H621 C632 0.950 . S
H622 C634 0.950 . S
H623 C635 0.950 . S
C624 H616 0.950 . S
C624 C625 1.386 . S
C624 C626 1.391 . S
C625 C624 1.386 . S
C625 C629 1.393 . S
C626 H618 0.950 . S
C626 C624 1.391 . S
C626 C627 1.400 . S
C627 C626 1.400 . S
C627 C628 1.398 . S
C627 C633 1.491 1_545 S
C628 H619 0.950 . S
C628 C627 1.398 . S
C628 C629 1.391 . S
C629 H617 0.950 . S
C629 C625 1.393 . S
C629 C628 1.391 . S
C630 H620 0.950 . S
C630 C631 1.386 . S
C630 C632 1.391 . S
C631 C630 1.386 . S
C631 C635 1.393 . S
C632 H621 0.950 . S
C632 C630 1.391 . S
C632 C633 1.400 . S
C633 C627 1.491 1_565 S
C633 C632 1.400 . S
C633 C634 1.398 . S
C634 H622 0.950 . S
C634 C633 1.398 . S
C634 C635 1.391 . S
C635 H623 0.950 . S
C635 C631 1.393 . S
C635 C634 1.391 . S
H636 C644 0.950 . S
H637 C649 0.950 . S
H638 C646 0.950 . S
H639 C648 0.950 . S
H640 C650 0.950 . S
H641 C652 0.950 . S
H642 C654 0.950 . S
H643 C655 0.950 . S
C644 H636 0.950 . S
C644 C645 1.386 . S
C644 C646 1.391 . S
C645 C644 1.386 . S
C645 C649 1.393 . S
C646 H638 0.950 . S
C646 C644 1.391 . S
C646 C647 1.400 . S
C647 C646 1.400 . S
C647 C648 1.398 . S
C647 C653 1.491 1_455 S
C648 H639 0.950 . S
C648 C647 1.398 . S
C648 C649 1.391 . S
C649 H637 0.950 . S
C649 C645 1.393 . S
C649 C648 1.391 . S
C650 H640 0.950 . S
C650 C651 1.386 . S
C650 C652 1.391 . S
C651 C650 1.386 . S
C651 C655 1.393 . S
C652 H641 0.950 . S
C652 C650 1.391 . S
C652 C653 1.400 . S
C653 C647 1.491 1_655 S
C653 C652 1.400 . S
C653 C654 1.398 . S
C654 H642 0.950 . S
C654 C653 1.398 . S
C654 C655 1.391 . S
C655 H643 0.950 . S
C655 C651 1.393 . S
C655 C654 1.391 . S
H656 C664 0.950 . S
H657 C669 0.950 . S
H658 C666 0.950 1_545 S
H659 C668 0.950 . S
H660 C670 0.950 . S
H661 C672 0.950 1_565 S
H662 C674 0.950 . S
H663 C675 0.950 . S
C664 H656 0.950 . S
C664 C665 1.386 . S
C664 C666 1.391 . S
C665 C664 1.386 . S
C665 C669 1.393 . S
C666 H658 0.950 1_565 S
C666 C664 1.391 . S
C666 C667 1.400 . S
C667 C666 1.400 . S
C667 C668 1.398 . S
C667 C673 1.491 1_565 S
C668 H659 0.950 . S
C668 C667 1.398 . S
C668 C669 1.391 . S
C669 H657 0.950 . S
C669 C665 1.393 . S
C669 C668 1.391 . S
C670 H660 0.950 . S
C670 C671 1.386 . S
C670 C672 1.391 . S
C671 C670 1.386 . S
C671 C675 1.393 . S
C672 H661 0.950 1_545 S
C672 C670 1.391 . S
C672 C673 1.400 . S
C673 C667 1.491 1_545 S
C673 C672 1.400 . S
C673 C674 1.398 . S
C674 H662 0.950 . S
C674 C673 1.398 . S
C674 C675 1.391 . S
C675 H663 0.950 . S
C675 C671 1.393 . S
C675 C674 1.391 . S
H676 C684 0.950 . S
H677 C689 0.950 . S
H678 C686 0.950 . S
H679 C688 0.950 1_455 S
H680 C690 0.950 . S
H681 C692 0.950 . S
H682 C694 0.950 1_655 S
H683 C695 0.950 . S
C684 H676 0.950 . S
C684 C685 1.386 . S
C684 C686 1.391 . S
C685 C684 1.386 . S
C685 C689 1.393 . S
C686 H678 0.950 . S
C686 C684 1.391 . S
C686 C687 1.400 . S
C687 C686 1.400 . S
C687 C688 1.398 . S
C687 C693 1.491 1_655 S
C688 H679 0.950 1_655 S
C688 C687 1.398 . S
C688 C689 1.391 . S
C689 H677 0.950 . S
C689 C685 1.393 . S
C689 C688 1.391 . S
C690 H680 0.950 . S
C690 C691 1.386 . S
C690 C692 1.391 . S
C691 C690 1.386 . S
C691 C695 1.393 . S
C692 H681 0.950 . S
C692 C690 1.391 . S
C692 C693 1.400 . S
C693 C687 1.491 1_455 S
C693 C692 1.400 . S
C693 C694 1.398 . S
C694 H682 0.950 1_455 S
C694 C693 1.398 . S
C694 C695 1.391 . S
C695 H683 0.950 . S
C695 C691 1.393 . S
C695 C694 1.391 . S
H696 C704 0.950 . S
H697 C709 0.950 . S
H698 C706 0.950 . S
H699 C708 0.950 . S
H700 C710 0.950 . S
H701 C712 0.950 . S
H702 C714 0.950 . S
H703 C715 0.950 . S
C704 H696 0.950 . S
C704 C705 1.386 . S
C704 C706 1.391 . S
C705 C704 1.386 . S
C705 C709 1.393 . S
C706 H698 0.950 . S
C706 C704 1.391 . S
C706 C707 1.400 . S
C707 C706 1.400 . S
C707 C708 1.398 . S
C707 C713 1.491 1_565 S
C708 H699 0.950 . S
C708 C707 1.398 . S
C708 C709 1.391 . S
C709 H697 0.950 . S
C709 C705 1.393 . S
C709 C708 1.391 . S
C710 H700 0.950 . S
C710 C711 1.386 . S
C710 C712 1.391 . S
C711 C710 1.386 . S
C711 C715 1.393 . S
C712 H701 0.950 . S
C712 C710 1.391 . S
C712 C713 1.400 . S
C713 C707 1.491 1_545 S
C713 C712 1.400 . S
C713 C714 1.398 . S
C714 H702 0.950 . S
C714 C713 1.398 . S
C714 C715 1.391 . S
C715 H703 0.950 . S
C715 C711 1.393 . S
C715 C714 1.391 . S
H716 C724 0.950 . S
H717 C729 0.950 . S
H718 C726 0.950 . S
H719 C728 0.950 . S
H720 C730 0.950 . S
H721 C732 0.950 . S
H722 C734 0.950 . S
H723 C735 0.950 . S
C724 H716 0.950 . S
C724 C725 1.386 . S
C724 C726 1.391 . S
C725 C724 1.386 . S
C725 C729 1.393 . S
C726 H718 0.950 . S
C726 C724 1.391 . S
C726 C727 1.400 . S
C727 C726 1.400 . S
C727 C728 1.398 . S
C727 C733 1.491 1_455 S
C728 H719 0.950 . S
C728 C727 1.398 . S
C728 C729 1.391 . S
C729 H717 0.950 . S
C729 C725 1.393 . S
C729 C728 1.391 . S
C730 H720 0.950 . S
C730 C731 1.386 . S
C730 C732 1.391 . S
C731 C730 1.386 . S
C731 C735 1.393 . S
C732 H721 0.950 . S
C732 C730 1.391 . S
C732 C733 1.400 . S
C733 C727 1.491 1_655 S
C733 C732 1.400 . S
C733 C734 1.398 . S
C734 H722 0.950 . S
C734 C733 1.398 . S
C734 C735 1.391 . S
C735 H723 0.950 . S
C735 C731 1.393 . S
C735 C734 1.391 . S
H736 C744 0.950 . S
H737 C749 0.950 . S
H738 C746 0.950 . S
H739 C748 0.950 1_554 S
H740 C750 0.950 . S
H741 C752 0.950 . S
H742 C754 0.950 1_556 S
H743 C755 0.950 . S
C744 H736 0.950 . S
C744 C745 1.386 . S
C744 C746 1.391 . S
C745 C744 1.386 . S
C745 C749 1.393 . S
C746 H738 0.950 . S
C746 C744 1.391 . S
C746 C747 1.400 . S
C747 C746 1.400 . S
C747 C748 1.398 . S
C747 C753 1.491 1_556 S
C748 H739 0.950 1_556 S
C748 C747 1.398 . S
C748 C749 1.391 . S
C749 H737 0.950 . S
C749 C745 1.393 . S
C749 C748 1.391 . S
C750 H740 0.950 . S
C750 C751 1.386 . S
C750 C752 1.391 . S
C751 C750 1.386 . S
C751 C755 1.393 . S
C752 H741 0.950 . S
C752 C750 1.391 . S
C752 C753 1.400 . S
C753 C747 1.491 1_554 S
C753 C752 1.400 . S
C753 C754 1.398 . S
C754 H742 0.950 1_554 S
C754 C753 1.398 . S
C754 C755 1.391 . S
C755 H743 0.950 . S
C755 C751 1.393 . S
C755 C754 1.391 . S
H756 C764 0.950 . S
H757 C769 0.950 . S
H758 C766 0.950 . S
H759 C768 0.950 . S
H760 C770 0.950 . S
H761 C772 0.950 . S
H762 C774 0.950 . S
H763 C775 0.950 . S
C764 H756 0.950 . S
C764 C765 1.386 . S
C764 C766 1.391 . S
C765 C764 1.386 . S
C765 C769 1.393 . S
C766 H758 0.950 . S
C766 C764 1.391 . S
C766 C767 1.400 . S
C767 C766 1.400 . S
C767 C768 1.398 . S
C767 C773 1.491 1_554 S
C768 H759 0.950 . S
C768 C767 1.398 . S
C768 C769 1.391 . S
C769 H757 0.950 . S
C769 C765 1.393 . S
C769 C768 1.391 . S
C770 H760 0.950 . S
C770 C771 1.386 . S
C770 C772 1.391 . S
C771 C770 1.386 . S
C771 C775 1.393 . S
C772 H761 0.950 . S
C772 C770 1.391 . S
C772 C773 1.400 . S
C773 C767 1.491 1_556 S
C773 C772 1.400 . S
C773 C774 1.398 . S
C774 H762 0.950 . S
C774 C773 1.398 . S
C774 C775 1.391 . S
C775 H763 0.950 . S
C775 C771 1.393 . S
C775 C774 1.391 . S
H776 C784 0.950 . S
H777 C789 0.950 . S
H778 C786 0.950 . S
H779 C788 0.950 1_554 S
H780 C790 0.950 . S
H781 C792 0.950 . S
H782 C794 0.950 1_556 S
H783 C795 0.950 . S
C784 H776 0.950 . S
C784 C785 1.386 . S
C784 C786 1.391 . S
C785 C784 1.386 . S
C785 C789 1.393 . S
C786 H778 0.950 . S
C786 C784 1.391 . S
C786 C787 1.400 . S
C787 C786 1.400 . S
C787 C788 1.398 . S
C787 C793 1.491 1_556 S
C788 H779 0.950 1_556 S
C788 C787 1.398 . S
C788 C789 1.391 . S
C789 H777 0.950 . S
C789 C785 1.393 . S
C789 C788 1.391 . S
C790 H780 0.950 . S
C790 C791 1.386 . S
C790 C792 1.391 . S
C791 C790 1.386 . S
C791 C795 1.393 . S
C792 H781 0.950 . S
C792 C790 1.391 . S
C792 C793 1.400 . S
C793 C787 1.491 1_554 S
C793 C792 1.400 . S
C793 C794 1.398 . S
C794 H782 0.950 1_554 S
C794 C793 1.398 . S
C794 C795 1.391 . S
C795 H783 0.950 . S
C795 C791 1.393 . S
C795 C794 1.391 . S
H796 C804 0.950 . S
H797 C809 0.950 . S
H798 C806 0.950 . S
H799 C808 0.950 . S
H800 C810 0.950 . S
H801 C812 0.950 . S
H802 C814 0.950 . S
H803 C815 0.950 . S
C804 H796 0.950 . S
C804 C805 1.386 . S
C804 C806 1.391 . S
C805 C804 1.386 . S
C805 C809 1.393 . S
C806 H798 0.950 . S
C806 C804 1.391 . S
C806 C807 1.400 . S
C807 C806 1.400 . S
C807 C808 1.398 . S
C807 C813 1.491 1_554 S
C808 H799 0.950 . S
C808 C807 1.398 . S
C808 C809 1.391 . S
C809 H797 0.950 . S
C809 C805 1.393 . S
C809 C808 1.391 . S
C810 H800 0.950 . S
C810 C811 1.386 . S
C810 C812 1.391 . S
C811 C810 1.386 . S
C811 C815 1.393 . S
C812 H801 0.950 . S
C812 C810 1.391 . S
C812 C813 1.400 . S
C813 C807 1.491 1_556 S
C813 C812 1.400 . S
C813 C814 1.398 . S
C814 H802 0.950 . S
C814 C813 1.398 . S
C814 C815 1.391 . S
C815 H803 0.950 . S
C815 C811 1.393 . S
C815 C814 1.391 . S
H816 C824 0.950 . S
H817 C829 0.950 . S
H818 C826 0.950 . S
H819 C828 0.950 . S
H820 C830 0.950 . S
H821 C832 0.950 . S
H822 C834 0.950 . S
H823 C835 0.950 . S
C824 H816 0.950 . S
C824 C825 1.386 . S
C824 C826 1.391 . S
C825 C824 1.386 . S
C825 C829 1.393 . S
C826 H818 0.950 . S
C826 C824 1.391 . S
C826 C827 1.400 . S
C827 C826 1.400 . S
C827 C828 1.398 . S
C827 C833 1.491 . S
C828 H819 0.950 . S
C828 C827 1.398 . S
C828 C829 1.391 . S
C829 H817 0.950 . S
C829 C825 1.393 . S
C829 C828 1.391 . S
C830 H820 0.950 . S
C830 C831 1.386 . S
C830 C832 1.391 . S
C831 C830 1.386 . S
C831 C835 1.393 . S
C832 H821 0.950 . S
C832 C830 1.391 . S
C832 C833 1.400 . S
C833 C827 1.491 . S
C833 C832 1.400 . S
C833 C834 1.398 . S
C834 H822 0.950 . S
C834 C833 1.398 . S
C834 C835 1.391 . S
C835 H823 0.950 . S
C835 C831 1.393 . S
C835 C834 1.391 . S
H836 C844 0.950 . S
H837 C849 0.950 . S
H838 C846 0.950 . S
H839 C848 0.950 . S
H840 C850 0.950 . S
H841 C852 0.950 . S
H842 C854 0.950 . S
H843 C855 0.950 . S
C844 H836 0.950 . S
C844 C845 1.386 . S
C844 C846 1.391 . S
C845 C844 1.386 . S
C845 C849 1.393 . S
C846 H838 0.950 . S
C846 C844 1.391 . S
C846 C847 1.400 . S
C847 C846 1.400 . S
C847 C848 1.398 . S
C847 C853 1.491 . S
C848 H839 0.950 . S
C848 C847 1.398 . S
C848 C849 1.391 . S
C849 H837 0.950 . S
C849 C845 1.393 . S
C849 C848 1.391 . S
C850 H840 0.950 . S
C850 C851 1.386 . S
C850 C852 1.391 . S
C851 C850 1.386 . S
C851 C855 1.393 . S
C852 H841 0.950 . S
C852 C850 1.391 . S
C852 C853 1.400 . S
C853 C847 1.491 . S
C853 C852 1.400 . S
C853 C854 1.398 . S
C854 H842 0.950 . S
C854 C853 1.398 . S
C854 C855 1.391 . S
C855 H843 0.950 . S
C855 C851 1.393 . S
C855 C854 1.391 . S
H856 C864 0.950 . S
H857 C869 0.950 . S
H858 C866 0.950 . S
H859 C868 0.950 . S
H860 C870 0.950 . S
H861 C872 0.950 . S
H862 C874 0.950 . S
H863 C875 0.950 . S
C864 H856 0.950 . S
C864 C865 1.386 . S
C864 C866 1.391 . S
C865 C864 1.386 . S
C865 C869 1.393 . S
C866 H858 0.950 . S
C866 C864 1.391 . S
C866 C867 1.400 . S
C867 C866 1.400 . S
C867 C868 1.398 . S
C867 C873 1.491 . S
C868 H859 0.950 . S
C868 C867 1.398 . S
C868 C869 1.391 . S
C869 H857 0.950 . S
C869 C865 1.393 . S
C869 C868 1.391 . S
C870 H860 0.950 . S
C870 C871 1.386 . S
C870 C872 1.391 . S
C871 C870 1.386 . S
C871 C875 1.393 . S
C872 H861 0.950 . S
C872 C870 1.391 . S
C872 C873 1.400 . S
C873 C867 1.491 . S
C873 C872 1.400 . S
C873 C874 1.398 . S
C874 H862 0.950 . S
C874 C873 1.398 . S
C874 C875 1.391 . S
C875 H863 0.950 . S
C875 C871 1.393 . S
C875 C874 1.391 . S
H876 C884 0.950 . S
H877 C889 0.950 . S
H878 C886 0.950 . S
H879 C888 0.950 . S
H880 C890 0.950 . S
H881 C892 0.950 . S
H882 C894 0.950 . S
H883 C895 0.950 . S
C884 H876 0.950 . S
C884 C885 1.386 . S
C884 C886 1.391 . S
C885 C884 1.386 . S
C885 C889 1.393 . S
C886 H878 0.950 . S
C886 C884 1.391 . S
C886 C887 1.400 . S
C887 C886 1.400 . S
C887 C888 1.398 . S
C887 C893 1.491 . S
C888 H879 0.950 . S
C888 C887 1.398 . S
C888 C889 1.391 . S
C889 H877 0.950 . S
C889 C885 1.393 . S
C889 C888 1.391 . S
C890 H880 0.950 . S
C890 C891 1.386 . S
C890 C892 1.391 . S
C891 C890 1.386 . S
C891 C895 1.393 . S
C892 H881 0.950 . S
C892 C890 1.391 . S
C892 C893 1.400 . S
C893 C887 1.491 . S
C893 C892 1.400 . S
C893 C894 1.398 . S
C894 H882 0.950 . S
C894 C893 1.398 . S
C894 C895 1.391 . S
C895 H883 0.950 . S
C895 C891 1.393 . S
C895 C894 1.391 . S
H896 C904 0.950 . S
H897 C909 0.950 . S
H898 C906 0.950 . S
H899 C908 0.950 . S
H900 C910 0.950 . S
H901 C912 0.950 . S
H902 C914 0.950 . S
H903 C915 0.950 . S
C904 H896 0.950 . S
C904 C905 1.386 . S
C904 C906 1.391 . S
C905 C904 1.386 . S
C905 C909 1.393 . S
C906 H898 0.950 . S
C906 C904 1.391 . S
C906 C907 1.400 . S
C907 C906 1.400 . S
C907 C908 1.398 . S
C907 C913 1.491 . S
C908 H899 0.950 . S
C908 C907 1.398 . S
C908 C909 1.391 . S
C909 H897 0.950 . S
C909 C905 1.393 . S
C909 C908 1.391 . S
C910 H900 0.950 . S
C910 C911 1.386 . S
C910 C912 1.391 . S
C911 C910 1.386 . S
C911 C915 1.393 . S
C912 H901 0.950 . S
C912 C910 1.391 . S
C912 C913 1.400 . S
C913 C907 1.491 . S
C913 C912 1.400 . S
C913 C914 1.398 . S
C914 H902 0.950 . S
C914 C913 1.398 . S
C914 C915 1.391 . S
C915 H903 0.950 . S
C915 C911 1.393 . S
C915 C914 1.391 . S
H916 C924 0.950 . S
H917 C929 0.950 . S
H918 C926 0.950 . S
H919 C928 0.950 . S
H920 C930 0.950 . S
H921 C932 0.950 . S
H922 C934 0.950 . S
H923 C935 0.950 . S
C924 H916 0.950 . S
C924 C925 1.386 . S
C924 C926 1.391 . S
C925 C924 1.386 . S
C925 C929 1.393 . S
C926 H918 0.950 . S
C926 C924 1.391 . S
C926 C927 1.400 . S
C927 C926 1.400 . S
C927 C928 1.398 . S
C927 C933 1.491 . S
C928 H919 0.950 . S
C928 C927 1.398 . S
C928 C929 1.391 . S
C929 H917 0.950 . S
C929 C925 1.393 . S
C929 C928 1.391 . S
C930 H920 0.950 . S
C930 C931 1.386 . S
C930 C932 1.391 . S
C931 C930 1.386 . S
C931 C935 1.393 . S
C932 H921 0.950 . S
C932 C930 1.391 . S
C932 C933 1.400 . S
C933 C927 1.491 . S
C933 C932 1.400 . S
C933 C934 1.398 . S
C934 H922 0.950 . S
C934 C933 1.398 . S
C934 C935 1.391 . S
C935 H923 0.950 . S
C935 C931 1.393 . S
C935 C934 1.391 . S
H936 C944 0.950 . S
H937 C949 0.950 . S
H938 C946 0.950 . S
H939 C948 0.950 . S
H940 C950 0.950 . S
H941 C952 0.950 . S
H942 C954 0.950 . S
H943 C955 0.950 . S
C944 H936 0.950 . S
C944 C945 1.386 . S
C944 C946 1.391 . S
C945 C944 1.386 . S
C945 C949 1.393 . S
C946 H938 0.950 . S
C946 C944 1.391 . S
C946 C947 1.400 . S
C947 C946 1.400 . S
C947 C948 1.398 . S
C947 C953 1.491 . S
C948 H939 0.950 . S
C948 C947 1.398 . S
C948 C949 1.391 . S
C949 H937 0.950 . S
C949 C945 1.393 . S
C949 C948 1.391 . S
C950 H940 0.950 . S
C950 C951 1.386 . S
C950 C952 1.391 . S
C951 C950 1.386 . S
C951 C955 1.393 . S
C952 H941 0.950 . S
C952 C950 1.391 . S
C952 C953 1.400 . S
C953 C947 1.491 . S
C953 C952 1.400 . S
C953 C954 1.398 . S
C954 H942 0.950 . S
C954 C953 1.398 . S
C954 C955 1.391 . S
C955 H943 0.950 . S
C955 C951 1.393 . S
C955 C954 1.391 . S
H956 C964 0.950 . S
H957 C969 0.950 . S
H958 C966 0.950 . S
H959 C968 0.950 . S
H960 C970 0.950 . S
H961 C972 0.950 . S
H962 C974 0.950 . S
H963 C975 0.950 . S
C964 H956 0.950 . S
C964 C965 1.386 . S
C964 C966 1.391 . S
C965 C964 1.386 . S
C965 C969 1.393 . S
C966 H958 0.950 . S
C966 C964 1.391 . S
C966 C967 1.400 . S
C967 C966 1.400 . S
C967 C968 1.398 . S
C967 C973 1.491 . S
C968 H959 0.950 . S
C968 C967 1.398 . S
C968 C969 1.391 . S
C969 H957 0.950 . S
C969 C965 1.393 . S
C969 C968 1.391 . S
C970 H960 0.950 . S
C970 C971 1.386 . S
C970 C972 1.391 . S
C971 C970 1.386 . S
C971 C975 1.393 . S
C972 H961 0.950 . S
C972 C970 1.391 . S
C972 C973 1.400 . S
C973 C967 1.491 . S
C973 C972 1.400 . S
C973 C974 1.398 . S
C974 H962 0.950 . S
C974 C973 1.398 . S
C974 C975 1.391 . S
C975 H963 0.950 . S
C975 C971 1.393 . S
C975 C974 1.391 . S
H976 C984 0.950 . S
H977 C989 0.950 . S
H978 C986 0.950 . S
H979 C988 0.950 . S
H980 C990 0.950 . S
H981 C992 0.950 . S
H982 C994 0.950 . S
H983 C995 0.950 . S
C984 H976 0.950 . S
C984 C985 1.386 . S
C984 C986 1.391 . S
C985 C984 1.386 . S
C985 C989 1.393 . S
C986 H978 0.950 . S
C986 C984 1.391 . S
C986 C987 1.400 . S
C987 C986 1.400 . S
C987 C988 1.398 . S
C987 C993 1.491 . S
C988 H979 0.950 . S
C988 C987 1.398 . S
C988 C989 1.391 . S
C989 H977 0.950 . S
C989 C985 1.393 . S
C989 C988 1.391 . S
C990 H980 0.950 . S
C990 C991 1.386 . S
C990 C992 1.391 . S
C991 C990 1.386 . S
C991 C995 1.393 . S
C992 H981 0.950 . S
C992 C990 1.391 . S
C992 C993 1.400 . S
C993 C987 1.491 . S
C993 C992 1.400 . S
C993 C994 1.398 . S
C994 H982 0.950 . S
C994 C993 1.398 . S
C994 C995 1.391 . S
C995 H983 0.950 . S
C995 C991 1.393 . S
C995 C994 1.391 . S
H996 C1004 0.950 . S
H997 C1009 0.950 . S
H998 C1006 0.950 . S
H999 C1008 0.950 . S
H1000 C1010 0.950 . S
H1001 C1012 0.950 . S
H1002 C1014 0.950 . S
H1003 C1015 0.950 . S
C1004 H996 0.950 . S
C1004 C1005 1.386 . S
C1004 C1006 1.391 . S
C1005 C1004 1.386 . S
C1005 C1009 1.393 . S
C1006 H998 0.950 . S
C1006 C1004 1.391 . S
C1006 C1007 1.400 . S
C1007 C1006 1.400 . S
C1007 C1008 1.398 . S
C1007 C1013 1.491 . S
C1008 H999 0.950 . S
C1008 C1007 1.398 . S
C1008 C1009 1.391 . S
C1009 H997 0.950 . S
C1009 C1005 1.393 . S
C1009 C1008 1.391 . S
C1010 H1000 0.950 . S
C1010 C1011 1.386 . S
C1010 C1012 1.391 . S
C1011 C1010 1.386 . S
C1011 C1015 1.393 . S
C1012 H1001 0.950 . S
C1012 C1010 1.391 . S
C1012 C1013 1.400 . S
C1013 C1007 1.491 . S
C1013 C1012 1.400 . S
C1013 C1014 1.398 . S
C1014 H1002 0.950 . S
C1014 C1013 1.398 . S
C1014 C1015 1.391 . S
C1015 H1003 0.950 . S
C1015 C1011 1.393 . S
C1015 C1014 1.391 . S
H1016 C1024 0.950 . S
H1017 C1029 0.950 . S
H1018 C1026 0.950 . S
H1019 C1028 0.950 . S
H1020 C1030 0.950 . S
H1021 C1032 0.950 . S
H1022 C1034 0.950 . S
H1023 C1035 0.950 . S
C1024 H1016 0.950 . S
C1024 C1025 1.386 . S
C1024 C1026 1.391 . S
C1025 C1024 1.386 . S
C1025 C1029 1.393 . S
C1026 H1018 0.950 . S
C1026 C1024 1.391 . S
C1026 C1027 1.400 . S
C1027 C1026 1.400 . S
C1027 C1028 1.398 . S
C1027 C1033 1.491 . S
C1028 H1019 0.950 . S
C1028 C1027 1.398 . S
C1028 C1029 1.391 . S
C1029 H1017 0.950 . S
C1029 C1025 1.393 . S
C1029 C1028 1.391 . S
C1030 H1020 0.950 . S
C1030 C1031 1.386 . S
C1030 C1032 1.391 . S
C1031 C1030 1.386 . S
C1031 C1035 1.393 . S
C1032 H1021 0.950 . S
C1032 C1030 1.391 . S
C1032 C1033 1.400 . S
C1033 C1027 1.491 . S
C1033 C1032 1.400 . S
C1033 C1034 1.398 . S
C1034 H1022 0.950 . S
C1034 C1033 1.398 . S
C1034 C1035 1.391 . S
C1035 H1023 0.950 . S
C1035 C1031 1.393 . S
C1035 C1034 1.391 . S
H1036 C1044 0.950 . S
H1037 C1049 0.950 . S
H1038 C1046 0.950 . S
H1039 C1048 0.950 . S
H1040 C1050 0.950 . S
H1041 C1052 0.950 . S
H1042 C1054 0.950 . S
H1043 C1055 0.950 . S
C1044 H1036 0.950 . S
C1044 C1045 1.386 . S
C1044 C1046 1.391 . S
C1045 C1044 1.386 . S
C1045 C1049 1.393 . S
C1046 H1038 0.950 . S
C1046 C1044 1.391 . S
C1046 C1047 1.400 . S
C1047 C1046 1.400 . S
C1047 C1048 1.398 . S
C1047 C1053 1.491 . S
C1048 H1039 0.950 . S
C1048 C1047 1.398 . S
C1048 C1049 1.391 . S
C1049 H1037 0.950 . S
C1049 C1045 1.393 . S
C1049 C1048 1.391 . S
C1050 H1040 0.950 . S
C1050 C1051 1.386 . S
C1050 C1052 1.391 . S
C1051 C1050 1.386 . S
C1051 C1055 1.393 . S
C1052 H1041 0.950 . S
C1052 C1050 1.391 . S
C1052 C1053 1.400 . S
C1053 C1047 1.491 . S
C1053 C1052 1.400 . S
C1053 C1054 1.398 . S
C1054 H1042 0.950 . S
C1054 C1053 1.398 . S
C1054 C1055 1.391 . S
C1055 H1043 0.950 . S
C1055 C1051 1.393 . S
C1055 C1054 1.391 . S
H1056 C1064 0.950 . S
H1057 C1069 0.950 . S
H1058 C1066 0.950 . S
H1059 C1068 0.950 . S
H1060 C1070 0.950 . S
H1061 C1072 0.950 . S
H1062 C1074 0.950 . S
H1063 C1075 0.950 . S
C1064 H1056 0.950 . S
C1064 C1065 1.386 . S
C1064 C1066 1.391 . S
C1065 C1064 1.386 . S
C1065 C1069 1.393 . S
C1066 H1058 0.950 . S
C1066 C1064 1.391 . S
C1066 C1067 1.400 . S
C1067 C1066 1.400 . S
C1067 C1068 1.398 . S
C1067 C1073 1.491 . S
C1068 H1059 0.950 . S
C1068 C1067 1.398 . S
C1068 C1069 1.391 . S
C1069 H1057 0.950 . S
C1069 C1065 1.393 . S
C1069 C1068 1.391 . S
C1070 H1060 0.950 . S
C1070 C1071 1.386 . S
C1070 C1072 1.391 . S
C1071 C1070 1.386 . S
C1071 C1075 1.393 . S
C1072 H1061 0.950 . S
C1072 C1070 1.391 . S
C1072 C1073 1.400 . S
C1073 C1067 1.491 . S
C1073 C1072 1.400 . S
C1073 C1074 1.398 . S
C1074 H1062 0.950 . S
C1074 C1073 1.398 . S
C1074 C1075 1.391 . S
C1075 H1063 0.950 . S
C1075 C1071 1.393 . S
C1075 C1074 1.391 . S
H1076 C1084 0.950 . S
H1077 C1089 0.950 . S
H1078 C1086 0.950 . S
H1079 C1088 0.950 . S
H1080 C1090 0.950 . S
H1081 C1092 0.950 . S
H1082 C1094 0.950 . S
H1083 C1095 0.950 . S
C1084 H1076 0.950 . S
C1084 C1085 1.386 . S
C1084 C1086 1.391 . S
C1085 C1084 1.386 . S
C1085 C1089 1.393 . S
C1086 H1078 0.950 . S
C1086 C1084 1.391 . S
C1086 C1087 1.400 . S
C1087 C1086 1.400 . S
C1087 C1088 1.398 . S
C1087 C1093 1.491 . S
C1088 H1079 0.950 . S
C1088 C1087 1.398 . S
C1088 C1089 1.391 . S
C1089 H1077 0.950 . S
C1089 C1085 1.393 . S
C1089 C1088 1.391 . S
C1090 H1080 0.950 . S
C1090 C1091 1.386 . S
C1090 C1092 1.391 . S
C1091 C1090 1.386 . S
C1091 C1095 1.393 . S
C1092 H1081 0.950 . S
C1092 C1090 1.391 . S
C1092 C1093 1.400 . S
C1093 C1087 1.491 . S
C1093 C1092 1.400 . S
C1093 C1094 1.398 . S
C1094 H1082 0.950 . S
C1094 C1093 1.398 . S
C1094 C1095 1.391 . S
C1095 H1083 0.950 . S
C1095 C1091 1.393 . S
C1095 C1094 1.391 . S
H1096 C1104 0.950 . S
H1097 C1109 0.950 . S
H1098 C1106 0.950 . S
H1099 C1108 0.950 . S
H1100 C1110 0.950 . S
H1101 C1112 0.950 . S
H1102 C1114 0.950 . S
H1103 C1115 0.950 . S
C1104 H1096 0.950 . S
C1104 C1105 1.386 . S
C1104 C1106 1.391 . S
C1105 C1104 1.386 . S
C1105 C1109 1.393 . S
C1106 H1098 0.950 . S
C1106 C1104 1.391 . S
C1106 C1107 1.400 . S
C1107 C1106 1.400 . S
C1107 C1108 1.398 . S
C1107 C1113 1.491 . S
C1108 H1099 0.950 . S
C1108 C1107 1.398 . S
C1108 C1109 1.391 . S
C1109 H1097 0.950 . S
C1109 C1105 1.393 . S
C1109 C1108 1.391 . S
C1110 H1100 0.950 . S
C1110 C1111 1.386 . S
C1110 C1112 1.391 . S
C1111 C1110 1.386 . S
C1111 C1115 1.393 . S
C1112 H1101 0.950 . S
C1112 C1110 1.391 . S
C1112 C1113 1.400 . S
C1113 C1107 1.491 . S
C1113 C1112 1.400 . S
C1113 C1114 1.398 . S
C1114 H1102 0.950 . S
C1114 C1113 1.398 . S
C1114 C1115 1.391 . S
C1115 H1103 0.950 . S
C1115 C1111 1.393 . S
C1115 C1114 1.391 . S
H1116 C1124 0.950 . S
H1117 C1129 0.950 . S
H1118 C1126 0.950 . S
H1119 C1128 0.950 . S
H1120 C1130 0.950 . S
H1121 C1132 0.950 . S
H1122 C1134 0.950 . S
H1123 C1135 0.950 . S
C1124 H1116 0.950 . S
C1124 C1125 1.386 . S
C1124 C1126 1.391 . S
C1125 C1124 1.386 . S
C1125 C1129 1.393 . S
C1126 H1118 0.950 . S
C1126 C1124 1.391 . S
C1126 C1127 1.400 . S
C1127 C1126 1.400 . S
C1127 C1128 1.398 . S
C1127 C1133 1.491 . S
C1128 H1119 0.950 . S
C1128 C1127 1.398 . S
C1128 C1129 1.391 . S
C1129 H1117 0.950 . S
C1129 C1125 1.393 . S
C1129 C1128 1.391 . S
C1130 H1120 0.950 . S
C1130 C1131 1.386 . S
C1130 C1132 1.391 . S
C1131 C1130 1.386 . S
C1131 C1135 1.393 . S
C1132 H1121 0.950 . S
C1132 C1130 1.391 . S
C1132 C1133 1.400 . S
C1133 C1127 1.491 . S
C1133 C1132 1.400 . S
C1133 C1134 1.398 . S
C1134 H1122 0.950 . S
C1134 C1133 1.398 . S
C1134 C1135 1.391 . S
C1135 H1123 0.950 . S
C1135 C1131 1.393 . S
C1135 C1134 1.391 . S
H1136 C1144 0.950 . S
H1137 C1149 0.950 . S
H1138 C1146 0.950 . S
H1139 C1148 0.950 . S
H1140 C1150 0.950 . S
H1141 C1152 0.950 . S
H1142 C1154 0.950 . S
H1143 C1155 0.950 . S
C1144 H1136 0.950 . S
C1144 C1145 1.386 . S
C1144 C1146 1.391 . S
C1145 C1144 1.386 . S
C1145 C1149 1.393 . S
C1146 H1138 0.950 . S
C1146 C1144 1.391 . S
C1146 C1147 1.400 . S
C1147 C1146 1.400 . S
C1147 C1148 1.398 . S
C1147 C1153 1.491 . S
C1148 H1139 0.950 . S
C1148 C1147 1.398 . S
C1148 C1149 1.391 . S
C1149 H1137 0.950 . S
C1149 C1145 1.393 . S
C1149 C1148 1.391 . S
C1150 H1140 0.950 . S
C1150 C1151 1.386 . S
C1150 C1152 1.391 . S
C1151 C1150 1.386 . S
C1151 C1155 1.393 . S
C1152 H1141 0.950 . S
C1152 C1150 1.391 . S
C1152 C1153 1.400 . S
C1153 C1147 1.491 . S
C1153 C1152 1.400 . S
C1153 C1154 1.398 . S
C1154 H1142 0.950 . S
C1154 C1153 1.398 . S
C1154 C1155 1.391 . S
C1155 H1143 0.950 . S
C1155 C1151 1.393 . S
C1155 C1154 1.391 . S
H1156 C1164 0.950 . S
H1157 C1169 0.950 . S
H1158 C1166 0.950 . S
H1159 C1168 0.950 . S
H1160 C1170 0.950 . S
H1161 C1172 0.950 . S
H1162 C1174 0.950 . S
H1163 C1175 0.950 . S
C1164 H1156 0.950 . S
C1164 C1165 1.386 . S
C1164 C1166 1.391 . S
C1165 C1164 1.386 . S
C1165 C1169 1.393 . S
C1166 H1158 0.950 . S
C1166 C1164 1.391 . S
C1166 C1167 1.400 . S
C1167 C1166 1.400 . S
C1167 C1168 1.398 . S
C1167 C1173 1.491 . S
C1168 H1159 0.950 . S
C1168 C1167 1.398 . S
C1168 C1169 1.391 . S
C1169 H1157 0.950 . S
C1169 C1165 1.393 . S
C1169 C1168 1.391 . S
C1170 H1160 0.950 . S
C1170 C1171 1.386 . S
C1170 C1172 1.391 . S
C1171 C1170 1.386 . S
C1171 C1175 1.393 . S
C1172 H1161 0.950 . S
C1172 C1170 1.391 . S
C1172 C1173 1.400 . S
C1173 C1167 1.491 . S
C1173 C1172 1.400 . S
C1173 C1174 1.398 . S
C1174 H1162 0.950 . S
C1174 C1173 1.398 . S
C1174 C1175 1.391 . S
C1175 H1163 0.950 . S
C1175 C1171 1.393 . S
C1175 C1174 1.391 . S
H1176 C1184 0.950 . S
H1177 C1189 0.950 . S
H1178 C1186 0.950 . S
H1179 C1188 0.950 . S
H1180 C1190 0.950 . S
H1181 C1192 0.950 . S
H1182 C1194 0.950 . S
H1183 C1195 0.950 . S
C1184 H1176 0.950 . S
C1184 C1185 1.386 . S
C1184 C1186 1.391 . S
C1185 C1184 1.386 . S
C1185 C1189 1.393 . S
C1186 H1178 0.950 . S
C1186 C1184 1.391 . S
C1186 C1187 1.400 . S
C1187 C1186 1.400 . S
C1187 C1188 1.398 . S
C1187 C1193 1.491 . S
C1188 H1179 0.950 . S
C1188 C1187 1.398 . S
C1188 C1189 1.391 . S
C1189 H1177 0.950 . S
C1189 C1185 1.393 . S
C1189 C1188 1.391 . S
C1190 H1180 0.950 . S
C1190 C1191 1.386 . S
C1190 C1192 1.391 . S
C1191 C1190 1.386 . S
C1191 C1195 1.393 . S
C1192 H1181 0.950 . S
C1192 C1190 1.391 . S
C1192 C1193 1.400 . S
C1193 C1187 1.491 . S
C1193 C1192 1.400 . S
C1193 C1194 1.398 . S
C1194 H1182 0.950 . S
C1194 C1193 1.398 . S
C1194 C1195 1.391 . S
C1195 H1183 0.950 . S
C1195 C1191 1.393 . S
C1195 C1194 1.391 . S
H1196 C1204 0.950 . S
H1197 C1209 0.950 . S
H1198 C1206 0.950 . S
H1199 C1208 0.950 . S
H1200 C1210 0.950 . S
H1201 C1212 0.950 . S
H1202 C1214 0.950 . S
H1203 C1215 0.950 . S
C1204 H1196 0.950 . S
C1204 C1205 1.386 . S
C1204 C1206 1.391 . S
C1205 C1204 1.386 . S
C1205 C1209 1.393 . S
C1206 H1198 0.950 . S
C1206 C1204 1.391 . S
C1206 C1207 1.400 . S
C1207 C1206 1.400 . S
C1207 C1208 1.398 . S
C1207 C1213 1.491 . S
C1208 H1199 0.950 . S
C1208 C1207 1.398 . S
C1208 C1209 1.391 . S
C1209 H1197 0.950 . S
C1209 C1205 1.393 . S
C1209 C1208 1.391 . S
C1210 H1200 0.950 . S
C1210 C1211 1.386 . S
C1210 C1212 1.391 . S
C1211 C1210 1.386 . S
C1211 C1215 1.393 . S
C1212 H1201 0.950 . S
C1212 C1210 1.391 . S
C1212 C1213 1.400 . S
C1213 C1207 1.491 . S
C1213 C1212 1.400 . S
C1213 C1214 1.398 . S
C1214 H1202 0.950 . S
C1214 C1213 1.398 . S
C1214 C1215 1.391 . S
C1215 H1203 0.950 . S
C1215 C1211 1.393 . S
C1215 C1214 1.391 . S
H1216 C1224 0.950 . S
H1217 C1229 0.950 . S
H1218 C1226 0.950 . S
H1219 C1228 0.950 . S
H1220 C1230 0.950 . S
H1221 C1232 0.950 . S
H1222 C1234 0.950 . S
H1223 C1235 0.950 . S
C1224 H1216 0.950 . S
C1224 C1225 1.386 . S
C1224 C1226 1.391 . S
C1225 C1224 1.386 . S
C1225 C1229 1.393 . S
C1226 H1218 0.950 . S
C1226 C1224 1.391 . S
C1226 C1227 1.400 . S
C1227 C1226 1.400 . S
C1227 C1228 1.398 . S
C1227 C1233 1.491 . S
C1228 H1219 0.950 . S
C1228 C1227 1.398 . S
C1228 C1229 1.391 . S
C1229 H1217 0.950 . S
C1229 C1225 1.393 . S
C1229 C1228 1.391 . S
C1230 H1220 0.950 . S
C1230 C1231 1.386 . S
C1230 C1232 1.391 . S
C1231 C1230 1.386 . S
C1231 C1235 1.393 . S
C1232 H1221 0.950 . S
C1232 C1230 1.391 . S
C1232 C1233 1.400 . S
C1233 C1227 1.491 . S
C1233 C1232 1.400 . S
C1233 C1234 1.398 . S
C1234 H1222 0.950 . S
C1234 C1233 1.398 . S
C1234 C1235 1.391 . S
C1235 H1223 0.950 . S
C1235 C1231 1.393 . S
C1235 C1234 1.391 . S
H1236 C1244 0.950 . S
H1237 C1249 0.950 . S
H1238 C1246 0.950 . S
H1239 C1248 0.950 . S
H1240 C1250 0.950 . S
H1241 C1252 0.950 . S
H1242 C1254 0.950 . S
H1243 C1255 0.950 . S
C1244 H1236 0.950 . S
C1244 C1245 1.386 . S
C1244 C1246 1.391 . S
C1245 C1244 1.386 . S
C1245 C1249 1.393 . S
C1246 H1238 0.950 . S
C1246 C1244 1.391 . S
C1246 C1247 1.400 . S
C1247 C1246 1.400 . S
C1247 C1248 1.398 . S
C1247 C1253 1.491 . S
C1248 H1239 0.950 . S
C1248 C1247 1.398 . S
C1248 C1249 1.391 . S
C1249 H1237 0.950 . S
C1249 C1245 1.393 . S
C1249 C1248 1.391 . S
C1250 H1240 0.950 . S
C1250 C1251 1.386 . S
C1250 C1252 1.391 . S
C1251 C1250 1.386 . S
C1251 C1255 1.393 . S
C1252 H1241 0.950 . S
C1252 C1250 1.391 . S
C1252 C1253 1.400 . S
C1253 C1247 1.491 . S
C1253 C1252 1.400 . S
C1253 C1254 1.398 . S
C1254 H1242 0.950 . S
C1254 C1253 1.398 . S
C1254 C1255 1.391 . S
C1255 H1243 0.950 . S
C1255 C1251 1.393 . S
C1255 C1254 1.391 . S
H1256 C1264 0.950 . S
H1257 C1269 0.950 . S
H1258 C1266 0.950 . S
H1259 C1268 0.950 . S
H1260 C1270 0.950 . S
H1261 C1272 0.950 . S
H1262 C1274 0.950 . S
H1263 C1275 0.950 . S
C1264 H1256 0.950 . S
C1264 C1265 1.386 . S
C1264 C1266 1.391 . S
C1265 C1264 1.386 . S
C1265 C1269 1.393 . S
C1266 H1258 0.950 . S
C1266 C1264 1.391 . S
C1266 C1267 1.400 . S
C1267 C1266 1.400 . S
C1267 C1268 1.398 . S
C1267 C1273 1.491 . S
C1268 H1259 0.950 . S
C1268 C1267 1.398 . S
C1268 C1269 1.391 . S
C1269 H1257 0.950 . S
C1269 C1265 1.393 . S
C1269 C1268 1.391 . S
C1270 H1260 0.950 . S
C1270 C1271 1.386 . S
C1270 C1272 1.391 . S
C1271 C1270 1.386 . S
C1271 C1275 1.393 . S
C1272 H1261 0.950 . S
C1272 C1270 1.391 . S
C1272 C1273 1.400 . S
C1273 C1267 1.491 . S
C1273 C1272 1.400 . S
C1273 C1274 1.398 . S
C1274 H1262 0.950 . S
C1274 C1273 1.398 . S
C1274 C1275 1.391 . S
C1275 H1263 0.950 . S
C1275 C1271 1.393 . S
C1275 C1274 1.391 . S
H1276 C1284 0.950 . S
H1277 C1289 0.950 . S
H1278 C1286 0.950 . S
H1279 C1288 0.950 . S
H1280 C1290 0.950 . S
H1281 C1292 0.950 . S
H1282 C1294 0.950 . S
H1283 C1295 0.950 . S
C1284 H1276 0.950 . S
C1284 C1285 1.386 . S
C1284 C1286 1.391 . S
C1285 C1284 1.386 . S
C1285 C1289 1.393 . S
C1286 H1278 0.950 . S
C1286 C1284 1.391 . S
C1286 C1287 1.400 . S
C1287 C1286 1.400 . S
C1287 C1288 1.398 . S
C1287 C1293 1.491 . S
C1288 H1279 0.950 . S
C1288 C1287 1.398 . S
C1288 C1289 1.391 . S
C1289 H1277 0.950 . S
C1289 C1285 1.393 . S
C1289 C1288 1.391 . S
C1290 H1280 0.950 . S
C1290 C1291 1.386 . S
C1290 C1292 1.391 . S
C1291 C1290 1.386 . S
C1291 C1295 1.393 . S
C1292 H1281 0.950 . S
C1292 C1290 1.391 . S
C1292 C1293 1.400 . S
C1293 C1287 1.491 . S
C1293 C1292 1.400 . S
C1293 C1294 1.398 . S
C1294 H1282 0.950 . S
C1294 C1293 1.398 . S
C1294 C1295 1.391 . S
C1295 H1283 0.950 . S
C1295 C1291 1.393 . S
C1295 C1294 1.391 . S
C345 C321 1.849 . S
C351 C13 1.840 . S
C365 C27 1.849 . S
C371 C237 1.841 . S
C385 C334 1.832 . S
C391 C40 1.841 . S
C405 C295 1.845 . S
C411 C43 1.848 . S
C425 C252 1.838 . S
C431 C57 1.849 . S
C445 C267 1.849 . S
C451 C71 1.842 . S
C465 C281 1.849 . S
C471 C85 1.838 . S
C485 C110 1.833 . S
C491 C239 1.846 . S
C505 C182 1.839 . S
C511 C125 1.833 . S
C525 C197 1.849 . S
C531 C138 1.843 . S
C545 C140 1.839 . S
C551 C211 1.849 . S
C565 C167 1.836 . S
C571 C181 1.835 . S
C585 C98 1.832 . S
C591 C209 1.842 . S
C605 C223 1.848 . S
C611 C69 1.836 . S
C625 C83 1.836 . S
C631 C169 1.835 . S
C645 C194 1.843 . S
C651 C97 1.848 . S
C665 C152 1.837 . S
C671 C15 1.849 . S
C685 C28 1.843 . S
C691 C155 1.833 . S
C705 C55 1.835 . S
C711 C113 1.835 . S
C725 C1 1.834 . S
C731 C126 1.837 . S
C745 C293 1.849 . S
C751 C307 1.840 . S
C765 C309 1.836 . S
C771 C251 1.835 . S
C785 C264 1.849 . S
C791 C225 1.840 . S
C805 C322 1.842 . S
C811 C279 1.849 . S
C825 C12 1.105 . S
C831 C112 1.084 . S
C845 C127 1.120 . S
C851 C26 1.096 . S
C865 C41 1.084 . S
C871 C153 1.102 . S
C885 C42 1.091 . S
C891 C154 1.116 . S
C905 C56 1.121 . S
C911 C168 1.107 . S
C925 C70 1.109 . S
C931 C195 1.087 . S
C945 C208 1.119 . S
C951 C84 1.113 . S
C965 C222 1.118 . S
C971 C111 1.096 . S
C985 C124 1.101 . S
C991 C224 1.083 . S
C1005 C139 1.119 . S
C1011 C323 1.115 . S
C1025 C306 1.085 . S
C1031 C141 1.109 . S
C1045 C308 1.103 . S
C1051 C166 1.121 . S
C1065 C250 1.121 . S
C1071 C180 1.105 . S
C1085 C265 1.115 . S
C1091 C183 1.090 . S
C1105 C196 1.116 . S
C1111 C278 1.116 . S
C1125 C210 1.086 . S
C1131 C292 1.110 . S
C1145 C0 1.099 . S
C1151 C236 1.083 . S
C1165 C238 1.083 . S
C1171 C68 1.097 . S
C1185 C253 1.089 . S
C1191 C82 1.112 . S
C1205 C266 1.093 . S
C1211 C96 1.084 . S
C1225 C280 1.084 . S
C1231 C99 1.106 . S
C1245 C294 1.102 . S
C1251 C29 1.122 . S
C1265 C54 1.084 . S
C1271 C320 1.106 . S
C1285 C335 1.116 . S
C1291 C14 1.118 . S
