# Generated by pormake.
# Topology wku, (7)-cn, num edge types: 1
# Building blocks:
#     Node 0, Type 0, BuildingBlock: OLANEW_clean_sbu_3, # of connection points: 7
#     Node 1, Type 0, BuildingBlock: OLANEW_clean_sbu_3, # of connection points: 7
#     Node 2, Type 0, BuildingBlock: OLANEW_clean_sbu_3, # of connection points: 7
#     Node 3, Type 0, BuildingBlock: OLANEW_clean_sbu_3, # of connection points: 7
#     Node 4, Type 0, BuildingBlock: OLANEW_clean_sbu_3, # of connection points: 7
#     Node 5, Type 0, BuildingBlock: OLANEW_clean_sbu_3, # of connection points: 7
#     Node 6, Type 0, BuildingBlock: OLANEW_clean_sbu_3, # of connection points: 7
#     Node 7, Type 0, BuildingBlock: OLANEW_clean_sbu_3, # of connection points: 7
#     Node 8, Type 0, BuildingBlock: OLANEW_clean_sbu_3, # of connection points: 7
#     Node 9, Type 0, BuildingBlock: OLANEW_clean_sbu_3, # of connection points: 7
#     Node 10, Type 0, BuildingBlock: OLANEW_clean_sbu_3, # of connection points: 7
#     Node 11, Type 0, BuildingBlock: OLANEW_clean_sbu_3, # of connection points: 7
#     Edge 12, Type (0, 0), BuildingBlock: KIFKEQ_clean_linker_1, # of connection points: 2
#     Edge 13, Type (0, 0), BuildingBlock: KIFKEQ_clean_linker_1, # of connection points: 2
#     Edge 14, Type (0, 0), BuildingBlock: KIFKEQ_clean_linker_1, # of connection points: 2
#     Edge 15, Type (0, 0), BuildingBlock: KIFKEQ_clean_linker_1, # of connection points: 2
#     Edge 16, Type (0, 0), BuildingBlock: KIFKEQ_clean_linker_1, # of connection points: 2
#     Edge 17, Type (0, 0), BuildingBlock: KIFKEQ_clean_linker_1, # of connection points: 2
#     Edge 18, Type (0, 0), BuildingBlock: KIFKEQ_clean_linker_1, # of connection points: 2
#     Edge 19, Type (0, 0), BuildingBlock: KIFKEQ_clean_linker_1, # of connection points: 2
#     Edge 20, Type (0, 0), BuildingBlock: KIFKEQ_clean_linker_1, # of connection points: 2
#     Edge 21, Type (0, 0), BuildingBlock: KIFKEQ_clean_linker_1, # of connection points: 2
#     Edge 22, Type (0, 0), BuildingBlock: KIFKEQ_clean_linker_1, # of connection points: 2
#     Edge 23, Type (0, 0), BuildingBlock: KIFKEQ_clean_linker_1, # of connection points: 2
#     Edge 24, Type (0, 0), BuildingBlock: KIFKEQ_clean_linker_1, # of connection points: 2
#     Edge 25, Type (0, 0), BuildingBlock: KIFKEQ_clean_linker_1, # of connection points: 2
#     Edge 26, Type (0, 0), BuildingBlock: KIFKEQ_clean_linker_1, # of connection points: 2
#     Edge 27, Type (0, 0), BuildingBlock: KIFKEQ_clean_linker_1, # of connection points: 2
#     Edge 28, Type (0, 0), BuildingBlock: KIFKEQ_clean_linker_1, # of connection points: 2
#     Edge 29, Type (0, 0), BuildingBlock: KIFKEQ_clean_linker_1, # of connection points: 2
#     Edge 30, Type (0, 0), BuildingBlock: KIFKEQ_clean_linker_1, # of connection points: 2
#     Edge 31, Type (0, 0), BuildingBlock: KIFKEQ_clean_linker_1, # of connection points: 2
#     Edge 32, Type (0, 0), BuildingBlock: KIFKEQ_clean_linker_1, # of connection points: 2
#     Edge 33, Type (0, 0), BuildingBlock: KIFKEQ_clean_linker_1, # of connection points: 2
#     Edge 34, Type (0, 0), BuildingBlock: KIFKEQ_clean_linker_1, # of connection points: 2
#     Edge 35, Type (0, 0), BuildingBlock: KIFKEQ_clean_linker_1, # of connection points: 2
#     Edge 36, Type (0, 0), BuildingBlock: KIFKEQ_clean_linker_1, # of connection points: 2
#     Edge 37, Type (0, 0), BuildingBlock: KIFKEQ_clean_linker_1, # of connection points: 2
#     Edge 38, Type (0, 0), BuildingBlock: KIFKEQ_clean_linker_1, # of connection points: 2
#     Edge 39, Type (0, 0), BuildingBlock: KIFKEQ_clean_linker_1, # of connection points: 2
#     Edge 40, Type (0, 0), BuildingBlock: KIFKEQ_clean_linker_1, # of connection points: 2
#     Edge 41, Type (0, 0), BuildingBlock: KIFKEQ_clean_linker_1, # of connection points: 2
#     Edge 42, Type (0, 0), BuildingBlock: KIFKEQ_clean_linker_1, # of connection points: 2
#     Edge 43, Type (0, 0), BuildingBlock: KIFKEQ_clean_linker_1, # of connection points: 2
#     Edge 44, Type (0, 0), BuildingBlock: KIFKEQ_clean_linker_1, # of connection points: 2
#     Edge 45, Type (0, 0), BuildingBlock: KIFKEQ_clean_linker_1, # of connection points: 2
#     Edge 46, Type (0, 0), BuildingBlock: KIFKEQ_clean_linker_1, # of connection points: 2
#     Edge 47, Type (0, 0), BuildingBlock: KIFKEQ_clean_linker_1, # of connection points: 2
#     Edge 48, Type (0, 0), BuildingBlock: KIFKEQ_clean_linker_1, # of connection points: 2
#     Edge 49, Type (0, 0), BuildingBlock: KIFKEQ_clean_linker_1, # of connection points: 2
#     Edge 50, Type (0, 0), BuildingBlock: KIFKEQ_clean_linker_1, # of connection points: 2
#     Edge 51, Type (0, 0), BuildingBlock: KIFKEQ_clean_linker_1, # of connection points: 2
#     Edge 52, Type (0, 0), BuildingBlock: KIFKEQ_clean_linker_1, # of connection points: 2
#     Edge 53, Type (0, 0), BuildingBlock: KIFKEQ_clean_linker_1, # of connection points: 2
# Relax obj value: 0.106
# Max RMSD: 0.199
# Mean RMSD: 0.198
data_MOF--net-wku--node1-OLANEW_clean_sbu_3--edge1-KIFKEQ_clean_linker_1
_symmetry_space_group_name_H-M    P1
_symmetry_Int_Tables_number       1
_symmetry_cell_setting            triclinic
loop_
_symmetry_equiv_pos_as_xyz
'x, y, z'
_cell_length_a     31.502244
_cell_length_b     31.541407
_cell_length_c     125.97438
_cell_angle_alpha  90.047452
_cell_angle_beta   89.997761
_cell_angle_gamma 119.87671
loop_
_atom_site_label
_atom_site_type_symbol
_atom_site_fract_x
_atom_site_fract_y
_atom_site_fract_z
_atom_type_partial_charge
C0 C 0.241 0.34675 0.05931 0.0
C1 C 0.19583 0.30763 0.05611 0.0
C2 C 0.1959 0.27362 0.04879 0.0
C3 C 0.24045 0.2791 0.04488 0.0
C4 C 0.28413 0.31903 0.04847 0.0
N5 N 0.28174 0.34989 0.05538 0.0
C6 C 0.33456 0.33373 0.04532 0.0
C7 C 0.42113 0.39988 0.04671 0.0
C8 C 0.44603 0.3735 0.04787 0.0
C9 C 0.49512 0.39425 0.04489 0.0
C10 C 0.51962 0.44112 0.04054 0.0
C11 C 0.49468 0.46678 0.03892 0.0
C12 C 0.44563 0.44617 0.04193 0.0
Cd13 Cd 0.3333 0.28771 0.01964 0.0
Cd14 Cd 0.25199 0.27103 1.00572 0.0
C15 C 0.31349 0.44176 0.07944 0.0
C16 C 0.35035 0.51735 0.0898 0.0
C17 C 0.33052 0.48964 0.09906 0.0
C18 C 0.30107 0.43867 0.09868 0.0
C19 C 0.29449 0.41485 0.08888 0.0
C20 C 0.34041 0.49306 0.07995 0.0
Co21 Co 0.33984 0.40258 0.05978 0.0
N22 N 0.35045 0.36732 0.07114 0.0
N23 N 0.39758 0.45599 0.06422 0.0
C24 C 0.41552 0.45046 0.07337 0.0
C25 C 0.45397 0.49168 0.07821 0.0
C26 C 0.47054 0.53763 0.07332 0.0
C27 C 0.44776 0.54164 0.06401 0.0
C28 C 0.40947 0.49873 0.05965 0.0
N29 N 0.33777 0.44722 0.04948 0.0
N30 N 0.37016 0.37806 0.04947 0.0
N31 N 0.29932 0.41681 0.06934 0.0
O32 O 0.2944 0.26962 0.99045 0.0
O33 O 0.33751 0.25287 1.00177 0.0
C34 C 0.43314 0.35265 0.01648 0.0
O35 O 0.40048 0.35929 1.01213 0.0
O36 O 0.4189 0.31511 0.02237 0.0
C37 C 0.23458 0.17094 0.01774 0.0
O38 O 0.27852 0.19701 0.02108 0.0
O39 O 0.21349 0.19058 1.01285 0.0
C40 C 0.38833 0.40023 0.07741 0.0
O41 O 0.40306 0.38652 0.08584 0.0
O42 O 0.28954 0.33187 0.01979 0.0
O43 O 0.23048 0.33167 1.01072 0.0
C44 C 0.37513 0.49379 0.0512 0.0
O45 O 0.38099 0.53101 0.04542 0.0
C46 C 0.30241 0.43449 0.04125 0.0
C47 C 0.3025 0.40597 0.03292 0.0
C48 C 0.2648 0.38702 0.02543 0.0
C49 C 0.2301 0.40231 0.02554 0.0
C50 C 0.23266 0.43549 0.03334 0.0
C51 C 0.26799 0.45012 0.04145 0.0
C52 C 0.32333 0.25341 0.99228 0.0
O53 O 0.34442 0.30355 0.03938 0.0
C54 C 0.26163 0.34933 0.01813 0.0
C55 C 0.34023 0.31775 0.07044 0.0
C56 C 0.29247 0.2783 0.07115 0.0
C57 C 0.28457 0.23064 0.07145 0.0
C58 C 0.32425 0.22233 0.07145 0.0
C59 C 0.37264 0.26199 0.07113 0.0
C60 C 0.37955 0.30898 0.0699 0.0
C61 C 0.25087 0.38519 0.06712 0.0
O62 O 0.21536 0.38553 0.07255 0.0
H63 H 0.16179 0.30324 0.05918 0.0
H64 H 0.16153 0.24308 0.04616 0.0
H65 H 0.24059 0.25337 0.03921 0.0
H66 H 0.42754 0.33664 0.05092 0.0
H67 H 0.55756 0.4571 0.0382 0.0
H68 H 0.42664 0.46568 0.04009 0.0
H69 H 0.33392 0.50839 0.10649 0.0
H70 H 0.27202 0.3754 0.08847 0.0
H71 H 0.35175 0.51399 0.0727 0.0
H72 H 0.46969 0.4888 0.08562 0.0
H73 H 0.49974 0.57023 0.07696 0.0
H74 H 0.45845 0.57706 0.0606 0.0
H75 H 0.33188 0.39777 0.03246 0.0
H76 H 0.20241 0.38976 0.01939 0.0
H77 H 0.2693 0.47409 0.04777 0.0
H78 H 0.26158 0.28421 0.07176 0.0
H79 H 0.31674 0.18516 0.07245 0.0
H80 H 0.41627 0.33986 0.06929 0.0
C81 C 0.87593 0.23853 0.22554 0.0
C82 C 0.87066 0.19369 0.22231 0.0
C83 C 0.90533 0.19434 0.21507 0.0
C84 C 0.94424 0.23911 0.2113 0.0
C85 C 0.94723 0.28246 0.21492 0.0
N86 N 0.91334 0.27951 0.22172 0.0
C87 C 0.98322 0.33308 0.21202 0.0
C88 C 0.00331 0.4195 0.21374 0.0
C89 C 0.05451 0.44392 0.215 0.0
C90 C 0.08304 0.49323 0.21228 0.0
C91 C 0.06101 0.51847 0.20808 0.0
C92 C 0.01055 0.49407 0.20637 0.0
C93 C 0.98189 0.4448 0.20912 0.0
Cd94 Cd 0.03229 0.33807 0.1864 0.0
Cd95 Cd 0.97323 0.27849 0.16951 0.0
C96 C 0.85077 0.30965 0.24567 0.0
C97 C 0.81119 0.34664 0.25574 0.0
C98 C 0.81945 0.32779 0.26511 0.0
C99 C 0.84145 0.29864 0.26494 0.0
C100 C 0.85862 0.29119 0.25521 0.0
C101 C 0.82584 0.33619 0.24598 0.0
Co102 Co 0.9182 0.33717 0.22632 0.0
N103 N 0.96312 0.34665 0.23782 0.0
N104 N 0.92197 0.39447 0.23096 0.0
C105 C 0.94436 0.4113 0.24026 0.0
C106 C 0.94093 0.44915 0.24524 0.0
C107 C 0.91198 0.4663 0.24033 0.0
C108 C 0.88617 0.44457 0.23085 0.0
C109 C 0.89139 0.40678 0.22637 0.0
N110 N 0.87205 0.336 0.21591 0.0
N111 N 0.97394 0.36831 0.21624 0.0
N112 N 0.86287 0.29595 0.23565 0.0
O113 O 0.02569 0.33906 0.15725 0.0
O114 O 0.07875 0.34566 0.16944 0.0
C115 C 0.0689 0.43804 0.18365 0.0
O116 O 0.03099 0.40641 0.17871 0.0
O117 O 0.08988 0.42259 0.18996 0.0
C118 C 0.04608 0.24085 0.1798 0.0
O119 O 0.06313 0.27886 0.18569 0.0
O120 O 0.00983 0.23 0.17373 0.0
C121 C 0.96695 0.38356 0.24428 0.0
O122 O -0.00558 0.39728 0.25287 0.0
O123 O 0.94513 0.29829 0.18566 0.0
O124 O 0.88921 0.25242 0.17416 0.0
C125 C 0.86277 0.37334 0.21774 0.0
O126 O 0.83244 0.38033 0.21181 0.0
C127 C 0.85147 0.30294 0.20721 0.0
C128 C 0.88184 0.30603 0.19898 0.0
C129 C 0.86447 0.27279 0.19056 0.0
C130 C 0.81439 0.23947 0.18978 0.0
C131 C 0.7822 0.23906 0.19759 0.0
C132 C 0.80122 0.26993 0.20651 0.0
C133 C 0.06901 0.35011 0.15979 0.0
O134 O 0.02398 0.3434 0.20628 0.0
C135 C 0.9005 0.27392 0.18305 0.0
C136 C 0.00328 0.33753 0.23713 0.0
C137 C -0.00373 0.29019 0.23771 0.0
C138 C 0.03684 0.28348 0.23824 0.0
C139 C 0.08425 0.32387 0.23859 0.0
C140 C 0.09156 0.37177 0.23836 0.0
C141 C 0.05086 0.37754 0.23686 0.0
C142 C 0.84677 0.24775 0.23335 0.0
O143 O 0.81097 0.2119 0.23867 0.0
H144 H 0.84121 0.15946 0.2253 0.0
H145 H 0.90213 0.16022 0.21242 0.0
H146 H 0.9707 0.2397 0.20573 0.0
H147 H 0.07268 0.42493 0.21793 0.0
H148 H 0.08314 0.55658 0.20595 0.0
H149 H 0.94354 0.42631 0.20719 0.0
H150 H 0.80413 0.33176 0.27249 0.0
H151 H 0.87592 0.2689 0.25495 0.0
H152 H 0.81622 0.34699 0.23864 0.0
H153 H 0.95867 0.46397 0.25277 0.0
H154 H 0.90807 0.49506 0.24407 0.0
H155 H 0.86166 0.4556 0.22743 0.0
H156 H 0.91945 0.33514 0.19914 0.0
H157 H 0.80048 0.21541 0.18296 0.0
H158 H 0.77713 0.26922 0.21273 0.0
H159 H 0.95986 0.25875 0.23807 0.0
H160 H 0.11444 0.31721 0.23977 0.0
H161 H 0.05565 0.4139 0.2363 0.0
C162 C 0.6249 0.88415 0.39265 0.0
C163 C 0.66492 0.87916 0.38961 0.0
C164 C 0.70003 0.91479 0.38272 0.0
C165 C 0.6947 0.95428 0.37908 0.0
C166 C 0.65387 0.95695 0.38251 0.0
N167 N 0.62209 0.92235 0.38903 0.0
C168 C 0.63897 -0.00728 0.37951 0.0
C169 C 0.5715 0.01154 0.38061 0.0
C170 C 0.59654 0.06229 0.38243 0.0
C171 C 0.57564 0.09055 0.37947 0.0
C172 C 0.52999 0.06867 0.37449 0.0
C173 C 0.50576 0.01869 0.37225 0.0
C174 C 0.52653 -0.00968 0.37523 0.0
Cd175 Cd 0.68402 0.04054 0.35407 0.0
Cd176 Cd 0.69413 0.97556 0.33441 0.0
C177 C 0.52695 0.85776 0.41225 0.0
C178 C 0.45063 0.81999 0.42237 0.0
C179 C 0.47766 0.82707 0.43172 0.0
C180 C 0.52858 0.84759 0.43151 0.0
C181 C 0.55318 0.8645 0.42179 0.0
C182 C 0.47558 0.83429 0.4126 0.0
Co183 Co 0.5679 0.92596 0.39309 0.0
N184 N 0.60006 0.96959 0.40498 0.0
N185 N 0.5129 0.92841 0.39715 0.0
C186 C 0.51598 0.94999 0.40644 0.0
C187 C 0.47336 0.94579 0.4109 0.0
C188 C 0.42866 0.91707 0.40548 0.0
C189 C 0.42721 0.89232 0.396 0.0
C190 C 0.4714 0.89826 0.39205 0.0
N191 N 0.52608 0.88127 0.38211 0.0
N192 N 0.59364 0.98262 0.38334 0.0
N193 N 0.55261 0.86965 0.40221 0.0
O194 O 0.67631 0.03234 0.3255 0.0
O195 O 0.72331 0.08711 0.33737 0.0
C196 C 0.61862 0.07506 0.35079 0.0
O197 O 0.61238 0.03606 0.34636 0.0
O198 O 0.65557 0.0978 0.35688 0.0
C199 C 0.79784 0.05727 0.34835 0.0
O200 O 0.77383 0.07085 0.35429 0.0
O201 O 0.7761 0.02364 0.34147 0.0
C202 C 0.56531 0.9727 0.411 0.0
O203 O 0.57663 -0.00096 0.41974 0.0
O204 O 0.64277 0.95449 0.35184 0.0
O205 O 0.63483 0.89614 0.34146 0.0
C206 C 0.47885 0.87114 0.38345 0.0
O207 O 0.44317 0.84126 0.37713 0.0
C208 C 0.54081 0.86127 0.37364 0.0
C209 C 0.57061 0.89202 0.36568 0.0
C210 C 0.58724 0.87428 0.35745 0.0
C211 C 0.56965 0.824 0.35666 0.0
C212 C 0.53614 0.79184 0.36419 0.0
C213 C 0.52294 0.81092 0.37288 0.0
C214 C 0.70742 0.07629 0.32786 0.0
O215 O 0.66927 0.03339 0.37381 0.0
C216 C 0.62286 0.9093 0.34987 0.0
C217 C 0.64956 0.00932 0.40496 0.0
C218 C 0.68932 0.00133 0.40576 0.0
C219 C 0.73673 0.04114 0.40666 0.0
C220 C 0.74443 0.08879 0.40717 0.0
C221 C 0.7044 0.09705 0.40678 0.0
C222 C 0.65782 0.05722 0.40499 0.0
C223 C 0.58503 0.85368 0.40001 0.0
O224 O 0.58432 0.81715 0.4052 0.0
H225 H 0.66914 0.84911 0.39246 0.0
H226 H 0.73127 0.91178 0.38021 0.0
H227 H 0.72121 0.98127 0.37371 0.0
H228 H 0.63251 0.0803 0.38598 0.0
H229 H 0.5139 0.09058 0.37218 0.0
H230 H 0.50826 0.95244 0.37292 0.0
H231 H 0.45835 0.81195 0.4391 0.0
H232 H 0.59264 0.88077 0.42152 0.0
H233 H 0.45509 0.82556 0.40528 0.0
H234 H 0.47425 0.96281 0.41842 0.0
H235 H 0.395 0.91259 0.40881 0.0
H236 H 0.39271 0.86813 0.39215 0.0
H237 H 0.58002 0.92989 0.36578 0.0
H238 H 0.58045 0.80984 0.34997 0.0
H239 H 0.49797 0.78677 0.37888 0.0
H240 H 0.6838 0.96468 0.40597 0.0
H241 H 0.78124 0.1184 0.4086 0.0
H242 H 0.62684 0.06305 0.40435 0.0
C243 C 0.73531 0.64005 0.5592 0.0
C244 C 0.77968 0.68078 0.55619 0.0
C245 C 0.77798 0.7158 0.54946 0.0
C246 C 0.73265 0.7096 0.54591 0.0
C247 C 0.68984 0.66811 0.5493 0.0
N248 N 0.69376 0.6366 0.55572 0.0
C249 C 0.63897 0.65203 0.54628 0.0
C250 C 0.55354 0.58343 0.54739 0.0
C251 C 0.52677 0.60723 0.54953 0.0
C252 C 0.47737 0.58547 0.54673 0.0
C253 C 0.45443 0.54021 0.5416 0.0
C254 C 0.48122 0.51728 0.53904 0.0
C255 C 0.5306 0.53891 0.54185 0.0
Cd256 Cd 0.63481 0.69393 0.52068 0.0
Cd257 Cd 0.71132 0.70588 0.49986 0.0
C258 C 0.66626 0.54072 0.57852 0.0
C259 C 0.63049 0.46463 0.58867 0.0
C260 C 0.65014 0.49198 0.59798 0.0
C261 C 0.6788 0.543 0.59776 0.0
C262 C 0.6852 0.56723 0.58804 0.0
C263 C 0.6399 0.48934 0.57888 0.0
Co264 Co 0.63691 0.58112 0.55957 0.0
N265 N 0.62387 0.61106 0.5717 0.0
N266 N 0.58051 0.52481 0.56342 0.0
C267 C 0.56167 0.52618 0.5728 0.0
C268 C 0.52438 0.48256 0.57711 0.0
C269 C 0.50988 0.43873 0.57145 0.0
C270 C 0.53357 0.43915 0.56188 0.0
C271 C 0.57064 0.48425 0.5581 0.0
N272 N 0.64142 0.54139 0.54832 0.0
N273 N 0.60468 0.60632 0.55004 0.0
N274 N 0.6791 0.5664 0.56849 0.0
O275 O 0.63243 0.68358 0.49224 0.0
O276 O 0.62411 0.73075 0.50402 0.0
C277 C 0.53589 0.62481 0.51759 0.0
O278 O 0.56963 0.61942 0.51336 0.0
O279 O 0.54873 0.66246 0.52337 0.0
C280 C 0.72834 0.80831 0.51413 0.0
O281 O 0.69216 0.78403 0.52039 0.0
O282 O 0.74013 0.7869 0.50712 0.0
C283 C 0.58689 0.57496 0.57762 0.0
O284 O 0.57147 0.5845 0.58653 0.0
O285 O 0.68407 0.65789 0.51778 0.0
O286 O 0.73507 0.64993 0.50766 0.0
C287 C 0.60546 0.49367 0.54944 0.0
O288 O 0.60111 0.45908 0.54294 0.0
C289 C 0.67717 0.55759 0.54005 0.0
C290 C 0.67656 0.58791 0.53214 0.0
C291 C 0.71111 0.60464 0.52395 0.0
C292 C 0.74428 0.58739 0.52326 0.0
C293 C 0.74262 0.55364 0.53075 0.0
C294 C 0.70987 0.5399 0.53932 0.0
C295 C 0.6186 0.71408 0.49457 0.0
O296 O 0.62759 0.68129 0.54046 0.0
C297 C 0.71053 0.63892 0.51614 0.0
C298 C 0.63148 0.65982 0.57196 0.0
C299 C 0.67843 0.70065 0.57271 0.0
C300 C 0.68401 0.74717 0.57397 0.0
C301 C 0.64289 0.7529 0.57489 0.0
C302 C 0.59546 0.71177 0.57456 0.0
C303 C 0.59057 0.66618 0.5724 0.0
C304 C 0.72712 0.59978 0.56631 0.0
O305 O 0.76355 0.59962 0.57138 0.0
H306 H 0.81434 0.68552 0.55894 0.0
H307 H 0.81172 0.74755 0.54697 0.0
H308 H 0.73127 0.73594 0.54062 0.0
H309 H 0.54407 0.64285 0.55322 0.0
H310 H 0.41624 0.52345 0.53941 0.0
H311 H 0.55099 0.52165 0.53932 0.0
H312 H 0.64697 0.47298 0.60536 0.0
H313 H 0.70703 0.60676 0.58775 0.0
H314 H 0.62823 0.46873 0.57157 0.0
H315 H 0.50804 0.48206 0.5847 0.0
H316 H 0.48162 0.40435 0.57465 0.0
H317 H 0.52449 0.40537 0.55784 0.0
H318 H 0.64789 0.59715 0.5322 0.0
H319 H 0.76955 0.5982 0.51664 0.0
H320 H 0.70859 0.51426 0.54521 0.0
H321 H 0.71054 0.69662 0.57264 0.0
H322 H 0.64858 0.789 0.57659 0.0
H323 H 0.55431 0.63448 0.5718 0.0
C324 C 0.08852 0.7382 0.72656 0.0
C325 C 0.09251 0.78288 0.72367 0.0
C326 C 0.05748 0.78207 0.71652 0.0
C327 C 0.01952 0.73729 0.71248 0.0
C328 C 0.01778 0.69412 0.71578 0.0
N329 N 0.05186 0.6972 0.72253 0.0
C330 C 0.98323 0.64362 0.71253 0.0
C331 C 0.96569 0.55786 0.71357 0.0
C332 C 0.91457 0.53168 0.71491 0.0
C333 C 0.88736 0.48272 0.71181 0.0
C334 C 0.9107 0.45962 0.70716 0.0
C335 C 0.96111 0.48583 0.70539 0.0
C336 C -0.01158 0.53476 0.70851 0.0
Cd337 Cd 0.93803 0.6424 0.68681 0.0
Cd338 Cd 0.00399 0.71682 0.66806 0.0
C339 C 0.11636 0.66656 0.74596 0.0
C340 C 0.15926 0.63191 0.7556 0.0
C341 C 0.15027 0.64918 0.76513 0.0
C342 C 0.1261 0.6763 0.76526 0.0
C343 C 0.10756 0.68319 0.75567 0.0
C344 C 0.14328 0.64199 0.74598 0.0
Co345 Co 0.04885 0.63975 0.72661 0.0
N346 N 0.00329 0.62708 0.73818 0.0
N347 N 0.04703 0.58274 0.73074 0.0
C348 C 0.02494 0.5642 0.73998 0.0
C349 C 0.03005 0.52672 0.74464 0.0
C350 C 0.06028 0.51176 0.73948 0.0
C351 C 0.08565 0.53525 0.73009 0.0
C352 C 0.07871 0.57252 0.72594 0.0
N353 N 0.09559 0.64396 0.716 0.0
N354 N -0.00641 0.60871 0.71646 0.0
N355 N 0.10363 0.68084 0.7361 0.0
O356 O 0.94832 0.64607 0.65799 0.0
O357 O 0.89286 0.63643 0.66989 0.0
C358 C 0.90241 0.54243 0.68358 0.0
O359 O 0.94159 0.57464 0.67913 0.0
O360 O 0.87995 0.55724 0.68962 0.0
C361 C 0.92261 0.74033 0.68147 0.0
O362 O 0.90794 0.70205 0.68719 0.0
O363 O 0.9571 0.75261 0.67479 0.0
C364 C 0.00083 0.58994 0.74433 0.0
O365 O 0.97356 0.57441 0.75293 0.0
O366 O 0.02474 0.68672 0.6853 0.0
O367 O 0.0837 0.73715 0.67505 0.0
C368 C 0.10651 0.6075 0.71748 0.0
O369 O 0.13791 0.60276 0.71143 0.0
C370 C 0.11628 0.67901 0.70765 0.0
C371 C 0.08635 0.67766 0.69944 0.0
C372 C 0.1047 0.712 0.69124 0.0
C373 C 0.155 0.74512 0.69074 0.0
C374 C 0.1865 0.74414 0.69853 0.0
C375 C 0.16663 0.71192 0.70719 0.0
C376 C 0.90417 0.6328 0.66033 0.0
O377 O 0.94307 0.63304 0.70657 0.0
C378 C 0.07009 0.71214 0.68346 0.0
C379 C 0.96206 0.63467 0.73774 0.0
C380 C 0.96768 0.68143 0.73852 0.0
C381 C 0.92633 0.68678 0.73921 0.0
C382 C 0.87948 0.64557 0.73954 0.0
C383 C 0.87352 0.59821 0.73917 0.0
C384 C 0.91494 0.59377 0.73751 0.0
C385 C 0.11841 0.72905 0.73416 0.0
O386 O 0.15354 0.76474 0.73967 0.0
H387 H 0.12129 0.81709 0.72684 0.0
H388 H 0.05971 0.81606 0.71412 0.0
H389 H -0.00713 0.73659 0.70695 0.0
H390 H 0.89546 0.5491 0.7182 0.0
H391 H 0.88961 0.42178 0.70473 0.0
H392 H 0.02674 0.55474 0.70655 0.0
H393 H 0.16663 0.64566 0.7724 0.0
H394 H 0.08861 0.70395 0.75563 0.0
H395 H 0.15342 0.63253 0.73853 0.0
H396 H 0.01261 0.51058 0.75212 0.0
H397 H 0.06551 0.48336 0.74298 0.0
H398 H 0.11112 0.52593 0.72649 0.0
H399 H 0.04863 0.64885 0.69933 0.0
H400 H 0.16973 0.77005 0.68408 0.0
H401 H 0.19022 0.71133 0.71338 0.0
H402 H 0.00364 0.7135 0.7389 0.0
H403 H 0.84869 0.65116 0.74085 0.0
H404 H 0.91102 0.55778 0.73682 0.0
C405 C 0.34673 0.09698 0.89162 0.0
C406 C 0.307 0.10215 0.88841 0.0
C407 C 0.27144 0.06574 0.88171 0.0
C408 C 0.27609 0.02539 0.8784 0.0
C409 C 0.31666 0.02261 0.88199 0.0
N410 N 0.34878 0.05787 0.88835 0.0
C411 C 0.33119 0.98634 0.87923 0.0
C412 C 0.39853 0.96736 0.88045 0.0
C413 C 0.37337 0.91674 0.88242 0.0
C414 C 0.39404 0.88813 0.87956 0.0
C415 C 0.43957 0.90952 0.87455 0.0
C416 C 0.46393 0.95934 0.87218 0.0
C417 C 0.4434 0.98806 0.87505 0.0
Cd418 Cd 0.285 0.9377 0.85402 0.0
Cd419 Cd 0.27246 0.00241 0.83426 0.0
C420 C 0.44294 0.1235 0.91149 0.0
C421 C 0.51736 0.16191 0.9223 0.0
C422 C 0.48843 0.15444 0.93136 0.0
C423 C 0.43761 0.13349 0.93061 0.0
C424 C 0.41496 0.11647 0.92073 0.0
C425 C 0.49423 0.14713 0.91231 0.0
Co426 Co 0.40293 0.0544 0.8925 0.0
N427 N 0.37102 0.01226 0.9046 0.0
N428 N 0.45796 0.05221 0.89667 0.0
C429 C 0.45507 0.03175 0.90609 0.0
C430 C 0.49782 0.03672 0.91066 0.0
C431 C 0.54246 0.06507 0.9052 0.0
C432 C 0.54372 0.08877 0.89558 0.0
C433 C 0.49941 0.08211 0.89154 0.0
N434 N 0.44441 0.09756 0.88133 0.0
N435 N 0.37658 -0.0034 0.88306 0.0
N436 N 0.41898 0.11197 0.90126 0.0
O437 O 0.28927 0.94461 0.82544 0.0
O438 O 0.24469 0.88979 0.83753 0.0
C439 C 0.35136 0.90437 0.85068 0.0
O440 O 0.35709 0.94323 0.8463 0.0
O441 O 0.31437 0.88109 0.85672 0.0
C442 C 0.17087 0.92174 0.84896 0.0
O443 O 0.19531 0.90774 0.85463 0.0
O444 O 0.192 0.95522 0.84204 0.0
C445 C 0.40585 0.00964 0.91069 0.0
O446 O 0.3947 0.98426 0.91955 0.0
O447 O 0.32538 0.02355 0.85138 0.0
O448 O 0.33274 0.08186 0.8411 0.0
C449 C 0.49174 0.10818 0.88275 0.0
O450 O 0.52734 0.13774 0.87639 0.0
C451 C 0.42948 0.11732 0.87287 0.0
C452 C 0.39897 0.08631 0.86501 0.0
C453 C 0.38163 0.10386 0.85688 0.0
C454 C 0.39907 0.15413 0.85611 0.0
C455 C 0.4331 0.18645 0.86355 0.0
C456 C 0.44708 0.16759 0.87213 0.0
C457 C 0.25936 0.9005 0.82794 0.0
O458 O 0.30062 0.94524 0.87369 0.0
C459 C 0.34532 0.06874 0.84943 0.0
C460 C 0.32153 0.97253 0.90469 0.0
C461 C 0.28179 0.98058 0.90541 0.0
C462 C 0.23441 0.94082 0.90643 0.0
C463 C 0.22675 0.89324 0.90714 0.0
C464 C 0.26677 0.88495 0.90681 0.0
C465 C 0.31329 0.92465 0.90491 0.0
C466 C 0.38715 0.12835 0.89878 0.0
O467 O 0.38838 0.16576 0.9037 0.0
H468 H 0.30341 0.13295 0.89098 0.0
H469 H 0.24044 0.06888 0.87907 0.0
H470 H 0.24934 -0.00211 0.87315 0.0
H471 H 0.33749 0.89909 0.886 0.0
H472 H 0.45548 0.88733 0.87232 0.0
H473 H 0.46174 0.02578 0.87263 0.0
H474 H 0.50593 0.1695 0.93892 0.0
H475 H 0.37557 0.10017 0.92009 0.0
H476 H 0.51601 0.15557 0.90518 0.0
H477 H 0.49708 0.02063 0.91829 0.0
H478 H 0.57621 0.07013 0.90861 0.0
H479 H 0.57816 0.11274 0.8917 0.0
H480 H 0.38932 0.04835 0.86514 0.0
H481 H 0.38767 0.16815 0.84951 0.0
H482 H 0.47232 0.19185 0.87809 0.0
H483 H 0.28731 0.01725 0.90545 0.0
H484 H 0.18998 0.86375 0.90865 0.0
H485 H 0.34428 0.91881 0.9043 0.0
C486 C 0.63499 0.73802 0.80024 0.0
C487 C 0.67602 0.78228 0.8032 0.0
C488 C 0.70987 0.78065 0.81033 0.0
C489 C 0.70235 0.73548 0.8143 0.0
C490 C 0.66064 0.69276 0.81093 0.0
N491 N 0.63012 0.69663 0.80417 0.0
C492 C 0.64369 0.64204 0.81419 0.0
C493 C 0.5742 0.557 0.81306 0.0
C494 C 0.59804 0.52983 0.8115 0.0
C495 C 0.57544 0.48068 0.81448 0.0
C496 C 0.52924 0.45838 0.8192 0.0
C497 C 0.50603 0.4855 0.82113 0.0
C498 C 0.52849 0.53463 0.81813 0.0
Cd499 Cd 0.68799 0.63887 0.83987 0.0
Cd500 Cd 0.69528 0.70812 0.85811 0.0
C501 C 0.53811 0.6679 0.78041 0.0
C502 C 0.46315 0.63355 0.76982 0.0
C503 C 0.49182 0.65116 0.76061 0.0
C504 C 0.54301 0.67805 0.7611 0.0
C505 C 0.56592 0.68471 0.77101 0.0
C506 C 0.48676 0.64313 0.77975 0.0
Co507 Co 0.57491 0.6399 0.80013 0.0
N508 N 0.60669 0.62536 0.7886 0.0
N509 N 0.51884 0.58359 0.79607 0.0
C510 C 0.52171 0.5638 0.78694 0.0
C511 C 0.47867 0.52667 0.78237 0.0
C512 C 0.43382 0.51333 0.78749 0.0
C513 C 0.43274 0.53799 0.79678 0.0
C514 C 0.47736 0.57484 0.80084 0.0
N515 N 0.53321 0.64602 0.8107 0.0
N516 N 0.598 0.60798 0.81031 0.0
N517 N 0.56258 0.68165 0.79057 0.0
O518 O 0.67969 0.63902 0.8687 0.0
O519 O 0.72665 0.63127 0.8568 0.0
C520 C 0.62265 0.53918 0.84293 0.0
O521 O 0.61668 0.57171 0.84758 0.0
O522 O 0.65942 0.55356 0.83678 0.0
C523 C 0.80162 0.73443 0.84561 0.0
O524 O 0.77805 0.69723 0.83958 0.0
O525 O 0.77924 0.7462 0.85236 0.0
C526 C 0.57144 0.58801 0.78259 0.0
O527 O 0.58229 0.57182 0.77396 0.0
O528 O 0.6458 0.68366 0.84116 0.0
O529 O 0.63845 0.73344 0.85194 0.0
C530 C 0.48551 0.61046 0.80924 0.0
O531 O 0.44989 0.60682 0.81531 0.0
C532 C 0.54839 0.68083 0.81914 0.0
C533 C 0.57623 0.67793 0.8273 0.0
C534 C 0.59284 0.71161 0.83564 0.0
C535 C 0.57672 0.74556 0.83638 0.0
C536 C 0.54466 0.74602 0.82866 0.0
C537 C 0.53193 0.71456 0.81983 0.0
C538 C 0.71118 0.62656 0.86635 0.0
O539 O 0.67276 0.63042 0.82007 0.0
C540 C 0.62695 0.70985 0.84331 0.0
C541 C 0.65565 0.63329 0.78878 0.0
C542 C 0.69637 0.6802 0.78786 0.0
C543 C 0.74304 0.68589 0.78672 0.0
C544 C 0.74901 0.64489 0.78604 0.0
C545 C 0.70796 0.59745 0.78653 0.0
C546 C 0.66233 0.59259 0.7887 0.0
C547 C 0.59621 0.72968 0.79263 0.0
O548 O 0.59775 0.76574 0.78709 0.0
H549 H 0.68194 0.81679 0.80008 0.0
H550 H 0.74185 0.8143 0.81277 0.0
H551 H 0.72793 0.73416 0.81983 0.0
H552 H 0.63432 0.54663 0.80812 0.0
H553 H 0.51184 0.42039 0.82154 0.0
H554 H 0.51087 0.55531 0.82016 0.0
H555 H 0.474 0.64817 0.75307 0.0
H556 H 0.60551 0.70543 0.77151 0.0
H557 H 0.46544 0.63305 0.78697 0.0
H558 H 0.47941 0.5096 0.77497 0.0
H559 H 0.39988 0.48521 0.78407 0.0
H560 H 0.39828 0.52981 0.80037 0.0
H561 H 0.58393 0.64825 0.82727 0.0
H562 H 0.58727 0.76987 0.84317 0.0
H563 H 0.50803 0.71505 0.8137 0.0
H564 H 0.69214 0.71213 0.78765 0.0
H565 H 0.78518 0.65064 0.78437 0.0
H566 H 0.63067 0.55639 0.78943 0.0
C567 C 0.88453 0.63428 0.96807 0.0
C568 C 0.88099 0.67514 0.97108 0.0
C569 C 0.91628 0.70882 0.97825 0.0
C570 C 0.95403 0.70129 0.98221 0.0
C571 C 0.95535 0.65975 0.9788 0.0
N572 N 0.92113 0.62937 0.97199 0.0
C573 C -0.01083 0.64273 0.98208 0.0
C574 C 0.00529 0.57359 0.98082 0.0
C575 C 0.05605 0.59713 0.97903 0.0
C576 C 0.08299 0.57488 0.98206 0.0
C577 C 0.05971 0.52931 0.98703 0.0
C578 C 0.00961 0.50639 0.98916 0.0
C579 C 0.98255 0.52851 0.98612 0.0
Cd580 Cd 0.03591 0.68814 1.00797 0.0
Cd581 Cd 0.976 0.70092 0.02313 0.0
C582 C 0.85682 0.5364 0.94828 0.0
C583 C 0.81672 0.46018 0.93814 0.0
C584 C 0.82515 0.48743 0.92879 0.0
C585 C 0.84754 0.53848 0.929 0.0
C586 C 0.86501 0.56283 0.93874 0.0
C587 C 0.83147 0.48503 0.94792 0.0
Co588 Co 0.92297 0.57429 0.96788 0.0
N589 N 0.96917 0.60623 0.95637 0.0
N590 N 0.92374 0.51846 0.9638 0.0
C591 C 0.94659 0.52148 0.9547 0.0
C592 C 0.94159 0.47864 0.9502 0.0
C593 C 0.91088 0.43385 0.95539 0.0
C594 C 0.88507 0.4326 0.96467 0.0
C595 C 0.89192 0.47701 0.96867 0.0
N596 N 0.87529 0.53234 0.9784 0.0
N597 N 0.97787 0.59728 0.9781 0.0
N598 N 0.8688 0.56207 0.95832 0.0
O599 O 0.01955 0.69493 0.03762 0.0
O600 O 0.07868 0.72334 0.02567 0.0
C601 C 0.06778 0.62115 1.01155 0.0
O602 O 0.02958 0.61671 0.01604 0.0
O603 O 0.09095 0.65708 1.00524 0.0
C604 C 0.0584 0.80478 1.0122 0.0
O605 O 0.07316 0.77921 1.00721 0.0
O606 O 0.02047 0.78445 0.01802 0.0
C607 C 0.9717 0.57117 0.95036 0.0
O608 O -0.00142 0.58211 0.94171 0.0
O609 O 0.94829 0.64642 1.00808 0.0
O610 O 0.89185 0.64598 0.01819 0.0
C611 C 0.86414 0.4849 0.97705 0.0
O612 O 0.83239 0.44926 0.98311 0.0
C613 C 0.85471 0.54741 0.98666 0.0
C614 C 0.88474 0.57567 0.99481 0.0
C615 C 0.86749 0.59422 1.00274 0.0
C616 C 0.81754 0.57876 1.00322 0.0
C617 C 0.78545 0.5456 0.99559 0.0
C618 C 0.80466 0.53162 0.98704 0.0
C619 C 0.06486 0.71711 0.03538 0.0
O620 O 0.02953 0.67145 0.9881 0.0
C621 C 0.90346 0.63011 1.01011 0.0
C622 C 0.00932 0.65554 0.95644 0.0
C623 C 0.00174 0.69552 0.95563 0.0
C624 C 0.04173 0.74263 0.95451 0.0
C625 C 0.08915 0.74982 0.95373 0.0
C626 C 0.09694 0.70955 0.95403 0.0
C627 C 0.05718 0.66338 0.95617 0.0
C628 C 0.85431 0.5957 0.96042 0.0
O629 O 0.81927 0.59695 0.95499 0.0
H630 H 0.85234 0.68108 0.96798 0.0
H631 H 0.91437 0.74067 0.98074 0.0
H632 H 0.98074 0.72671 0.98779 0.0
H633 H 0.07502 0.63295 0.97544 0.0
H634 H 0.0806 0.51217 0.9894 0.0
H635 H 0.94445 0.51118 0.98828 0.0
H636 H 0.80968 0.46837 0.92139 0.0
H637 H 0.8827 0.60237 0.93901 0.0
H638 H 0.82156 0.46452 0.95523 0.0
H639 H 0.95959 0.47948 0.94282 0.0
H640 H 0.90577 0.40005 0.95202 0.0
H641 H 0.85945 0.39814 0.96833 0.0
H642 H 0.92197 0.58286 0.99498 0.0
H643 H 0.8036 0.59065 1.00975 0.0
H644 H 0.78077 0.50737 0.9809 0.0
H645 H 0.96523 0.69044 0.95547 0.0
H646 H 0.11882 0.78632 0.95208 0.0
H647 H 0.06294 0.63235 0.95673 0.0
C648 C 0.24124 0.87862 0.13575 0.0
C649 C 0.19584 0.87286 0.13873 0.0
C650 C 0.19548 0.90953 0.14514 0.0
C651 C 0.23982 0.9507 0.14842 0.0
C652 C 0.28373 0.95402 0.14508 0.0
N653 N 0.28175 0.9185 0.13896 0.0
C654 C 0.33402 -0.00895 0.14794 0.0
C655 C 0.42083 0.01167 0.14697 0.0
C656 C 0.44539 0.06187 0.14458 0.0
C657 C 0.49435 0.09177 0.14749 0.0
C658 C 0.51905 0.07206 0.15295 0.0
C659 C 0.49449 0.02262 0.15569 0.0
C660 C 0.44556 -0.00739 0.15277 0.0
Cd661 Cd 0.33008 0.04281 0.17272 0.0
Cd662 Cd 0.23427 0.97763 0.18565 0.0
C663 C 0.31289 0.85286 0.11632 0.0
C664 C 0.3506 0.8156 0.10568 0.0
C665 C 0.32907 0.82242 0.09654 0.0
C666 C 0.29826 0.84238 0.09717 0.0
C667 C 0.29171 0.8591 0.10702 0.0
C668 C 0.34157 0.83025 0.11561 0.0
Co669 Co 0.34011 0.9227 0.13514 0.0
N670 N 0.35032 0.96362 0.1228 0.0
N671 N 0.3981 0.92559 0.13131 0.0
C672 C 0.41575 0.94511 0.12182 0.0
C673 C 0.45409 0.94033 0.1175 0.0
C674 C 0.47089 0.91313 0.12327 0.0
C675 C 0.44838 0.89029 0.13294 0.0
C676 C 0.41016 0.89669 0.13672 0.0
N677 N 0.33883 0.88081 0.14659 0.0
N678 N 0.36992 0.98127 0.14438 0.0
N679 N 0.29986 0.86422 0.12651 0.0
O680 O 0.27353 0.02804 0.20054 0.0
O681 O 0.33178 0.08308 0.19028 0.0
C682 C 0.43018 0.07911 0.17623 0.0
O683 O 0.3977 0.03984 0.18056 0.0
O684 O 0.41569 0.10179 0.1702 0.0
C685 C 0.23015 0.05951 0.17004 0.0
O686 O 0.27663 0.07919 0.16926 0.0
O687 O 0.20481 0.01726 0.1741 0.0
C688 C 0.38808 0.96588 0.11688 0.0
O689 O 0.40163 0.98935 0.10778 0.0
O690 O 0.28484 0.95515 0.17419 0.0
O691 O 0.222 0.89731 0.18248 0.0
C692 C 0.37628 0.87105 0.14549 0.0
O693 O 0.38254 0.84228 0.15207 0.0
C694 C 0.30337 0.86069 0.15486 0.0
C695 C 0.3015 0.89171 0.16239 0.0
C696 C 0.26354 0.87439 0.16981 0.0
C697 C 0.23106 0.82409 0.17058 0.0
C698 C 0.2359 0.79162 0.1637 0.0
C699 C 0.27109 0.81038 0.15556 0.0
C700 C 0.3099 0.07062 0.19924 0.0
O701 O 0.34335 0.03242 0.15326 0.0
C702 C 0.25705 0.91004 0.17604 0.0
C703 C 0.33977 0.00285 0.12223 0.0
C704 C 0.29173 -0.00597 0.12141 0.0
C705 C 0.28335 0.03295 0.11958 0.0
C706 C 0.32275 0.08031 0.11812 0.0
C707 C 0.37114 0.08906 0.11851 0.0
C708 C 0.37887 0.05078 0.12136 0.0
C709 C 0.25144 0.8471 0.12888 0.0
O710 O 0.21599 0.80897 0.12401 0.0
H711 H 0.16194 0.84141 0.13619 0.0
H712 H 0.16094 0.90595 0.1476 0.0
H713 H 0.23966 0.97838 0.15347 0.0
H714 H 0.42665 0.07816 0.1406 0.0
H715 H 0.55688 0.09524 0.15523 0.0
H716 H 0.42681 0.9552 0.15542 0.0
H717 H 0.33218 0.8075 0.08901 0.0
H718 H 0.26783 0.87458 0.10757 0.0
H719 H 0.3552 0.82247 0.12279 0.0
H720 H 0.46948 0.95567 0.10982 0.0
H721 H 0.50001 0.90822 0.12005 0.0
H722 H 0.45923 0.8671 0.13706 0.0
H723 H 0.32936 0.9298 0.16229 0.0
H724 H 0.20319 0.81029 0.1767 0.0
H725 H 0.27391 0.78609 0.14987 0.0
H726 H 0.26093 0.95728 0.12182 0.0
H727 H 0.31504 0.10898 0.11594 0.0
H728 H 0.41603 0.05752 0.122 0.0
C729 C 0.34037 0.24113 0.30149 0.0
C730 C 0.30075 0.19646 0.30473 0.0
C731 C 0.2657 0.19751 0.31158 0.0
C732 C 0.27074 0.2425 0.31501 0.0
C733 C 0.31118 0.28563 0.31138 0.0
N734 N 0.34281 0.28232 0.30487 0.0
C735 C 0.32601 0.33635 0.31424 0.0
C736 C 0.39294 0.42238 0.31279 0.0
C737 C 0.36737 0.44757 0.31085 0.0
C738 C 0.38781 0.4968 0.31364 0.0
C739 C 0.43356 0.52117 0.31856 0.0
C740 C 0.4584 0.49601 0.32089 0.0
C741 C 0.4381 0.4468 0.31808 0.0
Cd742 Cd 0.28109 0.33961 0.33971 0.0
Cd743 Cd 0.27039 0.26315 0.35953 0.0
C744 C 0.43669 0.31051 0.28159 0.0
C745 C 0.51153 0.34636 0.27095 0.0
C746 C 0.48298 0.32582 0.2618 0.0
C747 C 0.43202 0.29666 0.26239 0.0
C748 C 0.40901 0.29051 0.27227 0.0
C749 C 0.488 0.3376 0.28089 0.0
Co750 Co 0.39696 0.33964 0.3007 0.0
N751 N 0.36482 0.3504 0.28869 0.0
N752 N 0.45201 0.39655 0.29651 0.0
C753 C 0.449 0.41409 0.2871 0.0
C754 C 0.49169 0.45156 0.2825 0.0
C755 C 0.53643 0.46758 0.28792 0.0
C756 C 0.53782 0.44514 0.29753 0.0
C757 C 0.49355 0.4078 0.3016 0.0
N758 N 0.43874 0.33742 0.31176 0.0
N759 N 0.37114 0.37123 0.31028 0.0
N760 N 0.4124 0.29797 0.29178 0.0
O761 O 0.28865 0.33808 0.36835 0.0
O762 O 0.24216 0.34703 0.3565 0.0
C763 C 0.34615 0.43954 0.34284 0.0
O764 O 0.35296 0.40706 0.34723 0.0
O765 O 0.30879 0.42506 0.33686 0.0
C766 C 0.16739 0.24249 0.34524 0.0
O767 O 0.19134 0.28024 0.33939 0.0
O768 O 0.18912 0.23054 0.35213 0.0
C769 C 0.39969 0.38731 0.28254 0.0
O770 O 0.38856 0.40126 0.27362 0.0
O771 O 0.32195 0.29422 0.34209 0.0
O772 O 0.33 0.24355 0.35235 0.0
C773 C 0.48601 0.374 0.31035 0.0
O774 O 0.52173 0.37977 0.31667 0.0
C775 C 0.42404 0.30282 0.32022 0.0
C776 C 0.3943 0.30392 0.3282 0.0
C777 C 0.37757 0.26945 0.33639 0.0
C778 C 0.39491 0.23643 0.33709 0.0
C779 C 0.42825 0.23755 0.32951 0.0
C780 C 0.44156 0.26997 0.32088 0.0
C781 C 0.25791 0.35157 0.36601 0.0
O782 O 0.29587 0.34706 0.31995 0.0
C783 C 0.342 0.26892 0.34399 0.0
C784 C 0.31555 0.34157 0.28867 0.0
C785 C 0.27533 0.2942 0.28807 0.0
C786 C 0.22829 0.28749 0.28682 0.0
C787 C 0.22149 0.32787 0.28573 0.0
C788 C 0.26206 0.37565 0.28592 0.0
C789 C 0.30805 0.38169 0.28819 0.0
C790 C 0.38034 0.24991 0.2942 0.0
O791 O 0.38114 0.21374 0.28917 0.0
H792 H 0.29686 0.16206 0.30208 0.0
H793 H 0.2348 0.16353 0.31426 0.0
H794 H 0.24439 0.2434 0.32039 0.0
H795 H 0.33134 0.42915 0.30732 0.0
H796 H 0.44929 0.55922 0.32075 0.0
H797 H 0.45686 0.42767 0.32044 0.0
H798 H 0.50086 0.32869 0.25427 0.0
H799 H 0.36954 0.26811 0.27281 0.0
H800 H 0.50948 0.35026 0.28807 0.0
H801 H 0.49084 0.46688 0.27487 0.0
H802 H 0.57014 0.49601 0.28449 0.0
H803 H 0.57233 0.45534 0.30137 0.0
H804 H 0.38488 0.33244 0.32813 0.0
H805 H 0.38403 0.21136 0.34373 0.0
H806 H 0.46634 0.27059 0.31484 0.0
H807 H 0.28022 0.26265 0.28822 0.0
H808 H 0.18507 0.32128 0.28399 0.0
H809 H 0.33931 0.41826 0.28871 0.0
C810 C 0.08932 0.34898 0.46794 0.0
C811 C 0.09332 0.3085 0.47103 0.0
C812 C 0.05761 0.27436 0.47805 0.0
C813 C 0.01905 0.28111 0.48179 0.0
C814 C 0.01733 0.32232 0.4783 0.0
N815 N 0.05186 0.35305 0.47162 0.0
C816 C 0.98296 0.33883 0.48145 0.0
C817 C 0.96583 0.40735 0.48007 0.0
C818 C 0.91522 0.38316 0.47805 0.0
C819 C 0.88759 0.40522 0.48066 0.0
C820 C 0.91 0.45119 0.48548 0.0
C821 C 0.95984 0.47465 0.4879 0.0
C822 C -0.01241 0.45273 0.48527 0.0
Cd823 Cd 0.93547 0.29265 0.50696 0.0
Cd824 Cd -0.00119 0.27934 0.52494 0.0
C825 C 0.11707 0.44666 0.44823 0.0
C826 C 0.15507 0.52237 0.43794 0.0
C827 C 0.14726 0.49484 0.42865 0.0
C828 C 0.12603 0.4439 0.42895 0.0
C829 C 0.1093 0.4199 0.43874 0.0
C830 C 0.14115 0.49796 0.44777 0.0
Co831 Co 0.05008 0.40825 0.46764 0.0
N832 N 0.00518 0.37716 0.45587 0.0
N833 N 0.04952 0.46429 0.46369 0.0
C834 C 0.02741 0.46193 0.45452 0.0
C835 C 0.03262 0.50507 0.45016 0.0
C836 C 0.06274 0.54945 0.45557 0.0
C837 C 0.08779 0.55002 0.46493 0.0
C838 C 0.0808 0.50535 0.46877 0.0
N839 N 0.09628 0.44921 0.47848 0.0
N840 N -0.00582 0.38436 0.47757 0.0
N841 N 0.10533 0.42151 0.45832 0.0
O842 O 0.94483 0.294 0.53573 0.0
O843 O 0.88909 0.25141 0.52362 0.0
C844 C 0.90216 0.35885 0.51075 0.0
O845 O 0.93941 0.36257 0.51557 0.0
O846 O 0.88051 0.32394 0.50413 0.0
C847 C 0.91645 0.17719 0.51129 0.0
O848 O 0.90229 0.2024 0.50596 0.0
O849 O 0.95161 0.19774 0.51788 0.0
C850 C 0.00292 0.41261 0.44995 0.0
O851 O 0.9767 0.40225 0.44122 0.0
O852 O 0.02228 0.3331 0.50844 0.0
O853 O 0.07998 0.33772 0.51865 0.0
C854 C 0.10765 0.49678 0.47725 0.0
O855 O 0.13876 0.53193 0.48352 0.0
C856 C 0.11617 0.43348 0.48676 0.0
C857 C 0.0857 0.40487 0.49486 0.0
C858 C 0.10293 0.38665 0.50286 0.0
C859 C 0.15289 0.40188 0.50334 0.0
C860 C 0.18511 0.43452 0.49568 0.0
C861 C 0.16614 0.44887 0.48716 0.0
C862 C 0.9005 0.26456 0.53328 0.0
O863 O 0.94217 0.30952 0.48724 0.0
C864 C 0.06742 0.35135 0.51039 0.0
C865 C 0.96511 0.32784 0.45573 0.0
C866 C 0.97281 0.28791 0.45496 0.0
C867 C 0.93288 0.24076 0.45381 0.0
C868 C 0.88543 0.23348 0.45298 0.0
C869 C 0.87755 0.27369 0.45327 0.0
C870 C 0.91726 0.31993 0.45537 0.0
C871 C 0.12018 0.38822 0.46049 0.0
O872 O 0.15592 0.38763 0.45521 0.0
H873 H 0.12272 0.30326 0.46813 0.0
H874 H 0.05989 0.24282 0.48061 0.0
H875 H -0.0079 0.25543 0.48729 0.0
H876 H 0.89688 0.34706 0.47458 0.0
H877 H 0.88858 0.4682 0.48752 0.0
H878 H 0.02544 0.47053 0.48765 0.0
H879 H 0.16219 0.51372 0.42122 0.0
H880 H 0.09235 0.38044 0.43908 0.0
H881 H 0.15053 0.51879 0.45505 0.0
H882 H 0.01523 0.50479 0.44273 0.0
H883 H 0.06798 0.58348 0.45232 0.0
H884 H 0.11293 0.58419 0.46877 0.0
H885 H 0.04831 0.3973 0.49498 0.0
H886 H 0.16679 0.39 0.50987 0.0
H887 H 0.19016 0.47301 0.48104 0.0
H888 H 0.00936 0.29307 0.4549 0.0
H889 H 0.85579 0.19693 0.45134 0.0
H890 H 0.91142 0.35091 0.45593 0.0
C891 C 0.73301 0.09546 0.63429 0.0
C892 C 0.77779 0.09963 0.63723 0.0
C893 C 0.77697 0.06397 0.64416 0.0
C894 C 0.73208 0.02522 0.64795 0.0
C895 C 0.68882 0.02335 0.64462 0.0
N896 N 0.69193 0.05803 0.63807 0.0
C897 C 0.63819 0.98815 0.64769 0.0
C898 C 0.55232 0.97068 0.64672 0.0
C899 C 0.52632 0.91965 0.64528 0.0
C900 C 0.47748 0.89209 0.64847 0.0
C901 C 0.45429 0.91496 0.65329 0.0
C902 C 0.48025 0.96529 0.65511 0.0
C903 C 0.52907 -0.00703 0.6519 0.0
Cd904 Cd 0.63804 0.93912 0.67294 0.0
Cd905 Cd 0.70609 -0.0005 0.69028 0.0
C906 C 0.6619 0.12204 0.61461 0.0
C907 C 0.6269 0.16288 0.60432 0.0
C908 C 0.64564 0.15367 0.59503 0.0
C909 C 0.67347 0.13026 0.59534 0.0
C910 C 0.67983 0.11288 0.60514 0.0
C911 C 0.63633 0.14796 0.61416 0.0
Co912 Co 0.63441 0.05497 0.63396 0.0
N913 N 0.62235 0.01033 0.62222 0.0
N914 N 0.5773 0.0531 0.62981 0.0
C915 C 0.55886 0.03126 0.62054 0.0
C916 C 0.52124 0.03631 0.6159 0.0
C917 C 0.50604 0.0662 0.62112 0.0
C918 C 0.52943 0.09131 0.63055 0.0
C919 C 0.56686 0.08448 0.63467 0.0
N920 N 0.63804 0.10098 0.64471 0.0
N921 N 0.60325 -0.00115 0.64389 0.0
N922 N 0.67562 0.11044 0.62468 0.0
O923 O 0.64131 0.94543 0.70166 0.0
O924 O 0.63414 0.89211 0.68949 0.0
C925 C 0.53863 0.90359 0.67706 0.0
O926 O 0.57184 0.94196 0.68158 0.0
O927 O 0.55211 0.88168 0.67053 0.0
C928 C 0.7367 0.9241 0.67772 0.0
O929 O 0.69824 0.9093 0.67203 0.0
O930 O 0.74865 0.95835 0.68443 0.0
C931 C 0.5849 0.00759 0.61612 0.0
O932 O 0.56961 0.98071 0.60747 0.0
O933 O 0.68001 0.02609 0.67422 0.0
O934 O 0.72985 0.0823 0.68518 0.0
C935 C 0.60157 0.1119 0.64322 0.0
O936 O 0.59637 0.1427 0.64937 0.0
C937 C 0.67255 0.12085 0.6532 0.0
C938 C 0.67082 0.08998 0.66118 0.0
C939 C 0.70534 0.10694 0.66936 0.0
C940 C 0.73868 0.15699 0.67019 0.0
C941 C 0.73786 0.18959 0.66268 0.0
C942 C 0.70565 0.17103 0.65396 0.0
C943 C 0.63009 0.90208 0.69914 0.0
O944 O 0.62753 0.94703 0.65328 0.0
C945 C 0.70547 0.07081 0.67665 0.0
C946 C 0.63092 0.96976 0.62247 0.0
C947 C 0.67812 0.97638 0.62163 0.0
C948 C 0.68444 0.93568 0.62086 0.0
C949 C 0.64376 0.8885 0.62052 0.0
C950 C 0.59598 0.88158 0.62097 0.0
C951 C 0.59056 0.92234 0.62265 0.0
C952 C 0.72389 0.12583 0.62683 0.0
O953 O 0.75974 0.1615 0.62148 0.0
H954 H 0.81209 0.12902 0.63424 0.0
H955 H 0.81103 0.06633 0.64659 0.0
H956 H 0.73137 -0.00189 0.65332 0.0
H957 H 0.5438 0.90087 0.64185 0.0
H958 H 0.41654 0.89359 0.65579 0.0
H959 H 0.5489 0.03121 0.6539 0.0
H960 H 0.64263 0.16925 0.5876 0.0
H961 H 0.70114 0.09455 0.60551 0.0
H962 H 0.6255 0.15806 0.62144 0.0
H963 H 0.50518 0.0191 0.60839 0.0
H964 H 0.47751 0.07135 0.61765 0.0
H965 H 0.51987 0.11647 0.63421 0.0
H966 H 0.64174 0.05241 0.66106 0.0
H967 H 0.76375 0.17057 0.67686 0.0
H968 H 0.7054 0.19545 0.64795 0.0
H969 H 0.70977 0.01263 0.62129 0.0
H970 H 0.65001 0.85817 0.61918 0.0
H971 H 0.55422 0.91764 0.62335 0.0
H972 H 0.41353 0.82009 0.09011 0.0
H973 H 0.34178 0.74236 0.11881 0.0
H974 H 0.43142 0.75534 0.08548 0.0
H975 H 0.36201 0.67929 0.1144 0.0
H976 H 0.33833 0.58038 0.0768 0.0
H977 H 0.35895 0.66387 0.08106 0.0
H978 H 0.4337 0.65975 0.10939 0.0
H979 H 0.41537 0.57693 0.10489 0.0
C980 C 0.40295 0.79004 0.0956 0.0
C981 C 0.37513 0.78582 0.10471 0.0
C982 C 0.41338 0.75317 0.09294 0.0
C983 C 0.39758 0.71223 0.09952 0.0
C984 C 0.3748 0.7107 0.10922 0.0
C985 C 0.36342 0.74705 0.11177 0.0
C986 C 0.36114 0.59789 0.08366 0.0
C987 C 0.37433 0.57155 0.09062 0.0
C988 C 0.37277 0.64573 0.08613 0.0
C989 C 0.39729 0.66781 0.09563 0.0
C990 C 0.41436 0.64326 0.10207 0.0
C991 C 0.40366 0.59586 0.0995 0.0
H992 H 0.73599 0.33316 0.24259 0.0
H993 H 0.8158 0.41251 0.27052 0.0
H994 H 0.67237 0.35326 0.24662 0.0
H995 H 0.75054 0.43023 0.27481 0.0
H996 H 0.57015 0.40878 0.25538 0.0
H997 H 0.65282 0.42649 0.25084 0.0
H998 H 0.65914 0.35693 0.27978 0.0
H999 H 0.57573 0.33669 0.28409 0.0
C1000 C 0.74096 0.35635 0.24937 0.0
C1001 C 0.78052 0.37033 0.25636 0.0
C1002 C 0.70432 0.36766 0.2517 0.0
C1003 C 0.70637 0.39263 0.2611 0.0
C1004 C 0.748 0.41052 0.26757 0.0
C1005 C 0.78513 0.40016 0.26512 0.0
C1006 C 0.58947 0.39798 0.26088 0.0
C1007 C 0.56575 0.37016 0.26997 0.0
C1008 C 0.63681 0.40837 0.25828 0.0
C1009 C 0.66193 0.39261 0.2649 0.0
C1010 C 0.6405 0.36969 0.27457 0.0
C1011 C 0.59271 0.3583 0.27706 0.0
H1012 H 0.14792 0.58131 0.42295 0.0
H1013 H 0.22975 0.58617 0.45091 0.0
H1014 H 0.21152 0.66426 0.41836 0.0
H1015 H 0.29163 0.66988 0.44659 0.0
H1016 H 0.38769 0.74563 0.40926 0.0
H1017 H 0.30424 0.68276 0.41354 0.0
H1018 H 0.30804 0.76184 0.4418 0.0
H1019 H 0.3907 0.82641 0.43726 0.0
C1020 C 0.17864 0.60059 0.4283 0.0
C1021 C 0.1844 0.57661 0.43715 0.0
C1022 C 0.2148 0.64807 0.42568 0.0
C1023 C 0.2565 0.67302 0.43207 0.0
C1024 C 0.25956 0.65134 0.44157 0.0
C1025 C 0.22394 0.6034 0.44407 0.0
C1026 C 0.37005 0.75102 0.41609 0.0
C1027 C 0.39631 0.79053 0.42304 0.0
C1028 C 0.32227 0.71481 0.41858 0.0
C1029 C 0.30025 0.71729 0.42808 0.0
C1030 C 0.32453 0.75901 0.43448 0.0
C1031 C 0.37182 0.79575 0.43188 0.0
H1032 H 0.64373 0.40232 0.57566 0.0
H1033 H 0.56527 0.40449 0.60361 0.0
H1034 H 0.62414 0.31901 0.57996 0.0
H1035 H 0.54817 0.32213 0.60816 0.0
H1036 H 0.56249 0.15956 0.5893 0.0
H1037 H 0.54714 0.226 0.58467 0.0
H1038 H 0.62421 0.30435 0.61283 0.0
H1039 H 0.64215 0.2395 0.61719 0.0
C1040 C 0.62088 0.38455 0.5825 0.0
C1041 C 0.60691 0.41045 0.5894 0.0
C1042 C 0.60992 0.33692 0.58499 0.0
C1043 C 0.58533 0.3147 0.59447 0.0
C1044 C 0.56758 0.33878 0.60087 0.0
C1045 C 0.57752 0.38588 0.59826 0.0
C1046 C 0.57542 0.19056 0.59462 0.0
C1047 C 0.60458 0.19473 0.60349 0.0
C1048 C 0.56646 0.22839 0.59197 0.0
C1049 C 0.58496 0.27028 0.59834 0.0
C1050 C 0.60942 0.27218 0.60781 0.0
C1051 C 0.61941 0.23484 0.61035 0.0
H1052 H 0.23577 0.65044 0.74235 0.0
H1053 H 0.15769 0.56591 0.7699 0.0
H1054 H 0.30174 0.63308 0.74601 0.0
H1055 H 0.22514 0.55102 0.77382 0.0
H1056 H 0.40142 0.64847 0.78272 0.0
H1057 H 0.31839 0.63002 0.77853 0.0
H1058 H 0.32042 0.55574 0.74996 0.0
H1059 H 0.40243 0.57118 0.75443 0.0
C1060 C 0.23177 0.62678 0.74895 0.0
C1061 C 0.19186 0.61034 0.75594 0.0
C1062 C 0.26971 0.6171 0.75108 0.0
C1063 C 0.26857 0.59134 0.76027 0.0
C1064 C 0.22689 0.57131 0.76674 0.0
C1065 C 0.1885 0.58002 0.76449 0.0
C1066 C 0.3836 0.62629 0.7758 0.0
C1067 C 0.40913 0.61214 0.76881 0.0
C1068 C 0.3361 0.61603 0.77337 0.0
C1069 C 0.31355 0.59205 0.76386 0.0
C1070 C 0.33736 0.57464 0.75728 0.0
C1071 C 0.38433 0.58377 0.75984 0.0
H1072 H 0.82142 0.39908 0.92333 0.0
H1073 H 0.7409 0.39877 0.95114 0.0
H1074 H 0.75614 0.31659 0.91893 0.0
H1075 H 0.67716 0.3155 0.94699 0.0
H1076 H 0.58206 0.23542 0.90924 0.0
H1077 H 0.66511 0.29854 0.91374 0.0
H1078 H 0.65759 0.22301 0.94281 0.0
H1079 H 0.5753 0.15815 0.93809 0.0
C1080 C 0.79056 0.38088 0.92869 0.0
C1081 C 0.78581 0.40601 0.93745 0.0
C1082 C 0.7534 0.33368 0.92616 0.0
C1083 C 0.71155 0.3101 0.93255 0.0
C1084 C 0.70927 0.33292 0.94196 0.0
C1085 C 0.74597 0.3806 0.94437 0.0
C1086 C 0.59874 0.23087 0.91634 0.0
C1087 C 0.57153 0.19216 0.9234 0.0
C1088 C 0.64631 0.26725 0.91895 0.0
C1089 C 0.66727 0.26584 0.9287 0.0
C1090 C 0.64193 0.22507 0.93531 0.0
C1091 C 0.59483 0.18816 0.9326 0.0
H1092 H 0.11283 0.8702 0.99648 0.0
H1093 H 0.0738 0.86002 0.02962 0.0
H1094 H 0.16009 0.96003 0.99812 0.0
H1095 H 0.12185 0.94873 0.03129 0.0
H1096 H 0.25659 0.11114 0.02973 0.0
H1097 H 0.21891 0.02171 0.02823 0.0
H1098 H 0.12259 0.02035 1.00374 0.0
H1099 H 0.15838 0.10832 1.00539 0.0
C1100 C 0.1148 0.8871 1.00409 0.0
C1101 C 0.08903 0.85844 1.01286 0.0
C1102 C 0.14179 0.93818 1.00504 0.0
C1103 C 0.14459 0.9609 0.01485 0.0
C1104 C 0.12052 0.932 0.02368 0.0
C1105 C 0.09264 0.88137 0.02267 0.0
C1106 C 0.22705 0.0916 0.02412 0.0
C1107 C 0.21023 0.11685 0.01777 0.0
C1108 C 0.20583 0.04069 0.02321 0.0
C1109 C 0.16857 0.01465 0.01573 0.0
C1110 C 0.15182 0.03981 1.00943 0.0
C1111 C 0.17201 0.09016 1.0105 0.0
H1112 H 0.13297 0.02475 0.16731 0.0
H1113 H 0.271 0.15952 0.16976 0.0
H1114 H 0.08946 0.06911 0.16973 0.0
H1115 H 0.22705 0.20485 0.17175 0.0
H1116 H 0.13213 0.2574 0.18925 0.0
H1117 H 0.17871 0.21618 0.18524 0.0
H1118 H 0.06772 0.12359 0.16262 0.0
H1119 H 0.0206 0.16248 0.16697 0.0
C1120 C 0.15409 0.06419 0.16804 0.0
C1121 C 0.20547 0.0885 0.16841 0.0
C1122 C 0.12905 0.0898 0.16942 0.0
C1123 C 0.15464 0.14064 0.17109 0.0
C1124 C 0.20617 0.16557 0.17072 0.0
C1125 C 0.23139 0.13973 0.16938 0.0
C1126 C 0.11736 0.2276 0.18358 0.0
C1127 C 0.07231 0.21299 0.17854 0.0
C1128 C 0.14443 0.20452 0.18114 0.0
C1129 C 0.12714 0.1666 0.17356 0.0
C1130 C 0.08197 0.15202 0.16861 0.0
C1131 C 0.05484 0.17452 0.17113 0.0
H1132 H 0.10387 0.24259 0.33014 0.0
H1133 H 0.10767 0.18146 0.3606 0.0
H1134 H 0.01399 0.19952 0.33105 0.0
H1135 H 0.01892 0.13975 0.36152 0.0
H1136 H 0.86146 0.11805 0.36375 0.0
H1137 H 0.9513 0.16498 0.36276 0.0
H1138 H 0.94603 0.10682 0.33147 0.0
H1139 H 0.85724 0.05961 0.33246 0.0
C1140 C 0.08569 0.22 0.33698 0.0
C1141 C 0.11304 0.21518 0.34522 0.0
C1142 C 0.03438 0.1955 0.33752 0.0
C1143 C 0.00968 0.1667 0.34641 0.0
C1144 C 0.03701 0.16217 0.35465 0.0
C1145 C 0.08794 0.18573 0.35403 0.0
C1146 C 0.87956 0.11513 0.3567 0.0
C1147 C 0.85215 0.08463 0.34826 0.0
C1148 C 0.93084 0.142 0.35612 0.0
C1149 C 0.95544 0.13969 0.347 0.0
C1150 C 0.92801 0.10968 0.33854 0.0
C1151 C 0.8771 0.08221 0.33919 0.0
H1152 H 0.77627 0.86693 0.49743 0.0
H1153 H 0.73736 0.8722 0.5301 0.0
H1154 H 0.81821 0.9557 0.49648 0.0
H1155 H 0.78054 0.96198 0.52916 0.0
H1156 H 0.92181 0.11543 0.52556 0.0
H1157 H 0.87271 0.02697 0.5264 0.0
H1158 H 0.7974 0.02617 0.49773 0.0
H1159 H 0.84633 0.11584 0.49692 0.0
C1160 C 0.77689 0.88707 0.50445 0.0
C1161 C 0.75399 0.86248 0.51391 0.0
C1162 C 0.80048 0.93794 0.50384 0.0
C1163 C 0.80252 0.96565 0.51272 0.0
C1164 C 0.77954 0.94132 0.52219 0.0
C1165 C 0.75493 0.89009 0.52275 0.0
C1166 C 0.89503 0.09669 0.51936 0.0
C1167 C 0.88832 0.12291 0.5111 0.0
C1168 C 0.8665 0.04592 0.51995 0.0
C1169 C 0.831 0.01981 0.51221 0.0
C1170 C 0.82458 0.0456 0.50382 0.0
C1171 C 0.85264 0.09679 0.50333 0.0
H1172 H 0.92366 0.80024 0.66588 0.0
H1173 H 0.85938 0.74139 0.6965 0.0
H1174 H 0.87653 0.84198 0.66473 0.0
H1175 H 0.81262 0.78458 0.69537 0.0
H1176 H 0.79652 0.92511 0.69334 0.0
H1177 H 0.83875 0.87845 0.69446 0.0
H1178 H 0.78239 0.81548 0.66368 0.0
H1179 H 0.73867 0.86175 0.66258 0.0
C1180 C 0.89982 0.79654 0.67244 0.0
C1181 C 0.89564 0.76773 0.68135 0.0
C1182 C 0.87243 0.8201 0.67169 0.0
C1183 C 0.84077 0.81621 0.67991 0.0
C1184 C 0.83686 0.78805 0.68892 0.0
C1185 C 0.86364 0.7635 0.68958 0.0
C1186 C 0.79317 0.9016 0.68674 0.0
C1187 C 0.76449 0.89753 0.6778 0.0
C1188 C 0.817 0.87447 0.68748 0.0
C1189 C 0.81354 0.84321 0.67921 0.0
C1190 C 0.78554 0.83942 0.67017 0.0
C1191 C 0.76069 0.86592 0.66953 0.0
H1192 H 0.86648 0.74161 0.83005 0.0
H1193 H 0.85944 0.78671 0.8621 0.0
H1194 H 0.95633 0.78561 0.83122 0.0
H1195 H 0.94832 0.82936 0.86328 0.0
H1196 H 0.10851 0.85456 0.86366 0.0
H1197 H 0.01867 0.80684 0.86279 0.0
H1198 H 0.02125 0.87907 0.83353 0.0
H1199 H 0.10988 0.92707 0.83443 0.0
C1200 C 0.88399 0.76078 0.83731 0.0
C1201 C 0.85586 0.76122 0.84591 0.0
C1202 C 0.93526 0.78583 0.83799 0.0
C1203 C 0.95908 0.81063 0.84737 0.0
C1204 C 0.9309 0.81022 0.856 0.0
C1205 C 0.87998 0.7862 0.85526 0.0
C1206 C 0.08983 0.86052 0.85711 0.0
C1207 C 0.11651 0.89489 0.84917 0.0
C1208 C 0.03854 0.83315 0.85659 0.0
C1209 C 0.01324 0.83896 0.84801 0.0
C1210 C 0.03987 0.87337 0.84014 0.0
C1211 C 0.09073 0.90123 0.84075 0.0
H1212 H 0.43921 0.10932 0.95148 0.0
H1213 H 0.37765 0.17212 0.93034 0.0
H1214 H 0.40767 0.13302 0.96674 0.0
H1215 H 0.3481 0.19772 0.94542 0.0
H1216 H 0.27448 0.2166 0.97376 0.0
H1217 H 0.29452 0.17821 0.95943 0.0
H1218 H 0.42457 0.20352 0.97637 0.0
H1219 H 0.40257 0.23951 0.99105 0.0
C1220 C 0.41823 0.12751 0.95011 0.0
C1221 C 0.41057 0.13856 0.93972 0.0
C1222 C 0.40069 0.14171 0.95884 0.0
C1223 C 0.37571 0.16792 0.95739 0.0
C1224 C 0.36636 0.17696 0.94694 0.0
C1225 C 0.38325 0.16217 0.93824 0.0
C1226 C 0.30745 0.21409 0.97442 0.0
C1227 C 0.33728 0.23164 0.98348 0.0
C1228 C 0.31907 0.1921 0.96617 0.0
C1229 C 0.36148 0.18796 0.96662 0.0
C1230 C 0.3912 0.20526 0.97576 0.0
C1231 C 0.37896 0.22644 0.98414 0.0
H1232 H 0.15749 0.35332 0.16125 0.0
H1233 H 0.06433 0.37403 0.1392 0.0
H1234 H 0.21457 0.36578 0.14685 0.0
H1235 H 0.12164 0.38763 0.12494 0.0
H1236 H 0.20408 0.36933 0.09899 0.0
H1237 H 0.14955 0.34353 0.11423 0.0
H1238 H 0.27297 0.42726 0.13495 0.0
H1239 H 0.32795 0.45101 0.11973 0.0
C1240 C 0.14951 0.36117 0.15336 0.0
C1241 C 0.10626 0.36257 0.15137 0.0
C1242 C 0.18218 0.36819 0.1451 0.0
C1243 C 0.17235 0.37687 0.13468 0.0
C1244 C 0.12975 0.37959 0.13279 0.0
C1245 C 0.09709 0.37236 0.14101 0.0
C1246 C 0.21993 0.38076 0.10682 0.0
C1247 C 0.27041 0.41285 0.1081 0.0
C1248 C 0.18848 0.3667 0.11556 0.0
C1249 C 0.20665 0.38457 0.12578 0.0
C1250 C 0.25759 0.41304 0.12719 0.0
C1251 C 0.28912 0.42685 0.11845 0.0
H1252 H 0.81388 0.20181 0.26599 0.0
H1253 H 0.85815 0.32904 0.28574 0.0
H1254 H 0.78683 0.14997 0.28167 0.0
H1255 H 0.82885 0.27685 0.30141 0.0
H1256 H 0.79195 0.16548 0.32856 0.0
H1257 H 0.83388 0.22045 0.3137 0.0
H1258 H 0.71621 0.12426 0.29279 0.0
H1259 H 0.67513 0.06909 0.30751 0.0
C1260 C 0.8191 0.21894 0.2737 0.0
C1261 C 0.83762 0.26957 0.27458 0.0
C1262 C 0.80269 0.18907 0.28269 0.0
C1263 C 0.80422 0.20902 0.29278 0.0
C1264 C 0.82677 0.26012 0.29378 0.0
C1265 C 0.84342 0.29005 0.28478 0.0
C1266 C 0.77486 0.15635 0.32081 0.0
C1267 C 0.73026 0.11272 0.31922 0.0
C1268 C 0.79899 0.18782 0.31228 0.0
C1269 C 0.77896 0.17637 0.30199 0.0
C1270 C 0.73353 0.13357 0.30052 0.0
C1271 C 0.70961 0.10213 0.309 0.0
H1272 H 0.51613 0.86507 0.45234 0.0
H1273 H 0.59539 0.81653 0.43247 0.0
H1274 H 0.53842 0.83497 0.46798 0.0
H1275 H 0.61963 0.78859 0.44812 0.0
H1276 H 0.59118 0.67967 0.4744 0.0
H1277 H 0.57577 0.71957 0.4596 0.0
H1278 H 0.59969 0.83941 0.4801 0.0
H1279 H 0.61389 0.79865 0.49503 0.0
C1280 C 0.53945 0.84917 0.45134 0.0
C1281 C 0.55338 0.8426 0.44112 0.0
C1282 C 0.55237 0.83202 0.46033 0.0
C1283 C 0.5798 0.80816 0.4593 0.0
C1284 C 0.59727 0.8055 0.44918 0.0
C1285 C 0.58417 0.82243 0.4402 0.0
C1286 C 0.59281 0.71436 0.47578 0.0
C1287 C 0.60394 0.73598 0.4859 0.0
C1288 C 0.58453 0.73759 0.46725 0.0
C1289 C 0.58751 0.7833 0.46857 0.0
C1290 C 0.59708 0.80425 0.47878 0.0
C1291 C 0.6051 0.7808 0.48735 0.0
H1292 H 0.77541 0.6134 0.59859 0.0
H1293 H 0.64968 0.52919 0.61864 0.0
H1294 H 0.82827 0.63917 0.61414 0.0
H1295 H 0.70289 0.55287 0.63416 0.0
H1296 H 0.81405 0.62641 0.6612 0.0
H1297 H 0.7586 0.61352 0.64642 0.0
H1298 H 0.85673 0.59666 0.62512 0.0
H1299 H 0.91245 0.61078 0.63976 0.0
C1300 C 0.75881 0.60137 0.60634 0.0
C1301 C 0.70833 0.56864 0.60733 0.0
C1302 C 0.78928 0.6154 0.61526 0.0
C1303 C 0.77011 0.59688 0.62539 0.0
C1304 C 0.71908 0.56766 0.6265 0.0
C1305 C 0.68855 0.55388 0.61758 0.0
C1306 C 0.82354 0.61955 0.65336 0.0
C1307 C 0.8678 0.61976 0.65166 0.0
C1308 C 0.79178 0.61228 0.64488 0.0
C1309 C 0.8035 0.60488 0.63452 0.0
C1310 C 0.84711 0.6037 0.63292 0.0
C1311 C 0.87887 0.61121 0.64135 0.0
H1312 H 0.28852 0.90874 0.80732 0.0
H1313 H 0.17809 0.8088 0.82912 0.0
H1314 H 0.24718 0.8524 0.79279 0.0
H1315 H 0.13585 0.75247 0.81443 0.0
H1316 H 0.11383 0.64568 0.78606 0.0
H1317 H 0.14277 0.69799 0.80174 0.0
H1318 H 0.17391 0.82308 0.78235 0.0
H1319 H 0.14751 0.77141 0.76664 0.0
C1320 C 0.25539 0.87466 0.80902 0.0
C1321 C 0.23658 0.86347 0.81939 0.0
C1322 C 0.2313 0.84252 0.80065 0.0
C1323 C 0.18751 0.79832 0.80238 0.0
C1324 C 0.16942 0.78623 0.81281 0.0
C1325 C 0.19372 0.81848 0.82123 0.0
C1326 C 0.12612 0.68425 0.78518 0.0
C1327 C 0.1292 0.70443 0.77504 0.0
C1328 C 0.14253 0.71423 0.79419 0.0
C1329 C 0.16201 0.76501 0.79327 0.0
C1330 C 0.16052 0.78432 0.78329 0.0
C1331 C 0.14445 0.75446 0.77429 0.0
H1332 H 0.86374 0.52493 0.90815 0.0
H1333 H 0.82032 0.60819 0.9281 0.0
H1334 H 0.83407 0.54815 0.89257 0.0
H1335 H 0.79285 0.63328 0.9125 0.0
H1336 H 0.68004 0.60266 0.8868 0.0
H1337 H 0.7219 0.58899 0.90146 0.0
H1338 H 0.83863 0.60934 0.88033 0.0
H1339 H 0.79591 0.62194 0.86553 0.0
C1340 C 0.84915 0.54935 0.90918 0.0
C1341 C 0.84368 0.56401 0.91941 0.0
C1342 C 0.83227 0.56282 0.90023 0.0
C1343 C 0.80981 0.59152 0.9013 0.0
C1344 C 0.80864 0.60994 0.91142 0.0
C1345 C 0.82529 0.59629 0.92036 0.0
C1346 C 0.71448 0.60394 0.88525 0.0
C1347 C 0.73458 0.61345 0.87499 0.0
C1348 C 0.73885 0.59668 0.8937 0.0
C1349 C 0.78421 0.59903 0.89215 0.0
C1350 C 0.80378 0.60724 0.88182 0.0
C1351 C 0.7792 0.61432 0.87333 0.0
H1352 H 0.1995 0.8006 0.09725 0.0
H1353 H 0.32432 0.8675 0.07633 0.0
H1354 H 0.14495 0.77381 0.0821 0.0
H1355 H 0.26958 0.8429 0.06098 0.0
H1356 H 0.16027 0.73691 0.03617 0.0
H1357 H 0.21817 0.77409 0.05085 0.0
H1358 H 0.1093 0.79121 0.06829 0.0
H1359 H 0.05121 0.75126 0.05403 0.0
C1360 C 0.21521 0.81121 0.08938 0.0
C1361 C 0.26614 0.83638 0.08799 0.0
C1362 C 0.18386 0.79577 0.08063 0.0
C1363 C 0.20252 0.8058 0.0702 0.0
C1364 C 0.25366 0.83342 0.06883 0.0
C1365 C 0.28511 0.84817 0.07763 0.0
C1366 C 0.1489 0.74843 0.0432 0.0
C1367 C 0.10094 0.74023 0.04406 0.0
C1368 C 0.1822 0.77028 0.05159 0.0
C1369 C 0.16856 0.78546 0.0609 0.0
C1370 C 0.121 0.77878 0.06147 0.0
C1371 C 0.08755 0.75593 0.05325 0.0
H1372 H 0.36606 0.19921 0.2619 0.0
H1373 H 0.43887 0.32577 0.24161 0.0
H1374 H 0.33471 0.14672 0.2464 0.0
H1375 H 0.40649 0.27325 0.22598 0.0
H1376 H 0.39535 0.15861 0.20146 0.0
H1377 H 0.41979 0.21531 0.21645 0.0
H1378 H 0.28149 0.12061 0.2318 0.0
H1379 H 0.25817 0.06347 0.21712 0.0
C1380 C 0.37403 0.216 0.25412 0.0
C1381 C 0.40492 0.26666 0.253 0.0
C1382 C 0.35617 0.18583 0.24519 0.0
C1383 C 0.36836 0.20554 0.23487 0.0
C1384 C 0.39718 0.2566 0.23377 0.0
C1385 C 0.41534 0.28678 0.24272 0.0
C1386 C 0.37028 0.14998 0.20805 0.0
C1387 C 0.32513 0.10615 0.20815 0.0
C1388 C 0.38405 0.18269 0.21662 0.0
C1389 C 0.35274 0.17255 0.22541 0.0
C1390 C 0.30708 0.12928 0.22531 0.0
C1391 C 0.29362 0.09646 0.21685 0.0
H1392 H 0.10894 0.45658 0.40811 0.0
H1393 H 0.15394 0.37465 0.42804 0.0
H1394 H 0.13784 0.43275 0.39249 0.0
H1395 H 0.18042 0.34874 0.41241 0.0
H1396 H 0.2905 0.37624 0.38636 0.0
H1397 H 0.25017 0.39137 0.40111 0.0
H1398 H 0.13254 0.37143 0.38031 0.0
H1399 H 0.17382 0.35747 0.3654 0.0
C1400 C 0.12379 0.43238 0.40913 0.0
C1401 C 0.12989 0.41826 0.41936 0.0
C1402 C 0.14018 0.41852 0.40016 0.0
C1403 C 0.16272 0.38987 0.4012 0.0
C1404 C 0.16459 0.37206 0.41134 0.0
C1405 C 0.1485 0.38616 0.42031 0.0
C1406 C 0.25619 0.37536 0.3849 0.0
C1407 C 0.23541 0.36554 0.37469 0.0
C1408 C 0.23268 0.38347 0.3934 0.0
C1409 C 0.18749 0.38164 0.39198 0.0
C1410 C 0.16728 0.37315 0.3817 0.0
C1411 C 0.19102 0.36527 0.37315 0.0
H1412 H 0.80981 0.18219 0.53207 0.0
H1413 H 0.90878 0.29277 0.55398 0.0
H1414 H 0.75367 0.13908 0.54668 0.0
H1415 H 0.85242 0.25075 0.56846 0.0
H1416 H 0.7693 0.1531 0.5946 0.0
H1417 H 0.82241 0.17908 0.57913 0.0
H1418 H 0.69823 0.1443 0.55899 0.0
H1419 H 0.64459 0.11557 0.57443 0.0
C1420 C 0.81929 0.19767 0.53997 0.0
C1421 C 0.86387 0.24092 0.54186 0.0
C1422 C 0.78714 0.17287 0.54836 0.0
C1423 C 0.79881 0.1909 0.55881 0.0
C1424 C 0.84281 0.23488 0.56059 0.0
C1425 C 0.87495 0.25941 0.55225 0.0
C1426 C 0.75291 0.14913 0.58685 0.0
C1427 C 0.70271 0.13296 0.5858 0.0
C1428 C 0.78359 0.16497 0.57797 0.0
C1429 C 0.76493 0.1654 0.56784 0.0
C1430 C 0.71404 0.14491 0.56665 0.0
C1431 C 0.68327 0.12864 0.57553 0.0
H1432 H 0.61554 0.77359 0.76033 0.0
H1433 H 0.53108 0.64783 0.74028 0.0
H1434 H 0.64231 0.82604 0.74476 0.0
H1435 H 0.55604 0.70081 0.72471 0.0
H1436 H 0.62849 0.8143 0.69786 0.0
H1437 H 0.61788 0.75862 0.71245 0.0
H1438 H 0.59546 0.85185 0.73414 0.0
H1439 H 0.60694 0.90754 0.71972 0.0
C1440 C 0.60383 0.75683 0.75258 0.0
C1441 C 0.57041 0.70657 0.75158 0.0
C1442 C 0.6185 0.78709 0.74365 0.0
C1443 C 0.59993 0.76787 0.73353 0.0
C1444 C 0.57069 0.71694 0.73239 0.0
C1445 C 0.55623 0.68658 0.74133 0.0
C1446 C 0.6209 0.82261 0.70574 0.0
C1447 C 0.61869 0.86546 0.70764 0.0
C1448 C 0.61502 0.79081 0.7141 0.0
C1449 C 0.60681 0.80124 0.72452 0.0
C1450 C 0.60326 0.8434 0.7263 0.0
C1451 C 0.60925 0.87511 0.71799 0.0
H1452 H 0.47398 0.43936 1.00586 0.0
H1453 H 0.50997 0.34072 0.02214 0.0
H1454 H 0.55933 0.48947 1.00044 0.0
H1455 H 0.59523 0.39109 0.01679 0.0
H1456 H 0.72034 0.44896 0.99343 0.0
H1457 H 0.63498 0.40571 0.99884 0.0
H1458 H 0.64496 0.54257 1.00784 0.0
H1459 H 0.73061 0.58642 1.00211 0.0
C1460 C 0.50021 0.42867 1.00836 0.0
C1461 C 0.48531 0.38574 0.01427 0.0
C1462 C 0.54899 0.45747 1.0053 0.0
C1463 C 0.58344 0.44356 1.00805 0.0
C1464 C 0.56899 0.40195 0.01439 0.0
C1465 C 0.52034 0.37332 0.01749 0.0
C1466 C 0.70409 0.47004 0.9963 0.0
C1467 C 0.7321 0.52106 0.99736 0.0
C1468 C 0.65548 0.44518 0.99956 0.0
C1469 C 0.63388 0.47081 1.00394 0.0
C1470 C 0.66099 0.52204 1.00452 0.0
C1471 C 0.70986 0.54701 1.00128 0.0
H1472 H 0.15522 0.51327 0.19087 0.0
H1473 H 0.02827 0.48105 0.17187 0.0
H1474 H 0.19268 0.5992 0.18592 0.0
H1475 H 0.06614 0.56693 0.16683 0.0
H1476 H 0.1385 0.73644 0.16862 0.0
H1477 H 0.09514 0.65083 0.17423 0.0
H1478 H 0.22581 0.64192 0.16867 0.0
H1479 H 0.26944 0.72744 0.16341 0.0
C1480 C 0.13521 0.52461 0.1857 0.0
C1481 C 0.08921 0.49048 0.18162 0.0
C1482 C 0.15672 0.57364 0.18283 0.0
C1483 C 0.13254 0.58933 0.17586 0.0
C1484 C 0.08549 0.55568 0.17221 0.0
C1485 C 0.06402 0.50658 0.17505 0.0
C1486 C 0.15777 0.71601 0.16857 0.0
C1487 C 0.20733 0.73852 0.16564 0.0
C1488 C 0.13297 0.66713 0.17173 0.0
C1489 C 0.15748 0.64022 0.17203 0.0
C1490 C 0.20642 0.66223 0.16871 0.0
C1491 C 0.23111 0.71091 0.16553 0.0
H1492 H 0.38721 0.14185 0.33567 0.0
H1493 H 0.52531 0.26932 0.3277 0.0
H1494 H 0.43067 0.09937 0.34127 0.0
H1495 H 0.56835 0.22663 0.33305 0.0
H1496 H 0.63023 0.16333 0.35666 0.0
H1497 H 0.58114 0.1994 0.35103 0.0
H1498 H 0.48459 0.0675 0.33379 0.0
H1499 H 0.53354 0.03112 0.33945 0.0
C1500 C 0.42672 0.16045 0.33499 0.0
C1501 C 0.45296 0.20888 0.33131 0.0
C1502 C 0.45147 0.13615 0.33815 0.0
C1503 C 0.5028 0.16013 0.33774 0.0
C1504 C 0.52879 0.20772 0.33362 0.0
C1505 C 0.50411 0.23185 0.33042 0.0
C1506 C 0.59831 0.14186 0.35175 0.0
C1507 C 0.58605 0.09471 0.34837 0.0
C1508 C 0.57044 0.16259 0.34848 0.0
C1509 C 0.52968 0.13643 0.34184 0.0
C1510 C 0.51595 0.0884 0.33889 0.0
C1511 C 0.54404 0.06773 0.3421 0.0
H1512 H 0.23864 0.39188 0.50195 0.0
H1513 H 0.25173 0.53075 0.49353 0.0
H1514 H 0.3244 0.43428 0.5077 0.0
H1515 H 0.33702 0.57252 0.49903 0.0
H1516 H 0.45747 0.63343 0.52347 0.0
H1517 H 0.37304 0.58326 0.51761 0.0
H1518 H 0.41233 0.48932 0.50041 0.0
H1519 H 0.49722 0.53953 0.5063 0.0
C1520 C 0.26003 0.43127 0.50118 0.0
C1521 C 0.23851 0.45808 0.49736 0.0
C1522 C 0.30895 0.45539 0.50443 0.0
C1523 C 0.33673 0.5066 0.50398 0.0
C1524 C 0.31596 0.53303 0.49963 0.0
C1525 C 0.26736 0.50904 0.49634 0.0
C1526 C 0.4481 0.60183 0.51853 0.0
C1527 C 0.48402 0.59083 0.51519 0.0
C1528 C 0.39988 0.57331 0.51514 0.0
C1529 C 0.38665 0.53315 0.5084 0.0
C1530 C 0.42183 0.5203 0.50557 0.0
C1531 C 0.47029 0.54909 0.50891 0.0
H1532 H 0.81383 0.46688 0.68958 0.0
H1533 H 0.94577 0.49996 0.67247 0.0
H1534 H 0.77719 0.38146 0.68425 0.0
H1535 H 0.9088 0.41437 0.66709 0.0
H1536 H 0.83348 0.24338 0.66907 0.0
H1537 H 0.87631 0.32907 0.67472 0.0
H1538 H 0.7495 0.34068 0.66638 0.0
H1539 H 0.70646 0.25522 0.66097 0.0
C1540 C 0.83512 0.45584 0.68475 0.0
C1541 C 0.88235 0.49012 0.68131 0.0
C1542 C 0.81406 0.40708 0.68166 0.0
C1543 C 0.83997 0.39171 0.67512 0.0
C1544 C 0.8881 0.42543 0.67212 0.0
C1545 C 0.90909 0.47434 0.67516 0.0
C1546 C 0.81504 0.26448 0.66838 0.0
C1547 C 0.76668 0.24275 0.66461 0.0
C1548 C 0.83953 0.31338 0.67157 0.0
C1549 C 0.81582 0.34104 0.67112 0.0
C1550 C 0.76822 0.3198 0.66697 0.0
C1551 C 0.7439 0.27115 0.66373 0.0
H1552 H 0.58528 0.84081 0.83554 0.0
H1553 H 0.44791 0.71491 0.82645 0.0
H1554 H 0.54131 0.88242 0.84144 0.0
H1555 H 0.40443 0.75671 0.83212 0.0
H1556 H 0.3402 0.81586 0.85614 0.0
H1557 H 0.39036 0.78109 0.85041 0.0
H1558 H 0.48761 0.91529 0.83404 0.0
H1559 H 0.43754 0.95034 0.83979 0.0
C1560 C 0.54586 0.82241 0.83467 0.0
C1561 C 0.51995 0.77465 0.83057 0.0
C1562 C 0.52082 0.84619 0.83801 0.0
C1563 C 0.46954 0.82232 0.83738 0.0
C1564 C 0.44394 0.77549 0.83286 0.0
C1565 C 0.4689 0.75191 0.82946 0.0
C1566 C 0.37251 0.83812 0.8514 0.0
C1567 C 0.3846 0.8855 0.84827 0.0
C1568 C 0.40101 0.81814 0.84808 0.0
C1569 C 0.44224 0.84532 0.84164 0.0
C1570 C 0.45587 0.89361 0.83898 0.0
C1571 C 0.42713 0.9135 0.84223 0.0
H1572 H 0.53781 0.49776 0.85434 0.0
H1573 H 0.6336 0.46276 0.83649 0.0
H1574 H 0.48877 0.41222 0.85968 0.0
H1575 H 0.58443 0.37742 0.8418 0.0
H1576 H 0.53027 0.25134 0.86502 0.0
H1577 H 0.5728 0.33686 0.85969 0.0
H1578 H 0.43448 0.32689 0.85201 0.0
H1579 H 0.39151 0.2411 0.85758 0.0
C1580 C 0.54808 0.47173 0.85148 0.0
C1581 C 0.58992 0.48695 0.84514 0.0
C1582 C 0.51993 0.42286 0.8545 0.0
C1583 C 0.53343 0.38863 0.85128 0.0
C1584 C 0.57391 0.40344 0.84455 0.0
C1585 C 0.60184 0.45216 0.84147 0.0
C1586 C 0.50882 0.26764 0.86242 0.0
C1587 C 0.45763 0.23966 0.86168 0.0
C1588 C 0.5332 0.31632 0.85923 0.0
C1589 C 0.50687 0.33801 0.85528 0.0
C1590 C 0.45553 0.31082 0.855 0.0
C1591 C 0.43107 0.26187 0.85814 0.0
H1592 H 0.02378 0.53918 0.02385 0.0
H1593 H 0.15393 0.62861 1.00531 0.0
H1594 H 0.05979 0.49077 0.03015 0.0
H1595 H 0.18958 0.58018 1.01161 0.0
H1596 H 0.13505 0.39212 0.02844 0.0
H1597 H 0.09071 0.43397 0.02301 0.0
H1598 H 0.21813 0.57316 0.03022 0.0
H1599 H 0.26264 0.53182 0.03541 0.0
C1600 C 0.0598 0.54814 0.02104 0.0
C1601 C 0.08646 0.58809 0.01422 0.0
C1602 C 0.08023 0.52041 0.02463 0.0
C1603 C 0.12768 0.53256 0.02152 0.0
C1604 C 0.15328 0.5709 0.0143 0.0
C1605 C 0.13278 0.59836 1.01065 0.0
C1606 C 0.15321 0.43161 0.02899 0.0
C1607 C 0.20236 0.45883 0.03223 0.0
C1608 C 0.12787 0.45541 0.02593 0.0
C1609 C 0.15155 0.50666 0.026 0.0
C1610 C 0.19953 0.53359 0.0299 0.0
C1611 C 0.22471 0.50989 0.03301 0.0
H1612 H 0.71672 0.27026 0.20005 0.0
H1613 H 0.72813 0.14443 0.19071 0.0
H1614 H 0.63123 0.2284 0.19458 0.0
H1615 H 0.64243 0.1028 0.18501 0.0
H1616 H 0.4716 0.03394 0.18697 0.0
H1617 H 0.5568 0.06969 0.19259 0.0
H1618 H 0.59151 0.20392 0.17646 0.0
H1619 H 0.50637 0.16843 0.17087 0.0
C1620 C 0.70065 0.23328 0.19701 0.0
C1621 C 0.72894 0.21054 0.19577 0.0
C1622 C 0.65201 0.20967 0.19374 0.0
C1623 C 0.63073 0.16284 0.18921 0.0
C1624 C 0.65819 0.13902 0.18845 0.0
C1625 C 0.70707 0.1628 0.19167 0.0
C1626 C 0.49753 0.07097 0.18456 0.0
C1627 C 0.48234 0.09875 0.17863 0.0
C1628 C 0.54621 0.09125 0.18774 0.0
C1629 C 0.58028 0.1397 0.1851 0.0
C1630 C 0.56555 0.16675 0.17877 0.0
C1631 C 0.51699 0.14637 0.17553 0.0
H1632 H 0.43166 0.48108 0.35402 0.0
H1633 H 0.33374 0.51579 0.33697 0.0
H1634 H 0.48028 0.56629 0.35961 0.0
H1635 H 0.38256 0.60091 0.34253 0.0
H1636 H 0.43891 0.72713 0.36584 0.0
H1637 H 0.39583 0.64171 0.36037 0.0
H1638 H 0.5336 0.6514 0.35222 0.0
H1639 H 0.57704 0.73696 0.35794 0.0
C1640 C 0.42082 0.50699 0.35139 0.0
C1641 C 0.37855 0.49175 0.34519 0.0
C1642 C 0.44874 0.55571 0.35456 0.0
C1643 C 0.43461 0.58981 0.35164 0.0
C1644 C 0.39359 0.575 0.34506 0.0
C1645 C 0.36587 0.52641 0.34183 0.0
C1646 C 0.4601 0.71076 0.36311 0.0
C1647 C 0.51128 0.7386 0.36229 0.0
C1648 C 0.43541 0.66213 0.35983 0.0
C1649 C 0.46142 0.64038 0.35571 0.0
C1650 C 0.51275 0.66746 0.35535 0.0
C1651 C 0.53751 0.7163 0.35858 0.0
H1652 H 0.70601 0.45602 0.53021 0.0
H1653 H 0.84042 0.59351 0.52661 0.0
H1654 H 0.74826 0.41214 0.52504 0.0
H1655 H 0.88309 0.54928 0.52145 0.0
H1656 H 0.93981 0.43531 0.52472 0.0
H1657 H 0.90425 0.48581 0.52981 0.0
H1658 H 0.7871 0.40843 0.5073 0.0
H1659 H 0.82228 0.35786 0.5022 0.0
C1660 C 0.74484 0.47673 0.52849 0.0
C1661 C 0.77017 0.52799 0.52883 0.0
C1662 C 0.76881 0.45171 0.52542 0.0
C1663 C 0.81865 0.47749 0.52275 0.0
C1664 C 0.84457 0.52874 0.52347 0.0
C1665 C 0.82031 0.55391 0.5264 0.0
C1666 C 0.90672 0.42942 0.52078 0.0
C1667 C 0.88344 0.39227 0.51315 0.0
C1668 C 0.88659 0.45842 0.52367 0.0
C1669 C 0.84278 0.45045 0.51902 0.0
C1670 C 0.82055 0.41463 0.51111 0.0
C1671 C 0.84075 0.38584 0.50818 0.0
H1672 H 0.24198 0.83966 0.69231 0.0
H1673 H 0.25119 0.71173 0.70078 0.0
H1674 H 0.32807 0.88125 0.68689 0.0
H1675 H 0.33702 0.75349 0.69556 0.0
H1676 H 0.46147 0.81517 0.6715 0.0
H1677 H 0.37676 0.77979 0.67738 0.0
H1678 H 0.41386 0.91225 0.6946 0.0
H1679 H 0.49875 0.94786 0.68872 0.0
C1680 C 0.26262 0.82079 0.69315 0.0
C1681 C 0.23998 0.77247 0.69692 0.0
C1682 C 0.31174 0.84457 0.69009 0.0
C1683 C 0.33869 0.82016 0.69067 0.0
C1684 C 0.31667 0.77273 0.69488 0.0
C1685 C 0.2678 0.74913 0.69801 0.0
C1686 C 0.4515 0.83687 0.67647 0.0
C1687 C 0.48673 0.88399 0.67976 0.0
C1688 C 0.40317 0.81654 0.67989 0.0
C1689 C 0.38918 0.84313 0.68656 0.0
C1690 C 0.42387 0.89104 0.68947 0.0
C1691 C 0.47236 0.91125 0.68614 0.0
H1692 H 0.4438 0.09462 0.10566 0.0
H1693 H 0.39118 0.1841 0.12017 0.0
H1694 H 0.48943 0.15808 0.09282 0.0
H1695 H 0.43615 0.24722 0.10713 0.0
H1696 H 0.45431 0.32662 0.08256 0.0
H1697 H 0.49937 0.30327 0.09422 0.0
H1698 H 0.43193 0.16058 0.0796 0.0
H1699 H 0.38816 0.18448 0.06743 0.0
C1700 C 0.44376 0.12875 0.1065 0.0
C1701 C 0.412 0.13356 0.11368 0.0
C1702 C 0.4703 0.16527 0.09909 0.0
C1703 C 0.4648 0.20661 0.09867 0.0
C1704 C 0.44059 0.21532 0.10709 0.0
C1705 C 0.41396 0.17876 0.1145 0.0
C1706 C 0.45086 0.29115 0.08127 0.0
C1707 C 0.41473 0.25605 0.07446 0.0
C1708 C 0.47728 0.27797 0.08803 0.0
C1709 C 0.46671 0.22933 0.08829 0.0
C1710 C 0.43961 0.19807 0.07987 0.0
C1711 C 0.41352 0.21138 0.07299 0.0
H1712 H 0.1859 0.38981 0.23531 0.0
H1713 H 0.10466 0.45218 0.24979 0.0
H1714 H 0.2523 0.43577 0.24759 0.0
H1715 H 0.17189 0.49961 0.26153 0.0
H1716 H 0.32935 0.44967 0.27331 0.0
H1717 H 0.31068 0.49487 0.26056 0.0
H1718 H 0.16866 0.44123 0.27501 0.0
H1719 H 0.18782 0.39706 0.28807 0.0
C1720 C 0.18286 0.41472 0.24076 0.0
C1721 C 0.13847 0.41441 0.24197 0.0
C1722 C 0.22153 0.44211 0.2477 0.0
C1723 C 0.21583 0.46909 0.25596 0.0
C1724 C 0.17641 0.47771 0.25548 0.0
C1725 C 0.13751 0.44995 0.24866 0.0
C1726 C 0.29511 0.44947 0.27424 0.0
C1727 C 0.25878 0.41742 0.28141 0.0
C1728 C 0.28463 0.47581 0.26686 0.0
C1729 C 0.23745 0.46952 0.26641 0.0
C1730 C 0.20513 0.44592 0.27494 0.0
C1731 C 0.21565 0.41968 0.28236 0.0
H1732 H 0.78289 0.19944 0.45622 0.0
H1733 H 0.86794 0.33897 0.44055 0.0
H1734 H 0.71749 0.17803 0.44357 0.0
H1735 H 0.802 0.31804 0.42817 0.0
H1736 H 0.78037 0.19062 0.40343 0.0
H1737 H 0.80203 0.25809 0.4155 0.0
H1738 H 0.65992 0.17873 0.43034 0.0
H1739 H 0.63887 0.11059 0.41868 0.0
C1740 C 0.78679 0.22639 0.4504 0.0
C1741 C 0.83163 0.26955 0.44906 0.0
C1742 C 0.74886 0.21458 0.44321 0.0
C1743 C 0.75585 0.24559 0.43452 0.0
C1744 C 0.79632 0.29295 0.4346 0.0
C1745 C 0.83432 0.30475 0.44176 0.0
C1746 C 0.75311 0.18816 0.40901 0.0
C1747 C 0.70924 0.14404 0.41047 0.0
C1748 C 0.76507 0.22735 0.41584 0.0
C1749 C 0.7334 0.2224 0.42426 0.0
C1750 C 0.68552 0.18278 0.42414 0.0
C1751 C 0.67365 0.14345 0.41739 0.0
H1752 H 0.57265 0.78462 0.57177 0.0
H1753 H 0.5202 0.64411 0.58689 0.0
H1754 H 0.52641 0.80339 0.58436 0.0
H1755 H 0.47275 0.6623 0.59916 0.0
H1756 H 0.5766 0.78727 0.62435 0.0
H1757 H 0.53016 0.72042 0.61221 0.0
H1758 H 0.46866 0.80173 0.59767 0.0
H1759 H 0.5165 0.86933 0.60937 0.0
C1760 C 0.54965 0.7569 0.57746 0.0
C1761 C 0.55261 0.71432 0.57869 0.0
C1762 C 0.52218 0.76717 0.58461 0.0
C1763 C 0.49811 0.73519 0.59316 0.0
C1764 C 0.49232 0.68822 0.59287 0.0
C1765 C 0.51995 0.678 0.58578 0.0
C1766 C 0.55198 0.79034 0.61881 0.0
C1767 C 0.55301 0.83493 0.61741 0.0
C1768 C 0.52435 0.75147 0.61194 0.0
C1769 C 0.49805 0.75726 0.60354 0.0
C1770 C 0.49009 0.79712 0.60382 0.0
C1771 C 0.51801 0.83618 0.6106 0.0
H1772 H 0.77824 0.57726 0.73618 0.0
H1773 H 0.86322 0.51921 0.75067 0.0
H1774 H 0.71298 0.53116 0.74867 0.0
H1775 H 0.79714 0.47163 0.76269 0.0
H1776 H 0.78176 0.57546 0.78889 0.0
H1777 H 0.79985 0.52965 0.77605 0.0
H1778 H 0.65672 0.47427 0.76202 0.0
H1779 H 0.63918 0.52128 0.77451 0.0
C1780 C 0.7823 0.55318 0.74169 0.0
C1781 C 0.82738 0.55486 0.74284 0.0
C1782 C 0.74432 0.52573 0.74876 0.0
C1783 C 0.75144 0.50015 0.75712 0.0
C1784 C 0.79155 0.49258 0.75658 0.0
C1785 C 0.82975 0.52037 0.74961 0.0
C1786 C 0.75347 0.55219 0.78332 0.0
C1787 C 0.71041 0.55459 0.78236 0.0
C1788 C 0.76338 0.52498 0.77602 0.0
C1789 C 0.73049 0.50047 0.76762 0.0
C1790 C 0.6833 0.49416 0.76819 0.0
C1791 C 0.67345 0.52154 0.77542 0.0
H1792 H 0.19183 0.78372 0.95678 0.0
H1793 H 0.10572 0.64394 0.94123 0.0
H1794 H 0.2562 0.80508 0.94387 0.0
H1795 H 0.17062 0.66484 0.92857 0.0
H1796 H 0.19048 0.79116 0.90379 0.0
H1797 H 0.16963 0.72434 0.91598 0.0
H1798 H 0.31269 0.80453 0.9304 0.0
H1799 H 0.3329 0.8721 0.91866 0.0
C1800 C 0.18752 0.75669 0.95093 0.0
C1801 C 0.1426 0.71348 0.9497 0.0
C1802 C 0.22485 0.76849 0.94358 0.0
C1803 C 0.21718 0.73741 0.93485 0.0
C1804 C 0.17679 0.69 0.93503 0.0
C1805 C 0.1394 0.6782 0.94235 0.0
C1806 C 0.21808 0.79397 0.90933 0.0
C1807 C 0.26204 0.83818 0.91063 0.0
C1808 C 0.20659 0.75514 0.91622 0.0
C1809 C 0.23884 0.76048 0.92454 0.0
C1810 C 0.28666 0.80017 0.92428 0.0
C1811 C 0.29805 0.83917 0.91747 0.0
loop_
_geom_bond_atom_site_label_1
_geom_bond_atom_site_label_2
_geom_bond_distance
_geom_bond_site_symmetry_2
_ccdc_geom_bond_type
C0 C1 1.359 . S
C0 N5 1.330 . S
C0 C61 1.504 . S
C1 C0 1.359 . S
C1 C2 1.366 . S
C1 H63 0.929 . S
C2 C1 1.366 . S
C2 C3 1.415 . S
C2 H64 0.932 . S
C3 C2 1.415 . S
C3 C4 1.366 . S
C3 H65 0.931 . S
C4 C3 1.366 . S
C4 N5 1.325 . S
C4 C6 1.516 . S
N5 C0 1.330 . S
N5 C4 1.325 . S
N5 Co21 1.869 . S
C6 C4 1.516 . S
C6 N30 1.316 . S
C6 O53 1.263 . S
C7 C8 1.421 . S
C7 C12 1.360 . S
C7 N30 1.436 . S
C8 C7 1.421 . S
C8 C9 1.379 . S
C8 H66 0.929 . S
C9 C8 1.379 . S
C9 C10 1.417 . S
C10 C9 1.417 . S
C10 C11 1.352 . S
C10 H67 0.929 . S
C11 C10 1.352 . S
C11 C12 1.393 . S
C12 C7 1.360 . S
C12 C11 1.393 . S
C12 H68 0.931 . S
Cd13 O33 2.329 1_554 S
Cd13 O35 2.350 . S
Cd13 O36 2.277 . S
Cd13 O38 2.173 . S
Cd13 O42 2.263 . S
Cd13 O53 2.366 . S
Cd14 O32 2.352 . S
Cd14 O39 2.261 . S
Cd14 O43 2.308 . S
C15 C19 1.403 . S
C15 C20 1.370 . S
C15 N31 1.423 . S
C16 C17 1.389 . S
C16 C20 1.389 . S
C17 C16 1.389 . S
C17 C18 1.379 . S
C17 H69 0.929 . S
C18 C17 1.379 . S
C18 C19 1.405 . S
C19 C15 1.403 . S
C19 C18 1.405 . S
C19 H70 0.932 . S
C20 C15 1.370 . S
C20 C16 1.389 . S
C20 H71 0.931 . S
Co21 N5 1.869 . S
Co21 N22 1.955 . S
Co21 N23 1.864 . S
Co21 N29 1.958 . S
Co21 N30 1.953 . S
Co21 N31 1.974 . S
N22 Co21 1.955 . S
N22 C40 1.329 . S
N22 C55 1.432 . S
N23 Co21 1.864 . S
N23 C24 1.327 . S
N23 C28 1.342 . S
C24 N23 1.327 . S
C24 C25 1.407 . S
C24 C40 1.481 . S
C25 C24 1.407 . S
C25 C26 1.364 . S
C25 H72 0.930 . S
C26 C25 1.364 . S
C26 C27 1.390 . S
C26 H73 0.931 . S
C27 C26 1.390 . S
C27 C28 1.346 . S
C27 H74 0.930 . S
C28 N23 1.342 . S
C28 C27 1.346 . S
C28 C44 1.516 . S
N29 Co21 1.958 . S
N29 C44 1.324 . S
N29 C46 1.427 . S
N30 C6 1.316 . S
N30 C7 1.436 . S
N30 Co21 1.953 . S
N31 C15 1.423 . S
N31 Co21 1.974 . S
N31 C61 1.309 . S
O32 Cd14 2.352 . S
O32 C52 1.235 . S
O33 Cd13 2.329 1_556 S
O33 C52 1.270 . S
C34 O35 1.270 . S
C34 O36 1.248 . S
O35 Cd13 2.350 . S
O35 C34 1.270 . S
O36 Cd13 2.277 . S
O36 C34 1.248 . S
C37 O38 1.277 . S
C37 O39 1.217 1_554 S
O38 Cd13 2.173 . S
O38 C37 1.277 . S
O39 Cd14 2.261 . S
O39 C37 1.217 1_556 S
C40 N22 1.329 . S
C40 C24 1.481 . S
C40 O41 1.246 . S
O41 C40 1.246 . S
O42 Cd13 2.263 . S
O42 C54 1.258 . S
O43 Cd14 2.308 . S
O43 C54 1.274 1_556 S
C44 C28 1.516 . S
C44 N29 1.324 . S
C44 O45 1.238 . S
O45 C44 1.238 . S
C46 N29 1.427 . S
C46 C47 1.394 . S
C46 C51 1.395 . S
C47 C46 1.394 . S
C47 C48 1.380 . S
C47 H75 0.929 . S
C48 C47 1.380 . S
C48 C49 1.384 . S
C48 C54 1.495 . S
C49 C48 1.384 . S
C49 C50 1.382 . S
C49 H76 0.930 . S
C50 C49 1.382 . S
C50 C51 1.398 . S
C51 C46 1.395 . S
C51 C50 1.398 . S
C51 H77 0.930 . S
C52 O32 1.235 . S
C52 O33 1.270 . S
O53 C6 1.263 . S
O53 Cd13 2.366 . S
C54 O42 1.258 . S
C54 O43 1.274 1_554 S
C54 C48 1.495 . S
C55 N22 1.432 . S
C55 C56 1.381 . S
C55 C60 1.385 . S
C56 C55 1.381 . S
C56 C57 1.371 . S
C56 H78 0.932 . S
C57 C56 1.371 . S
C57 C58 1.400 . S
C58 C57 1.400 . S
C58 C59 1.351 . S
C58 H79 0.930 . S
C59 C58 1.351 . S
C59 C60 1.388 . S
C60 C55 1.385 . S
C60 C59 1.388 . S
C60 H80 0.929 . S
C61 C0 1.504 . S
C61 N31 1.309 . S
C61 O62 1.258 . S
O62 C61 1.258 . S
H63 C1 0.929 . S
H64 C2 0.932 . S
H65 C3 0.931 . S
H66 C8 0.929 . S
H67 C10 0.929 . S
H68 C12 0.931 . S
H69 C17 0.929 . S
H70 C19 0.932 . S
H71 C20 0.931 . S
H72 C25 0.930 . S
H73 C26 0.931 . S
H74 C27 0.930 . S
H75 C47 0.929 . S
H76 C49 0.930 . S
H77 C51 0.930 . S
H78 C56 0.932 . S
H79 C58 0.930 . S
H80 C60 0.929 . S
C81 C82 1.359 . S
C81 N86 1.330 . S
C81 C142 1.504 . S
C82 C81 1.359 . S
C82 C83 1.366 . S
C82 H144 0.929 . S
C83 C82 1.366 . S
C83 C84 1.415 1_655 S
C83 H145 0.932 1_655 S
C84 C83 1.415 1_455 S
C84 C85 1.366 . S
C84 H146 0.931 . S
C85 C84 1.366 . S
C85 N86 1.325 1_455 S
C85 C87 1.516 . S
N86 C81 1.330 . S
N86 C85 1.325 1_655 S
N86 Co102 1.869 . S
C87 C85 1.516 . S
C87 N111 1.316 . S
C87 O134 1.263 . S
C88 C89 1.421 . S
C88 C93 1.360 . S
C88 N111 1.436 . S
C89 C88 1.421 . S
C89 C90 1.379 . S
C89 H147 0.929 . S
C90 C89 1.379 . S
C90 C91 1.417 . S
C91 C90 1.417 . S
C91 C92 1.352 . S
C91 H148 0.929 . S
C92 C91 1.352 . S
C92 C93 1.393 . S
C93 C88 1.360 . S
C93 C92 1.393 . S
C93 H149 0.931 1_455 S
Cd94 O114 2.329 . S
Cd94 O116 2.350 . S
Cd94 O117 2.277 . S
Cd94 O119 2.173 . S
Cd94 O123 2.263 . S
Cd94 O134 2.366 . S
Cd95 O113 2.352 . S
Cd95 O120 2.250 . S
Cd95 O124 2.308 1_455 S
C96 C100 1.403 . S
C96 C101 1.370 . S
C96 N112 1.423 . S
C97 C98 1.389 . S
C97 C101 1.389 . S
C98 C97 1.389 . S
C98 C99 1.379 . S
C98 H150 0.929 . S
C99 C98 1.379 . S
C99 C100 1.405 . S
C100 C96 1.403 . S
C100 C99 1.405 . S
C100 H151 0.932 . S
C101 C96 1.370 . S
C101 C97 1.389 . S
C101 H152 0.931 . S
Co102 N86 1.869 . S
Co102 N103 1.955 1_655 S
Co102 N104 1.864 . S
Co102 N110 1.958 . S
Co102 N111 1.953 1_655 S
Co102 N112 1.974 . S
N103 Co102 1.955 1_455 S
N103 C121 1.329 . S
N103 C136 1.432 . S
N104 Co102 1.864 . S
N104 C105 1.327 . S
N104 C109 1.342 . S
C105 N104 1.327 . S
C105 C106 1.407 . S
C105 C121 1.481 1_655 S
C106 C105 1.407 . S
C106 C107 1.364 . S
C106 H153 0.930 . S
C107 C106 1.364 . S
C107 C108 1.390 . S
C107 H154 0.931 . S
C108 C107 1.390 . S
C108 C109 1.346 . S
C108 H155 0.930 . S
C109 N104 1.342 . S
C109 C108 1.346 . S
C109 C125 1.516 . S
N110 Co102 1.958 . S
N110 C125 1.324 . S
N110 C127 1.427 . S
N111 C87 1.316 . S
N111 C88 1.436 . S
N111 Co102 1.953 1_455 S
N112 C96 1.423 . S
N112 Co102 1.974 . S
N112 C142 1.309 . S
O113 Cd95 2.352 . S
O113 C133 1.235 . S
O114 Cd94 2.329 . S
O114 C133 1.270 . S
C115 O116 1.270 . S
C115 O117 1.248 . S
O116 Cd94 2.350 . S
O116 C115 1.270 . S
O117 Cd94 2.277 . S
O117 C115 1.248 . S
C118 O119 1.277 . S
C118 O120 1.230 . S
O119 Cd94 2.173 . S
O119 C118 1.277 . S
O120 Cd95 2.250 . S
O120 C118 1.230 . S
C121 N103 1.329 . S
C121 C105 1.481 1_455 S
C121 O122 1.246 . S
O122 C121 1.246 . S
O123 Cd94 2.263 . S
O123 C135 1.258 1_455 S
O124 Cd95 2.308 1_655 S
O124 C135 1.274 . S
C125 C109 1.516 . S
C125 N110 1.324 . S
C125 O126 1.238 . S
O126 C125 1.238 . S
C127 N110 1.427 . S
C127 C128 1.394 . S
C127 C132 1.395 . S
C128 C127 1.394 . S
C128 C129 1.380 . S
C128 H156 0.929 . S
C129 C128 1.380 . S
C129 C130 1.384 . S
C129 C135 1.495 . S
C130 C129 1.384 . S
C130 C131 1.382 . S
C130 H157 0.930 . S
C131 C130 1.382 . S
C131 C132 1.398 . S
C132 C127 1.395 . S
C132 C131 1.398 . S
C132 H158 0.930 . S
C133 O113 1.235 . S
C133 O114 1.270 . S
O134 C87 1.263 . S
O134 Cd94 2.366 . S
C135 O123 1.258 1_655 S
C135 O124 1.274 . S
C135 C129 1.495 . S
C136 N103 1.432 . S
C136 C137 1.381 . S
C136 C141 1.385 . S
C137 C136 1.381 . S
C137 C138 1.371 . S
C137 H159 0.932 1_455 S
C138 C137 1.371 . S
C138 C139 1.400 . S
C139 C138 1.400 . S
C139 C140 1.351 . S
C139 H160 0.930 . S
C140 C139 1.351 . S
C140 C141 1.388 . S
C141 C136 1.385 . S
C141 C140 1.388 . S
C141 H161 0.929 . S
C142 C81 1.504 . S
C142 N112 1.309 . S
C142 O143 1.258 . S
O143 C142 1.258 . S
H144 C82 0.929 . S
H145 C83 0.932 1_455 S
H146 C84 0.931 . S
H147 C89 0.929 . S
H148 C91 0.929 . S
H149 C93 0.931 1_655 S
H150 C98 0.929 . S
H151 C100 0.932 . S
H152 C101 0.931 . S
H153 C106 0.930 . S
H154 C107 0.931 . S
H155 C108 0.930 . S
H156 C128 0.929 . S
H157 C130 0.930 . S
H158 C132 0.930 . S
H159 C137 0.932 1_655 S
H160 C139 0.930 . S
H161 C141 0.929 . S
C162 C163 1.359 . S
C162 N167 1.330 . S
C162 C223 1.504 . S
C163 C162 1.359 . S
C163 C164 1.366 . S
C163 H225 0.929 . S
C164 C163 1.366 . S
C164 C165 1.415 1_565 S
C164 H226 0.932 1_565 S
C165 C164 1.415 1_545 S
C165 C166 1.366 . S
C165 H227 0.931 . S
C166 C165 1.366 . S
C166 N167 1.325 1_545 S
C166 C168 1.516 . S
N167 C162 1.330 . S
N167 C166 1.325 1_565 S
N167 Co183 1.869 . S
C168 C166 1.516 . S
C168 N192 1.316 . S
C168 O215 1.263 . S
C169 C170 1.421 . S
C169 C174 1.360 . S
C169 N192 1.436 . S
C170 C169 1.421 . S
C170 C171 1.379 . S
C170 H228 0.929 . S
C171 C170 1.379 . S
C171 C172 1.417 . S
C172 C171 1.417 . S
C172 C173 1.352 . S
C172 H229 0.929 . S
C173 C172 1.352 . S
C173 C174 1.393 . S
C174 C169 1.360 . S
C174 C173 1.393 . S
C174 H230 0.931 1_545 S
Cd175 O195 2.329 . S
Cd175 O197 2.350 . S
Cd175 O198 2.277 . S
Cd175 O200 2.173 . S
Cd175 O204 2.263 . S
Cd175 O215 2.366 . S
Cd176 O194 2.352 . S
Cd176 O201 2.250 . S
Cd176 O205 2.308 1_545 S
C177 C181 1.403 . S
C177 C182 1.370 . S
C177 N193 1.423 . S
C178 C179 1.389 . S
C178 C182 1.389 . S
C179 C178 1.389 . S
C179 C180 1.379 . S
C179 H231 0.929 . S
C180 C179 1.379 . S
C180 C181 1.405 . S
C181 C177 1.403 . S
C181 C180 1.405 . S
C181 H232 0.932 . S
C182 C177 1.370 . S
C182 C178 1.389 . S
C182 H233 0.931 . S
Co183 N167 1.869 . S
Co183 N184 1.955 1_565 S
Co183 N185 1.864 . S
Co183 N191 1.958 . S
Co183 N192 1.953 1_565 S
Co183 N193 1.974 . S
N184 Co183 1.955 1_545 S
N184 C202 1.329 . S
N184 C217 1.432 . S
N185 Co183 1.864 . S
N185 C186 1.327 . S
N185 C190 1.342 . S
C186 N185 1.327 . S
C186 C187 1.407 . S
C186 C202 1.481 1_565 S
C187 C186 1.407 . S
C187 C188 1.364 . S
C187 H234 0.930 . S
C188 C187 1.364 . S
C188 C189 1.390 . S
C188 H235 0.931 . S
C189 C188 1.390 . S
C189 C190 1.346 . S
C189 H236 0.930 . S
C190 N185 1.342 . S
C190 C189 1.346 . S
C190 C206 1.516 . S
N191 Co183 1.958 . S
N191 C206 1.324 . S
N191 C208 1.427 . S
N192 C168 1.316 . S
N192 C169 1.436 . S
N192 Co183 1.953 1_545 S
N193 C177 1.423 . S
N193 Co183 1.974 . S
N193 C223 1.309 . S
O194 Cd176 2.352 . S
O194 C214 1.235 . S
O195 Cd175 2.329 . S
O195 C214 1.270 . S
C196 O197 1.270 . S
C196 O198 1.248 . S
O197 Cd175 2.350 . S
O197 C196 1.270 . S
O198 Cd175 2.277 . S
O198 C196 1.248 . S
C199 O200 1.277 . S
C199 O201 1.230 . S
O200 Cd175 2.173 . S
O200 C199 1.277 . S
O201 Cd176 2.250 . S
O201 C199 1.230 . S
C202 N184 1.329 . S
C202 C186 1.481 1_545 S
C202 O203 1.246 . S
O203 C202 1.246 . S
O204 Cd175 2.263 . S
O204 C216 1.258 1_545 S
O205 Cd176 2.308 1_565 S
O205 C216 1.274 . S
C206 C190 1.516 . S
C206 N191 1.324 . S
C206 O207 1.238 . S
O207 C206 1.238 . S
C208 N191 1.427 . S
C208 C209 1.394 . S
C208 C213 1.395 . S
C209 C208 1.394 . S
C209 C210 1.380 . S
C209 H237 0.929 . S
C210 C209 1.380 . S
C210 C211 1.384 . S
C210 C216 1.495 . S
C211 C210 1.384 . S
C211 C212 1.382 . S
C211 H238 0.930 . S
C212 C211 1.382 . S
C212 C213 1.398 . S
C213 C208 1.395 . S
C213 C212 1.398 . S
C213 H239 0.930 . S
C214 O194 1.235 . S
C214 O195 1.270 . S
O215 C168 1.263 . S
O215 Cd175 2.366 . S
C216 O204 1.258 1_565 S
C216 O205 1.274 . S
C216 C210 1.495 . S
C217 N184 1.432 . S
C217 C218 1.381 . S
C217 C222 1.385 . S
C218 C217 1.381 . S
C218 C219 1.371 . S
C218 H240 0.932 1_545 S
C219 C218 1.371 . S
C219 C220 1.400 . S
C220 C219 1.400 . S
C220 C221 1.351 . S
C220 H241 0.930 . S
C221 C220 1.351 . S
C221 C222 1.388 . S
C222 C217 1.385 . S
C222 C221 1.388 . S
C222 H242 0.929 . S
C223 C162 1.504 . S
C223 N193 1.309 . S
C223 O224 1.258 . S
O224 C223 1.258 . S
H225 C163 0.929 . S
H226 C164 0.932 1_545 S
H227 C165 0.931 . S
H228 C170 0.929 . S
H229 C172 0.929 . S
H230 C174 0.931 1_565 S
H231 C179 0.929 . S
H232 C181 0.932 . S
H233 C182 0.931 . S
H234 C187 0.930 . S
H235 C188 0.931 . S
H236 C189 0.930 . S
H237 C209 0.929 . S
H238 C211 0.930 . S
H239 C213 0.930 . S
H240 C218 0.932 1_565 S
H241 C220 0.930 . S
H242 C222 0.929 . S
C243 C244 1.359 . S
C243 N248 1.330 . S
C243 C304 1.504 . S
C244 C243 1.359 . S
C244 C245 1.366 . S
C244 H306 0.929 . S
C245 C244 1.366 . S
C245 C246 1.415 . S
C245 H307 0.932 . S
C246 C245 1.415 . S
C246 C247 1.366 . S
C246 H308 0.931 . S
C247 C246 1.366 . S
C247 N248 1.325 . S
C247 C249 1.516 . S
N248 C243 1.330 . S
N248 C247 1.325 . S
N248 Co264 1.869 . S
C249 C247 1.516 . S
C249 N273 1.316 . S
C249 O296 1.263 . S
C250 C251 1.421 . S
C250 C255 1.360 . S
C250 N273 1.436 . S
C251 C250 1.421 . S
C251 C252 1.379 . S
C251 H309 0.929 . S
C252 C251 1.379 . S
C252 C253 1.417 . S
C253 C252 1.417 . S
C253 C254 1.352 . S
C253 H310 0.929 . S
C254 C253 1.352 . S
C254 C255 1.393 . S
C255 C250 1.360 . S
C255 C254 1.393 . S
C255 H311 0.931 . S
Cd256 O276 2.329 . S
Cd256 O278 2.350 . S
Cd256 O279 2.277 . S
Cd256 O281 2.173 . S
Cd256 O285 2.263 . S
Cd256 O296 2.366 . S
Cd257 O275 2.352 . S
Cd257 O282 2.250 . S
Cd257 O286 2.308 . S
C258 C262 1.403 . S
C258 C263 1.370 . S
C258 N274 1.423 . S
C259 C260 1.389 . S
C259 C263 1.389 . S
C260 C259 1.389 . S
C260 C261 1.379 . S
C260 H312 0.929 . S
C261 C260 1.379 . S
C261 C262 1.405 . S
C262 C258 1.403 . S
C262 C261 1.405 . S
C262 H313 0.932 . S
C263 C258 1.370 . S
C263 C259 1.389 . S
C263 H314 0.931 . S
Co264 N248 1.869 . S
Co264 N265 1.955 . S
Co264 N266 1.864 . S
Co264 N272 1.958 . S
Co264 N273 1.953 . S
Co264 N274 1.974 . S
N265 Co264 1.955 . S
N265 C283 1.329 . S
N265 C298 1.432 . S
N266 Co264 1.864 . S
N266 C267 1.327 . S
N266 C271 1.342 . S
C267 N266 1.327 . S
C267 C268 1.407 . S
C267 C283 1.481 . S
C268 C267 1.407 . S
C268 C269 1.364 . S
C268 H315 0.930 . S
C269 C268 1.364 . S
C269 C270 1.390 . S
C269 H316 0.931 . S
C270 C269 1.390 . S
C270 C271 1.346 . S
C270 H317 0.930 . S
C271 N266 1.342 . S
C271 C270 1.346 . S
C271 C287 1.516 . S
N272 Co264 1.958 . S
N272 C287 1.324 . S
N272 C289 1.427 . S
N273 C249 1.316 . S
N273 C250 1.436 . S
N273 Co264 1.953 . S
N274 C258 1.423 . S
N274 Co264 1.974 . S
N274 C304 1.309 . S
O275 Cd257 2.352 . S
O275 C295 1.235 . S
O276 Cd256 2.329 . S
O276 C295 1.270 . S
C277 O278 1.270 . S
C277 O279 1.248 . S
O278 Cd256 2.350 . S
O278 C277 1.270 . S
O279 Cd256 2.277 . S
O279 C277 1.248 . S
C280 O281 1.277 . S
C280 O282 1.230 . S
O281 Cd256 2.173 . S
O281 C280 1.277 . S
O282 Cd257 2.250 . S
O282 C280 1.230 . S
C283 N265 1.329 . S
C283 C267 1.481 . S
C283 O284 1.246 . S
O284 C283 1.246 . S
O285 Cd256 2.263 . S
O285 C297 1.258 . S
O286 Cd257 2.308 . S
O286 C297 1.274 . S
C287 C271 1.516 . S
C287 N272 1.324 . S
C287 O288 1.238 . S
O288 C287 1.238 . S
C289 N272 1.427 . S
C289 C290 1.394 . S
C289 C294 1.395 . S
C290 C289 1.394 . S
C290 C291 1.380 . S
C290 H318 0.929 . S
C291 C290 1.380 . S
C291 C292 1.384 . S
C291 C297 1.495 . S
C292 C291 1.384 . S
C292 C293 1.382 . S
C292 H319 0.930 . S
C293 C292 1.382 . S
C293 C294 1.398 . S
C294 C289 1.395 . S
C294 C293 1.398 . S
C294 H320 0.930 . S
C295 O275 1.235 . S
C295 O276 1.270 . S
O296 C249 1.263 . S
O296 Cd256 2.366 . S
C297 O285 1.258 . S
C297 O286 1.274 . S
C297 C291 1.495 . S
C298 N265 1.432 . S
C298 C299 1.381 . S
C298 C303 1.385 . S
C299 C298 1.381 . S
C299 C300 1.371 . S
C299 H321 0.932 . S
C300 C299 1.371 . S
C300 C301 1.400 . S
C301 C300 1.400 . S
C301 C302 1.351 . S
C301 H322 0.930 . S
C302 C301 1.351 . S
C302 C303 1.388 . S
C303 C298 1.385 . S
C303 C302 1.388 . S
C303 H323 0.929 . S
C304 C243 1.504 . S
C304 N274 1.309 . S
C304 O305 1.258 . S
O305 C304 1.258 . S
H306 C244 0.929 . S
H307 C245 0.932 . S
H308 C246 0.931 . S
H309 C251 0.929 . S
H310 C253 0.929 . S
H311 C255 0.931 . S
H312 C260 0.929 . S
H313 C262 0.932 . S
H314 C263 0.931 . S
H315 C268 0.930 . S
H316 C269 0.931 . S
H317 C270 0.930 . S
H318 C290 0.929 . S
H319 C292 0.930 . S
H320 C294 0.930 . S
H321 C299 0.932 . S
H322 C301 0.930 . S
H323 C303 0.929 . S
C324 C325 1.359 . S
C324 N329 1.330 . S
C324 C385 1.504 . S
C325 C324 1.359 . S
C325 C326 1.366 . S
C325 H387 0.929 . S
C326 C325 1.366 . S
C326 C327 1.415 1_455 S
C326 H388 0.932 1_455 S
C327 C326 1.415 1_655 S
C327 C328 1.366 . S
C327 H389 0.931 . S
C328 C327 1.366 . S
C328 N329 1.325 1_655 S
C328 C330 1.516 . S
N329 C324 1.330 . S
N329 C328 1.325 1_455 S
N329 Co345 1.869 . S
C330 C328 1.516 . S
C330 N354 1.316 . S
C330 O377 1.263 . S
C331 C332 1.421 . S
C331 C336 1.360 . S
C331 N354 1.436 . S
C332 C331 1.421 . S
C332 C333 1.379 . S
C332 H390 0.929 . S
C333 C332 1.379 . S
C333 C334 1.417 . S
C334 C333 1.417 . S
C334 C335 1.352 . S
C334 H391 0.929 . S
C335 C334 1.352 . S
C335 C336 1.393 . S
C336 C331 1.360 . S
C336 C335 1.393 . S
C336 H392 0.931 1_655 S
Cd337 O357 2.329 . S
Cd337 O359 2.350 . S
Cd337 O360 2.277 . S
Cd337 O362 2.173 . S
Cd337 O366 2.263 . S
Cd337 O377 2.366 . S
Cd338 O356 2.352 . S
Cd338 O363 2.250 . S
Cd338 O367 2.308 1_655 S
C339 C343 1.403 . S
C339 C344 1.370 . S
C339 N355 1.423 . S
C340 C341 1.389 . S
C340 C344 1.389 . S
C341 C340 1.389 . S
C341 C342 1.379 . S
C341 H393 0.929 . S
C342 C341 1.379 . S
C342 C343 1.405 . S
C343 C339 1.403 . S
C343 C342 1.405 . S
C343 H394 0.932 . S
C344 C339 1.370 . S
C344 C340 1.389 . S
C344 H395 0.931 . S
Co345 N329 1.869 . S
Co345 N346 1.955 1_455 S
Co345 N347 1.864 . S
Co345 N353 1.958 . S
Co345 N354 1.953 1_455 S
Co345 N355 1.974 . S
N346 Co345 1.955 1_655 S
N346 C364 1.329 . S
N346 C379 1.432 . S
N347 Co345 1.864 . S
N347 C348 1.327 . S
N347 C352 1.342 . S
C348 N347 1.327 . S
C348 C349 1.407 . S
C348 C364 1.481 1_455 S
C349 C348 1.407 . S
C349 C350 1.364 . S
C349 H396 0.930 . S
C350 C349 1.364 . S
C350 C351 1.390 . S
C350 H397 0.931 . S
C351 C350 1.390 . S
C351 C352 1.346 . S
C351 H398 0.930 . S
C352 N347 1.342 . S
C352 C351 1.346 . S
C352 C368 1.516 . S
N353 Co345 1.958 . S
N353 C368 1.324 . S
N353 C370 1.427 . S
N354 C330 1.316 . S
N354 C331 1.436 . S
N354 Co345 1.953 1_655 S
N355 C339 1.423 . S
N355 Co345 1.974 . S
N355 C385 1.309 . S
O356 Cd338 2.352 . S
O356 C376 1.235 . S
O357 Cd337 2.329 . S
O357 C376 1.270 . S
C358 O359 1.270 . S
C358 O360 1.248 . S
O359 Cd337 2.350 . S
O359 C358 1.270 . S
O360 Cd337 2.277 . S
O360 C358 1.248 . S
C361 O362 1.277 . S
C361 O363 1.230 . S
O362 Cd337 2.173 . S
O362 C361 1.277 . S
O363 Cd338 2.250 . S
O363 C361 1.230 . S
C364 N346 1.329 . S
C364 C348 1.481 1_655 S
C364 O365 1.246 . S
O365 C364 1.246 . S
O366 Cd337 2.263 . S
O366 C378 1.258 1_655 S
O367 Cd338 2.308 1_455 S
O367 C378 1.274 . S
C368 C352 1.516 . S
C368 N353 1.324 . S
C368 O369 1.238 . S
O369 C368 1.238 . S
C370 N353 1.427 . S
C370 C371 1.394 . S
C370 C375 1.395 . S
C371 C370 1.394 . S
C371 C372 1.380 . S
C371 H399 0.929 . S
C372 C371 1.380 . S
C372 C373 1.384 . S
C372 C378 1.495 . S
C373 C372 1.384 . S
C373 C374 1.382 . S
C373 H400 0.930 . S
C374 C373 1.382 . S
C374 C375 1.398 . S
C375 C370 1.395 . S
C375 C374 1.398 . S
C375 H401 0.930 . S
C376 O356 1.235 . S
C376 O357 1.270 . S
O377 C330 1.263 . S
O377 Cd337 2.366 . S
C378 O366 1.258 1_455 S
C378 O367 1.274 . S
C378 C372 1.495 . S
C379 N346 1.432 . S
C379 C380 1.381 . S
C379 C384 1.385 . S
C380 C379 1.381 . S
C380 C381 1.371 . S
C380 H402 0.932 1_655 S
C381 C380 1.371 . S
C381 C382 1.400 . S
C382 C381 1.400 . S
C382 C383 1.351 . S
C382 H403 0.930 . S
C383 C382 1.351 . S
C383 C384 1.388 . S
C384 C379 1.385 . S
C384 C383 1.388 . S
C384 H404 0.929 . S
C385 C324 1.504 . S
C385 N355 1.309 . S
C385 O386 1.258 . S
O386 C385 1.258 . S
H387 C325 0.929 . S
H388 C326 0.932 1_655 S
H389 C327 0.931 . S
H390 C332 0.929 . S
H391 C334 0.929 . S
H392 C336 0.931 1_455 S
H393 C341 0.929 . S
H394 C343 0.932 . S
H395 C344 0.931 . S
H396 C349 0.930 . S
H397 C350 0.931 . S
H398 C351 0.930 . S
H399 C371 0.929 . S
H400 C373 0.930 . S
H401 C375 0.930 . S
H402 C380 0.932 1_455 S
H403 C382 0.930 . S
H404 C384 0.929 . S
C405 C406 1.359 . S
C405 N410 1.330 . S
C405 C466 1.504 . S
C406 C405 1.359 . S
C406 C407 1.366 . S
C406 H468 0.929 . S
C407 C406 1.366 . S
C407 C408 1.415 1_545 S
C407 H469 0.932 1_545 S
C408 C407 1.415 1_565 S
C408 C409 1.366 . S
C408 H470 0.931 . S
C409 C408 1.366 . S
C409 N410 1.325 1_565 S
C409 C411 1.516 . S
N410 C405 1.330 . S
N410 C409 1.325 1_545 S
N410 Co426 1.869 . S
C411 C409 1.516 . S
C411 N435 1.316 . S
C411 O458 1.263 . S
C412 C413 1.421 . S
C412 C417 1.360 . S
C412 N435 1.436 . S
C413 C412 1.421 . S
C413 C414 1.379 . S
C413 H471 0.929 . S
C414 C413 1.379 . S
C414 C415 1.417 . S
C415 C414 1.417 . S
C415 C416 1.352 . S
C415 H472 0.929 . S
C416 C415 1.352 . S
C416 C417 1.393 . S
C417 C412 1.360 . S
C417 C416 1.393 . S
C417 H473 0.931 1_565 S
Cd418 O438 2.329 . S
Cd418 O440 2.350 . S
Cd418 O441 2.277 . S
Cd418 O443 2.173 . S
Cd418 O447 2.263 . S
Cd418 O458 2.366 . S
Cd419 O437 2.352 . S
Cd419 O444 2.250 . S
Cd419 O448 2.308 1_565 S
C420 C424 1.403 . S
C420 C425 1.370 . S
C420 N436 1.423 . S
C421 C422 1.389 . S
C421 C425 1.389 . S
C422 C421 1.389 . S
C422 C423 1.379 . S
C422 H474 0.929 . S
C423 C422 1.379 . S
C423 C424 1.405 . S
C424 C420 1.403 . S
C424 C423 1.405 . S
C424 H475 0.932 . S
C425 C420 1.370 . S
C425 C421 1.389 . S
C425 H476 0.931 . S
Co426 N410 1.869 . S
Co426 N427 1.955 1_545 S
Co426 N428 1.864 . S
Co426 N434 1.958 . S
Co426 N435 1.953 1_545 S
Co426 N436 1.974 . S
N427 Co426 1.955 1_565 S
N427 C445 1.329 . S
N427 C460 1.432 . S
N428 Co426 1.864 . S
N428 C429 1.327 . S
N428 C433 1.342 . S
C429 N428 1.327 . S
C429 C430 1.407 . S
C429 C445 1.481 1_545 S
C430 C429 1.407 . S
C430 C431 1.364 . S
C430 H477 0.930 . S
C431 C430 1.364 . S
C431 C432 1.390 . S
C431 H478 0.931 . S
C432 C431 1.390 . S
C432 C433 1.346 . S
C432 H479 0.930 . S
C433 N428 1.342 . S
C433 C432 1.346 . S
C433 C449 1.516 . S
N434 Co426 1.958 . S
N434 C449 1.324 . S
N434 C451 1.427 . S
N435 C411 1.316 . S
N435 C412 1.436 . S
N435 Co426 1.953 1_565 S
N436 C420 1.423 . S
N436 Co426 1.974 . S
N436 C466 1.309 . S
O437 Cd419 2.352 . S
O437 C457 1.235 . S
O438 Cd418 2.329 . S
O438 C457 1.270 . S
C439 O440 1.270 . S
C439 O441 1.248 . S
O440 Cd418 2.350 . S
O440 C439 1.270 . S
O441 Cd418 2.277 . S
O441 C439 1.248 . S
C442 O443 1.277 . S
C442 O444 1.230 . S
O443 Cd418 2.173 . S
O443 C442 1.277 . S
O444 Cd419 2.250 . S
O444 C442 1.230 . S
C445 N427 1.329 . S
C445 C429 1.481 1_565 S
C445 O446 1.246 . S
O446 C445 1.246 . S
O447 Cd418 2.263 . S
O447 C459 1.258 1_565 S
O448 Cd419 2.308 1_545 S
O448 C459 1.274 . S
C449 C433 1.516 . S
C449 N434 1.324 . S
C449 O450 1.238 . S
O450 C449 1.238 . S
C451 N434 1.427 . S
C451 C452 1.394 . S
C451 C456 1.395 . S
C452 C451 1.394 . S
C452 C453 1.380 . S
C452 H480 0.929 . S
C453 C452 1.380 . S
C453 C454 1.384 . S
C453 C459 1.495 . S
C454 C453 1.384 . S
C454 C455 1.382 . S
C454 H481 0.930 . S
C455 C454 1.382 . S
C455 C456 1.398 . S
C456 C451 1.395 . S
C456 C455 1.398 . S
C456 H482 0.930 . S
C457 O437 1.235 . S
C457 O438 1.270 . S
O458 C411 1.263 . S
O458 Cd418 2.366 . S
C459 O447 1.258 1_545 S
C459 O448 1.274 . S
C459 C453 1.495 . S
C460 N427 1.432 . S
C460 C461 1.381 . S
C460 C465 1.385 . S
C461 C460 1.381 . S
C461 C462 1.371 . S
C461 H483 0.932 1_565 S
C462 C461 1.371 . S
C462 C463 1.400 . S
C463 C462 1.400 . S
C463 C464 1.351 . S
C463 H484 0.930 . S
C464 C463 1.351 . S
C464 C465 1.388 . S
C465 C460 1.385 . S
C465 C464 1.388 . S
C465 H485 0.929 . S
C466 C405 1.504 . S
C466 N436 1.309 . S
C466 O467 1.258 . S
O467 C466 1.258 . S
H468 C406 0.929 . S
H469 C407 0.932 1_565 S
H470 C408 0.931 . S
H471 C413 0.929 . S
H472 C415 0.929 . S
H473 C417 0.931 1_545 S
H474 C422 0.929 . S
H475 C424 0.932 . S
H476 C425 0.931 . S
H477 C430 0.930 . S
H478 C431 0.931 . S
H479 C432 0.930 . S
H480 C452 0.929 . S
H481 C454 0.930 . S
H482 C456 0.930 . S
H483 C461 0.932 1_545 S
H484 C463 0.930 . S
H485 C465 0.929 . S
C486 C487 1.359 . S
C486 N491 1.330 . S
C486 C547 1.504 . S
C487 C486 1.359 . S
C487 C488 1.366 . S
C487 H549 0.929 . S
C488 C487 1.366 . S
C488 C489 1.415 . S
C488 H550 0.932 . S
C489 C488 1.415 . S
C489 C490 1.366 . S
C489 H551 0.931 . S
C490 C489 1.366 . S
C490 N491 1.325 . S
C490 C492 1.516 . S
N491 C486 1.330 . S
N491 C490 1.325 . S
N491 Co507 1.869 . S
C492 C490 1.516 . S
C492 N516 1.316 . S
C492 O539 1.263 . S
C493 C494 1.421 . S
C493 C498 1.360 . S
C493 N516 1.436 . S
C494 C493 1.421 . S
C494 C495 1.379 . S
C494 H552 0.929 . S
C495 C494 1.379 . S
C495 C496 1.417 . S
C496 C495 1.417 . S
C496 C497 1.352 . S
C496 H553 0.929 . S
C497 C496 1.352 . S
C497 C498 1.393 . S
C498 C493 1.360 . S
C498 C497 1.393 . S
C498 H554 0.931 . S
Cd499 O519 2.329 . S
Cd499 O521 2.350 . S
Cd499 O522 2.277 . S
Cd499 O524 2.173 . S
Cd499 O528 2.263 . S
Cd499 O539 2.366 . S
Cd500 O518 2.352 . S
Cd500 O525 2.250 . S
Cd500 O529 2.308 . S
C501 C505 1.403 . S
C501 C506 1.370 . S
C501 N517 1.423 . S
C502 C503 1.389 . S
C502 C506 1.389 . S
C503 C502 1.389 . S
C503 C504 1.379 . S
C503 H555 0.929 . S
C504 C503 1.379 . S
C504 C505 1.405 . S
C505 C501 1.403 . S
C505 C504 1.405 . S
C505 H556 0.932 . S
C506 C501 1.370 . S
C506 C502 1.389 . S
C506 H557 0.931 . S
Co507 N491 1.869 . S
Co507 N508 1.955 . S
Co507 N509 1.864 . S
Co507 N515 1.958 . S
Co507 N516 1.953 . S
Co507 N517 1.974 . S
N508 Co507 1.955 . S
N508 C526 1.329 . S
N508 C541 1.432 . S
N509 Co507 1.864 . S
N509 C510 1.327 . S
N509 C514 1.342 . S
C510 N509 1.327 . S
C510 C511 1.407 . S
C510 C526 1.481 . S
C511 C510 1.407 . S
C511 C512 1.364 . S
C511 H558 0.930 . S
C512 C511 1.364 . S
C512 C513 1.390 . S
C512 H559 0.931 . S
C513 C512 1.390 . S
C513 C514 1.346 . S
C513 H560 0.930 . S
C514 N509 1.342 . S
C514 C513 1.346 . S
C514 C530 1.516 . S
N515 Co507 1.958 . S
N515 C530 1.324 . S
N515 C532 1.427 . S
N516 C492 1.316 . S
N516 C493 1.436 . S
N516 Co507 1.953 . S
N517 C501 1.423 . S
N517 Co507 1.974 . S
N517 C547 1.309 . S
O518 Cd500 2.352 . S
O518 C538 1.235 . S
O519 Cd499 2.329 . S
O519 C538 1.270 . S
C520 O521 1.270 . S
C520 O522 1.248 . S
O521 Cd499 2.350 . S
O521 C520 1.270 . S
O522 Cd499 2.277 . S
O522 C520 1.248 . S
C523 O524 1.277 . S
C523 O525 1.230 . S
O524 Cd499 2.173 . S
O524 C523 1.277 . S
O525 Cd500 2.250 . S
O525 C523 1.230 . S
C526 N508 1.329 . S
C526 C510 1.481 . S
C526 O527 1.246 . S
O527 C526 1.246 . S
O528 Cd499 2.263 . S
O528 C540 1.258 . S
O529 Cd500 2.308 . S
O529 C540 1.274 . S
C530 C514 1.516 . S
C530 N515 1.324 . S
C530 O531 1.238 . S
O531 C530 1.238 . S
C532 N515 1.427 . S
C532 C533 1.394 . S
C532 C537 1.395 . S
C533 C532 1.394 . S
C533 C534 1.380 . S
C533 H561 0.929 . S
C534 C533 1.380 . S
C534 C535 1.384 . S
C534 C540 1.495 . S
C535 C534 1.384 . S
C535 C536 1.382 . S
C535 H562 0.930 . S
C536 C535 1.382 . S
C536 C537 1.398 . S
C537 C532 1.395 . S
C537 C536 1.398 . S
C537 H563 0.930 . S
C538 O518 1.235 . S
C538 O519 1.270 . S
O539 C492 1.263 . S
O539 Cd499 2.366 . S
C540 O528 1.258 . S
C540 O529 1.274 . S
C540 C534 1.495 . S
C541 N508 1.432 . S
C541 C542 1.381 . S
C541 C546 1.385 . S
C542 C541 1.381 . S
C542 C543 1.371 . S
C542 H564 0.932 . S
C543 C542 1.371 . S
C543 C544 1.400 . S
C544 C543 1.400 . S
C544 C545 1.351 . S
C544 H565 0.930 . S
C545 C544 1.351 . S
C545 C546 1.388 . S
C546 C541 1.385 . S
C546 C545 1.388 . S
C546 H566 0.929 . S
C547 C486 1.504 . S
C547 N517 1.309 . S
C547 O548 1.258 . S
O548 C547 1.258 . S
H549 C487 0.929 . S
H550 C488 0.932 . S
H551 C489 0.931 . S
H552 C494 0.929 . S
H553 C496 0.929 . S
H554 C498 0.931 . S
H555 C503 0.929 . S
H556 C505 0.932 . S
H557 C506 0.931 . S
H558 C511 0.930 . S
H559 C512 0.931 . S
H560 C513 0.930 . S
H561 C533 0.929 . S
H562 C535 0.930 . S
H563 C537 0.930 . S
H564 C542 0.932 . S
H565 C544 0.930 . S
H566 C546 0.929 . S
C567 C568 1.359 . S
C567 N572 1.330 . S
C567 C628 1.504 . S
C568 C567 1.359 . S
C568 C569 1.366 . S
C568 H630 0.929 . S
C569 C568 1.366 . S
C569 C570 1.415 1_655 S
C569 H631 0.932 1_655 S
C570 C569 1.415 1_455 S
C570 C571 1.366 . S
C570 H632 0.931 . S
C571 C570 1.366 . S
C571 N572 1.325 1_455 S
C571 C573 1.516 . S
N572 C567 1.330 . S
N572 C571 1.325 1_655 S
N572 Co588 1.869 . S
C573 C571 1.516 . S
C573 N597 1.316 . S
C573 O620 1.263 . S
C574 C575 1.421 . S
C574 C579 1.360 . S
C574 N597 1.436 . S
C575 C574 1.421 . S
C575 C576 1.379 . S
C575 H633 0.929 . S
C576 C575 1.379 . S
C576 C577 1.417 . S
C577 C576 1.417 . S
C577 C578 1.352 . S
C577 H634 0.929 . S
C578 C577 1.352 . S
C578 C579 1.393 . S
C579 C574 1.360 . S
C579 C578 1.393 . S
C579 H635 0.931 1_455 S
Cd580 O600 2.329 1_556 S
Cd580 O602 2.350 . S
Cd580 O603 2.277 . S
Cd580 O605 2.173 . S
Cd580 O609 2.263 . S
Cd580 O620 2.366 . S
Cd581 O599 2.352 . S
Cd581 O606 2.306 . S
Cd581 O610 2.308 1_455 S
C582 C586 1.403 . S
C582 C587 1.370 . S
C582 N598 1.423 . S
C583 C584 1.389 . S
C583 C587 1.389 . S
C584 C583 1.389 . S
C584 C585 1.379 . S
C584 H636 0.929 . S
C585 C584 1.379 . S
C585 C586 1.405 . S
C586 C582 1.403 . S
C586 C585 1.405 . S
C586 H637 0.932 . S
C587 C582 1.370 . S
C587 C583 1.389 . S
C587 H638 0.931 . S
Co588 N572 1.869 . S
Co588 N589 1.955 1_655 S
Co588 N590 1.864 . S
Co588 N596 1.958 . S
Co588 N597 1.953 1_655 S
Co588 N598 1.974 . S
N589 Co588 1.955 1_455 S
N589 C607 1.329 . S
N589 C622 1.432 . S
N590 Co588 1.864 . S
N590 C591 1.327 . S
N590 C595 1.342 . S
C591 N590 1.327 . S
C591 C592 1.407 . S
C591 C607 1.481 1_655 S
C592 C591 1.407 . S
C592 C593 1.364 . S
C592 H639 0.930 . S
C593 C592 1.364 . S
C593 C594 1.390 . S
C593 H640 0.931 . S
C594 C593 1.390 . S
C594 C595 1.346 . S
C594 H641 0.930 . S
C595 N590 1.342 . S
C595 C594 1.346 . S
C595 C611 1.516 . S
N596 Co588 1.958 . S
N596 C611 1.324 . S
N596 C613 1.427 . S
N597 C573 1.316 . S
N597 C574 1.436 . S
N597 Co588 1.953 1_455 S
N598 C582 1.423 . S
N598 Co588 1.974 . S
N598 C628 1.309 . S
O599 Cd581 2.352 . S
O599 C619 1.235 . S
O600 Cd580 2.329 1_554 S
O600 C619 1.270 . S
C601 O602 1.270 . S
C601 O603 1.248 . S
O602 Cd580 2.350 . S
O602 C601 1.270 . S
O603 Cd580 2.277 . S
O603 C601 1.248 . S
C604 O605 1.277 . S
C604 O606 1.165 1_556 S
O605 Cd580 2.173 . S
O605 C604 1.277 . S
O606 Cd581 2.306 . S
O606 C604 1.165 1_554 S
C607 N589 1.329 . S
C607 C591 1.481 1_455 S
C607 O608 1.246 . S
O608 C607 1.246 . S
O609 Cd580 2.263 . S
O609 C621 1.258 1_455 S
O610 Cd581 2.308 1_655 S
O610 C621 1.274 1_554 S
C611 C595 1.516 . S
C611 N596 1.324 . S
C611 O612 1.238 . S
O612 C611 1.238 . S
C613 N596 1.427 . S
C613 C614 1.394 . S
C613 C618 1.395 . S
C614 C613 1.394 . S
C614 C615 1.380 . S
C614 H642 0.929 . S
C615 C614 1.380 . S
C615 C616 1.384 . S
C615 C621 1.495 . S
C616 C615 1.384 . S
C616 C617 1.382 . S
C616 H643 0.930 . S
C617 C616 1.382 . S
C617 C618 1.398 . S
C618 C613 1.395 . S
C618 C617 1.398 . S
C618 H644 0.930 . S
C619 O599 1.235 . S
C619 O600 1.270 . S
O620 C573 1.263 . S
O620 Cd580 2.366 . S
C621 O609 1.258 1_655 S
C621 O610 1.274 1_556 S
C621 C615 1.495 . S
C622 N589 1.432 . S
C622 C623 1.381 . S
C622 C627 1.385 . S
C623 C622 1.381 . S
C623 C624 1.371 . S
C623 H645 0.932 1_455 S
C624 C623 1.371 . S
C624 C625 1.400 . S
C625 C624 1.400 . S
C625 C626 1.351 . S
C625 H646 0.930 . S
C626 C625 1.351 . S
C626 C627 1.388 . S
C627 C622 1.385 . S
C627 C626 1.388 . S
C627 H647 0.929 . S
C628 C567 1.504 . S
C628 N598 1.309 . S
C628 O629 1.258 . S
O629 C628 1.258 . S
H630 C568 0.929 . S
H631 C569 0.932 1_455 S
H632 C570 0.931 . S
H633 C575 0.929 . S
H634 C577 0.929 . S
H635 C579 0.931 1_655 S
H636 C584 0.929 . S
H637 C586 0.932 . S
H638 C587 0.931 . S
H639 C592 0.930 . S
H640 C593 0.931 . S
H641 C594 0.930 . S
H642 C614 0.929 . S
H643 C616 0.930 . S
H644 C618 0.930 . S
H645 C623 0.932 1_655 S
H646 C625 0.930 . S
H647 C627 0.929 . S
C648 C649 1.359 . S
C648 N653 1.330 . S
C648 C709 1.504 . S
C649 C648 1.359 . S
C649 C650 1.366 . S
C649 H711 0.929 . S
C650 C649 1.366 . S
C650 C651 1.415 1_565 S
C650 H712 0.932 1_565 S
C651 C650 1.415 1_545 S
C651 C652 1.366 . S
C651 H713 0.931 . S
C652 C651 1.366 . S
C652 N653 1.325 1_545 S
C652 C654 1.516 . S
N653 C648 1.330 . S
N653 C652 1.325 1_565 S
N653 Co669 1.869 . S
C654 C652 1.516 . S
C654 N678 1.316 . S
C654 O701 1.263 . S
C655 C656 1.421 . S
C655 C660 1.360 . S
C655 N678 1.436 . S
C656 C655 1.421 . S
C656 C657 1.379 . S
C656 H714 0.929 . S
C657 C656 1.379 . S
C657 C658 1.417 . S
C658 C657 1.417 . S
C658 C659 1.352 . S
C658 H715 0.929 . S
C659 C658 1.352 . S
C659 C660 1.393 . S
C660 C655 1.360 . S
C660 C659 1.393 . S
C660 H716 0.931 1_545 S
Cd661 O681 2.329 . S
Cd661 O683 2.350 . S
Cd661 O684 2.277 . S
Cd661 O686 2.173 . S
Cd661 O690 2.263 . S
Cd661 O701 2.366 . S
Cd662 O680 2.352 . S
Cd662 O687 2.250 . S
Cd662 O691 2.308 1_545 S
C663 C667 1.403 . S
C663 C668 1.370 . S
C663 N679 1.423 . S
C664 C665 1.389 . S
C664 C668 1.389 . S
C665 C664 1.389 . S
C665 C666 1.379 . S
C665 H717 0.929 . S
C666 C665 1.379 . S
C666 C667 1.405 . S
C667 C663 1.403 . S
C667 C666 1.405 . S
C667 H718 0.932 . S
C668 C663 1.370 . S
C668 C664 1.389 . S
C668 H719 0.931 . S
Co669 N653 1.869 . S
Co669 N670 1.955 1_565 S
Co669 N671 1.864 . S
Co669 N677 1.958 . S
Co669 N678 1.953 1_565 S
Co669 N679 1.974 . S
N670 Co669 1.955 1_545 S
N670 C688 1.329 . S
N670 C703 1.432 . S
N671 Co669 1.864 . S
N671 C672 1.327 . S
N671 C676 1.342 . S
C672 N671 1.327 . S
C672 C673 1.407 . S
C672 C688 1.481 1_565 S
C673 C672 1.407 . S
C673 C674 1.364 . S
C673 H720 0.930 . S
C674 C673 1.364 . S
C674 C675 1.390 . S
C674 H721 0.931 . S
C675 C674 1.390 . S
C675 C676 1.346 . S
C675 H722 0.930 . S
C676 N671 1.342 . S
C676 C675 1.346 . S
C676 C692 1.516 . S
N677 Co669 1.958 . S
N677 C692 1.324 . S
N677 C694 1.427 . S
N678 C654 1.316 . S
N678 C655 1.436 . S
N678 Co669 1.953 1_545 S
N679 C663 1.423 . S
N679 Co669 1.974 . S
N679 C709 1.309 . S
O680 Cd662 2.352 . S
O680 C700 1.235 . S
O681 Cd661 2.329 . S
O681 C700 1.270 . S
C682 O683 1.270 . S
C682 O684 1.248 . S
O683 Cd661 2.350 . S
O683 C682 1.270 . S
O684 Cd661 2.277 . S
O684 C682 1.248 . S
C685 O686 1.277 . S
C685 O687 1.230 . S
O686 Cd661 2.173 . S
O686 C685 1.277 . S
O687 Cd662 2.250 . S
O687 C685 1.230 . S
C688 N670 1.329 . S
C688 C672 1.481 1_545 S
C688 O689 1.246 . S
O689 C688 1.246 . S
O690 Cd661 2.263 . S
O690 C702 1.258 1_545 S
O691 Cd662 2.308 1_565 S
O691 C702 1.274 . S
C692 C676 1.516 . S
C692 N677 1.324 . S
C692 O693 1.238 . S
O693 C692 1.238 . S
C694 N677 1.427 . S
C694 C695 1.394 . S
C694 C699 1.395 . S
C695 C694 1.394 . S
C695 C696 1.380 . S
C695 H723 0.929 . S
C696 C695 1.380 . S
C696 C697 1.384 . S
C696 C702 1.495 . S
C697 C696 1.384 . S
C697 C698 1.382 . S
C697 H724 0.930 . S
C698 C697 1.382 . S
C698 C699 1.398 . S
C699 C694 1.395 . S
C699 C698 1.398 . S
C699 H725 0.930 . S
C700 O680 1.235 . S
C700 O681 1.270 . S
O701 C654 1.263 . S
O701 Cd661 2.366 . S
C702 O690 1.258 1_565 S
C702 O691 1.274 . S
C702 C696 1.495 . S
C703 N670 1.432 . S
C703 C704 1.381 . S
C703 C708 1.385 . S
C704 C703 1.381 . S
C704 C705 1.371 . S
C704 H726 0.932 1_545 S
C705 C704 1.371 . S
C705 C706 1.400 . S
C706 C705 1.400 . S
C706 C707 1.351 . S
C706 H727 0.930 . S
C707 C706 1.351 . S
C707 C708 1.388 . S
C708 C703 1.385 . S
C708 C707 1.388 . S
C708 H728 0.929 . S
C709 C648 1.504 . S
C709 N679 1.309 . S
C709 O710 1.258 . S
O710 C709 1.258 . S
H711 C649 0.929 . S
H712 C650 0.932 1_545 S
H713 C651 0.931 . S
H714 C656 0.929 . S
H715 C658 0.929 . S
H716 C660 0.931 1_565 S
H717 C665 0.929 . S
H718 C667 0.932 . S
H719 C668 0.931 . S
H720 C673 0.930 . S
H721 C674 0.931 . S
H722 C675 0.930 . S
H723 C695 0.929 . S
H724 C697 0.930 . S
H725 C699 0.930 . S
H726 C704 0.932 1_565 S
H727 C706 0.930 . S
H728 C708 0.929 . S
C729 C730 1.359 . S
C729 N734 1.330 . S
C729 C790 1.504 . S
C730 C729 1.359 . S
C730 C731 1.366 . S
C730 H792 0.929 . S
C731 C730 1.366 . S
C731 C732 1.415 . S
C731 H793 0.932 . S
C732 C731 1.415 . S
C732 C733 1.366 . S
C732 H794 0.931 . S
C733 C732 1.366 . S
C733 N734 1.325 . S
C733 C735 1.516 . S
N734 C729 1.330 . S
N734 C733 1.325 . S
N734 Co750 1.869 . S
C735 C733 1.516 . S
C735 N759 1.316 . S
C735 O782 1.263 . S
C736 C737 1.421 . S
C736 C741 1.360 . S
C736 N759 1.436 . S
C737 C736 1.421 . S
C737 C738 1.379 . S
C737 H795 0.929 . S
C738 C737 1.379 . S
C738 C739 1.417 . S
C739 C738 1.417 . S
C739 C740 1.352 . S
C739 H796 0.929 . S
C740 C739 1.352 . S
C740 C741 1.393 . S
C741 C736 1.360 . S
C741 C740 1.393 . S
C741 H797 0.931 . S
Cd742 O762 2.329 . S
Cd742 O764 2.350 . S
Cd742 O765 2.277 . S
Cd742 O767 2.173 . S
Cd742 O771 2.263 . S
Cd742 O782 2.366 . S
Cd743 O761 2.352 . S
Cd743 O768 2.250 . S
Cd743 O772 2.308 . S
C744 C748 1.403 . S
C744 C749 1.370 . S
C744 N760 1.423 . S
C745 C746 1.389 . S
C745 C749 1.389 . S
C746 C745 1.389 . S
C746 C747 1.379 . S
C746 H798 0.929 . S
C747 C746 1.379 . S
C747 C748 1.405 . S
C748 C744 1.403 . S
C748 C747 1.405 . S
C748 H799 0.932 . S
C749 C744 1.370 . S
C749 C745 1.389 . S
C749 H800 0.931 . S
Co750 N734 1.869 . S
Co750 N751 1.955 . S
Co750 N752 1.864 . S
Co750 N758 1.958 . S
Co750 N759 1.953 . S
Co750 N760 1.974 . S
N751 Co750 1.955 . S
N751 C769 1.329 . S
N751 C784 1.432 . S
N752 Co750 1.864 . S
N752 C753 1.327 . S
N752 C757 1.342 . S
C753 N752 1.327 . S
C753 C754 1.407 . S
C753 C769 1.481 . S
C754 C753 1.407 . S
C754 C755 1.364 . S
C754 H801 0.930 . S
C755 C754 1.364 . S
C755 C756 1.390 . S
C755 H802 0.931 . S
C756 C755 1.390 . S
C756 C757 1.346 . S
C756 H803 0.930 . S
C757 N752 1.342 . S
C757 C756 1.346 . S
C757 C773 1.516 . S
N758 Co750 1.958 . S
N758 C773 1.324 . S
N758 C775 1.427 . S
N759 C735 1.316 . S
N759 C736 1.436 . S
N759 Co750 1.953 . S
N760 C744 1.423 . S
N760 Co750 1.974 . S
N760 C790 1.309 . S
O761 Cd743 2.352 . S
O761 C781 1.235 . S
O762 Cd742 2.329 . S
O762 C781 1.270 . S
C763 O764 1.270 . S
C763 O765 1.248 . S
O764 Cd742 2.350 . S
O764 C763 1.270 . S
O765 Cd742 2.277 . S
O765 C763 1.248 . S
C766 O767 1.277 . S
C766 O768 1.230 . S
O767 Cd742 2.173 . S
O767 C766 1.277 . S
O768 Cd743 2.250 . S
O768 C766 1.230 . S
C769 N751 1.329 . S
C769 C753 1.481 . S
C769 O770 1.246 . S
O770 C769 1.246 . S
O771 Cd742 2.263 . S
O771 C783 1.258 . S
O772 Cd743 2.308 . S
O772 C783 1.274 . S
C773 C757 1.516 . S
C773 N758 1.324 . S
C773 O774 1.238 . S
O774 C773 1.238 . S
C775 N758 1.427 . S
C775 C776 1.394 . S
C775 C780 1.395 . S
C776 C775 1.394 . S
C776 C777 1.380 . S
C776 H804 0.929 . S
C777 C776 1.380 . S
C777 C778 1.384 . S
C777 C783 1.495 . S
C778 C777 1.384 . S
C778 C779 1.382 . S
C778 H805 0.930 . S
C779 C778 1.382 . S
C779 C780 1.398 . S
C780 C775 1.395 . S
C780 C779 1.398 . S
C780 H806 0.930 . S
C781 O761 1.235 . S
C781 O762 1.270 . S
O782 C735 1.263 . S
O782 Cd742 2.366 . S
C783 O771 1.258 . S
C783 O772 1.274 . S
C783 C777 1.495 . S
C784 N751 1.432 . S
C784 C785 1.381 . S
C784 C789 1.385 . S
C785 C784 1.381 . S
C785 C786 1.371 . S
C785 H807 0.932 . S
C786 C785 1.371 . S
C786 C787 1.400 . S
C787 C786 1.400 . S
C787 C788 1.351 . S
C787 H808 0.930 . S
C788 C787 1.351 . S
C788 C789 1.388 . S
C789 C784 1.385 . S
C789 C788 1.388 . S
C789 H809 0.929 . S
C790 C729 1.504 . S
C790 N760 1.309 . S
C790 O791 1.258 . S
O791 C790 1.258 . S
H792 C730 0.929 . S
H793 C731 0.932 . S
H794 C732 0.931 . S
H795 C737 0.929 . S
H796 C739 0.929 . S
H797 C741 0.931 . S
H798 C746 0.929 . S
H799 C748 0.932 . S
H800 C749 0.931 . S
H801 C754 0.930 . S
H802 C755 0.931 . S
H803 C756 0.930 . S
H804 C776 0.929 . S
H805 C778 0.930 . S
H806 C780 0.930 . S
H807 C785 0.932 . S
H808 C787 0.930 . S
H809 C789 0.929 . S
C810 C811 1.359 . S
C810 N815 1.330 . S
C810 C871 1.504 . S
C811 C810 1.359 . S
C811 C812 1.366 . S
C811 H873 0.929 . S
C812 C811 1.366 . S
C812 C813 1.415 1_455 S
C812 H874 0.932 1_455 S
C813 C812 1.415 1_655 S
C813 C814 1.366 . S
C813 H875 0.931 . S
C814 C813 1.366 . S
C814 N815 1.325 1_655 S
C814 C816 1.516 . S
N815 C810 1.330 . S
N815 C814 1.325 1_455 S
N815 Co831 1.869 . S
C816 C814 1.516 . S
C816 N840 1.316 . S
C816 O863 1.263 . S
C817 C818 1.421 . S
C817 C822 1.360 . S
C817 N840 1.436 . S
C818 C817 1.421 . S
C818 C819 1.379 . S
C818 H876 0.929 . S
C819 C818 1.379 . S
C819 C820 1.417 . S
C820 C819 1.417 . S
C820 C821 1.352 . S
C820 H877 0.929 . S
C821 C820 1.352 . S
C821 C822 1.393 . S
C822 C817 1.360 . S
C822 C821 1.393 . S
C822 H878 0.931 1_655 S
Cd823 O843 2.329 . S
Cd823 O845 2.350 . S
Cd823 O846 2.277 . S
Cd823 O848 2.173 . S
Cd823 O852 2.263 . S
Cd823 O863 2.366 . S
Cd824 O842 2.352 . S
Cd824 O849 2.250 . S
Cd824 O853 2.308 1_655 S
C825 C829 1.403 . S
C825 C830 1.370 . S
C825 N841 1.423 . S
C826 C827 1.389 . S
C826 C830 1.389 . S
C827 C826 1.389 . S
C827 C828 1.379 . S
C827 H879 0.929 . S
C828 C827 1.379 . S
C828 C829 1.405 . S
C829 C825 1.403 . S
C829 C828 1.405 . S
C829 H880 0.932 . S
C830 C825 1.370 . S
C830 C826 1.389 . S
C830 H881 0.931 . S
Co831 N815 1.869 . S
Co831 N832 1.955 1_455 S
Co831 N833 1.864 . S
Co831 N839 1.958 . S
Co831 N840 1.953 1_455 S
Co831 N841 1.974 . S
N832 Co831 1.955 1_655 S
N832 C850 1.329 . S
N832 C865 1.432 . S
N833 Co831 1.864 . S
N833 C834 1.327 . S
N833 C838 1.342 . S
C834 N833 1.327 . S
C834 C835 1.407 . S
C834 C850 1.481 1_455 S
C835 C834 1.407 . S
C835 C836 1.364 . S
C835 H882 0.930 . S
C836 C835 1.364 . S
C836 C837 1.390 . S
C836 H883 0.931 . S
C837 C836 1.390 . S
C837 C838 1.346 . S
C837 H884 0.930 . S
C838 N833 1.342 . S
C838 C837 1.346 . S
C838 C854 1.516 . S
N839 Co831 1.958 . S
N839 C854 1.324 . S
N839 C856 1.427 . S
N840 C816 1.316 . S
N840 C817 1.436 . S
N840 Co831 1.953 1_655 S
N841 C825 1.423 . S
N841 Co831 1.974 . S
N841 C871 1.309 . S
O842 Cd824 2.352 . S
O842 C862 1.235 . S
O843 Cd823 2.329 . S
O843 C862 1.270 . S
C844 O845 1.270 . S
C844 O846 1.248 . S
O845 Cd823 2.350 . S
O845 C844 1.270 . S
O846 Cd823 2.277 . S
O846 C844 1.248 . S
C847 O848 1.277 . S
C847 O849 1.230 . S
O848 Cd823 2.173 . S
O848 C847 1.277 . S
O849 Cd824 2.250 . S
O849 C847 1.230 . S
C850 N832 1.329 . S
C850 C834 1.481 1_655 S
C850 O851 1.246 . S
O851 C850 1.246 . S
O852 Cd823 2.263 . S
O852 C864 1.258 1_655 S
O853 Cd824 2.308 1_455 S
O853 C864 1.274 . S
C854 C838 1.516 . S
C854 N839 1.324 . S
C854 O855 1.238 . S
O855 C854 1.238 . S
C856 N839 1.427 . S
C856 C857 1.394 . S
C856 C861 1.395 . S
C857 C856 1.394 . S
C857 C858 1.380 . S
C857 H885 0.929 . S
C858 C857 1.380 . S
C858 C859 1.384 . S
C858 C864 1.495 . S
C859 C858 1.384 . S
C859 C860 1.382 . S
C859 H886 0.930 . S
C860 C859 1.382 . S
C860 C861 1.398 . S
C861 C856 1.395 . S
C861 C860 1.398 . S
C861 H887 0.930 . S
C862 O842 1.235 . S
C862 O843 1.270 . S
O863 C816 1.263 . S
O863 Cd823 2.366 . S
C864 O852 1.258 1_455 S
C864 O853 1.274 . S
C864 C858 1.495 . S
C865 N832 1.432 . S
C865 C866 1.381 . S
C865 C870 1.385 . S
C866 C865 1.381 . S
C866 C867 1.371 . S
C866 H888 0.932 1_655 S
C867 C866 1.371 . S
C867 C868 1.400 . S
C868 C867 1.400 . S
C868 C869 1.351 . S
C868 H889 0.930 . S
C869 C868 1.351 . S
C869 C870 1.388 . S
C870 C865 1.385 . S
C870 C869 1.388 . S
C870 H890 0.929 . S
C871 C810 1.504 . S
C871 N841 1.309 . S
C871 O872 1.258 . S
O872 C871 1.258 . S
H873 C811 0.929 . S
H874 C812 0.932 1_655 S
H875 C813 0.931 . S
H876 C818 0.929 . S
H877 C820 0.929 . S
H878 C822 0.931 1_455 S
H879 C827 0.929 . S
H880 C829 0.932 . S
H881 C830 0.931 . S
H882 C835 0.930 . S
H883 C836 0.931 . S
H884 C837 0.930 . S
H885 C857 0.929 . S
H886 C859 0.930 . S
H887 C861 0.930 . S
H888 C866 0.932 1_455 S
H889 C868 0.930 . S
H890 C870 0.929 . S
C891 C892 1.359 . S
C891 N896 1.330 . S
C891 C952 1.504 . S
C892 C891 1.359 . S
C892 C893 1.366 . S
C892 H954 0.929 . S
C893 C892 1.366 . S
C893 C894 1.415 1_545 S
C893 H955 0.932 1_545 S
C894 C893 1.415 1_565 S
C894 C895 1.366 . S
C894 H956 0.931 . S
C895 C894 1.366 . S
C895 N896 1.325 1_565 S
C895 C897 1.516 . S
N896 C891 1.330 . S
N896 C895 1.325 1_545 S
N896 Co912 1.869 . S
C897 C895 1.516 . S
C897 N921 1.316 . S
C897 O944 1.263 . S
C898 C899 1.421 . S
C898 C903 1.360 . S
C898 N921 1.436 . S
C899 C898 1.421 . S
C899 C900 1.379 . S
C899 H957 0.929 . S
C900 C899 1.379 . S
C900 C901 1.417 . S
C901 C900 1.417 . S
C901 C902 1.352 . S
C901 H958 0.929 . S
C902 C901 1.352 . S
C902 C903 1.393 . S
C903 C898 1.360 . S
C903 C902 1.393 . S
C903 H959 0.931 1_565 S
Cd904 O924 2.329 . S
Cd904 O926 2.350 . S
Cd904 O927 2.277 . S
Cd904 O929 2.173 . S
Cd904 O933 2.263 . S
Cd904 O944 2.366 . S
Cd905 O923 2.352 . S
Cd905 O930 2.250 . S
Cd905 O934 2.308 1_565 S
C906 C910 1.403 . S
C906 C911 1.370 . S
C906 N922 1.423 . S
C907 C908 1.389 . S
C907 C911 1.389 . S
C908 C907 1.389 . S
C908 C909 1.379 . S
C908 H960 0.929 . S
C909 C908 1.379 . S
C909 C910 1.405 . S
C910 C906 1.403 . S
C910 C909 1.405 . S
C910 H961 0.932 . S
C911 C906 1.370 . S
C911 C907 1.389 . S
C911 H962 0.931 . S
Co912 N896 1.869 . S
Co912 N913 1.955 1_545 S
Co912 N914 1.864 . S
Co912 N920 1.958 . S
Co912 N921 1.953 1_545 S
Co912 N922 1.974 . S
N913 Co912 1.955 1_565 S
N913 C931 1.329 . S
N913 C946 1.432 . S
N914 Co912 1.864 . S
N914 C915 1.327 . S
N914 C919 1.342 . S
C915 N914 1.327 . S
C915 C916 1.407 . S
C915 C931 1.481 1_545 S
C916 C915 1.407 . S
C916 C917 1.364 . S
C916 H963 0.930 . S
C917 C916 1.364 . S
C917 C918 1.390 . S
C917 H964 0.931 . S
C918 C917 1.390 . S
C918 C919 1.346 . S
C918 H965 0.930 . S
C919 N914 1.342 . S
C919 C918 1.346 . S
C919 C935 1.516 . S
N920 Co912 1.958 . S
N920 C935 1.324 . S
N920 C937 1.427 . S
N921 C897 1.316 . S
N921 C898 1.436 . S
N921 Co912 1.953 1_565 S
N922 C906 1.423 . S
N922 Co912 1.974 . S
N922 C952 1.309 . S
O923 Cd905 2.352 . S
O923 C943 1.235 . S
O924 Cd904 2.329 . S
O924 C943 1.270 . S
C925 O926 1.270 . S
C925 O927 1.248 . S
O926 Cd904 2.350 . S
O926 C925 1.270 . S
O927 Cd904 2.277 . S
O927 C925 1.248 . S
C928 O929 1.277 . S
C928 O930 1.230 . S
O929 Cd904 2.173 . S
O929 C928 1.277 . S
O930 Cd905 2.250 . S
O930 C928 1.230 . S
C931 N913 1.329 . S
C931 C915 1.481 1_565 S
C931 O932 1.246 . S
O932 C931 1.246 . S
O933 Cd904 2.263 . S
O933 C945 1.258 1_565 S
O934 Cd905 2.308 1_545 S
O934 C945 1.274 . S
C935 C919 1.516 . S
C935 N920 1.324 . S
C935 O936 1.238 . S
O936 C935 1.238 . S
C937 N920 1.427 . S
C937 C938 1.394 . S
C937 C942 1.395 . S
C938 C937 1.394 . S
C938 C939 1.380 . S
C938 H966 0.929 . S
C939 C938 1.380 . S
C939 C940 1.384 . S
C939 C945 1.495 . S
C940 C939 1.384 . S
C940 C941 1.382 . S
C940 H967 0.930 . S
C941 C940 1.382 . S
C941 C942 1.398 . S
C942 C937 1.395 . S
C942 C941 1.398 . S
C942 H968 0.930 . S
C943 O923 1.235 . S
C943 O924 1.270 . S
O944 C897 1.263 . S
O944 Cd904 2.366 . S
C945 O933 1.258 1_545 S
C945 O934 1.274 . S
C945 C939 1.495 . S
C946 N913 1.432 . S
C946 C947 1.381 . S
C946 C951 1.385 . S
C947 C946 1.381 . S
C947 C948 1.371 . S
C947 H969 0.932 1_565 S
C948 C947 1.371 . S
C948 C949 1.400 . S
C949 C948 1.400 . S
C949 C950 1.351 . S
C949 H970 0.930 . S
C950 C949 1.351 . S
C950 C951 1.388 . S
C951 C946 1.385 . S
C951 C950 1.388 . S
C951 H971 0.929 . S
C952 C891 1.504 . S
C952 N922 1.309 . S
C952 O953 1.258 . S
O953 C952 1.258 . S
H954 C892 0.929 . S
H955 C893 0.932 1_565 S
H956 C894 0.931 . S
H957 C899 0.929 . S
H958 C901 0.929 . S
H959 C903 0.931 1_545 S
H960 C908 0.929 . S
H961 C910 0.932 . S
H962 C911 0.931 . S
H963 C916 0.930 . S
H964 C917 0.931 . S
H965 C918 0.930 . S
H966 C938 0.929 . S
H967 C940 0.930 . S
H968 C942 0.930 . S
H969 C947 0.932 1_545 S
H970 C949 0.930 . S
H971 C951 0.929 . S
H972 C980 0.950 . S
H973 C985 0.950 . S
H974 C982 0.950 . S
H975 C984 0.950 . S
H976 C986 0.950 . S
H977 C988 0.950 . S
H978 C990 0.950 . S
H979 C991 0.950 . S
C980 H972 0.950 . S
C980 C981 1.386 . S
C980 C982 1.391 . S
C981 C980 1.386 . S
C981 C985 1.393 . S
C982 H974 0.950 . S
C982 C980 1.391 . S
C982 C983 1.400 . S
C983 C982 1.400 . S
C983 C984 1.398 . S
C983 C989 1.491 . S
C984 H975 0.950 . S
C984 C983 1.398 . S
C984 C985 1.391 . S
C985 H973 0.950 . S
C985 C981 1.393 . S
C985 C984 1.391 . S
C986 H976 0.950 . S
C986 C987 1.386 . S
C986 C988 1.391 . S
C987 C986 1.386 . S
C987 C991 1.393 . S
C988 H977 0.950 . S
C988 C986 1.391 . S
C988 C989 1.400 . S
C989 C983 1.491 . S
C989 C988 1.400 . S
C989 C990 1.398 . S
C990 H978 0.950 . S
C990 C989 1.398 . S
C990 C991 1.391 . S
C991 H979 0.950 . S
C991 C987 1.393 . S
C991 C990 1.391 . S
H992 C1000 0.950 . S
H993 C1005 0.950 . S
H994 C1002 0.950 . S
H995 C1004 0.950 . S
H996 C1006 0.950 . S
H997 C1008 0.950 . S
H998 C1010 0.950 . S
H999 C1011 0.950 . S
C1000 H992 0.950 . S
C1000 C1001 1.386 . S
C1000 C1002 1.391 . S
C1001 C1000 1.386 . S
C1001 C1005 1.393 . S
C1002 H994 0.950 . S
C1002 C1000 1.391 . S
C1002 C1003 1.400 . S
C1003 C1002 1.400 . S
C1003 C1004 1.398 . S
C1003 C1009 1.491 . S
C1004 H995 0.950 . S
C1004 C1003 1.398 . S
C1004 C1005 1.391 . S
C1005 H993 0.950 . S
C1005 C1001 1.393 . S
C1005 C1004 1.391 . S
C1006 H996 0.950 . S
C1006 C1007 1.386 . S
C1006 C1008 1.391 . S
C1007 C1006 1.386 . S
C1007 C1011 1.393 . S
C1008 H997 0.950 . S
C1008 C1006 1.391 . S
C1008 C1009 1.400 . S
C1009 C1003 1.491 . S
C1009 C1008 1.400 . S
C1009 C1010 1.398 . S
C1010 H998 0.950 . S
C1010 C1009 1.398 . S
C1010 C1011 1.391 . S
C1011 H999 0.950 . S
C1011 C1007 1.393 . S
C1011 C1010 1.391 . S
H1012 C1020 0.950 . S
H1013 C1025 0.950 . S
H1014 C1022 0.950 . S
H1015 C1024 0.950 . S
H1016 C1026 0.950 . S
H1017 C1028 0.950 . S
H1018 C1030 0.950 . S
H1019 C1031 0.950 . S
C1020 H1012 0.950 . S
C1020 C1021 1.386 . S
C1020 C1022 1.391 . S
C1021 C1020 1.386 . S
C1021 C1025 1.393 . S
C1022 H1014 0.950 . S
C1022 C1020 1.391 . S
C1022 C1023 1.400 . S
C1023 C1022 1.400 . S
C1023 C1024 1.398 . S
C1023 C1029 1.491 . S
C1024 H1015 0.950 . S
C1024 C1023 1.398 . S
C1024 C1025 1.391 . S
C1025 H1013 0.950 . S
C1025 C1021 1.393 . S
C1025 C1024 1.391 . S
C1026 H1016 0.950 . S
C1026 C1027 1.386 . S
C1026 C1028 1.391 . S
C1027 C1026 1.386 . S
C1027 C1031 1.393 . S
C1028 H1017 0.950 . S
C1028 C1026 1.391 . S
C1028 C1029 1.400 . S
C1029 C1023 1.491 . S
C1029 C1028 1.400 . S
C1029 C1030 1.398 . S
C1030 H1018 0.950 . S
C1030 C1029 1.398 . S
C1030 C1031 1.391 . S
C1031 H1019 0.950 . S
C1031 C1027 1.393 . S
C1031 C1030 1.391 . S
H1032 C1040 0.950 . S
H1033 C1045 0.950 . S
H1034 C1042 0.950 . S
H1035 C1044 0.950 . S
H1036 C1046 0.950 . S
H1037 C1048 0.950 . S
H1038 C1050 0.950 . S
H1039 C1051 0.950 . S
C1040 H1032 0.950 . S
C1040 C1041 1.386 . S
C1040 C1042 1.391 . S
C1041 C1040 1.386 . S
C1041 C1045 1.393 . S
C1042 H1034 0.950 . S
C1042 C1040 1.391 . S
C1042 C1043 1.400 . S
C1043 C1042 1.400 . S
C1043 C1044 1.398 . S
C1043 C1049 1.491 . S
C1044 H1035 0.950 . S
C1044 C1043 1.398 . S
C1044 C1045 1.391 . S
C1045 H1033 0.950 . S
C1045 C1041 1.393 . S
C1045 C1044 1.391 . S
C1046 H1036 0.950 . S
C1046 C1047 1.386 . S
C1046 C1048 1.391 . S
C1047 C1046 1.386 . S
C1047 C1051 1.393 . S
C1048 H1037 0.950 . S
C1048 C1046 1.391 . S
C1048 C1049 1.400 . S
C1049 C1043 1.491 . S
C1049 C1048 1.400 . S
C1049 C1050 1.398 . S
C1050 H1038 0.950 . S
C1050 C1049 1.398 . S
C1050 C1051 1.391 . S
C1051 H1039 0.950 . S
C1051 C1047 1.393 . S
C1051 C1050 1.391 . S
H1052 C1060 0.950 . S
H1053 C1065 0.950 . S
H1054 C1062 0.950 . S
H1055 C1064 0.950 . S
H1056 C1066 0.950 . S
H1057 C1068 0.950 . S
H1058 C1070 0.950 . S
H1059 C1071 0.950 . S
C1060 H1052 0.950 . S
C1060 C1061 1.386 . S
C1060 C1062 1.391 . S
C1061 C1060 1.386 . S
C1061 C1065 1.393 . S
C1062 H1054 0.950 . S
C1062 C1060 1.391 . S
C1062 C1063 1.400 . S
C1063 C1062 1.400 . S
C1063 C1064 1.398 . S
C1063 C1069 1.491 . S
C1064 H1055 0.950 . S
C1064 C1063 1.398 . S
C1064 C1065 1.391 . S
C1065 H1053 0.950 . S
C1065 C1061 1.393 . S
C1065 C1064 1.391 . S
C1066 H1056 0.950 . S
C1066 C1067 1.386 . S
C1066 C1068 1.391 . S
C1067 C1066 1.386 . S
C1067 C1071 1.393 . S
C1068 H1057 0.950 . S
C1068 C1066 1.391 . S
C1068 C1069 1.400 . S
C1069 C1063 1.491 . S
C1069 C1068 1.400 . S
C1069 C1070 1.398 . S
C1070 H1058 0.950 . S
C1070 C1069 1.398 . S
C1070 C1071 1.391 . S
C1071 H1059 0.950 . S
C1071 C1067 1.393 . S
C1071 C1070 1.391 . S
H1072 C1080 0.950 . S
H1073 C1085 0.950 . S
H1074 C1082 0.950 . S
H1075 C1084 0.950 . S
H1076 C1086 0.950 . S
H1077 C1088 0.950 . S
H1078 C1090 0.950 . S
H1079 C1091 0.950 . S
C1080 H1072 0.950 . S
C1080 C1081 1.386 . S
C1080 C1082 1.391 . S
C1081 C1080 1.386 . S
C1081 C1085 1.393 . S
C1082 H1074 0.950 . S
C1082 C1080 1.391 . S
C1082 C1083 1.400 . S
C1083 C1082 1.400 . S
C1083 C1084 1.398 . S
C1083 C1089 1.491 . S
C1084 H1075 0.950 . S
C1084 C1083 1.398 . S
C1084 C1085 1.391 . S
C1085 H1073 0.950 . S
C1085 C1081 1.393 . S
C1085 C1084 1.391 . S
C1086 H1076 0.950 . S
C1086 C1087 1.386 . S
C1086 C1088 1.391 . S
C1087 C1086 1.386 . S
C1087 C1091 1.393 . S
C1088 H1077 0.950 . S
C1088 C1086 1.391 . S
C1088 C1089 1.400 . S
C1089 C1083 1.491 . S
C1089 C1088 1.400 . S
C1089 C1090 1.398 . S
C1090 H1078 0.950 . S
C1090 C1089 1.398 . S
C1090 C1091 1.391 . S
C1091 H1079 0.950 . S
C1091 C1087 1.393 . S
C1091 C1090 1.391 . S
H1092 C1100 0.950 . S
H1093 C1105 0.950 . S
H1094 C1102 0.950 . S
H1095 C1104 0.950 . S
H1096 C1106 0.950 . S
H1097 C1108 0.950 . S
H1098 C1110 0.950 . S
H1099 C1111 0.950 . S
C1100 H1092 0.950 . S
C1100 C1101 1.386 . S
C1100 C1102 1.391 . S
C1101 C1100 1.386 . S
C1101 C1105 1.393 1_556 S
C1102 H1094 0.950 . S
C1102 C1100 1.391 . S
C1102 C1103 1.459 . S
C1103 C1102 1.459 . S
C1103 C1104 1.355 1_556 S
C1103 C1109 1.480 1_566 S
C1104 H1095 0.950 . S
C1104 C1103 1.355 1_554 S
C1104 C1105 1.391 . S
C1105 H1093 0.950 . S
C1105 C1101 1.393 1_554 S
C1105 C1104 1.391 . S
C1106 H1096 0.950 . S
C1106 C1107 1.386 . S
C1106 C1108 1.391 . S
C1107 C1106 1.386 . S
C1107 C1111 1.393 1_554 S
C1108 H1097 0.950 . S
C1108 C1106 1.391 . S
C1108 C1109 1.400 . S
C1109 C1103 1.480 1_544 S
C1109 C1108 1.400 . S
C1109 C1110 1.398 1_554 S
C1110 H1098 0.950 . S
C1110 C1109 1.398 1_556 S
C1110 C1111 1.391 . S
C1111 H1099 0.950 . S
C1111 C1107 1.393 1_556 S
C1111 C1110 1.391 . S
H1112 C1120 0.950 . S
H1113 C1125 0.950 . S
H1114 C1122 0.950 . S
H1115 C1124 0.950 . S
H1116 C1126 0.950 . S
H1117 C1128 0.950 . S
H1118 C1130 0.950 . S
H1119 C1131 0.950 . S
C1120 H1112 0.950 . S
C1120 C1121 1.386 . S
C1120 C1122 1.391 . S
C1121 C1120 1.386 . S
C1121 C1125 1.393 . S
C1122 H1114 0.950 . S
C1122 C1120 1.391 . S
C1122 C1123 1.400 . S
C1123 C1122 1.400 . S
C1123 C1124 1.398 . S
C1123 C1129 1.491 . S
C1124 H1115 0.950 . S
C1124 C1123 1.398 . S
C1124 C1125 1.391 . S
C1125 H1113 0.950 . S
C1125 C1121 1.393 . S
C1125 C1124 1.391 . S
C1126 H1116 0.950 . S
C1126 C1127 1.386 . S
C1126 C1128 1.391 . S
C1127 C1126 1.386 . S
C1127 C1131 1.393 . S
C1128 H1117 0.950 . S
C1128 C1126 1.391 . S
C1128 C1129 1.400 . S
C1129 C1123 1.491 . S
C1129 C1128 1.400 . S
C1129 C1130 1.398 . S
C1130 H1118 0.950 . S
C1130 C1129 1.398 . S
C1130 C1131 1.391 . S
C1131 H1119 0.950 . S
C1131 C1127 1.393 . S
C1131 C1130 1.391 . S
H1132 C1140 0.950 . S
H1133 C1145 0.950 . S
H1134 C1142 0.950 . S
H1135 C1144 0.950 . S
H1136 C1146 0.950 . S
H1137 C1148 0.950 . S
H1138 C1150 0.950 . S
H1139 C1151 0.950 . S
C1140 H1132 0.950 . S
C1140 C1141 1.386 . S
C1140 C1142 1.391 . S
C1141 C1140 1.386 . S
C1141 C1145 1.393 . S
C1142 H1134 0.950 . S
C1142 C1140 1.391 . S
C1142 C1143 1.400 . S
C1143 C1142 1.400 . S
C1143 C1144 1.398 . S
C1143 C1149 1.491 1_455 S
C1144 H1135 0.950 . S
C1144 C1143 1.398 . S
C1144 C1145 1.391 . S
C1145 H1133 0.950 . S
C1145 C1141 1.393 . S
C1145 C1144 1.391 . S
C1146 H1136 0.950 . S
C1146 C1147 1.386 . S
C1146 C1148 1.391 . S
C1147 C1146 1.386 . S
C1147 C1151 1.393 . S
C1148 H1137 0.950 . S
C1148 C1146 1.391 . S
C1148 C1149 1.400 . S
C1149 C1143 1.491 1_655 S
C1149 C1148 1.400 . S
C1149 C1150 1.398 . S
C1150 H1138 0.950 . S
C1150 C1149 1.398 . S
C1150 C1151 1.391 . S
C1151 H1139 0.950 . S
C1151 C1147 1.393 . S
C1151 C1150 1.391 . S
H1152 C1160 0.950 . S
H1153 C1165 0.950 . S
H1154 C1162 0.950 . S
H1155 C1164 0.950 . S
H1156 C1166 0.950 . S
H1157 C1168 0.950 . S
H1158 C1170 0.950 . S
H1159 C1171 0.950 . S
C1160 H1152 0.950 . S
C1160 C1161 1.386 . S
C1160 C1162 1.391 . S
C1161 C1160 1.386 . S
C1161 C1165 1.393 . S
C1162 H1154 0.950 . S
C1162 C1160 1.391 . S
C1162 C1163 1.400 . S
C1163 C1162 1.400 . S
C1163 C1164 1.398 . S
C1163 C1169 1.491 1_565 S
C1164 H1155 0.950 . S
C1164 C1163 1.398 . S
C1164 C1165 1.391 . S
C1165 H1153 0.950 . S
C1165 C1161 1.393 . S
C1165 C1164 1.391 . S
C1166 H1156 0.950 . S
C1166 C1167 1.386 . S
C1166 C1168 1.391 . S
C1167 C1166 1.386 . S
C1167 C1171 1.393 . S
C1168 H1157 0.950 . S
C1168 C1166 1.391 . S
C1168 C1169 1.400 . S
C1169 C1163 1.491 1_545 S
C1169 C1168 1.400 . S
C1169 C1170 1.398 . S
C1170 H1158 0.950 . S
C1170 C1169 1.398 . S
C1170 C1171 1.391 . S
C1171 H1159 0.950 . S
C1171 C1167 1.393 . S
C1171 C1170 1.391 . S
H1172 C1180 0.950 . S
H1173 C1185 0.950 . S
H1174 C1182 0.950 . S
H1175 C1184 0.950 . S
H1176 C1186 0.950 . S
H1177 C1188 0.950 . S
H1178 C1190 0.950 . S
H1179 C1191 0.950 . S
C1180 H1172 0.950 . S
C1180 C1181 1.386 . S
C1180 C1182 1.391 . S
C1181 C1180 1.386 . S
C1181 C1185 1.393 . S
C1182 H1174 0.950 . S
C1182 C1180 1.391 . S
C1182 C1183 1.400 . S
C1183 C1182 1.400 . S
C1183 C1184 1.398 . S
C1183 C1189 1.491 . S
C1184 H1175 0.950 . S
C1184 C1183 1.398 . S
C1184 C1185 1.391 . S
C1185 H1173 0.950 . S
C1185 C1181 1.393 . S
C1185 C1184 1.391 . S
C1186 H1176 0.950 . S
C1186 C1187 1.386 . S
C1186 C1188 1.391 . S
C1187 C1186 1.386 . S
C1187 C1191 1.393 . S
C1188 H1177 0.950 . S
C1188 C1186 1.391 . S
C1188 C1189 1.400 . S
C1189 C1183 1.491 . S
C1189 C1188 1.400 . S
C1189 C1190 1.398 . S
C1190 H1178 0.950 . S
C1190 C1189 1.398 . S
C1190 C1191 1.391 . S
C1191 H1179 0.950 . S
C1191 C1187 1.393 . S
C1191 C1190 1.391 . S
H1192 C1200 0.950 . S
H1193 C1205 0.950 . S
H1194 C1202 0.950 . S
H1195 C1204 0.950 . S
H1196 C1206 0.950 . S
H1197 C1208 0.950 . S
H1198 C1210 0.950 . S
H1199 C1211 0.950 . S
C1200 H1192 0.950 . S
C1200 C1201 1.386 . S
C1200 C1202 1.391 . S
C1201 C1200 1.386 . S
C1201 C1205 1.393 . S
C1202 H1194 0.950 . S
C1202 C1200 1.391 . S
C1202 C1203 1.400 . S
C1203 C1202 1.400 . S
C1203 C1204 1.398 . S
C1203 C1209 1.491 1_655 S
C1204 H1195 0.950 . S
C1204 C1203 1.398 . S
C1204 C1205 1.391 . S
C1205 H1193 0.950 . S
C1205 C1201 1.393 . S
C1205 C1204 1.391 . S
C1206 H1196 0.950 . S
C1206 C1207 1.386 . S
C1206 C1208 1.391 . S
C1207 C1206 1.386 . S
C1207 C1211 1.393 . S
C1208 H1197 0.950 . S
C1208 C1206 1.391 . S
C1208 C1209 1.400 . S
C1209 C1203 1.491 1_455 S
C1209 C1208 1.400 . S
C1209 C1210 1.398 . S
C1210 H1198 0.950 . S
C1210 C1209 1.398 . S
C1210 C1211 1.391 . S
C1211 H1199 0.950 . S
C1211 C1207 1.393 . S
C1211 C1210 1.391 . S
H1212 C1220 0.950 . S
H1213 C1225 0.950 . S
H1214 C1222 0.950 . S
H1215 C1224 0.950 . S
H1216 C1226 0.950 . S
H1217 C1228 0.950 . S
H1218 C1230 0.950 . S
H1219 C1231 0.950 . S
C1220 H1212 0.950 . S
C1220 C1221 1.386 . S
C1220 C1222 1.391 . S
C1221 C1220 1.386 . S
C1221 C1225 1.393 . S
C1222 H1214 0.950 . S
C1222 C1220 1.391 . S
C1222 C1223 1.400 . S
C1223 C1222 1.400 . S
C1223 C1224 1.398 . S
C1223 C1229 1.491 . S
C1224 H1215 0.950 . S
C1224 C1223 1.398 . S
C1224 C1225 1.391 . S
C1225 H1213 0.950 . S
C1225 C1221 1.393 . S
C1225 C1224 1.391 . S
C1226 H1216 0.950 . S
C1226 C1227 1.386 . S
C1226 C1228 1.391 . S
C1227 C1226 1.386 . S
C1227 C1231 1.393 . S
C1228 H1217 0.950 . S
C1228 C1226 1.391 . S
C1228 C1229 1.400 . S
C1229 C1223 1.491 . S
C1229 C1228 1.400 . S
C1229 C1230 1.398 . S
C1230 H1218 0.950 . S
C1230 C1229 1.398 . S
C1230 C1231 1.391 . S
C1231 H1219 0.950 . S
C1231 C1227 1.393 . S
C1231 C1230 1.391 . S
H1232 C1240 0.950 . S
H1233 C1245 0.950 . S
H1234 C1242 0.950 . S
H1235 C1244 0.950 . S
H1236 C1246 0.950 . S
H1237 C1248 0.950 . S
H1238 C1250 0.950 . S
H1239 C1251 0.950 . S
C1240 H1232 0.950 . S
C1240 C1241 1.386 . S
C1240 C1242 1.391 . S
C1241 C1240 1.386 . S
C1241 C1245 1.393 . S
C1242 H1234 0.950 . S
C1242 C1240 1.391 . S
C1242 C1243 1.400 . S
C1243 C1242 1.400 . S
C1243 C1244 1.398 . S
C1243 C1249 1.491 . S
C1244 H1235 0.950 . S
C1244 C1243 1.398 . S
C1244 C1245 1.391 . S
C1245 H1233 0.950 . S
C1245 C1241 1.393 . S
C1245 C1244 1.391 . S
C1246 H1236 0.950 . S
C1246 C1247 1.386 . S
C1246 C1248 1.391 . S
C1247 C1246 1.386 . S
C1247 C1251 1.393 . S
C1248 H1237 0.950 . S
C1248 C1246 1.391 . S
C1248 C1249 1.400 . S
C1249 C1243 1.491 . S
C1249 C1248 1.400 . S
C1249 C1250 1.398 . S
C1250 H1238 0.950 . S
C1250 C1249 1.398 . S
C1250 C1251 1.391 . S
C1251 H1239 0.950 . S
C1251 C1247 1.393 . S
C1251 C1250 1.391 . S
H1252 C1260 0.950 . S
H1253 C1265 0.950 . S
H1254 C1262 0.950 . S
H1255 C1264 0.950 . S
H1256 C1266 0.950 . S
H1257 C1268 0.950 . S
H1258 C1270 0.950 . S
H1259 C1271 0.950 . S
C1260 H1252 0.950 . S
C1260 C1261 1.386 . S
C1260 C1262 1.391 . S
C1261 C1260 1.386 . S
C1261 C1265 1.393 . S
C1262 H1254 0.950 . S
C1262 C1260 1.391 . S
C1262 C1263 1.400 . S
C1263 C1262 1.400 . S
C1263 C1264 1.398 . S
C1263 C1269 1.491 . S
C1264 H1255 0.950 . S
C1264 C1263 1.398 . S
C1264 C1265 1.391 . S
C1265 H1253 0.950 . S
C1265 C1261 1.393 . S
C1265 C1264 1.391 . S
C1266 H1256 0.950 . S
C1266 C1267 1.386 . S
C1266 C1268 1.391 . S
C1267 C1266 1.386 . S
C1267 C1271 1.393 . S
C1268 H1257 0.950 . S
C1268 C1266 1.391 . S
C1268 C1269 1.400 . S
C1269 C1263 1.491 . S
C1269 C1268 1.400 . S
C1269 C1270 1.398 . S
C1270 H1258 0.950 . S
C1270 C1269 1.398 . S
C1270 C1271 1.391 . S
C1271 H1259 0.950 . S
C1271 C1267 1.393 . S
C1271 C1270 1.391 . S
H1272 C1280 0.950 . S
H1273 C1285 0.950 . S
H1274 C1282 0.950 . S
H1275 C1284 0.950 . S
H1276 C1286 0.950 . S
H1277 C1288 0.950 . S
H1278 C1290 0.950 . S
H1279 C1291 0.950 . S
C1280 H1272 0.950 . S
C1280 C1281 1.386 . S
C1280 C1282 1.391 . S
C1281 C1280 1.386 . S
C1281 C1285 1.393 . S
C1282 H1274 0.950 . S
C1282 C1280 1.391 . S
C1282 C1283 1.400 . S
C1283 C1282 1.400 . S
C1283 C1284 1.398 . S
C1283 C1289 1.491 . S
C1284 H1275 0.950 . S
C1284 C1283 1.398 . S
C1284 C1285 1.391 . S
C1285 H1273 0.950 . S
C1285 C1281 1.393 . S
C1285 C1284 1.391 . S
C1286 H1276 0.950 . S
C1286 C1287 1.386 . S
C1286 C1288 1.391 . S
C1287 C1286 1.386 . S
C1287 C1291 1.393 . S
C1288 H1277 0.950 . S
C1288 C1286 1.391 . S
C1288 C1289 1.400 . S
C1289 C1283 1.491 . S
C1289 C1288 1.400 . S
C1289 C1290 1.398 . S
C1290 H1278 0.950 . S
C1290 C1289 1.398 . S
C1290 C1291 1.391 . S
C1291 H1279 0.950 . S
C1291 C1287 1.393 . S
C1291 C1290 1.391 . S
H1292 C1300 0.950 . S
H1293 C1305 0.950 . S
H1294 C1302 0.950 . S
H1295 C1304 0.950 . S
H1296 C1306 0.950 . S
H1297 C1308 0.950 . S
H1298 C1310 0.950 . S
H1299 C1311 0.950 . S
C1300 H1292 0.950 . S
C1300 C1301 1.386 . S
C1300 C1302 1.391 . S
C1301 C1300 1.386 . S
C1301 C1305 1.393 . S
C1302 H1294 0.950 . S
C1302 C1300 1.391 . S
C1302 C1303 1.400 . S
C1303 C1302 1.400 . S
C1303 C1304 1.398 . S
C1303 C1309 1.491 . S
C1304 H1295 0.950 . S
C1304 C1303 1.398 . S
C1304 C1305 1.391 . S
C1305 H1293 0.950 . S
C1305 C1301 1.393 . S
C1305 C1304 1.391 . S
C1306 H1296 0.950 . S
C1306 C1307 1.386 . S
C1306 C1308 1.391 . S
C1307 C1306 1.386 . S
C1307 C1311 1.393 . S
C1308 H1297 0.950 . S
C1308 C1306 1.391 . S
C1308 C1309 1.400 . S
C1309 C1303 1.491 . S
C1309 C1308 1.400 . S
C1309 C1310 1.398 . S
C1310 H1298 0.950 . S
C1310 C1309 1.398 . S
C1310 C1311 1.391 . S
C1311 H1299 0.950 . S
C1311 C1307 1.393 . S
C1311 C1310 1.391 . S
H1312 C1320 0.950 . S
H1313 C1325 0.950 . S
H1314 C1322 0.950 . S
H1315 C1324 0.950 . S
H1316 C1326 0.950 . S
H1317 C1328 0.950 . S
H1318 C1330 0.950 . S
H1319 C1331 0.950 . S
C1320 H1312 0.950 . S
C1320 C1321 1.386 . S
C1320 C1322 1.391 . S
C1321 C1320 1.386 . S
C1321 C1325 1.393 . S
C1322 H1314 0.950 . S
C1322 C1320 1.391 . S
C1322 C1323 1.400 . S
C1323 C1322 1.400 . S
C1323 C1324 1.398 . S
C1323 C1329 1.491 . S
C1324 H1315 0.950 . S
C1324 C1323 1.398 . S
C1324 C1325 1.391 . S
C1325 H1313 0.950 . S
C1325 C1321 1.393 . S
C1325 C1324 1.391 . S
C1326 H1316 0.950 . S
C1326 C1327 1.386 . S
C1326 C1328 1.391 . S
C1327 C1326 1.386 . S
C1327 C1331 1.393 . S
C1328 H1317 0.950 . S
C1328 C1326 1.391 . S
C1328 C1329 1.400 . S
C1329 C1323 1.491 . S
C1329 C1328 1.400 . S
C1329 C1330 1.398 . S
C1330 H1318 0.950 . S
C1330 C1329 1.398 . S
C1330 C1331 1.391 . S
C1331 H1319 0.950 . S
C1331 C1327 1.393 . S
C1331 C1330 1.391 . S
H1332 C1340 0.950 . S
H1333 C1345 0.950 . S
H1334 C1342 0.950 . S
H1335 C1344 0.950 . S
H1336 C1346 0.950 . S
H1337 C1348 0.950 . S
H1338 C1350 0.950 . S
H1339 C1351 0.950 . S
C1340 H1332 0.950 . S
C1340 C1341 1.386 . S
C1340 C1342 1.391 . S
C1341 C1340 1.386 . S
C1341 C1345 1.393 . S
C1342 H1334 0.950 . S
C1342 C1340 1.391 . S
C1342 C1343 1.400 . S
C1343 C1342 1.400 . S
C1343 C1344 1.398 . S
C1343 C1349 1.491 . S
C1344 H1335 0.950 . S
C1344 C1343 1.398 . S
C1344 C1345 1.391 . S
C1345 H1333 0.950 . S
C1345 C1341 1.393 . S
C1345 C1344 1.391 . S
C1346 H1336 0.950 . S
C1346 C1347 1.386 . S
C1346 C1348 1.391 . S
C1347 C1346 1.386 . S
C1347 C1351 1.393 . S
C1348 H1337 0.950 . S
C1348 C1346 1.391 . S
C1348 C1349 1.400 . S
C1349 C1343 1.491 . S
C1349 C1348 1.400 . S
C1349 C1350 1.398 . S
C1350 H1338 0.950 . S
C1350 C1349 1.398 . S
C1350 C1351 1.391 . S
C1351 H1339 0.950 . S
C1351 C1347 1.393 . S
C1351 C1350 1.391 . S
H1352 C1360 0.950 . S
H1353 C1365 0.950 . S
H1354 C1362 0.950 . S
H1355 C1364 0.950 . S
H1356 C1366 0.950 . S
H1357 C1368 0.950 . S
H1358 C1370 0.950 . S
H1359 C1371 0.950 . S
C1360 H1352 0.950 . S
C1360 C1361 1.386 . S
C1360 C1362 1.391 . S
C1361 C1360 1.386 . S
C1361 C1365 1.393 . S
C1362 H1354 0.950 . S
C1362 C1360 1.391 . S
C1362 C1363 1.400 . S
C1363 C1362 1.400 . S
C1363 C1364 1.398 . S
C1363 C1369 1.491 . S
C1364 H1355 0.950 . S
C1364 C1363 1.398 . S
C1364 C1365 1.391 . S
C1365 H1353 0.950 . S
C1365 C1361 1.393 . S
C1365 C1364 1.391 . S
C1366 H1356 0.950 . S
C1366 C1367 1.386 . S
C1366 C1368 1.391 . S
C1367 C1366 1.386 . S
C1367 C1371 1.393 . S
C1368 H1357 0.950 . S
C1368 C1366 1.391 . S
C1368 C1369 1.400 . S
C1369 C1363 1.491 . S
C1369 C1368 1.400 . S
C1369 C1370 1.398 . S
C1370 H1358 0.950 . S
C1370 C1369 1.398 . S
C1370 C1371 1.391 . S
C1371 H1359 0.950 . S
C1371 C1367 1.393 . S
C1371 C1370 1.391 . S
H1372 C1380 0.950 . S
H1373 C1385 0.950 . S
H1374 C1382 0.950 . S
H1375 C1384 0.950 . S
H1376 C1386 0.950 . S
H1377 C1388 0.950 . S
H1378 C1390 0.950 . S
H1379 C1391 0.950 . S
C1380 H1372 0.950 . S
C1380 C1381 1.386 . S
C1380 C1382 1.391 . S
C1381 C1380 1.386 . S
C1381 C1385 1.393 . S
C1382 H1374 0.950 . S
C1382 C1380 1.391 . S
C1382 C1383 1.400 . S
C1383 C1382 1.400 . S
C1383 C1384 1.398 . S
C1383 C1389 1.491 . S
C1384 H1375 0.950 . S
C1384 C1383 1.398 . S
C1384 C1385 1.391 . S
C1385 H1373 0.950 . S
C1385 C1381 1.393 . S
C1385 C1384 1.391 . S
C1386 H1376 0.950 . S
C1386 C1387 1.386 . S
C1386 C1388 1.391 . S
C1387 C1386 1.386 . S
C1387 C1391 1.393 . S
C1388 H1377 0.950 . S
C1388 C1386 1.391 . S
C1388 C1389 1.400 . S
C1389 C1383 1.491 . S
C1389 C1388 1.400 . S
C1389 C1390 1.398 . S
C1390 H1378 0.950 . S
C1390 C1389 1.398 . S
C1390 C1391 1.391 . S
C1391 H1379 0.950 . S
C1391 C1387 1.393 . S
C1391 C1390 1.391 . S
H1392 C1400 0.950 . S
H1393 C1405 0.950 . S
H1394 C1402 0.950 . S
H1395 C1404 0.950 . S
H1396 C1406 0.950 . S
H1397 C1408 0.950 . S
H1398 C1410 0.950 . S
H1399 C1411 0.950 . S
C1400 H1392 0.950 . S
C1400 C1401 1.386 . S
C1400 C1402 1.391 . S
C1401 C1400 1.386 . S
C1401 C1405 1.393 . S
C1402 H1394 0.950 . S
C1402 C1400 1.391 . S
C1402 C1403 1.400 . S
C1403 C1402 1.400 . S
C1403 C1404 1.398 . S
C1403 C1409 1.491 . S
C1404 H1395 0.950 . S
C1404 C1403 1.398 . S
C1404 C1405 1.391 . S
C1405 H1393 0.950 . S
C1405 C1401 1.393 . S
C1405 C1404 1.391 . S
C1406 H1396 0.950 . S
C1406 C1407 1.386 . S
C1406 C1408 1.391 . S
C1407 C1406 1.386 . S
C1407 C1411 1.393 . S
C1408 H1397 0.950 . S
C1408 C1406 1.391 . S
C1408 C1409 1.400 . S
C1409 C1403 1.491 . S
C1409 C1408 1.400 . S
C1409 C1410 1.398 . S
C1410 H1398 0.950 . S
C1410 C1409 1.398 . S
C1410 C1411 1.391 . S
C1411 H1399 0.950 . S
C1411 C1407 1.393 . S
C1411 C1410 1.391 . S
H1412 C1420 0.950 . S
H1413 C1425 0.950 . S
H1414 C1422 0.950 . S
H1415 C1424 0.950 . S
H1416 C1426 0.950 . S
H1417 C1428 0.950 . S
H1418 C1430 0.950 . S
H1419 C1431 0.950 . S
C1420 H1412 0.950 . S
C1420 C1421 1.386 . S
C1420 C1422 1.391 . S
C1421 C1420 1.386 . S
C1421 C1425 1.393 . S
C1422 H1414 0.950 . S
C1422 C1420 1.391 . S
C1422 C1423 1.400 . S
C1423 C1422 1.400 . S
C1423 C1424 1.398 . S
C1423 C1429 1.491 . S
C1424 H1415 0.950 . S
C1424 C1423 1.398 . S
C1424 C1425 1.391 . S
C1425 H1413 0.950 . S
C1425 C1421 1.393 . S
C1425 C1424 1.391 . S
C1426 H1416 0.950 . S
C1426 C1427 1.386 . S
C1426 C1428 1.391 . S
C1427 C1426 1.386 . S
C1427 C1431 1.393 . S
C1428 H1417 0.950 . S
C1428 C1426 1.391 . S
C1428 C1429 1.400 . S
C1429 C1423 1.491 . S
C1429 C1428 1.400 . S
C1429 C1430 1.398 . S
C1430 H1418 0.950 . S
C1430 C1429 1.398 . S
C1430 C1431 1.391 . S
C1431 H1419 0.950 . S
C1431 C1427 1.393 . S
C1431 C1430 1.391 . S
H1432 C1440 0.950 . S
H1433 C1445 0.950 . S
H1434 C1442 0.950 . S
H1435 C1444 0.950 . S
H1436 C1446 0.950 . S
H1437 C1448 0.950 . S
H1438 C1450 0.950 . S
H1439 C1451 0.950 . S
C1440 H1432 0.950 . S
C1440 C1441 1.386 . S
C1440 C1442 1.391 . S
C1441 C1440 1.386 . S
C1441 C1445 1.393 . S
C1442 H1434 0.950 . S
C1442 C1440 1.391 . S
C1442 C1443 1.400 . S
C1443 C1442 1.400 . S
C1443 C1444 1.398 . S
C1443 C1449 1.491 . S
C1444 H1435 0.950 . S
C1444 C1443 1.398 . S
C1444 C1445 1.391 . S
C1445 H1433 0.950 . S
C1445 C1441 1.393 . S
C1445 C1444 1.391 . S
C1446 H1436 0.950 . S
C1446 C1447 1.386 . S
C1446 C1448 1.391 . S
C1447 C1446 1.386 . S
C1447 C1451 1.393 . S
C1448 H1437 0.950 . S
C1448 C1446 1.391 . S
C1448 C1449 1.400 . S
C1449 C1443 1.491 . S
C1449 C1448 1.400 . S
C1449 C1450 1.398 . S
C1450 H1438 0.950 . S
C1450 C1449 1.398 . S
C1450 C1451 1.391 . S
C1451 H1439 0.950 . S
C1451 C1447 1.393 . S
C1451 C1450 1.391 . S
H1452 C1460 0.950 . S
H1453 C1465 0.950 . S
H1454 C1462 0.950 . S
H1455 C1464 0.950 . S
H1456 C1466 0.950 . S
H1457 C1468 0.950 . S
H1458 C1470 0.988 . S
H1459 C1471 0.950 . S
C1460 H1452 0.950 . S
C1460 C1461 1.386 . S
C1460 C1462 1.391 . S
C1461 C1460 1.386 . S
C1461 C1465 1.393 . S
C1462 H1454 0.950 . S
C1462 C1460 1.391 . S
C1462 C1463 1.400 . S
C1463 C1462 1.400 . S
C1463 C1464 1.398 1_554 S
C1463 C1469 1.491 1_554 S
C1464 H1455 0.950 . S
C1464 C1463 1.398 1_556 S
C1464 C1465 1.391 1_556 S
C1465 H1453 0.950 . S
C1465 C1461 1.393 . S
C1465 C1464 1.391 1_554 S
C1466 H1456 0.950 . S
C1466 C1467 1.386 . S
C1466 C1468 1.391 . S
C1467 C1466 1.386 . S
C1467 C1471 1.393 . S
C1468 H1457 0.950 . S
C1468 C1466 1.391 . S
C1468 C1469 1.400 . S
C1469 C1463 1.491 1_556 S
C1469 C1468 1.400 . S
C1469 C1470 1.384 1_556 S
C1470 H1458 0.988 . S
C1470 C1469 1.384 1_554 S
C1470 C1471 1.369 1_554 S
C1471 H1459 0.950 . S
C1471 C1467 1.393 . S
C1471 C1470 1.369 1_556 S
H1472 C1480 0.950 . S
H1473 C1485 0.950 . S
H1474 C1482 0.950 . S
H1475 C1484 0.950 . S
H1476 C1486 0.950 . S
H1477 C1488 0.950 . S
H1478 C1490 0.950 . S
H1479 C1491 0.950 . S
C1480 H1472 0.950 . S
C1480 C1481 1.386 . S
C1480 C1482 1.391 . S
C1481 C1480 1.386 . S
C1481 C1485 1.393 . S
C1482 H1474 0.950 . S
C1482 C1480 1.391 . S
C1482 C1483 1.400 . S
C1483 C1482 1.400 . S
C1483 C1484 1.398 . S
C1483 C1489 1.491 . S
C1484 H1475 0.950 . S
C1484 C1483 1.398 . S
C1484 C1485 1.391 . S
C1485 H1473 0.950 . S
C1485 C1481 1.393 . S
C1485 C1484 1.391 . S
C1486 H1476 0.950 . S
C1486 C1487 1.386 . S
C1486 C1488 1.391 . S
C1487 C1486 1.386 . S
C1487 C1491 1.393 . S
C1488 H1477 0.950 . S
C1488 C1486 1.391 . S
C1488 C1489 1.400 . S
C1489 C1483 1.491 . S
C1489 C1488 1.400 . S
C1489 C1490 1.398 . S
C1490 H1478 0.950 . S
C1490 C1489 1.398 . S
C1490 C1491 1.391 . S
C1491 H1479 0.950 . S
C1491 C1487 1.393 . S
C1491 C1490 1.391 . S
H1492 C1500 0.950 . S
H1493 C1505 0.950 . S
H1494 C1502 0.950 . S
H1495 C1504 0.950 . S
H1496 C1506 0.950 . S
H1497 C1508 0.950 . S
H1498 C1510 0.950 . S
H1499 C1511 0.950 . S
C1500 H1492 0.950 . S
C1500 C1501 1.386 . S
C1500 C1502 1.391 . S
C1501 C1500 1.386 . S
C1501 C1505 1.393 . S
C1502 H1494 0.950 . S
C1502 C1500 1.391 . S
C1502 C1503 1.400 . S
C1503 C1502 1.400 . S
C1503 C1504 1.398 . S
C1503 C1509 1.491 . S
C1504 H1495 0.950 . S
C1504 C1503 1.398 . S
C1504 C1505 1.391 . S
C1505 H1493 0.950 . S
C1505 C1501 1.393 . S
C1505 C1504 1.391 . S
C1506 H1496 0.950 . S
C1506 C1507 1.386 . S
C1506 C1508 1.391 . S
C1507 C1506 1.386 . S
C1507 C1511 1.393 . S
C1508 H1497 0.950 . S
C1508 C1506 1.391 . S
C1508 C1509 1.400 . S
C1509 C1503 1.491 . S
C1509 C1508 1.400 . S
C1509 C1510 1.398 . S
C1510 H1498 0.950 . S
C1510 C1509 1.398 . S
C1510 C1511 1.391 . S
C1511 H1499 0.950 . S
C1511 C1507 1.393 . S
C1511 C1510 1.391 . S
H1512 C1520 0.950 . S
H1513 C1525 0.950 . S
H1514 C1522 0.950 . S
H1515 C1524 0.950 . S
H1516 C1526 0.950 . S
H1517 C1528 0.950 . S
H1518 C1530 0.950 . S
H1519 C1531 0.950 . S
C1520 H1512 0.950 . S
C1520 C1521 1.386 . S
C1520 C1522 1.391 . S
C1521 C1520 1.386 . S
C1521 C1525 1.393 . S
C1522 H1514 0.950 . S
C1522 C1520 1.391 . S
C1522 C1523 1.400 . S
C1523 C1522 1.400 . S
C1523 C1524 1.398 . S
C1523 C1529 1.491 . S
C1524 H1515 0.950 . S
C1524 C1523 1.398 . S
C1524 C1525 1.391 . S
C1525 H1513 0.950 . S
C1525 C1521 1.393 . S
C1525 C1524 1.391 . S
C1526 H1516 0.950 . S
C1526 C1527 1.386 . S
C1526 C1528 1.391 . S
C1527 C1526 1.386 . S
C1527 C1531 1.393 . S
C1528 H1517 0.950 . S
C1528 C1526 1.391 . S
C1528 C1529 1.400 . S
C1529 C1523 1.491 . S
C1529 C1528 1.400 . S
C1529 C1530 1.398 . S
C1530 H1518 0.950 . S
C1530 C1529 1.398 . S
C1530 C1531 1.391 . S
C1531 H1519 0.950 . S
C1531 C1527 1.393 . S
C1531 C1530 1.391 . S
H1532 C1540 0.950 . S
H1533 C1545 0.950 . S
H1534 C1542 0.950 . S
H1535 C1544 0.950 . S
H1536 C1546 0.950 . S
H1537 C1548 0.950 . S
H1538 C1550 0.950 . S
H1539 C1551 0.950 . S
C1540 H1532 0.950 . S
C1540 C1541 1.386 . S
C1540 C1542 1.391 . S
C1541 C1540 1.386 . S
C1541 C1545 1.393 . S
C1542 H1534 0.950 . S
C1542 C1540 1.391 . S
C1542 C1543 1.400 . S
C1543 C1542 1.400 . S
C1543 C1544 1.398 . S
C1543 C1549 1.491 . S
C1544 H1535 0.950 . S
C1544 C1543 1.398 . S
C1544 C1545 1.391 . S
C1545 H1533 0.950 . S
C1545 C1541 1.393 . S
C1545 C1544 1.391 . S
C1546 H1536 0.950 . S
C1546 C1547 1.386 . S
C1546 C1548 1.391 . S
C1547 C1546 1.386 . S
C1547 C1551 1.393 . S
C1548 H1537 0.950 . S
C1548 C1546 1.391 . S
C1548 C1549 1.400 . S
C1549 C1543 1.491 . S
C1549 C1548 1.400 . S
C1549 C1550 1.398 . S
C1550 H1538 0.950 . S
C1550 C1549 1.398 . S
C1550 C1551 1.391 . S
C1551 H1539 0.950 . S
C1551 C1547 1.393 . S
C1551 C1550 1.391 . S
H1552 C1560 0.950 . S
H1553 C1565 0.950 . S
H1554 C1562 0.950 . S
H1555 C1564 0.950 . S
H1556 C1566 0.950 . S
H1557 C1568 0.950 . S
H1558 C1570 0.950 . S
H1559 C1571 0.950 . S
C1560 H1552 0.950 . S
C1560 C1561 1.386 . S
C1560 C1562 1.391 . S
C1561 C1560 1.386 . S
C1561 C1565 1.393 . S
C1562 H1554 0.950 . S
C1562 C1560 1.391 . S
C1562 C1563 1.400 . S
C1563 C1562 1.400 . S
C1563 C1564 1.398 . S
C1563 C1569 1.491 . S
C1564 H1555 0.950 . S
C1564 C1563 1.398 . S
C1564 C1565 1.391 . S
C1565 H1553 0.950 . S
C1565 C1561 1.393 . S
C1565 C1564 1.391 . S
C1566 H1556 0.950 . S
C1566 C1567 1.386 . S
C1566 C1568 1.391 . S
C1567 C1566 1.386 . S
C1567 C1571 1.393 . S
C1568 H1557 0.950 . S
C1568 C1566 1.391 . S
C1568 C1569 1.400 . S
C1569 C1563 1.491 . S
C1569 C1568 1.400 . S
C1569 C1570 1.398 . S
C1570 H1558 0.950 . S
C1570 C1569 1.398 . S
C1570 C1571 1.391 . S
C1571 H1559 0.950 . S
C1571 C1567 1.393 . S
C1571 C1570 1.391 . S
H1572 C1580 0.950 . S
H1573 C1585 0.950 . S
H1574 C1582 0.950 . S
H1575 C1584 0.950 . S
H1576 C1586 0.950 . S
H1577 C1588 0.950 . S
H1578 C1590 0.950 . S
H1579 C1591 0.950 . S
C1580 H1572 0.950 . S
C1580 C1581 1.386 . S
C1580 C1582 1.391 . S
C1581 C1580 1.386 . S
C1581 C1585 1.393 . S
C1582 H1574 0.950 . S
C1582 C1580 1.391 . S
C1582 C1583 1.400 . S
C1583 C1582 1.400 . S
C1583 C1584 1.398 . S
C1583 C1589 1.491 . S
C1584 H1575 0.950 . S
C1584 C1583 1.398 . S
C1584 C1585 1.391 . S
C1585 H1573 0.950 . S
C1585 C1581 1.393 . S
C1585 C1584 1.391 . S
C1586 H1576 0.950 . S
C1586 C1587 1.386 . S
C1586 C1588 1.391 . S
C1587 C1586 1.386 . S
C1587 C1591 1.393 . S
C1588 H1577 0.950 . S
C1588 C1586 1.391 . S
C1588 C1589 1.400 . S
C1589 C1583 1.491 . S
C1589 C1588 1.400 . S
C1589 C1590 1.398 . S
C1590 H1578 0.950 . S
C1590 C1589 1.398 . S
C1590 C1591 1.391 . S
C1591 H1579 0.950 . S
C1591 C1587 1.393 . S
C1591 C1590 1.391 . S
H1592 C1600 0.937 1_554 S
H1593 C1605 0.950 . S
H1594 C1602 0.950 . S
H1595 C1604 0.950 . S
H1596 C1606 0.950 . S
H1597 C1608 1.038 . S
H1598 C1610 0.950 . S
H1599 C1611 0.950 . S
C1600 H1592 0.937 1_556 S
C1600 C1601 1.386 . S
C1600 C1602 1.391 1_556 S
C1601 C1600 1.386 . S
C1601 C1605 1.393 . S
C1602 H1594 0.950 . S
C1602 C1600 1.391 1_554 S
C1602 C1603 1.400 1_554 S
C1603 C1602 1.400 1_556 S
C1603 C1604 1.398 . S
C1603 C1609 1.491 1_556 S
C1604 H1595 0.950 . S
C1604 C1603 1.398 . S
C1604 C1605 1.391 . S
C1605 H1593 0.950 . S
C1605 C1601 1.393 . S
C1605 C1604 1.391 . S
C1606 H1596 0.950 . S
C1606 C1607 1.386 . S
C1606 C1608 1.346 1_554 S
C1607 C1606 1.386 . S
C1607 C1611 1.393 . S
C1608 H1597 1.038 . S
C1608 C1606 1.346 1_556 S
C1608 C1609 1.364 1_556 S
C1609 C1603 1.491 1_554 S
C1609 C1608 1.364 1_554 S
C1609 C1610 1.398 . S
C1610 H1598 0.950 . S
C1610 C1609 1.398 . S
C1610 C1611 1.391 . S
C1611 H1599 0.950 . S
C1611 C1607 1.393 . S
C1611 C1610 1.391 . S
H1612 C1620 0.950 . S
H1613 C1625 0.950 . S
H1614 C1622 0.950 . S
H1615 C1624 0.950 . S
H1616 C1626 0.950 . S
H1617 C1628 0.950 . S
H1618 C1630 0.950 . S
H1619 C1631 0.950 . S
C1620 H1612 0.950 . S
C1620 C1621 1.386 . S
C1620 C1622 1.391 . S
C1621 C1620 1.386 . S
C1621 C1625 1.393 . S
C1622 H1614 0.950 . S
C1622 C1620 1.391 . S
C1622 C1623 1.400 . S
C1623 C1622 1.400 . S
C1623 C1624 1.398 . S
C1623 C1629 1.491 . S
C1624 H1615 0.950 . S
C1624 C1623 1.398 . S
C1624 C1625 1.391 . S
C1625 H1613 0.950 . S
C1625 C1621 1.393 . S
C1625 C1624 1.391 . S
C1626 H1616 0.950 . S
C1626 C1627 1.386 . S
C1626 C1628 1.391 . S
C1627 C1626 1.386 . S
C1627 C1631 1.393 . S
C1628 H1617 0.950 . S
C1628 C1626 1.391 . S
C1628 C1629 1.400 . S
C1629 C1623 1.491 . S
C1629 C1628 1.400 . S
C1629 C1630 1.398 . S
C1630 H1618 0.950 . S
C1630 C1629 1.398 . S
C1630 C1631 1.391 . S
C1631 H1619 0.950 . S
C1631 C1627 1.393 . S
C1631 C1630 1.391 . S
H1632 C1640 0.950 . S
H1633 C1645 0.950 . S
H1634 C1642 0.950 . S
H1635 C1644 0.950 . S
H1636 C1646 0.950 . S
H1637 C1648 0.950 . S
H1638 C1650 0.950 . S
H1639 C1651 0.950 . S
C1640 H1632 0.950 . S
C1640 C1641 1.386 . S
C1640 C1642 1.391 . S
C1641 C1640 1.386 . S
C1641 C1645 1.393 . S
C1642 H1634 0.950 . S
C1642 C1640 1.391 . S
C1642 C1643 1.400 . S
C1643 C1642 1.400 . S
C1643 C1644 1.398 . S
C1643 C1649 1.491 . S
C1644 H1635 0.950 . S
C1644 C1643 1.398 . S
C1644 C1645 1.391 . S
C1645 H1633 0.950 . S
C1645 C1641 1.393 . S
C1645 C1644 1.391 . S
C1646 H1636 0.950 . S
C1646 C1647 1.386 . S
C1646 C1648 1.391 . S
C1647 C1646 1.386 . S
C1647 C1651 1.393 . S
C1648 H1637 0.950 . S
C1648 C1646 1.391 . S
C1648 C1649 1.400 . S
C1649 C1643 1.491 . S
C1649 C1648 1.400 . S
C1649 C1650 1.398 . S
C1650 H1638 0.950 . S
C1650 C1649 1.398 . S
C1650 C1651 1.391 . S
C1651 H1639 0.950 . S
C1651 C1647 1.393 . S
C1651 C1650 1.391 . S
H1652 C1660 0.950 . S
H1653 C1665 0.950 . S
H1654 C1662 0.950 . S
H1655 C1664 0.950 . S
H1656 C1666 0.950 . S
H1657 C1668 0.950 . S
H1658 C1670 0.950 . S
H1659 C1671 0.950 . S
C1660 H1652 0.950 . S
C1660 C1661 1.386 . S
C1660 C1662 1.391 . S
C1661 C1660 1.386 . S
C1661 C1665 1.393 . S
C1662 H1654 0.950 . S
C1662 C1660 1.391 . S
C1662 C1663 1.400 . S
C1663 C1662 1.400 . S
C1663 C1664 1.398 . S
C1663 C1669 1.491 . S
C1664 H1655 0.950 . S
C1664 C1663 1.398 . S
C1664 C1665 1.391 . S
C1665 H1653 0.950 . S
C1665 C1661 1.393 . S
C1665 C1664 1.391 . S
C1666 H1656 0.950 . S
C1666 C1667 1.386 . S
C1666 C1668 1.391 . S
C1667 C1666 1.386 . S
C1667 C1671 1.393 . S
C1668 H1657 0.950 . S
C1668 C1666 1.391 . S
C1668 C1669 1.400 . S
C1669 C1663 1.491 . S
C1669 C1668 1.400 . S
C1669 C1670 1.398 . S
C1670 H1658 0.950 . S
C1670 C1669 1.398 . S
C1670 C1671 1.391 . S
C1671 H1659 0.950 . S
C1671 C1667 1.393 . S
C1671 C1670 1.391 . S
H1672 C1680 0.950 . S
H1673 C1685 0.950 . S
H1674 C1682 0.950 . S
H1675 C1684 0.950 . S
H1676 C1686 0.950 . S
H1677 C1688 0.950 . S
H1678 C1690 0.950 . S
H1679 C1691 0.950 . S
C1680 H1672 0.950 . S
C1680 C1681 1.386 . S
C1680 C1682 1.391 . S
C1681 C1680 1.386 . S
C1681 C1685 1.393 . S
C1682 H1674 0.950 . S
C1682 C1680 1.391 . S
C1682 C1683 1.400 . S
C1683 C1682 1.400 . S
C1683 C1684 1.398 . S
C1683 C1689 1.491 . S
C1684 H1675 0.950 . S
C1684 C1683 1.398 . S
C1684 C1685 1.391 . S
C1685 H1673 0.950 . S
C1685 C1681 1.393 . S
C1685 C1684 1.391 . S
C1686 H1676 0.950 . S
C1686 C1687 1.386 . S
C1686 C1688 1.391 . S
C1687 C1686 1.386 . S
C1687 C1691 1.393 . S
C1688 H1677 0.950 . S
C1688 C1686 1.391 . S
C1688 C1689 1.400 . S
C1689 C1683 1.491 . S
C1689 C1688 1.400 . S
C1689 C1690 1.398 . S
C1690 H1678 0.950 . S
C1690 C1689 1.398 . S
C1690 C1691 1.391 . S
C1691 H1679 0.950 . S
C1691 C1687 1.393 . S
C1691 C1690 1.391 . S
H1692 C1700 0.950 . S
H1693 C1705 0.950 . S
H1694 C1702 0.950 . S
H1695 C1704 0.950 . S
H1696 C1706 0.950 . S
H1697 C1708 0.950 . S
H1698 C1710 0.950 . S
H1699 C1711 0.950 . S
C1700 H1692 0.950 . S
C1700 C1701 1.386 . S
C1700 C1702 1.391 . S
C1701 C1700 1.386 . S
C1701 C1705 1.393 . S
C1702 H1694 0.950 . S
C1702 C1700 1.391 . S
C1702 C1703 1.400 . S
C1703 C1702 1.400 . S
C1703 C1704 1.398 . S
C1703 C1709 1.491 . S
C1704 H1695 0.950 . S
C1704 C1703 1.398 . S
C1704 C1705 1.391 . S
C1705 H1693 0.950 . S
C1705 C1701 1.393 . S
C1705 C1704 1.391 . S
C1706 H1696 0.950 . S
C1706 C1707 1.386 . S
C1706 C1708 1.391 . S
C1707 C1706 1.386 . S
C1707 C1711 1.393 . S
C1708 H1697 0.950 . S
C1708 C1706 1.391 . S
C1708 C1709 1.400 . S
C1709 C1703 1.491 . S
C1709 C1708 1.400 . S
C1709 C1710 1.398 . S
C1710 H1698 0.950 . S
C1710 C1709 1.398 . S
C1710 C1711 1.391 . S
C1711 H1699 0.950 . S
C1711 C1707 1.393 . S
C1711 C1710 1.391 . S
H1712 C1720 0.950 . S
H1713 C1725 0.950 . S
H1714 C1722 0.950 . S
H1715 C1724 0.950 . S
H1716 C1726 0.950 . S
H1717 C1728 0.950 . S
H1718 C1730 0.950 . S
H1719 C1731 0.950 . S
C1720 H1712 0.950 . S
C1720 C1721 1.386 . S
C1720 C1722 1.391 . S
C1721 C1720 1.386 . S
C1721 C1725 1.393 . S
C1722 H1714 0.950 . S
C1722 C1720 1.391 . S
C1722 C1723 1.400 . S
C1723 C1722 1.400 . S
C1723 C1724 1.398 . S
C1723 C1729 1.491 . S
C1724 H1715 0.950 . S
C1724 C1723 1.398 . S
C1724 C1725 1.391 . S
C1725 H1713 0.950 . S
C1725 C1721 1.393 . S
C1725 C1724 1.391 . S
C1726 H1716 0.950 . S
C1726 C1727 1.386 . S
C1726 C1728 1.391 . S
C1727 C1726 1.386 . S
C1727 C1731 1.393 . S
C1728 H1717 0.950 . S
C1728 C1726 1.391 . S
C1728 C1729 1.400 . S
C1729 C1723 1.491 . S
C1729 C1728 1.400 . S
C1729 C1730 1.398 . S
C1730 H1718 0.950 . S
C1730 C1729 1.398 . S
C1730 C1731 1.391 . S
C1731 H1719 0.950 . S
C1731 C1727 1.393 . S
C1731 C1730 1.391 . S
H1732 C1740 0.950 . S
H1733 C1745 0.950 . S
H1734 C1742 0.950 . S
H1735 C1744 0.950 . S
H1736 C1746 0.950 . S
H1737 C1748 0.950 . S
H1738 C1750 0.950 . S
H1739 C1751 0.950 . S
C1740 H1732 0.950 . S
C1740 C1741 1.386 . S
C1740 C1742 1.391 . S
C1741 C1740 1.386 . S
C1741 C1745 1.393 . S
C1742 H1734 0.950 . S
C1742 C1740 1.391 . S
C1742 C1743 1.400 . S
C1743 C1742 1.400 . S
C1743 C1744 1.398 . S
C1743 C1749 1.491 . S
C1744 H1735 0.950 . S
C1744 C1743 1.398 . S
C1744 C1745 1.391 . S
C1745 H1733 0.950 . S
C1745 C1741 1.393 . S
C1745 C1744 1.391 . S
C1746 H1736 0.950 . S
C1746 C1747 1.386 . S
C1746 C1748 1.391 . S
C1747 C1746 1.386 . S
C1747 C1751 1.393 . S
C1748 H1737 0.950 . S
C1748 C1746 1.391 . S
C1748 C1749 1.400 . S
C1749 C1743 1.491 . S
C1749 C1748 1.400 . S
C1749 C1750 1.398 . S
C1750 H1738 0.950 . S
C1750 C1749 1.398 . S
C1750 C1751 1.391 . S
C1751 H1739 0.950 . S
C1751 C1747 1.393 . S
C1751 C1750 1.391 . S
H1752 C1760 0.950 . S
H1753 C1765 0.950 . S
H1754 C1762 0.950 . S
H1755 C1764 0.950 . S
H1756 C1766 0.950 . S
H1757 C1768 0.950 . S
H1758 C1770 0.950 . S
H1759 C1771 0.950 . S
C1760 H1752 0.950 . S
C1760 C1761 1.386 . S
C1760 C1762 1.391 . S
C1761 C1760 1.386 . S
C1761 C1765 1.393 . S
C1762 H1754 0.950 . S
C1762 C1760 1.391 . S
C1762 C1763 1.400 . S
C1763 C1762 1.400 . S
C1763 C1764 1.398 . S
C1763 C1769 1.491 . S
C1764 H1755 0.950 . S
C1764 C1763 1.398 . S
C1764 C1765 1.391 . S
C1765 H1753 0.950 . S
C1765 C1761 1.393 . S
C1765 C1764 1.391 . S
C1766 H1756 0.950 . S
C1766 C1767 1.386 . S
C1766 C1768 1.391 . S
C1767 C1766 1.386 . S
C1767 C1771 1.393 . S
C1768 H1757 0.950 . S
C1768 C1766 1.391 . S
C1768 C1769 1.400 . S
C1769 C1763 1.491 . S
C1769 C1768 1.400 . S
C1769 C1770 1.398 . S
C1770 H1758 0.950 . S
C1770 C1769 1.398 . S
C1770 C1771 1.391 . S
C1771 H1759 0.950 . S
C1771 C1767 1.393 . S
C1771 C1770 1.391 . S
H1772 C1780 0.950 . S
H1773 C1785 0.950 . S
H1774 C1782 0.950 . S
H1775 C1784 0.950 . S
H1776 C1786 0.950 . S
H1777 C1788 0.950 . S
H1778 C1790 0.950 . S
H1779 C1791 0.950 . S
C1780 H1772 0.950 . S
C1780 C1781 1.386 . S
C1780 C1782 1.391 . S
C1781 C1780 1.386 . S
C1781 C1785 1.393 . S
C1782 H1774 0.950 . S
C1782 C1780 1.391 . S
C1782 C1783 1.400 . S
C1783 C1782 1.400 . S
C1783 C1784 1.398 . S
C1783 C1789 1.491 . S
C1784 H1775 0.950 . S
C1784 C1783 1.398 . S
C1784 C1785 1.391 . S
C1785 H1773 0.950 . S
C1785 C1781 1.393 . S
C1785 C1784 1.391 . S
C1786 H1776 0.950 . S
C1786 C1787 1.386 . S
C1786 C1788 1.391 . S
C1787 C1786 1.386 . S
C1787 C1791 1.393 . S
C1788 H1777 0.950 . S
C1788 C1786 1.391 . S
C1788 C1789 1.400 . S
C1789 C1783 1.491 . S
C1789 C1788 1.400 . S
C1789 C1790 1.398 . S
C1790 H1778 0.950 . S
C1790 C1789 1.398 . S
C1790 C1791 1.391 . S
C1791 H1779 0.950 . S
C1791 C1787 1.393 . S
C1791 C1790 1.391 . S
H1792 C1800 0.950 . S
H1793 C1805 0.950 . S
H1794 C1802 0.950 . S
H1795 C1804 0.950 . S
H1796 C1806 0.950 . S
H1797 C1808 0.950 . S
H1798 C1810 0.950 . S
H1799 C1811 0.950 . S
C1800 H1792 0.950 . S
C1800 C1801 1.386 . S
C1800 C1802 1.391 . S
C1801 C1800 1.386 . S
C1801 C1805 1.393 . S
C1802 H1794 0.950 . S
C1802 C1800 1.391 . S
C1802 C1803 1.400 . S
C1803 C1802 1.400 . S
C1803 C1804 1.398 . S
C1803 C1809 1.491 . S
C1804 H1795 0.950 . S
C1804 C1803 1.398 . S
C1804 C1805 1.391 . S
C1805 H1793 0.950 . S
C1805 C1801 1.393 . S
C1805 C1804 1.391 . S
C1806 H1796 0.950 . S
C1806 C1807 1.386 . S
C1806 C1808 1.391 . S
C1807 C1806 1.386 . S
C1807 C1811 1.393 . S
C1808 H1797 0.950 . S
C1808 C1806 1.391 . S
C1808 C1809 1.400 . S
C1809 C1803 1.491 . S
C1809 C1808 1.400 . S
C1809 C1810 1.398 . S
C1810 H1798 0.950 . S
C1810 C1809 1.398 . S
C1810 C1811 1.391 . S
C1811 H1799 0.950 . S
C1811 C1807 1.393 . S
C1811 C1810 1.391 . S
C981 C664 1.307 . S
C987 C16 1.314 . S
C1001 C97 1.277 . S
C1007 C745 1.274 . S
C1021 C826 1.227 . S
C1027 C178 1.240 . S
C1041 C259 1.277 . S
C1047 C907 1.273 . S
C1061 C340 1.283 . S
C1067 C502 1.295 . S
C1081 C583 1.248 . S
C1087 C421 1.241 . S
C1101 C604 3.167 . S
C1107 C37 3.166 . S
C1121 C685 3.157 . S
C1127 C118 3.159 . S
C1141 C766 3.176 . S
C1147 C199 3.163 . S
C1161 C280 3.169 . S
C1167 C847 3.172 . S
C1181 C361 3.158 . S
C1187 C928 3.171 . S
C1201 C523 3.173 . S
C1207 C442 3.162 . S
C1221 C423 2.036 . S
C1227 C52 1.836 . S
C1241 C133 1.843 . S
C1247 C18 2.050 . S
C1261 C99 2.056 . S
C1267 C214 1.865 . S
C1281 C180 2.046 . S
C1287 C295 1.807 . S
C1301 C261 2.063 . S
C1307 C376 1.863 . S
C1321 C457 1.857 . S
C1327 C342 2.060 . S
C1341 C585 2.045 . S
C1347 C538 1.807 . S
C1361 C666 2.060 . S
C1367 C619 1.836 . S
C1381 C747 2.064 . S
C1387 C700 1.844 . S
C1401 C828 2.038 . S
C1407 C781 1.811 . S
C1421 C862 1.846 . S
C1427 C909 2.045 . S
C1441 C504 2.060 . S
C1447 C943 1.867 . S
C1461 C34 1.238 . S
C1467 C617 1.287 . S
C1481 C115 1.233 . S
C1487 C698 1.287 . S
C1501 C779 1.355 . S
C1507 C196 1.311 . S
C1521 C860 1.274 . S
C1527 C277 1.247 . S
C1541 C358 1.237 . S
C1547 C941 1.280 . S
C1561 C536 1.353 . S
C1567 C439 1.314 . S
C1581 C520 1.250 . S
C1587 C455 1.287 . S
C1601 C601 1.289 . S
C1607 C50 1.326 . S
C1621 C131 1.292 . S
C1627 C682 1.231 . S
C1641 C763 1.253 . S
C1647 C212 1.282 . S
C1661 C293 1.351 . S
C1667 C844 1.295 . S
C1681 C374 1.315 . S
C1687 C925 1.266 . S
C1701 C707 0.652 . S
C1707 C59 0.712 . S
C1721 C140 0.692 . S
C1727 C788 0.694 . S
C1741 C869 0.677 . S
C1747 C221 0.609 . S
C1761 C302 0.689 . S
C1767 C950 0.613 . S
C1781 C383 0.695 . S
C1787 C545 0.634 . S
C1801 C626 0.672 . S
C1807 C464 0.606 . S
