# Generated by pormake.
# Topology ukh, (4)-cn, num edge types: 1
# Building blocks:
#     Node 0, Type 0, BuildingBlock: CEKHIL_clean_sbu_0, # of connection points: 4
#     Node 1, Type 0, BuildingBlock: CEKHIL_clean_sbu_0, # of connection points: 4
#     Node 2, Type 0, BuildingBlock: CEKHIL_clean_sbu_0, # of connection points: 4
#     Node 3, Type 0, BuildingBlock: CEKHIL_clean_sbu_0, # of connection points: 4
#     Node 4, Type 0, BuildingBlock: CEKHIL_clean_sbu_0, # of connection points: 4
#     Node 5, Type 0, BuildingBlock: CEKHIL_clean_sbu_0, # of connection points: 4
#     Node 6, Type 0, BuildingBlock: CEKHIL_clean_sbu_0, # of connection points: 4
#     Node 7, Type 0, BuildingBlock: CEKHIL_clean_sbu_0, # of connection points: 4
#     Node 8, Type 0, BuildingBlock: CEKHIL_clean_sbu_0, # of connection points: 4
#     Node 9, Type 0, BuildingBlock: CEKHIL_clean_sbu_0, # of connection points: 4
#     Node 10, Type 0, BuildingBlock: CEKHIL_clean_sbu_0, # of connection points: 4
#     Node 11, Type 0, BuildingBlock: CEKHIL_clean_sbu_0, # of connection points: 4
#     Edge 12, Type (0, 0), BuildingBlock: AJUNOK_clean_linker_0, # of connection points: 2
#     Edge 13, Type (0, 0), BuildingBlock: AJUNOK_clean_linker_0, # of connection points: 2
#     Edge 14, Type (0, 0), BuildingBlock: AJUNOK_clean_linker_0, # of connection points: 2
#     Edge 15, Type (0, 0), BuildingBlock: AJUNOK_clean_linker_0, # of connection points: 2
#     Edge 16, Type (0, 0), BuildingBlock: AJUNOK_clean_linker_0, # of connection points: 2
#     Edge 17, Type (0, 0), BuildingBlock: AJUNOK_clean_linker_0, # of connection points: 2
#     Edge 18, Type (0, 0), BuildingBlock: AJUNOK_clean_linker_0, # of connection points: 2
#     Edge 19, Type (0, 0), BuildingBlock: AJUNOK_clean_linker_0, # of connection points: 2
#     Edge 20, Type (0, 0), BuildingBlock: AJUNOK_clean_linker_0, # of connection points: 2
#     Edge 21, Type (0, 0), BuildingBlock: AJUNOK_clean_linker_0, # of connection points: 2
#     Edge 22, Type (0, 0), BuildingBlock: AJUNOK_clean_linker_0, # of connection points: 2
#     Edge 23, Type (0, 0), BuildingBlock: AJUNOK_clean_linker_0, # of connection points: 2
#     Edge 24, Type (0, 0), BuildingBlock: AJUNOK_clean_linker_0, # of connection points: 2
#     Edge 25, Type (0, 0), BuildingBlock: AJUNOK_clean_linker_0, # of connection points: 2
#     Edge 26, Type (0, 0), BuildingBlock: AJUNOK_clean_linker_0, # of connection points: 2
#     Edge 27, Type (0, 0), BuildingBlock: AJUNOK_clean_linker_0, # of connection points: 2
#     Edge 28, Type (0, 0), BuildingBlock: AJUNOK_clean_linker_0, # of connection points: 2
#     Edge 29, Type (0, 0), BuildingBlock: AJUNOK_clean_linker_0, # of connection points: 2
#     Edge 30, Type (0, 0), BuildingBlock: AJUNOK_clean_linker_0, # of connection points: 2
#     Edge 31, Type (0, 0), BuildingBlock: AJUNOK_clean_linker_0, # of connection points: 2
#     Edge 32, Type (0, 0), BuildingBlock: AJUNOK_clean_linker_0, # of connection points: 2
#     Edge 33, Type (0, 0), BuildingBlock: AJUNOK_clean_linker_0, # of connection points: 2
#     Edge 34, Type (0, 0), BuildingBlock: AJUNOK_clean_linker_0, # of connection points: 2
#     Edge 35, Type (0, 0), BuildingBlock: AJUNOK_clean_linker_0, # of connection points: 2
# Relax obj value: 0.070
# Max RMSD: 0.092
# Mean RMSD: 0.092
data_MOF--net-ukh--node1-CEKHIL_clean_sbu_0--edge1-AJUNOK_clean_linker_0
_symmetry_space_group_name_H-M    P1
_symmetry_Int_Tables_number       1
_symmetry_cell_setting            triclinic
loop_
_symmetry_equiv_pos_as_xyz
'x, y, z'
_cell_length_a     23.829225
_cell_length_b     23.810712
_cell_length_c     44.750823
_cell_angle_alpha  89.979661
_cell_angle_beta   90.020978
_cell_angle_gamma 119.98662
loop_
_atom_site_label
_atom_site_type_symbol
_atom_site_fract_x
_atom_site_fract_y
_atom_site_fract_z
_atom_type_partial_charge
Co0 Co 0.32844 0.25961 0.04494 0.0
O1 O 0.35519 0.34691 0.05675 0.0
O2 O 0.41979 0.31823 0.03481 0.0
C3 C 0.23692 0.24307 0.02251 0.0
O4 O 0.31144 0.17124 0.02884 0.0
Co5 Co 0.19776 0.1529 0.07296 0.0
O6 O 0.21221 0.09618 0.04571 0.0
C7 C 0.3189 0.20551 0.10757 0.0
C8 C 0.41116 0.3646 0.04524 0.0
C9 C 0.26351 0.11221 0.03068 0.0
O10 O 0.35277 0.23987 0.08531 0.0
O11 O 0.25701 0.17239 0.10774 0.0
O12 O 0.29159 0.27153 0.00831 0.0
O13 O 0.24053 0.23215 0.05046 0.0
Co14 Co 0.08305 0.33601 0.37657 0.0
O15 O 0.02137 0.36174 0.38758 0.0
O16 O 0.11488 0.42688 0.36586 0.0
C17 C 0.009 0.24296 0.3547 0.0
O18 O 0.1555 0.32009 0.36124 0.0
Co19 Co 0.06108 0.20711 0.40602 0.0
O20 O 0.13338 0.22228 0.37936 0.0
C21 C 0.12244 0.32859 0.44039 0.0
C22 C 0.05953 0.41773 0.376 0.0
C23 C 0.16782 0.2731 0.36384 0.0
O24 O 0.126 0.36189 0.41712 0.0
O25 O 0.09277 0.26665 0.44112 0.0
O26 O 0.03471 0.2971 0.33997 0.0
O27 O 0.02411 0.24818 0.3826 0.0
Co28 Co 0.74954 0.07332 0.71052 0.0
O29 O 0.66191 0.01136 0.72093 0.0
O30 O 0.69118 0.10619 0.7003 0.0
C31 C 0.76868 1.0006 0.68755 0.0
O32 O 0.83818 0.14625 0.69589 0.0
Co33 Co 0.85509 0.04923 0.73953 0.0
O34 O 0.91328 0.12327 0.71385 0.0
C35 C 0.79392 0.10776 0.77491 0.0
C36 C 0.64459 0.05028 0.70974 0.0
C37 C 0.89736 0.15845 0.69862 0.0
O38 O 0.7662 0.11415 0.75154 0.0
O39 O 0.82489 0.07677 0.77528 0.0
O40 O 0.7406 0.02724 0.67331 0.0
O41 O 0.7777 0.01346 0.7157 0.0
Co42 Co 0.6883 0.74493 0.04619 0.0
O43 O 0.66014 0.65658 0.05689 0.0
O44 O 0.59695 0.68825 0.03582 0.0
C45 C 0.77998 0.76196 0.0237 0.0
O46 O 0.70646 0.83434 0.03117 0.0
Co47 Co 0.81832 0.84918 0.07547 0.0
O48 O 0.80509 0.9082 0.04907 0.0
C49 C 0.69831 0.78929 0.11057 0.0
C50 C 0.60418 0.64066 0.04577 0.0
C51 C 0.75459 0.89312 0.03354 0.0
O52 O 0.66431 0.76277 0.08703 0.0
O53 O 0.76021 0.81891 0.11112 0.0
O54 O 0.72549 0.73455 0.00926 0.0
O55 O 0.77573 0.77162 0.05173 0.0
Co56 Co 0.95652 0.69429 0.38138 0.0
O57 O 0.01555 0.66462 0.39168 0.0
O58 O 0.92196 0.60394 0.36911 0.0
C59 C 0.0329 0.7877 0.3608 0.0
O60 O 0.88655 0.71445 0.36665 0.0
Co61 Co 0.98166 0.82159 0.41324 0.0
O62 O 0.91081 0.81132 0.38663 0.0
C63 C 0.9173 0.69787 0.44562 0.0
C64 C 0.97608 0.60995 0.37929 0.0
C65 C 0.87577 0.76226 0.37019 0.0
O66 O 0.91204 0.66639 0.42148 0.0
O67 O 0.94973 0.75969 0.44759 0.0
O68 O 1.00602 0.73455 0.34534 0.0
O69 O 0.01774 0.78116 0.38874 0.0
Co70 Co 0.26458 0.94531 0.71018 0.0
O71 O 0.35257 1.00539 0.72107 0.0
O72 O 0.32157 0.91153 0.69906 0.0
C73 C 0.24634 0.01978 0.68854 0.0
O74 O 0.17559 0.87442 0.69492 0.0
Co75 Co 0.16013 0.96919 0.74055 0.0
O76 O 0.10148 0.89799 0.71363 0.0
C77 C 0.21908 0.90611 0.77419 0.0
C78 C 0.36883 0.96606 0.70939 0.0
C79 C 0.1168 0.86343 0.69757 0.0
O80 O 0.24701 0.90149 0.75051 0.0
O81 O 0.18864 0.93757 0.77548 0.0
O82 O 0.27442 0.9939 0.67371 0.0
O83 O 0.23739 1.0056 0.71658 0.0
Co84 Co 0.74863 0.68751 0.61252 0.0
O85 O 0.66051 0.65831 0.60143 0.0
O86 O 0.69235 0.59689 0.62421 0.0
C87 C 0.7649 0.78048 0.63334 0.0
O88 O 0.83799 0.70709 0.62793 0.0
Co89 Co 0.85188 0.8162 0.58165 0.0
O90 O 0.91139 0.80396 0.60817 0.0
C91 C 0.7948 0.69321 0.54874 0.0
C92 C 0.64475 0.60334 0.61367 0.0
C93 C 0.89672 0.75455 0.62449 0.0
O94 O 0.76725 0.66086 0.57254 0.0
O95 O 0.82365 0.75506 0.5471 0.0
O96 O 0.73783 0.727 0.64856 0.0
O97 O 0.77466 0.77444 0.60552 0.0
Co98 Co 0.07022 0.74599 0.94419 0.0
O99 O 0.00883 0.65851 0.93308 0.0
O100 O 0.10258 0.6871 0.95449 0.0
C101 C 0.99688 0.76443 0.9669 0.0
O102 O 0.14236 0.83452 0.95957 0.0
Co103 Co 0.04677 0.85213 0.91534 0.0
O104 O 0.11904 0.90973 0.94198 0.0
C105 C 0.10871 0.79368 0.88037 0.0
C106 C 0.0471 0.6407 0.94453 0.0
C107 C 0.15386 0.89366 0.95739 0.0
O108 O 0.11273 0.76395 0.90353 0.0
O109 O 0.07834 0.82526 0.87985 0.0
O110 O 0.02304 0.73586 0.9811 0.0
O111 O 0.01021 0.77408 0.9388 0.0
Co112 Co 0.34045 0.07681 0.2812 0.0
O113 O 0.36717 0.01517 0.2714 0.0
O114 O 0.43233 0.11177 0.29047 0.0
C115 C 0.24998 1.00497 0.30536 0.0
O116 O 0.32396 0.14981 0.29498 0.0
Co117 Co 0.20915 0.04928 0.25279 0.0
O118 O 0.22484 0.12454 0.27756 0.0
C119 C 0.32687 0.10473 0.21625 0.0
C120 C 0.42399 0.05594 0.28142 0.0
C121 C 0.27619 0.16092 0.29238 0.0
O122 O 0.36215 0.1148 0.23958 0.0
O123 O 0.26496 0.07231 0.21647 0.0
O124 O 0.30528 0.03281 0.31912 0.0
O125 O 0.25265 0.01612 0.27707 0.0
Co126 Co 0.26386 0.33097 0.61365 0.0
O127 O 0.35149 0.35659 0.60322 0.0
O128 O 0.32266 0.42134 0.62508 0.0
C129 C 0.24365 0.23708 0.63503 0.0
O130 O 0.17529 0.31508 0.62852 0.0
Co131 Co 0.15764 0.20402 0.58299 0.0
O132 O 0.09977 0.21817 0.60967 0.0
C133 C 0.22104 0.3262 0.54936 0.0
C134 C 0.36905 0.41224 0.61515 0.0
C135 C 0.11601 0.26827 0.62571 0.0
O136 O 0.24854 0.35849 0.57316 0.0
O137 O 0.18906 0.26429 0.54811 0.0
O138 O 0.27173 0.29075 0.65009 0.0
O139 O 0.23481 0.24318 0.60707 0.0
Co140 Co 0.94333 0.26031 0.94636 0.0
O141 O 1.00281 0.34824 0.93486 0.0
O142 O 0.90936 0.31739 0.95717 0.0
C143 C 0.0196 0.24416 0.96775 0.0
O144 O 0.87299 0.17141 0.96231 0.0
Co145 Co 0.96718 0.1548 0.91691 0.0
O146 O 0.8966 0.09682 0.94419 0.0
C147 C 0.90195 0.21139 0.88289 0.0
C148 C 0.96347 0.36455 0.94646 0.0
C149 C 0.86195 0.11247 0.95996 0.0
O150 O 0.89879 0.24137 0.90614 0.0
O151 O 0.93259 0.18009 0.88197 0.0
O152 O 0.99328 0.2718 0.98259 0.0
O153 O 1.00378 0.23344 0.93993 0.0
Co154 Co 0.69819 0.94913 0.27972 0.0
O155 O 0.67109 0.00912 0.26749 0.0
O156 O 0.60763 0.9173 0.29089 0.0
C157 C 0.79096 0.02468 0.3008 0.0
O158 O 0.71577 0.87887 0.29662 0.0
Co159 Co 0.82637 0.96995 0.2504 0.0
O160 O 0.81386 0.90128 0.27893 0.0
C161 C 0.70397 0.90302 0.21696 0.0
C162 C 0.61588 0.97176 0.2799 0.0
C163 C 0.76371 0.86781 0.29496 0.0
O164 O 0.67146 0.90249 0.23999 0.0
O165 O 0.76584 0.93273 0.21586 0.0
O166 O 0.73705 0.99992 0.31557 0.0
O167 O 0.78588 0.00875 0.27298 0.0
C168 C 0.57247 0.52316 0.04468 0.0
C169 C 0.55371 0.57088 0.04376 0.0
C170 C 0.52662 0.45651 0.0441 0.0
C171 C 0.46005 0.43488 0.04324 0.0
H172 H 0.62327 0.53736 0.04595 0.0
H173 H 0.54339 0.42184 0.04525 0.0
S174 S 0.38527 0.53947 0.03895 0.0
N175 N 0.46389 0.59132 0.04044 0.0
N176 N 0.37754 0.46661 0.03999 0.0
C177 C 0.44063 0.48206 0.04169 0.0
C178 C 0.48742 0.54985 0.04175 0.0
C179 C 0.0829 0.53303 0.37625 0.0
C180 C 0.03815 0.46654 0.37409 0.0
C181 C 0.06193 0.57866 0.37756 0.0
C182 C 0.99551 0.55979 0.37613 0.0
H183 H 0.13423 0.54977 0.37799 0.0
H184 H 0.09833 0.62934 0.37992 0.0
S185 S 0.85925 0.39173 0.36763 0.0
N186 N 0.92439 0.3841 0.36883 0.0
N187 N 0.88566 0.47017 0.37065 0.0
C188 C 0.95053 0.49371 0.37266 0.0
C189 C 0.9717 0.44708 0.37184 0.0
C190 C 0.48593 0.05227 0.70958 0.0
C191 C 0.43862 0.98584 0.70732 0.0
C192 C 0.55257 0.07342 0.70921 0.0
C193 C 0.57454 0.02884 0.70716 0.0
H194 H 0.47142 0.08852 0.71185 0.0
H195 H 0.58693 0.12472 0.71151 0.0
S196 S 0.47128 0.8501 0.69874 0.0
N197 N 0.41901 0.87625 0.70122 0.0
N198 N 0.54383 0.91531 0.70109 0.0
C199 C 0.52786 0.96242 0.70411 0.0
C200 C 0.46006 0.94108 0.70401 0.0
C201 C 0.52779 0.57263 0.61447 0.0
C202 C 0.57505 0.55341 0.61638 0.0
C203 C 0.46115 0.52727 0.61538 0.0
C204 C 0.43912 0.46074 0.61762 0.0
H205 H 0.54233 0.62338 0.61204 0.0
H206 H 0.4268 0.54427 0.61325 0.0
S207 S 0.54225 0.38503 0.62535 0.0
N208 N 0.5946 0.46339 0.62245 0.0
N209 N 0.4697 0.37782 0.62352 0.0
C210 C 0.48576 0.4409 0.62037 0.0
C211 C 0.55359 0.48726 0.61996 0.0
C212 C 0.04926 0.48183 0.94792 0.0
C213 C 0.98277 0.43431 0.94804 0.0
C214 C 0.07014 0.54851 0.94775 0.0
C215 C 0.02531 0.57034 0.94701 0.0
H216 H 0.08576 0.46739 0.94785 0.0
H217 H 0.12163 0.58303 0.94734 0.0
S218 S 0.84572 0.46606 0.94834 0.0
N219 N 0.87248 0.4141 0.94867 0.0
N220 N 0.91093 0.53884 0.94771 0.0
C221 C 0.9586 0.52329 0.94769 0.0
C222 C 0.93751 0.45548 0.94841 0.0
C223 C 0.45525 0.96993 0.28289 0.0
C224 C 0.47438 0.03654 0.28304 0.0
C225 C 0.50088 0.94889 0.28289 0.0
C226 C 0.56751 0.99365 0.28239 0.0
H227 H 0.40434 0.93343 0.28265 0.0
H228 H 0.48381 0.89734 0.28238 0.0
S229 S 0.64333 0.17333 0.28439 0.0
N230 N 0.5647 0.14681 0.28426 0.0
N231 N 0.65062 0.10793 0.28365 0.0
C232 C 0.58736 0.06041 0.28322 0.0
C233 C 0.54083 0.0817 0.28373 0.0
C234 C 0.34729 0.10595 0.1623 0.0
C235 C 0.35609 0.14097 0.18875 0.0
C236 C 0.3452 0.13228 0.13465 0.0
C237 C 0.35085 0.19385 0.13281 0.0
H238 H 0.33492 0.05556 0.16328 0.0
H239 H 0.3316 0.10138 0.11507 0.0
S240 S 0.38416 0.30814 0.19514 0.0
N241 N 0.37941 0.24331 0.21113 0.0
N242 N 0.37364 0.29214 0.15898 0.0
C243 C 0.36681 0.23199 0.15861 0.0
C244 C 0.37 0.20558 0.18675 0.0
C245 C 0.22188 0.3619 0.46886 0.0
C246 C 0.16253 0.36091 0.46656 0.0
C247 C 0.24753 0.36059 0.49686 0.0
C248 C 0.21505 0.35961 0.52315 0.0
H249 H 0.24415 0.35521 0.44908 0.0
H250 H 0.28864 0.3529 0.49785 0.0
S251 S 0.06482 0.36868 0.52885 0.0
N252 N 0.07689 0.36767 0.49254 0.0
N253 N 0.12631 0.36751 0.54532 0.0
C254 C 0.16058 0.36747 0.52106 0.0
C255 C 0.13384 0.36754 0.49259 0.0
C256 C 0.77255 0.11665 0.82811 0.0
C257 C 0.8028 0.14757 0.80133 0.0
C258 C 0.80071 0.14403 0.8557 0.0
C259 C 0.8604 0.20226 0.85712 0.0
H260 H 0.73105 0.06803 0.82768 0.0
H261 H 0.77984 0.11564 0.87578 0.0
S262 S 0.95376 0.30574 0.79342 0.0
N263 N 0.89046 0.24318 0.7779 0.0
N264 N 0.94458 0.2935 0.82988 0.0
C265 C 0.88727 0.2368 0.8307 0.0
C266 C 0.85797 0.20961 0.80266 0.0
C267 C 0.65962 0.8526 0.13799 0.0
C268 C 0.66761 0.79792 0.13716 0.0
C269 C 0.66202 0.883 0.16519 0.0
C270 C 0.6709 0.85842 0.19216 0.0
H271 H 0.65994 0.87674 0.1174 0.0
H272 H 0.66407 0.92949 0.1648 0.0
S273 S 0.68233 0.7101 0.2021 0.0
N274 N 0.67625 0.71592 0.16558 0.0
N275 N 0.67818 0.77152 0.21686 0.0
C276 C 0.67031 0.79917 0.1918 0.0
C277 C 0.66927 0.76912 0.16416 0.0
C278 C 0.77978 0.65717 0.49615 0.0
C279 C 0.8084 0.66143 0.52408 0.0
C280 C 0.81177 0.65778 0.46977 0.0
C281 C 0.87387 0.66453 0.47074 0.0
H282 H 0.73624 0.66065 0.49461 0.0
H283 H 0.79168 0.66156 0.44862 0.0
S284 S 0.96449 0.66773 0.5384 0.0
N285 N 0.89721 0.66281 0.5513 0.0
N286 N 0.95874 0.66715 0.50158 0.0
C287 C 0.89946 0.66161 0.49846 0.0
C288 C 0.86615 0.65919 0.52527 0.0
C289 C 0.21082 0.86154 0.85403 0.0
C290 C 0.15048 0.80391 0.85457 0.0
C291 C 0.23947 0.89147 0.82689 0.0
C292 C 0.20914 0.8636 0.79968 0.0
H293 H 0.23182 0.88776 0.8746 0.0
H294 H 0.2815 0.93976 0.82729 0.0
S295 S 0.05697 0.70755 0.78924 0.0
N296 N 0.06577 0.71616 0.82588 0.0
N297 N 0.12096 0.77105 0.7747 0.0
C298 C 0.1534 0.8019 0.79996 0.0
C299 C 0.12353 0.77223 0.82756 0.0
C300 C 0.23869 0.00967 0.96326 0.0
C301 C 0.20491 0.94663 0.97557 0.0
C302 C 0.26704 0.06509 0.98154 0.0
C303 C 0.26196 0.05918 0.01275 0.0
H304 H 0.23771 0.01633 0.93934 0.0
H305 H 0.28617 0.1123 0.97117 0.0
S306 S 0.1898 0.90572 0.05603 0.0
N307 N 0.17706 0.882 0.02078 0.0
N308 N 0.22999 0.98582 0.0552 0.0
C309 C 0.23541 0.9966 0.02523 0.0
C310 C 0.20698 0.94028 0.00662 0.0
C311 C 0.21739 0.27457 0.31473 0.0
C312 C 0.21942 0.2717 0.34601 0.0
C313 C 0.24429 0.24547 0.29686 0.0
C314 C 0.27459 0.21318 0.30967 0.0
H315 H 0.18843 0.29238 0.30411 0.0
H316 H 0.23565 0.2426 0.27298 0.0
S317 S 0.30427 0.20479 0.39029 0.0
N318 N 0.26336 0.24391 0.38888 0.0
N319 N 0.31408 0.18967 0.35525 0.0
C320 C 0.28445 0.21781 0.34066 0.0
C321 C 0.25667 0.24695 0.35886 0.0
C322 C 0.94466 0.20979 0.64969 0.0
C323 C 0.95042 0.21029 0.6809 0.0
C324 C 1.00009 0.23709 0.63147 0.0
C325 C 0.06298 0.26621 0.64387 0.0
H326 H 0.89756 0.18175 0.63925 0.0
H327 H 0.99355 0.22969 0.60754 0.0
S328 S 0.10333 0.29244 0.7244 0.0
N329 N 0.02331 0.252 0.72347 0.0
N330 N 0.12729 0.30343 0.68918 0.0
C331 C 0.06915 0.27467 0.67493 0.0
C332 C 0.01278 0.2465 0.69348 0.0
C333 C 0.78796 0.00986 0.02783 0.0
C334 C 0.75735 0.94678 0.01553 0.0
C335 C 0.81441 0.06526 0.00954 0.0
C336 C 0.8117 0.05933 0.9783 0.0
H337 H 0.79683 0.0165 0.05167 0.0
H338 H 0.84327 0.11243 0.01981 0.0
S339 S 0.72635 0.90597 0.93519 0.0
N340 N 0.71724 0.88223 0.97042 0.0
N341 N 0.76729 0.98606 0.93598 0.0
C342 C 0.77461 0.99682 0.96593 0.0
C343 C 0.7472 0.9405 0.98457 0.0
C344 C 0.79348 0.7825 0.30277 0.0
C345 C 0.76696 0.81928 0.31446 0.0
C346 C 0.8218 0.75605 0.32147 0.0
C347 C 0.82531 0.76637 0.35246 0.0
H348 H 0.7977 0.77926 0.2788 0.0
H349 H 0.84704 0.73364 0.31131 0.0
S350 S 0.75256 0.84864 0.39455 0.0
N351 N 0.73755 0.85608 0.35917 0.0
N352 N 0.79087 0.80688 0.39439 0.0
C353 C 0.79238 0.79655 0.36461 0.0
C354 C 0.76305 0.82285 0.34558 0.0
C355 C 1.00072 0.77932 0.69159 0.0
C356 C 0.06353 0.81354 0.67917 0.0
C357 C 0.94521 0.75159 0.6734 0.0
C358 C 0.95083 0.75794 0.64221 0.0
H359 H 0.99433 0.77921 0.71557 0.0
H360 H 0.89811 0.73161 0.68391 0.0
S361 S 0.1037 0.83152 0.59857 0.0
N362 N 0.12773 0.84309 0.63379 0.0
N363 N 0.02369 0.79144 0.59955 0.0
C364 C 0.01321 0.78513 0.62953 0.0
C365 C 0.06962 0.8128 0.64804 0.0
C366 C 0.07614 0.23484 0.0125 0.0
C367 C 0.06923 0.23254 0.98124 0.0
C368 C 0.12866 0.23386 0.02592 0.0
C369 C 0.17644 0.23168 0.00844 0.0
H370 H 0.04198 0.23968 0.0267 0.0
H371 H 0.13368 0.23854 0.04999 0.0
S372 S 0.17637 0.21632 0.92601 0.0
N373 N 0.11085 0.22084 0.93338 0.0
N374 N 0.21037 0.22026 0.95869 0.0
C375 C 0.16809 0.22532 0.97733 0.0
C376 C 0.11412 0.22534 0.96368 0.0
C377 C 0.89862 0.12426 0.29667 0.0
C378 C 0.85229 0.07341 0.31427 0.0
C379 C 0.9514 0.17778 0.30993 0.0
C380 C 0.95993 0.18153 0.34112 0.0
H381 H 0.89204 0.12463 0.27273 0.0
H382 H 0.98425 0.21759 0.29572 0.0
S383 S 0.85744 0.05508 0.3963 0.0
N384 N 0.8218 0.02593 0.36383 0.0
N385 N 0.92178 0.12604 0.38885 0.0
C386 C 0.91671 0.12838 0.35868 0.0
C387 C 0.86252 0.07437 0.34519 0.0
C388 C 0.77625 0.84763 0.67782 0.0
C389 C 0.77743 0.84224 0.64657 0.0
C390 C 0.77797 0.90159 0.69109 0.0
C391 C 0.77986 0.95134 0.6735 0.0
H392 H 0.77162 0.80884 0.69214 0.0
H393 H 0.77402 0.90242 0.71519 0.0
S394 S 0.79275 0.96474 0.59096 0.0
N395 N 0.78799 0.8946 0.59852 0.0
N396 N 0.79005 0.99571 0.62358 0.0
C397 C 0.7853 0.94864 0.64236 0.0
C398 C 0.78446 0.8941 0.62884 0.0
C399 C 0.84352 0.77037 0.9782 0.0
C400 C 0.84089 0.77451 0.00947 0.0
C401 C 0.89672 0.77179 0.96424 0.0
C402 C 0.94843 0.77642 0.98118 0.0
H403 H 0.80315 0.7635 0.96444 0.0
H404 H 0.89544 0.76532 0.94023 0.0
S405 S 0.96976 0.79851 0.06319 0.0
N406 N 0.89828 0.79138 0.05662 0.0
N407 N 0.99785 0.79291 0.03027 0.0
C408 C 0.94856 0.78508 0.01221 0.0
C409 C 0.89483 0.7845 0.02641 0.0
C410 C 0.08734 0.85534 0.31634 0.0
C411 C 0.08253 0.8493 0.34761 0.0
C412 C 0.1399 0.90841 0.3028 0.0
C413 C 0.18991 0.95671 0.3201 0.0
H414 H 0.05145 0.81758 0.30216 0.0
H415 H 0.14302 0.9096 0.27864 0.0
S416 S 0.1957 0.96835 0.40278 0.0
N417 N 0.12838 0.89972 0.39554 0.0
N418 N 0.22804 0.99934 0.36996 0.0
C419 C 0.18363 0.95359 0.35136 0.0
C420 C 0.12957 0.89987 0.36518 0.0
C421 C 0.23554 0.11785 0.69265 0.0
C422 C 0.23305 0.06802 0.67494 0.0
C423 C 0.23527 0.17099 0.67952 0.0
C424 C 0.23154 0.17545 0.64831 0.0
H425 H 0.24164 0.11781 0.71664 0.0
H426 H 0.24072 0.21006 0.69386 0.0
S427 S 0.21233 0.05141 0.59273 0.0
N428 N 0.21858 0.02193 0.62517 0.0
N429 N 0.21699 0.12147 0.60037 0.0
C430 C 0.22343 0.12317 0.63059 0.0
C431 C 0.22458 0.06948 0.64396 0.0
loop_
_geom_bond_atom_site_label_1
_geom_bond_atom_site_label_2
_geom_bond_distance
_geom_bond_site_symmetry_2
_ccdc_geom_bond_type
Co0 O1 2.216 . S
Co0 O2 2.091 . S
Co0 O4 2.004 . S
Co0 O10 2.021 . S
Co0 O12 2.137 . S
Co0 O13 2.244 . S
O1 Co0 2.216 . S
O1 C8 1.247 . S
O2 Co0 2.091 . S
O2 C8 1.261 . S
C3 O12 1.247 . S
C3 O13 1.272 . S
O4 Co0 2.004 . S
O4 C9 1.259 . S
Co5 O6 2.061 . S
Co5 O11 2.052 . S
Co5 O13 2.135 . S
O6 Co5 2.061 . S
O6 C9 1.235 . S
C7 O10 1.238 . S
C7 O11 1.241 . S
C8 O1 1.247 . S
C8 O2 1.261 . S
C9 O4 1.259 . S
C9 O6 1.235 . S
O10 Co0 2.021 . S
O10 C7 1.238 . S
O11 Co5 2.052 . S
O11 C7 1.241 . S
O12 Co0 2.137 . S
O12 C3 1.247 . S
O13 Co0 2.244 . S
O13 C3 1.272 . S
O13 Co5 2.135 . S
Co14 O15 2.216 . S
Co14 O16 2.091 . S
Co14 O18 2.004 . S
Co14 O24 2.021 . S
Co14 O26 2.137 . S
Co14 O27 2.244 . S
O15 Co14 2.216 . S
O15 C22 1.247 . S
O16 Co14 2.091 . S
O16 C22 1.261 . S
C17 O26 1.247 1_655 S
C17 O27 1.272 1_655 S
O18 Co14 2.004 . S
O18 C23 1.259 . S
Co19 O20 2.061 . S
Co19 O25 2.052 . S
Co19 O27 2.135 . S
O20 Co19 2.061 . S
O20 C23 1.235 . S
C21 O24 1.238 . S
C21 O25 1.241 . S
C22 O15 1.247 . S
C22 O16 1.261 . S
C23 O18 1.259 . S
C23 O20 1.235 . S
O24 Co14 2.021 . S
O24 C21 1.238 . S
O25 Co19 2.052 . S
O25 C21 1.241 . S
O26 Co14 2.137 . S
O26 C17 1.247 1_455 S
O27 Co14 2.244 . S
O27 C17 1.272 1_455 S
O27 Co19 2.135 . S
Co28 O29 2.216 . S
Co28 O30 2.091 . S
Co28 O32 2.004 . S
Co28 O38 2.021 . S
Co28 O40 2.137 . S
Co28 O41 2.244 . S
O29 Co28 2.216 . S
O29 C36 1.247 . S
O30 Co28 2.091 . S
O30 C36 1.261 . S
C31 O40 1.247 1_565 S
C31 O41 1.272 1_565 S
O32 Co28 2.004 . S
O32 C37 1.259 . S
Co33 O34 2.061 . S
Co33 O39 2.052 . S
Co33 O41 2.135 . S
O34 Co33 2.061 . S
O34 C37 1.235 . S
C35 O38 1.238 . S
C35 O39 1.241 . S
C36 O29 1.247 . S
C36 O30 1.261 . S
C37 O32 1.259 . S
C37 O34 1.235 . S
O38 Co28 2.021 . S
O38 C35 1.238 . S
O39 Co33 2.052 . S
O39 C35 1.241 . S
O40 Co28 2.137 . S
O40 C31 1.247 1_545 S
O41 Co28 2.244 . S
O41 C31 1.272 1_545 S
O41 Co33 2.135 . S
Co42 O43 2.216 . S
Co42 O44 2.091 . S
Co42 O46 2.004 . S
Co42 O52 2.021 . S
Co42 O54 2.137 . S
Co42 O55 2.244 . S
O43 Co42 2.216 . S
O43 C50 1.247 . S
O44 Co42 2.091 . S
O44 C50 1.261 . S
C45 O54 1.247 . S
C45 O55 1.272 . S
O46 Co42 2.004 . S
O46 C51 1.259 . S
Co47 O48 2.061 . S
Co47 O53 2.052 . S
Co47 O55 2.135 . S
O48 Co47 2.061 . S
O48 C51 1.235 . S
C49 O52 1.238 . S
C49 O53 1.241 . S
C50 O43 1.247 . S
C50 O44 1.261 . S
C51 O46 1.259 . S
C51 O48 1.235 . S
O52 Co42 2.021 . S
O52 C49 1.238 . S
O53 Co47 2.052 . S
O53 C49 1.241 . S
O54 Co42 2.137 . S
O54 C45 1.247 . S
O55 Co42 2.244 . S
O55 C45 1.272 . S
O55 Co47 2.135 . S
Co56 O57 2.216 . S
Co56 O58 2.091 . S
Co56 O60 2.004 . S
Co56 O66 2.021 . S
Co56 O68 2.137 . S
Co56 O69 2.244 . S
O57 Co56 2.216 . S
O57 C64 1.247 . S
O58 Co56 2.091 . S
O58 C64 1.261 . S
C59 O68 1.247 1_455 S
C59 O69 1.272 1_455 S
O60 Co56 2.004 . S
O60 C65 1.259 . S
Co61 O62 2.061 . S
Co61 O67 2.052 . S
Co61 O69 2.135 . S
O62 Co61 2.061 . S
O62 C65 1.235 . S
C63 O66 1.238 . S
C63 O67 1.241 . S
C64 O57 1.247 . S
C64 O58 1.261 . S
C65 O60 1.259 . S
C65 O62 1.235 . S
O66 Co56 2.021 . S
O66 C63 1.238 . S
O67 Co61 2.052 . S
O67 C63 1.241 . S
O68 Co56 2.137 . S
O68 C59 1.247 1_655 S
O69 Co56 2.244 . S
O69 C59 1.272 1_655 S
O69 Co61 2.135 . S
Co70 O71 2.216 . S
Co70 O72 2.091 . S
Co70 O74 2.004 . S
Co70 O80 2.021 . S
Co70 O82 2.137 . S
Co70 O83 2.244 . S
O71 Co70 2.216 . S
O71 C78 1.247 . S
O72 Co70 2.091 . S
O72 C78 1.261 . S
C73 O82 1.247 1_545 S
C73 O83 1.272 1_545 S
O74 Co70 2.004 . S
O74 C79 1.259 . S
Co75 O76 2.061 . S
Co75 O81 2.052 . S
Co75 O83 2.135 . S
O76 Co75 2.061 . S
O76 C79 1.235 . S
C77 O80 1.238 . S
C77 O81 1.241 . S
C78 O71 1.247 . S
C78 O72 1.261 . S
C79 O74 1.259 . S
C79 O76 1.235 . S
O80 Co70 2.021 . S
O80 C77 1.238 . S
O81 Co75 2.052 . S
O81 C77 1.241 . S
O82 Co70 2.137 . S
O82 C73 1.247 1_565 S
O83 Co70 2.244 . S
O83 C73 1.272 1_565 S
O83 Co75 2.135 . S
Co84 O85 2.216 . S
Co84 O86 2.091 . S
Co84 O88 2.004 . S
Co84 O94 2.021 . S
Co84 O96 2.137 . S
Co84 O97 2.244 . S
O85 Co84 2.216 . S
O85 C92 1.247 . S
O86 Co84 2.091 . S
O86 C92 1.261 . S
C87 O96 1.247 . S
C87 O97 1.272 . S
O88 Co84 2.004 . S
O88 C93 1.259 . S
Co89 O90 2.061 . S
Co89 O95 2.052 . S
Co89 O97 2.135 . S
O90 Co89 2.061 . S
O90 C93 1.235 . S
C91 O94 1.238 . S
C91 O95 1.241 . S
C92 O85 1.247 . S
C92 O86 1.261 . S
C93 O88 1.259 . S
C93 O90 1.235 . S
O94 Co84 2.021 . S
O94 C91 1.238 . S
O95 Co89 2.052 . S
O95 C91 1.241 . S
O96 Co84 2.137 . S
O96 C87 1.247 . S
O97 Co84 2.244 . S
O97 C87 1.272 . S
O97 Co89 2.135 . S
Co98 O99 2.216 . S
Co98 O100 2.091 . S
Co98 O102 2.004 . S
Co98 O108 2.021 . S
Co98 O110 2.137 . S
Co98 O111 2.244 . S
O99 Co98 2.216 . S
O99 C106 1.247 . S
O100 Co98 2.091 . S
O100 C106 1.261 . S
C101 O110 1.247 1_655 S
C101 O111 1.272 1_655 S
O102 Co98 2.004 . S
O102 C107 1.259 . S
Co103 O104 2.061 . S
Co103 O109 2.052 . S
Co103 O111 2.135 . S
O104 Co103 2.061 . S
O104 C107 1.235 . S
C105 O108 1.238 . S
C105 O109 1.241 . S
C106 O99 1.247 . S
C106 O100 1.261 . S
C107 O102 1.259 . S
C107 O104 1.235 . S
O108 Co98 2.021 . S
O108 C105 1.238 . S
O109 Co103 2.052 . S
O109 C105 1.241 . S
O110 Co98 2.137 . S
O110 C101 1.247 1_455 S
O111 Co98 2.244 . S
O111 C101 1.272 1_455 S
O111 Co103 2.135 . S
Co112 O113 2.216 . S
Co112 O114 2.091 . S
Co112 O116 2.004 . S
Co112 O122 2.021 . S
Co112 O124 2.137 . S
Co112 O125 2.244 . S
O113 Co112 2.216 . S
O113 C120 1.247 . S
O114 Co112 2.091 . S
O114 C120 1.261 . S
C115 O124 1.247 1_565 S
C115 O125 1.272 1_565 S
O116 Co112 2.004 . S
O116 C121 1.259 . S
Co117 O118 2.061 . S
Co117 O123 2.052 . S
Co117 O125 2.135 . S
O118 Co117 2.061 . S
O118 C121 1.235 . S
C119 O122 1.238 . S
C119 O123 1.241 . S
C120 O113 1.247 . S
C120 O114 1.261 . S
C121 O116 1.259 . S
C121 O118 1.235 . S
O122 Co112 2.021 . S
O122 C119 1.238 . S
O123 Co117 2.052 . S
O123 C119 1.241 . S
O124 Co112 2.137 . S
O124 C115 1.247 1_545 S
O125 Co112 2.244 . S
O125 C115 1.272 1_545 S
O125 Co117 2.135 . S
Co126 O127 2.216 . S
Co126 O128 2.091 . S
Co126 O130 2.004 . S
Co126 O136 2.021 . S
Co126 O138 2.137 . S
Co126 O139 2.244 . S
O127 Co126 2.216 . S
O127 C134 1.247 . S
O128 Co126 2.091 . S
O128 C134 1.261 . S
C129 O138 1.247 . S
C129 O139 1.272 . S
O130 Co126 2.004 . S
O130 C135 1.259 . S
Co131 O132 2.061 . S
Co131 O137 2.052 . S
Co131 O139 2.135 . S
O132 Co131 2.061 . S
O132 C135 1.235 . S
C133 O136 1.238 . S
C133 O137 1.241 . S
C134 O127 1.247 . S
C134 O128 1.261 . S
C135 O130 1.259 . S
C135 O132 1.235 . S
O136 Co126 2.021 . S
O136 C133 1.238 . S
O137 Co131 2.052 . S
O137 C133 1.241 . S
O138 Co126 2.137 . S
O138 C129 1.247 . S
O139 Co126 2.244 . S
O139 C129 1.272 . S
O139 Co131 2.135 . S
Co140 O141 2.216 . S
Co140 O142 2.091 . S
Co140 O144 2.004 . S
Co140 O150 2.021 . S
Co140 O152 2.137 . S
Co140 O153 2.244 . S
O141 Co140 2.216 . S
O141 C148 1.247 . S
O142 Co140 2.091 . S
O142 C148 1.261 . S
C143 O152 1.247 1_455 S
C143 O153 1.272 1_455 S
O144 Co140 2.004 . S
O144 C149 1.259 . S
Co145 O146 2.061 . S
Co145 O151 2.052 . S
Co145 O153 2.135 . S
O146 Co145 2.061 . S
O146 C149 1.235 . S
C147 O150 1.238 . S
C147 O151 1.241 . S
C148 O141 1.247 . S
C148 O142 1.261 . S
C149 O144 1.259 . S
C149 O146 1.235 . S
O150 Co140 2.021 . S
O150 C147 1.238 . S
O151 Co145 2.052 . S
O151 C147 1.241 . S
O152 Co140 2.137 . S
O152 C143 1.247 1_655 S
O153 Co140 2.244 . S
O153 C143 1.272 1_655 S
O153 Co145 2.135 . S
Co154 O155 2.216 . S
Co154 O156 2.091 . S
Co154 O158 2.004 . S
Co154 O164 2.021 . S
Co154 O166 2.137 . S
Co154 O167 2.244 . S
O155 Co154 2.216 . S
O155 C162 1.247 . S
O156 Co154 2.091 . S
O156 C162 1.261 . S
C157 O166 1.247 1_545 S
C157 O167 1.272 1_545 S
O158 Co154 2.004 . S
O158 C163 1.259 . S
Co159 O160 2.061 . S
Co159 O165 2.052 . S
Co159 O167 2.135 . S
O160 Co159 2.061 . S
O160 C163 1.235 . S
C161 O164 1.238 . S
C161 O165 1.241 . S
C162 O155 1.247 . S
C162 O156 1.261 . S
C163 O158 1.259 . S
C163 O160 1.235 . S
O164 Co154 2.021 . S
O164 C161 1.238 . S
O165 Co159 2.052 . S
O165 C161 1.241 . S
O166 Co154 2.137 . S
O166 C157 1.247 1_565 S
O167 Co154 2.244 . S
O167 C157 1.272 1_565 S
O167 Co159 2.135 . S
C168 C169 1.369 . S
C168 C170 1.419 . S
C168 H172 0.930 . S
C169 C168 1.369 . S
C169 C178 1.429 . S
C170 C168 1.419 . S
C170 C171 1.363 . S
C170 H173 0.929 . S
C171 C170 1.363 . S
C171 C177 1.428 . S
H172 C168 0.930 . S
H173 C170 0.929 . S
S174 N175 1.613 . S
S174 N176 1.610 . S
N175 S174 1.613 . S
N175 C178 1.350 . S
N176 S174 1.610 . S
N176 C177 1.351 . S
C177 C171 1.428 . S
C177 N176 1.351 . S
C177 C178 1.434 . S
C178 C169 1.429 . S
C178 N175 1.350 . S
C178 C177 1.434 . S
C179 C180 1.369 . S
C179 C181 1.419 . S
C179 H183 0.930 . S
C180 C179 1.369 . S
C180 C189 1.429 1_455 S
C181 C179 1.419 . S
C181 C182 1.363 1_455 S
C181 H184 0.929 . S
C182 C181 1.363 1_655 S
C182 C188 1.428 . S
H183 C179 0.930 . S
H184 C181 0.929 . S
S185 N186 1.613 . S
S185 N187 1.610 . S
N186 S185 1.613 . S
N186 C189 1.350 . S
N187 S185 1.610 . S
N187 C188 1.351 . S
C188 C182 1.428 . S
C188 N187 1.351 . S
C188 C189 1.434 . S
C189 C180 1.429 1_655 S
C189 N186 1.350 . S
C189 C188 1.434 . S
C190 C191 1.369 1_545 S
C190 C192 1.419 . S
C190 H194 0.930 . S
C191 C190 1.369 1_565 S
C191 C200 1.429 . S
C192 C190 1.419 . S
C192 C193 1.363 . S
C192 H195 0.929 . S
C193 C192 1.363 . S
C193 C199 1.428 1_545 S
H194 C190 0.930 . S
H195 C192 0.929 . S
S196 N197 1.613 . S
S196 N198 1.610 . S
N197 S196 1.613 . S
N197 C200 1.350 . S
N198 S196 1.610 . S
N198 C199 1.351 . S
C199 C193 1.428 1_565 S
C199 N198 1.351 . S
C199 C200 1.434 . S
C200 C191 1.429 . S
C200 N197 1.350 . S
C200 C199 1.434 . S
C201 C202 1.369 . S
C201 C203 1.419 . S
C201 H205 0.930 . S
C202 C201 1.369 . S
C202 C211 1.429 . S
C203 C201 1.419 . S
C203 C204 1.363 . S
C203 H206 0.929 . S
C204 C203 1.363 . S
C204 C210 1.428 . S
H205 C201 0.930 . S
H206 C203 0.929 . S
S207 N208 1.613 . S
S207 N209 1.610 . S
N208 S207 1.613 . S
N208 C211 1.350 . S
N209 S207 1.610 . S
N209 C210 1.351 . S
C210 C204 1.428 . S
C210 N209 1.351 . S
C210 C211 1.434 . S
C211 C202 1.429 . S
C211 N208 1.350 . S
C211 C210 1.434 . S
C212 C213 1.369 . S
C212 C214 1.419 1_655 S
C212 H216 0.930 . S
C213 C212 1.369 . S
C213 C222 1.429 . S
C214 C212 1.419 1_455 S
C214 C215 1.363 . S
C214 H217 0.929 . S
C215 C214 1.363 . S
C215 C221 1.428 . S
H216 C212 0.930 . S
H217 C214 0.929 . S
S218 N219 1.613 . S
S218 N220 1.610 1_655 S
N219 S218 1.613 . S
N219 C222 1.350 . S
N220 S218 1.610 1_455 S
N220 C221 1.351 . S
C221 C215 1.428 . S
C221 N220 1.351 . S
C221 C222 1.434 1_455 S
C222 C213 1.429 . S
C222 N219 1.350 . S
C222 C221 1.434 1_655 S
C223 C224 1.369 1_565 S
C223 C225 1.419 . S
C223 H227 0.930 . S
C224 C223 1.369 1_545 S
C224 C233 1.429 . S
C225 C223 1.419 . S
C225 C226 1.363 . S
C225 H228 0.929 . S
C226 C225 1.363 . S
C226 C232 1.428 1_565 S
H227 C223 0.930 . S
H228 C225 0.929 . S
S229 N230 1.613 . S
S229 N231 1.610 . S
N230 S229 1.613 . S
N230 C233 1.350 . S
N231 S229 1.610 . S
N231 C232 1.351 . S
C232 C226 1.428 1_545 S
C232 N231 1.351 . S
C232 C233 1.434 . S
C233 C224 1.429 . S
C233 N230 1.350 . S
C233 C232 1.434 . S
C234 C235 1.369 . S
C234 C236 1.419 . S
C234 H238 0.930 . S
C235 C234 1.369 . S
C235 C244 1.429 . S
C236 C234 1.419 . S
C236 C237 1.363 . S
C236 H239 0.929 . S
C237 C236 1.363 . S
C237 C243 1.428 . S
H238 C234 0.930 . S
H239 C236 0.929 . S
S240 N241 1.613 . S
S240 N242 1.610 . S
N241 S240 1.613 . S
N241 C244 1.350 . S
N242 S240 1.610 . S
N242 C243 1.351 . S
C243 C237 1.428 . S
C243 N242 1.351 . S
C243 C244 1.434 . S
C244 C235 1.429 . S
C244 N241 1.350 . S
C244 C243 1.434 . S
C245 C246 1.369 . S
C245 C247 1.419 . S
C245 H249 0.930 . S
C246 C245 1.369 . S
C246 C255 1.429 . S
C247 C245 1.419 . S
C247 C248 1.363 . S
C247 H250 0.929 . S
C248 C247 1.363 . S
C248 C254 1.428 . S
H249 C245 0.930 . S
H250 C247 0.929 . S
S251 N252 1.613 . S
S251 N253 1.610 . S
N252 S251 1.613 . S
N252 C255 1.350 . S
N253 S251 1.610 . S
N253 C254 1.351 . S
C254 C248 1.428 . S
C254 N253 1.351 . S
C254 C255 1.434 . S
C255 C246 1.429 . S
C255 N252 1.350 . S
C255 C254 1.434 . S
C256 C257 1.369 . S
C256 C258 1.419 . S
C256 H260 0.930 . S
C257 C256 1.369 . S
C257 C266 1.429 . S
C258 C256 1.419 . S
C258 C259 1.363 . S
C258 H261 0.929 . S
C259 C258 1.363 . S
C259 C265 1.428 . S
H260 C256 0.930 . S
H261 C258 0.929 . S
S262 N263 1.613 . S
S262 N264 1.610 . S
N263 S262 1.613 . S
N263 C266 1.350 . S
N264 S262 1.610 . S
N264 C265 1.351 . S
C265 C259 1.428 . S
C265 N264 1.351 . S
C265 C266 1.434 . S
C266 C257 1.429 . S
C266 N263 1.350 . S
C266 C265 1.434 . S
C267 C268 1.369 . S
C267 C269 1.419 . S
C267 H271 0.930 . S
C268 C267 1.369 . S
C268 C277 1.429 . S
C269 C267 1.419 . S
C269 C270 1.363 . S
C269 H272 0.929 . S
C270 C269 1.363 . S
C270 C276 1.428 . S
H271 C267 0.930 . S
H272 C269 0.929 . S
S273 N274 1.613 . S
S273 N275 1.610 . S
N274 S273 1.613 . S
N274 C277 1.350 . S
N275 S273 1.610 . S
N275 C276 1.351 . S
C276 C270 1.428 . S
C276 N275 1.351 . S
C276 C277 1.434 . S
C277 C268 1.429 . S
C277 N274 1.350 . S
C277 C276 1.434 . S
C278 C279 1.369 . S
C278 C280 1.419 . S
C278 H282 0.930 . S
C279 C278 1.369 . S
C279 C288 1.429 . S
C280 C278 1.419 . S
C280 C281 1.363 . S
C280 H283 0.929 . S
C281 C280 1.363 . S
C281 C287 1.428 . S
H282 C278 0.930 . S
H283 C280 0.929 . S
S284 N285 1.613 . S
S284 N286 1.610 . S
N285 S284 1.613 . S
N285 C288 1.350 . S
N286 S284 1.610 . S
N286 C287 1.351 . S
C287 C281 1.428 . S
C287 N286 1.351 . S
C287 C288 1.434 . S
C288 C279 1.429 . S
C288 N285 1.350 . S
C288 C287 1.434 . S
C289 C290 1.369 . S
C289 C291 1.419 . S
C289 H293 0.930 . S
C290 C289 1.369 . S
C290 C299 1.429 . S
C291 C289 1.419 . S
C291 C292 1.363 . S
C291 H294 0.929 . S
C292 C291 1.363 . S
C292 C298 1.428 . S
H293 C289 0.930 . S
H294 C291 0.929 . S
S295 N296 1.613 . S
S295 N297 1.610 . S
N296 S295 1.613 . S
N296 C299 1.350 . S
N297 S295 1.610 . S
N297 C298 1.351 . S
C298 C292 1.428 . S
C298 N297 1.351 . S
C298 C299 1.434 . S
C299 C290 1.429 . S
C299 N296 1.350 . S
C299 C298 1.434 . S
C300 C301 1.369 . S
C300 C302 1.419 1_565 S
C300 H304 0.930 . S
C301 C300 1.369 . S
C301 C310 1.429 1_556 S
C302 C300 1.419 1_545 S
C302 C303 1.363 1_556 S
C302 H305 0.929 . S
C303 C302 1.363 1_554 S
C303 C309 1.428 . S
H304 C300 0.930 . S
H305 C302 0.929 . S
S306 N307 1.613 . S
S306 N308 1.610 1_565 S
N307 S306 1.613 . S
N307 C310 1.350 . S
N308 S306 1.610 1_545 S
N308 C309 1.351 . S
C309 C303 1.428 . S
C309 N308 1.351 . S
C309 C310 1.434 1_545 S
C310 C301 1.429 1_554 S
C310 N307 1.350 . S
C310 C309 1.434 1_565 S
C311 C312 1.369 . S
C311 C313 1.419 . S
C311 H315 0.930 . S
C312 C311 1.369 . S
C312 C321 1.429 . S
C313 C311 1.419 . S
C313 C314 1.363 . S
C313 H316 0.929 . S
C314 C313 1.363 . S
C314 C320 1.428 . S
H315 C311 0.930 . S
H316 C313 0.929 . S
S317 N318 1.613 . S
S317 N319 1.610 . S
N318 S317 1.613 . S
N318 C321 1.350 . S
N319 S317 1.610 . S
N319 C320 1.351 . S
C320 C314 1.428 . S
C320 N319 1.351 . S
C320 C321 1.434 . S
C321 C312 1.429 . S
C321 N318 1.350 . S
C321 C320 1.434 . S
C322 C323 1.369 . S
C322 C324 1.419 1_655 S
C322 H326 0.930 . S
C323 C322 1.369 . S
C323 C332 1.429 . S
C324 C322 1.419 1_455 S
C324 C325 1.363 . S
C324 H327 0.929 . S
C325 C324 1.363 . S
C325 C331 1.428 . S
H326 C322 0.930 . S
H327 C324 0.929 . S
S328 N329 1.613 1_455 S
S328 N330 1.610 . S
N329 S328 1.613 1_655 S
N329 C332 1.350 . S
N330 S328 1.610 . S
N330 C331 1.351 . S
C331 C325 1.428 . S
C331 N330 1.351 . S
C331 C332 1.434 1_455 S
C332 C323 1.429 . S
C332 N329 1.350 . S
C332 C331 1.434 1_655 S
C333 C334 1.369 . S
C333 C335 1.419 1_565 S
C333 H337 0.930 . S
C334 C333 1.369 . S
C334 C343 1.429 1_554 S
C335 C333 1.419 1_545 S
C335 C336 1.363 1_554 S
C335 H338 0.929 . S
C336 C335 1.363 1_556 S
C336 C342 1.428 . S
H337 C333 0.930 . S
H338 C335 0.929 . S
S339 N340 1.613 . S
S339 N341 1.610 1_565 S
N340 S339 1.613 . S
N340 C343 1.350 . S
N341 S339 1.610 1_545 S
N341 C342 1.351 . S
C342 C336 1.428 . S
C342 N341 1.351 . S
C342 C343 1.434 1_545 S
C343 C334 1.429 1_556 S
C343 N340 1.350 . S
C343 C342 1.434 1_565 S
C344 C345 1.369 . S
C344 C346 1.419 . S
C344 H348 0.930 . S
C345 C344 1.369 . S
C345 C354 1.429 . S
C346 C344 1.419 . S
C346 C347 1.363 . S
C346 H349 0.929 . S
C347 C346 1.363 . S
C347 C353 1.428 . S
H348 C344 0.930 . S
H349 C346 0.929 . S
S350 N351 1.613 . S
S350 N352 1.610 . S
N351 S350 1.613 . S
N351 C354 1.350 . S
N352 S350 1.610 . S
N352 C353 1.351 . S
C353 C347 1.428 . S
C353 N352 1.351 . S
C353 C354 1.434 . S
C354 C345 1.429 . S
C354 N351 1.350 . S
C354 C353 1.434 . S
C355 C356 1.369 . S
C355 C357 1.419 1_455 S
C355 H359 0.930 . S
C356 C355 1.369 . S
C356 C365 1.429 . S
C357 C355 1.419 1_655 S
C357 C358 1.363 . S
C357 H360 0.929 . S
C358 C357 1.363 . S
C358 C364 1.428 . S
H359 C355 0.930 . S
H360 C357 0.929 . S
S361 N362 1.613 . S
S361 N363 1.610 1_455 S
N362 S361 1.613 . S
N362 C365 1.350 . S
N363 S361 1.610 1_655 S
N363 C364 1.351 . S
C364 C358 1.428 . S
C364 N363 1.351 . S
C364 C365 1.434 1_655 S
C365 C356 1.429 . S
C365 N362 1.350 . S
C365 C364 1.434 1_455 S
C366 C367 1.369 1_554 S
C366 C368 1.419 . S
C366 H370 0.930 . S
C367 C366 1.369 1_556 S
C367 C376 1.429 . S
C368 C366 1.419 . S
C368 C369 1.363 . S
C368 H371 0.929 . S
C369 C368 1.363 . S
C369 C375 1.428 1_554 S
H370 C366 0.930 . S
H371 C368 0.929 . S
S372 N373 1.613 . S
S372 N374 1.610 . S
N373 S372 1.613 . S
N373 C376 1.350 . S
N374 S372 1.610 . S
N374 C375 1.351 . S
C375 C369 1.428 1_556 S
C375 N374 1.351 . S
C375 C376 1.434 . S
C376 C367 1.429 . S
C376 N373 1.350 . S
C376 C375 1.434 . S
C377 C378 1.369 . S
C377 C379 1.419 . S
C377 H381 0.930 . S
C378 C377 1.369 . S
C378 C387 1.429 . S
C379 C377 1.419 . S
C379 C380 1.363 . S
C379 H382 0.929 . S
C380 C379 1.363 . S
C380 C386 1.428 . S
H381 C377 0.930 . S
H382 C379 0.929 . S
S383 N384 1.613 . S
S383 N385 1.610 . S
N384 S383 1.613 . S
N384 C387 1.350 . S
N385 S383 1.610 . S
N385 C386 1.351 . S
C386 C380 1.428 . S
C386 N385 1.351 . S
C386 C387 1.434 . S
C387 C378 1.429 . S
C387 N384 1.350 . S
C387 C386 1.434 . S
C388 C389 1.369 . S
C388 C390 1.419 . S
C388 H392 0.930 . S
C389 C388 1.369 . S
C389 C398 1.429 . S
C390 C388 1.419 . S
C390 C391 1.363 . S
C390 H393 0.929 . S
C391 C390 1.363 . S
C391 C397 1.428 . S
H392 C388 0.930 . S
H393 C390 0.929 . S
S394 N395 1.613 . S
S394 N396 1.610 . S
N395 S394 1.613 . S
N395 C398 1.350 . S
N396 S394 1.610 . S
N396 C397 1.351 . S
C397 C391 1.428 . S
C397 N396 1.351 . S
C397 C398 1.434 . S
C398 C389 1.429 . S
C398 N395 1.350 . S
C398 C397 1.434 . S
C399 C400 1.369 1_556 S
C399 C401 1.419 . S
C399 H403 0.930 . S
C400 C399 1.369 1_554 S
C400 C409 1.429 . S
C401 C399 1.419 . S
C401 C402 1.363 . S
C401 H404 0.929 . S
C402 C401 1.363 . S
C402 C408 1.428 1_556 S
H403 C399 0.930 . S
H404 C401 0.929 . S
S405 N406 1.613 . S
S405 N407 1.610 . S
N406 S405 1.613 . S
N406 C409 1.350 . S
N407 S405 1.610 . S
N407 C408 1.351 . S
C408 C402 1.428 1_554 S
C408 N407 1.351 . S
C408 C409 1.434 . S
C409 C400 1.429 . S
C409 N406 1.350 . S
C409 C408 1.434 . S
C410 C411 1.369 . S
C410 C412 1.419 . S
C410 H414 0.930 . S
C411 C410 1.369 . S
C411 C420 1.429 . S
C412 C410 1.419 . S
C412 C413 1.363 . S
C412 H415 0.929 . S
C413 C412 1.363 . S
C413 C419 1.428 . S
H414 C410 0.930 . S
H415 C412 0.929 . S
S416 N417 1.613 . S
S416 N418 1.610 . S
N417 S416 1.613 . S
N417 C420 1.350 . S
N418 S416 1.610 . S
N418 C419 1.351 . S
C419 C413 1.428 . S
C419 N418 1.351 . S
C419 C420 1.434 . S
C420 C411 1.429 . S
C420 N417 1.350 . S
C420 C419 1.434 . S
C421 C422 1.369 . S
C421 C423 1.419 . S
C421 H425 0.930 . S
C422 C421 1.369 . S
C422 C431 1.429 . S
C423 C421 1.419 . S
C423 C424 1.363 . S
C423 H426 0.929 . S
C424 C423 1.363 . S
C424 C430 1.428 . S
H425 C421 0.930 . S
H426 C423 0.929 . S
S427 N428 1.613 . S
S427 N429 1.610 . S
N428 S427 1.613 . S
N428 C431 1.350 . S
N429 S427 1.610 . S
N429 C430 1.351 . S
C430 C424 1.428 . S
C430 N429 1.351 . S
C430 C431 1.434 . S
C431 C422 1.429 . S
C431 N428 1.350 . S
C431 C430 1.434 . S
C169 C50 1.454 . S
C171 C8 1.455 . S
C180 C22 1.450 . S
C182 C64 1.457 . S
C191 C78 1.457 . S
C193 C36 1.452 . S
C202 C92 1.458 . S
C204 C134 1.452 . S
C213 C148 1.454 . S
C215 C106 1.454 . S
C224 C120 1.455 . S
C226 C162 1.454 . S
C235 C119 1.558 . S
C237 C7 1.559 . S
C246 C21 1.560 . S
C248 C133 1.559 . S
C257 C35 1.557 . S
C259 C147 1.559 . S
C268 C49 1.556 . S
C270 C161 1.554 . S
C279 C91 1.552 . S
C281 C63 1.554 . S
C290 C105 1.559 . S
C292 C77 1.557 . S
C301 C107 1.275 . S
C303 C9 1.271 . S
C312 C23 1.280 . S
C314 C121 1.278 . S
C323 C37 1.275 . S
C325 C135 1.279 . S
C334 C51 1.280 . S
C336 C149 1.275 . S
C345 C163 1.269 . S
C347 C65 1.273 . S
C356 C79 1.273 . S
C358 C93 1.271 . S
C367 C143 1.495 . S
C369 C3 1.493 . S
C378 C157 1.493 . S
C380 C17 1.495 . S
C389 C87 1.493 . S
C391 C31 1.493 . S
C400 C45 1.495 . S
C402 C101 1.493 . S
C411 C59 1.495 . S
C413 C115 1.494 . S
C422 C73 1.493 . S
C424 C129 1.495 . S
