# Generated by pormake.
# Topology ukg, (4)-cn, num edge types: 1
# Building blocks:
#     Node 0, Type 0, BuildingBlock: KUFVIS_clean_sbu_0, # of connection points: 4
#     Node 1, Type 0, BuildingBlock: KUFVIS_clean_sbu_0, # of connection points: 4
#     Node 2, Type 0, BuildingBlock: KUFVIS_clean_sbu_0, # of connection points: 4
#     Node 3, Type 0, BuildingBlock: KUFVIS_clean_sbu_0, # of connection points: 4
#     Node 4, Type 0, BuildingBlock: KUFVIS_clean_sbu_0, # of connection points: 4
#     Node 5, Type 0, BuildingBlock: KUFVIS_clean_sbu_0, # of connection points: 4
#     Node 6, Type 0, BuildingBlock: KUFVIS_clean_sbu_0, # of connection points: 4
#     Node 7, Type 0, BuildingBlock: KUFVIS_clean_sbu_0, # of connection points: 4
#     Edge 8, Type (0, 0), None
#     Edge 9, Type (0, 0), None
#     Edge 10, Type (0, 0), None
#     Edge 11, Type (0, 0), None
#     Edge 12, Type (0, 0), None
#     Edge 13, Type (0, 0), None
#     Edge 14, Type (0, 0), None
#     Edge 15, Type (0, 0), None
#     Edge 16, Type (0, 0), None
#     Edge 17, Type (0, 0), None
#     Edge 18, Type (0, 0), None
#     Edge 19, Type (0, 0), None
#     Edge 20, Type (0, 0), None
#     Edge 21, Type (0, 0), None
#     Edge 22, Type (0, 0), None
#     Edge 23, Type (0, 0), None
# Relax obj value: 0.154
# Max RMSD: 0.253
# Mean RMSD: 0.253
data_MOF--net-ukg--node1-KUFVIS_clean_sbu_0--edge1-none
_symmetry_space_group_name_H-M    P1
_symmetry_Int_Tables_number       1
_symmetry_cell_setting            triclinic
loop_
_symmetry_equiv_pos_as_xyz
'x, y, z'
_cell_length_a     13.797419
_cell_length_b     13.797384
_cell_length_c     18.404049
_cell_angle_alpha  90.0001
_cell_angle_beta   90.000375
_cell_angle_gamma 90.000194
loop_
_atom_site_label
_atom_site_type_symbol
_atom_site_fract_x
_atom_site_fract_y
_atom_site_fract_z
_atom_type_partial_charge
Mn0 Mn 0.02452 0.6101 0.11365 0.0
Mn1 Mn 0.07369 0.75756 -0.01343 0.0
C2 C 0.97426 0.77408 0.13991 0.0
C3 C 0.86862 0.56579 0.1763 0.0
C4 C 0.20995 0.71812 0.09104 0.0
O5 O 0.05268 0.52433 0.01766 0.0
O6 O 0.02205 0.63492 -0.06496 0.0
C7 C 0.95381 0.79932 0.86407 0.0
N8 N 0.00682 0.83413 0.92058 0.0
C9 C 0.07363 0.96278 0.8479 0.0
C10 C 0.01674 0.92859 0.78935 0.0
C11 C 0.95944 0.84542 0.79696 0.0
C12 C 0.06977 0.90927 0.91135 0.0
H13 H 0.90955 0.73518 0.86989 0.0
C14 C 0.02184 0.54504 -0.04699 0.0
O15 O 0.93376 0.61931 0.2043 0.0
O16 O 0.88749 0.54855 0.10973 0.0
N17 N 0.11939 0.87807 0.0274 0.0
C18 C 0.14384 0.91411 0.09446 0.0
C19 C 0.20408 0.99601 0.09873 0.0
C20 C 0.23234 0.04283 0.03464 0.0
C21 C 0.18994 0.01394 -0.03107 0.0
C22 C 0.12912 0.93312 -0.03104 0.0
H23 H 0.13035 0.87475 0.14388 0.0
O24 O 0.98853 0.70802 0.18754 0.0
O25 O 0.97743 0.7426 0.07171 0.0
O26 O 0.16363 0.67971 0.14346 0.0
O27 O 0.1781 0.68855 0.03144 0.0
C28 C 0.19467 0.06958 0.90637 0.0
C29 C 0.13152 0.04827 0.84912 0.0
H30 H 0.01304 0.96285 0.7375 0.0
H31 H 0.91713 0.81883 0.75164 0.0
H32 H 0.23039 0.02102 0.15076 0.0
H33 H 0.27858 0.10619 0.03744 0.0
H34 H 0.23528 0.13689 0.90586 0.0
H35 H 0.11644 0.11001 0.81696 0.0
Mn36 Mn 0.39922 0.52453 0.61365 0.0
Mn37 Mn 0.25176 0.5737 0.48657 0.0
C38 C 0.23524 0.47426 0.63991 0.0
C39 C 0.44354 0.36863 0.6763 0.0
C40 C 0.2912 0.70995 0.59103 0.0
O41 O 0.48499 0.55269 0.51766 0.0
O42 O 0.3744 0.52205 0.43504 0.0
C43 C 0.21 0.45381 0.36407 0.0
N44 N 0.17519 0.50682 0.42058 0.0
C45 C 0.04654 0.57363 0.3479 0.0
C46 C 0.08073 0.51674 0.28935 0.0
C47 C 0.1639 0.45944 0.29696 0.0
C48 C 0.10006 0.56977 0.41135 0.0
H49 H 0.27414 0.40955 0.36989 0.0
C50 C 0.46428 0.52185 0.45301 0.0
O51 O 0.39001 0.43377 0.70431 0.0
O52 O 0.46077 0.3875 0.60973 0.0
N53 N 0.13125 0.6194 0.5274 0.0
C54 C 0.09521 0.64385 0.59446 0.0
C55 C 0.01331 0.70409 0.59873 0.0
C56 C 0.96649 0.73234 0.53464 0.0
C57 C 0.99538 0.68994 0.46893 0.0
C58 C 0.0762 0.62912 0.46896 0.0
H59 H 0.13457 0.63036 0.64387 0.0
O60 O 0.3013 0.48853 0.68754 0.0
O61 O 0.26672 0.47743 0.57172 0.0
O62 O 0.32961 0.66363 0.64346 0.0
O63 O 0.32077 0.6781 0.53144 0.0
C64 C 0.93974 0.69468 0.40637 0.0
C65 C 0.96105 0.63152 0.34912 0.0
H66 H 0.04647 0.51304 0.2375 0.0
H67 H 0.19049 0.41713 0.25165 0.0
H68 H 0.9883 0.73039 0.65076 0.0
H69 H 0.90313 0.77858 0.53744 0.0
H70 H 0.87243 0.73528 0.40586 0.0
H71 H 0.89931 0.61644 0.31696 0.0
Mn72 Mn 0.48479 0.89921 0.11365 0.0
Mn73 Mn 0.43562 0.75177 -0.01343 0.0
C74 C 0.53506 0.73523 0.13991 0.0
C75 C 0.64069 0.94353 0.1763 0.0
C76 C 0.29936 0.79121 0.09103 0.0
O77 O 0.45663 0.98499 0.01766 0.0
O78 O 0.48727 0.8744 -0.06496 0.0
C79 C 0.55551 0.71 0.86407 0.0
N80 N 0.50249 0.67519 0.92058 0.0
C81 C 0.43569 0.54654 0.8479 0.0
C82 C 0.49258 0.58072 0.78935 0.0
C83 C 0.54988 0.6639 0.79696 0.0
C84 C 0.43955 0.60006 0.91135 0.0
H85 H 0.59976 0.77414 0.8699 0.0
C86 C 0.48747 0.96428 -0.04699 0.0
O87 O 0.57556 0.89 0.20431 0.0
O88 O 0.62182 0.96077 0.10973 0.0
N89 N 0.38991 0.63125 0.0274 0.0
C90 C 0.36546 0.59522 0.09446 0.0
C91 C 0.30522 0.51332 0.09873 0.0
C92 C 0.27697 0.4665 0.03464 0.0
C93 C 0.31937 0.49538 -0.03107 0.0
C94 C 0.38019 0.5762 -0.03104 0.0
H95 H 0.37895 0.63458 0.14387 0.0
O96 O 0.52079 0.8013 0.18754 0.0
O97 O 0.53189 0.76672 0.07171 0.0
O98 O 0.34569 0.8296 0.14346 0.0
O99 O 0.33121 0.82077 0.03144 0.0
C100 C 0.31464 0.43974 0.90637 0.0
C101 C 0.37781 0.46105 0.84912 0.0
H102 H 0.49629 0.54646 0.7375 0.0
H103 H 0.5922 0.69049 0.75165 0.0
H104 H 0.27892 0.4883 0.15076 0.0
H105 H 0.23073 0.40313 0.03744 0.0
H106 H 0.27404 0.37243 0.90586 0.0
H107 H 0.39289 0.3993 0.81696 0.0
Mn108 Mn 0.11011 0.9848 0.61365 0.0
Mn109 Mn 0.25755 0.93562 0.48657 0.0
C110 C 0.27409 0.03506 0.63991 0.0
C111 C 0.06579 0.1407 0.6763 0.0
C112 C 0.21811 0.79936 0.59103 0.0
O113 O 0.02433 0.95663 0.51766 0.0
O114 O 0.13492 0.98727 0.43504 0.0
C115 C 0.29932 0.05551 0.36407 0.0
N116 N 0.33413 1.0025 0.42058 0.0
C117 C 0.46278 0.93569 0.3479 0.0
C118 C 0.42859 0.99258 0.28935 0.0
C119 C 0.34542 0.04988 0.29696 0.0
C120 C 0.40926 0.93955 0.41135 0.0
H121 H 0.23518 0.09976 0.36989 0.0
C122 C 0.04504 0.98748 0.45301 0.0
O123 O 0.11932 0.07556 0.7043 0.0
O124 O 0.04855 0.12182 0.60973 0.0
N125 N 0.37807 0.88992 0.5274 0.0
C126 C 0.4141 0.86547 0.59446 0.0
C127 C 0.496 0.80523 0.59873 0.0
C128 C 0.54282 0.77698 0.53464 0.0
C129 C 0.51394 0.81937 0.46893 0.0
C130 C 0.43311 0.88019 0.46896 0.0
H131 H 0.37474 0.87896 0.64387 0.0
O132 O 0.20802 0.0208 0.68754 0.0
O133 O 0.2426 0.03189 0.57171 0.0
O134 O 0.17972 0.8457 0.64346 0.0
O135 O 0.18855 0.83121 0.53144 0.0
C136 C 0.56958 0.81464 0.40637 0.0
C137 C 0.54827 0.8778 0.34912 0.0
H138 H 0.46285 0.99629 0.2375 0.0
H139 H 0.31883 0.0922 0.25165 0.0
H140 H 0.52102 0.77892 0.65076 0.0
H141 H 0.60619 0.73074 0.53744 0.0
H142 H 0.63689 0.77404 0.40586 0.0
H143 H 0.61001 0.89288 0.31696 0.0
Mn144 Mn 0.98483 0.39918 0.73589 0.0
Mn145 Mn 0.9356 0.25174 0.86297 0.0
C146 C 0.03513 0.23521 0.70964 0.0
C147 C 0.14078 0.44345 0.67328 0.0
C148 C 0.79938 0.2912 0.75848 0.0
O149 O 0.95665 0.48497 0.83186 0.0
O150 O 0.98725 0.37438 0.9145 0.0
C151 C 0.05545 0.20997 -0.01451 0.0
N152 N 1.00244 0.17517 -0.07102 0.0
C153 C 0.93562 0.04651 0.00164 0.0
C154 C 0.99251 0.08069 0.0602 0.0
C155 C 0.04982 0.16387 0.0526 0.0
C156 C 0.93949 0.10004 -0.0618 0.0
H157 H 0.09971 0.27411 -0.02033 0.0
C158 C 0.98747 0.46426 0.89652 0.0
O159 O 0.07562 0.38999 0.64524 0.0
O160 O 0.12187 0.46071 0.73984 0.0
N161 N 0.88989 0.13123 0.82214 0.0
C162 C 0.86545 0.0952 0.75508 0.0
C163 C 0.8052 0.0133 0.75081 0.0
C164 C 0.77693 0.96648 0.81489 0.0
C165 C 0.81932 0.99537 0.8806 0.0
C166 C 0.88014 0.07619 0.88058 0.0
H167 H 0.87895 0.13456 0.70567 0.0
O168 O 0.02085 0.30126 0.662 0.0
O169 O 0.03188 0.26669 0.77784 0.0
O170 O 0.84572 0.32959 0.70606 0.0
O171 O 0.83122 0.32076 0.81807 0.0
C172 C 0.81458 0.93973 -0.05684 0.0
C173 C 0.87773 0.96103 0.00042 0.0
H174 H 0.99622 0.04643 0.11205 0.0
H175 H 0.09213 0.19045 0.09791 0.0
H176 H 0.7789 0.98829 0.69877 0.0
H177 H 0.73069 0.90312 0.81208 0.0
H178 H 0.77396 0.87242 -0.05633 0.0
H179 H 0.89279 0.89928 0.03258 0.0
Mn180 Mn 0.61014 0.48483 0.23589 0.0
Mn181 Mn 0.75757 0.4356 0.36297 0.0
C182 C 0.77411 0.53513 0.20964 0.0
C183 C 0.56586 0.64078 0.17327 0.0
C184 C 0.71812 0.29938 0.25848 0.0
O185 O 0.52435 0.45666 0.33186 0.0
O186 O 0.63494 0.48725 0.4145 0.0
C187 C 0.79935 0.55545 0.48549 0.0
N188 N 0.83415 0.50245 0.42898 0.0
C189 C 0.96281 0.43563 0.50164 0.0
C190 C 0.92863 0.49252 0.5602 0.0
C191 C 0.84545 0.54982 0.55259 0.0
C192 C 0.90928 0.43949 0.4382 0.0
H193 H 0.73521 0.59971 0.47967 0.0
C194 C 0.54506 0.48747 0.39652 0.0
O195 O 0.61933 0.57562 0.14524 0.0
O196 O 0.5486 0.62187 0.23983 0.0
N197 N 0.87809 0.38989 0.32214 0.0
C198 C 0.91412 0.36545 0.25508 0.0
C199 C 0.99602 0.3052 0.25081 0.0
C200 C 0.04283 0.27694 0.31489 0.0
C201 C 0.01395 0.31932 0.3806 0.0
C202 C 0.93313 0.38015 0.38059 0.0
H203 H 0.87476 0.37895 0.20567 0.0
O204 O 0.70806 0.52084 0.162 0.0
O205 O 0.74263 0.53188 0.27784 0.0
O206 O 0.67973 0.34572 0.20606 0.0
O207 O 0.68855 0.33122 0.31807 0.0
C208 C 0.06959 0.31458 0.44317 0.0
C209 C 0.04829 0.37773 0.50042 0.0
H210 H 0.96289 0.49622 0.61205 0.0
H211 H 0.81887 0.59214 0.59791 0.0
H212 H 0.02102 0.2789 0.19877 0.0
H213 H 0.1062 0.23069 0.31209 0.0
H214 H 0.1369 0.27397 0.44367 0.0
H215 H 0.11004 0.3928 0.53258 0.0
Mn216 Mn 0.52449 0.11014 0.73589 0.0
Mn217 Mn 0.57373 0.25757 0.86297 0.0
C218 C 0.47419 0.27411 0.70964 0.0
C219 C 0.36854 0.06587 0.67327 0.0
C220 C 0.70995 0.21811 0.75848 0.0
O221 O 0.55266 0.02435 0.83186 0.0
O222 O 0.52207 0.13494 0.9145 0.0
C223 C 0.45387 0.29935 -0.01451 0.0
N224 N 0.50688 0.33415 -0.07103 0.0
C225 C 0.57369 0.46281 0.00164 0.0
C226 C 0.5168 0.42863 0.0602 0.0
C227 C 0.4595 0.34546 0.05259 0.0
C228 C 0.56983 0.40928 -0.0618 0.0
H229 H 0.40961 0.23521 -0.02033 0.0
C230 C 0.52185 0.04506 0.89652 0.0
O231 O 0.4337 0.11934 0.64524 0.0
O232 O 0.38745 0.04861 0.73983 0.0
N233 N 0.61944 0.37809 0.82214 0.0
C234 C 0.64388 0.41412 0.75508 0.0
C235 C 0.70413 0.49601 0.75081 0.0
C236 C 0.73239 0.54283 0.81489 0.0
C237 C 0.69 0.51395 0.8806 0.0
C238 C 0.62918 0.43313 0.88059 0.0
H239 H 0.63038 0.37475 0.70567 0.0
O240 O 0.48847 0.20806 0.662 0.0
O241 O 0.47744 0.24263 0.77784 0.0
O242 O 0.6636 0.17974 0.70606 0.0
O243 O 0.67811 0.18855 0.81808 0.0
C244 C 0.69474 0.5696 -0.05683 0.0
C245 C 0.63159 0.5483 0.00042 0.0
H246 H 0.51308 0.4629 0.11204 0.0
H247 H 0.41718 0.31888 0.0979 0.0
H248 H 0.73042 0.52102 0.69878 0.0
H249 H 0.77863 0.6062 0.81209 0.0
H250 H 0.73535 0.63691 -0.05633 0.0
H251 H 0.61652 0.61004 0.03258 0.0
Mn252 Mn 0.89918 0.02449 0.23589 0.0
Mn253 Mn 0.75174 0.07373 0.36297 0.0
C254 C 0.73521 0.97419 0.20964 0.0
C255 C 0.94345 0.86854 0.17328 0.0
C256 C 0.79121 0.20995 0.25848 0.0
O257 O 0.98497 0.05267 0.33186 0.0
O258 O 0.87438 0.02207 0.4145 0.0
C259 C 0.70997 0.95387 0.48549 0.0
N260 N 0.67517 0.00688 0.42898 0.0
C261 C 0.54651 0.07369 0.50164 0.0
C262 C 0.58069 0.0168 0.5602 0.0
C263 C 0.66386 0.9595 0.55259 0.0
C264 C 0.60004 0.06983 0.4382 0.0
H265 H 0.77411 0.90961 0.47967 0.0
C266 C 0.96426 0.02185 0.39652 0.0
O267 O 0.88998 0.9337 0.14524 0.0
O268 O 0.96071 0.88745 0.23984 0.0
N269 N 0.63123 0.11944 0.32214 0.0
C270 C 0.5952 0.14388 0.25508 0.0
C271 C 0.51331 0.20412 0.25081 0.0
C272 C 0.46649 0.23239 0.31489 0.0
C273 C 0.49537 0.19 0.3806 0.0
C274 C 0.57619 0.12918 0.38058 0.0
H275 H 0.63457 0.13038 0.20567 0.0
O276 O 0.80126 0.98847 0.162 0.0
O277 O 0.76669 0.97744 0.27784 0.0
O278 O 0.82958 0.1636 0.20606 0.0
O279 O 0.82077 0.17811 0.31808 0.0
C280 C 0.43973 0.19474 0.44316 0.0
C281 C 0.46103 0.13159 0.50042 0.0
H282 H 0.54642 0.01309 0.61204 0.0
H283 H 0.69044 0.91718 0.59791 0.0
H284 H 0.4883 0.23042 0.19877 0.0
H285 H 0.40312 0.27863 0.31208 0.0
H286 H 0.37242 0.23536 0.44367 0.0
H287 H 0.39928 0.11653 0.53258 0.0
loop_
_geom_bond_atom_site_label_1
_geom_bond_atom_site_label_2
_geom_bond_distance
_geom_bond_site_symmetry_2
_ccdc_geom_bond_type
Mn0 O5 2.095 . S
Mn0 O15 2.162 1_455 S
Mn0 O16 2.297 1_455 S
Mn0 O24 2.385 1_455 S
Mn0 O25 2.209 1_455 S
Mn0 O26 2.094 . S
Mn1 O6 2.121 1_554 S
Mn1 N8 2.257 1_454 S
Mn1 N17 2.282 . S
Mn1 O25 2.215 1_455 S
Mn1 O27 2.117 . S
C2 O24 1.234 . S
C2 O25 1.283 . S
C3 O15 1.281 . S
C3 O16 1.236 . S
C4 O26 1.240 . S
C4 O27 1.264 . S
O5 Mn0 2.095 . S
O5 C14 1.241 1_554 S
O6 Mn1 2.121 1_556 S
O6 C14 1.262 . S
C7 N8 1.326 . S
C7 C11 1.460 . S
C7 H13 0.929 . S
N8 Mn1 2.257 1_656 S
N8 C7 1.326 . S
N8 C12 1.362 . S
C9 C10 1.258 . S
C9 C12 1.431 1_545 S
C9 C29 1.449 . S
C10 C9 1.258 . S
C10 C11 1.477 1_545 S
C10 H30 0.931 . S
C11 C7 1.460 . S
C11 C10 1.477 1_565 S
C11 H31 0.930 . S
C12 N8 1.362 . S
C12 C9 1.431 1_565 S
C12 C22 1.476 1_666 S
H13 C7 0.929 . S
C14 O5 1.241 1_556 S
C14 O6 1.262 . S
O15 Mn0 2.162 1_655 S
O15 C3 1.281 . S
O16 Mn0 2.297 1_655 S
O16 C3 1.236 . S
N17 Mn1 2.282 . S
N17 C18 1.328 . S
N17 C22 1.318 1_565 S
C18 N17 1.328 . S
C18 C19 1.457 1_565 S
C18 H23 0.929 . S
C19 C18 1.457 1_545 S
C19 C20 1.291 . S
C19 H32 0.931 . S
C20 C19 1.291 . S
C20 C21 1.373 . S
C20 H33 0.929 . S
C21 C20 1.373 . S
C21 C22 1.396 . S
C21 C28 1.403 1_455 S
C22 C12 1.476 1_444 S
C22 N17 1.318 1_545 S
C22 C21 1.396 . S
H23 C18 0.929 . S
O24 Mn0 2.385 1_655 S
O24 C2 1.234 . S
O25 Mn0 2.209 1_655 S
O25 Mn1 2.215 1_655 S
O25 C2 1.283 . S
O26 Mn0 2.094 . S
O26 C4 1.240 . S
O27 Mn1 2.117 . S
O27 C4 1.264 . S
C28 C21 1.403 1_655 S
C28 C29 1.399 1_554 S
C28 H34 0.929 . S
C29 C9 1.449 . S
C29 C28 1.399 1_556 S
C29 H35 0.930 . S
H30 C10 0.931 . S
H31 C11 0.930 . S
H32 C19 0.931 . S
H33 C20 0.929 . S
H34 C28 0.929 . S
H35 C29 0.930 . S
Mn36 O41 2.095 . S
Mn36 O51 2.162 . S
Mn36 O52 2.297 . S
Mn36 O60 2.385 . S
Mn36 O61 2.209 . S
Mn36 O62 2.094 . S
Mn37 O42 2.121 . S
Mn37 N44 2.257 . S
Mn37 N53 2.282 . S
Mn37 O61 2.215 . S
Mn37 O63 2.117 . S
C38 O60 1.234 . S
C38 O61 1.283 . S
C39 O51 1.281 . S
C39 O52 1.236 . S
C40 O62 1.240 . S
C40 O63 1.264 . S
O41 Mn36 2.095 . S
O41 C50 1.250 . S
O42 Mn37 2.121 . S
O42 C50 1.258 . S
C43 N44 1.326 . S
C43 C47 1.460 . S
C43 H49 0.929 . S
N44 Mn37 2.257 . S
N44 C43 1.326 . S
N44 C48 1.362 . S
C45 C46 1.258 . S
C45 C48 1.431 1_655 S
C45 C65 1.449 . S
C46 C45 1.258 . S
C46 C47 1.477 1_655 S
C46 H66 0.931 . S
C47 C43 1.460 . S
C47 C46 1.477 1_455 S
C47 H67 0.930 . S
C48 N44 1.362 . S
C48 C45 1.431 1_455 S
C48 C58 1.476 1_455 S
H49 C43 0.929 . S
C50 O41 1.250 . S
C50 O42 1.258 . S
O51 Mn36 2.162 . S
O51 C39 1.281 . S
O52 Mn36 2.297 . S
O52 C39 1.236 . S
N53 Mn37 2.282 . S
N53 C54 1.328 . S
N53 C58 1.318 1_455 S
C54 N53 1.328 . S
C54 C55 1.457 1_455 S
C54 H59 0.929 . S
C55 C54 1.457 1_655 S
C55 C56 1.291 . S
C55 H68 0.931 . S
C56 C55 1.291 . S
C56 C57 1.373 . S
C56 H69 0.929 . S
C57 C56 1.373 . S
C57 C58 1.396 . S
C57 C64 1.403 . S
C58 C48 1.476 1_655 S
C58 N53 1.318 1_655 S
C58 C57 1.396 . S
H59 C54 0.929 . S
O60 Mn36 2.385 . S
O60 C38 1.234 . S
O61 Mn36 2.209 . S
O61 Mn37 2.215 . S
O61 C38 1.283 . S
O62 Mn36 2.094 . S
O62 C40 1.240 . S
O63 Mn37 2.117 . S
O63 C40 1.264 . S
C64 C57 1.403 . S
C64 C65 1.399 . S
C64 H70 0.929 . S
C65 C45 1.449 . S
C65 C64 1.399 . S
C65 H71 0.930 . S
H66 C46 0.931 . S
H67 C47 0.930 . S
H68 C55 0.931 . S
H69 C56 0.929 . S
H70 C64 0.929 . S
H71 C65 0.930 . S
Mn72 O77 2.095 . S
Mn72 O87 2.162 . S
Mn72 O88 2.297 . S
Mn72 O96 2.385 . S
Mn72 O97 2.209 . S
Mn72 O98 2.094 . S
Mn73 O78 2.121 1_554 S
Mn73 N80 2.257 1_554 S
Mn73 N89 2.282 . S
Mn73 O97 2.215 . S
Mn73 O99 2.117 . S
C74 O96 1.234 . S
C74 O97 1.283 . S
C75 O87 1.281 . S
C75 O88 1.236 . S
C76 O98 1.240 . S
C76 O99 1.264 . S
O77 Mn72 2.095 . S
O77 C86 1.241 1_554 S
O78 Mn73 2.121 1_556 S
O78 C86 1.262 . S
C79 N80 1.326 . S
C79 C83 1.460 . S
C79 H85 0.929 . S
N80 Mn73 2.257 1_556 S
N80 C79 1.326 . S
N80 C84 1.362 . S
C81 C82 1.258 . S
C81 C84 1.431 . S
C81 C101 1.449 . S
C82 C81 1.258 . S
C82 C83 1.477 . S
C82 H102 0.931 . S
C83 C79 1.460 . S
C83 C82 1.477 . S
C83 H103 0.930 . S
C84 N80 1.362 . S
C84 C81 1.431 . S
C84 C94 1.476 1_556 S
H85 C79 0.929 . S
C86 O77 1.241 1_556 S
C86 O78 1.262 . S
O87 Mn72 2.162 . S
O87 C75 1.281 . S
O88 Mn72 2.297 . S
O88 C75 1.236 . S
N89 Mn73 2.282 . S
N89 C90 1.328 . S
N89 C94 1.318 . S
C90 N89 1.328 . S
C90 C91 1.457 . S
C90 H95 0.929 . S
C91 C90 1.457 . S
C91 C92 1.291 . S
C91 H104 0.931 . S
C92 C91 1.291 . S
C92 C93 1.373 . S
C92 H105 0.929 . S
C93 C92 1.373 . S
C93 C94 1.396 . S
C93 C100 1.403 . S
C94 C84 1.476 1_554 S
C94 N89 1.318 . S
C94 C93 1.396 . S
H95 C90 0.929 . S
O96 Mn72 2.385 . S
O96 C74 1.234 . S
O97 Mn72 2.209 . S
O97 Mn73 2.215 . S
O97 C74 1.283 . S
O98 Mn72 2.094 . S
O98 C76 1.240 . S
O99 Mn73 2.117 . S
O99 C76 1.264 . S
C100 C93 1.403 . S
C100 C101 1.399 1_554 S
C100 H106 0.929 . S
C101 C81 1.449 . S
C101 C100 1.399 1_556 S
C101 H107 0.930 . S
H102 C82 0.931 . S
H103 C83 0.930 . S
H104 C91 0.931 . S
H105 C92 0.929 . S
H106 C100 0.929 . S
H107 C101 0.930 . S
Mn108 O113 2.095 . S
Mn108 O123 2.162 1_565 S
Mn108 O124 2.297 1_565 S
Mn108 O132 2.385 1_565 S
Mn108 O133 2.209 1_565 S
Mn108 O134 2.094 . S
Mn109 O114 2.121 . S
Mn109 N116 2.257 1_565 S
Mn109 N125 2.282 . S
Mn109 O133 2.215 1_565 S
Mn109 O135 2.117 . S
C110 O132 1.234 . S
C110 O133 1.283 . S
C111 O123 1.281 . S
C111 O124 1.236 . S
C112 O134 1.240 . S
C112 O135 1.264 . S
O113 Mn108 2.095 . S
O113 C122 1.250 . S
O114 Mn109 2.121 . S
O114 C122 1.258 . S
C115 N116 1.326 . S
C115 C119 1.460 . S
C115 H121 0.929 . S
N116 Mn109 2.257 1_545 S
N116 C115 1.326 . S
N116 C120 1.362 . S
C117 C118 1.258 . S
C117 C120 1.431 . S
C117 C137 1.449 . S
C118 C117 1.258 . S
C118 C119 1.477 . S
C118 H138 0.931 . S
C119 C115 1.460 . S
C119 C118 1.477 . S
C119 H139 0.930 . S
C120 N116 1.362 . S
C120 C117 1.431 . S
C120 C130 1.476 1_545 S
H121 C115 0.929 . S
C122 O113 1.250 . S
C122 O114 1.258 . S
O123 Mn108 2.162 1_545 S
O123 C111 1.281 . S
O124 Mn108 2.297 1_545 S
O124 C111 1.236 . S
N125 Mn109 2.282 . S
N125 C126 1.328 . S
N125 C130 1.318 . S
C126 N125 1.328 . S
C126 C127 1.457 . S
C126 H131 0.929 . S
C127 C126 1.457 . S
C127 C128 1.291 . S
C127 H140 0.931 . S
C128 C127 1.291 . S
C128 C129 1.373 . S
C128 H141 0.929 . S
C129 C128 1.373 . S
C129 C130 1.396 . S
C129 C136 1.403 1_565 S
C130 C120 1.476 1_565 S
C130 N125 1.318 . S
C130 C129 1.396 . S
H131 C126 0.929 . S
O132 Mn108 2.385 1_545 S
O132 C110 1.234 . S
O133 Mn108 2.209 1_545 S
O133 Mn109 2.215 1_545 S
O133 C110 1.283 . S
O134 Mn108 2.094 . S
O134 C112 1.240 . S
O135 Mn109 2.117 . S
O135 C112 1.264 . S
C136 C129 1.403 1_545 S
C136 C137 1.399 . S
C136 H142 0.929 . S
C137 C117 1.449 . S
C137 C136 1.399 . S
C137 H143 0.930 . S
H138 C118 0.931 . S
H139 C119 0.930 . S
H140 C127 0.931 . S
H141 C128 0.929 . S
H142 C136 0.929 . S
H143 C137 0.930 . S
Mn144 O149 2.095 . S
Mn144 O159 2.162 1_655 S
Mn144 O160 2.297 1_655 S
Mn144 O168 2.385 1_655 S
Mn144 O169 2.209 1_655 S
Mn144 O170 2.094 . S
Mn145 O150 2.121 1_556 S
Mn145 N152 2.257 1_656 S
Mn145 N161 2.282 . S
Mn145 O169 2.215 1_655 S
Mn145 O171 2.117 . S
C146 O168 1.234 . S
C146 O169 1.283 . S
C147 O159 1.281 . S
C147 O160 1.236 . S
C148 O170 1.240 . S
C148 O171 1.264 . S
O149 Mn144 2.095 . S
O149 C158 1.241 1_556 S
O150 Mn145 2.121 1_554 S
O150 C158 1.262 . S
C151 N152 1.326 . S
C151 C155 1.460 . S
C151 H157 0.929 . S
N152 Mn145 2.257 1_454 S
N152 C151 1.326 . S
N152 C156 1.362 . S
C153 C154 1.258 . S
C153 C156 1.431 1_565 S
C153 C173 1.449 . S
C154 C153 1.258 . S
C154 C155 1.477 1_565 S
C154 H174 0.931 . S
C155 C151 1.460 . S
C155 C154 1.477 1_545 S
C155 H175 0.930 . S
C156 N152 1.362 . S
C156 C153 1.431 1_545 S
C156 C166 1.476 1_444 S
H157 C151 0.929 . S
C158 O149 1.241 1_554 S
C158 O150 1.262 . S
O159 Mn144 2.162 1_455 S
O159 C147 1.281 . S
O160 Mn144 2.297 1_455 S
O160 C147 1.236 . S
N161 Mn145 2.282 . S
N161 C162 1.328 . S
N161 C166 1.318 1_545 S
C162 N161 1.328 . S
C162 C163 1.457 1_545 S
C162 H167 0.929 . S
C163 C162 1.457 1_565 S
C163 C164 1.291 . S
C163 H176 0.931 . S
C164 C163 1.291 . S
C164 C165 1.373 . S
C164 H177 0.929 . S
C165 C164 1.373 . S
C165 C166 1.396 . S
C165 C172 1.403 1_655 S
C166 C156 1.476 1_666 S
C166 N161 1.318 1_565 S
C166 C165 1.396 . S
H167 C162 0.929 . S
O168 Mn144 2.385 1_455 S
O168 C146 1.234 . S
O169 Mn144 2.209 1_455 S
O169 Mn145 2.215 1_455 S
O169 C146 1.283 . S
O170 Mn144 2.094 . S
O170 C148 1.240 . S
O171 Mn145 2.117 . S
O171 C148 1.264 . S
C172 C165 1.403 1_455 S
C172 C173 1.399 1_556 S
C172 H178 0.929 . S
C173 C153 1.449 . S
C173 C172 1.399 1_554 S
C173 H179 0.930 . S
H174 C154 0.931 . S
H175 C155 0.930 . S
H176 C163 0.931 . S
H177 C164 0.929 . S
H178 C172 0.929 . S
H179 C173 0.930 . S
Mn180 O185 2.095 . S
Mn180 O195 2.162 . S
Mn180 O196 2.297 . S
Mn180 O204 2.385 . S
Mn180 O205 2.209 . S
Mn180 O206 2.094 . S
Mn181 O186 2.121 . S
Mn181 N188 2.257 . S
Mn181 N197 2.282 . S
Mn181 O205 2.215 . S
Mn181 O207 2.117 . S
C182 O204 1.234 . S
C182 O205 1.283 . S
C183 O195 1.281 . S
C183 O196 1.236 . S
C184 O206 1.240 . S
C184 O207 1.264 . S
O185 Mn180 2.095 . S
O185 C194 1.250 . S
O186 Mn181 2.121 . S
O186 C194 1.258 . S
C187 N188 1.326 . S
C187 C191 1.460 . S
C187 H193 0.929 . S
N188 Mn181 2.257 . S
N188 C187 1.326 . S
N188 C192 1.362 . S
C189 C190 1.258 . S
C189 C192 1.431 1_455 S
C189 C209 1.449 . S
C190 C189 1.258 . S
C190 C191 1.477 1_455 S
C190 H210 0.931 . S
C191 C187 1.460 . S
C191 C190 1.477 1_655 S
C191 H211 0.930 . S
C192 N188 1.362 . S
C192 C189 1.431 1_655 S
C192 C202 1.476 1_655 S
H193 C187 0.929 . S
C194 O185 1.250 . S
C194 O186 1.258 . S
O195 Mn180 2.162 . S
O195 C183 1.281 . S
O196 Mn180 2.297 . S
O196 C183 1.236 . S
N197 Mn181 2.282 . S
N197 C198 1.328 . S
N197 C202 1.318 1_655 S
C198 N197 1.328 . S
C198 C199 1.457 1_655 S
C198 H203 0.929 . S
C199 C198 1.457 1_455 S
C199 C200 1.291 . S
C199 H212 0.931 . S
C200 C199 1.291 . S
C200 C201 1.373 . S
C200 H213 0.929 . S
C201 C200 1.373 . S
C201 C202 1.396 . S
C201 C208 1.403 . S
C202 C192 1.476 1_455 S
C202 N197 1.318 1_455 S
C202 C201 1.396 . S
H203 C198 0.929 . S
O204 Mn180 2.385 . S
O204 C182 1.234 . S
O205 Mn180 2.209 . S
O205 Mn181 2.215 . S
O205 C182 1.283 . S
O206 Mn180 2.094 . S
O206 C184 1.240 . S
O207 Mn181 2.117 . S
O207 C184 1.264 . S
C208 C201 1.403 . S
C208 C209 1.399 . S
C208 H214 0.929 . S
C209 C189 1.449 . S
C209 C208 1.399 . S
C209 H215 0.930 . S
H210 C190 0.931 . S
H211 C191 0.930 . S
H212 C199 0.931 . S
H213 C200 0.929 . S
H214 C208 0.929 . S
H215 C209 0.930 . S
Mn216 O221 2.095 . S
Mn216 O231 2.162 . S
Mn216 O232 2.297 . S
Mn216 O240 2.385 . S
Mn216 O241 2.209 . S
Mn216 O242 2.094 . S
Mn217 O222 2.121 1_556 S
Mn217 N224 2.257 1_556 S
Mn217 N233 2.282 . S
Mn217 O241 2.215 . S
Mn217 O243 2.117 . S
C218 O240 1.234 . S
C218 O241 1.283 . S
C219 O231 1.281 . S
C219 O232 1.236 . S
C220 O242 1.240 . S
C220 O243 1.264 . S
O221 Mn216 2.095 . S
O221 C230 1.241 1_556 S
O222 Mn217 2.121 1_554 S
O222 C230 1.262 . S
C223 N224 1.326 . S
C223 C227 1.460 . S
C223 H229 0.929 . S
N224 Mn217 2.257 1_554 S
N224 C223 1.326 . S
N224 C228 1.362 . S
C225 C226 1.258 . S
C225 C228 1.431 . S
C225 C245 1.449 . S
C226 C225 1.258 . S
C226 C227 1.477 . S
C226 H246 0.931 . S
C227 C223 1.460 . S
C227 C226 1.477 . S
C227 H247 0.930 . S
C228 N224 1.362 . S
C228 C225 1.431 . S
C228 C238 1.476 1_554 S
H229 C223 0.929 . S
C230 O221 1.241 1_554 S
C230 O222 1.262 . S
O231 Mn216 2.162 . S
O231 C219 1.281 . S
O232 Mn216 2.297 . S
O232 C219 1.236 . S
N233 Mn217 2.282 . S
N233 C234 1.328 . S
N233 C238 1.318 . S
C234 N233 1.328 . S
C234 C235 1.457 . S
C234 H239 0.929 . S
C235 C234 1.457 . S
C235 C236 1.291 . S
C235 H248 0.931 . S
C236 C235 1.291 . S
C236 C237 1.373 . S
C236 H249 0.929 . S
C237 C236 1.373 . S
C237 C238 1.396 . S
C237 C244 1.403 . S
C238 C228 1.476 1_556 S
C238 N233 1.318 . S
C238 C237 1.396 . S
H239 C234 0.929 . S
O240 Mn216 2.385 . S
O240 C218 1.234 . S
O241 Mn216 2.209 . S
O241 Mn217 2.215 . S
O241 C218 1.283 . S
O242 Mn216 2.094 . S
O242 C220 1.240 . S
O243 Mn217 2.117 . S
O243 C220 1.264 . S
C244 C237 1.403 . S
C244 C245 1.399 1_556 S
C244 H250 0.929 . S
C245 C225 1.449 . S
C245 C244 1.399 1_554 S
C245 H251 0.930 . S
H246 C226 0.931 . S
H247 C227 0.930 . S
H248 C235 0.931 . S
H249 C236 0.929 . S
H250 C244 0.929 . S
H251 C245 0.930 . S
Mn252 O257 2.095 . S
Mn252 O267 2.162 1_545 S
Mn252 O268 2.297 1_545 S
Mn252 O276 2.385 1_545 S
Mn252 O277 2.209 1_545 S
Mn252 O278 2.094 . S
Mn253 O258 2.121 . S
Mn253 N260 2.257 1_545 S
Mn253 N269 2.282 . S
Mn253 O277 2.215 1_545 S
Mn253 O279 2.117 . S
C254 O276 1.234 . S
C254 O277 1.283 . S
C255 O267 1.281 . S
C255 O268 1.236 . S
C256 O278 1.240 . S
C256 O279 1.264 . S
O257 Mn252 2.095 . S
O257 C266 1.250 . S
O258 Mn253 2.121 . S
O258 C266 1.258 . S
C259 N260 1.326 . S
C259 C263 1.460 . S
C259 H265 0.929 . S
N260 Mn253 2.257 1_565 S
N260 C259 1.326 . S
N260 C264 1.362 . S
C261 C262 1.258 . S
C261 C264 1.431 . S
C261 C281 1.449 . S
C262 C261 1.258 . S
C262 C263 1.477 . S
C262 H282 0.931 . S
C263 C259 1.460 . S
C263 C262 1.477 . S
C263 H283 0.930 . S
C264 N260 1.362 . S
C264 C261 1.431 . S
C264 C274 1.476 1_565 S
H265 C259 0.929 . S
C266 O257 1.250 . S
C266 O258 1.258 . S
O267 Mn252 2.162 1_565 S
O267 C255 1.281 . S
O268 Mn252 2.297 1_565 S
O268 C255 1.236 . S
N269 Mn253 2.282 . S
N269 C270 1.328 . S
N269 C274 1.318 . S
C270 N269 1.328 . S
C270 C271 1.457 . S
C270 H275 0.929 . S
C271 C270 1.457 . S
C271 C272 1.291 . S
C271 H284 0.931 . S
C272 C271 1.291 . S
C272 C273 1.373 . S
C272 H285 0.929 . S
C273 C272 1.373 . S
C273 C274 1.396 . S
C273 C280 1.403 1_545 S
C274 C264 1.476 1_545 S
C274 N269 1.318 . S
C274 C273 1.396 . S
H275 C270 0.929 . S
O276 Mn252 2.385 1_565 S
O276 C254 1.234 . S
O277 Mn252 2.209 1_565 S
O277 Mn253 2.215 1_565 S
O277 C254 1.283 . S
O278 Mn252 2.094 . S
O278 C256 1.240 . S
O279 Mn253 2.117 . S
O279 C256 1.264 . S
C280 C273 1.403 1_565 S
C280 C281 1.399 . S
C280 H286 0.929 . S
C281 C261 1.449 . S
C281 C280 1.399 . S
C281 H287 0.930 . S
H282 C262 0.931 . S
H283 C263 0.930 . S
H284 C271 0.931 . S
H285 C272 0.929 . S
H286 C280 0.929 . S
H287 C281 0.930 . S
C158 C14 2.468 1_654 S
C50 C194 2.468 . S
C86 C230 2.468 1_566 S
C266 C122 2.468 1_645 S
C4 C76 1.652 . S
C40 C112 1.652 . S
C220 C148 1.652 . S
C184 C256 1.652 . S
C182 C3 1.235 . S
C39 C218 1.235 . S
C75 C254 1.235 . S
C146 C111 1.235 . S
C147 C38 1.235 . S
C183 C74 1.235 . S
C219 C110 1.235 . S
C2 C255 1.235 . S
