# Generated by pormake.
# Topology whz, (6)-cn, num edge types: 1
# Building blocks:
#     Node 0, Type 0, BuildingBlock: CUWYAW_clean_sbu_0, # of connection points: 6
#     Node 1, Type 0, BuildingBlock: CUWYAW_clean_sbu_0, # of connection points: 6
#     Node 2, Type 0, BuildingBlock: CUWYAW_clean_sbu_0, # of connection points: 6
#     Node 3, Type 0, BuildingBlock: CUWYAW_clean_sbu_0, # of connection points: 6
#     Node 4, Type 0, BuildingBlock: CUWYAW_clean_sbu_0, # of connection points: 6
#     Node 5, Type 0, BuildingBlock: CUWYAW_clean_sbu_0, # of connection points: 6
#     Node 6, Type 0, BuildingBlock: CUWYAW_clean_sbu_0, # of connection points: 6
#     Node 7, Type 0, BuildingBlock: CUWYAW_clean_sbu_0, # of connection points: 6
#     Node 8, Type 0, BuildingBlock: CUWYAW_clean_sbu_0, # of connection points: 6
#     Node 9, Type 0, BuildingBlock: CUWYAW_clean_sbu_0, # of connection points: 6
#     Node 10, Type 0, BuildingBlock: CUWYAW_clean_sbu_0, # of connection points: 6
#     Node 11, Type 0, BuildingBlock: CUWYAW_clean_sbu_0, # of connection points: 6
#     Node 12, Type 0, BuildingBlock: CUWYAW_clean_sbu_0, # of connection points: 6
#     Node 13, Type 0, BuildingBlock: CUWYAW_clean_sbu_0, # of connection points: 6
#     Node 14, Type 0, BuildingBlock: CUWYAW_clean_sbu_0, # of connection points: 6
#     Node 15, Type 0, BuildingBlock: CUWYAW_clean_sbu_0, # of connection points: 6
#     Edge 16, Type (0, 0), BuildingBlock: CIFDUS_clean_linker_0, # of connection points: 2
#     Edge 17, Type (0, 0), BuildingBlock: CIFDUS_clean_linker_0, # of connection points: 2
#     Edge 18, Type (0, 0), BuildingBlock: CIFDUS_clean_linker_0, # of connection points: 2
#     Edge 19, Type (0, 0), BuildingBlock: CIFDUS_clean_linker_0, # of connection points: 2
#     Edge 20, Type (0, 0), BuildingBlock: CIFDUS_clean_linker_0, # of connection points: 2
#     Edge 21, Type (0, 0), BuildingBlock: CIFDUS_clean_linker_0, # of connection points: 2
#     Edge 22, Type (0, 0), BuildingBlock: CIFDUS_clean_linker_0, # of connection points: 2
#     Edge 23, Type (0, 0), BuildingBlock: CIFDUS_clean_linker_0, # of connection points: 2
#     Edge 24, Type (0, 0), BuildingBlock: CIFDUS_clean_linker_0, # of connection points: 2
#     Edge 25, Type (0, 0), BuildingBlock: CIFDUS_clean_linker_0, # of connection points: 2
#     Edge 26, Type (0, 0), BuildingBlock: CIFDUS_clean_linker_0, # of connection points: 2
#     Edge 27, Type (0, 0), BuildingBlock: CIFDUS_clean_linker_0, # of connection points: 2
#     Edge 28, Type (0, 0), BuildingBlock: CIFDUS_clean_linker_0, # of connection points: 2
#     Edge 29, Type (0, 0), BuildingBlock: CIFDUS_clean_linker_0, # of connection points: 2
#     Edge 30, Type (0, 0), BuildingBlock: CIFDUS_clean_linker_0, # of connection points: 2
#     Edge 31, Type (0, 0), BuildingBlock: CIFDUS_clean_linker_0, # of connection points: 2
#     Edge 32, Type (0, 0), BuildingBlock: CIFDUS_clean_linker_0, # of connection points: 2
#     Edge 33, Type (0, 0), BuildingBlock: CIFDUS_clean_linker_0, # of connection points: 2
#     Edge 34, Type (0, 0), BuildingBlock: CIFDUS_clean_linker_0, # of connection points: 2
#     Edge 35, Type (0, 0), BuildingBlock: CIFDUS_clean_linker_0, # of connection points: 2
#     Edge 36, Type (0, 0), BuildingBlock: CIFDUS_clean_linker_0, # of connection points: 2
#     Edge 37, Type (0, 0), BuildingBlock: CIFDUS_clean_linker_0, # of connection points: 2
#     Edge 38, Type (0, 0), BuildingBlock: CIFDUS_clean_linker_0, # of connection points: 2
#     Edge 39, Type (0, 0), BuildingBlock: CIFDUS_clean_linker_0, # of connection points: 2
#     Edge 40, Type (0, 0), BuildingBlock: CIFDUS_clean_linker_0, # of connection points: 2
#     Edge 41, Type (0, 0), BuildingBlock: CIFDUS_clean_linker_0, # of connection points: 2
#     Edge 42, Type (0, 0), BuildingBlock: CIFDUS_clean_linker_0, # of connection points: 2
#     Edge 43, Type (0, 0), BuildingBlock: CIFDUS_clean_linker_0, # of connection points: 2
#     Edge 44, Type (0, 0), BuildingBlock: CIFDUS_clean_linker_0, # of connection points: 2
#     Edge 45, Type (0, 0), BuildingBlock: CIFDUS_clean_linker_0, # of connection points: 2
#     Edge 46, Type (0, 0), BuildingBlock: CIFDUS_clean_linker_0, # of connection points: 2
#     Edge 47, Type (0, 0), BuildingBlock: CIFDUS_clean_linker_0, # of connection points: 2
#     Edge 48, Type (0, 0), BuildingBlock: CIFDUS_clean_linker_0, # of connection points: 2
#     Edge 49, Type (0, 0), BuildingBlock: CIFDUS_clean_linker_0, # of connection points: 2
#     Edge 50, Type (0, 0), BuildingBlock: CIFDUS_clean_linker_0, # of connection points: 2
#     Edge 51, Type (0, 0), BuildingBlock: CIFDUS_clean_linker_0, # of connection points: 2
#     Edge 52, Type (0, 0), BuildingBlock: CIFDUS_clean_linker_0, # of connection points: 2
#     Edge 53, Type (0, 0), BuildingBlock: CIFDUS_clean_linker_0, # of connection points: 2
#     Edge 54, Type (0, 0), BuildingBlock: CIFDUS_clean_linker_0, # of connection points: 2
#     Edge 55, Type (0, 0), BuildingBlock: CIFDUS_clean_linker_0, # of connection points: 2
#     Edge 56, Type (0, 0), BuildingBlock: CIFDUS_clean_linker_0, # of connection points: 2
#     Edge 57, Type (0, 0), BuildingBlock: CIFDUS_clean_linker_0, # of connection points: 2
#     Edge 58, Type (0, 0), BuildingBlock: CIFDUS_clean_linker_0, # of connection points: 2
#     Edge 59, Type (0, 0), BuildingBlock: CIFDUS_clean_linker_0, # of connection points: 2
#     Edge 60, Type (0, 0), BuildingBlock: CIFDUS_clean_linker_0, # of connection points: 2
#     Edge 61, Type (0, 0), BuildingBlock: CIFDUS_clean_linker_0, # of connection points: 2
#     Edge 62, Type (0, 0), BuildingBlock: CIFDUS_clean_linker_0, # of connection points: 2
#     Edge 63, Type (0, 0), BuildingBlock: CIFDUS_clean_linker_0, # of connection points: 2
# Relax obj value: 0.791
# Max RMSD: 0.319
# Mean RMSD: 0.319
data_MOF--net-whz--node1-CUWYAW_clean_sbu_0--edge1-CIFDUS_clean_linker_0
_symmetry_space_group_name_H-M    P1
_symmetry_Int_Tables_number       1
_symmetry_cell_setting            triclinic
loop_
_symmetry_equiv_pos_as_xyz
'x, y, z'
_cell_length_a     30.717159
_cell_length_b     30.732013
_cell_length_c     64.372018
_cell_angle_alpha  89.963391
_cell_angle_beta   90.332152
_cell_angle_gamma 89.756263
loop_
_atom_site_label
_atom_site_type_symbol
_atom_site_fract_x
_atom_site_fract_y
_atom_site_fract_z
_atom_type_partial_charge
C0 C 0.30819 0.17964 0.12096 0.0
Eu1 Eu 0.32476 0.19528 0.16032 0.0
C2 C 0.29672 0.17226 0.09844 0.0
C3 C 0.32108 0.14401 0.08576 0.0
C4 C 0.30994 0.13777 0.06464 0.0
C5 C 0.27395 0.15948 0.05548 0.0
C6 C 0.24966 0.18767 0.06828 0.0
C7 C 0.26085 0.19396 0.08932 0.0
C8 C 0.35069 0.14111 0.19265 0.0
C9 C 0.23498 0.17755 0.18798 0.0
C10 C 0.33478 0.2552 0.24086 0.0
Eu11 Eu 0.31608 0.23199 0.20322 0.0
C12 C 0.37268 0.24423 0.25379 0.0
C13 C 0.38036 0.26679 0.27226 0.0
C14 C 0.40992 0.25015 0.2868 0.0
C15 C 0.43143 0.21029 0.28314 0.0
C16 C 0.42771 0.1909 0.26348 0.0
C17 C 0.39847 0.20782 0.24887 0.0
C18 C 0.27729 0.28272 0.17437 0.0
C19 C 0.40832 0.23911 0.17887 0.0
O20 O 0.28611 0.20708 0.13234 0.0
O21 O 0.34006 0.16014 0.13101 0.0
O22 O 0.37039 0.14146 0.17475 0.0
O23 O 0.31888 0.16615 0.19143 0.0
O24 O 0.25532 0.1752 0.16981 0.0
O25 O 0.25317 0.19543 0.20447 0.0
O26 O 0.3095 0.22226 0.23642 0.0
O27 O 0.34227 0.28011 0.22481 0.0
O28 O 0.26263 0.27553 0.19283 0.0
O29 O 0.31423 0.26417 0.1719 0.0
O30 O 0.38871 0.22959 0.19647 0.0
O31 O 0.3872 0.23447 0.1611 0.0
H32 H 0.34883 0.12663 0.09214 0.0
H33 H 0.32933 0.11534 0.05557 0.0
H34 H 0.22219 0.20562 0.06199 0.0
H35 H 0.24125 0.21611 0.09845 0.0
H36 H 0.36109 0.29522 0.27616 0.0
H37 H 0.41173 0.26567 0.30189 0.0
H38 H 0.44378 0.1602 0.26032 0.0
H39 H 0.39336 0.1904 0.23447 0.0
C40 C 0.64493 0.56648 0.36139 0.0
Eu41 Eu 0.63096 0.58015 0.40107 0.0
C42 C 0.65187 0.55801 0.33867 0.0
C43 C 0.68856 0.57439 0.32839 0.0
C44 C 0.69585 0.56519 0.30729 0.0
C45 C 0.66683 0.53903 0.29566 0.0
C46 C 0.62901 0.52435 0.30576 0.0
C47 C 0.62185 0.53338 0.32695 0.0
C48 C 0.68798 0.61158 0.43093 0.0
C49 C 0.65719 0.49427 0.42884 0.0
C50 C 0.57713 0.5879 0.4822 0.0
Eu51 Eu 0.60233 0.57369 0.44441 0.0
C52 C 0.53238 0.59521 0.48918 0.0
C53 C 0.49935 0.60126 0.47423 0.0
C54 C 0.45614 0.59174 0.47906 0.0
C55 C 0.44571 0.57654 0.49891 0.0
C56 C 0.4779 0.57684 0.51459 0.0
C57 C 0.52118 0.58566 0.50969 0.0
C58 C 0.54531 0.53508 0.41776 0.0
C59 C 0.58059 0.66285 0.41759 0.0
O60 O 0.61256 0.5494 0.37159 0.0
O61 O 0.67044 0.59077 0.37286 0.0
O62 O 0.6807 0.6315 0.4134 0.0
O63 O 0.66676 0.57733 0.43117 0.0
O64 O 0.64563 0.50907 0.41023 0.0
O65 O 0.65201 0.51905 0.4454 0.0
O66 O 0.59383 0.61827 0.47052 0.0
O67 O 0.58375 0.54895 0.47472 0.0
O68 O 0.55651 0.52063 0.43582 0.0
O69 O 0.56387 0.57136 0.41454 0.0
O70 O 0.58767 0.64503 0.43604 0.0
O71 O 0.59006 0.64115 0.40054 0.0
H72 H 0.71213 0.59391 0.33674 0.0
H73 H 0.72484 0.57822 0.30016 0.0
H74 H 0.60589 0.50398 0.2976 0.0
H75 H 0.59302 0.52037 0.33425 0.0
H76 H 0.50757 0.60884 0.45828 0.0
H77 H 0.43184 0.59214 0.46684 0.0
H78 H 0.47068 0.56467 0.53 0.0
H79 H 0.54624 0.58063 0.52137 0.0
C80 C 0.22502 0.89619 0.61649 0.0
Eu81 Eu 0.22829 0.87608 0.65642 0.0
C82 C 0.2492 0.90111 0.59643 0.0
C83 C 0.2328 0.88115 0.57831 0.0
C84 C 0.25189 0.88839 0.55875 0.0
C85 C 0.28803 0.91607 0.55664 0.0
C86 C 0.3054 0.93471 0.575 0.0
C87 C 0.28624 0.9275 0.59455 0.0
C88 C 0.19463 0.92456 0.68925 0.0
C89 C 0.31613 0.91223 0.67868 0.0
C90 C 0.25767 0.80678 0.7323 0.0
Eu91 Eu 0.25154 0.84475 0.69638 0.0
C92 C 0.27068 0.76154 0.73604 0.0
C93 C 0.28397 0.73543 0.71927 0.0
C94 C 0.30387 0.69515 0.72279 0.0
C95 C 0.30929 0.67999 0.74314 0.0
C96 C 0.29196 0.70444 0.75974 0.0
C97 C 0.27313 0.74516 0.75621 0.0
C98 C 0.29243 0.79678 0.66664 0.0
C99 C 0.15441 0.822 0.67776 0.0
O100 O 0.21971 0.85699 0.6238 0.0
O101 O 0.23042 0.92474 0.63134 0.0
O102 O 0.1723 0.91481 0.67266 0.0
O103 O 0.23217 0.90989 0.68719 0.0
O104 O 0.29888 0.89842 0.66093 0.0
O105 O 0.29736 0.90183 0.69637 0.0
O106 O 0.22085 0.81172 0.72244 0.0
O107 O 0.28817 0.83158 0.72482 0.0
O108 O 0.31042 0.81485 0.68244 0.0
O109 O 0.25267 0.80867 0.66585 0.0
O110 O 0.17875 0.82818 0.69448 0.0
O111 O 0.16881 0.83424 0.65951 0.0
H112 H 0.20416 0.86079 0.57917 0.0
H113 H 0.23712 0.87365 0.54518 0.0
H114 H 0.3337 0.95552 0.57428 0.0
H115 H 0.29998 0.94326 0.60811 0.0
H116 H 0.2811 0.74729 0.70354 0.0
H117 H 0.31743 0.67723 0.70985 0.0
H118 H 0.29662 0.69393 0.77568 0.0
H119 H 0.26272 0.76474 0.76928 0.0
C120 C 0.92867 0.5066 0.86497 0.0
Eu121 Eu 0.94016 0.48737 0.90438 0.0
C122 C 0.92341 0.52008 0.84258 0.0
C123 C 0.9043 0.49269 0.82757 0.0
C124 C 0.90215 0.50512 0.80641 0.0
C125 C 0.91899 0.54541 0.79958 0.0
C126 C 0.93716 0.57298 0.81483 0.0
C127 C 0.93948 0.56051 0.83583 0.0
C128 C 0.88581 0.45646 0.93519 0.0
C129 C 0.91508 0.57218 0.9347 0.0
C130 C 1.002 0.47321 0.98489 0.0
Eu131 Eu 0.97585 0.4924 0.94765 0.0
C132 C 0.99264 0.43608 0.99839 0.0
C133 C 1.01845 0.42851 1.01596 0.0
C134 C 1.00461 0.39928 1.0311 0.0
C135 C 0.96438 0.37777 1.02895 0.0
C136 C 0.94129 0.38167 1.01016 0.0
C137 C 0.95537 0.41069 0.99493 0.0
C138 C 1.02584 0.53407 0.91976 0.0
C139 C 0.98216 0.40149 0.92256 0.0
O140 O 0.95271 0.52928 0.8778 0.0
O141 O 0.90975 0.47298 0.87364 0.0
O142 O 0.88591 0.44029 0.91644 0.0
O143 O 0.91028 0.4886 0.93535 0.0
O144 O 0.91533 0.55535 0.91557 0.0
O145 O 0.93377 0.55145 0.95039 0.0
O146 O 0.96874 0.49876 0.98101 0.0
O147 O 1.02515 0.46478 0.96839 0.0
O148 O 1.01674 0.54819 0.93813 0.0
O149 O 1.0085 0.49699 0.91673 0.0
O150 O 0.9722 0.42049 0.94026 0.0
O151 O 0.97902 0.42378 0.90501 0.0
H152 H 0.89173 0.46123 0.83208 0.0
H153 H 0.88813 0.48258 0.79535 0.0
H154 H 0.94954 0.6047 0.81064 0.0
H155 H 0.9542 0.58277 0.84683 0.0
H156 H 0.04758 0.44748 1.0187 0.0
H157 H 1.02303 0.39741 1.04548 0.0
H158 H 0.91039 0.36542 1.00813 0.0
H159 H 0.93549 0.41569 0.98119 0.0
C160 C 0.74336 0.775 0.89069 0.0
Eu161 Eu 0.74417 0.83496 0.91883 0.0
C162 C 0.71505 0.77413 0.87226 0.0
C163 C 0.73234 0.76128 0.85314 0.0
C164 C 0.71258 0.77526 0.8347 0.0
C165 C 0.67566 0.80241 0.83531 0.0
C166 C 0.65582 0.81136 0.85428 0.0
C167 C 0.6753 0.79705 0.87266 0.0
C168 C 0.79033 0.79378 0.95964 0.0
C169 C 0.65383 0.83584 0.94158 0.0
C170 C 0.74492 0.92221 0.99293 0.0
Eu171 Eu 0.73991 0.89148 0.95482 0.0
C172 C 0.74502 0.91255 1.01574 0.0
C173 C 0.72807 0.94353 1.02956 0.0
C174 C 0.73651 0.94079 1.05103 0.0
C175 C 0.7629 0.90726 0.05944 0.0
C176 C 0.7767 0.87416 1.04568 0.0
C177 C 0.76809 0.87689 1.02417 0.0
C178 C 0.7179 0.93392 0.91827 0.0
C179 C 0.81982 0.90336 0.9219 0.0
O180 O 0.77113 0.80729 0.89058 0.0
O181 O 0.72399 0.77038 0.90865 0.0
O182 O 0.7692 0.82502 0.95082 0.0
O183 O 0.769 0.82459 0.95017 0.0
O184 O 0.67187 0.83475 0.92308 0.0
O185 O 0.67622 0.85168 0.95762 0.0
O186 O 0.70852 0.92177 0.98218 0.0
O187 O 0.77797 0.90776 0.98224 0.0
O188 O 0.73748 0.95186 0.93402 0.0
O189 O 0.70676 0.8958 0.92296 0.0
O190 O 0.80709 0.90802 0.94147 0.0
O191 O 0.79717 0.88 0.90851 0.0
H192 H 0.76327 0.74427 0.85247 0.0
H193 H 0.72866 0.7687 0.82008 0.0
H194 H 0.62761 0.83255 0.855 0.0
H195 H 0.66152 0.80777 0.88714 0.0
H196 H 0.71011 0.97134 1.02363 0.0
H197 H 0.72354 0.96613 0.0609 0.0
H198 H 0.79704 0.84768 1.05117 0.0
H199 H 0.7819 0.85246 1.01399 0.0
C200 C 0.4755 0.47787 0.61333 0.0
Eu201 Eu 0.46116 0.48556 0.65287 0.0
C202 C 0.47117 0.44624 0.59639 0.0
C203 C 0.49331 0.45426 0.57787 0.0
C204 C 0.4789 0.43527 0.55943 0.0
C205 C 0.44153 0.4089 0.55931 0.0
C206 C 0.42431 0.3952 0.5783 0.0
C207 C 0.43902 0.4139 0.59687 0.0
C208 C 0.51278 0.53372 0.6788 0.0
C209 C 0.48498 0.39459 0.67665 0.0
C210 C 0.43249 0.47356 0.73834 0.0
Eu211 Eu 0.4353 0.47783 0.6974 0.0
C212 C 0.42493 0.49515 0.75898 0.0
C213 C 0.39224 0.47988 0.77235 0.0
C214 C 0.38902 0.49507 0.79296 0.0
C215 C 0.41868 0.52583 0.80102 0.0
C216 C 0.45098 0.54152 0.78745 0.0
C217 C 0.45397 0.52659 0.76683 0.0
C218 C 0.37221 0.4574 0.66808 0.0
C219 C 0.40759 0.5638 0.67273 0.0
O220 O 0.43887 0.49237 0.62111 0.0
O221 O 0.50571 0.47097 0.62738 0.0
O222 O 0.49968 0.54549 0.66054 0.0
O223 O 0.49875 0.49574 0.68243 0.0
O224 O 0.48583 0.41762 0.65933 0.0
O225 O 0.46657 0.41025 0.6937 0.0
O226 O 0.46649 0.48534 0.72763 0.0
O227 O 0.39975 0.46252 0.72635 0.0
O228 O 0.36484 0.48092 0.68453 0.0
O229 O 0.41158 0.44642 0.66823 0.0
O230 O 0.42291 0.54935 0.69074 0.0
O231 O 0.4109 0.53985 0.65576 0.0
H232 H 0.51855 0.47876 0.57725 0.0
H233 H 0.49287 0.44651 0.54497 0.0
H234 H 0.39656 0.37382 0.57843 0.0
H235 H 0.42257 0.40634 0.61122 0.0
H236 H 0.36984 0.45506 0.76706 0.0
H237 H 0.36389 0.48163 0.80275 0.0
H238 H 0.47396 0.56585 0.79266 0.0
H239 H 0.47987 0.53907 0.7572 0.0
C240 C 0.83188 0.25267 0.37389 0.0
Eu241 Eu 0.82374 0.21437 0.40959 0.0
C242 C 0.82021 0.29817 0.36979 0.0
C243 C 0.80665 0.32468 0.38638 0.0
C244 C 0.78517 0.36403 0.38256 0.0
C245 C 0.77868 0.37801 0.36209 0.0
C246 C 0.7965 0.35358 0.34564 0.0
C247 C 0.8167 0.31357 0.34945 0.0
C248 C 0.77826 0.26586 0.43612 0.0
C249 C 0.91211 0.23532 0.43578 0.0
C250 C 0.8218 0.1639 0.4896 0.0
Eu251 Eu 0.83208 0.18267 0.4502 0.0
C252 C 0.81471 0.15542 0.51223 0.0
C253 C 0.8318 0.11812 0.52196 0.0
C254 C 0.8237 0.10979 0.54307 0.0
C255 C 0.79819 0.13848 0.55517 0.0
C256 C 0.78319 0.17702 0.54561 0.0
C257 C 0.79095 0.18512 0.52444 0.0
C258 C 0.86755 0.12941 0.41946 0.0
C259 C 0.74749 0.15377 0.42265 0.0
O260 O 0.8644 0.24693 0.38668 0.0
O261 O 0.79901 0.22773 0.37837 0.0
O262 O 0.76416 0.24975 0.419 0.0
O263 O 0.81666 0.25171 0.43962 0.0
O264 O 0.8965 0.2239 0.4174 0.0
O265 O 0.88808 0.22889 0.45224 0.0
O266 O 0.79879 0.19299 0.47962 0.0
O267 O 0.8499 0.14323 0.47797 0.0
O268 O 0.88769 0.13841 0.43674 0.0
O269 O 0.83154 0.14766 0.41969 0.0
O270 O 0.76208 0.16387 0.44142 0.0
O271 O 0.77154 0.16273 0.40626 0.0
H272 H 0.8101 0.31358 0.40223 0.0
H273 H 0.7712 0.38195 0.39541 0.0
H274 H 0.79103 0.36335 0.32965 0.0
H275 H 0.82697 0.29357 0.33651 0.0
H276 H 0.85081 0.09488 0.51316 0.0
H277 H 0.83695 0.08026 0.54981 0.0
H278 H 0.76345 0.20005 0.55415 0.0
H279 H 0.7777 0.21454 0.51757 0.0
C280 C 0.03754 0.57463 0.12853 0.0
Eu281 Eu 0.08384 0.5829 0.16207 0.0
C282 C 1.00062 0.54558 0.1252 0.0
C283 C 0.99274 0.51147 0.13921 0.0
C284 C 0.95864 0.48247 0.13564 0.0
C285 C 0.9322 0.48703 0.11788 0.0
C286 C 0.93841 0.52348 0.10484 0.0
C287 C 0.97236 0.55245 0.10849 0.0
C288 C 0.03639 0.55253 0.19466 0.0
C289 C 0.08482 0.67056 0.18556 0.0
C290 C 0.16249 0.58242 0.23678 0.0
Eu291 Eu 0.13533 0.58004 0.1979 0.0
C292 C 0.16669 0.55768 0.25677 0.0
C293 C 0.20818 0.54949 0.26521 0.0
C294 C 0.21312 0.53044 0.28492 0.0
C295 C 0.17668 0.51892 0.29698 0.0
C296 C 0.13502 0.52721 0.28856 0.0
C297 C 0.13008 0.54629 0.26875 0.0
C298 C 0.17989 0.60745 0.16275 0.0
C299 C 0.14379 0.49806 0.17003 0.0
O300 O 0.03059 0.60493 0.14222 0.0
O301 O 0.07539 0.55572 0.13102 0.0
O302 O 1.02766 0.58681 0.18399 0.0
O303 O 0.07488 0.54083 0.19038 0.0
O304 O 0.08615 0.65491 0.16661 0.0
O305 O 0.098 0.64543 0.20112 0.0
O306 O 0.12351 0.59381 0.23061 0.0
O307 O 0.18776 0.57237 0.22118 0.0
O308 O 0.19655 0.58167 0.17669 0.0
O309 O 0.14305 0.61906 0.16878 0.0
O310 O 0.14213 0.50943 0.18969 0.0
O311 O 0.12831 0.52447 0.15556 0.0
H312 H 1.01396 0.50637 0.15249 0.0
H313 H 0.95467 0.45501 0.146 0.0
H314 H 0.91933 0.52792 0.0908 0.0
H315 H 0.97754 0.5792 0.09782 0.0
H316 H 0.23706 0.55871 0.25671 0.0
H317 H 0.24581 0.52549 0.29087 0.0
H318 H 0.10615 0.51858 0.29718 0.0
H319 H 0.09749 0.55259 0.26295 0.0
C320 C 0.81481 0.6622 0.61135 0.0
Eu321 Eu 0.83102 0.67594 0.65076 0.0
C322 C 0.80112 0.65612 0.58911 0.0
C323 C 0.83037 0.64306 0.57351 0.0
C324 C 0.81743 0.64259 0.55237 0.0
C325 C 0.77492 0.65528 0.54629 0.0
C326 C 0.74552 0.66669 0.56212 0.0
C327 C 0.75838 0.66725 0.58304 0.0
C328 C 0.86401 0.6262 0.68329 0.0
C329 C 0.74515 0.64436 0.67738 0.0
C330 C 0.82076 0.75398 0.72662 0.0
Eu331 Eu 0.81648 0.71255 0.69148 0.0
C332 C 0.80671 0.79819 0.73193 0.0
C333 C 0.77829 0.82135 0.71874 0.0
C334 C 0.75878 0.8599 0.7255 0.0
C335 C 0.76733 0.87545 0.74562 0.0
C336 C 0.80065 0.85532 0.75745 0.0
C337 C 0.81984 0.81667 0.75072 0.0
C338 C 0.77876 0.76114 0.66089 0.0
C339 C 0.9094 0.72814 0.66831 0.0
O340 O 0.78981 0.68444 0.62382 0.0
O341 O 0.84963 0.64561 0.62039 0.0
O342 O 0.88275 0.62855 0.66516 0.0
O343 O 0.82855 0.64585 0.6823 0.0
O344 O 0.76419 0.64867 0.65909 0.0
O345 O 0.76294 0.66189 0.69417 0.0
O346 O 0.85309 0.75163 0.71371 0.0
O347 O 0.78975 0.72661 0.72206 0.0
O348 O 0.75961 0.7475 0.67731 0.0
O349 O 0.81684 0.74514 0.66053 0.0
O350 O 0.89062 0.71884 0.68625 0.0
O351 O 0.88815 0.72078 0.65089 0.0
H352 H 0.86359 0.63451 0.57755 0.0
H353 H 0.84118 0.6336 0.54077 0.0
H354 H 0.71221 0.67545 0.55838 0.0
H355 H 0.73467 0.67717 0.59451 0.0
H356 H 0.76877 0.80813 0.70387 0.0
H357 H 0.73351 0.87474 0.71601 0.0
H358 H 0.80819 0.86619 0.77306 0.0
H359 H 0.84259 0.79974 0.76084 0.0
C360 C 0.16796 0.05416 0.87079 0.0
Eu361 Eu 0.13255 0.07344 0.90684 0.0
C362 C 0.16349 0.04862 0.84766 0.0
C363 C 0.19092 0.07197 0.83433 0.0
C364 C 0.19394 0.0613 0.81313 0.0
C365 C 0.16981 1.02665 0.80449 0.0
C366 C 0.14038 1.00491 0.81757 0.0
C367 C 0.13741 1.01558 0.83885 0.0
C368 C 0.1694 0.10983 0.9423 0.0
C369 C 0.14729 0.99001 0.93884 0.0
C370 C 1.01994 0.07425 0.97164 0.0
Eu371 Eu 0.0781 0.06591 0.94273 0.0
C372 C 0.98129 0.04871 0.97656 0.0
C373 C 0.96719 1.01559 0.96311 0.0
C374 C 0.93236 0.98901 0.96857 0.0
C375 C 0.91138 0.99507 0.98767 0.0
C376 C 0.92368 0.03059 1.00029 0.0
C377 C 0.9584 0.05712 0.99476 0.0
C378 C 0.0442 1.02154 0.90998 0.0
C379 C 0.07709 0.15569 0.91677 0.0
O380 O 0.14811 1.02633 0.88276 0.0
O381 O 0.17012 0.09303 0.87913 0.0
O382 O 0.17636 0.12468 0.92366 0.0
O383 O 0.14786 0.07569 0.94083 0.0
O384 O 0.1552 1.00797 0.92052 0.0
O385 O 0.12009 1.0085 0.95203 0.0
O386 O 1.01788 0.09434 0.95385 0.0
O387 O 0.05761 0.05526 0.9748 0.0
O388 O 0.05392 1.00507 0.92777 0.0
O389 O 0.06001 0.05974 0.90918 0.0
O390 O 0.07977 0.13883 0.93562 0.0
O391 O 0.08967 0.13204 0.90083 0.0
H392 H 0.21174 0.09729 0.84049 0.0
H393 H 0.21647 0.07942 0.80361 0.0
H394 H 0.12141 0.97796 0.81165 0.0
H395 H 0.11607 0.9965 0.84857 0.0
H396 H 0.98412 1.00917 0.9488 0.0
H397 H 0.9237 0.96206 0.95854 0.0
H398 H 0.90892 0.03593 1.01532 0.0
H399 H 0.96854 0.08296 1.00514 0.0
C400 C 0.75025 0.38896 0.11186 0.0
Eu401 Eu 0.735 0.38163 0.15172 0.0
C402 C 0.76047 0.39073 0.08908 0.0
C403 C 0.74322 0.42331 0.07602 0.0
C404 C 0.75351 0.42453 0.05468 0.0
C405 C 0.78155 0.39322 1.04566 0.0
C406 C 0.79763 0.35994 0.05879 0.0
C407 C 0.7874 0.35882 0.08005 0.0
C408 C 0.70043 0.43776 0.18103 0.0
C409 C 0.82047 0.41135 0.18013 0.0
C410 C 0.72464 0.33665 0.23512 0.0
Eu411 Eu 0.74108 0.35366 0.19648 0.0
C412 C 0.68789 0.34289 0.2493 0.0
C413 C 0.68431 0.31573 0.26662 0.0
C414 C 0.6587 0.3285 0.28338 0.0
C415 C 0.63745 0.3692 0.28318 0.0
C416 C 0.63575 0.39293 0.26453 0.0
C417 C 0.66078 0.37966 0.2476 0.0
C418 C 0.78716 0.30193 0.17118 0.0
C419 C 0.65293 0.33338 0.16918 0.0
O420 O 0.77179 0.36291 0.12432 0.0
O421 O 0.72065 0.41275 0.12119 0.0
O422 O 0.68191 0.43123 0.163 0.0
O423 O 0.73478 0.41634 0.18162 0.0
O424 O 0.8013 0.40949 0.16156 0.0
O425 O 0.80216 0.39456 0.19685 0.0
O426 O 0.74374 0.37229 0.22888 0.0
O427 O 0.72002 0.30779 0.22036 0.0
O428 O 0.79876 0.31333 0.18973 0.0
O429 O 0.74937 0.31669 0.16675 0.0
O430 O 0.66909 0.34475 0.18752 0.0
O431 O 0.67619 0.33847 0.15224 0.0
H432 H 0.72192 0.44812 0.08231 0.0
H433 H 0.73933 0.4502 1.04531 0.0
H434 H 0.81975 0.33542 0.05294 0.0
H435 H 0.80121 0.333 0.0895 0.0
H436 H 0.70449 0.28686 0.26804 0.0
H437 H 0.66079 0.30949 0.29754 0.0
H438 H 0.61947 0.42423 0.26396 0.0
H439 H 0.6622 0.40027 0.234 0.0
C440 C 0.42132 0.99956 0.36903 0.0
Eu441 Eu 0.43323 0.98734 0.40907 0.0
C442 C 0.41821 1.00848 0.34606 0.0
C443 C 0.38323 0.99373 0.33377 0.0
C444 C 0.3809 1.00357 0.31232 0.0
C445 C 0.41347 0.02856 0.30248 0.0
C446 C 0.44895 0.04214 0.31484 0.0
C447 C 0.45116 0.03246 0.33616 0.0
C448 C 0.37944 0.95496 0.44014 0.0
C449 C 0.40344 0.07404 0.43611 0.0
C450 C 0.50316 0.99453 0.48667 0.0
Eu451 Eu 0.46481 0.9995 0.45084 0.0
C452 C 0.54836 1.00712 0.49049 0.0
C453 C 0.57495 1.01789 0.47351 0.0
C454 C 0.61435 0.03943 0.47664 0.0
C455 C 0.62825 0.04868 0.49686 0.0
C456 C 0.60344 0.03418 0.51387 0.0
C457 C 0.56345 1.01391 0.51069 0.0
C458 C 0.51676 0.03915 0.42251 0.0
C459 C 0.48065 0.90606 0.42827 0.0
O460 O 0.45206 1.01754 0.38008 0.0
O461 O 0.39533 0.97462 0.37986 0.0
O462 O 0.38627 0.93472 0.42263 0.0
O463 O 0.39902 0.99031 0.43951 0.0
O464 O 0.41306 0.05805 0.41748 0.0
O465 O 0.4132 0.05153 0.45294 0.0
O466 O 0.49825 0.96099 0.47454 0.0
O467 O 0.47732 1.02668 0.48159 0.0
O468 O 0.50187 0.05645 0.43918 0.0
O469 O 0.5015 1.00094 0.42068 0.0
O470 O 0.47039 0.92611 0.44574 0.0
O471 O 0.47484 0.92633 0.41041 0.0
H472 H 0.35739 0.97495 0.34074 0.0
H473 H 0.35326 0.99181 0.30351 0.0
H474 H 0.47441 0.06207 0.30831 0.0
H475 H 0.47874 0.04448 0.34496 0.0
H476 H 0.56405 1.01189 0.4578 0.0
H477 H 0.63262 0.05087 0.46337 0.0
H478 H 0.61324 0.04189 0.52964 0.0
H479 H 0.54333 1.00589 0.52391 0.0
C480 C 0.25432 0.29914 0.37914 0.0
Eu481 Eu 0.25208 0.3479 0.41215 0.0
C482 C 0.274 0.2563 0.37585 0.0
C483 C 0.30014 0.23722 0.39137 0.0
C484 C 0.32255 0.19848 0.3875 0.0
C485 C 0.31878 0.17825 0.36807 0.0
C486 C 0.28934 0.19563 0.35327 0.0
C487 C 0.26727 0.23447 0.35713 0.0
C488 C 0.29183 0.30673 0.44463 0.0
C489 C 0.15666 0.3322 0.43151 0.0
C490 C 0.23871 0.42297 0.48758 0.0
Eu491 Eu 0.23022 0.38935 0.45 0.0
C492 C 0.24401 0.42084 0.51068 0.0
C493 C 0.25373 0.45932 0.52153 0.0
C494 C 0.2651 0.45857 0.54274 0.0
C495 C 0.26729 0.41915 0.55394 0.0
C496 C 0.25596 0.38064 0.54307 0.0
C497 C 0.24488 0.38144 0.52173 0.0
C498 C 0.1982 0.43251 0.41509 0.0
C499 C 0.31742 0.42091 0.42388 0.0
O500 O 0.222 0.29952 0.39209 0.0
O501 O 0.28135 0.33113 0.38237 0.0
O502 O 0.31072 0.32261 0.4286 0.0
O503 O 0.25226 0.31932 0.44451 0.0
O504 O 0.1784 0.3416 0.41448 0.0
O505 O 0.17444 0.34121 0.44971 0.0
O506 O 0.27078 0.40861 0.47632 0.0
O507 O 0.20089 0.41713 0.47854 0.0
O508 O 0.17768 0.43152 0.43268 0.0
O509 O 0.23439 0.41515 0.41774 0.0
O510 O 0.29784 0.41655 0.44207 0.0
O511 O 0.30133 0.40117 0.40739 0.0
H512 H 0.30478 0.25332 0.40609 0.0
H513 H 0.34509 0.18599 0.39905 0.0
H514 H 0.28617 0.1814 0.33795 0.0
H515 H 0.24663 0.24845 0.34514 0.0
H516 H 0.25414 0.49015 0.51336 0.0
H517 H 0.27399 0.48897 0.55004 0.0
H518 H 0.25609 0.34951 0.55091 0.0
H519 H 0.23799 0.35116 0.51379 0.0
C520 C 0.98743 0.97897 0.11663 0.0
Eu521 Eu 0.96737 0.99977 0.15435 0.0
C522 C 0.97814 0.94012 0.10426 0.0
C523 C 1.00203 0.93192 0.08628 0.0
C524 C 0.9871 0.90132 0.07196 0.0
C525 C 0.94757 0.87933 0.07533 0.0
C526 C 0.92725 0.88327 0.09471 0.0
C527 C 0.94246 0.91362 0.10912 0.0
C528 C 1.02233 0.03918 0.18094 0.0
C529 C 0.97906 0.91024 0.17999 0.0
C530 C 0.92836 1.01223 0.23813 0.0
Eu531 Eu 0.93798 0.99427 0.19855 0.0
C532 C 0.92406 1.02535 0.26054 0.0
C533 C 0.90849 0.99663 0.27583 0.0
C534 C 0.90732 1.00897 0.29698 0.0
C535 C 0.92157 0.05052 0.30352 0.0
C536 C 0.93614 0.07935 0.28799 0.0
C537 C 0.93757 0.06695 0.26699 0.0
C538 C 0.87859 0.96744 0.16853 0.0
C539 C 0.91809 0.08279 0.17 0.0
O540 O 0.95337 1.00269 0.12132 0.0
O541 O 1.01424 0.97358 0.13226 0.0
O542 O 1.01212 0.05351 0.16266 0.0
O543 O 1.00442 1.00262 0.18447 0.0
O544 O 0.96446 0.92815 0.16266 0.0
O545 O 0.97917 0.93305 0.19732 0.0
O546 O 0.95146 0.03544 0.22528 0.0
O547 O 0.90946 0.97857 0.22945 0.0
O548 O 0.88171 0.94868 0.18664 0.0
O549 O 0.90364 0.99903 0.16854 0.0
O550 O 0.92207 0.06487 0.18875 0.0
O551 O 0.92873 0.0616 0.15297 0.0
H552 H 0.03009 0.9516 0.08251 0.0
H553 H 1.00347 0.89923 0.05713 0.0
H554 H 0.89694 0.86661 0.09769 0.0
H555 H 0.92427 0.91896 0.12325 0.0
H556 H 0.898 0.96426 0.27151 0.0
H557 H 0.89613 0.98545 0.30825 0.0
H558 H 0.94631 0.112 0.29196 0.0
H559 H 0.94948 0.09022 0.25575 0.0
C560 C 0.33994 0.75404 0.86597 0.0
Eu561 Eu 0.32164 0.72677 0.90304 0.0
C562 C 0.37702 0.74402 0.85254 0.0
C563 C 0.38148 0.7655 0.83355 0.0
C564 C 0.40937 0.74862 0.8185 0.0
C565 C 0.4324 0.70958 0.82219 0.0
C566 C 0.43208 0.69153 0.84221 0.0
C567 C 0.40445 0.70864 0.85732 0.0
C568 C 0.28284 0.77534 0.93273 0.0
C569 C 0.41308 0.7335 0.9288 0.0
C570 C 0.31523 0.66446 0.98324 0.0
Eu571 Eu 0.33013 0.68588 0.94454 0.0
C572 C 0.30553 0.65453 1.00555 0.0
C573 C 0.31805 0.61492 1.01485 0.0
C574 C 0.30727 0.60564 1.03567 0.0
C575 C 0.28393 0.63586 1.04792 0.0
C576 C 0.27228 0.67582 1.03855 0.0
C577 C 0.28264 0.68483 1.01776 0.0
C578 C 0.35796 0.63578 0.91127 0.0
C579 C 0.24054 0.67027 0.91624 0.0
O580 O 0.31439 0.72101 0.86961 0.0
O581 O 0.34851 0.77666 0.88267 0.0
O582 O 0.2678 0.76906 0.91418 0.0
O583 O 0.31956 0.75619 0.93487 0.0
O584 O 0.39433 0.72539 0.91069 0.0
O585 O 0.39133 0.72655 0.94605 0.0
O586 O 0.29401 0.69502 0.97324 0.0
O587 O 0.3451 0.64482 0.97214 0.0
O588 O 0.37793 0.63574 0.9292 0.0
O589 O 0.3251 0.65936 0.91277 0.0
O590 O 0.26081 0.66611 0.93444 0.0
O591 O 0.25866 0.69039 0.90042 0.0
H592 H 0.36078 0.79302 0.8297 0.0
H593 H 0.40853 0.76304 0.80313 0.0
H594 H 0.44945 0.66155 0.84539 0.0
H595 H 0.40166 0.69192 0.87205 0.0
H596 H 0.33556 0.59073 1.00592 0.0
H597 H 0.31657 0.57429 1.04199 0.0
H598 H 0.25537 0.70065 1.04731 0.0
H599 H 0.27277 0.71587 1.01125 0.0
C600 C 0.57453 0.09571 0.61938 0.0
Eu601 Eu 0.59975 0.06954 0.65593 0.0
C602 C 0.58562 0.13321 0.60638 0.0
C603 C 0.56045 0.1423 0.58876 0.0
C604 C 0.57724 0.16854 0.57306 0.0
C605 C 0.6199 0.18502 0.57464 0.0
C606 C 0.64211 0.18125 0.59372 0.0
C607 C 0.625 0.15538 0.60953 0.0
C608 C 0.54687 1.02478 0.68182 0.0
C609 C 0.58835 0.15281 0.68583 0.0
C610 C 0.66265 0.04344 0.73496 0.0
Eu611 Eu 0.63677 0.06699 0.69758 0.0
C612 C 0.66075 0.03725 0.75797 0.0
C613 C 0.69916 0.04112 0.76978 0.0
C614 C 0.70047 0.02891 0.79083 0.0
C615 C 0.66329 1.0123 0.80082 0.0
C616 C 0.62433 1.01001 0.78906 0.0
C617 C 0.62315 1.02205 0.76794 0.0
C618 C 0.68987 0.10246 0.66745 0.0
C619 C 0.65364 0.98429 0.66539 0.0
O620 O 0.6063 0.068 0.62244 0.0
O621 O 0.55241 0.10364 0.63622 0.0
O622 O 0.55676 1.01398 0.66304 0.0
O623 O 0.56654 0.05979 0.68679 0.0
O624 O 0.60021 0.13985 0.66716 0.0
O625 O 0.593 0.12584 0.70164 0.0
O626 O 0.63698 1.02034 0.72307 0.0
O627 O 0.67318 0.08081 0.72664 0.0
O628 O 0.68642 0.11892 0.68596 0.0
O629 O 0.66692 0.06934 0.66652 0.0
O630 O 0.65627 0.99987 0.68457 0.0
O631 O 0.6353 1.00687 0.65031 0.0
H632 H 0.52972 0.12588 0.58623 0.0
H633 H 0.55917 0.17068 0.55859 0.0
H634 H 0.67485 0.19376 0.5954 0.0
H635 H 0.64439 0.14931 0.62333 0.0
H636 H 0.7289 0.05193 0.76246 0.0
H637 H 0.73138 0.03057 0.79893 0.0
H638 H 0.59464 0.99832 0.79604 0.0
H639 H 0.59305 1.01836 0.75928 0.0
H640 H 0.39912 0.13236 0.29201 0.0
H641 H 0.48655 0.22963 0.31573 0.0
H642 H 0.46819 0.20913 0.35127 0.0
H643 H 0.40564 0.18794 0.37213 0.0
H644 H 0.30927 0.1016 0.34665 0.0
H645 H 0.35224 0.09266 0.31549 0.0
C646 C 0.41634 0.14704 0.30495 0.0
C647 C 0.44293 0.18333 0.30139 0.0
C648 C 0.40231 0.13798 0.3251 0.0
C649 C 0.46529 0.20209 0.31821 0.0
C650 C 0.4542 0.19077 0.33852 0.0
C651 C 0.39564 0.16464 0.3604 0.0
C652 C 0.35302 0.14805 0.36074 0.0
C653 C 0.41936 0.16224 0.34191 0.0
C654 C 0.34129 0.11622 0.34616 0.0
C655 C 0.36574 0.11158 0.32814 0.0
H656 H 0.36824 0.45465 0.5568 0.0
H657 H 0.45312 0.37412 0.52026 0.0
H658 H 0.44158 0.42137 0.49023 0.0
H659 H 0.43716 0.49854 0.48175 0.0
H660 H 0.37449 0.58691 0.52398 0.0
H661 H 0.34636 0.52574 0.54392 0.0
C662 C 0.38196 0.44611 0.54183 0.0
C663 C 0.41301 0.41239 0.54085 0.0
C664 C 0.38051 0.47702 0.52584 0.0
C665 C 0.42989 0.40062 0.52144 0.0
C666 C 0.42407 0.42836 0.50442 0.0
C667 C 0.41496 0.5041 0.49456 0.0
C668 C 0.40871 0.5468 0.50183 0.0
C669 C 0.40393 0.46901 0.50737 0.0
C670 C 0.38 0.55417 0.51832 0.0
C671 C 0.36458 0.51906 0.5299 0.0
H672 H 0.39433 0.68412 0.73453 0.0
H673 H 0.29949 0.60277 0.76402 0.0
H674 H 0.3484 0.59094 0.79324 0.0
H675 H 0.39857 0.63161 0.81514 0.0
H676 H 0.48356 0.72676 0.78816 0.0
H677 H 0.4603 0.70482 0.75338 0.0
C678 C 0.38581 0.66137 0.74675 0.0
C679 C 0.34259 0.64686 0.74812 0.0
C680 C 0.41235 0.65896 0.76449 0.0
C681 C 0.33221 0.61569 0.7632 0.0
C682 C 0.35996 0.60978 0.78018 0.0
C683 C 0.41431 0.6453 0.80161 0.0
C684 C 0.44159 0.68153 0.80409 0.0
C685 C 0.39745 0.6355 0.78195 0.0
C686 C 0.46184 0.69928 0.78653 0.0
C687 C 0.44795 0.68713 0.76666 0.0
H688 H 0.88493 0.4035 1.041 0.0
H689 H 0.99386 0.3244 0.06042 0.0
H690 H 0.97857 0.34127 0.09669 0.0
H691 H 0.95539 0.40165 0.11867 0.0
H692 H 0.8525 0.48739 0.09812 0.0
H693 H 0.84413 0.44523 0.06654 0.0
C694 C 0.90369 0.38774 0.05321 0.0
C695 C 0.94165 0.36443 1.04812 0.0
C696 C 0.89677 0.40047 0.07379 0.0
C697 C 0.96515 0.34347 0.06405 0.0
C698 C 0.95673 0.35367 0.08478 0.0
C699 C 0.92901 0.40944 0.10801 0.0
C700 C 0.90702 0.44957 0.10972 0.0
C701 C 0.9257 0.3858 0.08947 0.0
C702 C 0.8715 0.45782 0.09644 0.0
C703 C 0.86689 0.43376 0.07824 0.0
H704 H 0.70792 0.88099 0.82865 0.0
H705 H 0.62505 0.78352 0.80152 0.0
H706 H 0.63203 0.81812 0.7674 0.0
H707 H 0.68142 0.85848 0.74537 0.0
H708 H 0.7752 0.94542 0.77252 0.0
H709 H 0.74157 0.93637 0.80646 0.0
C710 C 0.68971 0.86882 0.81538 0.0
C711 C 0.66628 0.82995 0.81723 0.0
C712 C 0.6961 0.88734 0.79581 0.0
C713 C 0.64324 0.81351 0.80017 0.0
C714 C 0.64741 0.83324 0.78074 0.0
C715 C 0.69302 0.87743 0.75849 0.0
C716 C 0.73302 0.89937 0.75705 0.0
C717 C 0.67663 0.86786 0.77819 0.0
C718 C 0.74574 0.9263 0.77362 0.0
C719 C 0.72723 0.92013 0.79315 0.0
H720 H 0.67803 0.44216 0.29324 0.0
H721 H 0.59269 0.34511 0.31834 0.0
H722 H 0.62398 0.3564 0.35289 0.0
H723 H 0.69384 0.37025 0.37013 0.0
H724 H 0.78679 0.45526 0.34143 0.0
H725 H 0.73357 0.47523 0.3149 0.0
C726 C 0.664 0.42589 0.30653 0.0
C727 C 0.63395 0.39223 0.30325 0.0
C728 C 0.68482 0.42996 0.32579 0.0
C729 C 0.61629 0.37083 0.32052 0.0
C730 C 0.63474 0.37686 0.34022 0.0
C731 C 0.70128 0.39527 0.35879 0.0
C732 C 0.74439 0.40994 0.35699 0.0
C733 C 0.67201 0.40283 0.34238 0.0
C734 C 0.75391 0.44296 0.34271 0.0
C735 C 0.72363 0.4537 0.32731 0.0
H736 H 0.86865 0.91005 0.06575 0.0
H737 H 0.96943 0.82535 1.0428 0.0
H738 H 0.95085 0.84566 1.00715 0.0
H739 H 0.92902 0.90866 0.98639 0.0
H740 H 0.83698 1.00132 1.01086 0.0
H741 H 0.82978 0.95804 1.04213 0.0
C742 C 0.88477 0.89397 0.0529 0.0
C743 C 0.92148 0.86769 0.0568 0.0
C744 C 0.87685 0.90924 1.03277 0.0
C745 C 0.94162 0.84644 1.04009 0.0
C746 C 0.93147 0.85874 1.01972 0.0
C747 C 0.905 0.91786 0.99788 0.0
C748 C 0.88576 0.95951 0.9971 0.0
C749 C 0.90245 0.89344 1.01621 0.0
C750 C 0.85362 0.9702 1.01166 0.0
C751 C 0.84969 0.94546 1.02966 0.0
H752 H 0.62357 0.1336 0.48777 0.0
H753 H 0.70638 0.03729 0.51629 0.0
H754 H 0.72563 0.08794 0.54354 0.0
H755 H 0.69407 0.14405 0.56527 0.0
H756 H 0.59991 0.23371 0.53977 0.0
H757 H 0.61175 0.20371 0.50513 0.0
C758 C 0.64838 0.12508 0.49916 0.0
C759 C 0.66193 0.08148 0.50088 0.0
C760 C 0.65627 0.15346 0.5158 0.0
C761 C 0.69485 0.07058 0.51511 0.0
C762 C 0.70531 0.09955 0.53095 0.0
C763 C 0.67825 0.15905 0.55196 0.0
C764 C 0.64481 0.18966 0.55513 0.0
C765 C 0.68246 0.139 0.53258 0.0
C766 C 0.62505 0.20928 0.53772 0.0
C767 C 0.63136 0.19159 0.51795 0.0
H768 H 0.25281 0.12508 0.95748 0.0
H769 H 0.11732 0.13095 0.97416 0.0
H770 H 0.13691 0.14788 1.01002 0.0
H771 H 0.19216 0.15618 1.03749 0.0
H772 H 0.32826 0.14792 1.02178 0.0
H773 H 0.309 0.13615 0.98532 0.0
C774 C 0.22768 0.13124 0.96888 0.0
C775 C 0.18346 0.12786 0.96287 0.0
C776 C 0.23933 0.1396 0.98995 0.0
C777 C 0.15146 0.13426 0.97812 0.0
C778 C 0.16269 0.14358 0.99877 0.0
C779 C 0.21783 0.15245 1.02614 0.0
C780 C 0.26183 0.15295 1.03279 0.0
C781 C 0.20649 0.14563 1.00501 0.0
C782 C 0.29413 0.1471 1.01752 0.0
C783 C 0.28311 0.14067 0.99648 0.0
H784 H 0.61288 0.52352 0.26118 0.0
H785 H 0.74748 0.51818 0.28106 0.0
H786 H 0.76854 0.49068 0.24735 0.0
H787 H 0.74995 0.46491 0.2128 0.0
H788 H 0.61667 0.46582 0.19167 0.0
H789 H 0.59418 0.49856 0.22498 0.0
C790 C 0.64686 0.51658 0.25814 0.0
C791 C 0.67846 0.52393 0.27398 0.0
C792 C 0.65916 0.49999 0.23835 0.0
C793 C 0.72227 0.51438 0.2694 0.0
C794 C 0.73449 0.49811 0.25003 0.0
C795 C 0.71587 0.47253 0.2153 0.0
C796 C 0.68508 0.46277 0.19962 0.0
C797 C 0.70335 0.49056 0.23447 0.0
C798 C 0.64119 0.47324 0.20327 0.0
C799 C 0.62836 0.49169 0.22244 0.0
H800 H 0.2976 0.86506 0.52086 0.0
H801 H 0.31703 0.99556 0.54401 0.0
H802 H 0.34512 1.01781 0.51053 0.0
H803 H 0.36449 1.00162 0.47484 0.0
H804 H 0.34708 0.87265 0.45008 0.0
H805 H 0.3171 0.84885 0.4837 0.0
C806 C 0.30782 0.89841 0.51859 0.0
C807 C 0.30553 0.92826 0.53545 0.0
C808 C 0.32406 0.91148 0.49886 0.0
C809 C 0.31921 0.9713 0.53187 0.0
C810 C 0.335 0.98432 0.51252 0.0
C811 C 0.35422 0.96818 0.47661 0.0
C812 C 0.35822 0.93907 0.45973 0.0
C813 C 0.3377 0.95481 0.49596 0.0
C814 C 0.34427 0.89596 0.46261 0.0
C815 C 0.32729 0.88234 0.48194 0.0
H816 H 0.93644 0.62986 0.70889 0.0
H817 H 0.81406 0.56425 0.70044 0.0
H818 H 0.82047 0.53198 0.73501 0.0
H819 H 0.85702 0.52783 0.76918 0.0
H820 H 0.97962 0.59356 0.77803 0.0
H821 H 0.97658 0.62026 0.7424 0.0
C822 C 0.91206 0.6072 0.71434 0.0
C823 C 0.87538 0.59856 0.7017 0.0
C824 C 0.91531 0.58957 0.73476 0.0
C825 C 0.84317 0.57062 0.70952 0.0
C826 C 0.84655 0.55251 0.72948 0.0
C827 C 0.88356 0.54735 0.76334 0.0
C828 C 0.91814 0.55893 0.77685 0.0
C829 C 0.88192 0.56255 0.7425 0.0
C830 C 0.95179 0.58478 0.76855 0.0
C831 C 0.95037 0.59989 0.74794 0.0
H832 H 0.85013 0.88946 0.15019 0.0
H833 H 0.84007 0.02919 0.14576 0.0
H834 H 0.80309 1.02318 0.11251 0.0
H835 H 0.77947 0.9798 0.08312 0.0
H836 H 0.78559 0.83966 0.08646 0.0
H837 H 0.81838 0.84447 0.1211 0.0
C838 C 0.83859 0.91841 0.14223 0.0
C839 C 0.84782 0.95985 0.15074 0.0
C840 C 0.81732 0.91483 0.12253 0.0
C841 C 0.83352 0.99693 0.13977 0.0
C842 C 0.81246 0.99359 0.12058 0.0
C843 C 0.78657 0.94996 0.09145 0.0
C844 C 0.7794 0.90939 0.08172 0.0
C845 C 0.80501 0.95286 0.11156 0.0
C846 C 0.79081 0.87159 0.09307 0.0
C847 C 0.80944 0.87426 0.11312 0.0
H848 H 0.43533 0.60911 0.89221 0.0
H849 H 0.29551 0.60085 0.88736 0.0
H850 H 0.30151 0.56487 0.8539 0.0
H851 H 0.34532 0.5401 0.82459 0.0
H852 H 0.48528 0.54887 0.828 0.0
H853 H 0.48023 0.57974 0.86288 0.0
C854 C 0.40633 0.59842 0.88404 0.0
C855 C 0.36498 0.60749 0.89259 0.0
C856 C 0.40987 0.5782 0.86419 0.0
C857 C 0.32778 0.59432 0.88137 0.0
C858 C 0.33111 0.57378 0.86207 0.0
C859 C 0.37494 0.54797 0.83297 0.0
C860 C 0.41563 0.54209 0.82321 0.0
C861 C 0.37187 0.5662 0.8531 0.0
C862 C 0.4533 0.55348 0.83464 0.0
C863 C 0.45049 0.57099 0.8548 0.0
H864 H 0.78256 0.19068 0.58989 0.0
H865 H 0.77825 0.05695 0.56913 0.0
H866 H 0.74735 0.03511 0.60197 0.0
H867 H 0.71727 0.05315 0.63577 0.0
H868 H 0.72093 0.18508 0.65821 0.0
H869 H 0.75622 0.20821 0.62572 0.0
C870 C 0.77512 0.15671 0.59255 0.0
C871 C 0.78317 0.12572 0.57665 0.0
C872 C 0.75699 0.1439 0.61185 0.0
C873 C 0.7735 0.08179 0.58082 0.0
C874 C 0.75526 0.06911 0.59967 0.0
C875 C 0.72619 0.08701 0.63372 0.0
C876 C 0.71639 0.11735 0.64945 0.0
C877 C 0.7464 0.09981 0.61516 0.0
C878 C 0.72843 0.16097 0.64649 0.0
C879 C 0.74835 0.17417 0.62782 0.0
H880 H 0.23627 0.41806 0.37829 0.0
H881 H 0.12933 0.48853 0.40548 0.0
H882 H 0.11207 0.52076 0.37128 0.0
H883 H 0.13003 0.53091 0.33357 0.0
H884 H 0.23699 0.45744 0.3077 0.0
H885 H 0.25161 0.42487 0.34143 0.0
C886 C 0.2091 0.44052 0.37686 0.0
C887 C 0.18444 0.45118 0.39458 0.0
C888 C 0.19955 0.45867 0.35727 0.0
C889 C 0.14896 0.4798 0.39219 0.0
C890 C 0.13921 0.49829 0.37259 0.0
C891 C 0.15628 0.50748 0.33525 0.0
C892 C 0.18282 0.49748 0.31789 0.0
C893 C 0.16459 0.48827 0.35499 0.0
C894 C 0.21665 0.46692 0.32064 0.0
C895 C 0.22494 0.44791 0.33998 0.0
H896 H 0.79638 0.6004 0.51378 0.0
H897 H 0.72136 0.71574 0.52755 0.0
H898 H 0.69221 0.7164 0.49227 0.0
H899 H 0.68232 0.68037 0.45801 0.0
H900 H 0.75639 0.56468 0.4446 0.0
H901 H 0.79211 0.5688 0.47855 0.0
C902 C 0.77428 0.62619 0.50903 0.0
C903 C 0.76072 0.65745 0.52376 0.0
C904 C 0.7575 0.6266 0.48845 0.0
C905 C 0.73171 0.69036 0.517 0.0
C906 C 0.71515 0.69107 0.49663 0.0
C907 C 0.70762 0.65721 0.46222 0.0
C908 C 0.71772 0.62308 0.44842 0.0
C909 C 0.72711 0.65892 0.48226 0.0
C910 C 0.74903 0.59206 0.4546 0.0
C911 C 0.76905 0.59404 0.47421 0.0
H912 H 0.11242 0.99794 0.77351 0.0
H913 H 0.24906 1.01797 0.78631 0.0
H914 H 0.26743 0.99083 0.75204 0.0
H915 H 0.24621 0.95932 0.71879 0.0
H916 H 0.11087 0.93822 0.70437 0.0
H917 H 0.09061 0.96794 0.73858 0.0
C918 C 0.14619 0.99644 0.76878 0.0
C919 C 0.1792 1.01067 0.78273 0.0
C920 C 0.15687 0.98058 0.74864 0.0
C921 C 0.22273 1.00836 0.77606 0.0
C922 C 0.23342 0.99246 0.75639 0.0
C923 C 0.21213 0.96138 0.72298 0.0
C924 C 0.18014 0.94643 0.70889 0.0
C925 C 0.20093 0.97834 0.7426 0.0
C926 C 0.13621 0.94972 0.71473 0.0
C927 C 0.1247 0.9665 0.73441 0.0
H928 H 0.79139 0.46657 1.02133 0.0
H929 H 0.80474 0.3268 1.01847 0.0
H930 H 0.83435 0.33249 0.98351 0.0
H931 H 0.86219 0.37813 0.9541 0.0
H932 H 0.84358 0.51701 0.95712 0.0
H933 H 0.80963 0.51034 0.99098 0.0
C934 C 0.79962 0.437 1.01306 0.0
C935 C 0.79586 0.39632 1.02314 0.0
C936 C 0.816 0.4403 0.99262 0.0
C937 C 0.80792 0.35888 1.01174 0.0
C938 C 0.8246 0.36199 0.99146 0.0
C939 C 0.84933 0.40666 0.96187 0.0
C940 C 0.85556 0.44815 0.9529 0.0
C941 C 0.82959 0.40264 0.98177 0.0
C942 C 0.83954 0.48477 0.96359 0.0
C943 C 0.82018 0.48102 0.98309 0.0
H944 H 0.4276 0.10702 0.21023 0.0
H945 H 0.2883 0.11254 0.21809 0.0
H946 H 0.29471 0.077 0.25162 0.0
H947 H 0.33923 0.04915 0.28026 0.0
H948 H 0.47871 0.04212 0.27354 0.0
H949 H 0.4727 0.07307 0.23868 0.0
C950 C 0.39868 0.09945 0.21907 0.0
C951 C 0.35744 0.11255 0.21136 0.0
C952 C 0.40251 0.07911 0.23894 0.0
C953 C 0.32051 0.10312 0.22343 0.0
C954 C 0.32406 0.08277 0.24278 0.0
C955 C 0.36844 0.05331 0.27113 0.0
C956 C 0.4094 0.04315 0.28 0.0
C957 C 0.36486 0.07128 0.25093 0.0
C958 C 0.4466 0.05007 0.26762 0.0
C959 C 0.44323 0.06767 0.24746 0.0
H960 H 0.36663 0.3907 0.64039 0.0
H961 H 0.31446 0.51817 0.65277 0.0
H962 H 0.27649 0.51773 0.61908 0.0
H963 H 0.26117 0.48226 0.5851 0.0
H964 H 0.31222 0.35316 0.57389 0.0
H965 H 0.34465 0.35227 0.60833 0.0
C966 C 0.34645 0.41817 0.63583 0.0
C967 C 0.34394 0.45468 0.64905 0.0
C968 C 0.32389 0.41724 0.61657 0.0
C969 C 0.31721 0.48973 0.64294 0.0
C970 C 0.29558 0.4895 0.62358 0.0
C971 C 0.27965 0.45392 0.58997 0.0
C972 C 0.28413 0.41798 0.57623 0.0
C973 C 0.29932 0.4537 0.61002 0.0
C974 C 0.30712 0.38127 0.58369 0.0
C975 C 0.32635 0.38081 0.60352 0.0
H976 H 0.86415 1.02779 0.33477 0.0
H977 H 0.97956 0.10409 0.3241 0.0
H978 H 0.97685 0.13126 0.35961 0.0
H979 H 0.93821 0.13843 0.39343 0.0
H980 H 0.82325 0.0619 0.4037 0.0
H981 H 0.83025 0.02913 0.36934 0.0
C982 C 0.8893 0.04972 0.34019 0.0
C983 C 0.92154 0.06416 0.3262 0.0
C984 C 0.88795 0.06512 0.36096 0.0
C985 C 0.9534 0.09305 0.33395 0.0
C986 C 0.95221 0.10845 0.3545 0.0
C987 C 0.91581 0.11329 0.38844 0.0
C988 C 0.88095 0.10173 0.4015 0.0
C989 C 0.91925 0.09533 0.36814 0.0
C990 C 0.85106 0.07053 0.39428 0.0
C991 C 0.8547 0.05216 0.37445 0.0
H992 H 0.25563 0.57892 0.14298 0.0
H993 H 0.14015 0.65721 0.13369 0.0
H994 H 0.16108 0.67181 0.09812 0.0
H995 H 0.21065 0.66192 0.06904 0.0
H996 H 0.32856 0.58701 0.07752 0.0
H997 H 0.30784 0.57117 0.11335 0.0
C998 C 0.23531 0.59942 0.1332 0.0
C999 C 0.19626 0.61694 0.14129 0.0
C1000 C 0.24772 0.60813 0.11232 0.0
C1001 C 0.17034 0.64323 0.12817 0.0
C1002 C 0.18225 0.65165 0.10765 0.0
C1003 C 0.23244 0.64268 0.07868 0.0
C1004 C 0.27139 0.62597 0.07017 0.0
C1005 C 0.22075 0.63427 0.09949 0.0
C1006 C 0.29809 0.60006 0.08319 0.0
C1007 C 0.28639 0.59118 0.1039 0.0
H1008 H 0.71425 0.04096 0.83375 0.0
H1009 H 0.61839 0.94376 0.81807 0.0
H1010 H 0.62546 0.9124 0.85261 0.0
H1011 H 0.66235 0.9087 0.88693 0.0
H1012 H 0.75684 1.00659 0.90296 0.0
H1013 H 0.74792 0.04002 0.86867 0.0
C1014 C 0.69504 1.01269 0.83771 0.0
C1015 C 0.66593 0.995 0.82284 0.0
C1016 C 0.69961 0.99412 0.85776 0.0
C1017 C 0.64062 0.95901 0.82892 0.0
C1018 C 0.64503 0.94045 0.84875 0.0
C1019 C 0.68077 0.93754 0.88297 0.0
C1020 C 0.71028 0.95506 0.89761 0.0
C1021 C 0.67493 0.95718 0.86322 0.0
C1022 C 0.73376 0.99249 0.89212 0.0
C1023 C 0.72873 1.01161 0.87244 0.0
H1024 H 0.46367 0.2618 0.14674 0.0
H1025 H 0.45742 0.25301 0.21362 0.0
H1026 H 0.53095 0.28119 0.21657 0.0
H1027 H 0.5977 0.3094 0.20055 0.0
H1028 H 0.60555 0.31729 0.13377 0.0
H1029 H 0.5317 0.2888 0.13057 0.0
C1030 C 0.47842 0.26588 0.16195 0.0
C1031 C 0.45443 0.25509 0.17988 0.0
C1032 C 0.52142 0.28225 0.16366 0.0
C1033 C 0.47455 0.2608 0.19944 0.0
C1034 C 0.51689 0.27709 0.20122 0.0
C1035 C 0.58334 0.30496 0.18527 0.0
C1036 C 0.60757 0.31576 0.16746 0.0
C1037 C 0.54068 0.28813 0.18348 0.0
C1038 C 0.58806 0.30938 0.14782 0.0
C1039 C 0.5456 0.29302 0.14595 0.0
H1040 H 0.55335 0.71657 0.44913 0.0
H1041 H 0.56556 0.71152 0.38244 0.0
H1042 H 0.53578 0.78515 0.37964 0.0
H1043 H 0.50644 0.85211 0.39612 0.0
H1044 H 0.49429 0.85626 0.46286 0.0
H1045 H 0.52351 0.78268 0.46548 0.0
C1046 C 0.54956 0.73147 0.43395 0.0
C1047 C 0.56197 0.70805 0.41605 0.0
C1048 C 0.53223 0.77412 0.4324 0.0
C1049 C 0.55647 0.72833 0.39656 0.0
C1050 C 0.53936 0.77068 0.39492 0.0
C1051 C 0.51007 0.83694 0.41124 0.0
C1052 C 0.49797 0.86027 0.42924 0.0
C1053 C 0.52713 0.79405 0.41273 0.0
C1054 C 0.50314 0.83961 0.44866 0.0
C1055 C 0.51997 0.79727 0.45023 0.0
H1056 H 0.96819 0.7438 0.70031 0.0
H1057 H 0.95337 0.75309 0.6337 0.0
H1058 H 1.02653 0.78216 0.6308 0.0
H1059 H 0.09532 0.80541 0.64675 0.0
H1060 H 0.11181 0.79655 0.71321 0.0
H1061 H 0.03824 0.76713 0.71644 0.0
C1062 C 0.98094 0.75219 0.68516 0.0
C1063 C 0.95476 0.74602 0.66727 0.0
C1064 C 1.02373 0.76909 0.68349 0.0
C1065 C 0.97229 0.7572 0.64781 0.0
C1066 C 1.01439 0.77396 0.64608 0.0
C1067 C 0.08299 0.79704 0.66199 0.0
C1068 C 0.10952 0.80335 0.67969 0.0
C1069 C 0.04048 0.78007 0.66376 0.0
C1070 C 0.09249 0.79215 0.69925 0.0
C1071 C 0.05021 0.77528 0.70113 0.0
H1072 H 1.01614 0.34807 0.89138 0.0
H1073 H 0.98063 0.34846 0.95625 0.0
H1074 H 1.00657 0.27443 0.96005 0.0
H1075 H 0.04059 0.20909 0.94574 0.0
H1076 H 0.07596 0.2055 0.88107 0.0
H1077 H 0.04913 0.28021 0.87657 0.0
C1078 C 1.01382 0.33186 0.90629 0.0
C1079 C 0.99637 0.35462 0.92346 0.0
C1080 C 1.0291 0.28831 0.90855 0.0
C1081 C 0.99391 0.33257 0.94266 0.0
C1082 C 1.00885 0.28985 0.94495 0.0
C1083 C 0.04257 0.22451 0.93062 0.0
C1084 C 0.06063 0.20137 0.91383 0.0
C1085 C 1.0268 0.26744 0.9281 0.0
C1086 C 0.06239 0.22224 0.89435 0.0
C1087 C 0.04697 0.26515 0.89175 0.0
H1088 H 0.6037 0.80038 0.91119 0.0
H1089 H 0.60082 0.83186 0.97643 0.0
H1090 H 0.52672 0.80215 0.97869 0.0
H1091 H 0.4619 0.76722 0.96165 0.0
H1092 H 0.46843 0.73705 0.89617 0.0
H1093 H 0.54169 0.76592 0.89467 0.0
C1094 C 0.5872 0.80097 0.926 0.0
C1095 C 0.6083 0.81867 0.9436 0.0
C1096 C 0.54489 0.78375 0.92717 0.0
C1097 C 0.5857 0.81868 0.96257 0.0
C1098 C 0.54322 0.80156 0.96386 0.0
C1099 C 0.47948 0.76673 0.9471 0.0
C1100 C 0.45909 0.74976 0.92904 0.0
C1101 C 0.52235 0.78391 0.94622 0.0
C1102 C 0.48266 0.7498 0.91034 0.0
C1103 C 0.52483 0.76641 0.90942 0.0
H1104 H 0.49944 0.33508 0.70881 0.0
H1105 H 0.51551 0.35232 0.64264 0.0
H1106 H 0.54896 0.28115 0.64 0.0
H1107 H 0.57394 0.21346 0.65577 0.0
H1108 H 0.55897 0.193 0.72161 0.0
H1109 H 0.52538 0.26531 0.72495 0.0
C1110 C 0.51017 0.32323 0.69382 0.0
C1111 C 0.50469 0.34975 0.676 0.0
C1112 C 0.52992 0.28142 0.69226 0.0
C1113 C 0.5191 0.33338 0.65674 0.0
C1114 C 0.53841 0.29234 0.65513 0.0
C1115 C 0.56356 0.22465 0.67094 0.0
C1116 C 0.56927 0.19748 0.68842 0.0
C1117 C 0.54408 0.26609 0.67272 0.0
C1118 C 0.55525 0.21301 0.70786 0.0
C1119 C 0.53588 0.25446 0.70977 0.0
H1120 H 0.09652 0.31333 0.46217 0.0
H1121 H 0.11508 0.3084 0.3958 0.0
H1122 H 0.04249 0.27852 0.39114 0.0
H1123 H 0.97266 0.25354 0.40559 0.0
H1124 H 0.95334 0.25865 0.47187 0.0
H1125 H 1.02626 0.28825 0.47668 0.0
C1126 C 0.08474 0.30568 0.44669 0.0
C1127 C 0.11178 0.31336 0.42942 0.0
C1128 C 0.04233 0.28836 0.44399 0.0
C1129 C 0.09547 0.30312 0.40949 0.0
C1130 C 0.05368 0.28589 0.40674 0.0
C1131 C 0.98433 0.26111 0.4211 0.0
C1132 C 0.95707 0.25367 0.43829 0.0
C1133 C 1.02667 0.27837 0.42384 0.0
C1134 C 0.97319 0.26387 0.45826 0.0
C1135 C 1.01513 0.28089 0.46107 0.0
H1136 H 0.04351 0.72108 0.1573 0.0
H1137 H 0.0865 0.72109 0.22118 0.0
H1138 H 0.05689 0.79497 0.2256 0.0
H1139 H 1.01905 0.86046 0.21077 0.0
H1140 H 0.97589 0.8563 0.14676 0.0
H1141 H 1.00505 0.78347 0.14312 0.0
C1142 C 0.0467 0.73711 0.17224 0.0
C1143 C 0.06764 0.71551 0.18883 0.0
C1144 C 1.02928 0.7791 0.17469 0.0
C1145 C 0.07075 0.7369 0.20809 0.0
C1146 C 0.05374 0.77919 0.21062 0.0
C1147 C 1.01581 0.84347 0.1961 0.0
C1148 C 0.99524 0.86437 0.17908 0.0
C1149 C 0.03289 0.80076 0.19398 0.0
C1150 C 0.99152 0.8416 0.16017 0.0
C1151 C 1.00829 0.79969 0.158 0.0
H1152 H 0.19449 0.3009 0.16526 0.0
H1153 H 0.32344 0.35464 0.1621 0.0
H1154 H 0.2924 0.42802 0.15812 0.0
H1155 H 0.22831 0.47752 0.16191 0.0
H1156 H 0.10004 0.42246 0.1667 0.0
H1157 H 0.13067 0.34903 0.16365 0.0
C1158 C 0.21573 0.32854 0.16279 0.0
C1159 C 0.26114 0.32238 0.16375 0.0
C1160 C 0.19759 0.37053 0.16137 0.0
C1161 C 0.28842 0.35843 0.16096 0.0
C1162 C 0.27059 0.40048 0.15909 0.0
C1163 C 0.20718 0.44933 0.16177 0.0
C1164 C 0.16202 0.45506 0.16452 0.0
C1165 C 0.22525 0.40709 0.16026 0.0
C1166 C 0.1348 0.4186 0.16452 0.0
C1167 C 0.15236 0.3767 0.16283 0.0
H1168 H 0.38302 0.42251 0.39473 0.0
H1169 H 0.33562 0.48812 0.44947 0.0
H1170 H 0.39786 0.53622 0.44912 0.0
H1171 H 0.47032 0.55406 0.43632 0.0
H1172 H 0.52338 0.48495 0.3842 0.0
H1173 H 0.45467 0.44495 0.38003 0.0
C1174 C 0.38626 0.44768 0.40643 0.0
C1175 C 0.35479 0.45128 0.42225 0.0
C1176 C 0.42332 0.47493 0.40653 0.0
C1177 C 0.35951 0.48404 0.4373 0.0
C1178 C 0.39518 0.51184 0.43709 0.0
C1179 C 0.46614 0.53149 0.42356 0.0
C1180 C 0.50136 0.52325 0.41028 0.0
C1181 C 0.42778 0.50695 0.42215 0.0
C1182 C 0.49623 0.49278 0.39422 0.0
C1183 C 0.45721 0.46934 0.39211 0.0
H1184 H 0.37083 0.76474 0.67695 0.0
H1185 H 0.2528 0.72891 0.64477 0.0
H1186 H 0.27958 0.65326 0.64233 0.0
H1187 H 0.33493 0.59614 0.65225 0.0
H1188 H 0.44513 0.6339 0.6899 0.0
H1189 H 0.42239 0.70982 0.68789 0.0
C1190 C 0.35075 0.74068 0.6692 0.0
C1191 C 0.3097 0.7528 0.66101 0.0
C1192 C 0.36479 0.69725 0.66928 0.0
C1193 C 0.2846 0.7208 0.65103 0.0
C1194 C 0.29977 0.67742 0.64989 0.0
C1195 C 0.35384 0.62114 0.65994 0.0
C1196 C 0.39183 0.60942 0.6712 0.0
C1197 C 0.33945 0.66502 0.65943 0.0
C1198 C 0.4158 0.64201 0.68126 0.0
C1199 C 0.40293 0.68547 0.68001 0.0
H1200 H 0.04393 0.61598 0.90928 0.0
H1201 H 0.1003 0.48767 0.91238 0.0
H1202 H 0.17361 0.51902 0.9111 0.0
H1203 H 0.2213 0.58408 0.91424 0.0
H1204 H 0.16394 0.71202 0.91064 0.0
H1205 H 0.09131 0.68004 0.90716 0.0
C1206 C 0.07232 0.59486 0.90876 0.0
C1207 C 0.06684 0.54963 0.91063 0.0
C1208 C 0.11412 0.61326 0.90866 0.0
C1209 C 0.10373 0.5225 0.91042 0.0
C1210 C 0.14563 0.54054 0.91013 0.0
C1211 C 0.19276 0.60472 0.91257 0.0
C1212 C 0.19745 0.65025 0.91316 0.0
C1213 C 0.15118 0.58597 0.91016 0.0
C1214 C 0.16072 0.67692 0.91052 0.0
C1215 C 0.11934 0.65864 0.90845 0.0
H1216 H 0.80205 0.71792 0.97721 0.0
H1217 H 0.82229 0.78427 0.91937 0.0
H1218 H 0.85944 0.71955 0.90525 0.0
H1219 H 0.89158 0.64481 0.91099 0.0
H1220 H 0.87521 0.58492 0.97121 0.0
H1221 H 0.83173 0.64579 0.9827 0.0
C1222 C 0.8138 0.71784 0.96132 0.0
C1223 C 0.80767 0.75485 0.94898 0.0
C1224 C 0.83667 0.68158 0.95388 0.0
C1225 C 0.8243 0.75509 0.92868 0.0
C1226 C 0.84641 0.71837 0.92085 0.0
C1227 C 0.87813 0.64511 0.92652 0.0
C1228 C 0.88704 0.61011 0.94018 0.0
C1229 C 0.85343 0.68142 0.93346 0.0
C1230 C 0.86948 0.61126 0.96033 0.0
C1231 C 0.84435 0.64615 0.96701 0.0
H1232 H 0.67442 0.64859 0.70375 0.0
H1233 H 0.72975 0.574 0.65355 0.0
H1234 H 0.66514 0.52872 0.65201 0.0
H1235 H 0.58993 0.51483 0.66206 0.0
H1236 H 0.53035 0.59146 0.71009 0.0
H1237 H 0.59915 0.63069 0.71567 0.0
C1238 C 0.67244 0.622 0.69273 0.0
C1239 C 0.70682 0.61504 0.67865 0.0
C1240 C 0.63426 0.59635 0.69154 0.0
C1241 C 0.70364 0.58056 0.66437 0.0
C1242 C 0.66669 0.55445 0.6635 0.0
C1243 C 0.59253 0.53923 0.67418 0.0
C1244 C 0.55563 0.54969 0.68596 0.0
C1245 C 0.63143 0.56264 0.67663 0.0
C1246 C 0.55876 0.58223 0.70119 0.0
C1247 C 0.59795 0.60498 0.70418 0.0
H1248 H 0.69884 0.29435 0.42652 0.0
H1249 H 0.81601 0.33464 0.45812 0.0
H1250 H 0.78704 0.40955 0.46018 0.0
H1251 H 0.73038 0.4649 0.44961 0.0
H1252 H 0.62068 0.4227 0.41277 0.0
H1253 H 0.64524 0.34735 0.41555 0.0
C1254 C 0.71812 0.31932 0.4341 0.0
C1255 C 0.7596 0.30878 0.44219 0.0
C1256 C 0.70278 0.36225 0.4338 0.0
C1257 C 0.78383 0.34163 0.45199 0.0
C1258 C 0.76744 0.38457 0.45288 0.0
C1259 C 0.71194 0.43899 0.44234 0.0
C1260 C 0.67362 0.44915 0.43104 0.0
C1261 C 0.72737 0.39552 0.4433 0.0
C1262 C 0.65024 0.4156 0.42143 0.0
C1263 C 0.66417 0.37254 0.42311 0.0
H1264 H 0.90247 0.3949 0.19628 0.0
H1265 H 0.82076 0.49583 0.17031 0.0
H1266 H 0.87824 0.54915 0.17572 0.0
H1267 H 0.9513 0.56706 0.18668 0.0
H1268 H 0.03945 0.46637 0.20761 0.0
H1269 H 0.97971 0.4132 0.20601 0.0
C1270 C 0.89756 0.42859 0.19182 0.0
C1271 C 0.85746 0.44157 0.18288 0.0
C1272 C 0.93163 0.45912 0.19437 0.0
C1273 C 0.85142 0.48513 0.17703 0.0
C1274 C 0.88416 0.51567 0.18026 0.0
C1275 C 0.95775 0.53361 0.19116 0.0
C1276 C 1.00002 0.52097 0.19745 0.0
C1277 C 0.92432 0.50304 0.18885 0.0
C1278 C 1.00724 0.47723 0.20298 0.0
C1279 C 0.97314 0.44675 0.20181 0.0
H1280 H 0.70267 0.78973 0.64525 0.0
H1281 H 0.82887 0.83329 0.66567 0.0
H1282 H 0.80095 0.90768 0.66917 0.0
H1283 H 0.73775 0.95831 0.67065 0.0
H1284 H 0.6126 0.91515 0.6485 0.0
H1285 H 0.6426 0.84263 0.64154 0.0
C1286 C 0.72446 0.81597 0.64954 0.0
C1287 C 0.76789 0.80623 0.65485 0.0
C1288 C 0.70791 0.85843 0.65186 0.0
C1289 C 0.79565 0.84021 0.66092 0.0
C1290 C 0.77941 0.88259 0.66335 0.0
C1291 C 0.71729 0.93293 0.66421 0.0
C1292 C 0.67288 0.94144 0.6605 0.0
C1293 C 0.73517 0.89171 0.65963 0.0
C1294 C 0.64674 0.90893 0.65169 0.0
C1295 C 0.66392 0.8676 0.64765 0.0
H1296 H 0.84586 0.98856 0.9193 0.0
H1297 H 0.88924 0.85678 0.90934 0.0
H1298 H 0.96193 0.88279 0.90034 0.0
H1299 H 1.0152 0.94228 0.89926 0.0
H1300 H 0.97246 0.0745 0.90818 0.0
H1301 H 0.89745 0.04959 0.91268 0.0
C1302 C 0.87126 0.96575 0.91497 0.0
C1303 C 0.86257 0.92074 0.91531 0.0
C1304 C 0.91291 0.98114 0.90925 0.0
C1305 C 0.89537 0.89148 0.90934 0.0
C1306 C 0.93688 0.90638 0.90413 0.0
C1307 C 0.98909 0.96582 0.90115 0.0
C1308 C 0.99948 1.01026 0.90304 0.0
C1309 C 0.94626 0.95105 0.90438 0.0
C1310 C 0.96538 0.04028 0.90606 0.0
C1311 C 0.92252 1.02586 0.90915 0.0
H1312 H 0.84388 0.11058 0.15068 0.0
H1313 H 0.95598 0.15461 0.18521 0.0
H1314 H 0.92869 0.22942 0.18389 0.0
H1315 H 0.8699 0.2801 0.17657 0.0
H1316 H 0.75199 0.23622 0.14683 0.0
H1317 H 0.78493 0.16379 0.14176 0.0
C1318 C 0.86225 0.13681 0.15773 0.0
C1319 C 0.90164 0.12755 0.16818 0.0
C1320 C 0.84539 0.17954 0.15759 0.0
C1321 C 0.9254 0.16131 0.17733 0.0
C1322 C 0.9099 0.20394 0.17647 0.0
C1323 C 0.85164 0.25491 0.16858 0.0
C1324 C 0.80856 0.26323 0.1622 0.0
C1325 C 0.86954 0.21316 0.16712 0.0
C1326 C 0.78533 0.2306 0.15174 0.0
C1327 C 0.80396 0.18908 0.14916 0.0
H1328 H 0.5465 0.11993 0.42631 0.0
H1329 H 0.58429 0.99369 0.40341 0.0
H1330 H 0.65978 1.01933 0.39955 0.0
H1331 H 0.71663 0.07634 0.40658 0.0
H1332 H 0.67658 0.19822 0.43374 0.0
H1333 H 0.60063 0.17555 0.43241 0.0
C1334 C 0.57106 0.09806 0.42013 0.0
C1335 C 0.55971 0.05496 0.41512 0.0
C1336 C 0.6143 0.11222 0.41914 0.0
C1337 C 0.59197 1.02716 0.40715 0.0
C1338 C 0.63525 0.04172 0.40523 0.0
C1339 C 0.69103 0.09789 0.41195 0.0
C1340 C 0.70197 0.13902 0.4202 0.0
C1341 C 0.6471 0.0839 0.41177 0.0
C1342 C 0.66881 0.16652 0.42738 0.0
C1343 C 0.62541 0.1536 0.42658 0.0
H1344 H 0.37301 0.27613 0.44076 0.0
H1345 H 0.24549 0.23697 0.46095 0.0
H1346 H 0.26966 0.16043 0.46124 0.0
H1347 H 0.32568 0.1039 0.45191 0.0
H1348 H 0.44742 0.14585 0.42579 0.0
H1349 H 0.42661 0.22187 0.43095 0.0
C1350 C 0.35052 0.25101 0.44561 0.0
C1351 C 0.30743 0.26252 0.45089 0.0
C1352 C 0.36344 0.2073 0.44401 0.0
C1353 C 0.27892 0.22933 0.45707 0.0
C1354 C 0.29259 0.18545 0.45686 0.0
C1355 C 0.34736 0.12989 0.44731 0.0
C1356 C 0.38797 0.11949 0.43834 0.0
C1357 C 0.33438 0.17391 0.44966 0.0
C1358 C 0.41591 0.15318 0.43247 0.0
C1359 C 0.40417 0.19659 0.4356 0.0
H1360 H 0.03876 0.12206 0.18958 0.0
H1361 H 0.0963 0.99417 0.19172 0.0
H1362 H 0.16907 1.02646 0.19493 0.0
H1363 H 0.2165 0.0917 0.19197 0.0
H1364 H 0.1577 0.21912 0.18954 0.0
H1365 H 0.08506 0.18671 0.19143 0.0
C1366 C 0.06719 0.10134 0.19158 0.0
C1367 C 0.06238 0.05593 0.19064 0.0
C1368 C 0.10864 0.12018 0.1927 0.0
C1369 C 0.09926 0.0292 0.19287 0.0
C1370 C 0.14086 0.04772 0.1943 0.0
C1371 C 0.18761 0.11212 0.192 0.0
C1372 C 0.19189 0.15753 0.1902 0.0
C1373 C 0.14602 0.09317 0.19333 0.0
C1374 C 0.15474 0.18406 0.19063 0.0
C1375 C 0.11338 0.16556 0.19179 0.0
H1376 H 0.23366 0.97054 0.93635 0.0
H1377 H 0.10978 0.91623 0.9533 0.0
H1378 H 0.14328 0.84405 0.9569 0.0
H1379 H 0.20564 0.79507 0.94998 0.0
H1380 H 0.33029 0.84961 0.93475 0.0
H1381 H 0.29934 0.92313 0.93642 0.0
C1382 C 0.2143 0.94296 0.94122 0.0
C1383 C 0.16921 0.94841 0.94427 0.0
C1384 C 0.23406 0.90172 0.94371 0.0
C1385 C 0.14448 0.91272 0.95083 0.0
C1386 C 0.16364 0.87145 0.95284 0.0
C1387 C 0.22646 0.82322 0.94806 0.0
C1388 C 0.27035 0.81697 0.94255 0.0
C1389 C 0.20814 0.86534 0.94873 0.0
C1390 C 0.29675 0.85361 0.93954 0.0
C1391 C 0.27878 0.89563 0.94009 0.0
H1392 H 0.37834 0.92455 0.70911 0.0
H1393 H 0.34058 0.96515 0.64733 0.0
H1394 H 0.40499 1.01071 0.64506 0.0
H1395 H 0.47502 0.0335 0.65883 0.0
H1396 H 0.51934 0.98773 0.71856 0.0
H1397 H 0.44901 0.95109 0.72387 0.0
C1398 C 0.38414 0.94372 0.69526 0.0
C1399 C 0.35478 0.94112 0.67831 0.0
C1400 C 0.42227 0.96921 0.6938 0.0
C1401 C 0.36281 0.96603 0.66046 0.0
C1402 C 0.39956 0.99232 0.65918 0.0
C1403 C 0.46891 1.01634 0.67327 0.0
C1404 C 0.50213 1.01358 0.68838 0.0
C1405 C 0.42985 0.99347 0.67554 0.0
C1406 C 0.494 0.99096 0.70689 0.0
C1407 C 0.45404 0.96947 0.70972 0.0
loop_
_geom_bond_atom_site_label_1
_geom_bond_atom_site_label_2
_geom_bond_distance
_geom_bond_site_symmetry_2
_ccdc_geom_bond_type
C0 Eu1 2.835 . S
C0 C2 1.500 . S
C0 O20 1.257 . S
C0 O21 1.260 . S
Eu1 C0 2.835 . S
Eu1 O20 2.473 . S
Eu1 O21 2.480 . S
Eu1 O22 2.430 . S
Eu1 O23 2.670 . S
Eu1 O24 2.394 . S
Eu1 O29 2.355 . S
Eu1 O31 2.374 . S
C2 C0 1.500 . S
C2 C3 1.377 . S
C2 C7 1.377 . S
C3 C2 1.377 . S
C3 C4 1.395 1_545 S
C3 H32 0.931 1_545 S
C4 C3 1.395 1_565 S
C4 C5 1.383 1_565 S
C4 H33 0.931 . S
C5 C4 1.383 1_545 S
C5 C6 1.394 . S
C6 C5 1.394 . S
C6 C7 1.378 . S
C6 H34 0.931 . S
C7 C2 1.377 . S
C7 C6 1.378 . S
C7 H35 0.931 . S
C8 O22 1.259 . S
C8 O23 1.270 . S
C9 O24 1.251 . S
C9 O25 1.251 . S
C10 Eu11 2.835 . S
C10 C12 1.500 . S
C10 O26 1.257 . S
C10 O27 1.260 . S
Eu11 C10 2.835 . S
Eu11 O23 2.355 . S
Eu11 O25 2.374 . S
Eu11 O26 2.473 . S
Eu11 O27 2.480 . S
Eu11 O28 2.430 . S
Eu11 O29 2.670 . S
Eu11 O30 2.394 . S
C12 C10 1.500 . S
C12 C13 1.377 . S
C12 C17 1.377 . S
C13 C12 1.377 . S
C13 C14 1.395 . S
C13 H36 0.931 . S
C14 C13 1.395 . S
C14 C15 1.383 . S
C14 H37 0.931 . S
C15 C14 1.383 . S
C15 C16 1.394 . S
C16 C15 1.394 . S
C16 C17 1.378 . S
C16 H38 0.931 . S
C17 C12 1.377 . S
C17 C16 1.378 . S
C17 H39 0.931 . S
C18 O28 1.259 . S
C18 O29 1.270 . S
C19 O30 1.251 . S
C19 O31 1.251 . S
O20 C0 1.257 . S
O20 Eu1 2.473 . S
O21 C0 1.260 . S
O21 Eu1 2.480 . S
O22 Eu1 2.430 . S
O22 C8 1.259 . S
O23 Eu1 2.670 . S
O23 C8 1.270 . S
O23 Eu11 2.355 . S
O24 Eu1 2.394 . S
O24 C9 1.251 . S
O25 C9 1.251 . S
O25 Eu11 2.374 . S
O26 C10 1.257 . S
O26 Eu11 2.473 . S
O27 C10 1.260 . S
O27 Eu11 2.480 . S
O28 Eu11 2.430 . S
O28 C18 1.259 . S
O29 Eu1 2.355 . S
O29 Eu11 2.670 . S
O29 C18 1.270 . S
O30 Eu11 2.394 . S
O30 C19 1.251 . S
O31 Eu1 2.374 . S
O31 C19 1.251 . S
H32 C3 0.931 1_565 S
H33 C4 0.931 . S
H34 C6 0.931 . S
H35 C7 0.931 . S
H36 C13 0.931 . S
H37 C14 0.931 . S
H38 C16 0.931 . S
H39 C17 0.931 . S
C40 Eu41 2.835 . S
C40 C42 1.500 . S
C40 O60 1.257 . S
C40 O61 1.260 . S
Eu41 C40 2.835 . S
Eu41 O60 2.473 . S
Eu41 O61 2.480 . S
Eu41 O62 2.430 . S
Eu41 O63 2.670 . S
Eu41 O64 2.394 . S
Eu41 O69 2.355 . S
Eu41 O71 2.374 . S
C42 C40 1.500 . S
C42 C43 1.377 . S
C42 C47 1.377 . S
C43 C42 1.377 . S
C43 C44 1.395 . S
C43 H72 0.931 . S
C44 C43 1.395 . S
C44 C45 1.383 . S
C44 H73 0.931 . S
C45 C44 1.383 . S
C45 C46 1.394 . S
C46 C45 1.394 . S
C46 C47 1.378 . S
C46 H74 0.931 . S
C47 C42 1.377 . S
C47 C46 1.378 . S
C47 H75 0.931 . S
C48 O62 1.259 . S
C48 O63 1.270 . S
C49 O64 1.251 . S
C49 O65 1.251 . S
C50 Eu51 2.835 . S
C50 C52 1.500 . S
C50 O66 1.257 . S
C50 O67 1.260 . S
Eu51 C50 2.835 . S
Eu51 O63 2.355 . S
Eu51 O65 2.374 . S
Eu51 O66 2.473 . S
Eu51 O67 2.480 . S
Eu51 O68 2.430 . S
Eu51 O69 2.670 . S
Eu51 O70 2.394 . S
C52 C50 1.500 . S
C52 C53 1.377 . S
C52 C57 1.377 . S
C53 C52 1.377 . S
C53 C54 1.395 . S
C53 H76 0.931 . S
C54 C53 1.395 . S
C54 C55 1.383 . S
C54 H77 0.931 . S
C55 C54 1.383 . S
C55 C56 1.394 . S
C56 C55 1.394 . S
C56 C57 1.378 . S
C56 H78 0.931 . S
C57 C52 1.377 . S
C57 C56 1.378 . S
C57 H79 0.931 . S
C58 O68 1.259 . S
C58 O69 1.270 . S
C59 O70 1.251 . S
C59 O71 1.251 . S
O60 C40 1.257 . S
O60 Eu41 2.473 . S
O61 C40 1.260 . S
O61 Eu41 2.480 . S
O62 Eu41 2.430 . S
O62 C48 1.259 . S
O63 Eu41 2.670 . S
O63 C48 1.270 . S
O63 Eu51 2.355 . S
O64 Eu41 2.394 . S
O64 C49 1.251 . S
O65 C49 1.251 . S
O65 Eu51 2.374 . S
O66 C50 1.257 . S
O66 Eu51 2.473 . S
O67 C50 1.260 . S
O67 Eu51 2.480 . S
O68 Eu51 2.430 . S
O68 C58 1.259 . S
O69 Eu41 2.355 . S
O69 Eu51 2.670 . S
O69 C58 1.270 . S
O70 Eu51 2.394 . S
O70 C59 1.251 . S
O71 Eu41 2.374 . S
O71 C59 1.251 . S
H72 C43 0.931 . S
H73 C44 0.931 . S
H74 C46 0.931 . S
H75 C47 0.931 . S
H76 C53 0.931 . S
H77 C54 0.931 . S
H78 C56 0.931 . S
H79 C57 0.931 . S
C80 Eu81 2.835 . S
C80 C82 1.500 . S
C80 O100 1.257 . S
C80 O101 1.260 . S
Eu81 C80 2.835 . S
Eu81 O100 2.473 . S
Eu81 O101 2.480 . S
Eu81 O102 2.430 . S
Eu81 O103 2.670 . S
Eu81 O104 2.394 . S
Eu81 O109 2.355 . S
Eu81 O111 2.374 . S
C82 C80 1.500 . S
C82 C83 1.377 . S
C82 C87 1.377 . S
C83 C82 1.377 . S
C83 C84 1.395 1_565 S
C83 H112 0.931 1_565 S
C84 C83 1.395 1_545 S
C84 C85 1.383 1_545 S
C84 H113 0.931 . S
C85 C84 1.383 1_565 S
C85 C86 1.394 . S
C86 C85 1.394 . S
C86 C87 1.378 . S
C86 H114 0.931 . S
C87 C82 1.377 . S
C87 C86 1.378 . S
C87 H115 0.931 . S
C88 O102 1.259 . S
C88 O103 1.270 . S
C89 O104 1.251 . S
C89 O105 1.251 . S
C90 Eu91 2.835 . S
C90 C92 1.500 . S
C90 O106 1.257 . S
C90 O107 1.260 . S
Eu91 C90 2.835 . S
Eu91 O103 2.355 . S
Eu91 O105 2.374 . S
Eu91 O106 2.473 . S
Eu91 O107 2.480 . S
Eu91 O108 2.430 . S
Eu91 O109 2.670 . S
Eu91 O110 2.394 . S
C92 C90 1.500 . S
C92 C93 1.377 . S
C92 C97 1.377 . S
C93 C92 1.377 . S
C93 C94 1.395 . S
C93 H116 0.931 . S
C94 C93 1.395 . S
C94 C95 1.383 . S
C94 H117 0.931 . S
C95 C94 1.383 . S
C95 C96 1.394 . S
C96 C95 1.394 . S
C96 C97 1.378 . S
C96 H118 0.931 . S
C97 C92 1.377 . S
C97 C96 1.378 . S
C97 H119 0.931 . S
C98 O108 1.259 . S
C98 O109 1.270 . S
C99 O110 1.251 . S
C99 O111 1.251 . S
O100 C80 1.257 . S
O100 Eu81 2.473 . S
O101 C80 1.260 . S
O101 Eu81 2.480 . S
O102 Eu81 2.430 . S
O102 C88 1.259 . S
O103 Eu81 2.670 . S
O103 C88 1.270 . S
O103 Eu91 2.355 . S
O104 Eu81 2.394 . S
O104 C89 1.251 . S
O105 C89 1.251 . S
O105 Eu91 2.374 . S
O106 C90 1.257 . S
O106 Eu91 2.473 . S
O107 C90 1.260 . S
O107 Eu91 2.480 . S
O108 Eu91 2.430 . S
O108 C98 1.259 . S
O109 Eu81 2.355 . S
O109 Eu91 2.670 . S
O109 C98 1.270 . S
O110 Eu91 2.394 . S
O110 C99 1.251 . S
O111 Eu81 2.374 . S
O111 C99 1.251 . S
H112 C83 0.931 1_545 S
H113 C84 0.931 . S
H114 C86 0.931 . S
H115 C87 0.931 . S
H116 C93 0.931 . S
H117 C94 0.931 . S
H118 C96 0.931 . S
H119 C97 0.931 . S
C120 Eu121 2.835 . S
C120 C122 1.500 . S
C120 O140 1.257 . S
C120 O141 1.260 . S
Eu121 C120 2.835 . S
Eu121 O140 2.473 . S
Eu121 O141 2.480 . S
Eu121 O142 2.430 . S
Eu121 O143 2.670 . S
Eu121 O144 2.394 . S
Eu121 O149 2.355 . S
Eu121 O151 2.374 . S
C122 C120 1.500 . S
C122 C123 1.377 . S
C122 C127 1.377 . S
C123 C122 1.377 . S
C123 C124 1.395 . S
C123 H152 0.931 . S
C124 C123 1.395 . S
C124 C125 1.383 . S
C124 H153 0.931 . S
C125 C124 1.383 . S
C125 C126 1.394 . S
C126 C125 1.394 . S
C126 C127 1.378 . S
C126 H154 0.931 . S
C127 C122 1.377 . S
C127 C126 1.378 . S
C127 H155 0.931 . S
C128 O142 1.259 . S
C128 O143 1.270 . S
C129 O144 1.251 . S
C129 O145 1.251 . S
C130 Eu131 2.835 . S
C130 C132 1.500 . S
C130 O146 1.257 . S
C130 O147 1.260 . S
Eu131 C130 2.835 . S
Eu131 O143 2.355 . S
Eu131 O145 2.374 . S
Eu131 O146 2.473 . S
Eu131 O147 2.480 . S
Eu131 O148 2.430 . S
Eu131 O149 2.670 . S
Eu131 O150 2.394 . S
C132 C130 1.500 . S
C132 C133 1.377 1_655 S
C132 C137 1.377 . S
C133 C132 1.377 1_455 S
C133 C134 1.395 . S
C133 H156 0.931 . S
C134 C133 1.395 . S
C134 C135 1.383 . S
C134 H157 0.931 . S
C135 C134 1.383 . S
C135 C136 1.394 1_455 S
C136 C135 1.394 1_655 S
C136 C137 1.378 . S
C136 H158 0.931 . S
C137 C132 1.377 . S
C137 C136 1.378 . S
C137 H159 0.931 . S
C138 O148 1.259 . S
C138 O149 1.270 . S
C139 O150 1.251 . S
C139 O151 1.251 . S
O140 C120 1.257 . S
O140 Eu121 2.473 . S
O141 C120 1.260 . S
O141 Eu121 2.480 . S
O142 Eu121 2.430 . S
O142 C128 1.259 . S
O143 Eu121 2.670 . S
O143 C128 1.270 . S
O143 Eu131 2.355 . S
O144 Eu121 2.394 . S
O144 C129 1.251 . S
O145 C129 1.251 . S
O145 Eu131 2.374 . S
O146 C130 1.257 . S
O146 Eu131 2.473 . S
O147 C130 1.260 . S
O147 Eu131 2.480 . S
O148 Eu131 2.430 . S
O148 C138 1.259 . S
O149 Eu121 2.355 . S
O149 Eu131 2.670 . S
O149 C138 1.270 . S
O150 Eu131 2.394 . S
O150 C139 1.251 . S
O151 Eu121 2.374 . S
O151 C139 1.251 . S
H152 C123 0.931 . S
H153 C124 0.931 . S
H154 C126 0.931 . S
H155 C127 0.931 . S
H156 C133 0.931 . S
H157 C134 0.931 . S
H158 C136 0.931 . S
H159 C137 0.931 . S
C160 Eu161 2.835 . S
C160 C162 1.500 . S
C160 O180 1.257 . S
C160 O181 1.260 . S
Eu161 C160 2.835 . S
Eu161 O180 2.473 . S
Eu161 O181 2.480 . S
Eu161 O182 2.430 . S
Eu161 O183 2.670 . S
Eu161 O184 2.394 . S
Eu161 O189 2.355 . S
Eu161 O191 2.374 . S
C162 C160 1.500 . S
C162 C163 1.377 . S
C162 C167 1.377 . S
C163 C162 1.377 . S
C163 C164 1.395 . S
C163 H192 0.931 . S
C164 C163 1.395 . S
C164 C165 1.383 . S
C164 H193 0.931 . S
C165 C164 1.383 . S
C165 C166 1.394 . S
C166 C165 1.394 . S
C166 C167 1.378 . S
C166 H194 0.931 . S
C167 C162 1.377 . S
C167 C166 1.378 . S
C167 H195 0.931 . S
C168 O182 1.259 . S
C168 O183 1.270 . S
C169 O184 1.251 . S
C169 O185 1.251 . S
C170 Eu171 2.835 . S
C170 C172 1.500 . S
C170 O186 1.257 . S
C170 O187 1.260 . S
Eu171 C170 2.835 . S
Eu171 O183 2.355 . S
Eu171 O185 2.374 . S
Eu171 O186 2.473 . S
Eu171 O187 2.480 . S
Eu171 O188 2.430 . S
Eu171 O189 2.670 . S
Eu171 O190 2.394 . S
C172 C170 1.500 . S
C172 C173 1.377 . S
C172 C177 1.377 . S
C173 C172 1.377 . S
C173 C174 1.395 1_565 S
C173 H196 0.931 1_565 S
C174 C173 1.395 1_545 S
C174 C175 1.383 1_545 S
C174 H197 0.931 . S
C175 C174 1.383 1_565 S
C175 C176 1.394 . S
C176 C175 1.394 . S
C176 C177 1.378 . S
C176 H198 0.931 . S
C177 C172 1.377 . S
C177 C176 1.378 . S
C177 H199 0.931 . S
C178 O188 1.259 . S
C178 O189 1.270 . S
C179 O190 1.251 . S
C179 O191 1.251 . S
O180 C160 1.257 . S
O180 Eu161 2.473 . S
O181 C160 1.260 . S
O181 Eu161 2.480 . S
O182 Eu161 2.430 . S
O182 C168 1.259 . S
O183 Eu161 2.670 . S
O183 C168 1.270 . S
O183 Eu171 2.355 . S
O184 Eu161 2.394 . S
O184 C169 1.251 . S
O185 C169 1.251 . S
O185 Eu171 2.374 . S
O186 C170 1.257 . S
O186 Eu171 2.473 . S
O187 C170 1.260 . S
O187 Eu171 2.480 . S
O188 Eu171 2.430 . S
O188 C178 1.259 . S
O189 Eu161 2.355 . S
O189 Eu171 2.670 . S
O189 C178 1.270 . S
O190 Eu171 2.394 . S
O190 C179 1.251 . S
O191 Eu161 2.374 . S
O191 C179 1.251 . S
H192 C163 0.931 . S
H193 C164 0.931 . S
H194 C166 0.931 . S
H195 C167 0.931 . S
H196 C173 0.931 1_545 S
H197 C174 0.931 . S
H198 C176 0.931 . S
H199 C177 0.931 . S
C200 Eu201 2.835 . S
C200 C202 1.500 . S
C200 O220 1.257 . S
C200 O221 1.260 . S
Eu201 C200 2.835 . S
Eu201 O220 2.473 . S
Eu201 O221 2.480 . S
Eu201 O222 2.430 . S
Eu201 O223 2.670 . S
Eu201 O224 2.394 . S
Eu201 O229 2.355 . S
Eu201 O231 2.374 . S
C202 C200 1.500 . S
C202 C203 1.377 . S
C202 C207 1.377 . S
C203 C202 1.377 . S
C203 C204 1.395 . S
C203 H232 0.931 . S
C204 C203 1.395 . S
C204 C205 1.383 . S
C204 H233 0.931 . S
C205 C204 1.383 . S
C205 C206 1.394 . S
C206 C205 1.394 . S
C206 C207 1.378 . S
C206 H234 0.931 . S
C207 C202 1.377 . S
C207 C206 1.378 . S
C207 H235 0.931 . S
C208 O222 1.259 . S
C208 O223 1.270 . S
C209 O224 1.251 . S
C209 O225 1.251 . S
C210 Eu211 2.835 . S
C210 C212 1.500 . S
C210 O226 1.257 . S
C210 O227 1.260 . S
Eu211 C210 2.835 . S
Eu211 O223 2.355 . S
Eu211 O225 2.374 . S
Eu211 O226 2.473 . S
Eu211 O227 2.480 . S
Eu211 O228 2.430 . S
Eu211 O229 2.670 . S
Eu211 O230 2.394 . S
C212 C210 1.500 . S
C212 C213 1.377 . S
C212 C217 1.377 . S
C213 C212 1.377 . S
C213 C214 1.395 . S
C213 H236 0.931 . S
C214 C213 1.395 . S
C214 C215 1.383 . S
C214 H237 0.931 . S
C215 C214 1.383 . S
C215 C216 1.394 . S
C216 C215 1.394 . S
C216 C217 1.378 . S
C216 H238 0.931 . S
C217 C212 1.377 . S
C217 C216 1.378 . S
C217 H239 0.931 . S
C218 O228 1.259 . S
C218 O229 1.270 . S
C219 O230 1.251 . S
C219 O231 1.251 . S
O220 C200 1.257 . S
O220 Eu201 2.473 . S
O221 C200 1.260 . S
O221 Eu201 2.480 . S
O222 Eu201 2.430 . S
O222 C208 1.259 . S
O223 Eu201 2.670 . S
O223 C208 1.270 . S
O223 Eu211 2.355 . S
O224 Eu201 2.394 . S
O224 C209 1.251 . S
O225 C209 1.251 . S
O225 Eu211 2.374 . S
O226 C210 1.257 . S
O226 Eu211 2.473 . S
O227 C210 1.260 . S
O227 Eu211 2.480 . S
O228 Eu211 2.430 . S
O228 C218 1.259 . S
O229 Eu201 2.355 . S
O229 Eu211 2.670 . S
O229 C218 1.270 . S
O230 Eu211 2.394 . S
O230 C219 1.251 . S
O231 Eu201 2.374 . S
O231 C219 1.251 . S
H232 C203 0.931 . S
H233 C204 0.931 . S
H234 C206 0.931 . S
H235 C207 0.931 . S
H236 C213 0.931 . S
H237 C214 0.931 . S
H238 C216 0.931 . S
H239 C217 0.931 . S
C240 Eu241 2.835 . S
C240 C242 1.500 . S
C240 O260 1.257 . S
C240 O261 1.260 . S
Eu241 C240 2.835 . S
Eu241 O260 2.473 . S
Eu241 O261 2.480 . S
Eu241 O262 2.430 . S
Eu241 O263 2.670 . S
Eu241 O264 2.394 . S
Eu241 O269 2.355 . S
Eu241 O271 2.374 . S
C242 C240 1.500 . S
C242 C243 1.377 . S
C242 C247 1.377 . S
C243 C242 1.377 . S
C243 C244 1.395 . S
C243 H272 0.931 . S
C244 C243 1.395 . S
C244 C245 1.383 . S
C244 H273 0.931 . S
C245 C244 1.383 . S
C245 C246 1.394 . S
C246 C245 1.394 . S
C246 C247 1.378 . S
C246 H274 0.931 . S
C247 C242 1.377 . S
C247 C246 1.378 . S
C247 H275 0.931 . S
C248 O262 1.259 . S
C248 O263 1.270 . S
C249 O264 1.251 . S
C249 O265 1.251 . S
C250 Eu251 2.835 . S
C250 C252 1.500 . S
C250 O266 1.257 . S
C250 O267 1.260 . S
Eu251 C250 2.835 . S
Eu251 O263 2.355 . S
Eu251 O265 2.374 . S
Eu251 O266 2.473 . S
Eu251 O267 2.480 . S
Eu251 O268 2.430 . S
Eu251 O269 2.670 . S
Eu251 O270 2.394 . S
C252 C250 1.500 . S
C252 C253 1.377 . S
C252 C257 1.377 . S
C253 C252 1.377 . S
C253 C254 1.395 1_545 S
C253 H276 0.931 1_545 S
C254 C253 1.395 1_565 S
C254 C255 1.383 1_565 S
C254 H277 0.931 . S
C255 C254 1.383 1_545 S
C255 C256 1.394 . S
C256 C255 1.394 . S
C256 C257 1.378 . S
C256 H278 0.931 . S
C257 C252 1.377 . S
C257 C256 1.378 . S
C257 H279 0.931 . S
C258 O268 1.259 . S
C258 O269 1.270 . S
C259 O270 1.251 . S
C259 O271 1.251 . S
O260 C240 1.257 . S
O260 Eu241 2.473 . S
O261 C240 1.260 . S
O261 Eu241 2.480 . S
O262 Eu241 2.430 . S
O262 C248 1.259 . S
O263 Eu241 2.670 . S
O263 C248 1.270 . S
O263 Eu251 2.355 . S
O264 Eu241 2.394 . S
O264 C249 1.251 . S
O265 C249 1.251 . S
O265 Eu251 2.374 . S
O266 C250 1.257 . S
O266 Eu251 2.473 . S
O267 C250 1.260 . S
O267 Eu251 2.480 . S
O268 Eu251 2.430 . S
O268 C258 1.259 . S
O269 Eu241 2.355 . S
O269 Eu251 2.670 . S
O269 C258 1.270 . S
O270 Eu251 2.394 . S
O270 C259 1.251 . S
O271 Eu241 2.374 . S
O271 C259 1.251 . S
H272 C243 0.931 . S
H273 C244 0.931 . S
H274 C246 0.931 . S
H275 C247 0.931 . S
H276 C253 0.931 1_565 S
H277 C254 0.931 . S
H278 C256 0.931 . S
H279 C257 0.931 . S
C280 Eu281 2.835 . S
C280 C282 1.500 . S
C280 O300 1.257 . S
C280 O301 1.260 . S
Eu281 C280 2.835 . S
Eu281 O300 2.473 . S
Eu281 O301 2.480 . S
Eu281 O302 2.430 . S
Eu281 O303 2.670 . S
Eu281 O304 2.394 . S
Eu281 O309 2.355 . S
Eu281 O311 2.374 . S
C282 C280 1.500 . S
C282 C283 1.377 1_455 S
C282 C287 1.377 . S
C283 C282 1.377 1_655 S
C283 C284 1.395 . S
C283 H312 0.931 . S
C284 C283 1.395 . S
C284 C285 1.383 . S
C284 H313 0.931 . S
C285 C284 1.383 . S
C285 C286 1.394 1_655 S
C286 C285 1.394 1_455 S
C286 C287 1.378 . S
C286 H314 0.931 . S
C287 C282 1.377 . S
C287 C286 1.378 . S
C287 H315 0.931 . S
C288 O302 1.259 . S
C288 O303 1.270 . S
C289 O304 1.251 . S
C289 O305 1.251 . S
C290 Eu291 2.835 . S
C290 C292 1.500 . S
C290 O306 1.257 . S
C290 O307 1.260 . S
Eu291 C290 2.835 . S
Eu291 O303 2.355 . S
Eu291 O305 2.374 . S
Eu291 O306 2.473 . S
Eu291 O307 2.480 . S
Eu291 O308 2.430 . S
Eu291 O309 2.670 . S
Eu291 O310 2.394 . S
C292 C290 1.500 . S
C292 C293 1.377 . S
C292 C297 1.377 . S
C293 C292 1.377 . S
C293 C294 1.395 . S
C293 H316 0.931 . S
C294 C293 1.395 . S
C294 C295 1.383 . S
C294 H317 0.931 . S
C295 C294 1.383 . S
C295 C296 1.394 . S
C296 C295 1.394 . S
C296 C297 1.378 . S
C296 H318 0.931 . S
C297 C292 1.377 . S
C297 C296 1.378 . S
C297 H319 0.931 . S
C298 O308 1.259 . S
C298 O309 1.270 . S
C299 O310 1.251 . S
C299 O311 1.251 . S
O300 C280 1.257 . S
O300 Eu281 2.473 . S
O301 C280 1.260 . S
O301 Eu281 2.480 . S
O302 Eu281 2.430 . S
O302 C288 1.259 . S
O303 Eu281 2.670 . S
O303 C288 1.270 . S
O303 Eu291 2.355 . S
O304 Eu281 2.394 . S
O304 C289 1.251 . S
O305 C289 1.251 . S
O305 Eu291 2.374 . S
O306 C290 1.257 . S
O306 Eu291 2.473 . S
O307 C290 1.260 . S
O307 Eu291 2.480 . S
O308 Eu291 2.430 . S
O308 C298 1.259 . S
O309 Eu281 2.355 . S
O309 Eu291 2.670 . S
O309 C298 1.270 . S
O310 Eu291 2.394 . S
O310 C299 1.251 . S
O311 Eu281 2.374 . S
O311 C299 1.251 . S
H312 C283 0.931 . S
H313 C284 0.931 . S
H314 C286 0.931 . S
H315 C287 0.931 . S
H316 C293 0.931 . S
H317 C294 0.931 . S
H318 C296 0.931 . S
H319 C297 0.931 . S
C320 Eu321 2.835 . S
C320 C322 1.500 . S
C320 O340 1.257 . S
C320 O341 1.260 . S
Eu321 C320 2.835 . S
Eu321 O340 2.473 . S
Eu321 O341 2.480 . S
Eu321 O342 2.430 . S
Eu321 O343 2.670 . S
Eu321 O344 2.394 . S
Eu321 O349 2.355 . S
Eu321 O351 2.374 . S
C322 C320 1.500 . S
C322 C323 1.377 . S
C322 C327 1.377 . S
C323 C322 1.377 . S
C323 C324 1.395 . S
C323 H352 0.931 . S
C324 C323 1.395 . S
C324 C325 1.383 . S
C324 H353 0.931 . S
C325 C324 1.383 . S
C325 C326 1.394 . S
C326 C325 1.394 . S
C326 C327 1.378 . S
C326 H354 0.931 . S
C327 C322 1.377 . S
C327 C326 1.378 . S
C327 H355 0.931 . S
C328 O342 1.259 . S
C328 O343 1.270 . S
C329 O344 1.251 . S
C329 O345 1.251 . S
C330 Eu331 2.835 . S
C330 C332 1.500 . S
C330 O346 1.257 . S
C330 O347 1.260 . S
Eu331 C330 2.835 . S
Eu331 O343 2.355 . S
Eu331 O345 2.374 . S
Eu331 O346 2.473 . S
Eu331 O347 2.480 . S
Eu331 O348 2.430 . S
Eu331 O349 2.670 . S
Eu331 O350 2.394 . S
C332 C330 1.500 . S
C332 C333 1.377 . S
C332 C337 1.377 . S
C333 C332 1.377 . S
C333 C334 1.395 . S
C333 H356 0.931 . S
C334 C333 1.395 . S
C334 C335 1.383 . S
C334 H357 0.931 . S
C335 C334 1.383 . S
C335 C336 1.394 . S
C336 C335 1.394 . S
C336 C337 1.378 . S
C336 H358 0.931 . S
C337 C332 1.377 . S
C337 C336 1.378 . S
C337 H359 0.931 . S
C338 O348 1.259 . S
C338 O349 1.270 . S
C339 O350 1.251 . S
C339 O351 1.251 . S
O340 C320 1.257 . S
O340 Eu321 2.473 . S
O341 C320 1.260 . S
O341 Eu321 2.480 . S
O342 Eu321 2.430 . S
O342 C328 1.259 . S
O343 Eu321 2.670 . S
O343 C328 1.270 . S
O343 Eu331 2.355 . S
O344 Eu321 2.394 . S
O344 C329 1.251 . S
O345 C329 1.251 . S
O345 Eu331 2.374 . S
O346 C330 1.257 . S
O346 Eu331 2.473 . S
O347 C330 1.260 . S
O347 Eu331 2.480 . S
O348 Eu331 2.430 . S
O348 C338 1.259 . S
O349 Eu321 2.355 . S
O349 Eu331 2.670 . S
O349 C338 1.270 . S
O350 Eu331 2.394 . S
O350 C339 1.251 . S
O351 Eu321 2.374 . S
O351 C339 1.251 . S
H352 C323 0.931 . S
H353 C324 0.931 . S
H354 C326 0.931 . S
H355 C327 0.931 . S
H356 C333 0.931 . S
H357 C334 0.931 . S
H358 C336 0.931 . S
H359 C337 0.931 . S
C360 Eu361 2.835 . S
C360 C362 1.500 . S
C360 O380 1.257 . S
C360 O381 1.260 . S
Eu361 C360 2.835 . S
Eu361 O380 2.473 . S
Eu361 O381 2.480 . S
Eu361 O382 2.430 . S
Eu361 O383 2.670 . S
Eu361 O384 2.394 1_545 S
Eu361 O389 2.355 . S
Eu361 O391 2.374 . S
C362 C360 1.500 . S
C362 C363 1.377 . S
C362 C367 1.377 1_545 S
C363 C362 1.377 . S
C363 C364 1.395 . S
C363 H392 0.931 . S
C364 C363 1.395 . S
C364 C365 1.383 1_545 S
C364 H393 0.931 . S
C365 C364 1.383 1_565 S
C365 C366 1.394 . S
C366 C365 1.394 . S
C366 C367 1.378 . S
C366 H394 0.931 . S
C367 C362 1.377 1_565 S
C367 C366 1.378 . S
C367 H395 0.931 . S
C368 O382 1.259 . S
C368 O383 1.270 . S
C369 O384 1.251 . S
C369 O385 1.251 . S
C370 Eu371 2.835 . S
C370 C372 1.500 . S
C370 O386 1.257 . S
C370 O387 1.260 . S
Eu371 C370 2.835 . S
Eu371 O383 2.355 . S
Eu371 O385 2.374 1_545 S
Eu371 O386 2.473 . S
Eu371 O387 2.480 . S
Eu371 O388 2.430 1_545 S
Eu371 O389 2.670 . S
Eu371 O390 2.394 . S
C372 C370 1.500 . S
C372 C373 1.377 1_455 S
C372 C377 1.377 . S
C373 C372 1.377 1_655 S
C373 C374 1.395 . S
C373 H396 0.931 . S
C374 C373 1.395 . S
C374 C375 1.383 . S
C374 H397 0.931 . S
C375 C374 1.383 . S
C375 C376 1.394 1_655 S
C376 C375 1.394 1_455 S
C376 C377 1.378 . S
C376 H398 0.931 . S
C377 C372 1.377 . S
C377 C376 1.378 . S
C377 H399 0.931 . S
C378 O388 1.259 . S
C378 O389 1.270 1_565 S
C379 O390 1.251 . S
C379 O391 1.251 . S
O380 C360 1.257 . S
O380 Eu361 2.473 . S
O381 C360 1.260 . S
O381 Eu361 2.480 . S
O382 Eu361 2.430 . S
O382 C368 1.259 . S
O383 Eu361 2.670 . S
O383 C368 1.270 . S
O383 Eu371 2.355 . S
O384 Eu361 2.394 1_565 S
O384 C369 1.251 . S
O385 C369 1.251 . S
O385 Eu371 2.374 1_565 S
O386 C370 1.257 . S
O386 Eu371 2.473 . S
O387 C370 1.260 . S
O387 Eu371 2.480 . S
O388 Eu371 2.430 1_565 S
O388 C378 1.259 . S
O389 Eu361 2.355 . S
O389 Eu371 2.670 . S
O389 C378 1.270 1_545 S
O390 Eu371 2.394 . S
O390 C379 1.251 . S
O391 Eu361 2.374 . S
O391 C379 1.251 . S
H392 C363 0.931 . S
H393 C364 0.931 . S
H394 C366 0.931 . S
H395 C367 0.931 . S
H396 C373 0.931 . S
H397 C374 0.931 . S
H398 C376 0.931 . S
H399 C377 0.931 . S
C400 Eu401 2.835 . S
C400 C402 1.500 . S
C400 O420 1.257 . S
C400 O421 1.260 . S
Eu401 C400 2.835 . S
Eu401 O420 2.473 . S
Eu401 O421 2.480 . S
Eu401 O422 2.430 . S
Eu401 O423 2.670 . S
Eu401 O424 2.394 . S
Eu401 O429 2.355 . S
Eu401 O431 2.374 . S
C402 C400 1.500 . S
C402 C403 1.377 . S
C402 C407 1.377 . S
C403 C402 1.377 . S
C403 C404 1.395 . S
C403 H432 0.931 . S
C404 C403 1.395 . S
C404 C405 1.383 . S
C404 H433 0.931 . S
C405 C404 1.383 . S
C405 C406 1.394 . S
C406 C405 1.394 . S
C406 C407 1.378 . S
C406 H434 0.931 . S
C407 C402 1.377 . S
C407 C406 1.378 . S
C407 H435 0.931 . S
C408 O422 1.259 . S
C408 O423 1.270 . S
C409 O424 1.251 . S
C409 O425 1.251 . S
C410 Eu411 2.835 . S
C410 C412 1.500 . S
C410 O426 1.257 . S
C410 O427 1.260 . S
Eu411 C410 2.835 . S
Eu411 O423 2.355 . S
Eu411 O425 2.374 . S
Eu411 O426 2.473 . S
Eu411 O427 2.480 . S
Eu411 O428 2.430 . S
Eu411 O429 2.670 . S
Eu411 O430 2.394 . S
C412 C410 1.500 . S
C412 C413 1.377 . S
C412 C417 1.377 . S
C413 C412 1.377 . S
C413 C414 1.395 . S
C413 H436 0.931 . S
C414 C413 1.395 . S
C414 C415 1.383 . S
C414 H437 0.931 . S
C415 C414 1.383 . S
C415 C416 1.394 . S
C416 C415 1.394 . S
C416 C417 1.378 . S
C416 H438 0.931 . S
C417 C412 1.377 . S
C417 C416 1.378 . S
C417 H439 0.931 . S
C418 O428 1.259 . S
C418 O429 1.270 . S
C419 O430 1.251 . S
C419 O431 1.251 . S
O420 C400 1.257 . S
O420 Eu401 2.473 . S
O421 C400 1.260 . S
O421 Eu401 2.480 . S
O422 Eu401 2.430 . S
O422 C408 1.259 . S
O423 Eu401 2.670 . S
O423 C408 1.270 . S
O423 Eu411 2.355 . S
O424 Eu401 2.394 . S
O424 C409 1.251 . S
O425 C409 1.251 . S
O425 Eu411 2.374 . S
O426 C410 1.257 . S
O426 Eu411 2.473 . S
O427 C410 1.260 . S
O427 Eu411 2.480 . S
O428 Eu411 2.430 . S
O428 C418 1.259 . S
O429 Eu401 2.355 . S
O429 Eu411 2.670 . S
O429 C418 1.270 . S
O430 Eu411 2.394 . S
O430 C419 1.251 . S
O431 Eu401 2.374 . S
O431 C419 1.251 . S
H432 C403 0.931 . S
H433 C404 0.931 . S
H434 C406 0.931 . S
H435 C407 0.931 . S
H436 C413 0.931 . S
H437 C414 0.931 . S
H438 C416 0.931 . S
H439 C417 0.931 . S
C440 Eu441 2.835 . S
C440 C442 1.500 . S
C440 O460 1.257 . S
C440 O461 1.260 . S
Eu441 C440 2.835 . S
Eu441 O460 2.473 . S
Eu441 O461 2.480 . S
Eu441 O462 2.430 . S
Eu441 O463 2.670 . S
Eu441 O464 2.394 1_565 S
Eu441 O469 2.355 . S
Eu441 O471 2.374 . S
C442 C440 1.500 . S
C442 C443 1.377 . S
C442 C447 1.377 1_565 S
C443 C442 1.377 . S
C443 C444 1.395 . S
C443 H472 0.931 . S
C444 C443 1.395 . S
C444 C445 1.383 1_565 S
C444 H473 0.931 . S
C445 C444 1.383 1_545 S
C445 C446 1.394 . S
C446 C445 1.394 . S
C446 C447 1.378 . S
C446 H474 0.931 . S
C447 C442 1.377 1_545 S
C447 C446 1.378 . S
C447 H475 0.931 . S
C448 O462 1.259 . S
C448 O463 1.270 . S
C449 O464 1.251 . S
C449 O465 1.251 . S
C450 Eu451 2.835 . S
C450 C452 1.500 . S
C450 O466 1.257 . S
C450 O467 1.260 . S
Eu451 C450 2.835 . S
Eu451 O463 2.355 . S
Eu451 O465 2.374 1_565 S
Eu451 O466 2.473 . S
Eu451 O467 2.480 . S
Eu451 O468 2.430 1_565 S
Eu451 O469 2.670 . S
Eu451 O470 2.394 . S
C452 C450 1.500 . S
C452 C453 1.377 . S
C452 C457 1.377 . S
C453 C452 1.377 . S
C453 C454 1.395 . S
C453 H476 0.931 . S
C454 C453 1.395 . S
C454 C455 1.383 . S
C454 H477 0.931 . S
C455 C454 1.383 . S
C455 C456 1.394 . S
C456 C455 1.394 . S
C456 C457 1.378 . S
C456 H478 0.931 . S
C457 C452 1.377 . S
C457 C456 1.378 . S
C457 H479 0.931 . S
C458 O468 1.259 . S
C458 O469 1.270 1_545 S
C459 O470 1.251 . S
C459 O471 1.251 . S
O460 C440 1.257 . S
O460 Eu441 2.473 . S
O461 C440 1.260 . S
O461 Eu441 2.480 . S
O462 Eu441 2.430 . S
O462 C448 1.259 . S
O463 Eu441 2.670 . S
O463 C448 1.270 . S
O463 Eu451 2.355 . S
O464 Eu441 2.394 1_545 S
O464 C449 1.251 . S
O465 C449 1.251 . S
O465 Eu451 2.374 1_545 S
O466 C450 1.257 . S
O466 Eu451 2.473 . S
O467 C450 1.260 . S
O467 Eu451 2.480 . S
O468 Eu451 2.430 1_545 S
O468 C458 1.259 . S
O469 Eu441 2.355 . S
O469 Eu451 2.670 . S
O469 C458 1.270 1_565 S
O470 Eu451 2.394 . S
O470 C459 1.251 . S
O471 Eu441 2.374 . S
O471 C459 1.251 . S
H472 C443 0.931 . S
H473 C444 0.931 . S
H474 C446 0.931 . S
H475 C447 0.931 . S
H476 C453 0.931 . S
H477 C454 0.931 . S
H478 C456 0.931 . S
H479 C457 0.931 . S
C480 Eu481 2.835 . S
C480 C482 1.500 . S
C480 O500 1.257 . S
C480 O501 1.260 . S
Eu481 C480 2.835 . S
Eu481 O500 2.473 . S
Eu481 O501 2.480 . S
Eu481 O502 2.430 . S
Eu481 O503 2.670 . S
Eu481 O504 2.394 . S
Eu481 O509 2.355 . S
Eu481 O511 2.374 . S
C482 C480 1.500 . S
C482 C483 1.377 . S
C482 C487 1.377 . S
C483 C482 1.377 . S
C483 C484 1.395 . S
C483 H512 0.931 . S
C484 C483 1.395 . S
C484 C485 1.383 . S
C484 H513 0.931 . S
C485 C484 1.383 . S
C485 C486 1.394 . S
C486 C485 1.394 . S
C486 C487 1.378 . S
C486 H514 0.931 . S
C487 C482 1.377 . S
C487 C486 1.378 . S
C487 H515 0.931 . S
C488 O502 1.259 . S
C488 O503 1.270 . S
C489 O504 1.251 . S
C489 O505 1.251 . S
C490 Eu491 2.835 . S
C490 C492 1.500 . S
C490 O506 1.257 . S
C490 O507 1.260 . S
Eu491 C490 2.835 . S
Eu491 O503 2.355 . S
Eu491 O505 2.374 . S
Eu491 O506 2.473 . S
Eu491 O507 2.480 . S
Eu491 O508 2.430 . S
Eu491 O509 2.670 . S
Eu491 O510 2.394 . S
C492 C490 1.500 . S
C492 C493 1.377 . S
C492 C497 1.377 . S
C493 C492 1.377 . S
C493 C494 1.395 . S
C493 H516 0.931 . S
C494 C493 1.395 . S
C494 C495 1.383 . S
C494 H517 0.931 . S
C495 C494 1.383 . S
C495 C496 1.394 . S
C496 C495 1.394 . S
C496 C497 1.378 . S
C496 H518 0.931 . S
C497 C492 1.377 . S
C497 C496 1.378 . S
C497 H519 0.931 . S
C498 O508 1.259 . S
C498 O509 1.270 . S
C499 O510 1.251 . S
C499 O511 1.251 . S
O500 C480 1.257 . S
O500 Eu481 2.473 . S
O501 C480 1.260 . S
O501 Eu481 2.480 . S
O502 Eu481 2.430 . S
O502 C488 1.259 . S
O503 Eu481 2.670 . S
O503 C488 1.270 . S
O503 Eu491 2.355 . S
O504 Eu481 2.394 . S
O504 C489 1.251 . S
O505 C489 1.251 . S
O505 Eu491 2.374 . S
O506 C490 1.257 . S
O506 Eu491 2.473 . S
O507 C490 1.260 . S
O507 Eu491 2.480 . S
O508 Eu491 2.430 . S
O508 C498 1.259 . S
O509 Eu481 2.355 . S
O509 Eu491 2.670 . S
O509 C498 1.270 . S
O510 Eu491 2.394 . S
O510 C499 1.251 . S
O511 Eu481 2.374 . S
O511 C499 1.251 . S
H512 C483 0.931 . S
H513 C484 0.931 . S
H514 C486 0.931 . S
H515 C487 0.931 . S
H516 C493 0.931 . S
H517 C494 0.931 . S
H518 C496 0.931 . S
H519 C497 0.931 . S
C520 Eu521 2.835 . S
C520 C522 1.500 . S
C520 O540 1.257 . S
C520 O541 1.260 . S
Eu521 C520 2.835 . S
Eu521 O540 2.473 . S
Eu521 O541 2.480 . S
Eu521 O542 2.430 1_565 S
Eu521 O543 2.670 . S
Eu521 O544 2.394 . S
Eu521 O549 2.355 . S
Eu521 O551 2.374 1_565 S
C522 C520 1.500 . S
C522 C523 1.377 1_655 S
C522 C527 1.377 . S
C523 C522 1.377 1_455 S
C523 C524 1.395 . S
C523 H552 0.931 . S
C524 C523 1.395 . S
C524 C525 1.383 . S
C524 H553 0.931 . S
C525 C524 1.383 . S
C525 C526 1.394 1_455 S
C526 C525 1.394 1_655 S
C526 C527 1.378 . S
C526 H554 0.931 . S
C527 C522 1.377 . S
C527 C526 1.378 . S
C527 H555 0.931 . S
C528 O542 1.259 . S
C528 O543 1.270 1_545 S
C529 O544 1.251 . S
C529 O545 1.251 . S
C530 Eu531 2.835 . S
C530 C532 1.500 . S
C530 O546 1.257 . S
C530 O547 1.260 . S
Eu531 C530 2.835 . S
Eu531 O543 2.355 . S
Eu531 O545 2.374 . S
Eu531 O546 2.473 . S
Eu531 O547 2.480 . S
Eu531 O548 2.430 . S
Eu531 O549 2.670 . S
Eu531 O550 2.394 1_565 S
C532 C530 1.500 . S
C532 C533 1.377 . S
C532 C537 1.377 1_565 S
C533 C532 1.377 . S
C533 C534 1.395 . S
C533 H556 0.931 . S
C534 C533 1.395 . S
C534 C535 1.383 1_565 S
C534 H557 0.931 . S
C535 C534 1.383 1_545 S
C535 C536 1.394 . S
C536 C535 1.394 . S
C536 C537 1.378 . S
C536 H558 0.931 . S
C537 C532 1.377 1_545 S
C537 C536 1.378 . S
C537 H559 0.931 . S
C538 O548 1.259 . S
C538 O549 1.270 . S
C539 O550 1.251 . S
C539 O551 1.251 . S
O540 C520 1.257 . S
O540 Eu521 2.473 . S
O541 C520 1.260 . S
O541 Eu521 2.480 . S
O542 Eu521 2.430 1_545 S
O542 C528 1.259 . S
O543 Eu521 2.670 . S
O543 C528 1.270 1_565 S
O543 Eu531 2.355 . S
O544 Eu521 2.394 . S
O544 C529 1.251 . S
O545 C529 1.251 . S
O545 Eu531 2.374 . S
O546 C530 1.257 . S
O546 Eu531 2.473 . S
O547 C530 1.260 . S
O547 Eu531 2.480 . S
O548 Eu531 2.430 . S
O548 C538 1.259 . S
O549 Eu521 2.355 . S
O549 Eu531 2.670 . S
O549 C538 1.270 . S
O550 Eu531 2.394 1_545 S
O550 C539 1.251 . S
O551 Eu521 2.374 1_545 S
O551 C539 1.251 . S
H552 C523 0.931 . S
H553 C524 0.931 . S
H554 C526 0.931 . S
H555 C527 0.931 . S
H556 C533 0.931 . S
H557 C534 0.931 . S
H558 C536 0.931 . S
H559 C537 0.931 . S
C560 Eu561 2.835 . S
C560 C562 1.500 . S
C560 O580 1.257 . S
C560 O581 1.260 . S
Eu561 C560 2.835 . S
Eu561 O580 2.473 . S
Eu561 O581 2.480 . S
Eu561 O582 2.430 . S
Eu561 O583 2.670 . S
Eu561 O584 2.394 . S
Eu561 O589 2.355 . S
Eu561 O591 2.374 . S
C562 C560 1.500 . S
C562 C563 1.377 . S
C562 C567 1.377 . S
C563 C562 1.377 . S
C563 C564 1.395 . S
C563 H592 0.931 . S
C564 C563 1.395 . S
C564 C565 1.383 . S
C564 H593 0.931 . S
C565 C564 1.383 . S
C565 C566 1.394 . S
C566 C565 1.394 . S
C566 C567 1.378 . S
C566 H594 0.931 . S
C567 C562 1.377 . S
C567 C566 1.378 . S
C567 H595 0.931 . S
C568 O582 1.259 . S
C568 O583 1.270 . S
C569 O584 1.251 . S
C569 O585 1.251 . S
C570 Eu571 2.835 . S
C570 C572 1.500 . S
C570 O586 1.257 . S
C570 O587 1.260 . S
Eu571 C570 2.835 . S
Eu571 O583 2.355 . S
Eu571 O585 2.374 . S
Eu571 O586 2.473 . S
Eu571 O587 2.480 . S
Eu571 O588 2.430 . S
Eu571 O589 2.670 . S
Eu571 O590 2.394 . S
C572 C570 1.500 . S
C572 C573 1.377 . S
C572 C577 1.377 . S
C573 C572 1.377 . S
C573 C574 1.395 . S
C573 H596 0.931 . S
C574 C573 1.395 . S
C574 C575 1.383 . S
C574 H597 0.931 . S
C575 C574 1.383 . S
C575 C576 1.394 . S
C576 C575 1.394 . S
C576 C577 1.378 . S
C576 H598 0.931 . S
C577 C572 1.377 . S
C577 C576 1.378 . S
C577 H599 0.931 . S
C578 O588 1.259 . S
C578 O589 1.270 . S
C579 O590 1.251 . S
C579 O591 1.251 . S
O580 C560 1.257 . S
O580 Eu561 2.473 . S
O581 C560 1.260 . S
O581 Eu561 2.480 . S
O582 Eu561 2.430 . S
O582 C568 1.259 . S
O583 Eu561 2.670 . S
O583 C568 1.270 . S
O583 Eu571 2.355 . S
O584 Eu561 2.394 . S
O584 C569 1.251 . S
O585 C569 1.251 . S
O585 Eu571 2.374 . S
O586 C570 1.257 . S
O586 Eu571 2.473 . S
O587 C570 1.260 . S
O587 Eu571 2.480 . S
O588 Eu571 2.430 . S
O588 C578 1.259 . S
O589 Eu561 2.355 . S
O589 Eu571 2.670 . S
O589 C578 1.270 . S
O590 Eu571 2.394 . S
O590 C579 1.251 . S
O591 Eu561 2.374 . S
O591 C579 1.251 . S
H592 C563 0.931 . S
H593 C564 0.931 . S
H594 C566 0.931 . S
H595 C567 0.931 . S
H596 C573 0.931 . S
H597 C574 0.931 . S
H598 C576 0.931 . S
H599 C577 0.931 . S
C600 Eu601 2.835 . S
C600 C602 1.500 . S
C600 O620 1.257 . S
C600 O621 1.260 . S
Eu601 C600 2.835 . S
Eu601 O620 2.473 . S
Eu601 O621 2.480 . S
Eu601 O622 2.430 1_545 S
Eu601 O623 2.670 . S
Eu601 O624 2.394 . S
Eu601 O629 2.355 . S
Eu601 O631 2.374 1_545 S
C602 C600 1.500 . S
C602 C603 1.377 . S
C602 C607 1.377 . S
C603 C602 1.377 . S
C603 C604 1.395 . S
C603 H632 0.931 . S
C604 C603 1.395 . S
C604 C605 1.383 . S
C604 H633 0.931 . S
C605 C604 1.383 . S
C605 C606 1.394 . S
C606 C605 1.394 . S
C606 C607 1.378 . S
C606 H634 0.931 . S
C607 C602 1.377 . S
C607 C606 1.378 . S
C607 H635 0.931 . S
C608 O622 1.259 . S
C608 O623 1.270 1_565 S
C609 O624 1.251 . S
C609 O625 1.251 . S
C610 Eu611 2.835 . S
C610 C612 1.500 . S
C610 O626 1.257 . S
C610 O627 1.260 . S
Eu611 C610 2.835 . S
Eu611 O623 2.355 . S
Eu611 O625 2.374 . S
Eu611 O626 2.473 . S
Eu611 O627 2.480 . S
Eu611 O628 2.430 . S
Eu611 O629 2.670 . S
Eu611 O630 2.394 1_545 S
C612 C610 1.500 . S
C612 C613 1.377 . S
C612 C617 1.377 1_545 S
C613 C612 1.377 . S
C613 C614 1.395 . S
C613 H636 0.931 . S
C614 C613 1.395 . S
C614 C615 1.383 1_545 S
C614 H637 0.931 . S
C615 C614 1.383 1_565 S
C615 C616 1.394 . S
C616 C615 1.394 . S
C616 C617 1.378 . S
C616 H638 0.931 . S
C617 C612 1.377 1_565 S
C617 C616 1.378 . S
C617 H639 0.931 . S
C618 O628 1.259 . S
C618 O629 1.270 . S
C619 O630 1.251 . S
C619 O631 1.251 . S
O620 C600 1.257 . S
O620 Eu601 2.473 . S
O621 C600 1.260 . S
O621 Eu601 2.480 . S
O622 Eu601 2.430 1_565 S
O622 C608 1.259 . S
O623 Eu601 2.670 . S
O623 C608 1.270 1_545 S
O623 Eu611 2.355 . S
O624 Eu601 2.394 . S
O624 C609 1.251 . S
O625 C609 1.251 . S
O625 Eu611 2.374 . S
O626 C610 1.257 . S
O626 Eu611 2.473 . S
O627 C610 1.260 . S
O627 Eu611 2.480 . S
O628 Eu611 2.430 . S
O628 C618 1.259 . S
O629 Eu601 2.355 . S
O629 Eu611 2.670 . S
O629 C618 1.270 . S
O630 Eu611 2.394 1_565 S
O630 C619 1.251 . S
O631 Eu601 2.374 1_565 S
O631 C619 1.251 . S
H632 C603 0.931 . S
H633 C604 0.931 . S
H634 C606 0.931 . S
H635 C607 0.931 . S
H636 C613 0.931 . S
H637 C614 0.931 . S
H638 C616 0.931 . S
H639 C617 0.931 . S
H640 C646 0.930 . S
H641 C649 0.930 . S
H642 C650 0.930 . S
H643 C651 0.930 . S
H644 C654 0.930 . S
H645 C655 0.930 . S
C646 H640 0.930 . S
C646 C647 1.355 . S
C646 C648 1.415 . S
C647 C646 1.355 . S
C647 C649 1.419 . S
C648 C646 1.415 . S
C648 C653 1.425 . S
C648 C655 1.409 . S
C649 H641 0.930 . S
C649 C647 1.419 . S
C649 C650 1.362 . S
C650 H642 0.930 . S
C650 C649 1.362 . S
C650 C653 1.409 . S
C651 H643 0.930 . S
C651 C652 1.355 . S
C651 C653 1.415 . S
C652 C651 1.355 . S
C652 C654 1.419 . S
C653 C648 1.425 . S
C653 C650 1.409 . S
C653 C651 1.415 . S
C654 H644 0.930 . S
C654 C652 1.419 . S
C654 C655 1.362 . S
C655 H645 0.930 . S
C655 C648 1.409 . S
C655 C654 1.362 . S
H656 C662 0.930 . S
H657 C665 0.930 . S
H658 C666 0.930 . S
H659 C667 0.930 . S
H660 C670 0.930 . S
H661 C671 0.930 . S
C662 H656 0.930 . S
C662 C663 1.355 . S
C662 C664 1.415 . S
C663 C662 1.355 . S
C663 C665 1.419 . S
C664 C662 1.415 . S
C664 C669 1.425 . S
C664 C671 1.409 . S
C665 H657 0.930 . S
C665 C663 1.419 . S
C665 C666 1.362 . S
C666 H658 0.930 . S
C666 C665 1.362 . S
C666 C669 1.409 . S
C667 H659 0.930 . S
C667 C668 1.355 . S
C667 C669 1.415 . S
C668 C667 1.355 . S
C668 C670 1.419 . S
C669 C664 1.425 . S
C669 C666 1.409 . S
C669 C667 1.415 . S
C670 H660 0.930 . S
C670 C668 1.419 . S
C670 C671 1.362 . S
C671 H661 0.930 . S
C671 C664 1.409 . S
C671 C670 1.362 . S
H672 C678 0.930 . S
H673 C681 0.930 . S
H674 C682 0.930 . S
H675 C683 0.930 . S
H676 C686 0.930 . S
H677 C687 0.930 . S
C678 H672 0.930 . S
C678 C679 1.355 . S
C678 C680 1.415 . S
C679 C678 1.355 . S
C679 C681 1.419 . S
C680 C678 1.415 . S
C680 C685 1.425 . S
C680 C687 1.409 . S
C681 H673 0.930 . S
C681 C679 1.419 . S
C681 C682 1.362 . S
C682 H674 0.930 . S
C682 C681 1.362 . S
C682 C685 1.409 . S
C683 H675 0.930 . S
C683 C684 1.355 . S
C683 C685 1.415 . S
C684 C683 1.355 . S
C684 C686 1.419 . S
C685 C680 1.425 . S
C685 C682 1.409 . S
C685 C683 1.415 . S
C686 H676 0.930 . S
C686 C684 1.419 . S
C686 C687 1.362 . S
C687 H677 0.930 . S
C687 C680 1.409 . S
C687 C686 1.362 . S
H688 C694 0.930 . S
H689 C697 0.930 . S
H690 C698 0.930 . S
H691 C699 0.930 . S
H692 C702 0.930 . S
H693 C703 0.930 . S
C694 H688 0.930 . S
C694 C695 1.355 1_655 S
C694 C696 1.415 . S
C695 C694 1.355 1_455 S
C695 C697 1.419 1_556 S
C696 C694 1.415 . S
C696 C701 1.425 1_656 S
C696 C703 1.409 . S
C697 H689 0.930 . S
C697 C695 1.419 1_554 S
C697 C698 1.362 . S
C698 H690 0.930 . S
C698 C697 1.362 . S
C698 C701 1.409 . S
C699 H691 0.930 . S
C699 C700 1.355 1_455 S
C699 C701 1.415 . S
C700 C699 1.355 1_655 S
C700 C702 1.419 1_554 S
C701 C696 1.425 1_454 S
C701 C698 1.409 . S
C701 C699 1.415 . S
C702 H692 0.930 . S
C702 C700 1.419 1_556 S
C702 C703 1.362 . S
C703 H693 0.930 . S
C703 C696 1.409 . S
C703 C702 1.362 . S
H704 C710 0.930 . S
H705 C713 0.930 . S
H706 C714 0.930 . S
H707 C715 0.930 . S
H708 C718 0.930 . S
H709 C719 0.930 . S
C710 H704 0.930 . S
C710 C711 1.355 . S
C710 C712 1.415 . S
C711 C710 1.355 . S
C711 C713 1.419 . S
C712 C710 1.415 . S
C712 C717 1.425 . S
C712 C719 1.409 . S
C713 H705 0.930 . S
C713 C711 1.419 . S
C713 C714 1.362 . S
C714 H706 0.930 . S
C714 C713 1.362 . S
C714 C717 1.409 . S
C715 H707 0.930 . S
C715 C716 1.355 . S
C715 C717 1.415 . S
C716 C715 1.355 . S
C716 C718 1.419 . S
C717 C712 1.425 . S
C717 C714 1.409 . S
C717 C715 1.415 . S
C718 H708 0.930 . S
C718 C716 1.419 . S
C718 C719 1.362 . S
C719 H709 0.930 . S
C719 C712 1.409 . S
C719 C718 1.362 . S
H720 C726 0.930 . S
H721 C729 0.930 . S
H722 C730 0.930 . S
H723 C731 0.930 . S
H724 C734 0.930 . S
H725 C735 0.930 . S
C726 H720 0.930 . S
C726 C727 1.355 . S
C726 C728 1.415 . S
C727 C726 1.355 . S
C727 C729 1.419 . S
C728 C726 1.415 . S
C728 C733 1.425 . S
C728 C735 1.409 . S
C729 H721 0.930 . S
C729 C727 1.419 . S
C729 C730 1.362 . S
C730 H722 0.930 . S
C730 C729 1.362 . S
C730 C733 1.409 . S
C731 H723 0.930 . S
C731 C732 1.355 . S
C731 C733 1.415 . S
C732 C731 1.355 . S
C732 C734 1.419 . S
C733 C728 1.425 . S
C733 C730 1.409 . S
C733 C731 1.415 . S
C734 H724 0.930 . S
C734 C732 1.419 . S
C734 C735 1.362 . S
C735 H725 0.930 . S
C735 C728 1.409 . S
C735 C734 1.362 . S
H736 C742 0.930 . S
H737 C745 0.930 . S
H738 C746 0.930 . S
H739 C747 0.930 . S
H740 C750 0.930 . S
H741 C751 0.930 . S
C742 H736 0.930 . S
C742 C743 1.355 1_655 S
C742 C744 1.415 . S
C743 C742 1.355 1_455 S
C743 C745 1.419 1_554 S
C744 C742 1.415 . S
C744 C749 1.425 1_664 S
C744 C751 1.409 1_565 S
C745 H737 0.930 . S
C745 C743 1.419 1_556 S
C745 C746 1.362 . S
C746 H738 0.930 . S
C746 C745 1.362 . S
C746 C749 1.409 1_565 S
C747 H739 0.930 . S
C747 C748 1.355 1_455 S
C747 C749 1.415 . S
C748 C747 1.355 1_655 S
C748 C750 1.419 1_556 S
C749 C744 1.425 1_446 S
C749 C746 1.409 1_545 S
C749 C747 1.415 . S
C750 H740 0.930 . S
C750 C748 1.419 1_554 S
C750 C751 1.362 . S
C751 H741 0.930 . S
C751 C744 1.409 1_545 S
C751 C750 1.362 . S
H752 C758 0.930 . S
H753 C761 0.930 . S
H754 C762 0.930 1_545 S
H755 C763 0.930 . S
H756 C766 0.930 . S
H757 C767 0.930 1_565 S
C758 H752 0.930 . S
C758 C759 1.355 . S
C758 C760 1.415 . S
C759 C758 1.355 . S
C759 C761 1.419 . S
C760 C758 1.415 . S
C760 C765 1.425 1_565 S
C760 C767 1.409 1_565 S
C761 H753 0.930 . S
C761 C759 1.419 . S
C761 C762 1.362 . S
C762 H754 0.930 1_565 S
C762 C761 1.362 . S
C762 C765 1.409 1_565 S
C763 H755 0.930 . S
C763 C764 1.355 . S
C763 C765 1.415 . S
C764 C763 1.355 . S
C764 C766 1.419 . S
C765 C760 1.425 1_545 S
C765 C762 1.409 1_545 S
C765 C763 1.415 . S
C766 H756 0.930 . S
C766 C764 1.419 . S
C766 C767 1.362 . S
C767 H757 0.930 1_545 S
C767 C760 1.409 1_545 S
C767 C766 1.362 . S
H768 C774 0.930 . S
H769 C777 0.930 . S
H770 C778 0.930 . S
H771 C779 0.930 . S
H772 C782 0.930 . S
H773 C783 0.930 . S
C774 H768 0.930 . S
C774 C775 1.355 . S
C774 C776 1.415 . S
C775 C774 1.355 . S
C775 C777 1.419 . S
C776 C774 1.415 . S
C776 C781 1.425 . S
C776 C783 1.409 . S
C777 H769 0.930 . S
C777 C775 1.419 . S
C777 C778 1.362 . S
C778 H770 0.930 . S
C778 C777 1.362 . S
C778 C781 1.409 . S
C779 H771 0.930 . S
C779 C780 1.355 . S
C779 C781 1.415 . S
C780 C779 1.355 . S
C780 C782 1.419 . S
C781 C776 1.425 . S
C781 C778 1.409 . S
C781 C779 1.415 . S
C782 H772 0.930 . S
C782 C780 1.419 . S
C782 C783 1.362 . S
C783 H773 0.930 . S
C783 C776 1.409 . S
C783 C782 1.362 . S
H784 C790 0.930 . S
H785 C793 0.930 . S
H786 C794 0.930 . S
H787 C795 0.930 . S
H788 C798 0.930 . S
H789 C799 0.930 . S
C790 H784 0.930 . S
C790 C791 1.355 . S
C790 C792 1.415 . S
C791 C790 1.355 . S
C791 C793 1.419 . S
C792 C790 1.415 . S
C792 C797 1.425 . S
C792 C799 1.409 . S
C793 H785 0.930 . S
C793 C791 1.419 . S
C793 C794 1.362 . S
C794 H786 0.930 . S
C794 C793 1.362 . S
C794 C797 1.409 . S
C795 H787 0.930 . S
C795 C796 1.355 . S
C795 C797 1.415 . S
C796 C795 1.355 . S
C796 C798 1.419 . S
C797 C792 1.425 . S
C797 C794 1.409 . S
C797 C795 1.415 . S
C798 H788 0.930 . S
C798 C796 1.419 . S
C798 C799 1.362 . S
C799 H789 0.930 . S
C799 C792 1.409 . S
C799 C798 1.362 . S
H800 C806 0.930 . S
H801 C809 0.930 . S
H802 C810 0.930 . S
H803 C811 0.930 . S
H804 C814 0.930 . S
H805 C815 0.930 . S
C806 H800 0.930 . S
C806 C807 1.355 . S
C806 C808 1.415 . S
C807 C806 1.355 . S
C807 C809 1.419 . S
C808 C806 1.415 . S
C808 C813 1.425 . S
C808 C815 1.409 . S
C809 H801 0.930 . S
C809 C807 1.419 . S
C809 C810 1.362 . S
C810 H802 0.930 . S
C810 C809 1.362 . S
C810 C813 1.409 . S
C811 H803 0.930 . S
C811 C812 1.355 . S
C811 C813 1.415 . S
C812 C811 1.355 . S
C812 C814 1.419 . S
C813 C808 1.425 . S
C813 C810 1.409 . S
C813 C811 1.415 . S
C814 H804 0.930 . S
C814 C812 1.419 . S
C814 C815 1.362 . S
C815 H805 0.930 . S
C815 C808 1.409 . S
C815 C814 1.362 . S
H816 C822 0.930 . S
H817 C825 0.930 . S
H818 C826 0.930 . S
H819 C827 0.930 . S
H820 C830 0.930 . S
H821 C831 0.930 . S
C822 H816 0.930 . S
C822 C823 1.355 . S
C822 C824 1.415 . S
C823 C822 1.355 . S
C823 C825 1.419 . S
C824 C822 1.415 . S
C824 C829 1.425 . S
C824 C831 1.409 . S
C825 H817 0.930 . S
C825 C823 1.419 . S
C825 C826 1.362 . S
C826 H818 0.930 . S
C826 C825 1.362 . S
C826 C829 1.409 . S
C827 H819 0.930 . S
C827 C828 1.355 . S
C827 C829 1.415 . S
C828 C827 1.355 . S
C828 C830 1.419 . S
C829 C824 1.425 . S
C829 C826 1.409 . S
C829 C827 1.415 . S
C830 H820 0.930 . S
C830 C828 1.419 . S
C830 C831 1.362 . S
C831 H821 0.930 . S
C831 C824 1.409 . S
C831 C830 1.362 . S
H832 C838 0.930 . S
H833 C841 0.930 1_545 S
H834 C842 0.930 . S
H835 C843 0.930 . S
H836 C846 0.975 . S
H837 C847 0.930 . S
C838 H832 0.930 . S
C838 C839 1.355 . S
C838 C840 1.415 . S
C839 C838 1.355 . S
C839 C841 1.419 . S
C840 C838 1.415 . S
C840 C845 1.425 . S
C840 C847 1.409 . S
C841 H833 0.930 1_565 S
C841 C839 1.419 . S
C841 C842 1.362 1_565 S
C842 H834 0.930 . S
C842 C841 1.362 1_545 S
C842 C845 1.409 1_545 S
C843 H835 0.930 . S
C843 C844 1.355 1_545 S
C843 C845 1.415 1_545 S
C844 C843 1.355 1_565 S
C844 C846 1.419 . S
C845 C840 1.425 . S
C845 C842 1.409 1_565 S
C845 C843 1.415 1_565 S
C846 H836 0.975 . S
C846 C844 1.419 . S
C846 C847 1.362 . S
C847 H837 0.930 . S
C847 C840 1.409 . S
C847 C846 1.362 . S
H848 C854 0.930 . S
H849 C857 0.930 . S
H850 C858 0.930 . S
H851 C859 0.930 . S
H852 C862 0.930 . S
H853 C863 0.930 . S
C854 H848 0.930 . S
C854 C855 1.355 . S
C854 C856 1.415 . S
C855 C854 1.355 . S
C855 C857 1.419 . S
C856 C854 1.415 . S
C856 C861 1.425 . S
C856 C863 1.409 . S
C857 H849 0.930 . S
C857 C855 1.419 . S
C857 C858 1.362 . S
C858 H850 0.930 . S
C858 C857 1.362 . S
C858 C861 1.409 . S
C859 H851 0.930 . S
C859 C860 1.355 . S
C859 C861 1.415 . S
C860 C859 1.355 . S
C860 C862 1.419 . S
C861 C856 1.425 . S
C861 C858 1.409 . S
C861 C859 1.415 . S
C862 H852 0.930 . S
C862 C860 1.419 . S
C862 C863 1.362 . S
C863 H853 0.930 . S
C863 C856 1.409 . S
C863 C862 1.362 . S
H864 C870 0.930 . S
H865 C873 0.930 . S
H866 C874 0.930 . S
H867 C875 0.930 1_565 S
H868 C878 0.930 . S
H869 C879 0.930 . S
C870 H864 0.930 . S
C870 C871 1.355 . S
C870 C872 1.415 . S
C871 C870 1.355 . S
C871 C873 1.419 1_545 S
C872 C870 1.415 . S
C872 C877 1.425 . S
C872 C879 1.409 . S
C873 H865 0.930 . S
C873 C871 1.419 1_565 S
C873 C874 1.362 . S
C874 H866 0.930 . S
C874 C873 1.362 . S
C874 C877 1.409 1_565 S
C875 H867 0.930 1_545 S
C875 C876 1.355 . S
C875 C877 1.415 . S
C876 C875 1.355 . S
C876 C878 1.419 . S
C877 C872 1.425 . S
C877 C874 1.409 1_545 S
C877 C875 1.415 . S
C878 H868 0.930 . S
C878 C876 1.419 . S
C878 C879 1.362 . S
C879 H869 0.930 . S
C879 C872 1.409 . S
C879 C878 1.362 . S
H880 C886 0.930 . S
H881 C889 0.930 . S
H882 C890 0.930 . S
H883 C891 0.930 . S
H884 C894 0.930 . S
H885 C895 0.930 . S
C886 H880 0.930 . S
C886 C887 1.355 . S
C886 C888 1.415 . S
C887 C886 1.355 . S
C887 C889 1.419 . S
C888 C886 1.415 . S
C888 C893 1.425 . S
C888 C895 1.409 . S
C889 H881 0.930 . S
C889 C887 1.419 . S
C889 C890 1.362 . S
C890 H882 0.930 . S
C890 C889 1.362 . S
C890 C893 1.409 . S
C891 H883 0.930 . S
C891 C892 1.355 . S
C891 C893 1.415 . S
C892 C891 1.355 . S
C892 C894 1.419 . S
C893 C888 1.425 . S
C893 C890 1.409 . S
C893 C891 1.415 . S
C894 H884 0.930 . S
C894 C892 1.419 . S
C894 C895 1.362 . S
C895 H885 0.930 . S
C895 C888 1.409 . S
C895 C894 1.362 . S
H896 C902 0.930 . S
H897 C905 0.930 . S
H898 C906 0.930 . S
H899 C907 0.930 . S
H900 C910 0.930 . S
H901 C911 0.930 . S
C902 H896 0.930 . S
C902 C903 1.355 . S
C902 C904 1.415 . S
C903 C902 1.355 . S
C903 C905 1.419 . S
C904 C902 1.415 . S
C904 C909 1.425 . S
C904 C911 1.409 . S
C905 H897 0.930 . S
C905 C903 1.419 . S
C905 C906 1.362 . S
C906 H898 0.930 . S
C906 C905 1.362 . S
C906 C909 1.409 . S
C907 H899 0.930 . S
C907 C908 1.355 . S
C907 C909 1.415 . S
C908 C907 1.355 . S
C908 C910 1.419 . S
C909 C904 1.425 . S
C909 C906 1.409 . S
C909 C907 1.415 . S
C910 H900 0.930 . S
C910 C908 1.419 . S
C910 C911 1.362 . S
C911 H901 0.930 . S
C911 C904 1.409 . S
C911 C910 1.362 . S
H912 C918 0.930 . S
H913 C921 0.930 1_545 S
H914 C922 0.930 1_545 S
H915 C923 0.930 . S
H916 C926 0.930 . S
H917 C927 0.930 . S
C918 H912 0.930 . S
C918 C919 1.355 . S
C918 C920 1.415 . S
C919 C918 1.355 . S
C919 C921 1.419 . S
C920 C918 1.415 . S
C920 C925 1.425 . S
C920 C927 1.409 . S
C921 H913 0.930 1_565 S
C921 C919 1.419 . S
C921 C922 1.362 . S
C922 H914 0.930 1_565 S
C922 C921 1.362 . S
C922 C925 1.409 . S
C923 H915 0.930 . S
C923 C924 1.355 . S
C923 C925 1.415 . S
C924 C923 1.355 . S
C924 C926 1.419 . S
C925 C920 1.425 . S
C925 C922 1.409 . S
C925 C923 1.415 . S
C926 H916 0.930 . S
C926 C924 1.419 . S
C926 C927 1.362 . S
C927 H917 0.930 . S
C927 C920 1.409 . S
C927 C926 1.362 . S
H928 C934 0.930 . S
H929 C937 0.930 . S
H930 C938 0.930 . S
H931 C939 0.930 . S
H932 C942 0.930 . S
H933 C943 0.930 . S
C934 H928 0.930 . S
C934 C935 1.355 . S
C934 C936 1.415 . S
C935 C934 1.355 . S
C935 C937 1.419 . S
C936 C934 1.415 . S
C936 C941 1.425 . S
C936 C943 1.409 . S
C937 H929 0.930 . S
C937 C935 1.419 . S
C937 C938 1.362 . S
C938 H930 0.930 . S
C938 C937 1.362 . S
C938 C941 1.409 . S
C939 H931 0.930 . S
C939 C940 1.355 . S
C939 C941 1.415 . S
C940 C939 1.355 . S
C940 C942 1.419 . S
C941 C936 1.425 . S
C941 C938 1.409 . S
C941 C939 1.415 . S
C942 H932 0.930 . S
C942 C940 1.419 . S
C942 C943 1.362 . S
C943 H933 0.930 . S
C943 C936 1.409 . S
C943 C942 1.362 . S
H944 C950 0.930 . S
H945 C953 0.930 . S
H946 C954 0.930 . S
H947 C955 0.930 . S
H948 C958 0.930 1_565 S
H949 C959 0.930 1_565 S
C950 H944 0.930 . S
C950 C951 1.355 . S
C950 C952 1.415 . S
C951 C950 1.355 . S
C951 C953 1.419 . S
C952 C950 1.415 . S
C952 C957 1.425 . S
C952 C959 1.409 . S
C953 H945 0.930 . S
C953 C951 1.419 . S
C953 C954 1.362 . S
C954 H946 0.930 . S
C954 C953 1.362 . S
C954 C957 1.409 . S
C955 H947 0.930 . S
C955 C956 1.355 . S
C955 C957 1.415 . S
C956 C955 1.355 . S
C956 C958 1.419 . S
C957 C952 1.425 . S
C957 C954 1.409 . S
C957 C955 1.415 . S
C958 H948 0.930 1_545 S
C958 C956 1.419 . S
C958 C959 1.362 . S
C959 H949 0.930 1_545 S
C959 C952 1.409 . S
C959 C958 1.362 . S
H960 C966 0.930 . S
H961 C969 0.930 . S
H962 C970 0.930 . S
H963 C971 0.930 . S
H964 C974 0.930 . S
H965 C975 0.930 . S
C966 H960 0.930 . S
C966 C967 1.355 . S
C966 C968 1.415 . S
C967 C966 1.355 . S
C967 C969 1.419 . S
C968 C966 1.415 . S
C968 C973 1.425 . S
C968 C975 1.409 . S
C969 H961 0.930 . S
C969 C967 1.419 . S
C969 C970 1.362 . S
C970 H962 0.930 . S
C970 C969 1.362 . S
C970 C973 1.409 . S
C971 H963 0.930 . S
C971 C972 1.355 . S
C971 C973 1.415 . S
C972 C971 1.355 . S
C972 C974 1.419 . S
C973 C968 1.425 . S
C973 C970 1.409 . S
C973 C971 1.415 . S
C974 H964 0.930 . S
C974 C972 1.419 . S
C974 C975 1.362 . S
C975 H965 0.930 . S
C975 C968 1.409 . S
C975 C974 1.362 . S
H976 C982 0.930 . S
H977 C985 0.930 . S
H978 C986 0.930 . S
H979 C987 0.930 . S
H980 C990 0.930 . S
H981 C991 0.930 . S
C982 H976 0.930 . S
C982 C983 1.355 . S
C982 C984 1.415 . S
C983 C982 1.355 . S
C983 C985 1.419 . S
C984 C982 1.415 . S
C984 C989 1.425 . S
C984 C991 1.409 . S
C985 H977 0.930 . S
C985 C983 1.419 . S
C985 C986 1.362 . S
C986 H978 0.930 . S
C986 C985 1.362 . S
C986 C989 1.409 . S
C987 H979 0.930 . S
C987 C988 1.355 . S
C987 C989 1.415 . S
C988 C987 1.355 . S
C988 C990 1.419 . S
C989 C984 1.425 . S
C989 C986 1.409 . S
C989 C987 1.415 . S
C990 H980 0.930 . S
C990 C988 1.419 . S
C990 C991 1.362 . S
C991 H981 0.930 . S
C991 C984 1.409 . S
C991 C990 1.362 . S
H992 C998 0.930 . S
H993 C1001 0.930 . S
H994 C1002 0.930 . S
H995 C1003 0.930 . S
H996 C1006 0.930 . S
H997 C1007 0.930 . S
C998 H992 0.930 . S
C998 C999 1.355 . S
C998 C1000 1.415 . S
C999 C998 1.355 . S
C999 C1001 1.419 . S
C1000 C998 1.415 . S
C1000 C1005 1.425 . S
C1000 C1007 1.409 . S
C1001 H993 0.930 . S
C1001 C999 1.419 . S
C1001 C1002 1.362 . S
C1002 H994 0.930 . S
C1002 C1001 1.362 . S
C1002 C1005 1.409 . S
C1003 H995 0.930 . S
C1003 C1004 1.355 . S
C1003 C1005 1.415 . S
C1004 C1003 1.355 . S
C1004 C1006 1.419 . S
C1005 C1000 1.425 . S
C1005 C1002 1.409 . S
C1005 C1003 1.415 . S
C1006 H996 0.930 . S
C1006 C1004 1.419 . S
C1006 C1007 1.362 . S
C1007 H997 0.930 . S
C1007 C1000 1.409 . S
C1007 C1006 1.362 . S
H1008 C1014 0.930 . S
H1009 C1017 0.930 . S
H1010 C1018 0.930 . S
H1011 C1019 0.930 . S
H1012 C1022 0.930 . S
H1013 C1023 0.930 1_545 S
C1014 H1008 0.930 . S
C1014 C1015 1.355 . S
C1014 C1016 1.415 . S
C1015 C1014 1.355 . S
C1015 C1017 1.419 . S
C1016 C1014 1.415 . S
C1016 C1021 1.425 . S
C1016 C1023 1.409 . S
C1017 H1009 0.930 . S
C1017 C1015 1.419 . S
C1017 C1018 1.362 . S
C1018 H1010 0.930 . S
C1018 C1017 1.362 . S
C1018 C1021 1.409 . S
C1019 H1011 0.930 . S
C1019 C1020 1.355 . S
C1019 C1021 1.415 . S
C1020 C1019 1.355 . S
C1020 C1022 1.419 . S
C1021 C1016 1.425 . S
C1021 C1018 1.409 . S
C1021 C1019 1.415 . S
C1022 H1012 0.930 . S
C1022 C1020 1.419 . S
C1022 C1023 1.362 . S
C1023 H1013 0.930 1_565 S
C1023 C1016 1.409 . S
C1023 C1022 1.362 . S
H1024 C1030 0.930 . S
H1025 C1033 0.930 . S
H1026 C1034 0.930 . S
H1027 C1035 0.930 . S
H1028 C1038 0.930 . S
H1029 C1039 0.930 . S
C1030 H1024 0.930 . S
C1030 C1031 1.355 . S
C1030 C1032 1.415 . S
C1031 C1030 1.355 . S
C1031 C1033 1.419 . S
C1032 C1030 1.415 . S
C1032 C1037 1.425 . S
C1032 C1039 1.409 . S
C1033 H1025 0.930 . S
C1033 C1031 1.419 . S
C1033 C1034 1.362 . S
C1034 H1026 0.930 . S
C1034 C1033 1.362 . S
C1034 C1037 1.409 . S
C1035 H1027 0.930 . S
C1035 C1036 1.355 . S
C1035 C1037 1.415 . S
C1036 C1035 1.355 . S
C1036 C1038 1.419 . S
C1037 C1032 1.425 . S
C1037 C1034 1.409 . S
C1037 C1035 1.415 . S
C1038 H1028 0.930 . S
C1038 C1036 1.419 . S
C1038 C1039 1.362 . S
C1039 H1029 0.930 . S
C1039 C1032 1.409 . S
C1039 C1038 1.362 . S
H1040 C1046 0.930 . S
H1041 C1049 0.930 . S
H1042 C1050 0.930 . S
H1043 C1051 0.930 . S
H1044 C1054 0.930 . S
H1045 C1055 0.930 . S
C1046 H1040 0.930 . S
C1046 C1047 1.355 . S
C1046 C1048 1.415 . S
C1047 C1046 1.355 . S
C1047 C1049 1.419 . S
C1048 C1046 1.415 . S
C1048 C1053 1.425 . S
C1048 C1055 1.409 . S
C1049 H1041 0.930 . S
C1049 C1047 1.419 . S
C1049 C1050 1.362 . S
C1050 H1042 0.930 . S
C1050 C1049 1.362 . S
C1050 C1053 1.409 . S
C1051 H1043 0.930 . S
C1051 C1052 1.355 . S
C1051 C1053 1.415 . S
C1052 C1051 1.355 . S
C1052 C1054 1.419 . S
C1053 C1048 1.425 . S
C1053 C1050 1.409 . S
C1053 C1051 1.415 . S
C1054 H1044 0.930 . S
C1054 C1052 1.419 . S
C1054 C1055 1.362 . S
C1055 H1045 0.930 . S
C1055 C1048 1.409 . S
C1055 C1054 1.362 . S
H1056 C1062 0.930 . S
H1057 C1065 0.930 . S
H1058 C1066 0.930 . S
H1059 C1067 0.930 . S
H1060 C1070 0.930 . S
H1061 C1071 0.930 . S
C1062 H1056 0.930 . S
C1062 C1063 1.355 . S
C1062 C1064 1.415 1_655 S
C1063 C1062 1.355 . S
C1063 C1065 1.419 . S
C1064 C1062 1.415 1_455 S
C1064 C1069 1.425 1_455 S
C1064 C1071 1.409 . S
C1065 H1057 0.930 . S
C1065 C1063 1.419 . S
C1065 C1066 1.362 . S
C1066 H1058 0.930 . S
C1066 C1065 1.362 . S
C1066 C1069 1.409 . S
C1067 H1059 0.930 . S
C1067 C1068 1.355 . S
C1067 C1069 1.415 1_455 S
C1068 C1067 1.355 . S
C1068 C1070 1.419 . S
C1069 C1064 1.425 1_655 S
C1069 C1066 1.409 . S
C1069 C1067 1.415 1_655 S
C1070 H1060 0.930 . S
C1070 C1068 1.419 . S
C1070 C1071 1.362 . S
C1071 H1061 0.930 . S
C1071 C1064 1.409 . S
C1071 C1070 1.362 . S
H1072 C1078 0.930 . S
H1073 C1081 0.930 . S
H1074 C1082 0.930 . S
H1075 C1083 0.930 . S
H1076 C1086 0.930 . S
H1077 C1087 0.930 . S
C1078 H1072 0.930 . S
C1078 C1079 1.355 . S
C1078 C1080 1.415 . S
C1079 C1078 1.355 . S
C1079 C1081 1.419 1_655 S
C1080 C1078 1.415 . S
C1080 C1085 1.425 1_655 S
C1080 C1087 1.409 . S
C1081 H1073 0.930 . S
C1081 C1079 1.419 1_455 S
C1081 C1082 1.362 . S
C1082 H1074 0.930 . S
C1082 C1081 1.362 . S
C1082 C1085 1.409 . S
C1083 H1075 0.930 . S
C1083 C1084 1.355 . S
C1083 C1085 1.415 . S
C1084 C1083 1.355 . S
C1084 C1086 1.419 1_455 S
C1085 C1080 1.425 1_455 S
C1085 C1082 1.409 . S
C1085 C1083 1.415 . S
C1086 H1076 0.930 . S
C1086 C1084 1.419 1_655 S
C1086 C1087 1.362 . S
C1087 H1077 0.930 . S
C1087 C1080 1.409 . S
C1087 C1086 1.362 . S
H1088 C1094 0.930 . S
H1089 C1097 0.930 . S
H1090 C1098 0.930 . S
H1091 C1099 0.930 . S
H1092 C1102 0.930 . S
H1093 C1103 0.930 . S
C1094 H1088 0.930 . S
C1094 C1095 1.355 . S
C1094 C1096 1.415 . S
C1095 C1094 1.355 . S
C1095 C1097 1.419 . S
C1096 C1094 1.415 . S
C1096 C1101 1.425 . S
C1096 C1103 1.409 . S
C1097 H1089 0.930 . S
C1097 C1095 1.419 . S
C1097 C1098 1.362 . S
C1098 H1090 0.930 . S
C1098 C1097 1.362 . S
C1098 C1101 1.409 . S
C1099 H1091 0.930 . S
C1099 C1100 1.355 . S
C1099 C1101 1.415 . S
C1100 C1099 1.355 . S
C1100 C1102 1.419 . S
C1101 C1096 1.425 . S
C1101 C1098 1.409 . S
C1101 C1099 1.415 . S
C1102 H1092 0.930 . S
C1102 C1100 1.419 . S
C1102 C1103 1.362 . S
C1103 H1093 0.930 . S
C1103 C1096 1.409 . S
C1103 C1102 1.362 . S
H1104 C1110 0.930 . S
H1105 C1113 0.930 . S
H1106 C1114 0.930 . S
H1107 C1115 0.930 . S
H1108 C1118 0.930 . S
H1109 C1119 0.930 . S
C1110 H1104 0.930 . S
C1110 C1111 1.355 . S
C1110 C1112 1.415 . S
C1111 C1110 1.355 . S
C1111 C1113 1.419 . S
C1112 C1110 1.415 . S
C1112 C1117 1.425 . S
C1112 C1119 1.409 . S
C1113 H1105 0.930 . S
C1113 C1111 1.419 . S
C1113 C1114 1.362 . S
C1114 H1106 0.930 . S
C1114 C1113 1.362 . S
C1114 C1117 1.409 . S
C1115 H1107 0.930 . S
C1115 C1116 1.355 . S
C1115 C1117 1.415 . S
C1116 C1115 1.355 . S
C1116 C1118 1.419 . S
C1117 C1112 1.425 . S
C1117 C1114 1.409 . S
C1117 C1115 1.415 . S
C1118 H1108 0.930 . S
C1118 C1116 1.419 . S
C1118 C1119 1.362 . S
C1119 H1109 0.930 . S
C1119 C1112 1.409 . S
C1119 C1118 1.362 . S
H1120 C1126 0.930 . S
H1121 C1129 0.930 . S
H1122 C1130 0.930 . S
H1123 C1131 0.930 . S
H1124 C1134 0.930 . S
H1125 C1135 0.930 . S
C1126 H1120 0.930 . S
C1126 C1127 1.355 . S
C1126 C1128 1.415 1_455 S
C1127 C1126 1.355 . S
C1127 C1129 1.419 . S
C1128 C1126 1.415 1_655 S
C1128 C1133 1.425 1_655 S
C1128 C1135 1.409 . S
C1129 H1121 0.930 . S
C1129 C1127 1.419 . S
C1129 C1130 1.362 . S
C1130 H1122 0.930 . S
C1130 C1129 1.362 . S
C1130 C1133 1.409 . S
C1131 H1123 0.930 . S
C1131 C1132 1.355 . S
C1131 C1133 1.415 1_655 S
C1132 C1131 1.355 . S
C1132 C1134 1.419 . S
C1133 C1128 1.425 1_455 S
C1133 C1130 1.409 . S
C1133 C1131 1.415 1_455 S
C1134 H1124 0.930 . S
C1134 C1132 1.419 . S
C1134 C1135 1.362 . S
C1135 H1125 0.930 . S
C1135 C1128 1.409 . S
C1135 C1134 1.362 . S
H1136 C1142 0.930 . S
H1137 C1145 0.930 . S
H1138 C1146 0.930 . S
H1139 C1147 0.930 . S
H1140 C1150 0.930 . S
H1141 C1151 0.930 . S
C1142 H1136 0.930 . S
C1142 C1143 1.355 . S
C1142 C1144 1.415 . S
C1143 C1142 1.355 . S
C1143 C1145 1.419 . S
C1144 C1142 1.415 . S
C1144 C1149 1.425 1_455 S
C1144 C1151 1.409 . S
C1145 H1137 0.930 . S
C1145 C1143 1.419 . S
C1145 C1146 1.362 1_455 S
C1146 H1138 0.930 . S
C1146 C1145 1.362 1_655 S
C1146 C1149 1.409 . S
C1147 H1139 0.930 . S
C1147 C1148 1.355 . S
C1147 C1149 1.415 . S
C1148 C1147 1.355 . S
C1148 C1150 1.419 . S
C1149 C1144 1.425 1_655 S
C1149 C1146 1.409 . S
C1149 C1147 1.415 . S
C1150 H1140 0.930 . S
C1150 C1148 1.419 . S
C1150 C1151 1.362 1_655 S
C1151 H1141 0.930 . S
C1151 C1144 1.409 . S
C1151 C1150 1.362 1_455 S
H1152 C1158 0.930 . S
H1153 C1161 0.930 . S
H1154 C1162 0.930 . S
H1155 C1163 0.930 . S
H1156 C1166 0.930 . S
H1157 C1167 0.930 . S
C1158 H1152 0.930 . S
C1158 C1159 1.355 . S
C1158 C1160 1.415 . S
C1159 C1158 1.355 . S
C1159 C1161 1.419 . S
C1160 C1158 1.415 . S
C1160 C1165 1.425 . S
C1160 C1167 1.409 . S
C1161 H1153 0.930 . S
C1161 C1159 1.419 . S
C1161 C1162 1.362 . S
C1162 H1154 0.930 . S
C1162 C1161 1.362 . S
C1162 C1165 1.409 . S
C1163 H1155 0.930 . S
C1163 C1164 1.355 . S
C1163 C1165 1.415 . S
C1164 C1163 1.355 . S
C1164 C1166 1.419 . S
C1165 C1160 1.425 . S
C1165 C1162 1.409 . S
C1165 C1163 1.415 . S
C1166 H1156 0.930 . S
C1166 C1164 1.419 . S
C1166 C1167 1.362 . S
C1167 H1157 0.930 . S
C1167 C1160 1.409 . S
C1167 C1166 1.362 . S
H1168 C1174 0.930 . S
H1169 C1177 0.930 . S
H1170 C1178 0.930 . S
H1171 C1179 0.930 . S
H1172 C1182 0.930 . S
H1173 C1183 0.930 . S
C1174 H1168 0.930 . S
C1174 C1175 1.355 . S
C1174 C1176 1.415 . S
C1175 C1174 1.355 . S
C1175 C1177 1.419 . S
C1176 C1174 1.415 . S
C1176 C1181 1.425 . S
C1176 C1183 1.409 . S
C1177 H1169 0.930 . S
C1177 C1175 1.419 . S
C1177 C1178 1.362 . S
C1178 H1170 0.930 . S
C1178 C1177 1.362 . S
C1178 C1181 1.409 . S
C1179 H1171 0.930 . S
C1179 C1180 1.355 . S
C1179 C1181 1.415 . S
C1180 C1179 1.355 . S
C1180 C1182 1.419 . S
C1181 C1176 1.425 . S
C1181 C1178 1.409 . S
C1181 C1179 1.415 . S
C1182 H1172 0.930 . S
C1182 C1180 1.419 . S
C1182 C1183 1.362 . S
C1183 H1173 0.930 . S
C1183 C1176 1.409 . S
C1183 C1182 1.362 . S
H1184 C1190 0.930 . S
H1185 C1193 0.930 . S
H1186 C1194 0.930 . S
H1187 C1195 0.930 . S
H1188 C1198 0.930 . S
H1189 C1199 0.930 . S
C1190 H1184 0.930 . S
C1190 C1191 1.355 . S
C1190 C1192 1.415 . S
C1191 C1190 1.355 . S
C1191 C1193 1.419 . S
C1192 C1190 1.415 . S
C1192 C1197 1.425 . S
C1192 C1199 1.409 . S
C1193 H1185 0.930 . S
C1193 C1191 1.419 . S
C1193 C1194 1.362 . S
C1194 H1186 0.930 . S
C1194 C1193 1.362 . S
C1194 C1197 1.409 . S
C1195 H1187 0.930 . S
C1195 C1196 1.355 . S
C1195 C1197 1.415 . S
C1196 C1195 1.355 . S
C1196 C1198 1.419 . S
C1197 C1192 1.425 . S
C1197 C1194 1.409 . S
C1197 C1195 1.415 . S
C1198 H1188 0.930 . S
C1198 C1196 1.419 . S
C1198 C1199 1.362 . S
C1199 H1189 0.930 . S
C1199 C1192 1.409 . S
C1199 C1198 1.362 . S
H1200 C1206 0.930 . S
H1201 C1209 0.930 . S
H1202 C1210 0.930 . S
H1203 C1211 0.930 . S
H1204 C1214 0.930 . S
H1205 C1215 0.930 . S
C1206 H1200 0.930 . S
C1206 C1207 1.355 . S
C1206 C1208 1.415 . S
C1207 C1206 1.355 . S
C1207 C1209 1.419 . S
C1208 C1206 1.415 . S
C1208 C1213 1.425 . S
C1208 C1215 1.409 . S
C1209 H1201 0.930 . S
C1209 C1207 1.419 . S
C1209 C1210 1.362 . S
C1210 H1202 0.930 . S
C1210 C1209 1.362 . S
C1210 C1213 1.409 . S
C1211 H1203 0.930 . S
C1211 C1212 1.355 . S
C1211 C1213 1.415 . S
C1212 C1211 1.355 . S
C1212 C1214 1.419 . S
C1213 C1208 1.425 . S
C1213 C1210 1.409 . S
C1213 C1211 1.415 . S
C1214 H1204 0.930 . S
C1214 C1212 1.419 . S
C1214 C1215 1.362 . S
C1215 H1205 0.930 . S
C1215 C1208 1.409 . S
C1215 C1214 1.362 . S
H1216 C1222 0.930 . S
H1217 C1225 0.930 . S
H1218 C1226 0.930 . S
H1219 C1227 0.930 . S
H1220 C1230 0.930 . S
H1221 C1231 0.930 . S
C1222 H1216 0.930 . S
C1222 C1223 1.355 . S
C1222 C1224 1.415 . S
C1223 C1222 1.355 . S
C1223 C1225 1.419 . S
C1224 C1222 1.415 . S
C1224 C1229 1.425 . S
C1224 C1231 1.409 . S
C1225 H1217 0.930 . S
C1225 C1223 1.419 . S
C1225 C1226 1.362 . S
C1226 H1218 0.930 . S
C1226 C1225 1.362 . S
C1226 C1229 1.409 . S
C1227 H1219 0.930 . S
C1227 C1228 1.355 . S
C1227 C1229 1.415 . S
C1228 C1227 1.355 . S
C1228 C1230 1.419 . S
C1229 C1224 1.425 . S
C1229 C1226 1.409 . S
C1229 C1227 1.415 . S
C1230 H1220 0.930 . S
C1230 C1228 1.419 . S
C1230 C1231 1.362 . S
C1231 H1221 0.930 . S
C1231 C1224 1.409 . S
C1231 C1230 1.362 . S
H1232 C1238 0.930 . S
H1233 C1241 0.930 . S
H1234 C1242 0.930 . S
H1235 C1243 0.930 . S
H1236 C1246 0.930 . S
H1237 C1247 0.930 . S
C1238 H1232 0.930 . S
C1238 C1239 1.355 . S
C1238 C1240 1.415 . S
C1239 C1238 1.355 . S
C1239 C1241 1.419 . S
C1240 C1238 1.415 . S
C1240 C1245 1.425 . S
C1240 C1247 1.409 . S
C1241 H1233 0.930 . S
C1241 C1239 1.419 . S
C1241 C1242 1.362 . S
C1242 H1234 0.930 . S
C1242 C1241 1.362 . S
C1242 C1245 1.409 . S
C1243 H1235 0.930 . S
C1243 C1244 1.355 . S
C1243 C1245 1.415 . S
C1244 C1243 1.355 . S
C1244 C1246 1.419 . S
C1245 C1240 1.425 . S
C1245 C1242 1.409 . S
C1245 C1243 1.415 . S
C1246 H1236 0.930 . S
C1246 C1244 1.419 . S
C1246 C1247 1.362 . S
C1247 H1237 0.930 . S
C1247 C1240 1.409 . S
C1247 C1246 1.362 . S
H1248 C1254 0.930 . S
H1249 C1257 0.930 . S
H1250 C1258 0.930 . S
H1251 C1259 0.930 . S
H1252 C1262 0.930 . S
H1253 C1263 0.930 . S
C1254 H1248 0.930 . S
C1254 C1255 1.355 . S
C1254 C1256 1.415 . S
C1255 C1254 1.355 . S
C1255 C1257 1.419 . S
C1256 C1254 1.415 . S
C1256 C1261 1.425 . S
C1256 C1263 1.409 . S
C1257 H1249 0.930 . S
C1257 C1255 1.419 . S
C1257 C1258 1.362 . S
C1258 H1250 0.930 . S
C1258 C1257 1.362 . S
C1258 C1261 1.409 . S
C1259 H1251 0.930 . S
C1259 C1260 1.355 . S
C1259 C1261 1.415 . S
C1260 C1259 1.355 . S
C1260 C1262 1.419 . S
C1261 C1256 1.425 . S
C1261 C1258 1.409 . S
C1261 C1259 1.415 . S
C1262 H1252 0.930 . S
C1262 C1260 1.419 . S
C1262 C1263 1.362 . S
C1263 H1253 0.930 . S
C1263 C1256 1.409 . S
C1263 C1262 1.362 . S
H1264 C1270 0.930 . S
H1265 C1273 0.930 . S
H1266 C1274 0.930 . S
H1267 C1275 0.930 . S
H1268 C1278 0.930 . S
H1269 C1279 0.930 . S
C1270 H1264 0.930 . S
C1270 C1271 1.355 . S
C1270 C1272 1.415 . S
C1271 C1270 1.355 . S
C1271 C1273 1.419 . S
C1272 C1270 1.415 . S
C1272 C1277 1.425 . S
C1272 C1279 1.409 . S
C1273 H1265 0.930 . S
C1273 C1271 1.419 . S
C1273 C1274 1.362 . S
C1274 H1266 0.930 . S
C1274 C1273 1.362 . S
C1274 C1277 1.409 . S
C1275 H1267 0.930 . S
C1275 C1276 1.355 . S
C1275 C1277 1.415 . S
C1276 C1275 1.355 . S
C1276 C1278 1.419 1_655 S
C1277 C1272 1.425 . S
C1277 C1274 1.409 . S
C1277 C1275 1.415 . S
C1278 H1268 0.930 . S
C1278 C1276 1.419 1_455 S
C1278 C1279 1.362 1_455 S
C1279 H1269 0.930 . S
C1279 C1272 1.409 . S
C1279 C1278 1.362 1_655 S
H1280 C1286 0.930 . S
H1281 C1289 0.930 . S
H1282 C1290 0.930 . S
H1283 C1291 0.930 . S
H1284 C1294 0.930 . S
H1285 C1295 0.930 . S
C1286 H1280 0.930 . S
C1286 C1287 1.355 . S
C1286 C1288 1.415 . S
C1287 C1286 1.355 . S
C1287 C1289 1.419 . S
C1288 C1286 1.415 . S
C1288 C1293 1.425 . S
C1288 C1295 1.409 . S
C1289 H1281 0.930 . S
C1289 C1287 1.419 . S
C1289 C1290 1.362 . S
C1290 H1282 0.930 . S
C1290 C1289 1.362 . S
C1290 C1293 1.409 . S
C1291 H1283 0.930 . S
C1291 C1292 1.355 . S
C1291 C1293 1.415 . S
C1292 C1291 1.355 . S
C1292 C1294 1.419 . S
C1293 C1288 1.425 . S
C1293 C1290 1.409 . S
C1293 C1291 1.415 . S
C1294 H1284 0.930 . S
C1294 C1292 1.419 . S
C1294 C1295 1.362 . S
C1295 H1285 0.930 . S
C1295 C1288 1.409 . S
C1295 C1294 1.362 . S
H1296 C1302 0.930 . S
H1297 C1305 0.930 . S
H1298 C1306 0.930 . S
H1299 C1307 0.930 1_455 S
H1300 C1310 0.930 . S
H1301 C1311 0.930 . S
C1302 H1296 0.930 . S
C1302 C1303 1.355 . S
C1302 C1304 1.415 . S
C1303 C1302 1.355 . S
C1303 C1305 1.419 . S
C1304 C1302 1.415 . S
C1304 C1309 1.425 . S
C1304 C1311 1.409 1_565 S
C1305 H1297 0.930 . S
C1305 C1303 1.419 . S
C1305 C1306 1.362 . S
C1306 H1298 0.930 . S
C1306 C1305 1.362 . S
C1306 C1309 1.409 . S
C1307 H1299 0.930 1_655 S
C1307 C1308 1.355 . S
C1307 C1309 1.415 . S
C1308 C1307 1.355 . S
C1308 C1310 1.419 1_565 S
C1309 C1304 1.425 . S
C1309 C1306 1.409 . S
C1309 C1307 1.415 . S
C1310 H1300 0.930 . S
C1310 C1308 1.419 1_545 S
C1310 C1311 1.362 . S
C1311 H1301 0.930 . S
C1311 C1304 1.409 1_545 S
C1311 C1310 1.362 . S
H1312 C1318 0.930 . S
H1313 C1321 0.930 . S
H1314 C1322 0.930 . S
H1315 C1323 0.930 . S
H1316 C1326 0.930 . S
H1317 C1327 0.930 . S
C1318 H1312 0.930 . S
C1318 C1319 1.355 . S
C1318 C1320 1.415 . S
C1319 C1318 1.355 . S
C1319 C1321 1.419 . S
C1320 C1318 1.415 . S
C1320 C1325 1.425 . S
C1320 C1327 1.409 . S
C1321 H1313 0.930 . S
C1321 C1319 1.419 . S
C1321 C1322 1.362 . S
C1322 H1314 0.930 . S
C1322 C1321 1.362 . S
C1322 C1325 1.409 . S
C1323 H1315 0.930 . S
C1323 C1324 1.355 . S
C1323 C1325 1.415 . S
C1324 C1323 1.355 . S
C1324 C1326 1.419 . S
C1325 C1320 1.425 . S
C1325 C1322 1.409 . S
C1325 C1323 1.415 . S
C1326 H1316 0.930 . S
C1326 C1324 1.419 . S
C1326 C1327 1.362 . S
C1327 H1317 0.930 . S
C1327 C1320 1.409 . S
C1327 C1326 1.362 . S
H1328 C1334 0.930 . S
H1329 C1337 0.930 . S
H1330 C1338 0.930 . S
H1331 C1339 0.930 . S
H1332 C1342 0.930 . S
H1333 C1343 0.930 . S
C1334 H1328 0.930 . S
C1334 C1335 1.355 . S
C1334 C1336 1.415 . S
C1335 C1334 1.355 . S
C1335 C1337 1.419 1_545 S
C1336 C1334 1.415 . S
C1336 C1341 1.425 . S
C1336 C1343 1.409 . S
C1337 H1329 0.930 . S
C1337 C1335 1.419 1_565 S
C1337 C1338 1.362 . S
C1338 H1330 0.930 . S
C1338 C1337 1.362 . S
C1338 C1341 1.409 1_565 S
C1339 H1331 0.930 . S
C1339 C1340 1.355 . S
C1339 C1341 1.415 . S
C1340 C1339 1.355 . S
C1340 C1342 1.419 . S
C1341 C1336 1.425 . S
C1341 C1338 1.409 1_545 S
C1341 C1339 1.415 . S
C1342 H1332 0.930 . S
C1342 C1340 1.419 . S
C1342 C1343 1.362 . S
C1343 H1333 0.930 . S
C1343 C1336 1.409 . S
C1343 C1342 1.362 . S
H1344 C1350 0.930 . S
H1345 C1353 0.930 . S
H1346 C1354 0.930 . S
H1347 C1355 0.930 . S
H1348 C1358 0.930 . S
H1349 C1359 0.930 . S
C1350 H1344 0.930 . S
C1350 C1351 1.355 . S
C1350 C1352 1.415 . S
C1351 C1350 1.355 . S
C1351 C1353 1.419 . S
C1352 C1350 1.415 . S
C1352 C1357 1.425 . S
C1352 C1359 1.409 . S
C1353 H1345 0.930 . S
C1353 C1351 1.419 . S
C1353 C1354 1.362 . S
C1354 H1346 0.930 . S
C1354 C1353 1.362 . S
C1354 C1357 1.409 . S
C1355 H1347 0.930 . S
C1355 C1356 1.355 . S
C1355 C1357 1.415 . S
C1356 C1355 1.355 . S
C1356 C1358 1.419 . S
C1357 C1352 1.425 . S
C1357 C1354 1.409 . S
C1357 C1355 1.415 . S
C1358 H1348 0.930 . S
C1358 C1356 1.419 . S
C1358 C1359 1.362 . S
C1359 H1349 0.930 . S
C1359 C1352 1.409 . S
C1359 C1358 1.362 . S
H1360 C1366 0.930 . S
H1361 C1369 0.930 . S
H1362 C1370 0.930 . S
H1363 C1371 0.930 . S
H1364 C1374 0.930 . S
H1365 C1375 0.930 . S
C1366 H1360 0.930 . S
C1366 C1367 1.355 . S
C1366 C1368 1.415 . S
C1367 C1366 1.355 . S
C1367 C1369 1.419 1_545 S
C1368 C1366 1.415 . S
C1368 C1373 1.425 . S
C1368 C1375 1.409 . S
C1369 H1361 0.930 . S
C1369 C1367 1.419 1_565 S
C1369 C1370 1.362 . S
C1370 H1362 0.930 . S
C1370 C1369 1.362 . S
C1370 C1373 1.409 1_565 S
C1371 H1363 0.930 . S
C1371 C1372 1.355 . S
C1371 C1373 1.415 . S
C1372 C1371 1.355 . S
C1372 C1374 1.419 . S
C1373 C1368 1.425 . S
C1373 C1370 1.409 1_545 S
C1373 C1371 1.415 . S
C1374 H1364 0.930 . S
C1374 C1372 1.419 . S
C1374 C1375 1.362 . S
C1375 H1365 0.930 . S
C1375 C1368 1.409 . S
C1375 C1374 1.362 . S
H1376 C1382 0.930 . S
H1377 C1385 0.930 . S
H1378 C1386 0.930 . S
H1379 C1387 0.930 . S
H1380 C1390 0.930 . S
H1381 C1391 0.930 . S
C1382 H1376 0.930 . S
C1382 C1383 1.355 . S
C1382 C1384 1.415 . S
C1383 C1382 1.355 . S
C1383 C1385 1.419 . S
C1384 C1382 1.415 . S
C1384 C1389 1.425 . S
C1384 C1391 1.409 . S
C1385 H1377 0.930 . S
C1385 C1383 1.419 . S
C1385 C1386 1.362 . S
C1386 H1378 0.930 . S
C1386 C1385 1.362 . S
C1386 C1389 1.409 . S
C1387 H1379 0.930 . S
C1387 C1388 1.355 . S
C1387 C1389 1.415 . S
C1388 C1387 1.355 . S
C1388 C1390 1.419 . S
C1389 C1384 1.425 . S
C1389 C1386 1.409 . S
C1389 C1387 1.415 . S
C1390 H1380 0.930 . S
C1390 C1388 1.419 . S
C1390 C1391 1.362 . S
C1391 H1381 0.930 . S
C1391 C1384 1.409 . S
C1391 C1390 1.362 . S
H1392 C1398 0.930 . S
H1393 C1401 0.930 . S
H1394 C1402 0.930 . S
H1395 C1403 0.930 . S
H1396 C1406 0.930 . S
H1397 C1407 0.930 . S
C1398 H1392 0.930 . S
C1398 C1399 1.355 . S
C1398 C1400 1.415 . S
C1399 C1398 1.355 . S
C1399 C1401 1.419 . S
C1400 C1398 1.415 . S
C1400 C1405 1.425 . S
C1400 C1407 1.409 . S
C1401 H1393 0.930 . S
C1401 C1399 1.419 . S
C1401 C1402 1.362 . S
C1402 H1394 0.930 . S
C1402 C1401 1.362 . S
C1402 C1405 1.409 . S
C1403 H1395 0.930 . S
C1403 C1404 1.355 . S
C1403 C1405 1.415 . S
C1404 C1403 1.355 . S
C1404 C1406 1.419 . S
C1405 C1400 1.425 . S
C1405 C1402 1.409 . S
C1405 C1403 1.415 . S
C1406 H1396 0.930 . S
C1406 C1404 1.419 . S
C1406 C1407 1.362 . S
C1407 H1397 0.930 . S
C1407 C1400 1.409 . S
C1407 C1406 1.362 . S
C647 C15 0.656 . S
C652 C485 0.656 . S
C663 C205 0.719 . S
C668 C55 0.719 . S
C679 C95 0.818 . S
C684 C565 0.818 . S
C695 C135 0.862 . S
C700 C285 0.862 . S
C711 C165 0.776 . S
C716 C335 0.776 . S
C727 C415 0.912 . S
C732 C245 0.912 . S
C743 C525 0.908 . S
C748 C375 0.908 . S
C759 C455 0.664 . S
C764 C605 0.664 . S
C775 C368 2.272 . S
C780 C5 2.233 1_556 S
C791 C45 2.279 . S
C796 C408 2.305 . S
C807 C85 2.248 . S
C812 C448 2.312 . S
C823 C328 2.275 . S
C828 C125 2.224 . S
C839 C538 2.274 . S
C844 C175 2.225 1_554 S
C855 C578 2.283 . S
C860 C215 2.222 . S
C871 C255 2.279 . S
C876 C618 2.308 . S
C887 C498 2.294 . S
C892 C295 2.273 . S
C903 C325 2.226 . S
C908 C48 2.274 . S
C919 C365 2.276 . S
C924 C88 2.300 . S
C935 C405 2.228 1_556 S
C940 C128 2.273 . S
C951 C8 2.279 . S
C956 C445 2.222 . S
C967 C218 2.296 . S
C972 C495 2.228 . S
C983 C535 2.225 . S
C988 C258 2.291 . S
C999 C298 2.274 . S
C1004 C575 2.244 1_554 S
C1015 C615 2.239 . S
C1020 C178 2.307 . S
C1031 C19 2.967 . S
C1036 C419 2.949 . S
C1047 C59 2.947 . S
C1052 C459 2.969 . S
C1063 C339 2.953 . S
C1068 C99 2.949 . S
C1079 C139 2.958 . S
C1084 C379 2.945 . S
C1095 C169 2.942 . S
C1100 C569 2.967 . S
C1111 C209 2.953 . S
C1116 C609 2.950 . S
C1127 C489 2.953 . S
C1132 C249 2.950 . S
C1143 C289 2.942 . S
C1148 C529 2.967 . S
C1159 C18 1.863 . S
C1164 C299 2.139 . S
C1175 C499 2.179 . S
C1180 C58 1.925 . S
C1191 C98 1.904 . S
C1196 C219 2.170 . S
C1207 C138 1.897 1_455 S
C1212 C579 2.157 . S
C1223 C168 1.827 . S
C1228 C129 2.127 . S
C1239 C329 2.174 . S
C1244 C208 1.913 . S
C1255 C248 1.827 . S
C1260 C49 2.125 . S
C1271 C409 2.135 . S
C1276 C288 1.838 1_655 S
C1287 C338 1.894 . S
C1292 C619 2.156 . S
C1303 C179 2.151 . S
C1308 C378 1.886 1_655 S
C1319 C539 2.159 . S
C1324 C418 1.899 . S
C1335 C458 1.924 . S
C1340 C259 2.174 . S
C1351 C488 1.871 . S
C1356 C449 2.144 . S
C1367 C528 1.863 1_455 S
C1372 C9 2.139 . S
C1383 C369 2.147 . S
C1388 C568 1.877 . S
C1399 C89 2.178 . S
C1404 C608 1.921 . S
