# Generated by pormake.
# Topology umv, (4)-cn, num edge types: 1
# Building blocks:
#     Node 0, Type 0, BuildingBlock: NAHDIM_clean_sbu_0, # of connection points: 4
#     Node 1, Type 0, BuildingBlock: NAHDIM_clean_sbu_0, # of connection points: 4
#     Node 2, Type 0, BuildingBlock: NAHDIM_clean_sbu_0, # of connection points: 4
#     Node 3, Type 0, BuildingBlock: NAHDIM_clean_sbu_0, # of connection points: 4
#     Node 4, Type 0, BuildingBlock: NAHDIM_clean_sbu_0, # of connection points: 4
#     Node 5, Type 0, BuildingBlock: NAHDIM_clean_sbu_0, # of connection points: 4
#     Node 6, Type 0, BuildingBlock: NAHDIM_clean_sbu_0, # of connection points: 4
#     Node 7, Type 0, BuildingBlock: NAHDIM_clean_sbu_0, # of connection points: 4
#     Node 8, Type 0, BuildingBlock: NAHDIM_clean_sbu_0, # of connection points: 4
#     Node 9, Type 0, BuildingBlock: NAHDIM_clean_sbu_0, # of connection points: 4
#     Node 10, Type 0, BuildingBlock: NAHDIM_clean_sbu_0, # of connection points: 4
#     Node 11, Type 0, BuildingBlock: NAHDIM_clean_sbu_0, # of connection points: 4
#     Node 12, Type 0, BuildingBlock: NAHDIM_clean_sbu_0, # of connection points: 4
#     Node 13, Type 0, BuildingBlock: NAHDIM_clean_sbu_0, # of connection points: 4
#     Node 14, Type 0, BuildingBlock: NAHDIM_clean_sbu_0, # of connection points: 4
#     Node 15, Type 0, BuildingBlock: NAHDIM_clean_sbu_0, # of connection points: 4
#     Node 16, Type 0, BuildingBlock: NAHDIM_clean_sbu_0, # of connection points: 4
#     Node 17, Type 0, BuildingBlock: NAHDIM_clean_sbu_0, # of connection points: 4
#     Node 18, Type 0, BuildingBlock: NAHDIM_clean_sbu_0, # of connection points: 4
#     Node 19, Type 0, BuildingBlock: NAHDIM_clean_sbu_0, # of connection points: 4
#     Node 20, Type 0, BuildingBlock: NAHDIM_clean_sbu_0, # of connection points: 4
#     Node 21, Type 0, BuildingBlock: NAHDIM_clean_sbu_0, # of connection points: 4
#     Node 22, Type 0, BuildingBlock: NAHDIM_clean_sbu_0, # of connection points: 4
#     Node 23, Type 0, BuildingBlock: NAHDIM_clean_sbu_0, # of connection points: 4
#     Node 24, Type 0, BuildingBlock: NAHDIM_clean_sbu_0, # of connection points: 4
#     Node 25, Type 0, BuildingBlock: NAHDIM_clean_sbu_0, # of connection points: 4
#     Node 26, Type 0, BuildingBlock: NAHDIM_clean_sbu_0, # of connection points: 4
#     Node 27, Type 0, BuildingBlock: NAHDIM_clean_sbu_0, # of connection points: 4
#     Node 28, Type 0, BuildingBlock: NAHDIM_clean_sbu_0, # of connection points: 4
#     Node 29, Type 0, BuildingBlock: NAHDIM_clean_sbu_0, # of connection points: 4
#     Node 30, Type 0, BuildingBlock: NAHDIM_clean_sbu_0, # of connection points: 4
#     Node 31, Type 0, BuildingBlock: NAHDIM_clean_sbu_0, # of connection points: 4
#     Edge 32, Type (0, 0), BuildingBlock: XUDNAN_clean_linker_2, # of connection points: 2
#     Edge 33, Type (0, 0), BuildingBlock: XUDNAN_clean_linker_2, # of connection points: 2
#     Edge 34, Type (0, 0), BuildingBlock: XUDNAN_clean_linker_2, # of connection points: 2
#     Edge 35, Type (0, 0), BuildingBlock: XUDNAN_clean_linker_2, # of connection points: 2
#     Edge 36, Type (0, 0), BuildingBlock: XUDNAN_clean_linker_2, # of connection points: 2
#     Edge 37, Type (0, 0), BuildingBlock: XUDNAN_clean_linker_2, # of connection points: 2
#     Edge 38, Type (0, 0), BuildingBlock: XUDNAN_clean_linker_2, # of connection points: 2
#     Edge 39, Type (0, 0), BuildingBlock: XUDNAN_clean_linker_2, # of connection points: 2
#     Edge 40, Type (0, 0), BuildingBlock: XUDNAN_clean_linker_2, # of connection points: 2
#     Edge 41, Type (0, 0), BuildingBlock: XUDNAN_clean_linker_2, # of connection points: 2
#     Edge 42, Type (0, 0), BuildingBlock: XUDNAN_clean_linker_2, # of connection points: 2
#     Edge 43, Type (0, 0), BuildingBlock: XUDNAN_clean_linker_2, # of connection points: 2
#     Edge 44, Type (0, 0), BuildingBlock: XUDNAN_clean_linker_2, # of connection points: 2
#     Edge 45, Type (0, 0), BuildingBlock: XUDNAN_clean_linker_2, # of connection points: 2
#     Edge 46, Type (0, 0), BuildingBlock: XUDNAN_clean_linker_2, # of connection points: 2
#     Edge 47, Type (0, 0), BuildingBlock: XUDNAN_clean_linker_2, # of connection points: 2
#     Edge 48, Type (0, 0), BuildingBlock: XUDNAN_clean_linker_2, # of connection points: 2
#     Edge 49, Type (0, 0), BuildingBlock: XUDNAN_clean_linker_2, # of connection points: 2
#     Edge 50, Type (0, 0), BuildingBlock: XUDNAN_clean_linker_2, # of connection points: 2
#     Edge 51, Type (0, 0), BuildingBlock: XUDNAN_clean_linker_2, # of connection points: 2
#     Edge 52, Type (0, 0), BuildingBlock: XUDNAN_clean_linker_2, # of connection points: 2
#     Edge 53, Type (0, 0), BuildingBlock: XUDNAN_clean_linker_2, # of connection points: 2
#     Edge 54, Type (0, 0), BuildingBlock: XUDNAN_clean_linker_2, # of connection points: 2
#     Edge 55, Type (0, 0), BuildingBlock: XUDNAN_clean_linker_2, # of connection points: 2
#     Edge 56, Type (0, 0), BuildingBlock: XUDNAN_clean_linker_2, # of connection points: 2
#     Edge 57, Type (0, 0), BuildingBlock: XUDNAN_clean_linker_2, # of connection points: 2
#     Edge 58, Type (0, 0), BuildingBlock: XUDNAN_clean_linker_2, # of connection points: 2
#     Edge 59, Type (0, 0), BuildingBlock: XUDNAN_clean_linker_2, # of connection points: 2
#     Edge 60, Type (0, 0), BuildingBlock: XUDNAN_clean_linker_2, # of connection points: 2
#     Edge 61, Type (0, 0), BuildingBlock: XUDNAN_clean_linker_2, # of connection points: 2
#     Edge 62, Type (0, 0), BuildingBlock: XUDNAN_clean_linker_2, # of connection points: 2
#     Edge 63, Type (0, 0), BuildingBlock: XUDNAN_clean_linker_2, # of connection points: 2
#     Edge 64, Type (0, 0), BuildingBlock: XUDNAN_clean_linker_2, # of connection points: 2
#     Edge 65, Type (0, 0), BuildingBlock: XUDNAN_clean_linker_2, # of connection points: 2
#     Edge 66, Type (0, 0), BuildingBlock: XUDNAN_clean_linker_2, # of connection points: 2
#     Edge 67, Type (0, 0), BuildingBlock: XUDNAN_clean_linker_2, # of connection points: 2
#     Edge 68, Type (0, 0), BuildingBlock: XUDNAN_clean_linker_2, # of connection points: 2
#     Edge 69, Type (0, 0), BuildingBlock: XUDNAN_clean_linker_2, # of connection points: 2
#     Edge 70, Type (0, 0), BuildingBlock: XUDNAN_clean_linker_2, # of connection points: 2
#     Edge 71, Type (0, 0), BuildingBlock: XUDNAN_clean_linker_2, # of connection points: 2
#     Edge 72, Type (0, 0), BuildingBlock: XUDNAN_clean_linker_2, # of connection points: 2
#     Edge 73, Type (0, 0), BuildingBlock: XUDNAN_clean_linker_2, # of connection points: 2
#     Edge 74, Type (0, 0), BuildingBlock: XUDNAN_clean_linker_2, # of connection points: 2
#     Edge 75, Type (0, 0), BuildingBlock: XUDNAN_clean_linker_2, # of connection points: 2
#     Edge 76, Type (0, 0), BuildingBlock: XUDNAN_clean_linker_2, # of connection points: 2
#     Edge 77, Type (0, 0), BuildingBlock: XUDNAN_clean_linker_2, # of connection points: 2
#     Edge 78, Type (0, 0), BuildingBlock: XUDNAN_clean_linker_2, # of connection points: 2
#     Edge 79, Type (0, 0), BuildingBlock: XUDNAN_clean_linker_2, # of connection points: 2
#     Edge 80, Type (0, 0), BuildingBlock: XUDNAN_clean_linker_2, # of connection points: 2
#     Edge 81, Type (0, 0), BuildingBlock: XUDNAN_clean_linker_2, # of connection points: 2
#     Edge 82, Type (0, 0), BuildingBlock: XUDNAN_clean_linker_2, # of connection points: 2
#     Edge 83, Type (0, 0), BuildingBlock: XUDNAN_clean_linker_2, # of connection points: 2
#     Edge 84, Type (0, 0), BuildingBlock: XUDNAN_clean_linker_2, # of connection points: 2
#     Edge 85, Type (0, 0), BuildingBlock: XUDNAN_clean_linker_2, # of connection points: 2
#     Edge 86, Type (0, 0), BuildingBlock: XUDNAN_clean_linker_2, # of connection points: 2
#     Edge 87, Type (0, 0), BuildingBlock: XUDNAN_clean_linker_2, # of connection points: 2
#     Edge 88, Type (0, 0), BuildingBlock: XUDNAN_clean_linker_2, # of connection points: 2
#     Edge 89, Type (0, 0), BuildingBlock: XUDNAN_clean_linker_2, # of connection points: 2
#     Edge 90, Type (0, 0), BuildingBlock: XUDNAN_clean_linker_2, # of connection points: 2
#     Edge 91, Type (0, 0), BuildingBlock: XUDNAN_clean_linker_2, # of connection points: 2
#     Edge 92, Type (0, 0), BuildingBlock: XUDNAN_clean_linker_2, # of connection points: 2
#     Edge 93, Type (0, 0), BuildingBlock: XUDNAN_clean_linker_2, # of connection points: 2
#     Edge 94, Type (0, 0), BuildingBlock: XUDNAN_clean_linker_2, # of connection points: 2
#     Edge 95, Type (0, 0), BuildingBlock: XUDNAN_clean_linker_2, # of connection points: 2
# Relax obj value: 0.140
# Max RMSD: 0.096
# Mean RMSD: 0.096
data_MOF--net-umv--node1-NAHDIM_clean_sbu_0--edge1-XUDNAN_clean_linker_2
_symmetry_space_group_name_H-M    P1
_symmetry_Int_Tables_number       1
_symmetry_cell_setting            triclinic
loop_
_symmetry_equiv_pos_as_xyz
'x, y, z'
_cell_length_a     95.98167
_cell_length_b     23.590875
_cell_length_c     78.347556
_cell_angle_alpha  90.011559
_cell_angle_beta   89.987284
_cell_angle_gamma 89.993042
loop_
_atom_site_label
_atom_site_type_symbol
_atom_site_fract_x
_atom_site_fract_y
_atom_site_fract_z
_atom_type_partial_charge
C0 C 0.0234 0.17936 0.29585 0.0
O1 O 0.01841 0.20251 0.30982 0.0
O2 O 0.03657 0.06727 0.33245 0.0
Zn3 Zn 0.04398 0.1329 0.31879 0.0
O4 O 0.04414 0.20663 0.33171 0.0
C5 C 0.07333 0.1277 0.32367 0.0
O6 O 0.06956 0.14486 0.33895 0.0
O7 O 0.03368 0.14557 0.2969 0.0
C8 C 0.0416 0.21618 0.34736 0.0
O9 O 0.03781 0.17446 0.35742 0.0
C10 C 0.02514 0.06529 0.34061 0.0
O11 O 0.01665 0.10897 0.34025 0.0
O12 O 0.06397 0.11727 0.31264 0.0
C13 C 0.22914 0.14096 0.2928 0.0
O14 O 0.23299 0.15144 0.30858 0.0
O15 O 0.20729 0.23033 0.32066 0.0
Zn16 Zn 0.20371 0.15513 0.30919 0.0
O17 O 0.20849 0.09108 0.32495 0.0
C18 C 0.17451 0.17188 0.31258 0.0
O19 O 0.17894 0.2026 0.32547 0.0
O20 O 0.21627 0.14386 0.28905 0.0
C21 C 0.20126 0.07458 0.33756 0.0
O22 O 0.1896 0.10093 0.3413 0.0
C23 C 0.21281 0.23393 0.33538 0.0
O24 O 0.21711 0.18767 0.34306 0.0
O25 O 0.18339 0.14808 0.3029 0.0
C26 C 0.02355 0.08231 0.95203 0.0
O27 O 0.01912 0.05592 0.93831 0.0
O28 O 0.04256 0.16922 0.91367 0.0
Zn29 Zn 0.04669 0.10579 0.93014 0.0
O30 O 0.04328 0.02956 0.91941 0.0
C31 C 0.0761 0.09659 0.92599 0.0
O32 O 0.07216 0.08394 0.91039 0.0
O33 O 0.03494 0.10978 0.95137 0.0
C34 C 0.04336 0.01867 0.90353 0.0
O35 O 0.04579 0.05956 0.89255 0.0
C36 C 0.03096 0.1745 0.90601 0.0
O37 O 0.02094 0.13799 0.90912 0.0
O38 O 0.06688 0.10901 0.93701 0.0
C39 C 0.22849 0.16973 0.94435 0.0
O40 O 0.23003 0.1754 0.92778 0.0
O41 O 0.2131 0.02493 0.92446 0.0
Zn42 Zn 0.20607 0.10069 0.93285 0.0
O43 O 0.20422 0.15526 0.91326 0.0
C44 C 0.17793 0.07393 0.93119 0.0
O45 O 0.18243 0.05953 0.91595 0.0
O46 O 0.21892 0.13744 0.95002 0.0
C47 C 0.20676 0.14522 0.89764 0.0
O48 O 0.21076 0.09436 0.89292 0.0
C49 C 0.22523 0.01745 0.91833 0.0
O50 O 0.23409 0.05987 0.91824 0.0
O51 O 0.18668 0.09188 0.9421 0.0
C52 C 0.98065 0.80965 0.70057 0.0
O53 O 0.98222 0.80581 0.68395 0.0
O54 O 0.96251 0.92883 0.67635 0.0
Zn55 Zn 0.95568 0.86013 0.68935 0.0
O56 O 0.95312 0.79474 0.67316 0.0
C57 C 0.92931 0.91578 0.69818 0.0
O58 O 0.93393 0.95775 0.68874 0.0
O59 O 0.96991 0.83448 0.70644 0.0
C60 C 0.9414 0.78201 0.66665 0.0
O61 O 0.93047 0.81368 0.66996 0.0
C62 C 0.95711 0.94087 0.66198 0.0
O63 O 0.94705 0.90879 0.65601 0.0
O64 O 0.93711 0.87308 0.70079 0.0
C65 C 0.77816 0.9349 0.69552 0.0
O66 O 0.7768 0.94768 0.6793 0.0
O67 O 0.79545 0.79318 0.67376 0.0
Zn68 Zn 0.80121 0.87033 0.68248 0.0
O69 O 0.80202 0.92596 0.66287 0.0
C70 C 0.82818 0.90956 0.69242 0.0
O71 O 0.82331 0.95679 0.68584 0.0
O72 O 0.78773 0.90076 0.70005 0.0
C73 C 0.79695 0.91805 0.64808 0.0
O74 O 0.79101 0.86946 0.64439 0.0
C75 C 0.78293 0.78178 0.66972 0.0
O76 O 0.77323 0.82024 0.67214 0.0
O77 O 0.82042 0.86587 0.69276 0.0
C78 C 0.9731 0.93227 0.05087 0.0
O79 O 0.97561 0.93801 0.06726 0.0
O80 O 0.95695 0.79196 0.0715 0.0
Zn81 Zn 0.95027 0.86962 0.06429 0.0
O82 O 0.95021 0.92581 0.08374 0.0
C83 C 0.92105 0.86252 0.06701 0.0
O84 O 0.92477 0.85787 0.08308 0.0
O85 O 0.96278 0.90234 0.04612 0.0
C86 C 0.94987 0.91754 0.09976 0.0
O87 O 0.94947 0.86565 0.10582 0.0
C88 C 0.96689 0.78405 0.08197 0.0
O89 O 0.97349 0.82777 0.08846 0.0
O90 O 0.93047 0.86566 0.05564 0.0
C91 C 0.76534 0.86349 0.04924 0.0
O92 O 0.76226 0.86702 0.06555 0.0
O93 O 0.78475 0.94883 0.07925 0.0
Zn94 Zn 0.79106 0.88451 0.06394 0.0
O95 O 0.78974 0.80998 0.07619 0.0
C96 C 0.81994 0.9172 0.06499 0.0
O97 O 0.81605 0.9389 0.07966 0.0
O98 O 0.77772 0.87446 0.04452 0.0
C99 C 0.79924 0.78605 0.08485 0.0
O100 O 0.81117 0.81205 0.08732 0.0
C101 C 0.78709 0.94863 0.09523 0.0
O102 O 0.79381 0.90588 0.1021 0.0
O103 O 0.81086 0.89401 0.05548 0.0
C104 C 0.03315 0.63412 0.79417 0.0
O105 O 0.02808 0.65196 0.80879 0.0
O106 O 0.04931 0.51554 0.82689 0.0
Zn107 Zn 0.0546 0.59002 0.81602 0.0
O108 O 0.05045 0.65438 0.83215 0.0
C109 C 0.08378 0.61154 0.8214 0.0
O110 O 0.07916 0.63071 0.83609 0.0
O111 O 0.04421 0.60444 0.79414 0.0
C112 C 0.04595 0.64789 0.84728 0.0
O113 O 0.0438 0.59651 0.85316 0.0
C114 C 0.03701 0.49562 0.82652 0.0
O115 O 0.02729 0.52307 0.8181 0.0
O116 O 0.07516 0.5908 0.81077 0.0
C117 C 0.23896 0.57891 0.80358 0.0
O118 O 0.24211 0.57846 0.8199 0.0
O119 O 0.22104 0.67173 0.83357 0.0
Zn120 Zn 0.21383 0.60822 0.81865 0.0
O121 O 0.21414 0.53351 0.83077 0.0
C122 C 0.18534 0.64848 0.81927 0.0
O123 O 0.18941 0.6726 0.83352 0.0
O124 O 0.22688 0.59526 0.7991 0.0
C125 C 0.20457 0.51238 0.83997 0.0
O126 O 0.19338 0.54221 0.84347 0.0
C127 C 0.21869 0.67417 0.84952 0.0
O128 O 0.21128 0.63419 0.85683 0.0
O129 O 0.19418 0.62133 0.81036 0.0
C130 C 0.02046 0.58812 0.45905 0.0
O131 O 0.01699 0.56186 0.44489 0.0
O132 O 0.03119 0.71588 0.42549 0.0
Zn133 Zn 0.03992 0.64774 0.4372 0.0
O134 O 0.0403 0.57957 0.42149 0.0
C135 C 0.06751 0.70055 0.43687 0.0
O136 O 0.06246 0.7313 0.42434 0.0
O137 O 0.02955 0.62724 0.45854 0.0
C138 C 0.05061 0.57118 0.41162 0.0
O139 O 0.06098 0.60747 0.41155 0.0
C140 C 0.0323 0.72157 0.4094 0.0
O141 O 0.03873 0.68218 0.40058 0.0
O142 O 0.05971 0.66452 0.44421 0.0
C143 C 0.22431 0.65373 0.4491 0.0
O144 O 0.22907 0.63952 0.43398 0.0
O145 O 0.20104 0.59564 0.41485 0.0
Zn146 Zn 0.19799 0.65907 0.43144 0.0
O147 O 0.20127 0.73096 0.4184 0.0
C148 C 0.16898 0.68071 0.42988 0.0
O149 O 0.17283 0.70084 0.41497 0.0
O150 O 0.21127 0.65982 0.4512 0.0
C151 C 0.21072 0.73286 0.40706 0.0
O152 O 0.21835 0.68768 0.40414 0.0
C153 C 0.20579 0.54611 0.41729 0.0
O154 O 0.20922 0.52995 0.43277 0.0
O155 O 0.17814 0.65902 0.43962 0.0
C156 C 0.98177 0.35809 0.19486 0.0
O157 O 0.98553 0.35332 0.1788 0.0
O158 O 0.96741 0.44368 0.16069 0.0
Zn159 Zn 0.95848 0.38651 0.17673 0.0
O160 O 0.95836 0.30793 0.16682 0.0
C161 C 0.93231 0.43572 0.16906 0.0
O162 O 0.93987 0.45482 0.15634 0.0
O163 O 0.96973 0.37775 0.19818 0.0
C164 C 0.95096 0.29106 0.15439 0.0
O165 O 0.94299 0.32729 0.14622 0.0
C166 C 0.97185 0.43117 0.14586 0.0
O167 O 0.97197 0.3779 0.14102 0.0
O168 O 0.93823 0.40693 0.18072 0.0
C169 C 0.78377 0.43672 0.19534 0.0
O170 O 0.78027 0.44565 0.17937 0.0
O171 O 0.79783 0.29521 0.1708 0.0
Zn172 Zn 0.80449 0.37254 0.17823 0.0
O173 O 0.80211 0.42884 0.159 0.0
C174 C 0.8318 0.36696 0.16803 0.0
O175 O 0.82472 0.35498 0.15414 0.0
O176 O 0.79389 0.40358 0.19862 0.0
C177 C 0.79666 0.42128 0.1444 0.0
O178 O 0.79165 0.37139 0.14023 0.0
C179 C 0.78512 0.28537 0.16737 0.0
O180 O 0.77585 0.32551 0.16983 0.0
O181 O 0.82526 0.37228 0.18205 0.0
C182 C 0.9732 0.41513 0.55723 0.0
O183 O 0.97409 0.42812 0.57349 0.0
O184 O 0.95504 0.28618 0.58281 0.0
Zn185 Zn 0.94944 0.35647 0.56984 0.0
O186 O 0.94585 0.42161 0.58589 0.0
C187 C 0.92114 0.3399 0.57036 0.0
O188 O 0.92477 0.3379 0.58652 0.0
O189 O 0.96357 0.3819 0.55233 0.0
C190 C 0.95102 0.43158 0.6005 0.0
O191 O 0.96043 0.39729 0.60692 0.0
C192 C 0.96693 0.27674 0.58936 0.0
O193 O 0.97697 0.31393 0.58733 0.0
O194 O 0.93064 0.34389 0.55912 0.0
C195 C 0.76581 0.35989 0.55126 0.0
O196 O 0.76258 0.36336 0.56753 0.0
O197 O 0.78558 0.44388 0.58129 0.0
Zn198 Zn 0.79166 0.37852 0.56622 0.0
O199 O 0.79019 0.30441 0.57871 0.0
C200 C 0.82068 0.40973 0.56678 0.0
O201 O 0.81694 0.434 0.58114 0.0
O202 O 0.77832 0.36924 0.54677 0.0
C203 C 0.79966 0.28132 0.58765 0.0
O204 O 0.81148 0.30801 0.59023 0.0
C205 C 0.78812 0.4453 0.59722 0.0
O206 O 0.79504 0.40351 0.60433 0.0
O207 O 0.81145 0.386 0.55762 0.0
C208 C 0.52483 0.15338 0.79015 0.0
O209 O 0.51803 0.16966 0.80385 0.0
O210 O 0.53499 0.05715 0.8286 0.0
Zn211 Zn 0.54447 0.11908 0.81516 0.0
O212 O 0.54153 0.19525 0.82599 0.0
C213 C 0.57331 0.08488 0.82297 0.0
O214 O 0.56851 0.06966 0.83798 0.0
O215 O 0.53621 0.12651 0.79187 0.0
C216 C 0.54946 0.21948 0.8367 0.0
O217 O 0.56058 0.19305 0.84236 0.0
C218 C 0.5355 0.05628 0.84481 0.0
O219 O 0.54222 0.09652 0.85295 0.0
O220 O 0.565 0.10508 0.81191 0.0
C221 C 0.72693 0.07235 0.79579 0.0
O222 O 0.7315 0.04623 0.8095 0.0
O223 O 0.70837 0.17595 0.83197 0.0
Zn224 Zn 0.70469 0.10521 0.81841 0.0
O225 O 0.70867 0.03571 0.83253 0.0
C226 C 0.67532 0.10163 0.82412 0.0
O227 O 0.67953 0.10256 0.84005 0.0
O228 O 0.71592 0.10209 0.79675 0.0
C229 C 0.70793 0.03459 0.84872 0.0
O230 O 0.70477 0.08111 0.85708 0.0
C231 C 0.71919 0.18383 0.84102 0.0
O232 O 0.72912 0.1455 0.84096 0.0
O233 O 0.68433 0.10336 0.81224 0.0
C234 C 0.51018 0.08483 0.44245 0.0
O235 O 0.5079 0.08178 0.42595 0.0
O236 O 0.53246 0.17832 0.41436 0.0
Zn237 Zn 0.53673 0.11192 0.42966 0.0
O238 O 0.53705 0.04034 0.41598 0.0
C239 C 0.56509 0.14794 0.43141 0.0
O240 O 0.56133 0.17466 0.41744 0.0
O241 O 0.52211 0.10061 0.44767 0.0
C242 C 0.54465 0.03385 0.40286 0.0
O243 O 0.55246 0.07604 0.39756 0.0
C244 C 0.52628 0.17358 0.40007 0.0
O245 O 0.52142 0.12395 0.39536 0.0
O246 O 0.55598 0.12012 0.43971 0.0
C247 C 0.71683 0.15294 0.46097 0.0
O248 O 0.7241 0.15435 0.44676 0.0
O249 O 0.70414 0.02875 0.43118 0.0
Zn250 Zn 0.6963 0.10347 0.43899 0.0
O251 O 0.7009 0.16132 0.42108 0.0
C252 C 0.66692 0.11905 0.43163 0.0
O253 O 0.67168 0.14185 0.41749 0.0
O254 O 0.70484 0.13012 0.4609 0.0
C255 C 0.69859 0.21363 0.42364 0.0
O256 O 0.6928 0.22963 0.43806 0.0
C257 C 0.70062 0.01348 0.41624 0.0
O258 O 0.69195 0.04557 0.40757 0.0
O259 O 0.67547 0.09868 0.44239 0.0
C260 C 0.47954 0.82055 0.19902 0.0
O261 O 0.48649 0.81063 0.18488 0.0
O262 O 0.46254 0.89912 0.16057 0.0
Zn263 Zn 0.45759 0.83156 0.17514 0.0
O264 O 0.46448 0.76078 0.1638 0.0
C265 C 0.42832 0.85991 0.18273 0.0
O266 O 0.43273 0.91196 0.18525 0.0
O267 O 0.46678 0.83443 0.19805 0.0
C268 C 0.46212 0.75039 0.14818 0.0
O269 O 0.45526 0.78766 0.13899 0.0
C270 C 0.4541 0.91893 0.14958 0.0
O271 O 0.44166 0.8963 0.14811 0.0
O272 O 0.43694 0.82169 0.17838 0.0
C273 C 0.27979 0.93794 0.20292 0.0
O274 O 0.27183 0.93307 0.18937 0.0
O275 O 0.29149 0.82836 0.17005 0.0
Zn276 Zn 0.30061 0.89835 0.17963 0.0
O277 O 0.29796 0.96303 0.16332 0.0
C278 C 0.32623 0.83702 0.1858 0.0
O279 O 0.31775 0.79381 0.18781 0.0
O280 O 0.29244 0.92249 0.20204 0.0
C281 C 0.28766 0.96653 0.15317 0.0
O282 O 0.27834 0.92578 0.15289 0.0
C283 C 0.29585 0.81279 0.15547 0.0
O284 O 0.30581 0.8422 0.14811 0.0
O285 O 0.3212 0.88554 0.18241 0.0
C286 C 0.45981 0.9013 0.53601 0.0
O287 O 0.4668 0.90923 0.55022 0.0
O288 O 0.44883 0.77232 0.56655 0.0
Zn289 Zn 0.44165 0.84885 0.5596 0.0
O290 O 0.44716 0.90866 0.57659 0.0
C291 C 0.41623 0.84379 0.57606 0.0
O292 O 0.42519 0.83617 0.58852 0.0
O293 O 0.44844 0.87372 0.53649 0.0
C294 C 0.45432 0.90276 0.59011 0.0
O295 O 0.4595 0.85295 0.59405 0.0
C296 C 0.46155 0.75782 0.5677 0.0
O297 O 0.47133 0.79395 0.56335 0.0
O298 O 0.42076 0.8478 0.56085 0.0
C299 C 0.26958 0.84778 0.54449 0.0
O300 O 0.26123 0.8474 0.55779 0.0
O301 O 0.28149 0.96313 0.57773 0.0
Zn302 Zn 0.28828 0.88688 0.56972 0.0
O303 O 0.28177 0.82386 0.58505 0.0
C304 C 0.31571 0.91688 0.5811 0.0
O305 O 0.30855 0.94894 0.59164 0.0
O306 O 0.28185 0.86706 0.54619 0.0
C307 C 0.28732 0.81348 0.59942 0.0
O308 O 0.29728 0.84664 0.60509 0.0
C309 C 0.27492 0.96974 0.59169 0.0
O310 O 0.2708 0.92492 0.60024 0.0
O311 O 0.30928 0.88719 0.57009 0.0
C312 C 0.52906 0.64458 0.29442 0.0
O313 O 0.52507 0.63617 0.31026 0.0
O314 O 0.54622 0.52425 0.31734 0.0
Zn315 Zn 0.55308 0.60029 0.3092 0.0
O316 O 0.55047 0.65642 0.32813 0.0
C317 C 0.58218 0.6056 0.315 0.0
O318 O 0.57751 0.61314 0.33058 0.0
O319 O 0.54124 0.62923 0.28999 0.0
C320 C 0.55411 0.70772 0.32619 0.0
O321 O 0.5599 0.72345 0.31175 0.0
C322 C 0.54762 0.51266 0.33309 0.0
O323 O 0.55372 0.54967 0.34314 0.0
O324 O 0.5735 0.59762 0.30297 0.0
C325 C 0.73613 0.57815 0.29744 0.0
O326 O 0.73923 0.54632 0.31066 0.0
O327 O 0.71657 0.68372 0.33323 0.0
Zn328 Zn 0.71319 0.61465 0.31876 0.0
O329 O 0.71551 0.54394 0.33277 0.0
C330 C 0.68387 0.63847 0.31962 0.0
O331 O 0.68737 0.66332 0.33399 0.0
O332 O 0.72581 0.6118 0.29834 0.0
C333 C 0.71005 0.53987 0.34748 0.0
O334 O 0.70319 0.58326 0.35378 0.0
C335 C 0.72519 0.68535 0.34554 0.0
O336 O 0.73323 0.64133 0.34844 0.0
O337 O 0.6933 0.61566 0.31052 0.0
C338 C 0.51325 0.5687 0.94017 0.0
O339 O 0.51183 0.56248 0.9236 0.0
O340 O 0.53137 0.70864 0.92022 0.0
Zn341 Zn 0.53699 0.63178 0.92918 0.0
O342 O 0.53899 0.57594 0.90994 0.0
C343 C 0.56557 0.6529 0.92933 0.0
O344 O 0.56201 0.66859 0.91384 0.0
O345 O 0.52319 0.59895 0.94587 0.0
C346 C 0.53588 0.58343 0.89435 0.0
O347 O 0.53081 0.63234 0.88932 0.0
C348 C 0.51947 0.71976 0.91393 0.0
O349 O 0.50979 0.68046 0.91393 0.0
O350 O 0.55609 0.63662 0.93954 0.0
C351 C 0.71741 0.64268 0.96106 0.0
O352 O 0.72462 0.64392 0.9468 0.0
O353 O 0.70368 0.52113 0.93058 0.0
Zn354 Zn 0.69645 0.59612 0.93906 0.0
O355 O 0.70128 0.65424 0.92136 0.0
C356 C 0.66728 0.61589 0.93168 0.0
O357 O 0.67235 0.63787 0.91758 0.0
O358 O 0.70533 0.62067 0.96101 0.0
C359 C 0.69993 0.70678 0.92445 0.0
O360 O 0.69515 0.72294 0.9394 0.0
C361 C 0.69891 0.50569 0.91618 0.0
O362 O 0.68946 0.53742 0.90871 0.0
O363 O 0.67558 0.5943 0.94253 0.0
C364 C 0.48422 0.3371 0.6897 0.0
O365 O 0.48787 0.33285 0.67357 0.0
O366 O 0.4665 0.42041 0.65657 0.0
Zn367 Zn 0.45957 0.36118 0.67294 0.0
O368 O 0.46068 0.2851 0.66179 0.0
C369 C 0.43593 0.42676 0.68409 0.0
O370 O 0.44525 0.46747 0.68491 0.0
O371 O 0.47202 0.35429 0.69326 0.0
C372 C 0.4514 0.26237 0.65254 0.0
O373 O 0.43982 0.29001 0.64928 0.0
C374 C 0.45853 0.43383 0.64429 0.0
O375 O 0.4463 0.40915 0.64304 0.0
O376 O 0.43976 0.37736 0.67965 0.0
C377 C 0.28655 0.39842 0.7072 0.0
O378 O 0.27886 0.4049 0.69349 0.0
O379 O 0.30296 0.31988 0.66721 0.0
Zn380 Zn 0.30804 0.38555 0.68222 0.0
O381 O 0.30134 0.45551 0.67016 0.0
C382 C 0.33382 0.43841 0.6899 0.0
O383 O 0.32522 0.47975 0.69384 0.0
O384 O 0.29931 0.38518 0.70552 0.0
C385 C 0.29107 0.45434 0.65992 0.0
O386 O 0.28463 0.40617 0.65703 0.0
C387 C 0.29459 0.27927 0.67004 0.0
O388 O 0.28883 0.27379 0.68516 0.0
O389 O 0.32884 0.39167 0.6846 0.0
C390 C 0.46667 0.37145 0.03444 0.0
O391 O 0.47387 0.38024 0.04843 0.0
O392 O 0.45092 0.25809 0.06841 0.0
Zn393 Zn 0.44696 0.33598 0.05921 0.0
O394 O 0.45519 0.39577 0.07457 0.0
C395 C 0.42124 0.35936 0.0745 0.0
O396 O 0.42954 0.3565 0.08779 0.0
O397 O 0.45463 0.34916 0.03558 0.0
C398 C 0.46145 0.38853 0.0887 0.0
O399 O 0.46327 0.33703 0.09464 0.0
C400 C 0.46306 0.23737 0.07014 0.0
O401 O 0.47388 0.26642 0.06477 0.0
O402 O 0.42621 0.34954 0.05974 0.0
C403 C 0.27398 0.3741 0.03807 0.0
O404 O 0.26705 0.36487 0.05226 0.0
O405 O 0.28639 0.47827 0.07367 0.0
Zn406 Zn 0.29382 0.40773 0.06245 0.0
O407 O 0.28845 0.33883 0.07603 0.0
C408 C 0.32096 0.44134 0.07336 0.0
O409 O 0.31338 0.4696 0.08443 0.0
O410 O 0.28602 0.39631 0.03893 0.0
C411 C 0.29476 0.32271 0.08941 0.0
O412 O 0.30523 0.35277 0.09526 0.0
C413 C 0.27759 0.47787 0.08579 0.0
O414 O 0.27169 0.42982 0.09022 0.0
O415 O 0.31487 0.41203 0.06196 0.0
H416 H 0.09532 0.16747 0.34223 0.0
H417 H 0.08501 0.08451 0.29441 0.0
H418 H 0.10989 0.08636 0.28615 0.0
H419 H 0.12066 0.26126 0.32518 0.0
H420 H 0.13192 0.2576 0.34356 0.0
H421 H 0.11344 0.2471 0.346 0.0
H422 H 0.1179 0.14959 0.36026 0.0
H423 H 0.13639 0.15999 0.358 0.0
H424 H 0.1283 0.09741 0.34929 0.0
H425 H 0.13608 0.09843 0.28316 0.0
H426 H 0.16125 0.12 0.28568 0.0
H427 H 0.15376 0.19778 0.33506 0.0
C428 C 0.09828 0.1491 0.33009 0.0
C429 C 0.08824 0.12558 0.319 0.0
C430 C 0.09255 0.10264 0.30313 0.0
C431 C 0.10664 0.10352 0.29833 0.0
C432 C 0.11625 0.12774 0.3095 0.0
C433 C 0.11223 0.15008 0.32505 0.0
C434 C 0.12447 0.17503 0.33459 0.0
C435 C 0.1225 0.23904 0.33749 0.0
C436 C 0.12691 0.14361 0.35153 0.0
C437 C 0.13603 0.16341 0.32197 0.0
C438 C 0.13114 0.13585 0.30761 0.0
C439 C 0.14002 0.12012 0.29433 0.0
C440 C 0.15427 0.13259 0.29586 0.0
C441 C 0.15945 0.16086 0.3105 0.0
C442 C 0.15013 0.17661 0.32362 0.0
H443 H 0.15687 0.04778 0.90917 0.0
H444 H 0.16477 0.10377 0.96107 0.0
H445 H 0.13938 0.11287 0.96587 0.0
H446 H 0.12947 0.14229 0.90067 0.0
H447 H 0.11956 0.09284 0.88802 0.0
H448 H 0.13822 0.08649 0.88916 0.0
H449 H 0.13582 0.98265 0.89959 0.0
H450 H 0.11713 0.9885 0.89835 0.0
H451 H 0.12528 0.96738 0.91808 0.0
H452 H 0.11304 0.12037 0.96434 0.0
H453 H 0.08803 0.12416 0.95678 0.0
H454 H 0.09791 0.06459 0.90575 0.0
C455 C 0.1533 0.06119 0.92165 0.0
C456 C 0.16281 0.07489 0.93477 0.0
C457 C 0.15767 0.09283 0.95084 0.0
C458 C 0.14328 0.09816 0.95369 0.0
C459 C 0.13421 0.0853 0.94033 0.0
C460 C 0.13904 0.06693 0.92466 0.0
C461 C 0.12724 0.05794 0.91217 0.0
C462 C 0.12871 0.09724 0.89659 0.0
C463 C 0.12631 0.9954 0.90673 0.0
C464 C 0.11499 0.07477 0.92317 0.0
C465 C 0.11917 0.09015 0.9394 0.0
C466 C 0.10965 0.10814 0.95169 0.0
C467 C 0.09548 0.11026 0.94727 0.0
C468 C 0.09101 0.09473 0.93067 0.0
C469 C 0.10096 0.07678 0.91854 0.0
H470 H 0.90841 0.9886 0.68887 0.0
H471 H 0.91649 0.83529 0.71787 0.0
H472 H 0.89123 0.8223 0.72213 0.0
H473 H 0.87718 0.03579 0.71348 0.0
H474 H 0.86862 0.06091 0.69445 0.0
H475 H 0.88735 0.0627 0.69591 0.0
H476 H 0.88909 0.00443 0.66795 0.0
H477 H 0.87041 0.00195 0.66649 0.0
H478 H 0.88031 0.93703 0.66653 0.0
H479 H 0.8652 0.81853 0.71975 0.0
H480 H 0.84031 0.82716 0.71208 0.0
H481 H 0.84923 0.9836 0.68507 0.0
C482 C 0.90491 0.95322 0.69656 0.0
C483 C 0.91444 0.91311 0.7031 0.0
C484 C 0.90939 0.86674 0.71279 0.0
C485 C 0.89505 0.859 0.7153 0.0
C486 C 0.88591 0.89824 0.70816 0.0
C487 C 0.89064 0.94483 0.69915 0.0
C488 C 0.87865 0.97813 0.69159 0.0
C489 C 0.87791 0.03793 0.69933 0.0
C490 C 0.87968 0.98048 0.67198 0.0
C491 C 0.86648 0.94207 0.69731 0.0
C492 C 0.87086 0.89638 0.70695 0.0
C493 C 0.86161 0.85474 0.71251 0.0
C494 C 0.84751 0.85984 0.70803 0.0
C495 C 0.84282 0.90628 0.69812 0.0
C496 C 0.85244 0.94818 0.69293 0.0
H497 H 0.89998 0.8908 0.08857 0.0
H498 H 0.90858 0.85023 0.03559 0.0
H499 H 0.88354 0.86292 0.02873 0.0
H500 H 0.86712 0.82177 0.09174 0.0
H501 H 0.85964 0.87561 0.10525 0.0
H502 H 0.87812 0.86292 0.10568 0.0
H503 H 0.88262 0.96889 0.09881 0.0
H504 H 0.86413 0.98184 0.09825 0.0
H505 H 0.87479 0.0 0.08011 0.0
H506 H 0.85712 0.87621 0.02828 0.0
H507 H 0.83202 0.89184 0.03406 0.0
H508 H 0.84167 0.92884 0.08701 0.0
C509 C 0.89662 0.88427 0.07552 0.0
C510 C 0.90618 0.86904 0.06262 0.0
C511 C 0.90139 0.86176 0.04566 0.0
C512 C 0.88722 0.86891 0.04167 0.0
C513 C 0.87807 0.88411 0.05474 0.0
C514 C 0.88264 0.89206 0.07129 0.0
C515 C 0.87086 0.90888 0.08304 0.0
C516 C 0.86882 0.86465 0.09726 0.0
C517 C 0.87325 0.96844 0.09048 0.0
C518 C 0.85885 0.90849 0.07059 0.0
C519 C 0.86315 0.89393 0.05433 0.0
C520 C 0.85368 0.88826 0.04093 0.0
C521 C 0.83946 0.89721 0.04432 0.0
C522 C 0.83492 0.91217 0.06093 0.0
C523 C 0.84482 0.91846 0.07411 0.0
H524 H 0.10451 0.65864 0.84072 0.0
H525 H 0.09696 0.57302 0.79254 0.0
H526 H 0.12206 0.57918 0.78572 0.0
H527 H 0.13121 0.75503 0.8252 0.0
H528 H 0.14127 0.75083 0.84458 0.0
H529 H 0.12263 0.74188 0.84529 0.0
H530 H 0.12573 0.64447 0.86014 0.0
H531 H 0.14435 0.65328 0.85956 0.0
H532 H 0.1365 0.59118 0.85022 0.0
H533 H 0.14819 0.59062 0.78487 0.0
H534 H 0.17331 0.60466 0.79036 0.0
H535 H 0.16345 0.68421 0.83886 0.0
C536 C 0.10809 0.6414 0.82869 0.0
C537 C 0.09877 0.61533 0.81717 0.0
C538 C 0.10391 0.59322 0.80157 0.0
C539 C 0.11814 0.59666 0.79756 0.0
C540 C 0.12705 0.62263 0.80923 0.0
C541 C 0.12221 0.64464 0.82446 0.0
C542 C 0.13398 0.66874 0.83507 0.0
C543 C 0.13216 0.73293 0.83768 0.0
C544 C 0.13521 0.63754 0.85226 0.0
C545 C 0.14623 0.65598 0.82356 0.0
C546 C 0.14203 0.62969 0.80866 0.0
C547 C 0.15159 0.61164 0.79642 0.0
C548 C 0.16583 0.61982 0.79965 0.0
C549 C 0.17035 0.64578 0.81499 0.0
C550 C 0.16035 0.66485 0.82691 0.0
H551 H 0.08835 0.74571 0.41732 0.0
H552 H 0.08075 0.6543 0.46449 0.0
H553 H 0.10613 0.6451 0.46896 0.0
H554 H 0.1157 0.66086 0.40343 0.0
H555 H 0.12569 0.71748 0.394 0.0
H556 H 0.10706 0.72352 0.3956 0.0
H557 H 0.10966 0.81805 0.41216 0.0
H558 H 0.12834 0.81261 0.41048 0.0
H559 H 0.12028 0.82031 0.43113 0.0
H560 H 0.13225 0.63898 0.46704 0.0
H561 H 0.15712 0.6368 0.45889 0.0
H562 H 0.1474 0.7302 0.41265 0.0
C563 C 0.09201 0.72501 0.42881 0.0
C564 C 0.08259 0.70109 0.44063 0.0
C565 C 0.0878 0.67315 0.45531 0.0
C566 C 0.10219 0.66778 0.45797 0.0
C567 C 0.1112 0.69056 0.44583 0.0
C568 C 0.10631 0.71883 0.43158 0.0
C569 C 0.11812 0.73567 0.41983 0.0
C570 C 0.11654 0.7077 0.40218 0.0
C571 C 0.11916 0.80052 0.41832 0.0
C572 C 0.13038 0.71145 0.42952 0.0
C573 C 0.1262 0.68612 0.44457 0.0
C574 C 0.13566 0.65916 0.45536 0.0
C575 C 0.14975 0.65802 0.4506 0.0
C576 C 0.15421 0.68329 0.43514 0.0
C577 C 0.14435 0.71058 0.42457 0.0
H578 H 0.91268 0.39329 0.19154 0.0
H579 H 0.91719 0.4864 0.144 0.0
H580 H 0.89189 0.48231 0.13964 0.0
H581 H 0.88691 0.29978 0.17785 0.0
H582 H 0.87694 0.29954 0.19735 0.0
H583 H 0.89535 0.31406 0.19795 0.0
H584 H 0.89069 0.40941 0.21332 0.0
H585 H 0.87225 0.39488 0.21297 0.0
H586 H 0.87883 0.45983 0.20394 0.0
H587 H 0.86705 0.45779 0.13818 0.0
H588 H 0.84294 0.42397 0.14152 0.0
H589 H 0.85344 0.3518 0.19082 0.0
C590 C 0.9083 0.41391 0.18042 0.0
C591 C 0.91695 0.44001 0.16809 0.0
C592 C 0.91082 0.46613 0.15364 0.0
C593 C 0.89644 0.46403 0.15101 0.0
C594 C 0.88826 0.43648 0.16308 0.0
C595 C 0.89386 0.41283 0.17768 0.0
C596 C 0.88263 0.38429 0.1883 0.0
C597 C 0.88564 0.32065 0.19048 0.0
C598 C 0.881 0.41388 0.20566 0.0
C599 C 0.86998 0.39414 0.17707 0.0
C600 C 0.87355 0.42421 0.16257 0.0
C601 C 0.86403 0.43516 0.14961 0.0
C602 C 0.85041 0.41534 0.15156 0.0
C603 C 0.84638 0.38553 0.16644 0.0
C604 C 0.85626 0.37514 0.17943 0.0
H605 H 0.90008 0.3707 0.59151 0.0
H606 H 0.90876 0.32482 0.53894 0.0
H607 H 0.88385 0.34 0.53172 0.0
H608 H 0.86636 0.30718 0.59481 0.0
H609 H 0.85946 0.3636 0.60782 0.0
H610 H 0.87776 0.34717 0.60857 0.0
H611 H 0.88359 0.45156 0.60101 0.0
H612 H 0.86529 0.46818 0.60007 0.0
H613 H 0.87632 0.48261 0.58196 0.0
H614 H 0.85754 0.35801 0.53085 0.0
H615 H 0.83263 0.37945 0.53619 0.0
H616 H 0.84235 0.41918 0.58893 0.0
C617 C 0.89676 0.3632 0.57849 0.0
C618 C 0.90629 0.34595 0.5658 0.0
C619 C 0.90157 0.33775 0.54886 0.0
C620 C 0.88747 0.34635 0.54466 0.0
C621 C 0.87837 0.3639 0.55751 0.0
C622 C 0.88289 0.37249 0.57406 0.0
C623 C 0.87125 0.39267 0.58551 0.0
C624 C 0.86855 0.35011 0.60003 0.0
C625 C 0.8743 0.4523 0.59254 0.0
C626 C 0.85936 0.39365 0.57291 0.0
C627 C 0.86359 0.37667 0.55683 0.0
C628 C 0.85417 0.3719 0.54335 0.0
C629 C 0.84006 0.38419 0.54649 0.0
C630 C 0.8356 0.40163 0.56291 0.0
C631 C 0.84546 0.407 0.57615 0.0
H632 H 0.65393 0.08427 0.84657 0.0
H633 H 0.66276 0.11004 0.79276 0.0
H634 H 0.63758 0.10432 0.7864 0.0
H635 H 0.6258 0.98378 0.84073 0.0
H636 H 0.61583 0.01104 0.85842 0.0
H637 H 0.63456 0.01585 0.85864 0.0
H638 H 0.63292 0.12454 0.86312 0.0
H639 H 0.6142 0.12004 0.86296 0.0
H640 H 0.62299 0.16672 0.84827 0.0
H641 H 0.61139 0.10001 0.78616 0.0
H642 H 0.58612 0.09646 0.79197 0.0
H643 H 0.59461 0.07092 0.84585 0.0
C644 C 0.6506 0.08859 0.83343 0.0
C645 C 0.6603 0.09773 0.82016 0.0
C646 C 0.6555 0.10298 0.80313 0.0
C647 C 0.64123 0.09974 0.7994 0.0
C648 C 0.63194 0.09079 0.81281 0.0
C649 C 0.63644 0.08508 0.82947 0.0
C650 C 0.62433 0.07655 0.84158 0.0
C651 C 0.62518 0.01834 0.85035 0.0
C652 C 0.62357 0.12484 0.85475 0.0
C653 C 0.61229 0.07909 0.82916 0.0
C654 C 0.6169 0.08726 0.81262 0.0
C655 C 0.60766 0.09315 0.79903 0.0
C656 C 0.59334 0.09114 0.80247 0.0
C657 C 0.5884 0.08311 0.81934 0.0
C658 C 0.59805 0.0764 0.83279 0.0
H659 H 0.64625 0.16748 0.41252 0.0
H660 H 0.65337 0.07128 0.45894 0.0
H661 H 0.62809 0.07277 0.46496 0.0
H662 H 0.61884 0.25698 0.4292 0.0
H663 H 0.60915 0.25685 0.4095 0.0
H664 H 0.62782 0.24934 0.40912 0.0
H665 H 0.62544 0.15558 0.39209 0.0
H666 H 0.60678 0.16302 0.39232 0.0
H667 H 0.61473 0.09933 0.40048 0.0
H668 H 0.60181 0.08206 0.46527 0.0
H669 H 0.57673 0.09676 0.45951 0.0
H670 H 0.58723 0.18846 0.41322 0.0
C671 C 0.64253 0.14676 0.42398 0.0
C672 C 0.65179 0.1192 0.43525 0.0
C673 C 0.64646 0.09267 0.45011 0.0
C674 C 0.63213 0.09341 0.45366 0.0
C675 C 0.62329 0.12112 0.44228 0.0
C676 C 0.6283 0.14731 0.42775 0.0
C677 C 0.61664 0.17316 0.41737 0.0
C678 C 0.61821 0.23793 0.41624 0.0
C679 C 0.61585 0.14614 0.39951 0.0
C680 C 0.60424 0.15679 0.42821 0.0
C681 C 0.60827 0.12701 0.44257 0.0
C682 C 0.59855 0.1057 0.45414 0.0
C683 C 0.58433 0.11432 0.45077 0.0
C684 C 0.58001 0.14398 0.43596 0.0
C685 C 0.59016 0.16611 0.42474 0.0
H686 H 0.34649 0.91909 0.18531 0.0
H687 H 0.3405 0.7369 0.18839 0.0
H688 H 0.366 0.72332 0.18885 0.0
H689 H 0.37581 0.91655 0.15772 0.0
H690 H 0.38457 0.97499 0.16794 0.0
H691 H 0.36585 0.97059 0.16849 0.0
H692 H 0.36633 0.97574 0.20153 0.0
H693 H 0.38506 0.98026 0.20109 0.0
H694 H 0.37665 0.9254 0.21334 0.0
H695 H 0.39203 0.72922 0.18741 0.0
H696 H 0.41691 0.75423 0.18525 0.0
H697 H 0.406 0.93281 0.18393 0.0
C698 C 0.35052 0.87632 0.18618 0.0
C699 C 0.34149 0.82901 0.1868 0.0
C700 C 0.34721 0.77378 0.18795 0.0
C701 C 0.36167 0.76563 0.1882 0.0
C702 C 0.37027 0.81315 0.18744 0.0
C703 C 0.36492 0.86743 0.18657 0.0
C704 C 0.37644 0.91124 0.18567 0.0
C705 C 0.37562 0.94533 0.16896 0.0
C706 C 0.3761 0.95046 0.20134 0.0
C707 C 0.38911 0.87303 0.18594 0.0
C708 C 0.38531 0.81662 0.18695 0.0
C709 C 0.39514 0.77325 0.18676 0.0
C710 C 0.40925 0.78792 0.18549 0.0
C711 C 0.4134 0.84548 0.18451 0.0
C712 C 0.40316 0.88849 0.18485 0.0
H713 H 0.3348 0.87972 0.55753 0.0
H714 H 0.3308 0.93966 0.6097 0.0
H715 H 0.35596 0.9246 0.61417 0.0
H716 H 0.36035 0.77188 0.56531 0.0
H717 H 0.36996 0.78512 0.54595 0.0
H718 H 0.35156 0.79975 0.54679 0.0
H719 H 0.35612 0.90354 0.53751 0.0
H720 H 0.37453 0.88913 0.53652 0.0
H721 H 0.36814 0.94644 0.54958 0.0
H722 H 0.38112 0.89942 0.61344 0.0
H723 H 0.40548 0.8753 0.60673 0.0
H724 H 0.39367 0.83701 0.55448 0.0
C725 C 0.33925 0.88973 0.56987 0.0
C726 C 0.33088 0.91067 0.5833 0.0
C727 C 0.33705 0.92382 0.59923 0.0
C728 C 0.35131 0.91512 0.60192 0.0
C729 C 0.35925 0.89399 0.58848 0.0
C730 C 0.35352 0.88224 0.57269 0.0
C731 C 0.36452 0.86175 0.56026 0.0
C732 C 0.36141 0.80102 0.55423 0.0
C733 C 0.36591 0.90267 0.54507 0.0
C734 C 0.37731 0.86357 0.57157 0.0
C735 C 0.37397 0.88162 0.58785 0.0
C736 C 0.3839 0.88559 0.60072 0.0
C737 C 0.3977 0.87151 0.59679 0.0
C738 C 0.40145 0.85444 0.58007 0.0
C739 C 0.39109 0.85023 0.56733 0.0
H740 H 0.66124 0.66331 0.33933 0.0
H741 H 0.67297 0.60122 0.28918 0.0
H742 H 0.64807 0.58863 0.28194 0.0
H743 H 0.63373 0.56636 0.34604 0.0
H744 H 0.6228 0.61642 0.35712 0.0
H745 H 0.64144 0.62404 0.35782 0.0
H746 H 0.63932 0.72653 0.34614 0.0
H747 H 0.62065 0.71932 0.34548 0.0
H748 H 0.63007 0.73894 0.32647 0.0
H749 H 0.62165 0.58089 0.28061 0.0
H750 H 0.59618 0.5767 0.28559 0.0
H751 H 0.60239 0.64111 0.33693 0.0
C752 C 0.6586 0.64772 0.32673 0.0
C753 C 0.66904 0.63354 0.31478 0.0
C754 C 0.66513 0.61248 0.29853 0.0
C755 C 0.65102 0.60526 0.2943 0.0
C756 C 0.641 0.61908 0.30649 0.0
C757 C 0.64464 0.6398 0.32238 0.0
C758 C 0.63199 0.64923 0.33349 0.0
C759 C 0.63253 0.61177 0.34956 0.0
C760 C 0.63042 0.71225 0.33816 0.0
C761 C 0.62063 0.63023 0.32144 0.0
C762 C 0.62597 0.61339 0.30587 0.0
C763 C 0.61736 0.59403 0.29275 0.0
C764 C 0.60293 0.59179 0.29569 0.0
C765 C 0.59732 0.60832 0.31166 0.0
C766 C 0.60634 0.62783 0.32461 0.0
H767 H 0.64694 0.65711 0.91064 0.0
H768 H 0.65333 0.57982 0.96032 0.0
H769 H 0.62801 0.58522 0.96589 0.0
H770 H 0.61976 0.75402 0.92333 0.0
H771 H 0.61022 0.74614 0.90366 0.0
H772 H 0.62887 0.73742 0.90383 0.0
H773 H 0.62625 0.63739 0.89049 0.0
H774 H 0.60762 0.64594 0.89018 0.0
H775 H 0.61526 0.58576 0.90082 0.0
H776 H 0.60178 0.59775 0.9657 0.0
H777 H 0.57683 0.61277 0.95925 0.0
H778 H 0.58801 0.68181 0.90974 0.0
C779 C 0.64305 0.6414 0.92273 0.0
C780 C 0.65212 0.61808 0.93505 0.0
C781 C 0.64658 0.59784 0.95067 0.0
C782 C 0.63222 0.60089 0.95398 0.0
C783 C 0.62358 0.62435 0.94155 0.0
C784 C 0.6288 0.64408 0.92622 0.0
C785 C 0.61732 0.66601 0.91477 0.0
C786 C 0.61916 0.72968 0.9112 0.0
C787 C 0.61657 0.63171 0.89809 0.0
C788 C 0.60478 0.65509 0.92598 0.0
C789 C 0.60858 0.63139 0.94142 0.0
C790 C 0.5987 0.6165 0.95367 0.0
C791 C 0.58455 0.62529 0.94991 0.0
C792 C 0.58046 0.64852 0.934 0.0
C793 C 0.59078 0.66419 0.92204 0.0
H794 H 0.3545 0.36052 0.68384 0.0
H795 H 0.34761 0.53587 0.69848 0.0
H796 H 0.37303 0.55124 0.69958 0.0
H797 H 0.38497 0.3375 0.71046 0.0
H798 H 0.39353 0.29338 0.69487 0.0
H799 H 0.37478 0.29572 0.69578 0.0
H800 H 0.37391 0.32413 0.66384 0.0
H801 H 0.39264 0.32189 0.66283 0.0
H802 H 0.3835 0.38544 0.6567 0.0
H803 H 0.39921 0.54846 0.69803 0.0
H804 H 0.42422 0.52739 0.69413 0.0
H805 H 0.41389 0.35371 0.6808 0.0
C806 C 0.35832 0.40209 0.68738 0.0
C807 C 0.34905 0.44698 0.69109 0.0
C808 C 0.3545 0.50076 0.69563 0.0
C809 C 0.36892 0.50994 0.69629 0.0
C810 C 0.37776 0.46485 0.69247 0.0
C811 C 0.37267 0.41194 0.68816 0.0
C812 C 0.38439 0.3709 0.68434 0.0
C813 C 0.38441 0.32146 0.69713 0.0
C814 C 0.38356 0.34935 0.66583 0.0
C815 C 0.39685 0.4092 0.68695 0.0
C816 C 0.39282 0.46316 0.69169 0.0
C817 C 0.4025 0.50624 0.69443 0.0
C818 C 0.41668 0.49386 0.69217 0.0
C819 C 0.42103 0.43887 0.68722 0.0
C820 C 0.41093 0.39608 0.6847 0.0
H821 H 0.34032 0.39208 0.05199 0.0
H822 H 0.33618 0.48449 0.0997 0.0
H823 H 0.36137 0.47477 0.10469 0.0
H824 H 0.3655 0.29282 0.06619 0.0
H825 H 0.37532 0.29199 0.04658 0.0
H826 H 0.35698 0.308 0.0462 0.0
H827 H 0.36205 0.40297 0.0308 0.0
H828 H 0.38042 0.3871 0.03103 0.0
H829 H 0.37416 0.45245 0.04016 0.0
H830 H 0.38643 0.44948 0.10571 0.0
H831 H 0.41055 0.41658 0.10159 0.0
H832 H 0.39906 0.34402 0.05263 0.0
C833 C 0.34474 0.41075 0.06339 0.0
C834 C 0.33626 0.43895 0.07547 0.0
C835 C 0.34244 0.46278 0.09024 0.0
C836 C 0.35675 0.45741 0.09322 0.0
C837 C 0.36477 0.42865 0.08123 0.0
C838 C 0.35907 0.4063 0.0665 0.0
C839 C 0.3701 0.37708 0.05578 0.0
C840 C 0.36677 0.31371 0.05356 0.0
C841 C 0.37178 0.40668 0.03842 0.0
C842 C 0.38282 0.38581 0.06693 0.0
C843 C 0.37946 0.41544 0.08158 0.0
C844 C 0.38925 0.42677 0.09422 0.0
C845 C 0.4029 0.40762 0.09179 0.0
C846 C 0.40667 0.37794 0.07677 0.0
C847 C 0.39649 0.36709 0.06416 0.0
H848 H 0.0006 0.24564 0.28839 0.0
H849 H 0.03549 0.15765 0.26499 0.0
H850 H 0.02903 0.19727 0.23703 0.0
H851 H 0.97662 0.22494 0.25292 0.0
H852 H 0.96858 0.29346 0.25546 0.0
H853 H 0.97587 0.25767 0.2737 0.0
H854 H 0.99123 0.34553 0.27998 0.0
H855 H 0.98413 0.3813 0.26163 0.0
H856 H 0.00271 0.37218 0.26362 0.0
H857 H 0.0197 0.24942 0.21205 0.0
H858 H 0.00635 0.30228 0.19053 0.0
H859 H 0.97684 0.35446 0.22957 0.0
C860 C 0.00681 0.23434 0.27736 0.0
C861 C 0.01858 0.19867 0.2789 0.0
C862 C 0.02641 0.18475 0.26414 0.0
C863 C 0.02288 0.20729 0.24821 0.0
C864 C 0.01141 0.24324 0.24719 0.0
C865 C 0.00334 0.25604 0.26128 0.0
C866 C 0.99138 0.29494 0.25652 0.0
C867 C 0.97728 0.26601 0.25984 0.0
C868 C 0.99243 0.35186 0.266 0.0
C869 C 0.99406 0.30218 0.23758 0.0
C870 C 0.00576 0.27237 0.23256 0.0
C871 C 0.01047 0.27266 0.21577 0.0
C872 C 0.00282 0.30308 0.20366 0.0
C873 C 0.99051 0.33242 0.20833 0.0
C874 C 0.98621 0.33254 0.2256 0.0
H875 H 0.22412 0.1011 0.26042 0.0
H876 H 0.25711 0.12663 0.29758 0.0
H877 H 0.27363 0.07736 0.27861 0.0
H878 H 0.23386 0.96298 0.24812 0.0
H879 H 0.22971 0.97202 0.22585 0.0
H880 H 0.22057 0.01269 0.24175 0.0
H881 H 0.22774 0.10604 0.22668 0.0
H882 H 0.23674 0.06563 0.21058 0.0
H883 H 0.2459 0.11957 0.22241 0.0
H884 H 0.28619 0.02013 0.25656 0.0
H885 H 0.29446 0.96517 0.23175 0.0
H886 H 0.25334 0.97736 0.20887 0.0
C887 C 0.23487 0.0972 0.26445 0.0
C888 C 0.23932 0.11775 0.28049 0.0
C889 C 0.25345 0.11132 0.28535 0.0
C890 C 0.26292 0.08326 0.27468 0.0
C891 C 0.25811 0.06214 0.25917 0.0
C892 C 0.24447 0.06933 0.25396 0.0
C893 C 0.24191 0.04151 0.23682 0.0
C894 C 0.23086 0.99451 0.23823 0.0
C895 C 0.23784 0.08584 0.22333 0.0
C896 C 0.25622 0.01709 0.23332 0.0
C897 C 0.26539 0.02938 0.24639 0.0
C898 C 0.27914 0.01055 0.24618 0.0
C899 C 0.28371 0.97913 0.23207 0.0
C900 C 0.27456 0.96701 0.21835 0.0
C901 C 0.2606 0.98593 0.21913 0.0
H902 H 0.00057 0.01675 0.95829 0.0
H903 H 0.03069 0.12638 0.98322 0.0
H904 H 0.02043 0.10245 0.0112 0.0
H905 H 0.97127 0.04675 0.98717 0.0
H906 H 0.9651 0.97464 0.98643 0.0
H907 H 0.97405 0.00441 0.96832 0.0
H908 H 0.99178 0.92159 0.96922 0.0
H909 H 0.98299 0.89192 0.98743 0.0
H910 H 0.00133 0.90801 0.98861 0.0
H911 H 0.00819 0.06067 0.03651 0.0
H912 H 0.99398 0.00802 0.05738 0.0
H913 H 0.97181 0.92579 0.01588 0.0
C914 C 0.00487 0.03661 0.96958 0.0
C915 C 0.01643 0.07353 0.96855 0.0
C916 C 0.02181 0.09811 0.98368 0.0
C917 C 0.01607 0.08473 -0.00036 0.0
C918 C 0.00491 0.04699 0.00022 0.0
C919 C -0.00073 0.02371 0.98559 0.0
C920 C 0.98767 0.98251 0.98976 0.0
C921 C 0.97369 0.00335 0.98249 0.0
C922 C 0.99116 0.92246 0.98338 0.0
C923 C 0.98782 0.98547 0.00905 0.0
C924 C 0.99782 0.02303 0.01482 0.0
C925 C 0.00024 0.03157 0.03215 0.0
C926 C 0.99214 0.00124 0.0439 0.0
C927 C 0.98176 0.96283 0.03827 0.0
C928 C 0.97961 0.955 0.02059 0.0
H929 H 0.22546 0.18291 0.979 0.0
H930 H 0.25123 0.23369 0.93608 0.0
H931 H 0.26527 0.29396 0.9552 0.0
H932 H 0.22498 0.3185 -0.00025 0.0
H933 H 0.22572 0.28938 0.021 0.0
H934 H 0.21778 0.24934 0.004 0.0
H935 H 0.23442 0.16514 0.01008 0.0
H936 H 0.24232 0.20474 0.02718 0.0
H937 H 0.25298 0.17695 0.01018 0.0
H938 H 0.27661 0.34833 0.97901 0.0
H939 H 0.28472 0.39126 0.00603 0.0
H940 H 0.25117 0.30665 0.03312 0.0
C941 C 0.2341 0.2064 0.97364 0.0
C942 C 0.23726 0.20349 0.95605 0.0
C943 C 0.24861 0.23524 0.94952 0.0
C944 C 0.25664 0.26969 0.96026 0.0
C945 C 0.25315 0.27212 0.97749 0.0
C946 C 0.24218 0.24127 0.98416 0.0
C947 C 0.2406 0.25154 0.00312 0.0
C948 C 0.22643 0.27882 0.0072 0.0
C949 C 0.24271 0.19631 0.01324 0.0
C950 C 0.25244 0.29273 0.00608 0.0
C951 C 0.25956 0.30411 0.99115 0.0
C952 C 0.2711 0.33994 0.99079 0.0
C953 C 0.27561 0.36417 0.00618 0.0
C954 C 0.26854 0.35254 0.02166 0.0
C955 C 0.25672 0.31686 0.02149 0.0
H956 H 0.97997 0.80598 0.7356 0.0
H957 H 0.00364 0.74778 0.6917 0.0
H958 H 0.01939 0.69495 0.71083 0.0
H959 H 0.00942 0.82443 0.76383 0.0
H960 H 7e-05 0.8002 0.78241 0.0
H961 H 0.99082 0.83411 0.76522 0.0
H962 H 0.97456 0.74676 0.76278 0.0
H963 H 0.98384 0.71238 0.77987 0.0
H964 H 0.98203 0.67748 0.75952 0.0
H965 H 0.03224 0.64668 0.73466 0.0
H966 H 0.04202 0.6104 0.76168 0.0
H967 H 0.00996 0.70039 0.78993 0.0
C968 C 0.98852 0.78246 0.73 0.0
C969 C 0.99057 0.78104 0.71215 0.0
C970 C 0.00187 0.74961 0.70534 0.0
C971 C 0.01085 0.71931 0.7161 0.0
C972 C 0.00842 0.72099 0.73361 0.0
C973 C 0.99759 0.75204 0.74053 0.0
C974 C 0.99726 0.74682 0.75978 0.0
C975 C -0.00046 0.80484 0.76831 0.0
C976 C 0.98361 0.71921 0.76584 0.0
C977 C 0.00959 0.70792 0.76259 0.0
C978 C 0.01585 0.69335 0.74734 0.0
C979 C 0.02744 0.65786 0.7467 0.0
C980 C 0.0329 0.63735 0.76211 0.0
C981 C 0.02677 0.65253 0.77792 0.0
C982 C 0.01488 0.68789 0.77807 0.0
H983 H 0.74911 0.00283 0.78877 0.0
H984 H 0.7199 0.1191 0.76496 0.0
H985 H 0.73005 0.09728 0.73677 0.0
H986 H 0.77858 0.03401 0.761 0.0
H987 H 0.78448 0.96148 0.76067 0.0
H988 H 0.77534 0.98845 0.77904 0.0
H989 H 0.75729 0.90724 0.77633 0.0
H990 H 0.76629 0.8803 0.75787 0.0
H991 H 0.74805 0.89779 0.75651 0.0
H992 H 0.74262 0.05975 0.7111 0.0
H993 H 0.75739 0.01187 0.68976 0.0
H994 H 0.77838 0.91988 0.73032 0.0
C995 C 0.74494 0.02426 0.77767 0.0
C996 C 0.73372 0.06276 0.77909 0.0
C997 C 0.72851 0.08953 0.76421 0.0
C998 C 0.73419 0.07737 0.74813 0.0
C999 C 0.74508 0.03848 0.74716 0.0
C1000 C 0.75047 0.01258 0.76153 0.0
C1001 C 0.762 0.97145 0.75695 0.0
C1002 C 0.77592 0.98998 0.76488 0.0
C1003 C 0.75817 0.9106 0.76223 0.0
C1004 C 0.76216 0.97792 0.73773 0.0
C1005 C 0.75234 0.01682 0.73235 0.0
C1006 C 0.7504 0.02942 0.71516 0.0
C1007 C 0.75883 0.00185 0.70313 0.0
C1008 C 0.76905 0.96213 0.70836 0.0
C1009 C 0.77067 0.95002 0.72591 0.0
H1010 H 0.74245 0.69703 0.96531 0.0
H1011 H 0.70358 0.65853 0.99124 0.0
H1012 H 0.7111 0.71606 0.01584 0.0
H1013 H 0.76424 0.69101 0.00268 0.0
H1014 H 0.7753 0.74839 0.99582 0.0
H1015 H 0.76675 0.70443 0.98023 0.0
H1016 H 0.75573 0.79394 0.96659 0.0
H1017 H 0.7641 0.83811 0.9823 0.0
H1018 H 0.74546 0.84107 0.97963 0.0
H1019 H 0.72264 0.7782 0.03745 0.0
H1020 H 0.73835 0.83407 0.05579 0.0
H1021 H 0.76979 0.83187 0.0159 0.0
C1022 C 0.73555 0.7004 0.97619 0.0
C1023 C 0.72242 0.67329 0.97633 0.0
C1024 C 0.7137 0.67879 0.99084 0.0
C1025 C 0.71784 0.71164 0.00484 0.0
C1026 C 0.73073 0.7386 0.00416 0.0
C1027 C 0.73952 0.73291 0.9903 0.0
C1028 C 0.75297 0.76526 0.99298 0.0
C1029 C 0.76556 0.72486 0.99293 0.0
C1030 C 0.75466 0.81239 0.97958 0.0
C1031 C 0.75039 0.78973 0.01056 0.0
C1032 C 0.73744 0.77422 0.0167 0.0
C1033 C 0.73281 0.79067 0.03279 0.0
C1034 C 0.7418 0.82255 0.04309 0.0
C1035 C 0.7553 0.8374 0.03729 0.0
C1036 C 0.7595 0.82163 0.02066 0.0
H1037 H 0.23405 0.5569 0.7697 0.0
H1038 H 0.26543 0.54074 0.80933 0.0
H1039 H 0.28062 0.48869 0.78934 0.0
H1040 H 0.2388 0.41947 0.7516 0.0
H1041 H 0.23626 0.4425 0.72989 0.0
H1042 H 0.22793 0.47999 0.74713 0.0
H1043 H 0.23933 0.57402 0.73722 0.0
H1044 H 0.24752 0.53698 0.7198 0.0
H1045 H 0.25797 0.57733 0.73455 0.0
H1046 H 0.2922 0.43681 0.76523 0.0
H1047 H 0.30009 0.39504 0.738 0.0
H1048 H 0.26099 0.44421 0.71432 0.0
C1049 C 0.24418 0.54301 0.77413 0.0
C1050 C 0.24856 0.55296 0.79108 0.0
C1051 C 0.26185 0.53368 0.7964 0.0
C1052 C 0.27054 0.50386 0.78516 0.0
C1053 C 0.26576 0.49364 0.76867 0.0
C1054 C 0.25296 0.51304 0.76311 0.0
C1055 C 0.25031 0.49649 0.74474 0.0
C1056 C 0.23757 0.45728 0.74326 0.0
C1057 C 0.2487 0.54935 0.73341 0.0
C1058 C 0.26367 0.46498 0.74081 0.0
C1059 C 0.27241 0.46353 0.75481 0.0
C1060 C 0.28544 0.43763 0.75417 0.0
C1061 C 0.28981 0.41383 0.73867 0.0
C1062 C 0.28116 0.41626 0.72403 0.0
C1063 C 0.26782 0.44126 0.72529 0.0
H1064 H 0.00039 0.50734 0.46493 0.0
H1065 H 0.02773 0.62642 0.49076 0.0
H1066 H 0.01917 0.59234 0.51857 0.0
H1067 H 0.97149 0.52178 0.494 0.0
H1068 H 0.96673 0.44796 0.49289 0.0
H1069 H 0.97509 0.48145 0.47496 0.0
H1070 H 0.99443 0.40476 0.47553 0.0
H1071 H 0.98618 0.37128 0.49356 0.0
H1072 H 0.00414 0.3931 0.49491 0.0
H1073 H 0.00801 0.54502 0.54348 0.0
H1074 H 0.9938 0.49151 0.56408 0.0
H1075 H 0.97338 0.40369 0.52224 0.0
C1076 C 0.00455 0.52639 0.47643 0.0
C1077 C 0.01475 0.56951 0.47566 0.0
C1078 C 0.0199 0.59339 0.49101 0.0
C1079 C 0.01514 0.57419 0.50688 0.0
C1080 C 0.0052 0.53124 0.50719 0.0
C1081 C -0.00013 0.50789 0.4924 0.0
C1082 C 0.98908 0.46288 0.49635 0.0
C1083 C 0.97475 0.47954 0.48912 0.0
C1084 C 0.99374 0.40456 0.48969 0.0
C1085 C 0.98916 0.46477 0.51567 0.0
C1086 C 0.99862 0.50425 0.52163 0.0
C1087 C 0.00056 0.51402 0.53898 0.0
C1088 C 0.99244 0.48328 0.55058 0.0
C1089 C 0.98245 0.44342 0.54479 0.0
C1090 C 0.98094 0.43372 0.52708 0.0
H1091 H 0.21781 0.6872 0.4816 0.0
H1092 H 0.25263 0.66613 0.44676 0.0
H1093 H 0.26815 0.71267 0.4676 0.0
H1094 H 0.22645 0.82269 0.49581 0.0
H1095 H 0.22122 0.81151 0.51765 0.0
H1096 H 0.21305 0.77175 0.5008 0.0
H1097 H 0.2198 0.67741 0.5156 0.0
H1098 H 0.22778 0.71689 0.53269 0.0
H1099 H 0.23774 0.66456 0.52119 0.0
H1100 H 0.27933 0.76959 0.49103 0.0
H1101 H 0.28593 0.82394 0.51672 0.0
H1102 H 0.24379 0.8066 0.53622 0.0
C1103 C 0.22875 0.6913 0.47846 0.0
C1104 C 0.234 0.67307 0.46254 0.0
C1105 C 0.24838 0.67954 0.45891 0.0
C1106 C 0.25727 0.70615 0.47063 0.0
C1107 C 0.25164 0.72547 0.48595 0.0
C1108 C 0.23776 0.71752 0.49001 0.0
C1109 C 0.23421 0.74364 0.50711 0.0
C1110 C 0.22307 0.79016 0.50522 0.0
C1111 C 0.22961 0.69789 0.5199 0.0
C1112 C 0.24819 0.76849 0.51189 0.0
C1113 C 0.25811 0.75763 0.49952 0.0
C1114 C 0.2717 0.77783 0.50089 0.0
C1115 C 0.27532 0.80898 0.51548 0.0
C1116 C 0.26538 0.81941 0.52849 0.0
C1117 C 0.25163 0.79919 0.52653 0.0
H1118 H 0.78421 0.4162 0.23002 0.0
H1119 H 0.76653 0.52724 0.19147 0.0
H1120 H 0.75393 0.57976 0.21377 0.0
H1121 H 0.75351 0.40626 0.25524 0.0
H1122 H 0.76252 0.40563 0.27542 0.0
H1123 H 0.77102 0.37897 0.25658 0.0
H1124 H 0.79152 0.44856 0.26151 0.0
H1125 H 0.78304 0.47563 0.28035 0.0
H1126 H 0.78804 0.52338 0.26346 0.0
H1127 H 0.7426 0.61829 0.23973 0.0
H1128 H 0.7321 0.63723 0.26785 0.0
H1129 H 0.75663 0.50074 0.28983 0.0
C1130 C 0.77778 0.45188 0.22632 0.0
C1131 C 0.77638 0.46768 0.20901 0.0
C1132 C 0.76774 0.51419 0.20464 0.0
C1133 C 0.76059 0.54457 0.21722 0.0
C1134 C 0.76214 0.52789 0.23413 0.0
C1135 C 0.77044 0.48251 0.23874 0.0
C1136 C 0.76963 0.47165 0.25778 0.0
C1137 C 0.76382 0.4121 0.26147 0.0
C1138 C 0.78391 0.48034 0.26627 0.0
C1139 C 0.75943 0.5175 0.26305 0.0
C1140 C 0.75539 0.5498 0.24921 0.0
C1141 C 0.74572 0.59353 0.2507 0.0
C1142 C 0.73982 0.60394 0.26674 0.0
C1143 C 0.74353 0.57051 0.28105 0.0
C1144 C 0.75364 0.52732 0.27917 0.0
H1145 H 0.77027 0.33045 0.51777 0.0
H1146 H 0.73848 0.33436 0.55722 0.0
H1147 H 0.72237 0.2833 0.53815 0.0
H1148 H 0.74641 0.3476 0.48128 0.0
H1149 H 0.75636 0.30017 0.46798 0.0
H1150 H 0.76497 0.34126 0.48425 0.0
H1151 H 0.77513 0.24894 0.49714 0.0
H1152 H 0.7664 0.2075 0.48109 0.0
H1153 H 0.76348 0.19268 0.50337 0.0
H1154 H 0.71042 0.22514 0.51589 0.0
H1155 H 0.7027 0.17007 0.49086 0.0
H1156 H 0.74217 0.20442 0.46578 0.0
C1157 C 0.75983 0.32162 0.52228 0.0
C1158 C 0.75563 0.33645 0.53899 0.0
C1159 C 0.74193 0.32351 0.54447 0.0
C1160 C 0.7327 0.29442 0.53375 0.0
C1161 C 0.73731 0.27887 0.51756 0.0
C1162 C 0.75047 0.2926 0.51175 0.0
C1163 C 0.75298 0.26921 0.494 0.0
C1164 C 0.75531 0.31744 0.48112 0.0
C1165 C 0.76522 0.22708 0.49391 0.0
C1166 C 0.73925 0.2394 0.49089 0.0
C1167 C 0.73036 0.24553 0.50464 0.0
C1168 C 0.71723 0.22048 0.50496 0.0
C1169 C 0.71298 0.18901 0.49072 0.0
C1170 C 0.72182 0.18297 0.47635 0.0
C1171 C 0.73515 0.20834 0.47654 0.0
H1172 H 0.47869 0.32829 0.72398 0.0
H1173 H 0.50986 0.28873 0.68558 0.0
H1174 H 0.52344 0.23608 0.70706 0.0
H1175 H 0.50309 0.34609 0.75952 0.0
H1176 H 0.49133 0.31449 0.77473 0.0
H1177 H 0.48453 0.3518 0.75649 0.0
H1178 H 0.47036 0.26254 0.74806 0.0
H1179 H 0.47731 0.22463 0.7661 0.0
H1180 H 0.4793 0.19614 0.74489 0.0
H1181 H 0.53279 0.18246 0.73207 0.0
H1182 H 0.53863 0.13947 0.75985 0.0
H1183 H 0.50148 0.21469 0.78203 0.0
C1184 C 0.48849 0.3094 0.72015 0.0
C1185 C 0.49321 0.31259 0.70309 0.0
C1186 C 0.50604 0.28695 0.69857 0.0
C1187 C 0.51381 0.25674 0.71066 0.0
C1188 C 0.50864 0.2529 0.72722 0.0
C1189 C 0.49639 0.27919 0.73205 0.0
C1190 C 0.49307 0.26789 0.75063 0.0
C1191 C 0.49301 0.32337 0.76095 0.0
C1192 C 0.47919 0.23589 0.75252 0.0
C1193 C 0.5053 0.2307 0.75543 0.0
C1194 C 0.51412 0.22239 0.74171 0.0
C1195 C 0.52603 0.18897 0.74295 0.0
C1196 C 0.52921 0.16447 0.75876 0.0
C1197 C 0.52053 0.17378 0.77313 0.0
C1198 C 0.50833 0.20674 0.77131 0.0
H1199 H 0.48404 0.95982 0.53103 0.0
H1200 H 0.44685 0.90168 0.50477 0.0
H1201 H 0.45504 0.94799 0.47829 0.0
H1202 H 0.48654 0.09605 0.51027 0.0
H1203 H 0.5053 0.09447 0.50927 0.0
H1204 H 0.49632 0.05813 0.52625 0.0
H1205 H 0.50873 0.96431 0.5181 0.0
H1206 H 0.51782 0.00044 0.50121 0.0
H1207 H 0.50754 0.93845 0.4965 0.0
H1208 H 0.46753 -0.00082 0.45464 0.0
H1209 H 0.48396 0.04666 0.43509 0.0
H1210 H 0.5129 0.07105 0.47706 0.0
C1211 C 0.47758 0.95682 0.51974 0.0
C1212 C 0.46479 0.92719 0.51996 0.0
C1213 C 0.45669 0.92412 0.50488 0.0
C1214 C 0.46122 0.95049 0.48982 0.0
C1215 C 0.47384 0.97971 0.4901 0.0
C1216 C 0.48193 0.98277 0.50465 0.0
C1217 C 0.49528 0.01521 0.50147 0.0
C1218 C 0.49589 0.06917 0.51247 0.0
C1219 C 0.5081 0.97733 0.50449 0.0
C1220 C 0.49352 0.02942 0.48278 0.0
C1221 C 0.48104 0.009 0.47649 0.0
C1222 C 0.4773 0.01556 0.45944 0.0
C1223 C 0.4867 0.04267 0.44845 0.0
C1224 C 0.49971 0.06264 0.45455 0.0
C1225 C 0.503 0.05668 0.47202 0.0
H1226 H 0.50525 0.77455 0.20518 0.0
H1227 H 0.46769 0.83295 0.23061 0.0
H1228 H 0.47677 0.7973 0.25804 0.0
H1229 H 0.50843 0.64726 0.22733 0.0
H1230 H 0.52717 0.64828 0.22869 0.0
H1231 H 0.51852 0.68374 0.21134 0.0
H1232 H 0.53088 0.77791 0.21916 0.0
H1233 H 0.53973 0.74254 0.23642 0.0
H1234 H 0.52951 0.80511 0.2406 0.0
H1235 H 0.48884 0.74763 0.28202 0.0
H1236 H 0.50385 0.69283 0.30149 0.0
H1237 H 0.5336 0.66687 0.26044 0.0
C1238 C 0.49905 0.78101 0.21656 0.0
C1239 C 0.48576 0.80662 0.21575 0.0
C1240 C 0.47791 0.81359 0.23093 0.0
C1241 C 0.48297 0.79343 0.24656 0.0
C1242 C 0.49592 0.76675 0.24681 0.0
C1243 C 0.50393 0.7611 0.23226 0.0
C1244 C 0.51719 0.72839 0.23584 0.0
C1245 C 0.51786 0.67368 0.22517 0.0
C1246 C 0.53009 0.76573 0.23283 0.0
C1247 C 0.51523 0.7155 0.2546 0.0
C1248 C 0.50292 0.73818 0.26068 0.0
C1249 C 0.49859 0.7302 0.27747 0.0
C1250 C 0.50716 0.69873 0.28839 0.0
C1251 C 0.51991 0.67561 0.28249 0.0
C1252 C 0.52395 0.68415 0.26535 0.0
H1253 H 0.48979 0.43647 0.02911 0.0
H1254 H 0.45524 0.35678 0.00258 0.0
H1255 H 0.46333 0.39919 0.97546 0.0
H1256 H 0.48878 0.56664 0.00641 0.0
H1257 H 0.50742 0.5757 0.00612 0.0
H1258 H 0.49931 0.53693 0.02323 0.0
H1259 H 0.51499 0.45004 0.01682 0.0
H1260 H 0.52325 0.48872 -0.00022 0.0
H1261 H 0.51534 0.42087 0.99555 0.0
H1262 H 0.47505 0.45187 0.95138 0.0
H1263 H 0.4897 0.50918 0.93206 0.0
H1264 H 0.51612 0.55598 0.97479 0.0
C1265 C 0.48398 0.42732 0.01759 0.0
C1266 C 0.47191 0.39309 0.01794 0.0
C1267 C 0.46454 0.38274 0.00259 0.0
C1268 C 0.46904 0.40671 0.98715 0.0
C1269 C 0.48087 0.441 0.98733 0.0
C1270 C 0.48825 0.45115 0.00215 0.0
C1271 C 0.50044 0.49048 -0.00096 0.0
C1272 C 0.49888 0.54571 0.00931 0.0
C1273 C 0.51433 0.46073 0.00303 0.0
C1274 C 0.49879 0.50097 0.98011 0.0
C1275 C 0.48746 0.472 0.97358 0.0
C1276 C 0.48394 0.47474 0.95636 0.0
C1277 C 0.49232 0.50748 0.9455 0.0
C1278 C 0.50403 0.53719 0.95193 0.0
C1279 C 0.50719 0.53412 0.9695 0.0
H1280 H 0.03623 0.47106 0.41434 0.0
H1281 H 0.06529 0.56256 0.38202 0.0
H1282 H 0.06554 0.4825 0.36177 0.0
H1283 H 0.05212 0.33448 0.40846 0.0
H1284 H 0.03586 0.29627 0.40857 0.0
H1285 H 0.03742 0.3618 0.4202 0.0
H1286 H 0.01629 0.40272 0.40372 0.0
H1287 H 0.01466 0.33732 0.39202 0.0
H1288 H 0.01654 0.40343 0.38072 0.0
H1289 H 0.06239 0.3943 0.34488 0.0
H1290 H 0.05744 0.29951 0.33319 0.0
H1291 H 0.03144 0.26205 0.37714 0.0
C1292 C 0.04257 0.47426 0.40294 0.0
C1293 C 0.05068 0.52301 0.39966 0.0
C1294 C 0.05901 0.5255 0.38477 0.0
C1295 C 0.05918 0.48039 0.37317 0.0
C1296 C 0.0511 0.4329 0.37677 0.0
C1297 C 0.04305 0.42916 0.39135 0.0
C1298 C 0.0358 0.3722 0.39248 0.0
C1299 C 0.04059 0.33925 0.40837 0.0
C1300 C 0.01988 0.37937 0.39221 0.0
C1301 C 0.04102 0.34466 0.37622 0.0
C1302 C 0.04971 0.38077 0.36729 0.0
C1303 C 0.05565 0.36551 0.35176 0.0
C1304 C 0.05273 0.31165 0.34521 0.0
C1305 C 0.04408 0.27343 0.35429 0.0
C1306 C 0.03816 0.29028 0.36999 0.0
H1307 H 0.19359 0.82543 0.40534 0.0
H1308 H 0.23205 0.75578 0.38501 0.0
H1309 H 0.23458 0.83938 0.36634 0.0
H1310 H 0.18084 0.87768 0.36643 0.0
H1311 H 0.17314 0.94073 0.37538 0.0
H1312 H 0.175 0.87815 0.3883 0.0
H1313 H 0.18884 0.93573 0.41081 0.0
H1314 H 0.18698 0.99864 0.39796 0.0
H1315 H 0.20406 0.97494 0.40432 0.0
H1316 H 0.23224 0.927 0.3488 0.0
H1317 H 0.22503 0.01256 0.33308 0.0
H1318 H 0.18788 0.02448 0.36458 0.0
C1319 C 0.20266 0.82817 0.39717 0.0
C1320 C 0.21266 0.78429 0.39666 0.0
C1321 C 0.22427 0.78898 0.3856 0.0
C1322 C 0.22583 0.83635 0.375 0.0
C1323 C 0.21568 0.87849 0.37564 0.0
C1324 C 0.20433 0.87493 0.38644 0.0
C1325 C 0.1945 0.9244 0.38394 0.0
C1326 C 0.18002 0.904 0.37816 0.0
C1327 C 0.19355 0.96057 0.40023 0.0
C1328 C 0.20198 0.95578 0.36982 0.0
C1329 C 0.21424 0.92886 0.36535 0.0
C1330 C 0.22272 0.94875 0.35225 0.0
C1331 C 0.21851 0.99731 0.34339 0.0
C1332 C 0.20588 0.02519 0.34761 0.0
C1333 C 0.19761 0.0043 0.36111 0.0
H1334 H 0.04782 0.97585 0.87144 0.0
H1335 H 0.03488 0.92784 0.92255 0.0
H1336 H 0.03304 0.82813 0.91334 0.0
H1337 H 0.02573 0.87535 0.8484 0.0
H1338 H 0.03881 0.86124 0.83244 0.0
H1339 H 0.03817 0.92945 0.84276 0.0
H1340 H 0.06397 0.91818 0.85193 0.0
H1341 H 0.06468 0.84991 0.8417 0.0
H1342 H 0.06914 0.85652 0.86396 0.0
H1343 H 0.03372 0.7331 0.899 0.0
H1344 H 0.03696 0.64938 0.88048 0.0
H1345 H 0.04964 0.75959 0.83888 0.0
C1346 C 0.04441 0.94452 0.88063 0.0
C1347 C 0.04147 0.95964 0.89769 0.0
C1348 C 0.03721 0.91723 0.9094 0.0
C1349 C 0.03609 0.86049 0.90429 0.0
C1350 C 0.03927 0.84689 0.88744 0.0
C1351 C 0.04331 0.88765 0.87578 0.0
C1352 C 0.04673 0.86145 0.85865 0.0
C1353 C 0.03676 0.88317 0.84474 0.0
C1354 C 0.06204 0.87215 0.85378 0.0
C1355 C 0.04415 0.79955 0.86258 0.0
C1356 C 0.03976 0.79205 0.87922 0.0
C1357 C 0.03706 0.73843 0.88591 0.0
C1358 C 0.03895 0.69115 0.8753 0.0
C1359 C 0.04354 0.69791 0.85824 0.0
C1360 C 0.04608 0.75296 0.85184 0.0
H1361 H 0.19223 0.46208 0.86765 0.0
H1362 H 0.21967 0.42884 0.82475 0.0
H1363 H 0.22165 0.32882 0.8336 0.0
H1364 H 0.21106 0.37714 0.8972 0.0
H1365 H 0.19581 0.35268 0.90842 0.0
H1366 H 0.1956 0.42046 0.89789 0.0
H1367 H 0.17381 0.38978 0.88064 0.0
H1368 H 0.17401 0.32171 0.89107 0.0
H1369 H 0.17442 0.32574 0.8681 0.0
H1370 H 0.22091 0.23295 0.84721 0.0
H1371 H 0.21944 0.15003 0.8664 0.0
H1372 H 0.19357 0.24708 0.90123 0.0
C1373 C 0.19854 0.43353 0.86005 0.0
C1374 C 0.20573 0.45291 0.84549 0.0
C1375 C 0.21409 0.41473 0.836 0.0
C1376 C 0.21521 0.35781 0.84084 0.0
C1377 C 0.20801 0.33996 0.85529 0.0
C1378 C 0.19997 0.37675 0.86489 0.0
C1379 C 0.19416 0.3477 0.88056 0.0
C1380 C 0.19948 0.37619 0.89698 0.0
C1381 C 0.17815 0.34614 0.88005 0.0
C1382 C 0.20029 0.28906 0.87833 0.0
C1383 C 0.20805 0.28519 0.86353 0.0
C1384 C 0.21485 0.23536 0.85884 0.0
C1385 C 0.21392 0.18848 0.86977 0.0
C1386 C 0.20644 0.19228 0.88529 0.0
C1387 C 0.1994 0.24302 0.88945 0.0
H1388 H 0.96017 0.6955 0.66295 0.0
H1389 H 0.9196 0.75385 0.64584 0.0
H1390 H 0.91738 0.66881 0.62764 0.0
H1391 H 0.97156 0.63766 0.62322 0.0
H1392 H 0.98025 0.5778 0.63277 0.0
H1393 H 0.97857 0.64305 0.64451 0.0
H1394 H 0.96653 0.58901 0.66925 0.0
H1395 H 0.96814 0.52357 0.65756 0.0
H1396 H 0.95128 0.54684 0.6649 0.0
H1397 H 0.92 0.57981 0.61054 0.0
H1398 H 0.92695 0.49104 0.5962 0.0
H1399 H 0.96539 0.4887 0.62539 0.0
C1400 C 0.95082 0.69048 0.65535 0.0
C1401 C 0.94007 0.73135 0.65573 0.0
C1402 C 0.92795 0.72301 0.64574 0.0
C1403 C 0.92661 0.6749 0.63537 0.0
C1404 C 0.9374 0.6354 0.63531 0.0
C1405 C 0.94924 0.64247 0.6451 0.0
C1406 C 0.95929 0.5936 0.64277 0.0
C1407 C 0.97324 0.61428 0.63537 0.0
C1408 C 0.96143 0.56135 0.65962 0.0
C1409 C 0.95131 0.55821 0.62996 0.0
C1410 C 0.93873 0.58319 0.62581 0.0
C1411 C 0.92977 0.55961 0.61378 0.0
C1412 C 0.93383 0.50932 0.60569 0.0
C1413 C 0.94667 0.483 0.60977 0.0
C1414 C 0.95544 0.50754 0.62219 0.0
H1415 H 0.81209 0.01634 0.64893 0.0
H1416 H 0.78047 0.92723 0.61976 0.0
H1417 H 0.77807 0.01018 0.60078 0.0
H1418 H 0.79671 0.15187 0.64745 0.0
H1419 H 0.81288 0.18993 0.64505 0.0
H1420 H 0.81264 0.12264 0.65588 0.0
H1421 H 0.83132 0.08381 0.63505 0.0
H1422 H 0.83171 0.15117 0.62422 0.0
H1423 H 0.82826 0.08721 0.61237 0.0
H1424 H 0.7777 0.10512 0.58658 0.0
H1425 H 0.78095 0.20301 0.57626 0.0
H1426 H 0.81363 0.22882 0.61378 0.0
C1427 C 0.80477 0.01405 0.63844 0.0
C1428 C 0.79644 0.96545 0.63582 0.0
C1429 C 0.787 0.96396 0.62194 0.0
C1430 C 0.78552 0.0109 0.61114 0.0
C1431 C 0.79371 0.05854 0.61426 0.0
C1432 C 0.80329 0.06018 0.6274 0.0
C1433 C 0.81076 0.1167 0.62805 0.0
C1434 C 0.80808 0.14706 0.64512 0.0
C1435 C 0.82644 0.10926 0.62472 0.0
C1436 C 0.80368 0.14697 0.61339 0.0
C1437 C 0.79383 0.11274 0.60568 0.0
C1438 C 0.7855 0.13211 0.59237 0.0
C1439 C 0.78737 0.18784 0.58667 0.0
C1440 C 0.79759 0.22331 0.59417 0.0
C1441 C 0.80584 0.20244 0.60769 0.0
H1442 H 0.94331 0.24438 0.12378 0.0
H1443 H 0.95943 0.20169 0.17391 0.0
H1444 H 0.95996 0.10052 0.16586 0.0
H1445 H 0.92168 0.12026 0.11798 0.0
H1446 H 0.92574 0.11354 0.09561 0.0
H1447 H 0.92596 0.1823 0.10561 0.0
H1448 H 0.9514 0.19753 0.09547 0.0
H1449 H 0.95125 0.12891 0.08542 0.0
H1450 H 0.9645 0.1458 0.10089 0.0
H1451 H 0.95858 0.00376 0.15238 0.0
H1452 H 0.95713 0.91957 0.13359 0.0
H1453 H 0.94307 0.02672 0.09199 0.0
C1454 C 0.94684 0.21367 0.13309 0.0
C1455 C 0.95125 0.23072 0.14948 0.0
C1456 C 0.95602 0.18946 0.16125 0.0
C1457 C 0.9563 0.1319 0.15684 0.0
C1458 C 0.95191 0.11645 0.14056 0.0
C1459 C 0.9474 0.15617 0.12882 0.0
C1460 C 0.9439 0.12878 0.1119 0.0
C1461 C 0.9284 0.13669 0.10753 0.0
C1462 C 0.95333 0.15161 0.09758 0.0
C1463 C 0.94718 0.06754 0.11597 0.0
C1464 C 0.95162 0.06112 0.13262 0.0
C1465 C 0.95514 0.00824 0.1393 0.0
C1466 C 0.95425 0.96071 0.12857 0.0
C1467 C 0.95006 0.96676 0.11135 0.0
C1468 C 0.94641 0.02087 0.10507 0.0
H1469 H 0.81182 0.51902 0.14507 0.0
H1470 H 0.7791 0.4325 0.11707 0.0
H1471 H 0.77641 0.51644 0.09843 0.0
H1472 H 0.7969 0.65607 0.14455 0.0
H1473 H 0.81321 0.69267 0.14163 0.0
H1474 H 0.81286 0.62524 0.15238 0.0
H1475 H 0.83084 0.58511 0.13084 0.0
H1476 H 0.83133 0.65257 0.12009 0.0
H1477 H 0.82725 0.58911 0.10829 0.0
H1478 H 0.77623 0.61198 0.0843 0.0
H1479 H 0.77986 0.70964 0.07394 0.0
H1480 H 0.81349 0.73179 0.11039 0.0
C1481 C 0.80413 0.51761 0.13496 0.0
C1482 C 0.7956 0.46951 0.13253 0.0
C1483 C 0.78575 0.46897 0.11909 0.0
C1484 C 0.78413 0.51643 0.1085 0.0
C1485 C 0.79258 0.56352 0.11141 0.0
C1486 C 0.80251 0.56417 0.12416 0.0
C1487 C 0.81029 0.61993 0.12461 0.0
C1488 C 0.80818 0.65025 0.14181 0.0
C1489 C 0.82585 0.61113 0.12072 0.0
C1490 C 0.80304 0.651 0.11027 0.0
C1491 C 0.7928 0.61783 0.10289 0.0
C1492 C 0.78431 0.63814 0.08985 0.0
C1493 C 0.78641 0.69372 0.08412 0.0
C1494 C 0.797 0.72809 0.09133 0.0
C1495 C 0.80542 0.70627 0.10454 0.0
H1496 H 0.55917 0.27453 0.8651 0.0
H1497 H 0.53254 0.29592 0.82078 0.0
H1498 H 0.52721 0.39375 0.82984 0.0
H1499 H 0.53712 0.34903 0.89397 0.0
H1500 H 0.55126 0.38022 0.90585 0.0
H1501 H 0.55368 0.3132 0.89527 0.0
H1502 H 0.57493 0.35415 0.87896 0.0
H1503 H 0.57253 0.4214 0.88946 0.0
H1504 H 0.57288 0.41781 0.86648 0.0
H1505 H 0.52467 0.48902 0.8438 0.0
H1506 H 0.52365 0.57232 0.86294 0.0
H1507 H 0.55111 0.48677 0.89865 0.0
C1508 C 0.55231 0.29999 0.85724 0.0
C1509 C 0.54633 0.27786 0.84221 0.0
C1510 C 0.53723 0.3121 0.83237 0.0
C1511 C 0.53419 0.36777 0.83736 0.0
C1512 C 0.54025 0.38833 0.85226 0.0
C1513 C 0.54902 0.35536 0.86214 0.0
C1514 C 0.55354 0.38653 0.87808 0.0
C1515 C 0.5486 0.35539 0.89424 0.0
C1516 C 0.56941 0.3955 0.87825 0.0
C1517 C 0.54587 0.44196 0.87566 0.0
C1518 C 0.53841 0.4425 0.86059 0.0
C1519 C 0.53047 0.48915 0.85565 0.0
C1520 C 0.52998 0.53627 0.86656 0.0
C1521 C 0.53725 0.53583 0.88227 0.0
C1522 C 0.54538 0.48821 0.88674 0.0
H1523 H 0.69727 0.82224 0.92641 0.0
H1524 H 0.71026 0.68656 0.89246 0.0
H1525 H 0.71525 0.75673 0.86994 0.0
H1526 H 0.67988 0.90369 0.89529 0.0
H1527 H 0.68513 0.97121 0.90393 0.0
H1528 H 0.68352 0.91071 0.91777 0.0
H1529 H 0.70905 0.92442 0.92778 0.0
H1530 H 0.71074 0.98502 0.91393 0.0
H1531 H 0.72283 0.92685 0.91216 0.0
H1532 H 0.71748 0.84071 0.85061 0.0
H1533 H 0.71664 0.93287 0.83572 0.0
H1534 H 0.70237 0.01354 0.88239 0.0
C1535 C 0.7013 0.80728 0.9143 0.0
C1536 C 0.70339 0.74895 0.9112 0.0
C1537 C 0.70859 0.73108 0.89514 0.0
C1538 C 0.71149 0.7706 0.88228 0.0
C1539 C 0.7092 0.82775 0.88572 0.0
C1540 C 0.70425 0.8461 0.90134 0.0
C1541 C 0.70212 0.90964 0.90151 0.0
C1542 C 0.68675 0.92467 0.90481 0.0
C1543 C 0.71176 0.93815 0.91462 0.0
C1544 C 0.70641 0.92401 0.88344 0.0
C1545 C 0.71054 0.87624 0.87458 0.0
C1546 C 0.71439 0.87853 0.85745 0.0
C1547 C 0.71385 0.93102 0.84911 0.0
C1548 C 0.70948 0.98038 0.85791 0.0
C1549 C 0.7059 0.97672 0.87536 0.0
H1550 H 0.56264 0.81854 0.32755 0.0
H1551 H 0.53975 0.69047 0.35585 0.0
H1552 H 0.53497 0.76009 0.37858 0.0
H1553 H 0.57846 0.88539 0.36424 0.0
H1554 H 0.57713 0.95585 0.3555 0.0
H1555 H 0.57884 0.8958 0.34145 0.0
H1556 H 0.55625 0.92562 0.3257 0.0
H1557 H 0.55445 0.98568 0.33972 0.0
H1558 H 0.54041 0.93538 0.33773 0.0
H1559 H 0.53213 0.84361 0.39778 0.0
H1560 H 0.53206 0.93539 0.41282 0.0
H1561 H 0.55719 0.00871 0.37232 0.0
C1562 C 0.55664 0.8051 0.33854 0.0
C1563 C 0.55155 0.74916 0.33992 0.0
C1564 C 0.54377 0.73314 0.35453 0.0
C1565 C 0.54099 0.77234 0.3675 0.0
C1566 C 0.54611 0.8272 0.36569 0.0
C1567 C 0.55383 0.84358 0.35165 0.0
C1568 C 0.55813 0.90516 0.35289 0.0
C1569 C 0.57409 0.91086 0.35356 0.0
C1570 C 0.55194 0.94 0.33814 0.0
C1571 C 0.55154 0.92088 0.36978 0.0
C1572 C 0.54463 0.87531 0.37692 0.0
C1573 C 0.53755 0.87959 0.39237 0.0
C1574 C 0.53756 0.93193 0.40079 0.0
C1575 C 0.54466 0.97914 0.39376 0.0
C1576 C 0.55173 0.97334 0.37806 0.0
H1577 H 0.69252 0.32714 0.42344 0.0
H1578 H 0.71298 0.19515 0.39401 0.0
H1579 H 0.71902 0.26527 0.37184 0.0
H1580 H 0.67754 0.3992 0.388 0.0
H1581 H 0.67995 0.46894 0.39692 0.0
H1582 H 0.67778 0.40883 0.41083 0.0
H1583 H 0.70108 0.43314 0.42589 0.0
H1584 H 0.70333 0.49331 0.412 0.0
H1585 H 0.71675 0.44006 0.41336 0.0
H1586 H 0.72241 0.34916 0.35264 0.0
H1587 H 0.72228 0.44054 0.33729 0.0
H1588 H 0.69936 0.51721 0.37917 0.0
C1589 C 0.69834 0.313 0.41239 0.0
C1590 C 0.70231 0.25573 0.41047 0.0
C1591 C 0.70983 0.23885 0.39575 0.0
C1592 C 0.71334 0.27837 0.38311 0.0
C1593 C 0.70924 0.33447 0.38538 0.0
C1594 C 0.70188 0.35178 0.39962 0.0
C1595 C 0.69833 0.41421 0.39871 0.0
C1596 C 0.68246 0.4233 0.3986 0.0
C1597 C 0.70529 0.44711 0.41336 0.0
C1598 C 0.70476 0.42918 0.38167 0.0
C1599 C 0.71108 0.3827 0.37424 0.0
C1600 C 0.71753 0.38593 0.35834 0.0
C1601 C 0.7174 0.43801 0.34974 0.0
C1602 C 0.7108 0.486 0.35703 0.0
C1603 C 0.70452 0.48138 0.37327 0.0
H1604 H 0.45603 0.49955 0.08156 0.0
H1605 H 0.47543 0.39023 0.11927 0.0
H1606 H 0.48005 0.47375 0.13749 0.0
H1607 H 0.47879 0.62408 0.08789 0.0
H1608 H 0.46451 0.67284 0.08506 0.0
H1609 H 0.46444 0.60561 0.07413 0.0
H1610 H 0.44035 0.5823 0.08739 0.0
H1611 H 0.44038 0.64918 0.09839 0.0
H1612 H 0.4383 0.58427 0.11026 0.0
H1613 H 0.48042 0.56765 0.15269 0.0
H1614 H 0.4762 0.6639 0.16392 0.0
H1615 H 0.45632 0.71064 0.11617 0.0
C1616 C 0.46152 0.49314 0.09348 0.0
C1617 C 0.46542 0.4384 0.09898 0.0
C1618 C 0.47238 0.43184 0.11479 0.0
C1619 C 0.47509 0.47902 0.12519 0.0
C1620 C 0.47083 0.53229 0.11951 0.0
C1621 C 0.46423 0.53954 0.10399 0.0
C1622 C 0.45965 0.60026 0.10142 0.0
C1623 C 0.46731 0.62729 0.08622 0.0
C1624 C 0.44373 0.6042 0.09925 0.0
C1625 C 0.46433 0.62584 0.11814 0.0
C1626 C 0.47092 0.5862 0.12832 0.0
C1627 C 0.47543 0.59922 0.14475 0.0
C1628 C 0.47296 0.65397 0.15102 0.0
C1629 C 0.46594 0.69479 0.1409 0.0
C1630 C 0.46182 0.68059 0.12416 0.0
H1631 H 0.30416 0.06105 0.1524 0.0
H1632 H 0.26757 0.98567 0.12899 0.0
H1633 H 0.26495 0.07018 0.11065 0.0
H1634 H 0.29147 0.20483 0.15286 0.0
H1635 H 0.30827 0.23509 0.14812 0.0
H1636 H 0.30714 0.16897 0.15953 0.0
H1637 H 0.32285 0.12089 0.13683 0.0
H1638 H 0.32407 0.18686 0.12539 0.0
H1639 H 0.31794 0.12406 0.11464 0.0
H1640 H 0.26666 0.16202 0.0945 0.0
H1641 H 0.27265 0.2542 0.08153 0.0
H1642 H 0.30797 0.26929 0.11588 0.0
C1643 C 0.29558 0.06221 0.14344 0.0
C1644 C 0.28607 0.01675 0.14211 0.0
C1645 C 0.27498 0.02004 0.13023 0.0
C1646 C 0.27339 0.06785 0.11978 0.0
C1647 C 0.28296 0.11194 0.12144 0.0
C1648 C 0.29382 0.10954 0.13298 0.0
C1649 C 0.30276 0.16227 0.13215 0.0
C1650 C 0.30238 0.1947 0.14918 0.0
C1651 C 0.31779 0.14762 0.12694 0.0
C1652 C 0.2953 0.19457 0.11823 0.0
C1653 C 0.28388 0.16491 0.11224 0.0
C1654 C 0.27554 0.18574 0.09913 0.0
C1655 C 0.27903 0.23811 0.09185 0.0
C1656 C 0.29076 0.26897 0.09772 0.0
C1657 C 0.2989 0.24692 0.11118 0.0
H1658 H 0.43708 0.20933 0.62683 0.0
H1659 H 0.47115 0.18608 0.66261 0.0
H1660 H 0.47541 0.09052 0.65093 0.0
H1661 H 0.4244 0.06512 0.62761 0.0
H1662 H 0.42043 0.06401 0.60513 0.0
H1663 H 0.41973 0.1298 0.61677 0.0
H1664 H 0.43711 0.17479 0.59536 0.0
H1665 H 0.43788 0.10914 0.58368 0.0
H1666 H 0.45368 0.14093 0.59162 0.0
H1667 H 0.4759 0.99718 0.6354 0.0
H1668 H 0.47311 0.91447 0.61625 0.0
H1669 H 0.43938 0.00101 0.59009 0.0
C1670 C 0.44537 0.18399 0.63229 0.0
C1671 C 0.45375 0.20498 0.64565 0.0
C1672 C 0.46461 0.17081 0.65233 0.0
C1673 C 0.4671 0.11644 0.64582 0.0
C1674 C 0.4587 0.0971 0.63257 0.0
C1675 C 0.4481 0.1299 0.62582 0.0
C1676 C 0.44087 0.09988 0.61126 0.0
C1677 C 0.42544 0.08906 0.61545 0.0
C1678 C 0.44249 0.13317 0.59449 0.0
C1679 C 0.44909 0.0452 0.61086 0.0
C1680 C 0.45924 0.04412 0.62333 0.0
C1681 C 0.46801 0.99755 0.62554 0.0
C1682 C 0.46634 0.95083 0.61464 0.0
C1683 C 0.45611 0.95156 0.60164 0.0
C1684 C 0.4474 -0.00057 0.5998 0.0
H1685 H 0.30255 0.55997 0.66268 0.0
H1686 H 0.26975 0.46629 0.63696 0.0
H1687 H 0.26339 0.55239 0.62084 0.0
H1688 H 0.28398 0.69722 0.66499 0.0
H1689 H 0.2997 0.73695 0.66109 0.0
H1690 H 0.30054 0.66987 0.67205 0.0
H1691 H 0.31832 0.63314 0.64972 0.0
H1692 H 0.31754 0.69993 0.63872 0.0
H1693 H 0.31386 0.63515 0.62737 0.0
H1694 H 0.26223 0.6454 0.6055 0.0
H1695 H 0.26654 0.738 0.59182 0.0
H1696 H 0.29999 0.77052 0.62783 0.0
C1697 C 0.29387 0.55772 0.65388 0.0
C1698 C 0.28664 0.50648 0.65108 0.0
C1699 C 0.27543 0.50517 0.63932 0.0
C1700 C 0.2717 0.55389 0.63016 0.0
C1701 C 0.27921 0.60351 0.63304 0.0
C1702 C 0.29002 0.60583 0.64467 0.0
C1703 C 0.2971 0.66306 0.64449 0.0
C1704 C 0.29521 0.69357 0.66168 0.0
C1705 C 0.31262 0.65745 0.63979 0.0
C1706 C 0.28891 0.69195 0.63051 0.0
C1707 C 0.27851 0.65723 0.62422 0.0
C1708 C 0.27019 0.67333 0.61048 0.0
C1709 C 0.27275 0.72591 0.60278 0.0
C1710 C 0.28358 0.76149 0.6088 0.0
C1711 C 0.29153 0.7446 0.62306 0.0
H1712 H 0.0405 0.75991 0.37824 0.0
H1713 H 0.01413 0.8026 0.42134 0.0
H1714 H 0.00758 0.8926 0.40712 0.0
H1715 H 0.05402 0.89628 0.37248 0.0
H1716 H 0.05485 0.89156 0.34954 0.0
H1717 H 0.0561 0.82832 0.36226 0.0
H1718 H 0.0353 0.78454 0.34576 0.0
H1719 H 0.03398 0.84778 0.33297 0.0
H1720 H 0.01904 0.82258 0.34466 0.0
H1721 H 0.0048 0.98011 0.3884 0.0
H1722 H 0.00745 0.05992 0.36811 0.0
H1723 H 0.03657 0.95986 0.33834 0.0
C1724 C 0.03314 0.78761 0.38458 0.0
C1725 C 0.02769 0.77406 0.40081 0.0
C1726 C 0.01836 0.81213 0.40886 0.0
C1727 C 0.01455 0.86316 0.40085 0.0
C1728 C 0.02024 0.87544 0.38488 0.0
C1729 C 0.02941 0.83878 0.37692 0.0
C1730 C 0.03499 0.86349 0.36048 0.0
C1731 C 0.05093 0.87033 0.36125 0.0
C1732 C 0.03056 0.82745 0.34506 0.0
C1733 C 0.02771 0.92026 0.36052 0.0
C1734 C 0.01906 0.92617 0.37451 0.0
C1735 C 0.01149 0.97578 0.37736 0.0
C1736 C 0.01303 0.02079 0.36576 0.0
C1737 C 0.02223 0.01604 0.35169 0.0
C1738 C 0.02947 0.96476 0.34899 0.0
H1739 H 0.21396 0.43409 0.41729 0.0
H1740 H 0.20134 0.57149 0.38376 0.0
H1741 H 0.20342 0.50805 0.35897 0.0
H1742 H 0.23904 0.36942 0.38785 0.0
H1743 H 0.23453 0.29814 0.39402 0.0
H1744 H 0.23291 0.35522 0.40918 0.0
H1745 H 0.20696 0.32933 0.414 0.0
H1746 H 0.20851 0.27218 0.3989 0.0
H1747 H 0.19536 0.3258 0.39594 0.0
H1748 H 0.20543 0.42918 0.33802 0.0
H1749 H 0.20708 0.33884 0.32227 0.0
H1750 H 0.21867 0.25264 0.36914 0.0
C1751 C 0.21176 0.45096 0.40472 0.0
C1752 C 0.20748 0.50777 0.4025 0.0
C1753 C 0.20461 0.52809 0.38583 0.0
C1754 C 0.20581 0.49247 0.37163 0.0
C1755 C 0.20995 0.43667 0.37426 0.0
C1756 C 0.21291 0.41592 0.39036 0.0
C1757 C 0.21657 0.35351 0.38968 0.0
C1758 C 0.23166 0.34351 0.39553 0.0
C1759 C 0.20623 0.31814 0.40025 0.0
C1760 C 0.21494 0.34235 0.37074 0.0
C1761 C 0.21121 0.391 0.36208 0.0
C1762 C 0.20849 0.39085 0.34461 0.0
C1763 C 0.20943 0.33934 0.33578 0.0
C1764 C 0.21307 0.28878 0.34445 0.0
C1765 C 0.21604 0.29068 0.36211 0.0
H1766 H 0.05395 0.4369 0.84843 0.0
H1767 H 0.01204 0.43912 0.82757 0.0
H1768 H 0.00592 0.35645 0.84543 0.0
H1769 H 0.05752 0.28444 0.85114 0.0
H1770 H 0.06708 0.28712 0.87092 0.0
H1771 H 0.06822 0.34511 0.85604 0.0
H1772 H 0.0604 0.41483 0.87976 0.0
H1773 H 0.05917 0.35705 0.89469 0.0
H1774 H 0.0443 0.40206 0.89098 0.0
H1775 H 0.00428 0.27451 0.86612 0.0
H1776 H 0.00732 0.19942 0.8878 0.0
H1777 H 0.05024 0.25233 0.89517 0.0
C1778 C 0.04351 0.41977 0.84747 0.0
C1779 C 0.03348 0.44441 0.83655 0.0
C1780 C 0.01991 0.42092 0.83582 0.0
C1781 C 0.01633 0.37398 0.84592 0.0
C1782 C 0.02644 0.35111 0.85668 0.0
C1783 C 0.03975 0.37319 0.85749 0.0
C1784 C 0.04861 0.34165 0.87034 0.0
C1785 C 0.06109 0.31287 0.86158 0.0
C1786 C 0.0534 0.38127 0.8848 0.0
C1787 C 0.03818 0.29845 0.8767 0.0
C1788 C 0.02546 0.30446 0.86865 0.0
C1789 C 0.01421 0.26936 0.87248 0.0
C1790 C 0.01603 0.22687 0.88483 0.0
C1791 C 0.029 0.21999 0.89321 0.0
C1792 C 0.04017 0.25648 0.88904 0.0
H1793 H 0.21058 0.91784 0.91869 0.0
H1794 H 0.24678 -0.00123 0.89614 0.0
H1795 H 0.25018 0.91577 0.87741 0.0
H1796 H 0.22443 0.77091 0.91698 0.0
H1797 H 0.20755 0.74169 0.91205 0.0
H1798 H 0.20889 0.8049 0.92488 0.0
H1799 H 0.19263 0.85763 0.90377 0.0
H1800 H 0.19134 0.79489 0.89082 0.0
H1801 H 0.1972 0.86048 0.88146 0.0
H1802 H 0.24769 0.83021 0.85853 0.0
H1803 H 0.24067 0.74419 0.84263 0.0
H1804 H 0.20689 0.71694 0.87849 0.0
C1805 C 0.2194 0.91761 0.91007 0.0
C1806 C 0.22842 0.96476 0.90888 0.0
C1807 C 0.23979 0.96298 0.89736 0.0
C1808 C 0.24179 0.91606 0.88664 0.0
C1809 C 0.23248 0.87094 0.88781 0.0
C1810 C 0.22164 0.8709 0.89943 0.0
C1811 C 0.21273 0.81829 0.89762 0.0
C1812 C 0.21345 0.78178 0.91385 0.0
C1813 C 0.19759 0.83378 0.89315 0.0
C1814 C 0.21999 0.7896 0.88281 0.0
C1815 C 0.23135 0.82061 0.87732 0.0
C1816 C 0.23899 0.80492 0.86294 0.0
C1817 C 0.2349 0.75626 0.85394 0.0
C1818 C 0.22337 0.7237 0.85948 0.0
C1819 C 0.21594 0.74037 0.8742 0.0
H1820 H 0.94976 0.18485 0.59252 0.0
H1821 H 0.98852 0.2558 0.61144 0.0
H1822 H 0.99076 0.17564 0.63159 0.0
H1823 H 0.93674 0.13752 0.63195 0.0
H1824 H 0.92916 0.07336 0.62359 0.0
H1825 H 0.93107 0.13444 0.61003 0.0
H1826 H 0.94514 0.0746 0.58827 0.0
H1827 H 0.94321 0.01317 0.60172 0.0
H1828 H 0.96033 0.0363 0.59535 0.0
H1829 H 0.98772 0.0911 0.6512 0.0
H1830 H 0.98039 0.00611 0.66739 0.0
H1831 H 0.94405 0.99006 0.63479 0.0
C1832 C 0.9588 0.1833 0.60076 0.0
C1833 C 0.96896 0.22661 0.60042 0.0
C1834 C 0.98064 0.22295 0.61142 0.0
C1835 C 0.98199 0.17766 0.62294 0.0
C1836 C 0.97165 0.13616 0.62313 0.0
C1837 C 0.96037 0.13829 0.61218 0.0
C1838 C 0.95057 0.08902 0.61508 0.0
C1839 C 0.93603 0.10986 0.62049 0.0
C1840 C 0.94977 0.05102 0.59916 0.0
C1841 C 0.95794 0.05934 0.62961 0.0
C1842 C 0.97008 0.08709 0.6341 0.0
C1843 C 0.97832 0.06868 0.64766 0.0
C1844 C 0.97405 0.02053 0.65682 0.0
C1845 C 0.9617 0.9913 0.65229 0.0
C1846 C 0.95362 0.01107 0.63846 0.0
H1847 H 0.80145 0.48807 0.62512 0.0
H1848 H 0.76581 0.51521 0.59211 0.0
H1849 H 0.75928 0.59979 0.60905 0.0
H1850 H 0.78588 0.53711 0.66507 0.0
H1851 H 0.80162 0.57183 0.67202 0.0
H1852 H 0.80262 0.51025 0.65846 0.0
H1853 H 0.81728 0.56698 0.63654 0.0
H1854 H 0.81637 0.62855 0.65005 0.0
H1855 H 0.81056 0.63277 0.62821 0.0
H1856 H 0.757 0.68242 0.62922 0.0
H1857 H 0.76055 0.76293 0.6489 0.0
H1858 H 0.79862 0.68505 0.66741 0.0
C1859 C 0.79214 0.51132 0.62165 0.0
C1860 C 0.784 0.49492 0.60749 0.0
C1861 C 0.77212 0.52715 0.60299 0.0
C1862 C 0.7683 0.57494 0.61258 0.0
C1863 C 0.77659 0.59021 0.62646 0.0
C1864 C 0.78836 0.55975 0.63085 0.0
C1865 C 0.7962 0.58792 0.64532 0.0
C1866 C 0.7966 0.54948 0.66116 0.0
C1867 C 0.81097 0.60508 0.63969 0.0
C1868 C 0.78707 0.63931 0.64829 0.0
C1869 C 0.77567 0.63928 0.63752 0.0
C1870 C 0.76587 0.68284 0.63775 0.0
C1871 C 0.76795 0.72828 0.64902 0.0
C1872 C 0.77986 0.73023 0.65967 0.0
C1873 C 0.78941 0.68467 0.65943 0.0
H1874 H 0.97583 0.5445 0.1521 0.0
H1875 H 0.9731 0.42105 0.11115 0.0
H1876 H 0.97366 0.49838 0.08998 0.0
H1877 H 0.95394 0.64476 0.13462 0.0
H1878 H 0.96368 0.70601 0.14146 0.0
H1879 H 0.96479 0.64102 0.15337 0.0
H1880 H 0.99164 0.64075 0.14996 0.0
H1881 H 0.99064 0.70618 0.13814 0.0
H1882 H 0.99917 0.64537 0.12892 0.0
H1883 H 0.97057 0.58892 0.07369 0.0
H1884 H 0.96679 0.68675 0.06321 0.0
H1885 H 0.97338 0.75143 0.11436 0.0
C1886 C 0.97569 0.53367 0.13867 0.0
C1887 C 0.97442 0.47674 0.13328 0.0
C1888 C 0.97417 0.4643 0.11559 0.0
C1889 C 0.97445 0.50796 0.10346 0.0
C1890 C 0.97527 0.56374 0.10921 0.0
C1891 C 0.97619 0.5767 0.12638 0.0
C1892 C 0.97636 0.64022 0.12922 0.0
C1893 C 0.96395 0.65907 0.14032 0.0
C1894 C 0.99028 0.65924 0.13702 0.0
C1895 C 0.97486 0.66093 0.11101 0.0
C1896 C 0.97423 0.61613 0.09966 0.0
C1897 C 0.97143 0.62442 0.08237 0.0
C1898 C 0.96924 0.67994 0.07655 0.0
C1899 C 0.97007 0.72632 0.08794 0.0
C1900 C 0.97309 0.71668 0.10532 0.0
H1901 H 0.79975 0.18593 0.16542 0.0
H1902 H 0.76224 0.26891 0.14722 0.0
H1903 H 0.75771 0.18819 0.12794 0.0
H1904 H 0.81083 0.13197 0.12662 0.0
H1905 H 0.8171 0.0653 0.13482 0.0
H1906 H 0.81668 0.12667 0.14843 0.0
H1907 H 0.80159 0.07216 0.17041 0.0
H1908 H 0.80209 0.01028 0.15693 0.0
H1909 H 0.78558 0.03928 0.16359 0.0
H1910 H 0.75918 0.10532 0.10777 0.0
H1911 H 0.76511 0.02065 0.09054 0.0
H1912 H 0.80066 0.98859 0.1233 0.0
C1913 C 0.79042 0.18653 0.15764 0.0
C1914 C 0.78134 0.23362 0.15781 0.0
C1915 C 0.76928 0.23304 0.1474 0.0
C1916 C 0.76664 0.18747 0.13636 0.0
C1917 C 0.77602 0.14238 0.13615 0.0
C1918 C 0.78751 0.14099 0.14678 0.0
C1919 C 0.7962 0.08843 0.1437 0.0
C1920 C 0.81108 0.10406 0.13805 0.0
C1921 C 0.79637 0.05027 0.1596 0.0
C1922 C 0.78806 0.06142 0.1293 0.0
C1923 C 0.77647 0.09326 0.12508 0.0
C1924 C 0.76804 0.07933 0.11121 0.0
C1925 C 0.77152 0.03147 0.10145 0.0
C1926 C 0.7832 0.99787 0.10578 0.0
C1927 C 0.79148 0.01286 0.11997 0.0
H1928 H 0.53506 0.8166 0.91574 0.0
H1929 H 0.4998 0.74132 0.88951 0.0
H1930 H 0.49881 0.82377 0.87013 0.0
H1931 H 0.52305 0.96626 0.91177 0.0
H1932 H 0.54057 0.99184 0.90877 0.0
H1933 H 0.53745 0.92992 0.92169 0.0
H1934 H 0.55469 0.87267 0.90294 0.0
H1935 H 0.55776 0.93408 0.88988 0.0
H1936 H 0.55191 0.86897 0.88021 0.0
H1937 H 0.50398 0.90693 0.85104 0.0
H1938 H 0.5134 0.98995 0.83553 0.0
H1939 H 0.54427 0.01375 0.87529 0.0
C1940 C 0.52693 0.81808 0.90616 0.0
C1941 C 0.51751 0.77261 0.90412 0.0
C1942 C 0.50706 0.7759 0.89139 0.0
C1943 C 0.50644 0.82249 0.88029 0.0
C1944 C 0.51616 0.86583 0.88233 0.0
C1945 C 0.52603 0.86458 0.89517 0.0
C1946 C 0.53567 0.91527 0.89417 0.0
C1947 C 0.53408 0.95307 0.91004 0.0
C1948 C 0.5509 0.8966 0.89164 0.0
C1949 C 0.52999 0.94418 0.87841 0.0
C1950 C 0.51875 0.91504 0.87174 0.0
C1951 C 0.51256 0.93087 0.85636 0.0
C1952 C 0.51801 0.97778 0.8476 0.0
C1953 C 0.52941 0.00851 0.85436 0.0
C1954 C 0.53534 0.99175 0.87005 0.0
H1955 H 0.68869 0.45675 0.88724 0.0
H1956 H 0.72146 0.4401 0.92508 0.0
H1957 H 0.731 0.35794 0.90926 0.0
H1958 H 0.68312 0.30809 0.88094 0.0
H1959 H 0.67978 0.31537 0.85841 0.0
H1960 H 0.67582 0.37295 0.87269 0.0
H1961 H 0.69132 0.43994 0.85457 0.0
H1962 H 0.69542 0.38241 0.84032 0.0
H1963 H 0.70924 0.42121 0.85063 0.0
H1964 H 0.737 0.27775 0.88886 0.0
H1965 H 0.73797 0.20258 0.86687 0.0
H1966 H 0.701 0.27271 0.84294 0.0
C1967 C 0.69787 0.4359 0.89224 0.0
C1968 C 0.70436 0.4549 0.90737 0.0
C1969 C 0.71631 0.42616 0.91352 0.0
C1970 C 0.72183 0.37966 0.90459 0.0
C1971 C 0.71524 0.36244 0.88959 0.0
C1972 C 0.70345 0.38948 0.88357 0.0
C1973 C 0.6981 0.36213 0.8674 0.0
C1974 C 0.68333 0.33821 0.87003 0.0
C1975 C 0.69855 0.40392 0.85234 0.0
C1976 C 0.70869 0.31529 0.86524 0.0
C1977 C 0.71856 0.31629 0.87807 0.0
C1978 C 0.72932 0.2766 0.87876 0.0
C1979 C 0.72981 0.23422 0.86618 0.0
C1980 C 0.71956 0.23175 0.85318 0.0
C1981 C 0.709 0.27339 0.85267 0.0
H1982 H 0.55053 0.47424 0.36575 0.0
H1983 H 0.53269 0.4296 0.31663 0.0
H1984 H 0.52384 0.34001 0.32895 0.0
H1985 H 0.56205 0.3363 0.37669 0.0
H1986 H 0.55816 0.34398 0.39908 0.0
H1987 H 0.56242 0.40541 0.38651 0.0
H1988 H 0.53921 0.45278 0.39567 0.0
H1989 H 0.53484 0.39129 0.40821 0.0
H1990 H 0.52299 0.41622 0.39203 0.0
H1991 H 0.51763 0.2538 0.34659 0.0
H1992 H 0.51543 0.17646 0.36769 0.0
H1993 H 0.53741 0.27902 0.40501 0.0
C1994 C 0.54469 0.44588 0.35757 0.0
C1995 C 0.54227 0.45894 0.34023 0.0
C1996 C 0.53467 0.42042 0.32995 0.0
C1997 C 0.52956 0.36957 0.33685 0.0
C1998 C 0.53214 0.35809 0.35402 0.0
C1999 C 0.53956 0.39513 0.36421 0.0
C2000 C 0.5414 0.37211 0.38207 0.0
C2001 C 0.55693 0.36396 0.38633 0.0
C2002 C 0.53417 0.41038 0.39527 0.0
C2003 C 0.53398 0.31592 0.38032 0.0
C2004 C 0.52861 0.30869 0.3641 0.0
C2005 C 0.52172 0.25915 0.35936 0.0
C2006 C 0.5205 0.21551 0.37144 0.0
C2007 C 0.52621 0.22173 0.38801 0.0
C2008 C 0.53284 0.27304 0.3925 0.0
H2009 H 0.69389 0.96795 0.38527 0.0
H2010 H 0.72072 0.94247 0.42921 0.0
H2011 H 0.73086 0.85773 0.41533 0.0
H2012 H 0.6867 0.82171 0.37754 0.0
H2013 H 0.68664 0.82937 0.35466 0.0
H2014 H 0.68184 0.88836 0.36799 0.0
H2015 H 0.70079 0.95008 0.35346 0.0
H2016 H 0.70572 0.89112 0.34015 0.0
H2017 H 0.71861 0.92585 0.35321 0.0
H2018 H 0.73787 0.77487 0.39651 0.0
H2019 H 0.74033 0.69871 0.37502 0.0
H2020 H 0.70879 0.77997 0.34373 0.0
C2021 C 0.70191 0.9447 0.39201 0.0
C2022 C 0.70653 0.96189 0.40832 0.0
C2023 C 0.71701 0.93004 0.4167 0.0
C2024 C 0.72286 0.88199 0.4089 0.0
C2025 C 0.71811 0.86646 0.39275 0.0
C2026 C 0.70782 0.89679 0.38445 0.0
C2027 C 0.70427 0.87073 0.36736 0.0
C2028 C 0.68896 0.85139 0.36687 0.0
C2029 C 0.70755 0.91191 0.35268 0.0
C2030 C 0.71412 0.82075 0.36734 0.0
C2031 C 0.72208 0.81905 0.38202 0.0
C2032 C 0.73171 0.7759 0.38494 0.0
C2033 C 0.73307 0.73291 0.37264 0.0
C2034 C 0.72479 0.73339 0.35767 0.0
C2035 C 0.71534 0.77843 0.35498 0.0
H2036 H 0.44285 0.16473 0.08143 0.0
H2037 H 0.48752 0.19368 0.0826 0.0
H2038 H 0.49024 0.11349 0.10261 0.0
H2039 H 0.43879 0.13292 0.12483 0.0
H2040 H 0.42583 0.07863 0.12166 0.0
H2041 H 0.4275 0.1354 0.10645 0.0
H2042 H 0.43097 0.06263 0.08202 0.0
H2043 H 0.42916 0.00553 0.09713 0.0
H2044 H 0.44445 0.00975 0.08384 0.0
H2045 H 0.48776 0.03521 0.12438 0.0
H2046 H 0.4805 0.96001 0.14447 0.0
H2047 H 0.43754 0.98181 0.12842 0.0
C2048 C 0.45325 0.15375 0.08567 0.0
C2049 C 0.46498 0.18547 0.08045 0.0
C2050 C 0.47838 0.16979 0.08636 0.0
C2051 C 0.48003 0.12444 0.09777 0.0
C2052 C 0.46819 0.09498 0.103 0.0
C2053 C 0.45508 0.10855 0.09696 0.0
C2054 C 0.44399 0.07125 0.10484 0.0
C2055 C 0.43341 0.10668 0.11505 0.0
C2056 C 0.43672 0.03514 0.09114 0.0
C2057 C 0.45287 0.03511 0.11648 0.0
C2058 C 0.4668 0.04944 0.11527 0.0
C2059 C 0.4769 0.0232 0.1253 0.0
C2060 C 0.47267 0.98077 0.13672 0.0
C2061 C 0.45846 0.96492 0.13795 0.0
C2062 C 0.44849 0.99263 0.12768 0.0
H2063 H 0.3033 0.76976 0.12443 0.0
H2064 H 0.27495 0.7426 0.16682 0.0
H2065 H 0.26548 0.65787 0.15227 0.0
H2066 H 0.27975 0.72406 0.09061 0.0
H2067 H 0.29349 0.69056 0.07859 0.0
H2068 H 0.29729 0.75105 0.09185 0.0
H2069 H 0.31616 0.69311 0.10788 0.0
H2070 H 0.31247 0.63267 0.09464 0.0
H2071 H 0.3115 0.62638 0.11753 0.0
H2072 H 0.26026 0.57236 0.13375 0.0
H2073 H 0.26026 0.49228 0.11338 0.0
H2074 H 0.29186 0.5777 0.0832 0.0
C2075 C 0.29501 0.74642 0.13062 0.0
C2076 C 0.28984 0.76285 0.14676 0.0
C2077 C 0.27905 0.73082 0.15444 0.0
C2078 C 0.27357 0.68277 0.14625 0.0
C2079 C 0.27896 0.66764 0.13036 0.0
C2080 C 0.28944 0.69861 0.12264 0.0
C2081 C 0.29395 0.67207 0.10597 0.0
C2082 C 0.29093 0.71181 0.09086 0.0
C2083 C 0.30943 0.65504 0.10655 0.0
C2084 C 0.28457 0.62066 0.10563 0.0
C2085 C 0.27591 0.61894 0.11971 0.0
C2086 C 0.26689 0.57361 0.12258 0.0
C2087 C 0.26695 0.52835 0.11092 0.0
C2088 C 0.27601 0.5288 0.09664 0.0
C2089 C 0.28468 0.57627 0.09385 0.0
H2090 H 0.44223 0.48222 0.61979 0.0
H2091 H 0.484 0.48578 0.64097 0.0
H2092 H 0.4903 0.5627 0.62095 0.0
H2093 H 0.45179 0.51497 0.57536 0.0
H2094 H 0.43659 0.55864 0.57226 0.0
H2095 H 0.43595 0.49958 0.58683 0.0
H2096 H 0.42794 0.56678 0.61113 0.0
H2097 H 0.4285 0.62584 0.59665 0.0
H2098 H 0.43833 0.62815 0.61624 0.0
H2099 H 0.4914 0.64415 0.59998 0.0
H2100 H 0.48676 0.72666 0.58136 0.0
H2101 H 0.44414 0.66949 0.5746 0.0
C2102 C 0.45279 0.49842 0.62005 0.0
C2103 C 0.46265 0.47784 0.63187 0.0
C2104 C 0.47628 0.50087 0.63197 0.0
C2105 C 0.47998 0.54433 0.62059 0.0
C2106 C 0.46992 0.56405 0.6092 0.0
C2107 C 0.4566 0.54183 0.60889 0.0
C2108 C 0.44736 0.57332 0.59648 0.0
C2109 C 0.44265 0.53429 0.58186 0.0
C2110 C 0.4348 0.60011 0.60568 0.0
C2111 C 0.45744 0.61787 0.5902 0.0
C2112 C 0.47048 0.61132 0.59742 0.0
C2113 C 0.48128 0.64932 0.59411 0.0
C2114 C 0.47855 0.69597 0.58349 0.0
C2115 C 0.46509 0.70444 0.57654 0.0
C2116 C 0.45455 0.66405 0.57967 0.0
H2117 H 0.26928 0.9945 0.62515 0.0
H2118 H 0.28111 0.07171 0.57698 0.0
H2119 H 0.28538 0.16227 0.59178 0.0
H2120 H 0.25297 0.12417 0.64454 0.0
H2121 H 0.25966 0.10697 0.6654 0.0
H2122 H 0.25529 0.0511 0.65064 0.0
H2123 H 0.28023 0.01043 0.65373 0.0
H2124 H 0.28478 0.06655 0.66823 0.0
H2125 H 0.29499 0.05528 0.64922 0.0
H2126 H 0.29171 0.23884 0.61196 0.0
H2127 H 0.29811 0.30008 0.63614 0.0
H2128 H 0.28204 0.17435 0.67152 0.0
C2129 C 0.2723 0.03095 0.61761 0.0
C2130 C 0.2748 0.02613 0.59989 0.0
C2131 C 0.27907 0.07449 0.59055 0.0
C2132 C 0.28152 0.12612 0.59885 0.0
C2133 C 0.27954 0.12876 0.61644 0.0
C2134 C 0.27483 0.08278 0.62571 0.0
C2135 C 0.27471 0.09556 0.64469 0.0
C2136 C 0.25977 0.09439 0.65173 0.0
C2137 C 0.28424 0.05452 0.65453 0.0
C2138 C 0.28055 0.15518 0.64466 0.0
C2139 C 0.28316 0.17354 0.6282 0.0
C2140 C 0.28948 0.22542 0.62489 0.0
C2141 C 0.29318 0.25967 0.63874 0.0
C2142 C 0.29054 0.242 0.65573 0.0
C2143 C 0.28404 0.18922 0.65868 0.0
loop_
_geom_bond_atom_site_label_1
_geom_bond_atom_site_label_2
_geom_bond_distance
_geom_bond_site_symmetry_2
_ccdc_geom_bond_type
C0 O1 1.160 . S
C0 O7 1.185 . S
O1 C0 1.160 . S
O2 Zn3 1.899 . S
O2 C10 1.284 . S
Zn3 O2 1.899 . S
Zn3 O4 2.032 . S
Zn3 O7 2.086 . S
Zn3 O12 1.977 . S
O4 Zn3 2.032 . S
O4 C8 1.278 . S
C5 O6 1.203 . S
C5 O12 1.267 . S
O6 C5 1.203 . S
O7 C0 1.185 . S
O7 Zn3 2.086 . S
C8 O4 1.278 . S
C8 O9 1.211 . S
O9 C8 1.211 . S
C10 O2 1.284 . S
C10 O11 1.273 . S
O11 C10 1.273 . S
O12 Zn3 1.977 . S
O12 C5 1.267 . S
C13 O14 1.160 . S
C13 O20 1.185 . S
O14 C13 1.160 . S
O15 Zn16 1.899 . S
O15 C23 1.284 . S
Zn16 O15 1.899 . S
Zn16 O17 2.032 . S
Zn16 O20 2.086 . S
Zn16 O25 1.977 . S
O17 Zn16 2.032 . S
O17 C21 1.278 . S
C18 O19 1.203 . S
C18 O25 1.267 . S
O19 C18 1.203 . S
O20 C13 1.185 . S
O20 Zn16 2.086 . S
C21 O17 1.278 . S
C21 O22 1.211 . S
O22 C21 1.211 . S
C23 O15 1.284 . S
C23 O24 1.273 . S
O24 C23 1.273 . S
O25 Zn16 1.977 . S
O25 C18 1.267 . S
C26 O27 1.160 . S
C26 O33 1.185 . S
O27 C26 1.160 . S
O28 Zn29 1.899 . S
O28 C36 1.284 . S
Zn29 O28 1.899 . S
Zn29 O30 2.032 . S
Zn29 O33 2.086 . S
Zn29 O38 1.977 . S
O30 Zn29 2.032 . S
O30 C34 1.278 . S
C31 O32 1.203 . S
C31 O38 1.267 . S
O32 C31 1.203 . S
O33 C26 1.185 . S
O33 Zn29 2.086 . S
C34 O30 1.278 . S
C34 O35 1.211 . S
O35 C34 1.211 . S
C36 O28 1.284 . S
C36 O37 1.273 . S
O37 C36 1.273 . S
O38 Zn29 1.977 . S
O38 C31 1.267 . S
C39 O40 1.160 . S
C39 O46 1.185 . S
O40 C39 1.160 . S
O41 Zn42 1.899 . S
O41 C49 1.284 . S
Zn42 O41 1.899 . S
Zn42 O43 2.032 . S
Zn42 O46 2.086 . S
Zn42 O51 1.977 . S
O43 Zn42 2.032 . S
O43 C47 1.278 . S
C44 O45 1.203 . S
C44 O51 1.267 . S
O45 C44 1.203 . S
O46 C39 1.185 . S
O46 Zn42 2.086 . S
C47 O43 1.278 . S
C47 O48 1.211 . S
O48 C47 1.211 . S
C49 O41 1.284 . S
C49 O50 1.273 . S
O50 C49 1.273 . S
O51 Zn42 1.977 . S
O51 C44 1.267 . S
C52 O53 1.160 . S
C52 O59 1.185 . S
O53 C52 1.160 . S
O54 Zn55 1.899 . S
O54 C62 1.284 . S
Zn55 O54 1.899 . S
Zn55 O56 2.032 . S
Zn55 O59 2.086 . S
Zn55 O64 1.977 . S
O56 Zn55 2.032 . S
O56 C60 1.278 . S
C57 O58 1.203 . S
C57 O64 1.267 . S
O58 C57 1.203 . S
O59 C52 1.185 . S
O59 Zn55 2.086 . S
C60 O56 1.278 . S
C60 O61 1.211 . S
O61 C60 1.211 . S
C62 O54 1.284 . S
C62 O63 1.273 . S
O63 C62 1.273 . S
O64 Zn55 1.977 . S
O64 C57 1.267 . S
C65 O66 1.160 . S
C65 O72 1.185 . S
O66 C65 1.160 . S
O67 Zn68 1.899 . S
O67 C75 1.284 . S
Zn68 O67 1.899 . S
Zn68 O69 2.032 . S
Zn68 O72 2.086 . S
Zn68 O77 1.977 . S
O69 Zn68 2.032 . S
O69 C73 1.278 . S
C70 O71 1.203 . S
C70 O77 1.267 . S
O71 C70 1.203 . S
O72 C65 1.185 . S
O72 Zn68 2.086 . S
C73 O69 1.278 . S
C73 O74 1.211 . S
O74 C73 1.211 . S
C75 O67 1.284 . S
C75 O76 1.273 . S
O76 C75 1.273 . S
O77 Zn68 1.977 . S
O77 C70 1.267 . S
C78 O79 1.160 . S
C78 O85 1.185 . S
O79 C78 1.160 . S
O80 Zn81 1.899 . S
O80 C88 1.284 . S
Zn81 O80 1.899 . S
Zn81 O82 2.032 . S
Zn81 O85 2.086 . S
Zn81 O90 1.977 . S
O82 Zn81 2.032 . S
O82 C86 1.278 . S
C83 O84 1.203 . S
C83 O90 1.267 . S
O84 C83 1.203 . S
O85 C78 1.185 . S
O85 Zn81 2.086 . S
C86 O82 1.278 . S
C86 O87 1.211 . S
O87 C86 1.211 . S
C88 O80 1.284 . S
C88 O89 1.273 . S
O89 C88 1.273 . S
O90 Zn81 1.977 . S
O90 C83 1.267 . S
C91 O92 1.160 . S
C91 O98 1.185 . S
O92 C91 1.160 . S
O93 Zn94 1.899 . S
O93 C101 1.284 . S
Zn94 O93 1.899 . S
Zn94 O95 2.032 . S
Zn94 O98 2.086 . S
Zn94 O103 1.977 . S
O95 Zn94 2.032 . S
O95 C99 1.278 . S
C96 O97 1.203 . S
C96 O103 1.267 . S
O97 C96 1.203 . S
O98 C91 1.185 . S
O98 Zn94 2.086 . S
C99 O95 1.278 . S
C99 O100 1.211 . S
O100 C99 1.211 . S
C101 O93 1.284 . S
C101 O102 1.273 . S
O102 C101 1.273 . S
O103 Zn94 1.977 . S
O103 C96 1.267 . S
C104 O105 1.160 . S
C104 O111 1.185 . S
O105 C104 1.160 . S
O106 Zn107 1.899 . S
O106 C114 1.284 . S
Zn107 O106 1.899 . S
Zn107 O108 2.032 . S
Zn107 O111 2.086 . S
Zn107 O116 1.977 . S
O108 Zn107 2.032 . S
O108 C112 1.278 . S
C109 O110 1.203 . S
C109 O116 1.267 . S
O110 C109 1.203 . S
O111 C104 1.185 . S
O111 Zn107 2.086 . S
C112 O108 1.278 . S
C112 O113 1.211 . S
O113 C112 1.211 . S
C114 O106 1.284 . S
C114 O115 1.273 . S
O115 C114 1.273 . S
O116 Zn107 1.977 . S
O116 C109 1.267 . S
C117 O118 1.160 . S
C117 O124 1.185 . S
O118 C117 1.160 . S
O119 Zn120 1.899 . S
O119 C127 1.284 . S
Zn120 O119 1.899 . S
Zn120 O121 2.032 . S
Zn120 O124 2.086 . S
Zn120 O129 1.977 . S
O121 Zn120 2.032 . S
O121 C125 1.278 . S
C122 O123 1.203 . S
C122 O129 1.267 . S
O123 C122 1.203 . S
O124 C117 1.185 . S
O124 Zn120 2.086 . S
C125 O121 1.278 . S
C125 O126 1.211 . S
O126 C125 1.211 . S
C127 O119 1.284 . S
C127 O128 1.273 . S
O128 C127 1.273 . S
O129 Zn120 1.977 . S
O129 C122 1.267 . S
C130 O131 1.160 . S
C130 O137 1.185 . S
O131 C130 1.160 . S
O132 Zn133 1.899 . S
O132 C140 1.284 . S
Zn133 O132 1.899 . S
Zn133 O134 2.032 . S
Zn133 O137 2.086 . S
Zn133 O142 1.977 . S
O134 Zn133 2.032 . S
O134 C138 1.278 . S
C135 O136 1.203 . S
C135 O142 1.267 . S
O136 C135 1.203 . S
O137 C130 1.185 . S
O137 Zn133 2.086 . S
C138 O134 1.278 . S
C138 O139 1.211 . S
O139 C138 1.211 . S
C140 O132 1.284 . S
C140 O141 1.273 . S
O141 C140 1.273 . S
O142 Zn133 1.977 . S
O142 C135 1.267 . S
C143 O144 1.160 . S
C143 O150 1.185 . S
O144 C143 1.160 . S
O145 Zn146 1.899 . S
O145 C153 1.284 . S
Zn146 O145 1.899 . S
Zn146 O147 2.032 . S
Zn146 O150 2.086 . S
Zn146 O155 1.977 . S
O147 Zn146 2.032 . S
O147 C151 1.278 . S
C148 O149 1.203 . S
C148 O155 1.267 . S
O149 C148 1.203 . S
O150 C143 1.185 . S
O150 Zn146 2.086 . S
C151 O147 1.278 . S
C151 O152 1.211 . S
O152 C151 1.211 . S
C153 O145 1.284 . S
C153 O154 1.273 . S
O154 C153 1.273 . S
O155 Zn146 1.977 . S
O155 C148 1.267 . S
C156 O157 1.160 . S
C156 O163 1.185 . S
O157 C156 1.160 . S
O158 Zn159 1.899 . S
O158 C166 1.284 . S
Zn159 O158 1.899 . S
Zn159 O160 2.032 . S
Zn159 O163 2.086 . S
Zn159 O168 1.977 . S
O160 Zn159 2.032 . S
O160 C164 1.278 . S
C161 O162 1.203 . S
C161 O168 1.267 . S
O162 C161 1.203 . S
O163 C156 1.185 . S
O163 Zn159 2.086 . S
C164 O160 1.278 . S
C164 O165 1.211 . S
O165 C164 1.211 . S
C166 O158 1.284 . S
C166 O167 1.273 . S
O167 C166 1.273 . S
O168 Zn159 1.977 . S
O168 C161 1.267 . S
C169 O170 1.160 . S
C169 O176 1.185 . S
O170 C169 1.160 . S
O171 Zn172 1.899 . S
O171 C179 1.284 . S
Zn172 O171 1.899 . S
Zn172 O173 2.032 . S
Zn172 O176 2.086 . S
Zn172 O181 1.977 . S
O173 Zn172 2.032 . S
O173 C177 1.278 . S
C174 O175 1.203 . S
C174 O181 1.267 . S
O175 C174 1.203 . S
O176 C169 1.185 . S
O176 Zn172 2.086 . S
C177 O173 1.278 . S
C177 O178 1.211 . S
O178 C177 1.211 . S
C179 O171 1.284 . S
C179 O180 1.273 . S
O180 C179 1.273 . S
O181 Zn172 1.977 . S
O181 C174 1.267 . S
C182 O183 1.160 . S
C182 O189 1.185 . S
O183 C182 1.160 . S
O184 Zn185 1.899 . S
O184 C192 1.284 . S
Zn185 O184 1.899 . S
Zn185 O186 2.032 . S
Zn185 O189 2.086 . S
Zn185 O194 1.977 . S
O186 Zn185 2.032 . S
O186 C190 1.278 . S
C187 O188 1.203 . S
C187 O194 1.267 . S
O188 C187 1.203 . S
O189 C182 1.185 . S
O189 Zn185 2.086 . S
C190 O186 1.278 . S
C190 O191 1.211 . S
O191 C190 1.211 . S
C192 O184 1.284 . S
C192 O193 1.273 . S
O193 C192 1.273 . S
O194 Zn185 1.977 . S
O194 C187 1.267 . S
C195 O196 1.160 . S
C195 O202 1.185 . S
O196 C195 1.160 . S
O197 Zn198 1.899 . S
O197 C205 1.284 . S
Zn198 O197 1.899 . S
Zn198 O199 2.032 . S
Zn198 O202 2.086 . S
Zn198 O207 1.977 . S
O199 Zn198 2.032 . S
O199 C203 1.278 . S
C200 O201 1.203 . S
C200 O207 1.267 . S
O201 C200 1.203 . S
O202 C195 1.185 . S
O202 Zn198 2.086 . S
C203 O199 1.278 . S
C203 O204 1.211 . S
O204 C203 1.211 . S
C205 O197 1.284 . S
C205 O206 1.273 . S
O206 C205 1.273 . S
O207 Zn198 1.977 . S
O207 C200 1.267 . S
C208 O209 1.160 . S
C208 O215 1.185 . S
O209 C208 1.160 . S
O210 Zn211 1.899 . S
O210 C218 1.284 . S
Zn211 O210 1.899 . S
Zn211 O212 2.032 . S
Zn211 O215 2.086 . S
Zn211 O220 1.977 . S
O212 Zn211 2.032 . S
O212 C216 1.278 . S
C213 O214 1.203 . S
C213 O220 1.267 . S
O214 C213 1.203 . S
O215 C208 1.185 . S
O215 Zn211 2.086 . S
C216 O212 1.278 . S
C216 O217 1.211 . S
O217 C216 1.211 . S
C218 O210 1.284 . S
C218 O219 1.273 . S
O219 C218 1.273 . S
O220 Zn211 1.977 . S
O220 C213 1.267 . S
C221 O222 1.160 . S
C221 O228 1.185 . S
O222 C221 1.160 . S
O223 Zn224 1.899 . S
O223 C231 1.284 . S
Zn224 O223 1.899 . S
Zn224 O225 2.032 . S
Zn224 O228 2.086 . S
Zn224 O233 1.977 . S
O225 Zn224 2.032 . S
O225 C229 1.278 . S
C226 O227 1.203 . S
C226 O233 1.267 . S
O227 C226 1.203 . S
O228 C221 1.185 . S
O228 Zn224 2.086 . S
C229 O225 1.278 . S
C229 O230 1.211 . S
O230 C229 1.211 . S
C231 O223 1.284 . S
C231 O232 1.273 . S
O232 C231 1.273 . S
O233 Zn224 1.977 . S
O233 C226 1.267 . S
C234 O235 1.160 . S
C234 O241 1.185 . S
O235 C234 1.160 . S
O236 Zn237 1.899 . S
O236 C244 1.284 . S
Zn237 O236 1.899 . S
Zn237 O238 2.032 . S
Zn237 O241 2.086 . S
Zn237 O246 1.977 . S
O238 Zn237 2.032 . S
O238 C242 1.278 . S
C239 O240 1.203 . S
C239 O246 1.267 . S
O240 C239 1.203 . S
O241 C234 1.185 . S
O241 Zn237 2.086 . S
C242 O238 1.278 . S
C242 O243 1.211 . S
O243 C242 1.211 . S
C244 O236 1.284 . S
C244 O245 1.273 . S
O245 C244 1.273 . S
O246 Zn237 1.977 . S
O246 C239 1.267 . S
C247 O248 1.160 . S
C247 O254 1.185 . S
O248 C247 1.160 . S
O249 Zn250 1.899 . S
O249 C257 1.284 . S
Zn250 O249 1.899 . S
Zn250 O251 2.032 . S
Zn250 O254 2.086 . S
Zn250 O259 1.977 . S
O251 Zn250 2.032 . S
O251 C255 1.278 . S
C252 O253 1.203 . S
C252 O259 1.267 . S
O253 C252 1.203 . S
O254 C247 1.185 . S
O254 Zn250 2.086 . S
C255 O251 1.278 . S
C255 O256 1.211 . S
O256 C255 1.211 . S
C257 O249 1.284 . S
C257 O258 1.273 . S
O258 C257 1.273 . S
O259 Zn250 1.977 . S
O259 C252 1.267 . S
C260 O261 1.160 . S
C260 O267 1.185 . S
O261 C260 1.160 . S
O262 Zn263 1.899 . S
O262 C270 1.284 . S
Zn263 O262 1.899 . S
Zn263 O264 2.032 . S
Zn263 O267 2.086 . S
Zn263 O272 1.977 . S
O264 Zn263 2.032 . S
O264 C268 1.278 . S
C265 O266 1.203 . S
C265 O272 1.267 . S
O266 C265 1.203 . S
O267 C260 1.185 . S
O267 Zn263 2.086 . S
C268 O264 1.278 . S
C268 O269 1.211 . S
O269 C268 1.211 . S
C270 O262 1.284 . S
C270 O271 1.273 . S
O271 C270 1.273 . S
O272 Zn263 1.977 . S
O272 C265 1.267 . S
C273 O274 1.160 . S
C273 O280 1.185 . S
O274 C273 1.160 . S
O275 Zn276 1.899 . S
O275 C283 1.284 . S
Zn276 O275 1.899 . S
Zn276 O277 2.032 . S
Zn276 O280 2.086 . S
Zn276 O285 1.977 . S
O277 Zn276 2.032 . S
O277 C281 1.278 . S
C278 O279 1.203 . S
C278 O285 1.267 . S
O279 C278 1.203 . S
O280 C273 1.185 . S
O280 Zn276 2.086 . S
C281 O277 1.278 . S
C281 O282 1.211 . S
O282 C281 1.211 . S
C283 O275 1.284 . S
C283 O284 1.273 . S
O284 C283 1.273 . S
O285 Zn276 1.977 . S
O285 C278 1.267 . S
C286 O287 1.160 . S
C286 O293 1.185 . S
O287 C286 1.160 . S
O288 Zn289 1.899 . S
O288 C296 1.284 . S
Zn289 O288 1.899 . S
Zn289 O290 2.032 . S
Zn289 O293 2.086 . S
Zn289 O298 1.977 . S
O290 Zn289 2.032 . S
O290 C294 1.278 . S
C291 O292 1.203 . S
C291 O298 1.267 . S
O292 C291 1.203 . S
O293 C286 1.185 . S
O293 Zn289 2.086 . S
C294 O290 1.278 . S
C294 O295 1.211 . S
O295 C294 1.211 . S
C296 O288 1.284 . S
C296 O297 1.273 . S
O297 C296 1.273 . S
O298 Zn289 1.977 . S
O298 C291 1.267 . S
C299 O300 1.160 . S
C299 O306 1.185 . S
O300 C299 1.160 . S
O301 Zn302 1.899 . S
O301 C309 1.284 . S
Zn302 O301 1.899 . S
Zn302 O303 2.032 . S
Zn302 O306 2.086 . S
Zn302 O311 1.977 . S
O303 Zn302 2.032 . S
O303 C307 1.278 . S
C304 O305 1.203 . S
C304 O311 1.267 . S
O305 C304 1.203 . S
O306 C299 1.185 . S
O306 Zn302 2.086 . S
C307 O303 1.278 . S
C307 O308 1.211 . S
O308 C307 1.211 . S
C309 O301 1.284 . S
C309 O310 1.273 . S
O310 C309 1.273 . S
O311 Zn302 1.977 . S
O311 C304 1.267 . S
C312 O313 1.160 . S
C312 O319 1.185 . S
O313 C312 1.160 . S
O314 Zn315 1.899 . S
O314 C322 1.284 . S
Zn315 O314 1.899 . S
Zn315 O316 2.032 . S
Zn315 O319 2.086 . S
Zn315 O324 1.977 . S
O316 Zn315 2.032 . S
O316 C320 1.278 . S
C317 O318 1.203 . S
C317 O324 1.267 . S
O318 C317 1.203 . S
O319 C312 1.185 . S
O319 Zn315 2.086 . S
C320 O316 1.278 . S
C320 O321 1.211 . S
O321 C320 1.211 . S
C322 O314 1.284 . S
C322 O323 1.273 . S
O323 C322 1.273 . S
O324 Zn315 1.977 . S
O324 C317 1.267 . S
C325 O326 1.160 . S
C325 O332 1.185 . S
O326 C325 1.160 . S
O327 Zn328 1.899 . S
O327 C335 1.284 . S
Zn328 O327 1.899 . S
Zn328 O329 2.032 . S
Zn328 O332 2.086 . S
Zn328 O337 1.977 . S
O329 Zn328 2.032 . S
O329 C333 1.278 . S
C330 O331 1.203 . S
C330 O337 1.267 . S
O331 C330 1.203 . S
O332 C325 1.185 . S
O332 Zn328 2.086 . S
C333 O329 1.278 . S
C333 O334 1.211 . S
O334 C333 1.211 . S
C335 O327 1.284 . S
C335 O336 1.273 . S
O336 C335 1.273 . S
O337 Zn328 1.977 . S
O337 C330 1.267 . S
C338 O339 1.160 . S
C338 O345 1.185 . S
O339 C338 1.160 . S
O340 Zn341 1.899 . S
O340 C348 1.284 . S
Zn341 O340 1.899 . S
Zn341 O342 2.032 . S
Zn341 O345 2.086 . S
Zn341 O350 1.977 . S
O342 Zn341 2.032 . S
O342 C346 1.278 . S
C343 O344 1.203 . S
C343 O350 1.267 . S
O344 C343 1.203 . S
O345 C338 1.185 . S
O345 Zn341 2.086 . S
C346 O342 1.278 . S
C346 O347 1.211 . S
O347 C346 1.211 . S
C348 O340 1.284 . S
C348 O349 1.273 . S
O349 C348 1.273 . S
O350 Zn341 1.977 . S
O350 C343 1.267 . S
C351 O352 1.160 . S
C351 O358 1.185 . S
O352 C351 1.160 . S
O353 Zn354 1.899 . S
O353 C361 1.284 . S
Zn354 O353 1.899 . S
Zn354 O355 2.032 . S
Zn354 O358 2.086 . S
Zn354 O363 1.977 . S
O355 Zn354 2.032 . S
O355 C359 1.278 . S
C356 O357 1.203 . S
C356 O363 1.267 . S
O357 C356 1.203 . S
O358 C351 1.185 . S
O358 Zn354 2.086 . S
C359 O355 1.278 . S
C359 O360 1.211 . S
O360 C359 1.211 . S
C361 O353 1.284 . S
C361 O362 1.273 . S
O362 C361 1.273 . S
O363 Zn354 1.977 . S
O363 C356 1.267 . S
C364 O365 1.160 . S
C364 O371 1.185 . S
O365 C364 1.160 . S
O366 Zn367 1.899 . S
O366 C374 1.284 . S
Zn367 O366 1.899 . S
Zn367 O368 2.032 . S
Zn367 O371 2.086 . S
Zn367 O376 1.977 . S
O368 Zn367 2.032 . S
O368 C372 1.278 . S
C369 O370 1.203 . S
C369 O376 1.267 . S
O370 C369 1.203 . S
O371 C364 1.185 . S
O371 Zn367 2.086 . S
C372 O368 1.278 . S
C372 O373 1.211 . S
O373 C372 1.211 . S
C374 O366 1.284 . S
C374 O375 1.273 . S
O375 C374 1.273 . S
O376 Zn367 1.977 . S
O376 C369 1.267 . S
C377 O378 1.160 . S
C377 O384 1.185 . S
O378 C377 1.160 . S
O379 Zn380 1.899 . S
O379 C387 1.284 . S
Zn380 O379 1.899 . S
Zn380 O381 2.032 . S
Zn380 O384 2.086 . S
Zn380 O389 1.977 . S
O381 Zn380 2.032 . S
O381 C385 1.278 . S
C382 O383 1.203 . S
C382 O389 1.267 . S
O383 C382 1.203 . S
O384 C377 1.185 . S
O384 Zn380 2.086 . S
C385 O381 1.278 . S
C385 O386 1.211 . S
O386 C385 1.211 . S
C387 O379 1.284 . S
C387 O388 1.273 . S
O388 C387 1.273 . S
O389 Zn380 1.977 . S
O389 C382 1.267 . S
C390 O391 1.160 . S
C390 O397 1.185 . S
O391 C390 1.160 . S
O392 Zn393 1.899 . S
O392 C400 1.284 . S
Zn393 O392 1.899 . S
Zn393 O394 2.032 . S
Zn393 O397 2.086 . S
Zn393 O402 1.977 . S
O394 Zn393 2.032 . S
O394 C398 1.278 . S
C395 O396 1.203 . S
C395 O402 1.267 . S
O396 C395 1.203 . S
O397 C390 1.185 . S
O397 Zn393 2.086 . S
C398 O394 1.278 . S
C398 O399 1.211 . S
O399 C398 1.211 . S
C400 O392 1.284 . S
C400 O401 1.273 . S
O401 C400 1.273 . S
O402 Zn393 1.977 . S
O402 C395 1.267 . S
C403 O404 1.160 . S
C403 O410 1.185 . S
O404 C403 1.160 . S
O405 Zn406 1.899 . S
O405 C413 1.284 . S
Zn406 O405 1.899 . S
Zn406 O407 2.032 . S
Zn406 O410 2.086 . S
Zn406 O415 1.977 . S
O407 Zn406 2.032 . S
O407 C411 1.278 . S
C408 O409 1.203 . S
C408 O415 1.267 . S
O409 C408 1.203 . S
O410 C403 1.185 . S
O410 Zn406 2.086 . S
C411 O407 1.278 . S
C411 O412 1.211 . S
O412 C411 1.211 . S
C413 O405 1.284 . S
C413 O414 1.273 . S
O414 C413 1.273 . S
O415 Zn406 1.977 . S
O415 C408 1.267 . S
H416 C428 0.930 . S
H417 C430 0.930 . S
H418 C431 0.930 . S
H419 C435 0.959 . S
H420 C435 0.959 . S
H421 C435 0.961 . S
H422 C436 0.960 . S
H423 C436 0.961 . S
H424 C436 0.959 . S
H425 C439 0.929 . S
H426 C440 0.931 . S
H427 C442 0.930 . S
C428 H416 0.930 . S
C428 C429 1.399 . S
C428 C433 1.399 . S
C429 C428 1.399 . S
C429 C430 1.376 . S
C430 H417 0.930 . S
C430 C429 1.376 . S
C430 C431 1.388 . S
C431 H418 0.930 . S
C431 C430 1.388 . S
C431 C432 1.390 . S
C432 C431 1.390 . S
C432 C433 1.394 . S
C432 C438 1.465 . S
C433 C428 1.399 . S
C433 C432 1.394 . S
C433 C434 1.516 . S
C434 C433 1.516 . S
C434 C435 1.502 . S
C434 C436 1.561 . S
C434 C437 1.526 . S
C435 H419 0.959 . S
C435 H420 0.959 . S
C435 H421 0.961 . S
C435 C434 1.502 . S
C436 H422 0.960 . S
C436 H423 0.961 . S
C436 H424 0.959 . S
C436 C434 1.561 . S
C437 C434 1.526 . S
C437 C438 1.396 . S
C437 C442 1.390 . S
C438 C432 1.465 . S
C438 C437 1.396 . S
C438 C439 1.399 . S
C439 H425 0.929 . S
C439 C438 1.399 . S
C439 C440 1.385 . S
C440 H426 0.931 . S
C440 C439 1.385 . S
C440 C441 1.389 . S
C441 C440 1.389 . S
C441 C442 1.387 . S
C442 H427 0.930 . S
C442 C437 1.390 . S
C442 C441 1.387 . S
H443 C455 0.930 . S
H444 C457 0.930 . S
H445 C458 0.930 . S
H446 C462 0.959 . S
H447 C462 0.959 . S
H448 C462 0.961 . S
H449 C463 0.960 1_565 S
H450 C463 0.961 1_565 S
H451 C463 0.959 . S
H452 C466 0.929 . S
H453 C467 0.931 . S
H454 C469 0.930 . S
C455 H443 0.930 . S
C455 C456 1.399 . S
C455 C460 1.399 . S
C456 C455 1.399 . S
C456 C457 1.376 . S
C457 H444 0.930 . S
C457 C456 1.376 . S
C457 C458 1.388 . S
C458 H445 0.930 . S
C458 C457 1.388 . S
C458 C459 1.390 . S
C459 C458 1.390 . S
C459 C460 1.394 . S
C459 C465 1.465 . S
C460 C455 1.399 . S
C460 C459 1.394 . S
C460 C461 1.516 . S
C461 C460 1.516 . S
C461 C462 1.502 . S
C461 C463 1.561 . S
C461 C464 1.526 . S
C462 H446 0.959 . S
C462 H447 0.959 . S
C462 H448 0.961 . S
C462 C461 1.502 . S
C463 H449 0.960 1_545 S
C463 H450 0.961 1_545 S
C463 H451 0.959 . S
C463 C461 1.561 . S
C464 C461 1.526 . S
C464 C465 1.396 . S
C464 C469 1.390 . S
C465 C459 1.465 . S
C465 C464 1.396 . S
C465 C466 1.399 . S
C466 H452 0.929 . S
C466 C465 1.399 . S
C466 C467 1.385 . S
C467 H453 0.931 . S
C467 C466 1.385 . S
C467 C468 1.389 . S
C468 C467 1.389 . S
C468 C469 1.387 . S
C469 H454 0.930 . S
C469 C464 1.390 . S
C469 C468 1.387 . S
H470 C482 0.930 . S
H471 C484 0.930 . S
H472 C485 0.930 . S
H473 C489 0.959 . S
H474 C489 0.959 . S
H475 C489 0.961 . S
H476 C490 0.960 . S
H477 C490 0.961 . S
H478 C490 0.959 . S
H479 C493 0.929 . S
H480 C494 0.931 . S
H481 C496 0.930 . S
C482 H470 0.930 . S
C482 C483 1.399 . S
C482 C487 1.399 . S
C483 C482 1.399 . S
C483 C484 1.376 . S
C484 H471 0.930 . S
C484 C483 1.376 . S
C484 C485 1.388 . S
C485 H472 0.930 . S
C485 C484 1.388 . S
C485 C486 1.390 . S
C486 C485 1.390 . S
C486 C487 1.394 . S
C486 C492 1.465 . S
C487 C482 1.399 . S
C487 C486 1.394 . S
C487 C488 1.516 . S
C488 C487 1.516 . S
C488 C489 1.502 . S
C488 C490 1.561 . S
C488 C491 1.526 . S
C489 H473 0.959 . S
C489 H474 0.959 . S
C489 H475 0.961 . S
C489 C488 1.502 . S
C490 H476 0.960 . S
C490 H477 0.961 . S
C490 H478 0.959 . S
C490 C488 1.561 . S
C491 C488 1.526 . S
C491 C492 1.396 . S
C491 C496 1.390 . S
C492 C486 1.465 . S
C492 C491 1.396 . S
C492 C493 1.399 . S
C493 H479 0.929 . S
C493 C492 1.399 . S
C493 C494 1.385 . S
C494 H480 0.931 . S
C494 C493 1.385 . S
C494 C495 1.389 . S
C495 C494 1.389 . S
C495 C496 1.387 . S
C496 H481 0.930 . S
C496 C491 1.390 . S
C496 C495 1.387 . S
H497 C509 0.930 . S
H498 C511 0.930 . S
H499 C512 0.930 . S
H500 C516 0.959 . S
H501 C516 0.959 . S
H502 C516 0.961 . S
H503 C517 0.960 . S
H504 C517 0.961 . S
H505 C517 0.959 . S
H506 C520 0.929 . S
H507 C521 0.931 . S
H508 C523 0.930 . S
C509 H497 0.930 . S
C509 C510 1.399 . S
C509 C514 1.399 . S
C510 C509 1.399 . S
C510 C511 1.376 . S
C511 H498 0.930 . S
C511 C510 1.376 . S
C511 C512 1.388 . S
C512 H499 0.930 . S
C512 C511 1.388 . S
C512 C513 1.390 . S
C513 C512 1.390 . S
C513 C514 1.394 . S
C513 C519 1.465 . S
C514 C509 1.399 . S
C514 C513 1.394 . S
C514 C515 1.516 . S
C515 C514 1.516 . S
C515 C516 1.502 . S
C515 C517 1.561 . S
C515 C518 1.526 . S
C516 H500 0.959 . S
C516 H501 0.959 . S
C516 H502 0.961 . S
C516 C515 1.502 . S
C517 H503 0.960 . S
C517 H504 0.961 . S
C517 H505 0.959 . S
C517 C515 1.561 . S
C518 C515 1.526 . S
C518 C519 1.396 . S
C518 C523 1.390 . S
C519 C513 1.465 . S
C519 C518 1.396 . S
C519 C520 1.399 . S
C520 H506 0.929 . S
C520 C519 1.399 . S
C520 C521 1.385 . S
C521 H507 0.931 . S
C521 C520 1.385 . S
C521 C522 1.389 . S
C522 C521 1.389 . S
C522 C523 1.387 . S
C523 H508 0.930 . S
C523 C518 1.390 . S
C523 C522 1.387 . S
H524 C536 0.930 . S
H525 C538 0.930 . S
H526 C539 0.930 . S
H527 C543 0.959 . S
H528 C543 0.959 . S
H529 C543 0.961 . S
H530 C544 0.960 . S
H531 C544 0.961 . S
H532 C544 0.959 . S
H533 C547 0.929 . S
H534 C548 0.931 . S
H535 C550 0.930 . S
C536 H524 0.930 . S
C536 C537 1.399 . S
C536 C541 1.399 . S
C537 C536 1.399 . S
C537 C538 1.376 . S
C538 H525 0.930 . S
C538 C537 1.376 . S
C538 C539 1.388 . S
C539 H526 0.930 . S
C539 C538 1.388 . S
C539 C540 1.390 . S
C540 C539 1.390 . S
C540 C541 1.394 . S
C540 C546 1.465 . S
C541 C536 1.399 . S
C541 C540 1.394 . S
C541 C542 1.516 . S
C542 C541 1.516 . S
C542 C543 1.502 . S
C542 C544 1.561 . S
C542 C545 1.526 . S
C543 H527 0.959 . S
C543 H528 0.959 . S
C543 H529 0.961 . S
C543 C542 1.502 . S
C544 H530 0.960 . S
C544 H531 0.961 . S
C544 H532 0.959 . S
C544 C542 1.561 . S
C545 C542 1.526 . S
C545 C546 1.396 . S
C545 C550 1.390 . S
C546 C540 1.465 . S
C546 C545 1.396 . S
C546 C547 1.399 . S
C547 H533 0.929 . S
C547 C546 1.399 . S
C547 C548 1.385 . S
C548 H534 0.931 . S
C548 C547 1.385 . S
C548 C549 1.389 . S
C549 C548 1.389 . S
C549 C550 1.387 . S
C550 H535 0.930 . S
C550 C545 1.390 . S
C550 C549 1.387 . S
H551 C563 0.930 . S
H552 C565 0.930 . S
H553 C566 0.930 . S
H554 C570 0.959 . S
H555 C570 0.959 . S
H556 C570 0.961 . S
H557 C571 0.960 . S
H558 C571 0.961 . S
H559 C571 0.959 . S
H560 C574 0.929 . S
H561 C575 0.931 . S
H562 C577 0.930 . S
C563 H551 0.930 . S
C563 C564 1.399 . S
C563 C568 1.399 . S
C564 C563 1.399 . S
C564 C565 1.376 . S
C565 H552 0.930 . S
C565 C564 1.376 . S
C565 C566 1.388 . S
C566 H553 0.930 . S
C566 C565 1.388 . S
C566 C567 1.390 . S
C567 C566 1.390 . S
C567 C568 1.394 . S
C567 C573 1.465 . S
C568 C563 1.399 . S
C568 C567 1.394 . S
C568 C569 1.516 . S
C569 C568 1.516 . S
C569 C570 1.502 . S
C569 C571 1.561 . S
C569 C572 1.526 . S
C570 H554 0.959 . S
C570 H555 0.959 . S
C570 H556 0.961 . S
C570 C569 1.502 . S
C571 H557 0.960 . S
C571 H558 0.961 . S
C571 H559 0.959 . S
C571 C569 1.561 . S
C572 C569 1.526 . S
C572 C573 1.396 . S
C572 C577 1.390 . S
C573 C567 1.465 . S
C573 C572 1.396 . S
C573 C574 1.399 . S
C574 H560 0.929 . S
C574 C573 1.399 . S
C574 C575 1.385 . S
C575 H561 0.931 . S
C575 C574 1.385 . S
C575 C576 1.389 . S
C576 C575 1.389 . S
C576 C577 1.387 . S
C577 H562 0.930 . S
C577 C572 1.390 . S
C577 C576 1.387 . S
H578 C590 0.930 . S
H579 C592 0.930 . S
H580 C593 0.930 . S
H581 C597 0.959 . S
H582 C597 0.959 . S
H583 C597 0.961 . S
H584 C598 0.960 . S
H585 C598 0.961 . S
H586 C598 0.959 . S
H587 C601 0.929 . S
H588 C602 0.931 . S
H589 C604 0.930 . S
C590 H578 0.930 . S
C590 C591 1.399 . S
C590 C595 1.399 . S
C591 C590 1.399 . S
C591 C592 1.376 . S
C592 H579 0.930 . S
C592 C591 1.376 . S
C592 C593 1.388 . S
C593 H580 0.930 . S
C593 C592 1.388 . S
C593 C594 1.390 . S
C594 C593 1.390 . S
C594 C595 1.394 . S
C594 C600 1.465 . S
C595 C590 1.399 . S
C595 C594 1.394 . S
C595 C596 1.516 . S
C596 C595 1.516 . S
C596 C597 1.502 . S
C596 C598 1.561 . S
C596 C599 1.526 . S
C597 H581 0.959 . S
C597 H582 0.959 . S
C597 H583 0.961 . S
C597 C596 1.502 . S
C598 H584 0.960 . S
C598 H585 0.961 . S
C598 H586 0.959 . S
C598 C596 1.561 . S
C599 C596 1.526 . S
C599 C600 1.396 . S
C599 C604 1.390 . S
C600 C594 1.465 . S
C600 C599 1.396 . S
C600 C601 1.399 . S
C601 H587 0.929 . S
C601 C600 1.399 . S
C601 C602 1.385 . S
C602 H588 0.931 . S
C602 C601 1.385 . S
C602 C603 1.389 . S
C603 C602 1.389 . S
C603 C604 1.387 . S
C604 H589 0.930 . S
C604 C599 1.390 . S
C604 C603 1.387 . S
H605 C617 0.930 . S
H606 C619 0.930 . S
H607 C620 0.930 . S
H608 C624 0.959 . S
H609 C624 0.959 . S
H610 C624 0.961 . S
H611 C625 0.960 . S
H612 C625 0.961 . S
H613 C625 0.959 . S
H614 C628 0.929 . S
H615 C629 0.931 . S
H616 C631 0.930 . S
C617 H605 0.930 . S
C617 C618 1.399 . S
C617 C622 1.399 . S
C618 C617 1.399 . S
C618 C619 1.376 . S
C619 H606 0.930 . S
C619 C618 1.376 . S
C619 C620 1.388 . S
C620 H607 0.930 . S
C620 C619 1.388 . S
C620 C621 1.390 . S
C621 C620 1.390 . S
C621 C622 1.394 . S
C621 C627 1.465 . S
C622 C617 1.399 . S
C622 C621 1.394 . S
C622 C623 1.516 . S
C623 C622 1.516 . S
C623 C624 1.502 . S
C623 C625 1.561 . S
C623 C626 1.526 . S
C624 H608 0.959 . S
C624 H609 0.959 . S
C624 H610 0.961 . S
C624 C623 1.502 . S
C625 H611 0.960 . S
C625 H612 0.961 . S
C625 H613 0.959 . S
C625 C623 1.561 . S
C626 C623 1.526 . S
C626 C627 1.396 . S
C626 C631 1.390 . S
C627 C621 1.465 . S
C627 C626 1.396 . S
C627 C628 1.399 . S
C628 H614 0.929 . S
C628 C627 1.399 . S
C628 C629 1.385 . S
C629 H615 0.931 . S
C629 C628 1.385 . S
C629 C630 1.389 . S
C630 C629 1.389 . S
C630 C631 1.387 . S
C631 H616 0.930 . S
C631 C626 1.390 . S
C631 C630 1.387 . S
H632 C644 0.930 . S
H633 C646 0.930 . S
H634 C647 0.930 . S
H635 C651 0.959 . S
H636 C651 0.959 . S
H637 C651 0.961 . S
H638 C652 0.960 . S
H639 C652 0.961 . S
H640 C652 0.959 . S
H641 C655 0.929 . S
H642 C656 0.931 . S
H643 C658 0.930 . S
C644 H632 0.930 . S
C644 C645 1.399 . S
C644 C649 1.399 . S
C645 C644 1.399 . S
C645 C646 1.376 . S
C646 H633 0.930 . S
C646 C645 1.376 . S
C646 C647 1.388 . S
C647 H634 0.930 . S
C647 C646 1.388 . S
C647 C648 1.390 . S
C648 C647 1.390 . S
C648 C649 1.394 . S
C648 C654 1.465 . S
C649 C644 1.399 . S
C649 C648 1.394 . S
C649 C650 1.516 . S
C650 C649 1.516 . S
C650 C651 1.502 . S
C650 C652 1.561 . S
C650 C653 1.526 . S
C651 H635 0.959 . S
C651 H636 0.959 . S
C651 H637 0.961 . S
C651 C650 1.502 . S
C652 H638 0.960 . S
C652 H639 0.961 . S
C652 H640 0.959 . S
C652 C650 1.561 . S
C653 C650 1.526 . S
C653 C654 1.396 . S
C653 C658 1.390 . S
C654 C648 1.465 . S
C654 C653 1.396 . S
C654 C655 1.399 . S
C655 H641 0.929 . S
C655 C654 1.399 . S
C655 C656 1.385 . S
C656 H642 0.931 . S
C656 C655 1.385 . S
C656 C657 1.389 . S
C657 C656 1.389 . S
C657 C658 1.387 . S
C658 H643 0.930 . S
C658 C653 1.390 . S
C658 C657 1.387 . S
H659 C671 0.930 . S
H660 C673 0.930 . S
H661 C674 0.930 . S
H662 C678 0.959 . S
H663 C678 0.959 . S
H664 C678 0.961 . S
H665 C679 0.960 . S
H666 C679 0.961 . S
H667 C679 0.959 . S
H668 C682 0.929 . S
H669 C683 0.931 . S
H670 C685 0.930 . S
C671 H659 0.930 . S
C671 C672 1.399 . S
C671 C676 1.399 . S
C672 C671 1.399 . S
C672 C673 1.376 . S
C673 H660 0.930 . S
C673 C672 1.376 . S
C673 C674 1.388 . S
C674 H661 0.930 . S
C674 C673 1.388 . S
C674 C675 1.390 . S
C675 C674 1.390 . S
C675 C676 1.394 . S
C675 C681 1.465 . S
C676 C671 1.399 . S
C676 C675 1.394 . S
C676 C677 1.516 . S
C677 C676 1.516 . S
C677 C678 1.502 . S
C677 C679 1.561 . S
C677 C680 1.526 . S
C678 H662 0.959 . S
C678 H663 0.959 . S
C678 H664 0.961 . S
C678 C677 1.502 . S
C679 H665 0.960 . S
C679 H666 0.961 . S
C679 H667 0.959 . S
C679 C677 1.561 . S
C680 C677 1.526 . S
C680 C681 1.396 . S
C680 C685 1.390 . S
C681 C675 1.465 . S
C681 C680 1.396 . S
C681 C682 1.399 . S
C682 H668 0.929 . S
C682 C681 1.399 . S
C682 C683 1.385 . S
C683 H669 0.931 . S
C683 C682 1.385 . S
C683 C684 1.389 . S
C684 C683 1.389 . S
C684 C685 1.387 . S
C685 H670 0.930 . S
C685 C680 1.390 . S
C685 C684 1.387 . S
H686 C698 0.930 . S
H687 C700 0.930 . S
H688 C701 0.930 . S
H689 C705 0.959 . S
H690 C705 0.959 1_545 S
H691 C705 0.961 1_545 S
H692 C706 0.960 . S
H693 C706 0.961 . S
H694 C706 0.959 . S
H695 C709 0.929 . S
H696 C710 0.931 . S
H697 C712 0.930 . S
C698 H686 0.930 . S
C698 C699 1.399 . S
C698 C703 1.399 . S
C699 C698 1.399 . S
C699 C700 1.376 . S
C700 H687 0.930 . S
C700 C699 1.376 . S
C700 C701 1.388 . S
C701 H688 0.930 . S
C701 C700 1.388 . S
C701 C702 1.390 . S
C702 C701 1.390 . S
C702 C703 1.394 . S
C702 C708 1.465 . S
C703 C698 1.399 . S
C703 C702 1.394 . S
C703 C704 1.516 . S
C704 C703 1.516 . S
C704 C705 1.502 . S
C704 C706 1.561 . S
C704 C707 1.526 . S
C705 H689 0.959 . S
C705 H690 0.959 1_565 S
C705 H691 0.961 1_565 S
C705 C704 1.502 . S
C706 H692 0.960 . S
C706 H693 0.961 . S
C706 H694 0.959 . S
C706 C704 1.561 . S
C707 C704 1.526 . S
C707 C708 1.396 . S
C707 C712 1.390 . S
C708 C702 1.465 . S
C708 C707 1.396 . S
C708 C709 1.399 . S
C709 H695 0.929 . S
C709 C708 1.399 . S
C709 C710 1.385 . S
C710 H696 0.931 . S
C710 C709 1.385 . S
C710 C711 1.389 . S
C711 C710 1.389 . S
C711 C712 1.387 . S
C712 H697 0.930 . S
C712 C707 1.390 . S
C712 C711 1.387 . S
H713 C725 0.930 . S
H714 C727 0.930 . S
H715 C728 0.930 . S
H716 C732 0.959 . S
H717 C732 0.959 . S
H718 C732 0.961 . S
H719 C733 0.960 . S
H720 C733 0.961 . S
H721 C733 0.959 . S
H722 C736 0.929 . S
H723 C737 0.931 . S
H724 C739 0.930 . S
C725 H713 0.930 . S
C725 C726 1.399 . S
C725 C730 1.399 . S
C726 C725 1.399 . S
C726 C727 1.376 . S
C727 H714 0.930 . S
C727 C726 1.376 . S
C727 C728 1.388 . S
C728 H715 0.930 . S
C728 C727 1.388 . S
C728 C729 1.390 . S
C729 C728 1.390 . S
C729 C730 1.394 . S
C729 C735 1.465 . S
C730 C725 1.399 . S
C730 C729 1.394 . S
C730 C731 1.516 . S
C731 C730 1.516 . S
C731 C732 1.502 . S
C731 C733 1.561 . S
C731 C734 1.526 . S
C732 H716 0.959 . S
C732 H717 0.959 . S
C732 H718 0.961 . S
C732 C731 1.502 . S
C733 H719 0.960 . S
C733 H720 0.961 . S
C733 H721 0.959 . S
C733 C731 1.561 . S
C734 C731 1.526 . S
C734 C735 1.396 . S
C734 C739 1.390 . S
C735 C729 1.465 . S
C735 C734 1.396 . S
C735 C736 1.399 . S
C736 H722 0.929 . S
C736 C735 1.399 . S
C736 C737 1.385 . S
C737 H723 0.931 . S
C737 C736 1.385 . S
C737 C738 1.389 . S
C738 C737 1.389 . S
C738 C739 1.387 . S
C739 H724 0.930 . S
C739 C734 1.390 . S
C739 C738 1.387 . S
H740 C752 0.930 . S
H741 C754 0.930 . S
H742 C755 0.930 . S
H743 C759 0.959 . S
H744 C759 0.959 . S
H745 C759 0.961 . S
H746 C760 0.960 . S
H747 C760 0.961 . S
H748 C760 0.959 . S
H749 C763 0.929 . S
H750 C764 0.931 . S
H751 C766 0.930 . S
C752 H740 0.930 . S
C752 C753 1.399 . S
C752 C757 1.399 . S
C753 C752 1.399 . S
C753 C754 1.376 . S
C754 H741 0.930 . S
C754 C753 1.376 . S
C754 C755 1.388 . S
C755 H742 0.930 . S
C755 C754 1.388 . S
C755 C756 1.390 . S
C756 C755 1.390 . S
C756 C757 1.394 . S
C756 C762 1.465 . S
C757 C752 1.399 . S
C757 C756 1.394 . S
C757 C758 1.516 . S
C758 C757 1.516 . S
C758 C759 1.502 . S
C758 C760 1.561 . S
C758 C761 1.526 . S
C759 H743 0.959 . S
C759 H744 0.959 . S
C759 H745 0.961 . S
C759 C758 1.502 . S
C760 H746 0.960 . S
C760 H747 0.961 . S
C760 H748 0.959 . S
C760 C758 1.561 . S
C761 C758 1.526 . S
C761 C762 1.396 . S
C761 C766 1.390 . S
C762 C756 1.465 . S
C762 C761 1.396 . S
C762 C763 1.399 . S
C763 H749 0.929 . S
C763 C762 1.399 . S
C763 C764 1.385 . S
C764 H750 0.931 . S
C764 C763 1.385 . S
C764 C765 1.389 . S
C765 C764 1.389 . S
C765 C766 1.387 . S
C766 H751 0.930 . S
C766 C761 1.390 . S
C766 C765 1.387 . S
H767 C779 0.930 . S
H768 C781 0.930 . S
H769 C782 0.930 . S
H770 C786 0.959 . S
H771 C786 0.959 . S
H772 C786 0.961 . S
H773 C787 0.960 . S
H774 C787 0.961 . S
H775 C787 0.959 . S
H776 C790 0.929 . S
H777 C791 0.931 . S
H778 C793 0.930 . S
C779 H767 0.930 . S
C779 C780 1.399 . S
C779 C784 1.399 . S
C780 C779 1.399 . S
C780 C781 1.376 . S
C781 H768 0.930 . S
C781 C780 1.376 . S
C781 C782 1.388 . S
C782 H769 0.930 . S
C782 C781 1.388 . S
C782 C783 1.390 . S
C783 C782 1.390 . S
C783 C784 1.394 . S
C783 C789 1.465 . S
C784 C779 1.399 . S
C784 C783 1.394 . S
C784 C785 1.516 . S
C785 C784 1.516 . S
C785 C786 1.502 . S
C785 C787 1.561 . S
C785 C788 1.526 . S
C786 H770 0.959 . S
C786 H771 0.959 . S
C786 H772 0.961 . S
C786 C785 1.502 . S
C787 H773 0.960 . S
C787 H774 0.961 . S
C787 H775 0.959 . S
C787 C785 1.561 . S
C788 C785 1.526 . S
C788 C789 1.396 . S
C788 C793 1.390 . S
C789 C783 1.465 . S
C789 C788 1.396 . S
C789 C790 1.399 . S
C790 H776 0.929 . S
C790 C789 1.399 . S
C790 C791 1.385 . S
C791 H777 0.931 . S
C791 C790 1.385 . S
C791 C792 1.389 . S
C792 C791 1.389 . S
C792 C793 1.387 . S
C793 H778 0.930 . S
C793 C788 1.390 . S
C793 C792 1.387 . S
H794 C806 0.930 . S
H795 C808 0.930 . S
H796 C809 0.930 . S
H797 C813 0.959 . S
H798 C813 0.959 . S
H799 C813 0.961 . S
H800 C814 0.960 . S
H801 C814 0.961 . S
H802 C814 0.959 . S
H803 C817 0.929 . S
H804 C818 0.931 . S
H805 C820 0.930 . S
C806 H794 0.930 . S
C806 C807 1.399 . S
C806 C811 1.399 . S
C807 C806 1.399 . S
C807 C808 1.376 . S
C808 H795 0.930 . S
C808 C807 1.376 . S
C808 C809 1.388 . S
C809 H796 0.930 . S
C809 C808 1.388 . S
C809 C810 1.390 . S
C810 C809 1.390 . S
C810 C811 1.394 . S
C810 C816 1.465 . S
C811 C806 1.399 . S
C811 C810 1.394 . S
C811 C812 1.516 . S
C812 C811 1.516 . S
C812 C813 1.502 . S
C812 C814 1.561 . S
C812 C815 1.526 . S
C813 H797 0.959 . S
C813 H798 0.959 . S
C813 H799 0.961 . S
C813 C812 1.502 . S
C814 H800 0.960 . S
C814 H801 0.961 . S
C814 H802 0.959 . S
C814 C812 1.561 . S
C815 C812 1.526 . S
C815 C816 1.396 . S
C815 C820 1.390 . S
C816 C810 1.465 . S
C816 C815 1.396 . S
C816 C817 1.399 . S
C817 H803 0.929 . S
C817 C816 1.399 . S
C817 C818 1.385 . S
C818 H804 0.931 . S
C818 C817 1.385 . S
C818 C819 1.389 . S
C819 C818 1.389 . S
C819 C820 1.387 . S
C820 H805 0.930 . S
C820 C815 1.390 . S
C820 C819 1.387 . S
H821 C833 0.930 . S
H822 C835 0.930 . S
H823 C836 0.930 . S
H824 C840 0.959 . S
H825 C840 0.959 . S
H826 C840 0.961 . S
H827 C841 0.960 . S
H828 C841 0.961 . S
H829 C841 0.959 . S
H830 C844 0.929 . S
H831 C845 0.931 . S
H832 C847 0.930 . S
C833 H821 0.930 . S
C833 C834 1.399 . S
C833 C838 1.399 . S
C834 C833 1.399 . S
C834 C835 1.376 . S
C835 H822 0.930 . S
C835 C834 1.376 . S
C835 C836 1.388 . S
C836 H823 0.930 . S
C836 C835 1.388 . S
C836 C837 1.390 . S
C837 C836 1.390 . S
C837 C838 1.394 . S
C837 C843 1.465 . S
C838 C833 1.399 . S
C838 C837 1.394 . S
C838 C839 1.516 . S
C839 C838 1.516 . S
C839 C840 1.502 . S
C839 C841 1.561 . S
C839 C842 1.526 . S
C840 H824 0.959 . S
C840 H825 0.959 . S
C840 H826 0.961 . S
C840 C839 1.502 . S
C841 H827 0.960 . S
C841 H828 0.961 . S
C841 H829 0.959 . S
C841 C839 1.561 . S
C842 C839 1.526 . S
C842 C843 1.396 . S
C842 C847 1.390 . S
C843 C837 1.465 . S
C843 C842 1.396 . S
C843 C844 1.399 . S
C844 H830 0.929 . S
C844 C843 1.399 . S
C844 C845 1.385 . S
C845 H831 0.931 . S
C845 C844 1.385 . S
C845 C846 1.389 . S
C846 C845 1.389 . S
C846 C847 1.387 . S
C847 H832 0.930 . S
C847 C842 1.390 . S
C847 C846 1.387 . S
H848 C860 0.930 . S
H849 C862 0.930 . S
H850 C863 0.930 . S
H851 C867 0.959 . S
H852 C867 0.959 . S
H853 C867 0.961 . S
H854 C868 0.958 1_455 S
H855 C868 0.961 . S
H856 C868 0.959 1_455 S
H857 C871 0.929 . S
H858 C872 0.931 . S
H859 C874 0.930 . S
C860 H848 0.930 . S
C860 C861 1.399 . S
C860 C865 1.399 . S
C861 C860 1.399 . S
C861 C862 1.376 . S
C862 H849 0.930 . S
C862 C861 1.376 . S
C862 C863 1.388 . S
C863 H850 0.930 . S
C863 C862 1.388 . S
C863 C864 1.390 . S
C864 C863 1.390 . S
C864 C865 1.394 . S
C864 C870 1.503 . S
C865 C860 1.399 . S
C865 C864 1.394 . S
C865 C866 1.516 1_455 S
C866 C865 1.516 1_655 S
C866 C867 1.502 . S
C866 C868 1.561 . S
C866 C869 1.526 . S
C867 H851 0.959 . S
C867 H852 0.959 . S
C867 H853 0.961 . S
C867 C866 1.502 . S
C868 H854 0.958 1_655 S
C868 H855 0.961 . S
C868 H856 0.959 1_655 S
C868 C866 1.561 . S
C869 C866 1.526 . S
C869 C870 1.349 1_655 S
C869 C874 1.390 . S
C870 C864 1.503 . S
C870 C869 1.349 1_455 S
C870 C871 1.405 . S
C871 H857 0.929 . S
C871 C870 1.405 . S
C871 C872 1.385 1_455 S
C872 H858 0.931 . S
C872 C871 1.385 1_655 S
C872 C873 1.389 . S
C873 C872 1.389 . S
C873 C874 1.387 . S
C874 H859 0.930 . S
C874 C869 1.390 . S
C874 C873 1.387 . S
H875 C887 0.930 . S
H876 C889 0.930 . S
H877 C890 0.930 . S
H878 C894 0.959 . S
H879 C894 0.959 . S
H880 C894 0.961 . S
H881 C895 0.960 . S
H882 C895 0.961 . S
H883 C895 0.959 . S
H884 C898 0.929 . S
H885 C899 0.931 . S
H886 C901 0.930 . S
C887 H875 0.930 . S
C887 C888 1.399 . S
C887 C892 1.399 . S
C888 C887 1.399 . S
C888 C889 1.376 . S
C889 H876 0.930 . S
C889 C888 1.376 . S
C889 C890 1.388 . S
C890 H877 0.930 . S
C890 C889 1.388 . S
C890 C891 1.390 . S
C891 C890 1.390 . S
C891 C892 1.394 . S
C891 C897 1.465 1_545 S
C892 C887 1.399 . S
C892 C891 1.394 . S
C892 C893 1.516 . S
C893 C892 1.516 . S
C893 C894 1.502 1_545 S
C893 C895 1.561 . S
C893 C896 1.526 1_545 S
C894 H878 0.959 . S
C894 H879 0.959 . S
C894 H880 0.961 . S
C894 C893 1.502 1_565 S
C895 H881 0.960 . S
C895 H882 0.961 . S
C895 H883 0.959 . S
C895 C893 1.561 . S
C896 C893 1.526 1_565 S
C896 C897 1.396 . S
C896 C901 1.390 . S
C897 C891 1.465 1_565 S
C897 C896 1.396 . S
C897 C898 1.399 . S
C898 H884 0.929 . S
C898 C897 1.399 . S
C898 C899 1.385 . S
C899 H885 0.931 . S
C899 C898 1.385 . S
C899 C900 1.389 . S
C900 C899 1.389 . S
C900 C901 1.387 . S
C901 H886 0.930 . S
C901 C896 1.390 . S
C901 C900 1.387 . S
H902 C914 0.930 . S
H903 C916 0.930 . S
H904 C917 0.991 . S
H905 C921 0.959 . S
H906 C921 0.959 . S
H907 C921 0.961 . S
H908 C922 0.960 . S
H909 C922 0.961 1_655 S
H910 C922 0.959 . S
H911 C925 0.888 1_455 S
H912 C926 0.931 . S
H913 C928 0.930 . S
C914 H902 0.930 . S
C914 C915 1.399 . S
C914 C919 1.399 . S
C915 C914 1.399 . S
C915 C916 1.376 . S
C916 H903 0.930 . S
C916 C915 1.376 . S
C916 C917 1.331 1_556 S
C917 H904 0.991 . S
C917 C916 1.331 1_554 S
C917 C918 1.387 1_554 S
C918 C917 1.387 1_556 S
C918 C919 1.404 . S
C918 C924 1.454 1_446 S
C919 C914 1.399 . S
C919 C918 1.404 . S
C919 C920 1.516 1_445 S
C920 C919 1.516 1_665 S
C920 C921 1.502 . S
C920 C922 1.561 1_655 S
C920 C923 1.526 1_556 S
C921 H905 0.959 . S
C921 H906 0.959 . S
C921 H907 0.961 . S
C921 C920 1.502 . S
C922 H908 0.960 . S
C922 H909 0.961 1_455 S
C922 H910 0.959 . S
C922 C920 1.561 1_455 S
C923 C920 1.526 1_554 S
C923 C924 1.399 . S
C923 C928 1.390 . S
C924 C918 1.454 1_664 S
C924 C923 1.399 . S
C924 C925 1.397 1_565 S
C925 H911 0.888 1_655 S
C925 C924 1.397 1_545 S
C925 C926 1.435 1_545 S
C926 H912 0.931 . S
C926 C925 1.435 1_565 S
C926 C927 1.389 . S
C927 C926 1.389 . S
C927 C928 1.387 . S
C928 H913 0.930 . S
C928 C923 1.390 . S
C928 C927 1.387 . S
H929 C941 0.930 . S
H930 C943 0.930 . S
H931 C944 0.930 . S
H932 C948 0.959 . S
H933 C948 0.959 . S
H934 C948 0.961 . S
H935 C949 0.960 . S
H936 C949 0.961 . S
H937 C949 0.959 . S
H938 C952 0.922 1_556 S
H939 C953 0.931 . S
H940 C955 0.930 . S
C941 H929 0.930 . S
C941 C942 1.399 . S
C941 C946 1.399 . S
C942 C941 1.399 . S
C942 C943 1.376 . S
C943 H930 0.930 . S
C943 C942 1.376 . S
C943 C944 1.388 . S
C944 H931 0.930 . S
C944 C943 1.388 . S
C944 C945 1.390 . S
C945 C944 1.390 . S
C945 C946 1.394 . S
C945 C951 1.465 1_556 S
C946 C941 1.399 . S
C946 C945 1.394 . S
C946 C947 1.516 1_556 S
C947 C946 1.516 1_554 S
C947 C948 1.502 . S
C947 C949 1.561 . S
C947 C950 1.526 . S
C948 H932 0.959 . S
C948 H933 0.959 . S
C948 H934 0.961 . S
C948 C947 1.502 . S
C949 H935 0.960 . S
C949 H936 0.961 . S
C949 H937 0.959 . S
C949 C947 1.561 . S
C950 C947 1.526 . S
C950 C951 1.396 . S
C950 C955 1.390 . S
C951 C945 1.465 1_554 S
C951 C950 1.396 . S
C951 C952 1.399 . S
C952 H938 0.922 1_554 S
C952 C951 1.399 . S
C952 C953 1.392 . S
C953 H939 0.931 . S
C953 C952 1.392 . S
C953 C954 1.389 . S
C954 C953 1.389 . S
C954 C955 1.387 . S
C955 H940 0.930 . S
C955 C950 1.390 . S
C955 C954 1.387 . S
H956 C968 0.930 . S
H957 C970 0.930 . S
H958 C971 0.930 . S
H959 C975 0.959 . S
H960 C975 0.959 . S
H961 C975 0.961 . S
H962 C976 0.960 . S
H963 C976 0.961 . S
H964 C976 1.019 . S
H965 C979 0.929 . S
H966 C980 0.931 . S
H967 C982 0.930 . S
C968 H956 0.930 . S
C968 C969 1.399 . S
C968 C973 1.399 . S
C969 C968 1.399 . S
C969 C970 1.376 . S
C970 H957 0.930 . S
C970 C969 1.376 . S
C970 C971 1.388 1_655 S
C971 H958 0.930 . S
C971 C970 1.388 1_455 S
C971 C972 1.390 . S
C972 C971 1.390 . S
C972 C973 1.394 1_455 S
C972 C978 1.465 . S
C973 C968 1.399 . S
C973 C972 1.394 1_655 S
C973 C974 1.516 . S
C974 C973 1.516 . S
C974 C975 1.502 . S
C974 C976 1.561 . S
C974 C977 1.526 1_655 S
C975 H959 0.959 . S
C975 H960 0.959 . S
C975 H961 0.961 . S
C975 C974 1.502 . S
C976 H962 0.960 . S
C976 H963 0.961 . S
C976 H964 1.019 . S
C976 C974 1.561 . S
C977 C974 1.526 1_455 S
C977 C978 1.396 . S
C977 C982 1.390 . S
C978 C972 1.465 . S
C978 C977 1.396 . S
C978 C979 1.399 . S
C979 H965 0.929 . S
C979 C978 1.399 . S
C979 C980 1.385 . S
C980 H966 0.931 . S
C980 C979 1.385 . S
C980 C981 1.389 . S
C981 C980 1.389 . S
C981 C982 1.387 . S
C982 H967 0.930 . S
C982 C977 1.390 . S
C982 C981 1.387 . S
H983 C995 0.930 1_565 S
H984 C997 0.930 . S
H985 C998 0.930 . S
H986 C1002 0.959 . S
H987 C1002 0.959 . S
H988 C1002 0.961 . S
H989 C1003 0.960 . S
H990 C1003 0.961 . S
H991 C1003 0.959 . S
H992 C1006 0.929 . S
H993 C1007 0.931 . S
H994 C1009 0.930 . S
C995 H983 0.930 1_545 S
C995 C996 1.399 . S
C995 C1000 1.399 . S
C996 C995 1.399 . S
C996 C997 1.376 . S
C997 H984 0.930 . S
C997 C996 1.376 . S
C997 C998 1.388 . S
C998 H985 0.930 . S
C998 C997 1.388 . S
C998 C999 1.390 . S
C999 C998 1.390 . S
C999 C1000 1.394 . S
C999 C1005 1.465 . S
C1000 C995 1.399 . S
C1000 C999 1.394 . S
C1000 C1001 1.516 1_545 S
C1001 C1000 1.516 1_565 S
C1001 C1002 1.502 . S
C1001 C1003 1.561 . S
C1001 C1004 1.526 . S
C1002 H986 0.959 . S
C1002 H987 0.959 . S
C1002 H988 0.961 . S
C1002 C1001 1.502 . S
C1003 H989 0.960 . S
C1003 H990 0.961 . S
C1003 H991 0.959 . S
C1003 C1001 1.561 . S
C1004 C1001 1.526 . S
C1004 C1005 1.396 1_565 S
C1004 C1009 1.390 . S
C1005 C999 1.465 . S
C1005 C1004 1.396 1_545 S
C1005 C1006 1.399 . S
C1006 H992 0.929 . S
C1006 C1005 1.399 . S
C1006 C1007 1.385 1_545 S
C1007 H993 0.931 . S
C1007 C1006 1.385 1_565 S
C1007 C1008 1.389 . S
C1008 C1007 1.389 . S
C1008 C1009 1.387 . S
C1009 H994 0.930 . S
C1009 C1004 1.390 . S
C1009 C1008 1.387 . S
H1010 C1022 0.930 . S
H1011 C1024 0.930 . S
H1012 C1025 0.930 1_554 S
H1013 C1029 0.959 . S
H1014 C1029 0.959 . S
H1015 C1029 0.961 . S
H1016 C1030 0.960 . S
H1017 C1030 0.961 . S
H1018 C1030 0.959 1_554 S
H1019 C1033 0.929 . S
H1020 C1034 0.931 . S
H1021 C1036 0.930 . S
C1022 H1010 0.930 . S
C1022 C1023 1.399 . S
C1022 C1027 1.399 . S
C1023 C1022 1.399 . S
C1023 C1024 1.376 . S
C1024 H1011 0.930 . S
C1024 C1023 1.376 . S
C1024 C1025 1.388 . S
C1025 H1012 0.930 1_556 S
C1025 C1024 1.388 . S
C1025 C1026 1.390 . S
C1026 C1025 1.390 . S
C1026 C1027 1.394 . S
C1026 C1032 1.465 1_556 S
C1027 C1022 1.399 . S
C1027 C1026 1.394 . S
C1027 C1028 1.516 . S
C1028 C1027 1.516 . S
C1028 C1029 1.502 . S
C1028 C1030 1.561 . S
C1028 C1031 1.526 1_556 S
C1029 H1013 0.959 . S
C1029 H1014 0.959 . S
C1029 H1015 0.961 . S
C1029 C1028 1.502 . S
C1030 H1016 0.960 . S
C1030 H1017 0.961 . S
C1030 H1018 0.959 1_556 S
C1030 C1028 1.561 . S
C1031 C1028 1.526 1_554 S
C1031 C1032 1.396 . S
C1031 C1036 1.390 . S
C1032 C1026 1.465 1_554 S
C1032 C1031 1.396 . S
C1032 C1033 1.399 . S
C1033 H1019 0.929 . S
C1033 C1032 1.399 . S
C1033 C1034 1.385 . S
C1034 H1020 0.931 . S
C1034 C1033 1.385 . S
C1034 C1035 1.389 . S
C1035 C1034 1.389 . S
C1035 C1036 1.387 . S
C1036 H1021 0.930 . S
C1036 C1031 1.390 . S
C1036 C1035 1.387 . S
H1037 C1049 0.930 . S
H1038 C1051 0.930 . S
H1039 C1052 0.930 . S
H1040 C1056 0.959 . S
H1041 C1056 0.959 . S
H1042 C1056 0.961 . S
H1043 C1057 0.960 . S
H1044 C1057 0.961 . S
H1045 C1057 0.959 . S
H1046 C1060 0.929 . S
H1047 C1061 0.931 . S
H1048 C1063 0.930 . S
C1049 H1037 0.930 . S
C1049 C1050 1.399 . S
C1049 C1054 1.399 . S
C1050 C1049 1.399 . S
C1050 C1051 1.376 . S
C1051 H1038 0.930 . S
C1051 C1050 1.376 . S
C1051 C1052 1.388 . S
C1052 H1039 0.930 . S
C1052 C1051 1.388 . S
C1052 C1053 1.390 . S
C1053 C1052 1.390 . S
C1053 C1054 1.394 . S
C1053 C1059 1.465 . S
C1054 C1049 1.399 . S
C1054 C1053 1.394 . S
C1054 C1055 1.516 . S
C1055 C1054 1.516 . S
C1055 C1056 1.502 . S
C1055 C1057 1.561 . S
C1055 C1058 1.526 . S
C1056 H1040 0.959 . S
C1056 H1041 0.959 . S
C1056 H1042 0.961 . S
C1056 C1055 1.502 . S
C1057 H1043 0.960 . S
C1057 H1044 0.961 . S
C1057 H1045 0.959 . S
C1057 C1055 1.561 . S
C1058 C1055 1.526 . S
C1058 C1059 1.396 . S
C1058 C1063 1.390 . S
C1059 C1053 1.465 . S
C1059 C1058 1.396 . S
C1059 C1060 1.399 . S
C1060 H1046 0.929 . S
C1060 C1059 1.399 . S
C1060 C1061 1.385 . S
C1061 H1047 0.931 . S
C1061 C1060 1.385 . S
C1061 C1062 1.389 . S
C1062 C1061 1.389 . S
C1062 C1063 1.387 . S
C1063 H1048 0.930 . S
C1063 C1058 1.390 . S
C1063 C1062 1.387 . S
H1064 C1076 0.930 . S
H1065 C1078 0.930 . S
H1066 C1079 0.930 . S
H1067 C1083 0.959 . S
H1068 C1083 0.959 . S
H1069 C1083 0.961 . S
H1070 C1084 0.960 . S
H1071 C1084 0.961 . S
H1072 C1084 0.959 . S
H1073 C1087 0.929 . S
H1074 C1088 0.931 . S
H1075 C1090 0.930 . S
C1076 H1064 0.930 . S
C1076 C1077 1.399 . S
C1076 C1081 1.399 . S
C1077 C1076 1.399 . S
C1077 C1078 1.376 . S
C1078 H1065 0.930 . S
C1078 C1077 1.376 . S
C1078 C1079 1.388 . S
C1079 H1066 0.930 . S
C1079 C1078 1.388 . S
C1079 C1080 1.390 . S
C1080 C1079 1.390 . S
C1080 C1081 1.394 . S
C1080 C1086 1.465 1_455 S
C1081 C1076 1.399 . S
C1081 C1080 1.394 . S
C1081 C1082 1.516 . S
C1082 C1081 1.516 . S
C1082 C1083 1.502 1_455 S
C1082 C1084 1.561 . S
C1082 C1085 1.526 1_455 S
C1083 H1067 0.959 . S
C1083 H1068 0.959 . S
C1083 H1069 0.961 . S
C1083 C1082 1.502 1_655 S
C1084 H1070 0.960 . S
C1084 H1071 0.961 . S
C1084 H1072 0.959 . S
C1084 C1082 1.561 . S
C1085 C1082 1.526 1_655 S
C1085 C1086 1.396 . S
C1085 C1090 1.390 . S
C1086 C1080 1.465 1_655 S
C1086 C1085 1.396 . S
C1086 C1087 1.399 . S
C1087 H1073 0.929 . S
C1087 C1086 1.399 . S
C1087 C1088 1.385 . S
C1088 H1074 0.931 . S
C1088 C1087 1.385 . S
C1088 C1089 1.389 . S
C1089 C1088 1.389 . S
C1089 C1090 1.387 . S
C1090 H1075 0.930 . S
C1090 C1085 1.390 . S
C1090 C1089 1.387 . S
H1091 C1103 0.930 . S
H1092 C1105 0.930 . S
H1093 C1106 0.930 . S
H1094 C1110 0.959 . S
H1095 C1110 0.959 . S
H1096 C1110 0.961 . S
H1097 C1111 0.960 . S
H1098 C1111 0.961 . S
H1099 C1111 0.959 . S
H1100 C1114 0.929 . S
H1101 C1115 0.931 . S
H1102 C1117 0.930 . S
C1103 H1091 0.930 . S
C1103 C1104 1.399 . S
C1103 C1108 1.399 . S
C1104 C1103 1.399 . S
C1104 C1105 1.376 . S
C1105 H1092 0.930 . S
C1105 C1104 1.376 . S
C1105 C1106 1.388 . S
C1106 H1093 0.930 . S
C1106 C1105 1.388 . S
C1106 C1107 1.390 . S
C1107 C1106 1.390 . S
C1107 C1108 1.394 . S
C1107 C1113 1.465 . S
C1108 C1103 1.399 . S
C1108 C1107 1.394 . S
C1108 C1109 1.516 . S
C1109 C1108 1.516 . S
C1109 C1110 1.502 . S
C1109 C1111 1.561 . S
C1109 C1112 1.526 . S
C1110 H1094 0.959 . S
C1110 H1095 0.959 . S
C1110 H1096 0.961 . S
C1110 C1109 1.502 . S
C1111 H1097 0.960 . S
C1111 H1098 0.961 . S
C1111 H1099 0.959 . S
C1111 C1109 1.561 . S
C1112 C1109 1.526 . S
C1112 C1113 1.396 . S
C1112 C1117 1.390 . S
C1113 C1107 1.465 . S
C1113 C1112 1.396 . S
C1113 C1114 1.399 . S
C1114 H1100 0.929 . S
C1114 C1113 1.399 . S
C1114 C1115 1.385 . S
C1115 H1101 0.931 . S
C1115 C1114 1.385 . S
C1115 C1116 1.389 . S
C1116 C1115 1.389 . S
C1116 C1117 1.387 . S
C1117 H1102 0.930 . S
C1117 C1112 1.390 . S
C1117 C1116 1.387 . S
H1118 C1130 0.930 . S
H1119 C1132 0.930 . S
H1120 C1133 0.930 . S
H1121 C1137 0.959 . S
H1122 C1137 0.959 . S
H1123 C1137 0.961 . S
H1124 C1138 0.960 . S
H1125 C1138 0.961 . S
H1126 C1138 0.959 . S
H1127 C1141 0.929 . S
H1128 C1142 0.931 . S
H1129 C1144 0.930 . S
C1130 H1118 0.930 . S
C1130 C1131 1.399 . S
C1130 C1135 1.399 . S
C1131 C1130 1.399 . S
C1131 C1132 1.376 . S
C1132 H1119 0.930 . S
C1132 C1131 1.376 . S
C1132 C1133 1.388 . S
C1133 H1120 0.930 . S
C1133 C1132 1.388 . S
C1133 C1134 1.390 . S
C1134 C1133 1.390 . S
C1134 C1135 1.394 . S
C1134 C1140 1.465 . S
C1135 C1130 1.399 . S
C1135 C1134 1.394 . S
C1135 C1136 1.516 . S
C1136 C1135 1.516 . S
C1136 C1137 1.502 . S
C1136 C1138 1.561 . S
C1136 C1139 1.526 . S
C1137 H1121 0.959 . S
C1137 H1122 0.959 . S
C1137 H1123 0.961 . S
C1137 C1136 1.502 . S
C1138 H1124 0.960 . S
C1138 H1125 0.961 . S
C1138 H1126 0.959 . S
C1138 C1136 1.561 . S
C1139 C1136 1.526 . S
C1139 C1140 1.396 . S
C1139 C1144 1.390 . S
C1140 C1134 1.465 . S
C1140 C1139 1.396 . S
C1140 C1141 1.399 . S
C1141 H1127 0.929 . S
C1141 C1140 1.399 . S
C1141 C1142 1.385 . S
C1142 H1128 0.931 . S
C1142 C1141 1.385 . S
C1142 C1143 1.389 . S
C1143 C1142 1.389 . S
C1143 C1144 1.387 . S
C1144 H1129 0.930 . S
C1144 C1139 1.390 . S
C1144 C1143 1.387 . S
H1145 C1157 0.930 . S
H1146 C1159 0.930 . S
H1147 C1160 0.930 . S
H1148 C1164 0.959 . S
H1149 C1164 0.959 . S
H1150 C1164 0.961 . S
H1151 C1165 0.960 . S
H1152 C1165 0.961 . S
H1153 C1165 0.959 . S
H1154 C1168 0.929 . S
H1155 C1169 0.931 . S
H1156 C1171 0.930 . S
C1157 H1145 0.930 . S
C1157 C1158 1.399 . S
C1157 C1162 1.399 . S
C1158 C1157 1.399 . S
C1158 C1159 1.376 . S
C1159 H1146 0.930 . S
C1159 C1158 1.376 . S
C1159 C1160 1.388 . S
C1160 H1147 0.930 . S
C1160 C1159 1.388 . S
C1160 C1161 1.390 . S
C1161 C1160 1.390 . S
C1161 C1162 1.394 . S
C1161 C1167 1.465 . S
C1162 C1157 1.399 . S
C1162 C1161 1.394 . S
C1162 C1163 1.516 . S
C1163 C1162 1.516 . S
C1163 C1164 1.502 . S
C1163 C1165 1.561 . S
C1163 C1166 1.526 . S
C1164 H1148 0.959 . S
C1164 H1149 0.959 . S
C1164 H1150 0.961 . S
C1164 C1163 1.502 . S
C1165 H1151 0.960 . S
C1165 H1152 0.961 . S
C1165 H1153 0.959 . S
C1165 C1163 1.561 . S
C1166 C1163 1.526 . S
C1166 C1167 1.396 . S
C1166 C1171 1.390 . S
C1167 C1161 1.465 . S
C1167 C1166 1.396 . S
C1167 C1168 1.399 . S
C1168 H1154 0.929 . S
C1168 C1167 1.399 . S
C1168 C1169 1.385 . S
C1169 H1155 0.931 . S
C1169 C1168 1.385 . S
C1169 C1170 1.389 . S
C1170 C1169 1.389 . S
C1170 C1171 1.387 . S
C1171 H1156 0.930 . S
C1171 C1166 1.390 . S
C1171 C1170 1.387 . S
H1172 C1184 0.930 . S
H1173 C1186 0.930 . S
H1174 C1187 0.930 . S
H1175 C1191 0.959 . S
H1176 C1191 0.959 . S
H1177 C1191 0.961 . S
H1178 C1192 0.960 . S
H1179 C1192 0.961 . S
H1180 C1192 0.959 . S
H1181 C1195 0.929 . S
H1182 C1196 0.931 . S
H1183 C1198 0.930 . S
C1184 H1172 0.930 . S
C1184 C1185 1.399 . S
C1184 C1189 1.399 . S
C1185 C1184 1.399 . S
C1185 C1186 1.376 . S
C1186 H1173 0.930 . S
C1186 C1185 1.376 . S
C1186 C1187 1.388 . S
C1187 H1174 0.930 . S
C1187 C1186 1.388 . S
C1187 C1188 1.390 . S
C1188 C1187 1.390 . S
C1188 C1189 1.394 . S
C1188 C1194 1.465 . S
C1189 C1184 1.399 . S
C1189 C1188 1.394 . S
C1189 C1190 1.516 . S
C1190 C1189 1.516 . S
C1190 C1191 1.502 . S
C1190 C1192 1.561 . S
C1190 C1193 1.526 . S
C1191 H1175 0.959 . S
C1191 H1176 0.959 . S
C1191 H1177 0.961 . S
C1191 C1190 1.502 . S
C1192 H1178 0.960 . S
C1192 H1179 0.961 . S
C1192 H1180 0.959 . S
C1192 C1190 1.561 . S
C1193 C1190 1.526 . S
C1193 C1194 1.396 . S
C1193 C1198 1.390 . S
C1194 C1188 1.465 . S
C1194 C1193 1.396 . S
C1194 C1195 1.399 . S
C1195 H1181 0.929 . S
C1195 C1194 1.399 . S
C1195 C1196 1.385 . S
C1196 H1182 0.931 . S
C1196 C1195 1.385 . S
C1196 C1197 1.389 . S
C1197 C1196 1.389 . S
C1197 C1198 1.387 . S
C1198 H1183 0.930 . S
C1198 C1193 1.390 . S
C1198 C1197 1.387 . S
H1199 C1211 0.930 . S
H1200 C1213 0.930 . S
H1201 C1214 0.930 . S
H1202 C1218 0.959 . S
H1203 C1218 0.959 . S
H1204 C1218 0.961 . S
H1205 C1219 0.960 . S
H1206 C1219 0.961 . S
H1207 C1219 0.959 . S
H1208 C1222 0.929 . S
H1209 C1223 0.931 . S
H1210 C1225 0.930 1_565 S
C1211 H1199 0.930 . S
C1211 C1212 1.399 . S
C1211 C1216 1.399 . S
C1212 C1211 1.399 . S
C1212 C1213 1.376 . S
C1213 H1200 0.930 . S
C1213 C1212 1.376 . S
C1213 C1214 1.388 1_565 S
C1214 H1201 0.930 . S
C1214 C1213 1.388 1_545 S
C1214 C1215 1.390 . S
C1215 C1214 1.390 . S
C1215 C1216 1.394 1_545 S
C1215 C1221 1.465 . S
C1216 C1211 1.399 . S
C1216 C1215 1.394 1_565 S
C1216 C1217 1.516 . S
C1217 C1216 1.516 . S
C1217 C1218 1.502 . S
C1217 C1219 1.561 . S
C1217 C1220 1.526 1_565 S
C1218 H1202 0.959 . S
C1218 H1203 0.959 . S
C1218 H1204 0.961 . S
C1218 C1217 1.502 . S
C1219 H1205 0.960 . S
C1219 H1206 0.961 . S
C1219 H1207 0.959 . S
C1219 C1217 1.561 . S
C1220 C1217 1.526 1_545 S
C1220 C1221 1.396 . S
C1220 C1225 1.390 . S
C1221 C1215 1.465 . S
C1221 C1220 1.396 . S
C1221 C1222 1.399 . S
C1222 H1208 0.929 . S
C1222 C1221 1.399 . S
C1222 C1223 1.385 . S
C1223 H1209 0.931 . S
C1223 C1222 1.385 . S
C1223 C1224 1.389 . S
C1224 C1223 1.389 . S
C1224 C1225 1.387 . S
C1225 H1210 0.930 1_545 S
C1225 C1220 1.390 . S
C1225 C1224 1.387 . S
H1226 C1238 0.930 . S
H1227 C1240 0.930 . S
H1228 C1241 0.930 . S
H1229 C1245 0.959 . S
H1230 C1245 0.959 . S
H1231 C1245 0.961 . S
H1232 C1246 0.960 . S
H1233 C1246 0.961 . S
H1234 C1246 0.959 . S
H1235 C1249 0.929 . S
H1236 C1250 0.931 . S
H1237 C1252 0.930 . S
C1238 H1226 0.930 . S
C1238 C1239 1.399 . S
C1238 C1243 1.399 . S
C1239 C1238 1.399 . S
C1239 C1240 1.376 . S
C1240 H1227 0.930 . S
C1240 C1239 1.376 . S
C1240 C1241 1.388 . S
C1241 H1228 0.930 . S
C1241 C1240 1.388 . S
C1241 C1242 1.390 . S
C1242 C1241 1.390 . S
C1242 C1243 1.394 . S
C1242 C1248 1.465 . S
C1243 C1238 1.399 . S
C1243 C1242 1.394 . S
C1243 C1244 1.516 . S
C1244 C1243 1.516 . S
C1244 C1245 1.502 . S
C1244 C1246 1.561 . S
C1244 C1247 1.526 . S
C1245 H1229 0.959 . S
C1245 H1230 0.959 . S
C1245 H1231 0.961 . S
C1245 C1244 1.502 . S
C1246 H1232 0.960 . S
C1246 H1233 0.961 . S
C1246 H1234 0.959 . S
C1246 C1244 1.561 . S
C1247 C1244 1.526 . S
C1247 C1248 1.396 . S
C1247 C1252 1.390 . S
C1248 C1242 1.465 . S
C1248 C1247 1.396 . S
C1248 C1249 1.399 . S
C1249 H1235 0.929 . S
C1249 C1248 1.399 . S
C1249 C1250 1.385 . S
C1250 H1236 0.931 . S
C1250 C1249 1.385 . S
C1250 C1251 1.389 . S
C1251 C1250 1.389 . S
C1251 C1252 1.387 . S
C1252 H1237 0.930 . S
C1252 C1247 1.390 . S
C1252 C1251 1.387 . S
H1253 C1265 0.930 . S
H1254 C1267 0.930 . S
H1255 C1268 0.943 . S
H1256 C1272 0.959 . S
H1257 C1272 0.959 . S
H1258 C1272 0.961 . S
H1259 C1273 0.960 . S
H1260 C1273 0.961 . S
H1261 C1273 0.959 . S
H1262 C1276 0.929 . S
H1263 C1277 0.931 . S
H1264 C1279 0.930 . S
C1265 H1253 0.930 . S
C1265 C1266 1.399 . S
C1265 C1270 1.399 . S
C1266 C1265 1.399 . S
C1266 C1267 1.376 . S
C1267 H1254 0.930 . S
C1267 C1266 1.376 . S
C1267 C1268 1.376 1_554 S
C1268 H1255 0.943 . S
C1268 C1267 1.376 1_556 S
C1268 C1269 1.387 1_556 S
C1269 C1268 1.387 1_554 S
C1269 C1270 1.444 . S
C1269 C1275 1.426 1_554 S
C1270 C1265 1.399 . S
C1270 C1269 1.444 . S
C1270 C1271 1.516 . S
C1271 C1270 1.516 . S
C1271 C1272 1.502 . S
C1271 C1273 1.561 . S
C1271 C1274 1.526 1_554 S
C1272 H1256 0.959 . S
C1272 H1257 0.959 . S
C1272 H1258 0.961 . S
C1272 C1271 1.502 . S
C1273 H1259 0.960 . S
C1273 H1260 0.961 . S
C1273 H1261 0.959 . S
C1273 C1271 1.561 . S
C1274 C1271 1.526 1_556 S
C1274 C1275 1.396 . S
C1274 C1279 1.390 . S
C1275 C1269 1.426 1_556 S
C1275 C1274 1.396 . S
C1275 C1276 1.399 . S
C1276 H1262 0.929 . S
C1276 C1275 1.399 . S
C1276 C1277 1.385 . S
C1277 H1263 0.931 . S
C1277 C1276 1.385 . S
C1277 C1278 1.389 . S
C1278 C1277 1.389 . S
C1278 C1279 1.387 . S
C1279 H1264 0.930 . S
C1279 C1274 1.390 . S
C1279 C1278 1.387 . S
H1280 C1292 0.930 . S
H1281 C1294 0.930 . S
H1282 C1295 0.930 . S
H1283 C1299 0.959 . S
H1284 C1299 0.959 . S
H1285 C1299 0.961 . S
H1286 C1300 0.960 . S
H1287 C1300 0.961 . S
H1288 C1300 0.959 . S
H1289 C1303 0.929 . S
H1290 C1304 0.931 . S
H1291 C1306 0.930 . S
C1292 H1280 0.930 . S
C1292 C1293 1.399 . S
C1292 C1297 1.399 . S
C1293 C1292 1.399 . S
C1293 C1294 1.376 . S
C1294 H1281 0.930 . S
C1294 C1293 1.376 . S
C1294 C1295 1.388 . S
C1295 H1282 0.930 . S
C1295 C1294 1.388 . S
C1295 C1296 1.390 . S
C1296 C1295 1.390 . S
C1296 C1297 1.394 . S
C1296 C1302 1.465 . S
C1297 C1292 1.399 . S
C1297 C1296 1.394 . S
C1297 C1298 1.516 . S
C1298 C1297 1.516 . S
C1298 C1299 1.502 . S
C1298 C1300 1.561 . S
C1298 C1301 1.526 . S
C1299 H1283 0.959 . S
C1299 H1284 0.959 . S
C1299 H1285 0.961 . S
C1299 C1298 1.502 . S
C1300 H1286 0.960 . S
C1300 H1287 0.961 . S
C1300 H1288 0.959 . S
C1300 C1298 1.561 . S
C1301 C1298 1.526 . S
C1301 C1302 1.396 . S
C1301 C1306 1.390 . S
C1302 C1296 1.465 . S
C1302 C1301 1.396 . S
C1302 C1303 1.399 . S
C1303 H1289 0.929 . S
C1303 C1302 1.399 . S
C1303 C1304 1.385 . S
C1304 H1290 0.931 . S
C1304 C1303 1.385 . S
C1304 C1305 1.389 . S
C1305 C1304 1.389 . S
C1305 C1306 1.387 . S
C1306 H1291 0.930 . S
C1306 C1301 1.390 . S
C1306 C1305 1.387 . S
H1307 C1319 0.930 . S
H1308 C1321 0.930 . S
H1309 C1322 0.930 . S
H1310 C1326 0.959 . S
H1311 C1326 0.959 . S
H1312 C1326 0.961 . S
H1313 C1327 0.960 . S
H1314 C1327 0.961 . S
H1315 C1327 0.959 . S
H1316 C1330 0.929 . S
H1317 C1331 0.931 . S
H1318 C1333 0.930 1_545 S
C1319 H1307 0.930 . S
C1319 C1320 1.399 . S
C1319 C1324 1.399 . S
C1320 C1319 1.399 . S
C1320 C1321 1.376 . S
C1321 H1308 0.930 . S
C1321 C1320 1.376 . S
C1321 C1322 1.388 . S
C1322 H1309 0.930 . S
C1322 C1321 1.388 . S
C1322 C1323 1.390 . S
C1323 C1322 1.390 . S
C1323 C1324 1.394 . S
C1323 C1329 1.465 . S
C1324 C1319 1.399 . S
C1324 C1323 1.394 . S
C1324 C1325 1.516 . S
C1325 C1324 1.516 . S
C1325 C1326 1.502 . S
C1325 C1327 1.561 . S
C1325 C1328 1.526 . S
C1326 H1310 0.959 . S
C1326 H1311 0.959 . S
C1326 H1312 0.961 . S
C1326 C1325 1.502 . S
C1327 H1313 0.960 . S
C1327 H1314 0.961 . S
C1327 H1315 0.959 . S
C1327 C1325 1.561 . S
C1328 C1325 1.526 . S
C1328 C1329 1.396 . S
C1328 C1333 1.390 . S
C1329 C1323 1.465 . S
C1329 C1328 1.396 . S
C1329 C1330 1.399 . S
C1330 H1316 0.929 . S
C1330 C1329 1.399 . S
C1330 C1331 1.385 . S
C1331 H1317 0.931 . S
C1331 C1330 1.385 . S
C1331 C1332 1.389 . S
C1332 C1331 1.389 . S
C1332 C1333 1.387 . S
C1333 H1318 0.930 1_565 S
C1333 C1328 1.390 . S
C1333 C1332 1.387 . S
H1334 C1346 0.930 1_545 S
H1335 C1348 0.930 . S
H1336 C1349 0.930 . S
H1337 C1353 0.959 . S
H1338 C1353 0.959 . S
H1339 C1353 0.961 . S
H1340 C1354 0.960 . S
H1341 C1354 0.961 . S
H1342 C1354 0.959 . S
H1343 C1357 0.929 . S
H1344 C1358 0.931 . S
H1345 C1360 0.930 . S
C1346 H1334 0.930 1_565 S
C1346 C1347 1.399 . S
C1346 C1351 1.399 . S
C1347 C1346 1.399 . S
C1347 C1348 1.376 . S
C1348 H1335 0.930 . S
C1348 C1347 1.376 . S
C1348 C1349 1.388 . S
C1349 H1336 0.930 . S
C1349 C1348 1.388 . S
C1349 C1350 1.390 . S
C1350 C1349 1.390 . S
C1350 C1351 1.394 . S
C1350 C1356 1.465 . S
C1351 C1346 1.399 . S
C1351 C1350 1.394 . S
C1351 C1352 1.516 . S
C1352 C1351 1.516 . S
C1352 C1353 1.502 . S
C1352 C1354 1.561 . S
C1352 C1355 1.526 . S
C1353 H1337 0.959 . S
C1353 H1338 0.959 . S
C1353 H1339 0.961 . S
C1353 C1352 1.502 . S
C1354 H1340 0.960 . S
C1354 H1341 0.961 . S
C1354 H1342 0.959 . S
C1354 C1352 1.561 . S
C1355 C1352 1.526 . S
C1355 C1356 1.396 . S
C1355 C1360 1.390 . S
C1356 C1350 1.465 . S
C1356 C1355 1.396 . S
C1356 C1357 1.399 . S
C1357 H1343 0.929 . S
C1357 C1356 1.399 . S
C1357 C1358 1.385 . S
C1358 H1344 0.931 . S
C1358 C1357 1.385 . S
C1358 C1359 1.389 . S
C1359 C1358 1.389 . S
C1359 C1360 1.387 . S
C1360 H1345 0.930 . S
C1360 C1355 1.390 . S
C1360 C1359 1.387 . S
H1361 C1373 0.930 . S
H1362 C1375 0.930 . S
H1363 C1376 0.930 . S
H1364 C1380 0.959 . S
H1365 C1380 0.959 . S
H1366 C1380 0.961 . S
H1367 C1381 0.960 . S
H1368 C1381 0.961 . S
H1369 C1381 0.959 . S
H1370 C1384 0.929 . S
H1371 C1385 0.931 . S
H1372 C1387 0.930 . S
C1373 H1361 0.930 . S
C1373 C1374 1.399 . S
C1373 C1378 1.399 . S
C1374 C1373 1.399 . S
C1374 C1375 1.376 . S
C1375 H1362 0.930 . S
C1375 C1374 1.376 . S
C1375 C1376 1.388 . S
C1376 H1363 0.930 . S
C1376 C1375 1.388 . S
C1376 C1377 1.390 . S
C1377 C1376 1.390 . S
C1377 C1378 1.394 . S
C1377 C1383 1.465 . S
C1378 C1373 1.399 . S
C1378 C1377 1.394 . S
C1378 C1379 1.516 . S
C1379 C1378 1.516 . S
C1379 C1380 1.502 . S
C1379 C1381 1.561 . S
C1379 C1382 1.526 . S
C1380 H1364 0.959 . S
C1380 H1365 0.959 . S
C1380 H1366 0.961 . S
C1380 C1379 1.502 . S
C1381 H1367 0.960 . S
C1381 H1368 0.961 . S
C1381 H1369 0.959 . S
C1381 C1379 1.561 . S
C1382 C1379 1.526 . S
C1382 C1383 1.396 . S
C1382 C1387 1.390 . S
C1383 C1377 1.465 . S
C1383 C1382 1.396 . S
C1383 C1384 1.399 . S
C1384 H1370 0.929 . S
C1384 C1383 1.399 . S
C1384 C1385 1.385 . S
C1385 H1371 0.931 . S
C1385 C1384 1.385 . S
C1385 C1386 1.389 . S
C1386 C1385 1.389 . S
C1386 C1387 1.387 . S
C1387 H1372 0.930 . S
C1387 C1382 1.390 . S
C1387 C1386 1.387 . S
H1388 C1400 0.930 . S
H1389 C1402 0.930 . S
H1390 C1403 0.930 . S
H1391 C1407 0.959 . S
H1392 C1407 0.959 . S
H1393 C1407 0.961 . S
H1394 C1408 0.960 . S
H1395 C1408 0.961 . S
H1396 C1408 0.959 . S
H1397 C1411 0.929 . S
H1398 C1412 0.931 . S
H1399 C1414 0.930 . S
C1400 H1388 0.930 . S
C1400 C1401 1.399 . S
C1400 C1405 1.399 . S
C1401 C1400 1.399 . S
C1401 C1402 1.376 . S
C1402 H1389 0.930 . S
C1402 C1401 1.376 . S
C1402 C1403 1.388 . S
C1403 H1390 0.930 . S
C1403 C1402 1.388 . S
C1403 C1404 1.390 . S
C1404 C1403 1.390 . S
C1404 C1405 1.394 . S
C1404 C1410 1.465 . S
C1405 C1400 1.399 . S
C1405 C1404 1.394 . S
C1405 C1406 1.516 . S
C1406 C1405 1.516 . S
C1406 C1407 1.502 . S
C1406 C1408 1.561 . S
C1406 C1409 1.526 . S
C1407 H1391 0.959 . S
C1407 H1392 0.959 . S
C1407 H1393 0.961 . S
C1407 C1406 1.502 . S
C1408 H1394 0.960 . S
C1408 H1395 0.961 . S
C1408 H1396 0.959 . S
C1408 C1406 1.561 . S
C1409 C1406 1.526 . S
C1409 C1410 1.396 . S
C1409 C1414 1.390 . S
C1410 C1404 1.465 . S
C1410 C1409 1.396 . S
C1410 C1411 1.399 . S
C1411 H1397 0.929 . S
C1411 C1410 1.399 . S
C1411 C1412 1.385 . S
C1412 H1398 0.931 . S
C1412 C1411 1.385 . S
C1412 C1413 1.389 . S
C1413 C1412 1.389 . S
C1413 C1414 1.387 . S
C1414 H1399 0.930 . S
C1414 C1409 1.390 . S
C1414 C1413 1.387 . S
H1415 C1427 0.930 . S
H1416 C1429 0.930 . S
H1417 C1430 0.930 . S
H1418 C1434 0.959 . S
H1419 C1434 0.959 . S
H1420 C1434 0.961 . S
H1421 C1435 0.960 . S
H1422 C1435 0.961 . S
H1423 C1435 0.959 . S
H1424 C1438 0.929 . S
H1425 C1439 0.931 . S
H1426 C1441 0.930 . S
C1427 H1415 0.930 . S
C1427 C1428 1.412 . S
C1427 C1432 1.399 . S
C1428 C1427 1.412 . S
C1428 C1429 1.374 1_545 S
C1429 H1416 0.930 . S
C1429 C1428 1.374 1_565 S
C1429 C1430 1.388 1_565 S
C1430 H1417 0.930 . S
C1430 C1429 1.388 1_545 S
C1430 C1431 1.390 . S
C1431 C1430 1.390 . S
C1431 C1432 1.394 . S
C1431 C1437 1.465 . S
C1432 C1427 1.399 . S
C1432 C1431 1.394 . S
C1432 C1433 1.516 . S
C1433 C1432 1.516 . S
C1433 C1434 1.502 . S
C1433 C1435 1.561 . S
C1433 C1436 1.526 . S
C1434 H1418 0.959 . S
C1434 H1419 0.959 . S
C1434 H1420 0.961 . S
C1434 C1433 1.502 . S
C1435 H1421 0.960 . S
C1435 H1422 0.961 . S
C1435 H1423 0.959 . S
C1435 C1433 1.561 . S
C1436 C1433 1.526 . S
C1436 C1437 1.396 . S
C1436 C1441 1.390 . S
C1437 C1431 1.465 . S
C1437 C1436 1.396 . S
C1437 C1438 1.399 . S
C1438 H1424 0.929 . S
C1438 C1437 1.399 . S
C1438 C1439 1.385 . S
C1439 H1425 0.931 . S
C1439 C1438 1.385 . S
C1439 C1440 1.389 . S
C1440 C1439 1.389 . S
C1440 C1441 1.387 . S
C1441 H1426 0.930 . S
C1441 C1436 1.390 . S
C1441 C1440 1.387 . S
H1442 C1454 0.930 . S
H1443 C1456 0.930 . S
H1444 C1457 0.930 . S
H1445 C1461 0.959 . S
H1446 C1461 0.959 . S
H1447 C1461 0.961 . S
H1448 C1462 0.960 . S
H1449 C1462 0.961 . S
H1450 C1462 0.959 . S
H1451 C1465 0.929 . S
H1452 C1466 0.931 . S
H1453 C1468 0.930 . S
C1454 H1442 0.930 . S
C1454 C1455 1.399 . S
C1454 C1459 1.399 . S
C1455 C1454 1.399 . S
C1455 C1456 1.376 . S
C1456 H1443 0.930 . S
C1456 C1455 1.376 . S
C1456 C1457 1.388 . S
C1457 H1444 0.930 . S
C1457 C1456 1.388 . S
C1457 C1458 1.390 . S
C1458 C1457 1.390 . S
C1458 C1459 1.394 . S
C1458 C1464 1.465 . S
C1459 C1454 1.399 . S
C1459 C1458 1.394 . S
C1459 C1460 1.516 . S
C1460 C1459 1.516 . S
C1460 C1461 1.502 . S
C1460 C1462 1.561 . S
C1460 C1463 1.526 . S
C1461 H1445 0.959 . S
C1461 H1446 0.959 . S
C1461 H1447 0.961 . S
C1461 C1460 1.502 . S
C1462 H1448 0.960 . S
C1462 H1449 0.961 . S
C1462 H1450 0.959 . S
C1462 C1460 1.561 . S
C1463 C1460 1.526 . S
C1463 C1464 1.396 . S
C1463 C1468 1.390 . S
C1464 C1458 1.465 . S
C1464 C1463 1.396 . S
C1464 C1465 1.399 . S
C1465 H1451 0.929 . S
C1465 C1464 1.399 . S
C1465 C1466 1.385 1_545 S
C1466 H1452 0.931 . S
C1466 C1465 1.385 1_565 S
C1466 C1467 1.389 . S
C1467 C1466 1.389 . S
C1467 C1468 1.387 1_565 S
C1468 H1453 0.930 . S
C1468 C1463 1.390 . S
C1468 C1467 1.387 1_545 S
H1469 C1481 0.930 . S
H1470 C1483 0.930 . S
H1471 C1484 0.930 . S
H1472 C1488 0.959 . S
H1473 C1488 0.959 . S
H1474 C1488 0.961 . S
H1475 C1489 0.960 . S
H1476 C1489 0.961 . S
H1477 C1489 0.959 . S
H1478 C1492 0.929 . S
H1479 C1493 0.931 . S
H1480 C1495 0.930 . S
C1481 H1469 0.930 . S
C1481 C1482 1.399 . S
C1481 C1486 1.399 . S
C1482 C1481 1.399 . S
C1482 C1483 1.376 . S
C1483 H1470 0.930 . S
C1483 C1482 1.376 . S
C1483 C1484 1.388 . S
C1484 H1471 0.930 . S
C1484 C1483 1.388 . S
C1484 C1485 1.390 . S
C1485 C1484 1.390 . S
C1485 C1486 1.394 . S
C1485 C1491 1.465 . S
C1486 C1481 1.399 . S
C1486 C1485 1.394 . S
C1486 C1487 1.516 . S
C1487 C1486 1.516 . S
C1487 C1488 1.502 . S
C1487 C1489 1.561 . S
C1487 C1490 1.526 . S
C1488 H1472 0.959 . S
C1488 H1473 0.959 . S
C1488 H1474 0.961 . S
C1488 C1487 1.502 . S
C1489 H1475 0.960 . S
C1489 H1476 0.961 . S
C1489 H1477 0.959 . S
C1489 C1487 1.561 . S
C1490 C1487 1.526 . S
C1490 C1491 1.396 . S
C1490 C1495 1.390 . S
C1491 C1485 1.465 . S
C1491 C1490 1.396 . S
C1491 C1492 1.399 . S
C1492 H1478 0.929 . S
C1492 C1491 1.399 . S
C1492 C1493 1.385 . S
C1493 H1479 0.931 . S
C1493 C1492 1.385 . S
C1493 C1494 1.389 . S
C1494 C1493 1.389 . S
C1494 C1495 1.387 . S
C1495 H1480 0.930 . S
C1495 C1490 1.390 . S
C1495 C1494 1.387 . S
H1496 C1508 0.930 . S
H1497 C1510 0.930 . S
H1498 C1511 0.930 . S
H1499 C1515 0.959 . S
H1500 C1515 0.959 . S
H1501 C1515 0.961 . S
H1502 C1516 0.960 . S
H1503 C1516 0.961 . S
H1504 C1516 0.959 . S
H1505 C1519 0.929 . S
H1506 C1520 0.931 . S
H1507 C1522 0.930 . S
C1508 H1496 0.930 . S
C1508 C1509 1.399 . S
C1508 C1513 1.399 . S
C1509 C1508 1.399 . S
C1509 C1510 1.376 . S
C1510 H1497 0.930 . S
C1510 C1509 1.376 . S
C1510 C1511 1.388 . S
C1511 H1498 0.930 . S
C1511 C1510 1.388 . S
C1511 C1512 1.390 . S
C1512 C1511 1.390 . S
C1512 C1513 1.394 . S
C1512 C1518 1.465 . S
C1513 C1508 1.399 . S
C1513 C1512 1.394 . S
C1513 C1514 1.516 . S
C1514 C1513 1.516 . S
C1514 C1515 1.502 . S
C1514 C1516 1.561 . S
C1514 C1517 1.526 . S
C1515 H1499 0.959 . S
C1515 H1500 0.959 . S
C1515 H1501 0.961 . S
C1515 C1514 1.502 . S
C1516 H1502 0.960 . S
C1516 H1503 0.961 . S
C1516 H1504 0.959 . S
C1516 C1514 1.561 . S
C1517 C1514 1.526 . S
C1517 C1518 1.396 . S
C1517 C1522 1.390 . S
C1518 C1512 1.465 . S
C1518 C1517 1.396 . S
C1518 C1519 1.399 . S
C1519 H1505 0.929 . S
C1519 C1518 1.399 . S
C1519 C1520 1.385 . S
C1520 H1506 0.931 . S
C1520 C1519 1.385 . S
C1520 C1521 1.389 . S
C1521 C1520 1.389 . S
C1521 C1522 1.387 . S
C1522 H1507 0.930 . S
C1522 C1517 1.390 . S
C1522 C1521 1.387 . S
H1523 C1535 0.930 . S
H1524 C1537 0.930 . S
H1525 C1538 0.930 . S
H1526 C1542 0.959 . S
H1527 C1542 0.959 . S
H1528 C1542 0.961 . S
H1529 C1543 0.960 . S
H1530 C1543 0.961 . S
H1531 C1543 0.959 . S
H1532 C1546 0.929 . S
H1533 C1547 0.931 . S
H1534 C1549 0.930 . S
C1535 H1523 0.930 . S
C1535 C1536 1.399 . S
C1535 C1540 1.399 . S
C1536 C1535 1.399 . S
C1536 C1537 1.376 . S
C1537 H1524 0.930 . S
C1537 C1536 1.376 . S
C1537 C1538 1.388 . S
C1538 H1525 0.930 . S
C1538 C1537 1.388 . S
C1538 C1539 1.390 . S
C1539 C1538 1.390 . S
C1539 C1540 1.394 . S
C1539 C1545 1.465 . S
C1540 C1535 1.399 . S
C1540 C1539 1.394 . S
C1540 C1541 1.516 . S
C1541 C1540 1.516 . S
C1541 C1542 1.502 . S
C1541 C1543 1.561 . S
C1541 C1544 1.526 . S
C1542 H1526 0.959 . S
C1542 H1527 0.959 . S
C1542 H1528 0.961 . S
C1542 C1541 1.502 . S
C1543 H1529 0.960 . S
C1543 H1530 0.961 . S
C1543 H1531 0.959 . S
C1543 C1541 1.561 . S
C1544 C1541 1.526 . S
C1544 C1545 1.396 . S
C1544 C1549 1.390 . S
C1545 C1539 1.465 . S
C1545 C1544 1.396 . S
C1545 C1546 1.399 . S
C1546 H1532 0.929 . S
C1546 C1545 1.399 . S
C1546 C1547 1.385 . S
C1547 H1533 0.931 . S
C1547 C1546 1.385 . S
C1547 C1548 1.389 . S
C1548 C1547 1.389 . S
C1548 C1549 1.387 . S
C1549 H1534 0.930 . S
C1549 C1544 1.390 . S
C1549 C1548 1.387 . S
H1550 C1562 0.930 . S
H1551 C1564 0.930 . S
H1552 C1565 0.930 . S
H1553 C1569 0.959 . S
H1554 C1569 0.959 . S
H1555 C1569 0.961 . S
H1556 C1570 0.960 . S
H1557 C1570 0.961 . S
H1558 C1570 0.959 . S
H1559 C1573 0.929 . S
H1560 C1574 0.931 . S
H1561 C1576 0.930 1_545 S
C1562 H1550 0.930 . S
C1562 C1563 1.399 . S
C1562 C1567 1.399 . S
C1563 C1562 1.399 . S
C1563 C1564 1.376 . S
C1564 H1551 0.930 . S
C1564 C1563 1.376 . S
C1564 C1565 1.388 . S
C1565 H1552 0.930 . S
C1565 C1564 1.388 . S
C1565 C1566 1.390 . S
C1566 C1565 1.390 . S
C1566 C1567 1.394 . S
C1566 C1572 1.465 . S
C1567 C1562 1.399 . S
C1567 C1566 1.394 . S
C1567 C1568 1.516 . S
C1568 C1567 1.516 . S
C1568 C1569 1.502 . S
C1568 C1570 1.561 . S
C1568 C1571 1.526 . S
C1569 H1553 0.959 . S
C1569 H1554 0.959 . S
C1569 H1555 0.961 . S
C1569 C1568 1.502 . S
C1570 H1556 0.960 . S
C1570 H1557 0.961 . S
C1570 H1558 0.959 . S
C1570 C1568 1.561 . S
C1571 C1568 1.526 . S
C1571 C1572 1.396 . S
C1571 C1576 1.390 . S
C1572 C1566 1.465 . S
C1572 C1571 1.396 . S
C1572 C1573 1.399 . S
C1573 H1559 0.929 . S
C1573 C1572 1.399 . S
C1573 C1574 1.385 . S
C1574 H1560 0.931 . S
C1574 C1573 1.385 . S
C1574 C1575 1.389 . S
C1575 C1574 1.389 . S
C1575 C1576 1.387 . S
C1576 H1561 0.930 1_565 S
C1576 C1571 1.390 . S
C1576 C1575 1.387 . S
H1577 C1589 0.930 . S
H1578 C1591 0.930 . S
H1579 C1592 0.930 . S
H1580 C1596 0.959 . S
H1581 C1596 0.959 . S
H1582 C1596 0.961 . S
H1583 C1597 0.960 . S
H1584 C1597 0.961 . S
H1585 C1597 0.959 . S
H1586 C1600 0.929 . S
H1587 C1601 0.931 . S
H1588 C1603 0.930 . S
C1589 H1577 0.930 . S
C1589 C1590 1.399 . S
C1589 C1594 1.399 . S
C1590 C1589 1.399 . S
C1590 C1591 1.376 . S
C1591 H1578 0.930 . S
C1591 C1590 1.376 . S
C1591 C1592 1.388 . S
C1592 H1579 0.930 . S
C1592 C1591 1.388 . S
C1592 C1593 1.390 . S
C1593 C1592 1.390 . S
C1593 C1594 1.394 . S
C1593 C1599 1.465 . S
C1594 C1589 1.399 . S
C1594 C1593 1.394 . S
C1594 C1595 1.516 . S
C1595 C1594 1.516 . S
C1595 C1596 1.502 . S
C1595 C1597 1.561 . S
C1595 C1598 1.526 . S
C1596 H1580 0.959 . S
C1596 H1581 0.959 . S
C1596 H1582 0.961 . S
C1596 C1595 1.502 . S
C1597 H1583 0.960 . S
C1597 H1584 0.961 . S
C1597 H1585 0.959 . S
C1597 C1595 1.561 . S
C1598 C1595 1.526 . S
C1598 C1599 1.396 . S
C1598 C1603 1.390 . S
C1599 C1593 1.465 . S
C1599 C1598 1.396 . S
C1599 C1600 1.399 . S
C1600 H1586 0.929 . S
C1600 C1599 1.399 . S
C1600 C1601 1.385 . S
C1601 H1587 0.931 . S
C1601 C1600 1.385 . S
C1601 C1602 1.389 . S
C1602 C1601 1.389 . S
C1602 C1603 1.387 . S
C1603 H1588 0.930 . S
C1603 C1598 1.390 . S
C1603 C1602 1.387 . S
H1604 C1616 0.930 . S
H1605 C1618 0.930 . S
H1606 C1619 0.930 . S
H1607 C1623 0.959 . S
H1608 C1623 0.959 . S
H1609 C1623 0.961 . S
H1610 C1624 0.960 . S
H1611 C1624 0.961 . S
H1612 C1624 0.959 . S
H1613 C1627 0.929 . S
H1614 C1628 0.931 . S
H1615 C1630 0.930 . S
C1616 H1604 0.930 . S
C1616 C1617 1.399 . S
C1616 C1621 1.399 . S
C1617 C1616 1.399 . S
C1617 C1618 1.376 . S
C1618 H1605 0.930 . S
C1618 C1617 1.376 . S
C1618 C1619 1.388 . S
C1619 H1606 0.930 . S
C1619 C1618 1.388 . S
C1619 C1620 1.390 . S
C1620 C1619 1.390 . S
C1620 C1621 1.394 . S
C1620 C1626 1.465 . S
C1621 C1616 1.399 . S
C1621 C1620 1.394 . S
C1621 C1622 1.516 . S
C1622 C1621 1.516 . S
C1622 C1623 1.502 . S
C1622 C1624 1.561 . S
C1622 C1625 1.526 . S
C1623 H1607 0.959 . S
C1623 H1608 0.959 . S
C1623 H1609 0.961 . S
C1623 C1622 1.502 . S
C1624 H1610 0.960 . S
C1624 H1611 0.961 . S
C1624 H1612 0.959 . S
C1624 C1622 1.561 . S
C1625 C1622 1.526 . S
C1625 C1626 1.396 . S
C1625 C1630 1.390 . S
C1626 C1620 1.465 . S
C1626 C1625 1.396 . S
C1626 C1627 1.399 . S
C1627 H1613 0.929 . S
C1627 C1626 1.399 . S
C1627 C1628 1.385 . S
C1628 H1614 0.931 . S
C1628 C1627 1.385 . S
C1628 C1629 1.389 . S
C1629 C1628 1.389 . S
C1629 C1630 1.387 . S
C1630 H1615 0.930 . S
C1630 C1625 1.390 . S
C1630 C1629 1.387 . S
H1631 C1643 0.930 . S
H1632 C1645 0.930 . S
H1633 C1646 0.930 . S
H1634 C1650 0.959 . S
H1635 C1650 0.959 . S
H1636 C1650 0.961 . S
H1637 C1651 0.960 . S
H1638 C1651 0.961 . S
H1639 C1651 0.959 . S
H1640 C1654 0.929 . S
H1641 C1655 0.931 . S
H1642 C1657 0.930 . S
C1643 H1631 0.930 . S
C1643 C1644 1.399 . S
C1643 C1648 1.399 . S
C1644 C1643 1.399 . S
C1644 C1645 1.376 1_545 S
C1645 H1632 0.930 . S
C1645 C1644 1.376 1_565 S
C1645 C1646 1.388 1_565 S
C1646 H1633 0.930 . S
C1646 C1645 1.388 1_545 S
C1646 C1647 1.390 . S
C1647 C1646 1.390 . S
C1647 C1648 1.394 . S
C1647 C1653 1.465 . S
C1648 C1643 1.399 . S
C1648 C1647 1.394 . S
C1648 C1649 1.516 . S
C1649 C1648 1.516 . S
C1649 C1650 1.502 . S
C1649 C1651 1.561 . S
C1649 C1652 1.526 . S
C1650 H1634 0.959 . S
C1650 H1635 0.959 . S
C1650 H1636 0.961 . S
C1650 C1649 1.502 . S
C1651 H1637 0.960 . S
C1651 H1638 0.961 . S
C1651 H1639 0.959 . S
C1651 C1649 1.561 . S
C1652 C1649 1.526 . S
C1652 C1653 1.396 . S
C1652 C1657 1.390 . S
C1653 C1647 1.465 . S
C1653 C1652 1.396 . S
C1653 C1654 1.399 . S
C1654 H1640 0.929 . S
C1654 C1653 1.399 . S
C1654 C1655 1.385 . S
C1655 H1641 0.931 . S
C1655 C1654 1.385 . S
C1655 C1656 1.389 . S
C1656 C1655 1.389 . S
C1656 C1657 1.387 . S
C1657 H1642 0.930 . S
C1657 C1652 1.390 . S
C1657 C1656 1.387 . S
H1658 C1670 0.930 . S
H1659 C1672 0.930 . S
H1660 C1673 0.930 . S
H1661 C1677 0.959 . S
H1662 C1677 0.959 . S
H1663 C1677 0.961 . S
H1664 C1678 0.960 . S
H1665 C1678 0.961 . S
H1666 C1678 0.959 . S
H1667 C1681 0.929 . S
H1668 C1682 0.931 . S
H1669 C1684 0.930 . S
C1670 H1658 0.930 . S
C1670 C1671 1.399 . S
C1670 C1675 1.399 . S
C1671 C1670 1.399 . S
C1671 C1672 1.376 . S
C1672 H1659 0.930 . S
C1672 C1671 1.376 . S
C1672 C1673 1.388 . S
C1673 H1660 0.930 . S
C1673 C1672 1.388 . S
C1673 C1674 1.390 . S
C1674 C1673 1.390 . S
C1674 C1675 1.394 . S
C1674 C1680 1.465 . S
C1675 C1670 1.399 . S
C1675 C1674 1.394 . S
C1675 C1676 1.516 . S
C1676 C1675 1.516 . S
C1676 C1677 1.502 . S
C1676 C1678 1.561 . S
C1676 C1679 1.526 . S
C1677 H1661 0.959 . S
C1677 H1662 0.959 . S
C1677 H1663 0.961 . S
C1677 C1676 1.502 . S
C1678 H1664 0.960 . S
C1678 H1665 0.961 . S
C1678 H1666 0.959 . S
C1678 C1676 1.561 . S
C1679 C1676 1.526 . S
C1679 C1680 1.396 . S
C1679 C1684 1.390 . S
C1680 C1674 1.465 . S
C1680 C1679 1.396 . S
C1680 C1681 1.399 . S
C1681 H1667 0.929 . S
C1681 C1680 1.399 . S
C1681 C1682 1.385 1_545 S
C1682 H1668 0.931 . S
C1682 C1681 1.385 1_565 S
C1682 C1683 1.389 1_565 S
C1683 C1682 1.389 1_545 S
C1683 C1684 1.389 . S
C1684 H1669 0.930 . S
C1684 C1679 1.390 . S
C1684 C1683 1.389 . S
H1685 C1697 0.930 . S
H1686 C1699 0.930 . S
H1687 C1700 0.930 . S
H1688 C1704 0.959 . S
H1689 C1704 0.959 . S
H1690 C1704 0.961 . S
H1691 C1705 0.960 . S
H1692 C1705 0.961 . S
H1693 C1705 0.959 . S
H1694 C1708 0.929 . S
H1695 C1709 0.931 . S
H1696 C1711 0.930 . S
C1697 H1685 0.930 . S
C1697 C1698 1.399 . S
C1697 C1702 1.399 . S
C1698 C1697 1.399 . S
C1698 C1699 1.376 . S
C1699 H1686 0.930 . S
C1699 C1698 1.376 . S
C1699 C1700 1.388 . S
C1700 H1687 0.930 . S
C1700 C1699 1.388 . S
C1700 C1701 1.390 . S
C1701 C1700 1.390 . S
C1701 C1702 1.394 . S
C1701 C1707 1.465 . S
C1702 C1697 1.399 . S
C1702 C1701 1.394 . S
C1702 C1703 1.516 . S
C1703 C1702 1.516 . S
C1703 C1704 1.502 . S
C1703 C1705 1.561 . S
C1703 C1706 1.526 . S
C1704 H1688 0.959 . S
C1704 H1689 0.959 . S
C1704 H1690 0.961 . S
C1704 C1703 1.502 . S
C1705 H1691 0.960 . S
C1705 H1692 0.961 . S
C1705 H1693 0.959 . S
C1705 C1703 1.561 . S
C1706 C1703 1.526 . S
C1706 C1707 1.396 . S
C1706 C1711 1.390 . S
C1707 C1701 1.465 . S
C1707 C1706 1.396 . S
C1707 C1708 1.399 . S
C1708 H1694 0.929 . S
C1708 C1707 1.399 . S
C1708 C1709 1.385 . S
C1709 H1695 0.931 . S
C1709 C1708 1.385 . S
C1709 C1710 1.389 . S
C1710 C1709 1.389 . S
C1710 C1711 1.387 . S
C1711 H1696 0.930 . S
C1711 C1706 1.390 . S
C1711 C1710 1.387 . S
H1712 C1724 0.930 . S
H1713 C1726 0.930 . S
H1714 C1727 0.930 . S
H1715 C1731 0.959 . S
H1716 C1731 0.959 . S
H1717 C1731 0.961 . S
H1718 C1732 0.960 . S
H1719 C1732 0.961 . S
H1720 C1732 0.959 . S
H1721 C1735 0.929 . S
H1722 C1736 0.931 . S
H1723 C1738 0.930 . S
C1724 H1712 0.930 . S
C1724 C1725 1.399 . S
C1724 C1729 1.399 . S
C1725 C1724 1.399 . S
C1725 C1726 1.376 . S
C1726 H1713 0.930 . S
C1726 C1725 1.376 . S
C1726 C1727 1.388 . S
C1727 H1714 0.930 . S
C1727 C1726 1.388 . S
C1727 C1728 1.390 . S
C1728 C1727 1.390 . S
C1728 C1729 1.394 . S
C1728 C1734 1.465 . S
C1729 C1724 1.399 . S
C1729 C1728 1.394 . S
C1729 C1730 1.516 . S
C1730 C1729 1.516 . S
C1730 C1731 1.502 . S
C1730 C1732 1.561 . S
C1730 C1733 1.526 . S
C1731 H1715 0.959 . S
C1731 H1716 0.959 . S
C1731 H1717 0.961 . S
C1731 C1730 1.502 . S
C1732 H1718 0.960 . S
C1732 H1719 0.961 . S
C1732 H1720 0.959 . S
C1732 C1730 1.561 . S
C1733 C1730 1.526 . S
C1733 C1734 1.396 . S
C1733 C1738 1.390 . S
C1734 C1728 1.465 . S
C1734 C1733 1.396 . S
C1734 C1735 1.399 . S
C1735 H1721 0.929 . S
C1735 C1734 1.399 . S
C1735 C1736 1.385 1_565 S
C1736 H1722 0.931 . S
C1736 C1735 1.385 1_545 S
C1736 C1737 1.389 1_545 S
C1737 C1736 1.389 1_565 S
C1737 C1738 1.387 . S
C1738 H1723 0.930 . S
C1738 C1733 1.390 . S
C1738 C1737 1.387 . S
H1739 C1751 0.930 . S
H1740 C1753 0.930 . S
H1741 C1754 0.930 . S
H1742 C1758 0.959 . S
H1743 C1758 0.959 . S
H1744 C1758 0.961 . S
H1745 C1759 0.960 . S
H1746 C1759 0.961 . S
H1747 C1759 0.959 . S
H1748 C1762 0.929 . S
H1749 C1763 0.931 . S
H1750 C1765 0.930 . S
C1751 H1739 0.930 . S
C1751 C1752 1.399 . S
C1751 C1756 1.399 . S
C1752 C1751 1.399 . S
C1752 C1753 1.376 . S
C1753 H1740 0.930 . S
C1753 C1752 1.376 . S
C1753 C1754 1.388 . S
C1754 H1741 0.930 . S
C1754 C1753 1.388 . S
C1754 C1755 1.390 . S
C1755 C1754 1.390 . S
C1755 C1756 1.394 . S
C1755 C1761 1.465 . S
C1756 C1751 1.399 . S
C1756 C1755 1.394 . S
C1756 C1757 1.516 . S
C1757 C1756 1.516 . S
C1757 C1758 1.502 . S
C1757 C1759 1.561 . S
C1757 C1760 1.526 . S
C1758 H1742 0.959 . S
C1758 H1743 0.959 . S
C1758 H1744 0.961 . S
C1758 C1757 1.502 . S
C1759 H1745 0.960 . S
C1759 H1746 0.961 . S
C1759 H1747 0.959 . S
C1759 C1757 1.561 . S
C1760 C1757 1.526 . S
C1760 C1761 1.396 . S
C1760 C1765 1.390 . S
C1761 C1755 1.465 . S
C1761 C1760 1.396 . S
C1761 C1762 1.399 . S
C1762 H1748 0.929 . S
C1762 C1761 1.399 . S
C1762 C1763 1.385 . S
C1763 H1749 0.931 . S
C1763 C1762 1.385 . S
C1763 C1764 1.389 . S
C1764 C1763 1.389 . S
C1764 C1765 1.387 . S
C1765 H1750 0.930 . S
C1765 C1760 1.390 . S
C1765 C1764 1.387 . S
H1766 C1778 0.930 . S
H1767 C1780 0.930 . S
H1768 C1781 0.930 . S
H1769 C1785 0.959 . S
H1770 C1785 0.959 . S
H1771 C1785 0.961 . S
H1772 C1786 0.960 . S
H1773 C1786 0.961 . S
H1774 C1786 0.959 . S
H1775 C1789 0.929 . S
H1776 C1790 0.931 . S
H1777 C1792 0.930 . S
C1778 H1766 0.930 . S
C1778 C1779 1.399 . S
C1778 C1783 1.399 . S
C1779 C1778 1.399 . S
C1779 C1780 1.376 . S
C1780 H1767 0.930 . S
C1780 C1779 1.376 . S
C1780 C1781 1.388 . S
C1781 H1768 0.930 . S
C1781 C1780 1.388 . S
C1781 C1782 1.390 . S
C1782 C1781 1.390 . S
C1782 C1783 1.394 . S
C1782 C1788 1.465 . S
C1783 C1778 1.399 . S
C1783 C1782 1.394 . S
C1783 C1784 1.516 . S
C1784 C1783 1.516 . S
C1784 C1785 1.502 . S
C1784 C1786 1.561 . S
C1784 C1787 1.526 . S
C1785 H1769 0.959 . S
C1785 H1770 0.959 . S
C1785 H1771 0.961 . S
C1785 C1784 1.502 . S
C1786 H1772 0.960 . S
C1786 H1773 0.961 . S
C1786 H1774 0.959 . S
C1786 C1784 1.561 . S
C1787 C1784 1.526 . S
C1787 C1788 1.396 . S
C1787 C1792 1.390 . S
C1788 C1782 1.465 . S
C1788 C1787 1.396 . S
C1788 C1789 1.399 . S
C1789 H1775 0.929 . S
C1789 C1788 1.399 . S
C1789 C1790 1.385 . S
C1790 H1776 0.931 . S
C1790 C1789 1.385 . S
C1790 C1791 1.389 . S
C1791 C1790 1.389 . S
C1791 C1792 1.387 . S
C1792 H1777 0.930 . S
C1792 C1787 1.390 . S
C1792 C1791 1.387 . S
H1793 C1805 0.930 . S
H1794 C1807 0.930 . S
H1795 C1808 0.930 . S
H1796 C1812 0.959 . S
H1797 C1812 0.959 . S
H1798 C1812 0.961 . S
H1799 C1813 0.960 . S
H1800 C1813 0.961 . S
H1801 C1813 0.959 . S
H1802 C1816 0.929 . S
H1803 C1817 0.931 . S
H1804 C1819 0.930 . S
C1805 H1793 0.930 . S
C1805 C1806 1.399 . S
C1805 C1810 1.399 . S
C1806 C1805 1.399 . S
C1806 C1807 1.376 1_565 S
C1807 H1794 0.930 . S
C1807 C1806 1.376 1_545 S
C1807 C1808 1.388 1_545 S
C1808 H1795 0.930 . S
C1808 C1807 1.388 1_565 S
C1808 C1809 1.390 . S
C1809 C1808 1.390 . S
C1809 C1810 1.394 . S
C1809 C1815 1.465 . S
C1810 C1805 1.399 . S
C1810 C1809 1.394 . S
C1810 C1811 1.516 . S
C1811 C1810 1.516 . S
C1811 C1812 1.502 . S
C1811 C1813 1.561 . S
C1811 C1814 1.526 . S
C1812 H1796 0.959 . S
C1812 H1797 0.959 . S
C1812 H1798 0.961 . S
C1812 C1811 1.502 . S
C1813 H1799 0.960 . S
C1813 H1800 0.961 . S
C1813 H1801 0.959 . S
C1813 C1811 1.561 . S
C1814 C1811 1.526 . S
C1814 C1815 1.396 . S
C1814 C1819 1.390 . S
C1815 C1809 1.465 . S
C1815 C1814 1.396 . S
C1815 C1816 1.399 . S
C1816 H1802 0.929 . S
C1816 C1815 1.399 . S
C1816 C1817 1.385 . S
C1817 H1803 0.931 . S
C1817 C1816 1.385 . S
C1817 C1818 1.389 . S
C1818 C1817 1.389 . S
C1818 C1819 1.387 . S
C1819 H1804 0.930 . S
C1819 C1814 1.390 . S
C1819 C1818 1.387 . S
H1820 C1832 0.930 . S
H1821 C1834 0.930 . S
H1822 C1835 0.930 . S
H1823 C1839 0.959 . S
H1824 C1839 0.959 . S
H1825 C1839 0.961 . S
H1826 C1840 0.960 . S
H1827 C1840 0.961 . S
H1828 C1840 0.959 . S
H1829 C1843 0.929 . S
H1830 C1844 0.931 . S
H1831 C1846 0.930 1_565 S
C1832 H1820 0.930 . S
C1832 C1833 1.399 . S
C1832 C1837 1.399 . S
C1833 C1832 1.399 . S
C1833 C1834 1.376 . S
C1834 H1821 0.930 . S
C1834 C1833 1.376 . S
C1834 C1835 1.388 . S
C1835 H1822 0.930 . S
C1835 C1834 1.388 . S
C1835 C1836 1.390 . S
C1836 C1835 1.390 . S
C1836 C1837 1.394 . S
C1836 C1842 1.465 . S
C1837 C1832 1.399 . S
C1837 C1836 1.394 . S
C1837 C1838 1.516 . S
C1838 C1837 1.516 . S
C1838 C1839 1.502 . S
C1838 C1840 1.561 . S
C1838 C1841 1.526 . S
C1839 H1823 0.959 . S
C1839 H1824 0.959 . S
C1839 H1825 0.961 . S
C1839 C1838 1.502 . S
C1840 H1826 0.960 . S
C1840 H1827 0.961 . S
C1840 H1828 0.959 . S
C1840 C1838 1.561 . S
C1841 C1838 1.526 . S
C1841 C1842 1.396 . S
C1841 C1846 1.390 . S
C1842 C1836 1.465 . S
C1842 C1841 1.396 . S
C1842 C1843 1.399 . S
C1843 H1829 0.929 . S
C1843 C1842 1.399 . S
C1843 C1844 1.385 . S
C1844 H1830 0.931 . S
C1844 C1843 1.385 . S
C1844 C1845 1.389 . S
C1845 C1844 1.389 . S
C1845 C1846 1.387 . S
C1846 H1831 0.930 1_545 S
C1846 C1841 1.390 . S
C1846 C1845 1.387 . S
H1847 C1859 0.930 . S
H1848 C1861 0.930 . S
H1849 C1862 0.930 . S
H1850 C1866 0.959 . S
H1851 C1866 0.959 . S
H1852 C1866 0.961 . S
H1853 C1867 0.960 . S
H1854 C1867 0.961 . S
H1855 C1867 0.959 . S
H1856 C1870 0.929 . S
H1857 C1871 0.931 . S
H1858 C1873 0.930 . S
C1859 H1847 0.930 . S
C1859 C1860 1.399 . S
C1859 C1864 1.399 . S
C1860 C1859 1.399 . S
C1860 C1861 1.376 . S
C1861 H1848 0.930 . S
C1861 C1860 1.376 . S
C1861 C1862 1.388 . S
C1862 H1849 0.930 . S
C1862 C1861 1.388 . S
C1862 C1863 1.390 . S
C1863 C1862 1.390 . S
C1863 C1864 1.394 . S
C1863 C1869 1.465 . S
C1864 C1859 1.399 . S
C1864 C1863 1.394 . S
C1864 C1865 1.516 . S
C1865 C1864 1.516 . S
C1865 C1866 1.502 . S
C1865 C1867 1.561 . S
C1865 C1868 1.526 . S
C1866 H1850 0.959 . S
C1866 H1851 0.959 . S
C1866 H1852 0.961 . S
C1866 C1865 1.502 . S
C1867 H1853 0.960 . S
C1867 H1854 0.961 . S
C1867 H1855 0.959 . S
C1867 C1865 1.561 . S
C1868 C1865 1.526 . S
C1868 C1869 1.396 . S
C1868 C1873 1.390 . S
C1869 C1863 1.465 . S
C1869 C1868 1.396 . S
C1869 C1870 1.399 . S
C1870 H1856 0.929 . S
C1870 C1869 1.399 . S
C1870 C1871 1.385 . S
C1871 H1857 0.931 . S
C1871 C1870 1.385 . S
C1871 C1872 1.389 . S
C1872 C1871 1.389 . S
C1872 C1873 1.387 . S
C1873 H1858 0.930 . S
C1873 C1868 1.390 . S
C1873 C1872 1.387 . S
H1874 C1886 0.930 . S
H1875 C1888 0.930 . S
H1876 C1889 0.930 . S
H1877 C1893 0.959 . S
H1878 C1893 0.959 . S
H1879 C1893 0.961 . S
H1880 C1894 0.960 . S
H1881 C1894 0.961 . S
H1882 C1894 0.959 . S
H1883 C1897 0.929 . S
H1884 C1898 0.931 . S
H1885 C1900 0.930 . S
C1886 H1874 0.930 . S
C1886 C1887 1.399 . S
C1886 C1891 1.399 . S
C1887 C1886 1.399 . S
C1887 C1888 1.376 . S
C1888 H1875 0.930 . S
C1888 C1887 1.376 . S
C1888 C1889 1.388 . S
C1889 H1876 0.930 . S
C1889 C1888 1.388 . S
C1889 C1890 1.390 . S
C1890 C1889 1.390 . S
C1890 C1891 1.394 . S
C1890 C1896 1.465 . S
C1891 C1886 1.399 . S
C1891 C1890 1.394 . S
C1891 C1892 1.516 . S
C1892 C1891 1.516 . S
C1892 C1893 1.502 . S
C1892 C1894 1.561 . S
C1892 C1895 1.526 . S
C1893 H1877 0.959 . S
C1893 H1878 0.959 . S
C1893 H1879 0.961 . S
C1893 C1892 1.502 . S
C1894 H1880 0.960 . S
C1894 H1881 0.961 . S
C1894 H1882 0.959 . S
C1894 C1892 1.561 . S
C1895 C1892 1.526 . S
C1895 C1896 1.396 . S
C1895 C1900 1.390 . S
C1896 C1890 1.465 . S
C1896 C1895 1.396 . S
C1896 C1897 1.399 . S
C1897 H1883 0.929 . S
C1897 C1896 1.399 . S
C1897 C1898 1.385 . S
C1898 H1884 0.931 . S
C1898 C1897 1.385 . S
C1898 C1899 1.389 . S
C1899 C1898 1.389 . S
C1899 C1900 1.387 . S
C1900 H1885 0.930 . S
C1900 C1895 1.390 . S
C1900 C1899 1.387 . S
H1901 C1913 0.930 . S
H1902 C1915 0.930 . S
H1903 C1916 0.930 . S
H1904 C1920 0.959 . S
H1905 C1920 0.959 . S
H1906 C1920 0.961 . S
H1907 C1921 0.960 . S
H1908 C1921 0.961 . S
H1909 C1921 0.959 . S
H1910 C1924 0.929 . S
H1911 C1925 0.931 . S
H1912 C1927 0.930 1_565 S
C1913 H1901 0.930 . S
C1913 C1914 1.399 . S
C1913 C1918 1.399 . S
C1914 C1913 1.399 . S
C1914 C1915 1.376 . S
C1915 H1902 0.930 . S
C1915 C1914 1.376 . S
C1915 C1916 1.388 . S
C1916 H1903 0.930 . S
C1916 C1915 1.388 . S
C1916 C1917 1.390 . S
C1917 C1916 1.390 . S
C1917 C1918 1.394 . S
C1917 C1923 1.465 . S
C1918 C1913 1.399 . S
C1918 C1917 1.394 . S
C1918 C1919 1.516 . S
C1919 C1918 1.516 . S
C1919 C1920 1.502 . S
C1919 C1921 1.561 . S
C1919 C1922 1.526 . S
C1920 H1904 0.959 . S
C1920 H1905 0.959 . S
C1920 H1906 0.961 . S
C1920 C1919 1.502 . S
C1921 H1907 0.960 . S
C1921 H1908 0.961 . S
C1921 H1909 0.959 . S
C1921 C1919 1.561 . S
C1922 C1919 1.526 . S
C1922 C1923 1.396 . S
C1922 C1927 1.390 . S
C1923 C1917 1.465 . S
C1923 C1922 1.396 . S
C1923 C1924 1.399 . S
C1924 H1910 0.929 . S
C1924 C1923 1.399 . S
C1924 C1925 1.385 . S
C1925 H1911 0.931 . S
C1925 C1924 1.385 . S
C1925 C1926 1.389 . S
C1926 C1925 1.389 . S
C1926 C1927 1.387 . S
C1927 H1912 0.930 1_545 S
C1927 C1922 1.390 . S
C1927 C1926 1.387 . S
H1928 C1940 0.930 . S
H1929 C1942 0.930 . S
H1930 C1943 0.930 . S
H1931 C1947 0.959 . S
H1932 C1947 0.959 . S
H1933 C1947 0.961 . S
H1934 C1948 0.960 . S
H1935 C1948 0.961 . S
H1936 C1948 0.959 . S
H1937 C1951 0.929 . S
H1938 C1952 0.931 . S
H1939 C1954 0.930 1_545 S
C1940 H1928 0.930 . S
C1940 C1941 1.399 . S
C1940 C1945 1.399 . S
C1941 C1940 1.399 . S
C1941 C1942 1.376 . S
C1942 H1929 0.930 . S
C1942 C1941 1.376 . S
C1942 C1943 1.388 . S
C1943 H1930 0.930 . S
C1943 C1942 1.388 . S
C1943 C1944 1.390 . S
C1944 C1943 1.390 . S
C1944 C1945 1.394 . S
C1944 C1950 1.465 . S
C1945 C1940 1.399 . S
C1945 C1944 1.394 . S
C1945 C1946 1.516 . S
C1946 C1945 1.516 . S
C1946 C1947 1.502 . S
C1946 C1948 1.561 . S
C1946 C1949 1.526 . S
C1947 H1931 0.959 . S
C1947 H1932 0.959 . S
C1947 H1933 0.961 . S
C1947 C1946 1.502 . S
C1948 H1934 0.960 . S
C1948 H1935 0.961 . S
C1948 H1936 0.959 . S
C1948 C1946 1.561 . S
C1949 C1946 1.526 . S
C1949 C1950 1.396 . S
C1949 C1954 1.390 . S
C1950 C1944 1.465 . S
C1950 C1949 1.396 . S
C1950 C1951 1.399 . S
C1951 H1937 0.929 . S
C1951 C1950 1.399 . S
C1951 C1952 1.385 . S
C1952 H1938 0.931 . S
C1952 C1951 1.385 . S
C1952 C1953 1.389 . S
C1953 C1952 1.389 . S
C1953 C1954 1.387 . S
C1954 H1939 0.930 1_565 S
C1954 C1949 1.390 . S
C1954 C1953 1.387 . S
H1955 C1967 0.930 . S
H1956 C1969 0.930 . S
H1957 C1970 0.930 . S
H1958 C1974 0.959 . S
H1959 C1974 0.959 . S
H1960 C1974 0.961 . S
H1961 C1975 0.960 . S
H1962 C1975 0.961 . S
H1963 C1975 0.959 . S
H1964 C1978 0.929 . S
H1965 C1979 0.931 . S
H1966 C1981 0.930 . S
C1967 H1955 0.930 . S
C1967 C1968 1.399 . S
C1967 C1972 1.399 . S
C1968 C1967 1.399 . S
C1968 C1969 1.376 . S
C1969 H1956 0.930 . S
C1969 C1968 1.376 . S
C1969 C1970 1.388 . S
C1970 H1957 0.930 . S
C1970 C1969 1.388 . S
C1970 C1971 1.390 . S
C1971 C1970 1.390 . S
C1971 C1972 1.394 . S
C1971 C1977 1.465 . S
C1972 C1967 1.399 . S
C1972 C1971 1.394 . S
C1972 C1973 1.516 . S
C1973 C1972 1.516 . S
C1973 C1974 1.502 . S
C1973 C1975 1.561 . S
C1973 C1976 1.526 . S
C1974 H1958 0.959 . S
C1974 H1959 0.959 . S
C1974 H1960 0.961 . S
C1974 C1973 1.502 . S
C1975 H1961 0.960 . S
C1975 H1962 0.961 . S
C1975 H1963 0.959 . S
C1975 C1973 1.561 . S
C1976 C1973 1.526 . S
C1976 C1977 1.396 . S
C1976 C1981 1.390 . S
C1977 C1971 1.465 . S
C1977 C1976 1.396 . S
C1977 C1978 1.399 . S
C1978 H1964 0.929 . S
C1978 C1977 1.399 . S
C1978 C1979 1.385 . S
C1979 H1965 0.931 . S
C1979 C1978 1.385 . S
C1979 C1980 1.389 . S
C1980 C1979 1.389 . S
C1980 C1981 1.387 . S
C1981 H1966 0.930 . S
C1981 C1976 1.390 . S
C1981 C1980 1.387 . S
H1982 C1994 0.930 . S
H1983 C1996 0.930 . S
H1984 C1997 0.930 . S
H1985 C2001 0.959 . S
H1986 C2001 0.959 . S
H1987 C2001 0.961 . S
H1988 C2002 0.960 . S
H1989 C2002 0.961 . S
H1990 C2002 0.959 . S
H1991 C2005 0.929 . S
H1992 C2006 0.931 . S
H1993 C2008 0.930 . S
C1994 H1982 0.930 . S
C1994 C1995 1.399 . S
C1994 C1999 1.399 . S
C1995 C1994 1.399 . S
C1995 C1996 1.376 . S
C1996 H1983 0.930 . S
C1996 C1995 1.376 . S
C1996 C1997 1.388 . S
C1997 H1984 0.930 . S
C1997 C1996 1.388 . S
C1997 C1998 1.390 . S
C1998 C1997 1.390 . S
C1998 C1999 1.394 . S
C1998 C2004 1.465 . S
C1999 C1994 1.399 . S
C1999 C1998 1.394 . S
C1999 C2000 1.516 . S
C2000 C1999 1.516 . S
C2000 C2001 1.502 . S
C2000 C2002 1.561 . S
C2000 C2003 1.526 . S
C2001 H1985 0.959 . S
C2001 H1986 0.959 . S
C2001 H1987 0.961 . S
C2001 C2000 1.502 . S
C2002 H1988 0.960 . S
C2002 H1989 0.961 . S
C2002 H1990 0.959 . S
C2002 C2000 1.561 . S
C2003 C2000 1.526 . S
C2003 C2004 1.396 . S
C2003 C2008 1.390 . S
C2004 C1998 1.465 . S
C2004 C2003 1.396 . S
C2004 C2005 1.399 . S
C2005 H1991 0.929 . S
C2005 C2004 1.399 . S
C2005 C2006 1.385 . S
C2006 H1992 0.931 . S
C2006 C2005 1.385 . S
C2006 C2007 1.389 . S
C2007 C2006 1.389 . S
C2007 C2008 1.387 . S
C2008 H1993 0.930 . S
C2008 C2003 1.390 . S
C2008 C2007 1.387 . S
H2009 C2021 0.930 1_545 S
H2010 C2023 0.930 . S
H2011 C2024 0.930 . S
H2012 C2028 0.959 . S
H2013 C2028 0.959 . S
H2014 C2028 0.961 . S
H2015 C2029 0.960 . S
H2016 C2029 0.961 . S
H2017 C2029 0.959 . S
H2018 C2032 0.929 . S
H2019 C2033 0.931 . S
H2020 C2035 0.930 . S
C2021 H2009 0.930 1_565 S
C2021 C2022 1.399 . S
C2021 C2026 1.399 . S
C2022 C2021 1.399 . S
C2022 C2023 1.376 . S
C2023 H2010 0.930 . S
C2023 C2022 1.376 . S
C2023 C2024 1.388 . S
C2024 H2011 0.930 . S
C2024 C2023 1.388 . S
C2024 C2025 1.390 . S
C2025 C2024 1.390 . S
C2025 C2026 1.394 . S
C2025 C2031 1.465 . S
C2026 C2021 1.399 . S
C2026 C2025 1.394 . S
C2026 C2027 1.516 . S
C2027 C2026 1.516 . S
C2027 C2028 1.502 . S
C2027 C2029 1.561 . S
C2027 C2030 1.526 . S
C2028 H2012 0.959 . S
C2028 H2013 0.959 . S
C2028 H2014 0.961 . S
C2028 C2027 1.502 . S
C2029 H2015 0.960 . S
C2029 H2016 0.961 . S
C2029 H2017 0.959 . S
C2029 C2027 1.561 . S
C2030 C2027 1.526 . S
C2030 C2031 1.396 . S
C2030 C2035 1.390 . S
C2031 C2025 1.465 . S
C2031 C2030 1.396 . S
C2031 C2032 1.399 . S
C2032 H2018 0.929 . S
C2032 C2031 1.399 . S
C2032 C2033 1.385 . S
C2033 H2019 0.931 . S
C2033 C2032 1.385 . S
C2033 C2034 1.389 . S
C2034 C2033 1.389 . S
C2034 C2035 1.387 . S
C2035 H2020 0.930 . S
C2035 C2030 1.390 . S
C2035 C2034 1.387 . S
H2036 C2048 0.930 . S
H2037 C2050 0.930 . S
H2038 C2051 0.930 . S
H2039 C2055 0.959 . S
H2040 C2055 0.959 . S
H2041 C2055 0.961 . S
H2042 C2056 0.960 . S
H2043 C2056 0.961 . S
H2044 C2056 0.959 . S
H2045 C2059 0.929 . S
H2046 C2060 0.931 . S
H2047 C2062 0.930 1_565 S
C2048 H2036 0.930 . S
C2048 C2049 1.399 . S
C2048 C2053 1.399 . S
C2049 C2048 1.399 . S
C2049 C2050 1.376 . S
C2050 H2037 0.930 . S
C2050 C2049 1.376 . S
C2050 C2051 1.388 . S
C2051 H2038 0.930 . S
C2051 C2050 1.388 . S
C2051 C2052 1.390 . S
C2052 C2051 1.390 . S
C2052 C2053 1.394 . S
C2052 C2058 1.465 . S
C2053 C2048 1.399 . S
C2053 C2052 1.394 . S
C2053 C2054 1.516 . S
C2054 C2053 1.516 . S
C2054 C2055 1.502 . S
C2054 C2056 1.561 . S
C2054 C2057 1.526 . S
C2055 H2039 0.959 . S
C2055 H2040 0.959 . S
C2055 H2041 0.961 . S
C2055 C2054 1.502 . S
C2056 H2042 0.960 . S
C2056 H2043 0.961 . S
C2056 H2044 0.959 . S
C2056 C2054 1.561 . S
C2057 C2054 1.526 . S
C2057 C2058 1.396 . S
C2057 C2062 1.390 . S
C2058 C2052 1.465 . S
C2058 C2057 1.396 . S
C2058 C2059 1.399 . S
C2059 H2045 0.929 . S
C2059 C2058 1.399 . S
C2059 C2060 1.385 . S
C2060 H2046 0.931 . S
C2060 C2059 1.385 . S
C2060 C2061 1.389 . S
C2061 C2060 1.389 . S
C2061 C2062 1.387 . S
C2062 H2047 0.930 1_545 S
C2062 C2057 1.390 . S
C2062 C2061 1.387 . S
H2063 C2075 0.930 . S
H2064 C2077 0.930 . S
H2065 C2078 0.930 . S
H2066 C2082 0.959 . S
H2067 C2082 0.959 . S
H2068 C2082 0.961 . S
H2069 C2083 0.960 . S
H2070 C2083 0.961 . S
H2071 C2083 0.959 . S
H2072 C2086 0.929 . S
H2073 C2087 0.931 . S
H2074 C2089 0.930 . S
C2075 H2063 0.930 . S
C2075 C2076 1.399 . S
C2075 C2080 1.399 . S
C2076 C2075 1.399 . S
C2076 C2077 1.376 . S
C2077 H2064 0.930 . S
C2077 C2076 1.376 . S
C2077 C2078 1.388 . S
C2078 H2065 0.930 . S
C2078 C2077 1.388 . S
C2078 C2079 1.390 . S
C2079 C2078 1.390 . S
C2079 C2080 1.394 . S
C2079 C2085 1.465 . S
C2080 C2075 1.399 . S
C2080 C2079 1.394 . S
C2080 C2081 1.516 . S
C2081 C2080 1.516 . S
C2081 C2082 1.502 . S
C2081 C2083 1.561 . S
C2081 C2084 1.526 . S
C2082 H2066 0.959 . S
C2082 H2067 0.959 . S
C2082 H2068 0.961 . S
C2082 C2081 1.502 . S
C2083 H2069 0.960 . S
C2083 H2070 0.961 . S
C2083 H2071 0.959 . S
C2083 C2081 1.561 . S
C2084 C2081 1.526 . S
C2084 C2085 1.396 . S
C2084 C2089 1.390 . S
C2085 C2079 1.465 . S
C2085 C2084 1.396 . S
C2085 C2086 1.399 . S
C2086 H2072 0.929 . S
C2086 C2085 1.399 . S
C2086 C2087 1.385 . S
C2087 H2073 0.931 . S
C2087 C2086 1.385 . S
C2087 C2088 1.389 . S
C2088 C2087 1.389 . S
C2088 C2089 1.387 . S
C2089 H2074 0.930 . S
C2089 C2084 1.390 . S
C2089 C2088 1.387 . S
H2090 C2102 0.930 . S
H2091 C2104 0.930 . S
H2092 C2105 0.930 . S
H2093 C2109 0.959 . S
H2094 C2109 0.959 . S
H2095 C2109 0.961 . S
H2096 C2110 0.960 . S
H2097 C2110 0.961 . S
H2098 C2110 0.959 . S
H2099 C2113 0.929 . S
H2100 C2114 0.931 . S
H2101 C2116 0.930 . S
C2102 H2090 0.930 . S
C2102 C2103 1.399 . S
C2102 C2107 1.399 . S
C2103 C2102 1.399 . S
C2103 C2104 1.376 . S
C2104 H2091 0.930 . S
C2104 C2103 1.376 . S
C2104 C2105 1.388 . S
C2105 H2092 0.930 . S
C2105 C2104 1.388 . S
C2105 C2106 1.390 . S
C2106 C2105 1.390 . S
C2106 C2107 1.394 . S
C2106 C2112 1.465 . S
C2107 C2102 1.399 . S
C2107 C2106 1.394 . S
C2107 C2108 1.516 . S
C2108 C2107 1.516 . S
C2108 C2109 1.502 . S
C2108 C2110 1.561 . S
C2108 C2111 1.526 . S
C2109 H2093 0.959 . S
C2109 H2094 0.959 . S
C2109 H2095 0.961 . S
C2109 C2108 1.502 . S
C2110 H2096 0.960 . S
C2110 H2097 0.961 . S
C2110 H2098 0.959 . S
C2110 C2108 1.561 . S
C2111 C2108 1.526 . S
C2111 C2112 1.396 . S
C2111 C2116 1.390 . S
C2112 C2106 1.465 . S
C2112 C2111 1.396 . S
C2112 C2113 1.399 . S
C2113 H2099 0.929 . S
C2113 C2112 1.399 . S
C2113 C2114 1.385 . S
C2114 H2100 0.931 . S
C2114 C2113 1.385 . S
C2114 C2115 1.389 . S
C2115 C2114 1.389 . S
C2115 C2116 1.387 . S
C2116 H2101 0.930 . S
C2116 C2111 1.390 . S
C2116 C2115 1.387 . S
H2117 C2129 0.930 . S
H2118 C2131 0.930 . S
H2119 C2132 0.930 . S
H2120 C2136 0.959 . S
H2121 C2136 0.959 . S
H2122 C2136 0.961 . S
H2123 C2137 0.960 . S
H2124 C2137 0.961 . S
H2125 C2137 0.959 . S
H2126 C2140 0.929 . S
H2127 C2141 0.931 . S
H2128 C2143 0.930 . S
C2129 H2117 0.930 . S
C2129 C2130 1.399 . S
C2129 C2134 1.399 . S
C2130 C2129 1.399 . S
C2130 C2131 1.376 . S
C2131 H2118 0.930 . S
C2131 C2130 1.376 . S
C2131 C2132 1.388 . S
C2132 H2119 0.930 . S
C2132 C2131 1.388 . S
C2132 C2133 1.390 . S
C2133 C2132 1.390 . S
C2133 C2134 1.394 . S
C2133 C2139 1.465 . S
C2134 C2129 1.399 . S
C2134 C2133 1.394 . S
C2134 C2135 1.516 . S
C2135 C2134 1.516 . S
C2135 C2136 1.502 . S
C2135 C2137 1.561 . S
C2135 C2138 1.526 . S
C2136 H2120 0.959 . S
C2136 H2121 0.959 . S
C2136 H2122 0.961 . S
C2136 C2135 1.502 . S
C2137 H2123 0.960 . S
C2137 H2124 0.961 . S
C2137 H2125 0.959 . S
C2137 C2135 1.561 . S
C2138 C2135 1.526 . S
C2138 C2139 1.396 . S
C2138 C2143 1.390 . S
C2139 C2133 1.465 . S
C2139 C2138 1.396 . S
C2139 C2140 1.399 . S
C2140 H2126 0.929 . S
C2140 C2139 1.399 . S
C2140 C2141 1.385 . S
C2141 H2127 0.931 . S
C2141 C2140 1.385 . S
C2141 C2142 1.389 . S
C2142 C2141 1.389 . S
C2142 C2143 1.387 . S
C2143 H2128 0.930 . S
C2143 C2138 1.390 . S
C2143 C2142 1.387 . S
C429 C5 1.440 . S
C441 C18 1.454 . S
C456 C44 1.453 . S
C468 C31 1.429 . S
C483 C57 1.446 . S
C495 C70 1.438 . S
C510 C83 1.454 . S
C522 C96 1.453 . S
C537 C109 1.444 . S
C549 C122 1.453 . S
C564 C135 1.443 . S
C576 C148 1.454 . S
C591 C161 1.386 . S
C603 C174 1.394 . S
C618 C187 1.452 . S
C630 C200 1.446 . S
C645 C226 1.454 . S
C657 C213 1.438 . S
C672 C252 1.421 . S
C684 C239 1.449 . S
C699 C278 1.403 . S
C711 C265 1.415 . S
C726 C304 1.385 . S
C738 C291 1.393 . S
C753 C330 1.433 . S
C765 C317 1.453 . S
C780 C356 1.436 . S
C792 C343 1.454 . S
C807 C382 1.382 . S
C819 C369 1.383 . S
C834 C408 1.387 . S
C846 C395 1.395 . S
C861 C0 1.370 . S
C873 C156 1.347 . S
C888 C13 1.347 . S
C900 C273 1.370 . S
C915 C26 1.370 . S
C927 C78 1.348 . S
C942 C39 1.346 . S
C954 C403 1.370 . S
C969 C52 1.347 . S
C981 C104 1.366 . S
C996 C221 1.368 . S
C1008 C65 1.351 . S
C1023 C351 1.367 . S
C1035 C91 1.353 . S
C1050 C117 1.348 . S
C1062 C377 1.365 . S
C1077 C130 1.367 . S
C1089 C182 1.352 . S
C1104 C143 1.346 . S
C1116 C299 1.369 . S
C1131 C169 1.349 . S
C1143 C325 1.369 . S
C1158 C195 1.349 . S
C1170 C247 1.364 . S
C1185 C364 1.350 . S
C1197 C208 1.363 . S
C1212 C286 1.364 . S
C1224 C234 1.355 . S
C1239 C260 1.354 . S
C1251 C312 1.358 . S
C1266 C390 1.363 . S
C1278 C338 1.350 . S
C1293 C138 0.955 . S
C1305 C8 0.929 . S
C1320 C151 0.975 . S
C1332 C21 0.951 1_565 S
C1347 C34 0.914 1_565 S
C1359 C112 0.940 . S
C1374 C125 0.903 . S
C1386 C47 0.928 . S
C1401 C60 0.897 . S
C1413 C190 0.905 . S
C1428 C73 0.892 1_545 S
C1440 C203 0.910 . S
C1455 C164 0.971 . S
C1467 C86 0.962 . S
C1482 C177 0.908 . S
C1494 C99 0.917 . S
C1509 C216 0.902 . S
C1521 C346 0.927 . S
C1536 C359 0.999 . S
C1548 C229 0.993 1_565 S
C1563 C320 0.988 . S
C1575 C242 0.969 1_565 S
C1590 C255 0.991 . S
C1602 C333 0.972 . S
C1617 C398 0.919 . S
C1629 C268 0.929 . S
C1644 C281 0.893 1_545 S
C1656 C411 0.900 . S
C1671 C372 0.925 . S
C1683 C294 0.914 1_545 S
C1698 C385 0.889 . S
C1710 C307 0.896 . S
C1725 C140 1.486 . S
C1737 C10 1.448 1_565 S
C1752 C153 1.440 . S
C1764 C23 1.465 . S
C1779 C114 1.491 . S
C1791 C36 1.429 . S
C1806 C49 1.428 1_565 S
C1818 C127 1.484 . S
C1833 C192 1.458 . S
C1845 C62 1.490 1_545 S
C1860 C205 1.492 . S
C1872 C75 1.451 . S
C1887 C166 1.446 . S
C1899 C88 1.492 . S
C1914 C179 1.441 . S
C1926 C101 1.492 1_545 S
C1941 C348 1.428 . S
C1953 C218 1.491 1_565 S
C1968 C361 1.459 . S
C1980 C231 1.476 . S
C1995 C322 1.490 . S
C2007 C244 1.439 . S
C2022 C257 1.489 1_565 S
C2034 C335 1.442 . S
C2049 C400 1.431 . S
C2061 C270 1.487 1_545 S
C2076 C283 1.491 . S
C2088 C413 1.454 . S
C2103 C374 1.459 . S
C2115 C296 1.432 . S
C2130 C309 1.451 1_545 S
C2142 C387 1.436 . S
