# Generated by pormake.
# Topology ulj, (4)-cn, num edge types: 1
# Building blocks:
#     Node 0, Type 0, BuildingBlock: QUQFOY_clean_sbu_1, # of connection points: 4
#     Node 1, Type 0, BuildingBlock: QUQFOY_clean_sbu_1, # of connection points: 4
#     Node 2, Type 0, BuildingBlock: QUQFOY_clean_sbu_1, # of connection points: 4
#     Node 3, Type 0, BuildingBlock: QUQFOY_clean_sbu_1, # of connection points: 4
#     Node 4, Type 0, BuildingBlock: QUQFOY_clean_sbu_1, # of connection points: 4
#     Node 5, Type 0, BuildingBlock: QUQFOY_clean_sbu_1, # of connection points: 4
#     Node 6, Type 0, BuildingBlock: QUQFOY_clean_sbu_1, # of connection points: 4
#     Node 7, Type 0, BuildingBlock: QUQFOY_clean_sbu_1, # of connection points: 4
#     Node 8, Type 0, BuildingBlock: QUQFOY_clean_sbu_1, # of connection points: 4
#     Node 9, Type 0, BuildingBlock: QUQFOY_clean_sbu_1, # of connection points: 4
#     Node 10, Type 0, BuildingBlock: QUQFOY_clean_sbu_1, # of connection points: 4
#     Node 11, Type 0, BuildingBlock: QUQFOY_clean_sbu_1, # of connection points: 4
#     Node 12, Type 0, BuildingBlock: QUQFOY_clean_sbu_1, # of connection points: 4
#     Node 13, Type 0, BuildingBlock: QUQFOY_clean_sbu_1, # of connection points: 4
#     Node 14, Type 0, BuildingBlock: QUQFOY_clean_sbu_1, # of connection points: 4
#     Node 15, Type 0, BuildingBlock: QUQFOY_clean_sbu_1, # of connection points: 4
#     Node 16, Type 0, BuildingBlock: QUQFOY_clean_sbu_1, # of connection points: 4
#     Node 17, Type 0, BuildingBlock: QUQFOY_clean_sbu_1, # of connection points: 4
#     Node 18, Type 0, BuildingBlock: QUQFOY_clean_sbu_1, # of connection points: 4
#     Node 19, Type 0, BuildingBlock: QUQFOY_clean_sbu_1, # of connection points: 4
#     Node 20, Type 0, BuildingBlock: QUQFOY_clean_sbu_1, # of connection points: 4
#     Node 21, Type 0, BuildingBlock: QUQFOY_clean_sbu_1, # of connection points: 4
#     Node 22, Type 0, BuildingBlock: QUQFOY_clean_sbu_1, # of connection points: 4
#     Node 23, Type 0, BuildingBlock: QUQFOY_clean_sbu_1, # of connection points: 4
#     Node 24, Type 0, BuildingBlock: QUQFOY_clean_sbu_1, # of connection points: 4
#     Node 25, Type 0, BuildingBlock: QUQFOY_clean_sbu_1, # of connection points: 4
#     Node 26, Type 0, BuildingBlock: QUQFOY_clean_sbu_1, # of connection points: 4
#     Node 27, Type 0, BuildingBlock: QUQFOY_clean_sbu_1, # of connection points: 4
#     Node 28, Type 0, BuildingBlock: QUQFOY_clean_sbu_1, # of connection points: 4
#     Node 29, Type 0, BuildingBlock: QUQFOY_clean_sbu_1, # of connection points: 4
#     Node 30, Type 0, BuildingBlock: QUQFOY_clean_sbu_1, # of connection points: 4
#     Node 31, Type 0, BuildingBlock: QUQFOY_clean_sbu_1, # of connection points: 4
#     Node 32, Type 0, BuildingBlock: QUQFOY_clean_sbu_1, # of connection points: 4
#     Node 33, Type 0, BuildingBlock: QUQFOY_clean_sbu_1, # of connection points: 4
#     Node 34, Type 0, BuildingBlock: QUQFOY_clean_sbu_1, # of connection points: 4
#     Node 35, Type 0, BuildingBlock: QUQFOY_clean_sbu_1, # of connection points: 4
#     Node 36, Type 0, BuildingBlock: QUQFOY_clean_sbu_1, # of connection points: 4
#     Node 37, Type 0, BuildingBlock: QUQFOY_clean_sbu_1, # of connection points: 4
#     Node 38, Type 0, BuildingBlock: QUQFOY_clean_sbu_1, # of connection points: 4
#     Node 39, Type 0, BuildingBlock: QUQFOY_clean_sbu_1, # of connection points: 4
#     Node 40, Type 0, BuildingBlock: QUQFOY_clean_sbu_1, # of connection points: 4
#     Node 41, Type 0, BuildingBlock: QUQFOY_clean_sbu_1, # of connection points: 4
#     Node 42, Type 0, BuildingBlock: QUQFOY_clean_sbu_1, # of connection points: 4
#     Node 43, Type 0, BuildingBlock: QUQFOY_clean_sbu_1, # of connection points: 4
#     Node 44, Type 0, BuildingBlock: QUQFOY_clean_sbu_1, # of connection points: 4
#     Node 45, Type 0, BuildingBlock: QUQFOY_clean_sbu_1, # of connection points: 4
#     Node 46, Type 0, BuildingBlock: QUQFOY_clean_sbu_1, # of connection points: 4
#     Node 47, Type 0, BuildingBlock: QUQFOY_clean_sbu_1, # of connection points: 4
#     Edge 48, Type (0, 0), None
#     Edge 49, Type (0, 0), None
#     Edge 50, Type (0, 0), None
#     Edge 51, Type (0, 0), None
#     Edge 52, Type (0, 0), None
#     Edge 53, Type (0, 0), None
#     Edge 54, Type (0, 0), None
#     Edge 55, Type (0, 0), None
#     Edge 56, Type (0, 0), None
#     Edge 57, Type (0, 0), None
#     Edge 58, Type (0, 0), None
#     Edge 59, Type (0, 0), None
#     Edge 60, Type (0, 0), None
#     Edge 61, Type (0, 0), None
#     Edge 62, Type (0, 0), None
#     Edge 63, Type (0, 0), None
#     Edge 64, Type (0, 0), None
#     Edge 65, Type (0, 0), None
#     Edge 66, Type (0, 0), None
#     Edge 67, Type (0, 0), None
#     Edge 68, Type (0, 0), None
#     Edge 69, Type (0, 0), None
#     Edge 70, Type (0, 0), None
#     Edge 71, Type (0, 0), None
#     Edge 72, Type (0, 0), None
#     Edge 73, Type (0, 0), None
#     Edge 74, Type (0, 0), None
#     Edge 75, Type (0, 0), None
#     Edge 76, Type (0, 0), None
#     Edge 77, Type (0, 0), None
#     Edge 78, Type (0, 0), None
#     Edge 79, Type (0, 0), None
#     Edge 80, Type (0, 0), None
#     Edge 81, Type (0, 0), None
#     Edge 82, Type (0, 0), None
#     Edge 83, Type (0, 0), None
#     Edge 84, Type (0, 0), None
#     Edge 85, Type (0, 0), None
#     Edge 86, Type (0, 0), None
#     Edge 87, Type (0, 0), None
#     Edge 88, Type (0, 0), None
#     Edge 89, Type (0, 0), None
#     Edge 90, Type (0, 0), None
#     Edge 91, Type (0, 0), None
#     Edge 92, Type (0, 0), None
#     Edge 93, Type (0, 0), None
#     Edge 94, Type (0, 0), None
#     Edge 95, Type (0, 0), None
#     Edge 96, Type (0, 0), None
#     Edge 97, Type (0, 0), None
#     Edge 98, Type (0, 0), None
#     Edge 99, Type (0, 0), None
#     Edge 100, Type (0, 0), None
#     Edge 101, Type (0, 0), None
#     Edge 102, Type (0, 0), None
#     Edge 103, Type (0, 0), None
#     Edge 104, Type (0, 0), None
#     Edge 105, Type (0, 0), None
#     Edge 106, Type (0, 0), None
#     Edge 107, Type (0, 0), None
#     Edge 108, Type (0, 0), None
#     Edge 109, Type (0, 0), None
#     Edge 110, Type (0, 0), None
#     Edge 111, Type (0, 0), None
#     Edge 112, Type (0, 0), None
#     Edge 113, Type (0, 0), None
#     Edge 114, Type (0, 0), None
#     Edge 115, Type (0, 0), None
#     Edge 116, Type (0, 0), None
#     Edge 117, Type (0, 0), None
#     Edge 118, Type (0, 0), None
#     Edge 119, Type (0, 0), None
#     Edge 120, Type (0, 0), None
#     Edge 121, Type (0, 0), None
#     Edge 122, Type (0, 0), None
#     Edge 123, Type (0, 0), None
#     Edge 124, Type (0, 0), None
#     Edge 125, Type (0, 0), None
#     Edge 126, Type (0, 0), None
#     Edge 127, Type (0, 0), None
#     Edge 128, Type (0, 0), None
#     Edge 129, Type (0, 0), None
#     Edge 130, Type (0, 0), None
#     Edge 131, Type (0, 0), None
#     Edge 132, Type (0, 0), None
#     Edge 133, Type (0, 0), None
#     Edge 134, Type (0, 0), None
#     Edge 135, Type (0, 0), None
#     Edge 136, Type (0, 0), None
#     Edge 137, Type (0, 0), None
#     Edge 138, Type (0, 0), None
#     Edge 139, Type (0, 0), None
#     Edge 140, Type (0, 0), None
#     Edge 141, Type (0, 0), None
#     Edge 142, Type (0, 0), None
#     Edge 143, Type (0, 0), None
# Relax obj value: 0.236
# Max RMSD: 0.291
# Mean RMSD: 0.263
data_MOF--net-ulj--node1-QUQFOY_clean_sbu_1--edge1-none
_symmetry_space_group_name_H-M    P1
_symmetry_Int_Tables_number       1
_symmetry_cell_setting            triclinic
loop_
_symmetry_equiv_pos_as_xyz
'x, y, z'
_cell_length_a     28.116759
_cell_length_b     29.122857
_cell_length_c     30.054831
_cell_angle_alpha  90.000095
_cell_angle_beta   90.000011
_cell_angle_gamma 89.999929
loop_
_atom_site_label
_atom_site_type_symbol
_atom_site_fract_x
_atom_site_fract_y
_atom_site_fract_z
_atom_type_partial_charge
O0 O 0.0674 0.1561 0.39676 0.0
Cd1 Cd 0.12631 0.1956 0.3844 0.0
Cd2 Cd 0.09143 0.18431 0.29832 0.0
O3 O 0.03018 0.16432 0.33231 0.0
O4 O 0.13985 0.23012 0.44179 0.0
O5 O 0.11353 0.26262 0.37997 0.0
C6 C 0.12491 0.26631 0.42126 0.0
C7 C 0.10653 0.24963 0.25476 0.0
C8 C 0.03076 0.15067 0.37264 0.0
C9 C 0.18355 0.14162 0.31662 0.0
O10 O 0.14567 0.13716 0.29404 0.0
O11 O 0.18457 0.16754 0.35093 0.0
O12 O 0.08451 0.21467 0.23803 0.0
O13 O 0.11567 0.24897 0.29672 0.0
O14 O 0.37193 0.6807 0.92232 0.0
Cd15 Cd 0.41479 0.62393 0.9298 0.0
Cd16 Cd 0.41705 0.65636 1.01349 0.0
O17 O 0.40076 0.71735 0.98074 0.0
O18 O 0.45194 0.61764 0.87272 0.0
O19 O 0.48199 0.64234 0.93672 0.0
C20 C 0.48708 0.63517 0.89464 0.0
C21 C 0.47798 0.64367 0.06565 0.0
C22 C 0.37778 0.71764 0.94418 0.0
C23 C 0.36701 0.56898 0.99867 0.0
O24 O 0.36447 0.60749 1.01829 0.0
O25 O 0.39192 0.56495 0.96348 0.0
O26 O 0.43943 0.66508 0.07641 0.0
O27 O 0.48389 0.63281 1.02443 0.0
O28 O 0.92604 0.3714 0.39676 0.0
Cd29 Cd 0.86713 0.3319 0.3844 0.0
Cd30 Cd 0.90201 0.34318 0.29832 0.0
O31 O 0.96326 0.36317 0.3323 0.0
O32 O 0.85359 0.29738 0.44179 0.0
O33 O 0.87991 0.26487 0.37997 0.0
C34 C 0.86852 0.26118 0.42126 0.0
C35 C 0.88691 0.27786 0.25476 0.0
C36 C 0.96268 0.37682 0.37264 0.0
C37 C 0.80989 0.38587 0.31662 0.0
O38 O 0.84776 0.39034 0.29404 0.0
O39 O 0.80887 0.35995 0.35093 0.0
O40 O 0.90893 0.31282 0.23803 0.0
O41 O 0.87777 0.27852 0.29671 0.0
O42 O 0.6215 0.84679 0.92232 0.0
Cd43 Cd 0.57865 0.90356 0.9298 0.0
Cd44 Cd 0.57639 0.87113 1.01349 0.0
O45 O 0.59268 0.81014 0.98074 0.0
O46 O 0.5415 0.90985 0.87272 0.0
O47 O 0.51144 0.88515 0.93672 0.0
C48 C 0.50636 0.89232 0.89463 0.0
C49 C 0.51546 0.88382 0.06565 0.0
C50 C 0.61565 0.80985 0.94418 0.0
C51 C 0.62642 0.95851 0.99867 0.0
O52 O 0.62896 0.92 1.01829 0.0
O53 O 0.60151 0.96254 0.96348 0.0
O54 O 0.554 0.86241 0.07641 0.0
O55 O 0.50954 0.89468 1.02443 0.0
O56 O 0.06739 0.8714 0.17463 0.0
Cd57 Cd 0.1263 0.83189 0.187 0.0
Cd58 Cd 0.09142 0.84318 0.27307 0.0
O59 O 0.03018 0.86318 0.23909 0.0
O60 O 0.13984 0.79737 0.1296 0.0
O61 O 0.11352 0.76487 0.19142 0.0
C62 C 0.12491 0.76118 0.15013 0.0
C63 C 0.10653 0.77786 0.31663 0.0
C64 C 0.03075 0.87682 0.19875 0.0
C65 C 0.18355 0.88587 0.25477 0.0
O66 O 0.14567 0.89034 0.27735 0.0
O67 O 0.18457 0.85995 0.22046 0.0
O68 O 0.08451 0.81282 0.33337 0.0
O69 O 0.11566 0.77852 0.27468 0.0
O70 O 0.12152 0.6807 0.14908 0.0
Cd71 Cd 0.07866 0.62394 0.1416 0.0
Cd72 Cd 0.07638 0.65637 0.05791 0.0
O73 O 0.09268 0.71736 0.09066 0.0
O74 O 0.0415 0.61765 0.19868 0.0
O75 O 0.01146 0.64235 0.13468 0.0
C76 C 0.00637 0.63518 0.17676 0.0
C77 C 0.01545 0.64368 1.00574 0.0
C78 C 0.11567 0.71764 0.12721 0.0
C79 C 0.12643 0.56899 0.07272 0.0
O80 O 0.12896 0.6075 0.0531 0.0
O81 O 0.10152 0.56495 0.10792 0.0
O82 O 0.054 0.6651 0.99499 0.0
O83 O 0.00953 0.63282 0.04697 0.0
O84 O 0.92603 0.6561 0.17463 0.0
Cd85 Cd 0.86712 0.6956 0.18699 0.0
Cd86 Cd 0.902 0.68431 0.27307 0.0
O87 O 0.96325 0.66432 0.23909 0.0
O88 O 0.85358 0.73013 0.1296 0.0
O89 O 0.8799 0.76263 0.19142 0.0
C90 C 0.86852 0.76632 0.15013 0.0
C91 C 0.8869 0.74963 0.31663 0.0
C92 C 0.96267 0.65066 0.19875 0.0
C93 C 0.80988 0.64163 0.25477 0.0
O94 O 0.84775 0.63716 0.27735 0.0
O95 O 0.80885 0.66754 0.22046 0.0
O96 O 0.90892 0.71467 0.33336 0.0
O97 O 0.87777 0.74898 0.27468 0.0
O98 O 0.8719 0.8468 0.14908 0.0
Cd99 Cd 0.91476 0.90356 0.14161 0.0
Cd100 Cd 0.91705 0.87113 0.05792 0.0
O101 O 0.90075 0.81014 0.09066 0.0
O102 O 0.95192 0.90985 0.19869 0.0
O103 O 0.98196 0.88515 0.13468 0.0
C104 C 0.98705 0.89231 0.17677 0.0
C105 C 0.97798 0.88382 1.00575 0.0
C106 C 0.87776 0.80986 0.12721 0.0
C107 C 0.867 0.95851 0.07272 0.0
O108 O 0.86447 0.92 0.0531 0.0
O109 O 0.8919 0.96255 0.10792 0.0
O110 O 0.93943 0.8624 0.99499 0.0
O111 O 0.98389 0.89468 0.04697 0.0
O112 O 0.35102 0.07164 0.29421 0.0
Cd113 Cd 0.29717 0.07149 0.24647 0.0
Cd114 Cd 0.31252 0.15259 0.25572 0.0
O115 O 0.38076 0.13842 0.27445 0.0
O116 O 0.2951 1.01058 0.21611 0.0
O117 O 0.32614 0.07297 0.18538 0.0
C118 C 0.3191 0.02914 0.18416 0.0
C119 C 0.28253 0.2028 0.20335 0.0
C120 C 0.38422 0.10136 0.29639 0.0
C121 C 0.22847 0.12499 0.29769 0.0
O122 O 0.26597 0.14667 0.30731 0.0
O123 O 0.22962 0.09606 0.26583 0.0
O124 O 0.30585 0.21697 0.23773 0.0
O125 O 0.28081 0.15923 0.1955 0.0
O126 O 0.32221 0.39452 0.13562 0.0
Cd127 Cd 0.38114 0.3929 0.09484 0.0
Cd128 Cd 0.34044 0.47196 0.07719 0.0
O129 O 0.28069 0.4317 0.08585 0.0
O130 O 0.38928 0.32697 0.07645 0.0
O131 O 0.36708 0.38311 1.03083 0.0
C132 C 0.37381 0.33976 0.03788 0.0
C133 C 0.34984 0.52865 1.02332 0.0
C134 C 0.28212 0.4049 0.11909 0.0
C135 C 0.42631 0.46897 0.13462 0.0
O136 O 0.38405 0.48409 0.13152 0.0
O137 O 0.43835 0.43286 0.11367 0.0
O138 O 0.32255 0.53464 0.05736 0.0
O139 O 0.36854 0.48856 1.01741 0.0
O140 O 0.64242 0.45585 0.29422 0.0
Cd141 Cd 0.69627 0.45601 0.24647 0.0
Cd142 Cd 0.68091 0.3749 0.25572 0.0
O143 O 0.61267 0.38907 0.27445 0.0
O144 O 0.69834 0.51691 0.21611 0.0
O145 O 0.6673 0.45452 0.18539 0.0
C146 C 0.67433 0.49836 0.18416 0.0
C147 C 0.71091 0.32469 0.20336 0.0
C148 C 0.60922 0.42613 0.29639 0.0
C149 C 0.76496 0.40251 0.29769 0.0
O150 O 0.72747 0.38082 0.30731 0.0
O151 O 0.76382 0.43144 0.26583 0.0
O152 O 0.68758 0.31052 0.23774 0.0
O153 O 0.71263 0.36826 0.19551 0.0
O154 O 0.67122 0.13297 0.13562 0.0
Cd155 Cd 0.6123 0.1346 0.09484 0.0
Cd156 Cd 0.653 0.05553 0.07719 0.0
O157 O 0.71274 0.09579 0.08585 0.0
O158 O 0.60415 0.20052 0.07645 0.0
O159 O 0.62635 0.14439 1.03082 0.0
C160 C 0.61962 0.18774 0.03788 0.0
C161 C 0.6436 0.99884 1.02332 0.0
C162 C 0.71131 0.1226 0.11909 0.0
C163 C 0.56712 0.05853 0.13462 0.0
O164 O 0.60938 0.0434 0.13152 0.0
O165 O 0.55508 0.09463 0.11367 0.0
O166 O 0.67088 0.99285 0.05736 0.0
O167 O 0.6249 0.03893 1.01741 0.0
O168 O 0.35102 0.95585 0.27717 0.0
Cd169 Cd 0.29717 0.95601 0.32492 0.0
Cd170 Cd 0.31253 0.8749 0.31566 0.0
O171 O 0.38077 0.88907 0.29693 0.0
O172 O 0.2951 0.01691 0.35527 0.0
O173 O 0.32614 0.95452 0.386 0.0
C174 C 0.3191 0.99836 0.38723 0.0
C175 C 0.28253 0.82469 0.36803 0.0
C176 C 0.38422 0.92614 0.27499 0.0
C177 C 0.22847 0.90251 0.2737 0.0
O178 O 0.26597 0.88083 0.26407 0.0
O179 O 0.22962 0.93144 0.30556 0.0
O180 O 0.30586 0.81052 0.33364 0.0
O181 O 0.28081 0.86826 0.37588 0.0
O182 O 0.17123 0.39454 0.93576 0.0
Cd183 Cd 0.11231 0.39291 0.97654 0.0
Cd184 Cd 0.15301 0.47197 0.9942 0.0
O185 O 0.21275 0.43171 0.98554 0.0
O186 O 0.10415 0.32699 0.99493 0.0
O187 O 0.12636 0.38311 0.04056 0.0
C188 C 0.11963 0.33977 0.0335 0.0
C189 C 0.1436 0.52865 0.04807 0.0
C190 C 0.21132 0.40491 0.95229 0.0
C191 C 0.06714 0.46899 0.93677 0.0
O192 O 0.10939 0.4841 0.93987 0.0
O193 O 0.05509 0.43288 0.95772 0.0
O194 O 0.17089 0.53465 1.01404 0.0
O195 O 0.1249 0.48857 0.05398 0.0
O196 O 0.64241 0.57164 0.27718 0.0
Cd197 Cd 0.69626 0.57149 0.32492 0.0
Cd198 Cd 0.6809 0.65259 0.31566 0.0
O199 O 0.61266 0.63842 0.29694 0.0
O200 O 0.69833 0.51058 0.35528 0.0
O201 O 0.66729 0.57297 0.386 0.0
C202 C 0.67433 0.52914 0.38723 0.0
C203 C 0.71089 0.7028 0.36803 0.0
C204 C 0.60921 0.60135 0.275 0.0
C205 C 0.76495 0.62499 0.2737 0.0
O206 O 0.72746 0.64667 0.26407 0.0
O207 O 0.76381 0.59606 0.30556 0.0
O208 O 0.68757 0.71697 0.33365 0.0
O209 O 0.71262 0.65923 0.37588 0.0
O210 O 0.8222 0.13296 0.93576 0.0
Cd211 Cd 0.88112 0.13459 0.97654 0.0
Cd212 Cd 0.84042 0.05552 0.9942 0.0
O213 O 0.78068 0.09578 0.98554 0.0
O214 O 0.88928 0.20051 0.99493 0.0
O215 O 0.86707 0.14438 0.04056 0.0
C216 C 0.8738 0.18773 0.0335 0.0
C217 C 0.84982 0.99884 0.04807 0.0
C218 C 0.78211 0.12259 0.95229 0.0
C219 C 0.92629 0.05851 0.93677 0.0
O220 O 0.88404 0.04339 0.93987 0.0
O221 O 0.93833 0.09462 0.95772 0.0
O222 O 0.82254 0.99285 1.01404 0.0
O223 O 0.86853 0.03893 0.05398 0.0
O224 O 0.25158 0.33207 0.10822 0.0
Cd225 Cd 0.2013 0.28236 0.11058 0.0
Cd226 Cd 0.19301 0.31506 0.18503 0.0
O227 O 0.21228 0.37663 0.15487 0.0
O228 O 0.17196 0.27772 0.05022 0.0
O229 O 0.13936 0.31552 0.10683 0.0
C230 C 0.14058 0.3067 0.06473 0.0
C231 C 0.13109 0.2831 0.22599 0.0
C232 C 0.24461 0.37127 0.12549 0.0
C233 C 0.25368 0.23611 0.17865 0.0
O234 O 0.25208 0.27637 0.19441 0.0
O235 O 0.22562 0.22508 0.14692 0.0
O236 O 0.15869 0.31388 0.24339 0.0
O237 O 0.13438 0.27546 0.18377 0.0
O238 O 0.2516 0.6954 0.46314 0.0
Cd239 Cd 0.20132 0.74511 0.4608 0.0
Cd240 Cd 0.19301 0.71243 0.38635 0.0
O241 O 0.21228 0.65086 0.41651 0.0
O242 O 0.17199 0.74975 0.52116 0.0
O243 O 0.13938 0.71197 0.46456 0.0
C244 C 0.1406 0.72077 0.50667 0.0
C245 C 0.13108 0.74439 0.3454 0.0
C246 C 0.24464 0.65621 0.44587 0.0
C247 C 0.25369 0.79138 0.39273 0.0
O248 O 0.25208 0.75112 0.37697 0.0
O249 O 0.22563 0.8024 0.42446 0.0
O250 O 0.15869 0.71362 0.328 0.0
O251 O 0.13438 0.75202 0.38762 0.0
O252 O 0.90978 0.62366 0.86701 0.0
Cd253 Cd 0.90335 0.58716 0.92564 0.0
Cd254 Cd 0.98411 0.56001 0.89584 0.0
O255 O 0.94273 0.56258 0.8386 0.0
O256 O 0.83491 0.56768 0.92783 0.0
O257 O 0.89491 0.52034 0.91389 0.0
C258 C 0.84967 0.52789 0.91454 0.0
C259 C 0.03195 0.49873 0.91549 0.0
C260 C 0.91776 0.59844 0.83341 0.0
C261 C 0.98403 0.62482 0.97094 0.0
O262 O 0.00142 0.61842 0.93238 0.0
O263 O 0.94363 0.60759 0.9804 0.0
O264 O 0.0457 0.52852 0.88637 0.0
O265 O 0.98918 0.50146 0.93088 0.0
O266 O 0.74183 0.83208 0.46315 0.0
Cd267 Cd 0.79211 0.78238 0.4608 0.0
Cd268 Cd 0.80041 0.81506 0.38635 0.0
O269 O 0.78114 0.87663 0.41651 0.0
O270 O 0.82144 0.77774 0.52116 0.0
O271 O 0.85405 0.81552 0.46457 0.0
C272 C 0.85283 0.80672 0.50667 0.0
C273 C 0.86234 0.78311 0.34541 0.0
C274 C 0.74879 0.87128 0.44587 0.0
C275 C 0.73974 0.73611 0.39274 0.0
O276 O 0.74135 0.77637 0.37697 0.0
O277 O 0.7678 0.72509 0.42447 0.0
O278 O 0.83474 0.81388 0.328 0.0
O279 O 0.85905 0.77547 0.38762 0.0
O280 O 0.58368 0.40383 0.36702 0.0
Cd281 Cd 0.5901 0.44033 0.42565 0.0
Cd282 Cd 0.50934 0.46749 0.39583 0.0
O283 O 0.55071 0.46491 0.33859 0.0
O284 O 0.65854 0.45981 0.42786 0.0
O285 O 0.59853 0.50715 0.41389 0.0
C286 C 0.64376 0.49959 0.41456 0.0
C287 C 0.46149 0.52878 0.41548 0.0
C288 C 0.57569 0.42905 0.33342 0.0
C289 C 0.5094 0.40268 0.47094 0.0
O290 O 0.49202 0.40908 0.43238 0.0
O291 O 0.5498 0.4199 0.4804 0.0
O292 O 0.44776 0.49899 0.38637 0.0
O293 O 0.50426 0.52605 0.43087 0.0
O294 O 0.24184 0.6954 0.60824 0.0
Cd295 Cd 0.29212 0.74511 0.61059 0.0
Cd296 Cd 0.30042 0.71243 0.68504 0.0
O297 O 0.28116 0.65085 0.65488 0.0
O298 O 0.32145 0.74976 0.55023 0.0
O299 O 0.35406 0.71197 0.60683 0.0
C300 C 0.35284 0.72078 0.56472 0.0
C301 C 0.36235 0.74439 0.72599 0.0
C302 C 0.24881 0.6562 0.62552 0.0
C303 C 0.23973 0.79137 0.67865 0.0
O304 O 0.24134 0.75111 0.69441 0.0
O305 O 0.2678 0.8024 0.64693 0.0
O306 O 0.33474 0.71362 0.74338 0.0
O307 O 0.35905 0.75203 0.68378 0.0
O308 O 0.90978 0.40384 0.70437 0.0
Cd309 Cd 0.90336 0.44033 0.64574 0.0
Cd310 Cd 0.9841 0.46748 0.67554 0.0
O311 O 0.94273 0.46491 0.73278 0.0
O312 O 0.83491 0.45982 0.64354 0.0
O313 O 0.89492 0.50716 0.65749 0.0
C314 C 0.84968 0.49961 0.65683 0.0
C315 C 0.03195 0.52876 0.6559 0.0
C316 C 0.91775 0.42905 0.73797 0.0
C317 C 0.98404 0.40268 0.60044 0.0
O318 O 0.00142 0.40907 0.639 0.0
O319 O 0.94364 0.41991 0.59098 0.0
O320 O 0.04569 0.49897 0.68501 0.0
O321 O 0.98918 0.52603 0.6405 0.0
O322 O 0.08364 0.12366 0.70438 0.0
Cd323 Cd 0.09006 0.08716 0.64575 0.0
Cd324 Cd 0.00932 0.06001 0.67556 0.0
O325 O 0.05069 0.06259 0.73279 0.0
O326 O 0.15851 0.06767 0.64355 0.0
O327 O 0.09851 0.02033 0.65751 0.0
C328 C 0.14374 0.02789 0.65685 0.0
C329 C 0.96147 0.99873 0.65591 0.0
C330 C 0.07567 0.09844 0.73798 0.0
C331 C 0.00939 0.12482 0.60045 0.0
O332 O 0.99201 0.11842 0.63901 0.0
O333 O 0.04979 0.10758 0.59099 0.0
O334 O 0.94773 0.02852 0.68502 0.0
O335 O 0.00424 1.00146 0.64052 0.0
O336 O 0.56742 0.65608 0.89677 0.0
Cd337 Cd 0.62632 0.69559 0.88441 0.0
Cd338 Cd 0.59144 0.68431 0.79833 0.0
O339 O 0.5302 0.66431 0.83232 0.0
O340 O 0.63986 0.73012 0.9418 0.0
O341 O 0.61352 0.76261 0.87998 0.0
C342 C 0.6249 0.76631 0.92127 0.0
C343 C 0.60654 0.74963 0.75477 0.0
C344 C 0.53078 0.65065 0.87265 0.0
C345 C 0.68357 0.64163 0.81663 0.0
O346 O 0.64569 0.63716 0.79405 0.0
O347 O 0.68459 0.66755 0.85094 0.0
O348 O 0.58452 0.71467 0.73804 0.0
O349 O 0.61568 0.74897 0.79672 0.0
O350 O 0.87191 0.18071 0.42231 0.0
Cd351 Cd 0.91476 0.12394 0.42979 0.0
Cd352 Cd 0.91704 0.15637 0.51348 0.0
O353 O 0.90075 0.21736 0.48073 0.0
O354 O 0.95192 0.11765 0.37271 0.0
O355 O 0.98197 0.14235 0.43671 0.0
C356 C 0.98706 0.13519 0.39463 0.0
C357 C 0.97796 0.14367 0.56565 0.0
C358 C 0.87776 0.21764 0.44418 0.0
C359 C 0.86699 0.06899 0.49867 0.0
O360 O 0.86446 0.1075 0.51828 0.0
O361 O 0.8919 0.06495 0.46348 0.0
O362 O 0.93942 0.16509 0.5764 0.0
O363 O 0.98388 0.13281 0.52442 0.0
O364 O 0.42602 0.87141 0.89677 0.0
Cd365 Cd 0.36711 0.83189 0.8844 0.0
Cd366 Cd 0.402 0.84318 0.79832 0.0
O367 O 0.46324 0.86318 0.83231 0.0
O368 O 0.35358 0.79737 0.94179 0.0
O369 O 0.37992 0.76487 0.87997 0.0
C370 C 0.36854 0.76118 0.92127 0.0
C371 C 0.38689 0.77788 0.75477 0.0
C372 C 0.46266 0.87684 0.87264 0.0
C373 C 0.30987 0.88586 0.81663 0.0
O374 O 0.34774 0.89033 0.79405 0.0
O375 O 0.30885 0.85994 0.85093 0.0
O376 O 0.40892 0.81283 0.73803 0.0
O377 O 0.37776 0.77852 0.79672 0.0
O378 O 0.12153 0.34679 0.42231 0.0
Cd379 Cd 0.07868 0.40356 0.42978 0.0
Cd380 Cd 0.07639 0.37112 0.51348 0.0
O381 O 0.09269 0.31014 0.48073 0.0
O382 O 0.04152 0.40984 0.3727 0.0
O383 O 0.01147 0.38514 0.43671 0.0
C384 C 0.00638 0.39231 0.39462 0.0
C385 C 0.01547 0.38383 0.56564 0.0
C386 C 0.11568 0.30985 0.44418 0.0
C387 C 0.12644 0.4585 0.49866 0.0
O388 O 0.12897 0.42 0.51829 0.0
O389 O 0.10154 0.46254 0.46347 0.0
O390 O 0.05401 0.3624 0.5764 0.0
O391 O 0.00955 0.39468 0.52442 0.0
O392 O 0.5674 0.3714 0.67462 0.0
Cd393 Cd 0.62631 0.33189 0.68698 0.0
Cd394 Cd 0.59143 0.34318 0.77306 0.0
O395 O 0.53019 0.36317 0.73907 0.0
O396 O 0.63985 0.29737 0.62959 0.0
O397 O 0.61352 0.26487 0.69141 0.0
C398 C 0.62491 0.26118 0.65012 0.0
C399 C 0.60653 0.27786 0.81661 0.0
C400 C 0.53076 0.37682 0.69874 0.0
C401 C 0.68355 0.38586 0.75475 0.0
O402 O 0.64568 0.39033 0.77733 0.0
O403 O 0.68458 0.35995 0.72045 0.0
O404 O 0.58451 0.31282 0.83335 0.0
O405 O 0.61567 0.27852 0.77466 0.0
O406 O 0.62151 0.1807 0.64907 0.0
Cd407 Cd 0.57865 0.12393 0.64159 0.0
Cd408 Cd 0.57638 0.15637 0.5579 0.0
O409 O 0.59268 0.21735 0.59064 0.0
O410 O 0.54149 0.11764 0.69867 0.0
O411 O 0.51145 0.14234 0.63467 0.0
C412 C 0.50636 0.13518 0.67675 0.0
C413 C 0.51545 0.14367 0.50573 0.0
C414 C 0.61567 0.21764 0.6272 0.0
C415 C 0.62642 0.06898 0.57271 0.0
O416 O 0.62896 0.10749 0.55309 0.0
O417 O 0.60152 0.06495 0.60791 0.0
O418 O 0.55399 0.16509 0.49498 0.0
O419 O 0.50953 0.13282 0.54696 0.0
O420 O 0.42602 0.15609 0.67461 0.0
Cd421 Cd 0.36711 0.1956 0.68698 0.0
Cd422 Cd 0.40199 0.18432 0.77305 0.0
O423 O 0.46324 0.16432 0.73907 0.0
O424 O 0.35357 0.23013 0.62959 0.0
O425 O 0.3799 0.26262 0.69141 0.0
C426 C 0.36852 0.26631 0.65011 0.0
C427 C 0.38689 0.24963 0.81661 0.0
C428 C 0.46266 0.15066 0.69874 0.0
C429 C 0.30987 0.14163 0.75475 0.0
O430 O 0.34774 0.13716 0.77733 0.0
O431 O 0.30884 0.16755 0.72045 0.0
O432 O 0.40891 0.21467 0.83335 0.0
O433 O 0.37776 0.24898 0.77466 0.0
O434 O 0.37191 0.34679 0.64907 0.0
Cd435 Cd 0.41477 0.40356 0.64159 0.0
Cd436 Cd 0.41704 0.37113 0.5579 0.0
O437 O 0.40075 0.31014 0.59064 0.0
O438 O 0.45192 0.40984 0.69867 0.0
O439 O 0.48197 0.38514 0.63467 0.0
C440 C 0.48706 0.39231 0.67675 0.0
C441 C 0.47797 0.38383 0.50573 0.0
C442 C 0.37776 0.30985 0.6272 0.0
C443 C 0.367 0.45851 0.57271 0.0
O444 O 0.36446 0.42 0.55309 0.0
O445 O 0.39191 0.46254 0.6079 0.0
O446 O 0.43943 0.3624 0.49497 0.0
O447 O 0.48389 0.39468 0.54696 0.0
O448 O 0.85104 0.57165 0.7942 0.0
Cd449 Cd 0.79718 0.57149 0.74646 0.0
Cd450 Cd 0.81254 0.65261 0.75572 0.0
O451 O 0.88078 0.63844 0.77445 0.0
O452 O 0.79511 0.51059 0.71611 0.0
O453 O 0.82615 0.57299 0.68538 0.0
C454 C 0.81911 0.52915 0.68417 0.0
C455 C 0.78254 0.70282 0.70336 0.0
C456 C 0.88424 0.60136 0.79638 0.0
C457 C 0.72849 0.625 0.79769 0.0
O458 O 0.76599 0.64668 0.80731 0.0
O459 O 0.72964 0.59607 0.76583 0.0
O460 O 0.80587 0.71699 0.73774 0.0
O461 O 0.78083 0.65925 0.69551 0.0
O462 O 0.82219 0.89455 0.63563 0.0
Cd463 Cd 0.88111 0.89291 0.59485 0.0
Cd464 Cd 0.84042 0.97198 0.57719 0.0
O465 O 0.78067 0.93172 0.58585 0.0
O466 O 0.88926 0.82699 0.57647 0.0
O467 O 0.86706 0.88313 0.53084 0.0
C468 C 0.87378 0.83978 0.5379 0.0
C469 C 0.84982 0.02866 0.52332 0.0
C470 C 0.7821 0.90492 0.6191 0.0
C471 C 0.92628 0.96898 0.63463 0.0
O472 O 0.88403 0.98411 0.63152 0.0
O473 O 0.93833 0.93287 0.61368 0.0
O474 O 0.82253 0.03465 0.55735 0.0
O475 O 0.86852 0.98858 0.51741 0.0
O476 O 0.1424 0.95584 0.79422 0.0
Cd477 Cd 0.19625 0.956 0.74647 0.0
Cd478 Cd 0.18089 0.87489 0.75573 0.0
O479 O 0.11265 0.88906 0.77446 0.0
O480 O 0.19832 0.0169 0.71613 0.0
O481 O 0.16727 0.9545 0.68539 0.0
C482 C 0.17431 0.99834 0.68418 0.0
C483 C 0.21089 0.82468 0.70336 0.0
C484 C 0.1092 0.92612 0.7964 0.0
C485 C 0.26494 0.90249 0.79769 0.0
O486 O 0.22745 0.88081 0.80732 0.0
O487 O 0.2638 0.93142 0.76583 0.0
O488 O 0.18756 0.81051 0.73774 0.0
O489 O 0.21261 0.86825 0.69551 0.0
O490 O 0.17122 0.63296 0.63565 0.0
Cd491 Cd 0.1123 0.63459 0.59486 0.0
Cd492 Cd 0.15302 0.55551 0.57719 0.0
O493 O 0.21277 0.59577 0.58587 0.0
O494 O 0.10416 0.70052 0.57646 0.0
O495 O 0.12637 0.64437 0.53085 0.0
C496 C 0.11965 0.68772 0.5379 0.0
C497 C 0.14362 0.49884 0.52332 0.0
C498 C 0.21131 0.62256 0.61913 0.0
C499 C 0.06714 0.55851 0.63462 0.0
O500 O 0.10939 0.54338 0.63151 0.0
O501 O 0.05509 0.59462 0.61367 0.0
O502 O 0.1709 0.49284 0.55736 0.0
O503 O 0.12493 0.53892 0.5174 0.0
O504 O 0.85103 0.45585 0.77717 0.0
Cd505 Cd 0.79717 0.456 0.82492 0.0
Cd506 Cd 0.81253 0.37489 0.81565 0.0
O507 O 0.88077 0.38906 0.79692 0.0
O508 O 0.7951 0.51691 0.85526 0.0
O509 O 0.82615 0.45451 0.886 0.0
C510 C 0.81911 0.49835 0.88721 0.0
C511 C 0.78253 0.32468 0.86802 0.0
C512 C 0.88423 0.42613 0.775 0.0
C513 C 0.72848 0.4025 0.77369 0.0
O514 O 0.76598 0.38081 0.76406 0.0
O515 O 0.72963 0.43143 0.80555 0.0
O516 O 0.80586 0.31051 0.83364 0.0
O517 O 0.78082 0.36825 0.87587 0.0
O518 O 0.67119 0.89451 0.43575 0.0
Cd519 Cd 0.61228 0.89289 0.47654 0.0
Cd520 Cd 0.65299 0.97196 0.49419 0.0
O521 O 0.71275 0.93171 0.48551 0.0
O522 O 0.60413 0.82696 0.49494 0.0
O523 O 0.62635 0.8831 0.54055 0.0
C524 C 0.61962 0.83975 0.5335 0.0
C525 C 0.6436 0.02865 0.54807 0.0
C526 C 0.71129 0.90491 0.45226 0.0
C527 C 0.56711 0.96897 0.43677 0.0
O528 O 0.60937 0.98409 0.43987 0.0
O529 O 0.55507 0.93286 0.45772 0.0
O530 O 0.67088 0.03464 0.51403 0.0
O531 O 0.62491 0.98856 0.55398 0.0
O532 O 0.14239 0.07165 0.77718 0.0
Cd533 Cd 0.19625 0.0715 0.82492 0.0
Cd534 Cd 0.18089 0.15261 0.81566 0.0
O535 O 0.11265 0.13844 0.79693 0.0
O536 O 0.19832 1.01059 0.85527 0.0
O537 O 0.16728 0.07298 0.88601 0.0
C538 C 0.17432 0.02915 0.88723 0.0
C539 C 0.21089 0.20282 0.86803 0.0
C540 C 0.10919 0.10137 0.77501 0.0
C541 C 0.26494 0.125 0.77369 0.0
O542 O 0.22744 0.14668 0.76407 0.0
O543 O 0.26379 0.09607 0.80555 0.0
O544 O 0.18757 0.21699 0.83364 0.0
O545 O 0.21261 0.15925 0.87587 0.0
O546 O 0.32223 0.63298 0.43574 0.0
Cd547 Cd 0.38114 0.6346 0.47653 0.0
Cd548 Cd 0.34043 0.55552 0.49419 0.0
O549 O 0.28068 0.59577 0.48551 0.0
O550 O 0.38929 0.70053 0.49493 0.0
O551 O 0.36707 0.64438 0.54054 0.0
C552 C 0.3738 0.68773 0.53349 0.0
C553 C 0.34982 0.49884 0.54806 0.0
C554 C 0.28214 0.62257 0.45225 0.0
C555 C 0.42631 0.55852 0.43676 0.0
O556 O 0.38406 0.54339 0.43987 0.0
O557 O 0.43835 0.59464 0.45771 0.0
O558 O 0.32255 0.49285 0.51402 0.0
O559 O 0.36852 0.53893 0.55398 0.0
O560 O 0.75157 0.83209 0.60822 0.0
Cd561 Cd 0.70129 0.78237 0.61058 0.0
Cd562 Cd 0.69301 0.81507 0.68504 0.0
O563 O 0.71227 0.87664 0.65487 0.0
O564 O 0.67196 0.77772 0.55023 0.0
O565 O 0.63935 0.81551 0.60683 0.0
C566 C 0.64057 0.8067 0.56474 0.0
C567 C 0.63109 0.7831 0.72599 0.0
C568 C 0.7446 0.87128 0.62549 0.0
C569 C 0.75369 0.73613 0.67865 0.0
O570 O 0.75208 0.77638 0.69441 0.0
O571 O 0.72563 0.7251 0.64692 0.0
O572 O 0.65869 0.81388 0.74339 0.0
O573 O 0.63438 0.77546 0.68378 0.0
O574 O 0.75157 0.19541 0.96317 0.0
Cd575 Cd 0.70129 0.24512 0.9608 0.0
Cd576 Cd 0.69301 0.21243 0.88634 0.0
O577 O 0.71227 0.15086 0.91652 0.0
O578 O 0.67196 0.24978 1.02116 0.0
O579 O 0.63935 0.21198 0.96455 0.0
C580 C 0.64057 0.22079 1.00665 0.0
C581 C 0.63109 0.24439 0.84539 0.0
C582 C 0.7446 0.15622 0.9459 0.0
C583 C 0.75369 0.29137 0.89273 0.0
O584 O 0.75208 0.25112 0.87697 0.0
O585 O 0.72562 0.3024 0.92446 0.0
O586 O 0.65869 0.21361 0.82799 0.0
O587 O 0.63438 0.25203 0.88761 0.0
O588 O 0.40975 0.12366 0.36702 0.0
Cd589 Cd 0.40333 0.08717 0.42565 0.0
Cd590 Cd 0.48409 0.06 0.39584 0.0
O591 O 0.44272 0.06258 0.33859 0.0
O592 O 0.33489 0.06768 0.42785 0.0
O593 O 0.3949 0.02034 0.4139 0.0
C594 C 0.34967 0.02791 0.41456 0.0
C595 C 0.53193 0.99872 0.41549 0.0
C596 C 0.41774 0.09844 0.33342 0.0
C597 C 0.48402 0.12481 0.47094 0.0
O598 O 0.50141 0.1184 0.43238 0.0
O599 O 0.44362 0.1076 0.4804 0.0
O600 O 0.54568 0.0285 0.38637 0.0
O601 O 0.48916 1.00145 0.43088 0.0
O602 O 0.24186 0.33208 0.96317 0.0
Cd603 Cd 0.29214 0.28237 0.9608 0.0
Cd604 Cd 0.30042 0.31507 0.88635 0.0
O605 O 0.28116 0.37664 0.91652 0.0
O606 O 0.32147 0.27772 1.02116 0.0
O607 O 0.35408 0.31552 0.96455 0.0
C608 C 0.35286 0.3067 1.00665 0.0
C609 C 0.36234 0.28311 0.84539 0.0
C610 C 0.24883 0.37128 0.9459 0.0
C611 C 0.23974 0.23613 0.89273 0.0
O612 O 0.24135 0.27638 0.87697 0.0
O613 O 0.2678 0.2251 0.92446 0.0
O614 O 0.33474 0.31388 0.82799 0.0
O615 O 0.35905 0.27547 0.88761 0.0
O616 O 0.08367 0.90383 0.86703 0.0
Cd617 Cd 0.09009 0.94033 0.92566 0.0
Cd618 Cd 0.00933 0.96748 0.89584 0.0
O619 O 0.05069 0.9649 0.8386 0.0
O620 O 0.15853 0.95983 0.92786 0.0
O621 O 0.09851 1.00716 0.91389 0.0
C622 C 0.14375 0.9996 0.91456 0.0
C623 C 0.96148 0.02876 0.91549 0.0
C624 C 0.07568 0.92904 0.83343 0.0
C625 C 0.0094 0.90268 0.97095 0.0
O626 O 0.99202 0.90908 0.93239 0.0
O627 O 0.0498 0.91991 0.98041 0.0
O628 O 0.94773 0.99897 0.88637 0.0
O629 O 0.00425 0.02604 0.93087 0.0
O630 O 0.74185 0.19542 0.10822 0.0
Cd631 Cd 0.79214 0.24513 0.11058 0.0
Cd632 Cd 0.80042 0.21243 0.18503 0.0
O633 O 0.78115 0.15086 0.15487 0.0
O634 O 0.82147 0.24977 0.05022 0.0
O635 O 0.85408 0.21198 0.10683 0.0
C636 C 0.85285 0.22079 0.06473 0.0
C637 C 0.86235 0.24439 0.22599 0.0
C638 C 0.74882 0.15622 0.12549 0.0
C639 C 0.73975 0.29138 0.17865 0.0
O640 O 0.74136 0.25112 0.19441 0.0
O641 O 0.76782 0.30241 0.14692 0.0
O642 O 0.83475 0.21361 0.24338 0.0
O643 O 0.85905 0.25203 0.18377 0.0
O644 O 0.40976 0.90384 0.20437 0.0
Cd645 Cd 0.40334 0.94033 0.14574 0.0
Cd646 Cd 0.48409 0.9675 0.17555 0.0
O647 O 0.44272 0.96492 0.23279 0.0
O648 O 0.33489 0.95981 0.14353 0.0
O649 O 0.3949 1.00716 0.15749 0.0
C650 C 0.34967 0.99959 0.15683 0.0
C651 C 0.53194 0.02878 0.1559 0.0
C652 C 0.41775 0.92906 0.23797 0.0
C653 C 0.48403 0.90269 0.10045 0.0
O654 O 0.50141 0.90909 0.13901 0.0
O655 O 0.44362 0.9199 0.09099 0.0
O656 O 0.54568 0.99899 0.18502 0.0
O657 O 0.48917 0.02605 0.14051 0.0
O658 O 0.58367 0.62365 0.20437 0.0
Cd659 Cd 0.59009 0.58716 0.14574 0.0
Cd660 Cd 0.50934 0.55999 0.17556 0.0
O661 O 0.55071 0.56257 0.2328 0.0
O662 O 0.65854 0.56768 0.14354 0.0
O663 O 0.59853 0.52033 0.15749 0.0
C664 C 0.64376 0.5279 0.15683 0.0
C665 C 0.46149 0.49871 0.15591 0.0
C666 C 0.57568 0.59843 0.23797 0.0
C667 C 0.5094 0.62481 0.10045 0.0
O668 O 0.49202 0.6184 0.13901 0.0
O669 O 0.54981 0.60759 0.09099 0.0
O670 O 0.44775 0.5285 0.18502 0.0
O671 O 0.50426 0.50144 0.14052 0.0
loop_
_geom_bond_atom_site_label_1
_geom_bond_atom_site_label_2
_geom_bond_distance
_geom_bond_site_symmetry_2
_ccdc_geom_bond_type
O0 Cd1 2.223 . S
O0 C8 1.315 . S
Cd1 O0 2.223 . S
Cd1 O4 2.297 . S
Cd1 O5 2.439 . S
Cd1 O11 2.240 . S
Cd2 O3 2.240 . S
Cd2 O10 2.223 . S
Cd2 O12 2.297 . S
Cd2 O13 2.439 . S
O3 Cd2 2.240 . S
O3 C8 1.279 . S
O4 Cd1 2.297 . S
O4 C6 1.247 . S
O5 Cd1 2.439 . S
O5 C6 1.208 . S
C6 O4 1.247 . S
C6 O5 1.208 . S
C7 O12 1.247 . S
C7 O13 1.208 . S
C8 O0 1.315 . S
C8 O3 1.279 . S
C9 O10 1.315 . S
C9 O11 1.279 . S
O10 Cd2 2.223 . S
O10 C9 1.315 . S
O11 Cd1 2.240 . S
O11 C9 1.279 . S
O12 Cd2 2.297 . S
O12 C7 1.247 . S
O13 Cd2 2.439 . S
O13 C7 1.208 . S
O14 Cd15 2.223 . S
O14 C22 1.315 . S
Cd15 O14 2.223 . S
Cd15 O18 2.297 . S
Cd15 O19 2.439 . S
Cd15 O25 2.240 . S
Cd16 O17 2.240 . S
Cd16 O24 2.223 . S
Cd16 O26 2.297 1_556 S
Cd16 O27 2.439 . S
O17 Cd16 2.240 . S
O17 C22 1.279 . S
O18 Cd15 2.297 . S
O18 C20 1.247 . S
O19 Cd15 2.439 . S
O19 C20 1.208 . S
C20 O18 1.247 . S
C20 O19 1.208 . S
C21 O26 1.247 . S
C21 O27 1.208 1_554 S
C22 O14 1.315 . S
C22 O17 1.279 . S
C23 O24 1.315 . S
C23 O25 1.279 . S
O24 Cd16 2.223 . S
O24 C23 1.315 . S
O25 Cd15 2.240 . S
O25 C23 1.279 . S
O26 Cd16 2.297 1_554 S
O26 C21 1.247 . S
O27 Cd16 2.439 . S
O27 C21 1.208 1_556 S
O28 Cd29 2.223 . S
O28 C36 1.315 . S
Cd29 O28 2.223 . S
Cd29 O32 2.297 . S
Cd29 O33 2.439 . S
Cd29 O39 2.240 . S
Cd30 O31 2.240 . S
Cd30 O38 2.223 . S
Cd30 O40 2.297 . S
Cd30 O41 2.439 . S
O31 Cd30 2.240 . S
O31 C36 1.279 . S
O32 Cd29 2.297 . S
O32 C34 1.247 . S
O33 Cd29 2.439 . S
O33 C34 1.208 . S
C34 O32 1.247 . S
C34 O33 1.208 . S
C35 O40 1.247 . S
C35 O41 1.208 . S
C36 O28 1.315 . S
C36 O31 1.279 . S
C37 O38 1.315 . S
C37 O39 1.279 . S
O38 Cd30 2.223 . S
O38 C37 1.315 . S
O39 Cd29 2.240 . S
O39 C37 1.279 . S
O40 Cd30 2.297 . S
O40 C35 1.247 . S
O41 Cd30 2.439 . S
O41 C35 1.208 . S
O42 Cd43 2.223 . S
O42 C50 1.315 . S
Cd43 O42 2.223 . S
Cd43 O46 2.297 . S
Cd43 O47 2.439 . S
Cd43 O53 2.240 . S
Cd44 O45 2.240 . S
Cd44 O52 2.223 . S
Cd44 O54 2.297 1_556 S
Cd44 O55 2.439 . S
O45 Cd44 2.240 . S
O45 C50 1.279 . S
O46 Cd43 2.297 . S
O46 C48 1.247 . S
O47 Cd43 2.439 . S
O47 C48 1.208 . S
C48 O46 1.247 . S
C48 O47 1.208 . S
C49 O54 1.247 . S
C49 O55 1.208 1_554 S
C50 O42 1.315 . S
C50 O45 1.279 . S
C51 O52 1.315 . S
C51 O53 1.279 . S
O52 Cd44 2.223 . S
O52 C51 1.315 . S
O53 Cd43 2.240 . S
O53 C51 1.279 . S
O54 Cd44 2.297 1_554 S
O54 C49 1.247 . S
O55 Cd44 2.439 . S
O55 C49 1.208 1_556 S
O56 Cd57 2.223 . S
O56 C64 1.315 . S
Cd57 O56 2.223 . S
Cd57 O60 2.297 . S
Cd57 O61 2.439 . S
Cd57 O67 2.240 . S
Cd58 O59 2.240 . S
Cd58 O66 2.223 . S
Cd58 O68 2.297 . S
Cd58 O69 2.439 . S
O59 Cd58 2.240 . S
O59 C64 1.279 . S
O60 Cd57 2.297 . S
O60 C62 1.247 . S
O61 Cd57 2.439 . S
O61 C62 1.208 . S
C62 O60 1.247 . S
C62 O61 1.208 . S
C63 O68 1.247 . S
C63 O69 1.208 . S
C64 O56 1.315 . S
C64 O59 1.279 . S
C65 O66 1.315 . S
C65 O67 1.279 . S
O66 Cd58 2.223 . S
O66 C65 1.315 . S
O67 Cd57 2.240 . S
O67 C65 1.279 . S
O68 Cd58 2.297 . S
O68 C63 1.247 . S
O69 Cd58 2.439 . S
O69 C63 1.208 . S
O70 Cd71 2.223 1_455 S
O70 C78 1.315 . S
Cd71 O70 2.223 1_655 S
Cd71 O74 2.297 . S
Cd71 O75 2.439 . S
Cd71 O81 2.240 1_655 S
Cd72 O73 2.240 . S
Cd72 O80 2.223 . S
Cd72 O82 2.297 1_454 S
Cd72 O83 2.439 1_454 S
O73 Cd72 2.240 . S
O73 C78 1.279 . S
O74 Cd71 2.297 . S
O74 C76 1.247 . S
O75 Cd71 2.439 . S
O75 C76 1.208 . S
C76 O74 1.247 . S
C76 O75 1.208 . S
C77 O82 1.247 . S
C77 O83 1.208 . S
C78 O70 1.315 . S
C78 O73 1.279 . S
C79 O80 1.315 . S
C79 O81 1.279 . S
O80 Cd72 2.223 . S
O80 C79 1.315 . S
O81 Cd71 2.240 1_455 S
O81 C79 1.279 . S
O82 Cd72 2.297 1_656 S
O82 C77 1.247 . S
O83 Cd72 2.439 1_656 S
O83 C77 1.208 . S
O84 Cd85 2.223 . S
O84 C92 1.315 . S
Cd85 O84 2.223 . S
Cd85 O88 2.297 . S
Cd85 O89 2.439 . S
Cd85 O95 2.240 . S
Cd86 O87 2.240 . S
Cd86 O94 2.223 . S
Cd86 O96 2.297 . S
Cd86 O97 2.439 . S
O87 Cd86 2.240 . S
O87 C92 1.279 . S
O88 Cd85 2.297 . S
O88 C90 1.247 . S
O89 Cd85 2.439 . S
O89 C90 1.208 . S
C90 O88 1.247 . S
C90 O89 1.208 . S
C91 O96 1.247 . S
C91 O97 1.208 . S
C92 O84 1.315 . S
C92 O87 1.279 . S
C93 O94 1.315 . S
C93 O95 1.279 . S
O94 Cd86 2.223 . S
O94 C93 1.315 . S
O95 Cd85 2.240 . S
O95 C93 1.279 . S
O96 Cd86 2.297 . S
O96 C91 1.247 . S
O97 Cd86 2.439 . S
O97 C91 1.208 . S
O98 Cd99 2.223 1_655 S
O98 C106 1.315 . S
Cd99 O98 2.223 1_455 S
Cd99 O102 2.297 . S
Cd99 O103 2.439 . S
Cd99 O109 2.240 1_455 S
Cd100 O101 2.240 . S
Cd100 O108 2.223 . S
Cd100 O110 2.297 1_654 S
Cd100 O111 2.439 1_654 S
O101 Cd100 2.240 . S
O101 C106 1.279 . S
O102 Cd99 2.297 . S
O102 C104 1.247 . S
O103 Cd99 2.439 . S
O103 C104 1.208 . S
C104 O102 1.247 . S
C104 O103 1.208 . S
C105 O110 1.247 . S
C105 O111 1.208 . S
C106 O98 1.315 . S
C106 O101 1.279 . S
C107 O108 1.315 . S
C107 O109 1.279 . S
O108 Cd100 2.223 . S
O108 C107 1.315 . S
O109 Cd99 2.240 1_655 S
O109 C107 1.279 . S
O110 Cd100 2.297 1_456 S
O110 C105 1.247 . S
O111 Cd100 2.439 1_456 S
O111 C105 1.208 . S
O112 Cd113 2.223 . S
O112 C120 1.315 . S
Cd113 O112 2.223 . S
Cd113 O116 2.297 . S
Cd113 O117 2.439 . S
Cd113 O123 2.240 . S
Cd114 O115 2.240 . S
Cd114 O122 2.223 . S
Cd114 O124 2.297 . S
Cd114 O125 2.439 . S
O115 Cd114 2.240 . S
O115 C120 1.279 . S
O116 Cd113 2.297 . S
O116 C118 1.247 . S
O117 Cd113 2.439 . S
O117 C118 1.208 . S
C118 O116 1.247 . S
C118 O117 1.208 . S
C119 O124 1.247 . S
C119 O125 1.208 . S
C120 O112 1.315 . S
C120 O115 1.279 . S
C121 O122 1.315 . S
C121 O123 1.279 . S
O122 Cd114 2.223 . S
O122 C121 1.315 . S
O123 Cd113 2.240 . S
O123 C121 1.279 . S
O124 Cd114 2.297 . S
O124 C119 1.247 . S
O125 Cd114 2.439 . S
O125 C119 1.208 . S
O126 Cd127 2.220 1_554 S
O126 C134 1.315 . S
Cd127 O126 2.220 1_556 S
Cd127 O130 2.299 . S
Cd127 O131 2.441 . S
Cd127 O137 2.239 1_556 S
Cd128 O129 2.240 . S
Cd128 O136 2.223 . S
Cd128 O138 2.297 . S
Cd128 O139 2.439 1_554 S
O129 Cd128 2.240 . S
O129 C134 1.279 . S
O130 Cd127 2.299 . S
O130 C132 1.247 . S
O131 Cd127 2.441 . S
O131 C132 1.208 . S
C132 O130 1.247 . S
C132 O131 1.208 . S
C133 O138 1.247 1_556 S
C133 O139 1.208 . S
C134 O126 1.315 . S
C134 O129 1.279 . S
C135 O136 1.315 . S
C135 O137 1.279 . S
O136 Cd128 2.223 . S
O136 C135 1.315 . S
O137 Cd127 2.239 1_554 S
O137 C135 1.279 . S
O138 Cd128 2.297 . S
O138 C133 1.247 1_554 S
O139 Cd128 2.439 1_556 S
O139 C133 1.208 . S
O140 Cd141 2.223 . S
O140 C148 1.315 . S
Cd141 O140 2.223 . S
Cd141 O144 2.297 . S
Cd141 O145 2.439 . S
Cd141 O151 2.240 . S
Cd142 O143 2.240 . S
Cd142 O150 2.223 . S
Cd142 O152 2.297 . S
Cd142 O153 2.439 . S
O143 Cd142 2.240 . S
O143 C148 1.279 . S
O144 Cd141 2.297 . S
O144 C146 1.247 . S
O145 Cd141 2.439 . S
O145 C146 1.208 . S
C146 O144 1.247 . S
C146 O145 1.208 . S
C147 O152 1.247 . S
C147 O153 1.208 . S
C148 O140 1.315 . S
C148 O143 1.279 . S
C149 O150 1.315 . S
C149 O151 1.279 . S
O150 Cd142 2.223 . S
O150 C149 1.315 . S
O151 Cd141 2.240 . S
O151 C149 1.279 . S
O152 Cd142 2.297 . S
O152 C147 1.247 . S
O153 Cd142 2.439 . S
O153 C147 1.208 . S
O154 Cd155 2.220 1_554 S
O154 C162 1.315 . S
Cd155 O154 2.220 1_556 S
Cd155 O158 2.299 . S
Cd155 O159 2.441 . S
Cd155 O165 2.239 1_556 S
Cd156 O157 2.240 . S
Cd156 O164 2.223 . S
Cd156 O166 2.297 1_545 S
Cd156 O167 2.439 1_554 S
O157 Cd156 2.240 . S
O157 C162 1.279 . S
O158 Cd155 2.299 . S
O158 C160 1.247 . S
O159 Cd155 2.441 . S
O159 C160 1.208 . S
C160 O158 1.247 . S
C160 O159 1.208 . S
C161 O166 1.247 1_556 S
C161 O167 1.208 1_565 S
C162 O154 1.315 . S
C162 O157 1.279 . S
C163 O164 1.315 . S
C163 O165 1.279 . S
O164 Cd156 2.223 . S
O164 C163 1.315 . S
O165 Cd155 2.239 1_554 S
O165 C163 1.279 . S
O166 Cd156 2.297 1_565 S
O166 C161 1.247 1_554 S
O167 Cd156 2.439 1_556 S
O167 C161 1.208 1_545 S
O168 Cd169 2.223 . S
O168 C176 1.315 . S
Cd169 O168 2.223 . S
Cd169 O172 2.297 . S
Cd169 O173 2.439 . S
Cd169 O179 2.240 . S
Cd170 O171 2.240 . S
Cd170 O178 2.223 . S
Cd170 O180 2.297 . S
Cd170 O181 2.439 . S
O171 Cd170 2.240 . S
O171 C176 1.279 . S
O172 Cd169 2.297 . S
O172 C174 1.247 . S
O173 Cd169 2.439 . S
O173 C174 1.208 . S
C174 O172 1.247 . S
C174 O173 1.208 . S
C175 O180 1.247 . S
C175 O181 1.208 . S
C176 O168 1.315 . S
C176 O171 1.279 . S
C177 O178 1.315 . S
C177 O179 1.279 . S
O178 Cd170 2.223 . S
O178 C177 1.315 . S
O179 Cd169 2.240 . S
O179 C177 1.279 . S
O180 Cd170 2.297 . S
O180 C175 1.247 . S
O181 Cd170 2.439 . S
O181 C175 1.208 . S
O182 Cd183 2.223 1_556 S
O182 C190 1.315 . S
Cd183 O182 2.223 1_554 S
Cd183 O186 2.297 . S
Cd183 O187 2.439 . S
Cd183 O193 2.240 1_554 S
Cd184 O185 2.240 . S
Cd184 O192 2.223 . S
Cd184 O194 2.297 . S
Cd184 O195 2.439 1_556 S
O185 Cd184 2.240 . S
O185 C190 1.279 . S
O186 Cd183 2.297 . S
O186 C188 1.247 . S
O187 Cd183 2.439 . S
O187 C188 1.208 . S
C188 O186 1.247 . S
C188 O187 1.208 . S
C189 O194 1.247 1_554 S
C189 O195 1.208 . S
C190 O182 1.315 . S
C190 O185 1.279 . S
C191 O192 1.315 . S
C191 O193 1.279 . S
O192 Cd184 2.223 . S
O192 C191 1.315 . S
O193 Cd183 2.240 1_556 S
O193 C191 1.279 . S
O194 Cd184 2.297 . S
O194 C189 1.247 1_556 S
O195 Cd184 2.439 1_554 S
O195 C189 1.208 . S
O196 Cd197 2.223 . S
O196 C204 1.315 . S
Cd197 O196 2.223 . S
Cd197 O200 2.297 . S
Cd197 O201 2.439 . S
Cd197 O207 2.240 . S
Cd198 O199 2.240 . S
Cd198 O206 2.223 . S
Cd198 O208 2.297 . S
Cd198 O209 2.439 . S
O199 Cd198 2.240 . S
O199 C204 1.279 . S
O200 Cd197 2.297 . S
O200 C202 1.247 . S
O201 Cd197 2.439 . S
O201 C202 1.208 . S
C202 O200 1.247 . S
C202 O201 1.208 . S
C203 O208 1.247 . S
C203 O209 1.208 . S
C204 O196 1.315 . S
C204 O199 1.279 . S
C205 O206 1.315 . S
C205 O207 1.279 . S
O206 Cd198 2.223 . S
O206 C205 1.315 . S
O207 Cd197 2.240 . S
O207 C205 1.279 . S
O208 Cd198 2.297 . S
O208 C203 1.247 . S
O209 Cd198 2.439 . S
O209 C203 1.208 . S
O210 Cd211 2.223 1_556 S
O210 C218 1.315 . S
Cd211 O210 2.223 1_554 S
Cd211 O214 2.297 . S
Cd211 O215 2.439 . S
Cd211 O221 2.240 1_554 S
Cd212 O213 2.240 . S
Cd212 O220 2.223 . S
Cd212 O222 2.297 1_545 S
Cd212 O223 2.439 1_556 S
O213 Cd212 2.240 . S
O213 C218 1.279 . S
O214 Cd211 2.297 . S
O214 C216 1.247 . S
O215 Cd211 2.439 . S
O215 C216 1.208 . S
C216 O214 1.247 . S
C216 O215 1.208 . S
C217 O222 1.247 1_554 S
C217 O223 1.208 1_565 S
C218 O210 1.315 . S
C218 O213 1.279 . S
C219 O220 1.315 . S
C219 O221 1.279 . S
O220 Cd212 2.223 . S
O220 C219 1.315 . S
O221 Cd211 2.240 1_556 S
O221 C219 1.279 . S
O222 Cd212 2.297 1_565 S
O222 C217 1.247 1_556 S
O223 Cd212 2.439 1_554 S
O223 C217 1.208 1_545 S
O224 Cd225 2.223 . S
O224 C232 1.315 . S
Cd225 O224 2.223 . S
Cd225 O228 2.297 . S
Cd225 O229 2.439 . S
Cd225 O235 2.240 . S
Cd226 O227 2.240 . S
Cd226 O234 2.223 . S
Cd226 O236 2.297 . S
Cd226 O237 2.439 . S
O227 Cd226 2.240 . S
O227 C232 1.279 . S
O228 Cd225 2.297 . S
O228 C230 1.247 . S
O229 Cd225 2.439 . S
O229 C230 1.208 . S
C230 O228 1.247 . S
C230 O229 1.208 . S
C231 O236 1.247 . S
C231 O237 1.208 . S
C232 O224 1.315 . S
C232 O227 1.279 . S
C233 O234 1.315 . S
C233 O235 1.279 . S
O234 Cd226 2.223 . S
O234 C233 1.315 . S
O235 Cd225 2.240 . S
O235 C233 1.279 . S
O236 Cd226 2.297 . S
O236 C231 1.247 . S
O237 Cd226 2.439 . S
O237 C231 1.208 . S
O238 Cd239 2.223 . S
O238 C246 1.315 . S
Cd239 O238 2.223 . S
Cd239 O242 2.297 . S
Cd239 O243 2.439 . S
Cd239 O249 2.240 . S
Cd240 O241 2.240 . S
Cd240 O248 2.223 . S
Cd240 O250 2.297 . S
Cd240 O251 2.439 . S
O241 Cd240 2.240 . S
O241 C246 1.279 . S
O242 Cd239 2.297 . S
O242 C244 1.247 . S
O243 Cd239 2.439 . S
O243 C244 1.208 . S
C244 O242 1.247 . S
C244 O243 1.208 . S
C245 O250 1.247 . S
C245 O251 1.208 . S
C246 O238 1.315 . S
C246 O241 1.279 . S
C247 O248 1.315 . S
C247 O249 1.279 . S
O248 Cd240 2.223 . S
O248 C247 1.315 . S
O249 Cd239 2.240 . S
O249 C247 1.279 . S
O250 Cd240 2.297 . S
O250 C245 1.247 . S
O251 Cd240 2.439 . S
O251 C245 1.208 . S
O252 Cd253 2.223 . S
O252 C260 1.315 . S
Cd253 O252 2.223 . S
Cd253 O256 2.297 . S
Cd253 O257 2.439 . S
Cd253 O263 2.240 . S
Cd254 O255 2.240 . S
Cd254 O262 2.223 . S
Cd254 O264 2.297 1_655 S
Cd254 O265 2.439 . S
O255 Cd254 2.240 . S
O255 C260 1.279 . S
O256 Cd253 2.297 . S
O256 C258 1.247 . S
O257 Cd253 2.439 . S
O257 C258 1.208 . S
C258 O256 1.247 . S
C258 O257 1.208 . S
C259 O264 1.247 . S
C259 O265 1.208 1_455 S
C260 O252 1.315 . S
C260 O255 1.279 . S
C261 O262 1.315 . S
C261 O263 1.279 . S
O262 Cd254 2.223 . S
O262 C261 1.315 . S
O263 Cd253 2.240 . S
O263 C261 1.279 . S
O264 Cd254 2.297 1_455 S
O264 C259 1.247 . S
O265 Cd254 2.439 . S
O265 C259 1.208 1_655 S
O266 Cd267 2.223 . S
O266 C274 1.315 . S
Cd267 O266 2.223 . S
Cd267 O270 2.297 . S
Cd267 O271 2.439 . S
Cd267 O277 2.240 . S
Cd268 O269 2.240 . S
Cd268 O276 2.223 . S
Cd268 O278 2.297 . S
Cd268 O279 2.439 . S
O269 Cd268 2.240 . S
O269 C274 1.279 . S
O270 Cd267 2.297 . S
O270 C272 1.247 . S
O271 Cd267 2.439 . S
O271 C272 1.208 . S
C272 O270 1.247 . S
C272 O271 1.208 . S
C273 O278 1.247 . S
C273 O279 1.208 . S
C274 O266 1.315 . S
C274 O269 1.279 . S
C275 O276 1.315 . S
C275 O277 1.279 . S
O276 Cd268 2.223 . S
O276 C275 1.315 . S
O277 Cd267 2.240 . S
O277 C275 1.279 . S
O278 Cd268 2.297 . S
O278 C273 1.247 . S
O279 Cd268 2.439 . S
O279 C273 1.208 . S
O280 Cd281 2.223 . S
O280 C288 1.315 . S
Cd281 O280 2.223 . S
Cd281 O284 2.297 . S
Cd281 O285 2.439 . S
Cd281 O291 2.240 . S
Cd282 O283 2.240 . S
Cd282 O290 2.223 . S
Cd282 O292 2.297 . S
Cd282 O293 2.439 . S
O283 Cd282 2.240 . S
O283 C288 1.279 . S
O284 Cd281 2.297 . S
O284 C286 1.247 . S
O285 Cd281 2.439 . S
O285 C286 1.208 . S
C286 O284 1.247 . S
C286 O285 1.208 . S
C287 O292 1.247 . S
C287 O293 1.208 . S
C288 O280 1.315 . S
C288 O283 1.279 . S
C289 O290 1.315 . S
C289 O291 1.279 . S
O290 Cd282 2.223 . S
O290 C289 1.315 . S
O291 Cd281 2.240 . S
O291 C289 1.279 . S
O292 Cd282 2.297 . S
O292 C287 1.247 . S
O293 Cd282 2.439 . S
O293 C287 1.208 . S
O294 Cd295 2.223 . S
O294 C302 1.315 . S
Cd295 O294 2.223 . S
Cd295 O298 2.297 . S
Cd295 O299 2.439 . S
Cd295 O305 2.240 . S
Cd296 O297 2.240 . S
Cd296 O304 2.223 . S
Cd296 O306 2.297 . S
Cd296 O307 2.439 . S
O297 Cd296 2.240 . S
O297 C302 1.279 . S
O298 Cd295 2.297 . S
O298 C300 1.247 . S
O299 Cd295 2.439 . S
O299 C300 1.208 . S
C300 O298 1.247 . S
C300 O299 1.208 . S
C301 O306 1.247 . S
C301 O307 1.208 . S
C302 O294 1.315 . S
C302 O297 1.279 . S
C303 O304 1.315 . S
C303 O305 1.279 . S
O304 Cd296 2.223 . S
O304 C303 1.315 . S
O305 Cd295 2.240 . S
O305 C303 1.279 . S
O306 Cd296 2.297 . S
O306 C301 1.247 . S
O307 Cd296 2.439 . S
O307 C301 1.208 . S
O308 Cd309 2.223 . S
O308 C316 1.315 . S
Cd309 O308 2.223 . S
Cd309 O312 2.297 . S
Cd309 O313 2.439 . S
Cd309 O319 2.240 . S
Cd310 O311 2.240 . S
Cd310 O318 2.223 . S
Cd310 O320 2.297 1_655 S
Cd310 O321 2.439 . S
O311 Cd310 2.240 . S
O311 C316 1.279 . S
O312 Cd309 2.297 . S
O312 C314 1.247 . S
O313 Cd309 2.439 . S
O313 C314 1.208 . S
C314 O312 1.247 . S
C314 O313 1.208 . S
C315 O320 1.247 . S
C315 O321 1.208 1_455 S
C316 O308 1.315 . S
C316 O311 1.279 . S
C317 O318 1.315 . S
C317 O319 1.279 . S
O318 Cd310 2.223 . S
O318 C317 1.315 . S
O319 Cd309 2.240 . S
O319 C317 1.279 . S
O320 Cd310 2.297 1_455 S
O320 C315 1.247 . S
O321 Cd310 2.439 . S
O321 C315 1.208 1_655 S
O322 Cd323 2.213 1_545 S
O322 C330 1.315 . S
Cd323 O322 2.213 1_565 S
Cd323 O326 2.302 . S
Cd323 O327 2.447 . S
Cd323 O333 2.237 1_565 S
Cd324 O325 2.240 . S
Cd324 O332 2.223 . S
Cd324 O334 2.297 1_455 S
Cd324 O335 2.439 1_545 S
O325 Cd324 2.240 . S
O325 C330 1.279 . S
O326 Cd323 2.302 . S
O326 C328 1.247 . S
O327 Cd323 2.447 . S
O327 C328 1.208 . S
C328 O326 1.247 . S
C328 O327 1.208 . S
C329 O334 1.247 1_565 S
C329 O335 1.208 1_655 S
C330 O322 1.315 . S
C330 O325 1.279 . S
C331 O332 1.315 . S
C331 O333 1.279 . S
O332 Cd324 2.223 . S
O332 C331 1.315 . S
O333 Cd323 2.237 1_545 S
O333 C331 1.279 . S
O334 Cd324 2.297 1_655 S
O334 C329 1.247 1_545 S
O335 Cd324 2.439 1_565 S
O335 C329 1.208 1_455 S
O336 Cd337 2.223 . S
O336 C344 1.315 . S
Cd337 O336 2.223 . S
Cd337 O340 2.297 . S
Cd337 O341 2.439 . S
Cd337 O347 2.240 . S
Cd338 O339 2.240 . S
Cd338 O346 2.223 . S
Cd338 O348 2.297 . S
Cd338 O349 2.439 . S
O339 Cd338 2.240 . S
O339 C344 1.279 . S
O340 Cd337 2.297 . S
O340 C342 1.247 . S
O341 Cd337 2.439 . S
O341 C342 1.208 . S
C342 O340 1.247 . S
C342 O341 1.208 . S
C343 O348 1.247 . S
C343 O349 1.208 . S
C344 O336 1.315 . S
C344 O339 1.279 . S
C345 O346 1.315 . S
C345 O347 1.279 . S
O346 Cd338 2.223 . S
O346 C345 1.315 . S
O347 Cd337 2.240 . S
O347 C345 1.279 . S
O348 Cd338 2.297 . S
O348 C343 1.247 . S
O349 Cd338 2.439 . S
O349 C343 1.208 . S
O350 Cd351 2.223 1_655 S
O350 C358 1.315 . S
Cd351 O350 2.223 1_455 S
Cd351 O354 2.297 . S
Cd351 O355 2.439 . S
Cd351 O361 2.240 1_455 S
Cd352 O353 2.240 . S
Cd352 O360 2.223 . S
Cd352 O362 2.297 1_655 S
Cd352 O363 2.439 1_655 S
O353 Cd352 2.240 . S
O353 C358 1.279 . S
O354 Cd351 2.297 . S
O354 C356 1.247 . S
O355 Cd351 2.439 . S
O355 C356 1.208 . S
C356 O354 1.247 . S
C356 O355 1.208 . S
C357 O362 1.247 . S
C357 O363 1.208 . S
C358 O350 1.315 . S
C358 O353 1.279 . S
C359 O360 1.315 . S
C359 O361 1.279 . S
O360 Cd352 2.223 . S
O360 C359 1.315 . S
O361 Cd351 2.240 1_655 S
O361 C359 1.279 . S
O362 Cd352 2.297 1_455 S
O362 C357 1.247 . S
O363 Cd352 2.439 1_455 S
O363 C357 1.208 . S
O364 Cd365 2.223 . S
O364 C372 1.315 . S
Cd365 O364 2.223 . S
Cd365 O368 2.297 . S
Cd365 O369 2.439 . S
Cd365 O375 2.240 . S
Cd366 O367 2.240 . S
Cd366 O374 2.223 . S
Cd366 O376 2.297 . S
Cd366 O377 2.439 . S
O367 Cd366 2.240 . S
O367 C372 1.279 . S
O368 Cd365 2.297 . S
O368 C370 1.247 . S
O369 Cd365 2.439 . S
O369 C370 1.208 . S
C370 O368 1.247 . S
C370 O369 1.208 . S
C371 O376 1.247 . S
C371 O377 1.208 . S
C372 O364 1.315 . S
C372 O367 1.279 . S
C373 O374 1.315 . S
C373 O375 1.279 . S
O374 Cd366 2.223 . S
O374 C373 1.315 . S
O375 Cd365 2.240 . S
O375 C373 1.279 . S
O376 Cd366 2.297 . S
O376 C371 1.247 . S
O377 Cd366 2.439 . S
O377 C371 1.208 . S
O378 Cd379 2.223 1_455 S
O378 C386 1.315 . S
Cd379 O378 2.223 1_655 S
Cd379 O382 2.297 . S
Cd379 O383 2.439 . S
Cd379 O389 2.240 1_655 S
Cd380 O381 2.240 . S
Cd380 O388 2.223 . S
Cd380 O390 2.297 1_455 S
Cd380 O391 2.439 1_455 S
O381 Cd380 2.240 . S
O381 C386 1.279 . S
O382 Cd379 2.297 . S
O382 C384 1.247 . S
O383 Cd379 2.439 . S
O383 C384 1.208 . S
C384 O382 1.247 . S
C384 O383 1.208 . S
C385 O390 1.247 . S
C385 O391 1.208 . S
C386 O378 1.315 . S
C386 O381 1.279 . S
C387 O388 1.315 . S
C387 O389 1.279 . S
O388 Cd380 2.223 . S
O388 C387 1.315 . S
O389 Cd379 2.240 1_455 S
O389 C387 1.279 . S
O390 Cd380 2.297 1_655 S
O390 C385 1.247 . S
O391 Cd380 2.439 1_655 S
O391 C385 1.208 . S
O392 Cd393 2.223 . S
O392 C400 1.315 . S
Cd393 O392 2.223 . S
Cd393 O396 2.297 . S
Cd393 O397 2.439 . S
Cd393 O403 2.240 . S
Cd394 O395 2.240 . S
Cd394 O402 2.223 . S
Cd394 O404 2.297 . S
Cd394 O405 2.439 . S
O395 Cd394 2.240 . S
O395 C400 1.279 . S
O396 Cd393 2.297 . S
O396 C398 1.247 . S
O397 Cd393 2.439 . S
O397 C398 1.208 . S
C398 O396 1.247 . S
C398 O397 1.208 . S
C399 O404 1.247 . S
C399 O405 1.208 . S
C400 O392 1.315 . S
C400 O395 1.279 . S
C401 O402 1.315 . S
C401 O403 1.279 . S
O402 Cd394 2.223 . S
O402 C401 1.315 . S
O403 Cd393 2.240 . S
O403 C401 1.279 . S
O404 Cd394 2.297 . S
O404 C399 1.247 . S
O405 Cd394 2.439 . S
O405 C399 1.208 . S
O406 Cd407 2.223 . S
O406 C414 1.315 . S
Cd407 O406 2.223 . S
Cd407 O410 2.297 . S
Cd407 O411 2.439 . S
Cd407 O417 2.240 . S
Cd408 O409 2.240 . S
Cd408 O416 2.223 . S
Cd408 O418 2.297 . S
Cd408 O419 2.439 . S
O409 Cd408 2.240 . S
O409 C414 1.279 . S
O410 Cd407 2.297 . S
O410 C412 1.247 . S
O411 Cd407 2.439 . S
O411 C412 1.208 . S
C412 O410 1.247 . S
C412 O411 1.208 . S
C413 O418 1.247 . S
C413 O419 1.208 . S
C414 O406 1.315 . S
C414 O409 1.279 . S
C415 O416 1.315 . S
C415 O417 1.279 . S
O416 Cd408 2.223 . S
O416 C415 1.315 . S
O417 Cd407 2.240 . S
O417 C415 1.279 . S
O418 Cd408 2.297 . S
O418 C413 1.247 . S
O419 Cd408 2.439 . S
O419 C413 1.208 . S
O420 Cd421 2.223 . S
O420 C428 1.315 . S
Cd421 O420 2.223 . S
Cd421 O424 2.297 . S
Cd421 O425 2.439 . S
Cd421 O431 2.240 . S
Cd422 O423 2.240 . S
Cd422 O430 2.223 . S
Cd422 O432 2.297 . S
Cd422 O433 2.439 . S
O423 Cd422 2.240 . S
O423 C428 1.279 . S
O424 Cd421 2.297 . S
O424 C426 1.247 . S
O425 Cd421 2.439 . S
O425 C426 1.208 . S
C426 O424 1.247 . S
C426 O425 1.208 . S
C427 O432 1.247 . S
C427 O433 1.208 . S
C428 O420 1.315 . S
C428 O423 1.279 . S
C429 O430 1.315 . S
C429 O431 1.279 . S
O430 Cd422 2.223 . S
O430 C429 1.315 . S
O431 Cd421 2.240 . S
O431 C429 1.279 . S
O432 Cd422 2.297 . S
O432 C427 1.247 . S
O433 Cd422 2.439 . S
O433 C427 1.208 . S
O434 Cd435 2.223 . S
O434 C442 1.315 . S
Cd435 O434 2.223 . S
Cd435 O438 2.297 . S
Cd435 O439 2.439 . S
Cd435 O445 2.240 . S
Cd436 O437 2.240 . S
Cd436 O444 2.223 . S
Cd436 O446 2.297 . S
Cd436 O447 2.439 . S
O437 Cd436 2.240 . S
O437 C442 1.279 . S
O438 Cd435 2.297 . S
O438 C440 1.247 . S
O439 Cd435 2.439 . S
O439 C440 1.208 . S
C440 O438 1.247 . S
C440 O439 1.208 . S
C441 O446 1.247 . S
C441 O447 1.208 . S
C442 O434 1.315 . S
C442 O437 1.279 . S
C443 O444 1.315 . S
C443 O445 1.279 . S
O444 Cd436 2.223 . S
O444 C443 1.315 . S
O445 Cd435 2.240 . S
O445 C443 1.279 . S
O446 Cd436 2.297 . S
O446 C441 1.247 . S
O447 Cd436 2.439 . S
O447 C441 1.208 . S
O448 Cd449 2.223 . S
O448 C456 1.315 . S
Cd449 O448 2.223 . S
Cd449 O452 2.297 . S
Cd449 O453 2.439 . S
Cd449 O459 2.240 . S
Cd450 O451 2.240 . S
Cd450 O458 2.223 . S
Cd450 O460 2.297 . S
Cd450 O461 2.439 . S
O451 Cd450 2.240 . S
O451 C456 1.279 . S
O452 Cd449 2.297 . S
O452 C454 1.247 . S
O453 Cd449 2.439 . S
O453 C454 1.208 . S
C454 O452 1.247 . S
C454 O453 1.208 . S
C455 O460 1.247 . S
C455 O461 1.208 . S
C456 O448 1.315 . S
C456 O451 1.279 . S
C457 O458 1.315 . S
C457 O459 1.279 . S
O458 Cd450 2.223 . S
O458 C457 1.315 . S
O459 Cd449 2.240 . S
O459 C457 1.279 . S
O460 Cd450 2.297 . S
O460 C455 1.247 . S
O461 Cd450 2.439 . S
O461 C455 1.208 . S
O462 Cd463 2.223 . S
O462 C470 1.315 . S
Cd463 O462 2.223 . S
Cd463 O466 2.297 . S
Cd463 O467 2.439 . S
Cd463 O473 2.240 . S
Cd464 O465 2.240 . S
Cd464 O472 2.223 . S
Cd464 O474 2.297 1_565 S
Cd464 O475 2.439 . S
O465 Cd464 2.240 . S
O465 C470 1.279 . S
O466 Cd463 2.297 . S
O466 C468 1.247 . S
O467 Cd463 2.439 . S
O467 C468 1.208 . S
C468 O466 1.247 . S
C468 O467 1.208 . S
C469 O474 1.247 . S
C469 O475 1.208 1_545 S
C470 O462 1.315 . S
C470 O465 1.279 . S
C471 O472 1.315 . S
C471 O473 1.279 . S
O472 Cd464 2.223 . S
O472 C471 1.315 . S
O473 Cd463 2.240 . S
O473 C471 1.279 . S
O474 Cd464 2.297 1_545 S
O474 C469 1.247 . S
O475 Cd464 2.439 . S
O475 C469 1.208 1_565 S
O476 Cd477 2.223 . S
O476 C484 1.315 . S
Cd477 O476 2.223 . S
Cd477 O480 2.297 . S
Cd477 O481 2.439 . S
Cd477 O487 2.240 . S
Cd478 O479 2.240 . S
Cd478 O486 2.223 . S
Cd478 O488 2.297 . S
Cd478 O489 2.439 . S
O479 Cd478 2.240 . S
O479 C484 1.279 . S
O480 Cd477 2.297 . S
O480 C482 1.247 . S
O481 Cd477 2.439 . S
O481 C482 1.208 . S
C482 O480 1.247 . S
C482 O481 1.208 . S
C483 O488 1.247 . S
C483 O489 1.208 . S
C484 O476 1.315 . S
C484 O479 1.279 . S
C485 O486 1.315 . S
C485 O487 1.279 . S
O486 Cd478 2.223 . S
O486 C485 1.315 . S
O487 Cd477 2.240 . S
O487 C485 1.279 . S
O488 Cd478 2.297 . S
O488 C483 1.247 . S
O489 Cd478 2.439 . S
O489 C483 1.208 . S
O490 Cd491 2.223 . S
O490 C498 1.315 . S
Cd491 O490 2.223 . S
Cd491 O494 2.297 . S
Cd491 O495 2.439 . S
Cd491 O501 2.240 . S
Cd492 O493 2.240 . S
Cd492 O500 2.223 . S
Cd492 O502 2.297 . S
Cd492 O503 2.439 . S
O493 Cd492 2.240 . S
O493 C498 1.279 . S
O494 Cd491 2.297 . S
O494 C496 1.247 . S
O495 Cd491 2.439 . S
O495 C496 1.208 . S
C496 O494 1.247 . S
C496 O495 1.208 . S
C497 O502 1.247 . S
C497 O503 1.208 . S
C498 O490 1.315 . S
C498 O493 1.279 . S
C499 O500 1.315 . S
C499 O501 1.279 . S
O500 Cd492 2.223 . S
O500 C499 1.315 . S
O501 Cd491 2.240 . S
O501 C499 1.279 . S
O502 Cd492 2.297 . S
O502 C497 1.247 . S
O503 Cd492 2.439 . S
O503 C497 1.208 . S
O504 Cd505 2.223 . S
O504 C512 1.315 . S
Cd505 O504 2.223 . S
Cd505 O508 2.297 . S
Cd505 O509 2.439 . S
Cd505 O515 2.240 . S
Cd506 O507 2.240 . S
Cd506 O514 2.223 . S
Cd506 O516 2.297 . S
Cd506 O517 2.439 . S
O507 Cd506 2.240 . S
O507 C512 1.279 . S
O508 Cd505 2.297 . S
O508 C510 1.247 . S
O509 Cd505 2.439 . S
O509 C510 1.208 . S
C510 O508 1.247 . S
C510 O509 1.208 . S
C511 O516 1.247 . S
C511 O517 1.208 . S
C512 O504 1.315 . S
C512 O507 1.279 . S
C513 O514 1.315 . S
C513 O515 1.279 . S
O514 Cd506 2.223 . S
O514 C513 1.315 . S
O515 Cd505 2.240 . S
O515 C513 1.279 . S
O516 Cd506 2.297 . S
O516 C511 1.247 . S
O517 Cd506 2.439 . S
O517 C511 1.208 . S
O518 Cd519 2.223 . S
O518 C526 1.315 . S
Cd519 O518 2.223 . S
Cd519 O522 2.297 . S
Cd519 O523 2.439 . S
Cd519 O529 2.240 . S
Cd520 O521 2.240 . S
Cd520 O528 2.223 . S
Cd520 O530 2.297 1_565 S
Cd520 O531 2.439 . S
O521 Cd520 2.240 . S
O521 C526 1.279 . S
O522 Cd519 2.297 . S
O522 C524 1.247 . S
O523 Cd519 2.439 . S
O523 C524 1.208 . S
C524 O522 1.247 . S
C524 O523 1.208 . S
C525 O530 1.247 . S
C525 O531 1.208 1_545 S
C526 O518 1.315 . S
C526 O521 1.279 . S
C527 O528 1.315 . S
C527 O529 1.279 . S
O528 Cd520 2.223 . S
O528 C527 1.315 . S
O529 Cd519 2.240 . S
O529 C527 1.279 . S
O530 Cd520 2.297 1_545 S
O530 C525 1.247 . S
O531 Cd520 2.439 . S
O531 C525 1.208 1_565 S
O532 Cd533 2.223 . S
O532 C540 1.315 . S
Cd533 O532 2.223 . S
Cd533 O536 2.297 . S
Cd533 O537 2.439 . S
Cd533 O543 2.240 . S
Cd534 O535 2.240 . S
Cd534 O542 2.223 . S
Cd534 O544 2.297 . S
Cd534 O545 2.439 . S
O535 Cd534 2.240 . S
O535 C540 1.279 . S
O536 Cd533 2.297 . S
O536 C538 1.247 . S
O537 Cd533 2.439 . S
O537 C538 1.208 . S
C538 O536 1.247 . S
C538 O537 1.208 . S
C539 O544 1.247 . S
C539 O545 1.208 . S
C540 O532 1.315 . S
C540 O535 1.279 . S
C541 O542 1.315 . S
C541 O543 1.279 . S
O542 Cd534 2.223 . S
O542 C541 1.315 . S
O543 Cd533 2.240 . S
O543 C541 1.279 . S
O544 Cd534 2.297 . S
O544 C539 1.247 . S
O545 Cd534 2.439 . S
O545 C539 1.208 . S
O546 Cd547 2.223 . S
O546 C554 1.315 . S
Cd547 O546 2.223 . S
Cd547 O550 2.297 . S
Cd547 O551 2.439 . S
Cd547 O557 2.240 . S
Cd548 O549 2.240 . S
Cd548 O556 2.223 . S
Cd548 O558 2.297 . S
Cd548 O559 2.439 . S
O549 Cd548 2.240 . S
O549 C554 1.279 . S
O550 Cd547 2.297 . S
O550 C552 1.247 . S
O551 Cd547 2.439 . S
O551 C552 1.208 . S
C552 O550 1.247 . S
C552 O551 1.208 . S
C553 O558 1.247 . S
C553 O559 1.208 . S
C554 O546 1.315 . S
C554 O549 1.279 . S
C555 O556 1.315 . S
C555 O557 1.279 . S
O556 Cd548 2.223 . S
O556 C555 1.315 . S
O557 Cd547 2.240 . S
O557 C555 1.279 . S
O558 Cd548 2.297 . S
O558 C553 1.247 . S
O559 Cd548 2.439 . S
O559 C553 1.208 . S
O560 Cd561 2.223 . S
O560 C568 1.315 . S
Cd561 O560 2.223 . S
Cd561 O564 2.297 . S
Cd561 O565 2.439 . S
Cd561 O571 2.240 . S
Cd562 O563 2.240 . S
Cd562 O570 2.223 . S
Cd562 O572 2.297 . S
Cd562 O573 2.439 . S
O563 Cd562 2.240 . S
O563 C568 1.279 . S
O564 Cd561 2.297 . S
O564 C566 1.247 . S
O565 Cd561 2.439 . S
O565 C566 1.208 . S
C566 O564 1.247 . S
C566 O565 1.208 . S
C567 O572 1.247 . S
C567 O573 1.208 . S
C568 O560 1.315 . S
C568 O563 1.279 . S
C569 O570 1.315 . S
C569 O571 1.279 . S
O570 Cd562 2.223 . S
O570 C569 1.315 . S
O571 Cd561 2.240 . S
O571 C569 1.279 . S
O572 Cd562 2.297 . S
O572 C567 1.247 . S
O573 Cd562 2.439 . S
O573 C567 1.208 . S
O574 Cd575 2.223 . S
O574 C582 1.315 . S
Cd575 O574 2.223 . S
Cd575 O578 2.297 . S
Cd575 O579 2.439 . S
Cd575 O585 2.240 . S
Cd576 O577 2.240 . S
Cd576 O584 2.223 . S
Cd576 O586 2.297 . S
Cd576 O587 2.439 . S
O577 Cd576 2.240 . S
O577 C582 1.279 . S
O578 Cd575 2.297 . S
O578 C580 1.247 . S
O579 Cd575 2.439 . S
O579 C580 1.208 . S
C580 O578 1.247 . S
C580 O579 1.208 . S
C581 O586 1.247 . S
C581 O587 1.208 . S
C582 O574 1.315 . S
C582 O577 1.279 . S
C583 O584 1.315 . S
C583 O585 1.279 . S
O584 Cd576 2.223 . S
O584 C583 1.315 . S
O585 Cd575 2.240 . S
O585 C583 1.279 . S
O586 Cd576 2.297 . S
O586 C581 1.247 . S
O587 Cd576 2.439 . S
O587 C581 1.208 . S
O588 Cd589 2.223 1_545 S
O588 C596 1.315 . S
Cd589 O588 2.223 1_565 S
Cd589 O592 2.297 . S
Cd589 O593 2.439 . S
Cd589 O599 2.240 1_565 S
Cd590 O591 2.240 . S
Cd590 O598 2.223 . S
Cd590 O600 2.297 . S
Cd590 O601 2.439 1_545 S
O591 Cd590 2.240 . S
O591 C596 1.279 . S
O592 Cd589 2.297 . S
O592 C594 1.247 . S
O593 Cd589 2.439 . S
O593 C594 1.208 . S
C594 O592 1.247 . S
C594 O593 1.208 . S
C595 O600 1.247 1_565 S
C595 O601 1.208 . S
C596 O588 1.315 . S
C596 O591 1.279 . S
C597 O598 1.315 . S
C597 O599 1.279 . S
O598 Cd590 2.223 . S
O598 C597 1.315 . S
O599 Cd589 2.240 1_545 S
O599 C597 1.279 . S
O600 Cd590 2.297 . S
O600 C595 1.247 1_545 S
O601 Cd590 2.439 1_565 S
O601 C595 1.208 . S
O602 Cd603 2.223 . S
O602 C610 1.315 . S
Cd603 O602 2.223 . S
Cd603 O606 2.297 . S
Cd603 O607 2.439 . S
Cd603 O613 2.240 . S
Cd604 O605 2.240 . S
Cd604 O612 2.223 . S
Cd604 O614 2.297 . S
Cd604 O615 2.439 . S
O605 Cd604 2.240 . S
O605 C610 1.279 . S
O606 Cd603 2.297 . S
O606 C608 1.247 . S
O607 Cd603 2.439 . S
O607 C608 1.208 . S
C608 O606 1.247 . S
C608 O607 1.208 . S
C609 O614 1.247 . S
C609 O615 1.208 . S
C610 O602 1.315 . S
C610 O605 1.279 . S
C611 O612 1.315 . S
C611 O613 1.279 . S
O612 Cd604 2.223 . S
O612 C611 1.315 . S
O613 Cd603 2.240 . S
O613 C611 1.279 . S
O614 Cd604 2.297 . S
O614 C609 1.247 . S
O615 Cd604 2.439 . S
O615 C609 1.208 . S
O616 Cd617 2.211 1_565 S
O616 C624 1.315 . S
Cd617 O616 2.211 1_545 S
Cd617 O620 2.303 . S
Cd617 O621 2.448 . S
Cd617 O627 2.237 1_545 S
Cd618 O619 2.240 . S
Cd618 O626 2.223 . S
Cd618 O628 2.297 1_455 S
Cd618 O629 2.439 1_565 S
O619 Cd618 2.240 . S
O619 C624 1.279 . S
O620 Cd617 2.303 . S
O620 C622 1.247 . S
O621 Cd617 2.448 . S
O621 C622 1.208 . S
C622 O620 1.247 . S
C622 O621 1.208 . S
C623 O628 1.247 1_545 S
C623 O629 1.208 1_655 S
C624 O616 1.315 . S
C624 O619 1.279 . S
C625 O626 1.315 . S
C625 O627 1.279 . S
O626 Cd618 2.223 . S
O626 C625 1.315 . S
O627 Cd617 2.237 1_565 S
O627 C625 1.279 . S
O628 Cd618 2.297 1_655 S
O628 C623 1.247 1_565 S
O629 Cd618 2.439 1_545 S
O629 C623 1.208 1_455 S
O630 Cd631 2.223 . S
O630 C638 1.315 . S
Cd631 O630 2.223 . S
Cd631 O634 2.297 . S
Cd631 O635 2.439 . S
Cd631 O641 2.240 . S
Cd632 O633 2.240 . S
Cd632 O640 2.223 . S
Cd632 O642 2.297 . S
Cd632 O643 2.439 . S
O633 Cd632 2.240 . S
O633 C638 1.279 . S
O634 Cd631 2.297 . S
O634 C636 1.247 . S
O635 Cd631 2.439 . S
O635 C636 1.208 . S
C636 O634 1.247 . S
C636 O635 1.208 . S
C637 O642 1.247 . S
C637 O643 1.208 . S
C638 O630 1.315 . S
C638 O633 1.279 . S
C639 O640 1.315 . S
C639 O641 1.279 . S
O640 Cd632 2.223 . S
O640 C639 1.315 . S
O641 Cd631 2.240 . S
O641 C639 1.279 . S
O642 Cd632 2.297 . S
O642 C637 1.247 . S
O643 Cd632 2.439 . S
O643 C637 1.208 . S
O644 Cd645 2.223 1_565 S
O644 C652 1.315 . S
Cd645 O644 2.223 1_545 S
Cd645 O648 2.297 . S
Cd645 O649 2.439 . S
Cd645 O655 2.240 1_545 S
Cd646 O647 2.240 . S
Cd646 O654 2.223 . S
Cd646 O656 2.297 . S
Cd646 O657 2.439 1_565 S
O647 Cd646 2.240 . S
O647 C652 1.279 . S
O648 Cd645 2.297 . S
O648 C650 1.247 . S
O649 Cd645 2.439 . S
O649 C650 1.208 . S
C650 O648 1.247 . S
C650 O649 1.208 . S
C651 O656 1.247 1_545 S
C651 O657 1.208 . S
C652 O644 1.315 . S
C652 O647 1.279 . S
C653 O654 1.315 . S
C653 O655 1.279 . S
O654 Cd646 2.223 . S
O654 C653 1.315 . S
O655 Cd645 2.240 1_565 S
O655 C653 1.279 . S
O656 Cd646 2.297 . S
O656 C651 1.247 1_565 S
O657 Cd646 2.439 1_545 S
O657 C651 1.208 . S
O658 Cd659 2.223 . S
O658 C666 1.315 . S
Cd659 O658 2.223 . S
Cd659 O662 2.297 . S
Cd659 O663 2.439 . S
Cd659 O669 2.240 . S
Cd660 O661 2.240 . S
Cd660 O668 2.223 . S
Cd660 O670 2.297 . S
Cd660 O671 2.439 . S
O661 Cd660 2.240 . S
O661 C666 1.279 . S
O662 Cd659 2.297 . S
O662 C664 1.247 . S
O663 Cd659 2.439 . S
O663 C664 1.208 . S
C664 O662 1.247 . S
C664 O663 1.208 . S
C665 O670 1.247 . S
C665 O671 1.208 . S
C666 O658 1.315 . S
C666 O661 1.279 . S
C667 O668 1.315 . S
C667 O669 1.279 . S
O668 Cd660 2.223 . S
O668 C667 1.315 . S
O669 Cd659 2.240 . S
O669 C667 1.279 . S
O670 Cd660 2.297 . S
O670 C665 1.247 . S
O671 Cd660 2.439 . S
O671 C665 1.208 . S
C231 C7 2.219 . S
C667 C21 1.283 . S
C35 C637 2.219 . S
C49 C653 1.283 . S
C245 C63 2.219 . S
C77 C261 1.955 . S
C91 C273 2.219 . S
C625 C105 1.955 . S
C121 C9 1.512 . S
C23 C133 1.573 . S
C37 C149 1.512 . S
C51 C161 1.573 . S
C65 C177 1.512 . S
C189 C79 1.217 . S
C93 C205 1.512 . S
C217 C107 1.217 . S
C233 C119 1.853 . S
C175 C247 1.853 . S
C259 C191 1.737 . S
C275 C203 1.852 . S
C555 C287 1.843 . S
C303 C483 1.881 . S
C499 C315 1.738 . S
C471 C329 1.737 . S
C567 C343 1.961 . S
C357 C331 1.955 . S
C371 C301 1.961 . S
C385 C317 1.955 . S
C399 C581 1.961 . S
C597 C413 1.283 . S
C427 C609 1.961 . S
C289 C441 1.283 . S
C345 C457 1.901 . S
C469 C359 1.217 . S
C485 C373 1.901 . S
C497 C387 1.217 . S
C513 C401 1.901 . S
C525 C415 1.573 . S
C429 C541 1.901 . S
C443 C553 1.573 . S
C455 C569 1.881 . S
C511 C583 1.881 . S
C527 C595 1.843 . S
C611 C539 1.881 . S
C623 C219 1.737 . S
C639 C147 1.852 . S
C163 C651 1.843 . S
C665 C135 1.843 . S
C6 C386 1.952 . S
C344 C20 2.282 . S
C34 C358 1.951 . S
C48 C372 2.282 . S
C62 C78 1.952 . S
C92 C76 2.410 . S
C90 C106 1.951 . S
C104 C64 2.410 . S
C120 C596 1.780 . S
C132 C608 2.374 . S
C148 C288 1.779 . S
C160 C580 2.375 . S
C176 C652 1.780 . S
C230 C188 2.309 . S
C204 C666 1.779 . S
C636 C216 2.308 . S
C134 C232 1.949 . S
C246 C554 1.949 . S
C258 C510 2.031 . S
C526 C274 1.949 . S
C286 C202 1.871 . S
C498 C302 1.796 . S
C454 C314 2.031 . S
C482 C328 2.031 . S
C342 C50 2.810 . S
C356 C8 2.410 . S
C22 C370 2.810 . S
C384 C36 2.410 . S
C398 C414 2.810 . S
C428 C412 2.282 . S
C442 C426 2.810 . S
C440 C400 2.282 . S
C260 C456 1.915 . S
C468 C272 2.309 . S
C484 C624 1.915 . S
C496 C244 2.309 . S
C512 C316 1.915 . S
C524 C566 2.375 . S
C330 C540 1.915 . S
C552 C300 2.374 . S
C470 C568 1.795 . S
C218 C582 1.795 . S
C174 C594 1.871 . S
C610 C190 1.796 . S
C622 C538 2.031 . S
C162 C638 1.949 . S
C650 C118 1.871 . S
C146 C664 1.871 . S
