# Generated by pormake.
# Topology ums, (4)-cn, num edge types: 1
# Building blocks:
#     Node 0, Type 0, BuildingBlock: NAHDIM_clean_sbu_0, # of connection points: 4
#     Node 1, Type 0, BuildingBlock: NAHDIM_clean_sbu_0, # of connection points: 4
#     Node 2, Type 0, BuildingBlock: NAHDIM_clean_sbu_0, # of connection points: 4
#     Node 3, Type 0, BuildingBlock: NAHDIM_clean_sbu_0, # of connection points: 4
#     Node 4, Type 0, BuildingBlock: NAHDIM_clean_sbu_0, # of connection points: 4
#     Node 5, Type 0, BuildingBlock: NAHDIM_clean_sbu_0, # of connection points: 4
#     Node 6, Type 0, BuildingBlock: NAHDIM_clean_sbu_0, # of connection points: 4
#     Node 7, Type 0, BuildingBlock: NAHDIM_clean_sbu_0, # of connection points: 4
#     Node 8, Type 0, BuildingBlock: NAHDIM_clean_sbu_0, # of connection points: 4
#     Node 9, Type 0, BuildingBlock: NAHDIM_clean_sbu_0, # of connection points: 4
#     Node 10, Type 0, BuildingBlock: NAHDIM_clean_sbu_0, # of connection points: 4
#     Node 11, Type 0, BuildingBlock: NAHDIM_clean_sbu_0, # of connection points: 4
#     Node 12, Type 0, BuildingBlock: NAHDIM_clean_sbu_0, # of connection points: 4
#     Node 13, Type 0, BuildingBlock: NAHDIM_clean_sbu_0, # of connection points: 4
#     Node 14, Type 0, BuildingBlock: NAHDIM_clean_sbu_0, # of connection points: 4
#     Node 15, Type 0, BuildingBlock: NAHDIM_clean_sbu_0, # of connection points: 4
#     Node 16, Type 0, BuildingBlock: NAHDIM_clean_sbu_0, # of connection points: 4
#     Node 17, Type 0, BuildingBlock: NAHDIM_clean_sbu_0, # of connection points: 4
#     Node 18, Type 0, BuildingBlock: NAHDIM_clean_sbu_0, # of connection points: 4
#     Node 19, Type 0, BuildingBlock: NAHDIM_clean_sbu_0, # of connection points: 4
#     Node 20, Type 0, BuildingBlock: NAHDIM_clean_sbu_0, # of connection points: 4
#     Node 21, Type 0, BuildingBlock: NAHDIM_clean_sbu_0, # of connection points: 4
#     Node 22, Type 0, BuildingBlock: NAHDIM_clean_sbu_0, # of connection points: 4
#     Node 23, Type 0, BuildingBlock: NAHDIM_clean_sbu_0, # of connection points: 4
#     Node 24, Type 0, BuildingBlock: NAHDIM_clean_sbu_0, # of connection points: 4
#     Node 25, Type 0, BuildingBlock: NAHDIM_clean_sbu_0, # of connection points: 4
#     Node 26, Type 0, BuildingBlock: NAHDIM_clean_sbu_0, # of connection points: 4
#     Node 27, Type 0, BuildingBlock: NAHDIM_clean_sbu_0, # of connection points: 4
#     Node 28, Type 0, BuildingBlock: NAHDIM_clean_sbu_0, # of connection points: 4
#     Node 29, Type 0, BuildingBlock: NAHDIM_clean_sbu_0, # of connection points: 4
#     Node 30, Type 0, BuildingBlock: NAHDIM_clean_sbu_0, # of connection points: 4
#     Node 31, Type 0, BuildingBlock: NAHDIM_clean_sbu_0, # of connection points: 4
#     Node 32, Type 0, BuildingBlock: NAHDIM_clean_sbu_0, # of connection points: 4
#     Node 33, Type 0, BuildingBlock: NAHDIM_clean_sbu_0, # of connection points: 4
#     Node 34, Type 0, BuildingBlock: NAHDIM_clean_sbu_0, # of connection points: 4
#     Node 35, Type 0, BuildingBlock: NAHDIM_clean_sbu_0, # of connection points: 4
#     Edge 36, Type (0, 0), BuildingBlock: XIVTED_clean_linker_0, # of connection points: 2
#     Edge 37, Type (0, 0), BuildingBlock: XIVTED_clean_linker_0, # of connection points: 2
#     Edge 38, Type (0, 0), BuildingBlock: XIVTED_clean_linker_0, # of connection points: 2
#     Edge 39, Type (0, 0), BuildingBlock: XIVTED_clean_linker_0, # of connection points: 2
#     Edge 40, Type (0, 0), BuildingBlock: XIVTED_clean_linker_0, # of connection points: 2
#     Edge 41, Type (0, 0), BuildingBlock: XIVTED_clean_linker_0, # of connection points: 2
#     Edge 42, Type (0, 0), BuildingBlock: XIVTED_clean_linker_0, # of connection points: 2
#     Edge 43, Type (0, 0), BuildingBlock: XIVTED_clean_linker_0, # of connection points: 2
#     Edge 44, Type (0, 0), BuildingBlock: XIVTED_clean_linker_0, # of connection points: 2
#     Edge 45, Type (0, 0), BuildingBlock: XIVTED_clean_linker_0, # of connection points: 2
#     Edge 46, Type (0, 0), BuildingBlock: XIVTED_clean_linker_0, # of connection points: 2
#     Edge 47, Type (0, 0), BuildingBlock: XIVTED_clean_linker_0, # of connection points: 2
#     Edge 48, Type (0, 0), BuildingBlock: XIVTED_clean_linker_0, # of connection points: 2
#     Edge 49, Type (0, 0), BuildingBlock: XIVTED_clean_linker_0, # of connection points: 2
#     Edge 50, Type (0, 0), BuildingBlock: XIVTED_clean_linker_0, # of connection points: 2
#     Edge 51, Type (0, 0), BuildingBlock: XIVTED_clean_linker_0, # of connection points: 2
#     Edge 52, Type (0, 0), BuildingBlock: XIVTED_clean_linker_0, # of connection points: 2
#     Edge 53, Type (0, 0), BuildingBlock: XIVTED_clean_linker_0, # of connection points: 2
#     Edge 54, Type (0, 0), BuildingBlock: XIVTED_clean_linker_0, # of connection points: 2
#     Edge 55, Type (0, 0), BuildingBlock: XIVTED_clean_linker_0, # of connection points: 2
#     Edge 56, Type (0, 0), BuildingBlock: XIVTED_clean_linker_0, # of connection points: 2
#     Edge 57, Type (0, 0), BuildingBlock: XIVTED_clean_linker_0, # of connection points: 2
#     Edge 58, Type (0, 0), BuildingBlock: XIVTED_clean_linker_0, # of connection points: 2
#     Edge 59, Type (0, 0), BuildingBlock: XIVTED_clean_linker_0, # of connection points: 2
#     Edge 60, Type (0, 0), BuildingBlock: XIVTED_clean_linker_0, # of connection points: 2
#     Edge 61, Type (0, 0), BuildingBlock: XIVTED_clean_linker_0, # of connection points: 2
#     Edge 62, Type (0, 0), BuildingBlock: XIVTED_clean_linker_0, # of connection points: 2
#     Edge 63, Type (0, 0), BuildingBlock: XIVTED_clean_linker_0, # of connection points: 2
#     Edge 64, Type (0, 0), BuildingBlock: XIVTED_clean_linker_0, # of connection points: 2
#     Edge 65, Type (0, 0), BuildingBlock: XIVTED_clean_linker_0, # of connection points: 2
#     Edge 66, Type (0, 0), BuildingBlock: XIVTED_clean_linker_0, # of connection points: 2
#     Edge 67, Type (0, 0), BuildingBlock: XIVTED_clean_linker_0, # of connection points: 2
#     Edge 68, Type (0, 0), BuildingBlock: XIVTED_clean_linker_0, # of connection points: 2
#     Edge 69, Type (0, 0), BuildingBlock: XIVTED_clean_linker_0, # of connection points: 2
#     Edge 70, Type (0, 0), BuildingBlock: XIVTED_clean_linker_0, # of connection points: 2
#     Edge 71, Type (0, 0), BuildingBlock: XIVTED_clean_linker_0, # of connection points: 2
#     Edge 72, Type (0, 0), BuildingBlock: XIVTED_clean_linker_0, # of connection points: 2
#     Edge 73, Type (0, 0), BuildingBlock: XIVTED_clean_linker_0, # of connection points: 2
#     Edge 74, Type (0, 0), BuildingBlock: XIVTED_clean_linker_0, # of connection points: 2
#     Edge 75, Type (0, 0), BuildingBlock: XIVTED_clean_linker_0, # of connection points: 2
#     Edge 76, Type (0, 0), BuildingBlock: XIVTED_clean_linker_0, # of connection points: 2
#     Edge 77, Type (0, 0), BuildingBlock: XIVTED_clean_linker_0, # of connection points: 2
#     Edge 78, Type (0, 0), BuildingBlock: XIVTED_clean_linker_0, # of connection points: 2
#     Edge 79, Type (0, 0), BuildingBlock: XIVTED_clean_linker_0, # of connection points: 2
#     Edge 80, Type (0, 0), BuildingBlock: XIVTED_clean_linker_0, # of connection points: 2
#     Edge 81, Type (0, 0), BuildingBlock: XIVTED_clean_linker_0, # of connection points: 2
#     Edge 82, Type (0, 0), BuildingBlock: XIVTED_clean_linker_0, # of connection points: 2
#     Edge 83, Type (0, 0), BuildingBlock: XIVTED_clean_linker_0, # of connection points: 2
#     Edge 84, Type (0, 0), BuildingBlock: XIVTED_clean_linker_0, # of connection points: 2
#     Edge 85, Type (0, 0), BuildingBlock: XIVTED_clean_linker_0, # of connection points: 2
#     Edge 86, Type (0, 0), BuildingBlock: XIVTED_clean_linker_0, # of connection points: 2
#     Edge 87, Type (0, 0), BuildingBlock: XIVTED_clean_linker_0, # of connection points: 2
#     Edge 88, Type (0, 0), BuildingBlock: XIVTED_clean_linker_0, # of connection points: 2
#     Edge 89, Type (0, 0), BuildingBlock: XIVTED_clean_linker_0, # of connection points: 2
#     Edge 90, Type (0, 0), BuildingBlock: XIVTED_clean_linker_0, # of connection points: 2
#     Edge 91, Type (0, 0), BuildingBlock: XIVTED_clean_linker_0, # of connection points: 2
#     Edge 92, Type (0, 0), BuildingBlock: XIVTED_clean_linker_0, # of connection points: 2
#     Edge 93, Type (0, 0), BuildingBlock: XIVTED_clean_linker_0, # of connection points: 2
#     Edge 94, Type (0, 0), BuildingBlock: XIVTED_clean_linker_0, # of connection points: 2
#     Edge 95, Type (0, 0), BuildingBlock: XIVTED_clean_linker_0, # of connection points: 2
#     Edge 96, Type (0, 0), BuildingBlock: XIVTED_clean_linker_0, # of connection points: 2
#     Edge 97, Type (0, 0), BuildingBlock: XIVTED_clean_linker_0, # of connection points: 2
#     Edge 98, Type (0, 0), BuildingBlock: XIVTED_clean_linker_0, # of connection points: 2
#     Edge 99, Type (0, 0), BuildingBlock: XIVTED_clean_linker_0, # of connection points: 2
#     Edge 100, Type (0, 0), BuildingBlock: XIVTED_clean_linker_0, # of connection points: 2
#     Edge 101, Type (0, 0), BuildingBlock: XIVTED_clean_linker_0, # of connection points: 2
#     Edge 102, Type (0, 0), BuildingBlock: XIVTED_clean_linker_0, # of connection points: 2
#     Edge 103, Type (0, 0), BuildingBlock: XIVTED_clean_linker_0, # of connection points: 2
#     Edge 104, Type (0, 0), BuildingBlock: XIVTED_clean_linker_0, # of connection points: 2
#     Edge 105, Type (0, 0), BuildingBlock: XIVTED_clean_linker_0, # of connection points: 2
#     Edge 106, Type (0, 0), BuildingBlock: XIVTED_clean_linker_0, # of connection points: 2
#     Edge 107, Type (0, 0), BuildingBlock: XIVTED_clean_linker_0, # of connection points: 2
# Relax obj value: 0.131
# Max RMSD: 0.119
# Mean RMSD: 0.114
data_MOF--net-ums--node1-NAHDIM_clean_sbu_0--edge1-XIVTED_clean_linker_0
_symmetry_space_group_name_H-M    P1
_symmetry_Int_Tables_number       1
_symmetry_cell_setting            triclinic
loop_
_symmetry_equiv_pos_as_xyz
'x, y, z'
_cell_length_a     101.48203
_cell_length_b     101.47114
_cell_length_c     23.775729
_cell_angle_alpha  90.024852
_cell_angle_beta   90.005734
_cell_angle_gamma 119.99517
loop_
_atom_site_label
_atom_site_type_symbol
_atom_site_fract_x
_atom_site_fract_y
_atom_site_fract_z
_atom_type_partial_charge
C0 C 0.19102 0.23712 0.14389 0.0
O1 O 0.2003 0.2515 0.13209 0.0
O2 O 0.18563 0.26585 0.08688 0.0
Zn3 Zn 0.16886 0.24439 0.10218 0.0
O4 O 0.15562 0.24524 0.16294 0.0
C5 C 0.15182 0.24586 0.01603 0.0
O6 O 0.1554 0.25793 0.04693 0.0
O7 O 0.17704 0.23115 0.1309 0.0
C8 C 0.14301 0.23373 0.17665 0.0
O9 O 0.1383 0.2208 0.1499 0.0
C10 C 0.19109 0.27575 0.1258 0.0
O11 O 0.18624 0.27171 0.1776 0.0
O12 O 0.15638 0.23682 0.03158 0.0
C13 C 0.77183 0.94736 0.16239 0.0
O14 O 0.76591 0.93505 0.19368 0.0
O15 O 0.74135 0.91321 0.09111 0.0
Zn16 Zn 0.76408 0.92465 0.08158 0.0
O17 O 0.77277 0.91457 0.12956 0.0
C18 C 0.77876 0.92119 0.98226 0.0
O19 O 0.78839 0.921 0.0187 0.0
O20 O 0.77251 0.94604 0.10943 0.0
C21 C 0.76714 0.90023 0.12992 0.0
O22 O 0.75586 0.89181 0.09563 0.0
C23 C 0.73332 0.91961 0.09216 0.0
O24 O 0.74001 0.9345 0.08831 0.0
O25 O 0.76819 0.9234 -0.00032 0.0
C26 C 0.03693 0.80546 0.09009 0.0
O27 O 0.04015 0.79705 0.05718 0.0
O28 O 0.07295 0.80896 0.06849 0.0
Zn29 Zn 0.06929 0.82633 0.08428 0.0
O30 O 0.08197 0.83791 0.15073 0.0
C31 C 0.0903 0.84477 0.00546 0.0
O32 O 0.09804 0.84067 0.03836 0.0
O33 O 0.04746 0.81862 0.10432 0.0
C34 C 0.08497 0.85139 0.16169 0.0
O35 O 0.07975 0.85806 0.12837 0.0
C36 C 0.07393 0.80094 0.10745 0.0
O37 O 0.07187 0.80361 0.15987 0.0
O38 O 0.07639 0.84 0.01669 0.0
C39 C 0.2298 0.18636 0.40185 0.0
O40 O 0.24204 0.1947 0.43216 0.0
O41 O 0.2606 0.18124 0.42899 0.0
Zn42 Zn 0.23929 0.1642 0.41446 0.0
O43 O 0.24016 0.15228 0.3488 0.0
C44 C 0.24177 0.14607 0.49397 0.0
O45 O 0.25342 0.14995 0.46035 0.0
O46 O 0.22575 0.17251 0.3926 0.0
C47 C 0.22986 0.13871 0.33807 0.0
O48 O 0.218 0.13187 0.37143 0.0
C49 C 0.26934 0.18919 0.38927 0.0
O50 O 0.26416 0.18657 0.33741 0.0
O51 O 0.23262 0.15084 0.48293 0.0
C52 C 0.80631 0.04962 0.33543 0.0
O53 O 0.80886 0.06115 0.30311 0.0
O54 O 0.79831 0.07684 0.42931 0.0
Zn55 Zn 0.81575 0.07304 0.41639 0.0
O56 O 0.82965 0.08779 0.35821 0.0
C57 C 0.8315 0.09104 0.50661 0.0
O58 O 0.82761 0.09957 0.47751 0.0
O59 O 0.80833 0.05171 0.38822 0.0
C60 C 0.84195 0.08821 0.34445 0.0
O61 O 0.84578 0.07911 0.36984 0.0
C62 C 0.79222 0.08018 0.38923 0.0
O63 O 0.79676 0.08022 0.33747 0.0
O64 O 0.82753 0.07777 0.48857 0.0
C65 C 0.93902 0.75551 0.30479 0.0
O66 O 0.92731 0.74273 0.28725 0.0
O67 O 0.91127 0.72894 0.40164 0.0
Zn68 Zn 0.91711 0.75069 0.38555 0.0
O69 O 0.90195 0.75006 0.32969 0.0
C70 C 0.90868 0.76736 0.46274 0.0
O71 O 0.90351 0.77044 0.41694 0.0
O72 O 0.93775 0.76157 0.34973 0.0
C73 C 0.90501 0.76096 0.29608 0.0
O74 O 0.9184 0.77339 0.29872 0.0
C75 C 0.90114 0.72175 0.43866 0.0
O76 O 0.8951 0.7288 0.46538 0.0
O77 O 0.9159 0.76016 0.4586 0.0
C78 C 0.80571 0.75662 0.81026 0.0
O79 O 0.80625 0.74638 0.778 0.0
O80 O 0.80687 0.72525 0.87617 0.0
Zn81 Zn 0.82262 0.74755 0.87395 0.0
O82 O 0.83738 0.75221 0.81046 0.0
C83 C 0.83389 0.74282 0.97702 0.0
O84 O 0.82604 0.72873 0.959 0.0
O85 O 0.81206 0.75939 0.85828 0.0
C86 C 0.85025 0.75303 0.81475 0.0
O87 O 0.85446 0.75015 0.86329 0.0
C88 C 0.80546 0.7154 0.84002 0.0
O89 O 0.8142 0.71976 0.79521 0.0
O90 O 0.83412 0.75342 0.94771 0.0
C91 C 0.23418 0.0389 0.88481 0.0
O92 O 0.24773 0.04313 0.90537 0.0
O93 O 0.26366 0.07424 0.92949 0.0
Zn94 Zn 0.24222 0.06954 0.91419 0.0
O95 O 0.243 0.08274 0.85019 0.0
C96 C 0.24352 0.08945 0.99453 0.0
O97 O 0.25519 0.09765 0.96149 0.0
O98 O 0.22891 0.04789 0.88854 0.0
C99 C 0.23203 0.08492 0.83849 0.0
O100 O 0.21972 0.07855 0.86982 0.0
C101 C 0.27298 0.07686 0.8896 0.0
O102 O 0.26833 0.07586 0.83739 0.0
O103 O 0.23488 0.07545 0.98297 0.0
C104 C 0.9411 0.16732 0.83622 0.0
O105 O 0.92982 0.16437 0.80185 0.0
O106 O 0.91769 0.18103 0.93067 0.0
Zn107 Zn 0.91797 0.16168 0.91601 0.0
O108 O 0.90235 0.14996 0.85666 0.0
C109 C 0.8985 0.14777 0.00407 0.0
O110 O 0.89185 0.15359 0.97359 0.0
O111 O 0.9388 0.16661 0.88903 0.0
C112 C 0.89832 0.13627 0.84431 0.0
O113 O 0.90439 0.12935 0.87157 0.0
C114 C 0.91705 0.18916 0.89132 0.0
O115 O 0.91756 0.18537 0.83885 0.0
O116 O 0.9112 0.14951 0.98756 0.0
C117 C 0.76467 0.821 0.65816 0.0
O118 O 0.76203 0.82979 0.69131 0.0
O119 O 0.73248 0.82356 0.56983 0.0
Zn120 Zn 0.7553 0.83497 0.57538 0.0
O121 O 0.76253 0.85293 0.62726 0.0
C122 C 0.77437 0.85496 0.4858 0.0
O123 O 0.78232 0.86407 0.52717 0.0
O124 O 0.76256 0.82117 0.60549 0.0
C125 C 0.75675 0.86147 0.63057 0.0
O126 O 0.74533 0.85891 0.59752 0.0
C127 C 0.72335 0.81475 0.6071 0.0
O128 O 0.72877 0.81289 0.65474 0.0
O129 O 0.76302 0.84201 0.49711 0.0
C130 C 0.18835 0.95344 0.60741 0.0
O131 O 0.19744 0.94963 0.58193 0.0
O132 O 0.18295 0.91793 0.5689 0.0
Zn133 Zn 0.16599 0.92226 0.58446 0.0
O134 O 0.15401 0.90918 0.64942 0.0
C135 C 0.14731 0.90187 0.50529 0.0
O136 O 0.15101 0.8939 0.53864 0.0
O137 O 0.17417 0.94395 0.60902 0.0
C138 C 0.1409 0.90696 0.66207 0.0
O139 O 0.13475 0.91321 0.63119 0.0
C140 C 0.19058 0.91659 0.60859 0.0
O141 O 0.18769 0.91862 0.66073 0.0
O142 O 0.1525 0.91588 0.51623 0.0
C143 C 0.0464 0.22164 0.68116 0.0
O144 O 0.05757 0.23038 0.71529 0.0
O145 O 0.07079 0.25851 0.58866 0.0
Zn146 Zn 0.06977 0.23844 0.60188 0.0
O147 O 0.0851 0.24147 0.66126 0.0
C148 C 0.08912 0.24348 0.51345 0.0
O149 O 0.09608 0.25602 0.54347 0.0
O150 O 0.04879 0.22279 0.62838 0.0
C151 C 0.08817 0.23116 0.67417 0.0
O152 O 0.08137 0.21811 0.64717 0.0
C153 C 0.07291 0.2677 0.62856 0.0
O154 O 0.07352 0.26362 0.68049 0.0
O155 O 0.07628 0.23283 0.53019 0.0
C156 C 0.85574 0.56963 0.50937 0.0
O157 O 0.85452 0.57918 0.54333 0.0
O158 O 0.85223 0.60076 0.44809 0.0
Zn159 Zn 0.83779 0.578 0.44957 0.0
O160 O 0.82383 0.57286 0.51595 0.0
C161 C 0.81915 0.58007 0.36924 0.0
O162 O 0.82121 0.59071 0.40555 0.0
O163 O 0.84949 0.56709 0.46121 0.0
C164 C 0.8096 0.56364 0.51811 0.0
O165 O 0.80227 0.55625 0.47265 0.0
C166 C 0.8528 0.60919 0.48871 0.0
O167 O 0.8443 0.60292 0.5333 0.0
O168 O 0.82544 0.57214 0.37853 0.0
C169 C 0.42617 0.27624 0.5181 0.0
O170 O 0.41839 0.26504 0.55342 0.0
O171 O 0.38932 0.24907 0.42875 0.0
Zn172 Zn 0.41031 0.25212 0.44 0.0
O173 O 0.40903 0.2374 0.49894 0.0
C174 C 0.40689 0.23354 0.35009 0.0
O175 O 0.39446 0.22544 0.37977 0.0
O176 O 0.42472 0.27354 0.46553 0.0
C177 C 0.42015 0.2355 0.51117 0.0
O178 O 0.43305 0.24326 0.48385 0.0
C179 C 0.3803 0.24614 0.46992 0.0
O180 O 0.38514 0.24605 0.52109 0.0
O181 O 0.41664 0.2467 0.36765 0.0
C182 C 0.71864 0.16362 0.50649 0.0
O183 O 0.73021 0.16804 0.541 0.0
O184 O 0.74319 0.14985 0.42586 0.0
Zn185 Zn 0.74192 0.16904 0.42825 0.0
O186 O 0.75728 0.18376 0.48336 0.0
C187 C 0.75599 0.17606 0.321 0.0
O188 O 0.76033 0.1667 0.34014 0.0
O189 O 0.72085 0.16348 0.45387 0.0
C190 C 0.7706 0.18565 0.48731 0.0
O191 O 0.77463 0.17797 0.45387 0.0
C192 C 0.74489 0.14322 0.4682 0.0
O193 O 0.74529 0.14858 0.51886 0.0
O194 O 0.7473 0.17883 0.3512 0.0
C195 C 0.9038 0.51144 0.6606 0.0
O196 O 0.90916 0.50517 0.62593 0.0
O197 O 0.93862 0.51607 0.75416 0.0
Zn198 Zn 0.91654 0.50046 0.74411 0.0
O199 O 0.91457 0.48408 0.69155 0.0
C200 C 0.91344 0.49769 0.8648 0.0
O201 O 0.92398 0.51213 0.86359 0.0
O202 O 0.90543 0.51067 0.71332 0.0
C203 C 0.90149 0.47357 0.67626 0.0
O204 O 0.88934 0.4737 0.69463 0.0
C205 C 0.94704 0.52391 0.71361 0.0
O206 O 0.94127 0.52172 0.66274 0.0
O207 O 0.90812 0.49064 0.81875 0.0
C208 C 0.48095 0.38325 0.66033 0.0
O209 O 0.48372 0.39429 0.62507 0.0
O210 O 0.47249 0.41069 0.75178 0.0
Zn211 Zn 0.49038 0.4078 0.73648 0.0
O212 O 0.50279 0.42197 0.67429 0.0
C213 C 0.50744 0.42771 0.82023 0.0
O214 O 0.50311 0.43555 0.78896 0.0
O215 O 0.4831 0.38618 0.71265 0.0
C216 C 0.51592 0.42423 0.66164 0.0
O217 O 0.52178 0.4174 0.69078 0.0
C218 C 0.46555 0.41322 0.71254 0.0
O219 O 0.46966 0.41322 0.66015 0.0
O220 O 0.50327 0.41409 0.8062 0.0
C221 C 0.61364 0.10487 0.66278 0.0
O222 O 0.60242 0.09606 0.62891 0.0
O223 O 0.58971 0.06762 0.75418 0.0
Zn224 Zn 0.59064 0.08773 0.74319 0.0
O225 O 0.57489 0.08467 0.68569 0.0
C226 C 0.57193 0.08247 0.83428 0.0
O227 O 0.56477 0.06988 0.80468 0.0
O228 O 0.61141 0.10357 0.71565 0.0
C229 C 0.572 0.09505 0.6719 0.0
O230 O 0.5794 0.10841 0.69655 0.0
C231 C 0.58719 0.05868 0.71302 0.0
O232 O 0.58635 0.06319 0.66203 0.0
O233 O 0.58458 0.09316 0.81621 0.0
C234 C 0.48344 0.09727 0.16381 0.0
O235 O 0.48661 0.08915 0.12917 0.0
O236 O 0.4733 0.06081 0.2558 0.0
Zn237 Zn 0.49149 0.08156 0.24329 0.0
O238 O 0.50483 0.07981 0.18497 0.0
C239 C 0.50626 0.07825 0.33495 0.0
O240 O 0.5016 0.06551 0.30689 0.0
O241 O 0.48478 0.09609 0.21649 0.0
C242 C 0.51773 0.09102 0.172 0.0
O243 O 0.52262 0.10408 0.198 0.0
C244 C 0.46689 0.05153 0.21551 0.0
O245 O 0.47174 0.0559 0.16391 0.0
O246 O 0.50324 0.08812 0.31561 0.0
C247 C 0.88945 0.38323 0.16221 0.0
O248 O 0.89485 0.39499 0.12822 0.0
O249 O 0.92485 0.41375 0.2495 0.0
Zn250 Zn 0.90262 0.40709 0.24304 0.0
O251 O 0.90016 0.42077 0.18844 0.0
C252 C 0.90209 0.40914 0.36308 0.0
O253 O 0.91273 0.40542 0.35901 0.0
O254 O 0.89116 0.38548 0.215 0.0
C255 C 0.90678 0.43507 0.19586 0.0
O256 O 0.91529 0.44103 0.24073 0.0
C257 C 0.93371 0.41706 0.2076 0.0
O258 O 0.92831 0.41605 0.1566 0.0
O259 O 0.89537 0.40967 0.31874 0.0
C260 C 0.61939 0.5251 0.21305 0.0
O261 O 0.61554 0.53446 0.23606 0.0
O262 O 0.58413 0.52029 0.25141 0.0
Zn263 Zn 0.58813 0.50309 0.2363 0.0
O264 O 0.57471 0.49098 0.17216 0.0
C265 C 0.56803 0.48546 0.31814 0.0
O266 O 0.56014 0.48945 0.28562 0.0
O267 O 0.6098 0.51093 0.21219 0.0
C268 C 0.57194 0.47764 0.15997 0.0
O269 O 0.57795 0.47122 0.19063 0.0
C270 C 0.58219 0.52749 0.21163 0.0
O271 O 0.58344 0.52406 0.15935 0.0
O272 O 0.5818 0.48994 0.30536 0.0
C273 C 0.43018 0.15039 0.01681 0.0
O274 O 0.42204 0.15342 0.05188 0.0
O275 O 0.39312 0.13904 0.92684 0.0
Zn276 Zn 0.41359 0.15766 0.93884 0.0
O277 O 0.41121 0.17036 0.99823 0.0
C278 C 0.40892 0.17218 0.85024 0.0
O279 O 0.39652 0.16712 0.8807 0.0
O280 O 0.42875 0.15159 0.96421 0.0
C281 C 0.42168 0.18364 0.01144 0.0
O282 O 0.43479 0.18967 0.98499 0.0
C283 C 0.38399 0.13267 0.96752 0.0
O284 O 0.38847 0.13772 0.01887 0.0
O285 O 0.41931 0.16957 0.86683 0.0
C286 C 0.85022 0.27859 0.00494 0.0
O287 O 0.84851 0.26752 0.03824 0.0
O288 O 0.861 0.25277 0.9241 0.0
Zn289 Zn 0.84237 0.25502 0.92614 0.0
O290 O 0.82715 0.23971 0.9799 0.0
C291 C 0.83354 0.23941 0.82336 0.0
O292 O 0.84044 0.2329 0.84779 0.0
O293 O 0.84813 0.27609 0.95237 0.0
C294 C 0.81555 0.24042 0.99561 0.0
O295 O 0.81341 0.2513 0.97584 0.0
C296 C 0.86504 0.24761 0.96527 0.0
O297 O 0.85745 0.24454 0.01275 0.0
O298 O 0.83285 0.25005 0.849 0.0
C299 C 0.71138 0.56884 0.96556 0.0
O300 O 0.71688 0.58263 0.94518 0.0
O301 O 0.74814 0.59561 0.91759 0.0
Zn302 Zn 0.74159 0.57418 0.94167 0.0
O303 O 0.75377 0.57538 0.01001 0.0
C304 C 0.76101 0.56994 0.87225 0.0
O305 O 0.77031 0.58044 0.90759 0.0
O306 O 0.71955 0.5626 0.9646 0.0
C307 C 0.75554 0.56443 0.02609 0.0
O308 O 0.74924 0.55169 0.99714 0.0
C309 C 0.75085 0.60596 0.95335 0.0
O310 O 0.74871 0.60246 0.00705 0.0
O311 O 0.74677 0.56447 0.87825 0.0
C312 C 0.52993 0.90845 0.78202 0.0
O313 O 0.53771 0.9198 0.74725 0.0
O314 O 0.52462 0.93946 0.75681 0.0
Zn315 Zn 0.5078 0.91814 0.77195 0.0
O316 O 0.49538 0.9188 0.83623 0.0
C317 C 0.48952 0.91958 0.68998 0.0
O318 O 0.49305 0.93144 0.7221 0.0
O319 O 0.5165 0.90509 0.79551 0.0
C320 C 0.48234 0.90761 0.84779 0.0
O321 O 0.47672 0.8953 0.81651 0.0
C322 C 0.53302 0.94815 0.79586 0.0
O323 O 0.53094 0.94296 0.84763 0.0
O324 O 0.49464 0.91083 0.70292 0.0
C325 C 0.10515 0.61418 0.81923 0.0
O326 O 0.09805 0.60262 0.8537 0.0
O327 O 0.06772 0.58819 0.72992 0.0
Zn328 Zn 0.08852 0.59065 0.73966 0.0
O329 O 0.0863 0.57527 0.79736 0.0
C330 C 0.08366 0.57193 0.64991 0.0
O331 O 0.07147 0.5645 0.68139 0.0
O332 O 0.10321 0.6119 0.76649 0.0
C333 C 0.09638 0.57195 0.81112 0.0
O334 O 0.10974 0.57889 0.78636 0.0
C335 C 0.05903 0.58523 0.77218 0.0
O336 O 0.06432 0.58522 0.82259 0.0
O337 O 0.09414 0.5849 0.66633 0.0
C338 C 0.38107 0.48535 0.85215 0.0
O339 O 0.39189 0.48806 0.88847 0.0
O340 O 0.40777 0.47509 0.76222 0.0
Zn341 Zn 0.40563 0.49346 0.7765 0.0
O342 O 0.42017 0.50576 0.83796 0.0
C343 C 0.42534 0.50927 0.69032 0.0
O344 O 0.43292 0.50448 0.72078 0.0
O345 O 0.3842 0.48702 0.79993 0.0
C346 C 0.42294 0.51905 0.85091 0.0
O347 O 0.41624 0.52522 0.82285 0.0
C348 C 0.41036 0.46828 0.8018 0.0
O349 O 0.41071 0.47277 0.8539 0.0
O350 O 0.41207 0.50599 0.70602 0.0
C351 C 0.5846 0.8657 -0.00087 0.0
O352 O 0.59707 0.86676 0.9781 0.0
O353 O 0.61107 0.85933 0.07659 0.0
Zn354 Zn 0.58861 0.84527 0.0627 0.0
O355 O 0.58652 0.83275 0.99445 0.0
C356 C 0.58029 0.81965 0.13196 0.0
O357 O 0.58652 0.81655 0.08936 0.0
O358 O 0.57848 0.85717 0.04158 0.0
C359 C 0.57418 0.82128 0.97832 0.0
O360 O 0.56171 0.81674 0.00793 0.0
C361 C 0.62 0.85421 0.06665 0.0
O362 O 0.61429 0.84021 0.04821 0.0
O363 O 0.57935 0.83169 0.13046 0.0
C364 C 0.14892 0.71903 0.9761 0.0
O365 O 0.15111 0.73022 0.94249 0.0
O366 O 0.1367 0.74371 0.06729 0.0
Zn367 Zn 0.15557 0.74219 0.05641 0.0
O368 O 0.16875 0.75768 -0.00102 0.0
C369 C 0.16933 0.76061 0.14811 0.0
O370 O 0.16414 0.76809 0.11917 0.0
O371 O 0.15019 0.72131 0.02894 0.0
C372 C 0.18188 0.75992 0.98656 0.0
O373 O 0.18717 0.75212 0.01278 0.0
C374 C 0.13074 0.74703 0.02671 0.0
O375 O 0.1364 0.74845 0.97594 0.0
O376 O 0.16703 0.74789 0.12943 0.0
C377 C 0.27327 0.43219 0.98374 0.0
O378 O 0.2625 0.42393 0.94747 0.0
O379 O 0.24715 0.39531 0.0738 0.0
Zn380 Zn 0.24874 0.41554 0.05906 0.0
O381 O 0.23414 0.41276 0.99712 0.0
C382 C 0.22866 0.4109 0.14449 0.0
O383 O 0.22152 0.39856 0.11352 0.0
O384 O 0.27012 0.43082 0.03593 0.0
C385 C 0.23087 0.42289 0.98354 0.0
O386 O 0.23713 0.43584 0.01119 0.0
C387 C 0.24485 0.38591 0.0345 0.0
O388 O 0.2445 0.3899 0.9822 0.0
O389 O 0.24182 0.42127 0.12934 0.0
C390 C 0.13896 0.4225 0.4802 0.0
O391 O 0.14175 0.41405 0.44591 0.0
O392 O 0.13071 0.38688 0.57333 0.0
Zn393 Zn 0.14838 0.40784 0.55864 0.0
O394 O 0.16141 0.40635 0.49832 0.0
C395 C 0.16503 0.40563 0.64579 0.0
O396 O 0.16094 0.39323 0.61619 0.0
O397 O 0.14099 0.42192 0.53274 0.0
C398 C 0.17422 0.41767 0.48519 0.0
O399 O 0.17921 0.43056 0.51248 0.0
C400 C 0.12398 0.37742 0.53383 0.0
O401 O 0.1281 0.38168 0.48157 0.0
O402 O 0.16085 0.41488 0.6293 0.0
C403 C 0.5685 0.72078 0.49422 0.0
O404 O 0.57814 0.73152 0.46042 0.0
O405 O 0.60146 0.75305 0.56914 0.0
Zn406 Zn 0.57928 0.74676 0.55969 0.0
O407 O 0.57702 0.75761 0.49291 0.0
C408 C 0.58156 0.76778 0.63662 0.0
O409 O 0.59249 0.77558 0.60028 0.0
O410 O 0.56684 0.72434 0.54394 0.0
C411 C 0.56837 0.76327 0.48891 0.0
O412 O 0.55989 0.76254 0.53184 0.0
C413 C 0.61113 0.76013 0.53056 0.0
O414 O 0.60646 0.76258 0.48225 0.0
O415 O 0.57303 0.75356 0.62888 0.0
C416 C 0.27586 0.84468 0.4799 0.0
O417 O 0.26495 0.84193 0.44397 0.0
O418 O 0.24973 0.85608 0.56685 0.0
Zn419 Zn 0.25171 0.83748 0.55672 0.0
O420 O 0.23675 0.82438 0.49773 0.0
C421 C 0.23277 0.82354 0.64712 0.0
O422 O 0.22532 0.82857 0.6171 0.0
O423 O 0.27295 0.8434 0.5323 0.0
C424 C 0.23444 0.81123 0.48505 0.0
O425 O 0.24199 0.80573 0.51173 0.0
C426 C 0.2469 0.86223 0.5256 0.0
O427 O 0.24634 0.85697 0.47463 0.0
O428 O 0.24561 0.82594 0.62953 0.0
C429 C 0.09055 0.4792 0.31942 0.0
O430 O 0.08336 0.4836 0.35377 0.0
O431 O 0.05517 0.47298 0.22794 0.0
Zn432 Zn 0.07691 0.48951 0.23941 0.0
O433 O 0.07699 0.50395 0.2972 0.0
C434 C 0.07546 0.50528 0.14791 0.0
O435 O 0.06309 0.50191 0.17655 0.0
O436 O 0.08962 0.48065 0.26667 0.0
C437 C 0.08878 0.5164 0.31034 0.0
O438 O 0.10171 0.52038 0.28478 0.0
C439 C 0.04599 0.46786 0.26914 0.0
O440 O 0.0511 0.47275 0.32011 0.0
O441 O 0.08439 0.50096 0.16682 0.0
C442 C 0.51229 0.61337 0.35451 0.0
O443 O 0.50836 0.60216 0.39026 0.0
O444 O 0.52118 0.58594 0.26237 0.0
Zn445 Zn 0.50341 0.589 0.27687 0.0
O446 O 0.49069 0.57448 0.33758 0.0
C447 C 0.4871 0.56984 0.19023 0.0
O448 O 0.49143 0.56186 0.22057 0.0
O449 O 0.51094 0.61055 0.30202 0.0
C450 C 0.47754 0.57216 0.35031 0.0
O451 O 0.47181 0.57931 0.3224 0.0
C452 C 0.52824 0.58383 0.30233 0.0
O453 O 0.52433 0.5845 0.35449 0.0
O454 O 0.49093 0.58325 0.20614 0.0
C455 C 0.38337 0.89475 0.34602 0.0
O456 O 0.39421 0.90257 0.38264 0.0
O457 O 0.4103 0.93184 0.25757 0.0
Zn458 Zn 0.40819 0.91135 0.27193 0.0
O459 O 0.42234 0.91356 0.33494 0.0
C460 C 0.42884 0.91569 0.18933 0.0
O461 O 0.43603 0.92771 0.22188 0.0
O462 O 0.38657 0.89633 0.29383 0.0
C463 C 0.4258 0.90345 0.34661 0.0
O464 O 0.42018 0.89103 0.31594 0.0
C465 C 0.41213 0.94097 0.29732 0.0
O466 O 0.41178 0.9366 0.34957 0.0
O467 O 0.41532 0.90563 0.20213 0.0
H468 H 0.23939 0.21668 0.39377 0.0
H469 H 0.1755 0.20696 0.17448 0.0
H470 H 0.20404 0.17263 0.33669 0.0
H471 H 0.21853 0.2484 0.1958 0.0
H472 H 0.18396 0.19426 0.24109 0.0
H473 H 0.22953 0.22872 0.33096 0.0
C474 C 0.22943 0.20952 0.3686 0.0
C475 C 0.2226 0.19362 0.37021 0.0
C476 C 0.19154 0.20611 0.23086 0.0
C477 C 0.21134 0.20735 0.29779 0.0
C478 C 0.18675 0.21335 0.19278 0.0
C479 C 0.19633 0.22876 0.17952 0.0
C480 C 0.20591 0.21442 0.25628 0.0
C481 C 0.21077 0.2365 0.2046 0.0
C482 C 0.22389 0.21641 0.33239 0.0
C483 C 0.20972 0.18494 0.33653 0.0
N484 N 0.21507 0.22928 0.24202 0.0
N485 N 0.20452 0.19192 0.30149 0.0
H486 H 0.80296 0.04234 0.22392 0.0
H487 H 0.77351 0.95404 0.27445 0.0
H488 H 0.79852 0.02267 0.38872 0.0
H489 H 0.78253 0.97494 0.11024 0.0
H490 H 0.7821 0.97891 0.31725 0.0
H491 H 0.7949 0.01757 0.18185 0.0
C492 C 0.80028 0.0328 0.25134 0.0
C493 C 0.8014 0.03458 0.31 0.0
C494 C 0.78223 0.97806 0.27187 0.0
C495 C 0.79215 0.00612 0.26191 0.0
C496 C 0.77731 0.96386 0.24735 0.0
C497 C 0.77728 0.96241 0.18863 0.0
C498 C 0.7871 0.9909 0.23743 0.0
C499 C 0.78236 0.97553 0.15567 0.0
C500 C 0.7957 0.01865 0.22721 0.0
C501 C 0.79781 0.02181 0.34332 0.0
N502 N 0.78703 0.98922 0.18054 0.0
N503 N 0.79331 0.0081 0.31878 0.0
H504 H 0.94588 0.74455 0.211 0.0
H505 H 0.02748 0.81877 0.16827 0.0
H506 H 0.96428 0.7835 0.3217 0.0
H507 H 0.0119 0.77734 0.07297 0.0
H508 H 0.00332 0.80694 0.21871 0.0
H509 H 0.96909 0.75719 0.15487 0.0
C510 C 0.95481 0.75576 0.22356 0.0
C511 C 0.95316 0.76297 0.27126 0.0
C512 C 0.00515 0.80046 0.18658 0.0
C513 C 0.97973 0.77752 0.20691 0.0
C514 C 0.01893 0.80723 0.15753 0.0
C515 C 0.02176 0.799 0.11652 0.0
C516 C 0.9941 0.78536 0.17447 0.0
C517 C 0.01024 0.78409 0.10441 0.0
C518 C 0.96806 0.76297 0.19143 0.0
C519 C 0.96509 0.7775 0.28542 0.0
N520 N 0.99693 0.77773 0.13345 0.0
N521 N 0.97787 0.78431 0.25334 0.0
H522 H 0.79293 0.75443 0.70723 0.0
H523 H 0.77242 0.81965 0.76731 0.0
H524 H 0.80237 0.77861 0.865 0.0
H525 H 0.76922 0.79982 0.60358 0.0
H526 H 0.78163 0.80343 0.80593 0.0
H527 H 0.7823 0.7696 0.67098 0.0
C528 C 0.79271 0.76289 0.7344 0.0
C529 C 0.79861 0.7653 0.78921 0.0
C530 C 0.7789 0.80263 0.76157 0.0
C531 C 0.78645 0.78274 0.74778 0.0
C532 C 0.77362 0.81187 0.73946 0.0
C533 C 0.77008 0.81112 0.68206 0.0
C534 C 0.78058 0.79251 0.72609 0.0
C535 C 0.77186 0.80082 0.64803 0.0
C536 C 0.78666 0.77158 0.71356 0.0
C537 C 0.79799 0.77641 0.82244 0.0
N538 N 0.77698 0.79191 0.67059 0.0
N539 N 0.79204 0.78475 0.80115 0.0
H540 H 0.24532 0.02084 0.84852 0.0
H541 H 0.17319 0.9657 0.66237 0.0
H542 H 0.20578 0.02619 0.83706 0.0
H543 H 0.21811 0.97206 0.63611 0.0
H544 H 0.18381 0.98623 0.73212 0.0
H545 H 0.23403 0.00053 0.77882 0.0
C546 C 0.23417 0.01763 0.83189 0.0
C547 C 0.22651 0.02528 0.8485 0.0
C548 C 0.19133 0.98319 0.71067 0.0
C549 C 0.21359 0.0021 0.76823 0.0
C550 C 0.1853 0.97152 0.67076 0.0
C551 C 0.19477 0.96713 0.64345 0.0
C552 C 0.20688 0.99033 0.72386 0.0
C553 C 0.21037 0.97506 0.65602 0.0
C554 C 0.2278 0.00612 0.79169 0.0
C555 C 0.2121 0.02063 0.82531 0.0
N556 N 0.2159 0.98616 0.6957 0.0
N557 N 0.2061 0.00933 0.78623 0.0
H558 H 0.03827 0.21545 0.79155 0.0
H559 H 0.94927 0.16873 0.72602 0.0
H560 H 0.01965 0.2045 0.62362 0.0
H561 H 0.96801 0.1783 0.89392 0.0
H562 H 0.97495 0.1799 0.68791 0.0
H563 H 0.01272 0.20011 0.82975 0.0
C564 C 0.02881 0.20974 0.76264 0.0
C565 C 0.03109 0.21138 0.70425 0.0
C566 C 0.97345 0.17946 0.7331 0.0
C567 C 0.00174 0.19382 0.74785 0.0
C568 C 0.95878 0.17308 0.75495 0.0
C569 C 0.95649 0.17271 0.81329 0.0
C570 C 0.98596 0.1856 0.7698 0.0
C571 C 0.96924 0.17841 0.84868 0.0
C572 C 0.01421 0.20096 0.78455 0.0
C573 C 0.01841 0.20362 0.6689 0.0
N574 N 0.98345 0.18475 0.82634 0.0
N575 N 0.00426 0.19527 0.69128 0.0
H576 H 0.86119 0.54949 0.45056 0.0
H577 H 0.89452 0.52854 0.71934 0.0
H578 H 0.86749 0.57071 0.6134 0.0
H579 H 0.89645 0.51342 0.5513 0.0
H580 H 0.88307 0.54282 0.68152 0.0
H581 H 0.87288 0.53511 0.48675 0.0
C582 C 0.86507 0.55117 0.49378 0.0
C583 C 0.86335 0.5613 0.52902 0.0
C584 C 0.886 0.53639 0.65287 0.0
C585 C 0.87658 0.54485 0.57069 0.0
C586 C 0.8925 0.52818 0.67449 0.0
C587 C 0.89647 0.51979 0.63842 0.0
C588 C 0.88337 0.53615 0.59478 0.0
C589 C 0.89359 0.51977 0.58063 0.0
C590 C 0.87173 0.54297 0.5144 0.0
C591 C 0.86858 0.56303 0.58467 0.0
N592 N 0.88719 0.52782 0.56057 0.0
N593 N 0.87489 0.55485 0.6038 0.0
H594 H 0.43254 0.28545 0.62763 0.0
H595 H 0.47712 0.37389 0.55097 0.0
H596 H 0.44185 0.30263 0.45753 0.0
H597 H 0.47046 0.35688 0.72114 0.0
H598 H 0.46528 0.34785 0.51608 0.0
H599 H 0.44738 0.31145 0.66268 0.0
C600 C 0.43776 0.29468 0.5976 0.0
C601 C 0.43586 0.29187 0.53952 0.0
C602 C 0.46647 0.34979 0.56105 0.0
C603 C 0.45285 0.32169 0.57946 0.0
C604 C 0.47322 0.36467 0.58106 0.0
C605 C 0.47468 0.36756 0.63911 0.0
C606 C 0.46105 0.33767 0.59934 0.0
C607 C 0.46952 0.35517 0.67605 0.0
C608 C 0.44625 0.30954 0.61769 0.0
C609 C 0.44297 0.30428 0.50264 0.0
N610 N 0.46283 0.34075 0.65552 0.0
N611 N 0.45107 0.31866 0.52326 0.0
H612 H 0.71033 0.16267 0.61636 0.0
H613 H 0.62156 0.11089 0.55211 0.0
H614 H 0.69158 0.15042 0.44892 0.0
H615 H 0.64022 0.12308 0.71969 0.0
H616 H 0.6469 0.12715 0.51344 0.0
H617 H 0.68459 0.1502 0.65458 0.0
C618 C 0.7008 0.15747 0.58754 0.0
C619 C 0.70312 0.15747 0.52934 0.0
C620 C 0.64545 0.12635 0.55866 0.0
C621 C 0.67359 0.14308 0.57295 0.0
C622 C 0.63098 0.11705 0.58084 0.0
C623 C 0.62878 0.11551 0.63929 0.0
C624 C 0.65788 0.13416 0.59514 0.0
C625 C 0.6414 0.12387 0.67438 0.0
C626 C 0.68609 0.15033 0.60945 0.0
C627 C 0.69033 0.15063 0.49407 0.0
N628 N 0.65544 0.13275 0.65174 0.0
N629 N 0.67611 0.1436 0.51649 0.0
H630 H 0.48041 0.10305 0.05379 0.0
H631 H 0.43677 0.1481 0.12645 0.0
H632 H 0.47314 0.11353 0.22302 0.0
H633 H 0.44596 0.13963 0.95698 0.0
H634 H 0.45145 0.13689 0.1624 0.0
H635 H 0.46923 0.11775 0.01746 0.0
C636 C 0.47653 0.10851 0.08335 0.0
C637 C 0.4776 0.10696 0.14157 0.0
C638 C 0.45035 0.13757 0.11734 0.0
C639 C 0.46474 0.12377 0.10018 0.0
C640 C 0.44195 0.14396 0.09673 0.0
C641 C 0.44003 0.14469 0.03859 0.0
C642 C 0.45682 0.13177 0.07957 0.0
C643 C 0.4471 0.13924 0.00212 0.0
C644 C 0.47016 0.11692 0.06253 0.0
C645 C 0.47248 0.11436 0.17783 0.0
N646 N 0.45509 0.1329 0.02325 0.0
N647 N 0.46617 0.12237 0.15652 0.0
H648 H 0.85411 0.28692 0.11558 0.0
H649 H 0.88359 0.37467 0.05187 0.0
H650 H 0.8567 0.30475 0.94855 0.0
H651 H 0.879 0.35632 0.21919 0.0
H652 H 0.87296 0.34904 0.01342 0.0
H653 H 0.86245 0.31213 0.15433 0.0
C654 C 0.8564 0.29614 0.087 0.0
C655 C 0.85478 0.29374 0.02866 0.0
C656 C 0.87421 0.35061 0.05856 0.0
C657 C 0.86437 0.32268 0.07288 0.0
C658 C 0.88029 0.36524 0.08059 0.0
C659 C 0.88226 0.36766 0.13887 0.0
C660 C 0.87011 0.33828 0.09501 0.0
C661 C 0.87772 0.355 0.174 0.0
C662 C 0.86115 0.31054 0.10922 0.0
C663 C 0.85784 0.3061 0.99376 0.0
N664 N 0.87192 0.34086 0.15149 0.0
N665 N 0.86256 0.32006 0.01642 0.0
H666 H 0.63179 0.50927 0.16426 0.0
H667 H 0.69413 0.58153 0.99481 0.0
H668 H 0.63921 0.55474 0.18616 0.0
H669 H 0.69597 0.54007 0.01012 0.0
H670 H 0.67199 0.57072 0.05656 0.0
H671 H 0.65388 0.51946 0.10164 0.0
C672 C 0.63814 0.5214 0.15634 0.0
C673 C 0.63363 0.53117 0.18043 0.0
C674 C 0.67721 0.56397 0.04628 0.0
C675 C 0.65869 0.54281 0.10821 0.0
C676 C 0.68979 0.57009 0.01064 0.0
C677 C 0.69696 0.56171 0.99744 0.0
C678 C 0.67167 0.54933 0.06857 0.0
C679 C 0.69082 0.54694 0.01937 0.0
C680 C 0.65071 0.52719 0.12051 0.0
C681 C 0.64227 0.54678 0.16865 0.0
N682 N 0.67852 0.54122 0.05396 0.0
N683 N 0.6543 0.55209 0.13302 0.0
H684 H 0.5181 0.88676 0.86461 0.0
H685 H 0.59551 0.88549 0.91091 0.0
H686 H 0.55887 0.91359 0.76712 0.0
H687 H 0.55626 0.86193 0.01876 0.0
H688 H 0.58204 0.89544 0.85655 0.0
H689 H 0.53146 0.87661 0.91879 0.0
C690 C 0.52982 0.89043 0.85423 0.0
C691 C 0.53739 0.90108 0.8113 0.0
C692 C 0.57638 0.88815 0.89223 0.0
C693 C 0.55279 0.88959 0.87358 0.0
C694 C 0.58408 0.88249 0.92343 0.0
C695 C 0.57699 0.87284 0.96943 0.0
C696 C 0.56142 0.88409 0.90689 0.0
C697 C 0.56217 0.86936 0.98368 0.0
C698 C 0.53747 0.88468 0.88543 0.0
C699 C 0.55259 0.90542 0.79986 0.0
N700 N 0.55485 0.87493 0.95233 0.0
N701 N 0.5598 0.89969 0.83092 0.0
H702 H 0.11206 0.6226 0.9292 0.0
H703 H 0.14659 0.71108 0.86529 0.0
H704 H 0.11835 0.64124 0.76169 0.0
H705 H 0.14125 0.69259 0.03268 0.0
H706 H 0.13801 0.68584 0.82642 0.0
H707 H 0.12457 0.64834 0.96748 0.0
C708 C 0.11618 0.63212 0.90038 0.0
C709 C 0.11403 0.62976 0.84214 0.0
C710 C 0.13879 0.6873 0.87164 0.0
C711 C 0.1283 0.65928 0.88583 0.0
C712 C 0.14367 0.70172 0.89393 0.0
C713 C 0.14452 0.70393 0.95239 0.0
C714 C 0.13466 0.67495 0.90803 0.0
C715 C 0.14069 0.69139 0.98737 0.0
C716 C 0.12332 0.64682 0.92233 0.0
C717 C 0.11969 0.64253 0.80687 0.0
N718 N 0.13583 0.67741 0.96464 0.0
N719 N 0.12646 0.65674 0.82933 0.0
H720 H 0.28328 0.43872 0.87522 0.0
H721 H 0.3711 0.48208 0.9607 0.0
H722 H 0.29915 0.44811 0.04701 0.0
H723 H 0.35521 0.4755 0.78892 0.0
H724 H 0.34487 0.47096 0.99309 0.0
H725 H 0.30954 0.45344 0.84286 0.0
C726 C 0.29229 0.44396 0.90619 0.0
C727 C 0.28903 0.44208 0.96395 0.0
C728 C 0.34712 0.47204 0.94831 0.0
C729 C 0.31915 0.4589 0.9271 0.0
C730 C 0.3621 0.47837 0.92975 0.0
C731 C 0.36534 0.4796 0.87198 0.0
C732 C 0.33526 0.46681 0.90885 0.0
C733 C 0.35323 0.4747 0.83384 0.0
C734 C 0.30729 0.45238 0.88763 0.0
C735 C 0.30115 0.44921 0.00209 0.0
N736 N 0.33871 0.46842 0.85298 0.0
N737 N 0.31569 0.45721 0.98297 0.0
H738 H 0.10503 0.46679 0.26106 0.0
H739 H 0.12961 0.43971 0.53866 0.0
H740 H 0.09552 0.47549 0.42974 0.0
H741 H 0.13505 0.42731 0.37005 0.0
H742 H 0.11902 0.45473 0.49948 0.0
H743 H 0.11806 0.45411 0.30029 0.0
C744 C 0.10574 0.46609 0.30633 0.0
C745 C 0.09909 0.47212 0.34217 0.0
C746 C 0.12258 0.44875 0.47109 0.0
C747 C 0.11396 0.45763 0.38734 0.0
C748 C 0.12864 0.44019 0.49343 0.0
C749 C 0.13313 0.43217 0.4576 0.0
C750 C 0.12104 0.4493 0.41252 0.0
C751 C 0.13164 0.43323 0.39931 0.0
C752 C 0.11316 0.45884 0.32871 0.0
C753 C 0.10039 0.47093 0.4005 0.0
N754 N 0.12569 0.4416 0.37862 0.0
N755 N 0.10763 0.46378 0.42126 0.0
H756 H 0.51453 0.62289 0.46342 0.0
H757 H 0.56707 0.71068 0.38698 0.0
H758 H 0.52579 0.63979 0.29334 0.0
H759 H 0.54948 0.69496 0.55393 0.0
H760 H 0.55239 0.68465 0.35258 0.0
H761 H 0.52743 0.64907 0.49789 0.0
C762 C 0.51965 0.63211 0.43327 0.0
C763 C 0.51915 0.62915 0.37539 0.0
C764 C 0.55169 0.68687 0.39671 0.0
C765 C 0.534 0.65913 0.41465 0.0
C766 C 0.56012 0.70174 0.41649 0.0
C767 C 0.55955 0.70499 0.47351 0.0
C768 C 0.54267 0.67511 0.43423 0.0
C769 C 0.55027 0.69295 0.50966 0.0
C770 C 0.527 0.64705 0.45302 0.0
C771 C 0.52591 0.64154 0.3383 0.0
N772 N 0.54224 0.67851 0.48944 0.0
N773 N 0.53315 0.65598 0.35861 0.0
H774 H 0.37339 0.88767 0.45427 0.0
H775 H 0.28551 0.84777 0.37088 0.0
H776 H 0.35731 0.88013 0.28265 0.0
H777 H 0.30173 0.85366 0.54208 0.0
H778 H 0.31158 0.85805 0.33756 0.0
H779 H 0.34713 0.87368 0.48687 0.0
C780 C 0.36433 0.88299 0.42337 0.0
C781 C 0.36755 0.88519 0.36562 0.0
C782 C 0.30943 0.85701 0.3824 0.0
C783 C 0.3374 0.86919 0.40277 0.0
C784 C 0.29455 0.85115 0.40151 0.0
C785 C 0.29145 0.84997 0.45941 0.0
C786 C 0.32134 0.86179 0.42145 0.0
C787 C 0.3036 0.85444 0.49708 0.0
C788 C 0.34932 0.87499 0.44206 0.0
C789 C 0.35535 0.87876 0.32756 0.0
N790 N 0.31802 0.86025 0.47743 0.0
N791 N 0.3408 0.87115 0.34685 0.0
H792 H 0.1035 0.25661 0.73891 0.0
H793 H 0.14056 0.22134 0.94381 0.0
H794 H 0.09641 0.21123 0.71786 0.0
H795 H 0.14282 0.26456 0.9695 0.0
H796 H 0.1257 0.21772 0.85785 0.0
H797 H 0.11951 0.26013 0.82006 0.0
C798 C 0.10536 0.24738 0.75122 0.0
C799 C 0.09854 0.23357 0.72165 0.0
C800 C 0.12948 0.22798 0.88241 0.0
C801 C 0.11688 0.23752 0.81508 0.0
C802 C 0.13795 0.23005 0.93139 0.0
C803 C 0.1429 0.24325 0.96395 0.0
C804 C 0.12604 0.23923 0.86597 0.0
C805 C 0.13922 0.25418 0.94592 0.0
C806 C 0.1145 0.24939 0.79774 0.0
C807 C 0.10141 0.22205 0.73955 0.0
N808 N 0.13103 0.25192 0.89826 0.0
N809 N 0.11035 0.22427 0.7853 0.0
H810 H 0.79733 0.91208 0.93313 0.0
H811 H 0.74499 0.87975 0.65929 0.0
H812 H 0.75945 0.91892 0.89746 0.0
H813 H 0.78074 0.87024 0.70241 0.0
H814 H 0.75263 0.89745 0.7386 0.0
H815 H 0.79405 0.90027 0.8408 0.0
C816 C 0.78846 0.9113 0.90561 0.0
C817 C 0.77851 0.9163 0.92344 0.0
C818 C 0.75889 0.89159 0.73035 0.0
C819 C 0.7746 0.90266 0.81785 0.0
C820 C 0.75454 0.88149 0.68504 0.0
C821 C 0.76211 0.87335 0.67462 0.0
C822 C 0.77089 0.89355 0.76543 0.0
C823 C 0.77445 0.87613 0.70922 0.0
C824 C 0.78656 0.90451 0.85292 0.0
C825 C 0.76728 0.91507 0.88577 0.0
N826 N 0.77837 0.88589 0.7533 0.0
N827 N 0.76552 0.90822 0.83503 0.0
H828 H 0.1194 0.85557 0.96975 0.0
H829 H 0.11233 0.89895 0.70061 0.0
H830 H 0.07807 0.85567 0.92747 0.0
H831 H 0.15134 0.89406 0.73753 0.0
H832 H 0.09972 0.88398 0.78473 0.0
H833 H 0.13148 0.87071 0.88644 0.0
C834 C 0.11285 0.8588 0.94297 0.0
C835 C 0.09768 0.85431 0.95557 0.0
C836 C 0.11103 0.88618 0.77428 0.0
C837 C 0.11149 0.8717 0.85964 0.0
C838 C 0.11824 0.89472 0.72631 0.0
C839 C 0.13292 0.89776 0.71201 0.0
C840 C 0.1186 0.88072 0.80818 0.0
C841 C 0.14002 0.892 0.74682 0.0
C842 C 0.11976 0.86745 0.89523 0.0
C843 C 0.08979 0.85887 0.91926 0.0
N844 N 0.13281 0.8838 0.79325 0.0
N845 N 0.09679 0.86733 0.87283 0.0
H846 H 0.21115 0.09266 0.80122 0.0
H847 H 0.26036 0.13561 0.52939 0.0
H848 H 0.2552 0.09815 0.76254 0.0
H849 H 0.21899 0.13543 0.57349 0.0
H850 H 0.25778 0.12088 0.61332 0.0
H851 H 0.21307 0.1075 0.71715 0.0
C852 C 0.22122 0.097 0.77517 0.0
C853 C 0.23302 0.09414 0.78889 0.0
C854 C 0.24924 0.12404 0.60482 0.0
C855 C 0.23525 0.11102 0.69282 0.0
C856 C 0.25069 0.13244 0.55671 0.0
C857 C 0.23988 0.13679 0.54439 0.0
C858 C 0.23687 0.11986 0.64111 0.0
C859 C 0.22759 0.13233 0.58146 0.0
C860 C 0.22231 0.10546 0.72724 0.0
C861 C 0.24581 0.10005 0.75368 0.0
N862 N 0.22641 0.12409 0.62826 0.0
N863 N 0.24655 0.10816 0.7073 0.0
H864 H 0.84005 0.1182 0.55729 0.0
H865 H 0.88832 0.10767 0.80129 0.0
H866 H 0.84349 0.07767 0.57451 0.0
H867 H 0.88381 0.14752 0.78063 0.0
H868 H 0.87127 0.09591 0.72089 0.0
H869 H 0.85544 0.12854 0.64146 0.0
C870 C 0.84403 0.11144 0.57884 0.0
C871 C 0.84052 0.09706 0.55866 0.0
C872 C 0.87399 0.1072 0.73417 0.0
C873 C 0.85825 0.1089 0.65548 0.0
C874 C 0.8837 0.11392 0.78006 0.0
C875 C 0.88754 0.12863 0.79759 0.0
C876 C 0.8681 0.11527 0.70572 0.0
C877 C 0.88122 0.13618 0.76856 0.0
C878 C 0.85283 0.11737 0.62706 0.0
C879 C 0.84595 0.08882 0.58859 0.0
N880 N 0.87186 0.12943 0.72405 0.0
N881 N 0.85461 0.09489 0.63548 0.0
H882 H 0.84647 0.76316 0.71298 0.0
H883 H 0.91554 0.76049 0.5664 0.0
H884 H 0.87717 0.75299 0.80379 0.0
H885 H 0.88929 0.77801 0.48604 0.0
H886 H 0.9029 0.75923 0.65536 0.0
H887 H 0.86285 0.76969 0.63069 0.0
C888 C 0.85669 0.76232 0.71568 0.0
C889 C 0.86039 0.75739 0.76526 0.0
C890 C 0.90006 0.76354 0.61842 0.0
C891 C 0.87924 0.76488 0.6709 0.0
C892 C 0.90731 0.76432 0.56761 0.0
C893 C 0.90333 0.76919 0.51847 0.0
C894 C 0.88867 0.76755 0.61996 0.0
C895 C 0.89263 0.77406 0.52268 0.0
C896 C 0.86608 0.76613 0.66868 0.0
C897 C 0.87384 0.75666 0.76635 0.0
N898 N 0.88553 0.77292 0.57233 0.0
N899 N 0.88272 0.76024 0.71966 0.0
H900 H 0.83211 0.72264 0.05608 0.0
H901 H 0.90714 0.78216 0.2194 0.0
H902 H 0.85672 0.77049 0.0152 0.0
H903 H 0.8773 0.73603 0.27469 0.0
H904 H 0.88889 0.77851 0.14518 0.0
H905 H 0.84856 0.72767 0.13721 0.0
C906 C 0.84093 0.73424 0.06438 0.0
C907 C 0.8431 0.74616 0.02866 0.0
C908 C 0.88631 0.76925 0.17386 0.0
C909 C 0.8621 0.75201 0.12156 0.0
C910 C 0.89673 0.7713 0.21616 0.0
C911 C 0.89379 0.75935 0.25308 0.0
C912 C 0.87293 0.7551 0.1683 0.0
C913 C 0.88008 0.74555 0.24707 0.0
C914 C 0.85032 0.73712 0.11086 0.0
C915 C 0.85467 0.76098 0.04171 0.0
N916 N 0.87023 0.74378 0.20527 0.0
N917 N 0.86385 0.76348 0.08692 0.0
H918 H 0.26052 0.11883 0.02905 0.0
H919 H 0.2106 0.10941 0.30253 0.0
H920 H 0.22081 0.07625 0.07405 0.0
H921 H 0.25238 0.15025 0.25921 0.0
H922 H 0.21338 0.09703 0.21841 0.0
H923 H 0.25686 0.13052 0.1122 0.0
C924 C 0.25099 0.11191 0.05642 0.0
C925 C 0.24097 0.09651 0.04458 0.0
C926 C 0.22192 0.10869 0.22745 0.0
C927 C 0.23671 0.1099 0.14045 0.0
C928 C 0.22035 0.11577 0.27541 0.0
C929 C 0.23127 0.13089 0.28794 0.0
C930 C 0.23449 0.11684 0.19184 0.0
C931 C 0.24367 0.13858 0.25134 0.0
C932 C 0.24891 0.11862 0.10407 0.0
C933 C 0.22882 0.08816 0.08166 0.0
N934 N 0.24492 0.13148 0.20505 0.0
N935 N 0.22702 0.09497 0.12807 0.0
H936 H 0.83674 0.10775 0.28223 0.0
H937 H 0.90744 0.13216 0.07478 0.0
H938 H 0.86821 0.09106 0.29972 0.0
H939 H 0.87286 0.14465 0.05279 0.0
H940 H 0.89448 0.11836 0.16071 0.0
H941 H 0.85123 0.12287 0.2018 0.0
C942 C 0.84675 0.10731 0.26932 0.0
C943 C 0.85122 0.09806 0.29763 0.0
C944 C 0.88978 0.12416 0.13701 0.0
C945 C 0.86788 0.11534 0.20508 0.0
C946 C 0.89717 0.13203 0.08804 0.0
C947 C 0.89119 0.13952 0.05646 0.0
C948 C 0.87639 0.12385 0.15442 0.0
C949 C 0.87786 0.139 0.07557 0.0
C950 C 0.85502 0.11594 0.22323 0.0
C951 C 0.86433 0.098 0.27901 0.0
N952 N 0.87093 0.13131 0.12318 0.0
N953 N 0.87218 0.10647 0.2337 0.0
H954 H 0.78982 0.91437 0.20796 0.0
H955 H 0.76011 0.83904 0.39057 0.0
H956 H 0.755 0.86986 0.15278 0.0
H957 H 0.79425 0.88367 0.44733 0.0
H958 H 0.76134 0.84942 0.29699 0.0
H959 H 0.79476 0.90269 0.28885 0.0
C960 C 0.78334 0.90211 0.21243 0.0
C961 C 0.77179 0.8931 0.174 0.0
C962 C 0.76871 0.85692 0.32968 0.0
C963 C 0.77733 0.87966 0.26685 0.0
C964 C 0.76803 0.85099 0.38319 0.0
C965 C 0.77691 0.86056 0.42716 0.0
C966 C 0.77826 0.87255 0.32008 0.0
C967 C 0.78707 0.87591 0.41489 0.0
C968 C 0.78616 0.89545 0.25871 0.0
C969 C 0.76388 0.87727 0.18167 0.0
N970 N 0.78732 0.88147 0.36268 0.0
N971 N 0.76666 0.87107 0.22763 0.0
H972 H 0.09445 0.88058 0.19693 0.0
H973 H 0.13526 0.87241 0.47193 0.0
H974 H 0.09622 0.84021 0.2411 0.0
H975 H 0.13748 0.91458 0.425 0.0
H976 H 0.12002 0.86037 0.38884 0.0
H977 H 0.10941 0.89319 0.28114 0.0
C978 C 0.09798 0.87437 0.22427 0.0
C979 C 0.09408 0.85931 0.21194 0.0
C980 C 0.12381 0.87226 0.39655 0.0
C981 C 0.11112 0.87365 0.3082 0.0
C982 C 0.13252 0.87916 0.44416 0.0
C983 C 0.1377 0.89456 0.45542 0.0
C984 C 0.12017 0.88076 0.35964 0.0
C985 C 0.13374 0.90269 0.41786 0.0
C986 C 0.10651 0.88158 0.27228 0.0
C987 C 0.09896 0.85183 0.24882 0.0
N988 N 0.1252 0.89569 0.3715 0.0
N989 N 0.10719 0.85906 0.29521 0.0
H990 H 0.11523 0.26522 0.46453 0.0
H991 H 0.11591 0.21134 0.22024 0.0
H992 H 0.07957 0.2185 0.44456 0.0
H993 H 0.14982 0.25874 0.24025 0.0
H994 H 0.102 0.21354 0.30055 0.0
H995 H 0.12762 0.26285 0.38089 0.0
C996 C 0.10998 0.25443 0.44249 0.0
C997 C 0.09636 0.24202 0.46174 0.0
C998 C 0.11245 0.22345 0.28716 0.0
C999 C 0.11058 0.2392 0.36548 0.0
C1000 C 0.1204 0.22221 0.24134 0.0
C1001 C 0.13409 0.23486 0.22362 0.0
C1002 C 0.11826 0.23743 0.31539 0.0
C1003 C 0.13935 0.24866 0.25246 0.0
C1004 C 0.11707 0.25309 0.39456 0.0
C1005 C 0.09007 0.22835 0.4312 0.0
N1006 N 0.13146 0.24955 0.29693 0.0
N1007 N 0.09728 0.22728 0.38459 0.0
H1008 H 0.80646 0.59681 0.33439 0.0
H1009 H 0.76434 0.54472 0.06717 0.0
H1010 H 0.8102 0.55757 0.28938 0.0
H1011 H 0.76776 0.58818 0.10006 0.0
H1012 H 0.7798 0.54818 0.15098 0.0
H1013 H 0.79087 0.59273 0.25132 0.0
C1014 C 0.804 0.58731 0.30702 0.0
C1015 C 0.80967 0.57753 0.31882 0.0
C1016 C 0.77716 0.55694 0.13973 0.0
C1017 C 0.79175 0.57277 0.22336 0.0
C1018 C 0.76832 0.55496 0.09201 0.0
C1019 C 0.76476 0.56618 0.07659 0.0
C1020 C 0.78238 0.57018 0.17234 0.0
C1021 C 0.77024 0.57924 0.11024 0.0
C1022 C 0.7951 0.58501 0.25946 0.0
C1023 C 0.80609 0.56541 0.28176 0.0
N1024 N 0.77874 0.58085 0.15652 0.0
N1025 N 0.79732 0.56335 0.23565 0.0
H1026 H 0.39586 0.17425 0.07317 0.0
H1027 H 0.43208 0.24588 0.28139 0.0
H1028 H 0.44197 0.21149 0.05667 0.0
H1029 H 0.38718 0.2067 0.29962 0.0
H1030 H 0.43571 0.23447 0.19605 0.0
H1031 H 0.39222 0.18705 0.15306 0.0
C1032 C 0.40523 0.18516 0.08623 0.0
C1033 C 0.41927 0.19177 0.0583 0.0
C1034 C 0.42507 0.22842 0.21875 0.0
C1035 C 0.41518 0.20652 0.15026 0.0
C1036 C 0.42299 0.23492 0.26739 0.0
C1037 C 0.40933 0.2272 0.29778 0.0
C1038 C 0.41339 0.21414 0.20048 0.0
C1039 C 0.39792 0.21305 0.27775 0.0
C1040 C 0.40314 0.19247 0.13199 0.0
C1041 C 0.43096 0.20597 0.07709 0.0
N1042 N 0.40022 0.20699 0.2305 0.0
N1043 N 0.42867 0.21286 0.12211 0.0
H1044 H 0.81527 0.21523 0.03741 0.0
H1045 H 0.75292 0.19914 0.27344 0.0
H1046 H 0.79216 0.24109 0.05095 0.0
H1047 H 0.77378 0.17155 0.24682 0.0
H1048 H 0.76593 0.21386 0.18922 0.0
H1049 H 0.79905 0.19839 0.11154 0.0
C1050 C 0.80672 0.21733 0.05583 0.0
C1051 C 0.80513 0.22965 0.03819 0.0
C1052 C 0.76753 0.2045 0.20165 0.0
C1053 C 0.78651 0.21041 0.12354 0.0
C1054 C 0.7601 0.19608 0.24963 0.0
C1055 C 0.76238 0.18419 0.2675 0.0
C1056 C 0.77732 0.20099 0.1716 0.0
C1057 C 0.77178 0.1807 0.23501 0.0
C1058 C 0.79743 0.20768 0.09816 0.0
C1059 C 0.7938 0.23175 0.06339 0.0
N1060 N 0.77897 0.18912 0.18898 0.0
N1061 N 0.78498 0.22229 0.10515 0.0
H1062 H 0.89217 0.4678 0.88198 0.0
H1063 H 0.92135 0.46625 0.19277 0.0
H1064 H 0.92589 0.50792 0.9692 0.0
H1065 H 0.88959 0.42623 0.10004 0.0
H1066 H 0.9207 0.48212 0.11661 0.0
H1067 H 0.88843 0.45293 0.96704 0.0
C1068 C 0.89867 0.47353 0.91923 0.0
C1069 C 0.90951 0.4891 0.91822 0.0
C1070 C 0.91379 0.46987 0.11319 0.0
C1071 C 0.90538 0.47208 0.01573 0.0
C1072 C 0.91415 0.4608 0.15665 0.0
C1073 C 0.90564 0.44488 0.15251 0.0
C1074 C 0.90485 0.46296 0.06529 0.0
C1075 C 0.89645 0.43845 0.10484 0.0
C1076 C 0.89655 0.46501 0.96781 0.0
C1077 C 0.9175 0.49592 0.96793 0.0
N1078 N 0.89639 0.4475 0.06298 0.0
N1079 N 0.9154 0.48733 0.01452 0.0
H1080 H 0.56334 0.44898 0.12058 0.0
H1081 H 0.51703 0.45613 0.86123 0.0
H1082 H 0.55839 0.48813 0.0877 0.0
H1083 H 0.51931 0.41547 0.89422 0.0
H1084 H 0.53248 0.4679 0.94417 0.0
H1085 H 0.54748 0.43636 0.03814 0.0
C1086 C 0.55891 0.45491 0.09613 0.0
C1087 C 0.56222 0.46965 0.11103 0.0
C1088 C 0.52962 0.4564 0.93346 0.0
C1089 C 0.54413 0.45531 0.01686 0.0
C1090 C 0.52079 0.44965 0.88594 0.0
C1091 C 0.51687 0.43478 0.8707 0.0
C1092 C 0.53465 0.44826 0.96622 0.0
C1093 C 0.52208 0.42697 0.90448 0.0
C1094 C 0.54987 0.4477 0.04912 0.0
C1095 C 0.55617 0.47679 0.07786 0.0
N1096 N 0.53073 0.43382 0.95073 0.0
N1097 N 0.54746 0.46956 0.0324 0.0
H1098 H 0.58205 0.10757 0.90289 0.0
H1099 H 0.51078 0.06557 0.11094 0.0
H1100 H 0.54616 0.06084 0.88556 0.0
H1101 H 0.54486 0.11303 0.12741 0.0
H1102 H 0.52476 0.06346 0.0316 0.0
H1103 H 0.56969 0.10967 0.98837 0.0
C1104 C 0.57162 0.09775 0.91713 0.0
C1105 C 0.56509 0.08403 0.8869 0.0
C1106 C 0.52924 0.07435 0.05258 0.0
C1107 C 0.55094 0.08635 0.98436 0.0
C1108 C 0.52125 0.07556 0.09801 0.0
C1109 C 0.52661 0.08952 0.12572 0.0
C1110 C 0.5427 0.0872 0.03444 0.0
C1111 C 0.54029 0.10205 0.10715 0.0
C1112 C 0.56457 0.09896 0.96585 0.0
C1113 C 0.55158 0.07167 0.90727 0.0
N1114 N 0.54784 0.10061 0.06245 0.0
N1115 N 0.54496 0.07314 0.95456 0.0
H1116 H 0.51982 0.10408 0.40039 0.0
H1117 H 0.55468 0.0686 0.61442 0.0
H1118 H 0.51268 0.05848 0.38908 0.0
H1119 H 0.56455 0.11517 0.62446 0.0
H1120 H 0.53783 0.06443 0.53532 0.0
H1121 H 0.53495 0.10814 0.48578 0.0
C1122 C 0.52139 0.09492 0.41594 0.0
C1123 C 0.51504 0.08094 0.38743 0.0
C1124 C 0.54363 0.07556 0.55483 0.0
C1125 C 0.53227 0.0855 0.48481 0.0
C1126 C 0.55326 0.07796 0.60013 0.0
C1127 C 0.56111 0.09229 0.62594 0.0
C1128 C 0.54181 0.08759 0.5349 0.0
C1129 C 0.55875 0.10395 0.60568 0.0
C1130 C 0.53002 0.09725 0.46461 0.0
C1131 C 0.51741 0.06947 0.40944 0.0
N1132 N 0.54935 0.10136 0.56112 0.0
N1133 N 0.52584 0.07202 0.45667 0.0
H1134 H 0.91929 0.41618 0.45867 0.0
H1135 H 0.87654 0.45405 0.61413 0.0
H1136 H 0.88005 0.41625 0.38888 0.0
H1137 H 0.92315 0.46636 0.64697 0.0
H1138 H 0.87499 0.43573 0.54354 0.0
H1139 H 0.91785 0.42984 0.54089 0.0
C1140 C 0.91022 0.41885 0.46098 0.0
C1141 C 0.89988 0.41523 0.4165 0.0
C1142 C 0.88551 0.44238 0.56654 0.0
C1143 C 0.89822 0.43089 0.5104 0.0
C1144 C 0.8864 0.45281 0.60686 0.0
C1145 C 0.90005 0.46183 0.63606 0.0
C1146 C 0.89828 0.44085 0.55598 0.0
C1147 C 0.91246 0.45974 0.625 0.0
C1148 C 0.90947 0.42672 0.5078 0.0
C1149 C 0.88835 0.41896 0.42195 0.0
N1150 N 0.91129 0.44948 0.58578 0.0
N1151 N 0.88788 0.42668 0.46791 0.0
H1152 H 0.50616 0.4386 0.59015 0.0
H1153 H 0.58035 0.4743 0.39485 0.0
H1154 H 0.54417 0.43164 0.62128 0.0
H1155 H 0.53957 0.47604 0.35809 0.0
H1156 H 0.5681 0.45965 0.48016 0.0
H1157 H 0.51916 0.4536 0.50751 0.0
C1158 C 0.51728 0.44026 0.57972 0.0
C1159 C 0.52407 0.43381 0.61266 0.0
C1160 C 0.56186 0.46324 0.45328 0.0
C1161 C 0.53906 0.451 0.51761 0.0
C1162 C 0.56884 0.47159 0.40465 0.0
C1163 C 0.56097 0.47639 0.36929 0.0
C1164 C 0.54697 0.45977 0.46657 0.0
C1165 C 0.54609 0.47258 0.38398 0.0
C1166 C 0.5247 0.44881 0.53234 0.0
C1167 C 0.53851 0.43638 0.597 0.0
N1168 N 0.53961 0.46453 0.43145 0.0
N1169 N 0.54553 0.44477 0.55048 0.0
H1170 H 0.4419 0.22965 0.55368 0.0
H1171 H 0.38769 0.17737 0.80149 0.0
H1172 H 0.39509 0.21812 0.57551 0.0
H1173 H 0.43377 0.18652 0.78019 0.0
H1174 H 0.39035 0.19192 0.71696 0.0
H1175 H 0.43929 0.21352 0.63447 0.0
C1176 C 0.43107 0.22368 0.57524 0.0
C1177 C 0.41871 0.22529 0.55796 0.0
C1178 C 0.3999 0.19075 0.73053 0.0
C1179 C 0.41568 0.2069 0.65025 0.0
C1180 C 0.3984 0.18244 0.77898 0.0
C1181 C 0.41055 0.18077 0.7981 0.0
C1182 C 0.4137 0.19755 0.70082 0.0
C1183 C 0.42412 0.18755 0.76693 0.0
C1184 C 0.42959 0.21449 0.62133 0.0
C1185 C 0.40494 0.21728 0.58739 0.0
N1186 N 0.42536 0.19571 0.71983 0.0
N1187 N 0.40383 0.2085 0.63211 0.0
H1188 H 0.76675 0.20475 0.55818 0.0
H1189 H 0.83744 0.22093 0.75055 0.0
H1190 H 0.79814 0.18911 0.5179 0.0
H1191 H 0.81226 0.24451 0.77187 0.0
H1192 H 0.82334 0.20952 0.66431 0.0
H1193 H 0.78334 0.21971 0.63567 0.0
C1194 C 0.77718 0.20454 0.56539 0.0
C1195 C 0.78102 0.19558 0.53173 0.0
C1196 C 0.82096 0.21729 0.6875 0.0
C1197 C 0.79999 0.21261 0.6205 0.0
C1198 C 0.829 0.22379 0.73687 0.0
C1199 C 0.82594 0.2336 0.76864 0.0
C1200 C 0.80964 0.22046 0.66999 0.0
C1201 C 0.81495 0.23698 0.74866 0.0
C1202 C 0.78666 0.21311 0.60956 0.0
C1203 C 0.7947 0.1958 0.54285 0.0
N1204 N 0.80707 0.23029 0.70083 0.0
N1205 N 0.80362 0.20407 0.58659 0.0
H1206 H 0.7901 0.57609 0.85818 0.0
H1207 H 0.77871 0.5492 0.53699 0.0
H1208 H 0.74627 0.55442 0.77618 0.0
H1209 H 0.82209 0.5738 0.62146 0.0
H1210 H 0.76597 0.54799 0.6262 0.0
H1211 H 0.80128 0.57203 0.77426 0.0
C1212 C 0.78279 0.57037 0.82255 0.0
C1213 C 0.76727 0.56577 0.82387 0.0
C1214 C 0.77827 0.55354 0.62511 0.0
C1215 C 0.78006 0.56119 0.72706 0.0
C1216 C 0.78554 0.55423 0.5743 0.0
C1217 C 0.80148 0.56176 0.57168 0.0
C1218 C 0.78704 0.56037 0.67343 0.0
C1219 C 0.80978 0.56803 0.62128 0.0
C1220 C 0.78919 0.56805 0.77453 0.0
C1221 C 0.75832 0.55822 0.77673 0.0
N1222 N 0.80246 0.56725 0.6699 0.0
N1223 N 0.76488 0.55632 0.72984 0.0
H1224 H 0.43568 0.88433 0.38516 0.0
H1225 H 0.47809 0.93705 0.65097 0.0
H1226 H 0.43806 0.92723 0.42038 0.0
H1227 H 0.47945 0.8961 0.6135 0.0
H1228 H 0.46287 0.93302 0.56709 0.0
H1229 H 0.4513 0.88792 0.46868 0.0
C1230 C 0.43951 0.89451 0.41032 0.0
C1231 C 0.43554 0.90549 0.39579 0.0
C1232 C 0.46647 0.92489 0.57703 0.0
C1233 C 0.45332 0.90961 0.49124 0.0
C1234 C 0.47517 0.92717 0.6251 0.0
C1235 C 0.48007 0.9169 0.63931 0.0
C1236 C 0.46256 0.9122 0.54267 0.0
C1237 C 0.47591 0.90431 0.60406 0.0
C1238 C 0.44841 0.89654 0.45795 0.0
C1239 C 0.44082 0.91845 0.42988 0.0
N1240 N 0.46737 0.9023 0.55727 0.0
N1241 N 0.44939 0.92012 0.47597 0.0
H1242 H 0.10838 0.5818 0.57936 0.0
H1243 H 0.06371 0.51122 0.37003 0.0
H1244 H 0.06159 0.54633 0.59954 0.0
H1245 H 0.11194 0.54276 0.35595 0.0
H1246 H 0.06256 0.52569 0.44941 0.0
H1247 H 0.10979 0.56927 0.49297 0.0
C1248 C 0.09841 0.57144 0.56555 0.0
C1249 C 0.08487 0.56505 0.59683 0.0
C1250 C 0.07342 0.52951 0.42899 0.0
C1251 C 0.08639 0.55076 0.49845 0.0
C1252 C 0.07408 0.52124 0.3835 0.0
C1253 C 0.08797 0.52572 0.35649 0.0
C1254 C 0.08674 0.54239 0.44794 0.0
C1255 C 0.101 0.53887 0.37572 0.0
C1256 C 0.09923 0.5643 0.51637 0.0
C1257 C 0.0723 0.55162 0.57706 0.0
N1258 N 0.10009 0.54673 0.42053 0.0
N1259 N 0.07338 0.54495 0.52929 0.0
H1260 H 0.41379 0.52232 0.61877 0.0
H1261 H 0.48655 0.55614 0.41648 0.0
H1262 H 0.45268 0.51647 0.64427 0.0
H1263 H 0.44969 0.56533 0.39322 0.0
H1264 H 0.47337 0.54043 0.4975 0.0
H1265 H 0.42592 0.53715 0.53375 0.0
C1266 C 0.42485 0.52414 0.60649 0.0
C1267 C 0.43225 0.51818 0.63873 0.0
C1268 C 0.46812 0.54585 0.47472 0.0
C1269 C 0.44613 0.53503 0.54176 0.0
C1270 C 0.47564 0.55482 0.4283 0.0
C1271 C 0.46924 0.56212 0.39809 0.0
C1272 C 0.45406 0.54412 0.49131 0.0
C1273 C 0.45505 0.55994 0.41539 0.0
C1274 C 0.43176 0.53259 0.55802 0.0
C1275 C 0.44656 0.52086 0.62088 0.0
N1276 N 0.44794 0.55115 0.46102 0.0
N1277 N 0.45301 0.52908 0.57369 0.0
H1278 H 0.5811 0.79348 0.14591 0.0
H1279 H 0.55642 0.78193 0.46948 0.0
H1280 H 0.5694 0.82358 0.23304 0.0
H1281 H 0.57963 0.76132 0.38743 0.0
H1282 H 0.55717 0.79469 0.38073 0.0
H1283 H 0.57625 0.7787 0.23153 0.0
C1284 C 0.5774 0.79694 0.183 0.0
C1285 C 0.57583 0.8099 0.18247 0.0
C1286 C 0.56203 0.78732 0.38235 0.0
C1287 C 0.5703 0.793 0.28106 0.0
C1288 C 0.56158 0.78002 0.43281 0.0
C1289 C 0.56806 0.77064 0.43587 0.0
C1290 C 0.56884 0.78502 0.33476 0.0
C1291 C 0.57461 0.76855 0.38718 0.0
C1292 C 0.57466 0.7885 0.23199 0.0
C1293 C 0.57085 0.81372 0.23176 0.0
N1294 N 0.57482 0.77568 0.33875 0.0
N1295 N 0.56835 0.80534 0.27936 0.0
H1296 H 0.22793 0.78357 0.44093 0.0
H1297 H 0.17417 0.78645 0.20091 0.0
H1298 H 0.21698 0.81938 0.42344 0.0
H1299 H 0.18411 0.74988 0.21473 0.0
H1300 H 0.18907 0.79794 0.28525 0.0
H1301 H 0.21121 0.77033 0.3611 0.0
C1302 C 0.22197 0.78861 0.42052 0.0
C1303 C 0.22391 0.80264 0.43873 0.0
C1304 C 0.18799 0.78738 0.27008 0.0
C1305 C 0.20483 0.78759 0.34755 0.0
C1306 C 0.17947 0.7808 0.22177 0.0
C1307 C 0.17795 0.76721 0.20054 0.0
C1308 C 0.19514 0.78039 0.29751 0.0
C1309 C 0.18502 0.76039 0.22963 0.0
C1310 C 0.21244 0.78106 0.37496 0.0
C1311 C 0.21589 0.80863 0.41078 0.0
N1312 N 0.19339 0.76709 0.27659 0.0
N1313 N 0.20676 0.8011 0.36657 0.0
H1314 H 0.23916 0.43524 0.21711 0.0
H1315 H 0.16658 0.39288 0.41901 0.0
H1316 H 0.20162 0.38978 0.18977 0.0
H1317 H 0.20158 0.43974 0.44246 0.0
H1318 H 0.18033 0.39132 0.33784 0.0
H1319 H 0.22652 0.43697 0.30244 0.0
C1320 C 0.22829 0.42564 0.22903 0.0
C1321 C 0.22142 0.41236 0.19619 0.0
C1322 C 0.18505 0.40195 0.36071 0.0
C1323 C 0.20697 0.41424 0.29352 0.0
C1324 C 0.1772 0.40285 0.40722 0.0
C1325 C 0.1829 0.41649 0.43749 0.0
C1326 C 0.19873 0.41479 0.34414 0.0
C1327 C 0.19675 0.42901 0.42023 0.0
C1328 C 0.22109 0.42663 0.27768 0.0
C1329 C 0.20733 0.40026 0.21361 0.0
N1330 N 0.20419 0.42788 0.37454 0.0
N1331 N 0.2006 0.4015 0.26099 0.0
H1332 H 0.21645 0.39749 0.918 0.0
H1333 H 0.17695 0.43067 0.71534 0.0
H1334 H 0.22184 0.44218 0.93965 0.0
H1335 H 0.17431 0.38718 0.6929 0.0
H1336 H 0.1926 0.43499 0.79945 0.0
H1337 H 0.20008 0.39336 0.8374 0.0
C1338 C 0.21417 0.40644 0.90588 0.0
C1339 C 0.22057 0.42023 0.93558 0.0
C1340 C 0.18857 0.42451 0.77606 0.0
C1341 C 0.20178 0.41556 0.84286 0.0
C1342 C 0.17963 0.42203 0.72812 0.0
C1343 C 0.17434 0.40856 0.697 0.0
C1344 C 0.19217 0.41341 0.7929 0.0
C1345 C 0.17816 0.39776 0.71543 0.0
C1346 C 0.20481 0.40407 0.85972 0.0
C1347 C 0.21716 0.43139 0.91789 0.0
N1348 N 0.18682 0.40043 0.76207 0.0
N1349 N 0.20801 0.42883 0.87254 0.0
H1350 H 0.55194 0.79323 0.94076 0.0
H1351 H 0.59878 0.79766 0.66432 0.0
H1352 H 0.59642 0.83069 0.89924 0.0
H1353 H 0.55983 0.75576 0.72 0.0
H1354 H 0.59615 0.81056 0.74584 0.0
H1355 H 0.55285 0.77987 0.85594 0.0
C1356 C 0.56184 0.79866 0.91374 0.0
C1357 C 0.57414 0.81307 0.92708 0.0
C1358 C 0.58816 0.79854 0.74039 0.0
C1359 C 0.5752 0.79796 0.83045 0.0
C1360 C 0.58964 0.79115 0.6937 0.0
C1361 C 0.57956 0.77557 0.6855 0.0
C1362 C 0.57649 0.79036 0.77937 0.0
C1363 C 0.56789 0.76778 0.72493 0.0
C1364 C 0.56237 0.79102 0.86556 0.0
C1365 C 0.58671 0.81957 0.8908 0.0
N1366 N 0.56667 0.77526 0.77037 0.0
N1367 N 0.58689 0.81199 0.8442 0.0
H1368 H 0.20954 0.76625 0.94337 0.0
H1369 H 0.20672 0.81871 0.69813 0.0
H1370 H 0.17396 0.77745 0.92419 0.0
H1371 H 0.24352 0.80925 0.71618 0.0
H1372 H 0.19519 0.80428 0.78334 0.0
H1373 H 0.22284 0.78264 0.86298 0.0
C1374 C 0.20457 0.77222 0.92251 0.0
C1375 C 0.19058 0.77042 0.94035 0.0
C1376 C 0.20581 0.80537 0.7689 0.0
C1377 C 0.20568 0.78911 0.84844 0.0
C1378 C 0.21241 0.81361 0.72009 0.0
C1379 C 0.22608 0.81513 0.69982 0.0
C1380 C 0.21288 0.7985 0.7978 0.0
C1381 C 0.23295 0.80832 0.7303 0.0
C1382 C 0.21216 0.78155 0.87661 0.0
C1383 C 0.18468 0.77843 0.91181 0.0
N1384 N 0.22623 0.80023 0.77772 0.0
N1385 N 0.19222 0.78736 0.86721 0.0
H1386 H 0.06956 0.55511 0.86646 0.0
H1387 H 0.1014 0.51734 0.08309 0.0
H1388 H 0.11572 0.56366 0.86039 0.0
H1389 H 0.05705 0.51333 0.09296 0.0
H1390 H 0.10657 0.53271 0.99754 0.0
H1391 H 0.06444 0.538 0.94518 0.0
C1392 C 0.07864 0.55336 0.88158 0.0
C1393 C 0.09314 0.56092 0.85698 0.0
C1394 C 0.09571 0.5284 0.01846 0.0
C1395 C 0.08733 0.54128 0.94775 0.0
C1396 C 0.09274 0.51963 0.06717 0.0
C1397 C 0.0788 0.51411 0.09532 0.0
C1398 C 0.08461 0.53157 0.99786 0.0
C1399 C 0.06799 0.5174 0.07292 0.0
C1400 C 0.0757 0.54356 0.9267 0.0
C1401 C 0.1044 0.55809 0.87825 0.0
N1402 N 0.07114 0.52592 0.02567 0.0
N1403 N 0.10128 0.54853 0.92271 0.0
H1404 H 0.43818 0.50917 0.91727 0.0
H1405 H 0.47475 0.58219 0.11894 0.0
H1406 H 0.43084 0.54721 0.8938 0.0
H1407 H 0.47884 0.54225 0.14404 0.0
H1408 H 0.45958 0.57038 0.03417 0.0
H1409 H 0.45419 0.522 0.99809 0.0
C1410 C 0.43996 0.52026 0.92902 0.0
C1411 C 0.4331 0.5271 0.89878 0.0
C1412 C 0.46383 0.56425 0.0583 0.0
C1413 C 0.45147 0.5419 0.99177 0.0
C1414 C 0.47248 0.57097 0.10663 0.0
C1415 C 0.47804 0.56318 0.13869 0.0
C1416 C 0.46079 0.54967 0.04204 0.0
C1417 C 0.47477 0.54868 0.1208 0.0
C1418 C 0.44912 0.52759 0.97532 0.0
C1419 C 0.43588 0.54151 0.91599 0.0
N1420 N 0.46638 0.54241 0.07379 0.0
N1421 N 0.44483 0.54844 0.9615 0.0
H1422 H 0.45408 0.886 0.88546 0.0
H1423 H 0.45705 0.93603 0.1505 0.0
H1424 H 0.49123 0.93109 0.92199 0.0
H1425 H 0.41805 0.8922 0.11266 0.0
H1426 H 0.46968 0.93395 0.06702 0.0
H1427 H 0.44061 0.88765 0.96828 0.0
C1428 C 0.4594 0.89625 0.91079 0.0
C1429 C 0.47382 0.90842 0.89682 0.0
C1430 C 0.45836 0.92476 0.07678 0.0
C1431 C 0.45851 0.91035 0.99148 0.0
C1432 C 0.45112 0.92593 0.12462 0.0
C1433 C 0.43645 0.91426 0.13865 0.0
C1434 C 0.45093 0.9118 0.04249 0.0
C1435 C 0.42936 0.90147 0.10337 0.0
C1436 C 0.4517 0.89717 0.95802 0.0
C1437 C 0.48015 0.92141 0.9311 0.0
N1438 N 0.43669 0.90057 0.05684 0.0
N1439 N 0.47247 0.92201 0.9768 0.0
H1440 H 0.24287 0.37355 0.13861 0.0
H1441 H 0.20198 0.28827 0.02219 0.0
H1442 H 0.2367 0.36205 0.96201 0.0
H1443 H 0.20488 0.2999 0.19823 0.0
H1444 H 0.21795 0.31523 -0.00025 0.0
H1445 H 0.23242 0.3467 0.16127 0.0
C1446 C 0.23948 0.3654 0.10452 0.0
C1447 C 0.24049 0.37004 0.0483 0.0
C1448 C 0.2152 0.31187 0.04333 0.0
C1449 C 0.2284 0.33924 0.07407 0.0
C1450 C 0.20609 0.29648 0.05621 0.0
C1451 C 0.20194 0.29183 0.11216 0.0
C1452 C 0.2202 0.32272 0.08668 0.0
C1453 C 0.20768 0.30297 0.15447 0.0
C1454 C 0.23348 0.35005 0.11753 0.0
C1455 C 0.23602 0.35898 0.00595 0.0
N1456 N 0.21641 0.3179 0.14082 0.0
N1457 N 0.23003 0.34407 0.01973 0.0
H1458 H 0.71247 0.92926 0.09916 0.0
H1459 H 0.64141 0.84561 0.0578 0.0
H1460 H 0.71593 0.88861 0.08915 0.0
H1461 H 0.63645 0.88464 0.09333 0.0
H1462 H 0.66883 0.86149 0.06824 0.0
H1463 H 0.6847 0.91342 0.09684 0.0
C1464 C 0.7074 0.91701 0.09673 0.0
C1465 C 0.71655 0.91026 0.09406 0.0
C1466 C 0.66177 0.8666 0.07404 0.0
C1467 C 0.68484 0.89211 0.09109 0.0
C1468 C 0.64608 0.85753 0.06794 0.0
C1469 C 0.63661 0.86381 0.07457 0.0
C1470 C 0.66812 0.88213 0.08652 0.0
C1471 C 0.64334 0.87934 0.08785 0.0
C1472 C 0.69156 0.90798 0.09545 0.0
C1473 C 0.70936 0.89433 0.09116 0.0
N1474 N 0.65871 0.888 0.09313 0.0
N1475 N 0.69396 0.88583 0.08942 0.0
H1476 H 0.118 0.74742 0.12792 0.0
H1477 H 0.07889 0.7926 0.00363 0.0
H1478 H 0.11699 0.75668 0.95122 0.0
H1479 H 0.0805 0.78416 0.18078 0.0
H1480 H 0.08987 0.77656 0.98279 0.0
H1481 H 0.10132 0.7578 0.147 0.0
C1482 C 0.11413 0.75146 0.09301 0.0
C1483 C 0.11906 0.75135 0.03792 0.0
C1484 C 0.0877 0.77809 0.02621 0.0
C1485 C 0.10004 0.76336 0.05959 0.0
C1486 C 0.08142 0.78726 0.03818 0.0
C1487 C 0.07894 0.78989 0.09413 0.0
C1488 C 0.09161 0.77155 0.07049 0.0
C1489 C 0.08233 0.78256 0.13706 0.0
C1490 C 0.10462 0.75742 0.10398 0.0
C1491 C 0.11359 0.75666 0.99439 0.0
N1492 N 0.08864 0.77384 0.12437 0.0
N1493 N 0.10451 0.76259 0.00624 0.0
H1494 H 0.29193 0.20635 0.31386 0.0
H1495 H 0.3574 0.23703 0.54737 0.0
H1496 H 0.28353 0.19738 0.49162 0.0
H1497 H 0.36612 0.24323 0.36883 0.0
H1498 H 0.33021 0.22558 0.52848 0.0
H1499 H 0.31898 0.22287 0.33402 0.0
C1500 C 0.29574 0.20796 0.35717 0.0
C1501 C 0.28547 0.20033 0.40106 0.0
C1502 C 0.33808 0.22956 0.49345 0.0
C1503 C 0.31642 0.21919 0.4244 0.0
C1504 C 0.35362 0.23614 0.50422 0.0
C1505 C 0.36405 0.24094 0.45959 0.0
C1506 C 0.3329 0.22774 0.43763 0.0
C1507 C 0.35848 0.23957 0.40454 0.0
C1508 C 0.3112 0.21738 0.36864 0.0
C1509 C 0.29105 0.20292 0.45639 0.0
N1510 N 0.34328 0.23297 0.3951 0.0
N1511 N 0.30616 0.21203 0.46642 0.0
H1512 H 0.7525 0.12839 0.54707 0.0
H1513 H 0.77691 0.08803 0.31405 0.0
H1514 H 0.74521 0.12985 0.36879 0.0
H1515 H 0.78378 0.0857 0.49217 0.0
H1516 H 0.76234 0.10064 0.33458 0.0
H1517 H 0.76108 0.11013 0.52922 0.0
C1518 C 0.75253 0.12474 0.50428 0.0
C1519 C 0.74831 0.13081 0.45931 0.0
C1520 C 0.7669 0.09724 0.36925 0.0
C1521 C 0.75819 0.10999 0.43854 0.0
C1522 C 0.77522 0.09002 0.35753 0.0
C1523 C 0.78174 0.08597 0.4014 0.0
C1524 C 0.76517 0.10054 0.42526 0.0
C1525 C 0.77906 0.08872 0.45697 0.0
C1526 C 0.75745 0.11433 0.49409 0.0
C1527 C 0.7485 0.12561 0.40474 0.0
N1528 N 0.77112 0.096 0.46728 0.0
N1529 N 0.75351 0.11562 0.39588 0.0
H1530 H 0.8824 0.70432 0.52339 0.0
H1531 H 0.87208 0.62625 0.40354 0.0
H1532 H 0.9072 0.70214 0.37952 0.0
H1533 H 0.85408 0.63033 0.56306 0.0
H1534 H 0.88536 0.65397 0.39399 0.0
H1535 H 0.87214 0.67717 0.53861 0.0
C1536 C 0.88575 0.69814 0.49509 0.0
C1537 C 0.89561 0.7055 0.44992 0.0
C1538 C 0.87859 0.64879 0.43127 0.0
C1539 C 0.88382 0.67432 0.46697 0.0
C1540 C 0.871 0.63297 0.43673 0.0
C1541 C 0.86187 0.62595 0.48402 0.0
C1542 C 0.87694 0.65762 0.47316 0.0
C1543 C 0.86093 0.63522 0.52578 0.0
C1544 C 0.8799 0.68262 0.5039 0.0
C1545 C 0.89961 0.69691 0.41482 0.0
N1546 N 0.86827 0.65056 0.51915 0.0
N1547 N 0.8936 0.68174 0.42383 0.0
H1548 H 0.7993 0.69093 0.77308 0.0
H1549 H 0.75563 0.63046 0.01689 0.0
H1550 H 0.78857 0.7026 0.93473 0.0
H1551 H 0.76004 0.61773 0.84762 0.0
H1552 H 0.76714 0.65693 0.98657 0.0
H1553 H 0.78433 0.66399 0.79818 0.0
C1554 C 0.7937 0.68784 0.81362 0.0
C1555 C 0.79529 0.69905 0.85198 0.0
C1556 C 0.7655 0.64834 0.95594 0.0
C1557 C 0.77825 0.66828 0.88116 0.0
C1558 C 0.75895 0.63322 0.97328 0.0
C1559 C 0.75695 0.62188 0.93483 0.0
C1560 C 0.77021 0.65218 0.89983 0.0
C1561 C 0.7614 0.62611 0.87875 0.0
C1562 C 0.78515 0.67245 0.82794 0.0
C1563 C 0.78772 0.69437 0.90386 0.0
N1564 N 0.76794 0.64094 0.86304 0.0
N1565 N 0.77965 0.67935 0.91708 0.0
H1566 H 0.37056 0.12099 0.86572 0.0
H1567 H 0.28647 0.08081 0.99275 0.0
H1568 H 0.36073 0.11847 0.04337 0.0
H1569 H 0.29632 0.08486 0.81487 0.0
H1570 H 0.31355 0.09167 0.01245 0.0
H1571 H 0.34343 0.10478 0.8469 0.0
C1572 C 0.36272 0.11688 0.90087 0.0
C1573 C 0.36792 0.12125 0.9562 0.0
C1574 C 0.30978 0.09007 0.9691 0.0
C1575 C 0.33681 0.10277 0.93483 0.0
C1576 C 0.29431 0.08386 0.95779 0.0
C1577 C 0.28913 0.08208 0.90204 0.0
C1578 C 0.32018 0.09457 0.92436 0.0
C1579 C 0.2998 0.08614 0.85849 0.0
C1580 C 0.34721 0.10765 0.89005 0.0
C1581 C 0.35723 0.1155 2e-05 0.0
N1582 N 0.31483 0.09232 0.87059 0.0
N1583 N 0.34217 0.10668 0.98835 0.0
H1584 H 0.91315 0.19839 0.99513 0.0
H1585 H 0.88045 0.24918 0.8686 0.0
H1586 H 0.9128 0.20754 0.81795 0.0
H1587 H 0.87582 0.23528 0.0425 0.0
H1588 H 0.8966 0.23806 0.85226 0.0
H1589 H 0.90385 0.21588 0.01561 0.0
C1590 C 0.91131 0.20422 0.96052 0.0
C1591 C 0.91355 0.20132 0.90462 0.0
C1592 C 0.8922 0.23759 0.89414 0.0
C1593 C 0.9028 0.22131 0.92787 0.0
C1594 C 0.88299 0.24398 0.90358 0.0
C1595 C 0.87659 0.24297 0.95687 0.0
C1596 C 0.89501 0.23014 0.93826 0.0
C1597 C 0.88037 0.23617 0.0006 0.0
C1598 C 0.90596 0.21419 0.97229 0.0
C1599 C 0.91108 0.20931 0.86161 0.0
N1600 N 0.88921 0.22988 0.99019 0.0
N1601 N 0.90568 0.21882 0.8741 0.0
H1602 H 0.7088 0.81513 0.51096 0.0
H1603 H 0.62507 0.75879 0.6277 0.0
H1604 H 0.70018 0.79518 0.67679 0.0
H1605 H 0.63475 0.77689 0.4589 0.0
H1606 H 0.65242 0.7716 0.64666 0.0
H1607 H 0.6816 0.80104 0.49173 0.0
C1608 C 0.70119 0.80779 0.54344 0.0
C1609 C 0.7068 0.80636 0.59565 0.0
C1610 C 0.64855 0.7727 0.60541 0.0
C1611 C 0.67553 0.79011 0.57374 0.0
C1612 C 0.63293 0.76536 0.59449 0.0
C1613 C 0.6276 0.76681 0.54165 0.0
C1614 C 0.65889 0.78157 0.56324 0.0
C1615 C 0.63832 0.77547 0.50028 0.0
C1616 C 0.68563 0.7997 0.53234 0.0
C1617 C 0.69636 0.79664 0.63598 0.0
N1618 N 0.65342 0.78257 0.51205 0.0
N1619 N 0.68121 0.78889 0.62421 0.0
H1620 H 0.20774 0.91098 0.68338 0.0
H1621 H 0.23784 0.87612 0.44833 0.0
H1622 H 0.19886 0.91094 0.50575 0.0
H1623 H 0.24478 0.87405 0.62656 0.0
H1624 H 0.22667 0.89209 0.46764 0.0
H1625 H 0.22431 0.90057 0.66244 0.0
C1626 C 0.20937 0.90891 0.63994 0.0
C1627 C 0.20176 0.91167 0.59631 0.0
C1628 C 0.23078 0.88827 0.5025 0.0
C1629 C 0.22068 0.89971 0.57205 0.0
C1630 C 0.23719 0.87917 0.49148 0.0
C1631 C 0.24209 0.87357 0.53594 0.0
C1632 C 0.22919 0.89177 0.55838 0.0
C1633 C 0.24104 0.87799 0.59099 0.0
C1634 C 0.21884 0.90296 0.628 0.0
C1635 C 0.20439 0.90886 0.54078 0.0
N1636 N 0.23457 0.88669 0.60068 0.0
N1637 N 0.21353 0.90292 0.5303 0.0
H1638 H 0.10854 0.35377 0.46033 0.0
H1639 H 0.07998 0.29099 0.70273 0.0
H1640 H 0.11459 0.36434 0.63768 0.0
H1641 H 0.07477 0.28048 0.5253 0.0
H1642 H 0.08948 0.31772 0.67997 0.0
H1643 H 0.09302 0.3268 0.48354 0.0
C1644 C 0.10647 0.35045 0.50416 0.0
C1645 C 0.11304 0.36132 0.54711 0.0
C1646 C 0.08611 0.30954 0.64602 0.0
C1647 C 0.09535 0.33045 0.574 0.0
C1648 C 0.08066 0.29426 0.659 0.0
C1649 C 0.07675 0.28349 0.61585 0.0
C1650 C 0.08773 0.31411 0.58947 0.0
C1651 C 0.07778 0.28839 0.55996 0.0
C1652 C 0.09761 0.33503 0.5174 0.0
C1653 C 0.10988 0.35635 0.60316 0.0
N1654 N 0.08332 0.30336 0.54838 0.0
N1655 N 0.10139 0.34126 0.61496 0.0
H1656 H 0.04389 0.58204 0.6731 0.0
H1657 H 0.96214 0.53223 0.81421 0.0
H1658 H 0.03665 0.57491 0.85209 0.0
H1659 H 0.96896 0.54092 0.63579 0.0
H1660 H 0.98923 0.54957 0.82944 0.0
H1661 H 0.01637 0.56907 0.65923 0.0
C1662 C 0.03653 0.57792 0.70958 0.0
C1663 C 0.04259 0.57942 0.76382 0.0
C1664 C 0.9848 0.54777 0.78697 0.0
C1665 C 0.01107 0.56442 0.74814 0.0
C1666 C 0.96932 0.53783 0.77821 0.0
C1667 C 0.96329 0.535 0.72355 0.0
C1668 C 0.99437 0.55489 0.74074 0.0
C1669 C 0.97313 0.54269 0.67861 0.0
C1670 C 0.0208 0.57048 0.70159 0.0
C1671 C 0.03249 0.57392 0.80948 0.0
N1672 N 0.98821 0.55219 0.68816 0.0
N1673 N 0.01723 0.56652 0.80055 0.0
H1674 H 0.41216 0.45745 0.69825 0.0
H1675 H 0.45544 0.41572 0.81665 0.0
H1676 H 0.41916 0.45327 0.87499 0.0
H1677 H 0.45001 0.42151 0.63984 0.0
H1678 H 0.4391 0.42629 0.83887 0.0
H1679 H 0.42282 0.44117 0.67641 0.0
C1680 C 0.41577 0.45297 0.73255 0.0
C1681 C 0.41493 0.45689 0.78855 0.0
C1682 C 0.44136 0.42512 0.79519 0.0
C1683 C 0.42726 0.43832 0.76372 0.0
C1684 C 0.45069 0.41906 0.78243 0.0
C1685 C 0.45426 0.4179 0.72627 0.0
C1686 C 0.43559 0.4301 0.75151 0.0
C1687 C 0.44768 0.42232 0.68374 0.0
C1688 C 0.42189 0.44369 0.72001 0.0
C1689 C 0.41971 0.45066 0.8312 0.0
N1690 N 0.43879 0.42836 0.69726 0.0
N1691 N 0.42581 0.44181 0.81786 0.0
H1692 H 0.55059 0.97088 0.87034 0.0
H1693 H 0.57894 0.03585 0.63579 0.0
H1694 H 0.54059 0.96217 0.69322 0.0
H1695 H 0.58549 0.04493 0.8141 0.0
H1696 H 0.56847 0.0088 0.65506 0.0
H1697 H 0.56683 0.99794 0.84943 0.0
C1698 C 0.55192 0.97463 0.82701 0.0
C1699 C 0.54406 0.96427 0.78355 0.0
C1700 C 0.57234 0.01673 0.68995 0.0
C1701 C 0.5626 0.99521 0.75935 0.0
C1702 C 0.57836 0.03219 0.67896 0.0
C1703 C 0.58292 0.04266 0.72344 0.0
C1704 C 0.57082 0.01168 0.74583 0.0
C1705 C 0.58199 0.03726 0.77851 0.0
C1706 C 0.56118 0.99008 0.81511 0.0
C1707 C 0.54629 0.96976 0.72815 0.0
N1708 N 0.5759 0.02212 0.78818 0.0
N1709 N 0.55526 0.98486 0.71772 0.0
H1710 H 0.45544 0.03841 0.31787 0.0
H1711 H 0.41502 0.954 0.19386 0.0
H1712 H 0.45248 0.02804 0.14058 0.0
H1713 H 0.41951 0.96435 0.3714 0.0
H1714 H 0.42545 0.98097 0.17328 0.0
H1715 H 0.4391 0.01136 0.33772 0.0
C1716 C 0.45122 0.03047 0.28302 0.0
C1717 C 0.4555 0.03549 0.22748 0.0
C1718 C 0.42402 0.97733 0.21675 0.0
C1719 C 0.43684 0.00447 0.25002 0.0
C1720 C 0.41804 0.96192 0.22858 0.0
C1721 C 0.41657 0.95692 0.28448 0.0
C1722 C 0.42862 0.98786 0.26112 0.0
C1723 C 0.42057 0.96769 0.32767 0.0
C1724 C 0.44189 0.01501 0.29442 0.0
C1725 C 0.44959 0.02468 0.18406 0.0
N1726 N 0.42656 0.98267 0.31507 0.0
N1727 N 0.44069 0.00966 0.1963 0.0
H1728 H 0.03116 0.45812 0.16813 0.0
H1729 H 0.94847 0.42075 0.30769 0.0
H1730 H 0.02317 0.45528 0.34725 0.0
H1731 H 0.95629 0.42605 0.12849 0.0
H1732 H 0.97567 0.43115 0.3225 0.0
H1733 H 0.00368 0.44403 0.1525 0.0
C1734 C 0.02364 0.4544 0.20422 0.0
C1735 C 0.02949 0.45799 0.25912 0.0
C1736 C 0.97144 0.42998 0.2799 0.0
C1737 C -0.00199 0.44194 0.24144 0.0
C1738 C 0.95589 0.42404 0.27138 0.0
C1739 C 0.95008 0.42262 0.21673 0.0
C1740 C 0.98131 0.43457 0.2335 0.0
C1741 C 0.96026 0.42701 0.17136 0.0
C1742 C 0.00795 0.4464 0.19522 0.0
C1743 C 0.01919 0.45286 0.3042 0.0
N1744 N 0.9754 0.43286 0.18077 0.0
N1745 N 0.00396 0.44518 0.29434 0.0
H1746 H 0.57503 0.54355 0.13712 0.0
H1747 H 0.54367 0.57595 0.37704 0.0
H1748 H 0.57816 0.53688 0.3149 0.0
H1749 H 0.53795 0.58013 0.19919 0.0
H1750 H 0.55951 0.56476 0.35511 0.0
H1751 H 0.56457 0.56003 0.15917 0.0
C1752 C 0.57365 0.54566 0.1808 0.0
C1753 C 0.57731 0.53868 0.22421 0.0
C1754 C 0.5549 0.56826 0.32088 0.0
C1755 C 0.5653 0.55748 0.24975 0.0
C1756 C 0.54588 0.57467 0.33338 0.0
C1757 C 0.53932 0.57881 0.2899 0.0
C1758 C 0.55736 0.56593 0.26449 0.0
C1759 C 0.54265 0.57697 0.2341 0.0
C1760 C 0.56767 0.55506 0.19336 0.0
C1761 C 0.57537 0.5419 0.28005 0.0
N1762 N 0.55132 0.57054 0.22301 0.0
N1763 N 0.56938 0.55096 0.29118 0.0
loop_
_geom_bond_atom_site_label_1
_geom_bond_atom_site_label_2
_geom_bond_distance
_geom_bond_site_symmetry_2
_ccdc_geom_bond_type
C0 O1 1.160 . S
C0 O7 1.185 . S
O1 C0 1.160 . S
O2 Zn3 1.899 . S
O2 C10 1.284 . S
Zn3 O2 1.899 . S
Zn3 O4 2.032 . S
Zn3 O7 2.086 . S
Zn3 O12 1.977 . S
O4 Zn3 2.032 . S
O4 C8 1.278 . S
C5 O6 1.203 . S
C5 O12 1.267 . S
O6 C5 1.203 . S
O7 C0 1.185 . S
O7 Zn3 2.086 . S
C8 O4 1.278 . S
C8 O9 1.211 . S
O9 C8 1.211 . S
C10 O2 1.284 . S
C10 O11 1.273 . S
O11 C10 1.273 . S
O12 Zn3 1.977 . S
O12 C5 1.267 . S
C13 O14 1.160 . S
C13 O20 1.185 . S
O14 C13 1.160 . S
O15 Zn16 1.899 . S
O15 C23 1.284 . S
Zn16 O15 1.899 . S
Zn16 O17 2.032 . S
Zn16 O20 2.086 . S
Zn16 O25 1.977 . S
O17 Zn16 2.032 . S
O17 C21 1.278 . S
C18 O19 1.203 . S
C18 O25 1.267 . S
O19 C18 1.203 . S
O20 C13 1.185 . S
O20 Zn16 2.086 . S
C21 O17 1.278 . S
C21 O22 1.211 . S
O22 C21 1.211 . S
C23 O15 1.284 . S
C23 O24 1.273 . S
O24 C23 1.273 . S
O25 Zn16 1.977 . S
O25 C18 1.267 . S
C26 O27 1.160 . S
C26 O33 1.185 . S
O27 C26 1.160 . S
O28 Zn29 1.899 . S
O28 C36 1.284 . S
Zn29 O28 1.899 . S
Zn29 O30 2.032 . S
Zn29 O33 2.086 . S
Zn29 O38 1.977 . S
O30 Zn29 2.032 . S
O30 C34 1.278 . S
C31 O32 1.203 . S
C31 O38 1.267 . S
O32 C31 1.203 . S
O33 C26 1.185 . S
O33 Zn29 2.086 . S
C34 O30 1.278 . S
C34 O35 1.211 . S
O35 C34 1.211 . S
C36 O28 1.284 . S
C36 O37 1.273 . S
O37 C36 1.273 . S
O38 Zn29 1.977 . S
O38 C31 1.267 . S
C39 O40 1.160 . S
C39 O46 1.185 . S
O40 C39 1.160 . S
O41 Zn42 1.899 . S
O41 C49 1.284 . S
Zn42 O41 1.899 . S
Zn42 O43 2.032 . S
Zn42 O46 2.086 . S
Zn42 O51 1.977 . S
O43 Zn42 2.032 . S
O43 C47 1.278 . S
C44 O45 1.203 . S
C44 O51 1.267 . S
O45 C44 1.203 . S
O46 C39 1.185 . S
O46 Zn42 2.086 . S
C47 O43 1.278 . S
C47 O48 1.211 . S
O48 C47 1.211 . S
C49 O41 1.284 . S
C49 O50 1.273 . S
O50 C49 1.273 . S
O51 Zn42 1.977 . S
O51 C44 1.267 . S
C52 O53 1.160 . S
C52 O59 1.185 . S
O53 C52 1.160 . S
O54 Zn55 1.899 . S
O54 C62 1.284 . S
Zn55 O54 1.899 . S
Zn55 O56 2.032 . S
Zn55 O59 2.086 . S
Zn55 O64 1.977 . S
O56 Zn55 2.032 . S
O56 C60 1.278 . S
C57 O58 1.203 . S
C57 O64 1.267 . S
O58 C57 1.203 . S
O59 C52 1.185 . S
O59 Zn55 2.086 . S
C60 O56 1.278 . S
C60 O61 1.211 . S
O61 C60 1.211 . S
C62 O54 1.284 . S
C62 O63 1.273 . S
O63 C62 1.273 . S
O64 Zn55 1.977 . S
O64 C57 1.267 . S
C65 O66 1.160 . S
C65 O72 1.185 . S
O66 C65 1.160 . S
O67 Zn68 1.899 . S
O67 C75 1.284 . S
Zn68 O67 1.899 . S
Zn68 O69 2.032 . S
Zn68 O72 2.086 . S
Zn68 O77 1.977 . S
O69 Zn68 2.032 . S
O69 C73 1.278 . S
C70 O71 1.203 . S
C70 O77 1.267 . S
O71 C70 1.203 . S
O72 C65 1.185 . S
O72 Zn68 2.086 . S
C73 O69 1.278 . S
C73 O74 1.211 . S
O74 C73 1.211 . S
C75 O67 1.284 . S
C75 O76 1.273 . S
O76 C75 1.273 . S
O77 Zn68 1.977 . S
O77 C70 1.267 . S
C78 O79 1.160 . S
C78 O85 1.185 . S
O79 C78 1.160 . S
O80 Zn81 1.899 . S
O80 C88 1.284 . S
Zn81 O80 1.899 . S
Zn81 O82 2.032 . S
Zn81 O85 2.086 . S
Zn81 O90 1.977 . S
O82 Zn81 2.032 . S
O82 C86 1.278 . S
C83 O84 1.203 . S
C83 O90 1.267 . S
O84 C83 1.203 . S
O85 C78 1.185 . S
O85 Zn81 2.086 . S
C86 O82 1.278 . S
C86 O87 1.211 . S
O87 C86 1.211 . S
C88 O80 1.284 . S
C88 O89 1.273 . S
O89 C88 1.273 . S
O90 Zn81 1.977 . S
O90 C83 1.267 . S
C91 O92 1.160 . S
C91 O98 1.185 . S
O92 C91 1.160 . S
O93 Zn94 1.899 . S
O93 C101 1.284 . S
Zn94 O93 1.899 . S
Zn94 O95 2.032 . S
Zn94 O98 2.086 . S
Zn94 O103 1.977 . S
O95 Zn94 2.032 . S
O95 C99 1.278 . S
C96 O97 1.203 . S
C96 O103 1.267 . S
O97 C96 1.203 . S
O98 C91 1.185 . S
O98 Zn94 2.086 . S
C99 O95 1.278 . S
C99 O100 1.211 . S
O100 C99 1.211 . S
C101 O93 1.284 . S
C101 O102 1.273 . S
O102 C101 1.273 . S
O103 Zn94 1.977 . S
O103 C96 1.267 . S
C104 O105 1.160 . S
C104 O111 1.185 . S
O105 C104 1.160 . S
O106 Zn107 1.899 . S
O106 C114 1.284 . S
Zn107 O106 1.899 . S
Zn107 O108 2.032 . S
Zn107 O111 2.086 . S
Zn107 O116 1.977 . S
O108 Zn107 2.032 . S
O108 C112 1.278 . S
C109 O110 1.203 . S
C109 O116 1.267 . S
O110 C109 1.203 . S
O111 C104 1.185 . S
O111 Zn107 2.086 . S
C112 O108 1.278 . S
C112 O113 1.211 . S
O113 C112 1.211 . S
C114 O106 1.284 . S
C114 O115 1.273 . S
O115 C114 1.273 . S
O116 Zn107 1.977 . S
O116 C109 1.267 . S
C117 O118 1.160 . S
C117 O124 1.185 . S
O118 C117 1.160 . S
O119 Zn120 1.899 . S
O119 C127 1.284 . S
Zn120 O119 1.899 . S
Zn120 O121 2.032 . S
Zn120 O124 2.086 . S
Zn120 O129 1.977 . S
O121 Zn120 2.032 . S
O121 C125 1.278 . S
C122 O123 1.203 . S
C122 O129 1.267 . S
O123 C122 1.203 . S
O124 C117 1.185 . S
O124 Zn120 2.086 . S
C125 O121 1.278 . S
C125 O126 1.211 . S
O126 C125 1.211 . S
C127 O119 1.284 . S
C127 O128 1.273 . S
O128 C127 1.273 . S
O129 Zn120 1.977 . S
O129 C122 1.267 . S
C130 O131 1.160 . S
C130 O137 1.185 . S
O131 C130 1.160 . S
O132 Zn133 1.899 . S
O132 C140 1.284 . S
Zn133 O132 1.899 . S
Zn133 O134 2.032 . S
Zn133 O137 2.086 . S
Zn133 O142 1.977 . S
O134 Zn133 2.032 . S
O134 C138 1.278 . S
C135 O136 1.203 . S
C135 O142 1.267 . S
O136 C135 1.203 . S
O137 C130 1.185 . S
O137 Zn133 2.086 . S
C138 O134 1.278 . S
C138 O139 1.211 . S
O139 C138 1.211 . S
C140 O132 1.284 . S
C140 O141 1.273 . S
O141 C140 1.273 . S
O142 Zn133 1.977 . S
O142 C135 1.267 . S
C143 O144 1.160 . S
C143 O150 1.185 . S
O144 C143 1.160 . S
O145 Zn146 1.899 . S
O145 C153 1.284 . S
Zn146 O145 1.899 . S
Zn146 O147 2.032 . S
Zn146 O150 2.086 . S
Zn146 O155 1.977 . S
O147 Zn146 2.032 . S
O147 C151 1.278 . S
C148 O149 1.203 . S
C148 O155 1.267 . S
O149 C148 1.203 . S
O150 C143 1.185 . S
O150 Zn146 2.086 . S
C151 O147 1.278 . S
C151 O152 1.211 . S
O152 C151 1.211 . S
C153 O145 1.284 . S
C153 O154 1.273 . S
O154 C153 1.273 . S
O155 Zn146 1.977 . S
O155 C148 1.267 . S
C156 O157 1.160 . S
C156 O163 1.185 . S
O157 C156 1.160 . S
O158 Zn159 1.899 . S
O158 C166 1.284 . S
Zn159 O158 1.899 . S
Zn159 O160 2.032 . S
Zn159 O163 2.086 . S
Zn159 O168 1.977 . S
O160 Zn159 2.032 . S
O160 C164 1.278 . S
C161 O162 1.203 . S
C161 O168 1.267 . S
O162 C161 1.203 . S
O163 C156 1.185 . S
O163 Zn159 2.086 . S
C164 O160 1.278 . S
C164 O165 1.211 . S
O165 C164 1.211 . S
C166 O158 1.284 . S
C166 O167 1.273 . S
O167 C166 1.273 . S
O168 Zn159 1.977 . S
O168 C161 1.267 . S
C169 O170 1.160 . S
C169 O176 1.185 . S
O170 C169 1.160 . S
O171 Zn172 1.899 . S
O171 C179 1.284 . S
Zn172 O171 1.899 . S
Zn172 O173 2.032 . S
Zn172 O176 2.086 . S
Zn172 O181 1.977 . S
O173 Zn172 2.032 . S
O173 C177 1.278 . S
C174 O175 1.203 . S
C174 O181 1.267 . S
O175 C174 1.203 . S
O176 C169 1.185 . S
O176 Zn172 2.086 . S
C177 O173 1.278 . S
C177 O178 1.211 . S
O178 C177 1.211 . S
C179 O171 1.284 . S
C179 O180 1.273 . S
O180 C179 1.273 . S
O181 Zn172 1.977 . S
O181 C174 1.267 . S
C182 O183 1.160 . S
C182 O189 1.185 . S
O183 C182 1.160 . S
O184 Zn185 1.899 . S
O184 C192 1.284 . S
Zn185 O184 1.899 . S
Zn185 O186 2.032 . S
Zn185 O189 2.086 . S
Zn185 O194 1.977 . S
O186 Zn185 2.032 . S
O186 C190 1.278 . S
C187 O188 1.203 . S
C187 O194 1.267 . S
O188 C187 1.203 . S
O189 C182 1.185 . S
O189 Zn185 2.086 . S
C190 O186 1.278 . S
C190 O191 1.211 . S
O191 C190 1.211 . S
C192 O184 1.284 . S
C192 O193 1.273 . S
O193 C192 1.273 . S
O194 Zn185 1.977 . S
O194 C187 1.267 . S
C195 O196 1.160 . S
C195 O202 1.185 . S
O196 C195 1.160 . S
O197 Zn198 1.899 . S
O197 C205 1.284 . S
Zn198 O197 1.899 . S
Zn198 O199 2.032 . S
Zn198 O202 2.086 . S
Zn198 O207 1.977 . S
O199 Zn198 2.032 . S
O199 C203 1.278 . S
C200 O201 1.203 . S
C200 O207 1.267 . S
O201 C200 1.203 . S
O202 C195 1.185 . S
O202 Zn198 2.086 . S
C203 O199 1.278 . S
C203 O204 1.211 . S
O204 C203 1.211 . S
C205 O197 1.284 . S
C205 O206 1.273 . S
O206 C205 1.273 . S
O207 Zn198 1.977 . S
O207 C200 1.267 . S
C208 O209 1.160 . S
C208 O215 1.185 . S
O209 C208 1.160 . S
O210 Zn211 1.899 . S
O210 C218 1.284 . S
Zn211 O210 1.899 . S
Zn211 O212 2.032 . S
Zn211 O215 2.086 . S
Zn211 O220 1.977 . S
O212 Zn211 2.032 . S
O212 C216 1.278 . S
C213 O214 1.203 . S
C213 O220 1.267 . S
O214 C213 1.203 . S
O215 C208 1.185 . S
O215 Zn211 2.086 . S
C216 O212 1.278 . S
C216 O217 1.211 . S
O217 C216 1.211 . S
C218 O210 1.284 . S
C218 O219 1.273 . S
O219 C218 1.273 . S
O220 Zn211 1.977 . S
O220 C213 1.267 . S
C221 O222 1.160 . S
C221 O228 1.185 . S
O222 C221 1.160 . S
O223 Zn224 1.899 . S
O223 C231 1.284 . S
Zn224 O223 1.899 . S
Zn224 O225 2.032 . S
Zn224 O228 2.086 . S
Zn224 O233 1.977 . S
O225 Zn224 2.032 . S
O225 C229 1.278 . S
C226 O227 1.203 . S
C226 O233 1.267 . S
O227 C226 1.203 . S
O228 C221 1.185 . S
O228 Zn224 2.086 . S
C229 O225 1.278 . S
C229 O230 1.211 . S
O230 C229 1.211 . S
C231 O223 1.284 . S
C231 O232 1.273 . S
O232 C231 1.273 . S
O233 Zn224 1.977 . S
O233 C226 1.267 . S
C234 O235 1.160 . S
C234 O241 1.185 . S
O235 C234 1.160 . S
O236 Zn237 1.899 . S
O236 C244 1.284 . S
Zn237 O236 1.899 . S
Zn237 O238 2.032 . S
Zn237 O241 2.086 . S
Zn237 O246 1.977 . S
O238 Zn237 2.032 . S
O238 C242 1.278 . S
C239 O240 1.203 . S
C239 O246 1.267 . S
O240 C239 1.203 . S
O241 C234 1.185 . S
O241 Zn237 2.086 . S
C242 O238 1.278 . S
C242 O243 1.211 . S
O243 C242 1.211 . S
C244 O236 1.284 . S
C244 O245 1.273 . S
O245 C244 1.273 . S
O246 Zn237 1.977 . S
O246 C239 1.267 . S
C247 O248 1.160 . S
C247 O254 1.185 . S
O248 C247 1.160 . S
O249 Zn250 1.899 . S
O249 C257 1.284 . S
Zn250 O249 1.899 . S
Zn250 O251 2.032 . S
Zn250 O254 2.086 . S
Zn250 O259 1.977 . S
O251 Zn250 2.032 . S
O251 C255 1.278 . S
C252 O253 1.203 . S
C252 O259 1.267 . S
O253 C252 1.203 . S
O254 C247 1.185 . S
O254 Zn250 2.086 . S
C255 O251 1.278 . S
C255 O256 1.211 . S
O256 C255 1.211 . S
C257 O249 1.284 . S
C257 O258 1.273 . S
O258 C257 1.273 . S
O259 Zn250 1.977 . S
O259 C252 1.267 . S
C260 O261 1.160 . S
C260 O267 1.185 . S
O261 C260 1.160 . S
O262 Zn263 1.899 . S
O262 C270 1.284 . S
Zn263 O262 1.899 . S
Zn263 O264 2.032 . S
Zn263 O267 2.086 . S
Zn263 O272 1.977 . S
O264 Zn263 2.032 . S
O264 C268 1.278 . S
C265 O266 1.203 . S
C265 O272 1.267 . S
O266 C265 1.203 . S
O267 C260 1.185 . S
O267 Zn263 2.086 . S
C268 O264 1.278 . S
C268 O269 1.211 . S
O269 C268 1.211 . S
C270 O262 1.284 . S
C270 O271 1.273 . S
O271 C270 1.273 . S
O272 Zn263 1.977 . S
O272 C265 1.267 . S
C273 O274 1.160 . S
C273 O280 1.185 1_554 S
O274 C273 1.160 . S
O275 Zn276 1.899 . S
O275 C283 1.284 . S
Zn276 O275 1.899 . S
Zn276 O277 2.032 1_556 S
Zn276 O280 2.086 . S
Zn276 O285 1.977 . S
O277 Zn276 2.032 1_554 S
O277 C281 1.278 . S
C278 O279 1.203 . S
C278 O285 1.267 . S
O279 C278 1.203 . S
O280 C273 1.185 1_556 S
O280 Zn276 2.086 . S
C281 O277 1.278 . S
C281 O282 1.211 . S
O282 C281 1.211 . S
C283 O275 1.284 . S
C283 O284 1.273 1_556 S
O284 C283 1.273 1_554 S
O285 Zn276 1.977 . S
O285 C278 1.267 . S
C286 O287 1.160 . S
C286 O293 1.185 1_554 S
O287 C286 1.160 . S
O288 Zn289 1.899 . S
O288 C296 1.284 . S
Zn289 O288 1.899 . S
Zn289 O290 2.032 1_556 S
Zn289 O293 2.086 . S
Zn289 O298 1.977 . S
O290 Zn289 2.032 1_554 S
O290 C294 1.278 . S
C291 O292 1.203 . S
C291 O298 1.267 . S
O292 C291 1.203 . S
O293 C286 1.185 1_556 S
O293 Zn289 2.086 . S
C294 O290 1.278 . S
C294 O295 1.211 . S
O295 C294 1.211 . S
C296 O288 1.284 . S
C296 O297 1.273 1_556 S
O297 C296 1.273 1_554 S
O298 Zn289 1.977 . S
O298 C291 1.267 . S
C299 O300 1.160 . S
C299 O306 1.185 1_554 S
O300 C299 1.160 . S
O301 Zn302 1.899 . S
O301 C309 1.284 . S
Zn302 O301 1.899 . S
Zn302 O303 2.032 1_556 S
Zn302 O306 2.086 . S
Zn302 O311 1.977 . S
O303 Zn302 2.032 1_554 S
O303 C307 1.278 . S
C304 O305 1.203 . S
C304 O311 1.267 . S
O305 C304 1.203 . S
O306 C299 1.185 1_556 S
O306 Zn302 2.086 . S
C307 O303 1.278 . S
C307 O308 1.211 . S
O308 C307 1.211 . S
C309 O301 1.284 . S
C309 O310 1.273 1_556 S
O310 C309 1.273 1_554 S
O311 Zn302 1.977 . S
O311 C304 1.267 . S
C312 O313 1.160 . S
C312 O319 1.185 . S
O313 C312 1.160 . S
O314 Zn315 1.899 . S
O314 C322 1.284 . S
Zn315 O314 1.899 . S
Zn315 O316 2.032 . S
Zn315 O319 2.086 . S
Zn315 O324 1.977 . S
O316 Zn315 2.032 . S
O316 C320 1.278 . S
C317 O318 1.203 . S
C317 O324 1.267 . S
O318 C317 1.203 . S
O319 C312 1.185 . S
O319 Zn315 2.086 . S
C320 O316 1.278 . S
C320 O321 1.211 . S
O321 C320 1.211 . S
C322 O314 1.284 . S
C322 O323 1.273 . S
O323 C322 1.273 . S
O324 Zn315 1.977 . S
O324 C317 1.267 . S
C325 O326 1.160 . S
C325 O332 1.185 . S
O326 C325 1.160 . S
O327 Zn328 1.899 . S
O327 C335 1.284 . S
Zn328 O327 1.899 . S
Zn328 O329 2.032 . S
Zn328 O332 2.086 . S
Zn328 O337 1.977 . S
O329 Zn328 2.032 . S
O329 C333 1.278 . S
C330 O331 1.203 . S
C330 O337 1.267 . S
O331 C330 1.203 . S
O332 C325 1.185 . S
O332 Zn328 2.086 . S
C333 O329 1.278 . S
C333 O334 1.211 . S
O334 C333 1.211 . S
C335 O327 1.284 . S
C335 O336 1.273 . S
O336 C335 1.273 . S
O337 Zn328 1.977 . S
O337 C330 1.267 . S
C338 O339 1.160 . S
C338 O345 1.185 . S
O339 C338 1.160 . S
O340 Zn341 1.899 . S
O340 C348 1.284 . S
Zn341 O340 1.899 . S
Zn341 O342 2.032 . S
Zn341 O345 2.086 . S
Zn341 O350 1.977 . S
O342 Zn341 2.032 . S
O342 C346 1.278 . S
C343 O344 1.203 . S
C343 O350 1.267 . S
O344 C343 1.203 . S
O345 C338 1.185 . S
O345 Zn341 2.086 . S
C346 O342 1.278 . S
C346 O347 1.211 . S
O347 C346 1.211 . S
C348 O340 1.284 . S
C348 O349 1.273 . S
O349 C348 1.273 . S
O350 Zn341 1.977 . S
O350 C343 1.267 . S
C351 O352 1.160 . S
C351 O358 1.185 1_556 S
O352 C351 1.160 . S
O353 Zn354 1.899 . S
O353 C361 1.284 . S
Zn354 O353 1.899 . S
Zn354 O355 2.032 1_554 S
Zn354 O358 2.086 . S
Zn354 O363 1.977 . S
O355 Zn354 2.032 1_556 S
O355 C359 1.278 . S
C356 O357 1.203 . S
C356 O363 1.267 . S
O357 C356 1.203 . S
O358 C351 1.185 1_554 S
O358 Zn354 2.086 . S
C359 O355 1.278 . S
C359 O360 1.211 . S
O360 C359 1.211 . S
C361 O353 1.284 . S
C361 O362 1.273 1_554 S
O362 C361 1.273 1_556 S
O363 Zn354 1.977 . S
O363 C356 1.267 . S
C364 O365 1.160 . S
C364 O371 1.185 1_556 S
O365 C364 1.160 . S
O366 Zn367 1.899 . S
O366 C374 1.284 . S
Zn367 O366 1.899 . S
Zn367 O368 2.032 1_554 S
Zn367 O371 2.086 . S
Zn367 O376 1.977 . S
O368 Zn367 2.032 1_556 S
O368 C372 1.278 . S
C369 O370 1.203 . S
C369 O376 1.267 . S
O370 C369 1.203 . S
O371 C364 1.185 1_554 S
O371 Zn367 2.086 . S
C372 O368 1.278 . S
C372 O373 1.211 . S
O373 C372 1.211 . S
C374 O366 1.284 . S
C374 O375 1.273 1_554 S
O375 C374 1.273 1_556 S
O376 Zn367 1.977 . S
O376 C369 1.267 . S
C377 O378 1.160 . S
C377 O384 1.185 1_556 S
O378 C377 1.160 . S
O379 Zn380 1.899 . S
O379 C387 1.284 . S
Zn380 O379 1.899 . S
Zn380 O381 2.032 1_554 S
Zn380 O384 2.086 . S
Zn380 O389 1.977 . S
O381 Zn380 2.032 1_556 S
O381 C385 1.278 . S
C382 O383 1.203 . S
C382 O389 1.267 . S
O383 C382 1.203 . S
O384 C377 1.185 1_554 S
O384 Zn380 2.086 . S
C385 O381 1.278 . S
C385 O386 1.211 . S
O386 C385 1.211 . S
C387 O379 1.284 . S
C387 O388 1.273 1_554 S
O388 C387 1.273 1_556 S
O389 Zn380 1.977 . S
O389 C382 1.267 . S
C390 O391 1.160 . S
C390 O397 1.185 . S
O391 C390 1.160 . S
O392 Zn393 1.899 . S
O392 C400 1.284 . S
Zn393 O392 1.899 . S
Zn393 O394 2.032 . S
Zn393 O397 2.086 . S
Zn393 O402 1.977 . S
O394 Zn393 2.032 . S
O394 C398 1.278 . S
C395 O396 1.203 . S
C395 O402 1.267 . S
O396 C395 1.203 . S
O397 C390 1.185 . S
O397 Zn393 2.086 . S
C398 O394 1.278 . S
C398 O399 1.211 . S
O399 C398 1.211 . S
C400 O392 1.284 . S
C400 O401 1.273 . S
O401 C400 1.273 . S
O402 Zn393 1.977 . S
O402 C395 1.267 . S
C403 O404 1.160 . S
C403 O410 1.185 . S
O404 C403 1.160 . S
O405 Zn406 1.899 . S
O405 C413 1.284 . S
Zn406 O405 1.899 . S
Zn406 O407 2.032 . S
Zn406 O410 2.086 . S
Zn406 O415 1.977 . S
O407 Zn406 2.032 . S
O407 C411 1.278 . S
C408 O409 1.203 . S
C408 O415 1.267 . S
O409 C408 1.203 . S
O410 C403 1.185 . S
O410 Zn406 2.086 . S
C411 O407 1.278 . S
C411 O412 1.211 . S
O412 C411 1.211 . S
C413 O405 1.284 . S
C413 O414 1.273 . S
O414 C413 1.273 . S
O415 Zn406 1.977 . S
O415 C408 1.267 . S
C416 O417 1.160 . S
C416 O423 1.185 . S
O417 C416 1.160 . S
O418 Zn419 1.899 . S
O418 C426 1.284 . S
Zn419 O418 1.899 . S
Zn419 O420 2.032 . S
Zn419 O423 2.086 . S
Zn419 O428 1.977 . S
O420 Zn419 2.032 . S
O420 C424 1.278 . S
C421 O422 1.203 . S
C421 O428 1.267 . S
O422 C421 1.203 . S
O423 C416 1.185 . S
O423 Zn419 2.086 . S
C424 O420 1.278 . S
C424 O425 1.211 . S
O425 C424 1.211 . S
C426 O418 1.284 . S
C426 O427 1.273 . S
O427 C426 1.273 . S
O428 Zn419 1.977 . S
O428 C421 1.267 . S
C429 O430 1.160 . S
C429 O436 1.185 . S
O430 C429 1.160 . S
O431 Zn432 1.899 . S
O431 C439 1.284 . S
Zn432 O431 1.899 . S
Zn432 O433 2.032 . S
Zn432 O436 2.086 . S
Zn432 O441 1.977 . S
O433 Zn432 2.032 . S
O433 C437 1.278 . S
C434 O435 1.203 . S
C434 O441 1.267 . S
O435 C434 1.203 . S
O436 C429 1.185 . S
O436 Zn432 2.086 . S
C437 O433 1.278 . S
C437 O438 1.211 . S
O438 C437 1.211 . S
C439 O431 1.284 . S
C439 O440 1.273 . S
O440 C439 1.273 . S
O441 Zn432 1.977 . S
O441 C434 1.267 . S
C442 O443 1.160 . S
C442 O449 1.185 . S
O443 C442 1.160 . S
O444 Zn445 1.899 . S
O444 C452 1.284 . S
Zn445 O444 1.899 . S
Zn445 O446 2.032 . S
Zn445 O449 2.086 . S
Zn445 O454 1.977 . S
O446 Zn445 2.032 . S
O446 C450 1.278 . S
C447 O448 1.203 . S
C447 O454 1.267 . S
O448 C447 1.203 . S
O449 C442 1.185 . S
O449 Zn445 2.086 . S
C450 O446 1.278 . S
C450 O451 1.211 . S
O451 C450 1.211 . S
C452 O444 1.284 . S
C452 O453 1.273 . S
O453 C452 1.273 . S
O454 Zn445 1.977 . S
O454 C447 1.267 . S
C455 O456 1.160 . S
C455 O462 1.185 . S
O456 C455 1.160 . S
O457 Zn458 1.899 . S
O457 C465 1.284 . S
Zn458 O457 1.899 . S
Zn458 O459 2.032 . S
Zn458 O462 2.086 . S
Zn458 O467 1.977 . S
O459 Zn458 2.032 . S
O459 C463 1.278 . S
C460 O461 1.203 . S
C460 O467 1.267 . S
O461 C460 1.203 . S
O462 C455 1.185 . S
O462 Zn458 2.086 . S
C463 O459 1.278 . S
C463 O464 1.211 . S
O464 C463 1.211 . S
C465 O457 1.284 . S
C465 O466 1.273 . S
O466 C465 1.273 . S
O467 Zn458 1.977 . S
O467 C460 1.267 . S
H468 C474 0.930 . S
H469 C478 0.930 . S
H470 C483 0.929 . S
H471 C481 0.929 . S
H472 C476 0.929 . S
H473 C482 0.929 . S
C474 H468 0.930 . S
C474 C475 1.367 . S
C474 C482 1.378 . S
C475 C474 1.367 . S
C475 C483 1.433 . S
C476 H472 0.929 . S
C476 C478 1.378 . S
C476 C480 1.350 . S
C477 C480 1.463 . S
C477 C482 1.350 . S
C477 N485 1.427 . S
C478 H469 0.930 . S
C478 C476 1.378 . S
C478 C479 1.367 . S
C479 C478 1.367 . S
C479 C481 1.433 . S
C480 C476 1.350 . S
C480 C477 1.463 . S
C480 N484 1.427 . S
C481 H471 0.929 . S
C481 C479 1.433 . S
C481 N484 1.384 . S
C482 H473 0.929 . S
C482 C474 1.378 . S
C482 C477 1.350 . S
C483 H470 0.929 . S
C483 C475 1.433 . S
C483 N485 1.384 . S
N484 C480 1.427 . S
N484 C481 1.384 . S
N485 C477 1.427 . S
N485 C483 1.384 . S
H486 C492 0.930 . S
H487 C496 0.930 . S
H488 C501 0.929 . S
H489 C499 0.929 . S
H490 C494 0.929 . S
H491 C500 0.929 . S
C492 H486 0.930 . S
C492 C493 1.367 . S
C492 C500 1.378 . S
C493 C492 1.367 . S
C493 C501 1.433 . S
C494 H490 0.929 . S
C494 C496 1.378 . S
C494 C498 1.350 . S
C495 C498 1.463 1_545 S
C495 C500 1.350 . S
C495 N503 1.427 . S
C496 H487 0.930 . S
C496 C494 1.378 . S
C496 C497 1.367 . S
C497 C496 1.367 . S
C497 C499 1.433 . S
C498 C494 1.350 . S
C498 C495 1.463 1_565 S
C498 N502 1.427 . S
C499 H489 0.929 . S
C499 C497 1.433 . S
C499 N502 1.384 . S
C500 H491 0.929 . S
C500 C492 1.378 . S
C500 C495 1.350 . S
C501 H488 0.929 . S
C501 C493 1.433 . S
C501 N503 1.384 . S
N502 C498 1.427 . S
N502 C499 1.384 . S
N503 C495 1.427 . S
N503 C501 1.384 . S
H504 C510 0.930 . S
H505 C514 0.930 . S
H506 C519 0.929 . S
H507 C517 0.929 . S
H508 C512 0.929 . S
H509 C518 0.929 . S
C510 H504 0.930 . S
C510 C511 1.367 . S
C510 C518 1.378 . S
C511 C510 1.367 . S
C511 C519 1.433 . S
C512 H508 0.929 . S
C512 C514 1.378 . S
C512 C516 1.350 . S
C513 C516 1.463 1_655 S
C513 C518 1.350 . S
C513 N521 1.427 . S
C514 H505 0.930 . S
C514 C512 1.378 . S
C514 C515 1.367 . S
C515 C514 1.367 . S
C515 C517 1.433 . S
C516 C512 1.350 . S
C516 C513 1.463 1_455 S
C516 N520 1.427 . S
C517 H507 0.929 . S
C517 C515 1.433 . S
C517 N520 1.384 . S
C518 H509 0.929 . S
C518 C510 1.378 . S
C518 C513 1.350 . S
C519 H506 0.929 . S
C519 C511 1.433 . S
C519 N521 1.384 . S
N520 C516 1.427 . S
N520 C517 1.384 . S
N521 C513 1.427 . S
N521 C519 1.384 . S
H522 C528 0.930 . S
H523 C532 0.930 . S
H524 C537 0.929 . S
H525 C535 0.929 . S
H526 C530 0.929 . S
H527 C536 0.929 . S
C528 H522 0.930 . S
C528 C529 1.367 . S
C528 C536 1.378 . S
C529 C528 1.367 . S
C529 C537 1.433 . S
C530 H526 0.929 . S
C530 C532 1.378 . S
C530 C534 1.350 . S
C531 C534 1.463 . S
C531 C536 1.350 . S
C531 N539 1.427 . S
C532 H523 0.930 . S
C532 C530 1.378 . S
C532 C533 1.367 . S
C533 C532 1.367 . S
C533 C535 1.433 . S
C534 C530 1.350 . S
C534 C531 1.463 . S
C534 N538 1.427 . S
C535 H525 0.929 . S
C535 C533 1.433 . S
C535 N538 1.384 . S
C536 H527 0.929 . S
C536 C528 1.378 . S
C536 C531 1.350 . S
C537 H524 0.929 . S
C537 C529 1.433 . S
C537 N539 1.384 . S
N538 C534 1.427 . S
N538 C535 1.384 . S
N539 C531 1.427 . S
N539 C537 1.384 . S
H540 C546 0.930 . S
H541 C550 0.930 . S
H542 C555 0.929 . S
H543 C553 0.929 . S
H544 C548 0.929 . S
H545 C554 0.929 . S
C546 H540 0.930 . S
C546 C547 1.367 . S
C546 C554 1.378 . S
C547 C546 1.367 . S
C547 C555 1.433 . S
C548 H544 0.929 . S
C548 C550 1.378 . S
C548 C552 1.350 . S
C549 C552 1.463 1_545 S
C549 C554 1.350 . S
C549 N557 1.427 . S
C550 H541 0.930 . S
C550 C548 1.378 . S
C550 C551 1.367 . S
C551 C550 1.367 . S
C551 C553 1.433 . S
C552 C548 1.350 . S
C552 C549 1.463 1_565 S
C552 N556 1.427 . S
C553 H543 0.929 . S
C553 C551 1.433 . S
C553 N556 1.384 . S
C554 H545 0.929 . S
C554 C546 1.378 . S
C554 C549 1.350 . S
C555 H542 0.929 . S
C555 C547 1.433 . S
C555 N557 1.384 . S
N556 C552 1.427 . S
N556 C553 1.384 . S
N557 C549 1.427 . S
N557 C555 1.384 . S
H558 C564 0.930 . S
H559 C568 0.930 . S
H560 C573 0.929 . S
H561 C571 0.929 . S
H562 C566 0.929 . S
H563 C572 0.929 . S
C564 H558 0.930 . S
C564 C565 1.367 . S
C564 C572 1.378 . S
C565 C564 1.367 . S
C565 C573 1.433 . S
C566 H562 0.929 . S
C566 C568 1.378 . S
C566 C570 1.350 . S
C567 C570 1.463 1_455 S
C567 C572 1.350 . S
C567 N575 1.427 . S
C568 H559 0.930 . S
C568 C566 1.378 . S
C568 C569 1.367 . S
C569 C568 1.367 . S
C569 C571 1.433 . S
C570 C566 1.350 . S
C570 C567 1.463 1_655 S
C570 N574 1.427 . S
C571 H561 0.929 . S
C571 C569 1.433 . S
C571 N574 1.384 . S
C572 H563 0.929 . S
C572 C564 1.378 . S
C572 C567 1.350 . S
C573 H560 0.929 . S
C573 C565 1.433 . S
C573 N575 1.384 . S
N574 C570 1.427 . S
N574 C571 1.384 . S
N575 C567 1.427 . S
N575 C573 1.384 . S
H576 C582 0.930 . S
H577 C586 0.930 . S
H578 C591 0.929 . S
H579 C589 0.929 . S
H580 C584 0.929 . S
H581 C590 0.929 . S
C582 H576 0.930 . S
C582 C583 1.367 . S
C582 C590 1.378 . S
C583 C582 1.367 . S
C583 C591 1.433 . S
C584 H580 0.929 . S
C584 C586 1.378 . S
C584 C588 1.350 . S
C585 C588 1.463 . S
C585 C590 1.350 . S
C585 N593 1.427 . S
C586 H577 0.930 . S
C586 C584 1.378 . S
C586 C587 1.367 . S
C587 C586 1.367 . S
C587 C589 1.433 . S
C588 C584 1.350 . S
C588 C585 1.463 . S
C588 N592 1.427 . S
C589 H579 0.929 . S
C589 C587 1.433 . S
C589 N592 1.384 . S
C590 H581 0.929 . S
C590 C582 1.378 . S
C590 C585 1.350 . S
C591 H578 0.929 . S
C591 C583 1.433 . S
C591 N593 1.384 . S
N592 C588 1.427 . S
N592 C589 1.384 . S
N593 C585 1.427 . S
N593 C591 1.384 . S
H594 C600 0.930 . S
H595 C604 0.930 . S
H596 C609 0.929 . S
H597 C607 0.929 . S
H598 C602 0.929 . S
H599 C608 0.929 . S
C600 H594 0.930 . S
C600 C601 1.367 . S
C600 C608 1.378 . S
C601 C600 1.367 . S
C601 C609 1.433 . S
C602 H598 0.929 . S
C602 C604 1.378 . S
C602 C606 1.350 . S
C603 C606 1.463 . S
C603 C608 1.350 . S
C603 N611 1.427 . S
C604 H595 0.930 . S
C604 C602 1.378 . S
C604 C605 1.367 . S
C605 C604 1.367 . S
C605 C607 1.433 . S
C606 C602 1.350 . S
C606 C603 1.463 . S
C606 N610 1.427 . S
C607 H597 0.929 . S
C607 C605 1.433 . S
C607 N610 1.384 . S
C608 H599 0.929 . S
C608 C600 1.378 . S
C608 C603 1.350 . S
C609 H596 0.929 . S
C609 C601 1.433 . S
C609 N611 1.384 . S
N610 C606 1.427 . S
N610 C607 1.384 . S
N611 C603 1.427 . S
N611 C609 1.384 . S
H612 C618 0.930 . S
H613 C622 0.930 . S
H614 C627 0.929 . S
H615 C625 0.929 . S
H616 C620 0.929 . S
H617 C626 0.929 . S
C618 H612 0.930 . S
C618 C619 1.367 . S
C618 C626 1.378 . S
C619 C618 1.367 . S
C619 C627 1.433 . S
C620 H616 0.929 . S
C620 C622 1.378 . S
C620 C624 1.350 . S
C621 C624 1.463 . S
C621 C626 1.350 . S
C621 N629 1.427 . S
C622 H613 0.930 . S
C622 C620 1.378 . S
C622 C623 1.367 . S
C623 C622 1.367 . S
C623 C625 1.433 . S
C624 C620 1.350 . S
C624 C621 1.463 . S
C624 N628 1.427 . S
C625 H615 0.929 . S
C625 C623 1.433 . S
C625 N628 1.384 . S
C626 H617 0.929 . S
C626 C618 1.378 . S
C626 C621 1.350 . S
C627 H614 0.929 . S
C627 C619 1.433 . S
C627 N629 1.384 . S
N628 C624 1.427 . S
N628 C625 1.384 . S
N629 C621 1.427 . S
N629 C627 1.384 . S
H630 C636 0.930 . S
H631 C640 0.930 . S
H632 C645 0.929 . S
H633 C643 0.929 1_556 S
H634 C638 0.929 . S
H635 C644 0.929 . S
C636 H630 0.930 . S
C636 C637 1.367 . S
C636 C644 1.378 . S
C637 C636 1.367 . S
C637 C645 1.433 . S
C638 H634 0.929 . S
C638 C640 1.378 . S
C638 C642 1.350 . S
C639 C642 1.463 . S
C639 C644 1.350 . S
C639 N647 1.427 . S
C640 H631 0.930 . S
C640 C638 1.378 . S
C640 C641 1.367 . S
C641 C640 1.367 . S
C641 C643 1.433 . S
C642 C638 1.350 . S
C642 C639 1.463 . S
C642 N646 1.427 . S
C643 H633 0.929 1_554 S
C643 C641 1.433 . S
C643 N646 1.384 . S
C644 H635 0.929 . S
C644 C636 1.378 . S
C644 C639 1.350 . S
C645 H632 0.929 . S
C645 C637 1.433 . S
C645 N647 1.384 . S
N646 C642 1.427 . S
N646 C643 1.384 . S
N647 C639 1.427 . S
N647 C645 1.384 . S
H648 C654 0.930 . S
H649 C658 0.930 . S
H650 C663 0.929 1_556 S
H651 C661 0.929 . S
H652 C656 0.929 . S
H653 C662 0.929 . S
C654 H648 0.930 . S
C654 C655 1.367 . S
C654 C662 1.378 . S
C655 C654 1.367 . S
C655 C663 1.433 . S
C656 H652 0.929 . S
C656 C658 1.378 . S
C656 C660 1.350 . S
C657 C660 1.463 . S
C657 C662 1.350 . S
C657 N665 1.427 . S
C658 H649 0.930 . S
C658 C656 1.378 . S
C658 C659 1.367 . S
C659 C658 1.367 . S
C659 C661 1.433 . S
C660 C656 1.350 . S
C660 C657 1.463 . S
C660 N664 1.427 . S
C661 H651 0.929 . S
C661 C659 1.433 . S
C661 N664 1.384 . S
C662 H653 0.929 . S
C662 C654 1.378 . S
C662 C657 1.350 . S
C663 H650 0.929 1_554 S
C663 C655 1.433 . S
C663 N665 1.384 . S
N664 C660 1.427 . S
N664 C661 1.384 . S
N665 C657 1.427 . S
N665 C663 1.384 . S
H666 C672 0.930 . S
H667 C676 0.930 . S
H668 C681 0.929 . S
H669 C679 0.929 . S
H670 C674 0.929 . S
H671 C680 0.929 . S
C672 H666 0.930 . S
C672 C673 1.367 . S
C672 C680 1.378 . S
C673 C672 1.367 . S
C673 C681 1.433 . S
C674 H670 0.929 . S
C674 C676 1.378 . S
C674 C678 1.350 . S
C675 C678 1.463 . S
C675 C680 1.350 . S
C675 N683 1.427 . S
C676 H667 0.930 . S
C676 C674 1.378 . S
C676 C677 1.367 . S
C677 C676 1.367 . S
C677 C679 1.433 . S
C678 C674 1.350 . S
C678 C675 1.463 . S
C678 N682 1.427 . S
C679 H669 0.929 . S
C679 C677 1.433 . S
C679 N682 1.384 . S
C680 H671 0.929 . S
C680 C672 1.378 . S
C680 C675 1.350 . S
C681 H668 0.929 . S
C681 C673 1.433 . S
C681 N683 1.384 . S
N682 C678 1.427 . S
N682 C679 1.384 . S
N683 C675 1.427 . S
N683 C681 1.384 . S
H684 C690 0.930 . S
H685 C694 0.930 . S
H686 C699 0.929 . S
H687 C697 0.929 . S
H688 C692 0.929 . S
H689 C698 0.929 . S
C690 H684 0.930 . S
C690 C691 1.367 . S
C690 C698 1.378 . S
C691 C690 1.367 . S
C691 C699 1.433 . S
C692 H688 0.929 . S
C692 C694 1.378 . S
C692 C696 1.350 . S
C693 C696 1.463 . S
C693 C698 1.350 . S
C693 N701 1.427 . S
C694 H685 0.930 . S
C694 C692 1.378 . S
C694 C695 1.367 . S
C695 C694 1.367 . S
C695 C697 1.433 . S
C696 C692 1.350 . S
C696 C693 1.463 . S
C696 N700 1.427 . S
C697 H687 0.929 . S
C697 C695 1.433 . S
C697 N700 1.384 . S
C698 H689 0.929 . S
C698 C690 1.378 . S
C698 C693 1.350 . S
C699 H686 0.929 . S
C699 C691 1.433 . S
C699 N701 1.384 . S
N700 C696 1.427 . S
N700 C697 1.384 . S
N701 C693 1.427 . S
N701 C699 1.384 . S
H702 C708 0.930 . S
H703 C712 0.930 . S
H704 C717 0.929 . S
H705 C715 0.929 1_554 S
H706 C710 0.929 . S
H707 C716 0.929 . S
C708 H702 0.930 . S
C708 C709 1.367 . S
C708 C716 1.378 . S
C709 C708 1.367 . S
C709 C717 1.433 . S
C710 H706 0.929 . S
C710 C712 1.378 . S
C710 C714 1.350 . S
C711 C714 1.463 . S
C711 C716 1.350 . S
C711 N719 1.427 . S
C712 H703 0.930 . S
C712 C710 1.378 . S
C712 C713 1.367 . S
C713 C712 1.367 . S
C713 C715 1.433 . S
C714 C710 1.350 . S
C714 C711 1.463 . S
C714 N718 1.427 . S
C715 H705 0.929 1_556 S
C715 C713 1.433 . S
C715 N718 1.384 . S
C716 H707 0.929 . S
C716 C708 1.378 . S
C716 C711 1.350 . S
C717 H704 0.929 . S
C717 C709 1.433 . S
C717 N719 1.384 . S
N718 C714 1.427 . S
N718 C715 1.384 . S
N719 C711 1.427 . S
N719 C717 1.384 . S
H720 C726 0.930 . S
H721 C730 0.930 . S
H722 C735 0.929 1_554 S
H723 C733 0.929 . S
H724 C728 0.929 . S
H725 C734 0.929 . S
C726 H720 0.930 . S
C726 C727 1.367 . S
C726 C734 1.378 . S
C727 C726 1.367 . S
C727 C735 1.433 . S
C728 H724 0.929 . S
C728 C730 1.378 . S
C728 C732 1.350 . S
C729 C732 1.463 . S
C729 C734 1.350 . S
C729 N737 1.427 . S
C730 H721 0.930 . S
C730 C728 1.378 . S
C730 C731 1.367 . S
C731 C730 1.367 . S
C731 C733 1.433 . S
C732 C728 1.350 . S
C732 C729 1.463 . S
C732 N736 1.427 . S
C733 H723 0.929 . S
C733 C731 1.433 . S
C733 N736 1.384 . S
C734 H725 0.929 . S
C734 C726 1.378 . S
C734 C729 1.350 . S
C735 H722 0.929 1_556 S
C735 C727 1.433 . S
C735 N737 1.384 . S
N736 C732 1.427 . S
N736 C733 1.384 . S
N737 C729 1.427 . S
N737 C735 1.384 . S
H738 C744 0.930 . S
H739 C748 0.930 . S
H740 C753 0.929 . S
H741 C751 0.929 . S
H742 C746 0.929 . S
H743 C752 0.929 . S
C744 H738 0.930 . S
C744 C745 1.367 . S
C744 C752 1.378 . S
C745 C744 1.367 . S
C745 C753 1.433 . S
C746 H742 0.929 . S
C746 C748 1.378 . S
C746 C750 1.350 . S
C747 C750 1.463 . S
C747 C752 1.350 . S
C747 N755 1.427 . S
C748 H739 0.930 . S
C748 C746 1.378 . S
C748 C749 1.367 . S
C749 C748 1.367 . S
C749 C751 1.433 . S
C750 C746 1.350 . S
C750 C747 1.463 . S
C750 N754 1.427 . S
C751 H741 0.929 . S
C751 C749 1.433 . S
C751 N754 1.384 . S
C752 H743 0.929 . S
C752 C744 1.378 . S
C752 C747 1.350 . S
C753 H740 0.929 . S
C753 C745 1.433 . S
C753 N755 1.384 . S
N754 C750 1.427 . S
N754 C751 1.384 . S
N755 C747 1.427 . S
N755 C753 1.384 . S
H756 C762 0.930 . S
H757 C766 0.930 . S
H758 C771 0.929 . S
H759 C769 0.929 . S
H760 C764 0.929 . S
H761 C770 0.929 . S
C762 H756 0.930 . S
C762 C763 1.367 . S
C762 C770 1.378 . S
C763 C762 1.367 . S
C763 C771 1.433 . S
C764 H760 0.929 . S
C764 C766 1.378 . S
C764 C768 1.350 . S
C765 C768 1.463 . S
C765 C770 1.350 . S
C765 N773 1.427 . S
C766 H757 0.930 . S
C766 C764 1.378 . S
C766 C767 1.367 . S
C767 C766 1.367 . S
C767 C769 1.433 . S
C768 C764 1.350 . S
C768 C765 1.463 . S
C768 N772 1.427 . S
C769 H759 0.929 . S
C769 C767 1.433 . S
C769 N772 1.384 . S
C770 H761 0.929 . S
C770 C762 1.378 . S
C770 C765 1.350 . S
C771 H758 0.929 . S
C771 C763 1.433 . S
C771 N773 1.384 . S
N772 C768 1.427 . S
N772 C769 1.384 . S
N773 C765 1.427 . S
N773 C771 1.384 . S
H774 C780 0.930 . S
H775 C784 0.930 . S
H776 C789 0.929 . S
H777 C787 0.929 . S
H778 C782 0.929 . S
H779 C788 0.929 . S
C780 H774 0.930 . S
C780 C781 1.367 . S
C780 C788 1.378 . S
C781 C780 1.367 . S
C781 C789 1.433 . S
C782 H778 0.929 . S
C782 C784 1.378 . S
C782 C786 1.350 . S
C783 C786 1.463 . S
C783 C788 1.350 . S
C783 N791 1.427 . S
C784 H775 0.930 . S
C784 C782 1.378 . S
C784 C785 1.367 . S
C785 C784 1.367 . S
C785 C787 1.433 . S
C786 C782 1.350 . S
C786 C783 1.463 . S
C786 N790 1.427 . S
C787 H777 0.929 . S
C787 C785 1.433 . S
C787 N790 1.384 . S
C788 H779 0.929 . S
C788 C780 1.378 . S
C788 C783 1.350 . S
C789 H776 0.929 . S
C789 C781 1.433 . S
C789 N791 1.384 . S
N790 C786 1.427 . S
N790 C787 1.384 . S
N791 C783 1.427 . S
N791 C789 1.384 . S
H792 C798 0.930 . S
H793 C802 0.930 . S
H794 C807 0.929 . S
H795 C805 0.929 . S
H796 C800 0.929 . S
H797 C806 0.929 . S
C798 H792 0.930 . S
C798 C799 1.367 . S
C798 C806 1.378 . S
C799 C798 1.367 . S
C799 C807 1.433 . S
C800 H796 0.929 . S
C800 C802 1.378 . S
C800 C804 1.350 . S
C801 C804 1.463 . S
C801 C806 1.350 . S
C801 N809 1.427 . S
C802 H793 0.930 . S
C802 C800 1.378 . S
C802 C803 1.367 1_556 S
C803 C802 1.367 1_554 S
C803 C805 1.433 . S
C804 C800 1.350 . S
C804 C801 1.463 . S
C804 N808 1.427 . S
C805 H795 0.929 . S
C805 C803 1.433 . S
C805 N808 1.384 1_554 S
C806 H797 0.929 . S
C806 C798 1.378 . S
C806 C801 1.350 . S
C807 H794 0.929 . S
C807 C799 1.433 . S
C807 N809 1.384 . S
N808 C804 1.427 . S
N808 C805 1.384 1_556 S
N809 C801 1.427 . S
N809 C807 1.384 . S
H810 C816 0.930 . S
H811 C820 0.930 . S
H812 C825 0.929 . S
H813 C823 0.929 . S
H814 C818 0.929 . S
H815 C824 0.929 . S
C816 H810 0.930 . S
C816 C817 1.367 . S
C816 C824 1.378 1_554 S
C817 C816 1.367 . S
C817 C825 1.433 1_554 S
C818 H814 0.929 . S
C818 C820 1.378 . S
C818 C822 1.350 . S
C819 C822 1.463 . S
C819 C824 1.350 . S
C819 N827 1.427 . S
C820 H811 0.930 . S
C820 C818 1.378 . S
C820 C821 1.367 . S
C821 C820 1.367 . S
C821 C823 1.433 . S
C822 C818 1.350 . S
C822 C819 1.463 . S
C822 N826 1.427 . S
C823 H813 0.929 . S
C823 C821 1.433 . S
C823 N826 1.384 . S
C824 H815 0.929 . S
C824 C816 1.378 1_556 S
C824 C819 1.350 . S
C825 H812 0.929 . S
C825 C817 1.433 1_556 S
C825 N827 1.384 . S
N826 C822 1.427 . S
N826 C823 1.384 . S
N827 C819 1.427 . S
N827 C825 1.384 . S
H828 C834 0.930 . S
H829 C838 0.930 . S
H830 C843 0.929 . S
H831 C841 0.929 . S
H832 C836 0.929 . S
H833 C842 0.929 . S
C834 H828 0.930 . S
C834 C835 1.367 . S
C834 C842 1.378 1_554 S
C835 C834 1.367 . S
C835 C843 1.433 1_554 S
C836 H832 0.929 . S
C836 C838 1.378 . S
C836 C840 1.350 . S
C837 C840 1.463 . S
C837 C842 1.350 . S
C837 N845 1.427 . S
C838 H829 0.930 . S
C838 C836 1.378 . S
C838 C839 1.367 . S
C839 C838 1.367 . S
C839 C841 1.433 . S
C840 C836 1.350 . S
C840 C837 1.463 . S
C840 N844 1.427 . S
C841 H831 0.929 . S
C841 C839 1.433 . S
C841 N844 1.384 . S
C842 H833 0.929 . S
C842 C834 1.378 1_556 S
C842 C837 1.350 . S
C843 H830 0.929 . S
C843 C835 1.433 1_556 S
C843 N845 1.384 . S
N844 C840 1.427 . S
N844 C841 1.384 . S
N845 C837 1.427 . S
N845 C843 1.384 . S
H846 C852 0.930 . S
H847 C856 0.930 . S
H848 C861 0.929 . S
H849 C859 0.929 . S
H850 C854 0.929 . S
H851 C860 0.929 . S
C852 H846 0.930 . S
C852 C853 1.367 . S
C852 C860 1.378 . S
C853 C852 1.367 . S
C853 C861 1.433 . S
C854 H850 0.929 . S
C854 C856 1.378 . S
C854 C858 1.350 . S
C855 C858 1.463 . S
C855 C860 1.350 . S
C855 N863 1.427 . S
C856 H847 0.930 . S
C856 C854 1.378 . S
C856 C857 1.367 . S
C857 C856 1.367 . S
C857 C859 1.433 . S
C858 C854 1.350 . S
C858 C855 1.463 . S
C858 N862 1.427 . S
C859 H849 0.929 . S
C859 C857 1.433 . S
C859 N862 1.384 . S
C860 H851 0.929 . S
C860 C852 1.378 . S
C860 C855 1.350 . S
C861 H848 0.929 . S
C861 C853 1.433 . S
C861 N863 1.384 . S
N862 C858 1.427 . S
N862 C859 1.384 . S
N863 C855 1.427 . S
N863 C861 1.384 . S
H864 C870 0.930 . S
H865 C874 0.930 . S
H866 C879 0.929 . S
H867 C877 0.929 . S
H868 C872 0.929 . S
H869 C878 0.929 . S
C870 H864 0.930 . S
C870 C871 1.367 . S
C870 C878 1.378 . S
C871 C870 1.367 . S
C871 C879 1.433 . S
C872 H868 0.929 . S
C872 C874 1.378 . S
C872 C876 1.350 . S
C873 C876 1.463 . S
C873 C878 1.350 . S
C873 N881 1.427 . S
C874 H865 0.930 . S
C874 C872 1.378 . S
C874 C875 1.367 . S
C875 C874 1.367 . S
C875 C877 1.433 . S
C876 C872 1.350 . S
C876 C873 1.463 . S
C876 N880 1.427 . S
C877 H867 0.929 . S
C877 C875 1.433 . S
C877 N880 1.384 . S
C878 H869 0.929 . S
C878 C870 1.378 . S
C878 C873 1.350 . S
C879 H866 0.929 . S
C879 C871 1.433 . S
C879 N881 1.384 . S
N880 C876 1.427 . S
N880 C877 1.384 . S
N881 C873 1.427 . S
N881 C879 1.384 . S
H882 C888 0.930 . S
H883 C892 0.930 . S
H884 C897 0.929 . S
H885 C895 0.929 . S
H886 C890 0.929 . S
H887 C896 0.929 . S
C888 H882 0.930 . S
C888 C889 1.367 . S
C888 C896 1.378 . S
C889 C888 1.367 . S
C889 C897 1.433 . S
C890 H886 0.929 . S
C890 C892 1.378 . S
C890 C894 1.350 . S
C891 C894 1.463 . S
C891 C896 1.350 . S
C891 N899 1.427 . S
C892 H883 0.930 . S
C892 C890 1.378 . S
C892 C893 1.367 . S
C893 C892 1.367 . S
C893 C895 1.433 . S
C894 C890 1.350 . S
C894 C891 1.463 . S
C894 N898 1.427 . S
C895 H885 0.929 . S
C895 C893 1.433 . S
C895 N898 1.384 . S
C896 H887 0.929 . S
C896 C888 1.378 . S
C896 C891 1.350 . S
C897 H884 0.929 . S
C897 C889 1.433 . S
C897 N899 1.384 . S
N898 C894 1.427 . S
N898 C895 1.384 . S
N899 C891 1.427 . S
N899 C897 1.384 . S
H900 C906 0.930 . S
H901 C910 0.930 . S
H902 C915 0.929 . S
H903 C913 0.929 . S
H904 C908 0.929 . S
H905 C914 0.929 . S
C906 H900 0.930 . S
C906 C907 1.367 . S
C906 C914 1.378 1_556 S
C907 C906 1.367 . S
C907 C915 1.433 1_556 S
C908 H904 0.929 . S
C908 C910 1.378 . S
C908 C912 1.350 . S
C909 C912 1.463 . S
C909 C914 1.350 . S
C909 N917 1.427 . S
C910 H901 0.930 . S
C910 C908 1.378 . S
C910 C911 1.367 . S
C911 C910 1.367 . S
C911 C913 1.433 . S
C912 C908 1.350 . S
C912 C909 1.463 . S
C912 N916 1.427 . S
C913 H903 0.929 . S
C913 C911 1.433 . S
C913 N916 1.384 . S
C914 H905 0.929 . S
C914 C906 1.378 1_554 S
C914 C909 1.350 . S
C915 H902 0.929 . S
C915 C907 1.433 1_554 S
C915 N917 1.384 . S
N916 C912 1.427 . S
N916 C913 1.384 . S
N917 C909 1.427 . S
N917 C915 1.384 . S
H918 C924 0.930 . S
H919 C928 0.930 . S
H920 C933 0.929 . S
H921 C931 0.929 . S
H922 C926 0.929 . S
H923 C932 0.929 . S
C924 H918 0.930 . S
C924 C925 1.367 . S
C924 C932 1.378 1_556 S
C925 C924 1.367 . S
C925 C933 1.433 1_556 S
C926 H922 0.929 . S
C926 C928 1.378 . S
C926 C930 1.350 . S
C927 C930 1.463 . S
C927 C932 1.350 . S
C927 N935 1.427 . S
C928 H919 0.930 . S
C928 C926 1.378 . S
C928 C929 1.367 . S
C929 C928 1.367 . S
C929 C931 1.433 . S
C930 C926 1.350 . S
C930 C927 1.463 . S
C930 N934 1.427 . S
C931 H921 0.929 . S
C931 C929 1.433 . S
C931 N934 1.384 . S
C932 H923 0.929 . S
C932 C924 1.378 1_554 S
C932 C927 1.350 . S
C933 H920 0.929 . S
C933 C925 1.433 1_554 S
C933 N935 1.384 . S
N934 C930 1.427 . S
N934 C931 1.384 . S
N935 C927 1.427 . S
N935 C933 1.384 . S
H936 C942 0.930 . S
H937 C946 0.930 . S
H938 C951 0.929 . S
H939 C949 0.929 . S
H940 C944 0.929 . S
H941 C950 0.929 . S
C942 H936 0.930 . S
C942 C943 1.367 . S
C942 C950 1.378 . S
C943 C942 1.367 . S
C943 C951 1.433 . S
C944 H940 0.929 . S
C944 C946 1.378 . S
C944 C948 1.350 . S
C945 C948 1.463 . S
C945 C950 1.350 . S
C945 N953 1.427 . S
C946 H937 0.930 . S
C946 C944 1.378 . S
C946 C947 1.367 1_554 S
C947 C946 1.367 1_556 S
C947 C949 1.433 . S
C948 C944 1.350 . S
C948 C945 1.463 . S
C948 N952 1.427 . S
C949 H939 0.929 . S
C949 C947 1.433 . S
C949 N952 1.384 1_556 S
C950 H941 0.929 . S
C950 C942 1.378 . S
C950 C945 1.350 . S
C951 H938 0.929 . S
C951 C943 1.433 . S
C951 N953 1.384 . S
N952 C948 1.427 . S
N952 C949 1.384 1_554 S
N953 C945 1.427 . S
N953 C951 1.384 . S
H954 C960 0.930 . S
H955 C964 0.930 . S
H956 C969 0.929 . S
H957 C967 0.929 . S
H958 C962 0.929 . S
H959 C968 0.929 . S
C960 H954 0.930 . S
C960 C961 1.367 . S
C960 C968 1.378 . S
C961 C960 1.367 . S
C961 C969 1.433 . S
C962 H958 0.929 . S
C962 C964 1.378 . S
C962 C966 1.350 . S
C963 C966 1.463 . S
C963 C968 1.350 . S
C963 N971 1.427 . S
C964 H955 0.930 . S
C964 C962 1.378 . S
C964 C965 1.367 . S
C965 C964 1.367 . S
C965 C967 1.433 . S
C966 C962 1.350 . S
C966 C963 1.463 . S
C966 N970 1.427 . S
C967 H957 0.929 . S
C967 C965 1.433 . S
C967 N970 1.384 . S
C968 H959 0.929 . S
C968 C960 1.378 . S
C968 C963 1.350 . S
C969 H956 0.929 . S
C969 C961 1.433 . S
C969 N971 1.384 . S
N970 C966 1.427 . S
N970 C967 1.384 . S
N971 C963 1.427 . S
N971 C969 1.384 . S
H972 C978 0.930 . S
H973 C982 0.930 . S
H974 C987 0.929 . S
H975 C985 0.929 . S
H976 C980 0.929 . S
H977 C986 0.929 . S
C978 H972 0.930 . S
C978 C979 1.367 . S
C978 C986 1.378 . S
C979 C978 1.367 . S
C979 C987 1.433 . S
C980 H976 0.929 . S
C980 C982 1.378 . S
C980 C984 1.350 . S
C981 C984 1.463 . S
C981 C986 1.350 . S
C981 N989 1.427 . S
C982 H973 0.930 . S
C982 C980 1.378 . S
C982 C983 1.367 . S
C983 C982 1.367 . S
C983 C985 1.433 . S
C984 C980 1.350 . S
C984 C981 1.463 . S
C984 N988 1.427 . S
C985 H975 0.929 . S
C985 C983 1.433 . S
C985 N988 1.384 . S
C986 H977 0.929 . S
C986 C978 1.378 . S
C986 C981 1.350 . S
C987 H974 0.929 . S
C987 C979 1.433 . S
C987 N989 1.384 . S
N988 C984 1.427 . S
N988 C985 1.384 . S
N989 C981 1.427 . S
N989 C987 1.384 . S
H990 C996 0.930 . S
H991 C1000 0.930 . S
H992 C1005 0.929 . S
H993 C1003 0.929 . S
H994 C998 0.929 . S
H995 C1004 0.929 . S
C996 H990 0.930 . S
C996 C997 1.367 . S
C996 C1004 1.378 . S
C997 C996 1.367 . S
C997 C1005 1.433 . S
C998 H994 0.929 . S
C998 C1000 1.378 . S
C998 C1002 1.350 . S
C999 C1002 1.463 . S
C999 C1004 1.350 . S
C999 N1007 1.427 . S
C1000 H991 0.930 . S
C1000 C998 1.378 . S
C1000 C1001 1.367 . S
C1001 C1000 1.367 . S
C1001 C1003 1.433 . S
C1002 C998 1.350 . S
C1002 C999 1.463 . S
C1002 N1006 1.427 . S
C1003 H993 0.929 . S
C1003 C1001 1.433 . S
C1003 N1006 1.384 . S
C1004 H995 0.929 . S
C1004 C996 1.378 . S
C1004 C999 1.350 . S
C1005 H992 0.929 . S
C1005 C997 1.433 . S
C1005 N1007 1.384 . S
N1006 C1002 1.427 . S
N1006 C1003 1.384 . S
N1007 C999 1.427 . S
N1007 C1005 1.384 . S
H1008 C1014 0.930 . S
H1009 C1018 0.930 . S
H1010 C1023 0.929 . S
H1011 C1021 0.929 . S
H1012 C1016 0.929 . S
H1013 C1022 0.929 . S
C1014 H1008 0.930 . S
C1014 C1015 1.367 . S
C1014 C1022 1.378 . S
C1015 C1014 1.367 . S
C1015 C1023 1.433 . S
C1016 H1012 0.929 . S
C1016 C1018 1.378 . S
C1016 C1020 1.350 . S
C1017 C1020 1.463 . S
C1017 C1022 1.350 . S
C1017 N1025 1.427 . S
C1018 H1009 0.930 . S
C1018 C1016 1.378 . S
C1018 C1019 1.367 . S
C1019 C1018 1.367 . S
C1019 C1021 1.433 . S
C1020 C1016 1.350 . S
C1020 C1017 1.463 . S
C1020 N1024 1.427 . S
C1021 H1011 0.929 . S
C1021 C1019 1.433 . S
C1021 N1024 1.384 . S
C1022 H1013 0.929 . S
C1022 C1014 1.378 . S
C1022 C1017 1.350 . S
C1023 H1010 0.929 . S
C1023 C1015 1.433 . S
C1023 N1025 1.384 . S
N1024 C1020 1.427 . S
N1024 C1021 1.384 . S
N1025 C1017 1.427 . S
N1025 C1023 1.384 . S
H1026 C1032 0.930 . S
H1027 C1036 0.930 . S
H1028 C1041 0.929 . S
H1029 C1039 0.929 . S
H1030 C1034 0.929 . S
H1031 C1040 0.929 . S
C1032 H1026 0.930 . S
C1032 C1033 1.367 . S
C1032 C1040 1.378 . S
C1033 C1032 1.367 . S
C1033 C1041 1.433 . S
C1034 H1030 0.929 . S
C1034 C1036 1.378 . S
C1034 C1038 1.350 . S
C1035 C1038 1.463 . S
C1035 C1040 1.350 . S
C1035 N1043 1.427 . S
C1036 H1027 0.930 . S
C1036 C1034 1.378 . S
C1036 C1037 1.367 . S
C1037 C1036 1.367 . S
C1037 C1039 1.433 . S
C1038 C1034 1.350 . S
C1038 C1035 1.463 . S
C1038 N1042 1.427 . S
C1039 H1029 0.929 . S
C1039 C1037 1.433 . S
C1039 N1042 1.384 . S
C1040 H1031 0.929 . S
C1040 C1032 1.378 . S
C1040 C1035 1.350 . S
C1041 H1028 0.929 . S
C1041 C1033 1.433 . S
C1041 N1043 1.384 . S
N1042 C1038 1.427 . S
N1042 C1039 1.384 . S
N1043 C1035 1.427 . S
N1043 C1041 1.384 . S
H1044 C1050 0.930 . S
H1045 C1054 0.930 . S
H1046 C1059 0.929 . S
H1047 C1057 0.929 . S
H1048 C1052 0.929 . S
H1049 C1058 0.929 . S
C1050 H1044 0.930 . S
C1050 C1051 1.367 . S
C1050 C1058 1.378 . S
C1051 C1050 1.367 . S
C1051 C1059 1.433 . S
C1052 H1048 0.929 . S
C1052 C1054 1.378 . S
C1052 C1056 1.350 . S
C1053 C1056 1.463 . S
C1053 C1058 1.350 . S
C1053 N1061 1.427 . S
C1054 H1045 0.930 . S
C1054 C1052 1.378 . S
C1054 C1055 1.367 . S
C1055 C1054 1.367 . S
C1055 C1057 1.433 . S
C1056 C1052 1.350 . S
C1056 C1053 1.463 . S
C1056 N1060 1.427 . S
C1057 H1047 0.929 . S
C1057 C1055 1.433 . S
C1057 N1060 1.384 . S
C1058 H1049 0.929 . S
C1058 C1050 1.378 . S
C1058 C1053 1.350 . S
C1059 H1046 0.929 . S
C1059 C1051 1.433 . S
C1059 N1061 1.384 . S
N1060 C1056 1.427 . S
N1060 C1057 1.384 . S
N1061 C1053 1.427 . S
N1061 C1059 1.384 . S
H1062 C1068 0.930 . S
H1063 C1072 0.930 . S
H1064 C1077 0.929 . S
H1065 C1075 0.929 . S
H1066 C1070 0.929 . S
H1067 C1076 0.929 . S
C1068 H1062 0.930 . S
C1068 C1069 1.367 . S
C1068 C1076 1.378 . S
C1069 C1068 1.367 . S
C1069 C1077 1.433 . S
C1070 H1066 0.929 . S
C1070 C1072 1.378 . S
C1070 C1074 1.350 1_554 S
C1071 C1074 1.463 . S
C1071 C1076 1.350 . S
C1071 N1079 1.427 . S
C1072 H1063 0.930 . S
C1072 C1070 1.378 . S
C1072 C1073 1.367 . S
C1073 C1072 1.367 . S
C1073 C1075 1.433 . S
C1074 C1070 1.350 1_556 S
C1074 C1071 1.463 . S
C1074 N1078 1.427 . S
C1075 H1065 0.929 . S
C1075 C1073 1.433 . S
C1075 N1078 1.384 1_554 S
C1076 H1067 0.929 . S
C1076 C1068 1.378 . S
C1076 C1071 1.350 . S
C1077 H1064 0.929 . S
C1077 C1069 1.433 . S
C1077 N1079 1.384 . S
N1078 C1074 1.427 . S
N1078 C1075 1.384 1_556 S
N1079 C1071 1.427 . S
N1079 C1077 1.384 . S
H1080 C1086 0.930 . S
H1081 C1090 0.930 . S
H1082 C1095 0.929 . S
H1083 C1093 0.929 . S
H1084 C1088 0.929 . S
H1085 C1094 0.929 . S
C1086 H1080 0.930 . S
C1086 C1087 1.367 . S
C1086 C1094 1.378 . S
C1087 C1086 1.367 . S
C1087 C1095 1.433 . S
C1088 H1084 0.929 . S
C1088 C1090 1.378 . S
C1088 C1092 1.350 . S
C1089 C1092 1.463 . S
C1089 C1094 1.350 1_556 S
C1089 N1097 1.427 . S
C1090 H1081 0.930 . S
C1090 C1088 1.378 . S
C1090 C1091 1.367 . S
C1091 C1090 1.367 . S
C1091 C1093 1.433 . S
C1092 C1088 1.350 . S
C1092 C1089 1.463 . S
C1092 N1096 1.427 . S
C1093 H1083 0.929 . S
C1093 C1091 1.433 . S
C1093 N1096 1.384 . S
C1094 H1085 0.929 . S
C1094 C1086 1.378 . S
C1094 C1089 1.350 1_554 S
C1095 H1082 0.929 . S
C1095 C1087 1.433 . S
C1095 N1097 1.384 1_554 S
N1096 C1092 1.427 . S
N1096 C1093 1.384 . S
N1097 C1089 1.427 . S
N1097 C1095 1.384 1_556 S
H1098 C1104 0.930 . S
H1099 C1108 0.930 . S
H1100 C1113 0.929 . S
H1101 C1111 0.929 . S
H1102 C1106 0.929 . S
H1103 C1112 0.929 . S
C1104 H1098 0.930 . S
C1104 C1105 1.367 . S
C1104 C1112 1.378 . S
C1105 C1104 1.367 . S
C1105 C1113 1.433 . S
C1106 H1102 0.929 . S
C1106 C1108 1.378 1_556 S
C1106 C1110 1.350 . S
C1107 C1110 1.463 . S
C1107 C1112 1.350 . S
C1107 N1115 1.427 . S
C1108 H1099 0.930 . S
C1108 C1106 1.378 1_554 S
C1108 C1109 1.367 . S
C1109 C1108 1.367 . S
C1109 C1111 1.433 . S
C1110 C1106 1.350 . S
C1110 C1107 1.463 . S
C1110 N1114 1.427 . S
C1111 H1101 0.929 . S
C1111 C1109 1.433 . S
C1111 N1114 1.384 1_554 S
C1112 H1103 0.929 . S
C1112 C1104 1.378 . S
C1112 C1107 1.350 . S
C1113 H1100 0.929 . S
C1113 C1105 1.433 . S
C1113 N1115 1.384 . S
N1114 C1110 1.427 . S
N1114 C1111 1.384 1_556 S
N1115 C1107 1.427 . S
N1115 C1113 1.384 . S
H1116 C1122 0.930 . S
H1117 C1126 0.930 . S
H1118 C1131 0.929 . S
H1119 C1129 0.929 . S
H1120 C1124 0.929 . S
H1121 C1130 0.929 . S
C1122 H1116 0.930 . S
C1122 C1123 1.367 . S
C1122 C1130 1.378 . S
C1123 C1122 1.367 . S
C1123 C1131 1.433 . S
C1124 H1120 0.929 . S
C1124 C1126 1.378 . S
C1124 C1128 1.350 . S
C1125 C1128 1.463 . S
C1125 C1130 1.350 . S
C1125 N1133 1.427 . S
C1126 H1117 0.930 . S
C1126 C1124 1.378 . S
C1126 C1127 1.367 . S
C1127 C1126 1.367 . S
C1127 C1129 1.433 . S
C1128 C1124 1.350 . S
C1128 C1125 1.463 . S
C1128 N1132 1.427 . S
C1129 H1119 0.929 . S
C1129 C1127 1.433 . S
C1129 N1132 1.384 . S
C1130 H1121 0.929 . S
C1130 C1122 1.378 . S
C1130 C1125 1.350 . S
C1131 H1118 0.929 . S
C1131 C1123 1.433 . S
C1131 N1133 1.384 . S
N1132 C1128 1.427 . S
N1132 C1129 1.384 . S
N1133 C1125 1.427 . S
N1133 C1131 1.384 . S
H1134 C1140 0.930 . S
H1135 C1144 0.930 . S
H1136 C1149 0.929 . S
H1137 C1147 0.929 . S
H1138 C1142 0.929 . S
H1139 C1148 0.929 . S
C1140 H1134 0.930 . S
C1140 C1141 1.367 . S
C1140 C1148 1.378 . S
C1141 C1140 1.367 . S
C1141 C1149 1.433 . S
C1142 H1138 0.929 . S
C1142 C1144 1.378 . S
C1142 C1146 1.350 . S
C1143 C1146 1.463 . S
C1143 C1148 1.350 . S
C1143 N1151 1.427 . S
C1144 H1135 0.930 . S
C1144 C1142 1.378 . S
C1144 C1145 1.367 . S
C1145 C1144 1.367 . S
C1145 C1147 1.433 . S
C1146 C1142 1.350 . S
C1146 C1143 1.463 . S
C1146 N1150 1.427 . S
C1147 H1137 0.929 . S
C1147 C1145 1.433 . S
C1147 N1150 1.384 . S
C1148 H1139 0.929 . S
C1148 C1140 1.378 . S
C1148 C1143 1.350 . S
C1149 H1136 0.929 . S
C1149 C1141 1.433 . S
C1149 N1151 1.384 . S
N1150 C1146 1.427 . S
N1150 C1147 1.384 . S
N1151 C1143 1.427 . S
N1151 C1149 1.384 . S
H1152 C1158 0.930 . S
H1153 C1162 0.930 . S
H1154 C1167 0.929 . S
H1155 C1165 0.929 . S
H1156 C1160 0.929 . S
H1157 C1166 0.929 . S
C1158 H1152 0.930 . S
C1158 C1159 1.367 . S
C1158 C1166 1.378 . S
C1159 C1158 1.367 . S
C1159 C1167 1.433 . S
C1160 H1156 0.929 . S
C1160 C1162 1.378 . S
C1160 C1164 1.350 . S
C1161 C1164 1.463 . S
C1161 C1166 1.350 . S
C1161 N1169 1.427 . S
C1162 H1153 0.930 . S
C1162 C1160 1.378 . S
C1162 C1163 1.367 . S
C1163 C1162 1.367 . S
C1163 C1165 1.433 . S
C1164 C1160 1.350 . S
C1164 C1161 1.463 . S
C1164 N1168 1.427 . S
C1165 H1155 0.929 . S
C1165 C1163 1.433 . S
C1165 N1168 1.384 . S
C1166 H1157 0.929 . S
C1166 C1158 1.378 . S
C1166 C1161 1.350 . S
C1167 H1154 0.929 . S
C1167 C1159 1.433 . S
C1167 N1169 1.384 . S
N1168 C1164 1.427 . S
N1168 C1165 1.384 . S
N1169 C1161 1.427 . S
N1169 C1167 1.384 . S
H1170 C1176 0.930 . S
H1171 C1180 0.930 . S
H1172 C1185 0.929 . S
H1173 C1183 0.929 . S
H1174 C1178 0.929 . S
H1175 C1184 0.929 . S
C1176 H1170 0.930 . S
C1176 C1177 1.367 . S
C1176 C1184 1.378 . S
C1177 C1176 1.367 . S
C1177 C1185 1.433 . S
C1178 H1174 0.929 . S
C1178 C1180 1.378 . S
C1178 C1182 1.350 . S
C1179 C1182 1.463 . S
C1179 C1184 1.350 . S
C1179 N1187 1.427 . S
C1180 H1171 0.930 . S
C1180 C1178 1.378 . S
C1180 C1181 1.367 . S
C1181 C1180 1.367 . S
C1181 C1183 1.433 . S
C1182 C1178 1.350 . S
C1182 C1179 1.463 . S
C1182 N1186 1.427 . S
C1183 H1173 0.929 . S
C1183 C1181 1.433 . S
C1183 N1186 1.384 . S
C1184 H1175 0.929 . S
C1184 C1176 1.378 . S
C1184 C1179 1.350 . S
C1185 H1172 0.929 . S
C1185 C1177 1.433 . S
C1185 N1187 1.384 . S
N1186 C1182 1.427 . S
N1186 C1183 1.384 . S
N1187 C1179 1.427 . S
N1187 C1185 1.384 . S
H1188 C1194 0.930 . S
H1189 C1198 0.930 . S
H1190 C1203 0.929 . S
H1191 C1201 0.929 . S
H1192 C1196 0.929 . S
H1193 C1202 0.929 . S
C1194 H1188 0.930 . S
C1194 C1195 1.367 . S
C1194 C1202 1.378 . S
C1195 C1194 1.367 . S
C1195 C1203 1.433 . S
C1196 H1192 0.929 . S
C1196 C1198 1.378 . S
C1196 C1200 1.350 . S
C1197 C1200 1.463 . S
C1197 C1202 1.350 . S
C1197 N1205 1.427 . S
C1198 H1189 0.930 . S
C1198 C1196 1.378 . S
C1198 C1199 1.367 . S
C1199 C1198 1.367 . S
C1199 C1201 1.433 . S
C1200 C1196 1.350 . S
C1200 C1197 1.463 . S
C1200 N1204 1.427 . S
C1201 H1191 0.929 . S
C1201 C1199 1.433 . S
C1201 N1204 1.384 . S
C1202 H1193 0.929 . S
C1202 C1194 1.378 . S
C1202 C1197 1.350 . S
C1203 H1190 0.929 . S
C1203 C1195 1.433 . S
C1203 N1205 1.384 . S
N1204 C1200 1.427 . S
N1204 C1201 1.384 . S
N1205 C1197 1.427 . S
N1205 C1203 1.384 . S
H1206 C1212 0.930 . S
H1207 C1216 0.930 . S
H1208 C1221 0.929 . S
H1209 C1219 0.929 . S
H1210 C1214 0.929 . S
H1211 C1220 0.929 . S
C1212 H1206 0.930 . S
C1212 C1213 1.367 . S
C1212 C1220 1.378 . S
C1213 C1212 1.367 . S
C1213 C1221 1.433 . S
C1214 H1210 0.929 . S
C1214 C1216 1.378 . S
C1214 C1218 1.350 . S
C1215 C1218 1.463 . S
C1215 C1220 1.350 . S
C1215 N1223 1.427 . S
C1216 H1207 0.930 . S
C1216 C1214 1.378 . S
C1216 C1217 1.367 . S
C1217 C1216 1.367 . S
C1217 C1219 1.433 . S
C1218 C1214 1.350 . S
C1218 C1215 1.463 . S
C1218 N1222 1.427 . S
C1219 H1209 0.929 . S
C1219 C1217 1.433 . S
C1219 N1222 1.384 . S
C1220 H1211 0.929 . S
C1220 C1212 1.378 . S
C1220 C1215 1.350 . S
C1221 H1208 0.929 . S
C1221 C1213 1.433 . S
C1221 N1223 1.384 . S
N1222 C1218 1.427 . S
N1222 C1219 1.384 . S
N1223 C1215 1.427 . S
N1223 C1221 1.384 . S
H1224 C1230 0.930 . S
H1225 C1234 0.930 . S
H1226 C1239 0.929 . S
H1227 C1237 0.929 . S
H1228 C1232 0.929 . S
H1229 C1238 0.929 . S
C1230 H1224 0.930 . S
C1230 C1231 1.367 . S
C1230 C1238 1.378 . S
C1231 C1230 1.367 . S
C1231 C1239 1.433 . S
C1232 H1228 0.929 . S
C1232 C1234 1.378 . S
C1232 C1236 1.350 . S
C1233 C1236 1.463 . S
C1233 C1238 1.350 . S
C1233 N1241 1.427 . S
C1234 H1225 0.930 . S
C1234 C1232 1.378 . S
C1234 C1235 1.367 . S
C1235 C1234 1.367 . S
C1235 C1237 1.433 . S
C1236 C1232 1.350 . S
C1236 C1233 1.463 . S
C1236 N1240 1.427 . S
C1237 H1227 0.929 . S
C1237 C1235 1.433 . S
C1237 N1240 1.384 . S
C1238 H1229 0.929 . S
C1238 C1230 1.378 . S
C1238 C1233 1.350 . S
C1239 H1226 0.929 . S
C1239 C1231 1.433 . S
C1239 N1241 1.384 . S
N1240 C1236 1.427 . S
N1240 C1237 1.384 . S
N1241 C1233 1.427 . S
N1241 C1239 1.384 . S
H1242 C1248 0.930 . S
H1243 C1252 0.930 . S
H1244 C1257 0.929 . S
H1245 C1255 0.929 . S
H1246 C1250 0.929 . S
H1247 C1256 0.929 . S
C1248 H1242 0.930 . S
C1248 C1249 1.367 . S
C1248 C1256 1.378 . S
C1249 C1248 1.367 . S
C1249 C1257 1.433 . S
C1250 H1246 0.929 . S
C1250 C1252 1.378 . S
C1250 C1254 1.350 . S
C1251 C1254 1.463 . S
C1251 C1256 1.350 . S
C1251 N1259 1.427 . S
C1252 H1243 0.930 . S
C1252 C1250 1.378 . S
C1252 C1253 1.367 . S
C1253 C1252 1.367 . S
C1253 C1255 1.433 . S
C1254 C1250 1.350 . S
C1254 C1251 1.463 . S
C1254 N1258 1.427 . S
C1255 H1245 0.929 . S
C1255 C1253 1.433 . S
C1255 N1258 1.384 . S
C1256 H1247 0.929 . S
C1256 C1248 1.378 . S
C1256 C1251 1.350 . S
C1257 H1244 0.929 . S
C1257 C1249 1.433 . S
C1257 N1259 1.384 . S
N1258 C1254 1.427 . S
N1258 C1255 1.384 . S
N1259 C1251 1.427 . S
N1259 C1257 1.384 . S
H1260 C1266 0.930 . S
H1261 C1270 0.930 . S
H1262 C1275 0.929 . S
H1263 C1273 0.929 . S
H1264 C1268 0.929 . S
H1265 C1274 0.929 . S
C1266 H1260 0.930 . S
C1266 C1267 1.367 . S
C1266 C1274 1.378 . S
C1267 C1266 1.367 . S
C1267 C1275 1.433 . S
C1268 H1264 0.929 . S
C1268 C1270 1.378 . S
C1268 C1272 1.350 . S
C1269 C1272 1.463 . S
C1269 C1274 1.350 . S
C1269 N1277 1.427 . S
C1270 H1261 0.930 . S
C1270 C1268 1.378 . S
C1270 C1271 1.367 . S
C1271 C1270 1.367 . S
C1271 C1273 1.433 . S
C1272 C1268 1.350 . S
C1272 C1269 1.463 . S
C1272 N1276 1.427 . S
C1273 H1263 0.929 . S
C1273 C1271 1.433 . S
C1273 N1276 1.384 . S
C1274 H1265 0.929 . S
C1274 C1266 1.378 . S
C1274 C1269 1.350 . S
C1275 H1262 0.929 . S
C1275 C1267 1.433 . S
C1275 N1277 1.384 . S
N1276 C1272 1.427 . S
N1276 C1273 1.384 . S
N1277 C1269 1.427 . S
N1277 C1275 1.384 . S
H1278 C1284 0.930 . S
H1279 C1288 0.930 . S
H1280 C1293 0.929 . S
H1281 C1291 0.929 . S
H1282 C1286 0.929 . S
H1283 C1292 0.929 . S
C1284 H1278 0.930 . S
C1284 C1285 1.367 . S
C1284 C1292 1.378 . S
C1285 C1284 1.367 . S
C1285 C1293 1.433 . S
C1286 H1282 0.929 . S
C1286 C1288 1.378 . S
C1286 C1290 1.350 . S
C1287 C1290 1.463 . S
C1287 C1292 1.350 . S
C1287 N1295 1.427 . S
C1288 H1279 0.930 . S
C1288 C1286 1.378 . S
C1288 C1289 1.367 . S
C1289 C1288 1.367 . S
C1289 C1291 1.433 . S
C1290 C1286 1.350 . S
C1290 C1287 1.463 . S
C1290 N1294 1.427 . S
C1291 H1281 0.929 . S
C1291 C1289 1.433 . S
C1291 N1294 1.384 . S
C1292 H1283 0.929 . S
C1292 C1284 1.378 . S
C1292 C1287 1.350 . S
C1293 H1280 0.929 . S
C1293 C1285 1.433 . S
C1293 N1295 1.384 . S
N1294 C1290 1.427 . S
N1294 C1291 1.384 . S
N1295 C1287 1.427 . S
N1295 C1293 1.384 . S
H1296 C1302 0.930 . S
H1297 C1306 0.930 . S
H1298 C1311 0.929 . S
H1299 C1309 0.929 . S
H1300 C1304 0.929 . S
H1301 C1310 0.929 . S
C1302 H1296 0.930 . S
C1302 C1303 1.367 . S
C1302 C1310 1.378 . S
C1303 C1302 1.367 . S
C1303 C1311 1.433 . S
C1304 H1300 0.929 . S
C1304 C1306 1.378 . S
C1304 C1308 1.350 . S
C1305 C1308 1.463 . S
C1305 C1310 1.350 . S
C1305 N1313 1.427 . S
C1306 H1297 0.930 . S
C1306 C1304 1.378 . S
C1306 C1307 1.367 . S
C1307 C1306 1.367 . S
C1307 C1309 1.433 . S
C1308 C1304 1.350 . S
C1308 C1305 1.463 . S
C1308 N1312 1.427 . S
C1309 H1299 0.929 . S
C1309 C1307 1.433 . S
C1309 N1312 1.384 . S
C1310 H1301 0.929 . S
C1310 C1302 1.378 . S
C1310 C1305 1.350 . S
C1311 H1298 0.929 . S
C1311 C1303 1.433 . S
C1311 N1313 1.384 . S
N1312 C1308 1.427 . S
N1312 C1309 1.384 . S
N1313 C1305 1.427 . S
N1313 C1311 1.384 . S
H1314 C1320 0.930 . S
H1315 C1324 0.930 . S
H1316 C1329 0.929 . S
H1317 C1327 0.929 . S
H1318 C1322 0.929 . S
H1319 C1328 0.929 . S
C1320 H1314 0.930 . S
C1320 C1321 1.367 . S
C1320 C1328 1.378 . S
C1321 C1320 1.367 . S
C1321 C1329 1.433 . S
C1322 H1318 0.929 . S
C1322 C1324 1.378 . S
C1322 C1326 1.350 . S
C1323 C1326 1.463 . S
C1323 C1328 1.350 . S
C1323 N1331 1.427 . S
C1324 H1315 0.930 . S
C1324 C1322 1.378 . S
C1324 C1325 1.367 . S
C1325 C1324 1.367 . S
C1325 C1327 1.433 . S
C1326 C1322 1.350 . S
C1326 C1323 1.463 . S
C1326 N1330 1.427 . S
C1327 H1317 0.929 . S
C1327 C1325 1.433 . S
C1327 N1330 1.384 . S
C1328 H1319 0.929 . S
C1328 C1320 1.378 . S
C1328 C1323 1.350 . S
C1329 H1316 0.929 . S
C1329 C1321 1.433 . S
C1329 N1331 1.384 . S
N1330 C1326 1.427 . S
N1330 C1327 1.384 . S
N1331 C1323 1.427 . S
N1331 C1329 1.384 . S
H1332 C1338 0.930 . S
H1333 C1342 0.930 . S
H1334 C1347 0.929 . S
H1335 C1345 0.929 . S
H1336 C1340 0.929 . S
H1337 C1346 0.929 . S
C1338 H1332 0.930 . S
C1338 C1339 1.367 . S
C1338 C1346 1.378 . S
C1339 C1338 1.367 . S
C1339 C1347 1.433 . S
C1340 H1336 0.929 . S
C1340 C1342 1.378 . S
C1340 C1344 1.350 . S
C1341 C1344 1.463 . S
C1341 C1346 1.350 . S
C1341 N1349 1.427 . S
C1342 H1333 0.930 . S
C1342 C1340 1.378 . S
C1342 C1343 1.367 . S
C1343 C1342 1.367 . S
C1343 C1345 1.433 . S
C1344 C1340 1.350 . S
C1344 C1341 1.463 . S
C1344 N1348 1.427 . S
C1345 H1335 0.929 . S
C1345 C1343 1.433 . S
C1345 N1348 1.384 . S
C1346 H1337 0.929 . S
C1346 C1338 1.378 . S
C1346 C1341 1.350 . S
C1347 H1334 0.929 . S
C1347 C1339 1.433 . S
C1347 N1349 1.384 . S
N1348 C1344 1.427 . S
N1348 C1345 1.384 . S
N1349 C1341 1.427 . S
N1349 C1347 1.384 . S
H1350 C1356 0.930 . S
H1351 C1360 0.930 . S
H1352 C1365 0.929 . S
H1353 C1363 0.929 . S
H1354 C1358 0.929 . S
H1355 C1364 0.929 . S
C1356 H1350 0.930 . S
C1356 C1357 1.367 . S
C1356 C1364 1.378 . S
C1357 C1356 1.367 . S
C1357 C1365 1.433 . S
C1358 H1354 0.929 . S
C1358 C1360 1.378 . S
C1358 C1362 1.350 . S
C1359 C1362 1.463 . S
C1359 C1364 1.350 . S
C1359 N1367 1.427 . S
C1360 H1351 0.930 . S
C1360 C1358 1.378 . S
C1360 C1361 1.367 . S
C1361 C1360 1.367 . S
C1361 C1363 1.433 . S
C1362 C1358 1.350 . S
C1362 C1359 1.463 . S
C1362 N1366 1.427 . S
C1363 H1353 0.929 . S
C1363 C1361 1.433 . S
C1363 N1366 1.384 . S
C1364 H1355 0.929 . S
C1364 C1356 1.378 . S
C1364 C1359 1.350 . S
C1365 H1352 0.929 . S
C1365 C1357 1.433 . S
C1365 N1367 1.384 . S
N1366 C1362 1.427 . S
N1366 C1363 1.384 . S
N1367 C1359 1.427 . S
N1367 C1365 1.384 . S
H1368 C1374 0.930 . S
H1369 C1378 0.930 . S
H1370 C1383 0.929 . S
H1371 C1381 0.929 . S
H1372 C1376 0.929 . S
H1373 C1382 0.929 . S
C1374 H1368 0.930 . S
C1374 C1375 1.367 . S
C1374 C1382 1.378 . S
C1375 C1374 1.367 . S
C1375 C1383 1.433 . S
C1376 H1372 0.929 . S
C1376 C1378 1.378 . S
C1376 C1380 1.350 . S
C1377 C1380 1.463 . S
C1377 C1382 1.350 . S
C1377 N1385 1.427 . S
C1378 H1369 0.930 . S
C1378 C1376 1.378 . S
C1378 C1379 1.367 . S
C1379 C1378 1.367 . S
C1379 C1381 1.433 . S
C1380 C1376 1.350 . S
C1380 C1377 1.463 . S
C1380 N1384 1.427 . S
C1381 H1371 0.929 . S
C1381 C1379 1.433 . S
C1381 N1384 1.384 . S
C1382 H1373 0.929 . S
C1382 C1374 1.378 . S
C1382 C1377 1.350 . S
C1383 H1370 0.929 . S
C1383 C1375 1.433 . S
C1383 N1385 1.384 . S
N1384 C1380 1.427 . S
N1384 C1381 1.384 . S
N1385 C1377 1.427 . S
N1385 C1383 1.384 . S
H1386 C1392 0.930 . S
H1387 C1396 0.930 . S
H1388 C1401 0.929 . S
H1389 C1399 0.929 . S
H1390 C1394 0.929 . S
H1391 C1400 0.929 . S
C1392 H1386 0.930 . S
C1392 C1393 1.367 . S
C1392 C1400 1.378 1_556 S
C1393 C1392 1.367 . S
C1393 C1401 1.433 . S
C1394 H1390 0.929 . S
C1394 C1396 1.378 . S
C1394 C1398 1.350 . S
C1395 C1398 1.463 . S
C1395 C1400 1.350 . S
C1395 N1403 1.427 . S
C1396 H1387 0.930 . S
C1396 C1394 1.378 . S
C1396 C1397 1.367 . S
C1397 C1396 1.367 . S
C1397 C1399 1.433 . S
C1398 C1394 1.350 . S
C1398 C1395 1.463 . S
C1398 N1402 1.427 . S
C1399 H1389 0.929 . S
C1399 C1397 1.433 . S
C1399 N1402 1.384 . S
C1400 H1391 0.929 . S
C1400 C1392 1.378 1_554 S
C1400 C1395 1.350 . S
C1401 H1388 0.929 . S
C1401 C1393 1.433 . S
C1401 N1403 1.384 1_556 S
N1402 C1398 1.427 . S
N1402 C1399 1.384 . S
N1403 C1395 1.427 . S
N1403 C1401 1.384 1_554 S
H1404 C1410 0.930 . S
H1405 C1414 0.930 . S
H1406 C1419 0.929 . S
H1407 C1417 0.929 . S
H1408 C1412 0.929 . S
H1409 C1418 0.929 . S
C1410 H1404 0.930 . S
C1410 C1411 1.367 . S
C1410 C1418 1.378 1_556 S
C1411 C1410 1.367 . S
C1411 C1419 1.433 . S
C1412 H1408 0.929 . S
C1412 C1414 1.378 . S
C1412 C1416 1.350 . S
C1413 C1416 1.463 . S
C1413 C1418 1.350 . S
C1413 N1421 1.427 1_554 S
C1414 H1405 0.930 . S
C1414 C1412 1.378 . S
C1414 C1415 1.367 . S
C1415 C1414 1.367 . S
C1415 C1417 1.433 . S
C1416 C1412 1.350 . S
C1416 C1413 1.463 . S
C1416 N1420 1.427 . S
C1417 H1407 0.929 . S
C1417 C1415 1.433 . S
C1417 N1420 1.384 . S
C1418 H1409 0.929 . S
C1418 C1410 1.378 1_554 S
C1418 C1413 1.350 . S
C1419 H1406 0.929 . S
C1419 C1411 1.433 . S
C1419 N1421 1.384 . S
N1420 C1416 1.427 . S
N1420 C1417 1.384 . S
N1421 C1413 1.427 1_556 S
N1421 C1419 1.384 . S
H1422 C1428 0.930 . S
H1423 C1432 0.930 . S
H1424 C1437 0.929 . S
H1425 C1435 0.929 . S
H1426 C1430 0.929 . S
H1427 C1436 0.929 . S
C1428 H1422 0.930 . S
C1428 C1429 1.367 . S
C1428 C1436 1.378 1_556 S
C1429 C1428 1.367 . S
C1429 C1437 1.433 . S
C1430 H1426 0.929 . S
C1430 C1432 1.378 . S
C1430 C1434 1.350 . S
C1431 C1434 1.463 . S
C1431 C1436 1.350 . S
C1431 N1439 1.427 . S
C1432 H1423 0.930 . S
C1432 C1430 1.378 . S
C1432 C1433 1.367 . S
C1433 C1432 1.367 . S
C1433 C1435 1.433 . S
C1434 C1430 1.350 . S
C1434 C1431 1.463 . S
C1434 N1438 1.427 . S
C1435 H1425 0.929 . S
C1435 C1433 1.433 . S
C1435 N1438 1.384 . S
C1436 H1427 0.929 . S
C1436 C1428 1.378 1_554 S
C1436 C1431 1.350 . S
C1437 H1424 0.929 . S
C1437 C1429 1.433 . S
C1437 N1439 1.384 1_556 S
N1438 C1434 1.427 . S
N1438 C1435 1.384 . S
N1439 C1431 1.427 . S
N1439 C1437 1.384 1_554 S
H1440 C1446 0.930 . S
H1441 C1450 0.930 . S
H1442 C1455 0.929 1_556 S
H1443 C1453 0.929 . S
H1444 C1448 0.929 . S
H1445 C1454 0.929 . S
C1446 H1440 0.930 . S
C1446 C1447 1.367 . S
C1446 C1454 1.378 . S
C1447 C1446 1.367 . S
C1447 C1455 1.433 . S
C1448 H1444 0.929 . S
C1448 C1450 1.378 . S
C1448 C1452 1.350 . S
C1449 C1452 1.463 . S
C1449 C1454 1.350 . S
C1449 N1457 1.427 . S
C1450 H1441 0.930 . S
C1450 C1448 1.378 . S
C1450 C1451 1.367 . S
C1451 C1450 1.367 . S
C1451 C1453 1.433 . S
C1452 C1448 1.350 . S
C1452 C1449 1.463 . S
C1452 N1456 1.427 . S
C1453 H1443 0.929 . S
C1453 C1451 1.433 . S
C1453 N1456 1.384 . S
C1454 H1445 0.929 . S
C1454 C1446 1.378 . S
C1454 C1449 1.350 . S
C1455 H1442 0.929 1_554 S
C1455 C1447 1.433 . S
C1455 N1457 1.384 . S
N1456 C1452 1.427 . S
N1456 C1453 1.384 . S
N1457 C1449 1.427 . S
N1457 C1455 1.384 . S
H1458 C1464 0.930 . S
H1459 C1468 0.927 1_556 S
H1460 C1473 0.929 . S
H1461 C1471 0.929 . S
H1462 C1466 0.929 1_556 S
H1463 C1472 0.929 . S
C1464 H1458 0.930 . S
C1464 C1465 1.367 . S
C1464 C1472 1.378 . S
C1465 C1464 1.367 . S
C1465 C1473 1.433 . S
C1466 H1462 0.929 1_554 S
C1466 C1468 1.379 . S
C1466 C1470 1.350 . S
C1467 C1470 1.463 . S
C1467 C1472 1.350 . S
C1467 N1475 1.427 . S
C1468 H1459 0.927 1_554 S
C1468 C1466 1.379 . S
C1468 C1469 1.369 . S
C1469 C1468 1.369 . S
C1469 C1471 1.433 . S
C1470 C1466 1.350 . S
C1470 C1467 1.463 . S
C1470 N1474 1.427 . S
C1471 H1461 0.929 . S
C1471 C1469 1.433 . S
C1471 N1474 1.384 . S
C1472 H1463 0.929 . S
C1472 C1464 1.378 . S
C1472 C1467 1.350 . S
C1473 H1460 0.929 . S
C1473 C1465 1.433 . S
C1473 N1475 1.384 . S
N1474 C1470 1.427 . S
N1474 C1471 1.384 . S
N1475 C1467 1.427 . S
N1475 C1473 1.384 . S
H1476 C1482 0.930 . S
H1477 C1486 0.930 . S
H1478 C1491 0.919 1_556 S
H1479 C1489 0.929 . S
H1480 C1484 0.929 . S
H1481 C1490 0.929 . S
C1482 H1476 0.930 . S
C1482 C1483 1.367 . S
C1482 C1490 1.378 . S
C1483 C1482 1.367 . S
C1483 C1491 1.440 . S
C1484 H1480 0.929 . S
C1484 C1486 1.378 . S
C1484 C1488 1.350 . S
C1485 C1488 1.463 . S
C1485 C1490 1.350 . S
C1485 N1493 1.427 . S
C1486 H1477 0.930 . S
C1486 C1484 1.378 . S
C1486 C1487 1.367 . S
C1487 C1486 1.367 . S
C1487 C1489 1.433 . S
C1488 C1484 1.350 . S
C1488 C1485 1.463 . S
C1488 N1492 1.427 . S
C1489 H1479 0.929 . S
C1489 C1487 1.433 . S
C1489 N1492 1.384 . S
C1490 H1481 0.929 . S
C1490 C1482 1.378 . S
C1490 C1485 1.350 . S
C1491 H1478 0.919 1_554 S
C1491 C1483 1.440 . S
C1491 N1493 1.388 . S
N1492 C1488 1.427 . S
N1492 C1489 1.384 . S
N1493 C1485 1.427 . S
N1493 C1491 1.388 . S
H1494 C1500 0.930 . S
H1495 C1504 0.930 . S
H1496 C1509 0.929 . S
H1497 C1507 0.929 . S
H1498 C1502 0.929 . S
H1499 C1508 0.929 . S
C1500 H1494 0.930 . S
C1500 C1501 1.367 . S
C1500 C1508 1.378 . S
C1501 C1500 1.367 . S
C1501 C1509 1.433 . S
C1502 H1498 0.929 . S
C1502 C1504 1.378 . S
C1502 C1506 1.350 . S
C1503 C1506 1.463 . S
C1503 C1508 1.350 . S
C1503 N1511 1.427 . S
C1504 H1495 0.930 . S
C1504 C1502 1.378 . S
C1504 C1505 1.367 . S
C1505 C1504 1.367 . S
C1505 C1507 1.433 . S
C1506 C1502 1.350 . S
C1506 C1503 1.463 . S
C1506 N1510 1.427 . S
C1507 H1497 0.929 . S
C1507 C1505 1.433 . S
C1507 N1510 1.384 . S
C1508 H1499 0.929 . S
C1508 C1500 1.378 . S
C1508 C1503 1.350 . S
C1509 H1496 0.929 . S
C1509 C1501 1.433 . S
C1509 N1511 1.384 . S
N1510 C1506 1.427 . S
N1510 C1507 1.384 . S
N1511 C1503 1.427 . S
N1511 C1509 1.384 . S
H1512 C1518 0.930 . S
H1513 C1522 0.930 . S
H1514 C1527 0.929 . S
H1515 C1525 0.929 . S
H1516 C1520 0.929 . S
H1517 C1526 0.929 . S
C1518 H1512 0.930 . S
C1518 C1519 1.367 . S
C1518 C1526 1.378 . S
C1519 C1518 1.367 . S
C1519 C1527 1.433 . S
C1520 H1516 0.929 . S
C1520 C1522 1.378 . S
C1520 C1524 1.350 . S
C1521 C1524 1.463 . S
C1521 C1526 1.350 . S
C1521 N1529 1.427 . S
C1522 H1513 0.930 . S
C1522 C1520 1.378 . S
C1522 C1523 1.367 . S
C1523 C1522 1.367 . S
C1523 C1525 1.433 . S
C1524 C1520 1.350 . S
C1524 C1521 1.463 . S
C1524 N1528 1.427 . S
C1525 H1515 0.929 . S
C1525 C1523 1.433 . S
C1525 N1528 1.384 . S
C1526 H1517 0.929 . S
C1526 C1518 1.378 . S
C1526 C1521 1.350 . S
C1527 H1514 0.929 . S
C1527 C1519 1.433 . S
C1527 N1529 1.384 . S
N1528 C1524 1.427 . S
N1528 C1525 1.384 . S
N1529 C1521 1.427 . S
N1529 C1527 1.384 . S
H1530 C1536 0.930 . S
H1531 C1540 0.930 . S
H1532 C1545 0.929 . S
H1533 C1543 0.929 . S
H1534 C1538 0.929 . S
H1535 C1544 0.929 . S
C1536 H1530 0.930 . S
C1536 C1537 1.367 . S
C1536 C1544 1.378 . S
C1537 C1536 1.367 . S
C1537 C1545 1.433 . S
C1538 H1534 0.929 . S
C1538 C1540 1.378 . S
C1538 C1542 1.350 . S
C1539 C1542 1.463 . S
C1539 C1544 1.350 . S
C1539 N1547 1.427 . S
C1540 H1531 0.930 . S
C1540 C1538 1.378 . S
C1540 C1541 1.367 . S
C1541 C1540 1.367 . S
C1541 C1543 1.433 . S
C1542 C1538 1.350 . S
C1542 C1539 1.463 . S
C1542 N1546 1.427 . S
C1543 H1533 0.929 . S
C1543 C1541 1.433 . S
C1543 N1546 1.384 . S
C1544 H1535 0.929 . S
C1544 C1536 1.378 . S
C1544 C1539 1.350 . S
C1545 H1532 0.929 . S
C1545 C1537 1.433 . S
C1545 N1547 1.384 . S
N1546 C1542 1.427 . S
N1546 C1543 1.384 . S
N1547 C1539 1.427 . S
N1547 C1545 1.384 . S
H1548 C1554 0.930 . S
H1549 C1558 0.930 . S
H1550 C1563 0.929 . S
H1551 C1561 0.929 . S
H1552 C1556 0.929 1_554 S
H1553 C1562 0.929 . S
C1554 H1548 0.930 . S
C1554 C1555 1.367 . S
C1554 C1562 1.378 . S
C1555 C1554 1.367 . S
C1555 C1563 1.433 . S
C1556 H1552 0.929 1_556 S
C1556 C1558 1.378 1_556 S
C1556 C1560 1.350 . S
C1557 C1560 1.463 . S
C1557 C1562 1.350 . S
C1557 N1565 1.427 . S
C1558 H1549 0.930 . S
C1558 C1556 1.378 1_554 S
C1558 C1559 1.367 1_554 S
C1559 C1558 1.367 1_556 S
C1559 C1561 1.433 . S
C1560 C1556 1.350 . S
C1560 C1557 1.463 . S
C1560 N1564 1.427 . S
C1561 H1551 0.929 . S
C1561 C1559 1.433 . S
C1561 N1564 1.384 . S
C1562 H1553 0.929 . S
C1562 C1554 1.378 . S
C1562 C1557 1.350 . S
C1563 H1550 0.929 . S
C1563 C1555 1.433 . S
C1563 N1565 1.384 . S
N1564 C1560 1.427 . S
N1564 C1561 1.384 . S
N1565 C1557 1.427 . S
N1565 C1563 1.384 . S
H1566 C1572 0.930 . S
H1567 C1576 0.930 . S
H1568 C1581 0.929 . S
H1569 C1579 0.929 . S
H1570 C1574 0.929 . S
H1571 C1580 0.929 . S
C1572 H1566 0.930 . S
C1572 C1573 1.367 . S
C1572 C1580 1.378 . S
C1573 C1572 1.367 . S
C1573 C1581 1.433 1_556 S
C1574 H1570 0.929 . S
C1574 C1576 1.378 . S
C1574 C1578 1.350 . S
C1575 C1578 1.463 . S
C1575 C1580 1.350 . S
C1575 N1583 1.427 . S
C1576 H1567 0.930 . S
C1576 C1574 1.378 . S
C1576 C1577 1.367 . S
C1577 C1576 1.367 . S
C1577 C1579 1.433 . S
C1578 C1574 1.350 . S
C1578 C1575 1.463 . S
C1578 N1582 1.427 . S
C1579 H1569 0.929 . S
C1579 C1577 1.433 . S
C1579 N1582 1.384 . S
C1580 H1571 0.929 . S
C1580 C1572 1.378 . S
C1580 C1575 1.350 . S
C1581 H1568 0.929 . S
C1581 C1573 1.433 1_554 S
C1581 N1583 1.384 1_554 S
N1582 C1578 1.427 . S
N1582 C1579 1.384 . S
N1583 C1575 1.427 . S
N1583 C1581 1.384 1_556 S
H1584 C1590 0.930 . S
H1585 C1594 0.930 . S
H1586 C1599 0.929 . S
H1587 C1597 0.929 . S
H1588 C1592 0.929 . S
H1589 C1598 0.929 . S
C1590 H1584 0.930 . S
C1590 C1591 1.367 . S
C1590 C1598 1.378 . S
C1591 C1590 1.367 . S
C1591 C1599 1.433 . S
C1592 H1588 0.929 . S
C1592 C1594 1.378 . S
C1592 C1596 1.350 . S
C1593 C1596 1.463 . S
C1593 C1598 1.350 . S
C1593 N1601 1.427 . S
C1594 H1585 0.930 . S
C1594 C1592 1.378 . S
C1594 C1595 1.367 . S
C1595 C1594 1.367 . S
C1595 C1597 1.433 1_556 S
C1596 C1592 1.350 . S
C1596 C1593 1.463 . S
C1596 N1600 1.427 . S
C1597 H1587 0.929 . S
C1597 C1595 1.433 1_554 S
C1597 N1600 1.384 1_554 S
C1598 H1589 0.929 . S
C1598 C1590 1.378 . S
C1598 C1593 1.350 . S
C1599 H1586 0.929 . S
C1599 C1591 1.433 . S
C1599 N1601 1.384 . S
N1600 C1596 1.427 . S
N1600 C1597 1.384 1_556 S
N1601 C1593 1.427 . S
N1601 C1599 1.384 . S
H1602 C1608 0.930 . S
H1603 C1612 0.930 . S
H1604 C1617 0.929 . S
H1605 C1615 0.929 . S
H1606 C1610 0.929 . S
H1607 C1616 0.929 . S
C1608 H1602 0.930 . S
C1608 C1609 1.367 . S
C1608 C1616 1.378 . S
C1609 C1608 1.367 . S
C1609 C1617 1.433 . S
C1610 H1606 0.929 . S
C1610 C1612 1.378 . S
C1610 C1614 1.350 . S
C1611 C1614 1.463 . S
C1611 C1616 1.350 . S
C1611 N1619 1.427 . S
C1612 H1603 0.930 . S
C1612 C1610 1.378 . S
C1612 C1613 1.367 . S
C1613 C1612 1.367 . S
C1613 C1615 1.433 . S
C1614 C1610 1.350 . S
C1614 C1611 1.463 . S
C1614 N1618 1.427 . S
C1615 H1605 0.929 . S
C1615 C1613 1.433 . S
C1615 N1618 1.384 . S
C1616 H1607 0.929 . S
C1616 C1608 1.378 . S
C1616 C1611 1.350 . S
C1617 H1604 0.929 . S
C1617 C1609 1.433 . S
C1617 N1619 1.384 . S
N1618 C1614 1.427 . S
N1618 C1615 1.384 . S
N1619 C1611 1.427 . S
N1619 C1617 1.384 . S
H1620 C1626 0.930 . S
H1621 C1630 0.930 . S
H1622 C1635 0.929 . S
H1623 C1633 0.929 . S
H1624 C1628 0.929 . S
H1625 C1634 0.929 . S
C1626 H1620 0.930 . S
C1626 C1627 1.367 . S
C1626 C1634 1.378 . S
C1627 C1626 1.367 . S
C1627 C1635 1.433 . S
C1628 H1624 0.929 . S
C1628 C1630 1.378 . S
C1628 C1632 1.350 . S
C1629 C1632 1.463 . S
C1629 C1634 1.350 . S
C1629 N1637 1.427 . S
C1630 H1621 0.930 . S
C1630 C1628 1.378 . S
C1630 C1631 1.367 . S
C1631 C1630 1.367 . S
C1631 C1633 1.433 . S
C1632 C1628 1.350 . S
C1632 C1629 1.463 . S
C1632 N1636 1.427 . S
C1633 H1623 0.929 . S
C1633 C1631 1.433 . S
C1633 N1636 1.384 . S
C1634 H1625 0.929 . S
C1634 C1626 1.378 . S
C1634 C1629 1.350 . S
C1635 H1622 0.929 . S
C1635 C1627 1.433 . S
C1635 N1637 1.384 . S
N1636 C1632 1.427 . S
N1636 C1633 1.384 . S
N1637 C1629 1.427 . S
N1637 C1635 1.384 . S
H1638 C1644 0.930 . S
H1639 C1648 0.930 . S
H1640 C1653 0.929 . S
H1641 C1651 0.929 . S
H1642 C1646 0.929 . S
H1643 C1652 0.929 . S
C1644 H1638 0.930 . S
C1644 C1645 1.367 . S
C1644 C1652 1.378 . S
C1645 C1644 1.367 . S
C1645 C1653 1.433 . S
C1646 H1642 0.929 . S
C1646 C1648 1.378 . S
C1646 C1650 1.350 . S
C1647 C1650 1.463 . S
C1647 C1652 1.350 . S
C1647 N1655 1.427 . S
C1648 H1639 0.930 . S
C1648 C1646 1.378 . S
C1648 C1649 1.367 . S
C1649 C1648 1.367 . S
C1649 C1651 1.433 . S
C1650 C1646 1.350 . S
C1650 C1647 1.463 . S
C1650 N1654 1.427 . S
C1651 H1641 0.929 . S
C1651 C1649 1.433 . S
C1651 N1654 1.384 . S
C1652 H1643 0.929 . S
C1652 C1644 1.378 . S
C1652 C1647 1.350 . S
C1653 H1640 0.929 . S
C1653 C1645 1.433 . S
C1653 N1655 1.384 . S
N1654 C1650 1.427 . S
N1654 C1651 1.384 . S
N1655 C1647 1.427 . S
N1655 C1653 1.384 . S
H1656 C1662 0.930 . S
H1657 C1666 0.930 . S
H1658 C1671 0.929 . S
H1659 C1669 0.929 . S
H1660 C1664 0.929 . S
H1661 C1670 0.929 . S
C1662 H1656 0.930 . S
C1662 C1663 1.367 . S
C1662 C1670 1.378 . S
C1663 C1662 1.367 . S
C1663 C1671 1.433 . S
C1664 H1660 0.929 . S
C1664 C1666 1.378 . S
C1664 C1668 1.350 . S
C1665 C1668 1.463 1_455 S
C1665 C1670 1.350 . S
C1665 N1673 1.427 . S
C1666 H1657 0.930 . S
C1666 C1664 1.378 . S
C1666 C1667 1.367 . S
C1667 C1666 1.367 . S
C1667 C1669 1.433 . S
C1668 C1664 1.350 . S
C1668 C1665 1.463 1_655 S
C1668 N1672 1.427 . S
C1669 H1659 0.929 . S
C1669 C1667 1.433 . S
C1669 N1672 1.384 . S
C1670 H1661 0.929 . S
C1670 C1662 1.378 . S
C1670 C1665 1.350 . S
C1671 H1658 0.929 . S
C1671 C1663 1.433 . S
C1671 N1673 1.384 . S
N1672 C1668 1.427 . S
N1672 C1669 1.384 . S
N1673 C1665 1.427 . S
N1673 C1671 1.384 . S
H1674 C1680 0.930 . S
H1675 C1684 0.930 . S
H1676 C1689 0.929 . S
H1677 C1687 0.929 . S
H1678 C1682 0.929 . S
H1679 C1688 0.929 . S
C1680 H1674 0.930 . S
C1680 C1681 1.367 . S
C1680 C1688 1.378 . S
C1681 C1680 1.367 . S
C1681 C1689 1.433 . S
C1682 H1678 0.929 . S
C1682 C1684 1.378 . S
C1682 C1686 1.350 . S
C1683 C1686 1.463 . S
C1683 C1688 1.350 . S
C1683 N1691 1.427 . S
C1684 H1675 0.930 . S
C1684 C1682 1.378 . S
C1684 C1685 1.367 . S
C1685 C1684 1.367 . S
C1685 C1687 1.433 . S
C1686 C1682 1.350 . S
C1686 C1683 1.463 . S
C1686 N1690 1.427 . S
C1687 H1677 0.929 . S
C1687 C1685 1.433 . S
C1687 N1690 1.384 . S
C1688 H1679 0.929 . S
C1688 C1680 1.378 . S
C1688 C1683 1.350 . S
C1689 H1676 0.929 . S
C1689 C1681 1.433 . S
C1689 N1691 1.384 . S
N1690 C1686 1.427 . S
N1690 C1687 1.384 . S
N1691 C1683 1.427 . S
N1691 C1689 1.384 . S
H1692 C1698 0.930 . S
H1693 C1702 0.930 . S
H1694 C1707 0.929 . S
H1695 C1705 0.929 . S
H1696 C1700 0.929 . S
H1697 C1706 0.929 . S
C1698 H1692 0.930 . S
C1698 C1699 1.367 . S
C1698 C1706 1.378 . S
C1699 C1698 1.367 . S
C1699 C1707 1.433 . S
C1700 H1696 0.929 . S
C1700 C1702 1.378 . S
C1700 C1704 1.350 . S
C1701 C1704 1.463 1_565 S
C1701 C1706 1.350 . S
C1701 N1709 1.427 . S
C1702 H1693 0.930 . S
C1702 C1700 1.378 . S
C1702 C1703 1.367 . S
C1703 C1702 1.367 . S
C1703 C1705 1.433 . S
C1704 C1700 1.350 . S
C1704 C1701 1.463 1_545 S
C1704 N1708 1.427 . S
C1705 H1695 0.929 . S
C1705 C1703 1.433 . S
C1705 N1708 1.384 . S
C1706 H1697 0.929 . S
C1706 C1698 1.378 . S
C1706 C1701 1.350 . S
C1707 H1694 0.929 . S
C1707 C1699 1.433 . S
C1707 N1709 1.384 . S
N1708 C1704 1.427 . S
N1708 C1705 1.384 . S
N1709 C1701 1.427 . S
N1709 C1707 1.384 . S
H1710 C1716 0.930 . S
H1711 C1720 0.930 . S
H1712 C1725 0.929 . S
H1713 C1723 0.929 . S
H1714 C1718 0.929 . S
H1715 C1724 0.929 . S
C1716 H1710 0.930 . S
C1716 C1717 1.367 . S
C1716 C1724 1.378 . S
C1717 C1716 1.367 . S
C1717 C1725 1.433 . S
C1718 H1714 0.929 . S
C1718 C1720 1.378 . S
C1718 C1722 1.350 . S
C1719 C1722 1.463 1_545 S
C1719 C1724 1.350 . S
C1719 N1727 1.427 . S
C1720 H1711 0.930 . S
C1720 C1718 1.378 . S
C1720 C1721 1.367 . S
C1721 C1720 1.367 . S
C1721 C1723 1.433 . S
C1722 C1718 1.350 . S
C1722 C1719 1.463 1_565 S
C1722 N1726 1.427 . S
C1723 H1713 0.929 . S
C1723 C1721 1.433 . S
C1723 N1726 1.384 . S
C1724 H1715 0.929 . S
C1724 C1716 1.378 . S
C1724 C1719 1.350 . S
C1725 H1712 0.929 . S
C1725 C1717 1.433 . S
C1725 N1727 1.384 . S
N1726 C1722 1.427 . S
N1726 C1723 1.384 . S
N1727 C1719 1.427 . S
N1727 C1725 1.384 . S
H1728 C1734 0.930 . S
H1729 C1738 0.930 . S
H1730 C1743 0.929 . S
H1731 C1741 0.929 . S
H1732 C1736 0.929 . S
H1733 C1742 0.929 . S
C1734 H1728 0.930 . S
C1734 C1735 1.367 . S
C1734 C1742 1.378 . S
C1735 C1734 1.367 . S
C1735 C1743 1.433 . S
C1736 H1732 0.929 . S
C1736 C1738 1.378 . S
C1736 C1740 1.350 . S
C1737 C1740 1.463 1_455 S
C1737 C1742 1.350 . S
C1737 N1745 1.427 . S
C1738 H1729 0.930 . S
C1738 C1736 1.378 . S
C1738 C1739 1.367 . S
C1739 C1738 1.367 . S
C1739 C1741 1.433 . S
C1740 C1736 1.350 . S
C1740 C1737 1.463 1_655 S
C1740 N1744 1.427 . S
C1741 H1731 0.929 . S
C1741 C1739 1.433 . S
C1741 N1744 1.384 . S
C1742 H1733 0.929 . S
C1742 C1734 1.378 . S
C1742 C1737 1.350 . S
C1743 H1730 0.929 . S
C1743 C1735 1.433 . S
C1743 N1745 1.384 . S
N1744 C1740 1.427 . S
N1744 C1741 1.384 . S
N1745 C1737 1.427 . S
N1745 C1743 1.384 . S
H1746 C1752 0.930 . S
H1747 C1756 0.930 . S
H1748 C1761 0.929 . S
H1749 C1759 0.929 . S
H1750 C1754 0.929 . S
H1751 C1760 0.929 . S
C1752 H1746 0.930 . S
C1752 C1753 1.367 . S
C1752 C1760 1.378 . S
C1753 C1752 1.367 . S
C1753 C1761 1.433 . S
C1754 H1750 0.929 . S
C1754 C1756 1.378 . S
C1754 C1758 1.350 . S
C1755 C1758 1.463 . S
C1755 C1760 1.350 . S
C1755 N1763 1.427 . S
C1756 H1747 0.930 . S
C1756 C1754 1.378 . S
C1756 C1757 1.367 . S
C1757 C1756 1.367 . S
C1757 C1759 1.433 . S
C1758 C1754 1.350 . S
C1758 C1755 1.463 . S
C1758 N1762 1.427 . S
C1759 H1749 0.929 . S
C1759 C1757 1.433 . S
C1759 N1762 1.384 . S
C1760 H1751 0.929 . S
C1760 C1752 1.378 . S
C1760 C1755 1.350 . S
C1761 H1748 0.929 . S
C1761 C1753 1.433 . S
C1761 N1763 1.384 . S
N1762 C1758 1.427 . S
N1762 C1759 1.384 . S
N1763 C1755 1.427 . S
N1763 C1761 1.384 . S
C475 C39 1.231 . S
C479 C0 1.244 . S
C493 C52 1.236 . S
C497 C13 1.234 . S
C511 C65 1.232 . S
C515 C26 1.245 . S
C529 C78 1.231 . S
C533 C117 1.242 . S
C547 C91 1.230 . S
C551 C130 1.243 . S
C565 C143 1.236 . S
C569 C104 1.234 . S
C583 C156 1.215 . S
C587 C195 1.221 . S
C601 C169 1.217 . S
C605 C208 1.210 . S
C619 C182 1.210 . S
C623 C221 1.219 . S
C637 C234 1.204 . S
C641 C273 1.211 . S
C655 C286 1.205 . S
C659 C247 1.211 . S
C673 C260 1.215 . S
C677 C299 1.204 . S
C691 C312 1.214 . S
C695 C351 1.203 . S
C709 C325 1.207 . S
C713 C364 1.207 . S
C727 C377 1.205 . S
C731 C338 1.210 . S
C745 C429 1.217 . S
C749 C390 1.219 . S
C763 C442 1.208 . S
C767 C403 1.220 . S
C781 C455 1.211 . S
C785 C416 1.216 . S
C799 C151 1.303 . S
C803 C5 1.245 . S
C817 C18 1.242 . S
C821 C125 1.292 . S
C835 C31 1.236 . S
C839 C138 1.291 . S
C853 C99 1.306 . S
C857 C44 1.259 . S
C871 C57 1.243 . S
C875 C112 1.307 . S
C889 C86 1.310 . S
C893 C70 1.263 . S
C907 C83 1.228 . S
C911 C73 1.293 . S
C925 C96 1.233 . S
C929 C47 1.292 . S
C943 C60 1.301 . S
C947 C109 1.232 . S
C961 C21 1.317 . S
C965 C122 1.254 . S
C979 C34 1.311 . S
C983 C135 1.242 . S
C997 C148 1.255 . S
C1001 C8 1.305 . S
C1015 C161 1.198 . S
C1019 C307 1.241 . S
C1033 C281 1.256 . S
C1037 C174 1.192 . S
C1051 C294 1.257 . S
C1055 C187 1.198 . S
C1069 C200 1.241 . S
C1073 C255 1.283 . S
C1087 C268 1.282 . S
C1091 C213 1.229 . S
C1105 C226 1.246 . S
C1109 C242 1.287 . S
C1123 C239 1.230 . S
C1127 C229 1.288 . S
C1141 C252 1.231 . S
C1145 C203 1.276 . S
C1159 C216 1.288 . S
C1163 C265 1.233 . S
C1177 C177 1.320 . S
C1181 C278 1.269 . S
C1195 C190 1.330 . S
C1199 C291 1.266 . S
C1213 C304 1.264 . S
C1217 C164 1.323 . S
C1231 C463 1.276 . S
C1235 C317 1.222 . S
C1249 C330 1.241 . S
C1253 C437 1.284 . S
C1267 C343 1.236 . S
C1271 C450 1.287 . S
C1285 C356 1.273 . S
C1289 C411 1.322 . S
C1303 C424 1.325 . S
C1307 C369 1.263 . S
C1321 C382 1.281 . S
C1325 C398 1.327 . S
C1339 C385 1.252 . S
C1343 C395 1.208 . S
C1357 C359 1.249 . S
C1361 C408 1.185 . S
C1375 C372 1.244 . S
C1379 C421 1.199 . S
C1393 C333 1.288 . S
C1397 C434 1.247 . S
C1411 C346 1.292 . S
C1415 C447 1.246 . S
C1429 C320 1.288 . S
C1433 C460 1.226 . S
C1447 C387 1.403 . S
C1451 C10 1.412 . S
C1465 C23 1.408 . S
C1469 C361 1.403 . S
C1483 C374 1.410 . S
C1487 C36 1.404 . S
C1501 C49 1.408 . S
C1505 C179 1.400 . S
C1519 C192 1.406 . S
C1523 C62 1.401 . S
C1537 C75 1.400 . S
C1541 C166 1.410 . S
C1555 C88 1.401 . S
C1559 C309 1.409 . S
C1573 C283 1.404 . S
C1577 C101 1.411 . S
C1591 C114 1.407 . S
C1595 C296 1.409 . S
C1609 C127 1.405 . S
C1613 C413 1.408 . S
C1627 C140 1.400 . S
C1631 C426 1.409 . S
C1645 C400 1.401 . S
C1649 C153 1.406 . S
C1663 C335 1.398 . S
C1667 C205 1.393 . S
C1681 C348 1.399 . S
C1685 C218 1.391 . S
C1699 C322 1.398 . S
C1703 C231 1.388 . S
C1717 C244 1.398 . S
C1721 C465 1.394 . S
C1735 C439 1.393 . S
C1739 C257 1.398 . S
C1753 C270 1.395 . S
C1757 C452 1.389 . S
