# Generated by pormake.
# Topology bsn, (6)-cn, num edge types: 1
# Building blocks:
#     Node 0, Type 0, BuildingBlock: UKALOJ_clean_sbu_0, # of connection points: 6
#     Node 1, Type 0, BuildingBlock: UKALOJ_clean_sbu_0, # of connection points: 6
#     Node 2, Type 0, BuildingBlock: UKALOJ_clean_sbu_0, # of connection points: 6
#     Node 3, Type 0, BuildingBlock: UKALOJ_clean_sbu_0, # of connection points: 6
#     Edge 4, Type (0, 0), BuildingBlock: CIFDUS_clean_linker_0, # of connection points: 2
#     Edge 5, Type (0, 0), BuildingBlock: CIFDUS_clean_linker_0, # of connection points: 2
#     Edge 6, Type (0, 0), BuildingBlock: CIFDUS_clean_linker_0, # of connection points: 2
#     Edge 7, Type (0, 0), BuildingBlock: CIFDUS_clean_linker_0, # of connection points: 2
#     Edge 8, Type (0, 0), BuildingBlock: CIFDUS_clean_linker_0, # of connection points: 2
#     Edge 9, Type (0, 0), BuildingBlock: CIFDUS_clean_linker_0, # of connection points: 2
#     Edge 10, Type (0, 0), BuildingBlock: CIFDUS_clean_linker_0, # of connection points: 2
#     Edge 11, Type (0, 0), BuildingBlock: CIFDUS_clean_linker_0, # of connection points: 2
#     Edge 12, Type (0, 0), BuildingBlock: CIFDUS_clean_linker_0, # of connection points: 2
#     Edge 13, Type (0, 0), BuildingBlock: CIFDUS_clean_linker_0, # of connection points: 2
#     Edge 14, Type (0, 0), BuildingBlock: CIFDUS_clean_linker_0, # of connection points: 2
#     Edge 15, Type (0, 0), BuildingBlock: CIFDUS_clean_linker_0, # of connection points: 2
# Relax obj value: 0.191
# Max RMSD: 0.165
# Mean RMSD: 0.149
data_MOF--net-bsn--node1-UKALOJ_clean_sbu_0--edge1-CIFDUS_clean_linker_0
_symmetry_space_group_name_H-M    P1
_symmetry_Int_Tables_number       1
_symmetry_cell_setting            triclinic
loop_
_symmetry_equiv_pos_as_xyz
'x, y, z'
_cell_length_a     27.104292
_cell_length_b     32.321609
_cell_length_c     13.470099
_cell_angle_alpha  90.37101
_cell_angle_beta   95.48136
_cell_angle_gamma 89.424584
loop_
_atom_site_label
_atom_site_type_symbol
_atom_site_fract_x
_atom_site_fract_y
_atom_site_fract_z
_atom_type_partial_charge
Zn0 Zn 0.05316 0.31334 0.31134 0.0
O1 O 0.97388 0.30689 0.30703 0.0
C2 C 0.05785 0.28785 0.5225 0.0
Zn3 Zn 0.0553 0.24378 0.32416 0.0
C4 C 0.95151 0.27254 0.31143 0.0
O5 O 0.97688 0.23914 0.31801 0.0
C6 C 0.15717 0.28363 0.32378 0.0
O7 O 0.05259 0.23701 0.16705 0.0
O8 O 0.04976 0.30478 0.15427 0.0
N9 N 0.065 0.18061 0.34605 0.0
C10 C 0.0407 0.14625 0.31154 0.0
C11 C 0.10277 0.12632 0.40892 0.0
N12 N 0.10343 0.16792 0.40659 0.0
N13 N 0.06373 0.11161 0.35018 0.0
C14 C 0.06522 0.4114 0.32669 0.0
C15 C 1.0022 0.43036 0.23058 0.0
N16 N 0.04255 0.37661 0.29011 0.0
N17 N 1.00355 0.38873 0.23032 0.0
N18 N 0.04046 0.4457 0.29039 0.0
H19 H 0.11289 0.38193 0.44327 0.0
H20 H 0.10801 0.43776 0.45416 0.0
H21 H 0.14356 0.41454 0.36168 0.0
C22 C 0.10979 0.41137 0.40144 0.0
C23 C 0.99617 0.14695 0.23665 0.0
H24 H 0.96223 0.14612 0.27651 0.0
H25 H 0.99635 0.11961 0.18641 0.0
H26 H 0.99496 0.17565 0.19195 0.0
O27 O 0.13373 0.24993 0.32978 0.0
O28 O 0.13277 0.31762 0.31593 0.0
C29 C 0.0506 0.26927 0.11299 0.0
O30 O 0.05646 0.32011 0.46852 0.0
O31 O 0.0581 0.25234 0.48113 0.0
Zn32 Zn 1.0052 0.78357 0.33003 0.0
O33 O 0.99908 0.71683 0.33108 0.0
C34 C 0.05534 0.77885 0.53653 0.0
Zn35 Zn 0.086 0.77373 0.33064 0.0
C36 C 0.03635 0.69253 0.32926 0.0
O37 O 0.07914 0.70807 0.32757 0.0
C38 C 0.05552 0.86462 0.32874 0.0
O39 O 0.07865 0.77487 0.17296 0.0
O40 O 0.99781 0.78216 0.17206 0.0
N41 N 0.16084 0.76793 0.3359 0.0
C42 C 0.19599 0.78569 0.39946 0.0
C43 C 0.23078 0.73704 0.32358 0.0
N44 N 0.1826 0.73804 0.2879 0.0
N45 N 0.24014 0.76674 0.3934 0.0
C46 C 0.90216 0.7779 0.40536 0.0
C47 C 0.86306 0.82646 0.32495 0.0
N48 N 0.93073 0.79075 0.33508 0.0
N49 N 0.906 0.82043 0.28406 0.0
N50 N 0.85975 0.80045 0.40198 0.0
H51 H 0.95462 0.73262 0.47523 0.0
H52 H 0.89167 0.71824 0.46751 0.0
H53 H 0.91379 0.75675 0.55736 0.0
C54 C 0.91694 0.74485 0.48079 0.0
C55 C 0.18675 0.81904 0.47425 0.0
H56 H 0.20526 0.8478 0.45407 0.0
H57 H 0.20275 0.80971 0.54979 0.0
H58 H 0.14735 0.82676 0.47722 0.0
O59 O 0.09226 0.83976 0.33121 0.0
O60 O 1.01221 0.84976 0.32701 0.0
C61 C 0.03612 0.77865 0.12464 0.0
O62 O 1.01392 0.78644 0.48816 0.0
O63 O 0.0924 0.77123 0.4887 0.0
Zn64 Zn 0.57295 0.84003 0.7974 0.0
O65 O 0.49518 0.8447 0.77933 0.0
C66 C 0.57266 0.81255 0.00911 0.0
Zn67 Zn 0.5677 0.77188 0.81156 0.0
C68 C 0.46936 0.81215 0.77895 0.0
O69 O 0.49079 0.77775 0.79886 0.0
C70 C 0.671 0.79774 0.80709 0.0
O71 O 0.565 0.7678 0.65394 0.0
O72 O 0.57177 0.83524 0.641 0.0
N73 N 0.55954 0.70948 0.82091 0.0
C74 C 0.57639 0.68249 0.89242 0.0
C75 C 0.52485 0.65041 0.79094 0.0
N76 N 0.52776 0.68943 0.75759 0.0
N77 N 0.55463 0.64535 0.87607 0.0
C78 C 0.55548 0.93247 0.84103 0.0
C79 C 0.61755 0.96119 0.78525 0.0
N80 N 0.57993 0.90299 0.79342 0.0
N81 N 0.61826 0.92097 0.75805 0.0
N82 N 0.57868 0.96913 0.83796 0.0
H83 H 0.51042 0.90053 0.93931 0.0
H84 H 0.47855 0.91738 0.8235 0.0
H85 H 0.49338 0.95429 0.91972 0.0
C86 C 0.50707 0.92595 0.88435 0.0
C87 C 0.61582 0.69197 -0.02487 0.0
H88 H 0.6381 0.66381 -0.00404 0.0
H89 H 0.59827 0.70294 0.04151 0.0
H90 H 0.6407 0.71651 0.95342 0.0
O91 O 0.64469 0.766 0.81667 0.0
O92 O 0.6507 0.8334 0.80669 0.0
C93 C 0.56787 0.7997 0.59994 0.0
O94 O 0.57469 0.84424 -0.04534 0.0
O95 O 0.56988 0.77706 -0.03168 0.0
Zn96 Zn 0.55421 0.27271 0.30506 0.0
O97 O 0.55824 0.26896 0.46234 0.0
C98 C 0.45137 0.30818 0.30425 0.0
Zn99 Zn 0.55522 0.34119 0.32088 0.0
C100 C 0.55869 0.30102 0.51765 0.0
O101 O 0.55761 0.33668 0.47794 0.0
C102 C 0.55064 0.31302 0.10819 0.0
O103 O 0.6341 0.33991 0.33174 0.0
O104 O 0.63377 0.27269 0.31124 0.0
N105 N 0.55371 0.40448 0.3274 0.0
C106 C 0.5726 0.4324 0.26772 0.0
C107 C 0.52291 0.46488 0.35451 0.0
N108 N 0.5232 0.4248 0.38195 0.0
N109 N 0.55322 0.47034 0.28213 0.0
C110 C 0.53935 0.1835 0.22215 0.0
C111 C 0.58517 0.1484 0.32865 0.0
N112 N 0.5566 0.20974 0.29524 0.0
N113 N 0.58477 0.18781 0.36168 0.0
N114 N 0.55727 0.14491 0.24076 0.0
H115 H 0.47935 0.22156 0.15584 0.0
H116 H 0.47926 0.16855 0.11166 0.0
H117 H 0.52332 0.20465 0.07216 0.0
C118 C 0.50301 0.19524 0.13577 0.0
C119 C 0.61118 0.42305 0.19742 0.0
H120 H 0.5931 0.41298 0.12426 0.0
H121 H 0.63671 0.39823 0.22608 0.0
H122 H 0.63327 0.45101 0.18562 0.0
O123 O 0.55197 0.34486 0.16379 0.0
O124 O 0.55094 0.27751 0.14787 0.0
C125 C 0.6579 0.30618 0.32315 0.0
O126 O 0.47423 0.27363 0.29992 0.0
O127 O 0.47641 0.34132 0.31142 0.0
H128 H 0.97151 0.50453 0.30875 0.0
H129 H 0.12895 0.4858 0.30659 0.0
H130 H 0.14196 0.56049 0.32247 0.0
H131 H 0.10791 0.63177 0.32882 0.0
H132 H 0.94976 0.64983 0.32715 0.0
H133 H 0.93776 0.57513 0.32001 0.0
C134 C 1.00872 0.51682 0.31259 0.0
C135 C 0.04925 0.48937 0.30839 0.0
C136 C 1.01574 0.55988 0.31991 0.0
C137 C 0.09722 0.50585 0.31282 0.0
C138 C 0.10458 0.54873 0.32058 0.0
C139 C 0.0708 0.61941 0.32722 0.0
C140 C 1.02978 0.64671 0.32796 0.0
C141 C 0.06405 0.57612 0.32318 0.0
C142 C 0.98205 0.62985 0.32625 0.0
C143 C 0.97511 0.58701 0.32223 0.0
H144 H 0.7261 0.85758 0.73204 0.0
H145 H 0.72134 0.72562 0.7782 0.0
H146 H 0.77879 0.71448 0.65179 0.0
H147 H 0.81895 0.74153 0.51048 0.0
H148 H 0.82718 0.87336 0.46923 0.0
H149 H 0.77633 0.88507 0.6069 0.0
C150 C 0.73877 0.82643 0.71693 0.0
C151 C 0.71863 0.79247 0.76332 0.0
C152 C 0.77041 0.82008 0.64171 0.0
C153 C 0.73591 0.75237 0.74316 0.0
C154 C 0.76816 0.74588 0.66963 0.0
C155 C 0.81128 0.77282 0.53357 0.0
C156 C 0.82766 0.80647 0.48035 0.0
C157 C 0.78379 0.77939 0.61541 0.0
C158 C 0.8147 0.84685 0.50833 0.0
C159 C 0.78624 0.85361 0.58796 0.0
H160 H 0.54821 0.47308 0.08204 0.0
H161 H 0.55878 0.54942 0.34623 0.0
H162 H 0.55993 0.61166 0.24285 0.0
H163 H 0.55648 0.64345 0.07701 0.0
H164 H 0.55298 0.56621 0.81451 0.0
H165 H 0.551 0.50437 0.918 0.0
C166 C 0.55274 0.50315 0.11732 0.0
C167 C 0.55541 0.50669 0.22177 0.0
C168 C 0.55445 0.53831 0.05775 0.0
C169 C 0.55754 0.54612 0.26598 0.0
C170 C 0.55825 0.58152 0.20699 0.0
C171 C 0.55728 0.61315 0.04269 0.0
C172 C 0.55662 0.6093 0.93842 0.0
C173 C 0.55696 0.57791 0.10279 0.0
C174 C 0.55419 0.56976 0.8947 0.0
C175 C 0.55304 0.53454 0.95374 0.0
H176 H 0.88812 0.33814 0.32308 0.0
H177 H 0.89099 0.20491 0.30012 0.0
H178 H 0.80095 0.20338 0.30232 0.0
H179 H 0.72099 0.23989 0.31093 0.0
H180 H 0.71897 0.37311 0.33657 0.0
H181 H 0.80872 0.37444 0.33345 0.0
C182 C 0.86912 0.30872 0.31827 0.0
C183 C 0.89654 0.27171 0.31118 0.0
C184 C 0.81727 0.30801 0.32038 0.0
C185 C 0.87105 0.23392 0.30563 0.0
C186 C 0.81944 0.23299 0.30692 0.0
C187 C 0.74015 0.26922 0.31607 0.0
C188 C 0.71293 0.30633 0.32399 0.0
C189 C 0.79211 0.26984 0.31444 0.0
C190 C 0.73866 0.34401 0.33056 0.0
C191 C 0.79014 0.34485 0.32862 0.0
H192 H 0.3866 0.24433 0.3167 0.0
H193 H 0.392 0.37722 0.2922 0.0
H194 H 0.30232 0.3818 0.2968 0.0
H195 H 0.22158 0.34817 0.30883 0.0
H196 H 0.21708 0.21525 0.33583 0.0
H197 H 0.30639 0.21088 0.32969 0.0
C198 C 0.36819 0.2743 0.31195 0.0
C199 C 0.39633 0.3103 0.30391 0.0
C200 C 0.31639 0.27685 0.31558 0.0
C201 C 0.37156 0.34888 0.29845 0.0
C202 C 0.3201 0.3516 0.30117 0.0
C203 C 0.24013 0.31827 0.31361 0.0
C204 C 0.21221 0.28217 0.32283 0.0
C205 C 0.29203 0.31581 0.31008 0.0
C206 C 0.23722 0.24369 0.32882 0.0
C207 C 0.28853 0.24105 0.32514 0.0
H208 H 0.41236 0.74544 0.73117 0.0
H209 H 0.41402 0.87859 0.70633 0.0
H210 H 0.3438 0.87596 0.57875 0.0
H211 H 0.28867 0.83509 0.46105 0.0
H212 H 0.28674 0.7024 0.48737 0.0
H213 H 0.35321 0.7053 0.62337 0.0
C214 C 0.39672 0.77406 0.6998 0.0
C215 C 0.41875 0.81214 0.72777 0.0
C216 C 0.35786 0.77221 0.62377 0.0
C217 C 0.3978 0.84885 0.6863 0.0
C218 C 0.35814 0.84734 0.61219 0.0
C219 C 0.30224 0.80698 0.49793 0.0
C220 C 0.28264 0.76865 0.46541 0.0
C221 C 0.33912 0.80909 0.578 0.0
C222 C 0.30176 0.73219 0.51089 0.0
C223 C 0.33911 0.73391 0.58943 0.0
H224 H 0.56588 0.97184 0.03258 0.0
H225 H 0.58071 0.04811 0.77656 0.0
H226 H 0.57364 0.11066 0.87908 0.0
H227 H 0.56617 0.14278 0.04311 0.0
H228 H 0.54821 0.06616 0.2974 0.0
H229 H 0.55307 1.00395 0.19376 0.0
C230 C 0.56609 1.0022 -0.00115 0.0
C231 C 0.57217 1.00566 0.89678 0.0
C232 C 0.56149 1.0376 0.05786 0.0
C233 C 0.57518 0.04501 0.85471 0.0
C234 C 0.57112 0.08057 0.91321 0.0
C235 C 0.56147 0.11259 0.07498 0.0
C236 C 0.55534 0.10897 0.17711 0.0
C237 C 0.56427 0.07718 0.0149 0.0
C238 C 0.55228 0.06949 0.21866 0.0
C239 C 0.55518 1.03407 0.15959 0.0
H240 H 0.98636 0.92788 0.32264 0.0
H241 H 0.14394 0.90421 0.33436 0.0
H242 H 0.15965 0.97821 0.33678 0.0
H243 H 0.12953 0.04988 0.33989 0.0
H244 H 0.97293 0.0749 0.33428 0.0
H245 H 0.95598 1.00066 0.32324 0.0
C246 C 1.02412 0.93891 0.32544 0.0
C247 C 0.06386 0.91019 0.32849 0.0
C248 C 1.03312 0.98194 0.32702 0.0
C249 C 0.11253 0.92528 0.33205 0.0
C250 C 0.12165 0.96775 0.33338 0.0
C251 C 0.09163 1.03907 0.3355 0.0
C252 C 0.05257 0.06813 0.33573 0.0
C253 C 0.08234 0.99633 0.33142 0.0
C254 C 1.00367 0.05355 0.33079 0.0
C255 C 0.99402 1.01093 0.32589 0.0
H256 H 0.05386 0.33182 -0.02055 0.0
H257 H 0.04813 0.19869 -0.00049 0.0
H258 H 0.05059 0.1928 0.8192 0.0
H259 H 0.05457 0.22532 0.65605 0.0
H260 H 0.06037 0.35844 0.63598 0.0
H261 H 0.05789 0.36434 0.81628 0.0
C262 C 0.05299 0.30148 0.9445 0.0
C263 C 0.05076 0.26576 0.00319 0.0
C264 C 0.05463 0.29828 0.84078 0.0
C265 C 0.04984 0.22672 -0.04363 0.0
C266 C 0.0513 0.22331 0.85318 0.0
C267 C 0.05544 0.25566 0.691 0.0
C268 C 0.0577 0.29138 0.6323 0.0
C269 C 0.05382 0.25886 0.79471 0.0
C270 C 0.05865 0.33041 0.67912 0.0
C271 C 0.05717 0.33383 0.78231 0.0
H272 H 0.98229 0.79014 0.6593 0.0
H273 H 0.13944 0.76637 0.66184 0.0
H274 H 0.14726 0.76422 0.84379 0.0
H275 H 0.10948 0.76856 0.00194 0.0
H276 H 0.95202 0.79108 -0.00092 0.0
H277 H 0.94434 0.79382 0.81721 0.0
C278 C 1.01824 0.78435 0.6995 0.0
C279 C 0.06014 0.77826 0.64685 0.0
C280 C 1.02243 0.78279 0.80406 0.0
C281 C 0.10652 0.77108 0.70038 0.0
C282 C 0.11105 0.76981 0.80448 0.0
C283 C 0.07344 0.77404 -0.03834 0.0
C284 C 1.03141 0.77961 0.01426 0.0
C285 C 0.06924 0.77551 0.85706 0.0
C286 C 0.98501 0.78663 -0.03937 0.0
C287 C 0.98056 0.78827 0.85656 0.0
H288 H 0.5607 0.75217 0.14409 0.0
H289 H 0.5845 0.88346 0.12001 0.0
H290 H 0.58476 0.89109 0.30047 0.0
H291 H 0.57867 0.86046 0.46505 0.0
H292 H 0.55557 0.72901 0.48866 0.0
H293 H 0.55501 0.7215 0.30824 0.0
C294 C 0.56637 0.7824 0.1782 0.0
C295 C 0.573 0.81707 0.11854 0.0
C296 C 0.56657 0.78658 0.28195 0.0
C297 C 0.57949 0.85617 0.16411 0.0
C298 C 0.57964 0.86059 0.26736 0.0
C299 C 0.57344 0.83016 0.43081 0.0
C300 C 0.56714 0.79538 0.49041 0.0
C301 C 0.57326 0.82601 0.32699 0.0
C302 C 0.56053 0.75633 0.44468 0.0
C303 C 0.56018 0.75198 0.34145 0.0
H304 H 0.54474 0.36142 0.65403 0.0
H305 H 0.57384 0.23044 0.62686 0.0
H306 H 0.57356 0.22256 0.80682 0.0
H307 H 0.56546 0.25283 -0.0281 0.0
H308 H 0.53387 0.38338 -0.00145 0.0
H309 H 0.53512 0.39144 0.81896 0.0
C310 C 0.55121 0.33117 0.68748 0.0
C311 C 0.55943 0.29663 0.62702 0.0
C312 C 0.55059 0.32675 0.79096 0.0
C313 C 0.56739 0.25759 0.67158 0.0
C314 C 0.56724 0.25301 0.77454 0.0
C315 C 0.55842 0.28297 0.93843 0.0
C316 C 0.54978 0.31743 -0.00119 0.0
C317 C 0.55877 0.28736 0.8349 0.0
C318 C 0.54121 0.35638 -0.04588 0.0
C319 C 0.54173 0.36102 0.85126 0.0
loop_
_geom_bond_atom_site_label_1
_geom_bond_atom_site_label_2
_geom_bond_distance
_geom_bond_site_symmetry_2
_ccdc_geom_bond_type
Zn0 O1 2.055 1_455 S
Zn0 O8 2.046 . S
Zn0 N16 2.036 . S
Zn0 O28 2.053 . S
Zn0 O30 2.066 . S
O1 Zn0 2.055 1_655 S
O1 C4 1.259 . S
C2 O30 1.256 . S
C2 O31 1.244 . S
Zn3 O5 2.046 1_455 S
Zn3 O7 2.055 . S
Zn3 N9 2.036 . S
Zn3 O27 2.066 . S
Zn3 O31 2.053 . S
C4 O1 1.259 . S
C4 O5 1.254 . S
O5 Zn3 2.046 1_655 S
O5 C4 1.254 . S
C6 O27 1.256 . S
C6 O28 1.244 . S
O7 Zn3 2.055 . S
O7 C29 1.259 . S
O8 Zn0 2.046 . S
O8 C29 1.254 . S
N9 Zn3 2.036 . S
N9 C10 1.298 . S
N9 N12 1.398 . S
C10 N9 1.298 . S
C10 N13 1.367 . S
C10 C23 1.481 . S
C11 N12 1.299 . S
C11 N13 1.379 . S
N12 N9 1.398 . S
N12 C11 1.299 . S
N13 C10 1.367 . S
N13 C11 1.379 . S
C14 N16 1.298 . S
C14 N18 1.367 . S
C14 C22 1.481 1_455 S
C15 N17 1.299 . S
C15 N18 1.379 . S
N16 Zn0 2.036 . S
N16 C14 1.298 . S
N16 N17 1.398 . S
N17 C15 1.299 . S
N17 N16 1.398 . S
N18 C14 1.367 . S
N18 C15 1.379 . S
H19 C22 0.980 . S
H20 C22 0.981 . S
H21 C22 0.981 . S
C22 C14 1.481 1_655 S
C22 H19 0.980 . S
C22 H20 0.981 . S
C22 H21 0.981 . S
C23 C10 1.481 . S
C23 H24 0.980 . S
C23 H25 0.981 . S
C23 H26 0.981 . S
H24 C23 0.980 . S
H25 C23 0.981 . S
H26 C23 0.981 . S
O27 Zn3 2.066 . S
O27 C6 1.256 . S
O28 Zn0 2.053 . S
O28 C6 1.244 . S
C29 O7 1.259 . S
C29 O8 1.254 . S
O30 Zn0 2.066 . S
O30 C2 1.256 . S
O31 C2 1.244 . S
O31 Zn3 2.053 . S
Zn32 O33 2.055 . S
Zn32 O40 2.046 . S
Zn32 N48 2.036 . S
Zn32 O60 2.053 . S
Zn32 O62 2.066 . S
O33 Zn32 2.055 . S
O33 C36 1.259 1_655 S
C34 O62 1.256 1_455 S
C34 O63 1.244 . S
Zn35 O37 2.046 . S
Zn35 O39 2.055 . S
Zn35 N41 2.036 . S
Zn35 O59 2.066 . S
Zn35 O63 2.053 . S
C36 O33 1.259 1_455 S
C36 O37 1.254 . S
O37 Zn35 2.046 . S
O37 C36 1.254 . S
C38 O59 1.256 . S
C38 O60 1.244 1_455 S
O39 Zn35 2.055 . S
O39 C61 1.259 . S
O40 Zn32 2.046 . S
O40 C61 1.254 1_655 S
N41 Zn35 2.036 . S
N41 C42 1.298 . S
N41 N44 1.398 . S
C42 N41 1.298 . S
C42 N45 1.367 . S
C42 C55 1.481 . S
C43 N44 1.299 . S
C43 N45 1.379 . S
N44 N41 1.398 . S
N44 C43 1.299 . S
N45 C42 1.367 . S
N45 C43 1.379 . S
C46 N48 1.298 . S
C46 N50 1.367 . S
C46 C54 1.481 . S
C47 N49 1.299 . S
C47 N50 1.379 . S
N48 Zn32 2.036 . S
N48 C46 1.298 . S
N48 N49 1.398 . S
N49 C47 1.299 . S
N49 N48 1.398 . S
N50 C46 1.367 . S
N50 C47 1.379 . S
H51 C54 0.980 . S
H52 C54 0.981 . S
H53 C54 0.981 . S
C54 C46 1.481 . S
C54 H51 0.980 . S
C54 H52 0.981 . S
C54 H53 0.981 . S
C55 C42 1.481 . S
C55 H56 0.980 . S
C55 H57 0.981 . S
C55 H58 0.981 . S
H56 C55 0.980 . S
H57 C55 0.981 . S
H58 C55 0.981 . S
O59 Zn35 2.066 . S
O59 C38 1.256 . S
O60 Zn32 2.053 . S
O60 C38 1.244 1_655 S
C61 O39 1.259 . S
C61 O40 1.254 1_455 S
O62 Zn32 2.066 . S
O62 C34 1.256 1_655 S
O63 C34 1.244 . S
O63 Zn35 2.053 . S
Zn64 O65 2.055 . S
Zn64 O72 2.046 . S
Zn64 N80 2.036 . S
Zn64 O92 2.053 . S
Zn64 O94 2.066 1_556 S
O65 Zn64 2.055 . S
O65 C68 1.259 . S
C66 O94 1.256 . S
C66 O95 1.244 . S
Zn67 O69 2.046 . S
Zn67 O71 2.055 . S
Zn67 N73 2.036 . S
Zn67 O91 2.066 . S
Zn67 O95 2.053 1_556 S
C68 O65 1.259 . S
C68 O69 1.254 . S
O69 Zn67 2.046 . S
O69 C68 1.254 . S
C70 O91 1.256 . S
C70 O92 1.244 . S
O71 Zn67 2.055 . S
O71 C93 1.259 . S
O72 Zn64 2.046 . S
O72 C93 1.254 . S
N73 Zn67 2.036 . S
N73 C74 1.298 . S
N73 N76 1.398 . S
C74 N73 1.298 . S
C74 N77 1.367 . S
C74 C87 1.481 . S
C75 N76 1.299 . S
C75 N77 1.379 . S
N76 N73 1.398 . S
N76 C75 1.299 . S
N77 C74 1.367 . S
N77 C75 1.379 . S
C78 N80 1.298 . S
C78 N82 1.367 . S
C78 C86 1.481 . S
C79 N81 1.299 . S
C79 N82 1.379 . S
N80 Zn64 2.036 . S
N80 C78 1.298 . S
N80 N81 1.398 . S
N81 C79 1.299 . S
N81 N80 1.398 . S
N82 C78 1.367 . S
N82 C79 1.379 . S
H83 C86 0.980 . S
H84 C86 0.981 . S
H85 C86 0.981 1_554 S
C86 C78 1.481 . S
C86 H83 0.980 . S
C86 H84 0.981 . S
C86 H85 0.981 1_556 S
C87 C74 1.481 . S
C87 H88 0.980 . S
C87 H89 0.981 . S
C87 H90 0.981 . S
H88 C87 0.980 . S
H89 C87 0.981 . S
H90 C87 0.981 . S
O91 Zn67 2.066 . S
O91 C70 1.256 . S
O92 Zn64 2.053 . S
O92 C70 1.244 . S
C93 O71 1.259 . S
C93 O72 1.254 . S
O94 Zn64 2.066 1_554 S
O94 C66 1.256 . S
O95 C66 1.244 . S
O95 Zn67 2.053 1_554 S
Zn96 O97 2.055 . S
Zn96 O104 2.046 . S
Zn96 N112 2.036 . S
Zn96 O124 2.053 . S
Zn96 O126 2.066 . S
O97 Zn96 2.055 . S
O97 C100 1.259 . S
C98 O126 1.256 . S
C98 O127 1.244 . S
Zn99 O101 2.046 . S
Zn99 O103 2.055 . S
Zn99 N105 2.036 . S
Zn99 O123 2.066 . S
Zn99 O127 2.053 . S
C100 O97 1.259 . S
C100 O101 1.254 . S
O101 Zn99 2.046 . S
O101 C100 1.254 . S
C102 O123 1.256 1_556 S
C102 O124 1.244 1_556 S
O103 Zn99 2.055 . S
O103 C125 1.259 . S
O104 Zn96 2.046 . S
O104 C125 1.254 . S
N105 Zn99 2.036 . S
N105 C106 1.298 . S
N105 N108 1.398 . S
C106 N105 1.298 . S
C106 N109 1.367 . S
C106 C119 1.481 . S
C107 N108 1.299 . S
C107 N109 1.379 . S
N108 N105 1.398 . S
N108 C107 1.299 . S
N109 C106 1.367 . S
N109 C107 1.379 . S
C110 N112 1.298 . S
C110 N114 1.367 . S
C110 C118 1.481 . S
C111 N113 1.299 . S
C111 N114 1.379 . S
N112 Zn96 2.036 . S
N112 C110 1.298 . S
N112 N113 1.398 . S
N113 C111 1.299 . S
N113 N112 1.398 . S
N114 C110 1.367 . S
N114 C111 1.379 . S
H115 C118 0.980 . S
H116 C118 0.981 . S
H117 C118 0.981 . S
C118 C110 1.481 . S
C118 H115 0.980 . S
C118 H116 0.981 . S
C118 H117 0.981 . S
C119 C106 1.481 . S
C119 H120 0.980 . S
C119 H121 0.981 . S
C119 H122 0.981 . S
H120 C119 0.980 . S
H121 C119 0.981 . S
H122 C119 0.981 . S
O123 Zn99 2.066 . S
O123 C102 1.256 1_554 S
O124 Zn96 2.053 . S
O124 C102 1.244 1_554 S
C125 O103 1.259 . S
C125 O104 1.254 . S
O126 Zn96 2.066 . S
O126 C98 1.256 . S
O127 C98 1.244 . S
O127 Zn99 2.053 . S
H128 C134 0.930 . S
H129 C137 0.930 . S
H130 C138 0.930 . S
H131 C139 0.930 . S
H132 C142 0.930 . S
H133 C143 0.930 . S
C134 H128 0.930 . S
C134 C135 1.355 1_655 S
C134 C136 1.415 . S
C135 C134 1.355 1_455 S
C135 C137 1.419 . S
C136 C134 1.415 . S
C136 C141 1.425 1_655 S
C136 C143 1.409 . S
C137 H129 0.930 . S
C137 C135 1.419 . S
C137 C138 1.362 . S
C138 H130 0.930 . S
C138 C137 1.362 . S
C138 C141 1.409 . S
C139 H131 0.930 . S
C139 C140 1.355 . S
C139 C141 1.415 . S
C140 C139 1.355 . S
C140 C142 1.419 1_455 S
C141 C136 1.425 1_455 S
C141 C138 1.409 . S
C141 C139 1.415 . S
C142 H132 0.930 . S
C142 C140 1.419 1_655 S
C142 C143 1.362 . S
C143 H133 0.930 . S
C143 C136 1.409 . S
C143 C142 1.362 . S
H144 C150 0.930 . S
H145 C153 0.930 . S
H146 C154 0.930 . S
H147 C155 0.930 . S
H148 C158 0.930 . S
H149 C159 0.930 . S
C150 H144 0.930 . S
C150 C151 1.355 . S
C150 C152 1.415 . S
C151 C150 1.355 . S
C151 C153 1.419 . S
C152 C150 1.415 . S
C152 C157 1.425 . S
C152 C159 1.409 . S
C153 H145 0.930 . S
C153 C151 1.419 . S
C153 C154 1.362 . S
C154 H146 0.930 . S
C154 C153 1.362 . S
C154 C157 1.409 . S
C155 H147 0.930 . S
C155 C156 1.355 . S
C155 C157 1.415 . S
C156 C155 1.355 . S
C156 C158 1.419 . S
C157 C152 1.425 . S
C157 C154 1.409 . S
C157 C155 1.415 . S
C158 H148 0.930 . S
C158 C156 1.419 . S
C158 C159 1.362 . S
C159 H149 0.930 . S
C159 C152 1.409 . S
C159 C158 1.362 . S
H160 C166 0.930 . S
H161 C169 0.930 . S
H162 C170 0.930 . S
H163 C171 0.930 . S
H164 C174 0.930 . S
H165 C175 0.930 . S
C166 H160 0.930 . S
C166 C167 1.355 . S
C166 C168 1.415 1_554 S
C167 C166 1.355 . S
C167 C169 1.419 . S
C168 C166 1.415 1_556 S
C168 C173 1.425 . S
C168 C175 1.409 . S
C169 H161 0.930 . S
C169 C167 1.419 . S
C169 C170 1.362 . S
C170 H162 0.930 . S
C170 C169 1.362 . S
C170 C173 1.409 1_554 S
C171 H163 0.930 . S
C171 C172 1.355 . S
C171 C173 1.415 . S
C172 C171 1.355 . S
C172 C174 1.419 . S
C173 C168 1.425 . S
C173 C170 1.409 1_556 S
C173 C171 1.415 . S
C174 H164 0.930 . S
C174 C172 1.419 . S
C174 C175 1.362 . S
C175 H165 0.930 . S
C175 C168 1.409 . S
C175 C174 1.362 . S
H176 C182 0.930 . S
H177 C185 0.930 . S
H178 C186 0.930 . S
H179 C187 0.930 . S
H180 C190 0.930 . S
H181 C191 0.930 . S
C182 H176 0.930 . S
C182 C183 1.355 . S
C182 C184 1.415 . S
C183 C182 1.355 . S
C183 C185 1.419 . S
C184 C182 1.415 . S
C184 C189 1.425 . S
C184 C191 1.409 . S
C185 H177 0.930 . S
C185 C183 1.419 . S
C185 C186 1.362 . S
C186 H178 0.930 . S
C186 C185 1.362 . S
C186 C189 1.409 . S
C187 H179 0.930 . S
C187 C188 1.355 . S
C187 C189 1.415 . S
C188 C187 1.355 . S
C188 C190 1.419 . S
C189 C184 1.425 . S
C189 C186 1.409 . S
C189 C187 1.415 . S
C190 H180 0.930 . S
C190 C188 1.419 . S
C190 C191 1.362 . S
C191 H181 0.930 . S
C191 C184 1.409 . S
C191 C190 1.362 . S
H192 C198 0.930 . S
H193 C201 0.930 . S
H194 C202 0.930 . S
H195 C203 0.930 . S
H196 C206 0.930 . S
H197 C207 0.930 . S
C198 H192 0.930 . S
C198 C199 1.355 . S
C198 C200 1.415 . S
C199 C198 1.355 . S
C199 C201 1.419 . S
C200 C198 1.415 . S
C200 C205 1.425 . S
C200 C207 1.409 . S
C201 H193 0.930 . S
C201 C199 1.419 . S
C201 C202 1.362 . S
C202 H194 0.930 . S
C202 C201 1.362 . S
C202 C205 1.409 . S
C203 H195 0.930 . S
C203 C204 1.355 . S
C203 C205 1.415 . S
C204 C203 1.355 . S
C204 C206 1.419 . S
C205 C200 1.425 . S
C205 C202 1.409 . S
C205 C203 1.415 . S
C206 H196 0.930 . S
C206 C204 1.419 . S
C206 C207 1.362 . S
C207 H197 0.930 . S
C207 C200 1.409 . S
C207 C206 1.362 . S
H208 C214 0.930 . S
H209 C217 0.930 . S
H210 C218 0.930 . S
H211 C219 0.930 . S
H212 C222 0.930 . S
H213 C223 0.930 . S
C214 H208 0.930 . S
C214 C215 1.355 . S
C214 C216 1.415 . S
C215 C214 1.355 . S
C215 C217 1.419 . S
C216 C214 1.415 . S
C216 C221 1.425 . S
C216 C223 1.409 . S
C217 H209 0.930 . S
C217 C215 1.419 . S
C217 C218 1.362 . S
C218 H210 0.930 . S
C218 C217 1.362 . S
C218 C221 1.409 . S
C219 H211 0.930 . S
C219 C220 1.355 . S
C219 C221 1.415 . S
C220 C219 1.355 . S
C220 C222 1.419 . S
C221 C216 1.425 . S
C221 C218 1.409 . S
C221 C219 1.415 . S
C222 H212 0.930 . S
C222 C220 1.419 . S
C222 C223 1.362 . S
C223 H213 0.930 . S
C223 C216 1.409 . S
C223 C222 1.362 . S
H224 C230 0.930 . S
H225 C233 0.930 . S
H226 C234 0.930 . S
H227 C235 0.930 . S
H228 C238 0.930 . S
H229 C239 0.930 . S
C230 H224 0.930 . S
C230 C231 1.355 . S
C230 C232 1.409 1_566 S
C231 C230 1.355 . S
C231 C233 1.419 . S
C232 C230 1.409 1_544 S
C232 C237 1.427 . S
C232 C239 1.414 . S
C233 H225 0.930 . S
C233 C231 1.419 . S
C233 C234 1.362 1_556 S
C234 H226 0.930 . S
C234 C233 1.362 1_554 S
C234 C237 1.409 1_565 S
C235 H227 0.930 . S
C235 C236 1.355 . S
C235 C237 1.415 . S
C236 C235 1.355 . S
C236 C238 1.419 . S
C237 C232 1.427 . S
C237 C234 1.409 1_545 S
C237 C235 1.415 . S
C238 H228 0.930 . S
C238 C236 1.419 . S
C238 C239 1.362 . S
C239 H229 0.930 . S
C239 C232 1.414 . S
C239 C238 1.362 . S
H240 C246 0.930 1_655 S
H241 C249 0.930 . S
H242 C250 0.930 . S
H243 C251 0.922 1_545 S
H244 C254 0.930 1_545 S
H245 C255 0.930 1_655 S
C246 H240 0.930 1_455 S
C246 C247 1.355 . S
C246 C248 1.415 . S
C247 C246 1.355 . S
C247 C249 1.419 . S
C248 C246 1.415 . S
C248 C253 1.425 . S
C248 C255 1.409 . S
C249 H241 0.930 . S
C249 C247 1.419 . S
C249 C250 1.362 . S
C250 H242 0.930 . S
C250 C249 1.362 . S
C250 C253 1.409 . S
C251 H243 0.922 1_565 S
C251 C252 1.347 1_565 S
C251 C253 1.430 . S
C252 C251 1.347 1_545 S
C252 C254 1.419 1_545 S
C253 C248 1.425 . S
C253 C250 1.409 . S
C253 C251 1.430 . S
C254 H244 0.930 1_565 S
C254 C252 1.419 1_565 S
C254 C255 1.362 . S
C255 H245 0.930 1_455 S
C255 C248 1.409 . S
C255 C254 1.362 . S
H256 C262 0.930 . S
H257 C265 0.930 . S
H258 C266 0.930 . S
H259 C267 0.930 . S
H260 C270 0.930 . S
H261 C271 0.930 . S
C262 H256 0.930 . S
C262 C263 1.355 . S
C262 C264 1.414 1_554 S
C263 C262 1.355 . S
C263 C265 1.419 . S
C264 C262 1.414 1_556 S
C264 C269 1.425 . S
C264 C271 1.409 . S
C265 H257 0.930 . S
C265 C263 1.419 . S
C265 C266 1.362 1_554 S
C266 H258 0.930 . S
C266 C265 1.362 1_556 S
C266 C269 1.409 . S
C267 H259 0.930 . S
C267 C268 1.355 . S
C267 C269 1.415 . S
C268 C267 1.355 . S
C268 C270 1.419 . S
C269 C264 1.425 . S
C269 C266 1.409 . S
C269 C267 1.415 . S
C270 H260 0.930 . S
C270 C268 1.419 . S
C270 C271 1.362 . S
C271 H261 0.930 . S
C271 C264 1.409 . S
C271 C270 1.362 . S
H272 C278 0.930 . S
H273 C281 0.930 . S
H274 C282 0.930 . S
H275 C283 0.930 . S
H276 C286 0.930 . S
H277 C287 0.930 . S
C278 H272 0.930 . S
C278 C279 1.355 1_655 S
C278 C280 1.415 1_556 S
C279 C278 1.355 1_455 S
C279 C281 1.419 . S
C280 C278 1.415 1_554 S
C280 C285 1.425 1_655 S
C280 C287 1.409 . S
C281 H273 0.930 . S
C281 C279 1.419 . S
C281 C282 1.362 1_556 S
C282 H274 0.930 . S
C282 C281 1.362 1_554 S
C282 C285 1.409 . S
C283 H275 0.930 . S
C283 C284 1.355 . S
C283 C285 1.415 . S
C284 C283 1.355 . S
C284 C286 1.419 1_455 S
C285 C280 1.425 1_455 S
C285 C282 1.409 . S
C285 C283 1.415 . S
C286 H276 0.930 . S
C286 C284 1.419 1_655 S
C286 C287 1.362 . S
C287 H277 0.930 . S
C287 C280 1.409 . S
C287 C286 1.362 . S
H288 C294 0.930 . S
H289 C297 0.930 . S
H290 C298 0.930 . S
H291 C299 0.930 . S
H292 C302 0.930 . S
H293 C303 0.930 . S
C294 H288 0.930 . S
C294 C295 1.355 . S
C294 C296 1.415 . S
C295 C294 1.355 . S
C295 C297 1.419 . S
C296 C294 1.415 . S
C296 C301 1.425 . S
C296 C303 1.409 . S
C297 H289 0.930 . S
C297 C295 1.419 . S
C297 C298 1.362 . S
C298 H290 0.930 . S
C298 C297 1.362 . S
C298 C301 1.409 . S
C299 H291 0.930 . S
C299 C300 1.355 . S
C299 C301 1.415 . S
C300 C299 1.355 . S
C300 C302 1.419 . S
C301 C296 1.425 . S
C301 C298 1.409 . S
C301 C299 1.415 . S
C302 H292 0.930 . S
C302 C300 1.419 . S
C302 C303 1.362 . S
C303 H293 0.930 . S
C303 C296 1.409 . S
C303 C302 1.362 . S
H304 C310 0.930 . S
H305 C313 0.930 . S
H306 C314 0.930 . S
H307 C315 0.930 . S
H308 C318 0.930 . S
H309 C319 0.930 . S
C310 H304 0.930 . S
C310 C311 1.355 . S
C310 C312 1.415 . S
C311 C310 1.355 . S
C311 C313 1.419 . S
C312 C310 1.415 . S
C312 C317 1.425 . S
C312 C319 1.409 . S
C313 H305 0.930 . S
C313 C311 1.419 . S
C313 C314 1.362 . S
C314 H306 0.930 . S
C314 C313 1.362 . S
C314 C317 1.409 . S
C315 H307 0.930 . S
C315 C316 1.355 . S
C315 C317 1.415 . S
C316 C315 1.355 . S
C316 C318 1.419 . S
C317 C312 1.425 . S
C317 C314 1.409 . S
C317 C315 1.415 . S
C318 H308 0.930 . S
C318 C316 1.419 . S
C318 C319 1.362 . S
C319 H309 0.930 . S
C319 C312 1.409 . S
C319 C318 1.362 . S
C135 N18 2.291 . S
C140 C36 2.258 . S
C151 C70 1.274 . S
C156 N50 1.318 . S
C167 N109 1.266 . S
C172 N77 1.060 . S
C183 C4 2.122 . S
C188 C125 2.119 . S
C199 C98 2.633 . S
C204 C6 2.632 . S
C215 C68 0.844 . S
C220 N45 0.820 . S
C231 N82 1.158 . S
C236 N114 0.950 . S
C247 C38 2.521 . S
C252 N13 2.349 . S
C263 C29 1.076 . S
C268 C2 1.083 . S
C279 C34 1.096 . S
C284 C61 1.089 . S
C295 C66 1.094 . S
C300 C93 1.099 . S
C311 C100 1.083 . S
C316 C102 1.087 . S
