# Generated by pormake.
# Topology ukk, (4)-cn, num edge types: 1
# Building blocks:
#     Node 0, Type 0, BuildingBlock: ICAMEG_clean_sbu_1, # of connection points: 4
#     Node 1, Type 0, BuildingBlock: ICAMEG_clean_sbu_1, # of connection points: 4
#     Node 2, Type 0, BuildingBlock: ICAMEG_clean_sbu_1, # of connection points: 4
#     Node 3, Type 0, BuildingBlock: ICAMEG_clean_sbu_1, # of connection points: 4
#     Node 4, Type 0, BuildingBlock: ICAMEG_clean_sbu_1, # of connection points: 4
#     Node 5, Type 0, BuildingBlock: ICAMEG_clean_sbu_1, # of connection points: 4
#     Node 6, Type 0, BuildingBlock: ICAMEG_clean_sbu_1, # of connection points: 4
#     Node 7, Type 0, BuildingBlock: ICAMEG_clean_sbu_1, # of connection points: 4
#     Node 8, Type 0, BuildingBlock: ICAMEG_clean_sbu_1, # of connection points: 4
#     Node 9, Type 0, BuildingBlock: ICAMEG_clean_sbu_1, # of connection points: 4
#     Node 10, Type 0, BuildingBlock: ICAMEG_clean_sbu_1, # of connection points: 4
#     Node 11, Type 0, BuildingBlock: ICAMEG_clean_sbu_1, # of connection points: 4
#     Node 12, Type 0, BuildingBlock: ICAMEG_clean_sbu_1, # of connection points: 4
#     Node 13, Type 0, BuildingBlock: ICAMEG_clean_sbu_1, # of connection points: 4
#     Node 14, Type 0, BuildingBlock: ICAMEG_clean_sbu_1, # of connection points: 4
#     Node 15, Type 0, BuildingBlock: ICAMEG_clean_sbu_1, # of connection points: 4
#     Edge 16, Type (0, 0), BuildingBlock: ZUJKAS_clean_linker_0, # of connection points: 2
#     Edge 17, Type (0, 0), BuildingBlock: ZUJKAS_clean_linker_0, # of connection points: 2
#     Edge 18, Type (0, 0), BuildingBlock: ZUJKAS_clean_linker_0, # of connection points: 2
#     Edge 19, Type (0, 0), BuildingBlock: ZUJKAS_clean_linker_0, # of connection points: 2
#     Edge 20, Type (0, 0), BuildingBlock: ZUJKAS_clean_linker_0, # of connection points: 2
#     Edge 21, Type (0, 0), BuildingBlock: ZUJKAS_clean_linker_0, # of connection points: 2
#     Edge 22, Type (0, 0), BuildingBlock: ZUJKAS_clean_linker_0, # of connection points: 2
#     Edge 23, Type (0, 0), BuildingBlock: ZUJKAS_clean_linker_0, # of connection points: 2
#     Edge 24, Type (0, 0), BuildingBlock: ZUJKAS_clean_linker_0, # of connection points: 2
#     Edge 25, Type (0, 0), BuildingBlock: ZUJKAS_clean_linker_0, # of connection points: 2
#     Edge 26, Type (0, 0), BuildingBlock: ZUJKAS_clean_linker_0, # of connection points: 2
#     Edge 27, Type (0, 0), BuildingBlock: ZUJKAS_clean_linker_0, # of connection points: 2
#     Edge 28, Type (0, 0), BuildingBlock: ZUJKAS_clean_linker_0, # of connection points: 2
#     Edge 29, Type (0, 0), BuildingBlock: ZUJKAS_clean_linker_0, # of connection points: 2
#     Edge 30, Type (0, 0), BuildingBlock: ZUJKAS_clean_linker_0, # of connection points: 2
#     Edge 31, Type (0, 0), BuildingBlock: ZUJKAS_clean_linker_0, # of connection points: 2
#     Edge 32, Type (0, 0), BuildingBlock: ZUJKAS_clean_linker_0, # of connection points: 2
#     Edge 33, Type (0, 0), BuildingBlock: ZUJKAS_clean_linker_0, # of connection points: 2
#     Edge 34, Type (0, 0), BuildingBlock: ZUJKAS_clean_linker_0, # of connection points: 2
#     Edge 35, Type (0, 0), BuildingBlock: ZUJKAS_clean_linker_0, # of connection points: 2
#     Edge 36, Type (0, 0), BuildingBlock: ZUJKAS_clean_linker_0, # of connection points: 2
#     Edge 37, Type (0, 0), BuildingBlock: ZUJKAS_clean_linker_0, # of connection points: 2
#     Edge 38, Type (0, 0), BuildingBlock: ZUJKAS_clean_linker_0, # of connection points: 2
#     Edge 39, Type (0, 0), BuildingBlock: ZUJKAS_clean_linker_0, # of connection points: 2
#     Edge 40, Type (0, 0), BuildingBlock: ZUJKAS_clean_linker_0, # of connection points: 2
#     Edge 41, Type (0, 0), BuildingBlock: ZUJKAS_clean_linker_0, # of connection points: 2
#     Edge 42, Type (0, 0), BuildingBlock: ZUJKAS_clean_linker_0, # of connection points: 2
#     Edge 43, Type (0, 0), BuildingBlock: ZUJKAS_clean_linker_0, # of connection points: 2
#     Edge 44, Type (0, 0), BuildingBlock: ZUJKAS_clean_linker_0, # of connection points: 2
#     Edge 45, Type (0, 0), BuildingBlock: ZUJKAS_clean_linker_0, # of connection points: 2
#     Edge 46, Type (0, 0), BuildingBlock: ZUJKAS_clean_linker_0, # of connection points: 2
#     Edge 47, Type (0, 0), BuildingBlock: ZUJKAS_clean_linker_0, # of connection points: 2
# Relax obj value: 0.061
# Max RMSD: 0.229
# Mean RMSD: 0.225
data_MOF--net-ukk--node1-ICAMEG_clean_sbu_1--edge1-ZUJKAS_clean_linker_0
_symmetry_space_group_name_H-M    P1
_symmetry_Int_Tables_number       1
_symmetry_cell_setting            triclinic
loop_
_symmetry_equiv_pos_as_xyz
'x, y, z'
_cell_length_a     75.996952
_cell_length_b     74.745563
_cell_length_c     20.716926
_cell_angle_alpha  89.989291
_cell_angle_beta   90.026095
_cell_angle_gamma 89.993888
loop_
_atom_site_label
_atom_site_type_symbol
_atom_site_fract_x
_atom_site_fract_y
_atom_site_fract_z
_atom_type_partial_charge
Co0 Co 0.37344 0.11748 0.16017 0.0
Co1 Co 0.37232 0.12263 0.99445 0.0
O2 O 0.36518 0.111 0.07447 0.0
C3 C 0.38289 0.07964 0.14456 0.0
O4 O 0.38919 0.08422 0.08794 0.0
C5 C 0.33421 0.12699 0.00293 0.0
O6 O 0.33712 0.13231 0.0623 0.0
O7 O 0.36924 0.14681 0.03253 0.0
O8 O 0.37111 0.14354 0.14021 0.0
H9 H 0.4054 0.1668 0.8577 0.0
H10 H 0.34387 0.09189 0.14602 0.0
O11 O 0.37605 0.09144 0.18117 0.0
H12 H 0.31991 0.14233 0.2717 0.0
H13 H 0.37756 0.11024 0.40123 0.0
H14 H 0.39801 0.14467 0.21254 0.0
H15 H 0.35097 0.14227 0.23712 0.0
H16 H 0.36688 0.10293 0.29187 0.0
O17 O 0.34708 0.12277 0.96651 0.0
H18 H 0.39682 0.15196 0.95929 0.0
H19 H 0.36174 0.11799 0.85709 0.0
H20 H 0.40893 0.15252 0.32105 0.0
H21 H 0.31277 0.09134 0.17998 0.0
H22 H 0.39869 0.13524 0.41634 0.0
H23 H 0.30059 0.11673 0.24307 0.0
O24 O 0.39816 0.11809 0.12978 0.0
H25 H 0.35494 0.0592 0.94534 0.0
H26 H 0.40097 0.10513 0.9193 0.0
H27 H 0.40569 0.07495 0.87432 0.0
H28 H 0.38256 0.05174 0.88724 0.0
H29 H 0.35082 0.0895 0.98991 0.0
H30 H 0.36984 0.13255 0.75439 0.0
H31 H 0.39187 0.1571 0.75429 0.0
O32 O 0.39752 0.12282 0.02237 0.0
C33 C 0.36957 0.15318 0.08962 0.0
C34 C 0.39584 0.15607 0.85708 0.0
C35 C 0.37586 0.13686 0.79911 0.0
N36 N 0.37894 0.134 0.91396 0.0
C37 C 0.39098 0.14757 0.91441 0.0
C38 C 0.37131 0.12869 0.85739 0.0
C39 C 0.38823 0.15063 0.79909 0.0
C40 C 0.33871 0.10288 0.1741 0.0
N41 N 0.34924 0.11704 0.18991 0.0
C42 C 0.32107 0.10254 0.19294 0.0
C43 C 0.31424 0.11681 0.22826 0.0
C44 C 0.32508 0.13118 0.24429 0.0
C45 C 0.34264 0.13108 0.22452 0.0
C46 C 0.38208 0.11789 0.36011 0.0
C47 C 0.3934 0.13717 0.25384 0.0
C48 C 0.3761 0.1138 0.29809 0.0
N49 N 0.3817 0.12347 0.24602 0.0
C50 C 0.39968 0.14164 0.31513 0.0
C51 C 0.39394 0.13193 0.36856 0.0
C52 C 0.40573 0.12076 0.07567 0.0
C53 C 0.36509 0.06921 0.93922 0.0
C54 C 0.39085 0.0951 0.92511 0.0
C55 C 0.39359 0.07804 0.89948 0.0
C56 C 0.3806 0.06503 0.90671 0.0
N57 N 0.37559 0.0991 0.95686 0.0
C58 C 0.36279 0.08642 0.96411 0.0
Co59 Co 0.11943 0.64072 0.7754 0.0
Co60 Co 0.09642 0.63143 0.91515 0.0
O61 O 0.11514 0.64341 0.86762 0.0
C62 C 0.15248 0.63009 0.83739 0.0
O63 O 0.14275 0.62037 0.87622 0.0
C64 C 0.09057 0.66972 0.93812 0.0
O65 O 0.09185 0.67172 0.87535 0.0
O66 O 0.07873 0.63839 0.84925 0.0
O67 O 0.09368 0.64176 0.75634 0.0
H68 H 0.04345 0.59187 0.94126 0.0
H69 H 0.13811 0.66897 0.8489 0.0
O70 O 0.14529 0.63939 0.7931 0.0
H71 H 0.10414 0.70093 0.682 0.0
H72 H 0.15243 0.65244 0.56913 0.0
H73 H 0.10313 0.61979 0.66948 0.0
H74 H 0.10334 0.66799 0.68837 0.0
H75 H 0.14611 0.65583 0.68531 0.0
O76 O 0.09186 0.6542 0.96312 0.0
H77 H 0.0674 0.60663 0.88111 0.0
H78 H 0.08515 0.63185 0.05287 0.0
H79 H 0.10888 0.61611 0.55305 0.0
H80 H 0.13936 0.70192 0.84403 0.0
H81 H 0.13369 0.63251 0.50214 0.0
H82 H 0.12224 0.71812 0.76024 0.0
O83 O 0.11796 0.61426 0.78186 0.0
H84 H 0.14712 0.64194 0.06627 0.0
H85 H 0.10558 0.59714 0.98064 0.0
H86 H 0.12809 0.58789 0.05975 0.0
H87 H 0.14905 0.61038 0.10311 0.0
H88 H 0.12451 0.65058 0.98672 0.0
H89 H 0.06131 0.61747 0.11484 0.0
H90 H 0.0403 0.59726 0.05901 0.0
O91 O 0.10065 0.60857 0.86758 0.0
C92 C 0.07937 0.64112 0.78852 0.0
C93 C 0.05257 0.60059 0.96619 0.0
C94 C 0.06258 0.61498 0.0636 0.0
N95 N 0.07777 0.61992 0.96361 0.0
C96 C 0.06619 0.60893 0.93243 0.0
C97 C 0.07603 0.6231 0.02826 0.0
C98 C 0.05079 0.60363 0.03224 0.0
C99 C 0.13077 0.67592 0.81189 0.0
N100 N 0.12075 0.66657 0.76874 0.0
C101 C 0.13147 0.69458 0.80954 0.0
C102 C 0.12184 0.70366 0.76258 0.0
C103 C 0.11167 0.69403 0.71868 0.0
C104 C 0.11126 0.67538 0.72257 0.0
C105 C 0.14155 0.64526 0.59071 0.0
C106 C 0.11387 0.62707 0.64756 0.0
C107 C 0.13793 0.64711 0.65646 0.0
N108 N 0.12416 0.63815 0.68394 0.0
C109 C 0.1171 0.62489 0.58167 0.0
C110 C 0.13103 0.63408 0.55315 0.0
C111 C 0.10949 0.60357 0.81843 0.0
C112 C 0.13802 0.63203 0.04788 0.0
C113 C 0.11467 0.607 0.99925 0.0
C114 C 0.12737 0.60169 0.04411 0.0
C115 C 0.13912 0.61431 0.06845 0.0
N116 N 0.11367 0.62441 0.97936 0.0
C117 C 0.12514 0.63687 0.00305 0.0
Co118 Co 0.62 0.88002 0.15534 0.0
Co119 Co 0.61986 0.87465 0.98963 0.0
O120 O 0.62752 0.88646 0.06865 0.0
C121 C 0.60994 0.91769 0.13935 0.0
O122 O 0.60327 0.91294 0.08348 0.0
C123 C 0.65803 0.87029 0.99471 0.0
O124 O 0.65554 0.86543 0.05485 0.0
O125 O 0.62328 0.85055 0.02812 0.0
O126 O 0.62266 0.85399 0.13592 0.0
H127 H 0.58576 0.83023 0.8573 0.0
H128 H 0.64898 0.90614 0.13752 0.0
O129 O 0.61709 0.90603 0.17578 0.0
H130 H 0.67477 0.85646 0.26239 0.0
H131 H 0.61752 0.88775 0.39649 0.0
H132 H 0.59636 0.85246 0.21092 0.0
H133 H 0.64348 0.85585 0.23081 0.0
H134 H 0.62725 0.895 0.28592 0.0
O135 O 0.64492 0.87442 0.95929 0.0
H136 H 0.59506 0.84531 0.9576 0.0
H137 H 0.62951 0.87894 0.85122 0.0
H138 H 0.58639 0.84467 0.32067 0.0
H139 H 0.6803 0.90735 0.16846 0.0
H140 H 0.59699 0.86237 0.4144 0.0
H141 H 0.69341 0.88234 0.23114 0.0
O142 O 0.59505 0.87878 0.12746 0.0
H143 H 0.6368 0.93799 0.93715 0.0
H144 H 0.59066 0.89195 0.91663 0.0
H145 H 0.58558 0.92203 0.87127 0.0
H146 H 0.60876 0.94529 0.88143 0.0
H147 H 0.64128 0.90777 0.98214 0.0
H148 H 0.62069 0.86414 0.74976 0.0
H149 H 0.59861 0.83964 0.75242 0.0
O150 O 0.59488 0.87446 0.0199 0.0
C151 C 0.62371 0.84429 0.08538 0.0
C152 C 0.59534 0.84093 0.85548 0.0
C153 C 0.61497 0.85995 0.79514 0.0
N154 N 0.61268 0.86309 0.91013 0.0
C155 C 0.60061 0.84956 0.91209 0.0
C156 C 0.61993 0.86825 0.85272 0.0
C157 C 0.60257 0.84621 0.79666 0.0
C158 C 0.65454 0.89531 0.16543 0.0
N159 N 0.64439 0.881 0.18269 0.0
C160 C 0.6723 0.89603 0.18256 0.0
C161 C 0.67965 0.88198 0.21764 0.0
C162 C 0.66921 0.86744 0.23516 0.0
C163 C 0.6515 0.86716 0.21708 0.0
C164 C 0.61284 0.87991 0.35606 0.0
C165 C 0.60112 0.86015 0.25152 0.0
C166 C 0.61828 0.88397 0.29336 0.0
N167 N 0.6125 0.87406 0.24214 0.0
C168 C 0.59539 0.85571 0.31352 0.0
C169 C 0.60133 0.86566 0.36607 0.0
C170 C 0.58706 0.8761 0.07414 0.0
C171 C 0.62662 0.92795 0.93224 0.0
C172 C 0.6008 0.902 0.92122 0.0
C173 C 0.59786 0.919 0.89538 0.0
C174 C 0.61088 0.93205 0.90107 0.0
N175 N 0.61629 0.89809 0.95165 0.0
C176 C 0.62912 0.9108 0.95737 0.0
Co177 Co 0.8742 0.35517 0.77935 0.0
Co178 Co 0.89814 0.3652 0.91637 0.0
O179 O 0.87951 0.35249 0.87085 0.0
C180 C 0.84125 0.36392 0.8456 0.0
O181 O 0.85078 0.37393 0.88418 0.0
C182 C 0.906 0.32718 0.93566 0.0
O183 O 0.90431 0.3256 0.87287 0.0
O184 O 0.91544 0.35939 0.84776 0.0
O185 O 0.89971 0.35544 0.7569 0.0
H186 H 0.94928 0.4074 0.93741 0.0
H187 H 0.85768 0.32586 0.85428 0.0
O188 O 0.84854 0.35517 0.80019 0.0
H189 H 0.89149 0.296 0.68211 0.0
H190 H 0.83986 0.34225 0.57688 0.0
H191 H 0.88836 0.37723 0.6723 0.0
H192 H 0.89067 0.32893 0.68923 0.0
H193 H 0.84747 0.3389 0.69206 0.0
O194 O 0.90426 0.34245 0.96229 0.0
H195 H 0.92545 0.39166 0.87981 0.0
H196 H 0.91096 0.36472 0.05228 0.0
H197 H 0.8813 0.3809 0.55679 0.0
H198 H 0.85806 0.2929 0.84874 0.0
H199 H 0.8569 0.36332 0.50837 0.0
H200 H 0.87511 0.27776 0.7623 0.0
O201 O 0.87446 0.38166 0.78678 0.0
H202 H 0.84973 0.35161 0.07415 0.0
H203 H 0.88807 0.39874 0.98493 0.0
H204 H 0.86608 0.40656 0.06779 0.0
H205 H 0.84673 0.38289 0.113 0.0
H206 H 0.8718 0.3444 0.99083 0.0
H207 H 0.93472 0.38006 0.1117 0.0
H208 H 0.95403 0.40163 0.05423 0.0
O209 O 0.89226 0.388 0.87065 0.0
C210 C 0.91428 0.35669 0.78713 0.0
C211 C 0.94091 0.39809 0.96305 0.0
C212 C 0.93275 0.38273 0.06085 0.0
N213 N 0.91672 0.37745 0.96284 0.0
C214 C 0.92736 0.38919 0.93074 0.0
C215 C 0.91934 0.37406 0.02695 0.0
C216 C 0.94358 0.39483 0.02858 0.0
C217 C 0.86497 0.31937 0.81611 0.0
N218 N 0.87405 0.3293 0.77191 0.0
C219 C 0.8652 0.3007 0.81339 0.0
C220 C 0.87479 0.29221 0.76494 0.0
C221 C 0.88399 0.30244 0.71994 0.0
C222 C 0.88349 0.32108 0.72426 0.0
C223 C 0.85056 0.34995 0.59737 0.0
C224 C 0.8778 0.36945 0.65144 0.0
C225 C 0.8549 0.34813 0.66255 0.0
N226 N 0.86846 0.35773 0.68864 0.0
C227 C 0.87383 0.37162 0.58607 0.0
C228 C 0.86012 0.36177 0.55896 0.0
C229 C 0.88268 0.39268 0.82289 0.0
C230 C 0.85812 0.36202 0.05496 0.0
C231 C 0.87968 0.38837 0.0043 0.0
C232 C 0.86727 0.39287 0.05129 0.0
C233 C 0.85643 0.37959 0.07667 0.0
N234 N 0.88128 0.37111 0.98332 0.0
C235 C 0.8707 0.35801 0.00799 0.0
Co236 Co 0.37344 0.38059 0.10527 0.0
Co237 Co 0.37319 0.37362 0.27024 0.0
O238 O 0.36502 0.3856 0.19207 0.0
C239 C 0.38017 0.4189 0.12465 0.0
O240 O 0.38677 0.4144 0.1809 0.0
C241 C 0.33545 0.36676 0.26311 0.0
O242 O 0.33841 0.36221 0.20294 0.0
O243 O 0.37137 0.34972 0.22915 0.0
O244 O 0.37311 0.35422 0.12205 0.0
H245 H 0.40942 0.33026 0.39962 0.0
H246 H 0.34208 0.40362 0.12359 0.0
O247 O 0.37403 0.40691 0.08715 0.0
H248 H 0.32157 0.35265 0.99251 0.0
H249 H 0.37616 0.3902 0.86501 0.0
H250 H 0.39981 0.35588 0.04897 0.0
H251 H 0.35265 0.35484 0.0259 0.0
H252 H 0.36536 0.39573 0.97553 0.0
O253 O 0.34816 0.37161 0.29925 0.0
H254 H 0.39957 0.34556 0.30045 0.0
H255 H 0.36291 0.37622 0.40856 0.0
H256 H 0.41088 0.3498 0.9392 0.0
H257 H 0.31091 0.40202 0.09088 0.0
H258 H 0.39903 0.36703 0.8463 0.0
H259 H 0.30046 0.37636 0.02508 0.0
O260 O 0.39823 0.38178 0.13485 0.0
H261 H 0.35219 0.43528 0.32881 0.0
H262 H 0.40108 0.39214 0.34625 0.0
H263 H 0.40414 0.42209 0.39504 0.0
H264 H 0.37957 0.44388 0.38647 0.0
H265 H 0.34974 0.40524 0.28034 0.0
H266 H 0.37227 0.36116 0.50889 0.0
H267 H 0.39573 0.33805 0.5048 0.0
O268 O 0.39821 0.37523 0.24126 0.0
C269 C 0.37208 0.34399 0.17127 0.0
C270 C 0.39924 0.34036 0.40207 0.0
C271 C 0.37836 0.35768 0.46338 0.0
N272 N 0.38082 0.36189 0.34887 0.0
C273 C 0.39365 0.34911 0.34611 0.0
C274 C 0.3731 0.36614 0.40643 0.0
C275 C 0.39154 0.34472 0.46105 0.0
C276 C 0.33767 0.39252 0.09434 0.0
N277 N 0.34919 0.37939 0.07639 0.0
C278 C 0.31999 0.39164 0.07621 0.0
C279 C 0.31413 0.37722 0.03938 0.0
C280 C 0.32597 0.36391 0.02112 0.0
C281 C 0.34355 0.36521 0.04025 0.0
C282 C 0.38139 0.38257 0.90507 0.0
C283 C 0.39451 0.36334 0.0087 0.0
C284 C 0.37535 0.38567 0.96775 0.0
N285 N 0.38184 0.37602 0.01849 0.0
C286 C 0.40087 0.35988 0.9467 0.0
C287 C 0.39423 0.36957 0.89461 0.0
C288 C 0.40601 0.37887 0.18836 0.0
C289 C 0.36297 0.42588 0.33304 0.0
C290 C 0.39034 0.40156 0.34229 0.0
C291 C 0.39214 0.41848 0.37009 0.0
C292 C 0.37834 0.4307 0.3653 0.0
N293 N 0.3752 0.39692 0.31079 0.0
C294 C 0.36162 0.40882 0.30594 0.0
Co295 Co 0.37235 0.64162 0.98662 0.0
Co296 Co 0.39601 0.63236 0.84793 0.0
O297 O 0.37704 0.64428 0.89449 0.0
C298 C 0.33994 0.63019 0.9217 0.0
O299 O 0.35013 0.62076 0.88353 0.0
C300 C 0.40145 0.67084 0.82796 0.0
O301 O 0.39809 0.67277 0.88966 0.0
O302 O 0.41324 0.6387 0.91606 0.0
O303 O 0.39797 0.64348 0.00743 0.0
H304 H 0.44839 0.59183 0.82497 0.0
H305 H 0.35301 0.66915 0.91167 0.0
O306 O 0.34664 0.63949 0.96703 0.0
H307 H 0.38511 0.70242 0.08018 0.0
H308 H 0.33788 0.65258 0.19017 0.0
H309 H 0.38877 0.62146 0.09429 0.0
H310 H 0.38722 0.66953 0.07384 0.0
H311 H 0.34471 0.65598 0.07439 0.0
O312 O 0.40148 0.65535 0.80231 0.0
H313 H 0.42411 0.60663 0.88326 0.0
H314 H 0.40865 0.63355 0.71182 0.0
H315 H 0.38251 0.6178 0.21037 0.0
H316 H 0.35038 0.70201 0.91667 0.0
H317 H 0.3569 0.63343 0.25902 0.0
H318 H 0.36656 0.71887 0.00124 0.0
O319 O 0.37464 0.6152 0.98112 0.0
H320 H 0.34667 0.64462 0.69261 0.0
H321 H 0.387 0.59868 0.77817 0.0
H322 H 0.36504 0.59031 0.69584 0.0
H323 H 0.34468 0.61338 0.6525 0.0
H324 H 0.36875 0.65238 0.77531 0.0
H325 H 0.43284 0.61916 0.65175 0.0
H326 H 0.45287 0.59808 0.70835 0.0
O327 O 0.39095 0.60929 0.89311 0.0
C328 C 0.41239 0.64219 0.97623 0.0
C329 C 0.43971 0.60094 0.79971 0.0
C330 C 0.431 0.6163 0.70251 0.0
N331 N 0.41489 0.6208 0.80081 0.0
C332 C 0.42591 0.60931 0.83241 0.0
C333 C 0.41734 0.62443 0.73679 0.0
C334 C 0.44223 0.60447 0.7343 0.0
C335 C 0.35993 0.67637 0.94907 0.0
N336 N 0.37017 0.66743 0.99264 0.0
C337 C 0.35845 0.69498 0.95149 0.0
C338 C 0.36756 0.70444 0.99888 0.0
C339 C 0.37798 0.69522 0.04314 0.0
C340 C 0.37916 0.6766 0.03923 0.0
C341 C 0.3491 0.64574 0.16957 0.0
C342 C 0.37768 0.62841 0.11523 0.0
C343 C 0.35301 0.64759 0.10404 0.0
N344 N 0.36722 0.63907 0.07781 0.0
C345 C 0.37417 0.62623 0.18093 0.0
C346 C 0.35978 0.63499 0.20818 0.0
C347 C 0.38255 0.60438 0.94343 0.0
C348 C 0.3555 0.63447 0.71098 0.0
C349 C 0.37818 0.60879 0.75956 0.0
C350 C 0.36579 0.60398 0.71289 0.0
C351 C 0.35438 0.61693 0.68856 0.0
N352 N 0.37922 0.62603 0.78123 0.0
C353 C 0.36808 0.6388 0.75759 0.0
Co354 Co 0.62078 0.61806 0.08675 0.0
Co355 Co 0.62042 0.62262 0.25272 0.0
O356 O 0.62811 0.61115 0.17313 0.0
C357 C 0.61029 0.58032 0.0982 0.0
O358 O 0.60259 0.58474 0.1526 0.0
C359 C 0.65856 0.62708 0.24811 0.0
O360 O 0.656 0.6322 0.1883 0.0
O361 O 0.62385 0.64693 0.21589 0.0
O362 O 0.62333 0.64397 0.10794 0.0
H363 H 0.58612 0.66629 0.38751 0.0
H364 H 0.64981 0.59192 0.10367 0.0
O365 O 0.61809 0.59216 0.06447 0.0
H366 H 0.6757 0.64231 0.98289 0.0
H367 H 0.61879 0.61159 0.84504 0.0
H368 H 0.59717 0.64584 0.03235 0.0
H369 H 0.64434 0.64268 0.01359 0.0
H370 H 0.62833 0.60379 0.95538 0.0
O371 O 0.64548 0.62272 0.28334 0.0
H372 H 0.59551 0.65174 0.28635 0.0
H373 H 0.63002 0.6177 0.3909 0.0
H374 H 0.58738 0.65419 0.92286 0.0
H375 H 0.68118 0.59095 0.07351 0.0
H376 H 0.59822 0.637 0.82826 0.0
H377 H 0.69434 0.61631 0.01292 0.0
O378 O 0.59577 0.61915 0.11411 0.0
H379 H 0.63736 0.55905 0.30168 0.0
H380 H 0.59117 0.60498 0.32426 0.0
H381 H 0.5861 0.57472 0.368 0.0
H382 H 0.60931 0.55152 0.35685 0.0
H383 H 0.64183 0.58945 0.25832 0.0
H384 H 0.62112 0.63198 0.4932 0.0
H385 H 0.59896 0.65641 0.49189 0.0
O386 O 0.59546 0.62295 0.22199 0.0
C387 C 0.62431 0.65345 0.15903 0.0
C388 C 0.59573 0.65561 0.38873 0.0
C389 C 0.6154 0.63637 0.44804 0.0
N390 N 0.61317 0.63378 0.33285 0.0
C391 C 0.60106 0.64729 0.33164 0.0
C392 C 0.62041 0.62836 0.38999 0.0
C393 C 0.60296 0.65008 0.44727 0.0
C394 C 0.65538 0.60291 0.07663 0.0
N395 N 0.64523 0.61729 0.06005 0.0
C396 C 0.67318 0.60233 0.05996 0.0
C397 C 0.68056 0.61657 0.02605 0.0
C398 C 0.67011 0.63117 0.00922 0.0
C399 C 0.65237 0.63131 0.0268 0.0
C400 C 0.61401 0.61921 0.88586 0.0
C401 C 0.60203 0.63838 0.99138 0.0
C402 C 0.61935 0.61483 0.94843 0.0
N403 N 0.61343 0.62445 1.00014 0.0
C404 C 0.5964 0.64313 0.92952 0.0
C405 C 0.60247 0.63347 0.87648 0.0
C406 C 0.58771 0.6216 0.16746 0.0
C407 C 0.62717 0.56906 0.30701 0.0
C408 C 0.60132 0.59495 0.3192 0.0
C409 C 0.59839 0.57785 0.34413 0.0
C410 C 0.61142 0.56484 0.33789 0.0
N411 N 0.61682 0.599 0.28913 0.0
C412 C 0.62965 0.58632 0.28278 0.0
Co413 Co 0.62027 0.35815 0.97496 0.0
Co414 Co 0.59675 0.36532 0.83489 0.0
O415 O 0.61525 0.35356 0.88422 0.0
C416 C 0.65344 0.36511 0.90799 0.0
O417 O 0.64408 0.37459 0.86719 0.0
C418 C 0.58936 0.32695 0.82172 0.0
O419 O 0.5906 0.32612 0.88485 0.0
O420 O 0.57924 0.36015 0.90326 0.0
O421 O 0.59465 0.35941 0.99611 0.0
H422 H 0.54495 0.40612 0.80248 0.0
H423 H 0.63661 0.32702 0.90963 0.0
O424 O 0.64599 0.35728 0.95524 0.0
H425 H 0.60169 0.3016 0.08799 0.0
H426 H 0.65375 0.34906 0.18203 0.0
H427 H 0.60636 0.3829 0.07453 0.0
H428 H 0.60302 0.33425 0.07131 0.0
H429 H 0.64638 0.3433 0.06789 0.0
O430 O 0.59124 0.34188 0.79284 0.0
H431 H 0.56875 0.39169 0.86457 0.0
H432 H 0.58475 0.36275 0.69827 0.0
H433 H 0.61317 0.38899 0.18888 0.0
H434 H 0.63573 0.2943 0.92479 0.0
H435 H 0.63702 0.372 0.24337 0.0
H436 H 0.61812 0.28139 0.01438 0.0
O437 O 0.62042 0.38436 0.96003 0.0
H438 H 0.64622 0.35026 0.68344 0.0
H439 H 0.60669 0.398 0.76077 0.0
H440 H 0.62903 0.40496 0.67814 0.0
H441 H 0.64897 0.38099 0.63891 0.0
H442 H 0.6238 0.34392 0.76641 0.0
H443 H 0.56104 0.37676 0.63443 0.0
H444 H 0.54099 0.39867 0.68652 0.0
O445 O 0.60197 0.3889 0.8766 0.0
C446 C 0.58022 0.35935 0.96462 0.0
C447 C 0.55365 0.39665 0.77916 0.0
C448 C 0.56267 0.38016 0.68486 0.0
N449 N 0.57824 0.37656 0.78486 0.0
C450 C 0.56719 0.38849 0.81401 0.0
C451 C 0.57605 0.37225 0.72125 0.0
C452 C 0.55142 0.39245 0.71412 0.0
C453 C 0.62908 0.32151 0.94914 0.0
N454 N 0.61996 0.33253 0.98976 0.0
C455 C 0.62856 0.30297 0.95731 0.0
C456 C 0.61866 0.29573 0.00753 0.0
C457 C 0.60942 0.30706 0.04883 0.0
C458 C 0.61021 0.32554 0.03909 0.0
C459 C 0.64328 0.3565 0.1589 0.0
C460 C 0.61664 0.37534 0.09811 0.0
C461 C 0.63907 0.35331 0.09429 0.0
N462 N 0.6258 0.36259 0.06491 0.0
C463 C 0.62049 0.3789 0.16277 0.0
C464 C 0.63389 0.36937 0.19329 0.0
C465 C 0.61178 0.39458 0.92229 0.0
C466 C 0.63757 0.36081 0.7 0.0
C467 C 0.61535 0.3875 0.74402 0.0
C468 C 0.62794 0.39152 0.69714 0.0
C469 C 0.63912 0.37806 0.67511 0.0
N470 N 0.61389 0.37054 0.76815 0.0
C471 C 0.62479 0.35727 0.74675 0.0
Co472 Co 0.87182 0.61605 0.65601 0.0
Co473 Co 0.87298 0.62191 0.49069 0.0
O474 O 0.86463 0.61007 0.56861 0.0
C475 C 0.88095 0.57805 0.64134 0.0
O476 O 0.88904 0.58265 0.58789 0.0
C477 C 0.83493 0.62717 0.49303 0.0
O478 O 0.83731 0.63215 0.55309 0.0
O479 O 0.86983 0.64597 0.52957 0.0
O480 O 0.87042 0.64224 0.63722 0.0
H481 H 0.90855 0.66604 0.36247 0.0
H482 H 0.84185 0.5913 0.63486 0.0
O483 O 0.87337 0.58988 0.67583 0.0
H484 H 0.81743 0.64186 0.7587 0.0
H485 H 0.87234 0.60771 0.89706 0.0
H486 H 0.89629 0.64237 0.71455 0.0
H487 H 0.84892 0.6411 0.73007 0.0
H488 H 0.86306 0.60113 0.7854 0.0
O489 O 0.84809 0.62268 0.45844 0.0
H490 H 0.89838 0.65095 0.46157 0.0
H491 H 0.86411 0.61806 0.3514 0.0
H492 H 0.90584 0.64949 0.82543 0.0
H493 H 0.81031 0.59146 0.66284 0.0
H494 H 0.89384 0.63209 0.91762 0.0
H495 H 0.79789 0.61691 0.72497 0.0
O496 O 0.89698 0.61623 0.63021 0.0
H497 H 0.8551 0.55908 0.43451 0.0
H498 H 0.90227 0.6042 0.41966 0.0
H499 H 0.90699 0.57417 0.3734 0.0
H500 H 0.88329 0.55138 0.38064 0.0
H501 H 0.85098 0.58923 0.48047 0.0
H502 H 0.8738 0.6329 0.25108 0.0
H503 H 0.89623 0.65702 0.25626 0.0
O504 O 0.89778 0.62154 0.52313 0.0
C505 C 0.86965 0.6521 0.58699 0.0
C506 C 0.89883 0.65549 0.35955 0.0
C507 C 0.8793 0.63691 0.29705 0.0
N508 N 0.88083 0.6335 0.41212 0.0
C509 C 0.89307 0.64685 0.41547 0.0
C510 C 0.87385 0.62857 0.35398 0.0
C511 C 0.89189 0.65044 0.29999 0.0
C512 C 0.83659 0.60232 0.66257 0.0
N513 N 0.84724 0.61612 0.68114 0.0
C514 C 0.8187 0.60237 0.67801 0.0
C515 C 0.81174 0.61667 0.71278 0.0
C516 C 0.82269 0.63068 0.73168 0.0
C517 C 0.84051 0.63019 0.71526 0.0
C518 C 0.87763 0.61541 0.85731 0.0
C519 C 0.89092 0.63482 0.75447 0.0
C520 C 0.87245 0.61173 0.794 0.0
N521 N 0.87901 0.62147 0.74364 0.0
C522 C 0.89642 0.63888 0.81712 0.0
C523 C 0.88969 0.6291 0.86881 0.0
C524 C 0.90528 0.61911 0.57765 0.0
C525 C 0.8655 0.56892 0.43087 0.0
C526 C 0.8919 0.59434 0.42303 0.0
C527 C 0.89464 0.57737 0.39668 0.0
C528 C 0.88133 0.5646 0.40073 0.0
N529 N 0.87632 0.59849 0.45236 0.0
C530 C 0.86322 0.58603 0.45657 0.0
Co531 Co 0.61945 0.14103 0.27172 0.0
Co532 Co 0.59558 0.13123 0.40915 0.0
O533 O 0.61435 0.14364 0.36346 0.0
C534 C 0.65198 0.13074 0.33794 0.0
O535 O 0.64199 0.12088 0.37539 0.0
C536 C 0.58842 0.16941 0.42987 0.0
O537 O 0.59033 0.17135 0.3673 0.0
O538 O 0.57831 0.13737 0.34062 0.0
O539 O 0.59392 0.14191 0.24981 0.0
H540 H 0.54392 0.0897 0.43025 0.0
H541 H 0.63726 0.16934 0.34788 0.0
O542 O 0.64513 0.13989 0.29252 0.0
H543 H 0.60454 0.20123 0.17744 0.0
H544 H 0.65417 0.15322 0.06964 0.0
H545 H 0.60419 0.12017 0.16354 0.0
H546 H 0.60396 0.16827 0.1832 0.0
H547 H 0.64683 0.1564 0.18509 0.0
O548 O 0.58982 0.15398 0.45544 0.0
H549 H 0.56796 0.1051 0.37267 0.0
H550 H 0.58282 0.13185 0.54513 0.0
H551 H 0.61097 0.11669 0.04778 0.0
H552 H 0.63828 0.20231 0.34368 0.0
H553 H 0.63612 0.1333 1.00012 0.0
H554 H 0.62179 0.21847 0.25812 0.0
O555 O 0.61808 0.1145 0.2774 0.0
H556 H 0.64451 0.14396 0.5658 0.0
H557 H 0.60511 0.09754 0.47796 0.0
H558 H 0.62712 0.08934 0.56033 0.0
H559 H 0.64701 0.11264 0.60483 0.0
H560 H 0.6224 0.15155 0.483 0.0
H561 H 0.55885 0.11684 0.6045 0.0
H562 H 0.53925 0.09554 0.54703 0.0
O563 O 0.60107 0.1084 0.36344 0.0
C564 C 0.57939 0.14056 0.28024 0.0
C565 C 0.55241 0.0989 0.45588 0.0
C566 C 0.56078 0.11416 0.55366 0.0
N567 N 0.57686 0.11923 0.45565 0.0
C568 C 0.56607 0.10762 0.42358 0.0
C569 C 0.5743 0.12264 0.51978 0.0
C570 C 0.54979 0.1022 0.52138 0.0
C571 C 0.6302 0.17627 0.3101 0.0
N572 N 0.62065 0.16689 0.26561 0.0
C573 C 0.63077 0.19494 0.30813 0.0
C574 C 0.62149 0.204 0.26017 0.0
C575 C 0.6118 0.19434 0.21491 0.0
C576 C 0.61151 0.17568 0.21845 0.0
C577 C 0.64315 0.14595 0.08981 0.0
C578 C 0.61508 0.12753 0.14303 0.0
C579 C 0.63895 0.14767 0.15514 0.0
N580 N 0.62499 0.13861 0.18082 0.0
C581 C 0.61889 0.12547 0.07752 0.0
C582 C 0.63301 0.13477 0.05083 0.0
C583 C 0.60996 0.10358 0.3142 0.0
C584 C 0.63588 0.1337 0.54692 0.0
C585 C 0.61373 0.10775 0.49704 0.0
C586 C 0.62615 0.10303 0.54375 0.0
C587 C 0.6373 0.11612 0.56873 0.0
N588 N 0.61241 0.12502 0.47593 0.0
C589 C 0.62328 0.13793 0.50024 0.0
Co590 Co 0.12049 0.38027 0.65951 0.0
Co591 Co 0.12056 0.37279 0.49492 0.0
O592 O 0.12812 0.38563 0.57201 0.0
C593 C 0.11029 0.41783 0.6398 0.0
O594 O 0.10278 0.41264 0.58592 0.0
C595 C 0.15865 0.36843 0.50109 0.0
O596 O 0.1561 0.36427 0.56185 0.0
O597 O 0.12402 0.3492 0.53727 0.0
O598 O 0.12281 0.35401 0.64425 0.0
H599 H 0.08685 0.32652 0.36973 0.0
H600 H 0.14986 0.40572 0.63808 0.0
O601 O 0.11803 0.40652 0.67603 0.0
H602 H 0.17485 0.35717 0.77075 0.0
H603 H 0.11803 0.39078 0.8993 0.0
H604 H 0.0964 0.35377 0.7189 0.0
H605 H 0.14357 0.35665 0.73893 0.0
H606 H 0.1279 0.39664 0.78782 0.0
O607 O 0.1456 0.37223 0.46494 0.0
H608 H 0.09603 0.34286 0.46757 0.0
H609 H 0.13021 0.37545 0.35599 0.0
H610 H 0.08628 0.34736 0.82966 0.0
H611 H 0.18118 0.40683 0.66921 0.0
H612 H 0.09712 0.36594 0.92078 0.0
H613 H 0.19388 0.38239 0.7358 0.0
O614 O 0.09554 0.37916 0.6314 0.0
H615 H 0.13745 0.43539 0.43179 0.0
H616 H 0.09138 0.38907 0.41885 0.0
H617 H 0.08632 0.41849 0.36808 0.0
H618 H 0.10948 0.44188 0.37433 0.0
H619 H 0.1419 0.40584 0.48226 0.0
H620 H 0.12152 0.35937 0.25695 0.0
H621 H 0.09963 0.33475 0.26346 0.0
O622 O 0.0956 0.37296 0.52491 0.0
C623 C 0.12416 0.34368 0.59549 0.0
C624 C 0.09634 0.33727 0.36622 0.0
C625 C 0.11582 0.35569 0.30294 0.0
N626 N 0.11348 0.36022 0.41731 0.0
C627 C 0.10153 0.34661 0.42141 0.0
C628 C 0.12071 0.36473 0.35916 0.0
C629 C 0.10353 0.34188 0.30663 0.0
C630 C 0.15525 0.39514 0.66768 0.0
N631 N 0.14488 0.38119 0.68696 0.0
C632 C 0.173 0.3958 0.68491 0.0
C633 C 0.18013 0.38207 0.72219 0.0
C634 C 0.16946 0.36791 0.74178 0.0
C635 C 0.15177 0.36767 0.72354 0.0
C636 C 0.11324 0.38257 0.86002 0.0
C637 C 0.10126 0.36183 0.75838 0.0
C638 C 0.11876 0.38584 0.79681 0.0
N639 N 0.11285 0.37545 0.74705 0.0
C640 C 0.09545 0.35818 0.82095 0.0
C641 C 0.10152 0.36862 0.87204 0.0
C642 C 0.08768 0.37573 0.57833 0.0
C643 C 0.12729 0.42529 0.42857 0.0
C644 C 0.1015 0.3992 0.42184 0.0
C645 C 0.09858 0.41581 0.39292 0.0
C646 C 0.11158 0.42893 0.39641 0.0
N647 N 0.11696 0.39572 0.45314 0.0
C648 C 0.12976 0.40851 0.45683 0.0
Co649 Co 0.37247 0.85648 0.26068 0.0
Co650 Co 0.39653 0.86389 0.40001 0.0
O651 O 0.3772 0.85285 0.35241 0.0
C652 C 0.34033 0.8681 0.32698 0.0
O653 O 0.35069 0.87688 0.3665 0.0
C654 C 0.40114 0.82511 0.41592 0.0
O655 O 0.3974 0.82363 0.35434 0.0
O656 O 0.41352 0.85774 0.33089 0.0
O657 O 0.398 0.8542 0.23934 0.0
H658 H 0.44982 0.90296 0.42663 0.0
H659 H 0.35259 0.82876 0.33262 0.0
O660 O 0.34684 0.85904 0.2807 0.0
H661 H 0.38377 0.79627 0.15994 0.0
H662 H 0.33761 0.84816 0.05627 0.0
H663 H 0.38925 0.87722 0.15529 0.0
H664 H 0.38661 0.82903 0.16998 0.0
H665 H 0.34444 0.84357 0.17153 0.0
O666 O 0.40158 0.84041 0.4429 0.0
H667 H 0.42515 0.88924 0.36711 0.0
H668 H 0.4093 0.86124 0.53574 0.0
H669 H 0.38299 0.88207 0.03975 0.0
H670 H 0.34926 0.79602 0.32398 0.0
H671 H 0.357 0.86748 0.98952 0.0
H672 H 0.36497 0.77955 0.23728 0.0
O673 O 0.37535 0.88279 0.2693 0.0
H674 H 0.34713 0.85138 0.55469 0.0
H675 H 0.38835 0.89713 0.47378 0.0
H676 H 0.36668 0.90527 0.55735 0.0
H677 H 0.34588 0.8823 0.59837 0.0
H678 H 0.36893 0.84386 0.47079 0.0
H679 H 0.43388 0.87455 0.597 0.0
H680 H 0.4543 0.89563 0.54243 0.0
O681 O 0.39192 0.88744 0.35769 0.0
C682 C 0.41249 0.85481 0.27037 0.0
C683 C 0.44098 0.89384 0.451 0.0
C684 C 0.43204 0.87788 0.5466 0.0
N685 N 0.41572 0.87459 0.44809 0.0
C686 C 0.42695 0.88608 0.4176 0.0
C687 C 0.41817 0.87036 0.51165 0.0
C688 C 0.44349 0.88971 0.51596 0.0
C689 C 0.35931 0.82171 0.29432 0.0
N690 N 0.3697 0.8308 0.25165 0.0
C691 C 0.35744 0.80317 0.28984 0.0
C692 C 0.36628 0.79393 0.24126 0.0
C693 C 0.37684 0.8033 0.19788 0.0
C694 C 0.37843 0.82184 0.20389 0.0
C695 C 0.34899 0.85456 0.07756 0.0
C696 C 0.37799 0.87073 0.13365 0.0
C697 C 0.35291 0.85203 0.14281 0.0
N698 N 0.36732 0.85999 0.1699 0.0
C699 C 0.37447 0.87357 0.06827 0.0
C700 C 0.35988 0.8654 0.04013 0.0
C701 C 0.38355 0.89305 0.30823 0.0
C702 C 0.35616 0.86149 0.53735 0.0
C703 C 0.37934 0.88706 0.49135 0.0
C704 C 0.36711 0.89175 0.53875 0.0
C705 C 0.35545 0.87885 0.56177 0.0
N706 N 0.37997 0.87001 0.46771 0.0
C707 C 0.36858 0.85729 0.49006 0.0
Co708 Co 0.87268 0.87868 0.59135 0.0
Co709 Co 0.87261 0.87374 0.7572 0.0
O710 O 0.8647 0.88505 0.67753 0.0
C711 C 0.881 0.9168 0.60564 0.0
O712 O 0.88785 0.91248 0.66168 0.0
C713 C 0.83455 0.86834 0.75235 0.0
O714 O 0.83715 0.86311 0.69268 0.0
O715 O 0.8698 0.84944 0.71986 0.0
O716 O 0.87123 0.85261 0.61205 0.0
H717 H 0.90748 0.83053 0.89211 0.0
H718 H 0.84242 0.90336 0.60717 0.0
O719 O 0.87434 0.90473 0.56967 0.0
H720 H 0.81932 0.85197 0.48428 0.0
H721 H 0.87519 0.88561 0.34988 0.0
H722 H 0.89772 0.85215 0.53773 0.0
H723 H 0.85055 0.85307 0.51656 0.0
H724 H 0.86494 0.8928 0.45987 0.0
O725 O 0.84756 0.87303 0.78735 0.0
H726 H 0.89789 0.84496 0.79092 0.0
H727 H 0.86287 0.87845 0.89533 0.0
H728 H 0.90823 0.84441 0.42858 0.0
H729 H 0.81113 0.90287 0.57547 0.0
H730 H 0.89694 0.8612 0.33372 0.0
H731 H 0.79938 0.877 0.5138 0.0
O732 O 0.8976 0.8789 0.61987 0.0
H733 H 0.85409 0.93684 0.80616 0.0
H734 H 0.90134 0.89207 0.82949 0.0
H735 H 0.90565 0.92246 0.87317 0.0
H736 H 0.88192 0.94508 0.86159 0.0
H737 H 0.85037 0.90634 0.76284 0.0
H738 H 0.87197 0.86429 0.99767 0.0
H739 H 0.89449 0.8402 0.99645 0.0
O740 O 0.89763 0.87408 0.72724 0.0
C741 C 0.87003 0.84302 0.66285 0.0
C742 C 0.89772 0.84107 0.8933 0.0
C743 C 0.87777 0.86 0.95254 0.0
N744 N 0.88 0.86267 0.83737 0.0
C745 C 0.89229 0.84934 0.8362 0.0
C746 C 0.87265 0.86795 0.89447 0.0
C747 C 0.89041 0.84649 0.95182 0.0
C748 C 0.83745 0.89215 0.57969 0.0
N749 N 0.84832 0.87831 0.56341 0.0
C750 C 0.8197 0.89191 0.56214 0.0
C751 C 0.81311 0.87738 0.52762 0.0
C752 C 0.82429 0.86332 0.51109 0.0
C753 C 0.84195 0.86401 0.52957 0.0
C754 C 0.88018 0.87817 0.39081 0.0
C755 C 0.89267 0.85943 0.49663 0.0
C756 C 0.87445 0.8822 0.45318 0.0
N757 N 0.88062 0.87279 0.50503 0.0
C758 C 0.8987 0.85503 0.43497 0.0
C759 C 0.89238 0.86447 0.38178 0.0
C760 C 0.90551 0.87639 0.67345 0.0
C761 C 0.8645 0.92708 0.81168 0.0
C762 C 0.89095 0.90184 0.82428 0.0
C763 C 0.89346 0.91902 0.84918 0.0
C764 C 0.88013 0.9317 0.8427 0.0
N765 N 0.87558 0.89741 0.79399 0.0
C766 C 0.86244 0.90977 0.78751 0.0
Co767 Co 0.87288 0.13984 0.4776 0.0
Co768 Co 0.8949 0.13036 0.33567 0.0
O769 O 0.87716 0.14309 0.38559 0.0
C770 C 0.8395 0.13085 0.4146 0.0
O771 O 0.84895 0.1215 0.37372 0.0
C772 C 0.90372 0.16842 0.32135 0.0
O773 O 0.90217 0.16957 0.3843 0.0
O774 O 0.91301 0.13445 0.40327 0.0
O775 O 0.89863 0.14001 0.49604 0.0
H776 H 0.94396 0.08633 0.30092 0.0
H777 H 0.85498 0.1691 0.40663 0.0
O778 O 0.84697 0.13934 0.46035 0.0
H779 H 0.88986 0.19893 0.57606 0.0
H780 H 0.84038 0.15092 0.68539 0.0
H781 H 0.88887 0.11787 0.58148 0.0
H782 H 0.88969 0.16603 0.56697 0.0
H783 H 0.84666 0.15497 0.56945 0.0
O784 O 0.90155 0.15344 0.29315 0.0
H785 H 0.92124 0.10213 0.36398 0.0
H786 H 0.90672 0.13238 0.19875 0.0
H787 H 0.88315 0.11352 0.69764 0.0
H788 H 0.8547 0.20204 0.41419 0.0
H789 H 0.85875 0.13012 0.75032 0.0
H790 H 0.87228 0.21716 0.49925 0.0
O791 O 0.87363 0.11334 0.46902 0.0
H792 H 0.8457 0.14811 0.18665 0.0
H793 H 0.88301 0.09831 0.26194 0.0
H794 H 0.86005 0.09258 0.18033 0.0
H795 H 0.84121 0.1176 0.14214 0.0
H796 H 0.86873 0.15322 0.26854 0.0
H797 H 0.92938 0.117 0.13399 0.0
H798 H 0.94814 0.09375 0.18505 0.0
O799 O 0.88853 0.10726 0.37782 0.0
C800 C 0.91272 0.13763 0.46377 0.0
C801 C 0.93582 0.09639 0.27806 0.0
C802 C 0.92766 0.11363 0.1844 0.0
N803 N 0.91258 0.11805 0.28492 0.0
C804 C 0.9229 0.10534 0.31347 0.0
C805 C 0.91488 0.12231 0.22133 0.0
C806 C 0.93818 0.10058 0.21307 0.0
C807 C 0.86252 0.17558 0.44418 0.0
N808 N 0.87226 0.16566 0.48652 0.0
C809 C 0.86237 0.19424 0.44806 0.0
C810 C 0.87226 0.20272 0.49574 0.0
C811 C 0.88213 0.1925 0.53883 0.0
C812 C 0.882 0.17387 0.5334 0.0
C813 C 0.85108 0.14364 0.66302 0.0
C814 C 0.87831 0.12523 0.60419 0.0
C815 C 0.85467 0.14586 0.59739 0.0
N816 N 0.86821 0.13678 0.56892 0.0
C817 C 0.87509 0.12267 0.66991 0.0
C818 C 0.86139 0.13198 0.69943 0.0
C819 C 0.88041 0.1024 0.42881 0.0
C820 C 0.85386 0.13711 0.20277 0.0
C821 C 0.87485 0.10926 0.2456 0.0
C822 C 0.86189 0.10594 0.19932 0.0
C823 C 0.85133 0.11998 0.17788 0.0
N824 N 0.87727 0.1261 0.26971 0.0
C825 C 0.86697 0.13994 0.24892 0.0
Co826 Co 0.12207 0.11911 0.58863 0.0
Co827 Co 0.12018 0.12151 0.75516 0.0
O828 O 0.12823 0.11077 0.6747 0.0
C829 C 0.1095 0.08203 0.59525 0.0
O830 O 0.10259 0.08638 0.65111 0.0
C831 C 0.15853 0.12443 0.75618 0.0
O832 O 0.1569 0.13004 0.69649 0.0
O833 O 0.12474 0.14612 0.72257 0.0
O834 O 0.12616 0.14448 0.6143 0.0
H835 H 0.08611 0.16475 0.89249 0.0
H836 H 0.14909 0.09079 0.60455 0.0
O837 O 0.11772 0.09371 0.56215 0.0
H838 H 0.17937 0.14054 0.49452 0.0
H839 H 0.12173 0.11544 0.34607 0.0
H840 H 0.10109 0.14924 0.53592 0.0
H841 H 0.14787 0.1428 0.52201 0.0
H842 H 0.12967 0.10571 0.45612 0.0
O843 O 0.14489 0.12039 0.7889 0.0
H844 H 0.09594 0.15105 0.79033 0.0
H845 H 0.12831 0.11461 0.89356 0.0
H846 H 0.09295 0.15951 0.42677 0.0
H847 H 0.18057 0.08792 0.57755 0.0
H848 H 0.10329 0.14256 0.33089 0.0
H849 H 0.19593 0.11294 0.52235 0.0
O850 O 0.09695 0.12163 0.61318 0.0
H851 H 0.13457 0.0568 0.79471 0.0
H852 H 0.08984 0.10404 0.82092 0.0
H853 H 0.08336 0.07341 0.85842 0.0
H854 H 0.10583 0.04955 0.84535 0.0
H855 H 0.14045 0.08758 0.75753 0.0
H856 H 0.11895 0.128 0.99686 0.0
H857 H 0.09765 0.15321 0.99672 0.0
O858 O 0.09556 0.12299 0.7217 0.0
C859 C 0.12659 0.15327 0.66707 0.0
C860 C 0.09535 0.15372 0.8932 0.0
C861 C 0.1138 0.13312 0.95177 0.0
N862 N 0.11256 0.13195 0.83608 0.0
C863 C 0.10091 0.14588 0.83552 0.0
C864 C 0.11908 0.12561 0.89315 0.0
C865 C 0.10184 0.14726 0.95166 0.0
C866 C 0.15564 0.10165 0.57987 0.0
N867 N 0.14663 0.11689 0.56449 0.0
C868 C 0.17348 0.09999 0.56498 0.0
C869 C 0.1821 0.11404 0.53409 0.0
C870 C 0.17281 0.12953 0.51849 0.0
C871 C 0.15499 0.13074 0.53424 0.0
C872 C 0.11717 0.12295 0.38746 0.0
C873 C 0.10573 0.14186 0.49442 0.0
C874 C 0.12159 0.11749 0.44987 0.0
N875 N 0.11596 0.12698 0.50232 0.0
C876 C 0.10104 0.14771 0.43275 0.0
C877 C 0.10683 0.13818 0.37898 0.0
C878 C 0.08841 0.12326 0.6659 0.0
C879 C 0.1247 0.0671 0.80083 0.0
C880 C 0.09967 0.09372 0.81507 0.0
C881 C 0.09594 0.07641 0.83647 0.0
C882 C 0.10856 0.06303 0.82916 0.0
N883 N 0.11554 0.09761 0.78736 0.0
C884 C 0.12798 0.08457 0.78012 0.0
Co885 Co 0.12062 0.85936 0.48575 0.0
Co886 Co 0.09737 0.86592 0.34435 0.0
O887 O 0.11622 0.855 0.39441 0.0
C888 C 0.1532 0.86976 0.42018 0.0
O889 O 0.14309 0.87864 0.38003 0.0
C890 C 0.09162 0.82721 0.33181 0.0
O891 O 0.09318 0.82641 0.39485 0.0
O892 O 0.07985 0.86035 0.41259 0.0
O893 O 0.09496 0.85795 0.50565 0.0
H894 H 0.04453 0.90513 0.3091 0.0
H895 H 0.13989 0.83046 0.41778 0.0
O896 O 0.1464 0.86107 0.46685 0.0
H897 H 0.10712 0.8004 0.59222 0.0
H898 H 0.15436 0.85193 0.69308 0.0
H899 H 0.10399 0.88155 0.58758 0.0
H900 H 0.10545 0.83315 0.57891 0.0
H901 H 0.14789 0.84649 0.57801 0.0
O902 O 0.0927 0.84221 0.3029 0.0
H903 H 0.06865 0.89163 0.37226 0.0
H904 H 0.08559 0.86246 0.20771 0.0
H905 H 0.10989 0.88726 0.70286 0.0
H906 H 0.14201 0.79769 0.42957 0.0
H907 H 0.13524 0.87239 0.75635 0.0
H908 H 0.1255 0.78244 0.51718 0.0
O909 O 0.11838 0.88565 0.4739 0.0
H910 H 0.14782 0.85226 0.19554 0.0
H911 H 0.10624 0.89866 0.26877 0.0
H912 H 0.12856 0.90621 0.18679 0.0
H913 H 0.14955 0.88291 0.14965 0.0
H914 H 0.12538 0.84533 0.27778 0.0
H915 H 0.06157 0.87553 0.14286 0.0
H916 H 0.04088 0.89709 0.19353 0.0
O917 O 0.10178 0.88969 0.38519 0.0
C918 C 0.08061 0.85824 0.47366 0.0
C919 C 0.0535 0.8958 0.28642 0.0
C920 C 0.06305 0.87917 0.19314 0.0
N921 N 0.07859 0.8764 0.29353 0.0
C922 C 0.06721 0.88816 0.32188 0.0
C923 C 0.0766 0.87179 0.23011 0.0
C924 C 0.05145 0.89127 0.2216 0.0
C925 C 0.13281 0.82394 0.45644 0.0
N926 N 0.12265 0.83371 0.49785 0.0
C927 C 0.134 0.80537 0.4627 0.0
C928 C 0.12471 0.79683 0.51181 0.0
C929 C 0.11439 0.80689 0.55391 0.0
C930 C 0.11348 0.82543 0.54609 0.0
C931 C 0.14325 0.85845 0.67037 0.0
C932 C 0.11497 0.87493 0.61067 0.0
C933 C 0.13954 0.85544 0.60523 0.0
N934 N 0.12547 0.86355 0.57636 0.0
C935 C 0.11828 0.87826 0.67588 0.0
C936 C 0.13251 0.86993 0.70584 0.0
C937 C 0.11019 0.89564 0.43401 0.0
C938 C 0.13871 0.86251 0.21119 0.0
C939 C 0.11534 0.88846 0.25289 0.0
C940 C 0.12793 0.8928 0.20638 0.0
C941 C 0.1397 0.87972 0.18553 0.0
N942 N 0.11445 0.87155 0.2778 0.0
C943 C 0.12593 0.85864 0.25754 0.0
H944 H 0.39912 0.91974 0.37891 0.0
H945 H 0.39875 0.95186 0.35686 0.0
H946 H 0.36745 0.94268 0.18641 0.0
H947 H 0.36752 0.9106 0.20814 0.0
H948 H 0.41118 0.96961 0.24708 0.0
H949 H 0.33978 0.98146 0.28324 0.0
H950 H 0.3507 0.9614 0.31077 0.0
H951 H 0.34463 0.96378 0.22732 0.0
C952 C 0.39205 0.92452 0.33691 0.0
C953 C 0.38326 0.91255 0.29551 0.0
C954 C 0.39188 0.94289 0.3244 0.0
C955 C 0.38286 0.94963 0.27059 0.0
C956 C 0.37418 0.93776 0.22895 0.0
H957 H 0.39476 0.05088 0.07583 0.0
H958 H 0.3952 0.01956 0.10947 0.0
C959 C 0.37433 0.9194 0.24134 0.0
C960 C 0.38297 0.96904 0.25673 0.0
H961 H 0.3561 0.0051 0.23456 0.0
C962 C 0.39916 0.97742 0.24473 0.0
C963 C 0.36728 0.97919 0.25455 0.0
C964 C 0.34962 0.97107 0.27025 0.0
C965 C 0.40004 0.99564 0.22885 0.0
C966 C 0.38428 0.00562 0.224 0.0
C967 C 0.36814 0.99735 0.23772 0.0
C968 C 0.38424 0.02462 0.20411 0.0
C969 C 0.41783 0.00408 0.21785 0.0
C970 C 0.37756 0.03778 0.24569 0.0
C971 C 0.37719 0.05569 0.22653 0.0
C972 C 0.38343 0.06073 0.16525 0.0
C973 C 0.39 0.04748 0.12356 0.0
C974 C 0.39034 0.02957 0.14278 0.0
H975 H 0.42855 0.99608 0.24012 0.0
H976 H 0.42039 0.00488 0.16521 0.0
H977 H 0.41828 0.01785 0.23787 0.0
H978 H 0.37268 0.03417 0.29308 0.0
H979 H 0.372 0.06557 0.2597 0.0
H980 H 0.07425 0.6413 0.65747 0.0
H981 H 0.04612 0.6405 0.59998 0.0
H982 H 0.01841 0.64338 0.78124 0.0
H983 H 0.04632 0.64414 0.83924 0.0
H984 H 0.0202 0.613 0.6219 0.0
H985 H 0.99356 0.681 0.66528 0.0
H986 H 0.01672 0.67579 0.67222 0.0
H987 H 0.00185 0.67034 0.7368 0.0
C988 C 0.06218 0.64206 0.68514 0.0
C989 C 0.06255 0.64271 0.75307 0.0
C990 C 0.04615 0.64159 0.65213 0.0
C991 C 0.03027 0.64207 0.68642 0.0
C992 C 0.03057 0.64331 0.75392 0.0
H993 H 0.92663 0.60788 0.67541 0.0
H994 H 0.95813 0.6133 0.68741 0.0
C995 C 0.04655 0.64364 0.78699 0.0
C996 C 0.0133 0.63962 0.65285 0.0
H997 H 0.97254 0.6582 0.63703 0.0
C998 C 0.00988 0.62302 0.62379 0.0
C999 C -5e-05 0.65276 0.65523 0.0
C1000 C 0.00322 0.67105 0.68353 0.0
C1001 C 0.99301 0.61879 0.60096 0.0
C1002 C 0.97942 0.6315 0.60729 0.0
C1003 C 0.98309 0.6485 0.63252 0.0
C1004 C 0.96092 0.6267 0.59552 0.0
C1005 C 0.98953 0.60052 0.57294 0.0
C1006 C 0.95226 0.63224 0.53927 0.0
C1007 C 0.93424 0.62903 0.53185 0.0
C1008 C 0.92464 0.62052 0.58123 0.0
C1009 C 0.93359 0.61455 0.63664 0.0
C1010 C 0.95158 0.61758 0.64358 0.0
H1011 H 0.00192 0.59318 0.56236 0.0
H1012 H 0.9817 0.59255 0.60784 0.0
H1013 H 0.98171 0.6017 0.52784 0.0
H1014 H 0.95935 0.63936 0.5019 0.0
H1015 H 0.92774 0.63382 0.48865 0.0
H1016 H 0.62154 0.93202 0.25305 0.0
H1017 H 0.62141 0.96351 0.28497 0.0
H1018 H 0.59813 0.97781 0.1022 0.0
H1019 H 0.59801 0.94634 0.07001 0.0
H1020 H 0.63796 0.99234 0.22398 0.0
H1021 H 0.56554 0.00169 0.23462 0.0
H1022 H 0.5757 0.97986 0.23231 0.0
H1023 H 0.57341 0.99275 0.15952 0.0
C1024 C 0.61629 0.94184 0.21974 0.0
C1025 C 0.60966 0.93667 0.15916 0.0
C1026 C 0.61626 0.95982 0.23805 0.0
C1027 C 0.60954 0.97291 0.19629 0.0
C1028 C 0.60305 0.96784 0.13561 0.0
H1029 H 0.6262 0.08752 0.21125 0.0
H1030 H 0.62656 0.05571 0.18427 0.0
C1031 C 0.60305 0.94986 0.11725 0.0
C1032 C 0.60972 0.99195 0.21569 0.0
H1033 H 0.58308 0.02789 0.24307 0.0
C1034 C 0.62598 0.00012 0.2284 0.0
C1035 C 0.59403 0.00195 0.2221 0.0
C1036 C 0.57616 0.99361 0.21203 0.0
C1037 C 0.62699 0.01819 0.24638 0.0
C1038 C 0.61134 0.02834 0.25077 0.0
C1039 C 0.59506 0.02008 0.2391 0.0
C1040 C 0.61151 0.04754 0.26787 0.0
C1041 C 0.64476 0.02618 0.2614 0.0
C1042 C 0.60266 0.05349 0.3232 0.0
C1043 C 0.60232 0.07166 0.33865 0.0
C1044 C 0.61078 0.08426 0.2988 0.0
C1045 C 0.61965 0.07821 0.24331 0.0
C1046 C 0.61995 0.06002 0.22791 0.0
H1047 H 0.65472 0.01569 0.27191 0.0
H1048 H 0.64939 0.03396 0.21906 0.0
H1049 H 0.64397 0.03539 0.30335 0.0
H1050 H 0.59599 0.04405 0.35446 0.0
H1051 H 0.59531 0.07581 0.38163 0.0
H1052 H 0.06611 0.35919 0.49081 0.0
H1053 H 0.03423 0.35471 0.49973 0.0
H1054 H 0.03376 0.38496 0.6769 0.0
H1055 H 0.0655 0.38934 0.6691 0.0
H1056 H 0.01854 0.33779 0.61878 0.0
H1057 H 0.99214 0.40514 0.5606 0.0
H1058 H 0.01325 0.39732 0.53183 0.0
H1059 H 0.01093 0.4051 0.61343 0.0
C1060 C 0.05917 0.36511 0.53117 0.0
C1061 C 0.06832 0.37452 0.57953 0.0
C1062 C 0.04101 0.36252 0.5361 0.0
C1063 C 0.03176 0.36964 0.58861 0.0
C1064 C 0.04073 0.37956 0.63563 0.0
H1065 H 0.94768 0.3526 0.83342 0.0
H1066 H 0.97505 0.35315 0.77196 0.0
C1067 C 0.05886 0.38194 0.63128 0.0
C1068 C 0.01302 0.36549 0.59845 0.0
H1069 H 0.97336 0.38572 0.62191 0.0
C1070 C 0.00852 0.34812 0.61799 0.0
C1071 C 6e-05 0.379 0.59687 0.0
C1072 C 0.00424 0.39768 0.57402 0.0
C1073 C 0.99158 0.34425 0.6407 0.0
C1074 C 0.97901 0.35813 0.64385 0.0
C1075 C 0.98313 0.37515 0.6197 0.0
C1076 C 0.96232 0.35589 0.67905 0.0
C1077 C 0.98744 0.32559 0.66378 0.0
C1078 C 0.94617 0.35725 0.64684 0.0
C1079 C 0.93046 0.35686 0.68177 0.0
C1080 C 0.93074 0.35545 0.74956 0.0
C1081 C 0.94699 0.35375 0.78135 0.0
C1082 C 0.96264 0.35395 0.74633 0.0
H1083 H -0.00338 0.31558 0.64279 0.0
H1084 H 0.98876 0.32509 0.7171 0.0
H1085 H 0.97373 0.32181 0.65115 0.0
H1086 H 0.94575 0.35891 0.59491 0.0
H1087 H 0.91816 0.35823 0.6558 0.0
H1088 H 0.39106 0.44792 0.19412 0.0
H1089 H 0.39089 0.47927 0.16051 0.0
H1090 H 0.36892 0.46418 0.97644 0.0
H1091 H 0.36885 0.43279 0.00973 0.0
H1092 H 0.40804 0.49471 0.05415 0.0
H1093 H 0.33555 0.50369 0.04044 0.0
H1094 H 0.34565 0.48499 0.08134 0.0
H1095 H 0.34397 0.48512 0.99483 0.0
C1096 C 0.38614 0.45125 0.14654 0.0
C1097 C 0.37993 0.43787 0.10463 0.0
C1098 C 0.38606 0.46917 0.12745 0.0
C1099 C 0.3797 0.47403 0.06634 0.0
C1100 C 0.37359 0.46072 0.02424 0.0
H1101 H 0.39724 0.5765 0.87613 0.0
H1102 H 0.39655 0.54473 0.904 0.0
C1103 C 0.37364 0.44279 0.04327 0.0
C1104 C 0.37984 0.49302 0.04631 0.0
H1105 H 0.35313 0.52763 0.00211 0.0
C1106 C 0.39605 0.50194 0.04275 0.0
C1107 C 0.36414 0.50238 0.03211 0.0
C1108 C 0.34631 0.49364 0.03784 0.0
C1109 C 0.39701 0.52002 0.02497 0.0
C1110 C 0.38134 0.52929 0.00951 0.0
C1111 C 0.36512 0.5204 0.01344 0.0
C1112 C 0.38145 0.54843 0.99149 0.0
C1113 C 0.41471 0.52915 0.02429 0.0
C1114 C 0.37281 0.56094 0.03065 0.0
C1115 C 0.37307 0.57908 0.01479 0.0
C1116 C 0.38193 0.58506 0.95917 0.0
C1117 C 0.39035 0.57241 0.91945 0.0
C1118 C 0.39006 0.55424 0.93542 0.0
H1119 H 0.42477 0.52142 0.05147 0.0
H1120 H 0.41929 0.53048 0.97366 0.0
H1121 H 0.41381 0.54278 0.04537 0.0
H1122 H 0.36603 0.55667 0.07402 0.0
H1123 H 0.36641 0.5884 0.0465 0.0
H1124 H 0.44556 0.64323 0.92611 0.0
H1125 H 0.47331 0.6429 0.9847 0.0
H1126 H 0.44537 0.64474 0.16568 0.0
H1127 H 0.41728 0.64495 0.10738 0.0
H1128 H 0.48725 0.66752 0.07942 0.0
H1129 H 0.47634 0.59859 0.17489 0.0
H1130 H 0.46354 0.60742 0.10872 0.0
H1131 H 0.45971 0.61527 0.18928 0.0
C1132 C 0.44522 0.64372 0.97836 0.0
C1133 C 0.42915 0.64395 0.01201 0.0
C1134 C 0.46112 0.64357 0.01175 0.0
C1135 C 0.46133 0.64358 0.07938 0.0
C1136 C 0.44541 0.6445 0.11341 0.0
H1137 H 0.56487 0.62763 0.26826 0.0
H1138 H 0.53324 0.63406 0.261 0.0
C1139 C 0.42941 0.64471 0.07996 0.0
C1140 C 0.47838 0.64179 0.11297 0.0
H1141 H 0.50468 0.61068 0.18558 0.0
C1142 C 0.49096 0.65528 0.10408 0.0
C1143 C 0.48312 0.6258 0.14512 0.0
C1144 C 0.47006 0.61084 0.15508 0.0
C1145 C 0.50848 0.65274 0.12302 0.0
C1146 C 0.51346 0.63628 0.15093 0.0
C1147 C 0.50068 0.62328 0.1641 0.0
C1148 C 0.53217 0.63141 0.15718 0.0
C1149 C 0.52178 0.66727 0.10988 0.0
C1150 C 0.54174 0.62738 0.10133 0.0
C1151 C 0.55964 0.62362 0.10511 0.0
C1152 C 0.56837 0.62385 0.16501 0.0
C1153 C 0.55857 0.62736 0.22136 0.0
C1154 C 0.54054 0.63106 0.21742 0.0
H1155 H 0.51536 0.68045 0.102 0.0
H1156 H 0.53124 0.66843 0.15055 0.0
H1157 H 0.52935 0.66381 0.06578 0.0
H1158 H 0.53537 0.62745 0.05451 0.0
H1159 H 0.56669 0.62094 0.0607 0.0
H1160 H 0.5884 0.42026 0.88396 0.0
H1161 H 0.58902 0.4521 0.90993 0.0
H1162 H 0.63832 0.44492 0.01016 0.0
H1163 H 0.63739 0.41291 0.98678 0.0
H1164 H 0.61683 0.46383 0.08049 0.0
H1165 H 0.61662 0.4922 0.83385 0.0
H1166 H 0.5982 0.47767 0.84694 0.0
H1167 H 0.62021 0.46872 0.84901 0.0
C1168 C 0.59947 0.42549 0.91091 0.0
C1169 C 0.61284 0.41407 0.93334 0.0
C1170 C 0.59987 0.44374 0.92534 0.0
C1171 C 0.61387 0.45099 0.96103 0.0
C1172 C 0.6274 0.43964 0.98242 0.0
H1173 H 0.63181 0.56508 0.00838 0.0
H1174 H 0.63306 0.53363 0.97652 0.0
C1175 C 0.62686 0.42136 0.96898 0.0
C1176 C 0.61391 0.47015 0.97955 0.0
H1177 H 0.61002 0.51252 0.91977 0.0
C1178 C 0.6155 0.47448 0.04525 0.0
C1179 C 0.61241 0.48407 0.93354 0.0
C1180 C 0.61196 0.48044 0.86188 0.0
C1181 C 0.61537 0.4923 0.06634 0.0
C1182 C 0.61293 0.50616 0.02068 0.0
C1183 C 0.61164 0.50187 0.95486 0.0
C1184 C 0.61199 0.52524 0.03999 0.0
C1185 C 0.61825 0.49604 0.13719 0.0
C1186 C 0.59956 0.53103 0.08559 0.0
C1187 C 0.59901 0.54894 0.10466 0.0
C1188 C 0.61059 0.56146 0.07726 0.0
C1189 C 0.62269 0.55574 0.03027 0.0
C1190 C 0.62341 0.53778 0.012 0.0
H1191 H 0.62531 0.48486 0.16125 0.0
H1192 H 0.62591 0.50852 0.14453 0.0
H1193 H 0.60531 0.49756 0.16133 0.0
H1194 H 0.59026 0.5217 0.10641 0.0
H1195 H 0.58943 0.553 0.14048 0.0
H1196 H 0.42778 0.352 0.22352 0.0
H1197 H 0.45936 0.35009 0.20205 0.0
H1198 H 0.45892 0.40456 0.13203 0.0
H1199 H 0.42707 0.40586 0.14891 0.0
H1200 H 0.47332 0.38541 0.04889 0.0
H1201 H 0.50377 0.36605 0.2801 0.0
H1202 H 0.4868 0.35043 0.25971 0.0
H1203 H 0.48123 0.3735 0.27516 0.0
C1204 C 0.4346 0.36365 0.20504 0.0
C1205 C 0.42523 0.37906 0.18772 0.0
C1206 C 0.45266 0.36264 0.1933 0.0
C1207 C 0.46165 0.37727 0.16622 0.0
C1208 C 0.45231 0.39309 0.15289 0.0
H1209 H 0.57427 0.3742 0.08265 0.0
H1210 H 0.54577 0.37862 0.13508 0.0
C1211 C 0.43418 0.39388 0.16263 0.0
C1212 C 0.48003 0.37526 0.14329 0.0
H1213 H 0.52046 0.35878 0.1837 0.0
C1214 C 0.48367 0.37987 0.07895 0.0
C1215 C 0.49367 0.36822 0.18236 0.0
C1216 C 0.49119 0.36448 0.25334 0.0
C1217 C 0.50034 0.37725 0.05212 0.0
C1218 C 0.51355 0.36885 0.08956 0.0
C1219 C 0.51017 0.36478 0.15455 0.0
C1220 C 0.53096 0.36445 0.06188 0.0
C1221 C 0.50362 0.38377 0.98414 0.0
C1222 C 0.53216 0.35437 0.00485 0.0
C1223 C 0.54833 0.35221 0.97408 0.0
C1224 C 0.56364 0.35955 0.0011 0.0
C1225 C 0.56264 0.36841 0.0608 0.0
C1226 C 0.54638 0.37096 0.09076 0.0
H1227 H 0.49453 0.39486 0.9711 0.0
H1228 H 0.51734 0.38856 0.97796 0.0
H1229 H 0.50124 0.37266 0.94972 0.0
H1230 H 0.52049 0.34866 0.983 0.0
H1231 H 0.54881 0.34507 0.92859 0.0
H1232 H 0.90483 0.41962 0.85957 0.0
H1233 H 0.90301 0.4512 0.83053 0.0
H1234 H 0.85497 0.44108 0.72557 0.0
H1235 H 0.85711 0.4093 0.7521 0.0
H1236 H 0.87583 0.46114 0.65686 0.0
H1237 H 0.87271 0.48979 0.9026 0.0
H1238 H 0.89195 0.47622 0.89229 0.0
H1239 H 0.87045 0.46613 0.88768 0.0
C1240 C 0.89379 0.42413 0.83074 0.0
C1241 C 0.8811 0.41196 0.80819 0.0
C1242 C 0.8927 0.44223 0.81458 0.0
C1243 C 0.87865 0.4486 0.77698 0.0
C1244 C 0.86588 0.43649 0.75487 0.0
H1245 H 0.8585 0.56255 0.72749 0.0
H1246 H 0.85696 0.531 0.75806 0.0
C1247 C 0.86713 0.41833 0.77008 0.0
C1248 C 0.87776 0.46771 0.75792 0.0
H1249 H 0.87953 0.51026 0.81717 0.0
C1250 C 0.87646 0.47188 0.692 0.0
C1251 C 0.87827 0.48174 0.80376 0.0
C1252 C 0.87823 0.47824 0.87552 0.0
C1253 C 0.87608 0.48967 0.67053 0.0
C1254 C 0.8777 0.50368 0.71611 0.0
C1255 C 0.87856 0.49952 0.78214 0.0
C1256 C 0.87851 0.52275 0.69649 0.0
C1257 C 0.87363 0.49321 0.59934 0.0
C1258 C 0.89125 0.52865 0.65226 0.0
C1259 C 0.89196 0.54661 0.63391 0.0
C1260 C 0.88023 0.55908 0.66077 0.0
C1261 C 0.86774 0.55324 0.70611 0.0
C1262 C 0.86684 0.53522 0.7236 0.0
H1263 H 0.86689 0.48185 0.57509 0.0
H1264 H 0.86585 0.50555 0.59084 0.0
H1265 H 0.88671 0.49483 0.57631 0.0
H1266 H 0.90074 0.51939 0.63222 0.0
H1267 H 0.90185 0.55077 0.59937 0.0
H1268 H 0.54582 0.14167 0.32722 0.0
H1269 H 0.5185 0.14085 0.26555 0.0
H1270 H 0.54788 0.14162 0.08765 0.0
H1271 H 0.57545 0.14251 0.14876 0.0
H1272 H 0.50604 0.16543 0.1577 0.0
H1273 H 0.51678 0.09388 0.09144 0.0
H1274 H 0.52795 0.10395 0.15926 0.0
H1275 H 0.53421 0.10984 0.07862 0.0
C1276 C 0.54654 0.14187 0.275 0.0
C1277 C 0.56285 0.14198 0.24298 0.0
C1278 C 0.53091 0.14146 0.2399 0.0
C1279 C 0.53128 0.14105 0.17231 0.0
C1280 C 0.54743 0.14184 0.13991 0.0
H1281 H 0.42711 0.13503 0.98205 0.0
H1282 H 0.45893 0.14033 0.98957 0.0
C1283 C 0.56313 0.14236 0.17499 0.0
C1284 C 0.51465 0.13864 0.1368 0.0
H1285 H 0.48876 0.10598 0.07191 0.0
C1286 C 0.50236 0.15261 0.13725 0.0
C1287 C 0.51001 0.12182 0.11065 0.0
C1288 C 0.52283 0.10641 0.10983 0.0
C1289 C 0.48512 0.14989 0.11526 0.0
C1290 C 0.48019 0.13278 0.09271 0.0
C1291 C 0.49274 0.1191 0.08888 0.0
C1292 C 0.46154 0.12814 0.08372 0.0
C1293 C 0.4719 0.16489 0.12039 0.0
C1294 C 0.45275 0.11924 0.13366 0.0
C1295 C 0.43469 0.11632 0.12991 0.0
C1296 C 0.42511 0.12217 0.07581 0.0
C1297 C 0.43412 0.13038 0.02436 0.0
C1298 C 0.45225 0.13344 0.0285 0.0
H1299 H 0.4779 0.17745 0.13876 0.0
H1300 H 0.46603 0.16755 0.07227 0.0
H1301 H 0.46107 0.16089 0.1533 0.0
H1302 H 0.45979 0.11507 0.17661 0.0
H1303 H 0.4282 0.10983 0.17013 0.0
H1304 H 0.1334 0.5857 0.74407 0.0
H1305 H 0.13323 0.55402 0.71514 0.0
H1306 H 0.08561 0.54644 0.82518 0.0
H1307 H 0.08612 0.57791 0.85666 0.0
H1308 H 0.10731 0.51991 0.84598 0.0
H1309 H 0.10287 0.5308 0.58225 0.0
H1310 H 0.12194 0.54133 0.6162 0.0
H1311 H 0.10031 0.54876 0.63959 0.0
C1312 C 0.12289 0.57728 0.7621 0.0
C1313 C 0.1097 0.58433 0.80227 0.0
C1314 C 0.12274 0.55921 0.74509 0.0
C1315 C 0.10915 0.54795 0.76657 0.0
C1316 C 0.09616 0.5549 0.80765 0.0
H1317 H 0.08791 0.44374 0.59656 0.0
H1318 H 0.08694 0.47514 0.62968 0.0
C1319 C 0.09647 0.57289 0.82562 0.0
C1320 C 0.10864 0.52887 0.74724 0.0
H1321 H 0.10964 0.5011 0.61658 0.0
C1322 C 0.1077 0.5158 0.79579 0.0
C1323 C 0.10879 0.52351 0.6817 0.0
C1324 C 0.10833 0.53685 0.62698 0.0
C1325 C 0.10721 0.49752 0.78071 0.0
C1326 C 0.10837 0.49214 0.71532 0.0
C1327 C 0.10899 0.50522 0.66673 0.0
C1328 C 0.10886 0.47304 0.6961 0.0
C1329 C 0.10506 0.48423 0.83504 0.0
C1330 C 0.12164 0.46149 0.72177 0.0
C1331 C 0.12201 0.4435 0.70383 0.0
C1332 C 0.10988 0.43684 0.65859 0.0
C1333 C 0.0974 0.44851 0.63157 0.0
C1334 C 0.09684 0.46644 0.65044 0.0
H1335 H 0.09866 0.49046 0.87771 0.0
H1336 H 0.09709 0.47253 0.81979 0.0
H1337 H 0.11822 0.47942 0.8504 0.0
H1338 H 0.13142 0.4664 0.75538 0.0
H1339 H 0.13194 0.43486 0.72472 0.0
H1340 H 0.44581 0.85306 0.31919 0.0
H1341 H 0.47337 0.85353 0.25951 0.0
H1342 H 0.44484 0.85303 0.07958 0.0
H1343 H 0.41696 0.85268 0.13893 0.0
H1344 H 0.48709 0.82969 0.16209 0.0
H1345 H 0.47563 0.89924 0.0735 0.0
H1346 H 0.46305 0.88984 0.13916 0.0
H1347 H 0.459 0.88264 0.05793 0.0
C1348 C 0.4453 0.85287 0.26693 0.0
C1349 C 0.42913 0.85302 0.2339 0.0
C1350 C 0.4611 0.8531 0.23292 0.0
C1351 C 0.46108 0.85353 0.16529 0.0
C1352 C 0.44506 0.85292 0.13185 0.0
H1353 H 0.56447 0.86837 0.97405 0.0
H1354 H 0.53285 0.86192 0.98168 0.0
C1355 C 0.42917 0.85265 0.16591 0.0
C1356 C 0.478 0.85559 0.13112 0.0
H1357 H 0.5039 0.88723 0.05966 0.0
C1358 C 0.49067 0.84208 0.13819 0.0
C1359 C 0.48256 0.87181 0.1001 0.0
C1360 C 0.46944 0.88681 0.09223 0.0
C1361 C 0.50809 0.84479 0.11845 0.0
C1362 C 0.51288 0.86142 0.09146 0.0
C1363 C 0.50003 0.87449 0.08028 0.0
C1364 C 0.53153 0.86638 0.08463 0.0
C1365 C 0.52154 0.8303 0.12999 0.0
C1366 C 0.54095 0.87137 0.13983 0.0
C1367 C 0.55885 0.87511 0.13584 0.0
C1368 C 0.56772 0.87389 0.0764 0.0
C1369 C 0.55806 0.86942 0.02059 0.0
C1370 C 0.54004 0.86571 0.02473 0.0
H1371 H 0.51526 0.81715 0.13973 0.0
H1372 H 0.5304 0.82899 0.08764 0.0
H1373 H 0.52975 0.83396 0.17232 0.0
H1374 H 0.53447 0.87204 0.18637 0.0
H1375 H 0.56579 0.87855 0.17981 0.0
H1376 H 0.89221 0.94599 0.67335 0.0
H1377 H 0.89112 0.97732 0.63985 0.0
H1378 H 0.86796 0.96178 0.45824 0.0
H1379 H 0.86881 0.93039 0.49144 0.0
H1380 H 0.90695 0.99319 0.53153 0.0
H1381 H 0.83418 0.00041 0.52695 0.0
H1382 H 0.84509 0.98196 0.56653 0.0
H1383 H 0.84266 0.98208 0.48027 0.0
C1384 C 0.88687 0.94921 0.62627 0.0
C1385 C 0.88057 0.93571 0.58507 0.0
C1386 C 0.88625 0.96712 0.60727 0.0
C1387 C 0.87925 0.97184 0.54699 0.0
C1388 C 0.87311 0.95841 0.50545 0.0
H1389 H 0.89323 0.07457 0.35665 0.0
H1390 H 0.89253 0.04274 0.38313 0.0
C1391 C 0.87371 0.94048 0.52439 0.0
C1392 C 0.87874 0.99083 0.52723 0.0
H1393 H 0.85084 0.02489 0.48742 0.0
C1394 C 0.8947 0.00014 0.52183 0.0
C1395 C 0.8627 -0.00016 0.5153 0.0
C1396 C 0.84515 0.99065 0.52303 0.0
C1397 C 0.89507 0.01826 0.5044 0.0
C1398 C 0.87905 0.02717 0.4912 0.0
C1399 C 0.86308 0.01791 0.49702 0.0
C1400 C 0.87862 0.0463 0.47329 0.0
C1401 C 0.91254 0.02782 0.50159 0.0
C1402 C 0.87054 0.05874 0.51434 0.0
C1403 C 0.87083 0.07694 0.49934 0.0
C1404 C 0.87915 0.08302 0.44275 0.0
C1405 C 0.88679 0.07041 0.4008 0.0
C1406 C 0.88649 0.05221 0.41593 0.0
H1407 H 0.92305 0.02025 0.52705 0.0
H1408 H 0.91656 0.02939 0.45041 0.0
H1409 H 0.91155 0.04136 0.52331 0.0
H1410 H 0.86434 0.05438 0.55873 0.0
H1411 H 0.86477 0.08625 0.53269 0.0
H1412 H 0.94506 0.12818 0.41765 0.0
H1413 H 0.97274 0.12692 0.47694 0.0
H1414 H 0.94681 0.14632 0.64813 0.0
H1415 H 0.9188 0.14752 0.58949 0.0
H1416 H 0.9827 0.16365 0.59671 0.0
H1417 H 0.98135 0.09018 0.63916 0.0
H1418 H 0.97471 0.09762 0.56013 0.0
H1419 H 0.96158 0.10337 0.62906 0.0
C1420 C 0.94517 0.13229 0.46778 0.0
C1421 C 0.92967 0.13795 0.49879 0.0
C1422 C 0.96099 0.13148 0.50157 0.0
C1423 C 0.96166 0.13637 0.56676 0.0
C1424 C 0.94641 0.14241 0.59781 0.0
H1425 H 0.06379 0.12014 0.76241 0.0
H1426 H 0.03185 0.12445 0.75294 0.0
C1427 C 0.93048 0.1431 0.56416 0.0
C1428 C 0.97851 0.13519 0.60145 0.0
H1429 H 0.00918 0.10473 0.64983 0.0
C1430 C 0.98839 0.15084 0.60993 0.0
C1431 C 0.98572 0.11846 0.61885 0.0
C1432 C 0.97529 0.10141 0.6119 0.0
C1433 C 0.00588 0.15001 0.63116 0.0
C1434 C 0.01351 0.13314 0.64384 0.0
C1435 C 0.00322 0.11763 0.63994 0.0
C1436 C 0.03266 0.13112 0.65144 0.0
C1437 C 0.01641 0.16703 0.63676 0.0
C1438 C 0.04345 0.13323 0.59724 0.0
C1439 C 0.06152 0.13056 0.60209 0.0
C1440 C 0.06918 0.12581 0.66149 0.0
C1441 C 0.0583 0.1238 0.71602 0.0
C1442 C 0.0401 0.12628 0.71083 0.0
H1443 H 0.00777 0.17899 0.6402 0.0
H1444 H 0.02515 0.16658 0.67973 0.0
H1445 H 0.02484 0.16851 0.59334 0.0
H1446 H 0.03783 0.13677 0.55087 0.0
H1447 H 0.06948 0.13232 0.55921 0.0
H1448 H 0.09547 0.92184 0.35871 0.0
H1449 H 0.09551 0.95407 0.37817 0.0
H1450 H 0.1249 0.94603 0.5539 0.0
H1451 H 0.1252 0.91383 0.53467 0.0
H1452 H 0.08167 0.97233 0.483 0.0
H1453 H 0.15338 0.98453 0.46044 0.0
H1454 H 0.14307 0.96415 0.43287 0.0
H1455 H 0.14799 0.9672 0.51708 0.0
C1456 C 0.10208 0.9269 0.40129 0.0
C1457 C 0.11043 0.91521 0.44493 0.0
C1458 C 0.10206 0.94533 0.41231 0.0
C1459 C 0.11044 0.95242 0.4669 0.0
C1460 C 0.1187 0.94084 0.51072 0.0
H1461 H 0.09541 0.05331 0.65821 0.0
H1462 H 0.09496 0.02219 0.62245 0.0
C1463 C 0.11876 0.92241 0.49976 0.0
C1464 C 0.11 0.97189 0.47941 0.0
H1465 H 0.13629 0.00813 0.50606 0.0
C1466 C 0.0936 0.98021 0.48754 0.0
C1467 C 0.12557 0.98215 0.48438 0.0
C1468 C 0.1435 0.97411 0.47262 0.0
C1469 C 0.09237 0.99847 0.50255 0.0
C1470 C 0.10798 0.00852 0.51058 0.0
C1471 C 0.12435 0.00032 0.50046 0.0
C1472 C 0.10765 0.02748 0.53091 0.0
C1473 C 0.0744 0.00683 0.50942 0.0
C1474 C 0.11523 0.0407 0.49174 0.0
C1475 C 0.11561 0.0585 0.51218 0.0
C1476 C 0.10849 0.06335 0.57234 0.0
C1477 C 0.10087 0.05005 0.61136 0.0
C1478 C 0.10051 0.03227 0.5909 0.0
H1479 H 0.06414 -0.00115 0.48424 0.0
H1480 H 0.07086 0.00745 0.56133 0.0
H1481 H 0.07425 0.02066 0.48984 0.0
H1482 H 0.1209 0.03722 0.44544 0.0
H1483 H 0.12163 0.06842 0.48108 0.0
H1484 H 0.92751 0.86112 0.76269 0.0
H1485 H 0.95943 0.85693 0.75332 0.0
H1486 H 0.95915 0.88546 0.57246 0.0
H1487 H 0.92737 0.88952 0.5807 0.0
H1488 H 0.97517 0.83916 0.63426 0.0
H1489 H 0.00068 0.90726 0.68685 0.0
H1490 H 0.97979 0.89925 0.7171 0.0
H1491 H 0.98175 0.90645 0.63472 0.0
C1492 C 0.93429 0.86673 0.72142 0.0
C1493 C 0.92492 0.87556 0.6722 0.0
C1494 C 0.95248 0.8643 0.71619 0.0
C1495 C 0.96154 0.871 0.66247 0.0
C1496 C 0.95234 0.88037 0.61458 0.0
H1497 H 0.04769 0.85284 0.4243 0.0
H1498 H 0.01979 0.85349 0.48248 0.0
C1499 C 0.93418 0.88259 0.61925 0.0
C1500 C 0.98034 0.86703 0.65267 0.0
H1501 H 0.01988 0.88752 0.62932 0.0
C1502 C 0.98508 0.84961 0.63455 0.0
C1503 C 0.99315 0.8807 0.65349 0.0
C1504 C 0.98869 0.89946 0.67459 0.0
C1505 C 0.00215 0.84577 0.61297 0.0
C1506 C 0.01463 0.85974 0.60947 0.0
C1507 C 0.01021 0.87688 0.63182 0.0
C1508 C 0.03165 0.85737 0.5764 0.0
C1509 C 0.00656 0.827 0.5918 0.0
C1510 C 0.0475 0.85929 0.61021 0.0
C1511 C 0.06352 0.85884 0.57716 0.0
C1512 C 0.06387 0.8568 0.5096 0.0
C1513 C 0.04791 0.85447 0.47625 0.0
C1514 C 0.03195 0.85474 0.50943 0.0
H1515 H -0.00265 0.81705 0.61294 0.0
H1516 H 0.00554 0.82615 0.53844 0.0
H1517 H 0.02022 0.82341 0.60575 0.0
H1518 H 0.04745 0.86147 0.66191 0.0
H1519 H 0.07556 0.8607 0.60434 0.0
H1520 H 0.37113 0.31766 0.26299 0.0
H1521 H 0.37013 0.28538 0.24607 0.0
H1522 H 0.37012 0.29348 0.03998 0.0
H1523 H 0.37139 0.32585 0.05612 0.0
H1524 H 0.34473 0.26524 0.18137 0.0
H1525 H 0.41051 0.25801 0.0673 0.0
H1526 H 0.40395 0.27796 0.11008 0.0
H1527 H 0.39633 0.27407 0.02914 0.0
C1528 C 0.37096 0.31264 0.21395 0.0
C1529 C 0.37139 0.3244 0.16088 0.0
C1530 C 0.37037 0.29417 0.20446 0.0
C1531 C 0.37027 0.28707 0.14185 0.0
C1532 C 0.37052 0.2987 0.08872 0.0
H1533 H 0.36751 0.17853 0.99448 0.0
H1534 H 0.3667 0.21098 0.00723 0.0
C1535 C 0.37115 0.31721 0.09809 0.0
C1536 C 0.36964 0.26746 0.13246 0.0
H1537 H 0.39245 0.2322 0.06964 0.0
C1538 C 0.35516 0.25799 0.15705 0.0
C1539 C 0.38329 0.25809 0.10072 0.0
C1540 C 0.39949 0.26749 0.07574 0.0
C1541 C 0.35389 0.23937 0.15015 0.0
C1542 C 0.36756 0.23 0.11863 0.0
C1543 C 0.38198 0.23947 0.09368 0.0
C1544 C 0.3673 0.21032 0.11156 0.0
C1545 C 0.33781 0.22989 0.17576 0.0
C1546 C 0.36796 0.19924 0.16614 0.0
C1547 C 0.36842 0.18065 0.15917 0.0
C1548 C 0.36831 0.17283 0.09738 0.0
C1549 C 0.36755 0.18405 0.04282 0.0
C1550 C 0.36711 0.20261 0.04991 0.0
H1551 H 0.32672 0.23931 0.18407 0.0
H1552 H 0.3334 0.21928 0.14189 0.0
H1553 H 0.34109 0.22346 0.22252 0.0
H1554 H 0.36843 0.20497 0.21412 0.0
H1555 H 0.3691 0.17246 0.20223 0.0
H1556 H 0.17679 0.64499 0.75653 0.0
H1557 H 0.20881 0.64459 0.76802 0.0
H1558 H 0.20383 0.61542 0.94678 0.0
H1559 H 0.17183 0.61544 0.93513 0.0
H1560 H 0.22938 0.65841 0.86391 0.0
H1561 H 0.23872 0.58498 0.84653 0.0
H1562 H 0.21831 0.59582 0.82511 0.0
H1563 H 0.22349 0.59148 0.9084 0.0
C1564 C 0.18251 0.63843 0.7982 0.0
C1565 C 0.1718 0.63012 0.8447 0.0
C1566 C 0.20079 0.63822 0.80466 0.0
C1567 C 0.20867 0.62971 0.85763 0.0
C1568 C 0.19801 0.62168 0.90471 0.0
H1569 H 0.31475 0.64517 0.99867 0.0
H1570 H 0.28294 0.64522 0.98141 0.0
C1571 C 0.17973 0.62179 0.89814 0.0
C1572 C 0.22805 0.62963 0.8644 0.0
H1573 H 0.26355 0.60203 0.8803 0.0
C1574 C 0.23688 0.64609 0.86719 0.0
C1575 C 0.23779 0.61353 0.86768 0.0
C1576 C 0.22913 0.59544 0.86114 0.0
C1577 C 0.25521 0.6469 0.87448 0.0
C1578 C 0.26486 0.63081 0.88051 0.0
C1579 C 0.25607 0.61434 0.87638 0.0
C1580 C 0.2841 0.63075 0.89101 0.0
C1581 C 0.26407 0.66497 0.87475 0.0
C1582 C 0.29523 0.62217 0.84677 0.0
C1583 C 0.3134 0.62195 0.8568 0.0
C1584 C 0.32073 0.63028 0.9114 0.0
C1585 C 0.30952 0.63874 0.9559 0.0
C1586 C 0.29135 0.63888 0.94595 0.0
H1587 H 0.25571 0.67537 0.85176 0.0
H1588 H 0.26655 0.66911 0.92537 0.0
H1589 H 0.27689 0.66448 0.8491 0.0
H1590 H 0.28986 0.61576 0.80421 0.0
H1591 H 0.32169 0.61534 0.82156 0.0
H1592 H 0.6262 0.81889 0.99065 0.0
H1593 H 0.62762 0.78649 0.00398 0.0
H1594 H 0.62618 0.7927 0.21081 0.0
H1595 H 0.62493 0.8252 0.19836 0.0
H1596 H 0.65183 0.76783 0.16471 0.0
H1597 H 0.58548 0.75551 0.06108 0.0
H1598 H 0.59985 0.76857 0.01089 0.0
H1599 H 0.59263 0.77739 0.08709 0.0
C1600 C 0.62624 0.81343 0.03909 0.0
C1601 C 0.62535 0.82469 0.09345 0.0
C1602 C 0.62697 0.79489 0.04652 0.0
C1603 C 0.62672 0.78726 0.1083 0.0
C1604 C 0.62628 0.79839 0.16271 0.0
H1605 H 0.62616 0.67862 0.25493 0.0
H1606 H 0.62763 0.71106 0.24274 0.0
C1607 C 0.62556 0.81696 0.15542 0.0
C1608 C 0.62679 0.76761 0.11605 0.0
H1609 H 0.60305 0.73002 0.08254 0.0
C1610 C 0.64116 0.75953 0.14702 0.0
C1611 C 0.61282 0.75691 0.09286 0.0
C1612 C 0.59673 0.765 0.06161 0.0
C1613 C 0.64208 0.74089 0.15434 0.0
C1614 C 0.62812 0.73019 0.13093 0.0
C1615 C 0.61375 0.7383 0.10013 0.0
C1616 C 0.62804 0.71052 0.13834 0.0
C1617 C 0.65811 0.73277 0.18584 0.0
C1618 C 0.6275 0.69951 0.08359 0.0
C1619 C 0.62656 0.68096 0.09024 0.0
C1620 C 0.62603 0.67307 0.15192 0.0
C1621 C 0.62665 0.6842 0.2067 0.0
C1622 C 0.62759 0.70275 0.19992 0.0
H1623 H 0.6694 0.74221 0.18615 0.0
H1624 H 0.65495 0.72934 0.23664 0.0
H1625 H 0.66215 0.72031 0.16071 0.0
H1626 H 0.62773 0.70531 0.03565 0.0
H1627 H 0.62605 0.67284 0.04699 0.0
H1628 H 0.67317 0.37722 0.80696 0.0
H1629 H 0.70516 0.3758 0.79531 0.0
H1630 H 0.70916 0.34923 0.9796 0.0
H1631 H 0.67719 0.3503 0.99125 0.0
H1632 H 0.73012 0.39075 0.87493 0.0
H1633 H 0.73831 0.31706 0.86227 0.0
H1634 H 0.71723 0.32788 0.85263 0.0
H1635 H 0.72631 0.3245 0.93189 0.0
C1636 C 0.68085 0.37098 0.84484 0.0
C1637 C 0.67268 0.36385 0.89998 0.0
C1638 C 0.6991 0.37018 0.83808 0.0
C1639 C 0.70945 0.3622 0.88621 0.0
C1640 C 0.70135 0.35509 0.94131 0.0
H1641 H 0.82153 0.37847 0.94259 0.0
H1642 H 0.78948 0.37791 0.95334 0.0
C1643 C 0.68309 0.3558 0.948 0.0
C1644 C 0.72881 0.362 0.87993 0.0
H1645 H 0.76443 0.33427 0.87498 0.0
C1646 C 0.73765 0.37841 0.87467 0.0
C1647 C 0.7385 0.34586 0.87896 0.0
C1648 C 0.72961 0.32781 0.88111 0.0
C1649 C 0.75601 0.37914 0.86925 0.0
C1650 C 0.76575 0.36303 0.87046 0.0
C1651 C 0.7569 0.3466 0.87485 0.0
C1652 C 0.78513 0.36291 0.86541 0.0
C1653 C 0.76477 0.39712 0.86107 0.0
C1654 C 0.79326 0.35416 0.81355 0.0
C1655 C 0.81153 0.3543 0.80755 0.0
C1656 C 0.82198 0.36321 0.85342 0.0
C1657 C 0.81381 0.37166 0.90611 0.0
C1658 C 0.79552 0.37142 0.91219 0.0
H1659 H 0.75532 0.40749 0.84451 0.0
H1660 H 0.77024 0.40149 0.90816 0.0
H1661 H 0.77576 0.39634 0.82585 0.0
H1662 H 0.78543 0.34743 0.77716 0.0
H1663 H 0.81743 0.34764 0.76649 0.0
H1664 H 0.86844 0.67776 0.49286 0.0
H1665 H 0.86776 0.71015 0.50691 0.0
H1666 H 0.868 0.70351 0.71364 0.0
H1667 H 0.86852 0.671 0.70044 0.0
H1668 H 0.8429 0.72879 0.66583 0.0
H1669 H 0.90998 0.74051 0.56802 0.0
H1670 H 0.89579 0.72766 0.51645 0.0
H1671 H 0.90244 0.71869 0.59315 0.0
C1672 C 0.86831 0.68312 0.54143 0.0
C1673 C 0.86861 0.67173 0.59555 0.0
C1674 C 0.86802 0.70165 0.54927 0.0
C1675 C 0.86811 0.70916 0.61125 0.0
C1676 C 0.86803 0.69791 0.66541 0.0
H1677 H 0.86803 0.81776 0.75831 0.0
H1678 H 0.86695 0.78532 0.74587 0.0
C1679 C 0.86833 0.67934 0.65769 0.0
C1680 C 0.86824 0.72879 0.6194 0.0
H1681 H 0.89249 0.76619 0.58788 0.0
C1682 C 0.85376 0.737 0.64911 0.0
C1683 C 0.88244 0.73937 0.5974 0.0
C1684 C 0.89863 0.73114 0.56746 0.0
C1685 C 0.85293 0.75564 0.65628 0.0
C1686 C 0.86711 0.76623 0.63407 0.0
C1687 C 0.88162 0.758 0.60457 0.0
C1688 C 0.86728 0.7859 0.64148 0.0
C1689 C 0.83676 0.76388 0.68627 0.0
C1690 C 0.86816 0.79693 0.58683 0.0
C1691 C 0.86889 0.8155 0.59363 0.0
C1692 C 0.86884 0.82336 0.65536 0.0
C1693 C 0.86797 0.8122 0.71002 0.0
C1694 C 0.86726 0.79364 0.70309 0.0
H1695 H 0.82539 0.75454 0.68543 0.0
H1696 H 0.83958 0.76726 0.73738 0.0
H1697 H 0.83299 0.77639 0.66083 0.0
H1698 H 0.86831 0.79116 0.53886 0.0
H1699 H 0.86961 0.82366 0.55049 0.0
H1700 H 0.81567 0.14508 0.49889 0.0
H1701 H 0.7836 0.14503 0.48918 0.0
H1702 H 0.78763 0.11809 0.30566 0.0
H1703 H 0.81968 0.11777 0.31539 0.0
H1704 H 0.76245 0.15994 0.39603 0.0
H1705 H 0.75351 0.08633 0.40496 0.0
H1706 H 0.77396 0.09706 0.42659 0.0
H1707 H 0.76845 0.09353 0.3431 0.0
C1708 C 0.80973 0.13911 0.4565 0.0
C1709 C 0.82018 0.13128 0.40815 0.0
C1710 C 0.79143 0.1391 0.45107 0.0
C1711 C 0.78328 0.13127 0.3973 0.0
C1712 C 0.79368 0.1238 0.34829 0.0
H1713 H 0.67682 0.1469 0.26265 0.0
H1714 H 0.70862 0.14739 0.27964 0.0
C1715 C 0.81198 0.12372 0.3538 0.0
C1716 C 0.76389 0.13119 0.39198 0.0
H1717 H 0.72845 0.10357 0.3751 0.0
C1718 C 0.75498 0.14763 0.39178 0.0
C1719 C 0.75421 0.11507 0.38745 0.0
C1720 C 0.76299 0.09699 0.39116 0.0
C1721 C 0.73662 0.14841 0.38571 0.0
C1722 C 0.72703 0.13233 0.37841 0.0
C1723 C 0.73589 0.11588 0.38006 0.0
C1724 C 0.70777 0.13226 0.36868 0.0
C1725 C 0.72767 0.16642 0.38795 0.0
C1726 C 0.69682 0.12322 0.41234 0.0
C1727 C 0.67866 0.12276 0.40247 0.0
C1728 C 0.67116 0.13129 0.34859 0.0
C1729 C 0.68218 0.1403 0.30484 0.0
C1730 C 0.70035 0.14068 0.31465 0.0
H1731 H 0.73608 0.17666 0.41161 0.0
H1732 H 0.72496 0.17098 0.33795 0.0
H1733 H 0.71496 0.16564 0.41423 0.0
H1734 H 0.70234 0.11657 0.45418 0.0
H1735 H 0.67051 0.11574 0.43712 0.0
H1736 H 0.12725 0.31709 0.50535 0.0
H1737 H 0.12963 0.28496 0.52438 0.0
H1738 H 0.12811 0.29395 0.72988 0.0
H1739 H 0.12552 0.32614 0.71168 0.0
H1740 H 0.15546 0.26573 0.59595 0.0
H1741 H 0.08813 0.25771 0.69726 0.0
H1742 H 0.09479 0.27741 0.65314 0.0
H1743 H 0.10157 0.27441 0.7355 0.0
C1744 C 0.12743 0.3123 0.55469 0.0
C1745 C 0.1261 0.32423 0.607 0.0
C1746 C 0.12883 0.29392 0.56539 0.0
C1747 C 0.12883 0.28713 0.62844 0.0
C1748 C 0.12784 0.29896 0.68083 0.0
H1749 H 0.12743 0.1772 0.76723 0.0
H1750 H 0.12973 0.20974 0.76058 0.0
C1751 C 0.12643 0.31736 0.67025 0.0
C1752 C 0.12974 0.2676 0.63905 0.0
H1753 H 0.1062 0.23206 0.69564 0.0
C1754 C 0.14472 0.25834 0.61788 0.0
C1755 C 0.11571 0.25809 0.66778 0.0
C1756 C 0.09906 0.26734 0.68933 0.0
C1757 C 0.14605 0.23972 0.62469 0.0
C1758 C 0.13189 0.23017 0.65239 0.0
C1759 C 0.11704 0.23947 0.67455 0.0
C1760 C 0.13183 0.21043 0.6565 0.0
C1761 C 0.16262 0.23045 0.60261 0.0
C1762 C 0.13224 0.20008 0.60008 0.0
C1763 C 0.13094 0.18148 0.60356 0.0
C1764 C 0.12908 0.17289 0.66363 0.0
C1765 C 0.12889 0.18334 0.72016 0.0
C1766 C 0.13019 0.20194 0.71654 0.0
H1767 H 0.17389 0.23988 0.5997 0.0
H1768 H 0.16617 0.21932 0.63565 0.0
H1769 H 0.16045 0.22478 0.55375 0.0
H1770 H 0.13312 0.20642 0.55317 0.0
H1771 H 0.13105 0.1739 0.55901 0.0
H1772 H 0.17168 0.88399 0.31955 0.0
H1773 H 0.20354 0.88355 0.30343 0.0
H1774 H 0.21009 0.85521 0.48323 0.0
H1775 H 0.17823 0.85533 0.49941 0.0
H1776 H 0.22987 0.8977 0.38087 0.0
H1777 H 0.23716 0.82416 0.35476 0.0
H1778 H 0.21609 0.83525 0.35058 0.0
H1779 H 0.22619 0.83093 0.42752 0.0
C1780 C 0.17989 0.87764 0.35566 0.0
C1781 C 0.17244 0.86964 0.41067 0.0
C1782 C 0.19808 0.87741 0.34634 0.0
C1783 C 0.20911 0.86913 0.39169 0.0
C1784 C 0.20175 0.86134 0.44704 0.0
H1785 H 0.32215 0.88291 0.42745 0.0
H1786 H 0.29027 0.88345 0.443 0.0
C1787 C 0.18356 0.8615 0.45633 0.0
C1788 C 0.22835 0.86893 0.38148 0.0
H1789 H 0.26354 0.84104 0.36329 0.0
C1790 C 0.23725 0.88533 0.37684 0.0
C1791 C 0.23786 0.85275 0.37545 0.0
C1792 C 0.22885 0.83476 0.3767 0.0
C1793 C 0.2555 0.88599 0.36713 0.0
C1794 C 0.26508 0.8698 0.36317 0.0
C1795 C 0.25615 0.85341 0.36698 0.0
C1796 C 0.28437 0.86955 0.35393 0.0
C1797 C 0.2643 0.90398 0.36003 0.0
C1798 C 0.2916 0.86116 0.29953 0.0
C1799 C 0.3098 0.86068 0.29075 0.0
C1800 C 0.32108 0.86858 0.33636 0.0
C1801 C 0.3138 0.87686 0.39112 0.0
C1802 C 0.29559 0.87726 0.39996 0.0
H1803 H 0.25469 0.91462 0.34725 0.0
H1804 H 0.27054 0.90771 0.40654 0.0
H1805 H 0.2747 0.90357 0.32243 0.0
H1806 H 0.28314 0.85506 0.26364 0.0
H1807 H 0.31499 0.85418 0.24811 0.0
H1808 H 0.16701 0.1188 0.88298 0.0
H1809 H 0.19661 0.11734 0.93002 0.0
H1810 H 0.21938 0.12492 0.74142 0.0
H1811 H 0.18999 0.12644 0.69391 0.0
H1812 H 0.23385 0.09519 0.82761 0.0
H1813 H 0.23037 0.16319 0.93741 0.0
H1814 H 0.21209 0.14825 0.94986 0.0
H1815 H 0.21654 0.15666 0.87049 0.0
C1816 C 0.17833 0.12008 0.85154 0.0
C1817 C 0.1762 0.12288 0.78488 0.0
C1818 C 0.19517 0.11928 0.87847 0.0
C1819 C 0.21004 0.12115 0.83903 0.0
C1820 C 0.20798 0.1235 0.77242 0.0
H1821 H 0.32304 0.12166 0.87895 0.0
H1822 H 0.29265 0.11927 0.84096 0.0
C1823 C 0.19119 0.12443 0.74552 0.0
C1824 C 0.22784 0.1211 0.86713 0.0
H1825 H 0.25654 0.14696 0.95238 0.0
C1826 C 0.23885 0.10644 0.85519 0.0
C1827 C 0.23415 0.13581 0.90304 0.0
C1828 C 0.22278 0.15197 0.91594 0.0
C1829 C 0.25617 0.10607 0.87851 0.0
C1830 C 0.26267 0.12101 0.91307 0.0
C1831 C 0.25151 0.13556 0.92573 0.0
C1832 C 0.28107 0.12198 0.93595 0.0
C1833 C 0.26723 0.08963 0.86666 0.0
C1834 C 0.28458 0.12479 0.00162 0.0
C1835 C 0.30188 0.12645 0.02326 0.0
C1836 C 0.31597 0.12531 0.97955 0.0
C1837 C 0.31244 0.12248 0.91377 0.0
C1838 C 0.29511 0.12097 0.89208 0.0
H1839 H 0.25892 0.07768 0.85731 0.0
H1840 H 0.27559 0.09186 0.8235 0.0
H1841 H 0.27596 0.08678 0.90841 0.0
H1842 H 0.27391 0.12569 0.03616 0.0
H1843 H 0.30418 0.12854 0.07432 0.0
H1844 H 0.08961 0.79286 0.37684 0.0
H1845 H 0.08736 0.76539 0.3132 0.0
H1846 H 0.08698 0.79646 0.13778 0.0
H1847 H 0.08893 0.82401 0.20082 0.0
H1848 H 0.06175 0.76903 0.14 0.0
H1849 H 0.12812 0.74416 0.20873 0.0
H1850 H 0.11388 0.74927 0.27542 0.0
H1851 H 0.12119 0.76692 0.22301 0.0
C1852 C 0.08897 0.79387 0.32473 0.0
C1853 C 0.08954 0.81061 0.29386 0.0
C1854 C 0.08779 0.77815 0.28848 0.0
C1855 C 0.08729 0.77892 0.22084 0.0
C1856 C 0.08743 0.79561 0.18997 0.0
H1857 H 0.0886 0.70482 0.90173 0.0
H1858 H 0.08652 0.73102 0.9719 0.0
C1859 C 0.08857 0.81133 0.2261 0.0
C1860 C 0.08684 0.76234 0.18194 0.0
H1861 H 0.11055 0.72494 0.14514 0.0
C1862 C 0.0724 0.75936 0.14108 0.0
C1863 C 0.10078 0.74981 0.18356 0.0
C1864 C 0.11696 0.75271 0.22457 0.0
C1865 C 0.07148 0.74408 0.10191 0.0
C1866 C 0.08549 0.73164 0.10316 0.0
C1867 C 0.09983 0.73452 0.14454 0.0
C1868 C 0.08581 0.71577 0.06066 0.0
C1869 C 0.05547 0.74127 0.06004 0.0
C1870 C 0.08635 0.69855 0.08748 0.0
C1871 C 0.0876 0.68355 0.0476 0.0
C1872 C 0.08847 0.68554 0.98015 0.0
C1873 C 0.08784 0.70282 0.95344 0.0
C1874 C 0.08656 0.71781 0.99341 0.0
H1875 H 0.04412 0.7494 0.07677 0.0
H1876 H 0.05859 0.74534 0.00981 0.0
H1877 H 0.05155 0.72696 0.05941 0.0
H1878 H 0.0859 0.69674 0.13935 0.0
H1879 H 0.0881 0.67043 0.06972 0.0
H1880 H 0.68861 0.86847 0.06279 0.0
H1881 H 0.71858 0.86951 0.02087 0.0
H1882 H 0.6984 0.8746 0.82704 0.0
H1883 H 0.66827 0.874 0.86878 0.0
H1884 H 0.73424 0.84645 0.93795 0.0
H1885 H 0.73396 0.91493 0.83433 0.0
H1886 H 0.71703 0.90709 0.88845 0.0
H1887 H 0.71656 0.90096 0.8045 0.0
C1888 C 0.69052 0.86989 0.01122 0.0
C1889 C 0.67609 0.87116 0.969 0.0
C1890 C 0.70766 0.87051 0.98741 0.0
C1891 C 0.7107 0.87238 0.92101 0.0
C1892 C 0.69633 0.87358 0.87862 0.0
H1893 H 0.80394 0.86504 0.68492 0.0
H1894 H 0.77393 0.86622 0.72719 0.0
C1895 C 0.67914 0.87312 0.90247 0.0
C1896 C 0.72894 0.87231 0.89623 0.0
H1897 H 0.75863 0.89658 0.80898 0.0
C1898 C 0.73961 0.85746 0.9101 0.0
C1899 C 0.73588 0.88672 0.86 0.0
C1900 C 0.72533 0.9034 0.84641 0.0
C1901 C 0.75699 0.85652 0.88789 0.0
C1902 C 0.76382 0.87081 0.85117 0.0
C1903 C 0.75323 0.88566 0.83719 0.0
C1904 C 0.78195 0.87043 0.82615 0.0
C1905 C 0.76789 0.84016 0.90283 0.0
C1906 C 0.79628 0.87259 0.86806 0.0
C1907 C 0.81345 0.872 0.84415 0.0
C1908 C 0.81648 0.86914 0.77802 0.0
C1909 C 0.80204 0.86712 0.7362 0.0
C1910 C 0.7849 0.86785 0.7601 0.0
H1911 H 0.75986 0.82917 0.92371 0.0
H1912 H 0.77446 0.8352 0.85842 0.0
H1913 H 0.77832 0.84375 0.93803 0.0
H1914 H 0.79416 0.87472 0.9192 0.0
H1915 H 0.82432 0.87364 0.87747 0.0
H1916 H 0.90553 0.20302 0.3639 0.0
H1917 H 0.90824 0.2301 0.29822 0.0
H1918 H 0.9114 0.19786 0.12603 0.0
H1919 H 0.90854 0.17072 0.19097 0.0
H1920 H 0.93489 0.24093 0.20726 0.0
H1921 H 0.86921 0.23168 0.09399 0.0
H1922 H 0.87591 0.21972 0.1656 0.0
H1923 H 0.88368 0.21275 0.08764 0.0
C1924 C 0.90693 0.20167 0.3121 0.0
C1925 C 0.90669 0.18473 0.28257 0.0
C1926 C 0.90849 0.21715 0.27473 0.0
C1927 C 0.90976 0.21593 0.20736 0.0
C1928 C 0.91014 0.19905 0.17794 0.0
H1929 H 0.90887 0.29258 0.89493 0.0
H1930 H 0.91141 0.26575 0.96163 0.0
C1931 C 0.90856 0.18357 0.21516 0.0
C1932 C 0.91011 0.23233 0.16755 0.0
H1933 H 0.88688 0.25511 0.05313 0.0
C1934 C 0.9244 0.2441 0.17361 0.0
C1935 C 0.89636 0.23637 0.12397 0.0
C1936 C 0.88033 0.22457 0.1176 0.0
C1937 C 0.92547 0.2597 0.13607 0.0
C1938 C 0.91173 0.26369 0.0923 0.0
C1939 C 0.89743 0.25194 0.0865 0.0
C1940 C 0.91171 0.28009 0.05234 0.0
C1941 C 0.94141 0.27159 0.14262 0.0
C1942 C 0.91107 0.29703 0.08137 0.0
C1943 C 0.90964 0.31241 0.0434 0.0
C1944 C 0.90871 0.31107 0.97576 0.0
C1945 C 0.90961 0.29408 0.94686 0.0
C1946 C 0.91105 0.27873 0.98486 0.0
H1947 H 0.95265 0.26441 0.16514 0.0
H1948 H 0.94562 0.2768 0.09486 0.0
H1949 H 0.93807 0.28317 0.17378 0.0
H1950 H 0.91118 0.29833 0.13343 0.0
H1951 H 0.90889 0.3253 0.06715 0.0
H1952 H 0.1892 0.36686 0.56941 0.0
H1953 H 0.21917 0.36738 0.52734 0.0
H1954 H 0.199 0.37112 0.3331 0.0
H1955 H 0.16888 0.37102 0.37489 0.0
H1956 H 0.23467 0.34355 0.44538 0.0
H1957 H 0.23456 0.41166 0.33827 0.0
H1958 H 0.2177 0.40412 0.39327 0.0
H1959 H 0.21707 0.39758 0.30977 0.0
C1960 C 0.19112 0.36787 0.51772 0.0
C1961 C 0.1767 0.36892 0.47536 0.0
C1962 C 0.20825 0.36818 0.49383 0.0
C1963 C 0.21127 0.36953 0.42727 0.0
C1964 C 0.19692 0.37048 0.38476 0.0
H1965 H 0.3052 0.36293 0.19387 0.0
H1966 H 0.27501 0.36341 0.23458 0.0
C1967 C 0.17974 0.37031 0.40865 0.0
C1968 C 0.22948 0.36929 0.40251 0.0
H1969 H 0.25928 0.39327 0.31487 0.0
C1970 C 0.24009 0.35445 0.41711 0.0
C1971 C 0.23646 0.38357 0.36575 0.0
C1972 C 0.22593 0.40021 0.35128 0.0
C1973 C 0.25749 0.35342 0.39521 0.0
C1974 C 0.26438 0.36762 0.35815 0.0
C1975 C 0.25382 0.38243 0.34331 0.0
C1976 C 0.28259 0.36729 0.3342 0.0
C1977 C 0.26835 0.33709 0.41098 0.0
C1978 C 0.29671 0.36946 0.37703 0.0
C1979 C 0.31397 0.36927 0.35404 0.0
C1980 C 0.31729 0.36684 0.28788 0.0
C1981 C 0.30306 0.3647 0.24517 0.0
C1982 C 0.28583 0.36502 0.26818 0.0
H1983 H 0.26021 0.32607 0.4311 0.0
H1984 H 0.27523 0.33217 0.36716 0.0
H1985 H 0.27852 0.34071 0.44716 0.0
H1986 H 0.29435 0.37138 0.42814 0.0
H1987 H 0.32467 0.37099 0.38802 0.0
H1988 H 0.38227 0.79444 0.40825 0.0
H1989 H 0.38412 0.76844 0.47955 0.0
H1990 H 0.42777 0.79287 0.58 0.0
H1991 H 0.42484 0.81954 0.51215 0.0
H1992 H 0.40621 0.74443 0.50123 0.0
H1993 H 0.39915 0.78142 0.73099 0.0
H1994 H 0.39651 0.79218 0.65389 0.0
H1995 H 0.41817 0.78871 0.68738 0.0
C1996 C 0.39221 0.79421 0.44578 0.0
C1997 C 0.40331 0.80895 0.45542 0.0
C1998 C 0.39329 0.77937 0.48648 0.0
C1999 C 0.4058 0.7788 0.53649 0.0
C2000 C 0.41752 0.79322 0.54374 0.0
H2001 H 0.42421 0.67546 0.72793 0.0
H2002 H 0.42701 0.70185 0.65849 0.0
C2003 C 0.416 0.80836 0.50454 0.0
C2004 C 0.40649 0.76309 0.58053 0.0
H2005 H 0.40737 0.75088 0.73926 0.0
C2006 C 0.40632 0.74587 0.55333 0.0
C2007 C 0.40639 0.76487 0.64865 0.0
C2008 C 0.40487 0.78279 0.68188 0.0
C2009 C 0.40576 0.73045 0.59195 0.0
C2010 C 0.4065 0.73223 0.66001 0.0
C2011 C 0.40697 0.74944 0.68718 0.0
C2012 C 0.40581 0.71655 0.70425 0.0
C2013 C 0.40357 0.71257 0.55898 0.0
C2014 C 0.39376 0.7164 0.75576 0.0
C2015 C 0.39277 0.70172 0.79722 0.0
C2016 C 0.40349 0.68673 0.78696 0.0
C2017 C 0.41567 0.68685 0.73612 0.0
C2018 C 0.41711 0.70183 0.69602 0.0
H2019 H 0.39748 0.71406 0.5105 0.0
H2020 H 0.41669 0.70635 0.5521 0.0
H2021 H 0.39525 0.70337 0.58792 0.0
H2022 H 0.38489 0.72755 0.76344 0.0
H2023 H 0.38323 0.70186 0.83603 0.0
H2024 H 0.66898 0.62296 0.37382 0.0
H2025 H 0.69921 0.62271 0.41522 0.0
H2026 H 0.71904 0.62856 0.22128 0.0
H2027 H 0.68903 0.62925 0.17978 0.0
H2028 H 0.72671 0.59998 0.38901 0.0
H2029 H 0.74349 0.66919 0.31457 0.0
H2030 H 0.72119 0.6609 0.31486 0.0
H2031 H 0.73574 0.6556 0.24909 0.0
C2032 C 0.6798 0.62424 0.3401 0.0
C2033 C 0.67665 0.62634 0.27369 0.0
C2034 C 0.69703 0.62409 0.36377 0.0
C2035 C 0.71131 0.626 0.32139 0.0
C2036 C 0.70819 0.62758 0.25495 0.0
H2037 H 0.8249 0.62276 0.36704 0.0
H2038 H 0.79475 0.62178 0.32466 0.0
C2039 C 0.69102 0.62788 0.23133 0.0
C2040 C 0.72954 0.62611 0.34637 0.0
H2041 H 0.76724 0.65092 0.35026 0.0
C2042 C 0.73555 0.61114 0.38087 0.0
C2043 C 0.741 0.64074 0.33568 0.0
C2044 C 0.735 0.65759 0.30209 0.0
C2045 C 0.75286 0.61031 0.40412 0.0
C2046 C 0.76433 0.62481 0.3926 0.0
C2047 C 0.75836 0.63977 0.35827 0.0
C2048 C 0.78243 0.62499 0.41803 0.0
C2049 C 0.75888 0.59389 0.44028 0.0
C2050 C 0.78531 0.62727 0.48427 0.0
C2051 C 0.8024 0.62798 0.50848 0.0
C2052 C 0.81691 0.62637 0.46676 0.0
C2053 C 0.81398 0.624 0.40031 0.0
C2054 C 0.79682 0.62345 0.37606 0.0
H2055 H 0.74941 0.58265 0.43562 0.0
H2056 H 0.77195 0.58945 0.42242 0.0
H2057 H 0.76028 0.5972 0.49226 0.0
H2058 H 0.7743 0.62865 0.51714 0.0
H2059 H 0.80423 0.62975 0.55996 0.0
H2060 H 0.58434 0.17019 0.56089 0.0
H2061 H 0.58154 0.19655 0.62997 0.0
H2062 H 0.58397 0.23073 0.46248 0.0
H2063 H 0.58664 0.20448 0.39282 0.0
H2064 H 0.60648 0.22417 0.63851 0.0
H2065 H 0.54121 0.25008 0.56254 0.0
H2066 H 0.54834 0.2275 0.54579 0.0
H2067 H 0.55615 0.24576 0.49718 0.0
C2068 C 0.58408 0.1833 0.5386 0.0
C2069 C 0.58568 0.18525 0.47132 0.0
C2070 C 0.58247 0.19833 0.57818 0.0
C2071 C 0.58232 0.21553 0.55121 0.0
C2072 C 0.5837 0.21753 0.48407 0.0
H2073 H 0.58735 0.32374 0.69054 0.0
H2074 H 0.58485 0.29621 0.62763 0.0
C2075 C 0.58532 0.20251 0.4444 0.0
C2076 C 0.58194 0.23143 0.59361 0.0
H2077 H 0.55879 0.26941 0.62736 0.0
C2078 C 0.59598 0.23399 0.63661 0.0
C2079 C 0.56824 0.24419 0.59066 0.0
C2080 C 0.55254 0.24172 0.54699 0.0
C2081 C 0.59696 0.24929 0.67558 0.0
C2082 C 0.58334 0.26216 0.67223 0.0
C2083 C 0.56919 0.25949 0.62977 0.0
C2084 C 0.58389 0.27877 0.71091 0.0
C2085 C 0.61284 0.25183 0.71839 0.0
C2086 C 0.58383 0.27806 0.77858 0.0
C2087 C 0.58534 0.29376 0.81474 0.0
C2088 C 0.58679 0.31043 0.78374 0.0
C2089 C 0.58631 0.31111 0.71591 0.0
C2090 C 0.58485 0.29541 0.67986 0.0
H2091 H 0.62391 0.24298 0.70402 0.0
H2092 H 0.61745 0.26593 0.71705 0.0
H2093 H 0.60925 0.24856 0.76893 0.0
H2094 H 0.58278 0.26535 0.8034 0.0
H2095 H 0.58558 0.29279 0.8669 0.0
loop_
_geom_bond_atom_site_label_1
_geom_bond_atom_site_label_2
_geom_bond_distance
_geom_bond_site_symmetry_2
_ccdc_geom_bond_type
Co0 O2 2.143 . S
Co0 O8 2.074 . S
Co0 O11 2.093 . S
Co0 O24 2.097 . S
Co0 N41 2.151 . S
Co0 N49 2.214 . S
Co1 O2 2.160 1_556 S
Co1 O7 2.058 1_556 S
Co1 O17 2.057 . S
Co1 O32 2.037 1_556 S
Co1 N36 2.145 . S
Co1 N57 2.257 . S
O2 Co0 2.143 . S
O2 Co1 2.160 1_554 S
C3 O4 1.278 . S
C3 O11 1.224 . S
O4 C3 1.278 . S
C5 O6 1.245 1_556 S
C5 O17 1.232 . S
O6 C5 1.245 1_554 S
O7 Co1 2.058 1_554 S
O7 C33 1.269 . S
O8 Co0 2.074 . S
O8 C33 1.257 . S
H9 C34 0.930 . S
H10 C40 0.930 . S
O11 Co0 2.093 . S
O11 C3 1.224 . S
H12 C44 0.929 . S
H13 C46 0.930 . S
H14 C47 0.930 . S
H15 C45 0.929 . S
H16 C48 0.928 . S
O17 Co1 2.057 . S
O17 C5 1.232 . S
H18 C37 0.929 . S
H19 C38 0.929 . S
H20 C50 0.931 . S
H21 C42 0.929 . S
H22 C51 0.930 . S
H23 C43 0.931 . S
O24 Co0 2.097 . S
O24 C52 1.214 . S
H25 C53 0.929 . S
H26 C54 0.929 . S
H27 C55 0.930 . S
H28 C56 0.929 . S
H29 C58 0.930 . S
H30 C35 0.930 . S
H31 C39 0.930 . S
O32 Co1 2.037 1_554 S
O32 C52 1.234 . S
C33 O7 1.269 . S
C33 O8 1.257 . S
C34 H9 0.930 . S
C34 C37 1.388 . S
C34 C39 1.418 . S
C35 H30 0.930 . S
C35 C38 1.404 . S
C35 C39 1.353 . S
N36 Co1 2.145 . S
N36 C37 1.397 . S
N36 C38 1.334 . S
C37 H18 0.929 . S
C37 C34 1.388 . S
C37 N36 1.397 . S
C38 H19 0.929 . S
C38 C35 1.404 . S
C38 N36 1.334 . S
C39 H31 0.930 . S
C39 C34 1.418 . S
C39 C35 1.353 . S
C40 H10 0.930 . S
C40 N41 1.330 . S
C40 C42 1.446 . S
N41 Co0 2.151 . S
N41 C40 1.330 . S
N41 C45 1.418 . S
C42 H21 0.929 . S
C42 C40 1.446 . S
C42 C43 1.332 . S
C43 H23 0.931 . S
C43 C42 1.332 . S
C43 C44 1.267 . S
C44 H12 0.929 . S
C44 C43 1.267 . S
C44 C45 1.251 . S
C45 H15 0.929 . S
C45 N41 1.418 . S
C45 C44 1.251 . S
C46 H13 0.930 . S
C46 C48 1.406 . S
C46 C51 1.261 . S
C47 H14 0.930 . S
C47 N49 1.325 . S
C47 C50 1.357 . S
C48 H16 0.928 . S
C48 C46 1.406 . S
C48 N49 1.261 . S
N49 Co0 2.214 . S
N49 C47 1.325 . S
N49 C48 1.261 . S
C50 H20 0.931 . S
C50 C47 1.357 . S
C50 C51 1.312 . S
C51 H22 0.930 . S
C51 C46 1.261 . S
C51 C50 1.312 . S
C52 O24 1.214 . S
C52 O32 1.234 . S
C53 H25 0.929 . S
C53 C56 1.391 . S
C53 C58 1.391 . S
C54 H26 0.929 . S
C54 C55 1.390 . S
C54 N57 1.391 . S
C55 H27 0.930 . S
C55 C54 1.390 . S
C55 C56 1.392 . S
C56 H28 0.929 . S
C56 C53 1.391 . S
C56 C55 1.392 . S
N57 Co1 2.257 . S
N57 C54 1.391 . S
N57 C58 1.388 . S
C58 H29 0.930 . S
C58 C53 1.391 . S
C58 N57 1.388 . S
Co59 O61 2.143 . S
Co59 O67 2.074 . S
Co59 O70 2.093 . S
Co59 O83 2.097 . S
Co59 N100 2.151 . S
Co59 N108 2.214 . S
Co60 O61 2.160 . S
Co60 O66 2.058 . S
Co60 O76 2.057 . S
Co60 O91 2.037 . S
Co60 N95 2.145 1_556 S
Co60 N116 2.257 1_556 S
O61 Co59 2.143 . S
O61 Co60 2.160 . S
C62 O63 1.278 . S
C62 O70 1.224 . S
O63 C62 1.278 . S
C64 O65 1.245 . S
C64 O76 1.232 . S
O65 C64 1.245 . S
O66 Co60 2.058 . S
O66 C92 1.269 . S
O67 Co59 2.074 . S
O67 C92 1.257 . S
H68 C93 0.930 . S
H69 C99 0.930 . S
O70 Co59 2.093 . S
O70 C62 1.224 . S
H71 C103 0.929 . S
H72 C105 0.930 . S
H73 C106 0.930 . S
H74 C104 0.929 . S
H75 C107 0.928 . S
O76 Co60 2.057 . S
O76 C64 1.232 . S
H77 C96 0.929 . S
H78 C97 0.929 . S
H79 C109 0.931 . S
H80 C101 0.929 . S
H81 C110 0.930 . S
H82 C102 0.931 . S
O83 Co59 2.097 . S
O83 C111 1.214 . S
H84 C112 0.929 . S
H85 C113 0.929 . S
H86 C114 0.930 . S
H87 C115 0.929 . S
H88 C117 0.930 . S
H89 C94 0.930 . S
H90 C98 0.930 . S
O91 Co60 2.037 . S
O91 C111 1.234 . S
C92 O66 1.269 . S
C92 O67 1.257 . S
C93 H68 0.930 . S
C93 C96 1.388 1_554 S
C93 C98 1.418 . S
C94 H89 0.930 . S
C94 C97 1.404 . S
C94 C98 1.353 . S
N95 Co60 2.145 1_554 S
N95 C96 1.397 1_554 S
N95 C97 1.334 . S
C96 H77 0.929 . S
C96 C93 1.388 1_556 S
C96 N95 1.397 1_556 S
C97 H78 0.929 . S
C97 C94 1.404 . S
C97 N95 1.334 . S
C98 H90 0.930 . S
C98 C93 1.418 . S
C98 C94 1.353 . S
C99 H69 0.930 . S
C99 N100 1.330 . S
C99 C101 1.446 . S
N100 Co59 2.151 . S
N100 C99 1.330 . S
N100 C104 1.418 . S
C101 H80 0.929 . S
C101 C99 1.446 . S
C101 C102 1.332 . S
C102 H82 0.931 . S
C102 C101 1.332 . S
C102 C103 1.267 . S
C103 H71 0.929 . S
C103 C102 1.267 . S
C103 C104 1.251 . S
C104 H74 0.929 . S
C104 N100 1.418 . S
C104 C103 1.251 . S
C105 H72 0.930 . S
C105 C107 1.406 . S
C105 C110 1.261 . S
C106 H73 0.930 . S
C106 N108 1.325 . S
C106 C109 1.357 . S
C107 H75 0.928 . S
C107 C105 1.406 . S
C107 N108 1.261 . S
N108 Co59 2.214 . S
N108 C106 1.325 . S
N108 C107 1.261 . S
C109 H79 0.931 . S
C109 C106 1.357 . S
C109 C110 1.312 . S
C110 H81 0.930 . S
C110 C105 1.261 . S
C110 C109 1.312 . S
C111 O83 1.214 . S
C111 O91 1.234 . S
C112 H84 0.929 . S
C112 C115 1.391 . S
C112 C117 1.391 . S
C113 H85 0.929 . S
C113 C114 1.390 . S
C113 N116 1.391 . S
C114 H86 0.930 . S
C114 C113 1.390 . S
C114 C115 1.392 . S
C115 H87 0.929 . S
C115 C112 1.391 . S
C115 C114 1.392 . S
N116 Co60 2.257 1_554 S
N116 C113 1.391 . S
N116 C117 1.388 . S
C117 H88 0.930 . S
C117 C112 1.391 . S
C117 N116 1.388 . S
Co118 O120 2.143 . S
Co118 O126 2.074 . S
Co118 O129 2.093 . S
Co118 O142 2.097 . S
Co118 N159 2.151 . S
Co118 N167 2.214 . S
Co119 O120 2.160 1_556 S
Co119 O125 2.058 1_556 S
Co119 O135 2.057 . S
Co119 O150 2.037 1_556 S
Co119 N154 2.145 . S
Co119 N175 2.257 . S
O120 Co118 2.143 . S
O120 Co119 2.160 1_554 S
C121 O122 1.278 . S
C121 O129 1.224 . S
O122 C121 1.278 . S
C123 O124 1.245 1_556 S
C123 O135 1.232 . S
O124 C123 1.245 1_554 S
O125 Co119 2.058 1_554 S
O125 C151 1.269 . S
O126 Co118 2.074 . S
O126 C151 1.257 . S
H127 C152 0.930 . S
H128 C158 0.930 . S
O129 Co118 2.093 . S
O129 C121 1.224 . S
H130 C162 0.929 . S
H131 C164 0.930 . S
H132 C165 0.930 . S
H133 C163 0.929 . S
H134 C166 0.928 . S
O135 Co119 2.057 . S
O135 C123 1.232 . S
H136 C155 0.929 . S
H137 C156 0.929 . S
H138 C168 0.931 . S
H139 C160 0.929 . S
H140 C169 0.930 . S
H141 C161 0.931 . S
O142 Co118 2.097 . S
O142 C170 1.214 . S
H143 C171 0.929 . S
H144 C172 0.929 . S
H145 C173 0.930 . S
H146 C174 0.929 . S
H147 C176 0.930 . S
H148 C153 0.930 . S
H149 C157 0.930 . S
O150 Co119 2.037 1_554 S
O150 C170 1.234 . S
C151 O125 1.269 . S
C151 O126 1.257 . S
C152 H127 0.930 . S
C152 C155 1.388 . S
C152 C157 1.418 . S
C153 H148 0.930 . S
C153 C156 1.404 . S
C153 C157 1.353 . S
N154 Co119 2.145 . S
N154 C155 1.397 . S
N154 C156 1.334 . S
C155 H136 0.929 . S
C155 C152 1.388 . S
C155 N154 1.397 . S
C156 H137 0.929 . S
C156 C153 1.404 . S
C156 N154 1.334 . S
C157 H149 0.930 . S
C157 C152 1.418 . S
C157 C153 1.353 . S
C158 H128 0.930 . S
C158 N159 1.330 . S
C158 C160 1.446 . S
N159 Co118 2.151 . S
N159 C158 1.330 . S
N159 C163 1.418 . S
C160 H139 0.929 . S
C160 C158 1.446 . S
C160 C161 1.332 . S
C161 H141 0.931 . S
C161 C160 1.332 . S
C161 C162 1.267 . S
C162 H130 0.929 . S
C162 C161 1.267 . S
C162 C163 1.251 . S
C163 H133 0.929 . S
C163 N159 1.418 . S
C163 C162 1.251 . S
C164 H131 0.930 . S
C164 C166 1.406 . S
C164 C169 1.261 . S
C165 H132 0.930 . S
C165 N167 1.325 . S
C165 C168 1.357 . S
C166 H134 0.928 . S
C166 C164 1.406 . S
C166 N167 1.261 . S
N167 Co118 2.214 . S
N167 C165 1.325 . S
N167 C166 1.261 . S
C168 H138 0.931 . S
C168 C165 1.357 . S
C168 C169 1.312 . S
C169 H140 0.930 . S
C169 C164 1.261 . S
C169 C168 1.312 . S
C170 O142 1.214 . S
C170 O150 1.234 . S
C171 H143 0.929 . S
C171 C174 1.391 . S
C171 C176 1.391 . S
C172 H144 0.929 . S
C172 C173 1.390 . S
C172 N175 1.391 . S
C173 H145 0.930 . S
C173 C172 1.390 . S
C173 C174 1.392 . S
C174 H146 0.929 . S
C174 C171 1.391 . S
C174 C173 1.392 . S
N175 Co119 2.257 . S
N175 C172 1.391 . S
N175 C176 1.388 . S
C176 H147 0.930 . S
C176 C171 1.391 . S
C176 N175 1.388 . S
Co177 O179 2.143 . S
Co177 O185 2.074 . S
Co177 O188 2.093 . S
Co177 O201 2.097 . S
Co177 N218 2.151 . S
Co177 N226 2.214 . S
Co178 O179 2.160 . S
Co178 O184 2.058 . S
Co178 O194 2.057 . S
Co178 O209 2.037 . S
Co178 N213 2.145 1_556 S
Co178 N234 2.257 1_556 S
O179 Co177 2.143 . S
O179 Co178 2.160 . S
C180 O181 1.278 . S
C180 O188 1.224 . S
O181 C180 1.278 . S
C182 O183 1.245 . S
C182 O194 1.232 . S
O183 C182 1.245 . S
O184 Co178 2.058 . S
O184 C210 1.269 . S
O185 Co177 2.074 . S
O185 C210 1.257 . S
H186 C211 0.930 . S
H187 C217 0.930 . S
O188 Co177 2.093 . S
O188 C180 1.224 . S
H189 C221 0.929 . S
H190 C223 0.930 . S
H191 C224 0.930 . S
H192 C222 0.929 . S
H193 C225 0.928 . S
O194 Co178 2.057 . S
O194 C182 1.232 . S
H195 C214 0.929 . S
H196 C215 0.929 . S
H197 C227 0.931 . S
H198 C219 0.929 . S
H199 C228 0.930 . S
H200 C220 0.931 . S
O201 Co177 2.097 . S
O201 C229 1.214 . S
H202 C230 0.929 . S
H203 C231 0.929 . S
H204 C232 0.930 . S
H205 C233 0.929 . S
H206 C235 0.930 . S
H207 C212 0.930 . S
H208 C216 0.930 . S
O209 Co178 2.037 . S
O209 C229 1.234 . S
C210 O184 1.269 . S
C210 O185 1.257 . S
C211 H186 0.930 . S
C211 C214 1.388 1_554 S
C211 C216 1.418 . S
C212 H207 0.930 . S
C212 C215 1.404 . S
C212 C216 1.353 . S
N213 Co178 2.145 1_554 S
N213 C214 1.397 1_554 S
N213 C215 1.334 . S
C214 H195 0.929 . S
C214 C211 1.388 1_556 S
C214 N213 1.397 1_556 S
C215 H196 0.929 . S
C215 C212 1.404 . S
C215 N213 1.334 . S
C216 H208 0.930 . S
C216 C211 1.418 . S
C216 C212 1.353 . S
C217 H187 0.930 . S
C217 N218 1.330 . S
C217 C219 1.446 . S
N218 Co177 2.151 . S
N218 C217 1.330 . S
N218 C222 1.418 . S
C219 H198 0.929 . S
C219 C217 1.446 . S
C219 C220 1.332 . S
C220 H200 0.931 . S
C220 C219 1.332 . S
C220 C221 1.267 . S
C221 H189 0.929 . S
C221 C220 1.267 . S
C221 C222 1.251 . S
C222 H192 0.929 . S
C222 N218 1.418 . S
C222 C221 1.251 . S
C223 H190 0.930 . S
C223 C225 1.406 . S
C223 C228 1.261 . S
C224 H191 0.930 . S
C224 N226 1.325 . S
C224 C227 1.357 . S
C225 H193 0.928 . S
C225 C223 1.406 . S
C225 N226 1.261 . S
N226 Co177 2.214 . S
N226 C224 1.325 . S
N226 C225 1.261 . S
C227 H197 0.931 . S
C227 C224 1.357 . S
C227 C228 1.312 . S
C228 H199 0.930 . S
C228 C223 1.261 . S
C228 C227 1.312 . S
C229 O201 1.214 . S
C229 O209 1.234 . S
C230 H202 0.929 . S
C230 C233 1.391 . S
C230 C235 1.391 . S
C231 H203 0.929 . S
C231 C232 1.390 . S
C231 N234 1.391 . S
C232 H204 0.930 . S
C232 C231 1.390 . S
C232 C233 1.392 . S
C233 H205 0.929 . S
C233 C230 1.391 . S
C233 C232 1.392 . S
N234 Co178 2.257 1_554 S
N234 C231 1.391 . S
N234 C235 1.388 . S
C235 H206 0.930 . S
C235 C230 1.391 . S
C235 N234 1.388 . S
Co236 O238 2.143 . S
Co236 O244 2.074 . S
Co236 O247 2.093 . S
Co236 O260 2.097 . S
Co236 N277 2.151 . S
Co236 N285 2.214 . S
Co237 O238 2.160 . S
Co237 O243 2.058 . S
Co237 O253 2.057 . S
Co237 O268 2.037 . S
Co237 N272 2.145 . S
Co237 N293 2.257 . S
O238 Co236 2.143 . S
O238 Co237 2.160 . S
C239 O240 1.278 . S
C239 O247 1.224 . S
O240 C239 1.278 . S
C241 O242 1.245 . S
C241 O253 1.232 . S
O242 C241 1.245 . S
O243 Co237 2.058 . S
O243 C269 1.269 . S
O244 Co236 2.074 . S
O244 C269 1.257 . S
H245 C270 0.930 . S
H246 C276 0.930 . S
O247 Co236 2.093 . S
O247 C239 1.224 . S
H248 C280 0.929 . S
H249 C282 0.930 . S
H250 C283 0.930 . S
H251 C281 0.929 . S
H252 C284 0.928 . S
O253 Co237 2.057 . S
O253 C241 1.232 . S
H254 C273 0.929 . S
H255 C274 0.929 . S
H256 C286 0.931 . S
H257 C278 0.929 . S
H258 C287 0.930 . S
H259 C279 0.931 . S
O260 Co236 2.097 . S
O260 C288 1.214 . S
H261 C289 0.929 . S
H262 C290 0.929 . S
H263 C291 0.930 . S
H264 C292 0.929 . S
H265 C294 0.930 . S
H266 C271 0.930 . S
H267 C275 0.930 . S
O268 Co237 2.037 . S
O268 C288 1.234 . S
C269 O243 1.269 . S
C269 O244 1.257 . S
C270 H245 0.930 . S
C270 C273 1.388 . S
C270 C275 1.418 . S
C271 H266 0.930 . S
C271 C274 1.404 . S
C271 C275 1.353 . S
N272 Co237 2.145 . S
N272 C273 1.397 . S
N272 C274 1.334 . S
C273 H254 0.929 . S
C273 C270 1.388 . S
C273 N272 1.397 . S
C274 H255 0.929 . S
C274 C271 1.404 . S
C274 N272 1.334 . S
C275 H267 0.930 . S
C275 C270 1.418 . S
C275 C271 1.353 . S
C276 H246 0.930 . S
C276 N277 1.330 . S
C276 C278 1.446 . S
N277 Co236 2.151 . S
N277 C276 1.330 . S
N277 C281 1.418 1_554 S
C278 H257 0.929 . S
C278 C276 1.446 . S
C278 C279 1.332 1_554 S
C279 H259 0.931 . S
C279 C278 1.332 1_556 S
C279 C280 1.267 . S
C280 H248 0.929 . S
C280 C279 1.267 . S
C280 C281 1.251 . S
C281 H251 0.929 . S
C281 N277 1.418 1_556 S
C281 C280 1.251 . S
C282 H249 0.930 . S
C282 C284 1.406 . S
C282 C287 1.261 . S
C283 H250 0.930 . S
C283 N285 1.325 . S
C283 C286 1.357 1_554 S
C284 H252 0.928 . S
C284 C282 1.406 . S
C284 N285 1.261 1_556 S
N285 Co236 2.214 . S
N285 C283 1.325 . S
N285 C284 1.261 1_554 S
C286 H256 0.931 . S
C286 C283 1.357 1_556 S
C286 C287 1.312 . S
C287 H258 0.930 . S
C287 C282 1.261 . S
C287 C286 1.312 . S
C288 O260 1.214 . S
C288 O268 1.234 . S
C289 H261 0.929 . S
C289 C292 1.391 . S
C289 C294 1.391 . S
C290 H262 0.929 . S
C290 C291 1.390 . S
C290 N293 1.391 . S
C291 H263 0.930 . S
C291 C290 1.390 . S
C291 C292 1.392 . S
C292 H264 0.929 . S
C292 C289 1.391 . S
C292 C291 1.392 . S
N293 Co237 2.257 . S
N293 C290 1.391 . S
N293 C294 1.388 . S
C294 H265 0.930 . S
C294 C289 1.391 . S
C294 N293 1.388 . S
Co295 O297 2.143 . S
Co295 O303 2.074 . S
Co295 O306 2.093 . S
Co295 O319 2.097 . S
Co295 N336 2.151 1_556 S
Co295 N344 2.214 1_556 S
Co296 O297 2.160 . S
Co296 O302 2.058 . S
Co296 O312 2.057 . S
Co296 O327 2.037 . S
Co296 N331 2.145 . S
Co296 N352 2.257 . S
O297 Co295 2.143 . S
O297 Co296 2.160 . S
C298 O299 1.278 . S
C298 O306 1.224 . S
O299 C298 1.278 . S
C300 O301 1.245 . S
C300 O312 1.232 . S
O301 C300 1.245 . S
O302 Co296 2.058 . S
O302 C328 1.269 . S
O303 Co295 2.074 . S
O303 C328 1.257 . S
H304 C329 0.930 . S
H305 C335 0.930 . S
O306 Co295 2.093 . S
O306 C298 1.224 . S
H307 C339 0.929 . S
H308 C341 0.930 . S
H309 C342 0.930 . S
H310 C340 0.929 . S
H311 C343 0.928 . S
O312 Co296 2.057 . S
O312 C300 1.232 . S
H313 C332 0.929 . S
H314 C333 0.929 . S
H315 C345 0.931 . S
H316 C337 0.929 . S
H317 C346 0.930 . S
H318 C338 0.931 . S
O319 Co295 2.097 . S
O319 C347 1.214 . S
H320 C348 0.929 . S
H321 C349 0.929 . S
H322 C350 0.930 . S
H323 C351 0.929 . S
H324 C353 0.930 . S
H325 C330 0.930 . S
H326 C334 0.930 . S
O327 Co296 2.037 . S
O327 C347 1.234 . S
C328 O302 1.269 . S
C328 O303 1.257 . S
C329 H304 0.930 . S
C329 C332 1.388 . S
C329 C334 1.418 . S
C330 H325 0.930 . S
C330 C333 1.404 . S
C330 C334 1.353 . S
N331 Co296 2.145 . S
N331 C332 1.397 . S
N331 C333 1.334 . S
C332 H313 0.929 . S
C332 C329 1.388 . S
C332 N331 1.397 . S
C333 H314 0.929 . S
C333 C330 1.404 . S
C333 N331 1.334 . S
C334 H326 0.930 . S
C334 C329 1.418 . S
C334 C330 1.353 . S
C335 H305 0.930 . S
C335 N336 1.330 1_556 S
C335 C337 1.446 1_556 S
N336 Co295 2.151 1_554 S
N336 C335 1.330 1_554 S
N336 C340 1.418 . S
C337 H316 0.929 . S
C337 C335 1.446 1_554 S
C337 C338 1.332 . S
C338 H318 0.931 . S
C338 C337 1.332 . S
C338 C339 1.267 . S
C339 H307 0.929 . S
C339 C338 1.267 . S
C339 C340 1.251 . S
C340 H310 0.929 . S
C340 N336 1.418 . S
C340 C339 1.251 . S
C341 H308 0.930 . S
C341 C343 1.406 . S
C341 C346 1.261 . S
C342 H309 0.930 . S
C342 N344 1.325 . S
C342 C345 1.357 . S
C343 H311 0.928 . S
C343 C341 1.406 . S
C343 N344 1.261 . S
N344 Co295 2.214 1_554 S
N344 C342 1.325 . S
N344 C343 1.261 . S
C345 H315 0.931 . S
C345 C342 1.357 . S
C345 C346 1.312 . S
C346 H317 0.930 . S
C346 C341 1.261 . S
C346 C345 1.312 . S
C347 O319 1.214 . S
C347 O327 1.234 . S
C348 H320 0.929 . S
C348 C351 1.391 . S
C348 C353 1.391 . S
C349 H321 0.929 . S
C349 C350 1.390 . S
C349 N352 1.391 . S
C350 H322 0.930 . S
C350 C349 1.390 . S
C350 C351 1.392 . S
C351 H323 0.929 . S
C351 C348 1.391 . S
C351 C350 1.392 . S
N352 Co296 2.257 . S
N352 C349 1.391 . S
N352 C353 1.388 . S
C353 H324 0.930 . S
C353 C348 1.391 . S
C353 N352 1.388 . S
Co354 O356 2.143 . S
Co354 O362 2.074 . S
Co354 O365 2.093 . S
Co354 O378 2.097 . S
Co354 N395 2.151 . S
Co354 N403 2.214 . S
Co355 O356 2.160 . S
Co355 O361 2.058 . S
Co355 O371 2.057 . S
Co355 O386 2.037 . S
Co355 N390 2.145 . S
Co355 N411 2.257 . S
O356 Co354 2.143 . S
O356 Co355 2.160 . S
C357 O358 1.278 . S
C357 O365 1.224 . S
O358 C357 1.278 . S
C359 O360 1.245 . S
C359 O371 1.232 . S
O360 C359 1.245 . S
O361 Co355 2.058 . S
O361 C387 1.269 . S
O362 Co354 2.074 . S
O362 C387 1.257 . S
H363 C388 0.930 . S
H364 C394 0.930 . S
O365 Co354 2.093 . S
O365 C357 1.224 . S
H366 C398 0.929 . S
H367 C400 0.930 . S
H368 C401 0.930 . S
H369 C399 0.929 . S
H370 C402 0.928 . S
O371 Co355 2.057 . S
O371 C359 1.232 . S
H372 C391 0.929 . S
H373 C392 0.929 . S
H374 C404 0.931 . S
H375 C396 0.929 . S
H376 C405 0.930 . S
H377 C397 0.931 . S
O378 Co354 2.097 . S
O378 C406 1.214 . S
H379 C407 0.929 . S
H380 C408 0.929 . S
H381 C409 0.930 . S
H382 C410 0.929 . S
H383 C412 0.930 . S
H384 C389 0.930 . S
H385 C393 0.930 . S
O386 Co355 2.037 . S
O386 C406 1.234 . S
C387 O361 1.269 . S
C387 O362 1.257 . S
C388 H363 0.930 . S
C388 C391 1.388 . S
C388 C393 1.418 . S
C389 H384 0.930 . S
C389 C392 1.404 . S
C389 C393 1.353 . S
N390 Co355 2.145 . S
N390 C391 1.397 . S
N390 C392 1.334 . S
C391 H372 0.929 . S
C391 C388 1.388 . S
C391 N390 1.397 . S
C392 H373 0.929 . S
C392 C389 1.404 . S
C392 N390 1.334 . S
C393 H385 0.930 . S
C393 C388 1.418 . S
C393 C389 1.353 . S
C394 H364 0.930 . S
C394 N395 1.330 . S
C394 C396 1.446 . S
N395 Co354 2.151 . S
N395 C394 1.330 . S
N395 C399 1.418 1_554 S
C396 H375 0.929 . S
C396 C394 1.446 . S
C396 C397 1.332 1_554 S
C397 H377 0.931 . S
C397 C396 1.332 1_556 S
C397 C398 1.267 . S
C398 H366 0.929 . S
C398 C397 1.267 . S
C398 C399 1.251 . S
C399 H369 0.929 . S
C399 N395 1.418 1_556 S
C399 C398 1.251 . S
C400 H367 0.930 . S
C400 C402 1.406 . S
C400 C405 1.261 . S
C401 H368 0.930 . S
C401 N403 1.325 . S
C401 C404 1.357 1_554 S
C402 H370 0.928 . S
C402 C400 1.406 . S
C402 N403 1.261 1_556 S
N403 Co354 2.214 . S
N403 C401 1.325 . S
N403 C402 1.261 1_554 S
C404 H374 0.931 . S
C404 C401 1.357 1_556 S
C404 C405 1.312 . S
C405 H376 0.930 . S
C405 C400 1.261 . S
C405 C404 1.312 . S
C406 O378 1.214 . S
C406 O386 1.234 . S
C407 H379 0.929 . S
C407 C410 1.391 . S
C407 C412 1.391 . S
C408 H380 0.929 . S
C408 C409 1.390 . S
C408 N411 1.391 . S
C409 H381 0.930 . S
C409 C408 1.390 . S
C409 C410 1.392 . S
C410 H382 0.929 . S
C410 C407 1.391 . S
C410 C409 1.392 . S
N411 Co355 2.257 . S
N411 C408 1.391 . S
N411 C412 1.388 . S
C412 H383 0.930 . S
C412 C407 1.391 . S
C412 N411 1.388 . S
Co413 O415 2.143 . S
Co413 O421 2.074 . S
Co413 O424 2.093 . S
Co413 O437 2.097 . S
Co413 N454 2.151 1_556 S
Co413 N462 2.214 1_556 S
Co414 O415 2.160 . S
Co414 O420 2.058 . S
Co414 O430 2.057 . S
Co414 O445 2.037 . S
Co414 N449 2.145 . S
Co414 N470 2.257 . S
O415 Co413 2.143 . S
O415 Co414 2.160 . S
C416 O417 1.278 . S
C416 O424 1.224 . S
O417 C416 1.278 . S
C418 O419 1.245 . S
C418 O430 1.232 . S
O419 C418 1.245 . S
O420 Co414 2.058 . S
O420 C446 1.269 . S
O421 Co413 2.074 . S
O421 C446 1.257 . S
H422 C447 0.930 . S
H423 C453 0.930 . S
O424 Co413 2.093 . S
O424 C416 1.224 . S
H425 C457 0.929 . S
H426 C459 0.930 . S
H427 C460 0.930 . S
H428 C458 0.929 . S
H429 C461 0.928 . S
O430 Co414 2.057 . S
O430 C418 1.232 . S
H431 C450 0.929 . S
H432 C451 0.929 . S
H433 C463 0.931 . S
H434 C455 0.929 . S
H435 C464 0.930 . S
H436 C456 0.931 . S
O437 Co413 2.097 . S
O437 C465 1.214 . S
H438 C466 0.929 . S
H439 C467 0.929 . S
H440 C468 0.930 . S
H441 C469 0.929 . S
H442 C471 0.930 . S
H443 C448 0.930 . S
H444 C452 0.930 . S
O445 Co414 2.037 . S
O445 C465 1.234 . S
C446 O420 1.269 . S
C446 O421 1.257 . S
C447 H422 0.930 . S
C447 C450 1.388 . S
C447 C452 1.418 . S
C448 H443 0.930 . S
C448 C451 1.404 . S
C448 C452 1.353 . S
N449 Co414 2.145 . S
N449 C450 1.397 . S
N449 C451 1.334 . S
C450 H431 0.929 . S
C450 C447 1.388 . S
C450 N449 1.397 . S
C451 H432 0.929 . S
C451 C448 1.404 . S
C451 N449 1.334 . S
C452 H444 0.930 . S
C452 C447 1.418 . S
C452 C448 1.353 . S
C453 H423 0.930 . S
C453 N454 1.330 1_556 S
C453 C455 1.446 1_556 S
N454 Co413 2.151 1_554 S
N454 C453 1.330 1_554 S
N454 C458 1.418 . S
C455 H434 0.929 . S
C455 C453 1.446 1_554 S
C455 C456 1.332 . S
C456 H436 0.931 . S
C456 C455 1.332 . S
C456 C457 1.267 . S
C457 H425 0.929 . S
C457 C456 1.267 . S
C457 C458 1.251 . S
C458 H428 0.929 . S
C458 N454 1.418 . S
C458 C457 1.251 . S
C459 H426 0.930 . S
C459 C461 1.406 . S
C459 C464 1.261 . S
C460 H427 0.930 . S
C460 N462 1.325 . S
C460 C463 1.357 . S
C461 H429 0.928 . S
C461 C459 1.406 . S
C461 N462 1.261 . S
N462 Co413 2.214 1_554 S
N462 C460 1.325 . S
N462 C461 1.261 . S
C463 H433 0.931 . S
C463 C460 1.357 . S
C463 C464 1.312 . S
C464 H435 0.930 . S
C464 C459 1.261 . S
C464 C463 1.312 . S
C465 O437 1.214 . S
C465 O445 1.234 . S
C466 H438 0.929 . S
C466 C469 1.391 . S
C466 C471 1.391 . S
C467 H439 0.929 . S
C467 C468 1.390 . S
C467 N470 1.391 . S
C468 H440 0.930 . S
C468 C467 1.390 . S
C468 C469 1.392 . S
C469 H441 0.929 . S
C469 C466 1.391 . S
C469 C468 1.392 . S
N470 Co414 2.257 . S
N470 C467 1.391 . S
N470 C471 1.388 . S
C471 H442 0.930 . S
C471 C466 1.391 . S
C471 N470 1.388 . S
Co472 O474 2.143 . S
Co472 O480 2.074 . S
Co472 O483 2.093 . S
Co472 O496 2.097 . S
Co472 N513 2.151 . S
Co472 N521 2.214 . S
Co473 O474 2.160 . S
Co473 O479 2.058 . S
Co473 O489 2.057 . S
Co473 O504 2.037 . S
Co473 N508 2.145 . S
Co473 N529 2.257 . S
O474 Co472 2.143 . S
O474 Co473 2.160 . S
C475 O476 1.278 . S
C475 O483 1.224 . S
O476 C475 1.278 . S
C477 O478 1.245 . S
C477 O489 1.232 . S
O478 C477 1.245 . S
O479 Co473 2.058 . S
O479 C505 1.269 . S
O480 Co472 2.074 . S
O480 C505 1.257 . S
H481 C506 0.930 . S
H482 C512 0.930 . S
O483 Co472 2.093 . S
O483 C475 1.224 . S
H484 C516 0.929 . S
H485 C518 0.930 . S
H486 C519 0.930 . S
H487 C517 0.929 . S
H488 C520 0.928 . S
O489 Co473 2.057 . S
O489 C477 1.232 . S
H490 C509 0.929 . S
H491 C510 0.929 . S
H492 C522 0.931 . S
H493 C514 0.929 . S
H494 C523 0.930 . S
H495 C515 0.931 . S
O496 Co472 2.097 . S
O496 C524 1.214 . S
H497 C525 0.929 . S
H498 C526 0.929 . S
H499 C527 0.930 . S
H500 C528 0.929 . S
H501 C530 0.930 . S
H502 C507 0.930 . S
H503 C511 0.930 . S
O504 Co473 2.037 . S
O504 C524 1.234 . S
C505 O479 1.269 . S
C505 O480 1.257 . S
C506 H481 0.930 . S
C506 C509 1.388 . S
C506 C511 1.418 . S
C507 H502 0.930 . S
C507 C510 1.404 . S
C507 C511 1.353 . S
N508 Co473 2.145 . S
N508 C509 1.397 . S
N508 C510 1.334 . S
C509 H490 0.929 . S
C509 C506 1.388 . S
C509 N508 1.397 . S
C510 H491 0.929 . S
C510 C507 1.404 . S
C510 N508 1.334 . S
C511 H503 0.930 . S
C511 C506 1.418 . S
C511 C507 1.353 . S
C512 H482 0.930 . S
C512 N513 1.330 . S
C512 C514 1.446 . S
N513 Co472 2.151 . S
N513 C512 1.330 . S
N513 C517 1.418 . S
C514 H493 0.929 . S
C514 C512 1.446 . S
C514 C515 1.332 . S
C515 H495 0.931 . S
C515 C514 1.332 . S
C515 C516 1.267 . S
C516 H484 0.929 . S
C516 C515 1.267 . S
C516 C517 1.251 . S
C517 H487 0.929 . S
C517 N513 1.418 . S
C517 C516 1.251 . S
C518 H485 0.930 . S
C518 C520 1.406 . S
C518 C523 1.261 . S
C519 H486 0.930 . S
C519 N521 1.325 . S
C519 C522 1.357 . S
C520 H488 0.928 . S
C520 C518 1.406 . S
C520 N521 1.261 . S
N521 Co472 2.214 . S
N521 C519 1.325 . S
N521 C520 1.261 . S
C522 H492 0.931 . S
C522 C519 1.357 . S
C522 C523 1.312 . S
C523 H494 0.930 . S
C523 C518 1.261 . S
C523 C522 1.312 . S
C524 O496 1.214 . S
C524 O504 1.234 . S
C525 H497 0.929 . S
C525 C528 1.391 . S
C525 C530 1.391 . S
C526 H498 0.929 . S
C526 C527 1.390 . S
C526 N529 1.391 . S
C527 H499 0.930 . S
C527 C526 1.390 . S
C527 C528 1.392 . S
C528 H500 0.929 . S
C528 C525 1.391 . S
C528 C527 1.392 . S
N529 Co473 2.257 . S
N529 C526 1.391 . S
N529 C530 1.388 . S
C530 H501 0.930 . S
C530 C525 1.391 . S
C530 N529 1.388 . S
Co531 O533 2.143 . S
Co531 O539 2.074 . S
Co531 O542 2.093 . S
Co531 O555 2.097 . S
Co531 N572 2.151 . S
Co531 N580 2.214 . S
Co532 O533 2.160 . S
Co532 O538 2.058 . S
Co532 O548 2.057 . S
Co532 O563 2.037 . S
Co532 N567 2.145 . S
Co532 N588 2.257 . S
O533 Co531 2.143 . S
O533 Co532 2.160 . S
C534 O535 1.278 . S
C534 O542 1.224 . S
O535 C534 1.278 . S
C536 O537 1.245 . S
C536 O548 1.232 . S
O537 C536 1.245 . S
O538 Co532 2.058 . S
O538 C564 1.269 . S
O539 Co531 2.074 . S
O539 C564 1.257 . S
H540 C565 0.930 . S
H541 C571 0.930 . S
O542 Co531 2.093 . S
O542 C534 1.224 . S
H543 C575 0.929 . S
H544 C577 0.930 . S
H545 C578 0.930 . S
H546 C576 0.929 . S
H547 C579 0.928 . S
O548 Co532 2.057 . S
O548 C536 1.232 . S
H549 C568 0.929 . S
H550 C569 0.929 . S
H551 C581 0.931 . S
H552 C573 0.929 . S
H553 C582 0.930 . S
H554 C574 0.931 . S
O555 Co531 2.097 . S
O555 C583 1.214 . S
H556 C584 0.929 . S
H557 C585 0.929 . S
H558 C586 0.930 . S
H559 C587 0.929 . S
H560 C589 0.930 . S
H561 C566 0.930 . S
H562 C570 0.930 . S
O563 Co532 2.037 . S
O563 C583 1.234 . S
C564 O538 1.269 . S
C564 O539 1.257 . S
C565 H540 0.930 . S
C565 C568 1.388 . S
C565 C570 1.418 . S
C566 H561 0.930 . S
C566 C569 1.404 . S
C566 C570 1.353 . S
N567 Co532 2.145 . S
N567 C568 1.397 . S
N567 C569 1.334 . S
C568 H549 0.929 . S
C568 C565 1.388 . S
C568 N567 1.397 . S
C569 H550 0.929 . S
C569 C566 1.404 . S
C569 N567 1.334 . S
C570 H562 0.930 . S
C570 C565 1.418 . S
C570 C566 1.353 . S
C571 H541 0.930 . S
C571 N572 1.330 . S
C571 C573 1.446 . S
N572 Co531 2.151 . S
N572 C571 1.330 . S
N572 C576 1.418 . S
C573 H552 0.929 . S
C573 C571 1.446 . S
C573 C574 1.332 . S
C574 H554 0.931 . S
C574 C573 1.332 . S
C574 C575 1.267 . S
C575 H543 0.929 . S
C575 C574 1.267 . S
C575 C576 1.251 . S
C576 H546 0.929 . S
C576 N572 1.418 . S
C576 C575 1.251 . S
C577 H544 0.930 . S
C577 C579 1.406 . S
C577 C582 1.261 . S
C578 H545 0.930 . S
C578 N580 1.325 . S
C578 C581 1.357 . S
C579 H547 0.928 . S
C579 C577 1.406 . S
C579 N580 1.261 . S
N580 Co531 2.214 . S
N580 C578 1.325 . S
N580 C579 1.261 . S
C581 H551 0.931 . S
C581 C578 1.357 . S
C581 C582 1.312 . S
C582 H553 0.930 . S
C582 C577 1.261 . S
C582 C581 1.312 . S
C583 O555 1.214 . S
C583 O563 1.234 . S
C584 H556 0.929 . S
C584 C587 1.391 . S
C584 C589 1.391 . S
C585 H557 0.929 . S
C585 C586 1.390 . S
C585 N588 1.391 . S
C586 H558 0.930 . S
C586 C585 1.390 . S
C586 C587 1.392 . S
C587 H559 0.929 . S
C587 C584 1.391 . S
C587 C586 1.392 . S
N588 Co532 2.257 . S
N588 C585 1.391 . S
N588 C589 1.388 . S
C589 H560 0.930 . S
C589 C584 1.391 . S
C589 N588 1.388 . S
Co590 O592 2.143 . S
Co590 O598 2.074 . S
Co590 O601 2.093 . S
Co590 O614 2.097 . S
Co590 N631 2.151 . S
Co590 N639 2.214 . S
Co591 O592 2.160 . S
Co591 O597 2.058 . S
Co591 O607 2.057 . S
Co591 O622 2.037 . S
Co591 N626 2.145 . S
Co591 N647 2.257 . S
O592 Co590 2.143 . S
O592 Co591 2.160 . S
C593 O594 1.278 . S
C593 O601 1.224 . S
O594 C593 1.278 . S
C595 O596 1.245 . S
C595 O607 1.232 . S
O596 C595 1.245 . S
O597 Co591 2.058 . S
O597 C623 1.269 . S
O598 Co590 2.074 . S
O598 C623 1.257 . S
H599 C624 0.930 . S
H600 C630 0.930 . S
O601 Co590 2.093 . S
O601 C593 1.224 . S
H602 C634 0.929 . S
H603 C636 0.930 . S
H604 C637 0.930 . S
H605 C635 0.929 . S
H606 C638 0.928 . S
O607 Co591 2.057 . S
O607 C595 1.232 . S
H608 C627 0.929 . S
H609 C628 0.929 . S
H610 C640 0.931 . S
H611 C632 0.929 . S
H612 C641 0.930 . S
H613 C633 0.931 . S
O614 Co590 2.097 . S
O614 C642 1.214 . S
H615 C643 0.929 . S
H616 C644 0.929 . S
H617 C645 0.930 . S
H618 C646 0.929 . S
H619 C648 0.930 . S
H620 C625 0.930 . S
H621 C629 0.930 . S
O622 Co591 2.037 . S
O622 C642 1.234 . S
C623 O597 1.269 . S
C623 O598 1.257 . S
C624 H599 0.930 . S
C624 C627 1.388 . S
C624 C629 1.418 . S
C625 H620 0.930 . S
C625 C628 1.404 . S
C625 C629 1.353 . S
N626 Co591 2.145 . S
N626 C627 1.397 . S
N626 C628 1.334 . S
C627 H608 0.929 . S
C627 C624 1.388 . S
C627 N626 1.397 . S
C628 H609 0.929 . S
C628 C625 1.404 . S
C628 N626 1.334 . S
C629 H621 0.930 . S
C629 C624 1.418 . S
C629 C625 1.353 . S
C630 H600 0.930 . S
C630 N631 1.330 . S
C630 C632 1.446 . S
N631 Co590 2.151 . S
N631 C630 1.330 . S
N631 C635 1.418 . S
C632 H611 0.929 . S
C632 C630 1.446 . S
C632 C633 1.332 . S
C633 H613 0.931 . S
C633 C632 1.332 . S
C633 C634 1.267 . S
C634 H602 0.929 . S
C634 C633 1.267 . S
C634 C635 1.251 . S
C635 H605 0.929 . S
C635 N631 1.418 . S
C635 C634 1.251 . S
C636 H603 0.930 . S
C636 C638 1.406 . S
C636 C641 1.261 . S
C637 H604 0.930 . S
C637 N639 1.325 . S
C637 C640 1.357 . S
C638 H606 0.928 . S
C638 C636 1.406 . S
C638 N639 1.261 . S
N639 Co590 2.214 . S
N639 C637 1.325 . S
N639 C638 1.261 . S
C640 H610 0.931 . S
C640 C637 1.357 . S
C640 C641 1.312 . S
C641 H612 0.930 . S
C641 C636 1.261 . S
C641 C640 1.312 . S
C642 O614 1.214 . S
C642 O622 1.234 . S
C643 H615 0.929 . S
C643 C646 1.391 . S
C643 C648 1.391 . S
C644 H616 0.929 . S
C644 C645 1.390 . S
C644 N647 1.391 . S
C645 H617 0.930 . S
C645 C644 1.390 . S
C645 C646 1.392 . S
C646 H618 0.929 . S
C646 C643 1.391 . S
C646 C645 1.392 . S
N647 Co591 2.257 . S
N647 C644 1.391 . S
N647 C648 1.388 . S
C648 H619 0.930 . S
C648 C643 1.391 . S
C648 N647 1.388 . S
Co649 O651 2.143 . S
Co649 O657 2.074 . S
Co649 O660 2.093 . S
Co649 O673 2.097 . S
Co649 N690 2.151 . S
Co649 N698 2.214 . S
Co650 O651 2.160 . S
Co650 O656 2.058 . S
Co650 O666 2.057 . S
Co650 O681 2.037 . S
Co650 N685 2.145 . S
Co650 N706 2.257 . S
O651 Co649 2.143 . S
O651 Co650 2.160 . S
C652 O653 1.278 . S
C652 O660 1.224 . S
O653 C652 1.278 . S
C654 O655 1.245 . S
C654 O666 1.232 . S
O655 C654 1.245 . S
O656 Co650 2.058 . S
O656 C682 1.269 . S
O657 Co649 2.074 . S
O657 C682 1.257 . S
H658 C683 0.930 . S
H659 C689 0.930 . S
O660 Co649 2.093 . S
O660 C652 1.224 . S
H661 C693 0.929 . S
H662 C695 0.930 . S
H663 C696 0.930 . S
H664 C694 0.929 . S
H665 C697 0.928 . S
O666 Co650 2.057 . S
O666 C654 1.232 . S
H667 C686 0.929 . S
H668 C687 0.929 . S
H669 C699 0.931 . S
H670 C691 0.929 . S
H671 C700 0.930 . S
H672 C692 0.931 . S
O673 Co649 2.097 . S
O673 C701 1.214 . S
H674 C702 0.929 . S
H675 C703 0.929 . S
H676 C704 0.930 . S
H677 C705 0.929 . S
H678 C707 0.930 . S
H679 C684 0.930 . S
H680 C688 0.930 . S
O681 Co650 2.037 . S
O681 C701 1.234 . S
C682 O656 1.269 . S
C682 O657 1.257 . S
C683 H658 0.930 . S
C683 C686 1.388 . S
C683 C688 1.418 . S
C684 H679 0.930 . S
C684 C687 1.404 . S
C684 C688 1.353 . S
N685 Co650 2.145 . S
N685 C686 1.397 . S
N685 C687 1.334 . S
C686 H667 0.929 . S
C686 C683 1.388 . S
C686 N685 1.397 . S
C687 H668 0.929 . S
C687 C684 1.404 . S
C687 N685 1.334 . S
C688 H680 0.930 . S
C688 C683 1.418 . S
C688 C684 1.353 . S
C689 H659 0.930 . S
C689 N690 1.330 . S
C689 C691 1.446 . S
N690 Co649 2.151 . S
N690 C689 1.330 . S
N690 C694 1.418 . S
C691 H670 0.929 . S
C691 C689 1.446 . S
C691 C692 1.332 . S
C692 H672 0.931 . S
C692 C691 1.332 . S
C692 C693 1.267 . S
C693 H661 0.929 . S
C693 C692 1.267 . S
C693 C694 1.251 . S
C694 H664 0.929 . S
C694 N690 1.418 . S
C694 C693 1.251 . S
C695 H662 0.930 . S
C695 C697 1.406 . S
C695 C700 1.261 . S
C696 H663 0.930 . S
C696 N698 1.325 . S
C696 C699 1.357 . S
C697 H665 0.928 . S
C697 C695 1.406 . S
C697 N698 1.261 . S
N698 Co649 2.214 . S
N698 C696 1.325 . S
N698 C697 1.261 . S
C699 H669 0.931 . S
C699 C696 1.357 . S
C699 C700 1.312 . S
C700 H671 0.930 . S
C700 C695 1.261 . S
C700 C699 1.312 . S
C701 O673 1.214 . S
C701 O681 1.234 . S
C702 H674 0.929 . S
C702 C705 1.391 . S
C702 C707 1.391 . S
C703 H675 0.929 . S
C703 C704 1.390 . S
C703 N706 1.391 . S
C704 H676 0.930 . S
C704 C703 1.390 . S
C704 C705 1.392 . S
C705 H677 0.929 . S
C705 C702 1.391 . S
C705 C704 1.392 . S
N706 Co650 2.257 . S
N706 C703 1.391 . S
N706 C707 1.388 . S
C707 H678 0.930 . S
C707 C702 1.391 . S
C707 N706 1.388 . S
Co708 O710 2.143 . S
Co708 O716 2.074 . S
Co708 O719 2.093 . S
Co708 O732 2.097 . S
Co708 N749 2.151 . S
Co708 N757 2.214 . S
Co709 O710 2.160 . S
Co709 O715 2.058 . S
Co709 O725 2.057 . S
Co709 O740 2.037 . S
Co709 N744 2.145 . S
Co709 N765 2.257 . S
O710 Co708 2.143 . S
O710 Co709 2.160 . S
C711 O712 1.278 . S
C711 O719 1.224 . S
O712 C711 1.278 . S
C713 O714 1.245 . S
C713 O725 1.232 . S
O714 C713 1.245 . S
O715 Co709 2.058 . S
O715 C741 1.269 . S
O716 Co708 2.074 . S
O716 C741 1.257 . S
H717 C742 0.930 . S
H718 C748 0.930 . S
O719 Co708 2.093 . S
O719 C711 1.224 . S
H720 C752 0.929 . S
H721 C754 0.930 . S
H722 C755 0.930 . S
H723 C753 0.929 . S
H724 C756 0.928 . S
O725 Co709 2.057 . S
O725 C713 1.232 . S
H726 C745 0.929 . S
H727 C746 0.929 . S
H728 C758 0.931 . S
H729 C750 0.929 . S
H730 C759 0.930 . S
H731 C751 0.931 . S
O732 Co708 2.097 . S
O732 C760 1.214 . S
H733 C761 0.929 . S
H734 C762 0.929 . S
H735 C763 0.930 . S
H736 C764 0.929 . S
H737 C766 0.930 . S
H738 C743 0.930 . S
H739 C747 0.930 . S
O740 Co709 2.037 . S
O740 C760 1.234 . S
C741 O715 1.269 . S
C741 O716 1.257 . S
C742 H717 0.930 . S
C742 C745 1.388 . S
C742 C747 1.418 . S
C743 H738 0.930 . S
C743 C746 1.404 . S
C743 C747 1.353 . S
N744 Co709 2.145 . S
N744 C745 1.397 . S
N744 C746 1.334 . S
C745 H726 0.929 . S
C745 C742 1.388 . S
C745 N744 1.397 . S
C746 H727 0.929 . S
C746 C743 1.404 . S
C746 N744 1.334 . S
C747 H739 0.930 . S
C747 C742 1.418 . S
C747 C743 1.353 . S
C748 H718 0.930 . S
C748 N749 1.330 . S
C748 C750 1.446 . S
N749 Co708 2.151 . S
N749 C748 1.330 . S
N749 C753 1.418 . S
C750 H729 0.929 . S
C750 C748 1.446 . S
C750 C751 1.332 . S
C751 H731 0.931 . S
C751 C750 1.332 . S
C751 C752 1.267 . S
C752 H720 0.929 . S
C752 C751 1.267 . S
C752 C753 1.251 . S
C753 H723 0.929 . S
C753 N749 1.418 . S
C753 C752 1.251 . S
C754 H721 0.930 . S
C754 C756 1.406 . S
C754 C759 1.261 . S
C755 H722 0.930 . S
C755 N757 1.325 . S
C755 C758 1.357 . S
C756 H724 0.928 . S
C756 C754 1.406 . S
C756 N757 1.261 . S
N757 Co708 2.214 . S
N757 C755 1.325 . S
N757 C756 1.261 . S
C758 H728 0.931 . S
C758 C755 1.357 . S
C758 C759 1.312 . S
C759 H730 0.930 . S
C759 C754 1.261 . S
C759 C758 1.312 . S
C760 O732 1.214 . S
C760 O740 1.234 . S
C761 H733 0.929 . S
C761 C764 1.391 . S
C761 C766 1.391 . S
C762 H734 0.929 . S
C762 C763 1.390 . S
C762 N765 1.391 . S
C763 H735 0.930 . S
C763 C762 1.390 . S
C763 C764 1.392 . S
C764 H736 0.929 . S
C764 C761 1.391 . S
C764 C763 1.392 . S
N765 Co709 2.257 . S
N765 C762 1.391 . S
N765 C766 1.388 . S
C766 H737 0.930 . S
C766 C761 1.391 . S
C766 N765 1.388 . S
Co767 O769 2.143 . S
Co767 O775 2.074 . S
Co767 O778 2.093 . S
Co767 O791 2.097 . S
Co767 N808 2.151 . S
Co767 N816 2.214 . S
Co768 O769 2.160 . S
Co768 O774 2.058 . S
Co768 O784 2.057 . S
Co768 O799 2.037 . S
Co768 N803 2.145 . S
Co768 N824 2.257 . S
O769 Co767 2.143 . S
O769 Co768 2.160 . S
C770 O771 1.278 . S
C770 O778 1.224 . S
O771 C770 1.278 . S
C772 O773 1.245 . S
C772 O784 1.232 . S
O773 C772 1.245 . S
O774 Co768 2.058 . S
O774 C800 1.269 . S
O775 Co767 2.074 . S
O775 C800 1.257 . S
H776 C801 0.930 . S
H777 C807 0.930 . S
O778 Co767 2.093 . S
O778 C770 1.224 . S
H779 C811 0.929 . S
H780 C813 0.930 . S
H781 C814 0.930 . S
H782 C812 0.929 . S
H783 C815 0.928 . S
O784 Co768 2.057 . S
O784 C772 1.232 . S
H785 C804 0.929 . S
H786 C805 0.929 . S
H787 C817 0.931 . S
H788 C809 0.929 . S
H789 C818 0.930 . S
H790 C810 0.931 . S
O791 Co767 2.097 . S
O791 C819 1.214 . S
H792 C820 0.929 . S
H793 C821 0.929 . S
H794 C822 0.930 . S
H795 C823 0.929 . S
H796 C825 0.930 . S
H797 C802 0.930 . S
H798 C806 0.930 . S
O799 Co768 2.037 . S
O799 C819 1.234 . S
C800 O774 1.269 . S
C800 O775 1.257 . S
C801 H776 0.930 . S
C801 C804 1.388 . S
C801 C806 1.418 . S
C802 H797 0.930 . S
C802 C805 1.404 . S
C802 C806 1.353 . S
N803 Co768 2.145 . S
N803 C804 1.397 . S
N803 C805 1.334 . S
C804 H785 0.929 . S
C804 C801 1.388 . S
C804 N803 1.397 . S
C805 H786 0.929 . S
C805 C802 1.404 . S
C805 N803 1.334 . S
C806 H798 0.930 . S
C806 C801 1.418 . S
C806 C802 1.353 . S
C807 H777 0.930 . S
C807 N808 1.330 . S
C807 C809 1.446 . S
N808 Co767 2.151 . S
N808 C807 1.330 . S
N808 C812 1.418 . S
C809 H788 0.929 . S
C809 C807 1.446 . S
C809 C810 1.332 . S
C810 H790 0.931 . S
C810 C809 1.332 . S
C810 C811 1.267 . S
C811 H779 0.929 . S
C811 C810 1.267 . S
C811 C812 1.251 . S
C812 H782 0.929 . S
C812 N808 1.418 . S
C812 C811 1.251 . S
C813 H780 0.930 . S
C813 C815 1.406 . S
C813 C818 1.261 . S
C814 H781 0.930 . S
C814 N816 1.325 . S
C814 C817 1.357 . S
C815 H783 0.928 . S
C815 C813 1.406 . S
C815 N816 1.261 . S
N816 Co767 2.214 . S
N816 C814 1.325 . S
N816 C815 1.261 . S
C817 H787 0.931 . S
C817 C814 1.357 . S
C817 C818 1.312 . S
C818 H789 0.930 . S
C818 C813 1.261 . S
C818 C817 1.312 . S
C819 O791 1.214 . S
C819 O799 1.234 . S
C820 H792 0.929 . S
C820 C823 1.391 . S
C820 C825 1.391 . S
C821 H793 0.929 . S
C821 C822 1.390 . S
C821 N824 1.391 . S
C822 H794 0.930 . S
C822 C821 1.390 . S
C822 C823 1.392 . S
C823 H795 0.929 . S
C823 C820 1.391 . S
C823 C822 1.392 . S
N824 Co768 2.257 . S
N824 C821 1.391 . S
N824 C825 1.388 . S
C825 H796 0.930 . S
C825 C820 1.391 . S
C825 N824 1.388 . S
Co826 O828 2.143 . S
Co826 O834 2.074 . S
Co826 O837 2.093 . S
Co826 O850 2.097 . S
Co826 N867 2.151 . S
Co826 N875 2.214 . S
Co827 O828 2.160 . S
Co827 O833 2.058 . S
Co827 O843 2.057 . S
Co827 O858 2.037 . S
Co827 N862 2.145 . S
Co827 N883 2.257 . S
O828 Co826 2.143 . S
O828 Co827 2.160 . S
C829 O830 1.278 . S
C829 O837 1.224 . S
O830 C829 1.278 . S
C831 O832 1.245 . S
C831 O843 1.232 . S
O832 C831 1.245 . S
O833 Co827 2.058 . S
O833 C859 1.269 . S
O834 Co826 2.074 . S
O834 C859 1.257 . S
H835 C860 0.930 . S
H836 C866 0.930 . S
O837 Co826 2.093 . S
O837 C829 1.224 . S
H838 C870 0.929 . S
H839 C872 0.930 . S
H840 C873 0.930 . S
H841 C871 0.929 . S
H842 C874 0.928 . S
O843 Co827 2.057 . S
O843 C831 1.232 . S
H844 C863 0.929 . S
H845 C864 0.929 . S
H846 C876 0.931 . S
H847 C868 0.929 . S
H848 C877 0.930 . S
H849 C869 0.931 . S
O850 Co826 2.097 . S
O850 C878 1.214 . S
H851 C879 0.929 . S
H852 C880 0.929 . S
H853 C881 0.930 . S
H854 C882 0.929 . S
H855 C884 0.930 . S
H856 C861 0.930 . S
H857 C865 0.930 . S
O858 Co827 2.037 . S
O858 C878 1.234 . S
C859 O833 1.269 . S
C859 O834 1.257 . S
C860 H835 0.930 . S
C860 C863 1.388 . S
C860 C865 1.418 . S
C861 H856 0.930 . S
C861 C864 1.404 . S
C861 C865 1.353 . S
N862 Co827 2.145 . S
N862 C863 1.397 . S
N862 C864 1.334 . S
C863 H844 0.929 . S
C863 C860 1.388 . S
C863 N862 1.397 . S
C864 H845 0.929 . S
C864 C861 1.404 . S
C864 N862 1.334 . S
C865 H857 0.930 . S
C865 C860 1.418 . S
C865 C861 1.353 . S
C866 H836 0.930 . S
C866 N867 1.330 . S
C866 C868 1.446 . S
N867 Co826 2.151 . S
N867 C866 1.330 . S
N867 C871 1.418 . S
C868 H847 0.929 . S
C868 C866 1.446 . S
C868 C869 1.332 . S
C869 H849 0.931 . S
C869 C868 1.332 . S
C869 C870 1.267 . S
C870 H838 0.929 . S
C870 C869 1.267 . S
C870 C871 1.251 . S
C871 H841 0.929 . S
C871 N867 1.418 . S
C871 C870 1.251 . S
C872 H839 0.930 . S
C872 C874 1.406 . S
C872 C877 1.261 . S
C873 H840 0.930 . S
C873 N875 1.325 . S
C873 C876 1.357 . S
C874 H842 0.928 . S
C874 C872 1.406 . S
C874 N875 1.261 . S
N875 Co826 2.214 . S
N875 C873 1.325 . S
N875 C874 1.261 . S
C876 H846 0.931 . S
C876 C873 1.357 . S
C876 C877 1.312 . S
C877 H848 0.930 . S
C877 C872 1.261 . S
C877 C876 1.312 . S
C878 O850 1.214 . S
C878 O858 1.234 . S
C879 H851 0.929 . S
C879 C882 1.391 . S
C879 C884 1.391 . S
C880 H852 0.929 . S
C880 C881 1.390 . S
C880 N883 1.391 . S
C881 H853 0.930 . S
C881 C880 1.390 . S
C881 C882 1.392 . S
C882 H854 0.929 . S
C882 C879 1.391 . S
C882 C881 1.392 . S
N883 Co827 2.257 . S
N883 C880 1.391 . S
N883 C884 1.388 . S
C884 H855 0.930 . S
C884 C879 1.391 . S
C884 N883 1.388 . S
Co885 O887 2.143 . S
Co885 O893 2.074 . S
Co885 O896 2.093 . S
Co885 O909 2.097 . S
Co885 N926 2.151 . S
Co885 N934 2.214 . S
Co886 O887 2.160 . S
Co886 O892 2.058 . S
Co886 O902 2.057 . S
Co886 O917 2.037 . S
Co886 N921 2.145 . S
Co886 N942 2.257 . S
O887 Co885 2.143 . S
O887 Co886 2.160 . S
C888 O889 1.278 . S
C888 O896 1.224 . S
O889 C888 1.278 . S
C890 O891 1.245 . S
C890 O902 1.232 . S
O891 C890 1.245 . S
O892 Co886 2.058 . S
O892 C918 1.269 . S
O893 Co885 2.074 . S
O893 C918 1.257 . S
H894 C919 0.930 . S
H895 C925 0.930 . S
O896 Co885 2.093 . S
O896 C888 1.224 . S
H897 C929 0.929 . S
H898 C931 0.930 . S
H899 C932 0.930 . S
H900 C930 0.929 . S
H901 C933 0.928 . S
O902 Co886 2.057 . S
O902 C890 1.232 . S
H903 C922 0.929 . S
H904 C923 0.929 . S
H905 C935 0.931 . S
H906 C927 0.929 . S
H907 C936 0.930 . S
H908 C928 0.931 . S
O909 Co885 2.097 . S
O909 C937 1.214 . S
H910 C938 0.929 . S
H911 C939 0.929 . S
H912 C940 0.930 . S
H913 C941 0.929 . S
H914 C943 0.930 . S
H915 C920 0.930 . S
H916 C924 0.930 . S
O917 Co886 2.037 . S
O917 C937 1.234 . S
C918 O892 1.269 . S
C918 O893 1.257 . S
C919 H894 0.930 . S
C919 C922 1.388 . S
C919 C924 1.418 . S
C920 H915 0.930 . S
C920 C923 1.404 . S
C920 C924 1.353 . S
N921 Co886 2.145 . S
N921 C922 1.397 . S
N921 C923 1.334 . S
C922 H903 0.929 . S
C922 C919 1.388 . S
C922 N921 1.397 . S
C923 H904 0.929 . S
C923 C920 1.404 . S
C923 N921 1.334 . S
C924 H916 0.930 . S
C924 C919 1.418 . S
C924 C920 1.353 . S
C925 H895 0.930 . S
C925 N926 1.330 . S
C925 C927 1.446 . S
N926 Co885 2.151 . S
N926 C925 1.330 . S
N926 C930 1.418 . S
C927 H906 0.929 . S
C927 C925 1.446 . S
C927 C928 1.332 . S
C928 H908 0.931 . S
C928 C927 1.332 . S
C928 C929 1.267 . S
C929 H897 0.929 . S
C929 C928 1.267 . S
C929 C930 1.251 . S
C930 H900 0.929 . S
C930 N926 1.418 . S
C930 C929 1.251 . S
C931 H898 0.930 . S
C931 C933 1.406 . S
C931 C936 1.261 . S
C932 H899 0.930 . S
C932 N934 1.325 . S
C932 C935 1.357 . S
C933 H901 0.928 . S
C933 C931 1.406 . S
C933 N934 1.261 . S
N934 Co885 2.214 . S
N934 C932 1.325 . S
N934 C933 1.261 . S
C935 H905 0.931 . S
C935 C932 1.357 . S
C935 C936 1.312 . S
C936 H907 0.930 . S
C936 C931 1.261 . S
C936 C935 1.312 . S
C937 O909 1.214 . S
C937 O917 1.234 . S
C938 H910 0.929 . S
C938 C941 1.391 . S
C938 C943 1.391 . S
C939 H911 0.929 . S
C939 C940 1.390 . S
C939 N942 1.391 . S
C940 H912 0.930 . S
C940 C939 1.390 . S
C940 C941 1.392 . S
C941 H913 0.929 . S
C941 C938 1.391 . S
C941 C940 1.392 . S
N942 Co886 2.257 . S
N942 C939 1.391 . S
N942 C943 1.388 . S
C943 H914 0.930 . S
C943 C938 1.391 . S
C943 N942 1.388 . S
H944 C952 0.929 . S
H945 C954 0.930 . S
H946 C956 0.930 . S
H947 C959 0.929 . S
H948 C962 0.930 . S
H949 C964 0.960 . S
H950 C964 0.960 . S
H951 C964 0.960 . S
C952 H944 0.929 . S
C952 C953 1.377 . S
C952 C954 1.384 . S
C953 C952 1.377 . S
C953 C959 1.390 . S
C954 H945 0.930 . S
C954 C952 1.384 . S
C954 C955 1.372 . S
C955 C954 1.372 . S
C955 C956 1.400 . S
C955 C960 1.490 . S
C956 H946 0.930 . S
C956 C955 1.400 . S
C956 C959 1.386 . S
H957 C973 0.930 . S
H958 C974 0.931 . S
C959 H947 0.929 . S
C959 C953 1.390 . S
C959 C956 1.386 . S
C960 C955 1.490 . S
C960 C962 1.395 . S
C960 C963 1.403 . S
H961 C967 0.930 . S
C962 H948 0.930 . S
C962 C960 1.395 . S
C962 C965 1.403 . S
C963 C960 1.403 . S
C963 C964 1.524 . S
C963 C967 1.400 1_565 S
C964 H949 0.960 . S
C964 H950 0.960 . S
C964 H951 0.960 . S
C964 C963 1.524 . S
C965 C962 1.403 . S
C965 C966 1.392 1_565 S
C965 C969 1.495 1_565 S
C966 C965 1.392 1_545 S
C966 C967 1.385 . S
C966 C968 1.478 . S
C967 H961 0.930 . S
C967 C963 1.400 1_545 S
C967 C966 1.385 . S
C968 C966 1.478 . S
C968 C970 1.381 . S
C968 C974 1.383 . S
C969 C965 1.495 1_545 S
C969 H975 0.959 1_545 S
C969 H976 0.961 . S
C969 H977 0.960 . S
C970 C968 1.381 . S
C970 C971 1.394 . S
C970 H978 0.930 . S
C971 C970 1.394 . S
C971 C972 1.383 . S
C971 H979 0.929 . S
C972 C971 1.383 . S
C972 C973 1.377 . S
C973 H957 0.930 . S
C973 C972 1.377 . S
C973 C974 1.379 . S
C974 H958 0.931 . S
C974 C968 1.383 . S
C974 C973 1.379 . S
H975 C969 0.959 1_565 S
H976 C969 0.961 . S
H977 C969 0.960 . S
H978 C970 0.930 . S
H979 C971 0.929 . S
H980 C988 0.929 . S
H981 C990 0.930 . S
H982 C992 0.930 . S
H983 C995 0.929 . S
H984 C998 0.930 . S
H985 C1000 0.960 1_655 S
H986 C1000 0.960 . S
H987 C1000 0.960 . S
C988 H980 0.929 . S
C988 C989 1.377 . S
C988 C990 1.384 . S
C989 C988 1.377 . S
C989 C995 1.390 . S
C990 H981 0.930 . S
C990 C988 1.384 . S
C990 C991 1.372 . S
C991 C990 1.372 . S
C991 C992 1.400 . S
C991 C996 1.490 . S
C992 H982 0.930 . S
C992 C991 1.400 . S
C992 C995 1.386 . S
H993 C1009 0.930 . S
H994 C1010 0.931 . S
C995 H983 0.929 . S
C995 C989 1.390 . S
C995 C992 1.386 . S
C996 C991 1.490 . S
C996 C998 1.395 . S
C996 C999 1.403 . S
H997 C1003 0.930 . S
C998 H984 0.930 . S
C998 C996 1.395 . S
C998 C1001 1.344 1_455 S
C999 C996 1.403 . S
C999 C1000 1.524 . S
C999 C1003 1.400 1_455 S
C1000 H985 0.960 1_455 S
C1000 H986 0.960 . S
C1000 H987 0.960 . S
C1000 C999 1.524 . S
C1001 C998 1.344 1_655 S
C1001 C1002 1.448 . S
C1001 C1005 1.500 . S
C1002 C1001 1.448 . S
C1002 C1003 1.385 . S
C1002 C1004 1.478 . S
C1003 H997 0.930 . S
C1003 C999 1.400 1_655 S
C1003 C1002 1.385 . S
C1004 C1002 1.478 . S
C1004 C1006 1.381 . S
C1004 C1010 1.383 . S
C1005 C1001 1.500 . S
C1005 H1011 0.959 1_655 S
C1005 H1012 0.961 . S
C1005 H1013 0.960 . S
C1006 C1004 1.381 . S
C1006 C1007 1.394 . S
C1006 H1014 0.930 . S
C1007 C1006 1.394 . S
C1007 C1008 1.383 . S
C1007 H1015 0.929 . S
C1008 C1007 1.383 . S
C1008 C1009 1.377 . S
C1009 H993 0.930 . S
C1009 C1008 1.377 . S
C1009 C1010 1.379 . S
C1010 H994 0.931 . S
C1010 C1004 1.383 . S
C1010 C1009 1.379 . S
H1011 C1005 0.959 1_455 S
H1012 C1005 0.961 . S
H1013 C1005 0.960 . S
H1014 C1006 0.930 . S
H1015 C1007 0.929 . S
H1016 C1024 0.929 . S
H1017 C1026 0.930 . S
H1018 C1028 0.930 . S
H1019 C1031 0.929 . S
H1020 C1034 0.905 1_565 S
H1021 C1036 0.973 . S
H1022 C1036 0.960 . S
H1023 C1036 0.960 . S
C1024 H1016 0.929 . S
C1024 C1025 1.377 . S
C1024 C1026 1.384 . S
C1025 C1024 1.377 . S
C1025 C1031 1.390 . S
C1026 H1017 0.930 . S
C1026 C1024 1.384 . S
C1026 C1027 1.372 . S
C1027 C1026 1.372 . S
C1027 C1028 1.400 . S
C1027 C1032 1.490 . S
C1028 H1018 0.930 . S
C1028 C1027 1.400 . S
C1028 C1031 1.386 . S
H1029 C1045 0.930 . S
H1030 C1046 0.931 . S
C1031 H1019 0.929 . S
C1031 C1025 1.390 . S
C1031 C1028 1.386 . S
C1032 C1027 1.490 . S
C1032 C1034 1.369 1_565 S
C1032 C1035 1.391 1_565 S
H1033 C1039 0.930 . S
C1034 H1020 0.905 1_545 S
C1034 C1032 1.369 1_545 S
C1034 C1037 1.455 . S
C1035 C1032 1.391 1_545 S
C1035 C1036 1.512 1_545 S
C1035 C1039 1.425 . S
C1036 H1021 0.973 . S
C1036 H1022 0.960 . S
C1036 H1023 0.960 . S
C1036 C1035 1.512 1_565 S
C1037 C1034 1.455 . S
C1037 C1038 1.392 . S
C1037 C1041 1.495 . S
C1038 C1037 1.392 . S
C1038 C1039 1.385 . S
C1038 C1040 1.478 . S
C1039 H1033 0.930 . S
C1039 C1035 1.425 . S
C1039 C1038 1.385 . S
C1040 C1038 1.478 . S
C1040 C1042 1.381 . S
C1040 C1046 1.383 . S
C1041 C1037 1.495 . S
C1041 H1047 0.959 . S
C1041 H1048 0.961 . S
C1041 H1049 0.960 . S
C1042 C1040 1.381 . S
C1042 C1043 1.394 . S
C1042 H1050 0.930 . S
C1043 C1042 1.394 . S
C1043 C1044 1.383 . S
C1043 H1051 0.929 . S
C1044 C1043 1.383 . S
C1044 C1045 1.377 . S
C1045 H1029 0.930 . S
C1045 C1044 1.377 . S
C1045 C1046 1.379 . S
C1046 H1030 0.931 . S
C1046 C1040 1.383 . S
C1046 C1045 1.379 . S
H1047 C1041 0.959 . S
H1048 C1041 0.961 . S
H1049 C1041 0.960 . S
H1050 C1042 0.930 . S
H1051 C1043 0.929 . S
H1052 C1060 0.929 . S
H1053 C1062 0.930 . S
H1054 C1064 0.930 . S
H1055 C1067 0.929 . S
H1056 C1070 0.930 . S
H1057 C1072 0.960 1_655 S
H1058 C1072 0.960 . S
H1059 C1072 0.960 . S
C1060 H1052 0.929 . S
C1060 C1061 1.377 . S
C1060 C1062 1.384 . S
C1061 C1060 1.377 . S
C1061 C1067 1.390 . S
C1062 H1053 0.930 . S
C1062 C1060 1.384 . S
C1062 C1063 1.372 . S
C1063 C1062 1.372 . S
C1063 C1064 1.400 . S
C1063 C1068 1.490 . S
C1064 H1054 0.930 . S
C1064 C1063 1.400 . S
C1064 C1067 1.386 . S
H1065 C1081 0.930 . S
H1066 C1082 0.931 . S
C1067 H1055 0.929 . S
C1067 C1061 1.390 . S
C1067 C1064 1.386 . S
C1068 C1063 1.490 . S
C1068 C1070 1.395 . S
C1068 C1071 1.403 . S
H1069 C1075 0.930 . S
C1070 H1056 0.930 . S
C1070 C1068 1.395 . S
C1070 C1073 1.403 1_455 S
C1071 C1068 1.403 . S
C1071 C1072 1.524 . S
C1071 C1075 1.400 1_455 S
C1072 H1057 0.960 1_455 S
C1072 H1058 0.960 . S
C1072 H1059 0.960 . S
C1072 C1071 1.524 . S
C1073 C1070 1.403 1_655 S
C1073 C1074 1.392 . S
C1073 C1077 1.495 . S
C1074 C1073 1.392 . S
C1074 C1075 1.385 . S
C1074 C1076 1.478 . S
C1075 H1069 0.930 . S
C1075 C1071 1.400 1_655 S
C1075 C1074 1.385 . S
C1076 C1074 1.478 . S
C1076 C1078 1.381 . S
C1076 C1082 1.383 . S
C1077 C1073 1.495 . S
C1077 H1083 0.959 1_655 S
C1077 H1084 0.961 . S
C1077 H1085 0.960 . S
C1078 C1076 1.381 . S
C1078 C1079 1.394 . S
C1078 H1086 0.930 . S
C1079 C1078 1.394 . S
C1079 C1080 1.383 . S
C1079 H1087 0.929 . S
C1080 C1079 1.383 . S
C1080 C1081 1.377 . S
C1081 H1065 0.930 . S
C1081 C1080 1.377 . S
C1081 C1082 1.379 . S
C1082 H1066 0.931 . S
C1082 C1076 1.383 . S
C1082 C1081 1.379 . S
H1083 C1077 0.959 1_455 S
H1084 C1077 0.961 . S
H1085 C1077 0.960 . S
H1086 C1078 0.930 . S
H1087 C1079 0.929 . S
H1088 C1096 0.929 . S
H1089 C1098 0.930 . S
H1090 C1100 0.930 1_556 S
H1091 C1103 0.929 1_556 S
H1092 C1106 0.930 . S
H1093 C1108 0.960 . S
H1094 C1108 0.960 . S
H1095 C1108 0.960 . S
C1096 H1088 0.929 . S
C1096 C1097 1.377 . S
C1096 C1098 1.384 . S
C1097 C1096 1.377 . S
C1097 C1103 1.390 . S
C1098 H1089 0.930 . S
C1098 C1096 1.384 . S
C1098 C1099 1.372 . S
C1099 C1098 1.372 . S
C1099 C1100 1.400 . S
C1099 C1104 1.490 . S
C1100 H1090 0.930 1_554 S
C1100 C1099 1.400 . S
C1100 C1103 1.386 . S
H1101 C1117 0.930 . S
H1102 C1118 0.931 . S
C1103 H1091 0.929 1_554 S
C1103 C1097 1.390 . S
C1103 C1100 1.386 . S
C1104 C1099 1.490 . S
C1104 C1106 1.395 . S
C1104 C1107 1.403 1_554 S
H1105 C1111 0.930 . S
C1106 H1092 0.930 . S
C1106 C1104 1.395 . S
C1106 C1109 1.403 . S
C1107 C1104 1.403 1_556 S
C1107 C1108 1.524 . S
C1107 C1111 1.400 . S
C1108 H1093 0.960 . S
C1108 H1094 0.960 . S
C1108 H1095 0.960 . S
C1108 C1107 1.524 . S
C1109 C1106 1.403 . S
C1109 C1110 1.392 1_554 S
C1109 C1113 1.495 . S
C1110 C1109 1.392 1_556 S
C1110 C1111 1.385 . S
C1110 C1112 1.478 . S
C1111 H1105 0.930 . S
C1111 C1107 1.400 . S
C1111 C1110 1.385 . S
C1112 C1110 1.478 . S
C1112 C1114 1.381 . S
C1112 C1118 1.383 . S
C1113 C1109 1.495 . S
C1113 H1119 0.959 . S
C1113 H1120 0.961 . S
C1113 H1121 0.960 . S
C1114 C1112 1.381 . S
C1114 C1115 1.394 . S
C1114 H1122 0.930 1_556 S
C1115 C1114 1.394 . S
C1115 C1116 1.383 . S
C1115 H1123 0.929 . S
C1116 C1115 1.383 . S
C1116 C1117 1.377 . S
C1117 H1101 0.930 . S
C1117 C1116 1.377 . S
C1117 C1118 1.379 . S
C1118 H1102 0.931 . S
C1118 C1112 1.383 . S
C1118 C1117 1.379 . S
H1119 C1113 0.959 . S
H1120 C1113 0.961 . S
H1121 C1113 0.960 . S
H1122 C1114 0.930 1_554 S
H1123 C1115 0.929 . S
H1124 C1132 0.929 . S
H1125 C1134 0.930 . S
H1126 C1136 0.930 . S
H1127 C1139 0.929 . S
H1128 C1142 0.930 1_556 S
H1129 C1144 0.960 . S
H1130 C1144 0.960 . S
H1131 C1144 0.960 . S
C1132 H1124 0.929 . S
C1132 C1133 1.377 . S
C1132 C1134 1.384 . S
C1133 C1132 1.377 . S
C1133 C1139 1.390 1_556 S
C1134 H1125 0.930 . S
C1134 C1132 1.384 . S
C1134 C1135 1.372 1_556 S
C1135 C1134 1.372 1_554 S
C1135 C1136 1.400 . S
C1135 C1140 1.490 . S
C1136 H1126 0.930 . S
C1136 C1135 1.400 . S
C1136 C1139 1.386 . S
H1137 C1153 0.930 . S
H1138 C1154 0.931 . S
C1139 H1127 0.929 . S
C1139 C1133 1.390 1_554 S
C1139 C1136 1.386 . S
C1140 C1135 1.490 . S
C1140 C1142 1.395 . S
C1140 C1143 1.403 . S
H1141 C1147 0.930 . S
C1142 H1128 0.930 1_554 S
C1142 C1140 1.395 . S
C1142 C1145 1.403 . S
C1143 C1140 1.403 . S
C1143 C1144 1.524 . S
C1143 C1147 1.400 . S
C1144 H1129 0.960 . S
C1144 H1130 0.960 . S
C1144 H1131 0.960 . S
C1144 C1143 1.524 . S
C1145 C1142 1.403 . S
C1145 C1146 1.392 . S
C1145 C1149 1.495 1_554 S
C1146 C1145 1.392 . S
C1146 C1147 1.385 . S
C1146 C1148 1.478 . S
C1147 H1141 0.930 . S
C1147 C1143 1.400 . S
C1147 C1146 1.385 . S
C1148 C1146 1.478 . S
C1148 C1150 1.381 . S
C1148 C1154 1.383 . S
C1149 C1145 1.495 1_556 S
C1149 H1155 0.959 . S
C1149 H1156 0.961 1_556 S
C1149 H1157 0.960 . S
C1150 C1148 1.381 . S
C1150 C1151 1.394 . S
C1150 H1158 0.930 . S
C1151 C1150 1.394 . S
C1151 C1152 1.383 . S
C1151 H1159 0.929 . S
C1152 C1151 1.383 . S
C1152 C1153 1.377 . S
C1153 H1137 0.930 . S
C1153 C1152 1.377 . S
C1153 C1154 1.379 . S
C1154 H1138 0.931 . S
C1154 C1148 1.383 . S
C1154 C1153 1.379 . S
H1155 C1149 0.959 . S
H1156 C1149 0.961 1_554 S
H1157 C1149 0.960 . S
H1158 C1150 0.930 . S
H1159 C1151 0.929 . S
H1160 C1168 0.929 . S
H1161 C1170 0.930 1_554 S
H1162 C1172 0.930 . S
H1163 C1175 0.929 . S
H1164 C1178 0.930 . S
H1165 C1180 0.960 . S
H1166 C1180 0.960 . S
H1167 C1180 0.960 . S
C1168 H1160 0.929 . S
C1168 C1169 1.377 . S
C1168 C1170 1.384 . S
C1169 C1168 1.377 . S
C1169 C1175 1.390 . S
C1170 H1161 0.930 1_556 S
C1170 C1168 1.384 . S
C1170 C1171 1.372 . S
C1171 C1170 1.372 . S
C1171 C1172 1.400 . S
C1171 C1176 1.490 . S
C1172 H1162 0.930 . S
C1172 C1171 1.400 . S
C1172 C1175 1.386 . S
H1173 C1189 0.930 . S
H1174 C1190 0.931 1_556 S
C1175 H1163 0.929 . S
C1175 C1169 1.390 . S
C1175 C1172 1.386 . S
C1176 C1171 1.490 . S
C1176 C1178 1.395 1_556 S
C1176 C1179 1.403 . S
H1177 C1183 0.930 . S
C1178 H1164 0.930 . S
C1178 C1176 1.395 1_554 S
C1178 C1181 1.403 . S
C1179 C1176 1.403 . S
C1179 C1180 1.524 . S
C1179 C1183 1.400 . S
C1180 H1165 0.960 . S
C1180 H1166 0.960 . S
C1180 H1167 0.960 . S
C1180 C1179 1.524 . S
C1181 C1178 1.403 . S
C1181 C1182 1.392 . S
C1181 C1185 1.495 . S
C1182 C1181 1.392 . S
C1182 C1183 1.385 1_554 S
C1182 C1184 1.478 . S
C1183 H1177 0.930 . S
C1183 C1179 1.400 . S
C1183 C1182 1.385 1_556 S
C1184 C1182 1.478 . S
C1184 C1186 1.381 . S
C1184 C1190 1.383 . S
C1185 C1181 1.495 . S
C1185 H1191 0.959 . S
C1185 H1192 0.961 . S
C1185 H1193 0.960 . S
C1186 C1184 1.381 . S
C1186 C1187 1.394 . S
C1186 H1194 0.930 . S
C1187 C1186 1.394 . S
C1187 C1188 1.383 . S
C1187 H1195 0.929 . S
C1188 C1187 1.383 . S
C1188 C1189 1.377 . S
C1189 H1173 0.930 . S
C1189 C1188 1.377 . S
C1189 C1190 1.379 . S
C1190 H1174 0.931 1_554 S
C1190 C1184 1.383 . S
C1190 C1189 1.379 . S
H1191 C1185 0.959 . S
H1192 C1185 0.961 . S
H1193 C1185 0.960 . S
H1194 C1186 0.930 . S
H1195 C1187 0.929 . S
H1196 C1204 0.929 . S
H1197 C1206 0.930 . S
H1198 C1208 0.930 . S
H1199 C1211 0.929 . S
H1200 C1214 0.930 . S
H1201 C1216 0.960 . S
H1202 C1216 0.960 . S
H1203 C1216 0.960 . S
C1204 H1196 0.929 . S
C1204 C1205 1.377 . S
C1204 C1206 1.384 . S
C1205 C1204 1.377 . S
C1205 C1211 1.390 . S
C1206 H1197 0.930 . S
C1206 C1204 1.384 . S
C1206 C1207 1.372 . S
C1207 C1206 1.372 . S
C1207 C1208 1.400 . S
C1207 C1212 1.490 . S
C1208 H1198 0.930 . S
C1208 C1207 1.400 . S
C1208 C1211 1.386 . S
H1209 C1225 0.930 . S
H1210 C1226 0.931 . S
C1211 H1199 0.929 . S
C1211 C1205 1.390 . S
C1211 C1208 1.386 . S
C1212 C1207 1.490 . S
C1212 C1214 1.395 . S
C1212 C1215 1.403 . S
H1213 C1219 0.930 . S
C1214 H1200 0.930 . S
C1214 C1212 1.395 . S
C1214 C1217 1.403 1_554 S
C1215 C1212 1.403 . S
C1215 C1216 1.524 . S
C1215 C1219 1.400 . S
C1216 H1201 0.960 . S
C1216 H1202 0.960 . S
C1216 H1203 0.960 . S
C1216 C1215 1.524 . S
C1217 C1214 1.403 1_556 S
C1217 C1218 1.392 1_556 S
C1217 C1221 1.495 . S
C1218 C1217 1.392 1_554 S
C1218 C1219 1.385 . S
C1218 C1220 1.478 . S
C1219 H1213 0.930 . S
C1219 C1215 1.400 . S
C1219 C1218 1.385 . S
C1220 C1218 1.478 . S
C1220 C1222 1.381 1_554 S
C1220 C1226 1.383 . S
C1221 C1217 1.495 . S
C1221 H1227 0.959 . S
C1221 H1228 0.961 . S
C1221 H1229 0.960 . S
C1222 C1220 1.381 1_556 S
C1222 C1223 1.394 . S
C1222 H1230 0.930 . S
C1223 C1222 1.394 . S
C1223 C1224 1.383 . S
C1223 H1231 0.929 . S
C1224 C1223 1.383 . S
C1224 C1225 1.377 . S
C1225 H1209 0.930 . S
C1225 C1224 1.377 . S
C1225 C1226 1.379 1_556 S
C1226 H1210 0.931 . S
C1226 C1220 1.383 . S
C1226 C1225 1.379 1_554 S
H1227 C1221 0.959 . S
H1228 C1221 0.961 . S
H1229 C1221 0.960 . S
H1230 C1222 0.930 . S
H1231 C1223 0.929 . S
H1232 C1240 0.929 . S
H1233 C1242 0.930 . S
H1234 C1244 0.930 . S
H1235 C1247 0.929 . S
H1236 C1250 0.930 . S
H1237 C1252 0.960 . S
H1238 C1252 0.960 . S
H1239 C1252 0.960 . S
C1240 H1232 0.929 . S
C1240 C1241 1.377 . S
C1240 C1242 1.384 . S
C1241 C1240 1.377 . S
C1241 C1247 1.390 . S
C1242 H1233 0.930 . S
C1242 C1240 1.384 . S
C1242 C1243 1.372 . S
C1243 C1242 1.372 . S
C1243 C1244 1.400 . S
C1243 C1248 1.490 . S
C1244 H1234 0.930 . S
C1244 C1243 1.400 . S
C1244 C1247 1.386 . S
H1245 C1261 0.930 . S
H1246 C1262 0.931 . S
C1247 H1235 0.929 . S
C1247 C1241 1.390 . S
C1247 C1244 1.386 . S
C1248 C1243 1.490 . S
C1248 C1250 1.395 . S
C1248 C1251 1.403 . S
H1249 C1255 0.930 . S
C1250 H1236 0.930 . S
C1250 C1248 1.395 . S
C1250 C1253 1.403 . S
C1251 C1248 1.403 . S
C1251 C1252 1.524 . S
C1251 C1255 1.400 . S
C1252 H1237 0.960 . S
C1252 H1238 0.960 . S
C1252 H1239 0.960 . S
C1252 C1251 1.524 . S
C1253 C1250 1.403 . S
C1253 C1254 1.392 . S
C1253 C1257 1.495 . S
C1254 C1253 1.392 . S
C1254 C1255 1.385 . S
C1254 C1256 1.478 . S
C1255 H1249 0.930 . S
C1255 C1251 1.400 . S
C1255 C1254 1.385 . S
C1256 C1254 1.478 . S
C1256 C1258 1.381 . S
C1256 C1262 1.383 . S
C1257 C1253 1.495 . S
C1257 H1263 0.959 . S
C1257 H1264 0.961 . S
C1257 H1265 0.960 . S
C1258 C1256 1.381 . S
C1258 C1259 1.394 . S
C1258 H1266 0.930 . S
C1259 C1258 1.394 . S
C1259 C1260 1.383 . S
C1259 H1267 0.929 . S
C1260 C1259 1.383 . S
C1260 C1261 1.377 . S
C1261 H1245 0.930 . S
C1261 C1260 1.377 . S
C1261 C1262 1.379 . S
C1262 H1246 0.931 . S
C1262 C1256 1.383 . S
C1262 C1261 1.379 . S
H1263 C1257 0.959 . S
H1264 C1257 0.961 . S
H1265 C1257 0.960 . S
H1266 C1258 0.930 . S
H1267 C1259 0.929 . S
H1268 C1276 0.929 . S
H1269 C1278 0.930 . S
H1270 C1280 0.930 . S
H1271 C1283 0.929 . S
H1272 C1286 0.930 . S
H1273 C1288 0.960 . S
H1274 C1288 0.960 . S
H1275 C1288 0.960 . S
C1276 H1268 0.929 . S
C1276 C1277 1.377 . S
C1276 C1278 1.384 . S
C1277 C1276 1.377 . S
C1277 C1283 1.390 . S
C1278 H1269 0.930 . S
C1278 C1276 1.384 . S
C1278 C1279 1.372 . S
C1279 C1278 1.372 . S
C1279 C1280 1.400 . S
C1279 C1284 1.490 . S
C1280 H1270 0.930 . S
C1280 C1279 1.400 . S
C1280 C1283 1.386 . S
H1281 C1297 0.930 . S
H1282 C1298 0.931 . S
C1283 H1271 0.929 . S
C1283 C1277 1.390 . S
C1283 C1280 1.386 . S
C1284 C1279 1.490 . S
C1284 C1286 1.395 . S
C1284 C1287 1.403 . S
H1285 C1291 0.930 . S
C1286 H1272 0.930 . S
C1286 C1284 1.395 . S
C1286 C1289 1.403 . S
C1287 C1284 1.403 . S
C1287 C1288 1.524 . S
C1287 C1291 1.400 . S
C1288 H1273 0.960 . S
C1288 H1274 0.960 . S
C1288 H1275 0.960 . S
C1288 C1287 1.524 . S
C1289 C1286 1.403 . S
C1289 C1290 1.392 . S
C1289 C1293 1.495 . S
C1290 C1289 1.392 . S
C1290 C1291 1.385 . S
C1290 C1292 1.478 . S
C1291 H1285 0.930 . S
C1291 C1287 1.400 . S
C1291 C1290 1.385 . S
C1292 C1290 1.478 . S
C1292 C1294 1.381 . S
C1292 C1298 1.383 . S
C1293 C1289 1.495 . S
C1293 H1299 0.959 . S
C1293 H1300 0.961 . S
C1293 H1301 0.960 . S
C1294 C1292 1.381 . S
C1294 C1295 1.394 . S
C1294 H1302 0.930 . S
C1295 C1294 1.394 . S
C1295 C1296 1.383 . S
C1295 H1303 0.929 . S
C1296 C1295 1.383 . S
C1296 C1297 1.377 . S
C1297 H1281 0.930 . S
C1297 C1296 1.377 . S
C1297 C1298 1.379 . S
C1298 H1282 0.931 . S
C1298 C1292 1.383 . S
C1298 C1297 1.379 . S
H1299 C1293 0.959 . S
H1300 C1293 0.961 . S
H1301 C1293 0.960 . S
H1302 C1294 0.930 . S
H1303 C1295 0.929 . S
H1304 C1312 0.929 . S
H1305 C1314 0.930 . S
H1306 C1316 0.930 . S
H1307 C1319 0.929 . S
H1308 C1322 0.930 . S
H1309 C1324 0.960 . S
H1310 C1324 0.960 . S
H1311 C1324 0.960 . S
C1312 H1304 0.929 . S
C1312 C1313 1.377 . S
C1312 C1314 1.384 . S
C1313 C1312 1.377 . S
C1313 C1319 1.390 . S
C1314 H1305 0.930 . S
C1314 C1312 1.384 . S
C1314 C1315 1.372 . S
C1315 C1314 1.372 . S
C1315 C1316 1.400 . S
C1315 C1320 1.490 . S
C1316 H1306 0.930 . S
C1316 C1315 1.400 . S
C1316 C1319 1.386 . S
H1317 C1333 0.930 . S
H1318 C1334 0.931 . S
C1319 H1307 0.929 . S
C1319 C1313 1.390 . S
C1319 C1316 1.386 . S
C1320 C1315 1.490 . S
C1320 C1322 1.395 . S
C1320 C1323 1.403 . S
H1321 C1327 0.930 . S
C1322 H1308 0.930 . S
C1322 C1320 1.395 . S
C1322 C1325 1.403 . S
C1323 C1320 1.403 . S
C1323 C1324 1.524 . S
C1323 C1327 1.400 . S
C1324 H1309 0.960 . S
C1324 H1310 0.960 . S
C1324 H1311 0.960 . S
C1324 C1323 1.524 . S
C1325 C1322 1.403 . S
C1325 C1326 1.392 . S
C1325 C1329 1.495 . S
C1326 C1325 1.392 . S
C1326 C1327 1.385 . S
C1326 C1328 1.478 . S
C1327 H1321 0.930 . S
C1327 C1323 1.400 . S
C1327 C1326 1.385 . S
C1328 C1326 1.478 . S
C1328 C1330 1.381 . S
C1328 C1334 1.383 . S
C1329 C1325 1.495 . S
C1329 H1335 0.959 . S
C1329 H1336 0.961 . S
C1329 H1337 0.960 . S
C1330 C1328 1.381 . S
C1330 C1331 1.394 . S
C1330 H1338 0.930 . S
C1331 C1330 1.394 . S
C1331 C1332 1.383 . S
C1331 H1339 0.929 . S
C1332 C1331 1.383 . S
C1332 C1333 1.377 . S
C1333 H1317 0.930 . S
C1333 C1332 1.377 . S
C1333 C1334 1.379 . S
C1334 H1318 0.931 . S
C1334 C1328 1.383 . S
C1334 C1333 1.379 . S
H1335 C1329 0.959 . S
H1336 C1329 0.961 . S
H1337 C1329 0.960 . S
H1338 C1330 0.930 . S
H1339 C1331 0.929 . S
H1340 C1348 0.929 . S
H1341 C1350 0.930 . S
H1342 C1352 0.930 . S
H1343 C1355 0.929 . S
H1344 C1358 0.930 . S
H1345 C1360 0.960 . S
H1346 C1360 0.960 . S
H1347 C1360 0.960 . S
C1348 H1340 0.929 . S
C1348 C1349 1.377 . S
C1348 C1350 1.384 . S
C1349 C1348 1.377 . S
C1349 C1355 1.390 . S
C1350 H1341 0.930 . S
C1350 C1348 1.384 . S
C1350 C1351 1.372 . S
C1351 C1350 1.372 . S
C1351 C1352 1.400 . S
C1351 C1356 1.490 . S
C1352 H1342 0.930 . S
C1352 C1351 1.400 . S
C1352 C1355 1.386 . S
H1353 C1369 0.930 . S
H1354 C1370 0.931 . S
C1355 H1343 0.929 . S
C1355 C1349 1.390 . S
C1355 C1352 1.386 . S
C1356 C1351 1.490 . S
C1356 C1358 1.395 . S
C1356 C1359 1.403 . S
H1357 C1363 0.930 . S
C1358 H1344 0.930 . S
C1358 C1356 1.395 . S
C1358 C1361 1.403 . S
C1359 C1356 1.403 . S
C1359 C1360 1.524 . S
C1359 C1363 1.400 . S
C1360 H1345 0.960 . S
C1360 H1346 0.960 . S
C1360 H1347 0.960 . S
C1360 C1359 1.524 . S
C1361 C1358 1.403 . S
C1361 C1362 1.392 . S
C1361 C1365 1.495 . S
C1362 C1361 1.392 . S
C1362 C1363 1.385 . S
C1362 C1364 1.478 . S
C1363 H1357 0.930 . S
C1363 C1359 1.400 . S
C1363 C1362 1.385 . S
C1364 C1362 1.478 . S
C1364 C1366 1.381 . S
C1364 C1370 1.383 . S
C1365 C1361 1.495 . S
C1365 H1371 0.959 . S
C1365 H1372 0.961 . S
C1365 H1373 0.960 . S
C1366 C1364 1.381 . S
C1366 C1367 1.394 . S
C1366 H1374 0.930 . S
C1367 C1366 1.394 . S
C1367 C1368 1.383 . S
C1367 H1375 0.929 . S
C1368 C1367 1.383 . S
C1368 C1369 1.377 . S
C1369 H1353 0.930 . S
C1369 C1368 1.377 . S
C1369 C1370 1.379 . S
C1370 H1354 0.931 . S
C1370 C1364 1.383 . S
C1370 C1369 1.379 . S
H1371 C1365 0.959 . S
H1372 C1365 0.961 . S
H1373 C1365 0.960 . S
H1374 C1366 0.930 . S
H1375 C1367 0.929 . S
H1376 C1384 0.929 . S
H1377 C1386 0.930 . S
H1378 C1388 0.930 . S
H1379 C1391 0.929 . S
H1380 C1394 0.930 . S
H1381 C1396 0.960 . S
H1382 C1396 0.960 . S
H1383 C1396 0.960 . S
C1384 H1376 0.929 . S
C1384 C1385 1.377 . S
C1384 C1386 1.384 . S
C1385 C1384 1.377 . S
C1385 C1391 1.390 . S
C1386 H1377 0.930 . S
C1386 C1384 1.384 . S
C1386 C1387 1.372 . S
C1387 C1386 1.372 . S
C1387 C1388 1.400 . S
C1387 C1392 1.490 . S
C1388 H1378 0.930 . S
C1388 C1387 1.400 . S
C1388 C1391 1.386 . S
H1389 C1405 0.930 . S
H1390 C1406 0.931 . S
C1391 H1379 0.929 . S
C1391 C1385 1.390 . S
C1391 C1388 1.386 . S
C1392 C1387 1.490 . S
C1392 C1394 1.395 1_565 S
C1392 C1395 1.403 . S
H1393 C1399 0.930 . S
C1394 H1380 0.930 . S
C1394 C1392 1.395 1_545 S
C1394 C1397 1.403 . S
C1395 C1392 1.403 . S
C1395 C1396 1.524 . S
C1395 C1399 1.400 1_565 S
C1396 H1381 0.960 . S
C1396 H1382 0.960 . S
C1396 H1383 0.960 . S
C1396 C1395 1.524 . S
C1397 C1394 1.403 . S
C1397 C1398 1.392 . S
C1397 C1401 1.495 . S
C1398 C1397 1.392 . S
C1398 C1399 1.385 . S
C1398 C1400 1.478 . S
C1399 H1393 0.930 . S
C1399 C1395 1.400 1_545 S
C1399 C1398 1.385 . S
C1400 C1398 1.478 . S
C1400 C1402 1.381 . S
C1400 C1406 1.383 . S
C1401 C1397 1.495 . S
C1401 H1407 0.959 . S
C1401 H1408 0.961 . S
C1401 H1409 0.960 . S
C1402 C1400 1.381 . S
C1402 C1403 1.394 . S
C1402 H1410 0.930 . S
C1403 C1402 1.394 . S
C1403 C1404 1.383 . S
C1403 H1411 0.929 . S
C1404 C1403 1.383 . S
C1404 C1405 1.377 . S
C1405 H1389 0.930 . S
C1405 C1404 1.377 . S
C1405 C1406 1.379 . S
C1406 H1390 0.931 . S
C1406 C1400 1.383 . S
C1406 C1405 1.379 . S
H1407 C1401 0.959 . S
H1408 C1401 0.961 . S
H1409 C1401 0.960 . S
H1410 C1402 0.930 . S
H1411 C1403 0.929 . S
H1412 C1420 0.929 . S
H1413 C1422 0.930 . S
H1414 C1424 0.930 . S
H1415 C1427 0.929 . S
H1416 C1430 0.930 . S
H1417 C1432 0.960 1_455 S
H1418 C1432 0.960 . S
H1419 C1432 0.960 . S
C1420 H1412 0.929 . S
C1420 C1421 1.377 . S
C1420 C1422 1.384 . S
C1421 C1420 1.377 . S
C1421 C1427 1.390 . S
C1422 H1413 0.930 . S
C1422 C1420 1.384 . S
C1422 C1423 1.372 . S
C1423 C1422 1.372 . S
C1423 C1424 1.400 . S
C1423 C1428 1.490 . S
C1424 H1414 0.930 . S
C1424 C1423 1.400 . S
C1424 C1427 1.386 . S
H1425 C1441 0.930 . S
H1426 C1442 0.931 . S
C1427 H1415 0.929 . S
C1427 C1421 1.390 . S
C1427 C1424 1.386 . S
C1428 C1423 1.490 . S
C1428 C1430 1.395 . S
C1428 C1431 1.403 . S
H1429 C1435 0.930 . S
C1430 H1416 0.930 . S
C1430 C1428 1.395 . S
C1430 C1433 1.403 1_655 S
C1431 C1428 1.403 . S
C1431 C1432 1.524 . S
C1431 C1435 1.400 1_655 S
C1432 H1417 0.960 1_655 S
C1432 H1418 0.960 . S
C1432 H1419 0.960 . S
C1432 C1431 1.524 . S
C1433 C1430 1.403 1_455 S
C1433 C1434 1.392 . S
C1433 C1437 1.495 . S
C1434 C1433 1.392 . S
C1434 C1435 1.385 . S
C1434 C1436 1.478 . S
C1435 H1429 0.930 . S
C1435 C1431 1.400 1_455 S
C1435 C1434 1.385 . S
C1436 C1434 1.478 . S
C1436 C1438 1.381 . S
C1436 C1442 1.383 . S
C1437 C1433 1.495 . S
C1437 H1443 0.959 1_455 S
C1437 H1444 0.961 . S
C1437 H1445 0.960 . S
C1438 C1436 1.381 . S
C1438 C1439 1.394 . S
C1438 H1446 0.930 . S
C1439 C1438 1.394 . S
C1439 C1440 1.383 . S
C1439 H1447 0.929 . S
C1440 C1439 1.383 . S
C1440 C1441 1.377 . S
C1441 H1425 0.930 . S
C1441 C1440 1.377 . S
C1441 C1442 1.379 . S
C1442 H1426 0.931 . S
C1442 C1436 1.383 . S
C1442 C1441 1.379 . S
H1443 C1437 0.959 1_655 S
H1444 C1437 0.961 . S
H1445 C1437 0.960 . S
H1446 C1438 0.930 . S
H1447 C1439 0.929 . S
H1448 C1456 0.929 . S
H1449 C1458 0.930 . S
H1450 C1460 0.930 . S
H1451 C1463 0.929 . S
H1452 C1466 0.930 . S
H1453 C1468 0.960 . S
H1454 C1468 0.960 . S
H1455 C1468 0.960 . S
C1456 H1448 0.929 . S
C1456 C1457 1.377 . S
C1456 C1458 1.384 . S
C1457 C1456 1.377 . S
C1457 C1463 1.390 . S
C1458 H1449 0.930 . S
C1458 C1456 1.384 . S
C1458 C1459 1.372 . S
C1459 C1458 1.372 . S
C1459 C1460 1.400 . S
C1459 C1464 1.490 . S
C1460 H1450 0.930 . S
C1460 C1459 1.400 . S
C1460 C1463 1.386 . S
H1461 C1477 0.930 . S
H1462 C1478 0.931 . S
C1463 H1451 0.929 . S
C1463 C1457 1.390 . S
C1463 C1460 1.386 . S
C1464 C1459 1.490 . S
C1464 C1466 1.395 . S
C1464 C1467 1.403 . S
H1465 C1471 0.930 . S
C1466 H1452 0.930 . S
C1466 C1464 1.395 . S
C1466 C1469 1.403 1_565 S
C1467 C1464 1.403 . S
C1467 C1468 1.524 . S
C1467 C1471 1.400 . S
C1468 H1453 0.960 . S
C1468 H1454 0.960 . S
C1468 H1455 0.960 . S
C1468 C1467 1.524 . S
C1469 C1466 1.403 1_545 S
C1469 C1470 1.392 . S
C1469 C1473 1.495 . S
C1470 C1469 1.392 . S
C1470 C1471 1.385 1_545 S
C1470 C1472 1.478 . S
C1471 H1465 0.930 . S
C1471 C1467 1.400 . S
C1471 C1470 1.385 1_565 S
C1472 C1470 1.478 . S
C1472 C1474 1.381 . S
C1472 C1478 1.383 . S
C1473 C1469 1.495 . S
C1473 H1479 0.959 . S
C1473 H1480 0.961 . S
C1473 H1481 0.960 . S
C1474 C1472 1.381 . S
C1474 C1475 1.394 . S
C1474 H1482 0.930 . S
C1475 C1474 1.394 . S
C1475 C1476 1.383 . S
C1475 H1483 0.929 . S
C1476 C1475 1.383 . S
C1476 C1477 1.377 . S
C1477 H1461 0.930 . S
C1477 C1476 1.377 . S
C1477 C1478 1.379 . S
C1478 H1462 0.931 . S
C1478 C1472 1.383 . S
C1478 C1477 1.379 . S
H1479 C1473 0.959 . S
H1480 C1473 0.961 . S
H1481 C1473 0.960 . S
H1482 C1474 0.930 . S
H1483 C1475 0.929 . S
H1484 C1492 0.929 . S
H1485 C1494 0.930 . S
H1486 C1496 0.930 . S
H1487 C1499 0.929 . S
H1488 C1502 0.930 . S
H1489 C1504 0.960 1_455 S
H1490 C1504 0.960 . S
H1491 C1504 0.960 . S
C1492 H1484 0.929 . S
C1492 C1493 1.377 . S
C1492 C1494 1.384 . S
C1493 C1492 1.377 . S
C1493 C1499 1.390 . S
C1494 H1485 0.930 . S
C1494 C1492 1.384 . S
C1494 C1495 1.372 . S
C1495 C1494 1.372 . S
C1495 C1496 1.400 . S
C1495 C1500 1.490 . S
C1496 H1486 0.930 . S
C1496 C1495 1.400 . S
C1496 C1499 1.386 . S
H1497 C1513 0.930 . S
H1498 C1514 0.931 . S
C1499 H1487 0.929 . S
C1499 C1493 1.390 . S
C1499 C1496 1.386 . S
C1500 C1495 1.490 . S
C1500 C1502 1.395 . S
C1500 C1503 1.403 . S
H1501 C1507 0.930 . S
C1502 H1488 0.930 . S
C1502 C1500 1.395 . S
C1502 C1505 1.403 1_655 S
C1503 C1500 1.403 . S
C1503 C1504 1.524 . S
C1503 C1507 1.400 1_655 S
C1504 H1489 0.960 1_655 S
C1504 H1490 0.960 . S
C1504 H1491 0.960 . S
C1504 C1503 1.524 . S
C1505 C1502 1.403 1_455 S
C1505 C1506 1.392 . S
C1505 C1509 1.495 . S
C1506 C1505 1.392 . S
C1506 C1507 1.385 . S
C1506 C1508 1.478 . S
C1507 H1501 0.930 . S
C1507 C1503 1.400 1_455 S
C1507 C1506 1.385 . S
C1508 C1506 1.478 . S
C1508 C1510 1.381 . S
C1508 C1514 1.383 . S
C1509 C1505 1.495 . S
C1509 H1515 0.959 1_455 S
C1509 H1516 0.961 . S
C1509 H1517 0.960 . S
C1510 C1508 1.381 . S
C1510 C1511 1.394 . S
C1510 H1518 0.930 . S
C1511 C1510 1.394 . S
C1511 C1512 1.383 . S
C1511 H1519 0.929 . S
C1512 C1511 1.383 . S
C1512 C1513 1.377 . S
C1513 H1497 0.930 . S
C1513 C1512 1.377 . S
C1513 C1514 1.379 . S
C1514 H1498 0.931 . S
C1514 C1508 1.383 . S
C1514 C1513 1.379 . S
H1515 C1509 0.959 1_655 S
H1516 C1509 0.961 . S
H1517 C1509 0.960 . S
H1518 C1510 0.930 . S
H1519 C1511 0.929 . S
H1520 C1528 0.929 . S
H1521 C1530 0.930 . S
H1522 C1532 0.930 . S
H1523 C1535 0.929 . S
H1524 C1538 0.930 . S
H1525 C1540 0.960 1_556 S
H1526 C1540 0.960 . S
H1527 C1540 0.960 . S
C1528 H1520 0.929 . S
C1528 C1529 1.377 . S
C1528 C1530 1.384 . S
C1529 C1528 1.377 . S
C1529 C1535 1.390 . S
C1530 H1521 0.930 . S
C1530 C1528 1.384 . S
C1530 C1531 1.372 . S
C1531 C1530 1.372 . S
C1531 C1532 1.400 . S
C1531 C1536 1.490 . S
C1532 H1522 0.930 . S
C1532 C1531 1.400 . S
C1532 C1535 1.386 . S
H1533 C1549 0.930 . S
H1534 C1550 0.931 . S
C1535 H1523 0.929 . S
C1535 C1529 1.390 . S
C1535 C1532 1.386 . S
C1536 C1531 1.490 . S
C1536 C1538 1.395 . S
C1536 C1539 1.403 . S
H1537 C1543 0.930 . S
C1538 H1524 0.930 . S
C1538 C1536 1.395 . S
C1538 C1541 1.403 . S
C1539 C1536 1.403 . S
C1539 C1540 1.524 . S
C1539 C1543 1.400 . S
C1540 H1525 0.960 1_554 S
C1540 H1526 0.960 . S
C1540 H1527 0.960 . S
C1540 C1539 1.524 . S
C1541 C1538 1.403 . S
C1541 C1542 1.392 . S
C1541 C1545 1.495 . S
C1542 C1541 1.392 . S
C1542 C1543 1.385 . S
C1542 C1544 1.478 . S
C1543 H1537 0.930 . S
C1543 C1539 1.400 . S
C1543 C1542 1.385 . S
C1544 C1542 1.478 . S
C1544 C1546 1.381 . S
C1544 C1550 1.383 . S
C1545 C1541 1.495 . S
C1545 H1551 0.959 . S
C1545 H1552 0.961 . S
C1545 H1553 0.960 . S
C1546 C1544 1.381 . S
C1546 C1547 1.394 . S
C1546 H1554 0.930 . S
C1547 C1546 1.394 . S
C1547 C1548 1.383 . S
C1547 H1555 0.929 . S
C1548 C1547 1.383 . S
C1548 C1549 1.377 . S
C1549 H1533 0.930 . S
C1549 C1548 1.377 . S
C1549 C1550 1.379 . S
C1550 H1534 0.931 . S
C1550 C1544 1.383 . S
C1550 C1549 1.379 . S
H1551 C1545 0.959 . S
H1552 C1545 0.961 . S
H1553 C1545 0.960 . S
H1554 C1546 0.930 . S
H1555 C1547 0.929 . S
H1556 C1564 0.929 . S
H1557 C1566 0.930 . S
H1558 C1568 0.930 . S
H1559 C1571 0.929 . S
H1560 C1574 0.930 . S
H1561 C1576 0.960 . S
H1562 C1576 0.960 . S
H1563 C1576 0.960 . S
C1564 H1556 0.929 . S
C1564 C1565 1.377 . S
C1564 C1566 1.384 . S
C1565 C1564 1.377 . S
C1565 C1571 1.390 . S
C1566 H1557 0.930 . S
C1566 C1564 1.384 . S
C1566 C1567 1.372 . S
C1567 C1566 1.372 . S
C1567 C1568 1.400 . S
C1567 C1572 1.490 . S
C1568 H1558 0.930 . S
C1568 C1567 1.400 . S
C1568 C1571 1.386 . S
H1569 C1585 0.923 1_554 S
H1570 C1586 0.931 . S
C1571 H1559 0.929 . S
C1571 C1565 1.390 . S
C1571 C1568 1.386 . S
C1572 C1567 1.490 . S
C1572 C1574 1.395 . S
C1572 C1575 1.403 . S
H1573 C1579 0.930 . S
C1574 H1560 0.930 . S
C1574 C1572 1.395 . S
C1574 C1577 1.403 . S
C1575 C1572 1.403 . S
C1575 C1576 1.524 . S
C1575 C1579 1.400 . S
C1576 H1561 0.960 . S
C1576 H1562 0.960 . S
C1576 H1563 0.960 . S
C1576 C1575 1.524 . S
C1577 C1574 1.403 . S
C1577 C1578 1.392 . S
C1577 C1581 1.495 . S
C1578 C1577 1.392 . S
C1578 C1579 1.385 . S
C1578 C1580 1.478 . S
C1579 H1573 0.930 . S
C1579 C1575 1.400 . S
C1579 C1578 1.385 . S
C1580 C1578 1.478 . S
C1580 C1582 1.381 . S
C1580 C1586 1.383 . S
C1581 C1577 1.495 . S
C1581 H1587 0.959 . S
C1581 H1588 0.961 . S
C1581 H1589 0.960 . S
C1582 C1580 1.381 . S
C1582 C1583 1.394 . S
C1582 H1590 0.930 . S
C1583 C1582 1.394 . S
C1583 C1584 1.383 . S
C1583 H1591 0.929 . S
C1584 C1583 1.383 . S
C1584 C1585 1.377 . S
C1585 H1569 0.923 1_556 S
C1585 C1584 1.377 . S
C1585 C1586 1.379 . S
C1586 H1570 0.931 . S
C1586 C1580 1.383 . S
C1586 C1585 1.379 . S
H1587 C1581 0.959 . S
H1588 C1581 0.961 . S
H1589 C1581 0.960 . S
H1590 C1582 0.930 . S
H1591 C1583 0.929 . S
H1592 C1600 0.929 . S
H1593 C1602 0.930 . S
H1594 C1604 0.930 . S
H1595 C1607 0.929 . S
H1596 C1610 0.930 . S
H1597 C1612 0.960 . S
H1598 C1612 0.960 . S
H1599 C1612 0.960 . S
C1600 H1592 0.929 . S
C1600 C1601 1.377 . S
C1600 C1602 1.384 . S
C1601 C1600 1.377 . S
C1601 C1607 1.390 . S
C1602 H1593 0.930 . S
C1602 C1600 1.384 . S
C1602 C1603 1.372 . S
C1603 C1602 1.372 . S
C1603 C1604 1.400 . S
C1603 C1608 1.490 . S
C1604 H1594 0.930 . S
C1604 C1603 1.400 . S
C1604 C1607 1.386 . S
H1605 C1621 0.930 . S
H1606 C1622 0.931 . S
C1607 H1595 0.929 . S
C1607 C1601 1.390 . S
C1607 C1604 1.386 . S
C1608 C1603 1.490 . S
C1608 C1610 1.395 . S
C1608 C1611 1.403 . S
H1609 C1615 0.930 . S
C1610 H1596 0.930 . S
C1610 C1608 1.395 . S
C1610 C1613 1.403 . S
C1611 C1608 1.403 . S
C1611 C1612 1.524 . S
C1611 C1615 1.400 . S
C1612 H1597 0.960 . S
C1612 H1598 0.960 . S
C1612 H1599 0.960 . S
C1612 C1611 1.524 . S
C1613 C1610 1.403 . S
C1613 C1614 1.392 . S
C1613 C1617 1.495 . S
C1614 C1613 1.392 . S
C1614 C1615 1.385 . S
C1614 C1616 1.478 . S
C1615 H1609 0.930 . S
C1615 C1611 1.400 . S
C1615 C1614 1.385 . S
C1616 C1614 1.478 . S
C1616 C1618 1.381 . S
C1616 C1622 1.383 . S
C1617 C1613 1.495 . S
C1617 H1623 0.959 . S
C1617 H1624 0.961 . S
C1617 H1625 0.960 . S
C1618 C1616 1.381 . S
C1618 C1619 1.394 . S
C1618 H1626 0.930 . S
C1619 C1618 1.394 . S
C1619 C1620 1.383 . S
C1619 H1627 0.929 . S
C1620 C1619 1.383 . S
C1620 C1621 1.377 . S
C1621 H1605 0.930 . S
C1621 C1620 1.377 . S
C1621 C1622 1.379 . S
C1622 H1606 0.931 . S
C1622 C1616 1.383 . S
C1622 C1621 1.379 . S
H1623 C1617 0.959 . S
H1624 C1617 0.961 . S
H1625 C1617 0.960 . S
H1626 C1618 0.930 . S
H1627 C1619 0.929 . S
H1628 C1636 0.929 . S
H1629 C1638 0.930 . S
H1630 C1640 0.930 . S
H1631 C1643 0.929 . S
H1632 C1646 0.930 . S
H1633 C1648 0.960 1_554 S
H1634 C1648 0.960 . S
H1635 C1648 0.960 1_554 S
C1636 H1628 0.929 . S
C1636 C1637 1.377 . S
C1636 C1638 1.384 . S
C1637 C1636 1.377 . S
C1637 C1643 1.390 . S
C1638 H1629 0.930 . S
C1638 C1636 1.384 . S
C1638 C1639 1.372 . S
C1639 C1638 1.372 . S
C1639 C1640 1.400 . S
C1639 C1644 1.490 . S
C1640 H1630 0.930 . S
C1640 C1639 1.400 . S
C1640 C1643 1.386 . S
H1641 C1657 0.930 . S
H1642 C1658 0.931 . S
C1643 H1631 0.929 . S
C1643 C1637 1.390 . S
C1643 C1640 1.386 . S
C1644 C1639 1.490 . S
C1644 C1646 1.395 . S
C1644 C1647 1.403 . S
H1645 C1651 0.930 . S
C1646 H1632 0.930 . S
C1646 C1644 1.395 . S
C1646 C1649 1.403 . S
C1647 C1644 1.403 . S
C1647 C1648 1.524 . S
C1647 C1651 1.400 . S
C1648 H1633 0.960 1_556 S
C1648 H1634 0.960 . S
C1648 H1635 0.960 1_556 S
C1648 C1647 1.524 . S
C1649 C1646 1.403 . S
C1649 C1650 1.392 . S
C1649 C1653 1.495 . S
C1650 C1649 1.392 . S
C1650 C1651 1.385 . S
C1650 C1652 1.478 . S
C1651 H1645 0.930 . S
C1651 C1647 1.400 . S
C1651 C1650 1.385 . S
C1652 C1650 1.478 . S
C1652 C1654 1.381 . S
C1652 C1658 1.383 . S
C1653 C1649 1.495 . S
C1653 H1659 0.959 . S
C1653 H1660 0.961 . S
C1653 H1661 0.960 . S
C1654 C1652 1.381 . S
C1654 C1655 1.394 . S
C1654 H1662 0.930 . S
C1655 C1654 1.394 . S
C1655 C1656 1.383 . S
C1655 H1663 0.929 . S
C1656 C1655 1.383 . S
C1656 C1657 1.377 . S
C1657 H1641 0.930 . S
C1657 C1656 1.377 . S
C1657 C1658 1.379 . S
C1658 H1642 0.931 . S
C1658 C1652 1.383 . S
C1658 C1657 1.379 . S
H1659 C1653 0.959 . S
H1660 C1653 0.961 . S
H1661 C1653 0.960 . S
H1662 C1654 0.930 . S
H1663 C1655 0.929 . S
H1664 C1672 0.929 . S
H1665 C1674 0.930 . S
H1666 C1676 0.930 . S
H1667 C1679 0.929 . S
H1668 C1682 0.930 . S
H1669 C1684 0.960 . S
H1670 C1684 0.960 . S
H1671 C1684 0.960 . S
C1672 H1664 0.929 . S
C1672 C1673 1.377 . S
C1672 C1674 1.384 . S
C1673 C1672 1.377 . S
C1673 C1679 1.390 . S
C1674 H1665 0.930 . S
C1674 C1672 1.384 . S
C1674 C1675 1.372 . S
C1675 C1674 1.372 . S
C1675 C1676 1.400 . S
C1675 C1680 1.490 . S
C1676 H1666 0.930 . S
C1676 C1675 1.400 . S
C1676 C1679 1.386 . S
H1677 C1693 0.930 . S
H1678 C1694 0.931 . S
C1679 H1667 0.929 . S
C1679 C1673 1.390 . S
C1679 C1676 1.386 . S
C1680 C1675 1.490 . S
C1680 C1682 1.395 . S
C1680 C1683 1.403 . S
H1681 C1687 0.930 . S
C1682 H1668 0.930 . S
C1682 C1680 1.395 . S
C1682 C1685 1.403 . S
C1683 C1680 1.403 . S
C1683 C1684 1.524 . S
C1683 C1687 1.400 . S
C1684 H1669 0.960 . S
C1684 H1670 0.960 . S
C1684 H1671 0.960 . S
C1684 C1683 1.524 . S
C1685 C1682 1.403 . S
C1685 C1686 1.392 . S
C1685 C1689 1.495 . S
C1686 C1685 1.392 . S
C1686 C1687 1.385 . S
C1686 C1688 1.478 . S
C1687 H1681 0.930 . S
C1687 C1683 1.400 . S
C1687 C1686 1.385 . S
C1688 C1686 1.478 . S
C1688 C1690 1.381 . S
C1688 C1694 1.383 . S
C1689 C1685 1.495 . S
C1689 H1695 0.959 . S
C1689 H1696 0.961 . S
C1689 H1697 0.960 . S
C1690 C1688 1.381 . S
C1690 C1691 1.394 . S
C1690 H1698 0.930 . S
C1691 C1690 1.394 . S
C1691 C1692 1.383 . S
C1691 H1699 0.929 . S
C1692 C1691 1.383 . S
C1692 C1693 1.377 . S
C1693 H1677 0.930 . S
C1693 C1692 1.377 . S
C1693 C1694 1.379 . S
C1694 H1678 0.931 . S
C1694 C1688 1.383 . S
C1694 C1693 1.379 . S
H1695 C1689 0.959 . S
H1696 C1689 0.961 . S
H1697 C1689 0.960 . S
H1698 C1690 0.930 . S
H1699 C1691 0.929 . S
H1700 C1708 0.929 . S
H1701 C1710 0.930 . S
H1702 C1712 0.930 . S
H1703 C1715 0.929 . S
H1704 C1718 0.930 . S
H1705 C1720 0.960 . S
H1706 C1720 0.960 . S
H1707 C1720 0.960 . S
C1708 H1700 0.929 . S
C1708 C1709 1.377 . S
C1708 C1710 1.384 . S
C1709 C1708 1.377 . S
C1709 C1715 1.390 . S
C1710 H1701 0.930 . S
C1710 C1708 1.384 . S
C1710 C1711 1.372 . S
C1711 C1710 1.372 . S
C1711 C1712 1.400 . S
C1711 C1716 1.490 . S
C1712 H1702 0.930 . S
C1712 C1711 1.400 . S
C1712 C1715 1.386 . S
H1713 C1729 0.930 . S
H1714 C1730 0.931 . S
C1715 H1703 0.929 . S
C1715 C1709 1.390 . S
C1715 C1712 1.386 . S
C1716 C1711 1.490 . S
C1716 C1718 1.395 . S
C1716 C1719 1.403 . S
H1717 C1723 0.930 . S
C1718 H1704 0.930 . S
C1718 C1716 1.395 . S
C1718 C1721 1.403 . S
C1719 C1716 1.403 . S
C1719 C1720 1.524 . S
C1719 C1723 1.400 . S
C1720 H1705 0.960 . S
C1720 H1706 0.960 . S
C1720 H1707 0.960 . S
C1720 C1719 1.524 . S
C1721 C1718 1.403 . S
C1721 C1722 1.392 . S
C1721 C1725 1.495 . S
C1722 C1721 1.392 . S
C1722 C1723 1.385 . S
C1722 C1724 1.478 . S
C1723 H1717 0.930 . S
C1723 C1719 1.400 . S
C1723 C1722 1.385 . S
C1724 C1722 1.478 . S
C1724 C1726 1.381 . S
C1724 C1730 1.383 . S
C1725 C1721 1.495 . S
C1725 H1731 0.959 . S
C1725 H1732 0.961 . S
C1725 H1733 0.960 . S
C1726 C1724 1.381 . S
C1726 C1727 1.394 . S
C1726 H1734 0.930 . S
C1727 C1726 1.394 . S
C1727 C1728 1.383 . S
C1727 H1735 0.929 . S
C1728 C1727 1.383 . S
C1728 C1729 1.377 . S
C1729 H1713 0.930 . S
C1729 C1728 1.377 . S
C1729 C1730 1.379 . S
C1730 H1714 0.931 . S
C1730 C1724 1.383 . S
C1730 C1729 1.379 . S
H1731 C1725 0.959 . S
H1732 C1725 0.961 . S
H1733 C1725 0.960 . S
H1734 C1726 0.930 . S
H1735 C1727 0.929 . S
H1736 C1744 0.929 . S
H1737 C1746 0.930 . S
H1738 C1748 0.930 . S
H1739 C1751 0.929 . S
H1740 C1754 0.930 . S
H1741 C1756 0.960 . S
H1742 C1756 0.960 . S
H1743 C1756 0.960 . S
C1744 H1736 0.929 . S
C1744 C1745 1.377 . S
C1744 C1746 1.384 . S
C1745 C1744 1.377 . S
C1745 C1751 1.390 . S
C1746 H1737 0.930 . S
C1746 C1744 1.384 . S
C1746 C1747 1.372 . S
C1747 C1746 1.372 . S
C1747 C1748 1.400 . S
C1747 C1752 1.490 . S
C1748 H1738 0.930 . S
C1748 C1747 1.400 . S
C1748 C1751 1.386 . S
H1749 C1765 0.930 . S
H1750 C1766 0.931 . S
C1751 H1739 0.929 . S
C1751 C1745 1.390 . S
C1751 C1748 1.386 . S
C1752 C1747 1.490 . S
C1752 C1754 1.395 . S
C1752 C1755 1.403 . S
H1753 C1759 0.930 . S
C1754 H1740 0.930 . S
C1754 C1752 1.395 . S
C1754 C1757 1.403 . S
C1755 C1752 1.403 . S
C1755 C1756 1.524 . S
C1755 C1759 1.400 . S
C1756 H1741 0.960 . S
C1756 H1742 0.960 . S
C1756 H1743 0.960 . S
C1756 C1755 1.524 . S
C1757 C1754 1.403 . S
C1757 C1758 1.392 . S
C1757 C1761 1.495 . S
C1758 C1757 1.392 . S
C1758 C1759 1.385 . S
C1758 C1760 1.478 . S
C1759 H1753 0.930 . S
C1759 C1755 1.400 . S
C1759 C1758 1.385 . S
C1760 C1758 1.478 . S
C1760 C1762 1.381 . S
C1760 C1766 1.383 . S
C1761 C1757 1.495 . S
C1761 H1767 0.959 . S
C1761 H1768 0.961 . S
C1761 H1769 0.960 . S
C1762 C1760 1.381 . S
C1762 C1763 1.394 . S
C1762 H1770 0.930 . S
C1763 C1762 1.394 . S
C1763 C1764 1.383 . S
C1763 H1771 0.929 . S
C1764 C1763 1.383 . S
C1764 C1765 1.377 . S
C1765 H1749 0.930 . S
C1765 C1764 1.377 . S
C1765 C1766 1.379 . S
C1766 H1750 0.931 . S
C1766 C1760 1.383 . S
C1766 C1765 1.379 . S
H1767 C1761 0.959 . S
H1768 C1761 0.961 . S
H1769 C1761 0.960 . S
H1770 C1762 0.930 . S
H1771 C1763 0.929 . S
H1772 C1780 0.929 . S
H1773 C1782 0.930 . S
H1774 C1784 0.930 . S
H1775 C1787 0.929 . S
H1776 C1790 0.930 . S
H1777 C1792 0.960 . S
H1778 C1792 0.960 . S
H1779 C1792 0.960 . S
C1780 H1772 0.929 . S
C1780 C1781 1.377 . S
C1780 C1782 1.384 . S
C1781 C1780 1.377 . S
C1781 C1787 1.390 . S
C1782 H1773 0.930 . S
C1782 C1780 1.384 . S
C1782 C1783 1.372 . S
C1783 C1782 1.372 . S
C1783 C1784 1.400 . S
C1783 C1788 1.490 . S
C1784 H1774 0.930 . S
C1784 C1783 1.400 . S
C1784 C1787 1.386 . S
H1785 C1801 0.930 . S
H1786 C1802 0.931 . S
C1787 H1775 0.929 . S
C1787 C1781 1.390 . S
C1787 C1784 1.386 . S
C1788 C1783 1.490 . S
C1788 C1790 1.395 . S
C1788 C1791 1.403 . S
H1789 C1795 0.930 . S
C1790 H1776 0.930 . S
C1790 C1788 1.395 . S
C1790 C1793 1.403 . S
C1791 C1788 1.403 . S
C1791 C1792 1.524 . S
C1791 C1795 1.400 . S
C1792 H1777 0.960 . S
C1792 H1778 0.960 . S
C1792 H1779 0.960 . S
C1792 C1791 1.524 . S
C1793 C1790 1.403 . S
C1793 C1794 1.392 . S
C1793 C1797 1.495 . S
C1794 C1793 1.392 . S
C1794 C1795 1.385 . S
C1794 C1796 1.478 . S
C1795 H1789 0.930 . S
C1795 C1791 1.400 . S
C1795 C1794 1.385 . S
C1796 C1794 1.478 . S
C1796 C1798 1.381 . S
C1796 C1802 1.383 . S
C1797 C1793 1.495 . S
C1797 H1803 0.959 . S
C1797 H1804 0.961 . S
C1797 H1805 0.960 . S
C1798 C1796 1.381 . S
C1798 C1799 1.394 . S
C1798 H1806 0.930 . S
C1799 C1798 1.394 . S
C1799 C1800 1.383 . S
C1799 H1807 0.929 . S
C1800 C1799 1.383 . S
C1800 C1801 1.377 . S
C1801 H1785 0.930 . S
C1801 C1800 1.377 . S
C1801 C1802 1.379 . S
C1802 H1786 0.931 . S
C1802 C1796 1.383 . S
C1802 C1801 1.379 . S
H1803 C1797 0.959 . S
H1804 C1797 0.961 . S
H1805 C1797 0.960 . S
H1806 C1798 0.930 . S
H1807 C1799 0.929 . S
H1808 C1816 0.929 . S
H1809 C1818 0.930 . S
H1810 C1820 0.930 . S
H1811 C1823 0.929 . S
H1812 C1826 0.930 . S
H1813 C1828 0.960 . S
H1814 C1828 0.960 . S
H1815 C1828 0.960 . S
C1816 H1808 0.929 . S
C1816 C1817 1.377 . S
C1816 C1818 1.384 . S
C1817 C1816 1.377 . S
C1817 C1823 1.390 . S
C1818 H1809 0.930 . S
C1818 C1816 1.384 . S
C1818 C1819 1.372 . S
C1819 C1818 1.372 . S
C1819 C1820 1.400 . S
C1819 C1824 1.490 . S
C1820 H1810 0.930 . S
C1820 C1819 1.400 . S
C1820 C1823 1.386 . S
H1821 C1837 0.930 . S
H1822 C1838 0.931 . S
C1823 H1811 0.929 . S
C1823 C1817 1.390 . S
C1823 C1820 1.386 . S
C1824 C1819 1.490 . S
C1824 C1826 1.395 . S
C1824 C1827 1.403 . S
H1825 C1831 0.930 . S
C1826 H1812 0.930 . S
C1826 C1824 1.395 . S
C1826 C1829 1.403 . S
C1827 C1824 1.403 . S
C1827 C1828 1.524 . S
C1827 C1831 1.400 . S
C1828 H1813 0.960 . S
C1828 H1814 0.960 . S
C1828 H1815 0.960 . S
C1828 C1827 1.524 . S
C1829 C1826 1.403 . S
C1829 C1830 1.392 . S
C1829 C1833 1.495 . S
C1830 C1829 1.392 . S
C1830 C1831 1.385 . S
C1830 C1832 1.478 . S
C1831 H1825 0.930 . S
C1831 C1827 1.400 . S
C1831 C1830 1.385 . S
C1832 C1830 1.478 . S
C1832 C1834 1.381 . S
C1832 C1838 1.383 . S
C1833 C1829 1.495 . S
C1833 H1839 0.959 . S
C1833 H1840 0.961 . S
C1833 H1841 0.960 . S
C1834 C1832 1.381 . S
C1834 C1835 1.394 . S
C1834 H1842 0.930 . S
C1835 C1834 1.394 . S
C1835 C1836 1.383 . S
C1835 H1843 0.929 . S
C1836 C1835 1.383 . S
C1836 C1837 1.377 . S
C1837 H1821 0.930 . S
C1837 C1836 1.377 . S
C1837 C1838 1.379 . S
C1838 H1822 0.931 . S
C1838 C1832 1.383 . S
C1838 C1837 1.379 . S
H1839 C1833 0.959 . S
H1840 C1833 0.961 . S
H1841 C1833 0.960 . S
H1842 C1834 0.930 . S
H1843 C1835 0.929 . S
H1844 C1852 0.929 . S
H1845 C1854 0.930 . S
H1846 C1856 0.930 . S
H1847 C1859 0.929 . S
H1848 C1862 0.930 . S
H1849 C1864 0.960 . S
H1850 C1864 0.960 . S
H1851 C1864 0.960 . S
C1852 H1844 0.929 . S
C1852 C1853 1.377 . S
C1852 C1854 1.384 . S
C1853 C1852 1.377 . S
C1853 C1859 1.390 . S
C1854 H1845 0.930 . S
C1854 C1852 1.384 . S
C1854 C1855 1.372 . S
C1855 C1854 1.372 . S
C1855 C1856 1.400 . S
C1855 C1860 1.490 . S
C1856 H1846 0.930 . S
C1856 C1855 1.400 . S
C1856 C1859 1.386 . S
H1857 C1873 0.930 . S
H1858 C1874 0.931 . S
C1859 H1847 0.929 . S
C1859 C1853 1.390 . S
C1859 C1856 1.386 . S
C1860 C1855 1.490 . S
C1860 C1862 1.395 . S
C1860 C1863 1.403 . S
H1861 C1867 0.930 . S
C1862 H1848 0.930 . S
C1862 C1860 1.395 . S
C1862 C1865 1.403 . S
C1863 C1860 1.403 . S
C1863 C1864 1.524 . S
C1863 C1867 1.400 . S
C1864 H1849 0.960 . S
C1864 H1850 0.960 . S
C1864 H1851 0.960 . S
C1864 C1863 1.524 . S
C1865 C1862 1.403 . S
C1865 C1866 1.392 . S
C1865 C1869 1.495 . S
C1866 C1865 1.392 . S
C1866 C1867 1.385 . S
C1866 C1868 1.478 . S
C1867 H1861 0.930 . S
C1867 C1863 1.400 . S
C1867 C1866 1.385 . S
C1868 C1866 1.478 . S
C1868 C1870 1.381 . S
C1868 C1874 1.383 . S
C1869 C1865 1.495 . S
C1869 H1875 0.959 . S
C1869 H1876 0.961 . S
C1869 H1877 0.960 . S
C1870 C1868 1.381 . S
C1870 C1871 1.394 . S
C1870 H1878 0.930 . S
C1871 C1870 1.394 . S
C1871 C1872 1.383 . S
C1871 H1879 0.929 . S
C1872 C1871 1.383 . S
C1872 C1873 1.377 1_554 S
C1873 H1857 0.930 . S
C1873 C1872 1.377 1_556 S
C1873 C1874 1.379 1_556 S
C1874 H1858 0.931 . S
C1874 C1868 1.383 . S
C1874 C1873 1.379 1_554 S
H1875 C1869 0.959 . S
H1876 C1869 0.961 . S
H1877 C1869 0.960 . S
H1878 C1870 0.930 . S
H1879 C1871 0.929 . S
H1880 C1888 0.929 . S
H1881 C1890 0.930 . S
H1882 C1892 0.930 . S
H1883 C1895 0.929 . S
H1884 C1898 0.930 . S
H1885 C1900 0.960 . S
H1886 C1900 0.960 . S
H1887 C1900 0.960 . S
C1888 H1880 0.929 . S
C1888 C1889 1.377 . S
C1888 C1890 1.384 . S
C1889 C1888 1.377 . S
C1889 C1895 1.390 . S
C1890 H1881 0.930 . S
C1890 C1888 1.384 . S
C1890 C1891 1.372 . S
C1891 C1890 1.372 . S
C1891 C1892 1.400 . S
C1891 C1896 1.490 . S
C1892 H1882 0.930 . S
C1892 C1891 1.400 . S
C1892 C1895 1.386 . S
H1893 C1909 0.930 . S
H1894 C1910 0.931 . S
C1895 H1883 0.929 . S
C1895 C1889 1.390 . S
C1895 C1892 1.386 . S
C1896 C1891 1.490 . S
C1896 C1898 1.395 . S
C1896 C1899 1.403 . S
H1897 C1903 0.930 . S
C1898 H1884 0.930 . S
C1898 C1896 1.395 . S
C1898 C1901 1.403 . S
C1899 C1896 1.403 . S
C1899 C1900 1.524 . S
C1899 C1903 1.400 . S
C1900 H1885 0.960 . S
C1900 H1886 0.960 . S
C1900 H1887 0.960 . S
C1900 C1899 1.524 . S
C1901 C1898 1.403 . S
C1901 C1902 1.392 . S
C1901 C1905 1.495 . S
C1902 C1901 1.392 . S
C1902 C1903 1.385 . S
C1902 C1904 1.478 . S
C1903 H1897 0.930 . S
C1903 C1899 1.400 . S
C1903 C1902 1.385 . S
C1904 C1902 1.478 . S
C1904 C1906 1.381 . S
C1904 C1910 1.383 . S
C1905 C1901 1.495 . S
C1905 H1911 0.959 1_556 S
C1905 H1912 0.961 . S
C1905 H1913 0.961 . S
C1906 C1904 1.381 . S
C1906 C1907 1.394 . S
C1906 H1914 0.930 . S
C1907 C1906 1.394 . S
C1907 C1908 1.383 . S
C1907 H1915 0.929 . S
C1908 C1907 1.383 . S
C1908 C1909 1.377 . S
C1909 H1893 0.930 . S
C1909 C1908 1.377 . S
C1909 C1910 1.379 . S
C1910 H1894 0.931 . S
C1910 C1904 1.383 . S
C1910 C1909 1.379 . S
H1911 C1905 0.959 1_554 S
H1912 C1905 0.961 . S
H1913 C1905 0.961 . S
H1914 C1906 0.930 . S
H1915 C1907 0.929 . S
H1916 C1924 0.929 . S
H1917 C1926 0.930 . S
H1918 C1928 0.930 . S
H1919 C1931 0.929 . S
H1920 C1934 0.930 . S
H1921 C1936 0.960 . S
H1922 C1936 0.960 . S
H1923 C1936 0.960 . S
C1924 H1916 0.929 . S
C1924 C1925 1.377 . S
C1924 C1926 1.384 . S
C1925 C1924 1.377 . S
C1925 C1931 1.390 . S
C1926 H1917 0.930 . S
C1926 C1924 1.384 . S
C1926 C1927 1.372 . S
C1927 C1926 1.372 . S
C1927 C1928 1.400 . S
C1927 C1932 1.490 . S
C1928 H1918 0.930 . S
C1928 C1927 1.400 . S
C1928 C1931 1.386 . S
H1929 C1945 0.930 . S
H1930 C1946 0.931 1_556 S
C1931 H1919 0.929 . S
C1931 C1925 1.390 . S
C1931 C1928 1.386 . S
C1932 C1927 1.490 . S
C1932 C1934 1.395 . S
C1932 C1935 1.403 . S
H1933 C1939 0.930 . S
C1934 H1920 0.930 . S
C1934 C1932 1.395 . S
C1934 C1937 1.403 . S
C1935 C1932 1.403 . S
C1935 C1936 1.524 . S
C1935 C1939 1.400 . S
C1936 H1921 0.960 . S
C1936 H1922 0.960 . S
C1936 H1923 0.960 . S
C1936 C1935 1.524 . S
C1937 C1934 1.403 . S
C1937 C1938 1.392 . S
C1937 C1941 1.495 . S
C1938 C1937 1.392 . S
C1938 C1939 1.385 . S
C1938 C1940 1.478 . S
C1939 H1933 0.930 . S
C1939 C1935 1.400 . S
C1939 C1938 1.385 . S
C1940 C1938 1.478 . S
C1940 C1942 1.381 . S
C1940 C1946 1.383 . S
C1941 C1937 1.495 . S
C1941 H1947 0.959 . S
C1941 H1948 0.961 . S
C1941 H1949 0.960 . S
C1942 C1940 1.381 . S
C1942 C1943 1.394 . S
C1942 H1950 0.930 . S
C1943 C1942 1.394 . S
C1943 C1944 1.383 . S
C1943 H1951 0.929 . S
C1944 C1943 1.383 . S
C1944 C1945 1.377 1_554 S
C1945 H1929 0.930 . S
C1945 C1944 1.377 1_556 S
C1945 C1946 1.379 1_556 S
C1946 H1930 0.931 1_554 S
C1946 C1940 1.383 . S
C1946 C1945 1.379 1_554 S
H1947 C1941 0.959 . S
H1948 C1941 0.961 . S
H1949 C1941 0.960 . S
H1950 C1942 0.930 . S
H1951 C1943 0.929 . S
H1952 C1960 0.929 . S
H1953 C1962 0.930 . S
H1954 C1964 0.930 . S
H1955 C1967 0.929 . S
H1956 C1970 0.930 . S
H1957 C1972 0.960 . S
H1958 C1972 0.960 . S
H1959 C1972 0.960 . S
C1960 H1952 0.929 . S
C1960 C1961 1.377 . S
C1960 C1962 1.384 . S
C1961 C1960 1.377 . S
C1961 C1967 1.390 . S
C1962 H1953 0.930 . S
C1962 C1960 1.384 . S
C1962 C1963 1.372 . S
C1963 C1962 1.372 . S
C1963 C1964 1.400 . S
C1963 C1968 1.490 . S
C1964 H1954 0.930 . S
C1964 C1963 1.400 . S
C1964 C1967 1.386 . S
H1965 C1981 0.930 . S
H1966 C1982 0.931 . S
C1967 H1955 0.929 . S
C1967 C1961 1.390 . S
C1967 C1964 1.386 . S
C1968 C1963 1.490 . S
C1968 C1970 1.395 . S
C1968 C1971 1.403 . S
H1969 C1975 0.930 . S
C1970 H1956 0.930 . S
C1970 C1968 1.395 . S
C1970 C1973 1.403 . S
C1971 C1968 1.403 . S
C1971 C1972 1.524 . S
C1971 C1975 1.400 . S
C1972 H1957 0.960 . S
C1972 H1958 0.960 . S
C1972 H1959 0.960 . S
C1972 C1971 1.524 . S
C1973 C1970 1.403 . S
C1973 C1974 1.392 . S
C1973 C1977 1.495 . S
C1974 C1973 1.392 . S
C1974 C1975 1.385 . S
C1974 C1976 1.478 . S
C1975 H1969 0.930 . S
C1975 C1971 1.400 . S
C1975 C1974 1.385 . S
C1976 C1974 1.478 . S
C1976 C1978 1.381 . S
C1976 C1982 1.383 . S
C1977 C1973 1.495 . S
C1977 H1983 0.959 . S
C1977 H1984 0.961 . S
C1977 H1985 0.960 . S
C1978 C1976 1.381 . S
C1978 C1979 1.394 . S
C1978 H1986 0.930 . S
C1979 C1978 1.394 . S
C1979 C1980 1.383 . S
C1979 H1987 0.929 . S
C1980 C1979 1.383 . S
C1980 C1981 1.377 . S
C1981 H1965 0.930 . S
C1981 C1980 1.377 . S
C1981 C1982 1.379 . S
C1982 H1966 0.931 . S
C1982 C1976 1.383 . S
C1982 C1981 1.379 . S
H1983 C1977 0.959 . S
H1984 C1977 0.961 . S
H1985 C1977 0.960 . S
H1986 C1978 0.930 . S
H1987 C1979 0.929 . S
H1988 C1996 0.929 . S
H1989 C1998 0.930 . S
H1990 C2000 0.930 . S
H1991 C2003 0.929 . S
H1992 C2006 0.930 . S
H1993 C2008 0.960 . S
H1994 C2008 0.960 . S
H1995 C2008 0.960 . S
C1996 H1988 0.929 . S
C1996 C1997 1.377 . S
C1996 C1998 1.384 . S
C1997 C1996 1.377 . S
C1997 C2003 1.390 . S
C1998 H1989 0.930 . S
C1998 C1996 1.384 . S
C1998 C1999 1.372 . S
C1999 C1998 1.372 . S
C1999 C2000 1.400 . S
C1999 C2004 1.490 . S
C2000 H1990 0.930 . S
C2000 C1999 1.400 . S
C2000 C2003 1.386 . S
H2001 C2017 0.930 . S
H2002 C2018 0.931 . S
C2003 H1991 0.929 . S
C2003 C1997 1.390 . S
C2003 C2000 1.386 . S
C2004 C1999 1.490 . S
C2004 C2006 1.395 . S
C2004 C2007 1.403 . S
H2005 C2011 0.930 . S
C2006 H1992 0.930 . S
C2006 C2004 1.395 . S
C2006 C2009 1.403 . S
C2007 C2004 1.403 . S
C2007 C2008 1.524 . S
C2007 C2011 1.400 . S
C2008 H1993 0.960 . S
C2008 H1994 0.960 . S
C2008 H1995 0.960 . S
C2008 C2007 1.524 . S
C2009 C2006 1.403 . S
C2009 C2010 1.392 . S
C2009 C2013 1.495 . S
C2010 C2009 1.392 . S
C2010 C2011 1.385 . S
C2010 C2012 1.478 . S
C2011 H2005 0.930 . S
C2011 C2007 1.400 . S
C2011 C2010 1.385 . S
C2012 C2010 1.478 . S
C2012 C2014 1.381 . S
C2012 C2018 1.383 . S
C2013 C2009 1.495 . S
C2013 H2019 0.959 . S
C2013 H2020 0.961 . S
C2013 H2021 0.960 . S
C2014 C2012 1.381 . S
C2014 C2015 1.394 . S
C2014 H2022 0.930 . S
C2015 C2014 1.394 . S
C2015 C2016 1.383 . S
C2015 H2023 0.929 . S
C2016 C2015 1.383 . S
C2016 C2017 1.377 . S
C2017 H2001 0.930 . S
C2017 C2016 1.377 . S
C2017 C2018 1.379 . S
C2018 H2002 0.931 . S
C2018 C2012 1.383 . S
C2018 C2017 1.379 . S
H2019 C2013 0.959 . S
H2020 C2013 0.961 . S
H2021 C2013 0.960 . S
H2022 C2014 0.930 . S
H2023 C2015 0.929 . S
H2024 C2032 0.929 . S
H2025 C2034 0.930 . S
H2026 C2036 0.930 . S
H2027 C2039 0.929 . S
H2028 C2042 0.930 . S
H2029 C2044 0.960 . S
H2030 C2044 0.960 . S
H2031 C2044 0.960 . S
C2032 H2024 0.929 . S
C2032 C2033 1.377 . S
C2032 C2034 1.384 . S
C2033 C2032 1.377 . S
C2033 C2039 1.390 . S
C2034 H2025 0.930 . S
C2034 C2032 1.384 . S
C2034 C2035 1.372 . S
C2035 C2034 1.372 . S
C2035 C2036 1.400 . S
C2035 C2040 1.490 . S
C2036 H2026 0.930 . S
C2036 C2035 1.400 . S
C2036 C2039 1.386 . S
H2037 C2053 0.930 . S
H2038 C2054 0.931 . S
C2039 H2027 0.929 . S
C2039 C2033 1.390 . S
C2039 C2036 1.386 . S
C2040 C2035 1.490 . S
C2040 C2042 1.395 . S
C2040 C2043 1.403 . S
H2041 C2047 0.930 . S
C2042 H2028 0.930 . S
C2042 C2040 1.395 . S
C2042 C2045 1.403 . S
C2043 C2040 1.403 . S
C2043 C2044 1.524 . S
C2043 C2047 1.400 . S
C2044 H2029 0.960 . S
C2044 H2030 0.960 . S
C2044 H2031 0.960 . S
C2044 C2043 1.524 . S
C2045 C2042 1.403 . S
C2045 C2046 1.392 . S
C2045 C2049 1.495 . S
C2046 C2045 1.392 . S
C2046 C2047 1.385 . S
C2046 C2048 1.478 . S
C2047 H2041 0.930 . S
C2047 C2043 1.400 . S
C2047 C2046 1.385 . S
C2048 C2046 1.478 . S
C2048 C2050 1.381 . S
C2048 C2054 1.383 . S
C2049 C2045 1.495 . S
C2049 H2055 0.959 . S
C2049 H2056 0.961 . S
C2049 H2057 0.960 . S
C2050 C2048 1.381 . S
C2050 C2051 1.394 . S
C2050 H2058 0.930 . S
C2051 C2050 1.394 . S
C2051 C2052 1.383 . S
C2051 H2059 0.929 . S
C2052 C2051 1.383 . S
C2052 C2053 1.377 . S
C2053 H2037 0.930 . S
C2053 C2052 1.377 . S
C2053 C2054 1.379 . S
C2054 H2038 0.931 . S
C2054 C2048 1.383 . S
C2054 C2053 1.379 . S
H2055 C2049 0.959 . S
H2056 C2049 0.961 . S
H2057 C2049 0.960 . S
H2058 C2050 0.930 . S
H2059 C2051 0.929 . S
H2060 C2068 0.929 . S
H2061 C2070 0.930 . S
H2062 C2072 0.930 . S
H2063 C2075 0.929 . S
H2064 C2078 0.930 . S
H2065 C2080 0.960 . S
H2066 C2080 0.960 . S
H2067 C2080 0.960 . S
C2068 H2060 0.929 . S
C2068 C2069 1.377 . S
C2068 C2070 1.384 . S
C2069 C2068 1.377 . S
C2069 C2075 1.390 . S
C2070 H2061 0.930 . S
C2070 C2068 1.384 . S
C2070 C2071 1.372 . S
C2071 C2070 1.372 . S
C2071 C2072 1.400 . S
C2071 C2076 1.490 . S
C2072 H2062 0.930 . S
C2072 C2071 1.400 . S
C2072 C2075 1.386 . S
H2073 C2089 0.930 . S
H2074 C2090 0.931 . S
C2075 H2063 0.929 . S
C2075 C2069 1.390 . S
C2075 C2072 1.386 . S
C2076 C2071 1.490 . S
C2076 C2078 1.395 . S
C2076 C2079 1.403 . S
H2077 C2083 0.930 . S
C2078 H2064 0.930 . S
C2078 C2076 1.395 . S
C2078 C2081 1.403 . S
C2079 C2076 1.403 . S
C2079 C2080 1.524 . S
C2079 C2083 1.400 . S
C2080 H2065 0.960 . S
C2080 H2066 0.960 . S
C2080 H2067 0.960 . S
C2080 C2079 1.524 . S
C2081 C2078 1.403 . S
C2081 C2082 1.392 . S
C2081 C2085 1.495 . S
C2082 C2081 1.392 . S
C2082 C2083 1.385 . S
C2082 C2084 1.478 . S
C2083 H2077 0.930 . S
C2083 C2079 1.400 . S
C2083 C2082 1.385 . S
C2084 C2082 1.478 . S
C2084 C2086 1.381 . S
C2084 C2090 1.383 . S
C2085 C2081 1.495 . S
C2085 H2091 0.959 . S
C2085 H2092 0.961 . S
C2085 H2093 0.960 . S
C2086 C2084 1.381 . S
C2086 C2087 1.394 . S
C2086 H2094 0.930 . S
C2087 C2086 1.394 . S
C2087 C2088 1.383 . S
C2087 H2095 0.929 . S
C2088 C2087 1.383 . S
C2088 C2089 1.377 . S
C2089 H2073 0.930 . S
C2089 C2088 1.377 . S
C2089 C2090 1.379 . S
C2090 H2074 0.931 . S
C2090 C2084 1.383 . S
C2090 C2089 1.379 . S
H2091 C2085 0.959 . S
H2092 C2085 0.961 . S
H2093 C2085 0.960 . S
H2094 C2086 0.930 . S
H2095 C2087 0.929 . S
C953 C701 1.297 . S
C972 C3 1.270 . S
C989 C92 1.235 . S
C1008 C524 1.238 . S
C1025 C121 1.290 . S
C1044 C583 1.277 . S
C1061 C642 1.221 . S
C1080 C210 1.232 . S
C1097 C239 1.295 . S
C1116 C347 1.295 . S
C1133 C328 1.231 . S
C1152 C406 1.196 . S
C1169 C465 1.296 . S
C1188 C357 1.301 . S
C1205 C288 1.218 . S
C1224 C446 1.222 . S
C1241 C229 1.297 . S
C1260 C475 1.285 . S
C1277 C564 1.231 . S
C1296 C52 1.198 . S
C1313 C111 1.289 . S
C1332 C593 1.298 . S
C1349 C682 1.232 . S
C1368 C170 1.193 . S
C1385 C711 1.296 . S
C1404 C819 1.278 . S
C1421 C800 1.233 . S
C1440 C878 1.236 . S
C1457 C937 1.291 . S
C1476 C829 1.281 . S
C1493 C760 1.220 . S
C1512 C918 1.237 . S
C1529 C269 1.434 . S
C1548 C33 1.443 . S
C1565 C62 1.146 . S
C1584 C298 1.156 . S
C1601 C151 1.431 . S
C1620 C387 1.430 . S
C1637 C416 1.151 . S
C1656 C180 1.149 . S
C1673 C505 1.431 . S
C1692 C741 1.427 . S
C1709 C770 1.143 . S
C1728 C534 1.142 . S
C1745 C623 1.431 . S
C1764 C859 1.436 . S
C1781 C888 1.149 . S
C1800 C652 1.139 . S
C1817 C831 1.618 . S
C1836 C5 1.633 . S
C1853 C890 1.125 . S
C1872 C64 1.121 1_554 S
C1889 C123 1.616 . S
C1908 C713 1.633 . S
C1925 C772 1.127 . S
C1944 C182 1.148 1_554 S
C1961 C595 1.613 . S
C1980 C241 1.625 . S
C1997 C654 1.133 . S
C2016 C300 1.151 . S
C2033 C359 1.611 . S
C2052 C477 1.587 . S
C2069 C536 1.134 . S
C2088 C418 1.107 . S
