# Generated by pormake.
# Topology umg, (4)-cn, num edge types: 1
# Building blocks:
#     Node 0, Type 0, BuildingBlock: ESEHIV_clean_sbu_0, # of connection points: 4
#     Node 1, Type 0, BuildingBlock: ESEHIV_clean_sbu_0, # of connection points: 4
#     Node 2, Type 0, BuildingBlock: ESEHIV_clean_sbu_0, # of connection points: 4
#     Node 3, Type 0, BuildingBlock: ESEHIV_clean_sbu_0, # of connection points: 4
#     Node 4, Type 0, BuildingBlock: ESEHIV_clean_sbu_0, # of connection points: 4
#     Node 5, Type 0, BuildingBlock: ESEHIV_clean_sbu_0, # of connection points: 4
#     Node 6, Type 0, BuildingBlock: ESEHIV_clean_sbu_0, # of connection points: 4
#     Node 7, Type 0, BuildingBlock: ESEHIV_clean_sbu_0, # of connection points: 4
#     Node 8, Type 0, BuildingBlock: ESEHIV_clean_sbu_0, # of connection points: 4
#     Node 9, Type 0, BuildingBlock: ESEHIV_clean_sbu_0, # of connection points: 4
#     Node 10, Type 0, BuildingBlock: ESEHIV_clean_sbu_0, # of connection points: 4
#     Node 11, Type 0, BuildingBlock: ESEHIV_clean_sbu_0, # of connection points: 4
#     Edge 12, Type (0, 0), BuildingBlock: EZIPEK_clean_linker_0, # of connection points: 2
#     Edge 13, Type (0, 0), BuildingBlock: EZIPEK_clean_linker_0, # of connection points: 2
#     Edge 14, Type (0, 0), BuildingBlock: EZIPEK_clean_linker_0, # of connection points: 2
#     Edge 15, Type (0, 0), BuildingBlock: EZIPEK_clean_linker_0, # of connection points: 2
#     Edge 16, Type (0, 0), BuildingBlock: EZIPEK_clean_linker_0, # of connection points: 2
#     Edge 17, Type (0, 0), BuildingBlock: EZIPEK_clean_linker_0, # of connection points: 2
#     Edge 18, Type (0, 0), BuildingBlock: EZIPEK_clean_linker_0, # of connection points: 2
#     Edge 19, Type (0, 0), BuildingBlock: EZIPEK_clean_linker_0, # of connection points: 2
#     Edge 20, Type (0, 0), BuildingBlock: EZIPEK_clean_linker_0, # of connection points: 2
#     Edge 21, Type (0, 0), BuildingBlock: EZIPEK_clean_linker_0, # of connection points: 2
#     Edge 22, Type (0, 0), BuildingBlock: EZIPEK_clean_linker_0, # of connection points: 2
#     Edge 23, Type (0, 0), BuildingBlock: EZIPEK_clean_linker_0, # of connection points: 2
#     Edge 24, Type (0, 0), BuildingBlock: EZIPEK_clean_linker_0, # of connection points: 2
#     Edge 25, Type (0, 0), BuildingBlock: EZIPEK_clean_linker_0, # of connection points: 2
#     Edge 26, Type (0, 0), BuildingBlock: EZIPEK_clean_linker_0, # of connection points: 2
#     Edge 27, Type (0, 0), BuildingBlock: EZIPEK_clean_linker_0, # of connection points: 2
#     Edge 28, Type (0, 0), BuildingBlock: EZIPEK_clean_linker_0, # of connection points: 2
#     Edge 29, Type (0, 0), BuildingBlock: EZIPEK_clean_linker_0, # of connection points: 2
#     Edge 30, Type (0, 0), BuildingBlock: EZIPEK_clean_linker_0, # of connection points: 2
#     Edge 31, Type (0, 0), BuildingBlock: EZIPEK_clean_linker_0, # of connection points: 2
#     Edge 32, Type (0, 0), BuildingBlock: EZIPEK_clean_linker_0, # of connection points: 2
#     Edge 33, Type (0, 0), BuildingBlock: EZIPEK_clean_linker_0, # of connection points: 2
#     Edge 34, Type (0, 0), BuildingBlock: EZIPEK_clean_linker_0, # of connection points: 2
#     Edge 35, Type (0, 0), BuildingBlock: EZIPEK_clean_linker_0, # of connection points: 2
# Relax obj value: 0.031
# Max RMSD: 0.122
# Mean RMSD: 0.089
data_MOF--net-umg--node1-ESEHIV_clean_sbu_0--edge1-EZIPEK_clean_linker_0
_symmetry_space_group_name_H-M    P1
_symmetry_Int_Tables_number       1
_symmetry_cell_setting            triclinic
loop_
_symmetry_equiv_pos_as_xyz
'x, y, z'
_cell_length_a     20.925378
_cell_length_b     26.001468
_cell_length_c     65.315907
_cell_angle_alpha  91.316814
_cell_angle_beta   89.85934
_cell_angle_gamma 113.70139
loop_
_atom_site_label
_atom_site_type_symbol
_atom_site_fract_x
_atom_site_fract_y
_atom_site_fract_z
_atom_type_partial_charge
Cu0 Cu 0.28848 0.50166 0.12859 0.0
N1 N 0.30608 0.53847 0.10364 0.0
N2 N 0.31025 0.55451 0.07017 0.0
C3 C 0.28577 0.51566 0.08477 0.0
C4 C 0.34695 0.60356 0.08009 0.0
C5 C 0.34417 0.59354 0.10079 0.0
O6 O 0.33562 0.4502 0.12843 0.0
C7 C 0.14107 0.42835 0.12548 0.0
O8 O 0.15912 0.39279 0.11493 0.0
H9 H 0.25456 0.47157 0.0817 0.0
H10 H 0.36913 0.6241 0.1129 0.0
N11 N 0.33553 0.55376 0.14943 0.0
N12 N 0.36278 0.6016 0.17931 0.0
C13 C 0.3107 0.57093 0.16616 0.0
C14 C 0.40521 0.57466 0.15209 0.0
C15 C 0.42214 0.60398 0.17048 0.0
C16 C 0.33616 0.41487 0.11468 0.0
O17 O 0.28879 0.39877 0.10007 0.0
H18 H 0.25572 0.55891 0.16915 0.0
H19 H 0.4409 0.56678 0.14175 0.0
O20 O 0.18788 0.47266 0.1334 0.0
H21 H 0.37484 0.64334 0.07282 0.0
H22 H 0.4738 0.62407 0.17721 0.0
Cu23 Cu 0.78432 0.30399 0.45122 0.0
N24 N 0.75705 0.22638 0.44935 0.0
N25 N 0.6863 0.13551 0.4487 0.0
C26 C 0.69103 0.18836 0.45135 0.0
C27 C 0.75157 0.13992 0.44489 0.0
C28 C 0.79528 0.19632 0.44517 0.0
O29 O 0.75888 0.32089 0.47847 0.0
C30 C 0.68709 0.30522 0.41962 0.0
O31 O 0.63501 0.27682 0.4316 0.0
H32 H 0.64703 0.19908 0.45442 0.0
H33 H 0.85059 0.21398 0.44208 0.0
N34 N 0.88081 0.34217 0.45023 0.0
N35 N 0.98258 0.41549 0.4475 0.0
C36 C 0.91328 0.39561 0.44429 0.0
C37 C 0.93142 0.32798 0.45763 0.0
C38 C 0.99473 0.37333 0.45583 0.0
C39 C 0.70067 0.31832 0.48515 0.0
O40 O 0.64865 0.30924 0.47241 0.0
H41 H 0.88629 0.42038 0.43867 0.0
H42 H 0.92266 0.28872 0.46484 0.0
O43 O 0.74933 0.32544 0.42658 0.0
H44 H 0.76598 0.10502 0.44159 0.0
H45 H 1.04505 0.37624 0.46115 0.0
Cu46 Cu 0.46814 0.77157 0.76985 0.0
N47 N 0.53084 0.73736 0.76638 0.0
N48 N 0.56463 0.66646 0.76327 0.0
C49 C 0.51089 0.68218 0.76217 0.0
C50 C 0.62124 0.71358 0.76797 0.0
C51 C 0.60021 0.75754 0.7698 0.0
O52 O 0.41014 0.73377 0.79273 0.0
C53 C 0.45746 0.78234 0.72867 0.0
O54 O 0.52463 0.81123 0.7317 0.0
H55 H 0.45752 0.65355 0.75914 0.0
H56 H 0.63277 0.80051 0.77414 0.0
N57 N 0.51376 0.84831 0.77662 0.0
N58 N 0.54063 0.94058 0.77825 0.0
C59 C 0.49864 0.89066 0.76969 0.0
C60 C 0.56639 0.87246 0.79019 0.0
C61 C 0.58344 0.92954 0.79111 0.0
C62 C 0.36237 0.68437 0.79166 0.0
O63 O 0.34228 0.65895 0.77376 0.0
H64 H 0.45747 0.88507 0.75877 0.0
H65 H 0.59004 0.85 0.79903 0.0
O66 O 0.41855 0.76158 0.74397 0.0
H67 H 0.67308 0.71542 0.77079 0.0
H68 H 0.62347 0.96049 0.80061 0.0
Cu69 Cu 0.74682 0.44738 0.12652 0.0
N70 N 0.77555 0.50005 0.10574 0.0
N71 N 0.79274 0.53107 0.07379 0.0
C72 C 0.76251 0.4863 0.08572 0.0
C73 C 0.82654 0.57493 0.08665 0.0
C74 C 0.81595 0.55556 0.10645 0.0
O75 O 0.6483 0.40064 0.12121 0.0
C76 C 0.87372 0.4408 0.13175 0.0
O77 O 0.88804 0.49199 0.13877 0.0
H78 H 0.73324 0.44388 0.07997 0.0
H79 H 0.83805 0.57984 0.12027 0.0
N80 N 0.7506 0.47878 0.15278 0.0
N81 N 0.74168 0.48097 0.18678 0.0
C82 C 0.74398 0.45023 0.17015 0.0
C83 C 0.75226 0.52932 0.15868 0.0
C84 C 0.74695 0.53084 0.17977 0.0
C85 C 0.61082 0.42905 0.1206 0.0
O86 O 0.64096 0.48391 0.12292 0.0
H87 H 0.73926 0.40724 0.17056 0.0
H88 H 0.75478 0.56204 0.1484 0.0
O89 O 0.81161 0.41025 0.12576 0.0
H90 H 0.85822 0.61726 0.08199 0.0
H91 H 0.74568 0.56521 0.18919 0.0
Cu92 Cu 0.36066 0.76695 0.43978 0.0
N93 N 0.37711 0.84208 0.44421 0.0
N94 N 0.43956 0.93407 0.44795 0.0
C95 C 0.44048 0.88416 0.44258 0.0
C96 C 0.37313 0.92347 0.45314 0.0
C97 C 0.3345 0.86622 0.45091 0.0
O98 O 0.39924 0.74544 0.46348 0.0
C99 C 0.41215 0.72115 0.40609 0.0
O100 O 0.40412 0.67821 0.41758 0.0
H101 H 0.48678 0.87817 0.43793 0.0
H102 H 0.27981 0.84375 0.45436 0.0
N103 N 0.26606 0.72115 0.43758 0.0
N104 N 0.16848 0.64335 0.43755 0.0
C105 C 0.23708 0.6663 0.44202 0.0
C106 C 0.21404 0.73307 0.42989 0.0
C107 C 0.15328 0.68484 0.42992 0.0
C108 C 0.36647 0.74234 0.4802 0.0
O109 O 0.30859 0.75065 0.48016 0.0
H110 H 0.26586 0.64343 0.44806 0.0
H111 H 0.2202 0.77358 0.42427 0.0
O112 O 0.40173 0.76264 0.41356 0.0
H113 H 0.35451 0.95466 0.45848 0.0
H114 H 0.10232 0.68023 0.42455 0.0
Cu115 Cu 0.61972 0.32575 0.76291 0.0
N116 N 0.56199 0.36464 0.76255 0.0
N117 N 0.53361 0.43853 0.76233 0.0
C118 C 0.58489 0.42029 0.75972 0.0
C119 C 0.47607 0.39292 0.76701 0.0
C120 C 0.49381 0.34711 0.76713 0.0
O121 O 0.66863 0.34687 0.78908 0.0
C122 C 0.70554 0.31927 0.72961 0.0
O123 O 0.71335 0.27915 0.73978 0.0
H124 H 0.63872 0.44732 0.75665 0.0
H125 H 0.46017 0.30459 0.77105 0.0
N126 N 0.56785 0.24783 0.7614 0.0
N127 N 0.53932 0.15552 0.7633 0.0
C128 C 0.584 0.20735 0.76964 0.0
C129 C 0.51127 0.22045 0.7495 0.0
C130 C 0.49349 0.16344 0.75067 0.0
C131 C 0.71899 0.39396 0.79277 0.0
O132 O 0.74801 0.42731 0.77752 0.0
H133 H 0.62904 0.21569 0.77937 0.0
H134 H 0.4863 0.24071 0.74005 0.0
O135 O 0.67483 0.34754 0.73806 0.0
H136 H 0.42581 0.39323 0.77076 0.0
H137 H 0.45148 0.13038 0.74247 0.0
Cu138 Cu 0.48644 0.76314 0.60318 0.0
N139 N 0.54127 0.83958 0.60158 0.0
N140 N 0.56502 0.93092 0.60117 0.0
C141 C 0.51617 0.87928 0.60451 0.0
C142 C 0.62328 0.92388 0.5958 0.0
C143 C 0.60828 0.86706 0.59596 0.0
O144 O 0.43572 0.74194 0.57738 0.0
C145 C 0.46527 0.77309 0.64381 0.0
O146 O 0.53336 0.79934 0.64255 0.0
H147 H 0.46258 0.87037 0.60851 0.0
H148 H 0.643 0.8472 0.59164 0.0
N149 N 0.5386 0.7205 0.60661 0.0
N150 N 0.55937 0.64384 0.61024 0.0
C151 C 0.51194 0.66414 0.60512 0.0
C152 C 0.60508 0.73631 0.61304 0.0
C153 C 0.61819 0.68875 0.61522 0.0
C154 C 0.47025 0.73822 0.56173 0.0
O155 O 0.53501 0.74368 0.56406 0.0
H156 H 0.45827 0.63841 0.60093 0.0
H157 H 0.64064 0.77904 0.61665 0.0
O158 O 0.4296 0.75266 0.62757 0.0
H159 H 0.67214 0.9572 0.59152 0.0
H160 H 0.66617 0.687 0.62059 0.0
Cu161 Cu 0.81952 0.56434 0.92843 0.0
N162 N 0.79986 0.52672 0.95328 0.0
N163 N 0.78776 0.50994 0.98674 0.0
C164 C 0.80204 0.54909 0.97225 0.0
C165 C 0.77576 0.46115 0.97665 0.0
C166 C 0.78315 0.47162 0.95598 0.0
O167 O 0.9181 0.61582 0.92885 0.0
C168 C 0.74581 0.63821 0.93165 0.0
O169 O 0.79979 0.67414 0.94189 0.0
H170 H 0.81468 0.59309 0.97546 0.0
H171 H 0.77789 0.44135 0.94377 0.0
N172 N 0.81523 0.51327 0.90718 0.0
N173 N 0.79893 0.46939 0.8765 0.0
C174 C 0.77656 0.49935 0.88978 0.0
C175 C 0.86285 0.491 0.9048 0.0
C176 C 0.8531 0.46413 0.88595 0.0
C177 C 0.95346 0.65087 0.94272 0.0
O178 O 0.92165 0.66672 0.95732 0.0
H179 H 0.73558 0.51338 0.88643 0.0
H180 H 0.90418 0.49651 0.91566 0.0
O181 O 0.74796 0.59354 0.9239 0.0
H182 H 0.76405 0.42123 0.98379 0.0
H183 H 0.88474 0.44381 0.87935 0.0
Cu184 Cu 0.32253 0.7575 0.28966 0.0
N185 N 0.22634 0.7178 0.29016 0.0
N186 N 0.12548 0.64315 0.29185 0.0
C187 C 0.19485 0.66329 0.29492 0.0
C188 C 0.11232 0.68631 0.28485 0.0
C189 C 0.17506 0.73259 0.28378 0.0
O190 O 0.35147 0.73571 0.2638 0.0
C191 C 0.41869 0.74565 0.31937 0.0
O192 O 0.46953 0.76714 0.30618 0.0
H193 H 0.22256 0.6382 0.29967 0.0
H194 H 0.18305 0.77331 0.27795 0.0
N195 N 0.34695 0.83494 0.29124 0.0
N196 N 0.41093 0.92729 0.29124 0.0
C197 C 0.40818 0.876 0.28589 0.0
C198 C 0.31033 0.86136 0.30034 0.0
C199 C 0.3497 0.91849 0.30032 0.0
C200 C 0.35569 0.68859 0.26105 0.0
O201 O 0.35131 0.65721 0.27691 0.0
H202 H 0.45066 0.86845 0.27889 0.0
H203 H 0.25953 0.84041 0.30718 0.0
O204 O 0.35642 0.73648 0.3143 0.0
H205 H 0.06157 0.68376 0.28012 0.0
H206 H 0.33547 0.95099 0.30688 0.0
Cu207 Cu 0.59805 0.29978 0.60979 0.0
N208 N 0.54328 0.22329 0.60622 0.0
N209 N 0.51766 0.13158 0.60382 0.0
C210 C 0.56518 0.18228 0.60987 0.0
C211 C 0.46311 0.14046 0.59631 0.0
C212 C 0.47913 0.1974 0.59783 0.0
O213 O 0.65153 0.32717 0.5848 0.0
C214 C 0.70893 0.3361 0.64178 0.0
O215 O 0.75709 0.36514 0.62874 0.0
H216 H 0.61646 0.18976 0.61582 0.0
H217 H 0.44775 0.21867 0.59231 0.0
N218 N 0.54255 0.33985 0.61289 0.0
N219 N 0.51531 0.4141 0.6144 0.0
C220 C 0.56514 0.39535 0.61006 0.0
C221 C 0.47615 0.32293 0.61934 0.0
C222 C 0.45897 0.36899 0.6202 0.0
C223 C 0.67109 0.29636 0.57318 0.0
O224 O 0.66869 0.24844 0.5799 0.0
H225 H 0.61746 0.42169 0.60524 0.0
H226 H 0.44313 0.28047 0.62349 0.0
O227 O 0.64648 0.30815 0.63577 0.0
H228 H 0.41676 0.10848 0.58942 0.0
H229 H 0.40976 0.36967 0.625 0.0
Cu230 Cu 0.33245 0.61916 0.93114 0.0
N231 N 0.30802 0.56559 0.95154 0.0
N232 N 0.29368 0.53328 0.98327 0.0
C233 C 0.30786 0.57846 0.9716 0.0
C234 C 0.28474 0.49005 0.97019 0.0
C235 C 0.29384 0.51024 0.9505 0.0
O236 O 0.28033 0.66564 0.93668 0.0
C237 C 0.46611 0.62594 0.9258 0.0
O238 O 0.42947 0.57501 0.91853 0.0
H239 H 0.32033 0.62059 0.97759 0.0
H240 H 0.2927 0.48668 0.93656 0.0
N241 N 0.30552 0.58861 0.90482 0.0
N242 N 0.29525 0.5879 0.87087 0.0
C243 C 0.32768 0.61799 0.88764 0.0
C244 C 0.25709 0.53818 0.89865 0.0
C245 C 0.25079 0.53759 0.87758 0.0
C246 C 0.21444 0.63721 0.9371 0.0
O247 O 0.18986 0.58243 0.93451 0.0
H248 H 0.36564 0.6611 0.88748 0.0
H249 H 0.22683 0.50495 0.90876 0.0
O250 O 0.43436 0.65627 0.93198 0.0
H251 H 0.27482 0.44768 0.97462 0.0
H252 H 0.21557 0.50358 0.86797 0.0
Cu253 Cu 0.73326 0.30911 0.29161 0.0
N254 N 0.82974 0.34387 0.29545 0.0
N255 N 0.93401 0.41522 0.29754 0.0
C256 C 0.86457 0.3997 0.29803 0.0
C257 C 0.94401 0.36743 0.295 0.0
C258 C 0.87922 0.32315 0.29385 0.0
O259 O 0.7137 0.34474 0.26792 0.0
C260 C 0.7078 0.2972 0.33264 0.0
O261 O 0.74601 0.26813 0.32974 0.0
H262 H 0.83958 0.42873 0.29944 0.0
H263 H 0.86926 0.27941 0.29126 0.0
N264 N 0.7039 0.23232 0.28531 0.0
N265 N 0.63775 0.14034 0.28314 0.0
C266 C 0.64354 0.19059 0.29087 0.0
C267 C 0.73644 0.20748 0.27338 0.0
C268 C 0.69593 0.15054 0.27215 0.0
C269 C 0.7146 0.39395 0.26778 0.0
O270 O 0.71901 0.42191 0.2851 0.0
H271 H 0.60414 0.19695 0.30006 0.0
H272 H 0.7854 0.22936 0.26568 0.0
O273 O 0.69168 0.31908 0.3173 0.0
H274 H 0.99423 0.36514 0.29316 0.0
H275 H 0.7073 0.11922 0.26352 0.0
C276 C 0.35784 0.53922 1.01547 0.0
C277 C 0.2956 0.53355 1.00529 0.0
C278 C 0.24215 0.54047 0.03815 0.0
C279 C 0.30397 0.54505 0.04833 0.0
N280 N 0.41687 0.54163 0.04771 0.0
N281 N 0.17647 0.52308 1.00613 0.0
C282 C 0.36076 0.54224 0.03724 0.0
C283 C 0.23694 0.53234 1.01646 0.0
N284 N 0.41479 0.54381 1.00415 0.0
N285 N 0.1897 0.54571 0.04932 0.0
H286 H 0.17228 0.51762 0.99023 0.0
H287 H 0.12963 0.51774 1.01314 0.0
H288 H 0.19256 0.55125 0.06521 0.0
H289 H 0.14499 0.54725 0.04298 0.0
H290 H 0.46425 0.55375 1.01031 0.0
H291 H 0.41344 0.54065 0.9882 0.0
H292 H 0.45762 0.53449 0.04089 0.0
H293 H 0.42047 0.54471 0.06365 0.0
C294 C 0.707 0.35635 0.38645 0.0
C295 C 0.67665 0.30507 0.39703 0.0
C296 C 0.64311 0.25397 0.36402 0.0
C297 C 0.68523 0.30332 0.35378 0.0
N298 N 0.75956 0.40214 0.355 0.0
N299 N 0.6224 0.20311 0.39545 0.0
C300 C 0.71686 0.35504 0.36486 0.0
C301 C 0.64508 0.25332 0.38575 0.0
N302 N 0.726 0.40623 0.39707 0.0
N303 N 0.60186 0.20737 0.35285 0.0
H304 H 0.62548 0.19934 0.41119 0.0
H305 H 0.60635 0.16456 0.38764 0.0
H306 H 0.59961 0.20701 0.33689 0.0
H307 H 0.56477 0.17159 0.35937 0.0
H308 H 0.74277 0.44499 0.39006 0.0
H309 H 0.71846 0.40831 0.41282 0.0
H310 H 0.79104 0.43937 0.3626 0.0
H311 H 0.7666 0.40305 0.33918 0.0
C312 C 0.41953 0.72024 0.69735 0.0
C313 C 0.4306 0.7722 0.70734 0.0
C314 C 0.43037 0.81443 0.67417 0.0
C315 C 0.4335 0.76645 0.66434 0.0
N316 N 0.42608 0.67189 0.66558 0.0
N317 N 0.43908 0.86705 0.70605 0.0
C318 C 0.42464 0.71814 0.67562 0.0
C319 C 0.43233 0.81851 0.69594 0.0
N320 N 0.40638 0.67366 0.70874 0.0
N321 N 0.42691 0.85621 0.6625 0.0
H322 H 0.43658 0.86972 0.72197 0.0
H323 H 0.44856 0.90474 0.69891 0.0
H324 H 0.42494 0.85325 0.64653 0.0
H325 H 0.4206 0.89135 0.6684 0.0
H326 H 0.39303 0.63348 0.7025 0.0
H327 H 0.40336 0.67441 0.72467 0.0
H328 H 0.42855 0.63758 0.67287 0.0
H329 H 0.42714 0.66871 0.64964 0.0
C330 C 0.73605 0.53081 0.04068 0.0
C331 C 0.79386 0.53016 0.05173 0.0
C332 C 0.85048 0.52197 1.01963 0.0
C333 C 0.79073 0.51893 1.00864 0.0
N334 N 0.67535 0.51731 1.00791 0.0
N335 N 0.90349 0.52106 0.05263 0.0
C336 C 0.73321 0.52288 1.01897 0.0
C337 C 0.85068 0.52501 0.04141 0.0
N338 N 0.68446 0.53945 0.05114 0.0
N339 N 0.90726 0.52283 1.00904 0.0
H340 H 0.90535 0.52432 0.06857 0.0
H341 H 0.94341 0.51164 0.04639 0.0
H342 H 0.90773 0.51978 0.99309 0.0
H343 H 0.9552 0.53003 1.01576 0.0
H344 H 0.64262 0.54437 0.04422 0.0
H345 H 0.68563 0.54473 0.06704 0.0
H346 H 0.62893 0.51534 1.01434 0.0
H347 H 0.67274 0.51195 0.99201 0.0
C348 C 0.38958 0.68175 0.34907 0.0
C349 C 0.43204 0.73448 0.34083 0.0
C350 C 0.47914 0.76839 0.37523 0.0
C351 C 0.4262 0.72037 0.38376 0.0
N352 N 0.32466 0.63313 0.3784 0.0
N353 N 0.51359 0.83091 0.34663 0.0
C354 C 0.3804 0.67687 0.37061 0.0
C355 C 0.47698 0.77841 0.35397 0.0
N356 N 0.35764 0.63637 0.33622 0.0
N357 N 0.53137 0.80453 0.38753 0.0
H358 H 0.51308 0.84094 0.33131 0.0
H359 H 0.54018 0.86586 0.35608 0.0
H360 H 0.53472 0.79775 0.40311 0.0
H361 H 0.57484 0.83757 0.3819 0.0
H362 H 0.33099 0.59569 0.3414 0.0
H363 H 0.36434 0.63862 0.32038 0.0
H364 H 0.28527 0.60427 0.36923 0.0
H365 H 0.31388 0.62811 0.39396 0.0
C366 C 0.75535 0.3768 0.69829 0.0
C367 C 0.71771 0.32366 0.70708 0.0
C368 C 0.69964 0.27974 0.67279 0.0
C369 C 0.72498 0.33334 0.66386 0.0
N370 N 0.77156 0.43435 0.66844 0.0
N371 N 0.6392 0.22613 0.70166 0.0
C372 C 0.75243 0.38247 0.67665 0.0
C373 C 0.68654 0.27527 0.6941 0.0
N374 N 0.79418 0.42172 0.71058 0.0
N375 N 0.6873 0.2329 0.66082 0.0
H376 H 0.62161 0.22237 0.71669 0.0
H377 H 0.6106 0.19133 0.69237 0.0
H378 H 0.69839 0.23512 0.6452 0.0
H379 H 0.67387 0.19312 0.66683 0.0
H380 H 0.82787 0.4602 0.70488 0.0
H381 H 0.79778 0.41875 0.72641 0.0
H382 H 0.78402 0.47094 0.67732 0.0
H383 H 0.77003 0.44059 0.65279 0.0
C384 C 0.31002 0.61071 0.23418 0.0
C385 C 0.35673 0.6664 0.23983 0.0
C386 C 0.39608 0.68152 0.20419 0.0
C387 C 0.35759 0.62371 0.19948 0.0
N388 N 0.29048 0.53065 0.21166 0.0
N389 N 0.45403 0.75161 0.23059 0.0
C390 C 0.31795 0.58748 0.21493 0.0
C391 C 0.40246 0.7011 0.22492 0.0
N392 N 0.25577 0.58076 0.24661 0.0
N393 N 0.42492 0.71798 0.18873 0.0
H394 H 0.46275 0.76643 0.24573 0.0
H395 H 0.49268 0.77597 0.2206 0.0
H396 H 0.41879 0.70509 0.17335 0.0
H397 H 0.44822 0.76142 0.19103 0.0
H398 H 0.21695 0.54206 0.24218 0.0
H399 H 0.24455 0.59722 0.26018 0.0
H400 H 0.26665 0.5023 0.22319 0.0
H401 H 0.2983 0.51181 0.19819 0.0
C402 C 0.73363 0.36037 0.52077 0.0
C403 C 0.68928 0.31594 0.50766 0.0
C404 C 0.62593 0.26568 0.53758 0.0
C405 C 0.67614 0.30581 0.55075 0.0
N406 N 0.78112 0.38981 0.55508 0.0
N407 N 0.6025 0.2205 0.50415 0.0
C408 C 0.73078 0.35305 0.54241 0.0
C409 C 0.63768 0.2671 0.51619 0.0
N410 N 0.77718 0.40997 0.51253 0.0
N411 N 0.56548 0.2272 0.54542 0.0
H412 H 0.61065 0.21839 0.48848 0.0
H413 H 0.5704 0.18186 0.51011 0.0
H414 H 0.55346 0.22621 0.56093 0.0
H415 H 0.52411 0.20054 0.53629 0.0
H416 H 0.80598 0.44581 0.52128 0.0
H417 H 0.77986 0.41685 0.49682 0.0
H418 H 0.82647 0.42165 0.54983 0.0
H419 H 0.77983 0.38598 0.57096 0.0
C420 C 0.29558 0.67117 0.82454 0.0
C421 C 0.33635 0.65369 0.8109 0.0
C422 C 0.34724 0.59071 0.83684 0.0
C423 C 0.30515 0.60707 0.85016 0.0
N424 N 0.22905 0.6543 0.85613 0.0
N425 N 0.39031 0.58926 0.80252 0.0
C426 C 0.27617 0.6448 0.84379 0.0
C427 C 0.35845 0.61079 0.81652 0.0
N428 N 0.27637 0.71349 0.81918 0.0
N429 N 0.37942 0.55822 0.84407 0.0
H430 H 0.40171 0.60381 0.78771 0.0
H431 H 0.40058 0.55391 0.80502 0.0
H432 H 0.37171 0.54274 0.85888 0.0
H433 H 0.41757 0.55008 0.83607 0.0
H434 H 0.25355 0.73267 0.82923 0.0
H435 H 0.28617 0.73139 0.80476 0.0
H436 H 0.20088 0.67749 0.85187 0.0
H437 H 0.21405 0.63499 0.8702 0.0
C438 C 0.66703 0.42502 0.21442 0.0
C439 C 0.73315 0.46304 0.20768 0.0
C440 C 0.78313 0.46437 0.24166 0.0
C441 C 0.71879 0.42144 0.2478 0.0
N442 N 0.60003 0.35858 0.23993 0.0
N443 N 0.85593 0.51419 0.21347 0.0
C444 C 0.66076 0.40112 0.23413 0.0
C445 C 0.79158 0.48183 0.22099 0.0
N446 N 0.61014 0.41305 0.20201 0.0
N447 N 0.83625 0.4885 0.25552 0.0
H448 H 0.86343 0.52761 0.19838 0.0
H449 H 0.90233 0.52409 0.22156 0.0
H450 H 0.83346 0.47597 0.27061 0.0
H451 H 0.88123 0.524 0.25257 0.0
H452 H 0.55903 0.38963 0.20648 0.0
H453 H 0.61382 0.43052 0.18761 0.0
H454 H 0.5585 0.3374 0.22997 0.0
H455 H 0.59224 0.34247 0.25464 0.0
C456 C 0.39023 0.6896 0.53221 0.0
C457 C 0.44351 0.73873 0.54078 0.0
C458 C 0.4492 0.78926 0.50903 0.0
C459 C 0.39801 0.73944 0.50016 0.0
N460 N 0.32484 0.64085 0.50179 0.0
N461 N 0.52787 0.83429 0.53741 0.0
C462 C 0.36986 0.68917 0.51136 0.0
C463 C 0.47445 0.78817 0.52914 0.0
N464 N 0.35884 0.64367 0.54411 0.0
N465 N 0.47105 0.83834 0.49857 0.0
H466 H 0.54349 0.83749 0.55269 0.0
H467 H 0.55907 0.86879 0.529 0.0
H468 H 0.45538 0.84065 0.48361 0.0
H469 H 0.50154 0.87759 0.50497 0.0
H470 H 0.31503 0.60835 0.53963 0.0
H471 H 0.37437 0.64197 0.55915 0.0
H472 H 0.30665 0.60141 0.50828 0.0
H473 H 0.30918 0.63945 0.48655 0.0
C474 C 0.77537 0.48891 0.84079 0.0
C475 C 0.77519 0.45031 0.85578 0.0
C476 C 0.74692 0.37651 0.82899 0.0
C477 C 0.73909 0.41346 0.81445 0.0
N478 N 0.72596 0.50053 0.80877 0.0
N479 N 0.74441 0.35422 0.86489 0.0
C480 C 0.74762 0.46852 0.82095 0.0
C481 C 0.75598 0.39308 0.85008 0.0
N482 N 0.80491 0.54528 0.84508 0.0
N483 N 0.74888 0.3267 0.8227 0.0
H484 H 0.74784 0.36482 0.88047 0.0
H485 H 0.72417 0.31111 0.86175 0.0
H486 H 0.74613 0.31414 0.80733 0.0
H487 H 0.76086 0.30077 0.83252 0.0
H488 H 0.81198 0.57527 0.83399 0.0
H489 H 0.82933 0.5621 0.85901 0.0
H490 H 0.72549 0.53877 0.81374 0.0
H491 H 0.70057 0.48613 0.79477 0.0
C492 C 0.96371 0.41209 0.14685 0.0
C493 C 0.93245 0.4229 0.12915 0.0
C494 C 1.03139 0.42469 0.10829 0.0
C495 C 0.06648 0.42059 0.12645 0.0
N496 N 0.06703 0.40951 0.16296 0.0
N497 N 0.93453 0.43983 0.09306 0.0
C498 C 1.03257 0.41357 0.14571 0.0
C499 C 0.96508 0.42806 0.10979 0.0
N500 N 0.92667 0.3998 0.16467 0.0
N501 N 0.06226 0.42688 0.08965 0.0
H502 H 0.88504 0.44049 0.09344 0.0
H503 H 0.95873 0.45125 0.07897 0.0
H504 H 0.11304 0.42975 0.08787 0.0
H505 H 1.03673 0.42315 0.0757 0.0
H506 H 0.94318 0.38712 0.1779 0.0
H507 H 0.87603 0.39802 0.16573 0.0
H508 H 0.0494 0.41087 0.17778 0.0
H509 H 0.11541 0.40677 0.16253 0.0
C510 C 0.59202 0.06235 0.4674 0.0
C511 C 0.62321 0.08515 0.44859 0.0
C512 C 0.52714 1.01244 0.42961 0.0
C513 C 0.49885 0.98715 0.44835 0.0
N514 N 0.50593 0.9833 0.48494 0.0
N515 N 0.62516 0.08133 0.41181 0.0
C516 C 0.53143 1.0111 0.46726 0.0
C517 C 0.59202 0.05994 0.42966 0.0
N518 N 0.62063 0.09006 0.48532 0.0
N519 N 0.49043 0.99153 0.41187 0.0
H520 H 0.67113 0.11759 0.4114 0.0
H521 H 0.60943 0.06193 0.39751 0.0
H522 H 0.44241 0.95705 0.4116 0.0
H523 H 0.5044 1.01044 0.39775 0.0
H524 H 0.59688 0.07937 0.49952 0.0
H525 H 0.66699 0.12611 0.48584 0.0
H526 H 0.53086 0.99507 0.4991 0.0
H527 H 0.46134 0.94593 0.48522 0.0
C528 C 0.55333 0.52662 0.78139 0.0
C529 C 0.54145 0.49611 0.76255 0.0
C530 C 0.55156 0.58001 0.74403 0.0
C531 C 0.55917 0.60948 0.76299 0.0
N532 N 0.55697 0.6099 0.7998 0.0
N533 N 0.52337 0.49021 0.72619 0.0
C534 C 0.55747 0.58255 0.78173 0.0
C535 C 0.53901 0.52193 0.74389 0.0
N536 N 0.56229 0.50225 0.79884 0.0
N537 N 0.55763 0.60829 0.72627 0.0
H538 H 0.51483 0.4478 0.72584 0.0
H539 H 0.51496 0.50456 0.71213 0.0
H540 H 0.56644 0.65075 0.72617 0.0
H541 H 0.55813 0.59113 0.71176 0.0
H542 H 0.57841 0.52386 0.81278 0.0
H543 H 0.55848 0.46101 0.79902 0.0
H544 H 0.54851 0.59085 0.81397 0.0
H545 H 0.55947 0.65077 0.80049 0.0
C546 C 0.52721 0.05218 0.62143 0.0
C547 C 0.52817 0.08024 0.60305 0.0
C548 C 0.55006 1.00787 0.58331 0.0
C549 C 0.55445 0.9822 0.60182 0.0
N550 N 0.55545 0.98189 0.63857 0.0
N551 N 0.55215 0.0913 0.56701 0.0
C552 C 0.5452 1.00493 0.62095 0.0
C553 C 0.54274 0.05983 0.58409 0.0
N554 N 0.5075 0.0703 0.63918 0.0
N555 N 0.55025 0.98134 0.56503 0.0
H556 H 0.54784 0.12985 0.56721 0.0
H557 H 0.56984 0.08164 0.55313 0.0
H558 H 0.55472 0.94284 0.56403 0.0
H559 H 0.54015 0.99496 0.55101 0.0
H560 H 0.49956 0.04907 0.6529 0.0
H561 H 0.49411 0.10487 0.63979 0.0
H562 H 0.55545 0.99901 0.65313 0.0
H563 H 0.56912 0.94747 0.63852 0.0
C564 C 0.57048 0.63925 0.94761 0.0
C565 C 0.54276 0.6439 0.92826 0.0
C566 C 0.65195 0.65264 0.91151 0.0
C567 C 0.67911 0.64619 0.93076 0.0
N568 N 0.66928 0.64143 0.96762 0.0
N569 N 0.55978 0.66621 0.89267 0.0
C570 C 0.64023 0.64278 0.94899 0.0
C571 C 0.58464 0.65424 0.91048 0.0
N572 N 0.52834 0.62774 0.96443 0.0
N573 N 0.69012 0.65601 0.89418 0.0
H574 H 0.51098 0.6681 0.89167 0.0
H575 H 0.58889 0.67861 0.87937 0.0
H576 H 0.7412 0.65866 0.89452 0.0
H577 H 0.67084 0.65413 0.8794 0.0
H578 H 0.54136 0.6166 0.97851 0.0
H579 H 0.4781 0.62688 0.96413 0.0
H580 H 0.64765 0.64572 0.98157 0.0
H581 H 0.71735 0.63884 0.96934 0.0
C582 C 0.05726 0.55115 0.27531 0.0
C583 C 0.07734 0.58547 0.29328 0.0
C584 C 1.00893 0.50513 0.31425 0.0
C585 C 0.98508 0.47193 0.29616 0.0
N586 N 0.97789 0.46352 0.25942 0.0
N587 N 0.06988 0.59847 0.32955 0.0
C588 C 1.00706 0.49497 0.27664 0.0
C589 C 0.05261 0.56326 0.31273 0.0
N590 N 0.08801 0.57209 0.25712 0.0
N591 N 0.99012 0.48038 0.33279 0.0
H592 H 0.10202 0.64114 0.32866 0.0
H593 H 0.0495 0.58663 0.34407 0.0
H594 H 0.95752 0.43793 0.33409 0.0
H595 H 1.00972 0.50051 0.34676 0.0
H596 H 0.08129 0.54779 0.24377 0.0
H597 H 0.12481 0.61325 0.25575 0.0
H598 H 0.98579 0.47952 0.24473 0.0
H599 H 0.94131 0.42206 0.25995 0.0
C600 C 0.48813 0.38437 0.13344 0.0
C601 C 0.53448 0.40334 0.11676 0.0
C602 C 0.44438 0.41708 0.09658 0.0
C603 C 0.39842 0.40059 0.11363 0.0
N604 N 0.36917 0.35389 0.14584 0.0
N605 N 0.55131 0.42024 0.08084 0.0
C606 C 0.41795 0.37913 0.13125 0.0
C607 C 0.51018 0.41318 0.09771 0.0
N608 N 0.51246 0.37446 0.15166 0.0
N609 N 0.42845 0.44113 0.08004 0.0
H610 H 0.59981 0.41772 0.08153 0.0
H611 H 0.5347 0.42275 0.06602 0.0
H612 H 0.38198 0.44628 0.07842 0.0
H613 H 0.46379 0.46012 0.06846 0.0
H614 H 0.48429 0.36733 0.16523 0.0
H615 H 0.56261 0.37558 0.15331 0.0
H616 H 0.37817 0.3334 0.15831 0.0
H617 H 0.31737 0.34905 0.1444 0.0
C618 C 0.06197 0.49022 0.42583 0.0
C619 C 1.03138 0.47264 0.44518 0.0
C620 C 0.08936 0.56863 0.45922 0.0
C621 C 0.12164 0.58576 0.44005 0.0
N622 N 0.14589 0.56454 0.40571 0.0
N623 N 1.01661 0.4919 0.4806 0.0
C624 C 0.10983 0.54693 0.42348 0.0
C625 C 1.04545 0.51105 0.46201 0.0
N626 N 1.04382 0.45248 0.40974 0.0
N627 N 0.10006 0.60814 0.47448 0.0
H628 H 0.98231 0.4503 0.48277 0.0
H629 H 1.0282 0.51604 0.49407 0.0
H630 H 0.13275 0.65038 0.47272 0.0
H631 H 0.07482 0.60024 0.48852 0.0
H632 H 0.05875 0.46296 0.39468 0.0
H633 H 1.01052 0.41034 0.41138 0.0
H634 H 0.1449 0.53795 0.39346 0.0
H635 H 0.18023 0.60619 0.40362 0.0
C636 C 0.58263 0.08189 0.75516 0.0
C637 C 0.5422 0.10237 0.76771 0.0
C638 C 0.50281 1.01651 0.78777 0.0
C639 C 0.54021 0.99486 0.77452 0.0
N640 N 0.61081 1.00296 0.74479 0.0
N641 N 0.4606 0.08975 0.79493 0.0
C642 C 0.57881 1.02655 0.75795 0.0
C643 C 0.50145 0.06977 0.78379 0.0
N644 N 0.62561 0.11616 0.74088 0.0
N645 N 0.46941 0.98603 0.80425 0.0
H646 H 0.46074 0.12938 0.79263 0.0
H647 H 0.42454 0.06668 0.80575 0.0
H648 H 0.4678 0.94614 0.80697 0.0
H649 H 0.44608 1.00078 0.81572 0.0
H650 H 0.6611 0.10636 0.7322 0.0
H651 H 0.62897 0.15668 0.73866 0.0
H652 H 0.63452 1.02103 0.73122 0.0
H653 H 0.6103 0.96316 0.74694 0.0
C654 C 0.54296 0.55415 0.59308 0.0
C655 C 0.54745 0.58565 0.61137 0.0
C656 C 0.53131 0.50368 0.63179 0.0
C657 C 0.5227 0.47133 0.61347 0.0
N658 N 0.50994 0.46192 0.5769 0.0
N659 N 0.53458 0.58982 0.64786 0.0
C660 C 0.52554 0.49556 0.59414 0.0
C661 C 0.53839 0.56021 0.6307 0.0
N662 N 0.55742 0.58094 0.57482 0.0
N663 N 0.53534 0.4808 0.6501 0.0
H664 H 0.53943 0.63131 0.6474 0.0
H665 H 0.52124 0.57217 0.66222 0.0
H666 H 0.5306 0.43948 0.65128 0.0
H667 H 0.54849 0.50372 0.66386 0.0
H668 H 0.56154 0.56174 0.56102 0.0
H669 H 0.57041 0.62396 0.57375 0.0
H670 H 0.50488 0.47566 0.5624 0.0
H671 H 0.4966 0.41874 0.57741 0.0
C672 C 0.13662 0.68186 0.9242 0.0
C673 C 0.16359 0.66283 0.9409 0.0
C674 C 0.05909 0.64876 0.96095 0.0
C675 C 1.03001 0.66525 0.94386 0.0
N676 N 1.0483 0.7122 0.9117 0.0
N677 N 0.16251 0.64566 0.9768 0.0
C678 C 0.07151 0.68692 0.9263 0.0
C679 C 0.12888 0.65279 0.9599 0.0
N680 N 0.17148 0.69206 0.90603 0.0
N681 N 1.0187 0.62461 0.97744 0.0
H682 H 0.21357 0.64824 0.97616 0.0
H683 H 0.14296 0.64304 0.9916 0.0
H684 H 0.96698 0.61932 0.979 0.0
H685 H 1.03483 0.60568 0.98906 0.0
H686 H 0.15085 0.69927 0.89245 0.0
H687 H 0.22065 0.69109 0.90446 0.0
H688 H 0.07812 0.73283 0.89928 0.0
H689 H 1.00123 0.71693 0.91308 0.0
C690 C 0.47228 1.01288 0.27158 0.0
C691 C 0.46891 0.98064 0.28904 0.0
C692 C 0.57512 0.05547 0.30314 0.0
C693 C 0.57991 0.08685 0.28532 0.0
N694 N 0.53716 0.0967 0.25223 0.0
N695 N 0.51683 0.96739 0.32082 0.0
C696 C 0.52949 0.0658 0.26941 0.0
C697 C 0.52037 1.00098 0.30469 0.0
N698 N 0.41967 0.99279 0.25736 0.0
N699 N 0.62286 0.07852 0.31856 0.0
H700 H 0.47625 0.92794 0.32242 0.0
H701 H 0.555 0.97692 0.33213 0.0
H702 H 0.66452 0.11758 0.3174 0.0
H703 H 0.62011 0.06065 0.33278 0.0
H704 H 0.41485 1.01527 0.24493 0.0
H705 H 0.37841 0.95349 0.25848 0.0
H706 H 0.50621 0.08264 0.23915 0.0
H707 H 0.57685 0.13664 0.25077 0.0
loop_
_geom_bond_atom_site_label_1
_geom_bond_atom_site_label_2
_geom_bond_distance
_geom_bond_site_symmetry_2
_ccdc_geom_bond_type
Cu0 N1 1.999 . S
Cu0 O6 1.974 . S
Cu0 N11 1.985 . S
Cu0 O20 1.959 . S
N1 Cu0 1.999 . S
N1 C3 1.263 . S
N1 C5 1.389 . S
N2 C3 1.358 . S
N2 C4 1.400 . S
C3 N1 1.263 . S
C3 N2 1.358 . S
C3 H9 0.930 . S
C4 N2 1.400 . S
C4 C5 1.351 . S
C4 H21 0.930 . S
C5 N1 1.389 . S
C5 C4 1.351 . S
C5 H10 0.930 . S
O6 Cu0 1.974 . S
O6 C16 1.282 . S
C7 O8 1.261 . S
C7 O20 1.251 . S
O8 C7 1.261 . S
H9 C3 0.930 . S
H10 C5 0.930 . S
N11 Cu0 1.985 . S
N11 C13 1.335 . S
N11 C14 1.390 . S
N12 C13 1.345 . S
N12 C15 1.336 . S
C13 N11 1.335 . S
C13 N12 1.345 . S
C13 H18 0.930 . S
C14 N11 1.390 . S
C14 C15 1.346 . S
C14 H19 0.930 . S
C15 N12 1.336 . S
C15 C14 1.346 . S
C15 H22 0.929 . S
C16 O6 1.282 . S
C16 O17 1.216 . S
O17 C16 1.216 . S
H18 C13 0.930 . S
H19 C14 0.930 . S
O20 Cu0 1.959 . S
O20 C7 1.251 . S
H21 C4 0.930 . S
H22 C15 0.929 . S
Cu23 N24 1.999 . S
Cu23 O29 1.974 . S
Cu23 N34 1.985 . S
Cu23 O43 1.959 . S
N24 Cu23 1.999 . S
N24 C26 1.263 . S
N24 C28 1.389 . S
N25 C26 1.358 . S
N25 C27 1.400 . S
C26 N24 1.263 . S
C26 N25 1.358 . S
C26 H32 0.930 . S
C27 N25 1.400 . S
C27 C28 1.351 . S
C27 H44 0.930 . S
C28 N24 1.389 . S
C28 C27 1.351 . S
C28 H33 0.930 . S
O29 Cu23 1.974 . S
O29 C39 1.282 . S
C30 O31 1.261 . S
C30 O43 1.251 . S
O31 C30 1.261 . S
H32 C26 0.930 . S
H33 C28 0.930 . S
N34 Cu23 1.985 . S
N34 C36 1.335 . S
N34 C37 1.390 . S
N35 C36 1.345 . S
N35 C38 1.336 . S
C36 N34 1.335 . S
C36 N35 1.345 . S
C36 H41 0.930 . S
C37 N34 1.390 . S
C37 C38 1.346 . S
C37 H42 0.930 . S
C38 N35 1.336 . S
C38 C37 1.346 . S
C38 H45 0.929 . S
C39 O29 1.282 . S
C39 O40 1.216 . S
O40 C39 1.216 . S
H41 C36 0.930 . S
H42 C37 0.930 . S
O43 Cu23 1.959 . S
O43 C30 1.251 . S
H44 C27 0.930 . S
H45 C38 0.929 . S
Cu46 N47 1.999 . S
Cu46 O52 1.974 . S
Cu46 N57 1.985 . S
Cu46 O66 1.959 . S
N47 Cu46 1.999 . S
N47 C49 1.263 . S
N47 C51 1.389 . S
N48 C49 1.358 . S
N48 C50 1.400 . S
C49 N47 1.263 . S
C49 N48 1.358 . S
C49 H55 0.930 . S
C50 N48 1.400 . S
C50 C51 1.351 . S
C50 H67 0.930 . S
C51 N47 1.389 . S
C51 C50 1.351 . S
C51 H56 0.930 . S
O52 Cu46 1.974 . S
O52 C62 1.282 . S
C53 O54 1.261 . S
C53 O66 1.251 . S
O54 C53 1.261 . S
H55 C49 0.930 . S
H56 C51 0.930 . S
N57 Cu46 1.985 . S
N57 C59 1.335 . S
N57 C60 1.390 . S
N58 C59 1.345 . S
N58 C61 1.336 . S
C59 N57 1.335 . S
C59 N58 1.345 . S
C59 H64 0.930 . S
C60 N57 1.390 . S
C60 C61 1.346 . S
C60 H65 0.930 . S
C61 N58 1.336 . S
C61 C60 1.346 . S
C61 H68 0.929 . S
C62 O52 1.282 . S
C62 O63 1.216 . S
O63 C62 1.216 . S
H64 C59 0.930 . S
H65 C60 0.930 . S
O66 Cu46 1.959 . S
O66 C53 1.251 . S
H67 C50 0.930 . S
H68 C61 0.929 . S
Cu69 N70 1.999 . S
Cu69 O75 1.974 . S
Cu69 N80 1.985 . S
Cu69 O89 1.959 . S
N70 Cu69 1.999 . S
N70 C72 1.263 . S
N70 C74 1.389 . S
N71 C72 1.358 . S
N71 C73 1.400 . S
C72 N70 1.263 . S
C72 N71 1.358 . S
C72 H78 0.930 . S
C73 N71 1.400 . S
C73 C74 1.351 . S
C73 H90 0.930 . S
C74 N70 1.389 . S
C74 C73 1.351 . S
C74 H79 0.930 . S
O75 Cu69 1.974 . S
O75 C85 1.282 . S
C76 O77 1.261 . S
C76 O89 1.251 . S
O77 C76 1.261 . S
H78 C72 0.930 . S
H79 C74 0.930 . S
N80 Cu69 1.985 . S
N80 C82 1.335 . S
N80 C83 1.390 . S
N81 C82 1.345 . S
N81 C84 1.336 . S
C82 N80 1.335 . S
C82 N81 1.345 . S
C82 H87 0.930 . S
C83 N80 1.390 . S
C83 C84 1.346 . S
C83 H88 0.930 . S
C84 N81 1.336 . S
C84 C83 1.346 . S
C84 H91 0.929 . S
C85 O75 1.282 . S
C85 O86 1.216 . S
O86 C85 1.216 . S
H87 C82 0.930 . S
H88 C83 0.930 . S
O89 Cu69 1.959 . S
O89 C76 1.251 . S
H90 C73 0.930 . S
H91 C84 0.929 . S
Cu92 N93 1.999 . S
Cu92 O98 1.974 . S
Cu92 N103 1.985 . S
Cu92 O112 1.959 . S
N93 Cu92 1.999 . S
N93 C95 1.263 . S
N93 C97 1.389 . S
N94 C95 1.358 . S
N94 C96 1.400 . S
C95 N93 1.263 . S
C95 N94 1.358 . S
C95 H101 0.930 . S
C96 N94 1.400 . S
C96 C97 1.351 . S
C96 H113 0.930 . S
C97 N93 1.389 . S
C97 C96 1.351 . S
C97 H102 0.930 . S
O98 Cu92 1.974 . S
O98 C108 1.282 . S
C99 O100 1.261 . S
C99 O112 1.251 . S
O100 C99 1.261 . S
H101 C95 0.930 . S
H102 C97 0.930 . S
N103 Cu92 1.985 . S
N103 C105 1.335 . S
N103 C106 1.390 . S
N104 C105 1.345 . S
N104 C107 1.336 . S
C105 N103 1.335 . S
C105 N104 1.345 . S
C105 H110 0.930 . S
C106 N103 1.390 . S
C106 C107 1.346 . S
C106 H111 0.930 . S
C107 N104 1.336 . S
C107 C106 1.346 . S
C107 H114 0.929 . S
C108 O98 1.282 . S
C108 O109 1.216 . S
O109 C108 1.216 . S
H110 C105 0.930 . S
H111 C106 0.930 . S
O112 Cu92 1.959 . S
O112 C99 1.251 . S
H113 C96 0.930 . S
H114 C107 0.929 . S
Cu115 N116 1.999 . S
Cu115 O121 1.974 . S
Cu115 N126 1.985 . S
Cu115 O135 1.959 . S
N116 Cu115 1.999 . S
N116 C118 1.263 . S
N116 C120 1.389 . S
N117 C118 1.358 . S
N117 C119 1.400 . S
C118 N116 1.263 . S
C118 N117 1.358 . S
C118 H124 0.930 . S
C119 N117 1.400 . S
C119 C120 1.351 . S
C119 H136 0.930 . S
C120 N116 1.389 . S
C120 C119 1.351 . S
C120 H125 0.930 . S
O121 Cu115 1.974 . S
O121 C131 1.282 . S
C122 O123 1.261 . S
C122 O135 1.251 . S
O123 C122 1.261 . S
H124 C118 0.930 . S
H125 C120 0.930 . S
N126 Cu115 1.985 . S
N126 C128 1.335 . S
N126 C129 1.390 . S
N127 C128 1.345 . S
N127 C130 1.336 . S
C128 N126 1.335 . S
C128 N127 1.345 . S
C128 H133 0.930 . S
C129 N126 1.390 . S
C129 C130 1.346 . S
C129 H134 0.930 . S
C130 N127 1.336 . S
C130 C129 1.346 . S
C130 H137 0.929 . S
C131 O121 1.282 . S
C131 O132 1.216 . S
O132 C131 1.216 . S
H133 C128 0.930 . S
H134 C129 0.930 . S
O135 Cu115 1.959 . S
O135 C122 1.251 . S
H136 C119 0.930 . S
H137 C130 0.929 . S
Cu138 N139 1.999 . S
Cu138 O144 1.974 . S
Cu138 N149 1.985 . S
Cu138 O158 1.959 . S
N139 Cu138 1.999 . S
N139 C141 1.263 . S
N139 C143 1.389 . S
N140 C141 1.358 . S
N140 C142 1.400 . S
C141 N139 1.263 . S
C141 N140 1.358 . S
C141 H147 0.930 . S
C142 N140 1.400 . S
C142 C143 1.351 . S
C142 H159 0.930 . S
C143 N139 1.389 . S
C143 C142 1.351 . S
C143 H148 0.930 . S
O144 Cu138 1.974 . S
O144 C154 1.282 . S
C145 O146 1.261 . S
C145 O158 1.251 . S
O146 C145 1.261 . S
H147 C141 0.930 . S
H148 C143 0.930 . S
N149 Cu138 1.985 . S
N149 C151 1.335 . S
N149 C152 1.390 . S
N150 C151 1.345 . S
N150 C153 1.336 . S
C151 N149 1.335 . S
C151 N150 1.345 . S
C151 H156 0.930 . S
C152 N149 1.390 . S
C152 C153 1.346 . S
C152 H157 0.930 . S
C153 N150 1.336 . S
C153 C152 1.346 . S
C153 H160 0.929 . S
C154 O144 1.282 . S
C154 O155 1.216 . S
O155 C154 1.216 . S
H156 C151 0.930 . S
H157 C152 0.930 . S
O158 Cu138 1.959 . S
O158 C145 1.251 . S
H159 C142 0.930 . S
H160 C153 0.929 . S
Cu161 N162 1.999 . S
Cu161 O167 1.974 . S
Cu161 N172 1.985 . S
Cu161 O181 1.959 . S
N162 Cu161 1.999 . S
N162 C164 1.263 . S
N162 C166 1.389 . S
N163 C164 1.358 . S
N163 C165 1.400 . S
C164 N162 1.263 . S
C164 N163 1.358 . S
C164 H170 0.930 . S
C165 N163 1.400 . S
C165 C166 1.351 . S
C165 H182 0.930 . S
C166 N162 1.389 . S
C166 C165 1.351 . S
C166 H171 0.930 . S
O167 Cu161 1.974 . S
O167 C177 1.282 . S
C168 O169 1.261 . S
C168 O181 1.251 . S
O169 C168 1.261 . S
H170 C164 0.930 . S
H171 C166 0.930 . S
N172 Cu161 1.985 . S
N172 C174 1.335 . S
N172 C175 1.390 . S
N173 C174 1.345 . S
N173 C176 1.336 . S
C174 N172 1.335 . S
C174 N173 1.345 . S
C174 H179 0.930 . S
C175 N172 1.390 . S
C175 C176 1.346 . S
C175 H180 0.930 . S
C176 N173 1.336 . S
C176 C175 1.346 . S
C176 H183 0.929 . S
C177 O167 1.282 . S
C177 O178 1.216 . S
O178 C177 1.216 . S
H179 C174 0.930 . S
H180 C175 0.930 . S
O181 Cu161 1.959 . S
O181 C168 1.251 . S
H182 C165 0.930 . S
H183 C176 0.929 . S
Cu184 N185 1.999 . S
Cu184 O190 1.974 . S
Cu184 N195 1.985 . S
Cu184 O204 1.959 . S
N185 Cu184 1.999 . S
N185 C187 1.263 . S
N185 C189 1.389 . S
N186 C187 1.358 . S
N186 C188 1.400 . S
C187 N185 1.263 . S
C187 N186 1.358 . S
C187 H193 0.930 . S
C188 N186 1.400 . S
C188 C189 1.351 . S
C188 H205 0.930 1_455 S
C189 N185 1.389 . S
C189 C188 1.351 . S
C189 H194 0.930 . S
O190 Cu184 1.974 . S
O190 C200 1.282 . S
C191 O192 1.261 . S
C191 O204 1.251 . S
O192 C191 1.261 . S
H193 C187 0.930 . S
H194 C189 0.930 . S
N195 Cu184 1.985 . S
N195 C197 1.335 . S
N195 C198 1.390 . S
N196 C197 1.345 . S
N196 C199 1.336 . S
C197 N195 1.335 . S
C197 N196 1.345 . S
C197 H202 0.930 . S
C198 N195 1.390 . S
C198 C199 1.346 . S
C198 H203 0.930 . S
C199 N196 1.336 . S
C199 C198 1.346 . S
C199 H206 0.929 . S
C200 O190 1.282 . S
C200 O201 1.216 . S
O201 C200 1.216 . S
H202 C197 0.930 . S
H203 C198 0.930 . S
O204 Cu184 1.959 . S
O204 C191 1.251 . S
H205 C188 0.930 1_655 S
H206 C199 0.929 . S
Cu207 N208 1.999 . S
Cu207 O213 1.974 . S
Cu207 N218 1.985 . S
Cu207 O227 1.959 . S
N208 Cu207 1.999 . S
N208 C210 1.263 . S
N208 C212 1.389 . S
N209 C210 1.358 . S
N209 C211 1.400 . S
C210 N208 1.263 . S
C210 N209 1.358 . S
C210 H216 0.930 . S
C211 N209 1.400 . S
C211 C212 1.351 . S
C211 H228 0.930 . S
C212 N208 1.389 . S
C212 C211 1.351 . S
C212 H217 0.930 . S
O213 Cu207 1.974 . S
O213 C223 1.282 . S
C214 O215 1.261 . S
C214 O227 1.251 . S
O215 C214 1.261 . S
H216 C210 0.930 . S
H217 C212 0.930 . S
N218 Cu207 1.985 . S
N218 C220 1.335 . S
N218 C221 1.390 . S
N219 C220 1.345 . S
N219 C222 1.336 . S
C220 N218 1.335 . S
C220 N219 1.345 . S
C220 H225 0.930 . S
C221 N218 1.390 . S
C221 C222 1.346 . S
C221 H226 0.930 . S
C222 N219 1.336 . S
C222 C221 1.346 . S
C222 H229 0.929 . S
C223 O213 1.282 . S
C223 O224 1.216 . S
O224 C223 1.216 . S
H225 C220 0.930 . S
H226 C221 0.930 . S
O227 Cu207 1.959 . S
O227 C214 1.251 . S
H228 C211 0.930 . S
H229 C222 0.929 . S
Cu230 N231 1.999 . S
Cu230 O236 1.974 . S
Cu230 N241 1.985 . S
Cu230 O250 1.959 . S
N231 Cu230 1.999 . S
N231 C233 1.263 . S
N231 C235 1.389 . S
N232 C233 1.358 . S
N232 C234 1.400 . S
C233 N231 1.263 . S
C233 N232 1.358 . S
C233 H239 0.930 . S
C234 N232 1.400 . S
C234 C235 1.351 . S
C234 H251 0.930 . S
C235 N231 1.389 . S
C235 C234 1.351 . S
C235 H240 0.930 . S
O236 Cu230 1.974 . S
O236 C246 1.282 . S
C237 O238 1.261 . S
C237 O250 1.251 . S
O238 C237 1.261 . S
H239 C233 0.930 . S
H240 C235 0.930 . S
N241 Cu230 1.985 . S
N241 C243 1.335 . S
N241 C244 1.390 . S
N242 C243 1.345 . S
N242 C245 1.336 . S
C243 N241 1.335 . S
C243 N242 1.345 . S
C243 H248 0.930 . S
C244 N241 1.390 . S
C244 C245 1.346 . S
C244 H249 0.930 . S
C245 N242 1.336 . S
C245 C244 1.346 . S
C245 H252 0.929 . S
C246 O236 1.282 . S
C246 O247 1.216 . S
O247 C246 1.216 . S
H248 C243 0.930 . S
H249 C244 0.930 . S
O250 Cu230 1.959 . S
O250 C237 1.251 . S
H251 C234 0.930 . S
H252 C245 0.929 . S
Cu253 N254 1.999 . S
Cu253 O259 1.974 . S
Cu253 N264 1.985 . S
Cu253 O273 1.959 . S
N254 Cu253 1.999 . S
N254 C256 1.263 . S
N254 C258 1.389 . S
N255 C256 1.358 . S
N255 C257 1.400 . S
C256 N254 1.263 . S
C256 N255 1.358 . S
C256 H262 0.930 . S
C257 N255 1.400 . S
C257 C258 1.351 . S
C257 H274 0.930 1_655 S
C258 N254 1.389 . S
C258 C257 1.351 . S
C258 H263 0.930 . S
O259 Cu253 1.974 . S
O259 C269 1.282 . S
C260 O261 1.261 . S
C260 O273 1.251 . S
O261 C260 1.261 . S
H262 C256 0.930 . S
H263 C258 0.930 . S
N264 Cu253 1.985 . S
N264 C266 1.335 . S
N264 C267 1.390 . S
N265 C266 1.345 . S
N265 C268 1.336 . S
C266 N264 1.335 . S
C266 N265 1.345 . S
C266 H271 0.930 . S
C267 N264 1.390 . S
C267 C268 1.346 . S
C267 H272 0.930 . S
C268 N265 1.336 . S
C268 C267 1.346 . S
C268 H275 0.929 . S
C269 O259 1.282 . S
C269 O270 1.216 . S
O270 C269 1.216 . S
H271 C266 0.930 . S
H272 C267 0.930 . S
O273 Cu253 1.959 . S
O273 C260 1.251 . S
H274 C257 0.930 1_455 S
H275 C268 0.929 . S
C276 C277 1.363 . S
C276 C282 1.379 1_556 S
C276 N284 1.356 . S
C277 C276 1.363 . S
C277 C283 1.363 . S
C278 C279 1.363 . S
C278 C283 1.379 1_554 S
C278 N285 1.356 . S
C279 C278 1.363 . S
C279 C282 1.363 . S
N280 C282 1.356 . S
N280 H292 0.984 . S
N280 H293 0.985 . S
N281 C283 1.356 . S
N281 H286 0.984 . S
N281 H287 0.985 . S
C282 C276 1.379 1_554 S
C282 C279 1.363 . S
C282 N280 1.356 . S
C283 C277 1.363 . S
C283 C278 1.379 1_556 S
C283 N281 1.356 . S
N284 C276 1.356 . S
N284 H290 0.984 . S
N284 H291 0.984 . S
N285 C278 1.356 . S
N285 H288 0.984 . S
N285 H289 0.985 . S
H286 N281 0.984 . S
H287 N281 0.985 . S
H288 N285 0.984 . S
H289 N285 0.985 . S
H290 N284 0.984 . S
H291 N284 0.984 . S
H292 N280 0.984 . S
H293 N280 0.985 . S
C294 C295 1.363 . S
C294 C300 1.379 . S
C294 N302 1.356 . S
C295 C294 1.363 . S
C295 C301 1.363 . S
C296 C297 1.363 . S
C296 C301 1.379 . S
C296 N303 1.356 . S
C297 C296 1.363 . S
C297 C300 1.363 . S
N298 C300 1.356 . S
N298 H310 0.984 . S
N298 H311 0.985 . S
N299 C301 1.356 . S
N299 H304 0.984 . S
N299 H305 0.985 . S
C300 C294 1.379 . S
C300 C297 1.363 . S
C300 N298 1.356 . S
C301 C295 1.363 . S
C301 C296 1.379 . S
C301 N299 1.356 . S
N302 C294 1.356 . S
N302 H308 0.984 . S
N302 H309 0.984 . S
N303 C296 1.356 . S
N303 H306 0.984 . S
N303 H307 0.985 . S
H304 N299 0.984 . S
H305 N299 0.985 . S
H306 N303 0.984 . S
H307 N303 0.985 . S
H308 N302 0.984 . S
H309 N302 0.984 . S
H310 N298 0.984 . S
H311 N298 0.985 . S
C312 C313 1.363 . S
C312 C318 1.379 . S
C312 N320 1.356 . S
C313 C312 1.363 . S
C313 C319 1.363 . S
C314 C315 1.363 . S
C314 C319 1.379 . S
C314 N321 1.356 . S
C315 C314 1.363 . S
C315 C318 1.363 . S
N316 C318 1.356 . S
N316 H328 0.984 . S
N316 H329 0.985 . S
N317 C319 1.356 . S
N317 H322 0.984 . S
N317 H323 0.985 . S
C318 C312 1.379 . S
C318 C315 1.363 . S
C318 N316 1.356 . S
C319 C313 1.363 . S
C319 C314 1.379 . S
C319 N317 1.356 . S
N320 C312 1.356 . S
N320 H326 0.984 . S
N320 H327 0.984 . S
N321 C314 1.356 . S
N321 H324 0.984 . S
N321 H325 0.985 . S
H322 N317 0.984 . S
H323 N317 0.985 . S
H324 N321 0.984 . S
H325 N321 0.985 . S
H326 N320 0.984 . S
H327 N320 0.984 . S
H328 N316 0.984 . S
H329 N316 0.985 . S
C330 C331 1.363 . S
C330 C336 1.379 1_554 S
C330 N338 1.356 . S
C331 C330 1.363 . S
C331 C337 1.363 . S
C332 C333 1.363 . S
C332 C337 1.379 1_556 S
C332 N339 1.356 . S
C333 C332 1.363 . S
C333 C336 1.363 . S
N334 C336 1.356 . S
N334 H346 0.984 . S
N334 H347 0.985 . S
N335 C337 1.356 . S
N335 H340 0.984 . S
N335 H341 0.985 . S
C336 C330 1.379 1_556 S
C336 C333 1.363 . S
C336 N334 1.356 . S
C337 C331 1.363 . S
C337 C332 1.379 1_554 S
C337 N335 1.356 . S
N338 C330 1.356 . S
N338 H344 0.984 . S
N338 H345 0.984 . S
N339 C332 1.356 . S
N339 H342 0.984 . S
N339 H343 0.985 . S
H340 N335 0.984 . S
H341 N335 0.985 . S
H342 N339 0.984 . S
H343 N339 0.985 . S
H344 N338 0.984 . S
H345 N338 0.984 . S
H346 N334 0.984 . S
H347 N334 0.985 . S
C348 C349 1.363 . S
C348 C354 1.379 . S
C348 N356 1.356 . S
C349 C348 1.363 . S
C349 C355 1.363 . S
C350 C351 1.363 . S
C350 C355 1.379 . S
C350 N357 1.356 . S
C351 C350 1.363 . S
C351 C354 1.363 . S
N352 C354 1.356 . S
N352 H364 0.984 . S
N352 H365 0.985 . S
N353 C355 1.356 . S
N353 H358 0.984 . S
N353 H359 0.985 . S
C354 C348 1.379 . S
C354 C351 1.363 . S
C354 N352 1.356 . S
C355 C349 1.363 . S
C355 C350 1.379 . S
C355 N353 1.356 . S
N356 C348 1.356 . S
N356 H362 0.984 . S
N356 H363 0.984 . S
N357 C350 1.356 . S
N357 H360 0.984 . S
N357 H361 0.985 . S
H358 N353 0.984 . S
H359 N353 0.985 . S
H360 N357 0.984 . S
H361 N357 0.985 . S
H362 N356 0.984 . S
H363 N356 0.984 . S
H364 N352 0.984 . S
H365 N352 0.985 . S
C366 C367 1.363 . S
C366 C372 1.379 . S
C366 N374 1.356 . S
C367 C366 1.363 . S
C367 C373 1.363 . S
C368 C369 1.363 . S
C368 C373 1.379 . S
C368 N375 1.356 . S
C369 C368 1.363 . S
C369 C372 1.363 . S
N370 C372 1.356 . S
N370 H382 0.984 . S
N370 H383 0.985 . S
N371 C373 1.356 . S
N371 H376 0.984 . S
N371 H377 0.985 . S
C372 C366 1.379 . S
C372 C369 1.363 . S
C372 N370 1.356 . S
C373 C367 1.363 . S
C373 C368 1.379 . S
C373 N371 1.356 . S
N374 C366 1.356 . S
N374 H380 0.984 . S
N374 H381 0.984 . S
N375 C368 1.356 . S
N375 H378 0.984 . S
N375 H379 0.985 . S
H376 N371 0.984 . S
H377 N371 0.985 . S
H378 N375 0.984 . S
H379 N375 0.985 . S
H380 N374 0.984 . S
H381 N374 0.984 . S
H382 N370 0.984 . S
H383 N370 0.985 . S
C384 C385 1.363 . S
C384 C390 1.379 . S
C384 N392 1.356 . S
C385 C384 1.363 . S
C385 C391 1.363 . S
C386 C387 1.363 . S
C386 C391 1.379 . S
C386 N393 1.356 . S
C387 C386 1.363 . S
C387 C390 1.363 . S
N388 C390 1.356 . S
N388 H400 0.984 . S
N388 H401 0.985 . S
N389 C391 1.356 . S
N389 H394 0.984 . S
N389 H395 0.985 . S
C390 C384 1.379 . S
C390 C387 1.363 . S
C390 N388 1.356 . S
C391 C385 1.363 . S
C391 C386 1.379 . S
C391 N389 1.356 . S
N392 C384 1.356 . S
N392 H398 0.984 . S
N392 H399 0.984 . S
N393 C386 1.356 . S
N393 H396 0.984 . S
N393 H397 0.985 . S
H394 N389 0.984 . S
H395 N389 0.985 . S
H396 N393 0.984 . S
H397 N393 0.985 . S
H398 N392 0.984 . S
H399 N392 0.984 . S
H400 N388 0.984 . S
H401 N388 0.985 . S
C402 C403 1.363 . S
C402 C408 1.379 . S
C402 N410 1.356 . S
C403 C402 1.363 . S
C403 C409 1.363 . S
C404 C405 1.363 . S
C404 C409 1.379 . S
C404 N411 1.356 . S
C405 C404 1.363 . S
C405 C408 1.363 . S
N406 C408 1.356 . S
N406 H418 0.984 . S
N406 H419 0.985 . S
N407 C409 1.356 . S
N407 H412 0.984 . S
N407 H413 0.985 . S
C408 C402 1.379 . S
C408 C405 1.363 . S
C408 N406 1.356 . S
C409 C403 1.363 . S
C409 C404 1.379 . S
C409 N407 1.356 . S
N410 C402 1.356 . S
N410 H416 0.984 . S
N410 H417 0.984 . S
N411 C404 1.356 . S
N411 H414 0.984 . S
N411 H415 0.985 . S
H412 N407 0.984 . S
H413 N407 0.985 . S
H414 N411 0.984 . S
H415 N411 0.985 . S
H416 N410 0.984 . S
H417 N410 0.984 . S
H418 N406 0.984 . S
H419 N406 0.985 . S
C420 C421 1.363 . S
C420 C426 1.379 . S
C420 N428 1.356 . S
C421 C420 1.363 . S
C421 C427 1.363 . S
C422 C423 1.363 . S
C422 C427 1.379 . S
C422 N429 1.356 . S
C423 C422 1.363 . S
C423 C426 1.363 . S
N424 C426 1.356 . S
N424 H436 0.984 . S
N424 H437 0.985 . S
N425 C427 1.356 . S
N425 H430 0.984 . S
N425 H431 0.985 . S
C426 C420 1.379 . S
C426 C423 1.363 . S
C426 N424 1.356 . S
C427 C421 1.363 . S
C427 C422 1.379 . S
C427 N425 1.356 . S
N428 C420 1.356 . S
N428 H434 0.984 . S
N428 H435 0.984 . S
N429 C422 1.356 . S
N429 H432 0.984 . S
N429 H433 0.985 . S
H430 N425 0.984 . S
H431 N425 0.985 . S
H432 N429 0.984 . S
H433 N429 0.985 . S
H434 N428 0.984 . S
H435 N428 0.984 . S
H436 N424 0.984 . S
H437 N424 0.985 . S
C438 C439 1.363 . S
C438 C444 1.379 . S
C438 N446 1.356 . S
C439 C438 1.363 . S
C439 C445 1.363 . S
C440 C441 1.363 . S
C440 C445 1.379 . S
C440 N447 1.356 . S
C441 C440 1.363 . S
C441 C444 1.363 . S
N442 C444 1.356 . S
N442 H454 0.984 . S
N442 H455 0.985 . S
N443 C445 1.356 . S
N443 H448 0.984 . S
N443 H449 0.985 . S
C444 C438 1.379 . S
C444 C441 1.363 . S
C444 N442 1.356 . S
C445 C439 1.363 . S
C445 C440 1.379 . S
C445 N443 1.356 . S
N446 C438 1.356 . S
N446 H452 0.984 . S
N446 H453 0.984 . S
N447 C440 1.356 . S
N447 H450 0.984 . S
N447 H451 0.985 . S
H448 N443 0.984 . S
H449 N443 0.985 . S
H450 N447 0.984 . S
H451 N447 0.985 . S
H452 N446 0.984 . S
H453 N446 0.984 . S
H454 N442 0.984 . S
H455 N442 0.985 . S
C456 C457 1.363 . S
C456 C462 1.379 . S
C456 N464 1.356 . S
C457 C456 1.363 . S
C457 C463 1.363 . S
C458 C459 1.363 . S
C458 C463 1.379 . S
C458 N465 1.356 . S
C459 C458 1.363 . S
C459 C462 1.363 . S
N460 C462 1.356 . S
N460 H472 0.984 . S
N460 H473 0.985 . S
N461 C463 1.356 . S
N461 H466 0.984 . S
N461 H467 0.985 . S
C462 C456 1.379 . S
C462 C459 1.363 . S
C462 N460 1.356 . S
C463 C457 1.363 . S
C463 C458 1.379 . S
C463 N461 1.356 . S
N464 C456 1.356 . S
N464 H470 0.984 . S
N464 H471 0.984 . S
N465 C458 1.356 . S
N465 H468 0.984 . S
N465 H469 0.985 . S
H466 N461 0.984 . S
H467 N461 0.985 . S
H468 N465 0.984 . S
H469 N465 0.985 . S
H470 N464 0.984 . S
H471 N464 0.984 . S
H472 N460 0.984 . S
H473 N460 0.985 . S
C474 C475 1.363 . S
C474 C480 1.379 . S
C474 N482 1.356 . S
C475 C474 1.363 . S
C475 C481 1.363 . S
C476 C477 1.363 . S
C476 C481 1.379 . S
C476 N483 1.356 . S
C477 C476 1.363 . S
C477 C480 1.363 . S
N478 C480 1.356 . S
N478 H490 0.984 . S
N478 H491 0.985 . S
N479 C481 1.356 . S
N479 H484 0.984 . S
N479 H485 0.985 . S
C480 C474 1.379 . S
C480 C477 1.363 . S
C480 N478 1.356 . S
C481 C475 1.363 . S
C481 C476 1.379 . S
C481 N479 1.356 . S
N482 C474 1.356 . S
N482 H488 0.984 . S
N482 H489 0.984 . S
N483 C476 1.356 . S
N483 H486 0.984 . S
N483 H487 0.985 . S
H484 N479 0.984 . S
H485 N479 0.985 . S
H486 N483 0.984 . S
H487 N483 0.985 . S
H488 N482 0.984 . S
H489 N482 0.984 . S
H490 N478 0.984 . S
H491 N478 0.985 . S
C492 C493 1.363 . S
C492 C498 1.379 1_655 S
C492 N500 1.356 . S
C493 C492 1.363 . S
C493 C499 1.363 . S
C494 C495 1.363 . S
C494 C499 1.379 1_455 S
C494 N501 1.356 . S
C495 C494 1.363 . S
C495 C498 1.363 . S
N496 C498 1.356 . S
N496 H508 0.984 . S
N496 H509 0.985 . S
N497 C499 1.356 . S
N497 H502 0.984 . S
N497 H503 0.985 . S
C498 C492 1.379 1_455 S
C498 C495 1.363 . S
C498 N496 1.356 . S
C499 C493 1.363 . S
C499 C494 1.379 1_655 S
C499 N497 1.356 . S
N500 C492 1.356 . S
N500 H506 0.984 . S
N500 H507 0.984 . S
N501 C494 1.356 . S
N501 H504 0.984 . S
N501 H505 0.985 . S
H502 N497 0.984 . S
H503 N497 0.985 . S
H504 N501 0.984 . S
H505 N501 0.985 . S
H506 N500 0.984 . S
H507 N500 0.984 . S
H508 N496 0.984 . S
H509 N496 0.985 . S
C510 C511 1.363 . S
C510 C516 1.379 1_545 S
C510 N518 1.356 . S
C511 C510 1.363 . S
C511 C517 1.363 . S
C512 C513 1.363 . S
C512 C517 1.379 1_565 S
C512 N519 1.356 . S
C513 C512 1.363 . S
C513 C516 1.363 . S
N514 C516 1.356 . S
N514 H526 0.984 . S
N514 H527 0.985 . S
N515 C517 1.356 . S
N515 H520 0.984 . S
N515 H521 0.985 . S
C516 C510 1.379 1_565 S
C516 C513 1.363 . S
C516 N514 1.356 . S
C517 C511 1.363 . S
C517 C512 1.379 1_545 S
C517 N515 1.356 . S
N518 C510 1.356 . S
N518 H524 0.984 . S
N518 H525 0.984 . S
N519 C512 1.356 . S
N519 H522 0.984 . S
N519 H523 0.985 . S
H520 N515 0.984 . S
H521 N515 0.985 . S
H522 N519 0.984 . S
H523 N519 0.985 . S
H524 N518 0.984 . S
H525 N518 0.984 . S
H526 N514 0.984 . S
H527 N514 0.985 . S
C528 C529 1.363 . S
C528 C534 1.379 . S
C528 N536 1.356 . S
C529 C528 1.363 . S
C529 C535 1.363 . S
C530 C531 1.363 . S
C530 C535 1.379 . S
C530 N537 1.356 . S
C531 C530 1.363 . S
C531 C534 1.363 . S
N532 C534 1.356 . S
N532 H544 0.984 . S
N532 H545 0.985 . S
N533 C535 1.356 . S
N533 H538 0.984 . S
N533 H539 0.985 . S
C534 C528 1.379 . S
C534 C531 1.363 . S
C534 N532 1.356 . S
C535 C529 1.363 . S
C535 C530 1.379 . S
C535 N533 1.356 . S
N536 C528 1.356 . S
N536 H542 0.984 . S
N536 H543 0.984 . S
N537 C530 1.356 . S
N537 H540 0.984 . S
N537 H541 0.985 . S
H538 N533 0.984 . S
H539 N533 0.985 . S
H540 N537 0.984 . S
H541 N537 0.985 . S
H542 N536 0.984 . S
H543 N536 0.984 . S
H544 N532 0.984 . S
H545 N532 0.985 . S
C546 C547 1.363 . S
C546 C552 1.379 1_545 S
C546 N554 1.356 . S
C547 C546 1.363 . S
C547 C553 1.363 . S
C548 C549 1.363 . S
C548 C553 1.379 1_565 S
C548 N555 1.356 . S
C549 C548 1.363 . S
C549 C552 1.363 . S
N550 C552 1.356 . S
N550 H562 0.984 . S
N550 H563 0.985 . S
N551 C553 1.356 . S
N551 H556 0.984 . S
N551 H557 0.985 . S
C552 C546 1.379 1_565 S
C552 C549 1.363 . S
C552 N550 1.356 . S
C553 C547 1.363 . S
C553 C548 1.379 1_545 S
C553 N551 1.356 . S
N554 C546 1.356 . S
N554 H560 0.984 . S
N554 H561 0.984 . S
N555 C548 1.356 . S
N555 H558 0.984 . S
N555 H559 0.985 . S
H556 N551 0.984 . S
H557 N551 0.985 . S
H558 N555 0.984 . S
H559 N555 0.985 . S
H560 N554 0.984 . S
H561 N554 0.984 . S
H562 N550 0.984 . S
H563 N550 0.985 . S
C564 C565 1.363 . S
C564 C570 1.379 . S
C564 N572 1.356 . S
C565 C564 1.363 . S
C565 C571 1.363 . S
C566 C567 1.363 . S
C566 C571 1.379 . S
C566 N573 1.356 . S
C567 C566 1.363 . S
C567 C570 1.363 . S
N568 C570 1.356 . S
N568 H580 0.984 . S
N568 H581 0.985 . S
N569 C571 1.356 . S
N569 H574 0.984 . S
N569 H575 0.985 . S
C570 C564 1.379 . S
C570 C567 1.363 . S
C570 N568 1.356 . S
C571 C565 1.363 . S
C571 C566 1.379 . S
C571 N569 1.356 . S
N572 C564 1.356 . S
N572 H578 0.984 . S
N572 H579 0.984 . S
N573 C566 1.356 . S
N573 H576 0.984 . S
N573 H577 0.985 . S
H574 N569 0.984 . S
H575 N569 0.985 . S
H576 N573 0.984 . S
H577 N573 0.985 . S
H578 N572 0.984 . S
H579 N572 0.984 . S
H580 N568 0.984 . S
H581 N568 0.985 . S
C582 C583 1.363 1_655 S
C582 C588 1.379 . S
C582 N590 1.356 . S
C583 C582 1.363 1_455 S
C583 C589 1.363 . S
C584 C585 1.363 1_455 S
C584 C589 1.379 . S
C584 N591 1.356 . S
C585 C584 1.363 1_655 S
C585 C588 1.363 . S
N586 C588 1.356 . S
N586 H598 0.984 . S
N586 H599 0.985 . S
N587 C589 1.356 . S
N587 H592 0.984 . S
N587 H593 0.985 . S
C588 C582 1.379 . S
C588 C585 1.363 . S
C588 N586 1.356 . S
C589 C583 1.363 . S
C589 C584 1.379 . S
C589 N587 1.356 . S
N590 C582 1.356 . S
N590 H596 0.984 . S
N590 H597 0.984 1_655 S
N591 C584 1.356 . S
N591 H594 0.984 1_455 S
N591 H595 0.985 . S
H592 N587 0.984 . S
H593 N587 0.985 . S
H594 N591 0.984 1_655 S
H595 N591 0.985 . S
H596 N590 0.984 . S
H597 N590 0.984 1_455 S
H598 N586 0.984 . S
H599 N586 0.985 . S
C600 C601 1.363 . S
C600 C606 1.379 . S
C600 N608 1.356 . S
C601 C600 1.363 . S
C601 C607 1.363 . S
C602 C603 1.363 . S
C602 C607 1.379 . S
C602 N609 1.356 . S
C603 C602 1.363 . S
C603 C606 1.363 . S
N604 C606 1.356 . S
N604 H616 0.984 . S
N604 H617 0.985 . S
N605 C607 1.356 . S
N605 H610 0.984 . S
N605 H611 0.985 . S
C606 C600 1.379 . S
C606 C603 1.363 . S
C606 N604 1.356 . S
C607 C601 1.363 . S
C607 C602 1.379 . S
C607 N605 1.356 . S
N608 C600 1.356 . S
N608 H614 0.984 . S
N608 H615 0.984 . S
N609 C602 1.356 . S
N609 H612 0.984 . S
N609 H613 0.985 . S
H610 N605 0.984 . S
H611 N605 0.985 . S
H612 N609 0.984 . S
H613 N609 0.985 . S
H614 N608 0.984 . S
H615 N608 0.984 . S
H616 N604 0.984 . S
H617 N604 0.985 . S
C618 C619 1.363 . S
C618 C624 1.379 . S
C618 N626 1.356 . S
C619 C618 1.363 . S
C619 C625 1.363 1_655 S
C620 C621 1.363 . S
C620 C625 1.379 . S
C620 N627 1.356 . S
C621 C620 1.363 . S
C621 C624 1.363 1_455 S
N622 C624 1.356 . S
N622 H634 0.984 . S
N622 H635 0.985 1_655 S
N623 C625 1.356 . S
N623 H628 0.984 1_455 S
N623 H629 0.985 . S
C624 C618 1.379 . S
C624 C621 1.363 1_655 S
C624 N622 1.356 . S
C625 C619 1.363 1_455 S
C625 C620 1.379 . S
C625 N623 1.356 . S
N626 C618 1.356 . S
N626 H632 0.984 . S
N626 H633 0.984 . S
N627 C620 1.356 . S
N627 H630 0.984 . S
N627 H631 0.985 . S
H628 N623 0.984 1_655 S
H629 N623 0.985 . S
H630 N627 0.984 . S
H631 N627 0.985 . S
H632 N626 0.984 . S
H633 N626 0.984 . S
H634 N622 0.984 . S
H635 N622 0.985 1_455 S
C636 C637 1.363 . S
C636 C642 1.379 1_545 S
C636 N644 1.356 . S
C637 C636 1.363 . S
C637 C643 1.363 . S
C638 C639 1.363 . S
C638 C643 1.379 1_565 S
C638 N645 1.356 . S
C639 C638 1.363 . S
C639 C642 1.363 . S
N640 C642 1.356 . S
N640 H652 0.984 . S
N640 H653 0.985 . S
N641 C643 1.356 . S
N641 H646 0.984 . S
N641 H647 0.985 . S
C642 C636 1.379 1_565 S
C642 C639 1.363 . S
C642 N640 1.356 . S
C643 C637 1.363 . S
C643 C638 1.379 1_545 S
C643 N641 1.356 . S
N644 C636 1.356 . S
N644 H650 0.984 . S
N644 H651 0.984 . S
N645 C638 1.356 . S
N645 H648 0.984 . S
N645 H649 0.985 . S
H646 N641 0.984 . S
H647 N641 0.985 . S
H648 N645 0.984 . S
H649 N645 0.985 . S
H650 N644 0.984 . S
H651 N644 0.984 . S
H652 N640 0.984 . S
H653 N640 0.985 . S
C654 C655 1.363 . S
C654 C660 1.379 . S
C654 N662 1.356 . S
C655 C654 1.363 . S
C655 C661 1.363 . S
C656 C657 1.363 . S
C656 C661 1.379 . S
C656 N663 1.356 . S
C657 C656 1.363 . S
C657 C660 1.363 . S
N658 C660 1.356 . S
N658 H670 0.984 . S
N658 H671 0.985 . S
N659 C661 1.356 . S
N659 H664 0.984 . S
N659 H665 0.985 . S
C660 C654 1.379 . S
C660 C657 1.363 . S
C660 N658 1.356 . S
C661 C655 1.363 . S
C661 C656 1.379 . S
C661 N659 1.356 . S
N662 C654 1.356 . S
N662 H668 0.984 . S
N662 H669 0.984 . S
N663 C656 1.356 . S
N663 H666 0.984 . S
N663 H667 0.985 . S
H664 N659 0.984 . S
H665 N659 0.985 . S
H666 N663 0.984 . S
H667 N663 0.985 . S
H668 N662 0.984 . S
H669 N662 0.984 . S
H670 N658 0.984 . S
H671 N658 0.985 . S
C672 C673 1.363 . S
C672 C678 1.379 1_455 S
C672 N680 1.356 . S
C673 C672 1.363 . S
C673 C679 1.363 . S
C674 C675 1.363 . S
C674 C679 1.379 1_655 S
C674 N681 1.356 . S
C675 C674 1.363 . S
C675 C678 1.363 . S
N676 C678 1.356 . S
N676 H688 0.984 . S
N676 H689 0.985 . S
N677 C679 1.356 . S
N677 H682 0.984 . S
N677 H683 0.985 . S
C678 C672 1.379 1_655 S
C678 C675 1.363 . S
C678 N676 1.356 . S
C679 C673 1.363 . S
C679 C674 1.379 1_455 S
C679 N677 1.356 . S
N680 C672 1.356 . S
N680 H686 0.984 . S
N680 H687 0.984 . S
N681 C674 1.356 . S
N681 H684 0.984 . S
N681 H685 0.985 . S
H682 N677 0.984 . S
H683 N677 0.985 . S
H684 N681 0.984 . S
H685 N681 0.985 . S
H686 N680 0.984 . S
H687 N680 0.984 . S
H688 N676 0.984 . S
H689 N676 0.985 . S
C690 C691 1.363 . S
C690 C696 1.379 1_565 S
C690 N698 1.356 . S
C691 C690 1.363 . S
C691 C697 1.363 . S
C692 C693 1.363 . S
C692 C697 1.379 1_545 S
C692 N699 1.356 . S
C693 C692 1.363 . S
C693 C696 1.363 . S
N694 C696 1.356 . S
N694 H706 0.984 . S
N694 H707 0.985 . S
N695 C697 1.356 . S
N695 H700 0.984 . S
N695 H701 0.985 . S
C696 C690 1.379 1_545 S
C696 C693 1.363 . S
C696 N694 1.356 . S
C697 C691 1.363 . S
C697 C692 1.379 1_565 S
C697 N695 1.356 . S
N698 C690 1.356 . S
N698 H704 0.984 . S
N698 H705 0.984 . S
N699 C692 1.356 . S
N699 H702 0.984 . S
N699 H703 0.985 . S
H700 N695 0.984 . S
H701 N695 0.985 . S
H702 N699 0.984 . S
H703 N699 0.985 . S
H704 N698 0.984 . S
H705 N698 0.984 . S
H706 N694 0.984 . S
H707 N694 0.985 . S
C277 N232 1.579 . S
C279 N2 1.579 . S
C295 C30 1.628 . S
C297 C260 1.634 . S
C313 C53 1.634 . S
C315 C145 1.628 . S
C331 N71 1.579 . S
C333 N163 1.579 . S
C349 C191 1.634 . S
C351 C99 1.628 . S
C367 C122 1.634 . S
C369 C214 1.628 . S
C385 C200 1.629 . S
C387 N12 1.639 . S
C403 C39 1.602 . S
C405 C223 1.602 . S
C421 C62 1.629 . S
C423 N242 1.639 . S
C439 N81 1.639 . S
C441 C269 1.629 . S
C457 C154 1.602 . S
C459 C108 1.602 . S
C475 N173 1.639 . S
C477 C131 1.629 . S
C493 C76 1.323 . S
C495 C7 1.323 . S
C511 N25 1.284 . S
C513 N94 1.284 . S
C529 N117 1.239 . S
C531 N48 1.239 . S
C547 N209 1.283 . S
C549 N140 1.283 . S
C565 C237 1.323 . S
C567 C168 1.323 . S
C583 N186 1.240 . S
C585 N255 1.240 . S
C601 C85 1.843 . S
C603 C16 1.843 . S
C619 N35 1.725 . S
C621 N104 1.725 . S
C637 N127 1.762 . S
C639 N58 1.762 . S
C655 N150 1.724 . S
C657 N219 1.724 . S
C673 C246 1.843 . S
C675 C177 1.843 . S
C691 N196 1.762 . S
C693 N265 1.762 . S
