# Generated by pormake.
# Topology uoy, (4)-cn, num edge types: 1
# Building blocks:
#     Node 0, Type 0, BuildingBlock: QUQFOY_clean_sbu_3, # of connection points: 4
#     Node 1, Type 0, BuildingBlock: QUQFOY_clean_sbu_3, # of connection points: 4
#     Node 2, Type 0, BuildingBlock: QUQFOY_clean_sbu_3, # of connection points: 4
#     Node 3, Type 0, BuildingBlock: QUQFOY_clean_sbu_3, # of connection points: 4
#     Node 4, Type 0, BuildingBlock: QUQFOY_clean_sbu_3, # of connection points: 4
#     Node 5, Type 0, BuildingBlock: QUQFOY_clean_sbu_3, # of connection points: 4
#     Node 6, Type 0, BuildingBlock: QUQFOY_clean_sbu_3, # of connection points: 4
#     Node 7, Type 0, BuildingBlock: QUQFOY_clean_sbu_3, # of connection points: 4
#     Node 8, Type 0, BuildingBlock: QUQFOY_clean_sbu_3, # of connection points: 4
#     Node 9, Type 0, BuildingBlock: QUQFOY_clean_sbu_3, # of connection points: 4
#     Node 10, Type 0, BuildingBlock: QUQFOY_clean_sbu_3, # of connection points: 4
#     Node 11, Type 0, BuildingBlock: QUQFOY_clean_sbu_3, # of connection points: 4
#     Node 12, Type 0, BuildingBlock: QUQFOY_clean_sbu_3, # of connection points: 4
#     Node 13, Type 0, BuildingBlock: QUQFOY_clean_sbu_3, # of connection points: 4
#     Node 14, Type 0, BuildingBlock: QUQFOY_clean_sbu_3, # of connection points: 4
#     Node 15, Type 0, BuildingBlock: QUQFOY_clean_sbu_3, # of connection points: 4
#     Edge 16, Type (0, 0), BuildingBlock: XIVTED_clean_linker_0, # of connection points: 2
#     Edge 17, Type (0, 0), BuildingBlock: XIVTED_clean_linker_0, # of connection points: 2
#     Edge 18, Type (0, 0), BuildingBlock: XIVTED_clean_linker_0, # of connection points: 2
#     Edge 19, Type (0, 0), BuildingBlock: XIVTED_clean_linker_0, # of connection points: 2
#     Edge 20, Type (0, 0), BuildingBlock: XIVTED_clean_linker_0, # of connection points: 2
#     Edge 21, Type (0, 0), BuildingBlock: XIVTED_clean_linker_0, # of connection points: 2
#     Edge 22, Type (0, 0), BuildingBlock: XIVTED_clean_linker_0, # of connection points: 2
#     Edge 23, Type (0, 0), BuildingBlock: XIVTED_clean_linker_0, # of connection points: 2
#     Edge 24, Type (0, 0), BuildingBlock: XIVTED_clean_linker_0, # of connection points: 2
#     Edge 25, Type (0, 0), BuildingBlock: XIVTED_clean_linker_0, # of connection points: 2
#     Edge 26, Type (0, 0), BuildingBlock: XIVTED_clean_linker_0, # of connection points: 2
#     Edge 27, Type (0, 0), BuildingBlock: XIVTED_clean_linker_0, # of connection points: 2
#     Edge 28, Type (0, 0), BuildingBlock: XIVTED_clean_linker_0, # of connection points: 2
#     Edge 29, Type (0, 0), BuildingBlock: XIVTED_clean_linker_0, # of connection points: 2
#     Edge 30, Type (0, 0), BuildingBlock: XIVTED_clean_linker_0, # of connection points: 2
#     Edge 31, Type (0, 0), BuildingBlock: XIVTED_clean_linker_0, # of connection points: 2
#     Edge 32, Type (0, 0), BuildingBlock: XIVTED_clean_linker_0, # of connection points: 2
#     Edge 33, Type (0, 0), BuildingBlock: XIVTED_clean_linker_0, # of connection points: 2
#     Edge 34, Type (0, 0), BuildingBlock: XIVTED_clean_linker_0, # of connection points: 2
#     Edge 35, Type (0, 0), BuildingBlock: XIVTED_clean_linker_0, # of connection points: 2
#     Edge 36, Type (0, 0), BuildingBlock: XIVTED_clean_linker_0, # of connection points: 2
#     Edge 37, Type (0, 0), BuildingBlock: XIVTED_clean_linker_0, # of connection points: 2
#     Edge 38, Type (0, 0), BuildingBlock: XIVTED_clean_linker_0, # of connection points: 2
#     Edge 39, Type (0, 0), BuildingBlock: XIVTED_clean_linker_0, # of connection points: 2
#     Edge 40, Type (0, 0), BuildingBlock: XIVTED_clean_linker_0, # of connection points: 2
#     Edge 41, Type (0, 0), BuildingBlock: XIVTED_clean_linker_0, # of connection points: 2
#     Edge 42, Type (0, 0), BuildingBlock: XIVTED_clean_linker_0, # of connection points: 2
#     Edge 43, Type (0, 0), BuildingBlock: XIVTED_clean_linker_0, # of connection points: 2
#     Edge 44, Type (0, 0), BuildingBlock: XIVTED_clean_linker_0, # of connection points: 2
#     Edge 45, Type (0, 0), BuildingBlock: XIVTED_clean_linker_0, # of connection points: 2
#     Edge 46, Type (0, 0), BuildingBlock: XIVTED_clean_linker_0, # of connection points: 2
#     Edge 47, Type (0, 0), BuildingBlock: XIVTED_clean_linker_0, # of connection points: 2
# Relax obj value: 0.036
# Max RMSD: 0.062
# Mean RMSD: 0.062
data_MOF--net-uoy--node1-QUQFOY_clean_sbu_3--edge1-XIVTED_clean_linker_0
_symmetry_space_group_name_H-M    P1
_symmetry_Int_Tables_number       1
_symmetry_cell_setting            triclinic
loop_
_symmetry_equiv_pos_as_xyz
'x, y, z'
_cell_length_a     28.571995
_cell_length_b     28.587606
_cell_length_c     112.46303
_cell_angle_alpha  89.945968
_cell_angle_beta   89.978052
_cell_angle_gamma 89.848541
loop_
_atom_site_label
_atom_site_type_symbol
_atom_site_fract_x
_atom_site_fract_y
_atom_site_fract_z
_atom_type_partial_charge
C0 C 0.27072 0.18488 0.18734 0.0
O1 O 0.29075 0.21356 0.18038 0.0
Cd2 Cd 0.29357 0.19939 0.15941 0.0
O3 O 0.25115 0.14827 0.18333 0.0
Cd4 Cd 0.2328 0.1067 0.16507 0.0
C5 C 0.34755 0.09105 0.15943 0.0
O6 O 0.21482 0.17813 0.15455 0.0
O7 O 0.21466 0.11462 0.14416 0.0
O8 O 0.1626 0.09121 0.17639 0.0
C9 C 0.20718 0.15825 0.14468 0.0
O10 O 0.34915 0.13473 0.15722 0.0
C11 C 0.15566 0.05106 0.17196 0.0
O12 O 0.30982 0.07187 0.16294 0.0
O13 O 0.18613 0.0356 0.16472 0.0
C14 C 0.78391 0.76372 0.4384 0.0
O15 O 0.75783 0.78719 0.43146 0.0
Cd16 Cd 0.78016 0.79689 0.41107 0.0
O17 O 0.82118 0.74456 0.43459 0.0
Cd18 Cd 0.86798 0.7303 0.4169 0.0
C19 C 0.88971 0.84596 0.4144 0.0
O20 O 0.80087 0.71983 0.40445 0.0
O21 O 0.86743 0.72163 0.39532 0.0
O22 O 0.87126 0.65235 0.42487 0.0
C23 C 0.82352 0.71553 0.39484 0.0
O24 O 0.84677 0.85025 0.41154 0.0
C25 C 0.91509 0.64709 0.42379 0.0
O26 O 0.9067 0.80622 0.41721 0.0
O27 O 0.93807 0.68153 0.41966 0.0
C28 C 0.20907 0.28662 0.68854 0.0
O29 O 0.18521 0.26248 0.68127 0.0
Cd30 Cd 0.17894 0.28635 0.6608 0.0
O31 O 0.22941 0.32382 0.68519 0.0
Cd32 Cd 0.24473 0.37385 0.66824 0.0
C33 C 0.1292 0.39513 0.66465 0.0
O34 O 0.25645 0.30871 0.65532 0.0
O35 O 0.25522 0.37596 0.64658 0.0
O36 O 0.32154 0.37614 0.67691 0.0
C37 C 0.26109 0.33205 0.64584 0.0
O38 O 0.12628 0.35382 0.66049 0.0
C39 C 0.32691 0.42001 0.6761 0.0
O40 O 0.16733 0.41058 0.669 0.0
O41 O 0.29299 0.44349 0.67181 0.0
C42 C 0.68562 0.71543 0.93837 0.0
O43 O 0.71348 0.69361 0.93152 0.0
Cd44 Cd 0.69675 0.68695 0.91073 0.0
O45 O 0.64866 0.73444 0.93431 0.0
Cd46 Cd 0.60515 0.74938 0.91607 0.0
C47 C 0.58799 0.6343 0.91196 0.0
O48 O 0.67578 0.76505 0.90502 0.0
O49 O 0.61158 0.76374 0.89489 0.0
O50 O 0.59089 0.82003 0.92726 0.0
C51 C 0.65525 0.77111 0.89516 0.0
O52 O 0.63151 0.63183 0.90957 0.0
C53 C 0.55118 0.82824 0.92269 0.0
O54 O 0.56929 0.6728 0.91511 0.0
O55 O 0.53536 0.79846 0.91535 0.0
C56 C 0.26831 0.29007 0.02667 0.0
O57 O 0.28933 0.26374 0.03404 0.0
Cd58 Cd 0.2927 0.28693 0.0545 0.0
O59 O 0.24846 0.32753 0.0301 0.0
Cd60 Cd 0.22892 0.37524 0.04729 0.0
C61 C 0.34362 0.396 0.05166 0.0
O62 O 0.2141 0.30862 0.05961 0.0
O63 O 0.21423 0.37544 0.06862 0.0
O64 O 0.15508 0.37737 0.03718 0.0
C65 C 0.2072 0.33169 0.06906 0.0
O66 O 0.34655 0.35319 0.05472 0.0
C67 C 0.14762 0.4207 0.0386 0.0
O68 O 0.30498 0.41336 0.04809 0.0
O69 O 0.17926 0.44411 0.04386 0.0
C70 C 0.69102 0.76461 0.27445 0.0
O71 O 0.71826 0.78574 0.28155 0.0
Cd72 Cd 0.70012 0.79059 0.30233 0.0
O73 O 0.65418 0.74473 0.27823 0.0
Cd74 Cd 0.60998 0.72653 0.2961 0.0
C75 C 0.59072 0.84193 0.30076 0.0
O76 O 0.67816 0.71299 0.30802 0.0
O77 O 0.61233 0.71345 0.31748 0.0
O78 O 0.60458 0.64984 0.2875 0.0
C79 C 0.65633 0.70752 0.31772 0.0
O80 O 0.63404 0.84472 0.30333 0.0
C81 C 0.56066 0.64578 0.28865 0.0
O82 O 0.5728 0.80337 0.29739 0.0
O83 O 0.5387 0.68038 0.29309 0.0
C84 C 0.22474 0.19653 0.52444 0.0
O85 O 0.2001 0.22268 0.53109 0.0
Cd86 Cd 0.18681 0.20267 0.55148 0.0
O87 O 0.24384 0.15969 0.52853 0.0
Cd88 Cd 0.25533 0.11515 0.54678 0.0
C89 C 0.13933 0.09244 0.54838 0.0
O90 O 0.26248 0.1832 0.55916 0.0
O91 O 0.25975 0.11699 0.56842 0.0
O92 O 0.3353 0.11139 0.54014 0.0
C93 C 0.26482 0.16101 0.56889 0.0
O94 O 0.13424 0.13552 0.55097 0.0
C95 C 0.33996 0.06754 0.5413 0.0
O96 O 0.1796 0.07569 0.54597 0.0
O97 O 0.30436 0.04484 0.54486 0.0
C98 C 0.79702 0.71767 0.77666 0.0
O99 O 0.76966 0.69619 0.78367 0.0
Cd100 Cd 0.78847 0.68846 0.80431 0.0
O101 O 0.83464 0.73595 0.78047 0.0
Cd102 Cd 0.87993 0.74976 0.79849 0.0
C103 C 0.89672 0.63448 0.8024 0.0
O104 O 0.81043 0.76623 0.8099 0.0
O105 O 0.87518 0.76357 0.81977 0.0
O106 O 0.8941 0.82055 0.78736 0.0
C107 C 0.83161 0.77175 0.81968 0.0
O108 O 0.85341 0.63241 0.80504 0.0
C109 C 0.9342 0.82797 0.79176 0.0
O110 O 0.91533 0.67285 0.79918 0.0
O111 O 0.95025 0.79767 0.79896 0.0
C112 C 0.76282 0.69616 0.68935 0.0
O113 O 0.78597 0.72017 0.68189 0.0
Cd114 Cd 0.78938 0.69764 0.6613 0.0
O115 O 0.74126 0.65947 0.68614 0.0
Cd116 Cd 0.72294 0.61069 0.66916 0.0
C117 C 0.83772 0.58792 0.66464 0.0
O118 O 0.71131 0.67608 0.65628 0.0
O119 O 0.71152 0.60888 0.64757 0.0
O120 O 0.64611 0.60876 0.67789 0.0
C121 C 0.7062 0.65286 0.64681 0.0
O122 O 0.84072 0.62924 0.66047 0.0
C123 C 0.64063 0.56489 0.67707 0.0
O124 O 0.79997 0.57292 0.66932 0.0
O125 O 0.67457 0.54134 0.67282 0.0
C126 C 0.29341 0.26319 0.9391 0.0
O127 O 0.26555 0.28422 0.9321 0.0
Cd128 Cd 0.283 0.29105 0.91134 0.0
O129 O 0.33094 0.24472 0.93523 0.0
Cd130 Cd 0.375 0.23027 0.91706 0.0
C131 C 0.39055 0.34559 0.91277 0.0
O132 O 0.30563 0.21347 0.9056 0.0
O133 O 0.37063 0.21685 0.89583 0.0
O134 O 0.38992 0.15825 0.92764 0.0
C135 C 0.32718 0.20828 0.89585 0.0
O136 O 0.34717 0.34745 0.91019 0.0
C137 C 0.43075 0.15241 0.92349 0.0
O138 O 0.40949 0.30744 0.91611 0.0
O139 O 0.44675 0.18416 0.91671 0.0
C140 C 0.71681 0.79907 0.18684 0.0
O141 O 0.69616 0.77119 0.17981 0.0
Cd142 Cd 0.69236 0.78739 0.15893 0.0
O143 O 0.73621 0.83602 0.18295 0.0
Cd144 Cd 0.75344 0.87971 0.16488 0.0
C145 C 0.63854 0.89586 0.15953 0.0
O146 O 0.77082 0.80916 0.15398 0.0
O147 O 0.7714 0.87343 0.14389 0.0
O148 O 0.82308 0.89411 0.17648 0.0
C149 C 0.77821 0.82966 0.14418 0.0
O150 O 0.63693 0.85233 0.15715 0.0
C151 C 0.83091 0.93416 0.17209 0.0
O152 O 0.67632 0.91482 0.16307 0.0
O153 O 0.80121 0.95011 0.16471 0.0
C154 C 0.19761 0.2182 0.43735 0.0
O155 O 0.22262 0.19441 0.43024 0.0
Cd156 Cd 0.19754 0.18415 0.41006 0.0
O157 O 0.15971 0.2371 0.43387 0.0
Cd158 Cd 0.10973 0.25026 0.4167 0.0
C159 C 0.0888 0.13433 0.41448 0.0
O160 O 0.17461 0.26065 0.40346 0.0
O161 O 0.10628 0.25778 0.39519 0.0
O162 O 0.10735 0.32852 0.42441 0.0
C163 C 0.14998 0.2643 0.39414 0.0
O164 O 0.13129 0.13041 0.41118 0.0
C165 C 0.06334 0.33346 0.42383 0.0
O166 O 0.07195 0.17389 0.4175 0.0
O167 O 0.03986 0.29866 0.42012 0.0
C168 C 0.76839 0.78404 0.52578 0.0
O169 O 0.79289 0.75816 0.53254 0.0
Cd170 Cd 0.80556 0.77956 0.55287 0.0
O171 O 0.74933 0.82113 0.52973 0.0
Cd172 Cd 0.73727 0.86722 0.54767 0.0
C173 C 0.85336 0.88955 0.54927 0.0
O174 O 0.72937 0.79952 0.56016 0.0
O175 O 0.73136 0.86618 0.56925 0.0
O176 O 0.65782 0.87087 0.54064 0.0
C177 C 0.72594 0.8222 0.56979 0.0
O178 O 0.85834 0.84663 0.55206 0.0
C179 C 0.65309 0.91474 0.54173 0.0
O180 O 0.81313 0.90623 0.54677 0.0
O181 O 0.68843 0.93748 0.54542 0.0
C182 C 0.19179 0.25958 0.77594 0.0
O183 O 0.21983 0.28101 0.78278 0.0
Cd184 Cd 0.20197 0.28967 0.80349 0.0
O185 O 0.15423 0.24191 0.77997 0.0
Cd186 Cd 0.10987 0.2292 0.79815 0.0
C187 C 0.0944 0.34481 0.80181 0.0
O188 O 0.17925 0.21263 0.80966 0.0
O189 O 0.1142 0.21665 0.81941 0.0
O190 O 0.09515 0.15735 0.78759 0.0
C191 C 0.15769 0.208 0.81943 0.0
O192 O 0.13783 0.34661 0.80434 0.0
C193 C 0.05442 0.15142 0.79178 0.0
O194 O 0.07538 0.30652 0.79871 0.0
O195 O 0.0384 0.18298 0.79862 0.0
C196 C 0.71476 0.69181 0.02597 0.0
O197 O 0.69321 0.71869 0.0331 0.0
Cd198 Cd 0.68775 0.69772 0.05373 0.0
O199 O 0.7341 0.65448 0.02967 0.0
Cd200 Cd 0.75118 0.60808 0.04725 0.0
C201 C 0.63567 0.58933 0.05136 0.0
O202 O 0.76541 0.67507 0.05948 0.0
O203 O 0.76424 0.60842 0.06862 0.0
O204 O 0.82724 0.60324 0.0383 0.0
C205 C 0.77124 0.65219 0.06901 0.0
O206 O 0.63285 0.6324 0.05417 0.0
C207 C 0.83167 0.5593 0.03928 0.0
O208 O 0.6744 0.57142 0.04805 0.0
O209 O 0.79755 0.53704 0.04383 0.0
C210 C 0.29516 0.20648 0.27532 0.0
O211 O 0.26748 0.18563 0.28238 0.0
Cd212 Cd 0.28488 0.18283 0.30318 0.0
O213 O 0.33136 0.22718 0.27921 0.0
Cd214 Cd 0.37414 0.24845 0.29708 0.0
C215 C 0.39583 0.13391 0.30192 0.0
O216 O 0.30418 0.26177 0.30821 0.0
O217 O 0.36809 0.26299 0.31844 0.0
O218 O 0.37716 0.32269 0.28712 0.0
C219 C 0.32407 0.26868 0.3181 0.0
O220 O 0.35242 0.13048 0.30436 0.0
C221 C 0.42007 0.33054 0.28911 0.0
O222 O 0.41332 0.17274 0.29859 0.0
O223 O 0.44287 0.29902 0.29464 0.0
H224 H 0.1846 0.24007 0.07198 0.0
H225 H 0.19909 0.25314 0.14257 0.0
H226 H 0.20292 0.3688 0.09146 0.0
H227 H 0.18803 0.1248 0.12256 0.0
H228 H 0.18753 0.29745 0.12422 0.0
H229 H 0.17268 0.19886 0.09068 0.0
C230 C 0.18582 0.25972 0.08021 0.0
C231 C 0.19558 0.30774 0.08023 0.0
C232 C 0.18716 0.2596 0.12387 0.0
C233 C 0.18219 0.26078 0.10164 0.0
C234 C 0.19376 0.23431 0.13433 0.0
C235 C 0.19533 0.18531 0.13401 0.0
C236 C 0.18221 0.23557 0.11307 0.0
C237 C 0.18777 0.16259 0.12315 0.0
C238 C 0.17892 0.23619 0.09088 0.0
C239 C 0.19604 0.33165 0.0911 0.0
N240 N 0.182 0.18796 0.11308 0.0
N241 N 0.19002 0.30775 0.10141 0.0
H242 H 0.7304 0.70057 0.39156 0.0
H243 H 0.75056 0.69875 0.32086 0.0
H244 H 0.8615 0.70947 0.37257 0.0
H245 H 0.61947 0.69857 0.33999 0.0
H246 H 0.79227 0.69261 0.33971 0.0
H247 H 0.68975 0.68997 0.37273 0.0
C248 C 0.75065 0.7001 0.38342 0.0
C249 C 0.79928 0.70647 0.38358 0.0
C250 C 0.75438 0.69358 0.33978 0.0
C251 C 0.75304 0.69443 0.36203 0.0
C252 C 0.73056 0.69707 0.32903 0.0
C253 C 0.68155 0.69978 0.32891 0.0
C254 C 0.72895 0.6929 0.35045 0.0
C255 C 0.65732 0.69706 0.33972 0.0
C256 C 0.72744 0.69398 0.37268 0.0
C257 C 0.82387 0.70509 0.3728 0.0
N258 N 0.68134 0.69413 0.35009 0.0
N259 N 0.80038 0.69956 0.36242 0.0
H260 H 0.27181 0.12312 0.59111 0.0
H261 H 0.26604 0.37133 0.62366 0.0
H262 H 0.26996 0.25518 0.57243 0.0
H263 H 0.27209 0.23876 0.64205 0.0
H264 H 0.27269 0.32983 0.60473 0.0
H265 H 0.27698 0.16533 0.6099 0.0
C266 C 0.27266 0.161 0.59097 0.0
C267 C 0.27007 0.18575 0.58024 0.0
C268 C 0.27284 0.30989 0.61292 0.0
C269 C 0.27589 0.23423 0.60165 0.0
C270 C 0.26904 0.33355 0.6237 0.0
C271 C 0.26807 0.30836 0.63439 0.0
C272 C 0.27556 0.26081 0.61288 0.0
C273 C 0.27232 0.25951 0.63399 0.0
C274 C 0.27567 0.18509 0.60169 0.0
C275 C 0.27161 0.23477 0.58054 0.0
N276 N 0.2756 0.23729 0.62339 0.0
N277 N 0.27414 0.25747 0.59109 0.0
H278 H 0.73804 0.78799 0.82212 0.0
H279 H 0.74952 0.78337 0.8929 0.0
H280 H 0.86671 0.77979 0.84216 0.0
H281 H 0.62091 0.78323 0.87274 0.0
H282 H 0.79327 0.794 0.87447 0.0
H283 H 0.69491 0.7983 0.84064 0.0
C284 C 0.75723 0.78871 0.83042 0.0
C285 C 0.80587 0.7823 0.83065 0.0
C286 C 0.75545 0.79203 0.87409 0.0
C287 C 0.75685 0.79391 0.85184 0.0
C288 C 0.73049 0.78594 0.8846 0.0
C289 C 0.68164 0.7817 0.88429 0.0
C290 C 0.73132 0.79373 0.86323 0.0
C291 C 0.65864 0.78575 0.87333 0.0
C292 C 0.73261 0.79463 0.84098 0.0
C293 C 0.82911 0.78405 0.84161 0.0
N294 N 0.68377 0.79111 0.8632 0.0
N295 N 0.80428 0.78924 0.85181 0.0
H296 H 0.7153 0.86101 0.59182 0.0
H297 H 0.70276 0.61353 0.62466 0.0
H298 H 0.71685 0.72843 0.57344 0.0
H299 H 0.69855 0.74645 0.64286 0.0
H300 H 0.70157 0.65498 0.60565 0.0
H301 H 0.70345 0.81959 0.61056 0.0
C302 C 0.71304 0.82322 0.59174 0.0
C303 C 0.71745 0.79806 0.58111 0.0
C304 C 0.70057 0.67503 0.61381 0.0
C305 C 0.70388 0.75049 0.60245 0.0
C306 C 0.70121 0.6514 0.62464 0.0
C307 C 0.70129 0.67668 0.63531 0.0
C308 C 0.70014 0.72418 0.61369 0.0
C309 C 0.69897 0.72564 0.63482 0.0
C310 C 0.70617 0.79958 0.60242 0.0
C311 C 0.71392 0.74916 0.58147 0.0
N312 N 0.69885 0.74783 0.62417 0.0
N313 N 0.7076 0.72691 0.59199 0.0
H314 H 0.23349 0.1938 0.89302 0.0
H315 H 0.25134 0.19288 0.82229 0.0
H316 H 0.36386 0.19799 0.87361 0.0
H317 H 0.12098 0.19873 0.84169 0.0
H318 H 0.29306 0.1823 0.84103 0.0
H319 H 0.19171 0.18313 0.87431 0.0
C320 C 0.25333 0.1921 0.88482 0.0
C321 C 0.30206 0.19752 0.88481 0.0
C322 C 0.25529 0.18551 0.84118 0.0
C323 C 0.25464 0.18547 0.86343 0.0
C324 C 0.23148 0.19157 0.8305 0.0
C325 C 0.18277 0.19741 0.8305 0.0
C326 C 0.23014 0.18546 0.8519 0.0
C327 C 0.15866 0.19496 0.84133 0.0
C328 C 0.22949 0.18599 0.87416 0.0
C329 C 0.32616 0.19456 0.87398 0.0
N330 N 0.18269 0.1896 0.85164 0.0
N331 N 0.3021 0.18917 0.86369 0.0
H332 H 0.77944 0.61418 0.09126 0.0
H333 H 0.79702 0.86441 0.12211 0.0
H334 H 0.78874 0.74487 0.07212 0.0
H335 H 0.78313 0.73489 0.14158 0.0
H336 H 0.8058 0.81979 0.10378 0.0
H337 H 0.792 0.65647 0.10987 0.0
C338 C 0.78446 0.65168 0.09098 0.0
C339 C 0.78235 0.67621 0.08019 0.0
C340 C 0.80124 0.80108 0.11207 0.0
C341 C 0.7967 0.72464 0.10134 0.0
C342 C 0.79619 0.8265 0.12253 0.0
C343 C 0.78857 0.8032 0.13332 0.0
C344 C 0.7983 0.75207 0.11242 0.0
C345 C 0.78841 0.75416 0.13341 0.0
C346 C 0.79169 0.67579 0.10158 0.0
C347 C 0.78952 0.7247 0.08028 0.0
N348 N 0.79263 0.73016 0.12307 0.0
N349 N 0.79598 0.74738 0.09071 0.0
H350 H 0.10848 0.26334 0.37225 0.0
H351 H 0.23128 0.28983 0.31948 0.0
H352 H 0.24129 0.28468 0.3897 0.0
H353 H 0.35415 0.26811 0.34114 0.0
H354 H 0.1845 0.29817 0.3374 0.0
H355 H 0.14696 0.27193 0.35311 0.0
C356 C 0.1457 0.2706 0.37203 0.0
C357 C 0.17187 0.27294 0.38254 0.0
C358 C 0.22146 0.2909 0.33831 0.0
C359 C 0.21624 0.28417 0.36067 0.0
C360 C 0.24832 0.2866 0.32805 0.0
C361 C 0.29643 0.27739 0.32887 0.0
C362 C 0.2429 0.28518 0.34945 0.0
C363 C 0.31702 0.27462 0.34013 0.0
C364 C 0.16772 0.276 0.36107 0.0
C365 C 0.2199 0.28225 0.38179 0.0
N366 N 0.28999 0.27808 0.35 0.0
N367 N 0.24059 0.28718 0.37103 0.0
H368 H 0.31715 0.25258 0.19988 0.0
H369 H 0.22933 0.15687 0.26289 0.0
H370 H 0.22218 0.13635 0.20414 0.0
H371 H 0.34002 0.25814 0.25849 0.0
H372 H 0.21836 0.15623 0.24133 0.0
H373 H 0.31806 0.26247 0.22146 0.0
C374 C 0.29634 0.22933 0.20534 0.0
C375 C 0.27 0.19329 0.20024 0.0
C376 C 0.2449 0.17871 0.24512 0.0
C377 C 0.27083 0.20436 0.22484 0.0
C378 C 0.25111 0.17912 0.2574 0.0
C379 C 0.28596 0.20717 0.26246 0.0
C380 C 0.27364 0.20668 0.2379 0.0
C381 C 0.31308 0.23552 0.25496 0.0
C382 C 0.29689 0.23494 0.21765 0.0
C383 C 0.24345 0.16429 0.20772 0.0
N384 N 0.30647 0.23439 0.24304 0.0
N385 N 0.24472 0.17034 0.21965 0.0
H386 H 0.71609 0.81025 0.45103 0.0
H387 H 0.81144 0.71411 0.51314 0.0
H388 H 0.82519 0.70626 0.45463 0.0
H389 H 0.71176 0.8272 0.50962 0.0
H390 H 0.80661 0.70105 0.49171 0.0
H391 H 0.70377 0.80717 0.47254 0.0
C392 C 0.73709 0.78647 0.45632 0.0
C393 C 0.77228 0.75915 0.45109 0.0
C394 C 0.78549 0.72845 0.49566 0.0
C395 C 0.75851 0.75548 0.47559 0.0
C396 C 0.78825 0.73589 0.50788 0.0
C397 C 0.76266 0.77233 0.51312 0.0
C398 C 0.75701 0.75772 0.48868 0.0
C399 C 0.73277 0.7992 0.50592 0.0
C400 C 0.73009 0.78473 0.46858 0.0
C401 C 0.79823 0.72861 0.45833 0.0
N402 N 0.73112 0.79165 0.49404 0.0
N403 N 0.79112 0.72794 0.47023 0.0
H404 H 0.15762 0.22118 0.70072 0.0
H405 H 0.26359 0.2993 0.76332 0.0
H406 H 0.26982 0.32077 0.70496 0.0
H407 H 0.14266 0.21017 0.75942 0.0
H408 H 0.27474 0.29696 0.7418 0.0
H409 H 0.16011 0.20599 0.72213 0.0
C410 C 0.18305 0.23943 0.70612 0.0
C411 C 0.21293 0.27288 0.70111 0.0
C412 C 0.24598 0.27763 0.74568 0.0
C413 C 0.21598 0.25585 0.72549 0.0
C414 C 0.23962 0.27898 0.75795 0.0
C415 C 0.20171 0.25558 0.76314 0.0
C416 C 0.21414 0.25277 0.73857 0.0
C417 C 0.17197 0.22938 0.75578 0.0
C418 C 0.18445 0.23084 0.71833 0.0
C419 C 0.2455 0.29532 0.70849 0.0
N420 N 0.17858 0.22904 0.74385 0.0
N421 N 0.24586 0.2867 0.72032 0.0
H422 H 0.77195 0.65197 0.00948 0.0
H423 H 0.63895 0.76784 0.95482 0.0
H424 H 0.66316 0.75605 0.01338 0.0
H425 H 0.75441 0.67104 0.95111 0.0
H426 H 0.65176 0.76925 0.9762 0.0
H427 H 0.77074 0.66407 -0.01191 0.0
C428 C 0.74793 0.67761 0.00583 0.0
C429 C 0.71707 0.70259 0.01319 0.0
C430 C 0.67453 0.74797 0.97071 0.0
C431 C 0.71544 0.71644 -0.01132 0.0
C432 C 0.66716 0.74698 0.95849 0.0
C433 C 0.69531 0.71874 0.95119 0.0
C434 C 0.71008 0.72028 0.97567 0.0
C435 C 0.73167 0.69299 0.95642 0.0
C436 C 0.74737 0.68458 -0.00639 0.0
C437 C 0.68727 0.73584 0.00801 0.0
N438 N 0.73773 0.69405 0.96838 0.0
N439 N 0.68681 0.74143 -0.00398 0.0
H440 H 0.31916 0.22339 0.01471 0.0
H441 H 0.22216 0.30572 0.95136 0.0
H442 H 0.2131 0.32959 0.00971 0.0
H443 H 0.34132 0.21412 0.956 0.0
H444 H 0.21001 0.30495 0.97285 0.0
H445 H 0.3194 0.20968 -0.00678 0.0
C446 C 0.2957 0.24349 0.00911 0.0
C447 C 0.26663 0.27815 0.01395 0.0
C448 C 0.23863 0.28479 0.96914 0.0
C449 C 0.26665 0.26273 -0.0105 0.0
C450 C 0.24555 0.28522 0.95688 0.0
C451 C 0.28319 0.26054 0.95191 0.0
C452 C 0.26958 0.2595 0.97644 0.0
C453 C 0.31221 0.23422 0.95947 0.0
C454 C 0.29587 0.23573 -0.00313 0.0
C455 C 0.23666 0.30303 0.00633 0.0
N456 N 0.30499 0.23468 0.97138 0.0
N457 N 0.23769 0.29503 -0.00553 0.0
H458 H 0.64853 0.71095 0.25764 0.0
H459 H 0.76787 0.8448 0.20365 0.0
H460 H 0.75582 0.81572 0.26204 0.0
H461 H 0.67044 0.7308 0.19924 0.0
H462 H 0.76764 0.83124 0.225 0.0
H463 H 0.66007 0.71407 0.23624 0.0
C464 C 0.67473 0.73449 0.2541 0.0
C465 C 0.70088 0.76361 0.26161 0.0
C466 C 0.74655 0.80897 0.21937 0.0
C467 C 0.71411 0.76738 0.2371 0.0
C468 C 0.74649 0.81678 0.20717 0.0
C469 C 0.71865 0.7892 0.19967 0.0
C470 C 0.71832 0.77355 0.22412 0.0
C471 C 0.69215 0.75307 0.20471 0.0
C472 C 0.68137 0.73613 0.24187 0.0
C473 C 0.73472 0.79291 0.25656 0.0
N474 N 0.69233 0.74654 0.21666 0.0
N475 N 0.74005 0.7944 0.24457 0.0
H476 H 0.16276 0.28052 0.45335 0.0
H477 H 0.28138 0.15271 0.50836 0.0
H478 H 0.26331 0.16827 0.44988 0.0
H479 H 0.18114 0.26542 0.51157 0.0
H480 H 0.28419 0.16567 0.48698 0.0
H481 H 0.17829 0.28332 0.47459 0.0
C482 C 0.1884 0.25661 0.45706 0.0
C483 C 0.21116 0.22345 0.44989 0.0
C484 C 0.26194 0.18788 0.49237 0.0
C485 C 0.22892 0.2264 0.47422 0.0
C486 C 0.26018 0.18046 0.50458 0.0
C487 C 0.23028 0.20752 0.51173 0.0
C488 C 0.23337 0.2224 0.48726 0.0
C489 C 0.20424 0.24339 0.50637 0.0
C490 C 0.19733 0.25836 0.46919 0.0
C491 C 0.24465 0.19402 0.45512 0.0
N492 N 0.20598 0.24943 0.49442 0.0
N493 N 0.25207 0.19574 0.46703 0.0
H494 H 0.81862 0.75905 0.70109 0.0
H495 H 0.72278 0.67955 0.7647 0.0
H496 H 0.70431 0.66264 0.7064 0.0
H497 H 0.84552 0.7653 0.75962 0.0
H498 H 0.7081 0.68301 0.74334 0.0
H499 H 0.82126 0.77223 0.72259 0.0
C500 C 0.79377 0.74112 0.70676 0.0
C501 C 0.76178 0.70912 0.702 0.0
C502 C 0.73808 0.70131 0.74692 0.0
C503 C 0.76464 0.72381 0.72647 0.0
C504 C 0.74649 0.69928 0.75911 0.0
C505 C 0.78579 0.72156 0.76392 0.0
C506 C 0.76926 0.72571 0.73952 0.0
C507 C 0.81511 0.74704 0.75628 0.0
C508 C 0.79534 0.74854 0.71901 0.0
C509 C 0.73015 0.687 0.70971 0.0
N510 N 0.80644 0.74811 0.74443 0.0
N511 N 0.73266 0.69446 0.72158 0.0
H512 H 0.11227 -0.00805 0.1567 0.0
H513 H 0.88713 0.92893 0.1917 0.0
H514 H 0.09653 0.05781 0.19101 0.0
H515 H 0.87795 0.98936 0.15659 0.0
H516 H 0.9688 0.95593 0.19303 0.0
H517 H 0.03089 0.96561 0.15789 0.0
C518 C 0.09208 -0.00023 0.16462 0.0
C519 C 0.11081 0.02718 0.17376 0.0
C520 C 0.9484 0.96365 0.18515 0.0
C521 C 0.0186 -0.00279 0.17513 0.0
C522 C 0.90209 0.94856 0.18439 0.0
C523 C 0.87603 0.95722 0.17404 0.0
C524 C 0.96871 0.98583 0.17533 0.0
C525 C 0.89683 0.98241 0.16476 0.0
C526 C 0.04573 0.98523 0.16521 0.0
C527 C 0.08304 0.03687 0.18377 0.0
N528 N 0.94242 -0.00496 0.16552 0.0
N529 N 0.03801 0.02179 0.18422 0.0
H530 H 0.10717 0.41504 0.42942 0.0
H531 H 0.87189 0.56583 0.43004 0.0
H532 H 0.96988 0.35556 0.4243 0.0
H533 H 0.00851 0.62481 0.42352 0.0
H534 H 0.90784 0.48885 0.43236 0.0
H535 H 0.07144 0.49211 0.43169 0.0
C536 C 0.06942 0.41809 0.42891 0.0
C537 C 0.04141 0.37892 0.42654 0.0
C538 C 0.92995 0.51872 0.43051 0.0
C539 C 0.0005 0.46699 0.42914 0.0
C540 C 0.90955 0.5627 0.42922 0.0
C541 C 0.93728 0.60169 0.42645 0.0
C542 C 0.97844 0.51374 0.42911 0.0
C543 C 0.98585 0.59559 0.42555 0.0
C544 C 0.04914 0.46213 0.43017 0.0
C545 C -0.00725 0.38492 0.42602 0.0
N546 N 0.00492 0.5523 0.42682 0.0
N547 N 0.97379 0.42828 0.42725 0.0
H548 H 0.40734 0.37581 0.68278 0.0
H549 H 0.55965 0.60924 0.68326 0.0
H550 H 0.34947 0.51324 0.67638 0.0
H551 H 0.61807 0.47173 0.67739 0.0
H552 H 0.48233 0.57425 0.68556 0.0
H553 H 0.4843 0.41087 0.6856 0.0
C554 C 0.41068 0.41346 0.68211 0.0
C555 C 0.37205 0.44168 0.67919 0.0
C556 C 0.51217 0.55174 0.68388 0.0
C557 C 0.46 0.48182 0.68244 0.0
C558 C 0.55634 0.57159 0.68261 0.0
C559 C 0.59525 0.54332 0.67999 0.0
C560 C 0.50693 0.50328 0.68262 0.0
C561 C 0.58892 0.4948 0.6793 0.0
C562 C 0.45466 0.43335 0.68369 0.0
C563 C 0.37842 0.49021 0.6785 0.0
N564 N 0.54545 0.47628 0.68053 0.0
N565 N 0.42173 0.50878 0.68004 0.0
H566 H 0.49125 0.11112 0.90813 0.0
H567 H 0.55374 0.8833 0.9425 0.0
H568 H 0.4237 0.0914 0.9421 0.0
H569 H 0.49884 0.87671 0.9068 0.0
H570 H 0.52607 0.96481 0.94395 0.0
H571 H 0.51891 0.02995 0.90892 0.0
C572 C 0.48332 0.09008 0.91589 0.0
C573 C 0.45512 0.10762 0.92505 0.0
C574 C 0.51976 0.94504 0.93589 0.0
C575 C 0.48656 0.01573 0.92598 0.0
C576 C 0.53524 0.89883 0.93507 0.0
C577 C 0.52819 0.87353 0.92454 0.0
C578 C 0.49887 0.96603 0.92597 0.0
C579 C 0.50446 0.89502 0.9151 0.0
C580 C 0.49861 0.04387 0.91625 0.0
C581 C 0.44528 0.07883 0.93485 0.0
N582 N 0.49139 0.94052 0.91595 0.0
N583 N 0.46111 0.03399 0.93509 0.0
H584 H 0.07329 0.37659 0.02842 0.0
H585 H 0.85184 0.46553 0.03929 0.0
H586 H 0.11821 0.51143 0.04132 0.0
H587 H 0.91284 0.60088 0.03234 0.0
H588 H 0.92869 0.42966 0.03639 0.0
H589 H -0.00551 0.4078 0.02572 0.0
C590 C 0.06665 0.4129 0.03061 0.0
C591 C 0.10212 0.4413 0.03532 0.0
C592 C 0.92503 0.46705 0.03517 0.0
C593 C 0.01187 0.47676 0.03251 0.0
C594 C 0.88122 0.48755 0.03693 0.0
C595 C 0.87607 0.53619 0.03611 0.0
C596 C 0.96384 0.49557 0.03267 0.0
C597 C 0.9153 0.56319 0.03309 0.0
C598 C 0.02153 0.43048 0.02918 0.0
C599 C 0.09173 0.48821 0.03781 0.0
N600 N 0.95772 0.54257 0.03166 0.0
N601 N 0.04733 0.50443 0.03645 0.0
H602 H 0.46673 0.62664 0.28882 0.0
H603 H 0.37657 0.40527 0.2788 0.0
H604 H 0.60175 0.56337 0.28236 0.0
H605 H 0.51057 0.35962 0.29233 0.0
H606 H 0.40823 0.48367 0.27604 0.0
H607 H 0.43034 0.54995 0.28647 0.0
C608 C 0.48857 0.59677 0.28668 0.0
C609 C 0.53728 0.60129 0.28583 0.0
C610 C 0.43062 0.45658 0.27966 0.0
C611 C 0.49605 0.51368 0.28302 0.0
C612 C 0.41278 0.41167 0.28113 0.0
C613 C 0.44083 0.37608 0.286 0.0
C614 C 0.47682 0.46591 0.28309 0.0
C615 C 0.48761 0.3862 0.28869 0.0
C616 C 0.46777 0.55305 0.28524 0.0
C617 C 0.56403 0.56143 0.28311 0.0
N618 N 0.50412 0.43036 0.28725 0.0
N619 N 0.54312 0.51913 0.28199 0.0
H620 H 0.5703 0.87232 0.53651 0.0
H621 H 0.42299 0.10989 0.53628 0.0
H622 H 0.63195 0.00836 0.54197 0.0
H623 H 0.36109 0.9739 0.5417 0.0
H624 H 0.49977 0.07294 0.53456 0.0
H625 H 0.49357 0.90924 0.5346 0.0
C626 C 0.56777 0.91004 0.5372 0.0
C627 C 0.6075 0.93735 0.5395 0.0
C628 C 0.46934 0.05119 0.53605 0.0
C629 C 0.51981 0.97965 0.53731 0.0
C630 C 0.42548 0.07218 0.537 0.0
C631 C 0.38565 0.04489 0.53924 0.0
C632 C 0.4734 0.00254 0.53726 0.0
C633 C 0.39094 -0.00377 0.54006 0.0
C634 C 0.52393 0.931 0.53614 0.0
C635 C 0.60217 0.98601 0.54027 0.0
N636 N 0.43413 0.97657 0.53911 0.0
N637 N 0.55901 0.00565 0.53922 0.0
H638 H -0.00511 0.10918 0.80718 0.0
H639 H 0.9304 0.88435 0.77217 0.0
H640 H 0.06083 0.09173 0.77292 0.0
H641 H 0.98824 0.8747 0.80753 0.0
H642 H 0.95814 0.96575 0.77093 0.0
H643 H 0.96745 0.02812 0.80614 0.0
C644 C 0.0025 0.08866 0.79931 0.0
C645 C 0.03018 0.10678 0.79013 0.0
C646 C 0.96509 0.94532 0.77886 0.0
C647 C -0.00099 0.01506 0.78892 0.0
C648 C 0.94958 0.89918 0.77957 0.0
C649 C 0.9574 0.87307 0.78995 0.0
C650 C 0.9868 0.96542 0.78876 0.0
C651 C 0.982 0.89366 0.79934 0.0
C652 C 0.98735 0.04252 0.7988 0.0
C653 C 0.03965 0.07868 0.78018 0.0
N654 N -0.00491 0.93911 0.79862 0.0
N655 N 0.02395 0.0339 0.77981 0.0
H656 H 0.54904 0.86539 0.15579 0.0
H657 H 0.43714 0.12173 0.15588 0.0
H658 H 0.63001 -0.00877 0.16079 0.0
H659 H 0.35603 -0.00436 0.16038 0.0
H660 H 0.50825 0.07433 0.15495 0.0
H661 H 0.47802 0.91284 0.15476 0.0
C662 C 0.55196 0.90301 0.15661 0.0
C663 C 0.59555 0.92436 0.15844 0.0
C664 C 0.47486 0.05708 0.15611 0.0
C665 C 0.51437 0.97878 0.15725 0.0
C666 C 0.43421 0.08407 0.15661 0.0
C667 C 0.39055 0.06263 0.15828 0.0
C668 C 0.47181 0.00829 0.1572 0.0
C669 C 0.38895 0.01368 0.15916 0.0
C670 C 0.51135 0.93003 0.15606 0.0
C671 C 0.59713 0.97326 0.15945 0.0
N672 N 0.42903 0.98815 0.15862 0.0
N673 N 0.55709 -0.00116 0.15884 0.0
H674 H 0.98524 0.85016 0.4166 0.0
H675 H -0.0064 0.12969 0.41738 0.0
H676 H 0.8627 0.93756 0.41261 0.0
H677 H 0.11587 0.0429 0.41221 0.0
H678 H 0.94508 0.05935 0.41754 0.0
H679 H 0.03389 0.92042 0.41685 0.0
C680 C 0.96855 0.88408 0.41579 0.0
C681 C 0.91982 0.88795 0.41456 0.0
C682 C 0.98254 0.05577 0.41636 0.0
C683 C 0.97523 0.9684 0.4149 0.0
C684 C 0.01027 0.09588 0.41631 0.0
C685 C 0.05888 0.09221 0.41476 0.0
C686 C 0.0036 0.01166 0.41496 0.0
C687 C 0.07853 0.04745 0.41338 0.0
C688 C -0.00365 0.92414 0.4159 0.0
C689 C 0.90013 0.93285 0.41353 0.0
N690 N 0.05084 0.00893 0.41355 0.0
N691 N 0.92789 0.97131 0.41376 0.0
H692 H 0.09903 0.45422 0.6821 0.0
H693 H 0.89915 0.57741 0.64639 0.0
H694 H 0.06386 0.40286 0.64719 0.0
H695 H 0.87122 0.53107 0.68219 0.0
H696 H 0.97086 0.52967 0.64627 0.0
H697 H 0.02599 0.50018 0.68219 0.0
C698 C 0.07614 0.45307 0.67443 0.0
C699 C 0.08715 0.42488 0.66462 0.0
C700 C 0.94882 0.53 0.65411 0.0
C701 C 0.00495 0.47744 0.6646 0.0
C702 C 0.90818 0.5571 0.6542 0.0
C703 C 0.8794 0.55772 0.66429 0.0
C704 C 0.96137 0.50486 0.66433 0.0
C705 C 0.89245 0.53098 0.67421 0.0
C706 C 0.03458 0.47886 0.67453 0.0
C707 C 0.05633 0.42412 0.65492 0.0
N708 N 0.93302 0.50602 0.67406 0.0
N709 N 0.01674 0.45052 0.65509 0.0
H710 H 0.36033 0.43568 0.90953 0.0
H711 H 0.61774 0.54397 0.90905 0.0
H712 H 0.48585 0.3532 0.91427 0.0
H713 H 0.49255 0.62724 0.91346 0.0
H714 H 0.56964 0.47357 0.90865 0.0
H715 H 0.40824 0.50624 0.90869 0.0
C716 C 0.39796 0.43236 0.91036 0.0
C717 C 0.41911 0.38846 0.91201 0.0
C718 C 0.55273 0.50727 0.9097 0.0
C719 C 0.47404 0.46904 0.91103 0.0
C720 C 0.58013 0.54751 0.90989 0.0
C721 C 0.55915 0.59159 0.91134 0.0
C722 C 0.50398 0.51112 0.91086 0.0
C723 C 0.51024 0.59397 0.91238 0.0
C724 C 0.42524 0.47267 0.90991 0.0
C725 C 0.46803 0.38632 0.91304 0.0
N726 N 0.48429 0.55426 0.91212 0.0
N727 N 0.49385 0.42606 0.91252 0.0
H728 H 0.62924 0.49393 0.04961 0.0
H729 H 0.34988 0.49127 0.04924 0.0
H730 H 0.54494 0.61838 0.05395 0.0
H731 H 0.43422 0.36755 0.05478 0.0
H732 H 0.4211 0.53855 0.04946 0.0
H733 H 0.55796 0.44684 0.04998 0.0
C734 C 0.59579 0.51136 0.05065 0.0
C735 C 0.59307 0.56017 0.05175 0.0
C736 C 0.42392 0.50106 0.05067 0.0
C737 C 0.51145 0.50656 0.05212 0.0
C738 C 0.38332 0.47405 0.05051 0.0
C739 C 0.38608 0.42538 0.05199 0.0
C740 C 0.46759 0.47918 0.05218 0.0
C741 C 0.43038 0.40496 0.05364 0.0
C742 C 0.55514 0.48445 0.05089 0.0
C743 C 0.54874 0.58085 0.05311 0.0
N744 N 0.4694 0.43194 0.05363 0.0
N745 N 0.50965 0.55395 0.05319 0.0
H746 H 0.49149 0.12785 0.30015 0.0
H747 H 0.49509 0.8486 0.29933 0.0
H748 H 0.36784 0.04329 0.30494 0.0
H749 H 0.61943 0.93233 0.30382 0.0
H750 H 0.44772 0.91986 0.3002 0.0
H751 H 0.53915 0.05664 0.30037 0.0
C752 C 0.47437 0.09438 0.30128 0.0
C753 C 0.42558 0.09157 0.30251 0.0
C754 C 0.48537 0.92256 0.30104 0.0
C755 C 0.47983 0.01003 0.30269 0.0
C756 C 0.51244 0.88192 0.30051 0.0
C757 C 0.56131 0.88447 0.30149 0.0
C758 C 0.50736 0.96611 0.30244 0.0
C759 C 0.58186 0.92864 0.30304 0.0
C760 C 0.5016 0.05377 0.30143 0.0
C761 C 0.40532 0.04721 0.30398 0.0
N762 N 0.55481 0.96773 0.3034 0.0
N763 N 0.4325 0.0082 0.30395 0.0
H764 H 0.85648 0.98494 0.54663 0.0
H765 H 0.1363 -0.00321 0.54636 0.0
H766 H 0.94543 0.8637 0.55093 0.0
H767 H 0.04728 0.11833 0.54991 0.0
H768 H 0.06663 0.94726 0.54629 0.0
H769 H 0.92616 0.03435 0.54611 0.0
C770 C 0.89062 0.96868 0.54745 0.0
C771 C 0.89506 0.92009 0.54886 0.0
C772 C 0.06241 0.98478 0.54709 0.0
C773 C 0.97493 0.97642 0.54822 0.0
C774 C 0.10215 0.01309 0.5471 0.0
C775 C 0.09768 0.0618 0.54817 0.0
C776 C 0.01786 0.00535 0.54807 0.0
C777 C 0.05249 0.08094 0.54912 0.0
C778 C 0.93037 -0.00308 0.54717 0.0
C779 C 0.94025 0.901 0.54988 0.0
N780 N 0.01437 0.05269 0.54902 0.0
N781 N 0.9784 0.92919 0.54951 0.0
H782 H 0.86705 0.54428 0.8054 0.0
H783 H 0.12459 0.43496 0.80461 0.0
H784 H -0.00799 0.62687 0.80054 0.0
H785 H -0.00093 0.35273 0.80039 0.0
H786 H 0.07658 0.50573 0.80526 0.0
H787 H 0.91521 0.47363 0.80574 0.0
C788 C 0.90462 0.54761 0.80444 0.0
C789 C 0.92553 0.59157 0.8029 0.0
C790 C 0.0596 0.47218 0.80419 0.0
C791 C 0.98076 0.51085 0.8033 0.0
C792 C 0.08694 0.43175 0.80385 0.0
C793 C 0.06582 0.38785 0.8024 0.0
C794 C 0.01078 0.46866 0.80318 0.0
C795 C 0.01688 0.38584 0.80146 0.0
C796 C 0.93205 0.50723 0.8046 0.0
C797 C 0.97438 0.5937 0.80169 0.0
N798 N -0.009 0.42569 0.80188 0.0
N799 N 0.00036 0.55388 0.80194 0.0
loop_
_geom_bond_atom_site_label_1
_geom_bond_atom_site_label_2
_geom_bond_distance
_geom_bond_site_symmetry_2
_ccdc_geom_bond_type
C0 O1 1.306 . S
C0 O3 1.160 . S
O1 C0 1.306 . S
O1 Cd2 2.228 . S
Cd2 O1 2.228 . S
Cd2 O6 2.273 . S
Cd2 O10 2.277 . S
O3 C0 1.160 . S
O3 Cd4 2.203 . S
Cd4 O3 2.203 . S
Cd4 O6 2.411 . S
Cd4 O7 2.333 . S
Cd4 O8 2.352 . S
Cd4 O12 2.277 . S
Cd4 O13 2.356 . S
C5 O10 1.209 . S
C5 O12 1.226 . S
O6 Cd2 2.273 . S
O6 Cd4 2.411 . S
O6 C9 1.320 . S
O7 Cd4 2.333 . S
O7 C9 1.214 . S
O8 Cd4 2.352 . S
O8 C11 1.258 . S
C9 O6 1.320 . S
C9 O7 1.214 . S
O10 Cd2 2.277 . S
O10 C5 1.209 . S
C11 O8 1.258 . S
C11 O13 1.282 . S
O12 Cd4 2.277 . S
O12 C5 1.226 . S
O13 Cd4 2.356 . S
O13 C11 1.282 . S
C14 O15 1.306 . S
C14 O17 1.160 . S
O15 C14 1.306 . S
O15 Cd16 2.228 . S
Cd16 O15 2.228 . S
Cd16 O20 2.273 . S
Cd16 O24 2.277 . S
O17 C14 1.160 . S
O17 Cd18 2.203 . S
Cd18 O17 2.203 . S
Cd18 O20 2.411 . S
Cd18 O21 2.333 . S
Cd18 O22 2.352 . S
Cd18 O26 2.277 . S
Cd18 O27 2.356 . S
C19 O24 1.209 . S
C19 O26 1.226 . S
O20 Cd16 2.273 . S
O20 Cd18 2.411 . S
O20 C23 1.320 . S
O21 Cd18 2.333 . S
O21 C23 1.214 . S
O22 Cd18 2.352 . S
O22 C25 1.258 . S
C23 O20 1.320 . S
C23 O21 1.214 . S
O24 Cd16 2.277 . S
O24 C19 1.209 . S
C25 O22 1.258 . S
C25 O27 1.282 . S
O26 Cd18 2.277 . S
O26 C19 1.226 . S
O27 Cd18 2.356 . S
O27 C25 1.282 . S
C28 O29 1.306 . S
C28 O31 1.160 . S
O29 C28 1.306 . S
O29 Cd30 2.228 . S
Cd30 O29 2.228 . S
Cd30 O34 2.273 . S
Cd30 O38 2.277 . S
O31 C28 1.160 . S
O31 Cd32 2.203 . S
Cd32 O31 2.203 . S
Cd32 O34 2.411 . S
Cd32 O35 2.333 . S
Cd32 O36 2.352 . S
Cd32 O40 2.277 . S
Cd32 O41 2.356 . S
C33 O38 1.209 . S
C33 O40 1.226 . S
O34 Cd30 2.273 . S
O34 Cd32 2.411 . S
O34 C37 1.320 . S
O35 Cd32 2.333 . S
O35 C37 1.214 . S
O36 Cd32 2.352 . S
O36 C39 1.258 . S
C37 O34 1.320 . S
C37 O35 1.214 . S
O38 Cd30 2.277 . S
O38 C33 1.209 . S
C39 O36 1.258 . S
C39 O41 1.282 . S
O40 Cd32 2.277 . S
O40 C33 1.226 . S
O41 Cd32 2.356 . S
O41 C39 1.282 . S
C42 O43 1.306 . S
C42 O45 1.160 . S
O43 C42 1.306 . S
O43 Cd44 2.228 . S
Cd44 O43 2.228 . S
Cd44 O48 2.273 . S
Cd44 O52 2.277 . S
O45 C42 1.160 . S
O45 Cd46 2.203 . S
Cd46 O45 2.203 . S
Cd46 O48 2.411 . S
Cd46 O49 2.333 . S
Cd46 O50 2.352 . S
Cd46 O54 2.277 . S
Cd46 O55 2.356 . S
C47 O52 1.209 . S
C47 O54 1.226 . S
O48 Cd44 2.273 . S
O48 Cd46 2.411 . S
O48 C51 1.320 . S
O49 Cd46 2.333 . S
O49 C51 1.214 . S
O50 Cd46 2.352 . S
O50 C53 1.258 . S
C51 O48 1.320 . S
C51 O49 1.214 . S
O52 Cd44 2.277 . S
O52 C47 1.209 . S
C53 O50 1.258 . S
C53 O55 1.282 . S
O54 Cd46 2.277 . S
O54 C47 1.226 . S
O55 Cd46 2.356 . S
O55 C53 1.282 . S
C56 O57 1.306 . S
C56 O59 1.160 . S
O57 C56 1.306 . S
O57 Cd58 2.228 . S
Cd58 O57 2.228 . S
Cd58 O62 2.273 . S
Cd58 O66 2.277 . S
O59 C56 1.160 . S
O59 Cd60 2.203 . S
Cd60 O59 2.203 . S
Cd60 O62 2.411 . S
Cd60 O63 2.333 . S
Cd60 O64 2.352 . S
Cd60 O68 2.277 . S
Cd60 O69 2.356 . S
C61 O66 1.209 . S
C61 O68 1.226 . S
O62 Cd58 2.273 . S
O62 Cd60 2.411 . S
O62 C65 1.320 . S
O63 Cd60 2.333 . S
O63 C65 1.214 . S
O64 Cd60 2.352 . S
O64 C67 1.258 . S
C65 O62 1.320 . S
C65 O63 1.214 . S
O66 Cd58 2.277 . S
O66 C61 1.209 . S
C67 O64 1.258 . S
C67 O69 1.282 . S
O68 Cd60 2.277 . S
O68 C61 1.226 . S
O69 Cd60 2.356 . S
O69 C67 1.282 . S
C70 O71 1.306 . S
C70 O73 1.160 . S
O71 C70 1.306 . S
O71 Cd72 2.228 . S
Cd72 O71 2.228 . S
Cd72 O76 2.273 . S
Cd72 O80 2.277 . S
O73 C70 1.160 . S
O73 Cd74 2.203 . S
Cd74 O73 2.203 . S
Cd74 O76 2.411 . S
Cd74 O77 2.333 . S
Cd74 O78 2.352 . S
Cd74 O82 2.277 . S
Cd74 O83 2.356 . S
C75 O80 1.209 . S
C75 O82 1.226 . S
O76 Cd72 2.273 . S
O76 Cd74 2.411 . S
O76 C79 1.320 . S
O77 Cd74 2.333 . S
O77 C79 1.214 . S
O78 Cd74 2.352 . S
O78 C81 1.258 . S
C79 O76 1.320 . S
C79 O77 1.214 . S
O80 Cd72 2.277 . S
O80 C75 1.209 . S
C81 O78 1.258 . S
C81 O83 1.282 . S
O82 Cd74 2.277 . S
O82 C75 1.226 . S
O83 Cd74 2.356 . S
O83 C81 1.282 . S
C84 O85 1.306 . S
C84 O87 1.160 . S
O85 C84 1.306 . S
O85 Cd86 2.228 . S
Cd86 O85 2.228 . S
Cd86 O90 2.273 . S
Cd86 O94 2.277 . S
O87 C84 1.160 . S
O87 Cd88 2.203 . S
Cd88 O87 2.203 . S
Cd88 O90 2.411 . S
Cd88 O91 2.333 . S
Cd88 O92 2.352 . S
Cd88 O96 2.277 . S
Cd88 O97 2.356 . S
C89 O94 1.209 . S
C89 O96 1.226 . S
O90 Cd86 2.273 . S
O90 Cd88 2.411 . S
O90 C93 1.320 . S
O91 Cd88 2.333 . S
O91 C93 1.214 . S
O92 Cd88 2.352 . S
O92 C95 1.258 . S
C93 O90 1.320 . S
C93 O91 1.214 . S
O94 Cd86 2.277 . S
O94 C89 1.209 . S
C95 O92 1.258 . S
C95 O97 1.282 . S
O96 Cd88 2.277 . S
O96 C89 1.226 . S
O97 Cd88 2.356 . S
O97 C95 1.282 . S
C98 O99 1.306 . S
C98 O101 1.160 . S
O99 C98 1.306 . S
O99 Cd100 2.228 . S
Cd100 O99 2.228 . S
Cd100 O104 2.273 . S
Cd100 O108 2.277 . S
O101 C98 1.160 . S
O101 Cd102 2.203 . S
Cd102 O101 2.203 . S
Cd102 O104 2.411 . S
Cd102 O105 2.333 . S
Cd102 O106 2.352 . S
Cd102 O110 2.277 . S
Cd102 O111 2.356 . S
C103 O108 1.209 . S
C103 O110 1.226 . S
O104 Cd100 2.273 . S
O104 Cd102 2.411 . S
O104 C107 1.320 . S
O105 Cd102 2.333 . S
O105 C107 1.214 . S
O106 Cd102 2.352 . S
O106 C109 1.258 . S
C107 O104 1.320 . S
C107 O105 1.214 . S
O108 Cd100 2.277 . S
O108 C103 1.209 . S
C109 O106 1.258 . S
C109 O111 1.282 . S
O110 Cd102 2.277 . S
O110 C103 1.226 . S
O111 Cd102 2.356 . S
O111 C109 1.282 . S
C112 O113 1.306 . S
C112 O115 1.160 . S
O113 C112 1.306 . S
O113 Cd114 2.228 . S
Cd114 O113 2.228 . S
Cd114 O118 2.273 . S
Cd114 O122 2.277 . S
O115 C112 1.160 . S
O115 Cd116 2.203 . S
Cd116 O115 2.203 . S
Cd116 O118 2.411 . S
Cd116 O119 2.333 . S
Cd116 O120 2.352 . S
Cd116 O124 2.277 . S
Cd116 O125 2.356 . S
C117 O122 1.209 . S
C117 O124 1.226 . S
O118 Cd114 2.273 . S
O118 Cd116 2.411 . S
O118 C121 1.320 . S
O119 Cd116 2.333 . S
O119 C121 1.214 . S
O120 Cd116 2.352 . S
O120 C123 1.258 . S
C121 O118 1.320 . S
C121 O119 1.214 . S
O122 Cd114 2.277 . S
O122 C117 1.209 . S
C123 O120 1.258 . S
C123 O125 1.282 . S
O124 Cd116 2.277 . S
O124 C117 1.226 . S
O125 Cd116 2.356 . S
O125 C123 1.282 . S
C126 O127 1.306 . S
C126 O129 1.160 . S
O127 C126 1.306 . S
O127 Cd128 2.228 . S
Cd128 O127 2.228 . S
Cd128 O132 2.273 . S
Cd128 O136 2.277 . S
O129 C126 1.160 . S
O129 Cd130 2.203 . S
Cd130 O129 2.203 . S
Cd130 O132 2.411 . S
Cd130 O133 2.333 . S
Cd130 O134 2.352 . S
Cd130 O138 2.277 . S
Cd130 O139 2.356 . S
C131 O136 1.209 . S
C131 O138 1.226 . S
O132 Cd128 2.273 . S
O132 Cd130 2.411 . S
O132 C135 1.320 . S
O133 Cd130 2.333 . S
O133 C135 1.214 . S
O134 Cd130 2.352 . S
O134 C137 1.258 . S
C135 O132 1.320 . S
C135 O133 1.214 . S
O136 Cd128 2.277 . S
O136 C131 1.209 . S
C137 O134 1.258 . S
C137 O139 1.282 . S
O138 Cd130 2.277 . S
O138 C131 1.226 . S
O139 Cd130 2.356 . S
O139 C137 1.282 . S
C140 O141 1.306 . S
C140 O143 1.160 . S
O141 C140 1.306 . S
O141 Cd142 2.228 . S
Cd142 O141 2.228 . S
Cd142 O146 2.273 . S
Cd142 O150 2.277 . S
O143 C140 1.160 . S
O143 Cd144 2.203 . S
Cd144 O143 2.203 . S
Cd144 O146 2.411 . S
Cd144 O147 2.333 . S
Cd144 O148 2.352 . S
Cd144 O152 2.277 . S
Cd144 O153 2.356 . S
C145 O150 1.209 . S
C145 O152 1.226 . S
O146 Cd142 2.273 . S
O146 Cd144 2.411 . S
O146 C149 1.320 . S
O147 Cd144 2.333 . S
O147 C149 1.214 . S
O148 Cd144 2.352 . S
O148 C151 1.258 . S
C149 O146 1.320 . S
C149 O147 1.214 . S
O150 Cd142 2.277 . S
O150 C145 1.209 . S
C151 O148 1.258 . S
C151 O153 1.282 . S
O152 Cd144 2.277 . S
O152 C145 1.226 . S
O153 Cd144 2.356 . S
O153 C151 1.282 . S
C154 O155 1.306 . S
C154 O157 1.160 . S
O155 C154 1.306 . S
O155 Cd156 2.228 . S
Cd156 O155 2.228 . S
Cd156 O160 2.273 . S
Cd156 O164 2.277 . S
O157 C154 1.160 . S
O157 Cd158 2.203 . S
Cd158 O157 2.203 . S
Cd158 O160 2.411 . S
Cd158 O161 2.333 . S
Cd158 O162 2.352 . S
Cd158 O166 2.277 . S
Cd158 O167 2.356 . S
C159 O164 1.209 . S
C159 O166 1.226 . S
O160 Cd156 2.273 . S
O160 Cd158 2.411 . S
O160 C163 1.320 . S
O161 Cd158 2.333 . S
O161 C163 1.214 . S
O162 Cd158 2.352 . S
O162 C165 1.258 . S
C163 O160 1.320 . S
C163 O161 1.214 . S
O164 Cd156 2.277 . S
O164 C159 1.209 . S
C165 O162 1.258 . S
C165 O167 1.282 . S
O166 Cd158 2.277 . S
O166 C159 1.226 . S
O167 Cd158 2.356 . S
O167 C165 1.282 . S
C168 O169 1.306 . S
C168 O171 1.160 . S
O169 C168 1.306 . S
O169 Cd170 2.228 . S
Cd170 O169 2.228 . S
Cd170 O174 2.273 . S
Cd170 O178 2.277 . S
O171 C168 1.160 . S
O171 Cd172 2.203 . S
Cd172 O171 2.203 . S
Cd172 O174 2.411 . S
Cd172 O175 2.333 . S
Cd172 O176 2.352 . S
Cd172 O180 2.277 . S
Cd172 O181 2.356 . S
C173 O178 1.209 . S
C173 O180 1.226 . S
O174 Cd170 2.273 . S
O174 Cd172 2.411 . S
O174 C177 1.320 . S
O175 Cd172 2.333 . S
O175 C177 1.214 . S
O176 Cd172 2.352 . S
O176 C179 1.258 . S
C177 O174 1.320 . S
C177 O175 1.214 . S
O178 Cd170 2.277 . S
O178 C173 1.209 . S
C179 O176 1.258 . S
C179 O181 1.282 . S
O180 Cd172 2.277 . S
O180 C173 1.226 . S
O181 Cd172 2.356 . S
O181 C179 1.282 . S
C182 O183 1.306 . S
C182 O185 1.160 . S
O183 C182 1.306 . S
O183 Cd184 2.228 . S
Cd184 O183 2.228 . S
Cd184 O188 2.273 . S
Cd184 O192 2.277 . S
O185 C182 1.160 . S
O185 Cd186 2.203 . S
Cd186 O185 2.203 . S
Cd186 O188 2.411 . S
Cd186 O189 2.333 . S
Cd186 O190 2.352 . S
Cd186 O194 2.277 . S
Cd186 O195 2.356 . S
C187 O192 1.209 . S
C187 O194 1.226 . S
O188 Cd184 2.273 . S
O188 Cd186 2.411 . S
O188 C191 1.320 . S
O189 Cd186 2.333 . S
O189 C191 1.214 . S
O190 Cd186 2.352 . S
O190 C193 1.258 . S
C191 O188 1.320 . S
C191 O189 1.214 . S
O192 Cd184 2.277 . S
O192 C187 1.209 . S
C193 O190 1.258 . S
C193 O195 1.282 . S
O194 Cd186 2.277 . S
O194 C187 1.226 . S
O195 Cd186 2.356 . S
O195 C193 1.282 . S
C196 O197 1.306 . S
C196 O199 1.160 . S
O197 C196 1.306 . S
O197 Cd198 2.228 . S
Cd198 O197 2.228 . S
Cd198 O202 2.273 . S
Cd198 O206 2.277 . S
O199 C196 1.160 . S
O199 Cd200 2.203 . S
Cd200 O199 2.203 . S
Cd200 O202 2.411 . S
Cd200 O203 2.333 . S
Cd200 O204 2.352 . S
Cd200 O208 2.277 . S
Cd200 O209 2.356 . S
C201 O206 1.209 . S
C201 O208 1.226 . S
O202 Cd198 2.273 . S
O202 Cd200 2.411 . S
O202 C205 1.320 . S
O203 Cd200 2.333 . S
O203 C205 1.214 . S
O204 Cd200 2.352 . S
O204 C207 1.258 . S
C205 O202 1.320 . S
C205 O203 1.214 . S
O206 Cd198 2.277 . S
O206 C201 1.209 . S
C207 O204 1.258 . S
C207 O209 1.282 . S
O208 Cd200 2.277 . S
O208 C201 1.226 . S
O209 Cd200 2.356 . S
O209 C207 1.282 . S
C210 O211 1.306 . S
C210 O213 1.160 . S
O211 C210 1.306 . S
O211 Cd212 2.228 . S
Cd212 O211 2.228 . S
Cd212 O216 2.273 . S
Cd212 O220 2.277 . S
O213 C210 1.160 . S
O213 Cd214 2.203 . S
Cd214 O213 2.203 . S
Cd214 O216 2.411 . S
Cd214 O217 2.333 . S
Cd214 O218 2.352 . S
Cd214 O222 2.277 . S
Cd214 O223 2.356 . S
C215 O220 1.209 . S
C215 O222 1.226 . S
O216 Cd212 2.273 . S
O216 Cd214 2.411 . S
O216 C219 1.320 . S
O217 Cd214 2.333 . S
O217 C219 1.214 . S
O218 Cd214 2.352 . S
O218 C221 1.258 . S
C219 O216 1.320 . S
C219 O217 1.214 . S
O220 Cd212 2.277 . S
O220 C215 1.209 . S
C221 O218 1.258 . S
C221 O223 1.282 . S
O222 Cd214 2.277 . S
O222 C215 1.226 . S
O223 Cd214 2.356 . S
O223 C221 1.282 . S
H224 C230 0.930 . S
H225 C234 0.930 . S
H226 C239 0.929 . S
H227 C237 0.929 . S
H228 C232 0.929 . S
H229 C238 0.929 . S
C230 H224 0.930 . S
C230 C231 1.367 . S
C230 C238 1.378 . S
C231 C230 1.367 . S
C231 C239 1.433 . S
C232 H228 0.929 . S
C232 C234 1.378 . S
C232 C236 1.350 . S
C233 C236 1.463 . S
C233 C238 1.350 . S
C233 N241 1.427 . S
C234 H225 0.930 . S
C234 C232 1.378 . S
C234 C235 1.367 . S
C235 C234 1.367 . S
C235 C237 1.433 . S
C236 C232 1.350 . S
C236 C233 1.463 . S
C236 N240 1.427 . S
C237 H227 0.929 . S
C237 C235 1.433 . S
C237 N240 1.384 . S
C238 H229 0.929 . S
C238 C230 1.378 . S
C238 C233 1.350 . S
C239 H226 0.929 . S
C239 C231 1.433 . S
C239 N241 1.384 . S
N240 C236 1.427 . S
N240 C237 1.384 . S
N241 C233 1.427 . S
N241 C239 1.384 . S
H242 C248 0.930 . S
H243 C252 0.930 . S
H244 C257 0.929 . S
H245 C255 0.929 . S
H246 C250 0.929 . S
H247 C256 0.929 . S
C248 H242 0.930 . S
C248 C249 1.367 . S
C248 C256 1.378 . S
C249 C248 1.367 . S
C249 C257 1.433 . S
C250 H246 0.929 . S
C250 C252 1.378 . S
C250 C254 1.350 . S
C251 C254 1.463 . S
C251 C256 1.350 . S
C251 N259 1.427 . S
C252 H243 0.930 . S
C252 C250 1.378 . S
C252 C253 1.367 . S
C253 C252 1.367 . S
C253 C255 1.433 . S
C254 C250 1.350 . S
C254 C251 1.463 . S
C254 N258 1.427 . S
C255 H245 0.929 . S
C255 C253 1.433 . S
C255 N258 1.384 . S
C256 H247 0.929 . S
C256 C248 1.378 . S
C256 C251 1.350 . S
C257 H244 0.929 . S
C257 C249 1.433 . S
C257 N259 1.384 . S
N258 C254 1.427 . S
N258 C255 1.384 . S
N259 C251 1.427 . S
N259 C257 1.384 . S
H260 C266 0.930 . S
H261 C270 0.930 . S
H262 C275 0.929 . S
H263 C273 0.929 . S
H264 C268 0.929 . S
H265 C274 0.929 . S
C266 H260 0.930 . S
C266 C267 1.367 . S
C266 C274 1.378 . S
C267 C266 1.367 . S
C267 C275 1.433 . S
C268 H264 0.929 . S
C268 C270 1.378 . S
C268 C272 1.350 . S
C269 C272 1.463 . S
C269 C274 1.350 . S
C269 N277 1.427 . S
C270 H261 0.930 . S
C270 C268 1.378 . S
C270 C271 1.367 . S
C271 C270 1.367 . S
C271 C273 1.433 . S
C272 C268 1.350 . S
C272 C269 1.463 . S
C272 N276 1.427 . S
C273 H263 0.929 . S
C273 C271 1.433 . S
C273 N276 1.384 . S
C274 H265 0.929 . S
C274 C266 1.378 . S
C274 C269 1.350 . S
C275 H262 0.929 . S
C275 C267 1.433 . S
C275 N277 1.384 . S
N276 C272 1.427 . S
N276 C273 1.384 . S
N277 C269 1.427 . S
N277 C275 1.384 . S
H278 C284 0.930 . S
H279 C288 0.930 . S
H280 C293 0.929 . S
H281 C291 0.929 . S
H282 C286 0.929 . S
H283 C292 0.929 . S
C284 H278 0.930 . S
C284 C285 1.367 . S
C284 C292 1.378 . S
C285 C284 1.367 . S
C285 C293 1.433 . S
C286 H282 0.929 . S
C286 C288 1.378 . S
C286 C290 1.350 . S
C287 C290 1.463 . S
C287 C292 1.350 . S
C287 N295 1.427 . S
C288 H279 0.930 . S
C288 C286 1.378 . S
C288 C289 1.367 . S
C289 C288 1.367 . S
C289 C291 1.433 . S
C290 C286 1.350 . S
C290 C287 1.463 . S
C290 N294 1.427 . S
C291 H281 0.929 . S
C291 C289 1.433 . S
C291 N294 1.384 . S
C292 H283 0.929 . S
C292 C284 1.378 . S
C292 C287 1.350 . S
C293 H280 0.929 . S
C293 C285 1.433 . S
C293 N295 1.384 . S
N294 C290 1.427 . S
N294 C291 1.384 . S
N295 C287 1.427 . S
N295 C293 1.384 . S
H296 C302 0.930 . S
H297 C306 0.930 . S
H298 C311 0.929 . S
H299 C309 0.929 . S
H300 C304 0.929 . S
H301 C310 0.929 . S
C302 H296 0.930 . S
C302 C303 1.367 . S
C302 C310 1.378 . S
C303 C302 1.367 . S
C303 C311 1.433 . S
C304 H300 0.929 . S
C304 C306 1.378 . S
C304 C308 1.350 . S
C305 C308 1.463 . S
C305 C310 1.350 . S
C305 N313 1.427 . S
C306 H297 0.930 . S
C306 C304 1.378 . S
C306 C307 1.367 . S
C307 C306 1.367 . S
C307 C309 1.433 . S
C308 C304 1.350 . S
C308 C305 1.463 . S
C308 N312 1.427 . S
C309 H299 0.929 . S
C309 C307 1.433 . S
C309 N312 1.384 . S
C310 H301 0.929 . S
C310 C302 1.378 . S
C310 C305 1.350 . S
C311 H298 0.929 . S
C311 C303 1.433 . S
C311 N313 1.384 . S
N312 C308 1.427 . S
N312 C309 1.384 . S
N313 C305 1.427 . S
N313 C311 1.384 . S
H314 C320 0.930 . S
H315 C324 0.930 . S
H316 C329 0.929 . S
H317 C327 0.929 . S
H318 C322 0.929 . S
H319 C328 0.929 . S
C320 H314 0.930 . S
C320 C321 1.367 . S
C320 C328 1.378 . S
C321 C320 1.367 . S
C321 C329 1.433 . S
C322 H318 0.929 . S
C322 C324 1.378 . S
C322 C326 1.350 . S
C323 C326 1.463 . S
C323 C328 1.350 . S
C323 N331 1.427 . S
C324 H315 0.930 . S
C324 C322 1.378 . S
C324 C325 1.367 . S
C325 C324 1.367 . S
C325 C327 1.433 . S
C326 C322 1.350 . S
C326 C323 1.463 . S
C326 N330 1.427 . S
C327 H317 0.929 . S
C327 C325 1.433 . S
C327 N330 1.384 . S
C328 H319 0.929 . S
C328 C320 1.378 . S
C328 C323 1.350 . S
C329 H316 0.929 . S
C329 C321 1.433 . S
C329 N331 1.384 . S
N330 C326 1.427 . S
N330 C327 1.384 . S
N331 C323 1.427 . S
N331 C329 1.384 . S
H332 C338 0.930 . S
H333 C342 0.930 . S
H334 C347 0.929 . S
H335 C345 0.929 . S
H336 C340 0.929 . S
H337 C346 0.929 . S
C338 H332 0.930 . S
C338 C339 1.367 . S
C338 C346 1.378 . S
C339 C338 1.367 . S
C339 C347 1.433 . S
C340 H336 0.929 . S
C340 C342 1.378 . S
C340 C344 1.350 . S
C341 C344 1.463 . S
C341 C346 1.350 . S
C341 N349 1.427 . S
C342 H333 0.930 . S
C342 C340 1.378 . S
C342 C343 1.367 . S
C343 C342 1.367 . S
C343 C345 1.433 . S
C344 C340 1.350 . S
C344 C341 1.463 . S
C344 N348 1.427 . S
C345 H335 0.929 . S
C345 C343 1.433 . S
C345 N348 1.384 . S
C346 H337 0.929 . S
C346 C338 1.378 . S
C346 C341 1.350 . S
C347 H334 0.929 . S
C347 C339 1.433 . S
C347 N349 1.384 . S
N348 C344 1.427 . S
N348 C345 1.384 . S
N349 C341 1.427 . S
N349 C347 1.384 . S
H350 C356 0.930 . S
H351 C360 0.930 . S
H352 C365 0.929 . S
H353 C363 0.929 . S
H354 C358 0.929 . S
H355 C364 0.929 . S
C356 H350 0.930 . S
C356 C357 1.367 . S
C356 C364 1.378 . S
C357 C356 1.367 . S
C357 C365 1.433 . S
C358 H354 0.929 . S
C358 C360 1.378 . S
C358 C362 1.350 . S
C359 C362 1.463 . S
C359 C364 1.350 . S
C359 N367 1.427 . S
C360 H351 0.930 . S
C360 C358 1.378 . S
C360 C361 1.367 . S
C361 C360 1.367 . S
C361 C363 1.433 . S
C362 C358 1.350 . S
C362 C359 1.463 . S
C362 N366 1.427 . S
C363 H353 0.929 . S
C363 C361 1.433 . S
C363 N366 1.384 . S
C364 H355 0.929 . S
C364 C356 1.378 . S
C364 C359 1.350 . S
C365 H352 0.929 . S
C365 C357 1.433 . S
C365 N367 1.384 . S
N366 C362 1.427 . S
N366 C363 1.384 . S
N367 C359 1.427 . S
N367 C365 1.384 . S
H368 C374 0.930 . S
H369 C378 0.930 . S
H370 C383 0.929 . S
H371 C381 0.929 . S
H372 C376 0.929 . S
H373 C382 0.929 . S
C374 H368 0.930 . S
C374 C375 1.367 . S
C374 C382 1.378 . S
C375 C374 1.367 . S
C375 C383 1.433 . S
C376 H372 0.929 . S
C376 C378 1.378 . S
C376 C380 1.350 . S
C377 C380 1.463 . S
C377 C382 1.350 . S
C377 N385 1.427 . S
C378 H369 0.930 . S
C378 C376 1.378 . S
C378 C379 1.367 . S
C379 C378 1.367 . S
C379 C381 1.433 . S
C380 C376 1.350 . S
C380 C377 1.463 . S
C380 N384 1.427 . S
C381 H371 0.929 . S
C381 C379 1.433 . S
C381 N384 1.384 . S
C382 H373 0.929 . S
C382 C374 1.378 . S
C382 C377 1.350 . S
C383 H370 0.929 . S
C383 C375 1.433 . S
C383 N385 1.384 . S
N384 C380 1.427 . S
N384 C381 1.384 . S
N385 C377 1.427 . S
N385 C383 1.384 . S
H386 C392 0.930 . S
H387 C396 0.930 . S
H388 C401 0.929 . S
H389 C399 0.929 . S
H390 C394 0.929 . S
H391 C400 0.929 . S
C392 H386 0.930 . S
C392 C393 1.367 . S
C392 C400 1.378 . S
C393 C392 1.367 . S
C393 C401 1.433 . S
C394 H390 0.929 . S
C394 C396 1.378 . S
C394 C398 1.350 . S
C395 C398 1.463 . S
C395 C400 1.350 . S
C395 N403 1.427 . S
C396 H387 0.930 . S
C396 C394 1.378 . S
C396 C397 1.367 . S
C397 C396 1.367 . S
C397 C399 1.433 . S
C398 C394 1.350 . S
C398 C395 1.463 . S
C398 N402 1.427 . S
C399 H389 0.929 . S
C399 C397 1.433 . S
C399 N402 1.384 . S
C400 H391 0.929 . S
C400 C392 1.378 . S
C400 C395 1.350 . S
C401 H388 0.929 . S
C401 C393 1.433 . S
C401 N403 1.384 . S
N402 C398 1.427 . S
N402 C399 1.384 . S
N403 C395 1.427 . S
N403 C401 1.384 . S
H404 C410 0.930 . S
H405 C414 0.930 . S
H406 C419 0.929 . S
H407 C417 0.929 . S
H408 C412 0.929 . S
H409 C418 0.929 . S
C410 H404 0.930 . S
C410 C411 1.367 . S
C410 C418 1.378 . S
C411 C410 1.367 . S
C411 C419 1.433 . S
C412 H408 0.929 . S
C412 C414 1.378 . S
C412 C416 1.350 . S
C413 C416 1.463 . S
C413 C418 1.350 . S
C413 N421 1.427 . S
C414 H405 0.930 . S
C414 C412 1.378 . S
C414 C415 1.367 . S
C415 C414 1.367 . S
C415 C417 1.433 . S
C416 C412 1.350 . S
C416 C413 1.463 . S
C416 N420 1.427 . S
C417 H407 0.929 . S
C417 C415 1.433 . S
C417 N420 1.384 . S
C418 H409 0.929 . S
C418 C410 1.378 . S
C418 C413 1.350 . S
C419 H406 0.929 . S
C419 C411 1.433 . S
C419 N421 1.384 . S
N420 C416 1.427 . S
N420 C417 1.384 . S
N421 C413 1.427 . S
N421 C419 1.384 . S
H422 C428 0.930 . S
H423 C432 0.930 . S
H424 C437 0.929 . S
H425 C435 0.929 . S
H426 C430 0.929 . S
H427 C436 0.929 . S
C428 H422 0.930 . S
C428 C429 1.367 . S
C428 C436 1.378 . S
C429 C428 1.367 . S
C429 C437 1.433 . S
C430 H426 0.929 . S
C430 C432 1.378 . S
C430 C434 1.350 . S
C431 C434 1.463 1_554 S
C431 C436 1.350 . S
C431 N439 1.427 . S
C432 H423 0.930 . S
C432 C430 1.378 . S
C432 C433 1.367 . S
C433 C432 1.367 . S
C433 C435 1.433 . S
C434 C430 1.350 . S
C434 C431 1.463 1_556 S
C434 N438 1.427 . S
C435 H425 0.929 . S
C435 C433 1.433 . S
C435 N438 1.384 . S
C436 H427 0.929 . S
C436 C428 1.378 . S
C436 C431 1.350 . S
C437 H424 0.929 . S
C437 C429 1.433 . S
C437 N439 1.384 . S
N438 C434 1.427 . S
N438 C435 1.384 . S
N439 C431 1.427 . S
N439 C437 1.384 . S
H440 C446 0.930 . S
H441 C450 0.930 . S
H442 C455 0.929 . S
H443 C453 0.929 . S
H444 C448 0.929 . S
H445 C454 0.929 . S
C446 H440 0.930 . S
C446 C447 1.367 . S
C446 C454 1.378 . S
C447 C446 1.367 . S
C447 C455 1.433 . S
C448 H444 0.929 . S
C448 C450 1.378 . S
C448 C452 1.350 . S
C449 C452 1.463 1_554 S
C449 C454 1.350 . S
C449 N457 1.427 . S
C450 H441 0.930 . S
C450 C448 1.378 . S
C450 C451 1.367 . S
C451 C450 1.367 . S
C451 C453 1.433 . S
C452 C448 1.350 . S
C452 C449 1.463 1_556 S
C452 N456 1.427 . S
C453 H443 0.929 . S
C453 C451 1.433 . S
C453 N456 1.384 . S
C454 H445 0.929 . S
C454 C446 1.378 . S
C454 C449 1.350 . S
C455 H442 0.929 . S
C455 C447 1.433 . S
C455 N457 1.384 . S
N456 C452 1.427 . S
N456 C453 1.384 . S
N457 C449 1.427 . S
N457 C455 1.384 . S
H458 C464 0.930 . S
H459 C468 0.930 . S
H460 C473 0.929 . S
H461 C471 0.929 . S
H462 C466 0.929 . S
H463 C472 0.929 . S
C464 H458 0.930 . S
C464 C465 1.367 . S
C464 C472 1.378 . S
C465 C464 1.367 . S
C465 C473 1.433 . S
C466 H462 0.929 . S
C466 C468 1.378 . S
C466 C470 1.350 . S
C467 C470 1.463 . S
C467 C472 1.350 . S
C467 N475 1.427 . S
C468 H459 0.930 . S
C468 C466 1.378 . S
C468 C469 1.367 . S
C469 C468 1.367 . S
C469 C471 1.433 . S
C470 C466 1.350 . S
C470 C467 1.463 . S
C470 N474 1.427 . S
C471 H461 0.929 . S
C471 C469 1.433 . S
C471 N474 1.384 . S
C472 H463 0.929 . S
C472 C464 1.378 . S
C472 C467 1.350 . S
C473 H460 0.929 . S
C473 C465 1.433 . S
C473 N475 1.384 . S
N474 C470 1.427 . S
N474 C471 1.384 . S
N475 C467 1.427 . S
N475 C473 1.384 . S
H476 C482 0.930 . S
H477 C486 0.930 . S
H478 C491 0.929 . S
H479 C489 0.929 . S
H480 C484 0.929 . S
H481 C490 0.929 . S
C482 H476 0.930 . S
C482 C483 1.367 . S
C482 C490 1.378 . S
C483 C482 1.367 . S
C483 C491 1.433 . S
C484 H480 0.929 . S
C484 C486 1.378 . S
C484 C488 1.350 . S
C485 C488 1.463 . S
C485 C490 1.350 . S
C485 N493 1.427 . S
C486 H477 0.930 . S
C486 C484 1.378 . S
C486 C487 1.367 . S
C487 C486 1.367 . S
C487 C489 1.433 . S
C488 C484 1.350 . S
C488 C485 1.463 . S
C488 N492 1.427 . S
C489 H479 0.929 . S
C489 C487 1.433 . S
C489 N492 1.384 . S
C490 H481 0.929 . S
C490 C482 1.378 . S
C490 C485 1.350 . S
C491 H478 0.929 . S
C491 C483 1.433 . S
C491 N493 1.384 . S
N492 C488 1.427 . S
N492 C489 1.384 . S
N493 C485 1.427 . S
N493 C491 1.384 . S
H494 C500 0.930 . S
H495 C504 0.930 . S
H496 C509 0.929 . S
H497 C507 0.929 . S
H498 C502 0.929 . S
H499 C508 0.929 . S
C500 H494 0.930 . S
C500 C501 1.367 . S
C500 C508 1.378 . S
C501 C500 1.367 . S
C501 C509 1.433 . S
C502 H498 0.929 . S
C502 C504 1.378 . S
C502 C506 1.350 . S
C503 C506 1.463 . S
C503 C508 1.350 . S
C503 N511 1.427 . S
C504 H495 0.930 . S
C504 C502 1.378 . S
C504 C505 1.367 . S
C505 C504 1.367 . S
C505 C507 1.433 . S
C506 C502 1.350 . S
C506 C503 1.463 . S
C506 N510 1.427 . S
C507 H497 0.929 . S
C507 C505 1.433 . S
C507 N510 1.384 . S
C508 H499 0.929 . S
C508 C500 1.378 . S
C508 C503 1.350 . S
C509 H496 0.929 . S
C509 C501 1.433 . S
C509 N511 1.384 . S
N510 C506 1.427 . S
N510 C507 1.384 . S
N511 C503 1.427 . S
N511 C509 1.384 . S
H512 C518 0.930 . S
H513 C522 0.930 . S
H514 C527 0.929 . S
H515 C525 0.929 . S
H516 C520 0.929 . S
H517 C526 0.929 . S
C518 H512 0.930 . S
C518 C519 1.367 . S
C518 C526 1.378 . S
C519 C518 1.367 . S
C519 C527 1.433 . S
C520 H516 0.929 . S
C520 C522 1.378 . S
C520 C524 1.350 . S
C521 C524 1.463 1_445 S
C521 C526 1.350 . S
C521 N529 1.427 . S
C522 H513 0.930 . S
C522 C520 1.378 . S
C522 C523 1.367 . S
C523 C522 1.367 . S
C523 C525 1.433 . S
C524 C520 1.350 . S
C524 C521 1.463 1_665 S
C524 N528 1.427 . S
C525 H515 0.929 . S
C525 C523 1.433 . S
C525 N528 1.384 . S
C526 H517 0.929 . S
C526 C518 1.378 . S
C526 C521 1.350 . S
C527 H514 0.929 . S
C527 C519 1.433 . S
C527 N529 1.384 . S
N528 C524 1.427 . S
N528 C525 1.384 . S
N529 C521 1.427 . S
N529 C527 1.384 . S
H530 C536 0.930 . S
H531 C540 0.930 . S
H532 C545 0.929 1_655 S
H533 C543 0.929 1_455 S
H534 C538 0.929 . S
H535 C544 0.929 . S
C536 H530 0.930 . S
C536 C537 1.367 . S
C536 C544 1.378 . S
C537 C536 1.367 . S
C537 C545 1.433 . S
C538 H534 0.929 . S
C538 C540 1.378 . S
C538 C542 1.350 . S
C539 C542 1.463 1_455 S
C539 C544 1.350 . S
C539 N547 1.427 1_455 S
C540 H531 0.930 . S
C540 C538 1.378 . S
C540 C541 1.367 . S
C541 C540 1.367 . S
C541 C543 1.433 . S
C542 C538 1.350 . S
C542 C539 1.463 1_655 S
C542 N546 1.427 1_655 S
C543 H533 0.929 1_655 S
C543 C541 1.433 . S
C543 N546 1.384 1_655 S
C544 H535 0.929 . S
C544 C536 1.378 . S
C544 C539 1.350 . S
C545 H532 0.929 1_455 S
C545 C537 1.433 . S
C545 N547 1.384 1_455 S
N546 C542 1.427 1_455 S
N546 C543 1.384 1_455 S
N547 C539 1.427 1_655 S
N547 C545 1.384 1_655 S
H548 C554 0.930 . S
H549 C558 0.930 . S
H550 C563 0.929 . S
H551 C561 0.929 . S
H552 C556 0.929 . S
H553 C562 0.929 . S
C554 H548 0.930 . S
C554 C555 1.367 . S
C554 C562 1.378 . S
C555 C554 1.367 . S
C555 C563 1.433 . S
C556 H552 0.929 . S
C556 C558 1.378 . S
C556 C560 1.350 . S
C557 C560 1.463 . S
C557 C562 1.350 . S
C557 N565 1.427 . S
C558 H549 0.930 . S
C558 C556 1.378 . S
C558 C559 1.367 . S
C559 C558 1.367 . S
C559 C561 1.433 . S
C560 C556 1.350 . S
C560 C557 1.463 . S
C560 N564 1.427 . S
C561 H551 0.929 . S
C561 C559 1.433 . S
C561 N564 1.384 . S
C562 H553 0.929 . S
C562 C554 1.378 . S
C562 C557 1.350 . S
C563 H550 0.929 . S
C563 C555 1.433 . S
C563 N565 1.384 . S
N564 C560 1.427 . S
N564 C561 1.384 . S
N565 C557 1.427 . S
N565 C563 1.384 . S
H566 C572 0.930 . S
H567 C576 0.930 . S
H568 C581 0.929 . S
H569 C579 0.929 . S
H570 C574 0.929 . S
H571 C580 0.929 . S
C572 H566 0.930 . S
C572 C573 1.367 . S
C572 C580 1.378 . S
C573 C572 1.367 . S
C573 C581 1.433 . S
C574 H570 0.929 . S
C574 C576 1.378 . S
C574 C578 1.350 . S
C575 C578 1.463 1_545 S
C575 C580 1.350 . S
C575 N583 1.427 . S
C576 H567 0.930 . S
C576 C574 1.378 . S
C576 C577 1.367 . S
C577 C576 1.367 . S
C577 C579 1.433 . S
C578 C574 1.350 . S
C578 C575 1.463 1_565 S
C578 N582 1.427 . S
C579 H569 0.929 . S
C579 C577 1.433 . S
C579 N582 1.384 . S
C580 H571 0.929 . S
C580 C572 1.378 . S
C580 C575 1.350 . S
C581 H568 0.929 . S
C581 C573 1.433 . S
C581 N583 1.384 . S
N582 C578 1.427 . S
N582 C579 1.384 . S
N583 C575 1.427 . S
N583 C581 1.384 . S
H584 C590 0.930 . S
H585 C594 0.930 . S
H586 C599 0.929 . S
H587 C597 0.929 . S
H588 C592 0.929 . S
H589 C598 0.929 . S
C590 H584 0.930 . S
C590 C591 1.367 . S
C590 C598 1.378 . S
C591 C590 1.367 . S
C591 C599 1.433 . S
C592 H588 0.929 . S
C592 C594 1.378 . S
C592 C596 1.350 . S
C593 C596 1.463 1_455 S
C593 C598 1.350 . S
C593 N601 1.427 . S
C594 H585 0.930 . S
C594 C592 1.378 . S
C594 C595 1.367 . S
C595 C594 1.367 . S
C595 C597 1.433 . S
C596 C592 1.350 . S
C596 C593 1.463 1_655 S
C596 N600 1.427 . S
C597 H587 0.929 . S
C597 C595 1.433 . S
C597 N600 1.384 . S
C598 H589 0.929 . S
C598 C590 1.378 . S
C598 C593 1.350 . S
C599 H586 0.929 . S
C599 C591 1.433 . S
C599 N601 1.384 . S
N600 C596 1.427 . S
N600 C597 1.384 . S
N601 C593 1.427 . S
N601 C599 1.384 . S
H602 C608 0.930 . S
H603 C612 0.930 . S
H604 C617 0.929 . S
H605 C615 0.929 . S
H606 C610 0.929 . S
H607 C616 0.929 . S
C608 H602 0.930 . S
C608 C609 1.367 . S
C608 C616 1.378 . S
C609 C608 1.367 . S
C609 C617 1.433 . S
C610 H606 0.929 . S
C610 C612 1.378 . S
C610 C614 1.350 . S
C611 C614 1.463 . S
C611 C616 1.350 . S
C611 N619 1.427 . S
C612 H603 0.930 . S
C612 C610 1.378 . S
C612 C613 1.367 . S
C613 C612 1.367 . S
C613 C615 1.433 . S
C614 C610 1.350 . S
C614 C611 1.463 . S
C614 N618 1.427 . S
C615 H605 0.929 . S
C615 C613 1.433 . S
C615 N618 1.384 . S
C616 H607 0.929 . S
C616 C608 1.378 . S
C616 C611 1.350 . S
C617 H604 0.929 . S
C617 C609 1.433 . S
C617 N619 1.384 . S
N618 C614 1.427 . S
N618 C615 1.384 . S
N619 C611 1.427 . S
N619 C617 1.384 . S
H620 C626 0.930 . S
H621 C630 0.930 . S
H622 C635 0.929 . S
H623 C633 0.929 . S
H624 C628 0.929 . S
H625 C634 0.929 . S
C626 H620 0.930 . S
C626 C627 1.367 . S
C626 C634 1.378 . S
C627 C626 1.367 . S
C627 C635 1.433 . S
C628 H624 0.929 . S
C628 C630 1.378 . S
C628 C632 1.350 . S
C629 C632 1.463 1_565 S
C629 C634 1.350 . S
C629 N637 1.427 . S
C630 H621 0.930 . S
C630 C628 1.378 . S
C630 C631 1.367 . S
C631 C630 1.367 . S
C631 C633 1.433 . S
C632 C628 1.350 . S
C632 C629 1.463 1_545 S
C632 N636 1.427 . S
C633 H623 0.929 . S
C633 C631 1.433 . S
C633 N636 1.384 . S
C634 H625 0.929 . S
C634 C626 1.378 . S
C634 C629 1.350 . S
C635 H622 0.929 . S
C635 C627 1.433 . S
C635 N637 1.384 . S
N636 C632 1.427 . S
N636 C633 1.384 . S
N637 C629 1.427 . S
N637 C635 1.384 . S
H638 C644 0.930 . S
H639 C648 0.930 . S
H640 C653 0.929 . S
H641 C651 0.929 . S
H642 C646 0.929 . S
H643 C652 0.929 . S
C644 H638 0.930 . S
C644 C645 1.367 . S
C644 C652 1.378 . S
C645 C644 1.367 . S
C645 C653 1.433 . S
C646 H642 0.929 . S
C646 C648 1.378 . S
C646 C650 1.350 . S
C647 C650 1.463 1_445 S
C647 C652 1.350 . S
C647 N655 1.427 . S
C648 H639 0.930 . S
C648 C646 1.378 . S
C648 C649 1.367 . S
C649 C648 1.367 . S
C649 C651 1.433 . S
C650 C646 1.350 . S
C650 C647 1.463 1_665 S
C650 N654 1.427 . S
C651 H641 0.929 . S
C651 C649 1.433 . S
C651 N654 1.384 . S
C652 H643 0.929 . S
C652 C644 1.378 . S
C652 C647 1.350 . S
C653 H640 0.929 . S
C653 C645 1.433 . S
C653 N655 1.384 . S
N654 C650 1.427 . S
N654 C651 1.384 . S
N655 C647 1.427 . S
N655 C653 1.384 . S
H656 C662 0.930 . S
H657 C666 0.930 . S
H658 C671 0.929 . S
H659 C669 0.929 . S
H660 C664 0.929 . S
H661 C670 0.929 . S
C662 H656 0.930 . S
C662 C663 1.367 . S
C662 C670 1.378 . S
C663 C662 1.367 . S
C663 C671 1.433 . S
C664 H660 0.929 . S
C664 C666 1.378 . S
C664 C668 1.350 . S
C665 C668 1.463 1_565 S
C665 C670 1.350 . S
C665 N673 1.427 1_565 S
C666 H657 0.930 . S
C666 C664 1.378 . S
C666 C667 1.367 . S
C667 C666 1.367 . S
C667 C669 1.433 . S
C668 C664 1.350 . S
C668 C665 1.463 1_545 S
C668 N672 1.427 1_545 S
C669 H659 0.929 . S
C669 C667 1.433 . S
C669 N672 1.384 1_545 S
C670 H661 0.929 . S
C670 C662 1.378 . S
C670 C665 1.350 . S
C671 H658 0.929 . S
C671 C663 1.433 . S
C671 N673 1.384 1_565 S
N672 C668 1.427 1_565 S
N672 C669 1.384 1_565 S
N673 C665 1.427 1_545 S
N673 C671 1.384 1_545 S
H674 C680 0.930 . S
H675 C684 0.930 . S
H676 C689 0.929 . S
H677 C687 0.929 . S
H678 C682 0.923 1_655 S
H679 C688 0.923 1_455 S
C680 H674 0.930 . S
C680 C681 1.367 . S
C680 C688 1.382 . S
C681 C680 1.367 . S
C681 C689 1.433 . S
C682 H678 0.923 1_455 S
C682 C684 1.382 . S
C682 C686 1.352 . S
C683 C686 1.463 1_665 S
C683 C688 1.352 . S
C683 N691 1.427 . S
C684 H675 0.930 . S
C684 C682 1.382 . S
C684 C685 1.367 . S
C685 C684 1.367 . S
C685 C687 1.433 . S
C686 C682 1.352 . S
C686 C683 1.463 1_445 S
C686 N690 1.427 . S
C687 H677 0.929 . S
C687 C685 1.433 . S
C687 N690 1.384 . S
C688 H679 0.923 1_655 S
C688 C680 1.382 . S
C688 C683 1.352 . S
C689 H676 0.929 . S
C689 C681 1.433 . S
C689 N691 1.384 . S
N690 C686 1.427 . S
N690 C687 1.384 . S
N691 C683 1.427 . S
N691 C689 1.384 . S
H692 C698 0.930 . S
H693 C702 0.930 . S
H694 C707 0.929 . S
H695 C705 0.929 . S
H696 C700 0.929 . S
H697 C706 0.929 . S
C698 H692 0.930 . S
C698 C699 1.367 . S
C698 C706 1.378 . S
C699 C698 1.367 . S
C699 C707 1.433 . S
C700 H696 0.929 . S
C700 C702 1.378 . S
C700 C704 1.350 . S
C701 C704 1.463 1_455 S
C701 C706 1.350 . S
C701 N709 1.427 . S
C702 H693 0.930 . S
C702 C700 1.378 . S
C702 C703 1.367 . S
C703 C702 1.367 . S
C703 C705 1.433 . S
C704 C700 1.350 . S
C704 C701 1.463 1_655 S
C704 N708 1.427 . S
C705 H695 0.929 . S
C705 C703 1.433 . S
C705 N708 1.384 . S
C706 H697 0.929 . S
C706 C698 1.378 . S
C706 C701 1.350 . S
C707 H694 0.929 . S
C707 C699 1.433 . S
C707 N709 1.384 . S
N708 C704 1.427 . S
N708 C705 1.384 . S
N709 C701 1.427 . S
N709 C707 1.384 . S
H710 C716 0.930 . S
H711 C720 0.930 . S
H712 C725 0.929 . S
H713 C723 0.929 . S
H714 C718 0.929 . S
H715 C724 0.929 . S
C716 H710 0.930 . S
C716 C717 1.367 . S
C716 C724 1.378 . S
C717 C716 1.367 . S
C717 C725 1.433 . S
C718 H714 0.929 . S
C718 C720 1.378 . S
C718 C722 1.350 . S
C719 C722 1.463 . S
C719 C724 1.350 . S
C719 N727 1.427 . S
C720 H711 0.930 . S
C720 C718 1.378 . S
C720 C721 1.367 . S
C721 C720 1.367 . S
C721 C723 1.433 . S
C722 C718 1.350 . S
C722 C719 1.463 . S
C722 N726 1.427 . S
C723 H713 0.929 . S
C723 C721 1.433 . S
C723 N726 1.384 . S
C724 H715 0.929 . S
C724 C716 1.378 . S
C724 C719 1.350 . S
C725 H712 0.929 . S
C725 C717 1.433 . S
C725 N727 1.384 . S
N726 C722 1.427 . S
N726 C723 1.384 . S
N727 C719 1.427 . S
N727 C725 1.384 . S
H728 C734 0.930 . S
H729 C738 0.930 . S
H730 C743 0.929 . S
H731 C741 0.929 . S
H732 C736 0.929 . S
H733 C742 0.929 . S
C734 H728 0.930 . S
C734 C735 1.367 . S
C734 C742 1.378 . S
C735 C734 1.367 . S
C735 C743 1.433 . S
C736 H732 0.929 . S
C736 C738 1.378 . S
C736 C740 1.350 . S
C737 C740 1.463 . S
C737 C742 1.350 . S
C737 N745 1.427 . S
C738 H729 0.930 . S
C738 C736 1.378 . S
C738 C739 1.367 . S
C739 C738 1.367 . S
C739 C741 1.433 . S
C740 C736 1.350 . S
C740 C737 1.463 . S
C740 N744 1.427 . S
C741 H731 0.929 . S
C741 C739 1.433 . S
C741 N744 1.384 . S
C742 H733 0.929 . S
C742 C734 1.378 . S
C742 C737 1.350 . S
C743 H730 0.929 . S
C743 C735 1.433 . S
C743 N745 1.384 . S
N744 C740 1.427 . S
N744 C741 1.384 . S
N745 C737 1.427 . S
N745 C743 1.384 . S
H746 C752 0.930 . S
H747 C756 0.930 . S
H748 C761 0.929 . S
H749 C759 0.929 . S
H750 C754 0.929 . S
H751 C760 0.929 . S
C752 H746 0.930 . S
C752 C753 1.367 . S
C752 C760 1.378 . S
C753 C752 1.367 . S
C753 C761 1.433 . S
C754 H750 0.929 . S
C754 C756 1.378 . S
C754 C758 1.350 . S
C755 C758 1.463 1_545 S
C755 C760 1.350 . S
C755 N763 1.427 . S
C756 H747 0.930 . S
C756 C754 1.378 . S
C756 C757 1.367 . S
C757 C756 1.367 . S
C757 C759 1.433 . S
C758 C754 1.350 . S
C758 C755 1.463 1_565 S
C758 N762 1.427 . S
C759 H749 0.929 . S
C759 C757 1.433 . S
C759 N762 1.384 . S
C760 H751 0.929 . S
C760 C752 1.378 . S
C760 C755 1.350 . S
C761 H748 0.929 . S
C761 C753 1.433 . S
C761 N763 1.384 . S
N762 C758 1.427 . S
N762 C759 1.384 . S
N763 C755 1.427 . S
N763 C761 1.384 . S
H764 C770 0.930 1_545 S
H765 C774 0.930 1_565 S
H766 C779 0.929 . S
H767 C777 0.929 . S
H768 C772 0.929 . S
H769 C778 0.929 . S
C770 H764 0.930 1_565 S
C770 C771 1.367 . S
C770 C778 1.378 1_565 S
C771 C770 1.367 . S
C771 C779 1.433 . S
C772 H768 0.929 . S
C772 C774 1.378 1_565 S
C772 C776 1.350 1_565 S
C773 C776 1.463 1_665 S
C773 C778 1.350 1_565 S
C773 N781 1.427 . S
C774 H765 0.930 1_545 S
C774 C772 1.378 1_545 S
C774 C775 1.367 . S
C775 C774 1.367 . S
C775 C777 1.433 . S
C776 C772 1.350 1_545 S
C776 C773 1.463 1_445 S
C776 N780 1.427 . S
C777 H767 0.929 . S
C777 C775 1.433 . S
C777 N780 1.384 . S
C778 H769 0.929 . S
C778 C770 1.378 1_545 S
C778 C773 1.350 1_545 S
C779 H766 0.929 . S
C779 C771 1.433 . S
C779 N781 1.384 . S
N780 C776 1.427 . S
N780 C777 1.384 . S
N781 C773 1.427 . S
N781 C779 1.384 . S
H782 C788 0.930 . S
H783 C792 0.930 . S
H784 C797 0.929 . S
H785 C795 0.929 . S
H786 C790 0.929 . S
H787 C796 0.929 . S
C788 H782 0.930 . S
C788 C789 1.367 . S
C788 C796 1.378 . S
C789 C788 1.367 . S
C789 C797 1.433 . S
C790 H786 0.929 . S
C790 C792 1.378 . S
C790 C794 1.350 . S
C791 C794 1.463 1_655 S
C791 C796 1.350 . S
C791 N799 1.427 1_655 S
C792 H783 0.930 . S
C792 C790 1.378 . S
C792 C793 1.367 . S
C793 C792 1.367 . S
C793 C795 1.433 . S
C794 C790 1.350 . S
C794 C791 1.463 1_455 S
C794 N798 1.427 1_455 S
C795 H785 0.929 . S
C795 C793 1.433 . S
C795 N798 1.384 1_455 S
C796 H787 0.929 . S
C796 C788 1.378 . S
C796 C791 1.350 . S
C797 H784 0.929 . S
C797 C789 1.433 . S
C797 N799 1.384 1_655 S
N798 C794 1.427 1_655 S
N798 C795 1.384 1_655 S
N799 C791 1.427 1_455 S
N799 C797 1.384 1_455 S
C231 C65 1.348 . S
C235 C9 1.348 . S
C249 C23 1.346 . S
C253 C79 1.348 . S
C267 C93 1.342 . S
C271 C37 1.342 . S
C285 C107 1.346 . S
C289 C51 1.348 . S
C303 C177 1.342 . S
C307 C121 1.344 . S
C321 C135 1.347 . S
C325 C191 1.348 . S
C339 C205 1.341 . S
C343 C149 1.342 . S
C357 C163 1.346 . S
C361 C219 1.344 . S
C375 C0 1.403 . S
C379 C210 1.397 . S
C393 C14 1.399 . S
C397 C168 1.397 . S
C411 C28 1.402 . S
C415 C182 1.396 . S
C429 C196 1.399 . S
C433 C42 1.404 . S
C447 C56 1.397 . S
C451 C126 1.399 . S
C465 C70 1.402 . S
C469 C140 1.403 . S
C483 C154 1.403 . S
C487 C84 1.403 . S
C501 C112 1.396 . S
C505 C98 1.402 . S
C519 C11 1.591 . S
C523 C151 1.593 . S
C537 C165 1.593 . S
C541 C25 1.594 . S
C555 C39 1.594 . S
C559 C123 1.594 . S
C573 C137 1.590 . S
C577 C53 1.592 . S
C591 C67 1.591 . S
C595 C207 1.590 . S
C609 C81 1.590 . S
C613 C221 1.592 . S
C627 C179 1.592 . S
C631 C95 1.593 . S
C645 C193 1.590 . S
C649 C109 1.592 . S
C663 C145 1.405 . S
C667 C5 1.403 . S
C681 C19 1.403 . S
C685 C159 1.406 . S
C699 C33 1.403 . S
C703 C117 1.406 . S
C717 C131 1.405 . S
C721 C47 1.403 . S
C735 C201 1.404 . S
C739 C61 1.405 . S
C753 C215 1.405 . S
C757 C75 1.404 . S
C771 C173 1.404 . S
C775 C89 1.405 . S
C789 C103 1.403 . S
C793 C187 1.405 . S
