# Generated by pormake.
# Topology wjt, (5)-cn, num edge types: 1
# Building blocks:
#     Node 0, Type 0, BuildingBlock: XOMCOT_clean_sbu_1, # of connection points: 5
#     Node 1, Type 0, BuildingBlock: XOMCOT_clean_sbu_1, # of connection points: 5
#     Node 2, Type 0, BuildingBlock: XOMCOT_clean_sbu_1, # of connection points: 5
#     Node 3, Type 0, BuildingBlock: XOMCOT_clean_sbu_1, # of connection points: 5
#     Node 4, Type 0, BuildingBlock: XOMCOT_clean_sbu_1, # of connection points: 5
#     Node 5, Type 0, BuildingBlock: XOMCOT_clean_sbu_1, # of connection points: 5
#     Node 6, Type 0, BuildingBlock: XOMCOT_clean_sbu_1, # of connection points: 5
#     Node 7, Type 0, BuildingBlock: XOMCOT_clean_sbu_1, # of connection points: 5
#     Node 8, Type 0, BuildingBlock: XOMCOT_clean_sbu_1, # of connection points: 5
#     Node 9, Type 0, BuildingBlock: XOMCOT_clean_sbu_1, # of connection points: 5
#     Node 10, Type 0, BuildingBlock: XOMCOT_clean_sbu_1, # of connection points: 5
#     Node 11, Type 0, BuildingBlock: XOMCOT_clean_sbu_1, # of connection points: 5
#     Edge 12, Type (0, 0), BuildingBlock: AJUNOK_clean_linker_0, # of connection points: 2
#     Edge 13, Type (0, 0), BuildingBlock: AJUNOK_clean_linker_0, # of connection points: 2
#     Edge 14, Type (0, 0), BuildingBlock: AJUNOK_clean_linker_0, # of connection points: 2
#     Edge 15, Type (0, 0), BuildingBlock: AJUNOK_clean_linker_0, # of connection points: 2
#     Edge 16, Type (0, 0), BuildingBlock: AJUNOK_clean_linker_0, # of connection points: 2
#     Edge 17, Type (0, 0), BuildingBlock: AJUNOK_clean_linker_0, # of connection points: 2
#     Edge 18, Type (0, 0), BuildingBlock: AJUNOK_clean_linker_0, # of connection points: 2
#     Edge 19, Type (0, 0), BuildingBlock: AJUNOK_clean_linker_0, # of connection points: 2
#     Edge 20, Type (0, 0), BuildingBlock: AJUNOK_clean_linker_0, # of connection points: 2
#     Edge 21, Type (0, 0), BuildingBlock: AJUNOK_clean_linker_0, # of connection points: 2
#     Edge 22, Type (0, 0), BuildingBlock: AJUNOK_clean_linker_0, # of connection points: 2
#     Edge 23, Type (0, 0), BuildingBlock: AJUNOK_clean_linker_0, # of connection points: 2
#     Edge 24, Type (0, 0), BuildingBlock: AJUNOK_clean_linker_0, # of connection points: 2
#     Edge 25, Type (0, 0), BuildingBlock: AJUNOK_clean_linker_0, # of connection points: 2
#     Edge 26, Type (0, 0), BuildingBlock: AJUNOK_clean_linker_0, # of connection points: 2
#     Edge 27, Type (0, 0), BuildingBlock: AJUNOK_clean_linker_0, # of connection points: 2
#     Edge 28, Type (0, 0), BuildingBlock: AJUNOK_clean_linker_0, # of connection points: 2
#     Edge 29, Type (0, 0), BuildingBlock: AJUNOK_clean_linker_0, # of connection points: 2
#     Edge 30, Type (0, 0), BuildingBlock: AJUNOK_clean_linker_0, # of connection points: 2
#     Edge 31, Type (0, 0), BuildingBlock: AJUNOK_clean_linker_0, # of connection points: 2
#     Edge 32, Type (0, 0), BuildingBlock: AJUNOK_clean_linker_0, # of connection points: 2
#     Edge 33, Type (0, 0), BuildingBlock: AJUNOK_clean_linker_0, # of connection points: 2
#     Edge 34, Type (0, 0), BuildingBlock: AJUNOK_clean_linker_0, # of connection points: 2
#     Edge 35, Type (0, 0), BuildingBlock: AJUNOK_clean_linker_0, # of connection points: 2
#     Edge 36, Type (0, 0), BuildingBlock: AJUNOK_clean_linker_0, # of connection points: 2
#     Edge 37, Type (0, 0), BuildingBlock: AJUNOK_clean_linker_0, # of connection points: 2
#     Edge 38, Type (0, 0), BuildingBlock: AJUNOK_clean_linker_0, # of connection points: 2
#     Edge 39, Type (0, 0), BuildingBlock: AJUNOK_clean_linker_0, # of connection points: 2
#     Edge 40, Type (0, 0), BuildingBlock: AJUNOK_clean_linker_0, # of connection points: 2
#     Edge 41, Type (0, 0), BuildingBlock: AJUNOK_clean_linker_0, # of connection points: 2
# Relax obj value: 0.223
# Max RMSD: 0.166
# Mean RMSD: 0.166
data_MOF--net-wjt--node1-XOMCOT_clean_sbu_1--edge1-AJUNOK_clean_linker_0
_symmetry_space_group_name_H-M    P1
_symmetry_Int_Tables_number       1
_symmetry_cell_setting            triclinic
loop_
_symmetry_equiv_pos_as_xyz
'x, y, z'
_cell_length_a     51.111062
_cell_length_b     50.967791
_cell_length_c     13.319959
_cell_angle_alpha  90.056173
_cell_angle_beta   89.61008
_cell_angle_gamma 120.00964
loop_
_atom_site_label
_atom_site_type_symbol
_atom_site_fract_x
_atom_site_fract_y
_atom_site_fract_z
_atom_type_partial_charge
C0 C 0.28911 0.44718 0.34839 0.0
C1 C 0.28851 0.44785 0.4515 0.0
N2 N 0.29662 0.42819 0.48665 0.0
N3 N 0.29717 0.4269 0.31884 0.0
C4 C 0.30099 0.41529 0.40471 0.0
H5 H 0.28662 0.46244 0.29816 0.0
Co6 Co 0.31251 0.42815 0.19223 0.0
C7 C 0.31045 0.36887 0.24962 0.0
O8 O 0.2813 0.35212 0.26693 0.0
N9 N 0.32872 0.43054 0.06351 0.0
C10 C 0.35969 0.44145 0.93221 0.0
C11 C 0.35785 0.4417 0.03521 0.0
C12 C 0.31339 0.4229 0.97631 0.0
N13 N 0.33155 0.42952 0.89538 0.0
O14 O 0.27233 0.39916 0.14066 0.0
H15 H 0.37689 0.4505 0.08545 0.0
H16 H 0.28922 0.41289 0.97111 0.0
O17 O 0.32158 0.39646 0.22281 0.0
C18 C 0.24577 0.39402 0.16318 0.0
O19 O 0.238 0.39333 0.25762 0.0
N20 N 0.35074 0.4579 0.24017 0.0
C21 C 0.40479 0.50626 0.31158 0.0
C22 C 0.39539 0.4764 0.34093 0.0
C23 C 0.36826 0.45255 0.30481 0.0
C24 C 0.35951 0.48674 0.21062 0.0
C25 C 0.38662 0.51122 0.24444 0.0
H26 H 0.36126 0.42998 0.33112 0.0
H27 H 0.34531 0.49071 0.16031 0.0
H28 H 0.30919 0.39953 0.4075 0.0
H29 H 0.28512 0.46357 0.49679 0.0
H30 H 0.38034 0.45082 0.88847 0.0
H31 H 0.40853 0.47156 0.39339 0.0
H32 H 0.39326 0.53381 0.21805 0.0
C33 C 0.86297 0.31183 0.65445 0.0
C34 C 0.85965 0.30846 0.75701 0.0
N35 N 0.8832 0.30662 0.7929 0.0
N36 N 0.88847 0.31201 0.62613 0.0
C37 C 0.90004 0.30837 0.71234 0.0
H38 H 0.849 0.31629 0.6048 0.0
Co39 Co 0.90567 0.32247 0.49799 0.0
C40 C 0.96096 0.31676 0.5633 0.0
O41 O 0.95173 0.28826 0.5426 0.0
N42 N 0.92208 0.33241 0.36942 0.0
C43 C 0.9511 0.34329 0.23365 0.0
C44 C 0.95089 0.34462 0.33685 0.0
C45 C 0.9054 0.32464 0.28526 0.0
N46 N 0.92234 0.33031 0.20135 0.0
O47 O 0.88897 0.27972 0.46552 0.0
H48 H 0.9705 0.35315 0.38447 0.0
H49 H 0.8812 0.31503 0.28612 0.0
O50 O 0.9437 0.32765 0.54683 0.0
C51 C 0.86132 0.26928 0.44146 0.0
O52 O 0.85046 0.2878 0.44436 0.0
N53 N 0.91955 0.36372 0.52728 0.0
C54 C 0.92969 0.42113 0.58386 0.0
C55 C 0.9394 0.40513 0.64434 0.0
C56 C 0.93464 0.37687 0.61391 0.0
C57 C 0.91019 0.37893 0.46673 0.0
C58 C 0.91557 0.40784 0.49251 0.0
H59 H 0.94171 0.36492 0.66352 0.0
H60 H 0.89752 0.36822 0.39968 0.0
H61 H 0.9217 0.30958 0.71791 0.0
H62 H 0.84285 0.31007 0.8024 0.0
H63 H 0.97084 0.35041 0.18642 0.0
H64 H 0.94919 0.4134 0.71737 0.0
H65 H 0.90778 0.41922 0.44259 0.0
C66 C 0.56041 0.85891 0.0077 0.0
C67 C 0.55854 0.85634 0.11063 0.0
N68 N 0.58649 0.87316 0.14837 0.0
N69 N 0.58933 0.87797 0.98029 0.0
C70 C 0.60486 0.88528 0.06749 0.0
H71 H 0.54148 0.85005 0.95686 0.0
Co72 Co 0.60016 0.89654 0.85286 0.0
C73 C 0.65935 0.95536 0.89749 0.0
O74 O 0.67313 0.95562 0.81357 0.0
N75 N 0.6099 0.91404 0.72374 0.0
C76 C 0.61681 0.94302 0.58981 0.0
C77 C 0.61612 0.94188 0.69348 0.0
C78 C 0.60701 0.89881 0.63731 0.0
N79 N 0.61135 0.91595 0.55501 0.0
O80 O 0.62609 0.87935 0.82901 0.0
H81 H 0.61834 0.95964 0.74333 0.0
H82 H 0.59971 0.87494 0.6341 0.0
O83 O 0.6326 0.93363 0.91488 0.0
C84 C 0.61007 0.85156 0.80362 0.0
O85 O 0.58054 0.83926 0.80344 0.0
N86 N 0.57307 0.91127 0.87319 0.0
C87 C 0.52612 0.92319 0.9137 0.0
C88 C 0.55072 0.93312 0.979 0.0
C89 C 0.57405 0.92723 0.95695 0.0
C90 C 0.5496 0.90172 0.80799 0.0
C91 C 0.52614 0.90781 0.82604 0.0
H92 H 0.5918 0.93376 0.01114 0.0
H93 H 0.54852 0.88839 0.74325 0.0
H94 H 0.62878 0.90107 0.07229 0.0
H95 H 0.53794 0.84506 0.1548 0.0
H96 H 0.61992 0.96183 0.54353 0.0
H97 H 0.5513 0.94389 0.04967 0.0
H98 H 0.50769 0.89965 0.77328 0.0
C99 C 0.73839 0.56381 0.35996 0.0
C100 C 0.73813 0.56136 0.46274 0.0
N101 N 0.71819 0.56881 0.50035 0.0
N102 N 0.7187 0.57283 0.33253 0.0
C103 C 0.70652 0.57518 0.41999 0.0
H104 H 0.75152 0.55826 0.30975 0.0
Co105 Co 0.70545 0.57657 0.20543 0.0
C106 C 0.70484 0.6357 0.23779 0.0
O107 O 0.71819 0.64836 0.15244 0.0
N108 N 0.69164 0.57949 0.07877 0.0
C109 C 0.67142 0.58875 0.94544 0.0
C110 C 0.67288 0.58944 0.049 0.0
C111 C 0.70012 0.57177 0.99286 0.0
N112 N 0.68905 0.57803 0.91072 0.0
O113 O 0.74724 0.60522 0.16281 0.0
H114 H 0.66136 0.59718 0.09879 0.0
H115 H 0.714 0.5614 0.98979 0.0
O116 O 0.69938 0.60902 0.25962 0.0
C117 C 0.7586 0.58939 0.13048 0.0
O118 O 0.74136 0.55973 0.13335 0.0
N119 N 0.6662 0.54666 0.24268 0.0
C120 C 0.6138 0.49662 0.31743 0.0
C121 C 0.61627 0.52535 0.31355 0.0
C122 C 0.64285 0.55027 0.27603 0.0
C123 C 0.6635 0.51869 0.24135 0.0
C124 C 0.63761 0.49343 0.27865 0.0
H125 H 0.64484 0.57239 0.2764 0.0
H126 H 0.68213 0.51623 0.21404 0.0
H127 H 0.68875 0.58074 0.42463 0.0
H128 H 0.7509 0.55366 0.50574 0.0
H129 H 0.65913 0.59637 0.89934 0.0
H130 H 0.59817 0.52862 0.34156 0.0
H131 H 0.63628 0.47155 0.27735 0.0
C132 C 0.17747 0.7327 0.68565 0.0
C133 C 0.18036 0.73391 0.78798 0.0
N134 N 0.15698 0.73556 0.82852 0.0
N135 N 0.15228 0.73334 0.66111 0.0
C136 C 0.14044 0.73542 0.74964 0.0
H137 H 0.19118 0.72847 0.63325 0.0
Co138 Co 0.13482 0.72194 0.53555 0.0
C139 C 0.07598 0.72175 0.55893 0.0
O140 O 0.07826 0.73385 0.47 0.0
N141 N 0.11822 0.7099 0.40909 0.0
C142 C 0.09203 0.68545 0.27443 0.0
C143 C 0.09178 0.68646 0.37798 0.0
C144 C 0.13403 0.72237 0.32444 0.0
N145 N 0.11888 0.70812 0.24084 0.0
O146 O 0.15013 0.76467 0.49825 0.0
H147 H 0.07388 0.6707 0.42723 0.0
H148 H 0.15643 0.74149 0.32517 0.0
O149 O 0.09684 0.71703 0.58964 0.0
C150 C 0.17838 0.77815 0.47651 0.0
O151 O 0.19267 0.76289 0.48586 0.0
N152 N 0.12293 0.68154 0.56778 0.0
C153 C 0.11606 0.62551 0.6212 0.0
C154 C 0.09542 0.63406 0.65555 0.0
C155 C 0.09943 0.66244 0.6289 0.0
C156 C 0.14254 0.67305 0.53119 0.0
C157 C 0.13971 0.64523 0.55775 0.0
H158 H 0.08411 0.66913 0.66011 0.0
H159 H 0.1612 0.68856 0.48384 0.0
H160 H 0.11899 0.73457 0.75692 0.0
H161 H 0.1967 0.73061 0.82887 0.0
H162 H 0.07413 0.66879 0.22797 0.0
H163 H 0.07704 0.6194 0.7055 0.0
H164 H 0.15608 0.63933 0.53007 0.0
C165 C 0.46756 0.17392 0.95782 0.0
C166 C 0.46891 0.17712 0.06085 0.0
N167 N 0.4496 0.14998 0.10124 0.0
N168 N 0.44722 0.14499 0.93393 0.0
C169 C 0.43683 0.13113 0.02355 0.0
H170 H 0.48164 0.19132 0.90443 0.0
Co171 Co 0.43908 0.12764 0.80562 0.0
C172 C 0.38006 0.08142 0.89779 0.0
O173 O 0.37083 0.10125 0.90159 0.0
N174 N 0.43123 0.11099 0.67789 0.0
C175 C 0.41441 0.08149 0.54341 0.0
C176 C 0.41525 0.08196 0.64689 0.0
C177 C 0.44012 0.12756 0.59286 0.0
N178 N 0.42981 0.11033 0.51013 0.0
O179 O 0.4127 0.14403 0.77721 0.0
H180 H 0.40463 0.0624 0.69585 0.0
H181 H 0.4545 0.15187 0.59145 0.0
O182 O 0.40602 0.08923 0.85983 0.0
C183 C 0.42721 0.17077 0.7397 0.0
O184 O 0.45681 0.18412 0.73686 0.0
N185 N 0.46729 0.11458 0.82685 0.0
C186 C 0.51846 0.10919 0.8624 0.0
C187 C 0.49299 0.09513 0.92627 0.0
C188 C 0.46735 0.09755 0.90594 0.0
C189 C 0.49112 0.12703 0.76161 0.0
C190 C 0.51619 0.12349 0.7755 0.0
H191 H 0.44832 0.08703 0.95687 0.0
H192 H 0.49125 0.14074 0.69962 0.0
H193 H 0.42124 0.10727 0.03355 0.0
H194 H 0.48402 0.19726 0.10266 0.0
H195 H 0.40297 0.0616 0.49644 0.0
H196 H 0.4932 0.08342 0.99374 0.0
H197 H 0.53401 0.13289 0.71957 0.0
C198 C 0.5641 0.70903 0.39754 0.0
C199 C 0.56155 0.70986 0.29481 0.0
N200 N 0.58631 0.71144 0.25236 0.0
N201 N 0.5903 0.71005 0.41955 0.0
C202 C 0.60366 0.71236 0.3296 0.0
H203 H 0.547 0.7057 0.45237 0.0
Co204 Co 0.59971 0.70094 0.54518 0.0
C205 C 0.63773 0.67348 0.49475 0.0
O206 O 0.62137 0.65186 0.5595 0.0
N207 N 0.6093 0.69297 0.67474 0.0
C208 C 0.63737 0.69829 0.80902 0.0
C209 C 0.63678 0.69868 0.70618 0.0
C210 C 0.59417 0.69065 0.7613 0.0
N211 N 0.61061 0.69351 0.84398 0.0
O212 O 0.62642 0.74384 0.57201 0.0
H213 H 0.65643 0.70589 0.65878 0.0
H214 H 0.57315 0.69084 0.76405 0.0
O215 O 0.63256 0.6955 0.48263 0.0
C216 C 0.61022 0.75296 0.61721 0.0
O217 O 0.58115 0.73382 0.62741 0.0
N218 N 0.5704 0.65948 0.52208 0.0
C219 C 0.51754 0.60647 0.46604 0.0
C220 C 0.54385 0.61785 0.40732 0.0
C221 C 0.56988 0.64449 0.43591 0.0
C222 C 0.54518 0.64803 0.58141 0.0
C223 C 0.5188 0.62134 0.55599 0.0
H224 H 0.58871 0.65413 0.38408 0.0
H225 H 0.54435 0.66074 0.64455 0.0
H226 H 0.62453 0.71214 0.31988 0.0
H227 H 0.54241 0.70811 0.25466 0.0
H228 H 0.65686 0.70349 0.85441 0.0
H229 H 0.54375 0.60739 0.33637 0.0
H230 H 0.49908 0.61326 0.60411 0.0
C231 C 0.86744 0.5644 0.66769 0.0
C232 C 0.8655 0.56374 0.56475 0.0
N233 N 0.88364 0.59193 0.52956 0.0
N234 N 0.88716 0.59284 0.69794 0.0
C235 C 0.89596 0.60922 0.61189 0.0
H236 H 0.85768 0.54474 0.71635 0.0
Co237 Co 0.90557 0.60145 0.82555 0.0
C238 C 0.96318 0.66305 0.79362 0.0
O239 O 0.96204 0.67356 0.88264 0.0
N240 N 0.92349 0.60886 0.95361 0.0
C241 C 0.95411 0.61734 0.08314 0.0
C242 C 0.95181 0.61611 0.97972 0.0
C243 C 0.90907 0.60536 0.04231 0.0
N244 N 0.92702 0.61047 0.12229 0.0
O245 O 0.88537 0.6243 0.86526 0.0
H246 H 0.96958 0.61991 0.92704 0.0
H247 H 0.88549 0.59803 0.04897 0.0
O248 O 0.94206 0.63681 0.76746 0.0
C249 C 0.85817 0.60432 0.88915 0.0
O250 O 0.84936 0.57601 0.8667 0.0
N251 N 0.92146 0.57634 0.79374 0.0
C252 C 0.93047 0.52908 0.73445 0.0
C253 C 0.9469 0.55761 0.68885 0.0
C254 C 0.94183 0.58105 0.71898 0.0
C255 C 0.90648 0.54911 0.84196 0.0
C256 C 0.91051 0.52505 0.81302 0.0
H257 H 0.95299 0.60218 0.67812 0.0
H258 H 0.88991 0.54557 0.89925 0.0
H259 H 0.91271 0.63288 0.60877 0.0
H260 H 0.85421 0.5436 0.51878 0.0
H261 H 0.97416 0.62291 0.12581 0.0
H262 H 0.96223 0.56124 0.62703 0.0
H263 H 0.89733 0.50318 0.84914 0.0
C264 C 0.28766 0.86776 1.00447 0.0
C265 C 0.28748 0.86689 0.90085 0.0
N266 N 0.31121 0.89278 0.86698 0.0
N267 N 0.31121 0.89433 0.03547 0.0
C268 C 0.32487 0.90896 0.9494 0.0
H269 H 0.2715 0.84998 0.05289 0.0
Co270 Co 0.32498 0.91043 0.16406 0.0
C271 C 0.32093 0.9672 0.12582 0.0
O272 O 0.29933 0.96051 0.19207 0.0
N273 N 0.33922 0.92702 0.29089 0.0
C274 C 0.36074 0.95808 0.42038 0.0
C275 C 0.35805 0.95616 0.3172 0.0
C276 C 0.33138 0.91172 0.37868 0.0
N277 N 0.34371 0.93005 0.45828 0.0
O278 O 0.28332 0.89651 0.2104 0.0
H279 H 0.36864 0.97498 0.26525 0.0
H280 H 0.31692 0.88754 0.38472 0.0
O281 O 0.3312 0.94919 0.11366 0.0
C282 C 0.27101 0.86927 0.24408 0.0
O283 O 0.28637 0.85498 0.23695 0.0
N284 N 0.36444 0.92058 0.12526 0.0
C285 C 0.4186 0.92548 0.05636 0.0
C286 C 0.41394 0.95042 0.05234 0.0
C287 C 0.38698 0.94773 0.08945 0.0
C288 C 0.36878 0.89641 0.13215 0.0
C289 C 0.39568 0.8984 0.09903 0.0
H290 H 0.38407 0.96724 0.08591 0.0
H291 H 0.35088 0.8752 0.16202 0.0
H292 H 0.34434 0.93144 0.94666 0.0
H293 H 0.2714 0.84859 0.85413 0.0
H294 H 0.37319 0.97852 0.46424 0.0
H295 H 0.43048 0.97163 0.01831 0.0
H296 H 0.39832 0.87868 0.10599 0.0
C297 C 0.43941 0.2696 0.3066 0.0
C298 C 0.43639 0.26532 0.20454 0.0
N299 N 0.41188 0.26669 0.17453 0.0
N300 N 0.41747 0.27464 0.34114 0.0
C301 C 0.39988 0.27035 0.26061 0.0
H302 H 0.45834 0.2723 0.35022 0.0
Co303 Co 0.41419 0.28836 0.46912 0.0
C304 C 0.39442 0.32581 0.34292 0.0
O305 O 0.41606 0.33302 0.27728 0.0
N306 N 0.40915 0.30001 0.59795 0.0
C307 C 0.40425 0.32343 0.73168 0.0
C308 C 0.40708 0.3242 0.62845 0.0
C309 C 0.4068 0.28476 0.68321 0.0
N310 N 0.4039 0.29835 0.76582 0.0
O311 O 0.37631 0.25075 0.48628 0.0
H312 H 0.4087 0.34185 0.57938 0.0
H313 H 0.40727 0.26401 0.68555 0.0
O314 O 0.39112 0.30799 0.41618 0.0
C315 C 0.36472 0.22378 0.52195 0.0
O316 O 0.33539 0.20612 0.51208 0.0
N317 N 0.45372 0.32623 0.45276 0.0
C318 C 0.50716 0.38299 0.43128 0.0
C319 C 0.49201 0.36575 0.34778 0.0
C320 C 0.4662 0.33748 0.35999 0.0
C321 C 0.47046 0.3415 0.5353 0.0
C322 C 0.49674 0.37011 0.52645 0.0
H323 H 0.45654 0.32544 0.29191 0.0
H324 H 0.46387 0.33198 0.60962 0.0
H325 H 0.37915 0.27097 0.26553 0.0
H326 H 0.45282 0.26425 0.15569 0.0
H327 H 0.4038 0.34073 0.77754 0.0
H328 H 0.50017 0.374 0.27254 0.0
H329 H 0.50848 0.38213 0.59355 0.0
C330 C 0.1763 0.47383 0.68566 0.0
C331 C 0.18056 0.47565 0.58321 0.0
N332 N 0.15958 0.44928 0.54267 0.0
N333 N 0.15249 0.44656 0.70968 0.0
C334 C 0.14318 0.43185 0.62106 0.0
H335 H 0.18826 0.49207 0.73851 0.0
Co336 Co 0.13376 0.43721 0.83646 0.0
C337 C 0.06943 0.39873 0.7837 0.0
O338 O 0.06398 0.41626 0.84218 0.0
N339 N 0.11653 0.42776 0.9669 0.0
C340 C 0.09474 0.39963 0.10337 0.0
C341 C 0.09379 0.40084 1.00069 0.0
C342 C 0.13154 0.44198 0.05158 0.0
N343 N 0.11884 0.4253 0.13523 0.0
O344 O 0.15103 0.4118 0.86609 0.0
H345 H 0.07932 0.38162 0.95471 0.0
H346 H 0.15318 0.46272 0.05112 0.0
O347 O 0.09637 0.40299 0.77703 0.0
C348 C 0.17746 0.42899 0.90134 0.0
O349 O 0.18762 0.45831 0.90192 0.0
N350 N 0.11972 0.46518 0.81004 0.0
C351 C 0.11218 0.51439 0.7555 0.0
C352 C 0.10434 0.49014 0.6896 0.0
C353 C 0.10794 0.46579 0.71847 0.0
C354 C 0.12724 0.48846 0.87551 0.0
C355 C 0.12311 0.51286 0.85066 0.0
H356 H 0.10254 0.44811 0.66427 0.0
H357 H 0.13796 0.48922 0.94556 0.0
H358 H 0.12292 0.41005 0.61273 0.0
H359 H 0.19666 0.49545 0.54126 0.0
H360 H 0.08 0.38045 0.15025 0.0
H361 H 0.09703 0.4905 0.61386 0.0
H362 H 0.12954 0.53097 0.90451 0.0
C363 C 0.76 0.16946 0.95947 0.0
C364 C 0.76158 0.16796 0.85635 0.0
N365 N 0.74196 0.1394 0.82776 0.0
N366 N 0.73961 0.14187 0.99528 0.0
C367 C 0.72952 0.12404 0.91337 0.0
H368 H 0.77148 0.18979 1.00416 0.0
Co369 Co 0.72257 0.13129 0.12305 0.0
C370 C 0.70022 0.06439 0.14129 0.0
O371 O 0.68268 0.06215 0.2171 0.0
N372 N 0.70541 0.1212 0.25368 0.0
C373 C 0.67909 0.11809 0.39126 0.0
C374 C 0.68091 0.12186 0.28915 0.0
C375 C 0.71781 0.11658 0.33669 0.0
N376 N 0.7023 0.1147 0.42153 0.0
O377 O 0.76253 0.14707 0.18166 0.0
H378 H 0.66596 0.1265 0.24583 0.0
H379 H 0.73856 0.11578 0.3356 0.0
O380 O 0.71743 0.09045 0.10194 0.0
C381 C 0.77031 0.17365 0.21378 0.0
O382 O 0.75239 0.18457 0.1945 0.0
N383 N 0.68444 0.12 0.0666 0.0
C384 C 0.63142 0.11535 0.98851 0.0
C385 C 0.6358 0.09021 0.98939 0.0
C386 C 0.66242 0.09293 0.02915 0.0
C387 C 0.68094 0.14476 0.06329 0.0
C388 C 0.65437 0.14272 0.0283 0.0
H389 H 0.66527 0.07342 0.02672 0.0
H390 H 0.69858 0.16609 0.0925 0.0
H391 H 0.71197 0.10054 0.91584 0.0
H392 H 0.77435 0.18687 0.80588 0.0
H393 H 0.66322 0.12024 0.4398 0.0
H394 H 0.61899 0.06868 0.95848 0.0
H395 H 0.65183 0.16249 0.03449 0.0
C396 C 0.19775 0.38134 0.07101 0.0
C397 C 0.22892 0.40078 0.0865 0.0
C398 C 0.18128 0.38943 1.00535 0.0
C399 C 0.19539 0.41746 0.95423 0.0
H400 H 0.18591 0.36009 0.11159 0.0
H401 H 0.15715 0.37436 0.99864 0.0
S402 S 0.27634 0.47684 0.97271 0.0
N403 N 0.27275 0.44969 0.04869 0.0
N404 N 0.24266 0.4643 0.92308 0.0
C405 C 0.22671 0.43668 0.96796 0.0
C406 C 0.24323 0.42856 0.03484 0.0
C407 C 0.82552 0.20288 0.26175 0.0
C408 C 0.79476 0.19029 0.28774 0.0
C409 C 0.84835 0.22659 0.31932 0.0
C410 C 0.84092 0.23805 0.40462 0.0
H411 H 0.83175 0.19646 0.19193 0.0
H412 H 0.8714 0.23785 0.29152 0.0
S413 S 0.76425 0.20955 0.5118 0.0
N414 N 0.75868 0.18911 0.40964 0.0
N415 N 0.80117 0.2321 0.51896 0.0
C416 C 0.81059 0.22334 0.43629 0.0
C417 C 0.7876 0.19991 0.37743 0.0
C418 C 0.63098 0.80927 0.61765 0.0
C419 C 0.62261 0.78232 0.67086 0.0
C420 C 0.63111 0.83416 0.66518 0.0
C421 C 0.62284 0.8328 0.76711 0.0
H422 H 0.6345 0.81007 0.53716 0.0
H423 H 0.63476 0.85328 0.61959 0.0
S424 S 0.60212 0.76875 0.94106 0.0
N425 N 0.60862 0.7571 0.83291 0.0
N426 N 0.60872 0.80349 0.92076 0.0
C427 C 0.61705 0.80707 0.82237 0.0
C428 C 0.61697 0.78193 0.77457 0.0
C429 C 0.82692 0.58679 0.04341 0.0
C430 C 0.83965 0.60892 0.96725 0.0
C431 C 0.80311 0.58358 0.10376 0.0
C432 C 0.78988 0.60169 0.08978 0.0
H433 H 0.83392 0.57008 0.0524 0.0
H434 H 0.79333 0.56488 0.1567 0.0
S435 S 0.81798 0.66693 0.91433 0.0
N436 N 0.84032 0.6527 0.89208 0.0
N437 N 0.79418 0.64582 1.00405 0.0
C438 C 0.80411 0.62604 0.02126 0.0
C439 C 0.82923 0.62976 0.96008 0.0
C440 C 0.22368 0.82895 0.46981 0.0
C441 C 0.19548 0.80856 0.42842 0.0
C442 C 0.24702 0.85136 0.41103 0.0
C443 C 0.24333 0.85492 0.30835 0.0
H444 H 0.22888 0.82547 0.54572 0.0
H445 H 0.26907 0.8637 0.44413 0.0
S446 S 0.17279 0.80957 0.16505 0.0
N447 N 0.16407 0.79531 0.27983 0.0
N448 N 0.20828 0.83741 0.16922 0.0
C449 C 0.21444 0.83643 0.26769 0.0
C450 C 0.19041 0.81342 0.32792 0.0
C451 C 0.36564 0.18359 0.62905 0.0
C452 C 0.38192 0.21133 0.57613 0.0
C453 C 0.38021 0.17083 0.68271 0.0
C454 C 0.41186 0.18528 0.68699 0.0
H455 H 0.34118 0.17142 0.62967 0.0
H456 H 0.36648 0.1494 0.72086 0.0
S457 S 0.46548 0.25859 0.56386 0.0
N458 N 0.43179 0.25244 0.53145 0.0
N459 N 0.45922 0.22946 0.6346 0.0
C460 C 0.42852 0.21312 0.635 0.0
C461 C 0.41361 0.22574 0.57862 0.0
C462 C 0.48707 0.55443 0.39116 0.0
C463 C 0.48842 0.58086 0.42919 0.0
C464 C 0.45998 0.53041 0.35382 0.0
C465 C 0.43324 0.53199 0.35201 0.0
H466 H 0.50708 0.55224 0.39069 0.0
H467 H 0.46009 0.51059 0.32491 0.0
S468 S 0.42476 0.59633 0.44181 0.0
N469 N 0.4607 0.60739 0.46064 0.0
N470 N 0.40978 0.56203 0.39333 0.0
C471 C 0.43429 0.55828 0.38993 0.0
C472 C 0.46183 0.58271 0.42788 0.0
C473 C 0.90746 0.48094 0.63788 0.0
C474 C 0.93173 0.50272 0.69413 0.0
C475 C 0.90738 0.4551 0.60139 0.0
C476 C 0.93165 0.44998 0.61947 0.0
H477 H 0.88819 0.48376 0.62292 0.0
H478 H 0.88763 0.43862 0.56102 0.0
S479 S 1.00021 0.50047 0.76759 0.0
N480 N 0.98011 0.51767 0.76965 0.0
N481 N 0.98087 0.4697 0.69902 0.0
C482 C 0.95625 0.47198 0.6758 0.0
C483 C 0.9561 0.49823 0.71336 0.0
C484 C 0.46995 0.90119 0.92783 0.0
C485 C 0.49922 0.92596 0.94214 0.0
C486 C 0.44427 0.90174 0.96237 0.0
C487 C 0.44655 0.92689 0.01441 0.0
H488 H 0.46674 0.88068 0.8923 0.0
H489 H 0.42238 0.88199 0.94897 0.0
S490 S 0.51787 0.99871 0.06489 0.0
N491 N 0.52882 0.97757 1.00409 0.0
N492 N 0.48076 0.97787 0.07504 0.0
C493 C 0.47565 0.95224 0.02679 0.0
C494 C 0.50186 0.95189 0.9897 0.0
C495 C 0.55763 0.46167 0.32162 0.0
C496 C 0.58634 0.46965 0.35869 0.0
C497 C 0.53198 0.4342 0.34922 0.0
C498 C 0.53394 0.41376 0.41584 0.0
H499 H 0.55517 0.4761 0.26737 0.0
H500 H 0.51049 0.42848 0.31589 0.0
S501 S 0.60344 0.42553 0.54187 0.0
N502 N 0.6149 0.45612 0.47174 0.0
N503 N 0.56672 0.40444 0.52297 0.0
C504 C 0.56224 0.42223 0.45756 0.0
C505 C 0.58842 0.45013 0.42897 0.0
C506 C 0.13565 0.57113 0.74921 0.0
C507 C 0.11168 0.54228 0.72246 0.0
C508 C 0.13681 0.59784 0.71627 0.0
C509 C 0.11401 0.59688 0.65558 0.0
H510 H 0.15418 0.57324 0.79414 0.0
H511 H 0.15576 0.61946 0.73834 0.0
S512 S 0.04722 0.5281 0.5586 0.0
N513 N 0.06471 0.51494 0.62863 0.0
N514 N 0.0675 0.56537 0.56625 0.0
C515 C 0.09003 0.56853 0.62754 0.0
C516 C 0.08875 0.5412 0.6608 0.0
C517 C 0.57465 0.08732 0.96773 0.0
C518 C 0.60303 0.11315 0.94853 0.0
C519 C 0.54761 0.08591 0.93792 0.0
C520 C 0.54763 0.11044 0.88884 0.0
H521 H 0.57318 0.06824 0.00841 0.0
H522 H 0.52651 0.0654 0.95425 0.0
S523 S 0.61619 0.18303 0.81689 0.0
N524 N 0.62949 0.16279 0.86884 0.0
N525 N 0.57912 0.16174 0.82377 0.0
C526 C 0.57599 0.13634 0.86848 0.0
C527 C 0.60347 0.13729 0.89556 0.0
C528 C 0.32269 0.33181 0.33441 0.0
C529 C 0.33156 0.35745 0.27266 0.0
C530 C 0.34318 0.32199 0.36025 0.0
C531 C 0.37324 0.33738 0.32483 0.0
H532 H 0.29983 0.31935 0.36367 0.0
H533 H 0.33528 0.30193 0.40651 0.0
S534 S 0.40804 0.40611 0.16238 0.0
N535 N 0.37266 0.39778 0.17681 0.0
N536 N 0.411 0.38025 0.22749 0.0
C537 C 0.38239 0.36327 0.26427 0.0
C538 C 0.36163 0.37301 0.23752 0.0
C539 C 0.02784 0.38803 0.66691 0.0
C540 C 0.04485 0.37745 0.71707 0.0
C541 C 1.00182 0.36836 0.6136 0.0
C542 C 0.991 0.33694 0.6101 0.0
H543 H 0.03445 0.41181 0.67022 0.0
H544 H 0.98981 0.37799 0.5764 0.0
S545 S 0.02877 0.29811 0.72387 0.0
N546 N 0.0506 0.33407 0.75474 0.0
N547 N 1.00091 0.29653 0.65686 0.0
C548 C 1.00862 0.32618 0.6564 0.0
C549 C 0.03567 0.34655 0.70951 0.0
C550 C 0.7049 0.0375 0.98784 0.0
C551 C 0.69391 0.03618 0.08631 0.0
C552 C 0.69467 1.01118 0.92891 0.0
C553 C 0.67294 0.98239 0.96563 0.0
H554 H 0.72065 0.05912 0.95429 0.0
H555 H 0.70294 0.01367 0.85243 0.0
S556 S 0.64082 0.96594 0.2244 0.0
N557 N 0.66301 1.00302 0.22186 0.0
N558 N 0.6436 0.95419 0.11161 0.0
C559 C 0.66329 0.98067 0.06604 0.0
C560 C 0.67387 1.00732 0.12617 0.0
C561 C 0.66048 0.67352 0.32593 0.0
C562 C 0.65972 0.66986 0.43095 0.0
C563 C 0.67659 0.664 0.26356 0.0
C564 C 0.69243 0.65047 0.30414 0.0
H565 H 0.64709 0.68199 0.29114 0.0
H566 H 0.67522 0.66567 0.18291 0.0
S567 S 0.70214 0.64118 0.57507 0.0
N568 N 0.67918 0.65519 0.57287 0.0
N569 N 0.70996 0.63828 0.45648 0.0
C570 C 0.6936 0.64883 0.4092 0.0
C571 C 0.67711 0.65826 0.47232 0.0
C572 C 0.0467 0.71267 0.7208 0.0
C573 C 0.04702 0.70859 0.61636 0.0
C574 C 0.01943 0.6988 0.77642 0.0
C575 C 0.99141 0.67943 0.73056 0.0
H576 H 0.06765 0.72673 0.75994 0.0
H577 H 0.02051 0.70259 0.85668 0.0
S578 S 0.9806 0.66055 0.45857 0.0
N579 N 0.01725 0.68396 0.46909 0.0
N580 N 0.96653 0.65685 0.57292 0.0
C581 C 0.99173 0.67507 0.62595 0.0
C582 C 0.01934 0.6899 0.56914 0.0
C583 C 0.36895 0.02827 0.93207 0.0
C584 C 0.3631 0.05192 0.95289 0.0
C585 C 0.35484 1.001 0.98689 0.0
C586 C 0.33443 0.99611 0.06629 0.0
H587 H 0.38473 0.03083 0.87294 0.0
H588 H 0.36024 0.98371 0.96666 0.0
S589 S 0.31182 0.05124 0.15345 0.0
N590 N 0.33548 0.06872 0.05954 0.0
N591 N 0.30934 0.01778 0.16296 0.0
C592 C 0.32821 0.01955 0.08759 0.0
C593 C 0.34242 0.0473 0.03104 0.0
C594 C 0.28867 0.42992 0.66802 0.0
C595 C 0.30481 0.4264 0.58861 0.0
C596 C 0.29732 0.43051 0.76762 0.0
C597 C 0.32248 0.42751 0.79212 0.0
H598 H 0.26932 0.43255 0.65285 0.0
H599 H 0.28452 0.4341 0.82549 0.0
S600 S 0.3722 0.41707 0.61198 0.0
N601 N 0.34756 0.42018 0.54104 0.0
N602 N 0.36269 0.41955 0.72876 0.0
C603 C 0.3385 0.42331 0.71359 0.0
C604 C 0.32991 0.42309 0.61176 0.0
C605 C 0.9311 0.34118 0.01988 0.0
C606 C 0.91208 0.32335 0.09889 0.0
C607 C 0.92176 0.33513 0.91989 0.0
C608 C 0.89295 0.31122 0.89522 0.0
H609 H 0.95318 0.36034 0.03538 0.0
H610 H 0.93686 0.34973 0.86148 0.0
S611 S 0.83521 0.25623 0.07042 0.0
N612 N 0.86359 0.27913 0.14318 0.0
N613 N 0.84591 0.26893 0.95482 0.0
C614 C 0.87379 0.29302 0.9723 0.0
C615 C 0.88337 0.29877 0.07427 0.0
C616 C 0.57697 0.89597 0.29782 0.0
C617 C 0.59328 0.88379 0.25053 0.0
C618 C 0.58343 0.90702 0.39655 0.0
C619 C 0.60595 0.90567 0.45237 0.0
H620 H 0.5594 0.89737 0.25736 0.0
H621 H 0.57043 0.91626 0.43025 0.0
S622 S 0.65499 0.87597 0.36365 0.0
N623 N 0.63318 0.87152 0.26649 0.0
N624 N 0.64464 0.89138 0.45353 0.0
C625 C 0.62229 0.89345 0.40634 0.0
C626 C 0.61618 0.88281 0.30494 0.0
C627 C 0.67463 0.56655 0.73254 0.0
C628 C 0.69656 0.57564 0.80792 0.0
C629 C 0.68164 0.5638 0.63242 0.0
C630 C 0.71092 0.57032 0.6041 0.0
H631 H 0.65183 0.56115 0.75141 0.0
H632 H 0.66397 0.5564 0.57694 0.0
S633 S 0.77692 0.59701 0.77154 0.0
N634 N 0.74909 0.59245 0.8464 0.0
N635 N 0.76218 0.5876 0.65864 0.0
C636 C 0.73306 0.57976 0.67859 0.0
C637 C 0.72594 0.5824 0.78032 0.0
C638 C 0.10794 0.70746 0.06001 0.0
C639 C 0.12913 0.7158 0.13781 0.0
C640 C 0.11712 0.71467 0.95967 0.0
C641 C 0.14793 0.73098 0.93279 0.0
H642 H 0.08397 0.69521 0.07643 0.0
H643 H 0.09981 0.70666 0.90277 0.0
S644 S 0.21289 0.75968 0.10645 0.0
N645 N 0.18284 0.74107 0.17903 0.0
N646 N 0.19964 0.75716 0.99221 0.0
C647 C 0.1694 0.74041 0.00969 0.0
C648 C 0.16015 0.73222 0.1116 0.0
C649 C 0.43949 0.10415 0.33292 0.0
C650 C 0.43475 0.12077 0.40778 0.0
C651 C 0.44484 0.11416 0.23321 0.0
C652 C 0.4457 0.14116 0.20492 0.0
H653 H 0.43942 0.08347 0.35187 0.0
H654 H 0.44852 0.10077 0.17767 0.0
S655 S 0.43205 0.19158 0.36987 0.0
N656 N 0.42934 0.16463 0.44543 0.0
N657 N 0.43997 0.18355 0.25751 0.0
C658 C 0.44082 0.15792 0.27847 0.0
C659 C 0.43516 0.14767 0.38007 0.0
C660 C 0.62089 0.72324 0.10825 0.0
C661 C 0.59144 0.70759 0.14817 0.0
C662 C 0.62697 0.71841 0.00941 0.0
C663 C 0.60384 0.69761 0.9463 0.0
H664 H 0.63937 0.73949 0.15392 0.0
H665 H 0.64994 0.73155 0.9818 0.0
S666 S 0.52326 0.64884 0.01736 0.0
N667 N 0.53912 0.66911 0.11887 0.0
N668 N 0.55058 0.66012 0.93275 0.0
C669 C 0.57431 0.68158 0.98554 0.0
C670 C 0.56809 0.68653 0.08643 0.0
C671 C 0.89684 0.61615 0.25845 0.0
C672 C 0.91795 0.6076 0.22679 0.0
C673 C 0.88627 0.61189 0.35838 0.0
C674 C 0.89627 0.5987 0.42972 0.0
H675 H 0.88831 0.62607 0.20531 0.0
H676 H 0.86976 0.61831 0.37963 0.0
S677 S 0.95059 0.57177 0.38705 0.0
N678 N 0.94805 0.58501 0.27658 0.0
N679 N 0.92803 0.57701 0.46338 0.0
C680 C 0.91736 0.59022 0.3997 0.0
C681 C 0.92832 0.59474 0.29859 0.0
C682 C 0.30601 0.90771 0.59409 0.0
C683 C 0.33627 0.92168 0.56183 0.0
C684 C 0.29785 0.89772 0.6934 0.0
C685 C 0.31985 0.90212 0.76443 0.0
H686 H 0.28866 0.90509 0.54238 0.0
H687 H 0.2743 0.88716 0.7155 0.0
S688 S 0.40239 0.93821 0.71776 0.0
N689 N 0.38832 0.93975 0.60795 0.0
N690 N 0.37328 0.92159 0.79576 0.0
C691 C 0.35034 0.91668 0.73349 0.0
C692 C 0.35851 0.92646 0.63195 0.0
C693 C 0.41713 0.27162 0.89287 0.0
C694 C 0.40321 0.28861 0.86828 0.0
C695 C 0.41795 0.26289 0.99176 0.0
C696 C 0.40549 0.27122 0.07181 0.0
H697 H 0.42842 0.26567 0.83585 0.0
H698 H 0.42928 0.25014 1.00551 0.0
S699 S 0.36257 0.31232 0.04499 0.0
N700 N 0.3734 0.31034 0.92973 0.0
N701 N 0.37595 0.29535 0.11625 0.0
C702 C 0.39005 0.28698 0.0474 0.0
C703 C 0.38888 0.29549 0.94581 0.0
C704 C 0.15235 0.46643 0.37673 0.0
C705 C 0.15167 0.44358 0.43806 0.0
C706 C 0.14223 0.46051 0.27705 0.0
C707 C 0.13098 0.43153 0.23541 0.0
H708 H 0.15979 0.48877 0.40703 0.0
H709 H 0.14232 0.47843 0.23314 0.0
S710 S 0.12869 0.36526 0.35987 0.0
N711 N 0.14163 0.39182 0.44696 0.0
N712 N 0.12292 0.3807 0.25963 0.0
C713 C 0.13145 0.40888 0.29456 0.0
C714 C 0.14168 0.41491 0.3959 0.0
C715 C 0.74295 0.13165 0.54768 0.0
C716 C 0.71196 0.11598 0.52394 0.0
C717 C 0.75264 0.13859 0.64738 0.0
C718 C 0.73176 0.12935 0.72709 0.0
H719 H 0.75991 0.14013 0.48883 0.0
H720 H 0.77662 0.15189 0.66226 0.0
S721 S 0.64822 0.08369 0.70651 0.0
N722 N 0.66062 0.08809 0.58956 0.0
N723 N 0.67871 0.10164 0.7763 0.0
C724 C 0.70079 0.11185 0.70498 0.0
C725 C 0.69094 0.10493 0.6036 0.0
loop_
_geom_bond_atom_site_label_1
_geom_bond_atom_site_label_2
_geom_bond_distance
_geom_bond_site_symmetry_2
_ccdc_geom_bond_type
C0 C1 1.351 . S
C0 N3 1.368 . S
C0 H5 0.931 . S
C1 C0 1.351 . S
C1 N2 1.373 . S
C1 H29 0.930 . S
N2 C1 1.373 . S
N2 C4 1.340 . S
N3 C0 1.368 . S
N3 C4 1.321 . S
N3 Co6 2.135 . S
C4 N2 1.340 . S
C4 N3 1.321 . S
C4 H28 0.930 . S
H5 C0 0.931 . S
Co6 N3 2.135 . S
Co6 N9 2.121 . S
Co6 O14 2.055 . S
Co6 O17 2.039 . S
Co6 N20 2.140 . S
C7 O8 1.227 . S
C7 O17 1.265 . S
O8 C7 1.227 . S
N9 Co6 2.121 . S
N9 C11 1.375 . S
N9 C12 1.313 . S
C10 C11 1.338 1_556 S
C10 N13 1.377 . S
C10 H30 0.930 . S
C11 N9 1.375 . S
C11 C10 1.338 1_554 S
C11 H15 0.931 . S
C12 N9 1.313 . S
C12 N13 1.344 1_554 S
C12 H16 0.930 1_554 S
N13 C10 1.377 . S
N13 C12 1.344 1_556 S
O14 Co6 2.055 . S
O14 C18 1.253 . S
H15 C11 0.931 . S
H16 C12 0.930 1_556 S
O17 Co6 2.039 . S
O17 C7 1.265 . S
C18 O14 1.253 . S
C18 O19 1.227 . S
O19 C18 1.227 . S
N20 Co6 2.140 . S
N20 C23 1.346 . S
N20 C24 1.345 . S
C21 C22 1.387 . S
C21 C25 1.391 . S
C22 C21 1.387 . S
C22 C23 1.369 . S
C22 H31 0.929 . S
C23 N20 1.346 . S
C23 C22 1.369 . S
C23 H26 0.928 . S
C24 N20 1.345 . S
C24 C25 1.371 . S
C24 H27 0.931 . S
C25 C21 1.391 . S
C25 C24 1.371 . S
C25 H32 0.930 . S
H26 C23 0.928 . S
H27 C24 0.931 . S
H28 C4 0.930 . S
H29 C1 0.930 . S
H30 C10 0.930 . S
H31 C22 0.929 . S
H32 C25 0.930 . S
C33 C34 1.351 . S
C33 N36 1.368 . S
C33 H38 0.931 . S
C34 C33 1.351 . S
C34 N35 1.373 . S
C34 H62 0.930 . S
N35 C34 1.373 . S
N35 C37 1.340 . S
N36 C33 1.368 . S
N36 C37 1.321 . S
N36 Co39 2.135 . S
C37 N35 1.340 . S
C37 N36 1.321 . S
C37 H61 0.930 . S
H38 C33 0.931 . S
Co39 N36 2.135 . S
Co39 N42 2.121 . S
Co39 O47 2.055 . S
Co39 O50 2.039 . S
Co39 N53 2.140 . S
C40 O41 1.227 . S
C40 O50 1.265 . S
O41 C40 1.227 . S
N42 Co39 2.121 . S
N42 C44 1.375 . S
N42 C45 1.313 . S
C43 C44 1.338 . S
C43 N46 1.377 . S
C43 H63 0.930 . S
C44 N42 1.375 . S
C44 C43 1.338 . S
C44 H48 0.931 . S
C45 N42 1.313 . S
C45 N46 1.344 . S
C45 H49 0.930 . S
N46 C43 1.377 . S
N46 C45 1.344 . S
O47 Co39 2.055 . S
O47 C51 1.253 . S
H48 C44 0.931 . S
H49 C45 0.930 . S
O50 Co39 2.039 . S
O50 C40 1.265 . S
C51 O47 1.253 . S
C51 O52 1.227 . S
O52 C51 1.227 . S
N53 Co39 2.140 . S
N53 C56 1.346 . S
N53 C57 1.345 . S
C54 C55 1.387 . S
C54 C58 1.391 . S
C55 C54 1.387 . S
C55 C56 1.369 . S
C55 H64 0.929 . S
C56 N53 1.346 . S
C56 C55 1.369 . S
C56 H59 0.928 . S
C57 N53 1.345 . S
C57 C58 1.371 . S
C57 H60 0.931 . S
C58 C54 1.391 . S
C58 C57 1.371 . S
C58 H65 0.930 . S
H59 C56 0.928 . S
H60 C57 0.931 . S
H61 C37 0.930 . S
H62 C34 0.930 . S
H63 C43 0.930 . S
H64 C55 0.929 . S
H65 C58 0.930 . S
C66 C67 1.351 . S
C66 N69 1.368 . S
C66 H71 0.931 . S
C67 C66 1.351 . S
C67 N68 1.373 . S
C67 H95 0.930 . S
N68 C67 1.373 . S
N68 C70 1.340 . S
N69 C66 1.368 . S
N69 C70 1.321 . S
N69 Co72 2.135 1_554 S
C70 N68 1.340 . S
C70 N69 1.321 . S
C70 H94 0.930 . S
H71 C66 0.931 . S
Co72 N69 2.135 1_556 S
Co72 N75 2.121 . S
Co72 O80 2.055 . S
Co72 O83 2.039 . S
Co72 N86 2.140 . S
C73 O74 1.227 . S
C73 O83 1.265 . S
O74 C73 1.227 . S
N75 Co72 2.121 . S
N75 C77 1.375 . S
N75 C78 1.313 . S
C76 C77 1.338 . S
C76 N79 1.377 . S
C76 H96 0.930 . S
C77 N75 1.375 . S
C77 C76 1.338 . S
C77 H81 0.931 . S
C78 N75 1.313 . S
C78 N79 1.344 . S
C78 H82 0.930 . S
N79 C76 1.377 . S
N79 C78 1.344 . S
O80 Co72 2.055 . S
O80 C84 1.253 . S
H81 C77 0.931 . S
H82 C78 0.930 . S
O83 Co72 2.039 . S
O83 C73 1.265 . S
C84 O80 1.253 . S
C84 O85 1.227 . S
O85 C84 1.227 . S
N86 Co72 2.140 . S
N86 C89 1.346 1_556 S
N86 C90 1.345 . S
C87 C88 1.387 1_556 S
C87 C91 1.391 . S
C88 C87 1.387 1_554 S
C88 C89 1.369 . S
C88 H97 0.929 . S
C89 N86 1.346 1_554 S
C89 C88 1.369 . S
C89 H92 0.928 . S
C90 N86 1.345 . S
C90 C91 1.371 . S
C90 H93 0.931 . S
C91 C87 1.391 . S
C91 C90 1.371 . S
C91 H98 0.930 . S
H92 C89 0.928 . S
H93 C90 0.931 . S
H94 C70 0.930 . S
H95 C67 0.930 . S
H96 C76 0.930 . S
H97 C88 0.929 . S
H98 C91 0.930 . S
C99 C100 1.351 . S
C99 N102 1.368 . S
C99 H104 0.931 . S
C100 C99 1.351 . S
C100 N101 1.373 . S
C100 H128 0.930 . S
N101 C100 1.373 . S
N101 C103 1.340 . S
N102 C99 1.368 . S
N102 C103 1.321 . S
N102 Co105 2.135 . S
C103 N101 1.340 . S
C103 N102 1.321 . S
C103 H127 0.930 . S
H104 C99 0.931 . S
Co105 N102 2.135 . S
Co105 N108 2.121 . S
Co105 O113 2.055 . S
Co105 O116 2.039 . S
Co105 N119 2.140 . S
C106 O107 1.227 . S
C106 O116 1.265 . S
O107 C106 1.227 . S
N108 Co105 2.121 . S
N108 C110 1.375 . S
N108 C111 1.313 . S
C109 C110 1.338 1_556 S
C109 N112 1.377 . S
C109 H129 0.930 . S
C110 N108 1.375 . S
C110 C109 1.338 1_554 S
C110 H114 0.931 . S
C111 N108 1.313 . S
C111 N112 1.344 1_554 S
C111 H115 0.930 1_554 S
N112 C109 1.377 . S
N112 C111 1.344 1_556 S
O113 Co105 2.055 . S
O113 C117 1.253 . S
H114 C110 0.931 . S
H115 C111 0.930 1_556 S
O116 Co105 2.039 . S
O116 C106 1.265 . S
C117 O113 1.253 . S
C117 O118 1.227 . S
O118 C117 1.227 . S
N119 Co105 2.140 . S
N119 C122 1.346 . S
N119 C123 1.345 . S
C120 C121 1.387 . S
C120 C124 1.391 . S
C121 C120 1.387 . S
C121 C122 1.369 . S
C121 H130 0.929 . S
C122 N119 1.346 . S
C122 C121 1.369 . S
C122 H125 0.928 . S
C123 N119 1.345 . S
C123 C124 1.371 . S
C123 H126 0.931 . S
C124 C120 1.391 . S
C124 C123 1.371 . S
C124 H131 0.930 . S
H125 C122 0.928 . S
H126 C123 0.931 . S
H127 C103 0.930 . S
H128 C100 0.930 . S
H129 C109 0.930 . S
H130 C121 0.929 . S
H131 C124 0.930 . S
C132 C133 1.351 . S
C132 N135 1.368 . S
C132 H137 0.931 . S
C133 C132 1.351 . S
C133 N134 1.373 . S
C133 H161 0.930 . S
N134 C133 1.373 . S
N134 C136 1.340 . S
N135 C132 1.368 . S
N135 C136 1.321 . S
N135 Co138 2.135 . S
C136 N134 1.340 . S
C136 N135 1.321 . S
C136 H160 0.930 . S
H137 C132 0.931 . S
Co138 N135 2.135 . S
Co138 N141 2.121 . S
Co138 O146 2.055 . S
Co138 O149 2.039 . S
Co138 N152 2.140 . S
C139 O140 1.227 . S
C139 O149 1.265 . S
O140 C139 1.227 . S
N141 Co138 2.121 . S
N141 C143 1.375 . S
N141 C144 1.313 . S
C142 C143 1.338 . S
C142 N145 1.377 . S
C142 H162 0.930 . S
C143 N141 1.375 . S
C143 C142 1.338 . S
C143 H147 0.931 . S
C144 N141 1.313 . S
C144 N145 1.344 . S
C144 H148 0.930 . S
N145 C142 1.377 . S
N145 C144 1.344 . S
O146 Co138 2.055 . S
O146 C150 1.253 . S
H147 C143 0.931 . S
H148 C144 0.930 . S
O149 Co138 2.039 . S
O149 C139 1.265 . S
C150 O146 1.253 . S
C150 O151 1.227 . S
O151 C150 1.227 . S
N152 Co138 2.140 . S
N152 C155 1.346 . S
N152 C156 1.345 . S
C153 C154 1.387 . S
C153 C157 1.391 . S
C154 C153 1.387 . S
C154 C155 1.369 . S
C154 H163 0.929 . S
C155 N152 1.346 . S
C155 C154 1.369 . S
C155 H158 0.928 . S
C156 N152 1.345 . S
C156 C157 1.371 . S
C156 H159 0.931 . S
C157 C153 1.391 . S
C157 C156 1.371 . S
C157 H164 0.930 . S
H158 C155 0.928 . S
H159 C156 0.931 . S
H160 C136 0.930 . S
H161 C133 0.930 . S
H162 C142 0.930 . S
H163 C154 0.929 . S
H164 C157 0.930 . S
C165 C166 1.351 . S
C165 N168 1.368 . S
C165 H170 0.931 . S
C166 C165 1.351 . S
C166 N167 1.373 . S
C166 H194 0.930 . S
N167 C166 1.373 . S
N167 C169 1.340 . S
N168 C165 1.368 . S
N168 C169 1.321 . S
N168 Co171 2.135 1_554 S
C169 N167 1.340 . S
C169 N168 1.321 . S
C169 H193 0.930 . S
H170 C165 0.931 . S
Co171 N168 2.135 1_556 S
Co171 N174 2.121 . S
Co171 O179 2.055 . S
Co171 O182 2.039 . S
Co171 N185 2.140 . S
C172 O173 1.227 . S
C172 O182 1.265 . S
O173 C172 1.227 . S
N174 Co171 2.121 . S
N174 C176 1.375 . S
N174 C177 1.313 . S
C175 C176 1.338 . S
C175 N178 1.377 . S
C175 H195 0.930 . S
C176 N174 1.375 . S
C176 C175 1.338 . S
C176 H180 0.931 . S
C177 N174 1.313 . S
C177 N178 1.344 . S
C177 H181 0.930 . S
N178 C175 1.377 . S
N178 C177 1.344 . S
O179 Co171 2.055 . S
O179 C183 1.253 . S
H180 C176 0.931 . S
H181 C177 0.930 . S
O182 Co171 2.039 . S
O182 C172 1.265 . S
C183 O179 1.253 . S
C183 O184 1.227 . S
O184 C183 1.227 . S
N185 Co171 2.140 . S
N185 C188 1.346 1_556 S
N185 C189 1.345 . S
C186 C187 1.387 1_556 S
C186 C190 1.391 . S
C187 C186 1.387 1_554 S
C187 C188 1.369 . S
C187 H196 0.929 . S
C188 N185 1.346 1_554 S
C188 C187 1.369 . S
C188 H191 0.928 . S
C189 N185 1.345 . S
C189 C190 1.371 . S
C189 H192 0.931 . S
C190 C186 1.391 . S
C190 C189 1.371 . S
C190 H197 0.930 . S
H191 C188 0.928 . S
H192 C189 0.931 . S
H193 C169 0.930 . S
H194 C166 0.930 . S
H195 C175 0.930 . S
H196 C187 0.929 . S
H197 C190 0.930 . S
C198 C199 1.351 . S
C198 N201 1.368 . S
C198 H203 0.931 . S
C199 C198 1.351 . S
C199 N200 1.373 . S
C199 H227 0.930 . S
N200 C199 1.373 . S
N200 C202 1.340 . S
N201 C198 1.368 . S
N201 C202 1.321 . S
N201 Co204 2.135 . S
C202 N200 1.340 . S
C202 N201 1.321 . S
C202 H226 0.930 . S
H203 C198 0.931 . S
Co204 N201 2.135 . S
Co204 N207 2.121 . S
Co204 O212 2.055 . S
Co204 O215 2.039 . S
Co204 N218 2.140 . S
C205 O206 1.227 . S
C205 O215 1.265 . S
O206 C205 1.227 . S
N207 Co204 2.121 . S
N207 C209 1.375 . S
N207 C210 1.313 . S
C208 C209 1.338 . S
C208 N211 1.377 . S
C208 H228 0.930 . S
C209 N207 1.375 . S
C209 C208 1.338 . S
C209 H213 0.931 . S
C210 N207 1.313 . S
C210 N211 1.344 . S
C210 H214 0.930 . S
N211 C208 1.377 . S
N211 C210 1.344 . S
O212 Co204 2.055 . S
O212 C216 1.253 . S
H213 C209 0.931 . S
H214 C210 0.930 . S
O215 Co204 2.039 . S
O215 C205 1.265 . S
C216 O212 1.253 . S
C216 O217 1.227 . S
O217 C216 1.227 . S
N218 Co204 2.140 . S
N218 C221 1.346 . S
N218 C222 1.345 . S
C219 C220 1.387 . S
C219 C223 1.391 . S
C220 C219 1.387 . S
C220 C221 1.369 . S
C220 H229 0.929 . S
C221 N218 1.346 . S
C221 C220 1.369 . S
C221 H224 0.928 . S
C222 N218 1.345 . S
C222 C223 1.371 . S
C222 H225 0.931 . S
C223 C219 1.391 . S
C223 C222 1.371 . S
C223 H230 0.930 . S
H224 C221 0.928 . S
H225 C222 0.931 . S
H226 C202 0.930 . S
H227 C199 0.930 . S
H228 C208 0.930 . S
H229 C220 0.929 . S
H230 C223 0.930 . S
C231 C232 1.351 . S
C231 N234 1.368 . S
C231 H236 0.931 . S
C232 C231 1.351 . S
C232 N233 1.373 . S
C232 H260 0.930 . S
N233 C232 1.373 . S
N233 C235 1.340 . S
N234 C231 1.368 . S
N234 C235 1.321 . S
N234 Co237 2.135 . S
C235 N233 1.340 . S
C235 N234 1.321 . S
C235 H259 0.930 . S
H236 C231 0.931 . S
Co237 N234 2.135 . S
Co237 N240 2.121 . S
Co237 O245 2.055 . S
Co237 O248 2.039 . S
Co237 N251 2.140 . S
C238 O239 1.227 . S
C238 O248 1.265 . S
O239 C238 1.227 . S
N240 Co237 2.121 . S
N240 C242 1.375 . S
N240 C243 1.313 . S
C241 C242 1.338 1_554 S
C241 N244 1.377 . S
C241 H261 0.930 . S
C242 N240 1.375 . S
C242 C241 1.338 1_556 S
C242 H246 0.931 . S
C243 N240 1.313 . S
C243 N244 1.344 1_556 S
C243 H247 0.930 1_556 S
N244 C241 1.377 . S
N244 C243 1.344 1_554 S
O245 Co237 2.055 . S
O245 C249 1.253 . S
H246 C242 0.931 . S
H247 C243 0.930 1_554 S
O248 Co237 2.039 . S
O248 C238 1.265 . S
C249 O245 1.253 . S
C249 O250 1.227 . S
O250 C249 1.227 . S
N251 Co237 2.140 . S
N251 C254 1.346 . S
N251 C255 1.345 . S
C252 C253 1.387 . S
C252 C256 1.391 . S
C253 C252 1.387 . S
C253 C254 1.369 . S
C253 H262 0.929 . S
C254 N251 1.346 . S
C254 C253 1.369 . S
C254 H257 0.928 . S
C255 N251 1.345 . S
C255 C256 1.371 . S
C255 H258 0.931 . S
C256 C252 1.391 . S
C256 C255 1.371 . S
C256 H263 0.930 . S
H257 C254 0.928 . S
H258 C255 0.931 . S
H259 C235 0.930 . S
H260 C232 0.930 . S
H261 C241 0.930 . S
H262 C253 0.929 . S
H263 C256 0.930 . S
C264 C265 1.351 . S
C264 N267 1.368 . S
C264 H269 0.931 . S
C265 C264 1.351 . S
C265 N266 1.373 . S
C265 H293 0.930 . S
N266 C265 1.373 . S
N266 C268 1.340 . S
N267 C264 1.368 . S
N267 C268 1.321 . S
N267 Co270 2.135 1_556 S
C268 N266 1.340 . S
C268 N267 1.321 . S
C268 H292 0.930 . S
H269 C264 0.931 . S
Co270 N267 2.135 1_554 S
Co270 N273 2.121 . S
Co270 O278 2.055 . S
Co270 O281 2.039 . S
Co270 N284 2.140 . S
C271 O272 1.227 . S
C271 O281 1.265 . S
O272 C271 1.227 . S
N273 Co270 2.121 . S
N273 C275 1.375 . S
N273 C276 1.313 . S
C274 C275 1.338 . S
C274 N277 1.377 . S
C274 H294 0.930 . S
C275 N273 1.375 . S
C275 C274 1.338 . S
C275 H279 0.931 . S
C276 N273 1.313 . S
C276 N277 1.344 . S
C276 H280 0.930 . S
N277 C274 1.377 . S
N277 C276 1.344 . S
O278 Co270 2.055 . S
O278 C282 1.253 . S
H279 C275 0.931 . S
H280 C276 0.930 . S
O281 Co270 2.039 . S
O281 C271 1.265 . S
C282 O278 1.253 . S
C282 O283 1.227 . S
O283 C282 1.227 . S
N284 Co270 2.140 . S
N284 C287 1.346 1_554 S
N284 C288 1.345 . S
C285 C286 1.387 1_554 S
C285 C289 1.391 . S
C286 C285 1.387 1_556 S
C286 C287 1.369 . S
C286 H295 0.929 . S
C287 N284 1.346 1_556 S
C287 C286 1.369 . S
C287 H290 0.928 . S
C288 N284 1.345 . S
C288 C289 1.371 . S
C288 H291 0.931 . S
C289 C285 1.391 . S
C289 C288 1.371 . S
C289 H296 0.930 . S
H290 C287 0.928 . S
H291 C288 0.931 . S
H292 C268 0.930 . S
H293 C265 0.930 . S
H294 C274 0.930 . S
H295 C286 0.929 . S
H296 C289 0.930 . S
C297 C298 1.351 . S
C297 N300 1.368 . S
C297 H302 0.931 . S
C298 C297 1.351 . S
C298 N299 1.373 . S
C298 H326 0.930 . S
N299 C298 1.373 . S
N299 C301 1.340 . S
N300 C297 1.368 . S
N300 C301 1.321 . S
N300 Co303 2.135 . S
C301 N299 1.340 . S
C301 N300 1.321 . S
C301 H325 0.930 . S
H302 C297 0.931 . S
Co303 N300 2.135 . S
Co303 N306 2.121 . S
Co303 O311 2.055 . S
Co303 O314 2.039 . S
Co303 N317 2.140 . S
C304 O305 1.227 . S
C304 O314 1.265 . S
O305 C304 1.227 . S
N306 Co303 2.121 . S
N306 C308 1.375 . S
N306 C309 1.313 . S
C307 C308 1.338 . S
C307 N310 1.377 . S
C307 H327 0.930 . S
C308 N306 1.375 . S
C308 C307 1.338 . S
C308 H312 0.931 . S
C309 N306 1.313 . S
C309 N310 1.344 . S
C309 H313 0.930 . S
N310 C307 1.377 . S
N310 C309 1.344 . S
O311 Co303 2.055 . S
O311 C315 1.253 . S
H312 C308 0.931 . S
H313 C309 0.930 . S
O314 Co303 2.039 . S
O314 C304 1.265 . S
C315 O311 1.253 . S
C315 O316 1.227 . S
O316 C315 1.227 . S
N317 Co303 2.140 . S
N317 C320 1.346 . S
N317 C321 1.345 . S
C318 C319 1.387 . S
C318 C322 1.391 . S
C319 C318 1.387 . S
C319 C320 1.369 . S
C319 H328 0.929 . S
C320 N317 1.346 . S
C320 C319 1.369 . S
C320 H323 0.928 . S
C321 N317 1.345 . S
C321 C322 1.371 . S
C321 H324 0.931 . S
C322 C318 1.391 . S
C322 C321 1.371 . S
C322 H329 0.930 . S
H323 C320 0.928 . S
H324 C321 0.931 . S
H325 C301 0.930 . S
H326 C298 0.930 . S
H327 C307 0.930 . S
H328 C319 0.929 . S
H329 C322 0.930 . S
C330 C331 1.351 . S
C330 N333 1.368 . S
C330 H335 0.931 . S
C331 C330 1.351 . S
C331 N332 1.373 . S
C331 H359 0.930 . S
N332 C331 1.373 . S
N332 C334 1.340 . S
N333 C330 1.368 . S
N333 C334 1.321 . S
N333 Co336 2.135 . S
C334 N332 1.340 . S
C334 N333 1.321 . S
C334 H358 0.930 . S
H335 C330 0.931 . S
Co336 N333 2.135 . S
Co336 N339 2.121 . S
Co336 O344 2.055 . S
Co336 O347 2.039 . S
Co336 N350 2.140 . S
C337 O338 1.227 . S
C337 O347 1.265 . S
O338 C337 1.227 . S
N339 Co336 2.121 . S
N339 C341 1.375 . S
N339 C342 1.313 . S
C340 C341 1.338 1_554 S
C340 N343 1.377 . S
C340 H360 0.930 . S
C341 N339 1.375 . S
C341 C340 1.338 1_556 S
C341 H345 0.931 . S
C342 N339 1.313 . S
C342 N343 1.344 1_556 S
C342 H346 0.930 1_556 S
N343 C340 1.377 . S
N343 C342 1.344 1_554 S
O344 Co336 2.055 . S
O344 C348 1.253 . S
H345 C341 0.931 . S
H346 C342 0.930 1_554 S
O347 Co336 2.039 . S
O347 C337 1.265 . S
C348 O344 1.253 . S
C348 O349 1.227 . S
O349 C348 1.227 . S
N350 Co336 2.140 . S
N350 C353 1.346 . S
N350 C354 1.345 . S
C351 C352 1.387 . S
C351 C355 1.391 . S
C352 C351 1.387 . S
C352 C353 1.369 . S
C352 H361 0.929 . S
C353 N350 1.346 . S
C353 C352 1.369 . S
C353 H356 0.928 . S
C354 N350 1.345 . S
C354 C355 1.371 . S
C354 H357 0.931 . S
C355 C351 1.391 . S
C355 C354 1.371 . S
C355 H362 0.930 . S
H356 C353 0.928 . S
H357 C354 0.931 . S
H358 C334 0.930 . S
H359 C331 0.930 . S
H360 C340 0.930 . S
H361 C352 0.929 . S
H362 C355 0.930 . S
C363 C364 1.351 . S
C363 N366 1.368 . S
C363 H368 0.931 . S
C364 C363 1.351 . S
C364 N365 1.373 . S
C364 H392 0.930 . S
N365 C364 1.373 . S
N365 C367 1.340 . S
N366 C363 1.368 . S
N366 C367 1.321 . S
N366 Co369 2.135 1_556 S
C367 N365 1.340 . S
C367 N366 1.321 . S
C367 H391 0.930 . S
H368 C363 0.931 . S
Co369 N366 2.135 1_554 S
Co369 N372 2.121 . S
Co369 O377 2.055 . S
Co369 O380 2.039 . S
Co369 N383 2.140 . S
C370 O371 1.227 . S
C370 O380 1.265 . S
O371 C370 1.227 . S
N372 Co369 2.121 . S
N372 C374 1.375 . S
N372 C375 1.313 . S
C373 C374 1.338 . S
C373 N376 1.377 . S
C373 H393 0.930 . S
C374 N372 1.375 . S
C374 C373 1.338 . S
C374 H378 0.931 . S
C375 N372 1.313 . S
C375 N376 1.344 . S
C375 H379 0.930 . S
N376 C373 1.377 . S
N376 C375 1.344 . S
O377 Co369 2.055 . S
O377 C381 1.253 . S
H378 C374 0.931 . S
H379 C375 0.930 . S
O380 Co369 2.039 . S
O380 C370 1.265 . S
C381 O377 1.253 . S
C381 O382 1.227 . S
O382 C381 1.227 . S
N383 Co369 2.140 . S
N383 C386 1.346 1_554 S
N383 C387 1.345 . S
C384 C385 1.387 1_554 S
C384 C388 1.391 . S
C385 C384 1.387 1_556 S
C385 C386 1.369 . S
C385 H394 0.929 . S
C386 N383 1.346 1_556 S
C386 C385 1.369 . S
C386 H389 0.928 . S
C387 N383 1.345 . S
C387 C388 1.371 . S
C387 H390 0.931 . S
C388 C384 1.391 . S
C388 C387 1.371 . S
C388 H395 0.930 . S
H389 C386 0.928 . S
H390 C387 0.931 . S
H391 C367 0.930 . S
H392 C364 0.930 . S
H393 C373 0.930 . S
H394 C385 0.929 . S
H395 C388 0.930 . S
C396 C397 1.369 . S
C396 C398 1.419 1_554 S
C396 H400 0.930 . S
C397 C396 1.369 . S
C397 C406 1.429 . S
C398 C396 1.419 1_556 S
C398 C399 1.363 . S
C398 H401 0.929 . S
C399 C398 1.363 . S
C399 C405 1.428 . S
H400 C396 0.930 . S
H401 C398 0.929 . S
S402 N403 1.613 1_556 S
S402 N404 1.610 . S
N403 S402 1.613 1_554 S
N403 C406 1.350 . S
N404 S402 1.610 . S
N404 C405 1.351 . S
C405 C399 1.428 . S
C405 N404 1.351 . S
C405 C406 1.434 1_556 S
C406 C397 1.429 . S
C406 N403 1.350 . S
C406 C405 1.434 1_554 S
C407 C408 1.369 . S
C407 C409 1.419 . S
C407 H411 0.930 . S
C408 C407 1.369 . S
C408 C417 1.429 . S
C409 C407 1.419 . S
C409 C410 1.363 . S
C409 H412 0.929 . S
C410 C409 1.363 . S
C410 C416 1.428 . S
H411 C407 0.930 . S
H412 C409 0.929 . S
S413 N414 1.613 . S
S413 N415 1.610 . S
N414 S413 1.613 . S
N414 C417 1.350 . S
N415 S413 1.610 . S
N415 C416 1.351 . S
C416 C410 1.428 . S
C416 N415 1.351 . S
C416 C417 1.434 . S
C417 C408 1.429 . S
C417 N414 1.350 . S
C417 C416 1.434 . S
C418 C419 1.369 . S
C418 C420 1.419 . S
C418 H422 0.930 . S
C419 C418 1.369 . S
C419 C428 1.429 . S
C420 C418 1.419 . S
C420 C421 1.363 . S
C420 H423 0.929 . S
C421 C420 1.363 . S
C421 C427 1.428 . S
H422 C418 0.930 . S
H423 C420 0.929 . S
S424 N425 1.613 . S
S424 N426 1.610 . S
N425 S424 1.613 . S
N425 C428 1.350 . S
N426 S424 1.610 . S
N426 C427 1.351 . S
C427 C421 1.428 . S
C427 N426 1.351 . S
C427 C428 1.434 . S
C428 C419 1.429 . S
C428 N425 1.350 . S
C428 C427 1.434 . S
C429 C430 1.369 . S
C429 C431 1.419 1_556 S
C429 H433 0.930 . S
C430 C429 1.369 . S
C430 C439 1.429 . S
C431 C429 1.419 1_554 S
C431 C432 1.363 . S
C431 H434 0.929 . S
C432 C431 1.363 . S
C432 C438 1.428 . S
H433 C429 0.930 . S
H434 C431 0.929 . S
S435 N436 1.613 . S
S435 N437 1.610 1_556 S
N436 S435 1.613 . S
N436 C439 1.350 . S
N437 S435 1.610 1_554 S
N437 C438 1.351 . S
C438 C432 1.428 . S
C438 N437 1.351 . S
C438 C439 1.434 1_554 S
C439 C430 1.429 . S
C439 N436 1.350 . S
C439 C438 1.434 1_556 S
C440 C441 1.369 . S
C440 C442 1.419 . S
C440 H444 0.930 . S
C441 C440 1.369 . S
C441 C450 1.429 . S
C442 C440 1.419 . S
C442 C443 1.363 . S
C442 H445 0.929 . S
C443 C442 1.363 . S
C443 C449 1.428 . S
H444 C440 0.930 . S
H445 C442 0.929 . S
S446 N447 1.613 . S
S446 N448 1.610 . S
N447 S446 1.613 . S
N447 C450 1.350 . S
N448 S446 1.610 . S
N448 C449 1.351 . S
C449 C443 1.428 . S
C449 N448 1.351 . S
C449 C450 1.434 . S
C450 C441 1.429 . S
C450 N447 1.350 . S
C450 C449 1.434 . S
C451 C452 1.369 . S
C451 C453 1.419 . S
C451 H455 0.930 . S
C452 C451 1.369 . S
C452 C461 1.429 . S
C453 C451 1.419 . S
C453 C454 1.363 . S
C453 H456 0.929 . S
C454 C453 1.363 . S
C454 C460 1.428 . S
H455 C451 0.930 . S
H456 C453 0.929 . S
S457 N458 1.613 . S
S457 N459 1.610 . S
N458 S457 1.613 . S
N458 C461 1.350 . S
N459 S457 1.610 . S
N459 C460 1.351 . S
C460 C454 1.428 . S
C460 N459 1.351 . S
C460 C461 1.434 . S
C461 C452 1.429 . S
C461 N458 1.350 . S
C461 C460 1.434 . S
C462 C463 1.369 . S
C462 C464 1.419 . S
C462 H466 0.930 . S
C463 C462 1.369 . S
C463 C472 1.429 . S
C464 C462 1.419 . S
C464 C465 1.363 . S
C464 H467 0.929 . S
C465 C464 1.363 . S
C465 C471 1.428 . S
H466 C462 0.930 . S
H467 C464 0.929 . S
S468 N469 1.613 . S
S468 N470 1.610 . S
N469 S468 1.613 . S
N469 C472 1.350 . S
N470 S468 1.610 . S
N470 C471 1.351 . S
C471 C465 1.428 . S
C471 N470 1.351 . S
C471 C472 1.434 . S
C472 C463 1.429 . S
C472 N469 1.350 . S
C472 C471 1.434 . S
C473 C474 1.369 . S
C473 C475 1.419 . S
C473 H477 0.930 . S
C474 C473 1.369 . S
C474 C483 1.429 . S
C475 C473 1.419 . S
C475 C476 1.363 . S
C475 H478 0.929 . S
C476 C475 1.363 . S
C476 C482 1.428 . S
H477 C473 0.930 . S
H478 C475 0.929 . S
S479 N480 1.613 . S
S479 N481 1.610 . S
N480 S479 1.613 . S
N480 C483 1.350 . S
N481 S479 1.610 . S
N481 C482 1.351 . S
C482 C476 1.428 . S
C482 N481 1.351 . S
C482 C483 1.434 . S
C483 C474 1.429 . S
C483 N480 1.350 . S
C483 C482 1.434 . S
C484 C485 1.369 1_554 S
C484 C486 1.419 . S
C484 H488 0.930 . S
C485 C484 1.369 1_556 S
C485 C494 1.429 . S
C486 C484 1.419 . S
C486 C487 1.363 . S
C486 H489 0.929 . S
C487 C486 1.363 . S
C487 C493 1.428 1_554 S
H488 C484 0.930 . S
H489 C486 0.929 . S
S490 N491 1.613 . S
S490 N492 1.610 . S
N491 S490 1.613 . S
N491 C494 1.350 . S
N492 S490 1.610 . S
N492 C493 1.351 . S
C493 C487 1.428 1_556 S
C493 N492 1.351 . S
C493 C494 1.434 . S
C494 C485 1.429 . S
C494 N491 1.350 . S
C494 C493 1.434 . S
C495 C496 1.369 . S
C495 C497 1.419 . S
C495 H499 0.930 . S
C496 C495 1.369 . S
C496 C505 1.429 . S
C497 C495 1.419 . S
C497 C498 1.363 . S
C497 H500 0.929 . S
C498 C497 1.363 . S
C498 C504 1.428 . S
H499 C495 0.930 . S
H500 C497 0.929 . S
S501 N502 1.613 . S
S501 N503 1.610 . S
N502 S501 1.613 . S
N502 C505 1.350 . S
N503 S501 1.610 . S
N503 C504 1.351 . S
C504 C498 1.428 . S
C504 N503 1.351 . S
C504 C505 1.434 . S
C505 C496 1.429 . S
C505 N502 1.350 . S
C505 C504 1.434 . S
C506 C507 1.369 . S
C506 C508 1.419 . S
C506 H510 0.930 . S
C507 C506 1.369 . S
C507 C516 1.429 . S
C508 C506 1.419 . S
C508 C509 1.363 . S
C508 H511 0.929 . S
C509 C508 1.363 . S
C509 C515 1.428 . S
H510 C506 0.930 . S
H511 C508 0.929 . S
S512 N513 1.613 . S
S512 N514 1.610 . S
N513 S512 1.613 . S
N513 C516 1.350 . S
N514 S512 1.610 . S
N514 C515 1.351 . S
C515 C509 1.428 . S
C515 N514 1.351 . S
C515 C516 1.434 . S
C516 C507 1.429 . S
C516 N513 1.350 . S
C516 C515 1.434 . S
C517 C518 1.369 1_556 S
C517 C519 1.419 . S
C517 H521 0.930 . S
C518 C517 1.369 1_554 S
C518 C527 1.429 . S
C519 C517 1.419 . S
C519 C520 1.363 . S
C519 H522 0.929 . S
C520 C519 1.363 . S
C520 C526 1.428 1_556 S
H521 C517 0.930 . S
H522 C519 0.929 . S
S523 N524 1.613 . S
S523 N525 1.610 . S
N524 S523 1.613 . S
N524 C527 1.350 . S
N525 S523 1.610 . S
N525 C526 1.351 . S
C526 C520 1.428 1_554 S
C526 N525 1.351 . S
C526 C527 1.434 . S
C527 C518 1.429 . S
C527 N524 1.350 . S
C527 C526 1.434 . S
C528 C529 1.369 . S
C528 C530 1.419 . S
C528 H532 0.930 . S
C529 C528 1.369 . S
C529 C538 1.429 . S
C530 C528 1.419 . S
C530 C531 1.363 . S
C530 H533 0.929 . S
C531 C530 1.363 . S
C531 C537 1.428 . S
H532 C528 0.930 . S
H533 C530 0.929 . S
S534 N535 1.613 . S
S534 N536 1.610 . S
N535 S534 1.613 . S
N535 C538 1.350 . S
N536 S534 1.610 . S
N536 C537 1.351 . S
C537 C531 1.428 . S
C537 N536 1.351 . S
C537 C538 1.434 . S
C538 C529 1.429 . S
C538 N535 1.350 . S
C538 C537 1.434 . S
C539 C540 1.369 . S
C539 C541 1.419 1_455 S
C539 H543 0.930 . S
C540 C539 1.369 . S
C540 C549 1.429 . S
C541 C539 1.419 1_655 S
C541 C542 1.363 . S
C541 H544 0.929 . S
C542 C541 1.363 . S
C542 C548 1.428 . S
H543 C539 0.930 . S
H544 C541 0.929 . S
S545 N546 1.613 1_655 S
S545 N547 1.610 . S
N546 S545 1.613 1_455 S
N546 C549 1.350 . S
N547 S545 1.610 . S
N547 C548 1.351 . S
C548 C542 1.428 . S
C548 N547 1.351 . S
C548 C549 1.434 1_655 S
C549 C540 1.429 . S
C549 N546 1.350 . S
C549 C548 1.434 1_455 S
C550 C551 1.369 1_556 S
C550 C552 1.419 1_545 S
C550 H554 0.930 . S
C551 C550 1.369 1_554 S
C551 C560 1.429 . S
C552 C550 1.419 1_565 S
C552 C553 1.363 . S
C552 H555 0.929 . S
C553 C552 1.363 . S
C553 C559 1.428 1_556 S
H554 C550 0.930 . S
H555 C552 0.929 . S
S556 N557 1.613 1_565 S
S556 N558 1.610 . S
N557 S556 1.613 1_545 S
N557 C560 1.350 . S
N558 S556 1.610 . S
N558 C559 1.351 . S
C559 C553 1.428 1_554 S
C559 N558 1.351 . S
C559 C560 1.434 1_565 S
C560 C551 1.429 . S
C560 N557 1.350 . S
C560 C559 1.434 1_545 S
C561 C562 1.369 . S
C561 C563 1.419 . S
C561 H565 0.930 . S
C562 C561 1.369 . S
C562 C571 1.429 . S
C563 C561 1.419 . S
C563 C564 1.363 . S
C563 H566 0.929 . S
C564 C563 1.363 . S
C564 C570 1.428 . S
H565 C561 0.930 . S
H566 C563 0.929 . S
S567 N568 1.613 . S
S567 N569 1.610 . S
N568 S567 1.613 . S
N568 C571 1.350 . S
N569 S567 1.610 . S
N569 C570 1.351 . S
C570 C564 1.428 . S
C570 N569 1.351 . S
C570 C571 1.434 . S
C571 C562 1.429 . S
C571 N568 1.350 . S
C571 C570 1.434 . S
C572 C573 1.369 . S
C572 C574 1.419 1_455 S
C572 H576 0.930 . S
C573 C572 1.369 . S
C573 C582 1.429 . S
C574 C572 1.419 1_655 S
C574 C575 1.363 . S
C574 H577 0.929 . S
C575 C574 1.363 . S
C575 C581 1.428 . S
H576 C572 0.930 . S
H577 C574 0.929 . S
S578 N579 1.613 1_655 S
S578 N580 1.610 . S
N579 S578 1.613 1_455 S
N579 C582 1.350 . S
N580 S578 1.610 . S
N580 C581 1.351 . S
C581 C575 1.428 . S
C581 N580 1.351 . S
C581 C582 1.434 1_655 S
C582 C573 1.429 . S
C582 N579 1.350 . S
C582 C581 1.434 1_455 S
C583 C584 1.369 . S
C583 C585 1.419 1_545 S
C583 H587 0.930 . S
C584 C583 1.369 . S
C584 C593 1.429 1_556 S
C585 C583 1.419 1_565 S
C585 C586 1.363 1_556 S
C585 H588 0.929 . S
C586 C585 1.363 1_554 S
C586 C592 1.428 . S
H587 C583 0.930 . S
H588 C585 0.929 . S
S589 N590 1.613 . S
S589 N591 1.610 1_545 S
N590 S589 1.613 . S
N590 C593 1.350 . S
N591 S589 1.610 1_565 S
N591 C592 1.351 . S
C592 C586 1.428 . S
C592 N591 1.351 . S
C592 C593 1.434 1_565 S
C593 C584 1.429 1_554 S
C593 N590 1.350 . S
C593 C592 1.434 1_545 S
C594 C595 1.369 . S
C594 C596 1.419 . S
C594 H598 0.930 . S
C595 C594 1.369 . S
C595 C604 1.429 . S
C596 C594 1.419 . S
C596 C597 1.363 . S
C596 H599 0.929 . S
C597 C596 1.363 . S
C597 C603 1.428 . S
H598 C594 0.930 . S
H599 C596 0.929 . S
S600 N601 1.613 . S
S600 N602 1.610 . S
N601 S600 1.613 . S
N601 C604 1.350 . S
N602 S600 1.610 . S
N602 C603 1.351 . S
C603 C597 1.428 . S
C603 N602 1.351 . S
C603 C604 1.434 . S
C604 C595 1.429 . S
C604 N601 1.350 . S
C604 C603 1.434 . S
C605 C606 1.369 . S
C605 C607 1.419 1_554 S
C605 H609 0.930 . S
C606 C605 1.369 . S
C606 C615 1.429 . S
C607 C605 1.419 1_556 S
C607 C608 1.363 . S
C607 H610 0.929 . S
C608 C607 1.363 . S
C608 C614 1.428 1_556 S
H609 C605 0.930 . S
H610 C607 0.929 . S
S611 N612 1.613 . S
S611 N613 1.610 . S
N612 S611 1.613 . S
N612 C615 1.350 . S
N613 S611 1.610 . S
N613 C614 1.351 . S
C614 C608 1.428 1_554 S
C614 N613 1.351 . S
C614 C615 1.434 . S
C615 C606 1.429 . S
C615 N612 1.350 . S
C615 C614 1.434 . S
C616 C617 1.369 . S
C616 C618 1.419 . S
C616 H620 0.930 . S
C617 C616 1.369 . S
C617 C626 1.429 . S
C618 C616 1.419 . S
C618 C619 1.363 . S
C618 H621 0.929 . S
C619 C618 1.363 . S
C619 C625 1.428 . S
H620 C616 0.930 . S
H621 C618 0.929 . S
S622 N623 1.613 . S
S622 N624 1.610 . S
N623 S622 1.613 . S
N623 C626 1.350 . S
N624 S622 1.610 . S
N624 C625 1.351 . S
C625 C619 1.428 . S
C625 N624 1.351 . S
C625 C626 1.434 . S
C626 C617 1.429 . S
C626 N623 1.350 . S
C626 C625 1.434 . S
C627 C628 1.369 . S
C627 C629 1.419 . S
C627 H631 0.930 . S
C628 C627 1.369 . S
C628 C637 1.429 . S
C629 C627 1.419 . S
C629 C630 1.363 . S
C629 H632 0.929 . S
C630 C629 1.363 . S
C630 C636 1.428 . S
H631 C627 0.930 . S
H632 C629 0.929 . S
S633 N634 1.613 . S
S633 N635 1.610 . S
N634 S633 1.613 . S
N634 C637 1.350 . S
N635 S633 1.610 . S
N635 C636 1.351 . S
C636 C630 1.428 . S
C636 N635 1.351 . S
C636 C637 1.434 . S
C637 C628 1.429 . S
C637 N634 1.350 . S
C637 C636 1.434 . S
C638 C639 1.369 . S
C638 C640 1.419 1_554 S
C638 H642 0.930 . S
C639 C638 1.369 . S
C639 C648 1.429 . S
C640 C638 1.419 1_556 S
C640 C641 1.363 . S
C640 H643 0.929 . S
C641 C640 1.363 . S
C641 C647 1.428 1_556 S
H642 C638 0.930 . S
H643 C640 0.929 . S
S644 N645 1.613 . S
S644 N646 1.610 . S
N645 S644 1.613 . S
N645 C648 1.350 . S
N646 S644 1.610 . S
N646 C647 1.351 . S
C647 C641 1.428 1_554 S
C647 N646 1.351 . S
C647 C648 1.434 . S
C648 C639 1.429 . S
C648 N645 1.350 . S
C648 C647 1.434 . S
C649 C650 1.369 . S
C649 C651 1.419 . S
C649 H653 0.930 . S
C650 C649 1.369 . S
C650 C659 1.429 . S
C651 C649 1.419 . S
C651 C652 1.363 . S
C651 H654 0.929 . S
C652 C651 1.363 . S
C652 C658 1.428 . S
H653 C649 0.930 . S
H654 C651 0.929 . S
S655 N656 1.613 . S
S655 N657 1.610 . S
N656 S655 1.613 . S
N656 C659 1.350 . S
N657 S655 1.610 . S
N657 C658 1.351 . S
C658 C652 1.428 . S
C658 N657 1.351 . S
C658 C659 1.434 . S
C659 C650 1.429 . S
C659 N656 1.350 . S
C659 C658 1.434 . S
C660 C661 1.369 1_556 S
C660 C662 1.419 . S
C660 H664 0.930 . S
C661 C660 1.369 1_554 S
C661 C670 1.429 1_554 S
C662 C660 1.419 . S
C662 C663 1.363 . S
C662 H665 0.929 . S
C663 C662 1.363 . S
C663 C669 1.428 . S
H664 C660 0.930 . S
H665 C662 0.929 . S
S666 N667 1.613 1_556 S
S666 N668 1.610 . S
N667 S666 1.613 1_554 S
N667 C670 1.350 1_554 S
N668 S666 1.610 . S
N668 C669 1.351 . S
C669 C663 1.428 . S
C669 N668 1.351 . S
C669 C670 1.434 . S
C670 C661 1.429 1_556 S
C670 N667 1.350 1_556 S
C670 C669 1.434 . S
C671 C672 1.369 . S
C671 C673 1.419 . S
C671 H675 0.930 . S
C672 C671 1.369 . S
C672 C681 1.429 . S
C673 C671 1.419 . S
C673 C674 1.363 . S
C673 H676 0.929 . S
C674 C673 1.363 . S
C674 C680 1.428 . S
H675 C671 0.930 . S
H676 C673 0.929 . S
S677 N678 1.613 . S
S677 N679 1.610 . S
N678 S677 1.613 . S
N678 C681 1.350 . S
N679 S677 1.610 . S
N679 C680 1.351 . S
C680 C674 1.428 . S
C680 N679 1.351 . S
C680 C681 1.434 . S
C681 C672 1.429 . S
C681 N678 1.350 . S
C681 C680 1.434 . S
C682 C683 1.369 . S
C682 C684 1.419 . S
C682 H686 0.930 . S
C683 C682 1.369 . S
C683 C692 1.429 . S
C684 C682 1.419 . S
C684 C685 1.363 . S
C684 H687 0.929 . S
C685 C684 1.363 . S
C685 C691 1.428 . S
H686 C682 0.930 . S
H687 C684 0.929 . S
S688 N689 1.613 . S
S688 N690 1.610 . S
N689 S688 1.613 . S
N689 C692 1.350 . S
N690 S688 1.610 . S
N690 C691 1.351 . S
C691 C685 1.428 . S
C691 N690 1.351 . S
C691 C692 1.434 . S
C692 C683 1.429 . S
C692 N689 1.350 . S
C692 C691 1.434 . S
C693 C694 1.369 . S
C693 C695 1.419 . S
C693 H697 0.930 . S
C694 C693 1.369 . S
C694 C703 1.429 . S
C695 C693 1.419 . S
C695 C696 1.363 1_556 S
C695 H698 0.929 . S
C696 C695 1.363 1_554 S
C696 C702 1.428 . S
H697 C693 0.930 . S
H698 C695 0.929 . S
S699 N700 1.613 1_554 S
S699 N701 1.610 . S
N700 S699 1.613 1_556 S
N700 C703 1.350 . S
N701 S699 1.610 . S
N701 C702 1.351 . S
C702 C696 1.428 . S
C702 N701 1.351 . S
C702 C703 1.434 1_554 S
C703 C694 1.429 . S
C703 N700 1.350 . S
C703 C702 1.434 1_556 S
C704 C705 1.369 . S
C704 C706 1.419 . S
C704 H708 0.930 . S
C705 C704 1.369 . S
C705 C714 1.429 . S
C706 C704 1.419 . S
C706 C707 1.363 . S
C706 H709 0.929 . S
C707 C706 1.363 . S
C707 C713 1.428 . S
H708 C704 0.930 . S
H709 C706 0.929 . S
S710 N711 1.613 . S
S710 N712 1.610 . S
N711 S710 1.613 . S
N711 C714 1.350 . S
N712 S710 1.610 . S
N712 C713 1.351 . S
C713 C707 1.428 . S
C713 N712 1.351 . S
C713 C714 1.434 . S
C714 C705 1.429 . S
C714 N711 1.350 . S
C714 C713 1.434 . S
C715 C716 1.369 . S
C715 C717 1.419 . S
C715 H719 0.930 . S
C716 C715 1.369 . S
C716 C725 1.429 . S
C717 C715 1.419 . S
C717 C718 1.363 . S
C717 H720 0.929 . S
C718 C717 1.363 . S
C718 C724 1.428 . S
H719 C715 0.930 . S
H720 C717 0.929 . S
S721 N722 1.613 . S
S721 N723 1.610 . S
N722 S721 1.613 . S
N722 C725 1.350 . S
N723 S721 1.610 . S
N723 C724 1.351 . S
C724 C718 1.428 . S
C724 N723 1.351 . S
C724 C725 1.434 . S
C725 C716 1.429 . S
C725 N722 1.350 . S
C725 C724 1.434 . S
C397 C18 1.568 . S
C399 C348 1.569 . S
C408 C381 1.564 . S
C410 C51 1.572 . S
C419 C216 1.563 . S
C421 C84 1.574 . S
C430 C249 1.574 . S
C432 C117 1.568 . S
C441 C150 1.563 . S
C443 C282 1.574 . S
C452 C315 1.568 . S
C454 C183 1.568 . S
C463 C219 1.590 . S
C465 C21 1.587 . S
C474 C252 1.586 . S
C476 C54 1.589 . S
C485 C87 1.587 . S
C487 C285 1.587 . S
C496 C120 1.590 . S
C498 C318 1.588 . S
C507 C351 1.586 . S
C509 C153 1.588 . S
C518 C384 1.590 . S
C520 C186 1.588 . S
C529 C7 1.423 . S
C531 C304 1.422 . S
C540 C337 1.429 . S
C542 C40 1.428 . S
C551 C370 1.428 . S
C553 C73 1.424 . S
C562 C205 1.429 . S
C564 C106 1.426 . S
C573 C139 1.427 . S
C575 C238 1.424 . S
C584 C172 1.425 . S
C586 C271 1.428 . S
C595 N2 1.226 . S
C597 N13 1.222 . S
C606 N46 1.221 . S
C608 N35 1.225 . S
C617 N68 1.226 . S
C619 N79 1.222 . S
C628 N112 1.221 . S
C630 N101 1.226 . S
C639 N145 1.223 . S
C641 N134 1.224 . S
C650 N178 1.221 . S
C652 N167 1.226 . S
C661 N200 1.222 . S
C663 N211 1.225 . S
C672 N244 1.226 . S
C674 N233 1.222 . S
C683 N277 1.226 . S
C685 N266 1.222 . S
C694 N310 1.225 . S
C696 N299 1.224 . S
C705 N332 1.226 . S
C707 N343 1.222 . S
C716 N376 1.226 . S
C718 N365 1.222 . S
