# Generated by pormake.
# Topology uni, (4)-cn, num edge types: 1
# Building blocks:
#     Node 0, Type 0, BuildingBlock: QUQFOY_clean_sbu_3, # of connection points: 4
#     Node 1, Type 0, BuildingBlock: QUQFOY_clean_sbu_3, # of connection points: 4
#     Node 2, Type 0, BuildingBlock: QUQFOY_clean_sbu_3, # of connection points: 4
#     Node 3, Type 0, BuildingBlock: QUQFOY_clean_sbu_3, # of connection points: 4
#     Node 4, Type 0, BuildingBlock: QUQFOY_clean_sbu_3, # of connection points: 4
#     Node 5, Type 0, BuildingBlock: QUQFOY_clean_sbu_3, # of connection points: 4
#     Edge 6, Type (0, 0), BuildingBlock: TEMPAE_clean_linker_10, # of connection points: 2
#     Edge 7, Type (0, 0), BuildingBlock: TEMPAE_clean_linker_10, # of connection points: 2
#     Edge 8, Type (0, 0), BuildingBlock: TEMPAE_clean_linker_10, # of connection points: 2
#     Edge 9, Type (0, 0), BuildingBlock: TEMPAE_clean_linker_10, # of connection points: 2
#     Edge 10, Type (0, 0), BuildingBlock: TEMPAE_clean_linker_10, # of connection points: 2
#     Edge 11, Type (0, 0), BuildingBlock: TEMPAE_clean_linker_10, # of connection points: 2
#     Edge 12, Type (0, 0), BuildingBlock: TEMPAE_clean_linker_10, # of connection points: 2
#     Edge 13, Type (0, 0), BuildingBlock: TEMPAE_clean_linker_10, # of connection points: 2
#     Edge 14, Type (0, 0), BuildingBlock: TEMPAE_clean_linker_10, # of connection points: 2
#     Edge 15, Type (0, 0), BuildingBlock: TEMPAE_clean_linker_10, # of connection points: 2
#     Edge 16, Type (0, 0), BuildingBlock: TEMPAE_clean_linker_10, # of connection points: 2
#     Edge 17, Type (0, 0), BuildingBlock: TEMPAE_clean_linker_10, # of connection points: 2
# Relax obj value: 0.064
# Max RMSD: 0.096
# Mean RMSD: 0.087
data_MOF--net-uni--node1-QUQFOY_clean_sbu_3--edge1-TEMPAE_clean_linker_10
_symmetry_space_group_name_H-M    P1
_symmetry_Int_Tables_number       1
_symmetry_cell_setting            triclinic
loop_
_symmetry_equiv_pos_as_xyz
'x, y, z'
_cell_length_a     39.962522
_cell_length_b     41.167452
_cell_length_c     23.633429
_cell_angle_alpha  89.893415
_cell_angle_beta   90.045688
_cell_angle_gamma 119.9793
loop_
_atom_site_label
_atom_site_type_symbol
_atom_site_fract_x
_atom_site_fract_y
_atom_site_fract_z
_atom_type_partial_charge
C0 C 0.72419 0.117 0.11908 0.0
O1 O 0.706 0.12954 0.14721 0.0
Cd2 Cd 0.64172 0.09237 0.18408 0.0
O3 O 0.70914 0.08195 0.11007 0.0
Cd4 Cd 0.64846 0.02384 0.13448 0.0
C5 C 0.59374 0.05126 0.06118 0.0
O6 O 0.63795 0.03905 0.23047 0.0
O7 O 0.59036 0.99053 0.19178 0.0
O8 O 0.68303 0.99019 0.15482 0.0
C9 C 0.60411 0.0111 0.23512 0.0
O10 O 0.59861 0.07318 0.10229 0.0
C11 C 0.66469 0.96443 0.11878 0.0
O12 O 0.61074 0.03207 0.06043 0.0
O13 O 0.63953 0.96694 0.08917 0.0
C14 C 0.71133 0.61718 0.1325 0.0
O15 O 0.69653 0.58895 0.09978 0.0
Cd16 Cd 0.63842 0.5687 0.0453 0.0
O17 O 0.69698 0.63864 0.13563 0.0
Cd18 Cd 0.6434 0.64362 0.09224 0.0
C19 C 0.57873 0.56154 0.15443 0.0
O20 O 0.64196 0.62105 -0.00413 0.0
O21 O 0.59229 0.62446 0.02314 0.0
O22 O 0.68216 0.71149 0.07848 0.0
C23 C 0.60942 0.61771 0.98373 0.0
O24 O 0.58666 0.54485 0.11584 0.0
C25 C 0.6606 0.71894 0.10877 0.0
O26 O 0.59693 0.5972 0.15758 0.0
O27 O 0.63183 0.6914 0.13234 0.0
C28 C 0.89643 0.61267 0.41523 0.0
O29 O 0.88233 0.58241 0.44351 0.0
Cd30 Cd 0.92016 0.56055 0.49262 0.0
O31 O 0.93273 0.63523 0.4149 0.0
Cd32 Cd 0.99021 0.63825 0.45953 0.0
C33 C 0.97853 0.56427 0.38368 0.0
O34 O 0.96788 0.60753 0.55251 0.0
O35 O 0.02008 0.61206 0.51792 0.0
O36 O 0.01834 0.70254 0.4934 0.0
C37 C -0.00285 0.60349 0.55944 0.0
O38 O 0.95235 0.54433 0.41944 0.0
C39 C 0.04967 0.71478 0.46589 0.0
O40 O -0.0047 0.59995 0.3853 0.0
O41 O 0.05219 0.69186 0.43268 0.0
C42 C 0.29883 0.91945 0.61841 0.0
O43 O 0.31673 0.90658 0.64663 0.0
Cd44 Cd 0.38105 0.9433 0.68357 0.0
O45 O 0.31421 0.95455 0.60944 0.0
Cd46 Cd 0.37508 0.01231 0.63405 0.0
C47 C 0.42931 0.98448 0.56072 0.0
O48 O 0.38538 -0.00326 0.73008 0.0
O49 O 0.43318 0.04516 0.69132 0.0
O50 O 0.34059 0.04593 0.65459 0.0
C51 C 0.41931 0.02454 0.73469 0.0
O52 O 0.42419 0.96241 0.60183 0.0
C53 C 0.35905 0.07192 0.6188 0.0
O54 O 0.41259 0.00394 0.55992 0.0
O55 O 0.38428 0.06957 0.58922 0.0
C56 C 0.30998 0.41807 0.63274 0.0
O57 O 0.32477 0.4463 0.59987 0.0
Cd58 Cd 0.38286 0.46665 0.54537 0.0
O59 O 0.32435 0.39662 0.63606 0.0
Cd60 Cd 0.37802 0.39182 0.59272 0.0
C61 C 0.44258 0.47392 0.65461 0.0
O62 O 0.37943 0.41438 0.4962 0.0
O63 O 0.42923 0.41124 0.52372 0.0
O64 O 0.33962 0.32394 0.57905 0.0
C65 C 0.41202 0.41785 0.48417 0.0
O66 O 0.43464 0.49059 0.61587 0.0
C67 C 0.36127 0.31661 0.60946 0.0
O68 O 0.42442 0.43826 0.65794 0.0
O69 O 0.38988 0.34421 0.63311 0.0
C70 C 0.12642 0.42437 0.91581 0.0
O71 O 0.14081 0.4547 0.94381 0.0
Cd72 Cd 0.10342 0.47707 0.9927 0.0
O73 O 0.09006 0.40206 0.9157 0.0
Cd74 Cd 0.03292 0.39966 0.96033 0.0
C75 C 0.04514 0.47372 0.88378 0.0
O76 O 0.05554 0.43048 0.05307 0.0
O77 O 0.00349 0.42629 0.0184 0.0
O78 O 0.00453 0.33539 0.99472 0.0
C79 C 0.02644 0.43478 0.05989 0.0
O80 O 0.07143 0.49357 0.91939 0.0
C81 C 0.97318 0.32325 0.96733 0.0
O82 O 0.02811 0.43803 0.88569 0.0
O83 O 0.97071 0.34622 0.934 0.0
C84 C 0.5944 0.03063 0.33108 0.0
C85 C 0.57979 0.00577 0.28528 0.0
C86 C 0.57078 0.02706 0.37735 0.0
C87 C 0.53168 -0.002 0.37762 0.0
C88 C 0.517 0.9724 0.33202 0.0
C89 C 0.54126 0.97656 0.28644 0.0
C90 C 0.58746 0.05475 0.42544 0.0
C91 C 0.47545 0.94106 0.33084 0.0
C92 C 0.47653 0.96902 0.51635 0.0
C93 C 0.45545 0.9879 0.51378 0.0
C94 C 0.5017 0.97229 0.47254 0.0
C95 C 0.50578 -0.00514 0.42493 0.0
C96 C 0.48464 0.01399 0.42199 0.0
C97 C 0.45978 0.01034 0.4665 0.0
C98 C 0.52388 0.95156 0.47716 0.0
C99 C 0.48814 0.03819 0.37169 0.0
H100 H 0.62417 0.05323 0.33047 0.0
H101 H 0.52979 0.9572 0.25122 0.0
H102 H 0.57203 0.07081 0.42882 0.0
H103 H 0.58327 0.03967 0.4661 0.0
H104 H 0.61877 0.07488 0.41975 0.0
H105 H 0.46884 0.92291 0.29295 0.0
H106 H 0.46888 0.92336 0.36925 0.0
H107 H 0.45591 0.95295 0.33108 0.0
H108 H 0.47351 0.95171 0.55276 0.0
H109 H 0.44364 0.02503 0.46409 0.0
H110 H 0.55536 0.97166 0.47442 0.0
H111 H 0.51628 0.93171 0.44134 0.0
H112 H 0.51788 0.9356 0.5174 0.0
H113 H 0.51865 0.06063 0.36622 0.0
H114 H 0.46993 0.05142 0.37611 0.0
H115 H 0.47948 0.02105 0.33255 0.0
C116 C 0.545 0.55654 0.24587 0.0
C117 C 0.54916 0.53914 0.19754 0.0
C118 C 0.51939 0.53539 0.28926 0.0
C119 C 0.49714 0.49591 0.28398 0.0
C120 C 0.49989 0.47831 0.23425 0.0
C121 C 0.52602 0.50012 0.1917 0.0
C122 C 0.5174 0.55516 0.34185 0.0
C123 C 0.47629 0.43632 0.22689 0.0
C124 C 0.46997 0.44202 0.42207 0.0
C125 C 0.43211 0.4348 0.43038 0.0
C126 C 0.49104 0.46109 0.37387 0.0
C127 C 0.47373 0.47298 0.33267 0.0
C128 C 0.43502 0.46456 0.33965 0.0
C129 C 0.41465 0.44563 0.38863 0.0
C130 C 0.53231 0.46961 0.36803 0.0
C131 C 0.41555 0.47646 0.2962 0.0
H132 H 0.56266 0.58667 0.25072 0.0
H133 H 0.52874 0.48646 0.15425 0.0
H134 H 0.48701 0.54701 0.3513 0.0
H135 H 0.52851 0.54657 0.3786 0.0
H136 H 0.53459 0.58617 0.33774 0.0
H137 H 0.4788 0.42742 0.1835 0.0
H138 H 0.48616 0.4224 0.2575 0.0
H139 H 0.44538 0.42621 0.23593 0.0
H140 H 0.48363 0.43361 0.45401 0.0
H141 H 0.38534 0.43999 0.39473 0.0
H142 H 0.5521 0.50041 0.36803 0.0
H143 H 0.53627 0.45875 0.32716 0.0
H144 H 0.54098 0.45716 0.40283 0.0
H145 H 0.43001 0.50752 0.29485 0.0
H146 H 0.38443 0.46515 0.30564 0.0
H147 H 0.41827 0.46692 0.25346 0.0
C148 C 0.04949 0.53145 0.8416 0.0
C149 C 0.0345 0.49252 0.83968 0.0
C150 C 0.04095 0.54997 0.79907 0.0
C151 C 0.01708 0.52909 0.75332 0.0
C152 C 0.00095 0.48968 0.75189 0.0
C153 C 0.00976 0.47183 0.79521 0.0
C154 C 0.05852 0.59202 0.80216 0.0
C155 C 0.97555 0.46655 0.70352 0.0
C156 C 0.97594 0.57377 0.65524 0.0
C157 C 0.00231 0.58548 0.61025 0.0
C158 C 0.98043 0.55554 0.70252 0.0
C159 C 0.0119 0.54884 0.70446 0.0
C160 C 0.03873 0.56091 0.65937 0.0
C161 C 0.03366 0.57915 0.61297 0.0
C162 C 0.95147 0.54326 0.75017 0.0
C163 C 0.07266 0.55426 0.65985 0.0
H164 H 0.06831 0.54764 0.8761 0.0
H165 H -0.00206 0.44174 0.7935 0.0
H166 H 0.07957 0.60545 0.76719 0.0
H167 H 0.03584 0.59983 0.79678 0.0
H168 H 0.07365 0.60367 0.84291 0.0
H169 H 0.96303 0.43597 0.71077 0.0
H170 H 0.95162 0.47248 0.69703 0.0
H171 H -0.00732 0.47427 0.66384 0.0
H172 H 0.9517 0.57864 0.65336 0.0
H173 H 0.05423 0.58816 0.57841 0.0
H174 H 0.96644 0.55595 0.79057 0.0
H175 H 0.93697 0.51237 0.75539 0.0
H176 H 0.92907 0.55124 0.7427 0.0
H177 H 0.09097 0.56772 0.69752 0.0
H178 H 0.09089 0.56545 0.62137 0.0
H179 H 0.06219 0.52376 0.66282 0.0
C180 C 0.54631 0.06643 0.01652 0.0
C181 C 0.56756 0.04772 0.01417 0.0
C182 C 0.52115 0.06306 0.97261 0.0
C183 C 0.51724 0.04057 0.92511 0.0
C184 C 0.53852 0.02158 0.92242 0.0
C185 C 0.56338 0.02533 0.96702 0.0
C186 C 0.49882 0.08365 0.97695 0.0
C187 C 0.5352 -0.00254 0.87225 0.0
C188 C 0.42885 0.0048 0.83076 0.0
C189 C 0.44353 0.02975 0.78496 0.0
C190 C 0.45237 0.00832 0.87717 0.0
C191 C 0.49144 0.03743 0.8776 0.0
C192 C 0.5062 0.06311 0.83199 0.0
C193 C 0.48204 0.059 0.78625 0.0
C194 C 0.43562 0.98052 0.92527 0.0
C195 C 0.54772 0.09453 0.83098 0.0
H196 H 0.54922 0.0837 0.05284 0.0
H197 H 0.57964 0.01076 0.96478 0.0
H198 H 0.50647 0.10358 0.94113 0.0
H199 H 0.46737 0.06348 0.97402 0.0
H200 H 0.50463 0.0995 0.01718 0.0
H201 H 0.55344 0.98427 0.87693 0.0
H202 H 0.50472 0.97499 0.86665 0.0
H203 H 0.54395 0.01465 0.83307 0.0
H204 H 0.39909 0.98217 0.83004 0.0
H205 H 0.49357 0.07844 0.75104 0.0
H206 H 0.43963 -0.00449 0.96588 0.0
H207 H 0.45112 0.96454 0.92887 0.0
H208 H 0.40434 0.96034 0.9194 0.0
H209 H 0.55414 0.11217 0.86933 0.0
H210 H 0.55441 0.11271 0.79303 0.0
H211 H 0.56732 0.0827 0.83148 0.0
C212 C 0.55147 0.59363 0.92163 0.0
C213 C 0.5893 0.60076 0.93001 0.0
C214 C 0.53037 0.57456 0.87354 0.0
C215 C 0.5476 0.56255 0.8325 0.0
C216 C 0.58627 0.57088 0.83954 0.0
C217 C 0.60669 0.58982 0.88843 0.0
C218 C 0.48913 0.56614 0.86764 0.0
C219 C 0.60567 0.55885 0.79627 0.0
C220 C 0.47622 0.47896 0.74621 0.0
C221 C 0.47213 0.49633 0.69767 0.0
C222 C 0.50183 0.50013 0.78952 0.0
C223 C 0.52414 0.53959 0.78396 0.0
C224 C 0.52144 0.55717 0.73404 0.0
C225 C 0.49531 0.53534 0.69156 0.0
C226 C 0.50375 0.48039 0.84232 0.0
C227 C 0.54511 0.59915 0.72637 0.0
H228 H 0.53787 0.60213 0.95346 0.0
H229 H 0.63597 0.59538 0.89457 0.0
H230 H 0.4852 0.57697 0.82664 0.0
H231 H 0.46927 0.53535 0.86787 0.0
H232 H 0.48053 0.57867 0.90228 0.0
H233 H 0.63678 0.5701 0.80571 0.0
H234 H 0.59113 0.52779 0.79516 0.0
H235 H 0.60297 0.56837 0.75343 0.0
H236 H 0.45852 0.44884 0.75126 0.0
H237 H 0.49263 0.54898 0.65396 0.0
H238 H 0.49271 0.48908 0.87894 0.0
H239 H 0.53412 0.48847 0.8518 0.0
H240 H 0.48648 0.44938 0.83846 0.0
H241 H 0.53531 0.61314 0.75684 0.0
H242 H 0.5426 0.60803 0.6829 0.0
H243 H 0.57601 0.6092 0.73541 0.0
C244 C 0.04783 0.4645 0.15552 0.0
C245 C 0.02143 0.45288 0.11057 0.0
C246 C 0.04343 0.48275 0.20273 0.0
C247 C 0.01203 0.48955 0.20464 0.0
C248 C 0.9852 0.4776 0.15957 0.0
C249 C 0.99017 0.45935 0.11323 0.0
C250 C 0.0724 0.49494 0.25035 0.0
C251 C 0.95134 0.48436 0.16001 0.0
C252 C 0.97434 0.50665 0.34169 0.0
C253 C 0.98929 0.54558 0.33972 0.0
C254 C 0.98294 0.48824 0.29922 0.0
C255 C 0.00686 0.50921 0.2535 0.0
C256 C 0.02299 0.54862 0.25205 0.0
C257 C 0.0141 0.56637 0.2953 0.0
C258 C 0.96536 0.44617 0.30232 0.0
C259 C 0.04846 0.57187 0.20372 0.0
H260 H 0.072 0.45953 0.15368 0.0
H261 H 0.9696 0.45041 0.0787 0.0
H262 H 0.08689 0.5258 0.2556 0.0
H263 H 0.05744 0.48213 0.29074 0.0
H264 H 0.09481 0.48698 0.24283 0.0
H265 H 0.93312 0.4733 0.12152 0.0
H266 H 0.93299 0.47083 0.19766 0.0
H267 H 0.96187 0.51486 0.163 0.0
H268 H 0.95547 0.49038 0.37615 0.0
H269 H 0.02591 0.59647 0.29355 0.0
H270 H 0.98802 0.43836 0.29693 0.0
H271 H 0.9443 0.43283 0.26736 0.0
H272 H 0.95022 0.43444 0.34307 0.0
H273 H 0.07234 0.56587 0.19721 0.0
H274 H 0.06105 0.60243 0.21104 0.0
H275 H 0.03135 0.56431 0.16404 0.0
C276 C 0.69597 0.78684 0.08161 0.0
C277 C 0.66715 0.7575 0.1137 0.0
C278 C 0.69991 0.82271 0.08196 0.0
C279 C 0.67446 0.82928 0.11524 0.0
C280 C 0.64629 0.80013 0.14933 0.0
C281 C 0.64295 0.7646 0.14809 0.0
C282 C 0.73035 0.85315 0.0452 0.0
C283 C 0.61875 0.80611 0.18567 0.0
C284 C 0.69525 0.92742 0.15147 0.0
C285 C 0.67053 0.93178 0.11397 0.0
C286 C 0.69799 0.89473 0.15104 0.0
C287 C 0.67551 0.86583 0.11214 0.0
C288 C 0.65177 0.87076 0.07262 0.0
C289 C 0.64954 0.90367 0.07406 0.0
C290 C 0.72371 0.89049 0.19369 0.0
C291 C 0.62752 0.84064 0.03025 0.0
H292 H 0.7148 0.78156 0.05498 0.0
H293 H 0.62073 0.74211 0.17321 0.0
H294 H 0.71622 0.86059 0.01115 0.0
H295 H 0.74805 0.87887 0.07045 0.0
H296 H 0.74981 0.84442 0.02537 0.0
H297 H 0.60001 0.78122 0.21216 0.0
H298 H 0.63507 0.83061 0.21386 0.0
H299 H 0.60002 0.81231 0.15836 0.0
H300 H 0.71164 0.94909 0.18235 0.0
H301 H 0.63053 0.90692 0.04476 0.0
H302 H 0.74285 0.88201 0.17233 0.0
H303 H 0.70567 0.868 0.2243 0.0
H304 H 0.74188 0.91679 0.21757 0.0
H305 H 0.64577 0.83225 0.00606 0.0
H306 H 0.6127 0.8499 -0.0001 0.0
H307 H 0.60531 0.81535 0.05282 0.0
C308 C 0.83063 0.59686 0.38149 0.0
C309 C 0.87088 0.61984 0.37811 0.0
C310 C 0.80622 0.60022 0.34215 0.0
C311 C 0.82246 0.62701 0.29806 0.0
C312 C 0.86292 0.65136 0.29575 0.0
C313 C 0.88665 0.64759 0.33596 0.0
C314 C 0.76314 0.57405 0.34648 0.0
C315 C 0.88128 0.68022 0.24931 0.0
C316 C 0.76138 0.60171 0.16505 0.0
C317 C 0.74314 0.62309 0.17112 0.0
C318 C 0.78837 0.60385 0.20502 0.0
C319 C 0.79715 0.62771 0.25248 0.0
C320 C 0.77998 0.65042 0.25779 0.0
C321 C 0.7533 0.64797 0.21691 0.0
C322 C 0.80645 0.57951 0.1975 0.0
C323 C 0.78851 0.67609 0.30791 0.0
H324 H 0.81815 0.57552 0.41411 0.0
H325 H 0.91772 0.66547 0.33293 0.0
H326 H 0.74778 0.59025 0.34583 0.0
H327 H 0.75295 0.55497 0.30945 0.0
H328 H 0.75493 0.55677 0.38562 0.0
H329 H 0.91273 0.69907 0.25619 0.0
H330 H 0.8771 0.66584 0.20807 0.0
H331 H 0.86719 0.69753 0.24623 0.0
H332 H 0.75391 0.5826 0.12966 0.0
H333 H 0.73933 0.66456 0.22206 0.0
H334 H 0.79679 0.55843 0.23203 0.0
H335 H 0.83838 0.59679 0.20022 0.0
H336 H 0.79868 0.56451 0.15634 0.0
H337 H 0.77721 0.6591 0.34704 0.0
H338 H 0.77524 0.6941 0.30349 0.0
H339 H 0.82014 0.69435 0.31339 0.0
C340 C 0.11845 0.76383 0.4494 0.0
C341 C 0.0835 0.752 0.478 0.0
C342 C 0.15276 0.79503 0.46816 0.0
C343 C 0.15204 0.8147 0.51679 0.0
C344 C 0.11636 0.80468 0.54311 0.0
C345 C 0.08244 0.77347 0.52328 0.0
C346 C 0.19018 0.80517 0.43845 0.0
C347 C 0.11435 0.82507 0.59489 0.0
C348 C 0.24174 0.85507 0.60849 0.0
C349 C 0.26039 0.89323 0.5942 0.0
C350 C 0.20621 0.82946 0.58417 0.0
C351 C 0.18889 0.84224 0.54428 0.0
C352 C 0.20719 0.88077 0.53018 0.0
C353 C 0.24271 0.90587 0.55544 0.0
C354 C 0.18745 0.78858 0.60067 0.0
C355 C 0.1896 0.89533 0.48769 0.0
H356 H 0.11944 0.74757 0.41407 0.0
H357 H 0.05549 0.76462 0.54544 0.0
H358 H 0.20745 0.83586 0.43122 0.0
H359 H 0.20762 0.79718 0.46554 0.0
H360 H 0.18524 0.79062 0.39714 0.0
H361 H 0.08419 0.81742 0.60539 0.0
H362 H 0.12675 0.81788 0.63162 0.0
H363 H 0.13167 0.85586 0.58873 0.0
H364 H 0.25504 0.84504 0.63855 0.0
H365 H 0.25694 0.9353 0.54404 0.0
H366 H 0.18465 0.77141 0.56292 0.0
H367 H 0.1579 0.7787 0.6171 0.0
H368 H 0.20418 0.7834 0.63346 0.0
H369 H 0.18773 0.88245 0.44576 0.0
H370 H 0.20666 0.92632 0.4831 0.0
H371 H 0.15973 0.88727 0.50047 0.0
C372 C 0.37927 0.27118 0.649 0.0
C373 C 0.35506 0.27816 0.61435 0.0
C374 C 0.3763 0.23579 0.65016 0.0
C375 C 0.3485 0.20669 0.61573 0.0
C376 C 0.32303 0.21314 0.58216 0.0
C377 C 0.32658 0.24884 0.58191 0.0
C378 C 0.40384 0.22993 0.68682 0.0
C379 C 0.29298 0.18274 0.54502 0.0
C380 C 0.37433 0.13298 0.57467 0.0
C381 C 0.35318 0.10457 0.61421 0.0
C382 C 0.37191 0.1658 0.57335 0.0
C383 C 0.34782 0.17032 0.61262 0.0
C384 C 0.32524 0.14114 0.6512 0.0
C385 C 0.32817 0.10855 0.65151 0.0
C386 C 0.39628 0.19623 0.53134 0.0
C387 C 0.29916 0.14495 0.69359 0.0
H388 H 0.40122 0.29365 0.67437 0.0
H389 H 0.30775 0.25405 0.55507 0.0
H390 H 0.38754 0.20525 0.71479 0.0
H391 H 0.42289 0.2241 0.65972 0.0
H392 H 0.42225 0.25475 0.71353 0.0
H393 H 0.27347 0.19134 0.52489 0.0
H394 H 0.30746 0.17562 0.51119 0.0
H395 H 0.27529 0.15686 0.57006 0.0
H396 H 0.39357 0.13001 0.54554 0.0
H397 H 0.31165 0.08666 0.68211 0.0
H398 H 0.4182 0.22147 0.55423 0.0
H399 H 0.37804 0.20454 0.50688 0.0
H400 H 0.41147 0.18731 0.50121 0.0
H401 H 0.31691 0.16741 0.7243 0.0
H402 H 0.28108 0.11853 0.71737 0.0
H403 H 0.27991 0.15325 0.672 0.0
C404 C 0.19196 0.43965 0.8817 0.0
C405 C 0.15168 0.41683 0.87875 0.0
C406 C 0.21609 0.43594 0.84233 0.0
C407 C 0.19954 0.40896 0.79867 0.0
C408 C 0.15905 0.38476 0.79685 0.0
C409 C 0.13559 0.38888 0.83707 0.0
C410 C 0.25923 0.46196 0.84614 0.0
C411 C 0.14035 0.3557 0.75088 0.0
C412 C 0.26002 0.43362 0.66513 0.0
C413 C 0.27823 0.41222 0.67139 0.0
C414 C 0.23319 0.43166 0.70519 0.0
C415 C 0.22456 0.40796 0.75294 0.0
C416 C 0.24165 0.38518 0.75843 0.0
C417 C 0.26817 0.38746 0.71745 0.0
C418 C 0.21518 0.45607 0.69748 0.0
C419 C 0.23325 0.35965 0.80884 0.0
H420 H 0.20468 0.46113 0.91397 0.0
H421 H 0.10449 0.37113 0.83438 0.0
H422 H 0.27445 0.44563 0.8456 0.0
H423 H 0.26932 0.48089 0.80883 0.0
H424 H 0.2677 0.4794 0.88504 0.0
H425 H 0.10892 0.33695 0.75823 0.0
H426 H 0.14431 0.3699 0.70945 0.0
H427 H 0.15434 0.33832 0.74788 0.0
H428 H 0.2674 0.45263 0.62953 0.0
H429 H 0.28211 0.37084 0.72275 0.0
H430 H 0.22509 0.47731 0.73169 0.0
H431 H 0.18327 0.43888 0.70059 0.0
H432 H 0.22278 0.47088 0.65609 0.0
H433 H 0.24487 0.37677 0.84772 0.0
H434 H 0.24631 0.34147 0.80447 0.0
H435 H 0.20163 0.34157 0.81477 0.0
C436 C 0.94041 0.26445 0.02475 0.0
C437 C 0.93932 0.28604 0.97955 0.0
C438 C 0.90654 0.2331 0.04449 0.0
C439 C 0.87085 0.22307 0.01817 0.0
C440 C 0.87007 0.24294 0.96969 0.0
C441 C 0.90434 0.27428 0.95101 0.0
C442 C 0.90859 0.21252 0.09614 0.0
C443 C 0.83264 0.23282 0.93999 0.0
C444 C 0.7805 0.13134 0.05611 0.0
C445 C 0.7626 0.14356 0.09502 0.0
C446 C 0.81599 0.15677 0.031 0.0
C447 C 0.83402 0.19521 0.04543 0.0
C448 C 0.81647 0.20756 0.08548 0.0
C449 C 0.78098 0.18163 0.10963 0.0
C450 C 0.83382 0.14267 0.98832 0.0
C451 C 0.83494 0.24832 0.10233 0.0
H452 H 0.96737 0.27324 0.04687 0.0
H453 H 0.90332 0.29065 0.91576 0.0
H454 H 0.89595 0.21934 0.13289 0.0
H455 H 0.8915 0.18175 0.08971 0.0
H456 H 0.93878 0.22033 0.10677 0.0
H457 H 0.83754 0.24763 0.89885 0.0
H458 H 0.81553 0.20216 0.93244 0.0
H459 H 0.81505 0.24047 0.96725 0.0
H460 H 0.76648 0.10198 0.04446 0.0
H461 H 0.7675 0.19133 0.13981 0.0
H462 H 0.8637 0.15079 0.00118 0.0
H463 H 0.83572 0.15582 0.94655 0.0
H464 H 0.81692 0.11171 0.98339 0.0
H465 H 0.8645 0.25828 0.11881 0.0
H466 H 0.81805 0.25315 0.1352 0.0
H467 H 0.83767 0.26567 0.06475 0.0
loop_
_geom_bond_atom_site_label_1
_geom_bond_atom_site_label_2
_geom_bond_distance
_geom_bond_site_symmetry_2
_ccdc_geom_bond_type
C0 O1 1.306 . S
C0 O3 1.160 . S
O1 C0 1.306 . S
O1 Cd2 2.228 . S
Cd2 O1 2.228 . S
Cd2 O6 2.273 . S
Cd2 O10 2.277 . S
O3 C0 1.160 . S
O3 Cd4 2.203 . S
Cd4 O3 2.203 . S
Cd4 O6 2.411 . S
Cd4 O7 2.333 1_545 S
Cd4 O8 2.352 1_545 S
Cd4 O12 2.279 1_544 S
Cd4 O13 2.356 1_545 S
C5 O10 1.209 1_556 S
C5 O12 1.208 1_545 S
O6 Cd2 2.273 . S
O6 Cd4 2.411 . S
O6 C9 1.320 . S
O7 Cd4 2.333 1_565 S
O7 C9 1.214 1_565 S
O8 Cd4 2.352 1_565 S
O8 C11 1.258 . S
C9 O6 1.320 . S
C9 O7 1.214 1_545 S
O10 Cd2 2.277 . S
O10 C5 1.209 1_554 S
C11 O8 1.258 . S
C11 O13 1.282 . S
O12 Cd4 2.279 1_566 S
O12 C5 1.208 1_565 S
O13 Cd4 2.356 1_565 S
O13 C11 1.282 . S
C14 O15 1.306 . S
C14 O17 1.160 . S
O15 C14 1.306 . S
O15 Cd16 2.228 . S
Cd16 O15 2.228 . S
Cd16 O20 2.273 . S
Cd16 O24 2.277 . S
O17 C14 1.160 . S
O17 Cd18 2.203 . S
Cd18 O17 2.203 . S
Cd18 O20 2.411 . S
Cd18 O21 2.333 . S
Cd18 O22 2.352 . S
Cd18 O26 2.277 . S
Cd18 O27 2.356 . S
C19 O24 1.209 . S
C19 O26 1.226 . S
O20 Cd16 2.273 . S
O20 Cd18 2.411 . S
O20 C23 1.320 . S
O21 Cd18 2.333 . S
O21 C23 1.214 . S
O22 Cd18 2.352 . S
O22 C25 1.258 . S
C23 O20 1.320 . S
C23 O21 1.214 . S
O24 Cd16 2.277 . S
O24 C19 1.209 . S
C25 O22 1.258 . S
C25 O27 1.282 . S
O26 Cd18 2.277 . S
O26 C19 1.226 . S
O27 Cd18 2.356 . S
O27 C25 1.282 . S
C28 O29 1.306 . S
C28 O31 1.160 . S
O29 C28 1.306 . S
O29 Cd30 2.228 . S
Cd30 O29 2.228 . S
Cd30 O34 2.273 . S
Cd30 O38 2.277 . S
O31 C28 1.160 . S
O31 Cd32 2.203 1_655 S
Cd32 O31 2.203 1_455 S
Cd32 O34 2.411 1_455 S
Cd32 O35 2.333 . S
Cd32 O36 2.352 . S
Cd32 O40 2.277 . S
Cd32 O41 2.356 . S
C33 O38 1.209 1_455 S
C33 O40 1.226 . S
O34 Cd30 2.273 . S
O34 Cd32 2.411 1_655 S
O34 C37 1.320 1_655 S
O35 Cd32 2.333 . S
O35 C37 1.214 . S
O36 Cd32 2.352 . S
O36 C39 1.258 . S
C37 O34 1.320 1_455 S
C37 O35 1.214 . S
O38 Cd30 2.277 . S
O38 C33 1.209 1_655 S
C39 O36 1.258 . S
C39 O41 1.282 . S
O40 Cd32 2.277 . S
O40 C33 1.226 . S
O41 Cd32 2.356 . S
O41 C39 1.282 . S
C42 O43 1.306 . S
C42 O45 1.160 . S
O43 C42 1.306 . S
O43 Cd44 2.228 . S
Cd44 O43 2.228 . S
Cd44 O48 2.275 . S
Cd44 O52 2.277 . S
O45 C42 1.160 . S
O45 Cd46 2.203 1_565 S
Cd46 O45 2.203 1_545 S
Cd46 O48 2.410 1_545 S
Cd46 O49 2.333 . S
Cd46 O50 2.352 . S
Cd46 O54 2.277 . S
Cd46 O55 2.356 . S
C47 O52 1.209 1_545 S
C47 O54 1.226 . S
O48 Cd44 2.275 . S
O48 Cd46 2.410 1_565 S
O48 C51 1.319 1_565 S
O49 Cd46 2.333 . S
O49 C51 1.214 . S
O50 Cd46 2.352 . S
O50 C53 1.258 . S
C51 O48 1.319 1_545 S
C51 O49 1.214 . S
O52 Cd44 2.277 . S
O52 C47 1.209 1_565 S
C53 O50 1.258 . S
C53 O55 1.282 . S
O54 Cd46 2.277 . S
O54 C47 1.226 . S
O55 Cd46 2.356 . S
O55 C53 1.282 . S
C56 O57 1.306 . S
C56 O59 1.160 . S
O57 C56 1.306 . S
O57 Cd58 2.228 . S
Cd58 O57 2.228 . S
Cd58 O62 2.273 . S
Cd58 O66 2.277 . S
O59 C56 1.160 . S
O59 Cd60 2.203 . S
Cd60 O59 2.203 . S
Cd60 O62 2.411 . S
Cd60 O63 2.333 . S
Cd60 O64 2.352 . S
Cd60 O68 2.277 . S
Cd60 O69 2.356 . S
C61 O66 1.209 . S
C61 O68 1.226 . S
O62 Cd58 2.273 . S
O62 Cd60 2.411 . S
O62 C65 1.320 . S
O63 Cd60 2.333 . S
O63 C65 1.214 . S
O64 Cd60 2.352 . S
O64 C67 1.258 . S
C65 O62 1.320 . S
C65 O63 1.214 . S
O66 Cd58 2.277 . S
O66 C61 1.209 . S
C67 O64 1.258 . S
C67 O69 1.282 . S
O68 Cd60 2.277 . S
O68 C61 1.226 . S
O69 Cd60 2.356 . S
O69 C67 1.282 . S
C70 O71 1.306 . S
C70 O73 1.160 . S
O71 C70 1.306 . S
O71 Cd72 2.228 . S
Cd72 O71 2.228 . S
Cd72 O76 2.273 . S
Cd72 O80 2.277 . S
O73 C70 1.160 . S
O73 Cd74 2.203 . S
Cd74 O73 2.203 . S
Cd74 O76 2.411 . S
Cd74 O77 2.333 1_455 S
Cd74 O78 2.352 1_455 S
Cd74 O82 2.277 1_455 S
Cd74 O83 2.356 1_455 S
C75 O80 1.209 . S
C75 O82 1.226 1_455 S
O76 Cd72 2.273 . S
O76 Cd74 2.411 . S
O76 C79 1.320 . S
O77 Cd74 2.333 1_655 S
O77 C79 1.214 1_655 S
O78 Cd74 2.352 1_655 S
O78 C81 1.258 . S
C79 O76 1.320 . S
C79 O77 1.214 1_455 S
O80 Cd72 2.277 . S
O80 C75 1.209 . S
C81 O78 1.258 . S
C81 O83 1.282 . S
O82 Cd74 2.277 1_655 S
O82 C75 1.226 1_655 S
O83 Cd74 2.356 1_655 S
O83 C81 1.282 . S
C84 C85 1.391 . S
C84 C86 1.394 . S
C84 H100 0.931 . S
C85 C84 1.391 . S
C85 C89 1.376 . S
C86 C84 1.394 . S
C86 C87 1.369 . S
C86 C90 1.531 . S
C87 C86 1.369 . S
C87 C88 1.410 . S
C87 C95 1.503 . S
C88 C87 1.410 . S
C88 C89 1.392 . S
C88 C91 1.511 . S
C89 C85 1.376 . S
C89 C88 1.392 . S
C89 H101 0.929 . S
C90 C86 1.531 . S
C90 H102 0.960 . S
C90 H103 0.962 1_545 S
C90 H104 0.960 . S
C91 C88 1.511 . S
C91 H105 0.961 . S
C91 H106 0.961 . S
C91 H107 0.961 . S
C92 C93 1.370 1_565 S
C92 C94 1.363 . S
C92 H108 0.931 . S
C93 C92 1.370 1_545 S
C93 C97 1.408 . S
C94 C92 1.363 . S
C94 C95 1.370 1_565 S
C94 C98 1.524 . S
C95 C87 1.503 . S
C95 C94 1.370 1_545 S
C95 C96 1.403 . S
C96 C95 1.403 . S
C96 C97 1.404 . S
C96 C99 1.539 . S
C97 C93 1.408 . S
C97 C96 1.404 . S
C97 H109 0.930 . S
C98 C94 1.524 . S
C98 H110 0.956 . S
C98 H111 0.961 . S
C98 H112 0.961 . S
C99 C96 1.539 . S
C99 H113 0.958 . S
C99 H114 0.961 . S
C99 H115 0.960 . S
H100 C84 0.931 . S
H101 C89 0.929 . S
H102 C90 0.960 . S
H103 C90 0.962 1_565 S
H104 C90 0.960 . S
H105 C91 0.961 . S
H106 C91 0.961 . S
H107 C91 0.961 . S
H108 C92 0.931 . S
H109 C97 0.930 . S
H110 C98 0.956 . S
H111 C98 0.961 . S
H112 C98 0.961 . S
H113 C99 0.958 . S
H114 C99 0.961 . S
H115 C99 0.960 . S
C116 C117 1.391 . S
C116 C118 1.394 . S
C116 H132 0.931 . S
C117 C116 1.391 . S
C117 C121 1.376 . S
C118 C116 1.394 . S
C118 C119 1.369 . S
C118 C122 1.531 . S
C119 C118 1.369 . S
C119 C120 1.410 . S
C119 C127 1.503 . S
C120 C119 1.410 . S
C120 C121 1.392 . S
C120 C123 1.511 . S
C121 C117 1.376 . S
C121 C120 1.392 . S
C121 H133 0.929 . S
C122 C118 1.531 . S
C122 H134 0.960 . S
C122 H135 0.962 . S
C122 H136 0.960 . S
C123 C120 1.511 . S
C123 H137 0.961 . S
C123 H138 0.961 . S
C123 H139 0.961 . S
C124 C125 1.370 . S
C124 C126 1.363 . S
C124 H140 0.931 . S
C125 C124 1.370 . S
C125 C129 1.408 . S
C126 C124 1.363 . S
C126 C127 1.370 . S
C126 C130 1.524 . S
C127 C119 1.503 . S
C127 C126 1.370 . S
C127 C128 1.403 . S
C128 C127 1.403 . S
C128 C129 1.404 . S
C128 C131 1.539 . S
C129 C125 1.408 . S
C129 C128 1.404 . S
C129 H141 0.930 . S
C130 C126 1.524 . S
C130 H142 0.956 . S
C130 H143 0.961 . S
C130 H144 0.961 . S
C131 C128 1.539 . S
C131 H145 0.958 . S
C131 H146 0.961 . S
C131 H147 0.960 . S
H132 C116 0.931 . S
H133 C121 0.929 . S
H134 C122 0.960 . S
H135 C122 0.962 . S
H136 C122 0.960 . S
H137 C123 0.961 . S
H138 C123 0.961 . S
H139 C123 0.961 . S
H140 C124 0.931 . S
H141 C129 0.930 . S
H142 C130 0.956 . S
H143 C130 0.961 . S
H144 C130 0.961 . S
H145 C131 0.958 . S
H146 C131 0.961 . S
H147 C131 0.960 . S
C148 C149 1.391 . S
C148 C150 1.394 . S
C148 H164 0.931 . S
C149 C148 1.391 . S
C149 C153 1.376 . S
C150 C148 1.394 . S
C150 C151 1.369 . S
C150 C154 1.531 . S
C151 C150 1.369 . S
C151 C152 1.410 . S
C151 C159 1.503 . S
C152 C151 1.410 . S
C152 C153 1.392 . S
C152 C155 1.511 . S
C153 C149 1.376 . S
C153 C152 1.392 . S
C153 H165 0.929 . S
C154 C150 1.531 . S
C154 H166 0.960 . S
C154 H167 0.962 1_455 S
C154 H168 0.960 . S
C155 C152 1.511 . S
C155 H169 0.961 . S
C155 H170 0.961 . S
C155 H171 0.961 . S
C156 C157 1.370 1_655 S
C156 C158 1.371 . S
C156 H172 0.931 . S
C157 C156 1.370 1_455 S
C157 C161 1.408 . S
C158 C156 1.371 . S
C158 C159 1.356 1_655 S
C158 C162 1.531 . S
C159 C151 1.503 . S
C159 C158 1.356 1_455 S
C159 C160 1.403 . S
C160 C159 1.403 . S
C160 C161 1.404 . S
C160 C163 1.539 . S
C161 C157 1.408 . S
C161 C160 1.404 . S
C161 H173 0.930 . S
C162 C158 1.531 . S
C162 H174 0.956 . S
C162 H175 0.961 . S
C162 H176 0.961 . S
C163 C160 1.539 . S
C163 H177 0.958 . S
C163 H178 0.961 . S
C163 H179 0.960 . S
H164 C148 0.931 . S
H165 C153 0.929 . S
H166 C154 0.960 . S
H167 C154 0.962 1_655 S
H168 C154 0.960 . S
H169 C155 0.961 . S
H170 C155 0.961 . S
H171 C155 0.961 . S
H172 C156 0.931 . S
H173 C161 0.930 . S
H174 C162 0.956 . S
H175 C162 0.961 . S
H176 C162 0.961 . S
H177 C163 0.958 . S
H178 C163 0.961 . S
H179 C163 0.960 . S
C180 C181 1.391 . S
C180 C182 1.394 . S
C180 H196 0.931 . S
C181 C180 1.391 . S
C181 C185 1.376 . S
C182 C180 1.394 . S
C182 C183 1.369 . S
C182 C186 1.531 . S
C183 C182 1.369 . S
C183 C184 1.410 . S
C183 C191 1.503 . S
C184 C183 1.410 . S
C184 C185 1.392 . S
C184 C187 1.511 . S
C185 C181 1.376 . S
C185 C184 1.392 . S
C185 H197 0.929 . S
C186 C182 1.531 . S
C186 H198 0.960 . S
C186 H199 0.962 . S
C186 H200 0.960 . S
C187 C184 1.511 . S
C187 H201 0.961 . S
C187 H202 0.961 . S
C187 H203 0.961 . S
C188 C189 1.370 1_565 S
C188 C190 1.355 . S
C188 H204 0.931 . S
C189 C188 1.370 1_545 S
C189 C193 1.408 . S
C190 C188 1.355 . S
C190 C191 1.353 1_565 S
C190 C194 1.550 . S
C191 C183 1.503 . S
C191 C190 1.353 1_545 S
C191 C192 1.403 . S
C192 C191 1.403 . S
C192 C193 1.404 . S
C192 C195 1.539 . S
C193 C189 1.408 . S
C193 C192 1.404 . S
C193 H205 0.930 . S
C194 C190 1.550 . S
C194 H206 0.956 . S
C194 H207 0.961 . S
C194 H208 0.961 . S
C195 C192 1.539 . S
C195 H209 0.958 . S
C195 H210 0.961 . S
C195 H211 0.960 . S
H196 C180 0.931 . S
H197 C185 0.929 . S
H198 C186 0.960 . S
H199 C186 0.962 . S
H200 C186 0.960 . S
H201 C187 0.961 . S
H202 C187 0.961 . S
H203 C187 0.961 . S
H204 C188 0.931 . S
H205 C193 0.930 . S
H206 C194 0.956 . S
H207 C194 0.961 . S
H208 C194 0.961 . S
H209 C195 0.958 . S
H210 C195 0.961 . S
H211 C195 0.960 . S
C212 C213 1.391 . S
C212 C214 1.394 . S
C212 H228 0.931 . S
C213 C212 1.391 . S
C213 C217 1.376 . S
C214 C212 1.394 . S
C214 C215 1.369 . S
C214 C218 1.531 . S
C215 C214 1.369 . S
C215 C216 1.410 . S
C215 C223 1.503 1_554 S
C216 C215 1.410 . S
C216 C217 1.392 . S
C216 C219 1.511 1_554 S
C217 C213 1.376 . S
C217 C216 1.392 . S
C217 H229 0.929 . S
C218 C214 1.531 . S
C218 H230 0.960 . S
C218 H231 0.962 . S
C218 H232 0.960 . S
C219 C216 1.511 1_556 S
C219 H233 0.961 . S
C219 H234 0.961 . S
C219 H235 0.961 . S
C220 C221 1.370 . S
C220 C222 1.363 . S
C220 H236 0.931 . S
C221 C220 1.370 . S
C221 C225 1.408 . S
C222 C220 1.363 . S
C222 C223 1.370 . S
C222 C226 1.524 . S
C223 C215 1.503 1_556 S
C223 C222 1.370 . S
C223 C224 1.403 . S
C224 C223 1.403 . S
C224 C225 1.404 . S
C224 C227 1.539 . S
C225 C221 1.408 . S
C225 C224 1.404 . S
C225 H237 0.930 . S
C226 C222 1.524 . S
C226 H238 0.956 1_556 S
C226 H239 0.961 . S
C226 H240 0.961 . S
C227 C224 1.539 . S
C227 H241 0.958 . S
C227 H242 0.961 . S
C227 H243 0.960 . S
H228 C212 0.931 . S
H229 C217 0.929 . S
H230 C218 0.960 . S
H231 C218 0.962 . S
H232 C218 0.960 . S
H233 C219 0.961 . S
H234 C219 0.961 . S
H235 C219 0.961 . S
H236 C220 0.931 . S
H237 C225 0.930 . S
H238 C226 0.956 1_554 S
H239 C226 0.961 . S
H240 C226 0.961 . S
H241 C227 0.958 . S
H242 C227 0.961 . S
H243 C227 0.960 . S
C244 C245 1.391 . S
C244 C246 1.394 . S
C244 H260 0.931 . S
C245 C244 1.391 . S
C245 C249 1.376 1_455 S
C246 C244 1.394 . S
C246 C247 1.369 . S
C246 C250 1.531 . S
C247 C246 1.369 . S
C247 C248 1.410 1_455 S
C247 C255 1.503 . S
C248 C247 1.410 1_655 S
C248 C249 1.392 . S
C248 C251 1.511 . S
C249 C245 1.376 1_655 S
C249 C248 1.392 . S
C249 H261 0.929 . S
C250 C246 1.531 . S
C250 H262 0.960 . S
C250 H263 0.962 . S
C250 H264 0.960 . S
C251 C248 1.511 . S
C251 H265 0.961 . S
C251 H266 0.961 . S
C251 H267 0.961 . S
C252 C253 1.370 . S
C252 C254 1.363 . S
C252 H268 0.931 . S
C253 C252 1.370 . S
C253 C257 1.408 . S
C254 C252 1.363 . S
C254 C255 1.370 . S
C254 C258 1.524 . S
C255 C247 1.503 . S
C255 C254 1.370 . S
C255 C256 1.403 . S
C256 C255 1.403 . S
C256 C257 1.404 . S
C256 C259 1.539 . S
C257 C253 1.408 . S
C257 C256 1.404 . S
C257 H269 0.930 . S
C258 C254 1.524 . S
C258 H270 0.956 . S
C258 H271 0.961 . S
C258 H272 0.961 . S
C259 C256 1.539 . S
C259 H273 0.958 . S
C259 H274 0.961 1_455 S
C259 H275 0.960 1_455 S
H260 C244 0.931 . S
H261 C249 0.929 . S
H262 C250 0.960 . S
H263 C250 0.962 . S
H264 C250 0.960 . S
H265 C251 0.961 . S
H266 C251 0.961 . S
H267 C251 0.961 . S
H268 C252 0.931 . S
H269 C257 0.930 . S
H270 C258 0.956 . S
H271 C258 0.961 . S
H272 C258 0.961 . S
H273 C259 0.958 . S
H274 C259 0.961 1_655 S
H275 C259 0.960 1_655 S
C276 C277 1.391 . S
C276 C278 1.394 . S
C276 H292 0.931 . S
C277 C276 1.391 . S
C277 C281 1.376 . S
C278 C276 1.394 . S
C278 C279 1.369 . S
C278 C282 1.531 . S
C279 C278 1.369 . S
C279 C280 1.410 . S
C279 C287 1.503 . S
C280 C279 1.410 . S
C280 C281 1.392 . S
C280 C283 1.511 . S
C281 C277 1.376 . S
C281 C280 1.392 . S
C281 H293 0.929 . S
C282 C278 1.531 . S
C282 H294 0.960 . S
C282 H295 0.962 . S
C282 H296 0.960 . S
C283 C280 1.511 . S
C283 H297 0.961 . S
C283 H298 0.961 . S
C283 H299 0.961 . S
C284 C285 1.370 . S
C284 C286 1.363 . S
C284 H300 0.931 . S
C285 C284 1.370 . S
C285 C289 1.408 . S
C286 C284 1.363 . S
C286 C287 1.370 . S
C286 C290 1.524 . S
C287 C279 1.503 . S
C287 C286 1.370 . S
C287 C288 1.403 . S
C288 C287 1.403 . S
C288 C289 1.404 . S
C288 C291 1.539 . S
C289 C285 1.408 . S
C289 C288 1.404 . S
C289 H301 0.930 . S
C290 C286 1.524 . S
C290 H302 0.956 . S
C290 H303 0.961 . S
C290 H304 0.961 . S
C291 C288 1.539 . S
C291 H305 0.958 . S
C291 H306 0.961 . S
C291 H307 0.960 . S
H292 C276 0.931 . S
H293 C281 0.929 . S
H294 C282 0.960 . S
H295 C282 0.962 . S
H296 C282 0.960 . S
H297 C283 0.961 . S
H298 C283 0.961 . S
H299 C283 0.961 . S
H300 C284 0.931 . S
H301 C289 0.930 . S
H302 C290 0.956 . S
H303 C290 0.961 . S
H304 C290 0.961 . S
H305 C291 0.958 . S
H306 C291 0.961 . S
H307 C291 0.960 . S
C308 C309 1.391 . S
C308 C310 1.394 . S
C308 H324 0.931 . S
C309 C308 1.391 . S
C309 C313 1.376 . S
C310 C308 1.394 . S
C310 C311 1.369 . S
C310 C314 1.531 . S
C311 C310 1.369 . S
C311 C312 1.410 . S
C311 C319 1.503 . S
C312 C311 1.410 . S
C312 C313 1.392 . S
C312 C315 1.511 . S
C313 C309 1.376 . S
C313 C312 1.392 . S
C313 H325 0.929 . S
C314 C310 1.531 . S
C314 H326 0.960 . S
C314 H327 0.962 . S
C314 H328 0.960 . S
C315 C312 1.511 . S
C315 H329 0.961 . S
C315 H330 0.961 . S
C315 H331 0.961 . S
C316 C317 1.370 . S
C316 C318 1.363 . S
C316 H332 0.931 . S
C317 C316 1.370 . S
C317 C321 1.408 . S
C318 C316 1.363 . S
C318 C319 1.370 . S
C318 C322 1.524 . S
C319 C311 1.503 . S
C319 C318 1.370 . S
C319 C320 1.403 . S
C320 C319 1.403 . S
C320 C321 1.404 . S
C320 C323 1.539 . S
C321 C317 1.408 . S
C321 C320 1.404 . S
C321 H333 0.930 . S
C322 C318 1.524 . S
C322 H334 0.956 . S
C322 H335 0.961 . S
C322 H336 0.961 . S
C323 C320 1.539 . S
C323 H337 0.958 . S
C323 H338 0.961 . S
C323 H339 0.960 . S
H324 C308 0.931 . S
H325 C313 0.929 . S
H326 C314 0.960 . S
H327 C314 0.962 . S
H328 C314 0.960 . S
H329 C315 0.961 . S
H330 C315 0.961 . S
H331 C315 0.961 . S
H332 C316 0.931 . S
H333 C321 0.930 . S
H334 C322 0.956 . S
H335 C322 0.961 . S
H336 C322 0.961 . S
H337 C323 0.958 . S
H338 C323 0.961 . S
H339 C323 0.960 . S
C340 C341 1.391 . S
C340 C342 1.394 . S
C340 H356 0.931 . S
C341 C340 1.391 . S
C341 C345 1.376 . S
C342 C340 1.394 . S
C342 C343 1.369 . S
C342 C346 1.531 . S
C343 C342 1.369 . S
C343 C344 1.410 . S
C343 C351 1.503 . S
C344 C343 1.410 . S
C344 C345 1.392 . S
C344 C347 1.511 . S
C345 C341 1.376 . S
C345 C344 1.392 . S
C345 H357 0.929 . S
C346 C342 1.531 . S
C346 H358 0.960 . S
C346 H359 0.962 . S
C346 H360 0.960 . S
C347 C344 1.511 . S
C347 H361 0.961 . S
C347 H362 0.961 . S
C347 H363 0.961 . S
C348 C349 1.370 . S
C348 C350 1.363 . S
C348 H364 0.931 . S
C349 C348 1.370 . S
C349 C353 1.408 . S
C350 C348 1.363 . S
C350 C351 1.370 . S
C350 C354 1.524 . S
C351 C343 1.503 . S
C351 C350 1.370 . S
C351 C352 1.403 . S
C352 C351 1.403 . S
C352 C353 1.404 . S
C352 C355 1.539 . S
C353 C349 1.408 . S
C353 C352 1.404 . S
C353 H365 0.930 . S
C354 C350 1.524 . S
C354 H366 0.956 . S
C354 H367 0.961 . S
C354 H368 0.961 . S
C355 C352 1.539 . S
C355 H369 0.958 . S
C355 H370 0.961 . S
C355 H371 0.960 . S
H356 C340 0.931 . S
H357 C345 0.929 . S
H358 C346 0.960 . S
H359 C346 0.962 . S
H360 C346 0.960 . S
H361 C347 0.961 . S
H362 C347 0.961 . S
H363 C347 0.961 . S
H364 C348 0.931 . S
H365 C353 0.930 . S
H366 C354 0.956 . S
H367 C354 0.961 . S
H368 C354 0.961 . S
H369 C355 0.958 . S
H370 C355 0.961 . S
H371 C355 0.960 . S
C372 C373 1.391 . S
C372 C374 1.394 . S
C372 H388 0.931 . S
C373 C372 1.391 . S
C373 C377 1.376 . S
C374 C372 1.394 . S
C374 C375 1.369 . S
C374 C378 1.531 . S
C375 C374 1.369 . S
C375 C376 1.410 . S
C375 C383 1.503 . S
C376 C375 1.410 . S
C376 C377 1.392 . S
C376 C379 1.511 . S
C377 C373 1.376 . S
C377 C376 1.392 . S
C377 H389 0.929 . S
C378 C374 1.531 . S
C378 H390 0.960 . S
C378 H391 0.962 . S
C378 H392 0.960 . S
C379 C376 1.511 . S
C379 H393 0.961 . S
C379 H394 0.961 . S
C379 H395 0.961 . S
C380 C381 1.370 . S
C380 C382 1.363 . S
C380 H396 0.931 . S
C381 C380 1.370 . S
C381 C385 1.408 . S
C382 C380 1.363 . S
C382 C383 1.370 . S
C382 C386 1.524 . S
C383 C375 1.503 . S
C383 C382 1.370 . S
C383 C384 1.403 . S
C384 C383 1.403 . S
C384 C385 1.404 . S
C384 C387 1.539 . S
C385 C381 1.408 . S
C385 C384 1.404 . S
C385 H397 0.930 . S
C386 C382 1.524 . S
C386 H398 0.956 . S
C386 H399 0.961 . S
C386 H400 0.961 . S
C387 C384 1.539 . S
C387 H401 0.958 . S
C387 H402 0.961 . S
C387 H403 0.960 . S
H388 C372 0.931 . S
H389 C377 0.929 . S
H390 C378 0.960 . S
H391 C378 0.962 . S
H392 C378 0.960 . S
H393 C379 0.961 . S
H394 C379 0.961 . S
H395 C379 0.961 . S
H396 C380 0.931 . S
H397 C385 0.930 . S
H398 C386 0.956 . S
H399 C386 0.961 . S
H400 C386 0.961 . S
H401 C387 0.958 . S
H402 C387 0.961 . S
H403 C387 0.960 . S
C404 C405 1.391 . S
C404 C406 1.394 . S
C404 H420 0.931 . S
C405 C404 1.391 . S
C405 C409 1.376 . S
C406 C404 1.394 . S
C406 C407 1.369 . S
C406 C410 1.531 . S
C407 C406 1.369 . S
C407 C408 1.410 . S
C407 C415 1.503 . S
C408 C407 1.410 . S
C408 C409 1.392 . S
C408 C411 1.511 . S
C409 C405 1.376 . S
C409 C408 1.392 . S
C409 H421 0.929 . S
C410 C406 1.531 . S
C410 H422 0.960 . S
C410 H423 0.962 . S
C410 H424 0.960 . S
C411 C408 1.511 . S
C411 H425 0.961 . S
C411 H426 0.961 . S
C411 H427 0.961 . S
C412 C413 1.370 . S
C412 C414 1.363 . S
C412 H428 0.931 . S
C413 C412 1.370 . S
C413 C417 1.408 . S
C414 C412 1.363 . S
C414 C415 1.370 . S
C414 C418 1.524 . S
C415 C407 1.503 . S
C415 C414 1.370 . S
C415 C416 1.403 . S
C416 C415 1.403 . S
C416 C417 1.404 . S
C416 C419 1.539 . S
C417 C413 1.408 . S
C417 C416 1.404 . S
C417 H429 0.930 . S
C418 C414 1.524 . S
C418 H430 0.956 . S
C418 H431 0.961 . S
C418 H432 0.961 . S
C419 C416 1.539 . S
C419 H433 0.958 . S
C419 H434 0.961 . S
C419 H435 0.960 . S
H420 C404 0.931 . S
H421 C409 0.929 . S
H422 C410 0.960 . S
H423 C410 0.962 . S
H424 C410 0.960 . S
H425 C411 0.961 . S
H426 C411 0.961 . S
H427 C411 0.961 . S
H428 C412 0.931 . S
H429 C417 0.930 . S
H430 C418 0.956 . S
H431 C418 0.961 . S
H432 C418 0.961 . S
H433 C419 0.958 . S
H434 C419 0.961 . S
H435 C419 0.960 . S
C436 C437 1.391 1_554 S
C436 C438 1.394 . S
C436 H452 0.931 . S
C437 C436 1.391 1_556 S
C437 C441 1.376 . S
C438 C436 1.394 . S
C438 C439 1.369 1_554 S
C438 C442 1.531 . S
C439 C438 1.369 1_556 S
C439 C440 1.410 . S
C439 C447 1.503 . S
C440 C439 1.410 . S
C440 C441 1.392 . S
C440 C443 1.511 . S
C441 C437 1.376 . S
C441 C440 1.392 . S
C441 H453 0.929 . S
C442 C438 1.531 . S
C442 H454 0.960 . S
C442 H455 0.962 . S
C442 H456 0.960 . S
C443 C440 1.511 . S
C443 H457 0.961 . S
C443 H458 0.961 . S
C443 H459 0.961 . S
C444 C445 1.370 . S
C444 C446 1.363 . S
C444 H460 0.931 . S
C445 C444 1.370 . S
C445 C449 1.408 . S
C446 C444 1.363 . S
C446 C447 1.370 1_554 S
C446 C450 1.524 . S
C447 C439 1.503 . S
C447 C446 1.370 1_556 S
C447 C448 1.403 . S
C448 C447 1.403 . S
C448 C449 1.404 1_556 S
C448 C451 1.539 . S
C449 C445 1.408 . S
C449 C448 1.404 1_554 S
C449 H461 0.930 . S
C450 C446 1.524 . S
C450 H462 0.956 . S
C450 H463 0.961 1_554 S
C450 H464 0.961 . S
C451 C448 1.539 . S
C451 H465 0.958 1_556 S
C451 H466 0.961 . S
C451 H467 0.960 . S
H452 C436 0.931 . S
H453 C441 0.929 . S
H454 C442 0.960 . S
H455 C442 0.962 . S
H456 C442 0.960 . S
H457 C443 0.961 . S
H458 C443 0.961 . S
H459 C443 0.961 . S
H460 C444 0.931 . S
H461 C449 0.930 . S
H462 C450 0.956 . S
H463 C450 0.961 1_556 S
H464 C450 0.961 . S
H465 C451 0.958 1_554 S
H466 C451 0.961 . S
H467 C451 0.960 . S
C85 C9 1.636 . S
C93 C47 1.635 . S
C117 C19 1.655 . S
C125 C65 1.661 . S
C149 C75 1.687 . S
C157 C37 1.687 . S
C181 C5 1.633 . S
C189 C51 1.631 . S
C213 C23 1.649 . S
C221 C61 1.664 . S
C245 C79 1.683 1_554 S
C253 C33 1.693 . S
C277 C25 1.339 . S
C285 C11 1.338 . S
C309 C28 1.387 . S
C317 C14 1.395 . S
C341 C39 1.379 . S
C349 C42 1.373 . S
C373 C67 1.361 . S
C381 C53 1.353 . S
C405 C70 1.410 . S
C413 C56 1.404 . S
C437 C81 1.355 . S
C445 C0 1.356 . S
