# Generated by pormake.
# Topology twt, (3)-cn, num edge types: 1
# Building blocks:
#     Node 0, Type 0, BuildingBlock: OLANEW_clean_sbu_2, # of connection points: 3
#     Node 1, Type 0, BuildingBlock: OLANEW_clean_sbu_2, # of connection points: 3
#     Node 2, Type 0, BuildingBlock: OLANEW_clean_sbu_2, # of connection points: 3
#     Node 3, Type 0, BuildingBlock: OLANEW_clean_sbu_2, # of connection points: 3
#     Node 4, Type 0, BuildingBlock: OLANEW_clean_sbu_2, # of connection points: 3
#     Node 5, Type 0, BuildingBlock: OLANEW_clean_sbu_2, # of connection points: 3
#     Edge 6, Type (0, 0), BuildingBlock: MIFKUJ_clean_linker_0, # of connection points: 2
#     Edge 7, Type (0, 0), BuildingBlock: MIFKUJ_clean_linker_0, # of connection points: 2
#     Edge 8, Type (0, 0), BuildingBlock: MIFKUJ_clean_linker_0, # of connection points: 2
#     Edge 9, Type (0, 0), BuildingBlock: MIFKUJ_clean_linker_0, # of connection points: 2
#     Edge 10, Type (0, 0), BuildingBlock: MIFKUJ_clean_linker_0, # of connection points: 2
#     Edge 11, Type (0, 0), BuildingBlock: MIFKUJ_clean_linker_0, # of connection points: 2
#     Edge 12, Type (0, 0), BuildingBlock: MIFKUJ_clean_linker_0, # of connection points: 2
#     Edge 13, Type (0, 0), BuildingBlock: MIFKUJ_clean_linker_0, # of connection points: 2
#     Edge 14, Type (0, 0), BuildingBlock: MIFKUJ_clean_linker_0, # of connection points: 2
# Relax obj value: 0.004
# Max RMSD: 0.080
# Mean RMSD: 0.064
data_MOF--net-twt--node1-OLANEW_clean_sbu_2--edge1-MIFKUJ_clean_linker_0
_symmetry_space_group_name_H-M    P1
_symmetry_Int_Tables_number       1
_symmetry_cell_setting            triclinic
loop_
_symmetry_equiv_pos_as_xyz
'x, y, z'
_cell_length_a     43.031691
_cell_length_b     48.536662
_cell_length_c     48.464759
_cell_angle_alpha  85.535283
_cell_angle_beta   92.794199
_cell_angle_gamma 115.42657
loop_
_atom_site_label
_atom_site_type_symbol
_atom_site_fract_x
_atom_site_fract_y
_atom_site_fract_z
_atom_type_partial_charge
O0 O 0.3919 0.0596 0.04503 0.0
Cd1 Cd 0.33518 0.05897 0.04867 0.0
O2 O 0.40464 0.06697 0.0892 0.0
Cd3 Cd 0.36031 0.07443 0.10011 0.0
O4 O 0.33983 0.09591 0.12778 0.0
C5 C 0.3553 0.10163 0.15112 0.0
O6 O 0.38049 0.09346 0.15662 0.0
C7 C 0.4124 0.06241 0.06553 0.0
C8 C 0.28576 0.00944 0.02198 0.0
O9 O 0.30153 0.03554 0.00895 0.0
O10 O 0.29307 0.00686 0.04773 0.0
O11 O 0.38354 0.39399 0.364 0.0
Cd12 Cd 0.33328 0.34654 0.37646 0.0
O13 O 0.37526 0.42041 0.39548 0.0
Cd14 Cd 0.32928 0.38381 0.41392 0.0
O15 O 0.2901 0.36487 0.44587 0.0
C16 C 0.30042 0.37222 0.4704 0.0
O17 O 0.33333 0.38917 0.47487 0.0
C18 C 0.3927 0.41894 0.37567 0.0
C19 C 0.32724 0.30108 0.34177 0.0
O20 O 0.31156 0.31811 0.33595 0.0
O21 O 0.34541 0.30531 0.36414 0.0
O22 O 0.0373 0.40045 0.73337 0.0
Cd23 Cd 0.04 0.35086 0.73494 0.0
O24 O 0.08932 0.42458 0.75116 0.0
Cd25 Cd 0.09043 0.38116 0.76506 0.0
O26 O 0.0721 0.33966 0.79256 0.0
C27 C 0.06856 0.34326 0.81774 0.0
O28 O 0.07753 0.3711 0.82537 0.0
C29 C 0.06214 0.4252 0.7402 0.0
C30 C 0.07889 0.34734 0.69188 0.0
O31 O 0.04632 0.33863 0.68902 0.0
O32 O 0.093 0.35764 0.71507 0.0
O33 O 0.76082 0.0604 0.04459 0.0
Cd34 Cd 0.81679 0.0585 0.04849 0.0
O35 O 0.75831 0.06294 0.08951 0.0
Cd36 Cd 0.80337 0.05466 0.10102 0.0
O37 O 0.82582 0.0297 0.12818 0.0
C38 C 0.82791 0.00624 0.12019 0.0
O39 O 0.81885 -0.00137 0.0946 0.0
C40 C 0.74545 0.06296 0.06532 0.0
C41 C 0.86343 0.10164 0.01141 0.0
O42 O 0.8447 0.0743 0.00462 0.0
O43 O 0.86025 0.1085 0.03581 0.0
O44 O 0.74498 0.67316 0.33841 0.0
Cd45 Cd 0.80485 0.71019 0.34479 0.0
O46 O 0.72525 0.69225 0.3693 0.0
Cd47 Cd 0.77651 0.72081 0.38522 0.0
O48 O 0.81568 0.72711 0.41756 0.0
C49 C 0.81414 0.70237 0.42964 0.0
O50 O 0.79093 0.6763 0.42105 0.0
C51 C 0.71972 0.67335 0.35085 0.0
C52 C 0.81944 0.76342 0.31103 0.0
O53 O 0.82271 0.74062 0.30218 0.0
O54 O 0.80953 0.76116 0.33596 0.0
O55 O -0.00368 0.67485 0.83098 0.0
Cd56 Cd 0.9807 0.71145 0.85164 0.0
O57 O 0.00524 0.70211 0.7915 0.0
Cd58 Cd 0.0119 0.70912 0.7467 0.0
O59 O 0.00095 0.71408 0.70262 0.0
C60 C 0.98255 0.6902 0.69008 0.0
O61 O 0.97229 0.66341 0.70377 0.0
C62 C 0.00428 0.67858 0.80561 0.0
C63 C 0.03487 0.75719 0.87858 0.0
O64 O 0.0162 0.73166 0.89146 0.0
O65 O 0.02825 0.76086 0.85284 0.0
H66 H 0.30635 0.12401 0.1461 0.0
H67 H 0.295 0.15455 0.17877 0.0
H68 H 0.37405 0.1488 0.23394 0.0
H69 H 0.38511 0.11797 0.20179 0.0
H70 H 0.31892 0.14121 0.2623 0.0
H71 H 0.38915 0.21244 0.1904 0.0
H72 H 0.40315 0.23342 0.14226 0.0
H73 H 0.31044 0.24648 0.13502 0.0
H74 H 0.29568 0.2252 0.18304 0.0
H75 H 0.36333 0.26632 0.34539 0.0
H76 H 0.36168 0.22941 0.31326 0.0
H77 H 0.28445 0.24556 0.26358 0.0
H78 H 0.28663 0.28319 0.29532 0.0
H79 H 0.33196 0.24548 0.23161 0.0
H80 H 0.26446 0.17861 0.30533 0.0
H81 H 0.25097 0.15796 0.35359 0.0
H82 H 0.33817 0.13657 0.3577 0.0
H83 H 0.35248 0.15749 0.30958 0.0
C84 C 0.32114 0.12908 0.16528 0.0
C85 C 0.34678 0.1187 0.17126 0.0
C86 C 0.31472 0.14663 0.18388 0.0
C87 C 0.33397 0.15427 0.20866 0.0
C88 C 0.35888 0.1432 0.21496 0.0
C89 C 0.36525 0.12565 0.19647 0.0
C90 C 0.32909 0.17447 0.22781 0.0
C91 C 0.32199 0.16409 0.25565 0.0
C92 C 0.3322 0.20403 0.21899 0.0
C93 C 0.34112 0.21691 0.19018 0.0
C94 C 0.37163 0.21957 0.17846 0.0
C95 C 0.37972 0.23155 0.15122 0.0
C96 C 0.35765 0.24119 0.13556 0.0
C97 C 0.32748 0.23895 0.14715 0.0
C98 C 0.31925 0.22695 0.17438 0.0
C99 C 0.34581 0.26189 0.32774 0.0
C100 C 0.32507 0.27767 0.32294 0.0
C101 C 0.34476 0.24063 0.30944 0.0
C102 C 0.32257 0.23434 0.28618 0.0
C103 C 0.3017 0.24996 0.28141 0.0
C104 C 0.30293 0.27142 0.29961 0.0
C105 C 0.32227 0.21241 0.26627 0.0
C106 C 0.32843 0.22247 0.23826 0.0
C107 C 0.31829 0.18255 0.27496 0.0
C108 C 0.30968 0.16984 0.3039 0.0
C109 C 0.2809 0.1697 0.31659 0.0
C110 C 0.27309 0.15791 0.34391 0.0
C111 C 0.29374 0.14602 0.35872 0.0
C112 C 0.32221 0.14581 0.34621 0.0
C113 C 0.33016 0.1576 0.3189 0.0
H114 H 0.28765 0.1369 0.37988 0.0
H115 H 0.36396 0.25046 0.11447 0.0
H116 H 0.23018 0.33964 0.46825 0.0
H117 H 0.18959 0.32952 0.50557 0.0
H118 H 0.27415 0.37659 0.56126 0.0
H119 H 0.3148 0.38632 0.52434 0.0
H120 H 0.22675 0.32597 0.58679 0.0
H121 H 0.2271 0.4121 0.52922 0.0
H122 H 0.22064 0.43856 0.48528 0.0
H123 H 0.11589 0.37189 0.47721 0.0
H124 H 0.12189 0.34481 0.52095 0.0
H125 H 0.14874 0.36801 0.69055 0.0
H126 H 0.18318 0.36658 0.65261 0.0
H127 H 0.09079 0.32142 0.6038 0.0
H128 H 0.05613 0.32338 0.64152 0.0
H129 H 0.13809 0.36582 0.57351 0.0
H130 H 0.13614 0.28228 0.63358 0.0
H131 H 0.14274 0.2561 0.67763 0.0
H132 H 0.25013 0.31741 0.68125 0.0
H133 H 0.24409 0.34424 0.63741 0.0
C134 C 0.24014 0.3476 0.4885 0.0
C135 C 0.27573 0.364 0.49325 0.0
C136 C 0.2169 0.34189 0.50979 0.0
C137 C 0.22882 0.35267 0.53611 0.0
C138 C 0.26436 0.36809 0.54112 0.0
C139 C 0.28758 0.37373 0.51992 0.0
C140 C 0.20443 0.349 0.55827 0.0
C141 C 0.20751 0.33486 0.58398 0.0
C142 C 0.17873 0.3599 0.55437 0.0
C143 C 0.17506 0.37626 0.52817 0.0
C144 C 0.20277 0.40297 0.51796 0.0
C145 C 0.19918 0.41809 0.49312 0.0
C146 C 0.1679 0.40686 0.47842 0.0
C147 C 0.14012 0.38053 0.48859 0.0
C148 C 0.14359 0.3653 0.51341 0.0
C149 C 0.13569 0.35765 0.6718 0.0
C150 C 0.09967 0.34577 0.66908 0.0
C151 C 0.15543 0.35668 0.65016 0.0
C152 C 0.13956 0.34348 0.62547 0.0
C153 C 0.10359 0.33162 0.62268 0.0
C154 C 0.08382 0.33272 0.64428 0.0
C155 C 0.16067 0.34313 0.60224 0.0
C156 C 0.15701 0.35656 0.5763 0.0
C157 C 0.18583 0.33157 0.60595 0.0
C158 C 0.18959 0.31542 0.6323 0.0
C159 C 0.16111 0.29032 0.64387 0.0
C160 C 0.16476 0.27534 0.66878 0.0
C161 C 0.19681 0.28513 0.68226 0.0
C162 C 0.22531 0.30987 0.6708 0.0
C163 C 0.2218 0.32495 0.6459 0.0
H164 H 0.19958 0.2735 0.70155 0.0
H165 H 0.16517 0.41861 0.45919 0.0
H166 H 0.04217 0.28232 0.80818 0.0
H167 H 0.01117 0.2388 0.84073 0.0
H168 H 0.02619 0.30053 0.90474 0.0
H169 H 0.05753 0.344 0.87257 0.0
H170 H 0.03557 0.25128 0.92491 0.0
H171 H 0.95057 0.27055 0.86839 0.0
H172 H 0.92242 0.27719 0.82445 0.0
H173 H 0.90244 0.18632 0.80461 0.0
H174 H 0.9309 0.1793 0.84829 0.0
H175 H 0.90322 0.16222 0.01857 0.0
H176 H 0.94161 0.20064 0.98524 0.0
H177 H 0.91718 0.13192 0.92616 0.0
H178 H 0.87814 0.09341 0.95922 0.0
H179 H 0.9147 0.18176 0.90202 0.0
H180 H -0.00435 0.16098 0.96078 0.0
H181 H 0.02345 0.15457 0.00496 0.0
H182 H 0.05102 0.24807 0.02091 0.0
H183 H 0.02296 0.25495 0.97699 0.0
C184 C 0.03915 0.28661 0.82925 0.0
C185 C 0.05211 0.31665 0.83772 0.0
C186 C 0.02132 0.26172 0.8478 0.0
C187 C 0.01598 0.26645 0.87506 0.0
C188 C 0.02996 0.29634 0.8838 0.0
C189 C 0.04778 0.32119 0.86532 0.0
C190 C -0.00525 0.24049 0.89431 0.0
C191 C 0.00906 0.23619 0.92001 0.0
C192 C 0.96042 0.22038 0.88765 0.0
C193 C 0.9432 0.22453 0.86144 0.0
C194 C 0.94041 0.25208 0.85455 0.0
C195 C 0.92436 0.25589 0.82971 0.0
C196 C 0.91075 0.23222 0.81171 0.0
C197 C 0.91306 0.20465 0.81855 0.0
C198 C 0.92913 0.20074 0.84335 0.0
C199 C 0.90613 0.15521 -0.00146 0.0
C200 C 0.88763 0.12473 0.99156 0.0
C201 C 0.92826 0.17719 0.97955 0.0
C202 C 0.93265 0.1691 0.9533 0.0
C203 C 0.91427 0.13867 0.9463 0.0
C204 C 0.89201 0.11668 0.96525 0.0
C205 C 0.95538 0.19266 0.93281 0.0
C206 C 0.94133 0.19657 0.90686 0.0
C207 C 0.98994 0.21242 0.93928 0.0
C208 C 0.00694 0.2084 0.96568 0.0
C209 C 0.00741 0.18012 0.9738 0.0
C210 C 0.02326 0.17641 -0.00122 0.0
C211 C 0.03893 0.20088 0.01576 0.0
C212 C 0.03885 0.22913 0.00775 0.0
C213 C 0.02301 0.23296 0.9828 0.0
H214 H 0.05118 0.19796 0.03509 0.0
H215 H 0.89832 0.23522 0.79249 0.0
H216 H 0.83296 0.77227 0.25572 0.0
H217 H 0.8412 0.81723 0.22522 0.0
H218 H 0.83006 0.86275 0.29455 0.0
H219 H 0.82084 0.81746 0.32508 0.0
H220 H 0.79305 0.8696 0.25287 0.0
H221 H 0.9094 0.88352 0.26391 0.0
H222 H 0.95805 0.8694 0.2643 0.0
H223 H 0.94165 0.85418 0.17763 0.0
H224 H 0.89257 0.8678 0.17678 0.0
H225 H 0.83858 0.01101 0.1761 0.0
H226 H 0.84422 0.97341 0.21007 0.0
H227 H 0.84035 0.91693 0.14438 0.0
H228 H 0.83477 0.95443 0.11018 0.0
H229 H 0.88841 0.91884 0.18631 0.0
H230 H 0.76903 0.90163 0.17734 0.0
H231 H 0.72123 0.91683 0.17767 0.0
H232 H 0.74538 0.93982 0.26227 0.0
H233 H 0.79366 0.92515 0.26231 0.0
C234 C 0.83251 0.79192 0.26453 0.0
C235 C 0.82622 0.79128 0.29283 0.0
C236 C 0.83745 0.81772 0.24708 0.0
C237 C 0.83671 0.84359 0.25762 0.0
C238 C 0.8308 0.8431 0.28594 0.0
C239 C 0.82558 0.81721 0.30337 0.0
C240 C 0.84024 0.87044 0.23883 0.0
C241 C 0.8143 0.8807 0.23872 0.0
C242 C 0.8676 0.88465 0.21994 0.0
C243 C 0.8971 0.87643 0.22035 0.0
C244 C 0.91598 0.87692 0.24498 0.0
C245 C 0.94367 0.86905 0.24527 0.0
C246 C 0.95288 0.86083 0.22102 0.0
C247 C 0.93447 0.86052 0.1964 0.0
C248 C 0.90673 0.86835 0.196 0.0
C249 C 0.83943 0.99082 0.1688 0.0
C250 C 0.83585 0.98556 0.14042 0.0
C251 C 0.84257 0.96932 0.18827 0.0
C252 C 0.84223 0.94222 0.17974 0.0
C253 C 0.84058 0.93768 0.15137 0.0
C254 C 0.83728 0.9591 0.13187 0.0
C255 C 0.84119 0.91768 0.2004 0.0
C256 C 0.86747 0.90785 0.20075 0.0
C257 C 0.81431 0.90398 0.21969 0.0
C258 C 0.78517 0.91262 0.21973 0.0
C259 C 0.76431 0.91016 0.19594 0.0
C260 C 0.73711 0.91864 0.19607 0.0
C261 C 0.73033 0.92937 0.21995 0.0
C262 C 0.7507 0.93156 0.24378 0.0
C263 C 0.77797 0.92315 0.24374 0.0
H264 H 0.70926 0.93592 0.22001 0.0
H265 H 0.97433 0.85475 0.22129 0.0
H266 H 0.86378 0.75194 0.45412 0.0
H267 H 0.89664 0.75161 0.4968 0.0
H268 H 0.84663 0.65306 0.50343 0.0
H269 H 0.81369 0.65314 0.46106 0.0
H270 H 0.8445 0.6773 0.55141 0.0
H271 H 0.92963 0.69043 0.48441 0.0
H272 H 0.96679 0.71554 0.44432 0.0
H273 H 0.0157 0.79856 0.48656 0.0
H274 H 0.97847 0.77405 0.52679 0.0
H275 H 0.94109 0.64372 0.65831 0.0
H276 H 0.91661 0.64786 0.61251 0.0
H277 H 0.97088 0.74612 0.61103 0.0
H278 H -0.00413 0.7422 0.65681 0.0
H279 H 0.97185 0.72475 0.56067 0.0
H280 H 0.88791 0.71256 0.62738 0.0
H281 H 0.85063 0.6886 0.66762 0.0
H282 H 0.799 0.60543 0.62597 0.0
H283 H 0.83634 0.62876 0.58561 0.0
C284 C 0.86003 0.73021 0.46454 0.0
C285 C 0.83603 0.70257 0.45423 0.0
C286 C 0.8789 0.73006 0.48887 0.0
C287 C 0.87412 0.7023 0.50323 0.0
C288 C 0.85065 0.67473 0.4927 0.0
C289 C 0.8319 0.67485 0.46841 0.0
C290 C 0.89227 0.70178 0.52994 0.0
C291 C 0.87235 0.68732 0.55335 0.0
C292 C 0.92858 0.71575 0.53263 0.0
C293 C 0.95101 0.7305 0.50849 0.0
C294 C 0.9481 0.71412 0.48506 0.0
C295 C 0.96922 0.72823 0.46233 0.0
C296 C -0.00648 0.75865 0.46286 0.0
C297 C -0.00318 0.77501 0.48616 0.0
C298 C 0.97574 0.76101 0.50894 0.0
C299 C 0.94811 0.66622 0.64818 0.0
C300 C 0.97019 0.69264 0.66134 0.0
C301 C 0.934 0.66854 0.62203 0.0
C302 C 0.9415 0.69732 0.60858 0.0
C303 C 0.96466 0.7237 0.62111 0.0
C304 C 0.97883 0.72141 0.6473 0.0
C305 C 0.92403 0.69978 0.58198 0.0
C306 C 0.94401 0.71472 0.55869 0.0
C307 C 0.88771 0.68643 0.57937 0.0
C308 C 0.86516 0.67232 0.60359 0.0
C309 C 0.8688 0.68908 0.62689 0.0
C310 C 0.84762 0.67563 0.64971 0.0
C311 C 0.82252 0.64549 0.64938 0.0
C312 C 0.81849 0.62876 0.62621 0.0
C313 C 0.83964 0.64209 0.60335 0.0
H314 H 0.80614 0.63512 0.66706 0.0
H315 H 0.00986 0.76954 0.44524 0.0
H316 H 0.05606 0.75583 0.93261 0.0
H317 H 0.09988 0.79769 0.95723 0.0
H318 H 0.11955 0.85672 0.88259 0.0
H319 H 0.07621 0.81482 0.85769 0.0
H320 H 0.17854 0.86425 0.90898 0.0
H321 H 0.07005 0.86088 0.93395 0.0
H322 H 0.01101 0.83662 0.95187 0.0
H323 H 0.04898 0.81551 0.03043 0.0
H324 H 0.10822 0.8393 0.01284 0.0
H325 H 0.26525 0.00775 0.96759 0.0
H326 H 0.22377 0.96387 0.94378 0.0
H327 H 0.20732 0.90732 0.01977 0.0
H328 H 0.24848 0.95122 0.04385 0.0
H329 H 0.14735 0.89753 0.99352 0.0
H330 H 0.25614 0.90227 0.96895 0.0
H331 H 0.31514 0.92652 0.95098 0.0
H332 H 0.27672 0.9451 0.87168 0.0
H333 H 0.2175 0.92132 0.8893 0.0
C334 C 0.06982 0.77767 0.92139 0.0
C335 C 0.06251 0.78204 0.89322 0.0
C336 C 0.09476 0.80162 0.93553 0.0
C337 C 0.11264 0.83048 0.92186 0.0
C338 C 0.10601 0.83467 0.89357 0.0
C339 C 0.08116 0.81071 0.87939 0.0
C340 C 0.13791 0.85644 0.93708 0.0
C341 C 0.17162 0.87177 0.92728 0.0
C342 C 0.1291 0.86578 0.96134 0.0
C343 C 0.09352 0.8516 0.97199 0.0
C344 C 0.06578 0.85086 0.95498 0.0
C345 C 0.03228 0.83723 0.96508 0.0
C346 C 0.02624 0.82446 0.99224 0.0
C347 C 0.05369 0.82537 0.00938 0.0
C348 C 0.08723 0.83895 -0.00064 0.0
C349 C 0.25281 0.98599 0.97926 0.0
C350 C 0.26024 0.98297 0.00761 0.0
C351 C 0.22922 0.96088 0.96558 0.0
C352 C 0.21277 0.93221 0.97991 0.0
C353 C 0.21978 0.92922 0.00829 0.0
C354 C 0.24336 0.95432 0.02201 0.0
C355 C 0.18796 0.90545 0.96535 0.0
C356 C 0.15432 0.88996 0.97527 0.0
C357 C 0.19684 0.89598 0.9412 0.0
C358 C 0.23242 0.91027 0.93053 0.0
C359 C 0.2603 0.91175 0.94775 0.0
C360 C 0.29378 0.92537 0.93761 0.0
C361 C 0.29969 0.93741 0.91023 0.0
C362 C 0.27211 0.93579 0.8929 0.0
C363 C 0.23858 0.92222 0.90294 0.0
H364 H 0.32562 0.94794 0.90242 0.0
H365 H 0.00029 0.81391 3e-05 0.0
H366 H 0.70881 0.06232 0.01709 0.0
H367 H 0.65129 0.06118 0.0123 0.0
H368 H 0.64847 0.06549 0.10065 0.0
H369 H 0.70551 0.06646 0.10567 0.0
H370 H 0.59034 0.02032 0.08089 0.0
H371 H 0.6615 0.12734 0.05727 0.0
H372 H 0.70537 0.1707 0.03046 0.0
H373 H 0.64572 0.14143 0.95587 0.0
H374 H 0.6017 0.09764 0.9822 0.0
H375 H 0.45925 0.06331 0.10583 0.0
H376 H 0.51427 0.06144 0.10051 0.0
H377 H 0.49629 0.05599 0.01235 0.0
H378 H 0.44089 0.05804 0.01744 0.0
H379 H 0.56228 0.09737 0.02564 0.0
H380 H 0.4883 0.99338 0.04988 0.0
H381 H 0.44409 0.95026 0.07661 0.0
H382 H 0.50868 0.97318 0.14949 0.0
H383 H 0.5531 0.01673 0.12329 0.0
C384 C 0.69604 0.06327 0.03547 0.0
C385 C 0.71176 0.0644 0.06178 0.0
C386 C 0.66321 0.06267 0.03268 0.0
C387 C 0.64563 0.06325 0.05613 0.0
C388 C 0.66152 0.06487 0.0823 0.0
C389 C 0.69423 0.06554 0.0851 0.0
C390 C 0.61025 0.06124 0.05385 0.0
C391 C 0.58426 0.03729 0.06896 0.0
C392 C 0.60206 0.08274 0.03747 0.0
C393 C 0.62854 0.10901 0.02164 0.0
C394 C 0.65791 0.12999 0.03511 0.0
C395 C 0.68276 0.15468 0.02001 0.0
C396 C 0.67839 0.15876 0.99146 0.0
C397 C 0.64911 0.1382 0.97797 0.0
C398 C 0.62419 0.11345 0.99297 0.0
C399 C 0.46683 0.06164 0.08527 0.0
C400 C 0.44556 0.06073 0.06206 0.0
C401 C 0.49829 0.06046 0.08229 0.0
C402 C 0.50918 0.05823 0.05608 0.0
C403 C 0.48826 0.0576 0.03277 0.0
C404 C 0.45659 0.05867 0.03575 0.0
C405 C 0.54269 0.05697 0.05335 0.0
C406 C 0.56826 0.08018 0.03726 0.0
C407 C 0.55054 0.03473 0.06877 0.0
C408 C 0.52394 0.00847 0.08464 0.0
C409 C 0.49298 0.98938 0.07165 0.0
C410 C 0.4679 0.96483 0.08671 0.0
C411 C 0.47355 0.95902 0.11475 0.0
C412 C 0.50433 0.97772 0.12777 0.0
C413 C 0.52949 0.00232 0.11282 0.0
H414 H 0.4541 0.94 0.12636 0.0
H415 H 0.69766 0.1779 0.97981 0.0
H416 H 0.43838 0.42386 0.33585 0.0
H417 H 0.49214 0.46821 0.32363 0.0
H418 H 0.47247 0.51964 0.3837 0.0
H419 H 0.41866 0.47574 0.39577 0.0
H420 H 0.49732 0.55436 0.33653 0.0
H421 H 0.52644 0.48562 0.39876 0.0
H422 H 0.52789 0.43646 0.41387 0.0
H423 H 0.581 0.43998 0.33998 0.0
H424 H 0.57946 0.489 0.32427 0.0
H425 H 0.6604 0.66648 0.37482 0.0
H426 H 0.60327 0.62467 0.37043 0.0
H427 H 0.64118 0.58549 0.31079 0.0
H428 H 0.69874 0.62712 0.31537 0.0
H429 H 0.60678 0.54378 0.35022 0.0
H430 H 0.5847 0.61664 0.29122 0.0
H431 H 0.58396 0.66624 0.27696 0.0
H432 H 0.51827 0.65571 0.3447 0.0
H433 H 0.519 0.60624 0.35963 0.0
C434 C 0.44536 0.44468 0.34631 0.0
C435 C 0.4243 0.44615 0.36694 0.0
C436 C 0.47613 0.46998 0.33934 0.0
C437 C 0.48648 0.49713 0.35297 0.0
C438 C 0.46499 0.49894 0.37291 0.0
C439 C 0.43428 0.47372 0.37987 0.0
C440 C 0.52031 0.52331 0.34747 0.0
C441 C 0.5213 0.55213 0.33964 0.0
C442 C 0.55154 0.5202 0.35076 0.0
C443 C 0.55245 0.49075 0.36019 0.0
C444 C 0.53816 0.47577 0.38563 0.0
C445 C 0.53905 0.44796 0.39432 0.0
C446 C 0.55442 0.43505 0.37785 0.0
C447 C 0.56903 0.44997 0.35269 0.0
C448 C 0.56817 0.47776 0.34389 0.0
C449 C 0.65656 0.64926 0.36043 0.0
C450 C 0.68424 0.6501 0.34555 0.0
C451 C 0.62376 0.62541 0.35783 0.0
C452 C 0.61785 0.60203 0.34012 0.0
C453 C 0.64516 0.60331 0.32456 0.0
C454 C 0.67802 0.62717 0.32716 0.0
C455 C 0.58391 0.57506 0.33976 0.0
C456 C 0.58287 0.54604 0.34658 0.0
C457 C 0.55268 0.57804 0.33557 0.0
C458 C 0.55211 0.60779 0.32665 0.0
C459 C 0.5703 0.625 0.30321 0.0
C460 C 0.56985 0.65308 0.29498 0.0
C461 C 0.55113 0.66414 0.30994 0.0
C462 C 0.53277 0.64712 0.33314 0.0
C463 C 0.53316 0.61903 0.34147 0.0
H464 H 0.55081 0.68589 0.30354 0.0
H465 H 0.55509 0.41353 0.38462 0.0
H466 H 0.00244 0.43188 0.73879 0.0
H467 H -0.00428 0.47883 0.74186 0.0
H468 H 0.10602 0.53105 0.73875 0.0
H469 H 0.11286 0.48366 0.73741 0.0
H470 H 0.08579 0.55029 0.77678 0.0
H471 H 0.0466 0.53384 0.6841 0.0
H472 H 0.01385 0.50605 0.64407 0.0
H473 H 0.91905 0.49078 0.6817 0.0
H474 H 0.95118 0.51811 0.72215 0.0
H475 H 0.05249 0.6869 0.76719 0.0
H476 H 0.06489 0.64724 0.74814 0.0
H477 H 0.98273 0.57767 0.79584 0.0
H478 H 0.97081 0.61712 0.81548 0.0
H479 H -0.00536 0.57378 0.72885 0.0
H480 H 0.04076 0.58242 0.82608 0.0
H481 H 0.07705 0.61402 0.863 0.0
H482 H 0.16432 0.64932 0.80969 0.0
H483 H 0.12832 0.61819 0.77234 0.0
C484 C 0.02524 0.45341 0.73828 0.0
C485 C 0.05818 0.45409 0.73792 0.0
C486 C 0.02138 0.48038 0.73983 0.0
C487 C 0.05032 0.50877 0.74015 0.0
C488 C 0.08324 0.50953 0.7386 0.0
C489 C 0.08715 0.48245 0.73774 0.0
C490 C 0.04626 0.53705 0.74477 0.0
C491 C 0.06629 0.55559 0.76575 0.0
C492 C 0.02086 0.54436 0.73057 0.0
C493 C 0.00133 0.52788 0.70627 0.0
C494 C 0.01875 0.52438 0.68394 0.0
C495 C 0.0003 0.50873 0.66115 0.0
C496 C 0.9644 0.49661 0.66036 0.0
C497 C 0.94687 0.50017 0.68234 0.0
C498 C 0.9652 0.51579 0.70519 0.0
C499 C 0.03679 0.66311 0.77325 0.0
C500 C 0.01061 0.65498 0.79269 0.0
C501 C 0.04394 0.64057 0.76244 0.0
C502 C 0.02457 0.60966 0.77055 0.0
C503 C -0.00222 0.60146 0.78928 0.0
C504 C 0.99115 0.62396 0.80056 0.0
C505 C 0.03351 0.58585 0.76102 0.0
C506 C 0.01444 0.5684 0.73925 0.0
C507 C 0.06026 0.57989 0.77392 0.0
C508 C 0.08182 0.59835 0.79638 0.0
C509 C 0.0676 0.59717 0.82218 0.0
C510 C 0.08812 0.61492 0.84319 0.0
C511 C 0.12294 0.63375 0.83867 0.0
C512 C 0.13733 0.63478 0.81315 0.0
C513 C 0.1169 0.6171 0.79206 0.0
H514 H 0.1388 0.64747 0.85496 0.0
H515 H 0.95016 0.4845 0.6427 0.0
loop_
_geom_bond_atom_site_label_1
_geom_bond_atom_site_label_2
_geom_bond_distance
_geom_bond_site_symmetry_2
_ccdc_geom_bond_type
O0 Cd1 2.300 1_545 S
O0 C7 1.275 . S
Cd1 O0 2.300 1_565 S
Cd1 O9 2.381 . S
Cd1 O10 2.378 . S
O2 Cd3 2.385 . S
O2 C7 1.255 . S
Cd3 O2 2.385 . S
Cd3 O4 2.317 . S
O4 Cd3 2.317 . S
O4 C5 1.232 . S
C5 O4 1.232 . S
C5 O6 1.218 . S
O6 C5 1.218 . S
C7 O0 1.275 . S
C7 O2 1.255 . S
C8 O9 1.258 . S
C8 O10 1.256 . S
O9 Cd1 2.381 . S
O9 C8 1.258 . S
O10 Cd1 2.378 . S
O10 C8 1.256 . S
O11 Cd12 2.300 . S
O11 C18 1.275 . S
Cd12 O11 2.300 . S
Cd12 O20 2.381 . S
Cd12 O21 2.378 . S
O13 Cd14 2.385 . S
O13 C18 1.255 . S
Cd14 O13 2.385 . S
Cd14 O15 2.317 . S
O15 Cd14 2.317 . S
O15 C16 1.232 . S
C16 O15 1.232 . S
C16 O17 1.218 . S
O17 C16 1.218 . S
C18 O11 1.275 . S
C18 O13 1.255 . S
C19 O20 1.258 . S
C19 O21 1.256 . S
O20 Cd12 2.381 . S
O20 C19 1.258 . S
O21 Cd12 2.378 . S
O21 C19 1.256 . S
O22 Cd23 2.300 . S
O22 C29 1.275 . S
Cd23 O22 2.300 . S
Cd23 O31 2.381 . S
Cd23 O32 2.378 . S
O24 Cd25 2.385 . S
O24 C29 1.255 . S
Cd25 O24 2.385 . S
Cd25 O26 2.317 . S
O26 Cd25 2.317 . S
O26 C27 1.232 . S
C27 O26 1.232 . S
C27 O28 1.218 . S
O28 C27 1.218 . S
C29 O22 1.275 . S
C29 O24 1.255 . S
C30 O31 1.258 . S
C30 O32 1.256 . S
O31 Cd23 2.381 . S
O31 C30 1.258 . S
O32 Cd23 2.378 . S
O32 C30 1.256 . S
O33 Cd34 2.300 . S
O33 C40 1.275 . S
Cd34 O33 2.300 . S
Cd34 O42 2.381 . S
Cd34 O43 2.378 . S
O35 Cd36 2.385 . S
O35 C40 1.255 . S
Cd36 O35 2.385 . S
Cd36 O37 2.317 . S
O37 Cd36 2.317 . S
O37 C38 1.232 . S
C38 O37 1.232 . S
C38 O39 1.218 . S
O39 C38 1.218 . S
C40 O33 1.275 . S
C40 O35 1.255 . S
C41 O42 1.258 . S
C41 O43 1.256 . S
O42 Cd34 2.381 . S
O42 C41 1.258 . S
O43 Cd34 2.378 . S
O43 C41 1.256 . S
O44 Cd45 2.300 . S
O44 C51 1.275 . S
Cd45 O44 2.300 . S
Cd45 O53 2.381 . S
Cd45 O54 2.378 . S
O46 Cd47 2.385 . S
O46 C51 1.255 . S
Cd47 O46 2.385 . S
Cd47 O48 2.317 . S
O48 Cd47 2.317 . S
O48 C49 1.232 . S
C49 O48 1.232 . S
C49 O50 1.218 . S
O50 C49 1.218 . S
C51 O44 1.275 . S
C51 O46 1.255 . S
C52 O53 1.258 . S
C52 O54 1.256 . S
O53 Cd45 2.381 . S
O53 C52 1.258 . S
O54 Cd45 2.378 . S
O54 C52 1.256 . S
O55 Cd56 2.300 . S
O55 C62 1.275 . S
Cd56 O55 2.300 . S
Cd56 O64 2.381 . S
Cd56 O65 2.378 . S
O57 Cd58 2.385 . S
O57 C62 1.255 . S
Cd58 O57 2.385 . S
Cd58 O59 2.317 1_455 S
O59 Cd58 2.317 1_655 S
O59 C60 1.232 . S
C60 O59 1.232 . S
C60 O61 1.218 . S
O61 C60 1.218 . S
C62 O55 1.275 . S
C62 O57 1.255 . S
C63 O64 1.258 . S
C63 O65 1.256 . S
O64 Cd56 2.381 . S
O64 C63 1.258 . S
O65 Cd56 2.378 . S
O65 C63 1.256 . S
H66 C84 0.951 . S
H67 C86 0.951 . S
H68 C88 0.950 . S
H69 C89 0.950 . S
H70 C91 0.950 . S
H71 C94 0.950 . S
H72 C95 0.950 . S
H73 C97 0.950 . S
H74 C98 0.950 . S
H75 C99 0.951 . S
H76 C101 0.951 . S
H77 C103 0.950 . S
H78 C104 0.950 . S
H79 C106 0.950 . S
H80 C109 0.950 . S
H81 C110 0.950 . S
H82 C112 0.950 . S
H83 C113 0.950 . S
C84 H66 0.951 . S
C84 C85 1.366 . S
C84 C86 1.388 . S
C85 C84 1.366 . S
C85 C89 1.385 . S
C86 H67 0.951 . S
C86 C84 1.388 . S
C86 C87 1.366 . S
C87 C86 1.366 . S
C87 C88 1.414 . S
C87 C90 1.499 . S
C88 H68 0.950 . S
C88 C87 1.414 . S
C88 C89 1.374 . S
C89 H69 0.950 . S
C89 C85 1.385 . S
C89 C88 1.374 . S
C90 C87 1.499 . S
C90 C91 1.373 . S
C90 C92 1.389 . S
C91 H70 0.950 . S
C91 C90 1.373 . S
C91 C107 1.377 . S
C92 C90 1.389 . S
C92 C93 1.524 . S
C92 C106 1.377 . S
C93 C92 1.524 . S
C93 C94 1.397 . S
C93 C98 1.363 . S
C94 H71 0.950 . S
C94 C93 1.397 . S
C94 C95 1.334 . S
C95 H72 0.950 . S
C95 C94 1.334 . S
C95 C96 1.287 . S
C96 C95 1.287 . S
C96 C97 1.524 . S
C96 H115 0.913 . S
C97 H73 0.950 . S
C97 C96 1.524 . S
C97 C98 1.415 . S
C98 H74 0.950 . S
C98 C93 1.363 . S
C98 C97 1.415 . S
C99 H75 0.951 . S
C99 C100 1.366 . S
C99 C101 1.388 . S
C100 C99 1.366 . S
C100 C104 1.385 . S
C101 H76 0.951 . S
C101 C99 1.388 . S
C101 C102 1.366 . S
C102 C101 1.366 . S
C102 C103 1.414 . S
C102 C105 1.499 . S
C103 H77 0.950 . S
C103 C102 1.414 . S
C103 C104 1.374 . S
C104 H78 0.950 . S
C104 C100 1.385 . S
C104 C103 1.374 . S
C105 C102 1.499 . S
C105 C106 1.373 . S
C105 C107 1.389 . S
C106 H79 0.950 . S
C106 C92 1.377 . S
C106 C105 1.373 . S
C107 C91 1.377 . S
C107 C105 1.389 . S
C107 C108 1.524 . S
C108 C107 1.524 . S
C108 C109 1.397 . S
C108 C113 1.363 . S
C109 H80 0.950 . S
C109 C108 1.397 . S
C109 C110 1.334 . S
C110 H81 0.950 . S
C110 C109 1.334 . S
C110 C111 1.287 . S
C111 C110 1.287 . S
C111 C112 1.524 . S
C111 H114 0.999 . S
C112 H82 0.950 . S
C112 C111 1.524 . S
C112 C113 1.415 . S
C113 H83 0.950 . S
C113 C108 1.363 . S
C113 C112 1.415 . S
H114 C111 0.999 . S
H115 C96 0.913 . S
H116 C134 0.951 . S
H117 C136 0.951 . S
H118 C138 0.950 . S
H119 C139 0.950 . S
H120 C141 0.950 . S
H121 C144 0.950 . S
H122 C145 0.950 . S
H123 C147 0.950 . S
H124 C148 0.950 . S
H125 C149 0.951 . S
H126 C151 0.951 . S
H127 C153 0.950 . S
H128 C154 0.950 . S
H129 C156 0.950 . S
H130 C159 0.950 . S
H131 C160 0.950 . S
H132 C162 0.950 . S
H133 C163 0.950 . S
C134 H116 0.951 . S
C134 C135 1.366 . S
C134 C136 1.388 . S
C135 C134 1.366 . S
C135 C139 1.385 . S
C136 H117 0.951 . S
C136 C134 1.388 . S
C136 C137 1.366 . S
C137 C136 1.366 . S
C137 C138 1.414 . S
C137 C140 1.499 . S
C138 H118 0.950 . S
C138 C137 1.414 . S
C138 C139 1.374 . S
C139 H119 0.950 . S
C139 C135 1.385 . S
C139 C138 1.374 . S
C140 C137 1.499 . S
C140 C141 1.373 . S
C140 C142 1.389 . S
C141 H120 0.950 . S
C141 C140 1.373 . S
C141 C157 1.377 . S
C142 C140 1.389 . S
C142 C143 1.524 . S
C142 C156 1.377 . S
C143 C142 1.524 . S
C143 C144 1.397 . S
C143 C148 1.363 . S
C144 H121 0.950 . S
C144 C143 1.397 . S
C144 C145 1.334 . S
C145 H122 0.950 . S
C145 C144 1.334 . S
C145 C146 1.287 . S
C146 C145 1.287 . S
C146 C147 1.524 . S
C146 H165 0.913 . S
C147 H123 0.950 . S
C147 C146 1.524 . S
C147 C148 1.415 . S
C148 H124 0.950 . S
C148 C143 1.363 . S
C148 C147 1.415 . S
C149 H125 0.951 . S
C149 C150 1.366 . S
C149 C151 1.388 . S
C150 C149 1.366 . S
C150 C154 1.385 . S
C151 H126 0.951 . S
C151 C149 1.388 . S
C151 C152 1.366 . S
C152 C151 1.366 . S
C152 C153 1.414 . S
C152 C155 1.499 . S
C153 H127 0.950 . S
C153 C152 1.414 . S
C153 C154 1.374 . S
C154 H128 0.950 . S
C154 C150 1.385 . S
C154 C153 1.374 . S
C155 C152 1.499 . S
C155 C156 1.373 . S
C155 C157 1.389 . S
C156 H129 0.950 . S
C156 C142 1.377 . S
C156 C155 1.373 . S
C157 C141 1.377 . S
C157 C155 1.389 . S
C157 C158 1.524 . S
C158 C157 1.524 . S
C158 C159 1.397 . S
C158 C163 1.363 . S
C159 H130 0.950 . S
C159 C158 1.397 . S
C159 C160 1.334 . S
C160 H131 0.950 . S
C160 C159 1.334 . S
C160 C161 1.287 . S
C161 C160 1.287 . S
C161 C162 1.524 . S
C161 H164 0.999 . S
C162 H132 0.950 . S
C162 C161 1.524 . S
C162 C163 1.415 . S
C163 H133 0.950 . S
C163 C158 1.363 . S
C163 C162 1.415 . S
H164 C161 0.999 . S
H165 C146 0.913 . S
H166 C184 0.951 . S
H167 C186 0.951 . S
H168 C188 0.950 . S
H169 C189 0.950 . S
H170 C191 0.950 1_455 S
H171 C194 0.950 . S
H172 C195 0.950 . S
H173 C197 0.950 . S
H174 C198 0.950 . S
H175 C199 0.951 1_554 S
H176 C201 0.951 . S
H177 C203 0.950 . S
H178 C204 0.950 . S
H179 C206 0.950 . S
H180 C209 0.950 1_655 S
H181 C210 0.950 . S
H182 C212 0.950 . S
H183 C213 0.950 . S
C184 H166 0.951 . S
C184 C185 1.366 . S
C184 C186 1.388 1_455 S
C185 C184 1.366 . S
C185 C189 1.385 . S
C186 H167 0.951 . S
C186 C184 1.388 1_655 S
C186 C187 1.366 . S
C187 C186 1.366 . S
C187 C188 1.414 1_655 S
C187 C190 1.499 . S
C188 H168 0.950 . S
C188 C187 1.414 1_455 S
C188 C189 1.374 . S
C189 H169 0.950 . S
C189 C185 1.385 . S
C189 C188 1.374 . S
C190 C187 1.499 . S
C190 C191 1.373 . S
C190 C192 1.389 . S
C191 H170 0.950 1_655 S
C191 C190 1.373 . S
C191 C207 1.377 . S
C192 C190 1.389 . S
C192 C193 1.524 . S
C192 C206 1.377 . S
C193 C192 1.524 . S
C193 C194 1.397 . S
C193 C198 1.363 . S
C194 H171 0.950 . S
C194 C193 1.397 . S
C194 C195 1.334 . S
C195 H172 0.950 . S
C195 C194 1.334 . S
C195 C196 1.287 . S
C196 C195 1.287 . S
C196 C197 1.524 . S
C196 H215 0.913 . S
C197 H173 0.950 . S
C197 C196 1.524 . S
C197 C198 1.415 . S
C198 H174 0.950 . S
C198 C193 1.363 . S
C198 C197 1.415 . S
C199 H175 0.951 1_556 S
C199 C200 1.366 . S
C199 C201 1.388 . S
C200 C199 1.366 . S
C200 C204 1.385 . S
C201 H176 0.951 . S
C201 C199 1.388 . S
C201 C202 1.366 . S
C202 C201 1.366 . S
C202 C203 1.414 . S
C202 C205 1.499 . S
C203 H177 0.950 . S
C203 C202 1.414 . S
C203 C204 1.374 . S
C204 H178 0.950 . S
C204 C200 1.385 . S
C204 C203 1.374 . S
C205 C202 1.499 . S
C205 C206 1.373 . S
C205 C207 1.389 . S
C206 H179 0.950 . S
C206 C192 1.377 . S
C206 C205 1.373 . S
C207 C191 1.377 . S
C207 C205 1.389 . S
C207 C208 1.524 1_655 S
C208 C207 1.524 1_455 S
C208 C209 1.397 . S
C208 C213 1.363 . S
C209 H180 0.950 1_455 S
C209 C208 1.397 . S
C209 C210 1.334 . S
C210 H181 0.950 . S
C210 C209 1.334 . S
C210 C211 1.287 . S
C211 C210 1.287 . S
C211 C212 1.524 . S
C211 H214 0.999 1_556 S
C212 H182 0.950 . S
C212 C211 1.524 . S
C212 C213 1.415 . S
C213 H183 0.950 . S
C213 C208 1.363 . S
C213 C212 1.415 . S
H214 C211 0.999 1_554 S
H215 C196 0.913 . S
H216 C234 0.951 . S
H217 C236 0.951 . S
H218 C238 0.950 . S
H219 C239 0.950 . S
H220 C241 0.950 . S
H221 C244 0.950 . S
H222 C245 0.950 . S
H223 C247 0.950 . S
H224 C248 0.950 . S
H225 C249 0.951 . S
H226 C251 0.951 . S
H227 C253 0.950 . S
H228 C254 0.953 . S
H229 C256 0.950 . S
H230 C259 0.950 . S
H231 C260 0.950 . S
H232 C262 0.950 1_545 S
H233 C263 0.950 . S
C234 H216 0.951 . S
C234 C235 1.366 . S
C234 C236 1.388 . S
C235 C234 1.366 . S
C235 C239 1.385 . S
C236 H217 0.951 . S
C236 C234 1.388 . S
C236 C237 1.366 . S
C237 C236 1.366 . S
C237 C238 1.414 . S
C237 C240 1.499 . S
C238 H218 0.950 . S
C238 C237 1.414 . S
C238 C239 1.374 . S
C239 H219 0.950 . S
C239 C235 1.385 . S
C239 C238 1.374 . S
C240 C237 1.499 . S
C240 C241 1.373 . S
C240 C242 1.389 . S
C241 H220 0.950 . S
C241 C240 1.373 . S
C241 C257 1.377 . S
C242 C240 1.389 . S
C242 C243 1.524 . S
C242 C256 1.377 . S
C243 C242 1.524 . S
C243 C244 1.397 . S
C243 C248 1.363 . S
C244 H221 0.950 . S
C244 C243 1.397 . S
C244 C245 1.334 . S
C245 H222 0.950 . S
C245 C244 1.334 . S
C245 C246 1.287 . S
C246 C245 1.287 . S
C246 C247 1.524 . S
C246 H265 0.913 . S
C247 H223 0.950 . S
C247 C246 1.524 . S
C247 C248 1.415 . S
C248 H224 0.950 . S
C248 C243 1.363 . S
C248 C247 1.415 . S
C249 H225 0.951 . S
C249 C250 1.366 . S
C249 C251 1.388 . S
C250 C249 1.366 . S
C250 C254 1.365 1_545 S
C251 H226 0.951 . S
C251 C249 1.388 . S
C251 C252 1.366 1_545 S
C252 C251 1.366 1_565 S
C252 C253 1.414 . S
C252 C255 1.499 . S
C253 H227 0.950 . S
C253 C252 1.414 . S
C253 C254 1.391 . S
C254 H228 0.953 . S
C254 C250 1.365 1_565 S
C254 C253 1.391 . S
C255 C252 1.499 . S
C255 C256 1.373 . S
C255 C257 1.389 . S
C256 H229 0.950 . S
C256 C242 1.377 . S
C256 C255 1.373 . S
C257 C241 1.377 . S
C257 C255 1.389 . S
C257 C258 1.524 . S
C258 C257 1.524 . S
C258 C259 1.397 . S
C258 C263 1.363 . S
C259 H230 0.950 . S
C259 C258 1.397 . S
C259 C260 1.334 . S
C260 H231 0.950 . S
C260 C259 1.334 . S
C260 C261 1.287 . S
C261 C260 1.287 . S
C261 C262 1.524 . S
C261 H264 0.999 1_565 S
C262 H232 0.950 1_565 S
C262 C261 1.524 . S
C262 C263 1.415 . S
C263 H233 0.950 . S
C263 C258 1.363 . S
C263 C262 1.415 . S
H264 C261 0.999 1_545 S
H265 C246 0.913 . S
H266 C284 0.951 . S
H267 C286 0.951 . S
H268 C288 0.950 . S
H269 C289 0.950 . S
H270 C291 0.950 . S
H271 C294 0.950 . S
H272 C295 0.950 . S
H273 C297 0.950 1_455 S
H274 C298 0.950 . S
H275 C299 0.951 . S
H276 C301 0.951 . S
H277 C303 0.950 . S
H278 C304 0.950 . S
H279 C306 0.950 . S
H280 C309 0.950 . S
H281 C310 0.950 . S
H282 C312 0.950 . S
H283 C313 0.950 . S
C284 H266 0.951 . S
C284 C285 1.366 . S
C284 C286 1.388 . S
C285 C284 1.366 . S
C285 C289 1.385 . S
C286 H267 0.951 . S
C286 C284 1.388 . S
C286 C287 1.366 . S
C287 C286 1.366 . S
C287 C288 1.414 . S
C287 C290 1.499 . S
C288 H268 0.950 . S
C288 C287 1.414 . S
C288 C289 1.374 . S
C289 H269 0.950 . S
C289 C285 1.385 . S
C289 C288 1.374 . S
C290 C287 1.499 . S
C290 C291 1.373 . S
C290 C292 1.389 . S
C291 H270 0.950 . S
C291 C290 1.373 . S
C291 C307 1.377 . S
C292 C290 1.389 . S
C292 C293 1.524 . S
C292 C306 1.377 . S
C293 C292 1.524 . S
C293 C294 1.397 . S
C293 C298 1.363 . S
C294 H271 0.950 . S
C294 C293 1.397 . S
C294 C295 1.334 . S
C295 H272 0.950 . S
C295 C294 1.334 . S
C295 C296 1.287 . S
C296 C295 1.287 . S
C296 C297 1.524 . S
C296 H315 0.913 . S
C297 H273 0.950 1_655 S
C297 C296 1.524 . S
C297 C298 1.415 . S
C298 H274 0.950 . S
C298 C293 1.363 . S
C298 C297 1.415 . S
C299 H275 0.951 . S
C299 C300 1.366 . S
C299 C301 1.388 . S
C300 C299 1.366 . S
C300 C304 1.385 . S
C301 H276 0.951 . S
C301 C299 1.388 . S
C301 C302 1.366 . S
C302 C301 1.366 . S
C302 C303 1.414 . S
C302 C305 1.499 . S
C303 H277 0.950 . S
C303 C302 1.414 . S
C303 C304 1.374 . S
C304 H278 0.950 . S
C304 C300 1.385 . S
C304 C303 1.374 . S
C305 C302 1.499 . S
C305 C306 1.373 . S
C305 C307 1.389 . S
C306 H279 0.950 . S
C306 C292 1.377 . S
C306 C305 1.373 . S
C307 C291 1.377 . S
C307 C305 1.389 . S
C307 C308 1.524 . S
C308 C307 1.524 . S
C308 C309 1.397 . S
C308 C313 1.363 . S
C309 H280 0.950 . S
C309 C308 1.397 . S
C309 C310 1.334 . S
C310 H281 0.950 . S
C310 C309 1.334 . S
C310 C311 1.287 . S
C311 C310 1.287 . S
C311 C312 1.524 . S
C311 H314 0.999 . S
C312 H282 0.950 . S
C312 C311 1.524 . S
C312 C313 1.415 . S
C313 H283 0.950 . S
C313 C308 1.363 . S
C313 C312 1.415 . S
H314 C311 0.999 . S
H315 C296 0.913 . S
H316 C334 0.951 . S
H317 C336 0.951 . S
H318 C338 0.950 . S
H319 C339 0.950 . S
H320 C341 0.950 . S
H321 C344 0.950 . S
H322 C345 0.950 . S
H323 C347 0.950 1_554 S
H324 C348 0.950 . S
H325 C349 0.951 . S
H326 C351 0.951 . S
H327 C353 0.954 . S
H328 C354 0.950 . S
H329 C356 0.950 . S
H330 C359 0.950 . S
H331 C360 0.950 . S
H332 C362 0.950 . S
H333 C363 0.950 . S
C334 H316 0.951 . S
C334 C335 1.366 . S
C334 C336 1.388 . S
C335 C334 1.366 . S
C335 C339 1.385 . S
C336 H317 0.951 . S
C336 C334 1.388 . S
C336 C337 1.366 . S
C337 C336 1.366 . S
C337 C338 1.414 . S
C337 C340 1.499 . S
C338 H318 0.950 . S
C338 C337 1.414 . S
C338 C339 1.374 . S
C339 H319 0.950 . S
C339 C335 1.385 . S
C339 C338 1.374 . S
C340 C337 1.499 . S
C340 C341 1.373 . S
C340 C342 1.389 . S
C341 H320 0.950 . S
C341 C340 1.373 . S
C341 C357 1.377 . S
C342 C340 1.389 . S
C342 C343 1.524 . S
C342 C356 1.377 . S
C343 C342 1.524 . S
C343 C344 1.397 . S
C343 C348 1.363 . S
C344 H321 0.950 . S
C344 C343 1.397 . S
C344 C345 1.334 . S
C345 H322 0.950 . S
C345 C344 1.334 . S
C345 C346 1.287 . S
C346 C345 1.287 . S
C346 C347 1.524 . S
C346 H365 0.913 . S
C347 H323 0.950 1_556 S
C347 C346 1.524 . S
C347 C348 1.415 . S
C348 H324 0.950 . S
C348 C343 1.363 . S
C348 C347 1.415 . S
C349 H325 0.951 . S
C349 C350 1.366 1_556 S
C349 C351 1.388 . S
C350 C349 1.366 1_554 S
C350 C354 1.385 . S
C351 H326 0.951 . S
C351 C349 1.388 . S
C351 C352 1.366 . S
C352 C351 1.366 . S
C352 C353 1.396 1_556 S
C352 C355 1.499 . S
C353 H327 0.954 . S
C353 C352 1.396 1_554 S
C353 C354 1.389 . S
C354 H328 0.950 . S
C354 C350 1.385 . S
C354 C353 1.389 . S
C355 C352 1.499 . S
C355 C356 1.373 . S
C355 C357 1.389 . S
C356 H329 0.950 . S
C356 C342 1.377 . S
C356 C355 1.373 . S
C357 C341 1.377 . S
C357 C355 1.389 . S
C357 C358 1.524 . S
C358 C357 1.524 . S
C358 C359 1.397 . S
C358 C363 1.363 . S
C359 H330 0.950 . S
C359 C358 1.397 . S
C359 C360 1.334 . S
C360 H331 0.950 . S
C360 C359 1.334 . S
C360 C361 1.287 . S
C361 C360 1.287 . S
C361 C362 1.524 . S
C361 H364 0.999 . S
C362 H332 0.950 . S
C362 C361 1.524 . S
C362 C363 1.415 . S
C363 H333 0.950 . S
C363 C358 1.363 . S
C363 C362 1.415 . S
H364 C361 0.999 . S
H365 C346 0.913 . S
H366 C384 0.951 . S
H367 C386 0.951 . S
H368 C388 0.950 . S
H369 C389 0.950 . S
H370 C391 0.950 . S
H371 C394 0.950 . S
H372 C395 0.950 . S
H373 C397 0.950 1_556 S
H374 C398 0.950 . S
H375 C399 0.951 . S
H376 C401 0.951 . S
H377 C403 0.950 . S
H378 C404 0.950 . S
H379 C406 0.950 . S
H380 C409 0.950 . S
H381 C410 0.950 . S
H382 C412 0.950 . S
H383 C413 0.950 . S
C384 H366 0.951 . S
C384 C385 1.366 . S
C384 C386 1.388 . S
C385 C384 1.366 . S
C385 C389 1.385 . S
C386 H367 0.951 . S
C386 C384 1.388 . S
C386 C387 1.366 . S
C387 C386 1.366 . S
C387 C388 1.414 . S
C387 C390 1.499 . S
C388 H368 0.950 . S
C388 C387 1.414 . S
C388 C389 1.374 . S
C389 H369 0.950 . S
C389 C385 1.385 . S
C389 C388 1.374 . S
C390 C387 1.499 . S
C390 C391 1.373 . S
C390 C392 1.389 . S
C391 H370 0.950 . S
C391 C390 1.373 . S
C391 C407 1.377 . S
C392 C390 1.389 . S
C392 C393 1.524 . S
C392 C406 1.377 . S
C393 C392 1.524 . S
C393 C394 1.397 . S
C393 C398 1.363 . S
C394 H371 0.950 . S
C394 C393 1.397 . S
C394 C395 1.334 . S
C395 H372 0.950 . S
C395 C394 1.334 . S
C395 C396 1.287 . S
C396 C395 1.287 . S
C396 C397 1.524 . S
C396 H415 0.913 . S
C397 H373 0.950 1_554 S
C397 C396 1.524 . S
C397 C398 1.415 . S
C398 H374 0.950 . S
C398 C393 1.363 . S
C398 C397 1.415 . S
C399 H375 0.951 . S
C399 C400 1.366 . S
C399 C401 1.388 . S
C400 C399 1.366 . S
C400 C404 1.385 . S
C401 H376 0.951 . S
C401 C399 1.388 . S
C401 C402 1.366 . S
C402 C401 1.366 . S
C402 C403 1.414 . S
C402 C405 1.499 . S
C403 H377 0.950 . S
C403 C402 1.414 . S
C403 C404 1.374 . S
C404 H378 0.950 . S
C404 C400 1.385 . S
C404 C403 1.374 . S
C405 C402 1.499 . S
C405 C406 1.373 . S
C405 C407 1.389 . S
C406 H379 0.950 . S
C406 C392 1.377 . S
C406 C405 1.373 . S
C407 C391 1.377 . S
C407 C405 1.389 . S
C407 C408 1.524 . S
C408 C407 1.524 . S
C408 C409 1.397 1_545 S
C408 C413 1.363 . S
C409 H380 0.950 . S
C409 C408 1.397 1_565 S
C409 C410 1.334 . S
C410 H381 0.950 . S
C410 C409 1.334 . S
C410 C411 1.287 . S
C411 C410 1.287 . S
C411 C412 1.524 . S
C411 H414 0.999 . S
C412 H382 0.950 . S
C412 C411 1.524 . S
C412 C413 1.415 1_565 S
C413 H383 0.950 . S
C413 C408 1.363 . S
C413 C412 1.415 1_545 S
H414 C411 0.999 . S
H415 C396 0.913 . S
H416 C434 0.951 . S
H417 C436 0.951 . S
H418 C438 0.950 . S
H419 C439 0.950 . S
H420 C441 0.950 . S
H421 C444 0.950 . S
H422 C445 0.950 . S
H423 C447 0.950 . S
H424 C448 0.950 . S
H425 C449 0.951 . S
H426 C451 0.951 . S
H427 C453 0.950 . S
H428 C454 0.950 . S
H429 C456 0.950 . S
H430 C459 0.950 . S
H431 C460 0.950 . S
H432 C462 0.950 . S
H433 C463 0.950 . S
C434 H416 0.951 . S
C434 C435 1.366 . S
C434 C436 1.388 . S
C435 C434 1.366 . S
C435 C439 1.385 . S
C436 H417 0.951 . S
C436 C434 1.388 . S
C436 C437 1.366 . S
C437 C436 1.366 . S
C437 C438 1.414 . S
C437 C440 1.499 . S
C438 H418 0.950 . S
C438 C437 1.414 . S
C438 C439 1.374 . S
C439 H419 0.950 . S
C439 C435 1.385 . S
C439 C438 1.374 . S
C440 C437 1.499 . S
C440 C441 1.373 . S
C440 C442 1.389 . S
C441 H420 0.950 . S
C441 C440 1.373 . S
C441 C457 1.377 . S
C442 C440 1.389 . S
C442 C443 1.524 . S
C442 C456 1.377 . S
C443 C442 1.524 . S
C443 C444 1.397 . S
C443 C448 1.363 . S
C444 H421 0.950 . S
C444 C443 1.397 . S
C444 C445 1.334 . S
C445 H422 0.950 . S
C445 C444 1.334 . S
C445 C446 1.287 . S
C446 C445 1.287 . S
C446 C447 1.524 . S
C446 H465 0.913 . S
C447 H423 0.950 . S
C447 C446 1.524 . S
C447 C448 1.415 . S
C448 H424 0.950 . S
C448 C443 1.363 . S
C448 C447 1.415 . S
C449 H425 0.951 . S
C449 C450 1.366 . S
C449 C451 1.388 . S
C450 C449 1.366 . S
C450 C454 1.385 . S
C451 H426 0.951 . S
C451 C449 1.388 . S
C451 C452 1.366 . S
C452 C451 1.366 . S
C452 C453 1.414 . S
C452 C455 1.499 . S
C453 H427 0.950 . S
C453 C452 1.414 . S
C453 C454 1.374 . S
C454 H428 0.950 . S
C454 C450 1.385 . S
C454 C453 1.374 . S
C455 C452 1.499 . S
C455 C456 1.373 . S
C455 C457 1.389 . S
C456 H429 0.950 . S
C456 C442 1.377 . S
C456 C455 1.373 . S
C457 C441 1.377 . S
C457 C455 1.389 . S
C457 C458 1.524 . S
C458 C457 1.524 . S
C458 C459 1.397 . S
C458 C463 1.363 . S
C459 H430 0.950 . S
C459 C458 1.397 . S
C459 C460 1.334 . S
C460 H431 0.950 . S
C460 C459 1.334 . S
C460 C461 1.287 . S
C461 C460 1.287 . S
C461 C462 1.524 . S
C461 H464 0.999 . S
C462 H432 0.950 . S
C462 C461 1.524 . S
C462 C463 1.415 . S
C463 H433 0.950 . S
C463 C458 1.363 . S
C463 C462 1.415 . S
H464 C461 0.999 . S
H465 C446 0.913 . S
H466 C484 0.951 . S
H467 C486 0.951 . S
H468 C488 0.950 . S
H469 C489 0.950 . S
H470 C491 0.950 . S
H471 C494 0.950 . S
H472 C495 0.950 . S
H473 C497 0.950 . S
H474 C498 0.950 . S
H475 C499 0.951 . S
H476 C501 0.951 . S
H477 C503 0.950 . S
H478 C504 0.950 . S
H479 C506 0.950 1_655 S
H480 C509 0.950 . S
H481 C510 0.950 . S
H482 C512 0.950 . S
H483 C513 0.950 . S
C484 H466 0.951 . S
C484 C485 1.366 . S
C484 C486 1.388 . S
C485 C484 1.366 . S
C485 C489 1.385 . S
C486 H467 0.951 . S
C486 C484 1.388 . S
C486 C487 1.366 . S
C487 C486 1.366 . S
C487 C488 1.414 . S
C487 C490 1.499 . S
C488 H468 0.950 . S
C488 C487 1.414 . S
C488 C489 1.374 . S
C489 H469 0.950 . S
C489 C485 1.385 . S
C489 C488 1.374 . S
C490 C487 1.499 . S
C490 C491 1.373 . S
C490 C492 1.389 . S
C491 H470 0.950 . S
C491 C490 1.373 . S
C491 C507 1.377 . S
C492 C490 1.389 . S
C492 C493 1.524 1_455 S
C492 C506 1.377 . S
C493 C492 1.524 1_655 S
C493 C494 1.397 1_655 S
C493 C498 1.363 . S
C494 H471 0.950 . S
C494 C493 1.397 1_455 S
C494 C495 1.334 1_455 S
C495 H472 0.950 . S
C495 C494 1.334 1_655 S
C495 C496 1.287 . S
C496 C495 1.287 . S
C496 C497 1.524 . S
C496 H515 0.913 . S
C497 H473 0.950 . S
C497 C496 1.524 . S
C497 C498 1.415 . S
C498 H474 0.950 . S
C498 C493 1.363 . S
C498 C497 1.415 . S
C499 H475 0.951 . S
C499 C500 1.366 . S
C499 C501 1.388 . S
C500 C499 1.366 . S
C500 C504 1.385 1_455 S
C501 H476 0.951 . S
C501 C499 1.388 . S
C501 C502 1.366 . S
C502 C501 1.366 . S
C502 C503 1.414 1_455 S
C502 C505 1.499 . S
C503 H477 0.950 . S
C503 C502 1.414 1_655 S
C503 C504 1.374 . S
C504 H478 0.950 . S
C504 C500 1.385 1_655 S
C504 C503 1.374 . S
C505 C502 1.499 . S
C505 C506 1.373 . S
C505 C507 1.389 . S
C506 H479 0.950 1_455 S
C506 C492 1.377 . S
C506 C505 1.373 . S
C507 C491 1.377 . S
C507 C505 1.389 . S
C507 C508 1.524 . S
C508 C507 1.524 . S
C508 C509 1.397 . S
C508 C513 1.363 . S
C509 H480 0.950 . S
C509 C508 1.397 . S
C509 C510 1.334 . S
C510 H481 0.950 . S
C510 C509 1.334 . S
C510 C511 1.287 . S
C511 C510 1.287 . S
C511 C512 1.524 . S
C511 H514 0.999 . S
C512 H482 0.950 . S
C512 C511 1.524 . S
C512 C513 1.415 . S
C513 H483 0.950 . S
C513 C508 1.363 . S
C513 C512 1.415 . S
H514 C511 0.999 . S
H515 C496 0.913 . S
C85 C5 1.309 . S
C100 C19 1.496 . S
C135 C16 1.332 . S
C150 C30 1.519 . S
C185 C27 1.284 . S
C200 C41 1.496 1_556 S
C235 C52 1.544 . S
C250 C38 1.407 . S
C285 C49 1.380 . S
C300 C60 1.334 . S
C335 C63 1.503 . S
C350 C8 1.526 . S
C385 C40 1.428 . S
C400 C7 1.419 . S
C435 C18 1.590 . S
C450 C51 1.577 . S
C485 C29 1.520 . S
C500 C62 1.459 . S
