# Generated by pormake.
# Topology sow, (4)-cn, num edge types: 1
# Building blocks:
#     Node 0, Type 0, BuildingBlock: QUQFOY_clean_sbu_3, # of connection points: 4
#     Node 1, Type 0, BuildingBlock: QUQFOY_clean_sbu_3, # of connection points: 4
#     Node 2, Type 0, BuildingBlock: QUQFOY_clean_sbu_3, # of connection points: 4
#     Node 3, Type 0, BuildingBlock: QUQFOY_clean_sbu_3, # of connection points: 4
#     Node 4, Type 0, BuildingBlock: QUQFOY_clean_sbu_3, # of connection points: 4
#     Node 5, Type 0, BuildingBlock: QUQFOY_clean_sbu_3, # of connection points: 4
#     Node 6, Type 0, BuildingBlock: QUQFOY_clean_sbu_3, # of connection points: 4
#     Node 7, Type 0, BuildingBlock: QUQFOY_clean_sbu_3, # of connection points: 4
#     Edge 8, Type (0, 0), BuildingBlock: XUDNAN_clean_linker_2, # of connection points: 2
#     Edge 9, Type (0, 0), BuildingBlock: XUDNAN_clean_linker_2, # of connection points: 2
#     Edge 10, Type (0, 0), BuildingBlock: XUDNAN_clean_linker_2, # of connection points: 2
#     Edge 11, Type (0, 0), BuildingBlock: XUDNAN_clean_linker_2, # of connection points: 2
#     Edge 12, Type (0, 0), BuildingBlock: XUDNAN_clean_linker_2, # of connection points: 2
#     Edge 13, Type (0, 0), BuildingBlock: XUDNAN_clean_linker_2, # of connection points: 2
#     Edge 14, Type (0, 0), BuildingBlock: XUDNAN_clean_linker_2, # of connection points: 2
#     Edge 15, Type (0, 0), BuildingBlock: XUDNAN_clean_linker_2, # of connection points: 2
#     Edge 16, Type (0, 0), BuildingBlock: XUDNAN_clean_linker_2, # of connection points: 2
#     Edge 17, Type (0, 0), BuildingBlock: XUDNAN_clean_linker_2, # of connection points: 2
#     Edge 18, Type (0, 0), BuildingBlock: XUDNAN_clean_linker_2, # of connection points: 2
#     Edge 19, Type (0, 0), BuildingBlock: XUDNAN_clean_linker_2, # of connection points: 2
#     Edge 20, Type (0, 0), BuildingBlock: XUDNAN_clean_linker_2, # of connection points: 2
#     Edge 21, Type (0, 0), BuildingBlock: XUDNAN_clean_linker_2, # of connection points: 2
#     Edge 22, Type (0, 0), BuildingBlock: XUDNAN_clean_linker_2, # of connection points: 2
#     Edge 23, Type (0, 0), BuildingBlock: XUDNAN_clean_linker_2, # of connection points: 2
# Relax obj value: 0.154
# Max RMSD: 0.203
# Mean RMSD: 0.203
data_MOF--net-sow--node1-QUQFOY_clean_sbu_3--edge1-XUDNAN_clean_linker_2
_symmetry_space_group_name_H-M    P1
_symmetry_Int_Tables_number       1
_symmetry_cell_setting            triclinic
loop_
_symmetry_equiv_pos_as_xyz
'x, y, z'
_cell_length_a     41.646566
_cell_length_b     23.795447
_cell_length_c     24.896531
_cell_angle_alpha  90.444902
_cell_angle_beta   90.031994
_cell_angle_gamma 90.03651
loop_
_atom_site_label
_atom_site_type_symbol
_atom_site_fract_x
_atom_site_fract_y
_atom_site_fract_z
_atom_type_partial_charge
C0 C 0.04716 0.13608 0.04582 0.0
O1 O 0.05602 0.11877 0.09161 0.0
Cd2 Cd 0.08696 0.17795 0.14921 0.0
O3 O 0.05942 0.1808 0.02592 0.0
Cd4 Cd 0.10251 0.25602 0.04024 0.0
C5 C 0.04662 0.3056 0.11402 0.0
O6 O 0.13328 0.20431 0.10419 0.0
O7 O 0.14112 0.29364 0.1079 0.0
O8 O 0.12581 0.21758 0.96202 0.0
C9 C 0.14734 0.24537 0.12655 0.0
O10 O 0.05485 0.26178 0.13966 0.0
C11 C 0.1335 0.26289 0.93888 0.0
O12 O 0.05972 0.31841 0.06964 0.0
O13 O 0.1262 0.30858 0.96282 0.0
C14 C 0.3738 0.39778 0.54373 0.0
O15 O 0.36889 0.40542 0.59352 0.0
Cd16 Cd 0.33491 0.34676 0.64706 0.0
O17 O 0.35927 0.35878 0.51809 0.0
Cd18 Cd 0.32049 0.28224 0.53909 0.0
C19 C 0.37495 0.22402 0.61409 0.0
O20 O 0.28466 0.32363 0.60877 0.0
O21 O 0.29022 0.23337 0.60503 0.0
O22 O 0.29039 0.30439 0.45886 0.0
C23 C 0.27579 0.27551 0.62486 0.0
O24 O 0.36522 0.26101 0.64746 0.0
C25 C 0.28619 0.25378 0.44398 0.0
O26 O 0.36576 0.22389 0.56536 0.0
O27 O 0.29941 0.21586 0.47196 0.0
C28 C 0.54495 0.3859 0.91286 0.0
O29 O 0.55051 0.39767 0.86395 0.0
Cd30 Cd 0.5819 0.34007 0.80686 0.0
O31 O 0.55862 0.34389 0.93577 0.0
Cd32 Cd 0.59902 0.2617 0.92488 0.0
C33 C 0.54461 0.2192 0.8632 0.0
O34 O 0.62793 0.31741 0.85726 0.0
O35 O 0.6373 0.22867 0.85325 0.0
O36 O 0.62144 0.30081 0.0044 0.0
C37 C 0.64315 0.27745 0.83534 0.0
O38 O 0.56118 0.26088 0.84963 0.0
C39 C 0.63237 0.25635 0.02529 0.0
O40 O 0.55334 0.19378 0.90527 0.0
O41 O 0.6275 0.21078 -0.00046 0.0
C42 C 0.87151 0.12708 0.41546 0.0
O43 O 0.8638 0.11485 0.36735 0.0
Cd44 Cd 0.8341 0.17686 0.31196 0.0
O45 O 0.86008 0.17062 0.43919 0.0
Cd46 Cd 0.82207 0.25218 0.42627 0.0
C47 C 0.87855 0.29473 0.36558 0.0
O48 O 0.78686 0.20846 0.35459 0.0
O49 O 0.79125 0.29882 0.3576 0.0
O50 O 0.78924 0.22542 0.50284 0.0
C51 C 0.77794 0.25583 0.33698 0.0
O52 O 0.86299 0.25355 0.34691 0.0
C53 C 0.78618 0.27484 0.52168 0.0
O54 O 0.86896 0.31642 0.4093 0.0
O55 O 0.80125 0.31363 0.49765 0.0
C56 C 0.87187 0.89507 0.90478 0.0
O57 O 0.85998 0.90055 0.85807 0.0
Cd58 Cd 0.83071 0.8333 0.80791 0.0
O59 O 0.86439 0.85252 0.93362 0.0
Cd60 Cd 0.8236 0.76988 0.92566 0.0
C61 C 0.87605 0.71552 0.85874 0.0
O62 O 0.78563 0.81035 0.85719 0.0
O63 O 0.78936 0.7205 0.8619 0.0
O64 O 0.79807 0.80722 0.00311 0.0
C65 C 0.77591 0.76279 0.84094 0.0
O66 O 0.86228 0.75649 0.8363 0.0
C67 C 0.79138 0.76152 0.02643 0.0
O68 O 0.8674 0.70169 0.90563 0.0
O69 O 0.80042 0.71645 0.00335 0.0
C70 C 0.54898 0.63486 0.40932 0.0
O71 O 0.56083 0.62203 0.36389 0.0
Cd72 Cd 0.59029 0.68802 0.31234 0.0
O73 O 0.55833 0.67886 0.43451 0.0
Cd74 Cd 0.60162 0.75295 0.42403 0.0
C75 C 0.54252 0.80206 0.35657 0.0
O76 O 0.63774 0.71297 0.35506 0.0
O77 O 0.63402 0.80346 0.35956 0.0
O78 O 0.62727 0.71375 0.49851 0.0
C79 C 0.64724 0.76045 0.33872 0.0
O80 O 0.55326 0.76535 0.3237 0.0
C81 C 0.63366 0.75844 0.52452 0.0
O82 O 0.55477 0.8084 0.403 0.0
O83 O 0.62412 0.80449 0.50427 0.0
C84 C 0.37754 0.64236 0.05206 0.0
O85 O 0.36876 0.64246 0.1008 0.0
Cd86 Cd 0.33171 0.7045 0.1447 0.0
O87 O 0.36422 0.67578 0.01885 0.0
Cd88 Cd 0.32143 0.75188 0.03421 0.0
C89 C 0.37255 0.81347 0.10994 0.0
O90 O 0.28438 0.70223 0.09415 0.0
O91 O 0.28505 0.79201 0.1052 0.0
O92 O 0.29975 0.72066 0.95141 0.0
C93 C 0.27199 0.74521 0.11613 0.0
O94 O 0.34802 0.80322 0.13836 0.0
C95 C 0.29188 0.76814 0.93271 0.0
O96 O 0.37132 0.8 0.06062 0.0
O97 O 0.29838 0.81135 0.96118 0.0
C98 C 0.05195 0.89786 0.54075 0.0
O99 O 0.0675 0.91665 0.58087 0.0
Cd100 Cd 0.09239 0.85167 0.63856 0.0
O101 O 0.05833 0.84938 0.52116 0.0
Cd102 Cd 0.10197 0.77617 0.53568 0.0
C103 C 0.0433 0.73354 0.60529 0.0
O104 O 0.13958 0.81668 0.60269 0.0
O105 O 0.13227 0.72667 0.60453 0.0
O106 O 0.13599 0.80075 0.46003 0.0
C107 C 0.1469 0.76959 0.62271 0.0
O108 O 0.05415 0.77608 0.6308 0.0
C109 C 0.13486 0.75276 0.43748 0.0
O110 O 0.05667 0.71662 0.56224 0.0
O111 O 0.11733 0.71575 0.45954 0.0
H112 H 0.25171 0.35407 0.69778 0.0
H113 H 0.24754 0.17775 0.65105 0.0
H114 H 0.20933 0.15968 0.7234 0.0
H115 H 0.24818 0.32944 0.84112 0.0
H116 H 0.22338 0.3897 0.85572 0.0
H117 H 0.25001 0.39046 0.79876 0.0
H118 H 0.202 0.41346 0.73679 0.0
H119 H 0.17517 0.41212 0.79355 0.0
H120 H 0.16747 0.36776 0.73594 0.0
H121 H 0.17202 0.15846 0.796 0.0
H122 H 0.13944 0.17115 0.87642 0.0
H123 H 0.16686 0.34752 0.88439 0.0
C124 C 0.24239 0.31193 0.70265 0.0
C125 C 0.25225 0.26741 0.66829 0.0
C126 C 0.24017 0.21256 0.67648 0.0
C127 C 0.21837 0.20181 0.71743 0.0
C128 C 0.2089 0.24624 0.75018 0.0
C129 C 0.22058 0.30011 0.74416 0.0
C130 C 0.20685 0.33899 0.78731 0.0
C131 C 0.23371 0.36357 0.82284 0.0
C132 C 0.18666 0.38586 0.76187 0.0
C133 C 0.18587 0.29793 0.81829 0.0
C134 C 0.18742 0.24507 0.7951 0.0
C135 C 0.17063 0.19945 0.81497 0.0
C136 C 0.15216 0.20723 0.86084 0.0
C137 C 0.15073 0.26014 0.88709 0.0
C138 C 0.16742 0.30661 0.86505 0.0
H139 H 0.19015 0.31767 0.1748 0.0
H140 H 0.14277 0.15662 0.1945 0.0
H141 H 0.17254 0.14152 0.27871 0.0
H142 H 0.26637 0.27166 0.21886 0.0
H143 H 0.27693 0.33595 0.25332 0.0
H144 H 0.24994 0.33765 0.19681 0.0
H145 H 0.20647 0.38737 0.2546 0.0
H146 H 0.23365 0.38732 0.31088 0.0
H147 H 0.1943 0.35656 0.31735 0.0
H148 H 0.21036 0.14061 0.35737 0.0
H149 H 0.25059 0.15828 0.42889 0.0
H150 H 0.27321 0.31932 0.35772 0.0
C151 C 0.18587 0.27952 0.19715 0.0
C152 C 0.16444 0.23807 0.17792 0.0
C153 C 0.15945 0.1886 0.20814 0.0
C154 C 0.17615 0.17969 0.25613 0.0
C155 C 0.19789 0.22049 0.27318 0.0
C156 C 0.20262 0.26966 0.24492 0.0
C157 C 0.2284 0.30558 0.27082 0.0
C158 C 0.25711 0.31315 0.23268 0.0
C159 C 0.21487 0.36257 0.28952 0.0
C160 C 0.23726 0.26911 0.31802 0.0
C161 C 0.21957 0.22001 0.31855 0.0
C162 C 0.22424 0.17907 0.35756 0.0
C163 C 0.24728 0.18921 0.39767 0.0
C164 C 0.26488 0.24014 0.39857 0.0
C165 C 0.25992 0.28018 0.358 0.0
H166 H 0.75713 0.17584 0.26217 0.0
H167 H 0.7462 0.3504 0.31166 0.0
H168 H 0.70654 0.36454 0.24054 0.0
H169 H 0.75114 0.20271 0.11876 0.0
H170 H 0.7288 0.13962 0.10361 0.0
H171 H 0.75601 0.14125 0.15987 0.0
H172 H 0.70984 0.11063 0.22247 0.0
H173 H 0.68242 0.10958 0.16643 0.0
H174 H 0.67345 0.15154 0.22512 0.0
H175 H 0.66808 0.36188 0.1697 0.0
H176 H 0.6352 0.34682 0.09 0.0
H177 H 0.67029 0.17502 0.07682 0.0
C178 C 0.74612 0.21679 0.25801 0.0
C179 C 0.75444 0.26196 0.29297 0.0
C180 C 0.74011 0.3152 0.28574 0.0
C181 C 0.71744 0.32365 0.24554 0.0
C182 C 0.70944 0.27863 0.21231 0.0
C183 C 0.72348 0.22639 0.21705 0.0
C184 C 0.71093 0.18663 0.1734 0.0
C185 C 0.73836 0.16639 0.13673 0.0
C186 C 0.69309 0.13663 0.19835 0.0
C187 C 0.68787 0.22541 0.14368 0.0
C188 C 0.68739 0.27776 0.16803 0.0
C189 C 0.66833 0.32134 0.14974 0.0
C190 C 0.6497 0.31221 0.10422 0.0
C191 C 0.65031 0.26002 0.07659 0.0
C192 C 0.66931 0.21541 0.09709 0.0
H193 H 0.66719 0.19958 0.76249 0.0
H194 H 0.66332 0.37836 0.79824 0.0
H195 H 0.69754 0.39744 0.71991 0.0
H196 H 0.74748 0.19241 0.72148 0.0
H197 H 0.74125 0.14408 0.66634 0.0
H198 H 0.71434 0.14359 0.72286 0.0
H199 H 0.66585 0.15882 0.65938 0.0
H200 H 0.69263 0.15881 0.60253 0.0
H201 H 0.66607 0.21743 0.61393 0.0
H202 H 0.73552 0.39723 0.64242 0.0
H203 H 0.77254 0.37737 0.56711 0.0
H204 H 0.751 0.1994 0.57968 0.0
C205 C 0.67346 0.2427 0.75364 0.0
C206 C 0.66289 0.28746 0.7869 0.0
C207 C 0.67128 0.34336 0.77358 0.0
C208 C 0.69066 0.35472 0.72906 0.0
C209 C 0.70115 0.30979 0.69764 0.0
C210 C 0.69252 0.25494 0.70871 0.0
C211 C 0.70745 0.21453 0.66847 0.0
C212 C 0.72891 0.17111 0.69649 0.0
C213 C 0.68144 0.1857 0.63405 0.0
C214 C 0.72709 0.255 0.63517 0.0
C215 C 0.72275 0.30982 0.65217 0.0
C216 C 0.73894 0.35449 0.6284 0.0
C217 C 0.76004 0.34277 0.58588 0.0
C218 C 0.7648 0.28682 0.56775 0.0
C219 C 0.74797 0.24257 0.59276 0.0
H220 H 0.75131 0.68081 0.07421 0.0
H221 H 0.79304 0.84705 0.09601 0.0
H222 H 0.76088 0.86143 0.17668 0.0
H223 H 0.67207 0.71599 0.11697 0.0
H224 H 0.66425 0.65318 0.1548 0.0
H225 H 0.69178 0.65107 0.09905 0.0
H226 H 0.73631 0.61192 0.16025 0.0
H227 H 0.70878 0.61292 0.21607 0.0
H228 H 0.74674 0.64896 0.22128 0.0
H229 H 0.72221 0.86548 0.2464 0.0
H230 H 0.68203 0.85265 0.31698 0.0
H231 H 0.66461 0.68211 0.26016 0.0
C232 C 0.75398 0.7196 0.09682 0.0
C233 C 0.77451 0.76324 0.07853 0.0
C234 C 0.77724 0.8135 0.10874 0.0
C235 C 0.75907 0.82215 0.15474 0.0
C236 C 0.7383 0.77997 0.17074 0.0
C237 C 0.73583 0.72907 0.14393 0.0
C238 C 0.71099 0.69181 0.17153 0.0
C239 C 0.68312 0.67719 0.1333 0.0
C240 C 0.72666 0.63824 0.19359 0.0
C241 C 0.70004 0.73076 0.21701 0.0
C242 C 0.71613 0.78136 0.21471 0.0
C243 C 0.70979 0.82572 0.24972 0.0
C244 C 0.68684 0.81809 0.28957 0.0
C245 C 0.67071 0.76623 0.29475 0.0
C246 C 0.67717 0.72188 0.25772 0.0
H247 H 0.66366 0.84354 0.58633 0.0
H248 H 0.646 0.66332 0.57706 0.0
H249 H 0.68111 0.64854 0.65344 0.0
H250 H 0.74678 0.83583 0.62571 0.0
H251 H 0.74568 0.89203 0.67464 0.0
H252 H 0.71837 0.89242 0.61849 0.0
H253 H 0.67004 0.89931 0.68291 0.0
H254 H 0.69715 0.89988 0.73936 0.0
H255 H 0.66552 0.84827 0.73553 0.0
H256 H 0.71898 0.64829 0.72397 0.0
H257 H 0.75487 0.66439 0.80002 0.0
H258 H 0.74937 0.84478 0.77417 0.0
C259 C 0.66701 0.80123 0.60102 0.0
C260 C 0.65229 0.75441 0.57496 0.0
C261 C 0.65719 0.6998 0.59546 0.0
C262 C 0.6772 0.69075 0.63901 0.0
C263 C 0.69205 0.73671 0.66273 0.0
C264 C 0.68699 0.79115 0.64582 0.0
C265 C 0.70597 0.83211 0.68124 0.0
C266 C 0.73068 0.86501 0.64802 0.0
C267 C 0.68331 0.87226 0.71155 0.0
C268 C 0.72234 0.79132 0.71971 0.0
C269 C 0.71388 0.73674 0.70718 0.0
C270 C 0.72557 0.6908 0.73505 0.0
C271 C 0.74599 0.70047 0.77832 0.0
C272 C 0.75455 0.75575 0.79384 0.0
C273 C 0.74286 0.80203 0.76368 0.0
H274 H 0.24357 0.84006 0.89618 0.0
H275 H 0.30465 0.69984 0.85014 0.0
H276 H 0.27397 0.6874 0.76704 0.0
H277 H 0.17074 0.78184 0.84763 0.0
H278 H 0.15404 0.84559 0.82079 0.0
H279 H 0.18186 0.84895 0.87614 0.0
H280 H 0.21881 0.91533 0.82277 0.0
H281 H 0.19076 0.91328 0.76765 0.0
H282 H 0.23223 0.89488 0.7566 0.0
H283 H 0.23413 0.67917 0.69767 0.0
H284 H 0.19122 0.68823 0.63033 0.0
H285 H 0.15631 0.83808 0.71183 0.0
C286 C 0.25088 0.80794 0.86767 0.0
C287 C 0.27642 0.77055 0.87952 0.0
C288 C 0.28505 0.72846 0.84194 0.0
C289 C 0.26774 0.72095 0.79467 0.0
C290 C 0.2419 0.75622 0.78506 0.0
C291 C 0.23371 0.79989 0.81936 0.0
C292 C 0.20417 0.83053 0.7982 0.0
C293 C 0.17604 0.82645 0.83807 0.0
C294 C 0.21198 0.89216 0.78554 0.0
C295 C 0.19747 0.79672 0.74708 0.0
C296 C 0.21932 0.7535 0.7415 0.0
C297 C 0.21729 0.71366 0.70044 0.0
C298 C 0.19282 0.71894 0.66259 0.0
C299 C 0.17119 0.76444 0.66527 0.0
C300 C 0.17326 0.80374 0.7083 0.0
H301 H 0.26609 0.80939 0.20885 0.0
H302 H 0.22638 0.66516 0.12426 0.0
H303 H 0.18855 0.64944 0.19888 0.0
H304 H 0.26007 0.74427 0.34263 0.0
H305 H 0.25053 0.80926 0.37658 0.0
H306 H 0.27525 0.80984 0.31719 0.0
H307 H 0.23619 0.87971 0.27221 0.0
H308 H 0.21153 0.87964 0.33155 0.0
H309 H 0.19412 0.86225 0.26721 0.0
H310 H 0.15447 0.64958 0.2807 0.0
H311 H 0.12501 0.6674 0.36526 0.0
H312 H 0.18663 0.81069 0.39847 0.0
C313 C 0.24916 0.77493 0.20597 0.0
C314 C 0.2487 0.73883 0.16043 0.0
C315 C 0.22688 0.69335 0.15863 0.0
C316 C 0.20542 0.68399 0.20086 0.0
C317 C 0.20646 0.71989 0.24523 0.0
C318 C 0.22786 0.76427 0.24849 0.0
C319 C 0.22405 0.79575 0.30147 0.0
C320 C 0.25427 0.78939 0.33651 0.0
C321 C 0.21597 0.85802 0.29252 0.0
C322 C 0.19592 0.76416 0.32554 0.0
C323 C 0.1867 0.71977 0.29298 0.0
C324 C 0.16144 0.68419 0.30665 0.0
C325 C 0.14484 0.69462 0.35469 0.0
C326 C 0.15328 0.74076 0.38799 0.0
C327 C 0.17937 0.77555 0.37336 0.0
H328 H -0.00887 0.25488 0.1204 0.0
H329 H 0.03867 0.41209 0.15664 0.0
H330 H -0.00207 0.43244 0.22721 0.0
H331 H 0.90765 0.28078 0.16347 0.0
H332 H 0.90674 0.21277 0.19482 0.0
H333 H 0.93115 0.22363 0.13624 0.0
H334 H -0.0202 0.18601 0.19036 0.0
H335 H 0.95619 0.17936 0.25035 0.0
H336 H -0.00801 0.22191 0.25105 0.0
H337 H 0.95393 0.42655 0.30343 0.0
H338 H 0.91232 0.39681 0.36976 0.0
H339 H 0.9093 0.23253 0.29305 0.0
C340 C -0.00835 0.29533 0.14082 0.0
C341 C 0.01725 0.33258 0.13278 0.0
C342 C 0.01848 0.38391 0.16163 0.0
C343 C -0.00419 0.39512 0.20235 0.0
C344 C -0.02687 0.35361 0.21402 0.0
C345 C -0.02878 0.30459 0.18374 0.0
C346 C 0.95084 0.26065 0.21008 0.0
C347 C 0.9224 0.24353 0.17401 0.0
C348 C -0.02909 0.209 0.22641 0.0
C349 C 0.9401 0.29324 0.25856 0.0
C350 C 0.95258 0.34694 0.26072 0.0
C351 C 0.94403 0.38451 0.30188 0.0
C352 C 0.92072 0.36727 0.33961 0.0
C353 C 0.90717 0.3128 0.33575 0.0
C354 C 0.91856 0.27498 0.29654 0.0
H355 H 0.43283 0.2666 0.61549 0.0
H356 H 0.37826 0.11925 0.6585 0.0
H357 H 0.41859 0.09639 0.72843 0.0
H358 H 0.51575 0.2278 0.6553 0.0
H359 H 0.52125 0.29673 0.68445 0.0
H360 H 0.49514 0.28756 0.62746 0.0
H361 H 0.45017 0.33633 0.68274 0.0
H362 H 0.47525 0.34142 0.74135 0.0
H363 H 0.43717 0.30569 0.74503 0.0
H364 H 0.46187 0.09958 0.80351 0.0
H365 H 0.50492 0.12496 0.86905 0.0
H366 H 0.52022 0.28112 0.78377 0.0
C367 C 0.43077 0.22724 0.63694 0.0
C368 C 0.4034 0.19344 0.63079 0.0
C369 C 0.39992 0.14428 0.6617 0.0
C370 C 0.42236 0.13176 0.70212 0.0
C371 C 0.44727 0.16991 0.71142 0.0
C372 C 0.45146 0.21669 0.67933 0.0
C373 C 0.47498 0.2578 0.70333 0.0
C374 C 0.50348 0.26799 0.66537 0.0
C375 C 0.45839 0.31354 0.71903 0.0
C376 C 0.48482 0.22564 0.75231 0.0
C377 C 0.4688 0.17513 0.757 0.0
C378 C 0.47479 0.13882 0.79979 0.0
C379 C 0.49905 0.15356 0.83689 0.0
C380 C 0.51636 0.20428 0.83065 0.0
C381 C 0.50801 0.24133 0.78911 0.0
H382 H -0.00493 0.79424 0.64079 0.0
H383 H 0.02491 0.62145 0.61903 0.0
H384 H -0.017 0.59136 0.6845 0.0
H385 H 0.001 0.78249 0.77423 0.0
H386 H -0.02979 0.83306 0.79039 0.0
H387 H -0.0078 0.83896 0.72865 0.0
H388 H 0.93984 0.83532 0.67194 0.0
H389 H 0.91749 0.83378 0.73371 0.0
H390 H 0.91113 0.77996 0.68348 0.0
H391 H 0.93698 0.5859 0.76094 0.0
H392 H 0.89723 0.60657 0.83379 0.0
H393 H 0.91973 0.78361 0.82148 0.0
C394 C -0.00798 0.74967 0.64812 0.0
C395 C 0.01301 0.71014 0.62536 0.0
C396 C 0.00862 0.65229 0.63593 0.0
C397 C -0.01482 0.63511 0.67351 0.0
C398 C -0.03248 0.6767 0.70054 0.0
C399 C -0.02877 0.73293 0.688 0.0
C400 C 0.95618 0.77138 0.72872 0.0
C401 C -0.01859 0.80861 0.75714 0.0
C402 C 0.92957 0.80716 0.70293 0.0
C403 C 0.94279 0.72851 0.76623 0.0
C404 C 0.94805 0.67392 0.74911 0.0
C405 C 0.93343 0.62854 0.77513 0.0
C406 C 0.91143 0.64032 0.8171 0.0
C407 C 0.90588 0.69664 0.83326 0.0
C408 C 0.92387 0.74005 0.81025 0.0
H409 H 0.42021 0.89093 0.13575 0.0
H410 H 0.39182 0.71681 0.1505 0.0
H411 H 0.42781 0.7049 0.22666 0.0
H412 H 0.50816 0.86094 0.17433 0.0
H413 H 0.51126 0.92816 0.20787 0.0
H414 H 0.4854 0.92012 0.15033 0.0
H415 H 0.43883 0.95951 0.2086 0.0
H416 H 0.46392 0.96312 0.26755 0.0
H417 H 0.42721 0.92298 0.2687 0.0
H418 H 0.45146 0.72092 0.3156 0.0
H419 H 0.4927 0.73999 0.38366 0.0
H420 H 0.51854 0.89393 0.3022 0.0
C421 C 0.42291 0.8498 0.15347 0.0
C422 C 0.40299 0.80457 0.13781 0.0
C423 C 0.40697 0.7514 0.16172 0.0
C424 C 0.42685 0.74464 0.20586 0.0
C425 C 0.4435 0.7913 0.22417 0.0
C426 C 0.44414 0.84142 0.19651 0.0
C427 C 0.4665 0.88301 0.22404 0.0
C428 C 0.49451 0.89895 0.18694 0.0
C429 C 0.44801 0.93527 0.24334 0.0
C430 C 0.47763 0.84815 0.27138 0.0
C431 C 0.46205 0.79702 0.27214 0.0
C432 C 0.46505 0.75969 0.31442 0.0
C433 C 0.48786 0.77179 0.35374 0.0
C434 C 0.50927 0.81735 0.34679 0.0
C435 C 0.50254 0.85861 0.30794 0.0
H436 H 0.01393 0.0415 0.07824 0.0
H437 H 0.02055 0.16209 0.94849 0.0
H438 H -0.02483 0.11543 0.90291 0.0
H439 H -0.00504 0.92056 -0.00266 0.0
H440 H -0.03311 0.89145 0.04473 0.0
H441 H -0.00055 0.93507 0.06813 0.0
H442 H 0.95884 1.00071 0.11586 0.0
H443 H 0.9261 0.95743 0.09237 0.0
H444 H 0.92661 0.0315 0.0778 0.0
H445 H 0.92941 0.05883 0.87211 0.0
H446 H 0.88797 0.98967 0.85128 0.0
H447 H 0.9101 0.90022 -0.00148 0.0
C448 C 0.00595 0.05797 0.04008 0.0
C449 C 0.02099 0.10568 0.01697 0.0
C450 C 0.00963 0.12579 0.96709 0.0
C451 C -0.01628 0.09967 0.94098 0.0
C452 C -0.03068 0.05337 0.96511 0.0
C453 C -0.01995 0.03226 0.01328 0.0
C454 C 0.96028 0.98123 0.0297 0.0
C455 C -0.01832 0.92897 0.03527 0.0
C456 C 0.94187 0.99345 0.08203 0.0
C457 C 0.93742 0.97592 -0.01791 0.0
C458 C 0.94289 0.019 0.94623 0.0
C459 C 0.92503 0.02466 0.89958 0.0
C460 C 0.90139 0.98472 0.8882 0.0
C461 C 0.89563 0.93859 0.92279 0.0
C462 C 0.91377 0.93466 0.97103 0.0
H463 H 0.53446 0.58022 0.50497 0.0
H464 H 0.49632 0.62474 0.34882 0.0
H465 H 0.44737 0.57001 0.36692 0.0
H466 H 0.50588 0.43897 0.5023 0.0
H467 H 0.4955 0.43544 0.57246 0.0
H468 H 0.52708 0.48176 0.55074 0.0
H469 H 0.49838 0.56707 0.59449 0.0
H470 H 0.46727 0.52061 0.61777 0.0
H471 H 0.45697 0.58096 0.57799 0.0
H472 H 0.4055 0.50354 0.39632 0.0
H473 H 0.36849 0.4384 0.44229 0.0
H474 H 0.4313 0.43806 0.58134 0.0
C475 C 0.51551 0.57889 0.47518 0.0
C476 C 0.51915 0.60598 0.42518 0.0
C477 C 0.49405 0.60338 0.38693 0.0
C478 C 0.46617 0.57254 0.39685 0.0
C479 C 0.46368 0.54431 0.44532 0.0
C480 C 0.48731 0.54766 0.48438 0.0
C481 C 0.47853 0.51149 0.53228 0.0
C482 C 0.50321 0.46411 0.53988 0.0
C483 C 0.47508 0.5472 0.58366 0.0
C484 C 0.44629 0.48823 0.51398 0.0
C485 C 0.43856 0.50705 0.4633 0.0
C486 C 0.41092 0.48923 0.43646 0.0
C487 C 0.39013 0.45214 0.46268 0.0
C488 C 0.39677 0.43435 0.51554 0.0
C489 C 0.42536 0.45224 0.54131 0.0
H490 H 0.3961 0.59829 0.95158 0.0
H491 H 0.42377 0.60714 0.11976 0.0
H492 H 0.46902 0.54403 0.10208 0.0
H493 H 0.41437 0.45303 0.93255 0.0
H494 H 0.43097 0.45963 0.86606 0.0
H495 H 0.40113 0.50888 0.88931 0.0
H496 H 0.43937 0.59205 0.86981 0.0
H497 H 0.46903 0.54306 0.84539 0.0
H498 H 0.47922 0.59216 0.89818 0.0
H499 H 0.50852 0.47374 0.06995 0.0
H500 H 0.54439 0.40831 0.02093 0.0
H501 H 0.49407 0.44555 0.87272 0.0
C502 C 0.41185 0.58721 -0.01556 0.0
C503 C 0.40577 0.6069 0.03739 0.0
C504 C 0.42722 0.59163 0.07915 0.0
C505 C 0.45322 0.5559 0.06956 0.0
C506 C 0.45791 0.5355 0.01779 0.0
C507 C 0.43827 0.55105 0.97555 0.0
C508 C 0.44897 0.5219 0.92395 0.0
C509 C 0.42227 0.48359 0.90167 0.0
C510 C 0.45979 0.56488 0.88186 0.0
C511 C 0.47726 0.48763 0.94432 0.0
C512 C 0.48178 0.49589 -0.00133 0.0
C513 C 0.50554 0.46736 0.02716 0.0
C514 C 0.52568 0.43004 -0.00087 0.0
C515 C 0.52227 0.42228 0.94307 0.0
C516 C 0.49755 0.45128 0.91553 0.0
H517 H 0.02741 0.93123 0.44165 0.0
H518 H 0.00725 0.927 0.61254 0.0
H519 H 0.95799 0.98189 0.59853 0.0
H520 H 0.00275 0.07131 0.42233 0.0
H521 H -0.01593 0.06075 0.35772 0.0
H522 H 0.01639 0.01561 0.37849 0.0
H523 H -0.01928 0.92756 0.36429 0.0
H524 H 0.94859 0.97234 0.3419 0.0
H525 H 0.94195 0.92423 0.39634 0.0
H526 H 0.91495 0.04604 0.56926 0.0
H527 H 0.87573 0.10693 0.52307 0.0
H528 H 0.92141 0.06869 0.3705 0.0
C529 C 0.01225 0.94126 0.47572 0.0
C530 C 0.02127 0.92586 0.52832 0.0
C531 C 0.00099 0.93957 0.57211 0.0
C532 C -0.02709 0.97049 0.56459 0.0
C533 C -0.03474 0.98738 0.51288 0.0
C534 C -0.0161 0.97267 0.4689 0.0
C535 C -0.02957 0.99856 0.41806 0.0
C536 C -0.00514 0.03896 0.39267 0.0
C537 C 0.9598 0.95293 0.37778 0.0
C538 C 0.94173 0.03015 0.44075 0.0
C539 C 0.9394 0.02337 0.49558 0.0
C540 C 0.91604 0.05086 0.52611 0.0
C541 C 0.89397 0.08547 0.49968 0.0
C542 C 0.89514 0.09141 0.44327 0.0
C543 C 0.91947 0.06363 0.41358 0.0
loop_
_geom_bond_atom_site_label_1
_geom_bond_atom_site_label_2
_geom_bond_distance
_geom_bond_site_symmetry_2
_ccdc_geom_bond_type
C0 O1 1.306 . S
C0 O3 1.160 . S
O1 C0 1.306 . S
O1 Cd2 2.228 . S
Cd2 O1 2.228 . S
Cd2 O6 2.273 . S
Cd2 O10 2.277 . S
O3 C0 1.160 . S
O3 Cd4 2.203 . S
Cd4 O3 2.203 . S
Cd4 O6 2.411 . S
Cd4 O7 2.333 . S
Cd4 O8 2.342 1_554 S
Cd4 O12 2.277 . S
Cd4 O13 2.356 1_554 S
C5 O10 1.209 . S
C5 O12 1.226 . S
O6 Cd2 2.273 . S
O6 Cd4 2.411 . S
O6 C9 1.320 . S
O7 Cd4 2.333 . S
O7 C9 1.214 . S
O8 Cd4 2.342 1_556 S
O8 C11 1.264 . S
C9 O6 1.320 . S
C9 O7 1.214 . S
O10 Cd2 2.277 . S
O10 C5 1.209 . S
C11 O8 1.264 . S
C11 O13 1.282 . S
O12 Cd4 2.277 . S
O12 C5 1.226 . S
O13 Cd4 2.356 1_556 S
O13 C11 1.282 . S
C14 O15 1.306 . S
C14 O17 1.160 . S
O15 C14 1.306 . S
O15 Cd16 2.228 . S
Cd16 O15 2.228 . S
Cd16 O20 2.273 . S
Cd16 O24 2.277 . S
O17 C14 1.160 . S
O17 Cd18 2.203 . S
Cd18 O17 2.203 . S
Cd18 O20 2.411 . S
Cd18 O21 2.333 . S
Cd18 O22 2.352 . S
Cd18 O26 2.277 . S
Cd18 O27 2.356 . S
C19 O24 1.209 . S
C19 O26 1.226 . S
O20 Cd16 2.273 . S
O20 Cd18 2.411 . S
O20 C23 1.320 . S
O21 Cd18 2.333 . S
O21 C23 1.214 . S
O22 Cd18 2.352 . S
O22 C25 1.258 . S
C23 O20 1.320 . S
C23 O21 1.214 . S
O24 Cd16 2.277 . S
O24 C19 1.209 . S
C25 O22 1.258 . S
C25 O27 1.282 . S
O26 Cd18 2.277 . S
O26 C19 1.226 . S
O27 Cd18 2.356 . S
O27 C25 1.282 . S
C28 O29 1.306 . S
C28 O31 1.160 . S
O29 C28 1.306 . S
O29 Cd30 2.228 . S
Cd30 O29 2.228 . S
Cd30 O34 2.273 . S
Cd30 O38 2.277 . S
O31 C28 1.160 . S
O31 Cd32 2.203 . S
Cd32 O31 2.203 . S
Cd32 O34 2.411 . S
Cd32 O35 2.333 . S
Cd32 O36 2.342 1_556 S
Cd32 O40 2.277 . S
Cd32 O41 2.356 1_556 S
C33 O38 1.209 . S
C33 O40 1.226 . S
O34 Cd30 2.273 . S
O34 Cd32 2.411 . S
O34 C37 1.320 . S
O35 Cd32 2.333 . S
O35 C37 1.214 . S
O36 Cd32 2.342 1_554 S
O36 C39 1.264 . S
C37 O34 1.320 . S
C37 O35 1.214 . S
O38 Cd30 2.277 . S
O38 C33 1.209 . S
C39 O36 1.264 . S
C39 O41 1.282 . S
O40 Cd32 2.277 . S
O40 C33 1.226 . S
O41 Cd32 2.356 1_554 S
O41 C39 1.282 . S
C42 O43 1.306 . S
C42 O45 1.160 . S
O43 C42 1.306 . S
O43 Cd44 2.228 . S
Cd44 O43 2.228 . S
Cd44 O48 2.273 . S
Cd44 O52 2.277 . S
O45 C42 1.160 . S
O45 Cd46 2.203 . S
Cd46 O45 2.203 . S
Cd46 O48 2.411 . S
Cd46 O49 2.333 . S
Cd46 O50 2.352 . S
Cd46 O54 2.277 . S
Cd46 O55 2.356 . S
C47 O52 1.209 . S
C47 O54 1.226 . S
O48 Cd44 2.273 . S
O48 Cd46 2.411 . S
O48 C51 1.320 . S
O49 Cd46 2.333 . S
O49 C51 1.214 . S
O50 Cd46 2.352 . S
O50 C53 1.258 . S
C51 O48 1.320 . S
C51 O49 1.214 . S
O52 Cd44 2.277 . S
O52 C47 1.209 . S
C53 O50 1.258 . S
C53 O55 1.282 . S
O54 Cd46 2.277 . S
O54 C47 1.226 . S
O55 Cd46 2.356 . S
O55 C53 1.282 . S
C56 O57 1.306 . S
C56 O59 1.160 . S
O57 C56 1.306 . S
O57 Cd58 2.228 . S
Cd58 O57 2.228 . S
Cd58 O62 2.273 . S
Cd58 O66 2.277 . S
O59 C56 1.160 . S
O59 Cd60 2.203 . S
Cd60 O59 2.203 . S
Cd60 O62 2.411 . S
Cd60 O63 2.333 . S
Cd60 O64 2.342 1_556 S
Cd60 O68 2.277 . S
Cd60 O69 2.356 1_556 S
C61 O66 1.209 . S
C61 O68 1.226 . S
O62 Cd58 2.273 . S
O62 Cd60 2.411 . S
O62 C65 1.320 . S
O63 Cd60 2.333 . S
O63 C65 1.214 . S
O64 Cd60 2.342 1_554 S
O64 C67 1.264 . S
C65 O62 1.320 . S
C65 O63 1.214 . S
O66 Cd58 2.277 . S
O66 C61 1.209 . S
C67 O64 1.264 . S
C67 O69 1.282 . S
O68 Cd60 2.277 . S
O68 C61 1.226 . S
O69 Cd60 2.356 1_554 S
O69 C67 1.282 . S
C70 O71 1.306 . S
C70 O73 1.160 . S
O71 C70 1.306 . S
O71 Cd72 2.228 . S
Cd72 O71 2.228 . S
Cd72 O76 2.273 . S
Cd72 O80 2.277 . S
O73 C70 1.160 . S
O73 Cd74 2.203 . S
Cd74 O73 2.203 . S
Cd74 O76 2.411 . S
Cd74 O77 2.333 . S
Cd74 O78 2.352 . S
Cd74 O82 2.277 . S
Cd74 O83 2.356 . S
C75 O80 1.209 . S
C75 O82 1.226 . S
O76 Cd72 2.273 . S
O76 Cd74 2.411 . S
O76 C79 1.320 . S
O77 Cd74 2.333 . S
O77 C79 1.214 . S
O78 Cd74 2.352 . S
O78 C81 1.258 . S
C79 O76 1.320 . S
C79 O77 1.214 . S
O80 Cd72 2.277 . S
O80 C75 1.209 . S
C81 O78 1.258 . S
C81 O83 1.282 . S
O82 Cd74 2.277 . S
O82 C75 1.226 . S
O83 Cd74 2.356 . S
O83 C81 1.282 . S
C84 O85 1.306 . S
C84 O87 1.160 . S
O85 C84 1.306 . S
O85 Cd86 2.228 . S
Cd86 O85 2.228 . S
Cd86 O90 2.273 . S
Cd86 O94 2.277 . S
O87 C84 1.160 . S
O87 Cd88 2.203 . S
Cd88 O87 2.203 . S
Cd88 O90 2.411 . S
Cd88 O91 2.333 . S
Cd88 O92 2.342 1_554 S
Cd88 O96 2.277 . S
Cd88 O97 2.356 1_554 S
C89 O94 1.209 . S
C89 O96 1.226 . S
O90 Cd86 2.273 . S
O90 Cd88 2.411 . S
O90 C93 1.320 . S
O91 Cd88 2.333 . S
O91 C93 1.214 . S
O92 Cd88 2.342 1_556 S
O92 C95 1.264 . S
C93 O90 1.320 . S
C93 O91 1.214 . S
O94 Cd86 2.277 . S
O94 C89 1.209 . S
C95 O92 1.264 . S
C95 O97 1.282 . S
O96 Cd88 2.277 . S
O96 C89 1.226 . S
O97 Cd88 2.356 1_556 S
O97 C95 1.282 . S
C98 O99 1.306 . S
C98 O101 1.160 . S
O99 C98 1.306 . S
O99 Cd100 2.228 . S
Cd100 O99 2.228 . S
Cd100 O104 2.273 . S
Cd100 O108 2.277 . S
O101 C98 1.160 . S
O101 Cd102 2.203 . S
Cd102 O101 2.203 . S
Cd102 O104 2.411 . S
Cd102 O105 2.333 . S
Cd102 O106 2.352 . S
Cd102 O110 2.277 . S
Cd102 O111 2.356 . S
C103 O108 1.209 . S
C103 O110 1.226 . S
O104 Cd100 2.273 . S
O104 Cd102 2.411 . S
O104 C107 1.320 . S
O105 Cd102 2.333 . S
O105 C107 1.214 . S
O106 Cd102 2.352 . S
O106 C109 1.258 . S
C107 O104 1.320 . S
C107 O105 1.214 . S
O108 Cd100 2.277 . S
O108 C103 1.209 . S
C109 O106 1.258 . S
C109 O111 1.282 . S
O110 Cd102 2.277 . S
O110 C103 1.226 . S
O111 Cd102 2.356 . S
O111 C109 1.282 . S
H112 C124 0.930 . S
H113 C126 0.930 . S
H114 C127 0.930 . S
H115 C131 0.959 . S
H116 C131 0.959 . S
H117 C131 0.961 . S
H118 C132 0.960 . S
H119 C132 0.961 . S
H120 C132 0.959 . S
H121 C135 0.929 . S
H122 C136 0.931 . S
H123 C138 0.930 . S
C124 H112 0.930 . S
C124 C125 1.399 . S
C124 C129 1.399 . S
C125 C124 1.399 . S
C125 C126 1.376 . S
C126 H113 0.930 . S
C126 C125 1.376 . S
C126 C127 1.388 . S
C127 H114 0.930 . S
C127 C126 1.388 . S
C127 C128 1.390 . S
C128 C127 1.390 . S
C128 C129 1.394 . S
C128 C134 1.465 . S
C129 C124 1.399 . S
C129 C128 1.394 . S
C129 C130 1.516 . S
C130 C129 1.516 . S
C130 C131 1.502 . S
C130 C132 1.561 . S
C130 C133 1.526 . S
C131 H115 0.959 . S
C131 H116 0.959 . S
C131 H117 0.961 . S
C131 C130 1.502 . S
C132 H118 0.960 . S
C132 H119 0.961 . S
C132 H120 0.959 . S
C132 C130 1.561 . S
C133 C130 1.526 . S
C133 C134 1.396 . S
C133 C138 1.390 . S
C134 C128 1.465 . S
C134 C133 1.396 . S
C134 C135 1.399 . S
C135 H121 0.929 . S
C135 C134 1.399 . S
C135 C136 1.385 . S
C136 H122 0.931 . S
C136 C135 1.385 . S
C136 C137 1.389 . S
C137 C136 1.389 . S
C137 C138 1.387 . S
C138 H123 0.930 . S
C138 C133 1.390 . S
C138 C137 1.387 . S
H139 C151 0.930 . S
H140 C153 0.930 . S
H141 C154 0.930 . S
H142 C158 0.959 . S
H143 C158 0.959 . S
H144 C158 0.961 . S
H145 C159 0.960 . S
H146 C159 0.961 . S
H147 C159 0.959 . S
H148 C162 0.929 . S
H149 C163 0.931 . S
H150 C165 0.930 . S
C151 H139 0.930 . S
C151 C152 1.399 . S
C151 C156 1.399 . S
C152 C151 1.399 . S
C152 C153 1.376 . S
C153 H140 0.930 . S
C153 C152 1.376 . S
C153 C154 1.388 . S
C154 H141 0.930 . S
C154 C153 1.388 . S
C154 C155 1.390 . S
C155 C154 1.390 . S
C155 C156 1.394 . S
C155 C161 1.465 . S
C156 C151 1.399 . S
C156 C155 1.394 . S
C156 C157 1.516 . S
C157 C156 1.516 . S
C157 C158 1.502 . S
C157 C159 1.561 . S
C157 C160 1.526 . S
C158 H142 0.959 . S
C158 H143 0.959 . S
C158 H144 0.961 . S
C158 C157 1.502 . S
C159 H145 0.960 . S
C159 H146 0.961 . S
C159 H147 0.959 . S
C159 C157 1.561 . S
C160 C157 1.526 . S
C160 C161 1.396 . S
C160 C165 1.390 . S
C161 C155 1.465 . S
C161 C160 1.396 . S
C161 C162 1.399 . S
C162 H148 0.929 . S
C162 C161 1.399 . S
C162 C163 1.385 . S
C163 H149 0.931 . S
C163 C162 1.385 . S
C163 C164 1.389 . S
C164 C163 1.389 . S
C164 C165 1.387 . S
C165 H150 0.930 . S
C165 C160 1.390 . S
C165 C164 1.387 . S
H166 C178 0.930 . S
H167 C180 0.930 . S
H168 C181 0.930 . S
H169 C185 0.959 . S
H170 C185 0.959 . S
H171 C185 0.961 . S
H172 C186 0.960 . S
H173 C186 0.961 . S
H174 C186 0.959 . S
H175 C189 0.929 . S
H176 C190 0.931 . S
H177 C192 0.930 . S
C178 H166 0.930 . S
C178 C179 1.399 . S
C178 C183 1.399 . S
C179 C178 1.399 . S
C179 C180 1.376 . S
C180 H167 0.930 . S
C180 C179 1.376 . S
C180 C181 1.388 . S
C181 H168 0.930 . S
C181 C180 1.388 . S
C181 C182 1.390 . S
C182 C181 1.390 . S
C182 C183 1.394 . S
C182 C188 1.465 . S
C183 C178 1.399 . S
C183 C182 1.394 . S
C183 C184 1.516 . S
C184 C183 1.516 . S
C184 C185 1.502 . S
C184 C186 1.561 . S
C184 C187 1.526 . S
C185 H169 0.959 . S
C185 H170 0.959 . S
C185 H171 0.961 . S
C185 C184 1.502 . S
C186 H172 0.960 . S
C186 H173 0.961 . S
C186 H174 0.959 . S
C186 C184 1.561 . S
C187 C184 1.526 . S
C187 C188 1.396 . S
C187 C192 1.390 . S
C188 C182 1.465 . S
C188 C187 1.396 . S
C188 C189 1.399 . S
C189 H175 0.929 . S
C189 C188 1.399 . S
C189 C190 1.385 . S
C190 H176 0.931 . S
C190 C189 1.385 . S
C190 C191 1.389 . S
C191 C190 1.389 . S
C191 C192 1.387 . S
C192 H177 0.930 . S
C192 C187 1.390 . S
C192 C191 1.387 . S
H193 C205 0.930 . S
H194 C207 0.930 . S
H195 C208 0.930 . S
H196 C212 0.959 . S
H197 C212 0.959 . S
H198 C212 0.961 . S
H199 C213 0.960 . S
H200 C213 0.961 . S
H201 C213 0.959 . S
H202 C216 0.929 . S
H203 C217 0.931 . S
H204 C219 0.930 . S
C205 H193 0.930 . S
C205 C206 1.399 . S
C205 C210 1.399 . S
C206 C205 1.399 . S
C206 C207 1.376 . S
C207 H194 0.930 . S
C207 C206 1.376 . S
C207 C208 1.388 . S
C208 H195 0.930 . S
C208 C207 1.388 . S
C208 C209 1.390 . S
C209 C208 1.390 . S
C209 C210 1.394 . S
C209 C215 1.465 . S
C210 C205 1.399 . S
C210 C209 1.394 . S
C210 C211 1.516 . S
C211 C210 1.516 . S
C211 C212 1.502 . S
C211 C213 1.561 . S
C211 C214 1.526 . S
C212 H196 0.959 . S
C212 H197 0.959 . S
C212 H198 0.961 . S
C212 C211 1.502 . S
C213 H199 0.960 . S
C213 H200 0.961 . S
C213 H201 0.959 . S
C213 C211 1.561 . S
C214 C211 1.526 . S
C214 C215 1.396 . S
C214 C219 1.390 . S
C215 C209 1.465 . S
C215 C214 1.396 . S
C215 C216 1.399 . S
C216 H202 0.929 . S
C216 C215 1.399 . S
C216 C217 1.385 . S
C217 H203 0.931 . S
C217 C216 1.385 . S
C217 C218 1.389 . S
C218 C217 1.389 . S
C218 C219 1.387 . S
C219 H204 0.930 . S
C219 C214 1.390 . S
C219 C218 1.387 . S
H220 C232 0.930 . S
H221 C234 0.930 . S
H222 C235 0.930 . S
H223 C239 0.959 . S
H224 C239 0.959 . S
H225 C239 0.961 . S
H226 C240 0.960 . S
H227 C240 0.961 . S
H228 C240 0.959 . S
H229 C243 0.929 . S
H230 C244 0.931 . S
H231 C246 0.930 . S
C232 H220 0.930 . S
C232 C233 1.399 . S
C232 C237 1.399 . S
C233 C232 1.399 . S
C233 C234 1.376 . S
C234 H221 0.930 . S
C234 C233 1.376 . S
C234 C235 1.388 . S
C235 H222 0.930 . S
C235 C234 1.388 . S
C235 C236 1.390 . S
C236 C235 1.390 . S
C236 C237 1.394 . S
C236 C242 1.465 . S
C237 C232 1.399 . S
C237 C236 1.394 . S
C237 C238 1.516 . S
C238 C237 1.516 . S
C238 C239 1.502 . S
C238 C240 1.561 . S
C238 C241 1.526 . S
C239 H223 0.959 . S
C239 H224 0.959 . S
C239 H225 0.961 . S
C239 C238 1.502 . S
C240 H226 0.960 . S
C240 H227 0.961 . S
C240 H228 0.959 . S
C240 C238 1.561 . S
C241 C238 1.526 . S
C241 C242 1.396 . S
C241 C246 1.390 . S
C242 C236 1.465 . S
C242 C241 1.396 . S
C242 C243 1.399 . S
C243 H229 0.929 . S
C243 C242 1.399 . S
C243 C244 1.385 . S
C244 H230 0.931 . S
C244 C243 1.385 . S
C244 C245 1.389 . S
C245 C244 1.389 . S
C245 C246 1.387 . S
C246 H231 0.930 . S
C246 C241 1.390 . S
C246 C245 1.387 . S
H247 C259 0.930 . S
H248 C261 0.930 . S
H249 C262 0.930 . S
H250 C266 0.959 . S
H251 C266 0.959 . S
H252 C266 0.961 . S
H253 C267 0.960 . S
H254 C267 0.961 . S
H255 C267 0.959 . S
H256 C270 0.929 . S
H257 C271 0.931 . S
H258 C273 0.930 . S
C259 H247 0.930 . S
C259 C260 1.399 . S
C259 C264 1.399 . S
C260 C259 1.399 . S
C260 C261 1.376 . S
C261 H248 0.930 . S
C261 C260 1.376 . S
C261 C262 1.388 . S
C262 H249 0.930 . S
C262 C261 1.388 . S
C262 C263 1.390 . S
C263 C262 1.390 . S
C263 C264 1.394 . S
C263 C269 1.465 . S
C264 C259 1.399 . S
C264 C263 1.394 . S
C264 C265 1.516 . S
C265 C264 1.516 . S
C265 C266 1.502 . S
C265 C267 1.561 . S
C265 C268 1.526 . S
C266 H250 0.959 . S
C266 H251 0.959 . S
C266 H252 0.961 . S
C266 C265 1.502 . S
C267 H253 0.960 . S
C267 H254 0.961 . S
C267 H255 0.959 . S
C267 C265 1.561 . S
C268 C265 1.526 . S
C268 C269 1.396 . S
C268 C273 1.390 . S
C269 C263 1.465 . S
C269 C268 1.396 . S
C269 C270 1.399 . S
C270 H256 0.929 . S
C270 C269 1.399 . S
C270 C271 1.385 . S
C271 H257 0.931 . S
C271 C270 1.385 . S
C271 C272 1.389 . S
C272 C271 1.389 . S
C272 C273 1.387 . S
C273 H258 0.930 . S
C273 C268 1.390 . S
C273 C272 1.387 . S
H274 C286 0.930 . S
H275 C288 0.930 . S
H276 C289 0.930 . S
H277 C293 0.959 . S
H278 C293 0.959 . S
H279 C293 0.961 . S
H280 C294 0.960 . S
H281 C294 0.961 . S
H282 C294 0.959 . S
H283 C297 0.929 . S
H284 C298 0.931 . S
H285 C300 0.930 . S
C286 H274 0.930 . S
C286 C287 1.399 . S
C286 C291 1.399 . S
C287 C286 1.399 . S
C287 C288 1.376 . S
C288 H275 0.930 . S
C288 C287 1.376 . S
C288 C289 1.388 . S
C289 H276 0.930 . S
C289 C288 1.388 . S
C289 C290 1.390 . S
C290 C289 1.390 . S
C290 C291 1.394 . S
C290 C296 1.465 . S
C291 C286 1.399 . S
C291 C290 1.394 . S
C291 C292 1.516 . S
C292 C291 1.516 . S
C292 C293 1.502 . S
C292 C294 1.561 . S
C292 C295 1.526 . S
C293 H277 0.959 . S
C293 H278 0.959 . S
C293 H279 0.961 . S
C293 C292 1.502 . S
C294 H280 0.960 . S
C294 H281 0.961 . S
C294 H282 0.959 . S
C294 C292 1.561 . S
C295 C292 1.526 . S
C295 C296 1.396 . S
C295 C300 1.390 . S
C296 C290 1.465 . S
C296 C295 1.396 . S
C296 C297 1.399 . S
C297 H283 0.929 . S
C297 C296 1.399 . S
C297 C298 1.385 . S
C298 H284 0.931 . S
C298 C297 1.385 . S
C298 C299 1.389 . S
C299 C298 1.389 . S
C299 C300 1.387 . S
C300 H285 0.930 . S
C300 C295 1.390 . S
C300 C299 1.387 . S
H301 C313 0.930 . S
H302 C315 0.930 . S
H303 C316 0.930 . S
H304 C320 0.959 . S
H305 C320 0.959 . S
H306 C320 0.961 . S
H307 C321 0.960 . S
H308 C321 0.961 . S
H309 C321 0.959 . S
H310 C324 0.929 . S
H311 C325 0.931 . S
H312 C327 0.930 . S
C313 H301 0.930 . S
C313 C314 1.399 . S
C313 C318 1.399 . S
C314 C313 1.399 . S
C314 C315 1.376 . S
C315 H302 0.930 . S
C315 C314 1.376 . S
C315 C316 1.388 . S
C316 H303 0.930 . S
C316 C315 1.388 . S
C316 C317 1.390 . S
C317 C316 1.390 . S
C317 C318 1.394 . S
C317 C323 1.465 . S
C318 C313 1.399 . S
C318 C317 1.394 . S
C318 C319 1.516 . S
C319 C318 1.516 . S
C319 C320 1.502 . S
C319 C321 1.561 . S
C319 C322 1.526 . S
C320 H304 0.959 . S
C320 H305 0.959 . S
C320 H306 0.961 . S
C320 C319 1.502 . S
C321 H307 0.960 . S
C321 H308 0.961 . S
C321 H309 0.959 . S
C321 C319 1.561 . S
C322 C319 1.526 . S
C322 C323 1.396 . S
C322 C327 1.390 . S
C323 C317 1.465 . S
C323 C322 1.396 . S
C323 C324 1.399 . S
C324 H310 0.929 . S
C324 C323 1.399 . S
C324 C325 1.385 . S
C325 H311 0.931 . S
C325 C324 1.385 . S
C325 C326 1.389 . S
C326 C325 1.389 . S
C326 C327 1.387 . S
C327 H312 0.930 . S
C327 C322 1.390 . S
C327 C326 1.387 . S
H328 C340 0.930 . S
H329 C342 0.930 . S
H330 C343 0.930 . S
H331 C347 0.959 . S
H332 C347 0.959 . S
H333 C347 0.961 . S
H334 C348 0.960 . S
H335 C348 0.961 1_655 S
H336 C348 0.959 . S
H337 C351 0.929 1_455 S
H338 C352 0.931 . S
H339 C354 0.930 . S
C340 H328 0.930 . S
C340 C341 1.399 . S
C340 C345 1.399 . S
C341 C340 1.399 . S
C341 C342 1.376 . S
C342 H329 0.930 . S
C342 C341 1.376 . S
C342 C343 1.388 . S
C343 H330 0.930 . S
C343 C342 1.388 . S
C343 C344 1.390 . S
C344 C343 1.390 . S
C344 C345 1.394 . S
C344 C350 1.465 1_455 S
C345 C340 1.399 . S
C345 C344 1.394 . S
C345 C346 1.516 1_455 S
C346 C345 1.516 1_655 S
C346 C347 1.502 . S
C346 C348 1.561 1_655 S
C346 C349 1.526 . S
C347 H331 0.959 . S
C347 H332 0.959 . S
C347 H333 0.961 . S
C347 C346 1.502 . S
C348 H334 0.960 . S
C348 H335 0.961 1_455 S
C348 H336 0.959 . S
C348 C346 1.561 1_455 S
C349 C346 1.526 . S
C349 C350 1.396 . S
C349 C354 1.390 . S
C350 C344 1.465 1_655 S
C350 C349 1.396 . S
C350 C351 1.399 . S
C351 H337 0.929 1_655 S
C351 C350 1.399 . S
C351 C352 1.385 . S
C352 H338 0.931 . S
C352 C351 1.385 . S
C352 C353 1.389 . S
C353 C352 1.389 . S
C353 C354 1.387 . S
C354 H339 0.930 . S
C354 C349 1.390 . S
C354 C353 1.387 . S
H355 C367 0.930 . S
H356 C369 0.930 . S
H357 C370 0.930 . S
H358 C374 0.959 . S
H359 C374 0.959 . S
H360 C374 0.961 . S
H361 C375 0.960 . S
H362 C375 0.961 . S
H363 C375 0.959 . S
H364 C378 0.929 . S
H365 C379 0.931 . S
H366 C381 0.930 . S
C367 H355 0.930 . S
C367 C368 1.399 . S
C367 C372 1.399 . S
C368 C367 1.399 . S
C368 C369 1.376 . S
C369 H356 0.930 . S
C369 C368 1.376 . S
C369 C370 1.388 . S
C370 H357 0.930 . S
C370 C369 1.388 . S
C370 C371 1.390 . S
C371 C370 1.390 . S
C371 C372 1.394 . S
C371 C377 1.465 . S
C372 C367 1.399 . S
C372 C371 1.394 . S
C372 C373 1.516 . S
C373 C372 1.516 . S
C373 C374 1.502 . S
C373 C375 1.561 . S
C373 C376 1.526 . S
C374 H358 0.959 . S
C374 H359 0.959 . S
C374 H360 0.961 . S
C374 C373 1.502 . S
C375 H361 0.960 . S
C375 H362 0.961 . S
C375 H363 0.959 . S
C375 C373 1.561 . S
C376 C373 1.526 . S
C376 C377 1.396 . S
C376 C381 1.390 . S
C377 C371 1.465 . S
C377 C376 1.396 . S
C377 C378 1.399 . S
C378 H364 0.929 . S
C378 C377 1.399 . S
C378 C379 1.385 . S
C379 H365 0.931 . S
C379 C378 1.385 . S
C379 C380 1.389 . S
C380 C379 1.389 . S
C380 C381 1.387 . S
C381 H366 0.930 . S
C381 C376 1.390 . S
C381 C380 1.387 . S
H382 C394 0.930 . S
H383 C396 0.930 . S
H384 C397 0.930 . S
H385 C401 0.959 . S
H386 C401 0.959 . S
H387 C401 0.961 . S
H388 C402 0.960 . S
H389 C402 0.961 . S
H390 C402 0.959 . S
H391 C405 0.929 . S
H392 C406 0.931 . S
H393 C408 0.930 . S
C394 H382 0.930 . S
C394 C395 1.399 . S
C394 C399 1.399 . S
C395 C394 1.399 . S
C395 C396 1.376 . S
C396 H383 0.930 . S
C396 C395 1.376 . S
C396 C397 1.388 . S
C397 H384 0.930 . S
C397 C396 1.388 . S
C397 C398 1.390 . S
C398 C397 1.390 . S
C398 C399 1.394 . S
C398 C404 1.465 1_455 S
C399 C394 1.399 . S
C399 C398 1.394 . S
C399 C400 1.509 1_455 S
C400 C399 1.509 1_655 S
C400 C401 1.492 1_655 S
C400 C402 1.572 . S
C400 C403 1.534 . S
C401 H385 0.959 . S
C401 H386 0.959 . S
C401 H387 0.961 . S
C401 C400 1.492 1_455 S
C402 H388 0.960 . S
C402 H389 0.961 . S
C402 H390 0.959 . S
C402 C400 1.572 . S
C403 C400 1.534 . S
C403 C404 1.396 . S
C403 C408 1.390 . S
C404 C398 1.465 1_655 S
C404 C403 1.396 . S
C404 C405 1.399 . S
C405 H391 0.929 . S
C405 C404 1.399 . S
C405 C406 1.385 . S
C406 H392 0.931 . S
C406 C405 1.385 . S
C406 C407 1.389 . S
C407 C406 1.389 . S
C407 C408 1.387 . S
C408 H393 0.930 . S
C408 C403 1.390 . S
C408 C407 1.387 . S
H409 C421 0.930 . S
H410 C423 0.930 . S
H411 C424 0.930 . S
H412 C428 0.959 . S
H413 C428 0.959 . S
H414 C428 0.961 . S
H415 C429 0.960 . S
H416 C429 0.961 . S
H417 C429 0.959 . S
H418 C432 0.929 . S
H419 C433 0.931 . S
H420 C435 0.930 . S
C421 H409 0.930 . S
C421 C422 1.399 . S
C421 C426 1.399 . S
C422 C421 1.399 . S
C422 C423 1.376 . S
C423 H410 0.930 . S
C423 C422 1.376 . S
C423 C424 1.388 . S
C424 H411 0.930 . S
C424 C423 1.388 . S
C424 C425 1.390 . S
C425 C424 1.390 . S
C425 C426 1.394 . S
C425 C431 1.465 . S
C426 C421 1.399 . S
C426 C425 1.394 . S
C426 C427 1.516 . S
C427 C426 1.516 . S
C427 C428 1.502 . S
C427 C429 1.561 . S
C427 C430 1.526 . S
C428 H412 0.959 . S
C428 H413 0.959 . S
C428 H414 0.961 . S
C428 C427 1.502 . S
C429 H415 0.960 . S
C429 H416 0.961 . S
C429 H417 0.959 . S
C429 C427 1.561 . S
C430 C427 1.526 . S
C430 C431 1.396 . S
C430 C435 1.390 . S
C431 C425 1.465 . S
C431 C430 1.396 . S
C431 C432 1.399 . S
C432 H418 0.929 . S
C432 C431 1.399 . S
C432 C433 1.385 . S
C433 H419 0.931 . S
C433 C432 1.385 . S
C433 C434 1.389 . S
C434 C433 1.389 . S
C434 C435 1.387 . S
C435 H420 0.930 . S
C435 C430 1.390 . S
C435 C434 1.387 . S
H436 C448 0.930 . S
H437 C450 0.930 . S
H438 C451 0.930 . S
H439 C455 0.959 . S
H440 C455 0.959 . S
H441 C455 0.961 . S
H442 C456 0.948 1_445 S
H443 C456 0.961 . S
H444 C456 0.959 1_545 S
H445 C459 0.929 1_545 S
H446 C460 0.931 . S
H447 C462 0.930 . S
C448 H436 0.930 . S
C448 C449 1.399 . S
C448 C453 1.399 . S
C449 C448 1.399 . S
C449 C450 1.376 1_554 S
C450 H437 0.930 . S
C450 C449 1.376 1_556 S
C450 C451 1.388 . S
C451 H438 0.930 . S
C451 C450 1.388 . S
C451 C452 1.390 . S
C452 C451 1.390 . S
C452 C453 1.394 1_556 S
C452 C458 1.465 1_445 S
C453 C448 1.399 . S
C453 C452 1.394 1_554 S
C453 C454 1.516 1_545 S
C454 C453 1.516 1_565 S
C454 C455 1.502 . S
C454 C456 1.561 1_455 S
C454 C457 1.526 1_455 S
C455 H439 0.959 . S
C455 H440 0.959 . S
C455 H441 0.961 . S
C455 C454 1.502 . S
C456 H442 0.948 1_665 S
C456 H443 0.961 . S
C456 H444 0.959 1_565 S
C456 C454 1.561 1_655 S
C457 C454 1.526 1_655 S
C457 C458 1.396 1_554 S
C457 C462 1.390 . S
C458 C452 1.465 1_665 S
C458 C457 1.396 1_556 S
C458 C459 1.399 . S
C459 H445 0.929 1_565 S
C459 C458 1.399 . S
C459 C460 1.385 . S
C460 H446 0.931 . S
C460 C459 1.385 . S
C460 C461 1.389 . S
C461 C460 1.389 . S
C461 C462 1.387 1_556 S
C462 H447 0.930 . S
C462 C457 1.390 . S
C462 C461 1.387 1_554 S
H463 C475 0.930 . S
H464 C477 0.930 . S
H465 C478 0.930 . S
H466 C482 0.959 . S
H467 C482 0.959 . S
H468 C482 0.961 . S
H469 C483 0.960 . S
H470 C483 0.961 . S
H471 C483 0.959 . S
H472 C486 0.929 . S
H473 C487 0.931 . S
H474 C489 0.930 . S
C475 H463 0.930 . S
C475 C476 1.399 . S
C475 C480 1.399 . S
C476 C475 1.399 . S
C476 C477 1.376 . S
C477 H464 0.930 . S
C477 C476 1.376 . S
C477 C478 1.388 . S
C478 H465 0.930 . S
C478 C477 1.388 . S
C478 C479 1.390 . S
C479 C478 1.390 . S
C479 C480 1.394 . S
C479 C485 1.465 . S
C480 C475 1.399 . S
C480 C479 1.394 . S
C480 C481 1.516 . S
C481 C480 1.516 . S
C481 C482 1.502 . S
C481 C483 1.561 . S
C481 C484 1.526 . S
C482 H466 0.959 . S
C482 H467 0.959 . S
C482 H468 0.961 . S
C482 C481 1.502 . S
C483 H469 0.960 . S
C483 H470 0.961 . S
C483 H471 0.959 . S
C483 C481 1.561 . S
C484 C481 1.526 . S
C484 C485 1.396 . S
C484 C489 1.390 . S
C485 C479 1.465 . S
C485 C484 1.396 . S
C485 C486 1.399 . S
C486 H472 0.929 . S
C486 C485 1.399 . S
C486 C487 1.385 . S
C487 H473 0.931 . S
C487 C486 1.385 . S
C487 C488 1.389 . S
C488 C487 1.389 . S
C488 C489 1.387 . S
C489 H474 0.930 . S
C489 C484 1.390 . S
C489 C488 1.387 . S
H490 C502 0.930 . S
H491 C504 0.930 . S
H492 C505 0.930 . S
H493 C509 0.959 . S
H494 C509 0.959 . S
H495 C509 0.961 . S
H496 C510 0.960 . S
H497 C510 0.961 . S
H498 C510 0.959 . S
H499 C513 0.929 . S
H500 C514 0.931 . S
H501 C516 0.930 . S
C502 H490 0.930 . S
C502 C503 1.399 1_556 S
C502 C507 1.399 . S
C503 C502 1.399 1_554 S
C503 C504 1.376 . S
C504 H491 0.930 . S
C504 C503 1.376 . S
C504 C505 1.388 . S
C505 H492 0.930 . S
C505 C504 1.388 . S
C505 C506 1.390 . S
C506 C505 1.390 . S
C506 C507 1.394 1_554 S
C506 C512 1.465 . S
C507 C502 1.399 . S
C507 C506 1.394 1_556 S
C507 C508 1.516 . S
C508 C507 1.516 . S
C508 C509 1.502 . S
C508 C510 1.561 . S
C508 C511 1.526 . S
C509 H493 0.959 . S
C509 H494 0.959 . S
C509 H495 0.961 . S
C509 C508 1.502 . S
C510 H496 0.960 . S
C510 H497 0.961 . S
C510 H498 0.959 . S
C510 C508 1.561 . S
C511 C508 1.526 . S
C511 C512 1.396 1_556 S
C511 C516 1.390 . S
C512 C506 1.465 . S
C512 C511 1.396 1_554 S
C512 C513 1.399 . S
C513 H499 0.929 . S
C513 C512 1.399 . S
C513 C514 1.385 . S
C514 H500 0.931 . S
C514 C513 1.385 . S
C514 C515 1.389 1_554 S
C515 C514 1.389 1_556 S
C515 C516 1.387 . S
C516 H501 0.930 . S
C516 C511 1.390 . S
C516 C515 1.387 . S
H517 C529 0.930 . S
H518 C531 0.930 . S
H519 C532 0.930 . S
H520 C536 0.959 . S
H521 C536 0.959 . S
H522 C536 0.961 . S
H523 C537 0.960 1_455 S
H524 C537 0.961 . S
H525 C537 0.959 . S
H526 C540 0.929 . S
H527 C541 0.931 . S
H528 C543 0.930 . S
C529 H517 0.930 . S
C529 C530 1.399 . S
C529 C534 1.399 . S
C530 C529 1.399 . S
C530 C531 1.376 . S
C531 H518 0.930 . S
C531 C530 1.376 . S
C531 C532 1.388 . S
C532 H519 0.930 . S
C532 C531 1.388 . S
C532 C533 1.390 . S
C533 C532 1.390 . S
C533 C534 1.394 . S
C533 C539 1.465 1_465 S
C534 C529 1.399 . S
C534 C533 1.394 . S
C534 C535 1.516 . S
C535 C534 1.516 . S
C535 C536 1.502 1_565 S
C535 C537 1.561 1_455 S
C535 C538 1.526 1_465 S
C536 H520 0.959 . S
C536 H521 0.959 . S
C536 H522 0.961 . S
C536 C535 1.502 1_545 S
C537 H523 0.960 1_655 S
C537 H524 0.961 . S
C537 H525 0.959 . S
C537 C535 1.561 1_655 S
C538 C535 1.526 1_645 S
C538 C539 1.396 . S
C538 C543 1.390 . S
C539 C533 1.465 1_645 S
C539 C538 1.396 . S
C539 C540 1.399 . S
C540 H526 0.929 . S
C540 C539 1.399 . S
C540 C541 1.385 . S
C541 H527 0.931 . S
C541 C540 1.385 . S
C541 C542 1.389 . S
C542 C541 1.389 . S
C542 C543 1.387 . S
C543 H528 0.930 . S
C543 C538 1.390 . S
C543 C542 1.387 . S
C125 C23 1.645 . S
C137 C11 1.616 . S
C152 C9 1.648 . S
C164 C25 1.637 . S
C179 C51 1.645 . S
C191 C39 1.617 . S
C206 C37 1.647 . S
C218 C53 1.646 . S
C233 C67 1.623 . S
C245 C79 1.645 . S
C260 C81 1.618 . S
C272 C65 1.646 . S
C287 C95 1.629 . S
C299 C107 1.645 . S
C314 C93 1.645 . S
C326 C109 1.647 . S
C341 C5 0.538 . S
C353 C47 0.621 . S
C368 C19 0.526 . S
C380 C33 0.620 . S
C395 C103 0.623 . S
C407 C61 0.595 . S
C422 C89 0.396 . S
C434 C75 0.454 . S
C449 C0 1.534 . S
C461 C56 1.518 . S
C476 C70 1.503 . S
C488 C14 1.559 . S
C503 C84 1.500 . S
C515 C28 1.559 . S
C530 C98 1.500 . S
C542 C42 1.559 . S
