# Generated by pormake.
# Topology rac, (4)-cn, num edge types: 1
# Building blocks:
#     Node 0, Type 0, BuildingBlock: TATPOV_clean_sbu_0, # of connection points: 4
#     Node 1, Type 0, BuildingBlock: TATPOV_clean_sbu_0, # of connection points: 4
#     Node 2, Type 0, BuildingBlock: TATPOV_clean_sbu_0, # of connection points: 4
#     Node 3, Type 0, BuildingBlock: TATPOV_clean_sbu_0, # of connection points: 4
#     Node 4, Type 0, BuildingBlock: TATPOV_clean_sbu_0, # of connection points: 4
#     Node 5, Type 0, BuildingBlock: TATPOV_clean_sbu_0, # of connection points: 4
#     Node 6, Type 0, BuildingBlock: TATPOV_clean_sbu_0, # of connection points: 4
#     Node 7, Type 0, BuildingBlock: TATPOV_clean_sbu_0, # of connection points: 4
#     Edge 8, Type (0, 0), BuildingBlock: AJUNOK_clean_linker_0, # of connection points: 2
#     Edge 9, Type (0, 0), BuildingBlock: AJUNOK_clean_linker_0, # of connection points: 2
#     Edge 10, Type (0, 0), BuildingBlock: AJUNOK_clean_linker_0, # of connection points: 2
#     Edge 11, Type (0, 0), BuildingBlock: AJUNOK_clean_linker_0, # of connection points: 2
#     Edge 12, Type (0, 0), BuildingBlock: AJUNOK_clean_linker_0, # of connection points: 2
#     Edge 13, Type (0, 0), BuildingBlock: AJUNOK_clean_linker_0, # of connection points: 2
#     Edge 14, Type (0, 0), BuildingBlock: AJUNOK_clean_linker_0, # of connection points: 2
#     Edge 15, Type (0, 0), BuildingBlock: AJUNOK_clean_linker_0, # of connection points: 2
#     Edge 16, Type (0, 0), BuildingBlock: AJUNOK_clean_linker_0, # of connection points: 2
#     Edge 17, Type (0, 0), BuildingBlock: AJUNOK_clean_linker_0, # of connection points: 2
#     Edge 18, Type (0, 0), BuildingBlock: AJUNOK_clean_linker_0, # of connection points: 2
#     Edge 19, Type (0, 0), BuildingBlock: AJUNOK_clean_linker_0, # of connection points: 2
#     Edge 20, Type (0, 0), BuildingBlock: AJUNOK_clean_linker_0, # of connection points: 2
#     Edge 21, Type (0, 0), BuildingBlock: AJUNOK_clean_linker_0, # of connection points: 2
#     Edge 22, Type (0, 0), BuildingBlock: AJUNOK_clean_linker_0, # of connection points: 2
#     Edge 23, Type (0, 0), BuildingBlock: AJUNOK_clean_linker_0, # of connection points: 2
# Relax obj value: 0.265
# Max RMSD: 0.122
# Mean RMSD: 0.122
data_MOF--net-rac--node1-TATPOV_clean_sbu_0--edge1-AJUNOK_clean_linker_0
_symmetry_space_group_name_H-M    P1
_symmetry_Int_Tables_number       1
_symmetry_cell_setting            triclinic
loop_
_symmetry_equiv_pos_as_xyz
'x, y, z'
_cell_length_a     26.937178
_cell_length_b     15.437304
_cell_length_c     32.775323
_cell_angle_alpha  90.101225
_cell_angle_beta   90.37486
_cell_angle_gamma 90.304162
loop_
_atom_site_label
_atom_site_type_symbol
_atom_site_fract_x
_atom_site_fract_y
_atom_site_fract_z
_atom_type_partial_charge
Zn0 Zn 0.32382 0.38536 0.03744 0.0
Zn1 Zn 0.3473 0.33785 0.10747 0.0
O2 O 0.40848 0.38732 0.07581 0.0
O3 O 0.38964 0.39178 0.01069 0.0
O4 O 0.37504 0.28518 0.15897 0.0
O5 O 0.27182 0.29622 0.02494 0.0
O6 O 0.29312 0.25035 0.08592 0.0
C7 C 0.4207 0.40509 0.03914 0.0
C8 C 0.30014 0.5037 0.10475 0.0
O9 O 0.31137 0.44196 0.12838 0.0
O10 O 0.30396 0.49524 0.06644 0.0
C11 C 0.3947 0.3348 0.18566 0.0
O12 O 0.39905 0.41787 0.17768 0.0
C13 C 0.26538 0.24421 0.05419 0.0
Zn14 Zn 0.11027 0.82029 0.0212 0.0
Zn15 Zn 0.06347 0.82187 0.08661 0.0
O16 O 0.02822 0.72964 0.04913 0.0
O17 O 0.07112 0.7275 0.99248 0.0
O18 O 0.02269 0.83381 0.13767 0.0
O19 O 0.1098 0.9456 0.00664 0.0
O20 O 0.09179 0.94445 0.07173 0.0
C21 C 0.0367 0.69637 0.0141 0.0
C22 C 0.16411 0.75889 0.09325 0.0
O23 O 0.12226 0.76279 0.11041 0.0
O24 O 0.16872 0.78291 0.05648 0.0
C25 C 0.01413 0.76311 0.15637 0.0
O26 O 0.02471 0.69005 0.13782 0.0
C27 C 0.10865 0.98455 0.04061 0.0
Zn28 Zn 0.30227 0.12562 0.48551 0.0
Zn29 Zn 0.3422 0.19373 0.42291 0.0
O30 O 0.39646 0.14489 0.4623 0.0
O31 O 0.36183 0.12395 0.52192 0.0
O32 O 0.37656 0.25531 0.37679 0.0
O33 O 0.24645 0.21101 0.49046 0.0
O34 O 0.28428 0.27501 0.43946 0.0
C35 C 0.39983 0.12072 0.49953 0.0
C36 C 0.30149 0.02195 0.41046 0.0
O37 O 0.31423 0.09117 0.39271 0.0
O38 O 0.29565 0.02033 0.44878 0.0
C39 C 0.40093 0.20917 0.3518 0.0
O40 O 0.4097 0.12795 0.36116 0.0
C41 C 0.24857 0.27217 0.46492 0.0
Zn42 Zn 0.12385 0.71712 0.46844 0.0
Zn43 Zn 0.0772 0.71207 0.40289 0.0
O44 O 0.04515 0.81217 0.43677 0.0
O45 O 0.09245 0.8238 0.49125 0.0
O46 O 0.03566 0.69893 0.35173 0.0
O47 O 0.11033 0.59801 0.48916 0.0
O48 O 0.09561 0.58782 0.42347 0.0
C49 C 0.05739 0.85255 0.46946 0.0
C50 C 0.18212 0.75584 0.39644 0.0
O51 O 0.13994 0.7597 0.37919 0.0
O52 O 0.1852 0.73266 0.43346 0.0
C53 C 0.02655 0.76825 0.33216 0.0
O54 O 0.03927 0.84262 0.34889 0.0
C55 C 0.10688 0.55185 0.45739 0.0
Zn56 Zn 0.68518 0.64502 0.99278 0.0
Zn57 Zn 0.64812 0.70155 0.92583 0.0
O58 O 0.59278 0.65658 0.96456 0.0
O59 O 0.62349 0.63962 0.0262 0.0
O60 O 0.61378 0.7556 0.87763 0.0
O61 O 0.73914 0.73553 0.99789 0.0
O62 O 0.70648 0.78478 0.94093 0.0
C63 C 0.58699 0.63461 1.00182 0.0
C64 C 0.69158 0.53159 0.92052 0.0
O65 O 0.67665 0.59572 0.89993 0.0
O66 O 0.69677 0.53718 0.95891 0.0
C67 C 0.58496 0.7069 0.85683 0.0
O68 O 0.57454 0.62937 0.87095 0.0
C69 C 0.74004 0.78877 0.9686 0.0
Zn70 Zn 0.88535 0.22187 0.97661 0.0
Zn71 Zn 0.92263 0.21886 0.90759 0.0
O72 O 0.95941 0.31843 0.93957 0.0
O73 O 0.92365 0.32251 0.99946 0.0
O74 O 0.95727 0.20573 0.85353 0.0
O75 O 0.89373 0.09941 0.9943 0.0
O76 O 0.90196 0.09509 0.92789 0.0
C77 C 0.95392 0.35484 0.97432 0.0
C78 C 0.81934 0.26998 0.9094 0.0
O79 O 0.85865 0.26922 0.88848 0.0
O80 O 0.82084 0.24801 0.94666 0.0
C81 C 0.95923 0.27432 0.83205 0.0
O82 O 0.94532 0.34759 0.84879 0.0
C83 C 0.89165 0.05672 0.96136 0.0
Zn84 Zn 0.62513 0.74926 0.53067 0.0
Zn85 Zn 0.60215 0.74439 0.60377 0.0
O86 O 0.54977 0.82315 0.57499 0.0
O87 O 0.57183 0.82806 0.51075 0.0
O88 O 0.57603 0.72053 0.65997 0.0
O89 O 0.63079 0.62403 0.51679 0.0
O90 O 0.63354 0.62857 0.58355 0.0
C91 C 0.54383 0.85361 0.53908 0.0
C92 C 0.69502 0.82992 0.58868 0.0
O93 O 0.6615 0.81861 0.6151 0.0
O94 O 0.68847 0.8039 0.55232 0.0
C95 C 0.57173 0.78387 0.68454 0.0
O96 O 0.58079 0.86261 0.67125 0.0
C97 C 0.64295 0.589 0.55024 0.0
Zn98 Zn 0.86359 0.21365 0.51482 0.0
Zn99 Zn 0.89387 0.24557 0.58397 0.0
O100 O 0.94714 0.18666 0.54666 0.0
O101 O 0.92543 0.20208 0.48257 0.0
O102 O 0.92814 0.28658 0.63542 0.0
O103 O 0.81384 0.30702 0.50733 0.0
O104 O 0.83981 0.33803 0.56927 0.0
C105 C 0.95575 0.17343 0.50883 0.0
C106 C 0.83838 0.08886 0.5795 0.0
O107 O 0.85498 0.14485 0.60439 0.0
O108 O 0.84006 0.10225 0.54138 0.0
C109 C 0.95137 0.23077 0.65664 0.0
O110 O 0.95686 0.15243 0.64162 0.0
C111 C 0.81005 0.35184 0.53944 0.0
C112 C 0.19951 0.1641 0.01465 0.0
C113 C 0.22317 0.18146 0.05228 0.0
C114 C 0.15959 0.10561 0.01165 0.0
C115 C 0.14109 0.06231 0.0462 0.0
H116 H 0.2127 0.19427 0.98692 0.0
H117 H 0.14444 0.09162 0.98164 0.0
S118 S 0.1861 0.0925 0.15284 0.0
N119 N 0.22235 0.15602 0.12548 0.0
N120 N 0.1473 0.04668 0.12003 0.0
C121 C 0.16257 0.08288 0.08444 0.0
C122 C 0.20368 0.14184 0.0874 0.0
C123 C 0.16368 0.44774 0.42374 0.0
C124 C 0.13336 0.46792 0.45725 0.0
C125 C 0.20052 0.38424 0.42657 0.0
C126 C 0.20805 0.33705 0.46275 0.0
H127 H 0.16135 0.48523 0.39588 0.0
H128 H 0.22388 0.37324 0.4003 0.0
S129 S 0.13404 0.35711 0.55753 0.0
N130 N 0.11044 0.43076 0.5266 0.0
N131 N 0.17863 0.30928 0.53164 0.0
C132 C 0.17571 0.35241 0.4956 0.0
C133 C 0.13865 0.41823 0.4929 0.0
C134 C 0.80998 0.87445 1.00008 0.0
C135 C 0.78201 0.85139 0.96526 0.0
C136 C 0.84874 0.93543 0.99794 0.0
C137 C 0.86166 0.97526 0.96078 0.0
H138 H 0.80076 0.84753 0.0296 0.0
H139 H 0.86712 0.95455 0.02607 0.0
S140 S 0.80509 0.92646 0.85945 0.0
N141 N 0.77362 0.86556 0.89166 0.0
N142 N 0.84658 0.97911 0.88742 0.0
C143 C 0.83636 0.94769 0.92519 0.0
C144 C 0.79642 0.88647 0.9275 0.0
C145 C 0.69553 0.4833 0.51215 0.0
C146 C 0.68033 0.5181 0.54978 0.0
C147 C 0.73784 0.43129 0.50917 0.0
C148 C 0.76714 0.41159 0.54365 0.0
H149 H 0.67559 0.49871 0.4843 0.0
H150 H 0.7479 0.40713 0.47931 0.0
S151 S 0.74134 0.47945 0.6502 0.0
N152 N 0.69647 0.52391 0.62298 0.0
N153 N 0.77588 0.42619 0.61729 0.0
C154 C 0.75149 0.4432 0.58178 0.0
C155 C 0.70808 0.49593 0.58489 0.0
C156 C 0.40305 0.36004 0.26071 0.0
C157 C 0.40479 0.30244 0.22741 0.0
C158 C 0.40461 0.32974 0.30099 0.0
C159 C 0.40881 0.24079 0.30957 0.0
H160 H 0.39778 0.42876 0.25576 0.0
H161 H 0.40063 0.37618 0.32555 0.0
S162 S 0.42167 0.06448 0.23301 0.0
N163 N 0.41572 0.15336 0.20553 0.0
N164 N 0.4196 0.09619 0.2811 0.0
C165 C 0.41419 0.18313 0.27649 0.0
C166 C 0.41185 0.21398 0.23545 0.0
C167 C 0.01109 0.84294 0.26564 0.0
C168 C 0.01191 0.76549 0.28833 0.0
C169 C 0.00781 0.84201 0.22295 0.0
C170 C 0.00517 0.76355 0.20111 0.0
H171 H 0.01583 0.90499 0.28069 0.0
H172 H 0.01038 0.90323 0.20698 0.0
S173 S -0.00422 0.5435 0.24632 0.0
N174 N 0.00231 0.60874 0.28597 0.0
N175 N -0.0041 0.60686 0.20581 0.0
C176 C 0.00118 0.68604 0.22358 0.0
C177 C 0.00462 0.68702 0.26714 0.0
C178 C 0.58594 0.81205 0.7988 0.0
C179 C 0.57212 0.73031 0.8141 0.0
C180 C 0.58271 0.83064 0.75704 0.0
C181 C 0.56597 0.76797 0.72884 0.0
H182 H 0.60146 0.86105 0.81893 0.0
H183 H 0.59605 0.8931 0.74667 0.0
S184 S 0.51778 0.54884 0.7536 0.0
N185 N 0.53511 0.5898 0.79805 0.0
N186 N 0.52975 0.6247 0.71957 0.0
C187 C 0.54872 0.68822 0.74395 0.0
C188 C 0.55155 0.66946 0.78657 0.0
C189 C 0.97443 0.17786 0.72633 0.0
C190 C 0.96278 0.24764 0.70039 0.0
C191 C 0.97625 0.18817 0.76883 0.0
C192 C 0.96681 0.26883 0.78719 0.0
H193 H 0.97967 0.11343 0.71401 0.0
H194 H 0.98286 0.13138 0.78742 0.0
S195 S 0.9429 0.47549 0.73255 0.0
N196 N 0.9477 0.40255 0.69593 0.0
N197 N 0.95152 0.42234 0.77564 0.0
C198 C 0.95911 0.34071 0.76143 0.0
C199 C 0.95697 0.33002 0.71812 0.0
C200 C 0.47334 0.49032 0.9909 0.0
C201 C 0.46548 0.45903 0.03071 0.0
C202 C 0.51072 0.55093 0.9825 0.0
C203 C 0.5425 0.5828 0.0134 0.0
H204 H 0.44994 0.46884 0.96582 0.0
H205 H 0.5154 0.57113 0.95111 0.0
S206 S 0.53747 0.52337 0.12313 0.0
N207 N 0.49245 0.46598 0.10171 0.0
N208 N 0.56309 0.57924 0.0858 0.0
C209 C 0.53505 0.55255 0.05347 0.0
C210 C 0.49671 0.49075 0.0621 0.0
C211 C 0.98761 0.56281 0.03122 0.0
C212 C 0.01267 0.61281 1.00187 0.0
C213 C 0.97035 0.47888 0.02233 0.0
C214 C 0.97717 0.44077 0.98363 0.0
H215 H 0.98219 0.58773 0.06177 0.0
H216 H 0.95127 0.44374 0.04618 0.0
S217 S 0.03824 0.54571 0.89507 0.0
N218 N 0.04199 0.61878 0.93182 0.0
N219 N 0.00947 0.46149 0.91516 0.0
C220 C 0.00162 0.49042 0.95376 0.0
C221 C 0.01922 0.57614 0.96281 0.0
C222 C 0.50516 0.96085 0.49143 0.0
C223 C 0.50816 0.92506 0.5309 0.0
C224 C 0.47307 0.0294 0.48247 0.0
C225 C 0.44208 0.06516 0.51246 0.0
H226 H 0.52733 0.93505 0.46683 0.0
H227 H 0.47093 0.05145 0.45115 0.0
S228 S 0.43941 0.00206 0.62179 0.0
N229 N 0.48023 0.93598 0.6012 0.0
N230 N 0.41953 0.06434 0.58425 0.0
C231 C 0.44635 0.03295 0.55256 0.0
C232 C 0.47926 0.963 0.56176 0.0
C233 C 0.98219 0.05956 0.4592 0.0
C234 C -0.01033 0.10192 0.49694 0.0
C235 C 0.00373 0.97899 0.4509 0.0
C236 C 0.03426 0.93732 0.47972 0.0
H237 H 0.95737 0.08648 0.43645 0.0
H238 H -0.00413 0.94885 0.42167 0.0
S239 S 0.07064 0.02535 0.58139 0.0
N240 N 0.03324 0.09927 0.56208 0.0
N241 N 0.0742 0.94846 0.54648 0.0
C242 C 0.0443 0.98109 0.51675 0.0
C243 C 0.02208 0.06315 0.52528 0.0
C244 C 0.25324 0.72528 0.0969 0.0
C245 C 0.20544 0.71326 0.1128 0.0
C246 C 0.28853 0.66017 0.10038 0.0
C247 C 0.27674 0.58209 0.11996 0.0
H248 H 0.26149 0.78036 0.07758 0.0
H249 H 0.32268 0.66644 0.08329 0.0
S250 S 0.16319 0.53234 0.17846 0.0
N251 N 0.15279 0.62832 0.15802 0.0
N252 N 0.21974 0.50503 0.16427 0.0
C253 C 0.23284 0.57629 0.14247 0.0
C254 C 0.19671 0.64271 0.13894 0.0
C255 C 0.24662 0.94933 0.36091 0.0
C256 C 0.28778 0.94493 0.3872 0.0
C257 C 0.21536 0.87729 0.35632 0.0
C258 C 0.22479 0.80115 0.37861 0.0
H259 H 0.23438 0.01123 0.3491 0.0
H260 H 0.17995 0.88656 0.3411 0.0
S261 S 0.33954 0.74916 0.43592 0.0
N262 N 0.3452 0.85273 0.42412 0.0
N263 N 0.28654 0.71662 0.41521 0.0
C264 C 0.27173 0.79095 0.39669 0.0
C265 C 0.30329 0.86401 0.40146 0.0
C266 C 0.69807 0.37365 0.9201 0.0
C267 C 0.70817 0.45252 0.90061 0.0
C268 C 0.73092 0.30475 0.91665 0.0
C269 C 0.7749 0.31446 0.89429 0.0
H270 H 0.66838 0.36901 0.94218 0.0
H271 H 0.72547 0.24899 0.93619 0.0
S272 S 0.807 0.49651 0.82554 0.0
N273 N 0.75604 0.52792 0.849 0.0
N274 N 0.81857 0.3979 0.84248 0.0
C275 C 0.77957 0.38599 0.86802 0.0
C276 C 0.74582 0.45608 0.8714 0.0
C277 C 0.781 0.87107 0.57263 0.0
C278 C 0.73959 0.88101 0.59799 0.0
C279 C 0.81699 0.93568 0.57039 0.0
C280 C 0.81272 0.01141 0.59371 0.0
H281 H 0.78335 0.81683 0.5517 0.0
H282 H 0.84585 0.92983 0.54766 0.0
S283 S 0.71847 0.05799 0.67234 0.0
N284 N 0.70142 0.9637 0.6527 0.0
N285 N 0.76998 0.08591 0.64852 0.0
C286 C 0.7757 0.01646 0.62348 0.0
C287 C 0.73869 0.95059 0.62566 0.0
loop_
_geom_bond_atom_site_label_1
_geom_bond_atom_site_label_2
_geom_bond_distance
_geom_bond_site_symmetry_2
_ccdc_geom_bond_type
Zn0 O3 2.031 1_556 S
Zn0 O5 2.049 . S
Zn0 O10 2.067 1_556 S
Zn1 O2 1.962 . S
Zn1 O4 1.986 . S
Zn1 O6 1.996 . S
Zn1 O9 1.943 . S
O2 Zn1 1.962 . S
O2 C7 1.254 . S
O3 Zn0 2.031 1_554 S
O3 C7 1.269 . S
O4 Zn1 1.986 . S
O4 C11 1.262 . S
O5 Zn0 2.049 . S
O5 C13 1.260 1_556 S
O6 Zn1 1.996 . S
O6 C13 1.257 . S
C7 O2 1.254 . S
C7 O3 1.269 . S
C8 O9 1.249 . S
C8 O10 1.270 . S
O9 Zn1 1.943 . S
O9 C8 1.249 . S
O10 Zn0 2.067 1_554 S
O10 C8 1.270 . S
C11 O4 1.262 . S
C11 O12 1.232 . S
O12 C11 1.232 . S
C13 O5 1.260 1_554 S
C13 O6 1.257 . S
Zn14 O17 2.031 1_556 S
Zn14 O19 2.049 . S
Zn14 O24 2.067 1_556 S
Zn15 O16 1.962 . S
Zn15 O18 1.986 . S
Zn15 O20 1.996 . S
Zn15 O23 1.943 . S
O16 Zn15 1.962 . S
O16 C21 1.254 . S
O17 Zn14 2.031 1_554 S
O17 C21 1.269 . S
O18 Zn15 1.986 . S
O18 C25 1.262 . S
O19 Zn14 2.049 . S
O19 C27 1.260 1_556 S
O20 Zn15 1.996 . S
O20 C27 1.257 . S
C21 O16 1.254 . S
C21 O17 1.269 . S
C22 O23 1.249 . S
C22 O24 1.270 . S
O23 Zn15 1.943 . S
O23 C22 1.249 . S
O24 Zn14 2.067 1_554 S
O24 C22 1.270 . S
C25 O18 1.262 . S
C25 O26 1.232 . S
O26 C25 1.232 . S
C27 O19 1.260 1_554 S
C27 O20 1.257 . S
Zn28 O31 2.031 . S
Zn28 O33 2.049 . S
Zn28 O38 2.067 . S
Zn29 O30 1.962 . S
Zn29 O32 1.986 . S
Zn29 O34 1.996 . S
Zn29 O37 1.943 . S
O30 Zn29 1.962 . S
O30 C35 1.254 . S
O31 Zn28 2.031 . S
O31 C35 1.269 . S
O32 Zn29 1.986 . S
O32 C39 1.262 . S
O33 Zn28 2.049 . S
O33 C41 1.260 . S
O34 Zn29 1.996 . S
O34 C41 1.257 . S
C35 O30 1.254 . S
C35 O31 1.269 . S
C36 O37 1.249 . S
C36 O38 1.270 . S
O37 Zn29 1.943 . S
O37 C36 1.249 . S
O38 Zn28 2.067 . S
O38 C36 1.270 . S
C39 O32 1.262 . S
C39 O40 1.232 . S
O40 C39 1.232 . S
C41 O33 1.260 . S
C41 O34 1.257 . S
Zn42 O45 2.031 . S
Zn42 O47 2.049 . S
Zn42 O52 2.067 . S
Zn43 O44 1.962 . S
Zn43 O46 1.986 . S
Zn43 O48 1.996 . S
Zn43 O51 1.943 . S
O44 Zn43 1.962 . S
O44 C49 1.254 . S
O45 Zn42 2.031 . S
O45 C49 1.269 . S
O46 Zn43 1.986 . S
O46 C53 1.262 . S
O47 Zn42 2.049 . S
O47 C55 1.260 . S
O48 Zn43 1.996 . S
O48 C55 1.257 . S
C49 O44 1.254 . S
C49 O45 1.269 . S
C50 O51 1.249 . S
C50 O52 1.270 . S
O51 Zn43 1.943 . S
O51 C50 1.249 . S
O52 Zn42 2.067 . S
O52 C50 1.270 . S
C53 O46 1.262 . S
C53 O54 1.232 . S
O54 C53 1.232 . S
C55 O47 1.260 . S
C55 O48 1.257 . S
Zn56 O59 2.031 1_554 S
Zn56 O61 2.049 . S
Zn56 O66 2.067 1_554 S
Zn57 O58 1.962 . S
Zn57 O60 1.986 . S
Zn57 O62 1.996 . S
Zn57 O65 1.943 . S
O58 Zn57 1.962 . S
O58 C63 1.254 . S
O59 Zn56 2.031 1_556 S
O59 C63 1.269 . S
O60 Zn57 1.986 . S
O60 C67 1.262 . S
O61 Zn56 2.049 . S
O61 C69 1.260 1_554 S
O62 Zn57 1.996 . S
O62 C69 1.257 . S
C63 O58 1.254 . S
C63 O59 1.269 . S
C64 O65 1.249 . S
C64 O66 1.270 . S
O65 Zn57 1.943 . S
O65 C64 1.249 . S
O66 Zn56 2.067 1_556 S
O66 C64 1.270 . S
C67 O60 1.262 . S
C67 O68 1.232 . S
O68 C67 1.232 . S
C69 O61 1.260 1_556 S
C69 O62 1.257 . S
Zn70 O73 2.031 1_554 S
Zn70 O75 2.049 . S
Zn70 O80 2.067 1_554 S
Zn71 O72 1.962 . S
Zn71 O74 1.986 . S
Zn71 O76 1.996 . S
Zn71 O79 1.943 . S
O72 Zn71 1.962 . S
O72 C77 1.254 . S
O73 Zn70 2.031 1_556 S
O73 C77 1.269 . S
O74 Zn71 1.986 . S
O74 C81 1.262 . S
O75 Zn70 2.049 . S
O75 C83 1.260 1_554 S
O76 Zn71 1.996 . S
O76 C83 1.257 . S
C77 O72 1.254 . S
C77 O73 1.269 . S
C78 O79 1.249 . S
C78 O80 1.270 . S
O79 Zn71 1.943 . S
O79 C78 1.249 . S
O80 Zn70 2.067 1_556 S
O80 C78 1.270 . S
C81 O74 1.262 . S
C81 O82 1.232 . S
O82 C81 1.232 . S
C83 O75 1.260 1_556 S
C83 O76 1.257 . S
Zn84 O87 2.031 . S
Zn84 O89 2.049 . S
Zn84 O94 2.067 . S
Zn85 O86 1.962 . S
Zn85 O88 1.986 . S
Zn85 O90 1.996 . S
Zn85 O93 1.943 . S
O86 Zn85 1.962 . S
O86 C91 1.254 . S
O87 Zn84 2.031 . S
O87 C91 1.269 . S
O88 Zn85 1.986 . S
O88 C95 1.262 . S
O89 Zn84 2.049 . S
O89 C97 1.260 . S
O90 Zn85 1.996 . S
O90 C97 1.257 . S
C91 O86 1.254 . S
C91 O87 1.269 . S
C92 O93 1.249 . S
C92 O94 1.270 . S
O93 Zn85 1.943 . S
O93 C92 1.249 . S
O94 Zn84 2.067 . S
O94 C92 1.270 . S
C95 O88 1.262 . S
C95 O96 1.232 . S
O96 C95 1.232 . S
C97 O89 1.260 . S
C97 O90 1.257 . S
Zn98 O101 2.031 . S
Zn98 O103 2.049 . S
Zn98 O108 2.067 . S
Zn99 O100 1.962 . S
Zn99 O102 1.986 . S
Zn99 O104 1.996 . S
Zn99 O107 1.943 . S
O100 Zn99 1.962 . S
O100 C105 1.254 . S
O101 Zn98 2.031 . S
O101 C105 1.269 . S
O102 Zn99 1.986 . S
O102 C109 1.262 . S
O103 Zn98 2.049 . S
O103 C111 1.260 . S
O104 Zn99 1.996 . S
O104 C111 1.257 . S
C105 O100 1.254 . S
C105 O101 1.269 . S
C106 O107 1.249 . S
C106 O108 1.270 . S
O107 Zn99 1.943 . S
O107 C106 1.249 . S
O108 Zn98 2.067 . S
O108 C106 1.270 . S
C109 O102 1.262 . S
C109 O110 1.232 . S
O110 C109 1.232 . S
C111 O103 1.260 . S
C111 O104 1.257 . S
C112 C113 1.369 . S
C112 C114 1.419 . S
C112 H116 0.930 . S
C113 C112 1.369 . S
C113 C122 1.429 1_545 S
C114 C112 1.419 . S
C114 C115 1.363 1_545 S
C114 H117 0.929 . S
C115 C114 1.363 1_565 S
C115 C121 1.428 . S
H116 C112 0.930 . S
H117 C114 0.929 . S
S118 N119 1.613 . S
S118 N120 1.610 . S
N119 S118 1.613 . S
N119 C122 1.350 . S
N120 S118 1.610 . S
N120 C121 1.351 . S
C121 C115 1.428 . S
C121 N120 1.351 . S
C121 C122 1.434 . S
C122 C113 1.429 1_565 S
C122 N119 1.350 . S
C122 C121 1.434 . S
C123 C124 1.369 . S
C123 C125 1.419 . S
C123 H127 0.930 . S
C124 C123 1.369 . S
C124 C133 1.429 . S
C125 C123 1.419 . S
C125 C126 1.363 . S
C125 H128 0.929 . S
C126 C125 1.363 . S
C126 C132 1.428 . S
H127 C123 0.930 . S
H128 C125 0.929 . S
S129 N130 1.613 . S
S129 N131 1.610 . S
N130 S129 1.613 . S
N130 C133 1.350 . S
N131 S129 1.610 . S
N131 C132 1.351 . S
C132 C126 1.428 . S
C132 N131 1.351 . S
C132 C133 1.434 . S
C133 C124 1.429 . S
C133 N130 1.350 . S
C133 C132 1.434 . S
C134 C135 1.369 1_545 S
C134 C136 1.419 . S
C134 H138 0.930 . S
C135 C134 1.369 1_565 S
C135 C144 1.429 . S
C136 C134 1.419 . S
C136 C137 1.363 . S
C136 H139 0.929 . S
C137 C136 1.363 . S
C137 C143 1.428 1_545 S
H138 C134 0.930 . S
H139 C136 0.929 . S
S140 N141 1.613 . S
S140 N142 1.610 . S
N141 S140 1.613 . S
N141 C144 1.350 . S
N142 S140 1.610 . S
N142 C143 1.351 . S
C143 C137 1.428 1_565 S
C143 N142 1.351 . S
C143 C144 1.434 . S
C144 C135 1.429 . S
C144 N141 1.350 . S
C144 C143 1.434 . S
C145 C146 1.369 . S
C145 C147 1.419 . S
C145 H149 0.930 . S
C146 C145 1.369 . S
C146 C155 1.429 . S
C147 C145 1.419 . S
C147 C148 1.363 . S
C147 H150 0.929 . S
C148 C147 1.363 . S
C148 C154 1.428 . S
H149 C145 0.930 . S
H150 C147 0.929 . S
S151 N152 1.613 . S
S151 N153 1.610 . S
N152 S151 1.613 . S
N152 C155 1.350 . S
N153 S151 1.610 . S
N153 C154 1.351 . S
C154 C148 1.428 . S
C154 N153 1.351 . S
C154 C155 1.434 . S
C155 C146 1.429 . S
C155 N152 1.350 . S
C155 C154 1.434 . S
C156 C157 1.369 . S
C156 C158 1.419 . S
C156 H160 0.930 . S
C157 C156 1.369 . S
C157 C166 1.429 . S
C158 C156 1.419 . S
C158 C159 1.363 . S
C158 H161 0.929 . S
C159 C158 1.363 . S
C159 C165 1.428 . S
H160 C156 0.930 . S
H161 C158 0.929 . S
S162 N163 1.613 . S
S162 N164 1.610 . S
N163 S162 1.613 . S
N163 C166 1.350 . S
N164 S162 1.610 . S
N164 C165 1.351 . S
C165 C159 1.428 . S
C165 N164 1.351 . S
C165 C166 1.434 . S
C166 C157 1.429 . S
C166 N163 1.350 . S
C166 C165 1.434 . S
C167 C168 1.369 . S
C167 C169 1.419 . S
C167 H171 0.930 . S
C168 C167 1.369 . S
C168 C177 1.429 . S
C169 C167 1.419 . S
C169 C170 1.363 . S
C169 H172 0.929 . S
C170 C169 1.363 . S
C170 C176 1.428 . S
H171 C167 0.930 . S
H172 C169 0.929 . S
S173 N174 1.613 . S
S173 N175 1.610 . S
N174 S173 1.613 . S
N174 C177 1.350 . S
N175 S173 1.610 . S
N175 C176 1.351 . S
C176 C170 1.428 . S
C176 N175 1.351 . S
C176 C177 1.434 . S
C177 C168 1.429 . S
C177 N174 1.350 . S
C177 C176 1.434 . S
C178 C179 1.369 . S
C178 C180 1.419 . S
C178 H182 0.930 . S
C179 C178 1.369 . S
C179 C188 1.429 . S
C180 C178 1.419 . S
C180 C181 1.363 . S
C180 H183 0.929 . S
C181 C180 1.363 . S
C181 C187 1.428 . S
H182 C178 0.930 . S
H183 C180 0.929 . S
S184 N185 1.613 . S
S184 N186 1.610 . S
N185 S184 1.613 . S
N185 C188 1.350 . S
N186 S184 1.610 . S
N186 C187 1.351 . S
C187 C181 1.428 . S
C187 N186 1.351 . S
C187 C188 1.434 . S
C188 C179 1.429 . S
C188 N185 1.350 . S
C188 C187 1.434 . S
C189 C190 1.369 . S
C189 C191 1.419 . S
C189 H193 0.930 . S
C190 C189 1.369 . S
C190 C199 1.429 . S
C191 C189 1.419 . S
C191 C192 1.363 . S
C191 H194 0.929 . S
C192 C191 1.363 . S
C192 C198 1.428 . S
H193 C189 0.930 . S
H194 C191 0.929 . S
S195 N196 1.613 . S
S195 N197 1.610 . S
N196 S195 1.613 . S
N196 C199 1.350 . S
N197 S195 1.610 . S
N197 C198 1.351 . S
C198 C192 1.428 . S
C198 N197 1.351 . S
C198 C199 1.434 . S
C199 C190 1.429 . S
C199 N196 1.350 . S
C199 C198 1.434 . S
C200 C201 1.369 1_556 S
C200 C202 1.419 . S
C200 H204 0.930 . S
C201 C200 1.369 1_554 S
C201 C210 1.429 . S
C202 C200 1.419 . S
C202 C203 1.363 . S
C202 H205 0.929 . S
C203 C202 1.363 . S
C203 C209 1.428 1_556 S
H204 C200 0.930 . S
H205 C202 0.929 . S
S206 N207 1.613 . S
S206 N208 1.610 . S
N207 S206 1.613 . S
N207 C210 1.350 . S
N208 S206 1.610 . S
N208 C209 1.351 . S
C209 C203 1.428 1_554 S
C209 N208 1.351 . S
C209 C210 1.434 . S
C210 C201 1.429 . S
C210 N207 1.350 . S
C210 C209 1.434 . S
C211 C212 1.369 . S
C211 C213 1.419 1_455 S
C211 H215 0.930 . S
C212 C211 1.369 . S
C212 C221 1.429 1_454 S
C213 C211 1.419 1_655 S
C213 C214 1.363 1_554 S
C213 H216 0.929 1_655 S
C214 C213 1.363 1_556 S
C214 C220 1.428 . S
H215 C211 0.930 . S
H216 C213 0.929 1_455 S
S217 N218 1.613 . S
S217 N219 1.610 . S
N218 S217 1.613 . S
N218 C221 1.350 . S
N219 S217 1.610 . S
N219 C220 1.351 . S
C220 C214 1.428 . S
C220 N219 1.351 . S
C220 C221 1.434 . S
C221 C212 1.429 1_656 S
C221 N218 1.350 . S
C221 C220 1.434 . S
C222 C223 1.369 . S
C222 C224 1.419 1_565 S
C222 H226 0.930 . S
C223 C222 1.369 . S
C223 C232 1.429 . S
C224 C222 1.419 1_545 S
C224 C225 1.363 . S
C224 H227 0.929 . S
C225 C224 1.363 . S
C225 C231 1.428 . S
H226 C222 0.930 . S
H227 C224 0.929 . S
S228 N229 1.613 1_545 S
S228 N230 1.610 . S
N229 S228 1.613 1_565 S
N229 C232 1.350 . S
N230 S228 1.610 . S
N230 C231 1.351 . S
C231 C225 1.428 . S
C231 N230 1.351 . S
C231 C232 1.434 1_545 S
C232 C223 1.429 . S
C232 N229 1.350 . S
C232 C231 1.434 1_565 S
C233 C234 1.369 1_455 S
C233 C235 1.419 1_545 S
C233 H237 0.930 . S
C234 C233 1.369 1_655 S
C234 C243 1.429 . S
C235 C233 1.419 1_565 S
C235 C236 1.363 . S
C235 H238 0.929 . S
C236 C235 1.363 . S
C236 C242 1.428 1_455 S
H237 C233 0.930 . S
H238 C235 0.929 . S
S239 N240 1.613 1_565 S
S239 N241 1.610 . S
N240 S239 1.613 1_545 S
N240 C243 1.350 . S
N241 S239 1.610 . S
N241 C242 1.351 . S
C242 C236 1.428 1_655 S
C242 N241 1.351 . S
C242 C243 1.434 1_565 S
C243 C234 1.429 . S
C243 N240 1.350 . S
C243 C242 1.434 1_545 S
C244 C245 1.369 . S
C244 C246 1.419 . S
C244 H248 0.930 . S
C245 C244 1.369 . S
C245 C254 1.429 . S
C246 C244 1.419 . S
C246 C247 1.363 . S
C246 H249 0.929 . S
C247 C246 1.363 . S
C247 C253 1.428 . S
H248 C244 0.930 . S
H249 C246 0.929 . S
S250 N251 1.613 . S
S250 N252 1.610 . S
N251 S250 1.613 . S
N251 C254 1.350 . S
N252 S250 1.610 . S
N252 C253 1.351 . S
C253 C247 1.428 . S
C253 N252 1.351 . S
C253 C254 1.434 . S
C254 C245 1.429 . S
C254 N251 1.350 . S
C254 C253 1.434 . S
C255 C256 1.369 . S
C255 C257 1.419 . S
C255 H259 0.930 . S
C256 C255 1.369 . S
C256 C265 1.429 1_545 S
C257 C255 1.419 . S
C257 C258 1.363 1_545 S
C257 H260 0.929 . S
C258 C257 1.363 1_565 S
C258 C264 1.428 . S
H259 C255 0.930 . S
H260 C257 0.929 . S
S261 N262 1.613 . S
S261 N263 1.610 . S
N262 S261 1.613 . S
N262 C265 1.350 . S
N263 S261 1.610 . S
N263 C264 1.351 . S
C264 C258 1.428 . S
C264 N263 1.351 . S
C264 C265 1.434 . S
C265 C256 1.429 1_565 S
C265 N262 1.350 . S
C265 C264 1.434 . S
C266 C267 1.369 . S
C266 C268 1.419 . S
C266 H270 0.930 1_556 S
C267 C266 1.369 . S
C267 C276 1.429 . S
C268 C266 1.419 . S
C268 C269 1.363 . S
C268 H271 0.929 1_556 S
C269 C268 1.363 . S
C269 C275 1.428 . S
H270 C266 0.930 1_554 S
H271 C268 0.929 1_554 S
S272 N273 1.613 . S
S272 N274 1.610 . S
N273 S272 1.613 . S
N273 C276 1.350 . S
N274 S272 1.610 . S
N274 C275 1.351 . S
C275 C269 1.428 . S
C275 N274 1.351 . S
C275 C276 1.434 . S
C276 C267 1.429 . S
C276 N273 1.350 . S
C276 C275 1.434 . S
C277 C278 1.369 . S
C277 C279 1.419 1_565 S
C277 H281 0.930 . S
C278 C277 1.369 . S
C278 C287 1.429 . S
C279 C277 1.419 1_545 S
C279 C280 1.363 . S
C279 H282 0.929 . S
C280 C279 1.363 . S
C280 C286 1.428 . S
H281 C277 0.930 . S
H282 C279 0.929 . S
S283 N284 1.613 1_545 S
S283 N285 1.610 . S
N284 S283 1.613 1_565 S
N284 C287 1.350 . S
N285 S283 1.610 . S
N285 C286 1.351 . S
C286 C280 1.428 . S
C286 N285 1.351 . S
C286 C287 1.434 1_545 S
C287 C278 1.429 . S
C287 N284 1.350 . S
C287 C286 1.434 1_565 S
C113 C13 1.460 . S
C115 C27 1.452 . S
C124 C55 1.458 . S
C126 C41 1.450 . S
C135 C69 1.449 . S
C137 C83 1.458 . S
C146 C97 1.451 . S
C148 C111 1.460 . S
C157 C11 1.581 . S
C159 C39 1.578 . S
C168 C53 1.579 . S
C170 C25 1.579 . S
C179 C67 1.578 . S
C181 C95 1.580 . S
C190 C109 1.581 . S
C192 C81 1.578 . S
C201 C7 1.583 . S
C203 C63 1.584 . S
C212 C21 1.588 . S
C214 C77 1.580 . S
C223 C91 1.582 . S
C225 C35 1.585 . S
C234 C105 1.579 . S
C236 C49 1.587 . S
C245 C22 1.126 . S
C247 C8 1.122 . S
C256 C36 1.126 . S
C258 C50 1.120 . S
C267 C64 1.125 . S
C269 C78 1.124 . S
C278 C92 1.126 . S
C280 C106 1.122 . S
