# Generated by pormake.
# Topology unr, (4)-cn, num edge types: 1
# Building blocks:
#     Node 0, Type 0, BuildingBlock: GALJAG_clean_sbu_0, # of connection points: 4
#     Node 1, Type 0, BuildingBlock: GALJAG_clean_sbu_0, # of connection points: 4
#     Node 2, Type 0, BuildingBlock: GALJAG_clean_sbu_0, # of connection points: 4
#     Node 3, Type 0, BuildingBlock: GALJAG_clean_sbu_0, # of connection points: 4
#     Node 4, Type 0, BuildingBlock: GALJAG_clean_sbu_0, # of connection points: 4
#     Node 5, Type 0, BuildingBlock: GALJAG_clean_sbu_0, # of connection points: 4
#     Node 6, Type 0, BuildingBlock: GALJAG_clean_sbu_0, # of connection points: 4
#     Node 7, Type 0, BuildingBlock: GALJAG_clean_sbu_0, # of connection points: 4
#     Node 8, Type 0, BuildingBlock: GALJAG_clean_sbu_0, # of connection points: 4
#     Node 9, Type 0, BuildingBlock: GALJAG_clean_sbu_0, # of connection points: 4
#     Node 10, Type 0, BuildingBlock: GALJAG_clean_sbu_0, # of connection points: 4
#     Node 11, Type 0, BuildingBlock: GALJAG_clean_sbu_0, # of connection points: 4
#     Node 12, Type 0, BuildingBlock: GALJAG_clean_sbu_0, # of connection points: 4
#     Node 13, Type 0, BuildingBlock: GALJAG_clean_sbu_0, # of connection points: 4
#     Node 14, Type 0, BuildingBlock: GALJAG_clean_sbu_0, # of connection points: 4
#     Node 15, Type 0, BuildingBlock: GALJAG_clean_sbu_0, # of connection points: 4
#     Node 16, Type 0, BuildingBlock: GALJAG_clean_sbu_0, # of connection points: 4
#     Node 17, Type 0, BuildingBlock: GALJAG_clean_sbu_0, # of connection points: 4
#     Node 18, Type 0, BuildingBlock: GALJAG_clean_sbu_0, # of connection points: 4
#     Node 19, Type 0, BuildingBlock: GALJAG_clean_sbu_0, # of connection points: 4
#     Node 20, Type 0, BuildingBlock: GALJAG_clean_sbu_0, # of connection points: 4
#     Node 21, Type 0, BuildingBlock: GALJAG_clean_sbu_0, # of connection points: 4
#     Node 22, Type 0, BuildingBlock: GALJAG_clean_sbu_0, # of connection points: 4
#     Node 23, Type 0, BuildingBlock: GALJAG_clean_sbu_0, # of connection points: 4
#     Node 24, Type 0, BuildingBlock: GALJAG_clean_sbu_0, # of connection points: 4
#     Node 25, Type 0, BuildingBlock: GALJAG_clean_sbu_0, # of connection points: 4
#     Node 26, Type 0, BuildingBlock: GALJAG_clean_sbu_0, # of connection points: 4
#     Node 27, Type 0, BuildingBlock: GALJAG_clean_sbu_0, # of connection points: 4
#     Node 28, Type 0, BuildingBlock: GALJAG_clean_sbu_0, # of connection points: 4
#     Node 29, Type 0, BuildingBlock: GALJAG_clean_sbu_0, # of connection points: 4
#     Node 30, Type 0, BuildingBlock: GALJAG_clean_sbu_0, # of connection points: 4
#     Node 31, Type 0, BuildingBlock: GALJAG_clean_sbu_0, # of connection points: 4
#     Node 32, Type 0, BuildingBlock: GALJAG_clean_sbu_0, # of connection points: 4
#     Node 33, Type 0, BuildingBlock: GALJAG_clean_sbu_0, # of connection points: 4
#     Node 34, Type 0, BuildingBlock: GALJAG_clean_sbu_0, # of connection points: 4
#     Node 35, Type 0, BuildingBlock: GALJAG_clean_sbu_0, # of connection points: 4
#     Edge 36, Type (0, 0), None
#     Edge 37, Type (0, 0), None
#     Edge 38, Type (0, 0), None
#     Edge 39, Type (0, 0), None
#     Edge 40, Type (0, 0), None
#     Edge 41, Type (0, 0), None
#     Edge 42, Type (0, 0), None
#     Edge 43, Type (0, 0), None
#     Edge 44, Type (0, 0), None
#     Edge 45, Type (0, 0), None
#     Edge 46, Type (0, 0), None
#     Edge 47, Type (0, 0), None
#     Edge 48, Type (0, 0), None
#     Edge 49, Type (0, 0), None
#     Edge 50, Type (0, 0), None
#     Edge 51, Type (0, 0), None
#     Edge 52, Type (0, 0), None
#     Edge 53, Type (0, 0), None
#     Edge 54, Type (0, 0), None
#     Edge 55, Type (0, 0), None
#     Edge 56, Type (0, 0), None
#     Edge 57, Type (0, 0), None
#     Edge 58, Type (0, 0), None
#     Edge 59, Type (0, 0), None
#     Edge 60, Type (0, 0), None
#     Edge 61, Type (0, 0), None
#     Edge 62, Type (0, 0), None
#     Edge 63, Type (0, 0), None
#     Edge 64, Type (0, 0), None
#     Edge 65, Type (0, 0), None
#     Edge 66, Type (0, 0), None
#     Edge 67, Type (0, 0), None
#     Edge 68, Type (0, 0), None
#     Edge 69, Type (0, 0), None
#     Edge 70, Type (0, 0), None
#     Edge 71, Type (0, 0), None
#     Edge 72, Type (0, 0), None
#     Edge 73, Type (0, 0), None
#     Edge 74, Type (0, 0), None
#     Edge 75, Type (0, 0), None
#     Edge 76, Type (0, 0), None
#     Edge 77, Type (0, 0), None
#     Edge 78, Type (0, 0), None
#     Edge 79, Type (0, 0), None
#     Edge 80, Type (0, 0), None
#     Edge 81, Type (0, 0), None
#     Edge 82, Type (0, 0), None
#     Edge 83, Type (0, 0), None
#     Edge 84, Type (0, 0), None
#     Edge 85, Type (0, 0), None
#     Edge 86, Type (0, 0), None
#     Edge 87, Type (0, 0), None
#     Edge 88, Type (0, 0), None
#     Edge 89, Type (0, 0), None
#     Edge 90, Type (0, 0), None
#     Edge 91, Type (0, 0), None
#     Edge 92, Type (0, 0), None
#     Edge 93, Type (0, 0), None
#     Edge 94, Type (0, 0), None
#     Edge 95, Type (0, 0), None
#     Edge 96, Type (0, 0), None
#     Edge 97, Type (0, 0), None
#     Edge 98, Type (0, 0), None
#     Edge 99, Type (0, 0), None
#     Edge 100, Type (0, 0), None
#     Edge 101, Type (0, 0), None
#     Edge 102, Type (0, 0), None
#     Edge 103, Type (0, 0), None
#     Edge 104, Type (0, 0), None
#     Edge 105, Type (0, 0), None
#     Edge 106, Type (0, 0), None
#     Edge 107, Type (0, 0), None
# Relax obj value: 0.387
# Max RMSD: 0.141
# Mean RMSD: 0.141
data_MOF--net-unr--node1-GALJAG_clean_sbu_0--edge1-none
_symmetry_space_group_name_H-M    P1
_symmetry_Int_Tables_number       1
_symmetry_cell_setting            triclinic
loop_
_symmetry_equiv_pos_as_xyz
'x, y, z'
_cell_length_a     23.001765
_cell_length_b     23.002418
_cell_length_c     37.082024
_cell_angle_alpha  89.985947
_cell_angle_beta   90.01361
_cell_angle_gamma 119.99888
loop_
_atom_site_label
_atom_site_type_symbol
_atom_site_fract_x
_atom_site_fract_y
_atom_site_fract_z
_atom_type_partial_charge
In0 In 0.14015 0.03996 0.18593 0.0
O1 O 0.23816 0.09748 0.1562 0.0
O2 O 0.23442 0.03576 0.20007 0.0
C3 C 0.09696 0.12197 0.16159 0.0
C4 C 0.11249 0.05985 0.25327 0.0
C5 C 0.05622 0.91261 0.16523 0.0
O6 O 0.08817 0.07103 0.14422 0.0
O7 O 0.13727 0.13735 0.18754 0.0
O8 O 0.08287 0.92763 0.19611 0.0
O9 O 0.07767 0.96138 0.14369 0.0
C10 C 0.26939 0.07851 0.1766 0.0
O11 O 0.06599 0.02553 0.23125 0.0
O12 O 0.17106 0.07908 0.24214 0.0
In13 In 0.91331 0.09059 0.18583 0.0
O14 O 0.85575 0.13106 0.15611 0.0
O15 O 0.91758 0.18909 0.19992 0.0
C16 C 0.83124 0.96536 0.16157 0.0
C17 C 0.89351 0.04314 0.25319 0.0
C18 C 0.0406 0.13395 0.16511 0.0
O19 O 0.88217 0.00749 0.14416 0.0
O20 O 0.81591 -0.00966 0.1875 0.0
O21 O 0.02565 0.14565 0.19598 0.0
O22 O -0.00818 0.1066 0.14356 0.0
C23 C 0.87477 0.18128 0.17648 0.0
O24 O 0.92778 0.03091 0.23118 0.0
O25 O 0.87428 0.08248 0.24204 0.0
In26 In 0.86263 0.81315 0.18592 0.0
O27 O 0.9223 0.88736 0.23123 0.0
O28 O 0.87064 0.78231 0.24218 0.0
C29 C 0.81923 0.89702 0.16512 0.0
C30 C 0.77202 0.6839 0.17658 0.0
C31 C -0.01216 0.85631 0.16173 0.0
O32 O 0.80751 0.87038 0.196 0.0
O33 O 0.84662 0.8756 0.1436 0.0
O34 O 0.94576 0.86511 0.14427 0.0
O35 O 0.9629 0.81603 0.18769 0.0
C36 C 0.91001 0.84089 0.2533 0.0
O37 O 0.82227 0.71512 0.15623 0.0
O38 O 0.76414 0.71886 0.2 0.0
In39 In 0.09324 0.14207 0.34807 0.0
O40 O 0.04571 0.07395 0.29855 0.0
O41 O 0.15217 0.12685 0.30509 0.0
C42 C 0.96857 0.10431 0.37158 0.0
C43 C 0.16056 0.27585 0.33839 0.0
C44 C 0.12169 0.055 0.38085 0.0
O45 O -0.0146 0.11366 0.33866 0.0
O46 O 0.01606 0.11726 0.39321 0.0
O47 O 0.07771 0.06739 0.39279 0.0
O48 O 0.16177 0.09912 0.35924 0.0
C49 C 0.10231 0.08589 0.28687 0.0
O50 O 0.1707 0.24918 0.36579 0.0
O51 O 0.11506 0.23586 0.3176 0.0
In52 In 0.81133 0.94186 0.34807 0.0
O53 O 0.87941 0.96233 0.29854 0.0
O54 O 0.82659 0.01597 0.30504 0.0
C55 C 0.84906 0.85496 0.37167 0.0
C56 C 0.67756 0.87544 0.33838 0.0
C57 C 0.89837 0.05737 0.38077 0.0
O58 O 0.83968 0.86238 0.33874 0.0
O59 O 0.83615 0.88956 0.39327 0.0
O60 O 0.8861 0.00105 0.39275 0.0
O61 O 0.85427 0.05336 0.35915 0.0
C62 C 0.86751 0.007 0.28683 0.0
O63 O 0.70423 0.91227 0.36578 0.0
O64 O 0.71753 0.86989 0.31762 0.0
In65 In 0.01147 0.86016 0.34813 0.0
O66 O -0.00909 0.90768 0.29858 0.0
O67 O 0.93723 0.80123 0.30518 0.0
C68 C 0.09833 -0.01521 0.37164 0.0
C69 C 0.07792 0.79285 0.33843 0.0
C70 C 0.89601 0.83172 0.38088 0.0
O71 O 0.09085 0.96799 0.33872 0.0
O72 O 0.06387 0.93731 0.39329 0.0
O73 O 0.95235 0.8758 0.39282 0.0
O74 O 0.89999 0.79158 0.3593 0.0
C75 C 0.94618 0.85109 0.28692 0.0
O76 O 0.04114 0.7827 0.36584 0.0
O77 O 0.08341 0.83836 0.31765 0.0
In78 In 0.80394 0.92283 0.75966 0.0
O79 O 0.87808 0.93724 0.71434 0.0
O80 O 0.77301 0.88368 0.70346 0.0
C81 C 0.88787 0.05019 0.78034 0.0
C82 C 0.67471 0.88428 0.76901 0.0
C83 C 0.84714 0.84083 0.78401 0.0
O84 O 0.86121 0.03515 0.74947 0.0
O85 O 0.86644 0.00142 0.8019 0.0
O86 O 0.85593 0.89178 0.80137 0.0
O87 O 0.80682 0.82544 0.75806 0.0
C88 C 0.83158 0.90291 0.69233 0.0
O89 O 0.70595 0.86532 0.7894 0.0
O90 O 0.70966 0.92703 0.74554 0.0
In91 In 0.03077 0.8722 0.75976 0.0
O92 O 0.0163 0.93188 0.71441 0.0
O93 O 0.06977 0.88028 0.70354 0.0
C94 C 0.90349 0.82884 0.78049 0.0
C95 C 0.06932 0.78152 0.76912 0.0
C96 C 0.11286 -0.00256 0.78401 0.0
O97 O 0.91844 0.81713 0.74962 0.0
O98 O 0.95228 0.85622 0.80203 0.0
O99 O 0.06194 0.95532 0.80142 0.0
O100 O 0.12818 0.97245 0.75807 0.0
C101 C 0.05055 0.91962 0.69239 0.0
O102 O 0.08834 0.83175 0.78949 0.0
O103 O 0.02652 0.7737 0.74568 0.0
In104 In 0.08147 0.14964 0.75964 0.0
O105 O 0.02177 0.07541 0.71434 0.0
O106 O 0.07346 0.18045 0.70337 0.0
C107 C 0.12488 0.06578 0.78045 0.0
C108 C 0.17205 0.27889 0.76898 0.0
C109 C 0.95626 0.10648 0.78384 0.0
O110 O 0.13659 0.09241 0.74957 0.0
O111 O 0.09749 0.08721 0.80197 0.0
O112 O -0.00166 0.09769 0.8013 0.0
O113 O -0.01881 0.14675 0.75787 0.0
C114 C 0.03407 0.12187 0.69227 0.0
O115 O 0.1218 0.24766 0.78933 0.0
O116 O 0.17994 0.24393 0.74556 0.0
In117 In 0.8508 0.82065 0.59753 0.0
O118 O 0.89834 0.88879 0.64704 0.0
O119 O 0.79188 0.83588 0.64051 0.0
C120 C -0.02454 0.85842 0.57401 0.0
C121 C 0.78348 0.68688 0.60721 0.0
C122 C 0.82234 0.90773 0.56474 0.0
O123 O 0.95863 0.84907 0.60693 0.0
O124 O 0.92797 0.84547 0.55238 0.0
O125 O 0.86632 0.89533 0.5528 0.0
O126 O 0.78227 0.86361 0.58636 0.0
C127 C 0.84174 0.87686 0.65872 0.0
O128 O 0.77333 0.71355 0.57981 0.0
O129 O 0.82897 0.72687 0.628 0.0
In130 In 0.13271 0.02088 0.59751 0.0
O131 O 0.06464 0.00043 0.64704 0.0
O132 O 0.11745 0.94677 0.64053 0.0
C133 C 0.09497 0.10776 0.5739 0.0
C134 C 0.26648 0.0873 0.60719 0.0
C135 C 0.04566 0.90536 0.56482 0.0
O136 O 0.10436 0.10036 0.60683 0.0
O137 O 0.10789 0.07317 0.55231 0.0
O138 O 0.05793 0.96167 0.55284 0.0
O139 O 0.08977 0.90937 0.58644 0.0
C140 C 0.07654 0.95575 0.65875 0.0
O141 O 0.23981 0.05047 0.5798 0.0
O142 O 0.22651 0.09285 0.62796 0.0
In143 In 0.93258 0.10257 0.59744 0.0
O144 O 0.95315 0.05507 0.64699 0.0
O145 O 0.00684 0.16151 0.64038 0.0
C146 C 0.8457 0.97793 0.57395 0.0
C147 C 0.86612 0.16987 0.60715 0.0
C148 C 0.04802 0.131 0.56468 0.0
O149 O 0.8532 -0.00526 0.60686 0.0
O150 O 0.88015 0.02541 0.55229 0.0
O151 O -0.00832 0.08692 0.55276 0.0
O152 O 0.04405 0.17115 0.58626 0.0
C153 C -0.00211 0.11166 0.65864 0.0
O154 O 0.90289 0.18002 0.57974 0.0
O155 O 0.86064 0.12438 0.62794 0.0
In156 In 0.80424 0.41257 0.45594 0.0
O157 O 0.9147 0.47744 0.4394 0.0
O158 O 0.89205 0.423 0.48876 0.0
C159 C 0.73427 0.46262 0.42294 0.0
C160 C 0.75156 0.43036 0.51615 0.0
C161 C 0.74789 0.28537 0.43178 0.0
O162 O 0.73528 0.41167 0.41125 0.0
O163 O 0.78144 0.49663 0.44461 0.0
O164 O 0.761 0.30144 0.46465 0.0
O165 O 0.76773 0.3346 0.41043 0.0
C166 C 0.93637 0.46512 0.46815 0.0
O167 O 0.73137 0.37175 0.50433 0.0
O168 O 0.79825 0.47702 0.49862 0.0
In169 In 0.54081 0.38239 0.45593 0.0
O170 O 0.47595 0.42801 0.4394 0.0
O171 O 0.53038 0.45973 0.48876 0.0
C172 C 0.49076 0.2624 0.42293 0.0
C173 C 0.52302 0.31186 0.51612 0.0
C174 C 0.66798 0.4532 0.43178 0.0
O175 O 0.54172 0.31437 0.41124 0.0
O176 O 0.45673 0.27554 0.44459 0.0
O177 O 0.65194 0.45024 0.46466 0.0
O178 O 0.61878 0.4239 0.41041 0.0
C179 C 0.48828 0.46198 0.46815 0.0
O180 O 0.58163 0.35031 0.50432 0.0
O181 O 0.47635 0.31188 0.49859 0.0
In182 In 0.57099 0.14916 0.45593 0.0
O183 O 0.52541 0.0387 0.4394 0.0
O184 O 0.49363 0.06136 0.48874 0.0
C185 C 0.69094 0.2191 0.42296 0.0
C186 C 0.64148 0.20184 0.51614 0.0
C187 C 0.50017 0.20551 0.43176 0.0
O188 O 0.63902 0.21819 0.41126 0.0
O189 O 0.67786 0.17193 0.44462 0.0
O190 O 0.50311 0.1924 0.46464 0.0
O191 O 0.52949 0.18564 0.4104 0.0
C192 C 0.49142 0.01704 0.46815 0.0
O193 O 0.60304 0.22201 0.50433 0.0
O194 O 0.64147 0.15516 0.4986 0.0
In195 In 0.70863 0.48292 0.61402 0.0
O196 O 0.68584 0.40307 0.57026 0.0
O197 O 0.75477 0.50605 0.5593 0.0
C198 C 0.58005 0.40666 0.63563 0.0
C199 C 0.75004 0.61443 0.61311 0.0
C200 C 0.78443 0.43382 0.64081 0.0
O201 O 0.59647 0.42949 0.604 0.0
O202 O 0.62863 0.42786 0.6574 0.0
O203 O 0.73395 0.42823 0.65736 0.0
O204 O 0.80389 0.47588 0.61554 0.0
C205 C 0.7276 0.4462 0.54876 0.0
O206 O 0.76829 0.58842 0.63749 0.0
O207 O 0.70606 0.57359 0.59183 0.0
In208 In 0.47045 0.21632 0.614 0.0
O209 O 0.55033 0.27345 0.57026 0.0
O210 O 0.44733 0.23928 0.55925 0.0
C211 C 0.54669 0.16397 0.63564 0.0
C212 C 0.33894 0.12627 0.6131 0.0
C213 C 0.51953 0.34116 0.64077 0.0
O214 O 0.52388 0.15759 0.604 0.0
O215 O 0.52549 0.19134 0.6574 0.0
O216 O 0.52516 0.2963 0.65734 0.0
O217 O 0.47749 0.31862 0.61549 0.0
C218 C 0.50719 0.27203 0.54874 0.0
O219 O 0.36495 0.17054 0.63746 0.0
O220 O 0.37977 0.12309 0.59184 0.0
In221 In 0.73703 0.24474 0.61401 0.0
O222 O 0.67992 0.26753 0.57026 0.0
O223 O 0.71401 0.19864 0.55928 0.0
C224 C 0.78933 0.37326 0.63563 0.0
C225 C 0.82713 0.20333 0.61308 0.0
C226 C 0.6122 0.16896 0.64078 0.0
O227 O 0.79572 0.3569 0.60398 0.0
O228 O 0.76202 0.3247 0.65742 0.0
O229 O 0.65705 0.21944 0.65735 0.0
O230 O 0.63474 0.14946 0.61551 0.0
C231 C 0.6813 0.2258 0.54875 0.0
O232 O 0.78288 0.18505 0.63745 0.0
O233 O 0.83026 0.24733 0.59182 0.0
In234 In 0.47582 0.1809 0.17263 0.0
O235 O 0.53377 0.22472 0.12032 0.0
O236 O 0.46854 0.11849 0.12444 0.0
C237 C 0.51036 0.30652 0.19253 0.0
C238 C 0.34211 0.11098 0.17561 0.0
C239 C 0.5749 0.16417 0.19938 0.0
O240 O 0.49682 0.28576 0.16036 0.0
O241 O 0.50478 0.263 0.21519 0.0
O242 O 0.55507 0.19962 0.21516 0.0
O243 O 0.53494 0.12617 0.17563 0.0
C244 C 0.5099 0.16757 0.10571 0.0
O245 O 0.37702 0.10007 0.19812 0.0
O246 O 0.37451 0.15724 0.15345 0.0
In247 In 0.77239 0.28533 0.17258 0.0
O248 O 0.85325 0.26734 0.19802 0.0
O249 O 0.796 0.20768 0.15337 0.0
C250 C 0.78913 0.4011 0.19937 0.0
C251 C 0.78573 0.33284 0.10567 0.0
C252 C 0.6468 0.19429 0.19251 0.0
O253 O 0.75367 0.34579 0.21513 0.0
O254 O 0.82712 0.39918 0.1756 0.0
O255 O 0.6675 0.20155 0.16032 0.0
O256 O 0.69036 0.23213 0.21517 0.0
C257 C 0.8423 0.22153 0.17551 0.0
O258 O 0.72857 0.29953 0.12027 0.0
O259 O 0.83481 0.34054 0.1244 0.0
In260 In 0.66797 0.47747 0.17261 0.0
O261 O 0.68592 0.57627 0.19807 0.0
O262 O 0.74568 0.57877 0.15346 0.0
C263 C 0.55223 0.37843 0.19935 0.0
C264 C 0.62053 0.44345 0.10568 0.0
C265 C 0.75901 0.4429 0.19251 0.0
O266 O 0.60751 0.39822 0.21514 0.0
O267 O 0.55411 0.41834 0.17559 0.0
O268 O 0.75177 0.45641 0.16033 0.0
O269 O 0.72114 0.44855 0.21518 0.0
C270 C 0.73178 0.61117 0.17559 0.0
O271 O 0.65381 0.41956 0.12028 0.0
O272 O 0.61282 0.4848 0.12441 0.0
In273 In 0.54074 0.14152 -0.00085 0.0
O274 O 0.46476 0.0529 0.96732 0.0
O275 O 0.536 0.042 -0.00054 0.0
C276 C 0.48954 0.21678 -0.02302 0.0
C277 C 0.52576 0.15793 0.06909 0.0
C278 C 0.67022 0.20487 -0.01983 0.0
O279 O 0.53221 0.21032 0.95871 0.0
O280 O 0.46517 0.17682 0.00313 0.0
O281 O 0.65005 0.17734 0.01057 0.0
O282 O 0.62434 0.19675 0.95868 0.0
C283 C 0.48683 0.01574 -0.02169 0.0
O284 O 0.5691 0.2053 0.05009 0.0
O285 O 0.4928 0.10206 0.05338 0.0
In286 In 0.81181 0.38984 -0.00089 0.0
O287 O 0.90043 0.40252 0.96726 0.0
O288 O 0.91135 0.4846 -0.00056 0.0
C289 C 0.73659 0.26344 -0.02303 0.0
C290 C 0.79538 0.35838 0.06905 0.0
C291 C 0.74848 0.456 -0.01985 0.0
O292 O 0.74298 0.31254 0.95869 0.0
O293 O 0.77658 0.27898 0.0031 0.0
O294 O 0.77603 0.46334 0.01054 0.0
O295 O 0.75658 0.41824 0.95866 0.0
C296 C 0.9376 0.46174 -0.02172 0.0
O297 O 0.74801 0.35436 0.05005 0.0
O298 O 0.85127 0.38133 0.05335 0.0
In299 In 0.56353 0.41263 -0.00088 0.0
O300 O 0.59901 0.38427 0.05006 0.0
O301 O 0.57207 0.46057 0.05335 0.0
C302 C 0.49743 0.28318 -0.01982 0.0
C303 C 0.4916 0.4665 -0.02172 0.0
C304 C 0.68991 0.46381 -0.02305 0.0
O305 O 0.49004 0.30334 0.01057 0.0
O306 O 0.53516 0.32902 0.95867 0.0
O307 O 0.6408 0.42112 0.95868 0.0
O308 O 0.67439 0.48824 0.0031 0.0
C309 C 0.595 0.42761 0.06906 0.0
O310 O 0.55084 0.48859 0.96728 0.0
O311 O 0.46873 0.41736 -0.00058 0.0
In312 In 0.46829 0.78189 0.77303 0.0
O313 O 0.56707 0.86274 0.74753 0.0
O314 O 0.56961 0.80554 0.79218 0.0
C315 C 0.3692 0.79864 0.7463 0.0
C316 C 0.43426 0.79517 0.83997 0.0
C317 C 0.43374 0.65627 0.75311 0.0
O318 O 0.38904 0.76321 0.7305 0.0
O319 O 0.40914 0.8366 0.77008 0.0
O320 O 0.4473 0.67702 0.78528 0.0
O321 O 0.4393 0.6998 0.73046 0.0
C322 C 0.60199 0.85181 0.77002 0.0
O323 O 0.41035 0.73803 0.82534 0.0
O324 O 0.47563 0.84427 0.82125 0.0
In325 In 0.17169 0.67747 0.77306 0.0
O326 O 0.09084 0.69545 0.74761 0.0
O327 O 0.14809 0.75513 0.79225 0.0
C328 C 0.15496 0.5617 0.74626 0.0
C329 C 0.15832 0.62996 0.83997 0.0
C330 C 0.2973 0.76852 0.75316 0.0
O331 O 0.19042 0.61702 0.7305 0.0
O332 O 0.11697 0.56362 0.77003 0.0
O333 O 0.27657 0.76125 0.78535 0.0
O334 O 0.25376 0.73069 0.73048 0.0
C335 C 0.10179 0.74127 0.77011 0.0
O336 O 0.21548 0.66324 0.82537 0.0
O337 O 0.10925 0.62229 0.82124 0.0
In338 In 0.27611 0.48531 0.773 0.0
O339 O 0.25817 0.38653 0.74752 0.0
O340 O 0.19837 0.384 0.79211 0.0
C341 C 0.39186 0.58436 0.74628 0.0
C342 C 0.32349 0.51924 0.83994 0.0
C343 C 0.18508 0.51991 0.75311 0.0
O344 O 0.33659 0.56459 0.73048 0.0
O345 O 0.38997 0.54445 0.77005 0.0
O346 O 0.1923 0.50637 0.78529 0.0
O347 O 0.22295 0.51426 0.73043 0.0
C348 C 0.21229 0.35162 0.76998 0.0
O349 O 0.29025 0.54318 0.82534 0.0
O350 O 0.33119 0.47789 0.8212 0.0
In351 In 0.40341 0.82114 0.94654 0.0
O352 O 0.47939 0.90975 -0.02161 0.0
O353 O 0.40816 0.92067 0.94624 0.0
C354 C 0.45452 0.7458 0.9687 0.0
C355 C 0.41841 0.80479 0.8766 0.0
C356 C 0.27392 0.75783 0.9655 0.0
O357 O 0.41187 0.75229 -0.01303 0.0
O358 O 0.47892 0.78577 0.94256 0.0
O359 O 0.29412 0.78538 0.9351 0.0
O360 O 0.31978 0.76591 -0.01301 0.0
C361 C 0.45733 0.94691 0.96739 0.0
O362 O 0.37503 0.75741 0.89558 0.0
O363 O 0.4514 0.86064 0.89233 0.0
In364 In 0.13222 0.57293 0.94652 0.0
O365 O 0.04361 0.56027 -0.02163 0.0
O366 O 0.03267 0.47819 0.94619 0.0
C367 C 0.20752 0.6993 0.96869 0.0
C368 C 0.14866 0.60441 0.87659 0.0
C369 C 0.19548 0.50669 0.96547 0.0
O370 O 0.20108 0.65017 -0.01304 0.0
O371 O 0.16755 0.68381 0.94255 0.0
O372 O 0.16796 0.49939 0.93507 0.0
O373 O 0.1874 0.54445 -0.01303 0.0
C374 C 0.00643 0.50105 0.96734 0.0
O375 O 0.19601 0.60838 0.89558 0.0
O376 O 0.09278 0.58151 0.8923 0.0
In377 In 0.3804 0.54993 0.94652 0.0
O378 O 0.39305 0.47393 -0.02165 0.0
O379 O 0.47517 0.54516 0.9462 0.0
C380 C 0.25401 0.49882 0.96867 0.0
C381 C 0.34898 0.53503 0.87657 0.0
C382 C 0.44657 0.67937 0.96548 0.0
O383 O 0.30313 0.54147 -0.01305 0.0
O384 O 0.26952 0.47439 0.94252 0.0
O385 O 0.45395 0.65922 0.93509 0.0
O386 O 0.40881 0.63353 -0.01302 0.0
C387 C 0.45228 0.49601 0.96734 0.0
O388 O 0.345 0.57838 0.89558 0.0
O389 O 0.37185 0.50201 0.89228 0.0
In390 In 0.13982 0.55017 0.48966 0.0
O391 O 0.21268 0.59099 0.44126 0.0
O392 O 0.14582 0.48572 0.44699 0.0
C393 C 0.19617 0.67737 0.51382 0.0
C394 C 0.00769 0.49761 0.47744 0.0
C395 C 0.2098 0.50014 0.52266 0.0
O396 O 0.18305 0.6613 0.48094 0.0
O397 O 0.17632 0.62815 0.53517 0.0
O398 O 0.20879 0.55109 0.53435 0.0
O399 O 0.16263 0.46611 0.50099 0.0
C400 C 0.19251 0.53238 0.42945 0.0
O401 O 0.02937 0.48529 0.5062 0.0
O402 O 0.05201 0.53973 0.45684 0.0
In403 In 0.40327 0.58039 0.48967 0.0
O404 O 0.46814 0.53478 0.5062 0.0
O405 O 0.4137 0.50305 0.45684 0.0
C406 C 0.45331 0.70038 0.52266 0.0
C407 C 0.42104 0.65091 0.42947 0.0
C408 C 0.2761 0.50956 0.51382 0.0
O409 O 0.40235 0.64841 0.53435 0.0
O410 O 0.48733 0.68724 0.501 0.0
O411 O 0.29214 0.51253 0.48094 0.0
O412 O 0.32531 0.53887 0.53519 0.0
C413 C 0.45581 0.50081 0.47744 0.0
O414 O 0.36243 0.61244 0.44127 0.0
O415 O 0.46771 0.6509 0.447 0.0
In416 In 0.37305 0.81359 0.48966 0.0
O417 O 0.41862 0.92405 0.50619 0.0
O418 O 0.4504 0.9014 0.45684 0.0
C419 C 0.25311 0.74365 0.52263 0.0
C420 C 0.30255 0.7609 0.42945 0.0
C421 C 0.44389 0.75726 0.51383 0.0
O422 O 0.30503 0.74456 0.53433 0.0
O423 O 0.26618 0.79081 0.50098 0.0
O424 O 0.44094 0.77037 0.48095 0.0
O425 O 0.41457 0.77713 0.53519 0.0
C426 C 0.45261 0.94572 0.47744 0.0
O427 O 0.34101 0.74075 0.44126 0.0
O428 O 0.30256 0.80757 0.44699 0.0
In429 In 0.23542 0.47981 0.33158 0.0
O430 O 0.17575 0.37431 0.30811 0.0
O431 O 0.23799 0.38914 0.35376 0.0
C432 C 0.15961 0.5289 0.30479 0.0
C433 C 0.21647 0.51654 0.39684 0.0
C434 C 0.36399 0.55607 0.30996 0.0
O435 O 0.21009 0.53449 0.28824 0.0
O436 O 0.14016 0.48685 0.33007 0.0
O437 O 0.34758 0.53324 0.3416 0.0
O438 O 0.31541 0.53487 0.28819 0.0
C439 C 0.19401 0.3483 0.33249 0.0
O440 O 0.25821 0.55967 0.37533 0.0
O441 O 0.18931 0.45668 0.38631 0.0
In442 In 0.47359 0.74641 0.33159 0.0
O443 O 0.39372 0.68929 0.37533 0.0
O444 O 0.49673 0.72348 0.38633 0.0
C445 C 0.39735 0.79876 0.30995 0.0
C446 C 0.6051 0.83647 0.33248 0.0
C447 C 0.42451 0.62157 0.30483 0.0
O448 O 0.42016 0.80515 0.34159 0.0
O449 O 0.41855 0.77138 0.28819 0.0
O450 O 0.41888 0.66643 0.28825 0.0
O451 O 0.46655 0.64411 0.33011 0.0
C452 C 0.43686 0.69073 0.39685 0.0
O453 O 0.57909 0.79219 0.30812 0.0
O454 O 0.56427 0.83965 0.35374 0.0
In455 In 0.20701 0.71799 0.33158 0.0
O456 O 0.16116 0.77768 0.30813 0.0
O457 O 0.11377 0.71539 0.35377 0.0
C458 C 0.33184 0.79377 0.30481 0.0
C459 C 0.26273 0.73694 0.39684 0.0
C460 C 0.15471 0.58946 0.30996 0.0
O461 O 0.28698 0.74328 0.28824 0.0
O462 O 0.3093 0.81326 0.33008 0.0
O463 O 0.14832 0.60583 0.34161 0.0
O464 O 0.18202 0.63802 0.28818 0.0
C465 C 0.11691 0.7594 0.33251 0.0
O466 O 0.26413 0.69521 0.37533 0.0
O467 O 0.23001 0.76408 0.38631 0.0
loop_
_geom_bond_atom_site_label_1
_geom_bond_atom_site_label_2
_geom_bond_distance
_geom_bond_site_symmetry_2
_ccdc_geom_bond_type
In0 O1 2.294 . S
In0 O2 2.326 . S
In0 O6 2.266 . S
In0 O7 2.326 . S
In0 O8 2.266 . S
In0 O9 2.326 . S
In0 O11 2.294 . S
In0 O12 2.326 . S
O1 In0 2.294 . S
O1 C10 1.240 . S
O2 In0 2.326 . S
O2 C10 1.252 . S
C3 O6 1.252 . S
C3 O7 1.260 . S
C4 O11 1.240 . S
C4 O12 1.252 . S
C5 O8 1.252 . S
C5 O9 1.260 . S
O6 In0 2.266 . S
O6 C3 1.252 . S
O7 In0 2.326 . S
O7 C3 1.260 . S
O8 In0 2.266 . S
O8 C5 1.252 . S
O9 In0 2.326 . S
O9 C5 1.260 . S
C10 O1 1.240 . S
C10 O2 1.252 . S
O11 In0 2.294 . S
O11 C4 1.240 . S
O12 In0 2.326 . S
O12 C4 1.252 . S
In13 O14 2.294 . S
In13 O15 2.326 . S
In13 O19 2.266 1_545 S
In13 O20 2.326 1_545 S
In13 O21 2.266 . S
In13 O22 2.326 . S
In13 O24 2.294 . S
In13 O25 2.326 1_545 S
O14 In13 2.294 . S
O14 C23 1.240 . S
O15 In13 2.326 . S
O15 C23 1.252 . S
C16 O19 1.252 . S
C16 O20 1.260 . S
C17 O24 1.240 1_565 S
C17 O25 1.252 . S
C18 O21 1.252 . S
C18 O22 1.260 . S
O19 In13 2.266 1_565 S
O19 C16 1.252 . S
O20 In13 2.326 1_565 S
O20 C16 1.260 . S
O21 In13 2.266 . S
O21 C18 1.252 . S
O22 In13 2.326 . S
O22 C18 1.260 . S
C23 O14 1.240 . S
C23 O15 1.252 . S
O24 In13 2.294 . S
O24 C17 1.240 1_545 S
O25 In13 2.326 1_565 S
O25 C17 1.252 . S
In26 O27 2.294 . S
In26 O28 2.326 1_655 S
In26 O32 2.266 . S
In26 O33 2.326 . S
In26 O34 2.266 1_655 S
In26 O35 2.326 1_655 S
In26 O37 2.294 . S
In26 O38 2.326 . S
O27 In26 2.294 . S
O27 C36 1.240 1_655 S
O28 In26 2.326 1_455 S
O28 C36 1.252 . S
C29 O32 1.252 . S
C29 O33 1.260 . S
C30 O37 1.240 . S
C30 O38 1.252 . S
C31 O34 1.252 . S
C31 O35 1.260 . S
O32 In26 2.266 . S
O32 C29 1.252 . S
O33 In26 2.326 . S
O33 C29 1.260 . S
O34 In26 2.266 1_455 S
O34 C31 1.252 . S
O35 In26 2.326 1_455 S
O35 C31 1.260 . S
C36 O27 1.240 1_455 S
C36 O28 1.252 . S
O37 In26 2.294 . S
O37 C30 1.240 . S
O38 In26 2.326 . S
O38 C30 1.252 . S
In39 O40 2.294 . S
In39 O41 2.326 . S
In39 O45 2.266 . S
In39 O46 2.326 . S
In39 O47 2.266 . S
In39 O48 2.326 . S
In39 O50 2.294 . S
In39 O51 2.326 . S
O40 In39 2.294 . S
O40 C49 1.240 . S
O41 In39 2.326 . S
O41 C49 1.252 . S
C42 O45 1.252 . S
C42 O46 1.260 . S
C43 O50 1.240 . S
C43 O51 1.252 . S
C44 O47 1.252 . S
C44 O48 1.260 . S
O45 In39 2.266 . S
O45 C42 1.252 . S
O46 In39 2.326 . S
O46 C42 1.260 . S
O47 In39 2.266 . S
O47 C44 1.252 . S
O48 In39 2.326 . S
O48 C44 1.260 . S
C49 O40 1.240 . S
C49 O41 1.252 . S
O50 In39 2.294 . S
O50 C43 1.240 . S
O51 In39 2.326 . S
O51 C43 1.252 . S
In52 O53 2.294 . S
In52 O54 2.326 1_565 S
In52 O58 2.266 . S
In52 O59 2.326 . S
In52 O60 2.266 1_565 S
In52 O61 2.326 1_565 S
In52 O63 2.294 . S
In52 O64 2.326 . S
O53 In52 2.294 . S
O53 C62 1.240 1_565 S
O54 In52 2.326 1_545 S
O54 C62 1.252 . S
C55 O58 1.252 . S
C55 O59 1.260 . S
C56 O63 1.240 . S
C56 O64 1.252 . S
C57 O60 1.252 . S
C57 O61 1.260 . S
O58 In52 2.266 . S
O58 C55 1.252 . S
O59 In52 2.326 . S
O59 C55 1.260 . S
O60 In52 2.266 1_545 S
O60 C57 1.252 . S
O61 In52 2.326 1_545 S
O61 C57 1.260 . S
C62 O53 1.240 1_545 S
C62 O54 1.252 . S
O63 In52 2.294 . S
O63 C56 1.240 . S
O64 In52 2.326 . S
O64 C56 1.252 . S
In65 O66 2.294 . S
In65 O67 2.326 1_455 S
In65 O71 2.266 . S
In65 O72 2.326 . S
In65 O73 2.266 1_455 S
In65 O74 2.326 1_455 S
In65 O76 2.294 . S
In65 O77 2.326 . S
O66 In65 2.294 . S
O66 C75 1.240 1_455 S
O67 In65 2.326 1_655 S
O67 C75 1.252 . S
C68 O71 1.252 . S
C68 O72 1.260 . S
C69 O76 1.240 . S
C69 O77 1.252 . S
C70 O73 1.252 . S
C70 O74 1.260 . S
O71 In65 2.266 . S
O71 C68 1.252 . S
O72 In65 2.326 . S
O72 C68 1.260 . S
O73 In65 2.266 1_655 S
O73 C70 1.252 . S
O74 In65 2.326 1_655 S
O74 C70 1.260 . S
C75 O66 1.240 1_655 S
C75 O67 1.252 . S
O76 In65 2.294 . S
O76 C69 1.240 . S
O77 In65 2.326 . S
O77 C69 1.252 . S
In78 O79 2.294 . S
In78 O80 2.326 . S
In78 O84 2.266 . S
In78 O85 2.326 . S
In78 O86 2.266 . S
In78 O87 2.326 . S
In78 O89 2.294 . S
In78 O90 2.326 . S
O79 In78 2.294 . S
O79 C88 1.240 . S
O80 In78 2.326 . S
O80 C88 1.252 . S
C81 O84 1.252 . S
C81 O85 1.260 . S
C82 O89 1.240 . S
C82 O90 1.252 . S
C83 O86 1.252 . S
C83 O87 1.260 . S
O84 In78 2.266 . S
O84 C81 1.252 . S
O85 In78 2.326 . S
O85 C81 1.260 . S
O86 In78 2.266 . S
O86 C83 1.252 . S
O87 In78 2.326 . S
O87 C83 1.260 . S
C88 O79 1.240 . S
C88 O80 1.252 . S
O89 In78 2.294 . S
O89 C82 1.240 . S
O90 In78 2.326 . S
O90 C82 1.252 . S
In91 O92 2.294 . S
In91 O93 2.326 1_565 S
In91 O97 2.266 . S
In91 O98 2.326 . S
In91 O99 2.266 1_565 S
In91 O100 2.326 1_565 S
In91 O102 2.294 . S
In91 O103 2.326 . S
O92 In91 2.294 . S
O92 C101 1.240 1_565 S
O93 In91 2.326 1_545 S
O93 C101 1.252 . S
C94 O97 1.252 . S
C94 O98 1.260 . S
C95 O102 1.240 . S
C95 O103 1.252 . S
C96 O99 1.252 . S
C96 O100 1.260 . S
O97 In91 2.266 . S
O97 C94 1.252 . S
O98 In91 2.326 . S
O98 C94 1.260 . S
O99 In91 2.266 1_545 S
O99 C96 1.252 . S
O100 In91 2.326 1_545 S
O100 C96 1.260 . S
C101 O92 1.240 1_545 S
C101 O93 1.252 . S
O102 In91 2.294 . S
O102 C95 1.240 . S
O103 In91 2.326 . S
O103 C95 1.252 . S
In104 O105 2.294 . S
In104 O106 2.326 1_455 S
In104 O110 2.266 . S
In104 O111 2.326 . S
In104 O112 2.266 1_455 S
In104 O113 2.326 1_455 S
In104 O115 2.294 . S
In104 O116 2.326 . S
O105 In104 2.294 . S
O105 C114 1.240 1_455 S
O106 In104 2.326 1_655 S
O106 C114 1.252 . S
C107 O110 1.252 . S
C107 O111 1.260 . S
C108 O115 1.240 . S
C108 O116 1.252 . S
C109 O112 1.252 . S
C109 O113 1.260 . S
O110 In104 2.266 . S
O110 C107 1.252 . S
O111 In104 2.326 . S
O111 C107 1.260 . S
O112 In104 2.266 1_655 S
O112 C109 1.252 . S
O113 In104 2.326 1_655 S
O113 C109 1.260 . S
C114 O105 1.240 1_655 S
C114 O106 1.252 . S
O115 In104 2.294 . S
O115 C108 1.240 . S
O116 In104 2.326 . S
O116 C108 1.252 . S
In117 O118 2.294 . S
In117 O119 2.326 . S
In117 O123 2.266 . S
In117 O124 2.326 . S
In117 O125 2.266 . S
In117 O126 2.326 . S
In117 O128 2.294 . S
In117 O129 2.326 . S
O118 In117 2.294 . S
O118 C127 1.240 . S
O119 In117 2.326 . S
O119 C127 1.252 . S
C120 O123 1.252 . S
C120 O124 1.260 . S
C121 O128 1.240 . S
C121 O129 1.252 . S
C122 O125 1.252 . S
C122 O126 1.260 . S
O123 In117 2.266 . S
O123 C120 1.252 . S
O124 In117 2.326 . S
O124 C120 1.260 . S
O125 In117 2.266 . S
O125 C122 1.252 . S
O126 In117 2.326 . S
O126 C122 1.260 . S
C127 O118 1.240 . S
C127 O119 1.252 . S
O128 In117 2.294 . S
O128 C121 1.240 . S
O129 In117 2.326 . S
O129 C121 1.252 . S
In130 O131 2.294 . S
In130 O132 2.326 1_545 S
In130 O136 2.266 . S
In130 O137 2.326 . S
In130 O138 2.266 1_545 S
In130 O139 2.326 1_545 S
In130 O141 2.294 . S
In130 O142 2.326 . S
O131 In130 2.294 . S
O131 C140 1.240 1_545 S
O132 In130 2.326 1_565 S
O132 C140 1.252 . S
C133 O136 1.252 . S
C133 O137 1.260 . S
C134 O141 1.240 . S
C134 O142 1.252 . S
C135 O138 1.252 . S
C135 O139 1.260 . S
O136 In130 2.266 . S
O136 C133 1.252 . S
O137 In130 2.326 . S
O137 C133 1.260 . S
O138 In130 2.266 1_565 S
O138 C135 1.252 . S
O139 In130 2.326 1_565 S
O139 C135 1.260 . S
C140 O131 1.240 1_565 S
C140 O132 1.252 . S
O141 In130 2.294 . S
O141 C134 1.240 . S
O142 In130 2.326 . S
O142 C134 1.252 . S
In143 O144 2.294 . S
In143 O145 2.326 1_655 S
In143 O149 2.266 . S
In143 O150 2.326 . S
In143 O151 2.266 1_655 S
In143 O152 2.326 1_655 S
In143 O154 2.294 . S
In143 O155 2.326 . S
O144 In143 2.294 . S
O144 C153 1.240 1_655 S
O145 In143 2.326 1_455 S
O145 C153 1.252 . S
C146 O149 1.252 . S
C146 O150 1.260 . S
C147 O154 1.240 . S
C147 O155 1.252 . S
C148 O151 1.252 . S
C148 O152 1.260 . S
O149 In143 2.266 . S
O149 C146 1.252 . S
O150 In143 2.326 . S
O150 C146 1.260 . S
O151 In143 2.266 1_455 S
O151 C148 1.252 . S
O152 In143 2.326 1_455 S
O152 C148 1.260 . S
C153 O144 1.240 1_455 S
C153 O145 1.252 . S
O154 In143 2.294 . S
O154 C147 1.240 . S
O155 In143 2.326 . S
O155 C147 1.252 . S
In156 O157 2.294 . S
In156 O158 2.326 . S
In156 O162 2.266 . S
In156 O163 2.326 . S
In156 O164 2.266 . S
In156 O165 2.326 . S
In156 O167 2.294 . S
In156 O168 2.326 . S
O157 In156 2.294 . S
O157 C166 1.240 . S
O158 In156 2.326 . S
O158 C166 1.252 . S
C159 O162 1.252 . S
C159 O163 1.260 . S
C160 O167 1.240 . S
C160 O168 1.252 . S
C161 O164 1.252 . S
C161 O165 1.260 . S
O162 In156 2.266 . S
O162 C159 1.252 . S
O163 In156 2.326 . S
O163 C159 1.260 . S
O164 In156 2.266 . S
O164 C161 1.252 . S
O165 In156 2.326 . S
O165 C161 1.260 . S
C166 O157 1.240 . S
C166 O158 1.252 . S
O167 In156 2.294 . S
O167 C160 1.240 . S
O168 In156 2.326 . S
O168 C160 1.252 . S
In169 O170 2.294 . S
In169 O171 2.326 . S
In169 O175 2.266 . S
In169 O176 2.326 . S
In169 O177 2.266 . S
In169 O178 2.326 . S
In169 O180 2.294 . S
In169 O181 2.326 . S
O170 In169 2.294 . S
O170 C179 1.240 . S
O171 In169 2.326 . S
O171 C179 1.252 . S
C172 O175 1.252 . S
C172 O176 1.260 . S
C173 O180 1.240 . S
C173 O181 1.252 . S
C174 O177 1.252 . S
C174 O178 1.260 . S
O175 In169 2.266 . S
O175 C172 1.252 . S
O176 In169 2.326 . S
O176 C172 1.260 . S
O177 In169 2.266 . S
O177 C174 1.252 . S
O178 In169 2.326 . S
O178 C174 1.260 . S
C179 O170 1.240 . S
C179 O171 1.252 . S
O180 In169 2.294 . S
O180 C173 1.240 . S
O181 In169 2.326 . S
O181 C173 1.252 . S
In182 O183 2.294 . S
In182 O184 2.326 . S
In182 O188 2.266 . S
In182 O189 2.326 . S
In182 O190 2.266 . S
In182 O191 2.326 . S
In182 O193 2.294 . S
In182 O194 2.326 . S
O183 In182 2.294 . S
O183 C192 1.240 . S
O184 In182 2.326 . S
O184 C192 1.252 . S
C185 O188 1.252 . S
C185 O189 1.260 . S
C186 O193 1.240 . S
C186 O194 1.252 . S
C187 O190 1.252 . S
C187 O191 1.260 . S
O188 In182 2.266 . S
O188 C185 1.252 . S
O189 In182 2.326 . S
O189 C185 1.260 . S
O190 In182 2.266 . S
O190 C187 1.252 . S
O191 In182 2.326 . S
O191 C187 1.260 . S
C192 O183 1.240 . S
C192 O184 1.252 . S
O193 In182 2.294 . S
O193 C186 1.240 . S
O194 In182 2.326 . S
O194 C186 1.252 . S
In195 O196 2.294 . S
In195 O197 2.326 . S
In195 O201 2.266 . S
In195 O202 2.326 . S
In195 O203 2.266 . S
In195 O204 2.326 . S
In195 O206 2.294 . S
In195 O207 2.326 . S
O196 In195 2.294 . S
O196 C205 1.240 . S
O197 In195 2.326 . S
O197 C205 1.252 . S
C198 O201 1.252 . S
C198 O202 1.260 . S
C199 O206 1.240 . S
C199 O207 1.252 . S
C200 O203 1.252 . S
C200 O204 1.260 . S
O201 In195 2.266 . S
O201 C198 1.252 . S
O202 In195 2.326 . S
O202 C198 1.260 . S
O203 In195 2.266 . S
O203 C200 1.252 . S
O204 In195 2.326 . S
O204 C200 1.260 . S
C205 O196 1.240 . S
C205 O197 1.252 . S
O206 In195 2.294 . S
O206 C199 1.240 . S
O207 In195 2.326 . S
O207 C199 1.252 . S
In208 O209 2.294 . S
In208 O210 2.326 . S
In208 O214 2.266 . S
In208 O215 2.326 . S
In208 O216 2.266 . S
In208 O217 2.326 . S
In208 O219 2.294 . S
In208 O220 2.326 . S
O209 In208 2.294 . S
O209 C218 1.240 . S
O210 In208 2.326 . S
O210 C218 1.252 . S
C211 O214 1.252 . S
C211 O215 1.260 . S
C212 O219 1.240 . S
C212 O220 1.252 . S
C213 O216 1.252 . S
C213 O217 1.260 . S
O214 In208 2.266 . S
O214 C211 1.252 . S
O215 In208 2.326 . S
O215 C211 1.260 . S
O216 In208 2.266 . S
O216 C213 1.252 . S
O217 In208 2.326 . S
O217 C213 1.260 . S
C218 O209 1.240 . S
C218 O210 1.252 . S
O219 In208 2.294 . S
O219 C212 1.240 . S
O220 In208 2.326 . S
O220 C212 1.252 . S
In221 O222 2.294 . S
In221 O223 2.326 . S
In221 O227 2.266 . S
In221 O228 2.326 . S
In221 O229 2.266 . S
In221 O230 2.326 . S
In221 O232 2.294 . S
In221 O233 2.326 . S
O222 In221 2.294 . S
O222 C231 1.240 . S
O223 In221 2.326 . S
O223 C231 1.252 . S
C224 O227 1.252 . S
C224 O228 1.260 . S
C225 O232 1.240 . S
C225 O233 1.252 . S
C226 O229 1.252 . S
C226 O230 1.260 . S
O227 In221 2.266 . S
O227 C224 1.252 . S
O228 In221 2.326 . S
O228 C224 1.260 . S
O229 In221 2.266 . S
O229 C226 1.252 . S
O230 In221 2.326 . S
O230 C226 1.260 . S
C231 O222 1.240 . S
C231 O223 1.252 . S
O232 In221 2.294 . S
O232 C225 1.240 . S
O233 In221 2.326 . S
O233 C225 1.252 . S
In234 O235 2.294 . S
In234 O236 2.326 . S
In234 O240 2.266 . S
In234 O241 2.326 . S
In234 O242 2.266 . S
In234 O243 2.326 . S
In234 O245 2.294 . S
In234 O246 2.326 . S
O235 In234 2.294 . S
O235 C244 1.240 . S
O236 In234 2.326 . S
O236 C244 1.252 . S
C237 O240 1.252 . S
C237 O241 1.260 . S
C238 O245 1.240 . S
C238 O246 1.252 . S
C239 O242 1.252 . S
C239 O243 1.260 . S
O240 In234 2.266 . S
O240 C237 1.252 . S
O241 In234 2.326 . S
O241 C237 1.260 . S
O242 In234 2.266 . S
O242 C239 1.252 . S
O243 In234 2.326 . S
O243 C239 1.260 . S
C244 O235 1.240 . S
C244 O236 1.252 . S
O245 In234 2.294 . S
O245 C238 1.240 . S
O246 In234 2.326 . S
O246 C238 1.252 . S
In247 O248 2.294 . S
In247 O249 2.326 . S
In247 O253 2.266 . S
In247 O254 2.326 . S
In247 O255 2.266 . S
In247 O256 2.326 . S
In247 O258 2.294 . S
In247 O259 2.326 . S
O248 In247 2.294 . S
O248 C257 1.240 . S
O249 In247 2.326 . S
O249 C257 1.252 . S
C250 O253 1.252 . S
C250 O254 1.260 . S
C251 O258 1.240 . S
C251 O259 1.252 . S
C252 O255 1.252 . S
C252 O256 1.260 . S
O253 In247 2.266 . S
O253 C250 1.252 . S
O254 In247 2.326 . S
O254 C250 1.260 . S
O255 In247 2.266 . S
O255 C252 1.252 . S
O256 In247 2.326 . S
O256 C252 1.260 . S
C257 O248 1.240 . S
C257 O249 1.252 . S
O258 In247 2.294 . S
O258 C251 1.240 . S
O259 In247 2.326 . S
O259 C251 1.252 . S
In260 O261 2.294 . S
In260 O262 2.326 . S
In260 O266 2.266 . S
In260 O267 2.326 . S
In260 O268 2.266 . S
In260 O269 2.326 . S
In260 O271 2.294 . S
In260 O272 2.326 . S
O261 In260 2.294 . S
O261 C270 1.240 . S
O262 In260 2.326 . S
O262 C270 1.252 . S
C263 O266 1.252 . S
C263 O267 1.260 . S
C264 O271 1.240 . S
C264 O272 1.252 . S
C265 O268 1.252 . S
C265 O269 1.260 . S
O266 In260 2.266 . S
O266 C263 1.252 . S
O267 In260 2.326 . S
O267 C263 1.260 . S
O268 In260 2.266 . S
O268 C265 1.252 . S
O269 In260 2.326 . S
O269 C265 1.260 . S
C270 O261 1.240 . S
C270 O262 1.252 . S
O271 In260 2.294 . S
O271 C264 1.240 . S
O272 In260 2.326 . S
O272 C264 1.252 . S
In273 O274 2.293 1_554 S
In273 O275 2.327 . S
In273 O279 2.265 1_554 S
In273 O280 2.326 . S
In273 O281 2.267 . S
In273 O282 2.324 1_554 S
In273 O284 2.296 . S
In273 O285 2.328 . S
O274 In273 2.293 1_556 S
O274 C283 1.240 . S
O275 In273 2.327 . S
O275 C283 1.252 1_554 S
C276 O279 1.252 . S
C276 O280 1.260 1_556 S
C277 O284 1.240 . S
C277 O285 1.252 . S
C278 O281 1.252 1_556 S
C278 O282 1.260 . S
O279 In273 2.265 1_556 S
O279 C276 1.252 . S
O280 In273 2.326 . S
O280 C276 1.260 1_554 S
O281 In273 2.267 . S
O281 C278 1.252 1_554 S
O282 In273 2.324 1_556 S
O282 C278 1.260 . S
C283 O274 1.240 . S
C283 O275 1.252 1_556 S
O284 In273 2.296 . S
O284 C277 1.240 . S
O285 In273 2.328 . S
O285 C277 1.252 . S
In286 O287 2.293 1_554 S
In286 O288 2.327 . S
In286 O292 2.265 1_554 S
In286 O293 2.326 . S
In286 O294 2.267 . S
In286 O295 2.324 1_554 S
In286 O297 2.296 . S
In286 O298 2.328 . S
O287 In286 2.293 1_556 S
O287 C296 1.240 . S
O288 In286 2.327 . S
O288 C296 1.252 1_554 S
C289 O292 1.252 . S
C289 O293 1.260 1_556 S
C290 O297 1.240 . S
C290 O298 1.252 . S
C291 O294 1.252 1_556 S
C291 O295 1.260 . S
O292 In286 2.265 1_556 S
O292 C289 1.252 . S
O293 In286 2.326 . S
O293 C289 1.260 1_554 S
O294 In286 2.267 . S
O294 C291 1.252 1_554 S
O295 In286 2.324 1_556 S
O295 C291 1.260 . S
C296 O287 1.240 . S
C296 O288 1.252 1_556 S
O297 In286 2.296 . S
O297 C290 1.240 . S
O298 In286 2.328 . S
O298 C290 1.252 . S
In299 O300 2.296 . S
In299 O301 2.328 . S
In299 O305 2.267 . S
In299 O306 2.324 1_554 S
In299 O307 2.265 1_554 S
In299 O308 2.326 . S
In299 O310 2.293 1_554 S
In299 O311 2.327 . S
O300 In299 2.296 . S
O300 C309 1.240 . S
O301 In299 2.328 . S
O301 C309 1.252 . S
C302 O305 1.252 1_556 S
C302 O306 1.260 . S
C303 O310 1.240 . S
C303 O311 1.252 1_556 S
C304 O307 1.252 . S
C304 O308 1.260 1_556 S
O305 In299 2.267 . S
O305 C302 1.252 1_554 S
O306 In299 2.324 1_556 S
O306 C302 1.260 . S
O307 In299 2.265 1_556 S
O307 C304 1.252 . S
O308 In299 2.326 . S
O308 C304 1.260 1_554 S
C309 O300 1.240 . S
C309 O301 1.252 . S
O310 In299 2.293 1_556 S
O310 C303 1.240 . S
O311 In299 2.327 . S
O311 C303 1.252 1_554 S
In312 O313 2.294 . S
In312 O314 2.326 . S
In312 O318 2.266 . S
In312 O319 2.326 . S
In312 O320 2.266 . S
In312 O321 2.326 . S
In312 O323 2.294 . S
In312 O324 2.326 . S
O313 In312 2.294 . S
O313 C322 1.240 . S
O314 In312 2.326 . S
O314 C322 1.252 . S
C315 O318 1.252 . S
C315 O319 1.260 . S
C316 O323 1.240 . S
C316 O324 1.252 . S
C317 O320 1.252 . S
C317 O321 1.260 . S
O318 In312 2.266 . S
O318 C315 1.252 . S
O319 In312 2.326 . S
O319 C315 1.260 . S
O320 In312 2.266 . S
O320 C317 1.252 . S
O321 In312 2.326 . S
O321 C317 1.260 . S
C322 O313 1.240 . S
C322 O314 1.252 . S
O323 In312 2.294 . S
O323 C316 1.240 . S
O324 In312 2.326 . S
O324 C316 1.252 . S
In325 O326 2.294 . S
In325 O327 2.326 . S
In325 O331 2.266 . S
In325 O332 2.326 . S
In325 O333 2.266 . S
In325 O334 2.326 . S
In325 O336 2.294 . S
In325 O337 2.326 . S
O326 In325 2.294 . S
O326 C335 1.240 . S
O327 In325 2.326 . S
O327 C335 1.252 . S
C328 O331 1.252 . S
C328 O332 1.260 . S
C329 O336 1.240 . S
C329 O337 1.252 . S
C330 O333 1.252 . S
C330 O334 1.260 . S
O331 In325 2.266 . S
O331 C328 1.252 . S
O332 In325 2.326 . S
O332 C328 1.260 . S
O333 In325 2.266 . S
O333 C330 1.252 . S
O334 In325 2.326 . S
O334 C330 1.260 . S
C335 O326 1.240 . S
C335 O327 1.252 . S
O336 In325 2.294 . S
O336 C329 1.240 . S
O337 In325 2.326 . S
O337 C329 1.252 . S
In338 O339 2.294 . S
In338 O340 2.326 . S
In338 O344 2.266 . S
In338 O345 2.326 . S
In338 O346 2.266 . S
In338 O347 2.326 . S
In338 O349 2.294 . S
In338 O350 2.326 . S
O339 In338 2.294 . S
O339 C348 1.240 . S
O340 In338 2.326 . S
O340 C348 1.252 . S
C341 O344 1.252 . S
C341 O345 1.260 . S
C342 O349 1.240 . S
C342 O350 1.252 . S
C343 O346 1.252 . S
C343 O347 1.260 . S
O344 In338 2.266 . S
O344 C341 1.252 . S
O345 In338 2.326 . S
O345 C341 1.260 . S
O346 In338 2.266 . S
O346 C343 1.252 . S
O347 In338 2.326 . S
O347 C343 1.260 . S
C348 O339 1.240 . S
C348 O340 1.252 . S
O349 In338 2.294 . S
O349 C342 1.240 . S
O350 In338 2.326 . S
O350 C342 1.252 . S
In351 O352 2.293 1_556 S
In351 O353 2.327 . S
In351 O357 2.265 1_556 S
In351 O358 2.326 . S
In351 O359 2.267 . S
In351 O360 2.324 1_556 S
In351 O362 2.296 . S
In351 O363 2.328 . S
O352 In351 2.293 1_554 S
O352 C361 1.240 . S
O353 In351 2.327 . S
O353 C361 1.252 1_556 S
C354 O357 1.252 . S
C354 O358 1.260 1_554 S
C355 O362 1.240 . S
C355 O363 1.252 . S
C356 O359 1.252 1_554 S
C356 O360 1.260 . S
O357 In351 2.265 1_554 S
O357 C354 1.252 . S
O358 In351 2.326 . S
O358 C354 1.260 1_556 S
O359 In351 2.267 . S
O359 C356 1.252 1_556 S
O360 In351 2.324 1_554 S
O360 C356 1.260 . S
C361 O352 1.240 . S
C361 O353 1.252 1_554 S
O362 In351 2.296 . S
O362 C355 1.240 . S
O363 In351 2.328 . S
O363 C355 1.252 . S
In364 O365 2.293 1_556 S
In364 O366 2.327 . S
In364 O370 2.265 1_556 S
In364 O371 2.326 . S
In364 O372 2.267 . S
In364 O373 2.324 1_556 S
In364 O375 2.296 . S
In364 O376 2.328 . S
O365 In364 2.293 1_554 S
O365 C374 1.240 . S
O366 In364 2.327 . S
O366 C374 1.252 1_556 S
C367 O370 1.252 . S
C367 O371 1.260 1_554 S
C368 O375 1.240 . S
C368 O376 1.252 . S
C369 O372 1.252 1_554 S
C369 O373 1.260 . S
O370 In364 2.265 1_554 S
O370 C367 1.252 . S
O371 In364 2.326 . S
O371 C367 1.260 1_556 S
O372 In364 2.267 . S
O372 C369 1.252 1_556 S
O373 In364 2.324 1_554 S
O373 C369 1.260 . S
C374 O365 1.240 . S
C374 O366 1.252 1_554 S
O375 In364 2.296 . S
O375 C368 1.240 . S
O376 In364 2.328 . S
O376 C368 1.252 . S
In377 O378 2.293 1_556 S
In377 O379 2.327 . S
In377 O383 2.265 1_556 S
In377 O384 2.326 . S
In377 O385 2.267 . S
In377 O386 2.324 1_556 S
In377 O388 2.296 . S
In377 O389 2.328 . S
O378 In377 2.293 1_554 S
O378 C387 1.240 . S
O379 In377 2.327 . S
O379 C387 1.252 1_556 S
C380 O383 1.252 . S
C380 O384 1.260 1_554 S
C381 O388 1.240 . S
C381 O389 1.252 . S
C382 O385 1.252 1_554 S
C382 O386 1.260 . S
O383 In377 2.265 1_554 S
O383 C380 1.252 . S
O384 In377 2.326 . S
O384 C380 1.260 1_556 S
O385 In377 2.267 . S
O385 C382 1.252 1_556 S
O386 In377 2.324 1_554 S
O386 C382 1.260 . S
C387 O378 1.240 . S
C387 O379 1.252 1_554 S
O388 In377 2.296 . S
O388 C381 1.240 . S
O389 In377 2.328 . S
O389 C381 1.252 . S
In390 O391 2.294 . S
In390 O392 2.326 . S
In390 O396 2.266 . S
In390 O397 2.326 . S
In390 O398 2.266 . S
In390 O399 2.326 . S
In390 O401 2.294 . S
In390 O402 2.326 . S
O391 In390 2.294 . S
O391 C400 1.240 . S
O392 In390 2.326 . S
O392 C400 1.252 . S
C393 O396 1.252 . S
C393 O397 1.260 . S
C394 O401 1.240 . S
C394 O402 1.252 . S
C395 O398 1.252 . S
C395 O399 1.260 . S
O396 In390 2.266 . S
O396 C393 1.252 . S
O397 In390 2.326 . S
O397 C393 1.260 . S
O398 In390 2.266 . S
O398 C395 1.252 . S
O399 In390 2.326 . S
O399 C395 1.260 . S
C400 O391 1.240 . S
C400 O392 1.252 . S
O401 In390 2.294 . S
O401 C394 1.240 . S
O402 In390 2.326 . S
O402 C394 1.252 . S
In403 O404 2.294 . S
In403 O405 2.326 . S
In403 O409 2.266 . S
In403 O410 2.326 . S
In403 O411 2.266 . S
In403 O412 2.326 . S
In403 O414 2.294 . S
In403 O415 2.326 . S
O404 In403 2.294 . S
O404 C413 1.240 . S
O405 In403 2.326 . S
O405 C413 1.252 . S
C406 O409 1.252 . S
C406 O410 1.260 . S
C407 O414 1.240 . S
C407 O415 1.252 . S
C408 O411 1.252 . S
C408 O412 1.260 . S
O409 In403 2.266 . S
O409 C406 1.252 . S
O410 In403 2.326 . S
O410 C406 1.260 . S
O411 In403 2.266 . S
O411 C408 1.252 . S
O412 In403 2.326 . S
O412 C408 1.260 . S
C413 O404 1.240 . S
C413 O405 1.252 . S
O414 In403 2.294 . S
O414 C407 1.240 . S
O415 In403 2.326 . S
O415 C407 1.252 . S
In416 O417 2.294 . S
In416 O418 2.326 . S
In416 O422 2.266 . S
In416 O423 2.326 . S
In416 O424 2.266 . S
In416 O425 2.326 . S
In416 O427 2.294 . S
In416 O428 2.326 . S
O417 In416 2.294 . S
O417 C426 1.240 . S
O418 In416 2.326 . S
O418 C426 1.252 . S
C419 O422 1.252 . S
C419 O423 1.260 . S
C420 O427 1.240 . S
C420 O428 1.252 . S
C421 O424 1.252 . S
C421 O425 1.260 . S
O422 In416 2.266 . S
O422 C419 1.252 . S
O423 In416 2.326 . S
O423 C419 1.260 . S
O424 In416 2.266 . S
O424 C421 1.252 . S
O425 In416 2.326 . S
O425 C421 1.260 . S
C426 O417 1.240 . S
C426 O418 1.252 . S
O427 In416 2.294 . S
O427 C420 1.240 . S
O428 In416 2.326 . S
O428 C420 1.252 . S
In429 O430 2.294 . S
In429 O431 2.326 . S
In429 O435 2.266 . S
In429 O436 2.326 . S
In429 O437 2.266 . S
In429 O438 2.326 . S
In429 O440 2.294 . S
In429 O441 2.326 . S
O430 In429 2.294 . S
O430 C439 1.240 . S
O431 In429 2.326 . S
O431 C439 1.252 . S
C432 O435 1.252 . S
C432 O436 1.260 . S
C433 O440 1.240 . S
C433 O441 1.252 . S
C434 O437 1.252 . S
C434 O438 1.260 . S
O435 In429 2.266 . S
O435 C432 1.252 . S
O436 In429 2.326 . S
O436 C432 1.260 . S
O437 In429 2.266 . S
O437 C434 1.252 . S
O438 In429 2.326 . S
O438 C434 1.260 . S
C439 O430 1.240 . S
C439 O431 1.252 . S
O440 In429 2.294 . S
O440 C433 1.240 . S
O441 In429 2.326 . S
O441 C433 1.252 . S
In442 O443 2.294 . S
In442 O444 2.326 . S
In442 O448 2.266 . S
In442 O449 2.326 . S
In442 O450 2.266 . S
In442 O451 2.326 . S
In442 O453 2.294 . S
In442 O454 2.326 . S
O443 In442 2.294 . S
O443 C452 1.240 . S
O444 In442 2.326 . S
O444 C452 1.252 . S
C445 O448 1.252 . S
C445 O449 1.260 . S
C446 O453 1.240 . S
C446 O454 1.252 . S
C447 O450 1.252 . S
C447 O451 1.260 . S
O448 In442 2.266 . S
O448 C445 1.252 . S
O449 In442 2.326 . S
O449 C445 1.260 . S
O450 In442 2.266 . S
O450 C447 1.252 . S
O451 In442 2.326 . S
O451 C447 1.260 . S
C452 O443 1.240 . S
C452 O444 1.252 . S
O453 In442 2.294 . S
O453 C446 1.240 . S
O454 In442 2.326 . S
O454 C446 1.252 . S
In455 O456 2.294 . S
In455 O457 2.326 . S
In455 O461 2.266 . S
In455 O462 2.326 . S
In455 O463 2.266 . S
In455 O464 2.326 . S
In455 O466 2.294 . S
In455 O467 2.326 . S
O456 In455 2.294 . S
O456 C465 1.240 . S
O457 In455 2.326 . S
O457 C465 1.252 . S
C458 O461 1.252 . S
C458 O462 1.260 . S
C459 O466 1.240 . S
C459 O467 1.252 . S
C460 O463 1.252 . S
C460 O464 1.260 . S
O461 In455 2.266 . S
O461 C458 1.252 . S
O462 In455 2.326 . S
O462 C458 1.260 . S
O463 In455 2.266 . S
O463 C460 1.252 . S
O464 In455 2.326 . S
O464 C460 1.260 . S
C465 O456 1.240 . S
C465 O457 1.252 . S
O466 In455 2.294 . S
O466 C459 1.240 . S
O467 In455 2.326 . S
O467 C459 1.252 . S
C3 C18 1.854 1_455 S
C16 C29 1.854 . S
C5 C31 1.854 1_545 S
C44 C68 1.872 1_545 S
C57 C42 1.871 1_655 S
C55 C70 1.871 . S
C83 C94 1.854 1_655 S
C107 C96 1.854 . S
C81 C109 1.854 1_565 S
C146 C122 1.872 1_545 S
C135 C120 1.871 1_455 S
C148 C133 1.871 . S
C174 C159 1.865 . S
C172 C187 1.865 . S
C185 C161 1.865 . S
C200 C224 1.864 . S
C213 C198 1.863 . S
C226 C211 1.863 . S
C252 C239 1.917 . S
C250 C265 1.917 . S
C237 C263 1.917 . S
C302 C276 1.759 . S
C289 C278 1.759 . S
C291 C304 1.759 . S
C330 C315 1.917 . S
C328 C343 1.917 . S
C341 C317 1.917 . S
C382 C354 1.759 . S
C367 C356 1.759 . S
C369 C380 1.759 . S
C395 C408 1.865 . S
C406 C421 1.865 . S
C419 C393 1.865 . S
C460 C432 1.864 . S
C434 C447 1.863 . S
C458 C445 1.863 . S
C49 C4 1.973 . S
C17 C62 1.972 1_565 S
C75 C36 1.972 1_655 S
C127 C88 1.973 . S
C101 C140 1.972 1_545 S
C153 C114 1.972 1_455 S
C160 C205 1.971 . S
C173 C218 1.971 . S
C186 C231 1.971 . S
C277 C244 2.015 . S
C290 C251 2.015 . S
C264 C309 2.015 . S
C355 C316 2.015 . S
C368 C329 2.015 . S
C342 C381 2.015 . S
C400 C433 1.971 . S
C452 C407 1.971 . S
C420 C459 1.971 . S
C10 C238 3.037 . S
C23 C257 3.037 . S
C30 C270 3.036 . S
C439 C43 3.023 . S
C446 C56 3.022 . S
C69 C465 3.022 . S
C82 C322 3.037 . S
C335 C95 3.037 . S
C348 C108 3.036 . S
C199 C121 3.023 . S
C212 C134 3.022 . S
C225 C147 3.022 . S
C394 C166 3.017 1_455 S
C179 C413 3.017 . S
C192 C426 3.016 1_545 S
C283 C361 2.717 1_546 S
C296 C374 2.716 1_656 S
C387 C303 2.716 1_554 S
