# Generated by pormake.
# Topology umd, (4)-cn, num edge types: 1
# Building blocks:
#     Node 0, Type 0, BuildingBlock: QUQFOY_clean_sbu_3, # of connection points: 4
#     Node 1, Type 0, BuildingBlock: QUQFOY_clean_sbu_3, # of connection points: 4
#     Node 2, Type 0, BuildingBlock: QUQFOY_clean_sbu_3, # of connection points: 4
#     Node 3, Type 0, BuildingBlock: QUQFOY_clean_sbu_3, # of connection points: 4
#     Node 4, Type 0, BuildingBlock: QUQFOY_clean_sbu_3, # of connection points: 4
#     Node 5, Type 0, BuildingBlock: QUQFOY_clean_sbu_3, # of connection points: 4
#     Node 6, Type 0, BuildingBlock: QUQFOY_clean_sbu_3, # of connection points: 4
#     Node 7, Type 0, BuildingBlock: QUQFOY_clean_sbu_3, # of connection points: 4
#     Node 8, Type 0, BuildingBlock: QUQFOY_clean_sbu_3, # of connection points: 4
#     Node 9, Type 0, BuildingBlock: QUQFOY_clean_sbu_3, # of connection points: 4
#     Node 10, Type 0, BuildingBlock: QUQFOY_clean_sbu_3, # of connection points: 4
#     Node 11, Type 0, BuildingBlock: QUQFOY_clean_sbu_3, # of connection points: 4
#     Node 12, Type 0, BuildingBlock: QUQFOY_clean_sbu_3, # of connection points: 4
#     Node 13, Type 0, BuildingBlock: QUQFOY_clean_sbu_3, # of connection points: 4
#     Node 14, Type 0, BuildingBlock: QUQFOY_clean_sbu_3, # of connection points: 4
#     Node 15, Type 0, BuildingBlock: QUQFOY_clean_sbu_3, # of connection points: 4
#     Edge 16, Type (0, 0), BuildingBlock: OJICUG_clean_linker_0, # of connection points: 2
#     Edge 17, Type (0, 0), BuildingBlock: OJICUG_clean_linker_0, # of connection points: 2
#     Edge 18, Type (0, 0), BuildingBlock: OJICUG_clean_linker_0, # of connection points: 2
#     Edge 19, Type (0, 0), BuildingBlock: OJICUG_clean_linker_0, # of connection points: 2
#     Edge 20, Type (0, 0), BuildingBlock: OJICUG_clean_linker_0, # of connection points: 2
#     Edge 21, Type (0, 0), BuildingBlock: OJICUG_clean_linker_0, # of connection points: 2
#     Edge 22, Type (0, 0), BuildingBlock: OJICUG_clean_linker_0, # of connection points: 2
#     Edge 23, Type (0, 0), BuildingBlock: OJICUG_clean_linker_0, # of connection points: 2
#     Edge 24, Type (0, 0), BuildingBlock: OJICUG_clean_linker_0, # of connection points: 2
#     Edge 25, Type (0, 0), BuildingBlock: OJICUG_clean_linker_0, # of connection points: 2
#     Edge 26, Type (0, 0), BuildingBlock: OJICUG_clean_linker_0, # of connection points: 2
#     Edge 27, Type (0, 0), BuildingBlock: OJICUG_clean_linker_0, # of connection points: 2
#     Edge 28, Type (0, 0), BuildingBlock: OJICUG_clean_linker_0, # of connection points: 2
#     Edge 29, Type (0, 0), BuildingBlock: OJICUG_clean_linker_0, # of connection points: 2
#     Edge 30, Type (0, 0), BuildingBlock: OJICUG_clean_linker_0, # of connection points: 2
#     Edge 31, Type (0, 0), BuildingBlock: OJICUG_clean_linker_0, # of connection points: 2
#     Edge 32, Type (0, 0), BuildingBlock: OJICUG_clean_linker_0, # of connection points: 2
#     Edge 33, Type (0, 0), BuildingBlock: OJICUG_clean_linker_0, # of connection points: 2
#     Edge 34, Type (0, 0), BuildingBlock: OJICUG_clean_linker_0, # of connection points: 2
#     Edge 35, Type (0, 0), BuildingBlock: OJICUG_clean_linker_0, # of connection points: 2
#     Edge 36, Type (0, 0), BuildingBlock: OJICUG_clean_linker_0, # of connection points: 2
#     Edge 37, Type (0, 0), BuildingBlock: OJICUG_clean_linker_0, # of connection points: 2
#     Edge 38, Type (0, 0), BuildingBlock: OJICUG_clean_linker_0, # of connection points: 2
#     Edge 39, Type (0, 0), BuildingBlock: OJICUG_clean_linker_0, # of connection points: 2
#     Edge 40, Type (0, 0), BuildingBlock: OJICUG_clean_linker_0, # of connection points: 2
#     Edge 41, Type (0, 0), BuildingBlock: OJICUG_clean_linker_0, # of connection points: 2
#     Edge 42, Type (0, 0), BuildingBlock: OJICUG_clean_linker_0, # of connection points: 2
#     Edge 43, Type (0, 0), BuildingBlock: OJICUG_clean_linker_0, # of connection points: 2
#     Edge 44, Type (0, 0), BuildingBlock: OJICUG_clean_linker_0, # of connection points: 2
#     Edge 45, Type (0, 0), BuildingBlock: OJICUG_clean_linker_0, # of connection points: 2
#     Edge 46, Type (0, 0), BuildingBlock: OJICUG_clean_linker_0, # of connection points: 2
#     Edge 47, Type (0, 0), BuildingBlock: OJICUG_clean_linker_0, # of connection points: 2
# Relax obj value: 0.098
# Max RMSD: 0.236
# Mean RMSD: 0.236
data_MOF--net-umd--node1-QUQFOY_clean_sbu_3--edge1-OJICUG_clean_linker_0
_symmetry_space_group_name_H-M    P1
_symmetry_Int_Tables_number       1
_symmetry_cell_setting            triclinic
loop_
_symmetry_equiv_pos_as_xyz
'x, y, z'
_cell_length_a     29.239727
_cell_length_b     29.177702
_cell_length_c     41.830096
_cell_angle_alpha  90.353865
_cell_angle_beta   89.988046
_cell_angle_gamma 89.998046
loop_
_atom_site_label
_atom_site_type_symbol
_atom_site_fract_x
_atom_site_fract_y
_atom_site_fract_z
_atom_type_partial_charge
C0 C 0.25542 0.51199 0.17133 0.0
O1 O 0.24647 0.55187 0.16086 0.0
Cd2 Cd 0.22874 0.56994 0.10542 0.0
O3 O 0.25925 0.47817 0.15214 0.0
Cd4 Cd 0.25801 0.45807 0.09476 0.0
C5 C 0.14477 0.48692 0.09402 0.0
O6 O 0.28166 0.53085 0.07235 0.0
O7 O 0.26539 0.47733 0.03865 0.0
O8 O 0.329 0.42052 0.10514 0.0
C9 C 0.27561 0.51902 0.04338 0.0
O10 O 0.15787 0.52847 0.09656 0.0
C11 C 0.31781 0.3814 0.09419 0.0
O12 O 0.17347 0.45382 0.09433 0.0
O13 O 0.27721 0.37698 0.08358 0.0
C14 C 0.41906 0.19782 0.66989 0.0
O15 O 0.37804 0.1982 0.66012 0.0
Cd16 Cd 0.36938 0.17407 0.60444 0.0
O17 O 0.45103 0.19106 0.64999 0.0
Cd18 Cd 0.46216 0.18495 0.59256 0.0
C19 C 0.43326 0.07643 0.59732 0.0
O20 O 0.40084 0.22388 0.56301 0.0
O21 O 0.43614 0.16796 0.53933 0.0
O22 O 0.49797 0.25722 0.59894 0.0
C23 C 0.41172 0.20371 0.53699 0.0
O24 O 0.39314 0.09339 0.5986 0.0
C25 C 0.53768 0.24619 0.58958 0.0
O26 O 0.46804 0.10267 0.59696 0.0
O27 O 0.54349 0.20477 0.58056 0.0
C28 C 0.84132 0.45877 0.1737 0.0
O29 O 0.83977 0.4161 0.16787 0.0
Cd30 Cd 0.85409 0.39497 0.11242 0.0
O31 O 0.8441 0.48663 0.15069 0.0
Cd32 Cd 0.84018 0.48604 0.09249 0.0
C33 C 0.94936 0.457 0.09403 0.0
O34 O 0.79639 0.41908 0.07374 0.0
O35 O 0.84394 0.45006 0.04053 0.0
O36 O 0.77074 0.52427 0.10377 0.0
C37 C 0.80931 0.42464 0.04492 0.0
O38 O 0.93313 0.41746 0.1 0.0
C39 C 0.77897 0.56146 0.08942 0.0
O40 O 0.92275 0.49129 0.0913 0.0
O41 O 0.81728 0.5645 0.075 0.0
C42 C 0.47009 0.78056 0.68047 0.0
O43 O 0.51177 0.78574 0.67257 0.0
Cd44 Cd 0.53816 0.79498 0.61811 0.0
O45 O 0.43951 0.77511 0.65916 0.0
Cd46 Cd 0.43157 0.76748 0.60073 0.0
C47 C 0.46059 0.88014 0.59861 0.0
O48 O 0.50651 0.73642 0.58529 0.0
O49 O 0.46148 0.75895 0.54748 0.0
O50 O 0.39311 0.69745 0.61214 0.0
C51 C 0.49962 0.74195 0.55556 0.0
O52 O 0.50128 0.86643 0.60385 0.0
C53 C 0.35625 0.7062 0.59735 0.0
O54 O 0.4272 0.85189 0.59757 0.0
O55 O 0.35336 0.74515 0.5839 0.0
C56 C 0.25503 0.47996 0.30795 0.0
O57 O 0.24708 0.43996 0.31852 0.0
Cd58 Cd 0.22769 0.42384 0.37399 0.0
O59 O 0.25746 0.51394 0.32708 0.0
Cd60 Cd 0.25486 0.53318 0.38446 0.0
C61 C 0.14209 0.50516 0.3831 0.0
O62 O 0.27926 0.46123 0.40948 0.0
O63 O 0.25348 0.51528 0.44019 0.0
O64 O 0.32765 0.56879 0.37736 0.0
C65 C 0.26844 0.47469 0.43749 0.0
O66 O 0.15567 0.46371 0.38143 0.0
C67 C 0.31624 0.60861 0.38683 0.0
O68 O 0.17054 0.53844 0.38276 0.0
O69 O 0.27468 0.61438 0.39507 0.0
C70 C 0.46898 0.21982 0.80312 0.0
O71 O 0.51045 0.2139 0.8113 0.0
Cd72 Cd 0.53671 0.20466 0.86576 0.0
O73 O 0.43812 0.22568 0.82421 0.0
Cd74 Cd 0.42906 0.233 0.88265 0.0
C75 C 0.45834 0.12021 0.88555 0.0
O76 O 0.50395 0.26341 0.89766 0.0
O77 O 0.45878 0.24452 0.93614 0.0
O78 O 0.38957 0.30219 0.87039 0.0
C79 C 0.49752 0.25954 0.92754 0.0
O80 O 0.49909 0.1337 0.88024 0.0
C81 C 0.353 0.2934 0.88553 0.0
O82 O 0.42502 0.14856 0.8864 0.0
O83 O 0.35078 0.25483 0.89955 0.0
C84 C 0.83896 0.53142 0.30293 0.0
O85 O 0.8368 0.57409 0.30867 0.0
Cd86 Cd 0.85098 0.59573 0.36402 0.0
O87 O 0.84186 0.50368 0.326 0.0
Cd88 Cd 0.83739 0.50488 0.38421 0.0
C89 C 0.94647 0.53399 0.38219 0.0
O90 O 0.79408 0.57206 0.40339 0.0
O91 O 0.84273 0.54125 0.43591 0.0
O92 O 0.76753 0.46674 0.37391 0.0
C93 C 0.80815 0.56689 0.43198 0.0
O94 O 0.9301 0.57348 0.37625 0.0
C95 C 0.77607 0.42963 0.38828 0.0
O96 O 0.91997 0.49964 0.38507 0.0
O97 O 0.81479 0.42659 0.40216 0.0
C98 C 0.41793 0.80387 0.8132 0.0
O99 O 0.37678 0.80314 0.82271 0.0
Cd100 Cd 0.36748 0.82618 0.87856 0.0
O101 O 0.4496 0.81049 0.83334 0.0
Cd102 Cd 0.46028 0.81549 0.89083 0.0
C103 C 0.4309 0.92398 0.88697 0.0
O104 O 0.39897 0.77475 0.91904 0.0
O105 O 0.43359 0.82955 0.94437 0.0
O106 O 0.49684 0.74415 0.88216 0.0
C107 C 0.40961 0.7934 0.94564 0.0
O108 O 0.39085 0.90693 0.88527 0.0
C109 C 0.53623 0.75473 0.89237 0.0
O110 O 0.46574 0.89783 0.88736 0.0
O111 O 0.54147 0.79539 0.90311 0.0
C112 C 0.73815 0.48381 0.80957 0.0
O113 O 0.74712 0.44396 0.82009 0.0
Cd114 Cd 0.76485 0.42597 0.87553 0.0
O115 O 0.73427 0.51768 0.82873 0.0
Cd116 Cd 0.73545 0.53786 0.8861 0.0
C117 C 0.84871 0.50913 0.88688 0.0
O118 O 0.71186 0.46507 0.90851 0.0
O119 O 0.72805 0.5186 0.94221 0.0
O120 O 0.66443 0.57529 0.87568 0.0
C121 C 0.71788 0.47691 0.93748 0.0
O122 O 0.83564 0.46757 0.88437 0.0
C123 C 0.67553 0.61442 0.88667 0.0
O124 O 0.82 0.54221 0.88655 0.0
O125 O 0.71611 0.6189 0.8973 0.0
C126 C 0.57422 0.79701 0.31143 0.0
O127 O 0.61527 0.79667 0.32115 0.0
Cd128 Cd 0.62409 0.82086 0.37681 0.0
O129 O 0.5423 0.80378 0.33137 0.0
Cd130 Cd 0.53138 0.80996 0.38882 0.0
C131 C 0.56023 0.91849 0.38399 0.0
O132 O 0.59277 0.77112 0.41834 0.0
O133 O 0.55751 0.82709 0.442 0.0
O134 O 0.49566 0.73761 0.3827 0.0
C135 C 0.58193 0.79135 0.44435 0.0
O136 O 0.60035 0.90153 0.38265 0.0
C137 C 0.45593 0.74867 0.392 0.0
O138 O 0.52545 0.89224 0.38441 0.0
O139 O 0.45005 0.79015 0.40086 0.0
C140 C 0.15222 0.53689 0.80714 0.0
O141 O 0.1538 0.57957 0.81292 0.0
Cd142 Cd 0.13949 0.60082 0.86837 0.0
O143 O 0.1494 0.50909 0.83019 0.0
Cd144 Cd 0.15326 0.50983 0.8884 0.0
C145 C 0.04412 0.53902 0.88682 0.0
O146 O 0.19717 0.57676 0.9071 0.0
O147 O 0.14956 0.5459 0.94032 0.0
O148 O 0.22261 0.47139 0.87718 0.0
C149 C 0.18423 0.57126 0.93592 0.0
O150 O 0.06039 0.57852 0.88081 0.0
C151 C 0.21427 0.43425 0.89155 0.0
O152 O 0.0707 0.50471 0.88959 0.0
O153 O 0.17594 0.43136 0.90598 0.0
C154 C 0.5231 0.21434 0.30085 0.0
O155 O 0.48144 0.20916 0.30882 0.0
Cd156 Cd 0.45531 0.19997 0.36333 0.0
O157 O 0.55374 0.21979 0.32212 0.0
Cd158 Cd 0.56194 0.22744 0.38052 0.0
C159 C 0.53289 0.11478 0.38273 0.0
O160 O 0.48707 0.2586 0.39604 0.0
O161 O 0.53221 0.2362 0.43382 0.0
O162 O 0.6005 0.29732 0.36885 0.0
C163 C 0.49404 0.25317 0.42577 0.0
O164 O 0.49219 0.1285 0.37756 0.0
C165 C 0.63736 0.28861 0.38364 0.0
O166 O 0.56629 0.14302 0.38371 0.0
O167 O 0.6402 0.24976 0.39723 0.0
C168 C 0.73849 0.51542 0.67291 0.0
O169 O 0.7464 0.55538 0.66225 0.0
Cd170 Cd 0.76567 0.57117 0.60672 0.0
O171 O 0.73605 0.48137 0.65384 0.0
Cd172 Cd 0.73856 0.46186 0.59649 0.0
C173 C 0.85133 0.4899 0.59772 0.0
O174 O 0.71397 0.53367 0.57138 0.0
O175 O 0.73962 0.47955 0.5407 0.0
O176 O 0.66591 0.42613 0.60398 0.0
C177 C 0.72465 0.52014 0.54337 0.0
O178 O 0.83774 0.53136 0.59931 0.0
C179 C 0.6773 0.38631 0.59449 0.0
O180 O 0.82289 0.45662 0.59815 0.0
O181 O 0.71878 0.38062 0.58603 0.0
C182 C 0.52398 0.77514 0.17825 0.0
O183 O 0.48248 0.78104 0.17012 0.0
Cd184 Cd 0.45615 0.79037 0.11568 0.0
O185 O 0.55478 0.76935 0.15712 0.0
Cd186 Cd 0.56365 0.76218 0.09866 0.0
C187 C 0.5343 0.87495 0.09586 0.0
O188 O 0.48877 0.73166 0.08363 0.0
O189 O 0.53386 0.75088 0.04518 0.0
O190 O 0.60326 0.69297 0.11072 0.0
C191 C 0.49518 0.7357 0.05376 0.0
O192 O 0.49357 0.86143 0.10119 0.0
C193 C 0.6398 0.70189 0.09559 0.0
O194 O 0.56764 0.84662 0.09497 0.0
O195 O 0.64195 0.74054 0.08167 0.0
C196 C 0.15453 0.46386 0.67801 0.0
O197 O 0.15671 0.42119 0.67232 0.0
Cd198 Cd 0.14245 0.3994 0.61699 0.0
O199 O 0.1516 0.49154 0.6549 0.0
Cd200 Cd 0.15605 0.4901 0.59668 0.0
C201 C 0.04696 0.46107 0.59875 0.0
O202 O 0.19925 0.42284 0.5775 0.0
O203 O 0.15054 0.45367 0.54503 0.0
O204 O 0.22605 0.52805 0.60681 0.0
C205 C 0.18511 0.428 0.54892 0.0
O206 O 0.06333 0.42161 0.60476 0.0
C207 C 0.21752 0.5652 0.59248 0.0
O208 O 0.07347 0.49541 0.59582 0.0
O209 O 0.17873 0.56835 0.57871 0.0
C210 C 0.57492 0.19121 0.16804 0.0
O211 O 0.61606 0.19193 0.1585 0.0
Cd212 Cd 0.62532 0.1689 0.10266 0.0
O213 O 0.54321 0.18462 0.14792 0.0
Cd214 Cd 0.5325 0.1797 0.09043 0.0
C215 C 0.56174 0.07118 0.09431 0.0
O216 O 0.59384 0.22036 0.06221 0.0
O217 O 0.55921 0.16555 0.03689 0.0
O218 O 0.49608 0.25111 0.0991 0.0
C219 C 0.58319 0.2017 0.03561 0.0
O220 O 0.60181 0.0882 0.09599 0.0
C221 C 0.45669 0.24064 0.08883 0.0
O222 O 0.52692 0.09735 0.09392 0.0
O223 O 0.45137 0.19999 0.07809 0.0
C224 C 0.07715 0.43357 0.09546 0.0
C225 C 0.09504 0.4779 0.0917 0.0
H226 H 0.01696 0.39207 0.09919 0.0
C227 C 0.06466 0.51461 0.08692 0.0
H228 H 0.09963 0.40457 0.09913 0.0
C229 C 0.01753 0.50752 0.08688 0.0
C230 C -0.00053 0.46354 0.09171 0.0
H231 H 0.07719 0.5492 0.08362 0.0
H232 H 0.99527 0.53681 0.08368 0.0
C233 C 0.02978 0.42647 0.09554 0.0
C234 C 0.40828 0.94859 0.59659 0.0
C235 C 0.45264 0.9301 0.59587 0.0
H236 H 0.36724 0.00943 0.5978 0.0
C237 C 0.49022 0.96014 0.59447 0.0
H238 H 0.37862 0.92642 0.59773 0.0
C239 C 0.48378 0.00746 0.59463 0.0
C240 C 0.43957 0.02609 0.59619 0.0
H241 H 0.52492 0.94717 0.59372 0.0
H242 H 0.51363 0.02941 0.59389 0.0
C243 C 0.4018 0.99616 0.59678 0.0
C244 C 0.06201 0.47687 0.38922 0.0
C245 C 0.09225 0.51381 0.38476 0.0
H246 H 0.99272 0.45428 0.39213 0.0
C247 C 0.07415 0.55804 0.38099 0.0
H248 H 0.0747 0.44234 0.39248 0.0
C249 C 0.02674 0.56488 0.38075 0.0
C250 C 0.9966 0.52764 0.38441 0.0
H251 H 0.0965 0.5872 0.37757 0.0
H252 H 0.01376 0.59924 0.37719 0.0
C253 C 0.01485 0.4837 0.38909 0.0
C254 C 0.48129 0.99296 0.89045 0.0
C255 C 0.43713 0.97433 0.88835 0.0
H256 H 0.52244 0.05322 0.89168 0.0
C257 C 0.39939 0.00426 0.88727 0.0
H258 H 0.51112 0.97101 0.89159 0.0
C259 C 0.40589 0.05183 0.88742 0.0
C260 C 0.45025 0.07031 0.88856 0.0
H261 H 0.36486 0.99099 0.88583 0.0
H262 H 0.37629 0.07402 0.88582 0.0
C263 C 0.48776 0.04027 0.89056 0.0
C264 C 0.92882 0.48149 0.89409 0.0
C265 C 0.89844 0.51818 0.88921 0.0
H266 H -0.00181 0.45929 0.8974 0.0
C267 C 0.91633 0.56248 0.88534 0.0
H268 H 0.91627 0.44692 0.89748 0.0
C269 C 0.96371 0.56957 0.88524 0.0
C270 C 0.99401 0.53252 0.88917 0.0
H271 H 0.89386 0.59146 0.88158 0.0
H272 H 0.97654 0.60394 0.8815 0.0
C273 C 0.97594 0.48857 0.89411 0.0
C274 C 0.58521 0.04632 0.38468 0.0
C275 C 0.54085 0.06482 0.38546 0.0
H276 H 0.62624 0.98549 0.3834 0.0
C277 C 0.50327 0.03478 0.38692 0.0
H278 H 0.61486 0.0685 0.38349 0.0
C279 C 0.50972 0.98746 0.38675 0.0
C280 C 0.55392 0.96883 0.38512 0.0
H281 H 0.46857 0.04775 0.38772 0.0
H282 H 0.47986 0.96551 0.38753 0.0
C283 C 0.59168 -0.00124 0.38447 0.0
C284 C 0.93142 0.51816 0.59157 0.0
C285 C 0.90118 0.48125 0.59609 0.0
H286 H 0.00071 0.54075 0.58864 0.0
C287 C 0.91928 0.43703 0.59995 0.0
H288 H 0.91873 0.55269 0.58823 0.0
C289 C 0.96669 0.43019 0.60023 0.0
C290 C -0.00317 0.46742 0.5965 0.0
H291 H 0.89693 0.40788 0.60342 0.0
H292 H 0.97967 0.39585 0.60385 0.0
C293 C 0.97858 0.51134 0.59173 0.0
C294 C 0.59323 0.9909 0.09398 0.0
C295 C 0.55549 0.02083 0.09297 0.0
H296 H 0.61634 0.92115 0.09541 0.0
C297 C 0.51131 0.00221 0.09099 0.0
H298 H 0.62777 0.00417 0.09533 0.0
C299 C 0.50485 0.9549 0.09093 0.0
C300 C 0.54237 0.92485 0.09284 0.0
H301 H 0.48148 0.02416 0.08991 0.0
H302 H 0.47016 0.94194 0.08989 0.0
C303 C 0.58673 0.94333 0.09388 0.0
C304 C 0.25987 0.45109 0.25127 0.0
C305 C 0.25884 0.48797 0.27302 0.0
H306 H 0.26011 0.4297 0.20226 0.0
C307 C 0.25922 0.53294 0.26098 0.0
H308 H 0.25975 0.41606 0.25968 0.0
C309 C 0.25906 0.54083 0.22802 0.0
C310 C 0.25896 0.50395 0.20627 0.0
H311 H 0.25845 0.56223 0.27701 0.0
H312 H 0.25834 0.57586 0.21963 0.0
C313 C 0.26015 0.45898 0.21831 0.0
C314 C 0.39727 0.21258 0.72738 0.0
C315 C 0.431 0.20547 0.70397 0.0
H316 H 0.38275 0.22308 0.7771 0.0
C317 C 0.47726 0.20521 0.71335 0.0
H318 H 0.36139 0.21314 0.72096 0.0
C319 C 0.48952 0.21092 0.74534 0.0
C320 C 0.45589 0.21713 0.7689 0.0
H321 H 0.50429 0.20008 0.69598 0.0
H322 H 0.52544 0.20982 0.75161 0.0
C323 C 0.40959 0.2184 0.75954 0.0
C324 C 0.83896 0.52476 0.21233 0.0
C325 C 0.83966 0.47704 0.20684 0.0
H326 H 0.83803 0.5794 0.24679 0.0
C327 C 0.83921 0.44755 0.23319 0.0
H328 H 0.83913 0.54856 0.19256 0.0
C329 C 0.83861 0.46536 0.2643 0.0
C330 C 0.83834 0.51308 0.26979 0.0
H331 H 0.83967 0.41071 0.22983 0.0
H332 H 0.83858 0.44157 0.28407 0.0
C333 C 0.83825 0.54256 0.24343 0.0
C334 C 0.3971 0.78887 0.75557 0.0
C335 C 0.43043 0.79626 0.77921 0.0
H336 H 0.38344 0.77771 0.70581 0.0
C337 C 0.47685 0.79647 0.7702 0.0
H338 H 0.36113 0.78832 0.76172 0.0
C339 C 0.48966 0.79032 0.73835 0.0
C340 C 0.45644 0.78374 0.71456 0.0
H341 H 0.50358 0.8018 0.78776 0.0
H342 H 0.52569 0.79134 0.73236 0.0
C343 C 0.40998 0.78264 0.72356 0.0
C344 C 0.73345 0.53669 0.76252 0.0
C345 C 0.73461 0.49177 0.77462 0.0
H346 H 0.73385 0.57949 0.72108 0.0
C347 C 0.73448 0.45482 0.75293 0.0
H348 H 0.73351 0.56602 0.77852 0.0
C349 C 0.73432 0.4626 0.71996 0.0
C350 C 0.73471 0.50753 0.70785 0.0
H351 H 0.73519 0.41981 0.76138 0.0
H352 H 0.73506 0.43326 0.70398 0.0
C353 C 0.73372 0.54448 0.72954 0.0
C354 C 0.59587 0.78232 0.2539 0.0
C355 C 0.56219 0.78936 0.27736 0.0
H356 H 0.61027 0.77191 0.20416 0.0
C357 C 0.51591 0.78957 0.26805 0.0
H358 H 0.63177 0.78179 0.26028 0.0
C359 C 0.50358 0.7839 0.23607 0.0
C360 C 0.53715 0.77777 0.21246 0.0
H361 H 0.48892 0.79465 0.28545 0.0
H362 H 0.46763 0.78496 0.22984 0.0
C363 C 0.58347 0.77653 0.22176 0.0
C364 C 0.15458 0.47079 0.7686 0.0
C365 C 0.15388 0.51852 0.77403 0.0
H366 H 0.15549 0.41605 0.73422 0.0
C367 C 0.15433 0.54794 0.74763 0.0
H368 H 0.15441 0.44704 0.7884 0.0
C369 C 0.15491 0.53004 0.71655 0.0
C370 C 0.15517 0.4823 0.71112 0.0
H371 H 0.15386 0.58478 0.75094 0.0
H372 H 0.15493 0.55377 0.69674 0.0
C373 C 0.15527 0.45289 0.73752 0.0
C374 C 0.50337 0.20461 0.24299 0.0
C375 C 0.53665 0.21118 0.26673 0.0
H376 H 0.48932 0.19317 0.19359 0.0
C377 C 0.58308 0.21233 0.25768 0.0
H378 H 0.46736 0.20354 0.24903 0.0
C379 C 0.59587 0.20615 0.22565 0.0
C380 C 0.56249 0.19876 0.20205 0.0
H381 H 0.60967 0.21727 0.27539 0.0
H382 H 0.63184 0.20674 0.21945 0.0
C383 C 0.5161 0.19851 0.21112 0.0
C384 C 0.26047 0.56123 0.96066 0.0
C385 C 0.21558 0.57801 0.96309 0.0
H386 H 0.31574 0.52885 0.98551 0.0
C387 C 0.19737 0.58749 -0.0065 0.0
H388 H 0.27503 0.55301 0.9375 0.0
C389 C 0.22133 0.57492 0.02101 0.0
C390 C 0.26318 0.55169 0.0183 0.0
H391 H 0.16264 0.60002 -0.00408 0.0
H392 H 0.20436 0.5778 0.04396 0.0
C393 C 0.28383 0.5474 0.98814 0.0
C394 C 0.46038 0.28115 0.4765 0.0
C395 C 0.45685 0.25305 0.44929 0.0
H396 H 0.44536 0.28843 0.52636 0.0
C397 C 0.42667 0.2157 0.44955 0.0
H398 H 0.48413 0.30966 0.47687 0.0
C399 C 0.40538 0.20286 0.47805 0.0
C400 C 0.41332 0.22787 0.5063 0.0
H401 H 0.42418 0.19313 0.42894 0.0
H402 H 0.38708 0.17059 0.47882 0.0
C403 C 0.43799 0.26908 0.50477 0.0
C404 C 0.79618 0.40846 0.98734 0.0
C405 C 0.77796 0.41791 0.01775 0.0
H406 H 0.78918 0.41816 0.93689 0.0
C407 C 0.73307 0.43467 0.02019 0.0
H408 H 0.83091 0.39594 0.98492 0.0
C409 C 0.7097 0.44851 -0.00729 0.0
C410 C 0.73035 0.44424 0.96255 0.0
H411 H 0.7185 0.44287 0.04335 0.0
H412 H 0.67778 0.46703 -0.00465 0.0
C413 C 0.77221 0.42103 0.95984 0.0
C414 C 0.53343 0.71391 0.5049 0.0
C415 C 0.53686 0.74209 0.53208 0.0
H416 H 0.5485 0.70656 0.45505 0.0
C417 C 0.56694 0.77951 0.5318 0.0
H418 H 0.50976 0.68534 0.50455 0.0
C419 C 0.58823 0.79233 0.50329 0.0
C420 C 0.58038 0.76725 0.47506 0.0
H421 H 0.56934 0.80214 0.55238 0.0
H422 H 0.60645 0.82465 0.5025 0.0
C423 C 0.55581 0.72597 0.47663 0.0
C424 C 0.21659 0.41958 0.46295 0.0
C425 C 0.25848 0.44298 0.46364 0.0
H426 H 0.15977 0.39574 0.4906 0.0
C427 C 0.28112 0.44903 0.49294 0.0
H428 H 0.19813 0.41548 0.44065 0.0
C429 C 0.25966 0.4367 0.52153 0.0
C430 C 0.21474 0.41967 0.52103 0.0
H431 H 0.31302 0.46788 0.494 0.0
H432 H 0.27566 0.4463 0.54395 0.0
C433 C 0.19457 0.40845 0.49153 0.0
C434 C 0.56566 0.22036 0.94895 0.0
C435 C 0.5353 0.25752 0.95055 0.0
H436 H 0.60621 0.17317 0.97589 0.0
C437 C 0.53246 0.28344 0.97883 0.0
H438 H 0.56767 0.19943 0.9275 0.0
C439 C 0.5557 0.26929 0.00626 0.0
C440 C 0.58056 0.22811 0.00587 0.0
H441 H 0.50866 0.31181 0.98063 0.0
H442 H 0.5489 0.28693 0.02864 0.0
C443 C 0.58778 0.20538 0.97661 0.0
C444 C 0.73355 0.558 0.45929 0.0
C445 C 0.77842 0.57516 0.45983 0.0
H446 H 0.68022 0.5267 0.48676 0.0
C447 C 0.79849 0.58647 0.48935 0.0
H448 H 0.71764 0.54834 0.43684 0.0
C449 C 0.77642 0.57533 0.51791 0.0
C450 C 0.73461 0.5518 0.51719 0.0
H451 H 0.83325 0.59928 0.49031 0.0
H452 H 0.79483 0.57953 0.54023 0.0
C453 C 0.71206 0.54565 0.48786 0.0
C454 C 0.46026 0.7117 0.00249 0.0
C455 C 0.45739 0.73766 0.03076 0.0
H456 H 0.44388 0.70815 0.95268 0.0
C457 C 0.42703 0.77482 0.03232 0.0
H458 H 0.48407 0.68333 0.00073 0.0
C459 C 0.40494 0.78977 0.00463 0.0
C460 C 0.4122 0.767 0.97539 0.0
H461 H 0.42499 0.79577 0.05375 0.0
H462 H 0.3865 0.82198 0.00532 0.0
C463 C 0.43705 0.72582 0.97504 0.0
C464 C 0.342 0.30096 0.07909 0.0
C465 C 0.35165 0.34375 0.09332 0.0
H466 H 0.36784 0.2342 0.06633 0.0
C467 C 0.39526 0.35144 0.10624 0.0
H468 H 0.30864 0.29412 0.06889 0.0
C469 C 0.42868 0.31771 0.10468 0.0
C470 C 0.41962 0.27509 0.0902 0.0
H471 H 0.40394 0.38387 0.11744 0.0
H472 H 0.46191 0.32534 0.11485 0.0
C473 C 0.37581 0.26678 0.07756 0.0
C474 C 0.59784 0.35891 0.60247 0.0
C475 C 0.64287 0.34922 0.59305 0.0
H476 H 0.52999 0.33444 0.60854 0.0
C477 C 0.65362 0.3048 0.58207 0.0
H478 H 0.58823 0.39269 0.611 0.0
C479 C 0.61965 0.27076 0.58063 0.0
C480 C 0.57459 0.28085 0.59012 0.0
H481 H 0.68809 0.29641 0.57458 0.0
H482 H 0.6286 0.23677 0.57219 0.0
C483 C 0.56426 0.32531 0.60099 0.0
C484 C 0.70508 0.59252 0.1089 0.0
C485 C 0.7448 0.59883 0.09054 0.0
H486 H 0.64166 0.61982 0.12498 0.0
C487 C 0.75065 0.64029 0.07407 0.0
H488 H 0.6994 0.56117 0.12207 0.0
C489 C 0.71689 0.67453 0.07579 0.0
C490 C 0.67703 0.66764 0.09404 0.0
H491 H 0.78097 0.64611 0.0598 0.0
H492 H 0.72178 0.70605 0.06269 0.0
C493 C 0.6718 0.62636 0.11064 0.0
C494 C 0.24482 0.64453 0.57748 0.0
C495 C 0.25186 0.60243 0.59291 0.0
H496 H 0.27253 0.71102 0.56672 0.0
C497 C 0.29284 0.59548 0.60973 0.0
H498 H 0.21352 0.65085 0.56438 0.0
C499 C 0.32602 0.62944 0.61116 0.0
C500 C 0.31943 0.6715 0.59577 0.0
H501 H 0.29953 0.56358 0.62199 0.0
H502 H 0.35708 0.62244 0.62437 0.0
C503 C 0.27847 0.6789 0.57887 0.0
C504 C 0.37383 0.72423 0.40058 0.0
C505 C 0.41904 0.71397 0.39153 0.0
H506 H 0.30525 0.69875 0.40618 0.0
C507 C 0.42952 0.66934 0.38109 0.0
H508 H 0.36476 0.75836 0.40868 0.0
C509 C 0.39593 0.63576 0.37955 0.0
C510 C 0.35073 0.64563 0.38846 0.0
H511 H 0.46392 0.66007 0.37391 0.0
H512 H 0.40566 0.60185 0.37134 0.0
C513 C 0.33985 0.69021 0.39908 0.0
C514 C 0.32114 0.3689 0.87029 0.0
C515 C 0.31585 0.32773 0.88702 0.0
H516 H 0.29369 0.43411 0.85874 0.0
C517 C 0.27603 0.32106 0.90535 0.0
H518 H 0.35125 0.37528 0.85589 0.0
C519 C 0.24238 0.3554 0.90703 0.0
C520 C 0.2483 0.39677 0.89045 0.0
H521 H 0.2711 0.28963 0.91855 0.0
H522 H 0.21209 0.34975 0.92138 0.0
C523 C 0.28797 0.40285 0.872 0.0
C524 C 0.71502 0.31607 0.40222 0.0
C525 C 0.67425 0.32324 0.38507 0.0
H526 H 0.7798 0.34433 0.4169 0.0
C527 C 0.66788 0.36505 0.36931 0.0
H528 H 0.7208 0.28415 0.41467 0.0
C529 C 0.70106 0.39902 0.37068 0.0
C530 C 0.74181 0.39233 0.3878 0.0
H531 H 0.63697 0.37186 0.35587 0.0
H532 H 0.69452 0.43073 0.35814 0.0
C533 C 0.74868 0.35045 0.40356 0.0
C534 C 0.598 0.64421 0.87469 0.0
C535 C 0.64159 0.65198 0.8876 0.0
H536 H 0.53125 0.67013 0.86617 0.0
C537 C 0.65112 0.69473 0.90192 0.0
H538 H 0.58941 0.6118 0.86342 0.0
C539 C 0.6172 0.72881 0.90354 0.0
C540 C 0.57341 0.72041 0.89091 0.0
H541 H 0.68447 0.70164 0.91212 0.0
H542 H 0.62508 0.76136 0.91483 0.0
C543 C 0.56446 0.67783 0.87634 0.0
loop_
_geom_bond_atom_site_label_1
_geom_bond_atom_site_label_2
_geom_bond_distance
_geom_bond_site_symmetry_2
_ccdc_geom_bond_type
C0 O1 1.306 . S
C0 O3 1.160 . S
O1 C0 1.306 . S
O1 Cd2 2.228 . S
Cd2 O1 2.228 . S
Cd2 O6 2.273 . S
Cd2 O10 2.277 . S
O3 C0 1.160 . S
O3 Cd4 2.203 . S
Cd4 O3 2.203 . S
Cd4 O6 2.411 . S
Cd4 O7 2.333 . S
Cd4 O8 2.352 . S
Cd4 O12 2.277 . S
Cd4 O13 2.356 . S
C5 O10 1.209 . S
C5 O12 1.226 . S
O6 Cd2 2.273 . S
O6 Cd4 2.411 . S
O6 C9 1.320 . S
O7 Cd4 2.333 . S
O7 C9 1.214 . S
O8 Cd4 2.352 . S
O8 C11 1.258 . S
C9 O6 1.320 . S
C9 O7 1.214 . S
O10 Cd2 2.277 . S
O10 C5 1.209 . S
C11 O8 1.258 . S
C11 O13 1.282 . S
O12 Cd4 2.277 . S
O12 C5 1.226 . S
O13 Cd4 2.356 . S
O13 C11 1.282 . S
C14 O15 1.306 . S
C14 O17 1.160 . S
O15 C14 1.306 . S
O15 Cd16 2.228 . S
Cd16 O15 2.228 . S
Cd16 O20 2.273 . S
Cd16 O24 2.277 . S
O17 C14 1.160 . S
O17 Cd18 2.203 . S
Cd18 O17 2.203 . S
Cd18 O20 2.411 . S
Cd18 O21 2.333 . S
Cd18 O22 2.352 . S
Cd18 O26 2.277 . S
Cd18 O27 2.356 . S
C19 O24 1.209 . S
C19 O26 1.226 . S
O20 Cd16 2.273 . S
O20 Cd18 2.411 . S
O20 C23 1.320 . S
O21 Cd18 2.333 . S
O21 C23 1.214 . S
O22 Cd18 2.352 . S
O22 C25 1.258 . S
C23 O20 1.320 . S
C23 O21 1.214 . S
O24 Cd16 2.277 . S
O24 C19 1.209 . S
C25 O22 1.258 . S
C25 O27 1.282 . S
O26 Cd18 2.277 . S
O26 C19 1.226 . S
O27 Cd18 2.356 . S
O27 C25 1.282 . S
C28 O29 1.306 . S
C28 O31 1.160 . S
O29 C28 1.306 . S
O29 Cd30 2.228 . S
Cd30 O29 2.228 . S
Cd30 O34 2.273 . S
Cd30 O38 2.277 . S
O31 C28 1.160 . S
O31 Cd32 2.203 . S
Cd32 O31 2.203 . S
Cd32 O34 2.411 . S
Cd32 O35 2.333 . S
Cd32 O36 2.352 . S
Cd32 O40 2.277 . S
Cd32 O41 2.356 . S
C33 O38 1.209 . S
C33 O40 1.226 . S
O34 Cd30 2.273 . S
O34 Cd32 2.411 . S
O34 C37 1.320 . S
O35 Cd32 2.333 . S
O35 C37 1.214 . S
O36 Cd32 2.352 . S
O36 C39 1.258 . S
C37 O34 1.320 . S
C37 O35 1.214 . S
O38 Cd30 2.277 . S
O38 C33 1.209 . S
C39 O36 1.258 . S
C39 O41 1.282 . S
O40 Cd32 2.277 . S
O40 C33 1.226 . S
O41 Cd32 2.356 . S
O41 C39 1.282 . S
C42 O43 1.306 . S
C42 O45 1.160 . S
O43 C42 1.306 . S
O43 Cd44 2.228 . S
Cd44 O43 2.228 . S
Cd44 O48 2.273 . S
Cd44 O52 2.277 . S
O45 C42 1.160 . S
O45 Cd46 2.203 . S
Cd46 O45 2.203 . S
Cd46 O48 2.411 . S
Cd46 O49 2.333 . S
Cd46 O50 2.352 . S
Cd46 O54 2.277 . S
Cd46 O55 2.356 . S
C47 O52 1.209 . S
C47 O54 1.226 . S
O48 Cd44 2.273 . S
O48 Cd46 2.411 . S
O48 C51 1.320 . S
O49 Cd46 2.333 . S
O49 C51 1.214 . S
O50 Cd46 2.352 . S
O50 C53 1.258 . S
C51 O48 1.320 . S
C51 O49 1.214 . S
O52 Cd44 2.277 . S
O52 C47 1.209 . S
C53 O50 1.258 . S
C53 O55 1.282 . S
O54 Cd46 2.277 . S
O54 C47 1.226 . S
O55 Cd46 2.356 . S
O55 C53 1.282 . S
C56 O57 1.306 . S
C56 O59 1.160 . S
O57 C56 1.306 . S
O57 Cd58 2.228 . S
Cd58 O57 2.228 . S
Cd58 O62 2.273 . S
Cd58 O66 2.277 . S
O59 C56 1.160 . S
O59 Cd60 2.203 . S
Cd60 O59 2.203 . S
Cd60 O62 2.411 . S
Cd60 O63 2.333 . S
Cd60 O64 2.352 . S
Cd60 O68 2.277 . S
Cd60 O69 2.356 . S
C61 O66 1.209 . S
C61 O68 1.226 . S
O62 Cd58 2.273 . S
O62 Cd60 2.411 . S
O62 C65 1.320 . S
O63 Cd60 2.333 . S
O63 C65 1.214 . S
O64 Cd60 2.352 . S
O64 C67 1.258 . S
C65 O62 1.320 . S
C65 O63 1.214 . S
O66 Cd58 2.277 . S
O66 C61 1.209 . S
C67 O64 1.258 . S
C67 O69 1.282 . S
O68 Cd60 2.277 . S
O68 C61 1.226 . S
O69 Cd60 2.356 . S
O69 C67 1.282 . S
C70 O71 1.306 . S
C70 O73 1.160 . S
O71 C70 1.306 . S
O71 Cd72 2.228 . S
Cd72 O71 2.228 . S
Cd72 O76 2.273 . S
Cd72 O80 2.277 . S
O73 C70 1.160 . S
O73 Cd74 2.203 . S
Cd74 O73 2.203 . S
Cd74 O76 2.411 . S
Cd74 O77 2.333 . S
Cd74 O78 2.352 . S
Cd74 O82 2.277 . S
Cd74 O83 2.356 . S
C75 O80 1.209 . S
C75 O82 1.226 . S
O76 Cd72 2.273 . S
O76 Cd74 2.411 . S
O76 C79 1.320 . S
O77 Cd74 2.333 . S
O77 C79 1.214 . S
O78 Cd74 2.352 . S
O78 C81 1.258 . S
C79 O76 1.320 . S
C79 O77 1.214 . S
O80 Cd72 2.277 . S
O80 C75 1.209 . S
C81 O78 1.258 . S
C81 O83 1.282 . S
O82 Cd74 2.277 . S
O82 C75 1.226 . S
O83 Cd74 2.356 . S
O83 C81 1.282 . S
C84 O85 1.306 . S
C84 O87 1.160 . S
O85 C84 1.306 . S
O85 Cd86 2.228 . S
Cd86 O85 2.228 . S
Cd86 O90 2.273 . S
Cd86 O94 2.277 . S
O87 C84 1.160 . S
O87 Cd88 2.203 . S
Cd88 O87 2.203 . S
Cd88 O90 2.411 . S
Cd88 O91 2.333 . S
Cd88 O92 2.352 . S
Cd88 O96 2.277 . S
Cd88 O97 2.356 . S
C89 O94 1.209 . S
C89 O96 1.226 . S
O90 Cd86 2.273 . S
O90 Cd88 2.411 . S
O90 C93 1.320 . S
O91 Cd88 2.333 . S
O91 C93 1.214 . S
O92 Cd88 2.352 . S
O92 C95 1.258 . S
C93 O90 1.320 . S
C93 O91 1.214 . S
O94 Cd86 2.277 . S
O94 C89 1.209 . S
C95 O92 1.258 . S
C95 O97 1.282 . S
O96 Cd88 2.277 . S
O96 C89 1.226 . S
O97 Cd88 2.356 . S
O97 C95 1.282 . S
C98 O99 1.306 . S
C98 O101 1.160 . S
O99 C98 1.306 . S
O99 Cd100 2.228 . S
Cd100 O99 2.228 . S
Cd100 O104 2.273 . S
Cd100 O108 2.277 . S
O101 C98 1.160 . S
O101 Cd102 2.203 . S
Cd102 O101 2.203 . S
Cd102 O104 2.411 . S
Cd102 O105 2.333 . S
Cd102 O106 2.352 . S
Cd102 O110 2.277 . S
Cd102 O111 2.356 . S
C103 O108 1.209 . S
C103 O110 1.226 . S
O104 Cd100 2.273 . S
O104 Cd102 2.411 . S
O104 C107 1.320 . S
O105 Cd102 2.333 . S
O105 C107 1.214 . S
O106 Cd102 2.352 . S
O106 C109 1.258 . S
C107 O104 1.320 . S
C107 O105 1.214 . S
O108 Cd100 2.277 . S
O108 C103 1.209 . S
C109 O106 1.258 . S
C109 O111 1.282 . S
O110 Cd102 2.277 . S
O110 C103 1.226 . S
O111 Cd102 2.356 . S
O111 C109 1.282 . S
C112 O113 1.306 . S
C112 O115 1.160 . S
O113 C112 1.306 . S
O113 Cd114 2.228 . S
Cd114 O113 2.228 . S
Cd114 O118 2.273 . S
Cd114 O122 2.277 . S
O115 C112 1.160 . S
O115 Cd116 2.203 . S
Cd116 O115 2.203 . S
Cd116 O118 2.411 . S
Cd116 O119 2.333 . S
Cd116 O120 2.352 . S
Cd116 O124 2.277 . S
Cd116 O125 2.356 . S
C117 O122 1.209 . S
C117 O124 1.226 . S
O118 Cd114 2.273 . S
O118 Cd116 2.411 . S
O118 C121 1.320 . S
O119 Cd116 2.333 . S
O119 C121 1.214 . S
O120 Cd116 2.352 . S
O120 C123 1.258 . S
C121 O118 1.320 . S
C121 O119 1.214 . S
O122 Cd114 2.277 . S
O122 C117 1.209 . S
C123 O120 1.258 . S
C123 O125 1.282 . S
O124 Cd116 2.277 . S
O124 C117 1.226 . S
O125 Cd116 2.356 . S
O125 C123 1.282 . S
C126 O127 1.306 . S
C126 O129 1.160 . S
O127 C126 1.306 . S
O127 Cd128 2.228 . S
Cd128 O127 2.228 . S
Cd128 O132 2.273 . S
Cd128 O136 2.277 . S
O129 C126 1.160 . S
O129 Cd130 2.203 . S
Cd130 O129 2.203 . S
Cd130 O132 2.411 . S
Cd130 O133 2.333 . S
Cd130 O134 2.352 . S
Cd130 O138 2.277 . S
Cd130 O139 2.356 . S
C131 O136 1.209 . S
C131 O138 1.226 . S
O132 Cd128 2.273 . S
O132 Cd130 2.411 . S
O132 C135 1.320 . S
O133 Cd130 2.333 . S
O133 C135 1.214 . S
O134 Cd130 2.352 . S
O134 C137 1.258 . S
C135 O132 1.320 . S
C135 O133 1.214 . S
O136 Cd128 2.277 . S
O136 C131 1.209 . S
C137 O134 1.258 . S
C137 O139 1.282 . S
O138 Cd130 2.277 . S
O138 C131 1.226 . S
O139 Cd130 2.356 . S
O139 C137 1.282 . S
C140 O141 1.306 . S
C140 O143 1.160 . S
O141 C140 1.306 . S
O141 Cd142 2.228 . S
Cd142 O141 2.228 . S
Cd142 O146 2.273 . S
Cd142 O150 2.277 . S
O143 C140 1.160 . S
O143 Cd144 2.203 . S
Cd144 O143 2.203 . S
Cd144 O146 2.411 . S
Cd144 O147 2.333 . S
Cd144 O148 2.352 . S
Cd144 O152 2.277 . S
Cd144 O153 2.356 . S
C145 O150 1.209 . S
C145 O152 1.226 . S
O146 Cd142 2.273 . S
O146 Cd144 2.411 . S
O146 C149 1.320 . S
O147 Cd144 2.333 . S
O147 C149 1.214 . S
O148 Cd144 2.352 . S
O148 C151 1.258 . S
C149 O146 1.320 . S
C149 O147 1.214 . S
O150 Cd142 2.277 . S
O150 C145 1.209 . S
C151 O148 1.258 . S
C151 O153 1.282 . S
O152 Cd144 2.277 . S
O152 C145 1.226 . S
O153 Cd144 2.356 . S
O153 C151 1.282 . S
C154 O155 1.306 . S
C154 O157 1.160 . S
O155 C154 1.306 . S
O155 Cd156 2.228 . S
Cd156 O155 2.228 . S
Cd156 O160 2.273 . S
Cd156 O164 2.277 . S
O157 C154 1.160 . S
O157 Cd158 2.203 . S
Cd158 O157 2.203 . S
Cd158 O160 2.411 . S
Cd158 O161 2.333 . S
Cd158 O162 2.352 . S
Cd158 O166 2.277 . S
Cd158 O167 2.356 . S
C159 O164 1.209 . S
C159 O166 1.226 . S
O160 Cd156 2.273 . S
O160 Cd158 2.411 . S
O160 C163 1.320 . S
O161 Cd158 2.333 . S
O161 C163 1.214 . S
O162 Cd158 2.352 . S
O162 C165 1.258 . S
C163 O160 1.320 . S
C163 O161 1.214 . S
O164 Cd156 2.277 . S
O164 C159 1.209 . S
C165 O162 1.258 . S
C165 O167 1.282 . S
O166 Cd158 2.277 . S
O166 C159 1.226 . S
O167 Cd158 2.356 . S
O167 C165 1.282 . S
C168 O169 1.306 . S
C168 O171 1.160 . S
O169 C168 1.306 . S
O169 Cd170 2.228 . S
Cd170 O169 2.228 . S
Cd170 O174 2.273 . S
Cd170 O178 2.277 . S
O171 C168 1.160 . S
O171 Cd172 2.203 . S
Cd172 O171 2.203 . S
Cd172 O174 2.411 . S
Cd172 O175 2.333 . S
Cd172 O176 2.352 . S
Cd172 O180 2.277 . S
Cd172 O181 2.356 . S
C173 O178 1.209 . S
C173 O180 1.226 . S
O174 Cd170 2.273 . S
O174 Cd172 2.411 . S
O174 C177 1.320 . S
O175 Cd172 2.333 . S
O175 C177 1.214 . S
O176 Cd172 2.352 . S
O176 C179 1.258 . S
C177 O174 1.320 . S
C177 O175 1.214 . S
O178 Cd170 2.277 . S
O178 C173 1.209 . S
C179 O176 1.258 . S
C179 O181 1.282 . S
O180 Cd172 2.277 . S
O180 C173 1.226 . S
O181 Cd172 2.356 . S
O181 C179 1.282 . S
C182 O183 1.306 . S
C182 O185 1.160 . S
O183 C182 1.306 . S
O183 Cd184 2.228 . S
Cd184 O183 2.228 . S
Cd184 O188 2.273 . S
Cd184 O192 2.277 . S
O185 C182 1.160 . S
O185 Cd186 2.203 . S
Cd186 O185 2.203 . S
Cd186 O188 2.411 . S
Cd186 O189 2.333 . S
Cd186 O190 2.352 . S
Cd186 O194 2.277 . S
Cd186 O195 2.356 . S
C187 O192 1.209 . S
C187 O194 1.226 . S
O188 Cd184 2.273 . S
O188 Cd186 2.411 . S
O188 C191 1.320 . S
O189 Cd186 2.333 . S
O189 C191 1.214 . S
O190 Cd186 2.352 . S
O190 C193 1.258 . S
C191 O188 1.320 . S
C191 O189 1.214 . S
O192 Cd184 2.277 . S
O192 C187 1.209 . S
C193 O190 1.258 . S
C193 O195 1.282 . S
O194 Cd186 2.277 . S
O194 C187 1.226 . S
O195 Cd186 2.356 . S
O195 C193 1.282 . S
C196 O197 1.306 . S
C196 O199 1.160 . S
O197 C196 1.306 . S
O197 Cd198 2.228 . S
Cd198 O197 2.228 . S
Cd198 O202 2.273 . S
Cd198 O206 2.277 . S
O199 C196 1.160 . S
O199 Cd200 2.203 . S
Cd200 O199 2.203 . S
Cd200 O202 2.411 . S
Cd200 O203 2.333 . S
Cd200 O204 2.352 . S
Cd200 O208 2.277 . S
Cd200 O209 2.356 . S
C201 O206 1.209 . S
C201 O208 1.226 . S
O202 Cd198 2.273 . S
O202 Cd200 2.411 . S
O202 C205 1.320 . S
O203 Cd200 2.333 . S
O203 C205 1.214 . S
O204 Cd200 2.352 . S
O204 C207 1.258 . S
C205 O202 1.320 . S
C205 O203 1.214 . S
O206 Cd198 2.277 . S
O206 C201 1.209 . S
C207 O204 1.258 . S
C207 O209 1.282 . S
O208 Cd200 2.277 . S
O208 C201 1.226 . S
O209 Cd200 2.356 . S
O209 C207 1.282 . S
C210 O211 1.306 . S
C210 O213 1.160 . S
O211 C210 1.306 . S
O211 Cd212 2.228 . S
Cd212 O211 2.228 . S
Cd212 O216 2.273 . S
Cd212 O220 2.277 . S
O213 C210 1.160 . S
O213 Cd214 2.203 . S
Cd214 O213 2.203 . S
Cd214 O216 2.411 . S
Cd214 O217 2.333 . S
Cd214 O218 2.352 . S
Cd214 O222 2.277 . S
Cd214 O223 2.356 . S
C215 O220 1.209 . S
C215 O222 1.226 . S
O216 Cd212 2.273 . S
O216 Cd214 2.411 . S
O216 C219 1.320 . S
O217 Cd214 2.333 . S
O217 C219 1.214 . S
O218 Cd214 2.352 . S
O218 C221 1.258 . S
C219 O216 1.320 . S
C219 O217 1.214 . S
O220 Cd212 2.277 . S
O220 C215 1.209 . S
C221 O218 1.258 . S
C221 O223 1.282 . S
O222 Cd214 2.277 . S
O222 C215 1.226 . S
O223 Cd214 2.356 . S
O223 C221 1.282 . S
C224 C225 1.387 . S
C224 H228 0.950 . S
C224 C233 1.390 1_455 S
C225 C224 1.387 . S
C225 C227 1.387 . S
H226 C233 0.950 . S
C227 C225 1.387 . S
C227 C229 1.390 1_455 S
C227 H231 0.950 . S
H228 C224 0.950 . S
C229 C227 1.390 1_655 S
C229 C230 1.387 . S
C229 H232 0.950 . S
C230 C229 1.387 . S
C230 C233 1.387 . S
H231 C227 0.950 . S
H232 C229 0.950 . S
C233 C224 1.390 1_655 S
C233 H226 0.950 . S
C233 C230 1.387 . S
C234 C235 1.387 . S
C234 H238 0.950 . S
C234 C243 1.390 1_565 S
C235 C234 1.387 . S
C235 C237 1.387 . S
H236 C243 0.950 . S
C237 C235 1.387 . S
C237 C239 1.390 1_565 S
C237 H241 0.950 . S
H238 C234 0.950 . S
C239 C237 1.390 1_545 S
C239 C240 1.387 . S
C239 H242 0.950 . S
C240 C239 1.387 . S
C240 C243 1.387 . S
H241 C237 0.950 . S
H242 C239 0.950 . S
C243 C234 1.390 1_545 S
C243 H236 0.950 . S
C243 C240 1.387 . S
C244 C245 1.387 . S
C244 H248 0.950 . S
C244 C253 1.390 1_455 S
C245 C244 1.387 . S
C245 C247 1.387 . S
H246 C253 0.950 . S
C247 C245 1.387 . S
C247 C249 1.390 1_455 S
C247 H251 0.950 . S
H248 C244 0.950 . S
C249 C247 1.390 1_655 S
C249 C250 1.387 . S
C249 H252 0.950 . S
C250 C249 1.387 . S
C250 C253 1.387 . S
H251 C247 0.950 . S
H252 C249 0.950 . S
C253 C244 1.390 1_655 S
C253 H246 0.950 . S
C253 C250 1.387 . S
C254 C255 1.387 . S
C254 H258 0.950 . S
C254 C263 1.390 1_565 S
C255 C254 1.387 . S
C255 C257 1.387 . S
H256 C263 0.950 . S
C257 C255 1.387 . S
C257 C259 1.390 1_565 S
C257 H261 0.950 . S
H258 C254 0.950 . S
C259 C257 1.390 1_545 S
C259 C260 1.387 . S
C259 H262 0.950 . S
C260 C259 1.387 . S
C260 C263 1.387 . S
H261 C257 0.950 . S
H262 C259 0.950 . S
C263 C254 1.390 1_545 S
C263 H256 0.950 . S
C263 C260 1.387 . S
C264 C265 1.387 . S
C264 H268 0.950 . S
C264 C273 1.390 1_655 S
C265 C264 1.387 . S
C265 C267 1.387 . S
H266 C273 0.950 . S
C267 C265 1.387 . S
C267 C269 1.390 1_655 S
C267 H271 0.950 . S
H268 C264 0.950 . S
C269 C267 1.390 1_455 S
C269 C270 1.387 . S
C269 H272 0.950 . S
C270 C269 1.387 . S
C270 C273 1.387 . S
H271 C267 0.950 . S
H272 C269 0.950 . S
C273 C264 1.390 1_455 S
C273 H266 0.950 . S
C273 C270 1.387 . S
C274 C275 1.387 . S
C274 H278 0.950 . S
C274 C283 1.390 1_545 S
C275 C274 1.387 . S
C275 C277 1.387 . S
H276 C283 0.950 . S
C277 C275 1.387 . S
C277 C279 1.390 1_545 S
C277 H281 0.950 . S
H278 C274 0.950 . S
C279 C277 1.390 1_565 S
C279 C280 1.387 . S
C279 H282 0.950 . S
C280 C279 1.387 . S
C280 C283 1.387 . S
H281 C277 0.950 . S
H282 C279 0.950 . S
C283 C274 1.390 1_565 S
C283 H276 0.950 . S
C283 C280 1.387 . S
C284 C285 1.387 . S
C284 H288 0.950 . S
C284 C293 1.390 1_655 S
C285 C284 1.387 . S
C285 C287 1.387 . S
H286 C293 0.950 . S
C287 C285 1.387 . S
C287 C289 1.390 1_655 S
C287 H291 0.950 . S
H288 C284 0.950 . S
C289 C287 1.390 1_455 S
C289 C290 1.387 . S
C289 H292 0.950 . S
C290 C289 1.387 . S
C290 C293 1.387 . S
H291 C287 0.950 . S
H292 C289 0.950 . S
C293 C284 1.390 1_455 S
C293 H286 0.950 . S
C293 C290 1.387 . S
C294 C295 1.387 . S
C294 H298 0.950 . S
C294 C303 1.390 1_545 S
C295 C294 1.387 . S
C295 C297 1.387 . S
H296 C303 0.950 . S
C297 C295 1.387 . S
C297 C299 1.390 1_545 S
C297 H301 0.950 . S
H298 C294 0.950 . S
C299 C297 1.390 1_565 S
C299 C300 1.387 . S
C299 H302 0.950 . S
C300 C299 1.387 . S
C300 C303 1.387 . S
H301 C297 0.950 . S
H302 C299 0.950 . S
C303 C294 1.390 1_565 S
C303 H296 0.950 . S
C303 C300 1.387 . S
C304 C305 1.387 . S
C304 H308 0.950 . S
C304 C313 1.390 . S
C305 C304 1.387 . S
C305 C307 1.387 . S
H306 C313 0.950 . S
C307 C305 1.387 . S
C307 C309 1.390 . S
C307 H311 0.950 . S
H308 C304 0.950 . S
C309 C307 1.390 . S
C309 C310 1.387 . S
C309 H312 0.950 . S
C310 C309 1.387 . S
C310 C313 1.387 . S
H311 C307 0.950 . S
H312 C309 0.950 . S
C313 C304 1.390 . S
C313 H306 0.950 . S
C313 C310 1.387 . S
C314 C315 1.387 . S
C314 H318 0.950 . S
C314 C323 1.390 . S
C315 C314 1.387 . S
C315 C317 1.387 . S
H316 C323 0.950 . S
C317 C315 1.387 . S
C317 C319 1.390 . S
C317 H321 0.950 . S
H318 C314 0.950 . S
C319 C317 1.390 . S
C319 C320 1.387 . S
C319 H322 0.950 . S
C320 C319 1.387 . S
C320 C323 1.387 . S
H321 C317 0.950 . S
H322 C319 0.950 . S
C323 C314 1.390 . S
C323 H316 0.950 . S
C323 C320 1.387 . S
C324 C325 1.387 . S
C324 H328 0.950 . S
C324 C333 1.390 . S
C325 C324 1.387 . S
C325 C327 1.387 . S
H326 C333 0.950 . S
C327 C325 1.387 . S
C327 C329 1.390 . S
C327 H331 0.950 . S
H328 C324 0.950 . S
C329 C327 1.390 . S
C329 C330 1.387 . S
C329 H332 0.950 . S
C330 C329 1.387 . S
C330 C333 1.387 . S
H331 C327 0.950 . S
H332 C329 0.950 . S
C333 C324 1.390 . S
C333 H326 0.950 . S
C333 C330 1.387 . S
C334 C335 1.387 . S
C334 H338 0.950 . S
C334 C343 1.390 . S
C335 C334 1.387 . S
C335 C337 1.387 . S
H336 C343 0.950 . S
C337 C335 1.387 . S
C337 C339 1.390 . S
C337 H341 0.950 . S
H338 C334 0.950 . S
C339 C337 1.390 . S
C339 C340 1.387 . S
C339 H342 0.950 . S
C340 C339 1.387 . S
C340 C343 1.387 . S
H341 C337 0.950 . S
H342 C339 0.950 . S
C343 C334 1.390 . S
C343 H336 0.950 . S
C343 C340 1.387 . S
C344 C345 1.387 . S
C344 H348 0.950 . S
C344 C353 1.390 . S
C345 C344 1.387 . S
C345 C347 1.387 . S
H346 C353 0.950 . S
C347 C345 1.387 . S
C347 C349 1.390 . S
C347 H351 0.950 . S
H348 C344 0.950 . S
C349 C347 1.390 . S
C349 C350 1.387 . S
C349 H352 0.950 . S
C350 C349 1.387 . S
C350 C353 1.387 . S
H351 C347 0.950 . S
H352 C349 0.950 . S
C353 C344 1.390 . S
C353 H346 0.950 . S
C353 C350 1.387 . S
C354 C355 1.387 . S
C354 H358 0.950 . S
C354 C363 1.390 . S
C355 C354 1.387 . S
C355 C357 1.387 . S
H356 C363 0.950 . S
C357 C355 1.387 . S
C357 C359 1.390 . S
C357 H361 0.950 . S
H358 C354 0.950 . S
C359 C357 1.390 . S
C359 C360 1.387 . S
C359 H362 0.950 . S
C360 C359 1.387 . S
C360 C363 1.387 . S
H361 C357 0.950 . S
H362 C359 0.950 . S
C363 C354 1.390 . S
C363 H356 0.950 . S
C363 C360 1.387 . S
C364 C365 1.387 . S
C364 H368 0.950 . S
C364 C373 1.390 . S
C365 C364 1.387 . S
C365 C367 1.387 . S
H366 C373 0.950 . S
C367 C365 1.387 . S
C367 C369 1.390 . S
C367 H371 0.950 . S
H368 C364 0.950 . S
C369 C367 1.390 . S
C369 C370 1.387 . S
C369 H372 0.950 . S
C370 C369 1.387 . S
C370 C373 1.387 . S
H371 C367 0.950 . S
H372 C369 0.950 . S
C373 C364 1.390 . S
C373 H366 0.950 . S
C373 C370 1.387 . S
C374 C375 1.387 . S
C374 H378 0.950 . S
C374 C383 1.390 . S
C375 C374 1.387 . S
C375 C377 1.387 . S
H376 C383 0.950 . S
C377 C375 1.387 . S
C377 C379 1.390 . S
C377 H381 0.950 . S
H378 C374 0.950 . S
C379 C377 1.390 . S
C379 C380 1.387 . S
C379 H382 0.950 . S
C380 C379 1.387 . S
C380 C383 1.387 . S
H381 C377 0.950 . S
H382 C379 0.950 . S
C383 C374 1.390 . S
C383 H376 0.950 . S
C383 C380 1.387 . S
C384 C385 1.387 . S
C384 H388 0.950 . S
C384 C393 1.390 1_556 S
C385 C384 1.387 . S
C385 C387 1.387 . S
H386 C393 0.950 . S
C387 C385 1.387 . S
C387 C389 1.390 1_556 S
C387 H391 0.950 . S
H388 C384 0.950 . S
C389 C387 1.390 1_554 S
C389 C390 1.387 . S
C389 H392 0.950 . S
C390 C389 1.387 . S
C390 C393 1.387 . S
H391 C387 0.950 . S
H392 C389 0.950 . S
C393 C384 1.390 1_554 S
C393 H386 0.950 . S
C393 C390 1.387 . S
C394 C395 1.387 . S
C394 H398 0.950 . S
C394 C403 1.390 . S
C395 C394 1.387 . S
C395 C397 1.387 . S
H396 C403 0.950 . S
C397 C395 1.387 . S
C397 C399 1.390 . S
C397 H401 0.950 . S
H398 C394 0.950 . S
C399 C397 1.390 . S
C399 C400 1.387 . S
C399 H402 0.950 . S
C400 C399 1.387 . S
C400 C403 1.387 . S
H401 C397 0.950 . S
H402 C399 0.950 . S
C403 C394 1.390 . S
C403 H396 0.950 . S
C403 C400 1.387 . S
C404 C405 1.387 . S
C404 H408 0.950 . S
C404 C413 1.390 1_554 S
C405 C404 1.387 . S
C405 C407 1.387 . S
H406 C413 0.950 . S
C407 C405 1.387 . S
C407 C409 1.390 1_554 S
C407 H411 0.950 . S
H408 C404 0.950 . S
C409 C407 1.390 1_556 S
C409 C410 1.387 . S
C409 H412 0.950 . S
C410 C409 1.387 . S
C410 C413 1.387 . S
H411 C407 0.950 . S
H412 C409 0.950 . S
C413 C404 1.390 1_556 S
C413 H406 0.950 . S
C413 C410 1.387 . S
C414 C415 1.387 . S
C414 H418 0.950 . S
C414 C423 1.390 . S
C415 C414 1.387 . S
C415 C417 1.387 . S
H416 C423 0.950 . S
C417 C415 1.387 . S
C417 C419 1.390 . S
C417 H421 0.950 . S
H418 C414 0.950 . S
C419 C417 1.390 . S
C419 C420 1.387 . S
C419 H422 0.950 . S
C420 C419 1.387 . S
C420 C423 1.387 . S
H421 C417 0.950 . S
H422 C419 0.950 . S
C423 C414 1.390 . S
C423 H416 0.950 . S
C423 C420 1.387 . S
C424 C425 1.387 . S
C424 H428 0.950 . S
C424 C433 1.390 . S
C425 C424 1.387 . S
C425 C427 1.387 . S
H426 C433 0.950 . S
C427 C425 1.387 . S
C427 C429 1.390 . S
C427 H431 0.950 . S
H428 C424 0.950 . S
C429 C427 1.390 . S
C429 C430 1.387 . S
C429 H432 0.950 . S
C430 C429 1.387 . S
C430 C433 1.387 . S
H431 C427 0.950 . S
H432 C429 0.950 . S
C433 C424 1.390 . S
C433 H426 0.950 . S
C433 C430 1.387 . S
C434 C435 1.387 . S
C434 H438 0.950 . S
C434 C443 1.390 1_556 S
C435 C434 1.387 . S
C435 C437 1.387 . S
H436 C443 0.950 . S
C437 C435 1.387 . S
C437 C439 1.390 1_556 S
C437 H441 0.950 . S
H438 C434 0.950 . S
C439 C437 1.390 1_554 S
C439 C440 1.387 . S
C439 H442 0.950 . S
C440 C439 1.387 . S
C440 C443 1.387 . S
H441 C437 0.950 . S
H442 C439 0.950 . S
C443 C434 1.390 1_554 S
C443 H436 0.950 . S
C443 C440 1.387 . S
C444 C445 1.387 . S
C444 H448 0.950 . S
C444 C453 1.390 . S
C445 C444 1.387 . S
C445 C447 1.387 . S
H446 C453 0.950 . S
C447 C445 1.387 . S
C447 C449 1.390 . S
C447 H451 0.950 . S
H448 C444 0.950 . S
C449 C447 1.390 . S
C449 C450 1.387 . S
C449 H452 0.950 . S
C450 C449 1.387 . S
C450 C453 1.387 . S
H451 C447 0.950 . S
H452 C449 0.950 . S
C453 C444 1.390 . S
C453 H446 0.950 . S
C453 C450 1.387 . S
C454 C455 1.387 . S
C454 H458 0.950 . S
C454 C463 1.390 1_554 S
C455 C454 1.387 . S
C455 C457 1.387 . S
H456 C463 0.950 . S
C457 C455 1.387 . S
C457 C459 1.390 1_554 S
C457 H461 0.950 . S
H458 C454 0.950 . S
C459 C457 1.390 1_556 S
C459 C460 1.387 . S
C459 H462 0.950 . S
C460 C459 1.387 . S
C460 C463 1.387 . S
H461 C457 0.950 . S
H462 C459 0.950 . S
C463 C454 1.390 1_556 S
C463 H456 0.950 . S
C463 C460 1.387 . S
C464 C465 1.387 . S
C464 H468 0.950 . S
C464 C473 1.390 . S
C465 C464 1.387 . S
C465 C467 1.387 . S
H466 C473 0.950 . S
C467 C465 1.387 . S
C467 C469 1.390 . S
C467 H471 0.950 . S
H468 C464 0.950 . S
C469 C467 1.390 . S
C469 C470 1.387 . S
C469 H472 0.950 . S
C470 C469 1.387 . S
C470 C473 1.387 . S
H471 C467 0.950 . S
H472 C469 0.950 . S
C473 C464 1.390 . S
C473 H466 0.950 . S
C473 C470 1.387 . S
C474 C475 1.387 . S
C474 H478 0.950 . S
C474 C483 1.390 . S
C475 C474 1.387 . S
C475 C477 1.387 . S
H476 C483 0.950 . S
C477 C475 1.387 . S
C477 C479 1.390 . S
C477 H481 0.950 . S
H478 C474 0.950 . S
C479 C477 1.390 . S
C479 C480 1.387 . S
C479 H482 0.950 . S
C480 C479 1.387 . S
C480 C483 1.387 . S
H481 C477 0.950 . S
H482 C479 0.950 . S
C483 C474 1.390 . S
C483 H476 0.950 . S
C483 C480 1.387 . S
C484 C485 1.387 . S
C484 H488 0.950 . S
C484 C493 1.390 . S
C485 C484 1.387 . S
C485 C487 1.387 . S
H486 C493 0.950 . S
C487 C485 1.387 . S
C487 C489 1.390 . S
C487 H491 0.950 . S
H488 C484 0.950 . S
C489 C487 1.390 . S
C489 C490 1.387 . S
C489 H492 0.950 . S
C490 C489 1.387 . S
C490 C493 1.387 . S
H491 C487 0.950 . S
H492 C489 0.950 . S
C493 C484 1.390 . S
C493 H486 0.950 . S
C493 C490 1.387 . S
C494 C495 1.387 . S
C494 H498 0.950 . S
C494 C503 1.390 . S
C495 C494 1.387 . S
C495 C497 1.387 . S
H496 C503 0.950 . S
C497 C495 1.387 . S
C497 C499 1.390 . S
C497 H501 0.950 . S
H498 C494 0.950 . S
C499 C497 1.390 . S
C499 C500 1.387 . S
C499 H502 0.950 . S
C500 C499 1.387 . S
C500 C503 1.387 . S
H501 C497 0.950 . S
H502 C499 0.950 . S
C503 C494 1.390 . S
C503 H496 0.950 . S
C503 C500 1.387 . S
C504 C505 1.387 . S
C504 H508 0.950 . S
C504 C513 1.390 . S
C505 C504 1.387 . S
C505 C507 1.387 . S
H506 C513 0.950 . S
C507 C505 1.387 . S
C507 C509 1.390 . S
C507 H511 0.950 . S
H508 C504 0.950 . S
C509 C507 1.390 . S
C509 C510 1.387 . S
C509 H512 0.950 . S
C510 C509 1.387 . S
C510 C513 1.387 . S
H511 C507 0.950 . S
H512 C509 0.950 . S
C513 C504 1.390 . S
C513 H506 0.950 . S
C513 C510 1.387 . S
C514 C515 1.387 . S
C514 H518 0.950 . S
C514 C523 1.390 . S
C515 C514 1.387 . S
C515 C517 1.387 . S
H516 C523 0.950 . S
C517 C515 1.387 . S
C517 C519 1.390 . S
C517 H521 0.950 . S
H518 C514 0.950 . S
C519 C517 1.390 . S
C519 C520 1.387 . S
C519 H522 0.950 . S
C520 C519 1.387 . S
C520 C523 1.387 . S
H521 C517 0.950 . S
H522 C519 0.950 . S
C523 C514 1.390 . S
C523 H516 0.950 . S
C523 C520 1.387 . S
C524 C525 1.387 . S
C524 H528 0.950 . S
C524 C533 1.390 . S
C525 C524 1.387 . S
C525 C527 1.387 . S
H526 C533 0.950 . S
C527 C525 1.387 . S
C527 C529 1.390 . S
C527 H531 0.950 . S
H528 C524 0.950 . S
C529 C527 1.390 . S
C529 C530 1.387 . S
C529 H532 0.950 . S
C530 C529 1.387 . S
C530 C533 1.387 . S
H531 C527 0.950 . S
H532 C529 0.950 . S
C533 C524 1.390 . S
C533 H526 0.950 . S
C533 C530 1.387 . S
C534 C535 1.387 . S
C534 H538 0.950 . S
C534 C543 1.390 . S
C535 C534 1.387 . S
C535 C537 1.387 . S
H536 C543 0.950 . S
C537 C535 1.387 . S
C537 C539 1.390 . S
C537 H541 0.950 . S
H538 C534 0.950 . S
C539 C537 1.390 . S
C539 C540 1.387 . S
C539 H542 0.950 . S
C540 C539 1.387 . S
C540 C543 1.387 . S
H541 C537 0.950 . S
H542 C539 0.950 . S
C543 C534 1.390 . S
C543 H536 0.950 . S
C543 C540 1.387 . S
C225 C5 1.414 . S
C230 C33 1.414 . S
C235 C47 1.412 . S
C240 C19 1.412 . S
C245 C61 1.414 . S
C250 C89 1.414 . S
C255 C103 1.414 . S
C260 C75 1.414 . S
C265 C117 1.412 . S
C270 C145 1.412 . S
C275 C159 1.412 . S
C280 C131 1.412 . S
C285 C173 1.414 . S
C290 C201 1.414 . S
C295 C215 1.412 . S
C300 C187 1.412 . S
C305 C56 1.539 . S
C310 C0 1.539 . S
C315 C14 1.542 . S
C320 C70 1.542 . S
C325 C28 1.542 . S
C330 C84 1.542 . S
C335 C98 1.542 . S
C340 C42 1.542 . S
C345 C112 1.539 . S
C350 C168 1.539 . S
C355 C126 1.542 . S
C360 C182 1.542 . S
C365 C140 1.542 . S
C370 C196 1.542 . S
C375 C154 1.539 . S
C380 C210 1.539 . S
C385 C149 1.338 . S
C390 C9 1.340 . S
C395 C163 1.337 . S
C400 C23 1.340 . S
C405 C37 1.338 . S
C410 C121 1.339 . S
C415 C51 1.340 . S
C420 C135 1.337 . S
C425 C65 1.337 . S
C430 C205 1.340 . S
C435 C79 1.337 . S
C440 C219 1.340 . S
C445 C93 1.339 . S
C450 C177 1.339 . S
C455 C191 1.337 . S
C460 C107 1.340 . S
C465 C11 1.413 . S
C470 C221 1.413 . S
C475 C179 1.413 . S
C480 C25 1.413 . S
C485 C39 1.413 . S
C490 C193 1.413 . S
C495 C207 1.413 . S
C500 C53 1.413 . S
C505 C137 1.413 . S
C510 C67 1.413 . S
C515 C81 1.413 . S
C520 C151 1.413 . S
C525 C165 1.413 . S
C530 C95 1.413 . S
C535 C123 1.413 . S
C540 C109 1.413 . S
