# Generated by pormake.
# Topology sml, (6)-cn, num edge types: 1
# Building blocks:
#     Node 0, Type 0, BuildingBlock: CIFDUS_clean_sbu_1, # of connection points: 6
#     Node 1, Type 0, BuildingBlock: CIFDUS_clean_sbu_1, # of connection points: 6
#     Node 2, Type 0, BuildingBlock: CIFDUS_clean_sbu_1, # of connection points: 6
#     Node 3, Type 0, BuildingBlock: CIFDUS_clean_sbu_1, # of connection points: 6
#     Node 4, Type 0, BuildingBlock: CIFDUS_clean_sbu_1, # of connection points: 6
#     Node 5, Type 0, BuildingBlock: CIFDUS_clean_sbu_1, # of connection points: 6
#     Edge 6, Type (0, 0), BuildingBlock: MIFKUJ_clean_linker_0, # of connection points: 2
#     Edge 7, Type (0, 0), BuildingBlock: MIFKUJ_clean_linker_0, # of connection points: 2
#     Edge 8, Type (0, 0), BuildingBlock: MIFKUJ_clean_linker_0, # of connection points: 2
#     Edge 9, Type (0, 0), BuildingBlock: MIFKUJ_clean_linker_0, # of connection points: 2
#     Edge 10, Type (0, 0), BuildingBlock: MIFKUJ_clean_linker_0, # of connection points: 2
#     Edge 11, Type (0, 0), BuildingBlock: MIFKUJ_clean_linker_0, # of connection points: 2
#     Edge 12, Type (0, 0), BuildingBlock: MIFKUJ_clean_linker_0, # of connection points: 2
#     Edge 13, Type (0, 0), BuildingBlock: MIFKUJ_clean_linker_0, # of connection points: 2
#     Edge 14, Type (0, 0), BuildingBlock: MIFKUJ_clean_linker_0, # of connection points: 2
#     Edge 15, Type (0, 0), BuildingBlock: MIFKUJ_clean_linker_0, # of connection points: 2
#     Edge 16, Type (0, 0), BuildingBlock: MIFKUJ_clean_linker_0, # of connection points: 2
#     Edge 17, Type (0, 0), BuildingBlock: MIFKUJ_clean_linker_0, # of connection points: 2
#     Edge 18, Type (0, 0), BuildingBlock: MIFKUJ_clean_linker_0, # of connection points: 2
#     Edge 19, Type (0, 0), BuildingBlock: MIFKUJ_clean_linker_0, # of connection points: 2
#     Edge 20, Type (0, 0), BuildingBlock: MIFKUJ_clean_linker_0, # of connection points: 2
#     Edge 21, Type (0, 0), BuildingBlock: MIFKUJ_clean_linker_0, # of connection points: 2
#     Edge 22, Type (0, 0), BuildingBlock: MIFKUJ_clean_linker_0, # of connection points: 2
#     Edge 23, Type (0, 0), BuildingBlock: MIFKUJ_clean_linker_0, # of connection points: 2
# Relax obj value: 0.147
# Max RMSD: 0.167
# Mean RMSD: 0.167
data_MOF--net-sml--node1-CIFDUS_clean_sbu_1--edge1-MIFKUJ_clean_linker_0
_symmetry_space_group_name_H-M    P1
_symmetry_Int_Tables_number       1
_symmetry_cell_setting            triclinic
loop_
_symmetry_equiv_pos_as_xyz
'x, y, z'
_cell_length_a     51.315796
_cell_length_b     51.228829
_cell_length_c     19.981365
_cell_angle_alpha  90.065348
_cell_angle_beta   90.07499
_cell_angle_gamma 120.20163
loop_
_atom_site_label
_atom_site_type_symbol
_atom_site_fract_x
_atom_site_fract_y
_atom_site_fract_z
_atom_type_partial_charge
O0 O 0.21536 0.46215 0.01934 0.0
Mn1 Mn 0.2305 0.43144 0.00066 0.0
O2 O 0.25488 0.50102 0.07151 0.0
Mn3 Mn 0.28044 0.4855 0.0705 0.0
O4 O 0.24851 0.4029 0.98167 0.0
O5 O 0.18624 0.39659 0.00771 0.0
Mn6 Mn 0.18485 0.3712 0.94534 0.0
O7 O 0.22628 0.43595 0.89678 0.0
O8 O 0.21035 0.35657 0.96271 0.0
O9 O 0.23298 0.42528 0.10481 0.0
O10 O 0.27783 0.46139 0.14037 0.0
O11 O 0.14736 0.35185 0.97958 0.0
O12 O 0.19007 0.38979 0.86377 0.0
C13 C 0.30198 0.4876 0.9812 0.0
C14 C 0.22838 0.48855 0.0468 0.0
C15 C 0.2383 0.37467 0.97057 0.0
C16 C 0.15773 0.37603 0.016 0.0
C17 C 0.20887 0.4174 0.85147 0.0
C18 C 0.25331 0.43717 0.15057 0.0
O19 O 0.27426 0.46635 -0.00657 0.0
O20 O 0.31615 0.50682 0.02881 0.0
O21 O 0.7558 0.20782 0.35786 0.0
Mn22 Mn 0.80233 0.22847 0.33653 0.0
O23 O 0.75114 0.24465 0.40877 0.0
Mn24 Mn 0.79086 0.27502 0.40224 0.0
O25 O 0.84902 0.25125 0.31563 0.0
O26 O 0.7992 0.18682 0.3466 0.0
Mn27 Mn 0.82247 0.18693 0.28062 0.0
O28 O 0.79296 0.22228 0.23303 0.0
O29 O 0.86212 0.21675 0.29246 0.0
O30 O 0.81194 0.23386 0.44037 0.0
O31 O 0.8152 0.27715 0.47155 0.0
O32 O 0.80947 0.15085 0.31995 0.0
O33 O 0.80547 0.18807 0.20035 0.0
C34 C 0.80866 0.29582 0.31036 0.0
C35 C 0.74007 0.21765 0.3876 0.0
C36 C 0.86899 0.2439 0.3025 0.0
C37 C 0.79527 0.15987 0.35858 0.0
C38 C 0.79505 0.20543 0.18791 0.0
C39 C 0.81823 0.25461 0.48426 0.0
O40 O 0.80521 0.26959 0.32657 0.0
O41 O 0.80057 0.30878 0.3548 0.0
O42 O 0.55071 0.75757 0.68944 0.0
Mn43 Mn 0.582 0.80217 0.66469 0.0
O44 O 0.5233 0.76522 0.76686 0.0
Mn45 Mn 0.5391 0.80629 0.75241 0.0
O46 O 0.61209 0.84775 0.6414 0.0
O47 O 0.61558 0.7916 0.66162 0.0
Mn48 Mn 0.63595 0.80845 0.58743 0.0
O49 O 0.57181 0.79295 0.56215 0.0
O50 O 0.65272 0.84994 0.59393 0.0
O51 O 0.594 0.81074 0.76681 0.0
O52 O 0.57025 0.83301 0.80558 0.0
O53 O 0.65543 0.7906 0.62453 0.0
O54 O 0.61033 0.79034 0.51601 0.0
C55 C 0.52542 0.81828 0.66666 0.0
C56 C 0.52928 0.74775 0.7328 0.0
C57 C 0.63854 0.86271 0.61545 0.0
C58 C 0.63513 0.7827 0.67065 0.0
C59 C 0.58438 0.78767 0.51234 0.0
C60 C 0.59042 0.82617 0.81242 0.0
O61 O 0.54735 0.81203 0.66583 0.0
O62 O 0.51369 0.81816 0.72417 0.0
O63 O 0.79445 0.54683 0.02643 0.0
Mn64 Mn 0.78122 0.57841 0.00248 0.0
O65 O 0.75546 0.51322 0.08965 0.0
Mn66 Mn 0.73017 0.52901 0.07901 0.0
O67 O 0.76505 0.60806 0.97948 0.0
O68 O 0.82563 0.61296 0.00761 0.0
Mn69 Mn 0.82907 0.63474 0.93551 0.0
O70 O 0.78365 0.57076 0.89905 0.0
O71 O 0.80379 0.65062 0.93994 0.0
O72 O 0.78027 0.58711 0.10608 0.0
O73 O 0.73344 0.55713 0.13996 0.0
O74 O 0.86592 0.65518 0.97345 0.0
O75 O 0.8246 0.61211 0.86059 0.0
C76 C 0.7097 0.52212 0.98551 0.0
C77 C 0.78101 0.52243 0.06163 0.0
C78 C 0.77622 0.63503 0.95647 0.0
C79 C 0.85403 0.63357 0.01703 0.0
C80 C 0.80251 0.58558 0.85198 0.0
C81 C 0.75963 0.579 0.1507 0.0
O82 O 0.73728 0.54383 -0.00275 0.0
O83 O 0.69464 0.50617 0.03667 0.0
O84 O 0.25421 0.79691 0.35469 0.0
Mn85 Mn 0.20901 0.78226 0.33164 0.0
O86 O 0.24998 0.76084 0.42627 0.0
Mn87 Mn 0.20891 0.73381 0.41772 0.0
O88 O 0.16278 0.76486 0.31066 0.0
O89 O 0.21953 0.82681 0.32721 0.0
Mn90 Mn 0.198 0.82697 0.25757 0.0
O91 O 0.21723 0.78082 0.22939 0.0
O92 O 0.15715 0.80254 0.27204 0.0
O93 O 0.201 0.78485 0.43405 0.0
O94 O 0.18451 0.73915 0.47629 0.0
O95 O 0.21694 0.86561 0.28646 0.0
O96 O 0.21253 0.81801 0.18198 0.0
C97 C 0.19229 0.71047 0.32694 0.0
C98 C 0.26568 0.78589 0.39552 0.0
C99 C 0.146 0.77522 0.29002 0.0
C100 C 0.22855 0.85572 0.33024 0.0
C101 C 0.21842 0.79673 0.17861 0.0
C102 C 0.18874 0.7656 0.48143 0.0
O103 O 0.19937 0.73849 0.33566 0.0
O104 O 0.19542 0.69713 0.37877 0.0
O105 O 0.453 0.25866 0.67549 0.0
Mn106 Mn 0.43072 0.21092 0.6601 0.0
O107 O 0.50085 0.27419 0.6572 0.0
Mn108 Mn 0.4934 0.2392 0.69676 0.0
O109 O 0.40799 0.16344 0.64438 0.0
O110 O 0.39171 0.21199 0.67547 0.0
Mn111 Mn 0.36556 0.18464 0.61867 0.0
O112 O 0.42904 0.21674 0.55681 0.0
O113 O 0.35859 0.1467 0.64056 0.0
O114 O 0.43202 0.20486 0.76309 0.0
O115 O 0.48116 0.23374 0.78519 0.0
O116 O 0.3442 0.19928 0.66056 0.0
O117 O 0.37977 0.19653 0.53252 0.0
C118 C 0.49495 0.208 0.63752 0.0
C119 C 0.48004 0.28007 0.664 0.0
C120 C 0.38041 0.14174 0.64169 0.0
C121 C 0.36928 0.21592 0.69235 0.0
C122 C 0.40732 0.20896 0.51482 0.0
C123 C 0.45404 0.2176 0.80457 0.0
O124 O 0.46951 0.20824 0.64444 0.0
O125 O 0.51836 0.22672 0.67241 0.0
H126 H 0.40829 0.27756 0.70549 0.0
H127 H 0.39621 0.31244 0.76529 0.0
H128 H 0.317 0.23633 0.84825 0.0
H129 H 0.32913 0.20191 0.79045 0.0
H130 H 0.31237 0.28233 0.75212 0.0
H131 H 0.35767 0.26769 0.95062 0.0
H132 H 0.39858 0.2716 0.02223 0.0
H133 H 0.44411 0.36829 0.00907 0.0
H134 H 0.40437 0.36493 0.93418 0.0
H135 H 0.22354 0.31588 0.95593 0.0
H136 H 0.25522 0.29629 0.91666 0.0
H137 H 0.33211 0.38645 0.91316 0.0
H138 H 0.30023 0.4066 0.95253 0.0
H139 H 0.34568 0.34222 0.96201 0.0
H140 H 0.29926 0.35739 0.77027 0.0
H141 H 0.25769 0.35392 0.70148 0.0
H142 H 0.21377 0.25711 0.70513 0.0
H143 H 0.25485 0.25998 0.77479 0.0
C144 C 0.38926 0.26842 0.73935 0.0
C145 C 0.36984 0.23699 0.74401 0.0
C146 C 0.38217 0.28833 0.77292 0.0
C147 C 0.35564 0.27695 0.81124 0.0
C148 C 0.33763 0.24565 0.81942 0.0
C149 C 0.34475 0.22598 0.78666 0.0
C150 C 0.34363 0.29653 0.83447 0.0
C151 C 0.31974 0.29549 0.79795 0.0
C152 C 0.3536 0.31419 0.89356 0.0
C153 C 0.37837 0.31601 0.93523 0.0
C154 C 0.37686 0.28976 0.96111 0.0
C155 C 0.39985 0.29188 0.00251 0.0
C156 C 0.42419 0.32017 0.01942 0.0
C157 C 0.42559 0.34638 -0.00508 0.0
C158 C 0.4029 0.34437 0.95276 0.0
C159 C 0.24726 0.3317 0.94778 0.0
C160 C 0.25919 0.36294 0.95727 0.0
C161 C 0.26536 0.32038 0.92493 0.0
C162 C 0.29596 0.33988 0.91076 0.0
C163 C 0.30851 0.37096 0.92344 0.0
C164 C 0.29026 0.38243 0.94621 0.0
C165 C 0.31404 0.32745 0.88032 0.0
C166 C 0.33883 0.32966 0.91536 0.0
C167 C 0.30495 0.31077 0.81975 0.0
C168 C 0.28007 0.30892 0.77817 0.0
C169 C 0.28062 0.33536 0.75689 0.0
C170 C 0.25716 0.3335 0.71765 0.0
C171 C 0.23309 0.30531 0.69902 0.0
C172 C 0.23242 0.27893 0.7196 0.0
C173 C 0.25581 0.28066 0.75891 0.0
H174 H 0.21497 0.30392 0.66856 0.0
H175 H 0.4418 0.32179 0.05206 0.0
H176 H 0.10972 0.37698 0.96819 0.0
H177 H 0.06326 0.36236 0.0279 0.0
H178 H 0.10717 0.36547 0.21456 0.0
H179 H 0.15335 0.37779 0.15277 0.0
H180 H 0.05722 0.31527 0.20755 0.0
H181 H 0.07963 0.41784 0.16268 0.0
H182 H 0.09314 0.4612 0.08804 0.0
H183 H 0.014 0.40701 0.96938 0.0
H184 H 1.00023 0.3633 0.04259 0.0
H185 H 0.9195 0.26399 0.37979 0.0
H186 H 0.97198 0.29606 0.34371 0.0
H187 H 0.94071 0.30467 0.14862 0.0
H188 H 0.88853 0.27447 0.18664 0.0
H189 H 0.98686 0.35363 0.17087 0.0
H190 H 0.96699 0.25204 0.19191 0.0
H191 H 0.95196 0.20373 0.24844 0.0
H192 H 0.0232 0.24978 0.39205 0.0
H193 H 0.03843 0.29843 0.33675 0.0
C194 C 0.1099 0.37594 0.02236 0.0
C195 C 0.13559 0.37965 0.05611 0.0
C196 C 0.08315 0.36749 0.05674 0.0
C197 C 0.08148 0.36333 0.12643 0.0
C198 C 0.10777 0.36881 0.16095 0.0
C199 C 0.13451 0.37663 0.12598 0.0
C200 C 0.05164 0.35013 0.1614 0.0
C201 C 0.04219 0.3242 0.20085 0.0
C202 C 0.03114 0.36064 0.15042 0.0
C203 C 0.03894 0.38732 0.1081 0.0
C204 C 0.06513 0.41521 0.12067 0.0
C205 C 0.07284 0.43982 0.07856 0.0
C206 C 0.05443 0.43679 0.02403 0.0
C207 C 0.0282 0.40928 0.01168 0.0
C208 C 0.0204 0.38463 0.05353 0.0
C209 C 0.92403 0.27361 0.33 0.0
C210 C 0.90015 0.26736 0.28635 0.0
C211 C 0.95401 0.2915 0.30884 0.0
C212 C 0.96066 0.30239 0.24264 0.0
C213 C 0.93653 0.29678 0.1999 0.0
C214 C 0.90665 0.27959 0.22165 0.0
C215 C 0.99241 0.31871 0.2168 0.0
C216 C 1.00214 0.34507 0.17881 0.0
C217 C 0.01281 0.30803 0.22721 0.0
C218 C 1.0036 0.27888 0.26073 0.0
C219 C 0.97929 0.25187 0.23585 0.0
C220 C 0.97077 0.22443 0.26761 0.0
C221 C 0.98655 0.2237 0.32393 0.0
C222 C 0.01095 0.25039 0.34852 0.0
C223 C 0.01954 0.2779 0.31698 0.0
H224 H 0.97994 0.20243 0.34843 0.0
H225 H 0.06044 0.45569 -0.00882 0.0
H226 H 0.73379 0.13113 0.37344 0.0
H227 H 0.70372 0.08204 0.42988 0.0
H228 H 0.78509 0.09001 0.51219 0.0
H229 H 0.81479 0.13884 0.45735 0.0
H230 H 0.74978 0.03738 0.42964 0.0
H231 H 0.73851 0.09434 0.60916 0.0
H232 H 0.72149 0.12645 0.66319 0.0
H233 H 0.62963 0.06014 0.61729 0.0
H234 H 0.64609 0.02939 0.55908 0.0
H235 H 0.69844 0.90412 0.61373 0.0
H236 H 0.72259 0.95717 0.58192 0.0
H237 H 0.63523 0.94895 0.55652 0.0
H238 H 0.61092 0.89589 0.59155 0.0
H239 H 0.6716 1.00145 0.60636 0.0
H240 H 0.67934 0.94731 0.41992 0.0
H241 H 0.69189 0.91248 0.36218 0.0
H242 H 0.78517 0.96923 0.41467 0.0
H243 H 0.7731 1.0042 0.47346 0.0
C244 C 0.74496 0.12316 0.40677 0.0
C245 C 0.77657 0.13911 0.41224 0.0
C246 C 0.72786 0.09487 0.43803 0.0
C247 C 0.74224 0.08215 0.47454 0.0
C248 C 0.77352 0.09924 0.48407 0.0
C249 C 0.79043 0.12742 0.45362 0.0
C250 C 0.72559 0.05014 0.4976 0.0
C251 C 0.73283 0.0296 0.46866 0.0
C252 C 0.70285 0.03964 0.54693 0.0
C253 C 0.69357 0.05972 0.57876 0.0
C254 C 0.71474 0.08716 0.60892 0.0
C255 C 0.70515 0.10529 0.64025 0.0
C256 C 0.67444 0.09582 0.643 0.0
C257 C 0.6534 0.06828 0.61417 0.0
C258 C 0.66285 0.05052 0.58158 0.0
C259 C 0.68436 0.91371 0.60225 0.0
C260 C 0.65277 0.89577 0.60494 0.0
C261 C 0.6982 0.94403 0.58334 0.0
C262 C 0.68083 0.95702 0.56461 0.0
C263 C 0.64922 0.9395 0.57011 0.0
C264 C 0.63531 0.90918 0.59041 0.0
C265 C 0.69574 0.98866 0.53856 0.0
C266 C 0.68836 0.00915 0.56692 0.0
C267 C 0.71791 0.999 0.48753 0.0
C268 C 0.72528 0.97824 0.45146 0.0
C269 C 0.7025 0.95228 0.4194 0.0
C270 C 0.70953 0.93252 0.38648 0.0
C271 C 0.7393 0.93861 0.38486 0.0
C272 C 0.76212 0.96453 0.41599 0.0
C273 C 0.75521 0.98435 0.44904 0.0
H274 H 0.74469 0.92327 0.3594 0.0
H275 H 0.66696 0.10963 0.66803 0.0
H276 H 0.59762 0.72409 0.70983 0.0
H277 H 0.61411 0.69426 0.7757 0.0
H278 H 0.69758 0.7755 0.82164 0.0
H279 H 0.68097 0.80513 0.75776 0.0
H280 H 0.69461 0.72111 0.73596 0.0
H281 H 0.66849 0.75284 0.9437 0.0
H282 H 0.63228 0.75608 0.0193 0.0
H283 H 0.57851 0.65927 0.02355 0.0
H284 H 0.61412 0.65553 0.9469 0.0
H285 H 0.79361 0.69223 0.91481 0.0
H286 H 0.76216 0.71262 0.87922 0.0
H287 H 0.68233 0.62848 0.92841 0.0
H288 H 0.71397 0.60759 0.96477 0.0
H289 H 0.67629 0.67725 0.96405 0.0
H290 H 0.70326 0.64397 0.76803 0.0
H291 H 0.73509 0.63798 0.6842 0.0
H292 H 0.78327 0.73365 0.6497 0.0
H293 H 0.75205 0.74031 0.73409 0.0
C294 C 0.61859 0.7357 0.73756 0.0
C295 C 0.63769 0.76702 0.73011 0.0
C296 C 0.62822 0.71862 0.77433 0.0
C297 C 0.65713 0.73269 0.8035 0.0
C298 C 0.67513 0.7642 0.8001 0.0
C299 C 0.66544 0.78117 0.76422 0.0
C300 C 0.67073 0.71478 0.82826 0.0
C301 C 0.69078 0.71167 0.78598 0.0
C302 C 0.66492 0.7016 0.89256 0.0
C303 C 0.64369 0.70392 0.93882 0.0
C304 C 0.64872 0.73227 0.96005 0.0
C305 C 0.62833 0.7342 0.00319 0.0
C306 C 0.60295 0.70791 0.02579 0.0
C307 C 0.59804 0.67964 0.00567 0.0
C308 C 0.61832 0.6776 0.96242 0.0
C309 C 0.76938 0.67795 0.91887 0.0
C310 C 0.75645 0.64808 0.94258 0.0
C311 C 0.75135 0.6897 0.89803 0.0
C312 C 0.71979 0.67199 0.89984 0.0
C313 C 0.70663 0.64258 0.92615 0.0
C314 C 0.72477 0.63067 0.94706 0.0
C315 C 0.70106 0.68434 0.87234 0.0
C316 C 0.68002 0.68641 0.9138 0.0
C317 C 0.70574 0.69639 0.80669 0.0
C318 C 0.72541 0.69265 0.7578 0.0
C319 C 0.72087 0.66378 0.74319 0.0
C320 C 0.73874 0.66026 0.69538 0.0
C321 C 0.76112 0.68542 0.66153 0.0
C322 C 0.76588 0.71419 0.67587 0.0
C323 C 0.74809 0.71785 0.72367 0.0
H324 H 0.77473 0.68263 0.62404 0.0
H325 H 0.58715 0.70944 0.05909 0.0
H326 H 0.10305 0.79098 0.27126 0.0
H327 H 0.05028 0.75856 0.24103 0.0
H328 H 0.06079 0.68032 0.25261 0.0
H329 H 0.11422 0.71293 0.28258 0.0
H330 H 0.03047 0.68158 0.13608 0.0
H331 H 0.02245 0.69289 0.37405 0.0
H332 H 0.03309 0.72263 0.47797 0.0
H333 H 0.99183 0.77033 0.39443 0.0
H334 H 0.9813 0.74115 0.28971 0.0
H335 H 0.8753 0.5955 0.04991 0.0
H336 H 0.92158 0.61061 0.11478 0.0
H337 H 0.92537 0.69421 0.16765 0.0
H338 H 0.87878 0.67832 0.10667 0.0
H339 H 0.94797 0.68255 0.26294 0.0
H340 H 0.96408 0.68263 0.02487 0.0
H341 H 0.95741 0.66071 0.9118 0.0
H342 H 0.98658 0.60047 0.98301 0.0
H343 H 0.99308 0.62182 0.0967 0.0
C344 C 0.09419 0.76685 0.26831 0.0
C345 C 0.11298 0.75462 0.27996 0.0
C346 C 0.06387 0.74827 0.251 0.0
C347 C 0.05135 0.7169 0.24504 0.0
C348 C 0.06988 0.70445 0.25715 0.0
C349 C 0.10036 0.7231 0.27492 0.0
C350 C 0.01909 0.69756 0.22466 0.0
C351 C 0.01228 0.68119 0.16452 0.0
C352 C 0.99544 0.69782 0.26046 0.0
C353 C 1.00113 0.71485 0.32404 0.0
C354 C 0.01572 0.70978 0.3778 0.0
C355 C 0.02174 0.72655 0.43683 0.0
C356 C 0.01315 0.74836 0.4428 0.0
C357 C 0.99845 0.7534 0.38979 0.0
C358 C 0.99239 0.73671 0.33065 0.0
C359 C 0.88519 0.61625 0.07865 0.0
C360 C 0.87306 0.63543 0.0745 0.0
C361 C 0.91214 0.62534 0.11433 0.0
C362 C 0.92779 0.6541 0.14492 0.0
C363 C 0.91414 0.67198 0.14489 0.0
C364 C 0.88718 0.66274 0.11037 0.0
C365 C 0.95909 0.66695 0.17304 0.0
C366 C 0.96588 0.68226 0.23479 0.0
C367 C 0.98288 0.66657 0.13745 0.0
C368 C 0.97861 0.65348 0.06942 0.0
C369 C 0.9688 0.66452 0.0165 0.0
C370 C 0.96511 0.65224 0.9523 0.0
C371 C 0.97145 0.62912 0.94029 0.0
C372 C 0.98157 0.6183 -0.00757 0.0
C373 C 0.98526 0.63047 0.05674 0.0
H374 H 0.9686 0.61967 0.89055 0.0
H375 H 0.01786 0.76134 0.48852 0.0
H376 H 0.38931 0.1236 0.52145 0.0
H377 H 0.36636 0.07157 0.47963 0.0
H378 H 0.33024 0.03792 0.6757 0.0
H379 H 0.35226 0.09019 0.71699 0.0
H380 H 0.3565 1.00484 0.60013 0.0
H381 H 0.28444 0.03804 0.58248 0.0
H382 H 0.26503 0.07158 0.55066 0.0
H383 H 0.28113 0.06241 0.34346 0.0
H384 H 0.30128 0.0293 0.37421 0.0
H385 H 0.2323 0.85764 0.4689 0.0
H386 H 0.26316 0.90396 0.53563 0.0
H387 H 0.30672 0.9523 0.35538 0.0
H388 H 0.27696 0.90653 0.28983 0.0
H389 H 0.2746 0.97583 0.4336 0.0
H390 H 0.34866 0.94537 0.4491 0.0
H391 H 0.36753 0.91103 0.47755 0.0
H392 H 0.34752 0.91456 0.68487 0.0
H393 H 0.3279 0.94847 0.65734 0.0
C394 C 0.37733 0.10507 0.55614 0.0
C395 C 0.37322 0.11086 0.62292 0.0
C396 C 0.36397 0.07536 0.53206 0.0
C397 C 0.34658 0.05078 0.5745 0.0
C398 C 0.34372 0.05649 0.64217 0.0
C399 C 0.35646 0.0863 0.66587 0.0
C400 C 0.32967 0.01947 0.5467 0.0
C401 C 0.33826 0.99832 0.56457 0.0
C402 C 0.30616 0.01102 0.49939 0.0
C403 C 0.29482 0.03157 0.4808 0.0
C404 C 0.28431 0.04356 0.53023 0.0
C405 C 0.27307 0.06241 0.51236 0.0
C406 C 0.27196 0.06922 0.4451 0.0
C407 C 0.2821 0.0572 0.39557 0.0
C408 C 0.29346 0.03841 0.41321 0.0
C409 C 0.24956 0.87777 0.44431 0.0
C410 C 0.25256 0.87837 0.37428 0.0
C411 C 0.26688 0.90433 0.48221 0.0
C412 C 0.28705 0.93172 0.45029 0.0
C413 C 0.2913 0.93158 0.38112 0.0
C414 C 0.27446 0.90526 0.34379 0.0
C415 C 0.3016 0.96127 0.48643 0.0
C416 C 0.29259 0.98219 0.46982 0.0
C417 C 0.32475 0.96948 0.53438 0.0
C418 C 0.33636 0.94903 0.55104 0.0
C419 C 0.34788 0.93849 0.50063 0.0
C420 C 0.3588 0.91918 0.51659 0.0
C421 C 0.35861 0.91051 0.58294 0.0
C422 C 0.34756 0.92121 0.63346 0.0
C423 C 0.33652 0.94046 0.61771 0.0
H424 H 0.36713 0.89559 0.59523 0.0
H425 H 0.26314 0.08374 0.43135 0.0
H426 H 0.25774 0.4621 0.78249 0.0
H427 H 0.26229 0.46723 0.65966 0.0
H428 H 0.1693 0.39728 0.63852 0.0
H429 H 0.1643 0.39262 0.75941 0.0
H430 H 0.21436 0.38574 0.57846 0.0
H431 H 0.18205 0.45701 0.59761 0.0
H432 H 0.18185 0.503 0.63191 0.0
H433 H 0.2637 0.55739 0.52274 0.0
H434 H 0.26477 0.51176 0.48878 0.0
H435 H 0.19823 0.40072 0.20917 0.0
H436 H 0.18758 0.39572 0.32983 0.0
H437 H 0.28284 0.44738 0.37153 0.0
H438 H 0.29365 0.45168 0.25212 0.0
H439 H 0.23307 0.46715 0.41823 0.0
H440 H 0.26761 0.39275 0.42283 0.0
H441 H 0.26398 0.34516 0.38515 0.0
H442 H 0.17081 0.29607 0.44309 0.0
H443 H 0.17385 0.34352 0.48022 0.0
C444 C 0.23806 0.44864 0.75159 0.0
C445 C 0.21082 0.42662 0.78056 0.0
C446 C 0.24069 0.45149 0.68158 0.0
C447 C 0.21616 0.43235 0.6403 0.0
C448 C 0.18849 0.41209 0.66951 0.0
C449 C 0.18576 0.40947 0.73873 0.0
C450 C 0.21993 0.43017 0.56745 0.0
C451 C 0.2184 0.40362 0.54358 0.0
C452 C 0.22473 0.45328 0.52182 0.0
C453 C 0.22413 0.48085 0.54273 0.0
C454 C 0.20048 0.47875 0.58228 0.0
C455 C 0.20005 0.50481 0.60122 0.0
C456 C 0.22292 0.53314 0.58013 0.0
C457 C 0.24607 0.53545 0.53942 0.0
C458 C 0.24655 0.50945 0.52025 0.0
C459 C 0.21684 0.40999 0.24404 0.0
C460 C 0.24668 0.4268 0.22092 0.0
C461 C 0.21076 0.40737 0.31285 0.0
C462 C 0.23449 0.42152 0.35908 0.0
C463 C 0.26428 0.43646 0.33637 0.0
C464 C 0.27036 0.43877 0.26804 0.0
C465 C 0.22853 0.42341 0.43062 0.0
C466 C 0.22933 0.44964 0.45386 0.0
C467 C 0.22265 0.40001 0.47572 0.0
C468 C 0.22085 0.37164 0.45333 0.0
C469 C 0.24628 0.37185 0.42674 0.0
C470 C 0.24435 0.3449 0.40571 0.0
C471 C 0.21715 0.31761 0.41148 0.0
C472 C 0.19184 0.31722 0.43849 0.0
C473 C 0.19366 0.34412 0.45954 0.0
H474 H 0.2157 0.29677 0.39522 0.0
H475 H 0.22256 0.55329 0.59488 0.0
H476 H 0.79752 0.25394 0.12251 0.0
H477 H 0.79943 0.26117 0.00061 0.0
H478 H 0.78164 0.17023 0.97097 0.0
H479 H 0.77944 0.16279 0.09157 0.0
H480 H 0.83331 0.21205 0.90799 0.0
H481 H 0.73029 0.18702 0.92503 0.0
H482 H 0.68738 0.19107 0.96757 0.0
H483 H 0.72909 0.28273 0.89851 0.0
H484 H 0.77249 0.27935 0.85639 0.0
H485 H 0.80803 0.20231 0.54672 0.0
H486 H 0.80423 0.19331 0.66805 0.0
H487 H 0.83349 0.28708 0.70381 0.0
H488 H 0.83824 0.29654 0.5839 0.0
H489 H 0.77554 0.24342 0.76261 0.0
H490 H 0.87891 0.26902 0.7488 0.0
H491 H 0.9219 0.26529 0.70567 0.0
H492 H 0.87939 0.17273 0.76865 0.0
H493 H 0.83587 0.17579 0.81124 0.0
C494 C 0.79301 0.23521 0.08991 0.0
C495 C 0.78861 0.20791 0.11666 0.0
C496 C 0.79431 0.23941 0.02031 0.0
C497 C 0.79111 0.21633 0.97682 0.0
C498 C 0.78455 0.18844 0.00357 0.0
C499 C 0.78317 0.18421 0.0726 0.0
C500 C 0.79706 0.2218 0.90401 0.0
C501 C 0.82037 0.2185 0.87607 0.0
C502 C 0.78068 0.23085 0.86263 0.0
C503 C 0.75478 0.23305 0.88831 0.0
C504 C 0.73046 0.20815 0.91956 0.0
C505 C 0.70602 0.21029 0.94344 0.0
C506 C 0.70555 0.23717 0.93593 0.0
C507 C 0.72951 0.26194 0.9044 0.0
C508 C 0.75402 0.25992 0.88048 0.0
C509 C 0.81462 0.2212 0.58045 0.0
C510 C 0.82315 0.25008 0.55546 0.0
C511 C 0.81218 0.21597 0.64969 0.0
C512 C 0.81808 0.23947 0.69457 0.0
C513 C 0.82846 0.2686 0.66989 0.0
C514 C 0.8313 0.27393 0.60121 0.0
C515 C 0.81166 0.23357 0.76694 0.0
C516 C 0.78834 0.23685 0.79468 0.0
C517 C 0.82802 0.22453 0.80819 0.0
C518 C 0.85398 0.22251 0.78234 0.0
C519 C 0.87857 0.24776 0.75272 0.0
C520 C 0.90307 0.2458 0.72855 0.0
C521 C 0.90333 0.21876 0.73419 0.0
C522 C 0.87912 0.19364 0.76417 0.0
C523 C 0.85453 0.19547 0.78835 0.0
H524 H 0.92234 0.21729 0.71552 0.0
H525 H 0.68659 0.23877 0.9544 0.0
H526 H 0.56937 0.74129 0.42578 0.0
H527 H 0.56644 0.74407 0.30389 0.0
H528 H 0.57454 0.83183 0.32322 0.0
H529 H 0.57495 0.82778 0.44502 0.0
H530 H 0.54416 0.80756 0.21868 0.0
H531 H 0.63764 0.8172 0.30338 0.0
H532 H 0.66841 0.79964 0.36177 0.0
H533 H 0.63567 0.72386 0.22788 0.0
H534 H 0.60439 0.74076 0.16944 0.0
H535 H 0.60513 0.86906 0.90835 0.0
H536 H 0.60409 0.86095 0.02913 0.0
H537 H 0.59228 0.77247 -0.00586 0.0
H538 H 0.59512 0.78127 0.87354 0.0
H539 H 0.62229 0.79401 0.10402 0.0
H540 H 0.53126 0.78589 0.01527 0.0
H541 H 0.50126 0.80382 0.95498 0.0
H542 H 0.52968 0.87688 0.09506 0.0
H543 H 0.56025 0.85968 0.15551 0.0
C544 C 0.56897 0.76041 0.40381 0.0
C545 C 0.57203 0.78416 0.44444 0.0
C546 C 0.56797 0.76234 0.33414 0.0
C547 C 0.57161 0.78876 0.30394 0.0
C548 C 0.572 0.81131 0.34494 0.0
C549 C 0.57196 0.8089 0.41467 0.0
C550 C 0.57753 0.79421 0.23071 0.0
C551 C 0.56147 0.80486 0.19394 0.0
C552 C 0.59964 0.79008 0.19737 0.0
C553 C 0.61847 0.78005 0.23259 0.0
C554 C 0.63689 0.79671 0.28672 0.0
C555 C 0.65441 0.78687 0.3198 0.0
C556 C 0.65393 0.76061 0.29868 0.0
C557 C 0.63598 0.74415 0.24432 0.0
C558 C 0.61835 0.75384 0.21123 0.0
C559 C 0.60364 0.84845 0.92663 0.0
C560 C 0.60018 0.82581 0.88168 0.0
C561 C 0.60251 0.84358 -0.0044 0.0
C562 C 0.59685 0.8156 0.02073 0.0
C563 C 0.59631 0.79412 0.97604 0.0
C564 C 0.59819 0.79928 0.907 0.0
C565 C 0.58934 0.80788 0.09261 0.0
C566 C 0.60498 0.79668 0.12888 0.0
C567 C 0.56688 0.81153 0.12547 0.0
C568 C 0.54821 0.82163 0.08958 0.0
C569 C 0.53122 0.80587 0.03299 0.0
C570 C 0.51412 0.8159 -0.00122 0.0
C571 C 0.5136 0.8415 0.02111 0.0
C572 C 0.53012 0.85708 0.07777 0.0
C573 C 0.54733 0.84719 0.11203 0.0
H574 H 0.50034 0.84923 -0.00543 0.0
H575 H 0.66753 0.75305 0.32433 0.0
H576 H 0.84499 0.59642 0.75889 0.0
H577 H 0.83804 0.59337 0.63791 0.0
H578 H 0.74166 0.54801 0.66426 0.0
H579 H 0.7485 0.55115 0.78651 0.0
H580 H 0.76223 0.52861 0.54747 0.0
H581 H 0.77524 0.61854 0.65321 0.0
H582 H 0.80093 0.66286 0.72745 0.0
H583 H 0.88005 0.69916 0.60432 0.0
H584 H 0.85528 0.65439 0.53086 0.0
H585 H 0.72067 0.57118 0.25111 0.0
H586 H 0.73015 0.57184 0.37068 0.0
H587 H 0.82489 0.60853 0.33253 0.0
H588 H 0.81551 0.60715 0.21153 0.0
H589 H 0.80605 0.63214 0.45414 0.0
H590 H 0.79393 0.54227 0.35002 0.0
H591 H 0.76908 0.49749 0.2768 0.0
H592 H 0.68877 0.46168 0.3959 0.0
H593 H 0.71293 0.50665 0.46893 0.0
C594 C 0.82222 0.58485 0.73907 0.0
C595 C 0.79728 0.57431 0.7822 0.0
C596 C 0.81833 0.58325 0.66985 0.0
C597 C 0.78941 0.57114 0.6422 0.0
C598 C 0.7642 0.55764 0.68476 0.0
C599 C 0.7681 0.55926 0.75456 0.0
C600 C 0.78612 0.57611 0.5702 0.0
C601 C 0.77151 0.5512 0.52722 0.0
C602 C 0.79879 0.60569 0.54353 0.0
C603 C 0.81352 0.6329 0.58698 0.0
C604 C 0.79825 0.63576 0.6424 0.0
C605 C 0.81267 0.66096 0.68441 0.0
C606 C 0.8421 0.68381 0.67061 0.0
C607 C 0.85725 0.68143 0.61497 0.0
C608 C 0.84307 0.65609 0.57327 0.0
C609 C 0.74371 0.58016 0.2679 0.0
C610 C 0.76728 0.58874 0.22149 0.0
C611 C 0.74902 0.58038 0.3364 0.0
C612 C 0.77807 0.58966 0.3602 0.0
C613 C 0.80224 0.60111 0.31487 0.0
C614 C 0.79688 0.60053 0.24579 0.0
C615 C 0.78228 0.58466 0.43154 0.0
C616 C 0.79692 0.60957 0.47442 0.0
C617 C 0.76969 0.55512 0.45809 0.0
C618 C 0.7551 0.52803 0.41439 0.0
C619 C 0.77084 0.52504 0.36009 0.0
C620 C 0.7569 0.49959 0.31871 0.0
C621 C 0.72733 0.47679 0.33157 0.0
C622 C 0.71165 0.47939 0.3859 0.0
C623 C 0.72545 0.50487 0.42728 0.0
H624 H 0.71659 0.45707 0.29955 0.0
H625 H 0.85315 0.70339 0.70298 0.0
H626 H 0.14543 0.73718 0.57546 0.0
H627 H 0.15268 0.74514 0.69661 0.0
H628 H 0.24074 0.82271 0.66368 0.0
H629 H 0.23319 0.81542 0.54238 0.0
H630 H 0.23613 0.77111 0.74716 0.0
H631 H 0.19997 0.84048 0.72878 0.0
H632 H 0.16482 0.85701 0.69111 0.0
H633 H 0.0932 0.78504 0.8023 0.0
H634 H 0.12788 0.76776 0.83977 0.0
H635 H 0.26304 0.82995 0.09073 0.0
H636 H 0.25939 0.82326 0.96875 0.0
H637 H 0.17539 0.73956 -0.00849 0.0
H638 H 0.17972 0.74553 0.1137 0.0
H639 H 0.17927 0.79515 0.9129 0.0
H640 H 0.21523 0.72521 0.92948 0.0
H641 H 0.2503 0.70851 0.96663 0.0
H642 H 0.3223 0.78144 0.85829 0.0
H643 H 0.28771 0.79896 0.8216 0.0
C644 C 0.1657 0.75672 0.59415 0.0
C645 C 0.18853 0.77597 0.54985 0.0
C646 C 0.16997 0.76105 0.66314 0.0
C647 C 0.19737 0.78426 0.68867 0.0
C648 C 0.2195 0.80463 0.64461 0.0
C649 C 0.21494 0.80075 0.57548 0.0
C650 C 0.20359 0.78548 0.76112 0.0
C651 C 0.22409 0.77684 0.78348 0.0
C652 C 0.18726 0.79217 0.80807 0.0
C653 C 0.16643 0.80266 0.78653 0.0
C654 C 0.17666 0.82802 0.74473 0.0
C655 C 0.15684 0.83755 0.7235 0.0
C656 C 0.12677 0.82203 0.74416 0.0
C657 C 0.11649 0.79701 0.78628 0.0
C658 C 0.13623 0.78735 0.80759 0.0
C659 C 0.24469 0.80938 0.06964 0.0
C660 C 0.22198 0.78792 0.11108 0.0
C661 C 0.24244 0.80574 0.00021 0.0
C662 C 0.21704 0.78104 0.97158 0.0
C663 C 0.1952 0.75868 0.01303 0.0
C664 C 0.19788 0.7619 0.08258 0.0
C665 C 0.21169 0.78065 0.89894 0.0
C666 C 0.19137 0.7895 0.87658 0.0
C667 C 0.22817 0.77414 0.85206 0.0
C668 C 0.249 0.76365 0.87361 0.0
C669 C 0.23863 0.73792 0.91428 0.0
C670 C 0.25839 0.72825 0.9351 0.0
C671 C 0.28855 0.74397 0.91503 0.0
C672 C 0.29895 0.76934 0.87393 0.0
C673 C 0.27928 0.77914 0.8531 0.0
H674 H 0.30382 0.73644 0.93117 0.0
H675 H 0.11144 0.82944 0.72765 0.0
H676 H 0.45866 0.24977 0.44711 0.0
H677 H 0.46734 0.25132 0.32545 0.0
H678 H 0.37896 0.17323 0.2988 0.0
H679 H 0.36985 0.17199 0.41859 0.0
H680 H 0.42716 0.17052 0.2306 0.0
H681 H 0.38428 0.23413 0.26271 0.0
H682 H 0.38082 0.27669 0.31013 0.0
H683 H 0.46722 0.33935 0.22686 0.0
H684 H 0.47151 0.29706 0.18025 0.0
H685 H 0.40506 0.17408 0.87441 0.0
H686 H 0.39745 0.17179 -0.00359 0.0
H687 H 0.48263 0.25432 0.01996 0.0
H688 H 0.49051 0.25664 0.89966 0.0
H689 H 0.43639 0.25459 0.09019 0.0
H690 H 0.47928 0.19137 0.05649 0.0
H691 H 0.48292 0.14899 0.00845 0.0
H692 H 0.3971 0.08588 0.09348 0.0
H693 H 0.39267 0.12796 0.14095 0.0
C694 C 0.44111 0.23311 0.41506 0.0
C695 C 0.41343 0.21108 0.44216 0.0
C696 C 0.44608 0.23396 0.34586 0.0
C697 C 0.42371 0.21237 0.30342 0.0
C698 C 0.39645 0.19006 0.33073 0.0
C699 C 0.39123 0.1896 0.39917 0.0
C700 C 0.42816 0.21305 0.23017 0.0
C701 C 0.42897 0.18878 0.19973 0.0
C702 C 0.43081 0.23702 0.19028 0.0
C703 C 0.42846 0.26241 0.21906 0.0
C704 C 0.40276 0.25695 0.25541 0.0
C705 C 0.4006 0.28103 0.28197 0.0
C706 C 0.42385 0.31071 0.27181 0.0
C707 C 0.44929 0.31635 0.23495 0.0
C708 C 0.45161 0.29233 0.20853 0.0
C709 C 0.42211 0.19164 0.90578 0.0
C710 C 0.44847 0.21536 0.8775 0.0
C711 C 0.4178 0.19028 0.97527 0.0
C712 C 0.4396 0.21285 0.01703 0.0
C713 C 0.4656 0.23669 0.98864 0.0
C714 C 0.4701 0.23783 0.9198 0.0
C715 C 0.43553 0.21212 0.09047 0.0
C716 C 0.4347 0.23636 0.12098 0.0
C717 C 0.43294 0.18815 0.13035 0.0
C718 C 0.43544 0.16283 0.10144 0.0
C719 C 0.461 0.16848 0.06424 0.0
C720 C 0.46325 0.14451 0.03724 0.0
C721 C 0.4402 0.11476 0.04769 0.0
C722 C 0.41489 0.10893 0.08526 0.0
C723 C 0.41249 0.13284 0.11219 0.0
H724 H 0.44201 0.09623 0.02685 0.0
H725 H 0.4221 0.32934 0.29227 0.0
H726 H 0.17245 0.47504 0.09464 0.0
H727 H 0.15724 0.51259 0.12164 0.0
H728 H 0.23879 0.58241 0.03041 0.0
H729 H 0.25373 0.54543 0.00336 0.0
H730 H 0.23131 0.59156 0.16818 0.0
H731 H 0.17605 0.56447 0.95827 0.0
H732 H 0.13728 0.52897 0.87965 0.0
H733 H 0.06845 0.50901 0.0258 0.0
H734 H 0.10693 0.54393 0.10578 0.0
H735 H 0.22911 0.72312 0.21975 0.0
H736 H 0.22748 0.68364 0.14738 0.0
H737 H 0.13929 0.62016 0.22351 0.0
H738 H 0.14098 0.65952 0.29554 0.0
H739 H 0.14636 0.60505 0.09532 0.0
H740 H 0.19705 0.62839 0.30481 0.0
H741 H 0.23292 0.659 0.39354 0.0
H742 H 0.30714 0.67978 0.26253 0.0
H743 H 0.27168 0.65014 0.17224 0.0
C744 C 0.1864 0.49818 0.07822 0.0
C745 C 0.21423 0.50745 0.04704 0.0
C746 C 0.17786 0.51962 0.09399 0.0
C747 C 0.19712 0.55033 0.07856 0.0
C748 C 0.22372 0.55892 0.04307 0.0
C749 C 0.23214 0.53774 0.02738 0.0
C750 C 0.19195 0.57436 0.10545 0.0
C751 C 0.21298 0.59478 0.15148 0.0
C752 C 0.16736 0.57774 0.08587 0.0
C753 C 0.14435 0.55662 0.03808 0.0
C754 C 0.15268 0.55227 0.97385 0.0
C755 C 0.13076 0.53229 0.92901 0.0
C756 C 0.10043 0.51677 0.94768 0.0
C757 C 0.09196 0.52109 0.01135 0.0
C758 C 0.1138 0.54093 0.05647 0.0
C759 C 0.20859 0.70131 0.21763 0.0
C760 C 0.18503 0.69438 0.26266 0.0
C761 C 0.20786 0.67859 0.17714 0.0
C762 C 0.18354 0.64874 0.18131 0.0
C763 C 0.15829 0.64293 0.21952 0.0
C764 C 0.15913 0.66556 0.26019 0.0
C765 C 0.18653 0.62306 0.15589 0.0
C766 C 0.16491 0.60208 0.11132 0.0
C767 C 0.21029 0.61865 0.17797 0.0
C768 C 0.23169 0.63744 0.23138 0.0
C769 C 0.22101 0.63993 0.29451 0.0
C770 C 0.24127 0.65706 0.34516 0.0
C771 C 0.27229 0.67143 0.33365 0.0
C772 C 0.28311 0.66879 0.27133 0.0
C773 C 0.26294 0.65191 0.22031 0.0
H774 H 0.28794 0.6845 0.37312 0.0
H775 H 0.08348 0.50141 0.91277 0.0
H776 H 0.71409 0.20383 0.50837 0.0
H777 H 0.66171 0.18747 0.53294 0.0
H778 H 0.64037 0.17318 0.32246 0.0
H779 H 0.69365 0.19071 0.29756 0.0
H780 H 0.62468 0.21259 0.38536 0.0
H781 H 0.58652 0.09565 0.45898 0.0
H782 H 0.58505 0.05902 0.54155 0.0
H783 H 0.61737 0.12722 0.69461 0.0
H784 H 0.61848 0.16386 0.61338 0.0
H785 H 0.48913 0.20133 0.50047 0.0
H786 H 0.51944 0.18635 0.43256 0.0
H787 H 0.54656 0.16021 0.61392 0.0
H788 H 0.51358 0.17092 0.67805 0.0
H789 H 0.55254 0.13151 0.53504 0.0
H790 H 0.58543 0.23883 0.52146 0.0
H791 H 0.58 0.28238 0.48937 0.0
H792 H 0.56936 0.25469 0.2834 0.0
H793 H 0.57448 0.21082 0.31453 0.0
C794 C 0.69792 0.19575 0.46761 0.0
C795 C 0.70771 0.19778 0.40122 0.0
C796 C 0.66782 0.18627 0.48175 0.0
C797 C 0.6467 0.17828 0.42984 0.0
C798 C 0.65613 0.17873 0.36347 0.0
C799 C 0.68645 0.18834 0.34923 0.0
C800 C 0.61628 0.17391 0.44415 0.0
C801 C 0.60873 0.1947 0.4178 0.0
C802 C 0.59587 0.15159 0.48848 0.0
C803 C 0.60345 0.13259 0.52978 0.0
C804 C 0.59433 0.10301 0.50964 0.0
C805 C 0.59303 0.08214 0.55653 0.0
C806 C 0.60069 0.09076 0.62343 0.0
C807 C 0.61125 0.12056 0.64293 0.0
C808 C 0.61236 0.14137 0.59648 0.0
C809 C 0.49995 0.19029 0.52449 0.0
C810 C 0.49896 0.18707 0.59439 0.0
C811 C 0.51819 0.18271 0.48607 0.0
C812 C 0.5367 0.17331 0.5177 0.0
C813 C 0.53286 0.16725 0.58683 0.0
C814 C 0.51366 0.17326 0.6241 0.0
C815 C 0.56193 0.17206 0.48265 0.0
C816 C 0.5682 0.14953 0.50246 0.0
C817 C 0.58271 0.19505 0.43915 0.0
C818 C 0.57985 0.2214 0.42037 0.0
C819 C 0.5818 0.24201 0.4694 0.0
C820 C 0.57878 0.26672 0.4514 0.0
C821 C 0.5742 0.27122 0.38442 0.0
C822 C 0.57279 0.25111 0.33527 0.0
C823 C 0.57574 0.22633 0.35305 0.0
H824 H 0.57183 0.29035 0.37058 0.0
H825 H 0.59821 0.07432 0.66055 0.0
H826 H 0.29351 0.51825 0.88372 0.0
H827 H 0.33538 0.55597 0.81845 0.0
H828 H 0.38789 0.51431 0.8695 0.0
H829 H 0.34633 0.47776 0.93915 0.0
H830 H 0.4183 0.56965 0.90193 0.0
H831 H 0.36661 0.52207 0.69844 0.0
H832 H 0.32174 0.49748 0.62552 0.0
H833 H 0.3166 0.57858 0.62415 0.0
H834 H 0.36123 0.60359 0.69782 0.0
H835 H 0.54086 0.70053 0.73624 0.0
H836 H 0.50357 0.64677 0.75654 0.0
H837 H 0.43269 0.66867 0.76428 0.0
H838 H 0.46933 0.72159 0.7453 0.0
H839 H 0.41745 0.6179 0.68763 0.0
H840 H 0.46015 0.66114 0.9037 0.0
H841 H 0.50109 0.68635 0.98656 0.0
H842 H 0.52103 0.61465 0.96913 0.0
H843 H 0.48042 0.58921 0.88527 0.0
C844 C 0.3132 0.51589 0.87731 0.0
C845 C 0.31647 0.49476 0.91548 0.0
C846 C 0.33747 0.5378 0.84038 0.0
C847 C 0.3651 0.53819 0.83857 0.0
C848 C 0.36698 0.51468 0.87013 0.0
C849 C 0.34291 0.49325 0.90856 0.0
C850 C 0.39279 0.56518 0.81229 0.0
C851 C 0.41838 0.5796 0.85399 0.0
C852 C 0.39293 0.57892 0.75073 0.0
C853 C 0.3672 0.56463 0.70362 0.0
C854 C 0.35593 0.53466 0.68248 0.0
C855 C 0.33055 0.52066 0.64121 0.0
C856 C 0.31642 0.53648 0.62044 0.0
C857 C 0.32768 0.56642 0.64034 0.0
C858 C 0.35306 0.58055 0.68168 0.0
C859 C 0.51727 0.69362 0.74169 0.0
C860 C 0.50793 0.71511 0.73973 0.0
C861 C 0.49607 0.66308 0.75346 0.0
C862 C 0.46539 0.65383 0.76192 0.0
C863 C 0.45618 0.67527 0.7577 0.0
C864 C 0.4772 0.70553 0.74725 0.0
C865 C 0.44242 0.62218 0.77752 0.0
C866 C 0.4177 0.60714 0.73418 0.0
C867 C 0.44296 0.60808 0.83783 0.0
C868 C 0.4676 0.62353 0.88746 0.0
C869 C 0.47351 0.65094 0.91689 0.0
C870 C 0.49659 0.66522 0.96417 0.0
C871 C 0.5137 0.65215 0.98293 0.0
C872 C 0.50779 0.62478 0.9544 0.0
C873 C 0.48477 0.61043 0.90698 0.0
H874 H 0.53138 0.66316 0.01989 0.0
H875 H 0.29676 0.52547 0.58896 0.0
H876 H 0.86471 0.34026 0.27862 0.0
H877 H 0.87316 0.38279 0.20812 0.0
H878 H 0.78206 0.33082 0.13358 0.0
H879 H 0.77416 0.28809 0.20219 0.0
H880 H 0.81428 0.37108 0.04423 0.0
H881 H 0.79977 0.37225 0.28169 0.0
H882 H 0.81106 0.37137 0.40142 0.0
H883 H 0.89717 0.45177 0.37638 0.0
H884 H 0.88655 0.45285 0.25619 0.0
H885 H 0.74886 0.46177 0.06665 0.0
H886 H 0.76669 0.42645 0.08347 0.0
H887 H 0.8586 0.50021 0.08657 0.0
H888 H 0.84063 0.53634 0.06883 0.0
H889 H 0.83829 0.45606 0.19933 0.0
H890 H 0.83987 0.45718 0.95801 0.0
H891 H 0.81702 0.45582 0.84847 0.0
H892 H 0.74298 0.36724 0.89152 0.0
H893 H 0.76511 0.36824 0.0017 0.0
C894 C 0.84729 0.3372 0.24346 0.0
C895 C 0.81887 0.31082 0.2454 0.0
C896 C 0.85188 0.3618 0.20427 0.0
C897 C 0.82789 0.36048 0.16742 0.0
C898 C 0.8009 0.33262 0.16199 0.0
C899 C 0.79649 0.30793 0.20057 0.0
C900 C 0.82894 0.38861 0.14372 0.0
C901 C 0.81986 0.38977 0.07799 0.0
C902 C 0.83608 0.41315 0.1877 0.0
C903 C 0.84261 0.41233 0.25976 0.0
C904 C 0.82124 0.38956 0.30159 0.0
C905 C 0.82749 0.38905 0.36955 0.0
C906 C 0.85488 0.41141 0.39642 0.0
C907 C 0.87602 0.43438 0.35543 0.0
C908 C 0.86992 0.43494 0.28739 0.0
C909 C 0.77294 0.47064 0.07044 0.0
C910 C 0.79338 0.5019 0.06678 0.0
C911 C 0.78308 0.45033 0.07965 0.0
C912 C 0.81393 0.46065 0.08572 0.0
C913 C 0.83466 0.49184 0.08152 0.0
C914 C 0.82445 0.51238 0.07118 0.0
C915 C 0.82357 0.43834 0.10024 0.0
C916 C 0.83415 0.43803 0.16469 0.0
C917 C 0.81666 0.41409 0.056 0.0
C918 C 0.80417 0.41282 0.98823 0.0
C919 C 0.81871 0.43742 0.94414 0.0
C920 C 0.80585 0.43673 0.88195 0.0
C921 C 0.77855 0.41148 0.86308 0.0
C922 C 0.76415 0.38678 0.90616 0.0
C923 C 0.77688 0.38737 0.96843 0.0
H924 H 0.76855 0.41105 0.81506 0.0
H925 H 0.85966 0.411 0.44906 0.0
H926 H 0.31333 0.81865 0.30942 0.0
H927 H 0.36692 0.83639 0.33267 0.0
H928 H 0.34426 0.80548 0.53663 0.0
H929 H 0.2917 0.78869 0.51419 0.0
H930 H 0.39532 0.85434 0.5373 0.0
H931 H 0.34849 0.76275 0.4066 0.0
H932 H 0.32319 0.73197 0.30711 0.0
H933 H 0.40041 0.78915 0.18688 0.0
H934 H 0.42575 0.82122 0.28534 0.0
H935 H 0.46774 0.7778 0.64519 0.0
H936 H 0.43263 0.78414 0.57454 0.0
H937 H 0.50675 0.86345 0.48618 0.0
H938 H 0.54241 0.85771 0.55962 0.0
H939 H 0.4403 0.80427 0.40729 0.0
H940 H 0.48823 0.89108 0.56237 0.0
H941 H 0.50782 0.91305 0.67371 0.0
H942 H 0.42135 0.85355 0.76089 0.0
H943 H 0.40155 0.83053 0.65036 0.0
C944 C 0.32011 0.81652 0.35953 0.0
C945 C 0.29839 0.80205 0.40983 0.0
C946 C 0.35062 0.82639 0.37267 0.0
C947 C 0.35965 0.82188 0.43622 0.0
C948 C 0.33807 0.80927 0.48723 0.0
C949 C 0.3079 0.79949 0.47421 0.0
C950 C 0.39068 0.82767 0.44992 0.0
C951 C 0.40539 0.84384 0.50803 0.0
C952 C 0.40397 0.81395 0.41205 0.0
C953 C 0.38878 0.79469 0.35301 0.0
C954 C 0.35995 0.76898 0.3588 0.0
C955 C 0.34561 0.75125 0.30261 0.0
C956 C 0.36017 0.75848 0.2407 0.0
C957 C 0.38911 0.7836 0.23483 0.0
C958 C 0.40341 0.80167 0.29073 0.0
C959 C 0.47674 0.79599 0.60892 0.0
C960 C 0.50779 0.81717 0.60739 0.0
C961 C 0.45661 0.79967 0.56893 0.0
C962 C 0.46706 0.82447 0.526 0.0
C963 C 0.49832 0.84425 0.51953 0.0
C964 C 0.51868 0.84079 0.56069 0.0
C965 C 0.44453 0.83066 0.49465 0.0
C966 C 0.43106 0.81617 0.43425 0.0
C967 C 0.43168 0.84495 0.53165 0.0
C968 C 0.4436 0.85876 0.59817 0.0
C969 C 0.47356 0.88232 0.60543 0.0
C970 C 0.48467 0.89502 0.6684 0.0
C971 C 0.46588 0.88462 0.7244 0.0
C972 C 0.43592 0.8615 0.71753 0.0
C973 C 0.42477 0.84859 0.65474 0.0
H974 H 0.47451 0.89455 0.77306 0.0
H975 H 0.34904 0.74461 0.19732 0.0
H976 H 0.70923 0.47428 0.93316 0.0
H977 H 0.66829 0.43684 0.86556 0.0
H978 H 0.6394 0.50104 0.82278 0.0
H979 H 0.67895 0.53764 0.89751 0.0
H980 H 0.59446 0.45371 0.86498 0.0
H981 H 0.67053 0.46487 0.69833 0.0
H982 H 0.71752 0.4656 0.668 0.0
H983 H 0.68193 0.37608 0.74687 0.0
H984 H 0.63486 0.3749 0.77791 0.0
H985 H 0.5092 0.32982 0.58686 0.0
H986 H 0.5488 0.37856 0.62956 0.0
H987 H 0.51989 0.34811 0.83139 0.0
H988 H 0.47956 0.30003 0.78842 0.0
H989 H 0.59329 0.37958 0.70366 0.0
H990 H 0.54224 0.39417 0.92824 0.0
H991 H 0.49558 0.3902 0.97261 0.0
H992 H 0.48257 0.42523 0.7881 0.0
H993 H 0.52912 0.42898 0.74255 0.0
C994 C 0.69519 0.48101 0.90622 0.0
C995 C 0.69766 0.5091 0.91941 0.0
C996 C 0.6715 0.45937 0.86742 0.0
C997 C 0.65058 0.46588 0.83773 0.0
C998 C 0.6551 0.49527 0.84504 0.0
C999 C 0.67819 0.51656 0.88638 0.0
C1000 C 0.62209 0.44122 0.80718 0.0
C1001 C 0.5945 0.43799 0.82862 0.0
C1002 C 0.62145 0.41949 0.762 0.0
C1003 C 0.64923 0.41983 0.74036 0.0
C1004 C 0.67273 0.44534 0.70896 0.0
C1005 C 0.69939 0.44583 0.69176 0.0
C1006 C 0.70271 0.4209 0.7055 0.0
C1007 C 0.67931 0.39534 0.7361 0.0
C1008 C 0.65261 0.39471 0.75328 0.0
C1009 C 0.50994 0.33444 0.63998 0.0
C1010 C 0.49078 0.31146 0.68413 0.0
C1011 C 0.533 0.36206 0.66455 0.0
C1012 C 0.53748 0.36718 0.73378 0.0
C1013 C 0.51659 0.34524 0.7778 0.0
C1014 C 0.49318 0.31776 0.75309 0.0
C1015 C 0.56615 0.39319 0.75926 0.0
C1016 C 0.5936 0.3961 0.73818 0.0
C1017 C 0.56678 0.41419 0.80584 0.0
C1018 C 0.53884 0.41172 0.83214 0.0
C1019 C 0.52934 0.401 0.89731 0.0
C1020 C 0.50287 0.39864 0.92248 0.0
C1021 C 0.48599 0.40735 0.88312 0.0
C1022 C 0.49555 0.41833 0.81839 0.0
C1023 C 0.52187 0.42042 0.79274 0.0
H1024 H 0.46558 0.40568 0.9028 0.0
H1025 H 0.72341 0.42139 0.69245 0.0
loop_
_geom_bond_atom_site_label_1
_geom_bond_atom_site_label_2
_geom_bond_distance
_geom_bond_site_symmetry_2
_ccdc_geom_bond_type
O0 Mn1 2.163 . S
O0 C14 1.244 . S
Mn1 O0 2.163 . S
Mn1 O4 2.160 1_554 S
Mn1 O5 2.221 . S
Mn1 O7 2.163 1_554 S
Mn1 O9 2.160 . S
Mn1 O19 2.221 . S
O2 Mn3 2.087 . S
O2 C14 1.256 . S
Mn3 O2 2.087 . S
Mn3 O10 2.089 . S
Mn3 O19 2.290 . S
Mn3 O20 2.251 1_554 S
O4 Mn1 2.160 1_556 S
O4 C15 1.239 . S
O5 Mn1 2.221 . S
O5 Mn6 2.290 1_554 S
O5 C16 1.278 . S
Mn6 O5 2.290 1_556 S
Mn6 O8 2.089 . S
Mn6 O11 2.251 . S
Mn6 O12 2.087 . S
O7 Mn1 2.163 1_556 S
O7 C17 1.244 . S
O8 Mn6 2.089 . S
O8 C15 1.256 . S
O9 Mn1 2.160 . S
O9 C18 1.239 . S
O10 Mn3 2.089 . S
O10 C18 1.256 . S
O11 Mn6 2.251 . S
O11 C16 1.241 1_556 S
O12 Mn6 2.087 . S
O12 C17 1.256 . S
C13 O19 1.278 1_556 S
C13 O20 1.241 . S
C14 O0 1.244 . S
C14 O2 1.256 . S
C15 O4 1.239 . S
C15 O8 1.256 . S
C16 O5 1.278 . S
C16 O11 1.241 1_554 S
C17 O7 1.244 . S
C17 O12 1.256 . S
C18 O9 1.239 . S
C18 O10 1.256 . S
O19 Mn1 2.221 . S
O19 Mn3 2.290 . S
O19 C13 1.278 1_554 S
O20 Mn3 2.251 1_556 S
O20 C13 1.241 . S
O21 Mn22 2.163 . S
O21 C35 1.244 . S
Mn22 O21 2.163 . S
Mn22 O25 2.160 . S
Mn22 O26 2.221 . S
Mn22 O28 2.163 . S
Mn22 O30 2.160 . S
Mn22 O40 2.221 . S
O23 Mn24 2.087 . S
O23 C35 1.256 . S
Mn24 O23 2.087 . S
Mn24 O31 2.089 . S
Mn24 O40 2.290 . S
Mn24 O41 2.251 . S
O25 Mn22 2.160 . S
O25 C36 1.239 . S
O26 Mn22 2.221 . S
O26 Mn27 2.290 . S
O26 C37 1.278 . S
Mn27 O26 2.290 . S
Mn27 O29 2.089 . S
Mn27 O32 2.251 . S
Mn27 O33 2.087 . S
O28 Mn22 2.163 . S
O28 C38 1.244 . S
O29 Mn27 2.089 . S
O29 C36 1.256 . S
O30 Mn22 2.160 . S
O30 C39 1.239 . S
O31 Mn24 2.089 . S
O31 C39 1.256 . S
O32 Mn27 2.251 . S
O32 C37 1.241 . S
O33 Mn27 2.087 . S
O33 C38 1.256 . S
C34 O40 1.278 . S
C34 O41 1.241 . S
C35 O21 1.244 . S
C35 O23 1.256 . S
C36 O25 1.239 . S
C36 O29 1.256 . S
C37 O26 1.278 . S
C37 O32 1.241 . S
C38 O28 1.244 . S
C38 O33 1.256 . S
C39 O30 1.239 . S
C39 O31 1.256 . S
O40 Mn22 2.221 . S
O40 Mn24 2.290 . S
O40 C34 1.278 . S
O41 Mn24 2.251 . S
O41 C34 1.241 . S
O42 Mn43 2.163 . S
O42 C56 1.244 . S
Mn43 O42 2.163 . S
Mn43 O46 2.160 . S
Mn43 O47 2.221 . S
Mn43 O49 2.163 . S
Mn43 O51 2.160 . S
Mn43 O61 2.221 . S
O44 Mn45 2.087 . S
O44 C56 1.256 . S
Mn45 O44 2.087 . S
Mn45 O52 2.089 . S
Mn45 O61 2.290 . S
Mn45 O62 2.251 . S
O46 Mn43 2.160 . S
O46 C57 1.239 . S
O47 Mn43 2.221 . S
O47 Mn48 2.290 . S
O47 C58 1.278 . S
Mn48 O47 2.290 . S
Mn48 O50 2.089 . S
Mn48 O53 2.251 . S
Mn48 O54 2.087 . S
O49 Mn43 2.163 . S
O49 C59 1.244 . S
O50 Mn48 2.089 . S
O50 C57 1.256 . S
O51 Mn43 2.160 . S
O51 C60 1.239 . S
O52 Mn45 2.089 . S
O52 C60 1.256 . S
O53 Mn48 2.251 . S
O53 C58 1.241 . S
O54 Mn48 2.087 . S
O54 C59 1.256 . S
C55 O61 1.278 . S
C55 O62 1.241 . S
C56 O42 1.244 . S
C56 O44 1.256 . S
C57 O46 1.239 . S
C57 O50 1.256 . S
C58 O47 1.278 . S
C58 O53 1.241 . S
C59 O49 1.244 . S
C59 O54 1.256 . S
C60 O51 1.239 . S
C60 O52 1.256 . S
O61 Mn43 2.221 . S
O61 Mn45 2.290 . S
O61 C55 1.278 . S
O62 Mn45 2.251 . S
O62 C55 1.241 . S
O63 Mn64 2.163 . S
O63 C77 1.244 . S
Mn64 O63 2.163 . S
Mn64 O67 2.160 1_554 S
Mn64 O68 2.221 . S
Mn64 O70 2.163 1_554 S
Mn64 O72 2.160 . S
Mn64 O82 2.221 . S
O65 Mn66 2.087 . S
O65 C77 1.256 . S
Mn66 O65 2.087 . S
Mn66 O73 2.089 . S
Mn66 O82 2.290 . S
Mn66 O83 2.251 1_554 S
O67 Mn64 2.160 1_556 S
O67 C78 1.239 . S
O68 Mn64 2.221 . S
O68 Mn69 2.290 1_554 S
O68 C79 1.278 . S
Mn69 O68 2.290 1_556 S
Mn69 O71 2.089 . S
Mn69 O74 2.251 . S
Mn69 O75 2.087 . S
O70 Mn64 2.163 1_556 S
O70 C80 1.244 . S
O71 Mn69 2.089 . S
O71 C78 1.256 . S
O72 Mn64 2.160 . S
O72 C81 1.239 . S
O73 Mn66 2.089 . S
O73 C81 1.256 . S
O74 Mn69 2.251 . S
O74 C79 1.241 1_556 S
O75 Mn69 2.087 . S
O75 C80 1.256 . S
C76 O82 1.278 1_556 S
C76 O83 1.241 . S
C77 O63 1.244 . S
C77 O65 1.256 . S
C78 O67 1.239 . S
C78 O71 1.256 . S
C79 O68 1.278 . S
C79 O74 1.241 1_554 S
C80 O70 1.244 . S
C80 O75 1.256 . S
C81 O72 1.239 . S
C81 O73 1.256 . S
O82 Mn64 2.221 . S
O82 Mn66 2.290 . S
O82 C76 1.278 1_554 S
O83 Mn66 2.251 1_556 S
O83 C76 1.241 . S
O84 Mn85 2.163 . S
O84 C98 1.244 . S
Mn85 O84 2.163 . S
Mn85 O88 2.160 . S
Mn85 O89 2.221 . S
Mn85 O91 2.163 . S
Mn85 O93 2.160 . S
Mn85 O103 2.221 . S
O86 Mn87 2.087 . S
O86 C98 1.256 . S
Mn87 O86 2.087 . S
Mn87 O94 2.089 . S
Mn87 O103 2.290 . S
Mn87 O104 2.251 . S
O88 Mn85 2.160 . S
O88 C99 1.239 . S
O89 Mn85 2.221 . S
O89 Mn90 2.290 . S
O89 C100 1.278 . S
Mn90 O89 2.290 . S
Mn90 O92 2.089 . S
Mn90 O95 2.251 . S
Mn90 O96 2.087 . S
O91 Mn85 2.163 . S
O91 C101 1.244 . S
O92 Mn90 2.089 . S
O92 C99 1.256 . S
O93 Mn85 2.160 . S
O93 C102 1.239 . S
O94 Mn87 2.089 . S
O94 C102 1.256 . S
O95 Mn90 2.251 . S
O95 C100 1.241 . S
O96 Mn90 2.087 . S
O96 C101 1.256 . S
C97 O103 1.278 . S
C97 O104 1.241 . S
C98 O84 1.244 . S
C98 O86 1.256 . S
C99 O88 1.239 . S
C99 O92 1.256 . S
C100 O89 1.278 . S
C100 O95 1.241 . S
C101 O91 1.244 . S
C101 O96 1.256 . S
C102 O93 1.239 . S
C102 O94 1.256 . S
O103 Mn85 2.221 . S
O103 Mn87 2.290 . S
O103 C97 1.278 . S
O104 Mn87 2.251 . S
O104 C97 1.241 . S
O105 Mn106 2.163 . S
O105 C119 1.244 . S
Mn106 O105 2.163 . S
Mn106 O109 2.160 . S
Mn106 O110 2.221 . S
Mn106 O112 2.163 . S
Mn106 O114 2.160 . S
Mn106 O124 2.221 . S
O107 Mn108 2.087 . S
O107 C119 1.256 . S
Mn108 O107 2.087 . S
Mn108 O115 2.089 . S
Mn108 O124 2.290 . S
Mn108 O125 2.251 . S
O109 Mn106 2.160 . S
O109 C120 1.239 . S
O110 Mn106 2.221 . S
O110 Mn111 2.290 . S
O110 C121 1.278 . S
Mn111 O110 2.290 . S
Mn111 O113 2.089 . S
Mn111 O116 2.251 . S
Mn111 O117 2.087 . S
O112 Mn106 2.163 . S
O112 C122 1.244 . S
O113 Mn111 2.089 . S
O113 C120 1.256 . S
O114 Mn106 2.160 . S
O114 C123 1.239 . S
O115 Mn108 2.089 . S
O115 C123 1.256 . S
O116 Mn111 2.251 . S
O116 C121 1.241 . S
O117 Mn111 2.087 . S
O117 C122 1.256 . S
C118 O124 1.278 . S
C118 O125 1.241 . S
C119 O105 1.244 . S
C119 O107 1.256 . S
C120 O109 1.239 . S
C120 O113 1.256 . S
C121 O110 1.278 . S
C121 O116 1.241 . S
C122 O112 1.244 . S
C122 O117 1.256 . S
C123 O114 1.239 . S
C123 O115 1.256 . S
O124 Mn106 2.221 . S
O124 Mn108 2.290 . S
O124 C118 1.278 . S
O125 Mn108 2.251 . S
O125 C118 1.241 . S
H126 C144 0.951 . S
H127 C146 0.951 . S
H128 C148 0.950 . S
H129 C149 0.950 . S
H130 C151 0.950 . S
H131 C154 0.950 . S
H132 C155 0.950 . S
H133 C157 0.950 . S
H134 C158 0.950 . S
H135 C159 0.951 . S
H136 C161 0.951 . S
H137 C163 0.950 . S
H138 C164 0.950 . S
H139 C166 0.950 . S
H140 C169 0.950 . S
H141 C170 0.950 . S
H142 C172 0.950 . S
H143 C173 0.950 . S
C144 H126 0.951 . S
C144 C145 1.366 . S
C144 C146 1.388 . S
C145 C144 1.366 . S
C145 C149 1.385 . S
C146 H127 0.951 . S
C146 C144 1.388 . S
C146 C147 1.366 . S
C147 C146 1.366 . S
C147 C148 1.414 . S
C147 C150 1.499 . S
C148 H128 0.950 . S
C148 C147 1.414 . S
C148 C149 1.374 . S
C149 H129 0.950 . S
C149 C145 1.385 . S
C149 C148 1.374 . S
C150 C147 1.499 . S
C150 C151 1.373 . S
C150 C152 1.389 . S
C151 H130 0.950 . S
C151 C150 1.373 . S
C151 C167 1.377 . S
C152 C150 1.389 . S
C152 C153 1.524 . S
C152 C166 1.377 . S
C153 C152 1.524 . S
C153 C154 1.397 . S
C153 C158 1.363 . S
C154 H131 0.950 . S
C154 C153 1.397 . S
C154 C155 1.334 . S
C155 H132 0.950 . S
C155 C154 1.334 . S
C155 C156 1.287 . S
C156 C155 1.287 . S
C156 C157 1.524 . S
C156 H175 0.913 1_556 S
C157 H133 0.950 . S
C157 C156 1.524 . S
C157 C158 1.415 . S
C158 H134 0.950 . S
C158 C153 1.363 . S
C158 C157 1.415 . S
C159 H135 0.951 . S
C159 C160 1.366 . S
C159 C161 1.388 . S
C160 C159 1.366 . S
C160 C164 1.385 . S
C161 H136 0.951 . S
C161 C159 1.388 . S
C161 C162 1.366 . S
C162 C161 1.366 . S
C162 C163 1.414 . S
C162 C165 1.499 . S
C163 H137 0.950 . S
C163 C162 1.414 . S
C163 C164 1.374 . S
C164 H138 0.950 . S
C164 C160 1.385 . S
C164 C163 1.374 . S
C165 C162 1.499 . S
C165 C166 1.373 . S
C165 C167 1.389 . S
C166 H139 0.950 . S
C166 C152 1.377 . S
C166 C165 1.373 . S
C167 C151 1.377 . S
C167 C165 1.389 . S
C167 C168 1.524 . S
C168 C167 1.524 . S
C168 C169 1.397 . S
C168 C173 1.363 . S
C169 H140 0.950 . S
C169 C168 1.397 . S
C169 C170 1.334 . S
C170 H141 0.950 . S
C170 C169 1.334 . S
C170 C171 1.287 . S
C171 C170 1.287 . S
C171 C172 1.524 . S
C171 H174 0.999 . S
C172 H142 0.950 . S
C172 C171 1.524 . S
C172 C173 1.415 . S
C173 H143 0.950 . S
C173 C168 1.363 . S
C173 C172 1.415 . S
H174 C171 0.999 . S
H175 C156 0.913 1_554 S
H176 C194 0.951 1_556 S
H177 C196 0.951 . S
H178 C198 0.950 . S
H179 C199 0.950 . S
H180 C201 0.950 . S
H181 C204 0.950 . S
H182 C205 0.950 . S
H183 C207 0.950 . S
H184 C208 0.950 1_655 S
H185 C209 0.951 . S
H186 C211 0.951 . S
H187 C213 0.950 . S
H188 C214 0.950 . S
H189 C216 0.950 . S
H190 C219 0.950 . S
H191 C220 0.950 . S
H192 C222 0.950 . S
H193 C223 0.950 . S
C194 H176 0.951 1_554 S
C194 C195 1.366 . S
C194 C196 1.388 . S
C195 C194 1.366 . S
C195 C199 1.385 . S
C196 H177 0.951 . S
C196 C194 1.388 . S
C196 C197 1.366 . S
C197 C196 1.366 . S
C197 C198 1.414 . S
C197 C200 1.499 . S
C198 H178 0.950 . S
C198 C197 1.414 . S
C198 C199 1.374 . S
C199 H179 0.950 . S
C199 C195 1.385 . S
C199 C198 1.374 . S
C200 C197 1.499 . S
C200 C201 1.373 . S
C200 C202 1.389 . S
C201 H180 0.950 . S
C201 C200 1.373 . S
C201 C217 1.377 . S
C202 C200 1.389 . S
C202 C203 1.524 . S
C202 C216 1.377 1_455 S
C203 C202 1.524 . S
C203 C204 1.397 . S
C203 C208 1.363 . S
C204 H181 0.950 . S
C204 C203 1.397 . S
C204 C205 1.334 . S
C205 H182 0.950 . S
C205 C204 1.334 . S
C205 C206 1.287 . S
C206 C205 1.287 . S
C206 C207 1.524 1_554 S
C206 H225 0.913 1_554 S
C207 H183 0.950 . S
C207 C206 1.524 1_556 S
C207 C208 1.415 1_556 S
C208 H184 0.950 1_455 S
C208 C203 1.363 . S
C208 C207 1.415 1_554 S
C209 H185 0.951 . S
C209 C210 1.366 . S
C209 C211 1.388 . S
C210 C209 1.366 . S
C210 C214 1.385 . S
C211 H186 0.951 . S
C211 C209 1.388 . S
C211 C212 1.366 . S
C212 C211 1.366 . S
C212 C213 1.414 . S
C212 C215 1.499 . S
C213 H187 0.950 . S
C213 C212 1.414 . S
C213 C214 1.374 . S
C214 H188 0.950 . S
C214 C210 1.385 . S
C214 C213 1.374 . S
C215 C212 1.499 . S
C215 C216 1.373 . S
C215 C217 1.389 1_655 S
C216 H189 0.950 . S
C216 C202 1.377 1_655 S
C216 C215 1.373 . S
C217 C201 1.377 . S
C217 C215 1.389 1_455 S
C217 C218 1.524 1_455 S
C218 C217 1.524 1_655 S
C218 C219 1.397 . S
C218 C223 1.363 1_655 S
C219 H190 0.950 . S
C219 C218 1.397 . S
C219 C220 1.334 . S
C220 H191 0.950 . S
C220 C219 1.334 . S
C220 C221 1.287 . S
C221 C220 1.287 . S
C221 C222 1.524 1_655 S
C221 H224 0.999 . S
C222 H192 0.950 . S
C222 C221 1.524 1_455 S
C222 C223 1.415 . S
C223 H193 0.950 . S
C223 C218 1.363 1_455 S
C223 C222 1.415 . S
H224 C221 0.999 . S
H225 C206 0.913 1_556 S
H226 C244 0.951 . S
H227 C246 0.951 . S
H228 C248 0.950 . S
H229 C249 0.950 . S
H230 C251 0.950 . S
H231 C254 0.950 . S
H232 C255 0.950 . S
H233 C257 0.950 . S
H234 C258 0.950 . S
H235 C259 0.951 . S
H236 C261 0.951 . S
H237 C263 0.950 . S
H238 C264 0.950 . S
H239 C266 0.952 1_565 S
H240 C269 0.950 . S
H241 C270 0.950 . S
H242 C272 0.950 . S
H243 C273 0.949 . S
C244 H226 0.951 . S
C244 C245 1.366 . S
C244 C246 1.388 . S
C245 C244 1.366 . S
C245 C249 1.385 . S
C246 H227 0.951 . S
C246 C244 1.388 . S
C246 C247 1.366 . S
C247 C246 1.366 . S
C247 C248 1.414 . S
C247 C250 1.499 . S
C248 H228 0.950 . S
C248 C247 1.414 . S
C248 C249 1.374 . S
C249 H229 0.950 . S
C249 C245 1.385 . S
C249 C248 1.374 . S
C250 C247 1.499 . S
C250 C251 1.373 . S
C250 C252 1.389 . S
C251 H230 0.950 . S
C251 C250 1.373 . S
C251 C267 1.377 1_545 S
C252 C250 1.389 . S
C252 C253 1.524 . S
C252 C266 1.388 . S
C253 C252 1.524 . S
C253 C254 1.397 . S
C253 C258 1.363 . S
C254 H231 0.950 . S
C254 C253 1.397 . S
C254 C255 1.334 . S
C255 H232 0.950 . S
C255 C254 1.334 . S
C255 C256 1.287 . S
C256 C255 1.287 . S
C256 C257 1.524 . S
C256 H275 0.913 . S
C257 H233 0.950 . S
C257 C256 1.524 . S
C257 C258 1.415 . S
C258 H234 0.950 . S
C258 C253 1.363 . S
C258 C257 1.415 . S
C259 H235 0.951 . S
C259 C260 1.366 . S
C259 C261 1.388 . S
C260 C259 1.366 . S
C260 C264 1.385 . S
C261 H236 0.951 . S
C261 C259 1.388 . S
C261 C262 1.366 . S
C262 C261 1.366 . S
C262 C263 1.414 . S
C262 C265 1.499 . S
C263 H237 0.950 . S
C263 C262 1.414 . S
C263 C264 1.374 . S
C264 H238 0.950 . S
C264 C260 1.385 . S
C264 C263 1.374 . S
C265 C262 1.499 . S
C265 C266 1.360 1_565 S
C265 C267 1.389 . S
C266 H239 0.952 1_545 S
C266 C252 1.388 . S
C266 C265 1.360 1_545 S
C267 C251 1.377 1_565 S
C267 C265 1.389 . S
C267 C268 1.524 . S
C268 C267 1.524 . S
C268 C269 1.397 . S
C268 C273 1.363 . S
C269 H240 0.950 . S
C269 C268 1.397 . S
C269 C270 1.334 . S
C270 H241 0.950 . S
C270 C269 1.334 . S
C270 C271 1.287 . S
C271 C270 1.287 . S
C271 C272 1.524 . S
C271 H274 0.999 . S
C272 H242 0.950 . S
C272 C271 1.524 . S
C272 C273 1.415 . S
C273 H243 0.949 . S
C273 C268 1.363 . S
C273 C272 1.415 . S
H274 C271 0.999 . S
H275 C256 0.913 . S
H276 C294 0.951 . S
H277 C296 0.951 . S
H278 C298 0.950 . S
H279 C299 0.950 . S
H280 C301 0.950 . S
H281 C304 0.950 . S
H282 C305 0.950 . S
H283 C307 0.950 . S
H284 C308 0.950 . S
H285 C309 0.951 . S
H286 C311 0.951 . S
H287 C313 0.950 . S
H288 C314 0.950 . S
H289 C316 0.950 . S
H290 C319 0.950 . S
H291 C320 0.950 . S
H292 C322 0.950 . S
H293 C323 0.950 . S
C294 H276 0.951 . S
C294 C295 1.366 . S
C294 C296 1.388 . S
C295 C294 1.366 . S
C295 C299 1.385 . S
C296 H277 0.951 . S
C296 C294 1.388 . S
C296 C297 1.366 . S
C297 C296 1.366 . S
C297 C298 1.414 . S
C297 C300 1.499 . S
C298 H278 0.950 . S
C298 C297 1.414 . S
C298 C299 1.374 . S
C299 H279 0.950 . S
C299 C295 1.385 . S
C299 C298 1.374 . S
C300 C297 1.499 . S
C300 C301 1.373 . S
C300 C302 1.389 . S
C301 H280 0.950 . S
C301 C300 1.373 . S
C301 C317 1.377 . S
C302 C300 1.389 . S
C302 C303 1.524 . S
C302 C316 1.377 . S
C303 C302 1.524 . S
C303 C304 1.397 . S
C303 C308 1.363 . S
C304 H281 0.950 . S
C304 C303 1.397 . S
C304 C305 1.334 . S
C305 H282 0.950 . S
C305 C304 1.334 . S
C305 C306 1.287 1_556 S
C306 C305 1.287 1_554 S
C306 C307 1.524 . S
C306 H325 0.913 . S
C307 H283 0.950 . S
C307 C306 1.524 . S
C307 C308 1.415 1_554 S
C308 H284 0.950 . S
C308 C303 1.363 . S
C308 C307 1.415 1_556 S
C309 H285 0.951 . S
C309 C310 1.366 . S
C309 C311 1.388 . S
C310 C309 1.366 . S
C310 C314 1.385 . S
C311 H286 0.951 . S
C311 C309 1.388 . S
C311 C312 1.366 . S
C312 C311 1.366 . S
C312 C313 1.414 . S
C312 C315 1.499 . S
C313 H287 0.950 . S
C313 C312 1.414 . S
C313 C314 1.374 . S
C314 H288 0.950 . S
C314 C310 1.385 . S
C314 C313 1.374 . S
C315 C312 1.499 . S
C315 C316 1.373 . S
C315 C317 1.389 . S
C316 H289 0.950 . S
C316 C302 1.377 . S
C316 C315 1.373 . S
C317 C301 1.377 . S
C317 C315 1.389 . S
C317 C318 1.524 . S
C318 C317 1.524 . S
C318 C319 1.397 . S
C318 C323 1.363 . S
C319 H290 0.950 . S
C319 C318 1.397 . S
C319 C320 1.334 . S
C320 H291 0.950 . S
C320 C319 1.334 . S
C320 C321 1.287 . S
C321 C320 1.287 . S
C321 C322 1.524 . S
C321 H324 0.999 . S
C322 H292 0.950 . S
C322 C321 1.524 . S
C322 C323 1.415 . S
C323 H293 0.950 . S
C323 C318 1.363 . S
C323 C322 1.415 . S
H324 C321 0.999 . S
H325 C306 0.913 . S
H326 C344 0.951 . S
H327 C346 0.951 . S
H328 C348 0.950 . S
H329 C349 0.950 . S
H330 C351 0.950 . S
H331 C354 0.950 . S
H332 C355 0.950 . S
H333 C357 0.950 . S
H334 C358 0.950 . S
H335 C359 0.951 . S
H336 C361 0.951 . S
H337 C363 0.950 . S
H338 C364 0.950 . S
H339 C366 0.950 . S
H340 C369 0.950 . S
H341 C370 0.950 . S
H342 C372 0.950 . S
H343 C373 0.950 . S
C344 H326 0.951 . S
C344 C345 1.366 . S
C344 C346 1.388 . S
C345 C344 1.366 . S
C345 C349 1.385 . S
C346 H327 0.951 . S
C346 C344 1.388 . S
C346 C347 1.366 . S
C347 C346 1.366 . S
C347 C348 1.414 . S
C347 C350 1.499 . S
C348 H328 0.950 . S
C348 C347 1.414 . S
C348 C349 1.374 . S
C349 H329 0.950 . S
C349 C345 1.385 . S
C349 C348 1.374 . S
C350 C347 1.499 . S
C350 C351 1.373 . S
C350 C352 1.389 1_455 S
C351 H330 0.950 . S
C351 C350 1.373 . S
C351 C367 1.377 1_455 S
C352 C350 1.389 1_655 S
C352 C353 1.524 . S
C352 C366 1.377 . S
C353 C352 1.524 . S
C353 C354 1.397 1_655 S
C353 C358 1.363 . S
C354 H331 0.950 . S
C354 C353 1.397 1_455 S
C354 C355 1.334 . S
C355 H332 0.950 . S
C355 C354 1.334 . S
C355 C356 1.287 . S
C356 C355 1.287 . S
C356 C357 1.524 1_455 S
C356 H375 0.913 . S
C357 H333 0.950 . S
C357 C356 1.524 1_655 S
C357 C358 1.415 . S
C358 H334 0.950 . S
C358 C353 1.363 . S
C358 C357 1.415 . S
C359 H335 0.951 . S
C359 C360 1.366 . S
C359 C361 1.388 . S
C360 C359 1.366 . S
C360 C364 1.385 . S
C361 H336 0.951 . S
C361 C359 1.388 . S
C361 C362 1.366 . S
C362 C361 1.366 . S
C362 C363 1.414 . S
C362 C365 1.499 . S
C363 H337 0.950 . S
C363 C362 1.414 . S
C363 C364 1.374 . S
C364 H338 0.950 . S
C364 C360 1.385 . S
C364 C363 1.374 . S
C365 C362 1.499 . S
C365 C366 1.373 . S
C365 C367 1.389 . S
C366 H339 0.950 . S
C366 C352 1.377 . S
C366 C365 1.373 . S
C367 C351 1.377 1_655 S
C367 C365 1.389 . S
C367 C368 1.524 . S
C368 C367 1.524 . S
C368 C369 1.397 1_554 S
C368 C373 1.363 . S
C369 H340 0.950 . S
C369 C368 1.397 1_556 S
C369 C370 1.334 . S
C370 H341 0.950 . S
C370 C369 1.334 . S
C370 C371 1.287 . S
C371 C370 1.287 . S
C371 C372 1.524 . S
C371 H374 0.999 . S
C372 H342 0.950 . S
C372 C371 1.524 . S
C372 C373 1.415 1_556 S
C373 H343 0.950 . S
C373 C368 1.363 . S
C373 C372 1.415 1_554 S
H374 C371 0.999 . S
H375 C356 0.913 . S
H376 C394 0.951 . S
H377 C396 0.951 . S
H378 C398 0.950 . S
H379 C399 0.950 . S
H380 C401 0.950 1_545 S
H381 C404 0.950 . S
H382 C405 0.950 . S
H383 C407 0.950 . S
H384 C408 0.950 . S
H385 C409 0.951 . S
H386 C411 0.951 . S
H387 C413 0.950 . S
H388 C414 0.950 . S
H389 C416 0.950 . S
H390 C419 0.950 . S
H391 C420 0.950 . S
H392 C422 0.950 . S
H393 C423 0.950 . S
C394 H376 0.951 . S
C394 C395 1.366 . S
C394 C396 1.388 . S
C395 C394 1.366 . S
C395 C399 1.385 . S
C396 H377 0.951 . S
C396 C394 1.388 . S
C396 C397 1.366 . S
C397 C396 1.366 . S
C397 C398 1.414 . S
C397 C400 1.499 . S
C398 H378 0.950 . S
C398 C397 1.414 . S
C398 C399 1.374 . S
C399 H379 0.950 . S
C399 C395 1.385 . S
C399 C398 1.374 . S
C400 C397 1.499 . S
C400 C401 1.373 1_545 S
C400 C402 1.389 . S
C401 H380 0.950 1_565 S
C401 C400 1.373 1_565 S
C401 C417 1.377 . S
C402 C400 1.389 . S
C402 C403 1.524 . S
C402 C416 1.377 1_545 S
C403 C402 1.524 . S
C403 C404 1.397 . S
C403 C408 1.363 . S
C404 H381 0.950 . S
C404 C403 1.397 . S
C404 C405 1.334 . S
C405 H382 0.950 . S
C405 C404 1.334 . S
C405 C406 1.287 . S
C406 C405 1.287 . S
C406 C407 1.524 . S
C406 H425 0.913 . S
C407 H383 0.950 . S
C407 C406 1.524 . S
C407 C408 1.415 . S
C408 H384 0.950 . S
C408 C403 1.363 . S
C408 C407 1.415 . S
C409 H385 0.951 . S
C409 C410 1.366 . S
C409 C411 1.388 . S
C410 C409 1.366 . S
C410 C414 1.385 . S
C411 H386 0.951 . S
C411 C409 1.388 . S
C411 C412 1.366 . S
C412 C411 1.366 . S
C412 C413 1.414 . S
C412 C415 1.499 . S
C413 H387 0.950 . S
C413 C412 1.414 . S
C413 C414 1.374 . S
C414 H388 0.950 . S
C414 C410 1.385 . S
C414 C413 1.374 . S
C415 C412 1.499 . S
C415 C416 1.373 . S
C415 C417 1.389 . S
C416 H389 0.950 . S
C416 C402 1.377 1_565 S
C416 C415 1.373 . S
C417 C401 1.377 . S
C417 C415 1.389 . S
C417 C418 1.524 . S
C418 C417 1.524 . S
C418 C419 1.397 . S
C418 C423 1.363 . S
C419 H390 0.950 . S
C419 C418 1.397 . S
C419 C420 1.334 . S
C420 H391 0.950 . S
C420 C419 1.334 . S
C420 C421 1.287 . S
C421 C420 1.287 . S
C421 C422 1.524 . S
C421 H424 0.999 . S
C422 H392 0.950 . S
C422 C421 1.524 . S
C422 C423 1.415 . S
C423 H393 0.950 . S
C423 C418 1.363 . S
C423 C422 1.415 . S
H424 C421 0.999 . S
H425 C406 0.913 . S
H426 C444 0.951 . S
H427 C446 0.951 . S
H428 C448 0.950 . S
H429 C449 0.950 . S
H430 C451 0.950 . S
H431 C454 0.950 . S
H432 C455 0.950 . S
H433 C457 0.950 . S
H434 C458 0.950 . S
H435 C459 0.951 . S
H436 C461 0.951 . S
H437 C463 0.950 . S
H438 C464 0.950 . S
H439 C466 0.950 . S
H440 C469 0.950 . S
H441 C470 0.950 . S
H442 C472 0.950 . S
H443 C473 0.950 . S
C444 H426 0.951 . S
C444 C445 1.366 . S
C444 C446 1.388 . S
C445 C444 1.366 . S
C445 C449 1.385 . S
C446 H427 0.951 . S
C446 C444 1.388 . S
C446 C447 1.366 . S
C447 C446 1.366 . S
C447 C448 1.414 . S
C447 C450 1.499 . S
C448 H428 0.950 . S
C448 C447 1.414 . S
C448 C449 1.374 . S
C449 H429 0.950 . S
C449 C445 1.385 . S
C449 C448 1.374 . S
C450 C447 1.499 . S
C450 C451 1.373 . S
C450 C452 1.389 . S
C451 H430 0.950 . S
C451 C450 1.373 . S
C451 C467 1.377 . S
C452 C450 1.389 . S
C452 C453 1.524 . S
C452 C466 1.377 . S
C453 C452 1.524 . S
C453 C454 1.397 . S
C453 C458 1.363 . S
C454 H431 0.950 . S
C454 C453 1.397 . S
C454 C455 1.334 . S
C455 H432 0.950 . S
C455 C454 1.334 . S
C455 C456 1.287 . S
C456 C455 1.287 . S
C456 C457 1.524 . S
C456 H475 0.913 . S
C457 H433 0.950 . S
C457 C456 1.524 . S
C457 C458 1.415 . S
C458 H434 0.950 . S
C458 C453 1.363 . S
C458 C457 1.415 . S
C459 H435 0.951 . S
C459 C460 1.366 . S
C459 C461 1.388 . S
C460 C459 1.366 . S
C460 C464 1.385 . S
C461 H436 0.951 . S
C461 C459 1.388 . S
C461 C462 1.366 . S
C462 C461 1.366 . S
C462 C463 1.414 . S
C462 C465 1.499 . S
C463 H437 0.950 . S
C463 C462 1.414 . S
C463 C464 1.374 . S
C464 H438 0.950 . S
C464 C460 1.385 . S
C464 C463 1.374 . S
C465 C462 1.499 . S
C465 C466 1.373 . S
C465 C467 1.389 . S
C466 H439 0.950 . S
C466 C452 1.377 . S
C466 C465 1.373 . S
C467 C451 1.377 . S
C467 C465 1.389 . S
C467 C468 1.524 . S
C468 C467 1.524 . S
C468 C469 1.397 . S
C468 C473 1.363 . S
C469 H440 0.950 . S
C469 C468 1.397 . S
C469 C470 1.334 . S
C470 H441 0.950 . S
C470 C469 1.334 . S
C470 C471 1.287 . S
C471 C470 1.287 . S
C471 C472 1.524 . S
C471 H474 0.999 . S
C472 H442 0.950 . S
C472 C471 1.524 . S
C472 C473 1.415 . S
C473 H443 0.950 . S
C473 C468 1.363 . S
C473 C472 1.415 . S
H474 C471 0.999 . S
H475 C456 0.913 . S
H476 C494 0.951 . S
H477 C496 0.951 . S
H478 C498 0.950 . S
H479 C499 0.950 . S
H480 C501 0.950 . S
H481 C504 0.950 . S
H482 C505 0.950 . S
H483 C507 0.950 . S
H484 C508 0.950 . S
H485 C509 0.951 . S
H486 C511 0.951 . S
H487 C513 0.950 . S
H488 C514 0.950 . S
H489 C516 0.950 . S
H490 C519 0.950 . S
H491 C520 0.950 . S
H492 C522 0.950 . S
H493 C523 0.950 . S
C494 H476 0.951 . S
C494 C495 1.366 . S
C494 C496 1.388 . S
C495 C494 1.366 . S
C495 C499 1.385 . S
C496 H477 0.951 . S
C496 C494 1.388 . S
C496 C497 1.366 1_554 S
C497 C496 1.366 1_556 S
C497 C498 1.414 1_556 S
C497 C500 1.499 . S
C498 H478 0.950 . S
C498 C497 1.414 1_554 S
C498 C499 1.374 . S
C499 H479 0.950 . S
C499 C495 1.385 . S
C499 C498 1.374 . S
C500 C497 1.499 . S
C500 C501 1.373 . S
C500 C502 1.389 . S
C501 H480 0.950 . S
C501 C500 1.373 . S
C501 C517 1.377 . S
C502 C500 1.389 . S
C502 C503 1.524 . S
C502 C516 1.377 . S
C503 C502 1.524 . S
C503 C504 1.397 . S
C503 C508 1.363 . S
C504 H481 0.950 . S
C504 C503 1.397 . S
C504 C505 1.334 . S
C505 H482 0.950 . S
C505 C504 1.334 . S
C505 C506 1.287 . S
C506 C505 1.287 . S
C506 C507 1.524 . S
C506 H525 0.913 . S
C507 H483 0.950 . S
C507 C506 1.524 . S
C507 C508 1.415 . S
C508 H484 0.950 . S
C508 C503 1.363 . S
C508 C507 1.415 . S
C509 H485 0.951 . S
C509 C510 1.366 . S
C509 C511 1.388 . S
C510 C509 1.366 . S
C510 C514 1.385 . S
C511 H486 0.951 . S
C511 C509 1.388 . S
C511 C512 1.366 . S
C512 C511 1.366 . S
C512 C513 1.414 . S
C512 C515 1.499 . S
C513 H487 0.950 . S
C513 C512 1.414 . S
C513 C514 1.374 . S
C514 H488 0.950 . S
C514 C510 1.385 . S
C514 C513 1.374 . S
C515 C512 1.499 . S
C515 C516 1.373 . S
C515 C517 1.389 . S
C516 H489 0.950 . S
C516 C502 1.377 . S
C516 C515 1.373 . S
C517 C501 1.377 . S
C517 C515 1.389 . S
C517 C518 1.524 . S
C518 C517 1.524 . S
C518 C519 1.397 . S
C518 C523 1.363 . S
C519 H490 0.950 . S
C519 C518 1.397 . S
C519 C520 1.334 . S
C520 H491 0.950 . S
C520 C519 1.334 . S
C520 C521 1.287 . S
C521 C520 1.287 . S
C521 C522 1.524 . S
C521 H524 0.999 . S
C522 H492 0.950 . S
C522 C521 1.524 . S
C522 C523 1.415 . S
C523 H493 0.950 . S
C523 C518 1.363 . S
C523 C522 1.415 . S
H524 C521 0.999 . S
H525 C506 0.913 . S
H526 C544 0.951 . S
H527 C546 0.951 . S
H528 C548 0.950 . S
H529 C549 0.950 . S
H530 C551 0.950 . S
H531 C554 0.950 . S
H532 C555 0.950 . S
H533 C557 0.950 . S
H534 C558 0.950 . S
H535 C559 0.951 . S
H536 C561 0.951 . S
H537 C563 0.950 1_554 S
H538 C564 0.950 . S
H539 C566 0.950 . S
H540 C569 0.950 . S
H541 C570 0.950 . S
H542 C572 0.950 . S
H543 C573 0.950 . S
C544 H526 0.951 . S
C544 C545 1.366 . S
C544 C546 1.388 . S
C545 C544 1.366 . S
C545 C549 1.385 . S
C546 H527 0.951 . S
C546 C544 1.388 . S
C546 C547 1.366 . S
C547 C546 1.366 . S
C547 C548 1.414 . S
C547 C550 1.499 . S
C548 H528 0.950 . S
C548 C547 1.414 . S
C548 C549 1.374 . S
C549 H529 0.950 . S
C549 C545 1.385 . S
C549 C548 1.374 . S
C550 C547 1.499 . S
C550 C551 1.373 . S
C550 C552 1.389 . S
C551 H530 0.950 . S
C551 C550 1.373 . S
C551 C567 1.377 . S
C552 C550 1.389 . S
C552 C553 1.524 . S
C552 C566 1.377 . S
C553 C552 1.524 . S
C553 C554 1.397 . S
C553 C558 1.363 . S
C554 H531 0.950 . S
C554 C553 1.397 . S
C554 C555 1.334 . S
C555 H532 0.950 . S
C555 C554 1.334 . S
C555 C556 1.287 . S
C556 C555 1.287 . S
C556 C557 1.524 . S
C556 H575 0.913 . S
C557 H533 0.950 . S
C557 C556 1.524 . S
C557 C558 1.415 . S
C558 H534 0.950 . S
C558 C553 1.363 . S
C558 C557 1.415 . S
C559 H535 0.951 . S
C559 C560 1.366 . S
C559 C561 1.388 1_556 S
C560 C559 1.366 . S
C560 C564 1.385 . S
C561 H536 0.951 . S
C561 C559 1.388 1_554 S
C561 C562 1.366 . S
C562 C561 1.366 . S
C562 C563 1.414 1_554 S
C562 C565 1.499 . S
C563 H537 0.950 1_556 S
C563 C562 1.414 1_556 S
C563 C564 1.374 . S
C564 H538 0.950 . S
C564 C560 1.385 . S
C564 C563 1.374 . S
C565 C562 1.499 . S
C565 C566 1.373 . S
C565 C567 1.389 . S
C566 H539 0.950 . S
C566 C552 1.377 . S
C566 C565 1.373 . S
C567 C551 1.377 . S
C567 C565 1.389 . S
C567 C568 1.524 . S
C568 C567 1.524 . S
C568 C569 1.397 . S
C568 C573 1.363 . S
C569 H540 0.950 . S
C569 C568 1.397 . S
C569 C570 1.334 . S
C570 H541 0.950 . S
C570 C569 1.334 . S
C570 C571 1.287 . S
C571 C570 1.287 . S
C571 C572 1.524 . S
C571 H574 0.999 . S
C572 H542 0.950 . S
C572 C571 1.524 . S
C572 C573 1.415 . S
C573 H543 0.950 . S
C573 C568 1.363 . S
C573 C572 1.415 . S
H574 C571 0.999 . S
H575 C556 0.913 . S
H576 C594 0.951 . S
H577 C596 0.951 . S
H578 C598 0.950 . S
H579 C599 0.950 . S
H580 C601 0.950 . S
H581 C604 0.950 . S
H582 C605 0.950 . S
H583 C607 0.950 . S
H584 C608 0.950 . S
H585 C609 0.951 . S
H586 C611 0.951 . S
H587 C613 0.950 . S
H588 C614 0.950 . S
H589 C616 0.950 . S
H590 C619 0.950 . S
H591 C620 0.950 . S
H592 C622 0.950 . S
H593 C623 0.950 . S
C594 H576 0.951 . S
C594 C595 1.366 . S
C594 C596 1.388 . S
C595 C594 1.366 . S
C595 C599 1.385 . S
C596 H577 0.951 . S
C596 C594 1.388 . S
C596 C597 1.366 . S
C597 C596 1.366 . S
C597 C598 1.414 . S
C597 C600 1.499 . S
C598 H578 0.950 . S
C598 C597 1.414 . S
C598 C599 1.374 . S
C599 H579 0.950 . S
C599 C595 1.385 . S
C599 C598 1.374 . S
C600 C597 1.499 . S
C600 C601 1.373 . S
C600 C602 1.389 . S
C601 H580 0.950 . S
C601 C600 1.373 . S
C601 C617 1.377 . S
C602 C600 1.389 . S
C602 C603 1.524 . S
C602 C616 1.377 . S
C603 C602 1.524 . S
C603 C604 1.397 . S
C603 C608 1.363 . S
C604 H581 0.950 . S
C604 C603 1.397 . S
C604 C605 1.334 . S
C605 H582 0.950 . S
C605 C604 1.334 . S
C605 C606 1.287 . S
C606 C605 1.287 . S
C606 C607 1.524 . S
C606 H625 0.913 . S
C607 H583 0.950 . S
C607 C606 1.524 . S
C607 C608 1.415 . S
C608 H584 0.950 . S
C608 C603 1.363 . S
C608 C607 1.415 . S
C609 H585 0.951 . S
C609 C610 1.366 . S
C609 C611 1.388 . S
C610 C609 1.366 . S
C610 C614 1.385 . S
C611 H586 0.951 . S
C611 C609 1.388 . S
C611 C612 1.366 . S
C612 C611 1.366 . S
C612 C613 1.414 . S
C612 C615 1.499 . S
C613 H587 0.950 . S
C613 C612 1.414 . S
C613 C614 1.374 . S
C614 H588 0.950 . S
C614 C610 1.385 . S
C614 C613 1.374 . S
C615 C612 1.499 . S
C615 C616 1.373 . S
C615 C617 1.389 . S
C616 H589 0.950 . S
C616 C602 1.377 . S
C616 C615 1.373 . S
C617 C601 1.377 . S
C617 C615 1.389 . S
C617 C618 1.524 . S
C618 C617 1.524 . S
C618 C619 1.397 . S
C618 C623 1.363 . S
C619 H590 0.950 . S
C619 C618 1.397 . S
C619 C620 1.334 . S
C620 H591 0.950 . S
C620 C619 1.334 . S
C620 C621 1.287 . S
C621 C620 1.287 . S
C621 C622 1.524 . S
C621 H624 0.999 . S
C622 H592 0.950 . S
C622 C621 1.524 . S
C622 C623 1.415 . S
C623 H593 0.950 . S
C623 C618 1.363 . S
C623 C622 1.415 . S
H624 C621 0.999 . S
H625 C606 0.913 . S
H626 C644 0.951 . S
H627 C646 0.951 . S
H628 C648 0.950 . S
H629 C649 0.950 . S
H630 C651 0.950 . S
H631 C654 0.950 . S
H632 C655 0.950 . S
H633 C657 0.950 . S
H634 C658 0.950 . S
H635 C659 0.951 . S
H636 C661 0.951 1_556 S
H637 C663 0.950 . S
H638 C664 0.950 . S
H639 C666 0.950 . S
H640 C669 0.950 . S
H641 C670 0.950 1_554 S
H642 C672 0.950 . S
H643 C673 0.950 . S
C644 H626 0.951 . S
C644 C645 1.366 . S
C644 C646 1.388 . S
C645 C644 1.366 . S
C645 C649 1.385 . S
C646 H627 0.951 . S
C646 C644 1.388 . S
C646 C647 1.366 . S
C647 C646 1.366 . S
C647 C648 1.414 . S
C647 C650 1.499 . S
C648 H628 0.950 . S
C648 C647 1.414 . S
C648 C649 1.374 . S
C649 H629 0.950 . S
C649 C645 1.385 . S
C649 C648 1.374 . S
C650 C647 1.499 . S
C650 C651 1.373 . S
C650 C652 1.389 . S
C651 H630 0.950 . S
C651 C650 1.373 . S
C651 C667 1.377 . S
C652 C650 1.389 . S
C652 C653 1.524 . S
C652 C666 1.377 . S
C653 C652 1.524 . S
C653 C654 1.397 . S
C653 C658 1.363 . S
C654 H631 0.950 . S
C654 C653 1.397 . S
C654 C655 1.334 . S
C655 H632 0.950 . S
C655 C654 1.334 . S
C655 C656 1.287 . S
C656 C655 1.287 . S
C656 C657 1.524 . S
C656 H675 0.913 . S
C657 H633 0.950 . S
C657 C656 1.524 . S
C657 C658 1.415 . S
C658 H634 0.950 . S
C658 C653 1.363 . S
C658 C657 1.415 . S
C659 H635 0.951 . S
C659 C660 1.366 . S
C659 C661 1.388 . S
C660 C659 1.366 . S
C660 C664 1.385 . S
C661 H636 0.951 1_554 S
C661 C659 1.388 . S
C661 C662 1.366 1_554 S
C662 C661 1.366 1_556 S
C662 C663 1.414 1_556 S
C662 C665 1.499 . S
C663 H637 0.950 . S
C663 C662 1.414 1_554 S
C663 C664 1.374 . S
C664 H638 0.950 . S
C664 C660 1.385 . S
C664 C663 1.374 . S
C665 C662 1.499 . S
C665 C666 1.373 . S
C665 C667 1.389 . S
C666 H639 0.950 . S
C666 C652 1.377 . S
C666 C665 1.373 . S
C667 C651 1.377 . S
C667 C665 1.389 . S
C667 C668 1.524 . S
C668 C667 1.524 . S
C668 C669 1.397 . S
C668 C673 1.363 . S
C669 H640 0.950 . S
C669 C668 1.397 . S
C669 C670 1.334 . S
C670 H641 0.950 1_556 S
C670 C669 1.334 . S
C670 C671 1.287 . S
C671 C670 1.287 . S
C671 C672 1.524 . S
C671 H674 0.999 . S
C672 H642 0.950 . S
C672 C671 1.524 . S
C672 C673 1.415 . S
C673 H643 0.950 . S
C673 C668 1.363 . S
C673 C672 1.415 . S
H674 C671 0.999 . S
H675 C656 0.913 . S
H676 C694 0.951 . S
H677 C696 0.951 . S
H678 C698 0.950 . S
H679 C699 0.950 . S
H680 C701 0.950 . S
H681 C704 0.950 . S
H682 C705 0.950 . S
H683 C707 0.950 . S
H684 C708 0.950 . S
H685 C709 0.951 . S
H686 C711 0.954 . S
H687 C713 0.950 1_554 S
H688 C714 0.950 . S
H689 C716 0.950 . S
H690 C719 0.950 . S
H691 C720 0.950 . S
H692 C722 0.950 . S
H693 C723 0.950 . S
C694 H676 0.951 . S
C694 C695 1.366 . S
C694 C696 1.388 . S
C695 C694 1.366 . S
C695 C699 1.385 . S
C696 H677 0.951 . S
C696 C694 1.388 . S
C696 C697 1.366 . S
C697 C696 1.366 . S
C697 C698 1.414 . S
C697 C700 1.499 . S
C698 H678 0.950 . S
C698 C697 1.414 . S
C698 C699 1.374 . S
C699 H679 0.950 . S
C699 C695 1.385 . S
C699 C698 1.374 . S
C700 C697 1.499 . S
C700 C701 1.373 . S
C700 C702 1.389 . S
C701 H680 0.950 . S
C701 C700 1.373 . S
C701 C717 1.377 . S
C702 C700 1.389 . S
C702 C703 1.524 . S
C702 C716 1.377 . S
C703 C702 1.524 . S
C703 C704 1.397 . S
C703 C708 1.363 . S
C704 H681 0.950 . S
C704 C703 1.397 . S
C704 C705 1.334 . S
C705 H682 0.950 . S
C705 C704 1.334 . S
C705 C706 1.287 . S
C706 C705 1.287 . S
C706 C707 1.524 . S
C706 H725 0.913 . S
C707 H683 0.950 . S
C707 C706 1.524 . S
C707 C708 1.415 . S
C708 H684 0.950 . S
C708 C703 1.363 . S
C708 C707 1.415 . S
C709 H685 0.951 . S
C709 C710 1.366 . S
C709 C711 1.382 1_556 S
C710 C709 1.366 . S
C710 C714 1.385 . S
C711 H686 0.954 . S
C711 C709 1.382 1_554 S
C711 C712 1.368 . S
C712 C711 1.368 . S
C712 C713 1.414 1_554 S
C712 C715 1.499 . S
C713 H687 0.950 1_556 S
C713 C712 1.414 1_556 S
C713 C714 1.374 . S
C714 H688 0.950 . S
C714 C710 1.385 . S
C714 C713 1.374 . S
C715 C712 1.499 . S
C715 C716 1.373 . S
C715 C717 1.389 . S
C716 H689 0.950 . S
C716 C702 1.377 . S
C716 C715 1.373 . S
C717 C701 1.377 . S
C717 C715 1.389 . S
C717 C718 1.524 . S
C718 C717 1.524 . S
C718 C719 1.397 . S
C718 C723 1.363 . S
C719 H690 0.950 . S
C719 C718 1.397 . S
C719 C720 1.334 . S
C720 H691 0.950 . S
C720 C719 1.334 . S
C720 C721 1.287 . S
C721 C720 1.287 . S
C721 C722 1.524 . S
C721 H724 0.999 . S
C722 H692 0.950 . S
C722 C721 1.524 . S
C722 C723 1.415 . S
C723 H693 0.950 . S
C723 C718 1.363 . S
C723 C722 1.415 . S
H724 C721 0.999 . S
H725 C706 0.913 . S
H726 C744 0.951 . S
H727 C746 0.951 . S
H728 C748 0.950 . S
H729 C749 0.950 . S
H730 C751 0.950 . S
H731 C754 0.950 . S
H732 C755 0.950 . S
H733 C757 0.950 . S
H734 C758 0.950 . S
H735 C759 0.951 . S
H736 C761 0.951 . S
H737 C763 0.950 . S
H738 C764 0.950 . S
H739 C766 0.950 . S
H740 C769 0.950 . S
H741 C770 0.950 . S
H742 C772 0.950 . S
H743 C773 0.950 . S
C744 H726 0.951 . S
C744 C745 1.366 . S
C744 C746 1.388 . S
C745 C744 1.366 . S
C745 C749 1.385 . S
C746 H727 0.951 . S
C746 C744 1.388 . S
C746 C747 1.366 . S
C747 C746 1.366 . S
C747 C748 1.414 . S
C747 C750 1.499 . S
C748 H728 0.950 . S
C748 C747 1.414 . S
C748 C749 1.374 . S
C749 H729 0.950 . S
C749 C745 1.385 . S
C749 C748 1.374 . S
C750 C747 1.499 . S
C750 C751 1.373 . S
C750 C752 1.389 . S
C751 H730 0.950 . S
C751 C750 1.373 . S
C751 C767 1.377 . S
C752 C750 1.389 . S
C752 C753 1.524 . S
C752 C766 1.377 . S
C753 C752 1.524 . S
C753 C754 1.397 . S
C753 C758 1.363 . S
C754 H731 0.950 . S
C754 C753 1.397 . S
C754 C755 1.334 1_554 S
C755 H732 0.950 . S
C755 C754 1.334 1_556 S
C755 C756 1.287 . S
C756 C755 1.287 . S
C756 C757 1.524 1_556 S
C756 H775 0.913 . S
C757 H733 0.950 . S
C757 C756 1.524 1_554 S
C757 C758 1.415 . S
C758 H734 0.950 . S
C758 C753 1.363 . S
C758 C757 1.415 . S
C759 H735 0.951 . S
C759 C760 1.366 . S
C759 C761 1.388 . S
C760 C759 1.366 . S
C760 C764 1.385 . S
C761 H736 0.951 . S
C761 C759 1.388 . S
C761 C762 1.366 . S
C762 C761 1.366 . S
C762 C763 1.414 . S
C762 C765 1.499 . S
C763 H737 0.950 . S
C763 C762 1.414 . S
C763 C764 1.374 . S
C764 H738 0.950 . S
C764 C760 1.385 . S
C764 C763 1.374 . S
C765 C762 1.499 . S
C765 C766 1.373 . S
C765 C767 1.389 . S
C766 H739 0.950 . S
C766 C752 1.377 . S
C766 C765 1.373 . S
C767 C751 1.377 . S
C767 C765 1.389 . S
C767 C768 1.524 . S
C768 C767 1.524 . S
C768 C769 1.397 . S
C768 C773 1.363 . S
C769 H740 0.950 . S
C769 C768 1.397 . S
C769 C770 1.334 . S
C770 H741 0.950 . S
C770 C769 1.334 . S
C770 C771 1.287 . S
C771 C770 1.287 . S
C771 C772 1.524 . S
C771 H774 0.999 . S
C772 H742 0.950 . S
C772 C771 1.524 . S
C772 C773 1.415 . S
C773 H743 0.950 . S
C773 C768 1.363 . S
C773 C772 1.415 . S
H774 C771 0.999 . S
H775 C756 0.913 . S
H776 C794 0.951 . S
H777 C796 0.951 . S
H778 C798 0.950 . S
H779 C799 0.950 . S
H780 C801 0.950 . S
H781 C804 0.950 . S
H782 C805 0.950 . S
H783 C807 0.950 . S
H784 C808 0.950 . S
H785 C809 0.951 . S
H786 C811 0.951 . S
H787 C813 0.950 . S
H788 C814 0.950 . S
H789 C816 0.950 . S
H790 C819 0.950 . S
H791 C820 0.950 . S
H792 C822 0.950 . S
H793 C823 0.950 . S
C794 H776 0.951 . S
C794 C795 1.366 . S
C794 C796 1.388 . S
C795 C794 1.366 . S
C795 C799 1.385 . S
C796 H777 0.951 . S
C796 C794 1.388 . S
C796 C797 1.366 . S
C797 C796 1.366 . S
C797 C798 1.414 . S
C797 C800 1.499 . S
C798 H778 0.950 . S
C798 C797 1.414 . S
C798 C799 1.374 . S
C799 H779 0.950 . S
C799 C795 1.385 . S
C799 C798 1.374 . S
C800 C797 1.499 . S
C800 C801 1.373 . S
C800 C802 1.389 . S
C801 H780 0.950 . S
C801 C800 1.373 . S
C801 C817 1.377 . S
C802 C800 1.389 . S
C802 C803 1.524 . S
C802 C816 1.377 . S
C803 C802 1.524 . S
C803 C804 1.397 . S
C803 C808 1.363 . S
C804 H781 0.950 . S
C804 C803 1.397 . S
C804 C805 1.334 . S
C805 H782 0.950 . S
C805 C804 1.334 . S
C805 C806 1.287 . S
C806 C805 1.287 . S
C806 C807 1.524 . S
C806 H825 0.913 . S
C807 H783 0.950 . S
C807 C806 1.524 . S
C807 C808 1.415 . S
C808 H784 0.950 . S
C808 C803 1.363 . S
C808 C807 1.415 . S
C809 H785 0.951 . S
C809 C810 1.366 . S
C809 C811 1.388 . S
C810 C809 1.366 . S
C810 C814 1.385 . S
C811 H786 0.951 . S
C811 C809 1.388 . S
C811 C812 1.366 . S
C812 C811 1.366 . S
C812 C813 1.414 . S
C812 C815 1.499 . S
C813 H787 0.950 . S
C813 C812 1.414 . S
C813 C814 1.374 . S
C814 H788 0.950 . S
C814 C810 1.385 . S
C814 C813 1.374 . S
C815 C812 1.499 . S
C815 C816 1.373 . S
C815 C817 1.389 . S
C816 H789 0.950 . S
C816 C802 1.377 . S
C816 C815 1.373 . S
C817 C801 1.377 . S
C817 C815 1.389 . S
C817 C818 1.524 . S
C818 C817 1.524 . S
C818 C819 1.397 . S
C818 C823 1.363 . S
C819 H790 0.950 . S
C819 C818 1.397 . S
C819 C820 1.334 . S
C820 H791 0.950 . S
C820 C819 1.334 . S
C820 C821 1.287 . S
C821 C820 1.287 . S
C821 C822 1.524 . S
C821 H824 0.999 . S
C822 H792 0.950 . S
C822 C821 1.524 . S
C822 C823 1.415 . S
C823 H793 0.950 . S
C823 C818 1.363 . S
C823 C822 1.415 . S
H824 C821 0.999 . S
H825 C806 0.913 . S
H826 C844 0.951 . S
H827 C846 0.951 . S
H828 C848 0.950 . S
H829 C849 0.950 . S
H830 C851 0.950 . S
H831 C854 0.950 . S
H832 C855 0.950 . S
H833 C857 0.950 . S
H834 C858 0.950 . S
H835 C859 0.951 . S
H836 C861 0.951 . S
H837 C863 0.950 . S
H838 C864 0.950 . S
H839 C866 0.950 . S
H840 C869 0.950 . S
H841 C870 0.950 1_554 S
H842 C872 0.950 1_554 S
H843 C873 0.950 . S
C844 H826 0.951 . S
C844 C845 1.366 . S
C844 C846 1.388 . S
C845 C844 1.366 . S
C845 C849 1.385 . S
C846 H827 0.951 . S
C846 C844 1.388 . S
C846 C847 1.366 . S
C847 C846 1.366 . S
C847 C848 1.414 . S
C847 C850 1.499 . S
C848 H828 0.950 . S
C848 C847 1.414 . S
C848 C849 1.374 . S
C849 H829 0.950 . S
C849 C845 1.385 . S
C849 C848 1.374 . S
C850 C847 1.499 . S
C850 C851 1.373 . S
C850 C852 1.389 . S
C851 H830 0.950 . S
C851 C850 1.373 . S
C851 C867 1.377 . S
C852 C850 1.389 . S
C852 C853 1.524 . S
C852 C866 1.377 . S
C853 C852 1.524 . S
C853 C854 1.397 . S
C853 C858 1.363 . S
C854 H831 0.950 . S
C854 C853 1.397 . S
C854 C855 1.334 . S
C855 H832 0.950 . S
C855 C854 1.334 . S
C855 C856 1.287 . S
C856 C855 1.287 . S
C856 C857 1.524 . S
C856 H875 0.913 . S
C857 H833 0.950 . S
C857 C856 1.524 . S
C857 C858 1.415 . S
C858 H834 0.950 . S
C858 C853 1.363 . S
C858 C857 1.415 . S
C859 H835 0.951 . S
C859 C860 1.366 . S
C859 C861 1.388 . S
C860 C859 1.366 . S
C860 C864 1.385 . S
C861 H836 0.951 . S
C861 C859 1.388 . S
C861 C862 1.366 . S
C862 C861 1.366 . S
C862 C863 1.414 . S
C862 C865 1.499 . S
C863 H837 0.950 . S
C863 C862 1.414 . S
C863 C864 1.374 . S
C864 H838 0.950 . S
C864 C860 1.385 . S
C864 C863 1.374 . S
C865 C862 1.499 . S
C865 C866 1.373 . S
C865 C867 1.389 . S
C866 H839 0.950 . S
C866 C852 1.377 . S
C866 C865 1.373 . S
C867 C851 1.377 . S
C867 C865 1.389 . S
C867 C868 1.524 . S
C868 C867 1.524 . S
C868 C869 1.397 . S
C868 C873 1.363 . S
C869 H840 0.950 . S
C869 C868 1.397 . S
C869 C870 1.334 . S
C870 H841 0.950 1_556 S
C870 C869 1.334 . S
C870 C871 1.287 1_556 S
C871 C870 1.287 1_554 S
C871 C872 1.524 1_554 S
C871 H874 0.999 . S
C872 H842 0.950 1_556 S
C872 C871 1.524 1_556 S
C872 C873 1.415 . S
C873 H843 0.950 . S
C873 C868 1.363 . S
C873 C872 1.415 . S
H874 C871 0.999 . S
H875 C856 0.913 . S
H876 C894 0.951 . S
H877 C896 0.951 . S
H878 C898 0.950 . S
H879 C899 0.950 . S
H880 C901 0.950 . S
H881 C904 0.950 . S
H882 C905 0.950 . S
H883 C907 0.950 . S
H884 C908 0.950 . S
H885 C909 0.951 . S
H886 C911 0.951 . S
H887 C913 0.950 . S
H888 C914 0.950 . S
H889 C916 0.950 . S
H890 C919 0.950 1_554 S
H891 C920 0.950 . S
H892 C922 0.950 . S
H893 C923 0.950 . S
C894 H876 0.951 . S
C894 C895 1.366 . S
C894 C896 1.388 . S
C895 C894 1.366 . S
C895 C899 1.385 . S
C896 H877 0.951 . S
C896 C894 1.388 . S
C896 C897 1.366 . S
C897 C896 1.366 . S
C897 C898 1.414 . S
C897 C900 1.499 . S
C898 H878 0.950 . S
C898 C897 1.414 . S
C898 C899 1.374 . S
C899 H879 0.950 . S
C899 C895 1.385 . S
C899 C898 1.374 . S
C900 C897 1.499 . S
C900 C901 1.373 . S
C900 C902 1.389 . S
C901 H880 0.950 . S
C901 C900 1.373 . S
C901 C917 1.377 . S
C902 C900 1.389 . S
C902 C903 1.524 . S
C902 C916 1.377 . S
C903 C902 1.524 . S
C903 C904 1.397 . S
C903 C908 1.363 . S
C904 H881 0.950 . S
C904 C903 1.397 . S
C904 C905 1.334 . S
C905 H882 0.950 . S
C905 C904 1.334 . S
C905 C906 1.287 . S
C906 C905 1.287 . S
C906 C907 1.524 . S
C906 H925 0.913 . S
C907 H883 0.950 . S
C907 C906 1.524 . S
C907 C908 1.415 . S
C908 H884 0.950 . S
C908 C903 1.363 . S
C908 C907 1.415 . S
C909 H885 0.951 . S
C909 C910 1.366 . S
C909 C911 1.388 . S
C910 C909 1.366 . S
C910 C914 1.385 . S
C911 H886 0.951 . S
C911 C909 1.388 . S
C911 C912 1.366 . S
C912 C911 1.366 . S
C912 C913 1.414 . S
C912 C915 1.499 . S
C913 H887 0.950 . S
C913 C912 1.414 . S
C913 C914 1.374 . S
C914 H888 0.950 . S
C914 C910 1.385 . S
C914 C913 1.374 . S
C915 C912 1.499 . S
C915 C916 1.373 . S
C915 C917 1.389 . S
C916 H889 0.950 . S
C916 C902 1.377 . S
C916 C915 1.373 . S
C917 C901 1.377 . S
C917 C915 1.389 . S
C917 C918 1.524 . S
C918 C917 1.524 . S
C918 C919 1.397 1_554 S
C918 C923 1.363 . S
C919 H890 0.950 1_556 S
C919 C918 1.397 1_556 S
C919 C920 1.334 . S
C920 H891 0.950 . S
C920 C919 1.334 . S
C920 C921 1.287 . S
C921 C920 1.287 . S
C921 C922 1.524 . S
C921 H924 0.999 . S
C922 H892 0.950 . S
C922 C921 1.524 . S
C922 C923 1.415 1_556 S
C923 H893 0.950 . S
C923 C918 1.363 . S
C923 C922 1.415 1_554 S
H924 C921 0.999 . S
H925 C906 0.913 . S
H926 C944 0.951 . S
H927 C946 0.951 . S
H928 C948 0.950 . S
H929 C949 0.950 . S
H930 C951 0.950 . S
H931 C954 0.950 . S
H932 C955 0.950 . S
H933 C957 0.950 . S
H934 C958 0.950 . S
H935 C959 0.951 . S
H936 C961 0.951 . S
H937 C963 0.950 . S
H938 C964 0.950 . S
H939 C966 0.950 . S
H940 C969 0.950 . S
H941 C970 0.950 . S
H942 C972 0.950 . S
H943 C973 0.950 . S
C944 H926 0.951 . S
C944 C945 1.366 . S
C944 C946 1.388 . S
C945 C944 1.366 . S
C945 C949 1.385 . S
C946 H927 0.951 . S
C946 C944 1.388 . S
C946 C947 1.366 . S
C947 C946 1.366 . S
C947 C948 1.414 . S
C947 C950 1.499 . S
C948 H928 0.950 . S
C948 C947 1.414 . S
C948 C949 1.374 . S
C949 H929 0.950 . S
C949 C945 1.385 . S
C949 C948 1.374 . S
C950 C947 1.499 . S
C950 C951 1.373 . S
C950 C952 1.389 . S
C951 H930 0.950 . S
C951 C950 1.373 . S
C951 C967 1.377 . S
C952 C950 1.389 . S
C952 C953 1.524 . S
C952 C966 1.377 . S
C953 C952 1.524 . S
C953 C954 1.397 . S
C953 C958 1.363 . S
C954 H931 0.950 . S
C954 C953 1.397 . S
C954 C955 1.334 . S
C955 H932 0.950 . S
C955 C954 1.334 . S
C955 C956 1.287 . S
C956 C955 1.287 . S
C956 C957 1.524 . S
C956 H975 0.913 . S
C957 H933 0.950 . S
C957 C956 1.524 . S
C957 C958 1.415 . S
C958 H934 0.950 . S
C958 C953 1.363 . S
C958 C957 1.415 . S
C959 H935 0.951 . S
C959 C960 1.366 . S
C959 C961 1.388 . S
C960 C959 1.366 . S
C960 C964 1.385 . S
C961 H936 0.951 . S
C961 C959 1.388 . S
C961 C962 1.366 . S
C962 C961 1.366 . S
C962 C963 1.414 . S
C962 C965 1.499 . S
C963 H937 0.950 . S
C963 C962 1.414 . S
C963 C964 1.374 . S
C964 H938 0.950 . S
C964 C960 1.385 . S
C964 C963 1.374 . S
C965 C962 1.499 . S
C965 C966 1.373 . S
C965 C967 1.389 . S
C966 H939 0.950 . S
C966 C952 1.377 . S
C966 C965 1.373 . S
C967 C951 1.377 . S
C967 C965 1.389 . S
C967 C968 1.524 . S
C968 C967 1.524 . S
C968 C969 1.397 . S
C968 C973 1.363 . S
C969 H940 0.950 . S
C969 C968 1.397 . S
C969 C970 1.334 . S
C970 H941 0.950 . S
C970 C969 1.334 . S
C970 C971 1.287 . S
C971 C970 1.287 . S
C971 C972 1.524 . S
C971 H974 0.999 . S
C972 H942 0.950 . S
C972 C971 1.524 . S
C972 C973 1.415 . S
C973 H943 0.950 . S
C973 C968 1.363 . S
C973 C972 1.415 . S
H974 C971 0.999 . S
H975 C956 0.913 . S
H976 C994 0.951 . S
H977 C996 0.951 . S
H978 C998 0.950 . S
H979 C999 0.950 . S
H980 C1001 0.950 . S
H981 C1004 0.950 . S
H982 C1005 0.950 . S
H983 C1007 0.950 . S
H984 C1008 0.950 . S
H985 C1009 0.951 . S
H986 C1011 0.951 . S
H987 C1013 0.950 . S
H988 C1014 0.950 . S
H989 C1016 0.950 . S
H990 C1019 0.950 . S
H991 C1020 0.950 . S
H992 C1022 0.950 . S
H993 C1023 0.950 . S
C994 H976 0.951 . S
C994 C995 1.366 . S
C994 C996 1.388 . S
C995 C994 1.366 . S
C995 C999 1.385 . S
C996 H977 0.951 . S
C996 C994 1.388 . S
C996 C997 1.366 . S
C997 C996 1.366 . S
C997 C998 1.414 . S
C997 C1000 1.499 . S
C998 H978 0.950 . S
C998 C997 1.414 . S
C998 C999 1.374 . S
C999 H979 0.950 . S
C999 C995 1.385 . S
C999 C998 1.374 . S
C1000 C997 1.499 . S
C1000 C1001 1.373 . S
C1000 C1002 1.389 . S
C1001 H980 0.950 . S
C1001 C1000 1.373 . S
C1001 C1017 1.377 . S
C1002 C1000 1.389 . S
C1002 C1003 1.524 . S
C1002 C1016 1.377 . S
C1003 C1002 1.524 . S
C1003 C1004 1.397 . S
C1003 C1008 1.363 . S
C1004 H981 0.950 . S
C1004 C1003 1.397 . S
C1004 C1005 1.334 . S
C1005 H982 0.950 . S
C1005 C1004 1.334 . S
C1005 C1006 1.287 . S
C1006 C1005 1.287 . S
C1006 C1007 1.524 . S
C1006 H1025 0.913 . S
C1007 H983 0.950 . S
C1007 C1006 1.524 . S
C1007 C1008 1.415 . S
C1008 H984 0.950 . S
C1008 C1003 1.363 . S
C1008 C1007 1.415 . S
C1009 H985 0.951 . S
C1009 C1010 1.366 . S
C1009 C1011 1.388 . S
C1010 C1009 1.366 . S
C1010 C1014 1.385 . S
C1011 H986 0.951 . S
C1011 C1009 1.388 . S
C1011 C1012 1.366 . S
C1012 C1011 1.366 . S
C1012 C1013 1.414 . S
C1012 C1015 1.499 . S
C1013 H987 0.950 . S
C1013 C1012 1.414 . S
C1013 C1014 1.374 . S
C1014 H988 0.950 . S
C1014 C1010 1.385 . S
C1014 C1013 1.374 . S
C1015 C1012 1.499 . S
C1015 C1016 1.373 . S
C1015 C1017 1.389 . S
C1016 H989 0.950 . S
C1016 C1002 1.377 . S
C1016 C1015 1.373 . S
C1017 C1001 1.377 . S
C1017 C1015 1.389 . S
C1017 C1018 1.524 . S
C1018 C1017 1.524 . S
C1018 C1019 1.397 . S
C1018 C1023 1.363 . S
C1019 H990 0.950 . S
C1019 C1018 1.397 . S
C1019 C1020 1.334 . S
C1020 H991 0.950 . S
C1020 C1019 1.334 . S
C1020 C1021 1.287 . S
C1021 C1020 1.287 . S
C1021 C1022 1.524 . S
C1021 H1024 0.999 . S
C1022 H992 0.950 . S
C1022 C1021 1.524 . S
C1022 C1023 1.415 . S
C1023 H993 0.950 . S
C1023 C1018 1.363 . S
C1023 C1022 1.415 . S
H1024 C1021 0.999 . S
H1025 C1006 0.913 . S
C145 C121 1.343 . S
C160 C15 1.431 . S
C195 C16 1.344 . S
C210 C36 1.431 . S
C245 C37 1.343 . S
C260 C57 1.431 . S
C295 C58 1.343 . S
C310 C78 1.431 . S
C345 C99 1.430 . S
C360 C79 1.345 . S
C395 C120 1.431 . S
C410 C100 1.344 . S
C445 C17 1.061 . S
C460 C18 1.053 . S
C495 C38 1.061 . S
C510 C39 1.053 . S
C545 C59 1.062 . S
C560 C60 1.054 . S
C595 C80 1.062 . S
C610 C81 1.054 . S
C645 C102 1.053 . S
C660 C101 1.061 . S
C695 C122 1.062 . S
C710 C123 1.054 . S
C745 C14 1.287 . S
C760 C97 1.167 . S
C795 C35 1.287 . S
C810 C118 1.166 . S
C845 C13 1.165 . S
C860 C56 1.287 . S
C895 C34 1.167 . S
C910 C77 1.287 . S
C945 C98 1.288 . S
C960 C55 1.166 . S
C995 C76 1.166 . S
C1010 C119 1.287 . S
