# Generated by pormake.
# Topology pem, (4)-cn, num edge types: 1
# Building blocks:
#     Node 0, Type 0, BuildingBlock: QUQFOY_clean_sbu_1, # of connection points: 4
#     Node 1, Type 0, BuildingBlock: QUQFOY_clean_sbu_1, # of connection points: 4
#     Node 2, Type 0, BuildingBlock: QUQFOY_clean_sbu_1, # of connection points: 4
#     Node 3, Type 0, BuildingBlock: QUQFOY_clean_sbu_1, # of connection points: 4
#     Node 4, Type 0, BuildingBlock: QUQFOY_clean_sbu_1, # of connection points: 4
#     Node 5, Type 0, BuildingBlock: QUQFOY_clean_sbu_1, # of connection points: 4
#     Node 6, Type 0, BuildingBlock: QUQFOY_clean_sbu_1, # of connection points: 4
#     Node 7, Type 0, BuildingBlock: QUQFOY_clean_sbu_1, # of connection points: 4
#     Node 8, Type 0, BuildingBlock: QUQFOY_clean_sbu_1, # of connection points: 4
#     Node 9, Type 0, BuildingBlock: QUQFOY_clean_sbu_1, # of connection points: 4
#     Node 10, Type 0, BuildingBlock: QUQFOY_clean_sbu_1, # of connection points: 4
#     Node 11, Type 0, BuildingBlock: QUQFOY_clean_sbu_1, # of connection points: 4
#     Node 12, Type 0, BuildingBlock: QUQFOY_clean_sbu_1, # of connection points: 4
#     Node 13, Type 0, BuildingBlock: QUQFOY_clean_sbu_1, # of connection points: 4
#     Node 14, Type 0, BuildingBlock: QUQFOY_clean_sbu_1, # of connection points: 4
#     Node 15, Type 0, BuildingBlock: QUQFOY_clean_sbu_1, # of connection points: 4
#     Node 16, Type 0, BuildingBlock: QUQFOY_clean_sbu_1, # of connection points: 4
#     Node 17, Type 0, BuildingBlock: QUQFOY_clean_sbu_1, # of connection points: 4
#     Node 18, Type 0, BuildingBlock: QUQFOY_clean_sbu_1, # of connection points: 4
#     Node 19, Type 0, BuildingBlock: QUQFOY_clean_sbu_1, # of connection points: 4
#     Node 20, Type 0, BuildingBlock: QUQFOY_clean_sbu_1, # of connection points: 4
#     Node 21, Type 0, BuildingBlock: QUQFOY_clean_sbu_1, # of connection points: 4
#     Node 22, Type 0, BuildingBlock: QUQFOY_clean_sbu_1, # of connection points: 4
#     Node 23, Type 0, BuildingBlock: QUQFOY_clean_sbu_1, # of connection points: 4
#     Node 24, Type 0, BuildingBlock: QUQFOY_clean_sbu_1, # of connection points: 4
#     Node 25, Type 0, BuildingBlock: QUQFOY_clean_sbu_1, # of connection points: 4
#     Node 26, Type 0, BuildingBlock: QUQFOY_clean_sbu_1, # of connection points: 4
#     Node 27, Type 0, BuildingBlock: QUQFOY_clean_sbu_1, # of connection points: 4
#     Node 28, Type 0, BuildingBlock: QUQFOY_clean_sbu_1, # of connection points: 4
#     Node 29, Type 0, BuildingBlock: QUQFOY_clean_sbu_1, # of connection points: 4
#     Node 30, Type 0, BuildingBlock: QUQFOY_clean_sbu_1, # of connection points: 4
#     Node 31, Type 0, BuildingBlock: QUQFOY_clean_sbu_1, # of connection points: 4
#     Edge 32, Type (0, 0), BuildingBlock: XIVTED_clean_linker_0, # of connection points: 2
#     Edge 33, Type (0, 0), BuildingBlock: XIVTED_clean_linker_0, # of connection points: 2
#     Edge 34, Type (0, 0), BuildingBlock: XIVTED_clean_linker_0, # of connection points: 2
#     Edge 35, Type (0, 0), BuildingBlock: XIVTED_clean_linker_0, # of connection points: 2
#     Edge 36, Type (0, 0), BuildingBlock: XIVTED_clean_linker_0, # of connection points: 2
#     Edge 37, Type (0, 0), BuildingBlock: XIVTED_clean_linker_0, # of connection points: 2
#     Edge 38, Type (0, 0), BuildingBlock: XIVTED_clean_linker_0, # of connection points: 2
#     Edge 39, Type (0, 0), BuildingBlock: XIVTED_clean_linker_0, # of connection points: 2
#     Edge 40, Type (0, 0), BuildingBlock: XIVTED_clean_linker_0, # of connection points: 2
#     Edge 41, Type (0, 0), BuildingBlock: XIVTED_clean_linker_0, # of connection points: 2
#     Edge 42, Type (0, 0), BuildingBlock: XIVTED_clean_linker_0, # of connection points: 2
#     Edge 43, Type (0, 0), BuildingBlock: XIVTED_clean_linker_0, # of connection points: 2
#     Edge 44, Type (0, 0), BuildingBlock: XIVTED_clean_linker_0, # of connection points: 2
#     Edge 45, Type (0, 0), BuildingBlock: XIVTED_clean_linker_0, # of connection points: 2
#     Edge 46, Type (0, 0), BuildingBlock: XIVTED_clean_linker_0, # of connection points: 2
#     Edge 47, Type (0, 0), BuildingBlock: XIVTED_clean_linker_0, # of connection points: 2
#     Edge 48, Type (0, 0), BuildingBlock: XIVTED_clean_linker_0, # of connection points: 2
#     Edge 49, Type (0, 0), BuildingBlock: XIVTED_clean_linker_0, # of connection points: 2
#     Edge 50, Type (0, 0), BuildingBlock: XIVTED_clean_linker_0, # of connection points: 2
#     Edge 51, Type (0, 0), BuildingBlock: XIVTED_clean_linker_0, # of connection points: 2
#     Edge 52, Type (0, 0), BuildingBlock: XIVTED_clean_linker_0, # of connection points: 2
#     Edge 53, Type (0, 0), BuildingBlock: XIVTED_clean_linker_0, # of connection points: 2
#     Edge 54, Type (0, 0), BuildingBlock: XIVTED_clean_linker_0, # of connection points: 2
#     Edge 55, Type (0, 0), BuildingBlock: XIVTED_clean_linker_0, # of connection points: 2
#     Edge 56, Type (0, 0), BuildingBlock: XIVTED_clean_linker_0, # of connection points: 2
#     Edge 57, Type (0, 0), BuildingBlock: XIVTED_clean_linker_0, # of connection points: 2
#     Edge 58, Type (0, 0), BuildingBlock: XIVTED_clean_linker_0, # of connection points: 2
#     Edge 59, Type (0, 0), BuildingBlock: XIVTED_clean_linker_0, # of connection points: 2
#     Edge 60, Type (0, 0), BuildingBlock: XIVTED_clean_linker_0, # of connection points: 2
#     Edge 61, Type (0, 0), BuildingBlock: XIVTED_clean_linker_0, # of connection points: 2
#     Edge 62, Type (0, 0), BuildingBlock: XIVTED_clean_linker_0, # of connection points: 2
#     Edge 63, Type (0, 0), BuildingBlock: XIVTED_clean_linker_0, # of connection points: 2
#     Edge 64, Type (0, 0), BuildingBlock: XIVTED_clean_linker_0, # of connection points: 2
#     Edge 65, Type (0, 0), BuildingBlock: XIVTED_clean_linker_0, # of connection points: 2
#     Edge 66, Type (0, 0), BuildingBlock: XIVTED_clean_linker_0, # of connection points: 2
#     Edge 67, Type (0, 0), BuildingBlock: XIVTED_clean_linker_0, # of connection points: 2
#     Edge 68, Type (0, 0), BuildingBlock: XIVTED_clean_linker_0, # of connection points: 2
#     Edge 69, Type (0, 0), BuildingBlock: XIVTED_clean_linker_0, # of connection points: 2
#     Edge 70, Type (0, 0), BuildingBlock: XIVTED_clean_linker_0, # of connection points: 2
#     Edge 71, Type (0, 0), BuildingBlock: XIVTED_clean_linker_0, # of connection points: 2
#     Edge 72, Type (0, 0), BuildingBlock: XIVTED_clean_linker_0, # of connection points: 2
#     Edge 73, Type (0, 0), BuildingBlock: XIVTED_clean_linker_0, # of connection points: 2
#     Edge 74, Type (0, 0), BuildingBlock: XIVTED_clean_linker_0, # of connection points: 2
#     Edge 75, Type (0, 0), BuildingBlock: XIVTED_clean_linker_0, # of connection points: 2
#     Edge 76, Type (0, 0), BuildingBlock: XIVTED_clean_linker_0, # of connection points: 2
#     Edge 77, Type (0, 0), BuildingBlock: XIVTED_clean_linker_0, # of connection points: 2
#     Edge 78, Type (0, 0), BuildingBlock: XIVTED_clean_linker_0, # of connection points: 2
#     Edge 79, Type (0, 0), BuildingBlock: XIVTED_clean_linker_0, # of connection points: 2
#     Edge 80, Type (0, 0), BuildingBlock: XIVTED_clean_linker_0, # of connection points: 2
#     Edge 81, Type (0, 0), BuildingBlock: XIVTED_clean_linker_0, # of connection points: 2
#     Edge 82, Type (0, 0), BuildingBlock: XIVTED_clean_linker_0, # of connection points: 2
#     Edge 83, Type (0, 0), BuildingBlock: XIVTED_clean_linker_0, # of connection points: 2
#     Edge 84, Type (0, 0), BuildingBlock: XIVTED_clean_linker_0, # of connection points: 2
#     Edge 85, Type (0, 0), BuildingBlock: XIVTED_clean_linker_0, # of connection points: 2
#     Edge 86, Type (0, 0), BuildingBlock: XIVTED_clean_linker_0, # of connection points: 2
#     Edge 87, Type (0, 0), BuildingBlock: XIVTED_clean_linker_0, # of connection points: 2
#     Edge 88, Type (0, 0), BuildingBlock: XIVTED_clean_linker_0, # of connection points: 2
#     Edge 89, Type (0, 0), BuildingBlock: XIVTED_clean_linker_0, # of connection points: 2
#     Edge 90, Type (0, 0), BuildingBlock: XIVTED_clean_linker_0, # of connection points: 2
#     Edge 91, Type (0, 0), BuildingBlock: XIVTED_clean_linker_0, # of connection points: 2
#     Edge 92, Type (0, 0), BuildingBlock: XIVTED_clean_linker_0, # of connection points: 2
#     Edge 93, Type (0, 0), BuildingBlock: XIVTED_clean_linker_0, # of connection points: 2
#     Edge 94, Type (0, 0), BuildingBlock: XIVTED_clean_linker_0, # of connection points: 2
#     Edge 95, Type (0, 0), BuildingBlock: XIVTED_clean_linker_0, # of connection points: 2
# Relax obj value: 0.278
# Max RMSD: 0.272
# Mean RMSD: 0.235
data_MOF--net-pem--node1-QUQFOY_clean_sbu_1--edge1-XIVTED_clean_linker_0
_symmetry_space_group_name_H-M    P1
_symmetry_Int_Tables_number       1
_symmetry_cell_setting            triclinic
loop_
_symmetry_equiv_pos_as_xyz
'x, y, z'
_cell_length_a     44.569136
_cell_length_b     44.928204
_cell_length_c     44.36628
_cell_angle_alpha  89.671867
_cell_angle_beta   89.511144
_cell_angle_gamma 95.730061
loop_
_atom_site_label
_atom_site_type_symbol
_atom_site_fract_x
_atom_site_fract_y
_atom_site_fract_z
_atom_type_partial_charge
O0 O 0.14558 0.06669 0.10285 0.0
Cd1 Cd 0.1276 0.08445 0.06403 0.0
Cd2 Cd 0.10135 0.11255 0.11176 0.0
O3 O 0.13435 0.0983 0.13816 0.0
O4 O 0.14553 0.06049 0.03168 0.0
O5 O 0.15256 0.10965 0.03303 0.0
C6 C 0.15747 0.08508 0.01979 0.0
C7 C 0.08341 0.15925 0.11177 0.0
C8 C 0.14745 0.07582 0.13 0.0
C9 C 0.06185 0.07159 0.0769 0.0
O10 O 0.06719 0.08036 0.10348 0.0
O11 O 0.08201 0.07543 0.05648 0.0
O12 O 0.07984 0.14155 0.13479 0.0
O13 O 0.10005 0.15164 0.08965 0.0
O14 O 0.15286 0.90702 0.29537 0.0
Cd15 Cd 0.14517 0.86946 0.32326 0.0
Cd16 Cd 0.20356 0.9024 0.34024 0.0
O17 O 0.18547 0.9376 0.32044 0.0
O18 O 0.11874 0.84186 0.29737 0.0
O19 O 0.10333 0.85922 0.34063 0.0
C20 C 0.09788 0.84243 0.31745 0.0
C21 C 0.23447 0.9069 0.38218 0.0
C22 C 0.16724 0.93274 0.29878 0.0
C23 C 0.20171 0.84299 0.3183 0.0
O24 O 0.21413 0.86889 0.31211 0.0
O25 O 0.17696 0.84027 0.33274 0.0
O26 O 0.24303 0.91886 0.35667 0.0
O27 O 0.20733 0.89391 0.38455 0.0
O28 O 0.43809 0.91675 0.59791 0.0
Cd29 Cd 0.43984 0.88668 0.56328 0.0
Cd30 Cd 0.50858 0.89538 0.60935 0.0
O31 O 0.4784 0.92331 0.62803 0.0
O32 O 0.42455 0.90584 0.52684 0.0
O33 O 0.40089 0.86539 0.54836 0.0
C34 C 0.40166 0.8859 0.5277 0.0
C35 C 0.53801 0.86349 0.63343 0.0
C36 C 0.45208 0.92941 0.6201 0.0
C37 C 0.50141 0.8888 0.54575 0.0
O38 O 0.51886 0.90177 0.56496 0.0
O39 O 0.48008 0.87044 0.55552 0.0
O40 O 0.54729 0.89159 0.63081 0.0
O41 O 0.51128 0.85427 0.62429 0.0
O42 O 0.35443 0.10296 0.74082 0.0
Cd43 Cd 0.34005 0.13395 0.76988 0.0
Cd44 Cd 0.29548 0.0888 0.77996 0.0
O45 O 0.32269 0.06409 0.75403 0.0
O46 O 0.37319 0.16684 0.76724 0.0
O47 O 0.36183 0.14007 0.80877 0.0
C48 C 0.37865 0.16098 0.79495 0.0
C49 C 0.28069 0.08043 0.82986 0.0
C50 C 0.3453 0.07542 0.7387 0.0
C51 C 0.27551 0.14404 0.75624 0.0
O52 O 0.26848 0.11603 0.75812 0.0
O53 O 0.3021 0.15523 0.76208 0.0
O54 O 0.26921 0.06348 0.8086 0.0
O55 O 0.30257 0.10053 0.82302 0.0
O56 O 0.129 0.93543 0.39261 0.0
Cd57 Cd 0.13006 0.91852 0.43581 0.0
Cd58 Cd 0.07896 0.88053 0.41285 0.0
O59 O 0.08902 0.90784 0.37527 0.0
O60 O 0.16946 0.93519 0.45292 0.0
O61 O 0.15595 0.88667 0.44898 0.0
C62 C 0.17541 0.90808 0.4577 0.0
C63 C 0.05141 0.83357 0.40573 0.0
C64 C 0.11004 0.92898 0.37178 0.0
C65 C 0.07108 0.92129 0.46691 0.0
O66 O 0.06099 0.90069 0.4492 0.0
O67 O 0.09837 0.93234 0.46515 0.0
O68 O 0.04028 0.85834 0.40058 0.0
O69 O 0.07939 0.83494 0.41327 0.0
O70 O 0.40966 0.84013 0.63619 0.0
Cd71 Cd 0.37173 0.8633 0.64028 0.0
Cd72 Cd 0.40508 0.88424 0.69131 0.0
O73 O 0.43865 0.86394 0.67046 0.0
O74 O 0.34565 0.84618 0.60701 0.0
O75 O 0.35977 0.8944 0.61054 0.0
C76 C 0.34406 0.87287 0.59701 0.0
C77 C 0.40754 0.93159 0.71183 0.0
C78 C 0.43452 0.84404 0.65024 0.0
C79 C 0.34875 0.84799 0.70365 0.0
O80 O 0.37468 0.85583 0.71403 0.0
O81 O 0.34296 0.85213 0.67607 0.0
O82 O 0.42361 0.91179 0.72266 0.0
O83 O 0.39217 0.92527 0.68773 0.0
O84 O 0.36027 0.16687 0.95249 0.0
Cd85 Cd 0.40376 0.15864 0.94391 0.0
Cd86 Cd 0.37568 0.11361 0.90697 0.0
O87 O 0.33785 0.13102 0.92416 0.0
O88 O 0.43116 0.1965 0.9435 0.0
O89 O 0.42132 0.16719 0.90359 0.0
C90 C 0.43521 0.19092 0.91532 0.0
C91 C 0.37435 0.09056 0.85967 0.0
C92 C 0.33648 0.15245 0.94258 0.0
C93 C 0.41605 0.09749 0.9589 0.0
O94 O 0.39995 0.09015 0.93617 0.0
O95 O 0.42038 0.12453 0.96731 0.0
O96 O 0.35725 0.08029 0.8816 0.0
O97 O 0.39103 0.11535 0.86379 0.0
O98 O 0.13214 0.1971 0.1581 0.0
Cd99 Cd 0.16367 0.16745 0.15069 0.0
Cd100 Cd 0.12277 0.13923 0.20287 0.0
O101 O 0.10084 0.17679 0.19341 0.0
O102 O 0.18975 0.18967 0.1193 0.0
O103 O 0.16677 0.14454 0.11218 0.0
C104 C 0.18474 0.16671 0.10227 0.0
C105 C 0.09895 0.09611 0.22628 0.0
C106 C 0.10921 0.1981 0.17519 0.0
C107 C 0.191 0.15358 0.21052 0.0
O108 O 0.16487 0.14606 0.22122 0.0
O109 O 0.19481 0.16163 0.18322 0.0
O110 O 0.1014 0.12169 0.23938 0.0
O111 O 0.10674 0.09551 0.19825 0.0
O112 O 0.60156 0.43485 0.89614 0.0
Cd113 Cd 0.59211 0.41063 0.9352 0.0
Cd114 Cd 0.55374 0.38242 0.89833 0.0
O115 O 0.57627 0.40567 0.86335 0.0
O116 O 0.62501 0.42822 0.96127 0.0
O117 O 0.62028 0.3808 0.94707 0.0
C118 C 0.63546 0.40254 0.9609 0.0
C119 C 0.54258 0.33101 0.90144 0.0
C120 C 0.59435 0.42856 0.86914 0.0
C121 C 0.52758 0.41516 0.9473 0.0
O122 O 0.52344 0.40563 0.92072 0.0
O123 O 0.55337 0.41583 0.95929 0.0
O124 O 0.5288 0.34712 0.88298 0.0
O125 O 0.56443 0.34375 0.91719 0.0
O126 O 0.92209 0.30969 0.06563 0.0
Cd127 Cd 0.8772 0.31473 0.06056 0.0
Cd128 Cd 0.88483 0.34372 0.12245 0.0
O129 O 0.92068 0.31795 0.11491 0.0
O130 O 0.85986 0.32216 0.01954 0.0
O131 O 0.86431 0.35492 0.05641 0.0
C132 C 0.85505 0.34825 0.02958 0.0
C133 C 0.88856 0.37485 0.16525 0.0
C134 C 0.93375 0.30844 0.09165 0.0
C135 C 0.83198 0.30211 0.10599 0.0
O136 O 0.84032 0.32893 0.11326 0.0
O137 O 0.84789 0.28847 0.08783 0.0
O138 O 0.88127 0.34652 0.16772 0.0
O139 O 0.89476 0.38565 0.1387 0.0
O140 O 0.88096 0.61231 0.41343 0.0
Cd141 Cd 0.92119 0.61087 0.38994 0.0
Cd142 Cd 0.88696 0.55213 0.37641 0.0
O143 O 0.85325 0.57085 0.39998 0.0
O144 O 0.94333 0.65108 0.3984 0.0
O145 O 0.93033 0.63607 0.35256 0.0
C146 C 0.94257 0.65669 0.36999 0.0
C147 C 0.88027 0.52233 0.33351 0.0
C148 C 0.85643 0.59516 0.41478 0.0
C149 C 0.94615 0.55353 0.40901 0.0
O150 O 0.92146 0.53906 0.40153 0.0
O151 O 0.95088 0.58158 0.40453 0.0
O152 O 0.86831 0.51361 0.359 0.0
O153 O 0.89385 0.54909 0.33171 0.0
O154 O 0.84319 0.61338 0.29795 0.0
Cd155 Cd 0.83109 0.64772 0.32443 0.0
Cd156 Cd 0.78523 0.60439 0.33219 0.0
O157 O 0.81111 0.57526 0.3117 0.0
O158 O 0.86449 0.67688 0.31045 0.0
O159 O 0.85938 0.662 0.35793 0.0
C160 C 0.87484 0.67719 0.33733 0.0
C161 C 0.76742 0.60091 0.38085 0.0
C162 C 0.83406 0.5858 0.29665 0.0
C163 C 0.76957 0.6587 0.30317 0.0
O164 O 0.76248 0.63069 0.30469 0.0
O165 O 0.7946 0.6702 0.31337 0.0
O166 O 0.75595 0.58311 0.36028 0.0
O167 O 0.79058 0.61955 0.37412 0.0
O168 O 0.64773 0.38308 0.79069 0.0
Cd169 Cd 0.64355 0.34413 0.81579 0.0
Cd170 Cd 0.70572 0.37841 0.8272 0.0
O171 O 0.68784 0.41264 0.8047 0.0
O172 O 0.61596 0.31778 0.78976 0.0
O173 O 0.6023 0.33504 0.83391 0.0
C174 C 0.59543 0.31971 0.80998 0.0
C175 C 0.73238 0.38183 0.87228 0.0
C176 C 0.66406 0.40787 0.78911 0.0
C177 C 0.70063 0.31712 0.80954 0.0
O178 O 0.71357 0.34237 0.80164 0.0
O179 O 0.67606 0.31531 0.82433 0.0
O180 O 0.74421 0.3931 0.84756 0.0
O181 O 0.70464 0.37022 0.87188 0.0
O182 O 0.85053 0.88597 0.9371 0.0
Cd183 Cd 0.88982 0.91184 0.92665 0.0
Cd184 Cd 0.91063 0.86702 0.96346 0.0
O185 O 0.86641 0.84881 0.96351 0.0
O186 O 0.87131 0.94475 0.90578 0.0
O187 O 0.90721 0.92167 0.88461 0.0
C188 C 0.88922 0.94239 0.88335 0.0
C189 C 0.95098 0.84261 0.94686 0.0
C190 C 0.8451 0.86208 0.9525 0.0
C191 C 0.91758 0.92837 0.98736 0.0
O192 O 0.92018 0.9011 0.99326 0.0
O193 O 0.90782 0.93615 0.96203 0.0
O194 O 0.93805 0.8359 0.97251 0.0
O195 O 0.9401 0.86256 0.93013 0.0
O196 O 0.90375 0.18299 0.69069 0.0
Cd197 Cd 0.87428 0.1496 0.70933 0.0
Cd198 Cd 0.83983 0.16092 0.65418 0.0
O199 O 0.87655 0.19308 0.65107 0.0
O200 O 0.89644 0.13184 0.74269 0.0
O201 O 0.87452 0.10521 0.70554 0.0
C202 C 0.88874 0.10614 0.73083 0.0
C203 C 0.81318 0.14935 0.60927 0.0
C204 C 0.89953 0.19897 0.66765 0.0
C205 C 0.81219 0.16726 0.71709 0.0
O206 O 0.80972 0.1655 0.68866 0.0
O207 O 0.83686 0.16338 0.72985 0.0
O208 O 0.8152 0.17559 0.6208 0.0
O209 O 0.82755 0.12945 0.62239 0.0
O210 O 0.67011 0.08936 0.42095 0.0
Cd211 Cd 0.63855 0.07012 0.3913 0.0
Cd212 Cd 0.60227 0.11354 0.41774 0.0
O213 O 0.64184 0.12156 0.44205 0.0
O214 O 0.66008 0.0421 0.36635 0.0
O215 O 0.63328 0.07632 0.3469 0.0
C216 C 0.64793 0.05318 0.34315 0.0
C217 C 0.57485 0.15365 0.4053 0.0
C218 C 0.66638 0.10935 0.44046 0.0
C219 C 0.5799 0.04781 0.42136 0.0
O220 O 0.57472 0.07466 0.42615 0.0
O221 O 0.60455 0.04189 0.40951 0.0
O222 O 0.57682 0.14455 0.4327 0.0
O223 O 0.58967 0.14079 0.3848 0.0
O224 O 0.56836 0.81705 0.15939 0.0
Cd225 Cd 0.60773 0.83925 0.17604 0.0
Cd226 Cd 0.63031 0.81376 0.12371 0.0
O227 O 0.58572 0.80123 0.11614 0.0
O228 O 0.59409 0.86385 0.20981 0.0
O229 O 0.62331 0.88296 0.17257 0.0
C230 C 0.61002 0.88654 0.19809 0.0
C231 C 0.66257 0.82521 0.0827 0.0
C232 C 0.56425 0.80269 0.13486 0.0
C233 C 0.64957 0.79242 0.18461 0.0
O234 O 0.64966 0.78953 0.15619 0.0
O235 O 0.63518 0.81198 0.19715 0.0
O236 O 0.64977 0.79861 0.08714 0.0
O237 O 0.65592 0.84596 0.10088 0.0
O238 O 0.87045 0.06755 0.63235 0.0
Cd239 Cd 0.89366 0.08632 0.5954 0.0
Cd240 Cd 0.85144 0.04978 0.56808 0.0
O241 O 0.83379 0.03923 0.61048 0.0
O242 O 0.92462 0.11275 0.61671 0.0
O243 O 0.89551 0.13001 0.5822 0.0
C244 C 0.91741 0.13493 0.6009 0.0
C245 C 0.8255 0.07086 0.5296 0.0
C246 C 0.84728 0.04866 0.63422 0.0
C247 C 0.91439 0.03526 0.55986 0.0
O248 O 0.88686 0.0266 0.55513 0.0
O249 O 0.92159 0.05916 0.57427 0.0
O250 O 0.82025 0.04287 0.53665 0.0
O251 O 0.84471 0.08738 0.54555 0.0
O252 O 0.65944 0.12188 0.29162 0.0
Cd253 Cd 0.6855 0.15637 0.31158 0.0
Cd254 Cd 0.63634 0.18549 0.29308 0.0
O255 O 0.61836 0.14307 0.28015 0.0
O256 O 0.71815 0.13359 0.32739 0.0
O257 O 0.69152 0.16063 0.35679 0.0
C258 C 0.71255 0.14306 0.35391 0.0
C259 C 0.60791 0.21831 0.31913 0.0
C260 C 0.63335 0.12041 0.28012 0.0
C261 C 0.69679 0.20286 0.26334 0.0
O262 O 0.66878 0.20594 0.26434 0.0
O263 O 0.70825 0.18525 0.28144 0.0
O264 O 0.60328 0.21219 0.29111 0.0
O265 O 0.62802 0.20469 0.33299 0.0
O266 O 0.54899 0.92578 0.15595 0.0
Cd267 Cd 0.52355 0.90268 0.12371 0.0
Cd268 Cd 0.57345 0.92026 0.08542 0.0
O269 O 0.58558 0.94313 0.12465 0.0
O270 O 0.49042 0.87811 0.14558 0.0
O271 O 0.52087 0.85915 0.11263 0.0
C272 C 0.49769 0.85545 0.13047 0.0
C273 C 0.61286 0.90714 0.05373 0.0
C274 C 0.57288 0.94293 0.15047 0.0
C275 C 0.51263 0.94085 0.07099 0.0
O276 O 0.53908 0.93699 0.06194 0.0
O277 O 0.50253 0.93014 0.09599 0.0
O278 O 0.60858 0.93449 0.05893 0.0
O279 O 0.59519 0.88666 0.06719 0.0
O280 O 0.80549 0.89717 0.82009 0.0
Cd281 Cd 0.7985 0.86417 0.85359 0.0
Cd282 Cd 0.85862 0.865 0.84011 0.0
O283 O 0.85449 0.90773 0.8263 0.0
O284 O 0.75527 0.8625 0.86678 0.0
O285 O 0.79343 0.87753 0.89645 0.0
C286 C 0.7647 0.87219 0.89263 0.0
C287 C 0.8995 0.84428 0.86076 0.0
C288 C 0.82989 0.91363 0.81436 0.0
C289 C 0.82077 0.81406 0.82113 0.0
O290 O 0.84033 0.83398 0.81111 0.0
O291 O 0.80383 0.82002 0.84297 0.0
O292 O 0.90156 0.85758 0.83491 0.0
O293 O 0.87567 0.84688 0.87699 0.0
O294 O 0.38376 0.54706 0.15488 0.0
Cd295 Cd 0.39453 0.57309 0.11677 0.0
Cd296 Cd 0.34136 0.547 0.10254 0.0
O297 O 0.33552 0.53463 0.14665 0.0
O298 O 0.4323 0.5968 0.12936 0.0
O299 O 0.39232 0.61762 0.11335 0.0
C300 C 0.41975 0.62054 0.12282 0.0
C301 C 0.30818 0.5713 0.07396 0.0
C302 C 0.35845 0.53394 0.16331 0.0
C303 C 0.39267 0.52783 0.06861 0.0
O304 O 0.36606 0.51984 0.07767 0.0
O305 O 0.40739 0.55101 0.07912 0.0
O306 O 0.30192 0.54381 0.08237 0.0
O307 O 0.33249 0.5859 0.08402 0.0
O308 O 0.16219 0.63013 0.82199 0.0
Cd309 Cd 0.18008 0.66111 0.85263 0.0
Cd310 Cd 0.13333 0.68988 0.83061 0.0
O311 O 0.12207 0.65097 0.80697 0.0
O312 O 0.21097 0.63846 0.87158 0.0
O313 O 0.17528 0.65801 0.89774 0.0
C314 C 0.19883 0.64347 0.89718 0.0
C315 C 0.09854 0.71596 0.85598 0.0
C316 C 0.13883 0.62971 0.80572 0.0
C317 C 0.19615 0.71823 0.81961 0.0
O318 O 0.16838 0.7181 0.81364 0.0
O319 O 0.20544 0.69786 0.83588 0.0
O320 O 0.09943 0.71494 0.82696 0.0
O321 O 0.11603 0.70006 0.87092 0.0
O322 O 0.08147 0.46101 0.64005 0.0
Cd323 Cd 0.06875 0.42642 0.61076 0.0
Cd324 Cd 0.12682 0.44646 0.58925 0.0
O325 O 0.13054 0.46626 0.63086 0.0
O326 O 0.02671 0.41178 0.62359 0.0
O327 O 0.06457 0.38362 0.62562 0.0
C328 C 0.03626 0.38636 0.62955 0.0
C329 C 0.16384 0.42131 0.56617 0.0
C330 C 0.10786 0.47283 0.64611 0.0
C331 C 0.076 0.45637 0.55029 0.0
O332 O 0.10218 0.46698 0.55804 0.0
O333 O 0.06098 0.43673 0.56648 0.0
O334 O 0.16796 0.44968 0.57101 0.0
O335 O 0.13955 0.40665 0.57675 0.0
O336 O 0.07855 0.32058 0.64227 0.0
Cd337 Cd 0.1165 0.34346 0.66091 0.0
Cd338 Cd 0.13579 0.31386 0.60994 0.0
O339 O 0.092 0.31069 0.59577 0.0
O340 O 0.09778 0.36407 0.69515 0.0
O341 O 0.12777 0.38846 0.66153 0.0
C342 C 0.11142 0.38892 0.68562 0.0
C343 C 0.1775 0.32228 0.57792 0.0
C344 C 0.07198 0.31003 0.61631 0.0
C345 C 0.14855 0.29062 0.67157 0.0
O346 O 0.14344 0.2848 0.64404 0.0
O347 O 0.14367 0.31579 0.68244 0.0
O348 O 0.15933 0.29823 0.57614 0.0
O349 O 0.17075 0.34269 0.5965 0.0
O350 O 0.35141 0.65703 0.17451 0.0
Cd351 Cd 0.31727 0.63074 0.19661 0.0
Cd352 Cd 0.28612 0.65218 0.14132 0.0
O353 O 0.32964 0.6709 0.13269 0.0
O354 O 0.3402 0.61624 0.23155 0.0
O355 O 0.31304 0.58548 0.20157 0.0
C356 C 0.33008 0.58934 0.22486 0.0
C357 C 0.25324 0.64321 0.1 0.0
C358 C 0.35241 0.67184 0.1499 0.0
C359 C 0.26814 0.67097 0.205 0.0
O360 O 0.26555 0.67174 0.17653 0.0
O361 O 0.2865 0.655 0.2175 0.0
O362 O 0.26407 0.66969 0.10737 0.0
O363 O 0.2619 0.62121 0.11538 0.0
O364 O 0.60564 0.57382 0.63137 0.0
Cd365 Cd 0.59573 0.6043 0.59864 0.0
Cd366 Cd 0.55872 0.61629 0.64617 0.0
O367 O 0.58319 0.58959 0.67191 0.0
O368 O 0.61564 0.58415 0.56557 0.0
O369 O 0.63002 0.63066 0.57802 0.0
C370 C 0.63351 0.60795 0.56117 0.0
C371 C 0.55052 0.66575 0.65251 0.0
C372 C 0.59958 0.57161 0.65934 0.0
C373 C 0.52833 0.59233 0.59309 0.0
O374 O 0.52623 0.59296 0.62155 0.0
O375 O 0.5532 0.6007 0.57997 0.0
O376 O 0.53861 0.64523 0.67072 0.0
O377 O 0.56945 0.65845 0.63221 0.0
O378 O 0.92128 0.45873 0.12138 0.0
Cd379 Cd 0.924 0.43035 0.08574 0.0
Cd380 Cd 0.98751 0.42579 0.13226 0.0
O381 O 0.95986 0.45445 0.15289 0.0
O382 O 0.9044 0.43949 0.04705 0.0
O383 O 0.88531 0.4059 0.08097 0.0
C384 C 0.88325 0.41923 0.05535 0.0
C385 C 0.00196 0.38179 0.15126 0.0
C386 C 0.93551 0.46545 0.1456 0.0
C387 C 0.98374 0.42655 0.07081 0.0
O388 O 0.00268 0.43734 0.08987 0.0
O389 O 0.96177 0.40929 0.08092 0.0
O390 O 0.01746 0.40699 0.15702 0.0
O391 O 0.97716 0.38189 0.13636 0.0
O392 O 0.67356 0.6821 0.63837 0.0
Cd393 Cd 0.70733 0.65334 0.63821 0.0
Cd394 Cd 0.67142 0.63483 0.69424 0.0
O395 O 0.64479 0.6655 0.67709 0.0
O396 O 0.73106 0.66711 0.60148 0.0
O397 O 0.71074 0.62066 0.6071 0.0
C398 C 0.72704 0.64035 0.59114 0.0
C399 C 0.65183 0.59441 0.72345 0.0
C400 C 0.65055 0.68373 0.65531 0.0
C401 C 0.73712 0.65836 0.69919 0.0
O402 O 0.71171 0.65078 0.71139 0.0
O403 O 0.74016 0.65991 0.67073 0.0
O404 O 0.649 0.62131 0.7319 0.0
O405 O 0.66383 0.5904 0.69741 0.0
O406 O 0.36258 0.37607 0.43986 0.0
Cd407 Cd 0.39074 0.40818 0.41709 0.0
Cd408 Cd 0.43295 0.37323 0.44616 0.0
O409 O 0.39464 0.35006 0.46399 0.0
O410 O 0.36021 0.43269 0.39898 0.0
O411 O 0.3964 0.41543 0.37208 0.0
C412 C 0.37407 0.43157 0.37359 0.0
C413 C 0.47074 0.34907 0.42259 0.0
C414 C 0.36784 0.35543 0.45824 0.0
C415 C 0.43359 0.43752 0.46317 0.0
O416 O 0.44503 0.41305 0.46721 0.0
O417 O 0.41281 0.4397 0.4442 0.0
O418 O 0.46721 0.34828 0.45149 0.0
O419 O 0.45228 0.3632 0.40691 0.0
O420 O 0.11118 0.5962 0.90848 0.0
Cd421 Cd 0.08016 0.57704 0.87793 0.0
Cd422 Cd 0.04736 0.6286 0.90215 0.0
O423 O 0.08732 0.63364 0.92611 0.0
O424 O 0.10142 0.54289 0.86241 0.0
O425 O 0.08255 0.57545 0.83236 0.0
C426 C 0.09554 0.55122 0.83553 0.0
C427 C 0.02203 0.67155 0.89388 0.0
C428 C 0.10973 0.61812 0.92635 0.0
C429 C 0.01964 0.56408 0.90949 0.0
O430 O 0.01784 0.59186 0.91307 0.0
O431 O 0.04236 0.55468 0.89662 0.0
O432 O 0.02451 0.66028 0.92031 0.0
O433 O 0.03504 0.65917 0.8718 0.0
O434 O 0.32833 0.35847 0.32805 0.0
Cd435 Cd 0.31925 0.32778 0.36259 0.0
Cd436 Cd 0.37894 0.31623 0.34172 0.0
O437 O 0.37771 0.35812 0.32294 0.0
O438 O 0.2782 0.33552 0.3776 0.0
O439 O 0.31944 0.34369 0.40476 0.0
C440 C 0.29069 0.34436 0.40245 0.0
C441 C 0.42302 0.29715 0.35753 0.0
C442 C 0.35341 0.36943 0.31679 0.0
C443 C 0.3275 0.2696 0.33356 0.0
O444 O 0.35207 0.28202 0.32284 0.0
O445 O 0.31286 0.28276 0.35323 0.0
O446 O 0.4188 0.30362 0.32969 0.0
O447 O 0.40348 0.30447 0.37712 0.0
H448 H 0.03044 0.07631 0.02551 0.0
H449 H 0.94493 0.92188 0.04189 0.0
H450 H 0.02692 0.032 0.11215 0.0
H451 H 0.91379 0.98828 0.98204 0.0
H452 H 0.97134 0.96208 0.07129 0.0
H453 H 0.9847 0.04556 0.01105 0.0
C454 C 0.01971 0.06026 0.04155 0.0
C455 C 0.03247 0.0561 0.06973 0.0
C456 C 0.95803 0.96779 0.05217 0.0
C457 C 0.98074 0.02069 0.05339 0.0
C458 C 0.94314 0.94488 0.03529 0.0
C459 C 0.92814 0.95177 0.00888 0.0
C460 C 0.95817 0.99748 0.04215 0.0
C461 C 0.92596 0.98193 0.0017 0.0
C462 C 0.99352 0.04295 0.03349 0.0
C463 C 0.01768 0.03549 0.09006 0.0
N464 N 0.94148 0.00371 0.01784 0.0
N465 N 0.99288 0.01784 0.08119 0.0
H466 H 0.24193 0.71918 0.1844 0.0
H467 H 0.19237 0.78508 0.33834 0.0
H468 H 0.26148 0.67324 0.26671 0.0
H469 H 0.23607 0.84038 0.26767 0.0
H470 H 0.20672 0.74045 0.31208 0.0
H471 H 0.22611 0.76027 0.21417 0.0
C472 C 0.24234 0.71739 0.20875 0.0
C473 C 0.2533 0.6928 0.22311 0.0
C474 C 0.2133 0.76244 0.30265 0.0
C475 C 0.23523 0.73985 0.25709 0.0
C476 C 0.2052 0.7878 0.31749 0.0
C477 C 0.21309 0.81636 0.30506 0.0
C478 C 0.2285 0.76586 0.2749 0.0
C479 C 0.22969 0.81878 0.27806 0.0
C480 C 0.2336 0.74102 0.22564 0.0
C481 C 0.25336 0.69189 0.25478 0.0
N482 N 0.23645 0.79378 0.2636 0.0
N483 N 0.24446 0.71522 0.27085 0.0
H484 H 0.47636 0.94084 0.54405 0.0
H485 H 0.57852 0.9892 0.40517 0.0
H486 H 0.51893 0.87887 0.4882 0.0
H487 H 0.53019 0.04974 0.45779 0.0
H488 H 0.5463 0.94719 0.4264 0.0
H489 H 0.48359 0.9784 0.50414 0.0
C490 C 0.48622 0.9349 0.52277 0.0
C491 C 0.49699 0.90691 0.51907 0.0
C492 C 0.54236 0.96966 0.43295 0.0
C493 C 0.50702 0.95012 0.47414 0.0
C494 C 0.5609 0.99368 0.421 0.0
C495 C 0.55764 0.02292 0.43054 0.0
C496 C 0.52076 0.97492 0.45496 0.0
C497 C 0.53392 0.02749 0.45036 0.0
C498 C 0.49058 0.95636 0.50008 0.0
C499 C 0.51021 0.90026 0.4916 0.0
N500 N 0.51675 0.00365 0.46241 0.0
N501 N 0.51552 0.92204 0.4703 0.0
H502 H 0.22074 0.12954 0.72969 0.0
H503 H 0.18138 0.29921 0.72328 0.0
H504 H 0.27803 0.20409 0.76531 0.0
H505 H 0.14481 0.23069 0.66221 0.0
H506 H 0.20819 0.26174 0.74947 0.0
H507 H 0.18431 0.16419 0.71488 0.0
C508 C 0.22556 0.15313 0.73453 0.0
C509 C 0.25264 0.16409 0.7482 0.0
C510 C 0.19398 0.25494 0.73054 0.0
C511 C 0.2111 0.20352 0.73183 0.0
C512 C 0.17864 0.27622 0.71571 0.0
C513 C 0.16142 0.26806 0.69025 0.0
C514 C 0.19168 0.2254 0.71994 0.0
C515 C 0.15841 0.23798 0.68141 0.0
C516 C 0.20479 0.17283 0.72614 0.0
C517 C 0.25767 0.1948 0.75426 0.0
N518 N 0.1736 0.21775 0.69611 0.0
N519 N 0.23713 0.21349 0.74592 0.0
H520 H 0.0127 0.90015 0.47922 0.0
H521 H 0.97547 0.04866 0.56377 0.0
H522 H 0.08012 0.97278 0.50012 0.0
H523 H 0.90787 0.9806 0.5323 0.0
H524 H 0.01471 0.01855 0.54628 0.0
H525 H 0.97499 0.92622 0.50539 0.0
C526 C 0.01969 0.92143 0.48965 0.0
C527 C 0.04958 0.9345 0.48711 0.0
C528 C 0.99129 0.01018 0.54329 0.0
C529 C 0.0063 0.96462 0.51688 0.0
C530 C 0.96885 0.02738 0.5532 0.0
C531 C 0.9383 0.01724 0.54928 0.0
C532 C 0.98316 0.9826 0.52943 0.0
C533 C 0.9311 0.98941 0.53558 0.0
C534 C -0.00193 0.93636 0.50451 0.0
C535 C 0.05732 0.96196 0.50137 0.0
N536 N 0.95339 0.9731 0.52608 0.0
N537 N 0.03571 0.97629 0.51538 0.0
H538 H 0.28843 0.83882 0.69286 0.0
H539 H 0.25612 0.72915 0.83218 0.0
H540 H 0.35545 0.82429 0.75972 0.0
H541 H 0.18573 0.76055 0.77759 0.0
H542 H 0.29267 0.7653 0.80718 0.0
H543 H 0.25009 0.81158 0.7247 0.0
C544 C 0.29504 0.82998 0.71432 0.0
C545 C 0.32517 0.83342 0.72355 0.0
C546 C 0.26917 0.76449 0.80091 0.0
C547 C 0.28153 0.80225 0.75995 0.0
C548 C 0.24832 0.74379 0.81507 0.0
C549 C 0.21794 0.7416 0.80662 0.0
C550 C 0.25957 0.78283 0.77795 0.0
C551 C 0.209 0.76132 0.78459 0.0
C552 C 0.27313 0.81459 0.73254 0.0
C553 C 0.33247 0.82193 0.7517 0.0
N554 N 0.22983 0.78092 0.77075 0.0
N555 N 0.3108 0.8065 0.7688 0.0
H556 H 0.43246 0.04576 0.93574 0.0
H557 H 0.46915 0.97373 0.09257 0.0
H558 H 0.43066 0.09545 0.01863 0.0
H559 H 0.51653 0.95409 0.01088 0.0
H560 H 0.44458 0.01189 0.06512 0.0
H561 H 0.45403 0.00555 0.96284 0.0
C562 C 0.43659 0.04815 0.95968 0.0
C563 C 0.42991 0.07389 0.97508 0.0
C564 C 0.46021 -0.00099 0.05327 0.0
C565 C 0.45393 0.02796 0.00602 0.0
C566 C 0.47398 0.9771 0.06875 0.0
C567 C 0.4949 0.96086 0.05388 0.0
C568 C 0.46701 0.00416 0.0227 0.0
C569 C 0.50061 0.96627 0.02312 0.0
C570 C 0.44891 0.02529 0.97501 0.0
C571 C 0.43575 0.076 0.00601 0.0
N572 N 0.48663 0.98749 0.00845 0.0
N573 N 0.44726 0.0531 0.02063 0.0
H574 H 0.34836 0.23953 0.28555 0.0
H575 H 0.19071 0.14327 0.27137 0.0
H576 H 0.27716 0.23439 0.35262 0.0
H577 H 0.2504 0.16992 0.19665 0.0
H578 H 0.23098 0.15972 0.30616 0.0
H579 H 0.32116 0.19799 0.25887 0.0
C580 C 0.32729 0.22932 0.295 0.0
C581 C 0.31445 0.24106 0.3208 0.0
C582 C 0.23542 0.16134 0.28213 0.0
C583 C 0.28347 0.19358 0.29047 0.0
C584 C 0.21246 0.152 0.26223 0.0
C585 C 0.21688 0.15636 0.23109 0.0
C586 C 0.26283 0.17513 0.27075 0.0
C587 C 0.24574 0.16703 0.22054 0.0
C588 C 0.31185 0.20557 0.27978 0.0
C589 C 0.28744 0.22656 0.33234 0.0
N590 N 0.26749 0.17668 0.24039 0.0
N591 N 0.27254 0.20387 0.31677 0.0
H592 H 0.42758 0.54648 0.02038 0.0
H593 H 0.51426 0.40992 0.00715 0.0
H594 H 0.39118 0.46734 0.06891 0.0
H595 H 0.48557 0.44832 0.92415 0.0
H596 H 0.47536 0.43442 0.03443 0.0
H597 H 0.45572 0.51503 0.98752 0.0
C598 C 0.42538 0.52246 0.02384 0.0
C599 C 0.40727 0.50926 0.04717 0.0
C600 C 0.47743 0.43701 0.01018 0.0
C601 C 0.43955 0.47381 0.01068 0.0
C602 C 0.49958 0.42331 0.99474 0.0
C603 C 0.50294 0.42733 0.96355 0.0
C604 C 0.45951 0.45554 0.99431 0.0
C605 C 0.48345 0.44473 0.94826 0.0
C606 C 0.44119 0.50466 0.00513 0.0
C607 C 0.40494 0.47813 0.05096 0.0
N608 N 0.46287 0.45886 0.96395 0.0
N609 N 0.42154 0.46136 0.03324 0.0
H610 H 0.78424 0.3255 0.13235 0.0
H611 H 0.7511 0.18808 0.24265 0.0
H612 H 0.82344 0.24244 0.11925 0.0
H613 H 0.6851 0.25075 0.22832 0.0
H614 H 0.78049 0.21041 0.20013 0.0
H615 H 0.74878 0.30046 0.16901 0.0
C616 C 0.78498 0.30184 0.1368 0.0
C617 C 0.80685 0.28599 0.12295 0.0
C618 C 0.75952 0.21919 0.20625 0.0
C619 C 0.76706 0.25759 0.16525 0.0
C620 C 0.74291 0.20671 0.23072 0.0
C621 C 0.71569 0.2177 0.23911 0.0
C622 C 0.74911 0.24313 0.19036 0.0
C623 C 0.706 0.24166 0.2226 0.0
C624 C 0.76481 0.28763 0.15771 0.0
C625 C 0.80687 0.25542 0.12941 0.0
N626 N 0.72285 0.25377 0.1991 0.0
N627 N 0.78762 0.2423 0.15056 0.0
H628 H 0.09389 0.50758 0.51841 0.0
H629 H 0.94414 0.49358 0.42013 0.0
H630 H 0.02585 0.43208 0.5213 0.0
H631 H 0.0007 0.57653 0.43168 0.0
H632 H 0.98005 0.46764 0.44866 0.0
H633 H 0.066 0.52974 0.47813 0.0
C634 C 0.07333 0.49548 0.51028 0.0
C635 C 0.06185 0.46821 0.52351 0.0
C636 C 0.98472 0.49148 0.44478 0.0
C637 C 0.03005 0.49332 0.47766 0.0
C638 C 0.9642 0.50635 0.42851 0.0
C639 C 0.96916 0.53739 0.42398 0.0
C640 C 0.01036 0.50773 0.45669 0.0
C641 C 0.9958 0.55264 0.43499 0.0
C642 C 0.05742 0.50817 0.4874 0.0
C643 C 0.03524 0.45339 0.51206 0.0
N644 N 0.01532 0.53767 0.45115 0.0
N645 N 0.02011 0.46626 0.48994 0.0
H646 H 0.76757 0.71862 0.31079 0.0
H647 H 0.66578 0.7377 0.16914 0.0
H648 H 0.72579 0.6427 0.26213 0.0
H649 H 0.66979 0.80105 0.2422 0.0
H650 H 0.6926 0.70414 0.2002 0.0
H651 H 0.73606 0.75105 0.28341 0.0
C652 C 0.75166 0.7088 0.29444 0.0
C653 C 0.74931 0.67804 0.28851 0.0
C654 C 0.68744 0.72532 0.20943 0.0
C655 C 0.71373 0.71486 0.25709 0.0
C656 C 0.67238 0.74455 0.1917 0.0
C657 C 0.66572 0.77218 0.20316 0.0
C658 C 0.69636 0.73408 0.23855 0.0
C659 C 0.67452 0.77989 0.2326 0.0
C660 C 0.73366 0.72725 0.27899 0.0
C661 C 0.72823 0.66633 0.26733 0.0
N662 N 0.68971 0.761 0.24926 0.0
N663 N 0.71147 0.68487 0.25203 0.0
H664 H 0.75849 0.18236 0.69586 0.0
H665 H 0.70686 0.26578 0.84121 0.0
H666 H 0.80945 0.17805 0.77797 0.0
H667 H 0.71993 0.30671 0.75328 0.0
H668 H 0.72752 0.22053 0.82163 0.0
H669 H 0.7246 0.21335 0.72161 0.0
C670 C 0.76216 0.18723 0.71951 0.0
C671 C 0.78745 0.17848 0.73455 0.0
C672 C 0.72543 0.23941 0.80676 0.0
C673 C 0.74854 0.21346 0.76391 0.0
C674 C 0.71386 0.26503 0.8178 0.0
C675 C 0.71225 0.28983 0.79875 0.0
C676 C 0.73413 0.23858 0.77638 0.0
C677 C 0.72133 0.28809 0.76865 0.0
C678 C 0.74278 0.20489 0.73409 0.0
C679 C 0.79062 0.18497 0.76537 0.0
N680 N 0.73176 0.26276 0.7583 0.0
N681 N 0.77163 0.20267 0.77902 0.0
H682 H 0.85223 0.79605 0.7727 0.0
H683 H 0.74225 0.6479 0.75933 0.0
H684 H 0.78413 0.76413 0.83828 0.0
H685 H 0.78865 0.694 0.68413 0.0
H686 H 0.77398 0.67875 0.79383 0.0
H687 H 0.84399 0.74846 0.74647 0.0
C688 C 0.83573 0.77893 0.78178 0.0
C689 C 0.81807 0.78435 0.80716 0.0
C690 C 0.77773 0.68157 0.76978 0.0
C691 C 0.809 0.72988 0.77747 0.0
C692 C 0.75967 0.66401 0.75006 0.0
C693 C 0.76207 0.66938 0.7189 0.0
C694 C 0.79803 0.70469 0.75815 0.0
C695 C 0.78556 0.68976 0.70806 0.0
C696 C 0.83125 0.75173 0.76688 0.0
C697 C 0.79762 0.76114 0.81832 0.0
N698 N 0.8022 0.70735 0.72776 0.0
N699 N 0.79331 0.73499 0.8031 0.0
H700 H 0.43441 0.49666 0.44863 0.0
H701 H 0.48446 0.55007 0.61292 0.0
H702 H 0.45265 0.43673 0.52111 0.0
H703 H 0.51779 0.59817 0.53294 0.0
H704 H 0.45438 0.51445 0.58111 0.0
H705 H 0.44905 0.53938 0.48158 0.0
C706 C 0.4414 0.49257 0.47149 0.0
C707 C 0.44289 0.46331 0.48216 0.0
C708 C 0.46774 0.53327 0.57069 0.0
C709 C 0.45831 0.51154 0.51982 0.0
C710 C 0.48468 0.55371 0.58875 0.0
C711 C 0.50406 0.57664 0.57538 0.0
C712 C 0.46995 0.53622 0.53927 0.0
C713 C 0.5035 0.58039 0.54399 0.0
C714 C 0.44953 0.51681 0.49017 0.0
C715 C 0.4518 0.45902 0.51193 0.0
N716 N 0.48697 0.56005 0.52684 0.0
N717 N 0.45913 0.48295 0.52982 0.0
H718 H 0.97897 0.57506 0.95353 0.0
H719 H 0.9713 0.40736 0.01379 0.0
H720 H 0.01177 0.50332 0.90232 0.0
H721 H 0.98326 0.48676 0.06824 0.0
H722 H 0.96558 0.43906 0.96904 0.0
H723 H 0.95752 0.53846 0.99063 0.0
C724 C 0.9808 0.55155 0.94951 0.0
C725 C -0.00183 0.54227 0.92545 0.0
C726 C 0.96901 0.44936 0.99092 0.0
C727 C 0.97389 0.50061 0.96775 0.0
C728 C 0.97253 0.43143 0.01622 0.0
C729 C 0.97885 0.44476 0.0442 0.0
C730 C 0.97109 0.48056 0.99413 0.0
C731 C 0.97946 0.47585 0.04671 0.0
C732 C 0.96867 0.53073 0.97077 0.0
C733 C -0.00065 0.51147 0.92112 0.0
N734 N 0.97583 0.49276 0.0219 0.0
N735 N 0.98799 0.49169 0.94254 0.0
H736 H 0.15404 0.01641 0.1262 0.0
H737 H 0.18842 0.99247 0.30038 0.0
H738 H 0.16633 0.09094 0.18732 0.0
H739 H 0.14179 0.92572 0.24334 0.0
H740 H 0.18865 0.02879 0.25871 0.0
H741 H 0.16088 0.98246 0.16799 0.0
C742 C 0.15888 0.02575 0.1483 0.0
C743 C 0.15908 0.05654 0.1534 0.0
C744 C 0.17842 0.00616 0.25547 0.0
C745 C 0.16646 0.01764 0.20147 0.0
C746 C 0.17819 0.98547 0.27919 0.0
C747 C 0.1652 0.95595 0.2753 0.0
C748 C 0.16619 0.99699 0.22759 0.0
C749 C 0.15209 0.94817 0.24743 0.0
C750 C 0.16238 0.00628 0.17224 0.0
C751 C 0.16545 0.06727 0.18257 0.0
N752 N 0.15318 0.96846 0.22462 0.0
N753 N 0.16863 0.0478 0.20568 0.0
H754 H 0.35439 0.84349 0.51562 0.0
H755 H 0.28126 0.94816 0.39533 0.0
H756 H 0.39167 0.93288 0.4915 0.0
H757 H 0.23852 0.86202 0.42328 0.0
H758 H 0.32169 0.94275 0.43117 0.0
H759 H 0.3122 0.84886 0.48142 0.0
C760 C 0.35375 0.86417 0.50308 0.0
C761 C 0.37657 0.88776 0.5064 0.0
C762 C 0.3034 0.92507 0.4297 0.0
C763 C 0.32833 0.8942 0.46766 0.0
C764 C 0.28026 0.92825 0.40936 0.0
C765 C 0.25645 0.90565 0.40666 0.0
C766 C 0.30308 0.89878 0.44707 0.0
C767 C 0.25632 0.88015 0.42507 0.0
C768 C 0.32967 0.86724 0.48362 0.0
C769 C 0.37464 0.91406 0.48961 0.0
N770 N 0.27947 0.87725 0.44432 0.0
N771 N 0.35094 0.91659 0.47112 0.0
H772 H 0.40559 0.08053 0.72663 0.0
H773 H 0.39541 0.94537 0.61071 0.0
H774 H 0.32233 0.02807 0.70486 0.0
H775 H 0.47508 0.96895 0.66367 0.0
H776 H 0.37036 0.98382 0.63621 0.0
H777 H 0.43309 0.04773 0.69478 0.0
C778 C 0.3931 0.0623 0.71482 0.0
C779 C 0.36174 0.05663 0.71859 0.0
C780 C 0.39334 0.98064 0.64217 0.0
C781 C 0.39284 0.01978 0.68175 0.0
C782 C 0.4077 0.95851 0.62779 0.0
C783 C 0.43723 0.9532 0.63565 0.0
C784 C 0.40869 0.99817 0.66421 0.0
C785 C 0.45213 0.97176 0.65734 0.0
C786 C 0.40879 0.04366 0.69676 0.0
C787 C 0.34656 0.03284 0.70286 0.0
N788 N 0.43767 0.99349 0.6709 0.0
N789 N 0.36227 0.01533 0.68498 0.0
H790 H 0.24567 0.0337 0.85607 0.0
H791 H 0.18181 0.13278 0.98532 0.0
H792 H 0.28234 0.1247 0.8721 0.0
H793 H 0.17592 0.03643 0.99087 0.0
H794 H 0.21389 0.13106 0.94025 0.0
H795 H 0.21625 0.03468 0.9029 0.0
C796 C 0.24783 0.05375 0.86965 0.0
C797 C 0.26656 0.07911 0.86023 0.0
C798 C 0.20565 0.11034 0.95148 0.0
C799 C 0.23224 0.0807 0.9133 0.0
C800 C 0.18731 0.11129 0.97715 0.0
C801 C 0.17638 0.08473 0.99211 0.0
C802 C 0.21297 0.08264 0.94057 0.0
C803 C 0.18394 0.0575 0.98022 0.0
C804 C 0.23096 0.05433 0.89631 0.0
C805 C 0.26835 0.10456 0.87863 0.0
N806 N 0.20171 0.05716 0.95518 0.0
N807 N 0.25104 0.10487 0.90404 0.0
H808 H 0.08712 0.09217 0.28639 0.0
H809 H 0.08004 0.92019 0.31762 0.0
H810 H 0.09848 0.03701 0.2085 0.0
H811 H 0.13846 0.98521 0.36642 0.0
H812 H 0.07391 0.95864 0.2787 0.0
H813 H 0.0897 0.04859 0.31873 0.0
C814 C 0.08945 0.07078 0.27595 0.0
C815 C 0.09295 0.0684 0.24462 0.0
C816 C 0.08825 0.96412 0.29787 0.0
C817 C 0.09587 0.01836 0.28181 0.0
C818 C 0.0918 0.94232 0.32001 0.0
C819 C 0.10962 0.94953 0.3455 0.0
C820 C 0.10182 0.99333 0.30192 0.0
C821 C 0.12445 0.97853 0.34734 0.0
C822 C 0.09116 0.04598 0.29451 0.0
C823 C 0.09579 0.03987 0.23255 0.0
N824 N 0.11973 -0.00056 0.32622 0.0
N825 N 0.09738 0.01583 0.25124 0.0
H826 H 0.3355 0.92607 0.56867 0.0
H827 H 0.19067 0.85427 0.47891 0.0
H828 H 0.3035 0.83217 0.57026 0.0
H829 H 0.22233 0.9482 0.47503 0.0
H830 H 0.23377 0.84559 0.51029 0.0
H831 H 0.29619 0.93458 0.53208 0.0
C832 C 0.32035 0.90725 0.56121 0.0
C833 C 0.32271 0.87841 0.57268 0.0
C834 C 0.23137 0.86811 0.50251 0.0
C835 C 0.27749 0.888 0.53125 0.0
C836 C 0.20679 0.87305 0.48449 0.0
C837 C 0.20276 0.90202 0.47447 0.0
C838 C 0.25211 0.89232 0.51067 0.0
C839 C 0.22443 0.9255 0.48241 0.0
C840 C 0.29786 0.91212 0.54042 0.0
C841 C 0.30254 0.85482 0.56214 0.0
N842 N 0.24808 0.92017 0.50015 0.0
N843 N 0.28071 0.86017 0.54224 0.0
H844 H 0.33345 0.04683 0.83849 0.0
H845 H 0.45074 0.96989 0.73889 0.0
H846 H 0.42186 0.0916 0.8198 0.0
H847 H 0.35494 0.95385 0.72503 0.0
H848 H 0.44201 0.01258 0.77134 0.0
H849 H 0.3415 0.01065 0.79916 0.0
C850 C 0.35436 0.04938 0.82569 0.0
C851 C 0.37699 0.0723 0.83236 0.0
C852 C 0.42297 -0.00016 0.76094 0.0
C853 C 0.3868 0.03025 0.78808 0.0
C854 C 0.42794 0.97558 0.74254 0.0
C855 C 0.40351 0.9588 0.72906 0.0
C856 C 0.39331 0.00645 0.76671 0.0
C857 C 0.37436 0.96662 0.7347 0.0
C858 C 0.35901 0.0286 0.80338 0.0
C859 C 0.40377 0.07436 0.81523 0.0
N860 N 0.37002 0.98962 0.75344 0.0
N861 N 0.40818 0.05324 0.79417 0.0
H862 H 0.31845 0.20451 0.96457 0.0
H863 H 0.1997 0.11664 0.07412 0.0
H864 H 0.29006 0.1104 0.95558 0.0
H865 H 0.20838 0.21284 0.06624 0.0
H866 H 0.23177 0.11417 0.02949 0.0
H867 H 0.27622 0.20894 -0.00062 0.0
C868 C 0.30283 0.18497 0.96937 0.0
C869 C 0.3076 0.15709 0.95719 0.0
C870 C 0.22619 0.13581 0.03712 0.0
C871 C 0.26012 0.16168 0.99769 0.0
C872 C 0.20785 0.13721 0.06254 0.0
C873 C 0.2012 0.16495 0.07358 0.0
C874 C 0.23803 0.16239 0.02269 0.0
C875 C 0.21294 0.19099 0.05828 0.0
C876 C 0.27885 0.18745 0.98931 0.0
C877 C 0.28696 0.13237 0.96424 0.0
N878 N 0.23094 0.1891 0.03363 0.0
N879 N 0.2645 0.13512 0.98456 0.0
H880 H 0.95387 0.28555 0.14393 0.0
H881 H 0.08593 0.20302 0.06771 0.0
H882 H 0.97461 0.29338 0.0488 0.0
H883 H 0.04028 0.17471 0.15078 0.0
H884 H 0.05268 0.24334 0.06325 0.0
H885 H 0.99323 0.25211 0.14954 0.0
C886 C 0.96701 0.28064 0.12426 0.0
C887 C 0.96067 0.29205 0.09576 0.0
C888 C 0.05022 0.22836 0.08252 0.0
C889 C 0.00613 0.2539 0.10217 0.0
C890 C 0.06922 0.20547 0.08514 0.0
C891 C 0.06602 0.18557 0.10975 0.0
C892 C 0.02806 0.23133 0.10471 0.0
C893 C 0.04375 0.18957 0.1315 0.0
C894 C 0.98936 0.26134 0.12747 0.0
C895 C 0.97858 0.28487 0.07114 0.0
N896 N 0.02571 0.21197 0.12848 0.0
N897 N 0.00052 0.26618 0.07489 0.0
H898 H 0.4959 0.30687 0.9365 0.0
H899 H 0.43602 0.14819 0.80198 0.0
H900 H 0.56467 0.28128 0.87749 0.0
H901 H 0.37669 0.21472 0.82055 0.0
H902 H 0.47505 0.17533 0.82693 0.0
H903 H 0.46661 0.26129 0.92695 0.0
C904 C 0.50421 0.29179 0.92013 0.0
C905 C 0.5314 0.29938 0.9053 0.0
C906 C 0.4543 0.18599 0.82777 0.0
C907 C 0.49196 0.24892 0.88462 0.0
C908 C 0.43136 0.169 0.81247 0.0
C909 C 0.40293 0.17852 0.81058 0.0
C910 C 0.44979 0.21383 0.84467 0.0
C911 C 0.39826 0.20577 0.82267 0.0
C912 C 0.48623 0.26573 0.91241 0.0
C913 C 0.54239 0.27772 0.8876 0.0
N914 N 0.42052 0.22123 0.83828 0.0
N915 N 0.52312 0.2543 0.87837 0.0
H916 H 0.00646 0.6702 0.35754 0.0
H917 H 0.04033 0.85151 0.33514 0.0
H918 H 0.91457 0.74656 0.34154 0.0
H919 H 0.09305 0.78605 0.29581 0.0
H920 H 0.99669 0.81336 0.33784 0.0
H921 H 0.03692 0.72 0.33563 0.0
C922 C 0.9941 0.68903 0.35211 0.0
C923 C 0.95619 0.68641 0.3577 0.0
C924 C 0.0177 0.80758 0.32815 0.0
C925 C -0.00148 0.75326 0.32789 0.0
C926 C 0.04254 0.82922 0.32679 0.0
C927 C 0.07026 0.82168 0.3156 0.0
C928 C 0.02129 0.77809 0.31963 0.0
C929 C 0.07205 0.79266 0.30475 0.0
C930 C 0.01281 0.72058 0.33801 0.0
C931 C 0.93689 0.73839 0.34146 0.0
N932 N 0.04811 0.77167 0.30779 0.0
N933 N 0.96456 0.76004 0.33012 0.0
H934 H 0.02846 0.35111 0.1089 0.0
H935 H 0.06415 0.21447 0.21292 0.0
H936 H 0.00651 0.34962 0.20367 0.0
H937 H 0.11603 0.24296 0.13337 0.0
H938 H 0.03694 0.2593 0.20838 0.0
H939 H 0.05484 0.30643 0.11573 0.0
C940 C 0.02905 0.34106 0.13113 0.0
C941 C 0.01546 0.35373 0.15578 0.0
C942 C 0.05443 0.25565 0.19212 0.0
C943 C 0.04513 0.30261 0.16379 0.0
C944 C 0.06986 0.23009 0.1946 0.0
C945 C 0.09242 0.2249 0.17349 0.0
C946 C 0.06139 0.2758 0.16818 0.0
C947 C 0.09894 0.24597 0.15025 0.0
C948 C 0.04424 0.31577 0.13508 0.0
C949 C 0.01678 0.3402 0.18419 0.0
N950 N 0.08337 0.2703 0.14812 0.0
N951 N 0.03125 0.31506 0.18745 0.0
H952 H 0.6082 0.70191 0.6945 0.0
H953 H 0.58679 0.85137 0.60134 0.0
H954 H 0.65295 0.72547 0.60974 0.0
H955 H 0.53628 0.82546 0.68195 0.0
H956 H 0.61504 0.80773 0.60713 0.0
H957 H 0.58384 0.74819 0.6922 0.0
C958 C 0.61265 0.7166 0.6752 0.0
C959 C 0.63265 0.70966 0.6522 0.0
C960 C 0.59792 0.81158 0.62372 0.0
C961 C 0.60491 0.7629 0.64963 0.0
C962 C 0.5821 0.83666 0.62061 0.0
C963 C 0.55899 0.84149 0.64101 0.0
C964 C 0.59052 0.79124 0.64745 0.0
C965 C 0.55347 0.82183 0.66541 0.0
C966 C 0.59887 0.74316 0.67405 0.0
C967 C 0.63766 0.72977 0.62793 0.0
N968 N 0.56898 0.79735 0.6679 0.0
N969 N 0.6239 0.75544 0.62729 0.0
H970 H 0.92134 0.68462 0.29174 0.0
H971 H 0.99065 0.82603 0.40994 0.0
H972 H 0.89364 0.7021 0.39472 0.0
H973 H 0.06746 0.77618 0.39646 0.0
H974 H 0.95743 0.78198 0.3966 0.0
H975 H 0.9783 0.71288 0.2954 0.0
C976 C 0.92878 0.69398 0.31314 0.0
C977 C 0.90477 0.69234 0.34309 0.0
C978 C 0.98151 0.78039 0.39724 0.0
C979 C 0.9725 0.73089 0.3721 0.0
C980 C 0.00055 0.80563 0.40455 0.0
C981 C 0.03192 0.80509 0.40311 0.0
C982 C 0.99375 0.75447 0.38773 0.0
C983 C 0.04339 0.77771 0.39702 0.0
C984 C 0.96433 0.71075 0.31587 0.0
C985 C 0.912 0.70566 0.37859 0.0
N986 N 0.02426 0.75343 0.38907 0.0
N987 N 0.94223 0.7225 0.3903 0.0
H988 H 0.41827 0.25069 0.8977 0.0
H989 H 0.58265 0.26299 0.78953 0.0
H990 H 0.49374 0.17753 0.88346 0.0
H991 H 0.54071 0.33876 0.82291 0.0
H992 H 0.5349 0.23157 0.79726 0.0
H993 H 0.44553 0.25928 0.86762 0.0
C994 C 0.43952 0.24575 0.88349 0.0
C995 C 0.45395 0.2116 0.89612 0.0
C996 C 0.53583 0.25535 0.8016 0.0
C997 C 0.48932 0.2485 0.83276 0.0
C998 C 0.56305 0.27318 0.79748 0.0
C999 C 0.56562 0.30303 0.8069 0.0
C1000 C 0.51136 0.26774 0.81493 0.0
C1001 C 0.53968 0.31545 0.81659 0.0
C1002 C 0.45884 0.26555 0.85027 0.0
C1003 C 0.48556 0.19849 0.87693 0.0
N1004 N 0.51358 0.29756 0.82086 0.0
N1005 N 0.50021 0.21722 0.84715 0.0
H1006 H 0.93941 0.08415 0.75314 0.0
H1007 H 0.84401 0.97503 0.86704 0.0
H1008 H 0.84256 0.06805 0.75086 0.0
H1009 H 0.93494 0.95916 0.84263 0.0
H1010 H 0.84508 0.01351 0.82807 0.0
H1011 H 0.94052 0.04193 0.78886 0.0
C1012 C 0.91851 0.07134 0.75982 0.0
C1013 C 0.8909 0.07891 0.74873 0.0
C1014 C 0.86481 0.0016 0.83113 0.0
C1015 C 0.89183 0.032 0.79012 0.0
C1016 C 0.86422 0.97962 0.85337 0.0
C1017 C 0.88941 0.96385 0.85799 0.0
C1018 C 0.89094 0.00829 0.81353 0.0
C1019 C 0.91497 0.97067 0.83956 0.0
C1020 C 0.91912 0.04744 0.78016 0.0
C1021 C 0.86431 0.06241 0.75854 0.0
N1022 N 0.91521 0.99266 0.81821 0.0
N1023 N 0.8654 0.03991 0.77889 0.0
H1024 H 0.68186 0.16262 0.46862 0.0
H1025 H 0.79056 0.09425 0.58807 0.0
H1026 H 0.70213 0.0708 0.46648 0.0
H1027 H 0.78965 0.18891 0.57161 0.0
H1028 H 0.75408 0.08432 0.54725 0.0
H1029 H 0.71782 0.17205 0.50984 0.0
C1030 C 0.69399 0.14451 0.47679 0.0
C1031 C 0.68939 0.11603 0.4639 0.0
C1032 C 0.76202 0.10724 0.55254 0.0
C1033 C 0.72978 0.12633 0.51158 0.0
C1034 C 0.78297 0.1129 0.57567 0.0
C1035 C 0.79331 0.14244 0.58312 0.0
C1036 C 0.75161 0.13129 0.5366 0.0
C1037 C 0.78239 0.16577 0.56658 0.0
C1038 C 0.71445 0.14985 0.50031 0.0
C1039 C 0.7054 0.09321 0.47551 0.0
N1040 N 0.7622 0.1597 0.54414 0.0
N1041 N 0.72467 0.09878 0.49888 0.0
H1042 H 0.57148 0.90878 0.23801 0.0
H1043 H 0.69133 0.02702 0.31149 0.0
H1044 H 0.65972 0.9277 0.19764 0.0
H1045 H 0.59608 0.03631 0.31446 0.0
H1046 H 0.68215 0.98841 0.27248 0.0
H1047 H 0.58149 0.95271 0.27008 0.0
C1048 C 0.59289 0.92235 0.23578 0.0
C1049 C 0.61472 0.9148 0.21502 0.0
C1050 C 0.66338 -0.00069 0.28136 0.0
C1051 C 0.62663 0.96457 0.25217 0.0
C1052 C 0.66864 0.0214 0.30335 0.0
C1053 C 0.64449 0.03522 0.31556 0.0
C1054 C 0.63365 0.9902 0.27267 0.0
C1055 C 0.61536 0.02662 0.30507 0.0
C1056 C 0.59859 0.94738 0.25406 0.0
C1057 C 0.64217 0.93303 0.21313 0.0
N1058 N 0.61068 0.00425 0.28467 0.0
N1059 N 0.64754 0.95692 0.23177 0.0
H1060 H 0.80983 0.90275 0.97249 0.0
H1061 H 0.68118 0.78554 0.04171 0.0
H1062 H 0.81245 0.80746 0.96397 0.0
H1063 H 0.69757 0.87745 0.07011 0.0
H1064 H 0.72361 0.79378 0.00629 0.0
H1065 H 0.76398 0.89403 0.00243 0.0
C1066 C 0.80013 0.8799 0.97611 0.0
C1067 C 0.81463 0.85574 0.96535 0.0
C1068 C 0.7178 0.81211 0.02022 0.0
C1069 C 0.7615 0.84565 -0.00088 0.0
C1070 C 0.69354 0.80753 0.04034 0.0
C1071 C 0.68595 0.83084 0.05905 0.0
C1072 C 0.73449 0.84021 0.01873 0.0
C1073 C 0.70269 0.85882 0.05627 0.0
C1074 C 0.77403 0.87496 0.9934 0.0
C1075 C 0.80161 0.82663 0.97154 0.0
N1076 N 0.72624 0.86268 0.03656 0.0
N1077 N 0.77549 0.82234 0.9879 0.0
H1078 H 0.79489 0.01494 0.65289 0.0
H1079 H 0.87945 0.94244 0.78692 0.0
H1080 H 0.88476 0.04626 0.68169 0.0
H1081 H 0.78219 0.93657 0.78605 0.0
H1082 H 0.88115 0.97748 0.74495 0.0
H1083 H 0.78847 0.98387 0.69898 0.0
C1084 C 0.81301 0.01568 0.66906 0.0
C1085 C 0.8403 0.03344 0.66351 0.0
C1086 C 0.85938 0.96884 0.7541 0.0
C1087 C 0.83354 0.99737 0.71531 0.0
C1088 C 0.85838 0.94889 0.77825 0.0
C1089 C 0.83065 0.93692 0.7905 0.0
C1090 C 0.83245 0.97679 0.74163 0.0
C1091 C 0.8041 0.94555 0.77755 0.0
C1092 C 0.80937 0.99792 0.69523 0.0
C1093 C 0.86318 0.03327 0.68503 0.0
N1094 N 0.80562 0.96491 0.75368 0.0
N1095 N 0.85946 0.01515 0.70954 0.0
H1096 H 0.82515 0.12975 0.51198 0.0
H1097 H 0.73583 0.09011 0.36049 0.0
H1098 H 0.79149 0.03981 0.48738 0.0
H1099 H 0.72819 0.17365 0.40597 0.0
H1100 H 0.76526 0.0737 0.40252 0.0
H1101 H 0.79859 0.14877 0.46858 0.0
C1102 C 0.81241 0.11403 0.49738 0.0
C1103 C 0.81033 0.08315 0.50344 0.0
C1104 C 0.75725 0.09567 0.40328 0.0
C1105 C 0.78069 0.10465 0.45371 0.0
C1106 C 0.7405 0.10505 0.37933 0.0
C1107 C 0.72957 0.13323 0.37987 0.0
C1108 C 0.76376 0.11483 0.4277 0.0
C1109 C 0.73612 0.15167 0.40487 0.0
C1110 C 0.79728 0.1249 0.47273 0.0
C1111 C 0.79351 0.06378 0.4838 0.0
N1112 N 0.75309 0.14225 0.42779 0.0
N1113 N 0.77949 0.07484 0.45979 0.0
H1114 H 0.6277 0.97614 0.15271 0.0
H1115 H 0.57507 0.09726 0.26737 0.0
H1116 H 0.54043 0.96496 0.19652 0.0
H1117 H 0.66827 0.08265 0.25245 0.0
H1118 H 0.55999 0.05307 0.23621 0.0
H1119 H 0.64145 0.01977 0.18423 0.0
C1120 C 0.61153 0.98269 0.16915 0.0
C1121 C 0.58301 0.96666 0.1722 0.0
C1122 C 0.58371 0.05967 0.23988 0.0
C1123 C 0.59826 0.01713 0.20768 0.0
C1124 C 0.59227 0.08476 0.25762 0.0
C1125 C 0.62291 0.09338 0.26279 0.0
C1126 C 0.60601 0.04376 0.22667 0.0
C1127 C 0.64437 0.0766 0.24943 0.0
C1128 C 0.61933 0.00767 0.18702 0.0
C1129 C 0.56284 0.97639 0.19371 0.0
N1130 N 0.63553 0.0528 0.23184 0.0
N1131 N 0.57076 0.00114 0.2105 0.0
H1132 H 0.61944 0.85373 0.02539 0.0
H1133 H 0.76368 0.92115 0.92834 0.0
H1134 H 0.65976 0.94482 0.03189 0.0
H1135 H 0.71643 0.83454 0.91157 0.0
H1136 H 0.72682 0.92931 0.96803 0.0
H1137 H 0.65649 0.84472 0.986 0.0
C1138 C 0.63617 0.87175 0.01869 0.0
C1139 C 0.63642 0.9001 0.03185 0.0
C1140 C 0.72445 0.90848 0.95572 0.0
C1141 C 0.67871 0.89004 0.98681 0.0
C1142 C 0.74556 0.90383 0.9332 0.0
C1143 C 0.74305 0.87711 0.91695 0.0
C1144 C 0.7011 0.88593 0.9625 0.0
C1145 C 0.71908 0.85542 0.92379 0.0
C1146 C 0.65716 0.86667 0.99606 0.0
C1147 C 0.65861 0.92264 0.02228 0.0
N1148 N 0.69915 0.86016 0.94626 0.0
N1149 N 0.6788 0.91713 0.00042 0.0
H1150 H 0.97628 0.79675 0.97481 0.0
H1151 H 0.072 0.76166 0.83047 0.0
H1152 H 0.98555 0.85387 0.89604 0.0
H1153 H 0.08267 0.71793 0.91605 0.0
H1154 H 0.04111 0.7962 0.85503 0.0
H1155 H 0.01663 0.76892 0.95529 0.0
C1156 C 0.98698 0.80363 0.95354 0.0
C1157 C 0.97711 0.8273 0.9367 0.0
C1158 C 0.05038 0.77926 0.86857 0.0
C1159 C 0.02312 0.79543 0.91423 0.0
C1160 C 0.06779 0.75928 0.85449 0.0
C1161 C 0.07959 0.73659 0.87118 0.0
C1162 C 0.04422 0.77636 0.89956 0.0
C1163 C 0.07379 0.73496 0.90232 0.0
C1164 C 0.01011 0.7878 0.9425 0.0
C1165 C 0.99205 0.83544 0.90952 0.0
N1166 N 0.05615 0.75437 0.91549 0.0
N1167 N 0.01402 0.81928 0.89894 0.0
H1168 H 0.45497 0.64079 0.16921 0.0
H1169 H 0.54113 0.77722 0.0829 0.0
H1170 H 0.42482 0.66606 0.08152 0.0
H1171 H 0.52678 0.77837 0.17922 0.0
H1172 H 0.50342 0.73361 0.07967 0.0
H1173 H 0.48744 0.68809 0.17152 0.0
C1174 C 0.45512 0.65649 0.15055 0.0
C1175 C 0.4371 0.64993 0.12531 0.0
C1176 C 0.50835 0.74375 0.10139 0.0
C1177 C 0.47468 0.70325 0.12732 0.0
C1178 C 0.52962 0.76869 0.10324 0.0
C1179 C 0.53698 0.78154 0.13135 0.0
C1180 C 0.49497 0.73127 0.12789 0.0
C1181 C 0.52163 0.76941 0.15705 0.0
C1182 C 0.47359 0.68333 0.15185 0.0
C1183 C 0.43818 0.67068 0.10152 0.0
N1184 N 0.50172 0.74464 0.15477 0.0
N1185 N 0.45704 0.69639 0.1029 0.0
H1186 H 0.03787 0.34892 0.67828 0.0
H1187 H 0.89768 0.23891 0.62091 0.0
H1188 H 0.98573 0.36592 0.59989 0.0
H1189 H 0.94675 0.22309 0.702 0.0
H1190 H 0.92861 0.28643 0.61402 0.0
H1191 H 0.00276 0.30446 0.68956 0.0
C1192 C 0.01901 0.34317 0.66349 0.0
C1193 C 0.01478 0.36061 0.63794 0.0
C1194 C 0.93253 0.27266 0.63342 0.0
C1195 C 0.97491 0.3099 0.65025 0.0
C1196 C 0.91499 0.24536 0.63726 0.0
C1197 C 0.91972 0.22676 0.66196 0.0
C1198 C 0.95494 0.28163 0.65449 0.0
C1199 C 0.94244 0.2365 0.68245 0.0
C1200 C -0.0011 0.31797 0.66996 0.0
C1201 C 0.98976 0.35277 0.61971 0.0
N1202 N 0.95916 0.26325 0.67828 0.0
N1203 N 0.97099 0.32776 0.62597 0.0
H1204 H 0.98671 0.69664 0.93526 0.0
H1205 H 0.94935 0.83141 0.82894 0.0
H1206 H 0.01611 0.70489 0.84239 0.0
H1207 H 0.89707 0.80519 0.9088 0.0
H1208 H 0.97849 0.78874 0.83637 0.0
H1209 H 0.9572 0.73901 0.92811 0.0
C1210 C 0.98702 0.70738 0.91333 0.0
C1211 C 0.0041 0.69726 0.88941 0.0
C1212 C 0.96069 0.79239 0.8523 0.0
C1213 C 0.97058 0.74619 0.88126 0.0
C1214 C 0.94428 0.81698 0.84833 0.0
C1215 C 0.92077 0.82208 0.86839 0.0
C1216 C 0.95386 0.77282 0.8767 0.0
C1217 C 0.9151 0.80234 0.89291 0.0
C1218 C 0.97003 0.73151 0.90927 0.0
C1219 C 0.00338 0.71198 0.86148 0.0
N1220 N 0.93154 0.77861 0.89639 0.0
N1221 N 0.98711 0.73589 0.85824 0.0
H1222 H 0.4379 0.27745 0.41377 0.0
H1223 H 0.55632 0.17031 0.34942 0.0
H1224 H 0.46307 0.27374 0.31979 0.0
H1225 H 0.54657 0.189 0.44412 0.0
H1226 H 0.51971 0.20586 0.33812 0.0
H1227 H 0.47546 0.24288 0.42554 0.0
C1228 C 0.45143 0.26954 0.39566 0.0
C1229 C 0.44745 0.27868 0.36579 0.0
C1230 C 0.52567 0.20225 0.36137 0.0
C1231 C 0.48993 0.23867 0.37897 0.0
C1232 C 0.54667 0.18205 0.36781 0.0
C1233 C 0.55459 0.17673 0.39774 0.0
C1234 C 0.51251 0.21727 0.38502 0.0
C1235 C 0.54117 0.19244 0.42069 0.0
C1236 C 0.47275 0.24971 0.40236 0.0
C1237 C 0.46545 0.2675 0.34318 0.0
N1238 N 0.52078 0.21195 0.41387 0.0
N1239 N 0.48574 0.24799 0.35022 0.0
H1240 H 0.92046 0.18336 0.56181 0.0
H1241 H 0.04911 0.2726 0.65975 0.0
H1242 H 0.95618 0.15269 0.64529 0.0
H1243 H 0.03469 0.29716 0.56724 0.0
H1244 H 0.00939 0.23222 0.65586 0.0
H1245 H 0.95614 0.22895 0.56464 0.0
C1246 C 0.9355 0.18636 0.58083 0.0
C1247 C 0.93549 0.16417 0.60328 0.0
C1248 C 0.01447 0.24651 0.63637 0.0
C1249 C 0.97613 0.21566 0.60646 0.0
C1250 C 0.03704 0.26987 0.63868 0.0
C1251 C 0.04486 0.2886 0.61391 0.0
C1252 C -0.00095 0.24175 0.60915 0.0
C1253 C 0.02898 0.28338 0.58695 0.0
C1254 C 0.95597 0.21215 0.58226 0.0
C1255 C 0.95551 0.16902 0.62733 0.0
N1256 N 0.00657 0.2604 0.58527 0.0
N1257 N 0.97496 0.19409 0.62819 0.0
H1258 H 0.39628 0.69204 0.18957 0.0
H1259 H 0.47997 0.81818 0.08426 0.0
H1260 H 0.36617 0.70572 0.09872 0.0
H1261 H 0.47112 0.82843 0.18035 0.0
H1262 H 0.44504 0.77222 0.08724 0.0
H1263 H 0.43189 0.73667 0.18436 0.0
C1264 C 0.39745 0.70408 0.1683 0.0
C1265 C 0.378 0.69508 0.14456 0.0
C1266 C 0.45079 0.78458 0.10762 0.0
C1267 C 0.41879 0.74641 0.13866 0.0
C1268 C 0.47089 0.81053 0.10599 0.0
C1269 C 0.47856 0.82678 0.13217 0.0
C1270 C 0.43916 0.77443 0.13575 0.0
C1271 C 0.46587 0.81633 0.15972 0.0
C1272 C 0.41753 0.72981 0.16556 0.0
C1273 C 0.38064 0.71182 0.11762 0.0
N1274 N 0.44707 0.79058 0.16087 0.0
N1275 N 0.40071 0.73669 0.11536 0.0
H1276 H 0.60685 0.41676 0.77389 0.0
H1277 H 0.65104 0.54408 0.65115 0.0
H1278 H 0.69951 0.45015 0.75632 0.0
H1279 H 0.5696 0.54005 0.70485 0.0
H1280 H 0.66688 0.50162 0.68011 0.0
H1281 H 0.59061 0.45388 0.73871 0.0
C1282 C 0.62379 0.43189 0.76251 0.0
C1283 C 0.65455 0.43086 0.76842 0.0
C1284 C 0.6455 0.51001 0.68536 0.0
C1285 C 0.63611 0.47265 0.72751 0.0
C1286 C 0.63649 0.53417 0.66897 0.0
C1287 C 0.60943 0.54608 0.67634 0.0
C1288 C 0.62669 0.49698 0.70834 0.0
C1289 C 0.59103 0.53206 0.69908 0.0
C1290 C 0.61449 0.45292 0.74239 0.0
C1291 C 0.67556 0.45072 0.75286 0.0
N1292 N 0.59996 0.50817 0.71424 0.0
N1293 N 0.66595 0.47077 0.73289 0.0
H1294 H 0.89066 0.40988 0.99165 0.0
H1295 H 0.73676 0.33497 0.91114 0.0
H1296 H 0.81923 0.40522 0.07406 0.0
H1297 H 0.77139 0.42658 0.89456 0.0
H1298 H 0.76992 0.33383 0.95506 0.0
H1299 H 0.85093 0.39133 0.94816 0.0
C1300 C 0.86734 0.40466 -0.0016 0.0
C1301 C 0.85847 0.40963 0.03517 0.0
C1302 C 0.76948 0.35449 0.94252 0.0
C1303 C 0.80574 0.38397 0.98002 0.0
C1304 C 0.75069 0.3551 0.91736 0.0
C1305 C 0.75072 0.38123 0.89985 0.0
C1306 C 0.78682 0.38089 0.9513 0.0
C1307 C 0.77015 0.40625 0.90793 0.0
C1308 C 0.84305 0.39257 0.97121 0.0
C1309 C 0.82352 0.40217 0.0503 0.0
N1310 N 0.7871 0.40554 0.93319 0.0
N1311 N 0.79688 0.39057 0.02821 0.0
H1312 H 0.81125 0.53351 0.27033 0.0
H1313 H 0.9634 0.50514 0.18552 0.0
H1314 H 0.89144 0.59566 0.27498 0.0
H1315 H 0.87576 0.46894 0.15464 0.0
H1316 H 0.93866 0.53556 0.22219 0.0
H1317 H 0.83612 0.50531 0.23195 0.0
C1318 C 0.83413 0.54105 0.26344 0.0
C1319 C 0.84934 0.5669 0.27572 0.0
C1320 C 0.92493 0.52114 0.20714 0.0
C1321 C 0.87768 0.53508 0.232 0.0
C1322 C 0.939 0.50374 0.18643 0.0
C1323 C 0.92153 0.48478 0.16704 0.0
C1324 C 0.89329 0.51863 0.20904 0.0
C1325 C 0.89 0.48361 0.16902 0.0
C1326 C 0.84815 0.52522 0.24134 0.0
C1327 C 0.87891 0.57588 0.26591 0.0
N1328 N 0.87685 0.50005 0.18994 0.0
N1329 N 0.89221 0.55988 0.2447 0.0
H1330 H 0.73655 0.55446 0.41053 0.0
H1331 H 0.66891 0.65631 0.53672 0.0
H1332 H 0.76311 0.64911 0.41733 0.0
H1333 H 0.65089 0.5603 0.53108 0.0
H1334 H 0.70449 0.6551 0.49409 0.0
H1335 H 0.7062 0.55678 0.45622 0.0
C1336 C 0.73614 0.5757 0.4219 0.0
C1337 C 0.75237 0.60157 0.41038 0.0
C1338 C 0.69271 0.63437 0.50232 0.0
C1339 C 0.71703 0.60473 0.46222 0.0
C1340 C 0.67252 0.63505 0.52663 0.0
C1341 C 0.65668 0.60842 0.53719 0.0
C1342 C 0.69704 0.60685 0.48879 0.0
C1343 C 0.6623 0.58145 0.52349 0.0
C1344 C 0.71874 0.5771 0.44792 0.0
C1345 C 0.75105 0.6286 0.42579 0.0
N1346 N 0.68188 0.5814 0.50003 0.0
N1347 N 0.73335 0.62958 0.45083 0.0
H1348 H 0.65096 0.45611 0.86211 0.0
H1349 H 0.68874 0.55345 0.74067 0.0
H1350 H 0.56213 0.45066 0.82362 0.0
H1351 H 0.59937 0.57976 0.75478 0.0
H1352 H 0.67789 0.51303 0.77759 0.0
H1353 H 0.66719 0.4973 0.82746 0.0
C1354 C 0.63507 0.46332 0.84592 0.0
C1355 C 0.60535 0.44982 0.84527 0.0
C1356 C 0.66058 0.52752 0.77256 0.0
C1357 C 0.62341 0.49725 0.80622 0.0
C1358 C 0.66669 0.55037 0.75136 0.0
C1359 C 0.64467 0.56939 0.74448 0.0
C1360 C 0.63176 0.52286 0.78581 0.0
C1361 C 0.61672 0.56515 0.75937 0.0
C1362 C 0.6443 0.4868 0.82621 0.0
C1363 C 0.5854 0.46021 0.82434 0.0
N1364 N 0.61073 0.54178 0.77886 0.0
N1365 N 0.59467 0.48369 0.80589 0.0
H1366 H 0.83449 0.4459 0.00356 0.0
H1367 H 0.66092 0.35063 0.97074 0.0
H1368 H 0.79454 0.31931 0.01807 0.0
H1369 H 0.67783 0.44648 0.97964 0.0
H1370 H 0.71215 0.34569 0.9872 0.0
H1371 H 0.77174 0.44587 0.99251 0.0
C1372 C 0.81989 0.42482 0.00349 0.0
C1373 C 0.83089 0.36495 0.01554 0.0
C1374 C 0.70461 0.36782 0.98596 0.0
C1375 C 0.75572 0.39136 -0.00038 0.0
C1376 C 0.67534 0.3706 0.97651 0.0
C1377 C 0.66516 0.39895 0.97384 0.0
C1378 C 0.72393 0.39361 0.99235 0.0
C1379 C 0.68481 0.42415 0.98151 0.0
C1380 C 0.78062 0.42487 0.99748 0.0
C1381 C 0.79568 0.34304 0.01335 0.0
N1382 N 0.71348 0.42092 0.99011 0.0
N1383 N 0.76489 0.35778 0.00627 0.0
H1384 H 0.92649 0.51735 0.294 0.0
H1385 H 0.8418 0.37948 0.20412 0.0
H1386 H 0.8371 0.47784 0.31704 0.0
H1387 H 0.93392 0.41378 0.18698 0.0
H1388 H 0.83964 0.41475 0.24597 0.0
H1389 H 0.93003 0.47899 0.25551 0.0
C1390 C 0.90738 0.5009 0.29052 0.0
C1391 C 0.88127 0.50102 0.30834 0.0
C1392 C 0.86037 0.41466 0.2331 0.0
C1393 C 0.88482 0.45747 0.26377 0.0
C1394 C 0.86161 0.3945 0.20931 0.0
C1395 C 0.88788 0.39448 0.19173 0.0
C1396 C 0.88574 0.43475 0.2395 0.0
C1397 C 0.91298 0.41409 0.19937 0.0
C1398 C 0.90945 0.47891 0.26865 0.0
C1399 C 0.85748 0.47871 0.30349 0.0
N1400 N 0.91131 0.43353 0.22262 0.0
N1401 N 0.85967 0.45806 0.28141 0.0
H1402 H 0.84749 0.64972 0.43789 0.0
H1403 H 0.73062 0.58476 0.56594 0.0
H1404 H 0.81264 0.55669 0.44248 0.0
H1405 H 0.7584 0.67861 0.55172 0.0
H1406 H 0.75976 0.57334 0.52089 0.0
H1407 H 0.81402 0.66026 0.47938 0.0
C1408 C 0.83255 0.63153 0.44746 0.0
C1409 C 0.83294 0.60227 0.43671 0.0
C1410 C 0.75938 0.59641 0.52767 0.0
C1411 C 0.79479 0.61408 0.48483 0.0
C1412 C 0.74269 0.60294 0.5533 0.0
C1413 C 0.74224 0.63267 0.56277 0.0
C1414 C 0.77563 0.6198 0.51141 0.0
C1415 C 0.75821 0.65534 0.54546 0.0
C1416 C 0.8135 0.63753 0.47128 0.0
C1417 C 0.813 0.57961 0.44997 0.0
N1418 N 0.77426 0.64843 0.52078 0.0
N1419 N 0.79494 0.58592 0.47356 0.0
H1420 H 0.52632 0.6936 0.69986 0.0
H1421 H 0.4492 0.811 0.60091 0.0
H1422 H 0.54879 0.70533 0.6055 0.0
H1423 H 0.46697 0.8236 0.69566 0.0
H1424 H 0.48187 0.76975 0.60083 0.0
H1425 H 0.50082 0.73924 0.69817 0.0
C1426 C 0.52617 0.70602 0.67886 0.0
C1427 C 0.53963 0.69571 0.65279 0.0
C1428 C 0.47874 0.78183 0.62149 0.0
C1429 C 0.50968 0.74741 0.65044 0.0
C1430 C 0.46015 0.80524 0.62154 0.0
C1431 C 0.45591 0.82107 0.64818 0.0
C1432 C 0.4919 0.77349 0.64856 0.0
C1433 C 0.47015 0.81246 0.67446 0.0
C1434 C 0.51158 0.73201 0.67788 0.0
C1435 C 0.53878 0.71265 0.62614 0.0
N1436 N 0.48701 0.78897 0.67408 0.0
N1437 N 0.52359 0.73749 0.62549 0.0
H1438 H 0.38332 0.58194 0.25201 0.0
H1439 H 0.31872 0.4478 0.35851 0.0
H1440 H 0.29251 0.54037 0.24253 0.0
H1441 H 0.41261 0.461 0.33281 0.0
H1442 H 0.30772 0.48547 0.32092 0.0
H1443 H 0.39392 0.54183 0.28692 0.0
C1444 C 0.36567 0.56427 0.25726 0.0
C1445 C 0.33711 0.5642 0.24425 0.0
C1446 C 0.33067 0.47995 0.3234 0.0
C1447 C 0.34876 0.51888 0.2847 0.0
C1448 C 0.33694 0.45844 0.34471 0.0
C1449 C 0.36655 0.45111 0.34846 0.0
C1450 C 0.35435 0.49483 0.30638 0.0
C1451 C 0.38942 0.46573 0.33029 0.0
C1452 C 0.37171 0.54145 0.27714 0.0
C1453 C 0.31493 0.54096 0.25187 0.0
N1454 N 0.38291 0.48718 0.31027 0.0
N1455 N 0.32111 0.51934 0.27189 0.0
H1456 H 0.22292 0.59065 0.08005 0.0
H1457 H 0.12599 0.6697 0.95756 0.0
H1458 H 0.23306 0.68588 0.06341 0.0
H1459 H 0.14377 0.57727 0.95145 0.0
H1460 H 0.15949 0.67554 0.00118 0.0
H1461 H 0.18724 0.58463 0.03811 0.0
C1462 C 0.21762 0.61027 0.06767 0.0
C1463 C 0.23126 0.63877 0.07509 0.0
C1464 C 0.15605 0.65401 0.99023 0.0
C1465 C 0.19023 0.63208 0.02744 0.0
C1466 C 0.13708 0.65071 0.96528 0.0
C1467 C 0.13229 0.62305 0.95066 0.0
C1468 C 0.16982 0.6293 0.00109 0.0
C1469 C 0.14708 0.59911 0.96178 0.0
C1470 C 0.19723 0.60682 0.0438 0.0
C1471 C 0.22331 0.66344 0.05839 0.0
N1472 N 0.16496 0.60271 0.98646 0.0
N1473 N 0.20337 0.65953 0.0354 0.0
H1474 H 0.14404 0.52014 0.82464 0.0
H1475 H 0.06061 0.41131 0.70591 0.0
H1476 H 0.05729 0.53622 0.78938 0.0
H1477 H 0.15749 0.42788 0.70603 0.0
H1478 H 0.0576 0.45361 0.7403 0.0
H1479 H 0.14875 0.48263 0.78518 0.0
C1480 C 0.12615 0.51593 0.80837 0.0
C1481 C 0.10045 0.5315 0.80987 0.0
C1482 C 0.07949 0.44813 0.73263 0.0
C1483 C 0.10503 0.4879 0.76577 0.0
C1484 C 0.0812 0.42412 0.71302 0.0
C1485 C 0.10932 0.41644 0.70306 0.0
C1486 C 0.10614 0.46382 0.74316 0.0
C1487 C 0.1354 0.43344 0.71301 0.0
C1488 C 0.12881 0.49455 0.78597 0.0
C1489 C 0.07768 0.52501 0.78861 0.0
N1490 N 0.13323 0.45606 0.73296 0.0
N1491 N 0.08026 0.50332 0.76773 0.0
H1492 H 0.1938 0.28817 0.53069 0.0
H1493 H 0.35568 0.38043 0.51074 0.0
H1494 H 0.22685 0.36247 0.58651 0.0
H1495 H 0.32442 0.30743 0.45283 0.0
H1496 H 0.31044 0.37022 0.54192 0.0
H1497 H 0.2424 0.29197 0.50408 0.0
C1498 C 0.21129 0.30529 0.53736 0.0
C1499 C 0.2062 0.3252 0.56072 0.0
C1500 C 0.31351 0.35608 0.52269 0.0
C1501 C 0.262 0.32928 0.53074 0.0
C1502 C 0.33942 0.36177 0.50505 0.0
C1503 C 0.34354 0.34474 0.47931 0.0
C1504 C 0.29135 0.33325 0.51439 0.0
C1505 C 0.32185 0.32106 0.47253 0.0
C1506 C 0.23906 0.30731 0.52226 0.0
C1507 C 0.22967 0.34682 0.56849 0.0
N1508 N 0.29642 0.31614 0.48986 0.0
N1509 N 0.25651 0.34828 0.55353 0.0
H1510 H 0.30531 0.39633 0.29559 0.0
H1511 H 0.4047 0.52122 0.19996 0.0
H1512 H 0.40238 0.40036 0.28895 0.0
H1513 H 0.30942 0.49872 0.18562 0.0
H1514 H 0.40372 0.48115 0.2375 0.0
H1515 H 0.30614 0.43752 0.25949 0.0
C1516 C 0.32683 0.40583 0.28655 0.0
C1517 C 0.35385 0.39483 0.29537 0.0
C1518 C 0.38306 0.48504 0.22612 0.0
C1519 C 0.35485 0.44206 0.25396 0.0
C1520 C 0.38348 0.50813 0.20494 0.0
C1521 C 0.35709 0.51336 0.18953 0.0
C1522 C 0.35599 0.46722 0.23219 0.0
C1523 C 0.33031 0.49555 0.1969 0.0
C1524 C 0.32723 0.42927 0.26581 0.0
C1525 C 0.38101 0.40809 0.28282 0.0
N1526 N 0.33046 0.47325 0.21769 0.0
N1527 N 0.38083 0.4311 0.26281 0.0
H1528 H 0.31117 0.62955 0.05359 0.0
H1529 H 0.21124 0.58728 0.91007 0.0
H1530 H 0.26404 0.54191 0.04045 0.0
H1531 H 0.2183 0.67669 0.94569 0.0
H1532 H 0.23751 0.57062 0.95442 0.0
H1533 H 0.28365 0.64821 0.0107 0.0
C1534 C 0.29494 0.61433 0.04187 0.0
C1535 C 0.28979 0.58417 0.05066 0.0
C1536 C 0.23322 0.59387 0.95261 0.0
C1537 C 0.25917 0.60506 0.00144 0.0
C1538 C 0.21824 0.60329 0.92744 0.0
C1539 C 0.2123 0.63315 0.92479 0.0
C1540 C 0.24316 0.61472 0.97471 0.0
C1541 C 0.22213 0.65333 0.94744 0.0
C1542 C 0.27939 0.62495 0.01743 0.0
C1543 C 0.26862 0.56536 0.03463 0.0
N1544 N 0.23747 0.64381 0.97145 0.0
N1545 N 0.25434 0.57604 0.01064 0.0
H1546 H 0.0644 0.5027 0.67311 0.0
H1547 H 0.17651 0.58823 0.78932 0.0
H1548 H 0.16042 0.49627 0.67223 0.0
H1549 H 0.08915 0.61715 0.76974 0.0
H1550 H 0.16934 0.5514 0.74935 0.0
H1551 H 0.07161 0.54214 0.71085 0.0
C1552 C 0.08699 0.50948 0.68093 0.0
C1553 C 0.11184 0.49599 0.66966 0.0
C1554 C 0.15179 0.56587 0.7537 0.0
C1555 C 0.12014 0.54096 0.71295 0.0
C1556 C 0.15569 0.58675 0.77675 0.0
C1557 C 0.13333 0.60582 0.78301 0.0
C1558 C 0.12512 0.5636 0.73698 0.0
C1559 C 0.10695 0.60288 0.76575 0.0
C1560 C 0.09108 0.53217 0.70227 0.0
C1561 C 0.14061 0.50595 0.68037 0.0
N1562 N 0.10349 0.58204 0.74359 0.0
N1563 N 0.14393 0.52761 0.70166 0.0
H1564 H 0.22266 0.44017 0.55296 0.0
H1565 H 0.23327 0.32352 0.41835 0.0
H1566 H 0.15162 0.37127 0.53193 0.0
H1567 H 0.30632 0.38871 0.44301 0.0
H1568 H 0.20312 0.34039 0.46014 0.0
H1569 H 0.25421 0.42079 0.51374 0.0
C1570 C 0.21385 0.42072 0.5403 0.0
C1571 C 0.18457 0.40717 0.54582 0.0
C1572 C 0.22576 0.35102 0.45646 0.0
C1573 C 0.22021 0.38537 0.50034 0.0
C1574 C 0.24291 0.34144 0.43259 0.0
C1575 C 0.2724 0.35458 0.42749 0.0
C1576 C 0.23804 0.37422 0.4751 0.0
C1577 C 0.28388 0.37766 0.44655 0.0
C1578 C 0.2318 0.40978 0.51779 0.0
C1579 C 0.17419 0.3822 0.52862 0.0
N1580 N 0.26665 0.38682 0.46947 0.0
N1581 N 0.19189 0.37225 0.50648 0.0
H1582 H 0.51082 0.31499 0.4494 0.0
H1583 H 0.56889 0.25405 0.29376 0.0
H1584 H 0.48613 0.34841 0.36262 0.0
H1585 H 0.60835 0.23403 0.3791 0.0
H1586 H 0.53975 0.28989 0.31882 0.0
H1587 H 0.54807 0.28681 0.42457 0.0
C1588 C 0.51344 0.31668 0.42515 0.0
C1589 C 0.495 0.33381 0.40802 0.0
C1590 C 0.55498 0.27792 0.33209 0.0
C1591 C 0.53771 0.30158 0.37947 0.0
C1592 C 0.57154 0.25726 0.3178 0.0
C1593 C 0.59093 0.24076 0.33438 0.0
C1594 C 0.55745 0.28199 0.36334 0.0
C1595 C 0.59358 0.24616 0.36545 0.0
C1596 C 0.53482 0.30065 0.411 0.0
C1597 C 0.49959 0.33528 0.37671 0.0
N1598 N 0.57676 0.26607 0.37899 0.0
N1599 N 0.52025 0.31913 0.36343 0.0
loop_
_geom_bond_atom_site_label_1
_geom_bond_atom_site_label_2
_geom_bond_distance
_geom_bond_site_symmetry_2
_ccdc_geom_bond_type
O0 Cd1 2.223 . S
O0 C8 1.315 . S
Cd1 O0 2.223 . S
Cd1 O4 2.297 . S
Cd1 O5 2.439 . S
Cd1 O11 2.240 . S
Cd2 O3 2.240 . S
Cd2 O10 2.223 . S
Cd2 O12 2.297 1_455 S
Cd2 O13 2.439 . S
O3 Cd2 2.240 . S
O3 C8 1.279 . S
O4 Cd1 2.297 . S
O4 C6 1.247 . S
O5 Cd1 2.439 . S
O5 C6 1.208 . S
C6 O4 1.247 . S
C6 O5 1.208 . S
C7 O12 1.247 1_455 S
C7 O13 1.208 . S
C8 O0 1.315 . S
C8 O3 1.279 . S
C9 O10 1.315 . S
C9 O11 1.279 . S
O10 Cd2 2.223 . S
O10 C9 1.315 . S
O11 Cd1 2.240 . S
O11 C9 1.279 . S
O12 Cd2 2.297 1_655 S
O12 C7 1.247 1_655 S
O13 Cd2 2.439 . S
O13 C7 1.208 . S
O14 Cd15 2.223 . S
O14 C22 1.315 . S
Cd15 O14 2.223 . S
Cd15 O18 2.297 . S
Cd15 O19 2.439 . S
Cd15 O25 2.240 . S
Cd16 O17 2.240 . S
Cd16 O24 2.223 . S
Cd16 O26 2.297 . S
Cd16 O27 2.439 . S
O17 Cd16 2.240 . S
O17 C22 1.279 . S
O18 Cd15 2.297 . S
O18 C20 1.247 . S
O19 Cd15 2.439 . S
O19 C20 1.208 . S
C20 O18 1.247 . S
C20 O19 1.208 . S
C21 O26 1.247 . S
C21 O27 1.208 . S
C22 O14 1.315 . S
C22 O17 1.279 . S
C23 O24 1.315 . S
C23 O25 1.279 . S
O24 Cd16 2.223 . S
O24 C23 1.315 . S
O25 Cd15 2.240 . S
O25 C23 1.279 . S
O26 Cd16 2.297 . S
O26 C21 1.247 . S
O27 Cd16 2.439 . S
O27 C21 1.208 . S
O28 Cd29 2.223 . S
O28 C36 1.315 . S
Cd29 O28 2.223 . S
Cd29 O32 2.297 . S
Cd29 O33 2.439 . S
Cd29 O39 2.240 . S
Cd30 O31 2.240 . S
Cd30 O38 2.223 . S
Cd30 O40 2.297 . S
Cd30 O41 2.439 . S
O31 Cd30 2.240 . S
O31 C36 1.279 . S
O32 Cd29 2.297 . S
O32 C34 1.247 . S
O33 Cd29 2.439 . S
O33 C34 1.208 . S
C34 O32 1.247 . S
C34 O33 1.208 . S
C35 O40 1.247 . S
C35 O41 1.208 . S
C36 O28 1.315 . S
C36 O31 1.279 . S
C37 O38 1.315 . S
C37 O39 1.279 . S
O38 Cd30 2.223 . S
O38 C37 1.315 . S
O39 Cd29 2.240 . S
O39 C37 1.279 . S
O40 Cd30 2.297 . S
O40 C35 1.247 . S
O41 Cd30 2.439 . S
O41 C35 1.208 . S
O42 Cd43 2.223 . S
O42 C50 1.315 . S
Cd43 O42 2.223 . S
Cd43 O46 2.297 . S
Cd43 O47 2.439 . S
Cd43 O53 2.240 . S
Cd44 O45 2.240 . S
Cd44 O52 2.223 . S
Cd44 O54 2.297 . S
Cd44 O55 2.439 . S
O45 Cd44 2.240 . S
O45 C50 1.279 . S
O46 Cd43 2.297 . S
O46 C48 1.247 . S
O47 Cd43 2.439 . S
O47 C48 1.208 . S
C48 O46 1.247 . S
C48 O47 1.208 . S
C49 O54 1.247 . S
C49 O55 1.208 . S
C50 O42 1.315 . S
C50 O45 1.279 . S
C51 O52 1.315 . S
C51 O53 1.279 . S
O52 Cd44 2.223 . S
O52 C51 1.315 . S
O53 Cd43 2.240 . S
O53 C51 1.279 . S
O54 Cd44 2.297 . S
O54 C49 1.247 . S
O55 Cd44 2.439 . S
O55 C49 1.208 . S
O56 Cd57 2.223 . S
O56 C64 1.315 . S
Cd57 O56 2.223 . S
Cd57 O60 2.297 . S
Cd57 O61 2.439 . S
Cd57 O67 2.240 . S
Cd58 O59 2.240 . S
Cd58 O66 2.223 . S
Cd58 O68 2.297 . S
Cd58 O69 2.439 . S
O59 Cd58 2.240 . S
O59 C64 1.279 . S
O60 Cd57 2.297 . S
O60 C62 1.247 . S
O61 Cd57 2.439 . S
O61 C62 1.208 . S
C62 O60 1.247 . S
C62 O61 1.208 . S
C63 O68 1.247 . S
C63 O69 1.208 . S
C64 O56 1.315 . S
C64 O59 1.279 . S
C65 O66 1.315 . S
C65 O67 1.279 . S
O66 Cd58 2.223 . S
O66 C65 1.315 . S
O67 Cd57 2.240 . S
O67 C65 1.279 . S
O68 Cd58 2.297 . S
O68 C63 1.247 . S
O69 Cd58 2.439 . S
O69 C63 1.208 . S
O70 Cd71 2.223 . S
O70 C78 1.315 . S
Cd71 O70 2.223 . S
Cd71 O74 2.297 . S
Cd71 O75 2.439 . S
Cd71 O81 2.240 . S
Cd72 O73 2.240 . S
Cd72 O80 2.223 . S
Cd72 O82 2.297 . S
Cd72 O83 2.439 . S
O73 Cd72 2.240 . S
O73 C78 1.279 . S
O74 Cd71 2.297 . S
O74 C76 1.247 . S
O75 Cd71 2.439 . S
O75 C76 1.208 . S
C76 O74 1.247 . S
C76 O75 1.208 . S
C77 O82 1.247 . S
C77 O83 1.208 . S
C78 O70 1.315 . S
C78 O73 1.279 . S
C79 O80 1.315 . S
C79 O81 1.279 . S
O80 Cd72 2.223 . S
O80 C79 1.315 . S
O81 Cd71 2.240 . S
O81 C79 1.279 . S
O82 Cd72 2.297 . S
O82 C77 1.247 . S
O83 Cd72 2.439 . S
O83 C77 1.208 . S
O84 Cd85 2.223 . S
O84 C92 1.315 . S
Cd85 O84 2.223 . S
Cd85 O88 2.297 . S
Cd85 O89 2.439 . S
Cd85 O95 2.240 . S
Cd86 O87 2.240 . S
Cd86 O94 2.223 . S
Cd86 O96 2.297 . S
Cd86 O97 2.439 . S
O87 Cd86 2.240 . S
O87 C92 1.279 . S
O88 Cd85 2.297 . S
O88 C90 1.247 . S
O89 Cd85 2.439 . S
O89 C90 1.208 . S
C90 O88 1.247 . S
C90 O89 1.208 . S
C91 O96 1.247 . S
C91 O97 1.208 . S
C92 O84 1.315 . S
C92 O87 1.279 . S
C93 O94 1.315 . S
C93 O95 1.279 . S
O94 Cd86 2.223 . S
O94 C93 1.315 . S
O95 Cd85 2.240 . S
O95 C93 1.279 . S
O96 Cd86 2.297 . S
O96 C91 1.247 . S
O97 Cd86 2.439 . S
O97 C91 1.208 . S
O98 Cd99 2.223 . S
O98 C106 1.315 . S
Cd99 O98 2.223 . S
Cd99 O102 2.297 . S
Cd99 O103 2.439 . S
Cd99 O109 2.240 . S
Cd100 O101 2.240 . S
Cd100 O108 2.223 . S
Cd100 O110 2.297 . S
Cd100 O111 2.439 . S
O101 Cd100 2.240 . S
O101 C106 1.279 . S
O102 Cd99 2.297 . S
O102 C104 1.247 . S
O103 Cd99 2.439 . S
O103 C104 1.208 . S
C104 O102 1.247 . S
C104 O103 1.208 . S
C105 O110 1.247 . S
C105 O111 1.208 . S
C106 O98 1.315 . S
C106 O101 1.279 . S
C107 O108 1.315 . S
C107 O109 1.279 . S
O108 Cd100 2.223 . S
O108 C107 1.315 . S
O109 Cd99 2.240 . S
O109 C107 1.279 . S
O110 Cd100 2.297 . S
O110 C105 1.247 . S
O111 Cd100 2.439 . S
O111 C105 1.208 . S
O112 Cd113 2.223 . S
O112 C120 1.315 . S
Cd113 O112 2.223 . S
Cd113 O116 2.297 . S
Cd113 O117 2.439 . S
Cd113 O123 2.240 . S
Cd114 O115 2.240 . S
Cd114 O122 2.223 . S
Cd114 O124 2.297 . S
Cd114 O125 2.439 . S
O115 Cd114 2.240 . S
O115 C120 1.279 . S
O116 Cd113 2.297 . S
O116 C118 1.247 . S
O117 Cd113 2.439 . S
O117 C118 1.208 . S
C118 O116 1.247 . S
C118 O117 1.208 . S
C119 O124 1.247 . S
C119 O125 1.208 . S
C120 O112 1.315 . S
C120 O115 1.279 . S
C121 O122 1.315 . S
C121 O123 1.279 . S
O122 Cd114 2.223 . S
O122 C121 1.315 . S
O123 Cd113 2.240 . S
O123 C121 1.279 . S
O124 Cd114 2.297 . S
O124 C119 1.247 . S
O125 Cd114 2.439 . S
O125 C119 1.208 . S
O126 Cd127 2.223 . S
O126 C134 1.315 . S
Cd127 O126 2.223 . S
Cd127 O130 2.297 . S
Cd127 O131 2.439 . S
Cd127 O137 2.240 . S
Cd128 O129 2.240 . S
Cd128 O136 2.223 . S
Cd128 O138 2.297 . S
Cd128 O139 2.439 . S
O129 Cd128 2.240 . S
O129 C134 1.279 . S
O130 Cd127 2.297 . S
O130 C132 1.247 . S
O131 Cd127 2.439 . S
O131 C132 1.208 . S
C132 O130 1.247 . S
C132 O131 1.208 . S
C133 O138 1.247 . S
C133 O139 1.208 . S
C134 O126 1.315 . S
C134 O129 1.279 . S
C135 O136 1.315 . S
C135 O137 1.279 . S
O136 Cd128 2.223 . S
O136 C135 1.315 . S
O137 Cd127 2.240 . S
O137 C135 1.279 . S
O138 Cd128 2.297 . S
O138 C133 1.247 . S
O139 Cd128 2.439 . S
O139 C133 1.208 . S
O140 Cd141 2.223 . S
O140 C148 1.315 . S
Cd141 O140 2.223 . S
Cd141 O144 2.297 . S
Cd141 O145 2.439 . S
Cd141 O151 2.240 . S
Cd142 O143 2.240 . S
Cd142 O150 2.223 . S
Cd142 O152 2.297 . S
Cd142 O153 2.439 . S
O143 Cd142 2.240 . S
O143 C148 1.279 . S
O144 Cd141 2.297 . S
O144 C146 1.247 . S
O145 Cd141 2.439 . S
O145 C146 1.208 . S
C146 O144 1.247 . S
C146 O145 1.208 . S
C147 O152 1.247 . S
C147 O153 1.208 . S
C148 O140 1.315 . S
C148 O143 1.279 . S
C149 O150 1.315 . S
C149 O151 1.279 . S
O150 Cd142 2.223 . S
O150 C149 1.315 . S
O151 Cd141 2.240 . S
O151 C149 1.279 . S
O152 Cd142 2.297 . S
O152 C147 1.247 . S
O153 Cd142 2.439 . S
O153 C147 1.208 . S
O154 Cd155 2.223 . S
O154 C162 1.315 . S
Cd155 O154 2.223 . S
Cd155 O158 2.297 . S
Cd155 O159 2.439 . S
Cd155 O165 2.240 . S
Cd156 O157 2.240 . S
Cd156 O164 2.223 . S
Cd156 O166 2.297 . S
Cd156 O167 2.439 . S
O157 Cd156 2.240 . S
O157 C162 1.279 . S
O158 Cd155 2.297 . S
O158 C160 1.247 . S
O159 Cd155 2.439 . S
O159 C160 1.208 . S
C160 O158 1.247 . S
C160 O159 1.208 . S
C161 O166 1.247 . S
C161 O167 1.208 . S
C162 O154 1.315 . S
C162 O157 1.279 . S
C163 O164 1.315 . S
C163 O165 1.279 . S
O164 Cd156 2.223 . S
O164 C163 1.315 . S
O165 Cd155 2.240 . S
O165 C163 1.279 . S
O166 Cd156 2.297 . S
O166 C161 1.247 . S
O167 Cd156 2.439 . S
O167 C161 1.208 . S
O168 Cd169 2.223 . S
O168 C176 1.315 . S
Cd169 O168 2.223 . S
Cd169 O172 2.297 . S
Cd169 O173 2.439 . S
Cd169 O179 2.240 . S
Cd170 O171 2.240 . S
Cd170 O178 2.223 . S
Cd170 O180 2.297 . S
Cd170 O181 2.439 . S
O171 Cd170 2.240 . S
O171 C176 1.279 . S
O172 Cd169 2.297 . S
O172 C174 1.247 . S
O173 Cd169 2.439 . S
O173 C174 1.208 . S
C174 O172 1.247 . S
C174 O173 1.208 . S
C175 O180 1.247 . S
C175 O181 1.208 . S
C176 O168 1.315 . S
C176 O171 1.279 . S
C177 O178 1.315 . S
C177 O179 1.279 . S
O178 Cd170 2.223 . S
O178 C177 1.315 . S
O179 Cd169 2.240 . S
O179 C177 1.279 . S
O180 Cd170 2.297 . S
O180 C175 1.247 . S
O181 Cd170 2.439 . S
O181 C175 1.208 . S
O182 Cd183 2.223 . S
O182 C190 1.315 . S
Cd183 O182 2.223 . S
Cd183 O186 2.297 . S
Cd183 O187 2.439 . S
Cd183 O193 2.240 . S
Cd184 O185 2.240 . S
Cd184 O192 2.223 . S
Cd184 O194 2.297 . S
Cd184 O195 2.439 . S
O185 Cd184 2.240 . S
O185 C190 1.279 . S
O186 Cd183 2.297 . S
O186 C188 1.247 . S
O187 Cd183 2.439 . S
O187 C188 1.208 . S
C188 O186 1.247 . S
C188 O187 1.208 . S
C189 O194 1.247 . S
C189 O195 1.208 . S
C190 O182 1.315 . S
C190 O185 1.279 . S
C191 O192 1.315 . S
C191 O193 1.279 . S
O192 Cd184 2.223 . S
O192 C191 1.315 . S
O193 Cd183 2.240 . S
O193 C191 1.279 . S
O194 Cd184 2.297 . S
O194 C189 1.247 . S
O195 Cd184 2.439 . S
O195 C189 1.208 . S
O196 Cd197 2.223 . S
O196 C204 1.315 . S
Cd197 O196 2.223 . S
Cd197 O200 2.297 . S
Cd197 O201 2.439 . S
Cd197 O207 2.240 . S
Cd198 O199 2.240 . S
Cd198 O206 2.223 . S
Cd198 O208 2.297 . S
Cd198 O209 2.439 . S
O199 Cd198 2.240 . S
O199 C204 1.279 . S
O200 Cd197 2.297 . S
O200 C202 1.247 . S
O201 Cd197 2.439 . S
O201 C202 1.208 . S
C202 O200 1.247 . S
C202 O201 1.208 . S
C203 O208 1.247 . S
C203 O209 1.208 . S
C204 O196 1.315 . S
C204 O199 1.279 . S
C205 O206 1.315 . S
C205 O207 1.279 . S
O206 Cd198 2.223 . S
O206 C205 1.315 . S
O207 Cd197 2.240 . S
O207 C205 1.279 . S
O208 Cd198 2.297 . S
O208 C203 1.247 . S
O209 Cd198 2.439 . S
O209 C203 1.208 . S
O210 Cd211 2.223 . S
O210 C218 1.315 . S
Cd211 O210 2.223 . S
Cd211 O214 2.297 . S
Cd211 O215 2.439 . S
Cd211 O221 2.240 . S
Cd212 O213 2.240 . S
Cd212 O220 2.223 . S
Cd212 O222 2.297 . S
Cd212 O223 2.439 . S
O213 Cd212 2.240 . S
O213 C218 1.279 . S
O214 Cd211 2.297 . S
O214 C216 1.247 . S
O215 Cd211 2.439 . S
O215 C216 1.208 . S
C216 O214 1.247 . S
C216 O215 1.208 . S
C217 O222 1.247 . S
C217 O223 1.208 . S
C218 O210 1.315 . S
C218 O213 1.279 . S
C219 O220 1.315 . S
C219 O221 1.279 . S
O220 Cd212 2.223 . S
O220 C219 1.315 . S
O221 Cd211 2.240 . S
O221 C219 1.279 . S
O222 Cd212 2.297 . S
O222 C217 1.247 . S
O223 Cd212 2.439 . S
O223 C217 1.208 . S
O224 Cd225 2.223 . S
O224 C232 1.315 . S
Cd225 O224 2.223 . S
Cd225 O228 2.297 . S
Cd225 O229 2.439 . S
Cd225 O235 2.240 . S
Cd226 O227 2.240 . S
Cd226 O234 2.223 . S
Cd226 O236 2.297 . S
Cd226 O237 2.439 . S
O227 Cd226 2.240 . S
O227 C232 1.279 . S
O228 Cd225 2.297 . S
O228 C230 1.247 . S
O229 Cd225 2.439 . S
O229 C230 1.208 . S
C230 O228 1.247 . S
C230 O229 1.208 . S
C231 O236 1.247 . S
C231 O237 1.208 . S
C232 O224 1.315 . S
C232 O227 1.279 . S
C233 O234 1.315 . S
C233 O235 1.279 . S
O234 Cd226 2.223 . S
O234 C233 1.315 . S
O235 Cd225 2.240 . S
O235 C233 1.279 . S
O236 Cd226 2.297 . S
O236 C231 1.247 . S
O237 Cd226 2.439 . S
O237 C231 1.208 . S
O238 Cd239 2.223 . S
O238 C246 1.315 . S
Cd239 O238 2.223 . S
Cd239 O242 2.297 . S
Cd239 O243 2.439 . S
Cd239 O249 2.240 . S
Cd240 O241 2.240 . S
Cd240 O248 2.223 . S
Cd240 O250 2.297 . S
Cd240 O251 2.439 . S
O241 Cd240 2.240 . S
O241 C246 1.279 . S
O242 Cd239 2.297 . S
O242 C244 1.247 . S
O243 Cd239 2.439 . S
O243 C244 1.208 . S
C244 O242 1.247 . S
C244 O243 1.208 . S
C245 O250 1.247 . S
C245 O251 1.208 . S
C246 O238 1.315 . S
C246 O241 1.279 . S
C247 O248 1.315 . S
C247 O249 1.279 . S
O248 Cd240 2.223 . S
O248 C247 1.315 . S
O249 Cd239 2.240 . S
O249 C247 1.279 . S
O250 Cd240 2.297 . S
O250 C245 1.247 . S
O251 Cd240 2.439 . S
O251 C245 1.208 . S
O252 Cd253 2.223 . S
O252 C260 1.315 . S
Cd253 O252 2.223 . S
Cd253 O256 2.297 . S
Cd253 O257 2.439 . S
Cd253 O263 2.240 . S
Cd254 O255 2.240 . S
Cd254 O262 2.223 . S
Cd254 O264 2.297 . S
Cd254 O265 2.439 . S
O255 Cd254 2.240 . S
O255 C260 1.279 . S
O256 Cd253 2.297 . S
O256 C258 1.247 . S
O257 Cd253 2.439 . S
O257 C258 1.208 . S
C258 O256 1.247 . S
C258 O257 1.208 . S
C259 O264 1.247 . S
C259 O265 1.208 . S
C260 O252 1.315 . S
C260 O255 1.279 . S
C261 O262 1.315 . S
C261 O263 1.279 . S
O262 Cd254 2.223 . S
O262 C261 1.315 . S
O263 Cd253 2.240 . S
O263 C261 1.279 . S
O264 Cd254 2.297 . S
O264 C259 1.247 . S
O265 Cd254 2.439 . S
O265 C259 1.208 . S
O266 Cd267 2.223 . S
O266 C274 1.315 . S
Cd267 O266 2.223 . S
Cd267 O270 2.297 . S
Cd267 O271 2.439 . S
Cd267 O277 2.240 . S
Cd268 O269 2.240 . S
Cd268 O276 2.223 . S
Cd268 O278 2.297 . S
Cd268 O279 2.439 . S
O269 Cd268 2.240 . S
O269 C274 1.279 . S
O270 Cd267 2.297 . S
O270 C272 1.247 . S
O271 Cd267 2.439 . S
O271 C272 1.208 . S
C272 O270 1.247 . S
C272 O271 1.208 . S
C273 O278 1.247 . S
C273 O279 1.208 . S
C274 O266 1.315 . S
C274 O269 1.279 . S
C275 O276 1.315 . S
C275 O277 1.279 . S
O276 Cd268 2.223 . S
O276 C275 1.315 . S
O277 Cd267 2.240 . S
O277 C275 1.279 . S
O278 Cd268 2.297 . S
O278 C273 1.247 . S
O279 Cd268 2.439 . S
O279 C273 1.208 . S
O280 Cd281 2.223 . S
O280 C288 1.315 . S
Cd281 O280 2.223 . S
Cd281 O284 2.297 . S
Cd281 O285 2.439 . S
Cd281 O291 2.240 . S
Cd282 O283 2.240 . S
Cd282 O290 2.223 . S
Cd282 O292 2.297 . S
Cd282 O293 2.439 . S
O283 Cd282 2.240 . S
O283 C288 1.279 . S
O284 Cd281 2.297 . S
O284 C286 1.247 . S
O285 Cd281 2.439 . S
O285 C286 1.208 . S
C286 O284 1.247 . S
C286 O285 1.208 . S
C287 O292 1.247 . S
C287 O293 1.208 . S
C288 O280 1.315 . S
C288 O283 1.279 . S
C289 O290 1.315 . S
C289 O291 1.279 . S
O290 Cd282 2.223 . S
O290 C289 1.315 . S
O291 Cd281 2.240 . S
O291 C289 1.279 . S
O292 Cd282 2.297 . S
O292 C287 1.247 . S
O293 Cd282 2.439 . S
O293 C287 1.208 . S
O294 Cd295 2.223 . S
O294 C302 1.315 . S
Cd295 O294 2.223 . S
Cd295 O298 2.297 . S
Cd295 O299 2.439 . S
Cd295 O305 2.240 . S
Cd296 O297 2.240 . S
Cd296 O304 2.223 . S
Cd296 O306 2.297 . S
Cd296 O307 2.439 . S
O297 Cd296 2.240 . S
O297 C302 1.279 . S
O298 Cd295 2.297 . S
O298 C300 1.247 . S
O299 Cd295 2.439 . S
O299 C300 1.208 . S
C300 O298 1.247 . S
C300 O299 1.208 . S
C301 O306 1.247 . S
C301 O307 1.208 . S
C302 O294 1.315 . S
C302 O297 1.279 . S
C303 O304 1.315 . S
C303 O305 1.279 . S
O304 Cd296 2.223 . S
O304 C303 1.315 . S
O305 Cd295 2.240 . S
O305 C303 1.279 . S
O306 Cd296 2.297 . S
O306 C301 1.247 . S
O307 Cd296 2.439 . S
O307 C301 1.208 . S
O308 Cd309 2.223 . S
O308 C316 1.315 . S
Cd309 O308 2.223 . S
Cd309 O312 2.297 . S
Cd309 O313 2.439 . S
Cd309 O319 2.240 . S
Cd310 O311 2.240 . S
Cd310 O318 2.223 . S
Cd310 O320 2.297 . S
Cd310 O321 2.439 . S
O311 Cd310 2.240 . S
O311 C316 1.279 . S
O312 Cd309 2.297 . S
O312 C314 1.247 . S
O313 Cd309 2.439 . S
O313 C314 1.208 . S
C314 O312 1.247 . S
C314 O313 1.208 . S
C315 O320 1.247 . S
C315 O321 1.208 . S
C316 O308 1.315 . S
C316 O311 1.279 . S
C317 O318 1.315 . S
C317 O319 1.279 . S
O318 Cd310 2.223 . S
O318 C317 1.315 . S
O319 Cd309 2.240 . S
O319 C317 1.279 . S
O320 Cd310 2.297 . S
O320 C315 1.247 . S
O321 Cd310 2.439 . S
O321 C315 1.208 . S
O322 Cd323 2.223 . S
O322 C330 1.315 . S
Cd323 O322 2.223 . S
Cd323 O326 2.297 . S
Cd323 O327 2.439 . S
Cd323 O333 2.240 . S
Cd324 O325 2.240 . S
Cd324 O332 2.223 . S
Cd324 O334 2.297 . S
Cd324 O335 2.439 . S
O325 Cd324 2.240 . S
O325 C330 1.279 . S
O326 Cd323 2.297 . S
O326 C328 1.247 . S
O327 Cd323 2.439 . S
O327 C328 1.208 . S
C328 O326 1.247 . S
C328 O327 1.208 . S
C329 O334 1.247 . S
C329 O335 1.208 . S
C330 O322 1.315 . S
C330 O325 1.279 . S
C331 O332 1.315 . S
C331 O333 1.279 . S
O332 Cd324 2.223 . S
O332 C331 1.315 . S
O333 Cd323 2.240 . S
O333 C331 1.279 . S
O334 Cd324 2.297 . S
O334 C329 1.247 . S
O335 Cd324 2.439 . S
O335 C329 1.208 . S
O336 Cd337 2.223 . S
O336 C344 1.315 . S
Cd337 O336 2.223 . S
Cd337 O340 2.297 . S
Cd337 O341 2.439 . S
Cd337 O347 2.240 . S
Cd338 O339 2.240 . S
Cd338 O346 2.223 . S
Cd338 O348 2.297 . S
Cd338 O349 2.439 . S
O339 Cd338 2.240 . S
O339 C344 1.279 . S
O340 Cd337 2.297 . S
O340 C342 1.247 . S
O341 Cd337 2.439 . S
O341 C342 1.208 . S
C342 O340 1.247 . S
C342 O341 1.208 . S
C343 O348 1.247 . S
C343 O349 1.208 . S
C344 O336 1.315 . S
C344 O339 1.279 . S
C345 O346 1.315 . S
C345 O347 1.279 . S
O346 Cd338 2.223 . S
O346 C345 1.315 . S
O347 Cd337 2.240 . S
O347 C345 1.279 . S
O348 Cd338 2.297 . S
O348 C343 1.247 . S
O349 Cd338 2.439 . S
O349 C343 1.208 . S
O350 Cd351 2.223 . S
O350 C358 1.315 . S
Cd351 O350 2.223 . S
Cd351 O354 2.297 . S
Cd351 O355 2.439 . S
Cd351 O361 2.240 . S
Cd352 O353 2.240 . S
Cd352 O360 2.223 . S
Cd352 O362 2.297 . S
Cd352 O363 2.439 . S
O353 Cd352 2.240 . S
O353 C358 1.279 . S
O354 Cd351 2.297 . S
O354 C356 1.247 . S
O355 Cd351 2.439 . S
O355 C356 1.208 . S
C356 O354 1.247 . S
C356 O355 1.208 . S
C357 O362 1.247 . S
C357 O363 1.208 . S
C358 O350 1.315 . S
C358 O353 1.279 . S
C359 O360 1.315 . S
C359 O361 1.279 . S
O360 Cd352 2.223 . S
O360 C359 1.315 . S
O361 Cd351 2.240 . S
O361 C359 1.279 . S
O362 Cd352 2.297 . S
O362 C357 1.247 . S
O363 Cd352 2.439 . S
O363 C357 1.208 . S
O364 Cd365 2.223 . S
O364 C372 1.315 . S
Cd365 O364 2.223 . S
Cd365 O368 2.297 . S
Cd365 O369 2.439 . S
Cd365 O375 2.240 . S
Cd366 O367 2.240 . S
Cd366 O374 2.223 . S
Cd366 O376 2.297 . S
Cd366 O377 2.439 . S
O367 Cd366 2.240 . S
O367 C372 1.279 . S
O368 Cd365 2.297 . S
O368 C370 1.247 . S
O369 Cd365 2.439 . S
O369 C370 1.208 . S
C370 O368 1.247 . S
C370 O369 1.208 . S
C371 O376 1.247 . S
C371 O377 1.208 . S
C372 O364 1.315 . S
C372 O367 1.279 . S
C373 O374 1.315 . S
C373 O375 1.279 . S
O374 Cd366 2.223 . S
O374 C373 1.315 . S
O375 Cd365 2.240 . S
O375 C373 1.279 . S
O376 Cd366 2.297 . S
O376 C371 1.247 . S
O377 Cd366 2.439 . S
O377 C371 1.208 . S
O378 Cd379 2.223 . S
O378 C386 1.315 . S
Cd379 O378 2.223 . S
Cd379 O382 2.297 . S
Cd379 O383 2.439 . S
Cd379 O389 2.240 . S
Cd380 O381 2.240 . S
Cd380 O388 2.223 . S
Cd380 O390 2.297 1_655 S
Cd380 O391 2.439 . S
O381 Cd380 2.240 . S
O381 C386 1.279 . S
O382 Cd379 2.297 . S
O382 C384 1.247 . S
O383 Cd379 2.439 . S
O383 C384 1.208 . S
C384 O382 1.247 . S
C384 O383 1.208 . S
C385 O390 1.247 1_655 S
C385 O391 1.208 . S
C386 O378 1.315 . S
C386 O381 1.279 . S
C387 O388 1.315 . S
C387 O389 1.279 . S
O388 Cd380 2.223 . S
O388 C387 1.315 . S
O389 Cd379 2.240 . S
O389 C387 1.279 . S
O390 Cd380 2.297 1_455 S
O390 C385 1.247 1_455 S
O391 Cd380 2.439 . S
O391 C385 1.208 . S
O392 Cd393 2.223 . S
O392 C400 1.315 . S
Cd393 O392 2.223 . S
Cd393 O396 2.297 . S
Cd393 O397 2.439 . S
Cd393 O403 2.240 . S
Cd394 O395 2.240 . S
Cd394 O402 2.223 . S
Cd394 O404 2.297 . S
Cd394 O405 2.439 . S
O395 Cd394 2.240 . S
O395 C400 1.279 . S
O396 Cd393 2.297 . S
O396 C398 1.247 . S
O397 Cd393 2.439 . S
O397 C398 1.208 . S
C398 O396 1.247 . S
C398 O397 1.208 . S
C399 O404 1.247 . S
C399 O405 1.208 . S
C400 O392 1.315 . S
C400 O395 1.279 . S
C401 O402 1.315 . S
C401 O403 1.279 . S
O402 Cd394 2.223 . S
O402 C401 1.315 . S
O403 Cd393 2.240 . S
O403 C401 1.279 . S
O404 Cd394 2.297 . S
O404 C399 1.247 . S
O405 Cd394 2.439 . S
O405 C399 1.208 . S
O406 Cd407 2.223 . S
O406 C414 1.315 . S
Cd407 O406 2.223 . S
Cd407 O410 2.297 . S
Cd407 O411 2.439 . S
Cd407 O417 2.240 . S
Cd408 O409 2.240 . S
Cd408 O416 2.223 . S
Cd408 O418 2.297 . S
Cd408 O419 2.439 . S
O409 Cd408 2.240 . S
O409 C414 1.279 . S
O410 Cd407 2.297 . S
O410 C412 1.247 . S
O411 Cd407 2.439 . S
O411 C412 1.208 . S
C412 O410 1.247 . S
C412 O411 1.208 . S
C413 O418 1.247 . S
C413 O419 1.208 . S
C414 O406 1.315 . S
C414 O409 1.279 . S
C415 O416 1.315 . S
C415 O417 1.279 . S
O416 Cd408 2.223 . S
O416 C415 1.315 . S
O417 Cd407 2.240 . S
O417 C415 1.279 . S
O418 Cd408 2.297 . S
O418 C413 1.247 . S
O419 Cd408 2.439 . S
O419 C413 1.208 . S
O420 Cd421 2.223 . S
O420 C428 1.315 . S
Cd421 O420 2.223 . S
Cd421 O424 2.297 . S
Cd421 O425 2.439 . S
Cd421 O431 2.240 . S
Cd422 O423 2.240 . S
Cd422 O430 2.223 . S
Cd422 O432 2.297 . S
Cd422 O433 2.439 . S
O423 Cd422 2.240 . S
O423 C428 1.279 . S
O424 Cd421 2.297 . S
O424 C426 1.247 . S
O425 Cd421 2.439 . S
O425 C426 1.208 . S
C426 O424 1.247 . S
C426 O425 1.208 . S
C427 O432 1.247 . S
C427 O433 1.208 . S
C428 O420 1.315 . S
C428 O423 1.279 . S
C429 O430 1.315 . S
C429 O431 1.279 . S
O430 Cd422 2.223 . S
O430 C429 1.315 . S
O431 Cd421 2.240 . S
O431 C429 1.279 . S
O432 Cd422 2.297 . S
O432 C427 1.247 . S
O433 Cd422 2.439 . S
O433 C427 1.208 . S
O434 Cd435 2.223 . S
O434 C442 1.315 . S
Cd435 O434 2.223 . S
Cd435 O438 2.297 . S
Cd435 O439 2.439 . S
Cd435 O445 2.240 . S
Cd436 O437 2.240 . S
Cd436 O444 2.223 . S
Cd436 O446 2.297 . S
Cd436 O447 2.439 . S
O437 Cd436 2.240 . S
O437 C442 1.279 . S
O438 Cd435 2.297 . S
O438 C440 1.247 . S
O439 Cd435 2.439 . S
O439 C440 1.208 . S
C440 O438 1.247 . S
C440 O439 1.208 . S
C441 O446 1.247 . S
C441 O447 1.208 . S
C442 O434 1.315 . S
C442 O437 1.279 . S
C443 O444 1.315 . S
C443 O445 1.279 . S
O444 Cd436 2.223 . S
O444 C443 1.315 . S
O445 Cd435 2.240 . S
O445 C443 1.279 . S
O446 Cd436 2.297 . S
O446 C441 1.247 . S
O447 Cd436 2.439 . S
O447 C441 1.208 . S
H448 C454 0.930 . S
H449 C458 0.930 . S
H450 C463 0.931 . S
H451 C461 0.929 . S
H452 C456 0.929 1_455 S
H453 C462 0.929 . S
C454 H448 0.930 . S
C454 C455 1.367 1_655 S
C454 C462 1.378 . S
C455 C454 1.367 1_455 S
C455 C463 1.425 1_545 S
C456 H452 0.929 1_655 S
C456 C458 1.378 1_554 S
C456 C460 1.350 . S
C457 C460 1.463 . S
C457 C462 1.350 1_565 S
C457 N465 1.427 1_655 S
C458 H449 0.930 . S
C458 C456 1.378 1_556 S
C458 C459 1.367 . S
C459 C458 1.367 . S
C459 C461 1.433 . S
C460 C456 1.350 . S
C460 C457 1.463 . S
C460 N464 1.427 . S
C461 H451 0.929 . S
C461 C459 1.433 . S
C461 N464 1.384 1_556 S
C462 H453 0.929 . S
C462 C454 1.378 . S
C462 C457 1.350 1_545 S
C463 H450 0.931 . S
C463 C455 1.425 1_565 S
C463 N465 1.390 . S
N464 C460 1.427 . S
N464 C461 1.384 1_554 S
N465 C457 1.427 1_455 S
N465 C463 1.390 . S
H466 C472 0.930 . S
H467 C476 0.930 . S
H468 C481 0.929 . S
H469 C479 0.929 . S
H470 C474 0.929 . S
H471 C480 0.929 . S
C472 H466 0.930 . S
C472 C473 1.367 . S
C472 C480 1.378 . S
C473 C472 1.367 . S
C473 C481 1.433 . S
C474 H470 0.929 . S
C474 C476 1.378 . S
C474 C478 1.350 . S
C475 C478 1.463 . S
C475 C480 1.350 . S
C475 N483 1.427 . S
C476 H467 0.930 . S
C476 C474 1.378 . S
C476 C477 1.367 . S
C477 C476 1.367 . S
C477 C479 1.433 . S
C478 C474 1.350 . S
C478 C475 1.463 . S
C478 N482 1.427 . S
C479 H469 0.929 . S
C479 C477 1.433 . S
C479 N482 1.384 . S
C480 H471 0.929 . S
C480 C472 1.378 . S
C480 C475 1.350 . S
C481 H468 0.929 . S
C481 C473 1.433 . S
C481 N483 1.384 . S
N482 C478 1.427 . S
N482 C479 1.384 . S
N483 C475 1.427 . S
N483 C481 1.384 . S
H484 C490 0.930 . S
H485 C494 0.930 . S
H486 C499 0.929 . S
H487 C497 0.929 . S
H488 C492 0.929 . S
H489 C498 0.929 . S
C490 H484 0.930 . S
C490 C491 1.367 . S
C490 C498 1.378 1_565 S
C491 C490 1.367 . S
C491 C499 1.433 . S
C492 H488 0.929 . S
C492 C494 1.378 . S
C492 C496 1.350 . S
C493 C496 1.463 . S
C493 C498 1.350 . S
C493 N501 1.427 1_545 S
C494 H485 0.930 . S
C494 C492 1.378 . S
C494 C495 1.367 . S
C495 C494 1.367 . S
C495 C497 1.433 . S
C496 C492 1.350 . S
C496 C493 1.463 . S
C496 N500 1.427 . S
C497 H487 0.929 . S
C497 C495 1.433 . S
C497 N500 1.384 . S
C498 H489 0.929 . S
C498 C490 1.378 1_545 S
C498 C493 1.350 . S
C499 H486 0.929 . S
C499 C491 1.433 . S
C499 N501 1.384 . S
N500 C496 1.427 . S
N500 C497 1.384 . S
N501 C493 1.427 1_565 S
N501 C499 1.384 . S
H502 C508 0.930 . S
H503 C512 0.930 . S
H504 C517 0.929 . S
H505 C515 0.929 . S
H506 C510 0.929 . S
H507 C516 0.929 . S
C508 H502 0.930 . S
C508 C509 1.367 . S
C508 C516 1.378 . S
C509 C508 1.367 . S
C509 C517 1.433 . S
C510 H506 0.929 . S
C510 C512 1.378 . S
C510 C514 1.350 . S
C511 C514 1.463 . S
C511 C516 1.350 . S
C511 N519 1.427 . S
C512 H503 0.930 . S
C512 C510 1.378 . S
C512 C513 1.367 . S
C513 C512 1.367 . S
C513 C515 1.433 . S
C514 C510 1.350 . S
C514 C511 1.463 . S
C514 N518 1.427 . S
C515 H505 0.929 . S
C515 C513 1.433 . S
C515 N518 1.384 . S
C516 H507 0.929 . S
C516 C508 1.378 . S
C516 C511 1.350 . S
C517 H504 0.929 . S
C517 C509 1.433 . S
C517 N519 1.384 . S
N518 C514 1.427 . S
N518 C515 1.384 . S
N519 C511 1.427 . S
N519 C517 1.384 . S
H520 C526 0.930 . S
H521 C530 0.930 . S
H522 C535 0.929 . S
H523 C533 0.929 . S
H524 C528 0.928 1_545 S
H525 C534 0.929 . S
C526 H520 0.930 . S
C526 C527 1.367 1_655 S
C526 C534 1.378 . S
C527 C526 1.367 1_455 S
C527 C535 1.433 . S
C528 H524 0.928 1_565 S
C528 C530 1.378 1_565 S
C528 C532 1.350 . S
C529 C532 1.463 . S
C529 C534 1.350 . S
C529 N537 1.427 1_655 S
C530 H521 0.930 . S
C530 C528 1.378 1_545 S
C530 C531 1.367 . S
C531 C530 1.367 . S
C531 C533 1.433 1_545 S
C532 C528 1.350 . S
C532 C529 1.463 . S
C532 N536 1.427 . S
C533 H523 0.929 . S
C533 C531 1.433 1_565 S
C533 N536 1.384 . S
C534 H525 0.929 . S
C534 C526 1.378 . S
C534 C529 1.350 . S
C535 H522 0.929 . S
C535 C527 1.433 . S
C535 N537 1.384 . S
N536 C532 1.427 . S
N536 C533 1.384 . S
N537 C529 1.427 1_455 S
N537 C535 1.384 . S
H538 C544 0.930 . S
H539 C548 0.930 . S
H540 C553 0.929 . S
H541 C551 0.929 . S
H542 C546 0.929 . S
H543 C552 0.929 . S
C544 H538 0.930 . S
C544 C545 1.367 . S
C544 C552 1.378 . S
C545 C544 1.367 . S
C545 C553 1.433 . S
C546 H542 0.929 . S
C546 C548 1.378 . S
C546 C550 1.350 . S
C547 C550 1.463 . S
C547 C552 1.350 . S
C547 N555 1.427 . S
C548 H539 0.930 . S
C548 C546 1.378 . S
C548 C549 1.367 . S
C549 C548 1.367 . S
C549 C551 1.433 . S
C550 C546 1.350 . S
C550 C547 1.463 . S
C550 N554 1.427 . S
C551 H541 0.929 . S
C551 C549 1.433 . S
C551 N554 1.384 . S
C552 H543 0.929 . S
C552 C544 1.378 . S
C552 C547 1.350 . S
C553 H540 0.929 . S
C553 C545 1.433 . S
C553 N555 1.384 . S
N554 C550 1.427 . S
N554 C551 1.384 . S
N555 C547 1.427 . S
N555 C553 1.384 . S
H556 C562 0.930 . S
H557 C566 0.930 . S
H558 C571 0.929 1_554 S
H559 C569 0.929 . S
H560 C564 0.929 . S
H561 C570 0.921 1_565 S
C562 H556 0.930 . S
C562 C563 1.367 . S
C562 C570 1.378 . S
C563 C562 1.367 . S
C563 C571 1.433 . S
C564 H560 0.929 . S
C564 C566 1.378 . S
C564 C568 1.350 . S
C565 C568 1.463 1_556 S
C565 C570 1.350 . S
C565 N573 1.427 1_556 S
C566 H557 0.930 . S
C566 C564 1.378 . S
C566 C567 1.367 1_545 S
C567 C566 1.367 1_565 S
C567 C569 1.433 . S
C568 C564 1.350 . S
C568 C565 1.463 1_554 S
C568 N572 1.427 1_545 S
C569 H559 0.929 . S
C569 C567 1.433 . S
C569 N572 1.384 . S
C570 H561 0.921 1_545 S
C570 C562 1.378 . S
C570 C565 1.350 . S
C571 H558 0.929 1_556 S
C571 C563 1.433 . S
C571 N573 1.384 1_556 S
N572 C568 1.427 1_565 S
N572 C569 1.384 . S
N573 C565 1.427 1_554 S
N573 C571 1.384 1_554 S
H574 C580 0.930 . S
H575 C584 0.930 . S
H576 C589 0.929 . S
H577 C587 0.929 . S
H578 C582 0.929 . S
H579 C588 0.929 . S
C580 H574 0.930 . S
C580 C581 1.367 . S
C580 C588 1.378 . S
C581 C580 1.367 . S
C581 C589 1.433 . S
C582 H578 0.929 . S
C582 C584 1.378 . S
C582 C586 1.350 . S
C583 C586 1.463 . S
C583 C588 1.350 . S
C583 N591 1.427 . S
C584 H575 0.930 . S
C584 C582 1.378 . S
C584 C585 1.367 . S
C585 C584 1.367 . S
C585 C587 1.433 . S
C586 C582 1.350 . S
C586 C583 1.463 . S
C586 N590 1.427 . S
C587 H577 0.929 . S
C587 C585 1.433 . S
C587 N590 1.384 . S
C588 H579 0.929 . S
C588 C580 1.378 . S
C588 C583 1.350 . S
C589 H576 0.929 . S
C589 C581 1.433 . S
C589 N591 1.384 . S
N590 C586 1.427 . S
N590 C587 1.384 . S
N591 C583 1.427 . S
N591 C589 1.384 . S
H592 C598 0.930 . S
H593 C602 0.930 . S
H594 C607 0.929 . S
H595 C605 0.929 . S
H596 C600 0.929 . S
H597 C606 0.929 . S
C598 H592 0.930 . S
C598 C599 1.367 . S
C598 C606 1.378 1_554 S
C599 C598 1.367 . S
C599 C607 1.433 . S
C600 H596 0.929 . S
C600 C602 1.378 . S
C600 C604 1.350 . S
C601 C604 1.451 1_554 S
C601 C606 1.349 1_554 S
C601 N609 1.440 . S
C602 H593 0.930 . S
C602 C600 1.378 . S
C602 C603 1.367 . S
C603 C602 1.367 . S
C603 C605 1.433 . S
C604 C600 1.350 . S
C604 C601 1.451 1_556 S
C604 N608 1.427 . S
C605 H595 0.929 . S
C605 C603 1.433 . S
C605 N608 1.384 . S
C606 H597 0.929 . S
C606 C598 1.378 1_556 S
C606 C601 1.349 1_556 S
C607 H594 0.929 . S
C607 C599 1.433 . S
C607 N609 1.384 . S
N608 C604 1.427 . S
N608 C605 1.384 . S
N609 C601 1.440 . S
N609 C607 1.384 . S
H610 C616 0.930 . S
H611 C620 0.930 . S
H612 C625 0.929 . S
H613 C623 0.929 . S
H614 C618 0.929 . S
H615 C624 0.929 . S
C616 H610 0.930 . S
C616 C617 1.367 . S
C616 C624 1.378 . S
C617 C616 1.367 . S
C617 C625 1.433 . S
C618 H614 0.929 . S
C618 C620 1.378 . S
C618 C622 1.350 . S
C619 C622 1.463 . S
C619 C624 1.350 . S
C619 N627 1.427 . S
C620 H611 0.930 . S
C620 C618 1.378 . S
C620 C621 1.367 . S
C621 C620 1.367 . S
C621 C623 1.433 . S
C622 C618 1.350 . S
C622 C619 1.463 . S
C622 N626 1.427 . S
C623 H613 0.929 . S
C623 C621 1.433 . S
C623 N626 1.384 . S
C624 H615 0.929 . S
C624 C616 1.378 . S
C624 C619 1.350 . S
C625 H612 0.929 . S
C625 C617 1.433 . S
C625 N627 1.384 . S
N626 C622 1.427 . S
N626 C623 1.384 . S
N627 C619 1.427 . S
N627 C625 1.384 . S
H628 C634 0.930 . S
H629 C638 0.930 . S
H630 C643 0.929 . S
H631 C641 0.929 . S
H632 C636 0.929 . S
H633 C642 0.929 . S
C634 H628 0.930 . S
C634 C635 1.367 . S
C634 C642 1.378 . S
C635 C634 1.367 . S
C635 C643 1.433 . S
C636 H632 0.929 . S
C636 C638 1.378 . S
C636 C640 1.350 . S
C637 C640 1.463 1_455 S
C637 C642 1.350 . S
C637 N645 1.427 . S
C638 H629 0.930 . S
C638 C636 1.378 . S
C638 C639 1.367 . S
C639 C638 1.367 . S
C639 C641 1.433 . S
C640 C636 1.350 . S
C640 C637 1.463 1_655 S
C640 N644 1.427 . S
C641 H631 0.929 . S
C641 C639 1.433 . S
C641 N644 1.384 . S
C642 H633 0.929 . S
C642 C634 1.378 . S
C642 C637 1.350 . S
C643 H630 0.929 . S
C643 C635 1.433 . S
C643 N645 1.384 . S
N644 C640 1.427 . S
N644 C641 1.384 . S
N645 C637 1.427 . S
N645 C643 1.384 . S
H646 C652 0.930 . S
H647 C656 0.930 . S
H648 C661 0.929 . S
H649 C659 0.929 . S
H650 C654 0.929 . S
H651 C660 0.929 . S
C652 H646 0.930 . S
C652 C653 1.367 . S
C652 C660 1.378 . S
C653 C652 1.367 . S
C653 C661 1.433 . S
C654 H650 0.929 . S
C654 C656 1.378 . S
C654 C658 1.350 . S
C655 C658 1.463 . S
C655 C660 1.350 . S
C655 N663 1.427 . S
C656 H647 0.930 . S
C656 C654 1.378 . S
C656 C657 1.367 . S
C657 C656 1.367 . S
C657 C659 1.433 . S
C658 C654 1.350 . S
C658 C655 1.463 . S
C658 N662 1.427 . S
C659 H649 0.929 . S
C659 C657 1.433 . S
C659 N662 1.384 . S
C660 H651 0.929 . S
C660 C652 1.378 . S
C660 C655 1.350 . S
C661 H648 0.929 . S
C661 C653 1.433 . S
C661 N663 1.384 . S
N662 C658 1.427 . S
N662 C659 1.384 . S
N663 C655 1.427 . S
N663 C661 1.384 . S
H664 C670 0.930 . S
H665 C674 0.930 . S
H666 C679 0.929 . S
H667 C677 0.929 . S
H668 C672 0.929 . S
H669 C678 0.929 . S
C670 H664 0.930 . S
C670 C671 1.367 . S
C670 C678 1.378 . S
C671 C670 1.367 . S
C671 C679 1.433 . S
C672 H668 0.929 . S
C672 C674 1.378 . S
C672 C676 1.350 . S
C673 C676 1.463 . S
C673 C678 1.350 . S
C673 N681 1.427 . S
C674 H665 0.930 . S
C674 C672 1.378 . S
C674 C675 1.367 . S
C675 C674 1.367 . S
C675 C677 1.433 . S
C676 C672 1.350 . S
C676 C673 1.463 . S
C676 N680 1.427 . S
C677 H667 0.929 . S
C677 C675 1.433 . S
C677 N680 1.384 . S
C678 H669 0.929 . S
C678 C670 1.378 . S
C678 C673 1.350 . S
C679 H666 0.929 . S
C679 C671 1.433 . S
C679 N681 1.384 . S
N680 C676 1.427 . S
N680 C677 1.384 . S
N681 C673 1.427 . S
N681 C679 1.384 . S
H682 C688 0.930 . S
H683 C692 0.930 . S
H684 C697 0.929 . S
H685 C695 0.929 . S
H686 C690 0.929 . S
H687 C696 0.929 . S
C688 H682 0.930 . S
C688 C689 1.367 . S
C688 C696 1.378 . S
C689 C688 1.367 . S
C689 C697 1.433 . S
C690 H686 0.929 . S
C690 C692 1.378 . S
C690 C694 1.350 . S
C691 C694 1.463 . S
C691 C696 1.350 . S
C691 N699 1.427 . S
C692 H683 0.930 . S
C692 C690 1.378 . S
C692 C693 1.367 . S
C693 C692 1.367 . S
C693 C695 1.433 . S
C694 C690 1.350 . S
C694 C691 1.463 . S
C694 N698 1.427 . S
C695 H685 0.929 . S
C695 C693 1.433 . S
C695 N698 1.384 . S
C696 H687 0.929 . S
C696 C688 1.378 . S
C696 C691 1.350 . S
C697 H684 0.929 . S
C697 C689 1.433 . S
C697 N699 1.384 . S
N698 C694 1.427 . S
N698 C695 1.384 . S
N699 C691 1.427 . S
N699 C697 1.384 . S
H700 C706 0.930 . S
H701 C710 0.930 . S
H702 C715 0.929 . S
H703 C713 0.929 . S
H704 C708 0.929 . S
H705 C714 0.929 . S
C706 H700 0.930 . S
C706 C707 1.367 . S
C706 C714 1.378 . S
C707 C706 1.367 . S
C707 C715 1.433 . S
C708 H704 0.929 . S
C708 C710 1.378 . S
C708 C712 1.350 . S
C709 C712 1.463 . S
C709 C714 1.350 . S
C709 N717 1.427 . S
C710 H701 0.930 . S
C710 C708 1.378 . S
C710 C711 1.367 . S
C711 C710 1.367 . S
C711 C713 1.433 . S
C712 C708 1.350 . S
C712 C709 1.463 . S
C712 N716 1.427 . S
C713 H703 0.929 . S
C713 C711 1.433 . S
C713 N716 1.384 . S
C714 H705 0.929 . S
C714 C706 1.378 . S
C714 C709 1.350 . S
C715 H702 0.929 . S
C715 C707 1.433 . S
C715 N717 1.384 . S
N716 C712 1.427 . S
N716 C713 1.384 . S
N717 C709 1.427 . S
N717 C715 1.384 . S
H718 C724 0.930 . S
H719 C728 0.930 . S
H720 C733 0.929 . S
H721 C731 0.929 . S
H722 C726 0.929 . S
H723 C732 0.929 . S
C724 H718 0.930 . S
C724 C725 1.367 . S
C724 C732 1.378 1_556 S
C725 C724 1.367 . S
C725 C733 1.433 . S
C726 H722 0.929 . S
C726 C728 1.378 . S
C726 C730 1.350 1_655 S
C727 C730 1.463 . S
C727 C732 1.350 . S
C727 N735 1.427 . S
C728 H719 0.930 . S
C728 C726 1.378 . S
C728 C729 1.367 . S
C729 C728 1.367 . S
C729 C731 1.433 1_655 S
C730 C726 1.350 1_455 S
C730 C727 1.463 . S
C730 N734 1.427 . S
C731 H721 0.929 . S
C731 C729 1.433 1_455 S
C731 N734 1.384 . S
C732 H723 0.929 . S
C732 C724 1.378 1_554 S
C732 C727 1.350 . S
C733 H720 0.929 . S
C733 C725 1.433 . S
C733 N735 1.384 1_556 S
N734 C730 1.427 . S
N734 C731 1.384 . S
N735 C727 1.427 . S
N735 C733 1.384 1_554 S
H736 C742 0.930 . S
H737 C746 0.930 . S
H738 C751 0.929 . S
H739 C749 0.929 . S
H740 C744 0.929 . S
H741 C750 0.929 . S
C742 H736 0.930 . S
C742 C743 1.367 1_565 S
C742 C750 1.378 . S
C743 C742 1.367 1_545 S
C743 C751 1.433 . S
C744 H740 0.929 . S
C744 C746 1.378 . S
C744 C748 1.350 . S
C745 C748 1.463 . S
C745 C750 1.350 . S
C745 N753 1.427 . S
C746 H737 0.930 . S
C746 C744 1.378 . S
C746 C747 1.367 . S
C747 C746 1.367 . S
C747 C749 1.433 . S
C748 C744 1.350 . S
C748 C745 1.463 . S
C748 N752 1.427 . S
C749 H739 0.929 . S
C749 C747 1.433 . S
C749 N752 1.384 . S
C750 H741 0.929 . S
C750 C742 1.378 . S
C750 C745 1.350 . S
C751 H738 0.929 . S
C751 C743 1.433 . S
C751 N753 1.384 1_545 S
N752 C748 1.427 . S
N752 C749 1.384 . S
N753 C745 1.427 . S
N753 C751 1.384 1_565 S
H754 C760 0.930 . S
H755 C764 0.930 . S
H756 C769 0.929 . S
H757 C767 0.929 . S
H758 C762 0.929 . S
H759 C768 0.929 . S
C760 H754 0.930 . S
C760 C761 1.367 . S
C760 C768 1.378 . S
C761 C760 1.367 . S
C761 C769 1.433 . S
C762 H758 0.929 . S
C762 C764 1.378 . S
C762 C766 1.350 . S
C763 C766 1.463 . S
C763 C768 1.350 . S
C763 N771 1.427 . S
C764 H755 0.930 . S
C764 C762 1.378 . S
C764 C765 1.367 . S
C765 C764 1.367 . S
C765 C767 1.433 . S
C766 C762 1.350 . S
C766 C763 1.463 . S
C766 N770 1.427 . S
C767 H757 0.929 . S
C767 C765 1.433 . S
C767 N770 1.384 . S
C768 H759 0.929 . S
C768 C760 1.378 . S
C768 C763 1.350 . S
C769 H756 0.929 . S
C769 C761 1.433 . S
C769 N771 1.384 . S
N770 C766 1.427 . S
N770 C767 1.384 . S
N771 C763 1.427 . S
N771 C769 1.384 . S
H772 C778 0.930 . S
H773 C782 0.930 . S
H774 C787 0.929 . S
H775 C785 0.928 1_565 S
H776 C780 0.929 . S
H777 C786 0.929 . S
C778 H772 0.930 . S
C778 C779 1.367 . S
C778 C786 1.378 . S
C779 C778 1.367 . S
C779 C787 1.433 . S
C780 H776 0.929 . S
C780 C782 1.378 1_545 S
C780 C784 1.350 . S
C781 C784 1.463 . S
C781 C786 1.350 . S
C781 N789 1.427 . S
C782 H773 0.930 . S
C782 C780 1.378 1_565 S
C782 C783 1.367 . S
C783 C782 1.367 . S
C783 C785 1.432 1_565 S
C784 C780 1.350 . S
C784 C781 1.463 . S
C784 N788 1.427 . S
C785 H775 0.928 1_545 S
C785 C783 1.432 1_545 S
C785 N788 1.386 . S
C786 H777 0.929 . S
C786 C778 1.378 . S
C786 C781 1.350 . S
C787 H774 0.929 . S
C787 C779 1.433 . S
C787 N789 1.384 . S
N788 C784 1.427 . S
N788 C785 1.386 . S
N789 C781 1.427 . S
N789 C787 1.384 . S
H790 C796 0.930 . S
H791 C800 0.930 . S
H792 C805 0.929 . S
H793 C803 0.929 . S
H794 C798 0.937 . S
H795 C804 0.929 . S
C796 H790 0.930 . S
C796 C797 1.367 . S
C796 C804 1.378 . S
C797 C796 1.367 . S
C797 C805 1.433 . S
C798 H794 0.937 . S
C798 C800 1.378 . S
C798 C802 1.350 1_554 S
C799 C802 1.463 . S
C799 C804 1.350 . S
C799 N807 1.427 . S
C800 H791 0.930 . S
C800 C798 1.378 . S
C800 C801 1.367 . S
C801 C800 1.367 . S
C801 C803 1.433 . S
C802 C798 1.350 1_556 S
C802 C799 1.463 . S
C802 N806 1.427 . S
C803 H793 0.929 . S
C803 C801 1.433 . S
C803 N806 1.384 1_554 S
C804 H795 0.929 . S
C804 C796 1.378 . S
C804 C799 1.350 . S
C805 H792 0.929 . S
C805 C797 1.433 . S
C805 N807 1.384 . S
N806 C802 1.427 . S
N806 C803 1.384 1_556 S
N807 C799 1.427 . S
N807 C805 1.384 . S
H808 C814 0.930 . S
H809 C818 0.930 . S
H810 C823 0.929 . S
H811 C821 0.929 . S
H812 C816 0.929 . S
H813 C822 0.929 . S
C814 H808 0.930 . S
C814 C815 1.367 . S
C814 C822 1.378 . S
C815 C814 1.367 . S
C815 C823 1.433 . S
C816 H812 0.929 . S
C816 C818 1.378 1_545 S
C816 C820 1.350 . S
C817 C820 1.463 . S
C817 C822 1.350 . S
C817 N825 1.427 . S
C818 H809 0.930 . S
C818 C816 1.378 1_565 S
C818 C819 1.367 . S
C819 C818 1.367 . S
C819 C821 1.433 . S
C820 C816 1.350 . S
C820 C817 1.463 . S
C820 N824 1.427 1_545 S
C821 H811 0.929 . S
C821 C819 1.433 . S
C821 N824 1.384 . S
C822 H813 0.929 . S
C822 C814 1.378 . S
C822 C817 1.350 . S
C823 H810 0.929 . S
C823 C815 1.433 . S
C823 N825 1.384 . S
N824 C820 1.427 1_565 S
N824 C821 1.384 . S
N825 C817 1.427 . S
N825 C823 1.384 . S
H826 C832 0.930 . S
H827 C836 0.930 . S
H828 C841 0.929 . S
H829 C839 0.929 . S
H830 C834 0.929 . S
H831 C840 0.929 . S
C832 H826 0.930 . S
C832 C833 1.367 . S
C832 C840 1.378 . S
C833 C832 1.367 . S
C833 C841 1.433 . S
C834 H830 0.929 . S
C834 C836 1.378 . S
C834 C838 1.350 . S
C835 C838 1.463 . S
C835 C840 1.350 . S
C835 N843 1.427 . S
C836 H827 0.930 . S
C836 C834 1.378 . S
C836 C837 1.367 . S
C837 C836 1.367 . S
C837 C839 1.433 . S
C838 C834 1.350 . S
C838 C835 1.463 . S
C838 N842 1.427 . S
C839 H829 0.929 . S
C839 C837 1.433 . S
C839 N842 1.384 . S
C840 H831 0.929 . S
C840 C832 1.378 . S
C840 C835 1.350 . S
C841 H828 0.929 . S
C841 C833 1.433 . S
C841 N843 1.384 . S
N842 C838 1.427 . S
N842 C839 1.384 . S
N843 C835 1.427 . S
N843 C841 1.384 . S
H844 C850 0.930 . S
H845 C854 0.930 . S
H846 C859 0.929 . S
H847 C857 0.929 . S
H848 C852 0.929 . S
H849 C858 0.934 . S
C850 H844 0.930 . S
C850 C851 1.367 . S
C850 C858 1.370 1_545 S
C851 C850 1.367 . S
C851 C859 1.433 . S
C852 H848 0.929 . S
C852 C854 1.378 . S
C852 C856 1.350 . S
C853 C856 1.463 . S
C853 C858 1.352 . S
C853 N861 1.427 1_565 S
C854 H845 0.930 . S
C854 C852 1.378 . S
C854 C855 1.367 . S
C855 C854 1.367 . S
C855 C857 1.433 . S
C856 C852 1.350 . S
C856 C853 1.463 . S
C856 N860 1.427 . S
C857 H847 0.929 . S
C857 C855 1.433 . S
C857 N860 1.384 . S
C858 H849 0.934 . S
C858 C850 1.370 1_565 S
C858 C853 1.352 . S
C859 H846 0.929 . S
C859 C851 1.433 . S
C859 N861 1.384 . S
N860 C856 1.427 . S
N860 C857 1.384 . S
N861 C853 1.427 1_545 S
N861 C859 1.384 . S
H862 C868 0.930 . S
H863 C872 0.930 . S
H864 C877 0.929 . S
H865 C875 0.929 . S
H866 C870 0.929 . S
H867 C876 0.929 . S
C868 H862 0.930 . S
C868 C869 1.367 . S
C868 C876 1.378 . S
C869 C868 1.367 . S
C869 C877 1.433 . S
C870 H866 0.929 . S
C870 C872 1.378 . S
C870 C874 1.350 . S
C871 C874 1.448 1_556 S
C871 C876 1.368 . S
C871 N879 1.423 1_556 S
C872 H863 0.930 . S
C872 C870 1.378 . S
C872 C873 1.367 . S
C873 C872 1.367 . S
C873 C875 1.433 . S
C874 C870 1.350 . S
C874 C871 1.448 1_554 S
C874 N878 1.427 . S
C875 H865 0.929 . S
C875 C873 1.433 . S
C875 N878 1.384 . S
C876 H867 0.929 . S
C876 C868 1.378 . S
C876 C871 1.368 . S
C877 H864 0.929 . S
C877 C869 1.433 . S
C877 N879 1.384 1_556 S
N878 C874 1.427 . S
N878 C875 1.384 . S
N879 C871 1.423 1_554 S
N879 C877 1.384 1_554 S
H880 C886 0.930 . S
H881 C890 0.930 . S
H882 C895 0.929 . S
H883 C893 0.929 1_455 S
H884 C888 0.929 . S
H885 C894 0.929 . S
C886 H880 0.930 . S
C886 C887 1.367 . S
C886 C894 1.378 . S
C887 C886 1.367 . S
C887 C895 1.433 . S
C888 H884 0.929 . S
C888 C890 1.378 . S
C888 C892 1.350 . S
C889 C892 1.463 . S
C889 C894 1.350 . S
C889 N897 1.427 . S
C890 H881 0.930 . S
C890 C888 1.378 . S
C890 C891 1.367 . S
C891 C890 1.367 . S
C891 C893 1.433 . S
C892 C888 1.350 . S
C892 C889 1.463 . S
C892 N896 1.427 . S
C893 H883 0.929 1_655 S
C893 C891 1.433 . S
C893 N896 1.384 . S
C894 H885 0.929 . S
C894 C886 1.378 . S
C894 C889 1.350 . S
C895 H882 0.929 . S
C895 C887 1.433 . S
C895 N897 1.384 . S
N896 C892 1.427 . S
N896 C893 1.384 . S
N897 C889 1.427 . S
N897 C895 1.384 . S
H898 C904 0.930 . S
H899 C908 0.930 . S
H900 C913 0.929 . S
H901 C911 0.929 . S
H902 C906 0.929 . S
H903 C912 0.929 . S
C904 H898 0.930 . S
C904 C905 1.367 . S
C904 C912 1.378 . S
C905 C904 1.367 . S
C905 C913 1.433 . S
C906 H902 0.929 . S
C906 C908 1.378 . S
C906 C910 1.350 . S
C907 C910 1.463 . S
C907 C912 1.350 . S
C907 N915 1.427 . S
C908 H899 0.930 . S
C908 C906 1.378 . S
C908 C909 1.367 . S
C909 C908 1.367 . S
C909 C911 1.433 . S
C910 C906 1.350 . S
C910 C907 1.463 . S
C910 N914 1.427 . S
C911 H901 0.929 . S
C911 C909 1.433 . S
C911 N914 1.384 . S
C912 H903 0.929 . S
C912 C904 1.378 . S
C912 C907 1.350 . S
C913 H900 0.929 . S
C913 C905 1.433 . S
C913 N915 1.384 . S
N914 C910 1.427 . S
N914 C911 1.384 . S
N915 C907 1.427 . S
N915 C913 1.384 . S
H916 C922 0.930 . S
H917 C926 0.930 . S
H918 C931 0.929 . S
H919 C929 0.929 . S
H920 C924 0.929 . S
H921 C930 0.929 . S
C922 H916 0.930 . S
C922 C923 1.367 . S
C922 C930 1.378 1_655 S
C923 C922 1.367 . S
C923 C931 1.433 . S
C924 H920 0.929 . S
C924 C926 1.378 . S
C924 C928 1.350 . S
C925 C928 1.460 . S
C925 C930 1.349 . S
C925 N933 1.431 1_455 S
C926 H917 0.930 . S
C926 C924 1.378 . S
C926 C927 1.367 . S
C927 C926 1.367 . S
C927 C929 1.433 . S
C928 C924 1.350 . S
C928 C925 1.460 . S
C928 N932 1.427 . S
C929 H919 0.929 . S
C929 C927 1.433 . S
C929 N932 1.384 . S
C930 H921 0.929 . S
C930 C922 1.378 1_455 S
C930 C925 1.349 . S
C931 H918 0.929 . S
C931 C923 1.433 . S
C931 N933 1.384 . S
N932 C928 1.427 . S
N932 C929 1.384 . S
N933 C925 1.431 1_655 S
N933 C931 1.384 . S
H934 C940 0.930 . S
H935 C944 0.930 . S
H936 C949 0.929 . S
H937 C947 0.929 . S
H938 C942 0.929 . S
H939 C948 0.929 . S
C940 H934 0.930 . S
C940 C941 1.367 . S
C940 C948 1.378 . S
C941 C940 1.367 . S
C941 C949 1.433 . S
C942 H938 0.929 . S
C942 C944 1.378 . S
C942 C946 1.350 . S
C943 C946 1.463 . S
C943 C948 1.350 . S
C943 N951 1.427 . S
C944 H935 0.930 . S
C944 C942 1.378 . S
C944 C945 1.367 . S
C945 C944 1.367 . S
C945 C947 1.433 . S
C946 C942 1.350 . S
C946 C943 1.463 . S
C946 N950 1.427 . S
C947 H937 0.929 . S
C947 C945 1.433 . S
C947 N950 1.384 . S
C948 H939 0.929 . S
C948 C940 1.378 . S
C948 C943 1.350 . S
C949 H936 0.929 . S
C949 C941 1.433 . S
C949 N951 1.384 . S
N950 C946 1.427 . S
N950 C947 1.384 . S
N951 C943 1.427 . S
N951 C949 1.384 . S
H952 C958 0.930 . S
H953 C962 0.930 . S
H954 C967 0.929 . S
H955 C965 0.929 . S
H956 C960 0.929 . S
H957 C966 0.929 . S
C958 H952 0.930 . S
C958 C959 1.367 . S
C958 C966 1.378 . S
C959 C958 1.367 . S
C959 C967 1.433 . S
C960 H956 0.929 . S
C960 C962 1.378 . S
C960 C964 1.350 . S
C961 C964 1.463 . S
C961 C966 1.350 . S
C961 N969 1.427 . S
C962 H953 0.930 . S
C962 C960 1.378 . S
C962 C963 1.367 . S
C963 C962 1.367 . S
C963 C965 1.433 . S
C964 C960 1.350 . S
C964 C961 1.463 . S
C964 N968 1.427 . S
C965 H955 0.929 . S
C965 C963 1.433 . S
C965 N968 1.384 . S
C966 H957 0.929 . S
C966 C958 1.378 . S
C966 C961 1.350 . S
C967 H954 0.929 . S
C967 C959 1.433 . S
C967 N969 1.384 . S
N968 C964 1.427 . S
N968 C965 1.384 . S
N969 C961 1.427 . S
N969 C967 1.384 . S
H970 C976 0.930 . S
H971 C980 0.930 . S
H972 C985 0.929 . S
H973 C983 0.929 . S
H974 C978 0.929 . S
H975 C984 0.929 . S
C976 H970 0.930 . S
C976 C977 1.367 . S
C976 C984 1.378 . S
C977 C976 1.367 . S
C977 C985 1.433 . S
C978 H974 0.929 . S
C978 C980 1.378 . S
C978 C982 1.350 . S
C979 C982 1.463 . S
C979 C984 1.350 . S
C979 N987 1.427 . S
C980 H971 0.930 . S
C980 C978 1.378 . S
C980 C981 1.367 1_655 S
C981 C980 1.367 1_455 S
C981 C983 1.433 . S
C982 C978 1.350 . S
C982 C979 1.463 . S
C982 N986 1.427 1_655 S
C983 H973 0.929 . S
C983 C981 1.433 . S
C983 N986 1.384 . S
C984 H975 0.929 . S
C984 C976 1.378 . S
C984 C979 1.350 . S
C985 H972 0.929 . S
C985 C977 1.433 . S
C985 N987 1.384 . S
N986 C982 1.427 1_455 S
N986 C983 1.384 . S
N987 C979 1.427 . S
N987 C985 1.384 . S
H988 C994 0.930 . S
H989 C998 0.930 . S
H990 C1003 0.929 . S
H991 C1001 0.929 . S
H992 C996 0.929 . S
H993 C1002 0.929 . S
C994 H988 0.930 . S
C994 C995 1.367 . S
C994 C1002 1.378 . S
C995 C994 1.367 . S
C995 C1003 1.433 . S
C996 H992 0.929 . S
C996 C998 1.378 . S
C996 C1000 1.350 . S
C997 C1000 1.463 . S
C997 C1002 1.350 . S
C997 N1005 1.427 . S
C998 H989 0.930 . S
C998 C996 1.378 . S
C998 C999 1.367 . S
C999 C998 1.367 . S
C999 C1001 1.433 . S
C1000 C996 1.350 . S
C1000 C997 1.463 . S
C1000 N1004 1.427 . S
C1001 H991 0.929 . S
C1001 C999 1.433 . S
C1001 N1004 1.384 . S
C1002 H993 0.929 . S
C1002 C994 1.378 . S
C1002 C997 1.350 . S
C1003 H990 0.929 . S
C1003 C995 1.433 . S
C1003 N1005 1.384 . S
N1004 C1000 1.427 . S
N1004 C1001 1.384 . S
N1005 C997 1.427 . S
N1005 C1003 1.384 . S
H1006 C1012 0.930 . S
H1007 C1016 0.930 . S
H1008 C1021 0.929 . S
H1009 C1019 0.929 . S
H1010 C1014 0.923 1_545 S
H1011 C1020 0.929 . S
C1012 H1006 0.930 . S
C1012 C1013 1.367 . S
C1012 C1020 1.378 . S
C1013 C1012 1.367 . S
C1013 C1021 1.433 . S
C1014 H1010 0.923 1_565 S
C1014 C1016 1.383 . S
C1014 C1018 1.350 1_565 S
C1015 C1018 1.463 . S
C1015 C1020 1.350 . S
C1015 N1023 1.427 . S
C1016 H1007 0.930 . S
C1016 C1014 1.383 . S
C1016 C1017 1.367 . S
C1017 C1016 1.367 . S
C1017 C1019 1.433 . S
C1018 C1014 1.350 1_545 S
C1018 C1015 1.463 . S
C1018 N1022 1.426 1_545 S
C1019 H1009 0.929 . S
C1019 C1017 1.433 . S
C1019 N1022 1.384 . S
C1020 H1011 0.929 . S
C1020 C1012 1.378 . S
C1020 C1015 1.350 . S
C1021 H1008 0.929 . S
C1021 C1013 1.433 . S
C1021 N1023 1.384 . S
N1022 C1018 1.426 1_565 S
N1022 C1019 1.384 . S
N1023 C1015 1.427 . S
N1023 C1021 1.384 . S
H1024 C1030 0.930 . S
H1025 C1034 0.930 . S
H1026 C1039 0.929 . S
H1027 C1037 0.929 . S
H1028 C1032 0.929 . S
H1029 C1038 0.929 . S
C1030 H1024 0.930 . S
C1030 C1031 1.367 . S
C1030 C1038 1.378 . S
C1031 C1030 1.367 . S
C1031 C1039 1.433 . S
C1032 H1028 0.929 . S
C1032 C1034 1.378 . S
C1032 C1036 1.350 . S
C1033 C1036 1.463 . S
C1033 C1038 1.350 . S
C1033 N1041 1.427 . S
C1034 H1025 0.930 . S
C1034 C1032 1.378 . S
C1034 C1035 1.367 . S
C1035 C1034 1.367 . S
C1035 C1037 1.433 . S
C1036 C1032 1.350 . S
C1036 C1033 1.463 . S
C1036 N1040 1.427 . S
C1037 H1027 0.929 . S
C1037 C1035 1.433 . S
C1037 N1040 1.384 . S
C1038 H1029 0.929 . S
C1038 C1030 1.378 . S
C1038 C1033 1.350 . S
C1039 H1026 0.929 . S
C1039 C1031 1.433 . S
C1039 N1041 1.384 . S
N1040 C1036 1.427 . S
N1040 C1037 1.384 . S
N1041 C1033 1.427 . S
N1041 C1039 1.384 . S
H1042 C1048 0.930 . S
H1043 C1052 0.930 . S
H1044 C1057 0.929 . S
H1045 C1055 0.929 . S
H1046 C1050 0.929 . S
H1047 C1056 0.901 1_545 S
C1048 H1042 0.930 . S
C1048 C1049 1.367 . S
C1048 C1056 1.378 . S
C1049 C1048 1.367 . S
C1049 C1057 1.433 . S
C1050 H1046 0.929 . S
C1050 C1052 1.378 1_565 S
C1050 C1054 1.350 . S
C1051 C1054 1.463 . S
C1051 C1056 1.350 . S
C1051 N1059 1.427 . S
C1052 H1043 0.930 . S
C1052 C1050 1.378 1_545 S
C1052 C1053 1.367 . S
C1053 C1052 1.367 . S
C1053 C1055 1.433 . S
C1054 C1050 1.350 . S
C1054 C1051 1.463 . S
C1054 N1058 1.427 1_565 S
C1055 H1045 0.929 . S
C1055 C1053 1.433 . S
C1055 N1058 1.384 . S
C1056 H1047 0.901 1_565 S
C1056 C1048 1.378 . S
C1056 C1051 1.350 . S
C1057 H1044 0.929 . S
C1057 C1049 1.433 . S
C1057 N1059 1.384 . S
N1058 C1054 1.427 1_545 S
N1058 C1055 1.384 . S
N1059 C1051 1.427 . S
N1059 C1057 1.384 . S
H1060 C1066 0.930 . S
H1061 C1070 0.930 . S
H1062 C1075 0.929 . S
H1063 C1073 0.929 . S
H1064 C1068 0.929 . S
H1065 C1074 0.929 . S
C1066 H1060 0.930 . S
C1066 C1067 1.367 . S
C1066 C1074 1.378 1_556 S
C1067 C1066 1.367 . S
C1067 C1075 1.433 . S
C1068 H1064 0.929 . S
C1068 C1070 1.378 . S
C1068 C1072 1.350 . S
C1069 C1072 1.463 . S
C1069 C1074 1.350 . S
C1069 N1077 1.427 . S
C1070 H1061 0.930 . S
C1070 C1068 1.378 . S
C1070 C1071 1.367 . S
C1071 C1070 1.367 . S
C1071 C1073 1.433 . S
C1072 C1068 1.350 . S
C1072 C1069 1.463 . S
C1072 N1076 1.427 . S
C1073 H1063 0.929 . S
C1073 C1071 1.433 . S
C1073 N1076 1.384 . S
C1074 H1065 0.929 . S
C1074 C1066 1.378 1_554 S
C1074 C1069 1.350 . S
C1075 H1062 0.929 . S
C1075 C1067 1.433 . S
C1075 N1077 1.384 1_556 S
N1076 C1072 1.427 . S
N1076 C1073 1.384 . S
N1077 C1069 1.427 . S
N1077 C1075 1.384 1_554 S
H1078 C1084 0.930 . S
H1079 C1088 0.930 . S
H1080 C1093 0.929 . S
H1081 C1091 0.929 . S
H1082 C1086 0.929 . S
H1083 C1092 0.929 . S
C1084 H1078 0.930 . S
C1084 C1085 1.367 . S
C1084 C1092 1.378 1_545 S
C1085 C1084 1.367 . S
C1085 C1093 1.433 . S
C1086 H1082 0.929 . S
C1086 C1088 1.378 . S
C1086 C1090 1.350 . S
C1087 C1090 1.463 . S
C1087 C1092 1.350 . S
C1087 N1095 1.427 . S
C1088 H1079 0.930 . S
C1088 C1086 1.378 . S
C1088 C1089 1.367 . S
C1089 C1088 1.367 . S
C1089 C1091 1.433 . S
C1090 C1086 1.350 . S
C1090 C1087 1.463 . S
C1090 N1094 1.427 . S
C1091 H1081 0.929 . S
C1091 C1089 1.433 . S
C1091 N1094 1.384 . S
C1092 H1083 0.929 . S
C1092 C1084 1.378 1_565 S
C1092 C1087 1.350 . S
C1093 H1080 0.929 . S
C1093 C1085 1.433 . S
C1093 N1095 1.384 1_545 S
N1094 C1090 1.427 . S
N1094 C1091 1.384 . S
N1095 C1087 1.427 . S
N1095 C1093 1.384 1_565 S
H1096 C1102 0.930 . S
H1097 C1106 0.930 . S
H1098 C1111 0.929 . S
H1099 C1109 0.929 . S
H1100 C1104 0.929 . S
H1101 C1110 0.929 . S
C1102 H1096 0.930 . S
C1102 C1103 1.367 . S
C1102 C1110 1.378 . S
C1103 C1102 1.367 . S
C1103 C1111 1.433 . S
C1104 H1100 0.929 . S
C1104 C1106 1.378 . S
C1104 C1108 1.350 . S
C1105 C1108 1.463 . S
C1105 C1110 1.350 . S
C1105 N1113 1.427 . S
C1106 H1097 0.930 . S
C1106 C1104 1.378 . S
C1106 C1107 1.367 . S
C1107 C1106 1.367 . S
C1107 C1109 1.433 . S
C1108 C1104 1.350 . S
C1108 C1105 1.463 . S
C1108 N1112 1.427 . S
C1109 H1099 0.929 . S
C1109 C1107 1.433 . S
C1109 N1112 1.384 . S
C1110 H1101 0.929 . S
C1110 C1102 1.378 . S
C1110 C1105 1.350 . S
C1111 H1098 0.929 . S
C1111 C1103 1.433 . S
C1111 N1113 1.384 . S
N1112 C1108 1.427 . S
N1112 C1109 1.384 . S
N1113 C1105 1.427 . S
N1113 C1111 1.384 . S
H1114 C1120 0.930 . S
H1115 C1124 0.930 . S
H1116 C1129 0.929 . S
H1117 C1127 0.929 . S
H1118 C1122 0.929 . S
H1119 C1128 0.929 . S
C1120 H1114 0.930 . S
C1120 C1121 1.367 . S
C1120 C1128 1.378 . S
C1121 C1120 1.367 . S
C1121 C1129 1.433 1_565 S
C1122 H1118 0.929 . S
C1122 C1124 1.378 . S
C1122 C1126 1.350 . S
C1123 C1126 1.463 . S
C1123 C1128 1.350 1_545 S
C1123 N1131 1.427 . S
C1124 H1115 0.930 . S
C1124 C1122 1.378 . S
C1124 C1125 1.367 . S
C1125 C1124 1.367 . S
C1125 C1127 1.433 . S
C1126 C1122 1.350 . S
C1126 C1123 1.463 . S
C1126 N1130 1.427 . S
C1127 H1117 0.929 . S
C1127 C1125 1.433 . S
C1127 N1130 1.384 . S
C1128 H1119 0.929 . S
C1128 C1120 1.378 . S
C1128 C1123 1.350 1_565 S
C1129 H1116 0.929 . S
C1129 C1121 1.433 1_545 S
C1129 N1131 1.384 . S
N1130 C1126 1.427 . S
N1130 C1127 1.384 . S
N1131 C1123 1.427 . S
N1131 C1129 1.384 . S
H1132 C1138 0.930 . S
H1133 C1142 0.930 . S
H1134 C1147 0.929 . S
H1135 C1145 0.929 . S
H1136 C1140 0.929 . S
H1137 C1146 0.929 1_556 S
C1138 H1132 0.930 . S
C1138 C1139 1.367 . S
C1138 C1146 1.378 . S
C1139 C1138 1.367 . S
C1139 C1147 1.433 . S
C1140 H1136 0.929 . S
C1140 C1142 1.378 . S
C1140 C1144 1.350 . S
C1141 C1144 1.463 . S
C1141 C1146 1.350 1_556 S
C1141 N1149 1.427 1_556 S
C1142 H1133 0.930 . S
C1142 C1140 1.378 . S
C1142 C1143 1.367 . S
C1143 C1142 1.367 . S
C1143 C1145 1.433 . S
C1144 C1140 1.350 . S
C1144 C1141 1.463 . S
C1144 N1148 1.427 . S
C1145 H1135 0.929 . S
C1145 C1143 1.433 . S
C1145 N1148 1.384 . S
C1146 H1137 0.929 1_554 S
C1146 C1138 1.378 . S
C1146 C1141 1.350 1_554 S
C1147 H1134 0.929 . S
C1147 C1139 1.433 . S
C1147 N1149 1.384 . S
N1148 C1144 1.427 . S
N1148 C1145 1.384 . S
N1149 C1141 1.427 1_554 S
N1149 C1147 1.384 . S
H1150 C1156 0.930 . S
H1151 C1160 0.930 . S
H1152 C1165 0.927 1_655 S
H1153 C1163 0.929 . S
H1154 C1158 0.929 . S
H1155 C1164 0.929 . S
C1156 H1150 0.930 . S
C1156 C1157 1.367 . S
C1156 C1164 1.378 1_655 S
C1157 C1156 1.367 . S
C1157 C1165 1.433 1_655 S
C1158 H1154 0.929 . S
C1158 C1160 1.378 . S
C1158 C1162 1.350 . S
C1159 C1162 1.463 . S
C1159 C1164 1.350 . S
C1159 N1167 1.427 . S
C1160 H1151 0.930 . S
C1160 C1158 1.378 . S
C1160 C1161 1.367 . S
C1161 C1160 1.367 . S
C1161 C1163 1.433 . S
C1162 C1158 1.350 . S
C1162 C1159 1.463 . S
C1162 N1166 1.427 . S
C1163 H1153 0.929 . S
C1163 C1161 1.433 . S
C1163 N1166 1.384 . S
C1164 H1155 0.929 . S
C1164 C1156 1.378 1_455 S
C1164 C1159 1.350 . S
C1165 H1152 0.927 1_455 S
C1165 C1157 1.433 1_455 S
C1165 N1167 1.384 . S
N1166 C1162 1.427 . S
N1166 C1163 1.384 . S
N1167 C1159 1.427 . S
N1167 C1165 1.384 . S
H1168 C1174 0.930 . S
H1169 C1178 0.930 . S
H1170 C1183 0.929 . S
H1171 C1181 0.929 . S
H1172 C1176 0.929 . S
H1173 C1182 0.929 . S
C1174 H1168 0.930 . S
C1174 C1175 1.367 . S
C1174 C1182 1.378 . S
C1175 C1174 1.367 . S
C1175 C1183 1.433 . S
C1176 H1172 0.929 . S
C1176 C1178 1.378 . S
C1176 C1180 1.350 . S
C1177 C1180 1.463 . S
C1177 C1182 1.350 . S
C1177 N1185 1.427 . S
C1178 H1169 0.930 . S
C1178 C1176 1.378 . S
C1178 C1179 1.367 . S
C1179 C1178 1.367 . S
C1179 C1181 1.433 . S
C1180 C1176 1.350 . S
C1180 C1177 1.463 . S
C1180 N1184 1.427 . S
C1181 H1171 0.929 . S
C1181 C1179 1.433 . S
C1181 N1184 1.384 . S
C1182 H1173 0.929 . S
C1182 C1174 1.378 . S
C1182 C1177 1.350 . S
C1183 H1170 0.929 . S
C1183 C1175 1.433 . S
C1183 N1185 1.384 . S
N1184 C1180 1.427 . S
N1184 C1181 1.384 . S
N1185 C1177 1.427 . S
N1185 C1183 1.384 . S
H1186 C1192 0.930 . S
H1187 C1196 0.930 . S
H1188 C1201 0.929 . S
H1189 C1199 0.929 . S
H1190 C1194 0.929 . S
H1191 C1200 0.929 . S
C1192 H1186 0.930 . S
C1192 C1193 1.367 . S
C1192 C1200 1.378 1_455 S
C1193 C1192 1.367 . S
C1193 C1201 1.433 . S
C1194 H1190 0.929 . S
C1194 C1196 1.378 . S
C1194 C1198 1.350 . S
C1195 C1198 1.463 . S
C1195 C1200 1.350 . S
C1195 N1203 1.427 1_655 S
C1196 H1187 0.930 . S
C1196 C1194 1.378 . S
C1196 C1197 1.367 . S
C1197 C1196 1.367 . S
C1197 C1199 1.433 . S
C1198 C1194 1.350 . S
C1198 C1195 1.463 . S
C1198 N1202 1.427 . S
C1199 H1189 0.929 . S
C1199 C1197 1.433 . S
C1199 N1202 1.384 . S
C1200 H1191 0.929 . S
C1200 C1192 1.378 1_655 S
C1200 C1195 1.350 . S
C1201 H1188 0.929 . S
C1201 C1193 1.433 . S
C1201 N1203 1.384 . S
N1202 C1198 1.427 . S
N1202 C1199 1.384 . S
N1203 C1195 1.427 1_455 S
N1203 C1201 1.384 . S
H1204 C1210 0.930 . S
H1205 C1214 0.930 . S
H1206 C1219 0.929 . S
H1207 C1217 0.929 . S
H1208 C1212 0.929 . S
H1209 C1218 0.929 . S
C1210 H1204 0.930 . S
C1210 C1211 1.367 . S
C1210 C1218 1.378 1_455 S
C1211 C1210 1.367 . S
C1211 C1219 1.433 1_455 S
C1212 H1208 0.929 . S
C1212 C1214 1.378 . S
C1212 C1216 1.350 . S
C1213 C1216 1.463 . S
C1213 C1218 1.350 . S
C1213 N1221 1.427 . S
C1214 H1205 0.930 . S
C1214 C1212 1.378 . S
C1214 C1215 1.367 . S
C1215 C1214 1.367 . S
C1215 C1217 1.433 . S
C1216 C1212 1.350 . S
C1216 C1213 1.463 . S
C1216 N1220 1.427 . S
C1217 H1207 0.929 . S
C1217 C1215 1.433 . S
C1217 N1220 1.384 . S
C1218 H1209 0.929 . S
C1218 C1210 1.378 1_655 S
C1218 C1213 1.350 . S
C1219 H1206 0.929 . S
C1219 C1211 1.433 1_655 S
C1219 N1221 1.384 . S
N1220 C1216 1.427 . S
N1220 C1217 1.384 . S
N1221 C1213 1.427 . S
N1221 C1219 1.384 . S
H1222 C1228 0.930 . S
H1223 C1232 0.930 . S
H1224 C1237 0.929 . S
H1225 C1235 0.929 . S
H1226 C1230 0.929 . S
H1227 C1236 0.929 . S
C1228 H1222 0.930 . S
C1228 C1229 1.367 . S
C1228 C1236 1.378 . S
C1229 C1228 1.367 . S
C1229 C1237 1.433 . S
C1230 H1226 0.929 . S
C1230 C1232 1.378 . S
C1230 C1234 1.350 . S
C1231 C1234 1.463 . S
C1231 C1236 1.350 . S
C1231 N1239 1.427 . S
C1232 H1223 0.930 . S
C1232 C1230 1.378 . S
C1232 C1233 1.367 . S
C1233 C1232 1.367 . S
C1233 C1235 1.433 . S
C1234 C1230 1.350 . S
C1234 C1231 1.463 . S
C1234 N1238 1.427 . S
C1235 H1225 0.929 . S
C1235 C1233 1.433 . S
C1235 N1238 1.384 . S
C1236 H1227 0.929 . S
C1236 C1228 1.378 . S
C1236 C1231 1.350 . S
C1237 H1224 0.929 . S
C1237 C1229 1.433 . S
C1237 N1239 1.384 . S
N1238 C1234 1.427 . S
N1238 C1235 1.384 . S
N1239 C1231 1.427 . S
N1239 C1237 1.384 . S
H1240 C1246 0.930 . S
H1241 C1250 0.930 . S
H1242 C1255 0.929 . S
H1243 C1253 0.929 . S
H1244 C1248 0.929 . S
H1245 C1254 0.929 . S
C1246 H1240 0.930 . S
C1246 C1247 1.367 . S
C1246 C1254 1.378 . S
C1247 C1246 1.367 . S
C1247 C1255 1.433 . S
C1248 H1244 0.929 . S
C1248 C1250 1.378 . S
C1248 C1252 1.350 . S
C1249 C1252 1.463 1_655 S
C1249 C1254 1.350 . S
C1249 N1257 1.427 . S
C1250 H1241 0.930 . S
C1250 C1248 1.378 . S
C1250 C1251 1.367 . S
C1251 C1250 1.367 . S
C1251 C1253 1.433 . S
C1252 C1248 1.350 . S
C1252 C1249 1.463 1_455 S
C1252 N1256 1.427 . S
C1253 H1243 0.929 . S
C1253 C1251 1.433 . S
C1253 N1256 1.384 . S
C1254 H1245 0.929 . S
C1254 C1246 1.378 . S
C1254 C1249 1.350 . S
C1255 H1242 0.929 . S
C1255 C1247 1.433 . S
C1255 N1257 1.384 . S
N1256 C1252 1.427 . S
N1256 C1253 1.384 . S
N1257 C1249 1.427 . S
N1257 C1255 1.384 . S
H1258 C1264 0.930 . S
H1259 C1268 0.930 . S
H1260 C1273 0.929 . S
H1261 C1271 0.929 . S
H1262 C1266 0.929 . S
H1263 C1272 0.929 . S
C1264 H1258 0.930 . S
C1264 C1265 1.367 . S
C1264 C1272 1.378 . S
C1265 C1264 1.367 . S
C1265 C1273 1.433 . S
C1266 H1262 0.929 . S
C1266 C1268 1.378 . S
C1266 C1270 1.350 . S
C1267 C1270 1.463 . S
C1267 C1272 1.350 . S
C1267 N1275 1.427 . S
C1268 H1259 0.930 . S
C1268 C1266 1.378 . S
C1268 C1269 1.367 . S
C1269 C1268 1.367 . S
C1269 C1271 1.433 . S
C1270 C1266 1.350 . S
C1270 C1267 1.463 . S
C1270 N1274 1.427 . S
C1271 H1261 0.929 . S
C1271 C1269 1.433 . S
C1271 N1274 1.384 . S
C1272 H1263 0.929 . S
C1272 C1264 1.378 . S
C1272 C1267 1.350 . S
C1273 H1260 0.929 . S
C1273 C1265 1.433 . S
C1273 N1275 1.384 . S
N1274 C1270 1.427 . S
N1274 C1271 1.384 . S
N1275 C1267 1.427 . S
N1275 C1273 1.384 . S
H1276 C1282 0.930 . S
H1277 C1286 0.930 . S
H1278 C1291 0.929 . S
H1279 C1289 0.929 . S
H1280 C1284 0.929 . S
H1281 C1290 0.929 . S
C1282 H1276 0.930 . S
C1282 C1283 1.367 . S
C1282 C1290 1.378 . S
C1283 C1282 1.367 . S
C1283 C1291 1.433 . S
C1284 H1280 0.929 . S
C1284 C1286 1.378 . S
C1284 C1288 1.350 . S
C1285 C1288 1.463 . S
C1285 C1290 1.350 . S
C1285 N1293 1.427 . S
C1286 H1277 0.930 . S
C1286 C1284 1.378 . S
C1286 C1287 1.367 . S
C1287 C1286 1.367 . S
C1287 C1289 1.433 . S
C1288 C1284 1.350 . S
C1288 C1285 1.463 . S
C1288 N1292 1.427 . S
C1289 H1279 0.929 . S
C1289 C1287 1.433 . S
C1289 N1292 1.384 . S
C1290 H1281 0.929 . S
C1290 C1282 1.378 . S
C1290 C1285 1.350 . S
C1291 H1278 0.929 . S
C1291 C1283 1.433 . S
C1291 N1293 1.384 . S
N1292 C1288 1.427 . S
N1292 C1289 1.384 . S
N1293 C1285 1.427 . S
N1293 C1291 1.384 . S
H1294 C1300 0.930 . S
H1295 C1304 0.930 . S
H1296 C1309 0.929 . S
H1297 C1307 0.929 . S
H1298 C1302 0.929 . S
H1299 C1308 0.929 . S
C1300 H1294 0.930 . S
C1300 C1301 1.367 . S
C1300 C1308 1.378 1_554 S
C1301 C1300 1.367 . S
C1301 C1309 1.433 . S
C1302 H1298 0.929 . S
C1302 C1304 1.378 . S
C1302 C1306 1.350 . S
C1303 C1306 1.463 . S
C1303 C1308 1.350 . S
C1303 N1311 1.427 1_556 S
C1304 H1295 0.930 . S
C1304 C1302 1.378 . S
C1304 C1305 1.367 . S
C1305 C1304 1.367 . S
C1305 C1307 1.433 . S
C1306 C1302 1.350 . S
C1306 C1303 1.463 . S
C1306 N1310 1.427 . S
C1307 H1297 0.929 . S
C1307 C1305 1.433 . S
C1307 N1310 1.384 . S
C1308 H1299 0.929 . S
C1308 C1300 1.378 1_556 S
C1308 C1303 1.350 . S
C1309 H1296 0.929 . S
C1309 C1301 1.433 . S
C1309 N1311 1.384 . S
N1310 C1306 1.427 . S
N1310 C1307 1.384 . S
N1311 C1303 1.427 1_554 S
N1311 C1309 1.384 . S
H1312 C1318 0.930 . S
H1313 C1322 0.930 . S
H1314 C1327 0.929 . S
H1315 C1325 0.929 . S
H1316 C1320 0.929 . S
H1317 C1326 0.929 . S
C1318 H1312 0.930 . S
C1318 C1319 1.367 . S
C1318 C1326 1.378 . S
C1319 C1318 1.367 . S
C1319 C1327 1.433 . S
C1320 H1316 0.929 . S
C1320 C1322 1.378 . S
C1320 C1324 1.350 . S
C1321 C1324 1.463 . S
C1321 C1326 1.350 . S
C1321 N1329 1.427 . S
C1322 H1313 0.930 . S
C1322 C1320 1.378 . S
C1322 C1323 1.367 . S
C1323 C1322 1.367 . S
C1323 C1325 1.433 . S
C1324 C1320 1.350 . S
C1324 C1321 1.463 . S
C1324 N1328 1.427 . S
C1325 H1315 0.929 . S
C1325 C1323 1.433 . S
C1325 N1328 1.384 . S
C1326 H1317 0.929 . S
C1326 C1318 1.378 . S
C1326 C1321 1.350 . S
C1327 H1314 0.929 . S
C1327 C1319 1.433 . S
C1327 N1329 1.384 . S
N1328 C1324 1.427 . S
N1328 C1325 1.384 . S
N1329 C1321 1.427 . S
N1329 C1327 1.384 . S
H1330 C1336 0.930 . S
H1331 C1340 0.930 . S
H1332 C1345 0.929 . S
H1333 C1343 0.929 . S
H1334 C1338 0.929 . S
H1335 C1344 0.929 . S
C1336 H1330 0.930 . S
C1336 C1337 1.367 . S
C1336 C1344 1.378 . S
C1337 C1336 1.367 . S
C1337 C1345 1.433 . S
C1338 H1334 0.929 . S
C1338 C1340 1.378 . S
C1338 C1342 1.350 . S
C1339 C1342 1.463 . S
C1339 C1344 1.350 . S
C1339 N1347 1.427 . S
C1340 H1331 0.930 . S
C1340 C1338 1.378 . S
C1340 C1341 1.367 . S
C1341 C1340 1.367 . S
C1341 C1343 1.433 . S
C1342 C1338 1.350 . S
C1342 C1339 1.463 . S
C1342 N1346 1.427 . S
C1343 H1333 0.929 . S
C1343 C1341 1.433 . S
C1343 N1346 1.384 . S
C1344 H1335 0.929 . S
C1344 C1336 1.378 . S
C1344 C1339 1.350 . S
C1345 H1332 0.929 . S
C1345 C1337 1.433 . S
C1345 N1347 1.384 . S
N1346 C1342 1.427 . S
N1346 C1343 1.384 . S
N1347 C1339 1.427 . S
N1347 C1345 1.384 . S
H1348 C1354 0.930 . S
H1349 C1358 0.930 . S
H1350 C1363 0.929 . S
H1351 C1361 0.929 . S
H1352 C1356 0.929 . S
H1353 C1362 0.929 . S
C1354 H1348 0.930 . S
C1354 C1355 1.367 . S
C1354 C1362 1.378 . S
C1355 C1354 1.367 . S
C1355 C1363 1.433 . S
C1356 H1352 0.929 . S
C1356 C1358 1.378 . S
C1356 C1360 1.350 . S
C1357 C1360 1.463 . S
C1357 C1362 1.350 . S
C1357 N1365 1.427 . S
C1358 H1349 0.930 . S
C1358 C1356 1.378 . S
C1358 C1359 1.367 . S
C1359 C1358 1.367 . S
C1359 C1361 1.433 . S
C1360 C1356 1.350 . S
C1360 C1357 1.463 . S
C1360 N1364 1.427 . S
C1361 H1351 0.929 . S
C1361 C1359 1.433 . S
C1361 N1364 1.384 . S
C1362 H1353 0.929 . S
C1362 C1354 1.378 . S
C1362 C1357 1.350 . S
C1363 H1350 0.929 . S
C1363 C1355 1.433 . S
C1363 N1365 1.384 . S
N1364 C1360 1.427 . S
N1364 C1361 1.384 . S
N1365 C1357 1.427 . S
N1365 C1363 1.384 . S
H1366 C1372 0.930 . S
H1367 C1376 0.930 . S
H1368 C1381 0.929 . S
H1369 C1379 0.929 . S
H1370 C1374 0.929 . S
H1371 C1380 0.929 . S
C1372 H1366 0.930 . S
C1372 C1373 1.367 . S
C1372 C1380 1.378 1_554 S
C1373 C1372 1.367 . S
C1373 C1381 1.433 . S
C1374 H1370 0.929 . S
C1374 C1376 1.378 . S
C1374 C1378 1.350 . S
C1375 C1378 1.463 . S
C1375 C1380 1.350 . S
C1375 N1383 1.427 1_556 S
C1376 H1367 0.930 . S
C1376 C1374 1.378 . S
C1376 C1377 1.367 . S
C1377 C1376 1.367 . S
C1377 C1379 1.433 . S
C1378 C1374 1.350 . S
C1378 C1375 1.463 . S
C1378 N1382 1.427 . S
C1379 H1369 0.929 . S
C1379 C1377 1.433 . S
C1379 N1382 1.384 . S
C1380 H1371 0.929 . S
C1380 C1372 1.378 1_556 S
C1380 C1375 1.350 . S
C1381 H1368 0.929 . S
C1381 C1373 1.433 . S
C1381 N1383 1.384 . S
N1382 C1378 1.427 . S
N1382 C1379 1.384 . S
N1383 C1375 1.427 1_554 S
N1383 C1381 1.384 . S
H1384 C1390 0.930 . S
H1385 C1394 0.930 . S
H1386 C1399 0.929 . S
H1387 C1397 0.929 . S
H1388 C1392 0.929 . S
H1389 C1398 0.929 . S
C1390 H1384 0.930 . S
C1390 C1391 1.367 . S
C1390 C1398 1.378 . S
C1391 C1390 1.367 . S
C1391 C1399 1.433 . S
C1392 H1388 0.929 . S
C1392 C1394 1.378 . S
C1392 C1396 1.350 . S
C1393 C1396 1.463 . S
C1393 C1398 1.350 . S
C1393 N1401 1.427 . S
C1394 H1385 0.930 . S
C1394 C1392 1.378 . S
C1394 C1395 1.367 . S
C1395 C1394 1.367 . S
C1395 C1397 1.433 . S
C1396 C1392 1.350 . S
C1396 C1393 1.463 . S
C1396 N1400 1.427 . S
C1397 H1387 0.929 . S
C1397 C1395 1.433 . S
C1397 N1400 1.384 . S
C1398 H1389 0.929 . S
C1398 C1390 1.378 . S
C1398 C1393 1.350 . S
C1399 H1386 0.929 . S
C1399 C1391 1.433 . S
C1399 N1401 1.384 . S
N1400 C1396 1.427 . S
N1400 C1397 1.384 . S
N1401 C1393 1.427 . S
N1401 C1399 1.384 . S
H1402 C1408 0.930 . S
H1403 C1412 0.930 . S
H1404 C1417 0.929 . S
H1405 C1415 0.929 . S
H1406 C1410 0.929 . S
H1407 C1416 0.929 . S
C1408 H1402 0.930 . S
C1408 C1409 1.367 . S
C1408 C1416 1.378 . S
C1409 C1408 1.367 . S
C1409 C1417 1.433 . S
C1410 H1406 0.929 . S
C1410 C1412 1.378 . S
C1410 C1414 1.350 . S
C1411 C1414 1.463 . S
C1411 C1416 1.350 . S
C1411 N1419 1.427 . S
C1412 H1403 0.930 . S
C1412 C1410 1.378 . S
C1412 C1413 1.367 . S
C1413 C1412 1.367 . S
C1413 C1415 1.433 . S
C1414 C1410 1.350 . S
C1414 C1411 1.463 . S
C1414 N1418 1.427 . S
C1415 H1405 0.929 . S
C1415 C1413 1.433 . S
C1415 N1418 1.384 . S
C1416 H1407 0.929 . S
C1416 C1408 1.378 . S
C1416 C1411 1.350 . S
C1417 H1404 0.929 . S
C1417 C1409 1.433 . S
C1417 N1419 1.384 . S
N1418 C1414 1.427 . S
N1418 C1415 1.384 . S
N1419 C1411 1.427 . S
N1419 C1417 1.384 . S
H1420 C1426 0.930 . S
H1421 C1430 0.930 . S
H1422 C1435 0.929 . S
H1423 C1433 0.929 . S
H1424 C1428 0.929 . S
H1425 C1434 0.929 . S
C1426 H1420 0.930 . S
C1426 C1427 1.367 . S
C1426 C1434 1.378 . S
C1427 C1426 1.367 . S
C1427 C1435 1.433 . S
C1428 H1424 0.929 . S
C1428 C1430 1.378 . S
C1428 C1432 1.350 . S
C1429 C1432 1.463 . S
C1429 C1434 1.350 . S
C1429 N1437 1.427 . S
C1430 H1421 0.930 . S
C1430 C1428 1.378 . S
C1430 C1431 1.367 . S
C1431 C1430 1.367 . S
C1431 C1433 1.433 . S
C1432 C1428 1.350 . S
C1432 C1429 1.463 . S
C1432 N1436 1.427 . S
C1433 H1423 0.929 . S
C1433 C1431 1.433 . S
C1433 N1436 1.384 . S
C1434 H1425 0.929 . S
C1434 C1426 1.378 . S
C1434 C1429 1.350 . S
C1435 H1422 0.929 . S
C1435 C1427 1.433 . S
C1435 N1437 1.384 . S
N1436 C1432 1.427 . S
N1436 C1433 1.384 . S
N1437 C1429 1.427 . S
N1437 C1435 1.384 . S
H1438 C1444 0.930 . S
H1439 C1448 0.930 . S
H1440 C1453 0.929 . S
H1441 C1451 0.929 . S
H1442 C1446 0.929 . S
H1443 C1452 0.929 . S
C1444 H1438 0.930 . S
C1444 C1445 1.367 . S
C1444 C1452 1.378 . S
C1445 C1444 1.367 . S
C1445 C1453 1.433 . S
C1446 H1442 0.929 . S
C1446 C1448 1.378 . S
C1446 C1450 1.350 . S
C1447 C1450 1.463 . S
C1447 C1452 1.350 . S
C1447 N1455 1.427 . S
C1448 H1439 0.930 . S
C1448 C1446 1.378 . S
C1448 C1449 1.367 . S
C1449 C1448 1.367 . S
C1449 C1451 1.433 . S
C1450 C1446 1.350 . S
C1450 C1447 1.463 . S
C1450 N1454 1.427 . S
C1451 H1441 0.929 . S
C1451 C1449 1.433 . S
C1451 N1454 1.384 . S
C1452 H1443 0.929 . S
C1452 C1444 1.378 . S
C1452 C1447 1.350 . S
C1453 H1440 0.929 . S
C1453 C1445 1.433 . S
C1453 N1455 1.384 . S
N1454 C1450 1.427 . S
N1454 C1451 1.384 . S
N1455 C1447 1.427 . S
N1455 C1453 1.384 . S
H1456 C1462 0.930 . S
H1457 C1466 0.935 . S
H1458 C1471 0.929 . S
H1459 C1469 0.929 . S
H1460 C1464 0.929 . S
H1461 C1470 0.929 . S
C1462 H1456 0.930 . S
C1462 C1463 1.367 . S
C1462 C1470 1.378 . S
C1463 C1462 1.367 . S
C1463 C1471 1.433 . S
C1464 H1460 0.929 . S
C1464 C1466 1.358 1_554 S
C1464 C1468 1.350 . S
C1465 C1468 1.463 . S
C1465 C1470 1.350 . S
C1465 N1473 1.427 . S
C1466 H1457 0.935 . S
C1466 C1464 1.358 1_556 S
C1466 C1467 1.383 . S
C1467 C1466 1.383 . S
C1467 C1469 1.433 . S
C1468 C1464 1.350 . S
C1468 C1465 1.463 . S
C1468 N1472 1.427 . S
C1469 H1459 0.929 . S
C1469 C1467 1.433 . S
C1469 N1472 1.384 1_556 S
C1470 H1461 0.929 . S
C1470 C1462 1.378 . S
C1470 C1465 1.350 . S
C1471 H1458 0.929 . S
C1471 C1463 1.433 . S
C1471 N1473 1.384 . S
N1472 C1468 1.427 . S
N1472 C1469 1.384 1_554 S
N1473 C1465 1.427 . S
N1473 C1471 1.384 . S
H1474 C1480 0.930 . S
H1475 C1484 0.930 . S
H1476 C1489 0.929 . S
H1477 C1487 0.929 . S
H1478 C1482 0.929 . S
H1479 C1488 0.929 . S
C1480 H1474 0.930 . S
C1480 C1481 1.367 . S
C1480 C1488 1.378 . S
C1481 C1480 1.367 . S
C1481 C1489 1.433 . S
C1482 H1478 0.929 . S
C1482 C1484 1.378 . S
C1482 C1486 1.350 . S
C1483 C1486 1.463 . S
C1483 C1488 1.350 . S
C1483 N1491 1.427 . S
C1484 H1475 0.930 . S
C1484 C1482 1.378 . S
C1484 C1485 1.367 . S
C1485 C1484 1.367 . S
C1485 C1487 1.433 . S
C1486 C1482 1.350 . S
C1486 C1483 1.463 . S
C1486 N1490 1.427 . S
C1487 H1477 0.929 . S
C1487 C1485 1.433 . S
C1487 N1490 1.384 . S
C1488 H1479 0.929 . S
C1488 C1480 1.378 . S
C1488 C1483 1.350 . S
C1489 H1476 0.929 . S
C1489 C1481 1.433 . S
C1489 N1491 1.384 . S
N1490 C1486 1.427 . S
N1490 C1487 1.384 . S
N1491 C1483 1.427 . S
N1491 C1489 1.384 . S
H1492 C1498 0.930 . S
H1493 C1502 0.930 . S
H1494 C1507 0.929 . S
H1495 C1505 0.929 . S
H1496 C1500 0.929 . S
H1497 C1506 0.929 . S
C1498 H1492 0.930 . S
C1498 C1499 1.367 . S
C1498 C1506 1.378 . S
C1499 C1498 1.367 . S
C1499 C1507 1.433 . S
C1500 H1496 0.929 . S
C1500 C1502 1.378 . S
C1500 C1504 1.350 . S
C1501 C1504 1.463 . S
C1501 C1506 1.350 . S
C1501 N1509 1.427 . S
C1502 H1493 0.930 . S
C1502 C1500 1.378 . S
C1502 C1503 1.367 . S
C1503 C1502 1.367 . S
C1503 C1505 1.433 . S
C1504 C1500 1.350 . S
C1504 C1501 1.463 . S
C1504 N1508 1.427 . S
C1505 H1495 0.929 . S
C1505 C1503 1.433 . S
C1505 N1508 1.384 . S
C1506 H1497 0.929 . S
C1506 C1498 1.378 . S
C1506 C1501 1.350 . S
C1507 H1494 0.929 . S
C1507 C1499 1.433 . S
C1507 N1509 1.384 . S
N1508 C1504 1.427 . S
N1508 C1505 1.384 . S
N1509 C1501 1.427 . S
N1509 C1507 1.384 . S
H1510 C1516 0.930 . S
H1511 C1520 0.930 . S
H1512 C1525 0.929 . S
H1513 C1523 0.929 . S
H1514 C1518 0.929 . S
H1515 C1524 0.929 . S
C1516 H1510 0.930 . S
C1516 C1517 1.367 . S
C1516 C1524 1.378 . S
C1517 C1516 1.367 . S
C1517 C1525 1.433 . S
C1518 H1514 0.929 . S
C1518 C1520 1.378 . S
C1518 C1522 1.350 . S
C1519 C1522 1.463 . S
C1519 C1524 1.350 . S
C1519 N1527 1.427 . S
C1520 H1511 0.930 . S
C1520 C1518 1.378 . S
C1520 C1521 1.367 . S
C1521 C1520 1.367 . S
C1521 C1523 1.433 . S
C1522 C1518 1.350 . S
C1522 C1519 1.463 . S
C1522 N1526 1.427 . S
C1523 H1513 0.929 . S
C1523 C1521 1.433 . S
C1523 N1526 1.384 . S
C1524 H1515 0.929 . S
C1524 C1516 1.378 . S
C1524 C1519 1.350 . S
C1525 H1512 0.929 . S
C1525 C1517 1.433 . S
C1525 N1527 1.384 . S
N1526 C1522 1.427 . S
N1526 C1523 1.384 . S
N1527 C1519 1.427 . S
N1527 C1525 1.384 . S
H1528 C1534 0.930 . S
H1529 C1538 0.930 . S
H1530 C1543 0.929 . S
H1531 C1541 0.929 . S
H1532 C1536 0.929 . S
H1533 C1542 0.929 . S
C1534 H1528 0.930 . S
C1534 C1535 1.367 . S
C1534 C1542 1.378 1_554 S
C1535 C1534 1.367 . S
C1535 C1543 1.433 . S
C1536 H1532 0.929 . S
C1536 C1538 1.378 . S
C1536 C1540 1.350 . S
C1537 C1540 1.463 . S
C1537 C1542 1.350 . S
C1537 N1545 1.427 1_556 S
C1538 H1529 0.930 . S
C1538 C1536 1.378 . S
C1538 C1539 1.367 . S
C1539 C1538 1.367 . S
C1539 C1541 1.433 . S
C1540 C1536 1.350 . S
C1540 C1537 1.463 . S
C1540 N1544 1.427 . S
C1541 H1531 0.929 . S
C1541 C1539 1.433 . S
C1541 N1544 1.384 . S
C1542 H1533 0.929 . S
C1542 C1534 1.378 1_556 S
C1542 C1537 1.350 . S
C1543 H1530 0.929 . S
C1543 C1535 1.433 . S
C1543 N1545 1.384 . S
N1544 C1540 1.427 . S
N1544 C1541 1.384 . S
N1545 C1537 1.427 1_554 S
N1545 C1543 1.384 . S
H1546 C1552 0.930 . S
H1547 C1556 0.930 . S
H1548 C1561 0.929 . S
H1549 C1559 0.929 . S
H1550 C1554 0.929 . S
H1551 C1560 0.929 . S
C1552 H1546 0.930 . S
C1552 C1553 1.367 . S
C1552 C1560 1.378 . S
C1553 C1552 1.367 . S
C1553 C1561 1.433 . S
C1554 H1550 0.929 . S
C1554 C1556 1.378 . S
C1554 C1558 1.350 . S
C1555 C1558 1.463 . S
C1555 C1560 1.350 . S
C1555 N1563 1.427 . S
C1556 H1547 0.930 . S
C1556 C1554 1.378 . S
C1556 C1557 1.367 . S
C1557 C1556 1.367 . S
C1557 C1559 1.433 . S
C1558 C1554 1.350 . S
C1558 C1555 1.463 . S
C1558 N1562 1.427 . S
C1559 H1549 0.929 . S
C1559 C1557 1.433 . S
C1559 N1562 1.384 . S
C1560 H1551 0.929 . S
C1560 C1552 1.378 . S
C1560 C1555 1.350 . S
C1561 H1548 0.929 . S
C1561 C1553 1.433 . S
C1561 N1563 1.384 . S
N1562 C1558 1.427 . S
N1562 C1559 1.384 . S
N1563 C1555 1.427 . S
N1563 C1561 1.384 . S
H1564 C1570 0.930 . S
H1565 C1574 0.930 . S
H1566 C1579 0.929 . S
H1567 C1577 0.929 . S
H1568 C1572 0.929 . S
H1569 C1578 0.929 . S
C1570 H1564 0.930 . S
C1570 C1571 1.367 . S
C1570 C1578 1.378 . S
C1571 C1570 1.367 . S
C1571 C1579 1.433 . S
C1572 H1568 0.929 . S
C1572 C1574 1.378 . S
C1572 C1576 1.350 . S
C1573 C1576 1.463 . S
C1573 C1578 1.350 . S
C1573 N1581 1.427 . S
C1574 H1565 0.930 . S
C1574 C1572 1.378 . S
C1574 C1575 1.367 . S
C1575 C1574 1.367 . S
C1575 C1577 1.433 . S
C1576 C1572 1.350 . S
C1576 C1573 1.463 . S
C1576 N1580 1.427 . S
C1577 H1567 0.929 . S
C1577 C1575 1.433 . S
C1577 N1580 1.384 . S
C1578 H1569 0.929 . S
C1578 C1570 1.378 . S
C1578 C1573 1.350 . S
C1579 H1566 0.929 . S
C1579 C1571 1.433 . S
C1579 N1581 1.384 . S
N1580 C1576 1.427 . S
N1580 C1577 1.384 . S
N1581 C1573 1.427 . S
N1581 C1579 1.384 . S
H1582 C1588 0.930 . S
H1583 C1592 0.930 . S
H1584 C1597 0.929 . S
H1585 C1595 0.929 . S
H1586 C1590 0.929 . S
H1587 C1596 0.929 . S
C1588 H1582 0.930 . S
C1588 C1589 1.367 . S
C1588 C1596 1.378 . S
C1589 C1588 1.367 . S
C1589 C1597 1.433 . S
C1590 H1586 0.929 . S
C1590 C1592 1.378 . S
C1590 C1594 1.350 . S
C1591 C1594 1.463 . S
C1591 C1596 1.350 . S
C1591 N1599 1.427 . S
C1592 H1583 0.930 . S
C1592 C1590 1.378 . S
C1592 C1593 1.367 . S
C1593 C1592 1.367 . S
C1593 C1595 1.433 . S
C1594 C1590 1.350 . S
C1594 C1591 1.463 . S
C1594 N1598 1.427 . S
C1595 H1585 0.929 . S
C1595 C1593 1.433 . S
C1595 N1598 1.384 . S
C1596 H1587 0.929 . S
C1596 C1588 1.378 . S
C1596 C1591 1.350 . S
C1597 H1584 0.929 . S
C1597 C1589 1.433 . S
C1597 N1599 1.384 . S
N1598 C1594 1.427 . S
N1598 C1595 1.384 . S
N1599 C1591 1.427 . S
N1599 C1597 1.384 . S
C455 C9 0.419 . S
C459 C191 0.397 . S
C473 C359 1.626 . S
C477 C23 1.614 . S
C491 C37 0.380 . S
C495 C219 0.350 . S
C509 C51 1.648 . S
C513 C345 1.656 . S
C527 C65 2.385 . S
C531 C247 2.386 . S
C545 C79 1.597 . S
C549 C317 1.604 . S
C563 C93 2.284 . S
C567 C275 2.282 . S
C581 C443 0.808 . S
C585 C107 0.806 . S
C599 C303 2.384 . S
C603 C121 2.385 . S
C617 C135 1.594 . S
C621 C261 1.607 . S
C635 C331 2.282 . S
C639 C149 2.285 . S
C653 C163 1.642 . S
C657 C233 1.652 . S
C671 C205 1.624 . S
C675 C177 1.612 . S
C689 C289 0.807 . S
C693 C401 0.807 . S
C707 C415 0.396 . S
C711 C373 0.430 . S
C725 C429 0.346 . S
C729 C387 0.365 . S
C743 C8 1.565 . S
C747 C22 1.565 . S
C761 C34 1.703 . S
C765 C21 1.876 . S
C779 C50 1.668 . S
C783 C36 1.669 . S
C797 C49 1.526 . S
C801 C6 1.420 . S
C815 C105 1.952 . S
C819 C64 2.001 . S
C833 C76 1.213 . S
C837 C62 1.254 . S
C851 C91 1.729 . S
C855 C77 1.712 . S
C869 C92 1.499 . S
C873 C104 1.376 . S
C887 C134 1.796 . S
C891 C7 1.794 1_655 S
C905 C119 1.230 . S
C909 C48 1.150 . S
C923 C146 1.178 . S
C927 C20 1.183 . S
C941 C385 2.177 1_455 S
C945 C106 2.229 . S
C959 C400 2.229 . S
C963 C35 2.176 . S
C977 C160 1.154 . S
C981 C63 1.227 . S
C995 C90 1.193 . S
C999 C174 1.172 . S
C1013 C202 1.644 . S
C1017 C188 1.626 . S
C1031 C218 1.466 . S
C1035 C203 1.419 . S
C1049 C230 1.782 . S
C1053 C216 1.758 . S
C1067 C190 1.549 . S
C1071 C231 1.493 . S
C1085 C246 1.742 . S
C1089 C288 1.742 . S
C1103 C245 1.236 . S
C1107 C258 1.194 . S
C1121 C274 1.696 . S
C1125 C260 1.695 . S
C1139 C273 1.479 . S
C1143 C286 1.422 . S
C1157 C189 1.465 . S
C1161 C315 1.460 . S
C1175 C300 1.794 . S
C1179 C232 1.923 . S
C1193 C328 1.487 . S
C1197 C204 1.606 . S
C1211 C427 1.417 . S
C1215 C287 1.423 . S
C1229 C441 1.424 . S
C1233 C217 1.428 . S
C1247 C244 1.785 . S
C1251 C344 1.919 . S
C1265 C358 1.598 . S
C1269 C272 1.484 . S
C1283 C176 1.558 . S
C1287 C372 1.564 . S
C1301 C384 1.698 . S
C1305 C175 1.878 . S
C1319 C162 1.673 . S
C1323 C386 1.673 . S
C1337 C161 1.527 . S
C1341 C370 1.416 . S
C1355 C120 2.000 . S
C1359 C399 1.950 . S
C1373 C132 1.219 . S
C1377 C118 1.249 . S
C1391 C147 1.736 . S
C1395 C133 1.709 . S
C1409 C148 1.499 . S
C1413 C398 1.379 . S
C1427 C371 1.790 . S
C1431 C78 1.798 . S
C1445 C356 1.636 . S
C1449 C412 1.635 . S
C1463 C357 1.416 . S
C1467 C428 1.465 . S
C1481 C426 1.758 . S
C1485 C342 1.782 . S
C1499 C343 1.492 . S
C1503 C414 1.550 . S
C1517 C442 1.738 . S
C1521 C302 1.738 . S
C1535 C301 1.237 . S
C1539 C314 1.193 . S
C1553 C330 1.694 . S
C1557 C316 1.693 . S
C1571 C329 1.467 . S
C1575 C440 1.414 . S
C1589 C413 1.470 . S
C1593 C259 1.456 . S
