# Generated by pormake.
# Topology fcr, (5)-cn, num edge types: 1
# Building blocks:
#     Node 0, Type 0, BuildingBlock: XOMCOT_clean_sbu_0, # of connection points: 5
#     Node 1, Type 0, BuildingBlock: XOMCOT_clean_sbu_0, # of connection points: 5
#     Node 2, Type 0, BuildingBlock: XOMCOT_clean_sbu_0, # of connection points: 5
#     Node 3, Type 0, BuildingBlock: XOMCOT_clean_sbu_0, # of connection points: 5
#     Node 4, Type 0, BuildingBlock: XOMCOT_clean_sbu_0, # of connection points: 5
#     Node 5, Type 0, BuildingBlock: XOMCOT_clean_sbu_0, # of connection points: 5
#     Node 6, Type 0, BuildingBlock: XOMCOT_clean_sbu_0, # of connection points: 5
#     Node 7, Type 0, BuildingBlock: XOMCOT_clean_sbu_0, # of connection points: 5
#     Node 8, Type 0, BuildingBlock: XOMCOT_clean_sbu_0, # of connection points: 5
#     Node 9, Type 0, BuildingBlock: XOMCOT_clean_sbu_0, # of connection points: 5
#     Node 10, Type 0, BuildingBlock: XOMCOT_clean_sbu_0, # of connection points: 5
#     Node 11, Type 0, BuildingBlock: XOMCOT_clean_sbu_0, # of connection points: 5
#     Node 12, Type 0, BuildingBlock: XOMCOT_clean_sbu_0, # of connection points: 5
#     Node 13, Type 0, BuildingBlock: XOMCOT_clean_sbu_0, # of connection points: 5
#     Node 14, Type 0, BuildingBlock: XOMCOT_clean_sbu_0, # of connection points: 5
#     Node 15, Type 0, BuildingBlock: XOMCOT_clean_sbu_0, # of connection points: 5
#     Node 16, Type 0, BuildingBlock: XOMCOT_clean_sbu_0, # of connection points: 5
#     Node 17, Type 0, BuildingBlock: XOMCOT_clean_sbu_0, # of connection points: 5
#     Node 18, Type 0, BuildingBlock: XOMCOT_clean_sbu_0, # of connection points: 5
#     Node 19, Type 0, BuildingBlock: XOMCOT_clean_sbu_0, # of connection points: 5
#     Node 20, Type 0, BuildingBlock: XOMCOT_clean_sbu_0, # of connection points: 5
#     Node 21, Type 0, BuildingBlock: XOMCOT_clean_sbu_0, # of connection points: 5
#     Node 22, Type 0, BuildingBlock: XOMCOT_clean_sbu_0, # of connection points: 5
#     Node 23, Type 0, BuildingBlock: XOMCOT_clean_sbu_0, # of connection points: 5
#     Node 24, Type 0, BuildingBlock: XOMCOT_clean_sbu_0, # of connection points: 5
#     Node 25, Type 0, BuildingBlock: XOMCOT_clean_sbu_0, # of connection points: 5
#     Node 26, Type 0, BuildingBlock: XOMCOT_clean_sbu_0, # of connection points: 5
#     Node 27, Type 0, BuildingBlock: XOMCOT_clean_sbu_0, # of connection points: 5
#     Node 28, Type 0, BuildingBlock: XOMCOT_clean_sbu_0, # of connection points: 5
#     Node 29, Type 0, BuildingBlock: XOMCOT_clean_sbu_0, # of connection points: 5
#     Node 30, Type 0, BuildingBlock: XOMCOT_clean_sbu_0, # of connection points: 5
#     Node 31, Type 0, BuildingBlock: XOMCOT_clean_sbu_0, # of connection points: 5
#     Node 32, Type 0, BuildingBlock: XOMCOT_clean_sbu_0, # of connection points: 5
#     Node 33, Type 0, BuildingBlock: XOMCOT_clean_sbu_0, # of connection points: 5
#     Node 34, Type 0, BuildingBlock: XOMCOT_clean_sbu_0, # of connection points: 5
#     Node 35, Type 0, BuildingBlock: XOMCOT_clean_sbu_0, # of connection points: 5
#     Node 36, Type 0, BuildingBlock: XOMCOT_clean_sbu_0, # of connection points: 5
#     Node 37, Type 0, BuildingBlock: XOMCOT_clean_sbu_0, # of connection points: 5
#     Node 38, Type 0, BuildingBlock: XOMCOT_clean_sbu_0, # of connection points: 5
#     Node 39, Type 0, BuildingBlock: XOMCOT_clean_sbu_0, # of connection points: 5
#     Node 40, Type 0, BuildingBlock: XOMCOT_clean_sbu_0, # of connection points: 5
#     Node 41, Type 0, BuildingBlock: XOMCOT_clean_sbu_0, # of connection points: 5
#     Node 42, Type 0, BuildingBlock: XOMCOT_clean_sbu_0, # of connection points: 5
#     Node 43, Type 0, BuildingBlock: XOMCOT_clean_sbu_0, # of connection points: 5
#     Node 44, Type 0, BuildingBlock: XOMCOT_clean_sbu_0, # of connection points: 5
#     Node 45, Type 0, BuildingBlock: XOMCOT_clean_sbu_0, # of connection points: 5
#     Node 46, Type 0, BuildingBlock: XOMCOT_clean_sbu_0, # of connection points: 5
#     Node 47, Type 0, BuildingBlock: XOMCOT_clean_sbu_0, # of connection points: 5
#     Edge 48, Type (0, 0), BuildingBlock: OJICUG_clean_linker_0, # of connection points: 2
#     Edge 49, Type (0, 0), BuildingBlock: OJICUG_clean_linker_0, # of connection points: 2
#     Edge 50, Type (0, 0), BuildingBlock: OJICUG_clean_linker_0, # of connection points: 2
#     Edge 51, Type (0, 0), BuildingBlock: OJICUG_clean_linker_0, # of connection points: 2
#     Edge 52, Type (0, 0), BuildingBlock: OJICUG_clean_linker_0, # of connection points: 2
#     Edge 53, Type (0, 0), BuildingBlock: OJICUG_clean_linker_0, # of connection points: 2
#     Edge 54, Type (0, 0), BuildingBlock: OJICUG_clean_linker_0, # of connection points: 2
#     Edge 55, Type (0, 0), BuildingBlock: OJICUG_clean_linker_0, # of connection points: 2
#     Edge 56, Type (0, 0), BuildingBlock: OJICUG_clean_linker_0, # of connection points: 2
#     Edge 57, Type (0, 0), BuildingBlock: OJICUG_clean_linker_0, # of connection points: 2
#     Edge 58, Type (0, 0), BuildingBlock: OJICUG_clean_linker_0, # of connection points: 2
#     Edge 59, Type (0, 0), BuildingBlock: OJICUG_clean_linker_0, # of connection points: 2
#     Edge 60, Type (0, 0), BuildingBlock: OJICUG_clean_linker_0, # of connection points: 2
#     Edge 61, Type (0, 0), BuildingBlock: OJICUG_clean_linker_0, # of connection points: 2
#     Edge 62, Type (0, 0), BuildingBlock: OJICUG_clean_linker_0, # of connection points: 2
#     Edge 63, Type (0, 0), BuildingBlock: OJICUG_clean_linker_0, # of connection points: 2
#     Edge 64, Type (0, 0), BuildingBlock: OJICUG_clean_linker_0, # of connection points: 2
#     Edge 65, Type (0, 0), BuildingBlock: OJICUG_clean_linker_0, # of connection points: 2
#     Edge 66, Type (0, 0), BuildingBlock: OJICUG_clean_linker_0, # of connection points: 2
#     Edge 67, Type (0, 0), BuildingBlock: OJICUG_clean_linker_0, # of connection points: 2
#     Edge 68, Type (0, 0), BuildingBlock: OJICUG_clean_linker_0, # of connection points: 2
#     Edge 69, Type (0, 0), BuildingBlock: OJICUG_clean_linker_0, # of connection points: 2
#     Edge 70, Type (0, 0), BuildingBlock: OJICUG_clean_linker_0, # of connection points: 2
#     Edge 71, Type (0, 0), BuildingBlock: OJICUG_clean_linker_0, # of connection points: 2
#     Edge 72, Type (0, 0), BuildingBlock: OJICUG_clean_linker_0, # of connection points: 2
#     Edge 73, Type (0, 0), BuildingBlock: OJICUG_clean_linker_0, # of connection points: 2
#     Edge 74, Type (0, 0), BuildingBlock: OJICUG_clean_linker_0, # of connection points: 2
#     Edge 75, Type (0, 0), BuildingBlock: OJICUG_clean_linker_0, # of connection points: 2
#     Edge 76, Type (0, 0), BuildingBlock: OJICUG_clean_linker_0, # of connection points: 2
#     Edge 77, Type (0, 0), BuildingBlock: OJICUG_clean_linker_0, # of connection points: 2
#     Edge 78, Type (0, 0), BuildingBlock: OJICUG_clean_linker_0, # of connection points: 2
#     Edge 79, Type (0, 0), BuildingBlock: OJICUG_clean_linker_0, # of connection points: 2
#     Edge 80, Type (0, 0), BuildingBlock: OJICUG_clean_linker_0, # of connection points: 2
#     Edge 81, Type (0, 0), BuildingBlock: OJICUG_clean_linker_0, # of connection points: 2
#     Edge 82, Type (0, 0), BuildingBlock: OJICUG_clean_linker_0, # of connection points: 2
#     Edge 83, Type (0, 0), BuildingBlock: OJICUG_clean_linker_0, # of connection points: 2
#     Edge 84, Type (0, 0), BuildingBlock: OJICUG_clean_linker_0, # of connection points: 2
#     Edge 85, Type (0, 0), BuildingBlock: OJICUG_clean_linker_0, # of connection points: 2
#     Edge 86, Type (0, 0), BuildingBlock: OJICUG_clean_linker_0, # of connection points: 2
#     Edge 87, Type (0, 0), BuildingBlock: OJICUG_clean_linker_0, # of connection points: 2
#     Edge 88, Type (0, 0), BuildingBlock: OJICUG_clean_linker_0, # of connection points: 2
#     Edge 89, Type (0, 0), BuildingBlock: OJICUG_clean_linker_0, # of connection points: 2
#     Edge 90, Type (0, 0), BuildingBlock: OJICUG_clean_linker_0, # of connection points: 2
#     Edge 91, Type (0, 0), BuildingBlock: OJICUG_clean_linker_0, # of connection points: 2
#     Edge 92, Type (0, 0), BuildingBlock: OJICUG_clean_linker_0, # of connection points: 2
#     Edge 93, Type (0, 0), BuildingBlock: OJICUG_clean_linker_0, # of connection points: 2
#     Edge 94, Type (0, 0), BuildingBlock: OJICUG_clean_linker_0, # of connection points: 2
#     Edge 95, Type (0, 0), BuildingBlock: OJICUG_clean_linker_0, # of connection points: 2
#     Edge 96, Type (0, 0), BuildingBlock: OJICUG_clean_linker_0, # of connection points: 2
#     Edge 97, Type (0, 0), BuildingBlock: OJICUG_clean_linker_0, # of connection points: 2
#     Edge 98, Type (0, 0), BuildingBlock: OJICUG_clean_linker_0, # of connection points: 2
#     Edge 99, Type (0, 0), BuildingBlock: OJICUG_clean_linker_0, # of connection points: 2
#     Edge 100, Type (0, 0), BuildingBlock: OJICUG_clean_linker_0, # of connection points: 2
#     Edge 101, Type (0, 0), BuildingBlock: OJICUG_clean_linker_0, # of connection points: 2
#     Edge 102, Type (0, 0), BuildingBlock: OJICUG_clean_linker_0, # of connection points: 2
#     Edge 103, Type (0, 0), BuildingBlock: OJICUG_clean_linker_0, # of connection points: 2
#     Edge 104, Type (0, 0), BuildingBlock: OJICUG_clean_linker_0, # of connection points: 2
#     Edge 105, Type (0, 0), BuildingBlock: OJICUG_clean_linker_0, # of connection points: 2
#     Edge 106, Type (0, 0), BuildingBlock: OJICUG_clean_linker_0, # of connection points: 2
#     Edge 107, Type (0, 0), BuildingBlock: OJICUG_clean_linker_0, # of connection points: 2
#     Edge 108, Type (0, 0), BuildingBlock: OJICUG_clean_linker_0, # of connection points: 2
#     Edge 109, Type (0, 0), BuildingBlock: OJICUG_clean_linker_0, # of connection points: 2
#     Edge 110, Type (0, 0), BuildingBlock: OJICUG_clean_linker_0, # of connection points: 2
#     Edge 111, Type (0, 0), BuildingBlock: OJICUG_clean_linker_0, # of connection points: 2
#     Edge 112, Type (0, 0), BuildingBlock: OJICUG_clean_linker_0, # of connection points: 2
#     Edge 113, Type (0, 0), BuildingBlock: OJICUG_clean_linker_0, # of connection points: 2
#     Edge 114, Type (0, 0), BuildingBlock: OJICUG_clean_linker_0, # of connection points: 2
#     Edge 115, Type (0, 0), BuildingBlock: OJICUG_clean_linker_0, # of connection points: 2
#     Edge 116, Type (0, 0), BuildingBlock: OJICUG_clean_linker_0, # of connection points: 2
#     Edge 117, Type (0, 0), BuildingBlock: OJICUG_clean_linker_0, # of connection points: 2
#     Edge 118, Type (0, 0), BuildingBlock: OJICUG_clean_linker_0, # of connection points: 2
#     Edge 119, Type (0, 0), BuildingBlock: OJICUG_clean_linker_0, # of connection points: 2
#     Edge 120, Type (0, 0), BuildingBlock: OJICUG_clean_linker_0, # of connection points: 2
#     Edge 121, Type (0, 0), BuildingBlock: OJICUG_clean_linker_0, # of connection points: 2
#     Edge 122, Type (0, 0), BuildingBlock: OJICUG_clean_linker_0, # of connection points: 2
#     Edge 123, Type (0, 0), BuildingBlock: OJICUG_clean_linker_0, # of connection points: 2
#     Edge 124, Type (0, 0), BuildingBlock: OJICUG_clean_linker_0, # of connection points: 2
#     Edge 125, Type (0, 0), BuildingBlock: OJICUG_clean_linker_0, # of connection points: 2
#     Edge 126, Type (0, 0), BuildingBlock: OJICUG_clean_linker_0, # of connection points: 2
#     Edge 127, Type (0, 0), BuildingBlock: OJICUG_clean_linker_0, # of connection points: 2
#     Edge 128, Type (0, 0), BuildingBlock: OJICUG_clean_linker_0, # of connection points: 2
#     Edge 129, Type (0, 0), BuildingBlock: OJICUG_clean_linker_0, # of connection points: 2
#     Edge 130, Type (0, 0), BuildingBlock: OJICUG_clean_linker_0, # of connection points: 2
#     Edge 131, Type (0, 0), BuildingBlock: OJICUG_clean_linker_0, # of connection points: 2
#     Edge 132, Type (0, 0), BuildingBlock: OJICUG_clean_linker_0, # of connection points: 2
#     Edge 133, Type (0, 0), BuildingBlock: OJICUG_clean_linker_0, # of connection points: 2
#     Edge 134, Type (0, 0), BuildingBlock: OJICUG_clean_linker_0, # of connection points: 2
#     Edge 135, Type (0, 0), BuildingBlock: OJICUG_clean_linker_0, # of connection points: 2
#     Edge 136, Type (0, 0), BuildingBlock: OJICUG_clean_linker_0, # of connection points: 2
#     Edge 137, Type (0, 0), BuildingBlock: OJICUG_clean_linker_0, # of connection points: 2
#     Edge 138, Type (0, 0), BuildingBlock: OJICUG_clean_linker_0, # of connection points: 2
#     Edge 139, Type (0, 0), BuildingBlock: OJICUG_clean_linker_0, # of connection points: 2
#     Edge 140, Type (0, 0), BuildingBlock: OJICUG_clean_linker_0, # of connection points: 2
#     Edge 141, Type (0, 0), BuildingBlock: OJICUG_clean_linker_0, # of connection points: 2
#     Edge 142, Type (0, 0), BuildingBlock: OJICUG_clean_linker_0, # of connection points: 2
#     Edge 143, Type (0, 0), BuildingBlock: OJICUG_clean_linker_0, # of connection points: 2
#     Edge 144, Type (0, 0), BuildingBlock: OJICUG_clean_linker_0, # of connection points: 2
#     Edge 145, Type (0, 0), BuildingBlock: OJICUG_clean_linker_0, # of connection points: 2
#     Edge 146, Type (0, 0), BuildingBlock: OJICUG_clean_linker_0, # of connection points: 2
#     Edge 147, Type (0, 0), BuildingBlock: OJICUG_clean_linker_0, # of connection points: 2
#     Edge 148, Type (0, 0), BuildingBlock: OJICUG_clean_linker_0, # of connection points: 2
#     Edge 149, Type (0, 0), BuildingBlock: OJICUG_clean_linker_0, # of connection points: 2
#     Edge 150, Type (0, 0), BuildingBlock: OJICUG_clean_linker_0, # of connection points: 2
#     Edge 151, Type (0, 0), BuildingBlock: OJICUG_clean_linker_0, # of connection points: 2
#     Edge 152, Type (0, 0), BuildingBlock: OJICUG_clean_linker_0, # of connection points: 2
#     Edge 153, Type (0, 0), BuildingBlock: OJICUG_clean_linker_0, # of connection points: 2
#     Edge 154, Type (0, 0), BuildingBlock: OJICUG_clean_linker_0, # of connection points: 2
#     Edge 155, Type (0, 0), BuildingBlock: OJICUG_clean_linker_0, # of connection points: 2
#     Edge 156, Type (0, 0), BuildingBlock: OJICUG_clean_linker_0, # of connection points: 2
#     Edge 157, Type (0, 0), BuildingBlock: OJICUG_clean_linker_0, # of connection points: 2
#     Edge 158, Type (0, 0), BuildingBlock: OJICUG_clean_linker_0, # of connection points: 2
#     Edge 159, Type (0, 0), BuildingBlock: OJICUG_clean_linker_0, # of connection points: 2
#     Edge 160, Type (0, 0), BuildingBlock: OJICUG_clean_linker_0, # of connection points: 2
#     Edge 161, Type (0, 0), BuildingBlock: OJICUG_clean_linker_0, # of connection points: 2
#     Edge 162, Type (0, 0), BuildingBlock: OJICUG_clean_linker_0, # of connection points: 2
#     Edge 163, Type (0, 0), BuildingBlock: OJICUG_clean_linker_0, # of connection points: 2
#     Edge 164, Type (0, 0), BuildingBlock: OJICUG_clean_linker_0, # of connection points: 2
#     Edge 165, Type (0, 0), BuildingBlock: OJICUG_clean_linker_0, # of connection points: 2
#     Edge 166, Type (0, 0), BuildingBlock: OJICUG_clean_linker_0, # of connection points: 2
#     Edge 167, Type (0, 0), BuildingBlock: OJICUG_clean_linker_0, # of connection points: 2
# Relax obj value: 0.109
# Max RMSD: 0.155
# Mean RMSD: 0.155
data_MOF--net-fcr--node1-XOMCOT_clean_sbu_0--edge1-OJICUG_clean_linker_0
_symmetry_space_group_name_H-M    P1
_symmetry_Int_Tables_number       1
_symmetry_cell_setting            triclinic
loop_
_symmetry_equiv_pos_as_xyz
'x, y, z'
_cell_length_a     50.037281
_cell_length_b     50.116709
_cell_length_c     50.122074
_cell_angle_alpha  89.932809
_cell_angle_beta   89.993418
_cell_angle_gamma 89.933006
loop_
_atom_site_label
_atom_site_type_symbol
_atom_site_fract_x
_atom_site_fract_y
_atom_site_fract_z
_atom_type_partial_charge
Co0 Co 0.14604 0.33539 0.26337 0.0
C1 C 0.1671 0.28799 0.29171 0.0
C2 C 0.17705 0.32457 0.31153 0.0
C3 C 0.18961 0.30393 0.32452 0.0
N4 N 0.16276 0.31457 0.29113 0.0
N5 N 0.18346 0.28088 0.31202 0.0
H6 H 0.15947 0.27439 0.27687 0.0
H7 H 0.17976 0.34556 0.31556 0.0
C8 C 0.12404 0.38488 0.29231 0.0
O9 O 0.1088 0.39216 0.27227 0.0
N10 N 0.13004 0.35626 0.23497 0.0
C11 C 0.11246 0.34753 0.21654 0.0
C12 C 0.11047 0.36625 0.19651 0.0
C13 C 0.13876 0.38004 0.22565 0.0
N14 N 0.12699 0.38661 0.20233 0.0
C15 C 0.10948 0.29198 0.25586 0.0
C16 C 0.06797 0.31093 0.28681 0.0
C17 C 0.06433 0.28701 0.27277 0.0
C18 C 0.08575 0.27742 0.2575 0.0
C19 C 0.09213 0.32495 0.28465 0.0
N20 N 0.11246 0.31578 0.26883 0.0
H21 H 0.1253 0.28416 0.24354 0.0
H22 H 0.0939 0.34319 0.29565 0.0
H23 H 0.10263 0.32838 0.21677 0.0
H24 H 0.15414 0.39182 0.23523 0.0
O25 O 0.16265 0.31287 0.23657 0.0
O26 O 0.18086 0.34919 0.2537 0.0
O27 O 0.13741 0.36312 0.29143 0.0
C28 C 0.18293 0.32902 0.23755 0.0
H29 H 0.20364 0.30607 0.3408 0.0
H30 H 0.09813 0.36485 0.17882 0.0
H31 H 0.05202 0.31921 0.29886 0.0
H32 H 0.08421 0.25877 0.24672 0.0
Co33 Co 0.58352 0.6311 1.00939 0.0
C34 C 0.53777 0.60256 0.98451 0.0
C35 C 0.56154 0.62287 0.95528 0.0
C36 C 0.54043 0.61079 0.94252 0.0
N37 N 0.56011 0.61746 0.98162 0.0
N38 N 0.52549 0.59813 0.96096 0.0
H39 H 0.53041 0.5952 1.0034 0.0
H40 H 0.57634 0.6354 0.94585 0.0
C41 C 0.63356 0.65133 0.98075 0.0
O42 O 0.64255 0.6635 1.0021 0.0
N43 N 0.60629 0.64465 0.03764 0.0
C44 C 0.60062 0.66495 0.05436 0.0
C45 C 0.61966 0.66572 0.07411 0.0
C46 C 0.62843 0.63299 0.0479 0.0
N47 N 0.6371 0.64557 0.07011 0.0
C48 C 0.53889 0.66628 0.01378 0.0
C49 C 0.56328 0.71198 0.99481 0.0
C50 C 0.53637 0.71332 1.00257 0.0
C51 C 0.5242 0.68997 0.0121 0.0
C52 C 0.57731 0.68788 0.99692 0.0
N53 N 0.56514 0.66537 1.0064 0.0
H54 H 0.52908 0.64849 0.02099 0.0
H55 H 0.59802 0.68774 0.99137 0.0
H56 H 0.5833 0.67777 0.05311 0.0
H57 H 0.63754 0.61521 0.03971 0.0
O58 O 0.56202 0.61404 0.03694 0.0
O59 O 0.59631 0.59544 0.01612 0.0
O60 O 0.61054 0.64023 0.9807 0.0
C61 C 0.57747 0.59329 0.03381 0.0
H62 H 0.53594 0.61195 0.92142 0.0
H63 H 0.62033 0.6799 0.09036 0.0
H64 H 0.57364 0.72957 0.98772 0.0
H65 H 0.50339 0.68991 0.01803 0.0
Co66 Co 0.8787 0.1866 0.26308 0.0
C67 C 0.85941 0.23614 0.2893 0.0
C68 C 0.84984 0.2008 0.31154 0.0
C69 C 0.83858 0.22225 0.32417 0.0
N70 N 0.86303 0.20944 0.2898 0.0
N71 N 0.84448 0.24454 0.31023 0.0
H72 H 0.86678 0.24889 0.27351 0.0
H73 H 0.84719 0.18018 0.31708 0.0
C74 C 0.90196 0.14017 0.29512 0.0
O75 O 0.92166 0.13626 0.27826 0.0
N76 N 0.89393 0.16287 0.23612 0.0
C77 C 0.91815 0.16408 0.22422 0.0
C78 C 0.91983 0.14442 0.20518 0.0
C79 C 0.88152 0.14195 0.22431 0.0
N80 N 0.89678 0.13059 0.20519 0.0
C81 C 0.92011 0.22311 0.24878 0.0
C82 C 0.9529 0.21528 0.29245 0.0
C83 C 0.96147 0.23253 0.27205 0.0
C84 C 0.94435 0.23673 0.25032 0.0
C85 C 0.92835 0.20191 0.29009 0.0
N86 N 0.91279 0.20505 0.26788 0.0
H87 H 0.90769 0.22638 0.2315 0.0
H88 H 0.922 0.18922 0.30626 0.0
H89 H 0.93399 0.17782 0.22893 0.0
H90 H 0.86149 0.13543 0.22913 0.0
O91 O 0.86336 0.20874 0.23514 0.0
O92 O 0.84328 0.17434 0.25415 0.0
O93 O 0.8857 0.15953 0.29194 0.0
C94 C 0.84222 0.19379 0.23702 0.0
H95 H 0.82561 0.22117 0.34141 0.0
H96 H 0.93686 0.14041 0.19248 0.0
H97 H 0.96524 0.21174 0.30984 0.0
H98 H 0.94964 0.25043 0.23446 0.0
Co99 Co 0.43518 0.89814 1.00836 0.0
C100 C 0.48519 0.91715 0.98286 0.0
C101 C 0.45043 0.9253 0.95909 0.0
C102 C 0.47219 0.93645 0.94679 0.0
N103 N 0.45854 0.91313 0.98162 0.0
N104 N 0.49412 0.93146 0.96171 0.0
H105 H 0.49751 0.91048 0.9993 0.0
H106 H 0.42992 0.92724 0.95266 0.0
C107 C 0.39167 0.87257 0.97391 0.0
O108 O 0.39162 0.85 0.9872 0.0
N109 N 0.41082 0.88346 0.03515 0.0
C110 C 0.40745 0.85766 0.04231 0.0
C111 C 0.38805 0.85609 0.06161 0.0
C112 C 0.39279 0.89708 0.05006 0.0
N113 N 0.37888 0.88087 0.0665 0.0
C114 C 0.46729 0.85463 0.02586 0.0
C115 C 0.46743 0.8258 0.97888 0.0
C116 C 0.48049 0.81517 1.00135 0.0
C117 C 0.48063 0.83022 0.02488 0.0
C118 C 0.45406 0.85038 0.98078 0.0
N119 N 0.45327 0.86393 1.0044 0.0
H120 H 0.46738 0.86569 0.04434 0.0
H121 H 0.44445 0.85851 0.96326 0.0
H122 H 0.41752 0.8407 0.03368 0.0
H123 H 0.38988 0.91843 0.04919 0.0
O124 O 0.45741 0.91319 0.03613 0.0
O125 O 0.42333 0.93383 0.01678 0.0
O126 O 0.4081 0.89111 0.97966 0.0
C127 C 0.44279 0.93457 0.03397 0.0
H128 H 0.47151 0.94867 0.92901 0.0
H129 H 0.38075 0.83798 0.07085 0.0
H130 H 0.46719 0.81505 0.96015 0.0
H131 H 0.49105 0.82322 0.0425 0.0
Co132 Co 0.14627 0.68821 0.26144 0.0
C133 C 0.17273 0.73624 0.23812 0.0
C134 C 0.16 0.70872 0.20797 0.0
C135 C 0.17227 0.72989 0.19571 0.0
N136 N 0.1604 0.71248 0.23464 0.0
N137 N 0.18038 0.74713 0.21464 0.0
H138 H 0.17658 0.74519 0.25735 0.0
H139 H 0.15137 0.69187 0.19773 0.0
C140 C 0.1237 0.64235 0.22839 0.0
O141 O 0.10286 0.63916 0.24397 0.0
N142 N 0.13211 0.66342 0.28813 0.0
C143 C 0.10682 0.66163 0.29745 0.0
C144 C 0.10561 0.64193 0.31646 0.0
C145 C 0.14575 0.64423 0.30154 0.0
N146 N 0.13009 0.63106 0.31913 0.0
C147 C 0.1029 0.7216 0.27716 0.0
C148 C 0.07183 0.71581 0.23195 0.0
C149 C 0.06215 0.73154 0.25303 0.0
C150 C 0.07831 0.73462 0.27565 0.0
C151 C 0.09666 0.70299 0.2343 0.0
N152 N 0.11146 0.70525 0.25711 0.0
H153 H 0.11469 0.72399 0.29501 0.0
H154 H 0.10389 0.69149 0.21764 0.0
H155 H 0.08989 0.67305 0.29061 0.0
H156 H 0.16679 0.64012 0.29887 0.0
O157 O 0.16072 0.71035 0.28984 0.0
O158 O 0.1821 0.6771 0.27003 0.0
O159 O 0.14045 0.66099 0.23266 0.0
C160 C 0.18225 0.6959 0.28785 0.0
H161 H 0.17484 0.73245 0.17442 0.0
H162 H 0.08786 0.63573 0.32713 0.0
H163 H 0.06019 0.7131 0.21395 0.0
H164 H 0.07206 0.7471 0.29214 0.0
Co165 Co 0.93654 0.62533 0.01426 0.0
C166 C 0.98467 0.60516 0.04214 0.0
C167 C 0.94852 0.5967 0.06357 0.0
C168 C 0.96941 0.58486 0.07674 0.0
N169 N 0.95807 0.60947 0.04195 0.0
N170 N 0.9922 0.59002 0.06327 0.0
H171 H 0.99795 0.61217 0.02662 0.0
H172 H 0.92765 0.59479 0.06868 0.0
C173 C 0.89102 0.65081 0.04618 0.0
O174 O 0.89021 0.67279 0.03195 0.0
N175 N 0.91396 0.64096 0.98652 0.0
C176 C 0.91239 0.66673 0.97872 0.0
C177 C 0.89331 0.66912 0.95917 0.0
C178 C 0.89533 0.6282 0.97166 0.0
N179 N 0.88261 0.64489 0.95469 0.0
C180 C 0.97185 0.66703 0.99905 0.0
C181 C 0.96777 0.69786 0.04455 0.0
C182 C 0.9834 0.7072 0.02317 0.0
C183 C 0.98575 0.69103 1.0005 0.0
C184 C 0.95409 0.67348 0.04227 0.0
N185 N 0.95543 0.65895 0.01925 0.0
H186 H 0.97349 0.65538 0.98102 0.0
H187 H 0.94248 0.6664 0.05899 0.0
H188 H 0.92332 0.68321 0.9872 0.0
H189 H 0.89105 0.60712 0.97311 0.0
O190 O 0.95952 0.60969 0.98743 0.0
O191 O 0.92401 0.59008 1.00506 0.0
O192 O 0.90857 0.63292 0.0418 0.0
C193 C 0.94418 0.58881 0.98874 0.0
H194 H 0.96757 0.57203 0.09401 0.0
H195 H 0.8872 0.68753 0.94965 0.0
H196 H 0.96569 0.70948 0.06262 0.0
H197 H 0.99818 0.69692 0.98381 0.0
Co198 Co 0.87712 0.83304 0.26027 0.0
C199 C 0.85496 0.78575 0.23247 0.0
C200 C 0.84595 0.82235 0.21217 0.0
C201 C 0.83311 0.8019 0.19928 0.0
N202 N 0.85988 0.81223 0.23281 0.0
N203 N 0.83868 0.77883 0.21206 0.0
H204 H 0.86216 0.77206 0.24748 0.0
H205 H 0.84376 0.84335 0.20781 0.0
C206 C 0.89778 0.88282 0.23094 0.0
O207 O 0.9125 0.89079 0.25107 0.0
N208 N 0.89353 0.85389 0.28832 0.0
C209 C 0.91115 0.84501 0.30669 0.0
C210 C 0.91321 0.86365 0.32676 0.0
C211 C 0.88481 0.87762 0.29774 0.0
N212 N 0.89669 0.88407 0.32097 0.0
C213 C 0.91312 0.78894 0.26623 0.0
C214 C 0.95584 0.80986 0.23834 0.0
C215 C 0.9589 0.78504 0.25095 0.0
C216 C 0.93692 0.77448 0.26467 0.0
C217 C 0.93159 0.82372 0.24036 0.0
N218 N 0.91058 0.81345 0.2545 0.0
H219 H 0.89691 0.78051 0.27759 0.0
H220 H 0.93035 0.84286 0.23086 0.0
H221 H 0.92087 0.82576 0.30638 0.0
H222 H 0.86938 0.88948 0.28827 0.0
O223 O 0.86105 0.81065 0.28751 0.0
O224 O 0.84264 0.84703 0.27039 0.0
O225 O 0.88537 0.86055 0.23181 0.0
C226 C 0.84091 0.82705 0.28684 0.0
H227 H 0.81935 0.80423 0.18279 0.0
H228 H 0.92556 0.86219 0.34444 0.0
H229 H 0.97231 0.81896 0.22769 0.0
H230 H 0.93811 0.7552 0.27439 0.0
Co231 Co 0.08699 0.8909 0.01286 0.0
C232 C 0.03896 0.91216 0.04076 0.0
C233 C 0.07531 0.92009 0.06192 0.0
C234 C 0.05471 0.93269 0.07489 0.0
N235 N 0.06548 0.90695 0.04068 0.0
N236 N 0.03177 0.92783 0.06159 0.0
H237 H 0.02549 0.90569 0.02523 0.0
H238 H 0.09627 0.9221 0.06662 0.0
C239 C 0.13767 0.87151 0.04118 0.0
O240 O 0.14722 0.86006 0.01967 0.0
N241 N 0.10877 0.87568 0.98445 0.0
C242 C 0.10391 0.85361 0.96987 0.0
C243 C 0.12264 0.85191 0.94977 0.0
C244 C 0.13021 0.88724 0.97266 0.0
N245 N 0.13917 0.87309 0.95151 0.0
C246 C 0.04344 0.85454 1.00611 0.0
C247 C 0.06427 0.81205 0.03449 0.0
C248 C 0.03921 0.80911 0.02228 0.0
C249 C 0.02878 0.83095 1.00819 0.0
C250 C 0.07833 0.83613 0.03201 0.0
N251 N 0.06798 0.85707 0.01779 0.0
H252 H 0.03494 0.87072 0.99477 0.0
H253 H 0.09766 0.83734 0.04123 0.0
H254 H 0.08759 0.83988 0.973 0.0
H255 H 0.13881 0.90591 0.97917 0.0
O256 O 0.06447 0.9072 0.98591 0.0
O257 O 0.10007 0.92604 1.00407 0.0
O258 O 0.11443 0.88216 0.0412 0.0
C259 C 0.08009 0.92784 0.98759 0.0
H260 H 0.0569 0.94591 0.09179 0.0
H261 H 0.12388 0.83624 0.93499 0.0
H262 H 0.07333 0.79566 0.0453 0.0
H263 H 1.00936 0.82989 0.99873 0.0
Co264 Co 0.26435 0.14562 0.33723 0.0
C265 C 0.28874 0.1758 0.29206 0.0
C266 C 0.31802 0.15411 0.31457 0.0
C267 C 0.33062 0.16636 0.29348 0.0
N268 N 0.29177 0.1603 0.31398 0.0
N269 N 0.31216 0.17988 0.2793 0.0
H270 H 0.26981 0.1836 0.28516 0.0
H271 H 0.32735 0.14058 0.32852 0.0
C272 C 0.29363 0.12722 0.38762 0.0
O273 O 0.27239 0.11534 0.39728 0.0
N274 N 0.23643 0.13083 0.3598 0.0
C275 C 0.22096 0.1095 0.35433 0.0
C276 C 0.20109 0.10777 0.37318 0.0
C277 C 0.22522 0.14215 0.38162 0.0
N278 N 0.2037 0.12835 0.39031 0.0
C279 C 0.26065 0.11077 0.29287 0.0
C280 C 0.28099 0.06537 0.31682 0.0
C281 C 0.27194 0.06395 0.29037 0.0
C282 C 0.26191 0.08711 0.27836 0.0
C283 C 0.27908 0.08948 0.33081 0.0
N284 N 0.2687 0.11172 0.31886 0.0
H285 H 0.25296 0.12843 0.28318 0.0
H286 H 0.2853 0.08984 0.35134 0.0
H287 H 0.22312 0.09651 0.33729 0.0
H288 H 0.23227 0.16047 0.39055 0.0
O289 O 0.2364 0.16132 0.31544 0.0
O290 O 0.25591 0.18089 0.34996 0.0
O291 O 0.29338 0.13754 0.36425 0.0
C292 C 0.23831 0.18209 0.33092 0.0
H293 H 0.35154 0.16448 0.28829 0.0
H294 H 0.18574 0.09261 0.37397 0.0
H295 H 0.28869 0.04782 0.32684 0.0
H296 H 0.25508 0.08694 0.25785 0.0
Co297 Co 0.39265 0.51273 0.9366 0.0
C298 C 0.42348 0.48847 0.98134 0.0
C299 C 0.39948 0.45959 0.96086 0.0
C300 C 0.41201 0.44717 0.98192 0.0
N301 N 0.40691 0.48546 0.96024 0.0
N302 N 0.42696 0.46541 0.9948 0.0
H303 H 0.43247 0.50716 0.98719 0.0
H304 H 0.385 0.45051 0.94773 0.0
C305 C 0.37428 0.48199 0.88686 0.0
O306 O 0.36233 0.50275 0.87623 0.0
N307 N 0.37843 0.54056 0.91371 0.0
C308 C 0.36062 0.55929 0.92135 0.0
C309 C 0.35992 0.57923 0.9025 0.0
C310 C 0.38877 0.54974 0.89051 0.0
N311 N 0.37758 0.57315 0.88316 0.0
C312 C 0.35766 0.51461 0.98116 0.0
C313 C 0.31122 0.49974 0.95528 0.0
C314 C 0.31011 0.50572 0.98263 0.0
C315 C 0.33384 0.51305 0.99554 0.0
C316 C 0.33556 0.50161 0.94156 0.0
N317 N 0.35836 0.50904 0.95454 0.0
H318 H 0.3757 0.5204 0.99146 0.0
H319 H 0.33578 0.49771 0.92046 0.0
H320 H 0.34989 0.5593 0.94007 0.0
H321 H 0.40483 0.54005 0.87975 0.0
O322 O 0.40831 0.54067 0.95826 0.0
O323 O 0.42819 0.52073 0.9241 0.0
O324 O 0.38461 0.48329 0.91015 0.0
C325 C 0.42929 0.53846 0.94299 0.0
H326 H 0.40942 0.42659 0.98797 0.0
H327 H 0.34771 0.59707 0.90313 0.0
H328 H 0.29332 0.49435 0.94441 0.0
H329 H 0.33407 0.5175 0.01668 0.0
Co330 Co 0.76351 0.37904 0.33662 0.0
C331 C 0.73975 0.35307 0.28854 0.0
C332 C 0.70991 0.36433 0.31712 0.0
C333 C 0.69745 0.35225 0.29603 0.0
N334 N 0.73652 0.3648 0.31264 0.0
N335 N 0.71617 0.345 0.27814 0.0
H336 H 0.7589 0.34989 0.27906 0.0
H337 H 0.6998 0.37223 0.33441 0.0
C338 C 0.72943 0.40333 0.38104 0.0
O339 O 0.74373 0.4252 0.38267 0.0
N340 N 0.79027 0.39328 0.36129 0.0
C341 C 0.79834 0.41885 0.36416 0.0
C342 C 0.81732 0.42015 0.38389 0.0
C343 C 0.80437 0.37955 0.37991 0.0
N344 N 0.82118 0.39544 0.39374 0.0
C345 C 0.78041 0.42242 0.30417 0.0
C346 C 0.73333 0.45133 0.3051 0.0
C347 C 0.75515 0.46128 0.29058 0.0
C348 C 0.77882 0.44636 0.2901 0.0
C349 C 0.73587 0.42729 0.31922 0.0
N350 N 0.75945 0.41351 0.31915 0.0
H351 H 0.7989 0.41132 0.30359 0.0
H352 H 0.71873 0.41972 0.32984 0.0
H353 H 0.7905 0.43588 0.35355 0.0
H354 H 0.80263 0.35832 0.38327 0.0
O355 O 0.79174 0.36434 0.31448 0.0
O356 O 0.77192 0.34335 0.34804 0.0
O357 O 0.73485 0.38549 0.3638 0.0
C358 C 0.78967 0.34298 0.3291 0.0
H359 H 0.67614 0.34916 0.29402 0.0
H360 H 0.82703 0.43811 0.39091 0.0
H361 H 0.7146 0.46215 0.30579 0.0
H362 H 0.79598 0.45301 0.27873 0.0
Co363 Co 0.63003 1.01114 0.93745 0.0
C364 C 0.61059 0.03693 0.98738 0.0
C365 C 0.6023 0.06013 0.95235 0.0
C366 C 0.59095 0.07263 0.97382 0.0
N367 N 0.61479 0.03787 0.96074 0.0
N368 N 0.59603 0.05809 0.99592 0.0
H369 H 0.61726 0.02067 0.99995 0.0
H370 H 0.60008 0.06614 0.93183 0.0
C371 C 0.65611 0.047 0.8947 0.0
O372 O 0.67916 0.03452 0.89498 0.0
N373 N 0.64483 0.98426 0.91319 0.0
C374 C 0.67079 0.97906 0.90777 0.0
C375 C 0.67231 0.95974 0.88833 0.0
C376 C 0.63102 0.96765 0.8969 0.0
N377 N 0.64729 0.95257 0.88163 0.0
C378 C 0.67388 0.99327 0.96888 0.0
C379 C 0.70177 0.04081 0.97079 0.0
C380 C 0.71264 0.01827 0.9836 0.0
C381 C 0.69798 0.99442 0.9828 0.0
C382 C 0.67734 0.03882 0.95714 0.0
N383 N 0.66421 0.015 0.95559 0.0
H384 H 0.6631 0.97461 0.96829 0.0
H385 H 0.66897 0.05645 0.94794 0.0
H386 H 0.68774 0.98884 0.91679 0.0
H387 H 0.60949 0.96684 0.89555 0.0
O388 O 0.61462 0.98328 0.95957 0.0
O389 O 0.59454 1.00288 0.92529 0.0
O390 O 0.63727 0.04011 0.91044 0.0
C391 C 0.59349 0.98554 0.94459 0.0
H392 H 0.57842 0.09021 0.97281 0.0
H393 H 0.69042 0.95147 0.87986 0.0
H394 H 0.71215 0.05975 0.97099 0.0
H395 H 0.70492 0.97668 0.99302 0.0
Co396 Co 0.26349 0.88098 0.18772 0.0
C397 C 0.28846 0.85481 0.23491 0.0
C398 C 0.31783 0.87165 0.2087 0.0
C399 C 0.33081 0.85983 0.22976 0.0
N400 N 0.29122 0.86831 0.21171 0.0
N401 N 0.31234 0.84921 0.24617 0.0
H402 H 0.2695 0.84874 0.24326 0.0
H403 H 0.32745 0.88216 0.19253 0.0
C404 C 0.29335 0.90327 0.1397 0.0
O405 O 0.27442 0.92053 0.13407 0.0
N406 N 0.23568 0.89366 0.1635 0.0
C407 C 0.22118 0.91638 0.16508 0.0
C408 C 0.20201 0.91625 0.14548 0.0
C409 C 0.22523 0.88029 0.14247 0.0
N410 N 0.2045 0.89355 0.13138 0.0
C411 C 0.24762 0.9223 0.22348 0.0
C412 C 0.2899 0.95657 0.21446 0.0
C413 C 0.27005 0.96393 0.23277 0.0
C414 C 0.24881 0.94638 0.2373 0.0
C415 C 0.28773 0.93238 0.20066 0.0
N416 N 0.26638 0.91584 0.20474 0.0
H417 H 0.23101 0.90918 0.22738 0.0
H418 H 0.30358 0.92696 0.18718 0.0
H419 H 0.22395 0.93227 0.17923 0.0
H420 H 0.23207 0.86092 0.13583 0.0
O421 O 0.23602 0.86509 0.21003 0.0
O422 O 0.25669 0.8448 0.17669 0.0
O423 O 0.29176 0.88843 0.16031 0.0
C424 C 0.23905 0.84368 0.19568 0.0
H425 H 0.35221 0.85935 0.23288 0.0
H426 H 0.18735 0.93173 0.14182 0.0
H427 H 0.30681 0.9695 0.21067 0.0
H428 H 0.23331 0.95111 0.25163 0.0
Co429 Co 0.12817 0.51046 0.0886 0.0
C430 C 0.10848 0.48469 0.03909 0.0
C431 C 0.10007 0.46157 0.07419 0.0
C432 C 0.08859 0.44919 0.05265 0.0
N433 N 0.11261 0.48372 0.0657 0.0
N434 N 0.09376 0.4637 0.0305 0.0
H435 H 0.11542 0.50083 0.02654 0.0
H436 H 0.09817 0.45553 0.09481 0.0
C437 C 0.13151 0.48141 0.13891 0.0
O438 O 0.11856 0.50194 0.1488 0.0
N439 N 0.14369 0.53708 0.11229 0.0
C440 C 0.16917 0.53747 0.12109 0.0
C441 C 0.17166 0.55686 0.14036 0.0
C442 C 0.13098 0.55607 0.12674 0.0
N443 N 0.14757 0.56835 0.14401 0.0
C444 C 0.1716 0.53 0.05776 0.0
C445 C 0.19876 0.48219 0.05235 0.0
C446 C 0.2096 0.50534 0.04081 0.0
C447 C 0.19553 0.5294 0.04354 0.0
C448 C 0.17471 0.4837 0.06666 0.0
N449 N 0.16172 0.5075 0.06946 0.0
H450 H 0.16105 0.54872 0.05976 0.0
H451 H 0.16648 0.46576 0.07536 0.0
H452 H 0.18466 0.52373 0.11493 0.0
H453 H 0.10983 0.56027 0.12554 0.0
O454 O 0.11178 0.53804 0.0672 0.0
O455 O 0.09284 0.51825 0.10203 0.0
O456 O 0.13863 0.48157 0.11445 0.0
C457 C 0.09103 0.53542 0.08257 0.0
H458 H 0.0761 0.43161 0.05361 0.0
H459 H 0.18947 0.56115 0.15183 0.0
H460 H 0.20895 0.46319 0.05071 0.0
H461 H 0.20284 0.54766 0.03457 0.0
Co462 Co 0.75851 0.64347 0.18593 0.0
C463 C 0.73319 0.67395 0.23018 0.0
C464 C 0.70482 0.64996 0.20898 0.0
C465 C 0.69184 0.66238 0.22972 0.0
N466 N 0.73071 0.65747 0.209 0.0
N467 N 0.70976 0.67731 0.24305 0.0
H468 H 0.75175 0.68296 0.2365 0.0
H469 H 0.69609 0.63548 0.19564 0.0
C470 C 0.7293 0.62504 0.13556 0.0
O471 O 0.75063 0.61362 0.1255 0.0
N472 N 0.78671 0.62946 0.16339 0.0
C473 C 0.80328 0.60908 0.16932 0.0
C474 C 0.82303 0.60786 0.15034 0.0
C475 C 0.79721 0.64092 0.14129 0.0
N476 N 0.81921 0.62786 0.1327 0.0
C477 C 0.76124 0.60867 0.23043 0.0
C478 C 0.74464 0.56244 0.20539 0.0
C479 C 0.75201 0.56135 0.2324 0.0
C480 C 0.7601 0.58496 0.24493 0.0
C481 C 0.7462 0.58668 0.19149 0.0
N482 N 0.75471 0.60933 0.20401 0.0
H483 H 0.76755 0.62663 0.24048 0.0
H484 H 0.74131 0.58688 0.1706 0.0
H485 H 0.80203 0.59663 0.18688 0.0
H486 H 0.78893 0.65845 0.13175 0.0
O487 O 0.78608 0.65929 0.20798 0.0
O488 O 0.76646 0.67899 0.1735 0.0
O489 O 0.72967 0.63517 0.15896 0.0
C490 C 0.784 0.68016 0.1926 0.0
H491 H 0.6711 0.65971 0.23529 0.0
H492 H 0.83961 0.59397 0.15022 0.0
H493 H 0.73851 0.54459 0.19489 0.0
H494 H 0.76555 0.58514 0.26585 0.0
Co495 Co 0.8972 1.01063 0.08736 0.0
C496 C 0.91859 0.03768 0.03897 0.0
C497 C 0.92813 0.05841 0.07511 0.0
C498 C 0.94069 0.07103 0.05429 0.0
N499 N 0.914 0.03771 0.06554 0.0
N500 N 0.93478 0.058 0.03149 0.0
H501 H 0.91129 0.02248 0.02562 0.0
H502 H 0.93076 0.06295 0.096 0.0
C503 C 0.87744 0.04027 0.13712 0.0
O504 O 0.86402 0.01956 0.14588 0.0
N505 N 0.88125 0.98301 0.10942 0.0
C506 C 0.85987 0.96767 0.10375 0.0
C507 C 0.85788 0.94787 0.12272 0.0
C508 C 0.89212 0.97204 0.1316 0.0
N509 N 0.87821 0.95061 0.14018 0.0
C510 C 0.86084 1.00417 0.0437 0.0
C511 C 0.8179 0.03165 0.06475 0.0
C512 C 0.81492 0.01933 0.03976 0.0
C513 C 0.83708 1.00583 0.02919 0.0
C514 C 0.84223 0.02977 0.07857 0.0
N515 N 0.86339 0.01591 0.06816 0.0
H516 H 0.8771 0.99291 0.03522 0.0
H517 H 0.84343 0.03903 0.09782 0.0
H518 H 0.84703 0.96993 0.08657 0.0
H519 H 0.91032 0.97912 0.14082 0.0
O520 O 0.91297 0.98293 0.06534 0.0
O521 O 0.93216 1.00098 0.10074 0.0
O522 O 0.88912 0.03964 0.1144 0.0
C523 C 0.93356 0.98411 0.0811 0.0
H524 H 0.95453 0.08748 0.0562 0.0
H525 H 0.84278 0.93244 0.12337 0.0
H526 H 0.80135 0.04206 0.07399 0.0
H527 H 0.83616 0.99638 1.0098 0.0
Co528 Co 0.3378 0.26229 0.14477 0.0
C529 C 0.29248 0.28721 0.17457 0.0
C530 C 0.31327 0.31556 0.15019 0.0
C531 C 0.29216 0.32831 0.16235 0.0
N532 N 0.31378 0.28982 0.15811 0.0
N533 N 0.27907 0.31042 0.17757 0.0
H534 H 0.2865 0.2687 0.1839 0.0
H535 H 0.32653 0.32432 0.13563 0.0
C536 C 0.38861 0.29196 0.12798 0.0
O537 O 0.39998 0.27022 0.11889 0.0
N538 N 0.3611 0.2341 0.13137 0.0
C539 C 0.35588 0.21783 0.11059 0.0
C540 C 0.37481 0.19799 0.10974 0.0
C541 C 0.38283 0.22323 0.14338 0.0
N542 N 0.39177 0.2013 0.13037 0.0
C543 C 0.29399 0.25836 0.10884 0.0
C544 C 0.3201 0.27487 0.0631 0.0
C545 C 0.29323 0.26699 0.06125 0.0
C546 C 0.28015 0.25894 0.08467 0.0
C547 C 0.33329 0.27394 0.08778 0.0
N548 N 0.32027 0.26544 0.11019 0.0
H549 H 0.28356 0.25205 0.12662 0.0
H550 H 0.35414 0.27921 0.08853 0.0
H551 H 0.33887 0.21937 0.09742 0.0
H552 H 0.39156 0.23087 0.16157 0.0
O553 O 0.31592 0.23464 0.16081 0.0
O554 O 0.34981 0.25509 0.1806 0.0
O555 O 0.36445 0.29162 0.13636 0.0
C556 C 0.33087 0.2374 0.18192 0.0
H557 H 0.28623 0.34887 0.15932 0.0
H558 H 0.37578 0.18217 0.09509 0.0
H559 H 0.3311 0.28098 0.04552 0.0
H560 H 0.2593 0.25318 0.08438 0.0
Co561 Co 0.33969 0.76123 0.37639 0.0
C562 C 0.28967 0.7355 0.35717 0.0
C563 C 0.3249 0.71314 0.34725 0.0
C564 C 0.30328 0.7007 0.33608 0.0
N565 N 0.31646 0.73482 0.36062 0.0
N566 N 0.28105 0.7147 0.3422 0.0
H567 H 0.27701 0.75128 0.36474 0.0
H568 H 0.3455 0.7075 0.34443 0.0
C569 C 0.38173 0.72424 0.40197 0.0
O570 O 0.38033 0.73532 0.42561 0.0
N571 N 0.36385 0.78782 0.39184 0.0
C572 C 0.36977 0.7916 0.41789 0.0
C573 C 0.38843 0.81156 0.42015 0.0
C574 C 0.37908 0.80597 0.37872 0.0
N575 N 0.39418 0.8206 0.39553 0.0
C576 C 0.30908 0.77847 0.42083 0.0
C577 C 0.3049 0.72987 0.44665 0.0
C578 C 0.29319 0.75252 0.45837 0.0
C579 C 0.29516 0.77694 0.44485 0.0
C580 C 0.31886 0.73231 0.42246 0.0
N581 N 0.32149 0.75661 0.41037 0.0
H582 H 0.31045 0.79751 0.41079 0.0
H583 H 0.32743 0.71471 0.41341 0.0
H584 H 0.36133 0.78068 0.43443 0.0
H585 H 0.37968 0.80829 0.35729 0.0
O586 O 0.31744 0.78928 0.36179 0.0
O587 O 0.35178 0.77034 0.34111 0.0
O588 O 0.36679 0.73216 0.38292 0.0
C589 C 0.3322 0.78745 0.34048 0.0
H590 H 0.30419 0.68353 0.32305 0.0
H591 H 0.39689 0.81911 0.43853 0.0
H592 H 0.3036 0.71053 0.45623 0.0
H593 H 0.28584 0.79481 0.45269 0.0
Co594 Co 0.01573 0.4385 0.89359 0.0
C595 C 0.98933 0.482 0.92443 0.0
C596 C 0.96168 0.461 0.89945 0.0
C597 C 0.94819 0.48128 0.91212 0.0
N598 N 0.98745 0.46119 0.90741 0.0
N599 N 0.96565 0.49449 0.92769 0.0
H600 H 1.00763 0.48832 0.93395 0.0
H601 H 0.95338 0.44781 0.88458 0.0
C602 C 0.98653 0.38782 0.87487 0.0
O603 O 1.00747 0.37793 0.86261 0.0
N604 N 0.04436 0.41642 0.87983 0.0
C605 C 0.06335 0.4244 0.86246 0.0
C606 C 0.08327 0.40546 0.86168 0.0
C607 C 0.05335 0.39303 0.88987 0.0
N608 N 0.07685 0.38578 0.87883 0.0
C609 C 0.0166 0.48298 0.85835 0.0
C610 C 1.00264 0.45637 0.81212 0.0
C611 C 1.00776 0.48387 0.81085 0.0
C612 C 0.01472 0.49716 0.83444 0.0
C613 C 1.00491 0.44286 0.8365 0.0
N614 N 1.01183 0.45619 0.85922 0.0
H615 H 0.02198 0.49355 0.87634 0.0
H616 H 1.00167 0.42167 0.83681 0.0
H617 H 0.06338 0.44325 0.85195 0.0
H618 H 0.04328 0.38189 0.90541 0.0
O619 O 0.04288 0.46113 0.90957 0.0
O620 O 0.02384 0.42626 0.9291 0.0
O621 O 0.98723 0.41105 0.88539 0.0
C622 C 0.04107 0.44562 0.93039 0.0
H623 H 0.92742 0.48663 0.9092 0.0
H624 H 0.10119 0.40614 0.84958 0.0
H625 H 0.99759 0.44524 0.79432 0.0
H626 H 0.01857 0.51842 0.83448 0.0
Co627 Co 0.68308 0.76278 0.37474 0.0
C628 C 0.73294 0.78863 0.35568 0.0
C629 C 0.69798 0.81198 0.34717 0.0
C630 C 0.71967 0.82443 0.33605 0.0
N631 N 0.70625 0.78962 0.35957 0.0
N632 N 0.74171 0.80977 0.34126 0.0
H633 H 0.74541 0.77235 0.36251 0.0
H634 H 0.67744 0.81815 0.34501 0.0
C635 C 0.64123 0.79918 0.4013 0.0
O636 O 0.64313 0.78808 0.42493 0.0
N637 N 0.65901 0.73581 0.38963 0.0
C638 C 0.65289 0.73168 0.41559 0.0
C639 C 0.6341 0.7118 0.41746 0.0
C640 C 0.64378 0.71797 0.37616 0.0
N641 N 0.62848 0.7032 0.39269 0.0
C642 C 0.71354 0.74438 0.41888 0.0
C643 C 0.71817 0.79247 0.44545 0.0
C644 C 0.72959 0.76948 0.45684 0.0
C645 C 0.72738 0.74532 0.44298 0.0
C646 C 0.70421 0.79059 0.42123 0.0
N647 N 0.70135 0.76655 0.40876 0.0
H648 H 0.71201 0.72554 0.40852 0.0
H649 H 0.6958 0.80843 0.41246 0.0
H650 H 0.66125 0.7423 0.43233 0.0
H651 H 0.64326 0.71602 0.3547 0.0
O652 O 0.70534 0.73518 0.3594 0.0
O653 O 0.67087 0.75457 0.3393 0.0
O654 O 0.65594 0.79149 0.382 0.0
C655 C 0.69048 0.73754 0.33819 0.0
H656 H 0.71888 0.8421 0.32366 0.0
H657 H 0.62541 0.70405 0.43567 0.0
H658 H 0.71968 0.81162 0.45533 0.0
H659 H 0.73647 0.72722 0.4506 0.0
Co660 Co 0.51245 0.58356 0.39752 0.0
C661 C 0.54302 0.53859 0.42135 0.0
C662 C 0.56549 0.57477 0.42243 0.0
C663 C 0.57961 0.55537 0.43582 0.0
N664 N 0.54281 0.56411 0.4125 0.0
N665 N 0.56539 0.53255 0.43523 0.0
H666 H 0.5261 0.52536 0.41997 0.0
H667 H 0.57074 0.59564 0.42189 0.0
C668 C 0.55877 0.61451 0.37437 0.0
O669 O 0.56902 0.59245 0.36455 0.0
N670 N 0.48209 0.60314 0.38398 0.0
C671 C 0.46237 0.59378 0.36827 0.0
C672 C 0.44274 0.61296 0.36637 0.0
C673 C 0.47399 0.62759 0.39188 0.0
N674 N 0.44999 0.63407 0.38138 0.0
C675 C 0.51366 0.53831 0.36219 0.0
C676 C 0.51888 0.56652 0.31512 0.0
C677 C 0.51748 0.53852 0.31392 0.0
C678 C 0.51487 0.52451 0.33803 0.0
C679 C 0.51791 0.57954 0.33984 0.0
N680 N 0.51608 0.56541 0.36313 0.0
H681 H 0.50985 0.52707 0.38002 0.0
H682 H 0.51789 0.6011 0.34018 0.0
H683 H 0.46177 0.574 0.35969 0.0
H684 H 0.48507 0.64001 0.40563 0.0
O685 O 0.48806 0.55929 0.41521 0.0
O686 O 0.50452 0.59648 0.4327 0.0
O687 O 0.53638 0.61398 0.3866 0.0
C688 C 0.48929 0.57566 0.43537 0.0
H689 H 0.59834 0.55832 0.44616 0.0
H690 H 0.42397 0.61102 0.35581 0.0
H691 H 0.51993 0.57841 0.29711 0.0
H692 H 0.51355 0.50296 0.33838 0.0
Co693 Co 0.18863 0.75885 0.64131 0.0
C694 C 0.23378 0.73406 0.67107 0.0
C695 C 0.21008 0.70473 0.65093 0.0
C696 C 0.2308 0.69193 0.66369 0.0
N697 N 0.21175 0.73117 0.65576 0.0
N698 N 0.2457 0.71043 0.67624 0.0
H699 H 0.24122 0.753 0.67818 0.0
H700 H 0.19534 0.69521 0.63841 0.0
C701 C 0.13871 0.72931 0.62229 0.0
O702 O 0.12941 0.74978 0.60881 0.0
N703 N 0.16582 0.78684 0.62703 0.0
C704 C 0.17186 0.80377 0.60701 0.0
C705 C 0.15274 0.82349 0.60593 0.0
C706 C 0.14334 0.79691 0.63821 0.0
N707 N 0.13484 0.81927 0.62563 0.0
C708 C 0.23338 0.76103 0.6065 0.0
C709 C 0.20836 0.74429 0.56031 0.0
C710 C 0.23555 0.75113 0.55922 0.0
C711 C 0.24805 0.75931 0.58288 0.0
C712 C 0.19436 0.74628 0.58446 0.0
N713 N 0.20685 0.7548 0.60715 0.0
H714 H 0.24343 0.76747 0.62443 0.0
H715 H 0.17342 0.74159 0.58454 0.0
H716 H 0.18956 0.8027 0.59469 0.0
H717 H 0.13397 0.78858 0.65579 0.0
O718 O 0.21061 0.78653 0.65712 0.0
O719 O 0.1761 0.7669 0.67673 0.0
O720 O 0.16163 0.73014 0.63343 0.0
C721 C 0.19526 0.78434 0.67802 0.0
H722 H 0.23509 0.67077 0.66302 0.0
H723 H 0.15237 0.83993 0.59192 0.0
H724 H 0.19777 0.73817 0.5425 0.0
H725 H 0.26909 0.76436 0.58321 0.0
Co726 Co 1.01031 0.58674 0.62738 0.0
C727 C 0.98408 0.53752 0.60798 0.0
C728 C 0.96078 0.57267 0.60017 0.0
C729 C 0.94834 0.55125 0.58853 0.0
N730 N 0.9831 0.56406 0.6124 0.0
N731 N 0.963 0.52908 0.59329 0.0
H732 H 1.00041 0.52497 0.61454 0.0
H733 H 0.95475 0.59331 0.59842 0.0
C734 C 0.98161 0.63739 0.63071 0.0
O735 O 1.00197 0.64712 0.61736 0.0
N736 N 0.03743 0.61024 0.64235 0.0
C737 C 0.03927 0.61816 0.66803 0.0
C738 C 0.05894 0.63721 0.67014 0.0
C739 C 0.05573 0.62511 0.62915 0.0
N740 N 0.06903 0.64166 0.64564 0.0
C741 C 0.03001 0.5558 0.67069 0.0
C742 C 0.98262 0.55192 0.69886 0.0
C743 C 1.00582 0.5402 0.7095 0.0
C744 C 0.02965 0.54211 0.69492 0.0
C745 C 0.98391 0.56575 0.67455 0.0
N746 N 1.00754 0.56788 0.66109 0.0
H747 H 0.04859 0.55725 0.65979 0.0
H748 H 0.96595 0.57468 0.66653 0.0
H749 H 0.02636 0.61155 0.68402 0.0
H750 H 0.05865 0.62485 0.60778 0.0
O751 O 0.03752 0.56493 0.61098 0.0
O752 O 0.01789 0.59965 0.59173 0.0
O753 O 0.98179 0.61297 0.63796 0.0
C754 C 0.03488 0.57998 0.59002 0.0
H755 H 0.93071 0.55238 0.57609 0.0
H756 H 0.06433 0.6481 0.68799 0.0
H757 H 0.96378 0.55083 0.70945 0.0
H758 H 0.04791 0.53296 0.7021 0.0
Co759 Co 1.01242 0.93505 0.62882 0.0
C760 C 0.0369 0.98077 0.59954 0.0
C761 C 0.06581 0.95906 0.62253 0.0
C762 C 0.07846 0.98017 0.61035 0.0
N763 N 0.03978 0.95915 0.61548 0.0
N764 N 0.06024 0.99381 0.596 0.0
H765 H 0.01818 0.98713 0.59086 0.0
H766 H 0.07495 0.94526 0.63636 0.0
C767 C 0.04223 0.8846 0.64611 0.0
O768 O 0.02071 0.87396 0.65658 0.0
N769 N 0.98449 0.91154 0.64222 0.0
C770 C 0.9685 0.91611 0.66341 0.0
C771 C 0.94854 0.8973 0.66384 0.0
C772 C 0.97352 0.89023 0.62974 0.0
N773 N 0.95161 0.88107 0.64262 0.0
C774 C 1.00724 0.97858 0.66474 0.0
C775 C 0.02777 0.95405 0.70973 0.0
C776 C 0.01888 0.98056 0.71158 0.0
C777 C 1.00863 0.99281 0.68861 0.0
C778 C 0.02579 0.94038 0.68542 0.0
N779 N 0.01547 0.95266 0.66333 0.0
H780 H 0.99957 0.98851 0.64721 0.0
H781 H 0.03209 0.91986 0.68469 0.0
H782 H 0.9703 0.93261 0.67713 0.0
H783 H 0.98094 0.88209 0.61117 0.0
O784 O 0.98437 0.95661 0.61266 0.0
O785 O 1.00549 0.92309 0.59304 0.0
O786 O 0.04188 0.90846 0.637 0.0
C787 C 0.98748 0.94173 0.59157 0.0
H788 H 0.09926 0.98562 0.61267 0.0
H789 H 0.93275 0.89597 0.67854 0.0
H790 H 0.03558 0.94375 0.72707 0.0
H791 H 1.0019 0.01336 0.68901 0.0
Co792 Co 0.64533 0.83751 0.76073 0.0
C793 C 0.66802 0.79195 0.79112 0.0
C794 C 0.67226 0.82857 0.81247 0.0
C795 C 0.6852 0.80879 0.82643 0.0
N796 N 0.66066 0.81792 0.79065 0.0
N797 N 0.68268 0.7857 0.81289 0.0
H798 H 0.66511 0.77846 0.77466 0.0
H799 H 0.67311 0.84958 0.81712 0.0
C800 C 0.62431 0.86797 0.80816 0.0
O801 O 0.61475 0.84571 0.81819 0.0
N802 N 0.63125 0.85696 0.73069 0.0
C803 C 0.6194 0.84613 0.70914 0.0
C804 C 0.61769 0.86526 0.68948 0.0
C805 C 0.63657 0.88247 0.72399 0.0
N806 N 0.62857 0.888 0.69885 0.0
C807 C 0.60952 0.79279 0.76032 0.0
C808 C 0.56288 0.82079 0.7697 0.0
C809 C 0.56147 0.79306 0.76611 0.0
C810 C 0.58526 0.77913 0.76127 0.0
C811 C 0.58769 0.83376 0.76836 0.0
N812 N 0.61082 0.81962 0.76476 0.0
H813 H 0.62709 0.78176 0.75484 0.0
H814 H 0.58816 0.85527 0.76958 0.0
H815 H 0.61375 0.82538 0.70734 0.0
H816 H 0.64759 0.89614 0.73656 0.0
O817 O 0.66241 0.81305 0.73614 0.0
O818 O 0.68064 0.85011 0.75195 0.0
O819 O 0.63528 0.868 0.78512 0.0
C820 C 0.6828 0.82916 0.73682 0.0
H821 H 0.69665 0.81169 0.84449 0.0
H822 H 0.60967 0.86252 0.66961 0.0
H823 H 0.54489 0.83248 0.77257 0.0
H824 H 0.58515 0.75779 0.75789 0.0
Co825 Co 0.08594 0.12638 0.51048 0.0
C826 C 0.04251 0.09533 0.48442 0.0
C827 C 0.06411 0.1192 0.45624 0.0
C828 C 0.0439 0.10616 0.44294 0.0
N829 N 0.06348 0.11216 0.48224 0.0
N830 N 0.03031 0.09129 0.46075 0.0
H831 H 0.03585 0.08648 0.50292 0.0
H832 H 0.07756 0.13367 0.44759 0.0
C833 C 0.1365 0.14611 0.48179 0.0
O834 O 0.14563 0.15887 0.50273 0.0
N835 N 0.10768 0.14049 0.53914 0.0
C836 C 0.09921 0.15777 0.55796 0.0
C837 C 0.11794 0.15895 0.57801 0.0
C838 C 0.13122 0.1309 0.54835 0.0
N839 N 0.13801 0.14215 0.57183 0.0
C840 C 0.04118 0.16134 0.51238 0.0
C841 C 0.06698 0.20761 0.49699 0.0
C842 C 0.0398 0.20882 0.50365 0.0
C843 C 0.02687 0.18525 0.5113 0.0
C844 C 0.08069 0.1833 0.49872 0.0
N845 N 0.06779 0.16055 0.50644 0.0
H846 H 0.03087 0.14335 0.51827 0.0
H847 H 0.1017 0.18315 0.49444 0.0
H848 H 0.08015 0.16795 0.55781 0.0
H849 H 0.14278 0.11555 0.53846 0.0
O850 O 0.06334 0.11033 0.5375 0.0
O851 O 0.09848 0.09091 0.51878 0.0
O852 O 0.11357 0.13486 0.48221 0.0
C853 C 0.0789 0.08953 0.53579 0.0
H854 H 0.03885 0.10836 0.42206 0.0
H855 H 0.11686 0.17103 0.59587 0.0
H856 H 0.07776 0.22546 0.49127 0.0
H857 H 1.00583 0.18529 0.51639 0.0
Co858 Co 0.3797 0.68687 0.75993 0.0
C859 C 0.35863 0.7358 0.78602 0.0
C860 C 0.35163 0.70039 0.80913 0.0
C861 C 0.33947 0.72149 0.82165 0.0
N862 N 0.36372 0.70933 0.7869 0.0
N863 N 0.34374 0.74383 0.80715 0.0
H864 H 0.36495 0.7486 0.76982 0.0
H865 H 0.3504 0.67971 0.81511 0.0
C866 C 0.38399 0.63643 0.7886 0.0
O867 O 0.37139 0.62647 0.76791 0.0
N868 N 0.39569 0.66363 0.73318 0.0
C869 C 0.42027 0.65267 0.73493 0.0
C870 C 0.42305 0.63371 0.71529 0.0
C871 C 0.38392 0.65118 0.71228 0.0
N872 N 0.40015 0.63274 0.70116 0.0
C873 C 0.42328 0.71748 0.74027 0.0
C874 C 0.44932 0.72463 0.78843 0.0
C875 C 0.46057 0.73558 0.76517 0.0
C876 C 0.4471 0.73192 0.74092 0.0
C877 C 0.42548 0.71001 0.78686 0.0
N878 N 0.413 0.70642 0.76291 0.0
H879 H 0.4131 0.71487 0.72143 0.0
H880 H 0.41698 0.70168 0.80486 0.0
H881 H 0.4347 0.65717 0.75033 0.0
H882 H 0.36339 0.65412 0.70626 0.0
O883 O 0.36284 0.70816 0.73258 0.0
O884 O 0.34455 0.67291 0.75218 0.0
O885 O 0.39063 0.66103 0.78865 0.0
C886 C 0.34225 0.69258 0.73532 0.0
H887 H 0.32709 0.72004 0.83928 0.0
H888 H 0.44031 0.62106 0.71211 0.0
H889 H 0.45909 0.72694 0.80757 0.0
H890 H 0.45478 0.74035 0.72255 0.0
Co891 Co 0.93959 0.39365 0.5125 0.0
C892 C 0.9869 0.42134 0.48882 0.0
C893 C 0.96093 0.40539 0.45881 0.0
C894 C 0.98183 0.418 0.44637 0.0
N895 N 0.96383 0.40763 0.4855 0.0
N896 N 0.99811 0.42809 0.46521 0.0
H897 H 0.99518 0.42669 0.508 0.0
H898 H 0.94496 0.39507 0.4487 0.0
C899 C 0.89222 0.37168 0.48092 0.0
O900 O 0.88615 0.3539 0.49917 0.0
N901 N 0.9151 0.37963 0.53956 0.0
C902 C 0.91455 0.35491 0.55038 0.0
C903 C 0.8952 0.35398 0.5698 0.0
C904 C 0.89553 0.39318 0.55248 0.0
N905 N 0.88333 0.37805 0.5712 0.0
C906 C 0.97431 0.35141 0.52874 0.0
C907 C 0.96779 0.3191 0.48456 0.0
C908 C 0.98434 0.31039 0.50541 0.0
C909 C 0.98765 0.32699 0.5276 0.0
C910 C 0.95436 0.34355 0.4867 0.0
N911 N 0.9572 0.35911 0.50892 0.0
H912 H 0.97704 0.36374 0.54616 0.0
H913 H 0.94196 0.34989 0.4703 0.0
H914 H 0.92669 0.33817 0.54446 0.0
H915 H 0.89053 0.41384 0.54874 0.0
O916 O 0.96133 0.40908 0.54068 0.0
O917 O 0.92773 0.42938 0.52021 0.0
O918 O 0.91268 0.38662 0.48354 0.0
C919 C 0.94642 0.43024 0.53817 0.0
H920 H 0.985 0.4193 0.42504 0.0
H921 H 0.88996 0.33672 0.5817 0.0
H922 H 0.96494 0.30692 0.46695 0.0
H923 H 1.0006 0.32118 0.54394 0.0
Co924 Co 0.6497 0.18853 0.76209 0.0
C925 C 0.67414 0.23757 0.73883 0.0
C926 C 0.66734 0.20746 0.70923 0.0
C927 C 0.6793 0.22889 0.69716 0.0
N928 N 0.66408 0.21277 0.73542 0.0
N929 N 0.68383 0.24775 0.71576 0.0
H930 H 0.6752 0.24762 0.75788 0.0
H931 H 0.66179 0.18924 0.69922 0.0
C932 C 0.62377 0.14737 0.72468 0.0
O933 O 0.5997 0.14924 0.7349 0.0
N934 N 0.63534 0.16347 0.78841 0.0
C935 C 0.60939 0.15741 0.7925 0.0
C936 C 0.60759 0.13763 0.81132 0.0
C937 C 0.64896 0.14682 0.80492 0.0
N938 N 0.63245 0.13094 0.81928 0.0
C939 C 0.60515 0.21832 0.78106 0.0
C940 C 0.57803 0.223 0.73322 0.0
C941 C 0.56675 0.2343 0.75628 0.0
C942 C 0.58088 0.23203 0.78034 0.0
C943 C 0.60242 0.20923 0.73487 0.0
N944 N 0.61521 0.20633 0.75878 0.0
H945 H 0.6157 0.21677 0.79981 0.0
H946 H 0.61098 0.20097 0.71691 0.0
H947 H 0.59258 0.16613 0.78218 0.0
H948 H 0.67048 0.14617 0.80643 0.0
O949 O 0.66483 0.21017 0.79033 0.0
O950 O 0.68548 0.17676 0.76989 0.0
O951 O 0.6429 0.1617 0.73328 0.0
C952 C 0.68631 0.19572 0.78756 0.0
H953 H 0.68441 0.23031 0.67623 0.0
H954 H 0.58922 0.12841 0.81797 0.0
H955 H 0.56795 0.22444 0.71416 0.0
H956 H 0.57337 0.24099 0.79851 0.0
Co957 Co 0.4389 0.13189 0.51489 0.0
C958 C 0.48479 0.10259 0.53896 0.0
C959 C 0.46158 0.12299 0.56857 0.0
C960 C 0.48266 0.11052 0.58103 0.0
N961 N 0.46269 0.11781 0.54216 0.0
N962 N 0.49724 0.09778 0.56238 0.0
H963 H 0.49184 0.09525 0.51995 0.0
H964 H 0.44699 0.13557 0.57827 0.0
C965 C 0.38952 0.1513 0.54506 0.0
O966 O 0.37968 0.16397 0.52434 0.0
N967 N 0.41564 0.14599 0.48716 0.0
C968 C 0.42126 0.16648 0.47062 0.0
C969 C 0.40222 0.16759 0.45093 0.0
C970 C 0.39343 0.13456 0.47681 0.0
N971 N 0.38479 0.14743 0.45467 0.0
C972 C 0.48354 0.16677 0.50982 0.0
C973 C 0.45935 0.21278 0.52832 0.0
C974 C 0.48604 0.21405 0.51976 0.0
C975 C 0.49813 0.19051 0.51059 0.0
C976 C 0.44541 0.18858 0.52716 0.0
N977 N 0.45746 0.16597 0.51777 0.0
H978 H 0.49324 0.14887 0.50271 0.0
H979 H 0.42481 0.18842 0.53319 0.0
H980 H 0.43867 0.17915 0.47183 0.0
H981 H 0.3844 0.11661 0.48471 0.0
O982 O 0.45983 0.11502 0.48686 0.0
O983 O 0.42579 0.09646 0.50818 0.0
O984 O 0.41267 0.14059 0.54418 0.0
C985 C 0.44437 0.09434 0.49021 0.0
H986 H 0.48734 0.11147 0.60209 0.0
H987 H 0.40163 0.18193 0.43479 0.0
H988 H 0.44905 0.23048 0.53524 0.0
H989 H 0.5188 0.19035 0.50419 0.0
Co990 Co 0.38063 0.33367 0.7639 0.0
C991 C 0.34929 0.28978 0.73847 0.0
C992 C 0.37448 0.31009 0.71046 0.0
C993 C 0.36118 0.29004 0.69726 0.0
N994 N 0.36681 0.3102 0.73627 0.0
N995 N 0.34542 0.27727 0.71492 0.0
H996 H 0.33969 0.28386 0.75686 0.0
H997 H 0.38942 0.32307 0.70188 0.0
C998 C 0.39715 0.38459 0.73442 0.0
O999 O 0.40835 0.39504 0.75562 0.0
N1000 N 0.39429 0.3568 0.7919 0.0
C1001 C 0.41491 0.35169 0.80846 0.0
C1002 C 0.41564 0.371 0.82794 0.0
C1003 C 0.3823 0.37877 0.80212 0.0
N1004 N 0.3951 0.38804 0.82398 0.0
C1005 C 0.41689 0.29004 0.76566 0.0
C1006 C 0.46239 0.31687 0.74958 0.0
C1007 C 0.4644 0.28969 0.75617 0.0
C1008 C 0.4411 0.27627 0.76403 0.0
C1009 C 0.43768 0.32998 0.75154 0.0
N1010 N 0.41537 0.31657 0.75976 0.0
H1011 H 0.39919 0.27933 0.77177 0.0
H1012 H 0.43681 0.35099 0.74718 0.0
H1013 H 0.42803 0.3346 0.80722 0.0
H1014 H 0.36423 0.38746 0.79402 0.0
O1015 O 0.36559 0.31118 0.79167 0.0
O1016 O 0.3449 0.34521 0.77222 0.0
O1017 O 0.38791 0.36081 0.73487 0.0
C1018 C 0.34438 0.32619 0.78988 0.0
H1019 H 0.36368 0.28461 0.67651 0.0
H1020 H 0.43012 0.37219 0.84392 0.0
H1021 H 0.47989 0.32813 0.74369 0.0
H1022 H 0.44151 0.2552 0.76886 0.0
Co1023 Co 0.59156 0.39648 0.51558 0.0
C1024 C 0.54267 0.41794 0.54146 0.0
C1025 C 0.57645 0.41801 0.56783 0.0
C1026 C 0.55513 0.42919 0.58088 0.0
N1027 N 0.56866 0.41081 0.54318 0.0
N1028 N 0.53386 0.42949 0.56427 0.0
H1029 H 0.53089 0.41573 0.52352 0.0
H1030 H 0.59646 0.41622 0.57564 0.0
C1031 C 0.64238 0.39189 0.54373 0.0
O1032 O 0.65197 0.40577 0.52368 0.0
N1033 N 0.61505 0.38199 0.48822 0.0
C1034 C 0.62393 0.3566 0.48708 0.0
C1035 C 0.64285 0.35461 0.46729 0.0
C1036 C 0.62909 0.39518 0.46925 0.0
N1037 N 0.64619 0.37891 0.45624 0.0
C1038 C 0.56038 0.35347 0.49511 0.0
C1039 C 0.55636 0.3249 0.54221 0.0
C1040 C 0.5442 0.31466 0.51912 0.0
C1041 C 0.54629 0.32942 0.49539 0.0
C1042 C 0.57043 0.34903 0.54103 0.0
N1043 N 0.57255 0.36277 0.51759 0.0
H1044 H 0.56184 0.3646 0.47668 0.0
H1045 H 0.57951 0.35672 0.559 0.0
H1046 H 0.61804 0.3408 0.50056 0.0
H1047 H 0.62767 0.41637 0.46554 0.0
O1048 O 0.57011 0.41392 0.48862 0.0
O1049 O 0.60479 0.4322 0.50914 0.0
O1050 O 0.61787 0.38485 0.54362 0.0
C1051 C 0.58535 0.43464 0.49201 0.0
H1052 H 0.55564 0.43695 0.60099 0.0
H1053 H 0.65428 0.33693 0.46237 0.0
H1054 H 0.55534 0.3142 0.56096 0.0
H1055 H 0.53686 0.32261 0.47718 0.0
Co1056 Co 0.76336 0.64962 0.83678 0.0
C1057 C 0.78628 0.67523 0.78814 0.0
C1058 C 0.81682 0.66317 0.81564 0.0
C1059 C 0.82884 0.67449 0.7938 0.0
N1060 N 0.79006 0.66378 0.81233 0.0
N1061 N 0.80968 0.68218 0.77653 0.0
H1062 H 0.76689 0.67867 0.77927 0.0
H1063 H 0.82729 0.65465 0.83241 0.0
C1064 C 0.79544 0.62523 0.88253 0.0
O1065 O 0.7774 0.60692 0.88751 0.0
N1066 N 0.73642 0.63523 0.86124 0.0
C1067 C 0.72622 0.61025 0.86171 0.0
C1068 C 0.70657 0.60879 0.88072 0.0
C1069 C 0.7228 0.64846 0.88054 0.0
N1070 N 0.70432 0.63281 0.89248 0.0
C1071 C 0.74589 0.6082 0.80184 0.0
C1072 C 0.79064 0.57606 0.80617 0.0
C1073 C 0.76919 0.5675 0.79037 0.0
C1074 C 0.74673 0.58404 0.78808 0.0
C1075 C 0.78884 0.60025 0.81995 0.0
N1076 N 0.76631 0.61561 0.81833 0.0
H1077 H 0.7283 0.62055 0.8 0.0
H1078 H 0.80576 0.60659 0.83163 0.0
H1079 H 0.73286 0.59361 0.84981 0.0
H1080 H 0.72587 0.66922 0.88551 0.0
O1081 O 0.73499 0.66606 0.81606 0.0
O1082 O 0.75658 0.68517 0.84954 0.0
O1083 O 0.79264 0.64136 0.86303 0.0
C1084 C 0.73844 0.68696 0.83109 0.0
H1085 H 0.85015 0.67646 0.79071 0.0
H1086 H 0.69513 0.5912 0.88587 0.0
H1087 H 0.80849 0.56397 0.80819 0.0
H1088 H 0.72995 0.57838 0.77567 0.0
Co1089 Co 0.89709 1.00699 0.43509 0.0
C1090 C 0.91935 0.98167 0.48398 0.0
C1091 C 0.91888 0.95485 0.45066 0.0
C1092 C 0.9307 0.94216 0.47184 0.0
N1093 N 0.91162 0.97958 0.45822 0.0
N1094 N 0.93135 0.95907 0.49278 0.0
H1095 H 0.9174 0.99977 0.49556 0.0
H1096 H 0.91684 0.94677 0.43083 0.0
C1097 C 0.89362 0.97854 0.38453 0.0
O1098 O 0.90759 0.99861 0.37512 0.0
N1099 N 0.88243 0.03416 0.41136 0.0
C1100 C 0.85694 0.03511 0.40265 0.0
C1101 C 0.85477 0.05448 0.38334 0.0
C1102 C 0.8955 0.05284 0.39678 0.0
N1103 N 0.87904 0.0655 0.37952 0.0
C1104 C 0.85424 0.02719 0.46659 0.0
C1105 C 0.82474 0.98064 0.46953 0.0
C1106 C 0.81486 1.00366 0.48222 0.0
C1107 C 0.83022 0.02705 0.48074 0.0
C1108 C 0.84904 0.98161 0.45558 0.0
N1109 N 0.86322 1.00482 0.45396 0.0
H1110 H 0.86562 0.04547 0.46548 0.0
H1111 H 0.85646 0.96369 0.44616 0.0
H1112 H 0.84119 0.02174 0.4089 0.0
H1113 H 0.91673 0.05656 0.39793 0.0
O1114 O 0.914 0.03405 0.45659 0.0
O1115 O 0.93288 0.01389 0.42204 0.0
O1116 O 0.88602 0.97874 0.40884 0.0
C1117 C 0.9349 0.03096 0.44151 0.0
H1118 H 0.93875 0.92213 0.47147 0.0
H1119 H 0.83696 0.0591 0.37197 0.0
H1120 H 0.81364 0.96211 0.47 0.0
H1121 H 0.82389 0.04518 0.49063 0.0
Co1122 Co 0.25985 0.87735 0.83287 0.0
C1123 C 0.23588 0.84767 0.78732 0.0
C1124 C 0.20628 0.86865 0.81006 0.0
C1125 C 0.19386 0.85644 0.78887 0.0
N1126 N 0.23262 0.86291 0.80934 0.0
N1127 N 0.21252 0.84337 0.77456 0.0
H1128 H 0.25489 0.84011 0.78042 0.0
H1129 H 0.19671 0.88167 0.82434 0.0
C1130 C 0.23002 0.89404 0.88365 0.0
O1131 O 0.25087 0.90656 0.89334 0.0
N1132 N 0.28759 0.89181 0.85576 0.0
C1133 C 0.30363 0.91262 0.84997 0.0
C1134 C 0.32332 0.91423 0.86896 0.0
C1135 C 0.29841 0.8805 0.87782 0.0
N1136 N 0.32006 0.89407 0.88652 0.0
C1137 C 0.26191 0.9136 0.78926 0.0
C1138 C 0.24424 0.95872 0.8156 0.0
C1139 C 0.25215 0.96097 0.78881 0.0
C1140 C 0.26073 0.93785 0.77559 0.0
C1141 C 0.24584 0.93399 0.82863 0.0
N1142 N 0.25496 0.91188 0.81553 0.0
H1143 H 0.26877 0.8961 0.77873 0.0
H1144 H 0.24057 0.93303 0.84941 0.0
H1145 H 0.30208 0.92512 0.83247 0.0
H1146 H 0.29062 0.86268 0.88721 0.0
O1147 O 0.28806 0.86274 0.81053 0.0
O1148 O 0.26902 0.84188 0.84459 0.0
O1149 O 0.23061 0.88404 0.86018 0.0
C1150 C 0.28666 0.84155 0.82555 0.0
H1151 H 0.17287 0.85791 0.78381 0.0
H1152 H 0.33951 0.92852 0.8691 0.0
H1153 H 0.23769 0.97608 0.82667 0.0
H1154 H 0.26657 0.93847 0.75479 0.0
Co1155 Co 0.13116 0.51273 0.43776 0.0
C1156 C 0.1032 0.53704 0.48444 0.0
C1157 C 0.12162 0.56664 0.45965 0.0
C1158 C 0.10872 0.57936 0.48022 0.0
N1159 N 0.11798 0.54005 0.46203 0.0
N1160 N 0.09711 0.56075 0.49575 0.0
H1161 H 0.09658 0.51803 0.49218 0.0
H1162 H 0.13302 0.57644 0.44421 0.0
C1163 C 0.15314 0.54359 0.38999 0.0
O1164 O 0.16993 0.52456 0.38341 0.0
N1165 N 0.14433 0.48536 0.41322 0.0
C1166 C 0.16841 0.4731 0.41336 0.0
C1167 C 0.16887 0.45388 0.39387 0.0
C1168 C 0.13069 0.47349 0.39306 0.0
N1169 N 0.14517 0.45405 0.38119 0.0
C1170 C 0.17267 0.49591 0.47302 0.0
C1171 C 0.20693 0.53848 0.46562 0.0
C1172 C 0.21445 0.5179 0.48309 0.0
C1173 C 0.19686 0.49654 0.48679 0.0
C1174 C 0.18258 0.53687 0.4518 0.0
N1175 N 0.166 0.51545 0.45517 0.0
H1176 H 0.15966 0.47907 0.47619 0.0
H1177 H 0.17715 0.55309 0.43874 0.0
H1178 H 0.185 0.47772 0.42623 0.0
H1179 H 0.1104 0.47847 0.38751 0.0
O1180 O 0.1154 0.48492 0.45964 0.0
O1181 O 0.09492 0.5057 0.42646 0.0
O1182 O 0.13867 0.54159 0.41086 0.0
C1183 C 0.09395 0.48789 0.44531 0.0
H1184 H 0.10825 0.60067 0.48369 0.0
H1185 H 0.18553 0.4409 0.38919 0.0
H1186 H 0.2199 0.55547 0.4624 0.0
H1187 H 0.20169 0.48043 0.5004 0.0
Co1188 Co 0.76628 0.38238 0.69159 0.0
C1189 C 0.79161 0.35367 0.73705 0.0
C1190 C 0.8206 0.37464 0.71357 0.0
C1191 C 0.83356 0.36232 0.73446 0.0
N1192 N 0.79428 0.36897 0.71497 0.0
N1193 N 0.81526 0.34924 0.74922 0.0
H1194 H 0.7728 0.34595 0.7443 0.0
H1195 H 0.82986 0.38743 0.69888 0.0
C1196 C 0.79531 0.40146 0.6411 0.0
O1197 O 0.77448 0.41449 0.63193 0.0
N1198 N 0.73776 0.39563 0.66902 0.0
C1199 C 0.71844 0.41273 0.67683 0.0
C1200 C 0.69849 0.41299 0.65796 0.0
C1201 C 0.72898 0.38527 0.64571 0.0
N1202 N 0.70522 0.3958 0.63847 0.0
C1203 C 0.76246 0.41821 0.73529 0.0
C1204 C 0.77863 0.46396 0.70903 0.0
C1205 C 0.77106 0.46569 0.73589 0.0
C1206 C 0.76299 0.44239 0.74907 0.0
C1207 C 0.77747 0.43939 0.69587 0.0
N1208 N 0.76937 0.41691 0.70899 0.0
H1209 H 0.75625 0.40043 0.74578 0.0
H1210 H 0.78261 0.43884 0.67511 0.0
H1211 H 0.71815 0.42334 0.69559 0.0
H1212 H 0.73931 0.36981 0.63471 0.0
O1213 O 0.73891 0.36627 0.71384 0.0
O1214 O 0.75908 0.3467 0.67967 0.0
O1215 O 0.79488 0.39058 0.66419 0.0
C1216 C 0.74158 0.34525 0.69879 0.0
H1217 H 0.8547 0.36354 0.7389 0.0
H1218 H 0.68029 0.42467 0.6586 0.0
H1219 H 0.78471 0.48158 0.69807 0.0
H1220 H 0.75724 0.44282 0.7699 0.0
Co1221 Co 0.63116 0.01353 0.58722 0.0
C1222 C 0.60915 0.98656 0.5398 0.0
C1223 C 0.605 0.96258 0.57502 0.0
C1224 C 0.59213 0.95003 0.55433 0.0
N1225 N 0.61579 0.98542 0.56586 0.0
N1226 N 0.59461 0.96518 0.53217 0.0
H1227 H 0.61385 1.00327 0.52704 0.0
H1228 H 0.60493 0.95618 0.59559 0.0
C1229 C 0.63154 0.98472 0.63831 0.0
O1230 O 0.61521 1.00336 0.64672 0.0
N1231 N 0.64622 0.04211 0.60885 0.0
C1232 C 0.67008 0.05435 0.60609 0.0
C1233 C 0.67181 0.07472 0.62439 0.0
C1234 C 0.63366 0.05576 0.62848 0.0
N1235 N 0.64888 0.07557 0.63853 0.0
C1236 C 0.66745 0.02024 0.5435 0.0
C1237 C 0.71072 0.99367 0.56521 0.0
C1238 C 0.71346 1.0053 0.53983 0.0
C1239 C 0.69121 0.01846 0.52899 0.0
C1240 C 0.68644 0.99573 0.57906 0.0
N1241 N 0.66512 1.00906 0.56825 0.0
H1242 H 0.65096 0.03095 0.53472 0.0
H1243 H 0.6854 0.98727 0.59881 0.0
H1244 H 0.68515 0.04957 0.59145 0.0
H1245 H 0.61363 0.05153 0.63521 0.0
O1246 O 0.61432 0.04019 0.56463 0.0
O1247 O 0.59568 0.02179 0.60013 0.0
O1248 O 0.64131 0.98605 0.6148 0.0
C1249 C 0.59367 0.03829 0.58024 0.0
H1250 H 0.58044 0.93197 0.55605 0.0
H1251 H 0.68848 0.08827 0.62654 0.0
H1252 H 0.72741 0.98368 0.57468 0.0
H1253 H 0.69202 0.02739 0.50932 0.0
Co1254 Co 0.25992 0.14525 0.68677 0.0
C1255 C 0.23289 0.1673 0.73451 0.0
C1256 C 0.20739 0.16779 0.70011 0.0
C1257 C 0.19416 0.17985 0.72085 0.0
N1258 N 0.23162 0.15982 0.70867 0.0
N1259 N 0.21028 0.17985 0.74246 0.0
H1260 H 0.25052 0.16484 0.74673 0.0
H1261 H 0.20012 0.16612 0.67991 0.0
C1262 C 0.23267 0.14117 0.63529 0.0
O1263 O 0.25261 0.15542 0.62602 0.0
N1264 N 0.2881 0.13071 0.66415 0.0
C1265 C 0.29115 0.10493 0.65691 0.0
C1266 C 0.31122 0.10316 0.6382 0.0
C1267 C 0.30609 0.14427 0.64919 0.0
N1268 N 0.32037 0.12793 0.63326 0.0
C1269 C 0.27888 0.10218 0.71892 0.0
C1270 C 0.23159 0.07366 0.72079 0.0
C1271 C 0.25423 0.06328 0.73377 0.0
C1272 C 0.27802 0.07804 0.73284 0.0
C1273 C 0.23337 0.09787 0.70686 0.0
N1274 N 0.25695 0.11152 0.7057 0.0
H1275 H 0.2974 0.11324 0.71829 0.0
H1276 H 0.21576 0.10565 0.69709 0.0
H1277 H 0.27879 0.08859 0.66366 0.0
H1278 H 0.30809 0.16574 0.64893 0.0
O1279 O 0.28619 0.16218 0.70927 0.0
O1280 O 0.2673 0.18105 0.67397 0.0
O1281 O 0.23261 0.1339 0.65969 0.0
C1282 C 0.28369 0.18306 0.69409 0.0
H1283 H 0.17441 0.18856 0.71971 0.0
H1284 H 0.3175 0.08528 0.62783 0.0
H1285 H 0.2128 0.06297 0.72101 0.0
H1286 H 0.29586 0.07108 0.74293 0.0
Co1287 Co 0.39681 0.50867 0.58877 0.0
C1288 C 0.41862 0.53765 0.54173 0.0
C1289 C 0.43021 0.55543 0.57876 0.0
C1290 C 0.44365 0.56809 0.5585 0.0
N1291 N 0.41402 0.53668 0.56827 0.0
N1292 N 0.43647 0.55679 0.5352 0.0
H1293 H 0.41054 0.52369 0.52759 0.0
H1294 H 0.43349 0.55847 0.59986 0.0
C1295 C 0.37989 0.55967 0.61528 0.0
O1296 O 0.37371 0.56955 0.59177 0.0
N1297 N 0.38085 0.48047 0.60965 0.0
C1298 C 0.36319 0.46204 0.60126 0.0
C1299 C 0.3607 0.44278 0.62069 0.0
C1300 C 0.38898 0.47211 0.63394 0.0
N1301 N 0.37714 0.44894 0.64115 0.0
C1302 C 0.3616 0.50453 0.54378 0.0
C1303 C 0.31615 0.52443 0.56794 0.0
C1304 C 0.31478 0.51644 0.54117 0.0
C1305 C 0.33788 0.50617 0.52922 0.0
C1306 C 0.34031 0.52209 0.58194 0.0
N1307 N 0.36305 0.51336 0.56951 0.0
H1308 H 0.37856 0.49513 0.53448 0.0
H1309 H 0.34034 0.52656 0.60298 0.0
H1310 H 0.35373 0.46181 0.58188 0.0
H1311 H 0.40451 0.48194 0.64526 0.0
O1312 O 0.41372 0.482 0.56621 0.0
O1313 O 0.43139 0.49935 0.60278 0.0
O1314 O 0.3872 0.5353 0.61747 0.0
C1315 C 0.43384 0.48324 0.58263 0.0
H1316 H 0.45898 0.5831 0.56098 0.0
H1317 H 0.34824 0.42521 0.61938 0.0
H1318 H 0.29848 0.53147 0.57825 0.0
H1319 H 0.33759 0.49916 0.50879 0.0
Co1320 Co 0.83385 0.76157 0.63978 0.0
C1321 C 0.78994 0.78706 0.67067 0.0
C1322 C 0.81084 0.81544 0.64642 0.0
C1323 C 0.79031 0.8284 0.65934 0.0
N1324 N 0.81084 0.78952 0.65376 0.0
N1325 N 0.77717 0.81046 0.67446 0.0
H1326 H 0.78377 0.76853 0.67982 0.0
H1327 H 0.82414 0.82424 0.63189 0.0
C1328 C 0.88416 0.7908 0.62025 0.0
O1329 O 0.89386 0.76974 0.60811 0.0
N1330 N 0.85613 0.73307 0.62598 0.0
C1331 C 0.84806 0.71411 0.60867 0.0
C1332 C 0.86683 0.69404 0.60803 0.0
C1333 C 0.87946 0.72389 0.63611 0.0
N1334 N 0.88652 0.70029 0.62522 0.0
C1335 C 0.78886 0.7599 0.60515 0.0
C1336 C 0.81465 0.77421 0.55849 0.0
C1337 C 0.78714 0.76879 0.55763 0.0
C1338 C 0.77428 0.76167 0.58146 0.0
C1339 C 0.82856 0.7721 0.58267 0.0
N1340 N 0.81563 0.76501 0.60561 0.0
H1341 H 0.7786 0.75438 0.62329 0.0
H1342 H 0.84974 0.77564 0.58266 0.0
H1343 H 0.82918 0.71413 0.59819 0.0
H1344 H 0.89061 0.73384 0.6517 0.0
O1345 O 0.81181 0.73427 0.65637 0.0
O1346 O 0.84658 0.7541 0.67523 0.0
O1347 O 0.86094 0.79029 0.63095 0.0
C1348 C 0.82735 0.73678 0.67711 0.0
H1349 H 0.78483 0.84917 0.65698 0.0
H1350 H 0.86595 0.67606 0.59611 0.0
H1351 H 0.8255 0.77937 0.54052 0.0
H1352 H 0.75303 0.75759 0.58187 0.0
Co1353 Co 0.84022 0.26241 0.88116 0.0
C1354 C 0.79487 0.23795 0.85137 0.0
C1355 C 0.81737 0.20881 0.87328 0.0
C1356 C 0.79638 0.19616 0.86093 0.0
N1357 N 0.81668 0.23502 0.86704 0.0
N1358 N 0.78223 0.21452 0.84728 0.0
H1359 H 0.78803 0.25678 0.84334 0.0
H1360 H 0.83149 0.19949 0.88667 0.0
C1361 C 0.89011 0.23236 0.90018 0.0
O1362 O 0.89997 0.25319 0.91257 0.0
N1363 N 0.86333 0.29016 0.89523 0.0
C1364 C 0.85775 0.30684 0.91556 0.0
C1365 C 0.87697 0.3264 0.91652 0.0
C1366 C 0.88562 0.30026 0.88372 0.0
N1367 N 0.89445 0.32236 0.89642 0.0
C1368 C 0.79559 0.26536 0.91586 0.0
C1369 C 0.82023 0.24836 0.96221 0.0
C1370 C 0.79313 0.25568 0.96312 0.0
C1371 C 0.78083 0.26398 0.93941 0.0
C1372 C 0.83436 0.25004 0.93809 0.0
N1373 N 0.82203 0.25872 0.91534 0.0
H1374 H 0.78566 0.27184 0.89786 0.0
H1375 H 0.85526 0.24502 0.93806 0.0
H1376 H 0.8403 0.30575 0.92822 0.0
H1377 H 0.89463 0.29212 0.86587 0.0
O1378 O 0.81843 0.2903 0.86546 0.0
O1379 O 0.85258 0.27037 0.84554 0.0
O1380 O 0.867 0.23329 0.88932 0.0
C1381 C 0.83358 0.28807 0.84445 0.0
H1382 H 0.79135 0.17522 0.86267 0.0
H1383 H 0.87768 0.34262 0.93073 0.0
H1384 H 0.83062 0.24207 0.9801 0.0
H1385 H 0.75986 0.26934 0.93896 0.0
Co1386 Co 0.51122 0.94059 0.39859 0.0
C1387 C 0.4831 0.987 0.42242 0.0
C1388 C 0.45887 0.95197 0.42422 0.0
C1389 C 0.4457 0.97234 0.43709 0.0
N1390 N 0.48206 0.96131 0.41415 0.0
N1391 N 0.46102 0.99444 0.43602 0.0
H1392 H 0.50059 0.99943 0.42061 0.0
H1393 H 0.4525 0.93141 0.42397 0.0
C1394 C 0.46354 0.90995 0.37755 0.0
O1395 O 0.45345 0.93186 0.36721 0.0
N1396 N 0.54055 0.92004 0.38431 0.0
C1397 C 0.55986 0.92889 0.36779 0.0
C1398 C 0.57914 0.90944 0.36556 0.0
C1399 C 0.54859 0.89562 0.3924 0.0
N1400 N 0.57211 0.88866 0.38119 0.0
C1401 C 0.50917 0.98505 0.3622 0.0
C1402 C 0.50259 0.95561 0.31611 0.0
C1403 C 0.50399 0.9835 0.31426 0.0
C1404 C 0.50731 0.99821 0.33772 0.0
C1405 C 0.50405 0.94324 0.34113 0.0
N1406 N 0.50663 0.95798 0.36394 0.0
H1407 H 0.51379 0.99669 0.37954 0.0
H1408 H 0.50383 0.9217 0.34209 0.0
H1409 H 0.56049 0.94855 0.35891 0.0
H1410 H 0.53788 0.88361 0.40682 0.0
O1411 O 0.53695 0.96459 0.41467 0.0
O1412 O 0.52025 0.92817 0.43366 0.0
O1413 O 0.48612 0.91047 0.38943 0.0
C1414 C 0.5362 0.94855 0.43516 0.0
H1415 H 0.42675 0.97054 0.44731 0.0
H1416 H 0.59759 0.911 0.35439 0.0
H1417 H 0.50055 0.94347 0.29836 0.0
H1418 H 0.50954 0.01971 0.33706 0.0
Co1419 Co 0.1878 0.26009 0.8788 0.0
C1420 C 0.23718 0.28631 0.85916 0.0
C1421 C 0.2019 0.30956 0.85164 0.0
C1422 C 0.2233 0.3222 0.84014 0.0
N1423 N 0.21059 0.28716 0.86364 0.0
N1424 N 0.24555 0.30761 0.84474 0.0
H1425 H 0.24983 0.27 0.86559 0.0
H1426 H 0.18121 0.31557 0.85004 0.0
C1427 C 0.1376 0.28942 0.88332 0.0
O1428 O 0.12726 0.26933 0.8701 0.0
N1429 N 0.16411 0.23315 0.89385 0.0
C1430 C 0.15579 0.23174 0.91942 0.0
C1431 C 0.13637 0.2124 0.92149 0.0
C1432 C 0.14921 0.21486 0.88068 0.0
N1433 N 0.13213 0.20201 0.89706 0.0
C1434 C 0.21927 0.23999 0.92191 0.0
C1435 C 0.22431 0.28763 0.9493 0.0
C1436 C 0.23626 0.26459 0.95996 0.0
C1437 C 0.23368 0.24058 0.94579 0.0
C1438 C 0.2099 0.28614 0.92538 0.0
N1439 N 0.20724 0.26244 0.91225 0.0
H1440 H 0.21744 0.22136 0.91123 0.0
H1441 H 0.20102 0.30409 0.91734 0.0
H1442 H 0.16239 0.24474 0.9353 0.0
H1443 H 0.14993 0.21156 0.8594 0.0
O1444 O 0.20887 0.23271 0.86153 0.0
O1445 O 0.17407 0.25338 0.84346 0.0
O1446 O 0.16216 0.28878 0.89013 0.0
C1447 C 0.19335 0.23608 0.84097 0.0
H1448 H 0.22212 0.33999 0.82795 0.0
H1449 H 0.1252 0.20738 0.9393 0.0
H1450 H 0.22572 0.3066 0.95954 0.0
H1451 H 0.24294 0.22238 0.95294 0.0
Co1452 Co 0.01394 0.08347 0.89513 0.0
C1453 C 0.03739 0.03563 0.92197 0.0
C1454 C 0.06758 0.06219 0.90729 0.0
C1455 C 0.07994 0.04099 0.91945 0.0
N1456 N 0.04083 0.05906 0.90898 0.0
N1457 N 0.061 0.02435 0.92878 0.0
H1458 H 0.01812 0.02715 0.92677 0.0
H1459 H 0.07782 0.07855 0.89772 0.0
C1460 C 0.04668 0.12952 0.87217 0.0
O1461 O 0.02974 0.13441 0.85278 0.0
N1462 N 0.98717 0.10832 0.88115 0.0
C1463 C 0.97646 0.10911 0.85639 0.0
C1464 C 0.9577 0.12909 0.85523 0.0
C1465 C 0.97488 0.12842 0.89448 0.0
N1466 N 0.95664 0.14116 0.87918 0.0
C1467 C 0.99681 0.04895 0.85334 0.0
C1468 C 0.04105 0.05383 0.8207 0.0
C1469 C 0.01975 0.03764 0.81239 0.0
C1470 C 0.99757 0.03514 0.82922 0.0
C1471 C 0.03935 0.06767 0.84498 0.0
N1472 N 0.01707 0.06566 0.86066 0.0
H1473 H 0.97933 0.04684 0.86576 0.0
H1474 H 0.0561 0.07969 0.85112 0.0
H1475 H 0.9821 0.09675 0.83973 0.0
H1476 H 0.97884 0.13349 0.91507 0.0
O1477 O 0.9856 0.06209 0.91082 0.0
O1478 O 1.00649 0.0954 0.93091 0.0
O1479 O 0.04308 0.11 0.88804 0.0
C1480 C 0.98843 0.07683 0.93199 0.0
H1481 H 0.1013 0.03794 0.921 0.0
H1482 H 0.9461 0.13467 0.83786 0.0
H1483 H 0.0587 0.05609 0.80839 0.0
H1484 H 0.98089 0.02247 0.82386 0.0
Co1485 Co 0.68707 0.26234 0.14491 0.0
C1486 C 0.7357 0.23763 0.16942 0.0
C1487 C 0.7058 0.20849 0.16009 0.0
C1488 C 0.72692 0.19574 0.17197 0.0
N1489 N 0.71112 0.23485 0.15846 0.0
N1490 N 0.74567 0.21402 0.17808 0.0
H1491 H 0.74575 0.25656 0.17183 0.0
H1492 H 0.6878 0.19878 0.15333 0.0
C1493 C 0.64421 0.22605 0.11948 0.0
O1494 O 0.64535 0.23676 0.09562 0.0
N1495 N 0.66235 0.28959 0.13141 0.0
C1496 C 0.65527 0.29372 0.10571 0.0
C1497 C 0.63608 0.31331 0.10454 0.0
C1498 C 0.64724 0.30715 0.14548 0.0
N1499 N 0.63107 0.32175 0.12951 0.0
C1500 C 0.71649 0.28142 0.10039 0.0
C1501 C 0.72068 0.23372 0.07305 0.0
C1502 C 0.73293 0.25657 0.06237 0.0
C1503 C 0.73072 0.2806 0.07649 0.0
C1504 C 0.70642 0.23545 0.09708 0.0
N1505 N 0.70408 0.25924 0.11015 0.0
H1506 H 0.7152 0.30009 0.11109 0.0
H1507 H 0.69756 0.2176 0.10525 0.0
H1508 H 0.66315 0.28318 0.08867 0.0
H1509 H 0.64737 0.30891 0.16698 0.0
O1510 O 0.70966 0.28991 0.15998 0.0
O1511 O 0.67619 0.26977 0.18088 0.0
O1512 O 0.65938 0.23412 0.13824 0.0
C1513 C 0.69559 0.28701 0.18166 0.0
H1514 H 0.72826 0.17454 0.17586 0.0
H1515 H 0.62662 0.32091 0.08665 0.0
H1516 H 0.72195 0.21471 0.06286 0.0
H1517 H 0.74029 0.29863 0.06938 0.0
Co1518 Co 0.51379 0.08476 0.12978 0.0
C1519 C 0.48768 0.04119 0.09877 0.0
C1520 C 0.45975 0.06242 0.12331 0.0
C1521 C 0.44636 0.04219 0.1105 0.0
N1522 N 0.48563 0.06205 0.11574 0.0
N1523 N 0.46399 0.02882 0.09521 0.0
H1524 H 0.50608 0.03474 0.08951 0.0
H1525 H 0.45127 0.07573 0.138 0.0
C1526 C 0.48477 0.1357 0.14805 0.0
O1527 O 0.50611 0.14566 0.15949 0.0
N1528 N 0.54228 0.10711 0.14355 0.0
C1529 C 0.55971 0.10063 0.16302 0.0
C1530 C 0.57957 0.11955 0.16382 0.0
C1531 C 0.55241 0.12939 0.13213 0.0
N1532 N 0.57499 0.13764 0.14438 0.0
C1533 C 0.51266 0.04037 0.16496 0.0
C1534 C 0.50204 0.06767 0.21162 0.0
C1535 C 0.50555 0.03983 0.2128 0.0
C1536 C 0.51055 0.02623 0.18884 0.0
C1537 C 0.50382 0.08104 0.18712 0.0
N1538 N 0.50937 0.06738 0.16423 0.0
H1539 H 0.51701 0.02954 0.14685 0.0
H1540 H 0.50171 0.1024 0.18683 0.0
H1541 H 0.55894 0.08269 0.17498 0.0
H1542 H 0.54349 0.13924 0.11509 0.0
O1543 O 0.54109 0.06174 0.11477 0.0
O1544 O 0.52253 0.09637 0.0942 0.0
O1545 O 0.48521 0.11241 0.1376 0.0
C1546 C 0.5398 0.07693 0.09369 0.0
H1547 H 0.42553 0.03699 0.1131 0.0
H1548 H 0.59674 0.11927 0.17694 0.0
H1549 H 0.49862 0.07924 0.22953 0.0
H1550 H 0.51281 1.00476 0.18838 0.0
Co1551 Co 0.51188 0.43978 0.12754 0.0
C1552 C 0.5397 0.48647 0.10371 0.0
C1553 C 0.56426 0.45161 0.1022 0.0
C1554 C 0.57715 0.47195 0.08899 0.0
N1555 N 0.54101 0.46083 0.11227 0.0
N1556 N 0.56161 0.49395 0.08983 0.0
H1557 H 0.52209 0.49878 0.10547 0.0
H1558 H 0.57081 0.43109 0.10257 0.0
C1559 C 0.55979 0.40944 0.14898 0.0
O1560 O 0.56955 0.43145 0.15931 0.0
N1561 N 0.48248 0.41897 0.14152 0.0
C1562 C 0.46269 0.42801 0.1573 0.0
C1563 C 0.44331 0.40867 0.15916 0.0
C1564 C 0.47472 0.39439 0.13367 0.0
N1565 N 0.45069 0.38757 0.14408 0.0
C1566 C 0.51299 0.4842 0.16395 0.0
C1567 C 0.51972 0.45485 0.21015 0.0
C1568 C 0.51796 0.48274 0.21199 0.0
C1569 C 0.5145 0.49738 0.18844 0.0
C1570 C 0.51849 0.44245 0.18513 0.0
N1571 N 0.51589 0.45716 0.16226 0.0
H1572 H 0.50843 0.49581 0.14653 0.0
H1573 H 0.51902 0.42092 0.18421 0.0
H1574 H 0.46185 0.44773 0.16599 0.0
H1575 H 0.48575 0.38248 0.11943 0.0
O1576 O 0.48615 0.46365 0.11109 0.0
O1577 O 0.50339 0.42747 0.09225 0.0
O1578 O 0.53723 0.40978 0.137 0.0
C1579 C 0.48745 0.44787 0.09046 0.0
H1580 H 0.59603 0.47015 0.07865 0.0
H1581 H 0.42491 0.4104 0.17037 0.0
H1582 H 0.52197 0.44269 0.22789 0.0
H1583 H 0.51199 0.51885 0.189 0.0
C1584 C 0.20966 0.21116 0.30199 0.0
C1585 C 0.22219 0.20637 0.32659 0.0
H1586 H 0.18787 0.23874 0.27779 0.0
C1587 C 0.22021 0.22558 0.34682 0.0
H1588 H 0.21094 0.19667 0.28602 0.0
C1589 C 0.20664 0.24949 0.34232 0.0
C1590 C 0.19504 0.25499 0.31734 0.0
H1591 H 0.22938 0.22225 0.36612 0.0
H1592 H 0.20555 0.26381 0.35842 0.0
C1593 C 0.19632 0.23528 0.29735 0.0
C1594 C 0.45729 0.56862 0.97135 0.0
C1595 C 0.45367 0.55443 0.94747 0.0
H1596 H 0.48315 0.59367 0.9944 0.0
C1597 C 0.47391 0.55505 0.92806 0.0
H1598 H 0.44205 0.56843 0.9867 0.0
C1599 C 0.49733 0.56954 0.93243 0.0
C1600 C 0.50116 0.58347 0.95643 0.0
H1601 H 0.47168 0.54431 0.90945 0.0
H1602 H 0.51268 0.56946 0.91721 0.0
C1603 C 0.48089 0.58287 0.97585 0.0
C1604 C 0.83057 0.28955 0.29462 0.0
C1605 C 0.83373 0.27079 0.31532 0.0
H1606 H 0.81414 0.32739 0.2828 0.0
C1607 C 0.82427 0.2773 0.34094 0.0
H1608 H 0.83748 0.28524 0.27463 0.0
C1609 C 0.81047 0.30104 0.34539 0.0
C1610 C 0.80631 0.31916 0.32451 0.0
H1611 H 0.827 0.26379 0.35756 0.0
H1612 H 0.80279 0.30505 0.3652 0.0
C1613 C 0.8171 0.31364 0.29924 0.0
C1614 C 0.53876 0.94563 0.9783 0.0
C1615 C 0.52048 0.9423 0.95718 0.0
H1616 H 0.57645 0.96188 0.99083 0.0
C1617 C 0.5277 0.95149 0.93163 0.0
H1618 H 0.53395 0.93897 0.99825 0.0
C1619 C 0.55166 0.96504 0.9276 0.0
C1620 C 0.56935 0.96926 0.94885 0.0
H1621 H 0.51463 0.94866 0.9147 0.0
H1622 H 0.55622 0.97245 0.9078 0.0
C1623 C 0.56308 0.95885 0.9741 0.0
C1624 C 0.19293 0.79305 0.22802 0.0
C1625 C 0.19516 0.77141 0.21031 0.0
H1626 H 0.2049 0.83312 0.23716 0.0
C1627 C 0.21199 0.77385 0.18799 0.0
H1628 H 0.17998 0.79183 0.24527 0.0
C1629 C 0.22614 0.79734 0.18334 0.0
C1630 C 0.22376 0.81904 0.20085 0.0
H1631 H 0.21454 0.75744 0.17422 0.0
H1632 H 0.23895 0.79845 0.16595 0.0
C1633 C 0.20704 0.81671 0.22327 0.0
C1634 C 0.04768 0.55395 0.09856 0.0
C1635 C 0.06657 0.55116 0.07812 0.0
H1636 H 1.00982 0.56949 0.11028 0.0
C1637 C 0.06156 0.56294 0.05318 0.0
H1638 H 0.05125 0.54541 0.11811 0.0
C1639 C 0.03751 0.57635 0.04844 0.0
C1640 C 0.01812 0.57851 0.06867 0.0
H1641 H 0.07584 0.56104 0.03705 0.0
H1642 H 0.03387 0.58418 0.02866 0.0
C1643 C 0.02385 0.56769 0.09398 0.0
C1644 C 0.80195 0.72381 0.17697 0.0
C1645 C 0.79988 0.70451 0.19714 0.0
H1646 H 0.81669 0.76205 0.16553 0.0
C1647 C 0.8122 0.70921 0.22185 0.0
H1648 H 0.79295 0.72055 0.15759 0.0
C1649 C 0.82547 0.7333 0.22664 0.0
C1650 C 0.82691 0.75306 0.20669 0.0
H1651 H 0.81083 0.69464 0.23778 0.0
H1652 H 0.83378 0.73664 0.24626 0.0
C1653 C 0.81547 0.7477 0.18161 0.0
C1654 C 0.98649 0.94219 0.04683 0.0
C1655 C 1.00603 0.93989 0.06694 0.0
H1656 H 0.9482 0.95788 0.03557 0.0
C1657 C 1.00051 0.95091 0.09219 0.0
H1658 H 0.98993 0.93421 0.02709 0.0
C1659 C 0.97679 0.96486 0.09685 0.0
C1660 C 0.95774 0.96779 0.07654 0.0
H1661 H 0.01462 0.94905 0.10842 0.0
H1662 H 0.97347 0.97352 0.11636 0.0
C1663 C 0.96255 0.95588 0.05163 0.0
C1664 C 0.29699 0.19511 0.23478 0.0
C1665 C 0.3166 0.19439 0.25487 0.0
H1666 H 0.28629 0.20895 0.19568 0.0
C1667 C 0.34093 0.20767 0.25058 0.0
H1668 H 0.27818 0.1848 0.23742 0.0
C1669 C 0.34552 0.22154 0.22683 0.0
C1670 C 0.32602 0.22214 0.20669 0.0
H1671 H 0.3563 0.20763 0.26577 0.0
H1672 H 0.36443 0.23173 0.22424 0.0
C1673 C 0.30173 0.20871 0.21082 0.0
C1674 C 0.44474 0.48166 0.03789 0.0
C1675 C 0.44227 0.46128 0.01877 0.0
H1676 H 0.46074 0.4933 0.07585 0.0
C1677 C 0.45469 0.43661 0.02352 0.0
H1678 H 0.43512 0.50078 0.03489 0.0
C1679 C 0.4694 0.43239 0.0468 0.0
C1680 C 0.47174 0.45265 0.066 0.0
H1681 H 0.4533 0.42067 1.00904 0.0
H1682 H 0.47882 0.41315 0.04979 0.0
C1683 C 0.45921 0.47732 0.0614 0.0
C1684 C 0.72864 0.33315 0.23174 0.0
C1685 C 0.71154 0.3304 0.25383 0.0
H1686 H 0.7369 0.32173 0.19129 0.0
C1687 C 0.68944 0.31325 0.25186 0.0
H1688 H 0.74573 0.34634 0.23261 0.0
C1689 C 0.68435 0.29935 0.22837 0.0
C1690 C 0.70123 0.30222 0.20621 0.0
H1691 H 0.67615 0.31025 0.26862 0.0
H1692 H 0.66713 0.28629 0.22766 0.0
C1693 C 0.72348 0.31922 0.20806 0.0
C1694 C 0.58057 0.04208 0.0403 0.0
C1695 C 0.58482 0.06301 0.02203 0.0
H1696 H 0.56298 0.0301 0.07755 0.0
C1697 C 0.57596 0.08879 0.02884 0.0
H1698 H 0.58697 0.02197 0.03575 0.0
C1699 C 0.56178 0.09326 0.05235 0.0
C1700 C 0.55658 0.07219 0.06999 0.0
H1701 H 0.57951 0.10558 0.01573 0.0
H1702 H 0.55466 0.11324 0.05661 0.0
C1703 C 0.56671 0.04669 0.06418 0.0
C1704 C 0.3037 0.81915 0.31428 0.0
C1705 C 0.32716 0.8039 0.31659 0.0
H1706 H 0.28058 0.84569 0.28988 0.0
C1707 C 0.34568 0.80401 0.29557 0.0
H1708 H 0.28904 0.81939 0.33018 0.0
C1709 C 0.34086 0.81901 0.27262 0.0
C1710 C 0.31732 0.83411 0.2701 0.0
H1711 H 0.36394 0.79243 0.29677 0.0
H1712 H 0.35537 0.81837 0.25663 0.0
C1713 C 0.29876 0.83404 0.29116 0.0
C1714 C 0.06031 0.42914 0.97312 0.0
C1715 C 0.05689 0.45008 0.95486 0.0
H1716 H 0.07561 0.4167 1.01079 0.0
C1717 C 0.0676 0.47526 0.96087 0.0
H1718 H 0.05263 0.4094 0.96883 0.0
C1719 C 0.0804 0.47968 0.98536 0.0
C1720 C 0.083 0.45889 1.00415 0.0
H1721 H 0.06519 0.49177 0.94711 0.0
H1722 H 0.08738 0.49959 0.98985 0.0
C1723 C 0.0734 0.43341 0.99731 0.0
C1724 C 0.68037 0.70514 0.27098 0.0
C1725 C 0.70505 0.69243 0.26695 0.0
H1726 H 0.6565 0.72954 0.29664 0.0
C1727 C 0.72489 0.69443 0.28669 0.0
H1728 H 0.66484 0.70404 0.25599 0.0
C1729 C 0.72007 0.7088 0.31009 0.0
C1730 C 0.69545 0.72171 0.31395 0.0
H1731 H 0.74398 0.68455 0.28421 0.0
H1732 H 0.73569 0.71003 0.325 0.0
C1733 C 0.67568 0.7198 0.29417 0.0
C1734 C 0.95767 0.08816 0.99977 0.0
C1735 C 0.94615 0.06319 1.00546 0.0
H1736 H 0.98005 0.11193 0.97225 0.0
C1737 C 0.94717 0.04318 0.98574 0.0
H1738 H 0.95675 0.10432 0.01403 0.0
C1739 C 0.96017 0.04782 0.96142 0.0
C1740 C 0.97265 0.07241 0.95646 0.0
H1741 H 0.93874 0.02365 0.9893 0.0
H1742 H 0.96125 0.03186 0.9469 0.0
C1743 C 0.97094 0.09263 0.97571 0.0
C1744 C 0.23572 0.29475 0.19547 0.0
C1745 C 0.25496 0.31498 0.19266 0.0
H1746 H 0.19766 0.28345 0.21153 0.0
C1747 C 0.25016 0.33992 0.20454 0.0
H1748 H 0.23872 0.27544 0.18629 0.0
C1749 C 0.22675 0.34447 0.2191 0.0
C1750 C 0.20746 0.3243 0.22177 0.0
H1751 H 0.26471 0.3558 0.20289 0.0
H1752 H 0.22373 0.36385 0.22819 0.0
C1753 C 0.21212 0.29942 0.20972 0.0
C1754 C 0.22413 0.6796 0.30884 0.0
C1755 C 0.20604 0.70053 0.30455 0.0
H1756 H 0.26143 0.66738 0.32527 0.0
C1757 C 0.21171 0.72585 0.31514 0.0
H1758 H 0.22002 0.65976 0.30132 0.0
C1759 C 0.23592 0.73045 0.32848 0.0
C1760 C 0.25465 0.70969 0.3317 0.0
H1761 H 0.19802 0.74233 0.31208 0.0
H1762 H 0.24037 0.75045 0.33522 0.0
C1763 C 0.24796 0.68404 0.32249 0.0
C1764 C 0.93532 0.52181 0.95528 0.0
C1765 C 0.96037 0.51808 0.94317 0.0
H1766 H 0.91062 0.54706 0.97938 0.0
C1767 C 0.98001 0.53789 0.94605 0.0
H1768 H 0.91991 0.50677 0.95351 0.0
C1769 C 0.97463 0.56104 0.96062 0.0
C1770 C 0.94965 0.56466 0.97286 0.0
H1771 H 0.99937 0.53568 0.93667 0.0
H1772 H 0.99014 0.576 0.96247 0.0
C1773 C 0.93007 0.54479 0.97014 0.0
C1774 C 0.79915 0.84415 0.30772 0.0
C1775 C 0.81681 0.82289 0.30326 0.0
H1776 H 0.76209 0.85693 0.32431 0.0
C1777 C 0.81054 0.79757 0.31352 0.0
H1778 H 0.80369 0.86399 0.3004 0.0
C1779 C 0.7863 0.79332 0.32685 0.0
C1780 C 0.76805 0.81442 0.3304 0.0
H1781 H 0.82385 0.78081 0.31032 0.0
H1782 H 0.7815 0.77331 0.33338 0.0
C1783 C 0.77521 0.84003 0.32134 0.0
C1784 C 0.58984 0.50684 0.46997 0.0
C1785 C 0.57118 0.50778 0.44894 0.0
H1786 H 0.60898 0.48306 0.49997 0.0
C1787 C 0.55785 0.48409 0.44186 0.0
H1788 H 0.60037 0.52456 0.47629 0.0
C1789 C 0.56254 0.46037 0.45578 0.0
C1790 C 0.58092 0.45962 0.47692 0.0
H1791 H 0.54379 0.48375 0.42548 0.0
H1792 H 0.55177 0.44258 0.44991 0.0
C1793 C 0.59472 0.48302 0.48372 0.0
C1794 C 0.2902 0.7253 0.69143 0.0
C1795 C 0.26991 0.70595 0.6911 0.0
H1796 H 0.32909 0.73611 0.70547 0.0
C1797 C 0.27369 0.68205 0.70531 0.0
H1798 H 0.28799 0.74375 0.6804 0.0
C1799 C 0.29721 0.67768 0.71972 0.0
C1800 C 0.3175 0.697 0.71995 0.0
H1801 H 0.25831 0.6669 0.70558 0.0
H1802 H 0.2995 0.65913 0.73061 0.0
C1803 C 0.31381 0.72082 0.70561 0.0
C1804 C 0.97943 0.48431 0.57936 0.0
C1805 C 0.95848 0.50297 0.5819 0.0
H1806 H 0.992 0.44647 0.56361 0.0
C1807 C 0.93321 0.49629 0.57157 0.0
H1808 H 0.99921 0.48865 0.58687 0.0
C1809 C 0.92933 0.47245 0.55781 0.0
C1810 C 0.95045 0.45435 0.55449 0.0
H1811 H 0.91635 0.50964 0.57371 0.0
H1812 H 0.90975 0.46827 0.54959 0.0
C1813 C 0.97538 0.46014 0.56593 0.0
C1814 C 0.08938 0.02207 0.56808 0.0
C1815 C 0.06476 0.01785 0.58087 0.0
H1816 H 0.11306 0.04795 0.54367 0.0
C1817 C 0.04482 0.03754 0.5789 0.0
H1818 H 0.105 1.00715 0.56908 0.0
C1819 C 0.04951 0.06105 0.56455 0.0
C1820 C 0.07408 0.06512 0.5516 0.0
H1821 H 0.02577 0.03495 0.58879 0.0
H1822 H 0.0338 0.0759 0.56338 0.0
C1823 C 0.09393 0.04537 0.55345 0.0
C1824 C 0.7309 0.73519 0.84063 0.0
C1825 C 0.72324 0.71191 0.8271 0.0
H1826 H 0.72458 0.77675 0.84652 0.0
C1827 C 0.70145 0.71296 0.80953 0.0
H1828 H 0.74768 0.73503 0.85428 0.0
C1829 C 0.68776 0.73696 0.80535 0.0
C1830 C 0.69582 0.76055 0.81836 0.0
H1831 H 0.69497 0.69525 0.799 0.0
H1832 H 0.6709 0.73693 0.79186 0.0
C1833 C 0.71746 0.7592 0.83624 0.0
C1834 C 0.96328 0.05952 0.47073 0.0
C1835 C 0.95959 0.04628 0.44633 0.0
H1836 H 0.98876 0.08421 0.49444 0.0
C1837 C 0.97961 0.0479 0.42676 0.0
H1838 H 0.9482 0.05858 0.48622 0.0
C1839 C 1.0028 0.06275 0.43144 0.0
C1840 C 1.00654 0.07589 0.45592 0.0
H1841 H 0.97725 0.03792 0.40775 0.0
H1842 H 0.01796 0.06373 0.41606 0.0
C1843 C 0.98658 0.07403 0.47554 0.0
C1844 C 0.30783 0.79968 0.84191 0.0
C1845 C 0.30357 0.81782 0.82102 0.0
H1846 H 0.32487 0.76272 0.85425 0.0
C1847 C 0.31457 0.81236 0.79582 0.0
H1848 H 0.29998 0.8036 0.86167 0.0
C1849 C 0.32848 0.78846 0.79132 0.0
C1850 C 0.33191 0.76974 0.81205 0.0
H1851 H 0.31155 0.82605 0.77935 0.0
H1852 H 0.33564 0.78432 0.77139 0.0
C1853 C 0.32203 0.77612 0.83757 0.0
C1854 C 0.02457 0.45915 0.43759 0.0
C1855 C 0.0221 0.44332 0.46063 0.0
H1856 H 0.04908 0.48563 0.41475 0.0
C1857 C 0.04351 0.44234 0.47876 0.0
H1858 H 1.0083 0.46064 0.42344 0.0
C1859 C 0.06701 0.45665 0.47372 0.0
C1860 C 0.0694 0.47241 0.45061 0.0
H1861 H 0.04228 0.43017 0.49656 0.0
H1862 H 0.08324 0.45546 0.48797 0.0
C1863 C 0.04789 0.47359 0.43268 0.0
C1864 C 0.73039 0.2985 0.68663 0.0
C1865 C 0.72628 0.32051 0.7034 0.0
H1866 H 0.72068 0.25817 0.67771 0.0
C1867 C 0.70793 0.31832 0.72453 0.0
H1868 H 0.74451 0.29946 0.67027 0.0
C1869 C 0.69395 0.29446 0.72872 0.0
C1870 C 0.69805 0.27245 0.71181 0.0
H1871 H 0.70441 0.33499 0.73781 0.0
H1872 H 0.67975 0.29336 0.74497 0.0
C1873 C 0.71652 0.2748 0.6908 0.0
C1874 C 0.549 0.05468 0.59518 0.0
C1875 C 0.56902 0.05379 0.57557 0.0
H1876 H 0.51038 0.0693 0.60625 0.0
C1877 C 0.56506 0.06752 0.55144 0.0
H1878 H 0.55149 0.04427 0.61398 0.0
C1879 C 0.54142 0.08178 0.54698 0.0
C1880 C 0.52144 0.08278 0.56668 0.0
H1881 H 0.58014 0.06712 0.53594 0.0
H1882 H 0.53897 0.09235 0.5283 0.0
C1883 C 0.52552 0.06911 0.59083 0.0
C1884 C 0.31691 0.25038 0.68497 0.0
C1885 C 0.32923 0.25405 0.70991 0.0
H1886 H 0.29254 0.22514 0.66045 0.0
C1887 C 0.32603 0.23441 0.72966 0.0
H1888 H 0.31887 0.2653 0.66946 0.0
C1889 C 0.31122 0.21138 0.72444 0.0
C1890 C 0.29898 0.20767 0.69949 0.0
H1891 H 0.33551 0.23655 0.74895 0.0
H1892 H 0.30935 0.19648 0.74 0.0
C1893 C 0.30175 0.22749 0.67986 0.0
C1894 C 0.486 0.43693 0.55272 0.0
C1895 C 0.50824 0.44201 0.5692 0.0
H1896 H 0.44494 0.44595 0.54398 0.0
C1897 C 0.50522 0.4602 0.59038 0.0
H1898 H 0.48734 0.4229 0.5364 0.0
C1899 C 0.48092 0.47302 0.59487 0.0
C1900 C 0.45892 0.46828 0.57822 0.0
H1901 H 0.52171 0.46519 0.60333 0.0
H1902 H 0.4796 0.48709 0.61121 0.0
C1903 C 0.46161 0.45002 0.55714 0.0
C1904 C 0.8367 0.7114 0.74748 0.0
C1905 C 0.81381 0.69563 0.75138 0.0
H1906 H 0.85889 0.7365 0.72114 0.0
C1907 C 0.79535 0.69321 0.73034 0.0
H1908 H 0.85112 0.7141 0.76333 0.0
C1909 C 0.79982 0.70621 0.70595 0.0
C1910 C 0.82274 0.72199 0.70224 0.0
H1911 H 0.77764 0.68104 0.73262 0.0
H1912 H 0.78525 0.70408 0.69012 0.0
C1913 C 0.84109 0.7244 0.72327 0.0
C1914 C 0.95253 0.96604 0.5647 0.0
C1915 C 0.97227 0.94615 0.56665 0.0
H1916 H 0.92366 0.98555 0.53977 0.0
C1917 C 0.978 0.93054 0.54415 0.0
H1918 H 0.94768 0.9784 0.58175 0.0
C1919 C 0.96456 0.93477 0.52018 0.0
C1920 C 0.94478 0.95464 0.51797 0.0
H1921 H 0.9932 0.91515 0.54488 0.0
H1922 H 0.97021 0.92267 0.50326 0.0
C1923 C 0.93888 0.97023 0.5406 0.0
C1924 C 0.22382 0.81381 0.70661 0.0
C1925 C 0.19971 0.8001 0.70249 0.0
H1926 H 0.24688 0.83833 0.73299 0.0
C1927 C 0.17994 0.80094 0.72237 0.0
H1928 H 0.23945 0.81342 0.69166 0.0
C1929 C 0.18414 0.81521 0.74589 0.0
C1930 C 0.20833 0.82871 0.75021 0.0
H1931 H 0.16114 0.79056 0.71976 0.0
H1932 H 0.16861 0.81533 0.76092 0.0
C1933 C 0.22816 0.82785 0.73034 0.0
C1934 C 0.06623 0.58902 0.52189 0.0
C1935 C 0.08126 0.56542 0.51929 0.0
H1936 H 0.03963 0.61206 0.54622 0.0
C1937 C 0.0807 0.54661 0.54007 0.0
H1938 H 0.06599 0.60373 0.50608 0.0
C1939 C 0.06567 0.55142 0.56307 0.0
C1940 C 0.05069 0.57502 0.56566 0.0
H1941 H 0.09225 0.52839 0.53875 0.0
H1942 H 0.06576 0.53659 0.57881 0.0
C1943 C 0.05101 0.59372 0.5448 0.0
C1944 C 0.84402 0.32019 0.77686 0.0
C1945 C 0.81993 0.33417 0.77327 0.0
H1946 H 0.86713 0.2945 0.80209 0.0
C1947 C 0.80048 0.33315 0.79349 0.0
H1948 H 0.85926 0.32043 0.76153 0.0
C1949 C 0.80504 0.31847 0.81681 0.0
C1950 C 0.82901 0.30425 0.82021 0.0
H1951 H 0.78186 0.34397 0.79143 0.0
H1952 H 0.78968 0.31803 0.83203 0.0
C1953 C 0.84845 0.30524 0.80001 0.0
C1954 C 0.57724 0.98213 0.48886 0.0
C1955 C 0.5816 0.96087 0.50681 0.0
H1956 H 0.55953 0.99488 0.45198 0.0
C1957 C 0.57196 0.93542 0.50006 0.0
H1958 H 0.58406 1.00208 0.49333 0.0
C1959 C 0.55749 0.93151 0.47663 0.0
C1960 C 0.55265 0.95284 0.45913 0.0
H1961 H 0.57538 0.91842 0.51293 0.0
H1962 H 0.55004 0.9117 0.47224 0.0
C1963 C 0.56305 0.97809 0.46516 0.0
C1964 C 0.18181 0.22693 0.79345 0.0
C1965 C 0.19727 0.22094 0.81601 0.0
H1966 H 0.17404 0.21914 0.75247 0.0
C1967 C 0.21667 0.20073 0.81431 0.0
H1968 H 0.16676 0.24248 0.7941 0.0
C1969 C 0.22068 0.18694 0.79037 0.0
C1970 C 0.20547 0.19318 0.76757 0.0
H1971 H 0.22882 0.19559 0.83145 0.0
H1972 H 0.23566 0.17138 0.78982 0.0
C1973 C 0.18591 0.21332 0.76953 0.0
C1974 C 0.46002 0.58667 0.5039 0.0
C1975 C 0.44826 0.56182 0.50942 0.0
H1976 H 0.4821 0.61047 0.47624 0.0
C1977 C 0.44921 0.54178 0.48976 0.0
H1978 H 0.45926 0.60268 0.51834 0.0
C1979 C 0.46212 0.54635 0.46543 0.0
C1980 C 0.47444 0.57098 0.46035 0.0
H1981 H 0.44071 0.52228 0.49337 0.0
H1982 H 0.46297 0.53042 0.45087 0.0
C1983 C 0.47303 0.59116 0.47971 0.0
C1984 C 0.72655 0.84423 0.7181 0.0
C1985 C 0.70716 0.82418 0.72096 0.0
H1986 H 0.7641 0.85552 0.70097 0.0
C1987 C 0.71121 0.79947 0.7084 0.0
H1988 H 0.72396 0.8635 0.72752 0.0
C1989 C 0.73427 0.79489 0.69333 0.0
C1990 C 0.75358 0.81502 0.69029 0.0
H1991 H 0.6966 0.78364 0.71027 0.0
H1992 H 0.73675 0.77574 0.68367 0.0
C1993 C 0.74945 0.83975 0.70278 0.0
C1994 C 0.7543 0.18577 0.81883 0.0
C1995 C 0.75811 0.21 0.83233 0.0
H1996 H 0.72868 0.16235 0.79401 0.0
C1997 C 0.73791 0.2295 0.83126 0.0
H1998 H 0.76961 0.17049 0.81914 0.0
C1999 C 0.71431 0.22476 0.81706 0.0
C2000 C 0.71068 0.20059 0.80338 0.0
H2001 H 0.7402 0.24824 0.84173 0.0
H2002 H 0.69906 0.24012 0.81654 0.0
C2003 C 0.73092 0.18118 0.80436 0.0
C2004 C 0.47079 0.04277 0.44147 0.0
C2005 C 0.45628 0.01983 0.44893 0.0
H2006 H 0.47853 0.08427 0.44863 0.0
C2007 C 0.43738 0.0221 0.46959 0.0
H2008 H 0.48516 0.04207 0.42536 0.0
C2009 C 0.43334 0.0464 0.48258 0.0
C2010 C 0.44819 0.06909 0.47544 0.0
H2011 H 0.42598 1.00505 0.47623 0.0
H2012 H 0.41882 0.04724 0.49858 0.0
C2013 C 0.46689 0.06708 0.45467 0.0
C2014 C 0.30219 0.34253 0.81033 0.0
C2015 C 0.32037 0.32162 0.80631 0.0
H2016 H 0.2649 0.35484 0.82667 0.0
C2017 C 0.31468 0.29636 0.81703 0.0
H2018 H 0.3063 0.36234 0.80267 0.0
C2019 C 0.29049 0.29181 0.8304 0.0
C2020 C 0.27173 0.31256 0.83355 0.0
H2021 H 0.32841 0.27988 0.81417 0.0
H2022 H 0.28618 0.27183 0.83733 0.0
C2023 C 0.27833 0.33814 0.82401 0.0
C2024 C 0.08867 0.99708 0.9591 0.0
C2025 C 0.06547 1.00007 0.94355 0.0
H2026 H 0.11144 0.97201 0.98509 0.0
C2027 C 0.04703 0.97896 0.94254 0.0
H2028 H 0.10307 0.01309 0.96068 0.0
C2029 C 0.05184 0.9553 0.95664 0.0
C2030 C 0.07509 0.95242 0.97212 0.0
H2031 H 0.0291 0.98057 0.93057 0.0
H2032 H 0.03731 0.93934 0.95549 0.0
C2033 C 0.09341 0.97356 0.97323 0.0
C2034 C 0.77216 0.18708 0.20982 0.0
C2035 C 0.77014 0.20915 0.19256 0.0
H2036 H 0.79633 0.16495 0.23714 0.0
C2037 C 0.79232 0.22617 0.18985 0.0
H2038 H 0.75541 0.1738 0.21287 0.0
C2039 C 0.81595 0.22111 0.20403 0.0
C2040 C 0.81779 0.199 0.22124 0.0
H2041 H 0.79151 0.24322 0.17661 0.0
H2042 H 0.83269 0.23458 0.20162 0.0
C2043 C 0.79565 0.18206 0.22393 0.0
C2044 C 0.42884 0.97886 0.0521 0.0
C2045 C 0.44822 0.95868 0.04992 0.0
H2046 H 0.41875 0.01708 0.06838 0.0
C2047 C 0.47296 0.96198 0.06274 0.0
H2048 H 0.40959 0.97684 0.04243 0.0
C2049 C 0.47828 0.98515 0.07732 0.0
C2050 C 0.45882 1.00525 0.07968 0.0
H2051 H 0.4883 0.94679 0.06129 0.0
H2052 H 0.49744 0.98713 0.08713 0.0
C2053 C 0.43402 1.00182 0.06702 0.0
C2054 C 0.58866 0.5454 0.04214 0.0
C2055 C 0.57358 0.5681 0.04881 0.0
H2056 H 0.59651 0.50424 0.04933 0.0
C2057 C 0.5548 0.56623 0.06953 0.0
H2058 H 0.60326 0.54612 0.0262 0.0
C2059 C 0.55112 0.54209 0.08321 0.0
C2060 C 0.56596 0.51916 0.0763 0.0
H2061 H 0.54297 0.58342 0.07524 0.0
H2062 H 0.53671 0.54153 0.09928 0.0
C2063 C 0.58486 0.52128 0.05561 0.0
C2064 C 0.02295 0.27032 0.29665 0.0
C2065 C 0.0382 0.27258 0.27313 0.0
H2066 H 0.98689 0.25591 0.31489 0.0
C2067 C 0.02814 0.26113 0.24958 0.0
H2068 H 0.03017 0.27869 0.31521 0.0
C2069 C 1.00353 0.24797 0.24946 0.0
C2070 C 0.98814 0.24587 0.27285 0.0
H2071 H 0.03908 0.26271 0.231 0.0
H2072 H 0.99658 0.23934 0.23091 0.0
C2073 C 0.99827 0.25702 0.29654 0.0
C2074 C 0.50438 0.74638 0.02265 0.0
C2075 C 0.52132 0.73902 1.00151 0.0
H2076 H 0.47813 0.77586 0.03899 0.0
C2077 C 0.52404 0.7566 0.97974 0.0
H2078 H 0.50197 0.73348 0.03983 0.0
C2079 C 0.51034 0.78104 0.97928 0.0
C2080 C 0.49386 0.78858 1.00072 0.0
H2081 H 0.53673 0.75144 0.96301 0.0
H2082 H 0.51316 0.79432 0.96245 0.0
C2083 C 0.49089 0.77082 0.02228 0.0
C2084 C 0.99421 0.75795 0.27417 0.0
C2085 C 0.98509 0.77076 0.2509 0.0
H2086 H 0.02519 0.73531 0.29291 0.0
C2087 C 1.00136 0.77009 0.22799 0.0
H2088 H 0.98243 0.7583 0.2923 0.0
C2089 C 0.02618 0.75705 0.22844 0.0
C2090 C 0.03536 0.74455 0.25186 0.0
H2091 H 0.99487 0.77956 0.20967 0.0
H2092 H 0.03839 0.75722 0.2106 0.0
C2093 C 0.01894 0.74502 0.27463 0.0
C2094 C 0.99721 0.7498 1.00075 0.0
C2095 C 0.99689 0.73374 0.02378 0.0
H2096 H 1.01102 0.7855 0.98205 0.0
C2097 C 1.01015 0.74296 0.04674 0.0
H2098 H 0.9869 0.74356 0.9828 0.0
C2099 C 0.02386 0.7674 0.0464 0.0
C2100 C 0.02442 0.78325 0.02317 0.0
H2101 H 1.01043 0.73105 0.06477 0.0
H2102 H 0.0339 0.77394 0.06437 0.0
C2103 C 1.01081 0.7741 1.00041 0.0
C2104 C 0.29435 0.99797 0.26044 0.0
C2105 C 0.27108 0.98979 0.24705 0.0
H2106 H 0.31277 0.02781 0.28506 0.0
C2107 C 0.24831 1.00618 0.24793 0.0
H2108 H 0.31211 0.98559 0.26021 0.0
C2109 C 0.24875 0.03026 0.26188 0.0
C2110 C 0.27186 0.03835 0.27556 0.0
H2111 H 0.23015 1.00041 0.23768 0.0
H2112 H 0.23084 0.04242 0.26229 0.0
C2113 C 0.29466 0.02195 0.2748 0.0
C2114 C 0.27833 0.52553 0.01591 0.0
C2115 C 0.28437 0.5052 0.99756 0.0
H2116 H 0.25036 0.5413 0.04405 0.0
C2117 C 0.2657 0.48457 0.99376 0.0
H2118 H 0.29209 0.54188 0.01915 0.0
C2119 C 0.2416 0.48429 1.00805 0.0
C2120 C 0.23554 0.5048 0.02622 0.0
H2121 H 0.26984 0.4685 0.97992 0.0
H2122 H 0.22752 0.46829 1.00453 0.0
C2123 C 0.25426 0.52534 0.03002 0.0
C2124 C 0.73106 0.5175 0.24547 0.0
C2125 C 0.75235 0.53571 0.24734 0.0
H2126 H 0.71508 0.47973 0.25795 0.0
C2127 C 0.7742 0.52937 0.26379 0.0
H2128 H 0.71389 0.52193 0.23308 0.0
C2129 C 0.77488 0.50538 0.27793 0.0
C2130 C 0.75366 0.48713 0.27611 0.0
H2131 H 0.79103 0.54285 0.26547 0.0
H2132 H 0.79203 0.50114 0.29042 0.0
C2133 C 0.73163 0.49351 0.25988 0.0
C2134 C 0.78064 0.99713 1.01045 0.0
C2135 C 0.7888 0.01959 0.02516 0.0
H2136 H 0.7511 0.97938 0.98542 0.0
C2137 C 0.77173 0.04196 0.02578 0.0
H2138 H 0.79288 0.97931 1.00974 0.0
C2139 C 0.7472 0.04177 0.01217 0.0
C2140 C 0.73908 0.01919 0.99757 0.0
H2141 H 0.77738 0.05975 0.03663 0.0
H2142 H 0.73442 0.05917 0.01347 0.0
C2143 C 0.75632 0.997 0.99676 0.0
C2144 C 0.24809 0.24461 1.00448 0.0
C2145 C 0.25104 0.26537 0.98582 0.0
H2146 H 0.25915 0.22871 0.04254 0.0
C2147 C 0.26819 0.2867 0.99209 0.0
H2148 H 0.23486 0.22799 1.00047 0.0
C2149 C 0.28207 0.28719 0.0164 0.0
C2150 C 0.27895 0.26648 0.03511 0.0
H2151 H 0.27113 0.3029 0.97808 0.0
H2152 H 0.29497 0.30399 0.0207 0.0
C2153 C 0.26181 0.24517 0.02878 0.0
C2154 C 0.28273 0.7716 0.50344 0.0
C2155 C 0.27909 0.75119 0.48456 0.0
H2156 H 0.27174 0.78777 0.54131 0.0
C2157 C 0.26134 0.7303 0.49062 0.0
H2158 H 0.29646 0.78785 0.49959 0.0
C2159 C 0.24718 0.73016 0.51481 0.0
C2160 C 0.25067 0.75077 0.53355 0.0
H2161 H 0.25795 0.71437 0.47645 0.0
H2162 H 0.23361 0.71384 0.51888 0.0
C2163 C 0.26873 0.7714 0.52755 0.0
C2164 C 0.9859 0.49423 0.76666 0.0
C2165 C 1.00673 0.49855 0.78501 0.0
H2166 H 0.9691 0.50416 0.72849 0.0
C2167 C 0.02683 0.51702 0.7785 0.0
H2168 H 0.97001 0.48028 0.7712 0.0
C2169 C 0.0263 0.53063 0.75416 0.0
C2170 C 1.00558 0.52626 0.73574 0.0
H2171 H 0.04328 0.52065 0.79205 0.0
H2172 H 0.04214 0.54468 0.74978 0.0
C2173 C 0.98523 0.50808 0.74234 0.0
C2174 C 0.73937 0.7499 0.50188 0.0
C2175 C 0.74367 0.77025 0.48303 0.0
H2176 H 0.74975 0.73337 0.53985 0.0
C2177 C 0.76206 0.79055 0.4891 0.0
H2178 H 0.72516 0.73409 0.49796 0.0
C2179 C 0.77621 0.79016 0.51326 0.0
C2180 C 0.77203 0.76964 0.532 0.0
H2181 H 0.76595 0.80641 0.47492 0.0
H2182 H 0.79033 0.80601 0.51735 0.0
C2183 C 0.75331 0.74962 0.52603 0.0
C2184 C 0.50321 0.48698 0.25975 0.0
C2185 C 0.51848 0.49655 0.23828 0.0
H2186 H 0.4901 0.49299 0.29986 0.0
C2187 C 0.53356 0.51994 0.24184 0.0
H2188 H 0.49102 0.46928 0.25752 0.0
C2189 C 0.5334 0.53343 0.2663 0.0
C2190 C 0.51791 0.52404 0.28781 0.0
H2191 H 0.54571 0.5277 0.22572 0.0
H2192 H 0.54567 0.55108 0.2684 0.0
C2193 C 0.50277 0.50061 0.28411 0.0
C2194 C 0.99752 0.02414 0.7697 0.0
C2195 C 0.02017 0.02355 0.78627 0.0
H2196 H 0.97937 1.01104 0.73335 0.0
C2197 C 0.04265 1.00884 0.77802 0.0
H2198 H 0.97996 0.03544 0.7754 0.0
C2199 C 0.04225 0.99466 0.7539 0.0
C2200 C 0.01953 0.99529 0.73736 0.0
H2201 H 0.06032 1.00787 0.79046 0.0
H2202 H 0.0598 0.98343 0.74805 0.0
C2203 C 0.99725 1.0103 0.74552 0.0
C2204 C 0.49173 0.76949 0.78563 0.0
C2205 C 0.48641 0.75034 0.76583 0.0
H2206 H 0.5195 0.79826 0.80112 0.0
C2207 C 0.50587 0.74556 0.74617 0.0
H2208 H 0.47705 0.77378 0.80093 0.0
C2209 C 0.53004 0.7595 0.74629 0.0
C2210 C 0.5354 0.77871 0.76599 0.0
H2211 H 0.50252 0.73081 0.73075 0.0
H2212 H 0.54449 0.75536 0.73073 0.0
C2213 C 0.5159 0.78368 0.78559 0.0
C2214 C 0.01307 0.27652 0.48198 0.0
C2215 C 0.99797 0.28409 0.50438 0.0
H2216 H 0.03848 0.24682 0.46431 0.0
C2217 C 0.99642 0.2666 0.52625 0.0
H2218 H 0.0147 0.28971 0.46492 0.0
C2219 C 1.00971 0.24206 0.52579 0.0
C2220 C 0.02519 0.23464 0.50361 0.0
H2221 H 0.98481 0.27188 0.54372 0.0
H2222 H 1.00827 0.22907 0.54302 0.0
C2223 C 0.02679 0.25212 0.48171 0.0
C2224 C 0.50914 0.27952 0.73501 0.0
C2225 C 0.49062 0.27546 0.75576 0.0
H2226 H 0.54761 0.26965 0.71875 0.0
C2227 C 0.49729 0.25756 0.77635 0.0
H2228 H 0.50456 0.293 0.71874 0.0
C2229 C 0.5218 0.24416 0.77629 0.0
C2230 C 0.54037 0.2482 0.75563 0.0
H2231 H 0.48368 0.25415 0.7928 0.0
H2232 H 0.52614 0.23046 0.79245 0.0
C2233 C 0.53368 0.26593 0.73487 0.0
C2234 C 0.53199 0.27062 0.49834 0.0
C2235 C 0.52949 0.28876 0.5196 0.0
H2236 H 0.52021 0.23318 0.4816 0.0
C2237 C 0.51267 0.28203 0.54107 0.0
H2238 H 0.54497 0.27499 0.48161 0.0
C2239 C 0.49855 0.25789 0.54115 0.0
C2240 C 0.50105 0.23978 0.51986 0.0
H2241 H 0.51008 0.29562 0.55766 0.0
H2242 H 0.48586 0.25329 0.55805 0.0
C2243 C 0.518 0.24647 0.49848 0.0
C2244 C 0.74801 0.52399 0.77813 0.0
C2245 C 0.76997 0.54136 0.77654 0.0
H2246 H 0.73124 0.48643 0.76661 0.0
C2247 C 0.79244 0.53364 0.76159 0.0
H2248 H 0.7305 0.52935 0.78967 0.0
C2249 C 0.79279 0.50913 0.74822 0.0
C2250 C 0.77085 0.49172 0.74994 0.0
H2251 H 0.80958 0.54673 0.75992 0.0
H2252 H 0.81031 0.50366 0.73677 0.0
C2253 C 0.74851 0.49936 0.76511 0.0
C2254 C 0.75615 0.9819 0.52589 0.0
C2255 C 0.73943 1.00451 0.52501 0.0
H2256 H 0.79296 0.96386 0.51338 0.0
C2257 C 0.74772 0.0266 0.50976 0.0
H2258 H 0.75037 0.96441 0.53719 0.0
C2259 C 0.77188 0.0261 0.49576 0.0
C2260 C 0.78872 1.00361 0.49672 0.0
H2261 H 0.7357 0.04455 0.50883 0.0
H2262 H 0.77726 0.04342 0.484 0.0
C2263 C 0.78046 0.98145 0.51192 0.0
C2264 C 0.27406 0.99428 0.75838 0.0
C2265 C 0.2524 0.98727 0.77483 0.0
H2266 H 0.2915 0.02344 0.73251 0.0
C2267 C 0.23119 1.00551 0.77769 0.0
H2268 H 0.29087 0.98086 0.75595 0.0
C2269 C 0.23158 0.03006 0.76422 0.0
C2270 C 0.25334 0.03706 0.74786 0.0
H2271 H 0.21414 1.00066 0.79008 0.0
H2272 H 0.21502 0.04373 0.76692 0.0
C2273 C 0.27455 0.01884 0.74514 0.0
C2274 C 0.27296 0.5402 0.52615 0.0
C2275 C 0.28916 0.51724 0.52614 0.0
H2276 H 0.23676 0.55862 0.5121 0.0
C2277 C 0.28082 0.49486 0.51148 0.0
H2278 H 0.27897 0.55778 0.53716 0.0
C2279 C 0.25674 0.49528 0.49738 0.0
C2280 C 0.24052 0.51819 0.49732 0.0
H2281 H 0.29276 0.47681 0.51124 0.0
H2282 H 0.2508 0.47763 0.48643 0.0
C2283 C 0.24897 0.54076 0.51165 0.0
C2284 C 0.74539 0.27659 0.01819 0.0
C2285 C 0.748 0.25569 0.03674 0.0
H2286 H 0.75774 0.29315 0.98087 0.0
C2287 C 0.76558 0.23456 0.03087 0.0
H2288 H 0.73186 0.29306 0.02193 0.0
C2289 C 0.78041 0.23454 1.00711 0.0
C2290 C 0.77777 0.25552 0.98861 0.0
H2291 H 0.76822 0.21827 0.04484 0.0
H2292 H 0.79372 0.21796 1.0031 0.0
C2293 C 0.76006 0.27651 0.99449 0.0
C2294 C 0.52021 0.98866 0.26724 0.0
C2295 C 0.50352 0.99725 0.28802 0.0
H2296 H 0.53478 0.99575 0.22785 0.0
C2297 C 0.48723 0.01975 0.28394 0.0
H2298 H 0.53331 0.97164 0.26999 0.0
C2299 C 0.4876 0.03336 0.25953 0.0
C2300 C 0.50461 0.02505 0.23873 0.0
H2301 H 0.47404 0.02671 0.2996 0.0
H2302 H 0.47438 0.05028 0.25696 0.0
C2303 C 0.52093 1.0025 0.24301 0.0
C2304 C 0.1336 0.45855 0.18325 0.0
C2305 C 0.13422 0.45696 0.15524 0.0
H2306 H 0.13129 0.43707 0.22028 0.0
C2307 C 0.13458 0.43171 0.1431 0.0
H2308 H 0.13335 0.47775 0.19315 0.0
C2309 C 0.13275 0.40857 0.15862 0.0
C2310 C 0.13126 0.41022 0.18656 0.0
H2311 H 0.13497 0.42985 0.12157 0.0
H2312 H 0.13211 0.38934 0.14881 0.0
C2313 C 0.13248 0.43536 0.19878 0.0
C2314 C 0.70427 0.61989 0.09226 0.0
C2315 C 0.70477 0.62794 0.11914 0.0
H2316 H 0.68244 0.61943 0.05546 0.0
C2317 C 0.68207 0.64058 0.12981 0.0
H2318 H 0.72143 0.61018 0.08335 0.0
C2319 C 0.65979 0.64578 0.11389 0.0
C2320 C 0.65957 0.63858 0.0868 0.0
H2321 H 0.68161 0.64704 0.1504 0.0
H2322 H 0.64277 0.65561 0.12287 0.0
C2323 C 0.68189 0.62514 0.07627 0.0
C2324 C 0.89965 0.10837 0.16142 0.0
C2325 C 0.88999 0.10878 0.18771 0.0
H2326 H 0.90252 0.08713 0.12469 0.0
C2327 C 0.8744 0.08727 0.19674 0.0
H2328 H 0.91123 0.12491 0.15372 0.0
C2329 C 0.86962 0.06526 0.18012 0.0
C2330 C 0.88008 0.0645 0.15404 0.0
H2331 H 0.86672 0.08706 0.21693 0.0
H2332 H 0.85829 0.0486 0.18795 0.0
C2333 C 0.89459 0.08665 0.14475 0.0
C2334 C 0.35542 0.87312 0.10892 0.0
C2335 C 0.35845 0.88806 0.08545 0.0
H2336 H 0.33296 0.8663 0.14433 0.0
C2337 C 0.34074 0.90934 0.08052 0.0
H2338 H 0.369 0.85692 0.1135 0.0
C2339 C 0.3198 0.91486 0.09833 0.0
C2340 C 0.31642 0.89935 0.1215 0.0
H2341 H 0.34256 0.92113 0.0625 0.0
H2342 H 0.30602 0.9309 0.09371 0.0
C2343 C 0.33478 0.8787 0.12671 0.0
C2344 C 0.12384 0.60729 0.36172 0.0
C2345 C 0.13755 0.61009 0.33745 0.0
H2346 H 0.11806 0.58456 0.39716 0.0
C2347 C 0.15786 0.59168 0.33119 0.0
H2348 H 0.10847 0.62139 0.36741 0.0
C2349 C 0.16356 0.57033 0.34847 0.0
C2350 C 0.14919 0.56716 0.37241 0.0
H2351 H 0.16872 0.59328 0.31258 0.0
H2352 H 0.17879 0.55605 0.34281 0.0
C2353 C 0.12957 0.58619 0.37893 0.0
C2354 C 0.83685 0.64973 0.89575 0.0
C2355 C 0.81885 0.62868 0.90037 0.0
H2356 H 0.8713 0.67097 0.90894 0.0
C2357 C 0.82287 0.6122 0.92275 0.0
H2358 H 0.83444 0.66298 0.87887 0.0
C2359 C 0.84409 0.6171 0.94037 0.0
C2360 C 0.86163 0.63861 0.93597 0.0
H2361 H 0.80935 0.59587 0.92696 0.0
H2362 H 0.84626 0.60452 0.9578 0.0
C2363 C 0.85793 0.65456 0.91323 0.0
C2364 C 0.89298 0.95607 0.34 0.0
C2365 C 0.89029 0.95439 0.36789 0.0
H2366 H 0.89661 0.93465 0.30308 0.0
C2367 C 0.88729 0.92914 0.37976 0.0
H2368 H 0.89518 0.97526 0.33027 0.0
C2369 C 0.88893 0.906 0.36426 0.0
C2370 C 0.89262 0.90775 0.33655 0.0
H2371 H 0.88494 0.92715 0.40114 0.0
H2372 H 0.88768 0.88669 0.37389 0.0
C2373 C 0.89378 0.93295 0.32444 0.0
C2374 C 0.18282 0.89519 0.94322 0.0
C2375 C 0.1614 0.87945 0.93414 0.0
H2376 H 0.22111 0.91223 0.93455 0.0
C2377 C 0.16227 0.86968 0.90784 0.0
H2378 H 0.183 0.90288 0.96338 0.0
C2379 C 0.18416 0.875 0.89129 0.0
C2380 C 0.20584 0.89026 0.90055 0.0
H2381 H 0.14601 0.85787 0.89996 0.0
H2382 H 0.18423 0.86672 0.87135 0.0
C2383 C 0.20477 0.9005 0.92666 0.0
C2384 C 0.15993 0.12536 0.41299 0.0
C2385 C 0.18649 0.13447 0.41262 0.0
H2386 H 0.12349 0.12191 0.43476 0.0
C2387 C 0.19602 0.14896 0.43468 0.0
H2388 H 0.15168 0.11463 0.39619 0.0
C2389 C 0.17961 0.15346 0.45689 0.0
C2390 C 0.1533 0.1436 0.4575 0.0
H2391 H 0.21641 0.15612 0.43514 0.0
H2392 H 0.18778 0.16411 0.47381 0.0
C2393 C 0.1436 0.12979 0.43511 0.0
C2394 C 0.38705 0.63217 0.83827 0.0
C2395 C 0.38671 0.62004 0.81301 0.0
H2396 H 0.384 0.62648 0.8806 0.0
C2397 C 0.386 0.59202 0.81142 0.0
H2398 H 0.38757 0.65369 0.84016 0.0
C2399 C 0.38452 0.5765 0.83461 0.0
C2400 C 0.38305 0.58874 0.85971 0.0
H2401 H 0.3858 0.58213 0.79222 0.0
H2402 H 0.38307 0.55501 0.83289 0.0
C2403 C 0.38487 0.61666 0.86138 0.0
C2404 C 0.85145 0.3607 0.45327 0.0
C2405 C 0.87458 0.37607 0.45747 0.0
H2406 H 0.81616 0.35484 0.42959 0.0
C2407 C 0.88026 0.39697 0.43959 0.0
H2408 H 0.84645 0.34448 0.46666 0.0
C2409 C 0.86302 0.40284 0.41855 0.0
C2410 C 0.83956 0.38802 0.41467 0.0
H2411 H 0.89782 0.40932 0.44207 0.0
H2412 H 0.86806 0.41916 0.40532 0.0
C2413 C 0.83415 0.36656 0.43199 0.0
C2414 C 0.65401 0.93052 0.83821 0.0
C2415 C 0.6397 0.93286 0.86217 0.0
H2416 H 0.65983 0.90875 0.80203 0.0
C2417 C 0.61866 0.91502 0.86728 0.0
H2418 H 0.67011 0.94421 0.8337 0.0
C2419 C 0.61294 0.89436 0.84932 0.0
C2420 C 0.62775 0.8916 0.82563 0.0
H2421 H 0.60739 0.9164 0.88567 0.0
H2422 H 0.59731 0.88024 0.85424 0.0
C2423 C 0.64791 0.91033 0.82 0.0
C2424 C 0.19809 0.87231 0.08725 0.0
C2425 C 0.18752 0.88518 0.10979 0.0
H2426 H 0.19066 0.85795 0.04761 0.0
C2427 C 0.1601 0.89103 0.11052 0.0
H2428 H 0.21919 0.86758 0.08626 0.0
C2429 C 0.14375 0.88525 0.08876 0.0
C2430 C 0.15448 0.87387 0.06547 0.0
H2431 H 0.15135 0.90041 0.1279 0.0
H2432 H 0.12278 0.89033 0.09005 0.0
C2433 C 0.18174 0.86684 0.06518 0.0
C2434 C 0.1157 0.58704 0.17702 0.0
C2435 C 0.1407 0.58772 0.16413 0.0
H2436 H 0.09068 0.60358 0.20766 0.0
C2437 C 0.15942 0.60699 0.17191 0.0
H2438 H 0.10096 0.57221 0.1716 0.0
C2439 C 0.15353 0.62495 0.19234 0.0
C2440 C 0.12883 0.62395 0.20577 0.0
H2441 H 0.1787 0.60813 0.16219 0.0
H2442 H 0.16866 0.63935 0.19789 0.0
C2443 C 0.10988 0.60488 0.19777 0.0
C2444 C 0.85594 0.66602 0.07917 0.0
C2445 C 0.87129 0.64558 0.06759 0.0
H2446 H 0.82736 0.67647 0.10941 0.0
C2447 C 0.86804 0.61931 0.0769 0.0
H2448 H 0.85793 0.68643 0.07235 0.0
C2449 C 0.85063 0.61363 0.09777 0.0
C2450 C 0.8359 0.63401 0.11005 0.0
H2451 H 0.87897 0.6029 0.06803 0.0
H2452 H 0.84869 0.59312 0.10426 0.0
C2453 C 0.83839 0.66028 0.10029 0.0
C2454 C 0.89802 0.94327 0.18499 0.0
C2455 C 0.88448 0.93341 0.16247 0.0
H2456 H 0.91289 0.93511 0.22432 0.0
C2457 C 0.87691 0.90643 0.16212 0.0
H2458 H 0.90402 0.96399 0.18594 0.0
C2459 C 0.88208 0.88989 0.18397 0.0
C2460 C 0.89481 0.8999 0.20688 0.0
H2461 H 0.86703 0.89799 0.14488 0.0
H2462 H 0.87586 0.86925 0.18291 0.0
C2463 C 0.9031 0.92671 0.20699 0.0
C2464 C 0.43734 0.14172 0.133 0.0
C2465 C 0.46006 0.1521 0.14578 0.0
H2466 H 0.39782 0.14888 0.11866 0.0
C2467 C 0.4593 0.17866 0.15491 0.0
H2468 H 0.43704 0.12139 0.12575 0.0
C2469 C 0.43666 0.19465 0.15055 0.0
C2470 C 0.41432 0.18445 0.13692 0.0
H2471 H 0.47643 0.18734 0.16482 0.0
H2472 H 0.43702 0.21523 0.15705 0.0
C2473 C 0.41481 0.15763 0.12869 0.0
C2474 C 0.40638 0.86066 0.36928 0.0
C2475 C 0.41261 0.84167 0.38899 0.0
H2476 H 0.41752 0.89745 0.35028 0.0
C2477 C 0.43654 0.84427 0.4033 0.0
H2478 H 0.38797 0.8591 0.35805 0.0
C2479 C 0.4536 0.86579 0.39862 0.0
C2480 C 0.44687 0.88557 0.37982 0.0
H2481 H 0.44192 0.82973 0.41837 0.0
H2482 H 0.47161 0.86739 0.41049 0.0
C2483 C 0.42324 0.88259 0.36492 0.0
C2484 C 0.09376 0.31337 0.88544 0.0
C2485 C 0.12184 0.31418 0.88639 0.0
H2486 H 0.05732 0.3359 0.88281 0.0
C2487 C 0.13469 0.33909 0.88733 0.0
H2488 H 0.08334 0.29445 0.88475 0.0
C2489 C 0.11982 0.36267 0.88558 0.0
C2490 C 0.09184 0.36178 0.88361 0.0
H2491 H 0.15628 0.34037 0.88803 0.0
H2492 H 0.13017 0.38163 0.88522 0.0
C2493 C 0.07888 0.33699 0.88441 0.0
C2494 C 0.58559 0.68031 0.39955 0.0
C2495 C 0.60986 0.6825 0.38574 0.0
H2496 H 0.55017 0.65764 0.40629 0.0
C2497 C 0.61625 0.66338 0.36626 0.0
H2498 H 0.58012 0.69498 0.41442 0.0
C2499 C 0.59925 0.6416 0.36176 0.0
C2500 C 0.57533 0.63895 0.37628 0.0
H2501 H 0.63492 0.66466 0.35541 0.0
H2502 H 0.60513 0.62655 0.34741 0.0
C2503 C 0.5684 0.65897 0.39471 0.0
C2504 C 0.40152 0.69006 0.37134 0.0
C2505 C 0.4003 0.70162 0.3969 0.0
H2506 H 0.41825 0.65963 0.34649 0.0
C2507 C 0.41683 0.69123 0.41712 0.0
H2508 H 0.38965 0.69778 0.35504 0.0
C2509 C 0.43373 0.66946 0.41193 0.0
C2510 C 0.43416 0.65753 0.38653 0.0
H2511 H 0.41654 0.69971 0.43698 0.0
H2512 H 0.44587 0.66149 0.42794 0.0
C2513 C 0.41801 0.6682 0.36631 0.0
C2514 C 0.11191 0.86309 0.62529 0.0
C2515 C 0.11222 0.83593 0.63239 0.0
H2516 H 0.08998 0.89965 0.62417 0.0
C2517 C 0.08984 0.82532 0.64566 0.0
H2518 H 0.12894 0.87215 0.61555 0.0
C2519 C 0.06742 0.84128 0.65091 0.0
C2520 C 0.06687 0.86825 0.64306 0.0
H2521 H 0.0893 0.80448 0.6513 0.0
H2522 H 0.05027 0.83227 0.66054 0.0
C2523 C 0.08957 0.87901 0.63051 0.0
C2524 C 0.10982 0.66747 0.65451 0.0
C2525 C 0.08757 0.6623 0.63835 0.0
H2526 H 0.14371 0.6923 0.66173 0.0
C2527 C 0.08291 0.67846 0.61588 0.0
H2528 H 0.1138 0.6552 0.67186 0.0
C2529 C 0.09973 0.70007 0.61024 0.0
C2530 C 0.12183 0.70548 0.62667 0.0
H2531 H 0.0657 0.67496 0.60328 0.0
H2532 H 0.09529 0.71269 0.59325 0.0
C2533 C 0.12694 0.68863 0.64857 0.0
C2534 C 0.89097 0.83727 0.63741 0.0
C2535 C 0.90096 0.81503 0.62353 0.0
H2536 H 0.89894 0.87569 0.6539 0.0
C2537 C 0.92765 0.81557 0.61466 0.0
H2538 H 0.87055 0.8377 0.64453 0.0
C2539 C 0.94414 0.83747 0.62032 0.0
C2540 C 0.93432 0.85926 0.63505 0.0
H2541 H 0.93607 0.79877 0.60397 0.0
H2542 H 0.9648 0.83692 0.61394 0.0
C2543 C 0.90739 0.85905 0.64306 0.0
C2544 C 0.64045 0.93569 0.64239 0.0
C2545 C 0.63474 0.96027 0.65457 0.0
H2546 H 0.64256 0.8932 0.64706 0.0
C2547 C 0.62909 0.96081 0.68206 0.0
H2548 H 0.64486 0.93461 0.62126 0.0
C2549 C 0.62814 0.93715 0.69685 0.0
C2550 C 0.63224 0.91248 0.68431 0.0
H2551 H 0.62468 0.97948 0.69202 0.0
H2552 H 0.62302 0.938 0.71782 0.0
C2553 C 0.6389 0.91199 0.65707 0.0
C2554 C 0.18353 0.13311 0.63031 0.0
C2555 C 0.20869 0.13714 0.61848 0.0
H2556 H 0.14104 0.13209 0.62445 0.0
C2557 C 0.21027 0.13999 0.5906 0.0
H2558 H 0.18161 0.13066 0.65169 0.0
C2559 C 0.18705 0.14004 0.57502 0.0
C2560 C 0.16189 0.13791 0.58714 0.0
H2561 H 0.22938 0.14298 0.5809 0.0
H2562 H 0.18861 0.1432 0.5537 0.0
C2563 C 0.16032 0.13394 0.61481 0.0
C2564 C 0.40345 0.58781 0.68129 0.0
C2565 C 0.39354 0.61403 0.68037 0.0
H2566 H 0.40638 0.54995 0.66189 0.0
C2567 C 0.37738 0.6217 0.65875 0.0
H2568 H 0.41557 0.58121 0.69793 0.0
C2569 C 0.3722 0.60382 0.63789 0.0
C2570 C 0.38266 0.57776 0.63854 0.0
H2571 H 0.36948 0.64179 0.65758 0.0
H2572 H 0.36039 0.61056 0.62107 0.0
C2573 C 0.39792 0.56983 0.66075 0.0
C2574 C 0.84257 0.40422 0.58169 0.0
C2575 C 0.86229 0.38572 0.58931 0.0
H2576 H 0.80582 0.42374 0.592 0.0
C2577 C 0.86071 0.374 0.61473 0.0
H2578 H 0.84323 0.4135 0.56218 0.0
C2579 C 0.83951 0.37993 0.63183 0.0
C2580 C 0.81917 0.39763 0.62391 0.0
H2581 H 0.87583 0.36003 0.62136 0.0
H2582 H 0.83874 0.36998 0.65101 0.0
C2583 C 0.82113 0.41001 0.59876 0.0
C2584 C 0.6258 0.08159 0.87521 0.0
C2585 C 0.65107 0.06932 0.87574 0.0
H2586 H 0.60046 0.11097 0.85798 0.0
C2587 C 0.67066 0.07824 0.85766 0.0
H2588 H 0.61002 0.07524 0.88846 0.0
C2589 C 0.66484 0.09871 0.83933 0.0
C2590 C 0.63934 0.1107 0.83875 0.0
H2591 H 0.69032 0.06921 0.85742 0.0
H2592 H 0.68015 0.10467 0.8253 0.0
C2593 C 0.62012 0.10203 0.85726 0.0
C2594 C 0.36262 0.14822 0.41058 0.0
C2595 C 0.36258 0.14055 0.43758 0.0
H2596 H 0.34126 0.15 0.37381 0.0
C2597 C 0.34026 0.12676 0.4476 0.0
H2598 H 0.37965 0.15832 0.40195 0.0
C2599 C 0.31814 0.12162 0.4312 0.0
C2600 C 0.31791 0.13015 0.40443 0.0
H2601 H 0.33951 0.12066 0.4683 0.0
H2602 H 0.30098 0.1116 0.43973 0.0
C2603 C 0.3406 0.14316 0.39428 0.0
C2604 C 0.39626 0.41233 0.86694 0.0
C2605 C 0.38819 0.41094 0.84011 0.0
H2606 H 0.39812 0.43545 0.90262 0.0
C2607 C 0.37395 0.4326 0.82922 0.0
H2608 H 0.40679 0.39589 0.87621 0.0
C2609 C 0.36867 0.45539 0.84457 0.0
C2610 C 0.37748 0.45702 0.87118 0.0
H2611 H 0.36759 0.43233 0.80859 0.0
H2612 H 0.35826 0.47197 0.83535 0.0
C2613 C 0.39102 0.43502 0.88223 0.0
C2614 C 0.67359 0.36742 0.41715 0.0
C2615 C 0.6658 0.38609 0.43644 0.0
H2616 H 0.69939 0.35822 0.38466 0.0
C2617 C 0.67832 0.41125 0.43678 0.0
H2618 H 0.66411 0.34805 0.41618 0.0
C2619 C 0.69879 0.41723 0.4186 0.0
C2620 C 0.70693 0.39823 0.39964 0.0
H2621 H 0.67289 0.42597 0.45161 0.0
H2622 H 0.70846 0.43652 0.41966 0.0
C2623 C 0.69379 0.3734 0.39897 0.0
C2624 C 0.69292 0.65759 0.93372 0.0
C2625 C 0.68577 0.63971 0.91337 0.0
H2626 H 0.68208 0.67529 0.97115 0.0
C2627 C 0.66056 0.62744 0.91439 0.0
H2628 H 0.71226 0.66724 0.93348 0.0
C2629 C 0.64327 0.63208 0.93573 0.0
C2630 C 0.6508 0.64901 0.95676 0.0
H2631 H 0.65432 0.61391 0.89877 0.0
H2632 H 0.62433 0.62166 0.93609 0.0
C2633 C 0.67566 0.66208 0.95531 0.0
C2634 C 0.86676 0.10385 0.35132 0.0
C2635 C 0.88587 0.08506 0.35948 0.0
H2636 H 0.85671 0.13543 0.32477 0.0
C2637 C 0.91103 0.08496 0.34684 0.0
H2638 H 0.84731 0.10461 0.36075 0.0
C2639 C 0.91659 0.10293 0.32602 0.0
C2640 C 0.89721 0.1215 0.3177 0.0
H2641 H 0.9261 0.07052 0.3525 0.0
H2642 H 0.93593 0.10215 0.31635 0.0
C2643 C 0.87232 0.12177 0.33078 0.0
C2644 C 0.33965 0.86218 0.9193 0.0
C2645 C 0.33696 0.88828 0.90917 0.0
H2646 H 0.35917 0.83653 0.94772 0.0
C2647 C 0.35169 0.90887 0.92113 0.0
H2648 H 0.32871 0.84581 0.91046 0.0
C2649 C 0.36914 0.90356 0.9421 0.0
C2650 C 0.37239 0.87747 0.95193 0.0
H2651 H 0.34968 0.92928 0.91436 0.0
H2652 H 0.38004 0.92012 0.95069 0.0
C2653 C 0.3572 0.85682 0.94054 0.0
C2654 C 0.12157 0.44522 0.33852 0.0
C2655 C 0.13728 0.43627 0.36001 0.0
H2656 H 0.10513 0.43607 0.3 0.0
C2657 C 0.14645 0.4098 0.35998 0.0
H2658 H 0.11426 0.46555 0.33806 0.0
C2659 C 0.14107 0.39293 0.33855 0.0
C2660 C 0.12663 0.40214 0.31629 0.0
H2661 H 0.15809 0.40219 0.37654 0.0
H2662 H 0.14874 0.37276 0.33929 0.0
C2663 C 0.1164 0.42833 0.31676 0.0
C2664 C 0.64701 0.38485 0.59301 0.0
C2665 C 0.65901 0.38818 0.56787 0.0
H2666 H 0.6526 0.3852 0.63547 0.0
C2667 C 0.68696 0.39097 0.56638 0.0
H2668 H 0.6256 0.38243 0.59485 0.0
C2669 C 0.70241 0.3918 0.58963 0.0
C2670 C 0.6901 0.39052 0.61472 0.0
H2671 H 0.69679 0.39341 0.54728 0.0
H2672 H 0.72375 0.395 0.5881 0.0
C2673 C 0.66239 0.38645 0.61624 0.0
C2674 C 0.6563 0.12411 0.69495 0.0
C2675 C 0.6296 0.12867 0.70252 0.0
H2676 H 0.68331 0.10354 0.66934 0.0
C2677 C 0.60917 0.11544 0.68864 0.0
H2678 H 0.67265 0.13377 0.70529 0.0
C2679 C 0.61538 0.09817 0.66753 0.0
C2680 C 0.64218 0.09362 0.66 0.0
H2681 H 0.58841 0.11862 0.69389 0.0
H2682 H 0.59912 0.08868 0.65699 0.0
C2683 C 0.66248 0.10681 0.67409 0.0
C2684 C 0.33354 0.15736 0.59589 0.0
C2685 C 0.33887 0.13544 0.61261 0.0
H2686 H 0.34525 0.17949 0.56111 0.0
C2687 C 0.36173 0.11995 0.60791 0.0
H2688 H 0.31587 0.16945 0.599 0.0
C2689 C 0.37874 0.12592 0.58664 0.0
C2690 C 0.37292 0.14718 0.5692 0.0
H2691 H 0.36624 0.10304 0.62061 0.0
H2692 H 0.39595 0.11321 0.58332 0.0
C2693 C 0.35026 0.16301 0.57418 0.0
C2694 C 0.37746 0.40524 0.66433 0.0
C2695 C 0.3829 0.43278 0.66438 0.0
H2696 H 0.37781 0.36856 0.68603 0.0
C2697 C 0.39425 0.4441 0.68743 0.0
H2698 H 0.36927 0.39558 0.64688 0.0
C2699 C 0.3996 0.42837 0.70993 0.0
C2700 C 0.39363 0.40095 0.70996 0.0
H2701 H 0.39854 0.46523 0.68834 0.0
H2702 H 0.40787 0.43785 0.72749 0.0
C2703 C 0.38267 0.38958 0.6868 0.0
C2704 C 0.95863 0.68175 0.63233 0.0
C2705 C 0.95715 0.65374 0.63356 0.0
H2706 H 0.93693 0.71865 0.62925 0.0
C2707 C 0.9319 0.64154 0.6346 0.0
H2708 H 0.97782 0.6917 0.63157 0.0
C2709 C 0.90865 0.65693 0.63263 0.0
C2710 C 0.91019 0.68483 0.63036 0.0
H2711 H 0.93011 0.62002 0.63551 0.0
H2712 H 0.88942 0.64705 0.63233 0.0
C2713 C 0.93532 0.69717 0.63108 0.0
C2714 C 0.91745 0.36602 0.89695 0.0
C2715 C 0.91695 0.33902 0.8894 0.0
H2716 H 0.9394 0.40245 0.89821 0.0
C2717 C 0.939 0.32858 0.87543 0.0
H2718 H 0.90067 0.37497 0.9072 0.0
C2719 C 0.96132 0.34458 0.86991 0.0
C2720 C 0.96206 0.37137 0.87824 0.0
H2721 H 0.93937 0.30785 0.86943 0.0
H2722 H 0.97823 0.33573 0.85974 0.0
C2723 C 0.93967 0.38194 0.89151 0.0
C2724 C 0.60639 0.83216 0.41697 0.0
C2725 C 0.6223 0.8215 0.39643 0.0
H2726 H 0.57765 0.86205 0.42813 0.0
C2727 C 0.62015 0.83251 0.37067 0.0
H2728 H 0.60741 0.82408 0.43699 0.0
C2729 C 0.60338 0.85417 0.36573 0.0
C2730 C 0.58794 0.8652 0.38626 0.0
H2731 H 0.63153 0.82454 0.35415 0.0
H2732 H 0.60245 0.86235 0.34574 0.0
C2733 C 0.58924 0.85376 0.41189 0.0
C2734 C 0.10465 0.16268 0.90759 0.0
C2735 C 0.11176 0.18306 0.8898 0.0
H2736 H 0.07902 0.12977 0.91586 0.0
C2737 C 0.098 0.18519 0.86538 0.0
H2738 H 0.11506 0.16044 0.9264 0.0
C2739 C 0.07701 0.16767 0.85928 0.0
C2740 C 0.06969 0.14748 0.87733 0.0
H2741 H 0.10291 0.2009 0.85138 0.0
H2742 H 0.06638 0.17012 0.84061 0.0
C2743 C 0.08404 0.14503 0.90139 0.0
C2744 C 0.93155 0.20515 0.90947 0.0
C2745 C 0.90647 0.20782 0.89701 0.0
H2746 H 0.96726 0.18163 0.91362 0.0
C2747 C 0.89772 0.18737 0.87992 0.0
H2748 H 0.93891 0.22051 0.92274 0.0
C2749 C 0.91396 0.16535 0.87465 0.0
C2750 C 0.93932 0.16302 0.88642 0.0
H2751 H 0.87858 0.18865 0.86993 0.0
H2752 H 0.90672 0.15018 0.86112 0.0
C2753 C 0.94776 0.18286 0.90434 0.0
C2754 C 0.57 0.36499 0.12859 0.0
C2755 C 0.57686 0.38523 0.14676 0.0
H2756 H 0.58199 0.32902 0.10889 0.0
C2757 C 0.60108 0.38296 0.16089 0.0
H2758 H 0.55153 0.36597 0.11735 0.0
C2759 C 0.61842 0.36141 0.15622 0.0
C2760 C 0.61207 0.34206 0.13697 0.0
H2761 H 0.60695 0.39816 0.17507 0.0
H2762 H 0.63731 0.36049 0.16672 0.0
C2763 C 0.58748 0.34384 0.1236 0.0
C2764 C 0.60955 0.19211 0.10551 0.0
C2765 C 0.62565 0.20368 0.12537 0.0
H2766 H 0.58085 0.16179 0.09591 0.0
C2767 C 0.62411 0.19354 0.15153 0.0
H2768 H 0.61022 0.19944 0.08519 0.0
C2769 C 0.60733 0.17223 0.15764 0.0
C2770 C 0.59152 0.16033 0.13783 0.0
H2771 H 0.63594 0.20203 0.16749 0.0
H2772 H 0.60663 0.16517 0.17804 0.0
C2773 C 0.59262 0.17064 0.1117 0.0
C2774 C 0.40726 0.36378 0.14296 0.0
C2775 C 0.43509 0.36384 0.13877 0.0
H2776 H 0.37095 0.34146 0.14277 0.0
C2777 C 0.44726 0.34026 0.12953 0.0
H2778 H 0.39693 0.38158 0.14946 0.0
C2779 C 0.4321 0.31713 0.12524 0.0
C2780 C 0.4044 0.31699 0.13016 0.0
H2781 H 0.46861 0.33942 0.1262 0.0
H2782 H 0.44225 0.2992 0.11869 0.0
C2783 C 0.39219 0.3407 0.13882 0.0
loop_
_geom_bond_atom_site_label_1
_geom_bond_atom_site_label_2
_geom_bond_distance
_geom_bond_site_symmetry_2
_ccdc_geom_bond_type
Co0 N4 2.148 . S
Co0 N10 2.128 . S
Co0 N20 2.194 . S
Co0 O25 2.351 . S
Co0 O26 2.155 . S
Co0 O27 2.096 . S
C1 N4 1.301 . S
C1 N5 1.328 . S
C1 H6 0.930 . S
C2 C3 1.333 . S
C2 N4 1.317 . S
C2 H7 0.930 . S
C3 C2 1.333 . S
C3 N5 1.350 . S
C3 H29 0.931 . S
N4 Co0 2.148 . S
N4 C1 1.301 . S
N4 C2 1.317 . S
N5 C1 1.328 . S
N5 C3 1.350 . S
H6 C1 0.930 . S
H7 C2 0.930 . S
C8 O9 1.224 . S
C8 O27 1.247 . S
O9 C8 1.224 . S
N10 Co0 2.128 . S
N10 C11 1.355 . S
N10 C13 1.311 . S
C11 N10 1.355 . S
C11 C12 1.363 . S
C11 H23 0.929 . S
C12 C11 1.363 . S
C12 N14 1.375 . S
C12 H30 0.931 . S
C13 N10 1.311 . S
C13 N14 1.347 . S
C13 H24 0.929 . S
N14 C12 1.375 . S
N14 C13 1.347 . S
C15 C18 1.365 . S
C15 N20 1.328 . S
C15 H21 0.929 . S
C16 C17 1.362 . S
C16 C19 1.378 . S
C16 H31 0.929 . S
C17 C16 1.362 . S
C17 C18 1.366 . S
C18 C15 1.365 . S
C18 C17 1.366 . S
C18 H32 0.930 . S
C19 C16 1.378 . S
C19 N20 1.315 . S
C19 H22 0.930 . S
N20 Co0 2.194 . S
N20 C15 1.328 . S
N20 C19 1.315 . S
H21 C15 0.929 . S
H22 C19 0.930 . S
H23 C11 0.929 . S
H24 C13 0.929 . S
O25 Co0 2.351 . S
O25 C28 1.244 . S
O26 Co0 2.155 . S
O26 C28 1.240 . S
O27 Co0 2.096 . S
O27 C8 1.247 . S
C28 O25 1.244 . S
C28 O26 1.240 . S
H29 C3 0.931 . S
H30 C12 0.931 . S
H31 C16 0.929 . S
H32 C18 0.930 . S
Co33 N37 2.148 1_554 S
Co33 N43 2.128 . S
Co33 N53 2.194 . S
Co33 O58 2.351 . S
Co33 O59 2.155 . S
Co33 O60 2.096 1_554 S
C34 N37 1.301 . S
C34 N38 1.328 . S
C34 H39 0.930 1_556 S
C35 C36 1.333 . S
C35 N37 1.317 . S
C35 H40 0.930 . S
C36 C35 1.333 . S
C36 N38 1.350 . S
C36 H62 0.931 . S
N37 Co33 2.148 1_556 S
N37 C34 1.301 . S
N37 C35 1.317 . S
N38 C34 1.328 . S
N38 C36 1.350 . S
H39 C34 0.930 1_554 S
H40 C35 0.930 . S
C41 O42 1.224 . S
C41 O60 1.247 . S
O42 C41 1.224 . S
N43 Co33 2.128 . S
N43 C44 1.355 . S
N43 C46 1.311 . S
C44 N43 1.355 . S
C44 C45 1.363 . S
C44 H56 0.929 . S
C45 C44 1.363 . S
C45 N47 1.375 . S
C45 H63 0.931 . S
C46 N43 1.311 . S
C46 N47 1.347 . S
C46 H57 0.929 . S
N47 C45 1.375 . S
N47 C46 1.347 . S
C48 C51 1.365 . S
C48 N53 1.328 . S
C48 H54 0.929 . S
C49 C50 1.362 . S
C49 C52 1.378 . S
C49 H64 0.929 . S
C50 C49 1.362 . S
C50 C51 1.366 . S
C51 C48 1.365 . S
C51 C50 1.366 . S
C51 H65 0.930 . S
C52 C49 1.378 . S
C52 N53 1.315 . S
C52 H55 0.931 1_554 S
N53 Co33 2.194 . S
N53 C48 1.328 . S
N53 C52 1.315 . S
H54 C48 0.929 . S
H55 C52 0.931 1_556 S
H56 C44 0.929 . S
H57 C46 0.929 . S
O58 Co33 2.351 . S
O58 C61 1.244 . S
O59 Co33 2.155 . S
O59 C61 1.240 . S
O60 Co33 2.096 1_556 S
O60 C41 1.247 . S
C61 O58 1.244 . S
C61 O59 1.240 . S
H62 C36 0.931 . S
H63 C45 0.931 . S
H64 C49 0.929 . S
H65 C51 0.930 . S
Co66 N70 2.148 . S
Co66 N76 2.128 . S
Co66 N86 2.194 . S
Co66 O91 2.351 . S
Co66 O92 2.155 . S
Co66 O93 2.096 . S
C67 N70 1.301 . S
C67 N71 1.328 . S
C67 H72 0.930 . S
C68 C69 1.333 . S
C68 N70 1.317 . S
C68 H73 0.930 . S
C69 C68 1.333 . S
C69 N71 1.350 . S
C69 H95 0.931 . S
N70 Co66 2.148 . S
N70 C67 1.301 . S
N70 C68 1.317 . S
N71 C67 1.328 . S
N71 C69 1.350 . S
H72 C67 0.930 . S
H73 C68 0.930 . S
C74 O75 1.224 . S
C74 O93 1.247 . S
O75 C74 1.224 . S
N76 Co66 2.128 . S
N76 C77 1.355 . S
N76 C79 1.311 . S
C77 N76 1.355 . S
C77 C78 1.363 . S
C77 H89 0.929 . S
C78 C77 1.363 . S
C78 N80 1.375 . S
C78 H96 0.931 . S
C79 N76 1.311 . S
C79 N80 1.347 . S
C79 H90 0.929 . S
N80 C78 1.375 . S
N80 C79 1.347 . S
C81 C84 1.365 . S
C81 N86 1.328 . S
C81 H87 0.929 . S
C82 C83 1.362 . S
C82 C85 1.378 . S
C82 H97 0.929 . S
C83 C82 1.362 . S
C83 C84 1.366 . S
C84 C81 1.365 . S
C84 C83 1.366 . S
C84 H98 0.930 . S
C85 C82 1.378 . S
C85 N86 1.315 . S
C85 H88 0.930 . S
N86 Co66 2.194 . S
N86 C81 1.328 . S
N86 C85 1.315 . S
H87 C81 0.929 . S
H88 C85 0.930 . S
H89 C77 0.929 . S
H90 C79 0.929 . S
O91 Co66 2.351 . S
O91 C94 1.244 . S
O92 Co66 2.155 . S
O92 C94 1.240 . S
O93 Co66 2.096 . S
O93 C74 1.247 . S
C94 O91 1.244 . S
C94 O92 1.240 . S
H95 C69 0.931 . S
H96 C78 0.931 . S
H97 C82 0.929 . S
H98 C84 0.930 . S
Co99 N103 2.148 1_554 S
Co99 N109 2.128 . S
Co99 N119 2.194 . S
Co99 O124 2.351 . S
Co99 O125 2.155 . S
Co99 O126 2.096 1_554 S
C100 N103 1.301 . S
C100 N104 1.328 . S
C100 H105 0.930 1_556 S
C101 C102 1.333 . S
C101 N103 1.317 . S
C101 H106 0.930 . S
C102 C101 1.333 . S
C102 N104 1.350 . S
C102 H128 0.931 . S
N103 Co99 2.148 1_556 S
N103 C100 1.301 . S
N103 C101 1.317 . S
N104 C100 1.328 . S
N104 C102 1.350 . S
H105 C100 0.930 1_554 S
H106 C101 0.930 . S
C107 O108 1.224 . S
C107 O126 1.247 . S
O108 C107 1.224 . S
N109 Co99 2.128 . S
N109 C110 1.355 . S
N109 C112 1.311 . S
C110 N109 1.355 . S
C110 C111 1.363 . S
C110 H122 0.929 . S
C111 C110 1.363 . S
C111 N113 1.375 . S
C111 H129 0.931 . S
C112 N109 1.311 . S
C112 N113 1.347 . S
C112 H123 0.929 . S
N113 C111 1.375 . S
N113 C112 1.347 . S
C114 C117 1.365 . S
C114 N119 1.328 . S
C114 H120 0.929 . S
C115 C116 1.362 . S
C115 C118 1.378 . S
C115 H130 0.929 . S
C116 C115 1.362 . S
C116 C117 1.366 . S
C117 C114 1.365 . S
C117 C116 1.366 . S
C117 H131 0.930 . S
C118 C115 1.378 . S
C118 N119 1.315 . S
C118 H121 0.931 1_554 S
N119 Co99 2.194 . S
N119 C114 1.328 . S
N119 C118 1.315 . S
H120 C114 0.929 . S
H121 C118 0.931 1_556 S
H122 C110 0.929 . S
H123 C112 0.929 . S
O124 Co99 2.351 . S
O124 C127 1.244 . S
O125 Co99 2.155 . S
O125 C127 1.240 . S
O126 Co99 2.096 1_556 S
O126 C107 1.247 . S
C127 O124 1.244 . S
C127 O125 1.240 . S
H128 C102 0.931 . S
H129 C111 0.931 . S
H130 C115 0.929 . S
H131 C117 0.930 . S
Co132 N136 2.148 . S
Co132 N142 2.128 . S
Co132 N152 2.194 . S
Co132 O157 2.351 . S
Co132 O158 2.155 . S
Co132 O159 2.096 . S
C133 N136 1.301 . S
C133 N137 1.328 . S
C133 H138 0.930 . S
C134 C135 1.333 . S
C134 N136 1.317 . S
C134 H139 0.930 . S
C135 C134 1.333 . S
C135 N137 1.350 . S
C135 H161 0.931 . S
N136 Co132 2.148 . S
N136 C133 1.301 . S
N136 C134 1.317 . S
N137 C133 1.328 . S
N137 C135 1.350 . S
H138 C133 0.930 . S
H139 C134 0.930 . S
C140 O141 1.224 . S
C140 O159 1.247 . S
O141 C140 1.224 . S
N142 Co132 2.128 . S
N142 C143 1.355 . S
N142 C145 1.311 . S
C143 N142 1.355 . S
C143 C144 1.363 . S
C143 H155 0.929 . S
C144 C143 1.363 . S
C144 N146 1.375 . S
C144 H162 0.931 . S
C145 N142 1.311 . S
C145 N146 1.347 . S
C145 H156 0.929 . S
N146 C144 1.375 . S
N146 C145 1.347 . S
C147 C150 1.365 . S
C147 N152 1.328 . S
C147 H153 0.929 . S
C148 C149 1.362 . S
C148 C151 1.378 . S
C148 H163 0.929 . S
C149 C148 1.362 . S
C149 C150 1.366 . S
C150 C147 1.365 . S
C150 C149 1.366 . S
C150 H164 0.930 . S
C151 C148 1.378 . S
C151 N152 1.315 . S
C151 H154 0.930 . S
N152 Co132 2.194 . S
N152 C147 1.328 . S
N152 C151 1.315 . S
H153 C147 0.929 . S
H154 C151 0.930 . S
H155 C143 0.929 . S
H156 C145 0.929 . S
O157 Co132 2.351 . S
O157 C160 1.244 . S
O158 Co132 2.155 . S
O158 C160 1.240 . S
O159 Co132 2.096 . S
O159 C140 1.247 . S
C160 O157 1.244 . S
C160 O158 1.240 . S
H161 C135 0.931 . S
H162 C144 0.931 . S
H163 C148 0.929 . S
H164 C150 0.930 . S
Co165 N169 2.148 1_556 S
Co165 N175 2.128 . S
Co165 N185 2.194 . S
Co165 O190 2.351 . S
Co165 O191 2.155 . S
Co165 O192 2.096 1_556 S
C166 N169 1.301 . S
C166 N170 1.328 . S
C166 H171 0.930 1_554 S
C167 C168 1.333 . S
C167 N169 1.317 . S
C167 H172 0.930 . S
C168 C167 1.333 . S
C168 N170 1.350 . S
C168 H194 0.931 . S
N169 Co165 2.148 1_554 S
N169 C166 1.301 . S
N169 C167 1.317 . S
N170 C166 1.328 . S
N170 C168 1.350 . S
H171 C166 0.930 1_556 S
H172 C167 0.930 . S
C173 O174 1.224 . S
C173 O192 1.247 . S
O174 C173 1.224 . S
N175 Co165 2.128 . S
N175 C176 1.355 . S
N175 C178 1.311 . S
C176 N175 1.355 . S
C176 C177 1.363 . S
C176 H188 0.929 . S
C177 C176 1.363 . S
C177 N179 1.375 . S
C177 H195 0.931 . S
C178 N175 1.311 . S
C178 N179 1.347 . S
C178 H189 0.929 . S
N179 C177 1.375 . S
N179 C178 1.347 . S
C180 C183 1.365 . S
C180 N185 1.328 . S
C180 H186 0.929 . S
C181 C182 1.362 . S
C181 C184 1.378 . S
C181 H196 0.929 . S
C182 C181 1.362 . S
C182 C183 1.366 . S
C183 C180 1.365 . S
C183 C182 1.366 . S
C183 H197 0.930 . S
C184 C181 1.378 . S
C184 N185 1.315 . S
C184 H187 0.931 1_556 S
N185 Co165 2.194 . S
N185 C180 1.328 . S
N185 C184 1.315 . S
H186 C180 0.929 . S
H187 C184 0.931 1_554 S
H188 C176 0.929 . S
H189 C178 0.929 . S
O190 Co165 2.351 . S
O190 C193 1.244 . S
O191 Co165 2.155 . S
O191 C193 1.240 . S
O192 Co165 2.096 1_554 S
O192 C173 1.247 . S
C193 O190 1.244 . S
C193 O191 1.240 . S
H194 C168 0.931 . S
H195 C177 0.931 . S
H196 C181 0.929 . S
H197 C183 0.930 . S
Co198 N202 2.148 . S
Co198 N208 2.128 . S
Co198 N218 2.194 . S
Co198 O223 2.351 . S
Co198 O224 2.155 . S
Co198 O225 2.096 . S
C199 N202 1.301 . S
C199 N203 1.328 . S
C199 H204 0.930 . S
C200 C201 1.333 . S
C200 N202 1.317 . S
C200 H205 0.930 . S
C201 C200 1.333 . S
C201 N203 1.350 . S
C201 H227 0.931 . S
N202 Co198 2.148 . S
N202 C199 1.301 . S
N202 C200 1.317 . S
N203 C199 1.328 . S
N203 C201 1.350 . S
H204 C199 0.930 . S
H205 C200 0.930 . S
C206 O207 1.224 . S
C206 O225 1.247 . S
O207 C206 1.224 . S
N208 Co198 2.128 . S
N208 C209 1.355 . S
N208 C211 1.311 . S
C209 N208 1.355 . S
C209 C210 1.363 . S
C209 H221 0.929 . S
C210 C209 1.363 . S
C210 N212 1.375 . S
C210 H228 0.931 . S
C211 N208 1.311 . S
C211 N212 1.347 . S
C211 H222 0.929 . S
N212 C210 1.375 . S
N212 C211 1.347 . S
C213 C216 1.365 . S
C213 N218 1.328 . S
C213 H219 0.929 . S
C214 C215 1.362 . S
C214 C217 1.378 . S
C214 H229 0.929 . S
C215 C214 1.362 . S
C215 C216 1.366 . S
C216 C213 1.365 . S
C216 C215 1.366 . S
C216 H230 0.930 . S
C217 C214 1.378 . S
C217 N218 1.315 . S
C217 H220 0.930 . S
N218 Co198 2.194 . S
N218 C213 1.328 . S
N218 C217 1.315 . S
H219 C213 0.929 . S
H220 C217 0.930 . S
H221 C209 0.929 . S
H222 C211 0.929 . S
O223 Co198 2.351 . S
O223 C226 1.244 . S
O224 Co198 2.155 . S
O224 C226 1.240 . S
O225 Co198 2.096 . S
O225 C206 1.247 . S
C226 O223 1.244 . S
C226 O224 1.240 . S
H227 C201 0.931 . S
H228 C210 0.931 . S
H229 C214 0.929 . S
H230 C216 0.930 . S
Co231 N235 2.148 1_556 S
Co231 N241 2.128 . S
Co231 N251 2.194 . S
Co231 O256 2.351 . S
Co231 O257 2.155 . S
Co231 O258 2.096 1_556 S
C232 N235 1.301 . S
C232 N236 1.328 . S
C232 H237 0.930 1_554 S
C233 C234 1.333 . S
C233 N235 1.317 . S
C233 H238 0.930 . S
C234 C233 1.333 . S
C234 N236 1.350 . S
C234 H260 0.931 . S
N235 Co231 2.148 1_554 S
N235 C232 1.301 . S
N235 C233 1.317 . S
N236 C232 1.328 . S
N236 C234 1.350 . S
H237 C232 0.930 1_556 S
H238 C233 0.930 . S
C239 O240 1.224 . S
C239 O258 1.247 . S
O240 C239 1.224 . S
N241 Co231 2.128 . S
N241 C242 1.355 . S
N241 C244 1.311 . S
C242 N241 1.355 . S
C242 C243 1.363 . S
C242 H254 0.929 . S
C243 C242 1.363 . S
C243 N245 1.375 . S
C243 H261 0.931 . S
C244 N241 1.311 . S
C244 N245 1.347 . S
C244 H255 0.929 . S
N245 C243 1.375 . S
N245 C244 1.347 . S
C246 C249 1.365 . S
C246 N251 1.328 . S
C246 H252 0.929 . S
C247 C248 1.362 . S
C247 C250 1.378 . S
C247 H262 0.929 . S
C248 C247 1.362 . S
C248 C249 1.366 . S
C249 C246 1.365 . S
C249 C248 1.366 . S
C249 H263 0.930 . S
C250 C247 1.378 . S
C250 N251 1.315 . S
C250 H253 0.931 1_556 S
N251 Co231 2.194 . S
N251 C246 1.328 . S
N251 C250 1.315 . S
H252 C246 0.929 . S
H253 C250 0.931 1_554 S
H254 C242 0.929 . S
H255 C244 0.929 . S
O256 Co231 2.351 . S
O256 C259 1.244 . S
O257 Co231 2.155 . S
O257 C259 1.240 . S
O258 Co231 2.096 1_554 S
O258 C239 1.247 . S
C259 O256 1.244 . S
C259 O257 1.240 . S
H260 C234 0.931 . S
H261 C243 0.931 . S
H262 C247 0.929 . S
H263 C249 0.930 . S
Co264 N268 2.148 . S
Co264 N274 2.128 . S
Co264 N284 2.194 . S
Co264 O289 2.351 . S
Co264 O290 2.155 . S
Co264 O291 2.096 . S
C265 N268 1.301 . S
C265 N269 1.328 . S
C265 H270 0.930 . S
C266 C267 1.333 . S
C266 N268 1.317 . S
C266 H271 0.930 . S
C267 C266 1.333 . S
C267 N269 1.350 . S
C267 H293 0.931 . S
N268 Co264 2.148 . S
N268 C265 1.301 . S
N268 C266 1.317 . S
N269 C265 1.328 . S
N269 C267 1.350 . S
H270 C265 0.930 . S
H271 C266 0.930 . S
C272 O273 1.224 . S
C272 O291 1.247 . S
O273 C272 1.224 . S
N274 Co264 2.128 . S
N274 C275 1.355 . S
N274 C277 1.311 . S
C275 N274 1.355 . S
C275 C276 1.363 . S
C275 H287 0.929 . S
C276 C275 1.363 . S
C276 N278 1.375 . S
C276 H294 0.931 . S
C277 N274 1.311 . S
C277 N278 1.347 . S
C277 H288 0.929 . S
N278 C276 1.375 . S
N278 C277 1.347 . S
C279 C282 1.365 . S
C279 N284 1.328 . S
C279 H285 0.929 . S
C280 C281 1.362 . S
C280 C283 1.378 . S
C280 H295 0.929 . S
C281 C280 1.362 . S
C281 C282 1.366 . S
C282 C279 1.365 . S
C282 C281 1.366 . S
C282 H296 0.930 . S
C283 C280 1.378 . S
C283 N284 1.315 . S
C283 H286 0.930 . S
N284 Co264 2.194 . S
N284 C279 1.328 . S
N284 C283 1.315 . S
H285 C279 0.929 . S
H286 C283 0.930 . S
H287 C275 0.929 . S
H288 C277 0.929 . S
O289 Co264 2.351 . S
O289 C292 1.244 . S
O290 Co264 2.155 . S
O290 C292 1.240 . S
O291 Co264 2.096 . S
O291 C272 1.247 . S
C292 O289 1.244 . S
C292 O290 1.240 . S
H293 C267 0.931 . S
H294 C276 0.931 . S
H295 C280 0.929 . S
H296 C282 0.930 . S
Co297 N301 2.148 . S
Co297 N307 2.128 . S
Co297 N317 2.194 . S
Co297 O322 2.351 . S
Co297 O323 2.155 . S
Co297 O324 2.096 . S
C298 N301 1.301 . S
C298 N302 1.328 . S
C298 H303 0.930 . S
C299 C300 1.333 . S
C299 N301 1.317 . S
C299 H304 0.930 . S
C300 C299 1.333 . S
C300 N302 1.350 . S
C300 H326 0.931 . S
N301 Co297 2.148 . S
N301 C298 1.301 . S
N301 C299 1.317 . S
N302 C298 1.328 . S
N302 C300 1.350 . S
H303 C298 0.930 . S
H304 C299 0.930 . S
C305 O306 1.224 . S
C305 O324 1.247 . S
O306 C305 1.224 . S
N307 Co297 2.128 . S
N307 C308 1.355 . S
N307 C310 1.311 . S
C308 N307 1.355 . S
C308 C309 1.363 . S
C308 H320 0.929 . S
C309 C308 1.363 . S
C309 N311 1.375 . S
C309 H327 0.931 . S
C310 N307 1.311 . S
C310 N311 1.347 . S
C310 H321 0.929 . S
N311 C309 1.375 . S
N311 C310 1.347 . S
C312 C315 1.365 . S
C312 N317 1.328 . S
C312 H318 0.929 . S
C313 C314 1.362 . S
C313 C316 1.378 . S
C313 H328 0.929 . S
C314 C313 1.362 . S
C314 C315 1.366 . S
C315 C312 1.365 . S
C315 C314 1.366 . S
C315 H329 0.930 . S
C316 C313 1.378 . S
C316 N317 1.315 . S
C316 H319 0.930 . S
N317 Co297 2.194 . S
N317 C312 1.328 . S
N317 C316 1.315 . S
H318 C312 0.929 . S
H319 C316 0.930 . S
H320 C308 0.929 . S
H321 C310 0.929 . S
O322 Co297 2.351 . S
O322 C325 1.244 . S
O323 Co297 2.155 . S
O323 C325 1.240 . S
O324 Co297 2.096 . S
O324 C305 1.247 . S
C325 O322 1.244 . S
C325 O323 1.240 . S
H326 C300 0.931 . S
H327 C309 0.931 . S
H328 C313 0.929 . S
H329 C315 0.930 . S
Co330 N334 2.148 . S
Co330 N340 2.128 . S
Co330 N350 2.194 . S
Co330 O355 2.351 . S
Co330 O356 2.155 . S
Co330 O357 2.096 . S
C331 N334 1.301 . S
C331 N335 1.328 . S
C331 H336 0.930 . S
C332 C333 1.333 . S
C332 N334 1.317 . S
C332 H337 0.930 . S
C333 C332 1.333 . S
C333 N335 1.350 . S
C333 H359 0.931 . S
N334 Co330 2.148 . S
N334 C331 1.301 . S
N334 C332 1.317 . S
N335 C331 1.328 . S
N335 C333 1.350 . S
H336 C331 0.930 . S
H337 C332 0.930 . S
C338 O339 1.224 . S
C338 O357 1.247 . S
O339 C338 1.224 . S
N340 Co330 2.128 . S
N340 C341 1.355 . S
N340 C343 1.311 . S
C341 N340 1.355 . S
C341 C342 1.363 . S
C341 H353 0.929 . S
C342 C341 1.363 . S
C342 N344 1.375 . S
C342 H360 0.931 . S
C343 N340 1.311 . S
C343 N344 1.347 . S
C343 H354 0.929 . S
N344 C342 1.375 . S
N344 C343 1.347 . S
C345 C348 1.365 . S
C345 N350 1.328 . S
C345 H351 0.929 . S
C346 C347 1.362 . S
C346 C349 1.378 . S
C346 H361 0.929 . S
C347 C346 1.362 . S
C347 C348 1.366 . S
C348 C345 1.365 . S
C348 C347 1.366 . S
C348 H362 0.930 . S
C349 C346 1.378 . S
C349 N350 1.315 . S
C349 H352 0.930 . S
N350 Co330 2.194 . S
N350 C345 1.328 . S
N350 C349 1.315 . S
H351 C345 0.929 . S
H352 C349 0.930 . S
H353 C341 0.929 . S
H354 C343 0.929 . S
O355 Co330 2.351 . S
O355 C358 1.244 . S
O356 Co330 2.155 . S
O356 C358 1.240 . S
O357 Co330 2.096 . S
O357 C338 1.247 . S
C358 O355 1.244 . S
C358 O356 1.240 . S
H359 C333 0.931 . S
H360 C342 0.931 . S
H361 C346 0.929 . S
H362 C348 0.930 . S
Co363 N367 2.148 1_565 S
Co363 N373 2.128 . S
Co363 N383 2.194 . S
Co363 O388 2.351 . S
Co363 O389 2.155 . S
Co363 O390 2.096 1_565 S
C364 N367 1.301 . S
C364 N368 1.328 . S
C364 H369 0.930 1_545 S
C365 C366 1.333 . S
C365 N367 1.317 . S
C365 H370 0.930 . S
C366 C365 1.333 . S
C366 N368 1.350 . S
C366 H392 0.931 . S
N367 Co363 2.148 1_545 S
N367 C364 1.301 . S
N367 C365 1.317 . S
N368 C364 1.328 . S
N368 C366 1.350 . S
H369 C364 0.930 1_565 S
H370 C365 0.930 . S
C371 O372 1.224 . S
C371 O390 1.247 . S
O372 C371 1.224 . S
N373 Co363 2.128 . S
N373 C374 1.355 . S
N373 C376 1.311 . S
C374 N373 1.355 . S
C374 C375 1.363 . S
C374 H386 0.929 . S
C375 C374 1.363 . S
C375 N377 1.375 . S
C375 H393 0.931 . S
C376 N373 1.311 . S
C376 N377 1.347 . S
C376 H387 0.929 . S
N377 C375 1.375 . S
N377 C376 1.347 . S
C378 C381 1.365 . S
C378 N383 1.328 . S
C378 H384 0.929 . S
C379 C380 1.362 . S
C379 C382 1.378 . S
C379 H394 0.929 . S
C380 C379 1.362 . S
C380 C381 1.366 . S
C381 C378 1.365 . S
C381 C380 1.366 . S
C381 H395 0.930 . S
C382 C379 1.378 . S
C382 N383 1.315 . S
C382 H385 0.931 1_565 S
N383 Co363 2.194 . S
N383 C378 1.328 . S
N383 C382 1.315 . S
H384 C378 0.929 . S
H385 C382 0.931 1_545 S
H386 C374 0.929 . S
H387 C376 0.929 . S
O388 Co363 2.351 . S
O388 C391 1.244 . S
O389 Co363 2.155 . S
O389 C391 1.240 . S
O390 Co363 2.096 1_545 S
O390 C371 1.247 . S
C391 O388 1.244 . S
C391 O389 1.240 . S
H392 C366 0.931 . S
H393 C375 0.931 . S
H394 C379 0.929 . S
H395 C381 0.930 . S
Co396 N400 2.148 . S
Co396 N406 2.128 . S
Co396 N416 2.194 . S
Co396 O421 2.351 . S
Co396 O422 2.155 . S
Co396 O423 2.096 . S
C397 N400 1.301 . S
C397 N401 1.328 . S
C397 H402 0.930 . S
C398 C399 1.333 . S
C398 N400 1.317 . S
C398 H403 0.930 . S
C399 C398 1.333 . S
C399 N401 1.350 . S
C399 H425 0.931 . S
N400 Co396 2.148 . S
N400 C397 1.301 . S
N400 C398 1.317 . S
N401 C397 1.328 . S
N401 C399 1.350 . S
H402 C397 0.930 . S
H403 C398 0.930 . S
C404 O405 1.224 . S
C404 O423 1.247 . S
O405 C404 1.224 . S
N406 Co396 2.128 . S
N406 C407 1.355 . S
N406 C409 1.311 . S
C407 N406 1.355 . S
C407 C408 1.363 . S
C407 H419 0.929 . S
C408 C407 1.363 . S
C408 N410 1.375 . S
C408 H426 0.931 . S
C409 N406 1.311 . S
C409 N410 1.347 . S
C409 H420 0.929 . S
N410 C408 1.375 . S
N410 C409 1.347 . S
C411 C414 1.365 . S
C411 N416 1.328 . S
C411 H417 0.929 . S
C412 C413 1.362 . S
C412 C415 1.378 . S
C412 H427 0.929 . S
C413 C412 1.362 . S
C413 C414 1.366 . S
C414 C411 1.365 . S
C414 C413 1.366 . S
C414 H428 0.930 . S
C415 C412 1.378 . S
C415 N416 1.315 . S
C415 H418 0.930 . S
N416 Co396 2.194 . S
N416 C411 1.328 . S
N416 C415 1.315 . S
H417 C411 0.929 . S
H418 C415 0.930 . S
H419 C407 0.929 . S
H420 C409 0.929 . S
O421 Co396 2.351 . S
O421 C424 1.244 . S
O422 Co396 2.155 . S
O422 C424 1.240 . S
O423 Co396 2.096 . S
O423 C404 1.247 . S
C424 O421 1.244 . S
C424 O422 1.240 . S
H425 C399 0.931 . S
H426 C408 0.931 . S
H427 C412 0.929 . S
H428 C414 0.930 . S
Co429 N433 2.148 . S
Co429 N439 2.128 . S
Co429 N449 2.194 . S
Co429 O454 2.351 . S
Co429 O455 2.155 . S
Co429 O456 2.096 . S
C430 N433 1.301 . S
C430 N434 1.328 . S
C430 H435 0.930 . S
C431 C432 1.333 . S
C431 N433 1.317 . S
C431 H436 0.930 . S
C432 C431 1.333 . S
C432 N434 1.350 . S
C432 H458 0.931 . S
N433 Co429 2.148 . S
N433 C430 1.301 . S
N433 C431 1.317 . S
N434 C430 1.328 . S
N434 C432 1.350 . S
H435 C430 0.930 . S
H436 C431 0.930 . S
C437 O438 1.224 . S
C437 O456 1.247 . S
O438 C437 1.224 . S
N439 Co429 2.128 . S
N439 C440 1.355 . S
N439 C442 1.311 . S
C440 N439 1.355 . S
C440 C441 1.363 . S
C440 H452 0.929 . S
C441 C440 1.363 . S
C441 N443 1.375 . S
C441 H459 0.931 . S
C442 N439 1.311 . S
C442 N443 1.347 . S
C442 H453 0.929 . S
N443 C441 1.375 . S
N443 C442 1.347 . S
C444 C447 1.365 . S
C444 N449 1.328 . S
C444 H450 0.929 . S
C445 C446 1.362 . S
C445 C448 1.378 . S
C445 H460 0.929 . S
C446 C445 1.362 . S
C446 C447 1.366 . S
C447 C444 1.365 . S
C447 C446 1.366 . S
C447 H461 0.930 . S
C448 C445 1.378 . S
C448 N449 1.315 . S
C448 H451 0.930 . S
N449 Co429 2.194 . S
N449 C444 1.328 . S
N449 C448 1.315 . S
H450 C444 0.929 . S
H451 C448 0.930 . S
H452 C440 0.929 . S
H453 C442 0.929 . S
O454 Co429 2.351 . S
O454 C457 1.244 . S
O455 Co429 2.155 . S
O455 C457 1.240 . S
O456 Co429 2.096 . S
O456 C437 1.247 . S
C457 O454 1.244 . S
C457 O455 1.240 . S
H458 C432 0.931 . S
H459 C441 0.931 . S
H460 C445 0.929 . S
H461 C447 0.930 . S
Co462 N466 2.148 . S
Co462 N472 2.128 . S
Co462 N482 2.194 . S
Co462 O487 2.351 . S
Co462 O488 2.155 . S
Co462 O489 2.096 . S
C463 N466 1.301 . S
C463 N467 1.328 . S
C463 H468 0.930 . S
C464 C465 1.333 . S
C464 N466 1.317 . S
C464 H469 0.930 . S
C465 C464 1.333 . S
C465 N467 1.350 . S
C465 H491 0.931 . S
N466 Co462 2.148 . S
N466 C463 1.301 . S
N466 C464 1.317 . S
N467 C463 1.328 . S
N467 C465 1.350 . S
H468 C463 0.930 . S
H469 C464 0.930 . S
C470 O471 1.224 . S
C470 O489 1.247 . S
O471 C470 1.224 . S
N472 Co462 2.128 . S
N472 C473 1.355 . S
N472 C475 1.311 . S
C473 N472 1.355 . S
C473 C474 1.363 . S
C473 H485 0.929 . S
C474 C473 1.363 . S
C474 N476 1.375 . S
C474 H492 0.931 . S
C475 N472 1.311 . S
C475 N476 1.347 . S
C475 H486 0.929 . S
N476 C474 1.375 . S
N476 C475 1.347 . S
C477 C480 1.365 . S
C477 N482 1.328 . S
C477 H483 0.929 . S
C478 C479 1.362 . S
C478 C481 1.378 . S
C478 H493 0.929 . S
C479 C478 1.362 . S
C479 C480 1.366 . S
C480 C477 1.365 . S
C480 C479 1.366 . S
C480 H494 0.930 . S
C481 C478 1.378 . S
C481 N482 1.315 . S
C481 H484 0.930 . S
N482 Co462 2.194 . S
N482 C477 1.328 . S
N482 C481 1.315 . S
H483 C477 0.929 . S
H484 C481 0.930 . S
H485 C473 0.929 . S
H486 C475 0.929 . S
O487 Co462 2.351 . S
O487 C490 1.244 . S
O488 Co462 2.155 . S
O488 C490 1.240 . S
O489 Co462 2.096 . S
O489 C470 1.247 . S
C490 O487 1.244 . S
C490 O488 1.240 . S
H491 C465 0.931 . S
H492 C474 0.931 . S
H493 C478 0.929 . S
H494 C480 0.930 . S
Co495 N499 2.148 1_565 S
Co495 N505 2.128 . S
Co495 N515 2.194 . S
Co495 O520 2.351 . S
Co495 O521 2.155 . S
Co495 O522 2.096 1_565 S
C496 N499 1.301 . S
C496 N500 1.328 . S
C496 H501 0.930 1_545 S
C497 C498 1.333 . S
C497 N499 1.317 . S
C497 H502 0.930 . S
C498 C497 1.333 . S
C498 N500 1.350 . S
C498 H524 0.931 . S
N499 Co495 2.148 1_545 S
N499 C496 1.301 . S
N499 C497 1.317 . S
N500 C496 1.328 . S
N500 C498 1.350 . S
H501 C496 0.930 1_565 S
H502 C497 0.930 . S
C503 O504 1.224 . S
C503 O522 1.247 . S
O504 C503 1.224 . S
N505 Co495 2.128 . S
N505 C506 1.355 . S
N505 C508 1.311 . S
C506 N505 1.355 . S
C506 C507 1.363 . S
C506 H518 0.929 . S
C507 C506 1.363 . S
C507 N509 1.375 . S
C507 H525 0.931 . S
C508 N505 1.311 . S
C508 N509 1.347 . S
C508 H519 0.929 . S
N509 C507 1.375 . S
N509 C508 1.347 . S
C510 C513 1.365 . S
C510 N515 1.328 . S
C510 H516 0.929 . S
C511 C512 1.362 . S
C511 C514 1.378 . S
C511 H526 0.929 . S
C512 C511 1.362 . S
C512 C513 1.366 . S
C513 C510 1.365 . S
C513 C512 1.366 . S
C513 H527 0.930 . S
C514 C511 1.378 . S
C514 N515 1.315 . S
C514 H517 0.931 1_565 S
N515 Co495 2.194 . S
N515 C510 1.328 . S
N515 C514 1.315 . S
H516 C510 0.929 . S
H517 C514 0.931 1_545 S
H518 C506 0.929 . S
H519 C508 0.929 . S
O520 Co495 2.351 . S
O520 C523 1.244 . S
O521 Co495 2.155 . S
O521 C523 1.240 . S
O522 Co495 2.096 1_545 S
O522 C503 1.247 . S
C523 O520 1.244 . S
C523 O521 1.240 . S
H524 C498 0.931 . S
H525 C507 0.931 . S
H526 C511 0.929 . S
H527 C513 0.930 . S
Co528 N532 2.148 . S
Co528 N538 2.128 . S
Co528 N548 2.194 . S
Co528 O553 2.351 . S
Co528 O554 2.155 . S
Co528 O555 2.096 . S
C529 N532 1.301 . S
C529 N533 1.328 . S
C529 H534 0.930 . S
C530 C531 1.333 . S
C530 N532 1.317 . S
C530 H535 0.930 . S
C531 C530 1.333 . S
C531 N533 1.350 . S
C531 H557 0.931 . S
N532 Co528 2.148 . S
N532 C529 1.301 . S
N532 C530 1.317 . S
N533 C529 1.328 . S
N533 C531 1.350 . S
H534 C529 0.930 . S
H535 C530 0.930 . S
C536 O537 1.224 . S
C536 O555 1.247 . S
O537 C536 1.224 . S
N538 Co528 2.128 . S
N538 C539 1.355 . S
N538 C541 1.311 . S
C539 N538 1.355 . S
C539 C540 1.363 . S
C539 H551 0.929 . S
C540 C539 1.363 . S
C540 N542 1.375 . S
C540 H558 0.931 . S
C541 N538 1.311 . S
C541 N542 1.347 . S
C541 H552 0.929 . S
N542 C540 1.375 . S
N542 C541 1.347 . S
C543 C546 1.365 . S
C543 N548 1.328 . S
C543 H549 0.929 . S
C544 C545 1.362 . S
C544 C547 1.378 . S
C544 H559 0.929 . S
C545 C544 1.362 . S
C545 C546 1.366 . S
C546 C543 1.365 . S
C546 C545 1.366 . S
C546 H560 0.930 . S
C547 C544 1.378 . S
C547 N548 1.315 . S
C547 H550 0.930 . S
N548 Co528 2.194 . S
N548 C543 1.328 . S
N548 C547 1.315 . S
H549 C543 0.929 . S
H550 C547 0.930 . S
H551 C539 0.929 . S
H552 C541 0.929 . S
O553 Co528 2.351 . S
O553 C556 1.244 . S
O554 Co528 2.155 . S
O554 C556 1.240 . S
O555 Co528 2.096 . S
O555 C536 1.247 . S
C556 O553 1.244 . S
C556 O554 1.240 . S
H557 C531 0.931 . S
H558 C540 0.931 . S
H559 C544 0.929 . S
H560 C546 0.930 . S
Co561 N565 2.148 . S
Co561 N571 2.128 . S
Co561 N581 2.194 . S
Co561 O586 2.351 . S
Co561 O587 2.155 . S
Co561 O588 2.096 . S
C562 N565 1.301 . S
C562 N566 1.328 . S
C562 H567 0.930 . S
C563 C564 1.333 . S
C563 N565 1.317 . S
C563 H568 0.930 . S
C564 C563 1.333 . S
C564 N566 1.350 . S
C564 H590 0.931 . S
N565 Co561 2.148 . S
N565 C562 1.301 . S
N565 C563 1.317 . S
N566 C562 1.328 . S
N566 C564 1.350 . S
H567 C562 0.930 . S
H568 C563 0.930 . S
C569 O570 1.224 . S
C569 O588 1.247 . S
O570 C569 1.224 . S
N571 Co561 2.128 . S
N571 C572 1.355 . S
N571 C574 1.311 . S
C572 N571 1.355 . S
C572 C573 1.363 . S
C572 H584 0.929 . S
C573 C572 1.363 . S
C573 N575 1.375 . S
C573 H591 0.931 . S
C574 N571 1.311 . S
C574 N575 1.347 . S
C574 H585 0.929 . S
N575 C573 1.375 . S
N575 C574 1.347 . S
C576 C579 1.365 . S
C576 N581 1.328 . S
C576 H582 0.929 . S
C577 C578 1.362 . S
C577 C580 1.378 . S
C577 H592 0.929 . S
C578 C577 1.362 . S
C578 C579 1.366 . S
C579 C576 1.365 . S
C579 C578 1.366 . S
C579 H593 0.930 . S
C580 C577 1.378 . S
C580 N581 1.315 . S
C580 H583 0.930 . S
N581 Co561 2.194 . S
N581 C576 1.328 . S
N581 C580 1.315 . S
H582 C576 0.929 . S
H583 C580 0.930 . S
H584 C572 0.929 . S
H585 C574 0.929 . S
O586 Co561 2.351 . S
O586 C589 1.244 . S
O587 Co561 2.155 . S
O587 C589 1.240 . S
O588 Co561 2.096 . S
O588 C569 1.247 . S
C589 O586 1.244 . S
C589 O587 1.240 . S
H590 C564 0.931 . S
H591 C573 0.931 . S
H592 C577 0.929 . S
H593 C579 0.930 . S
Co594 N598 2.148 1_455 S
Co594 N604 2.128 . S
Co594 N614 2.194 . S
Co594 O619 2.351 . S
Co594 O620 2.155 . S
Co594 O621 2.096 1_455 S
C595 N598 1.301 . S
C595 N599 1.328 . S
C595 H600 0.930 1_655 S
C596 C597 1.333 . S
C596 N598 1.317 . S
C596 H601 0.930 . S
C597 C596 1.333 . S
C597 N599 1.350 . S
C597 H623 0.931 . S
N598 Co594 2.148 1_655 S
N598 C595 1.301 . S
N598 C596 1.317 . S
N599 C595 1.328 . S
N599 C597 1.350 . S
H600 C595 0.930 1_455 S
H601 C596 0.930 . S
C602 O603 1.224 . S
C602 O621 1.247 . S
O603 C602 1.224 . S
N604 Co594 2.128 . S
N604 C605 1.355 . S
N604 C607 1.311 . S
C605 N604 1.355 . S
C605 C606 1.363 . S
C605 H617 0.929 . S
C606 C605 1.363 . S
C606 N608 1.375 . S
C606 H624 0.931 . S
C607 N604 1.311 . S
C607 N608 1.347 . S
C607 H618 0.929 . S
N608 C606 1.375 . S
N608 C607 1.347 . S
C609 C612 1.365 . S
C609 N614 1.328 . S
C609 H615 0.929 . S
C610 C611 1.362 . S
C610 C613 1.378 . S
C610 H625 0.929 . S
C611 C610 1.362 . S
C611 C612 1.366 . S
C612 C609 1.365 . S
C612 C611 1.366 . S
C612 H626 0.930 . S
C613 C610 1.378 . S
C613 N614 1.315 . S
C613 H616 0.931 1_455 S
N614 Co594 2.194 . S
N614 C609 1.328 . S
N614 C613 1.315 . S
H615 C609 0.929 . S
H616 C613 0.931 1_655 S
H617 C605 0.929 . S
H618 C607 0.929 . S
O619 Co594 2.351 . S
O619 C622 1.244 . S
O620 Co594 2.155 . S
O620 C622 1.240 . S
O621 Co594 2.096 1_655 S
O621 C602 1.247 . S
C622 O619 1.244 . S
C622 O620 1.240 . S
H623 C597 0.931 . S
H624 C606 0.931 . S
H625 C610 0.929 . S
H626 C612 0.930 . S
Co627 N631 2.148 . S
Co627 N637 2.128 . S
Co627 N647 2.194 . S
Co627 O652 2.351 . S
Co627 O653 2.155 . S
Co627 O654 2.096 . S
C628 N631 1.301 . S
C628 N632 1.328 . S
C628 H633 0.930 . S
C629 C630 1.333 . S
C629 N631 1.317 . S
C629 H634 0.930 . S
C630 C629 1.333 . S
C630 N632 1.350 . S
C630 H656 0.931 . S
N631 Co627 2.148 . S
N631 C628 1.301 . S
N631 C629 1.317 . S
N632 C628 1.328 . S
N632 C630 1.350 . S
H633 C628 0.930 . S
H634 C629 0.930 . S
C635 O636 1.224 . S
C635 O654 1.247 . S
O636 C635 1.224 . S
N637 Co627 2.128 . S
N637 C638 1.355 . S
N637 C640 1.311 . S
C638 N637 1.355 . S
C638 C639 1.363 . S
C638 H650 0.929 . S
C639 C638 1.363 . S
C639 N641 1.375 . S
C639 H657 0.931 . S
C640 N637 1.311 . S
C640 N641 1.347 . S
C640 H651 0.929 . S
N641 C639 1.375 . S
N641 C640 1.347 . S
C642 C645 1.365 . S
C642 N647 1.328 . S
C642 H648 0.929 . S
C643 C644 1.362 . S
C643 C646 1.378 . S
C643 H658 0.929 . S
C644 C643 1.362 . S
C644 C645 1.366 . S
C645 C642 1.365 . S
C645 C644 1.366 . S
C645 H659 0.930 . S
C646 C643 1.378 . S
C646 N647 1.315 . S
C646 H649 0.930 . S
N647 Co627 2.194 . S
N647 C642 1.328 . S
N647 C646 1.315 . S
H648 C642 0.929 . S
H649 C646 0.930 . S
H650 C638 0.929 . S
H651 C640 0.929 . S
O652 Co627 2.351 . S
O652 C655 1.244 . S
O653 Co627 2.155 . S
O653 C655 1.240 . S
O654 Co627 2.096 . S
O654 C635 1.247 . S
C655 O652 1.244 . S
C655 O653 1.240 . S
H656 C630 0.931 . S
H657 C639 0.931 . S
H658 C643 0.929 . S
H659 C645 0.930 . S
Co660 N664 2.148 . S
Co660 N670 2.128 . S
Co660 N680 2.194 . S
Co660 O685 2.351 . S
Co660 O686 2.155 . S
Co660 O687 2.096 . S
C661 N664 1.301 . S
C661 N665 1.328 . S
C661 H666 0.930 . S
C662 C663 1.333 . S
C662 N664 1.317 . S
C662 H667 0.930 . S
C663 C662 1.333 . S
C663 N665 1.350 . S
C663 H689 0.931 . S
N664 Co660 2.148 . S
N664 C661 1.301 . S
N664 C662 1.317 . S
N665 C661 1.328 . S
N665 C663 1.350 . S
H666 C661 0.930 . S
H667 C662 0.930 . S
C668 O669 1.224 . S
C668 O687 1.247 . S
O669 C668 1.224 . S
N670 Co660 2.128 . S
N670 C671 1.355 . S
N670 C673 1.311 . S
C671 N670 1.355 . S
C671 C672 1.363 . S
C671 H683 0.929 . S
C672 C671 1.363 . S
C672 N674 1.375 . S
C672 H690 0.931 . S
C673 N670 1.311 . S
C673 N674 1.347 . S
C673 H684 0.929 . S
N674 C672 1.375 . S
N674 C673 1.347 . S
C675 C678 1.365 . S
C675 N680 1.328 . S
C675 H681 0.929 . S
C676 C677 1.362 . S
C676 C679 1.378 . S
C676 H691 0.929 . S
C677 C676 1.362 . S
C677 C678 1.366 . S
C678 C675 1.365 . S
C678 C677 1.366 . S
C678 H692 0.930 . S
C679 C676 1.378 . S
C679 N680 1.315 . S
C679 H682 0.930 . S
N680 Co660 2.194 . S
N680 C675 1.328 . S
N680 C679 1.315 . S
H681 C675 0.929 . S
H682 C679 0.930 . S
H683 C671 0.929 . S
H684 C673 0.929 . S
O685 Co660 2.351 . S
O685 C688 1.244 . S
O686 Co660 2.155 . S
O686 C688 1.240 . S
O687 Co660 2.096 . S
O687 C668 1.247 . S
C688 O685 1.244 . S
C688 O686 1.240 . S
H689 C663 0.931 . S
H690 C672 0.931 . S
H691 C676 0.929 . S
H692 C678 0.930 . S
Co693 N697 2.148 . S
Co693 N703 2.128 . S
Co693 N713 2.194 . S
Co693 O718 2.351 . S
Co693 O719 2.155 . S
Co693 O720 2.096 . S
C694 N697 1.301 . S
C694 N698 1.328 . S
C694 H699 0.930 . S
C695 C696 1.333 . S
C695 N697 1.317 . S
C695 H700 0.930 . S
C696 C695 1.333 . S
C696 N698 1.350 . S
C696 H722 0.931 . S
N697 Co693 2.148 . S
N697 C694 1.301 . S
N697 C695 1.317 . S
N698 C694 1.328 . S
N698 C696 1.350 . S
H699 C694 0.930 . S
H700 C695 0.930 . S
C701 O702 1.224 . S
C701 O720 1.247 . S
O702 C701 1.224 . S
N703 Co693 2.128 . S
N703 C704 1.355 . S
N703 C706 1.311 . S
C704 N703 1.355 . S
C704 C705 1.363 . S
C704 H716 0.929 . S
C705 C704 1.363 . S
C705 N707 1.375 . S
C705 H723 0.931 . S
C706 N703 1.311 . S
C706 N707 1.347 . S
C706 H717 0.929 . S
N707 C705 1.375 . S
N707 C706 1.347 . S
C708 C711 1.365 . S
C708 N713 1.328 . S
C708 H714 0.929 . S
C709 C710 1.362 . S
C709 C712 1.378 . S
C709 H724 0.929 . S
C710 C709 1.362 . S
C710 C711 1.366 . S
C711 C708 1.365 . S
C711 C710 1.366 . S
C711 H725 0.930 . S
C712 C709 1.378 . S
C712 N713 1.315 . S
C712 H715 0.930 . S
N713 Co693 2.194 . S
N713 C708 1.328 . S
N713 C712 1.315 . S
H714 C708 0.929 . S
H715 C712 0.930 . S
H716 C704 0.929 . S
H717 C706 0.929 . S
O718 Co693 2.351 . S
O718 C721 1.244 . S
O719 Co693 2.155 . S
O719 C721 1.240 . S
O720 Co693 2.096 . S
O720 C701 1.247 . S
C721 O718 1.244 . S
C721 O719 1.240 . S
H722 C696 0.931 . S
H723 C705 0.931 . S
H724 C709 0.929 . S
H725 C711 0.930 . S
Co726 N730 2.148 1_455 S
Co726 N736 2.128 . S
Co726 N746 2.194 . S
Co726 O751 2.351 . S
Co726 O752 2.155 . S
Co726 O753 2.096 1_455 S
C727 N730 1.301 . S
C727 N731 1.328 . S
C727 H732 0.930 1_655 S
C728 C729 1.333 . S
C728 N730 1.317 . S
C728 H733 0.930 . S
C729 C728 1.333 . S
C729 N731 1.350 . S
C729 H755 0.931 . S
N730 Co726 2.148 1_655 S
N730 C727 1.301 . S
N730 C728 1.317 . S
N731 C727 1.328 . S
N731 C729 1.350 . S
H732 C727 0.930 1_455 S
H733 C728 0.930 . S
C734 O735 1.224 . S
C734 O753 1.247 . S
O735 C734 1.224 . S
N736 Co726 2.128 . S
N736 C737 1.355 . S
N736 C739 1.311 . S
C737 N736 1.355 . S
C737 C738 1.363 . S
C737 H749 0.929 . S
C738 C737 1.363 . S
C738 N740 1.375 . S
C738 H756 0.931 . S
C739 N736 1.311 . S
C739 N740 1.347 . S
C739 H750 0.929 . S
N740 C738 1.375 . S
N740 C739 1.347 . S
C741 C744 1.365 . S
C741 N746 1.328 . S
C741 H747 0.929 . S
C742 C743 1.362 . S
C742 C745 1.378 . S
C742 H757 0.929 . S
C743 C742 1.362 . S
C743 C744 1.366 . S
C744 C741 1.365 . S
C744 C743 1.366 . S
C744 H758 0.930 . S
C745 C742 1.378 . S
C745 N746 1.315 . S
C745 H748 0.931 1_455 S
N746 Co726 2.194 . S
N746 C741 1.328 . S
N746 C745 1.315 . S
H747 C741 0.929 . S
H748 C745 0.931 1_655 S
H749 C737 0.929 . S
H750 C739 0.929 . S
O751 Co726 2.351 . S
O751 C754 1.244 . S
O752 Co726 2.155 . S
O752 C754 1.240 . S
O753 Co726 2.096 1_655 S
O753 C734 1.247 . S
C754 O751 1.244 . S
C754 O752 1.240 . S
H755 C729 0.931 . S
H756 C738 0.931 . S
H757 C742 0.929 . S
H758 C744 0.930 . S
Co759 N763 2.148 1_655 S
Co759 N769 2.128 . S
Co759 N779 2.194 . S
Co759 O784 2.351 . S
Co759 O785 2.155 . S
Co759 O786 2.096 1_655 S
C760 N763 1.301 . S
C760 N764 1.328 . S
C760 H765 0.930 1_455 S
C761 C762 1.333 . S
C761 N763 1.317 . S
C761 H766 0.930 . S
C762 C761 1.333 . S
C762 N764 1.350 . S
C762 H788 0.931 . S
N763 Co759 2.148 1_455 S
N763 C760 1.301 . S
N763 C761 1.317 . S
N764 C760 1.328 . S
N764 C762 1.350 . S
H765 C760 0.930 1_655 S
H766 C761 0.930 . S
C767 O768 1.224 . S
C767 O786 1.247 . S
O768 C767 1.224 . S
N769 Co759 2.128 . S
N769 C770 1.355 . S
N769 C772 1.311 . S
C770 N769 1.355 . S
C770 C771 1.363 . S
C770 H782 0.929 . S
C771 C770 1.363 . S
C771 N773 1.375 . S
C771 H789 0.931 . S
C772 N769 1.311 . S
C772 N773 1.347 . S
C772 H783 0.929 . S
N773 C771 1.375 . S
N773 C772 1.347 . S
C774 C777 1.365 . S
C774 N779 1.328 . S
C774 H780 0.929 . S
C775 C776 1.362 . S
C775 C778 1.378 . S
C775 H790 0.929 . S
C776 C775 1.362 . S
C776 C777 1.366 . S
C777 C774 1.365 . S
C777 C776 1.366 . S
C777 H791 0.930 . S
C778 C775 1.378 . S
C778 N779 1.315 . S
C778 H781 0.931 1_655 S
N779 Co759 2.194 . S
N779 C774 1.328 . S
N779 C778 1.315 . S
H780 C774 0.929 . S
H781 C778 0.931 1_455 S
H782 C770 0.929 . S
H783 C772 0.929 . S
O784 Co759 2.351 . S
O784 C787 1.244 . S
O785 Co759 2.155 . S
O785 C787 1.240 . S
O786 Co759 2.096 1_455 S
O786 C767 1.247 . S
C787 O784 1.244 . S
C787 O785 1.240 . S
H788 C762 0.931 . S
H789 C771 0.931 . S
H790 C775 0.929 . S
H791 C777 0.930 . S
Co792 N796 2.148 . S
Co792 N802 2.128 . S
Co792 N812 2.194 . S
Co792 O817 2.351 . S
Co792 O818 2.155 . S
Co792 O819 2.096 . S
C793 N796 1.301 . S
C793 N797 1.328 . S
C793 H798 0.930 . S
C794 C795 1.333 . S
C794 N796 1.317 . S
C794 H799 0.930 . S
C795 C794 1.333 . S
C795 N797 1.350 . S
C795 H821 0.931 . S
N796 Co792 2.148 . S
N796 C793 1.301 . S
N796 C794 1.317 . S
N797 C793 1.328 . S
N797 C795 1.350 . S
H798 C793 0.930 . S
H799 C794 0.930 . S
C800 O801 1.224 . S
C800 O819 1.247 . S
O801 C800 1.224 . S
N802 Co792 2.128 . S
N802 C803 1.355 . S
N802 C805 1.311 . S
C803 N802 1.355 . S
C803 C804 1.363 . S
C803 H815 0.929 . S
C804 C803 1.363 . S
C804 N806 1.375 . S
C804 H822 0.931 . S
C805 N802 1.311 . S
C805 N806 1.347 . S
C805 H816 0.929 . S
N806 C804 1.375 . S
N806 C805 1.347 . S
C807 C810 1.365 . S
C807 N812 1.328 . S
C807 H813 0.929 . S
C808 C809 1.362 . S
C808 C811 1.378 . S
C808 H823 0.929 . S
C809 C808 1.362 . S
C809 C810 1.366 . S
C810 C807 1.365 . S
C810 C809 1.366 . S
C810 H824 0.930 . S
C811 C808 1.378 . S
C811 N812 1.315 . S
C811 H814 0.930 . S
N812 Co792 2.194 . S
N812 C807 1.328 . S
N812 C811 1.315 . S
H813 C807 0.929 . S
H814 C811 0.930 . S
H815 C803 0.929 . S
H816 C805 0.929 . S
O817 Co792 2.351 . S
O817 C820 1.244 . S
O818 Co792 2.155 . S
O818 C820 1.240 . S
O819 Co792 2.096 . S
O819 C800 1.247 . S
C820 O817 1.244 . S
C820 O818 1.240 . S
H821 C795 0.931 . S
H822 C804 0.931 . S
H823 C808 0.929 . S
H824 C810 0.930 . S
Co825 N829 2.148 . S
Co825 N835 2.128 . S
Co825 N845 2.194 . S
Co825 O850 2.351 . S
Co825 O851 2.155 . S
Co825 O852 2.096 . S
C826 N829 1.301 . S
C826 N830 1.328 . S
C826 H831 0.930 . S
C827 C828 1.333 . S
C827 N829 1.317 . S
C827 H832 0.930 . S
C828 C827 1.333 . S
C828 N830 1.350 . S
C828 H854 0.931 . S
N829 Co825 2.148 . S
N829 C826 1.301 . S
N829 C827 1.317 . S
N830 C826 1.328 . S
N830 C828 1.350 . S
H831 C826 0.930 . S
H832 C827 0.930 . S
C833 O834 1.224 . S
C833 O852 1.247 . S
O834 C833 1.224 . S
N835 Co825 2.128 . S
N835 C836 1.355 . S
N835 C838 1.311 . S
C836 N835 1.355 . S
C836 C837 1.363 . S
C836 H848 0.929 . S
C837 C836 1.363 . S
C837 N839 1.375 . S
C837 H855 0.931 . S
C838 N835 1.311 . S
C838 N839 1.347 . S
C838 H849 0.929 . S
N839 C837 1.375 . S
N839 C838 1.347 . S
C840 C843 1.365 . S
C840 N845 1.328 . S
C840 H846 0.929 . S
C841 C842 1.362 . S
C841 C844 1.378 . S
C841 H856 0.929 . S
C842 C841 1.362 . S
C842 C843 1.366 . S
C843 C840 1.365 . S
C843 C842 1.366 . S
C843 H857 0.930 . S
C844 C841 1.378 . S
C844 N845 1.315 . S
C844 H847 0.930 . S
N845 Co825 2.194 . S
N845 C840 1.328 . S
N845 C844 1.315 . S
H846 C840 0.929 . S
H847 C844 0.930 . S
H848 C836 0.929 . S
H849 C838 0.929 . S
O850 Co825 2.351 . S
O850 C853 1.244 . S
O851 Co825 2.155 . S
O851 C853 1.240 . S
O852 Co825 2.096 . S
O852 C833 1.247 . S
C853 O850 1.244 . S
C853 O851 1.240 . S
H854 C828 0.931 . S
H855 C837 0.931 . S
H856 C841 0.929 . S
H857 C843 0.930 . S
Co858 N862 2.148 . S
Co858 N868 2.128 . S
Co858 N878 2.194 . S
Co858 O883 2.351 . S
Co858 O884 2.155 . S
Co858 O885 2.096 . S
C859 N862 1.301 . S
C859 N863 1.328 . S
C859 H864 0.930 . S
C860 C861 1.333 . S
C860 N862 1.317 . S
C860 H865 0.930 . S
C861 C860 1.333 . S
C861 N863 1.350 . S
C861 H887 0.931 . S
N862 Co858 2.148 . S
N862 C859 1.301 . S
N862 C860 1.317 . S
N863 C859 1.328 . S
N863 C861 1.350 . S
H864 C859 0.930 . S
H865 C860 0.930 . S
C866 O867 1.224 . S
C866 O885 1.247 . S
O867 C866 1.224 . S
N868 Co858 2.128 . S
N868 C869 1.355 . S
N868 C871 1.311 . S
C869 N868 1.355 . S
C869 C870 1.363 . S
C869 H881 0.929 . S
C870 C869 1.363 . S
C870 N872 1.375 . S
C870 H888 0.931 . S
C871 N868 1.311 . S
C871 N872 1.347 . S
C871 H882 0.929 . S
N872 C870 1.375 . S
N872 C871 1.347 . S
C873 C876 1.365 . S
C873 N878 1.328 . S
C873 H879 0.929 . S
C874 C875 1.362 . S
C874 C877 1.378 . S
C874 H889 0.929 . S
C875 C874 1.362 . S
C875 C876 1.366 . S
C876 C873 1.365 . S
C876 C875 1.366 . S
C876 H890 0.930 . S
C877 C874 1.378 . S
C877 N878 1.315 . S
C877 H880 0.930 . S
N878 Co858 2.194 . S
N878 C873 1.328 . S
N878 C877 1.315 . S
H879 C873 0.929 . S
H880 C877 0.930 . S
H881 C869 0.929 . S
H882 C871 0.929 . S
O883 Co858 2.351 . S
O883 C886 1.244 . S
O884 Co858 2.155 . S
O884 C886 1.240 . S
O885 Co858 2.096 . S
O885 C866 1.247 . S
C886 O883 1.244 . S
C886 O884 1.240 . S
H887 C861 0.931 . S
H888 C870 0.931 . S
H889 C874 0.929 . S
H890 C876 0.930 . S
Co891 N895 2.148 . S
Co891 N901 2.128 . S
Co891 N911 2.194 . S
Co891 O916 2.351 . S
Co891 O917 2.155 . S
Co891 O918 2.096 . S
C892 N895 1.301 . S
C892 N896 1.328 . S
C892 H897 0.930 . S
C893 C894 1.333 . S
C893 N895 1.317 . S
C893 H898 0.930 . S
C894 C893 1.333 . S
C894 N896 1.350 . S
C894 H920 0.931 . S
N895 Co891 2.148 . S
N895 C892 1.301 . S
N895 C893 1.317 . S
N896 C892 1.328 . S
N896 C894 1.350 . S
H897 C892 0.930 . S
H898 C893 0.930 . S
C899 O900 1.224 . S
C899 O918 1.247 . S
O900 C899 1.224 . S
N901 Co891 2.128 . S
N901 C902 1.355 . S
N901 C904 1.311 . S
C902 N901 1.355 . S
C902 C903 1.363 . S
C902 H914 0.929 . S
C903 C902 1.363 . S
C903 N905 1.375 . S
C903 H921 0.931 . S
C904 N901 1.311 . S
C904 N905 1.347 . S
C904 H915 0.929 . S
N905 C903 1.375 . S
N905 C904 1.347 . S
C906 C909 1.365 . S
C906 N911 1.328 . S
C906 H912 0.929 . S
C907 C908 1.362 . S
C907 C910 1.378 . S
C907 H922 0.929 . S
C908 C907 1.362 . S
C908 C909 1.366 . S
C909 C906 1.365 . S
C909 C908 1.366 . S
C909 H923 0.930 . S
C910 C907 1.378 . S
C910 N911 1.315 . S
C910 H913 0.930 . S
N911 Co891 2.194 . S
N911 C906 1.328 . S
N911 C910 1.315 . S
H912 C906 0.929 . S
H913 C910 0.930 . S
H914 C902 0.929 . S
H915 C904 0.929 . S
O916 Co891 2.351 . S
O916 C919 1.244 . S
O917 Co891 2.155 . S
O917 C919 1.240 . S
O918 Co891 2.096 . S
O918 C899 1.247 . S
C919 O916 1.244 . S
C919 O917 1.240 . S
H920 C894 0.931 . S
H921 C903 0.931 . S
H922 C907 0.929 . S
H923 C909 0.930 . S
Co924 N928 2.148 . S
Co924 N934 2.128 . S
Co924 N944 2.194 . S
Co924 O949 2.351 . S
Co924 O950 2.155 . S
Co924 O951 2.096 . S
C925 N928 1.301 . S
C925 N929 1.328 . S
C925 H930 0.930 . S
C926 C927 1.333 . S
C926 N928 1.317 . S
C926 H931 0.930 . S
C927 C926 1.333 . S
C927 N929 1.350 . S
C927 H953 0.931 . S
N928 Co924 2.148 . S
N928 C925 1.301 . S
N928 C926 1.317 . S
N929 C925 1.328 . S
N929 C927 1.350 . S
H930 C925 0.930 . S
H931 C926 0.930 . S
C932 O933 1.224 . S
C932 O951 1.247 . S
O933 C932 1.224 . S
N934 Co924 2.128 . S
N934 C935 1.355 . S
N934 C937 1.311 . S
C935 N934 1.355 . S
C935 C936 1.363 . S
C935 H947 0.929 . S
C936 C935 1.363 . S
C936 N938 1.375 . S
C936 H954 0.931 . S
C937 N934 1.311 . S
C937 N938 1.347 . S
C937 H948 0.929 . S
N938 C936 1.375 . S
N938 C937 1.347 . S
C939 C942 1.365 . S
C939 N944 1.328 . S
C939 H945 0.929 . S
C940 C941 1.362 . S
C940 C943 1.378 . S
C940 H955 0.929 . S
C941 C940 1.362 . S
C941 C942 1.366 . S
C942 C939 1.365 . S
C942 C941 1.366 . S
C942 H956 0.930 . S
C943 C940 1.378 . S
C943 N944 1.315 . S
C943 H946 0.930 . S
N944 Co924 2.194 . S
N944 C939 1.328 . S
N944 C943 1.315 . S
H945 C939 0.929 . S
H946 C943 0.930 . S
H947 C935 0.929 . S
H948 C937 0.929 . S
O949 Co924 2.351 . S
O949 C952 1.244 . S
O950 Co924 2.155 . S
O950 C952 1.240 . S
O951 Co924 2.096 . S
O951 C932 1.247 . S
C952 O949 1.244 . S
C952 O950 1.240 . S
H953 C927 0.931 . S
H954 C936 0.931 . S
H955 C940 0.929 . S
H956 C942 0.930 . S
Co957 N961 2.148 . S
Co957 N967 2.128 . S
Co957 N977 2.194 . S
Co957 O982 2.351 . S
Co957 O983 2.155 . S
Co957 O984 2.096 . S
C958 N961 1.301 . S
C958 N962 1.328 . S
C958 H963 0.930 . S
C959 C960 1.333 . S
C959 N961 1.317 . S
C959 H964 0.930 . S
C960 C959 1.333 . S
C960 N962 1.350 . S
C960 H986 0.931 . S
N961 Co957 2.148 . S
N961 C958 1.301 . S
N961 C959 1.317 . S
N962 C958 1.328 . S
N962 C960 1.350 . S
H963 C958 0.930 . S
H964 C959 0.930 . S
C965 O966 1.224 . S
C965 O984 1.247 . S
O966 C965 1.224 . S
N967 Co957 2.128 . S
N967 C968 1.355 . S
N967 C970 1.311 . S
C968 N967 1.355 . S
C968 C969 1.363 . S
C968 H980 0.929 . S
C969 C968 1.363 . S
C969 N971 1.375 . S
C969 H987 0.931 . S
C970 N967 1.311 . S
C970 N971 1.347 . S
C970 H981 0.929 . S
N971 C969 1.375 . S
N971 C970 1.347 . S
C972 C975 1.365 . S
C972 N977 1.328 . S
C972 H978 0.929 . S
C973 C974 1.362 . S
C973 C976 1.378 . S
C973 H988 0.929 . S
C974 C973 1.362 . S
C974 C975 1.366 . S
C975 C972 1.365 . S
C975 C974 1.366 . S
C975 H989 0.930 . S
C976 C973 1.378 . S
C976 N977 1.315 . S
C976 H979 0.930 . S
N977 Co957 2.194 . S
N977 C972 1.328 . S
N977 C976 1.315 . S
H978 C972 0.929 . S
H979 C976 0.930 . S
H980 C968 0.929 . S
H981 C970 0.929 . S
O982 Co957 2.351 . S
O982 C985 1.244 . S
O983 Co957 2.155 . S
O983 C985 1.240 . S
O984 Co957 2.096 . S
O984 C965 1.247 . S
C985 O982 1.244 . S
C985 O983 1.240 . S
H986 C960 0.931 . S
H987 C969 0.931 . S
H988 C973 0.929 . S
H989 C975 0.930 . S
Co990 N994 2.148 . S
Co990 N1000 2.128 . S
Co990 N1010 2.194 . S
Co990 O1015 2.351 . S
Co990 O1016 2.155 . S
Co990 O1017 2.096 . S
C991 N994 1.301 . S
C991 N995 1.328 . S
C991 H996 0.930 . S
C992 C993 1.333 . S
C992 N994 1.317 . S
C992 H997 0.930 . S
C993 C992 1.333 . S
C993 N995 1.350 . S
C993 H1019 0.931 . S
N994 Co990 2.148 . S
N994 C991 1.301 . S
N994 C992 1.317 . S
N995 C991 1.328 . S
N995 C993 1.350 . S
H996 C991 0.930 . S
H997 C992 0.930 . S
C998 O999 1.224 . S
C998 O1017 1.247 . S
O999 C998 1.224 . S
N1000 Co990 2.128 . S
N1000 C1001 1.355 . S
N1000 C1003 1.311 . S
C1001 N1000 1.355 . S
C1001 C1002 1.363 . S
C1001 H1013 0.929 . S
C1002 C1001 1.363 . S
C1002 N1004 1.375 . S
C1002 H1020 0.931 . S
C1003 N1000 1.311 . S
C1003 N1004 1.347 . S
C1003 H1014 0.929 . S
N1004 C1002 1.375 . S
N1004 C1003 1.347 . S
C1005 C1008 1.365 . S
C1005 N1010 1.328 . S
C1005 H1011 0.929 . S
C1006 C1007 1.362 . S
C1006 C1009 1.378 . S
C1006 H1021 0.929 . S
C1007 C1006 1.362 . S
C1007 C1008 1.366 . S
C1008 C1005 1.365 . S
C1008 C1007 1.366 . S
C1008 H1022 0.930 . S
C1009 C1006 1.378 . S
C1009 N1010 1.315 . S
C1009 H1012 0.930 . S
N1010 Co990 2.194 . S
N1010 C1005 1.328 . S
N1010 C1009 1.315 . S
H1011 C1005 0.929 . S
H1012 C1009 0.930 . S
H1013 C1001 0.929 . S
H1014 C1003 0.929 . S
O1015 Co990 2.351 . S
O1015 C1018 1.244 . S
O1016 Co990 2.155 . S
O1016 C1018 1.240 . S
O1017 Co990 2.096 . S
O1017 C998 1.247 . S
C1018 O1015 1.244 . S
C1018 O1016 1.240 . S
H1019 C993 0.931 . S
H1020 C1002 0.931 . S
H1021 C1006 0.929 . S
H1022 C1008 0.930 . S
Co1023 N1027 2.148 . S
Co1023 N1033 2.128 . S
Co1023 N1043 2.194 . S
Co1023 O1048 2.351 . S
Co1023 O1049 2.155 . S
Co1023 O1050 2.096 . S
C1024 N1027 1.301 . S
C1024 N1028 1.328 . S
C1024 H1029 0.930 . S
C1025 C1026 1.333 . S
C1025 N1027 1.317 . S
C1025 H1030 0.930 . S
C1026 C1025 1.333 . S
C1026 N1028 1.350 . S
C1026 H1052 0.931 . S
N1027 Co1023 2.148 . S
N1027 C1024 1.301 . S
N1027 C1025 1.317 . S
N1028 C1024 1.328 . S
N1028 C1026 1.350 . S
H1029 C1024 0.930 . S
H1030 C1025 0.930 . S
C1031 O1032 1.224 . S
C1031 O1050 1.247 . S
O1032 C1031 1.224 . S
N1033 Co1023 2.128 . S
N1033 C1034 1.355 . S
N1033 C1036 1.311 . S
C1034 N1033 1.355 . S
C1034 C1035 1.363 . S
C1034 H1046 0.929 . S
C1035 C1034 1.363 . S
C1035 N1037 1.375 . S
C1035 H1053 0.931 . S
C1036 N1033 1.311 . S
C1036 N1037 1.347 . S
C1036 H1047 0.929 . S
N1037 C1035 1.375 . S
N1037 C1036 1.347 . S
C1038 C1041 1.365 . S
C1038 N1043 1.328 . S
C1038 H1044 0.929 . S
C1039 C1040 1.362 . S
C1039 C1042 1.378 . S
C1039 H1054 0.929 . S
C1040 C1039 1.362 . S
C1040 C1041 1.366 . S
C1041 C1038 1.365 . S
C1041 C1040 1.366 . S
C1041 H1055 0.930 . S
C1042 C1039 1.378 . S
C1042 N1043 1.315 . S
C1042 H1045 0.930 . S
N1043 Co1023 2.194 . S
N1043 C1038 1.328 . S
N1043 C1042 1.315 . S
H1044 C1038 0.929 . S
H1045 C1042 0.930 . S
H1046 C1034 0.929 . S
H1047 C1036 0.929 . S
O1048 Co1023 2.351 . S
O1048 C1051 1.244 . S
O1049 Co1023 2.155 . S
O1049 C1051 1.240 . S
O1050 Co1023 2.096 . S
O1050 C1031 1.247 . S
C1051 O1048 1.244 . S
C1051 O1049 1.240 . S
H1052 C1026 0.931 . S
H1053 C1035 0.931 . S
H1054 C1039 0.929 . S
H1055 C1041 0.930 . S
Co1056 N1060 2.148 . S
Co1056 N1066 2.128 . S
Co1056 N1076 2.194 . S
Co1056 O1081 2.351 . S
Co1056 O1082 2.155 . S
Co1056 O1083 2.096 . S
C1057 N1060 1.301 . S
C1057 N1061 1.328 . S
C1057 H1062 0.930 . S
C1058 C1059 1.333 . S
C1058 N1060 1.317 . S
C1058 H1063 0.930 . S
C1059 C1058 1.333 . S
C1059 N1061 1.350 . S
C1059 H1085 0.931 . S
N1060 Co1056 2.148 . S
N1060 C1057 1.301 . S
N1060 C1058 1.317 . S
N1061 C1057 1.328 . S
N1061 C1059 1.350 . S
H1062 C1057 0.930 . S
H1063 C1058 0.930 . S
C1064 O1065 1.224 . S
C1064 O1083 1.247 . S
O1065 C1064 1.224 . S
N1066 Co1056 2.128 . S
N1066 C1067 1.355 . S
N1066 C1069 1.311 . S
C1067 N1066 1.355 . S
C1067 C1068 1.363 . S
C1067 H1079 0.929 . S
C1068 C1067 1.363 . S
C1068 N1070 1.375 . S
C1068 H1086 0.931 . S
C1069 N1066 1.311 . S
C1069 N1070 1.347 . S
C1069 H1080 0.929 . S
N1070 C1068 1.375 . S
N1070 C1069 1.347 . S
C1071 C1074 1.365 . S
C1071 N1076 1.328 . S
C1071 H1077 0.929 . S
C1072 C1073 1.362 . S
C1072 C1075 1.378 . S
C1072 H1087 0.929 . S
C1073 C1072 1.362 . S
C1073 C1074 1.366 . S
C1074 C1071 1.365 . S
C1074 C1073 1.366 . S
C1074 H1088 0.930 . S
C1075 C1072 1.378 . S
C1075 N1076 1.315 . S
C1075 H1078 0.930 . S
N1076 Co1056 2.194 . S
N1076 C1071 1.328 . S
N1076 C1075 1.315 . S
H1077 C1071 0.929 . S
H1078 C1075 0.930 . S
H1079 C1067 0.929 . S
H1080 C1069 0.929 . S
O1081 Co1056 2.351 . S
O1081 C1084 1.244 . S
O1082 Co1056 2.155 . S
O1082 C1084 1.240 . S
O1083 Co1056 2.096 . S
O1083 C1064 1.247 . S
C1084 O1081 1.244 . S
C1084 O1082 1.240 . S
H1085 C1059 0.931 . S
H1086 C1068 0.931 . S
H1087 C1072 0.929 . S
H1088 C1074 0.930 . S
Co1089 N1093 2.148 1_545 S
Co1089 N1099 2.128 . S
Co1089 N1109 2.194 . S
Co1089 O1114 2.351 . S
Co1089 O1115 2.155 . S
Co1089 O1116 2.096 1_545 S
C1090 N1093 1.301 . S
C1090 N1094 1.328 . S
C1090 H1095 0.930 1_565 S
C1091 C1092 1.333 . S
C1091 N1093 1.317 . S
C1091 H1096 0.930 . S
C1092 C1091 1.333 . S
C1092 N1094 1.350 . S
C1092 H1118 0.931 . S
N1093 Co1089 2.148 1_565 S
N1093 C1090 1.301 . S
N1093 C1091 1.317 . S
N1094 C1090 1.328 . S
N1094 C1092 1.350 . S
H1095 C1090 0.930 1_545 S
H1096 C1091 0.930 . S
C1097 O1098 1.224 . S
C1097 O1116 1.247 . S
O1098 C1097 1.224 . S
N1099 Co1089 2.128 . S
N1099 C1100 1.355 . S
N1099 C1102 1.311 . S
C1100 N1099 1.355 . S
C1100 C1101 1.363 . S
C1100 H1112 0.929 . S
C1101 C1100 1.363 . S
C1101 N1103 1.375 . S
C1101 H1119 0.931 . S
C1102 N1099 1.311 . S
C1102 N1103 1.347 . S
C1102 H1113 0.929 . S
N1103 C1101 1.375 . S
N1103 C1102 1.347 . S
C1104 C1107 1.365 . S
C1104 N1109 1.328 . S
C1104 H1110 0.929 . S
C1105 C1106 1.362 . S
C1105 C1108 1.378 . S
C1105 H1120 0.929 . S
C1106 C1105 1.362 . S
C1106 C1107 1.366 . S
C1107 C1104 1.365 . S
C1107 C1106 1.366 . S
C1107 H1121 0.930 . S
C1108 C1105 1.378 . S
C1108 N1109 1.315 . S
C1108 H1111 0.931 1_545 S
N1109 Co1089 2.194 . S
N1109 C1104 1.328 . S
N1109 C1108 1.315 . S
H1110 C1104 0.929 . S
H1111 C1108 0.931 1_565 S
H1112 C1100 0.929 . S
H1113 C1102 0.929 . S
O1114 Co1089 2.351 . S
O1114 C1117 1.244 . S
O1115 Co1089 2.155 . S
O1115 C1117 1.240 . S
O1116 Co1089 2.096 1_565 S
O1116 C1097 1.247 . S
C1117 O1114 1.244 . S
C1117 O1115 1.240 . S
H1118 C1092 0.931 . S
H1119 C1101 0.931 . S
H1120 C1105 0.929 . S
H1121 C1107 0.930 . S
Co1122 N1126 2.148 . S
Co1122 N1132 2.128 . S
Co1122 N1142 2.194 . S
Co1122 O1147 2.351 . S
Co1122 O1148 2.155 . S
Co1122 O1149 2.096 . S
C1123 N1126 1.301 . S
C1123 N1127 1.328 . S
C1123 H1128 0.930 . S
C1124 C1125 1.333 . S
C1124 N1126 1.317 . S
C1124 H1129 0.930 . S
C1125 C1124 1.333 . S
C1125 N1127 1.350 . S
C1125 H1151 0.931 . S
N1126 Co1122 2.148 . S
N1126 C1123 1.301 . S
N1126 C1124 1.317 . S
N1127 C1123 1.328 . S
N1127 C1125 1.350 . S
H1128 C1123 0.930 . S
H1129 C1124 0.930 . S
C1130 O1131 1.224 . S
C1130 O1149 1.247 . S
O1131 C1130 1.224 . S
N1132 Co1122 2.128 . S
N1132 C1133 1.355 . S
N1132 C1135 1.311 . S
C1133 N1132 1.355 . S
C1133 C1134 1.363 . S
C1133 H1145 0.929 . S
C1134 C1133 1.363 . S
C1134 N1136 1.375 . S
C1134 H1152 0.931 . S
C1135 N1132 1.311 . S
C1135 N1136 1.347 . S
C1135 H1146 0.929 . S
N1136 C1134 1.375 . S
N1136 C1135 1.347 . S
C1137 C1140 1.365 . S
C1137 N1142 1.328 . S
C1137 H1143 0.929 . S
C1138 C1139 1.362 . S
C1138 C1141 1.378 . S
C1138 H1153 0.929 . S
C1139 C1138 1.362 . S
C1139 C1140 1.366 . S
C1140 C1137 1.365 . S
C1140 C1139 1.366 . S
C1140 H1154 0.930 . S
C1141 C1138 1.378 . S
C1141 N1142 1.315 . S
C1141 H1144 0.930 . S
N1142 Co1122 2.194 . S
N1142 C1137 1.328 . S
N1142 C1141 1.315 . S
H1143 C1137 0.929 . S
H1144 C1141 0.930 . S
H1145 C1133 0.929 . S
H1146 C1135 0.929 . S
O1147 Co1122 2.351 . S
O1147 C1150 1.244 . S
O1148 Co1122 2.155 . S
O1148 C1150 1.240 . S
O1149 Co1122 2.096 . S
O1149 C1130 1.247 . S
C1150 O1147 1.244 . S
C1150 O1148 1.240 . S
H1151 C1125 0.931 . S
H1152 C1134 0.931 . S
H1153 C1138 0.929 . S
H1154 C1140 0.930 . S
Co1155 N1159 2.148 . S
Co1155 N1165 2.128 . S
Co1155 N1175 2.194 . S
Co1155 O1180 2.351 . S
Co1155 O1181 2.155 . S
Co1155 O1182 2.096 . S
C1156 N1159 1.301 . S
C1156 N1160 1.328 . S
C1156 H1161 0.930 . S
C1157 C1158 1.333 . S
C1157 N1159 1.317 . S
C1157 H1162 0.930 . S
C1158 C1157 1.333 . S
C1158 N1160 1.350 . S
C1158 H1184 0.931 . S
N1159 Co1155 2.148 . S
N1159 C1156 1.301 . S
N1159 C1157 1.317 . S
N1160 C1156 1.328 . S
N1160 C1158 1.350 . S
H1161 C1156 0.930 . S
H1162 C1157 0.930 . S
C1163 O1164 1.224 . S
C1163 O1182 1.247 . S
O1164 C1163 1.224 . S
N1165 Co1155 2.128 . S
N1165 C1166 1.355 . S
N1165 C1168 1.311 . S
C1166 N1165 1.355 . S
C1166 C1167 1.363 . S
C1166 H1178 0.929 . S
C1167 C1166 1.363 . S
C1167 N1169 1.375 . S
C1167 H1185 0.931 . S
C1168 N1165 1.311 . S
C1168 N1169 1.347 . S
C1168 H1179 0.929 . S
N1169 C1167 1.375 . S
N1169 C1168 1.347 . S
C1170 C1173 1.365 . S
C1170 N1175 1.328 . S
C1170 H1176 0.929 . S
C1171 C1172 1.362 . S
C1171 C1174 1.378 . S
C1171 H1186 0.929 . S
C1172 C1171 1.362 . S
C1172 C1173 1.366 . S
C1173 C1170 1.365 . S
C1173 C1172 1.366 . S
C1173 H1187 0.930 . S
C1174 C1171 1.378 . S
C1174 N1175 1.315 . S
C1174 H1177 0.930 . S
N1175 Co1155 2.194 . S
N1175 C1170 1.328 . S
N1175 C1174 1.315 . S
H1176 C1170 0.929 . S
H1177 C1174 0.930 . S
H1178 C1166 0.929 . S
H1179 C1168 0.929 . S
O1180 Co1155 2.351 . S
O1180 C1183 1.244 . S
O1181 Co1155 2.155 . S
O1181 C1183 1.240 . S
O1182 Co1155 2.096 . S
O1182 C1163 1.247 . S
C1183 O1180 1.244 . S
C1183 O1181 1.240 . S
H1184 C1158 0.931 . S
H1185 C1167 0.931 . S
H1186 C1171 0.929 . S
H1187 C1173 0.930 . S
Co1188 N1192 2.148 . S
Co1188 N1198 2.128 . S
Co1188 N1208 2.194 . S
Co1188 O1213 2.351 . S
Co1188 O1214 2.155 . S
Co1188 O1215 2.096 . S
C1189 N1192 1.301 . S
C1189 N1193 1.328 . S
C1189 H1194 0.930 . S
C1190 C1191 1.333 . S
C1190 N1192 1.317 . S
C1190 H1195 0.930 . S
C1191 C1190 1.333 . S
C1191 N1193 1.350 . S
C1191 H1217 0.931 . S
N1192 Co1188 2.148 . S
N1192 C1189 1.301 . S
N1192 C1190 1.317 . S
N1193 C1189 1.328 . S
N1193 C1191 1.350 . S
H1194 C1189 0.930 . S
H1195 C1190 0.930 . S
C1196 O1197 1.224 . S
C1196 O1215 1.247 . S
O1197 C1196 1.224 . S
N1198 Co1188 2.128 . S
N1198 C1199 1.355 . S
N1198 C1201 1.311 . S
C1199 N1198 1.355 . S
C1199 C1200 1.363 . S
C1199 H1211 0.929 . S
C1200 C1199 1.363 . S
C1200 N1202 1.375 . S
C1200 H1218 0.931 . S
C1201 N1198 1.311 . S
C1201 N1202 1.347 . S
C1201 H1212 0.929 . S
N1202 C1200 1.375 . S
N1202 C1201 1.347 . S
C1203 C1206 1.365 . S
C1203 N1208 1.328 . S
C1203 H1209 0.929 . S
C1204 C1205 1.362 . S
C1204 C1207 1.378 . S
C1204 H1219 0.929 . S
C1205 C1204 1.362 . S
C1205 C1206 1.366 . S
C1206 C1203 1.365 . S
C1206 C1205 1.366 . S
C1206 H1220 0.930 . S
C1207 C1204 1.378 . S
C1207 N1208 1.315 . S
C1207 H1210 0.930 . S
N1208 Co1188 2.194 . S
N1208 C1203 1.328 . S
N1208 C1207 1.315 . S
H1209 C1203 0.929 . S
H1210 C1207 0.930 . S
H1211 C1199 0.929 . S
H1212 C1201 0.929 . S
O1213 Co1188 2.351 . S
O1213 C1216 1.244 . S
O1214 Co1188 2.155 . S
O1214 C1216 1.240 . S
O1215 Co1188 2.096 . S
O1215 C1196 1.247 . S
C1216 O1213 1.244 . S
C1216 O1214 1.240 . S
H1217 C1191 0.931 . S
H1218 C1200 0.931 . S
H1219 C1204 0.929 . S
H1220 C1206 0.930 . S
Co1221 N1225 2.148 1_545 S
Co1221 N1231 2.128 . S
Co1221 N1241 2.194 . S
Co1221 O1246 2.351 . S
Co1221 O1247 2.155 . S
Co1221 O1248 2.096 1_545 S
C1222 N1225 1.301 . S
C1222 N1226 1.328 . S
C1222 H1227 0.930 1_565 S
C1223 C1224 1.333 . S
C1223 N1225 1.317 . S
C1223 H1228 0.930 . S
C1224 C1223 1.333 . S
C1224 N1226 1.350 . S
C1224 H1250 0.931 . S
N1225 Co1221 2.148 1_565 S
N1225 C1222 1.301 . S
N1225 C1223 1.317 . S
N1226 C1222 1.328 . S
N1226 C1224 1.350 . S
H1227 C1222 0.930 1_545 S
H1228 C1223 0.930 . S
C1229 O1230 1.224 . S
C1229 O1248 1.247 . S
O1230 C1229 1.224 . S
N1231 Co1221 2.128 . S
N1231 C1232 1.355 . S
N1231 C1234 1.311 . S
C1232 N1231 1.355 . S
C1232 C1233 1.363 . S
C1232 H1244 0.929 . S
C1233 C1232 1.363 . S
C1233 N1235 1.375 . S
C1233 H1251 0.931 . S
C1234 N1231 1.311 . S
C1234 N1235 1.347 . S
C1234 H1245 0.929 . S
N1235 C1233 1.375 . S
N1235 C1234 1.347 . S
C1236 C1239 1.365 . S
C1236 N1241 1.328 . S
C1236 H1242 0.929 . S
C1237 C1238 1.362 . S
C1237 C1240 1.378 . S
C1237 H1252 0.929 . S
C1238 C1237 1.362 . S
C1238 C1239 1.366 . S
C1239 C1236 1.365 . S
C1239 C1238 1.366 . S
C1239 H1253 0.930 . S
C1240 C1237 1.378 . S
C1240 N1241 1.315 . S
C1240 H1243 0.931 1_545 S
N1241 Co1221 2.194 . S
N1241 C1236 1.328 . S
N1241 C1240 1.315 . S
H1242 C1236 0.929 . S
H1243 C1240 0.931 1_565 S
H1244 C1232 0.929 . S
H1245 C1234 0.929 . S
O1246 Co1221 2.351 . S
O1246 C1249 1.244 . S
O1247 Co1221 2.155 . S
O1247 C1249 1.240 . S
O1248 Co1221 2.096 1_565 S
O1248 C1229 1.247 . S
C1249 O1246 1.244 . S
C1249 O1247 1.240 . S
H1250 C1224 0.931 . S
H1251 C1233 0.931 . S
H1252 C1237 0.929 . S
H1253 C1239 0.930 . S
Co1254 N1258 2.148 . S
Co1254 N1264 2.128 . S
Co1254 N1274 2.194 . S
Co1254 O1279 2.351 . S
Co1254 O1280 2.155 . S
Co1254 O1281 2.096 . S
C1255 N1258 1.301 . S
C1255 N1259 1.328 . S
C1255 H1260 0.930 . S
C1256 C1257 1.333 . S
C1256 N1258 1.317 . S
C1256 H1261 0.930 . S
C1257 C1256 1.333 . S
C1257 N1259 1.350 . S
C1257 H1283 0.931 . S
N1258 Co1254 2.148 . S
N1258 C1255 1.301 . S
N1258 C1256 1.317 . S
N1259 C1255 1.328 . S
N1259 C1257 1.350 . S
H1260 C1255 0.930 . S
H1261 C1256 0.930 . S
C1262 O1263 1.224 . S
C1262 O1281 1.247 . S
O1263 C1262 1.224 . S
N1264 Co1254 2.128 . S
N1264 C1265 1.355 . S
N1264 C1267 1.311 . S
C1265 N1264 1.355 . S
C1265 C1266 1.363 . S
C1265 H1277 0.929 . S
C1266 C1265 1.363 . S
C1266 N1268 1.375 . S
C1266 H1284 0.931 . S
C1267 N1264 1.311 . S
C1267 N1268 1.347 . S
C1267 H1278 0.929 . S
N1268 C1266 1.375 . S
N1268 C1267 1.347 . S
C1269 C1272 1.365 . S
C1269 N1274 1.328 . S
C1269 H1275 0.929 . S
C1270 C1271 1.362 . S
C1270 C1273 1.378 . S
C1270 H1285 0.929 . S
C1271 C1270 1.362 . S
C1271 C1272 1.366 . S
C1272 C1269 1.365 . S
C1272 C1271 1.366 . S
C1272 H1286 0.930 . S
C1273 C1270 1.378 . S
C1273 N1274 1.315 . S
C1273 H1276 0.930 . S
N1274 Co1254 2.194 . S
N1274 C1269 1.328 . S
N1274 C1273 1.315 . S
H1275 C1269 0.929 . S
H1276 C1273 0.930 . S
H1277 C1265 0.929 . S
H1278 C1267 0.929 . S
O1279 Co1254 2.351 . S
O1279 C1282 1.244 . S
O1280 Co1254 2.155 . S
O1280 C1282 1.240 . S
O1281 Co1254 2.096 . S
O1281 C1262 1.247 . S
C1282 O1279 1.244 . S
C1282 O1280 1.240 . S
H1283 C1257 0.931 . S
H1284 C1266 0.931 . S
H1285 C1270 0.929 . S
H1286 C1272 0.930 . S
Co1287 N1291 2.148 . S
Co1287 N1297 2.128 . S
Co1287 N1307 2.194 . S
Co1287 O1312 2.351 . S
Co1287 O1313 2.155 . S
Co1287 O1314 2.096 . S
C1288 N1291 1.301 . S
C1288 N1292 1.328 . S
C1288 H1293 0.930 . S
C1289 C1290 1.333 . S
C1289 N1291 1.317 . S
C1289 H1294 0.930 . S
C1290 C1289 1.333 . S
C1290 N1292 1.350 . S
C1290 H1316 0.931 . S
N1291 Co1287 2.148 . S
N1291 C1288 1.301 . S
N1291 C1289 1.317 . S
N1292 C1288 1.328 . S
N1292 C1290 1.350 . S
H1293 C1288 0.930 . S
H1294 C1289 0.930 . S
C1295 O1296 1.224 . S
C1295 O1314 1.247 . S
O1296 C1295 1.224 . S
N1297 Co1287 2.128 . S
N1297 C1298 1.355 . S
N1297 C1300 1.311 . S
C1298 N1297 1.355 . S
C1298 C1299 1.363 . S
C1298 H1310 0.929 . S
C1299 C1298 1.363 . S
C1299 N1301 1.375 . S
C1299 H1317 0.931 . S
C1300 N1297 1.311 . S
C1300 N1301 1.347 . S
C1300 H1311 0.929 . S
N1301 C1299 1.375 . S
N1301 C1300 1.347 . S
C1302 C1305 1.365 . S
C1302 N1307 1.328 . S
C1302 H1308 0.929 . S
C1303 C1304 1.362 . S
C1303 C1306 1.378 . S
C1303 H1318 0.929 . S
C1304 C1303 1.362 . S
C1304 C1305 1.366 . S
C1305 C1302 1.365 . S
C1305 C1304 1.366 . S
C1305 H1319 0.930 . S
C1306 C1303 1.378 . S
C1306 N1307 1.315 . S
C1306 H1309 0.930 . S
N1307 Co1287 2.194 . S
N1307 C1302 1.328 . S
N1307 C1306 1.315 . S
H1308 C1302 0.929 . S
H1309 C1306 0.930 . S
H1310 C1298 0.929 . S
H1311 C1300 0.929 . S
O1312 Co1287 2.351 . S
O1312 C1315 1.244 . S
O1313 Co1287 2.155 . S
O1313 C1315 1.240 . S
O1314 Co1287 2.096 . S
O1314 C1295 1.247 . S
C1315 O1312 1.244 . S
C1315 O1313 1.240 . S
H1316 C1290 0.931 . S
H1317 C1299 0.931 . S
H1318 C1303 0.929 . S
H1319 C1305 0.930 . S
Co1320 N1324 2.148 . S
Co1320 N1330 2.128 . S
Co1320 N1340 2.194 . S
Co1320 O1345 2.351 . S
Co1320 O1346 2.155 . S
Co1320 O1347 2.096 . S
C1321 N1324 1.301 . S
C1321 N1325 1.328 . S
C1321 H1326 0.930 . S
C1322 C1323 1.333 . S
C1322 N1324 1.317 . S
C1322 H1327 0.930 . S
C1323 C1322 1.333 . S
C1323 N1325 1.350 . S
C1323 H1349 0.931 . S
N1324 Co1320 2.148 . S
N1324 C1321 1.301 . S
N1324 C1322 1.317 . S
N1325 C1321 1.328 . S
N1325 C1323 1.350 . S
H1326 C1321 0.930 . S
H1327 C1322 0.930 . S
C1328 O1329 1.224 . S
C1328 O1347 1.247 . S
O1329 C1328 1.224 . S
N1330 Co1320 2.128 . S
N1330 C1331 1.355 . S
N1330 C1333 1.311 . S
C1331 N1330 1.355 . S
C1331 C1332 1.363 . S
C1331 H1343 0.929 . S
C1332 C1331 1.363 . S
C1332 N1334 1.375 . S
C1332 H1350 0.931 . S
C1333 N1330 1.311 . S
C1333 N1334 1.347 . S
C1333 H1344 0.929 . S
N1334 C1332 1.375 . S
N1334 C1333 1.347 . S
C1335 C1338 1.365 . S
C1335 N1340 1.328 . S
C1335 H1341 0.929 . S
C1336 C1337 1.362 . S
C1336 C1339 1.378 . S
C1336 H1351 0.929 . S
C1337 C1336 1.362 . S
C1337 C1338 1.366 . S
C1338 C1335 1.365 . S
C1338 C1337 1.366 . S
C1338 H1352 0.930 . S
C1339 C1336 1.378 . S
C1339 N1340 1.315 . S
C1339 H1342 0.930 . S
N1340 Co1320 2.194 . S
N1340 C1335 1.328 . S
N1340 C1339 1.315 . S
H1341 C1335 0.929 . S
H1342 C1339 0.930 . S
H1343 C1331 0.929 . S
H1344 C1333 0.929 . S
O1345 Co1320 2.351 . S
O1345 C1348 1.244 . S
O1346 Co1320 2.155 . S
O1346 C1348 1.240 . S
O1347 Co1320 2.096 . S
O1347 C1328 1.247 . S
C1348 O1345 1.244 . S
C1348 O1346 1.240 . S
H1349 C1323 0.931 . S
H1350 C1332 0.931 . S
H1351 C1336 0.929 . S
H1352 C1338 0.930 . S
Co1353 N1357 2.148 . S
Co1353 N1363 2.128 . S
Co1353 N1373 2.194 . S
Co1353 O1378 2.351 . S
Co1353 O1379 2.155 . S
Co1353 O1380 2.096 . S
C1354 N1357 1.301 . S
C1354 N1358 1.328 . S
C1354 H1359 0.930 . S
C1355 C1356 1.333 . S
C1355 N1357 1.317 . S
C1355 H1360 0.930 . S
C1356 C1355 1.333 . S
C1356 N1358 1.350 . S
C1356 H1382 0.931 . S
N1357 Co1353 2.148 . S
N1357 C1354 1.301 . S
N1357 C1355 1.317 . S
N1358 C1354 1.328 . S
N1358 C1356 1.350 . S
H1359 C1354 0.930 . S
H1360 C1355 0.930 . S
C1361 O1362 1.224 . S
C1361 O1380 1.247 . S
O1362 C1361 1.224 . S
N1363 Co1353 2.128 . S
N1363 C1364 1.355 . S
N1363 C1366 1.311 . S
C1364 N1363 1.355 . S
C1364 C1365 1.363 . S
C1364 H1376 0.929 . S
C1365 C1364 1.363 . S
C1365 N1367 1.375 . S
C1365 H1383 0.931 . S
C1366 N1363 1.311 . S
C1366 N1367 1.347 . S
C1366 H1377 0.929 . S
N1367 C1365 1.375 . S
N1367 C1366 1.347 . S
C1368 C1371 1.365 . S
C1368 N1373 1.328 . S
C1368 H1374 0.929 . S
C1369 C1370 1.362 . S
C1369 C1372 1.378 . S
C1369 H1384 0.929 . S
C1370 C1369 1.362 . S
C1370 C1371 1.366 . S
C1371 C1368 1.365 . S
C1371 C1370 1.366 . S
C1371 H1385 0.930 . S
C1372 C1369 1.378 . S
C1372 N1373 1.315 . S
C1372 H1375 0.930 . S
N1373 Co1353 2.194 . S
N1373 C1368 1.328 . S
N1373 C1372 1.315 . S
H1374 C1368 0.929 . S
H1375 C1372 0.930 . S
H1376 C1364 0.929 . S
H1377 C1366 0.929 . S
O1378 Co1353 2.351 . S
O1378 C1381 1.244 . S
O1379 Co1353 2.155 . S
O1379 C1381 1.240 . S
O1380 Co1353 2.096 . S
O1380 C1361 1.247 . S
C1381 O1378 1.244 . S
C1381 O1379 1.240 . S
H1382 C1356 0.931 . S
H1383 C1365 0.931 . S
H1384 C1369 0.929 . S
H1385 C1371 0.930 . S
Co1386 N1390 2.148 . S
Co1386 N1396 2.128 . S
Co1386 N1406 2.194 . S
Co1386 O1411 2.351 . S
Co1386 O1412 2.155 . S
Co1386 O1413 2.096 . S
C1387 N1390 1.301 . S
C1387 N1391 1.328 . S
C1387 H1392 0.930 . S
C1388 C1389 1.333 . S
C1388 N1390 1.317 . S
C1388 H1393 0.930 . S
C1389 C1388 1.333 . S
C1389 N1391 1.350 . S
C1389 H1415 0.931 . S
N1390 Co1386 2.148 . S
N1390 C1387 1.301 . S
N1390 C1388 1.317 . S
N1391 C1387 1.328 . S
N1391 C1389 1.350 . S
H1392 C1387 0.930 . S
H1393 C1388 0.930 . S
C1394 O1395 1.224 . S
C1394 O1413 1.247 . S
O1395 C1394 1.224 . S
N1396 Co1386 2.128 . S
N1396 C1397 1.355 . S
N1396 C1399 1.311 . S
C1397 N1396 1.355 . S
C1397 C1398 1.363 . S
C1397 H1409 0.929 . S
C1398 C1397 1.363 . S
C1398 N1400 1.375 . S
C1398 H1416 0.931 . S
C1399 N1396 1.311 . S
C1399 N1400 1.347 . S
C1399 H1410 0.929 . S
N1400 C1398 1.375 . S
N1400 C1399 1.347 . S
C1401 C1404 1.365 . S
C1401 N1406 1.328 . S
C1401 H1407 0.929 . S
C1402 C1403 1.362 . S
C1402 C1405 1.378 . S
C1402 H1417 0.929 . S
C1403 C1402 1.362 . S
C1403 C1404 1.366 . S
C1404 C1401 1.365 . S
C1404 C1403 1.366 . S
C1404 H1418 0.930 . S
C1405 C1402 1.378 . S
C1405 N1406 1.315 . S
C1405 H1408 0.930 . S
N1406 Co1386 2.194 . S
N1406 C1401 1.328 . S
N1406 C1405 1.315 . S
H1407 C1401 0.929 . S
H1408 C1405 0.930 . S
H1409 C1397 0.929 . S
H1410 C1399 0.929 . S
O1411 Co1386 2.351 . S
O1411 C1414 1.244 . S
O1412 Co1386 2.155 . S
O1412 C1414 1.240 . S
O1413 Co1386 2.096 . S
O1413 C1394 1.247 . S
C1414 O1411 1.244 . S
C1414 O1412 1.240 . S
H1415 C1389 0.931 . S
H1416 C1398 0.931 . S
H1417 C1402 0.929 . S
H1418 C1404 0.930 . S
Co1419 N1423 2.148 . S
Co1419 N1429 2.128 . S
Co1419 N1439 2.194 . S
Co1419 O1444 2.351 . S
Co1419 O1445 2.155 . S
Co1419 O1446 2.096 . S
C1420 N1423 1.301 . S
C1420 N1424 1.328 . S
C1420 H1425 0.930 . S
C1421 C1422 1.333 . S
C1421 N1423 1.317 . S
C1421 H1426 0.930 . S
C1422 C1421 1.333 . S
C1422 N1424 1.350 . S
C1422 H1448 0.931 . S
N1423 Co1419 2.148 . S
N1423 C1420 1.301 . S
N1423 C1421 1.317 . S
N1424 C1420 1.328 . S
N1424 C1422 1.350 . S
H1425 C1420 0.930 . S
H1426 C1421 0.930 . S
C1427 O1428 1.224 . S
C1427 O1446 1.247 . S
O1428 C1427 1.224 . S
N1429 Co1419 2.128 . S
N1429 C1430 1.355 . S
N1429 C1432 1.311 . S
C1430 N1429 1.355 . S
C1430 C1431 1.363 . S
C1430 H1442 0.929 . S
C1431 C1430 1.363 . S
C1431 N1433 1.375 . S
C1431 H1449 0.931 . S
C1432 N1429 1.311 . S
C1432 N1433 1.347 . S
C1432 H1443 0.929 . S
N1433 C1431 1.375 . S
N1433 C1432 1.347 . S
C1434 C1437 1.365 . S
C1434 N1439 1.328 . S
C1434 H1440 0.929 . S
C1435 C1436 1.362 . S
C1435 C1438 1.378 . S
C1435 H1450 0.929 . S
C1436 C1435 1.362 . S
C1436 C1437 1.366 . S
C1437 C1434 1.365 . S
C1437 C1436 1.366 . S
C1437 H1451 0.930 . S
C1438 C1435 1.378 . S
C1438 N1439 1.315 . S
C1438 H1441 0.930 . S
N1439 Co1419 2.194 . S
N1439 C1434 1.328 . S
N1439 C1438 1.315 . S
H1440 C1434 0.929 . S
H1441 C1438 0.930 . S
H1442 C1430 0.929 . S
H1443 C1432 0.929 . S
O1444 Co1419 2.351 . S
O1444 C1447 1.244 . S
O1445 Co1419 2.155 . S
O1445 C1447 1.240 . S
O1446 Co1419 2.096 . S
O1446 C1427 1.247 . S
C1447 O1444 1.244 . S
C1447 O1445 1.240 . S
H1448 C1422 0.931 . S
H1449 C1431 0.931 . S
H1450 C1435 0.929 . S
H1451 C1437 0.930 . S
Co1452 N1456 2.148 1_655 S
Co1452 N1462 2.128 . S
Co1452 N1472 2.194 . S
Co1452 O1477 2.351 . S
Co1452 O1478 2.155 . S
Co1452 O1479 2.096 1_655 S
C1453 N1456 1.301 . S
C1453 N1457 1.328 . S
C1453 H1458 0.930 1_455 S
C1454 C1455 1.333 . S
C1454 N1456 1.317 . S
C1454 H1459 0.930 . S
C1455 C1454 1.333 . S
C1455 N1457 1.350 . S
C1455 H1481 0.931 . S
N1456 Co1452 2.148 1_455 S
N1456 C1453 1.301 . S
N1456 C1454 1.317 . S
N1457 C1453 1.328 . S
N1457 C1455 1.350 . S
H1458 C1453 0.930 1_655 S
H1459 C1454 0.930 . S
C1460 O1461 1.224 . S
C1460 O1479 1.247 . S
O1461 C1460 1.224 . S
N1462 Co1452 2.128 . S
N1462 C1463 1.355 . S
N1462 C1465 1.311 . S
C1463 N1462 1.355 . S
C1463 C1464 1.363 . S
C1463 H1475 0.929 . S
C1464 C1463 1.363 . S
C1464 N1466 1.375 . S
C1464 H1482 0.931 . S
C1465 N1462 1.311 . S
C1465 N1466 1.347 . S
C1465 H1476 0.929 . S
N1466 C1464 1.375 . S
N1466 C1465 1.347 . S
C1467 C1470 1.365 . S
C1467 N1472 1.328 . S
C1467 H1473 0.929 . S
C1468 C1469 1.362 . S
C1468 C1471 1.378 . S
C1468 H1483 0.929 . S
C1469 C1468 1.362 . S
C1469 C1470 1.366 . S
C1470 C1467 1.365 . S
C1470 C1469 1.366 . S
C1470 H1484 0.930 . S
C1471 C1468 1.378 . S
C1471 N1472 1.315 . S
C1471 H1474 0.931 1_655 S
N1472 Co1452 2.194 . S
N1472 C1467 1.328 . S
N1472 C1471 1.315 . S
H1473 C1467 0.929 . S
H1474 C1471 0.931 1_455 S
H1475 C1463 0.929 . S
H1476 C1465 0.929 . S
O1477 Co1452 2.351 . S
O1477 C1480 1.244 . S
O1478 Co1452 2.155 . S
O1478 C1480 1.240 . S
O1479 Co1452 2.096 1_455 S
O1479 C1460 1.247 . S
C1480 O1477 1.244 . S
C1480 O1478 1.240 . S
H1481 C1455 0.931 . S
H1482 C1464 0.931 . S
H1483 C1468 0.929 . S
H1484 C1470 0.930 . S
Co1485 N1489 2.148 . S
Co1485 N1495 2.128 . S
Co1485 N1505 2.194 . S
Co1485 O1510 2.351 . S
Co1485 O1511 2.155 . S
Co1485 O1512 2.096 . S
C1486 N1489 1.301 . S
C1486 N1490 1.328 . S
C1486 H1491 0.930 . S
C1487 C1488 1.333 . S
C1487 N1489 1.317 . S
C1487 H1492 0.930 . S
C1488 C1487 1.333 . S
C1488 N1490 1.350 . S
C1488 H1514 0.931 . S
N1489 Co1485 2.148 . S
N1489 C1486 1.301 . S
N1489 C1487 1.317 . S
N1490 C1486 1.328 . S
N1490 C1488 1.350 . S
H1491 C1486 0.930 . S
H1492 C1487 0.930 . S
C1493 O1494 1.224 . S
C1493 O1512 1.247 . S
O1494 C1493 1.224 . S
N1495 Co1485 2.128 . S
N1495 C1496 1.355 . S
N1495 C1498 1.311 . S
C1496 N1495 1.355 . S
C1496 C1497 1.363 . S
C1496 H1508 0.929 . S
C1497 C1496 1.363 . S
C1497 N1499 1.375 . S
C1497 H1515 0.931 . S
C1498 N1495 1.311 . S
C1498 N1499 1.347 . S
C1498 H1509 0.929 . S
N1499 C1497 1.375 . S
N1499 C1498 1.347 . S
C1500 C1503 1.365 . S
C1500 N1505 1.328 . S
C1500 H1506 0.929 . S
C1501 C1502 1.362 . S
C1501 C1504 1.378 . S
C1501 H1516 0.929 . S
C1502 C1501 1.362 . S
C1502 C1503 1.366 . S
C1503 C1500 1.365 . S
C1503 C1502 1.366 . S
C1503 H1517 0.930 . S
C1504 C1501 1.378 . S
C1504 N1505 1.315 . S
C1504 H1507 0.930 . S
N1505 Co1485 2.194 . S
N1505 C1500 1.328 . S
N1505 C1504 1.315 . S
H1506 C1500 0.929 . S
H1507 C1504 0.930 . S
H1508 C1496 0.929 . S
H1509 C1498 0.929 . S
O1510 Co1485 2.351 . S
O1510 C1513 1.244 . S
O1511 Co1485 2.155 . S
O1511 C1513 1.240 . S
O1512 Co1485 2.096 . S
O1512 C1493 1.247 . S
C1513 O1510 1.244 . S
C1513 O1511 1.240 . S
H1514 C1488 0.931 . S
H1515 C1497 0.931 . S
H1516 C1501 0.929 . S
H1517 C1503 0.930 . S
Co1518 N1522 2.148 . S
Co1518 N1528 2.128 . S
Co1518 N1538 2.194 . S
Co1518 O1543 2.351 . S
Co1518 O1544 2.155 . S
Co1518 O1545 2.096 . S
C1519 N1522 1.301 . S
C1519 N1523 1.328 . S
C1519 H1524 0.930 . S
C1520 C1521 1.333 . S
C1520 N1522 1.317 . S
C1520 H1525 0.930 . S
C1521 C1520 1.333 . S
C1521 N1523 1.350 . S
C1521 H1547 0.931 . S
N1522 Co1518 2.148 . S
N1522 C1519 1.301 . S
N1522 C1520 1.317 . S
N1523 C1519 1.328 . S
N1523 C1521 1.350 . S
H1524 C1519 0.930 . S
H1525 C1520 0.930 . S
C1526 O1527 1.224 . S
C1526 O1545 1.247 . S
O1527 C1526 1.224 . S
N1528 Co1518 2.128 . S
N1528 C1529 1.355 . S
N1528 C1531 1.311 . S
C1529 N1528 1.355 . S
C1529 C1530 1.363 . S
C1529 H1541 0.929 . S
C1530 C1529 1.363 . S
C1530 N1532 1.375 . S
C1530 H1548 0.931 . S
C1531 N1528 1.311 . S
C1531 N1532 1.347 . S
C1531 H1542 0.929 . S
N1532 C1530 1.375 . S
N1532 C1531 1.347 . S
C1533 C1536 1.365 . S
C1533 N1538 1.328 . S
C1533 H1539 0.929 . S
C1534 C1535 1.362 . S
C1534 C1537 1.378 . S
C1534 H1549 0.929 . S
C1535 C1534 1.362 . S
C1535 C1536 1.366 . S
C1536 C1533 1.365 . S
C1536 C1535 1.366 . S
C1536 H1550 0.930 . S
C1537 C1534 1.378 . S
C1537 N1538 1.315 . S
C1537 H1540 0.930 . S
N1538 Co1518 2.194 . S
N1538 C1533 1.328 . S
N1538 C1537 1.315 . S
H1539 C1533 0.929 . S
H1540 C1537 0.930 . S
H1541 C1529 0.929 . S
H1542 C1531 0.929 . S
O1543 Co1518 2.351 . S
O1543 C1546 1.244 . S
O1544 Co1518 2.155 . S
O1544 C1546 1.240 . S
O1545 Co1518 2.096 . S
O1545 C1526 1.247 . S
C1546 O1543 1.244 . S
C1546 O1544 1.240 . S
H1547 C1521 0.931 . S
H1548 C1530 0.931 . S
H1549 C1534 0.929 . S
H1550 C1536 0.930 . S
Co1551 N1555 2.148 . S
Co1551 N1561 2.128 . S
Co1551 N1571 2.194 . S
Co1551 O1576 2.351 . S
Co1551 O1577 2.155 . S
Co1551 O1578 2.096 . S
C1552 N1555 1.301 . S
C1552 N1556 1.328 . S
C1552 H1557 0.930 . S
C1553 C1554 1.333 . S
C1553 N1555 1.317 . S
C1553 H1558 0.930 . S
C1554 C1553 1.333 . S
C1554 N1556 1.350 . S
C1554 H1580 0.931 . S
N1555 Co1551 2.148 . S
N1555 C1552 1.301 . S
N1555 C1553 1.317 . S
N1556 C1552 1.328 . S
N1556 C1554 1.350 . S
H1557 C1552 0.930 . S
H1558 C1553 0.930 . S
C1559 O1560 1.224 . S
C1559 O1578 1.247 . S
O1560 C1559 1.224 . S
N1561 Co1551 2.128 . S
N1561 C1562 1.355 . S
N1561 C1564 1.311 . S
C1562 N1561 1.355 . S
C1562 C1563 1.363 . S
C1562 H1574 0.929 . S
C1563 C1562 1.363 . S
C1563 N1565 1.375 . S
C1563 H1581 0.931 . S
C1564 N1561 1.311 . S
C1564 N1565 1.347 . S
C1564 H1575 0.929 . S
N1565 C1563 1.375 . S
N1565 C1564 1.347 . S
C1566 C1569 1.365 . S
C1566 N1571 1.328 . S
C1566 H1572 0.929 . S
C1567 C1568 1.362 . S
C1567 C1570 1.378 . S
C1567 H1582 0.929 . S
C1568 C1567 1.362 . S
C1568 C1569 1.366 . S
C1569 C1566 1.365 . S
C1569 C1568 1.366 . S
C1569 H1583 0.930 . S
C1570 C1567 1.378 . S
C1570 N1571 1.315 . S
C1570 H1573 0.930 . S
N1571 Co1551 2.194 . S
N1571 C1566 1.328 . S
N1571 C1570 1.315 . S
H1572 C1566 0.929 . S
H1573 C1570 0.930 . S
H1574 C1562 0.929 . S
H1575 C1564 0.929 . S
O1576 Co1551 2.351 . S
O1576 C1579 1.244 . S
O1577 Co1551 2.155 . S
O1577 C1579 1.240 . S
O1578 Co1551 2.096 . S
O1578 C1559 1.247 . S
C1579 O1576 1.244 . S
C1579 O1577 1.240 . S
H1580 C1554 0.931 . S
H1581 C1563 0.931 . S
H1582 C1567 0.929 . S
H1583 C1569 0.930 . S
C1584 C1585 1.387 . S
C1584 H1588 0.950 . S
C1584 C1593 1.390 . S
C1585 C1584 1.387 . S
C1585 C1587 1.387 . S
H1586 C1593 0.950 . S
C1587 C1585 1.387 . S
C1587 C1589 1.390 . S
C1587 H1591 0.950 . S
H1588 C1584 0.950 . S
C1589 C1587 1.390 . S
C1589 C1590 1.387 . S
C1589 H1592 0.950 . S
C1590 C1589 1.387 . S
C1590 C1593 1.387 . S
H1591 C1587 0.950 . S
H1592 C1589 0.950 . S
C1593 C1584 1.390 . S
C1593 H1586 0.950 . S
C1593 C1590 1.387 . S
C1594 C1595 1.387 . S
C1594 H1598 0.950 . S
C1594 C1603 1.390 . S
C1595 C1594 1.387 . S
C1595 C1597 1.387 . S
H1596 C1603 0.914 1_554 S
C1597 C1595 1.387 . S
C1597 C1599 1.390 . S
C1597 H1601 0.950 . S
H1598 C1594 0.950 . S
C1599 C1597 1.390 . S
C1599 C1600 1.387 . S
C1599 H1602 0.950 . S
C1600 C1599 1.387 . S
C1600 C1603 1.387 . S
H1601 C1597 0.950 . S
H1602 C1599 0.950 . S
C1603 C1594 1.390 . S
C1603 H1596 0.914 1_556 S
C1603 C1600 1.387 . S
C1604 C1605 1.387 . S
C1604 H1608 0.950 . S
C1604 C1613 1.390 . S
C1605 C1604 1.387 . S
C1605 C1607 1.387 . S
H1606 C1613 0.950 . S
C1607 C1605 1.387 . S
C1607 C1609 1.390 . S
C1607 H1611 0.950 . S
H1608 C1604 0.950 . S
C1609 C1607 1.390 . S
C1609 C1610 1.387 . S
C1609 H1612 0.950 . S
C1610 C1609 1.387 . S
C1610 C1613 1.387 . S
H1611 C1607 0.950 . S
H1612 C1609 0.950 . S
C1613 C1604 1.390 . S
C1613 H1606 0.950 . S
C1613 C1610 1.387 . S
C1614 C1615 1.387 . S
C1614 H1618 0.931 1_556 S
C1614 C1623 1.390 . S
C1615 C1614 1.387 . S
C1615 C1617 1.387 . S
H1616 C1623 0.950 . S
C1617 C1615 1.387 . S
C1617 C1619 1.390 . S
C1617 H1621 0.950 . S
H1618 C1614 0.931 1_554 S
C1619 C1617 1.390 . S
C1619 C1620 1.387 . S
C1619 H1622 0.950 . S
C1620 C1619 1.387 . S
C1620 C1623 1.387 . S
H1621 C1617 0.950 . S
H1622 C1619 0.950 . S
C1623 C1614 1.390 . S
C1623 H1616 0.950 . S
C1623 C1620 1.387 . S
C1624 C1625 1.387 . S
C1624 H1628 0.950 . S
C1624 C1633 1.390 . S
C1625 C1624 1.387 . S
C1625 C1627 1.387 . S
H1626 C1633 0.950 . S
C1627 C1625 1.387 . S
C1627 C1629 1.390 . S
C1627 H1631 0.950 . S
H1628 C1624 0.950 . S
C1629 C1627 1.390 . S
C1629 C1630 1.387 . S
C1629 H1632 0.950 . S
C1630 C1629 1.387 . S
C1630 C1633 1.387 . S
H1631 C1627 0.950 . S
H1632 C1629 0.950 . S
C1633 C1624 1.390 . S
C1633 H1626 0.950 . S
C1633 C1630 1.387 . S
C1634 C1635 1.387 . S
C1634 H1638 0.950 . S
C1634 C1643 1.390 . S
C1635 C1634 1.387 . S
C1635 C1637 1.387 . S
H1636 C1643 0.950 . S
C1637 C1635 1.387 . S
C1637 C1639 1.390 . S
C1637 H1641 0.950 . S
H1638 C1634 0.950 . S
C1639 C1637 1.390 . S
C1639 C1640 1.387 . S
C1639 H1642 0.950 1_554 S
C1640 C1639 1.387 . S
C1640 C1643 1.387 . S
H1641 C1637 0.950 . S
H1642 C1639 0.950 1_556 S
C1643 C1634 1.390 . S
C1643 H1636 0.950 . S
C1643 C1640 1.387 . S
C1644 C1645 1.387 . S
C1644 H1648 0.950 . S
C1644 C1653 1.390 . S
C1645 C1644 1.387 . S
C1645 C1647 1.387 . S
H1646 C1653 0.950 . S
C1647 C1645 1.387 . S
C1647 C1649 1.390 . S
C1647 H1651 0.950 . S
H1648 C1644 0.950 . S
C1649 C1647 1.390 . S
C1649 C1650 1.387 . S
C1649 H1652 0.950 . S
C1650 C1649 1.387 . S
C1650 C1653 1.387 . S
H1651 C1647 0.950 . S
H1652 C1649 0.950 . S
C1653 C1644 1.390 . S
C1653 H1646 0.950 . S
C1653 C1650 1.387 . S
C1654 C1655 1.387 . S
C1654 H1658 0.950 1_554 S
C1654 C1663 1.390 . S
C1655 C1654 1.387 . S
C1655 C1657 1.387 . S
H1656 C1663 0.950 . S
C1657 C1655 1.387 . S
C1657 C1659 1.390 . S
C1657 H1661 0.950 . S
H1658 C1654 0.950 1_556 S
C1659 C1657 1.390 . S
C1659 C1660 1.387 . S
C1659 H1662 0.950 . S
C1660 C1659 1.387 . S
C1660 C1663 1.387 . S
H1661 C1657 0.950 . S
H1662 C1659 0.950 . S
C1663 C1654 1.390 . S
C1663 H1656 0.950 . S
C1663 C1660 1.387 . S
C1664 C1665 1.387 . S
C1664 H1668 0.950 . S
C1664 C1673 1.390 . S
C1665 C1664 1.387 . S
C1665 C1667 1.387 . S
H1666 C1673 0.950 . S
C1667 C1665 1.387 . S
C1667 C1669 1.390 . S
C1667 H1671 0.950 . S
H1668 C1664 0.950 . S
C1669 C1667 1.390 . S
C1669 C1670 1.387 . S
C1669 H1672 0.950 . S
C1670 C1669 1.387 . S
C1670 C1673 1.387 . S
H1671 C1667 0.950 . S
H1672 C1669 0.950 . S
C1673 C1664 1.390 . S
C1673 H1666 0.950 . S
C1673 C1670 1.387 . S
C1674 C1675 1.387 . S
C1674 H1678 0.950 . S
C1674 C1683 1.390 . S
C1675 C1674 1.387 . S
C1675 C1677 1.387 . S
H1676 C1683 0.950 . S
C1677 C1675 1.387 . S
C1677 C1679 1.390 . S
C1677 H1681 0.984 . S
H1678 C1674 0.950 . S
C1679 C1677 1.390 . S
C1679 C1680 1.387 . S
C1679 H1682 0.950 . S
C1680 C1679 1.387 . S
C1680 C1683 1.387 . S
H1681 C1677 0.984 . S
H1682 C1679 0.950 . S
C1683 C1674 1.390 . S
C1683 H1676 0.950 . S
C1683 C1680 1.387 . S
C1684 C1685 1.387 . S
C1684 H1688 0.950 . S
C1684 C1693 1.390 . S
C1685 C1684 1.387 . S
C1685 C1687 1.387 . S
H1686 C1693 0.950 . S
C1687 C1685 1.387 . S
C1687 C1689 1.390 . S
C1687 H1691 0.950 . S
H1688 C1684 0.950 . S
C1689 C1687 1.390 . S
C1689 C1690 1.387 . S
C1689 H1692 0.950 . S
C1690 C1689 1.387 . S
C1690 C1693 1.387 . S
H1691 C1687 0.950 . S
H1692 C1689 0.950 . S
C1693 C1684 1.390 . S
C1693 H1686 0.950 . S
C1693 C1690 1.387 . S
C1694 C1695 1.387 . S
C1694 H1698 0.950 1_545 S
C1694 C1703 1.390 . S
C1695 C1694 1.387 . S
C1695 C1697 1.387 . S
H1696 C1703 0.950 . S
C1697 C1695 1.387 . S
C1697 C1699 1.390 . S
C1697 H1701 0.950 . S
H1698 C1694 0.950 1_565 S
C1699 C1697 1.390 . S
C1699 C1700 1.387 . S
C1699 H1702 0.950 . S
C1700 C1699 1.387 . S
C1700 C1703 1.387 . S
H1701 C1697 0.950 . S
H1702 C1699 0.950 . S
C1703 C1694 1.390 . S
C1703 H1696 0.950 . S
C1703 C1700 1.387 . S
C1704 C1705 1.387 . S
C1704 H1708 0.950 . S
C1704 C1713 1.390 . S
C1705 C1704 1.387 . S
C1705 C1707 1.387 . S
H1706 C1713 0.950 . S
C1707 C1705 1.387 . S
C1707 C1709 1.390 . S
C1707 H1711 0.950 . S
H1708 C1704 0.950 . S
C1709 C1707 1.390 . S
C1709 C1710 1.387 . S
C1709 H1712 0.950 . S
C1710 C1709 1.387 . S
C1710 C1713 1.387 . S
H1711 C1707 0.950 . S
H1712 C1709 0.950 . S
C1713 C1704 1.390 . S
C1713 H1706 0.950 . S
C1713 C1710 1.387 . S
C1714 C1715 1.387 . S
C1714 H1718 0.950 . S
C1714 C1723 1.390 . S
C1715 C1714 1.387 . S
C1715 C1717 1.387 . S
H1716 C1723 0.950 . S
C1717 C1715 1.387 . S
C1717 C1719 1.390 . S
C1717 H1721 0.950 . S
H1718 C1714 0.950 . S
C1719 C1717 1.390 . S
C1719 C1720 1.387 . S
C1719 H1722 0.950 . S
C1720 C1719 1.387 . S
C1720 C1723 1.387 . S
H1721 C1717 0.950 . S
H1722 C1719 0.950 . S
C1723 C1714 1.390 . S
C1723 H1716 0.950 . S
C1723 C1720 1.387 . S
C1724 C1725 1.387 . S
C1724 H1728 0.950 . S
C1724 C1733 1.390 . S
C1725 C1724 1.387 . S
C1725 C1727 1.387 . S
H1726 C1733 0.950 . S
C1727 C1725 1.387 . S
C1727 C1729 1.390 . S
C1727 H1731 0.950 . S
H1728 C1724 0.950 . S
C1729 C1727 1.390 . S
C1729 C1730 1.387 . S
C1729 H1732 0.950 . S
C1730 C1729 1.387 . S
C1730 C1733 1.387 . S
H1731 C1727 0.950 . S
H1732 C1729 0.950 . S
C1733 C1724 1.390 . S
C1733 H1726 0.950 . S
C1733 C1730 1.387 . S
C1734 C1735 1.387 . S
C1734 H1738 0.950 . S
C1734 C1743 1.390 . S
C1735 C1734 1.387 . S
C1735 C1737 1.387 . S
H1736 C1743 0.950 . S
C1737 C1735 1.387 . S
C1737 C1739 1.390 . S
C1737 H1741 0.950 1_545 S
H1738 C1734 0.950 . S
C1739 C1737 1.390 . S
C1739 C1740 1.387 . S
C1739 H1742 0.950 . S
C1740 C1739 1.387 . S
C1740 C1743 1.387 . S
H1741 C1737 0.950 1_565 S
H1742 C1739 0.950 . S
C1743 C1734 1.390 . S
C1743 H1736 0.950 . S
C1743 C1740 1.387 . S
C1744 C1745 1.387 . S
C1744 H1748 0.950 . S
C1744 C1753 1.390 . S
C1745 C1744 1.387 . S
C1745 C1747 1.387 . S
H1746 C1753 0.950 . S
C1747 C1745 1.387 . S
C1747 C1749 1.390 . S
C1747 H1751 0.950 . S
H1748 C1744 0.950 . S
C1749 C1747 1.390 . S
C1749 C1750 1.387 . S
C1749 H1752 0.950 . S
C1750 C1749 1.387 . S
C1750 C1753 1.387 . S
H1751 C1747 0.950 . S
H1752 C1749 0.950 . S
C1753 C1744 1.390 . S
C1753 H1746 0.950 . S
C1753 C1750 1.387 . S
C1754 C1755 1.387 . S
C1754 H1758 0.950 . S
C1754 C1763 1.390 . S
C1755 C1754 1.387 . S
C1755 C1757 1.387 . S
H1756 C1763 0.950 . S
C1757 C1755 1.387 . S
C1757 C1759 1.390 . S
C1757 H1761 0.950 . S
H1758 C1754 0.950 . S
C1759 C1757 1.390 . S
C1759 C1760 1.387 . S
C1759 H1762 0.950 . S
C1760 C1759 1.387 . S
C1760 C1763 1.387 . S
H1761 C1757 0.950 . S
H1762 C1759 0.950 . S
C1763 C1754 1.390 . S
C1763 H1756 0.950 . S
C1763 C1760 1.387 . S
C1764 C1765 1.387 . S
C1764 H1768 0.950 . S
C1764 C1773 1.390 . S
C1765 C1764 1.387 . S
C1765 C1767 1.387 . S
H1766 C1773 0.950 . S
C1767 C1765 1.387 . S
C1767 C1769 1.390 . S
C1767 H1771 0.950 . S
H1768 C1764 0.950 . S
C1769 C1767 1.390 . S
C1769 C1770 1.387 . S
C1769 H1772 0.950 . S
C1770 C1769 1.387 . S
C1770 C1773 1.387 . S
H1771 C1767 0.950 . S
H1772 C1769 0.950 . S
C1773 C1764 1.390 . S
C1773 H1766 0.950 . S
C1773 C1770 1.387 . S
C1774 C1775 1.387 . S
C1774 H1778 0.950 . S
C1774 C1783 1.390 . S
C1775 C1774 1.387 . S
C1775 C1777 1.387 . S
H1776 C1783 0.950 . S
C1777 C1775 1.387 . S
C1777 C1779 1.390 . S
C1777 H1781 0.950 . S
H1778 C1774 0.950 . S
C1779 C1777 1.390 . S
C1779 C1780 1.387 . S
C1779 H1782 0.950 . S
C1780 C1779 1.387 . S
C1780 C1783 1.387 . S
H1781 C1777 0.950 . S
H1782 C1779 0.950 . S
C1783 C1774 1.390 . S
C1783 H1776 0.950 . S
C1783 C1780 1.387 . S
C1784 C1785 1.387 . S
C1784 H1788 0.950 . S
C1784 C1793 1.390 . S
C1785 C1784 1.387 . S
C1785 C1787 1.387 . S
H1786 C1793 0.950 . S
C1787 C1785 1.387 . S
C1787 C1789 1.390 . S
C1787 H1791 0.950 . S
H1788 C1784 0.950 . S
C1789 C1787 1.390 . S
C1789 C1790 1.387 . S
C1789 H1792 0.950 . S
C1790 C1789 1.387 . S
C1790 C1793 1.387 . S
H1791 C1787 0.950 . S
H1792 C1789 0.950 . S
C1793 C1784 1.390 . S
C1793 H1786 0.950 . S
C1793 C1790 1.387 . S
C1794 C1795 1.387 . S
C1794 H1798 0.950 . S
C1794 C1803 1.390 . S
C1795 C1794 1.387 . S
C1795 C1797 1.387 . S
H1796 C1803 0.950 . S
C1797 C1795 1.387 . S
C1797 C1799 1.390 . S
C1797 H1801 0.950 . S
H1798 C1794 0.950 . S
C1799 C1797 1.390 . S
C1799 C1800 1.387 . S
C1799 H1802 0.950 . S
C1800 C1799 1.387 . S
C1800 C1803 1.387 . S
H1801 C1797 0.950 . S
H1802 C1799 0.950 . S
C1803 C1794 1.390 . S
C1803 H1796 0.950 . S
C1803 C1800 1.387 . S
C1804 C1805 1.387 . S
C1804 H1808 0.950 1_655 S
C1804 C1813 1.390 . S
C1805 C1804 1.387 . S
C1805 C1807 1.387 . S
H1806 C1813 0.950 . S
C1807 C1805 1.387 . S
C1807 C1809 1.390 . S
C1807 H1811 0.950 . S
H1808 C1804 0.950 1_455 S
C1809 C1807 1.390 . S
C1809 C1810 1.387 . S
C1809 H1812 0.950 . S
C1810 C1809 1.387 . S
C1810 C1813 1.387 . S
H1811 C1807 0.950 . S
H1812 C1809 0.950 . S
C1813 C1804 1.390 . S
C1813 H1806 0.950 . S
C1813 C1810 1.387 . S
C1814 C1815 1.387 . S
C1814 H1818 0.950 . S
C1814 C1823 1.390 . S
C1815 C1814 1.387 . S
C1815 C1817 1.387 . S
H1816 C1823 0.950 . S
C1817 C1815 1.387 . S
C1817 C1819 1.390 . S
C1817 H1821 0.950 . S
H1818 C1814 0.950 . S
C1819 C1817 1.390 . S
C1819 C1820 1.387 . S
C1819 H1822 0.950 . S
C1820 C1819 1.387 . S
C1820 C1823 1.387 . S
H1821 C1817 0.950 . S
H1822 C1819 0.950 . S
C1823 C1814 1.390 . S
C1823 H1816 0.950 . S
C1823 C1820 1.387 . S
C1824 C1825 1.387 . S
C1824 H1828 0.950 . S
C1824 C1833 1.390 . S
C1825 C1824 1.387 . S
C1825 C1827 1.387 . S
H1826 C1833 0.950 . S
C1827 C1825 1.387 . S
C1827 C1829 1.390 . S
C1827 H1831 0.950 . S
H1828 C1824 0.950 . S
C1829 C1827 1.390 . S
C1829 C1830 1.387 . S
C1829 H1832 0.950 . S
C1830 C1829 1.387 . S
C1830 C1833 1.387 . S
H1831 C1827 0.950 . S
H1832 C1829 0.950 . S
C1833 C1824 1.390 . S
C1833 H1826 0.950 . S
C1833 C1830 1.387 . S
C1834 C1835 1.387 . S
C1834 H1838 0.950 . S
C1834 C1843 1.390 . S
C1835 C1834 1.387 . S
C1835 C1837 1.387 . S
H1836 C1843 0.950 . S
C1837 C1835 1.387 . S
C1837 C1839 1.390 . S
C1837 H1841 0.950 . S
H1838 C1834 0.950 . S
C1839 C1837 1.390 . S
C1839 C1840 1.387 . S
C1839 H1842 0.950 . S
C1840 C1839 1.387 . S
C1840 C1843 1.387 . S
H1841 C1837 0.950 . S
H1842 C1839 0.950 . S
C1843 C1834 1.390 . S
C1843 H1836 0.950 . S
C1843 C1840 1.387 . S
C1844 C1845 1.387 . S
C1844 H1848 0.950 . S
C1844 C1853 1.390 . S
C1845 C1844 1.387 . S
C1845 C1847 1.387 . S
H1846 C1853 0.950 . S
C1847 C1845 1.387 . S
C1847 C1849 1.390 . S
C1847 H1851 0.950 . S
H1848 C1844 0.950 . S
C1849 C1847 1.390 . S
C1849 C1850 1.387 . S
C1849 H1852 0.950 . S
C1850 C1849 1.387 . S
C1850 C1853 1.387 . S
H1851 C1847 0.950 . S
H1852 C1849 0.950 . S
C1853 C1844 1.390 . S
C1853 H1846 0.950 . S
C1853 C1850 1.387 . S
C1854 C1855 1.387 . S
C1854 H1858 0.950 . S
C1854 C1863 1.390 . S
C1855 C1854 1.387 . S
C1855 C1857 1.387 . S
H1856 C1863 0.950 . S
C1857 C1855 1.387 . S
C1857 C1859 1.390 . S
C1857 H1861 0.950 . S
H1858 C1854 0.950 . S
C1859 C1857 1.390 . S
C1859 C1860 1.387 . S
C1859 H1862 0.950 . S
C1860 C1859 1.387 . S
C1860 C1863 1.387 . S
H1861 C1857 0.950 . S
H1862 C1859 0.950 . S
C1863 C1854 1.390 . S
C1863 H1856 0.950 . S
C1863 C1860 1.387 . S
C1864 C1865 1.387 . S
C1864 H1868 0.950 . S
C1864 C1873 1.390 . S
C1865 C1864 1.387 . S
C1865 C1867 1.387 . S
H1866 C1873 0.950 . S
C1867 C1865 1.387 . S
C1867 C1869 1.390 . S
C1867 H1871 0.950 . S
H1868 C1864 0.950 . S
C1869 C1867 1.390 . S
C1869 C1870 1.387 . S
C1869 H1872 0.950 . S
C1870 C1869 1.387 . S
C1870 C1873 1.387 . S
H1871 C1867 0.950 . S
H1872 C1869 0.950 . S
C1873 C1864 1.390 . S
C1873 H1866 0.950 . S
C1873 C1870 1.387 . S
C1874 C1875 1.387 . S
C1874 H1878 0.950 . S
C1874 C1883 1.390 . S
C1875 C1874 1.387 . S
C1875 C1877 1.387 . S
H1876 C1883 0.950 . S
C1877 C1875 1.387 . S
C1877 C1879 1.390 . S
C1877 H1881 0.950 . S
H1878 C1874 0.950 . S
C1879 C1877 1.390 . S
C1879 C1880 1.387 . S
C1879 H1882 0.950 . S
C1880 C1879 1.387 . S
C1880 C1883 1.387 . S
H1881 C1877 0.950 . S
H1882 C1879 0.950 . S
C1883 C1874 1.390 . S
C1883 H1876 0.950 . S
C1883 C1880 1.387 . S
C1884 C1885 1.387 . S
C1884 H1888 0.950 . S
C1884 C1893 1.390 . S
C1885 C1884 1.387 . S
C1885 C1887 1.387 . S
H1886 C1893 0.950 . S
C1887 C1885 1.387 . S
C1887 C1889 1.390 . S
C1887 H1891 0.950 . S
H1888 C1884 0.950 . S
C1889 C1887 1.390 . S
C1889 C1890 1.387 . S
C1889 H1892 0.950 . S
C1890 C1889 1.387 . S
C1890 C1893 1.387 . S
H1891 C1887 0.950 . S
H1892 C1889 0.950 . S
C1893 C1884 1.390 . S
C1893 H1886 0.950 . S
C1893 C1890 1.387 . S
C1894 C1895 1.387 . S
C1894 H1898 0.950 . S
C1894 C1903 1.390 . S
C1895 C1894 1.387 . S
C1895 C1897 1.387 . S
H1896 C1903 0.950 . S
C1897 C1895 1.387 . S
C1897 C1899 1.390 . S
C1897 H1901 0.950 . S
H1898 C1894 0.950 . S
C1899 C1897 1.390 . S
C1899 C1900 1.387 . S
C1899 H1902 0.950 . S
C1900 C1899 1.387 . S
C1900 C1903 1.387 . S
H1901 C1897 0.950 . S
H1902 C1899 0.950 . S
C1903 C1894 1.390 . S
C1903 H1896 0.950 . S
C1903 C1900 1.387 . S
C1904 C1905 1.387 . S
C1904 H1908 0.950 . S
C1904 C1913 1.390 . S
C1905 C1904 1.387 . S
C1905 C1907 1.387 . S
H1906 C1913 0.950 . S
C1907 C1905 1.387 . S
C1907 C1909 1.390 . S
C1907 H1911 0.950 . S
H1908 C1904 0.950 . S
C1909 C1907 1.390 . S
C1909 C1910 1.387 . S
C1909 H1912 0.950 . S
C1910 C1909 1.387 . S
C1910 C1913 1.387 . S
H1911 C1907 0.950 . S
H1912 C1909 0.950 . S
C1913 C1904 1.390 . S
C1913 H1906 0.950 . S
C1913 C1910 1.387 . S
C1914 C1915 1.387 . S
C1914 H1918 0.950 . S
C1914 C1923 1.390 . S
C1915 C1914 1.387 . S
C1915 C1917 1.387 . S
H1916 C1923 0.950 1_545 S
C1917 C1915 1.387 . S
C1917 C1919 1.390 . S
C1917 H1921 0.950 . S
H1918 C1914 0.950 . S
C1919 C1917 1.390 . S
C1919 C1920 1.387 . S
C1919 H1922 0.950 . S
C1920 C1919 1.387 . S
C1920 C1923 1.387 . S
H1921 C1917 0.950 . S
H1922 C1919 0.950 . S
C1923 C1914 1.390 . S
C1923 H1916 0.950 1_565 S
C1923 C1920 1.387 . S
C1924 C1925 1.387 . S
C1924 H1928 0.950 . S
C1924 C1933 1.390 . S
C1925 C1924 1.387 . S
C1925 C1927 1.387 . S
H1926 C1933 0.950 . S
C1927 C1925 1.387 . S
C1927 C1929 1.390 . S
C1927 H1931 0.950 . S
H1928 C1924 0.950 . S
C1929 C1927 1.390 . S
C1929 C1930 1.387 . S
C1929 H1932 0.950 . S
C1930 C1929 1.387 . S
C1930 C1933 1.387 . S
H1931 C1927 0.950 . S
H1932 C1929 0.950 . S
C1933 C1924 1.390 . S
C1933 H1926 0.950 . S
C1933 C1930 1.387 . S
C1934 C1935 1.387 . S
C1934 H1938 0.950 . S
C1934 C1943 1.390 . S
C1935 C1934 1.387 . S
C1935 C1937 1.387 . S
H1936 C1943 0.950 . S
C1937 C1935 1.387 . S
C1937 C1939 1.390 . S
C1937 H1941 0.950 . S
H1938 C1934 0.950 . S
C1939 C1937 1.390 . S
C1939 C1940 1.387 . S
C1939 H1942 0.950 . S
C1940 C1939 1.387 . S
C1940 C1943 1.387 . S
H1941 C1937 0.950 . S
H1942 C1939 0.950 . S
C1943 C1934 1.390 . S
C1943 H1936 0.950 . S
C1943 C1940 1.387 . S
C1944 C1945 1.387 . S
C1944 H1948 0.950 . S
C1944 C1953 1.390 . S
C1945 C1944 1.387 . S
C1945 C1947 1.387 . S
H1946 C1953 0.950 . S
C1947 C1945 1.387 . S
C1947 C1949 1.390 . S
C1947 H1951 0.950 . S
H1948 C1944 0.950 . S
C1949 C1947 1.390 . S
C1949 C1950 1.387 . S
C1949 H1952 0.950 . S
C1950 C1949 1.387 . S
C1950 C1953 1.387 . S
H1951 C1947 0.950 . S
H1952 C1949 0.950 . S
C1953 C1944 1.390 . S
C1953 H1946 0.950 . S
C1953 C1950 1.387 . S
C1954 C1955 1.387 . S
C1954 H1958 0.950 1_565 S
C1954 C1963 1.390 . S
C1955 C1954 1.387 . S
C1955 C1957 1.387 . S
H1956 C1963 0.950 . S
C1957 C1955 1.387 . S
C1957 C1959 1.390 . S
C1957 H1961 0.950 . S
H1958 C1954 0.950 1_545 S
C1959 C1957 1.390 . S
C1959 C1960 1.387 . S
C1959 H1962 0.950 . S
C1960 C1959 1.387 . S
C1960 C1963 1.387 . S
H1961 C1957 0.950 . S
H1962 C1959 0.950 . S
C1963 C1954 1.390 . S
C1963 H1956 0.950 . S
C1963 C1960 1.387 . S
C1964 C1965 1.387 . S
C1964 H1968 0.950 . S
C1964 C1973 1.390 . S
C1965 C1964 1.387 . S
C1965 C1967 1.387 . S
H1966 C1973 0.950 . S
C1967 C1965 1.387 . S
C1967 C1969 1.390 . S
C1967 H1971 0.950 . S
H1968 C1964 0.950 . S
C1969 C1967 1.390 . S
C1969 C1970 1.387 . S
C1969 H1972 0.950 . S
C1970 C1969 1.387 . S
C1970 C1973 1.387 . S
H1971 C1967 0.950 . S
H1972 C1969 0.950 . S
C1973 C1964 1.390 . S
C1973 H1966 0.950 . S
C1973 C1970 1.387 . S
C1974 C1975 1.387 . S
C1974 H1978 0.950 . S
C1974 C1983 1.390 . S
C1975 C1974 1.387 . S
C1975 C1977 1.387 . S
H1976 C1983 0.950 . S
C1977 C1975 1.387 . S
C1977 C1979 1.390 . S
C1977 H1981 0.950 . S
H1978 C1974 0.950 . S
C1979 C1977 1.390 . S
C1979 C1980 1.387 . S
C1979 H1982 0.950 . S
C1980 C1979 1.387 . S
C1980 C1983 1.387 . S
H1981 C1977 0.950 . S
H1982 C1979 0.950 . S
C1983 C1974 1.390 . S
C1983 H1976 0.950 . S
C1983 C1980 1.387 . S
C1984 C1985 1.387 . S
C1984 H1988 0.950 . S
C1984 C1993 1.390 . S
C1985 C1984 1.387 . S
C1985 C1987 1.387 . S
H1986 C1993 0.950 . S
C1987 C1985 1.387 . S
C1987 C1989 1.390 . S
C1987 H1991 0.950 . S
H1988 C1984 0.950 . S
C1989 C1987 1.390 . S
C1989 C1990 1.387 . S
C1989 H1992 0.950 . S
C1990 C1989 1.387 . S
C1990 C1993 1.387 . S
H1991 C1987 0.950 . S
H1992 C1989 0.950 . S
C1993 C1984 1.390 . S
C1993 H1986 0.950 . S
C1993 C1990 1.387 . S
C1994 C1995 1.387 . S
C1994 H1998 0.950 . S
C1994 C2003 1.390 . S
C1995 C1994 1.387 . S
C1995 C1997 1.387 . S
H1996 C2003 0.950 . S
C1997 C1995 1.387 . S
C1997 C1999 1.390 . S
C1997 H2001 0.950 . S
H1998 C1994 0.950 . S
C1999 C1997 1.390 . S
C1999 C2000 1.387 . S
C1999 H2002 0.950 . S
C2000 C1999 1.387 . S
C2000 C2003 1.387 . S
H2001 C1997 0.950 . S
H2002 C1999 0.950 . S
C2003 C1994 1.390 . S
C2003 H1996 0.950 . S
C2003 C2000 1.387 . S
C2004 C2005 1.387 . S
C2004 H2008 0.950 . S
C2004 C2013 1.390 . S
C2005 C2004 1.387 . S
C2005 C2007 1.387 . S
H2006 C2013 0.950 . S
C2007 C2005 1.387 . S
C2007 C2009 1.390 . S
C2007 H2011 0.950 1_545 S
H2008 C2004 0.950 . S
C2009 C2007 1.390 . S
C2009 C2010 1.387 . S
C2009 H2012 0.950 . S
C2010 C2009 1.387 . S
C2010 C2013 1.387 . S
H2011 C2007 0.950 1_565 S
H2012 C2009 0.950 . S
C2013 C2004 1.390 . S
C2013 H2006 0.950 . S
C2013 C2010 1.387 . S
C2014 C2015 1.387 . S
C2014 H2018 0.950 . S
C2014 C2023 1.390 . S
C2015 C2014 1.387 . S
C2015 C2017 1.387 . S
H2016 C2023 0.950 . S
C2017 C2015 1.387 . S
C2017 C2019 1.390 . S
C2017 H2021 0.950 . S
H2018 C2014 0.950 . S
C2019 C2017 1.390 . S
C2019 C2020 1.387 . S
C2019 H2022 0.950 . S
C2020 C2019 1.387 . S
C2020 C2023 1.387 . S
H2021 C2017 0.950 . S
H2022 C2019 0.950 . S
C2023 C2014 1.390 . S
C2023 H2016 0.950 . S
C2023 C2020 1.387 . S
C2024 C2025 1.387 . S
C2024 H2028 0.950 1_565 S
C2024 C2033 1.390 . S
C2025 C2024 1.387 . S
C2025 C2027 1.387 . S
H2026 C2033 0.950 . S
C2027 C2025 1.387 . S
C2027 C2029 1.390 . S
C2027 H2031 0.950 . S
H2028 C2024 0.950 1_545 S
C2029 C2027 1.390 . S
C2029 C2030 1.387 . S
C2029 H2032 0.950 . S
C2030 C2029 1.387 . S
C2030 C2033 1.387 . S
H2031 C2027 0.950 . S
H2032 C2029 0.950 . S
C2033 C2024 1.390 . S
C2033 H2026 0.950 . S
C2033 C2030 1.387 . S
C2034 C2035 1.387 . S
C2034 H2038 0.950 . S
C2034 C2043 1.390 . S
C2035 C2034 1.387 . S
C2035 C2037 1.387 . S
H2036 C2043 0.950 . S
C2037 C2035 1.387 . S
C2037 C2039 1.390 . S
C2037 H2041 0.950 . S
H2038 C2034 0.950 . S
C2039 C2037 1.390 . S
C2039 C2040 1.387 . S
C2039 H2042 0.950 . S
C2040 C2039 1.387 . S
C2040 C2043 1.387 . S
H2041 C2037 0.950 . S
H2042 C2039 0.950 . S
C2043 C2034 1.390 . S
C2043 H2036 0.950 . S
C2043 C2040 1.387 . S
C2044 C2045 1.387 . S
C2044 H2048 0.950 . S
C2044 C2053 1.390 . S
C2045 C2044 1.387 . S
C2045 C2047 1.387 . S
H2046 C2053 0.950 1_545 S
C2047 C2045 1.387 . S
C2047 C2049 1.390 . S
C2047 H2051 0.950 . S
H2048 C2044 0.950 . S
C2049 C2047 1.390 . S
C2049 C2050 1.387 . S
C2049 H2052 0.950 . S
C2050 C2049 1.387 . S
C2050 C2053 1.387 . S
H2051 C2047 0.950 . S
H2052 C2049 0.950 . S
C2053 C2044 1.390 . S
C2053 H2046 0.950 1_565 S
C2053 C2050 1.387 . S
C2054 C2055 1.387 . S
C2054 H2058 0.950 . S
C2054 C2063 1.390 . S
C2055 C2054 1.387 . S
C2055 C2057 1.387 . S
H2056 C2063 0.950 . S
C2057 C2055 1.387 . S
C2057 C2059 1.390 . S
C2057 H2061 0.950 . S
H2058 C2054 0.950 . S
C2059 C2057 1.390 . S
C2059 C2060 1.387 . S
C2059 H2062 0.950 . S
C2060 C2059 1.387 . S
C2060 C2063 1.387 . S
H2061 C2057 0.950 . S
H2062 C2059 0.950 . S
C2063 C2054 1.390 . S
C2063 H2056 0.950 . S
C2063 C2060 1.387 . S
C2064 C2065 1.387 . S
C2064 H2068 0.950 . S
C2064 C2073 1.390 1_455 S
C2065 C2064 1.387 . S
C2065 C2067 1.387 . S
H2066 C2073 0.950 . S
C2067 C2065 1.387 . S
C2067 C2069 1.390 1_455 S
C2067 H2071 0.950 . S
H2068 C2064 0.950 . S
C2069 C2067 1.390 1_655 S
C2069 C2070 1.387 . S
C2069 H2072 0.950 . S
C2070 C2069 1.387 . S
C2070 C2073 1.387 . S
H2071 C2067 0.950 . S
H2072 C2069 0.950 . S
C2073 C2064 1.390 1_655 S
C2073 H2066 0.950 . S
C2073 C2070 1.387 . S
C2074 C2075 1.387 . S
C2074 H2078 0.950 . S
C2074 C2083 1.390 . S
C2075 C2074 1.387 . S
C2075 C2077 1.387 . S
H2076 C2083 0.950 . S
C2077 C2075 1.387 . S
C2077 C2079 1.390 . S
C2077 H2081 0.950 1_554 S
H2078 C2074 0.950 . S
C2079 C2077 1.390 . S
C2079 C2080 1.387 . S
C2079 H2082 0.950 1_554 S
C2080 C2079 1.387 . S
C2080 C2083 1.387 . S
H2081 C2077 0.950 1_556 S
H2082 C2079 0.950 1_556 S
C2083 C2074 1.390 . S
C2083 H2076 0.950 . S
C2083 C2080 1.387 . S
C2084 C2085 1.387 . S
C2084 H2088 0.950 . S
C2084 C2093 1.390 1_655 S
C2085 C2084 1.387 . S
C2085 C2087 1.387 . S
H2086 C2093 0.950 . S
C2087 C2085 1.387 . S
C2087 C2089 1.390 1_655 S
C2087 H2091 0.950 . S
H2088 C2084 0.950 . S
C2089 C2087 1.390 1_455 S
C2089 C2090 1.387 . S
C2089 H2092 0.950 . S
C2090 C2089 1.387 . S
C2090 C2093 1.387 . S
H2091 C2087 0.950 . S
H2092 C2089 0.950 . S
C2093 C2084 1.390 1_455 S
C2093 H2086 0.950 . S
C2093 C2090 1.387 . S
C2094 C2095 1.387 . S
C2094 H2098 0.950 . S
C2094 C2103 1.390 1_655 S
C2095 C2094 1.387 . S
C2095 C2097 1.387 . S
H2096 C2103 0.950 . S
C2097 C2095 1.387 . S
C2097 C2099 1.390 1_655 S
C2097 H2101 0.950 1_556 S
H2098 C2094 0.950 . S
C2099 C2097 1.390 1_455 S
C2099 C2100 1.387 . S
C2099 H2102 0.950 1_556 S
C2100 C2099 1.387 . S
C2100 C2103 1.387 . S
H2101 C2097 0.950 1_554 S
H2102 C2099 0.950 1_554 S
C2103 C2094 1.390 1_455 S
C2103 H2096 0.950 . S
C2103 C2100 1.387 . S
C2104 C2105 1.387 . S
C2104 H2108 0.950 . S
C2104 C2113 1.390 1_565 S
C2105 C2104 1.387 . S
C2105 C2107 1.387 . S
H2106 C2113 0.950 . S
C2107 C2105 1.387 . S
C2107 C2109 1.390 1_565 S
C2107 H2111 0.950 . S
H2108 C2104 0.950 . S
C2109 C2107 1.390 1_545 S
C2109 C2110 1.387 . S
C2109 H2112 0.950 . S
C2110 C2109 1.387 . S
C2110 C2113 1.387 . S
H2111 C2107 0.950 . S
H2112 C2109 0.950 . S
C2113 C2104 1.390 1_545 S
C2113 H2106 0.950 . S
C2113 C2110 1.387 . S
C2114 C2115 1.387 . S
C2114 H2118 0.950 . S
C2114 C2123 1.390 1_556 S
C2115 C2114 1.387 . S
C2115 C2117 1.387 . S
H2116 C2123 0.950 . S
C2117 C2115 1.387 . S
C2117 C2119 1.390 1_556 S
C2117 H2121 0.950 . S
H2118 C2114 0.950 . S
C2119 C2117 1.390 1_554 S
C2119 C2120 1.387 . S
C2119 H2122 0.950 . S
C2120 C2119 1.387 . S
C2120 C2123 1.387 . S
H2121 C2117 0.950 . S
H2122 C2119 0.950 . S
C2123 C2114 1.390 1_554 S
C2123 H2116 0.950 . S
C2123 C2120 1.387 . S
C2124 C2125 1.387 . S
C2124 H2128 0.950 . S
C2124 C2133 1.390 . S
C2125 C2124 1.387 . S
C2125 C2127 1.387 . S
H2126 C2133 0.950 . S
C2127 C2125 1.387 . S
C2127 C2129 1.390 . S
C2127 H2131 0.950 . S
H2128 C2124 0.950 . S
C2129 C2127 1.390 . S
C2129 C2130 1.387 . S
C2129 H2132 0.950 . S
C2130 C2129 1.387 . S
C2130 C2133 1.387 . S
H2131 C2127 0.950 . S
H2132 C2129 0.950 . S
C2133 C2124 1.390 . S
C2133 H2126 0.950 . S
C2133 C2130 1.387 . S
C2134 C2135 1.387 . S
C2134 H2138 0.950 . S
C2134 C2143 1.390 1_554 S
C2135 C2134 1.387 . S
C2135 C2137 1.387 . S
H2136 C2143 0.950 . S
C2137 C2135 1.387 . S
C2137 C2139 1.390 1_554 S
C2137 H2141 0.950 1_565 S
H2138 C2134 0.950 . S
C2139 C2137 1.390 1_556 S
C2139 C2140 1.387 . S
C2139 H2142 0.950 1_565 S
C2140 C2139 1.387 . S
C2140 C2143 1.387 . S
H2141 C2137 0.950 1_545 S
H2142 C2139 0.950 1_545 S
C2143 C2134 1.390 1_556 S
C2143 H2136 0.950 . S
C2143 C2140 1.387 . S
C2144 C2145 1.387 . S
C2144 H2148 0.950 . S
C2144 C2153 1.390 1_556 S
C2145 C2144 1.387 . S
C2145 C2147 1.387 . S
H2146 C2153 0.950 . S
C2147 C2145 1.387 . S
C2147 C2149 1.390 1_556 S
C2147 H2151 0.950 . S
H2148 C2144 0.950 . S
C2149 C2147 1.390 1_554 S
C2149 C2150 1.387 . S
C2149 H2152 0.950 . S
C2150 C2149 1.387 . S
C2150 C2153 1.387 . S
H2151 C2147 0.950 . S
H2152 C2149 0.950 . S
C2153 C2144 1.390 1_554 S
C2153 H2146 0.950 . S
C2153 C2150 1.387 . S
C2154 C2155 1.387 . S
C2154 H2158 0.950 . S
C2154 C2163 1.390 . S
C2155 C2154 1.387 . S
C2155 C2157 1.387 . S
H2156 C2163 0.950 . S
C2157 C2155 1.387 . S
C2157 C2159 1.390 . S
C2157 H2161 0.950 . S
H2158 C2154 0.950 . S
C2159 C2157 1.390 . S
C2159 C2160 1.387 . S
C2159 H2162 0.950 . S
C2160 C2159 1.387 . S
C2160 C2163 1.387 . S
H2161 C2157 0.950 . S
H2162 C2159 0.950 . S
C2163 C2154 1.390 . S
C2163 H2156 0.950 . S
C2163 C2160 1.387 . S
C2164 C2165 1.387 . S
C2164 H2168 0.950 1_455 S
C2164 C2173 1.390 . S
C2165 C2164 1.387 . S
C2165 C2167 1.387 . S
H2166 C2173 0.950 1_655 S
C2167 C2165 1.387 . S
C2167 C2169 1.390 . S
C2167 H2171 0.950 . S
H2168 C2164 0.950 1_655 S
C2169 C2167 1.390 . S
C2169 C2170 1.387 . S
C2169 H2172 0.950 . S
C2170 C2169 1.387 . S
C2170 C2173 1.387 . S
H2171 C2167 0.950 . S
H2172 C2169 0.950 . S
C2173 C2164 1.390 . S
C2173 H2166 0.950 1_455 S
C2173 C2170 1.387 . S
C2174 C2175 1.387 . S
C2174 H2178 0.950 . S
C2174 C2183 1.390 . S
C2175 C2174 1.387 . S
C2175 C2177 1.387 . S
H2176 C2183 0.950 . S
C2177 C2175 1.387 . S
C2177 C2179 1.390 . S
C2177 H2181 0.950 . S
H2178 C2174 0.950 . S
C2179 C2177 1.390 . S
C2179 C2180 1.387 . S
C2179 H2182 0.950 . S
C2180 C2179 1.387 . S
C2180 C2183 1.387 . S
H2181 C2177 0.950 . S
H2182 C2179 0.950 . S
C2183 C2174 1.390 . S
C2183 H2176 0.950 . S
C2183 C2180 1.387 . S
C2184 C2185 1.387 . S
C2184 H2188 0.950 . S
C2184 C2193 1.390 . S
C2185 C2184 1.387 . S
C2185 C2187 1.387 . S
H2186 C2193 0.950 . S
C2187 C2185 1.387 . S
C2187 C2189 1.390 . S
C2187 H2191 0.950 . S
H2188 C2184 0.950 . S
C2189 C2187 1.390 . S
C2189 C2190 1.387 . S
C2189 H2192 0.950 . S
C2190 C2189 1.387 . S
C2190 C2193 1.387 . S
H2191 C2187 0.950 . S
H2192 C2189 0.950 . S
C2193 C2184 1.390 . S
C2193 H2186 0.950 . S
C2193 C2190 1.387 . S
C2194 C2195 1.387 . S
C2194 H2198 0.950 . S
C2194 C2203 1.390 1_545 S
C2195 C2194 1.387 . S
C2195 C2197 1.387 . S
H2196 C2203 0.950 . S
C2197 C2195 1.387 . S
C2197 C2199 1.390 1_545 S
C2197 H2201 0.950 1_655 S
H2198 C2194 0.950 . S
C2199 C2197 1.390 1_565 S
C2199 C2200 1.387 . S
C2199 H2202 0.950 1_655 S
C2200 C2199 1.387 . S
C2200 C2203 1.387 . S
H2201 C2197 0.950 1_455 S
H2202 C2199 0.950 1_455 S
C2203 C2194 1.390 1_565 S
C2203 H2196 0.950 . S
C2203 C2200 1.387 . S
C2204 C2205 1.387 . S
C2204 H2208 0.950 . S
C2204 C2213 1.390 . S
C2205 C2204 1.387 . S
C2205 C2207 1.387 . S
H2206 C2213 0.950 . S
C2207 C2205 1.387 . S
C2207 C2209 1.390 . S
C2207 H2211 0.950 . S
H2208 C2204 0.950 . S
C2209 C2207 1.390 . S
C2209 C2210 1.387 . S
C2209 H2212 0.950 . S
C2210 C2209 1.387 . S
C2210 C2213 1.387 . S
H2211 C2207 0.950 . S
H2212 C2209 0.950 . S
C2213 C2204 1.390 . S
C2213 H2206 0.950 . S
C2213 C2210 1.387 . S
C2214 C2215 1.387 . S
C2214 H2218 0.950 . S
C2214 C2223 1.390 1_655 S
C2215 C2214 1.387 . S
C2215 C2217 1.387 . S
H2216 C2223 0.950 . S
C2217 C2215 1.387 . S
C2217 C2219 1.390 1_655 S
C2217 H2221 0.950 . S
H2218 C2214 0.950 . S
C2219 C2217 1.390 1_455 S
C2219 C2220 1.387 . S
C2219 H2222 0.950 . S
C2220 C2219 1.387 . S
C2220 C2223 1.387 . S
H2221 C2217 0.950 . S
H2222 C2219 0.950 . S
C2223 C2214 1.390 1_455 S
C2223 H2216 0.950 . S
C2223 C2220 1.387 . S
C2224 C2225 1.387 . S
C2224 H2228 0.950 . S
C2224 C2233 1.390 . S
C2225 C2224 1.387 . S
C2225 C2227 1.387 . S
H2226 C2233 0.950 . S
C2227 C2225 1.387 . S
C2227 C2229 1.390 . S
C2227 H2231 0.950 . S
H2228 C2224 0.950 . S
C2229 C2227 1.390 . S
C2229 C2230 1.387 . S
C2229 H2232 0.950 . S
C2230 C2229 1.387 . S
C2230 C2233 1.387 . S
H2231 C2227 0.950 . S
H2232 C2229 0.950 . S
C2233 C2224 1.390 . S
C2233 H2226 0.950 . S
C2233 C2230 1.387 . S
C2234 C2235 1.387 . S
C2234 H2238 0.950 . S
C2234 C2243 1.390 . S
C2235 C2234 1.387 . S
C2235 C2237 1.387 . S
H2236 C2243 0.950 . S
C2237 C2235 1.387 . S
C2237 C2239 1.390 . S
C2237 H2241 0.950 . S
H2238 C2234 0.950 . S
C2239 C2237 1.390 . S
C2239 C2240 1.387 . S
C2239 H2242 0.950 . S
C2240 C2239 1.387 . S
C2240 C2243 1.387 . S
H2241 C2237 0.950 . S
H2242 C2239 0.950 . S
C2243 C2234 1.390 . S
C2243 H2236 0.950 . S
C2243 C2240 1.387 . S
C2244 C2245 1.387 . S
C2244 H2248 0.950 . S
C2244 C2253 1.390 . S
C2245 C2244 1.387 . S
C2245 C2247 1.387 . S
H2246 C2253 0.950 . S
C2247 C2245 1.387 . S
C2247 C2249 1.390 . S
C2247 H2251 0.950 . S
H2248 C2244 0.950 . S
C2249 C2247 1.390 . S
C2249 C2250 1.387 . S
C2249 H2252 0.950 . S
C2250 C2249 1.387 . S
C2250 C2253 1.387 . S
H2251 C2247 0.950 . S
H2252 C2249 0.950 . S
C2253 C2244 1.390 . S
C2253 H2246 0.950 . S
C2253 C2250 1.387 . S
C2254 C2255 1.387 . S
C2254 H2258 0.950 1_545 S
C2254 C2263 1.390 . S
C2255 C2254 1.387 . S
C2255 C2257 1.387 . S
H2256 C2263 0.950 1_565 S
C2257 C2255 1.387 . S
C2257 C2259 1.390 . S
C2257 H2261 0.950 . S
H2258 C2254 0.950 1_565 S
C2259 C2257 1.390 . S
C2259 C2260 1.387 . S
C2259 H2262 0.950 . S
C2260 C2259 1.387 . S
C2260 C2263 1.387 . S
H2261 C2257 0.950 . S
H2262 C2259 0.950 . S
C2263 C2254 1.390 . S
C2263 H2256 0.950 1_545 S
C2263 C2260 1.387 . S
C2264 C2265 1.387 . S
C2264 H2268 0.950 . S
C2264 C2273 1.390 1_565 S
C2265 C2264 1.387 . S
C2265 C2267 1.387 . S
H2266 C2273 0.950 . S
C2267 C2265 1.387 . S
C2267 C2269 1.390 1_565 S
C2267 H2271 0.950 . S
H2268 C2264 0.950 . S
C2269 C2267 1.390 1_545 S
C2269 C2270 1.387 . S
C2269 H2272 0.950 . S
C2270 C2269 1.387 . S
C2270 C2273 1.387 . S
H2271 C2267 0.950 . S
H2272 C2269 0.950 . S
C2273 C2264 1.390 1_545 S
C2273 H2266 0.950 . S
C2273 C2270 1.387 . S
C2274 C2275 1.387 . S
C2274 H2278 0.950 . S
C2274 C2283 1.390 . S
C2275 C2274 1.387 . S
C2275 C2277 1.387 . S
H2276 C2283 0.950 . S
C2277 C2275 1.387 . S
C2277 C2279 1.390 . S
C2277 H2281 0.950 . S
H2278 C2274 0.950 . S
C2279 C2277 1.390 . S
C2279 C2280 1.387 . S
C2279 H2282 0.950 . S
C2280 C2279 1.387 . S
C2280 C2283 1.387 . S
H2281 C2277 0.950 . S
H2282 C2279 0.950 . S
C2283 C2274 1.390 . S
C2283 H2276 0.950 . S
C2283 C2280 1.387 . S
C2284 C2285 1.387 . S
C2284 H2288 0.950 . S
C2284 C2293 1.390 1_554 S
C2285 C2284 1.387 . S
C2285 C2287 1.387 . S
H2286 C2293 0.950 . S
C2287 C2285 1.387 . S
C2287 C2289 1.390 1_554 S
C2287 H2291 0.950 . S
H2288 C2284 0.950 . S
C2289 C2287 1.390 1_556 S
C2289 C2290 1.387 . S
C2289 H2292 0.950 . S
C2290 C2289 1.387 . S
C2290 C2293 1.387 . S
H2291 C2287 0.950 . S
H2292 C2289 0.950 . S
C2293 C2284 1.390 1_556 S
C2293 H2286 0.950 . S
C2293 C2290 1.387 . S
C2294 C2295 1.387 . S
C2294 H2298 0.950 . S
C2294 C2303 1.390 1_565 S
C2295 C2294 1.387 . S
C2295 C2297 1.387 . S
H2296 C2303 0.950 . S
C2297 C2295 1.387 . S
C2297 C2299 1.390 1_565 S
C2297 H2301 0.950 . S
H2298 C2294 0.950 . S
C2299 C2297 1.390 1_545 S
C2299 C2300 1.387 . S
C2299 H2302 0.950 . S
C2300 C2299 1.387 . S
C2300 C2303 1.387 . S
H2301 C2297 0.950 . S
H2302 C2299 0.950 . S
C2303 C2294 1.390 1_545 S
C2303 H2296 0.950 . S
C2303 C2300 1.387 . S
C2304 C2305 1.387 . S
C2304 H2308 0.950 . S
C2304 C2313 1.390 . S
C2305 C2304 1.387 . S
C2305 C2307 1.387 . S
H2306 C2313 0.950 . S
C2307 C2305 1.387 . S
C2307 C2309 1.390 . S
C2307 H2311 0.950 . S
H2308 C2304 0.950 . S
C2309 C2307 1.390 . S
C2309 C2310 1.387 . S
C2309 H2312 0.950 . S
C2310 C2309 1.387 . S
C2310 C2313 1.387 . S
H2311 C2307 0.950 . S
H2312 C2309 0.950 . S
C2313 C2304 1.390 . S
C2313 H2306 0.950 . S
C2313 C2310 1.387 . S
C2314 C2315 1.387 . S
C2314 H2318 0.950 . S
C2314 C2323 1.390 . S
C2315 C2314 1.387 . S
C2315 C2317 1.387 . S
H2316 C2323 0.950 . S
C2317 C2315 1.387 . S
C2317 C2319 1.390 . S
C2317 H2321 0.950 . S
H2318 C2314 0.950 . S
C2319 C2317 1.390 . S
C2319 C2320 1.387 . S
C2319 H2322 0.950 . S
C2320 C2319 1.387 . S
C2320 C2323 1.387 . S
H2321 C2317 0.950 . S
H2322 C2319 0.950 . S
C2323 C2314 1.390 . S
C2323 H2316 0.950 . S
C2323 C2320 1.387 . S
C2324 C2325 1.387 . S
C2324 H2328 0.950 . S
C2324 C2333 1.390 . S
C2325 C2324 1.387 . S
C2325 C2327 1.387 . S
H2326 C2333 0.950 . S
C2327 C2325 1.387 . S
C2327 C2329 1.390 . S
C2327 H2331 0.950 . S
H2328 C2324 0.950 . S
C2329 C2327 1.390 . S
C2329 C2330 1.387 . S
C2329 H2332 0.950 . S
C2330 C2329 1.387 . S
C2330 C2333 1.387 . S
H2331 C2327 0.950 . S
H2332 C2329 0.950 . S
C2333 C2324 1.390 . S
C2333 H2326 0.950 . S
C2333 C2330 1.387 . S
C2334 C2335 1.387 . S
C2334 H2338 0.950 . S
C2334 C2343 1.390 . S
C2335 C2334 1.387 . S
C2335 C2337 1.387 . S
H2336 C2343 0.950 . S
C2337 C2335 1.387 . S
C2337 C2339 1.390 . S
C2337 H2341 0.950 . S
H2338 C2334 0.950 . S
C2339 C2337 1.390 . S
C2339 C2340 1.387 . S
C2339 H2342 0.950 . S
C2340 C2339 1.387 . S
C2340 C2343 1.387 . S
H2341 C2337 0.950 . S
H2342 C2339 0.950 . S
C2343 C2334 1.390 . S
C2343 H2336 0.950 . S
C2343 C2340 1.387 . S
C2344 C2345 1.387 . S
C2344 H2348 0.950 . S
C2344 C2353 1.390 . S
C2345 C2344 1.387 . S
C2345 C2347 1.387 . S
H2346 C2353 0.950 . S
C2347 C2345 1.387 . S
C2347 C2349 1.390 . S
C2347 H2351 0.950 . S
H2348 C2344 0.950 . S
C2349 C2347 1.390 . S
C2349 C2350 1.387 . S
C2349 H2352 0.950 . S
C2350 C2349 1.387 . S
C2350 C2353 1.387 . S
H2351 C2347 0.950 . S
H2352 C2349 0.950 . S
C2353 C2344 1.390 . S
C2353 H2346 0.950 . S
C2353 C2350 1.387 . S
C2354 C2355 1.387 . S
C2354 H2358 0.950 . S
C2354 C2363 1.390 . S
C2355 C2354 1.387 . S
C2355 C2357 1.387 . S
H2356 C2363 0.950 . S
C2357 C2355 1.387 . S
C2357 C2359 1.390 . S
C2357 H2361 0.950 . S
H2358 C2354 0.950 . S
C2359 C2357 1.390 . S
C2359 C2360 1.387 . S
C2359 H2362 0.950 . S
C2360 C2359 1.387 . S
C2360 C2363 1.387 . S
H2361 C2357 0.950 . S
H2362 C2359 0.950 . S
C2363 C2354 1.390 . S
C2363 H2356 0.950 . S
C2363 C2360 1.387 . S
C2364 C2365 1.387 . S
C2364 H2368 0.950 . S
C2364 C2373 1.390 . S
C2365 C2364 1.387 . S
C2365 C2367 1.387 . S
H2366 C2373 0.950 . S
C2367 C2365 1.387 . S
C2367 C2369 1.390 . S
C2367 H2371 0.950 . S
H2368 C2364 0.950 . S
C2369 C2367 1.390 . S
C2369 C2370 1.387 . S
C2369 H2372 0.950 . S
C2370 C2369 1.387 . S
C2370 C2373 1.387 . S
H2371 C2367 0.950 . S
H2372 C2369 0.950 . S
C2373 C2364 1.390 . S
C2373 H2366 0.950 . S
C2373 C2370 1.387 . S
C2374 C2375 1.387 . S
C2374 H2378 0.950 . S
C2374 C2383 1.390 . S
C2375 C2374 1.387 . S
C2375 C2377 1.387 . S
H2376 C2383 0.950 . S
C2377 C2375 1.387 . S
C2377 C2379 1.390 . S
C2377 H2381 0.950 . S
H2378 C2374 0.950 . S
C2379 C2377 1.390 . S
C2379 C2380 1.387 . S
C2379 H2382 0.950 . S
C2380 C2379 1.387 . S
C2380 C2383 1.387 . S
H2381 C2377 0.950 . S
H2382 C2379 0.950 . S
C2383 C2374 1.390 . S
C2383 H2376 0.950 . S
C2383 C2380 1.387 . S
C2384 C2385 1.387 . S
C2384 H2388 0.950 . S
C2384 C2393 1.390 . S
C2385 C2384 1.387 . S
C2385 C2387 1.387 . S
H2386 C2393 0.950 . S
C2387 C2385 1.387 . S
C2387 C2389 1.390 . S
C2387 H2391 0.950 . S
H2388 C2384 0.950 . S
C2389 C2387 1.390 . S
C2389 C2390 1.387 . S
C2389 H2392 0.950 . S
C2390 C2389 1.387 . S
C2390 C2393 1.387 . S
H2391 C2387 0.950 . S
H2392 C2389 0.950 . S
C2393 C2384 1.390 . S
C2393 H2386 0.950 . S
C2393 C2390 1.387 . S
C2394 C2395 1.387 . S
C2394 H2398 0.950 . S
C2394 C2403 1.390 . S
C2395 C2394 1.387 . S
C2395 C2397 1.387 . S
H2396 C2403 0.950 . S
C2397 C2395 1.387 . S
C2397 C2399 1.390 . S
C2397 H2401 0.950 . S
H2398 C2394 0.950 . S
C2399 C2397 1.390 . S
C2399 C2400 1.387 . S
C2399 H2402 0.950 . S
C2400 C2399 1.387 . S
C2400 C2403 1.387 . S
H2401 C2397 0.950 . S
H2402 C2399 0.950 . S
C2403 C2394 1.390 . S
C2403 H2396 0.950 . S
C2403 C2400 1.387 . S
C2404 C2405 1.387 . S
C2404 H2408 0.950 . S
C2404 C2413 1.390 . S
C2405 C2404 1.387 . S
C2405 C2407 1.387 . S
H2406 C2413 0.950 . S
C2407 C2405 1.387 . S
C2407 C2409 1.390 . S
C2407 H2411 0.950 . S
H2408 C2404 0.950 . S
C2409 C2407 1.390 . S
C2409 C2410 1.387 . S
C2409 H2412 0.950 . S
C2410 C2409 1.387 . S
C2410 C2413 1.387 . S
H2411 C2407 0.950 . S
H2412 C2409 0.950 . S
C2413 C2404 1.390 . S
C2413 H2406 0.950 . S
C2413 C2410 1.387 . S
C2414 C2415 1.387 . S
C2414 H2418 0.950 . S
C2414 C2423 1.390 . S
C2415 C2414 1.387 . S
C2415 C2417 1.387 . S
H2416 C2423 0.950 . S
C2417 C2415 1.387 . S
C2417 C2419 1.390 . S
C2417 H2421 0.950 . S
H2418 C2414 0.950 . S
C2419 C2417 1.390 . S
C2419 C2420 1.387 . S
C2419 H2422 0.950 . S
C2420 C2419 1.387 . S
C2420 C2423 1.387 . S
H2421 C2417 0.950 . S
H2422 C2419 0.950 . S
C2423 C2414 1.390 . S
C2423 H2416 0.950 . S
C2423 C2420 1.387 . S
C2424 C2425 1.387 . S
C2424 H2428 0.950 . S
C2424 C2433 1.390 . S
C2425 C2424 1.387 . S
C2425 C2427 1.387 . S
H2426 C2433 0.950 . S
C2427 C2425 1.387 . S
C2427 C2429 1.390 . S
C2427 H2431 0.950 . S
H2428 C2424 0.950 . S
C2429 C2427 1.390 . S
C2429 C2430 1.387 . S
C2429 H2432 0.950 . S
C2430 C2429 1.387 . S
C2430 C2433 1.387 . S
H2431 C2427 0.950 . S
H2432 C2429 0.950 . S
C2433 C2424 1.390 . S
C2433 H2426 0.950 . S
C2433 C2430 1.387 . S
C2434 C2435 1.387 . S
C2434 H2438 0.950 . S
C2434 C2443 1.390 . S
C2435 C2434 1.387 . S
C2435 C2437 1.387 . S
H2436 C2443 0.950 . S
C2437 C2435 1.387 . S
C2437 C2439 1.390 . S
C2437 H2441 0.950 . S
H2438 C2434 0.950 . S
C2439 C2437 1.390 . S
C2439 C2440 1.387 . S
C2439 H2442 0.950 . S
C2440 C2439 1.387 . S
C2440 C2443 1.387 . S
H2441 C2437 0.950 . S
H2442 C2439 0.950 . S
C2443 C2434 1.390 . S
C2443 H2436 0.950 . S
C2443 C2440 1.387 . S
C2444 C2445 1.387 . S
C2444 H2448 0.950 . S
C2444 C2453 1.390 . S
C2445 C2444 1.387 . S
C2445 C2447 1.387 . S
H2446 C2453 0.950 . S
C2447 C2445 1.387 . S
C2447 C2449 1.390 . S
C2447 H2451 0.950 . S
H2448 C2444 0.950 . S
C2449 C2447 1.390 . S
C2449 C2450 1.387 . S
C2449 H2452 0.950 . S
C2450 C2449 1.387 . S
C2450 C2453 1.387 . S
H2451 C2447 0.950 . S
H2452 C2449 0.950 . S
C2453 C2444 1.390 . S
C2453 H2446 0.950 . S
C2453 C2450 1.387 . S
C2454 C2455 1.387 . S
C2454 H2458 0.950 . S
C2454 C2463 1.390 . S
C2455 C2454 1.387 . S
C2455 C2457 1.387 . S
H2456 C2463 0.950 . S
C2457 C2455 1.387 . S
C2457 C2459 1.390 . S
C2457 H2461 0.950 . S
H2458 C2454 0.950 . S
C2459 C2457 1.390 . S
C2459 C2460 1.387 . S
C2459 H2462 0.950 . S
C2460 C2459 1.387 . S
C2460 C2463 1.387 . S
H2461 C2457 0.950 . S
H2462 C2459 0.950 . S
C2463 C2454 1.390 . S
C2463 H2456 0.950 . S
C2463 C2460 1.387 . S
C2464 C2465 1.387 . S
C2464 H2468 0.950 . S
C2464 C2473 1.390 . S
C2465 C2464 1.387 . S
C2465 C2467 1.387 . S
H2466 C2473 0.950 . S
C2467 C2465 1.387 . S
C2467 C2469 1.390 . S
C2467 H2471 0.950 . S
H2468 C2464 0.950 . S
C2469 C2467 1.390 . S
C2469 C2470 1.387 . S
C2469 H2472 0.950 . S
C2470 C2469 1.387 . S
C2470 C2473 1.387 . S
H2471 C2467 0.950 . S
H2472 C2469 0.950 . S
C2473 C2464 1.390 . S
C2473 H2466 0.950 . S
C2473 C2470 1.387 . S
C2474 C2475 1.387 . S
C2474 H2478 0.950 . S
C2474 C2483 1.390 . S
C2475 C2474 1.387 . S
C2475 C2477 1.387 . S
H2476 C2483 0.950 . S
C2477 C2475 1.387 . S
C2477 C2479 1.390 . S
C2477 H2481 0.950 . S
H2478 C2474 0.950 . S
C2479 C2477 1.390 . S
C2479 C2480 1.387 . S
C2479 H2482 0.950 . S
C2480 C2479 1.387 . S
C2480 C2483 1.387 . S
H2481 C2477 0.950 . S
H2482 C2479 0.950 . S
C2483 C2474 1.390 . S
C2483 H2476 0.950 . S
C2483 C2480 1.387 . S
C2484 C2485 1.387 . S
C2484 H2488 0.950 . S
C2484 C2493 1.390 . S
C2485 C2484 1.387 . S
C2485 C2487 1.387 . S
H2486 C2493 0.950 . S
C2487 C2485 1.387 . S
C2487 C2489 1.390 . S
C2487 H2491 0.950 . S
H2488 C2484 0.950 . S
C2489 C2487 1.390 . S
C2489 C2490 1.387 . S
C2489 H2492 0.950 . S
C2490 C2489 1.387 . S
C2490 C2493 1.387 . S
H2491 C2487 0.950 . S
H2492 C2489 0.950 . S
C2493 C2484 1.390 . S
C2493 H2486 0.950 . S
C2493 C2490 1.387 . S
C2494 C2495 1.387 . S
C2494 H2498 0.950 . S
C2494 C2503 1.390 . S
C2495 C2494 1.387 . S
C2495 C2497 1.387 . S
H2496 C2503 0.950 . S
C2497 C2495 1.387 . S
C2497 C2499 1.390 . S
C2497 H2501 0.950 . S
H2498 C2494 0.950 . S
C2499 C2497 1.390 . S
C2499 C2500 1.387 . S
C2499 H2502 0.950 . S
C2500 C2499 1.387 . S
C2500 C2503 1.387 . S
H2501 C2497 0.950 . S
H2502 C2499 0.950 . S
C2503 C2494 1.390 . S
C2503 H2496 0.950 . S
C2503 C2500 1.387 . S
C2504 C2505 1.387 . S
C2504 H2508 0.950 . S
C2504 C2513 1.390 . S
C2505 C2504 1.387 . S
C2505 C2507 1.387 . S
H2506 C2513 0.950 . S
C2507 C2505 1.387 . S
C2507 C2509 1.390 . S
C2507 H2511 0.950 . S
H2508 C2504 0.950 . S
C2509 C2507 1.390 . S
C2509 C2510 1.387 . S
C2509 H2512 0.950 . S
C2510 C2509 1.387 . S
C2510 C2513 1.387 . S
H2511 C2507 0.950 . S
H2512 C2509 0.950 . S
C2513 C2504 1.390 . S
C2513 H2506 0.950 . S
C2513 C2510 1.387 . S
C2514 C2515 1.387 . S
C2514 H2518 0.950 . S
C2514 C2523 1.390 . S
C2515 C2514 1.387 . S
C2515 C2517 1.387 . S
H2516 C2523 0.950 . S
C2517 C2515 1.387 . S
C2517 C2519 1.390 . S
C2517 H2521 0.950 . S
H2518 C2514 0.950 . S
C2519 C2517 1.390 . S
C2519 C2520 1.387 . S
C2519 H2522 0.950 . S
C2520 C2519 1.387 . S
C2520 C2523 1.387 . S
H2521 C2517 0.950 . S
H2522 C2519 0.950 . S
C2523 C2514 1.390 . S
C2523 H2516 0.950 . S
C2523 C2520 1.387 . S
C2524 C2525 1.387 . S
C2524 H2528 0.950 . S
C2524 C2533 1.390 . S
C2525 C2524 1.387 . S
C2525 C2527 1.387 . S
H2526 C2533 0.950 . S
C2527 C2525 1.387 . S
C2527 C2529 1.390 . S
C2527 H2531 0.950 . S
H2528 C2524 0.950 . S
C2529 C2527 1.390 . S
C2529 C2530 1.387 . S
C2529 H2532 0.950 . S
C2530 C2529 1.387 . S
C2530 C2533 1.387 . S
H2531 C2527 0.950 . S
H2532 C2529 0.950 . S
C2533 C2524 1.390 . S
C2533 H2526 0.950 . S
C2533 C2530 1.387 . S
C2534 C2535 1.387 . S
C2534 H2538 0.950 . S
C2534 C2543 1.390 . S
C2535 C2534 1.387 . S
C2535 C2537 1.387 . S
H2536 C2543 0.950 . S
C2537 C2535 1.387 . S
C2537 C2539 1.390 . S
C2537 H2541 0.950 . S
H2538 C2534 0.950 . S
C2539 C2537 1.390 . S
C2539 C2540 1.387 . S
C2539 H2542 0.950 . S
C2540 C2539 1.387 . S
C2540 C2543 1.387 . S
H2541 C2537 0.950 . S
H2542 C2539 0.950 . S
C2543 C2534 1.390 . S
C2543 H2536 0.950 . S
C2543 C2540 1.387 . S
C2544 C2545 1.387 . S
C2544 H2548 0.950 . S
C2544 C2553 1.390 . S
C2545 C2544 1.387 . S
C2545 C2547 1.387 . S
H2546 C2553 0.950 . S
C2547 C2545 1.387 . S
C2547 C2549 1.390 . S
C2547 H2551 0.950 . S
H2548 C2544 0.950 . S
C2549 C2547 1.390 . S
C2549 C2550 1.387 . S
C2549 H2552 0.950 . S
C2550 C2549 1.387 . S
C2550 C2553 1.387 . S
H2551 C2547 0.950 . S
H2552 C2549 0.950 . S
C2553 C2544 1.390 . S
C2553 H2546 0.950 . S
C2553 C2550 1.387 . S
C2554 C2555 1.387 . S
C2554 H2558 0.950 . S
C2554 C2563 1.390 . S
C2555 C2554 1.387 . S
C2555 C2557 1.387 . S
H2556 C2563 0.950 . S
C2557 C2555 1.387 . S
C2557 C2559 1.390 . S
C2557 H2561 0.950 . S
H2558 C2554 0.950 . S
C2559 C2557 1.390 . S
C2559 C2560 1.387 . S
C2559 H2562 0.950 . S
C2560 C2559 1.387 . S
C2560 C2563 1.387 . S
H2561 C2557 0.950 . S
H2562 C2559 0.950 . S
C2563 C2554 1.390 . S
C2563 H2556 0.950 . S
C2563 C2560 1.387 . S
C2564 C2565 1.387 . S
C2564 H2568 0.950 . S
C2564 C2573 1.390 . S
C2565 C2564 1.387 . S
C2565 C2567 1.387 . S
H2566 C2573 0.950 . S
C2567 C2565 1.387 . S
C2567 C2569 1.390 . S
C2567 H2571 0.950 . S
H2568 C2564 0.950 . S
C2569 C2567 1.390 . S
C2569 C2570 1.387 . S
C2569 H2572 0.950 . S
C2570 C2569 1.387 . S
C2570 C2573 1.387 . S
H2571 C2567 0.950 . S
H2572 C2569 0.950 . S
C2573 C2564 1.390 . S
C2573 H2566 0.950 . S
C2573 C2570 1.387 . S
C2574 C2575 1.387 . S
C2574 H2578 0.950 . S
C2574 C2583 1.390 . S
C2575 C2574 1.387 . S
C2575 C2577 1.387 . S
H2576 C2583 0.950 . S
C2577 C2575 1.387 . S
C2577 C2579 1.390 . S
C2577 H2581 0.950 . S
H2578 C2574 0.950 . S
C2579 C2577 1.390 . S
C2579 C2580 1.387 . S
C2579 H2582 0.950 . S
C2580 C2579 1.387 . S
C2580 C2583 1.387 . S
H2581 C2577 0.950 . S
H2582 C2579 0.950 . S
C2583 C2574 1.390 . S
C2583 H2576 0.950 . S
C2583 C2580 1.387 . S
C2584 C2585 1.387 . S
C2584 H2588 0.950 . S
C2584 C2593 1.390 . S
C2585 C2584 1.387 . S
C2585 C2587 1.387 . S
H2586 C2593 0.950 . S
C2587 C2585 1.387 . S
C2587 C2589 1.390 . S
C2587 H2591 0.950 . S
H2588 C2584 0.950 . S
C2589 C2587 1.390 . S
C2589 C2590 1.387 . S
C2589 H2592 0.950 . S
C2590 C2589 1.387 . S
C2590 C2593 1.387 . S
H2591 C2587 0.950 . S
H2592 C2589 0.950 . S
C2593 C2584 1.390 . S
C2593 H2586 0.950 . S
C2593 C2590 1.387 . S
C2594 C2595 1.387 . S
C2594 H2598 0.950 . S
C2594 C2603 1.390 . S
C2595 C2594 1.387 . S
C2595 C2597 1.387 . S
H2596 C2603 0.950 . S
C2597 C2595 1.387 . S
C2597 C2599 1.390 . S
C2597 H2601 0.950 . S
H2598 C2594 0.950 . S
C2599 C2597 1.390 . S
C2599 C2600 1.387 . S
C2599 H2602 0.950 . S
C2600 C2599 1.387 . S
C2600 C2603 1.387 . S
H2601 C2597 0.950 . S
H2602 C2599 0.950 . S
C2603 C2594 1.390 . S
C2603 H2596 0.950 . S
C2603 C2600 1.387 . S
C2604 C2605 1.387 . S
C2604 H2608 0.950 . S
C2604 C2613 1.390 . S
C2605 C2604 1.387 . S
C2605 C2607 1.387 . S
H2606 C2613 0.950 . S
C2607 C2605 1.387 . S
C2607 C2609 1.390 . S
C2607 H2611 0.950 . S
H2608 C2604 0.950 . S
C2609 C2607 1.390 . S
C2609 C2610 1.387 . S
C2609 H2612 0.950 . S
C2610 C2609 1.387 . S
C2610 C2613 1.387 . S
H2611 C2607 0.950 . S
H2612 C2609 0.950 . S
C2613 C2604 1.390 . S
C2613 H2606 0.950 . S
C2613 C2610 1.387 . S
C2614 C2615 1.387 . S
C2614 H2618 0.950 . S
C2614 C2623 1.390 . S
C2615 C2614 1.387 . S
C2615 C2617 1.387 . S
H2616 C2623 0.950 . S
C2617 C2615 1.387 . S
C2617 C2619 1.390 . S
C2617 H2621 0.950 . S
H2618 C2614 0.950 . S
C2619 C2617 1.390 . S
C2619 C2620 1.387 . S
C2619 H2622 0.950 . S
C2620 C2619 1.387 . S
C2620 C2623 1.387 . S
H2621 C2617 0.950 . S
H2622 C2619 0.950 . S
C2623 C2614 1.390 . S
C2623 H2616 0.950 . S
C2623 C2620 1.387 . S
C2624 C2625 1.387 . S
C2624 H2628 0.950 . S
C2624 C2633 1.390 . S
C2625 C2624 1.387 . S
C2625 C2627 1.387 . S
H2626 C2633 0.950 . S
C2627 C2625 1.387 . S
C2627 C2629 1.390 . S
C2627 H2631 0.950 . S
H2628 C2624 0.950 . S
C2629 C2627 1.390 . S
C2629 C2630 1.387 . S
C2629 H2632 0.950 . S
C2630 C2629 1.387 . S
C2630 C2633 1.387 . S
H2631 C2627 0.950 . S
H2632 C2629 0.950 . S
C2633 C2624 1.390 . S
C2633 H2626 0.950 . S
C2633 C2630 1.387 . S
C2634 C2635 1.387 . S
C2634 H2638 0.950 . S
C2634 C2643 1.390 . S
C2635 C2634 1.387 . S
C2635 C2637 1.387 . S
H2636 C2643 0.950 . S
C2637 C2635 1.387 . S
C2637 C2639 1.390 . S
C2637 H2641 0.950 . S
H2638 C2634 0.950 . S
C2639 C2637 1.390 . S
C2639 C2640 1.387 . S
C2639 H2642 0.950 . S
C2640 C2639 1.387 . S
C2640 C2643 1.387 . S
H2641 C2637 0.950 . S
H2642 C2639 0.950 . S
C2643 C2634 1.390 . S
C2643 H2636 0.950 . S
C2643 C2640 1.387 . S
C2644 C2645 1.387 . S
C2644 H2648 0.950 . S
C2644 C2653 1.390 . S
C2645 C2644 1.387 . S
C2645 C2647 1.387 . S
H2646 C2653 0.950 . S
C2647 C2645 1.387 . S
C2647 C2649 1.390 . S
C2647 H2651 0.950 . S
H2648 C2644 0.950 . S
C2649 C2647 1.390 . S
C2649 C2650 1.387 . S
C2649 H2652 0.950 . S
C2650 C2649 1.387 . S
C2650 C2653 1.387 . S
H2651 C2647 0.950 . S
H2652 C2649 0.950 . S
C2653 C2644 1.390 . S
C2653 H2646 0.950 . S
C2653 C2650 1.387 . S
C2654 C2655 1.387 . S
C2654 H2658 0.950 . S
C2654 C2663 1.390 . S
C2655 C2654 1.387 . S
C2655 C2657 1.387 . S
H2656 C2663 0.950 . S
C2657 C2655 1.387 . S
C2657 C2659 1.390 . S
C2657 H2661 0.950 . S
H2658 C2654 0.950 . S
C2659 C2657 1.390 . S
C2659 C2660 1.387 . S
C2659 H2662 0.950 . S
C2660 C2659 1.387 . S
C2660 C2663 1.387 . S
H2661 C2657 0.950 . S
H2662 C2659 0.950 . S
C2663 C2654 1.390 . S
C2663 H2656 0.950 . S
C2663 C2660 1.387 . S
C2664 C2665 1.387 . S
C2664 H2668 0.950 . S
C2664 C2673 1.390 . S
C2665 C2664 1.387 . S
C2665 C2667 1.387 . S
H2666 C2673 0.950 . S
C2667 C2665 1.387 . S
C2667 C2669 1.390 . S
C2667 H2671 0.950 . S
H2668 C2664 0.950 . S
C2669 C2667 1.390 . S
C2669 C2670 1.387 . S
C2669 H2672 0.950 . S
C2670 C2669 1.387 . S
C2670 C2673 1.387 . S
H2671 C2667 0.950 . S
H2672 C2669 0.950 . S
C2673 C2664 1.390 . S
C2673 H2666 0.950 . S
C2673 C2670 1.387 . S
C2674 C2675 1.387 . S
C2674 H2678 0.950 . S
C2674 C2683 1.390 . S
C2675 C2674 1.387 . S
C2675 C2677 1.387 . S
H2676 C2683 0.950 . S
C2677 C2675 1.387 . S
C2677 C2679 1.390 . S
C2677 H2681 0.950 . S
H2678 C2674 0.950 . S
C2679 C2677 1.390 . S
C2679 C2680 1.387 . S
C2679 H2682 0.950 . S
C2680 C2679 1.387 . S
C2680 C2683 1.387 . S
H2681 C2677 0.950 . S
H2682 C2679 0.950 . S
C2683 C2674 1.390 . S
C2683 H2676 0.950 . S
C2683 C2680 1.387 . S
C2684 C2685 1.387 . S
C2684 H2688 0.950 . S
C2684 C2693 1.390 . S
C2685 C2684 1.387 . S
C2685 C2687 1.387 . S
H2686 C2693 0.950 . S
C2687 C2685 1.387 . S
C2687 C2689 1.390 . S
C2687 H2691 0.950 . S
H2688 C2684 0.950 . S
C2689 C2687 1.390 . S
C2689 C2690 1.387 . S
C2689 H2692 0.950 . S
C2690 C2689 1.387 . S
C2690 C2693 1.387 . S
H2691 C2687 0.950 . S
H2692 C2689 0.950 . S
C2693 C2684 1.390 . S
C2693 H2686 0.950 . S
C2693 C2690 1.387 . S
C2694 C2695 1.387 . S
C2694 H2698 0.950 . S
C2694 C2703 1.390 . S
C2695 C2694 1.387 . S
C2695 C2697 1.387 . S
H2696 C2703 0.950 . S
C2697 C2695 1.387 . S
C2697 C2699 1.390 . S
C2697 H2701 0.950 . S
H2698 C2694 0.950 . S
C2699 C2697 1.390 . S
C2699 C2700 1.387 . S
C2699 H2702 0.950 . S
C2700 C2699 1.387 . S
C2700 C2703 1.387 . S
H2701 C2697 0.950 . S
H2702 C2699 0.950 . S
C2703 C2694 1.390 . S
C2703 H2696 0.950 . S
C2703 C2700 1.387 . S
C2704 C2705 1.387 . S
C2704 H2708 0.950 . S
C2704 C2713 1.390 . S
C2705 C2704 1.387 . S
C2705 C2707 1.387 . S
H2706 C2713 0.950 . S
C2707 C2705 1.387 . S
C2707 C2709 1.390 . S
C2707 H2711 0.950 . S
H2708 C2704 0.950 . S
C2709 C2707 1.390 . S
C2709 C2710 1.387 . S
C2709 H2712 0.950 . S
C2710 C2709 1.387 . S
C2710 C2713 1.387 . S
H2711 C2707 0.950 . S
H2712 C2709 0.950 . S
C2713 C2704 1.390 . S
C2713 H2706 0.950 . S
C2713 C2710 1.387 . S
C2714 C2715 1.387 . S
C2714 H2718 0.950 . S
C2714 C2723 1.390 . S
C2715 C2714 1.387 . S
C2715 C2717 1.387 . S
H2716 C2723 0.950 . S
C2717 C2715 1.387 . S
C2717 C2719 1.390 . S
C2717 H2721 0.950 . S
H2718 C2714 0.950 . S
C2719 C2717 1.390 . S
C2719 C2720 1.387 . S
C2719 H2722 0.950 . S
C2720 C2719 1.387 . S
C2720 C2723 1.387 . S
H2721 C2717 0.950 . S
H2722 C2719 0.950 . S
C2723 C2714 1.390 . S
C2723 H2716 0.950 . S
C2723 C2720 1.387 . S
C2724 C2725 1.387 . S
C2724 H2728 0.950 . S
C2724 C2733 1.390 . S
C2725 C2724 1.387 . S
C2725 C2727 1.387 . S
H2726 C2733 0.950 . S
C2727 C2725 1.387 . S
C2727 C2729 1.390 . S
C2727 H2731 0.950 . S
H2728 C2724 0.950 . S
C2729 C2727 1.390 . S
C2729 C2730 1.387 . S
C2729 H2732 0.950 . S
C2730 C2729 1.387 . S
C2730 C2733 1.387 . S
H2731 C2727 0.950 . S
H2732 C2729 0.950 . S
C2733 C2724 1.390 . S
C2733 H2726 0.950 . S
C2733 C2730 1.387 . S
C2734 C2735 1.387 . S
C2734 H2738 0.950 . S
C2734 C2743 1.390 . S
C2735 C2734 1.387 . S
C2735 C2737 1.387 . S
H2736 C2743 0.950 . S
C2737 C2735 1.387 . S
C2737 C2739 1.390 . S
C2737 H2741 0.950 . S
H2738 C2734 0.950 . S
C2739 C2737 1.390 . S
C2739 C2740 1.387 . S
C2739 H2742 0.950 . S
C2740 C2739 1.387 . S
C2740 C2743 1.387 . S
H2741 C2737 0.950 . S
H2742 C2739 0.950 . S
C2743 C2734 1.390 . S
C2743 H2736 0.950 . S
C2743 C2740 1.387 . S
C2744 C2745 1.387 . S
C2744 H2748 0.950 . S
C2744 C2753 1.390 . S
C2745 C2744 1.387 . S
C2745 C2747 1.387 . S
H2746 C2753 0.950 . S
C2747 C2745 1.387 . S
C2747 C2749 1.390 . S
C2747 H2751 0.950 . S
H2748 C2744 0.950 . S
C2749 C2747 1.390 . S
C2749 C2750 1.387 . S
C2749 H2752 0.950 . S
C2750 C2749 1.387 . S
C2750 C2753 1.387 . S
H2751 C2747 0.950 . S
H2752 C2749 0.950 . S
C2753 C2744 1.390 . S
C2753 H2746 0.950 . S
C2753 C2750 1.387 . S
C2754 C2755 1.387 . S
C2754 H2758 0.950 . S
C2754 C2763 1.390 . S
C2755 C2754 1.387 . S
C2755 C2757 1.387 . S
H2756 C2763 0.950 . S
C2757 C2755 1.387 . S
C2757 C2759 1.390 . S
C2757 H2761 0.950 . S
H2758 C2754 0.950 . S
C2759 C2757 1.390 . S
C2759 C2760 1.387 . S
C2759 H2762 0.950 . S
C2760 C2759 1.387 . S
C2760 C2763 1.387 . S
H2761 C2757 0.950 . S
H2762 C2759 0.950 . S
C2763 C2754 1.390 . S
C2763 H2756 0.950 . S
C2763 C2760 1.387 . S
C2764 C2765 1.387 . S
C2764 H2768 0.950 . S
C2764 C2773 1.390 . S
C2765 C2764 1.387 . S
C2765 C2767 1.387 . S
H2766 C2773 0.950 . S
C2767 C2765 1.387 . S
C2767 C2769 1.390 . S
C2767 H2771 0.950 . S
H2768 C2764 0.950 . S
C2769 C2767 1.390 . S
C2769 C2770 1.387 . S
C2769 H2772 0.950 . S
C2770 C2769 1.387 . S
C2770 C2773 1.387 . S
H2771 C2767 0.950 . S
H2772 C2769 0.950 . S
C2773 C2764 1.390 . S
C2773 H2766 0.950 . S
C2773 C2770 1.387 . S
C2774 C2775 1.387 . S
C2774 H2778 0.950 . S
C2774 C2783 1.390 . S
C2775 C2774 1.387 . S
C2775 C2777 1.387 . S
H2776 C2783 0.950 . S
C2777 C2775 1.387 . S
C2777 C2779 1.390 . S
C2777 H2781 0.950 . S
H2778 C2774 0.950 . S
C2779 C2777 1.390 . S
C2779 C2780 1.387 . S
C2779 H2782 0.950 . S
C2780 C2779 1.387 . S
C2780 C2783 1.387 . S
H2781 C2777 0.950 . S
H2782 C2779 0.950 . S
C2783 C2774 1.390 . S
C2783 H2776 0.950 . S
C2783 C2780 1.387 . S
C1585 C292 1.227 . S
C1590 N5 1.220 . S
C1595 C325 1.228 . S
C1600 N38 1.218 . S
C1605 N71 1.220 . S
C1610 C358 1.227 . S
C1615 N104 1.218 . S
C1620 C391 1.228 . S
C1625 N137 1.220 . S
C1630 C424 1.227 . S
C1635 C457 1.227 . S
C1640 N170 1.220 1_455 S
C1645 C490 1.228 . S
C1650 N203 1.218 . S
C1655 N236 1.218 1_655 S
C1660 C523 1.228 . S
C1665 N269 1.218 . S
C1670 C556 1.228 . S
C1675 N302 1.218 1_554 S
C1680 C1579 1.228 . S
C1685 N335 1.218 . S
C1690 C1513 1.228 . S
C1695 N368 1.218 1_554 S
C1700 C1546 1.228 . S
C1705 C589 1.227 . S
C1710 N401 1.220 . S
C1715 C622 1.227 . S
C1720 N434 1.220 1_556 S
C1725 N467 1.220 . S
C1730 C655 1.227 . S
C1735 N500 1.220 1_556 S
C1740 C1480 1.227 . S
C1745 N533 1.220 . S
C1750 C28 1.227 . S
C1755 C160 1.228 . S
C1760 N566 1.218 . S
C1765 N599 1.220 . S
C1770 C193 1.227 . S
C1775 C226 1.228 . S
C1780 N632 1.218 . S
C1785 N665 1.220 . S
C1790 C1051 1.227 . S
C1795 N698 1.220 . S
C1800 C886 1.227 . S
C1805 N731 1.218 . S
C1810 C919 1.228 . S
C1815 N764 1.218 1_545 S
C1820 C853 1.228 . S
C1825 C1084 1.228 . S
C1830 N797 1.218 . S
C1835 C1117 1.228 . S
C1840 N830 1.218 1_655 S
C1845 C1150 1.228 . S
C1850 N863 1.218 . S
C1855 N896 1.220 1_455 S
C1860 C1183 1.227 . S
C1865 C1216 1.228 . S
C1870 N929 1.218 . S
C1875 C1249 1.228 . S
C1880 N962 1.218 . S
C1885 N995 1.218 . S
C1890 C1282 1.228 . S
C1895 N1028 1.218 . S
C1900 C1315 1.228 . S
C1905 N1061 1.219 . S
C1910 C1348 1.227 . S
C1915 C787 1.228 . S
C1920 N1094 1.218 . S
C1925 C721 1.227 . S
C1930 N1127 1.220 . S
C1935 N1160 1.220 . S
C1940 C754 1.227 . S
C1945 N1193 1.220 . S
C1950 C1381 1.227 . S
C1955 N1226 1.218 . S
C1960 C1414 1.228 . S
C1965 C1447 1.228 . S
C1970 N1259 1.218 . S
C1975 N1292 1.220 . S
C1980 C688 1.227 . S
C1985 C820 1.228 . S
C1990 N1325 1.218 . S
C1995 N1358 1.218 . S
C2000 C952 1.228 . S
C2005 N1391 1.219 1_545 S
C2010 C985 1.227 . S
C2015 C1018 1.228 . S
C2020 N1424 1.218 . S
C2025 N1457 1.219 1_565 S
C2030 C259 1.228 . S
C2035 N1490 1.218 . S
C2040 C94 1.228 . S
C2045 C127 1.228 . S
C2050 N1523 1.218 1_565 S
C2055 C61 1.227 . S
C2060 N1556 1.220 . S
C2065 C17 1.690 . S
C2070 C83 1.690 . S
C2075 C50 1.690 . S
C2080 C116 1.690 . S
C2085 C215 1.692 . S
C2090 C149 1.692 . S
C2095 C182 1.690 . S
C2100 C248 1.690 . S
C2105 C413 1.690 . S
C2110 C281 1.690 . S
C2115 C314 1.690 . S
C2120 C446 1.690 . S
C2125 C479 1.690 . S
C2130 C347 1.690 . S
C2135 C512 1.690 . S
C2140 C380 1.690 . S
C2145 C1436 1.692 . S
C2150 C545 1.692 . S
C2155 C578 1.692 . S
C2160 C710 1.692 . S
C2165 C611 1.692 . S
C2170 C743 1.692 . S
C2175 C644 1.692 . S
C2180 C1337 1.692 . S
C2185 C1568 1.690 . S
C2190 C677 1.690 . S
C2195 C1469 1.690 . S
C2200 C776 1.690 . S
C2205 C875 1.690 . S
C2210 C809 1.690 . S
C2215 C908 1.692 . S
C2220 C842 1.692 . S
C2225 C1007 1.690 . S
C2230 C941 1.690 . S
C2235 C1040 1.690 . S
C2240 C974 1.690 . S
C2245 C1073 1.692 . S
C2250 C1205 1.692 . S
C2255 C1238 1.692 . S
C2260 C1106 1.692 . S
C2265 C1139 1.692 . S
C2270 C1271 1.692 . S
C2275 C1304 1.692 . S
C2280 C1172 1.692 . S
C2285 C1502 1.692 . S
C2290 C1370 1.692 . S
C2295 C1403 1.690 . S
C2300 C1535 1.690 . S
C2305 C437 1.688 . S
C2310 N14 1.609 . S
C2315 C470 1.688 . S
C2320 N47 1.606 . S
C2325 N80 1.606 . S
C2330 C503 1.688 . S
C2335 N113 1.609 . S
C2340 C404 1.688 . S
C2345 N146 1.606 . S
C2350 C1163 1.688 . S
C2355 C1064 1.688 . S
C2360 N179 1.608 . S
C2365 C1097 1.688 . S
C2370 N212 1.607 . S
C2375 N245 1.606 . S
C2380 C1130 1.688 . S
C2385 N278 1.606 . S
C2390 C833 1.688 . S
C2395 C866 1.688 . S
C2400 N311 1.608 . S
C2405 C899 1.688 . S
C2410 N344 1.609 . S
C2415 N377 1.609 . S
C2420 C800 1.688 . S
C2425 N410 1.609 . S
C2430 C239 1.688 . S
C2435 N443 1.606 . S
C2440 C140 1.688 . S
C2445 C173 1.688 . S
C2450 N476 1.609 . S
C2455 N509 1.606 . S
C2460 C206 1.688 . S
C2465 C1526 1.688 . S
C2470 N542 1.606 . S
C2475 N575 1.609 . S
C2480 C1394 1.688 . S
C2485 C1427 1.688 . S
C2490 N608 1.606 . S
C2495 N641 1.606 . S
C2500 C668 1.688 . S
C2505 C569 1.688 . S
C2510 N674 1.609 . S
C2515 N707 1.606 . S
C2520 C767 1.688 . S
C2525 N740 1.609 . S
C2530 C701 1.688 . S
C2535 C1328 1.688 . S
C2540 N773 1.609 . S
C2545 C1229 1.688 . S
C2550 N806 1.605 . S
C2555 C1262 1.688 . S
C2560 N839 1.607 . S
C2565 N872 1.606 . S
C2570 C1295 1.688 . S
C2575 N905 1.606 . S
C2580 C1196 1.688 . S
C2585 C371 1.688 . S
C2590 N938 1.606 . S
C2595 N971 1.609 . S
C2600 C272 1.688 . S
C2605 N1004 1.606 . S
C2610 C305 1.688 . S
C2615 N1037 1.609 . S
C2620 C338 1.688 . S
C2625 N1070 1.609 . S
C2630 C41 1.688 . S
C2635 N1103 1.608 . S
C2640 C74 1.688 . S
C2645 N1136 1.608 . S
C2650 C107 1.688 . S
C2655 N1169 1.605 . S
C2660 C8 1.688 . S
C2665 C1031 1.688 . S
C2670 N1202 1.606 . S
C2675 C932 1.688 . S
C2680 N1235 1.608 . S
C2685 N1268 1.608 . S
C2690 C965 1.688 . S
C2695 N1301 1.609 . S
C2700 C998 1.688 . S
C2705 C734 1.688 . S
C2710 N1334 1.609 . S
C2715 N1367 1.606 . S
C2720 C602 1.688 . S
C2725 C635 1.688 . S
C2730 N1400 1.606 . S
C2735 N1433 1.606 . S
C2740 C1460 1.688 . S
C2745 C1361 1.688 . S
C2750 N1466 1.606 . S
C2755 C1559 1.688 . S
C2760 N1499 1.606 . S
C2765 C1493 1.688 . S
C2770 N1532 1.606 . S
C2775 N1565 1.609 . S
C2780 C536 1.688 . S
