# Generated by pormake.
# Topology zft, (5)-cn, num edge types: 1
# Building blocks:
#     Node 0, Type 0, BuildingBlock: XOMCOT_clean_sbu_1, # of connection points: 5
#     Node 1, Type 0, BuildingBlock: XOMCOT_clean_sbu_1, # of connection points: 5
#     Node 2, Type 0, BuildingBlock: XOMCOT_clean_sbu_1, # of connection points: 5
#     Node 3, Type 0, BuildingBlock: XOMCOT_clean_sbu_1, # of connection points: 5
#     Node 4, Type 0, BuildingBlock: XOMCOT_clean_sbu_1, # of connection points: 5
#     Node 5, Type 0, BuildingBlock: XOMCOT_clean_sbu_1, # of connection points: 5
#     Node 6, Type 0, BuildingBlock: XOMCOT_clean_sbu_1, # of connection points: 5
#     Node 7, Type 0, BuildingBlock: XOMCOT_clean_sbu_1, # of connection points: 5
#     Edge 8, Type (0, 0), BuildingBlock: XIVTED_clean_linker_0, # of connection points: 2
#     Edge 9, Type (0, 0), BuildingBlock: XIVTED_clean_linker_0, # of connection points: 2
#     Edge 10, Type (0, 0), BuildingBlock: XIVTED_clean_linker_0, # of connection points: 2
#     Edge 11, Type (0, 0), BuildingBlock: XIVTED_clean_linker_0, # of connection points: 2
#     Edge 12, Type (0, 0), BuildingBlock: XIVTED_clean_linker_0, # of connection points: 2
#     Edge 13, Type (0, 0), BuildingBlock: XIVTED_clean_linker_0, # of connection points: 2
#     Edge 14, Type (0, 0), BuildingBlock: XIVTED_clean_linker_0, # of connection points: 2
#     Edge 15, Type (0, 0), BuildingBlock: XIVTED_clean_linker_0, # of connection points: 2
#     Edge 16, Type (0, 0), BuildingBlock: XIVTED_clean_linker_0, # of connection points: 2
#     Edge 17, Type (0, 0), BuildingBlock: XIVTED_clean_linker_0, # of connection points: 2
#     Edge 18, Type (0, 0), BuildingBlock: XIVTED_clean_linker_0, # of connection points: 2
#     Edge 19, Type (0, 0), BuildingBlock: XIVTED_clean_linker_0, # of connection points: 2
#     Edge 20, Type (0, 0), BuildingBlock: XIVTED_clean_linker_0, # of connection points: 2
#     Edge 21, Type (0, 0), BuildingBlock: XIVTED_clean_linker_0, # of connection points: 2
#     Edge 22, Type (0, 0), BuildingBlock: XIVTED_clean_linker_0, # of connection points: 2
#     Edge 23, Type (0, 0), BuildingBlock: XIVTED_clean_linker_0, # of connection points: 2
#     Edge 24, Type (0, 0), BuildingBlock: XIVTED_clean_linker_0, # of connection points: 2
#     Edge 25, Type (0, 0), BuildingBlock: XIVTED_clean_linker_0, # of connection points: 2
#     Edge 26, Type (0, 0), BuildingBlock: XIVTED_clean_linker_0, # of connection points: 2
#     Edge 27, Type (0, 0), BuildingBlock: XIVTED_clean_linker_0, # of connection points: 2
# Relax obj value: 0.081
# Max RMSD: 0.114
# Mean RMSD: 0.114
data_MOF--net-zft--node1-XOMCOT_clean_sbu_1--edge1-XIVTED_clean_linker_0
_symmetry_space_group_name_H-M    P1
_symmetry_Int_Tables_number       1
_symmetry_cell_setting            triclinic
loop_
_symmetry_equiv_pos_as_xyz
'x, y, z'
_cell_length_a     29.643821
_cell_length_b     29.677762
_cell_length_c     46.114691
_cell_angle_alpha  89.99468
_cell_angle_beta   90.07252
_cell_angle_gamma 89.786308
loop_
_atom_site_label
_atom_site_type_symbol
_atom_site_fract_x
_atom_site_fract_y
_atom_site_fract_z
_atom_type_partial_charge
C0 C 0.11633 0.21285 0.2535 0.0
C1 C 0.08954 0.184 0.26896 0.0
N2 N 0.0489 0.20357 0.27272 0.0
N3 N 0.09279 0.2504 0.24676 0.0
C4 C 0.05246 0.24463 0.26 0.0
H5 H 0.15045 0.20595 0.24648 0.0
Co6 Co 0.11715 0.29541 0.2226 0.0
C7 C 0.0193 0.29511 0.19682 0.0
O8 O 1.00328 0.25893 0.20942 0.0
N9 N 0.1422 0.33964 0.1986 0.0
C10 C 0.15635 0.37771 0.15819 0.0
C11 C 0.13796 0.33938 0.16942 0.0
C12 C 0.16383 0.37869 0.20459 0.0
N13 N 0.17235 0.40264 0.18025 0.0
O14 O 0.10343 0.34076 0.25169 0.0
H15 H 0.12129 0.31342 0.15699 0.0
H16 H 0.17151 0.39022 0.22629 0.0
O17 O 0.05982 0.30767 0.2018 0.0
C18 C 0.12987 0.3388 0.2736 0.0
O19 O 0.16099 0.30715 0.27406 0.0
N20 N 0.13422 0.25044 0.19561 0.0
C21 C 0.16839 0.17877 0.16283 0.0
C22 C 0.12171 0.18545 0.1657 0.0
C23 C 0.10531 0.22128 0.18232 0.0
C24 C 0.17969 0.24515 0.19252 0.0
C25 C 0.1975 0.20979 0.17606 0.0
H26 H 0.06957 0.22396 0.18547 0.0
H27 H 0.20234 0.2677 0.20378 0.0
H28 H 0.02585 0.26963 0.2598 0.0
H29 H 0.09856 0.15002 0.27527 0.0
H30 H 0.15735 0.38688 0.13547 0.0
H31 H 0.09795 0.1624 0.15585 0.0
H32 H 0.23376 0.20555 0.17496 0.0
C33 C 0.25193 0.58223 0.5261 0.0
C34 C 0.27363 0.5452 0.53702 0.0
N35 N 0.27811 0.51455 0.51567 0.0
N36 N 0.24209 0.5754 0.49793 0.0
C37 C 0.25877 0.53386 0.492 0.0
H38 H 0.2455 0.6131 0.53779 0.0
Co39 Co 0.21636 0.6213 0.47589 0.0
C40 C 0.18241 0.58209 0.42026 0.0
O41 O 0.19154 0.62055 0.40752 0.0
N42 N 0.19027 0.67007 0.45499 0.0
C43 C 0.17917 0.73445 0.43113 0.0
C44 C 0.21086 0.70611 0.44291 0.0
C45 C 0.1457 0.67801 0.45046 0.0
N46 N 0.13815 0.71682 0.43588 0.0
O47 O 0.16233 0.61724 0.49931 0.0
H48 H 0.24657 0.71238 0.44251 0.0
H49 H 0.11926 0.65537 0.45734 0.0
O50 O 0.1918 0.57679 0.4473 0.0
C51 C 0.16176 0.64737 0.51911 0.0
O52 O 0.19412 0.67755 0.51926 0.0
N53 N 0.27156 0.6273 0.45599 0.0
C54 C 0.35586 0.64986 0.43272 0.0
C55 C 0.32994 0.6148 0.42072 0.0
C56 C 0.28804 0.60369 0.43286 0.0
C57 C 0.298 0.6583 0.4695 0.0
C58 C 0.33944 0.67099 0.45788 0.0
H59 H 0.26959 0.57589 0.42372 0.0
H60 H 0.28543 0.67525 0.48865 0.0
H61 H 0.25782 0.51873 0.47066 0.0
H62 H 0.28725 0.54228 0.55872 0.0
H63 H 0.18587 0.76614 0.42038 0.0
H64 H 0.34189 0.59583 0.4022 0.0
H65 H 0.35746 0.69828 0.46819 0.0
C66 C 0.92683 0.75003 0.77785 0.0
C67 C 0.96426 0.77055 0.78902 0.0
N68 N 0.99404 0.77719 0.76739 0.0
N69 N 0.93249 0.74317 0.74923 0.0
C70 C 0.97376 0.76031 0.74332 0.0
H71 H 0.89649 0.7423 0.78977 0.0
Co72 Co 0.88584 0.72013 0.7267 0.0
C73 C 0.92411 0.68654 0.67079 0.0
O74 O 0.88583 0.69689 0.65802 0.0
N75 N 0.8365 0.69675 0.70528 0.0
C76 C 0.77001 0.68724 0.68362 0.0
C77 C 0.79874 0.71801 0.69595 0.0
C78 C 0.82938 0.65289 0.69862 0.0
N79 N 0.78937 0.64627 0.68529 0.0
O80 O 0.88761 0.66542 0.74936 0.0
H81 H 0.79157 0.75346 0.69818 0.0
H82 H 0.85302 0.6262 0.70379 0.0
O83 O 0.92969 0.69529 0.69788 0.0
C84 C 0.85417 0.66646 0.76679 0.0
O85 O 0.82647 0.70112 0.76548 0.0
N86 N 0.88132 0.77577 0.70768 0.0
C87 C 0.856 0.85911 0.68505 0.0
C88 C 0.88965 0.83322 0.67147 0.0
C89 C 0.90241 0.79167 0.68344 0.0
C90 C 0.85231 0.80271 0.72267 0.0
C91 C 0.83867 0.84416 0.71159 0.0
H92 H 0.92874 0.77271 0.67294 0.0
H93 H 0.83768 0.79057 0.74267 0.0
H94 H 0.98793 0.76144 0.72173 0.0
H95 H 0.96798 0.7818 0.8112 0.0
H96 H 0.73744 0.69457 0.67405 0.0
H97 H 0.90489 0.8442 0.65136 0.0
H98 H 0.81396 0.86387 0.72341 0.0
C99 C 0.72769 0.39753 1.01426 0.0
C100 C 0.7021 0.43059 0.02724 0.0
N101 N 0.71741 0.47079 1.01832 0.0
N102 N 0.75863 0.41648 0.99654 0.0
C103 C 0.75271 0.46138 1.00084 0.0
H104 H 0.72309 0.36185 1.01744 0.0
Co105 Co 0.80024 0.38516 0.97187 0.0
C106 C 0.78288 0.46828 0.93628 0.0
O107 O 0.73934 0.46541 0.94136 0.0
N108 N 0.8416 0.35438 0.94793 0.0
C109 C 0.87982 0.334 0.90855 0.0
C110 C 0.84951 0.36408 0.91974 0.0
C111 C 0.86842 0.31822 0.95343 0.0
N112 N 0.89174 0.30511 0.92964 0.0
O113 O 0.84817 0.40125 0.99834 0.0
H114 H 0.8344 0.39132 0.90765 0.0
H115 H 0.87032 0.30139 0.97421 0.0
O116 O 0.80994 0.43984 0.94797 0.0
C117 C 0.84525 0.3719 1.01855 0.0
O118 O 0.81561 0.33942 1.01548 0.0
N119 N 0.75234 0.36372 0.94821 0.0
C120 C 0.6749 0.32572 0.92406 0.0
C121 C 0.70012 0.35731 0.90842 0.0
C122 C 0.73934 0.37537 0.92069 0.0
C123 C 0.73125 0.32893 0.9618 0.0
C124 C 0.69188 0.31028 0.95059 0.0
H125 H 0.75835 0.39889 0.90791 0.0
H126 H 0.74478 0.31591 0.98187 0.0
H127 H 0.77313 0.48721 0.99094 0.0
H128 H 0.67283 0.42541 0.04084 0.0
H129 H 0.89275 0.33375 0.88659 0.0
H130 H 0.689 0.36894 0.88732 0.0
H131 H 0.67474 0.28416 0.96267 0.0
C132 C 0.57858 0.25049 0.51938 0.0
C133 C 0.54054 0.2715 0.50931 0.0
N134 N 0.51269 0.2791 0.53186 0.0
N135 N 0.57517 0.24421 0.5482 0.0
C136 C 0.53468 0.26232 0.55537 0.0
H137 H 0.6078 0.24201 0.50651 0.0
Co138 Co 0.62331 0.2201 0.56903 0.0
C139 C 0.5897 0.19046 0.6269 0.0
O140 O 0.62942 0.19891 0.63827 0.0
N141 N 0.67409 0.19551 0.58845 0.0
C142 C 0.74255 0.18437 0.60718 0.0
C143 C 0.71319 0.21577 0.59597 0.0
C144 C 0.681 0.15155 0.59513 0.0
N145 N 0.72228 0.14393 0.6066 0.0
O146 O 0.61544 0.16413 0.54895 0.0
H147 H 0.72092 0.25094 0.59328 0.0
H148 H 0.65633 0.12546 0.59123 0.0
O149 O 0.58228 0.19905 0.60003 0.0
C150 C 0.64254 0.1593 0.52777 0.0
O151 O 0.67305 0.19054 0.52322 0.0
N152 N 0.63214 0.2766 0.58637 0.0
C153 C 0.65872 0.36091 0.60663 0.0
C154 C 0.6256 0.33615 0.62133 0.0
C155 C 0.61223 0.29418 0.61058 0.0
C156 C 0.66093 0.30217 0.57037 0.0
C157 C 0.67534 0.34405 0.58033 0.0
H158 H 0.58601 0.27643 0.62188 0.0
H159 H 0.67454 0.28875 0.55038 0.0
H160 H 0.52222 0.26417 0.57738 0.0
H161 H 0.53506 0.28248 0.4872 0.0
H162 H 0.77621 0.19096 0.6152 0.0
H163 H 0.61099 0.34847 0.64134 0.0
H164 H 0.69972 0.36277 0.56772 0.0
C165 C 0.26568 0.0683 0.77132 0.0
C166 C 0.24376 0.03085 0.76152 0.0
N167 N 0.23661 1.00308 0.78412 0.0
N168 N 0.27314 0.06459 0.80004 0.0
C169 C 0.25464 0.02449 0.80742 0.0
H170 H 0.27375 0.09741 0.75834 0.0
Co171 Co 0.29831 0.1123 0.82071 0.0
C172 C 0.33855 0.07668 0.87563 0.0
O173 O 0.32942 0.11536 0.88818 0.0
N174 N 0.32364 0.1624 0.83995 0.0
C175 C 0.33536 0.2278 0.86237 0.0
C176 C 0.30321 0.1991 0.85142 0.0
C177 C 0.36825 0.17027 0.84368 0.0
N178 N 0.37624 0.20957 0.85739 0.0
O179 O 0.35118 0.1089 0.79638 0.0
H180 H 0.26733 0.20517 0.85193 0.0
H181 H 0.39445 0.14687 0.83722 0.0
O182 O 0.32637 0.06992 0.84921 0.0
C183 C 0.35104 0.13875 0.77644 0.0
O184 O 0.31754 0.16789 0.77567 0.0
N185 N 0.24431 0.11758 0.84199 0.0
C186 C 0.16008 0.1374 0.86599 0.0
C187 C 0.18983 0.10772 0.88006 0.0
C188 C 0.23152 0.09733 0.86732 0.0
C189 C 0.21481 0.1447 0.82745 0.0
C190 C 0.17271 0.15526 0.83908 0.0
H191 H 0.25262 0.07272 0.87783 0.0
H192 H 0.22478 0.15927 0.80694 0.0
H193 H 0.25327 0.012 0.82945 0.0
H194 H 0.23168 0.02582 0.73961 0.0
H195 H 0.32914 0.25985 0.87285 0.0
H196 H 0.18065 0.09218 0.90045 0.0
H197 H 0.1507 0.17818 0.82742 0.0
C198 C 0.41284 0.71534 0.04135 0.0
C199 C 0.44355 0.68701 0.02838 0.0
N200 N 0.48452 0.70608 0.03015 0.0
N201 N 0.43425 0.75205 0.05169 0.0
C202 C 0.47777 0.7461 0.04352 0.0
H203 H 0.37725 0.70874 0.04409 0.0
Co204 Co 0.40439 0.79748 0.07308 0.0
C205 C 0.49359 0.79239 0.10818 0.0
O206 O 0.50725 0.7523 0.10003 0.0
N207 N 0.37428 0.84239 0.09429 0.0
C208 C 0.34628 0.87842 0.13253 0.0
C209 C 0.37289 0.84332 0.12358 0.0
C210 C 0.34861 0.87795 0.08589 0.0
N211 N 0.33106 0.90017 0.10889 0.0
O212 O 0.42442 0.84203 0.04559 0.0
H213 H 0.38946 0.81922 0.13763 0.0
H214 H 0.34188 0.88665 0.06351 0.0
O215 O 0.45661 0.80895 0.09856 0.0
C216 C 0.40045 0.83901 1.02261 0.0
O217 O 0.3694 0.80755 1.02148 0.0
N218 N 0.37998 0.75334 0.09786 0.0
C219 C 0.33108 0.68495 0.12504 0.0
C220 C 0.37806 0.6879 0.12853 0.0
C221 C 0.40194 0.72242 0.11472 0.0
C222 C 0.3343 0.7515 0.09484 0.0
C223 C 0.3092 0.71831 0.10862 0.0
H224 H 0.4379 0.72261 0.1167 0.0
H225 H 0.31727 0.77553 0.08095 0.0
H226 H 0.50441 0.76995 0.04797 0.0
H227 H 0.43681 0.65358 1.02006 0.0
H228 H 0.3386 0.88737 0.15475 0.0
H229 H 0.39657 0.66259 0.14062 0.0
H230 H 0.27296 0.7182 0.10569 0.0
C231 C 0.71029 0.98887 0.31723 0.0
C232 C 0.73743 0.02534 0.31215 0.0
N233 N 0.78049 0.01093 0.31062 0.0
N234 N 0.73577 0.95121 0.31896 0.0
C235 C 0.77857 0.96576 0.31478 0.0
H236 H 0.67404 0.98984 0.31978 0.0
Co237 Co 0.71152 0.89383 0.32655 0.0
C238 C 0.66819 0.90985 0.38499 0.0
O239 O 0.67839 0.86959 0.39498 0.0
N240 N 0.68556 0.83681 0.33379 0.0
C241 C 0.66965 0.76338 0.33464 0.0
C242 C 0.70169 0.79518 0.32773 0.0
C243 C 0.64305 0.82924 0.34332 0.0
N244 N 0.63299 0.78502 0.34471 0.0
O245 O 0.66247 0.90601 0.30059 0.0
H246 H 0.7342 0.78786 0.31834 0.0
H247 H 0.61938 0.85574 0.34876 0.0
O248 O 0.6793 0.92085 0.35916 0.0
C249 C 0.67697 0.89788 0.2751 0.0
O250 O 0.7198 0.88723 0.27206 0.0
N251 N 0.76239 0.87952 0.34914 0.0
C252 C 0.84464 0.85137 0.37254 0.0
C253 C 0.81544 0.87906 0.38862 0.0
C254 C 0.77476 0.89382 0.37619 0.0
C255 C 0.79147 0.85443 0.33294 0.0
C256 C 0.83238 0.83957 0.34424 0.0
H257 H 0.7544 0.91757 0.38807 0.0
H258 H 0.78296 0.8464 0.31074 0.0
H259 H 0.80771 0.94374 0.31467 0.0
H260 H 0.72627 0.06 0.3104 0.0
H261 H 0.67325 0.72718 0.33278 0.0
H262 H 0.8246 0.89024 0.41019 0.0
H263 H 0.85418 0.81882 0.3309 0.0
H264 H 0.16584 0.32974 0.32766 0.0
H265 H 0.1375 0.58898 0.369 0.0
H266 H 0.09229 0.42434 0.27443 0.0
H267 H 0.18987 0.4899 0.42873 0.0
H268 H 0.11783 0.52887 0.33526 0.0
H269 H 0.17199 0.38679 0.36554 0.0
C270 C 0.15058 0.36248 0.324 0.0
C271 C 0.12868 0.37226 0.29765 0.0
C272 C 0.13318 0.52006 0.35583 0.0
C273 C 0.1361 0.43828 0.34117 0.0
C274 C 0.14454 0.55443 0.37517 0.0
C275 C 0.16568 0.54458 0.40175 0.0
C276 C 0.14348 0.47516 0.36277 0.0
C277 C 0.17357 0.49911 0.40855 0.0
C278 C 0.15409 0.39507 0.34575 0.0
C279 C 0.10939 0.41523 0.29435 0.0
N280 N 0.16297 0.46616 0.38904 0.0
N281 N 0.114 0.44678 0.3157 0.0
H282 H 0.91743 0.63762 0.6213 0.0
H283 H 0.16684 0.6933 0.57002 0.0
H284 H 0.01554 0.70111 0.67683 0.0
H285 H 0.08054 0.60195 0.52309 0.0
H286 H 0.11201 0.69585 0.60923 0.0
H287 H 0.97658 0.62242 0.58575 0.0
C288 C 0.95167 0.64782 0.62619 0.0
C289 C 0.96156 0.67086 0.65204 0.0
C290 C 0.10505 0.675 0.59049 0.0
C291 C 0.02946 0.65423 0.61105 0.0
C292 C 0.13626 0.67371 0.5679 0.0
C293 C 0.12818 0.64761 0.543 0.0
C294 C 0.06487 0.65048 0.58822 0.0
C295 C 0.08812 0.62262 0.54179 0.0
C296 C 0.98542 0.63912 0.60584 0.0
C297 C 0.00648 0.6831 0.65728 0.0
N298 N 0.05775 0.62501 0.56397 0.0
N299 N 0.03866 0.67521 0.63676 0.0
H300 H 0.86658 0.47262 0.90976 0.0
H301 H 0.77402 0.64555 0.79042 0.0
H302 H 0.73423 0.53384 0.9094 0.0
H303 H 0.91492 0.60926 0.79438 0.0
H304 H 0.7594 0.59774 0.83185 0.0
H305 H 0.88635 0.51792 0.8669 0.0
C306 C 0.84188 0.49585 0.90092 0.0
C307 C 0.79848 0.49911 0.91309 0.0
C308 C 0.79362 0.59991 0.8238 0.0
C309 C 0.82069 0.5503 0.86404 0.0
C310 C 0.80197 0.62714 0.79996 0.0
C311 C 0.84583 0.63169 0.78907 0.0
C312 C 0.82936 0.57687 0.83727 0.0
C313 C 0.88059 0.60653 0.80212 0.0
C314 C 0.85314 0.52147 0.8764 0.0
C315 C 0.76792 0.52975 0.90073 0.0
N316 N 0.87169 0.58033 0.82579 0.0
N317 N 0.77952 0.55378 0.87691 0.0
H318 H 0.93293 0.4013 0.02926 0.0
H319 H 0.92972 0.28454 0.18564 0.0
H320 H 0.81537 0.34581 0.07084 0.0
H321 H 0.04706 0.35468 0.15413 0.0
H322 H 0.88714 0.31212 0.14424 0.0
H323 H 0.97542 0.39057 0.075 0.0
C324 C 0.91591 0.38776 0.04809 0.0
C325 C 0.87076 0.3739 0.04619 0.0
C326 C 0.92215 0.32187 0.14632 0.0
C327 C 0.91878 0.36123 0.09812 0.0
C328 C 0.94658 0.30601 0.17009 0.0
C329 C 0.99235 0.31668 0.17331 0.0
C330 C 0.94352 0.34832 0.12511 0.0
C331 C 0.01204 0.34512 0.15244 0.0
C332 C 0.94013 0.3814 0.0741 0.0
C333 C 0.85033 0.3563 0.07115 0.0
N334 N 0.98771 0.35948 0.129 0.0
N335 N 0.87445 0.35019 0.09582 0.0
H336 H 0.60696 0.07472 0.53682 0.0
H337 H 0.65402 0.99902 0.37317 0.0
H338 H 0.66876 0.15845 0.47162 0.0
H339 H 0.64719 0.9022 0.44293 0.0
H340 H 0.64014 0.05924 0.40786 0.0
H341 H 0.60443 0.01236 0.50146 0.0
C342 C 0.61961 0.08003 0.51506 0.0
C343 C 0.63847 0.12155 0.50714 0.0
C344 C 0.64127 0.02477 0.41555 0.0
C345 C 0.63494 0.0513 0.46682 0.0
C346 C 0.64904 0.99026 0.39572 0.0
C347 C 0.65257 0.94544 0.40518 0.0
C348 C 0.6367 0.01458 0.44511 0.0
C349 C 0.64527 0.93632 0.43473 0.0
C350 C 0.61825 0.04456 0.49501 0.0
C351 C 0.65445 0.12682 0.47875 0.0
N352 N 0.63805 0.97069 0.45376 0.0
N353 N 0.65222 0.0922 0.45965 0.0
H354 H 0.43586 0.10011 0.77622 0.0
H355 H 0.49793 0.19704 0.61858 0.0
H356 H 0.34547 0.18108 0.7243 0.0
H357 H 0.59792 0.15117 0.68004 0.0
H358 H 0.43879 0.17924 0.65393 0.0
H359 H 0.49332 0.10707 0.73804 0.0
C360 C 0.42802 0.11904 0.75676 0.0
C361 C 0.386 0.14034 0.75355 0.0
C362 C 0.4737 0.17282 0.65957 0.0
C363 C 0.4511 0.1481 0.70981 0.0
C364 C 0.5074 0.18275 0.63934 0.0
C365 C 0.55291 0.17598 0.64648 0.0
C366 C 0.48561 0.15553 0.68697 0.0
C367 C 0.56326 0.15744 0.67376 0.0
C368 C 0.46078 0.1231 0.73503 0.0
C369 C 0.37759 0.1645 0.72787 0.0
N370 N 0.52994 0.14798 0.69301 0.0
N371 N 0.40976 0.16769 0.70705 0.0
H372 H 0.37312 0.82605 0.96707 0.0
H373 H 0.38529 0.08633 0.92598 0.0
H374 H 0.43289 0.92621 1.02274 0.0
H375 H 0.33596 0.9844 0.8674 0.0
H376 H 0.40941 0.02756 0.95955 0.0
H377 H 0.36623 0.88212 0.92868 0.0
C378 C 0.38535 0.85983 0.97111 0.0
C379 C 0.40333 0.87154 0.99828 0.0
C380 C 0.39377 0.01787 0.93926 0.0
C381 C 0.39495 0.93636 0.95428 0.0
C382 C 0.37985 0.05146 0.92003 0.0
C383 C 0.35809 0.04033 0.8939 0.0
C384 C 0.38557 0.97253 0.9326 0.0
C385 C 0.35252 0.99455 0.88728 0.0
C386 C 0.38137 0.89186 0.94911 0.0
C387 C 0.41891 0.9157 1.00214 0.0
N388 N 0.36566 0.96235 0.90668 0.0
N389 N 0.41381 0.94667 0.98051 0.0
H390 H 0.58353 0.89806 0.27283 0.0
H391 H 0.58353 0.78585 0.11816 0.0
H392 H 0.70222 0.88939 0.21893 0.0
H393 H 0.46374 0.85319 0.14915 0.0
H394 H 0.6265 0.82006 0.15746 0.0
H395 H 0.53694 0.87986 0.23009 0.0
C396 C 0.59969 0.89315 0.25201 0.0
C397 C 0.64688 0.8946 0.24954 0.0
C398 C 0.59088 0.82776 0.15555 0.0
C399 C 0.59422 0.87323 0.20107 0.0
C400 C 0.56632 0.8081 0.13317 0.0
C401 C 0.52 0.81658 0.13045 0.0
C402 C 0.56888 0.85538 0.17587 0.0
C403 C 0.49943 0.84585 0.15048 0.0
C404 C 0.57315 0.88272 0.2277 0.0
C405 C 0.66607 0.88792 0.22204 0.0
N406 N 0.5239 0.86374 0.1727 0.0
N407 N 0.6398 0.87691 0.19907 0.0
H408 H 0.3399 0.97839 0.07901 0.0
H409 H 0.13644 0.09271 0.16693 0.0
H410 H 0.2557 0.90937 0.14054 0.0
H411 H 0.24224 0.17037 0.12684 0.0
H412 H 0.17041 0.02412 0.14771 0.0
H413 H 0.29527 0.0477 0.08695 0.0
C414 C 0.31138 0.97772 0.09365 0.0
C415 C 0.30138 0.93852 0.1093 0.0
C416 C 0.18602 0.05618 0.14286 0.0
C417 C 0.25064 0.01683 0.11852 0.0
C418 C 0.1664 0.0955 0.15364 0.0
C419 C 0.18658 0.13749 0.14862 0.0
C420 C 0.22621 0.0586 0.12687 0.0
C421 C 0.22589 0.13868 0.1316 0.0
C422 C 0.28624 0.01716 0.09836 0.0
C423 C 0.26453 0.93916 0.12828 0.0
N424 N 0.2446 0.09977 0.12145 0.0
N425 N 0.24063 0.97767 0.13244 0.0
H426 H 0.58768 0.81223 0.39233 0.0
H427 H 0.37972 0.64919 0.37465 0.0
H428 H 0.58736 0.71235 0.32455 0.0
H429 H 0.43125 0.68636 0.45907 0.0
H430 H 0.4481 0.67996 0.35267 0.0
H431 H 0.52107 0.77643 0.41374 0.0
C432 C 0.57324 0.78298 0.38185 0.0
C433 C 0.59287 0.76515 0.35668 0.0
C434 C 0.44422 0.68112 0.37601 0.0
C435 C 0.51673 0.72433 0.38083 0.0
C436 C 0.40531 0.66325 0.38871 0.0
C437 C 0.39891 0.66537 0.41895 0.0
C438 C 0.4766 0.70216 0.39353 0.0
C439 C 0.43346 0.68498 0.43568 0.0
C440 C 0.53558 0.7624 0.39416 0.0
C441 C 0.57323 0.72686 0.34407 0.0
N442 N 0.47036 0.70307 0.42274 0.0
N443 N 0.5359 0.70789 0.35612 0.0
H444 H 0.67684 0.07083 0.62631 0.0
H445 H 0.90163 0.92754 0.65752 0.0
H446 H 0.8108 0.12001 0.60854 0.0
H447 H 0.76773 0.88449 0.68115 0.0
H448 H 0.86908 0.99621 0.6364 0.0
H449 H 0.70959 1.00005 0.64343 0.0
C450 C 0.71311 0.06664 0.62579 0.0
C451 C 0.74108 0.10154 0.61608 0.0
C452 C 0.84687 0.97168 0.64621 0.0
C453 C 0.77896 0.02065 0.63592 0.0
C454 C 0.86542 0.93243 0.65814 0.0
C455 C 0.83741 0.90049 0.67139 0.0
C456 C 0.79997 0.97882 0.64738 0.0
C457 C 0.7907 0.90863 0.67168 0.0
C458 C 0.73186 0.0263 0.63574 0.0
C459 C 0.78797 0.09435 0.61627 0.0
N460 N 0.77351 0.94694 0.65992 0.0
N461 N 0.80543 0.05476 0.62606 0.0
H462 H 0.45603 0.19942 0.8293 0.0
H463 H 0.597 0.31898 0.95479 0.0
H464 H 0.39495 0.26056 0.90452 0.0
H465 H 0.65181 0.29646 0.86939 0.0
H466 H 0.52394 0.29176 0.93789 0.0
H467 H 0.52944 0.22894 0.84468 0.0
C468 C 0.45812 0.21897 0.84907 0.0
C469 C 0.4194 0.22754 0.86571 0.0
C470 C 0.55186 0.29285 0.92279 0.0
C471 C 0.50302 0.26128 0.88339 0.0
C472 C 0.59363 0.30809 0.93247 0.0
C473 C 0.63052 0.30971 0.91349 0.0
C474 C 0.54692 0.2786 0.89395 0.0
C475 C 0.62414 0.29587 0.88467 0.0
C476 C 0.4999 0.23604 0.85772 0.0
C477 C 0.42385 0.25354 0.89094 0.0
N478 N 0.58315 0.28054 0.8758 0.0
N479 N 0.46493 0.26921 0.89911 0.0
H480 H 0.61256 0.43043 0.63276 0.0
H481 H 0.83574 0.57282 0.66662 0.0
H482 H 0.74674 0.38759 0.60887 0.0
H483 H 0.70101 0.62384 0.6804 0.0
H484 H 0.80379 0.50253 0.64832 0.0
H485 H 0.64435 0.49962 0.65314 0.0
C486 C 0.64869 0.43552 0.63188 0.0
C487 C 0.677 0.40331 0.61894 0.0
C488 C 0.78119 0.5291 0.65536 0.0
C489 C 0.7136 0.48233 0.64215 0.0
C490 C 0.79945 0.56912 0.666 0.0
C491 C 0.77102 0.60431 0.67501 0.0
C492 C 0.73412 0.52408 0.65386 0.0
C493 C 0.72417 0.59785 0.67333 0.0
C494 C 0.6668 0.47509 0.64338 0.0
C495 C 0.72356 0.41183 0.6182 0.0
N496 N 0.70719 0.55853 0.66299 0.0
N497 N 0.74038 0.45043 0.62966 0.0
H498 H 0.07736 0.13871 0.84011 0.0
H499 H 0.95999 0.28159 0.96615 0.0
H500 H 0.14326 0.16651 0.92151 0.0
H501 H 0.89747 0.24786 0.88472 0.0
H502 H 0.02321 0.23068 0.95416 0.0
H503 H 0.00738 0.16967 0.85955 0.0
C504 C 0.07691 0.15106 0.86221 0.0
C505 C 0.11624 0.15055 0.87911 0.0
C506 C 0.99523 0.23382 0.93917 0.0
C507 C 0.03616 0.18664 0.9016 0.0
C508 C 0.95911 0.26253 0.94614 0.0
C509 C 0.92391 0.2691 0.92622 0.0
C510 C 0.99578 0.21165 0.91216 0.0
C511 C 0.92437 0.24408 0.90044 0.0
C512 C 0.03691 0.16868 0.87338 0.0
C513 C 0.11362 0.16634 0.90778 0.0
N514 N 0.95985 0.21691 0.89405 0.0
N515 N 0.07441 0.1844 0.91802 0.0
H516 H 0.26091 0.64184 0.0987 0.0
H517 H 0.24121 0.43931 0.21145 0.0
H518 H 0.34294 0.63702 0.17615 0.0
H519 H 0.14678 0.46687 0.1425 0.0
H520 H 0.27886 0.51156 0.20098 0.0
H521 H 0.21922 0.57735 0.1158 0.0
C522 C 0.26982 0.62774 0.1196 0.0
C523 C 0.30528 0.64559 0.13614 0.0
C524 C 0.24962 0.50184 0.18839 0.0
C525 C 0.25793 0.56992 0.15567 0.0
C526 C 0.22811 0.46086 0.19444 0.0
C527 C 0.19145 0.44689 0.17743 0.0
C528 C 0.23406 0.52865 0.16525 0.0
C529 C 0.17565 0.47585 0.15564 0.0
C530 C 0.24605 0.59045 0.12931 0.0
C531 C 0.31604 0.62434 0.16257 0.0
N532 N 0.19719 0.51502 0.15007 0.0
N533 N 0.29255 0.58745 0.1715 0.0
H534 H 0.86167 0.81226 0.42547 0.0
H535 H 0.12248 0.76917 0.38897 0.0
H536 H 0.92689 0.8538 0.34637 0.0
H537 H 0.05676 0.70901 0.46276 0.0
H538 H 0.05159 0.80485 0.37529 0.0
H539 H 0.93353 0.77954 0.44214 0.0
C540 C 0.89123 0.81493 0.41181 0.0
C541 C 0.88835 0.83543 0.38444 0.0
C542 C 0.05248 0.78386 0.39449 0.0
C543 C 0.97017 0.798 0.40314 0.0
C544 C 0.09309 0.76361 0.40239 0.0
C545 C 0.09563 0.73622 0.42712 0.0
C546 C 0.01383 0.77694 0.41146 0.0
C547 C 0.05617 0.72958 0.44339 0.0
C548 C 0.93205 0.79597 0.42119 0.0
C549 C 0.9275 0.83775 0.36746 0.0
N550 N 0.01685 0.74996 0.43534 0.0
N551 N 0.96665 0.81921 0.37705 0.0
H552 H 0.86674 0.99484 0.32857 0.0
H553 H 0.96157 0.22288 0.25844 0.0
H554 H 0.78416 0.09135 0.28264 0.0
H555 H 0.04342 0.13139 0.30898 0.0
H556 H 0.89562 0.17684 0.26906 0.0
H557 H 0.93184 0.04452 0.32214 0.0
C558 C 0.86229 0.02628 0.317 0.0
C559 C 0.81976 0.03887 0.30621 0.0
C560 C 0.92797 0.16696 0.278 0.0
C561 C 0.89407 0.09626 0.29904 0.0
C562 C 0.96573 0.19357 0.27212 0.0
C563 C 0.00852 0.18088 0.28248 0.0
C564 C 0.93285 0.12722 0.29433 0.0
C565 C 0.01143 0.14212 0.29999 0.0
C566 C 0.89941 0.05485 0.31354 0.0
C567 C 0.81602 0.08042 0.29171 0.0
N568 N 0.97431 0.11653 0.30514 0.0
N569 N 0.85259 0.10746 0.28852 0.0
H570 H 0.45809 0.29077 0.48506 0.0
H571 H 0.29506 0.46581 0.5644 0.0
H572 H 0.47165 0.32623 0.57543 0.0
H573 H 0.31927 0.4675 0.47211 0.0
H574 H 0.34709 0.40246 0.56915 0.0
H575 H 0.3948 0.34301 0.48089 0.0
C576 C 0.44779 0.30939 0.5041 0.0
C577 C 0.47117 0.30472 0.53052 0.0
C578 C 0.34075 0.41653 0.54785 0.0
C579 C 0.39774 0.36406 0.52589 0.0
C580 C 0.31116 0.45289 0.54506 0.0
C581 C 0.30342 0.47295 0.51784 0.0
C582 C 0.36247 0.39944 0.52323 0.0
C583 C 0.32418 0.45342 0.49351 0.0
C584 C 0.41146 0.33911 0.50166 0.0
C585 C 0.45496 0.32872 0.55463 0.0
N586 N 0.35303 0.41795 0.49682 0.0
N587 N 0.41945 0.35762 0.55167 0.0
H588 H 0.04315 0.79246 0.81638 0.0
H589 H 0.22385 0.94843 0.73769 0.0
H590 H 0.0417 0.81854 0.72423 0.0
H591 H 0.18802 0.96439 0.8278 0.0
H592 H 0.16923 0.88759 0.73352 0.0
H593 H 0.10772 0.84234 0.82142 0.0
C594 C 0.05623 0.80855 0.79713 0.0
C595 C 0.03589 0.80188 0.76985 0.0
C596 C 0.17356 0.9042 0.75424 0.0
C597 C 0.11104 0.85835 0.77561 0.0
C598 C 0.20467 0.93909 0.75669 0.0
C599 C 0.20992 0.96246 0.78301 0.0
C600 C 0.14778 0.89191 0.77838 0.0
C601 C 0.18511 0.94758 0.80708 0.0
C602 C 0.09336 0.8369 0.8001 0.0
C603 C 0.05584 0.82259 0.74568 0.0
N604 N 0.15483 0.91345 0.80413 0.0
N605 N 0.09213 0.85008 0.74916 0.0
H606 H 0.67935 0.5061 0.06657 0.0
H607 H 0.51025 0.65943 0.98268 0.0
H608 H 0.69914 0.53029 0.97539 0.0
H609 H 0.55287 0.69659 0.06861 0.0
H610 H 0.57545 0.60809 0.97919 0.0
H611 H 0.6289 0.57208 0.06864 0.0
C612 C 0.6736 0.52582 0.04714 0.0
C613 C 0.69354 0.513 1.02084 0.0
C614 C 0.57098 0.62821 0.99858 0.0
C615 C 0.63504 0.58726 1.02276 0.0
C616 C 0.53395 0.65742 1.00052 0.0
C617 C 0.52655 0.68253 0.02583 0.0
C618 C 0.59982 0.62293 1.02255 0.0
C619 C 0.55776 0.67834 0.04861 0.0
C620 C 0.64495 0.56335 0.0483 0.0
C621 C 0.68479 0.53937 0.99614 0.0
N622 N 0.59254 0.6484 0.04669 0.0
N623 N 0.65548 0.57473 0.99756 0.0
loop_
_geom_bond_atom_site_label_1
_geom_bond_atom_site_label_2
_geom_bond_distance
_geom_bond_site_symmetry_2
_ccdc_geom_bond_type
C0 C1 1.351 . S
C0 N3 1.368 . S
C0 H5 0.931 . S
C1 C0 1.351 . S
C1 N2 1.373 1_455 S
C1 H29 0.930 . S
N2 C1 1.373 1_655 S
N2 C4 1.340 . S
N3 C0 1.368 . S
N3 C4 1.321 1_455 S
N3 Co6 2.135 . S
C4 N2 1.340 . S
C4 N3 1.321 1_655 S
C4 H28 0.930 . S
H5 C0 0.931 . S
Co6 N3 2.135 . S
Co6 N9 2.121 . S
Co6 O14 2.055 . S
Co6 O17 2.039 . S
Co6 N20 2.140 . S
C7 O8 1.227 . S
C7 O17 1.265 . S
O8 C7 1.227 . S
N9 Co6 2.121 . S
N9 C11 1.375 . S
N9 C12 1.313 . S
C10 C11 1.338 . S
C10 N13 1.377 . S
C10 H30 0.930 . S
C11 N9 1.375 . S
C11 C10 1.338 . S
C11 H15 0.931 . S
C12 N9 1.313 . S
C12 N13 1.344 . S
C12 H16 0.930 . S
N13 C10 1.377 . S
N13 C12 1.344 . S
O14 Co6 2.055 . S
O14 C18 1.253 . S
H15 C11 0.931 . S
H16 C12 0.930 . S
O17 Co6 2.039 . S
O17 C7 1.265 . S
C18 O14 1.253 . S
C18 O19 1.227 . S
O19 C18 1.227 . S
N20 Co6 2.140 . S
N20 C23 1.346 . S
N20 C24 1.345 . S
C21 C22 1.387 . S
C21 C25 1.391 . S
C22 C21 1.387 . S
C22 C23 1.369 . S
C22 H31 0.929 . S
C23 N20 1.346 . S
C23 C22 1.369 . S
C23 H26 0.928 . S
C24 N20 1.345 . S
C24 C25 1.371 . S
C24 H27 0.931 . S
C25 C21 1.391 . S
C25 C24 1.371 . S
C25 H32 0.930 . S
H26 C23 0.928 . S
H27 C24 0.931 . S
H28 C4 0.930 . S
H29 C1 0.930 . S
H30 C10 0.930 . S
H31 C22 0.929 . S
H32 C25 0.930 . S
C33 C34 1.351 . S
C33 N36 1.368 . S
C33 H38 0.931 . S
C34 C33 1.351 . S
C34 N35 1.373 . S
C34 H62 0.930 . S
N35 C34 1.373 . S
N35 C37 1.340 . S
N36 C33 1.368 . S
N36 C37 1.321 . S
N36 Co39 2.135 . S
C37 N35 1.340 . S
C37 N36 1.321 . S
C37 H61 0.930 . S
H38 C33 0.931 . S
Co39 N36 2.135 . S
Co39 N42 2.121 . S
Co39 O47 2.055 . S
Co39 O50 2.039 . S
Co39 N53 2.140 . S
C40 O41 1.227 . S
C40 O50 1.265 . S
O41 C40 1.227 . S
N42 Co39 2.121 . S
N42 C44 1.375 . S
N42 C45 1.313 . S
C43 C44 1.338 . S
C43 N46 1.377 . S
C43 H63 0.930 . S
C44 N42 1.375 . S
C44 C43 1.338 . S
C44 H48 0.931 . S
C45 N42 1.313 . S
C45 N46 1.344 . S
C45 H49 0.930 . S
N46 C43 1.377 . S
N46 C45 1.344 . S
O47 Co39 2.055 . S
O47 C51 1.253 . S
H48 C44 0.931 . S
H49 C45 0.930 . S
O50 Co39 2.039 . S
O50 C40 1.265 . S
C51 O47 1.253 . S
C51 O52 1.227 . S
O52 C51 1.227 . S
N53 Co39 2.140 . S
N53 C56 1.346 . S
N53 C57 1.345 . S
C54 C55 1.387 . S
C54 C58 1.391 . S
C55 C54 1.387 . S
C55 C56 1.369 . S
C55 H64 0.929 . S
C56 N53 1.346 . S
C56 C55 1.369 . S
C56 H59 0.928 . S
C57 N53 1.345 . S
C57 C58 1.371 . S
C57 H60 0.931 . S
C58 C54 1.391 . S
C58 C57 1.371 . S
C58 H65 0.930 . S
H59 C56 0.928 . S
H60 C57 0.931 . S
H61 C37 0.930 . S
H62 C34 0.930 . S
H63 C43 0.930 . S
H64 C55 0.929 . S
H65 C58 0.930 . S
C66 C67 1.351 . S
C66 N69 1.368 . S
C66 H71 0.931 . S
C67 C66 1.351 . S
C67 N68 1.373 1_655 S
C67 H95 0.930 . S
N68 C67 1.373 1_455 S
N68 C70 1.340 . S
N69 C66 1.368 . S
N69 C70 1.321 1_655 S
N69 Co72 2.135 . S
C70 N68 1.340 . S
C70 N69 1.321 1_455 S
C70 H94 0.930 . S
H71 C66 0.931 . S
Co72 N69 2.135 . S
Co72 N75 2.121 . S
Co72 O80 2.055 . S
Co72 O83 2.039 . S
Co72 N86 2.140 . S
C73 O74 1.227 . S
C73 O83 1.265 . S
O74 C73 1.227 . S
N75 Co72 2.121 . S
N75 C77 1.375 . S
N75 C78 1.313 . S
C76 C77 1.338 . S
C76 N79 1.377 . S
C76 H96 0.930 . S
C77 N75 1.375 . S
C77 C76 1.338 . S
C77 H81 0.931 . S
C78 N75 1.313 . S
C78 N79 1.344 . S
C78 H82 0.930 . S
N79 C76 1.377 . S
N79 C78 1.344 . S
O80 Co72 2.055 . S
O80 C84 1.253 . S
H81 C77 0.931 . S
H82 C78 0.930 . S
O83 Co72 2.039 . S
O83 C73 1.265 . S
C84 O80 1.253 . S
C84 O85 1.227 . S
O85 C84 1.227 . S
N86 Co72 2.140 . S
N86 C89 1.346 . S
N86 C90 1.345 . S
C87 C88 1.387 . S
C87 C91 1.391 . S
C88 C87 1.387 . S
C88 C89 1.369 . S
C88 H97 0.929 . S
C89 N86 1.346 . S
C89 C88 1.369 . S
C89 H92 0.928 . S
C90 N86 1.345 . S
C90 C91 1.371 . S
C90 H93 0.931 . S
C91 C87 1.391 . S
C91 C90 1.371 . S
C91 H98 0.930 . S
H92 C89 0.928 . S
H93 C90 0.931 . S
H94 C70 0.930 . S
H95 C67 0.930 . S
H96 C76 0.930 . S
H97 C88 0.929 . S
H98 C91 0.930 . S
C99 C100 1.351 . S
C99 N102 1.368 . S
C99 H104 0.931 . S
C100 C99 1.351 . S
C100 N101 1.373 . S
C100 H128 0.930 1_556 S
N101 C100 1.373 . S
N101 C103 1.340 . S
N102 C99 1.368 . S
N102 C103 1.321 . S
N102 Co105 2.135 . S
C103 N101 1.340 . S
C103 N102 1.321 . S
C103 H127 0.930 . S
H104 C99 0.931 . S
Co105 N102 2.135 . S
Co105 N108 2.121 . S
Co105 O113 2.055 . S
Co105 O116 2.039 . S
Co105 N119 2.140 . S
C106 O107 1.227 . S
C106 O116 1.265 . S
O107 C106 1.227 . S
N108 Co105 2.121 . S
N108 C110 1.375 . S
N108 C111 1.313 . S
C109 C110 1.338 . S
C109 N112 1.377 . S
C109 H129 0.930 . S
C110 N108 1.375 . S
C110 C109 1.338 . S
C110 H114 0.931 . S
C111 N108 1.313 . S
C111 N112 1.344 . S
C111 H115 0.930 . S
N112 C109 1.377 . S
N112 C111 1.344 . S
O113 Co105 2.055 . S
O113 C117 1.253 . S
H114 C110 0.931 . S
H115 C111 0.930 . S
O116 Co105 2.039 . S
O116 C106 1.265 . S
C117 O113 1.253 . S
C117 O118 1.227 . S
O118 C117 1.227 . S
N119 Co105 2.140 . S
N119 C122 1.346 . S
N119 C123 1.345 . S
C120 C121 1.387 . S
C120 C124 1.391 . S
C121 C120 1.387 . S
C121 C122 1.369 . S
C121 H130 0.929 . S
C122 N119 1.346 . S
C122 C121 1.369 . S
C122 H125 0.928 . S
C123 N119 1.345 . S
C123 C124 1.371 . S
C123 H126 0.931 . S
C124 C120 1.391 . S
C124 C123 1.371 . S
C124 H131 0.930 . S
H125 C122 0.928 . S
H126 C123 0.931 . S
H127 C103 0.930 . S
H128 C100 0.930 1_554 S
H129 C109 0.930 . S
H130 C121 0.929 . S
H131 C124 0.930 . S
C132 C133 1.351 . S
C132 N135 1.368 . S
C132 H137 0.931 . S
C133 C132 1.351 . S
C133 N134 1.373 . S
C133 H161 0.930 . S
N134 C133 1.373 . S
N134 C136 1.340 . S
N135 C132 1.368 . S
N135 C136 1.321 . S
N135 Co138 2.135 . S
C136 N134 1.340 . S
C136 N135 1.321 . S
C136 H160 0.930 . S
H137 C132 0.931 . S
Co138 N135 2.135 . S
Co138 N141 2.121 . S
Co138 O146 2.055 . S
Co138 O149 2.039 . S
Co138 N152 2.140 . S
C139 O140 1.227 . S
C139 O149 1.265 . S
O140 C139 1.227 . S
N141 Co138 2.121 . S
N141 C143 1.375 . S
N141 C144 1.313 . S
C142 C143 1.338 . S
C142 N145 1.377 . S
C142 H162 0.930 . S
C143 N141 1.375 . S
C143 C142 1.338 . S
C143 H147 0.931 . S
C144 N141 1.313 . S
C144 N145 1.344 . S
C144 H148 0.930 . S
N145 C142 1.377 . S
N145 C144 1.344 . S
O146 Co138 2.055 . S
O146 C150 1.253 . S
H147 C143 0.931 . S
H148 C144 0.930 . S
O149 Co138 2.039 . S
O149 C139 1.265 . S
C150 O146 1.253 . S
C150 O151 1.227 . S
O151 C150 1.227 . S
N152 Co138 2.140 . S
N152 C155 1.346 . S
N152 C156 1.345 . S
C153 C154 1.387 . S
C153 C157 1.391 . S
C154 C153 1.387 . S
C154 C155 1.369 . S
C154 H163 0.929 . S
C155 N152 1.346 . S
C155 C154 1.369 . S
C155 H158 0.928 . S
C156 N152 1.345 . S
C156 C157 1.371 . S
C156 H159 0.931 . S
C157 C153 1.391 . S
C157 C156 1.371 . S
C157 H164 0.930 . S
H158 C155 0.928 . S
H159 C156 0.931 . S
H160 C136 0.930 . S
H161 C133 0.930 . S
H162 C142 0.930 . S
H163 C154 0.929 . S
H164 C157 0.930 . S
C165 C166 1.351 . S
C165 N168 1.368 . S
C165 H170 0.931 . S
C166 C165 1.351 . S
C166 N167 1.373 1_545 S
C166 H194 0.930 . S
N167 C166 1.373 1_565 S
N167 C169 1.340 . S
N168 C165 1.368 . S
N168 C169 1.321 1_545 S
N168 Co171 2.135 . S
C169 N167 1.340 . S
C169 N168 1.321 1_565 S
C169 H193 0.930 . S
H170 C165 0.931 . S
Co171 N168 2.135 . S
Co171 N174 2.121 . S
Co171 O179 2.055 . S
Co171 O182 2.039 . S
Co171 N185 2.140 . S
C172 O173 1.227 . S
C172 O182 1.265 . S
O173 C172 1.227 . S
N174 Co171 2.121 . S
N174 C176 1.375 . S
N174 C177 1.313 . S
C175 C176 1.338 . S
C175 N178 1.377 . S
C175 H195 0.930 . S
C176 N174 1.375 . S
C176 C175 1.338 . S
C176 H180 0.931 . S
C177 N174 1.313 . S
C177 N178 1.344 . S
C177 H181 0.930 . S
N178 C175 1.377 . S
N178 C177 1.344 . S
O179 Co171 2.055 . S
O179 C183 1.253 . S
H180 C176 0.931 . S
H181 C177 0.930 . S
O182 Co171 2.039 . S
O182 C172 1.265 . S
C183 O179 1.253 . S
C183 O184 1.227 . S
O184 C183 1.227 . S
N185 Co171 2.140 . S
N185 C188 1.346 . S
N185 C189 1.345 . S
C186 C187 1.387 . S
C186 C190 1.391 . S
C187 C186 1.387 . S
C187 C188 1.369 . S
C187 H196 0.929 . S
C188 N185 1.346 . S
C188 C187 1.369 . S
C188 H191 0.928 . S
C189 N185 1.345 . S
C189 C190 1.371 . S
C189 H192 0.931 . S
C190 C186 1.391 . S
C190 C189 1.371 . S
C190 H197 0.930 . S
H191 C188 0.928 . S
H192 C189 0.931 . S
H193 C169 0.930 . S
H194 C166 0.930 . S
H195 C175 0.930 . S
H196 C187 0.929 . S
H197 C190 0.930 . S
C198 C199 1.351 . S
C198 N201 1.368 . S
C198 H203 0.931 . S
C199 C198 1.351 . S
C199 N200 1.373 . S
C199 H227 0.930 1_554 S
N200 C199 1.373 . S
N200 C202 1.340 . S
N201 C198 1.368 . S
N201 C202 1.321 . S
N201 Co204 2.135 . S
C202 N200 1.340 . S
C202 N201 1.321 . S
C202 H226 0.930 . S
H203 C198 0.931 . S
Co204 N201 2.135 . S
Co204 N207 2.121 . S
Co204 O212 2.055 . S
Co204 O215 2.039 . S
Co204 N218 2.140 . S
C205 O206 1.227 . S
C205 O215 1.265 . S
O206 C205 1.227 . S
N207 Co204 2.121 . S
N207 C209 1.375 . S
N207 C210 1.313 . S
C208 C209 1.338 . S
C208 N211 1.377 . S
C208 H228 0.930 . S
C209 N207 1.375 . S
C209 C208 1.338 . S
C209 H213 0.931 . S
C210 N207 1.313 . S
C210 N211 1.344 . S
C210 H214 0.930 . S
N211 C208 1.377 . S
N211 C210 1.344 . S
O212 Co204 2.055 . S
O212 C216 1.253 . S
H213 C209 0.931 . S
H214 C210 0.930 . S
O215 Co204 2.039 . S
O215 C205 1.265 . S
C216 O212 1.253 . S
C216 O217 1.227 . S
O217 C216 1.227 . S
N218 Co204 2.140 . S
N218 C221 1.346 . S
N218 C222 1.345 . S
C219 C220 1.387 . S
C219 C223 1.391 . S
C220 C219 1.387 . S
C220 C221 1.369 . S
C220 H229 0.929 . S
C221 N218 1.346 . S
C221 C220 1.369 . S
C221 H224 0.928 . S
C222 N218 1.345 . S
C222 C223 1.371 . S
C222 H225 0.931 . S
C223 C219 1.391 . S
C223 C222 1.371 . S
C223 H230 0.930 . S
H224 C221 0.928 . S
H225 C222 0.931 . S
H226 C202 0.930 . S
H227 C199 0.930 1_556 S
H228 C208 0.930 . S
H229 C220 0.929 . S
H230 C223 0.930 . S
C231 C232 1.351 . S
C231 N234 1.368 . S
C231 H236 0.931 . S
C232 C231 1.351 . S
C232 N233 1.373 1_565 S
C232 H260 0.930 . S
N233 C232 1.373 1_545 S
N233 C235 1.340 . S
N234 C231 1.368 . S
N234 C235 1.321 1_565 S
N234 Co237 2.135 . S
C235 N233 1.340 . S
C235 N234 1.321 1_545 S
C235 H259 0.930 . S
H236 C231 0.931 . S
Co237 N234 2.135 . S
Co237 N240 2.121 . S
Co237 O245 2.055 . S
Co237 O248 2.039 . S
Co237 N251 2.140 . S
C238 O239 1.227 . S
C238 O248 1.265 . S
O239 C238 1.227 . S
N240 Co237 2.121 . S
N240 C242 1.375 . S
N240 C243 1.313 . S
C241 C242 1.338 . S
C241 N244 1.377 . S
C241 H261 0.930 . S
C242 N240 1.375 . S
C242 C241 1.338 . S
C242 H246 0.931 . S
C243 N240 1.313 . S
C243 N244 1.344 . S
C243 H247 0.930 . S
N244 C241 1.377 . S
N244 C243 1.344 . S
O245 Co237 2.055 . S
O245 C249 1.253 . S
H246 C242 0.931 . S
H247 C243 0.930 . S
O248 Co237 2.039 . S
O248 C238 1.265 . S
C249 O245 1.253 . S
C249 O250 1.227 . S
O250 C249 1.227 . S
N251 Co237 2.140 . S
N251 C254 1.346 . S
N251 C255 1.345 . S
C252 C253 1.387 . S
C252 C256 1.391 . S
C253 C252 1.387 . S
C253 C254 1.369 . S
C253 H262 0.929 . S
C254 N251 1.346 . S
C254 C253 1.369 . S
C254 H257 0.928 . S
C255 N251 1.345 . S
C255 C256 1.371 . S
C255 H258 0.931 . S
C256 C252 1.391 . S
C256 C255 1.371 . S
C256 H263 0.930 . S
H257 C254 0.928 . S
H258 C255 0.931 . S
H259 C235 0.930 . S
H260 C232 0.930 . S
H261 C241 0.930 . S
H262 C253 0.929 . S
H263 C256 0.930 . S
H264 C270 0.930 . S
H265 C274 0.930 . S
H266 C279 0.929 . S
H267 C277 0.929 . S
H268 C272 0.929 . S
H269 C278 0.929 . S
C270 H264 0.930 . S
C270 C271 1.367 . S
C270 C278 1.378 . S
C271 C270 1.367 . S
C271 C279 1.433 . S
C272 H268 0.929 . S
C272 C274 1.378 . S
C272 C276 1.350 . S
C273 C276 1.463 . S
C273 C278 1.350 . S
C273 N281 1.427 . S
C274 H265 0.930 . S
C274 C272 1.378 . S
C274 C275 1.367 . S
C275 C274 1.367 . S
C275 C277 1.433 . S
C276 C272 1.350 . S
C276 C273 1.463 . S
C276 N280 1.427 . S
C277 H267 0.929 . S
C277 C275 1.433 . S
C277 N280 1.384 . S
C278 H269 0.929 . S
C278 C270 1.378 . S
C278 C273 1.350 . S
C279 H266 0.929 . S
C279 C271 1.433 . S
C279 N281 1.384 . S
N280 C276 1.427 . S
N280 C277 1.384 . S
N281 C273 1.427 . S
N281 C279 1.384 . S
H282 C288 0.930 . S
H283 C292 0.930 . S
H284 C297 0.929 . S
H285 C295 0.929 . S
H286 C290 0.929 . S
H287 C296 0.929 1_655 S
C288 H282 0.930 . S
C288 C289 1.367 1_655 S
C288 C296 1.378 1_655 S
C289 C288 1.367 1_455 S
C289 C297 1.433 . S
C290 H286 0.929 . S
C290 C292 1.378 . S
C290 C294 1.350 . S
C291 C294 1.463 . S
C291 C296 1.350 . S
C291 N299 1.427 . S
C292 H283 0.930 . S
C292 C290 1.378 . S
C292 C293 1.367 . S
C293 C292 1.367 . S
C293 C295 1.433 . S
C294 C290 1.350 . S
C294 C291 1.463 . S
C294 N298 1.427 . S
C295 H285 0.929 . S
C295 C293 1.433 . S
C295 N298 1.384 . S
C296 H287 0.929 1_455 S
C296 C288 1.378 1_455 S
C296 C291 1.350 . S
C297 H284 0.929 . S
C297 C289 1.433 . S
C297 N299 1.384 . S
N298 C294 1.427 . S
N298 C295 1.384 . S
N299 C291 1.427 . S
N299 C297 1.384 . S
H300 C306 0.930 . S
H301 C310 0.930 . S
H302 C315 0.929 . S
H303 C313 0.929 . S
H304 C308 0.929 . S
H305 C314 0.929 . S
C306 H300 0.930 . S
C306 C307 1.367 . S
C306 C314 1.378 . S
C307 C306 1.367 . S
C307 C315 1.433 . S
C308 H304 0.929 . S
C308 C310 1.378 . S
C308 C312 1.350 . S
C309 C312 1.463 . S
C309 C314 1.350 . S
C309 N317 1.427 . S
C310 H301 0.930 . S
C310 C308 1.378 . S
C310 C311 1.367 . S
C311 C310 1.367 . S
C311 C313 1.433 . S
C312 C308 1.350 . S
C312 C309 1.463 . S
C312 N316 1.427 . S
C313 H303 0.929 . S
C313 C311 1.433 . S
C313 N316 1.384 . S
C314 H305 0.929 . S
C314 C306 1.378 . S
C314 C309 1.350 . S
C315 H302 0.929 . S
C315 C307 1.433 . S
C315 N317 1.384 . S
N316 C312 1.427 . S
N316 C313 1.384 . S
N317 C309 1.427 . S
N317 C315 1.384 . S
H318 C324 0.930 . S
H319 C328 0.929 1_455 S
H320 C333 0.929 . S
H321 C331 0.929 . S
H322 C326 0.929 . S
H323 C332 0.929 . S
C324 H318 0.930 . S
C324 C325 1.339 1_554 S
C324 C332 1.378 . S
C325 C324 1.339 1_556 S
C325 C333 1.437 . S
C326 H322 0.929 . S
C326 C328 1.379 . S
C326 C330 1.350 . S
C327 C330 1.463 . S
C327 C332 1.350 . S
C327 N335 1.427 . S
C328 H319 0.929 1_655 S
C328 C326 1.379 . S
C328 C329 1.367 . S
C329 C328 1.367 . S
C329 C331 1.433 . S
C330 C326 1.350 . S
C330 C327 1.463 . S
C330 N334 1.427 . S
C331 H321 0.929 . S
C331 C329 1.433 . S
C331 N334 1.384 . S
C332 H323 0.929 . S
C332 C324 1.378 . S
C332 C327 1.350 . S
C333 H320 0.929 . S
C333 C325 1.437 . S
C333 N335 1.384 1_556 S
N334 C330 1.427 . S
N334 C331 1.384 . S
N335 C327 1.427 . S
N335 C333 1.384 1_554 S
H336 C342 0.930 . S
H337 C346 0.930 . S
H338 C351 0.929 . S
H339 C349 0.929 . S
H340 C344 0.929 . S
H341 C350 0.929 . S
C342 H336 0.930 . S
C342 C343 1.367 . S
C342 C350 1.378 . S
C343 C342 1.367 . S
C343 C351 1.433 . S
C344 H340 0.929 . S
C344 C346 1.378 . S
C344 C348 1.350 . S
C345 C348 1.463 . S
C345 C350 1.350 . S
C345 N353 1.427 . S
C346 H337 0.930 . S
C346 C344 1.378 . S
C346 C347 1.367 . S
C347 C346 1.367 . S
C347 C349 1.433 1_545 S
C348 C344 1.350 . S
C348 C345 1.463 . S
C348 N352 1.427 . S
C349 H339 0.929 . S
C349 C347 1.433 1_565 S
C349 N352 1.384 1_565 S
C350 H341 0.929 . S
C350 C342 1.378 . S
C350 C345 1.350 . S
C351 H338 0.929 . S
C351 C343 1.433 . S
C351 N353 1.384 . S
N352 C348 1.427 . S
N352 C349 1.384 1_545 S
N353 C345 1.427 . S
N353 C351 1.384 . S
H354 C360 0.930 . S
H355 C364 0.930 . S
H356 C369 0.929 . S
H357 C367 0.929 . S
H358 C362 0.929 . S
H359 C368 0.929 . S
C360 H354 0.930 . S
C360 C361 1.367 . S
C360 C368 1.378 . S
C361 C360 1.367 . S
C361 C369 1.433 . S
C362 H358 0.929 . S
C362 C364 1.378 . S
C362 C366 1.350 . S
C363 C366 1.463 . S
C363 C368 1.350 . S
C363 N371 1.427 . S
C364 H355 0.930 . S
C364 C362 1.378 . S
C364 C365 1.367 . S
C365 C364 1.367 . S
C365 C367 1.433 . S
C366 C362 1.350 . S
C366 C363 1.463 . S
C366 N370 1.427 . S
C367 H357 0.929 . S
C367 C365 1.433 . S
C367 N370 1.384 . S
C368 H359 0.929 . S
C368 C360 1.378 . S
C368 C363 1.350 . S
C369 H356 0.929 . S
C369 C361 1.433 . S
C369 N371 1.384 . S
N370 C366 1.427 . S
N370 C367 1.384 . S
N371 C363 1.427 . S
N371 C369 1.384 . S
H372 C378 0.930 . S
H373 C382 0.930 . S
H374 C387 0.924 1_554 S
H375 C385 0.929 . S
H376 C380 0.929 1_545 S
H377 C386 0.929 . S
C378 H372 0.930 . S
C378 C379 1.340 1_556 S
C378 C386 1.378 . S
C379 C378 1.340 1_554 S
C379 C387 1.432 1_554 S
C380 H376 0.929 1_565 S
C380 C382 1.378 1_565 S
C380 C384 1.350 . S
C381 C384 1.463 . S
C381 C386 1.350 . S
C381 N389 1.427 . S
C382 H373 0.930 . S
C382 C380 1.378 1_545 S
C382 C383 1.367 1_545 S
C383 C382 1.367 1_565 S
C383 C385 1.433 . S
C384 C380 1.350 . S
C384 C381 1.463 . S
C384 N388 1.427 . S
C385 H375 0.929 . S
C385 C383 1.433 . S
C385 N388 1.384 . S
C386 H377 0.929 . S
C386 C378 1.378 . S
C386 C381 1.350 . S
C387 H374 0.924 1_556 S
C387 C379 1.432 1_556 S
C387 N389 1.389 . S
N388 C384 1.427 . S
N388 C385 1.384 . S
N389 C381 1.427 . S
N389 C387 1.389 . S
H390 C396 0.930 . S
H391 C400 0.930 . S
H392 C405 0.929 . S
H393 C403 0.929 . S
H394 C398 0.929 . S
H395 C404 0.929 . S
C396 H390 0.930 . S
C396 C397 1.367 . S
C396 C404 1.378 . S
C397 C396 1.367 . S
C397 C405 1.433 . S
C398 H394 0.929 . S
C398 C400 1.378 . S
C398 C402 1.350 . S
C399 C402 1.463 . S
C399 C404 1.350 . S
C399 N407 1.427 . S
C400 H391 0.930 . S
C400 C398 1.378 . S
C400 C401 1.367 . S
C401 C400 1.367 . S
C401 C403 1.433 . S
C402 C398 1.350 . S
C402 C399 1.463 . S
C402 N406 1.427 . S
C403 H393 0.929 . S
C403 C401 1.433 . S
C403 N406 1.384 . S
C404 H395 0.929 . S
C404 C396 1.378 . S
C404 C399 1.350 . S
C405 H392 0.929 . S
C405 C397 1.433 . S
C405 N407 1.384 . S
N406 C402 1.427 . S
N406 C403 1.384 . S
N407 C399 1.427 . S
N407 C405 1.384 . S
H408 C414 0.930 . S
H409 C418 0.930 . S
H410 C423 0.929 . S
H411 C421 0.929 . S
H412 C416 0.929 . S
H413 C422 0.929 . S
C414 H408 0.930 . S
C414 C415 1.367 . S
C414 C422 1.378 1_565 S
C415 C414 1.367 . S
C415 C423 1.433 . S
C416 H412 0.929 . S
C416 C418 1.378 . S
C416 C420 1.350 . S
C417 C420 1.463 . S
C417 C422 1.350 . S
C417 N425 1.427 1_545 S
C418 H409 0.930 . S
C418 C416 1.378 . S
C418 C419 1.367 . S
C419 C418 1.367 . S
C419 C421 1.433 . S
C420 C416 1.350 . S
C420 C417 1.463 . S
C420 N424 1.427 . S
C421 H411 0.929 . S
C421 C419 1.433 . S
C421 N424 1.384 . S
C422 H413 0.929 . S
C422 C414 1.378 1_545 S
C422 C417 1.350 . S
C423 H410 0.929 . S
C423 C415 1.433 . S
C423 N425 1.384 . S
N424 C420 1.427 . S
N424 C421 1.384 . S
N425 C417 1.427 1_565 S
N425 C423 1.384 . S
H426 C432 0.930 . S
H427 C436 0.930 . S
H428 C441 0.929 . S
H429 C439 0.929 . S
H430 C434 0.929 . S
H431 C440 0.929 . S
C432 H426 0.930 . S
C432 C433 1.367 . S
C432 C440 1.378 . S
C433 C432 1.367 . S
C433 C441 1.433 . S
C434 H430 0.929 . S
C434 C436 1.378 . S
C434 C438 1.350 . S
C435 C438 1.463 . S
C435 C440 1.350 . S
C435 N443 1.427 . S
C436 H427 0.930 . S
C436 C434 1.378 . S
C436 C437 1.367 . S
C437 C436 1.367 . S
C437 C439 1.433 . S
C438 C434 1.350 . S
C438 C435 1.463 . S
C438 N442 1.427 . S
C439 H429 0.929 . S
C439 C437 1.433 . S
C439 N442 1.384 . S
C440 H431 0.929 . S
C440 C432 1.378 . S
C440 C435 1.350 . S
C441 H428 0.929 . S
C441 C433 1.433 . S
C441 N443 1.384 . S
N442 C438 1.427 . S
N442 C439 1.384 . S
N443 C435 1.427 . S
N443 C441 1.384 . S
H444 C450 0.930 . S
H445 C454 0.930 . S
H446 C459 0.929 . S
H447 C457 0.929 . S
H448 C452 0.929 . S
H449 C458 0.929 . S
C450 H444 0.930 . S
C450 C451 1.367 . S
C450 C458 1.378 1_545 S
C451 C450 1.367 . S
C451 C459 1.433 . S
C452 H448 0.929 . S
C452 C454 1.378 . S
C452 C456 1.350 . S
C453 C456 1.463 . S
C453 C458 1.350 . S
C453 N461 1.427 1_565 S
C454 H445 0.930 . S
C454 C452 1.378 . S
C454 C455 1.367 . S
C455 C454 1.367 . S
C455 C457 1.433 . S
C456 C452 1.350 . S
C456 C453 1.463 . S
C456 N460 1.427 . S
C457 H447 0.929 . S
C457 C455 1.433 . S
C457 N460 1.384 . S
C458 H449 0.929 . S
C458 C450 1.378 1_565 S
C458 C453 1.350 . S
C459 H446 0.929 . S
C459 C451 1.433 . S
C459 N461 1.384 . S
N460 C456 1.427 . S
N460 C457 1.384 . S
N461 C453 1.427 1_545 S
N461 C459 1.384 . S
H462 C468 0.930 . S
H463 C472 0.930 . S
H464 C477 0.929 . S
H465 C475 0.929 . S
H466 C470 0.929 . S
H467 C476 0.929 . S
C468 H462 0.930 . S
C468 C469 1.367 . S
C468 C476 1.378 . S
C469 C468 1.367 . S
C469 C477 1.433 . S
C470 H466 0.929 . S
C470 C472 1.378 . S
C470 C474 1.350 . S
C471 C474 1.463 . S
C471 C476 1.350 . S
C471 N479 1.427 . S
C472 H463 0.930 . S
C472 C470 1.378 . S
C472 C473 1.367 . S
C473 C472 1.367 . S
C473 C475 1.433 . S
C474 C470 1.350 . S
C474 C471 1.463 . S
C474 N478 1.427 . S
C475 H465 0.929 . S
C475 C473 1.433 . S
C475 N478 1.384 . S
C476 H467 0.929 . S
C476 C468 1.378 . S
C476 C471 1.350 . S
C477 H464 0.929 . S
C477 C469 1.433 . S
C477 N479 1.384 . S
N478 C474 1.427 . S
N478 C475 1.384 . S
N479 C471 1.427 . S
N479 C477 1.384 . S
H480 C486 0.930 . S
H481 C490 0.930 . S
H482 C495 0.929 . S
H483 C493 0.929 . S
H484 C488 0.929 . S
H485 C494 0.929 . S
C486 H480 0.930 . S
C486 C487 1.367 . S
C486 C494 1.378 . S
C487 C486 1.367 . S
C487 C495 1.433 . S
C488 H484 0.929 . S
C488 C490 1.378 . S
C488 C492 1.350 . S
C489 C492 1.463 . S
C489 C494 1.350 . S
C489 N497 1.427 . S
C490 H481 0.930 . S
C490 C488 1.378 . S
C490 C491 1.367 . S
C491 C490 1.367 . S
C491 C493 1.433 . S
C492 C488 1.350 . S
C492 C489 1.463 . S
C492 N496 1.427 . S
C493 H483 0.929 . S
C493 C491 1.433 . S
C493 N496 1.384 . S
C494 H485 0.929 . S
C494 C486 1.378 . S
C494 C489 1.350 . S
C495 H482 0.929 . S
C495 C487 1.433 . S
C495 N497 1.384 . S
N496 C492 1.427 . S
N496 C493 1.384 . S
N497 C489 1.427 . S
N497 C495 1.384 . S
H498 C504 0.930 . S
H499 C508 0.930 . S
H500 C513 0.929 . S
H501 C511 0.929 . S
H502 C506 0.929 . S
H503 C512 0.929 . S
C504 H498 0.930 . S
C504 C505 1.367 . S
C504 C512 1.378 . S
C505 C504 1.367 . S
C505 C513 1.433 . S
C506 H502 0.929 . S
C506 C508 1.378 1_455 S
C506 C510 1.350 . S
C507 C510 1.463 . S
C507 C512 1.350 . S
C507 N515 1.427 . S
C508 H499 0.930 . S
C508 C506 1.378 1_655 S
C508 C509 1.367 . S
C509 C508 1.367 . S
C509 C511 1.433 . S
C510 C506 1.350 . S
C510 C507 1.463 . S
C510 N514 1.427 . S
C511 H501 0.929 . S
C511 C509 1.433 . S
C511 N514 1.384 1_655 S
C512 H503 0.929 . S
C512 C504 1.378 . S
C512 C507 1.350 . S
C513 H500 0.929 . S
C513 C505 1.433 . S
C513 N515 1.384 . S
N514 C510 1.427 . S
N514 C511 1.384 1_455 S
N515 C507 1.427 . S
N515 C513 1.384 . S
H516 C522 0.930 . S
H517 C526 0.930 . S
H518 C531 0.929 . S
H519 C529 0.929 . S
H520 C524 0.929 . S
H521 C530 0.929 . S
C522 H516 0.930 . S
C522 C523 1.367 . S
C522 C530 1.378 . S
C523 C522 1.367 . S
C523 C531 1.433 . S
C524 H520 0.929 . S
C524 C526 1.378 . S
C524 C528 1.350 . S
C525 C528 1.463 . S
C525 C530 1.350 . S
C525 N533 1.427 . S
C526 H517 0.930 . S
C526 C524 1.378 . S
C526 C527 1.367 . S
C527 C526 1.367 . S
C527 C529 1.433 . S
C528 C524 1.350 . S
C528 C525 1.463 . S
C528 N532 1.427 . S
C529 H519 0.929 . S
C529 C527 1.433 . S
C529 N532 1.384 . S
C530 H521 0.929 . S
C530 C522 1.378 . S
C530 C525 1.350 . S
C531 H518 0.929 . S
C531 C523 1.433 . S
C531 N533 1.384 . S
N532 C528 1.427 . S
N532 C529 1.384 . S
N533 C525 1.427 . S
N533 C531 1.384 . S
H534 C540 0.930 . S
H535 C544 0.930 . S
H536 C549 0.929 . S
H537 C547 0.929 . S
H538 C542 0.928 1_655 S
H539 C548 0.929 . S
C540 H534 0.930 . S
C540 C541 1.367 . S
C540 C548 1.378 . S
C541 C540 1.367 . S
C541 C549 1.433 . S
C542 H538 0.928 1_455 S
C542 C544 1.378 . S
C542 C546 1.350 1_455 S
C543 C546 1.463 . S
C543 C548 1.350 . S
C543 N551 1.427 . S
C544 H535 0.930 . S
C544 C542 1.378 . S
C544 C545 1.367 . S
C545 C544 1.367 . S
C545 C547 1.433 . S
C546 C542 1.350 1_655 S
C546 C543 1.463 . S
C546 N550 1.427 . S
C547 H537 0.929 . S
C547 C545 1.433 . S
C547 N550 1.384 1_455 S
C548 H539 0.929 . S
C548 C540 1.378 . S
C548 C543 1.350 . S
C549 H536 0.929 . S
C549 C541 1.433 . S
C549 N551 1.384 . S
N550 C546 1.427 . S
N550 C547 1.384 1_655 S
N551 C543 1.427 . S
N551 C549 1.384 . S
H552 C558 0.930 . S
H553 C562 0.930 . S
H554 C567 0.929 . S
H555 C565 0.929 . S
H556 C560 0.929 . S
H557 C566 0.929 . S
C558 H552 0.930 . S
C558 C559 1.367 . S
C558 C566 1.378 . S
C559 C558 1.367 . S
C559 C567 1.433 . S
C560 H556 0.929 . S
C560 C562 1.378 . S
C560 C564 1.350 . S
C561 C564 1.463 . S
C561 C566 1.350 . S
C561 N569 1.427 . S
C562 H553 0.930 . S
C562 C560 1.378 . S
C562 C563 1.367 . S
C563 C562 1.367 . S
C563 C565 1.433 . S
C564 C560 1.350 . S
C564 C561 1.463 . S
C564 N568 1.427 . S
C565 H555 0.929 . S
C565 C563 1.433 . S
C565 N568 1.384 . S
C566 H557 0.929 . S
C566 C558 1.378 . S
C566 C561 1.350 . S
C567 H554 0.929 . S
C567 C559 1.433 . S
C567 N569 1.384 . S
N568 C564 1.427 . S
N568 C565 1.384 . S
N569 C561 1.427 . S
N569 C567 1.384 . S
H570 C576 0.930 . S
H571 C580 0.930 . S
H572 C585 0.929 . S
H573 C583 0.929 . S
H574 C578 0.929 . S
H575 C584 0.929 . S
C576 H570 0.930 . S
C576 C577 1.367 . S
C576 C584 1.378 . S
C577 C576 1.367 . S
C577 C585 1.433 . S
C578 H574 0.929 . S
C578 C580 1.378 . S
C578 C582 1.350 . S
C579 C582 1.463 . S
C579 C584 1.350 . S
C579 N587 1.427 . S
C580 H571 0.930 . S
C580 C578 1.378 . S
C580 C581 1.367 . S
C581 C580 1.367 . S
C581 C583 1.433 . S
C582 C578 1.350 . S
C582 C579 1.463 . S
C582 N586 1.427 . S
C583 H573 0.929 . S
C583 C581 1.433 . S
C583 N586 1.384 . S
C584 H575 0.929 . S
C584 C576 1.378 . S
C584 C579 1.350 . S
C585 H572 0.929 . S
C585 C577 1.433 . S
C585 N587 1.384 . S
N586 C582 1.427 . S
N586 C583 1.384 . S
N587 C579 1.427 . S
N587 C585 1.384 . S
H588 C594 0.930 . S
H589 C598 0.930 . S
H590 C603 0.929 . S
H591 C601 0.929 . S
H592 C596 0.929 . S
H593 C602 0.929 . S
C594 H588 0.930 . S
C594 C595 1.367 . S
C594 C602 1.378 . S
C595 C594 1.367 . S
C595 C603 1.433 . S
C596 H592 0.929 . S
C596 C598 1.378 . S
C596 C600 1.350 . S
C597 C600 1.463 . S
C597 C602 1.350 . S
C597 N605 1.427 . S
C598 H589 0.930 . S
C598 C596 1.378 . S
C598 C599 1.367 . S
C599 C598 1.367 . S
C599 C601 1.433 . S
C600 C596 1.350 . S
C600 C597 1.463 . S
C600 N604 1.427 . S
C601 H591 0.929 . S
C601 C599 1.433 . S
C601 N604 1.384 . S
C602 H593 0.929 . S
C602 C594 1.378 . S
C602 C597 1.350 . S
C603 H590 0.929 . S
C603 C595 1.433 . S
C603 N605 1.384 . S
N604 C600 1.427 . S
N604 C601 1.384 . S
N605 C597 1.427 . S
N605 C603 1.384 . S
H606 C612 0.930 . S
H607 C616 0.930 . S
H608 C621 0.929 . S
H609 C619 0.929 . S
H610 C614 0.929 . S
H611 C620 0.929 . S
C612 H606 0.930 . S
C612 C613 1.367 . S
C612 C620 1.378 1_556 S
C613 C612 1.367 . S
C613 C621 1.433 . S
C614 H610 0.929 . S
C614 C616 1.378 1_556 S
C614 C618 1.350 1_556 S
C615 C618 1.463 1_556 S
C615 C620 1.350 1_556 S
C615 N623 1.427 . S
C616 H607 0.930 . S
C616 C614 1.378 1_554 S
C616 C617 1.367 . S
C617 C616 1.367 . S
C617 C619 1.433 . S
C618 C614 1.350 1_554 S
C618 C615 1.463 1_554 S
C618 N622 1.427 . S
C619 H609 0.929 . S
C619 C617 1.433 . S
C619 N622 1.384 . S
C620 H611 0.929 . S
C620 C612 1.378 1_554 S
C620 C615 1.350 1_554 S
C621 H608 0.929 . S
C621 C613 1.433 . S
C621 N623 1.384 . S
N622 C618 1.427 . S
N622 C619 1.384 . S
N623 C615 1.427 . S
N623 C621 1.384 . S
C271 C18 1.192 . S
C275 C40 1.192 . S
C289 C73 1.191 1_455 S
C293 C51 1.193 . S
C307 C106 1.197 . S
C311 C84 1.192 . S
C325 C117 1.224 . S
C329 C7 1.190 1_655 S
C343 C150 1.196 . S
C347 C238 1.197 1_545 S
C361 C183 1.192 . S
C365 C139 1.195 . S
C379 C216 1.225 . S
C383 C172 1.191 1_565 S
C397 C249 1.198 . S
C401 C205 1.190 . S
C415 N211 1.606 . S
C419 C21 1.644 . S
C433 N244 1.600 . S
C437 C54 1.643 . S
C451 N145 1.601 . S
C455 C87 1.643 . S
C469 N178 1.610 . S
C473 C120 1.647 . S
C487 C153 1.643 . S
C491 N79 1.603 . S
C505 C186 1.647 . S
C509 N112 1.610 . S
C523 C219 1.647 . S
C527 N13 1.610 . S
C541 C252 1.645 . S
C545 N46 1.602 . S
C559 N233 1.246 . S
C563 N2 1.246 . S
C577 N134 1.227 . S
C581 N35 1.227 . S
C595 N68 1.230 . S
C599 N167 1.229 . S
C613 N101 1.231 . S
C617 N200 1.230 . S
