# Generated by pormake.
# Topology crb, (4)-cn, num edge types: 1
# Building blocks:
#     Node 0, Type 0, BuildingBlock: NAHDIM_clean_sbu_0, # of connection points: 4
#     Node 1, Type 0, BuildingBlock: NAHDIM_clean_sbu_0, # of connection points: 4
#     Node 2, Type 0, BuildingBlock: NAHDIM_clean_sbu_0, # of connection points: 4
#     Node 3, Type 0, BuildingBlock: NAHDIM_clean_sbu_0, # of connection points: 4
#     Node 4, Type 0, BuildingBlock: NAHDIM_clean_sbu_0, # of connection points: 4
#     Node 5, Type 0, BuildingBlock: NAHDIM_clean_sbu_0, # of connection points: 4
#     Node 6, Type 0, BuildingBlock: NAHDIM_clean_sbu_0, # of connection points: 4
#     Node 7, Type 0, BuildingBlock: NAHDIM_clean_sbu_0, # of connection points: 4
#     Edge 8, Type (0, 0), BuildingBlock: XIVTED_clean_linker_0, # of connection points: 2
#     Edge 9, Type (0, 0), BuildingBlock: XIVTED_clean_linker_0, # of connection points: 2
#     Edge 10, Type (0, 0), BuildingBlock: XIVTED_clean_linker_0, # of connection points: 2
#     Edge 11, Type (0, 0), BuildingBlock: XIVTED_clean_linker_0, # of connection points: 2
#     Edge 12, Type (0, 0), BuildingBlock: XIVTED_clean_linker_0, # of connection points: 2
#     Edge 13, Type (0, 0), BuildingBlock: XIVTED_clean_linker_0, # of connection points: 2
#     Edge 14, Type (0, 0), BuildingBlock: XIVTED_clean_linker_0, # of connection points: 2
#     Edge 15, Type (0, 0), BuildingBlock: XIVTED_clean_linker_0, # of connection points: 2
#     Edge 16, Type (0, 0), BuildingBlock: XIVTED_clean_linker_0, # of connection points: 2
#     Edge 17, Type (0, 0), BuildingBlock: XIVTED_clean_linker_0, # of connection points: 2
#     Edge 18, Type (0, 0), BuildingBlock: XIVTED_clean_linker_0, # of connection points: 2
#     Edge 19, Type (0, 0), BuildingBlock: XIVTED_clean_linker_0, # of connection points: 2
#     Edge 20, Type (0, 0), BuildingBlock: XIVTED_clean_linker_0, # of connection points: 2
#     Edge 21, Type (0, 0), BuildingBlock: XIVTED_clean_linker_0, # of connection points: 2
#     Edge 22, Type (0, 0), BuildingBlock: XIVTED_clean_linker_0, # of connection points: 2
#     Edge 23, Type (0, 0), BuildingBlock: XIVTED_clean_linker_0, # of connection points: 2
# Relax obj value: 0.033
# Max RMSD: 0.066
# Mean RMSD: 0.066
data_MOF--net-crb--node1-NAHDIM_clean_sbu_0--edge1-XIVTED_clean_linker_0
_symmetry_space_group_name_H-M    P1
_symmetry_Int_Tables_number       1
_symmetry_cell_setting            triclinic
loop_
_symmetry_equiv_pos_as_xyz
'x, y, z'
_cell_length_a     42.19933
_cell_length_b     44.091392
_cell_length_c     24.734505
_cell_angle_alpha  90.075398
_cell_angle_beta   89.993167
_cell_angle_gamma 89.947109
loop_
_atom_site_label
_atom_site_type_symbol
_atom_site_fract_x
_atom_site_fract_y
_atom_site_fract_z
_atom_type_partial_charge
C0 C 0.3234 0.29521 0.19823 0.0
O1 O 0.35423 0.29658 0.19146 0.0
O2 O 0.36836 0.32127 0.08578 0.0
Zn3 Zn 0.32105 0.32495 0.09293 0.0
O4 O 0.30089 0.3038 0.02967 0.0
C5 C 0.31412 0.38387 0.04733 0.0
O6 O 0.32431 0.36917 0.00447 0.0
O7 O 0.30521 0.30603 0.16207 0.0
C8 C 0.27299 0.31013 0.014 0.0
O9 O 0.25665 0.33087 0.04009 0.0
C10 C 0.3818 0.29693 0.0705 0.0
O11 O 0.36445 0.27284 0.0605 0.0
O12 O 0.31023 0.36942 0.09126 0.0
C13 C 0.67798 0.30152 0.89461 0.0
O14 O 0.64807 0.3098 0.89537 0.0
O15 O 0.63188 0.32336 0.00998 0.0
Zn16 Zn 0.67924 0.32625 0.00398 0.0
O17 O 0.69868 0.30518 0.06772 0.0
C18 C 0.68097 0.38839 0.96981 0.0
O19 O 0.66427 0.37746 0.92942 0.0
O20 O 0.69526 0.3066 0.93572 0.0
C21 C 0.70027 0.31854 0.11316 0.0
O22 O 0.68907 0.34624 0.11777 0.0
C23 C 0.61729 0.29828 0.01396 0.0
O24 O 0.63349 0.27283 0.01283 0.0
O25 O 0.69092 0.3704 0.0061 0.0
C26 C 0.68187 0.7066 0.17729 0.0
O27 O 0.65849 0.72007 0.15171 0.0
O28 O 0.62991 0.67353 0.08332 0.0
Zn29 Zn 0.67733 0.66814 0.08533 0.0
O30 O 0.69765 0.69197 0.02547 0.0
C31 C 0.68066 0.61291 0.02747 0.0
O32 O 0.66967 0.63107 0.9898 0.0
O33 O 0.69422 0.68295 0.15669 0.0
C34 C 0.72563 0.68568 0.01016 0.0
O35 O 0.74132 0.66402 0.03492 0.0
C36 C 0.61547 0.68263 0.04126 0.0
O37 O 0.63187 0.68936 -0.00224 0.0
O38 O 0.68658 0.62374 0.07405 0.0
C39 C 0.31339 0.71134 0.89643 0.0
O40 O 0.3371 0.72367 0.92293 0.0
O41 O 0.36398 0.67534 0.98874 0.0
Zn42 Zn 0.31676 0.66955 0.98454 0.0
O43 O 0.29629 0.69101 0.04723 0.0
C44 C 0.30584 0.61056 0.03161 0.0
O45 O 0.30852 0.62581 0.07703 0.0
O46 O 0.30052 0.68749 0.91509 0.0
C47 C 0.26732 0.68708 0.05929 0.0
O48 O 0.25007 0.66854 0.0299 0.0
C49 C 0.37817 0.67518 0.03404 0.0
O50 O 0.36162 0.67135 0.07849 0.0
O51 O 0.30784 0.62463 0.98691 0.0
C52 C 0.81528 0.78127 0.67597 0.0
O53 O 0.83962 0.76911 0.65088 0.0
O54 O 0.86542 0.81802 0.58274 0.0
Zn55 Zn 0.818 0.82234 0.58629 0.0
O56 O 0.79796 0.80041 0.52372 0.0
C57 C 0.80782 0.88141 0.53966 0.0
O58 O 0.8142 0.86687 0.49457 0.0
O59 O 0.80198 0.80451 0.65577 0.0
C60 C 0.76919 0.80506 0.51109 0.0
O61 O 0.75239 0.8244 0.53966 0.0
C62 C 0.87982 0.81599 0.53777 0.0
O63 O 0.86334 0.81626 0.49272 0.0
O64 O 0.8075 0.86685 0.58397 0.0
C65 C 0.18196 0.78682 0.39373 0.0
O66 O 0.15701 0.77519 0.41774 0.0
O67 O 0.13179 0.82254 0.48753 0.0
Zn68 Zn 0.17921 0.82719 0.48456 0.0
O69 O 0.19891 0.80495 0.54707 0.0
C70 C 0.18877 0.88565 0.53362 0.0
O71 O 0.18244 0.87031 0.57781 0.0
O72 O 0.19566 0.80957 0.41493 0.0
C73 C 0.22726 0.80992 0.56187 0.0
O74 O 0.24434 0.82987 0.53534 0.0
C75 C 0.11738 0.81953 0.53232 0.0
O76 O 0.13382 0.81925 0.57741 0.0
O77 O 0.18932 0.87181 0.48851 0.0
C78 C 0.18408 0.21311 0.67978 0.0
O79 O 0.1604 0.22567 0.65354 0.0
O80 O 0.1318 0.17503 0.59196 0.0
Zn81 Zn 0.17927 0.17077 0.59266 0.0
O82 O 0.19818 0.19258 0.52904 0.0
C83 C 0.19089 0.11254 0.54404 0.0
O84 O 0.18639 0.12805 0.49938 0.0
O85 O 0.19639 0.18891 0.66129 0.0
C86 C 0.228 0.19284 0.52191 0.0
O87 O 0.24631 0.17876 0.55676 0.0
C88 C 0.11631 0.17709 0.54807 0.0
O89 O 0.13168 0.17687 0.50188 0.0
O90 O 0.18966 0.12623 0.58926 0.0
C91 C 0.79625 0.21618 0.43594 0.0
O92 O 0.80646 0.23202 0.47746 0.0
O93 O 0.86315 0.17377 0.5046 0.0
Zn94 Zn 0.81594 0.16782 0.50405 0.0
O95 O 0.79666 0.18751 0.56972 0.0
C96 C 0.80342 0.10832 0.54706 0.0
O97 O 0.80485 0.1229 0.59335 0.0
O98 O 0.79798 0.18743 0.43756 0.0
C99 C 0.76695 0.19192 0.57264 0.0
O100 O 0.74878 0.183 0.53254 0.0
C101 C 0.87873 0.17252 0.54849 0.0
O102 O 0.86354 0.1677 0.59404 0.0
O103 O 0.80691 0.12301 0.50329 0.0
H104 H 0.29881 0.42242 0.13047 0.0
H105 H 0.30548 0.5713 0.94557 0.0
H106 H 0.31747 0.42091 0.95886 0.0
H107 H 0.29938 0.57358 0.11979 0.0
H108 H 0.30405 0.51595 0.94865 0.0
H109 H 0.2932 0.47756 0.12619 0.0
C110 C 0.30155 0.43364 0.09183 0.0
C111 C 0.30884 0.41702 0.045 0.0
C112 C 0.30288 0.52856 0.98619 0.0
C113 C 0.30245 0.48014 0.03985 0.0
C114 C 0.30362 0.56019 0.98447 0.0
C115 C 0.30277 0.57713 0.03254 0.0
C116 C 0.30119 0.51371 0.03633 0.0
C117 C 0.3003 0.56146 0.08173 0.0
C118 C 0.2984 0.46514 0.08944 0.0
C119 C 0.31204 0.4328 0.99605 0.0
N120 N 0.29972 0.53064 0.08237 0.0
N121 N 0.30893 0.46346 0.99479 0.0
H122 H 0.41917 0.24815 0.04389 0.0
H123 H 0.57784 0.34691 0.02705 0.0
H124 H 0.42362 0.344 0.07904 0.0
H125 H 0.57743 0.24912 0.01744 0.0
H126 H 0.52067 0.34625 0.04085 0.0
H127 H 0.47657 0.24799 0.02941 0.0
C128 C 0.43219 0.26914 0.04866 0.0
C129 C 0.41655 0.29613 0.06272 0.0
C130 C 0.53305 0.32491 0.03576 0.0
C131 C 0.48213 0.29612 0.04596 0.0
C132 C 0.56573 0.32527 0.02772 0.0
C133 C 0.5825 0.29801 0.02117 0.0
C134 C 0.51686 0.29711 0.03701 0.0
C135 C 0.56547 0.27067 0.02244 0.0
C136 C 0.46495 0.26901 0.04042 0.0
C137 C 0.43464 0.32265 0.06833 0.0
N138 N 0.53356 0.27091 0.03017 0.0
N139 N 0.46641 0.32197 0.05979 0.0
H140 H 0.70891 0.41897 0.05372 0.0
H141 H 0.66741 0.58272 0.93363 0.0
H142 H 0.66332 0.43326 0.89956 0.0
H143 H 0.70268 0.56845 0.09548 0.0
H144 H 0.67114 0.52832 0.91693 0.0
H145 H 0.71231 0.47389 0.06587 0.0
C146 C 0.69984 0.43364 0.0222 0.0
C147 C 0.6856 0.42148 0.97568 0.0
C148 C 0.67819 0.53707 0.95604 0.0
C149 C 0.68933 0.48436 0.98949 0.0
C150 C 0.6761 0.56817 0.96563 0.0
C151 C 0.68454 0.58017 0.01621 0.0
C152 C 0.68884 0.51773 -0.00274 0.0
C153 C 0.69575 0.56018 0.056 0.0
C154 C 0.70172 0.465 0.02926 0.0
C155 C 0.67432 0.4416 0.9362 0.0
N156 N 0.69746 0.52991 0.04574 0.0
N157 N 0.6763 0.47204 0.94412 0.0
H158 H 0.41644 0.67175 0.12319 0.0
H159 H 0.5768 0.69658 0.95593 0.0
H160 H 0.41929 0.68613 0.95061 0.0
H161 H 0.57437 0.67222 0.12492 0.0
H162 H 0.51893 0.69682 0.95469 0.0
H163 H 0.47415 0.67573 0.12596 0.0
C164 C 0.42918 0.67584 0.08589 0.0
C165 C 0.413 0.67847 0.03655 0.0
C166 C 0.53106 0.6915 0.99208 0.0
C167 C 0.47909 0.68306 0.03946 0.0
C168 C 0.56412 0.69141 0.99285 0.0
C169 C 0.58048 0.68422 0.04054 0.0
C170 C 0.5142 0.68443 0.03937 0.0
C171 C 0.56276 0.67775 0.08717 0.0
C172 C 0.46214 0.67807 0.0875 0.0
C173 C 0.43077 0.68381 0.98952 0.0
N174 N 0.53058 0.67795 0.08537 0.0
N175 N 0.46285 0.68588 0.99214 0.0
H176 H 0.80747 0.91962 0.45245 0.0
H177 H 0.79557 0.06994 0.63295 0.0
H178 H 0.79744 0.91902 0.62618 0.0
H179 H 0.80333 0.0706 0.45889 0.0
H180 H 0.79312 0.01463 0.63079 0.0
H181 H 0.8029 0.97484 0.45349 0.0
C182 C 0.80413 0.93107 0.49081 0.0
C183 C 0.80305 0.91465 0.53934 0.0
C184 C 0.79519 0.02687 0.59303 0.0
C185 C 0.79791 0.97793 0.54083 0.0
C186 C 0.79659 0.05848 0.59423 0.0
C187 C 0.79987 0.07495 0.54605 0.0
C188 C 0.79719 0.01155 0.54331 0.0
C189 C 0.80093 0.05885 0.49706 0.0
C190 C 0.80153 0.96263 0.49137 0.0
C191 C 0.79856 0.93073 0.58779 0.0
N192 N 0.79978 0.02805 0.49699 0.0
N193 N 0.79633 0.96147 0.58732 0.0
H194 H 0.07895 0.81495 0.6211 0.0
H195 H 0.91832 0.81394 0.44869 0.0
H196 H 0.07619 0.8186 0.44672 0.0
H197 H 0.92109 0.81453 0.6232 0.0
H198 H 0.97619 0.81313 0.44707 0.0
H199 H 0.02116 0.81232 0.62255 0.0
C200 C 0.06621 0.81512 0.58309 0.0
C201 C 0.08245 0.81711 0.53372 0.0
C202 C 0.96414 0.81337 0.48572 0.0
C203 C 0.01624 0.81412 0.5351 0.0
C204 C 0.93108 0.8138 0.48669 0.0
C205 C 0.91481 0.81442 0.53616 0.0
C206 C 0.9811 0.81354 0.53458 0.0
C207 C 0.93262 0.81417 0.58411 0.0
C208 C 0.03319 0.81364 0.58396 0.0
C209 C 0.06467 0.81719 0.48574 0.0
N210 N 0.96479 0.81382 0.58211 0.0
N211 N 0.03253 0.81578 0.48765 0.0
H212 H 0.19535 0.0763 0.45438 0.0
H213 H 0.19082 0.9219 0.62346 0.0
H214 H 0.19559 0.07281 0.62882 0.0
H215 H 0.1969 0.92521 0.44932 0.0
H216 H 0.19499 0.97711 0.62634 0.0
H217 H 0.19842 0.021 0.45176 0.0
C218 C 0.19624 0.06393 0.49216 0.0
C219 C 0.195 0.07923 0.54191 0.0
C220 C 0.1956 0.96576 0.5875 0.0
C221 C 0.19837 0.01585 0.53918 0.0
C222 C 0.19319 0.93421 0.58581 0.0
C223 C 0.1933 0.91889 0.53604 0.0
C224 C 0.19797 0.98219 0.53905 0.0
C225 C 0.19659 0.93606 0.4886 0.0
C226 C 0.198 0.03233 0.49062 0.0
C227 C 0.19636 0.06199 0.58954 0.0
N228 N 0.19859 0.96679 0.49127 0.0
N229 N 0.19777 0.03122 0.58698 0.0
H230 H 0.91768 0.1807 0.4611 0.0
H231 H 0.07715 0.17642 0.63637 0.0
H232 H 0.91939 0.17093 0.63475 0.0
H233 H 0.07565 0.18124 0.46204 0.0
H234 H 0.0193 0.17719 0.63689 0.0
H235 H 0.97546 0.18372 0.46101 0.0
C236 C 0.93018 0.17928 0.49925 0.0
C237 C 0.91364 0.17544 0.54801 0.0
C238 C 0.03161 0.17815 0.59852 0.0
C239 C 0.97985 0.17886 0.54816 0.0
C240 C 0.06467 0.17773 0.59818 0.0
C241 C 0.0813 0.17864 0.54905 0.0
C242 C 0.01499 0.1795 0.54939 0.0
C243 C 0.06383 0.1804 0.50086 0.0
C244 C 0.9632 0.18099 0.49916 0.0
C245 C 0.93113 0.17381 0.59619 0.0
N246 N 0.03164 0.1807 0.50224 0.0
N247 N 0.96327 0.17546 0.59503 0.0
H248 H 0.19681 0.22366 0.44193 0.0
H249 H 0.35508 0.26704 0.28086 0.0
H250 H 0.29064 0.19772 0.49402 0.0
H251 H 0.26087 0.29018 0.22661 0.0
H252 H 0.3321 0.24249 0.36022 0.0
H253 H 0.22004 0.24908 0.36381 0.0
C254 C 0.22232 0.22332 0.43699 0.0
C255 C 0.24181 0.20851 0.47462 0.0
C256 C 0.31646 0.25297 0.33098 0.0
C257 C 0.26859 0.2376 0.3851 0.0
C258 C 0.32957 0.26704 0.28566 0.0
C259 C 0.30988 0.28069 0.24696 0.0
C260 C 0.28341 0.25259 0.33775 0.0
C261 C 0.27698 0.27992 0.25532 0.0
C262 C 0.23557 0.23784 0.39231 0.0
C263 C 0.2747 0.20884 0.46607 0.0
N264 N 0.2648 0.26611 0.29977 0.0
N265 N 0.28704 0.22314 0.42221 0.0
H266 H 0.72073 0.25972 0.12013 0.0
H267 H 0.78364 0.27666 0.42375 0.0
H268 H 0.71251 0.34222 0.21335 0.0
H269 H 0.7775 0.19091 0.3399 0.0
H270 H 0.76047 0.3017 0.34511 0.0
H271 H 0.7444 0.23474 0.19843 0.0
C272 C 0.72391 0.2726 0.15705 0.0
C273 C 0.7146 0.30312 0.16021 0.0
C274 C 0.76417 0.27741 0.34393 0.0
C275 C 0.74175 0.27465 0.24994 0.0
C276 C 0.77747 0.26309 0.38878 0.0
C277 C 0.7825 0.23162 0.38842 0.0
C278 C 0.75599 0.26018 0.29822 0.0
C279 C 0.77399 0.2152 0.34199 0.0
C280 C 0.73738 0.25829 0.20177 0.0
C281 C 0.71928 0.31865 0.20912 0.0
N282 N 0.7612 0.22969 0.29872 0.0
N283 N 0.73258 0.30426 0.25202 0.0
H284 H 0.7107 0.81418 0.46603 0.0
H285 H 0.73413 0.68872 0.23501 0.0
H286 H 0.79567 0.76043 0.44856 0.0
H287 H 0.65751 0.75369 0.23617 0.0
H288 H 0.75472 0.71152 0.31807 0.0
H289 H 0.68853 0.78904 0.38649 0.0
C290 C 0.72466 0.79703 0.4456 0.0
C291 C 0.75513 0.78948 0.46389 0.0
C292 C 0.73338 0.72074 0.30016 0.0
C293 C 0.72987 0.76057 0.37286 0.0
C294 C 0.72157 0.7077 0.25281 0.0
C295 C 0.69412 0.71939 0.22847 0.0
C296 C 0.71753 0.74554 0.32351 0.0
C297 C 0.67883 0.74401 0.25337 0.0
C298 C 0.71201 0.78272 0.40011 0.0
C299 C 0.77213 0.76706 0.43577 0.0
N300 N 0.69074 0.75627 0.29948 0.0
N301 N 0.75927 0.7534 0.39167 0.0
H302 H 0.23595 0.8018 0.33836 0.0
H303 H 0.20831 0.67944 0.10353 0.0
H304 H 0.1558 0.74104 0.33367 0.0
H305 H 0.29512 0.72997 0.12369 0.0
H306 H 0.18678 0.70452 0.1838 0.0
H307 H 0.25612 0.77843 0.25562 0.0
C308 C 0.22254 0.78359 0.31989 0.0
C309 C 0.19418 0.7733 0.3431 0.0
C310 C 0.21053 0.71012 0.1706 0.0
C311 C 0.21713 0.74648 0.24828 0.0
C312 C 0.22281 0.69587 0.12471 0.0
C313 C 0.2536 0.70256 0.10693 0.0
C314 C 0.2291 0.73134 0.19874 0.0
C315 C 0.27131 0.72402 0.13601 0.0
C316 C 0.23411 0.77022 0.27268 0.0
C317 C 0.17783 0.74963 0.31732 0.0
N318 N 0.2588 0.73764 0.18044 0.0
N319 N 0.18954 0.73702 0.2713 0.0
H320 H 0.19993 0.76455 0.62114 0.0
H321 H 0.33858 0.75938 0.84128 0.0
H322 H 0.28437 0.81951 0.6117 0.0
H323 H 0.26141 0.6952 0.83651 0.0
H324 H 0.31834 0.78268 0.75866 0.0
H325 H 0.22135 0.7398 0.70148 0.0
C326 C 0.22302 0.77138 0.63588 0.0
C327 C 0.24037 0.79418 0.60966 0.0
C328 C 0.30588 0.76344 0.77559 0.0
C329 C 0.26498 0.76599 0.70183 0.0
C330 C 0.31739 0.75015 0.82285 0.0
C331 C 0.30164 0.72531 0.84593 0.0
C332 C 0.2783 0.75195 0.75134 0.0
C333 C 0.27433 0.7143 0.82015 0.0
C334 C 0.23525 0.7572 0.68174 0.0
C335 C 0.27018 0.80205 0.63057 0.0
N336 N 0.26347 0.72776 0.77436 0.0
N337 N 0.28148 0.78805 0.67555 0.0
H338 H 0.29864 0.26342 0.95556 0.0
H339 H 0.16049 0.2623 0.73416 0.0
H340 H 0.21677 0.32209 0.96284 0.0
H341 H 0.23565 0.19587 0.73967 0.0
H342 H 0.18148 0.28543 0.81648 0.0
H343 H 0.27662 0.23926 0.87507 0.0
C344 C 0.276 0.27121 0.94029 0.0
C345 C 0.25953 0.29486 0.96597 0.0
C346 C 0.19333 0.26575 0.79975 0.0
C347 C 0.23424 0.26732 0.87363 0.0
C348 C 0.1814 0.25255 0.75267 0.0
C349 C 0.19636 0.22712 0.72992 0.0
C350 C 0.22054 0.25354 0.82416 0.0
C351 C 0.22334 0.21545 0.75578 0.0
C352 C 0.26342 0.25736 0.89434 0.0
C353 C 0.23027 0.30394 0.94439 0.0
N354 N 0.23461 0.2288 0.80141 0.0
N355 N 0.21861 0.29022 0.89936 0.0
H356 H 0.73916 0.28288 0.87888 0.0
H357 H 0.70499 0.20797 0.58962 0.0
H358 H 0.64735 0.28409 0.80186 0.0
H359 H 0.79761 0.21186 0.66345 0.0
H360 H 0.68308 0.23484 0.66766 0.0
H361 H 0.76067 0.25607 0.80075 0.0
C362 C 0.7235 0.27755 0.8455 0.0
C363 C 0.69137 0.28576 0.84697 0.0
C364 C 0.70819 0.22981 0.66678 0.0
C365 C 0.7159 0.25493 0.75727 0.0
C366 C 0.72072 0.21442 0.62226 0.0
C367 C 0.7532 0.20766 0.61996 0.0
C368 C 0.72827 0.23846 0.70937 0.0
C369 C 0.77244 0.21661 0.66343 0.0
C370 C 0.73583 0.26222 0.80086 0.0
C371 C 0.67226 0.27824 0.80248 0.0
N372 N 0.75968 0.23153 0.7063 0.0
N373 N 0.68481 0.2632 0.75947 0.0
H374 H 0.70061 0.7329 0.95239 0.0
H375 H 0.83992 0.73357 0.73299 0.0
H376 H 0.78242 0.6742 0.96061 0.0
H377 H 0.76322 0.79846 0.73469 0.0
H378 H 0.8191 0.7113 0.81608 0.0
H379 H 0.72314 0.75713 0.87246 0.0
C380 C 0.72338 0.72517 0.93752 0.0
C381 C 0.73963 0.70143 0.96318 0.0
C382 C 0.80688 0.73047 0.79837 0.0
C383 C 0.76549 0.72899 0.87147 0.0
C384 C 0.81872 0.74318 0.75085 0.0
C385 C 0.80325 0.76789 0.72675 0.0
C386 C 0.77927 0.74246 0.82187 0.0
C387 C 0.77592 0.77942 0.75181 0.0
C388 C 0.73623 0.73903 0.89186 0.0
C389 C 0.76906 0.6924 0.94213 0.0
N390 N 0.76475 0.76654 0.79789 0.0
N391 N 0.78098 0.70611 0.89736 0.0
loop_
_geom_bond_atom_site_label_1
_geom_bond_atom_site_label_2
_geom_bond_distance
_geom_bond_site_symmetry_2
_ccdc_geom_bond_type
C0 O1 1.160 . S
C0 O7 1.185 . S
O1 C0 1.160 . S
O2 Zn3 1.899 . S
O2 C10 1.284 . S
Zn3 O2 1.899 . S
Zn3 O4 2.032 . S
Zn3 O7 2.086 . S
Zn3 O12 1.977 . S
O4 Zn3 2.032 . S
O4 C8 1.278 1_554 S
C5 O6 1.203 . S
C5 O12 1.267 . S
O6 C5 1.203 . S
O7 C0 1.185 . S
O7 Zn3 2.086 . S
C8 O4 1.278 1_556 S
C8 O9 1.211 . S
O9 C8 1.211 . S
C10 O2 1.284 . S
C10 O11 1.267 1_554 S
O11 C10 1.267 1_556 S
O12 Zn3 1.977 . S
O12 C5 1.267 . S
C13 O14 1.160 . S
C13 O20 1.185 . S
O14 C13 1.160 . S
O15 Zn16 1.899 1_556 S
O15 C23 1.284 1_556 S
Zn16 O15 1.899 1_554 S
Zn16 O17 2.032 . S
Zn16 O20 2.086 1_554 S
Zn16 O25 1.977 . S
O17 Zn16 2.032 . S
O17 C21 1.278 . S
C18 O19 1.203 . S
C18 O25 1.267 . S
O19 C18 1.203 . S
O20 C13 1.185 . S
O20 Zn16 2.086 1_556 S
C21 O17 1.278 . S
C21 O22 1.211 . S
O22 C21 1.211 . S
C23 O15 1.284 1_554 S
C23 O24 1.273 . S
O24 C23 1.273 . S
O25 Zn16 1.977 . S
O25 C18 1.267 . S
C26 O27 1.160 . S
C26 O33 1.185 . S
O27 C26 1.160 . S
O28 Zn29 1.899 . S
O28 C36 1.284 . S
Zn29 O28 1.899 . S
Zn29 O30 2.032 . S
Zn29 O33 2.086 . S
Zn29 O38 1.977 . S
O30 Zn29 2.032 . S
O30 C34 1.278 1_554 S
C31 O32 1.203 . S
C31 O38 1.267 . S
O32 C31 1.203 . S
O33 C26 1.185 . S
O33 Zn29 2.086 . S
C34 O30 1.278 1_556 S
C34 O35 1.211 . S
O35 C34 1.211 . S
C36 O28 1.284 . S
C36 O37 1.267 1_554 S
O37 C36 1.267 1_556 S
O38 Zn29 1.977 . S
O38 C31 1.267 . S
C39 O40 1.160 . S
C39 O46 1.185 . S
O40 C39 1.160 . S
O41 Zn42 1.899 1_556 S
O41 C49 1.284 1_556 S
Zn42 O41 1.899 1_554 S
Zn42 O43 2.032 . S
Zn42 O46 2.086 1_554 S
Zn42 O51 1.977 . S
O43 Zn42 2.032 . S
O43 C47 1.278 . S
C44 O45 1.203 . S
C44 O51 1.267 . S
O45 C44 1.203 . S
O46 C39 1.185 . S
O46 Zn42 2.086 1_556 S
C47 O43 1.278 . S
C47 O48 1.211 . S
O48 C47 1.211 . S
C49 O41 1.284 1_554 S
C49 O50 1.273 . S
O50 C49 1.273 . S
O51 Zn42 1.977 . S
O51 C44 1.267 . S
C52 O53 1.160 . S
C52 O59 1.185 . S
O53 C52 1.160 . S
O54 Zn55 1.899 . S
O54 C62 1.284 . S
Zn55 O54 1.899 . S
Zn55 O56 2.032 . S
Zn55 O59 2.086 . S
Zn55 O64 1.977 . S
O56 Zn55 2.032 . S
O56 C60 1.278 . S
C57 O58 1.203 . S
C57 O64 1.267 . S
O58 C57 1.203 . S
O59 C52 1.185 . S
O59 Zn55 2.086 . S
C60 O56 1.278 . S
C60 O61 1.211 . S
O61 C60 1.211 . S
C62 O54 1.284 . S
C62 O63 1.273 . S
O63 C62 1.273 . S
O64 Zn55 1.977 . S
O64 C57 1.267 . S
C65 O66 1.160 . S
C65 O72 1.185 . S
O66 C65 1.160 . S
O67 Zn68 1.899 . S
O67 C75 1.284 . S
Zn68 O67 1.899 . S
Zn68 O69 2.032 . S
Zn68 O72 2.086 . S
Zn68 O77 1.977 . S
O69 Zn68 2.032 . S
O69 C73 1.278 . S
C70 O71 1.203 . S
C70 O77 1.267 . S
O71 C70 1.203 . S
O72 C65 1.185 . S
O72 Zn68 2.086 . S
C73 O69 1.278 . S
C73 O74 1.211 . S
O74 C73 1.211 . S
C75 O67 1.284 . S
C75 O76 1.273 . S
O76 C75 1.273 . S
O77 Zn68 1.977 . S
O77 C70 1.267 . S
C78 O79 1.160 . S
C78 O85 1.185 . S
O79 C78 1.160 . S
O80 Zn81 1.899 . S
O80 C88 1.284 . S
Zn81 O80 1.899 . S
Zn81 O82 2.032 . S
Zn81 O85 2.086 . S
Zn81 O90 1.977 . S
O82 Zn81 2.032 . S
O82 C86 1.278 . S
C83 O84 1.203 . S
C83 O90 1.267 . S
O84 C83 1.203 . S
O85 C78 1.185 . S
O85 Zn81 2.086 . S
C86 O82 1.278 . S
C86 O87 1.211 . S
O87 C86 1.211 . S
C88 O80 1.284 . S
C88 O89 1.273 . S
O89 C88 1.273 . S
O90 Zn81 1.977 . S
O90 C83 1.267 . S
C91 O92 1.160 . S
C91 O98 1.185 . S
O92 C91 1.160 . S
O93 Zn94 1.899 . S
O93 C101 1.284 . S
Zn94 O93 1.899 . S
Zn94 O95 2.032 . S
Zn94 O98 2.086 . S
Zn94 O103 1.977 . S
O95 Zn94 2.032 . S
O95 C99 1.278 . S
C96 O97 1.203 . S
C96 O103 1.267 . S
O97 C96 1.203 . S
O98 C91 1.185 . S
O98 Zn94 2.086 . S
C99 O95 1.278 . S
C99 O100 1.211 . S
O100 C99 1.211 . S
C101 O93 1.284 . S
C101 O102 1.273 . S
O102 C101 1.273 . S
O103 Zn94 1.977 . S
O103 C96 1.267 . S
H104 C110 0.930 . S
H105 C114 0.930 . S
H106 C119 0.929 . S
H107 C117 0.929 . S
H108 C112 0.929 . S
H109 C118 0.929 . S
C110 H104 0.930 . S
C110 C111 1.367 . S
C110 C118 1.378 . S
C111 C110 1.367 . S
C111 C119 1.433 1_554 S
C112 H108 0.929 . S
C112 C114 1.378 . S
C112 C116 1.350 1_556 S
C113 C116 1.463 . S
C113 C118 1.350 . S
C113 N121 1.427 1_554 S
C114 H105 0.930 . S
C114 C112 1.378 . S
C114 C115 1.367 1_556 S
C115 C114 1.367 1_554 S
C115 C117 1.433 . S
C116 C112 1.350 1_554 S
C116 C113 1.463 . S
C116 N120 1.427 . S
C117 H107 0.929 . S
C117 C115 1.433 . S
C117 N120 1.384 . S
C118 H109 0.929 . S
C118 C110 1.378 . S
C118 C113 1.350 . S
C119 H106 0.929 . S
C119 C111 1.433 1_556 S
C119 N121 1.384 . S
N120 C116 1.427 . S
N120 C117 1.384 . S
N121 C113 1.427 1_556 S
N121 C119 1.384 . S
H122 C128 0.930 . S
H123 C132 0.930 . S
H124 C137 0.929 . S
H125 C135 0.929 . S
H126 C130 0.929 . S
H127 C136 0.929 . S
C128 H122 0.930 . S
C128 C129 1.367 . S
C128 C136 1.378 . S
C129 C128 1.367 . S
C129 C137 1.433 . S
C130 H126 0.929 . S
C130 C132 1.378 . S
C130 C134 1.350 . S
C131 C134 1.463 . S
C131 C136 1.350 . S
C131 N139 1.427 . S
C132 H123 0.930 . S
C132 C130 1.378 . S
C132 C133 1.367 . S
C133 C132 1.367 . S
C133 C135 1.433 . S
C134 C130 1.350 . S
C134 C131 1.463 . S
C134 N138 1.427 . S
C135 H125 0.929 . S
C135 C133 1.433 . S
C135 N138 1.384 . S
C136 H127 0.929 . S
C136 C128 1.378 . S
C136 C131 1.350 . S
C137 H124 0.929 . S
C137 C129 1.433 . S
C137 N139 1.384 . S
N138 C134 1.427 . S
N138 C135 1.384 . S
N139 C131 1.427 . S
N139 C137 1.384 . S
H140 C146 0.930 . S
H141 C150 0.930 1_556 S
H142 C155 0.929 1_556 S
H143 C153 0.929 . S
H144 C148 0.929 1_556 S
H145 C154 0.929 . S
C146 H140 0.930 . S
C146 C147 1.367 . S
C146 C154 1.378 . S
C147 C146 1.367 . S
C147 C155 1.433 . S
C148 H144 0.929 1_554 S
C148 C150 1.378 . S
C148 C152 1.350 . S
C149 C152 1.463 . S
C149 C154 1.350 . S
C149 N157 1.427 . S
C150 H141 0.930 1_554 S
C150 C148 1.378 . S
C150 C151 1.367 . S
C151 C150 1.367 . S
C151 C153 1.433 . S
C152 C148 1.350 . S
C152 C149 1.463 . S
C152 N156 1.427 . S
C153 H143 0.929 . S
C153 C151 1.433 . S
C153 N156 1.384 . S
C154 H145 0.929 . S
C154 C146 1.378 . S
C154 C149 1.350 . S
C155 H142 0.929 1_554 S
C155 C147 1.433 . S
C155 N157 1.384 . S
N156 C152 1.427 . S
N156 C153 1.384 . S
N157 C149 1.427 . S
N157 C155 1.384 . S
H158 C164 0.930 . S
H159 C168 0.930 1_556 S
H160 C173 0.929 . S
H161 C171 0.929 . S
H162 C166 0.929 1_556 S
H163 C172 0.929 . S
C164 H158 0.930 . S
C164 C165 1.367 . S
C164 C172 1.378 . S
C165 C164 1.367 . S
C165 C173 1.433 1_554 S
C166 H162 0.929 1_554 S
C166 C168 1.378 . S
C166 C170 1.350 . S
C167 C170 1.463 . S
C167 C172 1.350 . S
C167 N175 1.427 1_554 S
C168 H159 0.930 1_554 S
C168 C166 1.378 . S
C168 C169 1.367 . S
C169 C168 1.367 . S
C169 C171 1.433 . S
C170 C166 1.350 . S
C170 C167 1.463 . S
C170 N174 1.427 . S
C171 H161 0.929 . S
C171 C169 1.433 . S
C171 N174 1.384 . S
C172 H163 0.929 . S
C172 C164 1.378 . S
C172 C167 1.350 . S
C173 H160 0.929 . S
C173 C165 1.433 1_556 S
C173 N175 1.384 . S
N174 C170 1.427 . S
N174 C171 1.384 . S
N175 C167 1.427 1_556 S
N175 C173 1.384 . S
H176 C182 0.930 . S
H177 C186 0.930 . S
H178 C191 0.929 . S
H179 C189 0.929 . S
H180 C184 0.929 . S
H181 C190 0.929 . S
C182 H176 0.930 . S
C182 C183 1.367 . S
C182 C190 1.378 . S
C183 C182 1.367 . S
C183 C191 1.433 . S
C184 H180 0.929 . S
C184 C186 1.378 . S
C184 C188 1.350 . S
C185 C188 1.463 1_565 S
C185 C190 1.350 . S
C185 N193 1.427 . S
C186 H177 0.930 . S
C186 C184 1.378 . S
C186 C187 1.367 . S
C187 C186 1.367 . S
C187 C189 1.433 . S
C188 C184 1.350 . S
C188 C185 1.463 1_545 S
C188 N192 1.427 . S
C189 H179 0.929 . S
C189 C187 1.433 . S
C189 N192 1.384 . S
C190 H181 0.929 . S
C190 C182 1.378 . S
C190 C185 1.350 . S
C191 H178 0.929 . S
C191 C183 1.433 . S
C191 N193 1.384 . S
N192 C188 1.427 . S
N192 C189 1.384 . S
N193 C185 1.427 . S
N193 C191 1.384 . S
H194 C200 0.930 . S
H195 C204 0.930 . S
H196 C209 0.929 . S
H197 C207 0.929 . S
H198 C202 0.929 . S
H199 C208 0.929 . S
C200 H194 0.930 . S
C200 C201 1.367 . S
C200 C208 1.378 . S
C201 C200 1.367 . S
C201 C209 1.433 . S
C202 H198 0.929 . S
C202 C204 1.378 . S
C202 C206 1.350 . S
C203 C206 1.463 1_455 S
C203 C208 1.350 . S
C203 N211 1.427 . S
C204 H195 0.930 . S
C204 C202 1.378 . S
C204 C205 1.367 . S
C205 C204 1.367 . S
C205 C207 1.433 . S
C206 C202 1.350 . S
C206 C203 1.463 1_655 S
C206 N210 1.427 . S
C207 H197 0.929 . S
C207 C205 1.433 . S
C207 N210 1.384 . S
C208 H199 0.929 . S
C208 C200 1.378 . S
C208 C203 1.350 . S
C209 H196 0.929 . S
C209 C201 1.433 . S
C209 N211 1.384 . S
N210 C206 1.427 . S
N210 C207 1.384 . S
N211 C203 1.427 . S
N211 C209 1.384 . S
H212 C218 0.930 . S
H213 C222 0.930 . S
H214 C227 0.929 . S
H215 C225 0.929 . S
H216 C220 0.929 . S
H217 C226 0.929 . S
C218 H212 0.930 . S
C218 C219 1.367 . S
C218 C226 1.378 . S
C219 C218 1.367 . S
C219 C227 1.433 . S
C220 H216 0.929 . S
C220 C222 1.378 . S
C220 C224 1.350 . S
C221 C224 1.463 1_545 S
C221 C226 1.350 . S
C221 N229 1.427 . S
C222 H213 0.930 . S
C222 C220 1.378 . S
C222 C223 1.367 . S
C223 C222 1.367 . S
C223 C225 1.433 . S
C224 C220 1.350 . S
C224 C221 1.463 1_565 S
C224 N228 1.427 . S
C225 H215 0.929 . S
C225 C223 1.433 . S
C225 N228 1.384 . S
C226 H217 0.929 . S
C226 C218 1.378 . S
C226 C221 1.350 . S
C227 H214 0.929 . S
C227 C219 1.433 . S
C227 N229 1.384 . S
N228 C224 1.427 . S
N228 C225 1.384 . S
N229 C221 1.427 . S
N229 C227 1.384 . S
H230 C236 0.930 . S
H231 C240 0.930 . S
H232 C245 0.929 . S
H233 C243 0.929 . S
H234 C238 0.929 . S
H235 C244 0.929 . S
C236 H230 0.930 . S
C236 C237 1.367 . S
C236 C244 1.378 . S
C237 C236 1.367 . S
C237 C245 1.433 . S
C238 H234 0.929 . S
C238 C240 1.378 . S
C238 C242 1.350 . S
C239 C242 1.463 1_655 S
C239 C244 1.350 . S
C239 N247 1.427 . S
C240 H231 0.930 . S
C240 C238 1.378 . S
C240 C241 1.367 . S
C241 C240 1.367 . S
C241 C243 1.433 . S
C242 C238 1.350 . S
C242 C239 1.463 1_455 S
C242 N246 1.427 . S
C243 H233 0.929 . S
C243 C241 1.433 . S
C243 N246 1.384 . S
C244 H235 0.929 . S
C244 C236 1.378 . S
C244 C239 1.350 . S
C245 H232 0.929 . S
C245 C237 1.433 . S
C245 N247 1.384 . S
N246 C242 1.427 . S
N246 C243 1.384 . S
N247 C239 1.427 . S
N247 C245 1.384 . S
H248 C254 0.930 . S
H249 C258 0.930 . S
H250 C263 0.929 . S
H251 C261 0.929 . S
H252 C256 0.929 . S
H253 C262 0.929 . S
C254 H248 0.930 . S
C254 C255 1.367 . S
C254 C262 1.378 . S
C255 C254 1.367 . S
C255 C263 1.433 . S
C256 H252 0.929 . S
C256 C258 1.378 . S
C256 C260 1.350 . S
C257 C260 1.463 . S
C257 C262 1.350 . S
C257 N265 1.427 . S
C258 H249 0.930 . S
C258 C256 1.378 . S
C258 C259 1.367 . S
C259 C258 1.367 . S
C259 C261 1.433 . S
C260 C256 1.350 . S
C260 C257 1.463 . S
C260 N264 1.427 . S
C261 H251 0.929 . S
C261 C259 1.433 . S
C261 N264 1.384 . S
C262 H253 0.929 . S
C262 C254 1.378 . S
C262 C257 1.350 . S
C263 H250 0.929 . S
C263 C255 1.433 . S
C263 N265 1.384 . S
N264 C260 1.427 . S
N264 C261 1.384 . S
N265 C257 1.427 . S
N265 C263 1.384 . S
H266 C272 0.930 . S
H267 C276 0.930 . S
H268 C281 0.929 . S
H269 C279 0.929 . S
H270 C274 0.929 . S
H271 C280 0.929 . S
C272 H266 0.930 . S
C272 C273 1.367 . S
C272 C280 1.378 . S
C273 C272 1.367 . S
C273 C281 1.433 . S
C274 H270 0.929 . S
C274 C276 1.378 . S
C274 C278 1.350 . S
C275 C278 1.463 . S
C275 C280 1.350 . S
C275 N283 1.427 . S
C276 H267 0.930 . S
C276 C274 1.378 . S
C276 C277 1.367 . S
C277 C276 1.367 . S
C277 C279 1.433 . S
C278 C274 1.350 . S
C278 C275 1.463 . S
C278 N282 1.427 . S
C279 H269 0.929 . S
C279 C277 1.433 . S
C279 N282 1.384 . S
C280 H271 0.929 . S
C280 C272 1.378 . S
C280 C275 1.350 . S
C281 H268 0.929 . S
C281 C273 1.433 . S
C281 N283 1.384 . S
N282 C278 1.427 . S
N282 C279 1.384 . S
N283 C275 1.427 . S
N283 C281 1.384 . S
H284 C290 0.930 . S
H285 C294 0.930 . S
H286 C299 0.929 . S
H287 C297 0.929 . S
H288 C292 0.929 . S
H289 C298 0.929 . S
C290 H284 0.930 . S
C290 C291 1.367 . S
C290 C298 1.378 . S
C291 C290 1.367 . S
C291 C299 1.433 . S
C292 H288 0.929 . S
C292 C294 1.378 . S
C292 C296 1.350 . S
C293 C296 1.463 . S
C293 C298 1.350 . S
C293 N301 1.427 . S
C294 H285 0.930 . S
C294 C292 1.378 . S
C294 C295 1.367 . S
C295 C294 1.367 . S
C295 C297 1.433 . S
C296 C292 1.350 . S
C296 C293 1.463 . S
C296 N300 1.427 . S
C297 H287 0.929 . S
C297 C295 1.433 . S
C297 N300 1.384 . S
C298 H289 0.929 . S
C298 C290 1.378 . S
C298 C293 1.350 . S
C299 H286 0.929 . S
C299 C291 1.433 . S
C299 N301 1.384 . S
N300 C296 1.427 . S
N300 C297 1.384 . S
N301 C293 1.427 . S
N301 C299 1.384 . S
H302 C308 0.930 . S
H303 C312 0.930 . S
H304 C317 0.929 . S
H305 C315 0.929 . S
H306 C310 0.929 . S
H307 C316 0.929 . S
C308 H302 0.930 . S
C308 C309 1.367 . S
C308 C316 1.378 . S
C309 C308 1.367 . S
C309 C317 1.433 . S
C310 H306 0.929 . S
C310 C312 1.378 . S
C310 C314 1.350 . S
C311 C314 1.463 . S
C311 C316 1.350 . S
C311 N319 1.427 . S
C312 H303 0.930 . S
C312 C310 1.378 . S
C312 C313 1.367 . S
C313 C312 1.367 . S
C313 C315 1.433 . S
C314 C310 1.350 . S
C314 C311 1.463 . S
C314 N318 1.427 . S
C315 H305 0.929 . S
C315 C313 1.433 . S
C315 N318 1.384 . S
C316 H307 0.929 . S
C316 C308 1.378 . S
C316 C311 1.350 . S
C317 H304 0.929 . S
C317 C309 1.433 . S
C317 N319 1.384 . S
N318 C314 1.427 . S
N318 C315 1.384 . S
N319 C311 1.427 . S
N319 C317 1.384 . S
H320 C326 0.930 . S
H321 C330 0.930 . S
H322 C335 0.929 . S
H323 C333 0.929 . S
H324 C328 0.929 . S
H325 C334 0.929 . S
C326 H320 0.930 . S
C326 C327 1.367 . S
C326 C334 1.378 . S
C327 C326 1.367 . S
C327 C335 1.433 . S
C328 H324 0.929 . S
C328 C330 1.378 . S
C328 C332 1.350 . S
C329 C332 1.463 . S
C329 C334 1.350 . S
C329 N337 1.427 . S
C330 H321 0.930 . S
C330 C328 1.378 . S
C330 C331 1.367 . S
C331 C330 1.367 . S
C331 C333 1.433 . S
C332 C328 1.350 . S
C332 C329 1.463 . S
C332 N336 1.427 . S
C333 H323 0.929 . S
C333 C331 1.433 . S
C333 N336 1.384 . S
C334 H325 0.929 . S
C334 C326 1.378 . S
C334 C329 1.350 . S
C335 H322 0.929 . S
C335 C327 1.433 . S
C335 N337 1.384 . S
N336 C332 1.427 . S
N336 C333 1.384 . S
N337 C329 1.427 . S
N337 C335 1.384 . S
H338 C344 0.930 . S
H339 C348 0.930 . S
H340 C353 0.929 . S
H341 C351 0.929 . S
H342 C346 0.929 . S
H343 C352 0.929 . S
C344 H338 0.930 . S
C344 C345 1.367 . S
C344 C352 1.378 . S
C345 C344 1.367 . S
C345 C353 1.433 . S
C346 H342 0.929 . S
C346 C348 1.378 . S
C346 C350 1.350 . S
C347 C350 1.463 . S
C347 C352 1.350 . S
C347 N355 1.427 . S
C348 H339 0.930 . S
C348 C346 1.378 . S
C348 C349 1.367 . S
C349 C348 1.367 . S
C349 C351 1.433 . S
C350 C346 1.350 . S
C350 C347 1.463 . S
C350 N354 1.427 . S
C351 H341 0.929 . S
C351 C349 1.433 . S
C351 N354 1.384 . S
C352 H343 0.929 . S
C352 C344 1.378 . S
C352 C347 1.350 . S
C353 H340 0.929 . S
C353 C345 1.433 . S
C353 N355 1.384 . S
N354 C350 1.427 . S
N354 C351 1.384 . S
N355 C347 1.427 . S
N355 C353 1.384 . S
H356 C362 0.930 . S
H357 C366 0.930 . S
H358 C371 0.929 . S
H359 C369 0.929 . S
H360 C364 0.929 . S
H361 C370 0.929 . S
C362 H356 0.930 . S
C362 C363 1.367 . S
C362 C370 1.378 . S
C363 C362 1.367 . S
C363 C371 1.433 . S
C364 H360 0.929 . S
C364 C366 1.378 . S
C364 C368 1.350 . S
C365 C368 1.463 . S
C365 C370 1.350 . S
C365 N373 1.427 . S
C366 H357 0.930 . S
C366 C364 1.378 . S
C366 C367 1.367 . S
C367 C366 1.367 . S
C367 C369 1.433 . S
C368 C364 1.350 . S
C368 C365 1.463 . S
C368 N372 1.427 . S
C369 H359 0.929 . S
C369 C367 1.433 . S
C369 N372 1.384 . S
C370 H361 0.929 . S
C370 C362 1.378 . S
C370 C365 1.350 . S
C371 H358 0.929 . S
C371 C363 1.433 . S
C371 N373 1.384 . S
N372 C368 1.427 . S
N372 C369 1.384 . S
N373 C365 1.427 . S
N373 C371 1.384 . S
H374 C380 0.930 . S
H375 C384 0.930 . S
H376 C389 0.929 . S
H377 C387 0.929 . S
H378 C382 0.929 . S
H379 C388 0.929 . S
C380 H374 0.930 . S
C380 C381 1.367 . S
C380 C388 1.378 . S
C381 C380 1.367 . S
C381 C389 1.433 . S
C382 H378 0.929 . S
C382 C384 1.378 . S
C382 C386 1.350 . S
C383 C386 1.463 . S
C383 C388 1.350 . S
C383 N391 1.427 . S
C384 H375 0.930 . S
C384 C382 1.378 . S
C384 C385 1.367 . S
C385 C384 1.367 . S
C385 C387 1.433 . S
C386 C382 1.350 . S
C386 C383 1.463 . S
C386 N390 1.427 . S
C387 H377 0.929 . S
C387 C385 1.433 . S
C387 N390 1.384 . S
C388 H379 0.929 . S
C388 C380 1.378 . S
C388 C383 1.350 . S
C389 H376 0.929 . S
C389 C381 1.433 . S
C389 N391 1.384 . S
N390 C386 1.427 . S
N390 C387 1.384 . S
N391 C383 1.427 . S
N391 C389 1.384 . S
C111 C5 1.436 . S
C115 C44 1.437 . S
C129 C10 1.458 . S
C133 C23 1.458 . S
C147 C18 1.438 . S
C151 C31 1.428 . S
C165 C49 1.455 . S
C169 C36 1.455 . S
C183 C57 1.433 . S
C187 C96 1.433 . S
C201 C75 1.456 . S
C205 C62 1.456 . S
C219 C83 1.435 . S
C223 C70 1.430 . S
C237 C101 1.462 . S
C241 C88 1.462 . S
C255 C86 1.406 . S
C259 C0 1.398 . S
C273 C21 1.408 . S
C277 C91 1.403 . S
C291 C60 1.397 . S
C295 C26 1.399 . S
C309 C65 1.404 . S
C313 C47 1.396 . S
C327 C73 1.407 . S
C331 C39 1.400 . S
C345 C8 1.407 . S
C349 C78 1.403 . S
C363 C13 1.406 . S
C367 C99 1.398 . S
C381 C34 1.408 . S
C385 C52 1.403 . S
