# Generated by pormake.
# Topology wjo, (5)-cn, num edge types: 1
# Building blocks:
#     Node 0, Type 0, BuildingBlock: XOMCOT_clean_sbu_1, # of connection points: 5
#     Node 1, Type 0, BuildingBlock: XOMCOT_clean_sbu_1, # of connection points: 5
#     Node 2, Type 0, BuildingBlock: XOMCOT_clean_sbu_1, # of connection points: 5
#     Node 3, Type 0, BuildingBlock: XOMCOT_clean_sbu_1, # of connection points: 5
#     Node 4, Type 0, BuildingBlock: XOMCOT_clean_sbu_1, # of connection points: 5
#     Node 5, Type 0, BuildingBlock: XOMCOT_clean_sbu_1, # of connection points: 5
#     Node 6, Type 0, BuildingBlock: XOMCOT_clean_sbu_1, # of connection points: 5
#     Node 7, Type 0, BuildingBlock: XOMCOT_clean_sbu_1, # of connection points: 5
#     Node 8, Type 0, BuildingBlock: XOMCOT_clean_sbu_1, # of connection points: 5
#     Node 9, Type 0, BuildingBlock: XOMCOT_clean_sbu_1, # of connection points: 5
#     Node 10, Type 0, BuildingBlock: XOMCOT_clean_sbu_1, # of connection points: 5
#     Node 11, Type 0, BuildingBlock: XOMCOT_clean_sbu_1, # of connection points: 5
#     Edge 12, Type (0, 0), BuildingBlock: XIVTED_clean_linker_0, # of connection points: 2
#     Edge 13, Type (0, 0), BuildingBlock: XIVTED_clean_linker_0, # of connection points: 2
#     Edge 14, Type (0, 0), BuildingBlock: XIVTED_clean_linker_0, # of connection points: 2
#     Edge 15, Type (0, 0), BuildingBlock: XIVTED_clean_linker_0, # of connection points: 2
#     Edge 16, Type (0, 0), BuildingBlock: XIVTED_clean_linker_0, # of connection points: 2
#     Edge 17, Type (0, 0), BuildingBlock: XIVTED_clean_linker_0, # of connection points: 2
#     Edge 18, Type (0, 0), BuildingBlock: XIVTED_clean_linker_0, # of connection points: 2
#     Edge 19, Type (0, 0), BuildingBlock: XIVTED_clean_linker_0, # of connection points: 2
#     Edge 20, Type (0, 0), BuildingBlock: XIVTED_clean_linker_0, # of connection points: 2
#     Edge 21, Type (0, 0), BuildingBlock: XIVTED_clean_linker_0, # of connection points: 2
#     Edge 22, Type (0, 0), BuildingBlock: XIVTED_clean_linker_0, # of connection points: 2
#     Edge 23, Type (0, 0), BuildingBlock: XIVTED_clean_linker_0, # of connection points: 2
#     Edge 24, Type (0, 0), BuildingBlock: XIVTED_clean_linker_0, # of connection points: 2
#     Edge 25, Type (0, 0), BuildingBlock: XIVTED_clean_linker_0, # of connection points: 2
#     Edge 26, Type (0, 0), BuildingBlock: XIVTED_clean_linker_0, # of connection points: 2
#     Edge 27, Type (0, 0), BuildingBlock: XIVTED_clean_linker_0, # of connection points: 2
#     Edge 28, Type (0, 0), BuildingBlock: XIVTED_clean_linker_0, # of connection points: 2
#     Edge 29, Type (0, 0), BuildingBlock: XIVTED_clean_linker_0, # of connection points: 2
#     Edge 30, Type (0, 0), BuildingBlock: XIVTED_clean_linker_0, # of connection points: 2
#     Edge 31, Type (0, 0), BuildingBlock: XIVTED_clean_linker_0, # of connection points: 2
#     Edge 32, Type (0, 0), BuildingBlock: XIVTED_clean_linker_0, # of connection points: 2
#     Edge 33, Type (0, 0), BuildingBlock: XIVTED_clean_linker_0, # of connection points: 2
#     Edge 34, Type (0, 0), BuildingBlock: XIVTED_clean_linker_0, # of connection points: 2
#     Edge 35, Type (0, 0), BuildingBlock: XIVTED_clean_linker_0, # of connection points: 2
#     Edge 36, Type (0, 0), BuildingBlock: XIVTED_clean_linker_0, # of connection points: 2
#     Edge 37, Type (0, 0), BuildingBlock: XIVTED_clean_linker_0, # of connection points: 2
#     Edge 38, Type (0, 0), BuildingBlock: XIVTED_clean_linker_0, # of connection points: 2
#     Edge 39, Type (0, 0), BuildingBlock: XIVTED_clean_linker_0, # of connection points: 2
#     Edge 40, Type (0, 0), BuildingBlock: XIVTED_clean_linker_0, # of connection points: 2
#     Edge 41, Type (0, 0), BuildingBlock: XIVTED_clean_linker_0, # of connection points: 2
# Relax obj value: 0.387
# Max RMSD: 0.204
# Mean RMSD: 0.201
data_MOF--net-wjo--node1-XOMCOT_clean_sbu_1--edge1-XIVTED_clean_linker_0
_symmetry_space_group_name_H-M    P1
_symmetry_Int_Tables_number       1
_symmetry_cell_setting            triclinic
loop_
_symmetry_equiv_pos_as_xyz
'x, y, z'
_cell_length_a     47.963383
_cell_length_b     47.863512
_cell_length_c     28.388417
_cell_angle_alpha  90.010563
_cell_angle_beta   89.991685
_cell_angle_gamma 120.06503
loop_
_atom_site_label
_atom_site_type_symbol
_atom_site_fract_x
_atom_site_fract_y
_atom_site_fract_z
_atom_type_partial_charge
C0 C 0.22764 0.33716 0.88483 0.0
C1 C 0.22997 0.31352 0.86059 0.0
N2 N 0.24509 0.30238 0.88832 0.0
N3 N 0.24132 0.34098 0.9275 0.0
C4 C 0.25154 0.31933 0.92882 0.0
H5 H 0.21717 0.35113 0.87198 0.0
Co6 Co 0.24518 0.37168 0.97045 0.0
C7 C 0.28288 0.3687 0.04984 0.0
O8 O 0.29883 0.40044 0.04998 0.0
N9 N 0.24778 0.40287 0.01436 0.0
C10 C 0.2548 0.4462 0.05397 0.0
C11 C 0.25934 0.43509 0.01159 0.0
C12 C 0.23542 0.39509 0.0584 0.0
N13 N 0.23971 0.4209 0.08329 0.0
O14 O 0.20191 0.34357 0.99008 0.0
H15 H 0.27007 0.45007 0.98111 0.0
H16 H 0.22416 0.37081 0.07243 0.0
O17 O 0.26063 0.35343 0.01937 0.0
C18 C 0.18187 0.35208 0.97716 0.0
O19 O 0.19207 0.37814 0.9512 0.0
N20 N 0.28717 0.39953 0.94771 0.0
C21 C 0.34791 0.44728 0.91765 0.0
C22 C 0.34368 0.41886 0.93868 0.0
C23 C 0.31294 0.39493 0.95258 0.0
C24 C 0.29003 0.42425 0.92056 0.0
C25 C 0.32028 0.44902 0.90653 0.0
H26 H 0.31023 0.37318 0.96826 0.0
H27 H 0.26878 0.42561 0.91191 0.0
H28 H 0.26458 0.31688 0.9581 0.0
H29 H 0.22144 0.30541 0.82515 0.0
H30 H 0.26163 0.47089 0.0623 0.0
H31 H 0.36395 0.41533 0.94518 0.0
H32 H 0.32186 0.46989 0.88917 0.0
C33 C 0.8993 0.22508 0.05532 0.0
C34 C 0.92811 0.23036 0.03705 0.0
N35 N 0.95143 0.24782 0.0685 0.0
N36 N 0.90446 0.23891 0.0982 0.0
C37 C 0.93652 0.25263 0.10525 0.0
H38 H 0.87615 0.2125 0.03799 0.0
Co39 Co 0.87252 0.23812 0.13587 0.0
C40 C 0.90476 0.27412 0.22228 0.0
O41 O 0.88676 0.28766 0.22023 0.0
N42 N 0.83899 0.23579 0.174 0.0
C43 C 0.799 0.23908 0.20876 0.0
C44 C 0.81721 0.24567 0.16844 0.0
C45 C 0.83231 0.222 0.21717 0.0
N46 N 0.80869 0.22423 0.23929 0.0
O47 O 0.85939 0.19491 0.15373 0.0
H48 H 0.81436 0.25722 0.13777 0.0
H49 H 0.8459 0.21206 0.23329 0.0
O50 O 0.90204 0.25399 0.19036 0.0
C51 C 0.8372 0.17279 0.12906 0.0
O52 O 0.82591 0.1809 0.09259 0.0
N53 N 0.88503 0.28038 0.11541 0.0
C54 C 0.89543 0.34102 0.08898 0.0
C55 C 0.91915 0.33796 0.11361 0.0
C56 C 0.91368 0.30739 0.12589 0.0
C57 C 0.86435 0.28261 0.08492 0.0
C58 C 0.86838 0.31266 0.07259 0.0
H59 H 0.9323 0.30578 0.14481 0.0
H60 H 0.8435 0.26083 0.07231 0.0
H61 H 0.94889 0.26615 0.13644 0.0
H62 H 0.93184 0.22307 0.0026 0.0
H63 H 0.78034 0.24503 0.21527 0.0
H64 H 0.94152 0.35896 0.12423 0.0
H65 H 0.84965 0.31336 0.05231 0.0
C66 C 0.6549 0.89442 0.2093 0.0
C67 C 0.67845 0.92105 0.18636 0.0
N68 N 0.69626 0.9437 0.21874 0.0
N69 N 0.65763 0.90013 0.25593 0.0
C70 C 0.6831 0.93023 0.2608 0.0
H71 H 0.63636 0.87249 0.19306 0.0
Co72 Co 0.62928 0.87077 0.29896 0.0
C73 C 0.62933 0.90851 0.38092 0.0
O74 O 0.59775 0.89042 0.3811 0.0
N75 N 0.60059 0.83957 0.34234 0.0
C76 C 0.55986 0.79987 0.38185 0.0
C77 C 0.56959 0.81546 0.33923 0.0
C78 C 0.60938 0.83678 0.38655 0.0
N79 N 0.58492 0.8136 0.4118 0.0
O80 O 0.66029 0.8587 0.31539 0.0
H81 H 0.55446 0.80899 0.30853 0.0
H82 H 0.63344 0.85206 0.40013 0.0
O83 O 0.64578 0.90383 0.34952 0.0
C84 C 0.65882 0.83603 0.29021 0.0
O85 O 0.63843 0.8252 0.25481 0.0
N86 N 0.59839 0.88192 0.27973 0.0
C87 C 0.54734 0.8914 0.25766 0.0
C88 C 0.57604 0.91688 0.27566 0.0
C89 C 0.60173 0.91184 0.28543 0.0
C90 C 0.57302 0.85909 0.25457 0.0
C91 C 0.54653 0.86276 0.24477 0.0
H92 H 0.62379 0.93168 0.29912 0.0
H93 H 0.57286 0.8374 0.24353 0.0
H94 H 0.69153 0.9421 0.29445 0.0
H95 H 0.68129 0.92378 0.14855 0.0
H96 H 0.5359 0.78046 0.39023 0.0
H97 H 0.5781 0.93991 0.28416 0.0
H98 H 0.52541 0.84319 0.22821 0.0
C99 C 0.76867 0.66215 0.37226 0.0
C100 C 0.76376 0.68386 0.34732 0.0
N101 N 0.75094 0.69664 0.37656 0.0
N102 N 0.75918 0.66124 0.41711 0.0
C103 C 0.74856 0.6826 0.41887 0.0
H104 H 0.77798 0.64741 0.35835 0.0
Co105 Co 0.76041 0.63327 0.46088 0.0
C106 C 0.72362 0.63414 0.54345 0.0
O107 O 0.71022 0.60252 0.54463 0.0
N108 N 0.76323 0.605 0.50475 0.0
C109 C 0.76286 0.56446 0.54384 0.0
C110 C 0.75649 0.57403 0.50151 0.0
C111 C 0.7752 0.61396 0.5488 0.0
N112 N 0.77439 0.58959 0.57381 0.0
O113 O 0.8036 0.66478 0.47682 0.0
H114 H 0.74772 0.55886 0.47083 0.0
H115 H 0.78401 0.63806 0.56236 0.0
O116 O 0.74416 0.6502 0.51114 0.0
C117 C 0.825 0.66234 0.45368 0.0
O118 O 0.81577 0.64031 0.42052 0.0
N119 N 0.71831 0.6018 0.44219 0.0
C120 C 0.65826 0.54923 0.42111 0.0
C121 C 0.66074 0.57748 0.43976 0.0
C122 C 0.6912 0.60393 0.4491 0.0
C123 C 0.71632 0.57683 0.41653 0.0
C124 C 0.68648 0.54961 0.40723 0.0
H125 H 0.69276 0.62555 0.46343 0.0
H126 H 0.73811 0.57745 0.40504 0.0
H127 H 0.73821 0.68688 0.44997 0.0
H128 H 0.76905 0.68956 0.31035 0.0
H129 H 0.75857 0.54055 0.55197 0.0
H130 H 0.63943 0.57862 0.44908 0.0
H131 H 0.68547 0.52884 0.39028 0.0
C132 C 0.10709 0.77551 0.54624 0.0
C133 C 0.08115 0.77284 0.52179 0.0
N134 N 0.05477 0.75732 0.54924 0.0
N135 N 0.0972 0.76173 0.58886 0.0
C136 C 0.06525 0.75106 0.58994 0.0
H137 H 0.13162 0.78639 0.53361 0.0
Co138 Co 0.1249 0.759 0.63136 0.0
C139 C 0.08543 0.71919 0.71023 0.0
O140 O 0.1024 0.70454 0.70825 0.0
N141 N 0.15462 0.7579 0.67456 0.0
C142 C 0.19449 0.75591 0.71189 0.0
C143 C 0.17846 0.7508 0.66976 0.0
C144 C 0.15775 0.76849 0.7195 0.0
N145 N 0.18129 0.76698 0.74323 0.0
O146 O 0.13899 0.80217 0.65143 0.0
H147 H 0.18498 0.74334 0.63785 0.0
H148 H 0.14247 0.77675 0.73469 0.0
O149 O 0.09125 0.7419 0.68096 0.0
C150 C 0.16708 0.82243 0.63676 0.0
O151 O 0.18201 0.8123 0.60876 0.0
N152 N 0.11199 0.71713 0.60834 0.0
C153 C 0.10055 0.65615 0.58195 0.0
C154 C 0.07563 0.66018 0.60046 0.0
C155 C 0.08168 0.69101 0.61253 0.0
C156 C 0.13446 0.71437 0.58272 0.0
C157 C 0.1298 0.68405 0.57068 0.0
H158 H 0.06222 0.6935 0.62694 0.0
H159 H 0.15674 0.73581 0.57331 0.0
H160 H 0.04975 0.73794 0.61922 0.0
H161 H 0.08169 0.78148 0.4864 0.0
H162 H 0.21475 0.7524 0.71848 0.0
H163 H 0.05188 0.63968 0.60673 0.0
H164 H 0.14957 0.68268 0.55474 0.0
C165 C 0.32717 0.10458 0.72456 0.0
C166 C 0.30305 0.07648 0.7051 0.0
N167 N 0.29656 0.05212 0.73493 0.0
N168 N 0.33564 0.09796 0.76658 0.0
C169 C 0.31654 0.06573 0.77192 0.0
H170 H 0.33813 0.12829 0.70876 0.0
Co171 Co 0.36698 0.12874 0.80571 0.0
C172 C 0.36851 0.09432 0.89075 0.0
O173 O 0.40012 0.11168 0.88903 0.0
N174 N 0.39836 0.16112 0.84548 0.0
C175 C 0.44188 0.19933 0.88249 0.0
C176 C 0.43034 0.18219 0.84122 0.0
C177 C 0.39104 0.16725 0.8889 0.0
N178 N 0.41702 0.18972 0.91241 0.0
O179 O 0.33784 0.14316 0.82314 0.0
H180 H 0.44501 0.18519 0.81085 0.0
H181 H 0.36719 0.15395 0.90414 0.0
O182 O 0.35165 0.09812 0.85909 0.0
C183 C 0.34108 0.16722 0.79959 0.0
O184 O 0.36277 0.17893 0.76588 0.0
N185 N 0.39592 0.11523 0.78525 0.0
C186 C 0.44515 0.10345 0.75857 0.0
C187 C 0.41769 0.07973 0.78213 0.0
C188 C 0.39311 0.0859 0.79451 0.0
C189 C 0.4196 0.13615 0.75581 0.0
C190 C 0.4451 0.1314 0.74342 0.0
H191 H 0.37234 0.06725 0.8126 0.0
H192 H 0.41965 0.15768 0.74408 0.0
H193 H 0.31717 0.05234 0.80219 0.0
H194 H 0.29193 0.07396 0.67099 0.0
H195 H 0.46666 0.21721 0.89005 0.0
H196 H 0.41536 0.05678 0.7918 0.0
H197 H 0.46511 0.15024 0.72404 0.0
C198 C 0.66325 0.76615 0.95091 0.0
C199 C 0.68709 0.7634 0.9733 0.0
N200 N 0.70338 0.75658 0.94085 0.0
N201 N 0.66428 0.76103 0.90453 0.0
C202 C 0.689 0.75535 0.89924 0.0
H203 H 0.64558 0.77066 0.96747 0.0
Co204 Co 0.63453 0.76082 0.86319 0.0
C205 C 0.6339 0.724 0.77979 0.0
O206 O 0.60231 0.70997 0.78102 0.0
N207 N 0.60426 0.76212 0.82179 0.0
C208 C 0.56177 0.75906 0.78484 0.0
C209 C 0.57275 0.75315 0.82628 0.0
C210 C 0.61201 0.77486 0.77799 0.0
N211 N 0.58659 0.77265 0.75457 0.0
O212 O 0.66424 0.80435 0.84613 0.0
H213 H 0.5581 0.74312 0.8572 0.0
H214 H 0.63576 0.78439 0.76274 0.0
O215 O 0.65073 0.74513 0.81108 0.0
C216 C 0.66216 0.82522 0.87128 0.0
O217 O 0.64198 0.81519 0.90696 0.0
N218 N 0.60505 0.71837 0.88309 0.0
C219 C 0.55536 0.65709 0.90586 0.0
C220 C 0.58385 0.66112 0.88591 0.0
C221 C 0.60889 0.69224 0.87577 0.0
C222 C 0.58017 0.71506 0.91022 0.0
C223 C 0.5543 0.6845 0.92043 0.0
H224 H 0.63075 0.69508 0.86041 0.0
H225 H 0.57971 0.73629 0.92206 0.0
H226 H 0.69593 0.74995 0.86572 0.0
H227 H 0.69109 0.76501 0.01094 0.0
H228 H 0.53746 0.75383 0.77759 0.0
H229 H 0.58611 0.64048 0.87604 0.0
H230 H 0.53333 0.68229 0.93833 0.0
C231 C 0.89011 0.65775 0.11974 0.0
C232 C 0.91646 0.67972 0.14485 0.0
N233 N 0.94194 0.69359 0.11547 0.0
N234 N 0.89873 0.65778 0.07462 0.0
C235 C 0.93046 0.67996 0.07288 0.0
H236 H 0.86626 0.64207 0.13371 0.0
Co237 Co 0.86993 0.62963 0.03069 0.0
C238 C 0.90791 0.62954 0.94951 0.0
O239 O 0.88975 0.59791 0.94916 0.0
N240 N 0.83919 0.60117 0.98654 0.0
C241 C 0.80007 0.56037 0.94616 0.0
C242 C 0.81557 0.56983 0.98887 0.0
C243 C 0.83626 0.61037 0.94261 0.0
N244 N 0.81326 0.58597 0.91715 0.0
O245 O 0.85896 0.66127 0.01292 0.0
H246 H 0.80928 0.5543 0.01911 0.0
H247 H 0.85177 0.63439 0.92881 0.0
O248 O 0.90341 0.64599 0.98114 0.0
C249 C 0.8372 0.66254 0.03676 0.0
O250 O 0.82468 0.64341 0.07331 0.0
N251 N 0.88031 0.59829 0.05083 0.0
C252 C 0.88919 0.54697 0.07458 0.0
C253 C 0.91479 0.57547 0.05632 0.0
C254 C 0.91003 0.60124 0.04557 0.0
C255 C 0.85723 0.57307 0.076 0.0
C256 C 0.86058 0.54641 0.08654 0.0
H257 H 0.93002 0.62308 0.03161 0.0
H258 H 0.83554 0.57309 0.08627 0.0
H259 H 0.94512 0.68503 0.04161 0.0
H260 H 0.91681 0.68474 0.18207 0.0
H261 H 0.78056 0.53655 0.93719 0.0
H262 H 0.93775 0.5773 0.04844 0.0
H263 H 0.84086 0.52539 0.10306 0.0
C264 C 0.2255 0.88936 0.28621 0.0
C265 C 0.22936 0.91573 0.3109 0.0
N266 N 0.24259 0.94152 0.28194 0.0
N267 N 0.23615 0.89834 0.24185 0.0
C268 C 0.24628 0.93024 0.24012 0.0
H269 H 0.21622 0.86524 0.3 0.0
Co270 Co 0.23713 0.87013 0.19822 0.0
C271 C 0.27546 0.90985 0.11825 0.0
O272 O 0.28985 0.8926 0.11758 0.0
N273 N 0.23654 0.84007 0.15427 0.0
C274 C 0.23729 0.79974 0.11612 0.0
C275 C 0.24302 0.81573 0.15841 0.0
C276 C 0.22557 0.83722 0.10962 0.0
N277 N 0.22642 0.81344 0.08534 0.0
O278 O 0.19409 0.85705 0.18012 0.0
H279 H 0.25063 0.80896 0.18994 0.0
H280 H 0.21766 0.85295 0.09496 0.0
O281 O 0.25364 0.90387 0.14906 0.0
C282 C 0.17326 0.83212 0.20208 0.0
O283 O 0.18321 0.81957 0.2346 0.0
N284 N 0.27906 0.88215 0.21917 0.0
C285 C 0.33956 0.89301 0.24641 0.0
C286 C 0.33603 0.918 0.22687 0.0
C287 C 0.30543 0.91227 0.21446 0.0
C288 C 0.28144 0.8595 0.245 0.0
C289 C 0.3115 0.86387 0.25752 0.0
H290 H 0.30325 0.93196 0.20013 0.0
H291 H 0.25987 0.83744 0.25477 0.0
H292 H 0.2574 0.9452 0.2095 0.0
H293 H 0.22323 0.9159 0.34754 0.0
H294 H 0.24034 0.77922 0.10901 0.0
H295 H 0.35669 0.94166 0.22059 0.0
H296 H 0.31257 0.84408 0.27411 0.0
C297 C 0.3283 0.22398 0.44835 0.0
C298 C 0.30471 0.22874 0.46783 0.0
N299 N 0.29809 0.24609 0.43722 0.0
N300 N 0.33629 0.23807 0.40557 0.0
C301 C 0.31741 0.25134 0.39976 0.0
H302 H 0.33923 0.21138 0.46461 0.0
Co303 Co 0.36684 0.23744 0.36605 0.0
C304 C 0.36942 0.27402 0.2813 0.0
O305 O 0.40098 0.2879 0.28355 0.0
N306 N 0.39728 0.23517 0.32574 0.0
C307 C 0.43966 0.2389 0.28751 0.0
C308 C 0.42883 0.24424 0.32965 0.0
C309 C 0.38939 0.2228 0.28174 0.0
N310 N 0.4148 0.22584 0.25713 0.0
O311 O 0.33663 0.194 0.34912 0.0
H312 H 0.44374 0.25469 0.36025 0.0
H313 H 0.36538 0.21285 0.26738 0.0
O314 O 0.35206 0.25332 0.3127 0.0
C315 C 0.33943 0.17298 0.37282 0.0
O316 O 0.36112 0.18283 0.4065 0.0
N317 N 0.39693 0.27989 0.38589 0.0
C318 C 0.44746 0.34105 0.41 0.0
C319 C 0.41946 0.33738 0.38847 0.0
C320 C 0.39427 0.30657 0.37735 0.0
C321 C 0.42128 0.28266 0.41373 0.0
C322 C 0.44742 0.31298 0.42475 0.0
H323 H 0.37318 0.30453 0.36051 0.0
H324 H 0.42119 0.26113 0.42552 0.0
H325 H 0.31775 0.26468 0.36882 0.0
H326 H 0.29407 0.22104 0.50242 0.0
H327 H 0.46425 0.24549 0.27942 0.0
H328 H 0.41716 0.35808 0.3793 0.0
H329 H 0.46781 0.31411 0.44282 0.0
C330 C 0.10752 0.33436 0.62058 0.0
C331 C 0.08116 0.31166 0.64515 0.0
N332 N 0.05497 0.30106 0.61739 0.0
N333 N 0.09806 0.33815 0.5776 0.0
C334 C 0.06594 0.31742 0.57647 0.0
H335 H 0.13204 0.34768 0.63336 0.0
Co336 Co 0.12606 0.36782 0.53437 0.0
C337 C 0.08657 0.36602 0.45378 0.0
O338 O 0.10362 0.39773 0.453 0.0
N339 N 0.15588 0.39791 0.49042 0.0
C340 C 0.19484 0.43995 0.45191 0.0
C341 C 0.17899 0.42932 0.49419 0.0
C342 C 0.15934 0.3899 0.44595 0.0
N343 N 0.18226 0.4151 0.42141 0.0
O344 O 0.13981 0.33816 0.51623 0.0
H345 H 0.18485 0.44402 0.52533 0.0
H346 H 0.14508 0.36576 0.4319 0.0
O347 O 0.0925 0.3503 0.48492 0.0
C348 C 0.16788 0.34602 0.53089 0.0
O349 O 0.1833 0.37174 0.55767 0.0
N350 N 0.11355 0.39741 0.55548 0.0
C351 C 0.10456 0.44882 0.57794 0.0
C352 C 0.07912 0.42034 0.55921 0.0
C353 C 0.08391 0.39445 0.54921 0.0
C354 C 0.13615 0.42238 0.58154 0.0
C355 C 0.13273 0.44903 0.59165 0.0
H356 H 0.06419 0.37277 0.53445 0.0
H357 H 0.15783 0.42243 0.59212 0.0
H358 H 0.0507 0.31514 0.54693 0.0
H359 H 0.08129 0.30371 0.6808 0.0
H360 H 0.2139 0.46425 0.44428 0.0
H361 H 0.05645 0.41872 0.54994 0.0
H362 H 0.15229 0.46998 0.60856 0.0
C363 C 0.76828 0.10796 0.78406 0.0
C364 C 0.764 0.08135 0.80849 0.0
N365 N 0.751 0.05577 0.77912 0.0
N366 N 0.75819 0.09938 0.73941 0.0
C367 C 0.74788 0.06744 0.73726 0.0
H368 H 0.7776 0.13199 0.79818 0.0
Co369 Co 0.75839 0.12836 0.69611 0.0
C370 C 0.72083 0.09012 0.61434 0.0
O371 O 0.70693 0.10784 0.61414 0.0
N372 N 0.76013 0.15919 0.65252 0.0
C373 C 0.75771 0.19818 0.61308 0.0
C374 C 0.75265 0.18288 0.65584 0.0
C375 C 0.77131 0.16199 0.60803 0.0
N376 N 0.76912 0.18469 0.5828 0.0
O377 O 0.80165 0.14098 0.67911 0.0
H378 H 0.74403 0.18919 0.68675 0.0
H379 H 0.78033 0.14698 0.59415 0.0
O380 O 0.74198 0.09507 0.64587 0.0
C381 C 0.82282 0.16529 0.70189 0.0
O382 O 0.81324 0.1779 0.73483 0.0
N383 N 0.71633 0.11688 0.71599 0.0
C384 C 0.65612 0.10807 0.73888 0.0
C385 C 0.65891 0.08252 0.72008 0.0
C386 C 0.68948 0.08723 0.70981 0.0
C387 C 0.71417 0.13971 0.74176 0.0
C388 C 0.6842 0.1364 0.75198 0.0
H389 H 0.69128 0.06735 0.6953 0.0
H390 H 0.73589 0.16127 0.75263 0.0
H391 H 0.73721 0.05279 0.70623 0.0
H392 H 0.76984 0.08093 0.8452 0.0
H393 H 0.75247 0.21714 0.60478 0.0
H394 H 0.63772 0.05973 0.71133 0.0
H395 H 0.68299 0.15603 0.76898 0.0
H396 H 0.14509 0.37331 0.35271 0.0
H397 H 0.27065 0.46911 0.14679 0.0
H398 H 0.23777 0.45825 0.37716 0.0
H399 H 0.18898 0.37329 0.13019 0.0
H400 H 0.25656 0.46813 0.2299 0.0
H401 H 0.15886 0.375 0.26989 0.0
C402 C 0.16847 0.39216 0.34096 0.0
C403 C 0.19036 0.41558 0.37236 0.0
C404 C 0.24173 0.44733 0.20805 0.0
C405 C 0.20597 0.418 0.27689 0.0
C406 C 0.24962 0.44799 0.16058 0.0
C407 C 0.231 0.4212 0.13167 0.0
C408 C 0.21486 0.4198 0.22657 0.0
C409 C 0.20421 0.39426 0.15143 0.0
C410 C 0.17622 0.39321 0.29343 0.0
C411 C 0.21998 0.43987 0.35439 0.0
N412 N 0.1969 0.39427 0.19763 0.0
N413 N 0.22689 0.44047 0.30785 0.0
H414 H 0.80543 0.17435 0.28836 0.0
H415 H 0.78044 0.23869 0.53491 0.0
H416 H 0.79139 0.25626 0.30058 0.0
H417 H 0.7696 0.14418 0.51596 0.0
H418 H 0.7874 0.24722 0.44989 0.0
H419 H 0.79493 0.16422 0.37271 0.0
C420 C 0.79994 0.19006 0.30888 0.0
C421 C 0.7993 0.21617 0.28766 0.0
C422 C 0.78348 0.22463 0.46448 0.0
C423 C 0.78754 0.20499 0.38405 0.0
C424 C 0.77948 0.21971 0.51305 0.0
C425 C 0.77458 0.19072 0.53294 0.0
C426 C 0.78278 0.20048 0.43559 0.0
C427 C 0.77395 0.16717 0.50266 0.0
C428 C 0.79388 0.18427 0.35692 0.0
C429 C 0.79179 0.23569 0.31559 0.0
N430 N 0.77807 0.17262 0.4556 0.0
N431 N 0.78648 0.22988 0.36253 0.0
H432 H 0.54304 0.759 0.45924 0.0
H433 H 0.63435 0.82111 0.70476 0.0
H434 H 0.62655 0.8536 0.47853 0.0
H435 H 0.53722 0.74115 0.69336 0.0
H436 H 0.63398 0.83126 0.62037 0.0
H437 H 0.54246 0.74967 0.54387 0.0
C438 C 0.56123 0.77783 0.48107 0.0
C439 C 0.58495 0.8071 0.46138 0.0
C440 C 0.61267 0.81161 0.63638 0.0
C441 C 0.58456 0.79639 0.55826 0.0
C442 C 0.61294 0.80578 0.68441 0.0
C443 C 0.58578 0.78029 0.70587 0.0
C444 C 0.58518 0.79152 0.60957 0.0
C445 C 0.5585 0.76126 0.67816 0.0
C446 C 0.56089 0.77245 0.52941 0.0
C447 C 0.60815 0.83042 0.49163 0.0
N448 N 0.55896 0.7671 0.63127 0.0
N449 N 0.6074 0.82452 0.53847 0.0
H450 H 0.78692 0.54726 0.62022 0.0
H451 H 0.8167 0.63612 0.86824 0.0
H452 H 0.77797 0.63187 0.64117 0.0
H453 H 0.79522 0.5376 0.85396 0.0
H454 H 0.8082 0.63774 0.78345 0.0
H455 H 0.7958 0.54609 0.70459 0.0
C456 C 0.78677 0.56559 0.64233 0.0
C457 C 0.78158 0.58966 0.62317 0.0
C458 C 0.80521 0.61573 0.79894 0.0
C459 C 0.79216 0.58862 0.7199 0.0
C460 C 0.81016 0.61485 0.84718 0.0
C461 C 0.80657 0.58667 0.86799 0.0
C462 C 0.79704 0.58836 0.77128 0.0
C463 C 0.79781 0.55965 0.83932 0.0
C464 C 0.79192 0.56491 0.69056 0.0
C465 C 0.78228 0.61309 0.65384 0.0
N466 N 0.79354 0.56121 0.79232 0.0
N467 N 0.78748 0.61197 0.70063 0.0
H468 H 0.21148 0.74467 0.80023 0.0
H469 H 0.18767 0.82628 0.03048 0.0
H470 H 0.16979 0.8064 0.79887 0.0
H471 H 0.24767 0.78271 0.02745 0.0
H472 H 0.17768 0.81571 0.94651 0.0
H473 H 0.22259 0.75562 0.88421 0.0
C474 C 0.20489 0.76072 0.81735 0.0
C475 C 0.18948 0.77445 0.79227 0.0
C476 C 0.19306 0.80848 0.96422 0.0
C477 C 0.20164 0.78663 0.88867 0.0
C478 C 0.19889 0.81462 0.01226 0.0
C479 C 0.21878 0.80562 0.03625 0.0
C480 C 0.20704 0.79305 0.93986 0.0
C481 C 0.23196 0.78984 0.01068 0.0
C482 C 0.21107 0.76679 0.86542 0.0
C483 C 0.18111 0.79473 0.81671 0.0
N484 N 0.22589 0.7841 0.96387 0.0
N485 N 0.18719 0.80008 0.86352 0.0
H486 H 0.37052 0.19291 0.96175 0.0
H487 H 0.45855 0.21607 0.2096 0.0
H488 H 0.46553 0.20499 0.97459 0.0
H489 H 0.37391 0.22475 0.18983 0.0
H490 H 0.46068 0.2095 0.12436 0.0
H491 H 0.37041 0.20222 0.04633 0.0
C492 C 0.39141 0.19767 0.98245 0.0
C493 C 0.41804 0.19815 0.96125 0.0
C494 C 0.44165 0.21281 0.13886 0.0
C495 C 0.4181 0.20865 0.05809 0.0
C496 C 0.44042 0.21657 0.18751 0.0
C497 C 0.41585 0.22068 0.20724 0.0
C498 C 0.41808 0.21304 0.10976 0.0
C499 C 0.39287 0.2209 0.17673 0.0
C500 C 0.3914 0.20306 0.03068 0.0
C501 C 0.44466 0.20475 0.98954 0.0
N502 N 0.39454 0.21708 0.12967 0.0
N503 N 0.44393 0.2095 0.03664 0.0
H504 H 0.2546 0.26301 0.947 0.0
H505 H 0.33154 0.20791 0.74404 0.0
H506 H 0.25857 0.28956 0.80089 0.0
H507 H 0.30906 0.16371 0.88168 0.0
H508 H 0.30485 0.23808 0.76507 0.0
H509 H 0.27469 0.22675 0.92498 0.0
C510 C 0.25962 0.26118 0.91032 0.0
C511 C 0.25501 0.27948 0.87576 0.0
C512 C 0.30547 0.22162 0.79064 0.0
C513 C 0.2779 0.23805 0.85035 0.0
C514 C 0.32079 0.20442 0.77867 0.0
C515 C 0.32258 0.18335 0.81122 0.0
C516 C 0.29217 0.21813 0.83579 0.0
C517 C 0.30809 0.17964 0.85549 0.0
C518 C 0.27088 0.24033 0.89775 0.0
C519 C 0.26146 0.27577 0.82867 0.0
N520 N 0.29373 0.19714 0.8667 0.0
N521 N 0.27281 0.25571 0.81745 0.0
H522 H 0.14447 0.28826 0.00119 0.0
H523 H 0.99831 0.30728 0.09446 0.0
H524 H 0.14376 0.37793 0.99348 0.0
H525 H 0.98187 0.21977 0.02648 0.0
H526 H 0.0559 0.33205 0.07652 0.0
H527 H 0.08811 0.26116 0.02843 0.0
C528 C 0.1325 0.3022 0.0055 0.0
C529 C 0.1485 0.33523 0.9947 0.0
C530 C 0.03967 0.30733 0.06593 0.0
C531 C 0.08496 0.30483 0.02657 0.0
C532 C 0.00697 0.29317 0.07641 0.0
C533 C 0.98549 0.26156 0.06168 0.0
C534 C 0.05096 0.28952 0.04135 0.0
C535 C 0.99778 0.24433 0.03793 0.0
C536 C 0.10049 0.28678 0.02085 0.0
C537 C 0.13208 0.35232 0.00087 0.0
N538 N 0.02982 0.25852 0.02851 0.0
N539 N 0.10124 0.33696 0.01666 0.0
H540 H 0.80747 0.12029 0.07216 0.0
H541 H 0.72025 0.99593 0.27765 0.0
H542 H 0.83205 0.1478 0.21757 0.0
H543 H 0.73151 0.96651 0.13832 0.0
H544 H 0.75982 0.05161 0.25758 0.0
H545 H 0.77761 0.06368 0.09605 0.0
C546 C 0.80679 0.11432 0.10911 0.0
C547 C 0.82215 0.13863 0.14297 0.0
C548 C 0.75378 0.03281 0.23168 0.0
C549 C 0.78762 0.07403 0.17068 0.0
C550 C 0.73118 0.0009 0.24309 0.0
C551 C 0.72189 0.97625 0.2094 0.0
C552 C 0.76686 0.0402 0.18612 0.0
C553 C 0.73702 0.98458 0.1651 0.0
C554 C 0.78986 0.08203 0.12272 0.0
C555 C 0.82063 0.12966 0.19039 0.0
N556 N 0.75837 0.01584 0.1546 0.0
N557 N 0.8032 0.09802 0.203 0.0
H558 H 0.73197 0.7048 0.29018 0.0
H559 H 0.68996 0.83937 0.37329 0.0
H560 H 0.74452 0.73893 0.43364 0.0
H561 H 0.66818 0.79462 0.23599 0.0
H562 H 0.71489 0.80714 0.39493 0.0
H563 H 0.71332 0.74176 0.26877 0.0
C564 C 0.73112 0.72029 0.31721 0.0
C565 C 0.73999 0.71874 0.36384 0.0
C566 C 0.70482 0.80459 0.36 0.0
C567 C 0.71802 0.76113 0.33949 0.0
C568 C 0.69078 0.8231 0.34754 0.0
C569 C 0.67688 0.81957 0.30281 0.0
C570 C 0.70508 0.78264 0.32735 0.0
C571 C 0.6784 0.79799 0.27094 0.0
C572 C 0.72021 0.74132 0.30497 0.0
C573 C 0.73765 0.73907 0.3974 0.0
N574 N 0.69213 0.78034 0.28387 0.0
N575 N 0.72687 0.75944 0.38458 0.0
H576 H 0.00495 0.74631 0.60705 0.0
H577 H 0.87619 0.67411 0.39893 0.0
H578 H 0.02947 0.74481 0.46118 0.0
H579 H 0.85215 0.69317 0.53717 0.0
H580 H 0.93267 0.70043 0.42193 0.0
H581 H 0.94896 0.7268 0.58349 0.0
C582 C 0.99861 0.74194 0.57013 0.0
C583 C 0.022 0.74718 0.53608 0.0
C584 C 0.91517 0.69917 0.44722 0.0
C585 C 0.95811 0.72499 0.5089 0.0
C586 C 0.88288 0.68411 0.43408 0.0
C587 C 0.85947 0.6814 0.46623 0.0
C588 C 0.92421 0.71126 0.49315 0.0
C589 C 0.86951 0.6949 0.51126 0.0
C590 C 0.96671 0.73103 0.55668 0.0
C591 C 0.01246 0.7415 0.48865 0.0
N592 N 0.90115 0.70897 0.52361 0.0
N593 N 0.9813 0.73053 0.47658 0.0
H594 H 0.23798 0.02435 0.69308 0.0
H595 H 0.23132 0.85894 0.65124 0.0
H596 H 0.30676 0.00308 0.7569 0.0
H597 H 0.14288 0.86122 0.66441 0.0
H598 H 0.26118 0.91431 0.68052 0.0
H599 H 0.20385 0.96681 0.67343 0.0
C600 C 0.24571 0.00748 0.70316 0.0
C601 C 0.27515 0.0183 0.72654 0.0
C602 C 0.23523 0.90266 0.67721 0.0
C603 C 0.23679 0.95308 0.70371 0.0
C604 C 0.21821 0.87119 0.6602 0.0
C605 C 0.18465 0.85565 0.65522 0.0
C606 C 0.2187 0.91904 0.68827 0.0
C607 C 0.16878 0.87247 0.66783 0.0
C608 C 0.22624 0.97478 0.69223 0.0
C609 C 0.28413 0.99559 0.73917 0.0
N610 N 0.18604 0.90356 0.68324 0.0
N611 N 0.26525 0.9641 0.72697 0.0
H612 H 0.81018 0.68904 0.09171 0.0
H613 H 0.72368 0.72398 0.8842 0.0
H614 H 0.83289 0.6811 0.94705 0.0
H615 H 0.7412 0.772 0.01891 0.0
H616 H 0.76201 0.70654 0.90526 0.0
H617 H 0.78254 0.71748 0.06556 0.0
C618 C 0.80959 0.69361 0.05445 0.0
C619 C 0.82376 0.68277 0.02146 0.0
C620 C 0.75762 0.72121 0.92987 0.0
C621 C 0.7917 0.71467 0.99121 0.0
C622 C 0.73575 0.73127 0.91789 0.0
C623 C 0.72851 0.74904 0.95015 0.0
C624 C 0.772 0.72858 0.97461 0.0
C625 C 0.74506 0.75754 0.99337 0.0
C626 C 0.79393 0.70991 0.03955 0.0
C627 C 0.82238 0.6893 0.97357 0.0
N628 N 0.76561 0.74685 0.00457 0.0
N629 N 0.80612 0.70442 0.95972 0.0
H630 H 0.96926 0.70068 0.20145 0.0
H631 H 0.14513 0.83832 0.1212 0.0
H632 H 0.99022 0.73735 0.05919 0.0
H633 H 0.12301 0.78799 0.25419 0.0
H634 H 0.08787 0.80648 0.09956 0.0
H635 H 0.0248 0.73753 0.22302 0.0
C636 C 0.98543 0.71672 0.17473 0.0
C637 C 0.97489 0.71589 0.12838 0.0
C638 C 0.09562 0.80263 0.13355 0.0
C639 C 0.03919 0.75811 0.15288 0.0
C640 C 0.12819 0.82088 0.14601 0.0
C641 C 0.13879 0.81567 0.18949 0.0
C642 C 0.07365 0.77931 0.16503 0.0
C643 C 0.11595 0.79265 0.22019 0.0
C644 C 0.01735 0.73767 0.18705 0.0
C645 C 0.99737 0.73693 0.0952 0.0
N646 N 0.08456 0.77534 0.20734 0.0
N647 N 0.02852 0.75722 0.10808 0.0
H648 H 0.24974 0.99019 0.22432 0.0
H649 H 0.33046 0.12252 0.42738 0.0
H650 H 0.26038 0.96864 0.36858 0.0
H651 H 0.30666 0.14461 0.291 0.0
H652 H 0.30409 0.06576 0.40563 0.0
H653 H 0.27022 0.04667 0.24676 0.0
C654 C 0.25632 0.99728 0.26065 0.0
C655 C 0.25333 0.97457 0.29458 0.0
C656 C 0.30436 0.08289 0.38046 0.0
C657 C 0.27661 0.039 0.32049 0.0
C658 C 0.31947 0.11536 0.39288 0.0
C659 C 0.32084 0.13832 0.36089 0.0
C660 C 0.29077 0.07317 0.33542 0.0
C661 C 0.30603 0.12763 0.31675 0.0
C662 C 0.2678 0.02946 0.27349 0.0
C663 C 0.26185 0.98506 0.34128 0.0
N664 N 0.29184 0.09579 0.3051 0.0
N665 N 0.27324 0.01646 0.35271 0.0
H666 H 0.30906 0.30521 0.41249 0.0
H667 H 0.14242 0.28232 0.50577 0.0
H668 H 0.23991 0.21677 0.48044 0.0
H669 H 0.23202 0.37253 0.51641 0.0
H670 H 0.1727 0.25612 0.47879 0.0
H671 H 0.27523 0.32866 0.43167 0.0
C672 C 0.2865 0.29062 0.43083 0.0
C673 C 0.27722 0.25912 0.44513 0.0
C674 C 0.18554 0.28166 0.487 0.0
C675 C 0.23849 0.28558 0.46682 0.0
C676 C 0.16836 0.29656 0.50219 0.0
C677 C 0.18486 0.32949 0.51368 0.0
C678 C 0.21915 0.30015 0.48204 0.0
C679 C 0.21845 0.34698 0.50846 0.0
C680 C 0.26738 0.30403 0.44201 0.0
C681 C 0.24793 0.24126 0.46928 0.0
N682 N 0.23447 0.33216 0.49271 0.0
N683 N 0.22946 0.25471 0.47932 0.0
H684 H 0.02895 0.28949 0.70495 0.0
H685 H 0.85075 0.16006 0.62015 0.0
H686 H 0.00542 0.26187 0.55932 0.0
H687 H 0.87352 0.20699 0.75586 0.0
H688 H 0.90819 0.191 0.59924 0.0
H689 H 0.97293 0.25308 0.72612 0.0
C690 C 0.01208 0.27553 0.67742 0.0
C691 C 0.02198 0.27882 0.63023 0.0
C692 C 0.90054 0.19431 0.63367 0.0
C693 C 0.95742 0.23712 0.65428 0.0
C694 C 0.86786 0.17654 0.64571 0.0
C695 C 0.85739 0.18108 0.68973 0.0
C696 C 0.9228 0.21642 0.66613 0.0
C697 C 0.8805 0.20289 0.72141 0.0
C698 C 0.97998 0.25486 0.68951 0.0
C699 C 0.99878 0.26038 0.59603 0.0
N700 N 0.91204 0.21972 0.70899 0.0
N701 N 0.96755 0.2403 0.60871 0.0
H702 H 0.74423 0.00743 0.72087 0.0
H703 H 0.67198 0.87567 0.92658 0.0
H704 H 0.73343 0.02819 0.8655 0.0
H705 H 0.69091 0.85341 0.78702 0.0
H706 H 0.69572 0.93208 0.90401 0.0
H707 H 0.72534 0.95119 0.74311 0.0
C708 C 0.73791 0.00023 0.75721 0.0
C709 C 0.74052 0.02269 0.79135 0.0
C710 C 0.69495 0.915 0.87827 0.0
C711 C 0.71911 0.95853 0.81705 0.0
C712 C 0.68137 0.88273 0.89119 0.0
C713 C 0.67941 0.85981 0.85862 0.0
C714 C 0.70644 0.92457 0.83218 0.0
C715 C 0.69209 0.87038 0.81329 0.0
C716 C 0.72733 0.96818 0.76994 0.0
C717 C 0.73232 0.01202 0.83804 0.0
N718 N 0.70486 0.90202 0.80124 0.0
N719 N 0.72191 0.98079 0.84938 0.0
H720 H 0.2488 0.30561 0.08096 0.0
H721 H 0.40114 0.31941 0.21414 0.0
H722 H 0.34118 0.39292 0.09147 0.0
H723 H 0.30505 0.25238 0.26326 0.0
H724 H 0.37858 0.33937 0.15568 0.0
H725 H 0.26821 0.27919 0.1362 0.0
C726 C 0.27309 0.3191 0.0947 0.0
C727 C 0.29339 0.35151 0.08189 0.0
C728 C 0.36236 0.32025 0.17917 0.0
C729 C 0.31561 0.32158 0.14379 0.0
C730 C 0.37521 0.30874 0.21261 0.0
C731 C 0.35498 0.28441 0.24415 0.0
C732 C 0.32894 0.30732 0.1767 0.0
C733 C 0.32151 0.27136 0.23986 0.0
C734 C 0.28403 0.30412 0.12622 0.0
C735 C 0.3246 0.368 0.10065 0.0
N736 N 0.30943 0.28307 0.2067 0.0
N737 N 0.33476 0.35282 0.13036 0.0
H738 H 0.92251 0.32346 0.28422 0.0
H739 H 0.05386 0.30208 0.42595 0.0
H740 H 0.94437 0.24945 0.24426 0.0
H741 H 0.05618 0.39279 0.40804 0.0
H742 H 0.00812 0.27693 0.37041 0.0
H743 H 0.96538 0.34326 0.3423 0.0
C744 C 0.93622 0.3112 0.28777 0.0
C745 C 0.92995 0.28486 0.259 0.0
C746 C 0.01883 0.30233 0.37881 0.0
C747 C 0.97927 0.30756 0.32593 0.0
C748 C 0.04472 0.31661 0.4105 0.0
C749 C 0.05887 0.34958 0.42141 0.0
C750 C 0.0068 0.3211 0.35904 0.0
C751 C 0.04622 0.36737 0.40045 0.0
C752 C 0.96081 0.32264 0.32092 0.0
C753 C 0.94857 0.26997 0.26553 0.0
N754 N 0.02087 0.35289 0.37058 0.0
N755 N 0.9725 0.28155 0.29844 0.0
H756 H 0.6002 0.93519 0.43012 0.0
H757 H 0.74772 0.05214 0.59305 0.0
H758 H 0.69307 0.94313 0.40937 0.0
H759 H 0.6692 0.06774 0.55622 0.0
H760 H 0.72743 0.00788 0.5348 0.0
H761 H 0.62413 0.97906 0.48658 0.0
C762 C 0.62571 0.94613 0.43754 0.0
C763 C 0.64468 0.93548 0.4149 0.0
C764 C 0.71492 0.02125 0.53956 0.0
C765 C 0.67235 0.986 0.4801 0.0
C766 C 0.72633 0.04632 0.57282 0.0
C767 C 0.71008 0.06361 0.57963 0.0
C768 C 0.68685 0.01327 0.51386 0.0
C769 C 0.68258 0.05518 0.55236 0.0
C770 C 0.6394 0.97133 0.46971 0.0
C771 C 0.67767 0.95079 0.42592 0.0
N772 N 0.67179 0.03056 0.52109 0.0
N773 N 0.69054 0.97528 0.4581 0.0
H774 H 0.75168 0.69896 0.56631 0.0
H775 H 0.60374 0.66962 0.72709 0.0
H776 H 0.67074 0.60514 0.59923 0.0
H777 H 0.6978 0.75242 0.75199 0.0
H778 H 0.62704 0.64995 0.6694 0.0
H779 H 0.73171 0.72307 0.62473 0.0
C780 C 0.7298 0.6835 0.58568 0.0
C781 C 0.71283 0.64999 0.57786 0.0
C782 C 0.6427 0.67243 0.68742 0.0
C783 C 0.68996 0.67726 0.64377 0.0
C784 C 0.62938 0.68381 0.72034 0.0
C785 C 0.64885 0.71273 0.74459 0.0
C786 C 0.67581 0.69012 0.67792 0.0
C787 C 0.68198 0.72991 0.73422 0.0
C788 C 0.71857 0.69722 0.61904 0.0
C789 C 0.68471 0.63104 0.60402 0.0
N790 N 0.6945 0.7184 0.70136 0.0
N791 N 0.67412 0.64494 0.63541 0.0
H792 H 0.05736 0.66189 0.75576 0.0
H793 H 0.94549 0.69436 0.92744 0.0
H794 H 0.05282 0.74942 0.74313 0.0
H795 H 0.92973 0.59992 0.89108 0.0
H796 H 0.98857 0.71806 0.8676 0.0
H797 H 0.01462 0.64195 0.81373 0.0
C798 C 0.04736 0.67702 0.76522 0.0
C799 C 0.05872 0.70741 0.74452 0.0
C800 C 0.97546 0.69217 0.87283 0.0
C801 C 0.00939 0.68451 0.81149 0.0
C802 C 0.95107 0.67867 0.90701 0.0
C803 C 0.93404 0.64511 0.91434 0.0
C804 C 0.983 0.67191 0.84662 0.0
C805 C 0.94211 0.62587 0.88679 0.0
C806 C 0.02278 0.6655 0.7983 0.0
C807 C 0.0446 0.72577 0.75815 0.0
N808 N 0.96602 0.63954 0.85451 0.0
N809 N 0.02068 0.71409 0.79115 0.0
H810 H 0.24489 0.94315 0.09088 0.0
H811 H 0.39901 0.07558 0.9528 0.0
H812 H 0.33265 0.94005 0.07248 0.0
H813 H 0.30384 0.05459 0.91102 0.0
H814 H 0.37505 0.03191 0.00958 0.0
H815 H 0.26608 0.98941 0.0361 0.0
C816 C 0.26853 0.95221 0.07546 0.0
C817 C 0.28701 0.93771 0.08606 0.0
C818 C 0.35934 0.03683 0.98808 0.0
C819 C 0.31129 0.99038 0.02457 0.0
C820 C 0.373 0.06189 0.95565 0.0
C821 C 0.3534 0.06864 0.92674 0.0
C822 C 0.32575 0.01837 0.99223 0.0
C823 C 0.31981 0.05002 0.93243 0.0
C824 C 0.28048 0.9784 0.0442 0.0
C825 C 0.31745 0.95028 0.06514 0.0
N826 N 0.30694 0.02561 0.96466 0.0
N827 N 0.32865 0.97593 0.03573 0.0
H828 H 0.54826 0.6008 0.94281 0.0
H829 H 0.36907 0.49283 0.8467 0.0
H830 H 0.49636 0.64032 0.87145 0.0
H831 H 0.40193 0.46695 0.9723 0.0
H832 H 0.42067 0.54304 0.84259 0.0
H833 H 0.49899 0.54737 0.9421 0.0
C834 C 0.52648 0.59816 0.9271 0.0
C835 C 0.52608 0.62489 0.90768 0.0
C836 C 0.41654 0.52616 0.87079 0.0
C837 C 0.47042 0.56427 0.90562 0.0
C838 C 0.38703 0.49751 0.87334 0.0
C839 C 0.38072 0.47563 0.91036 0.0
C840 C 0.44017 0.53285 0.90501 0.0
C841 C 0.40559 0.48279 0.94288 0.0
C842 C 0.49853 0.56783 0.92668 0.0
C843 C 0.49743 0.62034 0.88745 0.0
N844 N 0.43417 0.51084 0.93955 0.0
N845 N 0.47078 0.59056 0.8867 0.0
H846 H 0.87271 0.3626 0.0161 0.0
H847 H 0.93608 0.53922 0.1176 0.0
H848 H 0.9235 0.39322 0.14885 0.0
H849 H 0.84803 0.48803 0.03788 0.0
H850 H 0.94006 0.48992 0.11897 0.0
H851 H 0.87198 0.41319 0.0126 0.0
C852 C 0.88375 0.37979 0.04451 0.0
C853 C 0.89791 0.37318 0.0831 0.0
C854 C 0.91987 0.48957 0.10132 0.0
C855 C 0.89783 0.43158 0.07839 0.0
C856 C 0.91761 0.51756 0.10054 0.0
C857 C 0.89152 0.51741 0.07802 0.0
C858 C 0.89632 0.46166 0.07837 0.0
C859 C 0.86825 0.48889 0.05618 0.0
C860 C 0.88341 0.40874 0.04228 0.0
C861 C 0.91267 0.39714 0.118 0.0
N862 N 0.87131 0.46219 0.05659 0.0
N863 N 0.91224 0.42524 0.1148 0.0
H864 H 0.53936 0.93965 0.21929 0.0
H865 H 0.36011 0.867 0.31574 0.0
H866 H 0.48849 0.84873 0.29273 0.0
H867 H 0.39346 0.9271 0.19138 0.0
H868 H 0.41147 0.86806 0.31924 0.0
H869 H 0.48978 0.94297 0.21953 0.0
C870 C 0.51774 0.92044 0.23536 0.0
C871 C 0.51777 0.89371 0.25557 0.0
C872 C 0.40749 0.88114 0.29139 0.0
C873 C 0.46165 0.89768 0.25692 0.0
C874 C 0.37811 0.88046 0.28919 0.0
C875 C 0.37205 0.89663 0.25282 0.0
C876 C 0.43125 0.89848 0.25746 0.0
C877 C 0.39695 0.9145 0.22037 0.0
C878 C 0.48958 0.92232 0.23547 0.0
C879 C 0.48926 0.86948 0.27615 0.0
N880 N 0.42541 0.91488 0.22339 0.0
N881 N 0.46238 0.87212 0.27654 0.0
H882 H 0.46803 0.39341 0.35098 0.0
H883 H 0.64385 0.49062 0.45565 0.0
H884 H 0.49495 0.36335 0.4785 0.0
H885 H 0.60127 0.53931 0.3833 0.0
H886 H 0.59139 0.44087 0.4557 0.0
H887 H 0.51816 0.4449 0.35516 0.0
C888 C 0.48406 0.39761 0.38033 0.0
C889 C 0.4769 0.37358 0.41445 0.0
C890 C 0.59353 0.46245 0.43986 0.0
C891 C 0.53513 0.43239 0.41808 0.0
C892 C 0.62345 0.49069 0.43941 0.0
C893 C 0.62681 0.51895 0.41918 0.0
C894 C 0.56691 0.46231 0.41916 0.0
C895 C 0.59958 0.51796 0.39923 0.0
C896 C 0.51287 0.42704 0.38235 0.0
C897 C 0.49944 0.38057 0.45074 0.0
N898 N 0.57074 0.48996 0.39932 0.0
N899 N 0.52765 0.40916 0.45128 0.0
H900 H 0.0654 0.60302 0.63827 0.0
H901 H 0.14894 0.50759 0.54424 0.0
H902 H 0.12773 0.63422 0.51624 0.0
H903 H 0.05629 0.45811 0.61285 0.0
H904 H 0.14544 0.55681 0.54196 0.0
H905 H 0.0642 0.55152 0.63579 0.0
C906 C 0.07842 0.59903 0.61041 0.0
C907 C 0.09688 0.62341 0.57752 0.0
C908 C 0.12587 0.53519 0.55749 0.0
C909 C 0.09638 0.56464 0.57583 0.0
C910 C 0.128 0.50724 0.55929 0.0
C911 C 0.10297 0.47889 0.57911 0.0
C912 C 0.09873 0.53498 0.57634 0.0
C913 C 0.07609 0.47953 0.59731 0.0
C914 C 0.07788 0.56961 0.60937 0.0
C915 C 0.11379 0.61669 0.54308 0.0
N916 N 0.07478 0.50728 0.59587 0.0
N917 N 0.11343 0.58813 0.5435 0.0
H918 H 0.6402 0.15099 0.70399 0.0
H919 H 0.46701 0.07249 0.81685 0.0
H920 H 0.60009 0.06064 0.77891 0.0
H921 H 0.49042 0.12686 0.68695 0.0
H922 H 0.51698 0.07116 0.81024 0.0
H923 H 0.58738 0.14724 0.70565 0.0
C924 C 0.62026 0.13049 0.72113 0.0
C925 C 0.62442 0.10618 0.74164 0.0
C926 C 0.51093 0.08313 0.78307 0.0
C927 C 0.56413 0.10174 0.74362 0.0
C928 C 0.48221 0.08373 0.78648 0.0
C929 C 0.47419 0.09997 0.75248 0.0
C930 C 0.53223 0.09944 0.746 0.0
C931 C 0.49567 0.11472 0.71473 0.0
C932 C 0.59014 0.12822 0.72165 0.0
C933 C 0.59776 0.07986 0.76277 0.0
N934 N 0.52384 0.11443 0.71284 0.0
N935 N 0.56872 0.07846 0.76365 0.0
loop_
_geom_bond_atom_site_label_1
_geom_bond_atom_site_label_2
_geom_bond_distance
_geom_bond_site_symmetry_2
_ccdc_geom_bond_type
C0 C1 1.351 . S
C0 N3 1.368 . S
C0 H5 0.931 . S
C1 C0 1.351 . S
C1 N2 1.373 . S
C1 H29 0.930 . S
N2 C1 1.373 . S
N2 C4 1.340 . S
N3 C0 1.368 . S
N3 C4 1.321 . S
N3 Co6 2.135 1_556 S
C4 N2 1.340 . S
C4 N3 1.321 . S
C4 H28 0.930 . S
H5 C0 0.931 . S
Co6 N3 2.135 1_554 S
Co6 N9 2.121 . S
Co6 O14 2.055 . S
Co6 O17 2.039 . S
Co6 N20 2.140 1_554 S
C7 O8 1.227 . S
C7 O17 1.265 . S
O8 C7 1.227 . S
N9 Co6 2.121 . S
N9 C11 1.375 . S
N9 C12 1.313 . S
C10 C11 1.338 . S
C10 N13 1.377 . S
C10 H30 0.930 . S
C11 N9 1.375 . S
C11 C10 1.338 . S
C11 H15 0.931 . S
C12 N9 1.313 . S
C12 N13 1.344 . S
C12 H16 0.930 . S
N13 C10 1.377 . S
N13 C12 1.344 . S
O14 Co6 2.055 . S
O14 C18 1.253 1_554 S
H15 C11 0.931 . S
H16 C12 0.930 . S
O17 Co6 2.039 . S
O17 C7 1.265 . S
C18 O14 1.253 1_556 S
C18 O19 1.227 . S
O19 C18 1.227 . S
N20 Co6 2.140 1_556 S
N20 C23 1.346 . S
N20 C24 1.345 . S
C21 C22 1.387 . S
C21 C25 1.391 . S
C22 C21 1.387 . S
C22 C23 1.369 . S
C22 H31 0.929 . S
C23 N20 1.346 . S
C23 C22 1.369 . S
C23 H26 0.928 . S
C24 N20 1.345 . S
C24 C25 1.371 . S
C24 H27 0.931 . S
C25 C21 1.391 . S
C25 C24 1.371 . S
C25 H32 0.930 . S
H26 C23 0.928 . S
H27 C24 0.931 . S
H28 C4 0.930 . S
H29 C1 0.930 . S
H30 C10 0.930 . S
H31 C22 0.929 . S
H32 C25 0.930 . S
C33 C34 1.351 . S
C33 N36 1.368 . S
C33 H38 0.931 . S
C34 C33 1.351 . S
C34 N35 1.373 . S
C34 H62 0.930 1_554 S
N35 C34 1.373 . S
N35 C37 1.340 . S
N36 C33 1.368 . S
N36 C37 1.321 . S
N36 Co39 2.135 . S
C37 N35 1.340 . S
C37 N36 1.321 . S
C37 H61 0.930 . S
H38 C33 0.931 . S
Co39 N36 2.135 . S
Co39 N42 2.121 . S
Co39 O47 2.055 . S
Co39 O50 2.039 . S
Co39 N53 2.140 . S
C40 O41 1.227 . S
C40 O50 1.265 . S
O41 C40 1.227 . S
N42 Co39 2.121 . S
N42 C44 1.375 . S
N42 C45 1.313 . S
C43 C44 1.338 . S
C43 N46 1.377 . S
C43 H63 0.930 . S
C44 N42 1.375 . S
C44 C43 1.338 . S
C44 H48 0.931 . S
C45 N42 1.313 . S
C45 N46 1.344 . S
C45 H49 0.930 . S
N46 C43 1.377 . S
N46 C45 1.344 . S
O47 Co39 2.055 . S
O47 C51 1.253 . S
H48 C44 0.931 . S
H49 C45 0.930 . S
O50 Co39 2.039 . S
O50 C40 1.265 . S
C51 O47 1.253 . S
C51 O52 1.227 . S
O52 C51 1.227 . S
N53 Co39 2.140 . S
N53 C56 1.346 . S
N53 C57 1.345 . S
C54 C55 1.387 . S
C54 C58 1.391 . S
C55 C54 1.387 . S
C55 C56 1.369 . S
C55 H64 0.929 . S
C56 N53 1.346 . S
C56 C55 1.369 . S
C56 H59 0.928 . S
C57 N53 1.345 . S
C57 C58 1.371 . S
C57 H60 0.931 . S
C58 C54 1.391 . S
C58 C57 1.371 . S
C58 H65 0.930 . S
H59 C56 0.928 . S
H60 C57 0.931 . S
H61 C37 0.930 . S
H62 C34 0.930 1_556 S
H63 C43 0.930 . S
H64 C55 0.929 . S
H65 C58 0.930 . S
C66 C67 1.351 . S
C66 N69 1.368 . S
C66 H71 0.931 . S
C67 C66 1.351 . S
C67 N68 1.373 . S
C67 H95 0.930 . S
N68 C67 1.373 . S
N68 C70 1.340 . S
N69 C66 1.368 . S
N69 C70 1.321 . S
N69 Co72 2.135 . S
C70 N68 1.340 . S
C70 N69 1.321 . S
C70 H94 0.930 . S
H71 C66 0.931 . S
Co72 N69 2.135 . S
Co72 N75 2.121 . S
Co72 O80 2.055 . S
Co72 O83 2.039 . S
Co72 N86 2.140 . S
C73 O74 1.227 . S
C73 O83 1.265 . S
O74 C73 1.227 . S
N75 Co72 2.121 . S
N75 C77 1.375 . S
N75 C78 1.313 . S
C76 C77 1.338 . S
C76 N79 1.377 . S
C76 H96 0.930 . S
C77 N75 1.375 . S
C77 C76 1.338 . S
C77 H81 0.931 . S
C78 N75 1.313 . S
C78 N79 1.344 . S
C78 H82 0.930 . S
N79 C76 1.377 . S
N79 C78 1.344 . S
O80 Co72 2.055 . S
O80 C84 1.253 . S
H81 C77 0.931 . S
H82 C78 0.930 . S
O83 Co72 2.039 . S
O83 C73 1.265 . S
C84 O80 1.253 . S
C84 O85 1.227 . S
O85 C84 1.227 . S
N86 Co72 2.140 . S
N86 C89 1.346 . S
N86 C90 1.345 . S
C87 C88 1.387 . S
C87 C91 1.391 . S
C88 C87 1.387 . S
C88 C89 1.369 . S
C88 H97 0.929 . S
C89 N86 1.346 . S
C89 C88 1.369 . S
C89 H92 0.928 . S
C90 N86 1.345 . S
C90 C91 1.371 . S
C90 H93 0.931 . S
C91 C87 1.391 . S
C91 C90 1.371 . S
C91 H98 0.930 . S
H92 C89 0.928 . S
H93 C90 0.931 . S
H94 C70 0.930 . S
H95 C67 0.930 . S
H96 C76 0.930 . S
H97 C88 0.929 . S
H98 C91 0.930 . S
C99 C100 1.351 . S
C99 N102 1.368 . S
C99 H104 0.931 . S
C100 C99 1.351 . S
C100 N101 1.373 . S
C100 H128 0.930 . S
N101 C100 1.373 . S
N101 C103 1.340 . S
N102 C99 1.368 . S
N102 C103 1.321 . S
N102 Co105 2.135 . S
C103 N101 1.340 . S
C103 N102 1.321 . S
C103 H127 0.930 . S
H104 C99 0.931 . S
Co105 N102 2.135 . S
Co105 N108 2.121 . S
Co105 O113 2.055 . S
Co105 O116 2.039 . S
Co105 N119 2.140 . S
C106 O107 1.227 . S
C106 O116 1.265 . S
O107 C106 1.227 . S
N108 Co105 2.121 . S
N108 C110 1.375 . S
N108 C111 1.313 . S
C109 C110 1.338 . S
C109 N112 1.377 . S
C109 H129 0.930 . S
C110 N108 1.375 . S
C110 C109 1.338 . S
C110 H114 0.931 . S
C111 N108 1.313 . S
C111 N112 1.344 . S
C111 H115 0.930 . S
N112 C109 1.377 . S
N112 C111 1.344 . S
O113 Co105 2.055 . S
O113 C117 1.253 . S
H114 C110 0.931 . S
H115 C111 0.930 . S
O116 Co105 2.039 . S
O116 C106 1.265 . S
C117 O113 1.253 . S
C117 O118 1.227 . S
O118 C117 1.227 . S
N119 Co105 2.140 . S
N119 C122 1.346 . S
N119 C123 1.345 . S
C120 C121 1.387 . S
C120 C124 1.391 . S
C121 C120 1.387 . S
C121 C122 1.369 . S
C121 H130 0.929 . S
C122 N119 1.346 . S
C122 C121 1.369 . S
C122 H125 0.928 . S
C123 N119 1.345 . S
C123 C124 1.371 . S
C123 H126 0.931 . S
C124 C120 1.391 . S
C124 C123 1.371 . S
C124 H131 0.930 . S
H125 C122 0.928 . S
H126 C123 0.931 . S
H127 C103 0.930 . S
H128 C100 0.930 . S
H129 C109 0.930 . S
H130 C121 0.929 . S
H131 C124 0.930 . S
C132 C133 1.351 . S
C132 N135 1.368 . S
C132 H137 0.931 . S
C133 C132 1.351 . S
C133 N134 1.373 . S
C133 H161 0.930 . S
N134 C133 1.373 . S
N134 C136 1.340 . S
N135 C132 1.368 . S
N135 C136 1.321 . S
N135 Co138 2.135 . S
C136 N134 1.340 . S
C136 N135 1.321 . S
C136 H160 0.930 . S
H137 C132 0.931 . S
Co138 N135 2.135 . S
Co138 N141 2.121 . S
Co138 O146 2.055 . S
Co138 O149 2.039 . S
Co138 N152 2.140 . S
C139 O140 1.227 . S
C139 O149 1.265 . S
O140 C139 1.227 . S
N141 Co138 2.121 . S
N141 C143 1.375 . S
N141 C144 1.313 . S
C142 C143 1.338 . S
C142 N145 1.377 . S
C142 H162 0.930 . S
C143 N141 1.375 . S
C143 C142 1.338 . S
C143 H147 0.931 . S
C144 N141 1.313 . S
C144 N145 1.344 . S
C144 H148 0.930 . S
N145 C142 1.377 . S
N145 C144 1.344 . S
O146 Co138 2.055 . S
O146 C150 1.253 . S
H147 C143 0.931 . S
H148 C144 0.930 . S
O149 Co138 2.039 . S
O149 C139 1.265 . S
C150 O146 1.253 . S
C150 O151 1.227 . S
O151 C150 1.227 . S
N152 Co138 2.140 . S
N152 C155 1.346 . S
N152 C156 1.345 . S
C153 C154 1.387 . S
C153 C157 1.391 . S
C154 C153 1.387 . S
C154 C155 1.369 . S
C154 H163 0.929 . S
C155 N152 1.346 . S
C155 C154 1.369 . S
C155 H158 0.928 . S
C156 N152 1.345 . S
C156 C157 1.371 . S
C156 H159 0.931 . S
C157 C153 1.391 . S
C157 C156 1.371 . S
C157 H164 0.930 . S
H158 C155 0.928 . S
H159 C156 0.931 . S
H160 C136 0.930 . S
H161 C133 0.930 . S
H162 C142 0.930 . S
H163 C154 0.929 . S
H164 C157 0.930 . S
C165 C166 1.351 . S
C165 N168 1.368 . S
C165 H170 0.931 . S
C166 C165 1.351 . S
C166 N167 1.373 . S
C166 H194 0.930 . S
N167 C166 1.373 . S
N167 C169 1.340 . S
N168 C165 1.368 . S
N168 C169 1.321 . S
N168 Co171 2.135 . S
C169 N167 1.340 . S
C169 N168 1.321 . S
C169 H193 0.930 . S
H170 C165 0.931 . S
Co171 N168 2.135 . S
Co171 N174 2.121 . S
Co171 O179 2.055 . S
Co171 O182 2.039 . S
Co171 N185 2.140 . S
C172 O173 1.227 . S
C172 O182 1.265 . S
O173 C172 1.227 . S
N174 Co171 2.121 . S
N174 C176 1.375 . S
N174 C177 1.313 . S
C175 C176 1.338 . S
C175 N178 1.377 . S
C175 H195 0.930 . S
C176 N174 1.375 . S
C176 C175 1.338 . S
C176 H180 0.931 . S
C177 N174 1.313 . S
C177 N178 1.344 . S
C177 H181 0.930 . S
N178 C175 1.377 . S
N178 C177 1.344 . S
O179 Co171 2.055 . S
O179 C183 1.253 . S
H180 C176 0.931 . S
H181 C177 0.930 . S
O182 Co171 2.039 . S
O182 C172 1.265 . S
C183 O179 1.253 . S
C183 O184 1.227 . S
O184 C183 1.227 . S
N185 Co171 2.140 . S
N185 C188 1.346 . S
N185 C189 1.345 . S
C186 C187 1.387 . S
C186 C190 1.391 . S
C187 C186 1.387 . S
C187 C188 1.369 . S
C187 H196 0.929 . S
C188 N185 1.346 . S
C188 C187 1.369 . S
C188 H191 0.928 . S
C189 N185 1.345 . S
C189 C190 1.371 . S
C189 H192 0.931 . S
C190 C186 1.391 . S
C190 C189 1.371 . S
C190 H197 0.930 . S
H191 C188 0.928 . S
H192 C189 0.931 . S
H193 C169 0.930 . S
H194 C166 0.930 . S
H195 C175 0.930 . S
H196 C187 0.929 . S
H197 C190 0.930 . S
C198 C199 1.351 . S
C198 N201 1.368 . S
C198 H203 0.931 . S
C199 C198 1.351 . S
C199 N200 1.373 . S
C199 H227 0.930 1_556 S
N200 C199 1.373 . S
N200 C202 1.340 . S
N201 C198 1.368 . S
N201 C202 1.321 . S
N201 Co204 2.135 . S
C202 N200 1.340 . S
C202 N201 1.321 . S
C202 H226 0.930 . S
H203 C198 0.931 . S
Co204 N201 2.135 . S
Co204 N207 2.121 . S
Co204 O212 2.055 . S
Co204 O215 2.039 . S
Co204 N218 2.140 . S
C205 O206 1.227 . S
C205 O215 1.265 . S
O206 C205 1.227 . S
N207 Co204 2.121 . S
N207 C209 1.375 . S
N207 C210 1.313 . S
C208 C209 1.338 . S
C208 N211 1.377 . S
C208 H228 0.930 . S
C209 N207 1.375 . S
C209 C208 1.338 . S
C209 H213 0.931 . S
C210 N207 1.313 . S
C210 N211 1.344 . S
C210 H214 0.930 . S
N211 C208 1.377 . S
N211 C210 1.344 . S
O212 Co204 2.055 . S
O212 C216 1.253 . S
H213 C209 0.931 . S
H214 C210 0.930 . S
O215 Co204 2.039 . S
O215 C205 1.265 . S
C216 O212 1.253 . S
C216 O217 1.227 . S
O217 C216 1.227 . S
N218 Co204 2.140 . S
N218 C221 1.346 . S
N218 C222 1.345 . S
C219 C220 1.387 . S
C219 C223 1.391 . S
C220 C219 1.387 . S
C220 C221 1.369 . S
C220 H229 0.929 . S
C221 N218 1.346 . S
C221 C220 1.369 . S
C221 H224 0.928 . S
C222 N218 1.345 . S
C222 C223 1.371 . S
C222 H225 0.931 . S
C223 C219 1.391 . S
C223 C222 1.371 . S
C223 H230 0.930 . S
H224 C221 0.928 . S
H225 C222 0.931 . S
H226 C202 0.930 . S
H227 C199 0.930 1_554 S
H228 C208 0.930 . S
H229 C220 0.929 . S
H230 C223 0.930 . S
C231 C232 1.351 . S
C231 N234 1.368 . S
C231 H236 0.931 . S
C232 C231 1.351 . S
C232 N233 1.373 . S
C232 H260 0.930 . S
N233 C232 1.373 . S
N233 C235 1.340 . S
N234 C231 1.368 . S
N234 C235 1.321 . S
N234 Co237 2.135 1_554 S
C235 N233 1.340 . S
C235 N234 1.321 . S
C235 H259 0.930 . S
H236 C231 0.931 . S
Co237 N234 2.135 1_556 S
Co237 N240 2.121 . S
Co237 O245 2.055 . S
Co237 O248 2.039 . S
Co237 N251 2.140 1_556 S
C238 O239 1.227 . S
C238 O248 1.265 . S
O239 C238 1.227 . S
N240 Co237 2.121 . S
N240 C242 1.375 . S
N240 C243 1.313 . S
C241 C242 1.338 . S
C241 N244 1.377 . S
C241 H261 0.930 . S
C242 N240 1.375 . S
C242 C241 1.338 . S
C242 H246 0.931 . S
C243 N240 1.313 . S
C243 N244 1.344 . S
C243 H247 0.930 . S
N244 C241 1.377 . S
N244 C243 1.344 . S
O245 Co237 2.055 . S
O245 C249 1.253 1_556 S
H246 C242 0.931 . S
H247 C243 0.930 . S
O248 Co237 2.039 . S
O248 C238 1.265 . S
C249 O245 1.253 1_554 S
C249 O250 1.227 . S
O250 C249 1.227 . S
N251 Co237 2.140 1_554 S
N251 C254 1.346 . S
N251 C255 1.345 . S
C252 C253 1.387 . S
C252 C256 1.391 . S
C253 C252 1.387 . S
C253 C254 1.369 . S
C253 H262 0.929 . S
C254 N251 1.346 . S
C254 C253 1.369 . S
C254 H257 0.928 . S
C255 N251 1.345 . S
C255 C256 1.371 . S
C255 H258 0.931 . S
C256 C252 1.391 . S
C256 C255 1.371 . S
C256 H263 0.930 . S
H257 C254 0.928 . S
H258 C255 0.931 . S
H259 C235 0.930 . S
H260 C232 0.930 . S
H261 C241 0.930 . S
H262 C253 0.929 . S
H263 C256 0.930 . S
C264 C265 1.351 . S
C264 N267 1.368 . S
C264 H269 0.931 . S
C265 C264 1.351 . S
C265 N266 1.373 . S
C265 H293 0.930 . S
N266 C265 1.373 . S
N266 C268 1.340 . S
N267 C264 1.368 . S
N267 C268 1.321 . S
N267 Co270 2.135 . S
C268 N266 1.340 . S
C268 N267 1.321 . S
C268 H292 0.930 . S
H269 C264 0.931 . S
Co270 N267 2.135 . S
Co270 N273 2.121 . S
Co270 O278 2.055 . S
Co270 O281 2.039 . S
Co270 N284 2.140 . S
C271 O272 1.227 . S
C271 O281 1.265 . S
O272 C271 1.227 . S
N273 Co270 2.121 . S
N273 C275 1.375 . S
N273 C276 1.313 . S
C274 C275 1.338 . S
C274 N277 1.377 . S
C274 H294 0.930 . S
C275 N273 1.375 . S
C275 C274 1.338 . S
C275 H279 0.931 . S
C276 N273 1.313 . S
C276 N277 1.344 . S
C276 H280 0.930 . S
N277 C274 1.377 . S
N277 C276 1.344 . S
O278 Co270 2.055 . S
O278 C282 1.253 . S
H279 C275 0.931 . S
H280 C276 0.930 . S
O281 Co270 2.039 . S
O281 C271 1.265 . S
C282 O278 1.253 . S
C282 O283 1.227 . S
O283 C282 1.227 . S
N284 Co270 2.140 . S
N284 C287 1.346 . S
N284 C288 1.345 . S
C285 C286 1.387 . S
C285 C289 1.391 . S
C286 C285 1.387 . S
C286 C287 1.369 . S
C286 H295 0.929 . S
C287 N284 1.346 . S
C287 C286 1.369 . S
C287 H290 0.928 . S
C288 N284 1.345 . S
C288 C289 1.371 . S
C288 H291 0.931 . S
C289 C285 1.391 . S
C289 C288 1.371 . S
C289 H296 0.930 . S
H290 C287 0.928 . S
H291 C288 0.931 . S
H292 C268 0.930 . S
H293 C265 0.930 . S
H294 C274 0.930 . S
H295 C286 0.929 . S
H296 C289 0.930 . S
C297 C298 1.351 . S
C297 N300 1.368 . S
C297 H302 0.931 . S
C298 C297 1.351 . S
C298 N299 1.373 . S
C298 H326 0.930 . S
N299 C298 1.373 . S
N299 C301 1.340 . S
N300 C297 1.368 . S
N300 C301 1.321 . S
N300 Co303 2.135 . S
C301 N299 1.340 . S
C301 N300 1.321 . S
C301 H325 0.930 . S
H302 C297 0.931 . S
Co303 N300 2.135 . S
Co303 N306 2.121 . S
Co303 O311 2.055 . S
Co303 O314 2.039 . S
Co303 N317 2.140 . S
C304 O305 1.227 . S
C304 O314 1.265 . S
O305 C304 1.227 . S
N306 Co303 2.121 . S
N306 C308 1.375 . S
N306 C309 1.313 . S
C307 C308 1.338 . S
C307 N310 1.377 . S
C307 H327 0.930 . S
C308 N306 1.375 . S
C308 C307 1.338 . S
C308 H312 0.931 . S
C309 N306 1.313 . S
C309 N310 1.344 . S
C309 H313 0.930 . S
N310 C307 1.377 . S
N310 C309 1.344 . S
O311 Co303 2.055 . S
O311 C315 1.253 . S
H312 C308 0.931 . S
H313 C309 0.930 . S
O314 Co303 2.039 . S
O314 C304 1.265 . S
C315 O311 1.253 . S
C315 O316 1.227 . S
O316 C315 1.227 . S
N317 Co303 2.140 . S
N317 C320 1.346 . S
N317 C321 1.345 . S
C318 C319 1.387 . S
C318 C322 1.391 . S
C319 C318 1.387 . S
C319 C320 1.369 . S
C319 H328 0.929 . S
C320 N317 1.346 . S
C320 C319 1.369 . S
C320 H323 0.928 . S
C321 N317 1.345 . S
C321 C322 1.371 . S
C321 H324 0.931 . S
C322 C318 1.391 . S
C322 C321 1.371 . S
C322 H329 0.930 . S
H323 C320 0.928 . S
H324 C321 0.931 . S
H325 C301 0.930 . S
H326 C298 0.930 . S
H327 C307 0.930 . S
H328 C319 0.929 . S
H329 C322 0.930 . S
C330 C331 1.351 . S
C330 N333 1.368 . S
C330 H335 0.931 . S
C331 C330 1.351 . S
C331 N332 1.373 . S
C331 H359 0.930 . S
N332 C331 1.373 . S
N332 C334 1.340 . S
N333 C330 1.368 . S
N333 C334 1.321 . S
N333 Co336 2.135 . S
C334 N332 1.340 . S
C334 N333 1.321 . S
C334 H358 0.930 . S
H335 C330 0.931 . S
Co336 N333 2.135 . S
Co336 N339 2.121 . S
Co336 O344 2.055 . S
Co336 O347 2.039 . S
Co336 N350 2.140 . S
C337 O338 1.227 . S
C337 O347 1.265 . S
O338 C337 1.227 . S
N339 Co336 2.121 . S
N339 C341 1.375 . S
N339 C342 1.313 . S
C340 C341 1.338 . S
C340 N343 1.377 . S
C340 H360 0.930 . S
C341 N339 1.375 . S
C341 C340 1.338 . S
C341 H345 0.931 . S
C342 N339 1.313 . S
C342 N343 1.344 . S
C342 H346 0.930 . S
N343 C340 1.377 . S
N343 C342 1.344 . S
O344 Co336 2.055 . S
O344 C348 1.253 . S
H345 C341 0.931 . S
H346 C342 0.930 . S
O347 Co336 2.039 . S
O347 C337 1.265 . S
C348 O344 1.253 . S
C348 O349 1.227 . S
O349 C348 1.227 . S
N350 Co336 2.140 . S
N350 C353 1.346 . S
N350 C354 1.345 . S
C351 C352 1.387 . S
C351 C355 1.391 . S
C352 C351 1.387 . S
C352 C353 1.369 . S
C352 H361 0.929 . S
C353 N350 1.346 . S
C353 C352 1.369 . S
C353 H356 0.928 . S
C354 N350 1.345 . S
C354 C355 1.371 . S
C354 H357 0.931 . S
C355 C351 1.391 . S
C355 C354 1.371 . S
C355 H362 0.930 . S
H356 C353 0.928 . S
H357 C354 0.931 . S
H358 C334 0.930 . S
H359 C331 0.930 . S
H360 C340 0.930 . S
H361 C352 0.929 . S
H362 C355 0.930 . S
C363 C364 1.351 . S
C363 N366 1.368 . S
C363 H368 0.931 . S
C364 C363 1.351 . S
C364 N365 1.373 . S
C364 H392 0.930 . S
N365 C364 1.373 . S
N365 C367 1.340 . S
N366 C363 1.368 . S
N366 C367 1.321 . S
N366 Co369 2.135 . S
C367 N365 1.340 . S
C367 N366 1.321 . S
C367 H391 0.930 . S
H368 C363 0.931 . S
Co369 N366 2.135 . S
Co369 N372 2.121 . S
Co369 O377 2.055 . S
Co369 O380 2.039 . S
Co369 N383 2.140 . S
C370 O371 1.227 . S
C370 O380 1.265 . S
O371 C370 1.227 . S
N372 Co369 2.121 . S
N372 C374 1.375 . S
N372 C375 1.313 . S
C373 C374 1.338 . S
C373 N376 1.377 . S
C373 H393 0.930 . S
C374 N372 1.375 . S
C374 C373 1.338 . S
C374 H378 0.931 . S
C375 N372 1.313 . S
C375 N376 1.344 . S
C375 H379 0.930 . S
N376 C373 1.377 . S
N376 C375 1.344 . S
O377 Co369 2.055 . S
O377 C381 1.253 . S
H378 C374 0.931 . S
H379 C375 0.930 . S
O380 Co369 2.039 . S
O380 C370 1.265 . S
C381 O377 1.253 . S
C381 O382 1.227 . S
O382 C381 1.227 . S
N383 Co369 2.140 . S
N383 C386 1.346 . S
N383 C387 1.345 . S
C384 C385 1.387 . S
C384 C388 1.391 . S
C385 C384 1.387 . S
C385 C386 1.369 . S
C385 H394 0.929 . S
C386 N383 1.346 . S
C386 C385 1.369 . S
C386 H389 0.928 . S
C387 N383 1.345 . S
C387 C388 1.371 . S
C387 H390 0.931 . S
C388 C384 1.391 . S
C388 C387 1.371 . S
C388 H395 0.930 . S
H389 C386 0.928 . S
H390 C387 0.931 . S
H391 C367 0.930 . S
H392 C364 0.930 . S
H393 C373 0.930 . S
H394 C385 0.929 . S
H395 C388 0.930 . S
H396 C402 0.930 . S
H397 C406 0.930 . S
H398 C411 0.929 . S
H399 C409 0.929 . S
H400 C404 0.929 . S
H401 C410 0.929 . S
C402 H396 0.930 . S
C402 C403 1.367 . S
C402 C410 1.378 . S
C403 C402 1.367 . S
C403 C411 1.433 . S
C404 H400 0.929 . S
C404 C406 1.378 . S
C404 C408 1.350 . S
C405 C408 1.463 . S
C405 C410 1.350 . S
C405 N413 1.427 . S
C406 H397 0.930 . S
C406 C404 1.378 . S
C406 C407 1.367 . S
C407 C406 1.367 . S
C407 C409 1.433 . S
C408 C404 1.350 . S
C408 C405 1.463 . S
C408 N412 1.427 . S
C409 H399 0.929 . S
C409 C407 1.433 . S
C409 N412 1.384 . S
C410 H401 0.929 . S
C410 C402 1.378 . S
C410 C405 1.350 . S
C411 H398 0.929 . S
C411 C403 1.433 . S
C411 N413 1.384 . S
N412 C408 1.427 . S
N412 C409 1.384 . S
N413 C405 1.427 . S
N413 C411 1.384 . S
H414 C420 0.930 . S
H415 C424 0.930 . S
H416 C429 0.929 . S
H417 C427 0.929 . S
H418 C422 0.929 . S
H419 C428 0.929 . S
C420 H414 0.930 . S
C420 C421 1.367 . S
C420 C428 1.378 . S
C421 C420 1.367 . S
C421 C429 1.433 . S
C422 H418 0.929 . S
C422 C424 1.378 . S
C422 C426 1.350 . S
C423 C426 1.463 . S
C423 C428 1.350 . S
C423 N431 1.427 . S
C424 H415 0.930 . S
C424 C422 1.378 . S
C424 C425 1.367 . S
C425 C424 1.367 . S
C425 C427 1.433 . S
C426 C422 1.350 . S
C426 C423 1.463 . S
C426 N430 1.427 . S
C427 H417 0.929 . S
C427 C425 1.433 . S
C427 N430 1.384 . S
C428 H419 0.929 . S
C428 C420 1.378 . S
C428 C423 1.350 . S
C429 H416 0.929 . S
C429 C421 1.433 . S
C429 N431 1.384 . S
N430 C426 1.427 . S
N430 C427 1.384 . S
N431 C423 1.427 . S
N431 C429 1.384 . S
H432 C438 0.930 . S
H433 C442 0.930 . S
H434 C447 0.929 . S
H435 C445 0.929 . S
H436 C440 0.929 . S
H437 C446 0.929 . S
C438 H432 0.930 . S
C438 C439 1.367 . S
C438 C446 1.378 . S
C439 C438 1.367 . S
C439 C447 1.433 . S
C440 H436 0.929 . S
C440 C442 1.378 . S
C440 C444 1.350 . S
C441 C444 1.463 . S
C441 C446 1.350 . S
C441 N449 1.427 . S
C442 H433 0.930 . S
C442 C440 1.378 . S
C442 C443 1.367 . S
C443 C442 1.367 . S
C443 C445 1.433 . S
C444 C440 1.350 . S
C444 C441 1.463 . S
C444 N448 1.427 . S
C445 H435 0.929 . S
C445 C443 1.433 . S
C445 N448 1.384 . S
C446 H437 0.929 . S
C446 C438 1.378 . S
C446 C441 1.350 . S
C447 H434 0.929 . S
C447 C439 1.433 . S
C447 N449 1.384 . S
N448 C444 1.427 . S
N448 C445 1.384 . S
N449 C441 1.427 . S
N449 C447 1.384 . S
H450 C456 0.930 . S
H451 C460 0.930 . S
H452 C465 0.929 . S
H453 C463 0.929 . S
H454 C458 0.929 . S
H455 C464 0.929 . S
C456 H450 0.930 . S
C456 C457 1.367 . S
C456 C464 1.378 . S
C457 C456 1.367 . S
C457 C465 1.433 . S
C458 H454 0.929 . S
C458 C460 1.378 . S
C458 C462 1.350 . S
C459 C462 1.463 . S
C459 C464 1.350 . S
C459 N467 1.427 . S
C460 H451 0.930 . S
C460 C458 1.378 . S
C460 C461 1.367 . S
C461 C460 1.367 . S
C461 C463 1.433 . S
C462 C458 1.350 . S
C462 C459 1.463 . S
C462 N466 1.427 . S
C463 H453 0.929 . S
C463 C461 1.433 . S
C463 N466 1.384 . S
C464 H455 0.929 . S
C464 C456 1.378 . S
C464 C459 1.350 . S
C465 H452 0.929 . S
C465 C457 1.433 . S
C465 N467 1.384 . S
N466 C462 1.427 . S
N466 C463 1.384 . S
N467 C459 1.427 . S
N467 C465 1.384 . S
H468 C474 0.930 . S
H469 C478 0.930 . S
H470 C483 0.929 . S
H471 C481 0.929 . S
H472 C476 0.929 . S
H473 C482 0.929 . S
C474 H468 0.930 . S
C474 C475 1.367 . S
C474 C482 1.378 . S
C475 C474 1.367 . S
C475 C483 1.433 . S
C476 H472 0.929 . S
C476 C478 1.378 1_556 S
C476 C480 1.350 . S
C477 C480 1.463 . S
C477 C482 1.350 . S
C477 N485 1.427 . S
C478 H469 0.930 . S
C478 C476 1.378 1_554 S
C478 C479 1.367 . S
C479 C478 1.367 . S
C479 C481 1.433 . S
C480 C476 1.350 . S
C480 C477 1.463 . S
C480 N484 1.427 . S
C481 H471 0.929 . S
C481 C479 1.433 . S
C481 N484 1.384 1_554 S
C482 H473 0.929 . S
C482 C474 1.378 . S
C482 C477 1.350 . S
C483 H470 0.929 . S
C483 C475 1.433 . S
C483 N485 1.384 . S
N484 C480 1.427 . S
N484 C481 1.384 1_556 S
N485 C477 1.427 . S
N485 C483 1.384 . S
H486 C492 0.930 . S
H487 C496 0.930 . S
H488 C501 0.939 . S
H489 C499 0.929 . S
H490 C494 0.929 . S
H491 C500 0.929 . S
C492 H486 0.930 . S
C492 C493 1.367 . S
C492 C500 1.378 1_556 S
C493 C492 1.367 . S
C493 C501 1.449 . S
C494 H490 0.929 . S
C494 C496 1.378 . S
C494 C498 1.350 . S
C495 C498 1.463 . S
C495 C500 1.350 . S
C495 N503 1.427 . S
C496 H487 0.930 . S
C496 C494 1.378 . S
C496 C497 1.367 . S
C497 C496 1.367 . S
C497 C499 1.433 . S
C498 C494 1.350 . S
C498 C495 1.463 . S
C498 N502 1.427 . S
C499 H489 0.929 . S
C499 C497 1.433 . S
C499 N502 1.384 . S
C500 H491 0.929 . S
C500 C492 1.378 1_554 S
C500 C495 1.350 . S
C501 H488 0.939 . S
C501 C493 1.449 . S
C501 N503 1.359 1_556 S
N502 C498 1.427 . S
N502 C499 1.384 . S
N503 C495 1.427 . S
N503 C501 1.359 1_554 S
H504 C510 0.930 . S
H505 C514 0.930 . S
H506 C519 0.929 . S
H507 C517 0.929 . S
H508 C512 0.929 . S
H509 C518 0.929 . S
C510 H504 0.930 . S
C510 C511 1.367 . S
C510 C518 1.378 . S
C511 C510 1.367 . S
C511 C519 1.433 . S
C512 H508 0.929 . S
C512 C514 1.378 . S
C512 C516 1.350 . S
C513 C516 1.463 . S
C513 C518 1.350 . S
C513 N521 1.427 . S
C514 H505 0.930 . S
C514 C512 1.378 . S
C514 C515 1.367 . S
C515 C514 1.367 . S
C515 C517 1.433 . S
C516 C512 1.350 . S
C516 C513 1.463 . S
C516 N520 1.427 . S
C517 H507 0.929 . S
C517 C515 1.433 . S
C517 N520 1.384 . S
C518 H509 0.929 . S
C518 C510 1.378 . S
C518 C513 1.350 . S
C519 H506 0.929 . S
C519 C511 1.433 . S
C519 N521 1.384 . S
N520 C516 1.427 . S
N520 C517 1.384 . S
N521 C513 1.427 . S
N521 C519 1.384 . S
H522 C528 0.930 . S
H523 C532 0.930 . S
H524 C537 0.929 . S
H525 C535 0.917 1_656 S
H526 C530 0.929 . S
H527 C536 0.929 . S
C528 H522 0.930 . S
C528 C529 1.367 . S
C528 C536 1.378 . S
C529 C528 1.367 . S
C529 C537 1.433 1_556 S
C530 H526 0.929 . S
C530 C532 1.378 . S
C530 C534 1.350 . S
C531 C534 1.463 . S
C531 C536 1.350 1_554 S
C531 N539 1.427 . S
C532 H523 0.930 . S
C532 C530 1.378 . S
C532 C533 1.367 1_455 S
C533 C532 1.367 1_655 S
C533 C535 1.439 1_655 S
C534 C530 1.350 . S
C534 C531 1.463 . S
C534 N538 1.427 1_554 S
C535 H525 0.917 1_454 S
C535 C533 1.439 1_455 S
C535 N538 1.391 1_554 S
C536 H527 0.929 . S
C536 C528 1.378 . S
C536 C531 1.350 1_556 S
C537 H524 0.929 . S
C537 C529 1.433 1_554 S
C537 N539 1.384 . S
N538 C534 1.427 1_556 S
N538 C535 1.391 1_556 S
N539 C531 1.427 . S
N539 C537 1.384 . S
H540 C546 0.930 . S
H541 C550 0.930 . S
H542 C555 0.929 . S
H543 C553 0.929 . S
H544 C548 0.929 . S
H545 C554 0.929 . S
C546 H540 0.930 . S
C546 C547 1.367 . S
C546 C554 1.378 . S
C547 C546 1.367 . S
C547 C555 1.433 . S
C548 H544 0.929 . S
C548 C550 1.378 . S
C548 C552 1.350 . S
C549 C552 1.463 . S
C549 C554 1.350 . S
C549 N557 1.427 . S
C550 H541 0.930 . S
C550 C548 1.378 . S
C550 C551 1.367 1_545 S
C551 C550 1.367 1_565 S
C551 C553 1.433 . S
C552 C548 1.350 . S
C552 C549 1.463 . S
C552 N556 1.427 . S
C553 H543 0.929 . S
C553 C551 1.433 . S
C553 N556 1.384 1_565 S
C554 H545 0.929 . S
C554 C546 1.378 . S
C554 C549 1.350 . S
C555 H542 0.929 . S
C555 C547 1.433 . S
C555 N557 1.384 . S
N556 C552 1.427 . S
N556 C553 1.384 1_545 S
N557 C549 1.427 . S
N557 C555 1.384 . S
H558 C564 0.930 . S
H559 C568 0.930 . S
H560 C573 0.929 . S
H561 C571 0.929 . S
H562 C566 0.929 . S
H563 C572 0.929 . S
C564 H558 0.930 . S
C564 C565 1.367 . S
C564 C572 1.378 . S
C565 C564 1.367 . S
C565 C573 1.433 . S
C566 H562 0.929 . S
C566 C568 1.378 . S
C566 C570 1.350 . S
C567 C570 1.463 . S
C567 C572 1.350 . S
C567 N575 1.427 . S
C568 H559 0.930 . S
C568 C566 1.378 . S
C568 C569 1.367 . S
C569 C568 1.367 . S
C569 C571 1.433 . S
C570 C566 1.350 . S
C570 C567 1.463 . S
C570 N574 1.427 . S
C571 H561 0.929 . S
C571 C569 1.433 . S
C571 N574 1.384 . S
C572 H563 0.929 . S
C572 C564 1.378 . S
C572 C567 1.350 . S
C573 H560 0.929 . S
C573 C565 1.433 . S
C573 N575 1.384 . S
N574 C570 1.427 . S
N574 C571 1.384 . S
N575 C567 1.427 . S
N575 C573 1.384 . S
H576 C582 0.930 . S
H577 C586 0.930 . S
H578 C591 0.929 . S
H579 C589 0.929 . S
H580 C584 0.929 . S
H581 C590 0.929 . S
C582 H576 0.930 . S
C582 C583 1.367 1_655 S
C582 C590 1.378 . S
C583 C582 1.367 1_455 S
C583 C591 1.433 . S
C584 H580 0.929 . S
C584 C586 1.378 . S
C584 C588 1.350 . S
C585 C588 1.463 . S
C585 C590 1.350 . S
C585 N593 1.427 . S
C586 H577 0.930 . S
C586 C584 1.378 . S
C586 C587 1.367 . S
C587 C586 1.367 . S
C587 C589 1.433 . S
C588 C584 1.350 . S
C588 C585 1.463 . S
C588 N592 1.427 . S
C589 H579 0.929 . S
C589 C587 1.433 . S
C589 N592 1.384 . S
C590 H581 0.929 . S
C590 C582 1.378 . S
C590 C585 1.350 . S
C591 H578 0.929 . S
C591 C583 1.433 . S
C591 N593 1.384 1_455 S
N592 C588 1.427 . S
N592 C589 1.384 . S
N593 C585 1.427 . S
N593 C591 1.384 1_655 S
H594 C600 0.930 . S
H595 C604 0.930 . S
H596 C609 0.929 . S
H597 C607 0.929 . S
H598 C602 0.929 . S
H599 C608 0.929 . S
C600 H594 0.930 . S
C600 C601 1.367 . S
C600 C608 1.378 1_545 S
C601 C600 1.367 . S
C601 C609 1.433 1_545 S
C602 H598 0.929 . S
C602 C604 1.378 . S
C602 C606 1.350 . S
C603 C606 1.463 . S
C603 C608 1.350 . S
C603 N611 1.427 . S
C604 H595 0.930 . S
C604 C602 1.378 . S
C604 C605 1.367 . S
C605 C604 1.367 . S
C605 C607 1.433 . S
C606 C602 1.350 . S
C606 C603 1.463 . S
C606 N610 1.427 . S
C607 H597 0.929 . S
C607 C605 1.433 . S
C607 N610 1.384 . S
C608 H599 0.929 . S
C608 C600 1.378 1_565 S
C608 C603 1.350 . S
C609 H596 0.929 . S
C609 C601 1.433 1_565 S
C609 N611 1.384 . S
N610 C606 1.427 . S
N610 C607 1.384 . S
N611 C603 1.427 . S
N611 C609 1.384 . S
H612 C618 0.930 . S
H613 C622 0.930 . S
H614 C627 0.929 . S
H615 C625 0.929 . S
H616 C620 0.929 . S
H617 C626 0.929 . S
C618 H612 0.930 . S
C618 C619 1.367 . S
C618 C626 1.378 . S
C619 C618 1.367 . S
C619 C627 1.433 1_554 S
C620 H616 0.929 . S
C620 C622 1.378 . S
C620 C624 1.350 . S
C621 C624 1.463 . S
C621 C626 1.350 1_556 S
C621 N629 1.427 . S
C622 H613 0.930 . S
C622 C620 1.378 . S
C622 C623 1.367 . S
C623 C622 1.367 . S
C623 C625 1.433 1_556 S
C624 C620 1.350 . S
C624 C621 1.463 . S
C624 N628 1.427 1_556 S
C625 H615 0.929 . S
C625 C623 1.433 1_554 S
C625 N628 1.384 . S
C626 H617 0.929 . S
C626 C618 1.378 . S
C626 C621 1.350 1_554 S
C627 H614 0.929 . S
C627 C619 1.433 1_556 S
C627 N629 1.384 . S
N628 C624 1.427 1_554 S
N628 C625 1.384 . S
N629 C621 1.427 . S
N629 C627 1.384 . S
H630 C636 0.930 1_655 S
H631 C640 0.930 . S
H632 C645 0.919 1_655 S
H633 C643 0.929 . S
H634 C638 0.929 . S
H635 C644 0.929 . S
C636 H630 0.930 1_455 S
C636 C637 1.367 1_455 S
C636 C644 1.378 . S
C637 C636 1.367 1_655 S
C637 C645 1.433 1_655 S
C638 H634 0.929 . S
C638 C640 1.378 . S
C638 C642 1.350 . S
C639 C642 1.463 . S
C639 C644 1.350 . S
C639 N647 1.427 . S
C640 H631 0.930 . S
C640 C638 1.378 . S
C640 C641 1.367 . S
C641 C640 1.367 . S
C641 C643 1.433 . S
C642 C638 1.350 . S
C642 C639 1.463 . S
C642 N646 1.427 . S
C643 H633 0.929 . S
C643 C641 1.433 . S
C643 N646 1.384 . S
C644 H635 0.929 . S
C644 C636 1.378 . S
C644 C639 1.350 . S
C645 H632 0.919 1_455 S
C645 C637 1.433 1_455 S
C645 N647 1.384 . S
N646 C642 1.427 . S
N646 C643 1.384 . S
N647 C639 1.427 . S
N647 C645 1.384 . S
H648 C654 0.930 1_565 S
H649 C658 0.930 . S
H650 C663 0.929 1_565 S
H651 C661 0.929 . S
H652 C656 0.929 . S
H653 C662 0.929 . S
C654 H648 0.930 1_545 S
C654 C655 1.367 1_545 S
C654 C662 1.378 . S
C655 C654 1.367 1_565 S
C655 C663 1.433 1_565 S
C656 H652 0.929 . S
C656 C658 1.378 . S
C656 C660 1.350 . S
C657 C660 1.463 . S
C657 C662 1.350 . S
C657 N665 1.427 . S
C658 H649 0.930 . S
C658 C656 1.378 . S
C658 C659 1.367 . S
C659 C658 1.367 . S
C659 C661 1.433 . S
C660 C656 1.350 . S
C660 C657 1.463 . S
C660 N664 1.427 . S
C661 H651 0.929 . S
C661 C659 1.433 . S
C661 N664 1.384 . S
C662 H653 0.929 . S
C662 C654 1.378 . S
C662 C657 1.350 . S
C663 H650 0.929 1_545 S
C663 C655 1.433 1_545 S
C663 N665 1.384 . S
N664 C660 1.427 . S
N664 C661 1.384 . S
N665 C657 1.427 . S
N665 C663 1.384 . S
H666 C672 0.930 . S
H667 C676 0.930 . S
H668 C681 0.929 . S
H669 C679 0.929 . S
H670 C674 0.929 . S
H671 C680 0.929 . S
C672 H666 0.930 . S
C672 C673 1.367 . S
C672 C680 1.378 . S
C673 C672 1.367 . S
C673 C681 1.433 . S
C674 H670 0.929 . S
C674 C676 1.378 . S
C674 C678 1.350 . S
C675 C678 1.463 . S
C675 C680 1.350 . S
C675 N683 1.427 . S
C676 H667 0.930 . S
C676 C674 1.378 . S
C676 C677 1.367 . S
C677 C676 1.367 . S
C677 C679 1.433 . S
C678 C674 1.350 . S
C678 C675 1.463 . S
C678 N682 1.427 . S
C679 H669 0.929 . S
C679 C677 1.433 . S
C679 N682 1.384 . S
C680 H671 0.929 . S
C680 C672 1.378 . S
C680 C675 1.350 . S
C681 H668 0.929 . S
C681 C673 1.433 . S
C681 N683 1.384 . S
N682 C678 1.427 . S
N682 C679 1.384 . S
N683 C675 1.427 . S
N683 C681 1.384 . S
H684 C690 0.931 1_455 S
H685 C694 0.930 . S
H686 C699 0.929 1_455 S
H687 C697 0.929 . S
H688 C692 0.929 . S
H689 C698 0.929 . S
C690 H684 0.931 1_655 S
C690 C691 1.367 1_655 S
C690 C698 1.378 . S
C691 C690 1.367 1_455 S
C691 C699 1.433 1_455 S
C692 H688 0.929 . S
C692 C694 1.378 . S
C692 C696 1.350 . S
C693 C696 1.463 . S
C693 C698 1.350 . S
C693 N701 1.427 . S
C694 H685 0.930 . S
C694 C692 1.378 . S
C694 C695 1.367 . S
C695 C694 1.367 . S
C695 C697 1.433 . S
C696 C692 1.350 . S
C696 C693 1.463 . S
C696 N700 1.427 . S
C697 H687 0.929 . S
C697 C695 1.433 . S
C697 N700 1.384 . S
C698 H689 0.929 . S
C698 C690 1.378 . S
C698 C693 1.350 . S
C699 H686 0.929 1_655 S
C699 C691 1.433 1_655 S
C699 N701 1.384 . S
N700 C696 1.427 . S
N700 C697 1.384 . S
N701 C693 1.427 . S
N701 C699 1.384 . S
H702 C708 0.930 1_545 S
H703 C712 0.930 . S
H704 C717 0.929 1_545 S
H705 C715 0.929 . S
H706 C710 0.929 . S
H707 C716 0.929 . S
C708 H702 0.930 1_565 S
C708 C709 1.367 1_565 S
C708 C716 1.378 . S
C709 C708 1.367 1_545 S
C709 C717 1.433 1_545 S
C710 H706 0.929 . S
C710 C712 1.378 . S
C710 C714 1.350 . S
C711 C714 1.463 . S
C711 C716 1.350 . S
C711 N719 1.427 . S
C712 H703 0.930 . S
C712 C710 1.378 . S
C712 C713 1.367 . S
C713 C712 1.367 . S
C713 C715 1.433 . S
C714 C710 1.350 . S
C714 C711 1.463 . S
C714 N718 1.427 . S
C715 H705 0.929 . S
C715 C713 1.433 . S
C715 N718 1.384 . S
C716 H707 0.929 . S
C716 C708 1.378 . S
C716 C711 1.350 . S
C717 H704 0.929 1_565 S
C717 C709 1.433 1_565 S
C717 N719 1.384 . S
N718 C714 1.427 . S
N718 C715 1.384 . S
N719 C711 1.427 . S
N719 C717 1.384 . S
H720 C726 0.930 . S
H721 C730 0.930 . S
H722 C735 0.929 . S
H723 C733 0.929 . S
H724 C728 0.929 . S
H725 C734 0.929 . S
C726 H720 0.930 . S
C726 C727 1.367 . S
C726 C734 1.378 . S
C727 C726 1.367 . S
C727 C735 1.433 . S
C728 H724 0.929 . S
C728 C730 1.378 . S
C728 C732 1.350 . S
C729 C732 1.463 . S
C729 C734 1.350 . S
C729 N737 1.427 . S
C730 H721 0.930 . S
C730 C728 1.378 . S
C730 C731 1.367 . S
C731 C730 1.367 . S
C731 C733 1.433 . S
C732 C728 1.350 . S
C732 C729 1.463 . S
C732 N736 1.427 . S
C733 H723 0.929 . S
C733 C731 1.433 . S
C733 N736 1.384 . S
C734 H725 0.929 . S
C734 C726 1.378 . S
C734 C729 1.350 . S
C735 H722 0.929 . S
C735 C727 1.433 . S
C735 N737 1.384 . S
N736 C732 1.427 . S
N736 C733 1.384 . S
N737 C729 1.427 . S
N737 C735 1.384 . S
H738 C744 0.930 . S
H739 C748 0.930 . S
H740 C753 0.929 . S
H741 C751 0.929 . S
H742 C746 0.929 1_655 S
H743 C752 0.929 1_455 S
C744 H738 0.930 . S
C744 C745 1.367 . S
C744 C752 1.378 . S
C745 C744 1.367 . S
C745 C753 1.433 . S
C746 H742 0.929 1_455 S
C746 C748 1.378 . S
C746 C750 1.350 . S
C747 C750 1.463 1_655 S
C747 C752 1.350 . S
C747 N755 1.427 . S
C748 H739 0.930 . S
C748 C746 1.378 . S
C748 C749 1.367 . S
C749 C748 1.367 . S
C749 C751 1.433 . S
C750 C746 1.350 . S
C750 C747 1.463 1_455 S
C750 N754 1.427 . S
C751 H741 0.929 . S
C751 C749 1.433 . S
C751 N754 1.384 . S
C752 H743 0.929 1_655 S
C752 C744 1.378 . S
C752 C747 1.350 . S
C753 H740 0.929 . S
C753 C745 1.433 . S
C753 N755 1.384 . S
N754 C750 1.427 . S
N754 C751 1.384 . S
N755 C747 1.427 . S
N755 C753 1.384 . S
H756 C762 0.930 . S
H757 C766 0.930 . S
H758 C771 0.929 . S
H759 C769 0.929 . S
H760 C764 0.929 . S
H761 C770 0.929 . S
C762 H756 0.930 . S
C762 C763 1.367 . S
C762 C770 1.378 1_565 S
C763 C762 1.367 . S
C763 C771 1.433 . S
C764 H760 0.929 . S
C764 C766 1.378 1_565 S
C764 C768 1.350 1_565 S
C765 C768 1.463 1_565 S
C765 C770 1.350 1_565 S
C765 N773 1.427 . S
C766 H757 0.930 . S
C766 C764 1.378 1_545 S
C766 C767 1.367 . S
C767 C766 1.367 . S
C767 C769 1.433 . S
C768 C764 1.350 1_545 S
C768 C765 1.463 1_545 S
C768 N772 1.427 . S
C769 H759 0.929 . S
C769 C767 1.433 . S
C769 N772 1.384 . S
C770 H761 0.929 . S
C770 C762 1.378 1_545 S
C770 C765 1.350 1_545 S
C771 H758 0.929 . S
C771 C763 1.433 . S
C771 N773 1.384 . S
N772 C768 1.427 . S
N772 C769 1.384 . S
N773 C765 1.427 . S
N773 C771 1.384 . S
H774 C780 0.930 . S
H775 C784 0.930 . S
H776 C789 0.929 . S
H777 C787 0.929 . S
H778 C782 0.929 . S
H779 C788 0.929 . S
C780 H774 0.930 . S
C780 C781 1.367 . S
C780 C788 1.378 . S
C781 C780 1.367 . S
C781 C789 1.433 . S
C782 H778 0.929 . S
C782 C784 1.378 . S
C782 C786 1.350 . S
C783 C786 1.463 . S
C783 C788 1.350 . S
C783 N791 1.427 . S
C784 H775 0.930 . S
C784 C782 1.378 . S
C784 C785 1.367 . S
C785 C784 1.367 . S
C785 C787 1.433 . S
C786 C782 1.350 . S
C786 C783 1.463 . S
C786 N790 1.427 . S
C787 H777 0.929 . S
C787 C785 1.433 . S
C787 N790 1.384 . S
C788 H779 0.929 . S
C788 C780 1.378 . S
C788 C783 1.350 . S
C789 H776 0.929 . S
C789 C781 1.433 . S
C789 N791 1.384 . S
N790 C786 1.427 . S
N790 C787 1.384 . S
N791 C783 1.427 . S
N791 C789 1.384 . S
H792 C798 0.930 . S
H793 C802 0.930 . S
H794 C807 0.929 . S
H795 C805 0.929 . S
H796 C800 0.929 . S
H797 C806 0.929 . S
C798 H792 0.930 . S
C798 C799 1.367 . S
C798 C806 1.378 . S
C799 C798 1.367 . S
C799 C807 1.433 . S
C800 H796 0.929 . S
C800 C802 1.378 . S
C800 C804 1.350 . S
C801 C804 1.463 1_455 S
C801 C806 1.350 . S
C801 N809 1.427 . S
C802 H793 0.930 . S
C802 C800 1.378 . S
C802 C803 1.367 . S
C803 C802 1.367 . S
C803 C805 1.433 . S
C804 C800 1.350 . S
C804 C801 1.463 1_655 S
C804 N808 1.427 . S
C805 H795 0.929 . S
C805 C803 1.433 . S
C805 N808 1.384 . S
C806 H797 0.929 . S
C806 C798 1.378 . S
C806 C801 1.350 . S
C807 H794 0.929 . S
C807 C799 1.433 . S
C807 N809 1.384 . S
N808 C804 1.427 . S
N808 C805 1.384 . S
N809 C801 1.427 . S
N809 C807 1.384 . S
H810 C816 0.930 . S
H811 C820 0.930 . S
H812 C825 0.929 . S
H813 C823 0.929 . S
H814 C818 0.929 . S
H815 C824 0.929 . S
C816 H810 0.930 . S
C816 C817 1.367 . S
C816 C824 1.378 . S
C817 C816 1.367 . S
C817 C825 1.433 . S
C818 H814 0.929 . S
C818 C820 1.378 . S
C818 C822 1.350 . S
C819 C822 1.463 1_564 S
C819 C824 1.350 . S
C819 N827 1.427 . S
C820 H811 0.930 . S
C820 C818 1.378 . S
C820 C821 1.367 . S
C821 C820 1.367 . S
C821 C823 1.433 . S
C822 C818 1.350 . S
C822 C819 1.463 1_546 S
C822 N826 1.427 . S
C823 H813 0.929 . S
C823 C821 1.433 . S
C823 N826 1.384 . S
C824 H815 0.929 . S
C824 C816 1.378 . S
C824 C819 1.350 . S
C825 H812 0.929 . S
C825 C817 1.433 . S
C825 N827 1.384 . S
N826 C822 1.427 . S
N826 C823 1.384 . S
N827 C819 1.427 . S
N827 C825 1.384 . S
H828 C834 0.930 . S
H829 C838 0.930 . S
H830 C843 0.929 . S
H831 C841 0.929 . S
H832 C836 0.929 . S
H833 C842 0.929 . S
C834 H828 0.930 . S
C834 C835 1.367 . S
C834 C842 1.378 . S
C835 C834 1.367 . S
C835 C843 1.433 . S
C836 H832 0.929 . S
C836 C838 1.378 . S
C836 C840 1.350 . S
C837 C840 1.463 . S
C837 C842 1.350 . S
C837 N845 1.427 . S
C838 H829 0.930 . S
C838 C836 1.378 . S
C838 C839 1.367 . S
C839 C838 1.367 . S
C839 C841 1.433 . S
C840 C836 1.350 . S
C840 C837 1.463 . S
C840 N844 1.427 . S
C841 H831 0.929 . S
C841 C839 1.433 . S
C841 N844 1.384 . S
C842 H833 0.929 . S
C842 C834 1.378 . S
C842 C837 1.350 . S
C843 H830 0.929 . S
C843 C835 1.433 . S
C843 N845 1.384 . S
N844 C840 1.427 . S
N844 C841 1.384 . S
N845 C837 1.427 . S
N845 C843 1.384 . S
H846 C852 0.930 . S
H847 C856 0.930 . S
H848 C861 0.929 . S
H849 C859 0.929 . S
H850 C854 0.929 . S
H851 C860 0.929 . S
C852 H846 0.930 . S
C852 C853 1.367 . S
C852 C860 1.378 . S
C853 C852 1.367 . S
C853 C861 1.433 . S
C854 H850 0.929 . S
C854 C856 1.378 . S
C854 C858 1.350 . S
C855 C858 1.463 . S
C855 C860 1.350 . S
C855 N863 1.427 . S
C856 H847 0.930 . S
C856 C854 1.378 . S
C856 C857 1.367 . S
C857 C856 1.367 . S
C857 C859 1.433 . S
C858 C854 1.350 . S
C858 C855 1.463 . S
C858 N862 1.427 . S
C859 H849 0.929 . S
C859 C857 1.433 . S
C859 N862 1.384 . S
C860 H851 0.929 . S
C860 C852 1.378 . S
C860 C855 1.350 . S
C861 H848 0.929 . S
C861 C853 1.433 . S
C861 N863 1.384 . S
N862 C858 1.427 . S
N862 C859 1.384 . S
N863 C855 1.427 . S
N863 C861 1.384 . S
H864 C870 0.930 . S
H865 C874 0.930 . S
H866 C879 0.929 . S
H867 C877 0.929 . S
H868 C872 0.929 . S
H869 C878 0.929 . S
C870 H864 0.930 . S
C870 C871 1.367 . S
C870 C878 1.378 . S
C871 C870 1.367 . S
C871 C879 1.433 . S
C872 H868 0.929 . S
C872 C874 1.378 . S
C872 C876 1.350 . S
C873 C876 1.463 . S
C873 C878 1.350 . S
C873 N881 1.427 . S
C874 H865 0.930 . S
C874 C872 1.378 . S
C874 C875 1.367 . S
C875 C874 1.367 . S
C875 C877 1.433 . S
C876 C872 1.350 . S
C876 C873 1.463 . S
C876 N880 1.427 . S
C877 H867 0.929 . S
C877 C875 1.433 . S
C877 N880 1.384 . S
C878 H869 0.929 . S
C878 C870 1.378 . S
C878 C873 1.350 . S
C879 H866 0.929 . S
C879 C871 1.433 . S
C879 N881 1.384 . S
N880 C876 1.427 . S
N880 C877 1.384 . S
N881 C873 1.427 . S
N881 C879 1.384 . S
H882 C888 0.930 . S
H883 C892 0.930 . S
H884 C897 0.929 . S
H885 C895 0.929 . S
H886 C890 0.929 . S
H887 C896 0.929 . S
C888 H882 0.930 . S
C888 C889 1.367 . S
C888 C896 1.378 . S
C889 C888 1.367 . S
C889 C897 1.433 . S
C890 H886 0.929 . S
C890 C892 1.378 . S
C890 C894 1.350 . S
C891 C894 1.463 . S
C891 C896 1.350 . S
C891 N899 1.427 . S
C892 H883 0.930 . S
C892 C890 1.378 . S
C892 C893 1.367 . S
C893 C892 1.367 . S
C893 C895 1.433 . S
C894 C890 1.350 . S
C894 C891 1.463 . S
C894 N898 1.427 . S
C895 H885 0.929 . S
C895 C893 1.433 . S
C895 N898 1.384 . S
C896 H887 0.929 . S
C896 C888 1.378 . S
C896 C891 1.350 . S
C897 H884 0.929 . S
C897 C889 1.433 . S
C897 N899 1.384 . S
N898 C894 1.427 . S
N898 C895 1.384 . S
N899 C891 1.427 . S
N899 C897 1.384 . S
H900 C906 0.930 . S
H901 C910 0.930 . S
H902 C915 0.929 . S
H903 C913 0.929 . S
H904 C908 0.929 . S
H905 C914 0.929 . S
C906 H900 0.930 . S
C906 C907 1.367 . S
C906 C914 1.378 . S
C907 C906 1.367 . S
C907 C915 1.433 . S
C908 H904 0.929 . S
C908 C910 1.378 . S
C908 C912 1.350 . S
C909 C912 1.463 . S
C909 C914 1.350 . S
C909 N917 1.427 . S
C910 H901 0.930 . S
C910 C908 1.378 . S
C910 C911 1.367 . S
C911 C910 1.367 . S
C911 C913 1.433 . S
C912 C908 1.350 . S
C912 C909 1.463 . S
C912 N916 1.427 . S
C913 H903 0.929 . S
C913 C911 1.433 . S
C913 N916 1.384 . S
C914 H905 0.929 . S
C914 C906 1.378 . S
C914 C909 1.350 . S
C915 H902 0.929 . S
C915 C907 1.433 . S
C915 N917 1.384 . S
N916 C912 1.427 . S
N916 C913 1.384 . S
N917 C909 1.427 . S
N917 C915 1.384 . S
H918 C924 0.930 . S
H919 C928 0.930 . S
H920 C933 0.929 . S
H921 C931 0.929 . S
H922 C926 0.929 . S
H923 C932 0.929 . S
C924 H918 0.930 . S
C924 C925 1.367 . S
C924 C932 1.378 . S
C925 C924 1.367 . S
C925 C933 1.433 . S
C926 H922 0.929 . S
C926 C928 1.378 . S
C926 C930 1.350 . S
C927 C930 1.463 . S
C927 C932 1.350 . S
C927 N935 1.427 . S
C928 H919 0.930 . S
C928 C926 1.378 . S
C928 C929 1.367 . S
C929 C928 1.367 . S
C929 C931 1.433 . S
C930 C926 1.350 . S
C930 C927 1.463 . S
C930 N934 1.427 . S
C931 H921 0.929 . S
C931 C929 1.433 . S
C931 N934 1.384 . S
C932 H923 0.929 . S
C932 C924 1.378 . S
C932 C927 1.350 . S
C933 H920 0.929 . S
C933 C925 1.433 . S
C933 N935 1.384 . S
N934 C930 1.427 . S
N934 C931 1.384 . S
N935 C927 1.427 . S
N935 C933 1.384 . S
C403 N343 0.928 . S
C407 N13 0.937 . S
C421 N46 1.033 . S
C425 N376 1.047 . S
C439 N79 1.050 . S
C443 N211 1.048 . S
C457 N112 0.961 . S
C461 N244 0.946 . S
C475 N145 1.031 . S
C479 N277 1.018 . S
C493 N178 1.044 . S
C497 N310 1.046 . S
C511 N2 1.719 . S
C515 C183 1.706 . S
C529 C18 1.729 . S
C533 N35 1.729 . S
C547 C51 1.745 . S
C551 N68 1.749 . S
C565 N101 1.748 . S
C569 C84 1.732 . S
C583 N134 1.806 . S
C587 C117 1.798 . S
C601 N167 1.760 . S
C605 C150 1.737 . S
C619 C249 1.729 . S
C623 N200 1.728 . S
C637 N233 1.727 . S
C641 C282 1.700 . S
C655 N266 1.756 . S
C659 C315 1.744 . S
C673 N299 1.809 . S
C677 C348 1.797 . S
C691 N332 1.749 . S
C695 C381 1.734 . S
C709 N365 1.745 . S
C713 C216 1.744 . S
C727 C7 0.712 . S
C731 C304 0.706 . S
C745 C40 0.851 . S
C749 C337 0.854 . S
C763 C73 0.820 . S
C767 C370 0.821 . S
C781 C106 0.856 . S
C785 C205 0.853 . S
C799 C139 0.713 . S
C803 C238 0.716 . S
C817 C271 0.781 . S
C821 C172 0.777 . S
C835 C219 1.373 . S
C839 C21 1.380 . S
C853 C54 1.377 . S
C857 C252 1.376 . S
C871 C87 1.395 . S
C875 C285 1.399 . S
C889 C318 1.414 . S
C893 C120 1.419 . S
C907 C153 1.414 . S
C911 C351 1.418 . S
C925 C384 1.396 . S
C929 C186 1.389 . S
