# Generated by pormake.
# Topology xfx, (5)-cn, num edge types: 1
# Building blocks:
#     Node 0, Type 0, BuildingBlock: BEQFEK_clean_sbu_0, # of connection points: 5
#     Node 1, Type 0, BuildingBlock: BEQFEK_clean_sbu_0, # of connection points: 5
#     Node 2, Type 0, BuildingBlock: BEQFEK_clean_sbu_0, # of connection points: 5
#     Node 3, Type 0, BuildingBlock: BEQFEK_clean_sbu_0, # of connection points: 5
#     Node 4, Type 0, BuildingBlock: BEQFEK_clean_sbu_0, # of connection points: 5
#     Node 5, Type 0, BuildingBlock: BEQFEK_clean_sbu_0, # of connection points: 5
#     Node 6, Type 0, BuildingBlock: BEQFEK_clean_sbu_0, # of connection points: 5
#     Node 7, Type 0, BuildingBlock: BEQFEK_clean_sbu_0, # of connection points: 5
#     Edge 8, Type (0, 0), BuildingBlock: KIFKEQ_clean_linker_1, # of connection points: 2
#     Edge 9, Type (0, 0), BuildingBlock: KIFKEQ_clean_linker_1, # of connection points: 2
#     Edge 10, Type (0, 0), BuildingBlock: KIFKEQ_clean_linker_1, # of connection points: 2
#     Edge 11, Type (0, 0), BuildingBlock: KIFKEQ_clean_linker_1, # of connection points: 2
#     Edge 12, Type (0, 0), BuildingBlock: KIFKEQ_clean_linker_1, # of connection points: 2
#     Edge 13, Type (0, 0), BuildingBlock: KIFKEQ_clean_linker_1, # of connection points: 2
#     Edge 14, Type (0, 0), BuildingBlock: KIFKEQ_clean_linker_1, # of connection points: 2
#     Edge 15, Type (0, 0), BuildingBlock: KIFKEQ_clean_linker_1, # of connection points: 2
#     Edge 16, Type (0, 0), BuildingBlock: KIFKEQ_clean_linker_1, # of connection points: 2
#     Edge 17, Type (0, 0), BuildingBlock: KIFKEQ_clean_linker_1, # of connection points: 2
#     Edge 18, Type (0, 0), BuildingBlock: KIFKEQ_clean_linker_1, # of connection points: 2
#     Edge 19, Type (0, 0), BuildingBlock: KIFKEQ_clean_linker_1, # of connection points: 2
#     Edge 20, Type (0, 0), BuildingBlock: KIFKEQ_clean_linker_1, # of connection points: 2
#     Edge 21, Type (0, 0), BuildingBlock: KIFKEQ_clean_linker_1, # of connection points: 2
#     Edge 22, Type (0, 0), BuildingBlock: KIFKEQ_clean_linker_1, # of connection points: 2
#     Edge 23, Type (0, 0), BuildingBlock: KIFKEQ_clean_linker_1, # of connection points: 2
#     Edge 24, Type (0, 0), BuildingBlock: KIFKEQ_clean_linker_1, # of connection points: 2
#     Edge 25, Type (0, 0), BuildingBlock: KIFKEQ_clean_linker_1, # of connection points: 2
#     Edge 26, Type (0, 0), BuildingBlock: KIFKEQ_clean_linker_1, # of connection points: 2
#     Edge 27, Type (0, 0), BuildingBlock: KIFKEQ_clean_linker_1, # of connection points: 2
# Relax obj value: 0.374
# Max RMSD: 0.211
# Mean RMSD: 0.211
data_MOF--net-xfx--node1-BEQFEK_clean_sbu_0--edge1-KIFKEQ_clean_linker_1
_symmetry_space_group_name_H-M    P1
_symmetry_Int_Tables_number       1
_symmetry_cell_setting            triclinic
loop_
_symmetry_equiv_pos_as_xyz
'x, y, z'
_cell_length_a     39.814872
_cell_length_b     39.824953
_cell_length_c     34.070852
_cell_angle_alpha  89.837077
_cell_angle_beta   89.940853
_cell_angle_gamma 77.433447
loop_
_atom_site_label
_atom_site_type_symbol
_atom_site_fract_x
_atom_site_fract_y
_atom_site_fract_z
_atom_type_partial_charge
Co0 Co 0.34261 0.04342 0.3911 0.0
Co1 Co 0.33738 0.97987 0.4428 0.0
C2 C 0.3502 0.97448 0.35511 0.0
O3 O 0.34804 0.00665 0.35153 0.0
O4 O 0.34713 0.96107 0.38854 0.0
C5 C 0.32484 0.09413 0.331 0.0
O6 O 0.30577 0.07351 0.31785 0.0
C7 C 0.30258 0.92474 0.46053 0.0
C8 C 0.31834 0.9097 0.52134 0.0
C9 C 0.29777 0.90288 0.49084 0.0
N10 N 0.3244 0.94395 0.47277 0.0
N11 N 0.33394 0.93473 0.50908 0.0
C12 C 0.28868 0.92629 0.41953 0.0
H13 H 0.27857 0.9535 0.41089 0.0
H14 H 0.26854 0.91132 0.41585 0.0
H15 H 0.31005 0.91542 0.39922 0.0
C16 C 0.27408 0.07131 0.42517 0.0
N17 N 0.30244 0.04608 0.42098 0.0
N18 N 0.29986 0.01978 0.44341 0.0
C19 C 0.26946 0.02776 0.4628 0.0
C20 C 0.25204 0.06046 0.45134 0.0
C21 C 0.26914 0.1062 0.40669 0.0
H22 H 0.29349 0.11534 0.40785 0.0
H23 H 0.26158 0.10456 0.37556 0.0
H24 H 0.24874 0.12522 0.42178 0.0
O25 O 0.38361 0.03552 0.42522 0.0
O26 O 0.3814 0.99072 0.46341 0.0
H27 H 0.27813 0.99333 0.51197 0.0
H28 H 0.23448 0.01844 0.5082 0.0
C29 C 0.25711 0.00455 0.49138 0.0
H30 H 0.24955 0.98326 0.47515 0.0
H31 H 0.35072 0.9458 0.52563 0.0
O32 O 0.34188 0.08644 0.36246 0.0
C33 C 0.39643 0.01438 0.45217 0.0
Co34 Co 0.99072 0.69082 0.57665 0.0
Co35 Co 0.05773 0.69977 0.53402 0.0
C36 C 0.05821 0.6827 0.61937 0.0
O37 O 0.02643 0.6822 0.61778 0.0
O38 O 0.07406 0.68996 0.58913 0.0
C39 C 0.94076 0.70857 0.63581 0.0
O40 O 0.96184 0.72786 0.64717 0.0
C41 C 0.11465 0.73343 0.52012 0.0
C42 C 0.1288 0.7207 0.45842 0.0
C43 C 0.13685 0.73886 0.49049 0.0
N44 N 0.0946 0.71299 0.50629 0.0
N45 N 0.10338 0.70518 0.46947 0.0
C46 C 0.10989 0.75011 0.55967 0.0
H47 H 0.08318 0.75198 0.57025 0.0
H48 H 0.11552 0.77619 0.55859 0.0
H49 H 0.1278 0.73418 0.58081 0.0
C50 C 0.96423 0.7607 0.54536 0.0
N51 N 0.98956 0.73249 0.55013 0.0
N52 N 0.01732 0.73669 0.53145 0.0
C53 C 0.01022 0.76804 0.51399 0.0
C54 C 0.97653 0.78432 0.52283 0.0
C55 C 0.92812 0.76425 0.55988 0.0
H56 H 0.92018 0.73934 0.55738 0.0
H57 H 0.92683 0.7721 0.59113 0.0
H58 H 0.90987 0.78408 0.54298 0.0
O59 O 0.99935 0.65179 0.53997 0.0
O60 O 0.04913 0.65513 0.51209 0.0
H61 H 0.04761 0.76284 0.46793 0.0
H62 H 0.02213 0.80608 0.47392 0.0
C63 C 0.03508 0.78232 0.48957 0.0
H64 H 0.05528 0.78858 0.50882 0.0
H65 H 0.09145 0.69 0.45162 0.0
O66 O 0.94737 0.69115 0.60448 0.0
C67 C 0.02428 0.63988 0.51698 0.0
Co68 Co 0.69666 0.99564 0.388 0.0
Co69 Co 0.69971 0.05829 0.44175 0.0
C70 C 0.68527 0.06614 0.3546 0.0
O71 O 0.68865 0.03392 0.35015 0.0
O72 O 0.68843 0.07889 0.38828 0.0
C73 C 0.71291 0.95025 0.32347 0.0
O74 O 0.72581 0.97538 0.30909 0.0
C75 C 0.7317 0.11493 0.45999 0.0
C76 C 0.71748 0.12743 0.5217 0.0
C77 C 0.73605 0.13661 0.49046 0.0
N78 N 0.71139 0.09417 0.47245 0.0
N79 N 0.70271 0.10189 0.50931 0.0
C80 C 0.7493 0.11129 0.42088 0.0
H81 H 0.75181 0.08478 0.4095 0.0
H82 H 0.77518 0.11729 0.42302 0.0
H83 H 0.73362 0.12946 0.39979 0.0
C84 C 0.76597 0.96958 0.42018 0.0
N85 N 0.73692 0.99407 0.41703 0.0
N86 N 0.73844 0.01965 0.44083 0.0
C87 C 0.76868 0.01177 0.46047 0.0
C88 C 0.78723 0.98002 0.44751 0.0
C89 C 0.77208 0.93564 0.39953 0.0
H90 H 0.74931 0.9241 0.40311 0.0
H91 H 0.77579 0.93978 0.36776 0.0
H92 H 0.79509 0.91738 0.41103 0.0
O93 O 0.65612 1.0005 0.4229 0.0
O94 O 0.65695 0.04476 0.46224 0.0
H95 H 0.75782 0.0431 0.51187 0.0
H96 H 0.80216 0.01973 0.50794 0.0
C97 C 0.77947 0.03387 0.49135 0.0
H98 H 0.78628 0.05659 0.47719 0.0
H99 H 0.68738 0.08926 0.52623 0.0
O100 O 0.69985 0.95313 0.35764 0.0
C101 C 0.64288 0.0206 0.45053 0.0
Co102 Co 0.04217 0.34329 0.58566 0.0
Co103 Co 0.9783 0.33748 0.53472 0.0
C104 C 0.97214 0.35528 0.62088 0.0
O105 O 0.00436 0.35267 0.62407 0.0
O106 O 0.95868 0.35043 0.58811 0.0
C107 C 0.08694 0.32712 0.64999 0.0
O108 O 0.06194 0.31313 0.66263 0.0
C109 C 0.92547 0.29942 0.51741 0.0
C110 C 0.90328 0.32166 0.46131 0.0
C111 C 0.90073 0.29705 0.48943 0.0
N112 N 0.94208 0.32386 0.50609 0.0
N113 N 0.92871 0.33709 0.47251 0.0
C114 C 0.93192 0.28034 0.55562 0.0
H115 H 0.94706 0.2929 0.57582 0.0
H116 H 0.94693 0.25387 0.55042 0.0
H117 H 0.90715 0.27856 0.56957 0.0
C118 C 0.06862 0.2733 0.55568 0.0
N119 N 0.04358 0.30193 0.55884 0.0
N120 N 0.01784 0.29958 0.53557 0.0
C121 C 0.02637 0.26942 0.51587 0.0
C122 C 0.05846 0.25157 0.52873 0.0
C123 C 0.10299 0.26825 0.57533 0.0
H124 H 0.11355 0.29161 0.57145 0.0
H125 H 0.09982 0.26407 0.60718 0.0
H126 H 0.12164 0.24583 0.56326 0.0
O127 O 0.03662 0.38248 0.54828 0.0
O128 O 0.99036 0.38021 0.51237 0.0
H129 H 0.99162 0.28137 0.46708 0.0
H130 H 0.0215 0.24017 0.46365 0.0
C131 C 0.00526 0.25861 0.48391 0.0
H132 H 0.98599 0.24563 0.49702 0.0
H133 H 0.93677 0.35675 0.45737 0.0
O134 O 0.08461 0.34104 0.61621 0.0
C135 C 0.01501 0.39465 0.52148 0.0
Co136 Co 0.84835 0.54369 0.89466 0.0
Co137 Co 0.83702 0.47925 0.94208 0.0
C138 C 0.85451 0.47517 0.85614 0.0
O139 O 0.85485 0.50698 0.85468 0.0
O140 O 0.84814 0.46114 0.88806 0.0
C141 C 0.83201 0.59235 0.83379 0.0
O142 O 0.81231 0.57148 0.82299 0.0
C143 C 0.80778 0.41874 0.95825 0.0
C144 C 0.80048 0.42136 0.02246 0.0
C145 C 0.79332 0.40403 -0.01069 0.0
N146 N 0.82151 0.4444 0.97221 0.0
N147 N 0.81776 0.44523 0.01077 0.0
C148 C 0.81072 0.40728 0.91632 0.0
H149 H 0.83771 0.40447 0.90653 0.0
H150 H 0.79404 0.42697 0.89767 0.0
H151 H 0.80392 0.38197 0.91234 0.0
C152 C 0.7801 0.5744 0.92706 0.0
N153 N 0.80673 0.54745 0.92201 0.0
N154 N 0.80076 0.52052 0.94108 0.0
C155 C 0.76922 0.52956 0.95789 0.0
C156 C 0.75533 0.56397 0.94964 0.0
C157 C 0.77867 0.60975 0.91102 0.0
H158 H 0.80401 0.61664 0.91459 0.0
H159 H 0.77238 0.61004 0.87933 0.0
H160 H 0.75861 0.62945 0.92556 0.0
O161 O 0.88736 0.53476 0.93146 0.0
O162 O 0.88138 0.48814 0.96472 0.0
H163 H 0.76672 0.50224 0.01134 0.0
H164 H 0.72553 0.51785 -0.01155 0.0
C165 C 0.7531 0.50642 0.9828 0.0
H166 H 0.75539 0.48125 0.96808 0.0
H167 H 0.82556 0.46318 0.02892 0.0
O168 O 0.84938 0.58603 0.86524 0.0
C169 C 0.89783 0.51168 0.95724 0.0
Co170 Co 0.4932 0.19537 0.0874 0.0
Co171 Co 0.55648 0.20033 0.0353 0.0
C172 C 0.5629 0.18641 0.12255 0.0
O173 O 0.53068 0.18891 0.1263 0.0
O174 O 0.57617 0.18974 0.08911 0.0
C175 C 0.44326 0.21339 0.14824 0.0
O176 O 0.46423 0.23219 0.16117 0.0
C177 C 0.6148 0.23066 0.01684 0.0
C178 C 0.62048 0.22408 0.95269 0.0
C179 C 0.6334 0.23821 0.98495 0.0
N180 N 0.59198 0.21271 0.00423 0.0
N181 N 0.59584 0.20838 0.96589 0.0
C182 C 0.61587 0.24368 0.05789 0.0
H183 H 0.58943 0.25071 0.07013 0.0
H184 H 0.62794 0.2663 0.059 0.0
H185 H 0.63116 0.22292 0.07641 0.0
C186 C 0.46567 0.2643 0.05407 0.0
N187 N 0.49075 0.23577 0.05798 0.0
N188 N 0.51707 0.23839 0.03567 0.0
C189 C 0.50934 0.26907 0.01679 0.0
C190 C 0.4767 0.28653 0.02828 0.0
C191 C 0.4307 0.26916 0.07228 0.0
H192 H 0.4216 0.2448 0.07103 0.0
H193 H 0.43221 0.27667 0.10343 0.0
H194 H 0.41172 0.28956 0.05707 0.0
O195 O 0.49989 0.15483 0.05288 0.0
O196 O 0.54457 0.1569 0.01455 0.0
H197 H 0.53987 0.26267 0.96461 0.0
H198 H 0.52042 0.307 0.97592 0.0
C199 C 0.53271 0.28162 -0.0114 0.0
H200 H 0.55654 0.28405 0.00406 0.0
H201 H 0.58067 0.19602 0.94853 0.0
O202 O 0.45049 0.19647 0.11668 0.0
C203 C 0.52071 0.14211 0.02568 0.0
Co204 Co 0.19239 0.49209 0.89334 0.0
Co205 Co 0.19914 0.55825 0.93933 0.0
C206 C 0.17915 0.56107 0.85414 0.0
O207 O 0.18069 0.5289 0.85389 0.0
O208 O 0.18615 0.576 0.88507 0.0
C209 C 0.20829 0.44622 0.83051 0.0
O210 O 0.22229 0.47106 0.81739 0.0
C211 C 0.23664 0.61221 0.9546 0.0
C212 C 0.21551 0.63383 0.01131 0.0
C213 C 0.23944 0.63679 0.98257 0.0
N214 N 0.21265 0.59526 0.96655 0.0
N215 N 0.20005 0.60835 0.00046 0.0
C216 C 0.25511 0.60605 0.91604 0.0
H217 H 0.24177 0.59178 0.89568 0.0
H218 H 0.28139 0.5903 0.92063 0.0
H219 H 0.25737 0.63086 0.90253 0.0
C220 C 0.26309 0.46725 0.92213 0.0
N221 N 0.23437 0.4921 0.91833 0.0
N222 N 0.2371 0.51881 0.93978 0.0
C223 C 0.26761 0.51113 0.95895 0.0
C224 C 0.28527 0.47856 0.94758 0.0
C225 C 0.26783 0.43204 0.90471 0.0
H226 H 0.24445 0.42178 0.90986 0.0
H227 H 0.27172 0.43373 0.8726 0.0
H228 H 0.29036 0.41393 0.91745 0.0
O229 O 0.1544 0.49803 0.93188 0.0
O230 O 0.15633 0.54682 0.9629 0.0
H231 H 0.25639 0.54724 0.00642 0.0
H232 H 0.29793 0.51789 0.00972 0.0
C233 C 0.27886 0.53336 -0.0106 0.0
H234 H 0.29125 0.55243 0.97486 0.0
H235 H 0.18094 0.5999 0.01619 0.0
O236 O 0.19453 0.44894 0.86434 0.0
C237 C 0.14221 0.52133 0.95679 0.0
Co238 Co 0.53933 0.84284 0.09078 0.0
Co239 Co 0.47771 0.83832 0.03582 0.0
C240 C 0.46863 0.85231 0.12298 0.0
O241 O 0.50071 0.84966 0.1279 0.0
O242 O 0.4563 0.84897 0.08908 0.0
C243 C 0.58414 0.82895 0.15637 0.0
O244 O 0.55869 0.81698 0.17148 0.0
C245 C 0.42284 0.80437 0.01602 0.0
C246 C 0.40967 0.81991 0.95474 0.0
C247 C 0.40123 0.80019 0.98536 0.0
N248 N 0.44279 0.82572 0.0043 0.0
N249 N 0.43473 0.83511 0.96767 0.0
C250 C 0.42699 0.78603 0.05471 0.0
H251 H 0.45342 0.78402 0.06621 0.0
H252 H 0.42169 0.75991 0.05191 0.0
H253 H 0.40855 0.8009 0.07608 0.0
C254 C 0.56841 0.77531 0.05672 0.0
N255 N 0.54232 0.80277 0.06121 0.0
N256 N 0.51725 0.80055 0.03693 0.0
C257 C 0.52699 0.77131 0.01576 0.0
C258 C 0.55979 0.75444 0.02767 0.0
C259 C 0.60138 0.76967 0.0794 0.0
H260 H 0.59551 0.77011 0.1112 0.0
H261 H 0.61874 0.74463 0.07245 0.0
H262 H 0.61469 0.79082 0.07296 0.0
O263 O 0.53384 0.88346 0.05596 0.0
O264 O 0.49033 0.88166 0.0157 0.0
H265 H 0.5224 0.74019 0.96491 0.0
H266 H 0.4841 0.75267 -0.00553 0.0
C267 C 0.50672 0.76133 0.98252 0.0
H268 H 0.4972 0.78397 0.96339 0.0
H269 H 0.44668 0.8514 0.95133 0.0
O270 O 0.58164 0.84058 0.12151 0.0
C271 C 0.51395 0.89628 0.0279 0.0
H272 H 0.61237 0.96592 0.44301 0.0
H273 H 0.59541 0.06826 0.49169 0.0
H274 H 0.5527 0.96439 0.45545 0.0
H275 H 0.53539 0.06647 0.50489 0.0
H276 H 0.42694 0.06921 0.44952 0.0
H277 H 0.48697 0.06958 0.46101 0.0
H278 H 0.50524 0.96389 0.50014 0.0
H279 H 0.44472 0.96338 0.48791 0.0
C280 C 0.59609 0.98786 0.45724 0.0
C281 C 0.60866 0.01744 0.4658 0.0
C282 C 0.56179 0.98684 0.4647 0.0
C283 C 0.53898 0.01543 0.48083 0.0
C284 C 0.55212 0.04416 0.4919 0.0
C285 C 0.58661 0.04511 0.4846 0.0
C286 C 0.44353 0.04619 0.46133 0.0
C287 C 0.43105 0.0161 0.46728 0.0
C288 C 0.47804 0.0465 0.46825 0.0
C289 C 0.50118 0.01668 0.48117 0.0
C290 C 0.48823 0.9872 0.48967 0.0
C291 C 0.45347 0.98696 0.48297 0.0
H292 H 0.07842 0.58524 0.52061 0.0
H293 H 0.97379 0.61568 0.47996 0.0
H294 H 0.07674 0.52523 0.51193 0.0
H295 H 0.97262 0.55578 0.46742 0.0
H296 H 0.96187 0.4496 0.5109 0.0
H297 H 0.96563 0.50881 0.49974 0.0
H298 H 0.07561 0.47563 0.48186 0.0
H299 H 0.07165 0.41681 0.49685 0.0
C300 C 0.05555 0.57902 0.50803 0.0
C301 C 0.02626 0.60503 0.50099 0.0
C302 C 0.05444 0.54438 0.50289 0.0
C303 C 0.02423 0.53487 0.48953 0.0
C304 C 0.99599 0.56147 0.47915 0.0
C305 C 0.99676 0.59602 0.48562 0.0
C306 C 0.98669 0.45501 0.50373 0.0
C307 C 0.01646 0.42868 0.50489 0.0
C308 C 0.989 0.48918 0.49712 0.0
C309 C 0.02112 0.49784 0.49038 0.0
C310 C 0.05051 0.4707 0.4883 0.0
C311 C 0.04828 0.43672 0.49626 0.0
H312 H 0.92069 0.56368 -0.00757 0.0
H313 H 0.95261 0.45752 0.95813 0.0
H314 H 0.98015 0.56568 0.00666 0.0
H315 H 0.01234 0.45984 0.96861 0.0
H316 H 0.12006 0.46615 0.98604 0.0
H317 H 0.06098 0.46272 0.00045 0.0
H318 H 0.0278 0.57145 0.9746 0.0
H319 H 0.08715 0.5749 0.96386 0.0
C320 C 0.94057 0.54056 -0.0114 0.0
C321 C 0.93213 0.51038 0.97448 0.0
C322 C 0.97487 0.54179 -0.00396 0.0
C323 C 1.00184 0.51325 0.98793 0.0
C324 C 0.99285 0.48241 0.97589 0.0
C325 C 0.9584 0.48093 0.96973 0.0
C326 C 0.10008 0.48946 0.98484 0.0
C327 C 0.10816 0.5208 0.97396 0.0
C328 C 0.06598 0.48748 -0.00756 0.0
C329 C 0.03881 0.51656 0.98783 0.0
C330 C 0.04747 0.54836 0.97912 0.0
C331 C 0.08173 0.55049 0.9728 0.0
H332 H 0.4659 0.94357 0.98681 0.0
H333 H 0.56857 0.92684 0.03483 0.0
H334 H 0.46757 1.00359 0.97311 0.0
H335 H 0.57002 0.98644 0.02187 0.0
H336 H 0.57107 0.09401 -0.01098 0.0
H337 H 0.57018 0.03365 0.97663 0.0
H338 H 0.46486 0.05209 0.01689 0.0
H339 H 0.46559 0.112 0.02854 0.0
C340 C 0.48909 0.95243 -0.00636 0.0
C341 C 0.5169 0.93048 0.01242 0.0
C342 C 0.48998 0.98689 0.98604 0.0
C343 C 0.5188 1.00005 -0.00323 0.0
C344 C 0.5475 0.97731 0.01287 0.0
C345 C 0.54653 0.94307 0.02065 0.0
C346 C 0.54747 0.08535 -0.00585 0.0
C347 C 0.51857 0.10775 0.01026 0.0
C348 C 0.54701 0.05069 0.98735 0.0
C349 C 0.51756 0.03781 -0.00381 0.0
C350 C 0.48791 0.06097 0.00942 0.0
C351 C 0.48844 0.0954 0.01643 0.0
H352 H 0.08683 0.23623 0.45658 0.0
H353 H 0.07854 0.19323 0.57142 0.0
H354 H 0.12979 0.18504 0.43819 0.0
H355 H 0.1207 0.14128 0.55303 0.0
H356 H 0.23287 0.08389 0.52476 0.0
H357 H 0.18114 0.12643 0.54275 0.0
H358 H 0.14362 0.1254 0.42376 0.0
H359 H 0.19605 0.08377 0.40591 0.0
C360 C 0.09346 0.21519 0.47737 0.0
C361 C 0.07931 0.21831 0.51518 0.0
C362 C 0.11806 0.18581 0.46695 0.0
C363 C 0.12894 0.15891 0.49418 0.0
C364 C 0.11341 0.16161 0.5315 0.0
C365 C 0.08902 0.19112 0.54194 0.0
C366 C 0.21306 0.09221 0.50287 0.0
C367 C 0.21816 0.08062 0.4641 0.0
C368 C 0.18337 0.11657 0.51306 0.0
C369 C 0.15817 0.12967 0.48462 0.0
C370 C 0.16268 0.11645 0.44626 0.0
C371 C 0.19247 0.09236 0.43608 0.0
H372 H 0.23037 0.91476 0.46877 0.0
H373 H 0.31205 0.83694 0.51814 0.0
H374 H 0.19257 0.87403 0.4684 0.0
H375 H 0.27395 0.79613 0.51859 0.0
H376 H 0.18107 0.74738 0.54946 0.0
H377 H 0.2201 0.78703 0.55068 0.0
H378 H 0.189 0.82012 0.43287 0.0
H379 H 0.14955 0.78092 0.43199 0.0
C380 C 0.2404 0.8887 0.47888 0.0
C381 C 0.27451 0.87854 0.49208 0.0
C382 C 0.21871 0.86546 0.47892 0.0
C383 C 0.23044 0.8317 0.49289 0.0
C384 C 0.26418 0.82195 0.50759 0.0
C385 C 0.28599 0.84521 0.50726 0.0
C386 C 0.18233 0.76339 0.52402 0.0
C387 C 0.16176 0.76159 0.49092 0.0
C388 C 0.20497 0.78578 0.52454 0.0
C389 C 0.20741 0.80692 0.492 0.0
C390 C 0.18732 0.80454 0.45862 0.0
C391 C 0.16494 0.78194 0.45799 0.0
H392 H 0.80181 0.95087 0.51932 0.0
H393 H 0.8465 0.96163 0.40607 0.0
H394 H 0.85262 0.90744 0.53777 0.0
H395 H 0.89831 0.91933 0.4247 0.0
H396 H 0.95579 0.8069 0.44952 0.0
H397 H 0.91384 0.85937 0.43257 0.0
H398 H 0.91107 0.89154 0.55394 0.0
H399 H 0.95176 0.83814 0.57066 0.0
C400 C 0.82318 0.9447 0.49896 0.0
C401 C 0.82055 0.95954 0.46148 0.0
C402 C 0.85239 0.91984 0.50943 0.0
C403 C 0.87972 0.90952 0.48264 0.0
C404 C 0.87763 0.92603 0.44584 0.0
C405 C 0.84822 0.95057 0.43528 0.0
C406 C 0.9467 0.8257 0.47221 0.0
C407 C 0.95693 0.81879 0.51125 0.0
C408 C 0.9227 0.85585 0.46263 0.0
C409 C 0.90868 0.87981 0.49193 0.0
C410 C 0.92064 0.8735 0.5307 0.0
C411 C 0.94425 0.84315 0.54028 0.0
H412 H 0.77731 0.14904 0.54983 0.0
H413 H 0.74364 0.18262 0.43303 0.0
H414 H 0.81617 0.18892 0.54987 0.0
H415 H 0.78293 0.22194 0.43265 0.0
H416 H 0.83431 0.31212 0.46372 0.0
H417 H 0.79275 0.27496 0.46468 0.0
H418 H 0.86998 0.19281 0.5145 0.0
H419 H 0.91146 0.22942 0.51256 0.0
C420 C 0.77817 0.16503 0.52423 0.0
C421 C 0.758 0.16223 0.49113 0.0
C422 C 0.80057 0.18765 0.52411 0.0
C423 C 0.80289 0.20833 0.49109 0.0
C424 C 0.78174 0.2064 0.45854 0.0
C425 C 0.75955 0.18357 0.45856 0.0
C426 C 0.84235 0.28611 0.47485 0.0
C427 C 0.87588 0.27415 0.4893 0.0
C428 C 0.81859 0.26483 0.47537 0.0
C429 C 0.82792 0.23112 0.49028 0.0
C430 C 0.86169 0.21897 0.50389 0.0
C431 C 0.88544 0.24013 0.50311 0.0
H432 H 0.61998 0.75478 -0.00836 0.0
H433 H 0.55325 0.68739 0.02437 0.0
H434 H 0.665 0.70519 0.9737 0.0
H435 H 0.5986 0.63716 0.00609 0.0
H436 H 0.68879 0.564 0.9298 0.0
H437 H 0.6374 0.60859 0.94626 0.0
H438 H 0.7 0.65924 0.01896 0.0
H439 H 0.75079 0.61488 0.00264 0.0
C440 C 0.61482 0.72925 -0.00577 0.0
C441 C 0.58345 0.7247 0.00966 0.0
C442 C 0.64061 0.70089 0.9843 0.0
C443 C 0.63553 0.66732 -0.01066 0.0
C444 C 0.6032 0.66277 0.00213 0.0
C445 C 0.57729 0.69137 0.0124 0.0
C446 C 0.69114 0.58429 0.95003 0.0
C447 C 0.7235 0.58635 0.96491 0.0
C448 C 0.6619 0.60976 0.95933 0.0
C449 C 0.6649 0.63767 0.98327 0.0
C450 C 0.69706 0.63838 -0.00016 0.0
C451 C 0.72602 0.61293 -0.00918 0.0
H452 H 0.78609 0.35696 0.0453 0.0
H453 H 0.74705 0.3961 0.93221 0.0
H454 H 0.74732 0.31731 0.0449 0.0
H455 H 0.71164 0.35412 0.92936 0.0
H456 H 0.62496 0.29996 0.94873 0.0
H457 H 0.66281 0.34034 0.95117 0.0
H458 H 0.73548 0.26741 0.02089 0.0
H459 H 0.69576 0.22851 0.02073 0.0
C460 C 0.76988 0.35647 0.01989 0.0
C461 C 0.77087 0.37872 0.98806 0.0
C462 C 0.74782 0.33344 0.01939 0.0
C463 C 0.72636 0.33186 0.98684 0.0
C464 C 0.72733 0.35445 0.9552 0.0
C465 C 0.74864 0.37802 0.95623 0.0
C466 C 0.64916 0.29272 0.96436 0.0
C467 C 0.65774 0.26124 0.98429 0.0
C468 C 0.67111 0.31572 0.96563 0.0
C469 C 0.70269 0.30733 0.986 0.0
C470 C 0.71128 0.27531 0.0055 0.0
C471 C 0.6888 0.25274 0.00507 0.0
H472 H 0.45249 0.34248 0.07334 0.0
H473 H 0.45423 0.30558 0.95446 0.0
H474 H 0.41097 0.39477 0.05466 0.0
H475 H 0.41162 0.35701 0.93567 0.0
H476 H 0.34377 0.45841 0.90535 0.0
H477 H 0.39592 0.41687 0.92466 0.0
H478 H 0.35186 0.40885 0.03953 0.0
H479 H 0.30061 0.4514 0.02027 0.0
C480 C 0.44429 0.346 0.043 0.0
C481 C 0.45651 0.32032 0.01522 0.0
C482 C 0.42025 0.3757 0.03234 0.0
C483 C 0.40748 0.3801 -0.00628 0.0
C484 C 0.42109 0.3549 0.96554 0.0
C485 C 0.44547 0.32536 0.9762 0.0
C486 C 0.34589 0.44834 0.93504 0.0
C487 C 0.31862 0.45823 0.96158 0.0
C488 C 0.37551 0.42426 0.94601 0.0
C489 C 0.37818 0.40916 0.98361 0.0
C490 C 0.35116 0.42024 0.01058 0.0
C491 C 0.32172 0.44459 -0.00035 0.0
H492 H 0.22532 0.70258 0.00998 0.0
H493 H 0.30659 0.62623 0.95764 0.0
H494 H 0.26297 0.74365 0.00987 0.0
H495 H 0.3437 0.66726 0.95662 0.0
H496 H 0.38827 0.76047 0.92476 0.0
H497 H 0.34811 0.72191 0.92348 0.0
H498 H 0.31646 0.75178 0.04193 0.0
H499 H 0.35599 0.7908 0.04279 0.0
C500 C 0.25111 0.69463 -0.00178 0.0
C501 C 0.26252 0.66147 0.98263 0.0
C502 C 0.27267 0.71811 -0.00179 0.0
C503 C 0.30616 0.70886 0.9827 0.0
C504 C 0.31773 0.6755 0.96777 0.0
C505 C 0.29628 0.65201 0.96803 0.0
C506 C 0.37256 0.75889 0.95039 0.0
C507 C 0.37578 0.77806 0.98416 0.0
C508 C 0.34976 0.73667 0.94979 0.0
C509 C 0.32933 0.73355 0.98275 0.0
C510 C 0.33178 0.75362 0.01605 0.0
C511 C 0.35477 0.77563 0.01674 0.0
H512 H 0.3684 0.13652 0.34627 0.0
H513 H 0.29332 0.11833 0.26197 0.0
H514 H 0.3864 0.17623 0.30128 0.0
H515 H 0.31041 0.15953 0.21719 0.0
H516 H 0.42043 0.24412 0.21802 0.0
H517 H 0.37958 0.22691 0.26316 0.0
H518 H 0.36056 0.15268 0.17826 0.0
H519 H 0.39991 0.1708 0.13297 0.0
C520 C 0.35503 0.14175 0.3185 0.0
C521 C 0.33014 0.12354 0.30718 0.0
C522 C 0.36511 0.16494 0.29275 0.0
C523 C 0.35027 0.1707 0.25523 0.0
C524 C 0.32294 0.15503 0.24551 0.0
C525 C 0.31308 0.1315 0.27119 0.0
C526 C 0.40682 0.22474 0.20873 0.0
C527 C 0.41404 0.20817 0.1724 0.0
C528 C 0.38349 0.21481 0.23461 0.0
C529 C 0.36729 0.1879 0.22473 0.0
C530 C 0.37229 0.17362 0.18693 0.0
C531 C 0.39527 0.18377 0.16099 0.0
H532 H 0.126 0.68197 0.63684 0.0
H533 H 0.03389 0.65693 0.68513 0.0
H534 H 0.15854 0.65567 0.69455 0.0
H535 H 0.06657 0.63042 0.74169 0.0
H536 H 0.15126 0.53871 0.78892 0.0
H537 H 0.12394 0.5727 0.73362 0.0
H538 H 0.15003 0.66348 0.78237 0.0
H539 H 0.17716 0.62956 0.8389 0.0
C540 C 0.1126 0.67138 0.65987 0.0
C541 C 0.07738 0.67129 0.65611 0.0
C542 C 0.13121 0.65647 0.69283 0.0
C543 C 0.11495 0.64095 0.72217 0.0
C544 C 0.0796 0.64217 0.71926 0.0
C545 C 0.06096 0.65739 0.68681 0.0
C546 C 0.15162 0.56581 0.78792 0.0
C547 C 0.16618 0.58145 0.81862 0.0
C548 C 0.13591 0.58522 0.75621 0.0
C549 C 0.13484 0.62058 0.75404 0.0
C550 C 0.15068 0.63617 0.78356 0.0
C551 C 0.16606 0.61677 0.81583 0.0
H552 H 0.71204 0.94889 0.24374 0.0
H553 H 0.70263 0.88758 0.34624 0.0
H554 H 0.69032 0.90864 0.20299 0.0
H555 H 0.68257 0.84592 0.30514 0.0
H556 H 0.58677 0.82968 0.23606 0.0
H557 H 0.62888 0.8492 0.27615 0.0
H558 H 0.69037 0.85607 0.17282 0.0
H559 H 0.64691 0.83816 0.13239 0.0
C560 C 0.70649 0.92608 0.25734 0.0
C561 C 0.70816 0.92175 0.2982 0.0
C562 C 0.69422 0.90273 0.23391 0.0
C563 C 0.68394 0.87426 0.25084 0.0
C564 C 0.68924 0.86809 0.29128 0.0
C565 C 0.70089 0.89183 0.31481 0.0
C566 C 0.60964 0.83464 0.22201 0.0
C567 C 0.6132 0.83325 0.18108 0.0
C568 C 0.63407 0.8456 0.24508 0.0
C569 C 0.66288 0.85485 0.2277 0.0
C570 C 0.66804 0.8501 0.18706 0.0
C571 C 0.64324 0.83972 0.1639 0.0
H572 H 0.99096 0.3504 0.69791 0.0
H573 H 0.90362 0.38639 0.62197 0.0
H574 H 0.95695 0.37557 0.75429 0.0
H575 H 0.86965 0.412 0.67865 0.0
H576 H 0.85269 0.4966 0.77983 0.0
H577 H 0.87635 0.46286 0.72254 0.0
H578 H 0.90364 0.37199 0.79508 0.0
H579 H 0.87981 0.40563 0.85247 0.0
C580 C 0.96434 0.36327 0.69334 0.0
C581 C 0.95004 0.36659 0.65545 0.0
C582 C 0.94481 0.37751 0.72569 0.0
C583 C 0.9107 0.39582 0.72081 0.0
C584 C 0.89595 0.39814 0.68316 0.0
C585 C 0.91534 0.38335 0.65081 0.0
C586 C 0.8632 0.4693 0.78345 0.0
C587 C 0.86451 0.45382 0.82073 0.0
C588 C 0.87654 0.44995 0.7506 0.0
C589 C 0.89193 0.41485 0.75442 0.0
C590 C 0.89205 0.39905 0.79137 0.0
C591 C 0.87822 0.41829 0.82416 0.0
H592 H 0.65539 0.13502 0.35464 0.0
H593 H 0.69052 0.04883 0.27709 0.0
H594 H 0.63005 0.17009 0.29856 0.0
H595 H 0.66546 0.08387 0.22135 0.0
H596 H 0.63259 0.16062 0.12388 0.0
H597 H 0.66766 0.13648 0.18033 0.0
H598 H 0.57905 0.1654 0.25592 0.0
H599 H 0.54397 0.18935 0.19974 0.0
C600 C 0.65832 0.12377 0.32559 0.0
C601 C 0.67466 0.08903 0.32037 0.0
C602 C 0.64369 0.14381 0.29355 0.0
C603 C 0.64565 0.12967 0.25562 0.0
C604 C 0.66377 0.09558 0.25015 0.0
C605 C 0.67793 0.07544 0.28217 0.0
C606 C 0.62074 0.1624 0.15265 0.0
C607 C 0.58538 0.17656 0.15724 0.0
C608 C 0.6408 0.14845 0.18491 0.0
C609 C 0.62605 0.14889 0.22248 0.0
C610 C 0.59122 0.16492 0.22741 0.0
C611 C 0.57107 0.17843 0.19514 0.0
H612 H 0.08597 0.32593 0.72963 0.0
H613 H 0.15015 0.33831 0.63076 0.0
H614 H 0.12548 0.3454 0.7735 0.0
H615 H 0.19126 0.35586 0.67501 0.0
H616 H 0.21039 0.44619 0.75089 0.0
H617 H 0.19008 0.40707 0.70735 0.0
H618 H 0.17668 0.34312 0.80657 0.0
H619 H 0.19514 0.38388 0.85048 0.0
C620 C 0.10923 0.33171 0.71745 0.0
C621 C 0.11466 0.33141 0.67678 0.0
C622 C 0.13219 0.34265 0.74271 0.0
C623 C 0.16143 0.3529 0.72785 0.0
C624 C 0.1685 0.34922 0.6874 0.0
C625 C 0.14509 0.33899 0.66204 0.0
C626 C 0.2038 0.4234 0.76333 0.0
C627 C 0.20355 0.41845 0.80408 0.0
C628 C 0.19236 0.40066 0.73826 0.0
C629 C 0.18104 0.37208 0.75338 0.0
C630 C 0.18416 0.36538 0.79397 0.0
C631 C 0.19492 0.38859 0.81914 0.0
H632 H 0.37396 0.90452 0.35319 0.0
H633 H 0.34773 0.99398 0.278 0.0
H634 H 0.39708 0.86942 0.29655 0.0
H635 H 0.37071 0.95886 0.22161 0.0
H636 H 0.40001 0.88338 0.12222 0.0
H637 H 0.36493 0.9088 0.17819 0.0
H638 H 0.45007 0.87027 0.25618 0.0
H639 H 0.48506 0.84515 0.2006 0.0
C640 C 0.3725 0.91658 0.32452 0.0
C641 C 0.35937 0.95215 0.32021 0.0
C642 C 0.38586 0.89648 0.29213 0.0
C643 C 0.38588 0.91143 0.25469 0.0
C644 C 0.37082 0.94653 0.25001 0.0
C645 C 0.35787 0.96671 0.28242 0.0
C646 C 0.41096 0.87973 0.15143 0.0
C647 C 0.44542 0.86255 0.15694 0.0
C648 C 0.39094 0.89443 0.1834 0.0
C649 C 0.40481 0.89168 0.22153 0.0
C650 C 0.43853 0.87261 0.22724 0.0
C651 C 0.45866 0.8584 0.19532 0.0
H652 H 0.89878 0.6636 0.62564 0.0
H653 H 0.92006 0.7406 0.70537 0.0
H654 H 0.86264 0.64511 0.67477 0.0
H655 H 0.88269 0.72282 0.75437 0.0
H656 H 0.87717 0.63426 0.84294 0.0
H657 H 0.89335 0.67223 0.7942 0.0
H658 H 0.81364 0.65299 0.7168 0.0
H659 H 0.79819 0.61383 0.76535 0.0
C660 C 0.89494 0.67727 0.65329 0.0
C661 C 0.91298 0.70294 0.66203 0.0
C662 C 0.87389 0.66686 0.68145 0.0
C663 C 0.8702 0.68211 0.71883 0.0
C664 C 0.88564 0.71004 0.72616 0.0
C665 C 0.90695 0.7203 0.69805 0.0
C666 C 0.86262 0.6386 0.81586 0.0
C667 C 0.83698 0.6204 0.80758 0.0
C668 C 0.87168 0.66072 0.78796 0.0
C669 C 0.85509 0.66533 0.7513 0.0
C670 C 0.82739 0.64943 0.74444 0.0
C671 C 0.81849 0.62706 0.77228 0.0
loop_
_geom_bond_atom_site_label_1
_geom_bond_atom_site_label_2
_geom_bond_distance
_geom_bond_site_symmetry_2
_ccdc_geom_bond_type
Co0 O3 1.943 1_545 S
Co0 N17 1.989 . S
Co0 O25 1.967 . S
Co0 O32 1.920 . S
Co1 O4 1.966 . S
Co1 N10 2.022 . S
Co1 N18 1.993 1_565 S
Co1 O26 1.941 . S
C2 O3 1.293 . S
C2 O4 1.263 . S
O3 Co0 1.943 1_565 S
O3 C2 1.293 . S
O4 Co1 1.966 . S
O4 C2 1.263 . S
C5 O6 1.235 . S
C5 O32 1.289 . S
O6 C5 1.235 . S
C7 C9 1.400 . S
C7 N10 1.351 . S
C7 C12 1.501 . S
C8 C9 1.387 . S
C8 N11 1.341 . S
C9 C7 1.400 . S
C9 C8 1.387 . S
N10 Co1 2.022 . S
N10 C7 1.351 . S
N10 N11 1.365 . S
N11 C8 1.341 . S
N11 N10 1.365 . S
N11 H31 0.862 . S
C12 C7 1.501 . S
C12 H13 0.961 . S
C12 H14 0.961 . S
C12 H15 0.960 . S
H13 C12 0.961 . S
H14 C12 0.961 . S
H15 C12 0.960 . S
C16 N17 1.342 . S
C16 C20 1.401 . S
C16 C21 1.499 . S
N17 Co0 1.989 . S
N17 C16 1.342 . S
N17 N18 1.388 . S
N18 Co1 1.993 1_545 S
N18 N17 1.388 . S
N18 C19 1.346 . S
C19 N18 1.346 . S
C19 C20 1.396 . S
C19 C29 1.510 . S
C20 C16 1.401 . S
C20 C19 1.396 . S
C21 C16 1.499 . S
C21 H22 0.959 . S
C21 H23 0.960 . S
C21 H24 0.961 . S
H22 C21 0.959 . S
H23 C21 0.960 . S
H24 C21 0.961 . S
O25 Co0 1.967 . S
O25 C33 1.239 1_545 S
O26 Co1 1.941 . S
O26 C33 1.289 . S
H27 C29 0.959 . S
H28 C29 0.961 . S
C29 C19 1.510 . S
C29 H27 0.959 . S
C29 H28 0.961 . S
C29 H30 0.960 1_545 S
H30 C29 0.960 1_565 S
H31 N11 0.862 . S
O32 Co0 1.920 . S
O32 C5 1.289 . S
C33 O25 1.239 1_565 S
C33 O26 1.289 . S
Co34 O37 1.970 1_655 S
Co34 N51 1.989 . S
Co34 O59 1.967 1_655 S
Co34 O66 1.920 . S
Co35 O38 1.966 . S
Co35 N44 2.022 . S
Co35 N52 1.993 . S
Co35 O60 1.941 . S
C36 O37 1.258 . S
C36 O38 1.263 . S
O37 Co34 1.970 1_455 S
O37 C36 1.258 . S
O38 Co35 1.966 . S
O38 C36 1.263 . S
C39 O40 1.235 . S
C39 O66 1.289 . S
O40 C39 1.235 . S
C41 C43 1.400 . S
C41 N44 1.351 . S
C41 C46 1.501 . S
C42 C43 1.387 . S
C42 N45 1.341 . S
C43 C41 1.400 . S
C43 C42 1.387 . S
N44 Co35 2.022 . S
N44 C41 1.351 . S
N44 N45 1.365 . S
N45 C42 1.341 . S
N45 N44 1.365 . S
N45 H65 0.862 . S
C46 C41 1.501 . S
C46 H47 0.961 . S
C46 H48 0.961 . S
C46 H49 0.960 . S
H47 C46 0.961 . S
H48 C46 0.961 . S
H49 C46 0.960 . S
C50 N51 1.342 . S
C50 C54 1.401 . S
C50 C55 1.499 . S
N51 Co34 1.989 . S
N51 C50 1.342 . S
N51 N52 1.388 1_655 S
N52 Co35 1.993 . S
N52 N51 1.388 1_455 S
N52 C53 1.346 1_455 S
C53 N52 1.346 1_655 S
C53 C54 1.396 . S
C53 C63 1.510 1_655 S
C54 C50 1.401 . S
C54 C53 1.396 . S
C55 C50 1.499 . S
C55 H56 0.959 . S
C55 H57 0.960 . S
C55 H58 0.961 . S
H56 C55 0.959 . S
H57 C55 0.960 . S
H58 C55 0.961 . S
O59 Co34 1.967 1_455 S
O59 C67 1.258 . S
O60 Co35 1.941 . S
O60 C67 1.266 . S
H61 C63 0.960 . S
H62 C63 0.961 . S
C63 C53 1.510 1_455 S
C63 H61 0.960 . S
C63 H62 0.961 . S
C63 H64 0.960 . S
H64 C63 0.960 . S
H65 N45 0.862 . S
O66 Co34 1.920 . S
O66 C39 1.289 . S
C67 O59 1.258 . S
C67 O60 1.266 . S
Co68 O71 1.970 1_565 S
Co68 N85 1.989 . S
Co68 O93 1.967 1_565 S
Co68 O100 1.920 . S
Co69 O72 1.966 . S
Co69 N78 2.022 . S
Co69 N86 1.993 . S
Co69 O94 1.941 . S
C70 O71 1.258 . S
C70 O72 1.263 . S
O71 Co68 1.970 1_545 S
O71 C70 1.258 . S
O72 Co69 1.966 . S
O72 C70 1.263 . S
C73 O74 1.235 . S
C73 O100 1.289 . S
O74 C73 1.235 . S
C75 C77 1.400 . S
C75 N78 1.351 . S
C75 C80 1.501 . S
C76 C77 1.387 . S
C76 N79 1.341 . S
C77 C75 1.400 . S
C77 C76 1.387 . S
N78 Co69 2.022 . S
N78 C75 1.351 . S
N78 N79 1.365 . S
N79 C76 1.341 . S
N79 N78 1.365 . S
N79 H99 0.862 . S
C80 C75 1.501 . S
C80 H81 0.961 . S
C80 H82 0.961 . S
C80 H83 0.960 . S
H81 C80 0.961 . S
H82 C80 0.961 . S
H83 C80 0.960 . S
C84 N85 1.342 . S
C84 C88 1.401 . S
C84 C89 1.499 . S
N85 Co68 1.989 . S
N85 C84 1.342 . S
N85 N86 1.388 1_565 S
N86 Co69 1.993 . S
N86 N85 1.388 1_545 S
N86 C87 1.346 1_545 S
C87 N86 1.346 1_565 S
C87 C88 1.396 . S
C87 C97 1.510 1_565 S
C88 C84 1.401 . S
C88 C87 1.396 . S
C89 C84 1.499 . S
C89 H90 0.959 . S
C89 H91 0.960 . S
C89 H92 0.961 . S
H90 C89 0.959 . S
H91 C89 0.960 . S
H92 C89 0.961 . S
O93 Co68 1.967 1_545 S
O93 C101 1.258 . S
O94 Co69 1.941 . S
O94 C101 1.266 . S
H95 C97 0.960 . S
H96 C97 0.961 . S
C97 C87 1.510 1_545 S
C97 H95 0.960 . S
C97 H96 0.961 . S
C97 H98 0.960 . S
H98 C97 0.960 . S
H99 N79 0.862 . S
O100 Co68 1.920 . S
O100 C73 1.289 . S
C101 O93 1.258 . S
C101 O94 1.266 . S
Co102 O105 1.943 1_455 S
Co102 N119 1.989 . S
Co102 O127 1.967 . S
Co102 O134 1.920 . S
Co103 O106 1.966 . S
Co103 N112 2.022 . S
Co103 N120 1.993 1_655 S
Co103 O128 1.941 . S
C104 O105 1.293 . S
C104 O106 1.263 . S
O105 Co102 1.943 1_655 S
O105 C104 1.293 . S
O106 Co103 1.966 . S
O106 C104 1.263 . S
C107 O108 1.235 . S
C107 O134 1.289 . S
O108 C107 1.235 . S
C109 C111 1.400 . S
C109 N112 1.351 . S
C109 C114 1.501 . S
C110 C111 1.387 . S
C110 N113 1.341 . S
C111 C109 1.400 . S
C111 C110 1.387 . S
N112 Co103 2.022 . S
N112 C109 1.351 . S
N112 N113 1.365 . S
N113 C110 1.341 . S
N113 N112 1.365 . S
N113 H133 0.862 . S
C114 C109 1.501 . S
C114 H115 0.961 . S
C114 H116 0.961 . S
C114 H117 0.960 . S
H115 C114 0.961 . S
H116 C114 0.961 . S
H117 C114 0.960 . S
C118 N119 1.342 . S
C118 C122 1.401 . S
C118 C123 1.499 . S
N119 Co102 1.989 . S
N119 C118 1.342 . S
N119 N120 1.388 . S
N120 Co103 1.993 1_455 S
N120 N119 1.388 . S
N120 C121 1.346 . S
C121 N120 1.346 . S
C121 C122 1.396 . S
C121 C131 1.510 . S
C122 C118 1.401 . S
C122 C121 1.396 . S
C123 C118 1.499 . S
C123 H124 0.959 . S
C123 H125 0.960 . S
C123 H126 0.961 . S
H124 C123 0.959 . S
H125 C123 0.960 . S
H126 C123 0.961 . S
O127 Co102 1.967 . S
O127 C135 1.239 1_455 S
O128 Co103 1.941 . S
O128 C135 1.289 . S
H129 C131 0.959 . S
H130 C131 0.961 . S
C131 C121 1.510 . S
C131 H129 0.959 . S
C131 H130 0.961 . S
C131 H132 0.960 1_455 S
H132 C131 0.960 1_655 S
H133 N113 0.862 . S
O134 Co102 1.920 . S
O134 C107 1.289 . S
C135 O127 1.239 1_655 S
C135 O128 1.289 . S
Co136 O139 1.970 . S
Co136 N153 1.989 . S
Co136 O161 1.967 . S
Co136 O168 1.920 . S
Co137 O140 1.966 . S
Co137 N146 2.022 . S
Co137 N154 1.993 . S
Co137 O162 1.941 . S
C138 O139 1.258 . S
C138 O140 1.263 . S
O139 Co136 1.970 . S
O139 C138 1.258 . S
O140 Co137 1.966 . S
O140 C138 1.263 . S
C141 O142 1.235 . S
C141 O168 1.289 . S
O142 C141 1.235 . S
C143 C145 1.400 1_556 S
C143 N146 1.351 . S
C143 C148 1.501 . S
C144 C145 1.387 . S
C144 N147 1.341 . S
C145 C143 1.400 1_554 S
C145 C144 1.387 . S
N146 Co137 2.022 . S
N146 C143 1.351 . S
N146 N147 1.365 1_556 S
N147 C144 1.341 . S
N147 N146 1.365 1_554 S
N147 H167 0.862 . S
C148 C143 1.501 . S
C148 H149 0.961 . S
C148 H150 0.961 . S
C148 H151 0.960 . S
H149 C148 0.961 . S
H150 C148 0.961 . S
H151 C148 0.960 . S
C152 N153 1.342 . S
C152 C156 1.401 . S
C152 C157 1.499 . S
N153 Co136 1.989 . S
N153 C152 1.342 . S
N153 N154 1.388 . S
N154 Co137 1.993 . S
N154 N153 1.388 . S
N154 C155 1.346 . S
C155 N154 1.346 . S
C155 C156 1.396 . S
C155 C165 1.510 . S
C156 C152 1.401 . S
C156 C155 1.396 . S
C157 C152 1.499 . S
C157 H158 0.959 . S
C157 H159 0.960 . S
C157 H160 0.961 . S
H158 C157 0.959 . S
H159 C157 0.960 . S
H160 C157 0.961 . S
O161 Co136 1.967 . S
O161 C169 1.258 . S
O162 Co137 1.941 . S
O162 C169 1.266 . S
H163 C165 0.959 1_554 S
H164 C165 0.961 . S
C165 C155 1.510 . S
C165 H163 0.959 1_556 S
C165 H164 0.961 . S
C165 H166 0.960 . S
H166 C165 0.960 . S
H167 N147 0.862 . S
O168 Co136 1.920 . S
O168 C141 1.289 . S
C169 O161 1.258 . S
C169 O162 1.266 . S
Co170 O173 1.970 . S
Co170 N187 1.989 . S
Co170 O195 1.967 . S
Co170 O202 1.920 . S
Co171 O174 1.966 . S
Co171 N180 2.022 . S
Co171 N188 1.993 . S
Co171 O196 1.941 . S
C172 O173 1.258 . S
C172 O174 1.263 . S
O173 Co170 1.970 . S
O173 C172 1.258 . S
O174 Co171 1.966 . S
O174 C172 1.263 . S
C175 O176 1.235 . S
C175 O202 1.289 . S
O176 C175 1.235 . S
C177 C179 1.400 1_554 S
C177 N180 1.351 . S
C177 C182 1.501 . S
C178 C179 1.387 . S
C178 N181 1.341 . S
C179 C177 1.400 1_556 S
C179 C178 1.387 . S
N180 Co171 2.022 . S
N180 C177 1.351 . S
N180 N181 1.365 1_554 S
N181 C178 1.341 . S
N181 N180 1.365 1_556 S
N181 H201 0.862 . S
C182 C177 1.501 . S
C182 H183 0.961 . S
C182 H184 0.961 . S
C182 H185 0.960 . S
H183 C182 0.961 . S
H184 C182 0.961 . S
H185 C182 0.960 . S
C186 N187 1.342 . S
C186 C190 1.401 . S
C186 C191 1.499 . S
N187 Co170 1.989 . S
N187 C186 1.342 . S
N187 N188 1.388 . S
N188 Co171 1.993 . S
N188 N187 1.388 . S
N188 C189 1.346 . S
C189 N188 1.346 . S
C189 C190 1.396 . S
C189 C199 1.510 . S
C190 C186 1.401 . S
C190 C189 1.396 . S
C191 C186 1.499 . S
C191 H192 0.959 . S
C191 H193 0.960 . S
C191 H194 0.961 . S
H192 C191 0.959 . S
H193 C191 0.960 . S
H194 C191 0.961 . S
O195 Co170 1.967 . S
O195 C203 1.258 . S
O196 Co171 1.941 . S
O196 C203 1.266 . S
H197 C199 0.959 1_556 S
H198 C199 0.961 . S
C199 C189 1.510 . S
C199 H197 0.959 1_554 S
C199 H198 0.961 . S
C199 H200 0.960 . S
H200 C199 0.960 . S
H201 N181 0.862 . S
O202 Co170 1.920 . S
O202 C175 1.289 . S
C203 O195 1.258 . S
C203 O196 1.266 . S
Co204 O207 1.970 . S
Co204 N221 1.989 . S
Co204 O229 1.967 . S
Co204 O236 1.920 . S
Co205 O208 1.966 . S
Co205 N214 2.022 . S
Co205 N222 1.993 . S
Co205 O230 1.941 . S
C206 O207 1.258 . S
C206 O208 1.263 . S
O207 Co204 1.970 . S
O207 C206 1.258 . S
O208 Co205 1.966 . S
O208 C206 1.263 . S
C209 O210 1.235 . S
C209 O236 1.289 . S
O210 C209 1.235 . S
C211 C213 1.400 1_556 S
C211 N214 1.351 . S
C211 C216 1.501 . S
C212 C213 1.387 . S
C212 N215 1.341 . S
C213 C211 1.400 1_554 S
C213 C212 1.387 . S
N214 Co205 2.022 . S
N214 C211 1.351 . S
N214 N215 1.365 1_556 S
N215 C212 1.341 . S
N215 N214 1.365 1_554 S
N215 H235 0.862 . S
C216 C211 1.501 . S
C216 H217 0.961 . S
C216 H218 0.961 . S
C216 H219 0.960 . S
H217 C216 0.961 . S
H218 C216 0.961 . S
H219 C216 0.960 . S
C220 N221 1.342 . S
C220 C224 1.401 . S
C220 C225 1.499 . S
N221 Co204 1.989 . S
N221 C220 1.342 . S
N221 N222 1.388 . S
N222 Co205 1.993 . S
N222 N221 1.388 . S
N222 C223 1.346 . S
C223 N222 1.346 . S
C223 C224 1.396 . S
C223 C233 1.510 . S
C224 C220 1.401 . S
C224 C223 1.396 . S
C225 C220 1.499 . S
C225 H226 0.959 . S
C225 H227 0.960 . S
C225 H228 0.961 . S
H226 C225 0.959 . S
H227 C225 0.960 . S
H228 C225 0.961 . S
O229 Co204 1.967 . S
O229 C237 1.258 . S
O230 Co205 1.941 . S
O230 C237 1.266 . S
H231 C233 0.959 1_554 S
H232 C233 0.961 . S
C233 C223 1.510 . S
C233 H231 0.959 1_556 S
C233 H232 0.961 . S
C233 H234 0.960 . S
H234 C233 0.960 . S
H235 N215 0.862 . S
O236 Co204 1.920 . S
O236 C209 1.289 . S
C237 O229 1.258 . S
C237 O230 1.266 . S
Co238 O241 1.970 . S
Co238 N255 1.989 . S
Co238 O263 1.967 . S
Co238 O270 1.920 . S
Co239 O242 1.966 . S
Co239 N248 2.022 . S
Co239 N256 1.993 . S
Co239 O264 1.941 . S
C240 O241 1.258 . S
C240 O242 1.263 . S
O241 Co238 1.970 . S
O241 C240 1.258 . S
O242 Co239 1.966 . S
O242 C240 1.263 . S
C243 O244 1.235 . S
C243 O270 1.289 . S
O244 C243 1.235 . S
C245 C247 1.400 1_554 S
C245 N248 1.351 . S
C245 C250 1.501 . S
C246 C247 1.387 . S
C246 N249 1.341 . S
C247 C245 1.400 1_556 S
C247 C246 1.387 . S
N248 Co239 2.022 . S
N248 C245 1.351 . S
N248 N249 1.365 1_554 S
N249 C246 1.341 . S
N249 N248 1.365 1_556 S
N249 H269 0.862 . S
C250 C245 1.501 . S
C250 H251 0.961 . S
C250 H252 0.961 . S
C250 H253 0.960 . S
H251 C250 0.961 . S
H252 C250 0.961 . S
H253 C250 0.960 . S
C254 N255 1.342 . S
C254 C258 1.401 . S
C254 C259 1.499 . S
N255 Co238 1.989 . S
N255 C254 1.342 . S
N255 N256 1.388 . S
N256 Co239 1.993 . S
N256 N255 1.388 . S
N256 C257 1.346 . S
C257 N256 1.346 . S
C257 C258 1.396 . S
C257 C267 1.510 . S
C258 C254 1.401 . S
C258 C257 1.396 . S
C259 C254 1.499 . S
C259 H260 0.959 . S
C259 H261 0.960 . S
C259 H262 0.961 . S
H260 C259 0.959 . S
H261 C259 0.960 . S
H262 C259 0.961 . S
O263 Co238 1.967 . S
O263 C271 1.258 . S
O264 Co239 1.941 . S
O264 C271 1.266 . S
H265 C267 0.959 1_556 S
H266 C267 0.961 . S
C267 C257 1.510 . S
C267 H265 0.959 1_554 S
C267 H266 0.961 . S
C267 H268 0.960 . S
H268 C267 0.960 . S
H269 N249 0.862 . S
O270 Co238 1.920 . S
O270 C243 1.289 . S
C271 O263 1.258 . S
C271 O264 1.266 . S
H272 C280 0.950 . S
H273 C285 0.950 . S
H274 C282 0.950 1_565 S
H275 C284 0.950 . S
H276 C286 0.950 . S
H277 C288 0.950 . S
H278 C290 0.950 . S
H279 C291 0.950 . S
C280 H272 0.950 . S
C280 C281 1.386 . S
C280 C282 1.391 . S
C281 C280 1.386 . S
C281 C285 1.393 . S
C282 H274 0.950 1_545 S
C282 C280 1.391 . S
C282 C283 1.400 . S
C283 C282 1.400 . S
C283 C284 1.398 . S
C283 C289 1.491 . S
C284 H275 0.950 . S
C284 C283 1.398 . S
C284 C285 1.391 . S
C285 H273 0.950 . S
C285 C281 1.393 . S
C285 C284 1.391 . S
C286 H276 0.950 . S
C286 C287 1.386 1_545 S
C286 C288 1.391 . S
C287 C286 1.386 1_565 S
C287 C291 1.393 . S
C288 H277 0.950 . S
C288 C286 1.391 . S
C288 C289 1.400 . S
C289 C283 1.491 . S
C289 C288 1.400 . S
C289 C290 1.398 1_545 S
C290 H278 0.950 . S
C290 C289 1.398 1_565 S
C290 C291 1.391 . S
C291 H279 0.950 . S
C291 C287 1.393 . S
C291 C290 1.391 . S
H292 C300 0.950 . S
H293 C305 0.945 1_655 S
H294 C302 0.950 . S
H295 C304 0.950 . S
H296 C306 0.950 . S
H297 C308 0.950 . S
H298 C310 0.950 . S
H299 C311 0.950 . S
C300 H292 0.950 . S
C300 C301 1.386 . S
C300 C302 1.391 . S
C301 C300 1.386 . S
C301 C305 1.400 . S
C302 H294 0.950 . S
C302 C300 1.391 . S
C302 C303 1.400 . S
C303 C302 1.400 . S
C303 C304 1.398 1_455 S
C303 C309 1.491 . S
C304 H295 0.950 . S
C304 C303 1.398 1_655 S
C304 C305 1.388 1_655 S
C305 H293 0.945 1_455 S
C305 C301 1.400 . S
C305 C304 1.388 1_455 S
C306 H296 0.950 . S
C306 C307 1.386 . S
C306 C308 1.391 . S
C307 C306 1.386 . S
C307 C311 1.393 1_655 S
C308 H297 0.950 . S
C308 C306 1.391 . S
C308 C309 1.400 1_655 S
C309 C303 1.491 . S
C309 C308 1.400 1_455 S
C309 C310 1.398 . S
C310 H298 0.950 . S
C310 C309 1.398 . S
C310 C311 1.391 . S
C311 H299 0.950 . S
C311 C307 1.393 1_455 S
C311 C310 1.391 . S
H312 C320 0.938 1_554 S
H313 C325 0.950 . S
H314 C322 0.950 1_554 S
H315 C324 0.950 1_455 S
H316 C326 0.950 . S
H317 C328 0.950 . S
H318 C330 0.950 1_554 S
H319 C331 0.950 1_554 S
C320 H312 0.938 1_556 S
C320 C321 1.397 . S
C320 C322 1.392 . S
C321 C320 1.397 . S
C321 C325 1.393 . S
C322 H314 0.950 1_556 S
C322 C320 1.392 . S
C322 C323 1.400 . S
C323 C322 1.400 . S
C323 C324 1.398 . S
C323 C329 1.491 1_655 S
C324 H315 0.950 1_655 S
C324 C323 1.398 . S
C324 C325 1.391 . S
C325 H313 0.950 . S
C325 C321 1.393 . S
C325 C324 1.391 . S
C326 H316 0.950 . S
C326 C327 1.386 . S
C326 C328 1.391 . S
C327 C326 1.386 . S
C327 C331 1.393 . S
C328 H317 0.950 . S
C328 C326 1.391 . S
C328 C329 1.400 . S
C329 C323 1.491 1_455 S
C329 C328 1.400 . S
C329 C330 1.398 . S
C330 H318 0.950 1_556 S
C330 C329 1.398 . S
C330 C331 1.391 . S
C331 H319 0.950 1_556 S
C331 C327 1.393 . S
C331 C330 1.391 . S
H332 C340 0.950 . S
H333 C345 0.950 . S
H334 C342 0.950 1_545 S
H335 C344 0.950 . S
H336 C346 0.950 . S
H337 C348 0.950 . S
H338 C350 0.950 . S
H339 C351 0.950 . S
C340 H332 0.950 . S
C340 C341 1.386 . S
C340 C342 1.391 . S
C341 C340 1.386 . S
C341 C345 1.393 1_554 S
C342 H334 0.950 1_565 S
C342 C340 1.391 . S
C342 C343 1.400 . S
C343 C342 1.400 . S
C343 C344 1.398 1_554 S
C343 C349 1.491 1_565 S
C344 H335 0.950 . S
C344 C343 1.398 1_556 S
C344 C345 1.391 . S
C345 H333 0.950 . S
C345 C341 1.393 1_556 S
C345 C344 1.391 . S
C346 H336 0.950 . S
C346 C347 1.386 1_556 S
C346 C348 1.391 . S
C347 C346 1.386 1_554 S
C347 C351 1.393 . S
C348 H337 0.950 . S
C348 C346 1.391 . S
C348 C349 1.400 1_556 S
C349 C343 1.491 1_545 S
C349 C348 1.400 1_554 S
C349 C350 1.398 . S
C350 H338 0.950 . S
C350 C349 1.398 . S
C350 C351 1.391 . S
C351 H339 0.950 . S
C351 C347 1.393 . S
C351 C350 1.391 . S
H352 C360 0.950 . S
H353 C365 0.950 . S
H354 C362 0.950 . S
H355 C364 0.950 . S
H356 C366 0.950 . S
H357 C368 0.950 . S
H358 C370 0.950 . S
H359 C371 0.950 . S
C360 H352 0.950 . S
C360 C361 1.386 . S
C360 C362 1.391 . S
C361 C360 1.386 . S
C361 C365 1.393 . S
C362 H354 0.950 . S
C362 C360 1.391 . S
C362 C363 1.400 . S
C363 C362 1.400 . S
C363 C364 1.398 . S
C363 C369 1.491 . S
C364 H355 0.950 . S
C364 C363 1.398 . S
C364 C365 1.391 . S
C365 H353 0.950 . S
C365 C361 1.393 . S
C365 C364 1.391 . S
C366 H356 0.950 . S
C366 C367 1.386 . S
C366 C368 1.391 . S
C367 C366 1.386 . S
C367 C371 1.393 . S
C368 H357 0.950 . S
C368 C366 1.391 . S
C368 C369 1.400 . S
C369 C363 1.491 . S
C369 C368 1.400 . S
C369 C370 1.398 . S
C370 H358 0.950 . S
C370 C369 1.398 . S
C370 C371 1.391 . S
C371 H359 0.950 . S
C371 C367 1.393 . S
C371 C370 1.391 . S
H372 C380 0.950 . S
H373 C385 0.950 . S
H374 C382 0.950 . S
H375 C384 0.950 . S
H376 C386 0.950 . S
H377 C388 0.950 . S
H378 C390 0.950 . S
H379 C391 0.950 . S
C380 H372 0.950 . S
C380 C381 1.386 . S
C380 C382 1.391 . S
C381 C380 1.386 . S
C381 C385 1.393 . S
C382 H374 0.950 . S
C382 C380 1.391 . S
C382 C383 1.400 . S
C383 C382 1.400 . S
C383 C384 1.398 . S
C383 C389 1.491 . S
C384 H375 0.950 . S
C384 C383 1.398 . S
C384 C385 1.391 . S
C385 H373 0.950 . S
C385 C381 1.393 . S
C385 C384 1.391 . S
C386 H376 0.950 . S
C386 C387 1.386 . S
C386 C388 1.391 . S
C387 C386 1.386 . S
C387 C391 1.393 . S
C388 H377 0.950 . S
C388 C386 1.391 . S
C388 C389 1.400 . S
C389 C383 1.491 . S
C389 C388 1.400 . S
C389 C390 1.398 . S
C390 H378 0.950 . S
C390 C389 1.398 . S
C390 C391 1.391 . S
C391 H379 0.950 . S
C391 C387 1.393 . S
C391 C390 1.391 . S
H392 C400 0.950 . S
H393 C405 0.950 . S
H394 C402 0.950 . S
H395 C404 0.950 . S
H396 C406 0.950 . S
H397 C408 0.950 . S
H398 C410 0.950 . S
H399 C411 0.950 . S
C400 H392 0.950 . S
C400 C401 1.386 . S
C400 C402 1.391 . S
C401 C400 1.386 . S
C401 C405 1.393 . S
C402 H394 0.950 . S
C402 C400 1.391 . S
C402 C403 1.400 . S
C403 C402 1.400 . S
C403 C404 1.398 . S
C403 C409 1.491 . S
C404 H395 0.950 . S
C404 C403 1.398 . S
C404 C405 1.391 . S
C405 H393 0.950 . S
C405 C401 1.393 . S
C405 C404 1.391 . S
C406 H396 0.950 . S
C406 C407 1.386 . S
C406 C408 1.391 . S
C407 C406 1.386 . S
C407 C411 1.393 . S
C408 H397 0.950 . S
C408 C406 1.391 . S
C408 C409 1.400 . S
C409 C403 1.491 . S
C409 C408 1.400 . S
C409 C410 1.398 . S
C410 H398 0.950 . S
C410 C409 1.398 . S
C410 C411 1.391 . S
C411 H399 0.950 . S
C411 C407 1.393 . S
C411 C410 1.391 . S
H412 C420 0.950 . S
H413 C425 0.950 . S
H414 C422 0.950 . S
H415 C424 0.950 . S
H416 C426 0.950 . S
H417 C428 0.950 . S
H418 C430 0.950 . S
H419 C431 0.950 . S
C420 H412 0.950 . S
C420 C421 1.386 . S
C420 C422 1.391 . S
C421 C420 1.386 . S
C421 C425 1.393 . S
C422 H414 0.950 . S
C422 C420 1.391 . S
C422 C423 1.400 . S
C423 C422 1.400 . S
C423 C424 1.398 . S
C423 C429 1.491 . S
C424 H415 0.950 . S
C424 C423 1.398 . S
C424 C425 1.391 . S
C425 H413 0.950 . S
C425 C421 1.393 . S
C425 C424 1.391 . S
C426 H416 0.950 . S
C426 C427 1.386 . S
C426 C428 1.391 . S
C427 C426 1.386 . S
C427 C431 1.393 . S
C428 H417 0.950 . S
C428 C426 1.391 . S
C428 C429 1.400 . S
C429 C423 1.491 . S
C429 C428 1.400 . S
C429 C430 1.398 . S
C430 H418 0.950 . S
C430 C429 1.398 . S
C430 C431 1.391 . S
C431 H419 0.950 . S
C431 C427 1.393 . S
C431 C430 1.391 . S
H432 C440 0.950 . S
H433 C445 0.950 . S
H434 C442 0.950 . S
H435 C444 0.948 1_556 S
H436 C446 0.950 . S
H437 C448 0.950 . S
H438 C450 0.948 1_554 S
H439 C451 0.950 . S
C440 H432 0.950 . S
C440 C441 1.386 . S
C440 C442 1.391 . S
C441 C440 1.386 . S
C441 C445 1.393 . S
C442 H434 0.950 . S
C442 C440 1.391 . S
C442 C443 1.400 . S
C443 C442 1.400 . S
C443 C444 1.399 . S
C443 C449 1.491 1_554 S
C444 H435 0.948 1_554 S
C444 C443 1.399 . S
C444 C445 1.392 . S
C445 H433 0.950 . S
C445 C441 1.393 . S
C445 C444 1.392 . S
C446 H436 0.950 . S
C446 C447 1.386 . S
C446 C448 1.391 . S
C447 C446 1.386 . S
C447 C451 1.393 . S
C448 H437 0.950 . S
C448 C446 1.391 . S
C448 C449 1.400 . S
C449 C443 1.491 1_556 S
C449 C448 1.400 . S
C449 C450 1.399 . S
C450 H438 0.948 1_556 S
C450 C449 1.399 . S
C450 C451 1.392 . S
C451 H439 0.950 . S
C451 C447 1.393 . S
C451 C450 1.392 . S
H452 C460 0.950 . S
H453 C465 0.950 . S
H454 C462 0.950 . S
H455 C464 0.950 . S
H456 C466 0.950 . S
H457 C468 0.950 . S
H458 C470 0.950 . S
H459 C471 0.950 . S
C460 H452 0.950 . S
C460 C461 1.386 . S
C460 C462 1.391 . S
C461 C460 1.386 . S
C461 C465 1.393 1_554 S
C462 H454 0.950 . S
C462 C460 1.391 . S
C462 C463 1.400 . S
C463 C462 1.400 . S
C463 C464 1.398 1_554 S
C463 C469 1.491 1_554 S
C464 H455 0.950 . S
C464 C463 1.398 1_556 S
C464 C465 1.391 . S
C465 H453 0.950 . S
C465 C461 1.393 1_556 S
C465 C464 1.391 . S
C466 H456 0.950 . S
C466 C467 1.386 . S
C466 C468 1.391 . S
C467 C466 1.386 . S
C467 C471 1.393 1_556 S
C468 H457 0.950 . S
C468 C466 1.391 . S
C468 C469 1.400 . S
C469 C463 1.491 1_556 S
C469 C468 1.400 . S
C469 C470 1.398 1_556 S
C470 H458 0.950 . S
C470 C469 1.398 1_554 S
C470 C471 1.391 . S
C471 H459 0.950 . S
C471 C467 1.393 1_554 S
C471 C470 1.391 . S
H472 C480 0.950 . S
H473 C485 0.950 . S
H474 C482 0.950 . S
H475 C484 0.950 . S
H476 C486 0.950 . S
H477 C488 0.950 . S
H478 C490 0.950 . S
H479 C491 0.950 . S
C480 H472 0.950 . S
C480 C481 1.386 . S
C480 C482 1.391 . S
C481 C480 1.386 . S
C481 C485 1.393 1_554 S
C482 H474 0.950 . S
C482 C480 1.391 . S
C482 C483 1.400 . S
C483 C482 1.400 . S
C483 C484 1.398 1_554 S
C483 C489 1.491 1_554 S
C484 H475 0.950 . S
C484 C483 1.398 1_556 S
C484 C485 1.391 . S
C485 H473 0.950 . S
C485 C481 1.393 1_556 S
C485 C484 1.391 . S
C486 H476 0.950 . S
C486 C487 1.386 . S
C486 C488 1.391 . S
C487 C486 1.386 . S
C487 C491 1.393 1_556 S
C488 H477 0.950 . S
C488 C486 1.391 . S
C488 C489 1.400 . S
C489 C483 1.491 1_556 S
C489 C488 1.400 . S
C489 C490 1.398 1_556 S
C490 H478 0.950 . S
C490 C489 1.398 1_554 S
C490 C491 1.391 . S
C491 H479 0.950 . S
C491 C487 1.393 1_554 S
C491 C490 1.391 . S
H492 C500 0.950 . S
H493 C505 0.950 1_556 S
H494 C502 0.950 . S
H495 C504 0.952 . S
H496 C506 0.950 . S
H497 C508 0.950 . S
H498 C510 0.952 . S
H499 C511 0.950 1_554 S
C500 H492 0.950 . S
C500 C501 1.386 . S
C500 C502 1.391 . S
C501 C500 1.386 . S
C501 C505 1.393 . S
C502 H494 0.950 . S
C502 C500 1.391 . S
C502 C503 1.400 . S
C503 C502 1.400 . S
C503 C504 1.397 1_554 S
C503 C509 1.491 1_554 S
C504 H495 0.952 . S
C504 C503 1.397 1_556 S
C504 C505 1.390 1_556 S
C505 H493 0.950 1_554 S
C505 C501 1.393 . S
C505 C504 1.390 1_554 S
C506 H496 0.950 . S
C506 C507 1.386 . S
C506 C508 1.391 . S
C507 C506 1.386 . S
C507 C511 1.393 . S
C508 H497 0.950 . S
C508 C506 1.391 . S
C508 C509 1.400 . S
C509 C503 1.491 1_556 S
C509 C508 1.400 . S
C509 C510 1.397 1_556 S
C510 H498 0.952 . S
C510 C509 1.397 1_554 S
C510 C511 1.390 1_554 S
C511 H499 0.950 1_556 S
C511 C507 1.393 . S
C511 C510 1.390 1_556 S
H512 C520 0.950 . S
H513 C525 0.950 . S
H514 C522 0.950 . S
H515 C524 0.950 . S
H516 C526 0.950 . S
H517 C528 0.950 . S
H518 C530 0.950 . S
H519 C531 0.950 . S
C520 H512 0.950 . S
C520 C521 1.386 . S
C520 C522 1.391 . S
C521 C520 1.386 . S
C521 C525 1.393 . S
C522 H514 0.950 . S
C522 C520 1.391 . S
C522 C523 1.400 . S
C523 C522 1.400 . S
C523 C524 1.398 . S
C523 C529 1.491 . S
C524 H515 0.950 . S
C524 C523 1.398 . S
C524 C525 1.391 . S
C525 H513 0.950 . S
C525 C521 1.393 . S
C525 C524 1.391 . S
C526 H516 0.950 . S
C526 C527 1.386 . S
C526 C528 1.391 . S
C527 C526 1.386 . S
C527 C531 1.393 . S
C528 H517 0.950 . S
C528 C526 1.391 . S
C528 C529 1.400 . S
C529 C523 1.491 . S
C529 C528 1.400 . S
C529 C530 1.398 . S
C530 H518 0.950 . S
C530 C529 1.398 . S
C530 C531 1.391 . S
C531 H519 0.950 . S
C531 C527 1.393 . S
C531 C530 1.391 . S
H532 C540 0.950 . S
H533 C545 0.950 . S
H534 C542 0.950 . S
H535 C544 0.950 . S
H536 C546 0.950 . S
H537 C548 0.950 . S
H538 C550 0.950 . S
H539 C551 0.950 . S
C540 H532 0.950 . S
C540 C541 1.386 . S
C540 C542 1.391 . S
C541 C540 1.386 . S
C541 C545 1.393 . S
C542 H534 0.950 . S
C542 C540 1.391 . S
C542 C543 1.400 . S
C543 C542 1.400 . S
C543 C544 1.398 . S
C543 C549 1.491 . S
C544 H535 0.950 . S
C544 C543 1.398 . S
C544 C545 1.391 . S
C545 H533 0.950 . S
C545 C541 1.393 . S
C545 C544 1.391 . S
C546 H536 0.950 . S
C546 C547 1.386 . S
C546 C548 1.391 . S
C547 C546 1.386 . S
C547 C551 1.393 . S
C548 H537 0.950 . S
C548 C546 1.391 . S
C548 C549 1.400 . S
C549 C543 1.491 . S
C549 C548 1.400 . S
C549 C550 1.398 . S
C550 H538 0.950 . S
C550 C549 1.398 . S
C550 C551 1.391 . S
C551 H539 0.950 . S
C551 C547 1.393 . S
C551 C550 1.391 . S
H552 C560 0.950 . S
H553 C565 0.950 . S
H554 C562 0.950 . S
H555 C564 0.950 . S
H556 C566 0.950 . S
H557 C568 0.950 . S
H558 C570 0.950 . S
H559 C571 0.950 . S
C560 H552 0.950 . S
C560 C561 1.386 . S
C560 C562 1.391 . S
C561 C560 1.386 . S
C561 C565 1.393 . S
C562 H554 0.950 . S
C562 C560 1.391 . S
C562 C563 1.400 . S
C563 C562 1.400 . S
C563 C564 1.398 . S
C563 C569 1.491 . S
C564 H555 0.950 . S
C564 C563 1.398 . S
C564 C565 1.391 . S
C565 H553 0.950 . S
C565 C561 1.393 . S
C565 C564 1.391 . S
C566 H556 0.950 . S
C566 C567 1.386 . S
C566 C568 1.391 . S
C567 C566 1.386 . S
C567 C571 1.393 . S
C568 H557 0.950 . S
C568 C566 1.391 . S
C568 C569 1.400 . S
C569 C563 1.491 . S
C569 C568 1.400 . S
C569 C570 1.398 . S
C570 H558 0.950 . S
C570 C569 1.398 . S
C570 C571 1.391 . S
C571 H559 0.950 . S
C571 C567 1.393 . S
C571 C570 1.391 . S
H572 C580 0.950 . S
H573 C585 0.950 . S
H574 C582 0.950 . S
H575 C584 0.950 . S
H576 C586 0.950 . S
H577 C588 0.950 . S
H578 C590 0.950 . S
H579 C591 0.950 . S
C580 H572 0.950 . S
C580 C581 1.386 . S
C580 C582 1.391 . S
C581 C580 1.386 . S
C581 C585 1.393 . S
C582 H574 0.950 . S
C582 C580 1.391 . S
C582 C583 1.400 . S
C583 C582 1.400 . S
C583 C584 1.398 . S
C583 C589 1.491 . S
C584 H575 0.950 . S
C584 C583 1.398 . S
C584 C585 1.391 . S
C585 H573 0.950 . S
C585 C581 1.393 . S
C585 C584 1.391 . S
C586 H576 0.950 . S
C586 C587 1.386 . S
C586 C588 1.391 . S
C587 C586 1.386 . S
C587 C591 1.393 . S
C588 H577 0.950 . S
C588 C586 1.391 . S
C588 C589 1.400 . S
C589 C583 1.491 . S
C589 C588 1.400 . S
C589 C590 1.398 . S
C590 H578 0.950 . S
C590 C589 1.398 . S
C590 C591 1.391 . S
C591 H579 0.950 . S
C591 C587 1.393 . S
C591 C590 1.391 . S
H592 C600 0.950 . S
H593 C605 0.950 . S
H594 C602 0.950 . S
H595 C604 0.950 . S
H596 C606 0.950 . S
H597 C608 0.950 . S
H598 C610 0.950 . S
H599 C611 0.950 . S
C600 H592 0.950 . S
C600 C601 1.386 . S
C600 C602 1.391 . S
C601 C600 1.386 . S
C601 C605 1.393 . S
C602 H594 0.950 . S
C602 C600 1.391 . S
C602 C603 1.400 . S
C603 C602 1.400 . S
C603 C604 1.398 . S
C603 C609 1.491 . S
C604 H595 0.950 . S
C604 C603 1.398 . S
C604 C605 1.391 . S
C605 H593 0.950 . S
C605 C601 1.393 . S
C605 C604 1.391 . S
C606 H596 0.950 . S
C606 C607 1.386 . S
C606 C608 1.391 . S
C607 C606 1.386 . S
C607 C611 1.393 . S
C608 H597 0.950 . S
C608 C606 1.391 . S
C608 C609 1.400 . S
C609 C603 1.491 . S
C609 C608 1.400 . S
C609 C610 1.398 . S
C610 H598 0.950 . S
C610 C609 1.398 . S
C610 C611 1.391 . S
C611 H599 0.950 . S
C611 C607 1.393 . S
C611 C610 1.391 . S
H612 C620 0.950 . S
H613 C625 0.950 . S
H614 C622 0.950 . S
H615 C624 0.950 . S
H616 C626 0.950 . S
H617 C628 0.950 . S
H618 C630 0.950 . S
H619 C631 0.950 . S
C620 H612 0.950 . S
C620 C621 1.386 . S
C620 C622 1.391 . S
C621 C620 1.386 . S
C621 C625 1.393 . S
C622 H614 0.950 . S
C622 C620 1.391 . S
C622 C623 1.400 . S
C623 C622 1.400 . S
C623 C624 1.398 . S
C623 C629 1.491 . S
C624 H615 0.950 . S
C624 C623 1.398 . S
C624 C625 1.391 . S
C625 H613 0.950 . S
C625 C621 1.393 . S
C625 C624 1.391 . S
C626 H616 0.950 . S
C626 C627 1.386 . S
C626 C628 1.391 . S
C627 C626 1.386 . S
C627 C631 1.393 . S
C628 H617 0.950 . S
C628 C626 1.391 . S
C628 C629 1.400 . S
C629 C623 1.491 . S
C629 C628 1.400 . S
C629 C630 1.398 . S
C630 H618 0.950 . S
C630 C629 1.398 . S
C630 C631 1.391 . S
C631 H619 0.950 . S
C631 C627 1.393 . S
C631 C630 1.391 . S
H632 C640 0.950 . S
H633 C645 0.950 . S
H634 C642 0.950 . S
H635 C644 0.950 . S
H636 C646 0.950 . S
H637 C648 0.950 . S
H638 C650 0.950 . S
H639 C651 0.950 . S
C640 H632 0.950 . S
C640 C641 1.386 . S
C640 C642 1.391 . S
C641 C640 1.386 . S
C641 C645 1.393 . S
C642 H634 0.950 . S
C642 C640 1.391 . S
C642 C643 1.400 . S
C643 C642 1.400 . S
C643 C644 1.398 . S
C643 C649 1.491 . S
C644 H635 0.950 . S
C644 C643 1.398 . S
C644 C645 1.391 . S
C645 H633 0.950 . S
C645 C641 1.393 . S
C645 C644 1.391 . S
C646 H636 0.950 . S
C646 C647 1.386 . S
C646 C648 1.391 . S
C647 C646 1.386 . S
C647 C651 1.393 . S
C648 H637 0.950 . S
C648 C646 1.391 . S
C648 C649 1.400 . S
C649 C643 1.491 . S
C649 C648 1.400 . S
C649 C650 1.398 . S
C650 H638 0.950 . S
C650 C649 1.398 . S
C650 C651 1.391 . S
C651 H639 0.950 . S
C651 C647 1.393 . S
C651 C650 1.391 . S
H652 C660 0.950 . S
H653 C665 0.950 . S
H654 C662 0.950 . S
H655 C664 0.950 . S
H656 C666 0.950 . S
H657 C668 0.950 . S
H658 C670 0.950 . S
H659 C671 0.950 . S
C660 H652 0.950 . S
C660 C661 1.386 . S
C660 C662 1.391 . S
C661 C660 1.386 . S
C661 C665 1.393 . S
C662 H654 0.950 . S
C662 C660 1.391 . S
C662 C663 1.400 . S
C663 C662 1.400 . S
C663 C664 1.398 . S
C663 C669 1.491 . S
C664 H655 0.950 . S
C664 C663 1.398 . S
C664 C665 1.391 . S
C665 H653 0.950 . S
C665 C661 1.393 . S
C665 C664 1.391 . S
C666 H656 0.950 . S
C666 C667 1.386 . S
C666 C668 1.391 . S
C667 C666 1.386 . S
C667 C671 1.393 . S
C668 H657 0.950 . S
C668 C666 1.391 . S
C668 C669 1.400 . S
C669 C663 1.491 . S
C669 C668 1.400 . S
C669 C670 1.398 . S
C670 H658 0.950 . S
C670 C669 1.398 . S
C670 C671 1.391 . S
C671 H659 0.950 . S
C671 C667 1.393 . S
C671 C670 1.391 . S
C281 C101 1.056 . S
C287 C33 1.034 . S
C301 C67 1.026 . S
C307 C135 1.052 . S
C321 C169 1.059 . S
C327 C237 1.032 . S
C341 C271 1.026 . S
C347 C203 1.041 . S
C361 C122 1.549 . S
C367 C20 1.550 . S
C381 C9 1.752 . S
C387 C43 1.753 . S
C401 C88 1.551 . S
C407 C54 1.553 . S
C421 C77 1.753 . S
C427 C111 1.752 . S
C441 C258 1.547 . S
C447 C156 1.547 . S
C461 C145 1.753 . S
C467 C179 1.751 . S
C481 C190 1.552 . S
C487 C224 1.550 . S
C501 C213 1.752 . S
C507 C247 1.751 . S
C521 C5 0.497 . S
C527 C175 0.500 . S
C541 C36 1.312 . S
C547 C206 1.304 . S
C561 C73 0.555 . S
C567 C243 0.534 . S
C581 C104 1.302 . S
C587 C138 1.321 . S
C601 C70 1.324 . S
C607 C172 1.305 . S
C621 C107 0.552 . S
C627 C209 0.530 . S
C641 C2 1.323 . S
C647 C240 1.303 . S
C661 C39 0.503 . S
C667 C141 0.520 . S
