# Generated by pormake.
# Topology umn, (4)-cn, num edge types: 1
# Building blocks:
#     Node 0, Type 0, BuildingBlock: NAHDIM_clean_sbu_0, # of connection points: 4
#     Node 1, Type 0, BuildingBlock: NAHDIM_clean_sbu_0, # of connection points: 4
#     Node 2, Type 0, BuildingBlock: NAHDIM_clean_sbu_0, # of connection points: 4
#     Node 3, Type 0, BuildingBlock: NAHDIM_clean_sbu_0, # of connection points: 4
#     Node 4, Type 0, BuildingBlock: NAHDIM_clean_sbu_0, # of connection points: 4
#     Node 5, Type 0, BuildingBlock: NAHDIM_clean_sbu_0, # of connection points: 4
#     Node 6, Type 0, BuildingBlock: NAHDIM_clean_sbu_0, # of connection points: 4
#     Node 7, Type 0, BuildingBlock: NAHDIM_clean_sbu_0, # of connection points: 4
#     Node 8, Type 0, BuildingBlock: NAHDIM_clean_sbu_0, # of connection points: 4
#     Node 9, Type 0, BuildingBlock: NAHDIM_clean_sbu_0, # of connection points: 4
#     Node 10, Type 0, BuildingBlock: NAHDIM_clean_sbu_0, # of connection points: 4
#     Node 11, Type 0, BuildingBlock: NAHDIM_clean_sbu_0, # of connection points: 4
#     Node 12, Type 0, BuildingBlock: NAHDIM_clean_sbu_0, # of connection points: 4
#     Node 13, Type 0, BuildingBlock: NAHDIM_clean_sbu_0, # of connection points: 4
#     Node 14, Type 0, BuildingBlock: NAHDIM_clean_sbu_0, # of connection points: 4
#     Node 15, Type 0, BuildingBlock: NAHDIM_clean_sbu_0, # of connection points: 4
#     Node 16, Type 0, BuildingBlock: NAHDIM_clean_sbu_0, # of connection points: 4
#     Node 17, Type 0, BuildingBlock: NAHDIM_clean_sbu_0, # of connection points: 4
#     Node 18, Type 0, BuildingBlock: NAHDIM_clean_sbu_0, # of connection points: 4
#     Node 19, Type 0, BuildingBlock: NAHDIM_clean_sbu_0, # of connection points: 4
#     Node 20, Type 0, BuildingBlock: NAHDIM_clean_sbu_0, # of connection points: 4
#     Node 21, Type 0, BuildingBlock: NAHDIM_clean_sbu_0, # of connection points: 4
#     Node 22, Type 0, BuildingBlock: NAHDIM_clean_sbu_0, # of connection points: 4
#     Node 23, Type 0, BuildingBlock: NAHDIM_clean_sbu_0, # of connection points: 4
#     Node 24, Type 0, BuildingBlock: NAHDIM_clean_sbu_0, # of connection points: 4
#     Node 25, Type 0, BuildingBlock: NAHDIM_clean_sbu_0, # of connection points: 4
#     Node 26, Type 0, BuildingBlock: NAHDIM_clean_sbu_0, # of connection points: 4
#     Node 27, Type 0, BuildingBlock: NAHDIM_clean_sbu_0, # of connection points: 4
#     Node 28, Type 0, BuildingBlock: NAHDIM_clean_sbu_0, # of connection points: 4
#     Node 29, Type 0, BuildingBlock: NAHDIM_clean_sbu_0, # of connection points: 4
#     Node 30, Type 0, BuildingBlock: NAHDIM_clean_sbu_0, # of connection points: 4
#     Node 31, Type 0, BuildingBlock: NAHDIM_clean_sbu_0, # of connection points: 4
#     Node 32, Type 0, BuildingBlock: NAHDIM_clean_sbu_0, # of connection points: 4
#     Node 33, Type 0, BuildingBlock: NAHDIM_clean_sbu_0, # of connection points: 4
#     Node 34, Type 0, BuildingBlock: NAHDIM_clean_sbu_0, # of connection points: 4
#     Node 35, Type 0, BuildingBlock: NAHDIM_clean_sbu_0, # of connection points: 4
#     Edge 36, Type (0, 0), BuildingBlock: OJICUG_clean_linker_0, # of connection points: 2
#     Edge 37, Type (0, 0), BuildingBlock: OJICUG_clean_linker_0, # of connection points: 2
#     Edge 38, Type (0, 0), BuildingBlock: OJICUG_clean_linker_0, # of connection points: 2
#     Edge 39, Type (0, 0), BuildingBlock: OJICUG_clean_linker_0, # of connection points: 2
#     Edge 40, Type (0, 0), BuildingBlock: OJICUG_clean_linker_0, # of connection points: 2
#     Edge 41, Type (0, 0), BuildingBlock: OJICUG_clean_linker_0, # of connection points: 2
#     Edge 42, Type (0, 0), BuildingBlock: OJICUG_clean_linker_0, # of connection points: 2
#     Edge 43, Type (0, 0), BuildingBlock: OJICUG_clean_linker_0, # of connection points: 2
#     Edge 44, Type (0, 0), BuildingBlock: OJICUG_clean_linker_0, # of connection points: 2
#     Edge 45, Type (0, 0), BuildingBlock: OJICUG_clean_linker_0, # of connection points: 2
#     Edge 46, Type (0, 0), BuildingBlock: OJICUG_clean_linker_0, # of connection points: 2
#     Edge 47, Type (0, 0), BuildingBlock: OJICUG_clean_linker_0, # of connection points: 2
#     Edge 48, Type (0, 0), BuildingBlock: OJICUG_clean_linker_0, # of connection points: 2
#     Edge 49, Type (0, 0), BuildingBlock: OJICUG_clean_linker_0, # of connection points: 2
#     Edge 50, Type (0, 0), BuildingBlock: OJICUG_clean_linker_0, # of connection points: 2
#     Edge 51, Type (0, 0), BuildingBlock: OJICUG_clean_linker_0, # of connection points: 2
#     Edge 52, Type (0, 0), BuildingBlock: OJICUG_clean_linker_0, # of connection points: 2
#     Edge 53, Type (0, 0), BuildingBlock: OJICUG_clean_linker_0, # of connection points: 2
#     Edge 54, Type (0, 0), BuildingBlock: OJICUG_clean_linker_0, # of connection points: 2
#     Edge 55, Type (0, 0), BuildingBlock: OJICUG_clean_linker_0, # of connection points: 2
#     Edge 56, Type (0, 0), BuildingBlock: OJICUG_clean_linker_0, # of connection points: 2
#     Edge 57, Type (0, 0), BuildingBlock: OJICUG_clean_linker_0, # of connection points: 2
#     Edge 58, Type (0, 0), BuildingBlock: OJICUG_clean_linker_0, # of connection points: 2
#     Edge 59, Type (0, 0), BuildingBlock: OJICUG_clean_linker_0, # of connection points: 2
#     Edge 60, Type (0, 0), BuildingBlock: OJICUG_clean_linker_0, # of connection points: 2
#     Edge 61, Type (0, 0), BuildingBlock: OJICUG_clean_linker_0, # of connection points: 2
#     Edge 62, Type (0, 0), BuildingBlock: OJICUG_clean_linker_0, # of connection points: 2
#     Edge 63, Type (0, 0), BuildingBlock: OJICUG_clean_linker_0, # of connection points: 2
#     Edge 64, Type (0, 0), BuildingBlock: OJICUG_clean_linker_0, # of connection points: 2
#     Edge 65, Type (0, 0), BuildingBlock: OJICUG_clean_linker_0, # of connection points: 2
#     Edge 66, Type (0, 0), BuildingBlock: OJICUG_clean_linker_0, # of connection points: 2
#     Edge 67, Type (0, 0), BuildingBlock: OJICUG_clean_linker_0, # of connection points: 2
#     Edge 68, Type (0, 0), BuildingBlock: OJICUG_clean_linker_0, # of connection points: 2
#     Edge 69, Type (0, 0), BuildingBlock: OJICUG_clean_linker_0, # of connection points: 2
#     Edge 70, Type (0, 0), BuildingBlock: OJICUG_clean_linker_0, # of connection points: 2
#     Edge 71, Type (0, 0), BuildingBlock: OJICUG_clean_linker_0, # of connection points: 2
#     Edge 72, Type (0, 0), BuildingBlock: OJICUG_clean_linker_0, # of connection points: 2
#     Edge 73, Type (0, 0), BuildingBlock: OJICUG_clean_linker_0, # of connection points: 2
#     Edge 74, Type (0, 0), BuildingBlock: OJICUG_clean_linker_0, # of connection points: 2
#     Edge 75, Type (0, 0), BuildingBlock: OJICUG_clean_linker_0, # of connection points: 2
#     Edge 76, Type (0, 0), BuildingBlock: OJICUG_clean_linker_0, # of connection points: 2
#     Edge 77, Type (0, 0), BuildingBlock: OJICUG_clean_linker_0, # of connection points: 2
#     Edge 78, Type (0, 0), BuildingBlock: OJICUG_clean_linker_0, # of connection points: 2
#     Edge 79, Type (0, 0), BuildingBlock: OJICUG_clean_linker_0, # of connection points: 2
#     Edge 80, Type (0, 0), BuildingBlock: OJICUG_clean_linker_0, # of connection points: 2
#     Edge 81, Type (0, 0), BuildingBlock: OJICUG_clean_linker_0, # of connection points: 2
#     Edge 82, Type (0, 0), BuildingBlock: OJICUG_clean_linker_0, # of connection points: 2
#     Edge 83, Type (0, 0), BuildingBlock: OJICUG_clean_linker_0, # of connection points: 2
#     Edge 84, Type (0, 0), BuildingBlock: OJICUG_clean_linker_0, # of connection points: 2
#     Edge 85, Type (0, 0), BuildingBlock: OJICUG_clean_linker_0, # of connection points: 2
#     Edge 86, Type (0, 0), BuildingBlock: OJICUG_clean_linker_0, # of connection points: 2
#     Edge 87, Type (0, 0), BuildingBlock: OJICUG_clean_linker_0, # of connection points: 2
#     Edge 88, Type (0, 0), BuildingBlock: OJICUG_clean_linker_0, # of connection points: 2
#     Edge 89, Type (0, 0), BuildingBlock: OJICUG_clean_linker_0, # of connection points: 2
#     Edge 90, Type (0, 0), BuildingBlock: OJICUG_clean_linker_0, # of connection points: 2
#     Edge 91, Type (0, 0), BuildingBlock: OJICUG_clean_linker_0, # of connection points: 2
#     Edge 92, Type (0, 0), BuildingBlock: OJICUG_clean_linker_0, # of connection points: 2
#     Edge 93, Type (0, 0), BuildingBlock: OJICUG_clean_linker_0, # of connection points: 2
#     Edge 94, Type (0, 0), BuildingBlock: OJICUG_clean_linker_0, # of connection points: 2
#     Edge 95, Type (0, 0), BuildingBlock: OJICUG_clean_linker_0, # of connection points: 2
#     Edge 96, Type (0, 0), BuildingBlock: OJICUG_clean_linker_0, # of connection points: 2
#     Edge 97, Type (0, 0), BuildingBlock: OJICUG_clean_linker_0, # of connection points: 2
#     Edge 98, Type (0, 0), BuildingBlock: OJICUG_clean_linker_0, # of connection points: 2
#     Edge 99, Type (0, 0), BuildingBlock: OJICUG_clean_linker_0, # of connection points: 2
#     Edge 100, Type (0, 0), BuildingBlock: OJICUG_clean_linker_0, # of connection points: 2
#     Edge 101, Type (0, 0), BuildingBlock: OJICUG_clean_linker_0, # of connection points: 2
#     Edge 102, Type (0, 0), BuildingBlock: OJICUG_clean_linker_0, # of connection points: 2
#     Edge 103, Type (0, 0), BuildingBlock: OJICUG_clean_linker_0, # of connection points: 2
#     Edge 104, Type (0, 0), BuildingBlock: OJICUG_clean_linker_0, # of connection points: 2
#     Edge 105, Type (0, 0), BuildingBlock: OJICUG_clean_linker_0, # of connection points: 2
#     Edge 106, Type (0, 0), BuildingBlock: OJICUG_clean_linker_0, # of connection points: 2
#     Edge 107, Type (0, 0), BuildingBlock: OJICUG_clean_linker_0, # of connection points: 2
# Relax obj value: 0.319
# Max RMSD: 0.323
# Mean RMSD: 0.323
data_MOF--net-umn--node1-NAHDIM_clean_sbu_0--edge1-OJICUG_clean_linker_0
_symmetry_space_group_name_H-M    P1
_symmetry_Int_Tables_number       1
_symmetry_cell_setting            triclinic
loop_
_symmetry_equiv_pos_as_xyz
'x, y, z'
_cell_length_a     62.11179
_cell_length_b     62.100512
_cell_length_c     25.192163
_cell_angle_alpha  89.987903
_cell_angle_beta   90.003584
_cell_angle_gamma 119.99375
loop_
_atom_site_label
_atom_site_type_symbol
_atom_site_fract_x
_atom_site_fract_y
_atom_site_fract_z
_atom_type_partial_charge
C0 C 0.32331 0.12708 0.18835 0.0
O1 O 0.30595 0.1039 0.18012 0.0
O2 O 0.35923 0.08919 0.1651 0.0
Zn3 Zn 0.34939 0.10335 0.2268 0.0
O4 O 0.372 0.11347 0.29009 0.0
C5 C 0.30885 0.07407 0.30013 0.0
O6 O 0.32219 0.09142 0.33491 0.0
O7 O 0.34437 0.13162 0.20581 0.0
C8 C 0.37449 0.09707 0.31505 0.0
O9 O 0.3661 0.07507 0.29334 0.0
C10 C 0.38021 0.09117 0.15509 0.0
O11 O 0.39926 0.10496 0.18597 0.0
O12 O 0.31668 0.07577 0.25282 0.0
C13 C 0.88105 0.21044 0.19161 0.0
O14 O 0.87896 0.22586 0.22407 0.0
O15 O 0.91977 0.27894 0.14338 0.0
Zn16 Zn 0.92667 0.25352 0.17892 0.0
O17 O 0.92848 0.25548 0.25889 0.0
C18 C 0.97059 0.27224 0.11398 0.0
O19 O 0.9577 0.27767 0.08078 0.0
O20 O 0.90045 0.2185 0.16315 0.0
C21 C 0.94845 0.26782 0.28528 0.0
O22 O 0.9691 0.28331 0.26053 0.0
C23 C 0.90741 0.2734 0.10026 0.0
O24 O 0.89709 0.25043 0.08279 0.0
O25 O 0.96017 0.25993 0.15563 0.0
C26 C 0.78454 0.67766 0.13407 0.0
O27 O 0.766 0.66695 0.10031 0.0
O28 O 0.72409 0.63062 0.16447 0.0
Zn29 Zn 0.74462 0.66246 0.20672 0.0
O30 O 0.743 0.65899 0.28707 0.0
C31 C 0.73631 0.70365 0.21886 0.0
O32 O 0.75426 0.71107 0.25404 0.0
O33 O 0.77992 0.67834 0.18294 0.0
C34 C 0.72469 0.65826 0.31141 0.0
O35 O 0.70572 0.65589 0.28365 0.0
C36 C 0.70129 0.62299 0.1547 0.0
O37 O 0.69051 0.63409 0.17788 0.0
O38 O 0.73125 0.68493 0.19002 0.0
C39 C 0.15017 0.39228 0.23806 0.0
O40 O 0.15078 0.41278 0.25358 0.0
O41 O 0.10006 0.40428 0.2289 0.0
Zn42 Zn 0.11207 0.38984 0.17173 0.0
O43 O 0.13091 0.41428 0.11287 0.0
C44 C 0.0737 0.3382 0.15109 0.0
O45 O 0.08731 0.33175 0.17947 0.0
O46 O 0.13449 0.37878 0.20308 0.0
C47 C 0.13322 0.40782 0.06617 0.0
O48 O 0.14616 0.42497 0.0307 0.0
C49 C 0.08777 0.38958 0.26662 0.0
O50 O 0.08532 0.36731 0.26753 0.0
O51 O 0.08119 0.36105 0.14309 0.0
C52 C 0.61953 0.76525 0.30155 0.0
O53 O 0.6225 0.76138 0.2515 0.0
O54 O 0.59531 0.68801 0.36029 0.0
Zn55 Zn 0.61267 0.71671 0.30822 0.0
O56 O 0.59898 0.71044 0.23331 0.0
C57 C 0.64931 0.70842 0.26644 0.0
O58 O 0.6289 0.68946 0.24782 0.0
O59 O 0.61471 0.74819 0.33534 0.0
C60 C 0.58504 0.6905 0.2081 0.0
O61 O 0.57387 0.66925 0.23377 0.0
C62 C 0.60677 0.69138 0.40416 0.0
O63 O 0.62729 0.71268 0.41193 0.0
O64 O 0.64764 0.72337 0.29825 0.0
C65 C 0.18252 0.87899 0.31256 0.0
O66 O 0.19915 0.8721 0.30504 0.0
O67 O 0.24852 0.92111 0.32657 0.0
Zn68 Zn 0.22355 0.92656 0.28519 0.0
O69 O 0.22729 0.92566 0.20518 0.0
C70 C 0.23984 0.97314 0.34286 0.0
O71 O 0.24419 0.96233 0.38299 0.0
O72 O 0.18882 0.90167 0.30642 0.0
C73 C 0.24133 0.94595 0.18087 0.0
O74 O 0.2542 0.96643 0.20847 0.0
C75 C 0.27171 0.93616 0.32151 0.0
O76 O 0.27922 0.95422 0.28665 0.0
O77 O 0.22963 0.96062 0.3013 0.0
C78 C 0.61099 0.84077 0.83485 0.0
O79 O 0.60433 0.8436 0.78704 0.0
O80 O 0.60925 0.90307 0.91225 0.0
Zn81 Zn 0.6218 0.89137 0.85107 0.0
O82 O 0.60714 0.89088 0.77946 0.0
C83 C 0.66832 0.91412 0.798 0.0
O84 O 0.65588 0.89505 0.76624 0.0
O85 O 0.6183 0.85838 0.86821 0.0
C86 C 0.61538 0.91169 0.75606 0.0
O87 O 0.62696 0.93216 0.78434 0.0
C88 C 0.58797 0.90102 0.91823 0.0
O89 O 0.57121 0.89067 0.88063 0.0
O90 O 0.6581 0.91557 0.84059 0.0
C91 C 0.12104 0.79425 0.74422 0.0
O92 O 0.10679 0.79713 0.70976 0.0
O93 O 0.07414 0.71124 0.77159 0.0
Zn94 Zn 0.08094 0.74447 0.7412 0.0
O95 O 0.07549 0.74474 0.66205 0.0
C96 C 0.04235 0.73916 0.81193 0.0
O97 O 0.05208 0.72977 0.84436 0.0
O98 O 0.11403 0.77274 0.76284 0.0
C99 C 0.05274 0.73266 0.64831 0.0
O100 O 0.0364 0.71723 0.68274 0.0
C101 C 0.0872 0.71039 0.80965 0.0
O102 O 0.10734 0.73094 0.82387 0.0
O103 O 0.05425 0.75026 0.77038 0.0
C104 C 0.22238 0.37264 0.8373 0.0
O105 O 0.23377 0.39353 0.81035 0.0
O106 O 0.29371 0.39196 0.8812 0.0
Zn107 Zn 0.26844 0.37187 0.8245 0.0
O108 O 0.27391 0.3869 0.75148 0.0
C109 C 0.25813 0.3201 0.83628 0.0
O110 O 0.24298 0.31744 0.87534 0.0
O111 O 0.23395 0.36121 0.84864 0.0
C112 C 0.28964 0.38502 0.72248 0.0
O113 O 0.3044 0.37809 0.74445 0.0
C114 C 0.31605 0.40926 0.87444 0.0
O115 O 0.32408 0.41716 0.82614 0.0
O116 O 0.27011 0.34087 0.81265 0.0
C117 C 0.85263 0.63273 0.70776 0.0
O118 O 0.84514 0.60891 0.71168 0.0
O119 O 0.90724 0.62446 0.66012 0.0
Zn120 Zn 0.89848 0.63517 0.72877 0.0
O121 O 0.88268 0.60707 0.78201 0.0
C122 C 0.94003 0.68471 0.75723 0.0
O123 O 0.92862 0.6941 0.73003 0.0
O124 O 0.87558 0.6484 0.71336 0.0
C125 C 0.88393 0.61109 0.83178 0.0
O126 O 0.8756 0.59228 0.86488 0.0
C127 C 0.90786 0.60442 0.65473 0.0
O128 O 0.90135 0.58889 0.69488 0.0
O129 O 0.93049 0.6613 0.76052 0.0
C130 C 0.35054 0.21595 0.80329 0.0
O131 O 0.37172 0.23501 0.81878 0.0
O132 O 0.35739 0.27651 0.776 0.0
Zn133 Zn 0.33644 0.25044 0.83127 0.0
O134 O 0.35574 0.25904 0.90085 0.0
C135 C 0.29472 0.25396 0.79539 0.0
O136 O 0.30337 0.25241 0.74885 0.0
O137 O 0.33091 0.21746 0.80619 0.0
C138 C 0.34923 0.25567 0.9495 0.0
O139 O 0.36632 0.26114 0.98596 0.0
C140 C 0.35891 0.27116 0.72782 0.0
O141 O 0.34731 0.24775 0.71298 0.0
O142 O 0.30457 0.25114 0.83705 0.0
C143 C 0.78995 0.09203 0.70811 0.0
O144 O 0.77661 0.07629 0.67057 0.0
O145 O 0.72124 0.06284 0.72873 0.0
Zn146 Zn 0.74725 0.06125 0.77501 0.0
O147 O 0.74284 0.06438 0.85363 0.0
C148 C 0.73442 0.01243 0.73114 0.0
O149 O 0.72827 0.01955 0.68738 0.0
O150 O 0.78122 0.0888 0.75486 0.0
C151 C 0.72842 0.04506 0.88039 0.0
O152 O 0.71426 0.02406 0.85539 0.0
C153 C 0.69819 0.04666 0.72908 0.0
O154 O 0.68996 0.02808 0.76282 0.0
O155 O 0.74469 0.02795 0.76854 0.0
C156 C 0.00394 0.45189 0.48702 0.0
O157 O 0.02062 0.4529 0.52057 0.0
O158 O 0.01501 0.3962 0.44509 0.0
Zn159 Zn 0.99019 0.40104 0.48877 0.0
O160 O -0.00276 0.40417 0.56712 0.0
C161 C 0.95114 0.35036 0.46746 0.0
O162 O 0.96698 0.34968 0.43392 0.0
O163 O 0.98864 0.43115 0.46616 0.0
C164 C -0.00744 0.38497 0.59401 0.0
O165 O 0.98814 0.36459 0.56905 0.0
C166 C 0.02952 0.41232 0.41163 0.0
O167 O 0.02899 0.43307 0.40602 0.0
O168 O 0.95612 0.37102 0.48777 0.0
C169 C 0.52255 0.51221 0.59405 0.0
O170 O 0.54131 0.51224 0.61818 0.0
O171 O 0.55881 0.59194 0.55544 0.0
Zn172 Zn 0.55297 0.56461 0.60768 0.0
O173 O 0.54627 0.57311 0.68134 0.0
C174 C 0.59378 0.561 0.56375 0.0
O175 O 0.58481 0.56354 0.51844 0.0
O176 O 0.52334 0.53272 0.58508 0.0
C177 C 0.55271 0.56981 0.72729 0.0
O178 O 0.54338 0.57478 0.76916 0.0
C179 C 0.57789 0.61334 0.56136 0.0
O180 O 0.59259 0.61714 0.6021 0.0
O181 O 0.58282 0.56045 0.60666 0.0
C182 C 0.43493 0.96982 0.53579 0.0
O183 O 0.42536 0.95499 0.57688 0.0
O184 O 0.36316 0.9599 0.4797 0.0
Zn185 Zn 0.38901 0.97157 0.53806 0.0
O186 O 0.37886 0.95247 0.60648 0.0
C187 C 0.41318 0.01815 0.59287 0.0
O188 O 0.4311 0.01297 0.59873 0.0
O189 O 0.42213 0.97763 0.5119 0.0
C190 C 0.36301 0.95544 0.63259 0.0
O191 O 0.34881 0.96199 0.60666 0.0
C192 C 0.34165 0.94064 0.47883 0.0
O193 O 0.33451 0.92489 0.51865 0.0
O194 O 0.39434 0.0042 0.56453 0.0
C195 C 0.78173 0.66473 0.66294 0.0
O196 O 0.78916 0.68814 0.65239 0.0
O197 O 0.72378 0.6731 0.69554 0.0
Zn198 Zn 0.7339 0.65811 0.6354 0.0
O199 O 0.74481 0.67679 0.56607 0.0
C200 C 0.69418 0.60442 0.61885 0.0
O201 O 0.70498 0.59607 0.65108 0.0
O202 O 0.75879 0.64871 0.65932 0.0
C203 C 0.72709 0.67517 0.53776 0.0
O204 O 0.70564 0.66842 0.56076 0.0
C205 C 0.72168 0.69246 0.69512 0.0
O206 O 0.72794 0.70633 0.65222 0.0
O207 O 0.70328 0.62758 0.61195 0.0
C208 C 0.35058 0.13404 0.69519 0.0
O209 O 0.3297 0.11453 0.67995 0.0
O210 O 0.34139 0.07388 0.67463 0.0
Zn211 Zn 0.37136 0.10622 0.6502 0.0
O212 O 0.37215 0.10924 0.56993 0.0
C213 C 0.3993 0.0892 0.70593 0.0
O214 O 0.38158 0.08251 0.74143 0.0
O215 O 0.37106 0.13487 0.68561 0.0
C216 C 0.38342 0.10057 0.54278 0.0
O217 O 0.39414 0.08974 0.5673 0.0
C218 C 0.33619 0.05301 0.65473 0.0
O219 O 0.34945 0.05249 0.61469 0.0
O220 O 0.40186 0.10508 0.6712 0.0
C221 C 0.8808 0.18279 0.65812 0.0
O222 O 0.89098 0.20038 0.69416 0.0
O223 O 0.94126 0.23691 0.65539 0.0
Zn224 Zn 0.91705 0.22184 0.59404 0.0
O225 O 0.93348 0.22301 0.52466 0.0
C226 C 0.90909 0.2641 0.59497 0.0
O227 O 0.92071 0.26962 0.64083 0.0
O228 O 0.88932 0.1874 0.6111 0.0
C229 C 0.94826 0.24481 0.50734 0.0
O230 O 0.95655 0.26362 0.54048 0.0
C231 C 0.96271 0.23906 0.65796 0.0
O232 O 0.97059 0.23108 0.6183 0.0
O233 O 0.90244 0.2431 0.57427 0.0
C234 C 0.30038 0.20618 0.17183 0.0
O235 O 0.31769 0.22923 0.18149 0.0
O236 O 0.26944 0.24588 0.20423 0.0
Zn237 Zn 0.27556 0.23133 0.13771 0.0
O238 O 0.2484 0.22176 0.08253 0.0
C239 C 0.31125 0.27644 0.08436 0.0
O240 O 0.2922 0.27996 0.07871 0.0
O241 O 0.27932 0.20189 0.155 0.0
C242 C 0.25124 0.22232 0.03234 0.0
O243 O 0.23248 0.21795 1.00136 0.0
C244 C 0.25269 0.2519 0.20758 0.0
O245 O 0.23754 0.24727 0.16732 0.0
O246 O 0.30833 0.25723 0.10836 0.0
C247 C 0.80647 0.10642 0.19361 0.0
O248 O 0.80673 0.0913 0.15748 0.0
O249 O 0.7545 0.03851 0.2588 0.0
Zn250 Zn 0.75743 0.06593 0.2101 0.0
O251 O 0.75671 0.05846 0.13192 0.0
C252 C 0.70813 0.05245 0.24159 0.0
O253 O 0.70964 0.0345 0.26569 0.0
O254 O 0.78765 0.09889 0.22376 0.0
C255 C 0.73656 0.04327 0.10875 0.0
O256 O 0.71661 0.02958 0.13736 0.0
C257 C 0.75211 0.01797 0.24306 0.0
O258 O 0.75466 0.01493 0.19231 0.0
O259 O 0.72734 0.06974 0.21941 0.0
C260 C 0.88465 0.70667 0.07262 0.0
O261 O 0.90366 0.72183 0.10222 0.0
O262 O 0.9439 0.71552 0.08328 0.0
Zn263 Zn 0.92119 0.69851 0.02044 0.0
O264 O 0.93575 0.71917 0.95388 0.0
C265 C 0.9101 0.64947 0.05293 0.0
O266 O 0.90651 0.65667 0.09951 0.0
O267 O 0.88792 0.69513 0.0347 0.0
C268 C 0.93296 0.71221 0.90559 0.0
O269 O 0.94239 0.7291 0.86803 0.0
C270 C 0.96027 0.71055 0.09991 0.0
O271 O 0.96388 0.69423 0.07413 0.0
O272 O 0.91612 0.66418 0.01361 0.0
C273 C 0.52485 0.98668 0.082 0.0
O274 O 0.51673 0.96335 0.09481 0.0
O275 O 0.55859 0.95727 0.09745 0.0
Zn276 Zn 0.5653 0.98923 0.13422 0.0
O277 O 0.55759 0.9881 0.21274 0.0
C278 C 0.61371 0.03165 0.15764 0.0
O279 O 0.60141 0.0412 0.18063 0.0
O280 O 0.54678 0.00298 0.09516 0.0
C281 C 0.57362 0.98882 0.24524 0.0
O282 O 0.58971 0.98255 0.22827 0.0
C283 C 0.57482 0.9505 0.09878 0.0
O284 O 0.5936 0.96178 0.13165 0.0
O285 O 0.602 0.012 0.13003 0.0
C286 C 0.98392 0.54509 0.97173 0.0
O287 O 0.9791 0.55509 0.93079 0.0
O288 O 0.02123 0.61644 0.96528 0.0
Zn289 Zn 0.0021 0.5932 0.02612 0.0
O290 O 0.01958 0.60274 0.09657 0.0
C291 C 0.95253 0.58945 0.01139 0.0
O292 O 0.95063 0.57939 0.96452 0.0
O293 O -0.00654 0.55797 0.01323 0.0
C294 C 0.01917 0.61975 0.12385 0.0
O295 O 0.01185 0.63407 0.10119 0.0
C296 C 0.04459 0.63128 0.96491 0.0
O297 O 0.05792 0.63142 0.00555 0.0
O298 O 0.97153 0.59536 0.03984 0.0
C299 C 0.46732 0.433 0.98553 0.0
O300 O 0.45079 0.42696 0.94751 0.0
O301 O 0.40662 0.42638 0.02542 0.0
Zn302 Zn 0.42405 0.40837 0.05259 0.0
O303 O 0.42172 0.40138 0.13191 0.0
C304 C 0.407 0.35666 0.03112 0.0
O305 O 0.42543 0.35996 0.06212 0.0
O306 O 0.45998 0.4267 0.03293 0.0
C307 C 0.40363 0.38199 0.15227 0.0
O308 O 0.38418 0.36775 0.12283 0.0
C309 C 0.38414 0.41877 0.03824 0.0
O310 O 0.37441 0.40297 0.0777 0.0
O311 O 0.40596 0.37558 0.01589 0.0
C312 C 0.62142 0.75595 0.88571 0.0
O313 O 0.63406 0.75676 0.92822 0.0
O314 O 0.6549 0.71912 0.85139 0.0
Zn315 Zn 0.62078 0.71087 0.87853 0.0
O316 O 0.61727 0.70757 0.95871 0.0
C317 C 0.60378 0.67252 0.8027 0.0
O318 O 0.6191 0.69079 0.77159 0.0
O319 O 0.61321 0.73717 0.85532 0.0
C320 C 0.59713 0.6911 0.98018 0.0
O321 O 0.57897 0.67502 0.94993 0.0
C322 C 0.66206 0.70332 0.85753 0.0
O323 O 0.64914 0.6842 0.88895 0.0
O324 O 0.59746 0.67786 0.8465 0.0
C325 C 0.20708 0.87989 0.83168 0.0
O326 O 0.21767 0.87747 0.87468 0.0
O327 O 0.25881 0.96164 0.80701 0.0
Zn328 Zn 0.24256 0.93013 0.85096 0.0
O329 O 0.23121 0.93493 0.92242 0.0
C330 C 0.27781 0.90968 0.85126 0.0
O331 O 0.27015 0.89906 0.80468 0.0
O332 O 0.21475 0.90148 0.81272 0.0
C333 C 0.24854 0.95058 0.95208 0.0
O334 O 0.27071 0.96466 0.93145 0.0
C335 C 0.26961 0.96151 0.7642 0.0
O336 O 0.2684 0.94069 0.74907 0.0
O337 O 0.26874 0.92213 0.87147 0.0
C338 C 0.1173 0.32496 0.88165 0.0
O339 O 0.10538 0.30137 0.89517 0.0
O340 O 0.04854 0.29499 0.83979 0.0
Zn341 Zn 0.06952 0.3169 0.9005 0.0
O342 O 0.06775 0.29621 0.96517 0.0
C343 C 0.06535 0.36223 0.90683 0.0
O344 O 0.08535 0.37354 0.8771 0.0
O345 O 0.10534 0.33658 0.879 0.0
C346 C 0.07989 0.30424 0.00847 0.0
O347 O 0.07887 0.28821 0.04379 0.0
C348 C 0.02536 0.28753 0.84041 0.0
O349 O 0.01604 0.29314 0.88144 0.0
O350 O 0.05628 0.33941 0.91829 0.0
C351 C 0.45612 0.01177 0.98557 0.0
O352 O 0.46053 0.03477 0.98376 0.0
O353 O 0.40566 0.02589 0.98861 0.0
Zn354 Zn 0.40596 -0.00265 0.94976 0.0
O355 O 0.40426 -0.00175 0.86956 0.0
C356 C 0.3723 0.94657 0.93996 0.0
O357 O 0.39107 0.94834 0.91234 0.0
O358 O 0.4349 0.99407 0.9722 0.0
C359 C 0.38291 0.99056 0.84891 0.0
O360 O 0.36441 0.98731 0.87957 0.0
C361 C 0.38523 0.02478 1.00067 0.0
O362 O 0.36428 0.00551 0.98492 0.0
O363 O 0.3756 0.96515 0.96751 0.0
C364 C 0.96862 0.44544 0.96287 0.0
O365 O 0.97788 0.43776 1.00041 0.0
O366 O 0.94086 0.37367 0.96254 0.0
Zn367 Zn 0.96242 0.40169 0.91159 0.0
O368 O 0.95788 0.39245 0.83415 0.0
C369 C 0.0037 0.40225 0.96455 0.0
O370 O 0.98792 0.39265 1.00411 0.0
O371 O 0.95976 0.43228 0.92146 0.0
C372 C 0.96722 0.37976 0.81612 0.0
O373 O 0.97565 0.36947 0.84956 0.0
C374 C 0.92668 0.35105 0.94976 0.0
O375 O 0.92289 0.34503 0.89926 0.0
O376 O -0.00238 0.41022 0.92418 0.0
C377 C 0.571 0.50255 0.94861 0.0
O378 O 0.58747 0.50871 0.98676 0.0
O379 O 0.62969 0.55798 0.96032 0.0
Zn380 Zn 0.6099 0.54547 0.89198 0.0
O381 O 0.62747 0.53843 0.83229 0.0
C382 C 0.61895 0.59135 0.84548 0.0
O383 O 0.64125 0.59448 0.83762 0.0
O384 O 0.57698 0.51521 0.90615 0.0
C385 C 0.62349 0.5395 0.78291 0.0
O386 O 0.6374 0.5364 0.74802 0.0
C387 C 0.6522 0.56405 0.96899 0.0
O388 O 0.66518 0.56142 0.93098 0.0
O389 O 0.60262 0.57187 0.86874 0.0
C390 C -0.00424 0.53899 0.44686 0.0
O391 O 0.97886 0.53786 0.41379 0.0
O392 O 0.97066 0.57997 0.48535 0.0
Zn393 Zn 0.00358 0.58717 0.45385 0.0
O394 O 0.00509 0.59153 0.37414 0.0
C395 C 0.02433 0.62756 0.52667 0.0
O396 O 0.00725 0.61152 0.55905 0.0
O397 O 0.00963 0.55927 0.47096 0.0
C398 C 0.01376 0.61278 0.35236 0.0
O399 O 0.02055 0.63249 0.38218 0.0
C400 C 0.96313 0.59554 0.48076 0.0
O401 O 0.97514 0.6146 0.44873 0.0
O402 O 0.02951 0.61947 0.4851 0.0
C403 C 0.43926 0.42092 0.51874 0.0
O404 O 0.41678 0.41793 0.51811 0.0
O405 O 0.40386 0.34394 0.52024 0.0
Zn406 Zn 0.4153 0.37257 0.46834 0.0
O407 O 0.42611 0.36708 0.39707 0.0
C408 C 0.39036 0.39373 0.41352 0.0
O409 O 0.41307 0.40942 0.39774 0.0
O410 O 0.44287 0.40396 0.5002 0.0
C411 C 0.40822 0.35233 0.36738 0.0
O412 O 0.38691 0.33669 0.38975 0.0
C413 C 0.40166 0.34858 0.56853 0.0
O414 O 0.40711 0.37123 0.58153 0.0
O415 O 0.38661 0.37702 0.44745 0.0
C416 C 0.54055 0.01793 0.49744 0.0
O417 O 0.55161 0.04013 0.47581 0.0
O418 O 0.6102 0.03029 0.56254 0.0
Zn419 Zn 0.59034 0.02548 0.4953 0.0
O420 O 0.60158 0.05865 0.45987 0.0
C421 C 0.58228 0.98219 0.43365 0.0
O422 O 0.55918 0.97193 0.45018 0.0
O423 O 0.55346 0.00813 0.51089 0.0
C424 C 0.6014 0.0619 0.41005 0.0
O425 O 0.60944 0.0844 0.39151 0.0
C426 C 0.63357 0.04517 0.56154 0.0
O427 O 0.64369 0.05787 0.51795 0.0
O428 O 0.59785 0.00428 0.44755 0.0
C429 C 0.22078 0.36621 0.32077 0.0
O430 O 0.22521 0.35046 0.29492 0.0
O431 O 0.2456 0.33046 0.36462 0.0
Zn432 Zn 0.25557 0.36494 0.39257 0.0
O433 O 0.25704 0.36708 0.47294 0.0
C434 C 0.30021 0.38252 0.33088 0.0
O435 O 0.28587 0.36445 0.29835 0.0
O436 O 0.232 0.37536 0.36429 0.0
C437 C 0.27757 0.37276 0.49544 0.0
O438 O 0.29618 0.37513 0.46637 0.0
C439 C 0.25842 0.31984 0.37076 0.0
O440 O 0.27789 0.33007 0.40221 0.0
O441 O 0.29024 0.38851 0.36763 0.0
C442 C 0.63482 0.86137 0.36413 0.0
O443 O 0.63052 0.87501 0.33065 0.0
O444 O 0.68262 0.93201 0.40879 0.0
Zn445 Zn 0.64927 0.90343 0.43322 0.0
O446 O 0.64497 0.90315 0.51263 0.0
C447 C 0.62727 0.92622 0.36991 0.0
O448 O 0.64856 0.93625 0.34445 0.0
O449 O 0.64328 0.86992 0.40997 0.0
C450 C 0.64191 0.91994 0.53429 0.0
O451 O 0.64418 0.93855 0.50526 0.0
C452 C 0.69467 0.93034 0.36963 0.0
O453 O 0.68702 0.90848 0.34786 0.0
O454 O 0.6227 0.90976 0.40491 0.0
C455 C 0.08132 0.80678 0.36771 0.0
O456 O 0.06418 0.81322 0.37102 0.0
O457 O 0.0225 0.7435 0.32274 0.0
Zn458 Zn 0.04048 0.75795 0.39205 0.0
O459 O 0.02303 0.77282 0.43324 0.0
C460 C 0.02406 0.71395 0.45712 0.0
O461 O 0.00231 0.71265 0.45497 0.0
O462 O 0.07533 0.78427 0.37541 0.0
C463 C 0.01894 0.77272 0.48276 0.0
O464 O 0.00529 0.78209 0.49933 0.0
C465 C 0.01161 0.75317 0.2978 0.0
O466 O 0.01182 0.77279 0.31794 0.0
O467 O 0.04243 0.73132 0.43282 0.0
C468 C 0.25131 0.0116 0.29136 0.0
C469 C 0.25277 0.00053 0.33893 0.0
H470 H 0.26825 0.04385 0.24176 0.0
C471 C 0.26992 0.01551 0.37797 0.0
H472 H 0.23806 0.00072 0.26073 0.0
C473 C 0.287 0.04048 0.36723 0.0
C474 C 0.28726 0.05056 0.31717 0.0
H475 H 0.27138 0.00758 0.41515 0.0
H476 H 0.30125 0.05119 0.39631 0.0
C477 C 0.26859 0.03631 0.28036 0.0
C478 C 0.03474 0.32694 0.10166 0.0
C479 C 0.04852 0.31954 0.13339 0.0
H480 H -0.00052 0.31725 0.06828 0.0
C481 C 0.03717 0.2949 0.15165 0.0
H482 H 0.04289 0.34583 0.08712 0.0
C483 C 0.01194 0.2786 0.1419 0.0
C484 C -0.00209 0.28657 0.11271 0.0
H485 H 0.04733 0.28863 0.17607 0.0
H486 H 0.00312 0.26021 0.15944 0.0
C487 C 0.00982 0.31049 0.09057 0.0
C488 C 0.71617 0.72335 0.27031 0.0
C489 C 0.71704 0.71075 0.22466 0.0
H490 H 0.69371 0.73251 0.31968 0.0
C491 C 0.69678 0.70075 0.1895 0.0
H492 H 0.7315 0.73125 0.29818 0.0
C493 C 0.67518 0.70109 0.20232 0.0
C494 C 0.67351 0.71176 0.25009 0.0
H495 H 0.69695 0.69117 0.15371 0.0
H496 H 0.6594 0.69209 0.17571 0.0
C497 C 0.69452 0.72394 0.28285 0.0
C498 C 0.70717 0.95424 0.81344 0.0
C499 C 0.69004 0.9368 0.77778 0.0
H500 H 0.73566 0.99177 0.82594 0.0
C501 C 0.69122 0.94317 0.72387 0.0
H502 H 0.7067 0.94967 0.8551 0.0
C503 C 0.70742 0.96752 0.70715 0.0
C504 C 0.72291 0.98567 0.744 0.0
H505 H 0.67812 0.93003 0.69553 0.0
H506 H 0.70646 0.97248 0.66635 0.0
C507 C 0.72373 0.97837 0.79656 0.0
C508 C 0.00454 0.73936 0.77885 0.0
C509 C 0.01517 0.72846 0.81056 0.0
H510 H 0.97208 0.73411 0.73757 0.0
C511 C -0.00012 0.70447 0.83083 0.0
H512 H 0.01597 0.75783 0.76254 0.0
C513 C 0.97514 0.69066 0.81503 0.0
C514 C 0.9649 0.70085 0.78023 0.0
H515 H 0.0075 0.69542 0.85493 0.0
H516 H 0.96447 0.67151 0.82792 0.0
C517 C 0.97949 0.72573 0.76423 0.0
C518 C 0.28337 0.28467 0.7627 0.0
C519 C 0.28001 0.2665 0.80009 0.0
H520 H 0.27913 0.31597 0.74516 0.0
C521 C 0.26602 0.26367 0.84601 0.0
H522 H 0.29404 0.28727 0.72685 0.0
C523 C 0.25751 0.28025 0.85678 0.0
C524 C 0.26298 0.2999 0.82166 0.0
H525 H 0.26261 0.24927 0.87447 0.0
H526 H 0.2479 0.27848 0.89381 0.0
C527 C 0.27506 0.3013 0.77352 0.0
C528 C 0.92745 0.3286 0.54907 0.0
C529 C 0.93331 0.32736 0.49551 0.0
H530 H 0.91526 0.30926 0.62319 0.0
C531 C 0.92595 0.30406 0.47295 0.0
H532 H 0.93279 0.34628 0.56773 0.0
C533 C 0.91516 0.28272 0.50457 0.0
C534 C 0.91231 0.28449 0.55963 0.0
H535 H 0.93009 0.30252 0.43181 0.0
H536 H 0.9113 0.26529 0.48666 0.0
C537 C 0.91741 0.30739 0.58104 0.0
C538 C 0.63768 0.58451 0.53493 0.0
C539 C 0.61945 0.56595 0.5671 0.0
H540 H 0.67621 0.61136 0.52657 0.0
C541 C 0.62671 0.55618 0.60931 0.0
H542 H 0.63258 0.59228 0.50201 0.0
C543 C 0.6518 0.56697 0.62315 0.0
C544 C 0.66966 0.58785 0.59538 0.0
H545 H 0.61285 0.54152 0.63402 0.0
H546 H 0.65689 0.56058 0.65838 0.0
C547 C 0.66263 0.59553 0.54924 0.0
C548 C 0.38852 0.04556 0.6917 0.0
C549 C 0.40638 0.07093 0.68898 0.0
H550 H 0.37621 0.00932 0.66042 0.0
C551 C 0.42805 0.07852 0.65877 0.0
H552 H 0.37149 0.03913 0.7141 0.0
C553 C 0.43105 0.06112 0.6292 0.0
C554 C 0.41199 0.03623 0.62815 0.0
H555 H 0.44194 0.09804 0.65569 0.0
H556 H 0.44745 0.06733 0.60472 0.0
C557 C 0.39105 0.02848 0.66052 0.0
C558 C 0.38084 0.31337 0.06548 0.0
C559 C 0.3833 0.33275 0.03259 0.0
H560 H 0.35593 0.28032 0.10795 0.0
C561 C 0.36175 0.33128 0.01064 0.0
H562 H 0.39702 0.31382 0.08279 0.0
C563 C 0.33825 0.31248 0.02616 0.0
C564 C 0.33585 0.29446 0.0629 0.0
H565 H 0.36295 0.34573 0.98459 0.0
H566 H 0.32201 0.31258 0.01084 0.0
C567 C 0.35728 0.29433 0.08038 0.0
C568 C 0.6551 0.06189 0.19779 0.0
C569 C 0.6386 0.0382 0.17725 0.0
H570 H 0.69081 0.08533 0.23394 0.0
C571 C 0.645 0.0195 0.18009 0.0
H572 H 0.65048 0.07654 0.19653 0.0
C573 C 0.66704 0.02407 0.20375 0.0
C574 C 0.68376 0.04775 0.2233 0.0
H575 H 0.6327 0.00099 0.16522 0.0
H576 H 0.67135 0.00918 0.20515 0.0
C577 C 0.6779 0.06681 0.21963 0.0
C578 C 0.92778 0.62436 0.08817 0.0
C579 C 0.91414 0.62817 0.04873 0.0
H580 H 0.95051 0.60865 0.1073 0.0
C581 C 0.90876 0.61473 1.00114 0.0
H582 H 0.93207 0.63443 0.12539 0.0
C583 C 0.91955 0.60014 0.99025 0.0
C584 C 0.93576 0.59878 0.0272 0.0
H585 H 0.89738 0.61673 0.97123 0.0
H586 H 0.91663 0.5915 0.95157 0.0
C587 C 0.93852 0.60976 0.0775 0.0
C588 C 0.62815 0.6285 0.79058 0.0
C589 C 0.61261 0.60993 0.82656 0.0
H590 H 0.63671 0.66253 0.75217 0.0
C591 C 0.5912 0.60962 0.84552 0.0
H592 H 0.64445 0.62882 0.77429 0.0
C593 C 0.58674 0.62889 0.8329 0.0
C594 C 0.60349 0.64867 0.80072 0.0
H595 H 0.57859 0.59522 0.87249 0.0
H596 H 0.57113 0.62921 0.85131 0.0
C597 C 0.62346 0.64758 0.77721 0.0
C598 C 0.34212 0.91973 0.8707 0.0
C599 C 0.34672 0.92885 0.92311 0.0
H600 H 0.31616 0.90635 0.80611 0.0
C601 C 0.32679 0.92592 0.95446 0.0
H602 H 0.35717 0.9218 0.84549 0.0
C603 C 0.30341 0.91708 0.9319 0.0
C604 C 0.29961 0.91109 0.87762 0.0
H605 H 0.32978 0.93257 0.99505 0.0
H606 H 0.28885 0.91691 0.95592 0.0
C607 C 0.31864 0.91093 0.84798 0.0
C608 C 0.0562 0.39718 0.90267 0.0
C609 C 0.05293 0.37548 0.92727 0.0
H610 H 0.04304 0.42305 0.89575 0.0
C611 C 0.0363 0.36539 0.97008 0.0
H612 H 0.069 0.40542 0.8698 0.0
C613 C 0.02208 0.37585 0.98596 0.0
C614 C 0.02365 0.39618 0.95829 0.0
H615 H 0.03344 0.34874 0.99003 0.0
H616 H 0.0085 0.36674 0.0172 0.0
C617 C 0.04146 0.40733 0.91773 0.0
C618 C 0.04742 0.69162 0.47377 0.0
C619 C 0.027 0.69475 0.48513 0.0
H620 H 0.06284 0.66766 0.47939 0.0
C621 C 0.00871 0.67833 0.52059 0.0
H622 H 0.06204 0.70424 0.44725 0.0
C623 C 0.00959 0.65776 0.54028 0.0
C624 C 0.02845 0.65304 0.52366 0.0
H625 H -0.00693 0.68066 0.53102 0.0
H626 H -0.00575 0.64443 0.56438 0.0
C627 C 0.04804 0.67082 0.49257 0.0
C628 C 0.33149 0.36891 0.33449 0.0
C629 C 0.32585 0.38805 0.34024 0.0
H630 H 0.35618 0.35558 0.35535 0.0
C631 C 0.34298 0.41023 0.36581 0.0
H632 H 0.31849 0.35148 0.31571 0.0
C633 C 0.36478 0.41267 0.38772 0.0
C634 C 0.3692 0.39267 0.38566 0.0
H635 H 0.33888 0.42512 0.37116 0.0
H636 H 0.37742 0.42955 0.40878 0.0
C637 C 0.35283 0.37107 0.3578 0.0
C638 C 0.6256 0.96525 0.36475 0.0
C639 C 0.61309 0.93938 0.37206 0.0
H640 H 0.62598 -0.00083 0.38044 0.0
C641 C 0.58867 0.92735 0.39184 0.0
H642 H 0.6445 0.97508 0.34994 0.0
C643 C 0.5777 0.94119 0.40801 0.0
C644 C 0.59128 0.96728 0.40588 0.0
H645 H 0.57864 0.9074 0.39782 0.0
H646 H 0.55938 0.93156 0.42577 0.0
C647 C 0.61497 0.9791 0.38239 0.0
C648 C 0.37861 0.11825 0.4572 0.0
C649 C 0.38346 0.10136 0.48418 0.0
H650 H 0.37283 0.13073 0.38224 0.0
C651 C 0.38778 0.08468 0.45464 0.0
H652 H 0.37544 0.13147 0.47892 0.0
C653 C 0.38602 0.08403 0.3993 0.0
C654 C 0.3804 0.1004 0.37235 0.0
H655 H 0.39162 0.07145 0.47436 0.0
H656 H 0.38839 0.07027 0.37771 0.0
C657 C 0.37737 0.11797 0.40178 0.0
C658 C 0.96807 0.2731 0.42949 0.0
C659 C 0.95017 0.24978 0.4496 0.0
H660 H 0.98166 0.29712 0.36153 0.0
C661 C 0.932 0.23248 0.41505 0.0
H662 H 0.98214 0.28691 0.45532 0.0
C663 C 0.93127 0.23861 0.36202 0.0
C664 C 0.949 0.26198 0.34199 0.0
H665 H 0.91771 0.21451 0.42937 0.0
H666 H 0.91684 0.22494 0.3366 0.0
C667 C 0.96768 0.27903 0.37599 0.0
C668 C 0.748 0.67329 0.45372 0.0
C669 C 0.72808 0.67382 0.47909 0.0
H670 H 0.76244 0.66755 0.38107 0.0
C671 C 0.70744 0.66974 0.44853 0.0
H672 H 0.7641 0.67615 0.47613 0.0
C673 C 0.70637 0.66455 0.39436 0.0
C674 C 0.72591 0.66329 0.36922 0.0
H675 H 0.69172 0.66993 0.46671 0.0
H676 H 0.69006 0.66134 0.3723 0.0
C677 C 0.74691 0.66806 0.39935 0.0
C678 C 0.09567 0.37052 0.03199 0.0
C679 C 0.12017 0.38152 0.0504 0.0
H680 H 0.06325 0.33653 0.00955 0.0
C681 C 0.13191 0.36722 0.05344 0.0
H682 H 0.08615 0.38113 0.0303 0.0
C683 C 0.11906 0.34207 0.03856 0.0
C684 C 0.09442 0.33106 0.02035 0.0
H685 H 0.15086 0.37545 0.06763 0.0
H686 H 0.12827 0.33121 0.04157 0.0
C687 C 0.08279 0.34534 0.01847 0.0
C688 C 0.57092 0.66995 0.11883 0.0
C689 C 0.58662 0.69099 0.14932 0.0
H690 H 0.56187 0.65351 0.0413 0.0
C691 C 0.60555 0.7121 0.12346 0.0
H692 H 0.55626 0.65338 0.13754 0.0
C693 C 0.60909 0.71199 0.06876 0.0
C694 C 0.59355 0.69093 0.03832 0.0
H695 H 0.61817 0.72859 0.14564 0.0
H696 H 0.62398 0.72849 0.05031 0.0
C697 C 0.57421 0.67001 0.06378 0.0
C698 C 0.26166 0.96818 0.09686 0.0
C699 C 0.24259 0.94707 0.12221 0.0
H700 H 0.27835 0.98587 0.02331 0.0
C701 C 0.22459 0.92764 0.09102 0.0
H702 H 0.27578 0.98352 0.11973 0.0
C703 C 0.22582 0.92922 0.03553 0.0
C704 C 0.24527 0.9501 0.01029 0.0
H705 H 0.20955 0.91125 0.10942 0.0
H706 H 0.21196 0.91377 0.01248 0.0
C707 C 0.26308 0.96959 0.04156 0.0
C708 C 0.61629 0.89232 0.66954 0.0
C709 C 0.61904 0.91309 0.69778 0.0
H710 H 0.6219 0.87835 0.59631 0.0
C711 C 0.62868 0.93599 0.67121 0.0
H712 H 0.60917 0.87445 0.68883 0.0
C713 C 0.63592 0.93819 0.61797 0.0
C714 C 0.63404 0.91763 0.59045 0.0
H715 H 0.63123 0.9524 0.69191 0.0
H716 H 0.64353 0.95614 0.59876 0.0
C717 C 0.6239 0.89462 0.61664 0.0
C718 C 0.05258 0.76685 0.52323 0.0
C719 C 0.02761 0.76094 0.52148 0.0
H720 H 0.08025 0.76226 0.56471 0.0
C721 C 0.01086 0.74445 0.55912 0.0
H722 H 0.06583 0.77971 0.49472 0.0
C723 C 0.01886 0.73406 0.59807 0.0
C724 C 0.044 0.74053 0.60134 0.0
H725 H -0.00848 0.73965 0.55851 0.0
H726 H 0.00544 0.72175 0.62701 0.0
C727 C 0.06075 0.75681 0.56307 0.0
C728 C 0.30287 0.38085 0.5778 0.0
C729 C 0.28103 0.37738 0.55328 0.0
H730 H 0.32286 0.38639 0.65032 0.0
C731 C 0.26293 0.37866 0.58443 0.0
H732 H 0.3173 0.38019 0.55494 0.0
C733 C 0.26632 0.3826 0.63926 0.0
C734 C 0.28776 0.38508 0.66397 0.0
H735 H 0.24603 0.37633 0.56661 0.0
H736 H 0.25172 0.38274 0.66248 0.0
C737 C 0.30615 0.38455 0.6325 0.0
C738 C 0.92899 0.67033 0.90268 0.0
C739 C 0.91922 0.6858 0.89075 0.0
H740 H 0.9256 0.63445 0.892 0.0
C741 C 0.8977 0.67657 0.85951 0.0
H742 H 0.94602 0.67737 0.92535 0.0
C743 C 0.88591 0.65204 0.84103 0.0
C744 C 0.89583 0.63664 0.85254 0.0
H745 H 0.89011 0.68838 0.84918 0.0
H746 H 0.86908 0.6451 0.81782 0.0
C747 C 0.91738 0.6459 0.88362 0.0
C748 C 0.28872 0.21758 0.02293 0.0
C749 C 0.27563 0.22969 0.00862 0.0
H750 H 0.32253 0.21641 0.01482 0.0
C751 C 0.28629 0.24944 0.97227 0.0
H752 H 0.28071 0.20214 0.05046 0.0
C753 C 0.31002 0.25745 0.95161 0.0
C754 C 0.32321 0.24549 0.96615 0.0
H755 H 0.27683 0.25954 0.96223 0.0
H756 H 0.31855 0.27374 0.92633 0.0
C757 C 0.31245 0.22558 1.0022 0.0
C758 C 0.71165 0.02532 0.96875 0.0
C759 C 0.72999 0.04519 0.93899 0.0
H760 H 0.69935 0.00911 0.04573 0.0
C761 C 0.7507 0.0642 0.96544 0.0
H762 H 0.69552 0.01034 0.94947 0.0
C763 C 0.75316 0.06321 0.02041 0.0
C764 C 0.73476 0.0434 0.05021 0.0
H765 H 0.76528 0.07962 0.94357 0.0
H766 H 0.76933 0.07818 0.03962 0.0
C767 C 0.71391 0.02454 0.02384 0.0
C768 C 0.98164 0.40154 0.67369 0.0
C769 C 0.98712 0.38408 0.65138 0.0
H770 H 0.97032 0.4134 0.74267 0.0
C771 C 0.98521 0.36465 0.68335 0.0
H772 H 0.98258 0.41653 0.64996 0.0
C773 C 0.97832 0.36295 0.73677 0.0
C774 C 0.97264 0.38031 0.75885 0.0
H775 H 0.98908 0.35078 0.66713 0.0
H776 H 0.97738 0.34802 0.76074 0.0
C777 C 0.97426 0.39954 0.72666 0.0
C778 C 0.57999 0.53197 0.78161 0.0
C779 C 0.60474 0.5458 0.76448 0.0
H780 H 0.54397 0.52885 0.78291 0.0
C781 C 0.61167 0.56627 0.73078 0.0
H782 H 0.57407 0.5157 0.8062 0.0
C783 C 0.5944 0.57351 0.71658 0.0
C784 C 0.56985 0.56014 0.73515 0.0
H785 H 0.63076 0.57743 0.71773 0.0
H786 H 0.6005 0.59016 0.69302 0.0
C787 C 0.56276 0.53927 0.76763 0.0
C788 C 0.3541 0.97264 0.77129 0.0
C789 C 0.37773 0.98108 0.79373 0.0
H790 H 0.3307 0.95723 0.70314 0.0
C791 C 0.39563 0.97865 0.76434 0.0
H792 H 0.33974 0.9739 0.79311 0.0
C793 C 0.39023 0.96858 0.71317 0.0
C794 C 0.36688 0.96093 0.69008 0.0
H795 H 0.41387 0.9846 0.78075 0.0
H796 H 0.40476 0.96783 0.6909 0.0
C797 C 0.34877 0.96276 0.72 0.0
C798 C 0.60461 0.01884 0.30948 0.0
C799 C 0.57969 0.00468 0.293 0.0
H800 H 0.63091 0.04823 0.35943 0.0
C801 C 0.56166 0.00863 0.31773 0.0
H802 H 0.61906 0.01667 0.29053 0.0
C803 C 0.56855 0.02669 0.35748 0.0
C804 C 0.59355 0.04113 0.37273 0.0
H805 H 0.54242 -0.0017 0.30521 0.0
H806 H 0.5545 0.02996 0.37481 0.0
C807 C 0.61149 0.03704 0.34863 0.0
C808 C 0.01651 0.59629 0.26355 0.0
C809 C 0.01681 0.61536 0.29408 0.0
H810 H 0.01782 0.58306 0.18597 0.0
C811 C 0.0201 0.6369 0.2684 0.0
H812 H 0.01431 0.57959 0.28225 0.0
C813 C 0.02197 0.63885 0.21305 0.0
C814 C 0.021 0.61947 0.1824 0.0
H815 H 0.02054 0.65198 0.29091 0.0
H816 H 0.02358 0.65527 0.19421 0.0
C817 C 0.0188 0.59841 0.20837 0.0
C818 C 0.42684 0.38795 0.23767 0.0
C819 C 0.40542 0.37402 0.20671 0.0
H820 H 0.44486 0.39174 0.31231 0.0
C821 C 0.38599 0.35172 0.22746 0.0
H822 H 0.44227 0.40507 0.22263 0.0
C823 C 0.38758 0.34392 0.27858 0.0
C824 C 0.40863 0.35825 0.31027 0.0
H825 H 0.36935 0.34033 0.20445 0.0
H826 H 0.37193 0.32703 0.29384 0.0
C827 C 0.42844 0.38014 0.28888 0.0
C828 C 0.32985 0.19097 0.19243 0.0
C829 C 0.30608 0.18584 0.17646 0.0
H830 H 0.35404 0.1765 0.20816 0.0
C831 C 0.28819 0.16133 0.16315 0.0
H832 H 0.34411 0.20969 0.20266 0.0
C833 C 0.29392 0.14229 0.16609 0.0
C834 C 0.31767 0.1474 0.18236 0.0
H835 H 0.26975 0.15681 0.15037 0.0
H836 H 0.27967 0.12355 0.15598 0.0
C837 C 0.33559 0.17195 0.19532 0.0
C838 C 0.82444 0.14955 0.22923 0.0
C839 C 0.82627 0.13277 0.19473 0.0
H840 H 0.84011 0.18722 0.25479 0.0
C841 C 0.84634 0.14172 0.15909 0.0
H842 H 0.80916 0.14327 0.25703 0.0
C843 C 0.86409 0.16701 0.15766 0.0
C844 C 0.86206 0.1838 0.19177 0.0
H845 H 0.84821 0.12926 0.13186 0.0
H846 H 0.87934 0.17338 0.12976 0.0
C847 C 0.84211 0.17479 0.22768 0.0
C848 C 0.83032 0.70149 0.15051 0.0
C849 C 0.81034 0.68703 0.11633 0.0
H850 H 0.86956 0.71933 0.16315 0.0
C851 C 0.81517 0.68056 0.06613 0.0
H852 H 0.82717 0.70691 0.18932 0.0
C853 C 0.83945 0.6875 0.0513 0.0
C854 C 0.85934 0.70129 0.08618 0.0
H855 H 0.80015 0.66946 0.03889 0.0
H856 H 0.84255 0.68167 0.01291 0.0
C857 C 0.85461 0.70867 0.13545 0.0
C858 C 0.18313 0.39837 0.30318 0.0
C859 C 0.16798 0.38541 0.25975 0.0
H860 H 0.21166 0.40241 0.35673 0.0
C861 C 0.17028 0.36606 0.23667 0.0
H862 H 0.18176 0.41335 0.32184 0.0
C863 C 0.18753 0.35993 0.25637 0.0
C864 C 0.20267 0.37287 0.29984 0.0
H865 H 0.15891 0.35578 0.20304 0.0
H866 H 0.18891 0.34497 0.23762 0.0
C867 C 0.20024 0.39209 0.32319 0.0
C868 C 0.62658 0.82932 0.29487 0.0
C869 C 0.63033 0.83653 0.34842 0.0
H870 H 0.62036 0.80118 0.23811 0.0
C871 C 0.6299 0.81986 0.38676 0.0
H872 H 0.62682 0.84175 0.26441 0.0
C873 C 0.6259 0.79646 0.37177 0.0
C874 C 0.6226 0.78945 0.31807 0.0
H875 H 0.63261 0.82485 0.42841 0.0
H876 H 0.62581 0.78407 0.40213 0.0
C877 C 0.62292 0.80608 0.27981 0.0
C878 C 0.11425 0.85041 0.34653 0.0
C879 C 0.10727 0.82536 0.35435 0.0
H880 H 0.14349 0.88701 0.3273 0.0
C881 C 0.1253 0.81814 0.34884 0.0
H882 H 0.1008 0.85657 0.35054 0.0
C883 C 0.14976 0.83556 0.33543 0.0
C884 C 0.15671 0.86059 0.32737 0.0
H885 H 0.12054 0.79897 0.35462 0.0
H886 H 0.16318 0.82938 0.33129 0.0
C887 C 0.13872 0.86785 0.33323 0.0
C888 C 0.62161 0.81658 0.89811 0.0
C889 C 0.61203 0.81822 0.8487 0.0
H890 H 0.63209 0.79569 0.94838 0.0
C891 C 0.60457 0.79867 0.81215 0.0
H892 H 0.62748 0.83129 0.92725 0.0
C893 C 0.60718 0.77813 0.8244 0.0
C894 C 0.6174 0.77689 0.87328 0.0
H895 H 0.59708 0.79938 0.77379 0.0
H896 H 0.60161 0.76348 0.79522 0.0
C897 C 0.62433 0.79618 0.9102 0.0
C898 C 0.15764 0.81324 0.80539 0.0
C899 C 0.14399 0.816 0.7641 0.0
H900 H 0.18824 0.83125 0.85909 0.0
C901 C 0.1519 0.83985 0.7436 0.0
H902 H 0.15206 0.7951 0.82201 0.0
C903 C 0.17271 0.8606 0.76482 0.0
C904 C 0.18594 0.85789 0.8071 0.0
H905 H 0.14183 0.84258 0.71167 0.0
H906 H 0.17814 0.87878 0.7487 0.0
C907 C 0.17836 0.83398 0.82674 0.0
C908 C 0.15767 0.32555 0.88256 0.0
C909 C 0.14428 0.33771 0.87131 0.0
H910 H 0.19276 0.32713 0.88127 0.0
C911 C 0.15693 0.36195 0.85045 0.0
H912 H 0.14853 0.30696 0.89907 0.0
C913 C 0.18244 0.37357 0.84 0.0
C914 C 0.19574 0.36122 0.85068 0.0
H915 H 0.14708 0.37181 0.8416 0.0
H916 H 0.19168 0.39211 0.82321 0.0
C917 C 0.1831 0.33719 0.87255 0.0
C918 C 0.80908 0.62368 0.69358 0.0
C919 C 0.83455 0.6411 0.69749 0.0
H920 H 0.77246 0.61746 0.67996 0.0
C921 C 0.84251 0.6665 0.69133 0.0
H922 H 0.80233 0.60398 0.69834 0.0
C923 C 0.82534 0.67426 0.6807 0.0
C924 C 0.79989 0.65678 0.67622 0.0
H925 H 0.86202 0.6804 0.69431 0.0
H926 H 0.83205 0.69393 0.67565 0.0
C927 C 0.79194 0.63142 0.68315 0.0
C928 C 0.32785 0.1743 0.75892 0.0
C929 C 0.35017 0.19434 0.77791 0.0
H930 H 0.31046 0.13948 0.71775 0.0
C931 C 0.37247 0.19414 0.77032 0.0
H932 H 0.31036 0.17394 0.76411 0.0
C933 C 0.37256 0.17453 0.74355 0.0
C934 C 0.35031 0.15463 0.72394 0.0
H935 H 0.39 0.20931 0.78443 0.0
H936 H 0.39011 0.17506 0.73808 0.0
C937 C 0.32792 0.1546 0.73225 0.0
C938 C 0.84565 0.14089 0.63166 0.0
C939 C 0.8586 0.15868 0.67133 0.0
H940 H 0.81381 0.10583 0.6121 0.0
C941 C 0.84948 0.1537 0.72357 0.0
H942 H 0.85222 0.14414 0.59101 0.0
C943 C 0.82754 0.13177 0.73564 0.0
C944 C 0.81415 0.11431 0.69572 0.0
H945 H 0.85906 0.16694 0.75513 0.0
H946 H 0.82085 0.12876 0.77618 0.0
C947 C 0.82363 0.11893 0.64373 0.0
C948 C 0.98453 0.47334 0.4397 0.0
C949 C 0.00245 0.47439 0.47528 0.0
H950 H 0.96839 0.49293 0.40282 0.0
C951 C 0.0185 0.497 0.50066 0.0
H952 H 0.97191 0.4562 0.41947 0.0
C953 C 0.01645 0.51805 0.4912 0.0
C954 C -0.00167 0.51692 0.45612 0.0
H955 H 0.03251 0.49841 0.52829 0.0
H956 H 0.02897 0.53516 0.51167 0.0
C957 C 0.98251 0.4944 0.4302 0.0
C958 C 0.50281 0.46708 0.57192 0.0
C959 C 0.50101 0.48867 0.57636 0.0
H960 H 0.48468 0.42871 0.54966 0.0
C961 C 0.47857 0.48766 0.56294 0.0
H962 H 0.5199 0.46734 0.58191 0.0
C963 C 0.45833 0.46548 0.54516 0.0
C964 C 0.4603 0.44404 0.53964 0.0
H965 H 0.47663 0.504 0.56624 0.0
H966 H 0.4413 0.46528 0.5348 0.0
C967 C 0.48269 0.44501 0.55329 0.0
C968 C 0.4988 0.01298 0.47985 0.0
C969 C 0.51333 0.00452 0.5052 0.0
H970 H 0.46267 0.00839 0.46879 0.0
C971 C 0.50163 0.98345 0.53807 0.0
H972 H 0.50722 0.029 0.4538 0.0
C973 C 0.47597 0.97164 0.54694 0.0
C974 C 0.46154 0.98051 0.52254 0.0
H975 H 0.51235 0.97644 0.55794 0.0
H976 H 0.46752 0.95584 0.57359 0.0
C977 C 0.47319 0.00103 0.48818 0.0
C978 C 0.46889 0.98099 0.01084 0.0
C979 C 0.47476 0.00592 0.00681 0.0
H980 H 0.48008 0.95548 0.03759 0.0
C981 C 0.49794 0.02475 0.02536 0.0
H982 H 0.45126 0.96601 0.99668 0.0
C983 C 0.51462 0.01864 0.04882 0.0
C984 C 0.50829 0.99362 0.05431 0.0
H985 H 0.50302 0.04413 0.02267 0.0
H986 H 0.53218 0.03345 0.0637 0.0
C987 C 0.48542 0.97492 0.03442 0.0
C988 C 0.98482 0.50906 0.01369 0.0
C989 C 0.97878 0.51913 0.96998 0.0
H990 H 0.9862 0.47792 0.04587 0.0
C991 C 0.96814 0.50427 0.92483 0.0
H992 H -0.00707 0.51994 0.04926 0.0
C993 C 0.96417 0.48004 0.92303 0.0
C994 C 0.97082 0.47023 0.96629 0.0
H995 H 0.96316 0.51143 0.89063 0.0
H996 H 0.95635 0.46919 0.88729 0.0
C997 C 0.98092 0.48491 0.01183 0.0
C998 C 0.51169 0.45453 0.0152 0.0
C999 C 0.49414 0.44879 0.97447 0.0
H1000 H 0.5498 0.47586 0.03889 0.0
C1001 C 0.5024 0.45937 0.92406 0.0
H1002 H 0.50594 0.44653 0.05442 0.0
C1003 C 0.52754 0.47621 0.91522 0.0
C1004 C 0.54494 0.48274 0.95657 0.0
H1005 H 0.48937 0.45524 0.8918 0.0
H1006 H 0.53321 0.48459 0.87627 0.0
C1007 C 0.53685 0.4713 0.0063 0.0
C1008 C 0.36217 0.04294 0.04637 0.0
C1009 C 0.38472 0.04355 0.03628 0.0
H1010 H 0.34312 0.05754 0.09107 0.0
C1011 C 0.40626 0.06121 0.06305 0.0
H1012 H 0.34525 0.02968 0.02629 0.0
C1013 C 0.40502 0.0772 0.10065 0.0
C1014 C 0.38226 0.07597 0.11199 0.0
H1015 H 0.42394 0.06218 0.05618 0.0
H1016 H 0.42179 0.09012 0.12163 0.0
C1017 C 0.36097 0.05898 0.08359 0.0
C1018 C 0.8985 0.28739 0.01374 0.0
C1019 C 0.90881 0.29326 0.06504 0.0
H1020 H 0.89587 0.30096 0.93726 0.0
C1021 C 0.92262 0.31842 0.07992 0.0
H1022 H 0.88765 0.26822 1.00094 0.0
C1023 C 0.92723 0.33724 0.04334 0.0
C1024 C 0.91826 0.33134 0.99095 0.0
H1025 H 0.93078 0.32363 0.11913 0.0
H1026 H 0.93882 0.35642 0.0555 0.0
C1027 C 0.90322 0.30619 0.9771 0.0
C1028 C 0.68947 0.58461 0.02942 0.0
C1029 C 0.66422 0.57642 0.01977 0.0
H1030 H 0.72098 0.60547 0.08003 0.0
C1031 C 0.65082 0.58155 0.05784 0.0
H1032 H 0.70032 0.58087 1.00111 0.0
C1033 C 0.66266 0.59567 0.10292 0.0
C1034 C 0.68816 0.60489 0.11134 0.0
H1035 H 0.63131 0.57541 0.05201 0.0
H1036 H 0.65193 0.6 0.13035 0.0
C1037 C 0.7013 0.59864 0.07482 0.0
C1038 C 0.05969 0.37913 0.34552 0.0
C1039 C 0.07448 0.39632 0.30627 0.0
H1040 H 0.03398 0.37063 0.4095 0.0
C1041 C 0.07529 0.41932 0.30375 0.0
H1042 H 0.05863 0.36123 0.34868 0.0
C1043 C 0.06111 0.42471 0.33874 0.0
C1044 C 0.04579 0.40722 0.37701 0.0
H1045 H 0.08649 0.43299 0.27406 0.0
H1046 H 0.06185 0.44244 0.33508 0.0
C1047 C 0.04551 0.3845 0.38045 0.0
C1048 C 0.60511 0.65706 0.52996 0.0
C1049 C 0.58425 0.63342 0.52187 0.0
H1050 H 0.62837 0.69369 0.49968 0.0
C1051 C 0.57019 0.62914 0.47522 0.0
H1052 H 0.61636 0.66107 0.5654 0.0
C1053 C 0.57715 0.64799 0.43714 0.0
C1054 C 0.59828 0.67151 0.44501 0.0
H1055 H 0.55401 0.61113 0.46772 0.0
H1056 H 0.56617 0.64403 0.4013 0.0
C1057 C 0.61201 0.67583 0.49212 0.0
C1058 C 0.3321 0.95433 0.3928 0.0
C1059 C 0.32408 0.93757 0.43565 0.0
H1060 H 0.32199 0.96684 0.32312 0.0
C1061 C 0.29889 0.91899 0.43831 0.0
H1062 H 0.35138 0.96878 0.38926 0.0
C1063 C 0.28193 0.9179 0.40019 0.0
C1064 C 0.28984 0.93533 0.35859 0.0
H1065 H 0.2921 0.90576 0.47071 0.0
H1066 H 0.26253 0.90385 0.40424 0.0
C1067 C 0.31521 0.9532 0.35475 0.0
C1068 C 0.56176 0.91403 0.97036 0.0
C1069 C 0.58273 0.91107 0.96687 0.0
H1070 H 0.54258 0.92866 0.01517 0.0
C1071 C 0.5994 0.9187 0.00981 0.0
H1072 H 0.54849 0.9082 0.9381 0.0
C1073 C 0.59588 0.93012 0.05405 0.0
C1074 C 0.57572 0.9344 0.05638 0.0
H1075 H 0.61557 0.9164 0.00881 0.0
H1076 H 0.6096 0.93649 0.0855 0.0
C1077 C 0.55832 0.92566 0.01464 0.0
C1078 C 0.08148 0.66816 0.92402 0.0
C1079 C 0.05625 0.64974 0.92139 0.0
H1080 H 0.1111 0.70155 0.89049 0.0
C1081 C 0.04196 0.65005 0.87832 0.0
H1082 H 0.09308 0.66844 0.95642 0.0
C1083 C 0.05237 0.66899 0.84021 0.0
C1084 C 0.07728 0.68813 0.84443 0.0
H1085 H 0.0225 0.63608 0.87486 0.0
H1086 H 0.04057 0.66919 0.80879 0.0
C1087 C 0.09184 0.68716 0.8861 0.0
C1088 C 0.32517 0.40755 0.97073 0.0
C1089 C 0.3338 0.41674 0.91942 0.0
H1090 H 0.3344 0.40151 0.04899 0.0
C1091 C 0.35959 0.43052 0.91054 0.0
H1092 H 0.30544 0.39714 0.97921 0.0
C1093 C 0.37627 0.43305 0.95075 0.0
C1094 C 0.36748 0.42186 1.00063 0.0
H1095 H 0.36689 0.43805 0.87163 0.0
H1096 H 0.39594 0.44238 0.94155 0.0
C1097 C 0.34182 0.41012 0.01088 0.0
C1098 C 0.92765 0.61783 0.5649 0.0
C1099 C 0.91868 0.60016 0.60607 0.0
H1100 H 0.94839 0.63004 0.49258 0.0
C1101 C 0.92185 0.57933 0.60203 0.0
H1102 H 0.92541 0.63402 0.56654 0.0
C1103 C 0.93502 0.57701 0.55947 0.0
C1104 C 0.94528 0.59546 0.51997 0.0
H1105 H 0.91503 0.56528 0.63282 0.0
H1106 H 0.93807 0.5613 0.55884 0.0
C1107 C 0.94077 0.61548 0.5223 0.0
C1108 C 0.37314 0.2852 0.63446 0.0
C1109 C 0.37149 0.2911 0.6877 0.0
H1110 H 0.38403 0.29867 0.55502 0.0
C1111 C 0.38088 0.31612 0.70161 0.0
H1112 H 0.36613 0.2661 0.62239 0.0
C1113 C 0.39104 0.33475 0.66298 0.0
C1114 C 0.39215 0.32881 0.60952 0.0
H1115 H 0.37992 0.32133 0.7422 0.0
H1116 H 0.39772 0.35379 0.67503 0.0
C1117 C 0.3834 0.30386 0.59579 0.0
C1118 C 0.63999 0.02956 0.64889 0.0
C1119 C 0.64955 0.04675 0.60689 0.0
H1120 H 0.64781 0.016 0.7203 0.0
C1121 C 0.67497 0.06475 0.6071 0.0
H1122 H 0.62051 0.01543 0.64991 0.0
C1123 C 0.6906 0.06517 0.64758 0.0
C1124 C 0.68122 0.04749 0.68867 0.0
H1125 H 0.68295 0.07832 0.57548 0.0
H1126 H 0.71016 0.07901 0.64589 0.0
C1127 C 0.65567 0.02987 0.68922 0.0
C1128 C 0.70469 0.71735 0.73872 0.0
C1129 C 0.70947 0.69749 0.74046 0.0
H1130 H 0.68629 0.73506 0.77465 0.0
C1131 C 0.70085 0.68133 0.78438 0.0
H1132 H 0.71111 0.73022 0.70564 0.0
C1133 C 0.6867 0.68416 0.82406 0.0
C1134 C 0.68076 0.70321 0.82086 0.0
H1135 H 0.70423 0.66586 0.78725 0.0
H1136 H 0.67951 0.67072 0.85606 0.0
C1137 C 0.69051 0.72019 0.77847 0.0
C1138 C 0.31406 0.00659 0.66196 0.0
C1139 C 0.31751 0.02948 0.68025 0.0
H1140 H 0.29618 0.96728 0.67376 0.0
C1141 C 0.30406 0.02971 0.72496 0.0
H1142 H 0.32419 0.00571 0.6278 0.0
C1143 C 0.288 0.00758 0.75155 0.0
C1144 C 0.28505 0.98477 0.73399 0.0
H1145 H 0.30631 0.04703 0.74014 0.0
H1146 H 0.27829 0.00844 0.78648 0.0
C1147 C 0.29801 0.98451 0.68846 0.0
C1148 C 0.00341 0.25576 0.70637 0.0
C1149 C 0.97868 0.25078 0.70509 0.0
H1150 H 0.0376 0.27128 0.75002 0.0
C1151 C 0.96936 0.25737 0.74921 0.0
H1152 H 0.01118 0.25093 0.67305 0.0
C1153 C 0.98442 0.26886 0.79333 0.0
C1154 C 0.00925 0.2742 0.79439 0.0
H1155 H 0.9504 0.25375 0.74969 0.0
H1156 H 0.97662 0.27385 0.82636 0.0
C1157 C 0.01856 0.26742 0.7505 0.0
C1158 C 0.27038 0.27447 0.2935 0.0
C1159 C 0.25211 0.26651 0.25365 0.0
H1160 H 0.28658 0.29733 0.36207 0.0
C1161 C 0.23432 0.27417 0.25625 0.0
H1162 H 0.28432 0.26885 0.29286 0.0
C1163 C 0.23556 0.29044 0.29609 0.0
C1164 C 0.25463 0.29947 0.33426 0.0
H1165 H 0.21989 0.26828 0.22645 0.0
H1166 H 0.2221 0.29668 0.29566 0.0
C1167 C 0.27163 0.29077 0.33333 0.0
C1168 C 0.73693 0.97291 0.2616 0.0
C1169 C 0.74166 -0.0037 0.27959 0.0
H1170 H 0.71874 0.93375 0.27629 0.0
C1171 C 0.73366 -0.00187 0.3308 0.0
H1172 H 0.74296 0.97083 0.22255 0.0
C1173 C 0.71966 0.97683 0.3616 0.0
C1174 C 0.71344 0.95321 0.34202 0.0
H1175 H 0.73707 0.01587 0.34611 0.0
H1176 H 0.71271 0.97878 0.39967 0.0
C1177 C 0.72303 0.95161 0.29252 0.0
C1178 C 0.00093 0.72338 0.22169 0.0
C1179 C -0.00116 0.7425 0.24671 0.0
H1180 H 0.99062 0.69847 0.15557 0.0
C1181 C 0.98437 0.75135 0.22243 0.0
H1182 H 0.01198 0.71618 0.23923 0.0
C1183 C 0.97204 0.74112 0.17459 0.0
C1184 C 0.97405 0.72195 0.14966 0.0
H1185 H 0.98236 0.76605 0.24059 0.0
H1186 H 0.96087 0.74823 0.15725 0.0
C1187 C 0.98875 0.71329 0.17359 0.0
loop_
_geom_bond_atom_site_label_1
_geom_bond_atom_site_label_2
_geom_bond_distance
_geom_bond_site_symmetry_2
_ccdc_geom_bond_type
C0 O1 1.160 . S
C0 O7 1.185 . S
O1 C0 1.160 . S
O2 Zn3 1.899 . S
O2 C10 1.284 . S
Zn3 O2 1.899 . S
Zn3 O4 2.032 . S
Zn3 O7 2.086 . S
Zn3 O12 1.977 . S
O4 Zn3 2.032 . S
O4 C8 1.278 . S
C5 O6 1.203 . S
C5 O12 1.267 . S
O6 C5 1.203 . S
O7 C0 1.185 . S
O7 Zn3 2.086 . S
C8 O4 1.278 . S
C8 O9 1.211 . S
O9 C8 1.211 . S
C10 O2 1.284 . S
C10 O11 1.273 . S
O11 C10 1.273 . S
O12 Zn3 1.977 . S
O12 C5 1.267 . S
C13 O14 1.160 . S
C13 O20 1.185 . S
O14 C13 1.160 . S
O15 Zn16 1.899 . S
O15 C23 1.284 . S
Zn16 O15 1.899 . S
Zn16 O17 2.032 . S
Zn16 O20 2.086 . S
Zn16 O25 1.977 . S
O17 Zn16 2.032 . S
O17 C21 1.278 . S
C18 O19 1.203 . S
C18 O25 1.267 . S
O19 C18 1.203 . S
O20 C13 1.185 . S
O20 Zn16 2.086 . S
C21 O17 1.278 . S
C21 O22 1.211 . S
O22 C21 1.211 . S
C23 O15 1.284 . S
C23 O24 1.273 . S
O24 C23 1.273 . S
O25 Zn16 1.977 . S
O25 C18 1.267 . S
C26 O27 1.160 . S
C26 O33 1.185 . S
O27 C26 1.160 . S
O28 Zn29 1.899 . S
O28 C36 1.284 . S
Zn29 O28 1.899 . S
Zn29 O30 2.032 . S
Zn29 O33 2.086 . S
Zn29 O38 1.977 . S
O30 Zn29 2.032 . S
O30 C34 1.278 . S
C31 O32 1.203 . S
C31 O38 1.267 . S
O32 C31 1.203 . S
O33 C26 1.185 . S
O33 Zn29 2.086 . S
C34 O30 1.278 . S
C34 O35 1.211 . S
O35 C34 1.211 . S
C36 O28 1.284 . S
C36 O37 1.273 . S
O37 C36 1.273 . S
O38 Zn29 1.977 . S
O38 C31 1.267 . S
C39 O40 1.160 . S
C39 O46 1.185 . S
O40 C39 1.160 . S
O41 Zn42 1.899 . S
O41 C49 1.284 . S
Zn42 O41 1.899 . S
Zn42 O43 2.032 . S
Zn42 O46 2.086 . S
Zn42 O51 1.977 . S
O43 Zn42 2.032 . S
O43 C47 1.278 . S
C44 O45 1.203 . S
C44 O51 1.267 . S
O45 C44 1.203 . S
O46 C39 1.185 . S
O46 Zn42 2.086 . S
C47 O43 1.278 . S
C47 O48 1.211 . S
O48 C47 1.211 . S
C49 O41 1.284 . S
C49 O50 1.273 . S
O50 C49 1.273 . S
O51 Zn42 1.977 . S
O51 C44 1.267 . S
C52 O53 1.160 . S
C52 O59 1.185 . S
O53 C52 1.160 . S
O54 Zn55 1.899 . S
O54 C62 1.284 . S
Zn55 O54 1.899 . S
Zn55 O56 2.032 . S
Zn55 O59 2.086 . S
Zn55 O64 1.977 . S
O56 Zn55 2.032 . S
O56 C60 1.278 . S
C57 O58 1.203 . S
C57 O64 1.267 . S
O58 C57 1.203 . S
O59 C52 1.185 . S
O59 Zn55 2.086 . S
C60 O56 1.278 . S
C60 O61 1.211 . S
O61 C60 1.211 . S
C62 O54 1.284 . S
C62 O63 1.273 . S
O63 C62 1.273 . S
O64 Zn55 1.977 . S
O64 C57 1.267 . S
C65 O66 1.160 . S
C65 O72 1.185 . S
O66 C65 1.160 . S
O67 Zn68 1.899 . S
O67 C75 1.284 . S
Zn68 O67 1.899 . S
Zn68 O69 2.032 . S
Zn68 O72 2.086 . S
Zn68 O77 1.977 . S
O69 Zn68 2.032 . S
O69 C73 1.278 . S
C70 O71 1.203 . S
C70 O77 1.267 . S
O71 C70 1.203 . S
O72 C65 1.185 . S
O72 Zn68 2.086 . S
C73 O69 1.278 . S
C73 O74 1.211 . S
O74 C73 1.211 . S
C75 O67 1.284 . S
C75 O76 1.273 . S
O76 C75 1.273 . S
O77 Zn68 1.977 . S
O77 C70 1.267 . S
C78 O79 1.160 . S
C78 O85 1.185 . S
O79 C78 1.160 . S
O80 Zn81 1.899 . S
O80 C88 1.284 . S
Zn81 O80 1.899 . S
Zn81 O82 2.032 . S
Zn81 O85 2.086 . S
Zn81 O90 1.977 . S
O82 Zn81 2.032 . S
O82 C86 1.278 . S
C83 O84 1.203 . S
C83 O90 1.267 . S
O84 C83 1.203 . S
O85 C78 1.185 . S
O85 Zn81 2.086 . S
C86 O82 1.278 . S
C86 O87 1.211 . S
O87 C86 1.211 . S
C88 O80 1.284 . S
C88 O89 1.273 . S
O89 C88 1.273 . S
O90 Zn81 1.977 . S
O90 C83 1.267 . S
C91 O92 1.160 . S
C91 O98 1.185 . S
O92 C91 1.160 . S
O93 Zn94 1.899 . S
O93 C101 1.284 . S
Zn94 O93 1.899 . S
Zn94 O95 2.032 . S
Zn94 O98 2.086 . S
Zn94 O103 1.977 . S
O95 Zn94 2.032 . S
O95 C99 1.278 . S
C96 O97 1.203 . S
C96 O103 1.267 . S
O97 C96 1.203 . S
O98 C91 1.185 . S
O98 Zn94 2.086 . S
C99 O95 1.278 . S
C99 O100 1.211 . S
O100 C99 1.211 . S
C101 O93 1.284 . S
C101 O102 1.273 . S
O102 C101 1.273 . S
O103 Zn94 1.977 . S
O103 C96 1.267 . S
C104 O105 1.160 . S
C104 O111 1.185 . S
O105 C104 1.160 . S
O106 Zn107 1.899 . S
O106 C114 1.284 . S
Zn107 O106 1.899 . S
Zn107 O108 2.032 . S
Zn107 O111 2.086 . S
Zn107 O116 1.977 . S
O108 Zn107 2.032 . S
O108 C112 1.278 . S
C109 O110 1.203 . S
C109 O116 1.267 . S
O110 C109 1.203 . S
O111 C104 1.185 . S
O111 Zn107 2.086 . S
C112 O108 1.278 . S
C112 O113 1.211 . S
O113 C112 1.211 . S
C114 O106 1.284 . S
C114 O115 1.273 . S
O115 C114 1.273 . S
O116 Zn107 1.977 . S
O116 C109 1.267 . S
C117 O118 1.160 . S
C117 O124 1.185 . S
O118 C117 1.160 . S
O119 Zn120 1.899 . S
O119 C127 1.284 . S
Zn120 O119 1.899 . S
Zn120 O121 2.032 . S
Zn120 O124 2.086 . S
Zn120 O129 1.977 . S
O121 Zn120 2.032 . S
O121 C125 1.278 . S
C122 O123 1.203 . S
C122 O129 1.267 . S
O123 C122 1.203 . S
O124 C117 1.185 . S
O124 Zn120 2.086 . S
C125 O121 1.278 . S
C125 O126 1.211 . S
O126 C125 1.211 . S
C127 O119 1.284 . S
C127 O128 1.273 . S
O128 C127 1.273 . S
O129 Zn120 1.977 . S
O129 C122 1.267 . S
C130 O131 1.160 . S
C130 O137 1.185 . S
O131 C130 1.160 . S
O132 Zn133 1.899 . S
O132 C140 1.284 . S
Zn133 O132 1.899 . S
Zn133 O134 2.032 . S
Zn133 O137 2.086 . S
Zn133 O142 1.977 . S
O134 Zn133 2.032 . S
O134 C138 1.278 . S
C135 O136 1.203 . S
C135 O142 1.267 . S
O136 C135 1.203 . S
O137 C130 1.185 . S
O137 Zn133 2.086 . S
C138 O134 1.278 . S
C138 O139 1.211 . S
O139 C138 1.211 . S
C140 O132 1.284 . S
C140 O141 1.273 . S
O141 C140 1.273 . S
O142 Zn133 1.977 . S
O142 C135 1.267 . S
C143 O144 1.160 . S
C143 O150 1.185 . S
O144 C143 1.160 . S
O145 Zn146 1.899 . S
O145 C153 1.284 . S
Zn146 O145 1.899 . S
Zn146 O147 2.032 . S
Zn146 O150 2.086 . S
Zn146 O155 1.977 . S
O147 Zn146 2.032 . S
O147 C151 1.278 . S
C148 O149 1.203 . S
C148 O155 1.267 . S
O149 C148 1.203 . S
O150 C143 1.185 . S
O150 Zn146 2.086 . S
C151 O147 1.278 . S
C151 O152 1.211 . S
O152 C151 1.211 . S
C153 O145 1.284 . S
C153 O154 1.273 . S
O154 C153 1.273 . S
O155 Zn146 1.977 . S
O155 C148 1.267 . S
C156 O157 1.160 . S
C156 O163 1.182 1_455 S
O157 C156 1.160 . S
O158 Zn159 1.899 . S
O158 C166 1.284 . S
Zn159 O158 1.899 . S
Zn159 O160 2.032 . S
Zn159 O163 2.065 1_455 S
Zn159 O168 1.977 1_455 S
O160 Zn159 2.032 . S
O160 C164 1.278 . S
C161 O162 1.203 1_655 S
C161 O168 1.267 . S
O162 C161 1.203 1_455 S
O163 C156 1.182 1_655 S
O163 Zn159 2.065 1_655 S
C164 O160 1.278 . S
C164 O165 1.211 . S
O165 C164 1.211 . S
C166 O158 1.284 . S
C166 O167 1.273 . S
O167 C166 1.273 . S
O168 Zn159 1.977 1_655 S
O168 C161 1.267 . S
C169 O170 1.160 . S
C169 O176 1.185 . S
O170 C169 1.160 . S
O171 Zn172 1.899 . S
O171 C179 1.284 . S
Zn172 O171 1.899 . S
Zn172 O173 2.032 . S
Zn172 O176 2.086 . S
Zn172 O181 1.977 . S
O173 Zn172 2.032 . S
O173 C177 1.278 . S
C174 O175 1.203 . S
C174 O181 1.267 . S
O175 C174 1.203 . S
O176 C169 1.185 . S
O176 Zn172 2.086 . S
C177 O173 1.278 . S
C177 O178 1.211 . S
O178 C177 1.211 . S
C179 O171 1.284 . S
C179 O180 1.273 . S
O180 C179 1.273 . S
O181 Zn172 1.977 . S
O181 C174 1.267 . S
C182 O183 1.160 . S
C182 O189 1.166 1_565 S
O183 C182 1.160 . S
O184 Zn185 1.899 . S
O184 C192 1.284 . S
Zn185 O184 1.899 . S
Zn185 O186 2.032 . S
Zn185 O189 2.086 1_565 S
Zn185 O194 1.977 1_565 S
O186 Zn185 2.032 . S
O186 C190 1.278 . S
C187 O188 1.203 1_545 S
C187 O194 1.267 . S
O188 C187 1.203 1_565 S
O189 C182 1.166 1_545 S
O189 Zn185 2.086 1_545 S
C190 O186 1.278 . S
C190 O191 1.211 . S
O191 C190 1.211 . S
C192 O184 1.284 . S
C192 O193 1.273 . S
O193 C192 1.273 . S
O194 Zn185 1.977 1_545 S
O194 C187 1.267 . S
C195 O196 1.160 . S
C195 O202 1.185 . S
O196 C195 1.160 . S
O197 Zn198 1.899 . S
O197 C205 1.284 . S
Zn198 O197 1.899 . S
Zn198 O199 2.032 . S
Zn198 O202 2.086 . S
Zn198 O207 1.977 . S
O199 Zn198 2.032 . S
O199 C203 1.278 . S
C200 O201 1.203 . S
C200 O207 1.267 . S
O201 C200 1.203 . S
O202 C195 1.185 . S
O202 Zn198 2.086 . S
C203 O199 1.278 . S
C203 O204 1.211 . S
O204 C203 1.211 . S
C205 O197 1.284 . S
C205 O206 1.273 . S
O206 C205 1.273 . S
O207 Zn198 1.977 . S
O207 C200 1.267 . S
C208 O209 1.160 . S
C208 O215 1.185 . S
O209 C208 1.160 . S
O210 Zn211 1.899 . S
O210 C218 1.284 . S
Zn211 O210 1.899 . S
Zn211 O212 2.032 . S
Zn211 O215 2.086 . S
Zn211 O220 1.977 . S
O212 Zn211 2.032 . S
O212 C216 1.278 . S
C213 O214 1.203 . S
C213 O220 1.267 . S
O214 C213 1.203 . S
O215 C208 1.185 . S
O215 Zn211 2.086 . S
C216 O212 1.278 . S
C216 O217 1.211 . S
O217 C216 1.211 . S
C218 O210 1.284 . S
C218 O219 1.273 . S
O219 C218 1.273 . S
O220 Zn211 1.977 . S
O220 C213 1.267 . S
C221 O222 1.160 . S
C221 O228 1.185 . S
O222 C221 1.160 . S
O223 Zn224 1.899 . S
O223 C231 1.284 . S
Zn224 O223 1.899 . S
Zn224 O225 2.032 . S
Zn224 O228 2.086 . S
Zn224 O233 1.977 . S
O225 Zn224 2.032 . S
O225 C229 1.278 . S
C226 O227 1.203 . S
C226 O233 1.267 . S
O227 C226 1.203 . S
O228 C221 1.185 . S
O228 Zn224 2.086 . S
C229 O225 1.278 . S
C229 O230 1.211 . S
O230 C229 1.211 . S
C231 O223 1.284 . S
C231 O232 1.273 . S
O232 C231 1.273 . S
O233 Zn224 1.977 . S
O233 C226 1.267 . S
C234 O235 1.160 . S
C234 O241 1.185 . S
O235 C234 1.160 . S
O236 Zn237 1.899 . S
O236 C244 1.284 . S
Zn237 O236 1.899 . S
Zn237 O238 2.032 . S
Zn237 O241 2.086 . S
Zn237 O246 1.977 . S
O238 Zn237 2.032 . S
O238 C242 1.278 . S
C239 O240 1.203 . S
C239 O246 1.267 . S
O240 C239 1.203 . S
O241 C234 1.185 . S
O241 Zn237 2.086 . S
C242 O238 1.278 . S
C242 O243 1.211 1_554 S
O243 C242 1.211 1_556 S
C244 O236 1.284 . S
C244 O245 1.273 . S
O245 C244 1.273 . S
O246 Zn237 1.977 . S
O246 C239 1.267 . S
C247 O248 1.160 . S
C247 O254 1.185 . S
O248 C247 1.160 . S
O249 Zn250 1.899 . S
O249 C257 1.284 . S
Zn250 O249 1.899 . S
Zn250 O251 2.032 . S
Zn250 O254 2.086 . S
Zn250 O259 1.977 . S
O251 Zn250 2.032 . S
O251 C255 1.278 . S
C252 O253 1.203 . S
C252 O259 1.267 . S
O253 C252 1.203 . S
O254 C247 1.185 . S
O254 Zn250 2.086 . S
C255 O251 1.278 . S
C255 O256 1.211 1_554 S
O256 C255 1.211 1_556 S
C257 O249 1.284 . S
C257 O258 1.273 . S
O258 C257 1.273 . S
O259 Zn250 1.977 . S
O259 C252 1.267 . S
C260 O261 1.160 . S
C260 O267 1.185 . S
O261 C260 1.160 . S
O262 Zn263 1.899 . S
O262 C270 1.284 . S
Zn263 O262 1.899 . S
Zn263 O264 2.032 . S
Zn263 O267 2.086 . S
Zn263 O272 1.977 . S
O264 Zn263 2.032 . S
O264 C268 1.278 . S
C265 O266 1.203 . S
C265 O272 1.267 . S
O266 C265 1.203 . S
O267 C260 1.185 . S
O267 Zn263 2.086 . S
C268 O264 1.278 . S
C268 O269 1.211 1_554 S
O269 C268 1.211 1_556 S
C270 O262 1.284 . S
C270 O271 1.273 . S
O271 C270 1.273 . S
O272 Zn263 1.977 . S
O272 C265 1.267 . S
C273 O274 1.160 . S
C273 O280 1.182 1_565 S
O274 C273 1.160 . S
O275 Zn276 1.899 . S
O275 C283 1.284 . S
Zn276 O275 1.899 . S
Zn276 O277 2.032 . S
Zn276 O280 2.065 1_565 S
Zn276 O285 1.977 1_565 S
O277 Zn276 2.032 . S
O277 C281 1.278 . S
C278 O279 1.203 1_545 S
C278 O285 1.267 . S
O279 C278 1.203 1_565 S
O280 C273 1.182 1_545 S
O280 Zn276 2.065 1_545 S
C281 O277 1.278 . S
C281 O282 1.211 . S
O282 C281 1.211 . S
C283 O275 1.284 . S
C283 O284 1.273 . S
O284 C283 1.273 . S
O285 Zn276 1.977 1_545 S
O285 C278 1.267 . S
C286 O287 1.160 . S
C286 O293 1.166 1_455 S
O287 C286 1.160 . S
O288 Zn289 1.899 . S
O288 C296 1.284 . S
Zn289 O288 1.899 . S
Zn289 O290 2.032 . S
Zn289 O293 2.086 1_455 S
Zn289 O298 1.977 1_455 S
O290 Zn289 2.032 . S
O290 C294 1.278 . S
C291 O292 1.203 1_655 S
C291 O298 1.267 . S
O292 C291 1.203 1_455 S
O293 C286 1.166 1_655 S
O293 Zn289 2.086 1_655 S
C294 O290 1.278 . S
C294 O295 1.211 . S
O295 C294 1.211 . S
C296 O288 1.284 . S
C296 O297 1.273 . S
O297 C296 1.273 . S
O298 Zn289 1.977 1_655 S
O298 C291 1.267 . S
C299 O300 1.160 . S
C299 O306 1.185 . S
O300 C299 1.160 . S
O301 Zn302 1.899 . S
O301 C309 1.284 . S
Zn302 O301 1.899 . S
Zn302 O303 2.032 . S
Zn302 O306 2.086 . S
Zn302 O311 1.977 . S
O303 Zn302 2.032 . S
O303 C307 1.278 . S
C304 O305 1.203 . S
C304 O311 1.267 . S
O305 C304 1.203 . S
O306 C299 1.185 . S
O306 Zn302 2.086 . S
C307 O303 1.278 . S
C307 O308 1.211 . S
O308 C307 1.211 . S
C309 O301 1.284 . S
C309 O310 1.273 . S
O310 C309 1.273 . S
O311 Zn302 1.977 . S
O311 C304 1.267 . S
C312 O313 1.160 . S
C312 O319 1.185 . S
O313 C312 1.160 . S
O314 Zn315 1.899 . S
O314 C322 1.284 . S
Zn315 O314 1.899 . S
Zn315 O316 2.032 . S
Zn315 O319 2.086 . S
Zn315 O324 1.977 . S
O316 Zn315 2.032 . S
O316 C320 1.278 . S
C317 O318 1.203 . S
C317 O324 1.267 . S
O318 C317 1.203 . S
O319 C312 1.185 . S
O319 Zn315 2.086 . S
C320 O316 1.278 . S
C320 O321 1.211 1_556 S
O321 C320 1.211 1_554 S
C322 O314 1.284 . S
C322 O323 1.273 . S
O323 C322 1.273 . S
O324 Zn315 1.977 . S
O324 C317 1.267 . S
C325 O326 1.160 . S
C325 O332 1.185 . S
O326 C325 1.160 . S
O327 Zn328 1.899 . S
O327 C335 1.284 . S
Zn328 O327 1.899 . S
Zn328 O329 2.032 . S
Zn328 O332 2.086 . S
Zn328 O337 1.977 . S
O329 Zn328 2.032 . S
O329 C333 1.278 . S
C330 O331 1.203 . S
C330 O337 1.267 . S
O331 C330 1.203 . S
O332 C325 1.185 . S
O332 Zn328 2.086 . S
C333 O329 1.278 . S
C333 O334 1.211 1_556 S
O334 C333 1.211 1_554 S
C335 O327 1.284 . S
C335 O336 1.273 . S
O336 C335 1.273 . S
O337 Zn328 1.977 . S
O337 C330 1.267 . S
C338 O339 1.160 . S
C338 O345 1.185 . S
O339 C338 1.160 . S
O340 Zn341 1.899 . S
O340 C348 1.284 . S
Zn341 O340 1.899 . S
Zn341 O342 2.032 . S
Zn341 O345 2.086 . S
Zn341 O350 1.977 . S
O342 Zn341 2.032 . S
O342 C346 1.278 . S
C343 O344 1.203 . S
C343 O350 1.267 . S
O344 C343 1.203 . S
O345 C338 1.185 . S
O345 Zn341 2.086 . S
C346 O342 1.278 . S
C346 O347 1.211 1_556 S
O347 C346 1.211 1_554 S
C348 O340 1.284 . S
C348 O349 1.273 . S
O349 C348 1.273 . S
O350 Zn341 1.977 . S
O350 C343 1.267 . S
C351 O352 1.160 . S
C351 O358 1.182 1_545 S
O352 C351 1.160 . S
O353 Zn354 1.899 . S
O353 C361 1.284 . S
Zn354 O353 1.899 . S
Zn354 O355 2.032 . S
Zn354 O358 2.065 1_545 S
Zn354 O363 1.977 1_545 S
O355 Zn354 2.032 . S
O355 C359 1.278 . S
C356 O357 1.203 1_565 S
C356 O363 1.267 . S
O357 C356 1.203 1_545 S
O358 C351 1.182 1_565 S
O358 Zn354 2.065 1_565 S
C359 O355 1.278 . S
C359 O360 1.211 . S
O360 C359 1.211 . S
C361 O353 1.284 . S
C361 O362 1.273 . S
O362 C361 1.273 . S
O363 Zn354 1.977 1_565 S
O363 C356 1.267 . S
C364 O365 1.160 . S
C364 O371 1.166 1_655 S
O365 C364 1.160 . S
O366 Zn367 1.899 . S
O366 C374 1.284 . S
Zn367 O366 1.899 . S
Zn367 O368 2.032 . S
Zn367 O371 2.086 1_655 S
Zn367 O376 1.977 1_655 S
O368 Zn367 2.032 . S
O368 C372 1.278 . S
C369 O370 1.203 1_455 S
C369 O376 1.267 . S
O370 C369 1.203 1_655 S
O371 C364 1.166 1_455 S
O371 Zn367 2.086 1_455 S
C372 O368 1.278 . S
C372 O373 1.211 . S
O373 C372 1.211 . S
C374 O366 1.284 . S
C374 O375 1.273 . S
O375 C374 1.273 . S
O376 Zn367 1.977 1_455 S
O376 C369 1.267 . S
C377 O378 1.160 . S
C377 O384 1.185 . S
O378 C377 1.160 . S
O379 Zn380 1.899 . S
O379 C387 1.284 . S
Zn380 O379 1.899 . S
Zn380 O381 2.032 . S
Zn380 O384 2.086 . S
Zn380 O389 1.977 . S
O381 Zn380 2.032 . S
O381 C385 1.278 . S
C382 O383 1.203 . S
C382 O389 1.267 . S
O383 C382 1.203 . S
O384 C377 1.185 . S
O384 Zn380 2.086 . S
C385 O381 1.278 . S
C385 O386 1.211 . S
O386 C385 1.211 . S
C387 O379 1.284 . S
C387 O388 1.273 . S
O388 C387 1.273 . S
O389 Zn380 1.977 . S
O389 C382 1.267 . S
C390 O391 1.160 . S
C390 O397 1.182 1_655 S
O391 C390 1.160 . S
O392 Zn393 1.899 . S
O392 C400 1.284 . S
Zn393 O392 1.899 . S
Zn393 O394 2.032 . S
Zn393 O397 2.065 1_655 S
Zn393 O402 1.977 1_655 S
O394 Zn393 2.032 . S
O394 C398 1.278 . S
C395 O396 1.203 1_455 S
C395 O402 1.267 . S
O396 C395 1.203 1_655 S
O397 C390 1.182 1_455 S
O397 Zn393 2.065 1_455 S
C398 O394 1.278 . S
C398 O399 1.211 . S
O399 C398 1.211 . S
C400 O392 1.284 . S
C400 O401 1.273 . S
O401 C400 1.273 . S
O402 Zn393 1.977 1_455 S
O402 C395 1.267 . S
C403 O404 1.160 . S
C403 O410 1.185 . S
O404 C403 1.160 . S
O405 Zn406 1.899 . S
O405 C413 1.284 . S
Zn406 O405 1.899 . S
Zn406 O407 2.032 . S
Zn406 O410 2.086 . S
Zn406 O415 1.977 . S
O407 Zn406 2.032 . S
O407 C411 1.278 . S
C408 O409 1.203 . S
C408 O415 1.267 . S
O409 C408 1.203 . S
O410 C403 1.185 . S
O410 Zn406 2.086 . S
C411 O407 1.278 . S
C411 O412 1.211 . S
O412 C411 1.211 . S
C413 O405 1.284 . S
C413 O414 1.273 . S
O414 C413 1.273 . S
O415 Zn406 1.977 . S
O415 C408 1.267 . S
C416 O417 1.160 . S
C416 O423 1.166 1_545 S
O417 C416 1.160 . S
O418 Zn419 1.899 . S
O418 C426 1.284 . S
Zn419 O418 1.899 . S
Zn419 O420 2.032 . S
Zn419 O423 2.086 1_545 S
Zn419 O428 1.977 1_545 S
O420 Zn419 2.032 . S
O420 C424 1.278 . S
C421 O422 1.203 1_565 S
C421 O428 1.267 . S
O422 C421 1.203 1_545 S
O423 C416 1.166 1_565 S
O423 Zn419 2.086 1_565 S
C424 O420 1.278 . S
C424 O425 1.211 . S
O425 C424 1.211 . S
C426 O418 1.284 . S
C426 O427 1.273 . S
O427 C426 1.273 . S
O428 Zn419 1.977 1_565 S
O428 C421 1.267 . S
C429 O430 1.160 . S
C429 O436 1.185 . S
O430 C429 1.160 . S
O431 Zn432 1.899 . S
O431 C439 1.284 . S
Zn432 O431 1.899 . S
Zn432 O433 2.032 . S
Zn432 O436 2.086 . S
Zn432 O441 1.977 . S
O433 Zn432 2.032 . S
O433 C437 1.278 . S
C434 O435 1.203 . S
C434 O441 1.267 . S
O435 C434 1.203 . S
O436 C429 1.185 . S
O436 Zn432 2.086 . S
C437 O433 1.278 . S
C437 O438 1.211 . S
O438 C437 1.211 . S
C439 O431 1.284 . S
C439 O440 1.273 . S
O440 C439 1.273 . S
O441 Zn432 1.977 . S
O441 C434 1.267 . S
C442 O443 1.160 . S
C442 O449 1.185 . S
O443 C442 1.160 . S
O444 Zn445 1.899 . S
O444 C452 1.284 . S
Zn445 O444 1.899 . S
Zn445 O446 2.032 . S
Zn445 O449 2.086 . S
Zn445 O454 1.977 . S
O446 Zn445 2.032 . S
O446 C450 1.278 . S
C447 O448 1.203 . S
C447 O454 1.267 . S
O448 C447 1.203 . S
O449 C442 1.185 . S
O449 Zn445 2.086 . S
C450 O446 1.278 . S
C450 O451 1.211 . S
O451 C450 1.211 . S
C452 O444 1.284 . S
C452 O453 1.273 . S
O453 C452 1.273 . S
O454 Zn445 1.977 . S
O454 C447 1.267 . S
C455 O456 1.160 . S
C455 O462 1.185 . S
O456 C455 1.160 . S
O457 Zn458 1.899 . S
O457 C465 1.284 . S
Zn458 O457 1.899 . S
Zn458 O459 2.032 . S
Zn458 O462 2.086 . S
Zn458 O467 1.977 . S
O459 Zn458 2.032 . S
O459 C463 1.278 . S
C460 O461 1.203 . S
C460 O467 1.267 . S
O461 C460 1.203 . S
O462 C455 1.185 . S
O462 Zn458 2.086 . S
C463 O459 1.278 . S
C463 O464 1.211 . S
O464 C463 1.211 . S
C465 O457 1.284 . S
C465 O466 1.273 . S
O466 C465 1.273 . S
O467 Zn458 1.977 . S
O467 C460 1.267 . S
C468 C469 1.387 . S
C468 H472 0.950 . S
C468 C477 1.390 1_565 S
C469 C468 1.387 . S
C469 C471 1.387 . S
H470 C477 0.950 . S
C471 C469 1.387 . S
C471 C473 1.390 1_565 S
C471 H475 0.950 . S
H472 C468 0.950 . S
C473 C471 1.390 1_545 S
C473 C474 1.387 . S
C473 H476 0.950 . S
C474 C473 1.387 . S
C474 C477 1.387 . S
H475 C471 0.950 . S
H476 C473 0.950 . S
C477 C468 1.390 1_545 S
C477 H470 0.950 . S
C477 C474 1.387 . S
C478 C479 1.387 . S
C478 H482 0.950 . S
C478 C487 1.390 1_455 S
C479 C478 1.387 . S
C479 C481 1.387 . S
H480 C487 0.950 . S
C481 C479 1.387 . S
C481 C483 1.390 1_455 S
C481 H485 0.950 . S
H482 C478 0.950 . S
C483 C481 1.390 1_655 S
C483 C484 1.387 . S
C483 H486 0.950 . S
C484 C483 1.387 . S
C484 C487 1.387 . S
H485 C481 0.950 . S
H486 C483 0.950 . S
C487 C478 1.390 1_655 S
C487 H480 0.950 . S
C487 C484 1.387 . S
C488 C489 1.387 . S
C488 H492 0.950 . S
C488 C497 1.390 . S
C489 C488 1.387 . S
C489 C491 1.387 . S
H490 C497 0.950 . S
C491 C489 1.387 . S
C491 C493 1.390 . S
C491 H495 0.950 . S
H492 C488 0.950 . S
C493 C491 1.390 . S
C493 C494 1.387 . S
C493 H496 0.950 . S
C494 C493 1.387 . S
C494 C497 1.387 . S
H495 C491 0.950 . S
H496 C493 0.950 . S
C497 C488 1.390 . S
C497 H490 0.950 . S
C497 C494 1.387 . S
C498 C499 1.387 . S
C498 H502 0.950 . S
C498 C507 1.390 1_565 S
C499 C498 1.387 . S
C499 C501 1.387 . S
H500 C507 0.950 . S
C501 C499 1.387 . S
C501 C503 1.390 1_565 S
C501 H505 0.950 . S
H502 C498 0.950 . S
C503 C501 1.390 1_545 S
C503 C504 1.387 . S
C503 H506 0.950 . S
C504 C503 1.387 . S
C504 C507 1.387 . S
H505 C501 0.950 . S
H506 C503 0.950 . S
C507 C498 1.390 1_545 S
C507 H500 0.950 . S
C507 C504 1.387 . S
C508 C509 1.387 . S
C508 H512 0.950 . S
C508 C517 1.390 1_455 S
C509 C508 1.387 . S
C509 C511 1.387 . S
H510 C517 0.950 . S
C511 C509 1.387 . S
C511 C513 1.390 1_455 S
C511 H515 0.950 . S
H512 C508 0.950 . S
C513 C511 1.390 1_655 S
C513 C514 1.387 . S
C513 H516 0.950 . S
C514 C513 1.387 . S
C514 C517 1.387 . S
H515 C511 0.950 . S
H516 C513 0.950 . S
C517 C508 1.390 1_655 S
C517 H510 0.950 . S
C517 C514 1.387 . S
C518 C519 1.387 . S
C518 H522 0.950 . S
C518 C527 1.390 . S
C519 C518 1.387 . S
C519 C521 1.387 . S
H520 C527 0.950 . S
C521 C519 1.387 . S
C521 C523 1.390 . S
C521 H525 0.950 . S
H522 C518 0.950 . S
C523 C521 1.390 . S
C523 C524 1.387 . S
C523 H526 0.950 . S
C524 C523 1.387 . S
C524 C527 1.387 . S
H525 C521 0.950 . S
H526 C523 0.950 . S
C527 C518 1.390 . S
C527 H520 0.950 . S
C527 C524 1.387 . S
C528 C529 1.387 . S
C528 H532 0.950 1_655 S
C528 C537 1.390 . S
C529 C528 1.387 . S
C529 C531 1.387 . S
H530 C537 0.950 . S
C531 C529 1.387 . S
C531 C533 1.390 . S
C531 H535 0.950 . S
H532 C528 0.950 1_455 S
C533 C531 1.390 . S
C533 C534 1.387 . S
C533 H536 0.950 . S
C534 C533 1.387 . S
C534 C537 1.387 . S
H535 C531 0.950 . S
H536 C533 0.950 . S
C537 C528 1.390 . S
C537 H530 0.950 . S
C537 C534 1.387 . S
C538 C539 1.387 . S
C538 H542 0.950 . S
C538 C547 1.390 . S
C539 C538 1.387 . S
C539 C541 1.387 . S
H540 C547 0.950 . S
C541 C539 1.387 . S
C541 C543 1.390 . S
C541 H545 0.950 . S
H542 C538 0.950 . S
C543 C541 1.390 . S
C543 C544 1.387 . S
C543 H546 0.950 . S
C544 C543 1.387 . S
C544 C547 1.387 . S
H545 C541 0.950 . S
H546 C543 0.950 . S
C547 C538 1.390 . S
C547 H540 0.950 . S
C547 C544 1.387 . S
C548 C549 1.387 . S
C548 H552 0.950 . S
C548 C557 1.390 . S
C549 C548 1.387 . S
C549 C551 1.387 . S
H550 C557 0.950 . S
C551 C549 1.387 . S
C551 C553 1.390 . S
C551 H555 0.950 . S
H552 C548 0.950 . S
C553 C551 1.390 . S
C553 C554 1.387 . S
C553 H556 0.950 . S
C554 C553 1.387 . S
C554 C557 1.387 . S
H555 C551 0.950 . S
H556 C553 0.950 . S
C557 C548 1.390 . S
C557 H550 0.950 . S
C557 C554 1.387 . S
C558 C559 1.387 . S
C558 H562 0.950 . S
C558 C567 1.390 . S
C559 C558 1.387 . S
C559 C561 1.387 . S
H560 C567 0.950 . S
C561 C559 1.387 . S
C561 C563 1.390 . S
C561 H565 0.950 . S
H562 C558 0.950 . S
C563 C561 1.390 . S
C563 C564 1.387 . S
C563 H566 0.950 . S
C564 C563 1.387 . S
C564 C567 1.387 . S
H565 C561 0.950 . S
H566 C563 0.950 . S
C567 C558 1.390 . S
C567 H560 0.950 . S
C567 C564 1.387 . S
C568 C569 1.387 . S
C568 H572 0.950 . S
C568 C577 1.390 . S
C569 C568 1.387 . S
C569 C571 1.387 . S
H570 C577 0.950 . S
C571 C569 1.387 . S
C571 C573 1.390 . S
C571 H575 0.950 1_545 S
H572 C568 0.950 . S
C573 C571 1.390 . S
C573 C574 1.387 . S
C573 H576 0.950 . S
C574 C573 1.387 . S
C574 C577 1.387 . S
H575 C571 0.950 1_565 S
H576 C573 0.950 . S
C577 C568 1.390 . S
C577 H570 0.950 . S
C577 C574 1.387 . S
C578 C579 1.387 . S
C578 H582 0.950 . S
C578 C587 1.390 . S
C579 C578 1.387 . S
C579 C581 1.387 . S
H580 C587 0.950 1_455 S
C581 C579 1.387 . S
C581 C583 1.390 . S
C581 H585 0.950 . S
H582 C578 0.950 . S
C583 C581 1.390 . S
C583 C584 1.387 . S
C583 H586 0.950 . S
C584 C583 1.387 . S
C584 C587 1.387 . S
H585 C581 0.950 . S
H586 C583 0.950 . S
C587 C578 1.390 . S
C587 H580 0.950 1_655 S
C587 C584 1.387 . S
C588 C589 1.387 . S
C588 H592 0.950 . S
C588 C597 1.390 . S
C589 C588 1.387 . S
C589 C591 1.387 . S
H590 C597 0.950 . S
C591 C589 1.387 . S
C591 C593 1.390 . S
C591 H595 0.950 . S
H592 C588 0.950 . S
C593 C591 1.390 . S
C593 C594 1.387 . S
C593 H596 0.950 . S
C594 C593 1.387 . S
C594 C597 1.387 . S
H595 C591 0.950 . S
H596 C593 0.950 . S
C597 C588 1.390 . S
C597 H590 0.950 . S
C597 C594 1.387 . S
C598 C599 1.387 . S
C598 H602 0.950 1_556 S
C598 C607 1.390 . S
C599 C598 1.387 . S
C599 C601 1.387 . S
H600 C607 0.950 . S
C601 C599 1.387 . S
C601 C603 1.390 . S
C601 H605 0.950 . S
H602 C598 0.950 1_554 S
C603 C601 1.390 . S
C603 C604 1.387 . S
C603 H606 0.950 . S
C604 C603 1.387 . S
C604 C607 1.387 . S
H605 C601 0.950 . S
H606 C603 0.950 . S
C607 C598 1.390 . S
C607 H600 0.950 . S
C607 C604 1.387 . S
C608 C609 1.387 . S
C608 H612 0.950 . S
C608 C617 1.390 . S
C609 C608 1.387 . S
C609 C611 1.387 . S
H610 C617 0.950 . S
C611 C609 1.387 . S
C611 C613 1.390 . S
C611 H615 0.950 . S
H612 C608 0.950 . S
C613 C611 1.390 . S
C613 C614 1.387 . S
C613 H616 0.950 . S
C614 C613 1.387 . S
C614 C617 1.387 . S
H615 C611 0.950 . S
H616 C613 0.950 . S
C617 C608 1.390 . S
C617 H610 0.950 . S
C617 C614 1.387 . S
C618 C619 1.387 . S
C618 H622 0.950 . S
C618 C627 1.390 . S
C619 C618 1.387 . S
C619 C621 1.387 . S
H620 C627 0.950 . S
C621 C619 1.387 . S
C621 C623 1.390 . S
C621 H625 0.950 . S
H622 C618 0.950 . S
C623 C621 1.390 . S
C623 C624 1.387 . S
C623 H626 0.950 1_455 S
C624 C623 1.387 . S
C624 C627 1.387 . S
H625 C621 0.950 . S
H626 C623 0.950 1_655 S
C627 C618 1.390 . S
C627 H620 0.950 . S
C627 C624 1.387 . S
C628 C629 1.387 . S
C628 H632 0.950 . S
C628 C637 1.390 . S
C629 C628 1.387 . S
C629 C631 1.387 . S
H630 C637 0.950 . S
C631 C629 1.387 . S
C631 C633 1.390 . S
C631 H635 0.950 . S
H632 C628 0.950 . S
C633 C631 1.390 . S
C633 C634 1.387 . S
C633 H636 0.950 . S
C634 C633 1.387 . S
C634 C637 1.387 . S
H635 C631 0.950 . S
H636 C633 0.950 . S
C637 C628 1.390 . S
C637 H630 0.950 . S
C637 C634 1.387 . S
C638 C639 1.387 . S
C638 H642 0.950 . S
C638 C647 1.390 . S
C639 C638 1.387 . S
C639 C641 1.387 . S
H640 C647 0.950 . S
C641 C639 1.387 . S
C641 C643 1.390 . S
C641 H645 0.950 . S
H642 C638 0.950 . S
C643 C641 1.390 . S
C643 C644 1.387 . S
C643 H646 0.950 . S
C644 C643 1.387 . S
C644 C647 1.387 . S
H645 C641 0.950 . S
H646 C643 0.950 . S
C647 C638 1.390 . S
C647 H640 0.950 . S
C647 C644 1.387 . S
C648 C649 1.387 . S
C648 H652 0.950 . S
C648 C657 1.390 . S
C649 C648 1.387 . S
C649 C651 1.387 . S
H650 C657 0.950 . S
C651 C649 1.387 . S
C651 C653 1.390 . S
C651 H655 0.950 . S
H652 C648 0.950 . S
C653 C651 1.390 . S
C653 C654 1.387 . S
C653 H656 0.950 . S
C654 C653 1.387 . S
C654 C657 1.387 . S
H655 C651 0.950 . S
H656 C653 0.950 . S
C657 C648 1.390 . S
C657 H650 0.950 . S
C657 C654 1.387 . S
C658 C659 1.387 . S
C658 H662 0.950 . S
C658 C667 1.390 . S
C659 C658 1.387 . S
C659 C661 1.387 . S
H660 C667 0.950 . S
C661 C659 1.387 . S
C661 C663 1.390 . S
C661 H665 0.950 . S
H662 C658 0.950 . S
C663 C661 1.390 . S
C663 C664 1.387 . S
C663 H666 0.950 . S
C664 C663 1.387 . S
C664 C667 1.387 . S
H665 C661 0.950 . S
H666 C663 0.950 . S
C667 C658 1.390 . S
C667 H660 0.950 . S
C667 C664 1.387 . S
C668 C669 1.387 . S
C668 H672 0.950 . S
C668 C677 1.390 . S
C669 C668 1.387 . S
C669 C671 1.387 . S
H670 C677 0.950 . S
C671 C669 1.387 . S
C671 C673 1.390 . S
C671 H675 0.950 . S
H672 C668 0.950 . S
C673 C671 1.390 . S
C673 C674 1.387 . S
C673 H676 0.950 . S
C674 C673 1.387 . S
C674 C677 1.387 . S
H675 C671 0.950 . S
H676 C673 0.950 . S
C677 C668 1.390 . S
C677 H670 0.950 . S
C677 C674 1.387 . S
C678 C679 1.387 . S
C678 H682 0.950 . S
C678 C687 1.390 . S
C679 C678 1.387 . S
C679 C681 1.387 . S
H680 C687 0.950 . S
C681 C679 1.387 . S
C681 C683 1.390 . S
C681 H685 0.950 . S
H682 C678 0.950 . S
C683 C681 1.390 . S
C683 C684 1.387 . S
C683 H686 0.950 . S
C684 C683 1.387 . S
C684 C687 1.387 . S
H685 C681 0.950 . S
H686 C683 0.950 . S
C687 C678 1.390 . S
C687 H680 0.950 . S
C687 C684 1.387 . S
C688 C689 1.387 . S
C688 H692 0.950 . S
C688 C697 1.390 . S
C689 C688 1.387 . S
C689 C691 1.387 . S
H690 C697 0.950 . S
C691 C689 1.387 . S
C691 C693 1.390 . S
C691 H695 0.950 . S
H692 C688 0.950 . S
C693 C691 1.390 . S
C693 C694 1.387 . S
C693 H696 0.950 . S
C694 C693 1.387 . S
C694 C697 1.387 . S
H695 C691 0.950 . S
H696 C693 0.950 . S
C697 C688 1.390 . S
C697 H690 0.950 . S
C697 C694 1.387 . S
C698 C699 1.387 . S
C698 H702 0.950 . S
C698 C707 1.390 . S
C699 C698 1.387 . S
C699 C701 1.387 . S
H700 C707 0.950 . S
C701 C699 1.387 . S
C701 C703 1.390 . S
C701 H705 0.950 . S
H702 C698 0.950 . S
C703 C701 1.390 . S
C703 C704 1.387 . S
C703 H706 0.950 . S
C704 C703 1.387 . S
C704 C707 1.387 . S
H705 C701 0.950 . S
H706 C703 0.950 . S
C707 C698 1.390 . S
C707 H700 0.950 . S
C707 C704 1.387 . S
C708 C709 1.387 . S
C708 H712 0.950 . S
C708 C717 1.390 . S
C709 C708 1.387 . S
C709 C711 1.387 . S
H710 C717 0.950 . S
C711 C709 1.387 . S
C711 C713 1.390 . S
C711 H715 0.950 . S
H712 C708 0.950 . S
C713 C711 1.390 . S
C713 C714 1.387 . S
C713 H716 0.950 . S
C714 C713 1.387 . S
C714 C717 1.387 . S
H715 C711 0.950 . S
H716 C713 0.950 . S
C717 C708 1.390 . S
C717 H710 0.950 . S
C717 C714 1.387 . S
C718 C719 1.387 . S
C718 H722 0.950 . S
C718 C727 1.390 . S
C719 C718 1.387 . S
C719 C721 1.387 . S
H720 C727 0.950 . S
C721 C719 1.387 . S
C721 C723 1.390 . S
C721 H725 0.950 . S
H722 C718 0.950 . S
C723 C721 1.390 . S
C723 C724 1.387 . S
C723 H726 0.950 . S
C724 C723 1.387 . S
C724 C727 1.387 . S
H725 C721 0.950 . S
H726 C723 0.950 . S
C727 C718 1.390 . S
C727 H720 0.950 . S
C727 C724 1.387 . S
C728 C729 1.387 . S
C728 H732 0.950 . S
C728 C737 1.390 . S
C729 C728 1.387 . S
C729 C731 1.387 . S
H730 C737 0.950 . S
C731 C729 1.387 . S
C731 C733 1.390 . S
C731 H735 0.950 . S
H732 C728 0.950 . S
C733 C731 1.390 . S
C733 C734 1.387 . S
C733 H736 0.950 . S
C734 C733 1.387 . S
C734 C737 1.387 . S
H735 C731 0.950 . S
H736 C733 0.950 . S
C737 C728 1.390 . S
C737 H730 0.950 . S
C737 C734 1.387 . S
C738 C739 1.387 . S
C738 H742 0.950 . S
C738 C747 1.390 . S
C739 C738 1.387 . S
C739 C741 1.387 . S
H740 C747 0.950 . S
C741 C739 1.387 . S
C741 C743 1.390 . S
C741 H745 0.950 . S
H742 C738 0.950 . S
C743 C741 1.390 . S
C743 C744 1.387 . S
C743 H746 0.950 . S
C744 C743 1.387 . S
C744 C747 1.387 . S
H745 C741 0.950 . S
H746 C743 0.950 . S
C747 C738 1.390 . S
C747 H740 0.950 . S
C747 C744 1.387 . S
C748 C749 1.387 . S
C748 H752 0.950 . S
C748 C757 1.390 . S
C749 C748 1.387 . S
C749 C751 1.387 . S
H750 C757 0.950 . S
C751 C749 1.387 . S
C751 C753 1.390 . S
C751 H755 0.950 . S
H752 C748 0.950 . S
C753 C751 1.390 . S
C753 C754 1.387 . S
C753 H756 0.950 . S
C754 C753 1.387 . S
C754 C757 1.387 . S
H755 C751 0.950 . S
H756 C753 0.950 . S
C757 C748 1.390 . S
C757 H750 0.950 . S
C757 C754 1.387 . S
C758 C759 1.387 . S
C758 H762 0.950 . S
C758 C767 1.390 . S
C759 C758 1.387 . S
C759 C761 1.387 . S
H760 C767 0.950 . S
C761 C759 1.387 . S
C761 C763 1.390 . S
C761 H765 0.950 . S
H762 C758 0.950 . S
C763 C761 1.390 . S
C763 C764 1.387 . S
C763 H766 0.950 . S
C764 C763 1.387 . S
C764 C767 1.387 . S
H765 C761 0.950 . S
H766 C763 0.950 . S
C767 C758 1.390 . S
C767 H760 0.950 . S
C767 C764 1.387 . S
C768 C769 1.387 . S
C768 H772 0.950 . S
C768 C777 1.390 1_455 S
C769 C768 1.387 . S
C769 C771 1.387 . S
H770 C777 0.950 . S
C771 C769 1.387 . S
C771 C773 1.390 1_455 S
C771 H775 0.950 . S
H772 C768 0.950 . S
C773 C771 1.390 1_655 S
C773 C774 1.387 . S
C773 H776 0.950 . S
C774 C773 1.387 . S
C774 C777 1.387 . S
H775 C771 0.950 . S
H776 C773 0.950 . S
C777 C768 1.390 1_655 S
C777 H770 0.950 . S
C777 C774 1.387 . S
C778 C779 1.387 . S
C778 H782 0.950 . S
C778 C787 1.390 . S
C779 C778 1.387 . S
C779 C781 1.387 . S
H780 C787 0.950 . S
C781 C779 1.387 . S
C781 C783 1.390 . S
C781 H785 0.950 . S
H782 C778 0.950 . S
C783 C781 1.390 . S
C783 C784 1.387 . S
C783 H786 0.950 . S
C784 C783 1.387 . S
C784 C787 1.387 . S
H785 C781 0.950 . S
H786 C783 0.950 . S
C787 C778 1.390 . S
C787 H780 0.950 . S
C787 C784 1.387 . S
C788 C789 1.387 . S
C788 H792 0.950 . S
C788 C797 1.390 1_545 S
C789 C788 1.387 . S
C789 C791 1.387 . S
H790 C797 0.950 . S
C791 C789 1.387 . S
C791 C793 1.390 1_545 S
C791 H795 0.950 . S
H792 C788 0.950 . S
C793 C791 1.390 1_565 S
C793 C794 1.387 . S
C793 H796 0.950 . S
C794 C793 1.387 . S
C794 C797 1.387 . S
H795 C791 0.950 . S
H796 C793 0.950 . S
C797 C788 1.390 1_565 S
C797 H790 0.950 . S
C797 C794 1.387 . S
C798 C799 1.387 . S
C798 H802 0.950 . S
C798 C807 1.390 1_565 S
C799 C798 1.387 . S
C799 C801 1.387 . S
H800 C807 0.950 . S
C801 C799 1.387 . S
C801 C803 1.390 1_565 S
C801 H805 0.950 . S
H802 C798 0.950 . S
C803 C801 1.390 1_545 S
C803 C804 1.387 . S
C803 H806 0.950 . S
C804 C803 1.387 . S
C804 C807 1.387 . S
H805 C801 0.950 . S
H806 C803 0.950 . S
C807 C798 1.390 1_545 S
C807 H800 0.950 . S
C807 C804 1.387 . S
C808 C809 1.387 1_455 S
C808 H812 0.950 . S
C808 C817 1.390 . S
C809 C808 1.387 1_655 S
C809 C811 1.387 . S
H810 C817 0.950 . S
C811 C809 1.387 . S
C811 C813 1.390 . S
C811 H815 0.950 . S
H812 C808 0.950 . S
C813 C811 1.390 . S
C813 C814 1.387 1_655 S
C813 H816 0.950 . S
C814 C813 1.387 1_455 S
C814 C817 1.387 . S
H815 C811 0.950 . S
H816 C813 0.950 . S
C817 C808 1.390 . S
C817 H810 0.950 . S
C817 C814 1.387 . S
C818 C819 1.387 . S
C818 H822 0.950 . S
C818 C827 1.390 . S
C819 C818 1.387 . S
C819 C821 1.387 . S
H820 C827 0.950 . S
C821 C819 1.387 . S
C821 C823 1.390 . S
C821 H825 0.950 . S
H822 C818 0.950 . S
C823 C821 1.390 . S
C823 C824 1.387 . S
C823 H826 0.950 . S
C824 C823 1.387 . S
C824 C827 1.387 . S
H825 C821 0.950 . S
H826 C823 0.950 . S
C827 C818 1.390 . S
C827 H820 0.950 . S
C827 C824 1.387 . S
C828 C829 1.387 . S
C828 H832 0.950 . S
C828 C837 1.390 . S
C829 C828 1.387 . S
C829 C831 1.387 . S
H830 C837 0.950 . S
C831 C829 1.387 . S
C831 C833 1.390 . S
C831 H835 0.950 . S
H832 C828 0.950 . S
C833 C831 1.390 . S
C833 C834 1.387 . S
C833 H836 0.950 . S
C834 C833 1.387 . S
C834 C837 1.387 . S
H835 C831 0.950 . S
H836 C833 0.950 . S
C837 C828 1.390 . S
C837 H830 0.950 . S
C837 C834 1.387 . S
C838 C839 1.387 . S
C838 H842 0.950 . S
C838 C847 1.390 . S
C839 C838 1.387 . S
C839 C841 1.387 . S
H840 C847 0.950 . S
C841 C839 1.387 . S
C841 C843 1.390 . S
C841 H845 0.950 . S
H842 C838 0.950 . S
C843 C841 1.390 . S
C843 C844 1.387 . S
C843 H846 0.950 . S
C844 C843 1.387 . S
C844 C847 1.387 . S
H845 C841 0.950 . S
H846 C843 0.950 . S
C847 C838 1.390 . S
C847 H840 0.950 . S
C847 C844 1.387 . S
C848 C849 1.387 . S
C848 H852 0.950 . S
C848 C857 1.390 . S
C849 C848 1.387 . S
C849 C851 1.387 . S
H850 C857 0.950 . S
C851 C849 1.387 . S
C851 C853 1.390 . S
C851 H855 0.950 . S
H852 C848 0.950 . S
C853 C851 1.390 . S
C853 C854 1.387 . S
C853 H856 0.950 . S
C854 C853 1.387 . S
C854 C857 1.387 . S
H855 C851 0.950 . S
H856 C853 0.950 . S
C857 C848 1.390 . S
C857 H850 0.950 . S
C857 C854 1.387 . S
C858 C859 1.387 . S
C858 H862 0.950 . S
C858 C867 1.390 . S
C859 C858 1.387 . S
C859 C861 1.387 . S
H860 C867 0.950 . S
C861 C859 1.387 . S
C861 C863 1.390 . S
C861 H865 0.950 . S
H862 C858 0.950 . S
C863 C861 1.390 . S
C863 C864 1.387 . S
C863 H866 0.950 . S
C864 C863 1.387 . S
C864 C867 1.387 . S
H865 C861 0.950 . S
H866 C863 0.950 . S
C867 C858 1.390 . S
C867 H860 0.950 . S
C867 C864 1.387 . S
C868 C869 1.387 . S
C868 H872 0.950 . S
C868 C877 1.390 . S
C869 C868 1.387 . S
C869 C871 1.387 . S
H870 C877 0.950 . S
C871 C869 1.387 . S
C871 C873 1.390 . S
C871 H875 0.950 . S
H872 C868 0.950 . S
C873 C871 1.390 . S
C873 C874 1.387 . S
C873 H876 0.950 . S
C874 C873 1.387 . S
C874 C877 1.387 . S
H875 C871 0.950 . S
H876 C873 0.950 . S
C877 C868 1.390 . S
C877 H870 0.950 . S
C877 C874 1.387 . S
C878 C879 1.387 . S
C878 H882 0.950 . S
C878 C887 1.390 . S
C879 C878 1.387 . S
C879 C881 1.387 . S
H880 C887 0.950 . S
C881 C879 1.387 . S
C881 C883 1.390 . S
C881 H885 0.950 . S
H882 C878 0.950 . S
C883 C881 1.390 . S
C883 C884 1.387 . S
C883 H886 0.950 . S
C884 C883 1.387 . S
C884 C887 1.387 . S
H885 C881 0.950 . S
H886 C883 0.950 . S
C887 C878 1.390 . S
C887 H880 0.950 . S
C887 C884 1.387 . S
C888 C889 1.387 . S
C888 H892 0.950 . S
C888 C897 1.390 . S
C889 C888 1.387 . S
C889 C891 1.387 . S
H890 C897 0.950 . S
C891 C889 1.387 . S
C891 C893 1.390 . S
C891 H895 0.950 . S
H892 C888 0.950 . S
C893 C891 1.390 . S
C893 C894 1.387 . S
C893 H896 0.950 . S
C894 C893 1.387 . S
C894 C897 1.387 . S
H895 C891 0.950 . S
H896 C893 0.950 . S
C897 C888 1.390 . S
C897 H890 0.950 . S
C897 C894 1.387 . S
C898 C899 1.387 . S
C898 H902 0.950 . S
C898 C907 1.390 . S
C899 C898 1.387 . S
C899 C901 1.387 . S
H900 C907 0.950 . S
C901 C899 1.387 . S
C901 C903 1.390 . S
C901 H905 0.950 . S
H902 C898 0.950 . S
C903 C901 1.390 . S
C903 C904 1.387 . S
C903 H906 0.950 . S
C904 C903 1.387 . S
C904 C907 1.387 . S
H905 C901 0.950 . S
H906 C903 0.950 . S
C907 C898 1.390 . S
C907 H900 0.950 . S
C907 C904 1.387 . S
C908 C909 1.387 . S
C908 H912 0.950 . S
C908 C917 1.390 . S
C909 C908 1.387 . S
C909 C911 1.387 . S
H910 C917 0.950 . S
C911 C909 1.387 . S
C911 C913 1.390 . S
C911 H915 0.950 . S
H912 C908 0.950 . S
C913 C911 1.390 . S
C913 C914 1.387 . S
C913 H916 0.950 . S
C914 C913 1.387 . S
C914 C917 1.387 . S
H915 C911 0.950 . S
H916 C913 0.950 . S
C917 C908 1.390 . S
C917 H910 0.950 . S
C917 C914 1.387 . S
C918 C919 1.387 . S
C918 H922 0.950 . S
C918 C927 1.390 . S
C919 C918 1.387 . S
C919 C921 1.387 . S
H920 C927 0.950 . S
C921 C919 1.387 . S
C921 C923 1.390 . S
C921 H925 0.950 . S
H922 C918 0.950 . S
C923 C921 1.390 . S
C923 C924 1.387 . S
C923 H926 0.950 . S
C924 C923 1.387 . S
C924 C927 1.387 . S
H925 C921 0.950 . S
H926 C923 0.950 . S
C927 C918 1.390 . S
C927 H920 0.950 . S
C927 C924 1.387 . S
C928 C929 1.387 . S
C928 H932 0.950 . S
C928 C937 1.390 . S
C929 C928 1.387 . S
C929 C931 1.387 . S
H930 C937 0.950 . S
C931 C929 1.387 . S
C931 C933 1.390 . S
C931 H935 0.950 . S
H932 C928 0.950 . S
C933 C931 1.390 . S
C933 C934 1.387 . S
C933 H936 0.950 . S
C934 C933 1.387 . S
C934 C937 1.387 . S
H935 C931 0.950 . S
H936 C933 0.950 . S
C937 C928 1.390 . S
C937 H930 0.950 . S
C937 C934 1.387 . S
C938 C939 1.387 . S
C938 H942 0.950 . S
C938 C947 1.390 . S
C939 C938 1.387 . S
C939 C941 1.387 . S
H940 C947 0.950 . S
C941 C939 1.387 . S
C941 C943 1.390 . S
C941 H945 0.950 . S
H942 C938 0.950 . S
C943 C941 1.390 . S
C943 C944 1.387 . S
C943 H946 0.950 . S
C944 C943 1.387 . S
C944 C947 1.387 . S
H945 C941 0.950 . S
H946 C943 0.950 . S
C947 C938 1.390 . S
C947 H940 0.950 . S
C947 C944 1.387 . S
C948 C949 1.387 . S
C948 H952 0.950 . S
C948 C957 1.363 1_455 S
C949 C948 1.387 . S
C949 C951 1.407 . S
H950 C957 0.959 . S
C951 C949 1.407 . S
C951 C953 1.363 1_455 S
C951 H955 0.959 . S
H952 C948 0.950 . S
C953 C951 1.363 1_655 S
C953 C954 1.387 . S
C953 H956 0.950 . S
C954 C953 1.387 . S
C954 C957 1.407 . S
H955 C951 0.959 . S
H956 C953 0.950 . S
C957 C948 1.363 1_655 S
C957 H950 0.959 . S
C957 C954 1.407 . S
C958 C959 1.387 . S
C958 H962 0.950 . S
C958 C967 1.390 . S
C959 C958 1.387 . S
C959 C961 1.387 . S
H960 C967 0.950 . S
C961 C959 1.387 . S
C961 C963 1.390 . S
C961 H965 0.950 . S
H962 C958 0.950 . S
C963 C961 1.390 . S
C963 C964 1.387 . S
C963 H966 0.950 . S
C964 C963 1.387 . S
C964 C967 1.387 . S
H965 C961 0.950 . S
H966 C963 0.950 . S
C967 C958 1.390 . S
C967 H960 0.950 . S
C967 C964 1.387 . S
C968 C969 1.387 . S
C968 H972 0.950 . S
C968 C977 1.390 . S
C969 C968 1.387 . S
C969 C971 1.387 1_545 S
H970 C977 0.950 . S
C971 C969 1.387 1_565 S
C971 C973 1.390 . S
C971 H975 0.950 . S
H972 C968 0.950 . S
C973 C971 1.390 . S
C973 C974 1.387 . S
C973 H976 0.950 . S
C974 C973 1.387 . S
C974 C977 1.387 1_565 S
H975 C971 0.950 . S
H976 C973 0.950 . S
C977 C968 1.390 . S
C977 H970 0.950 . S
C977 C974 1.387 1_545 S
C978 C979 1.387 1_565 S
C978 H982 0.950 . S
C978 C987 1.390 . S
C979 C978 1.387 1_545 S
C979 C981 1.387 1_556 S
H980 C987 0.950 . S
C981 C979 1.387 1_554 S
C981 C983 1.390 . S
C981 H985 0.950 . S
H982 C978 0.950 . S
C983 C981 1.390 . S
C983 C984 1.387 1_545 S
C983 H986 0.950 . S
C984 C983 1.387 1_565 S
C984 C987 1.387 1_554 S
H985 C981 0.950 . S
H986 C983 0.950 . S
C987 C978 1.390 . S
C987 H980 0.950 . S
C987 C984 1.387 1_556 S
C988 C989 1.387 1_655 S
C988 H992 0.950 . S
C988 C997 1.390 . S
C989 C988 1.387 1_455 S
C989 C991 1.387 1_554 S
H990 C997 0.950 . S
C991 C989 1.387 1_556 S
C991 C993 1.390 . S
C991 H995 0.950 . S
H992 C988 0.950 . S
C993 C991 1.390 . S
C993 C994 1.387 1_455 S
C993 H996 0.950 . S
C994 C993 1.387 1_655 S
C994 C997 1.387 1_556 S
H995 C991 0.950 . S
H996 C993 0.950 . S
C997 C988 1.390 . S
C997 H990 0.950 . S
C997 C994 1.387 1_554 S
C998 C999 1.387 . S
C998 H1002 0.950 . S
C998 C1007 1.390 . S
C999 C998 1.387 . S
C999 C1001 1.387 1_554 S
H1000 C1007 0.950 . S
C1001 C999 1.387 1_556 S
C1001 C1003 1.390 . S
C1001 H1005 0.950 . S
H1002 C998 0.950 . S
C1003 C1001 1.390 . S
C1003 C1004 1.387 . S
C1003 H1006 0.950 . S
C1004 C1003 1.387 . S
C1004 C1007 1.387 1_556 S
H1005 C1001 0.950 . S
H1006 C1003 0.950 . S
C1007 C998 1.390 . S
C1007 H1000 0.950 . S
C1007 C1004 1.387 1_554 S
C1008 C1009 1.387 . S
C1008 H1012 0.950 . S
C1008 C1017 1.390 . S
C1009 C1008 1.387 . S
C1009 C1011 1.387 . S
H1010 C1017 0.950 . S
C1011 C1009 1.387 . S
C1011 C1013 1.390 . S
C1011 H1015 0.950 . S
H1012 C1008 0.950 . S
C1013 C1011 1.390 . S
C1013 C1014 1.387 . S
C1013 H1016 0.950 . S
C1014 C1013 1.387 . S
C1014 C1017 1.387 . S
H1015 C1011 0.950 . S
H1016 C1013 0.950 . S
C1017 C1008 1.390 . S
C1017 H1010 0.950 . S
C1017 C1014 1.387 . S
C1018 C1019 1.387 . S
C1018 H1022 0.950 . S
C1018 C1027 1.390 . S
C1019 C1018 1.387 . S
C1019 C1021 1.387 . S
H1020 C1027 0.950 . S
C1021 C1019 1.387 . S
C1021 C1023 1.390 . S
C1021 H1025 0.950 . S
H1022 C1018 0.950 . S
C1023 C1021 1.390 . S
C1023 C1024 1.387 . S
C1023 H1026 0.950 . S
C1024 C1023 1.387 . S
C1024 C1027 1.387 . S
H1025 C1021 0.950 . S
H1026 C1023 0.950 . S
C1027 C1018 1.390 . S
C1027 H1020 0.950 . S
C1027 C1024 1.387 . S
C1028 C1029 1.387 . S
C1028 H1032 0.950 . S
C1028 C1037 1.390 . S
C1029 C1028 1.387 . S
C1029 C1031 1.387 . S
H1030 C1037 0.950 . S
C1031 C1029 1.387 . S
C1031 C1033 1.390 . S
C1031 H1035 0.950 . S
H1032 C1028 0.950 . S
C1033 C1031 1.390 . S
C1033 C1034 1.387 . S
C1033 H1036 0.950 . S
C1034 C1033 1.387 . S
C1034 C1037 1.387 . S
H1035 C1031 0.950 . S
H1036 C1033 0.950 . S
C1037 C1028 1.390 . S
C1037 H1030 0.950 . S
C1037 C1034 1.387 . S
C1038 C1039 1.387 . S
C1038 H1042 0.950 . S
C1038 C1047 1.390 . S
C1039 C1038 1.387 . S
C1039 C1041 1.387 . S
H1040 C1047 0.950 . S
C1041 C1039 1.387 . S
C1041 C1043 1.390 . S
C1041 H1045 0.950 . S
H1042 C1038 0.950 . S
C1043 C1041 1.390 . S
C1043 C1044 1.387 . S
C1043 H1046 0.950 . S
C1044 C1043 1.387 . S
C1044 C1047 1.387 . S
H1045 C1041 0.950 . S
H1046 C1043 0.950 . S
C1047 C1038 1.390 . S
C1047 H1040 0.950 . S
C1047 C1044 1.387 . S
C1048 C1049 1.387 . S
C1048 H1052 0.950 . S
C1048 C1057 1.390 . S
C1049 C1048 1.387 . S
C1049 C1051 1.387 . S
H1050 C1057 0.950 . S
C1051 C1049 1.387 . S
C1051 C1053 1.390 . S
C1051 H1055 0.950 . S
H1052 C1048 0.950 . S
C1053 C1051 1.390 . S
C1053 C1054 1.387 . S
C1053 H1056 0.950 . S
C1054 C1053 1.387 . S
C1054 C1057 1.387 . S
H1055 C1051 0.950 . S
H1056 C1053 0.950 . S
C1057 C1048 1.390 . S
C1057 H1050 0.950 . S
C1057 C1054 1.387 . S
C1058 C1059 1.387 . S
C1058 H1062 0.950 . S
C1058 C1067 1.390 . S
C1059 C1058 1.387 . S
C1059 C1061 1.387 . S
H1060 C1067 0.950 . S
C1061 C1059 1.387 . S
C1061 C1063 1.390 . S
C1061 H1065 0.950 . S
H1062 C1058 0.950 . S
C1063 C1061 1.390 . S
C1063 C1064 1.387 . S
C1063 H1066 0.950 . S
C1064 C1063 1.387 . S
C1064 C1067 1.387 . S
H1065 C1061 0.950 . S
H1066 C1063 0.950 . S
C1067 C1058 1.390 . S
C1067 H1060 0.950 . S
C1067 C1064 1.387 . S
C1068 C1069 1.387 . S
C1068 H1072 0.950 . S
C1068 C1077 1.390 . S
C1069 C1068 1.387 . S
C1069 C1071 1.387 . S
H1070 C1077 0.950 . S
C1071 C1069 1.387 . S
C1071 C1073 1.390 . S
C1071 H1075 0.950 . S
H1072 C1068 0.950 . S
C1073 C1071 1.390 . S
C1073 C1074 1.387 . S
C1073 H1076 0.950 . S
C1074 C1073 1.387 . S
C1074 C1077 1.387 . S
H1075 C1071 0.950 . S
H1076 C1073 0.950 . S
C1077 C1068 1.390 . S
C1077 H1070 0.950 . S
C1077 C1074 1.387 . S
C1078 C1079 1.387 . S
C1078 H1082 0.950 . S
C1078 C1087 1.390 . S
C1079 C1078 1.387 . S
C1079 C1081 1.387 . S
H1080 C1087 0.950 . S
C1081 C1079 1.387 . S
C1081 C1083 1.390 . S
C1081 H1085 0.950 . S
H1082 C1078 0.950 . S
C1083 C1081 1.390 . S
C1083 C1084 1.387 . S
C1083 H1086 0.950 . S
C1084 C1083 1.387 . S
C1084 C1087 1.387 . S
H1085 C1081 0.950 . S
H1086 C1083 0.950 . S
C1087 C1078 1.390 . S
C1087 H1080 0.950 . S
C1087 C1084 1.387 . S
C1088 C1089 1.387 . S
C1088 H1092 0.950 . S
C1088 C1097 1.390 . S
C1089 C1088 1.387 . S
C1089 C1091 1.387 . S
H1090 C1097 0.950 . S
C1091 C1089 1.387 . S
C1091 C1093 1.390 . S
C1091 H1095 0.950 . S
H1092 C1088 0.950 . S
C1093 C1091 1.390 . S
C1093 C1094 1.387 . S
C1093 H1096 0.950 . S
C1094 C1093 1.387 . S
C1094 C1097 1.387 . S
H1095 C1091 0.950 . S
H1096 C1093 0.950 . S
C1097 C1088 1.390 . S
C1097 H1090 0.950 . S
C1097 C1094 1.387 . S
C1098 C1099 1.387 . S
C1098 H1102 0.950 . S
C1098 C1107 1.390 . S
C1099 C1098 1.387 . S
C1099 C1101 1.387 . S
H1100 C1107 0.950 . S
C1101 C1099 1.387 . S
C1101 C1103 1.390 . S
C1101 H1105 0.950 . S
H1102 C1098 0.950 . S
C1103 C1101 1.390 . S
C1103 C1104 1.387 . S
C1103 H1106 0.950 . S
C1104 C1103 1.387 . S
C1104 C1107 1.387 . S
H1105 C1101 0.950 . S
H1106 C1103 0.950 . S
C1107 C1098 1.390 . S
C1107 H1100 0.950 . S
C1107 C1104 1.387 . S
C1108 C1109 1.387 . S
C1108 H1112 0.950 . S
C1108 C1117 1.390 . S
C1109 C1108 1.387 . S
C1109 C1111 1.387 . S
H1110 C1117 0.950 . S
C1111 C1109 1.387 . S
C1111 C1113 1.390 . S
C1111 H1115 0.950 . S
H1112 C1108 0.950 . S
C1113 C1111 1.390 . S
C1113 C1114 1.387 . S
C1113 H1116 0.950 . S
C1114 C1113 1.387 . S
C1114 C1117 1.387 . S
H1115 C1111 0.950 . S
H1116 C1113 0.950 . S
C1117 C1108 1.390 . S
C1117 H1110 0.950 . S
C1117 C1114 1.387 . S
C1118 C1119 1.387 . S
C1118 H1122 0.950 . S
C1118 C1127 1.390 . S
C1119 C1118 1.387 . S
C1119 C1121 1.387 . S
H1120 C1127 0.950 . S
C1121 C1119 1.387 . S
C1121 C1123 1.390 . S
C1121 H1125 0.950 . S
H1122 C1118 0.950 . S
C1123 C1121 1.390 . S
C1123 C1124 1.387 . S
C1123 H1126 0.950 . S
C1124 C1123 1.387 . S
C1124 C1127 1.387 . S
H1125 C1121 0.950 . S
H1126 C1123 0.950 . S
C1127 C1118 1.390 . S
C1127 H1120 0.950 . S
C1127 C1124 1.387 . S
C1128 C1129 1.387 . S
C1128 H1132 0.950 . S
C1128 C1137 1.390 . S
C1129 C1128 1.387 . S
C1129 C1131 1.387 . S
H1130 C1137 0.950 . S
C1131 C1129 1.387 . S
C1131 C1133 1.390 . S
C1131 H1135 0.950 . S
H1132 C1128 0.950 . S
C1133 C1131 1.390 . S
C1133 C1134 1.387 . S
C1133 H1136 0.950 . S
C1134 C1133 1.387 . S
C1134 C1137 1.387 . S
H1135 C1131 0.950 . S
H1136 C1133 0.950 . S
C1137 C1128 1.390 . S
C1137 H1130 0.950 . S
C1137 C1134 1.387 . S
C1138 C1139 1.387 . S
C1138 H1142 0.950 . S
C1138 C1147 1.390 1_545 S
C1139 C1138 1.387 . S
C1139 C1141 1.387 . S
H1140 C1147 0.950 . S
C1141 C1139 1.387 . S
C1141 C1143 1.390 1_545 S
C1141 H1145 0.950 . S
H1142 C1138 0.950 . S
C1143 C1141 1.390 1_565 S
C1143 C1144 1.387 . S
C1143 H1146 0.950 . S
C1144 C1143 1.387 . S
C1144 C1147 1.387 . S
H1145 C1141 0.950 . S
H1146 C1143 0.950 . S
C1147 C1138 1.390 1_565 S
C1147 H1140 0.950 . S
C1147 C1144 1.387 . S
C1148 C1149 1.385 1_455 S
C1148 H1152 0.939 . S
C1148 C1157 1.404 . S
C1149 C1148 1.385 1_655 S
C1149 C1151 1.387 . S
H1150 C1157 0.950 . S
C1151 C1149 1.387 . S
C1151 C1153 1.405 . S
C1151 H1155 0.950 . S
H1152 C1148 0.939 . S
C1153 C1151 1.405 . S
C1153 C1154 1.385 1_655 S
C1153 H1156 0.938 . S
C1154 C1153 1.385 1_455 S
C1154 C1157 1.387 . S
H1155 C1151 0.950 . S
H1156 C1153 0.938 . S
C1157 C1148 1.404 . S
C1157 H1150 0.950 . S
C1157 C1154 1.387 . S
C1158 C1159 1.387 . S
C1158 H1162 0.950 . S
C1158 C1167 1.390 . S
C1159 C1158 1.387 . S
C1159 C1161 1.387 . S
H1160 C1167 0.950 . S
C1161 C1159 1.387 . S
C1161 C1163 1.390 . S
C1161 H1165 0.950 . S
H1162 C1158 0.950 . S
C1163 C1161 1.390 . S
C1163 C1164 1.387 . S
C1163 H1166 0.950 . S
C1164 C1163 1.387 . S
C1164 C1167 1.387 . S
H1165 C1161 0.950 . S
H1166 C1163 0.950 . S
C1167 C1158 1.390 . S
C1167 H1160 0.950 . S
C1167 C1164 1.387 . S
C1168 C1169 1.387 . S
C1168 H1172 0.950 . S
C1168 C1177 1.390 1_545 S
C1169 C1168 1.387 . S
C1169 C1171 1.387 . S
H1170 C1177 0.950 . S
C1171 C1169 1.387 . S
C1171 C1173 1.390 1_545 S
C1171 H1175 0.950 . S
H1172 C1168 0.950 . S
C1173 C1171 1.390 1_565 S
C1173 C1174 1.387 . S
C1173 H1176 0.950 . S
C1174 C1173 1.387 . S
C1174 C1177 1.387 . S
H1175 C1171 0.950 . S
H1176 C1173 0.950 . S
C1177 C1168 1.390 1_565 S
C1177 H1170 0.950 . S
C1177 C1174 1.387 . S
C1178 C1179 1.387 . S
C1178 H1182 0.950 . S
C1178 C1187 1.390 . S
C1179 C1178 1.387 . S
C1179 C1181 1.387 1_455 S
H1180 C1187 0.950 . S
C1181 C1179 1.387 1_655 S
C1181 C1183 1.390 . S
C1181 H1185 0.950 . S
H1182 C1178 0.950 . S
C1183 C1181 1.390 . S
C1183 C1184 1.387 . S
C1183 H1186 0.950 . S
C1184 C1183 1.387 . S
C1184 C1187 1.387 1_655 S
H1185 C1181 0.950 . S
H1186 C1183 0.950 . S
C1187 C1178 1.390 . S
C1187 H1180 0.950 . S
C1187 C1184 1.387 1_455 S
C469 C70 0.858 . S
C474 C5 0.858 . S
C479 C44 0.857 . S
C484 C18 0.863 . S
C489 C31 0.859 . S
C494 C57 0.857 . S
C499 C83 0.861 . S
C504 C148 0.861 . S
C509 C96 0.863 . S
C514 C122 0.858 . S
C519 C135 0.856 . S
C524 C109 0.861 . S
C529 C161 0.861 . S
C534 C226 0.861 . S
C539 C174 0.862 . S
C544 C200 0.857 . S
C549 C213 0.863 . S
C554 C187 0.858 . S
C559 C304 0.861 . S
C564 C239 0.861 . S
C569 C278 0.860 . S
C574 C252 0.861 . S
C579 C265 0.856 . S
C584 C291 0.859 . S
C589 C382 0.861 . S
C594 C317 0.861 . S
C599 C356 0.861 . S
C604 C330 0.856 . S
C609 C343 0.861 . S
C614 C369 0.856 . S
C619 C460 0.861 . S
C624 C395 0.861 . S
C629 C434 0.857 . S
C634 C408 0.859 . S
C639 C447 0.856 . S
C644 C421 0.861 . S
C649 C216 1.513 . S
C654 C8 1.512 . S
C659 C229 1.510 . S
C664 C21 1.508 . S
C669 C203 1.513 . S
C674 C34 1.513 . S
C679 C47 1.508 . S
C684 C346 1.508 1_554 S
C689 C60 1.508 . S
C694 C320 1.509 1_554 S
C699 C73 1.509 . S
C704 C333 1.508 1_554 S
C709 C86 1.509 . S
C714 C450 1.508 . S
C719 C463 1.509 . S
C724 C99 1.508 . S
C729 C437 1.513 . S
C734 C112 1.513 . S
C739 C268 1.513 1_556 S
C744 C125 1.513 . S
C749 C242 1.510 1_556 S
C754 C138 1.508 . S
C759 C151 1.512 . S
C764 C255 1.514 1_556 S
C769 C164 1.514 . S
C774 C372 1.513 . S
C779 C385 1.512 . S
C784 C177 1.513 . S
C789 C359 1.508 . S
C794 C190 1.508 . S
C799 C281 1.514 . S
C804 C424 1.513 . S
C809 C398 1.509 . S
C814 C294 1.511 . S
C819 C307 1.512 . S
C824 C411 1.509 . S
C829 C234 1.322 . S
C834 C0 1.322 . S
C839 C247 1.322 . S
C844 C13 1.322 . S
C849 C26 1.323 . S
C854 C260 1.323 . S
C859 C39 1.321 . S
C864 C429 1.321 . S
C869 C442 1.323 . S
C874 C52 1.323 . S
C879 C455 1.320 . S
C884 C65 1.320 . S
C889 C78 1.320 . S
C894 C312 1.320 . S
C899 C91 1.323 . S
C904 C325 1.323 . S
C909 C338 1.322 . S
C914 C104 1.322 . S
C919 C117 1.322 . S
C924 C195 1.322 . S
C929 C130 1.323 . S
C934 C208 1.323 . S
C939 C221 1.323 . S
C944 C143 1.323 . S
C949 C156 1.320 . S
C954 C390 1.320 . S
C959 C169 1.321 . S
C964 C403 1.321 . S
C969 C416 1.323 . S
C974 C182 1.323 . S
C979 C351 1.322 . S
C984 C273 1.322 . S
C989 C286 1.321 . S
C994 C364 1.321 . S
C999 C299 1.321 . S
C1004 C377 1.321 . S
C1009 C361 1.753 1_554 S
C1014 C10 1.752 . S
C1019 C23 1.752 . S
C1024 C374 1.752 1_554 S
C1029 C387 1.754 1_554 S
C1034 C36 1.753 . S
C1039 C49 1.753 . S
C1044 C166 1.752 . S
C1049 C179 1.752 . S
C1054 C62 1.752 . S
C1059 C192 1.752 . S
C1064 C75 1.754 . S
C1069 C88 1.752 . S
C1074 C283 1.753 1_556 S
C1079 C296 1.753 1_556 S
C1084 C101 1.753 . S
C1089 C114 1.753 . S
C1094 C309 1.752 1_556 S
C1099 C127 1.753 . S
C1104 C400 1.752 . S
C1109 C140 1.753 . S
C1114 C413 1.753 . S
C1119 C426 1.753 . S
C1124 C153 1.752 . S
C1129 C205 1.753 . S
C1134 C322 1.752 . S
C1139 C218 1.753 . S
C1144 C335 1.753 . S
C1149 C231 1.753 . S
C1154 C348 1.753 . S
C1159 C244 1.753 . S
C1164 C439 1.752 . S
C1169 C257 1.753 . S
C1174 C452 1.753 . S
C1179 C465 1.754 . S
C1184 C270 1.753 . S
