# Generated by pormake.
# Topology ghw, (5)-cn, num edge types: 1
# Building blocks:
#     Node 0, Type 0, BuildingBlock: BEQFEK_clean_sbu_0, # of connection points: 5
#     Node 1, Type 0, BuildingBlock: BEQFEK_clean_sbu_0, # of connection points: 5
#     Node 2, Type 0, BuildingBlock: BEQFEK_clean_sbu_0, # of connection points: 5
#     Node 3, Type 0, BuildingBlock: BEQFEK_clean_sbu_0, # of connection points: 5
#     Node 4, Type 0, BuildingBlock: BEQFEK_clean_sbu_0, # of connection points: 5
#     Node 5, Type 0, BuildingBlock: BEQFEK_clean_sbu_0, # of connection points: 5
#     Node 6, Type 0, BuildingBlock: BEQFEK_clean_sbu_0, # of connection points: 5
#     Node 7, Type 0, BuildingBlock: BEQFEK_clean_sbu_0, # of connection points: 5
#     Node 8, Type 0, BuildingBlock: BEQFEK_clean_sbu_0, # of connection points: 5
#     Node 9, Type 0, BuildingBlock: BEQFEK_clean_sbu_0, # of connection points: 5
#     Node 10, Type 0, BuildingBlock: BEQFEK_clean_sbu_0, # of connection points: 5
#     Node 11, Type 0, BuildingBlock: BEQFEK_clean_sbu_0, # of connection points: 5
#     Node 12, Type 0, BuildingBlock: BEQFEK_clean_sbu_0, # of connection points: 5
#     Node 13, Type 0, BuildingBlock: BEQFEK_clean_sbu_0, # of connection points: 5
#     Node 14, Type 0, BuildingBlock: BEQFEK_clean_sbu_0, # of connection points: 5
#     Node 15, Type 0, BuildingBlock: BEQFEK_clean_sbu_0, # of connection points: 5
#     Edge 16, Type (0, 0), BuildingBlock: UVAHIK_clean_linker_0, # of connection points: 2
#     Edge 17, Type (0, 0), BuildingBlock: UVAHIK_clean_linker_0, # of connection points: 2
#     Edge 18, Type (0, 0), BuildingBlock: UVAHIK_clean_linker_0, # of connection points: 2
#     Edge 19, Type (0, 0), BuildingBlock: UVAHIK_clean_linker_0, # of connection points: 2
#     Edge 20, Type (0, 0), BuildingBlock: UVAHIK_clean_linker_0, # of connection points: 2
#     Edge 21, Type (0, 0), BuildingBlock: UVAHIK_clean_linker_0, # of connection points: 2
#     Edge 22, Type (0, 0), BuildingBlock: UVAHIK_clean_linker_0, # of connection points: 2
#     Edge 23, Type (0, 0), BuildingBlock: UVAHIK_clean_linker_0, # of connection points: 2
#     Edge 24, Type (0, 0), BuildingBlock: UVAHIK_clean_linker_0, # of connection points: 2
#     Edge 25, Type (0, 0), BuildingBlock: UVAHIK_clean_linker_0, # of connection points: 2
#     Edge 26, Type (0, 0), BuildingBlock: UVAHIK_clean_linker_0, # of connection points: 2
#     Edge 27, Type (0, 0), BuildingBlock: UVAHIK_clean_linker_0, # of connection points: 2
#     Edge 28, Type (0, 0), BuildingBlock: UVAHIK_clean_linker_0, # of connection points: 2
#     Edge 29, Type (0, 0), BuildingBlock: UVAHIK_clean_linker_0, # of connection points: 2
#     Edge 30, Type (0, 0), BuildingBlock: UVAHIK_clean_linker_0, # of connection points: 2
#     Edge 31, Type (0, 0), BuildingBlock: UVAHIK_clean_linker_0, # of connection points: 2
#     Edge 32, Type (0, 0), BuildingBlock: UVAHIK_clean_linker_0, # of connection points: 2
#     Edge 33, Type (0, 0), BuildingBlock: UVAHIK_clean_linker_0, # of connection points: 2
#     Edge 34, Type (0, 0), BuildingBlock: UVAHIK_clean_linker_0, # of connection points: 2
#     Edge 35, Type (0, 0), BuildingBlock: UVAHIK_clean_linker_0, # of connection points: 2
#     Edge 36, Type (0, 0), BuildingBlock: UVAHIK_clean_linker_0, # of connection points: 2
#     Edge 37, Type (0, 0), BuildingBlock: UVAHIK_clean_linker_0, # of connection points: 2
#     Edge 38, Type (0, 0), BuildingBlock: UVAHIK_clean_linker_0, # of connection points: 2
#     Edge 39, Type (0, 0), BuildingBlock: UVAHIK_clean_linker_0, # of connection points: 2
#     Edge 40, Type (0, 0), BuildingBlock: UVAHIK_clean_linker_0, # of connection points: 2
#     Edge 41, Type (0, 0), BuildingBlock: UVAHIK_clean_linker_0, # of connection points: 2
#     Edge 42, Type (0, 0), BuildingBlock: UVAHIK_clean_linker_0, # of connection points: 2
#     Edge 43, Type (0, 0), BuildingBlock: UVAHIK_clean_linker_0, # of connection points: 2
#     Edge 44, Type (0, 0), BuildingBlock: UVAHIK_clean_linker_0, # of connection points: 2
#     Edge 45, Type (0, 0), BuildingBlock: UVAHIK_clean_linker_0, # of connection points: 2
#     Edge 46, Type (0, 0), BuildingBlock: UVAHIK_clean_linker_0, # of connection points: 2
#     Edge 47, Type (0, 0), BuildingBlock: UVAHIK_clean_linker_0, # of connection points: 2
#     Edge 48, Type (0, 0), BuildingBlock: UVAHIK_clean_linker_0, # of connection points: 2
#     Edge 49, Type (0, 0), BuildingBlock: UVAHIK_clean_linker_0, # of connection points: 2
#     Edge 50, Type (0, 0), BuildingBlock: UVAHIK_clean_linker_0, # of connection points: 2
#     Edge 51, Type (0, 0), BuildingBlock: UVAHIK_clean_linker_0, # of connection points: 2
#     Edge 52, Type (0, 0), BuildingBlock: UVAHIK_clean_linker_0, # of connection points: 2
#     Edge 53, Type (0, 0), BuildingBlock: UVAHIK_clean_linker_0, # of connection points: 2
#     Edge 54, Type (0, 0), BuildingBlock: UVAHIK_clean_linker_0, # of connection points: 2
#     Edge 55, Type (0, 0), BuildingBlock: UVAHIK_clean_linker_0, # of connection points: 2
# Relax obj value: 0.406
# Max RMSD: 0.273
# Mean RMSD: 0.273
data_MOF--net-ghw--node1-BEQFEK_clean_sbu_0--edge1-UVAHIK_clean_linker_0
_symmetry_space_group_name_H-M    P1
_symmetry_Int_Tables_number       1
_symmetry_cell_setting            triclinic
loop_
_symmetry_equiv_pos_as_xyz
'x, y, z'
_cell_length_a     42.268562
_cell_length_b     58.075814
_cell_length_c     38.612994
_cell_angle_alpha  116.76688
_cell_angle_beta   89.995585
_cell_angle_gamma 89.968716
loop_
_atom_site_label
_atom_site_type_symbol
_atom_site_fract_x
_atom_site_fract_y
_atom_site_fract_z
_atom_type_partial_charge
Co0 Co 0.11642 0.10541 0.36353 0.0
Co1 Co 0.06315 0.14636 0.40422 0.0
C2 C 0.07416 0.12326 0.31819 0.0
O3 O 0.0968 0.10942 0.32024 0.0
O4 O 0.05884 0.13844 0.34838 0.0
C5 C 0.15542 0.06364 0.30854 0.0
O6 O 0.13776 0.06499 0.28153 0.0
C7 C -0.00069 0.16855 0.42408 0.0
C8 C 0.00723 0.20108 0.48209 0.0
C9 C 0.98404 0.18886 0.45448 0.0
N10 N 0.02998 0.16895 0.4334 0.0
N11 N 0.0346 0.18851 0.46799 0.0
C12 C 0.98506 0.1479 0.38799 0.0
H13 H 0.00022 0.1304 0.37639 0.0
H14 H 0.96094 0.14296 0.39385 0.0
H15 H 0.98344 0.15491 0.36565 0.0
C16 C 0.08159 0.07802 0.39988 0.0
N17 N 0.0854 0.09837 0.3925 0.0
N18 N 0.0632 0.11555 0.41043 0.0
C19 C 0.04472 0.10676 0.43041 0.0
C20 C 0.05577 0.08265 0.42434 0.0
C21 C 0.10158 0.0542 0.38222 0.0
H22 H 0.12514 0.05841 0.39641 0.0
H23 H 0.10511 0.04845 0.35093 0.0
H24 H 0.09058 0.03793 0.38541 0.0
O25 O 0.14012 0.13709 0.39676 0.0
O26 O 0.10252 0.16605 0.4253 0.0
H27 H 0.0113 0.11374 0.47666 0.0
H28 H 0.99765 0.1217 0.43906 0.0
C29 C 0.01839 0.12188 0.45677 0.0
H30 H 0.02587 0.14216 0.47424 0.0
H31 H 0.05641 0.19312 0.48216 0.0
O32 O 0.14913 0.07808 0.34401 0.0
C33 C 0.13161 0.15992 0.41982 0.0
Co34 Co 0.11253 0.15834 0.91405 0.0
Co35 Co 0.05993 0.11639 0.87409 0.0
C36 C 0.07125 0.14006 0.95995 0.0
O37 O 0.09309 0.15437 0.95757 0.0
O38 O 0.05634 0.12428 0.9299 0.0
C39 C 0.15945 0.1912 0.96485 0.0
O40 O 0.15248 0.17835 0.98447 0.0
C41 C 0.99767 0.09001 0.85373 0.0
C42 C 0.00467 0.06413 0.79134 0.0
C43 C 0.98248 0.07178 0.82082 0.0
N44 N 0.02723 0.09331 0.84381 0.0
N45 N 0.0313 0.07757 0.80658 0.0
C46 C 0.98499 0.10336 0.89423 0.0
H47 H 0.00336 0.10405 0.91505 0.0
H48 H 0.97854 0.12348 0.90105 0.0
H49 H 0.96402 0.09327 0.89807 0.0
C50 C 0.07733 0.18407 0.87528 0.0
N51 N 0.08125 0.16448 0.88445 0.0
N52 N 0.05884 0.14724 0.86796 0.0
C53 C 0.03974 0.15546 0.84779 0.0
C54 C 0.05086 0.17904 0.85168 0.0
C55 C 0.10006 0.20607 0.88671 0.0
H56 H 0.12456 0.19847 0.88012 0.0
H57 H 0.09841 0.21847 0.91847 0.0
H58 H 0.09534 0.21785 0.87129 0.0
O59 O 0.1372 0.12707 0.88125 0.0
O60 O 0.10008 0.09756 0.85302 0.0
H61 H 0.01835 0.12358 0.80015 0.0
H62 H 0.99621 0.15332 0.81678 0.0
C63 C 0.01096 0.1413 0.82607 0.0
H64 H 0.99652 0.13552 0.8448 0.0
H65 H 0.05219 0.07629 0.79141 0.0
O66 O 0.14374 0.18675 0.93444 0.0
C67 C 0.12908 0.1041 0.85832 0.0
Co68 Co 0.88505 0.8969 0.65008 0.0
Co69 Co 0.93564 0.85391 0.60649 0.0
C70 C 0.92946 0.87868 0.69315 0.0
O71 O 0.90709 0.89305 0.69213 0.0
O72 O 0.94291 0.86244 0.66215 0.0
C73 C 0.83898 0.92921 0.70266 0.0
O74 O 0.84628 0.91528 0.7205 0.0
C75 C 0.99778 0.82896 0.58237 0.0
C76 C 0.98662 0.79656 0.52529 0.0
C77 C 0.01117 0.80786 0.55124 0.0
N78 N 0.96685 0.82984 0.57508 0.0
N79 N 0.9603 0.81036 0.54103 0.0
C80 C 0.01406 0.84912 0.61725 0.0
H81 H 0.00018 0.8673 0.62941 0.0
H82 H 0.03824 0.85281 0.6097 0.0
H83 H 0.01589 0.84232 0.63982 0.0
C84 C 0.9183 0.92191 0.60898 0.0
N85 N 0.91461 0.90219 0.61784 0.0
N86 N 0.93583 0.88426 0.59903 0.0
C87 C 0.95355 0.89197 0.57709 0.0
C88 C 0.94301 0.9161 0.58269 0.0
C89 C 0.89928 0.94626 0.62689 0.0
H90 H 0.87512 0.94236 0.61429 0.0
H91 H 0.89707 0.95276 0.65856 0.0
H92 H 0.91025 0.96188 0.62197 0.0
O93 O 0.85903 0.86599 0.61969 0.0
O94 O 0.89483 0.8357 0.58918 0.0
H95 H 0.98566 0.88356 0.52909 0.0
H96 H -0.00025 0.87528 0.56622 0.0
C97 C 0.97868 0.87582 0.54951 0.0
H98 H 0.96997 0.85582 0.53264 0.0
H99 H 0.93788 0.80661 0.52837 0.0
O100 O 0.85422 0.92563 0.67227 0.0
C101 C 0.86613 0.8428 0.59658 0.0
Co102 Co 0.8861 0.84878 0.09737 0.0
Co103 Co 0.93843 0.89054 0.1386 0.0
C104 C 0.93024 0.86514 0.05198 0.0
O105 O 0.9074 0.85144 0.05389 0.0
O106 O 0.94457 0.88112 0.08245 0.0
C107 C 0.84447 0.80899 0.04341 0.0
O108 O 0.85966 0.81213 0.01616 0.0
C109 C 0.00175 0.91357 0.1608 0.0
C110 C 0.99189 0.94672 0.21762 0.0
C111 C 0.01601 0.93436 0.19149 0.0
N112 N 0.97074 0.91383 0.16856 0.0
N113 N 0.96498 0.93377 0.20242 0.0
C114 C 0.01725 0.89263 0.12604 0.0
H115 H 0.00244 0.87496 0.11433 0.0
H116 H 0.0411 0.88823 0.13355 0.0
H117 H 0.01979 0.89909 0.10316 0.0
C118 C 0.91912 0.8235 0.13827 0.0
N119 N 0.91595 0.84304 0.12889 0.0
N120 N 0.93768 0.86061 0.14704 0.0
C121 C 0.95514 0.85293 0.16922 0.0
C122 C 0.94396 0.82912 0.16433 0.0
C123 C 0.89936 0.79956 0.12123 0.0
H124 H 0.87559 0.80395 0.1349 0.0
H125 H 0.8963 0.79306 0.08967 0.0
H126 H 0.91027 0.78375 0.12577 0.0
O127 O 0.86176 0.88063 0.12797 0.0
O128 O 0.89866 0.91011 0.15698 0.0
H129 H 0.98664 0.86172 0.21788 0.0
H130 H 0.00181 0.86868 0.17989 0.0
C131 C 0.98039 0.86896 0.19665 0.0
H132 H 0.9722 0.88919 0.21266 0.0
H133 H 0.94269 0.93837 0.2154 0.0
O134 O 0.85338 0.82148 0.07845 0.0
C135 C 0.86973 0.90371 0.15044 0.0
Co136 Co 0.10999 0.60073 0.85159 0.0
Co137 Co 0.05742 0.64146 0.89706 0.0
C138 C 0.06433 0.61946 0.81052 0.0
O139 O 0.0874 0.60518 0.8101 0.0
O140 O 0.05063 0.63456 0.84213 0.0
C141 C 0.15222 0.56275 0.79481 0.0
O142 O 0.1372 0.56732 0.76876 0.0
C143 C 0.99552 0.66751 0.9207 0.0
C144 C 0.00288 0.69135 0.98363 0.0
C145 C 0.98077 0.68522 0.95435 0.0
N146 N 0.02507 0.66354 0.92971 0.0
N147 N 0.02937 0.67799 0.96731 0.0
C148 C 0.98112 0.65293 0.88135 0.0
H149 H 0.99237 0.63368 0.86584 0.0
H150 H 0.95525 0.65057 0.88348 0.0
H151 H 0.98521 0.66376 0.86432 0.0
C152 C 0.07848 0.57254 0.8892 0.0
N153 N 0.08113 0.59317 0.88224 0.0
N154 N 0.0588 0.60996 0.90114 0.0
C155 C 0.04102 0.60042 0.92069 0.0
C156 C 0.05294 0.57641 0.91384 0.0
C157 C 0.10121 0.55038 0.87409 0.0
H158 H 0.12576 0.55786 0.88058 0.0
H159 H 0.09881 0.53964 0.84209 0.0
H160 H 0.09719 0.53709 0.88713 0.0
O161 O 0.13405 0.63227 0.88382 0.0
O162 O 0.09724 0.66103 0.91642 0.0
H163 H 0.01987 0.6306 0.97083 0.0
H164 H -0.0016 0.60048 0.95199 0.0
C165 C 0.01237 0.61354 0.94402 0.0
H166 H 0.99713 0.6203 0.92708 0.0
H167 H 0.05031 0.67845 0.98193 0.0
O168 O 0.14294 0.57371 0.82985 0.0
C169 C 0.12615 0.65489 0.90842 0.0
Co170 Co 0.10488 0.65507 0.41572 0.0
Co171 Co 0.05553 0.61193 0.36941 0.0
C172 C 0.0603 0.63533 0.45628 0.0
O173 O 0.08256 0.6503 0.45692 0.0
O174 O 0.04762 0.61945 0.42445 0.0
C175 C 0.15132 0.68712 0.4681 0.0
O176 O 0.14458 0.67308 0.48594 0.0
C177 C 0.9938 0.58695 0.34304 0.0
C178 C 0.00604 0.55499 0.28592 0.0
C179 C 0.98096 0.56609 0.31113 0.0
N180 N 0.02492 0.58793 0.33688 0.0
N181 N 0.03213 0.5687 0.30282 0.0
C182 C 0.97685 0.60686 0.37757 0.0
H183 H 0.99074 0.62501 0.39071 0.0
H184 H 0.95301 0.61072 0.3693 0.0
H185 H 0.97411 0.59969 0.39963 0.0
C186 C 0.07202 0.68093 0.37548 0.0
N187 N 0.07566 0.66087 0.38359 0.0
N188 N 0.05511 0.64274 0.3634 0.0
C189 C 0.03796 0.6506 0.34122 0.0
C190 C 0.04811 0.67509 0.34819 0.0
C191 C 0.09052 0.70548 0.39466 0.0
H192 H 0.11492 0.70205 0.38277 0.0
H193 H 0.0921 0.71158 0.42627 0.0
H194 H 0.07949 0.7212 0.38998 0.0
O195 O 0.13161 0.62457 0.38482 0.0
O196 O 0.09651 0.59422 0.35225 0.0
H197 H 0.00803 0.64205 0.2913 0.0
H198 H 0.99228 0.63312 0.32702 0.0
C199 C 0.01408 0.63419 0.31185 0.0
H200 H 0.02349 0.61438 0.29523 0.0
H201 H 0.05482 0.5651 0.29091 0.0
O202 O 0.13532 0.68385 0.4384 0.0
C203 C 0.12503 0.60152 0.3606 0.0
Co204 Co 0.88546 0.39074 0.1404 0.0
Co205 Co 0.93794 0.34864 0.10057 0.0
C206 C 0.92811 0.37376 0.18681 0.0
O207 O 0.90576 0.38761 0.18411 0.0
O208 O 0.94292 0.35768 0.15683 0.0
C209 C 0.84566 0.43204 0.19488 0.0
O210 O 0.86152 0.42932 0.22205 0.0
C211 C 0.00085 0.32411 0.07948 0.0
C212 C 0.99182 0.29339 0.02024 0.0
C213 C 0.01537 0.30401 0.04791 0.0
N214 N 0.97029 0.32514 0.07065 0.0
N215 N 0.96501 0.30659 0.03536 0.0
C216 C 0.01589 0.34348 0.11614 0.0
H217 H 0.00131 0.36127 0.12948 0.0
H218 H 0.04007 0.34836 0.11034 0.0
H219 H 0.01757 0.33526 0.13703 0.0
C220 C 0.92005 0.41588 0.10052 0.0
N221 N 0.91612 0.39627 0.10959 0.0
N222 N 0.93828 0.37883 0.09259 0.0
C223 C 0.95702 0.38684 0.07184 0.0
C224 C 0.94614 0.41064 0.07635 0.0
C225 C 0.898 0.43842 0.11329 0.0
H226 H 0.87332 0.43134 0.1063 0.0
H227 H 0.89969 0.45002 0.14523 0.0
H228 H 0.90333 0.45082 0.09903 0.0
O229 O 0.86097 0.35926 0.10922 0.0
O230 O 0.89781 0.32946 0.08116 0.0
H231 H 0.97803 0.35301 0.0271 0.0
H232 H 0.99769 0.38268 0.03509 0.0
C233 C 0.98539 0.37238 0.04934 0.0
H234 H 0.00224 0.36975 0.06923 0.0
H235 H 0.94317 0.30322 0.02131 0.0
O236 O 0.85341 0.41864 0.15958 0.0
C237 C 0.86887 0.33612 0.08697 0.0
Co238 Co 0.88536 0.3516 0.60149 0.0
Co239 Co 0.93947 0.3926 0.63914 0.0
C240 C 0.9264 0.36805 0.55332 0.0
O241 O 0.90416 0.3544 0.55671 0.0
O242 O 0.94205 0.38374 0.58277 0.0
C243 C 0.84384 0.3111 0.54888 0.0
O244 O 0.85941 0.31321 0.52101 0.0
C245 C 0.00273 0.41776 0.65728 0.0
C246 C 0.99683 0.44435 0.71958 0.0
C247 C 0.01859 0.43603 0.68958 0.0
N248 N 0.9732 0.41512 0.66805 0.0
N249 N 0.96982 0.43126 0.70523 0.0
C250 C 0.0148 0.40377 0.61656 0.0
H251 H 0.99583 0.40196 0.59581 0.0
H252 H 0.02231 0.38406 0.61085 0.0
H253 H 0.03502 0.41405 0.61153 0.0
C254 C 0.92041 0.32578 0.64018 0.0
N255 N 0.91683 0.34522 0.6306 0.0
N256 N 0.93977 0.36209 0.64628 0.0
C257 C 0.95886 0.35376 0.66631 0.0
C258 C 0.9472 0.3305 0.66316 0.0
C259 C 0.89708 0.30428 0.62972 0.0
H260 H 0.8729 0.31242 0.63753 0.0
H261 H 0.89765 0.29195 0.59788 0.0
H262 H 0.90205 0.29232 0.64479 0.0
O263 O 0.86233 0.38362 0.63419 0.0
O264 O 0.90016 0.41264 0.66115 0.0
H265 H 0.98141 0.38554 0.71291 0.0
H266 H 0.00262 0.35539 0.69663 0.0
C267 C 0.98815 0.36747 0.68717 0.0
H268 H 0.00263 0.37263 0.66777 0.0
H269 H 0.94911 0.4331 0.72098 0.0
O270 O 0.8524 0.3245 0.58386 0.0
C271 C 0.87101 0.40653 0.6565 0.0
Co272 Co 0.60851 0.09447 0.83642 0.0
Co273 Co 0.55617 0.13613 0.8795 0.0
C274 C 0.5654 0.11344 0.79312 0.0
O275 O 0.58779 0.09899 0.79395 0.0
O276 O 0.55106 0.12881 0.82404 0.0
C277 C 0.65617 0.06224 0.78501 0.0
O278 O 0.64859 0.07462 0.76488 0.0
C279 C 0.49623 0.16559 0.90126 0.0
C280 C 0.50054 0.18588 0.96513 0.0
C281 C 0.48055 0.1825 0.9348 0.0
N282 N 0.52392 0.15899 0.91144 0.0
N283 N 0.52647 0.17141 0.94962 0.0
C284 C 0.48673 0.15754 0.86009 0.0
H285 H 0.48312 0.13635 0.84511 0.0
H286 H 0.46513 0.16759 0.85781 0.0
H287 H 0.5062 0.16229 0.84523 0.0
C288 C 0.57477 0.06756 0.8745 0.0
N289 N 0.57818 0.08769 0.86647 0.0
N290 N 0.55583 0.10478 0.88418 0.0
C291 C 0.53719 0.09585 0.90383 0.0
C292 C 0.54864 0.07203 0.89849 0.0
C293 C 0.59761 0.04552 0.86152 0.0
H294 H 0.62209 0.05313 0.86822 0.0
H295 H 0.59577 0.03386 0.8296 0.0
H296 H 0.5932 0.03303 0.87584 0.0
O297 O 0.63315 0.1256 0.86922 0.0
O298 O 0.59633 0.15492 0.89981 0.0
H299 H 0.51569 0.1254 0.95433 0.0
H300 H 0.49276 0.09613 0.93186 0.0
C301 C 0.50835 0.10943 0.92619 0.0
H302 H 0.49487 0.11769 0.9098 0.0
H303 H 0.54585 0.16981 0.96514 0.0
O304 O 0.64033 0.06651 0.81528 0.0
C305 C 0.62527 0.1484 0.89319 0.0
Co306 Co 0.61031 0.14812 0.39379 0.0
Co307 Co 0.5585 0.10646 0.34992 0.0
C308 C 0.56639 0.12917 0.43632 0.0
O309 O 0.5889 0.14368 0.43599 0.0
O310 O 0.55249 0.11377 0.40511 0.0
C311 C 0.65251 0.18584 0.44968 0.0
O312 O 0.63835 0.18017 0.47515 0.0
C313 C 0.4965 0.081 0.32752 0.0
C314 C 0.50589 0.05165 0.26739 0.0
C315 C 0.48253 0.06084 0.29559 0.0
N316 N 0.52663 0.08333 0.31848 0.0
N317 N 0.53212 0.06568 0.28259 0.0
C318 C 0.48134 0.09912 0.365 0.0
H319 H 0.49453 0.11761 0.37845 0.0
H320 H 0.45636 0.10291 0.3603 0.0
H321 H 0.4819 0.09039 0.38532 0.0
C322 C 0.57685 0.17513 0.35556 0.0
N323 N 0.58045 0.15483 0.36313 0.0
N324 N 0.55857 0.13751 0.34458 0.0
C325 C 0.54028 0.14628 0.32442 0.0
C326 C 0.55123 0.17045 0.33078 0.0
C327 C 0.5988 0.19778 0.37024 0.0
H328 H 0.62357 0.19083 0.36372 0.0
H329 H 0.59643 0.20866 0.40222 0.0
H330 H 0.59394 0.2108 0.35691 0.0
O331 O 0.63515 0.11689 0.36172 0.0
O332 O 0.59858 0.08755 0.33059 0.0
H333 H 0.52019 0.11371 0.27655 0.0
H334 H 0.49923 0.14362 0.289 0.0
C335 C 0.51223 0.13212 0.30078 0.0
H336 H 0.49587 0.12744 0.31911 0.0
H337 H 0.5538 0.06327 0.26842 0.0
O338 O 0.64259 0.17571 0.4149 0.0
C339 C 0.62745 0.09406 0.3378 0.0
Co340 Co 0.38954 0.89665 0.14683 0.0
Co341 Co 0.44115 0.85402 0.10557 0.0
C342 C 0.43265 0.87881 0.19191 0.0
O343 O 0.41052 0.89303 0.18979 0.0
O344 O 0.44697 0.8626 0.16157 0.0
C345 C 0.34679 0.93445 0.20118 0.0
O346 O 0.35963 0.92808 0.22662 0.0
C347 C 0.50299 0.82764 0.08189 0.0
C348 C 0.49201 0.79791 0.02252 0.0
C349 C 0.51625 0.80727 0.04948 0.0
N350 N 0.47247 0.82997 0.07419 0.0
N351 N 0.46604 0.81204 0.03879 0.0
C352 C 0.51922 0.846 0.11836 0.0
H353 H 0.50574 0.86433 0.13258 0.0
H354 H 0.54366 0.85003 0.11208 0.0
H355 H 0.52038 0.83732 0.13872 0.0
C356 C 0.42319 0.92126 0.10543 0.0
N357 N 0.41969 0.90192 0.11523 0.0
N358 N 0.4416 0.88433 0.09789 0.0
C359 C 0.45985 0.89199 0.0763 0.0
C360 C 0.44881 0.91568 0.08045 0.0
C361 C 0.40089 0.94362 0.11788 0.0
H362 H 0.37621 0.93639 0.1121 0.0
H363 H 0.40328 0.95586 0.14961 0.0
H364 H 0.40537 0.95544 0.10247 0.0
O365 O 0.3643 0.86554 0.11617 0.0
O366 O 0.40057 0.83542 0.08713 0.0
H367 H 0.47962 0.85846 0.02974 0.0
H368 H 0.5008 0.88794 0.04005 0.0
C369 C 0.48775 0.87719 0.05305 0.0
H370 H 0.50412 0.87317 0.07205 0.0
H371 H 0.44397 0.80966 0.02551 0.0
O372 O 0.35775 0.92473 0.16687 0.0
C373 C 0.37176 0.84236 0.09362 0.0
Co374 Co 0.38008 0.85575 0.60466 0.0
Co375 Co 0.43493 0.89576 0.64272 0.0
C376 C 0.42287 0.87138 0.5568 0.0
O377 O 0.39982 0.8584 0.56016 0.0
O378 O 0.43878 0.8867 0.58632 0.0
C379 C 0.33966 0.81446 0.55112 0.0
O380 O 0.35664 0.8154 0.5233 0.0
C381 C 0.49675 0.92258 0.66046 0.0
C382 C 0.4949 0.94327 0.72448 0.0
C383 C 0.5142 0.93858 0.69302 0.0
N384 N 0.46878 0.91766 0.67231 0.0
N385 N 0.46768 0.93039 0.71057 0.0
C386 C 0.5052 0.9136 0.61873 0.0
H387 H 0.50909 0.89243 0.60474 0.0
H388 H 0.52646 0.92351 0.6152 0.0
H389 H 0.4852 0.91771 0.60383 0.0
C390 C 0.41427 0.82873 0.64223 0.0
N391 N 0.41091 0.84871 0.63381 0.0
N392 N 0.43429 0.86511 0.6495 0.0
C393 C 0.45354 0.85586 0.66822 0.0
C394 C 0.44142 0.83257 0.66436 0.0
C395 C 0.39085 0.80721 0.63081 0.0
H396 H 0.36665 0.81534 0.63848 0.0
H397 H 0.39171 0.79523 0.59889 0.0
H398 H 0.39556 0.7949 0.64538 0.0
O399 O 0.35741 0.88801 0.63733 0.0
O400 O 0.39588 0.91639 0.66422 0.0
H401 H 0.47838 0.88495 0.71603 0.0
H402 H 0.49921 0.85466 0.69272 0.0
C403 C 0.48382 0.86834 0.68769 0.0
H404 H 0.49676 0.87553 0.66954 0.0
H405 H 0.44851 0.92987 0.72724 0.0
O406 O 0.34686 0.82892 0.58627 0.0
C407 C 0.36659 0.91079 0.65957 0.0
Co408 Co 0.60769 0.60085 0.34457 0.0
Co409 Co 0.55405 0.64161 0.386 0.0
C410 C 0.56415 0.61823 0.29962 0.0
O411 O 0.587 0.6044 0.3012 0.0
O412 O 0.54931 0.63354 0.33017 0.0
C413 C 0.65142 0.56339 0.29062 0.0
O414 O 0.63799 0.56865 0.26433 0.0
C415 C 0.49219 0.66843 0.40671 0.0
C416 C 0.49702 0.69077 0.47031 0.0
C417 C 0.47614 0.6853 0.43998 0.0
N418 N 0.52096 0.66383 0.41711 0.0
N419 N 0.52379 0.67748 0.4551 0.0
C420 C 0.48162 0.65821 0.36546 0.0
H421 H 0.47835 0.63702 0.3529 0.0
H422 H 0.4595 0.66749 0.36265 0.0
H423 H 0.50029 0.66204 0.34864 0.0
C424 C 0.57444 0.57377 0.38278 0.0
N425 N 0.57746 0.59379 0.3744 0.0
N426 N 0.55466 0.61055 0.39153 0.0
C427 C 0.53617 0.60155 0.41119 0.0
C428 C 0.54815 0.57801 0.40646 0.0
C429 C 0.59769 0.55203 0.37031 0.0
H430 H 0.62199 0.55997 0.37764 0.0
H431 H 0.59641 0.54039 0.33834 0.0
H432 H 0.59321 0.53945 0.38446 0.0
O433 O 0.63113 0.63267 0.37727 0.0
O434 O 0.59353 0.66145 0.40681 0.0
H435 H 0.51374 0.63157 0.46037 0.0
H436 H 0.49205 0.60159 0.43975 0.0
C437 C 0.50691 0.61475 0.43291 0.0
H438 H 0.49283 0.62176 0.41536 0.0
H439 H 0.5439 0.67742 0.47074 0.0
O440 O 0.6407 0.57379 0.32505 0.0
C441 C 0.62264 0.65542 0.40073 0.0
Co442 Co 0.60809 0.64931 0.89898 0.0
Co443 Co 0.55732 0.60695 0.85326 0.0
C444 C 0.56311 0.62962 0.93976 0.0
O445 O 0.58543 0.64442 0.93997 0.0
O446 O 0.54992 0.61395 0.90819 0.0
C447 C 0.65311 0.68154 0.95406 0.0
O448 O 0.64399 0.66836 0.97242 0.0
C449 C 0.49553 0.58125 0.82842 0.0
C450 C 0.50592 0.55241 0.76829 0.0
C451 C 0.48193 0.56145 0.79569 0.0
N452 N 0.526 0.58357 0.82057 0.0
N453 N 0.5321 0.56618 0.78468 0.0
C454 C 0.47963 0.59919 0.86547 0.0
H455 H 0.49293 0.61758 0.8798 0.0
H456 H 0.45496 0.60321 0.85995 0.0
H457 H 0.47916 0.59017 0.88541 0.0
C458 C 0.57607 0.67565 0.85874 0.0
N459 N 0.57914 0.6556 0.86702 0.0
N460 N 0.55753 0.63812 0.84799 0.0
C461 C 0.53988 0.6466 0.82693 0.0
C462 C 0.55103 0.67069 0.83306 0.0
C463 C 0.59811 0.69824 0.87348 0.0
H464 H 0.62292 0.69128 0.86943 0.0
H465 H 0.59412 0.71013 0.90504 0.0
H466 H 0.59476 0.71034 0.85828 0.0
O467 O 0.63392 0.61846 0.86787 0.0
O468 O 0.59816 0.58859 0.8355 0.0
H469 H 0.5206 0.61403 0.77832 0.0
H470 H 0.49919 0.64376 0.79086 0.0
C471 C 0.51222 0.63225 0.80261 0.0
H472 H 0.4957 0.62725 0.82043 0.0
H473 H 0.5541 0.56388 0.77125 0.0
O474 O 0.63916 0.67773 0.92278 0.0
C475 C 0.62686 0.5955 0.84373 0.0
Co476 Co 0.39105 0.40554 0.66191 0.0
Co477 Co 0.44174 0.3629 0.61792 0.0
C478 C 0.43621 0.38731 0.70448 0.0
O479 O 0.41367 0.40174 0.70394 0.0
O480 O 0.44949 0.37123 0.67324 0.0
C481 C 0.34443 0.43754 0.71401 0.0
O482 O 0.35147 0.42369 0.73207 0.0
C483 C 0.50283 0.33606 0.59264 0.0
C484 C 0.49106 0.30641 0.53348 0.0
C485 C 0.51556 0.31549 0.56012 0.0
N486 N 0.47233 0.33876 0.58538 0.0
N487 N 0.46541 0.32091 0.55009 0.0
C488 C 0.51954 0.35426 0.62884 0.0
H489 H 0.50673 0.37292 0.64281 0.0
H490 H 0.54418 0.35762 0.62231 0.0
H491 H 0.52015 0.34583 0.64953 0.0
C492 C 0.42276 0.43021 0.61902 0.0
N493 N 0.41994 0.41087 0.62895 0.0
N494 N 0.44153 0.39321 0.61055 0.0
C495 C 0.45889 0.4008 0.58822 0.0
C496 C 0.44758 0.42453 0.59285 0.0
C497 C 0.40053 0.45268 0.63246 0.0
H498 H 0.37578 0.44559 0.62829 0.0
H499 H 0.40414 0.46511 0.66395 0.0
H500 H 0.404 0.46427 0.61649 0.0
O501 O 0.36487 0.3746 0.63206 0.0
O502 O 0.40096 0.34467 0.60129 0.0
H503 H 0.47758 0.3675 0.54024 0.0
H504 H 0.49923 0.39687 0.55114 0.0
C505 C 0.48627 0.38589 0.56384 0.0
H506 H 0.50291 0.3812 0.5819 0.0
H507 H 0.44319 0.31875 0.53721 0.0
O508 O 0.36033 0.43424 0.68421 0.0
C509 C 0.3722 0.35148 0.60893 0.0
Co510 Co 0.38554 0.36101 0.10829 0.0
Co511 Co 0.43848 0.40171 0.15155 0.0
C512 C 0.43056 0.37843 0.06497 0.0
O513 O 0.40743 0.36455 0.06561 0.0
O514 O 0.4447 0.39373 0.09606 0.0
C515 C 0.34436 0.32146 0.0524 0.0
O516 O 0.35966 0.32512 0.02568 0.0
C517 C 0.50169 0.42499 0.17305 0.0
C518 C 0.49335 0.45538 0.23275 0.0
C519 C 0.51657 0.44484 0.20456 0.0
N520 N 0.47124 0.42411 0.18232 0.0
N521 N 0.46637 0.44239 0.21794 0.0
C522 C 0.51623 0.4058 0.13585 0.0
H523 H 0.5018 0.38794 0.12287 0.0
H524 H 0.5407 0.40099 0.14079 0.0
H525 H 0.51699 0.41411 0.11501 0.0
C526 C 0.41768 0.33371 0.14693 0.0
N527 N 0.41491 0.35396 0.13908 0.0
N528 N 0.4372 0.3709 0.15753 0.0
C529 C 0.45488 0.36195 0.17795 0.0
C530 C 0.44313 0.33803 0.17181 0.0
C531 C 0.39514 0.31145 0.13238 0.0
H532 H 0.37057 0.31883 0.13944 0.0
H533 H 0.39707 0.30068 0.10033 0.0
H534 H 0.39973 0.2982 0.14537 0.0
O535 O 0.36159 0.39283 0.14027 0.0
O536 O 0.39891 0.42154 0.17106 0.0
H537 H 0.47568 0.39464 0.22496 0.0
H538 H 0.49497 0.36438 0.21464 0.0
C539 C 0.48311 0.37566 0.20164 0.0
H540 H 0.50035 0.37916 0.18293 0.0
H541 H 0.44463 0.44589 0.23225 0.0
O542 O 0.35283 0.33375 0.08764 0.0
C543 C 0.36988 0.41555 0.16405 0.0
C544 C 0.20487 0.04877 0.32771 0.0
C545 C 0.18583 0.04951 0.29841 0.0
C546 C 0.23624 0.04049 0.32014 0.0
C547 C 0.29988 0.03878 0.25428 0.0
H548 H 0.34851 0.01223 0.31359 0.0
C549 C 0.43549 0.04124 0.2534 0.0
C550 C 0.44952 0.0513 0.29031 0.0
C551 C 0.40387 0.03345 0.24825 0.0
C552 C 0.33526 0.01972 0.29687 0.0
H553 H 0.18376 0.03961 0.23718 0.0
H554 H 0.23845 0.02492 0.22385 0.0
H555 H 0.29093 0.01121 0.31518 0.0
H556 H 0.44226 0.05837 0.34989 0.0
H557 H 0.38679 0.0462 0.34153 0.0
H558 H 0.34403 0.04852 0.23755 0.0
C559 C 0.22939 0.0314 0.25298 0.0
C560 C 0.30223 0.01911 0.29771 0.0
C561 C 0.19795 0.03964 0.26055 0.0
C562 C 0.43182 0.05192 0.32149 0.0
C563 C 0.40014 0.0443 0.31644 0.0
C564 C 0.33284 0.03956 0.25365 0.0
C565 C 0.24929 0.0327 0.28303 0.0
C566 C 0.2841 0.02922 0.27719 0.0
C567 C 0.38558 0.03551 0.27993 0.0
C568 C 0.35092 0.03075 0.27584 0.0
H569 H 0.19615 0.05598 0.35714 0.0
H570 H 0.25075 0.04197 0.34415 0.0
H571 H 0.28687 0.04722 0.23867 0.0
H572 H 0.44868 0.04006 0.2286 0.0
H573 H 0.39358 0.02626 0.21958 0.0
C574 C 0.93172 0.19319 0.42705 0.0
C575 C 0.95016 0.19603 0.45897 0.0
C576 C 0.89953 0.19934 0.43167 0.0
C577 C 0.83302 0.20361 0.49484 0.0
H578 H 0.78951 0.23312 0.43588 0.0
C579 C 0.69787 0.20617 0.49502 0.0
C580 C 0.68377 0.1987 0.45861 0.0
C581 C 0.72982 0.21309 0.50075 0.0
C582 C 0.80118 0.22479 0.45253 0.0
H583 H 0.94984 0.20899 0.52114 0.0
H584 H 0.89366 0.21986 0.52926 0.0
H585 H 0.84705 0.23135 0.43511 0.0
H586 H 0.69139 0.19492 0.4007 0.0
H587 H 0.7469 0.20613 0.41018 0.0
H588 H 0.78756 0.19607 0.51118 0.0
C589 C 0.90394 0.21239 0.50053 0.0
C590 C 0.83422 0.2238 0.45206 0.0
C591 C 0.93611 0.20626 0.49589 0.0
C592 C 0.70157 0.20036 0.42907 0.0
C593 C 0.73354 0.20701 0.43466 0.0
C594 C 0.80004 0.20459 0.49533 0.0
C595 C 0.88518 0.20861 0.46836 0.0
C596 C 0.85045 0.21265 0.47249 0.0
C597 C 0.74844 0.21249 0.47012 0.0
C598 C 0.78357 0.21476 0.47361 0.0
H599 H 0.94205 0.18633 0.3985 0.0
H600 H 0.88572 0.19614 0.40628 0.0
H601 H 0.84479 0.19456 0.51047 0.0
H602 H 0.68467 0.20556 0.51863 0.0
H603 H 0.74012 0.2181 0.52891 0.0
C604 C 0.42348 0.17772 0.91626 0.0
C605 C 0.44825 0.19318 0.93903 0.0
C606 C 0.39264 0.18718 0.92167 0.0
C607 C 0.34001 0.23207 0.99568 0.0
H608 H 0.28366 0.21085 0.90742 0.0
C609 C 0.21102 0.20501 0.99962 0.0
C610 C 0.18936 0.20587 0.97265 0.0
C611 C 0.24205 0.21351 0.00076 0.0
C612 C 0.29895 0.21756 0.93257 0.0
H613 H 0.46014 0.23039 0.9862 0.0
H614 H 0.40576 0.24698 0.99604 0.0
H615 H 0.3404 0.20668 0.89704 0.0
H616 H 0.18207 0.21923 0.92905 0.0
H617 H 0.23615 0.23448 0.93151 0.0
H618 H 0.29842 0.24228 0.03115 0.0
C619 C 0.41044 0.22768 0.97352 0.0
C620 C 0.33153 0.21487 0.92651 0.0
C621 C 0.44147 0.21821 0.96787 0.0
C622 C 0.19843 0.2178 0.94959 0.0
C623 C 0.22947 0.22639 0.95083 0.0
C624 C 0.30732 0.2348 0.00178 0.0
C625 C 0.38571 0.2122 0.95043 0.0
C626 C 0.35229 0.22087 0.95779 0.0
C627 C 0.25203 0.22325 0.97516 0.0
C628 C 0.28637 0.22641 0.97011 0.0
H629 H 0.42767 0.15794 0.89514 0.0
H630 H 0.37398 0.17445 0.90427 0.0
H631 H 0.35543 0.23705 0.02042 0.0
H632 H 0.20471 0.19618 0.0181 0.0
H633 H 0.2587 0.21068 0.01981 0.0
C634 C 0.94111 0.03783 0.78947 0.0
C635 C 0.94911 0.06325 0.8159 0.0
C636 C 0.90942 0.03003 0.78332 0.0
C637 C 0.83053 0.04757 0.8279 0.0
H638 H 0.79826 0.01623 0.72271 0.0
C639 C 0.70774 0.0484 0.74978 0.0
C640 C 0.68694 0.04873 0.77837 0.0
C641 C 0.73944 0.0415 0.74959 0.0
C642 C 0.80685 0.02464 0.75225 0.0
H643 H 0.93001 0.10084 0.85446 0.0
H644 H 0.87508 0.08708 0.84487 0.0
H645 H 0.85516 0.02178 0.73385 0.0
H646 H 0.68207 0.03894 0.82612 0.0
H647 H 0.73705 0.0263 0.82516 0.0
H648 H 0.7826 0.0518 0.84669 0.0
C649 C 0.8933 0.07296 0.82973 0.0
C650 C 0.83949 0.02771 0.75859 0.0
C651 C 0.92483 0.0808 0.83551 0.0
C652 C 0.69766 0.03946 0.80421 0.0
C653 C 0.72929 0.0324 0.80386 0.0
C654 C 0.79802 0.04431 0.82161 0.0
C655 C 0.88525 0.04753 0.80359 0.0
C656 C 0.8515 0.04005 0.79652 0.0
C657 C 0.75094 0.03462 0.77787 0.0
C658 C 0.78563 0.0335 0.78372 0.0
H659 H 0.95936 0.024 0.77353 0.0
H660 H 0.90381 0.01036 0.76284 0.0
H661 H 0.83922 0.05691 0.85745 0.0
H662 H 0.70016 0.05519 0.72918 0.0
H663 H 0.75529 0.04351 0.72911 0.0
C664 C 0.79959 0.95731 0.69118 0.0
C665 C 0.80943 0.94453 0.71274 0.0
C666 C 0.7688 0.96696 0.69503 0.0
C667 C 0.69867 0.96217 0.68173 0.0
H668 H 0.64537 0.97965 0.77186 0.0
C669 C 0.5704 0.93004 0.67057 0.0
C670 C 0.54754 0.94689 0.69553 0.0
C671 C 0.60217 0.93714 0.67453 0.0
C672 C 0.65996 0.97523 0.74658 0.0
H673 H 0.79575 0.93416 0.75803 0.0
H674 H 0.74216 0.95021 0.764 0.0
H675 H 0.70269 0.98097 0.779 0.0
H676 H 0.54015 0.98406 0.74512 0.0
H677 H 0.5962 0.99635 0.75253 0.0
H678 H 0.65581 0.95537 0.64913 0.0
C679 C 0.75801 0.95314 0.74432 0.0
C680 C 0.69286 0.97575 0.75055 0.0
C681 C 0.78884 0.94368 0.74068 0.0
C682 C 0.55725 0.97086 0.72508 0.0
C683 C 0.58923 0.97789 0.72936 0.0
C684 C 0.66585 0.96148 0.67774 0.0
C685 C 0.74714 0.96389 0.72033 0.0
C686 C 0.71267 0.96842 0.71796 0.0
C687 C 0.61198 0.96104 0.70408 0.0
C688 C 0.64619 0.96704 0.70983 0.0
H689 H 0.81512 0.95876 0.66992 0.0
H690 H 0.76163 0.97592 0.67702 0.0
H691 H 0.71288 0.95606 0.65576 0.0
H692 H 0.56401 0.91091 0.64887 0.0
H693 H 0.61929 0.92341 0.6554 0.0
C694 C 0.05724 0.78836 0.50706 0.0
C695 C 0.04455 0.79922 0.54476 0.0
C696 C 0.08912 0.78132 0.50074 0.0
C697 C 0.16072 0.76975 0.54652 0.0
H698 H 0.20499 0.79886 0.4875 0.0
C699 C 0.29081 0.80037 0.57257 0.0
C700 C 0.30892 0.80085 0.54239 0.0
C701 C 0.25932 0.79239 0.56643 0.0
C702 C 0.19311 0.79003 0.50335 0.0
H703 H 0.0546 0.80878 0.60477 0.0
H704 H 0.1104 0.79744 0.59407 0.0
H705 H 0.14761 0.79877 0.48824 0.0
H706 H 0.30912 0.79096 0.48111 0.0
H707 H 0.25416 0.7767 0.47022 0.0
H708 H 0.20633 0.76174 0.5626 0.0
C709 C 0.09579 0.79445 0.56936 0.0
C710 C 0.1601 0.79001 0.50378 0.0
C711 C 0.06392 0.8015 0.57566 0.0
C712 C 0.29566 0.79116 0.50511 0.0
C713 C 0.26406 0.78322 0.49897 0.0
C714 C 0.19378 0.76974 0.54605 0.0
C715 C 0.1089 0.78479 0.53196 0.0
C716 C 0.14356 0.78065 0.52639 0.0
C717 C 0.2452 0.78461 0.5299 0.0
C718 C 0.21038 0.78063 0.52544 0.0
H719 H 0.04273 0.78599 0.48255 0.0
H720 H 0.09843 0.77357 0.47151 0.0
H721 H 0.14859 0.76189 0.56353 0.0
H722 H 0.30044 0.80746 0.60157 0.0
H723 H 0.24559 0.79388 0.59102 0.0
C724 C 0.79544 0.79548 0.0655 0.0
C725 C 0.81355 0.79562 0.03506 0.0
C726 C 0.76383 0.78777 0.05964 0.0
C727 C 0.69762 0.78624 0.99764 0.0
H728 H 0.65281 0.75815 0.05768 0.0
C729 C 0.56191 0.78799 0.00452 0.0
C730 C 0.54942 0.79801 0.04227 0.0
C731 C 0.59355 0.78034 0.9974 0.0
C732 C 0.665 0.76603 0.04074 0.0
H733 H 0.81356 0.78533 0.97364 0.0
H734 H 0.75842 0.77141 0.96324 0.0
H735 H 0.71054 0.75698 0.05562 0.0
H736 H 0.55966 0.80536 0.10139 0.0
H737 H 0.61514 0.79318 0.08943 0.0
H738 H 0.65232 0.79629 0.98406 0.0
C739 C 0.76845 0.77803 0.99195 0.0
C740 C 0.69805 0.76535 0.03953 0.0
C741 C 0.80012 0.78582 0.99784 0.0
C742 C 0.56881 0.79883 0.07234 0.0
C743 C 0.6005 0.79126 0.06526 0.0
C744 C 0.66463 0.78698 0.99893 0.0
C745 C 0.74963 0.7798 0.02312 0.0
C746 C 0.71478 0.7762 0.01896 0.0
C747 C 0.61341 0.78243 0.02785 0.0
C748 C 0.64797 0.77766 0.02152 0.0
H749 H 0.80511 0.80268 0.09448 0.0
H750 H 0.7501 0.78954 0.08439 0.0
H751 H 0.70965 0.79506 0.98187 0.0
H752 H 0.54745 0.7867 0.98056 0.0
H753 H 0.60261 0.7732 0.96813 0.0
C754 C 0.0693 0.93902 0.16653 0.0
C755 C 0.04976 0.9418 0.19758 0.0
C756 C 0.1013 0.94564 0.17274 0.0
C757 C 0.16563 0.95078 0.23886 0.0
H758 H 0.21084 0.98195 0.18338 0.0
C759 C 0.30052 0.95462 0.24498 0.0
C760 C 0.31563 0.94748 0.20921 0.0
C761 C 0.26854 0.9615 0.24963 0.0
C762 C 0.19868 0.97317 0.19908 0.0
H763 H 0.04794 0.95494 0.25976 0.0
H764 H 0.10386 0.96648 0.2706 0.0
H765 H 0.15335 0.97914 0.17959 0.0
H766 H 0.30981 0.94436 0.15142 0.0
H767 H 0.25421 0.95548 0.15898 0.0
H768 H 0.21056 0.94368 0.25705 0.0
C769 C 0.09455 0.95882 0.24138 0.0
C770 C 0.16569 0.97159 0.19688 0.0
C771 C 0.06254 0.9523 0.23518 0.0
C772 C 0.29883 0.94953 0.1793 0.0
C773 C 0.2668 0.95612 0.18379 0.0
C774 C 0.19856 0.95228 0.24097 0.0
C775 C 0.11436 0.95524 0.21015 0.0
C776 C 0.1489 0.95984 0.21605 0.0
C777 C 0.25087 0.96116 0.21849 0.0
C778 C 0.21566 0.96304 0.2205 0.0
H779 H 0.05993 0.93187 0.13747 0.0
H780 H 0.116 0.94257 0.14806 0.0
H781 H 0.1534 0.94131 0.25356 0.0
H782 H 0.31294 0.95373 0.26888 0.0
H783 H 0.25745 0.96622 0.27729 0.0
C784 C 0.20163 0.54876 0.81551 0.0
C785 C 0.18344 0.54978 0.78574 0.0
C786 C 0.23344 0.54165 0.80948 0.0
C787 C 0.29956 0.54287 0.74866 0.0
H788 H 0.34547 0.51285 0.80534 0.0
C789 C 0.43543 0.54339 0.75171 0.0
C790 C 0.44868 0.55238 0.78893 0.0
C791 C 0.40361 0.53618 0.74528 0.0
C792 C 0.33298 0.52133 0.7894 0.0
H793 H 0.18355 0.54151 0.72509 0.0
H794 H 0.23901 0.52848 0.71426 0.0
H795 H 0.28778 0.51187 0.80444 0.0
H796 H 0.4397 0.55821 0.84761 0.0
H797 H 0.38396 0.54685 0.83698 0.0
H798 H 0.34458 0.55324 0.73486 0.0
C799 C 0.22891 0.5341 0.74272 0.0
C800 C 0.29992 0.52077 0.78888 0.0
C801 C 0.19704 0.54134 0.74881 0.0
C802 C 0.42993 0.55252 0.81904 0.0
C803 C 0.39808 0.54541 0.81268 0.0
C804 C 0.33256 0.54351 0.7493 0.0
C805 C 0.2478 0.53514 0.77342 0.0
C806 C 0.28277 0.53214 0.76932 0.0
C807 C 0.38436 0.53769 0.77593 0.0
C808 C 0.34966 0.5334 0.77058 0.0
H809 H 0.19183 0.55489 0.84425 0.0
H810 H 0.24717 0.54278 0.83387 0.0
H811 H 0.28724 0.55215 0.73375 0.0
H812 H 0.44941 0.54263 0.7277 0.0
H813 H 0.39394 0.52984 0.71645 0.0
C814 C 0.70226 0.69542 0.99424 0.0
C815 C 0.68346 0.69574 0.96444 0.0
C816 C 0.73377 0.70343 0.99839 0.0
C817 C 0.79792 0.70485 0.93641 0.0
H818 H 0.84564 0.73442 0.03237 0.0
C819 C 0.93358 0.70162 0.93294 0.0
C820 C 0.94779 0.69456 0.95959 0.0
C821 C 0.90185 0.70921 0.93718 0.0
C822 C 0.8327 0.72596 0.00528 0.0
H823 H 0.6819 0.7075 0.91849 0.0
H824 H 0.73686 0.72174 0.92606 0.0
H825 H 0.78796 0.73472 0.0345 0.0
H826 H 0.94071 0.69105 0.01253 0.0
H827 H 0.88511 0.70315 0.01918 0.0
H828 H 0.84223 0.69438 0.90706 0.0
C829 C 0.72746 0.71457 0.94546 0.0
C830 C 0.79964 0.7263 0.00654 0.0
C831 C 0.69592 0.70657 0.9413 0.0
C832 C 0.93019 0.69628 0.99146 0.0
C833 C 0.89837 0.70347 0.99542 0.0
C834 C 0.83089 0.7041 0.93513 0.0
C835 C 0.74709 0.71204 0.97295 0.0
C836 C 0.78189 0.71527 0.97211 0.0
C837 C 0.88357 0.70959 0.96794 0.0
C838 C 0.84876 0.71402 0.96955 0.0
H839 H 0.6933 0.68746 0.01285 0.0
H840 H 0.7482 0.70123 0.01989 0.0
H841 H 0.78501 0.6958 0.90933 0.0
H842 H 0.94697 0.70123 0.90876 0.0
H843 H 0.89155 0.71442 0.91601 0.0
C844 C 0.41898 0.67707 0.4222 0.0
C845 C 0.44291 0.69409 0.44421 0.0
C846 C 0.38744 0.68488 0.4275 0.0
C847 C 0.33251 0.72783 0.50009 0.0
H848 H 0.27664 0.70483 0.41113 0.0
C849 C 0.2029 0.70029 0.50318 0.0
C850 C 0.18147 0.70151 0.47625 0.0
C851 C 0.23416 0.70837 0.50436 0.0
C852 C 0.29179 0.71195 0.43644 0.0
H853 H 0.45254 0.73233 0.49016 0.0
H854 H 0.39692 0.74597 0.49991 0.0
H855 H 0.33352 0.70186 0.40138 0.0
H856 H 0.17496 0.71503 0.43269 0.0
H857 H 0.22941 0.72936 0.43505 0.0
H858 H 0.29065 0.73721 0.53509 0.0
C859 C 0.40282 0.72674 0.47798 0.0
C860 C 0.32443 0.70997 0.43075 0.0
C861 C 0.43455 0.71896 0.47237 0.0
C862 C 0.19107 0.71334 0.45324 0.0
C863 C 0.22235 0.72139 0.45439 0.0
C864 C 0.29975 0.72973 0.50581 0.0
C865 C 0.37897 0.70975 0.45548 0.0
C866 C 0.34507 0.71688 0.46235 0.0
C867 C 0.2446 0.71794 0.47874 0.0
C868 C 0.27901 0.72091 0.47391 0.0
H869 H 0.42444 0.65737 0.40173 0.0
H870 H 0.3695 0.67106 0.41058 0.0
H871 H 0.34788 0.73343 0.52503 0.0
H872 H 0.19618 0.69152 0.52161 0.0
H873 H 0.2506 0.70536 0.52344 0.0
C874 C 0.69835 0.54382 0.2477 0.0
C875 C 0.68265 0.5505 0.28299 0.0
C876 C 0.73033 0.53693 0.24363 0.0
C877 C 0.7989 0.52419 0.29488 0.0
H878 H 0.84586 0.55721 0.24334 0.0
C879 C 0.92736 0.55924 0.33301 0.0
C880 C 0.94764 0.55759 0.30318 0.0
C881 C 0.89565 0.552 0.3252 0.0
C882 C 0.83318 0.54737 0.25717 0.0
H883 H 0.68737 0.55278 0.34041 0.0
H884 H 0.74292 0.54159 0.33383 0.0
H885 H 0.7888 0.55476 0.23811 0.0
H886 H 0.95117 0.5456 0.2414 0.0
H887 H 0.89576 0.53291 0.22774 0.0
H888 H 0.84366 0.51793 0.31529 0.0
C889 C 0.73083 0.54134 0.30897 0.0
C890 C 0.80029 0.54585 0.25406 0.0
C891 C 0.69884 0.548 0.31291 0.0
C892 C 0.93596 0.54741 0.26508 0.0
C893 C 0.90424 0.54023 0.25727 0.0
C894 C 0.83185 0.52576 0.29802 0.0
C895 C 0.74736 0.53672 0.27482 0.0
C896 C 0.78257 0.53473 0.27355 0.0
C897 C 0.88362 0.54285 0.28736 0.0
C898 C 0.84925 0.53795 0.27998 0.0
H899 H 0.68642 0.54508 0.2238 0.0
H900 H 0.7419 0.53258 0.21636 0.0
H901 H 0.78627 0.51521 0.30996 0.0
H902 H 0.93591 0.56608 0.36239 0.0
H903 H 0.88033 0.55434 0.34905 0.0
C904 C 0.56424 0.46255 0.24645 0.0
C905 C 0.55022 0.45279 0.20955 0.0
C906 C 0.59639 0.46877 0.25132 0.0
C907 C 0.66711 0.47877 0.20199 0.0
H908 H 0.71192 0.45022 0.26135 0.0
C909 C 0.79721 0.44735 0.1743 0.0
C910 C 0.81527 0.44624 0.20407 0.0
C911 C 0.76587 0.45583 0.1809 0.0
C912 C 0.69996 0.45892 0.24539 0.0
H913 H 0.55829 0.4446 0.14963 0.0
H914 H 0.61454 0.45409 0.15758 0.0
H915 H 0.65469 0.45103 0.26209 0.0
H916 H 0.81557 0.45562 0.26516 0.0
H917 H 0.76104 0.47075 0.27683 0.0
H918 H 0.71244 0.48553 0.18382 0.0
C919 C 0.60078 0.45694 0.18286 0.0
C920 C 0.66696 0.45935 0.24579 0.0
C921 C 0.5686 0.45087 0.17807 0.0
C922 C 0.80217 0.45586 0.24142 0.0
C923 C 0.77077 0.46433 0.24802 0.0
C924 C 0.70016 0.4782 0.2014 0.0
C925 C 0.61522 0.46543 0.21938 0.0
C926 C 0.65012 0.46864 0.2233 0.0
C927 C 0.75186 0.46352 0.2175 0.0
C928 C 0.71704 0.46776 0.22244 0.0
H929 H 0.55058 0.46471 0.27147 0.0
H930 H 0.60661 0.47578 0.28 0.0
H931 H 0.65485 0.48657 0.18498 0.0
H932 H 0.80667 0.4403 0.14522 0.0
H933 H 0.75215 0.45468 0.15651 0.0
C934 C 0.29641 0.30555 0.07284 0.0
C935 C 0.31395 0.30731 0.0432 0.0
C936 C 0.26517 0.29689 0.06648 0.0
C937 C 0.19796 0.29411 0.00418 0.0
H938 H 0.1559 0.26273 0.06157 0.0
C939 C 0.06253 0.28699 0.00475 0.0
C940 C 0.04915 0.29635 0.04198 0.0
C941 C 0.0948 0.28131 0.99904 0.0
C942 C 0.16732 0.27154 0.04539 0.0
H943 H 0.31346 0.29895 0.98251 0.0
H944 H 0.25906 0.28335 0.97115 0.0
H945 H 0.21354 0.2648 0.06151 0.0
H946 H 0.05855 0.30439 0.10156 0.0
H947 H 0.115 0.29555 0.09204 0.0
H948 H 0.15183 0.30158 0.98904 0.0
C949 C 0.26912 0.2895 0.99974 0.0
C950 C 0.20035 0.27277 0.0454 0.0
C951 C 0.30043 0.29821 0.00614 0.0
C952 C 0.06832 0.29834 0.07289 0.0
C953 C 0.10061 0.2927 0.06722 0.0
C954 C 0.165 0.29287 0.00417 0.0
C955 C 0.25075 0.28962 0.03023 0.0
C956 C 0.21606 0.28472 0.02566 0.0
C957 C 0.11436 0.28472 0.03041 0.0
C958 C 0.14927 0.28226 0.02569 0.0
H959 H 0.3062 0.31216 0.10167 0.0
H960 H 0.25184 0.2974 0.09075 0.0
H961 H 0.2091 0.30378 0.98907 0.0
H962 H 0.04827 0.28483 0.98016 0.0
H963 H 0.10456 0.27474 0.97019 0.0
C964 C 0.56764 0.30621 0.58281 0.0
C965 C 0.54846 0.30568 0.55278 0.0
C966 C 0.59918 0.29827 0.57572 0.0
C967 C 0.66349 0.29288 0.50888 0.0
H968 H 0.7084 0.26254 0.56575 0.0
C969 C 0.7984 0.2894 0.50452 0.0
C970 C 0.81282 0.29792 0.54099 0.0
C971 C 0.76655 0.28216 0.49951 0.0
C972 C 0.69627 0.271 0.54957 0.0
H973 H 0.54655 0.29445 0.4911 0.0
H974 H 0.60144 0.28019 0.47858 0.0
H975 H 0.65086 0.26499 0.56871 0.0
H976 H 0.80604 0.30316 0.59978 0.0
H977 H 0.75067 0.29111 0.59137 0.0
H978 H 0.70858 0.29977 0.49075 0.0
C979 C 0.59239 0.28746 0.50786 0.0
C980 C 0.66326 0.27243 0.55133 0.0
C981 C 0.5609 0.29552 0.51502 0.0
C982 C 0.79554 0.29693 0.57138 0.0
C983 C 0.76371 0.28979 0.56641 0.0
C984 C 0.69642 0.29135 0.50697 0.0
C985 C 0.61212 0.28932 0.53831 0.0
C986 C 0.64657 0.28408 0.53191 0.0
C987 C 0.74844 0.28332 0.53085 0.0
C988 C 0.71335 0.28098 0.52806 0.0
H989 H 0.55844 0.31282 0.61186 0.0
H990 H 0.6137 0.30001 0.59989 0.0
H991 H 0.65147 0.30233 0.494 0.0
H992 H 0.81117 0.28956 0.48032 0.0
H993 H 0.75584 0.2765 0.47137 0.0
C994 C 0.06071 0.46953 0.71985 0.0
C995 C 0.0521 0.44422 0.6935 0.0
C996 C 0.09253 0.477 0.72506 0.0
C997 C 0.17048 0.45878 0.67801 0.0
H998 H 0.20518 0.48776 0.78202 0.0
C999 C 0.30406 0.4633 0.69894 0.0
C1000 C 0.31412 0.45179 0.72221 0.0
C1001 C 0.27268 0.47123 0.70034 0.0
C1002 C 0.19582 0.47988 0.75283 0.0
H1003 H 0.07041 0.40651 0.65413 0.0
H1004 H 0.12547 0.41974 0.66198 0.0
H1005 H 0.14783 0.48395 0.77277 0.0
H1006 H 0.3001 0.44222 0.76822 0.0
H1007 H 0.24549 0.45578 0.77043 0.0
H1008 H 0.21812 0.45347 0.65773 0.0
C1009 C 0.1076 0.43401 0.67779 0.0
C1010 C 0.16301 0.4779 0.74757 0.0
C1011 C 0.07595 0.42648 0.673 0.0
C1012 C 0.29303 0.45074 0.74958 0.0
C1013 C 0.26167 0.45867 0.75099 0.0
C1014 C 0.20317 0.46097 0.68324 0.0
C1015 C 0.11624 0.45931 0.70386 0.0
C1016 C 0.15015 0.46633 0.71001 0.0
C1017 C 0.25079 0.46793 0.72518 0.0
C1018 C 0.21628 0.47065 0.72063 0.0
H1019 H 0.04283 0.48352 0.73649 0.0
H1020 H 0.09861 0.49657 0.74555 0.0
H1021 H 0.16112 0.45009 0.64875 0.0
H1022 H 0.3199 0.46484 0.67802 0.0
H1023 H 0.26523 0.47896 0.68083 0.0
C1024 C 0.08519 0.10696 0.2474 0.0
C1025 C 0.06722 0.12279 0.28023 0.0
C1026 C 0.08143 0.10839 0.21255 0.0
C1027 C 0.08694 0.13167 0.15699 0.0
H1028 H 0.00685 0.13352 0.10926 0.0
C1029 C 0.08157 0.15788 0.03116 0.0
C1030 C 0.06477 0.14073 0.99815 0.0
C1031 C 0.07833 0.15682 0.06635 0.0
C1032 C 0.02934 0.13299 0.12231 0.0
H1033 H 0.02987 0.15152 0.30139 0.0
H1034 H 0.02335 0.15396 0.24012 0.0
H1035 H 0.00745 0.12794 0.16866 0.0
H1036 H 0.0301 0.10987 0.97695 0.0
H1037 H 0.02445 0.10809 0.03872 0.0
H1038 H 0.10896 0.13659 0.11099 0.0
C1039 C 0.04037 0.14049 0.24164 0.0
C1040 C 0.02968 0.12996 0.15633 0.0
C1041 C 0.04422 0.13916 0.27674 0.0
C1042 C 0.04344 0.12333 0.00174 0.0
C1043 C 0.0401 0.12235 0.03714 0.0
C1044 C 0.0866 0.13494 0.1234 0.0
C1045 C 0.05956 0.12559 0.20954 0.0
C1046 C 0.05854 0.12908 0.1738 0.0
C1047 C 0.05815 0.13866 0.0695 0.0
C1048 C 0.05785 0.13562 0.10564 0.0
H1049 H 0.1029 0.09393 0.2488 0.0
H1050 H 0.09615 0.09634 0.18807 0.0
H1051 H 0.10953 0.13138 0.17005 0.0
H1052 H 0.09796 0.17174 0.02967 0.0
H1053 H 0.09215 0.16991 0.091 0.0
C1054 C 0.961 0.88036 0.0103 0.0
C1055 C 0.93841 0.86369 0.01371 0.0
C1056 C 0.96548 0.88103 0.9748 0.0
C1057 C 0.9769 0.86939 0.88872 0.0
H1058 H 0.89715 0.87551 0.8438 0.0
C1059 C 0.95956 0.86208 0.73365 0.0
C1060 C 0.93807 0.87978 0.73108 0.0
C1061 C 0.96424 0.86127 0.76901 0.0
C1062 C 0.91963 0.87395 0.85606 0.0
H1063 H 0.90448 0.83341 0.98174 0.0
H1064 H 0.91223 0.83475 0.92036 0.0
H1065 H 0.89713 0.87029 0.90284 0.0
H1066 H 0.90647 0.9117 0.76434 0.0
H1067 H 0.91459 0.91011 0.82547 0.0
H1068 H -0.00073 0.87299 0.84137 0.0
C1069 C 0.92614 0.84751 0.94518 0.0
C1070 C 0.91961 0.8707 0.88965 0.0
C1071 C 0.92177 0.84674 0.98041 0.0
C1072 C 0.92285 0.89756 0.76502 0.0
C1073 C 0.92743 0.89666 0.80012 0.0
C1074 C 0.97692 0.87234 0.85461 0.0
C1075 C 0.94735 0.86514 0.94226 0.0
C1076 C 0.94817 0.86836 0.90634 0.0
C1077 C 0.94743 0.87804 0.80225 0.0
C1078 C 0.94822 0.87482 0.83818 0.0
H1079 H 0.97436 0.89357 0.03531 0.0
H1080 H 0.98196 0.89483 0.9733 0.0
H1081 H -0.00076 0.86759 0.90105 0.0
H1082 H 0.97181 0.84822 0.7081 0.0
H1083 H 0.97977 0.8467 0.7699 0.0
C1084 C 0.0284 0.61746 0.49362 0.0
C1085 C 0.05041 0.63549 0.49321 0.0
C1086 C 0.02156 0.61617 0.52818 0.0
C1087 C 0.03081 0.65166 0.63542 0.0
H1088 H 0.03428 0.58319 0.62921 0.0
C1089 C 0.06914 0.6027 0.73858 0.0
C1090 C 0.05428 0.61926 0.7736 0.0
C1091 C 0.06159 0.60378 0.70416 0.0
C1092 C 0.03318 0.60244 0.63143 0.0
H1093 H 0.08136 0.66709 0.52922 0.0
H1094 H 0.06975 0.66464 0.58898 0.0
H1095 H 0.03385 0.58811 0.5698 0.0
H1096 H 0.01881 0.64927 0.79951 0.0
H1097 H 0.00552 0.65103 0.73921 0.0
H1098 H 0.03192 0.66604 0.69705 0.0
C1099 C 0.0575 0.65163 0.5628 0.0
C1100 C 0.03254 0.60526 0.59736 0.0
C1101 C 0.06436 0.65289 0.52837 0.0
C1102 C 0.03086 0.63633 0.77311 0.0
C1103 C 0.02332 0.63742 0.73859 0.0
C1104 C 0.03149 0.64884 0.66949 0.0
C1105 C 0.03648 0.63296 0.56304 0.0
C1106 C 0.03225 0.62993 0.59897 0.0
C1107 C 0.03896 0.62142 0.70384 0.0
C1108 C 0.03357 0.62422 0.66788 0.0
H1109 H 0.01706 0.60387 0.46711 0.0
H1110 H 0.00497 0.60177 0.5275 0.0
H1111 H 0.03012 0.67092 0.63764 0.0
H1112 H 0.08723 0.58926 0.73779 0.0
H1113 H 0.07443 0.59142 0.67806 0.0
C1114 C 0.91457 0.35006 0.48239 0.0
C1115 C 0.93277 0.36653 0.51454 0.0
C1116 C 0.91822 0.35017 0.44657 0.0
C1117 C 0.97032 0.36868 0.38693 0.0
H1118 H 0.89126 0.37411 0.34012 0.0
C1119 C 0.91888 0.39326 0.25837 0.0
C1120 C 0.93518 0.37537 0.22547 0.0
C1121 C 0.92231 0.393 0.29409 0.0
C1122 C 0.91356 0.37273 0.3529 0.0
H1123 H 0.97019 0.39518 0.53352 0.0
H1124 H 0.97657 0.39525 0.47061 0.0
H1125 H 0.89044 0.37094 0.40082 0.0
H1126 H 0.96945 0.34418 0.20503 0.0
H1127 H 0.97539 0.34378 0.26787 0.0
H1128 H 0.99333 0.37053 0.3386 0.0
C1129 C 0.9595 0.38228 0.47339 0.0
C1130 C 0.91307 0.37065 0.38745 0.0
C1131 C 0.95573 0.3823 0.50945 0.0
C1132 C 0.95641 0.35813 0.22973 0.0
C1133 C 0.95991 0.35795 0.2657 0.0
C1134 C 0.97079 0.37051 0.35194 0.0
C1135 C 0.94024 0.36663 0.44186 0.0
C1136 C 0.94139 0.3686 0.40488 0.0
C1137 C 0.94218 0.37492 0.29794 0.0
C1138 C 0.94237 0.37273 0.33476 0.0
H1139 H 0.89686 0.33748 0.48502 0.0
H1140 H 0.90339 0.33761 0.4226 0.0
H1141 H 0.99249 0.36704 0.39971 0.0
H1142 H 0.90266 0.40706 0.25642 0.0
H1143 H 0.9088 0.40663 0.31862 0.0
C1144 C 0.57236 0.14641 0.50823 0.0
C1145 C 0.55756 0.12926 0.47353 0.0
C1146 C 0.5663 0.14509 0.54282 0.0
C1147 C 0.54158 0.09904 0.57826 0.0
H1148 H 0.54036 0.15998 0.67774 0.0
C1149 C 0.53448 0.13035 0.75373 0.0
C1150 C 0.55716 0.11321 0.75561 0.0
C1151 C 0.52873 0.13147 0.71886 0.0
C1152 C 0.54017 0.14275 0.65021 0.0
H1153 H 0.5237 0.09793 0.44843 0.0
H1154 H 0.51306 0.09572 0.50902 0.0
H1155 H 0.5396 0.1647 0.61814 0.0
H1156 H 0.59074 0.08313 0.72172 0.0
H1157 H 0.58097 0.08531 0.66127 0.0
H1158 H 0.54244 0.0771 0.61035 0.0
C1159 C 0.52966 0.10998 0.50923 0.0
C1160 C 0.54009 0.14547 0.61606 0.0
C1161 C 0.53565 0.11135 0.47456 0.0
C1162 C 0.57314 0.09661 0.72146 0.0
C1163 C 0.56737 0.09772 0.68664 0.0
C1164 C 0.54169 0.09632 0.61242 0.0
C1165 C 0.54531 0.12658 0.54362 0.0
C1166 C 0.54149 0.12367 0.5797 0.0
C1167 C 0.54546 0.11543 0.68504 0.0
C1168 C 0.54167 0.11816 0.6488 0.0
H1169 H 0.58928 0.16051 0.5086 0.0
H1170 H 0.57905 0.15796 0.56865 0.0
H1171 H 0.5429 0.08185 0.55075 0.0
H1172 H 0.52162 0.14332 0.77931 0.0
H1173 H 0.51141 0.1451 0.71847 0.0
C1174 C 0.4593 0.86147 0.23375 0.0
C1175 C 0.43972 0.87993 0.23028 0.0
C1176 C 0.46216 0.86071 0.26941 0.0
C1177 C 0.41532 0.87688 0.35665 0.0
H1178 H 0.49243 0.86682 0.4026 0.0
C1179 C 0.45472 0.88374 0.51251 0.0
C1180 C 0.42999 0.86946 0.51793 0.0
C1181 C 0.45935 0.88346 0.4764 0.0
C1182 C 0.47076 0.86967 0.39006 0.0
H1183 H 0.40972 0.91323 0.26232 0.0
H1184 H 0.41471 0.91181 0.32395 0.0
H1185 H 0.49505 0.87078 0.34191 0.0
H1186 H 0.39181 0.84264 0.48884 0.0
H1187 H 0.3999 0.84225 0.4263 0.0
H1188 H 0.39093 0.87589 0.4044 0.0
C1189 C 0.42738 0.89765 0.29905 0.0
C1190 C 0.47224 0.87177 0.3553 0.0
C1191 C 0.42461 0.89848 0.26366 0.0
C1192 C 0.4109 0.85409 0.48598 0.0
C1193 C 0.41544 0.85391 0.45008 0.0
C1194 C 0.41381 0.87453 0.39097 0.0
C1195 C 0.4454 0.87834 0.30208 0.0
C1196 C 0.44451 0.87562 0.33849 0.0
C1197 C 0.43926 0.869 0.44509 0.0
C1198 C 0.44146 0.87095 0.40813 0.0
H1199 H 0.47138 0.84697 0.20865 0.0
H1200 H 0.47622 0.8456 0.27095 0.0
H1201 H 0.3935 0.8795 0.34413 0.0
H1202 H 0.47001 0.89565 0.53633 0.0
H1203 H 0.47784 0.89536 0.47342 0.0
C1204 C 0.56744 0.64771 0.01189 0.0
C1205 C 0.55393 0.62968 0.97686 0.0
C1206 C 0.56142 0.64644 0.04651 0.0
C1207 C 0.53993 0.60008 0.08267 0.0
H1208 H 0.53493 0.66163 0.18114 0.0
C1209 C 0.53216 0.6334 0.25885 0.0
C1210 C 0.55578 0.61725 0.26165 0.0
C1211 C 0.52602 0.63372 0.22348 0.0
C1212 C 0.53579 0.6442 0.15392 0.0
H1213 H 0.52238 0.59678 0.95112 0.0
H1214 H 0.51176 0.59465 0.01185 0.0
H1215 H 0.53341 0.66548 0.12092 0.0
H1216 H 0.59073 0.58811 0.22886 0.0
H1217 H 0.58038 0.589 0.1676 0.0
H1218 H 0.54256 0.57882 0.11571 0.0
C1219 C 0.52733 0.60959 0.01229 0.0
C1220 C 0.53527 0.64644 0.11939 0.0
C1221 C 0.53328 0.61091 0.97755 0.0
C1222 C 0.5724 0.60085 0.22791 0.0
C1223 C 0.56628 0.60119 0.19261 0.0
C1224 C 0.54044 0.59784 0.11723 0.0
C1225 C 0.54173 0.62712 0.04706 0.0
C1226 C 0.53808 0.62447 0.08339 0.0
C1227 C 0.54335 0.61791 0.19007 0.0
C1228 C 0.53909 0.61992 0.15329 0.0
H1229 H 0.5834 0.66248 0.01253 0.0
H1230 H 0.57322 0.66005 0.07263 0.0
H1231 H 0.54234 0.58278 0.05546 0.0
H1232 H 0.51879 0.6462 0.28409 0.0
H1233 H 0.5079 0.64658 0.22241 0.0
C1234 C 0.46715 0.37027 0.74366 0.0
C1235 C 0.44555 0.38821 0.74208 0.0
C1236 C 0.47329 0.36958 0.7788 0.0
C1237 C 0.46087 0.36023 0.84922 0.0
H1238 H 0.46219 0.42213 0.9475 0.0
C1239 C 0.42471 0.3608 0.99296 0.0
C1240 C 0.44015 0.37753 0.02743 0.0
C1241 C 0.4319 0.36121 0.95795 0.0
C1242 C 0.46239 0.40463 0.92034 0.0
H1243 H 0.41462 0.42027 0.77665 0.0
H1244 H 0.4251 0.4189 0.83749 0.0
H1245 H 0.46431 0.42575 0.88707 0.0
H1246 H 0.47624 0.40713 0.05171 0.0
H1247 H 0.48886 0.40773 0.99041 0.0
H1248 H 0.45857 0.33912 0.8825 0.0
C1249 C 0.43751 0.40548 0.81174 0.0
C1250 C 0.46325 0.40672 0.88569 0.0
C1251 C 0.43132 0.40613 0.77669 0.0
C1252 C 0.46374 0.39409 0.02577 0.0
C1253 C 0.47089 0.39452 0.99068 0.0
C1254 C 0.46 0.35814 0.88388 0.0
C1255 C 0.4581 0.3869 0.81312 0.0
C1256 C 0.46169 0.38459 0.84973 0.0
C1257 C 0.45473 0.37833 0.95647 0.0
C1258 C 0.45993 0.38033 0.91984 0.0
H1259 H 0.47866 0.35627 0.71759 0.0
H1260 H 0.48955 0.35522 0.77901 0.0
H1261 H 0.45944 0.34279 0.82206 0.0
H1262 H 0.40647 0.34775 0.99306 0.0
H1263 H 0.41868 0.34872 0.9323 0.0
C1264 C 0.35479 0.30653 0.56441 0.0
C1265 C 0.34696 0.33212 0.59028 0.0
C1266 C 0.33111 0.28826 0.54644 0.0
C1267 C 0.24718 0.27437 0.55506 0.0
H1268 H 0.25638 0.22609 0.4463 0.0
C1269 C 0.14715 0.20513 0.46602 0.0
C1270 C 0.15596 0.17976 0.44025 0.0
C1271 C 0.17016 0.22394 0.48476 0.0
C1272 C 0.25362 0.23925 0.47679 0.0
H1273 H 0.30801 0.3585 0.61759 0.0
H1274 H 0.26667 0.32657 0.58589 0.0
H1275 H 0.29694 0.25864 0.47813 0.0
H1276 H 0.19595 0.15425 0.41431 0.0
H1277 H 0.23599 0.18702 0.44725 0.0
H1278 H 0.20382 0.25493 0.55366 0.0
C1279 C 0.29117 0.32063 0.57988 0.0
C1280 C 0.27686 0.25791 0.49503 0.0
C1281 C 0.31488 0.33896 0.59788 0.0
C1282 C 0.1883 0.17361 0.43386 0.0
C1283 C 0.21128 0.19243 0.45256 0.0
C1284 C 0.22391 0.2557 0.5368 0.0
C1285 C 0.29904 0.2951 0.55387 0.0
C1286 C 0.27398 0.27561 0.53441 0.0
C1287 C 0.20247 0.21782 0.47811 0.0
C1288 C 0.22695 0.23787 0.4975 0.0
H1289 H 0.37925 0.30055 0.55796 0.0
H1290 H 0.33797 0.26865 0.527 0.0
H1291 H 0.24447 0.28752 0.58556 0.0
H1292 H 0.12246 0.21055 0.4716 0.0
H1293 H 0.16262 0.2434 0.50397 0.0
C1294 C 0.93352 0.94177 0.54641 0.0
C1295 C 0.95476 0.93192 0.56433 0.0
C1296 C 0.9443 0.95759 0.53036 0.0
C1297 C 0.01641 0.97635 0.49511 0.0
H1298 H 0.96708 0.03688 0.51216 0.0
C1299 C 0.06449 0.05591 0.45911 0.0
C1300 C 0.04366 0.06595 0.44104 0.0
C1301 C 0.0534 0.03945 0.47386 0.0
C1302 C 0.98094 0.01991 0.50677 0.0
H1303 H 0.00376 0.93056 0.57947 0.0
H1304 H 0.02279 0.95836 0.55154 0.0
H1305 H 0.94837 0.00795 0.53792 0.0
H1306 H 0.99504 0.06692 0.42422 0.0
H1307 H 0.97544 0.0381 0.45011 0.0
H1308 H 0.04906 0.98839 0.46412 0.0
C1309 C 0.99785 0.95365 0.54943 0.0
C1310 C 0.97022 0.00331 0.52151 0.0
C1311 C 0.98703 0.93779 0.56546 0.0
C1312 C 0.01146 0.05956 0.43837 0.0
C1313 C 0.00031 0.04311 0.4532 0.0
C1314 C 0.02715 0.99296 0.48042 0.0
C1315 C 0.97656 0.96388 0.53193 0.0
C1316 C 0.98785 0.98135 0.51589 0.0
C1317 C 0.02121 0.03275 0.47091 0.0
C1318 C 0.00958 0.01496 0.48616 0.0
H1319 H 0.90855 0.9372 0.54482 0.0
H1320 H 0.92737 0.96478 0.51652 0.0
H1321 H 0.0303 0.95939 0.48976 0.0
H1322 H 0.08937 0.06088 0.46194 0.0
H1323 H 0.07 0.03216 0.48792 0.0
C1324 C 0.35189 0.9564 0.70552 0.0
C1325 C 0.34266 0.93105 0.6803 0.0
C1326 C 0.32918 0.9754 0.72504 0.0
C1327 C 0.24559 0.98361 0.75647 0.0
H1328 H 0.25578 0.05241 0.76537 0.0
C1329 C 0.14545 0.05908 0.81208 0.0
C1330 C 0.15382 0.08458 0.83769 0.0
C1331 C 0.16876 0.04059 0.79301 0.0
C1332 C 0.25276 0.03337 0.7635 0.0
H1333 H 0.30219 0.90588 0.6557 0.0
H1334 H 0.26275 0.939 0.68939 0.0
H1335 H 0.29611 0.01975 0.73212 0.0
H1336 H 0.19339 0.11061 0.86314 0.0
H1337 H 0.234 0.07828 0.83009 0.0
H1338 H 0.20226 0.99717 0.78777 0.0
C1339 C 0.28754 0.94413 0.69452 0.0
C1340 C 0.27588 0.01466 0.74447 0.0
C1341 C 0.3102 0.92517 0.67501 0.0
C1342 C 0.18607 0.09117 0.84357 0.0
C1343 C 0.20938 0.07267 0.82446 0.0
C1344 C 0.2225 0.0023 0.77548 0.0
C1345 C 0.29674 0.96946 0.71981 0.0
C1346 C 0.2725 0.98953 0.74061 0.0
C1347 C 0.201 0.04715 0.79906 0.0
C1348 C 0.22575 0.02737 0.77911 0.0
H1349 H 0.37668 0.9616 0.71035 0.0
H1350 H 0.33705 0.99466 0.74465 0.0
H1351 H 0.24253 0.96456 0.75459 0.0
H1352 H 0.12085 0.05333 0.80671 0.0
H1353 H 0.1615 0.02119 0.77321 0.0
C1354 C 0.96401 0.32678 0.72245 0.0
C1355 C 0.95914 0.31514 0.68222 0.0
C1356 C 0.97405 0.31209 0.74076 0.0
C1357 C 0.01273 0.25053 0.72214 0.0
H1358 H 0.97349 0.26211 0.81945 0.0
C1359 C 0.0343 0.18274 0.7923 0.0
C1360 C 0.03884 0.19436 0.83259 0.0
C1361 C 0.02412 0.19738 0.77396 0.0
C1362 C 0.98493 0.25882 0.79251 0.0
H1363 H 0.96132 0.27931 0.62933 0.0
H1364 H 0.97859 0.25341 0.66128 0.0
H1365 H 0.95727 0.288 0.78735 0.0
H1366 H 0.03596 0.23011 0.88554 0.0
H1367 H 0.01857 0.25593 0.85353 0.0
H1368 H 0.04043 0.22139 0.72731 0.0
C1369 C 0.97493 0.27392 0.67872 0.0
C1370 C 0.97564 0.27367 0.77412 0.0
C1371 C 0.96485 0.28864 0.66046 0.0
C1372 C 0.0327 0.22079 0.85437 0.0
C1373 C 0.02253 0.23547 0.83606 0.0
C1374 C 0.02204 0.2357 0.74054 0.0
C1375 C 0.97946 0.28545 0.71914 0.0
C1376 C 0.98944 0.26971 0.73873 0.0
C1377 C 0.0183 0.22396 0.79559 0.0
C1378 C 0.00824 0.23966 0.77594 0.0
H1379 H 0.95956 0.34719 0.73981 0.0
H1380 H 0.9777 0.32161 0.77185 0.0
H1381 H 0.02414 0.24724 0.69519 0.0
H1382 H 0.0391 0.16239 0.77491 0.0
H1383 H 0.0207 0.18785 0.74283 0.0
C1384 C 0.848 0.79819 0.55129 0.0
C1385 C 0.84061 0.8238 0.5775 0.0
C1386 C 0.82401 0.78036 0.53266 0.0
C1387 C 0.73929 0.76765 0.53932 0.0
H1388 H 0.74891 0.72069 0.43004 0.0
C1389 C 0.63857 0.70045 0.44752 0.0
C1390 C 0.64712 0.67512 0.4213 0.0
C1391 C 0.66178 0.71897 0.46684 0.0
C1392 C 0.74601 0.73349 0.46066 0.0
H1393 H 0.80208 0.85065 0.60487 0.0
H1394 H 0.76022 0.81952 0.57206 0.0
H1395 H 0.79014 0.75224 0.46347 0.0
H1396 H 0.68688 0.64939 0.39506 0.0
H1397 H 0.72721 0.68158 0.42898 0.0
H1398 H 0.69514 0.74881 0.53646 0.0
C1399 C 0.78462 0.81321 0.56625 0.0
C1400 C 0.76964 0.75156 0.47981 0.0
C1401 C 0.80863 0.83108 0.58488 0.0
C1402 C 0.6794 0.66873 0.41492 0.0
C1403 C 0.70257 0.68723 0.43421 0.0
C1404 C 0.71563 0.74954 0.52014 0.0
C1405 C 0.79205 0.78769 0.53978 0.0
C1406 C 0.76663 0.76877 0.5194 0.0
C1407 C 0.69405 0.71257 0.46033 0.0
C1408 C 0.71881 0.73218 0.48063 0.0
H1409 H 0.87237 0.79187 0.545 0.0
H1410 H 0.83051 0.76074 0.51287 0.0
H1411 H 0.73645 0.78043 0.56995 0.0
H1412 H 0.61393 0.70605 0.45309 0.0
H1413 H 0.65446 0.7384 0.48649 0.0
C1414 C 0.6445 0.04925 0.29187 0.0
C1415 C 0.65247 0.07469 0.31815 0.0
C1416 C 0.6681 0.03092 0.27353 0.0
C1417 C 0.75187 0.01684 0.2826 0.0
H1418 H 0.74366 0.9689 0.17356 0.0
C1419 C 0.85316 0.94894 0.19505 0.0
C1420 C 0.84492 0.92342 0.1694 0.0
C1421 C 0.82974 0.96752 0.21307 0.0
C1422 C 0.74612 0.98198 0.20412 0.0
H1423 H 0.69158 0.10084 0.34558 0.0
H1424 H 0.73271 0.06889 0.31325 0.0
H1425 H 0.70266 0.00119 0.20522 0.0
H1426 H 0.80553 0.89743 0.14263 0.0
H1427 H 0.76474 0.92983 0.17434 0.0
H1428 H 0.79534 0.99762 0.28149 0.0
C1429 C 0.70818 0.06305 0.30724 0.0
C1430 C 0.72265 0.00047 0.22225 0.0
C1431 C 0.68459 0.0814 0.32559 0.0
C1432 C 0.81273 0.91692 0.16215 0.0
C1433 C 0.78933 0.93551 0.18014 0.0
C1434 C 0.77536 0.99836 0.26446 0.0
C1435 C 0.7002 0.03761 0.28104 0.0
C1436 C 0.72524 0.01808 0.2617 0.0
C1437 C 0.79759 0.961 0.20582 0.0
C1438 C 0.77272 0.98072 0.22503 0.0
H1439 H 0.62 0.04339 0.28553 0.0
H1440 H 0.66118 0.01139 0.25386 0.0
H1441 H 0.75432 0.02989 0.31318 0.0
H1442 H 0.87772 0.95463 0.20125 0.0
H1443 H 0.83685 0.98707 0.23236 0.0
C1444 C 0.98713 0.80799 0.18405 0.0
C1445 C 0.95492 0.81372 0.18377 0.0
C1446 C 0.99732 0.79312 0.20203 0.0
C1447 C 0.96892 0.74566 0.23378 0.0
H1448 H 0.04435 0.76506 0.29775 0.0
C1449 C 0.00501 0.69596 0.32799 0.0
C1450 C 0.03729 0.69082 0.32926 0.0
C1451 C 0.99489 0.71101 0.31028 0.0
C1452 C 0.02344 0.75921 0.27962 0.0
H1453 H 0.90813 0.80897 0.20244 0.0
H1454 H 0.92583 0.7829 0.2338 0.0
H1455 H 0.027 0.79126 0.2666 0.0
H1456 H 0.08432 0.69682 0.3127 0.0
H1457 H 0.06676 0.72301 0.28149 0.0
H1458 H 0.9654 0.71355 0.24661 0.0
C1459 C 0.9432 0.78956 0.21973 0.0
C1460 C 0.0135 0.77423 0.2618 0.0
C1461 C 0.93306 0.80448 0.20187 0.0
C1462 C 0.05931 0.70083 0.31245 0.0
C1463 C 0.04924 0.71585 0.29471 0.0
C1464 C 0.97888 0.7306 0.25152 0.0
C1465 C 0.97544 0.78366 0.21995 0.0
C1466 C 0.98612 0.76764 0.23872 0.0
C1467 C 0.01691 0.72116 0.29346 0.0
C1468 C 0.00625 0.73721 0.27467 0.0
H1469 H 0.00435 0.81473 0.16991 0.0
H1470 H 0.02227 0.78865 0.20132 0.0
H1471 H 0.94798 0.73986 0.21569 0.0
H1472 H 0.98766 0.68858 0.3411 0.0
H1473 H 0.96987 0.71502 0.31027 0.0
C1474 C 0.31443 0.83021 0.08277 0.0
C1475 C 0.34642 0.82315 0.07471 0.0
C1476 C 0.2905 0.81212 0.06506 0.0
C1477 C 0.27562 0.74203 0.01564 0.0
H1478 H 0.20021 0.76166 0.97811 0.0
C1479 C 0.18322 0.66771 0.91982 0.0
C1480 C 0.15113 0.67433 0.92796 0.0
C1481 C 0.20685 0.68598 0.93811 0.0
C1482 C 0.22097 0.75597 0.98883 0.0
H1483 H 0.37829 0.7915 0.04149 0.0
H1484 H 0.33648 0.76002 0.0103 0.0
H1485 H 0.24198 0.79331 0.00904 0.0
H1486 H 0.11874 0.70541 0.96185 0.0
H1487 H 0.16009 0.73725 0.99394 0.0
H1488 H 0.25466 0.70466 0.99529 0.0
C1489 C 0.32995 0.77948 0.03075 0.0
C1490 C 0.24489 0.7741 0.00655 0.0
C1491 C 0.35391 0.79757 0.04848 0.0
C1492 C 0.14322 0.69967 0.95483 0.0
C1493 C 0.16689 0.71796 0.97308 0.0
C1494 C 0.25172 0.72391 0.99788 0.0
C1495 C 0.29798 0.78655 0.03886 0.0
C1496 C 0.27251 0.76732 0.0201 0.0
C1497 C 0.19896 0.7113 0.96493 0.0
C1498 C 0.22416 0.73067 0.98423 0.0
H1499 H 0.3078 0.84972 0.10293 0.0
H1500 H 0.26611 0.81809 0.07231 0.0
H1501 H 0.29636 0.73632 0.02634 0.0
H1502 H 0.19019 0.64841 0.89921 0.0
H1503 H 0.23133 0.68034 0.93084 0.0
C1504 C 0.03798 0.5687 0.97027 0.0
C1505 C 0.04168 0.55924 0.93009 0.0
C1506 C 0.02789 0.55239 0.98579 0.0
C1507 C 0.02245 0.48357 0.96319 0.0
H1508 H 0.96227 0.50855 0.0481 0.0
C1509 C 0.96265 0.41703 0.01911 0.0
C1510 C 0.95909 0.4269 0.05938 0.0
C1511 C 0.97344 0.43288 0.00305 0.0
C1512 C 0.97936 0.50138 0.02469 0.0
H1513 H 0.03741 0.52565 0.87443 0.0
H1514 H 0.01955 0.497 0.90142 0.0
H1515 H 0.97919 0.53684 0.02043 0.0
H1516 H 0.96445 0.46066 0.11464 0.0
H1517 H 0.98348 0.48845 0.08676 0.0
H1518 H 0.02251 0.44805 0.96745 0.0
C1519 C 0.02489 0.5169 0.92106 0.0
C1520 C 0.98905 0.51759 0.00882 0.0
C1521 C 0.03498 0.53326 0.90558 0.0
C1522 C 0.96685 0.45273 0.08344 0.0
C1523 C 0.97757 0.46861 0.06746 0.0
C1524 C 0.01272 0.46733 0.97905 0.0
C1525 C 0.02129 0.52627 0.96137 0.0
C1526 C 0.01076 0.5089 0.97794 0.0
C1527 C 0.98076 0.45892 0.02705 0.0
C1528 C 0.99113 0.47608 0.01005 0.0
H1529 H 0.04334 0.58865 0.98971 0.0
H1530 H 0.0258 0.56013 0.01699 0.0
H1531 H 0.03955 0.4764 0.93979 0.0
H1532 H 0.95643 0.3972 1.00002 0.0
H1533 H 0.9753 0.42493 0.97181 0.0
C1534 C 0.14388 0.55749 0.31391 0.0
C1535 C 0.15089 0.58291 0.34124 0.0
C1536 C 0.16813 0.54 0.29495 0.0
C1537 C 0.25264 0.52727 0.30228 0.0
H1538 H 0.24415 0.48188 0.19223 0.0
C1539 C 0.3538 0.4605 0.21093 0.0
C1540 C 0.34531 0.43531 0.1841 0.0
C1541 C 0.33057 0.47904 0.23006 0.0
C1542 C 0.24674 0.49425 0.22304 0.0
H1543 H 0.18899 0.60979 0.37023 0.0
H1544 H 0.23134 0.57921 0.33685 0.0
H1545 H 0.20279 0.5133 0.22594 0.0
H1546 H 0.30564 0.40989 0.15641 0.0
H1547 H 0.26521 0.44216 0.19001 0.0
H1548 H 0.29657 0.50812 0.29936 0.0
C1549 C 0.20703 0.57281 0.33041 0.0
C1550 C 0.22304 0.51224 0.24235 0.0
C1551 C 0.18275 0.59035 0.34939 0.0
C1552 C 0.31306 0.42912 0.17679 0.0
C1553 C 0.28985 0.44766 0.19589 0.0
C1554 C 0.27637 0.50925 0.28294 0.0
C1555 C 0.19997 0.54748 0.30285 0.0
C1556 C 0.22562 0.52885 0.28223 0.0
C1557 C 0.29834 0.47283 0.22275 0.0
C1558 C 0.27358 0.49244 0.24315 0.0
H1559 H 0.11962 0.55105 0.307 0.0
H1560 H 0.16191 0.52051 0.27432 0.0
H1561 H 0.25514 0.53959 0.33311 0.0
H1562 H 0.37843 0.46595 0.21722 0.0
H1563 H 0.33787 0.49835 0.25027 0.0
C1564 C 0.81175 0.32357 0.07441 0.0
C1565 C 0.84387 0.31667 0.06752 0.0
C1566 C 0.78812 0.30532 0.056 0.0
C1567 C 0.77357 0.23517 0.00625 0.0
H1568 H 0.69998 0.25462 0.96538 0.0
C1569 C 0.68237 0.1608 0.90705 0.0
C1570 C 0.65022 0.16764 0.91372 0.0
C1571 C 0.70592 0.17896 0.92629 0.0
C1572 C 0.72021 0.24898 0.97703 0.0
H1573 H 0.8763 0.28512 0.0358 0.0
H1574 H 0.835 0.25335 0.0034 0.0
H1575 H 0.74132 0.28631 0.99793 0.0
H1576 H 0.61767 0.19897 0.94611 0.0
H1577 H 0.65882 0.23056 0.97982 0.0
H1578 H 0.75246 0.1978 0.98521 0.0
C1579 C 0.82813 0.27282 0.02344 0.0
C1580 C 0.7439 0.26713 0.99567 0.0
C1581 C 0.8518 0.29108 0.04186 0.0
C1582 C 0.64219 0.19305 0.94016 0.0
C1583 C 0.66577 0.21121 0.95935 0.0
C1584 C 0.74988 0.21701 0.98757 0.0
C1585 C 0.79603 0.27975 0.03026 0.0
C1586 C 0.77085 0.26043 0.01049 0.0
C1587 C 0.69789 0.20437 0.9526 0.0
C1588 C 0.72295 0.22371 0.97273 0.0
H1589 H 0.80477 0.34308 0.09411 0.0
H1590 H 0.76361 0.31119 0.06229 0.0
H1591 H 0.7938 0.22953 0.01787 0.0
H1592 H 0.68942 0.14142 0.88683 0.0
H1593 H 0.73046 0.17317 0.92011 0.0
C1594 C 0.85526 0.45176 0.70291 0.0
C1595 C 0.84663 0.42636 0.67716 0.0
C1596 C 0.83208 0.47039 0.72211 0.0
C1597 C 0.74774 0.47739 0.7507 0.0
H1598 H 0.75721 0.5463 0.75977 0.0
C1599 C 0.64529 0.55078 0.79905 0.0
C1600 C 0.65247 0.57644 0.82514 0.0
C1601 C 0.66944 0.53275 0.78185 0.0
C1602 C 0.75439 0.52722 0.75785 0.0
H1603 H 0.80679 0.40068 0.65138 0.0
H1604 H 0.76656 0.43317 0.68443 0.0
H1605 H 0.7987 0.51435 0.72856 0.0
H1606 H 0.6908 0.60326 0.85349 0.0
H1607 H 0.73286 0.57173 0.82358 0.0
H1608 H 0.70334 0.4902 0.77972 0.0
C1609 C 0.79121 0.43862 0.69026 0.0
C1610 C 0.77817 0.50893 0.74002 0.0
C1611 C 0.81433 0.42002 0.67112 0.0
C1612 C 0.68439 0.58367 0.83348 0.0
C1613 C 0.70854 0.56564 0.81619 0.0
C1614 C 0.72396 0.49566 0.76846 0.0
C1615 C 0.79979 0.46402 0.71598 0.0
C1616 C 0.77503 0.48375 0.73603 0.0
C1617 C 0.70132 0.53997 0.79027 0.0
C1618 C 0.72693 0.52074 0.77206 0.0
H1619 H 0.87992 0.45729 0.70834 0.0
H1620 H 0.83947 0.48972 0.74208 0.0
H1621 H 0.74484 0.45831 0.74872 0.0
H1622 H 0.62098 0.54455 0.79186 0.0
H1623 H 0.66312 0.5132 0.76159 0.0
C1624 C 0.46787 0.95731 0.08378 0.0
C1625 C 0.46064 0.93114 0.0615 0.0
C1626 C 0.47771 0.97229 0.06585 0.0
C1627 C 0.47554 0.97447 0.9717 0.0
H1628 H 0.5417 0.02553 0.01776 0.0
C1629 C 0.531 0.02965 0.89386 0.0
C1630 C 0.53712 0.05598 0.9166 0.0
C1631 C 0.52129 0.0143 0.91125 0.0
C1632 C 0.52295 0.01154 0.00476 0.0
H1633 H 0.45803 0.89992 0.00329 0.0
H1634 H 0.47593 0.9259 0.97177 0.0
H1635 H 0.52633 0.99865 0.04853 0.0
H1636 H 0.53768 0.08711 0.97501 0.0
H1637 H 0.52028 0.06042 0.00553 0.0
H1638 H 0.47226 0.98735 0.92785 0.0
C1639 C 0.47362 0.935 0.00305 0.0
C1640 C 0.51414 0.99613 0.02239 0.0
C1641 C 0.46373 0.92005 0.02104 0.0
C1642 C 0.53295 0.06684 0.95691 0.0
C1643 C 0.52332 0.05151 0.97434 0.0
C1644 C 0.4844 0.98985 0.95402 0.0
C1645 C 0.48055 0.96135 0.02524 0.0
C1646 C 0.49028 0.97745 0.00613 0.0
C1647 C 0.51757 0.02502 0.95174 0.0
C1648 C 0.50815 0.00861 0.97041 0.0
H1649 H 0.46568 0.96622 0.11508 0.0
H1650 H 0.48248 0.99257 0.08378 0.0
H1651 H 0.45671 0.96056 0.95875 0.0
H1652 H 0.53391 0.02093 0.86265 0.0
H1653 H 0.51729 0.99393 0.89307 0.0
C1654 C 0.45765 0.33027 0.2284 0.0
C1655 C 0.45477 0.32101 0.18816 0.0
C1656 C 0.46796 0.31395 0.24385 0.0
C1657 C 0.511 0.253 0.21816 0.0
H1658 H 0.46951 0.25564 0.30947 0.0
C1659 C 0.53571 0.17788 0.2742 0.0
C1660 C 0.53892 0.18727 0.31443 0.0
C1661 C 0.52494 0.19404 0.25869 0.0
C1662 C 0.48155 0.25485 0.28419 0.0
H1663 H 0.46042 0.28775 0.13237 0.0
H1664 H 0.47806 0.259 0.15924 0.0
H1665 H 0.45208 0.28435 0.28267 0.0
H1666 H 0.53323 0.22059 0.37016 0.0
H1667 H 0.51477 0.24907 0.34318 0.0
H1668 H 0.54049 0.22351 0.2197 0.0
C1669 C 0.47275 0.2789 0.17893 0.0
C1670 C 0.47158 0.27132 0.26885 0.0
C1671 C 0.46245 0.29525 0.16354 0.0
C1672 C 0.53098 0.21299 0.33899 0.0
C1673 C 0.52021 0.22918 0.32354 0.0
C1674 C 0.52097 0.23653 0.2335 0.0
C1675 C 0.47555 0.28805 0.21929 0.0
C1676 C 0.4862 0.27059 0.23567 0.0
C1677 C 0.51719 0.21992 0.28318 0.0
C1678 C 0.50637 0.23727 0.2667 0.0
H1679 H 0.45163 0.35007 0.2479 0.0
H1680 H 0.4702 0.32167 0.27503 0.0
H1681 H 0.52308 0.25222 0.19291 0.0
H1682 H 0.54189 0.15811 0.25474 0.0
H1683 H 0.52253 0.18623 0.22752 0.0
C1684 C 0.46036 0.82652 0.72098 0.0
C1685 C 0.45398 0.81604 0.68114 0.0
C1686 C 0.47131 0.81078 0.73715 0.0
C1687 C 0.47511 0.74234 0.71814 0.0
H1688 H 0.53796 0.76781 0.80004 0.0
C1689 C 0.53603 0.67696 0.77521 0.0
C1690 C 0.5395 0.68713 0.81555 0.0
C1691 C 0.5256 0.69261 0.75864 0.0
C1692 C 0.52018 0.76052 0.77744 0.0
H1693 H 0.45468 0.78126 0.62666 0.0
H1694 H 0.47429 0.75367 0.65464 0.0
H1695 H 0.52042 0.79525 0.77106 0.0
H1696 H 0.53471 0.7214 0.87034 0.0
H1697 H 0.51666 0.74893 0.84144 0.0
H1698 H 0.47513 0.70752 0.72438 0.0
C1699 C 0.47022 0.77391 0.67366 0.0
C1700 C 0.51009 0.77624 0.76085 0.0
C1701 C 0.45914 0.78966 0.65757 0.0
C1702 C 0.53243 0.71321 0.83909 0.0
C1703 C 0.52219 0.72892 0.82255 0.0
C1704 C 0.48533 0.72657 0.73461 0.0
C1705 C 0.47627 0.78424 0.71371 0.0
C1706 C 0.48737 0.76738 0.73104 0.0
C1707 C 0.51867 0.7188 0.78212 0.0
C1708 C 0.50792 0.73551 0.7645 0.0
H1709 H 0.45628 0.8468 0.73974 0.0
H1710 H 0.47527 0.81933 0.76815 0.0
H1711 H 0.45718 0.73504 0.69574 0.0
H1712 H 0.54178 0.65697 0.75646 0.0
H1713 H 0.52351 0.68433 0.72738 0.0
C1714 C 0.53084 0.53565 0.40225 0.0
C1715 C 0.53681 0.56203 0.42476 0.0
C1716 C 0.52071 0.52051 0.41981 0.0
C1717 C 0.48434 0.52507 0.51002 0.0
H1718 H 0.51912 0.45641 0.47539 0.0
C1719 C 0.4658 0.46607 0.59504 0.0
C1720 C 0.45852 0.43985 0.57328 0.0
C1721 C 0.47528 0.48078 0.57653 0.0
C1722 C 0.50896 0.47544 0.48513 0.0
H1723 H 0.53715 0.59338 0.48297 0.0
H1724 H 0.5197 0.567 0.51387 0.0
H1725 H 0.5354 0.48248 0.44358 0.0
H1726 H 0.45519 0.40835 0.51536 0.0
H1727 H 0.47199 0.43398 0.4828 0.0
H1728 H 0.4581 0.51809 0.55176 0.0
C1729 C 0.52228 0.55799 0.48263 0.0
C1730 C 0.51824 0.49037 0.46686 0.0
C1731 C 0.53234 0.5731 0.46502 0.0
C1732 C 0.46109 0.42849 0.53273 0.0
C1733 C 0.4707 0.44315 0.51418 0.0
C1734 C 0.47515 0.51017 0.52834 0.0
C1735 C 0.5164 0.53149 0.46026 0.0
C1736 C 0.5061 0.5154 0.47916 0.0
C1737 C 0.47775 0.4695 0.53587 0.0
C1738 C 0.48741 0.48522 0.51618 0.0
H1739 H 0.53387 0.5268 0.37105 0.0
H1740 H 0.51596 0.50025 0.40167 0.0
H1741 H 0.47411 0.54408 0.51978 0.0
H1742 H 0.46421 0.47516 0.62641 0.0
H1743 H 0.48096 0.50093 0.59408 0.0
loop_
_geom_bond_atom_site_label_1
_geom_bond_atom_site_label_2
_geom_bond_distance
_geom_bond_site_symmetry_2
_ccdc_geom_bond_type
Co0 O3 1.970 . S
Co0 N17 1.989 . S
Co0 O25 1.967 . S
Co0 O32 1.920 . S
Co1 O4 1.966 . S
Co1 N10 2.022 . S
Co1 N18 1.993 . S
Co1 O26 1.941 . S
C2 O3 1.258 . S
C2 O4 1.263 . S
O3 Co0 1.970 . S
O3 C2 1.258 . S
O4 Co1 1.966 . S
O4 C2 1.263 . S
C5 O6 1.235 . S
C5 O32 1.289 . S
O6 C5 1.235 . S
C7 C9 1.400 . S
C7 N10 1.351 1_655 S
C7 C12 1.501 1_655 S
C8 C9 1.387 . S
C8 N11 1.341 1_655 S
C9 C7 1.400 . S
C9 C8 1.387 . S
N10 Co1 2.022 . S
N10 C7 1.351 1_455 S
N10 N11 1.365 . S
N11 C8 1.341 1_455 S
N11 N10 1.365 . S
N11 H31 0.862 . S
C12 C7 1.501 1_455 S
C12 H13 0.961 . S
C12 H14 0.961 1_455 S
C12 H15 0.960 1_455 S
H13 C12 0.961 . S
H14 C12 0.961 1_655 S
H15 C12 0.960 1_655 S
C16 N17 1.342 . S
C16 C20 1.401 . S
C16 C21 1.499 . S
N17 Co0 1.989 . S
N17 C16 1.342 . S
N17 N18 1.388 . S
N18 Co1 1.993 . S
N18 N17 1.388 . S
N18 C19 1.346 . S
C19 N18 1.346 . S
C19 C20 1.396 . S
C19 C29 1.510 . S
C20 C16 1.401 . S
C20 C19 1.396 . S
C21 C16 1.499 . S
C21 H22 0.959 . S
C21 H23 0.960 . S
C21 H24 0.961 . S
H22 C21 0.959 . S
H23 C21 0.960 . S
H24 C21 0.961 . S
O25 Co0 1.967 . S
O25 C33 1.258 . S
O26 Co1 1.941 . S
O26 C33 1.266 . S
H27 C29 0.959 . S
H28 C29 0.961 . S
C29 C19 1.510 . S
C29 H27 0.959 . S
C29 H28 0.961 . S
C29 H30 0.960 . S
H30 C29 0.960 . S
H31 N11 0.862 . S
O32 Co0 1.920 . S
O32 C5 1.289 . S
C33 O25 1.258 . S
C33 O26 1.266 . S
Co34 O37 1.970 . S
Co34 N51 1.989 . S
Co34 O59 1.967 . S
Co34 O66 1.920 . S
Co35 O38 1.966 . S
Co35 N44 2.022 . S
Co35 N52 1.993 . S
Co35 O60 1.941 . S
C36 O37 1.258 . S
C36 O38 1.263 . S
O37 Co34 1.970 . S
O37 C36 1.258 . S
O38 Co35 1.966 . S
O38 C36 1.263 . S
C39 O40 1.235 . S
C39 O66 1.289 . S
O40 C39 1.235 . S
C41 C43 1.400 . S
C41 N44 1.351 1_655 S
C41 C46 1.501 1_655 S
C42 C43 1.387 . S
C42 N45 1.341 1_655 S
C43 C41 1.400 . S
C43 C42 1.387 . S
N44 Co35 2.022 . S
N44 C41 1.351 1_455 S
N44 N45 1.365 . S
N45 C42 1.341 1_455 S
N45 N44 1.365 . S
N45 H65 0.862 . S
C46 C41 1.501 1_455 S
C46 H47 0.961 . S
C46 H48 0.961 1_455 S
C46 H49 0.960 1_455 S
H47 C46 0.961 . S
H48 C46 0.961 1_655 S
H49 C46 0.960 1_655 S
C50 N51 1.342 . S
C50 C54 1.401 . S
C50 C55 1.499 . S
N51 Co34 1.989 . S
N51 C50 1.342 . S
N51 N52 1.388 . S
N52 Co35 1.993 . S
N52 N51 1.388 . S
N52 C53 1.346 . S
C53 N52 1.346 . S
C53 C54 1.396 . S
C53 C63 1.510 . S
C54 C50 1.401 . S
C54 C53 1.396 . S
C55 C50 1.499 . S
C55 H56 0.959 . S
C55 H57 0.960 . S
C55 H58 0.961 . S
H56 C55 0.959 . S
H57 C55 0.960 . S
H58 C55 0.961 . S
O59 Co34 1.967 . S
O59 C67 1.258 . S
O60 Co35 1.941 . S
O60 C67 1.266 . S
H61 C63 0.959 . S
H62 C63 0.961 . S
C63 C53 1.510 . S
C63 H61 0.959 . S
C63 H62 0.961 . S
C63 H64 0.960 . S
H64 C63 0.960 . S
H65 N45 0.862 . S
O66 Co34 1.920 . S
O66 C39 1.289 . S
C67 O59 1.258 . S
C67 O60 1.266 . S
Co68 O71 1.970 . S
Co68 N85 1.989 . S
Co68 O93 1.967 . S
Co68 O100 1.920 . S
Co69 O72 1.966 . S
Co69 N78 2.022 . S
Co69 N86 1.993 . S
Co69 O94 1.941 . S
C70 O71 1.258 . S
C70 O72 1.263 . S
O71 Co68 1.970 . S
O71 C70 1.258 . S
O72 Co69 1.966 . S
O72 C70 1.263 . S
C73 O74 1.235 . S
C73 O100 1.289 . S
O74 C73 1.235 . S
C75 C77 1.400 . S
C75 N78 1.351 1_455 S
C75 C80 1.501 1_455 S
C76 C77 1.387 . S
C76 N79 1.341 1_455 S
C77 C75 1.400 . S
C77 C76 1.387 . S
N78 Co69 2.022 . S
N78 C75 1.351 1_655 S
N78 N79 1.365 . S
N79 C76 1.341 1_655 S
N79 N78 1.365 . S
N79 H99 0.862 . S
C80 C75 1.501 1_655 S
C80 H81 0.961 . S
C80 H82 0.961 1_655 S
C80 H83 0.960 1_655 S
H81 C80 0.961 . S
H82 C80 0.961 1_455 S
H83 C80 0.960 1_455 S
C84 N85 1.342 . S
C84 C88 1.401 . S
C84 C89 1.499 . S
N85 Co68 1.989 . S
N85 C84 1.342 . S
N85 N86 1.388 . S
N86 Co69 1.993 . S
N86 N85 1.388 . S
N86 C87 1.346 . S
C87 N86 1.346 . S
C87 C88 1.396 . S
C87 C97 1.510 . S
C88 C84 1.401 . S
C88 C87 1.396 . S
C89 C84 1.499 . S
C89 H90 0.959 . S
C89 H91 0.960 . S
C89 H92 0.961 . S
H90 C89 0.959 . S
H91 C89 0.960 . S
H92 C89 0.961 . S
O93 Co68 1.967 . S
O93 C101 1.258 . S
O94 Co69 1.941 . S
O94 C101 1.266 . S
H95 C97 0.959 . S
H96 C97 0.961 . S
C97 C87 1.510 . S
C97 H95 0.959 . S
C97 H96 0.961 . S
C97 H98 0.960 . S
H98 C97 0.960 . S
H99 N79 0.862 . S
O100 Co68 1.920 . S
O100 C73 1.289 . S
C101 O93 1.258 . S
C101 O94 1.266 . S
Co102 O105 1.970 . S
Co102 N119 1.989 . S
Co102 O127 1.967 . S
Co102 O134 1.920 . S
Co103 O106 1.966 . S
Co103 N112 2.022 . S
Co103 N120 1.993 . S
Co103 O128 1.941 . S
C104 O105 1.258 . S
C104 O106 1.263 . S
O105 Co102 1.970 . S
O105 C104 1.258 . S
O106 Co103 1.966 . S
O106 C104 1.263 . S
C107 O108 1.235 . S
C107 O134 1.289 . S
O108 C107 1.235 . S
C109 C111 1.400 . S
C109 N112 1.351 1_455 S
C109 C114 1.501 1_455 S
C110 C111 1.387 . S
C110 N113 1.341 1_455 S
C111 C109 1.400 . S
C111 C110 1.387 . S
N112 Co103 2.022 . S
N112 C109 1.351 1_655 S
N112 N113 1.365 . S
N113 C110 1.341 1_655 S
N113 N112 1.365 . S
N113 H133 0.862 . S
C114 C109 1.501 1_655 S
C114 H115 0.961 . S
C114 H116 0.961 1_655 S
C114 H117 0.960 1_655 S
H115 C114 0.961 . S
H116 C114 0.961 1_455 S
H117 C114 0.960 1_455 S
C118 N119 1.342 . S
C118 C122 1.401 . S
C118 C123 1.499 . S
N119 Co102 1.989 . S
N119 C118 1.342 . S
N119 N120 1.388 . S
N120 Co103 1.993 . S
N120 N119 1.388 . S
N120 C121 1.346 . S
C121 N120 1.346 . S
C121 C122 1.396 . S
C121 C131 1.510 . S
C122 C118 1.401 . S
C122 C121 1.396 . S
C123 C118 1.499 . S
C123 H124 0.959 . S
C123 H125 0.960 . S
C123 H126 0.961 . S
H124 C123 0.959 . S
H125 C123 0.960 . S
H126 C123 0.961 . S
O127 Co102 1.967 . S
O127 C135 1.258 . S
O128 Co103 1.941 . S
O128 C135 1.266 . S
H129 C131 0.959 . S
H130 C131 0.961 . S
C131 C121 1.510 . S
C131 H129 0.959 . S
C131 H130 0.961 . S
C131 H132 0.960 . S
H132 C131 0.960 . S
H133 N113 0.862 . S
O134 Co102 1.920 . S
O134 C107 1.289 . S
C135 O127 1.258 . S
C135 O128 1.266 . S
Co136 O139 1.970 . S
Co136 N153 1.989 . S
Co136 O161 1.967 . S
Co136 O168 1.920 . S
Co137 O140 1.966 . S
Co137 N146 2.022 . S
Co137 N154 1.993 . S
Co137 O162 1.941 . S
C138 O139 1.258 . S
C138 O140 1.263 . S
O139 Co136 1.970 . S
O139 C138 1.258 . S
O140 Co137 1.966 . S
O140 C138 1.263 . S
C141 O142 1.235 . S
C141 O168 1.289 . S
O142 C141 1.235 . S
C143 C145 1.400 . S
C143 N146 1.351 1_655 S
C143 C148 1.501 1_655 S
C144 C145 1.387 . S
C144 N147 1.341 1_655 S
C145 C143 1.400 . S
C145 C144 1.387 . S
N146 Co137 2.022 . S
N146 C143 1.351 1_455 S
N146 N147 1.365 . S
N147 C144 1.341 1_455 S
N147 N146 1.365 . S
N147 H167 0.862 . S
C148 C143 1.501 1_455 S
C148 H149 0.961 . S
C148 H150 0.961 1_455 S
C148 H151 0.960 1_455 S
H149 C148 0.961 . S
H150 C148 0.961 1_655 S
H151 C148 0.960 1_655 S
C152 N153 1.342 . S
C152 C156 1.401 . S
C152 C157 1.499 . S
N153 Co136 1.989 . S
N153 C152 1.342 . S
N153 N154 1.388 . S
N154 Co137 1.993 . S
N154 N153 1.388 . S
N154 C155 1.346 . S
C155 N154 1.346 . S
C155 C156 1.396 . S
C155 C165 1.510 . S
C156 C152 1.401 . S
C156 C155 1.396 . S
C157 C152 1.499 . S
C157 H158 0.959 . S
C157 H159 0.960 . S
C157 H160 0.961 . S
H158 C157 0.959 . S
H159 C157 0.960 . S
H160 C157 0.961 . S
O161 Co136 1.967 . S
O161 C169 1.258 . S
O162 Co137 1.941 . S
O162 C169 1.266 . S
H163 C165 0.959 . S
H164 C165 0.961 . S
C165 C155 1.510 . S
C165 H163 0.959 . S
C165 H164 0.961 . S
C165 H166 0.960 . S
H166 C165 0.960 . S
H167 N147 0.862 . S
O168 Co136 1.920 . S
O168 C141 1.289 . S
C169 O161 1.258 . S
C169 O162 1.266 . S
Co170 O173 1.970 . S
Co170 N187 1.989 . S
Co170 O195 1.967 . S
Co170 O202 1.920 . S
Co171 O174 1.966 . S
Co171 N180 2.022 . S
Co171 N188 1.993 . S
Co171 O196 1.941 . S
C172 O173 1.258 . S
C172 O174 1.263 . S
O173 Co170 1.970 . S
O173 C172 1.258 . S
O174 Co171 1.966 . S
O174 C172 1.263 . S
C175 O176 1.235 . S
C175 O202 1.289 . S
O176 C175 1.235 . S
C177 C179 1.400 . S
C177 N180 1.351 1_655 S
C177 C182 1.501 1_655 S
C178 C179 1.387 . S
C178 N181 1.341 1_655 S
C179 C177 1.400 . S
C179 C178 1.387 . S
N180 Co171 2.022 . S
N180 C177 1.351 1_455 S
N180 N181 1.365 . S
N181 C178 1.341 1_455 S
N181 N180 1.365 . S
N181 H201 0.862 . S
C182 C177 1.501 1_455 S
C182 H183 0.961 . S
C182 H184 0.961 1_455 S
C182 H185 0.960 1_455 S
H183 C182 0.961 . S
H184 C182 0.961 1_655 S
H185 C182 0.960 1_655 S
C186 N187 1.342 . S
C186 C190 1.401 . S
C186 C191 1.499 . S
N187 Co170 1.989 . S
N187 C186 1.342 . S
N187 N188 1.388 . S
N188 Co171 1.993 . S
N188 N187 1.388 . S
N188 C189 1.346 . S
C189 N188 1.346 . S
C189 C190 1.396 . S
C189 C199 1.510 . S
C190 C186 1.401 . S
C190 C189 1.396 . S
C191 C186 1.499 . S
C191 H192 0.959 . S
C191 H193 0.960 . S
C191 H194 0.961 . S
H192 C191 0.959 . S
H193 C191 0.960 . S
H194 C191 0.961 . S
O195 Co170 1.967 . S
O195 C203 1.258 . S
O196 Co171 1.941 . S
O196 C203 1.266 . S
H197 C199 0.959 . S
H198 C199 0.961 . S
C199 C189 1.510 . S
C199 H197 0.959 . S
C199 H198 0.961 . S
C199 H200 0.960 . S
H200 C199 0.960 . S
H201 N181 0.862 . S
O202 Co170 1.920 . S
O202 C175 1.289 . S
C203 O195 1.258 . S
C203 O196 1.266 . S
Co204 O207 1.970 . S
Co204 N221 1.989 . S
Co204 O229 1.967 . S
Co204 O236 1.920 . S
Co205 O208 1.966 . S
Co205 N214 2.022 . S
Co205 N222 1.993 . S
Co205 O230 1.941 . S
C206 O207 1.258 . S
C206 O208 1.263 . S
O207 Co204 1.970 . S
O207 C206 1.258 . S
O208 Co205 1.966 . S
O208 C206 1.263 . S
C209 O210 1.235 . S
C209 O236 1.289 . S
O210 C209 1.235 . S
C211 C213 1.400 . S
C211 N214 1.351 1_455 S
C211 C216 1.501 1_455 S
C212 C213 1.387 . S
C212 N215 1.341 1_455 S
C213 C211 1.400 . S
C213 C212 1.387 . S
N214 Co205 2.022 . S
N214 C211 1.351 1_655 S
N214 N215 1.365 . S
N215 C212 1.341 1_655 S
N215 N214 1.365 . S
N215 H235 0.862 . S
C216 C211 1.501 1_655 S
C216 H217 0.961 . S
C216 H218 0.961 1_655 S
C216 H219 0.960 1_655 S
H217 C216 0.961 . S
H218 C216 0.961 1_455 S
H219 C216 0.960 1_455 S
C220 N221 1.342 . S
C220 C224 1.401 . S
C220 C225 1.499 . S
N221 Co204 1.989 . S
N221 C220 1.342 . S
N221 N222 1.388 . S
N222 Co205 1.993 . S
N222 N221 1.388 . S
N222 C223 1.346 . S
C223 N222 1.346 . S
C223 C224 1.396 . S
C223 C233 1.510 . S
C224 C220 1.401 . S
C224 C223 1.396 . S
C225 C220 1.499 . S
C225 H226 0.959 . S
C225 H227 0.960 . S
C225 H228 0.961 . S
H226 C225 0.959 . S
H227 C225 0.960 . S
H228 C225 0.961 . S
O229 Co204 1.967 . S
O229 C237 1.258 . S
O230 Co205 1.941 . S
O230 C237 1.266 . S
H231 C233 0.959 . S
H232 C233 0.961 . S
C233 C223 1.510 . S
C233 H231 0.959 . S
C233 H232 0.961 . S
C233 H234 0.960 . S
H234 C233 0.960 . S
H235 N215 0.862 . S
O236 Co204 1.920 . S
O236 C209 1.289 . S
C237 O229 1.258 . S
C237 O230 1.266 . S
Co238 O241 1.970 . S
Co238 N255 1.989 . S
Co238 O263 1.967 . S
Co238 O270 1.920 . S
Co239 O242 1.966 . S
Co239 N248 2.022 . S
Co239 N256 1.993 . S
Co239 O264 1.941 . S
C240 O241 1.258 . S
C240 O242 1.263 . S
O241 Co238 1.970 . S
O241 C240 1.258 . S
O242 Co239 1.966 . S
O242 C240 1.263 . S
C243 O244 1.235 . S
C243 O270 1.289 . S
O244 C243 1.235 . S
C245 C247 1.400 . S
C245 N248 1.351 1_455 S
C245 C250 1.501 1_455 S
C246 C247 1.387 . S
C246 N249 1.341 1_455 S
C247 C245 1.400 . S
C247 C246 1.387 . S
N248 Co239 2.022 . S
N248 C245 1.351 1_655 S
N248 N249 1.365 . S
N249 C246 1.341 1_655 S
N249 N248 1.365 . S
N249 H269 0.862 . S
C250 C245 1.501 1_655 S
C250 H251 0.961 . S
C250 H252 0.961 1_655 S
C250 H253 0.960 1_655 S
H251 C250 0.961 . S
H252 C250 0.961 1_455 S
H253 C250 0.960 1_455 S
C254 N255 1.342 . S
C254 C258 1.401 . S
C254 C259 1.499 . S
N255 Co238 1.989 . S
N255 C254 1.342 . S
N255 N256 1.388 . S
N256 Co239 1.993 . S
N256 N255 1.388 . S
N256 C257 1.346 . S
C257 N256 1.346 . S
C257 C258 1.396 . S
C257 C267 1.510 . S
C258 C254 1.401 . S
C258 C257 1.396 . S
C259 C254 1.499 . S
C259 H260 0.959 . S
C259 H261 0.960 . S
C259 H262 0.961 . S
H260 C259 0.959 . S
H261 C259 0.960 . S
H262 C259 0.961 . S
O263 Co238 1.967 . S
O263 C271 1.258 . S
O264 Co239 1.941 . S
O264 C271 1.266 . S
H265 C267 0.959 . S
H266 C267 0.961 . S
C267 C257 1.510 . S
C267 H265 0.959 . S
C267 H266 0.961 . S
C267 H268 0.960 . S
H268 C267 0.960 . S
H269 N249 0.862 . S
O270 Co238 1.920 . S
O270 C243 1.289 . S
C271 O263 1.258 . S
C271 O264 1.266 . S
Co272 O275 1.970 . S
Co272 N289 1.989 . S
Co272 O297 1.967 . S
Co272 O304 1.920 . S
Co273 O276 1.966 . S
Co273 N282 2.022 . S
Co273 N290 1.993 . S
Co273 O298 1.941 . S
C274 O275 1.258 . S
C274 O276 1.263 . S
O275 Co272 1.970 . S
O275 C274 1.258 . S
O276 Co273 1.966 . S
O276 C274 1.263 . S
C277 O278 1.235 . S
C277 O304 1.289 . S
O278 C277 1.235 . S
C279 C281 1.400 . S
C279 N282 1.351 . S
C279 C284 1.501 . S
C280 C281 1.387 . S
C280 N283 1.341 . S
C281 C279 1.400 . S
C281 C280 1.387 . S
N282 Co273 2.022 . S
N282 C279 1.351 . S
N282 N283 1.365 . S
N283 C280 1.341 . S
N283 N282 1.365 . S
N283 H303 0.862 . S
C284 C279 1.501 . S
C284 H285 0.961 . S
C284 H286 0.961 . S
C284 H287 0.960 . S
H285 C284 0.961 . S
H286 C284 0.961 . S
H287 C284 0.960 . S
C288 N289 1.342 . S
C288 C292 1.401 . S
C288 C293 1.499 . S
N289 Co272 1.989 . S
N289 C288 1.342 . S
N289 N290 1.388 . S
N290 Co273 1.993 . S
N290 N289 1.388 . S
N290 C291 1.346 . S
C291 N290 1.346 . S
C291 C292 1.396 . S
C291 C301 1.510 . S
C292 C288 1.401 . S
C292 C291 1.396 . S
C293 C288 1.499 . S
C293 H294 0.959 . S
C293 H295 0.960 . S
C293 H296 0.961 . S
H294 C293 0.959 . S
H295 C293 0.960 . S
H296 C293 0.961 . S
O297 Co272 1.967 . S
O297 C305 1.258 . S
O298 Co273 1.941 . S
O298 C305 1.266 . S
H299 C301 0.959 . S
H300 C301 0.961 . S
C301 C291 1.510 . S
C301 H299 0.959 . S
C301 H300 0.961 . S
C301 H302 0.960 . S
H302 C301 0.960 . S
H303 N283 0.862 . S
O304 Co272 1.920 . S
O304 C277 1.289 . S
C305 O297 1.258 . S
C305 O298 1.266 . S
Co306 O309 1.970 . S
Co306 N323 1.989 . S
Co306 O331 1.967 . S
Co306 O338 1.920 . S
Co307 O310 1.966 . S
Co307 N316 2.022 . S
Co307 N324 1.993 . S
Co307 O332 1.941 . S
C308 O309 1.258 . S
C308 O310 1.263 . S
O309 Co306 1.970 . S
O309 C308 1.258 . S
O310 Co307 1.966 . S
O310 C308 1.263 . S
C311 O312 1.235 . S
C311 O338 1.289 . S
O312 C311 1.235 . S
C313 C315 1.400 . S
C313 N316 1.351 . S
C313 C318 1.501 . S
C314 C315 1.387 . S
C314 N317 1.341 . S
C315 C313 1.400 . S
C315 C314 1.387 . S
N316 Co307 2.022 . S
N316 C313 1.351 . S
N316 N317 1.365 . S
N317 C314 1.341 . S
N317 N316 1.365 . S
N317 H337 0.862 . S
C318 C313 1.501 . S
C318 H319 0.961 . S
C318 H320 0.961 . S
C318 H321 0.960 . S
H319 C318 0.961 . S
H320 C318 0.961 . S
H321 C318 0.960 . S
C322 N323 1.342 . S
C322 C326 1.401 . S
C322 C327 1.499 . S
N323 Co306 1.989 . S
N323 C322 1.342 . S
N323 N324 1.388 . S
N324 Co307 1.993 . S
N324 N323 1.388 . S
N324 C325 1.346 . S
C325 N324 1.346 . S
C325 C326 1.396 . S
C325 C335 1.510 . S
C326 C322 1.401 . S
C326 C325 1.396 . S
C327 C322 1.499 . S
C327 H328 0.959 . S
C327 H329 0.960 . S
C327 H330 0.961 . S
H328 C327 0.959 . S
H329 C327 0.960 . S
H330 C327 0.961 . S
O331 Co306 1.967 . S
O331 C339 1.258 . S
O332 Co307 1.941 . S
O332 C339 1.266 . S
H333 C335 0.959 . S
H334 C335 0.961 . S
C335 C325 1.510 . S
C335 H333 0.959 . S
C335 H334 0.961 . S
C335 H336 0.960 . S
H336 C335 0.960 . S
H337 N317 0.862 . S
O338 Co306 1.920 . S
O338 C311 1.289 . S
C339 O331 1.258 . S
C339 O332 1.266 . S
Co340 O343 1.970 . S
Co340 N357 1.989 . S
Co340 O365 1.967 . S
Co340 O372 1.920 . S
Co341 O344 1.966 . S
Co341 N350 2.022 . S
Co341 N358 1.993 . S
Co341 O366 1.941 . S
C342 O343 1.258 . S
C342 O344 1.263 . S
O343 Co340 1.970 . S
O343 C342 1.258 . S
O344 Co341 1.966 . S
O344 C342 1.263 . S
C345 O346 1.235 . S
C345 O372 1.289 . S
O346 C345 1.235 . S
C347 C349 1.400 . S
C347 N350 1.351 . S
C347 C352 1.501 . S
C348 C349 1.387 . S
C348 N351 1.341 . S
C349 C347 1.400 . S
C349 C348 1.387 . S
N350 Co341 2.022 . S
N350 C347 1.351 . S
N350 N351 1.365 . S
N351 C348 1.341 . S
N351 N350 1.365 . S
N351 H371 0.862 . S
C352 C347 1.501 . S
C352 H353 0.961 . S
C352 H354 0.961 . S
C352 H355 0.960 . S
H353 C352 0.961 . S
H354 C352 0.961 . S
H355 C352 0.960 . S
C356 N357 1.342 . S
C356 C360 1.401 . S
C356 C361 1.499 . S
N357 Co340 1.989 . S
N357 C356 1.342 . S
N357 N358 1.388 . S
N358 Co341 1.993 . S
N358 N357 1.388 . S
N358 C359 1.346 . S
C359 N358 1.346 . S
C359 C360 1.396 . S
C359 C369 1.510 . S
C360 C356 1.401 . S
C360 C359 1.396 . S
C361 C356 1.499 . S
C361 H362 0.959 . S
C361 H363 0.960 . S
C361 H364 0.961 . S
H362 C361 0.959 . S
H363 C361 0.960 . S
H364 C361 0.961 . S
O365 Co340 1.967 . S
O365 C373 1.258 . S
O366 Co341 1.941 . S
O366 C373 1.266 . S
H367 C369 0.959 . S
H368 C369 0.961 . S
C369 C359 1.510 . S
C369 H367 0.959 . S
C369 H368 0.961 . S
C369 H370 0.960 . S
H370 C369 0.960 . S
H371 N351 0.862 . S
O372 Co340 1.920 . S
O372 C345 1.289 . S
C373 O365 1.258 . S
C373 O366 1.266 . S
Co374 O377 1.970 . S
Co374 N391 1.989 . S
Co374 O399 1.967 . S
Co374 O406 1.920 . S
Co375 O378 1.966 . S
Co375 N384 2.022 . S
Co375 N392 1.993 . S
Co375 O400 1.941 . S
C376 O377 1.258 . S
C376 O378 1.263 . S
O377 Co374 1.970 . S
O377 C376 1.258 . S
O378 Co375 1.966 . S
O378 C376 1.263 . S
C379 O380 1.235 . S
C379 O406 1.289 . S
O380 C379 1.235 . S
C381 C383 1.400 . S
C381 N384 1.351 . S
C381 C386 1.501 . S
C382 C383 1.387 . S
C382 N385 1.341 . S
C383 C381 1.400 . S
C383 C382 1.387 . S
N384 Co375 2.022 . S
N384 C381 1.351 . S
N384 N385 1.365 . S
N385 C382 1.341 . S
N385 N384 1.365 . S
N385 H405 0.862 . S
C386 C381 1.501 . S
C386 H387 0.961 . S
C386 H388 0.961 . S
C386 H389 0.960 . S
H387 C386 0.961 . S
H388 C386 0.961 . S
H389 C386 0.960 . S
C390 N391 1.342 . S
C390 C394 1.401 . S
C390 C395 1.499 . S
N391 Co374 1.989 . S
N391 C390 1.342 . S
N391 N392 1.388 . S
N392 Co375 1.993 . S
N392 N391 1.388 . S
N392 C393 1.346 . S
C393 N392 1.346 . S
C393 C394 1.396 . S
C393 C403 1.510 . S
C394 C390 1.401 . S
C394 C393 1.396 . S
C395 C390 1.499 . S
C395 H396 0.959 . S
C395 H397 0.960 . S
C395 H398 0.961 . S
H396 C395 0.959 . S
H397 C395 0.960 . S
H398 C395 0.961 . S
O399 Co374 1.967 . S
O399 C407 1.258 . S
O400 Co375 1.941 . S
O400 C407 1.266 . S
H401 C403 0.959 . S
H402 C403 0.961 . S
C403 C393 1.510 . S
C403 H401 0.959 . S
C403 H402 0.961 . S
C403 H404 0.960 . S
H404 C403 0.960 . S
H405 N385 0.862 . S
O406 Co374 1.920 . S
O406 C379 1.289 . S
C407 O399 1.258 . S
C407 O400 1.266 . S
Co408 O411 1.970 . S
Co408 N425 1.989 . S
Co408 O433 1.967 . S
Co408 O440 1.920 . S
Co409 O412 1.966 . S
Co409 N418 2.022 . S
Co409 N426 1.993 . S
Co409 O434 1.941 . S
C410 O411 1.258 . S
C410 O412 1.263 . S
O411 Co408 1.970 . S
O411 C410 1.258 . S
O412 Co409 1.966 . S
O412 C410 1.263 . S
C413 O414 1.235 . S
C413 O440 1.289 . S
O414 C413 1.235 . S
C415 C417 1.400 . S
C415 N418 1.351 . S
C415 C420 1.501 . S
C416 C417 1.387 . S
C416 N419 1.341 . S
C417 C415 1.400 . S
C417 C416 1.387 . S
N418 Co409 2.022 . S
N418 C415 1.351 . S
N418 N419 1.365 . S
N419 C416 1.341 . S
N419 N418 1.365 . S
N419 H439 0.862 . S
C420 C415 1.501 . S
C420 H421 0.961 . S
C420 H422 0.961 . S
C420 H423 0.960 . S
H421 C420 0.961 . S
H422 C420 0.961 . S
H423 C420 0.960 . S
C424 N425 1.342 . S
C424 C428 1.401 . S
C424 C429 1.499 . S
N425 Co408 1.989 . S
N425 C424 1.342 . S
N425 N426 1.388 . S
N426 Co409 1.993 . S
N426 N425 1.388 . S
N426 C427 1.346 . S
C427 N426 1.346 . S
C427 C428 1.396 . S
C427 C437 1.510 . S
C428 C424 1.401 . S
C428 C427 1.396 . S
C429 C424 1.499 . S
C429 H430 0.959 . S
C429 H431 0.960 . S
C429 H432 0.961 . S
H430 C429 0.959 . S
H431 C429 0.960 . S
H432 C429 0.961 . S
O433 Co408 1.967 . S
O433 C441 1.258 . S
O434 Co409 1.941 . S
O434 C441 1.266 . S
H435 C437 0.959 . S
H436 C437 0.961 . S
C437 C427 1.510 . S
C437 H435 0.959 . S
C437 H436 0.961 . S
C437 H438 0.960 . S
H438 C437 0.960 . S
H439 N419 0.862 . S
O440 Co408 1.920 . S
O440 C413 1.289 . S
C441 O433 1.258 . S
C441 O434 1.266 . S
Co442 O445 1.970 . S
Co442 N459 1.989 . S
Co442 O467 1.967 . S
Co442 O474 1.920 . S
Co443 O446 1.966 . S
Co443 N452 2.022 . S
Co443 N460 1.993 . S
Co443 O468 1.941 . S
C444 O445 1.258 . S
C444 O446 1.263 . S
O445 Co442 1.970 . S
O445 C444 1.258 . S
O446 Co443 1.966 . S
O446 C444 1.263 . S
C447 O448 1.235 . S
C447 O474 1.289 . S
O448 C447 1.235 . S
C449 C451 1.400 . S
C449 N452 1.351 . S
C449 C454 1.501 . S
C450 C451 1.387 . S
C450 N453 1.341 . S
C451 C449 1.400 . S
C451 C450 1.387 . S
N452 Co443 2.022 . S
N452 C449 1.351 . S
N452 N453 1.365 . S
N453 C450 1.341 . S
N453 N452 1.365 . S
N453 H473 0.862 . S
C454 C449 1.501 . S
C454 H455 0.961 . S
C454 H456 0.961 . S
C454 H457 0.960 . S
H455 C454 0.961 . S
H456 C454 0.961 . S
H457 C454 0.960 . S
C458 N459 1.342 . S
C458 C462 1.401 . S
C458 C463 1.499 . S
N459 Co442 1.989 . S
N459 C458 1.342 . S
N459 N460 1.388 . S
N460 Co443 1.993 . S
N460 N459 1.388 . S
N460 C461 1.346 . S
C461 N460 1.346 . S
C461 C462 1.396 . S
C461 C471 1.510 . S
C462 C458 1.401 . S
C462 C461 1.396 . S
C463 C458 1.499 . S
C463 H464 0.959 . S
C463 H465 0.960 . S
C463 H466 0.961 . S
H464 C463 0.959 . S
H465 C463 0.960 . S
H466 C463 0.961 . S
O467 Co442 1.967 . S
O467 C475 1.258 . S
O468 Co443 1.941 . S
O468 C475 1.266 . S
H469 C471 0.959 . S
H470 C471 0.961 . S
C471 C461 1.510 . S
C471 H469 0.959 . S
C471 H470 0.961 . S
C471 H472 0.960 . S
H472 C471 0.960 . S
H473 N453 0.862 . S
O474 Co442 1.920 . S
O474 C447 1.289 . S
C475 O467 1.258 . S
C475 O468 1.266 . S
Co476 O479 1.970 . S
Co476 N493 1.989 . S
Co476 O501 1.967 . S
Co476 O508 1.920 . S
Co477 O480 1.966 . S
Co477 N486 2.022 . S
Co477 N494 1.993 . S
Co477 O502 1.941 . S
C478 O479 1.258 . S
C478 O480 1.263 . S
O479 Co476 1.970 . S
O479 C478 1.258 . S
O480 Co477 1.966 . S
O480 C478 1.263 . S
C481 O482 1.235 . S
C481 O508 1.289 . S
O482 C481 1.235 . S
C483 C485 1.400 . S
C483 N486 1.351 . S
C483 C488 1.501 . S
C484 C485 1.387 . S
C484 N487 1.341 . S
C485 C483 1.400 . S
C485 C484 1.387 . S
N486 Co477 2.022 . S
N486 C483 1.351 . S
N486 N487 1.365 . S
N487 C484 1.341 . S
N487 N486 1.365 . S
N487 H507 0.862 . S
C488 C483 1.501 . S
C488 H489 0.961 . S
C488 H490 0.961 . S
C488 H491 0.960 . S
H489 C488 0.961 . S
H490 C488 0.961 . S
H491 C488 0.960 . S
C492 N493 1.342 . S
C492 C496 1.401 . S
C492 C497 1.499 . S
N493 Co476 1.989 . S
N493 C492 1.342 . S
N493 N494 1.388 . S
N494 Co477 1.993 . S
N494 N493 1.388 . S
N494 C495 1.346 . S
C495 N494 1.346 . S
C495 C496 1.396 . S
C495 C505 1.510 . S
C496 C492 1.401 . S
C496 C495 1.396 . S
C497 C492 1.499 . S
C497 H498 0.959 . S
C497 H499 0.960 . S
C497 H500 0.961 . S
H498 C497 0.959 . S
H499 C497 0.960 . S
H500 C497 0.961 . S
O501 Co476 1.967 . S
O501 C509 1.258 . S
O502 Co477 1.941 . S
O502 C509 1.266 . S
H503 C505 0.959 . S
H504 C505 0.961 . S
C505 C495 1.510 . S
C505 H503 0.959 . S
C505 H504 0.961 . S
C505 H506 0.960 . S
H506 C505 0.960 . S
H507 N487 0.862 . S
O508 Co476 1.920 . S
O508 C481 1.289 . S
C509 O501 1.258 . S
C509 O502 1.266 . S
Co510 O513 1.970 . S
Co510 N527 1.989 . S
Co510 O535 1.967 . S
Co510 O542 1.920 . S
Co511 O514 1.966 . S
Co511 N520 2.022 . S
Co511 N528 1.993 . S
Co511 O536 1.941 . S
C512 O513 1.258 . S
C512 O514 1.263 . S
O513 Co510 1.970 . S
O513 C512 1.258 . S
O514 Co511 1.966 . S
O514 C512 1.263 . S
C515 O516 1.235 . S
C515 O542 1.289 . S
O516 C515 1.235 . S
C517 C519 1.400 . S
C517 N520 1.351 . S
C517 C522 1.501 . S
C518 C519 1.387 . S
C518 N521 1.341 . S
C519 C517 1.400 . S
C519 C518 1.387 . S
N520 Co511 2.022 . S
N520 C517 1.351 . S
N520 N521 1.365 . S
N521 C518 1.341 . S
N521 N520 1.365 . S
N521 H541 0.862 . S
C522 C517 1.501 . S
C522 H523 0.961 . S
C522 H524 0.961 . S
C522 H525 0.960 . S
H523 C522 0.961 . S
H524 C522 0.961 . S
H525 C522 0.960 . S
C526 N527 1.342 . S
C526 C530 1.401 . S
C526 C531 1.499 . S
N527 Co510 1.989 . S
N527 C526 1.342 . S
N527 N528 1.388 . S
N528 Co511 1.993 . S
N528 N527 1.388 . S
N528 C529 1.346 . S
C529 N528 1.346 . S
C529 C530 1.396 . S
C529 C539 1.510 . S
C530 C526 1.401 . S
C530 C529 1.396 . S
C531 C526 1.499 . S
C531 H532 0.959 . S
C531 H533 0.960 . S
C531 H534 0.961 . S
H532 C531 0.959 . S
H533 C531 0.960 . S
H534 C531 0.961 . S
O535 Co510 1.967 . S
O535 C543 1.258 . S
O536 Co511 1.941 . S
O536 C543 1.266 . S
H537 C539 0.959 . S
H538 C539 0.961 . S
C539 C529 1.510 . S
C539 H537 0.959 . S
C539 H538 0.961 . S
C539 H540 0.960 . S
H540 C539 0.960 . S
H541 N521 0.862 . S
O542 Co510 1.920 . S
O542 C515 1.289 . S
C543 O535 1.258 . S
C543 O536 1.266 . S
C544 C545 1.349 . S
C544 C546 1.327 . S
C544 H569 0.950 . S
C545 C544 1.349 . S
C545 C561 1.349 . S
C546 C544 1.327 . S
C546 C565 1.429 . S
C546 H570 0.950 . S
C547 C564 1.574 . S
C547 C566 1.368 . S
C547 H571 0.949 . S
H548 C552 0.949 . S
C549 C550 1.349 . S
C549 C551 1.327 . S
C549 H572 0.950 . S
C550 C549 1.349 . S
C550 C562 1.349 . S
C551 C549 1.327 . S
C551 C567 1.429 . S
C551 H573 0.950 . S
C552 H548 0.949 . S
C552 C560 1.574 . S
C552 C568 1.368 . S
H553 C561 0.950 . S
H554 C559 0.950 . S
H555 C560 0.949 . S
H556 C562 0.950 . S
H557 C563 0.950 . S
H558 C564 0.949 . S
C559 H554 0.950 . S
C559 C561 1.327 . S
C559 C565 1.429 . S
C560 C552 1.574 . S
C560 H555 0.949 . S
C560 C566 1.368 . S
C561 C545 1.349 . S
C561 H553 0.950 . S
C561 C559 1.327 . S
C562 C550 1.349 . S
C562 H556 0.950 . S
C562 C563 1.327 . S
C563 H557 0.950 . S
C563 C562 1.327 . S
C563 C567 1.429 . S
C564 C547 1.574 . S
C564 H558 0.949 . S
C564 C568 1.368 . S
C565 C546 1.429 . S
C565 C559 1.429 . S
C565 C566 1.523 . S
C566 C547 1.368 . S
C566 C560 1.368 . S
C566 C565 1.523 . S
C567 C551 1.429 . S
C567 C563 1.429 . S
C567 C568 1.523 . S
C568 C552 1.368 . S
C568 C564 1.368 . S
C568 C567 1.523 . S
H569 C544 0.950 . S
H570 C546 0.950 . S
H571 C547 0.949 . S
H572 C549 0.950 . S
H573 C551 0.950 . S
C574 C575 1.349 . S
C574 C576 1.327 . S
C574 H599 0.950 . S
C575 C574 1.349 . S
C575 C591 1.349 . S
C576 C574 1.327 . S
C576 C595 1.429 . S
C576 H600 0.950 . S
C577 C594 1.574 . S
C577 C596 1.368 . S
C577 H601 0.949 . S
H578 C582 0.949 . S
C579 C580 1.349 . S
C579 C581 1.327 . S
C579 H602 0.950 . S
C580 C579 1.349 . S
C580 C592 1.349 . S
C581 C579 1.327 . S
C581 C597 1.429 . S
C581 H603 0.950 . S
C582 H578 0.949 . S
C582 C590 1.574 . S
C582 C598 1.368 . S
H583 C591 0.950 . S
H584 C589 0.950 . S
H585 C590 0.949 . S
H586 C592 0.950 . S
H587 C593 0.950 . S
H588 C594 0.949 . S
C589 H584 0.950 . S
C589 C591 1.327 . S
C589 C595 1.429 . S
C590 C582 1.574 . S
C590 H585 0.949 . S
C590 C596 1.368 . S
C591 C575 1.349 . S
C591 H583 0.950 . S
C591 C589 1.327 . S
C592 C580 1.349 . S
C592 H586 0.950 . S
C592 C593 1.327 . S
C593 H587 0.950 . S
C593 C592 1.327 . S
C593 C597 1.429 . S
C594 C577 1.574 . S
C594 H588 0.949 . S
C594 C598 1.368 . S
C595 C576 1.429 . S
C595 C589 1.429 . S
C595 C596 1.523 . S
C596 C577 1.368 . S
C596 C590 1.368 . S
C596 C595 1.523 . S
C597 C581 1.429 . S
C597 C593 1.429 . S
C597 C598 1.523 . S
C598 C582 1.368 . S
C598 C594 1.368 . S
C598 C597 1.523 . S
H599 C574 0.950 . S
H600 C576 0.950 . S
H601 C577 0.949 . S
H602 C579 0.950 . S
H603 C581 0.950 . S
C604 C605 1.349 . S
C604 C606 1.327 . S
C604 H629 0.950 . S
C605 C604 1.349 . S
C605 C621 1.349 . S
C606 C604 1.327 . S
C606 C625 1.429 . S
C606 H630 0.950 . S
C607 C624 1.574 . S
C607 C626 1.368 . S
C607 H631 0.949 . S
H608 C612 0.949 . S
C609 C610 1.349 . S
C609 C611 1.327 . S
C609 H632 0.950 . S
C610 C609 1.349 . S
C610 C622 1.349 . S
C611 C609 1.327 . S
C611 C627 1.429 . S
C611 H633 0.950 . S
C612 H608 0.949 . S
C612 C620 1.574 . S
C612 C628 1.368 . S
H613 C621 0.950 . S
H614 C619 0.950 . S
H615 C620 0.949 . S
H616 C622 0.950 . S
H617 C623 0.950 . S
H618 C624 0.949 . S
C619 H614 0.950 . S
C619 C621 1.327 . S
C619 C625 1.429 . S
C620 C612 1.574 . S
C620 H615 0.949 . S
C620 C626 1.368 . S
C621 C605 1.349 . S
C621 H613 0.950 . S
C621 C619 1.327 . S
C622 C610 1.349 . S
C622 H616 0.950 . S
C622 C623 1.327 . S
C623 H617 0.950 . S
C623 C622 1.327 . S
C623 C627 1.429 . S
C624 C607 1.574 . S
C624 H618 0.949 . S
C624 C628 1.368 . S
C625 C606 1.429 . S
C625 C619 1.429 . S
C625 C626 1.523 . S
C626 C607 1.368 . S
C626 C620 1.368 . S
C626 C625 1.523 . S
C627 C611 1.429 . S
C627 C623 1.429 . S
C627 C628 1.523 . S
C628 C612 1.368 . S
C628 C624 1.368 . S
C628 C627 1.523 . S
H629 C604 0.950 . S
H630 C606 0.950 . S
H631 C607 0.949 . S
H632 C609 0.950 . S
H633 C611 0.950 . S
C634 C635 1.349 . S
C634 C636 1.327 . S
C634 H659 0.950 . S
C635 C634 1.349 . S
C635 C651 1.349 . S
C636 C634 1.327 . S
C636 C655 1.429 . S
C636 H660 0.950 . S
C637 C654 1.574 . S
C637 C656 1.368 . S
C637 H661 0.949 . S
H638 C642 0.949 . S
C639 C640 1.349 . S
C639 C641 1.327 . S
C639 H662 0.950 . S
C640 C639 1.349 . S
C640 C652 1.349 . S
C641 C639 1.327 . S
C641 C657 1.429 . S
C641 H663 0.950 . S
C642 H638 0.949 . S
C642 C650 1.574 . S
C642 C658 1.368 . S
H643 C651 0.950 . S
H644 C649 0.950 . S
H645 C650 0.949 . S
H646 C652 0.950 . S
H647 C653 0.950 . S
H648 C654 0.949 . S
C649 H644 0.950 . S
C649 C651 1.327 . S
C649 C655 1.429 . S
C650 C642 1.574 . S
C650 H645 0.949 . S
C650 C656 1.368 . S
C651 C635 1.349 . S
C651 H643 0.950 . S
C651 C649 1.327 . S
C652 C640 1.349 . S
C652 H646 0.950 . S
C652 C653 1.327 . S
C653 H647 0.950 . S
C653 C652 1.327 . S
C653 C657 1.429 . S
C654 C637 1.574 . S
C654 H648 0.949 . S
C654 C658 1.368 . S
C655 C636 1.429 . S
C655 C649 1.429 . S
C655 C656 1.523 . S
C656 C637 1.368 . S
C656 C650 1.368 . S
C656 C655 1.523 . S
C657 C641 1.429 . S
C657 C653 1.429 . S
C657 C658 1.523 . S
C658 C642 1.368 . S
C658 C654 1.368 . S
C658 C657 1.523 . S
H659 C634 0.950 . S
H660 C636 0.950 . S
H661 C637 0.949 . S
H662 C639 0.950 . S
H663 C641 0.950 . S
C664 C665 1.349 . S
C664 C666 1.327 . S
C664 H689 0.950 . S
C665 C664 1.349 . S
C665 C681 1.349 . S
C666 C664 1.327 . S
C666 C685 1.429 . S
C666 H690 0.950 . S
C667 C684 1.574 . S
C667 C686 1.368 . S
C667 H691 0.949 . S
H668 C672 0.949 . S
C669 C670 1.349 . S
C669 C671 1.327 . S
C669 H692 0.950 . S
C670 C669 1.349 . S
C670 C682 1.349 . S
C671 C669 1.327 . S
C671 C687 1.429 . S
C671 H693 0.950 . S
C672 H668 0.949 . S
C672 C680 1.574 . S
C672 C688 1.368 . S
H673 C681 0.950 . S
H674 C679 0.950 . S
H675 C680 0.949 . S
H676 C682 0.950 . S
H677 C683 0.950 . S
H678 C684 0.949 . S
C679 H674 0.950 . S
C679 C681 1.327 . S
C679 C685 1.429 . S
C680 C672 1.574 . S
C680 H675 0.949 . S
C680 C686 1.368 . S
C681 C665 1.349 . S
C681 H673 0.950 . S
C681 C679 1.327 . S
C682 C670 1.349 . S
C682 H676 0.950 . S
C682 C683 1.327 . S
C683 H677 0.950 . S
C683 C682 1.327 . S
C683 C687 1.429 . S
C684 C667 1.574 . S
C684 H678 0.949 . S
C684 C688 1.368 . S
C685 C666 1.429 . S
C685 C679 1.429 . S
C685 C686 1.523 . S
C686 C667 1.368 . S
C686 C680 1.368 . S
C686 C685 1.523 . S
C687 C671 1.429 . S
C687 C683 1.429 . S
C687 C688 1.523 . S
C688 C672 1.368 . S
C688 C684 1.368 . S
C688 C687 1.523 . S
H689 C664 0.950 . S
H690 C666 0.950 . S
H691 C667 0.949 . S
H692 C669 0.950 . S
H693 C671 0.950 . S
C694 C695 1.349 . S
C694 C696 1.327 . S
C694 H719 0.950 . S
C695 C694 1.349 . S
C695 C711 1.349 . S
C696 C694 1.327 . S
C696 C715 1.429 . S
C696 H720 0.950 . S
C697 C714 1.574 . S
C697 C716 1.368 . S
C697 H721 0.949 . S
H698 C702 0.949 . S
C699 C700 1.349 . S
C699 C701 1.327 . S
C699 H722 0.950 . S
C700 C699 1.349 . S
C700 C712 1.349 . S
C701 C699 1.327 . S
C701 C717 1.429 . S
C701 H723 0.950 . S
C702 H698 0.949 . S
C702 C710 1.574 . S
C702 C718 1.368 . S
H703 C711 0.950 . S
H704 C709 0.950 . S
H705 C710 0.949 . S
H706 C712 0.950 . S
H707 C713 0.950 . S
H708 C714 0.949 . S
C709 H704 0.950 . S
C709 C711 1.327 . S
C709 C715 1.429 . S
C710 C702 1.574 . S
C710 H705 0.949 . S
C710 C716 1.368 . S
C711 C695 1.349 . S
C711 H703 0.950 . S
C711 C709 1.327 . S
C712 C700 1.349 . S
C712 H706 0.950 . S
C712 C713 1.327 . S
C713 H707 0.950 . S
C713 C712 1.327 . S
C713 C717 1.429 . S
C714 C697 1.574 . S
C714 H708 0.949 . S
C714 C718 1.368 . S
C715 C696 1.429 . S
C715 C709 1.429 . S
C715 C716 1.523 . S
C716 C697 1.368 . S
C716 C710 1.368 . S
C716 C715 1.523 . S
C717 C701 1.429 . S
C717 C713 1.429 . S
C717 C718 1.523 . S
C718 C702 1.368 . S
C718 C714 1.368 . S
C718 C717 1.523 . S
H719 C694 0.950 . S
H720 C696 0.950 . S
H721 C697 0.949 . S
H722 C699 0.950 . S
H723 C701 0.950 . S
C724 C725 1.349 . S
C724 C726 1.327 . S
C724 H749 0.950 . S
C725 C724 1.349 . S
C725 C741 1.349 . S
C726 C724 1.327 . S
C726 C745 1.429 . S
C726 H750 0.950 . S
C727 C744 1.574 . S
C727 C746 1.368 . S
C727 H751 0.949 . S
H728 C732 0.949 . S
C729 C730 1.349 . S
C729 C731 1.327 . S
C729 H752 0.950 . S
C730 C729 1.349 . S
C730 C742 1.349 . S
C731 C729 1.327 . S
C731 C747 1.429 . S
C731 H753 0.950 . S
C732 H728 0.949 . S
C732 C740 1.574 . S
C732 C748 1.368 . S
H733 C741 0.950 . S
H734 C739 0.950 . S
H735 C740 0.949 . S
H736 C742 0.950 . S
H737 C743 0.950 . S
H738 C744 0.949 . S
C739 H734 0.950 . S
C739 C741 1.327 . S
C739 C745 1.429 . S
C740 C732 1.574 . S
C740 H735 0.949 . S
C740 C746 1.368 . S
C741 C725 1.349 . S
C741 H733 0.950 . S
C741 C739 1.327 . S
C742 C730 1.349 . S
C742 H736 0.950 . S
C742 C743 1.327 . S
C743 H737 0.950 . S
C743 C742 1.327 . S
C743 C747 1.429 . S
C744 C727 1.574 . S
C744 H738 0.949 . S
C744 C748 1.368 . S
C745 C726 1.429 . S
C745 C739 1.429 . S
C745 C746 1.523 . S
C746 C727 1.368 . S
C746 C740 1.368 . S
C746 C745 1.523 . S
C747 C731 1.429 . S
C747 C743 1.429 . S
C747 C748 1.523 . S
C748 C732 1.368 . S
C748 C744 1.368 . S
C748 C747 1.523 . S
H749 C724 0.950 . S
H750 C726 0.950 . S
H751 C727 0.949 . S
H752 C729 0.950 . S
H753 C731 0.950 . S
C754 C755 1.349 . S
C754 C756 1.327 . S
C754 H779 0.950 . S
C755 C754 1.349 . S
C755 C771 1.349 . S
C756 C754 1.327 . S
C756 C775 1.429 . S
C756 H780 0.950 . S
C757 C774 1.574 . S
C757 C776 1.368 . S
C757 H781 0.949 . S
H758 C762 0.949 . S
C759 C760 1.349 . S
C759 C761 1.327 . S
C759 H782 0.950 . S
C760 C759 1.349 . S
C760 C772 1.349 . S
C761 C759 1.327 . S
C761 C777 1.429 . S
C761 H783 0.950 . S
C762 H758 0.949 . S
C762 C770 1.574 . S
C762 C778 1.368 . S
H763 C771 0.950 . S
H764 C769 0.950 . S
H765 C770 0.949 . S
H766 C772 0.950 . S
H767 C773 0.950 . S
H768 C774 0.949 . S
C769 H764 0.950 . S
C769 C771 1.327 . S
C769 C775 1.429 . S
C770 C762 1.574 . S
C770 H765 0.949 . S
C770 C776 1.368 . S
C771 C755 1.349 . S
C771 H763 0.950 . S
C771 C769 1.327 . S
C772 C760 1.349 . S
C772 H766 0.950 . S
C772 C773 1.327 . S
C773 H767 0.950 . S
C773 C772 1.327 . S
C773 C777 1.429 . S
C774 C757 1.574 . S
C774 H768 0.949 . S
C774 C778 1.368 . S
C775 C756 1.429 . S
C775 C769 1.429 . S
C775 C776 1.523 . S
C776 C757 1.368 . S
C776 C770 1.368 . S
C776 C775 1.523 . S
C777 C761 1.429 . S
C777 C773 1.429 . S
C777 C778 1.523 . S
C778 C762 1.368 . S
C778 C774 1.368 . S
C778 C777 1.523 . S
H779 C754 0.950 . S
H780 C756 0.950 . S
H781 C757 0.949 . S
H782 C759 0.950 . S
H783 C761 0.950 . S
C784 C785 1.349 . S
C784 C786 1.327 . S
C784 H809 0.950 . S
C785 C784 1.349 . S
C785 C801 1.349 . S
C786 C784 1.327 . S
C786 C805 1.429 . S
C786 H810 0.950 . S
C787 C804 1.574 . S
C787 C806 1.368 . S
C787 H811 0.949 . S
H788 C792 0.949 . S
C789 C790 1.349 . S
C789 C791 1.327 . S
C789 H812 0.950 . S
C790 C789 1.349 . S
C790 C802 1.349 . S
C791 C789 1.327 . S
C791 C807 1.429 . S
C791 H813 0.950 . S
C792 H788 0.949 . S
C792 C800 1.574 . S
C792 C808 1.368 . S
H793 C801 0.950 . S
H794 C799 0.950 . S
H795 C800 0.949 . S
H796 C802 0.950 . S
H797 C803 0.950 . S
H798 C804 0.949 . S
C799 H794 0.950 . S
C799 C801 1.327 . S
C799 C805 1.429 . S
C800 C792 1.574 . S
C800 H795 0.949 . S
C800 C806 1.368 . S
C801 C785 1.349 . S
C801 H793 0.950 . S
C801 C799 1.327 . S
C802 C790 1.349 . S
C802 H796 0.950 . S
C802 C803 1.327 . S
C803 H797 0.950 . S
C803 C802 1.327 . S
C803 C807 1.429 . S
C804 C787 1.574 . S
C804 H798 0.949 . S
C804 C808 1.368 . S
C805 C786 1.429 . S
C805 C799 1.429 . S
C805 C806 1.523 . S
C806 C787 1.368 . S
C806 C800 1.368 . S
C806 C805 1.523 . S
C807 C791 1.429 . S
C807 C803 1.429 . S
C807 C808 1.523 . S
C808 C792 1.368 . S
C808 C804 1.368 . S
C808 C807 1.523 . S
H809 C784 0.950 . S
H810 C786 0.950 . S
H811 C787 0.949 . S
H812 C789 0.950 . S
H813 C791 0.950 . S
C814 C815 1.349 . S
C814 C816 1.327 . S
C814 H839 0.950 . S
C815 C814 1.349 . S
C815 C831 1.349 . S
C816 C814 1.327 . S
C816 C835 1.429 . S
C816 H840 0.950 . S
C817 C834 1.574 . S
C817 C836 1.368 . S
C817 H841 0.949 . S
H818 C822 0.949 . S
C819 C820 1.349 . S
C819 C821 1.327 . S
C819 H842 0.950 . S
C820 C819 1.349 . S
C820 C832 1.349 . S
C821 C819 1.327 . S
C821 C837 1.429 . S
C821 H843 0.950 . S
C822 H818 0.949 . S
C822 C830 1.574 . S
C822 C838 1.368 . S
H823 C831 0.950 . S
H824 C829 0.950 . S
H825 C830 0.949 . S
H826 C832 0.950 . S
H827 C833 0.950 . S
H828 C834 0.949 . S
C829 H824 0.950 . S
C829 C831 1.327 . S
C829 C835 1.429 . S
C830 C822 1.574 . S
C830 H825 0.949 . S
C830 C836 1.368 . S
C831 C815 1.349 . S
C831 H823 0.950 . S
C831 C829 1.327 . S
C832 C820 1.349 . S
C832 H826 0.950 . S
C832 C833 1.327 . S
C833 H827 0.950 . S
C833 C832 1.327 . S
C833 C837 1.429 . S
C834 C817 1.574 . S
C834 H828 0.949 . S
C834 C838 1.368 . S
C835 C816 1.429 . S
C835 C829 1.429 . S
C835 C836 1.523 . S
C836 C817 1.368 . S
C836 C830 1.368 . S
C836 C835 1.523 . S
C837 C821 1.429 . S
C837 C833 1.429 . S
C837 C838 1.523 . S
C838 C822 1.368 . S
C838 C834 1.368 . S
C838 C837 1.523 . S
H839 C814 0.950 . S
H840 C816 0.950 . S
H841 C817 0.949 . S
H842 C819 0.950 . S
H843 C821 0.950 . S
C844 C845 1.349 . S
C844 C846 1.327 . S
C844 H869 0.950 . S
C845 C844 1.349 . S
C845 C861 1.349 . S
C846 C844 1.327 . S
C846 C865 1.429 . S
C846 H870 0.950 . S
C847 C864 1.574 . S
C847 C866 1.368 . S
C847 H871 0.949 . S
H848 C852 0.949 . S
C849 C850 1.349 . S
C849 C851 1.327 . S
C849 H872 0.950 . S
C850 C849 1.349 . S
C850 C862 1.349 . S
C851 C849 1.327 . S
C851 C867 1.429 . S
C851 H873 0.950 . S
C852 H848 0.949 . S
C852 C860 1.574 . S
C852 C868 1.368 . S
H853 C861 0.950 . S
H854 C859 0.950 . S
H855 C860 0.949 . S
H856 C862 0.950 . S
H857 C863 0.950 . S
H858 C864 0.949 . S
C859 H854 0.950 . S
C859 C861 1.327 . S
C859 C865 1.429 . S
C860 C852 1.574 . S
C860 H855 0.949 . S
C860 C866 1.368 . S
C861 C845 1.349 . S
C861 H853 0.950 . S
C861 C859 1.327 . S
C862 C850 1.349 . S
C862 H856 0.950 . S
C862 C863 1.327 . S
C863 H857 0.950 . S
C863 C862 1.327 . S
C863 C867 1.429 . S
C864 C847 1.574 . S
C864 H858 0.949 . S
C864 C868 1.368 . S
C865 C846 1.429 . S
C865 C859 1.429 . S
C865 C866 1.523 . S
C866 C847 1.368 . S
C866 C860 1.368 . S
C866 C865 1.523 . S
C867 C851 1.429 . S
C867 C863 1.429 . S
C867 C868 1.523 . S
C868 C852 1.368 . S
C868 C864 1.368 . S
C868 C867 1.523 . S
H869 C844 0.950 . S
H870 C846 0.950 . S
H871 C847 0.949 . S
H872 C849 0.950 . S
H873 C851 0.950 . S
C874 C875 1.349 . S
C874 C876 1.327 . S
C874 H899 0.950 . S
C875 C874 1.349 . S
C875 C891 1.349 . S
C876 C874 1.327 . S
C876 C895 1.429 . S
C876 H900 0.950 . S
C877 C894 1.574 . S
C877 C896 1.368 . S
C877 H901 0.949 . S
H878 C882 0.949 . S
C879 C880 1.349 . S
C879 C881 1.327 . S
C879 H902 0.950 . S
C880 C879 1.349 . S
C880 C892 1.349 . S
C881 C879 1.327 . S
C881 C897 1.429 . S
C881 H903 0.950 . S
C882 H878 0.949 . S
C882 C890 1.574 . S
C882 C898 1.368 . S
H883 C891 0.950 . S
H884 C889 0.950 . S
H885 C890 0.949 . S
H886 C892 0.950 . S
H887 C893 0.950 . S
H888 C894 0.949 . S
C889 H884 0.950 . S
C889 C891 1.327 . S
C889 C895 1.429 . S
C890 C882 1.574 . S
C890 H885 0.949 . S
C890 C896 1.368 . S
C891 C875 1.349 . S
C891 H883 0.950 . S
C891 C889 1.327 . S
C892 C880 1.349 . S
C892 H886 0.950 . S
C892 C893 1.327 . S
C893 H887 0.950 . S
C893 C892 1.327 . S
C893 C897 1.429 . S
C894 C877 1.574 . S
C894 H888 0.949 . S
C894 C898 1.368 . S
C895 C876 1.429 . S
C895 C889 1.429 . S
C895 C896 1.523 . S
C896 C877 1.368 . S
C896 C890 1.368 . S
C896 C895 1.523 . S
C897 C881 1.429 . S
C897 C893 1.429 . S
C897 C898 1.523 . S
C898 C882 1.368 . S
C898 C894 1.368 . S
C898 C897 1.523 . S
H899 C874 0.950 . S
H900 C876 0.950 . S
H901 C877 0.949 . S
H902 C879 0.950 . S
H903 C881 0.950 . S
C904 C905 1.349 . S
C904 C906 1.327 . S
C904 H929 0.950 . S
C905 C904 1.349 . S
C905 C921 1.349 . S
C906 C904 1.327 . S
C906 C925 1.429 . S
C906 H930 0.950 . S
C907 C924 1.574 . S
C907 C926 1.368 . S
C907 H931 0.949 . S
H908 C912 0.949 . S
C909 C910 1.349 . S
C909 C911 1.327 . S
C909 H932 0.950 . S
C910 C909 1.349 . S
C910 C922 1.349 . S
C911 C909 1.327 . S
C911 C927 1.429 . S
C911 H933 0.950 . S
C912 H908 0.949 . S
C912 C920 1.574 . S
C912 C928 1.368 . S
H913 C921 0.950 . S
H914 C919 0.950 . S
H915 C920 0.949 . S
H916 C922 0.950 . S
H917 C923 0.950 . S
H918 C924 0.949 . S
C919 H914 0.950 . S
C919 C921 1.327 . S
C919 C925 1.429 . S
C920 C912 1.574 . S
C920 H915 0.949 . S
C920 C926 1.368 . S
C921 C905 1.349 . S
C921 H913 0.950 . S
C921 C919 1.327 . S
C922 C910 1.349 . S
C922 H916 0.950 . S
C922 C923 1.327 . S
C923 H917 0.950 . S
C923 C922 1.327 . S
C923 C927 1.429 . S
C924 C907 1.574 . S
C924 H918 0.949 . S
C924 C928 1.368 . S
C925 C906 1.429 . S
C925 C919 1.429 . S
C925 C926 1.523 . S
C926 C907 1.368 . S
C926 C920 1.368 . S
C926 C925 1.523 . S
C927 C911 1.429 . S
C927 C923 1.429 . S
C927 C928 1.523 . S
C928 C912 1.368 . S
C928 C924 1.368 . S
C928 C927 1.523 . S
H929 C904 0.950 . S
H930 C906 0.950 . S
H931 C907 0.949 . S
H932 C909 0.950 . S
H933 C911 0.950 . S
C934 C935 1.349 . S
C934 C936 1.327 . S
C934 H959 0.950 . S
C935 C934 1.349 . S
C935 C951 1.349 . S
C936 C934 1.327 . S
C936 C955 1.429 . S
C936 H960 0.950 . S
C937 C954 1.574 . S
C937 C956 1.368 . S
C937 H961 0.949 . S
H938 C942 0.949 . S
C939 C940 1.349 . S
C939 C941 1.327 . S
C939 H962 0.950 . S
C940 C939 1.349 . S
C940 C952 1.349 . S
C941 C939 1.327 . S
C941 C957 1.429 . S
C941 H963 0.950 . S
C942 H938 0.949 . S
C942 C950 1.574 . S
C942 C958 1.368 . S
H943 C951 0.950 . S
H944 C949 0.950 . S
H945 C950 0.949 . S
H946 C952 0.950 . S
H947 C953 0.950 . S
H948 C954 0.949 . S
C949 H944 0.950 . S
C949 C951 1.327 . S
C949 C955 1.429 . S
C950 C942 1.574 . S
C950 H945 0.949 . S
C950 C956 1.368 . S
C951 C935 1.349 . S
C951 H943 0.950 . S
C951 C949 1.327 . S
C952 C940 1.349 . S
C952 H946 0.950 . S
C952 C953 1.327 . S
C953 H947 0.950 . S
C953 C952 1.327 . S
C953 C957 1.429 . S
C954 C937 1.574 . S
C954 H948 0.949 . S
C954 C958 1.368 . S
C955 C936 1.429 . S
C955 C949 1.429 . S
C955 C956 1.523 . S
C956 C937 1.368 . S
C956 C950 1.368 . S
C956 C955 1.523 . S
C957 C941 1.429 . S
C957 C953 1.429 . S
C957 C958 1.523 . S
C958 C942 1.368 . S
C958 C954 1.368 . S
C958 C957 1.523 . S
H959 C934 0.950 . S
H960 C936 0.950 . S
H961 C937 0.949 . S
H962 C939 0.950 . S
H963 C941 0.950 . S
C964 C965 1.349 . S
C964 C966 1.327 . S
C964 H989 0.950 . S
C965 C964 1.349 . S
C965 C981 1.349 . S
C966 C964 1.327 . S
C966 C985 1.429 . S
C966 H990 0.950 . S
C967 C984 1.574 . S
C967 C986 1.368 . S
C967 H991 0.949 . S
H968 C972 0.949 . S
C969 C970 1.349 . S
C969 C971 1.327 . S
C969 H992 0.950 . S
C970 C969 1.349 . S
C970 C982 1.349 . S
C971 C969 1.327 . S
C971 C987 1.429 . S
C971 H993 0.950 . S
C972 H968 0.949 . S
C972 C980 1.574 . S
C972 C988 1.368 . S
H973 C981 0.950 . S
H974 C979 0.950 . S
H975 C980 0.949 . S
H976 C982 0.950 . S
H977 C983 0.950 . S
H978 C984 0.949 . S
C979 H974 0.950 . S
C979 C981 1.327 . S
C979 C985 1.429 . S
C980 C972 1.574 . S
C980 H975 0.949 . S
C980 C986 1.368 . S
C981 C965 1.349 . S
C981 H973 0.950 . S
C981 C979 1.327 . S
C982 C970 1.349 . S
C982 H976 0.950 . S
C982 C983 1.327 . S
C983 H977 0.950 . S
C983 C982 1.327 . S
C983 C987 1.429 . S
C984 C967 1.574 . S
C984 H978 0.949 . S
C984 C988 1.368 . S
C985 C966 1.429 . S
C985 C979 1.429 . S
C985 C986 1.523 . S
C986 C967 1.368 . S
C986 C980 1.368 . S
C986 C985 1.523 . S
C987 C971 1.429 . S
C987 C983 1.429 . S
C987 C988 1.523 . S
C988 C972 1.368 . S
C988 C984 1.368 . S
C988 C987 1.523 . S
H989 C964 0.950 . S
H990 C966 0.950 . S
H991 C967 0.949 . S
H992 C969 0.950 . S
H993 C971 0.950 . S
C994 C995 1.349 . S
C994 C996 1.327 . S
C994 H1019 0.950 . S
C995 C994 1.349 . S
C995 C1011 1.349 . S
C996 C994 1.327 . S
C996 C1015 1.429 . S
C996 H1020 0.950 . S
C997 C1014 1.574 . S
C997 C1016 1.368 . S
C997 H1021 0.949 . S
H998 C1002 0.949 . S
C999 C1000 1.349 . S
C999 C1001 1.327 . S
C999 H1022 0.950 . S
C1000 C999 1.349 . S
C1000 C1012 1.349 . S
C1001 C999 1.327 . S
C1001 C1017 1.429 . S
C1001 H1023 0.950 . S
C1002 H998 0.949 . S
C1002 C1010 1.574 . S
C1002 C1018 1.368 . S
H1003 C1011 0.950 . S
H1004 C1009 0.950 . S
H1005 C1010 0.949 . S
H1006 C1012 0.950 . S
H1007 C1013 0.950 . S
H1008 C1014 0.949 . S
C1009 H1004 0.950 . S
C1009 C1011 1.327 . S
C1009 C1015 1.429 . S
C1010 C1002 1.574 . S
C1010 H1005 0.949 . S
C1010 C1016 1.368 . S
C1011 C995 1.349 . S
C1011 H1003 0.950 . S
C1011 C1009 1.327 . S
C1012 C1000 1.349 . S
C1012 H1006 0.950 . S
C1012 C1013 1.327 . S
C1013 H1007 0.950 . S
C1013 C1012 1.327 . S
C1013 C1017 1.429 . S
C1014 C997 1.574 . S
C1014 H1008 0.949 . S
C1014 C1018 1.368 . S
C1015 C996 1.429 . S
C1015 C1009 1.429 . S
C1015 C1016 1.523 . S
C1016 C997 1.368 . S
C1016 C1010 1.368 . S
C1016 C1015 1.523 . S
C1017 C1001 1.429 . S
C1017 C1013 1.429 . S
C1017 C1018 1.523 . S
C1018 C1002 1.368 . S
C1018 C1014 1.368 . S
C1018 C1017 1.523 . S
H1019 C994 0.950 . S
H1020 C996 0.950 . S
H1021 C997 0.949 . S
H1022 C999 0.950 . S
H1023 C1001 0.950 . S
C1024 C1025 1.349 . S
C1024 C1026 1.327 . S
C1024 H1049 0.950 . S
C1025 C1024 1.349 . S
C1025 C1041 1.349 . S
C1026 C1024 1.327 . S
C1026 C1045 1.429 . S
C1026 H1050 0.950 . S
C1027 C1044 1.574 . S
C1027 C1046 1.368 . S
C1027 H1051 0.949 . S
H1028 C1032 0.949 . S
C1029 C1030 1.349 1_554 S
C1029 C1031 1.327 . S
C1029 H1052 0.950 . S
C1030 C1029 1.349 1_556 S
C1030 C1042 1.349 . S
C1031 C1029 1.327 . S
C1031 C1047 1.429 . S
C1031 H1053 0.950 . S
C1032 H1028 0.949 . S
C1032 C1040 1.574 . S
C1032 C1048 1.368 . S
H1033 C1041 0.950 . S
H1034 C1039 0.950 . S
H1035 C1040 0.949 . S
H1036 C1042 0.950 . S
H1037 C1043 0.950 . S
H1038 C1044 0.949 . S
C1039 H1034 0.950 . S
C1039 C1041 1.327 . S
C1039 C1045 1.429 . S
C1040 C1032 1.574 . S
C1040 H1035 0.949 . S
C1040 C1046 1.368 . S
C1041 C1025 1.349 . S
C1041 H1033 0.950 . S
C1041 C1039 1.327 . S
C1042 C1030 1.349 . S
C1042 H1036 0.950 . S
C1042 C1043 1.327 1_556 S
C1043 H1037 0.950 . S
C1043 C1042 1.327 1_554 S
C1043 C1047 1.429 . S
C1044 C1027 1.574 . S
C1044 H1038 0.949 . S
C1044 C1048 1.368 . S
C1045 C1026 1.429 . S
C1045 C1039 1.429 . S
C1045 C1046 1.523 . S
C1046 C1027 1.368 . S
C1046 C1040 1.368 . S
C1046 C1045 1.523 . S
C1047 C1031 1.429 . S
C1047 C1043 1.429 . S
C1047 C1048 1.523 . S
C1048 C1032 1.368 . S
C1048 C1044 1.368 . S
C1048 C1047 1.523 . S
H1049 C1024 0.950 . S
H1050 C1026 0.950 . S
H1051 C1027 0.949 . S
H1052 C1029 0.950 . S
H1053 C1031 0.950 . S
C1054 C1055 1.349 . S
C1054 C1056 1.327 1_554 S
C1054 H1079 0.950 . S
C1055 C1054 1.349 . S
C1055 C1071 1.349 1_554 S
C1056 C1054 1.327 1_556 S
C1056 C1075 1.429 . S
C1056 H1080 0.950 . S
C1057 C1074 1.574 . S
C1057 C1076 1.368 . S
C1057 H1081 0.949 . S
H1058 C1062 0.949 . S
C1059 C1060 1.349 . S
C1059 C1061 1.327 . S
C1059 H1082 0.950 . S
C1060 C1059 1.349 . S
C1060 C1072 1.349 . S
C1061 C1059 1.327 . S
C1061 C1077 1.429 . S
C1061 H1083 0.950 . S
C1062 H1058 0.949 . S
C1062 C1070 1.574 . S
C1062 C1078 1.368 . S
H1063 C1071 0.950 . S
H1064 C1069 0.950 . S
H1065 C1070 0.949 . S
H1066 C1072 0.950 . S
H1067 C1073 0.950 . S
H1068 C1074 0.949 . S
C1069 H1064 0.950 . S
C1069 C1071 1.327 . S
C1069 C1075 1.429 . S
C1070 C1062 1.574 . S
C1070 H1065 0.949 . S
C1070 C1076 1.368 . S
C1071 C1055 1.349 1_556 S
C1071 H1063 0.950 . S
C1071 C1069 1.327 . S
C1072 C1060 1.349 . S
C1072 H1066 0.950 . S
C1072 C1073 1.327 . S
C1073 H1067 0.950 . S
C1073 C1072 1.327 . S
C1073 C1077 1.429 . S
C1074 C1057 1.574 . S
C1074 H1068 0.949 . S
C1074 C1078 1.368 . S
C1075 C1056 1.429 . S
C1075 C1069 1.429 . S
C1075 C1076 1.523 . S
C1076 C1057 1.368 . S
C1076 C1070 1.368 . S
C1076 C1075 1.523 . S
C1077 C1061 1.429 . S
C1077 C1073 1.429 . S
C1077 C1078 1.523 . S
C1078 C1062 1.368 . S
C1078 C1074 1.368 . S
C1078 C1077 1.523 . S
H1079 C1054 0.950 . S
H1080 C1056 0.950 . S
H1081 C1057 0.949 . S
H1082 C1059 0.950 . S
H1083 C1061 0.950 . S
C1084 C1085 1.349 . S
C1084 C1086 1.327 . S
C1084 H1109 0.950 . S
C1085 C1084 1.349 . S
C1085 C1101 1.349 . S
C1086 C1084 1.327 . S
C1086 C1105 1.429 . S
C1086 H1110 0.950 . S
C1087 C1104 1.574 . S
C1087 C1106 1.368 . S
C1087 H1111 0.949 . S
H1088 C1092 0.949 . S
C1089 C1090 1.349 . S
C1089 C1091 1.327 . S
C1089 H1112 0.950 . S
C1090 C1089 1.349 . S
C1090 C1102 1.349 . S
C1091 C1089 1.327 . S
C1091 C1107 1.429 . S
C1091 H1113 0.950 . S
C1092 H1088 0.949 . S
C1092 C1100 1.574 . S
C1092 C1108 1.368 . S
H1093 C1101 0.950 . S
H1094 C1099 0.950 . S
H1095 C1100 0.949 . S
H1096 C1102 0.950 . S
H1097 C1103 0.950 . S
H1098 C1104 0.949 . S
C1099 H1094 0.950 . S
C1099 C1101 1.327 . S
C1099 C1105 1.429 . S
C1100 C1092 1.574 . S
C1100 H1095 0.949 . S
C1100 C1106 1.368 . S
C1101 C1085 1.349 . S
C1101 H1093 0.950 . S
C1101 C1099 1.327 . S
C1102 C1090 1.349 . S
C1102 H1096 0.950 . S
C1102 C1103 1.327 . S
C1103 H1097 0.950 . S
C1103 C1102 1.327 . S
C1103 C1107 1.429 . S
C1104 C1087 1.574 . S
C1104 H1098 0.949 . S
C1104 C1108 1.368 . S
C1105 C1086 1.429 . S
C1105 C1099 1.429 . S
C1105 C1106 1.523 . S
C1106 C1087 1.368 . S
C1106 C1100 1.368 . S
C1106 C1105 1.523 . S
C1107 C1091 1.429 . S
C1107 C1103 1.429 . S
C1107 C1108 1.523 . S
C1108 C1092 1.368 . S
C1108 C1104 1.368 . S
C1108 C1107 1.523 . S
H1109 C1084 0.950 . S
H1110 C1086 0.950 . S
H1111 C1087 0.949 . S
H1112 C1089 0.950 . S
H1113 C1091 0.950 . S
C1114 C1115 1.349 . S
C1114 C1116 1.327 . S
C1114 H1139 0.950 . S
C1115 C1114 1.349 . S
C1115 C1131 1.349 . S
C1116 C1114 1.327 . S
C1116 C1135 1.429 . S
C1116 H1140 0.950 . S
C1117 C1134 1.574 . S
C1117 C1136 1.368 . S
C1117 H1141 0.949 . S
H1118 C1122 0.949 . S
C1119 C1120 1.349 . S
C1119 C1121 1.327 . S
C1119 H1142 0.950 . S
C1120 C1119 1.349 . S
C1120 C1132 1.349 . S
C1121 C1119 1.327 . S
C1121 C1137 1.429 . S
C1121 H1143 0.950 . S
C1122 H1118 0.949 . S
C1122 C1130 1.574 . S
C1122 C1138 1.368 . S
H1123 C1131 0.950 . S
H1124 C1129 0.950 . S
H1125 C1130 0.949 . S
H1126 C1132 0.950 . S
H1127 C1133 0.950 . S
H1128 C1134 0.949 . S
C1129 H1124 0.950 . S
C1129 C1131 1.327 . S
C1129 C1135 1.429 . S
C1130 C1122 1.574 . S
C1130 H1125 0.949 . S
C1130 C1136 1.368 . S
C1131 C1115 1.349 . S
C1131 H1123 0.950 . S
C1131 C1129 1.327 . S
C1132 C1120 1.349 . S
C1132 H1126 0.950 . S
C1132 C1133 1.327 . S
C1133 H1127 0.950 . S
C1133 C1132 1.327 . S
C1133 C1137 1.429 . S
C1134 C1117 1.574 . S
C1134 H1128 0.949 . S
C1134 C1138 1.368 . S
C1135 C1116 1.429 . S
C1135 C1129 1.429 . S
C1135 C1136 1.523 . S
C1136 C1117 1.368 . S
C1136 C1130 1.368 . S
C1136 C1135 1.523 . S
C1137 C1121 1.429 . S
C1137 C1133 1.429 . S
C1137 C1138 1.523 . S
C1138 C1122 1.368 . S
C1138 C1134 1.368 . S
C1138 C1137 1.523 . S
H1139 C1114 0.950 . S
H1140 C1116 0.950 . S
H1141 C1117 0.949 . S
H1142 C1119 0.950 . S
H1143 C1121 0.950 . S
C1144 C1145 1.349 . S
C1144 C1146 1.327 . S
C1144 H1169 0.950 . S
C1145 C1144 1.349 . S
C1145 C1161 1.349 . S
C1146 C1144 1.327 . S
C1146 C1165 1.429 . S
C1146 H1170 0.950 . S
C1147 C1164 1.574 . S
C1147 C1166 1.368 . S
C1147 H1171 0.949 . S
H1148 C1152 0.949 . S
C1149 C1150 1.349 . S
C1149 C1151 1.327 . S
C1149 H1172 0.950 . S
C1150 C1149 1.349 . S
C1150 C1162 1.349 . S
C1151 C1149 1.327 . S
C1151 C1167 1.429 . S
C1151 H1173 0.950 . S
C1152 H1148 0.949 . S
C1152 C1160 1.574 . S
C1152 C1168 1.368 . S
H1153 C1161 0.950 . S
H1154 C1159 0.950 . S
H1155 C1160 0.949 . S
H1156 C1162 0.950 . S
H1157 C1163 0.950 . S
H1158 C1164 0.949 . S
C1159 H1154 0.950 . S
C1159 C1161 1.327 . S
C1159 C1165 1.429 . S
C1160 C1152 1.574 . S
C1160 H1155 0.949 . S
C1160 C1166 1.368 . S
C1161 C1145 1.349 . S
C1161 H1153 0.950 . S
C1161 C1159 1.327 . S
C1162 C1150 1.349 . S
C1162 H1156 0.950 . S
C1162 C1163 1.327 . S
C1163 H1157 0.950 . S
C1163 C1162 1.327 . S
C1163 C1167 1.429 . S
C1164 C1147 1.574 . S
C1164 H1158 0.949 . S
C1164 C1168 1.368 . S
C1165 C1146 1.429 . S
C1165 C1159 1.429 . S
C1165 C1166 1.523 . S
C1166 C1147 1.368 . S
C1166 C1160 1.368 . S
C1166 C1165 1.523 . S
C1167 C1151 1.429 . S
C1167 C1163 1.429 . S
C1167 C1168 1.523 . S
C1168 C1152 1.368 . S
C1168 C1164 1.368 . S
C1168 C1167 1.523 . S
H1169 C1144 0.950 . S
H1170 C1146 0.950 . S
H1171 C1147 0.949 . S
H1172 C1149 0.950 . S
H1173 C1151 0.950 . S
C1174 C1175 1.349 . S
C1174 C1176 1.327 . S
C1174 H1199 0.950 . S
C1175 C1174 1.349 . S
C1175 C1191 1.349 . S
C1176 C1174 1.327 . S
C1176 C1195 1.429 . S
C1176 H1200 0.950 . S
C1177 C1194 1.574 . S
C1177 C1196 1.368 . S
C1177 H1201 0.949 . S
H1178 C1182 0.949 . S
C1179 C1180 1.349 . S
C1179 C1181 1.327 . S
C1179 H1202 0.950 . S
C1180 C1179 1.349 . S
C1180 C1192 1.349 . S
C1181 C1179 1.327 . S
C1181 C1197 1.429 . S
C1181 H1203 0.950 . S
C1182 H1178 0.949 . S
C1182 C1190 1.574 . S
C1182 C1198 1.368 . S
H1183 C1191 0.950 . S
H1184 C1189 0.950 . S
H1185 C1190 0.949 . S
H1186 C1192 0.950 . S
H1187 C1193 0.950 . S
H1188 C1194 0.949 . S
C1189 H1184 0.950 . S
C1189 C1191 1.327 . S
C1189 C1195 1.429 . S
C1190 C1182 1.574 . S
C1190 H1185 0.949 . S
C1190 C1196 1.368 . S
C1191 C1175 1.349 . S
C1191 H1183 0.950 . S
C1191 C1189 1.327 . S
C1192 C1180 1.349 . S
C1192 H1186 0.950 . S
C1192 C1193 1.327 . S
C1193 H1187 0.950 . S
C1193 C1192 1.327 . S
C1193 C1197 1.429 . S
C1194 C1177 1.574 . S
C1194 H1188 0.949 . S
C1194 C1198 1.368 . S
C1195 C1176 1.429 . S
C1195 C1189 1.429 . S
C1195 C1196 1.523 . S
C1196 C1177 1.368 . S
C1196 C1190 1.368 . S
C1196 C1195 1.523 . S
C1197 C1181 1.429 . S
C1197 C1193 1.429 . S
C1197 C1198 1.523 . S
C1198 C1182 1.368 . S
C1198 C1194 1.368 . S
C1198 C1197 1.523 . S
H1199 C1174 0.950 . S
H1200 C1176 0.950 . S
H1201 C1177 0.949 . S
H1202 C1179 0.950 . S
H1203 C1181 0.950 . S
C1204 C1205 1.349 . S
C1204 C1206 1.327 1_556 S
C1204 H1229 0.950 . S
C1205 C1204 1.349 . S
C1205 C1221 1.349 1_556 S
C1206 C1204 1.327 1_554 S
C1206 C1225 1.429 . S
C1206 H1230 0.950 . S
C1207 C1224 1.574 . S
C1207 C1226 1.368 . S
C1207 H1231 0.949 . S
H1208 C1212 0.949 . S
C1209 C1210 1.349 . S
C1209 C1211 1.327 . S
C1209 H1232 0.950 . S
C1210 C1209 1.349 . S
C1210 C1222 1.349 . S
C1211 C1209 1.327 . S
C1211 C1227 1.429 . S
C1211 H1233 0.950 . S
C1212 H1208 0.949 . S
C1212 C1220 1.574 . S
C1212 C1228 1.368 . S
H1213 C1221 0.950 . S
H1214 C1219 0.950 . S
H1215 C1220 0.949 . S
H1216 C1222 0.950 . S
H1217 C1223 0.950 . S
H1218 C1224 0.949 . S
C1219 H1214 0.950 . S
C1219 C1221 1.327 . S
C1219 C1225 1.429 . S
C1220 C1212 1.574 . S
C1220 H1215 0.949 . S
C1220 C1226 1.368 . S
C1221 C1205 1.349 1_554 S
C1221 H1213 0.950 . S
C1221 C1219 1.327 . S
C1222 C1210 1.349 . S
C1222 H1216 0.950 . S
C1222 C1223 1.327 . S
C1223 H1217 0.950 . S
C1223 C1222 1.327 . S
C1223 C1227 1.429 . S
C1224 C1207 1.574 . S
C1224 H1218 0.949 . S
C1224 C1228 1.368 . S
C1225 C1206 1.429 . S
C1225 C1219 1.429 . S
C1225 C1226 1.523 . S
C1226 C1207 1.368 . S
C1226 C1220 1.368 . S
C1226 C1225 1.523 . S
C1227 C1211 1.429 . S
C1227 C1223 1.429 . S
C1227 C1228 1.523 . S
C1228 C1212 1.368 . S
C1228 C1224 1.368 . S
C1228 C1227 1.523 . S
H1229 C1204 0.950 . S
H1230 C1206 0.950 . S
H1231 C1207 0.949 . S
H1232 C1209 0.950 . S
H1233 C1211 0.950 . S
C1234 C1235 1.349 . S
C1234 C1236 1.327 . S
C1234 H1259 0.950 . S
C1235 C1234 1.349 . S
C1235 C1251 1.349 . S
C1236 C1234 1.327 . S
C1236 C1255 1.429 . S
C1236 H1260 0.950 . S
C1237 C1254 1.574 . S
C1237 C1256 1.368 . S
C1237 H1261 0.949 . S
H1238 C1242 0.949 . S
C1239 C1240 1.349 . S
C1239 C1241 1.327 1_554 S
C1239 H1262 0.950 . S
C1240 C1239 1.349 . S
C1240 C1252 1.349 1_554 S
C1241 C1239 1.327 1_556 S
C1241 C1257 1.429 . S
C1241 H1263 0.950 . S
C1242 H1238 0.949 . S
C1242 C1250 1.574 . S
C1242 C1258 1.368 . S
H1243 C1251 0.950 . S
H1244 C1249 0.950 . S
H1245 C1250 0.949 . S
H1246 C1252 0.950 . S
H1247 C1253 0.950 . S
H1248 C1254 0.949 . S
C1249 H1244 0.950 . S
C1249 C1251 1.327 . S
C1249 C1255 1.429 . S
C1250 C1242 1.574 . S
C1250 H1245 0.949 . S
C1250 C1256 1.368 . S
C1251 C1235 1.349 . S
C1251 H1243 0.950 . S
C1251 C1249 1.327 . S
C1252 C1240 1.349 1_556 S
C1252 H1246 0.950 . S
C1252 C1253 1.327 . S
C1253 H1247 0.950 . S
C1253 C1252 1.327 . S
C1253 C1257 1.429 . S
C1254 C1237 1.574 . S
C1254 H1248 0.949 . S
C1254 C1258 1.368 . S
C1255 C1236 1.429 . S
C1255 C1249 1.429 . S
C1255 C1256 1.523 . S
C1256 C1237 1.368 . S
C1256 C1250 1.368 . S
C1256 C1255 1.523 . S
C1257 C1241 1.429 . S
C1257 C1253 1.429 . S
C1257 C1258 1.523 . S
C1258 C1242 1.368 . S
C1258 C1254 1.368 . S
C1258 C1257 1.523 . S
H1259 C1234 0.950 . S
H1260 C1236 0.950 . S
H1261 C1237 0.949 . S
H1262 C1239 0.950 . S
H1263 C1241 0.950 . S
C1264 C1265 1.349 . S
C1264 C1266 1.327 . S
C1264 H1289 0.950 . S
C1265 C1264 1.349 . S
C1265 C1281 1.349 . S
C1266 C1264 1.327 . S
C1266 C1285 1.429 . S
C1266 H1290 0.950 . S
C1267 C1284 1.574 . S
C1267 C1286 1.368 . S
C1267 H1291 0.949 . S
H1268 C1272 0.949 . S
C1269 C1270 1.349 . S
C1269 C1271 1.327 . S
C1269 H1292 0.950 . S
C1270 C1269 1.349 . S
C1270 C1282 1.349 . S
C1271 C1269 1.327 . S
C1271 C1287 1.429 . S
C1271 H1293 0.950 . S
C1272 H1268 0.949 . S
C1272 C1280 1.574 . S
C1272 C1288 1.368 . S
H1273 C1281 0.950 . S
H1274 C1279 0.950 . S
H1275 C1280 0.949 . S
H1276 C1282 0.950 . S
H1277 C1283 0.950 . S
H1278 C1284 0.949 . S
C1279 H1274 0.950 . S
C1279 C1281 1.327 . S
C1279 C1285 1.429 . S
C1280 C1272 1.574 . S
C1280 H1275 0.949 . S
C1280 C1286 1.368 . S
C1281 C1265 1.349 . S
C1281 H1273 0.950 . S
C1281 C1279 1.327 . S
C1282 C1270 1.349 . S
C1282 H1276 0.950 . S
C1282 C1283 1.327 . S
C1283 H1277 0.950 . S
C1283 C1282 1.327 . S
C1283 C1287 1.429 . S
C1284 C1267 1.574 . S
C1284 H1278 0.949 . S
C1284 C1288 1.368 . S
C1285 C1266 1.429 . S
C1285 C1279 1.429 . S
C1285 C1286 1.523 . S
C1286 C1267 1.368 . S
C1286 C1280 1.368 . S
C1286 C1285 1.523 . S
C1287 C1271 1.429 . S
C1287 C1283 1.429 . S
C1287 C1288 1.523 . S
C1288 C1272 1.368 . S
C1288 C1284 1.368 . S
C1288 C1287 1.523 . S
H1289 C1264 0.950 . S
H1290 C1266 0.950 . S
H1291 C1267 0.949 . S
H1292 C1269 0.950 . S
H1293 C1271 0.950 . S
C1294 C1295 1.349 . S
C1294 C1296 1.327 . S
C1294 H1319 0.950 . S
C1295 C1294 1.349 . S
C1295 C1311 1.349 . S
C1296 C1294 1.327 . S
C1296 C1315 1.429 . S
C1296 H1320 0.950 . S
C1297 C1314 1.574 1_565 S
C1297 C1316 1.368 1_455 S
C1297 H1321 0.949 . S
H1298 C1302 0.949 . S
C1299 C1300 1.349 . S
C1299 C1301 1.327 . S
C1299 H1322 0.950 . S
C1300 C1299 1.349 . S
C1300 C1312 1.349 . S
C1301 C1299 1.327 . S
C1301 C1317 1.429 . S
C1301 H1323 0.950 . S
C1302 H1298 0.949 . S
C1302 C1310 1.574 1_545 S
C1302 C1318 1.368 1_655 S
H1303 C1311 0.950 . S
H1304 C1309 0.917 1_455 S
H1305 C1310 0.949 . S
H1306 C1312 0.950 . S
H1307 C1313 0.917 1_655 S
H1308 C1314 0.949 . S
C1309 H1304 0.917 1_655 S
C1309 C1311 1.327 . S
C1309 C1315 1.429 . S
C1310 C1302 1.574 1_565 S
C1310 H1305 0.949 . S
C1310 C1316 1.368 . S
C1311 C1295 1.349 . S
C1311 H1303 0.950 . S
C1311 C1309 1.327 . S
C1312 C1300 1.349 . S
C1312 H1306 0.950 . S
C1312 C1313 1.327 . S
C1313 H1307 0.917 1_455 S
C1313 C1312 1.327 . S
C1313 C1317 1.429 . S
C1314 C1297 1.574 1_545 S
C1314 H1308 0.949 . S
C1314 C1318 1.368 . S
C1315 C1296 1.429 . S
C1315 C1309 1.429 . S
C1315 C1316 1.523 . S
C1316 C1297 1.368 1_655 S
C1316 C1310 1.368 . S
C1316 C1315 1.523 . S
C1317 C1301 1.429 . S
C1317 C1313 1.429 . S
C1317 C1318 1.523 . S
C1318 C1302 1.368 1_455 S
C1318 C1314 1.368 . S
C1318 C1317 1.523 . S
H1319 C1294 0.950 . S
H1320 C1296 0.950 . S
H1321 C1297 0.949 . S
H1322 C1299 0.950 . S
H1323 C1301 0.950 . S
C1324 C1325 1.349 . S
C1324 C1326 1.327 . S
C1324 H1349 0.950 . S
C1325 C1324 1.349 . S
C1325 C1341 1.349 . S
C1326 C1324 1.327 . S
C1326 C1345 1.429 . S
C1326 H1350 0.950 . S
C1327 C1344 1.574 . S
C1327 C1346 1.368 . S
C1327 H1351 0.949 . S
H1328 C1332 0.949 . S
C1329 C1330 1.349 . S
C1329 C1331 1.327 . S
C1329 H1352 0.950 . S
C1330 C1329 1.349 . S
C1330 C1342 1.349 . S
C1331 C1329 1.327 . S
C1331 C1347 1.429 . S
C1331 H1353 0.950 . S
C1332 H1328 0.949 . S
C1332 C1340 1.574 . S
C1332 C1348 1.368 . S
H1333 C1341 0.950 . S
H1334 C1339 0.950 . S
H1335 C1340 0.948 1_565 S
H1336 C1342 0.950 . S
H1337 C1343 0.950 . S
H1338 C1344 0.948 1_545 S
C1339 H1334 0.950 . S
C1339 C1341 1.327 . S
C1339 C1345 1.429 . S
C1340 C1332 1.574 . S
C1340 H1335 0.948 1_545 S
C1340 C1346 1.368 1_545 S
C1341 C1325 1.349 . S
C1341 H1333 0.950 . S
C1341 C1339 1.327 . S
C1342 C1330 1.349 . S
C1342 H1336 0.950 . S
C1342 C1343 1.327 . S
C1343 H1337 0.950 . S
C1343 C1342 1.327 . S
C1343 C1347 1.429 . S
C1344 C1327 1.574 . S
C1344 H1338 0.948 1_565 S
C1344 C1348 1.368 1_565 S
C1345 C1326 1.429 . S
C1345 C1339 1.429 . S
C1345 C1346 1.523 . S
C1346 C1327 1.368 . S
C1346 C1340 1.368 1_565 S
C1346 C1345 1.523 . S
C1347 C1331 1.429 . S
C1347 C1343 1.429 . S
C1347 C1348 1.523 . S
C1348 C1332 1.368 . S
C1348 C1344 1.368 1_545 S
C1348 C1347 1.523 . S
H1349 C1324 0.950 . S
H1350 C1326 0.950 . S
H1351 C1327 0.949 . S
H1352 C1329 0.950 . S
H1353 C1331 0.950 . S
C1354 C1355 1.349 . S
C1354 C1356 1.327 . S
C1354 H1379 0.950 . S
C1355 C1354 1.349 . S
C1355 C1371 1.349 . S
C1356 C1354 1.327 . S
C1356 C1375 1.429 . S
C1356 H1380 0.950 . S
C1357 C1374 1.574 . S
C1357 C1376 1.368 1_455 S
C1357 H1381 0.949 . S
H1358 C1362 0.949 . S
C1359 C1360 1.349 . S
C1359 C1361 1.327 . S
C1359 H1382 0.950 . S
C1360 C1359 1.349 . S
C1360 C1372 1.349 . S
C1361 C1359 1.327 . S
C1361 C1377 1.429 . S
C1361 H1383 0.950 . S
C1362 H1358 0.949 . S
C1362 C1370 1.574 . S
C1362 C1378 1.368 1_655 S
H1363 C1371 0.950 . S
H1364 C1369 0.950 . S
H1365 C1370 0.949 . S
H1366 C1372 0.950 . S
H1367 C1373 0.950 . S
H1368 C1374 0.949 . S
C1369 H1364 0.950 . S
C1369 C1371 1.327 . S
C1369 C1375 1.429 . S
C1370 C1362 1.574 . S
C1370 H1365 0.949 . S
C1370 C1376 1.368 . S
C1371 C1355 1.349 . S
C1371 H1363 0.950 . S
C1371 C1369 1.327 . S
C1372 C1360 1.349 . S
C1372 H1366 0.950 . S
C1372 C1373 1.327 . S
C1373 H1367 0.950 . S
C1373 C1372 1.327 . S
C1373 C1377 1.429 . S
C1374 C1357 1.574 . S
C1374 H1368 0.949 . S
C1374 C1378 1.368 . S
C1375 C1356 1.429 . S
C1375 C1369 1.429 . S
C1375 C1376 1.523 . S
C1376 C1357 1.368 1_655 S
C1376 C1370 1.368 . S
C1376 C1375 1.523 . S
C1377 C1361 1.429 . S
C1377 C1373 1.429 . S
C1377 C1378 1.523 . S
C1378 C1362 1.368 1_455 S
C1378 C1374 1.368 . S
C1378 C1377 1.523 . S
H1379 C1354 0.950 . S
H1380 C1356 0.950 . S
H1381 C1357 0.949 . S
H1382 C1359 0.950 . S
H1383 C1361 0.950 . S
C1384 C1385 1.349 . S
C1384 C1386 1.327 . S
C1384 H1409 0.950 . S
C1385 C1384 1.349 . S
C1385 C1401 1.349 . S
C1386 C1384 1.327 . S
C1386 C1405 1.429 . S
C1386 H1410 0.950 . S
C1387 C1404 1.574 . S
C1387 C1406 1.368 . S
C1387 H1411 0.949 . S
H1388 C1392 0.949 . S
C1389 C1390 1.349 . S
C1389 C1391 1.327 . S
C1389 H1412 0.950 . S
C1390 C1389 1.349 . S
C1390 C1402 1.349 . S
C1391 C1389 1.327 . S
C1391 C1407 1.429 . S
C1391 H1413 0.950 . S
C1392 H1388 0.949 . S
C1392 C1400 1.574 . S
C1392 C1408 1.368 . S
H1393 C1401 0.950 . S
H1394 C1399 0.950 . S
H1395 C1400 0.949 . S
H1396 C1402 0.950 . S
H1397 C1403 0.950 . S
H1398 C1404 0.949 . S
C1399 H1394 0.950 . S
C1399 C1401 1.327 . S
C1399 C1405 1.429 . S
C1400 C1392 1.574 . S
C1400 H1395 0.949 . S
C1400 C1406 1.368 . S
C1401 C1385 1.349 . S
C1401 H1393 0.950 . S
C1401 C1399 1.327 . S
C1402 C1390 1.349 . S
C1402 H1396 0.950 . S
C1402 C1403 1.327 . S
C1403 H1397 0.950 . S
C1403 C1402 1.327 . S
C1403 C1407 1.429 . S
C1404 C1387 1.574 . S
C1404 H1398 0.949 . S
C1404 C1408 1.368 . S
C1405 C1386 1.429 . S
C1405 C1399 1.429 . S
C1405 C1406 1.523 . S
C1406 C1387 1.368 . S
C1406 C1400 1.368 . S
C1406 C1405 1.523 . S
C1407 C1391 1.429 . S
C1407 C1403 1.429 . S
C1407 C1408 1.523 . S
C1408 C1392 1.368 . S
C1408 C1404 1.368 . S
C1408 C1407 1.523 . S
H1409 C1384 0.950 . S
H1410 C1386 0.950 . S
H1411 C1387 0.949 . S
H1412 C1389 0.950 . S
H1413 C1391 0.950 . S
C1414 C1415 1.349 . S
C1414 C1416 1.327 . S
C1414 H1439 0.950 . S
C1415 C1414 1.349 . S
C1415 C1431 1.349 . S
C1416 C1414 1.327 . S
C1416 C1435 1.429 . S
C1416 H1440 0.950 . S
C1417 C1434 1.574 . S
C1417 C1436 1.368 . S
C1417 H1441 0.949 . S
H1418 C1422 0.949 . S
C1419 C1420 1.349 . S
C1419 C1421 1.327 . S
C1419 H1442 0.950 . S
C1420 C1419 1.349 . S
C1420 C1432 1.349 . S
C1421 C1419 1.327 . S
C1421 C1437 1.429 . S
C1421 H1443 0.950 . S
C1422 H1418 0.949 . S
C1422 C1430 1.574 . S
C1422 C1438 1.368 . S
H1423 C1431 0.950 . S
H1424 C1429 0.950 . S
H1425 C1430 0.949 . S
H1426 C1432 0.950 . S
H1427 C1433 0.950 . S
H1428 C1434 0.949 . S
C1429 H1424 0.950 . S
C1429 C1431 1.327 . S
C1429 C1435 1.429 . S
C1430 C1422 1.574 . S
C1430 H1425 0.949 . S
C1430 C1436 1.368 1_565 S
C1431 C1415 1.349 . S
C1431 H1423 0.950 . S
C1431 C1429 1.327 . S
C1432 C1420 1.349 . S
C1432 H1426 0.950 . S
C1432 C1433 1.327 . S
C1433 H1427 0.950 . S
C1433 C1432 1.327 . S
C1433 C1437 1.429 . S
C1434 C1417 1.574 . S
C1434 H1428 0.949 . S
C1434 C1438 1.368 1_545 S
C1435 C1416 1.429 . S
C1435 C1429 1.429 . S
C1435 C1436 1.523 . S
C1436 C1417 1.368 . S
C1436 C1430 1.368 1_545 S
C1436 C1435 1.523 . S
C1437 C1421 1.429 . S
C1437 C1433 1.429 . S
C1437 C1438 1.523 . S
C1438 C1422 1.368 . S
C1438 C1434 1.368 1_565 S
C1438 C1437 1.523 . S
H1439 C1414 0.950 . S
H1440 C1416 0.950 . S
H1441 C1417 0.949 . S
H1442 C1419 0.950 . S
H1443 C1421 0.950 . S
C1444 C1445 1.349 . S
C1444 C1446 1.327 . S
C1444 H1469 0.950 . S
C1445 C1444 1.349 . S
C1445 C1461 1.349 . S
C1446 C1444 1.327 . S
C1446 C1465 1.429 . S
C1446 H1470 0.948 . S
C1447 C1464 1.574 . S
C1447 C1466 1.368 . S
C1447 H1471 0.949 . S
H1448 C1452 0.949 . S
C1449 C1450 1.349 . S
C1449 C1451 1.327 . S
C1449 H1472 0.950 . S
C1450 C1449 1.349 . S
C1450 C1462 1.349 . S
C1451 C1449 1.327 . S
C1451 C1467 1.429 . S
C1451 H1473 0.948 . S
C1452 H1448 0.949 . S
C1452 C1460 1.574 . S
C1452 C1468 1.368 . S
H1453 C1461 0.950 . S
H1454 C1459 0.950 . S
H1455 C1460 0.949 . S
H1456 C1462 0.950 . S
H1457 C1463 0.950 . S
H1458 C1464 0.949 . S
C1459 H1454 0.950 . S
C1459 C1461 1.327 . S
C1459 C1465 1.429 . S
C1460 C1452 1.574 . S
C1460 H1455 0.949 . S
C1460 C1466 1.368 1_455 S
C1461 C1445 1.349 . S
C1461 H1453 0.950 . S
C1461 C1459 1.327 . S
C1462 C1450 1.349 . S
C1462 H1456 0.950 . S
C1462 C1463 1.327 . S
C1463 H1457 0.950 . S
C1463 C1462 1.327 . S
C1463 C1467 1.429 . S
C1464 C1447 1.574 . S
C1464 H1458 0.949 . S
C1464 C1468 1.368 1_655 S
C1465 C1446 1.429 . S
C1465 C1459 1.429 . S
C1465 C1466 1.523 . S
C1466 C1447 1.368 . S
C1466 C1460 1.368 1_655 S
C1466 C1465 1.523 . S
C1467 C1451 1.429 . S
C1467 C1463 1.429 . S
C1467 C1468 1.523 . S
C1468 C1452 1.368 . S
C1468 C1464 1.368 1_455 S
C1468 C1467 1.523 . S
H1469 C1444 0.950 . S
H1470 C1446 0.948 . S
H1471 C1447 0.949 . S
H1472 C1449 0.950 . S
H1473 C1451 0.948 . S
C1474 C1475 1.349 . S
C1474 C1476 1.327 . S
C1474 H1499 0.950 . S
C1475 C1474 1.349 . S
C1475 C1491 1.349 . S
C1476 C1474 1.327 . S
C1476 C1495 1.429 . S
C1476 H1500 0.950 . S
C1477 C1494 1.574 . S
C1477 C1496 1.368 1_556 S
C1477 H1501 0.949 . S
H1478 C1482 0.949 . S
C1479 C1480 1.349 . S
C1479 C1481 1.327 . S
C1479 H1502 0.950 . S
C1480 C1479 1.349 . S
C1480 C1492 1.349 . S
C1481 C1479 1.327 . S
C1481 C1497 1.429 . S
C1481 H1503 0.950 . S
C1482 H1478 0.949 . S
C1482 C1490 1.574 . S
C1482 C1498 1.368 1_554 S
H1483 C1491 0.950 . S
H1484 C1489 0.950 1_556 S
H1485 C1490 0.949 . S
H1486 C1492 0.950 . S
H1487 C1493 0.950 1_554 S
H1488 C1494 0.949 . S
C1489 H1484 0.950 1_554 S
C1489 C1491 1.327 . S
C1489 C1495 1.429 . S
C1490 C1482 1.574 . S
C1490 H1485 0.949 . S
C1490 C1496 1.368 . S
C1491 C1475 1.349 . S
C1491 H1483 0.950 . S
C1491 C1489 1.327 . S
C1492 C1480 1.349 . S
C1492 H1486 0.950 . S
C1492 C1493 1.327 . S
C1493 H1487 0.950 1_556 S
C1493 C1492 1.327 . S
C1493 C1497 1.429 . S
C1494 C1477 1.574 . S
C1494 H1488 0.949 . S
C1494 C1498 1.368 . S
C1495 C1476 1.429 . S
C1495 C1489 1.429 . S
C1495 C1496 1.523 . S
C1496 C1477 1.368 1_554 S
C1496 C1490 1.368 . S
C1496 C1495 1.523 . S
C1497 C1481 1.429 . S
C1497 C1493 1.429 . S
C1497 C1498 1.523 . S
C1498 C1482 1.368 1_556 S
C1498 C1494 1.368 . S
C1498 C1497 1.523 . S
H1499 C1474 0.950 . S
H1500 C1476 0.950 . S
H1501 C1477 0.949 . S
H1502 C1479 0.950 . S
H1503 C1481 0.950 . S
C1504 C1505 1.349 . S
C1504 C1506 1.327 . S
C1504 H1529 0.950 . S
C1505 C1504 1.349 . S
C1505 C1521 1.349 . S
C1506 C1504 1.327 . S
C1506 C1525 1.429 . S
C1506 H1530 0.950 1_556 S
C1507 C1524 1.574 . S
C1507 C1526 1.368 . S
C1507 H1531 0.949 . S
H1508 C1512 0.949 . S
C1509 C1510 1.349 . S
C1509 C1511 1.327 . S
C1509 H1532 0.950 . S
C1510 C1509 1.349 . S
C1510 C1522 1.349 . S
C1511 C1509 1.327 . S
C1511 C1527 1.429 . S
C1511 H1533 0.950 1_554 S
C1512 H1508 0.949 . S
C1512 C1520 1.574 . S
C1512 C1528 1.368 . S
H1513 C1521 0.950 . S
H1514 C1519 0.950 . S
H1515 C1520 0.949 . S
H1516 C1522 0.950 . S
H1517 C1523 0.950 . S
H1518 C1524 0.949 . S
C1519 H1514 0.950 . S
C1519 C1521 1.327 . S
C1519 C1525 1.429 . S
C1520 C1512 1.574 . S
C1520 H1515 0.949 . S
C1520 C1526 1.368 1_654 S
C1521 C1505 1.349 . S
C1521 H1513 0.950 . S
C1521 C1519 1.327 . S
C1522 C1510 1.349 . S
C1522 H1516 0.950 . S
C1522 C1523 1.327 . S
C1523 H1517 0.950 . S
C1523 C1522 1.327 . S
C1523 C1527 1.429 . S
C1524 C1507 1.574 . S
C1524 H1518 0.949 . S
C1524 C1528 1.368 1_456 S
C1525 C1506 1.429 . S
C1525 C1519 1.429 . S
C1525 C1526 1.523 . S
C1526 C1507 1.368 . S
C1526 C1520 1.368 1_456 S
C1526 C1525 1.523 . S
C1527 C1511 1.429 . S
C1527 C1523 1.429 . S
C1527 C1528 1.523 . S
C1528 C1512 1.368 . S
C1528 C1524 1.368 1_654 S
C1528 C1527 1.523 . S
H1529 C1504 0.950 . S
H1530 C1506 0.950 1_554 S
H1531 C1507 0.949 . S
H1532 C1509 0.950 . S
H1533 C1511 0.950 1_556 S
C1534 C1535 1.349 . S
C1534 C1536 1.327 . S
C1534 H1559 0.950 . S
C1535 C1534 1.349 . S
C1535 C1551 1.349 . S
C1536 C1534 1.327 . S
C1536 C1555 1.429 . S
C1536 H1560 0.950 . S
C1537 C1554 1.574 . S
C1537 C1556 1.368 . S
C1537 H1561 0.949 . S
H1538 C1542 0.949 . S
C1539 C1540 1.349 . S
C1539 C1541 1.327 . S
C1539 H1562 0.950 . S
C1540 C1539 1.349 . S
C1540 C1552 1.349 . S
C1541 C1539 1.327 . S
C1541 C1557 1.429 . S
C1541 H1563 0.950 . S
C1542 H1538 0.949 . S
C1542 C1550 1.574 . S
C1542 C1558 1.368 . S
H1543 C1551 0.950 . S
H1544 C1549 0.950 . S
H1545 C1550 0.949 . S
H1546 C1552 0.950 . S
H1547 C1553 0.950 . S
H1548 C1554 0.949 . S
C1549 H1544 0.950 . S
C1549 C1551 1.327 . S
C1549 C1555 1.429 . S
C1550 C1542 1.574 . S
C1550 H1545 0.949 . S
C1550 C1556 1.368 . S
C1551 C1535 1.349 . S
C1551 H1543 0.950 . S
C1551 C1549 1.327 . S
C1552 C1540 1.349 . S
C1552 H1546 0.950 . S
C1552 C1553 1.327 . S
C1553 H1547 0.950 . S
C1553 C1552 1.327 . S
C1553 C1557 1.429 . S
C1554 C1537 1.574 . S
C1554 H1548 0.949 . S
C1554 C1558 1.368 . S
C1555 C1536 1.429 . S
C1555 C1549 1.429 . S
C1555 C1556 1.523 . S
C1556 C1537 1.368 . S
C1556 C1550 1.368 . S
C1556 C1555 1.523 . S
C1557 C1541 1.429 . S
C1557 C1553 1.429 . S
C1557 C1558 1.523 . S
C1558 C1542 1.368 . S
C1558 C1554 1.368 . S
C1558 C1557 1.523 . S
H1559 C1534 0.950 . S
H1560 C1536 0.950 . S
H1561 C1537 0.949 . S
H1562 C1539 0.950 . S
H1563 C1541 0.950 . S
C1564 C1565 1.349 . S
C1564 C1566 1.327 . S
C1564 H1589 0.950 . S
C1565 C1564 1.349 . S
C1565 C1581 1.349 . S
C1566 C1564 1.327 . S
C1566 C1585 1.429 . S
C1566 H1590 0.950 . S
C1567 C1584 1.574 . S
C1567 C1586 1.368 1_556 S
C1567 H1591 0.949 . S
H1568 C1572 0.949 . S
C1569 C1570 1.349 . S
C1569 C1571 1.327 . S
C1569 H1592 0.950 . S
C1570 C1569 1.349 . S
C1570 C1582 1.349 . S
C1571 C1569 1.327 . S
C1571 C1587 1.429 . S
C1571 H1593 0.950 . S
C1572 H1568 0.949 . S
C1572 C1580 1.574 . S
C1572 C1588 1.368 1_554 S
H1573 C1581 0.950 . S
H1574 C1579 0.950 1_556 S
H1575 C1580 0.949 . S
H1576 C1582 0.950 . S
H1577 C1583 0.950 1_554 S
H1578 C1584 0.949 . S
C1579 H1574 0.950 1_554 S
C1579 C1581 1.327 . S
C1579 C1585 1.429 . S
C1580 C1572 1.574 . S
C1580 H1575 0.949 . S
C1580 C1586 1.368 . S
C1581 C1565 1.349 . S
C1581 H1573 0.950 . S
C1581 C1579 1.327 . S
C1582 C1570 1.349 . S
C1582 H1576 0.950 . S
C1582 C1583 1.327 . S
C1583 H1577 0.950 1_556 S
C1583 C1582 1.327 . S
C1583 C1587 1.429 . S
C1584 C1567 1.574 . S
C1584 H1578 0.949 . S
C1584 C1588 1.368 . S
C1585 C1566 1.429 . S
C1585 C1579 1.429 . S
C1585 C1586 1.523 . S
C1586 C1567 1.368 1_554 S
C1586 C1580 1.368 . S
C1586 C1585 1.523 . S
C1587 C1571 1.429 . S
C1587 C1583 1.429 . S
C1587 C1588 1.523 . S
C1588 C1572 1.368 1_556 S
C1588 C1584 1.368 . S
C1588 C1587 1.523 . S
H1589 C1564 0.950 . S
H1590 C1566 0.950 . S
H1591 C1567 0.949 . S
H1592 C1569 0.950 . S
H1593 C1571 0.950 . S
C1594 C1595 1.349 . S
C1594 C1596 1.327 . S
C1594 H1619 0.950 . S
C1595 C1594 1.349 . S
C1595 C1611 1.349 . S
C1596 C1594 1.327 . S
C1596 C1615 1.429 . S
C1596 H1620 0.950 . S
C1597 C1614 1.574 . S
C1597 C1616 1.368 . S
C1597 H1621 0.949 . S
H1598 C1602 0.949 . S
C1599 C1600 1.349 . S
C1599 C1601 1.327 . S
C1599 H1622 0.950 . S
C1600 C1599 1.349 . S
C1600 C1612 1.349 . S
C1601 C1599 1.327 . S
C1601 C1617 1.429 . S
C1601 H1623 0.950 . S
C1602 H1598 0.949 . S
C1602 C1610 1.574 . S
C1602 C1618 1.368 . S
H1603 C1611 0.950 . S
H1604 C1609 0.950 . S
H1605 C1610 0.949 . S
H1606 C1612 0.950 . S
H1607 C1613 0.950 . S
H1608 C1614 0.949 . S
C1609 H1604 0.950 . S
C1609 C1611 1.327 . S
C1609 C1615 1.429 . S
C1610 C1602 1.574 . S
C1610 H1605 0.949 . S
C1610 C1616 1.368 . S
C1611 C1595 1.349 . S
C1611 H1603 0.950 . S
C1611 C1609 1.327 . S
C1612 C1600 1.349 . S
C1612 H1606 0.950 . S
C1612 C1613 1.327 . S
C1613 H1607 0.950 . S
C1613 C1612 1.327 . S
C1613 C1617 1.429 . S
C1614 C1597 1.574 . S
C1614 H1608 0.949 . S
C1614 C1618 1.368 . S
C1615 C1596 1.429 . S
C1615 C1609 1.429 . S
C1615 C1616 1.523 . S
C1616 C1597 1.368 . S
C1616 C1610 1.368 . S
C1616 C1615 1.523 . S
C1617 C1601 1.429 . S
C1617 C1613 1.429 . S
C1617 C1618 1.523 . S
C1618 C1602 1.368 . S
C1618 C1614 1.368 . S
C1618 C1617 1.523 . S
H1619 C1594 0.950 . S
H1620 C1596 0.950 . S
H1621 C1597 0.949 . S
H1622 C1599 0.950 . S
H1623 C1601 0.950 . S
C1624 C1625 1.349 . S
C1624 C1626 1.327 . S
C1624 H1649 0.950 . S
C1625 C1624 1.349 . S
C1625 C1641 1.349 . S
C1626 C1624 1.327 . S
C1626 C1645 1.429 . S
C1626 H1650 0.973 . S
C1627 C1644 1.574 . S
C1627 C1646 1.368 1_556 S
C1627 H1651 0.949 . S
H1628 C1632 0.949 . S
C1629 C1630 1.349 . S
C1629 C1631 1.327 . S
C1629 H1652 0.950 . S
C1630 C1629 1.349 . S
C1630 C1642 1.349 . S
C1631 C1629 1.327 . S
C1631 C1647 1.429 . S
C1631 H1653 0.973 . S
C1632 H1628 0.949 . S
C1632 C1640 1.574 . S
C1632 C1648 1.368 1_554 S
H1633 C1641 0.950 . S
H1634 C1639 0.950 1_556 S
H1635 C1640 0.949 . S
H1636 C1642 0.950 . S
H1637 C1643 0.950 1_554 S
H1638 C1644 0.949 . S
C1639 H1634 0.950 1_554 S
C1639 C1641 1.327 . S
C1639 C1645 1.429 . S
C1640 C1632 1.574 . S
C1640 H1635 0.949 . S
C1640 C1646 1.368 1_545 S
C1641 C1625 1.349 . S
C1641 H1633 0.950 . S
C1641 C1639 1.327 . S
C1642 C1630 1.349 . S
C1642 H1636 0.950 . S
C1642 C1643 1.327 . S
C1643 H1637 0.950 1_556 S
C1643 C1642 1.327 . S
C1643 C1647 1.429 . S
C1644 C1627 1.574 . S
C1644 H1638 0.949 . S
C1644 C1648 1.368 1_565 S
C1645 C1626 1.429 . S
C1645 C1639 1.429 . S
C1645 C1646 1.523 . S
C1646 C1627 1.368 1_554 S
C1646 C1640 1.368 1_565 S
C1646 C1645 1.523 . S
C1647 C1631 1.429 . S
C1647 C1643 1.429 . S
C1647 C1648 1.523 . S
C1648 C1632 1.368 1_556 S
C1648 C1644 1.368 1_545 S
C1648 C1647 1.523 . S
H1649 C1624 0.950 . S
H1650 C1626 0.973 . S
H1651 C1627 0.949 . S
H1652 C1629 0.950 . S
H1653 C1631 0.973 . S
C1654 C1655 1.349 . S
C1654 C1656 1.327 . S
C1654 H1679 0.950 . S
C1655 C1654 1.349 . S
C1655 C1671 1.349 . S
C1656 C1654 1.327 . S
C1656 C1675 1.429 . S
C1656 H1680 0.950 . S
C1657 C1674 1.574 . S
C1657 C1676 1.368 . S
C1657 H1681 0.949 . S
H1658 C1662 0.949 . S
C1659 C1660 1.349 . S
C1659 C1661 1.327 . S
C1659 H1682 0.950 . S
C1660 C1659 1.349 . S
C1660 C1672 1.349 . S
C1661 C1659 1.327 . S
C1661 C1677 1.429 . S
C1661 H1683 0.950 . S
C1662 H1658 0.949 . S
C1662 C1670 1.574 . S
C1662 C1678 1.368 . S
H1663 C1671 0.950 . S
H1664 C1669 0.950 . S
H1665 C1670 0.949 . S
H1666 C1672 0.950 . S
H1667 C1673 0.950 . S
H1668 C1674 0.949 . S
C1669 H1664 0.950 . S
C1669 C1671 1.327 . S
C1669 C1675 1.429 . S
C1670 C1662 1.574 . S
C1670 H1665 0.949 . S
C1670 C1676 1.368 . S
C1671 C1655 1.349 . S
C1671 H1663 0.950 . S
C1671 C1669 1.327 . S
C1672 C1660 1.349 . S
C1672 H1666 0.950 . S
C1672 C1673 1.327 . S
C1673 H1667 0.950 . S
C1673 C1672 1.327 . S
C1673 C1677 1.429 . S
C1674 C1657 1.574 . S
C1674 H1668 0.949 . S
C1674 C1678 1.368 . S
C1675 C1656 1.429 . S
C1675 C1669 1.429 . S
C1675 C1676 1.523 . S
C1676 C1657 1.368 . S
C1676 C1670 1.368 . S
C1676 C1675 1.523 . S
C1677 C1661 1.429 . S
C1677 C1673 1.429 . S
C1677 C1678 1.523 . S
C1678 C1662 1.368 . S
C1678 C1674 1.368 . S
C1678 C1677 1.523 . S
H1679 C1654 0.950 . S
H1680 C1656 0.950 . S
H1681 C1657 0.949 . S
H1682 C1659 0.950 . S
H1683 C1661 0.950 . S
C1684 C1685 1.349 . S
C1684 C1686 1.327 . S
C1684 H1709 0.950 . S
C1685 C1684 1.349 . S
C1685 C1701 1.349 . S
C1686 C1684 1.327 . S
C1686 C1705 1.429 . S
C1686 H1710 0.950 . S
C1687 C1704 1.574 . S
C1687 C1706 1.368 . S
C1687 H1711 0.949 . S
H1688 C1692 0.949 . S
C1689 C1690 1.349 . S
C1689 C1691 1.327 . S
C1689 H1712 0.950 . S
C1690 C1689 1.349 . S
C1690 C1702 1.349 . S
C1691 C1689 1.327 . S
C1691 C1707 1.429 . S
C1691 H1713 0.950 . S
C1692 H1688 0.949 . S
C1692 C1700 1.574 . S
C1692 C1708 1.368 . S
H1693 C1701 0.950 . S
H1694 C1699 0.950 . S
H1695 C1700 0.949 . S
H1696 C1702 0.950 . S
H1697 C1703 0.950 . S
H1698 C1704 0.949 . S
C1699 H1694 0.950 . S
C1699 C1701 1.327 . S
C1699 C1705 1.429 . S
C1700 C1692 1.574 . S
C1700 H1695 0.949 . S
C1700 C1706 1.368 . S
C1701 C1685 1.349 . S
C1701 H1693 0.950 . S
C1701 C1699 1.327 . S
C1702 C1690 1.349 . S
C1702 H1696 0.950 . S
C1702 C1703 1.327 . S
C1703 H1697 0.950 . S
C1703 C1702 1.327 . S
C1703 C1707 1.429 . S
C1704 C1687 1.574 . S
C1704 H1698 0.949 . S
C1704 C1708 1.368 . S
C1705 C1686 1.429 . S
C1705 C1699 1.429 . S
C1705 C1706 1.523 . S
C1706 C1687 1.368 . S
C1706 C1700 1.368 . S
C1706 C1705 1.523 . S
C1707 C1691 1.429 . S
C1707 C1703 1.429 . S
C1707 C1708 1.523 . S
C1708 C1692 1.368 . S
C1708 C1704 1.368 . S
C1708 C1707 1.523 . S
H1709 C1684 0.950 . S
H1710 C1686 0.950 . S
H1711 C1687 0.949 . S
H1712 C1689 0.950 . S
H1713 C1691 0.950 . S
C1714 C1715 1.349 . S
C1714 C1716 1.327 . S
C1714 H1739 0.950 . S
C1715 C1714 1.349 . S
C1715 C1731 1.349 . S
C1716 C1714 1.327 . S
C1716 C1735 1.429 . S
C1716 H1740 0.950 . S
C1717 C1734 1.574 . S
C1717 C1736 1.368 . S
C1717 H1741 0.949 . S
H1718 C1722 0.949 . S
C1719 C1720 1.349 . S
C1719 C1721 1.327 . S
C1719 H1742 0.950 . S
C1720 C1719 1.349 . S
C1720 C1732 1.349 . S
C1721 C1719 1.327 . S
C1721 C1737 1.429 . S
C1721 H1743 0.950 . S
C1722 H1718 0.949 . S
C1722 C1730 1.574 . S
C1722 C1738 1.368 . S
H1723 C1731 0.950 . S
H1724 C1729 0.950 . S
H1725 C1730 0.949 . S
H1726 C1732 0.950 . S
H1727 C1733 0.950 . S
H1728 C1734 0.949 . S
C1729 H1724 0.950 . S
C1729 C1731 1.327 . S
C1729 C1735 1.429 . S
C1730 C1722 1.574 . S
C1730 H1725 0.949 . S
C1730 C1736 1.368 . S
C1731 C1715 1.349 . S
C1731 H1723 0.950 . S
C1731 C1729 1.327 . S
C1732 C1720 1.349 . S
C1732 H1726 0.950 . S
C1732 C1733 1.327 . S
C1733 H1727 0.950 . S
C1733 C1732 1.327 . S
C1733 C1737 1.429 . S
C1734 C1717 1.574 . S
C1734 H1728 0.949 . S
C1734 C1738 1.368 . S
C1735 C1716 1.429 . S
C1735 C1729 1.429 . S
C1735 C1736 1.523 . S
C1736 C1717 1.368 . S
C1736 C1730 1.368 . S
C1736 C1735 1.523 . S
C1737 C1721 1.429 . S
C1737 C1733 1.429 . S
C1737 C1738 1.523 . S
C1738 C1722 1.368 . S
C1738 C1734 1.368 . S
C1738 C1737 1.523 . S
H1739 C1714 0.950 . S
H1740 C1716 0.950 . S
H1741 C1717 0.949 . S
H1742 C1719 0.950 . S
H1743 C1721 0.950 . S
C545 C5 0.352 . S
C550 C315 0.470 . S
C575 C9 0.470 . S
C580 C311 0.352 . S
C605 C281 0.470 . S
C610 C39 0.352 . S
C635 C43 0.470 . S
C640 C277 0.352 . S
C665 C73 0.352 . S
C670 C383 0.470 . S
C695 C77 0.470 . S
C700 C379 0.352 . S
C725 C107 0.352 . S
C730 C349 0.470 . S
C755 C111 0.470 . S
C760 C345 0.352 . S
C785 C141 0.352 . S
C790 C451 0.470 . S
C815 C447 0.352 . S
C820 C145 0.470 . S
C845 C417 0.470 . S
C850 C175 0.352 . S
C875 C413 0.352 . S
C880 C179 0.470 . S
C905 C519 0.470 . S
C910 C209 0.352 . S
C935 C515 0.352 . S
C940 C213 0.470 . S
C965 C485 0.470 . S
C970 C243 0.352 . S
C995 C247 0.470 . S
C1000 C481 0.352 . S
C1025 C2 1.640 . S
C1030 C36 1.640 . S
C1055 C104 1.640 . S
C1060 C70 1.640 . S
C1085 C172 1.640 . S
C1090 C138 1.640 . S
C1115 C240 1.640 . S
C1120 C206 1.640 . S
C1145 C308 1.640 . S
C1150 C274 1.640 . S
C1175 C342 1.640 . S
C1180 C376 1.640 . S
C1205 C444 1.640 . S
C1210 C410 1.640 . S
C1235 C478 1.640 . S
C1240 C512 1.640 . S
C1265 C509 1.327 . S
C1270 C33 1.327 . S
C1295 C88 1.872 . S
C1300 C20 1.872 . S
C1325 C407 1.327 . S
C1330 C67 1.327 . S
C1355 C258 1.872 . S
C1360 C54 1.872 . S
C1385 C101 1.327 . S
C1390 C441 1.327 . S
C1415 C339 1.327 . S
C1420 C135 1.327 . S
C1445 C122 1.872 . S
C1450 C190 1.872 . S
C1475 C373 1.327 . S
C1480 C169 1.327 . S
C1505 C156 1.872 . S
C1510 C224 1.872 . S
C1535 C203 1.327 . S
C1540 C543 1.327 . S
C1565 C237 1.327 . S
C1570 C305 1.327 . S
C1595 C271 1.327 . S
C1600 C475 1.327 . S
C1625 C360 1.872 . S
C1630 C292 1.872 . S
C1655 C530 1.872 . S
C1660 C326 1.872 . S
C1685 C394 1.872 . S
C1690 C462 1.872 . S
C1715 C428 1.872 . S
C1720 C496 1.872 . S
