# Generated by pormake.
# Topology umz, (4)-cn, num edge types: 1
# Building blocks:
#     Node 0, Type 0, BuildingBlock: GALJAG_clean_sbu_0, # of connection points: 4
#     Node 1, Type 0, BuildingBlock: GALJAG_clean_sbu_0, # of connection points: 4
#     Node 2, Type 0, BuildingBlock: GALJAG_clean_sbu_0, # of connection points: 4
#     Node 3, Type 0, BuildingBlock: GALJAG_clean_sbu_0, # of connection points: 4
#     Node 4, Type 0, BuildingBlock: GALJAG_clean_sbu_0, # of connection points: 4
#     Node 5, Type 0, BuildingBlock: GALJAG_clean_sbu_0, # of connection points: 4
#     Node 6, Type 0, BuildingBlock: GALJAG_clean_sbu_0, # of connection points: 4
#     Node 7, Type 0, BuildingBlock: GALJAG_clean_sbu_0, # of connection points: 4
#     Node 8, Type 0, BuildingBlock: GALJAG_clean_sbu_0, # of connection points: 4
#     Node 9, Type 0, BuildingBlock: GALJAG_clean_sbu_0, # of connection points: 4
#     Node 10, Type 0, BuildingBlock: GALJAG_clean_sbu_0, # of connection points: 4
#     Node 11, Type 0, BuildingBlock: GALJAG_clean_sbu_0, # of connection points: 4
#     Node 12, Type 0, BuildingBlock: GALJAG_clean_sbu_0, # of connection points: 4
#     Node 13, Type 0, BuildingBlock: GALJAG_clean_sbu_0, # of connection points: 4
#     Node 14, Type 0, BuildingBlock: GALJAG_clean_sbu_0, # of connection points: 4
#     Node 15, Type 0, BuildingBlock: GALJAG_clean_sbu_0, # of connection points: 4
#     Edge 16, Type (0, 0), BuildingBlock: KIFKEQ_clean_linker_1, # of connection points: 2
#     Edge 17, Type (0, 0), BuildingBlock: KIFKEQ_clean_linker_1, # of connection points: 2
#     Edge 18, Type (0, 0), BuildingBlock: KIFKEQ_clean_linker_1, # of connection points: 2
#     Edge 19, Type (0, 0), BuildingBlock: KIFKEQ_clean_linker_1, # of connection points: 2
#     Edge 20, Type (0, 0), BuildingBlock: KIFKEQ_clean_linker_1, # of connection points: 2
#     Edge 21, Type (0, 0), BuildingBlock: KIFKEQ_clean_linker_1, # of connection points: 2
#     Edge 22, Type (0, 0), BuildingBlock: KIFKEQ_clean_linker_1, # of connection points: 2
#     Edge 23, Type (0, 0), BuildingBlock: KIFKEQ_clean_linker_1, # of connection points: 2
#     Edge 24, Type (0, 0), BuildingBlock: KIFKEQ_clean_linker_1, # of connection points: 2
#     Edge 25, Type (0, 0), BuildingBlock: KIFKEQ_clean_linker_1, # of connection points: 2
#     Edge 26, Type (0, 0), BuildingBlock: KIFKEQ_clean_linker_1, # of connection points: 2
#     Edge 27, Type (0, 0), BuildingBlock: KIFKEQ_clean_linker_1, # of connection points: 2
#     Edge 28, Type (0, 0), BuildingBlock: KIFKEQ_clean_linker_1, # of connection points: 2
#     Edge 29, Type (0, 0), BuildingBlock: KIFKEQ_clean_linker_1, # of connection points: 2
#     Edge 30, Type (0, 0), BuildingBlock: KIFKEQ_clean_linker_1, # of connection points: 2
#     Edge 31, Type (0, 0), BuildingBlock: KIFKEQ_clean_linker_1, # of connection points: 2
#     Edge 32, Type (0, 0), BuildingBlock: KIFKEQ_clean_linker_1, # of connection points: 2
#     Edge 33, Type (0, 0), BuildingBlock: KIFKEQ_clean_linker_1, # of connection points: 2
#     Edge 34, Type (0, 0), BuildingBlock: KIFKEQ_clean_linker_1, # of connection points: 2
#     Edge 35, Type (0, 0), BuildingBlock: KIFKEQ_clean_linker_1, # of connection points: 2
#     Edge 36, Type (0, 0), BuildingBlock: KIFKEQ_clean_linker_1, # of connection points: 2
#     Edge 37, Type (0, 0), BuildingBlock: KIFKEQ_clean_linker_1, # of connection points: 2
#     Edge 38, Type (0, 0), BuildingBlock: KIFKEQ_clean_linker_1, # of connection points: 2
#     Edge 39, Type (0, 0), BuildingBlock: KIFKEQ_clean_linker_1, # of connection points: 2
#     Edge 40, Type (0, 0), BuildingBlock: KIFKEQ_clean_linker_1, # of connection points: 2
#     Edge 41, Type (0, 0), BuildingBlock: KIFKEQ_clean_linker_1, # of connection points: 2
#     Edge 42, Type (0, 0), BuildingBlock: KIFKEQ_clean_linker_1, # of connection points: 2
#     Edge 43, Type (0, 0), BuildingBlock: KIFKEQ_clean_linker_1, # of connection points: 2
#     Edge 44, Type (0, 0), BuildingBlock: KIFKEQ_clean_linker_1, # of connection points: 2
#     Edge 45, Type (0, 0), BuildingBlock: KIFKEQ_clean_linker_1, # of connection points: 2
#     Edge 46, Type (0, 0), BuildingBlock: KIFKEQ_clean_linker_1, # of connection points: 2
#     Edge 47, Type (0, 0), BuildingBlock: KIFKEQ_clean_linker_1, # of connection points: 2
# Relax obj value: 0.183
# Max RMSD: 0.169
# Mean RMSD: 0.169
data_MOF--net-umz--node1-GALJAG_clean_sbu_0--edge1-KIFKEQ_clean_linker_1
_symmetry_space_group_name_H-M    P1
_symmetry_Int_Tables_number       1
_symmetry_cell_setting            triclinic
loop_
_symmetry_equiv_pos_as_xyz
'x, y, z'
_cell_length_a     57.597048
_cell_length_b     57.702496
_cell_length_c     25.566393
_cell_angle_alpha  90.031819
_cell_angle_beta   90.056122
_cell_angle_gamma 89.980826
loop_
_atom_site_label
_atom_site_type_symbol
_atom_site_fract_x
_atom_site_fract_y
_atom_site_fract_z
_atom_type_partial_charge
In0 In 0.02061 0.63138 0.13771 0.0
O1 O 0.02096 0.60414 0.07278 0.0
O2 O 0.05006 0.62661 0.0797 0.0
C3 C 0.97845 0.62072 0.17575 0.0
C4 C 0.01802 0.67488 0.10037 0.0
C5 C 0.04556 0.61687 0.22043 0.0
O6 O 0.98465 0.61505 0.13011 0.0
O7 O 0.99318 0.63232 0.20118 0.0
O8 O 0.03971 0.63782 0.21465 0.0
O9 O 0.03947 0.60357 0.18371 0.0
C10 C 0.04051 0.61023 0.05513 0.0
O11 O 0.0349 0.66789 0.1276 0.0
O12 O 0.00202 0.66025 0.0941 0.0
In13 In 0.86383 0.02485 0.65254 0.0
O14 O 0.8242 0.02228 0.6488 0.0
O15 O 0.84416 0.00724 0.58744 0.0
C16 C 0.87272 0.04772 0.74194 0.0
C17 C 0.87704 0.05728 0.58341 0.0
C18 C 0.88504 0.98437 0.67327 0.0
O19 O 0.85261 0.04012 0.73172 0.0
O20 O 0.88767 0.04404 0.70698 0.0
O21 O 0.8904 -0.00311 0.63468 0.0
O22 O 0.86849 0.99196 0.70068 0.0
C23 C 0.82429 0.0118 0.60531 0.0
O24 O 0.88962 0.04011 0.59508 0.0
O25 O 0.85787 0.05828 0.60718 0.0
In26 In 0.44999 0.86218 0.14102 0.0
O27 O 0.4358 0.82558 0.12816 0.0
O28 O 0.47213 0.83085 0.12157 0.0
C29 C 0.42462 0.87632 0.22322 0.0
C30 C 0.43103 0.87728 0.05098 0.0
C31 C 0.48977 0.88242 0.17193 0.0
O32 O 0.43171 0.85565 0.21906 0.0
O33 O 0.42972 0.88933 0.1853 0.0
O34 O 0.47974 0.88776 0.12969 0.0
O35 O 0.48 0.86658 0.19777 0.0
C36 C 0.45539 0.81693 0.11792 0.0
O37 O 0.45241 0.87298 0.05557 0.0
O38 O 0.41924 0.87419 0.09191 0.0
In39 In 0.61567 0.46927 0.61399 0.0
O40 O 0.65435 0.46089 0.6195 0.0
O41 O 0.64196 0.47869 0.55204 0.0
C42 C 0.59816 0.44797 0.69901 0.0
C43 C 0.59434 0.44714 0.53467 0.0
C44 C 0.61069 0.51356 0.64508 0.0
O45 O 0.61841 0.4438 0.68254 0.0
O46 O 0.58679 0.46223 0.67187 0.0
O47 O 0.59854 0.50476 0.60902 0.0
O48 O 0.62584 0.50021 0.66414 0.0
C49 C 0.65901 0.46978 0.57557 0.0
O50 O 0.5904 0.46814 0.54541 0.0
O51 O 0.60846 0.43716 0.56498 0.0
In52 In 0.04623 0.85034 0.81124 0.0
O53 O 0.0597 0.88001 0.86167 0.0
O54 O 0.07641 0.8472 0.86799 0.0
C55 C 0.00637 0.87251 0.7884 0.0
C56 C 0.03423 0.81087 0.86016 0.0
C57 C 0.06894 0.85274 0.71924 0.0
O58 O 0.01905 0.87825 0.82656 0.0
O59 O 0.01371 0.85551 0.76218 0.0
O60 O 0.05384 0.83744 0.72831 0.0
O61 O 0.07297 0.86624 0.75688 0.0
C62 C 0.07526 0.86794 0.88344 0.0
O63 O 0.0508 0.81181 0.82794 0.0
O64 O 0.02327 0.82959 0.86607 0.0
In65 In 0.63876 0.02429 0.34508 0.0
O66 O 0.62172 0.02341 0.42451 0.0
O67 O 0.62913 0.05664 0.39247 0.0
C68 C 0.61051 0.98968 0.31456 0.0
C69 C 0.68091 0.01439 0.38522 0.0
C70 C 0.63752 0.04726 0.25347 0.0
O71 O 0.60333 0.00713 0.33947 0.0
O72 O 0.63203 0.98948 0.30555 0.0
O73 O 0.64853 0.02854 0.2594 0.0
O74 O 0.62803 0.05498 0.29442 0.0
C75 C 0.62112 0.0451 0.43039 0.0
O76 O 0.67726 0.03229 0.35812 0.0
O77 O 0.66367 0.00119 0.39002 0.0
In78 In 0.47461 0.62288 0.88742 0.0
O79 O 0.46147 0.66012 0.89078 0.0
O80 O 0.4886 0.65018 0.94272 0.0
C81 C 0.45321 0.60579 0.80208 0.0
C82 C 0.45309 0.60165 0.96768 0.0
C83 C 0.51814 0.61691 0.85213 0.0
O84 O 0.45154 0.62688 0.81495 0.0
O85 O 0.46495 0.59345 0.83302 0.0
O86 O 0.51006 0.60571 0.8905 0.0
O87 O 0.50454 0.63187 0.83311 0.0
C88 C 0.47482 0.66583 0.92785 0.0
O89 O 0.47408 0.59778 0.95643 0.0
O90 O 0.44288 0.61561 0.93751 0.0
In91 In 0.86206 0.46868 0.37963 0.0
O92 O 0.82468 0.45524 0.38099 0.0
O93 O 0.8333 0.48385 0.42947 0.0
C94 C 0.87885 0.44531 0.29699 0.0
C95 C 0.88312 0.44892 0.46245 0.0
C96 C 0.87139 0.5112 0.34162 0.0
O97 O 0.85734 0.44821 0.30422 0.0
O98 O 0.89177 0.45349 0.33244 0.0
O99 O 0.8789 0.5044 0.38536 0.0
O100 O 0.85869 0.49686 0.31788 0.0
C101 C 0.81799 0.46972 0.41474 0.0
O102 O 0.88472 0.47026 0.4523 0.0
O103 O 0.87131 0.43734 0.43007 0.0
In104 In 0.9707 0.36553 0.88108 0.0
O105 O 0.96935 0.39115 0.949 0.0
O106 O 0.93892 0.37174 0.93203 0.0
C107 C 0.0143 0.3728 0.84795 0.0
C108 C 0.97265 0.32262 0.92143 0.0
C109 C 0.94922 0.38188 0.79513 0.0
O110 O 0.00573 0.38321 0.88691 0.0
O111 O 0.00107 0.35808 0.82674 0.0
O112 O 0.94822 0.36073 0.80779 0.0
O113 O 0.96034 0.39458 0.82649 0.0
C114 C 0.94866 0.38646 0.96118 0.0
O115 O 0.95826 0.32804 0.88617 0.0
O116 O 0.98646 0.33854 0.93451 0.0
In117 In 0.1352 0.95141 0.3116 0.0
O118 O 0.17423 0.95053 0.32542 0.0
O119 O 0.15483 0.97661 0.36435 0.0
C120 C 0.13553 0.92847 0.21984 0.0
C121 C 0.12095 0.92036 0.38324 0.0
C122 C 0.10754 0.9878 0.28952 0.0
O123 O 0.14847 0.9457 0.22836 0.0
O124 O 0.12297 0.92254 0.2579 0.0
O125 O 0.10614 0.9768 0.33207 0.0
O126 O 0.12312 0.98073 0.25883 0.0
C127 C 0.17431 0.96713 0.35752 0.0
O128 O 0.10705 0.93413 0.3609 0.0
O129 O 0.14178 0.92203 0.36865 0.0
In130 In 0.53407 0.12104 0.85553 0.0
O131 O 0.5347 0.16058 0.85343 0.0
O132 O 0.52216 0.14378 0.9221 0.0
C133 C 0.55392 0.10859 0.76445 0.0
C134 C 0.56412 0.10311 0.92535 0.0
C135 C 0.48983 0.1088 0.836 0.0
O136 O 0.55536 0.12909 0.78165 0.0
O137 O 0.54305 0.09475 0.79356 0.0
O138 O 0.50203 0.09885 0.87043 0.0
O139 O 0.49981 0.12524 0.81251 0.0
C140 C 0.52668 0.16261 0.89926 0.0
O141 O 0.54486 0.09368 0.91505 0.0
O142 O 0.5684 0.12126 0.89963 0.0
In143 In 0.3657 0.5203 0.38598 0.0
O144 O 0.38929 0.51802 0.45709 0.0
O145 O 0.37588 0.5512 0.43655 0.0
C146 C 0.37194 0.47777 0.34503 0.0
C147 C 0.32232 0.52034 0.42481 0.0
C148 C 0.38305 0.54352 0.30385 0.0
O149 O 0.38114 0.48382 0.38772 0.0
O150 O 0.35917 0.49285 0.32405 0.0
O151 O 0.36148 0.54209 0.31235 0.0
O152 O 0.39578 0.53398 0.33785 0.0
C153 C 0.38797 0.53934 0.4679 0.0
O154 O 0.32842 0.534 0.38882 0.0
O155 O 0.33784 0.50652 0.43991 0.0
In156 In 0.95031 0.13315 0.166 0.0
O157 O 0.94827 0.12866 0.07827 0.0
O158 O 0.92174 0.11282 0.12395 0.0
C159 C 0.9862 0.10443 0.18761 0.0
C160 C 0.95717 0.17676 0.13248 0.0
C161 C 0.92725 0.13346 0.25769 0.0
O162 O 0.96906 0.0983 0.16031 0.0
O163 O 0.98542 0.12507 0.20345 0.0
O164 O 0.9469 0.1427 0.25196 0.0
O165 O 0.9188 0.12479 0.21659 0.0
C166 C 0.92981 0.11689 0.07892 0.0
O167 O 0.93769 0.1698 0.14869 0.0
O168 O 0.97328 0.16201 0.13528 0.0
In169 In 0.35121 0.97249 0.64015 0.0
O170 O 0.37354 0.97064 0.56669 0.0
O171 O 0.35413 0.94075 0.5876 0.0
C172 C 0.36761 0.01297 0.67673 0.0
C173 C 0.30759 0.97963 0.60561 0.0
C174 C 0.36584 0.94663 0.72116 0.0
O175 O 0.3743 0.00418 0.63406 0.0
O176 O 0.35189 0.00175 0.70007 0.0
O177 O 0.34469 0.95193 0.71522 0.0
O178 O 0.37922 0.95396 0.68586 0.0
C179 C 0.36789 0.95008 0.55563 0.0
O180 O 0.31302 0.96254 0.63386 0.0
O181 O 0.32387 0.99372 0.59725 0.0
In182 In 0.51281 0.3605 0.11534 0.0
O183 O 0.52715 0.32363 0.11149 0.0
O184 O 0.49743 0.33172 0.06576 0.0
C185 C 0.53653 0.37723 0.19772 0.0
C186 C 0.53175 0.38188 0.03209 0.0
C187 C 0.47064 0.36896 0.15642 0.0
O188 O 0.53371 0.35576 0.19026 0.0
O189 O 0.52817 0.39013 0.16253 0.0
O190 O 0.47701 0.37752 0.11334 0.0
O191 O 0.48516 0.35557 0.17755 0.0
C192 C 0.51227 0.31676 0.07872 0.0
O193 O 0.51042 0.38332 0.04301 0.0
O194 O 0.54365 0.37009 0.06389 0.0
In195 In 0.12238 0.52285 0.63532 0.0
O196 O 0.16086 0.53232 0.63706 0.0
O197 O 0.14854 0.51087 0.57521 0.0
C198 C 0.10647 0.54476 0.72126 0.0
C199 C 0.10264 0.54641 0.55627 0.0
C200 C 0.11384 0.47867 0.66347 0.0
O201 O 0.12789 0.54247 0.71208 0.0
O202 O 0.09327 0.53653 0.68657 0.0
O203 O 0.10272 0.48881 0.62763 0.0
O204 O 0.12963 0.49065 0.6843 0.0
C205 C 0.16547 0.52139 0.59552 0.0
O206 O 0.09739 0.5257 0.56696 0.0
O207 O 0.11743 0.55549 0.58648 0.0
H208 H 0.98283 0.69465 0.04467 0.0
H209 H 0.05442 0.70459 0.0902 0.0
H210 H 0.98553 0.72798 0.986 0.0
H211 H 0.05708 0.73782 0.03146 0.0
H212 H 0.06103 0.77225 0.86985 0.0
H213 H 0.05593 0.74048 0.9318 0.0
H214 H 0.99248 0.77181 0.98744 0.0
H215 H -0.00242 0.8037 0.92553 0.0
C216 C -0.001 0.7042 0.04279 0.0
C217 C 0.01845 0.69701 0.07176 0.0
C218 C 0.00053 0.72323 0.00925 0.0
C219 C 0.0216 0.73519 0.00377 0.0
C220 C 0.04074 0.72862 0.03443 0.0
C221 C 0.03915 0.70976 0.06836 0.0
C222 C 0.04586 0.77221 0.89486 0.0
C223 C 0.02971 0.79041 0.89298 0.0
C224 C 0.04307 0.75418 0.93062 0.0
C225 C 0.02397 0.75391 0.96474 0.0
C226 C 0.00735 0.77165 0.96153 0.0
C227 C 0.01028 0.78984 0.92614 0.0
H228 H 0.72291 0.03497 0.3688 0.0
H229 H 0.6878 0.9853 0.46733 0.0
H230 H 0.75794 0.031 0.42244 0.0
H231 H 0.72266 0.98177 0.52145 0.0
H232 H 0.77904 0.01553 0.63684 0.0
H233 H 0.74437 0.01309 0.58136 0.0
H234 H 0.78741 -0.00263 0.44789 0.0
H235 H 0.82193 -0.00067 0.50309 0.0
C236 C 0.72279 0.02305 0.40153 0.0
C237 C 0.70273 0.01042 0.41391 0.0
C238 C 0.74277 0.02076 0.43209 0.0
C239 C 0.74283 0.00615 0.47602 0.0
C240 C 0.72292 0.99322 0.48788 0.0
C241 C 0.7031 -0.00485 0.45674 0.0
C242 C 0.78101 0.01116 0.59587 0.0
C243 C 0.80313 0.00767 0.57424 0.0
C244 C 0.76124 0.00973 0.56425 0.0
C245 C 0.76338 0.0052 0.51046 0.0
C246 C 0.78541 0.00104 0.48921 0.0
C247 C 0.80509 0.00206 0.5209 0.0
H248 H 0.49599 0.79513 0.09507 0.0
H249 H 0.42157 0.78574 0.09238 0.0
H250 H 0.50102 0.75843 0.04941 0.0
H251 H 0.42664 0.74873 0.04727 0.0
H252 H 0.44409 0.70088 0.90905 0.0
H253 H 0.43934 0.73664 0.95907 0.0
H254 H 0.49622 0.71657 0.05965 0.0
H255 H 0.50121 0.68106 0.00921 0.0
C256 C 0.48072 0.78502 0.08548 0.0
C257 C 0.45838 0.7933 0.09709 0.0
C258 C 0.48361 0.76398 0.05941 0.0
C259 C 0.46421 0.75083 0.04433 0.0
C260 C 0.44189 0.75871 0.05765 0.0
C261 C 0.43899 0.77976 0.08392 0.0
C262 C 0.4557 0.70423 0.94155 0.0
C263 C 0.47306 0.68825 0.95516 0.0
C264 C 0.45282 0.72456 0.97051 0.0
C265 C 0.46729 0.72929 0.01354 0.0
C266 C 0.48491 0.71347 0.02651 0.0
C267 C 0.48775 0.69314 -0.00237 0.0
H268 H 0.67042 0.47818 0.47437 0.0
H269 H 0.70014 0.4602 0.62422 0.0
H270 H 0.70901 0.47737 0.43498 0.0
H271 H 0.73888 0.45969 0.58469 0.0
H272 H 0.80352 0.49222 0.5021 0.0
H273 H 0.76498 0.49134 0.5417 0.0
H274 H 0.74095 0.44613 0.41842 0.0
H275 H 0.7797 0.44673 0.37892 0.0
C276 C 0.68523 0.47411 0.49888 0.0
C277 C 0.68237 0.46932 0.55236 0.0
C278 C 0.70723 0.4735 0.47625 0.0
C279 C 0.7268 0.46845 0.50687 0.0
C280 C 0.724 0.46374 0.56041 0.0
C281 C 0.7019 0.46397 0.58291 0.0
C282 C 0.79001 0.48212 0.48339 0.0
C283 C 0.79452 0.46958 0.43739 0.0
C284 C 0.76805 0.4815 0.50627 0.0
C285 C 0.75014 0.46862 0.48312 0.0
C286 C 0.75454 0.45625 0.43682 0.0
C287 C 0.77664 0.45657 0.41434 0.0
H288 H 0.94082 0.28789 0.91083 0.0
H289 H 0.00269 0.30732 0.99592 0.0
H290 H 0.93759 0.25284 0.96396 0.0
H291 H -0.00071 0.27252 0.04931 0.0
H292 H -0.0026 0.1951 0.09509 0.0
H293 H 0.0019 0.22997 0.0422 0.0
H294 H 0.92847 0.24385 0.05683 0.0
H295 H 0.92391 0.20879 0.10928 0.0
C296 C 0.95383 0.28455 0.9405 0.0
C297 C 0.97199 0.30029 0.9493 0.0
C298 C 0.95185 0.26464 0.97123 0.0
C299 C 0.96806 0.2601 0.01109 0.0
C300 C 0.98662 0.27551 0.01872 0.0
C301 C 0.98853 0.29544 0.98819 0.0
C302 C 0.98228 0.20575 0.08752 0.0
C303 C 0.9603 0.19926 0.10622 0.0
C304 C 0.98486 0.2257 0.05727 0.0
C305 C 0.9655 0.23947 0.04498 0.0
C306 C 0.94363 0.23332 0.06496 0.0
C307 C 0.94106 0.21341 0.09542 0.0
H308 H 0.27493 0.94586 0.59636 0.0
H309 H 0.29058 0.01603 0.54906 0.0
H310 H 0.24231 0.94509 0.53537 0.0
H311 H 0.2576 0.01527 0.48845 0.0
H312 H 0.18009 0.00389 0.42385 0.0
H313 H 0.21123 0.00913 0.48832 0.0
H314 H 0.24458 0.94697 0.43196 0.0
H315 H 0.21387 0.94189 0.36722 0.0
C316 C 0.27107 0.96131 0.5739 0.0
C317 C 0.28536 0.98095 0.57715 0.0
C318 C 0.25254 0.96078 0.53875 0.0
C319 C 0.24777 0.98001 0.50686 0.0
C320 C 0.26103 0.00024 0.51263 0.0
C321 C 0.27983 0.00065 0.54727 0.0
C322 C 0.19431 0.99161 0.42468 0.0
C323 C 0.19457 0.97246 0.39064 0.0
C324 C 0.21203 -0.00541 0.46156 0.0
C325 C 0.22998 0.97823 0.46545 0.0
C326 C 0.23068 0.95961 0.43014 0.0
C327 C 0.21324 0.95684 0.39283 0.0
H328 H 0.51828 0.1702 0.00233 0.0
H329 H 0.52814 0.20573 0.85525 0.0
H330 H 0.51408 0.20739 0.04682 0.0
H331 H 0.52372 0.24302 0.89997 0.0
H332 H 0.48807 0.3019 0.99376 0.0
H333 H 0.49105 0.26439 0.94996 0.0
H334 H 0.54124 0.242 0.06488 0.0
H335 H 0.53846 0.27964 0.10859 0.0
C336 C 0.51943 0.18597 0.97949 0.0
C337 C 0.52353 0.18514 0.92535 0.0
C338 C 0.51715 0.2072 0.00502 0.0
C339 C 0.51861 0.22798 0.97677 0.0
C340 C 0.52238 0.22718 0.9225 0.0
C341 C 0.52499 0.20591 0.89702 0.0
C342 C 0.49963 0.28891 0.00987 0.0
C343 C 0.51304 0.29362 0.05456 0.0
C344 C 0.50143 0.26756 0.9846 0.0
C345 C 0.51642 0.25043 0.00401 0.0
C346 C 0.52946 0.25493 0.04936 0.0
C347 C 0.52791 0.27643 0.07425 0.0
H348 H 0.28303 0.54132 0.38804 0.0
H349 H 0.30969 0.50086 0.51699 0.0
H350 H 0.24475 0.54222 0.42994 0.0
H351 H 0.27166 0.50211 0.55897 0.0
H352 H 0.20666 0.53441 0.63951 0.0
H353 H 0.24491 0.53486 0.5976 0.0
H354 H 0.21427 0.50989 0.45409 0.0
H355 H 0.17618 0.50907 0.49596 0.0
C356 C 0.2807 0.53269 0.42528 0.0
C357 C 0.29921 0.52094 0.44923 0.0
C358 C 0.25887 0.53317 0.44911 0.0
C359 C 0.25542 0.52229 0.49763 0.0
C360 C 0.274 0.51077 0.52176 0.0
C361 C 0.29566 0.50994 0.49756 0.0
C362 C 0.20815 0.52899 0.59907 0.0
C363 C 0.18856 0.5216 0.57099 0.0
C364 C 0.22996 0.52922 0.57521 0.0
C365 C 0.23238 0.52247 0.5227 0.0
C366 C 0.21275 0.51534 0.4945 0.0
C367 C 0.19105 0.51473 0.51857 0.0
H368 H 0.02434 0.57373 -0.00229 0.0
H369 H 0.08036 0.62335 0.00615 0.0
H370 H 0.04095 0.55768 0.91774 0.0
H371 H 0.09663 0.60778 0.92551 0.0
H372 H 0.13108 0.55936 0.80656 0.0
H373 H 0.11568 0.57429 0.88891 0.0
H374 H 0.04595 0.56863 0.82758 0.0
H375 H 0.06132 0.55316 0.74602 0.0
C376 C 0.0402 0.58118 0.98246 0.0
C377 C 0.05103 0.59979 0.00808 0.0
C378 C 0.04964 0.57211 0.93646 0.0
C379 C 0.07005 0.58154 0.91502 0.0
C380 C 0.08105 0.59993 0.94124 0.0
C381 C 0.07166 0.60892 0.98732 0.0
C382 C 0.11249 0.56142 0.8107 0.0
C383 C 0.0974 0.5551 0.76994 0.0
C384 C 0.10365 0.57002 0.85779 0.0
C385 C 0.07956 0.57254 0.86496 0.0
C386 C 0.06455 0.5665 0.82376 0.0
C387 C 0.07337 0.55783 0.77684 0.0
H388 H 0.88494 0.11469 0.28005 0.0
H389 H 0.94628 0.14356 0.35253 0.0
H390 H 0.87146 0.10138 0.36541 0.0
H391 H 0.93278 0.13016 0.43779 0.0
H392 H 0.91982 0.06361 0.54115 0.0
H393 H 0.93005 0.0881 0.46703 0.0
H394 H 0.85936 0.11281 0.45844 0.0
H395 H 0.8491 0.08834 0.5332 0.0
C396 C 0.89523 0.11871 0.31437 0.0
C397 C 0.91678 0.12988 0.30964 0.0
C398 C 0.88747 0.11118 0.36323 0.0
C399 C 0.90124 0.11454 0.40798 0.0
C400 C 0.92198 0.12716 0.40373 0.0
C401 C 0.92964 0.13488 0.35499 0.0
C402 C 0.90656 0.07454 0.52398 0.0
C403 C 0.88367 0.074 0.5426 0.0
C404 C 0.91244 0.08869 0.48184 0.0
C405 C 0.89547 0.10235 0.45713 0.0
C406 C 0.87272 0.10239 0.47681 0.0
C407 C 0.8669 0.08846 0.51956 0.0
H408 H 0.4498 0.87497 0.95359 0.0
H409 H 0.38885 0.89778 0.03722 0.0
H410 H 0.43308 0.88898 0.87203 0.0
H411 H 0.37253 0.91296 0.95621 0.0
H412 H 0.34096 0.92343 0.79576 0.0
H413 H 0.35606 0.90428 0.87396 0.0
H414 H 0.42577 0.92408 0.82977 0.0
H415 H 0.41077 0.94203 0.75097 0.0
C416 C 0.43287 0.88314 0.95448 0.0
C417 C 0.42066 0.88544 0.00163 0.0
C418 C 0.42331 0.8913 0.90781 0.0
C419 C 0.4015 0.90233 0.90743 0.0
C420 C 0.38918 0.90428 0.95474 0.0
C421 C 0.3986 0.89576 0.00129 0.0
C422 C 0.35951 0.92342 0.80272 0.0
C423 C 0.3747 0.93415 0.76733 0.0
C424 C 0.36818 0.91261 0.84766 0.0
C425 C 0.39217 0.91262 0.85837 0.0
C426 C 0.40727 0.92325 0.82247 0.0
C427 C 0.39865 0.93372 0.77735 0.0
H428 H 0.54798 0.35369 0.28659 0.0
H429 H 0.54768 0.42217 0.2185 0.0
H430 H 0.56107 0.36992 0.36961 0.0
H431 H 0.56154 0.43835 0.30081 0.0
H432 H 0.56131 0.46374 0.46803 0.0
H433 H 0.54768 0.44614 0.38693 0.0
H434 H 0.59318 0.38765 0.41294 0.0
H435 H 0.60613 0.40492 0.49493 0.0
C436 C 0.55109 0.37217 0.28916 0.0
C437 C 0.54679 0.38667 0.24615 0.0
C438 C 0.55863 0.38148 0.33672 0.0
C439 C 0.56218 0.40549 0.3421 0.0
C440 C 0.55849 0.41986 0.29845 0.0
C441 C 0.55078 0.41057 0.25109 0.0
C442 C 0.5682 0.44702 0.45661 0.0
C443 C 0.58477 0.4357 0.48774 0.0
C444 C 0.56057 0.43702 0.40989 0.0
C445 C 0.56952 0.41558 0.39304 0.0
C446 C 0.58575 0.40406 0.4249 0.0
C447 C 0.59323 0.41398 0.47184 0.0
H448 H 0.1491 0.94603 0.12563 0.0
H449 H 0.11592 0.88687 0.19708 0.0
H450 H 0.13925 0.93087 0.03888 0.0
H451 H 0.10632 0.87169 0.1107 0.0
H452 H 0.10393 0.84317 0.9471 0.0
H453 H 0.12393 0.85686 0.02556 0.0
H454 H 0.09913 0.92625 0.99596 0.0
H455 H 0.07901 0.91258 0.91761 0.0
C456 C 0.14019 0.92955 0.12273 0.0
C457 C 0.13313 0.91766 0.16792 0.0
C458 C 0.13447 0.92097 0.07321 0.0
C459 C 0.12198 0.90018 0.06822 0.0
C460 C 0.11614 0.88765 0.11342 0.0
C461 C 0.12153 0.89639 0.16283 0.0
C462 C 0.10307 0.86142 0.95687 0.0
C463 C 0.08975 0.8768 0.9266 0.0
C464 C 0.11447 0.86921 0.00177 0.0
C465 C 0.11298 0.89256 0.01681 0.0
C466 C 0.10072 0.90819 0.98495 0.0
C467 C 0.0891 0.90035 0.94035 0.0
H468 H 0.54379 0.06909 0.7125 0.0
H469 H 0.58548 0.13111 0.70195 0.0
H470 H 0.55977 0.05536 0.63053 0.0
H471 H 0.6024 0.11684 0.62 0.0
H472 H 0.61106 0.09091 0.44858 0.0
H473 H 0.59463 0.10773 0.52847 0.0
H474 H 0.59553 0.04006 0.60097 0.0
H475 H 0.61094 0.02335 0.52122 0.0
C476 C 0.55655 0.07973 0.69274 0.0
C477 C 0.56359 0.10105 0.71385 0.0
C478 C 0.56583 0.07179 0.64581 0.0
C479 C 0.58269 0.08479 0.61906 0.0
C480 C 0.58938 0.10645 0.63952 0.0
C481 C 0.57982 0.11456 0.6865 0.0
C482 C 0.60767 0.07973 0.48171 0.0
C483 C 0.612 0.0558 0.47856 0.0
C484 C 0.59841 0.08935 0.52751 0.0
C485 C 0.59349 0.0752 0.57093 0.0
C486 C 0.59851 0.05139 0.56789 0.0
C487 C 0.60748 0.0418 0.52221 0.0
H488 H 0.35953 0.55624 0.2158 0.0
H489 H 0.42835 0.55313 0.28264 0.0
H490 H 0.3759 0.5693 0.13302 0.0
H491 H 0.44471 0.56706 0.20067 0.0
H492 H 0.46961 0.56811 0.03309 0.0
H493 H 0.45205 0.55425 0.11399 0.0
H494 H 0.3942 0.60091 0.0907 0.0
H495 H 0.41134 0.614 0.0089 0.0
C496 C 0.37813 0.55874 0.21301 0.0
C497 C 0.39268 0.55367 0.25558 0.0
C498 C 0.38753 0.56626 0.1656 0.0
C499 C 0.41166 0.56909 0.15995 0.0
C500 C 0.4261 0.56459 0.20318 0.0
C501 C 0.41672 0.55684 0.25037 0.0
C502 C 0.45304 0.5752 0.0451 0.0
C503 C 0.44183 0.5921 0.01476 0.0
C504 C 0.44306 0.56744 0.0917 0.0
C505 C 0.42179 0.57662 0.10922 0.0
C506 C 0.41043 0.59325 0.0782 0.0
C507 C 0.4203 0.60082 0.03137 0.0
H508 H 0.96078 0.42198 0.74684 0.0
H509 H 0.91589 0.36242 0.73254 0.0
H510 H 0.94584 0.43726 0.66512 0.0
H511 H 0.89974 0.37835 0.65174 0.0
H512 H 0.89046 0.40307 0.48349 0.0
H513 H 0.90687 0.38628 0.563 0.0
H514 H 0.91352 0.455 0.62916 0.0
H515 H 0.89842 0.47161 0.54882 0.0
C516 C 0.94742 0.41231 0.72646 0.0
C517 C 0.93937 0.3911 0.74613 0.0
C518 C 0.93872 0.42114 0.67964 0.0
C519 C 0.92135 0.40921 0.65179 0.0
C520 C 0.91331 0.3879 0.67162 0.0
C521 C 0.92239 0.37883 0.71813 0.0
C522 C 0.89563 0.4145 0.51503 0.0
C523 C 0.89334 0.43862 0.50994 0.0
C524 C 0.90484 0.4049 0.5608 0.0
C525 C 0.91161 0.41923 0.60274 0.0
C526 C 0.90906 0.44338 0.59744 0.0
C527 C 0.90026 0.45295 0.55143 0.0
H528 H 0.96497 0.42019 0.02624 0.0
H529 H 0.90686 0.37406 0.00242 0.0
H530 H 0.94742 0.43411 0.10711 0.0
H531 H 0.88964 0.38738 0.08413 0.0
H532 H 0.85523 0.43325 0.20854 0.0
H533 H 0.87146 0.41983 0.12583 0.0
H534 H 0.94016 0.42054 0.19407 0.0
H535 H 0.92397 0.43467 0.27611 0.0
C536 C 0.94843 0.41308 0.03828 0.0
C537 C 0.93729 0.39605 0.00811 0.0
C538 C 0.93845 0.42088 0.08485 0.0
C539 C 0.91722 0.41169 0.10243 0.0
C540 C 0.90588 0.39499 0.07154 0.0
C541 C 0.91579 0.38731 0.0248 0.0
C542 C 0.87376 0.43034 0.20591 0.0
C543 C 0.88834 0.43503 0.24869 0.0
C544 C 0.88308 0.42261 0.15855 0.0
C545 C 0.90715 0.41928 0.15313 0.0
C546 C 0.92161 0.4234 0.19651 0.0
C547 C 0.91231 0.43127 0.24369 0.0
H548 H 0.05285 0.83711 0.62517 0.0
H549 H 0.10769 0.87739 0.69612 0.0
H550 H 0.06635 0.8489 0.53827 0.0
H551 H 0.12125 0.88891 0.60966 0.0
H552 H 0.14904 0.89472 0.4463 0.0
H553 H 0.13795 0.87309 0.52441 0.0
H554 H 0.06591 0.88945 0.49551 0.0
H555 H 0.07698 0.91122 0.41739 0.0
C556 C 0.0681 0.84801 0.62211 0.0
C557 C 0.0792 0.85646 0.6672 0.0
C558 C 0.07571 0.85484 0.57252 0.0
C559 C 0.09477 0.86984 0.5674 0.0
C560 C 0.10664 0.87716 0.61249 0.0
C561 C 0.09882 0.87066 0.66194 0.0
C562 C 0.1308 0.89338 0.45612 0.0
C563 C 0.11387 0.90483 0.42613 0.0
C564 C 0.12449 0.88104 0.50083 0.0
C565 C 0.10112 0.8797 0.51599 0.0
C566 C 0.08405 0.89005 0.48438 0.0
C567 C 0.09038 0.90262 0.43993 0.0
H568 H 0.62008 0.0901 0.2312 0.0
H569 H 0.64434 0.02696 0.15859 0.0
H570 H 0.60653 0.10404 0.14614 0.0
H571 H 0.63041 0.04079 0.07379 0.0
H572 H 0.56411 0.06046 0.9709 0.0
H573 H 0.58695 0.04785 0.04636 0.0
H574 H 0.62108 0.1144 0.05113 0.0
H575 H 0.59855 0.12693 0.97492 0.0
C576 C 0.62294 0.07943 0.19691 0.0
C577 C 0.63315 0.05743 0.20147 0.0
C578 C 0.61525 0.08743 0.1483 0.0
C579 C 0.61732 0.07338 0.10367 0.0
C580 C 0.62853 0.05185 0.10777 0.0
C581 C 0.63658 0.04404 0.1562 0.0
C582 C 0.57676 0.07224 0.98755 0.0
C583 C 0.57953 0.09466 0.96726 0.0
C584 C 0.58989 0.065 0.03047 0.0
C585 C 0.60573 0.0802 0.0544 0.0
C586 C 0.60894 0.10242 0.03333 0.0
C587 C 0.59612 0.10951 0.98973 0.0
H588 H 0.39531 0.58503 0.49007 0.0
H589 H 0.40408 0.51617 0.55297 0.0
H590 H 0.41163 0.60149 0.56997 0.0
H591 H 0.41914 0.53245 0.63381 0.0
H592 H 0.46548 0.56588 0.75356 0.0
H593 H 0.45098 0.55057 0.67136 0.0
H594 H 0.40382 0.60868 0.65861 0.0
H595 H 0.41947 0.62463 0.73983 0.0
C596 C 0.40068 0.57345 0.52113 0.0
C597 C 0.39857 0.54935 0.5153 0.0
C598 C 0.40983 0.58285 0.56716 0.0
C599 C 0.41671 0.56835 0.60865 0.0
C600 C 0.41452 0.5442 0.60248 0.0
C601 C 0.40577 0.53482 0.55619 0.0
C602 C 0.45197 0.57534 0.73321 0.0
C603 C 0.44349 0.59637 0.75314 0.0
C604 C 0.44354 0.5665 0.68612 0.0
C605 C 0.42606 0.57824 0.65823 0.0
C606 C 0.41752 0.59931 0.67845 0.0
C607 C 0.42631 0.60837 0.72523 0.0
H608 H 0.84452 0.05863 0.82522 0.0
H609 H 0.91538 0.06254 0.77061 0.0
H610 H 0.85623 0.07708 0.90766 0.0
H611 H 0.92707 0.08014 0.85241 0.0
H612 H 0.93951 0.13057 0.98001 0.0
H613 H 0.92323 0.11579 0.89892 0.0
H614 H 0.87935 0.06911 0.98658 0.0
H615 H 0.89521 0.08464 0.06832 0.0
C616 C 0.86253 0.06345 0.83081 0.0
C617 C 0.87901 0.05927 0.79144 0.0
C618 C 0.86925 0.07387 0.878 0.0
C619 C 0.89255 0.08025 0.88641 0.0
C620 C 0.9089 0.07595 0.84687 0.0
C621 C 0.90221 0.06569 0.79999 0.0
C622 C 0.9263 0.11725 0.98203 0.0
C623 C 0.91883 0.10852 0.03037 0.0
C624 C 0.91701 0.10871 0.93555 0.0
C625 C 0.90025 0.09101 0.93624 0.0
C626 C 0.89215 0.08284 0.98473 0.0
C627 C 0.90132 0.09159 0.03147 0.0
H628 H 0.35682 0.90649 0.52243 0.0
H629 H 0.3972 0.96685 0.48125 0.0
H630 H 0.3688 0.88758 0.44127 0.0
H631 H 0.40949 0.94785 0.40078 0.0
H632 H 0.40651 0.91931 0.23724 0.0
H633 H 0.39197 0.93624 0.31798 0.0
H634 H 0.40338 0.87127 0.39794 0.0
H635 H 0.41761 0.85413 0.3165 0.0
C636 C 0.36839 0.91563 0.4962 0.0
C637 C 0.37602 0.93817 0.50799 0.0
C638 C 0.3753 0.90478 0.44987 0.0
C639 C 0.38992 0.91629 0.41444 0.0
C640 C 0.39785 0.93869 0.42681 0.0
C641 C 0.39096 0.94952 0.47307 0.0
C642 C 0.40567 0.90854 0.27189 0.0
C643 C 0.4133 0.88544 0.27069 0.0
C644 C 0.39752 0.9183 0.31824 0.0
C645 C 0.39687 0.9052 0.36451 0.0
C646 C 0.40361 0.88178 0.36286 0.0
C647 C 0.41176 0.87197 0.3163 0.0
H648 H 0.57758 0.38681 0.00735 0.0
H649 H 0.50845 0.39994 0.949 0.0
H650 H 0.59398 0.403 0.92735 0.0
H651 H 0.52465 0.4151 0.86819 0.0
H652 H 0.55985 0.46207 0.75181 0.0
H653 H 0.54451 0.44692 0.83333 0.0
H654 H 0.59924 0.39559 0.83695 0.0
H655 H 0.61522 0.41164 0.75621 0.0
C656 C 0.56591 0.3931 0.97729 0.0
C657 C 0.54176 0.39224 0.98443 0.0
C658 C 0.57528 0.4022 0.93123 0.0
C659 C 0.56068 0.41036 0.8911 0.0
C660 C 0.53648 0.40941 0.89851 0.0
C661 C 0.52715 0.40061 0.94477 0.0
C662 C 0.56858 0.44751 0.76996 0.0
C663 C 0.58867 0.43796 0.74759 0.0
C664 C 0.55971 0.43872 0.81664 0.0
C665 C 0.57052 0.41991 0.84177 0.0
C666 C 0.59064 0.4103 0.81916 0.0
C667 C 0.59971 0.41934 0.77269 0.0
H668 H 0.11459 0.58922 0.51949 0.0
H669 H 0.0704 0.53042 0.48735 0.0
H670 H 0.10214 0.60726 0.43765 0.0
H671 H 0.05762 0.54859 0.40636 0.0
H672 H 0.06055 0.57299 0.23923 0.0
H673 H 0.0746 0.55707 0.32154 0.0
H674 H 0.0684 0.62453 0.39366 0.0
H675 H 0.05475 0.6406 0.3107 0.0
C676 C 0.102 0.5803 0.49526 0.0
C677 C 0.09354 0.55837 0.5096 0.0
C678 C 0.09485 0.59064 0.44849 0.0
C679 C 0.07912 0.57922 0.41525 0.0
C680 C 0.07015 0.5576 0.43056 0.0
C681 C 0.07731 0.54728 0.47718 0.0
C682 C 0.06243 0.58449 0.27249 0.0
C683 C 0.05647 0.60801 0.26865 0.0
C684 C 0.07028 0.57533 0.31976 0.0
C685 C 0.07227 0.58947 0.36432 0.0
C686 C 0.06713 0.61322 0.35998 0.0
C687 C 0.0593 0.62241 0.31253 0.0
H688 H 0.88455 0.55142 0.38913 0.0
H689 H 0.87741 0.51878 0.2382 0.0
H690 H 0.90415 0.58423 0.34853 0.0
H691 H 0.89873 0.55015 0.19794 0.0
H692 H 0.93835 0.60682 0.12795 0.0
H693 H 0.90593 0.58635 0.16826 0.0
H694 H 0.94024 0.59163 0.31871 0.0
H695 H 0.97116 0.61364 0.27891 0.0
C696 C 0.88708 0.55143 0.34714 0.0
C697 C 0.87971 0.5326 0.31676 0.0
C698 C 0.89854 0.57008 0.32378 0.0
C699 C 0.90372 0.5698 0.26986 0.0
C700 C 0.89499 0.55142 0.23929 0.0
C701 C 0.88285 0.53321 0.26243 0.0
C702 C 0.93848 0.60404 0.16986 0.0
C703 C 0.95726 0.61159 0.20031 0.0
C704 C 0.92004 0.59209 0.19304 0.0
C705 C 0.92047 0.58673 0.24686 0.0
C706 C 0.93881 0.59555 0.27747 0.0
C707 C 0.9568 0.60809 0.25454 0.0
H708 H 0.88314 0.96025 0.76489 0.0
H709 H 0.91814 0.96251 0.6156 0.0
H710 H 0.90971 0.92982 0.79408 0.0
H711 H 0.94464 0.93217 0.64475 0.0
H712 H 0.97984 0.86682 0.70104 0.0
H713 H 0.94698 0.89053 0.67292 0.0
H714 H 0.95258 0.93111 0.81438 0.0
H715 H 0.98539 0.9074 0.84259 0.0
C716 C 0.89623 0.95394 0.73802 0.0
C717 C 0.89872 0.96381 0.68813 0.0
C718 C 0.91148 0.93665 0.75483 0.0
C719 C 0.92929 0.92876 0.72178 0.0
C720 C 0.93095 0.93779 0.67089 0.0
C721 C 0.91587 0.95522 0.6543 0.0
C722 C 0.97386 0.88063 0.72641 0.0
C723 C 0.98525 0.88542 0.77381 0.0
C724 C 0.95511 0.8942 0.71023 0.0
C725 C 0.9473 0.91266 0.74141 0.0
C726 C 0.95809 0.91683 0.78983 0.0
C727 C 0.97696 0.90338 0.8058 0.0
H728 H 0.50696 0.88185 0.27096 0.0
H729 H 0.51835 0.91159 0.11805 0.0
H730 H 0.53812 0.90588 0.30664 0.0
H731 H 0.54983 0.93535 0.15381 0.0
H732 H 0.61833 0.9584 0.23657 0.0
H733 H 0.59084 0.92994 0.20129 0.0
H734 H 0.53982 0.95154 0.31488 0.0
H735 H 0.567 0.98023 0.34944 0.0
C736 C 0.51638 0.89323 0.24484 0.0
C737 C 0.5102 0.89499 0.19182 0.0
C738 C 0.53411 0.907 0.26531 0.0
C739 C 0.54622 0.92243 0.23291 0.0
C740 C 0.54078 0.92344 0.17942 0.0
C741 C 0.52276 0.90996 0.15909 0.0
C742 C 0.6013 0.95689 0.2542 0.0
C743 C 0.59471 0.97148 0.29562 0.0
C744 C 0.58562 0.94073 0.23392 0.0
C745 C 0.56334 0.9386 0.25556 0.0
C746 C 0.557 0.95275 0.29789 0.0
C747 C 0.57248 0.9692 0.31745 0.0
H748 H 0.57764 0.54435 0.61379 0.0
H749 H 0.63073 0.53357 0.73073 0.0
H750 H 0.56207 0.57637 0.66463 0.0
H751 H 0.61533 0.56596 0.78146 0.0
H752 H 0.54963 0.5848 0.88457 0.0
H753 H 0.57907 0.56618 0.83107 0.0
H754 H 0.56509 0.61454 0.70593 0.0
H755 H 0.53527 0.63302 0.75948 0.0
C756 C 0.58643 0.54931 0.64957 0.0
C757 C 0.60509 0.53619 0.66882 0.0
C758 C 0.57761 0.5678 0.67861 0.0
C759 C 0.58729 0.57351 0.7275 0.0
C760 C 0.60731 0.56173 0.74432 0.0
C761 C 0.61616 0.54324 0.71518 0.0
C762 C 0.55332 0.59191 0.84626 0.0
C763 C 0.53986 0.61004 0.8258 0.0
C764 C 0.57033 0.58133 0.81562 0.0
C765 C 0.57416 0.58867 0.76389 0.0
C766 C 0.56225 0.60828 0.74535 0.0
C767 C 0.54526 0.61892 0.77611 0.0
H768 H 0.08012 0.45019 0.62563 0.0
H769 H 0.13124 0.45604 0.74868 0.0
H770 H 0.06252 0.41752 0.67049 0.0
H771 H 0.11378 0.42297 0.79343 0.0
H772 H 0.04568 0.40341 0.88729 0.0
H773 H 0.07651 0.42266 0.8393 0.0
H774 H 0.06377 0.37815 0.70634 0.0
H775 H 0.03254 0.35904 0.75439 0.0
C776 C 0.08801 0.44404 0.66153 0.0
C777 C 0.10674 0.45592 0.68422 0.0
C778 C 0.07804 0.42516 0.68709 0.0
C779 C 0.0866 0.41783 0.73589 0.0
C780 C 0.10662 0.42845 0.75624 0.0
C781 C 0.11664 0.44733 0.73056 0.0
C782 C 0.04989 0.39729 0.84837 0.0
C783 C 0.03643 0.38007 0.82418 0.0
C784 C 0.0677 0.40821 0.82092 0.0
C785 C 0.07235 0.40214 0.7687 0.0
C786 C 0.06032 0.38341 0.74626 0.0
C787 C 0.04252 0.37242 0.77385 0.0
H788 H 0.01871 0.10995 0.26414 0.0
H789 H -0.00356 0.06292 0.1425 0.0
H790 H 0.0493 0.08267 0.28939 0.0
H791 H 0.02723 0.03587 0.16731 0.0
H792 H 0.10095 0.00671 0.19323 0.0
H793 H 0.07242 0.036 0.16799 0.0
H794 H 0.04919 0.04065 0.32814 0.0
H795 H 0.07756 0.01107 0.35346 0.0
C796 C 0.02048 0.09387 0.24259 0.0
C797 C 0.00524 0.0885 0.20139 0.0
C798 C 0.03788 0.07827 0.25719 0.0
C799 C 0.04056 0.05725 0.23022 0.0
C800 C 0.02559 0.05207 0.18843 0.0
C801 C 0.00796 0.06748 0.17441 0.0
C802 C 0.08988 0.01411 0.22312 0.0
C803 C 0.0914 0.00661 0.27528 0.0
C804 C 0.07351 0.03075 0.20861 0.0
C805 C 0.05863 0.04047 0.24613 0.0
C806 C 0.06059 0.03348 0.29857 0.0
C807 C 0.07672 0.01654 0.31297 0.0
H808 H 0.399 0.04165 0.63083 0.0
H809 H 0.36367 0.02888 0.77696 0.0
H810 H 0.42422 0.06953 0.67414 0.0
H811 H 0.38892 0.05701 0.82044 0.0
H812 H 0.46548 0.07278 0.87792 0.0
H813 H 0.43097 0.05435 0.84158 0.0
H814 H 0.42766 0.10677 0.72124 0.0
H815 H 0.46236 0.12509 0.75728 0.0
C816 C 0.39626 0.04524 0.67196 0.0
C817 C 0.37955 0.03295 0.70064 0.0
C818 C 0.41063 0.06132 0.69676 0.0
C819 C 0.40865 0.06533 0.75081 0.0
C820 C 0.39097 0.05408 0.77885 0.0
C821 C 0.37645 0.03809 0.7539 0.0
C822 C 0.4571 0.08064 0.84439 0.0
C823 C 0.46678 0.10017 0.82 0.0
C824 C 0.43723 0.07018 0.82375 0.0
C825 C 0.42674 0.07901 0.77826 0.0
C826 C 0.43557 0.09943 0.75594 0.0
C827 C 0.45538 0.10994 0.77669 0.0
H828 H 0.46521 0.37246 0.26094 0.0
H829 H 0.42985 0.38449 0.11472 0.0
H830 H 0.43575 0.39411 0.30691 0.0
H831 H 0.39871 0.40442 0.16109 0.0
H832 H 0.37464 0.47142 0.24064 0.0
H833 H 0.39328 0.43983 0.19513 0.0
H834 H 0.40128 0.40319 0.34203 0.0
H835 H 0.38452 0.43628 0.38779 0.0
C836 C 0.45051 0.37901 0.23894 0.0
C837 C 0.44992 0.37719 0.1843 0.0
C838 C 0.43336 0.39137 0.26541 0.0
C839 C 0.41479 0.40164 0.23795 0.0
C840 C 0.41311 0.39766 0.18361 0.0
C841 C 0.43078 0.38599 0.15691 0.0
C842 C 0.38006 0.4564 0.26299 0.0
C843 C 0.37855 0.45636 0.31767 0.0
C844 C 0.39065 0.43803 0.2368 0.0
C845 C 0.39937 0.41882 0.26463 0.0
C846 C 0.3957 0.41795 0.31917 0.0
C847 C 0.38585 0.43677 0.34553 0.0
loop_
_geom_bond_atom_site_label_1
_geom_bond_atom_site_label_2
_geom_bond_distance
_geom_bond_site_symmetry_2
_ccdc_geom_bond_type
In0 O1 2.294 . S
In0 O2 2.326 . S
In0 O6 2.266 1_455 S
In0 O7 2.326 1_455 S
In0 O8 2.266 . S
In0 O9 2.326 . S
In0 O11 2.294 . S
In0 O12 2.326 . S
O1 In0 2.294 . S
O1 C10 1.240 . S
O2 In0 2.326 . S
O2 C10 1.252 . S
C3 O6 1.252 . S
C3 O7 1.260 . S
C4 O11 1.240 . S
C4 O12 1.252 . S
C5 O8 1.252 . S
C5 O9 1.260 . S
O6 In0 2.266 1_655 S
O6 C3 1.252 . S
O7 In0 2.326 1_655 S
O7 C3 1.260 . S
O8 In0 2.266 . S
O8 C5 1.252 . S
O9 In0 2.326 . S
O9 C5 1.260 . S
C10 O1 1.240 . S
C10 O2 1.252 . S
O11 In0 2.294 . S
O11 C4 1.240 . S
O12 In0 2.326 . S
O12 C4 1.252 . S
In13 O14 2.294 . S
In13 O15 2.326 . S
In13 O19 2.266 . S
In13 O20 2.326 . S
In13 O21 2.266 1_545 S
In13 O22 2.326 1_545 S
In13 O24 2.294 . S
In13 O25 2.326 . S
O14 In13 2.294 . S
O14 C23 1.240 . S
O15 In13 2.326 . S
O15 C23 1.252 . S
C16 O19 1.252 . S
C16 O20 1.260 . S
C17 O24 1.240 . S
C17 O25 1.252 . S
C18 O21 1.252 . S
C18 O22 1.260 . S
O19 In13 2.266 . S
O19 C16 1.252 . S
O20 In13 2.326 . S
O20 C16 1.260 . S
O21 In13 2.266 1_565 S
O21 C18 1.252 . S
O22 In13 2.326 1_565 S
O22 C18 1.260 . S
C23 O14 1.240 . S
C23 O15 1.252 . S
O24 In13 2.294 . S
O24 C17 1.240 . S
O25 In13 2.326 . S
O25 C17 1.252 . S
In26 O27 2.294 . S
In26 O28 2.326 . S
In26 O32 2.266 . S
In26 O33 2.326 . S
In26 O34 2.266 . S
In26 O35 2.326 . S
In26 O37 2.294 . S
In26 O38 2.326 . S
O27 In26 2.294 . S
O27 C36 1.240 . S
O28 In26 2.326 . S
O28 C36 1.252 . S
C29 O32 1.252 . S
C29 O33 1.260 . S
C30 O37 1.240 . S
C30 O38 1.252 . S
C31 O34 1.252 . S
C31 O35 1.260 . S
O32 In26 2.266 . S
O32 C29 1.252 . S
O33 In26 2.326 . S
O33 C29 1.260 . S
O34 In26 2.266 . S
O34 C31 1.252 . S
O35 In26 2.326 . S
O35 C31 1.260 . S
C36 O27 1.240 . S
C36 O28 1.252 . S
O37 In26 2.294 . S
O37 C30 1.240 . S
O38 In26 2.326 . S
O38 C30 1.252 . S
In39 O40 2.294 . S
In39 O41 2.326 . S
In39 O45 2.266 . S
In39 O46 2.326 . S
In39 O47 2.266 . S
In39 O48 2.326 . S
In39 O50 2.294 . S
In39 O51 2.326 . S
O40 In39 2.294 . S
O40 C49 1.240 . S
O41 In39 2.326 . S
O41 C49 1.252 . S
C42 O45 1.252 . S
C42 O46 1.260 . S
C43 O50 1.240 . S
C43 O51 1.252 . S
C44 O47 1.252 . S
C44 O48 1.260 . S
O45 In39 2.266 . S
O45 C42 1.252 . S
O46 In39 2.326 . S
O46 C42 1.260 . S
O47 In39 2.266 . S
O47 C44 1.252 . S
O48 In39 2.326 . S
O48 C44 1.260 . S
C49 O40 1.240 . S
C49 O41 1.252 . S
O50 In39 2.294 . S
O50 C43 1.240 . S
O51 In39 2.326 . S
O51 C43 1.252 . S
In52 O53 2.294 . S
In52 O54 2.326 . S
In52 O58 2.266 1_455 S
In52 O59 2.326 1_455 S
In52 O60 2.266 . S
In52 O61 2.326 . S
In52 O63 2.294 . S
In52 O64 2.326 . S
O53 In52 2.294 . S
O53 C62 1.240 . S
O54 In52 2.326 . S
O54 C62 1.252 . S
C55 O58 1.252 . S
C55 O59 1.260 . S
C56 O63 1.240 . S
C56 O64 1.252 . S
C57 O60 1.252 . S
C57 O61 1.260 . S
O58 In52 2.266 1_655 S
O58 C55 1.252 . S
O59 In52 2.326 1_655 S
O59 C55 1.260 . S
O60 In52 2.266 . S
O60 C57 1.252 . S
O61 In52 2.326 . S
O61 C57 1.260 . S
C62 O53 1.240 . S
C62 O54 1.252 . S
O63 In52 2.294 . S
O63 C56 1.240 . S
O64 In52 2.326 . S
O64 C56 1.252 . S
In65 O66 2.294 . S
In65 O67 2.326 . S
In65 O71 2.266 1_545 S
In65 O72 2.326 1_545 S
In65 O73 2.266 . S
In65 O74 2.326 . S
In65 O76 2.294 . S
In65 O77 2.326 . S
O66 In65 2.294 . S
O66 C75 1.240 . S
O67 In65 2.326 . S
O67 C75 1.252 . S
C68 O71 1.252 . S
C68 O72 1.260 . S
C69 O76 1.240 . S
C69 O77 1.252 . S
C70 O73 1.252 . S
C70 O74 1.260 . S
O71 In65 2.266 1_565 S
O71 C68 1.252 . S
O72 In65 2.326 1_565 S
O72 C68 1.260 . S
O73 In65 2.266 . S
O73 C70 1.252 . S
O74 In65 2.326 . S
O74 C70 1.260 . S
C75 O66 1.240 . S
C75 O67 1.252 . S
O76 In65 2.294 . S
O76 C69 1.240 . S
O77 In65 2.326 . S
O77 C69 1.252 . S
In78 O79 2.294 . S
In78 O80 2.326 . S
In78 O84 2.266 . S
In78 O85 2.326 . S
In78 O86 2.266 . S
In78 O87 2.326 . S
In78 O89 2.294 . S
In78 O90 2.326 . S
O79 In78 2.294 . S
O79 C88 1.240 . S
O80 In78 2.326 . S
O80 C88 1.252 . S
C81 O84 1.252 . S
C81 O85 1.260 . S
C82 O89 1.240 . S
C82 O90 1.252 . S
C83 O86 1.252 . S
C83 O87 1.260 . S
O84 In78 2.266 . S
O84 C81 1.252 . S
O85 In78 2.326 . S
O85 C81 1.260 . S
O86 In78 2.266 . S
O86 C83 1.252 . S
O87 In78 2.326 . S
O87 C83 1.260 . S
C88 O79 1.240 . S
C88 O80 1.252 . S
O89 In78 2.294 . S
O89 C82 1.240 . S
O90 In78 2.326 . S
O90 C82 1.252 . S
In91 O92 2.294 . S
In91 O93 2.326 . S
In91 O97 2.266 . S
In91 O98 2.326 . S
In91 O99 2.266 . S
In91 O100 2.326 . S
In91 O102 2.294 . S
In91 O103 2.326 . S
O92 In91 2.294 . S
O92 C101 1.240 . S
O93 In91 2.326 . S
O93 C101 1.252 . S
C94 O97 1.252 . S
C94 O98 1.260 . S
C95 O102 1.240 . S
C95 O103 1.252 . S
C96 O99 1.252 . S
C96 O100 1.260 . S
O97 In91 2.266 . S
O97 C94 1.252 . S
O98 In91 2.326 . S
O98 C94 1.260 . S
O99 In91 2.266 . S
O99 C96 1.252 . S
O100 In91 2.326 . S
O100 C96 1.260 . S
C101 O92 1.240 . S
C101 O93 1.252 . S
O102 In91 2.294 . S
O102 C95 1.240 . S
O103 In91 2.326 . S
O103 C95 1.252 . S
In104 O105 2.294 . S
In104 O106 2.326 . S
In104 O110 2.266 1_655 S
In104 O111 2.326 1_655 S
In104 O112 2.266 . S
In104 O113 2.326 . S
In104 O115 2.294 . S
In104 O116 2.326 . S
O105 In104 2.294 . S
O105 C114 1.240 . S
O106 In104 2.326 . S
O106 C114 1.252 . S
C107 O110 1.252 . S
C107 O111 1.260 . S
C108 O115 1.240 . S
C108 O116 1.252 . S
C109 O112 1.252 . S
C109 O113 1.260 . S
O110 In104 2.266 1_455 S
O110 C107 1.252 . S
O111 In104 2.326 1_455 S
O111 C107 1.260 . S
O112 In104 2.266 . S
O112 C109 1.252 . S
O113 In104 2.326 . S
O113 C109 1.260 . S
C114 O105 1.240 . S
C114 O106 1.252 . S
O115 In104 2.294 . S
O115 C108 1.240 . S
O116 In104 2.326 . S
O116 C108 1.252 . S
In117 O118 2.294 . S
In117 O119 2.326 . S
In117 O123 2.266 . S
In117 O124 2.326 . S
In117 O125 2.266 1_565 S
In117 O126 2.326 1_565 S
In117 O128 2.294 . S
In117 O129 2.326 . S
O118 In117 2.294 . S
O118 C127 1.240 . S
O119 In117 2.326 . S
O119 C127 1.252 . S
C120 O123 1.252 . S
C120 O124 1.260 . S
C121 O128 1.240 . S
C121 O129 1.252 . S
C122 O125 1.252 . S
C122 O126 1.260 . S
O123 In117 2.266 . S
O123 C120 1.252 . S
O124 In117 2.326 . S
O124 C120 1.260 . S
O125 In117 2.266 1_545 S
O125 C122 1.252 . S
O126 In117 2.326 1_545 S
O126 C122 1.260 . S
C127 O118 1.240 . S
C127 O119 1.252 . S
O128 In117 2.294 . S
O128 C121 1.240 . S
O129 In117 2.326 . S
O129 C121 1.252 . S
In130 O131 2.294 . S
In130 O132 2.326 . S
In130 O136 2.266 . S
In130 O137 2.326 . S
In130 O138 2.266 . S
In130 O139 2.326 . S
In130 O141 2.294 . S
In130 O142 2.326 . S
O131 In130 2.294 . S
O131 C140 1.240 . S
O132 In130 2.326 . S
O132 C140 1.252 . S
C133 O136 1.252 . S
C133 O137 1.260 . S
C134 O141 1.240 . S
C134 O142 1.252 . S
C135 O138 1.252 . S
C135 O139 1.260 . S
O136 In130 2.266 . S
O136 C133 1.252 . S
O137 In130 2.326 . S
O137 C133 1.260 . S
O138 In130 2.266 . S
O138 C135 1.252 . S
O139 In130 2.326 . S
O139 C135 1.260 . S
C140 O131 1.240 . S
C140 O132 1.252 . S
O141 In130 2.294 . S
O141 C134 1.240 . S
O142 In130 2.326 . S
O142 C134 1.252 . S
In143 O144 2.294 . S
In143 O145 2.326 . S
In143 O149 2.266 . S
In143 O150 2.326 . S
In143 O151 2.266 . S
In143 O152 2.326 . S
In143 O154 2.294 . S
In143 O155 2.326 . S
O144 In143 2.294 . S
O144 C153 1.240 . S
O145 In143 2.326 . S
O145 C153 1.252 . S
C146 O149 1.252 . S
C146 O150 1.260 . S
C147 O154 1.240 . S
C147 O155 1.252 . S
C148 O151 1.252 . S
C148 O152 1.260 . S
O149 In143 2.266 . S
O149 C146 1.252 . S
O150 In143 2.326 . S
O150 C146 1.260 . S
O151 In143 2.266 . S
O151 C148 1.252 . S
O152 In143 2.326 . S
O152 C148 1.260 . S
C153 O144 1.240 . S
C153 O145 1.252 . S
O154 In143 2.294 . S
O154 C147 1.240 . S
O155 In143 2.326 . S
O155 C147 1.252 . S
In156 O157 2.294 . S
In156 O158 2.326 . S
In156 O162 2.266 1_655 S
In156 O163 2.326 1_655 S
In156 O164 2.266 . S
In156 O165 2.326 . S
In156 O167 2.294 . S
In156 O168 2.326 . S
O157 In156 2.294 . S
O157 C166 1.240 . S
O158 In156 2.326 . S
O158 C166 1.252 . S
C159 O162 1.252 . S
C159 O163 1.260 . S
C160 O167 1.240 . S
C160 O168 1.252 . S
C161 O164 1.252 . S
C161 O165 1.260 . S
O162 In156 2.266 1_455 S
O162 C159 1.252 . S
O163 In156 2.326 1_455 S
O163 C159 1.260 . S
O164 In156 2.266 . S
O164 C161 1.252 . S
O165 In156 2.326 . S
O165 C161 1.260 . S
C166 O157 1.240 . S
C166 O158 1.252 . S
O167 In156 2.294 . S
O167 C160 1.240 . S
O168 In156 2.326 . S
O168 C160 1.252 . S
In169 O170 2.294 . S
In169 O171 2.326 . S
In169 O175 2.266 1_565 S
In169 O176 2.326 1_565 S
In169 O177 2.266 . S
In169 O178 2.326 . S
In169 O180 2.294 . S
In169 O181 2.326 . S
O170 In169 2.294 . S
O170 C179 1.240 . S
O171 In169 2.326 . S
O171 C179 1.252 . S
C172 O175 1.252 . S
C172 O176 1.260 . S
C173 O180 1.240 . S
C173 O181 1.252 . S
C174 O177 1.252 . S
C174 O178 1.260 . S
O175 In169 2.266 1_545 S
O175 C172 1.252 . S
O176 In169 2.326 1_545 S
O176 C172 1.260 . S
O177 In169 2.266 . S
O177 C174 1.252 . S
O178 In169 2.326 . S
O178 C174 1.260 . S
C179 O170 1.240 . S
C179 O171 1.252 . S
O180 In169 2.294 . S
O180 C173 1.240 . S
O181 In169 2.326 . S
O181 C173 1.252 . S
In182 O183 2.294 . S
In182 O184 2.326 . S
In182 O188 2.266 . S
In182 O189 2.326 . S
In182 O190 2.266 . S
In182 O191 2.326 . S
In182 O193 2.294 . S
In182 O194 2.326 . S
O183 In182 2.294 . S
O183 C192 1.240 . S
O184 In182 2.326 . S
O184 C192 1.252 . S
C185 O188 1.252 . S
C185 O189 1.260 . S
C186 O193 1.240 . S
C186 O194 1.252 . S
C187 O190 1.252 . S
C187 O191 1.260 . S
O188 In182 2.266 . S
O188 C185 1.252 . S
O189 In182 2.326 . S
O189 C185 1.260 . S
O190 In182 2.266 . S
O190 C187 1.252 . S
O191 In182 2.326 . S
O191 C187 1.260 . S
C192 O183 1.240 . S
C192 O184 1.252 . S
O193 In182 2.294 . S
O193 C186 1.240 . S
O194 In182 2.326 . S
O194 C186 1.252 . S
In195 O196 2.294 . S
In195 O197 2.326 . S
In195 O201 2.266 . S
In195 O202 2.326 . S
In195 O203 2.266 . S
In195 O204 2.326 . S
In195 O206 2.294 . S
In195 O207 2.326 . S
O196 In195 2.294 . S
O196 C205 1.240 . S
O197 In195 2.326 . S
O197 C205 1.252 . S
C198 O201 1.252 . S
C198 O202 1.260 . S
C199 O206 1.240 . S
C199 O207 1.252 . S
C200 O203 1.252 . S
C200 O204 1.260 . S
O201 In195 2.266 . S
O201 C198 1.252 . S
O202 In195 2.326 . S
O202 C198 1.260 . S
O203 In195 2.266 . S
O203 C200 1.252 . S
O204 In195 2.326 . S
O204 C200 1.260 . S
C205 O196 1.240 . S
C205 O197 1.252 . S
O206 In195 2.294 . S
O206 C199 1.240 . S
O207 In195 2.326 . S
O207 C199 1.252 . S
H208 C216 0.950 . S
H209 C221 0.950 . S
H210 C218 0.950 . S
H211 C220 0.950 1_556 S
H212 C222 0.950 . S
H213 C224 0.950 . S
H214 C226 0.950 1_554 S
H215 C227 0.950 . S
C216 H208 0.950 . S
C216 C217 1.386 1_655 S
C216 C218 1.391 . S
C217 C216 1.386 1_455 S
C217 C221 1.393 . S
C218 H210 0.950 . S
C218 C216 1.391 . S
C218 C219 1.400 1_655 S
C219 C218 1.400 1_455 S
C219 C220 1.398 . S
C219 C225 1.491 1_554 S
C220 H211 0.950 1_554 S
C220 C219 1.398 . S
C220 C221 1.391 . S
C221 H209 0.950 . S
C221 C217 1.393 . S
C221 C220 1.391 . S
C222 H212 0.950 . S
C222 C223 1.386 . S
C222 C224 1.391 . S
C223 C222 1.386 . S
C223 C227 1.393 1_455 S
C224 H213 0.950 . S
C224 C222 1.391 . S
C224 C225 1.400 . S
C225 C219 1.491 1_556 S
C225 C224 1.400 . S
C225 C226 1.398 1_455 S
C226 H214 0.950 1_556 S
C226 C225 1.398 1_655 S
C226 C227 1.391 . S
C227 H215 0.950 . S
C227 C223 1.393 1_655 S
C227 C226 1.391 . S
H228 C236 0.950 . S
H229 C241 0.950 . S
H230 C238 0.950 . S
H231 C240 0.950 . S
H232 C242 0.950 . S
H233 C244 0.950 . S
H234 C246 0.950 . S
H235 C247 0.950 . S
C236 H228 0.950 . S
C236 C237 1.386 . S
C236 C238 1.391 . S
C237 C236 1.386 . S
C237 C241 1.393 . S
C238 H230 0.950 . S
C238 C236 1.391 . S
C238 C239 1.400 . S
C239 C238 1.400 . S
C239 C240 1.398 . S
C239 C245 1.491 . S
C240 H231 0.950 . S
C240 C239 1.398 . S
C240 C241 1.391 . S
C241 H229 0.950 . S
C241 C237 1.393 . S
C241 C240 1.391 . S
C242 H232 0.950 . S
C242 C243 1.386 . S
C242 C244 1.391 . S
C243 C242 1.386 . S
C243 C247 1.393 . S
C244 H233 0.950 . S
C244 C242 1.391 . S
C244 C245 1.400 . S
C245 C239 1.491 . S
C245 C244 1.400 . S
C245 C246 1.398 . S
C246 H234 0.950 . S
C246 C245 1.398 . S
C246 C247 1.391 . S
C247 H235 0.950 . S
C247 C243 1.393 . S
C247 C246 1.391 . S
H248 C256 0.950 . S
H249 C261 0.950 . S
H250 C258 0.950 . S
H251 C260 0.950 1_556 S
H252 C262 0.950 . S
H253 C264 0.950 . S
H254 C266 0.950 1_554 S
H255 C267 0.950 . S
C256 H248 0.950 . S
C256 C257 1.386 . S
C256 C258 1.391 . S
C257 C256 1.386 . S
C257 C261 1.393 . S
C258 H250 0.950 . S
C258 C256 1.391 . S
C258 C259 1.400 . S
C259 C258 1.400 . S
C259 C260 1.398 . S
C259 C265 1.491 1_554 S
C260 H251 0.950 1_554 S
C260 C259 1.398 . S
C260 C261 1.391 . S
C261 H249 0.950 . S
C261 C257 1.393 . S
C261 C260 1.391 . S
C262 H252 0.950 . S
C262 C263 1.386 . S
C262 C264 1.391 . S
C263 C262 1.386 . S
C263 C267 1.393 . S
C264 H253 0.950 . S
C264 C262 1.391 . S
C264 C265 1.400 . S
C265 C259 1.491 1_556 S
C265 C264 1.400 . S
C265 C266 1.398 . S
C266 H254 0.950 1_556 S
C266 C265 1.398 . S
C266 C267 1.391 . S
C267 H255 0.950 . S
C267 C263 1.393 . S
C267 C266 1.391 . S
H268 C276 0.950 . S
H269 C281 0.950 . S
H270 C278 0.950 . S
H271 C280 0.950 . S
H272 C282 0.950 . S
H273 C284 0.950 . S
H274 C286 0.950 . S
H275 C287 0.950 . S
C276 H268 0.950 . S
C276 C277 1.386 . S
C276 C278 1.391 . S
C277 C276 1.386 . S
C277 C281 1.393 . S
C278 H270 0.950 . S
C278 C276 1.391 . S
C278 C279 1.400 . S
C279 C278 1.400 . S
C279 C280 1.398 . S
C279 C285 1.491 . S
C280 H271 0.950 . S
C280 C279 1.398 . S
C280 C281 1.391 . S
C281 H269 0.950 . S
C281 C277 1.393 . S
C281 C280 1.391 . S
C282 H272 0.950 . S
C282 C283 1.386 . S
C282 C284 1.391 . S
C283 C282 1.386 . S
C283 C287 1.393 . S
C284 H273 0.950 . S
C284 C282 1.391 . S
C284 C285 1.400 . S
C285 C279 1.491 . S
C285 C284 1.400 . S
C285 C286 1.398 . S
C286 H274 0.950 . S
C286 C285 1.398 . S
C286 C287 1.391 . S
C287 H275 0.950 . S
C287 C283 1.393 . S
C287 C286 1.391 . S
H288 C296 0.950 . S
H289 C301 0.950 1_455 S
H290 C298 0.950 . S
H291 C300 0.950 1_455 S
H292 C302 0.954 . S
H293 C304 0.947 . S
H294 C306 0.950 . S
H295 C307 0.950 . S
C296 H288 0.950 . S
C296 C297 1.386 . S
C296 C298 1.391 1_556 S
C297 C296 1.386 . S
C297 C301 1.393 . S
C298 H290 0.950 . S
C298 C296 1.391 1_554 S
C298 C299 1.400 1_554 S
C299 C298 1.400 1_556 S
C299 C300 1.398 . S
C299 C305 1.491 1_556 S
C300 H291 0.950 1_655 S
C300 C299 1.398 . S
C300 C301 1.391 . S
C301 H289 0.950 1_655 S
C301 C297 1.393 . S
C301 C300 1.391 . S
C302 H292 0.954 . S
C302 C303 1.382 1_455 S
C302 C304 1.391 1_554 S
C303 C302 1.382 1_655 S
C303 C307 1.393 . S
C304 H293 0.947 . S
C304 C302 1.391 1_556 S
C304 C305 1.403 1_456 S
C305 C299 1.491 1_554 S
C305 C304 1.403 1_654 S
C305 C306 1.398 . S
C306 H294 0.950 . S
C306 C305 1.398 . S
C306 C307 1.391 . S
C307 H295 0.950 . S
C307 C303 1.393 . S
C307 C306 1.391 . S
H308 C316 0.950 . S
H309 C321 0.923 1_545 S
H310 C318 0.950 . S
H311 C320 0.950 1_545 S
H312 C322 0.959 . S
H313 C324 0.953 . S
H314 C326 0.950 . S
H315 C327 0.950 . S
C316 H308 0.950 . S
C316 C317 1.386 . S
C316 C318 1.391 . S
C317 C316 1.386 . S
C317 C321 1.421 . S
C318 H310 0.950 . S
C318 C316 1.391 . S
C318 C319 1.400 . S
C319 C318 1.400 . S
C319 C320 1.398 . S
C319 C325 1.491 . S
C320 H311 0.950 1_565 S
C320 C319 1.398 . S
C320 C321 1.392 . S
C321 H309 0.923 1_565 S
C321 C317 1.421 . S
C321 C320 1.392 . S
C322 H312 0.959 . S
C322 C323 1.376 1_545 S
C322 C324 1.391 . S
C323 C322 1.376 1_565 S
C323 C327 1.393 . S
C324 H313 0.953 . S
C324 C322 1.391 . S
C324 C325 1.397 1_545 S
C325 C319 1.491 . S
C325 C324 1.397 1_565 S
C325 C326 1.398 . S
C326 H314 0.950 . S
C326 C325 1.398 . S
C326 C327 1.391 . S
C327 H315 0.950 . S
C327 C323 1.393 . S
C327 C326 1.391 . S
H328 C336 0.950 1_554 S
H329 C341 0.950 . S
H330 C338 0.950 . S
H331 C340 0.950 . S
H332 C342 0.950 1_556 S
H333 C344 0.950 . S
H334 C346 0.950 . S
H335 C347 0.950 . S
C336 H328 0.950 1_556 S
C336 C337 1.386 . S
C336 C338 1.391 1_556 S
C337 C336 1.386 . S
C337 C341 1.393 . S
C338 H330 0.950 . S
C338 C336 1.391 1_554 S
C338 C339 1.400 1_554 S
C339 C338 1.400 1_556 S
C339 C340 1.398 . S
C339 C345 1.491 1_556 S
C340 H331 0.950 . S
C340 C339 1.398 . S
C340 C341 1.391 . S
C341 H329 0.950 . S
C341 C337 1.393 . S
C341 C340 1.391 . S
C342 H332 0.950 1_554 S
C342 C343 1.386 . S
C342 C344 1.391 1_554 S
C343 C342 1.386 . S
C343 C347 1.393 . S
C344 H333 0.950 . S
C344 C342 1.391 1_556 S
C344 C345 1.400 1_556 S
C345 C339 1.491 1_554 S
C345 C344 1.400 1_554 S
C345 C346 1.398 . S
C346 H334 0.950 . S
C346 C345 1.398 . S
C346 C347 1.391 . S
C347 H335 0.950 . S
C347 C343 1.393 . S
C347 C346 1.391 . S
H348 C356 0.950 . S
H349 C361 0.950 . S
H350 C358 0.950 . S
H351 C360 0.950 . S
H352 C362 0.950 . S
H353 C364 0.950 . S
H354 C366 0.950 . S
H355 C367 0.950 . S
C356 H348 0.950 . S
C356 C357 1.386 . S
C356 C358 1.391 . S
C357 C356 1.386 . S
C357 C361 1.393 . S
C358 H350 0.950 . S
C358 C356 1.391 . S
C358 C359 1.400 . S
C359 C358 1.400 . S
C359 C360 1.398 . S
C359 C365 1.491 . S
C360 H351 0.950 . S
C360 C359 1.398 . S
C360 C361 1.391 . S
C361 H349 0.950 . S
C361 C357 1.393 . S
C361 C360 1.391 . S
C362 H352 0.950 . S
C362 C363 1.386 . S
C362 C364 1.391 . S
C363 C362 1.386 . S
C363 C367 1.393 . S
C364 H353 0.950 . S
C364 C362 1.391 . S
C364 C365 1.400 . S
C365 C359 1.491 . S
C365 C364 1.400 . S
C365 C366 1.398 . S
C366 H354 0.950 . S
C366 C365 1.398 . S
C366 C367 1.391 . S
C367 H355 0.950 . S
C367 C363 1.393 . S
C367 C366 1.391 . S
H368 C376 0.950 . S
H369 C381 0.950 . S
H370 C378 0.950 . S
H371 C380 0.950 . S
H372 C382 0.950 . S
H373 C384 0.950 . S
H374 C386 0.950 . S
H375 C387 0.950 . S
C376 H368 0.950 . S
C376 C377 1.386 . S
C376 C378 1.391 . S
C377 C376 1.386 . S
C377 C381 1.393 . S
C378 H370 0.950 . S
C378 C376 1.391 . S
C378 C379 1.400 . S
C379 C378 1.400 . S
C379 C380 1.398 . S
C379 C385 1.491 . S
C380 H371 0.950 . S
C380 C379 1.398 . S
C380 C381 1.391 . S
C381 H369 0.950 . S
C381 C377 1.393 . S
C381 C380 1.391 . S
C382 H372 0.950 . S
C382 C383 1.386 . S
C382 C384 1.391 . S
C383 C382 1.386 . S
C383 C387 1.393 . S
C384 H373 0.950 . S
C384 C382 1.391 . S
C384 C385 1.400 . S
C385 C379 1.491 . S
C385 C384 1.400 . S
C385 C386 1.398 . S
C386 H374 0.950 . S
C386 C385 1.398 . S
C386 C387 1.391 . S
C387 H375 0.950 . S
C387 C383 1.393 . S
C387 C386 1.391 . S
H388 C396 0.950 . S
H389 C401 0.950 . S
H390 C398 0.950 . S
H391 C400 0.950 . S
H392 C402 0.950 . S
H393 C404 0.950 . S
H394 C406 0.950 . S
H395 C407 0.950 . S
C396 H388 0.950 . S
C396 C397 1.386 . S
C396 C398 1.391 . S
C397 C396 1.386 . S
C397 C401 1.393 . S
C398 H390 0.950 . S
C398 C396 1.391 . S
C398 C399 1.400 . S
C399 C398 1.400 . S
C399 C400 1.398 . S
C399 C405 1.491 . S
C400 H391 0.950 . S
C400 C399 1.398 . S
C400 C401 1.391 . S
C401 H389 0.950 . S
C401 C397 1.393 . S
C401 C400 1.391 . S
C402 H392 0.950 . S
C402 C403 1.386 . S
C402 C404 1.391 . S
C403 C402 1.386 . S
C403 C407 1.393 . S
C404 H393 0.950 . S
C404 C402 1.391 . S
C404 C405 1.400 . S
C405 C399 1.491 . S
C405 C404 1.400 . S
C405 C406 1.398 . S
C406 H394 0.950 . S
C406 C405 1.398 . S
C406 C407 1.391 . S
C407 H395 0.950 . S
C407 C403 1.393 . S
C407 C406 1.391 . S
H408 C416 0.950 . S
H409 C421 0.950 1_554 S
H410 C418 0.950 . S
H411 C420 0.950 . S
H412 C422 0.950 . S
H413 C424 0.950 . S
H414 C426 0.950 . S
H415 C427 0.950 . S
C416 H408 0.950 . S
C416 C417 1.386 . S
C416 C418 1.391 . S
C417 C416 1.386 . S
C417 C421 1.393 . S
C418 H410 0.950 . S
C418 C416 1.391 . S
C418 C419 1.400 . S
C419 C418 1.400 . S
C419 C420 1.398 . S
C419 C425 1.491 . S
C420 H411 0.950 . S
C420 C419 1.398 . S
C420 C421 1.391 . S
C421 H409 0.950 1_556 S
C421 C417 1.393 . S
C421 C420 1.391 . S
C422 H412 0.950 . S
C422 C423 1.386 . S
C422 C424 1.391 . S
C423 C422 1.386 . S
C423 C427 1.393 . S
C424 H413 0.950 . S
C424 C422 1.391 . S
C424 C425 1.400 . S
C425 C419 1.491 . S
C425 C424 1.400 . S
C425 C426 1.398 . S
C426 H414 0.950 . S
C426 C425 1.398 . S
C426 C427 1.391 . S
C427 H415 0.950 . S
C427 C423 1.393 . S
C427 C426 1.391 . S
H428 C436 0.950 . S
H429 C441 0.950 . S
H430 C438 0.950 . S
H431 C440 0.950 . S
H432 C442 0.950 . S
H433 C444 0.950 . S
H434 C446 0.950 . S
H435 C447 0.950 . S
C436 H428 0.950 . S
C436 C437 1.386 . S
C436 C438 1.391 . S
C437 C436 1.386 . S
C437 C441 1.393 . S
C438 H430 0.950 . S
C438 C436 1.391 . S
C438 C439 1.400 . S
C439 C438 1.400 . S
C439 C440 1.398 . S
C439 C445 1.491 . S
C440 H431 0.950 . S
C440 C439 1.398 . S
C440 C441 1.391 . S
C441 H429 0.950 . S
C441 C437 1.393 . S
C441 C440 1.391 . S
C442 H432 0.950 . S
C442 C443 1.386 . S
C442 C444 1.391 . S
C443 C442 1.386 . S
C443 C447 1.393 . S
C444 H433 0.950 . S
C444 C442 1.391 . S
C444 C445 1.400 . S
C445 C439 1.491 . S
C445 C444 1.400 . S
C445 C446 1.398 . S
C446 H434 0.950 . S
C446 C445 1.398 . S
C446 C447 1.391 . S
C447 H435 0.950 . S
C447 C443 1.393 . S
C447 C446 1.391 . S
H448 C456 0.950 . S
H449 C461 0.950 . S
H450 C458 0.950 . S
H451 C460 0.950 . S
H452 C462 0.950 . S
H453 C464 0.950 . S
H454 C466 0.950 . S
H455 C467 0.950 1_556 S
C456 H448 0.950 . S
C456 C457 1.386 . S
C456 C458 1.391 . S
C457 C456 1.386 . S
C457 C461 1.393 . S
C458 H450 0.950 . S
C458 C456 1.391 . S
C458 C459 1.400 . S
C459 C458 1.400 . S
C459 C460 1.398 . S
C459 C465 1.491 . S
C460 H451 0.950 . S
C460 C459 1.398 . S
C460 C461 1.391 . S
C461 H449 0.950 . S
C461 C457 1.393 . S
C461 C460 1.391 . S
C462 H452 0.950 . S
C462 C463 1.386 . S
C462 C464 1.391 . S
C463 C462 1.386 . S
C463 C467 1.393 . S
C464 H453 0.950 . S
C464 C462 1.391 . S
C464 C465 1.400 . S
C465 C459 1.491 . S
C465 C464 1.400 . S
C465 C466 1.398 . S
C466 H454 0.950 . S
C466 C465 1.398 . S
C466 C467 1.391 . S
C467 H455 0.950 1_554 S
C467 C463 1.393 . S
C467 C466 1.391 . S
H468 C476 0.950 . S
H469 C481 0.950 . S
H470 C478 0.950 . S
H471 C480 0.950 . S
H472 C482 0.950 . S
H473 C484 0.950 . S
H474 C486 0.950 . S
H475 C487 0.950 . S
C476 H468 0.950 . S
C476 C477 1.386 . S
C476 C478 1.391 . S
C477 C476 1.386 . S
C477 C481 1.393 . S
C478 H470 0.950 . S
C478 C476 1.391 . S
C478 C479 1.400 . S
C479 C478 1.400 . S
C479 C480 1.398 . S
C479 C485 1.491 . S
C480 H471 0.950 . S
C480 C479 1.398 . S
C480 C481 1.391 . S
C481 H469 0.950 . S
C481 C477 1.393 . S
C481 C480 1.391 . S
C482 H472 0.950 . S
C482 C483 1.386 . S
C482 C484 1.391 . S
C483 C482 1.386 . S
C483 C487 1.393 . S
C484 H473 0.950 . S
C484 C482 1.391 . S
C484 C485 1.400 . S
C485 C479 1.491 . S
C485 C484 1.400 . S
C485 C486 1.398 . S
C486 H474 0.950 . S
C486 C485 1.398 . S
C486 C487 1.391 . S
C487 H475 0.950 . S
C487 C483 1.393 . S
C487 C486 1.391 . S
H488 C496 0.950 . S
H489 C501 0.950 . S
H490 C498 0.950 . S
H491 C500 0.950 . S
H492 C502 0.950 . S
H493 C504 0.950 . S
H494 C506 0.950 . S
H495 C507 0.950 . S
C496 H488 0.950 . S
C496 C497 1.386 . S
C496 C498 1.391 . S
C497 C496 1.386 . S
C497 C501 1.393 . S
C498 H490 0.950 . S
C498 C496 1.391 . S
C498 C499 1.400 . S
C499 C498 1.400 . S
C499 C500 1.398 . S
C499 C505 1.491 . S
C500 H491 0.950 . S
C500 C499 1.398 . S
C500 C501 1.391 . S
C501 H489 0.950 . S
C501 C497 1.393 . S
C501 C500 1.391 . S
C502 H492 0.950 . S
C502 C503 1.386 . S
C502 C504 1.391 . S
C503 C502 1.386 . S
C503 C507 1.393 . S
C504 H493 0.950 . S
C504 C502 1.391 . S
C504 C505 1.400 . S
C505 C499 1.491 . S
C505 C504 1.400 . S
C505 C506 1.398 . S
C506 H494 0.950 . S
C506 C505 1.398 . S
C506 C507 1.391 . S
C507 H495 0.950 . S
C507 C503 1.393 . S
C507 C506 1.391 . S
H508 C516 0.950 . S
H509 C521 0.950 . S
H510 C518 0.950 . S
H511 C520 0.950 . S
H512 C522 0.950 . S
H513 C524 0.950 . S
H514 C526 0.950 . S
H515 C527 0.950 . S
C516 H508 0.950 . S
C516 C517 1.386 . S
C516 C518 1.391 . S
C517 C516 1.386 . S
C517 C521 1.393 . S
C518 H510 0.950 . S
C518 C516 1.391 . S
C518 C519 1.400 . S
C519 C518 1.400 . S
C519 C520 1.398 . S
C519 C525 1.491 . S
C520 H511 0.950 . S
C520 C519 1.398 . S
C520 C521 1.391 . S
C521 H509 0.950 . S
C521 C517 1.393 . S
C521 C520 1.391 . S
C522 H512 0.950 . S
C522 C523 1.386 . S
C522 C524 1.391 . S
C523 C522 1.386 . S
C523 C527 1.393 . S
C524 H513 0.950 . S
C524 C522 1.391 . S
C524 C525 1.400 . S
C525 C519 1.491 . S
C525 C524 1.400 . S
C525 C526 1.398 . S
C526 H514 0.950 . S
C526 C525 1.398 . S
C526 C527 1.391 . S
C527 H515 0.950 . S
C527 C523 1.393 . S
C527 C526 1.391 . S
H528 C536 0.950 . S
H529 C541 0.950 . S
H530 C538 0.950 . S
H531 C540 0.950 . S
H532 C542 0.950 . S
H533 C544 0.950 . S
H534 C546 0.950 . S
H535 C547 0.950 . S
C536 H528 0.950 . S
C536 C537 1.386 . S
C536 C538 1.391 . S
C537 C536 1.386 . S
C537 C541 1.393 . S
C538 H530 0.950 . S
C538 C536 1.391 . S
C538 C539 1.400 . S
C539 C538 1.400 . S
C539 C540 1.398 . S
C539 C545 1.491 . S
C540 H531 0.950 . S
C540 C539 1.398 . S
C540 C541 1.391 . S
C541 H529 0.950 . S
C541 C537 1.393 . S
C541 C540 1.391 . S
C542 H532 0.950 . S
C542 C543 1.386 . S
C542 C544 1.391 . S
C543 C542 1.386 . S
C543 C547 1.393 . S
C544 H533 0.950 . S
C544 C542 1.391 . S
C544 C545 1.400 . S
C545 C539 1.491 . S
C545 C544 1.400 . S
C545 C546 1.398 . S
C546 H534 0.950 . S
C546 C545 1.398 . S
C546 C547 1.391 . S
C547 H535 0.950 . S
C547 C543 1.393 . S
C547 C546 1.391 . S
H548 C556 0.950 . S
H549 C561 0.950 . S
H550 C558 0.950 . S
H551 C560 0.950 . S
H552 C562 0.950 . S
H553 C564 0.950 . S
H554 C566 0.950 . S
H555 C567 0.950 . S
C556 H548 0.950 . S
C556 C557 1.386 . S
C556 C558 1.391 . S
C557 C556 1.386 . S
C557 C561 1.393 . S
C558 H550 0.950 . S
C558 C556 1.391 . S
C558 C559 1.400 . S
C559 C558 1.400 . S
C559 C560 1.398 . S
C559 C565 1.491 . S
C560 H551 0.950 . S
C560 C559 1.398 . S
C560 C561 1.391 . S
C561 H549 0.950 . S
C561 C557 1.393 . S
C561 C560 1.391 . S
C562 H552 0.950 . S
C562 C563 1.386 . S
C562 C564 1.391 . S
C563 C562 1.386 . S
C563 C567 1.393 . S
C564 H553 0.950 . S
C564 C562 1.391 . S
C564 C565 1.400 . S
C565 C559 1.491 . S
C565 C564 1.400 . S
C565 C566 1.398 . S
C566 H554 0.950 . S
C566 C565 1.398 . S
C566 C567 1.391 . S
C567 H555 0.950 . S
C567 C563 1.393 . S
C567 C566 1.391 . S
H568 C576 0.950 . S
H569 C581 0.950 . S
H570 C578 0.950 . S
H571 C580 0.950 . S
H572 C582 0.950 1_556 S
H573 C584 0.950 . S
H574 C586 0.950 . S
H575 C587 0.950 . S
C576 H568 0.950 . S
C576 C577 1.386 . S
C576 C578 1.391 . S
C577 C576 1.386 . S
C577 C581 1.393 . S
C578 H570 0.950 . S
C578 C576 1.391 . S
C578 C579 1.400 . S
C579 C578 1.400 . S
C579 C580 1.398 . S
C579 C585 1.491 . S
C580 H571 0.950 . S
C580 C579 1.398 . S
C580 C581 1.391 . S
C581 H569 0.950 . S
C581 C577 1.393 . S
C581 C580 1.391 . S
C582 H572 0.950 1_554 S
C582 C583 1.386 . S
C582 C584 1.391 . S
C583 C582 1.386 . S
C583 C587 1.393 . S
C584 H573 0.950 . S
C584 C582 1.391 . S
C584 C585 1.400 . S
C585 C579 1.491 . S
C585 C584 1.400 . S
C585 C586 1.398 . S
C586 H574 0.950 . S
C586 C585 1.398 . S
C586 C587 1.391 . S
C587 H575 0.950 . S
C587 C583 1.393 . S
C587 C586 1.391 . S
H588 C596 0.950 . S
H589 C601 0.950 . S
H590 C598 0.950 . S
H591 C600 0.950 . S
H592 C602 0.950 . S
H593 C604 0.950 . S
H594 C606 0.950 . S
H595 C607 0.950 . S
C596 H588 0.950 . S
C596 C597 1.386 . S
C596 C598 1.391 . S
C597 C596 1.386 . S
C597 C601 1.393 . S
C598 H590 0.950 . S
C598 C596 1.391 . S
C598 C599 1.400 . S
C599 C598 1.400 . S
C599 C600 1.398 . S
C599 C605 1.491 . S
C600 H591 0.950 . S
C600 C599 1.398 . S
C600 C601 1.391 . S
C601 H589 0.950 . S
C601 C597 1.393 . S
C601 C600 1.391 . S
C602 H592 0.950 . S
C602 C603 1.386 . S
C602 C604 1.391 . S
C603 C602 1.386 . S
C603 C607 1.393 . S
C604 H593 0.950 . S
C604 C602 1.391 . S
C604 C605 1.400 . S
C605 C599 1.491 . S
C605 C604 1.400 . S
C605 C606 1.398 . S
C606 H594 0.950 . S
C606 C605 1.398 . S
C606 C607 1.391 . S
C607 H595 0.950 . S
C607 C603 1.393 . S
C607 C606 1.391 . S
H608 C616 0.950 . S
H609 C621 0.950 . S
H610 C618 0.950 . S
H611 C620 0.950 . S
H612 C622 0.950 . S
H613 C624 0.950 . S
H614 C626 0.950 . S
H615 C627 0.950 1_554 S
C616 H608 0.950 . S
C616 C617 1.386 . S
C616 C618 1.391 . S
C617 C616 1.386 . S
C617 C621 1.393 . S
C618 H610 0.950 . S
C618 C616 1.391 . S
C618 C619 1.400 . S
C619 C618 1.400 . S
C619 C620 1.398 . S
C619 C625 1.491 . S
C620 H611 0.950 . S
C620 C619 1.398 . S
C620 C621 1.391 . S
C621 H609 0.950 . S
C621 C617 1.393 . S
C621 C620 1.391 . S
C622 H612 0.950 . S
C622 C623 1.386 . S
C622 C624 1.391 . S
C623 C622 1.386 . S
C623 C627 1.393 . S
C624 H613 0.950 . S
C624 C622 1.391 . S
C624 C625 1.400 . S
C625 C619 1.491 . S
C625 C624 1.400 . S
C625 C626 1.398 . S
C626 H614 0.950 . S
C626 C625 1.398 . S
C626 C627 1.391 . S
C627 H615 0.950 1_556 S
C627 C623 1.393 . S
C627 C626 1.391 . S
H628 C636 0.950 . S
H629 C641 0.950 . S
H630 C638 0.950 . S
H631 C640 0.950 . S
H632 C642 0.950 . S
H633 C644 0.950 . S
H634 C646 0.950 . S
H635 C647 0.950 . S
C636 H628 0.950 . S
C636 C637 1.386 . S
C636 C638 1.391 . S
C637 C636 1.386 . S
C637 C641 1.393 . S
C638 H630 0.950 . S
C638 C636 1.391 . S
C638 C639 1.400 . S
C639 C638 1.400 . S
C639 C640 1.398 . S
C639 C645 1.491 . S
C640 H631 0.950 . S
C640 C639 1.398 . S
C640 C641 1.391 . S
C641 H629 0.950 . S
C641 C637 1.393 . S
C641 C640 1.391 . S
C642 H632 0.950 . S
C642 C643 1.386 . S
C642 C644 1.391 . S
C643 C642 1.386 . S
C643 C647 1.393 . S
C644 H633 0.950 . S
C644 C642 1.391 . S
C644 C645 1.400 . S
C645 C639 1.491 . S
C645 C644 1.400 . S
C645 C646 1.398 . S
C646 H634 0.950 . S
C646 C645 1.398 . S
C646 C647 1.391 . S
C647 H635 0.950 . S
C647 C643 1.393 . S
C647 C646 1.391 . S
H648 C656 0.950 . S
H649 C661 0.950 . S
H650 C658 0.950 . S
H651 C660 0.950 . S
H652 C662 0.950 . S
H653 C664 0.950 . S
H654 C666 0.950 . S
H655 C667 0.950 . S
C656 H648 0.950 . S
C656 C657 1.386 . S
C656 C658 1.391 . S
C657 C656 1.386 . S
C657 C661 1.393 . S
C658 H650 0.950 . S
C658 C656 1.391 . S
C658 C659 1.400 . S
C659 C658 1.400 . S
C659 C660 1.398 . S
C659 C665 1.491 . S
C660 H651 0.950 . S
C660 C659 1.398 . S
C660 C661 1.391 . S
C661 H649 0.950 . S
C661 C657 1.393 . S
C661 C660 1.391 . S
C662 H652 0.950 . S
C662 C663 1.386 . S
C662 C664 1.391 . S
C663 C662 1.386 . S
C663 C667 1.393 . S
C664 H653 0.950 . S
C664 C662 1.391 . S
C664 C665 1.400 . S
C665 C659 1.491 . S
C665 C664 1.400 . S
C665 C666 1.398 . S
C666 H654 0.950 . S
C666 C665 1.398 . S
C666 C667 1.391 . S
C667 H655 0.950 . S
C667 C663 1.393 . S
C667 C666 1.391 . S
H668 C676 0.950 . S
H669 C681 0.950 . S
H670 C678 0.950 . S
H671 C680 0.950 . S
H672 C682 0.950 . S
H673 C684 0.950 . S
H674 C686 0.950 . S
H675 C687 0.950 . S
C676 H668 0.950 . S
C676 C677 1.386 . S
C676 C678 1.391 . S
C677 C676 1.386 . S
C677 C681 1.393 . S
C678 H670 0.950 . S
C678 C676 1.391 . S
C678 C679 1.400 . S
C679 C678 1.400 . S
C679 C680 1.398 . S
C679 C685 1.491 . S
C680 H671 0.950 . S
C680 C679 1.398 . S
C680 C681 1.391 . S
C681 H669 0.950 . S
C681 C677 1.393 . S
C681 C680 1.391 . S
C682 H672 0.950 . S
C682 C683 1.386 . S
C682 C684 1.391 . S
C683 C682 1.386 . S
C683 C687 1.393 . S
C684 H673 0.950 . S
C684 C682 1.391 . S
C684 C685 1.400 . S
C685 C679 1.491 . S
C685 C684 1.400 . S
C685 C686 1.398 . S
C686 H674 0.950 . S
C686 C685 1.398 . S
C686 C687 1.391 . S
C687 H675 0.950 . S
C687 C683 1.393 . S
C687 C686 1.391 . S
H688 C696 0.950 . S
H689 C701 0.950 . S
H690 C698 0.950 . S
H691 C700 0.950 . S
H692 C702 0.950 . S
H693 C704 0.950 . S
H694 C706 0.950 . S
H695 C707 0.950 . S
C696 H688 0.950 . S
C696 C697 1.386 . S
C696 C698 1.391 . S
C697 C696 1.386 . S
C697 C701 1.393 . S
C698 H690 0.950 . S
C698 C696 1.391 . S
C698 C699 1.400 . S
C699 C698 1.400 . S
C699 C700 1.398 . S
C699 C705 1.491 . S
C700 H691 0.950 . S
C700 C699 1.398 . S
C700 C701 1.391 . S
C701 H689 0.950 . S
C701 C697 1.393 . S
C701 C700 1.391 . S
C702 H692 0.950 . S
C702 C703 1.386 . S
C702 C704 1.391 . S
C703 C702 1.386 . S
C703 C707 1.393 . S
C704 H693 0.950 . S
C704 C702 1.391 . S
C704 C705 1.400 . S
C705 C699 1.491 . S
C705 C704 1.400 . S
C705 C706 1.398 . S
C706 H694 0.950 . S
C706 C705 1.398 . S
C706 C707 1.391 . S
C707 H695 0.950 . S
C707 C703 1.393 . S
C707 C706 1.391 . S
H708 C716 0.950 . S
H709 C721 0.950 . S
H710 C718 0.950 . S
H711 C720 0.950 . S
H712 C722 0.950 . S
H713 C724 0.950 . S
H714 C726 0.950 . S
H715 C727 0.950 . S
C716 H708 0.950 . S
C716 C717 1.386 . S
C716 C718 1.391 . S
C717 C716 1.386 . S
C717 C721 1.393 . S
C718 H710 0.950 . S
C718 C716 1.391 . S
C718 C719 1.400 . S
C719 C718 1.400 . S
C719 C720 1.398 . S
C719 C725 1.491 . S
C720 H711 0.950 . S
C720 C719 1.398 . S
C720 C721 1.391 . S
C721 H709 0.950 . S
C721 C717 1.393 . S
C721 C720 1.391 . S
C722 H712 0.950 . S
C722 C723 1.386 . S
C722 C724 1.391 . S
C723 C722 1.386 . S
C723 C727 1.393 . S
C724 H713 0.950 . S
C724 C722 1.391 . S
C724 C725 1.400 . S
C725 C719 1.491 . S
C725 C724 1.400 . S
C725 C726 1.398 . S
C726 H714 0.950 . S
C726 C725 1.398 . S
C726 C727 1.391 . S
C727 H715 0.950 . S
C727 C723 1.393 . S
C727 C726 1.391 . S
H728 C736 0.950 . S
H729 C741 0.950 . S
H730 C738 0.950 . S
H731 C740 0.950 . S
H732 C742 0.950 . S
H733 C744 0.950 . S
H734 C746 0.950 . S
H735 C747 0.950 . S
C736 H728 0.950 . S
C736 C737 1.386 . S
C736 C738 1.391 . S
C737 C736 1.386 . S
C737 C741 1.393 . S
C738 H730 0.950 . S
C738 C736 1.391 . S
C738 C739 1.400 . S
C739 C738 1.400 . S
C739 C740 1.398 . S
C739 C745 1.491 . S
C740 H731 0.950 . S
C740 C739 1.398 . S
C740 C741 1.391 . S
C741 H729 0.950 . S
C741 C737 1.393 . S
C741 C740 1.391 . S
C742 H732 0.950 . S
C742 C743 1.386 . S
C742 C744 1.391 . S
C743 C742 1.386 . S
C743 C747 1.393 . S
C744 H733 0.950 . S
C744 C742 1.391 . S
C744 C745 1.400 . S
C745 C739 1.491 . S
C745 C744 1.400 . S
C745 C746 1.398 . S
C746 H734 0.950 . S
C746 C745 1.398 . S
C746 C747 1.391 . S
C747 H735 0.950 . S
C747 C743 1.393 . S
C747 C746 1.391 . S
H748 C756 0.950 . S
H749 C761 0.950 . S
H750 C758 0.950 . S
H751 C760 0.950 . S
H752 C762 0.950 . S
H753 C764 0.950 . S
H754 C766 0.950 . S
H755 C767 0.950 . S
C756 H748 0.950 . S
C756 C757 1.386 . S
C756 C758 1.391 . S
C757 C756 1.386 . S
C757 C761 1.393 . S
C758 H750 0.950 . S
C758 C756 1.391 . S
C758 C759 1.400 . S
C759 C758 1.400 . S
C759 C760 1.398 . S
C759 C765 1.491 . S
C760 H751 0.950 . S
C760 C759 1.398 . S
C760 C761 1.391 . S
C761 H749 0.950 . S
C761 C757 1.393 . S
C761 C760 1.391 . S
C762 H752 0.950 . S
C762 C763 1.386 . S
C762 C764 1.391 . S
C763 C762 1.386 . S
C763 C767 1.393 . S
C764 H753 0.950 . S
C764 C762 1.391 . S
C764 C765 1.400 . S
C765 C759 1.491 . S
C765 C764 1.400 . S
C765 C766 1.398 . S
C766 H754 0.950 . S
C766 C765 1.398 . S
C766 C767 1.391 . S
C767 H755 0.950 . S
C767 C763 1.393 . S
C767 C766 1.391 . S
H768 C776 0.950 . S
H769 C781 0.950 . S
H770 C778 0.950 . S
H771 C780 0.950 . S
H772 C782 0.950 . S
H773 C784 0.950 . S
H774 C786 0.950 . S
H775 C787 0.950 . S
C776 H768 0.950 . S
C776 C777 1.386 . S
C776 C778 1.391 . S
C777 C776 1.386 . S
C777 C781 1.393 . S
C778 H770 0.950 . S
C778 C776 1.391 . S
C778 C779 1.400 . S
C779 C778 1.400 . S
C779 C780 1.398 . S
C779 C785 1.491 . S
C780 H771 0.950 . S
C780 C779 1.398 . S
C780 C781 1.391 . S
C781 H769 0.950 . S
C781 C777 1.393 . S
C781 C780 1.391 . S
C782 H772 0.950 . S
C782 C783 1.386 . S
C782 C784 1.391 . S
C783 C782 1.386 . S
C783 C787 1.393 . S
C784 H773 0.950 . S
C784 C782 1.391 . S
C784 C785 1.400 . S
C785 C779 1.491 . S
C785 C784 1.400 . S
C785 C786 1.398 . S
C786 H774 0.950 . S
C786 C785 1.398 . S
C786 C787 1.391 . S
C787 H775 0.950 . S
C787 C783 1.393 . S
C787 C786 1.391 . S
H788 C796 0.950 . S
H789 C801 0.950 . S
H790 C798 0.950 . S
H791 C800 0.950 . S
H792 C802 0.950 . S
H793 C804 0.950 . S
H794 C806 0.950 . S
H795 C807 0.950 . S
C796 H788 0.950 . S
C796 C797 1.386 . S
C796 C798 1.391 . S
C797 C796 1.386 . S
C797 C801 1.393 . S
C798 H790 0.950 . S
C798 C796 1.391 . S
C798 C799 1.400 . S
C799 C798 1.400 . S
C799 C800 1.398 . S
C799 C805 1.491 . S
C800 H791 0.950 . S
C800 C799 1.398 . S
C800 C801 1.391 . S
C801 H789 0.950 . S
C801 C797 1.393 . S
C801 C800 1.391 . S
C802 H792 0.950 . S
C802 C803 1.386 . S
C802 C804 1.391 . S
C803 C802 1.386 . S
C803 C807 1.393 . S
C804 H793 0.950 . S
C804 C802 1.391 . S
C804 C805 1.400 . S
C805 C799 1.491 . S
C805 C804 1.400 . S
C805 C806 1.398 . S
C806 H794 0.950 . S
C806 C805 1.398 . S
C806 C807 1.391 . S
C807 H795 0.950 . S
C807 C803 1.393 . S
C807 C806 1.391 . S
H808 C816 0.950 . S
H809 C821 0.950 . S
H810 C818 0.950 . S
H811 C820 0.950 . S
H812 C822 0.950 . S
H813 C824 0.950 . S
H814 C826 0.950 . S
H815 C827 0.950 . S
C816 H808 0.950 . S
C816 C817 1.386 . S
C816 C818 1.391 . S
C817 C816 1.386 . S
C817 C821 1.393 . S
C818 H810 0.950 . S
C818 C816 1.391 . S
C818 C819 1.400 . S
C819 C818 1.400 . S
C819 C820 1.398 . S
C819 C825 1.491 . S
C820 H811 0.950 . S
C820 C819 1.398 . S
C820 C821 1.391 . S
C821 H809 0.950 . S
C821 C817 1.393 . S
C821 C820 1.391 . S
C822 H812 0.950 . S
C822 C823 1.386 . S
C822 C824 1.391 . S
C823 C822 1.386 . S
C823 C827 1.393 . S
C824 H813 0.950 . S
C824 C822 1.391 . S
C824 C825 1.400 . S
C825 C819 1.491 . S
C825 C824 1.400 . S
C825 C826 1.398 . S
C826 H814 0.950 . S
C826 C825 1.398 . S
C826 C827 1.391 . S
C827 H815 0.950 . S
C827 C823 1.393 . S
C827 C826 1.391 . S
H828 C836 0.950 . S
H829 C841 0.950 . S
H830 C838 0.950 . S
H831 C840 0.950 . S
H832 C842 0.950 . S
H833 C844 0.950 . S
H834 C846 0.950 . S
H835 C847 0.950 . S
C836 H828 0.950 . S
C836 C837 1.386 . S
C836 C838 1.391 . S
C837 C836 1.386 . S
C837 C841 1.393 . S
C838 H830 0.950 . S
C838 C836 1.391 . S
C838 C839 1.400 . S
C839 C838 1.400 . S
C839 C840 1.398 . S
C839 C845 1.491 . S
C840 H831 0.950 . S
C840 C839 1.398 . S
C840 C841 1.391 . S
C841 H829 0.950 . S
C841 C837 1.393 . S
C841 C840 1.391 . S
C842 H832 0.950 . S
C842 C843 1.386 . S
C842 C844 1.391 . S
C843 C842 1.386 . S
C843 C847 1.393 . S
C844 H833 0.950 . S
C844 C842 1.391 . S
C844 C845 1.400 . S
C845 C839 1.491 . S
C845 C844 1.400 . S
C845 C846 1.398 . S
C846 H834 0.950 . S
C846 C845 1.398 . S
C846 C847 1.391 . S
C847 H835 0.950 . S
C847 C843 1.393 . S
C847 C846 1.391 . S
C217 C4 1.058 . S
C223 C56 1.068 . S
C237 C69 1.053 . S
C243 C23 1.067 . S
C257 C36 1.060 . S
C263 C88 1.067 . S
C277 C49 1.069 . S
C283 C101 1.056 . S
C297 C108 1.058 . S
C303 C160 1.068 . S
C317 C173 1.058 . S
C323 C127 1.068 . S
C337 C140 1.053 . S
C343 C192 1.068 . S
C357 C147 1.066 . S
C363 C205 1.053 . S
C377 C10 1.589 1_556 S
C383 C198 1.594 . S
C397 C161 1.592 . S
C403 C17 1.594 . S
C417 C30 1.594 1_556 S
C423 C174 1.591 . S
C437 C185 1.596 . S
C443 C43 1.588 . S
C457 C120 1.596 . S
C463 C62 1.586 1_554 S
C477 C133 1.591 . S
C483 C75 1.594 . S
C497 C148 1.594 . S
C503 C82 1.591 1_554 S
C517 C109 1.593 . S
C523 C95 1.589 . S
C537 C114 1.590 1_554 S
C543 C94 1.595 . S
C557 C57 1.592 . S
C563 C121 1.594 . S
C577 C70 1.597 . S
C583 C134 1.585 1_554 S
C597 C153 1.589 . S
C603 C81 1.594 . S
C617 C16 1.591 . S
C623 C166 1.594 1_556 S
C637 C179 1.594 . S
C643 C29 1.591 . S
C657 C186 1.590 1_556 S
C663 C42 1.593 . S
C677 C199 1.593 . S
C683 C5 1.591 . S
C697 C96 1.205 . S
C703 C3 1.220 . S
C717 C18 1.221 . S
C723 C55 1.205 . S
C737 C31 1.219 . S
C743 C68 1.207 . S
C757 C44 1.209 . S
C763 C83 1.218 . S
C777 C200 1.217 . S
C783 C107 1.207 . S
C797 C159 1.202 . S
C803 C122 1.224 . S
C817 C172 1.216 . S
C823 C135 1.211 . S
C837 C187 1.203 . S
C843 C146 1.222 . S
