# Generated by pormake.
# Topology unr, (4)-cn, num edge types: 1
# Building blocks:
#     Node 0, Type 0, BuildingBlock: UXUYUI_clean_sbu_0, # of connection points: 4
#     Node 1, Type 0, BuildingBlock: UXUYUI_clean_sbu_0, # of connection points: 4
#     Node 2, Type 0, BuildingBlock: UXUYUI_clean_sbu_0, # of connection points: 4
#     Node 3, Type 0, BuildingBlock: UXUYUI_clean_sbu_0, # of connection points: 4
#     Node 4, Type 0, BuildingBlock: UXUYUI_clean_sbu_0, # of connection points: 4
#     Node 5, Type 0, BuildingBlock: UXUYUI_clean_sbu_0, # of connection points: 4
#     Node 6, Type 0, BuildingBlock: UXUYUI_clean_sbu_0, # of connection points: 4
#     Node 7, Type 0, BuildingBlock: UXUYUI_clean_sbu_0, # of connection points: 4
#     Node 8, Type 0, BuildingBlock: UXUYUI_clean_sbu_0, # of connection points: 4
#     Node 9, Type 0, BuildingBlock: UXUYUI_clean_sbu_0, # of connection points: 4
#     Node 10, Type 0, BuildingBlock: UXUYUI_clean_sbu_0, # of connection points: 4
#     Node 11, Type 0, BuildingBlock: UXUYUI_clean_sbu_0, # of connection points: 4
#     Node 12, Type 0, BuildingBlock: UXUYUI_clean_sbu_0, # of connection points: 4
#     Node 13, Type 0, BuildingBlock: UXUYUI_clean_sbu_0, # of connection points: 4
#     Node 14, Type 0, BuildingBlock: UXUYUI_clean_sbu_0, # of connection points: 4
#     Node 15, Type 0, BuildingBlock: UXUYUI_clean_sbu_0, # of connection points: 4
#     Node 16, Type 0, BuildingBlock: UXUYUI_clean_sbu_0, # of connection points: 4
#     Node 17, Type 0, BuildingBlock: UXUYUI_clean_sbu_0, # of connection points: 4
#     Node 18, Type 0, BuildingBlock: UXUYUI_clean_sbu_0, # of connection points: 4
#     Node 19, Type 0, BuildingBlock: UXUYUI_clean_sbu_0, # of connection points: 4
#     Node 20, Type 0, BuildingBlock: UXUYUI_clean_sbu_0, # of connection points: 4
#     Node 21, Type 0, BuildingBlock: UXUYUI_clean_sbu_0, # of connection points: 4
#     Node 22, Type 0, BuildingBlock: UXUYUI_clean_sbu_0, # of connection points: 4
#     Node 23, Type 0, BuildingBlock: UXUYUI_clean_sbu_0, # of connection points: 4
#     Node 24, Type 0, BuildingBlock: UXUYUI_clean_sbu_0, # of connection points: 4
#     Node 25, Type 0, BuildingBlock: UXUYUI_clean_sbu_0, # of connection points: 4
#     Node 26, Type 0, BuildingBlock: UXUYUI_clean_sbu_0, # of connection points: 4
#     Node 27, Type 0, BuildingBlock: UXUYUI_clean_sbu_0, # of connection points: 4
#     Node 28, Type 0, BuildingBlock: UXUYUI_clean_sbu_0, # of connection points: 4
#     Node 29, Type 0, BuildingBlock: UXUYUI_clean_sbu_0, # of connection points: 4
#     Node 30, Type 0, BuildingBlock: UXUYUI_clean_sbu_0, # of connection points: 4
#     Node 31, Type 0, BuildingBlock: UXUYUI_clean_sbu_0, # of connection points: 4
#     Node 32, Type 0, BuildingBlock: UXUYUI_clean_sbu_0, # of connection points: 4
#     Node 33, Type 0, BuildingBlock: UXUYUI_clean_sbu_0, # of connection points: 4
#     Node 34, Type 0, BuildingBlock: UXUYUI_clean_sbu_0, # of connection points: 4
#     Node 35, Type 0, BuildingBlock: UXUYUI_clean_sbu_0, # of connection points: 4
#     Edge 36, Type (0, 0), BuildingBlock: CIFDUS_clean_linker_0, # of connection points: 2
#     Edge 37, Type (0, 0), BuildingBlock: CIFDUS_clean_linker_0, # of connection points: 2
#     Edge 38, Type (0, 0), BuildingBlock: CIFDUS_clean_linker_0, # of connection points: 2
#     Edge 39, Type (0, 0), BuildingBlock: CIFDUS_clean_linker_0, # of connection points: 2
#     Edge 40, Type (0, 0), BuildingBlock: CIFDUS_clean_linker_0, # of connection points: 2
#     Edge 41, Type (0, 0), BuildingBlock: CIFDUS_clean_linker_0, # of connection points: 2
#     Edge 42, Type (0, 0), BuildingBlock: CIFDUS_clean_linker_0, # of connection points: 2
#     Edge 43, Type (0, 0), BuildingBlock: CIFDUS_clean_linker_0, # of connection points: 2
#     Edge 44, Type (0, 0), BuildingBlock: CIFDUS_clean_linker_0, # of connection points: 2
#     Edge 45, Type (0, 0), BuildingBlock: CIFDUS_clean_linker_0, # of connection points: 2
#     Edge 46, Type (0, 0), BuildingBlock: CIFDUS_clean_linker_0, # of connection points: 2
#     Edge 47, Type (0, 0), BuildingBlock: CIFDUS_clean_linker_0, # of connection points: 2
#     Edge 48, Type (0, 0), BuildingBlock: CIFDUS_clean_linker_0, # of connection points: 2
#     Edge 49, Type (0, 0), BuildingBlock: CIFDUS_clean_linker_0, # of connection points: 2
#     Edge 50, Type (0, 0), BuildingBlock: CIFDUS_clean_linker_0, # of connection points: 2
#     Edge 51, Type (0, 0), BuildingBlock: CIFDUS_clean_linker_0, # of connection points: 2
#     Edge 52, Type (0, 0), BuildingBlock: CIFDUS_clean_linker_0, # of connection points: 2
#     Edge 53, Type (0, 0), BuildingBlock: CIFDUS_clean_linker_0, # of connection points: 2
#     Edge 54, Type (0, 0), BuildingBlock: CIFDUS_clean_linker_0, # of connection points: 2
#     Edge 55, Type (0, 0), BuildingBlock: CIFDUS_clean_linker_0, # of connection points: 2
#     Edge 56, Type (0, 0), BuildingBlock: CIFDUS_clean_linker_0, # of connection points: 2
#     Edge 57, Type (0, 0), BuildingBlock: CIFDUS_clean_linker_0, # of connection points: 2
#     Edge 58, Type (0, 0), BuildingBlock: CIFDUS_clean_linker_0, # of connection points: 2
#     Edge 59, Type (0, 0), BuildingBlock: CIFDUS_clean_linker_0, # of connection points: 2
#     Edge 60, Type (0, 0), BuildingBlock: CIFDUS_clean_linker_0, # of connection points: 2
#     Edge 61, Type (0, 0), BuildingBlock: CIFDUS_clean_linker_0, # of connection points: 2
#     Edge 62, Type (0, 0), BuildingBlock: CIFDUS_clean_linker_0, # of connection points: 2
#     Edge 63, Type (0, 0), BuildingBlock: CIFDUS_clean_linker_0, # of connection points: 2
#     Edge 64, Type (0, 0), BuildingBlock: CIFDUS_clean_linker_0, # of connection points: 2
#     Edge 65, Type (0, 0), BuildingBlock: CIFDUS_clean_linker_0, # of connection points: 2
#     Edge 66, Type (0, 0), BuildingBlock: CIFDUS_clean_linker_0, # of connection points: 2
#     Edge 67, Type (0, 0), BuildingBlock: CIFDUS_clean_linker_0, # of connection points: 2
#     Edge 68, Type (0, 0), BuildingBlock: CIFDUS_clean_linker_0, # of connection points: 2
#     Edge 69, Type (0, 0), BuildingBlock: CIFDUS_clean_linker_0, # of connection points: 2
#     Edge 70, Type (0, 0), BuildingBlock: CIFDUS_clean_linker_0, # of connection points: 2
#     Edge 71, Type (0, 0), BuildingBlock: CIFDUS_clean_linker_0, # of connection points: 2
#     Edge 72, Type (0, 0), BuildingBlock: CIFDUS_clean_linker_0, # of connection points: 2
#     Edge 73, Type (0, 0), BuildingBlock: CIFDUS_clean_linker_0, # of connection points: 2
#     Edge 74, Type (0, 0), BuildingBlock: CIFDUS_clean_linker_0, # of connection points: 2
#     Edge 75, Type (0, 0), BuildingBlock: CIFDUS_clean_linker_0, # of connection points: 2
#     Edge 76, Type (0, 0), BuildingBlock: CIFDUS_clean_linker_0, # of connection points: 2
#     Edge 77, Type (0, 0), BuildingBlock: CIFDUS_clean_linker_0, # of connection points: 2
#     Edge 78, Type (0, 0), BuildingBlock: CIFDUS_clean_linker_0, # of connection points: 2
#     Edge 79, Type (0, 0), BuildingBlock: CIFDUS_clean_linker_0, # of connection points: 2
#     Edge 80, Type (0, 0), BuildingBlock: CIFDUS_clean_linker_0, # of connection points: 2
#     Edge 81, Type (0, 0), BuildingBlock: CIFDUS_clean_linker_0, # of connection points: 2
#     Edge 82, Type (0, 0), BuildingBlock: CIFDUS_clean_linker_0, # of connection points: 2
#     Edge 83, Type (0, 0), BuildingBlock: CIFDUS_clean_linker_0, # of connection points: 2
#     Edge 84, Type (0, 0), BuildingBlock: CIFDUS_clean_linker_0, # of connection points: 2
#     Edge 85, Type (0, 0), BuildingBlock: CIFDUS_clean_linker_0, # of connection points: 2
#     Edge 86, Type (0, 0), BuildingBlock: CIFDUS_clean_linker_0, # of connection points: 2
#     Edge 87, Type (0, 0), BuildingBlock: CIFDUS_clean_linker_0, # of connection points: 2
#     Edge 88, Type (0, 0), BuildingBlock: CIFDUS_clean_linker_0, # of connection points: 2
#     Edge 89, Type (0, 0), BuildingBlock: CIFDUS_clean_linker_0, # of connection points: 2
#     Edge 90, Type (0, 0), BuildingBlock: CIFDUS_clean_linker_0, # of connection points: 2
#     Edge 91, Type (0, 0), BuildingBlock: CIFDUS_clean_linker_0, # of connection points: 2
#     Edge 92, Type (0, 0), BuildingBlock: CIFDUS_clean_linker_0, # of connection points: 2
#     Edge 93, Type (0, 0), BuildingBlock: CIFDUS_clean_linker_0, # of connection points: 2
#     Edge 94, Type (0, 0), BuildingBlock: CIFDUS_clean_linker_0, # of connection points: 2
#     Edge 95, Type (0, 0), BuildingBlock: CIFDUS_clean_linker_0, # of connection points: 2
#     Edge 96, Type (0, 0), BuildingBlock: CIFDUS_clean_linker_0, # of connection points: 2
#     Edge 97, Type (0, 0), BuildingBlock: CIFDUS_clean_linker_0, # of connection points: 2
#     Edge 98, Type (0, 0), BuildingBlock: CIFDUS_clean_linker_0, # of connection points: 2
#     Edge 99, Type (0, 0), BuildingBlock: CIFDUS_clean_linker_0, # of connection points: 2
#     Edge 100, Type (0, 0), BuildingBlock: CIFDUS_clean_linker_0, # of connection points: 2
#     Edge 101, Type (0, 0), BuildingBlock: CIFDUS_clean_linker_0, # of connection points: 2
#     Edge 102, Type (0, 0), BuildingBlock: CIFDUS_clean_linker_0, # of connection points: 2
#     Edge 103, Type (0, 0), BuildingBlock: CIFDUS_clean_linker_0, # of connection points: 2
#     Edge 104, Type (0, 0), BuildingBlock: CIFDUS_clean_linker_0, # of connection points: 2
#     Edge 105, Type (0, 0), BuildingBlock: CIFDUS_clean_linker_0, # of connection points: 2
#     Edge 106, Type (0, 0), BuildingBlock: CIFDUS_clean_linker_0, # of connection points: 2
#     Edge 107, Type (0, 0), BuildingBlock: CIFDUS_clean_linker_0, # of connection points: 2
# Relax obj value: 0.530
# Max RMSD: 0.277
# Mean RMSD: 0.277
data_MOF--net-unr--node1-UXUYUI_clean_sbu_0--edge1-CIFDUS_clean_linker_0
_symmetry_space_group_name_H-M    P1
_symmetry_Int_Tables_number       1
_symmetry_cell_setting            triclinic
loop_
_symmetry_equiv_pos_as_xyz
'x, y, z'
_cell_length_a     60.278141
_cell_length_b     60.275016
_cell_length_c     167.70669
_cell_angle_alpha  90.009479
_cell_angle_beta   90.00227
_cell_angle_gamma 120.01195
loop_
_atom_site_label
_atom_site_type_symbol
_atom_site_fract_x
_atom_site_fract_y
_atom_site_fract_z
_atom_type_partial_charge
Li0 Li 0.16916 0.18727 0.18465 0.0
Li1 Li 0.18825 0.18135 0.19627 0.0
Li2 Li 0.20835 0.187 0.18273 0.0
Li3 Li 0.16822 0.14717 0.18605 0.0
C4 C 0.20217 0.23349 0.1878 0.0
N5 N 0.19672 0.2755 0.18472 0.0
C6 C 0.19404 0.24378 0.19383 0.0
C7 C 0.20767 0.24458 0.18022 0.0
C8 C 0.19137 0.26503 0.19215 0.0
C9 C 0.20475 0.26582 0.17878 0.0
C10 C 0.13469 0.14345 0.19815 0.0
C11 C 0.12443 0.11281 0.20876 0.0
N12 N 0.0995 0.10684 0.20839 0.0
C13 C 0.10898 0.13707 0.19789 0.0
C14 C 0.14249 0.13126 0.20363 0.0
C15 C 0.09148 0.11849 0.20311 0.0
C16 C 0.14072 0.20128 0.17402 0.0
N17 N 0.14702 0.19987 0.18171 0.0
C18 C 0.10833 0.1968 0.18642 0.0
C19 C 0.1323 0.19957 0.18788 0.0
C20 C 0.09948 0.19413 0.17854 0.0
C21 C 0.11669 0.19831 0.17228 0.0
H22 H 0.15287 0.20161 0.16922 0.0
H23 H 0.13781 0.19833 0.19393 0.0
C24 C 0.21307 0.18925 0.21154 0.0
N25 N 0.19297 0.18778 0.2074 0.0
C26 C 0.21375 0.19125 0.21985 0.0
C27 C 0.17357 0.19111 0.2194 0.0
C28 C 0.17388 0.18952 0.21113 0.0
C29 C 0.19344 0.1915 0.22386 0.0
H30 H 0.22825 0.1883 0.20844 0.0
H31 H 0.15841 0.18883 0.20767 0.0
C32 C 0.157 0.1568 0.17089 0.0
N33 N 0.11744 0.13275 0.16004 0.0
C34 C 0.13153 0.14465 0.17347 0.0
C35 C 0.16232 0.15666 0.16279 0.0
C36 C 0.11181 0.13263 0.16789 0.0
C37 C 0.14206 0.1444 0.15739 0.0
C38 C 0.21452 0.15139 0.19521 0.0
C39 C 0.24101 0.1663 0.19628 0.0
C40 C 0.20142 0.12652 0.19829 0.0
C41 C 0.2539 0.15618 0.2005 0.0
C42 C 0.21499 0.11709 0.20248 0.0
N43 N 0.24074 0.13199 0.20349 0.0
C44 C 0.26235 0.21288 0.17988 0.0
C45 C 0.23513 0.17827 0.17142 0.0
C46 C 0.28383 0.21224 0.17702 0.0
N47 N 0.23862 0.19539 0.17723 0.0
C48 C 0.25594 0.17708 0.16837 0.0
C49 C 0.28051 0.19338 0.17144 0.0
H50 H 0.26438 0.2258 0.18467 0.0
H51 H 0.21594 0.16424 0.16959 0.0
C52 C 0.12568 0.09629 0.18483 0.0
N53 N 0.15135 0.11156 0.18381 0.0
C54 C 0.11372 0.07049 0.18275 0.0
C55 C 0.15477 0.07649 0.17858 0.0
C56 C 0.16594 0.10228 0.18071 0.0
C57 C 0.12829 0.06029 0.17956 0.0
H58 H 0.11435 0.10413 0.18713 0.0
H59 H 0.18627 0.11502 0.17985 0.0
O60 O 0.20429 0.21234 0.18926 0.0
O61 O 0.15195 0.16148 0.19302 0.0
O62 O 0.17673 0.16875 0.17622 0.0
O63 O 0.20163 0.16086 0.19098 0.0
H64 H 0.18964 0.23531 0.19972 0.0
H65 H 0.21387 0.2367 0.17549 0.0
H66 H 0.18499 0.27315 0.19675 0.0
H67 H 0.20881 0.27455 0.17293 0.0
H68 H 0.13023 0.10327 0.21304 0.0
H69 H 0.10256 0.1462 0.19365 0.0
H70 H 0.16231 0.13616 0.20397 0.0
H71 H 0.07151 0.11329 0.20295 0.0
H72 H 0.09579 0.19359 0.19145 0.0
H73 H 0.11074 0.19678 0.16611 0.0
H74 H 0.2294 0.19158 0.22313 0.0
H75 H 0.15777 0.19161 0.2223 0.0
H76 H 0.12695 0.14475 0.17969 0.0
H77 H 0.18192 0.16598 0.16068 0.0
H78 H 0.09203 0.12328 0.16981 0.0
H79 H 0.14592 0.14417 0.1511 0.0
H80 H 0.25146 0.18561 0.19399 0.0
H81 H 0.18098 0.11451 0.19745 0.0
H82 H 0.27438 0.16758 0.20142 0.0
H83 H 0.20506 0.09789 0.20491 0.0
H84 H 0.30246 0.22503 0.17957 0.0
H85 H 0.25265 0.16257 0.16398 0.0
H86 H 0.09329 0.05858 0.1837 0.0
H87 H 0.16663 0.0694 0.17609 0.0
Li88 Li 0.83245 0.02317 0.19978 0.0
Li89 Li 0.83396 0.00036 0.18733 0.0
Li90 Li 0.8651 0.04552 0.18958 0.0
Li91 Li 0.82211 0.03336 0.1862 0.0
C92 C 0.88346 0.02169 0.19816 0.0
N93 N 0.93341 0.03541 0.20179 0.0
C94 C 0.89851 0.01799 0.19258 0.0
C95 C 0.89376 0.0323 0.2056 0.0
C96 C 0.92374 0.02509 0.19452 0.0
C97 C 0.91907 0.03911 0.20732 0.0
C98 C 0.78088 0.98184 0.18936 0.0
C99 C 0.75331 0.95968 0.17822 0.0
N100 N 0.73493 0.94338 0.18338 0.0
C101 C 0.76175 0.96492 0.19455 0.0
C102 C 0.77668 0.97923 0.18114 0.0
C103 C 0.73863 0.94558 0.1914 0.0
C104 C 0.81297 0.03161 0.21403 0.0
N105 N 0.82404 0.019 0.21068 0.0
C106 C 0.82399 -1e-05 0.22316 0.0
C107 C 0.82931 0.00318 0.21502 0.0
C108 C 0.81288 0.01303 0.22685 0.0
C109 C 0.80719 0.02889 0.22216 0.0
H110 H 0.80881 0.0439 0.21039 0.0
H111 H 0.83798 0.99329 0.21215 0.0
C112 C 0.8468 0.9685 0.17873 0.0
N113 N 0.83019 0.96859 0.18418 0.0
C114 C 0.84931 0.94684 0.17782 0.0
C115 C 0.81636 0.92529 0.1878 0.0
C116 C 0.8146 0.94742 0.18853 0.0
C117 C 0.83467 0.92519 0.18263 0.0
H118 H 0.85945 0.98586 0.17551 0.0
H119 H 0.80203 0.94828 0.19297 0.0
C120 C 0.8581 0.08205 0.19651 0.0
N121 N 0.88866 0.1337 0.19967 0.0
C122 C 0.86461 0.10001 0.19039 0.0
C123 C 0.86688 0.09036 0.20425 0.0
C124 C 0.88014 0.12603 0.19211 0.0
C125 C 0.88239 0.11656 0.20573 0.0
C126 C 0.8451 0.03324 0.17178 0.0
C127 C 0.85481 0.05833 0.16903 0.0
C128 C 0.83348 0.01284 0.1664 0.0
C129 C 0.85246 0.06256 0.16097 0.0
C130 C 0.83149 0.01787 0.15838 0.0
N131 N 0.84093 0.04241 0.15585 0.0
C132 C 0.90996 0.07573 0.18058 0.0
C133 C 0.91455 0.08617 0.19431 0.0
C134 C 0.93474 0.09565 0.17904 0.0
N135 N 0.90016 0.07169 0.18807 0.0
C136 C 0.9396 0.10604 0.19307 0.0
C137 C 0.94998 0.11123 0.18533 0.0
H138 H 0.89856 0.06351 0.17576 0.0
H139 H 0.90665 0.08227 0.20025 0.0
C140 C 0.80081 0.06409 0.18604 0.0
N141 N 0.80299 0.047 0.18129 0.0
C142 C 0.797 0.08301 0.18267 0.0
C143 C 0.7939 0.06407 0.16972 0.0
C144 C 0.79767 0.04537 0.17336 0.0
C145 C 0.79524 0.08413 0.17435 0.0
H146 H 0.80449 0.06458 0.19236 0.0
H147 H 0.79869 0.03114 0.16973 0.0
O148 O 0.85887 0.01529 0.19632 0.0
O149 O 0.80371 0.00064 0.19234 0.0
O150 O 0.84291 0.05647 0.19495 0.0
O151 O 0.84736 0.02866 0.17965 0.0
H152 H 0.89089 0.01002 0.18677 0.0
H153 H 0.88247 0.03557 0.20996 0.0
H154 H 0.93565 0.02246 0.19024 0.0
H155 H 0.92734 0.04745 0.21304 0.0
H156 H 0.7498 0.95743 0.17187 0.0
H157 H 0.76478 0.96666 0.20093 0.0
H158 H 0.79131 0.99213 0.17706 0.0
H159 H 0.72365 0.93231 0.19535 0.0
H160 H 0.82908 0.98789 0.22654 0.0
H161 H 0.79833 0.03904 0.22474 0.0
H162 H 0.86395 0.94782 0.17386 0.0
H163 H 0.80453 0.90895 0.19155 0.0
H164 H 0.85772 0.09392 0.18439 0.0
H165 H 0.86203 0.0767 0.20905 0.0
H166 H 0.88539 0.14013 0.18742 0.0
H167 H 0.88949 0.12327 0.21168 0.0
H168 H 0.86394 0.07437 0.17309 0.0
H169 H 0.82591 0.9933 0.1684 0.0
H170 H 0.85976 0.08187 0.15878 0.0
H171 H 0.82243 0.00225 0.15416 0.0
H172 H 0.94172 0.09886 0.17297 0.0
H173 H 0.95077 0.11695 0.19817 0.0
H174 H 0.79734 0.09771 0.18647 0.0
H175 H 0.79228 0.06408 0.16329 0.0
Li176 Li 0.00022 0.82854 0.18888 0.0
Li177 Li 0.98294 0.79828 0.1995 0.0
Li178 Li 0.96866 0.78496 0.1853 0.0
Li179 Li 0.95611 0.81235 0.19299 0.0
C180 C 0.0251 0.80125 0.18662 0.0
N181 N 0.06972 0.80904 0.17947 0.0
C182 C 0.04789 0.8118 0.19099 0.0
C183 C 0.02492 0.79444 0.17865 0.0
C184 C 0.07027 0.81565 0.18726 0.0
C185 C 0.0477 0.79861 0.17513 0.0
C186 C 0.99634 0.84333 0.20651 0.0
C187 C 0.98956 0.84559 0.22059 0.0
N188 N 0.0148 0.86323 0.22147 0.0
C189 C 0.02221 0.86155 0.20755 0.0
C190 C 0.97984 0.83536 0.21307 0.0
C191 C 0.03117 0.87137 0.21516 0.0
C192 C 0.02363 0.87964 0.18733 0.0
N193 N 0.02835 0.86048 0.18543 0.0
C194 C 0.06809 0.89049 0.17931 0.0
C195 C 0.04996 0.86531 0.18142 0.0
C196 C 0.06337 0.91045 0.18118 0.0
C197 C 0.04084 0.90476 0.18524 0.0
H198 H 0.00622 0.87528 0.19045 0.0
H199 H 0.05313 0.84984 0.17976 0.0
C200 C 0.97162 0.76744 0.21337 0.0
N201 N 0.99021 0.78814 0.20946 0.0
C202 C 0.97555 0.76242 0.22122 0.0
C203 C 0.01804 0.7995 0.22071 0.0
C204 C 0.01352 0.80332 0.21282 0.0
C205 C -0.00135 0.77922 0.22514 0.0
H206 H 0.95342 0.7553 0.21049 0.0
H207 H 0.02817 0.81934 0.20952 0.0
C208 C 0.97756 0.83447 0.17617 0.0
N209 N 0.99629 0.87246 0.1647 0.0
C210 C 0.97118 0.8538 0.1764 0.0
C211 C 0.99328 0.83434 0.17006 0.0
C212 C 0.98089 0.87286 0.17056 0.0
C213 C 0.00261 0.85375 0.16433 0.0
C214 C 0.92211 0.76557 0.19704 0.0
C215 C 0.90381 0.75218 0.19115 0.0
C216 C 0.91416 0.76824 0.20463 0.0
C217 C 0.87785 0.74179 0.19294 0.0
C218 C 0.88801 0.75759 0.20619 0.0
N219 N 0.87055 0.74471 0.20035 0.0
C220 C 0.94588 0.73369 0.18068 0.0
C221 C 0.94532 0.7621 0.17099 0.0
C222 C 0.92668 0.71264 0.1766 0.0
N223 N 0.95393 0.75778 0.17798 0.0
C224 C 0.92616 0.74166 0.16673 0.0
C225 C 0.91569 0.71671 0.16976 0.0
H226 H 0.95249 0.73099 0.1864 0.0
H227 H 0.95152 0.78148 0.16912 0.0
C228 C 0.93159 0.83816 0.1993 0.0
N229 N 0.92986 0.82089 0.19378 0.0
C230 C 0.91427 0.84713 0.19919 0.0
C231 C 0.89345 0.82 0.1878 0.0
C232 C 0.9112 0.81159 0.18813 0.0
C233 C 0.89515 0.83839 0.19329 0.0
H234 H 0.94707 0.84586 0.20357 0.0
H235 H 0.91073 0.79837 0.18368 0.0
O236 O 0.00291 0.79682 0.19021 0.0
O237 O 0.98725 0.83326 0.19911 0.0
O238 O 0.96887 0.81606 0.18197 0.0
O239 O 0.94766 0.77631 0.19537 0.0
H240 H 0.0483 0.81703 0.19718 0.0
H241 H 0.00737 0.78598 0.17521 0.0
H242 H 0.08807 0.82388 0.19055 0.0
H243 H 0.04788 0.79351 0.16896 0.0
H244 H 0.97703 0.83946 0.22573 0.0
H245 H 0.03536 0.86776 0.20257 0.0
H246 H 0.9598 0.82126 0.21239 0.0
H247 H 0.05117 0.88536 0.21606 0.0
H248 H 0.08533 0.89429 0.17615 0.0
H249 H 0.03669 0.91971 0.18688 0.0
H250 H 0.9603 0.74599 0.22423 0.0
H251 H 0.03609 0.81324 0.22339 0.0
H252 H 0.95918 0.8543 0.18111 0.0
H253 H 0.99848 0.81958 0.16981 0.0
H254 H 0.97626 0.88804 0.1707 0.0
H255 H 0.01495 0.85399 0.15961 0.0
H256 H 0.90954 0.75012 0.18521 0.0
H257 H 0.92802 0.7785 0.20927 0.0
H258 H 0.86351 0.7315 0.18841 0.0
H259 H 0.88161 0.7596 0.21203 0.0
H260 H 0.91891 0.69372 0.17917 0.0
H261 H 0.9183 0.7455 0.16144 0.0
H262 H 0.91667 0.86171 0.20344 0.0
H263 H 0.87897 0.81268 0.18317 0.0
Li264 Li 0.18537 0.21269 0.3117 0.0
Li265 Li 0.14387 0.17986 0.30706 0.0
Li266 Li 0.17718 0.17023 0.3097 0.0
Li267 Li 0.18107 0.19493 0.29802 0.0
C268 C 0.14848 0.18818 0.32323 0.0
N269 N 0.12509 0.2022 0.33478 0.0
C270 C 0.14095 0.20618 0.3215 0.0
C271 C 0.14397 0.17725 0.33082 0.0
C272 C 0.12921 0.21304 0.32742 0.0
C273 C 0.13213 0.18458 0.33658 0.0
C274 C 0.15278 0.21987 0.29654 0.0
C275 C 0.12797 0.2079 0.2844 0.0
N276 N 0.12765 0.23029 0.28461 0.0
C277 C 0.15217 0.24274 0.29664 0.0
C278 C 0.14052 0.20226 0.29038 0.0
C279 C 0.13936 0.24766 0.29056 0.0
C280 C 0.20213 0.26376 0.31374 0.0
N281 N 0.20005 0.24321 0.31773 0.0
C282 C 0.20018 0.26195 0.33025 0.0
C283 C 0.20077 0.24264 0.32582 0.0
C284 C 0.19903 0.28187 0.32626 0.0
C285 C 0.20166 0.28348 0.31792 0.0
H286 H 0.20144 0.26354 0.3073 0.0
H287 H 0.19889 0.2259 0.32882 0.0
C288 C 0.09563 0.14612 0.31319 0.0
N289 N 0.10766 0.167 0.30838 0.0
C290 C 0.07013 0.13642 0.31537 0.0
C291 C 0.06966 0.17024 0.3078 0.0
C292 C 0.09522 0.17919 0.30571 0.0
C293 C 0.05681 0.14865 0.31275 0.0
H294 H 0.10613 0.13748 0.31559 0.0
H295 H 0.10515 0.19639 0.3022 0.0
C296 C 0.22657 0.19772 0.30855 0.0
N297 N 0.26298 0.18572 0.3135 0.0
C298 C 0.23937 0.191 0.30295 0.0
C299 C 0.23238 0.19854 0.31664 0.0
C300 C 0.2577 0.18494 0.30558 0.0
C301 C 0.25082 0.19234 0.31903 0.0
C302 C 0.13507 0.13549 0.29871 0.0
C303 C 0.12507 0.11686 0.3047 0.0
C304 C 0.12554 0.12894 0.29095 0.0
C305 C 0.10566 0.09207 0.30283 0.0
C306 C 0.10607 0.10395 0.28932 0.0
N307 N 0.09662 0.08618 0.29524 0.0
C308 C 0.17443 0.13184 0.32011 0.0
C309 C 0.18841 0.13165 0.30689 0.0
C310 C 0.17004 0.10705 0.32137 0.0
N311 N 0.18238 0.14301 0.31284 0.0
C312 C 0.18468 0.10708 0.30793 0.0
C313 C 0.17411 0.09403 0.3151 0.0
H314 H 0.16922 0.14114 0.32465 0.0
H315 H 0.19385 0.14069 0.3011 0.0
C316 C 0.20132 0.22377 0.28371 0.0
N317 N 0.19225 0.20063 0.28733 0.0
C318 C 0.207 0.22634 0.27557 0.0
C319 C 0.19463 0.18147 0.27516 0.0
C320 C 0.18943 0.17984 0.2833 0.0
C321 C 0.20306 0.20481 0.27118 0.0
H322 H 0.20336 0.23996 0.2871 0.0
H323 H 0.18249 0.1618 0.28638 0.0
O324 O 0.16022 0.18118 0.31756 0.0
O325 O 0.1654 0.21489 0.30243 0.0
O326 O 0.20825 0.20326 0.30611 0.0
O327 O 0.15456 0.15979 0.30035 0.0
H328 H 0.14425 0.21496 0.31568 0.0
H329 H 0.14961 0.16327 0.33226 0.0
H330 H 0.12345 0.22704 0.32618 0.0
H331 H 0.12858 0.17629 0.34249 0.0
H332 H 0.11844 0.19444 0.27959 0.0
H333 H 0.16134 0.25652 0.30139 0.0
H334 H 0.14061 0.18442 0.29022 0.0
H335 H 0.13872 0.26528 0.29057 0.0
H336 H 0.19858 0.26026 0.33668 0.0
H337 H 0.20074 0.29839 0.31459 0.0
H338 H 0.06104 0.11957 0.31912 0.0
H339 H 0.06036 0.18059 0.30575 0.0
H340 H 0.23502 0.19027 0.29666 0.0
H341 H 0.22254 0.20367 0.32103 0.0
H342 H 0.26769 0.17958 0.30133 0.0
H343 H 0.25543 0.19275 0.32528 0.0
H344 H 0.13205 0.12146 0.31074 0.0
H345 H 0.13314 0.14296 0.2862 0.0
H346 H 0.09778 0.07752 0.30742 0.0
H347 H 0.09852 0.09867 0.28334 0.0
H348 H 0.16178 0.09748 0.32696 0.0
H349 H 0.18762 0.09752 0.30292 0.0
H350 H 0.21334 0.2446 0.27267 0.0
H351 H 0.19165 0.16455 0.27198 0.0
Li352 Li 0.81699 0.95882 0.31189 0.0
Li353 Li 0.78298 0.97035 0.31448 0.0
Li354 Li 0.80495 0.97861 0.30102 0.0
Li355 Li 0.8273 0.00364 0.31262 0.0
C356 C 0.77325 0.92021 0.3047 0.0
N357 N 0.75299 0.86891 0.30112 0.0
C358 C 0.75304 0.90152 0.30922 0.0
C359 C 0.78307 0.91281 0.29834 0.0
C360 C 0.74306 0.87569 0.30731 0.0
C361 C 0.77261 0.88678 0.29663 0.0
C362 C 0.82471 0.98838 0.32802 0.0
C363 C 0.83348 0.01918 0.33847 0.0
N364 N 0.85013 0.01289 0.34183 0.0
C365 C 0.84174 0.98205 0.33161 0.0
C366 C 0.82037 0.00693 0.3315 0.0
C367 C 0.85447 0.99472 0.33858 0.0
C368 C 0.85492 0.94655 0.3143 0.0
N369 N 0.82913 0.93633 0.31467 0.0
C370 C 0.82391 0.89714 0.31995 0.0
C371 C 0.81356 0.91225 0.3175 0.0
C372 C 0.85053 0.90734 0.31967 0.0
C373 C 0.86608 0.93233 0.31678 0.0
H374 H 0.86689 0.96598 0.31222 0.0
H375 H 0.79322 0.90493 0.31803 0.0
C376 C 0.72976 0.94589 0.31485 0.0
N377 N 0.751 0.95516 0.3195 0.0
C378 C 0.70715 0.92417 0.31726 0.0
C379 C 0.7283 0.92377 0.32948 0.0
C380 C 0.75036 0.94557 0.32687 0.0
C381 C 0.70687 0.91181 0.32441 0.0
H382 H 0.73122 0.9534 0.3089 0.0
H383 H 0.76785 0.95278 0.33028 0.0
C384 C 0.85619 0.99223 0.29894 0.0
N385 N 0.89078 0.00211 0.28676 0.0
C386 C 0.87383 0.0175 0.29683 0.0
C387 C 0.85636 0.97201 0.29492 0.0
C388 C 0.8911 0.02209 0.29064 0.0
C389 C 0.87394 0.97739 0.28876 0.0
C390 C 0.79528 0.02311 0.30809 0.0
C391 C 0.80351 0.04052 0.30176 0.0
C392 C 0.78552 0.02811 0.31498 0.0
C393 C 0.80241 0.06303 0.30252 0.0
C394 C 0.78477 0.05086 0.31552 0.0
N395 N 0.79318 0.06771 0.30933 0.0
C396 C 0.781 0.95975 0.28601 0.0
C397 C 0.81817 0.0009 0.28586 0.0
C398 C 0.77859 0.96044 0.27774 0.0
N399 N 0.80082 0.97964 0.28985 0.0
C400 C 0.81661 0.00236 0.27761 0.0
C401 C 0.7967 0.98189 0.27342 0.0
H402 H 0.76707 0.94334 0.28936 0.0
H403 H 0.83332 0.01673 0.28908 0.0
C404 C 0.87571 0.03174 0.31799 0.0
N405 N 0.85641 0.03551 0.3155 0.0
C406 C 0.90059 0.05219 0.3186 0.0
C407 C 0.88551 0.08051 0.31418 0.0
C408 C 0.86063 0.05941 0.31381 0.0
C409 C 0.90591 0.07682 0.31641 0.0
H410 H 0.87212 0.01248 0.31892 0.0
H411 H 0.84522 0.06202 0.3117 0.0
O412 O 0.78318 0.94562 0.30646 0.0
O413 O 0.81227 0.97635 0.32115 0.0
O414 O 0.83919 0.98737 0.30501 0.0
O415 O 0.79586 0.00082 0.30741 0.0
H416 H 0.74531 0.90684 0.31419 0.0
H417 H 0.79851 0.92702 0.29473 0.0
H418 H 0.72747 0.86103 0.31078 0.0
H419 H 0.78005 0.88079 0.29173 0.0
H420 H 0.83042 0.03369 0.3412 0.0
H421 H 0.84519 0.96761 0.32903 0.0
H422 H 0.80717 0.01194 0.32882 0.0
H423 H 0.8678 0.99012 0.34141 0.0
H424 H 0.81138 0.87801 0.32221 0.0
H425 H 0.88669 0.94076 0.31641 0.0
H426 H 0.69093 0.91582 0.31324 0.0
H427 H 0.7292 0.91488 0.33499 0.0
H428 H 0.87401 0.0334 0.29988 0.0
H429 H 0.84319 0.95237 0.29658 0.0
H430 H 0.90475 0.04154 0.28891 0.0
H431 H 0.87424 0.96191 0.28559 0.0
H432 H 0.81081 0.03677 0.29634 0.0
H433 H 0.77838 0.01446 0.31983 0.0
H434 H 0.80889 0.07678 0.2977 0.0
H435 H 0.77737 0.05505 0.32083 0.0
H436 H 0.76267 0.94443 0.27477 0.0
H437 H 0.83117 0.01917 0.27454 0.0
H438 H 0.91582 0.04838 0.32015 0.0
H439 H 0.88895 0.09925 0.31241 0.0
Li440 Li 0.03363 0.8554 0.30685 0.0
Li441 Li 0.02656 0.81384 0.31255 0.0
Li442 Li 0.01004 0.81574 0.29874 0.0
Li443 Li 0.99135 0.82177 0.31063 0.0
C444 C 0.07057 0.84658 0.29997 0.0
N445 N 0.12046 0.87501 0.29459 0.0
C446 C 0.09104 0.85363 0.30523 0.0
C447 C 0.0755 0.85373 0.29196 0.0
C448 C 0.11611 0.86807 0.3024 0.0
C449 C 0.10085 0.86817 0.28936 0.0
C450 C 0.01212 0.84552 0.3242 0.0
C451 C 0.98504 0.83044 0.33584 0.0
N452 N 0.9902 0.85476 0.33732 0.0
C453 C 0.01728 0.87038 0.32586 0.0
C454 C 0.99599 0.82539 0.32925 0.0
C455 C 0.00598 0.87465 0.33252 0.0
C456 C 0.04691 0.90705 0.30488 0.0
N457 N 0.05585 0.89149 0.30735 0.0
C458 C 0.09331 0.92725 0.31284 0.0
C459 C 0.07849 0.90101 0.31132 0.0
C460 C 0.08434 0.94367 0.31046 0.0
C461 C 0.06098 0.93333 0.30633 0.0
H462 H 0.02829 0.899 0.30212 0.0
H463 H 0.08444 0.88814 0.31366 0.0
C464 C 0.05992 0.79501 0.31445 0.0
N465 N 0.04502 0.80212 0.31853 0.0
C466 C 0.08141 0.79644 0.3181 0.0
C467 C 0.06988 0.80959 0.33031 0.0
C468 C 0.04884 0.80822 0.3264 0.0
C469 C 0.08734 0.80519 0.32602 0.0
H470 H 0.05681 0.79102 0.30813 0.0
H471 H 0.03703 0.81433 0.32944 0.0
C472 C 0.99781 0.85302 0.29418 0.0
N473 N 0.99028 0.87332 0.28036 0.0
C474 C 0.97374 0.84997 0.29249 0.0
C475 C 0.01809 0.86654 0.28888 0.0
C476 C 0.9703 0.86034 0.28546 0.0
C477 C 0.01389 0.87662 0.28192 0.0
C478 C 0.96995 0.7698 0.30968 0.0
C479 C 0.94912 0.76039 0.30445 0.0
C480 C 0.96744 0.75768 0.31699 0.0
C481 C 0.92592 0.73903 0.30669 0.0
C482 C 0.94392 0.73637 0.31901 0.0
N483 N 0.92382 0.72758 0.31386 0.0
C484 C 0.01953 0.79497 0.28479 0.0
C485 C 0.98265 0.79937 0.28439 0.0
C486 C 0.01531 0.78606 0.27693 0.0
N487 N 0.00353 0.80186 0.28828 0.0
C488 C 0.97802 0.79114 0.2765 0.0
C489 C 0.99456 0.78452 0.27259 0.0
H490 H 0.03573 0.79666 0.28809 0.0
H491 H 0.96976 0.80419 0.28738 0.0
C492 C 0.96494 0.8448 0.31425 0.0
N493 N 0.96124 0.8207 0.31469 0.0
C494 C 0.94582 0.84984 0.31654 0.0
C495 C 0.91877 0.80498 0.31972 0.0
C496 C 0.93884 0.80084 0.31747 0.0
C497 C 0.9223 0.82982 0.31925 0.0
H498 H 0.98289 0.86023 0.31202 0.0
H499 H 0.93631 0.78188 0.31789 0.0
O500 O 0.04587 0.83223 0.30262 0.0
O501 O 0.02248 0.84085 0.3176 0.0
O502 O 0.00137 0.84268 0.30099 0.0
O503 O 0.99296 0.79025 0.30752 0.0
H504 H 0.08764 0.84834 0.31146 0.0
H505 H 0.05996 0.84806 0.28777 0.0
H506 H 0.13211 0.87381 0.30642 0.0
H507 H 0.10492 0.87388 0.28317 0.0
H508 H 0.97236 0.81501 0.33976 0.0
H509 H 0.0297 0.88618 0.32201 0.0
H510 H 0.99166 0.80601 0.32801 0.0
H511 H 0.00968 0.89377 0.33385 0.0
H512 H 0.11096 0.93442 0.31619 0.0
H513 H 0.0534 0.94537 0.3044 0.0
H514 H 0.09441 0.79309 0.31454 0.0
H515 H 0.07346 0.81586 0.33647 0.0
H516 H 0.95782 0.8395 0.29652 0.0
H517 H 0.0369 0.8694 0.29018 0.0
H518 H 0.95175 0.85802 0.28405 0.0
H519 H 0.02942 0.88712 0.27776 0.0
H520 H 0.95085 0.7695 0.29875 0.0
H521 H 0.98352 0.76462 0.32105 0.0
H522 H 0.90959 0.73156 0.30272 0.0
H523 H 0.94165 0.72681 0.32466 0.0
H524 H 0.02827 0.78062 0.27428 0.0
H525 H 0.96198 0.79073 0.27346 0.0
H526 H 0.94915 0.86917 0.31594 0.0
H527 H 0.90079 0.78908 0.32177 0.0
Li528 Li 0.82687 0.8567 0.80952 0.0
Li529 Li 0.82586 0.81879 0.81411 0.0
Li530 Li 0.80536 0.81741 0.80165 0.0
Li531 Li 0.78772 0.82179 0.81493 0.0
C532 C 0.86839 0.85189 0.80503 0.0
N533 N 0.92103 0.87768 0.80701 0.0
C534 C 0.87948 0.86627 0.81193 0.0
C535 C 0.88418 0.85075 0.79913 0.0
C536 C 0.90608 0.87911 0.81282 0.0
C537 C 0.91072 0.86392 0.80023 0.0
C538 C 0.82089 0.84207 0.8285 0.0
C539 C 0.80427 0.81898 0.84081 0.0
N540 N 0.8222 0.83966 0.84493 0.0
C541 C 0.83898 0.86321 0.83285 0.0
C542 C 0.80324 0.81986 0.83251 0.0
C543 C 0.83941 0.86156 0.84115 0.0
C544 C 0.8372 0.90451 0.81473 0.0
N545 N 0.84454 0.893 0.80919 0.0
C546 C 0.87626 0.93357 0.80408 0.0
C547 C 0.86336 0.90684 0.80382 0.0
C548 C 0.86923 0.94594 0.8098 0.0
C549 C 0.84921 0.93114 0.8151 0.0
H550 H 0.82204 0.89292 0.81888 0.0
H551 H 0.86853 0.89715 0.7994 0.0
C552 C 0.85592 0.79624 0.81299 0.0
N553 N 0.84863 0.80824 0.81836 0.0
C554 C 0.87957 0.79755 0.81373 0.0
C555 C 0.88684 0.82162 0.82591 0.0
C556 C 0.86279 0.81939 0.82501 0.0
C557 C 0.89621 0.81211 0.81993 0.0
H558 H 0.84487 0.7883 0.80761 0.0
H559 H 0.85709 0.8293 0.82913 0.0
C560 C 0.79286 0.86032 0.80076 0.0
N561 N 0.79584 0.90215 0.79301 0.0
C562 C 0.78151 0.87346 0.8041 0.0
C563 C 0.80562 0.86835 0.79346 0.0
C564 C 0.78326 0.8946 0.80009 0.0
C565 C 0.80694 0.88956 0.78963 0.0
C566 C 0.79137 0.7698 0.81138 0.0
C567 C 0.79159 0.75648 0.80458 0.0
C568 C 0.79207 0.7603 0.81893 0.0
C569 C 0.79301 0.73417 0.80544 0.0
C570 C 0.79353 0.73795 0.81954 0.0
N571 N 0.79399 0.72547 0.81284 0.0
C572 C 0.81682 0.80496 0.78685 0.0
C573 C 0.77489 0.79902 0.78767 0.0
C574 C 0.81381 0.79952 0.77872 0.0
N575 N 0.79774 0.80519 0.79108 0.0
C576 C 0.77091 0.79311 0.77955 0.0
C577 C 0.79082 0.79401 0.77496 0.0
H578 H 0.83462 0.8097 0.78976 0.0
H579 H 0.76016 0.79958 0.7912 0.0
C580 C 0.76251 0.83874 0.82443 0.0
N581 N 0.75842 0.81782 0.8202 0.0
C582 C 0.74194 0.84083 0.82724 0.0
C583 C 0.71315 0.79928 0.82153 0.0
C584 C 0.73442 0.79801 0.8188 0.0
C585 C 0.71683 0.82124 0.82564 0.0
H586 H 0.78178 0.85457 0.8252 0.0
H587 H 0.7318 0.7819 0.81524 0.0
O588 O 0.84226 0.83843 0.80412 0.0
O589 O 0.82021 0.84352 0.82038 0.0
O590 O 0.79208 0.8401 0.8047 0.0
O591 O 0.79008 0.79176 0.81063 0.0
H592 H 0.86776 0.86741 0.81659 0.0
H593 H 0.8761 0.83973 0.79375 0.0
H594 H 0.91484 0.89016 0.81816 0.0
H595 H 0.92311 0.86309 0.79573 0.0
H596 H 0.79073 0.80189 0.84399 0.0
H597 H 0.85262 0.88064 0.82983 0.0
H598 H 0.78867 0.80366 0.82925 0.0
H599 H 0.8534 0.87771 0.84459 0.0
H600 H 0.89153 0.94447 0.79987 0.0
H601 H 0.84343 0.94008 0.81962 0.0
H602 H 0.88573 0.78939 0.80908 0.0
H603 H 0.89894 0.83314 0.83077 0.0
H604 H 0.77164 0.86754 0.80976 0.0
H605 H 0.81474 0.85853 0.79083 0.0
H606 H 0.77468 0.90504 0.80263 0.0
H607 H 0.81688 0.89609 0.784 0.0
H608 H 0.79069 0.76325 0.7987 0.0
H609 H 0.79178 0.77015 0.82427 0.0
H610 H 0.79333 0.72377 0.80023 0.0
H611 H 0.7943 0.73053 0.82534 0.0
H612 H 0.82949 0.8002 0.77536 0.0
H613 H 0.75301 0.7891 0.77681 0.0
H614 H 0.74574 0.85833 0.83022 0.0
H615 H 0.69409 0.78368 0.82021 0.0
Li616 Li 0.17085 0.97784 0.8003 0.0
Li617 Li 0.17294 0.96087 0.81416 0.0
Li618 Li 0.13187 0.95448 0.80901 0.0
Li619 Li 0.16549 0.9964 0.81227 0.0
C620 C 0.1364 0.91763 0.8021 0.0
N621 N 0.09859 0.86881 0.79792 0.0
C622 C 0.13229 0.89661 0.80672 0.0
C623 C 0.12126 0.91383 0.79536 0.0
C624 C 0.1131 0.87208 0.8045 0.0
C625 C 0.10224 0.889 0.79335 0.0
C626 C 0.2173 0.01324 0.81307 0.0
C627 C 0.24164 0.02935 0.82522 0.0
N628 N 0.259 0.05078 0.82127 0.0
C629 C 0.23556 0.03526 0.80911 0.0
C630 C 0.2205 0.01011 0.82116 0.0
C631 C 0.25644 0.05408 0.81337 0.0
C632 C 0.19798 0.01001 0.78772 0.0
N633 N 0.18382 0.98492 0.78978 0.0
C634 C 0.18517 0.97198 0.77641 0.0
C635 C 0.17785 0.96594 0.78438 0.0
C636 C 0.19895 0.9978 0.77402 0.0
C637 C 0.20591 0.01693 0.77985 0.0
H638 H 0.20237 0.02466 0.79215 0.0
H639 H 0.16676 0.94614 0.7862 0.0
C640 C 0.17425 0.93316 0.82716 0.0
N641 N 0.18474 0.94197 0.81987 0.0
C642 C 0.17449 0.91212 0.83047 0.0
C643 C 0.19781 0.91068 0.81893 0.0
C644 C 0.19726 0.93194 0.81585 0.0
C645 C 0.18517 0.8998 0.82615 0.0
H646 H 0.1637 0.94092 0.83009 0.0
H647 H 0.2046 0.93883 0.80993 0.0
C648 C 0.13442 0.00195 0.80161 0.0
N649 N 0.11694 0.03623 0.7999 0.0
C650 C 0.11588 0.00106 0.80681 0.0
C651 C 0.14385 0.02009 0.79548 0.0
C652 C 0.10738 0.01863 0.80588 0.0
C653 C 0.1348 0.03728 0.79472 0.0
C654 C 0.13828 0.97112 0.82649 0.0
C655 C 0.1128 0.96539 0.82709 0.0
C656 C 0.1545 0.98137 0.83309 0.0
C657 C 0.10407 0.97022 0.83424 0.0
C658 C 0.14503 0.98591 0.84013 0.0
N659 N 0.12023 0.98031 0.84055 0.0
C660 C 0.08802 0.91022 0.81431 0.0
C661 C 0.08001 0.93244 0.80408 0.0
C662 C 0.0621 0.89172 0.81466 0.0
N663 N 0.09637 0.93005 0.80909 0.0
C664 C 0.05388 0.91455 0.80429 0.0
C665 C 0.04456 0.89383 0.80965 0.0
H666 H 0.10158 0.90885 0.81822 0.0
H667 H 0.08724 0.94835 0.79996 0.0
C668 C 0.18597 0.04868 0.81013 0.0
N669 N 0.17187 0.02972 0.81544 0.0
C670 C 0.18499 0.07132 0.81015 0.0
C671 C 0.15669 0.05547 0.82152 0.0
C672 C 0.15827 0.03319 0.82129 0.0
C673 C 0.16907 0.0743 0.81563 0.0
H674 H 0.19587 0.04519 0.80536 0.0
H675 H 0.14654 0.01792 0.82532 0.0
O676 O 0.1546 0.94189 0.80429 0.0
O677 O 0.19663 0.99462 0.80903 0.0
O678 O 0.14325 0.98512 0.80249 0.0
O679 O 0.1471 0.96625 0.81956 0.0
H680 H 0.14355 0.89918 0.81202 0.0
H681 H 0.12383 0.92994 0.79181 0.0
H682 H 0.10967 0.85564 0.80804 0.0
H683 H 0.09027 0.88579 0.78817 0.0
H684 H 0.24428 0.0272 0.83149 0.0
H685 H 0.23363 0.03784 0.80282 0.0
H686 H 0.20691 0.99294 0.82426 0.0
H687 H 0.27062 0.0713 0.81039 0.0
H688 H 0.17913 0.95657 0.77213 0.0
H689 H 0.21689 0.03706 0.77833 0.0
H690 H 0.16485 0.90448 0.8361 0.0
H691 H 0.20602 0.90159 0.81537 0.0
H692 H 0.10833 0.98712 0.81156 0.0
H693 H 0.15805 0.02096 0.79136 0.0
H694 H 0.09322 0.01831 0.80991 0.0
H695 H 0.14203 0.05151 0.79004 0.0
H696 H 0.09984 0.95737 0.8221 0.0
H697 H 0.17421 0.98587 0.8328 0.0
H698 H 0.08443 0.96595 0.83476 0.0
H699 H 0.15741 0.99391 0.84527 0.0
H700 H 0.05592 0.87592 0.8188 0.0
H701 H 0.04109 0.91725 0.8004 0.0
H702 H 0.19502 0.08543 0.80554 0.0
H703 H 0.14387 0.05668 0.82579 0.0
Li704 Li 0.01904 0.2001 0.7963 0.0
Li705 Li 0.0383 0.21386 0.81025 0.0
Li706 Li 0.04034 0.17966 0.80294 0.0
Li707 Li 2e-05 0.17328 0.80766 0.0
C708 C 0.07654 0.22098 0.79567 0.0
N709 N 0.11976 0.22938 0.78746 0.0
C710 C 0.10076 0.2359 0.79907 0.0
C711 C 0.07426 0.21041 0.78809 0.0
C712 C 0.1224 0.2399 0.79482 0.0
C713 C 0.09636 0.21486 0.78404 0.0
C714 C 0.98034 0.20296 0.80777 0.0
C715 C 0.94788 0.19595 0.81745 0.0
N716 N 0.9307 0.19029 0.81145 0.0
C717 C 0.96243 0.1973 0.8017 0.0
C718 C 0.9731 0.20249 0.81572 0.0
C719 C 0.9374 0.19087 0.80368 0.0
C720 C 0.99468 0.19258 0.78168 0.0
N721 N 0.014 0.21058 0.78619 0.0
C722 C 0.02861 0.24019 0.77534 0.0
C723 C 0.0306 0.23421 0.78326 0.0
C724 C 0.0095 0.22155 0.7704 0.0
C725 C 0.99208 0.19764 0.77373 0.0
H726 H 0.98186 0.17393 0.78419 0.0
H727 H 0.04591 0.24806 0.787 0.0
C728 C 0.0776 0.23555 0.82065 0.0
N729 N 0.06074 0.24095 0.817 0.0
C730 C 0.09838 0.25435 0.8248 0.0
C731 C 0.08403 0.28427 0.8216 0.0
C732 C 0.06323 0.26462 0.81746 0.0
C733 C 0.10225 0.27924 0.82512 0.0
H734 H 0.07558 0.21684 0.82003 0.0
H735 H 0.04985 0.26854 0.81435 0.0
C736 C 0.99785 0.13734 0.79656 0.0
N737 N 0.97718 0.08482 0.79567 0.0
C738 C -0.00015 0.12382 0.80303 0.0
C739 C 0.98534 0.1241 0.78963 0.0
C740 C 0.98932 0.09731 0.80247 0.0
C741 C 0.975 0.09756 0.7893 0.0
C742 C 0.02901 0.17338 0.82177 0.0
C743 C 0.0344 0.15427 0.82406 0.0
C744 C 0.02291 0.18611 0.82757 0.0
C745 C 0.03312 0.14788 0.83212 0.0
C746 C 0.02186 0.17919 0.83557 0.0
N747 N 0.02691 0.16036 0.83766 0.0
C748 C 0.0831 0.17758 0.80727 0.0
C749 C 0.06076 0.14852 0.79678 0.0
C750 C 0.10084 0.16927 0.80763 0.0
N751 N 0.06338 0.16695 0.80199 0.0
C752 C 0.07786 0.13923 0.79704 0.0
C753 C 0.09803 0.14936 0.80262 0.0
H754 H 0.08487 0.19243 0.81126 0.0
H755 H 0.04513 0.14061 0.79256 0.0
C756 C 0.94922 0.13553 0.80548 0.0
N757 N 0.9674 0.14623 0.81127 0.0
C758 C 0.92882 0.11056 0.80634 0.0
C759 C 0.94487 0.109 0.8194 0.0
C760 C 0.96477 0.13408 0.81834 0.0
C761 C 0.92747 0.09662 0.81318 0.0
H762 H 0.95207 0.14529 0.79984 0.0
H763 H 0.9792 0.14269 0.82288 0.0
O764 O 0.05508 0.21624 0.79981 0.0
O765 O 0.0048 0.20884 0.80594 0.0
O766 O 0.00742 0.16326 0.79703 0.0
O767 O 0.03048 0.18006 0.81391 0.0
H768 H 0.10282 0.24416 0.80494 0.0
H769 H 0.05559 0.19864 0.78541 0.0
H770 H 0.14128 0.25133 0.79738 0.0
H771 H 0.09489 0.20671 0.77818 0.0
H772 H 0.94198 0.19538 0.82358 0.0
H773 H 0.96774 0.19767 0.79552 0.0
H774 H 0.98677 0.20708 0.82049 0.0
H775 H 0.9233 0.18628 0.79903 0.0
H776 H 0.04228 0.25896 0.77306 0.0
H777 H 0.97733 0.18248 0.77016 0.0
H778 H 0.11179 0.24962 0.82753 0.0
H779 H 0.08652 0.30335 0.82171 0.0
H780 H 0.00931 0.13361 0.80845 0.0
H781 H 0.98356 0.13419 0.78456 0.0
H782 H 0.99075 0.08667 0.80744 0.0
H783 H 0.96522 0.08708 0.78398 0.0
H784 H 0.03954 0.14448 0.81966 0.0
H785 H 0.01915 0.20125 0.82592 0.0
H786 H 0.03713 0.13305 0.83397 0.0
H787 H 0.01709 0.18884 0.84012 0.0
H788 H 0.1164 0.17817 0.81188 0.0
H789 H 0.07475 0.12371 0.79309 0.0
H790 H 0.91589 0.10141 0.80138 0.0
H791 H 0.94432 0.09867 0.82476 0.0
Li792 Li 0.8274 0.82905 0.68841 0.0
Li793 Li 0.85959 0.81884 0.69179 0.0
Li794 Li 0.81865 0.7856 0.68706 0.0
Li795 Li 0.82291 0.80603 0.70073 0.0
C796 C 0.86042 0.83444 0.67599 0.0
N797 N 0.89348 0.87204 0.66558 0.0
C798 C 0.87794 0.85887 0.67882 0.0
C799 C 0.85988 0.82908 0.66786 0.0
C800 C 0.89444 0.87763 0.67347 0.0
C801 C 0.87671 0.84836 0.66269 0.0
C802 C 0.86712 0.85925 0.7027 0.0
C803 C 0.89018 0.87233 0.71517 0.0
N804 N 0.90184 0.89717 0.71274 0.0
C805 C 0.87922 0.88496 0.70036 0.0
C806 C 0.87255 0.85291 0.71019 0.0
C807 C 0.89677 0.90382 0.7055 0.0
C808 C 0.82207 0.87133 0.69047 0.0
N809 N 0.82295 0.85628 0.6846 0.0
C810 C 0.83033 0.88791 0.67479 0.0
C811 C 0.8255 0.86339 0.67681 0.0
C812 C 0.83218 0.90487 0.68085 0.0
C813 C 0.82656 0.89581 0.68872 0.0
H814 H 0.82006 0.86515 0.69662 0.0
H815 H 0.82578 0.85089 0.67224 0.0
C816 C 0.90083 0.81866 0.68443 0.0
N817 N 0.8951 0.82872 0.69084 0.0
C818 C 0.92603 0.82485 0.68293 0.0
C819 C 0.93919 0.85179 0.69464 0.0
C820 C 0.91366 0.84482 0.69596 0.0
C821 C 0.94572 0.84189 0.68801 0.0
H822 H 0.88571 0.80574 0.68046 0.0
H823 H 0.90889 0.8526 0.70102 0.0
C824 C 0.7786 0.80328 0.68957 0.0
N825 N 0.74487 0.81809 0.68399 0.0
C826 C 0.76829 0.81381 0.69479 0.0
C827 C 0.77168 0.80013 0.68152 0.0
C828 C 0.75128 0.82122 0.69185 0.0
C829 C 0.75462 0.80778 0.67881 0.0
C830 C 0.85532 0.77837 0.6991 0.0
C831 C 0.86383 0.76656 0.69369 0.0
C832 C 0.86544 0.78387 0.70681 0.0
C833 C 0.88256 0.76076 0.69607 0.0
C834 C 0.88414 0.77775 0.70896 0.0
N835 N 0.89226 0.76645 0.70359 0.0
C836 C 0.80504 0.75591 0.67317 0.0
C837 C 0.80373 0.73454 0.68517 0.0
C838 C 0.80595 0.73689 0.66867 0.0
N839 N 0.80523 0.75493 0.68125 0.0
C840 C 0.80526 0.71546 0.68094 0.0
C841 C 0.80787 0.71723 0.67258 0.0
H842 H 0.8065 0.77257 0.67023 0.0
H843 H 0.80441 0.73461 0.69161 0.0
C844 C 0.81073 0.82219 0.71467 0.0
N845 N 0.81174 0.80209 0.71141 0.0
C846 C 0.80695 0.82284 0.72284 0.0
C847 C 0.80329 0.78113 0.72404 0.0
C848 C 0.80746 0.78142 0.71583 0.0
C849 C 0.80385 0.80243 0.72764 0.0
H850 H 0.8142 0.83833 0.71097 0.0
H851 H 0.80845 0.76575 0.71305 0.0
O852 O 0.84395 0.81572 0.68111 0.0
O853 O 0.84944 0.84057 0.6978 0.0
O854 O 0.79583 0.79659 0.69227 0.0
O855 O 0.83733 0.78466 0.69683 0.0
H856 H 0.87884 0.86326 0.68508 0.0
H857 H 0.84657 0.81024 0.66556 0.0
H858 H 0.90802 0.89663 0.67559 0.0
H859 H 0.87644 0.84449 0.65638 0.0
H860 H 0.89459 0.86765 0.72096 0.0
H861 H 0.87509 0.89038 0.69464 0.0
H862 H 0.86341 0.83323 0.71214 0.0
H863 H 0.9063 0.92375 0.70375 0.0
H864 H 0.83425 0.8941 0.66863 0.0
H865 H 0.82802 0.90827 0.69359 0.0
H866 H 0.93001 0.81641 0.67782 0.0
H867 H 0.95371 0.86535 0.69865 0.0
H868 H 0.77356 0.81643 0.70104 0.0
H869 H 0.77965 0.79213 0.6774 0.0
H870 H 0.74323 0.82951 0.69582 0.0
H871 H 0.74919 0.8056 0.67259 0.0
H872 H 0.85648 0.76241 0.68767 0.0
H873 H 0.85896 0.79274 0.7111 0.0
H874 H 0.88947 0.75185 0.69192 0.0
H875 H 0.89219 0.78199 0.7149 0.0
H876 H 0.80705 0.73866 0.66224 0.0
H877 H 0.80688 0.70099 0.68428 0.0
H878 H 0.80733 0.8395 0.72542 0.0
H879 H 0.80112 0.76514 0.72758 0.0
Li880 Li 0.20957 0.03309 0.68609 0.0
Li881 Li 0.19486 0.01631 0.70045 0.0
Li882 Li 0.16939 0.99475 0.68908 0.0
Li883 Li 0.17349 0.03526 0.69225 0.0
C884 C 0.20397 0.97939 0.68875 0.0
N885 N 0.20139 0.93494 0.68326 0.0
C886 C 0.20586 0.96262 0.69409 0.0
C887 C 0.20123 0.97379 0.6806 0.0
C888 C 0.20439 0.94018 0.6912 0.0
C889 C 0.19982 0.95115 0.67795 0.0
C890 C 0.21422 0.07516 0.6985 0.0
C891 C 0.20604 0.10089 0.70774 0.0
N892 N 0.22124 0.12207 0.70332 0.0
C893 C 0.22984 0.09718 0.69406 0.0
C894 C 0.20228 0.077 0.70541 0.0
C895 C 0.23313 0.12073 0.69659 0.0
C896 C 0.23327 0.06754 0.67394 0.0
N897 N 0.23764 0.05389 0.67954 0.0
C898 C 0.28284 0.07986 0.67778 0.0
C899 C 0.26173 0.05917 0.6814 0.0
C900 C 0.27885 0.09519 0.6723 0.0
C901 C 0.25369 0.08821 0.67017 0.0
H902 H 0.21399 0.06358 0.67282 0.0
H903 H 0.26457 0.04846 0.68607 0.0
C904 C 0.19421 0.98904 0.71399 0.0
N905 N 0.20487 0.01297 0.71085 0.0
C906 C 0.19846 0.98566 0.72196 0.0
C907 C 0.22534 0.0316 0.72321 0.0
C908 C 0.22069 0.03408 0.7152 0.0
C909 C 0.21369 0.00717 0.72673 0.0
H910 H 0.18166 0.97264 0.71038 0.0
H911 H 0.22908 0.05287 0.71252 0.0
C912 C 0.16429 0.01955 0.6745 0.0
N913 N 0.1409 0.01271 0.65981 0.0
C914 C 0.14251 0.02201 0.67371 0.0
C915 C 0.17433 0.01393 0.66778 0.0
C916 C 0.13092 0.01839 0.66624 0.0
C917 C 0.16219 0.01046 0.66042 0.0
C918 C 0.13316 0.98675 0.70019 0.0
C919 C 0.11448 0.98547 0.69497 0.0
C920 C 0.12595 0.96932 0.70649 0.0
C921 C 0.08891 0.96656 0.69608 0.0
C922 C 0.10017 0.95071 0.70741 0.0
N923 N 0.08235 0.94971 0.70223 0.0
C924 C 0.1399 0.94161 0.69143 0.0
C925 C 0.1267 0.95626 0.68031 0.0
C926 C 0.11668 0.91851 0.69145 0.0
N927 N 0.14397 0.9604 0.68615 0.0
C928 C 0.10304 0.93374 0.68022 0.0
C929 C 0.09715 0.91505 0.68613 0.0
H930 H 0.15353 0.9455 0.69617 0.0
H931 H 0.12991 0.9713 0.67623 0.0
C932 C 0.16871 0.07614 0.68674 0.0
N933 N 0.1588 0.05662 0.6921 0.0
C934 C 0.15778 0.09161 0.68579 0.0
C935 C 0.12667 0.0666 0.69593 0.0
C936 C 0.13852 0.05191 0.69679 0.0
C937 C 0.13618 0.08652 0.69031 0.0
H938 H 0.18474 0.07924 0.68305 0.0
H939 H 0.1312 0.0364 0.70106 0.0
O940 O 0.20517 0.00136 0.69146 0.0
O941 O 0.21019 0.05183 0.69601 0.0
O942 O 0.17597 0.02314 0.68176 0.0
O943 O 0.15837 0.00489 0.69911 0.0
H944 H 0.20839 0.96686 0.7004 0.0
H945 H 0.20003 0.9867 0.6764 0.0
H946 H 0.20567 0.92695 0.69527 0.0
H947 H 0.19749 0.94648 0.67166 0.0
H948 H 0.19679 0.10259 0.71305 0.0
H949 H 0.23922 0.0961 0.6887 0.0
H950 H 0.18996 0.06007 0.70888 0.0
H951 H 0.2451 0.13792 0.6932 0.0
H952 H 0.30197 0.08482 0.67965 0.0
H953 H 0.24982 0.0994 0.66593 0.0
H954 H 0.1889 0.96652 0.72446 0.0
H955 H 0.23741 0.04864 0.72668 0.0
H956 H 0.13454 0.02658 0.6788 0.0
H957 H 0.19146 0.0125 0.66822 0.0
H958 H 0.114 0.02011 0.66556 0.0
H959 H 0.16975 0.00606 0.65518 0.0
H960 H 0.11972 0.99874 0.69006 0.0
H961 H 0.14007 0.97011 0.71063 0.0
H962 H 0.07431 0.96522 0.69204 0.0
H963 H 0.09435 0.93702 0.71224 0.0
H964 H 0.11339 0.90447 0.696 0.0
H965 H 0.08878 0.93238 0.67602 0.0
H966 H 0.16544 0.10668 0.68135 0.0
H967 H 0.11008 0.06228 0.69954 0.0
Li968 Li 0.98002 0.18174 0.69725 0.0
Li969 Li 0.96682 0.18259 0.68293 0.0
Li970 Li 0.96146 0.14221 0.68894 0.0
Li971 Li 0.00351 0.17825 0.68623 0.0
C972 C 0.92597 0.15037 0.69761 0.0
N973 N 0.88638 0.12545 0.70837 0.0
C974 C 0.9034 0.15127 0.6967 0.0
C975 C 0.92841 0.13675 0.70396 0.0
C976 C 0.88359 0.13855 0.70221 0.0
C977 C 0.90819 0.1243 0.70935 0.0
C978 C 0.02179 0.227 0.68647 0.0
C979 C 0.0522 0.25094 0.67612 0.0
N980 N 0.07028 0.26404 0.68178 0.0
C981 C 0.04058 0.24075 0.69219 0.0
C982 C 0.02753 0.23215 0.67837 0.0
C983 C 0.06502 0.2594 0.68969 0.0
C984 C 0.0013 0.19558 0.71235 0.0
N985 N 0.98208 0.19402 0.70774 0.0
C986 C 0.96552 0.20678 0.71865 0.0
C987 C 0.96458 0.19988 0.71065 0.0
C988 C 0.98466 0.20766 0.72367 0.0
C989 C 0.00291 0.20227 0.72037 0.0
H990 H 0.015 0.19093 0.70984 0.0
H991 H 0.94961 0.19867 0.70681 0.0
C992 C 0.9367 0.17748 0.6698 0.0
N993 N 0.94726 0.19174 0.67646 0.0
C994 C 0.9156 0.17695 0.66621 0.0
C995 C 0.91731 0.20664 0.67623 0.0
C996 C 0.93858 0.20677 0.67959 0.0
C997 C 0.9049 0.19069 0.66966 0.0
H998 H 0.94318 0.16479 0.66766 0.0
H999 H 0.94672 0.21703 0.68509 0.0
C1000 C -0.00056 0.1408 0.69888 0.0
N1001 N 0.01556 0.10852 0.70492 0.0
C1002 C 0.01156 0.13142 0.69392 0.0
C1003 C 0.99554 0.13371 0.70692 0.0
C1004 C 0.01958 0.11516 0.69709 0.0
C1005 C 0.00379 0.11737 0.70986 0.0
C1006 C 0.9827 0.149 0.67204 0.0
C1007 C 0.98409 0.1266 0.67263 0.0
C1008 C 0.98835 0.16217 0.66479 0.0
C1009 C 0.9914 0.11787 0.66597 0.0
C1010 C 0.99553 0.15278 0.65825 0.0
N1011 N 0.99692 0.13103 0.65898 0.0
C1012 C 0.91414 0.09964 0.6856 0.0
C1013 C 0.94398 0.08825 0.6905 0.0
C1014 C 0.89572 0.07388 0.68453 0.0
N1015 N 0.93774 0.10631 0.68852 0.0
C1016 C 0.92636 0.06233 0.68938 0.0
C1017 C 0.902 0.05498 0.68631 0.0
H1018 H 0.90978 0.1144 0.68396 0.0
H1019 H 0.96272 0.09379 0.69278 0.0
C1020 C 0.0527 0.19154 0.69064 0.0
N1021 N 0.03797 0.18622 0.68399 0.0
C1022 C 0.07411 0.18841 0.69061 0.0
C1023 C 0.06641 0.17717 0.67665 0.0
C1024 C 0.04542 0.18098 0.67692 0.0
C1025 C 0.08006 0.17956 0.68366 0.0
H1026 H 0.04622 0.19544 0.69621 0.0
H1027 H 0.03399 0.1775 0.67165 0.0
O1028 O 0.94549 0.16266 0.69225 0.0
O1029 O 0.99797 0.20826 0.68877 0.0
O1030 O 0.99184 0.15719 0.69597 0.0
O1031 O 0.97541 0.15778 0.67848 0.0
H1032 H 0.90122 0.16169 0.69179 0.0
H1033 H 0.94573 0.13579 0.70472 0.0
H1034 H 0.866 0.13909 0.70159 0.0
H1035 H 0.90982 0.11371 0.7143 0.0
H1036 H 0.057 0.25505 0.66988 0.0
H1037 H 0.03638 0.23688 0.69848 0.0
H1038 H 0.01314 0.22155 0.67388 0.0
H1039 H 0.07983 0.27012 0.69405 0.0
H1040 H 0.95127 0.2111 0.72091 0.0
H1041 H 0.01775 0.20226 0.72401 0.0
H1042 H 0.90675 0.16459 0.66111 0.0
H1043 H 0.90946 0.21722 0.67915 0.0
H1044 H 0.01459 0.13643 0.68768 0.0
H1045 H 0.9862 0.14074 0.71086 0.0
H1046 H 0.02892 0.10773 0.69331 0.0
H1047 H 0.00087 0.11173 0.71606 0.0
H1048 H 0.97962 0.11607 0.67816 0.0
H1049 H 0.98757 0.17965 0.66424 0.0
H1050 H 0.99266 0.10062 0.66635 0.0
H1051 H 9e-05 0.16284 0.65262 0.0
H1052 H 0.8771 0.06882 0.68212 0.0
H1053 H 0.93172 0.04815 0.69087 0.0
H1054 H 0.08409 0.19011 0.69614 0.0
H1055 H 0.0706 0.17033 0.67119 0.0
Li1056 Li 0.83593 0.5067 0.52243 0.0
Li1057 Li 0.8647 0.51317 0.53312 0.0
Li1058 Li 0.87871 0.51635 0.51885 0.0
Li1059 Li 0.84793 0.47448 0.52511 0.0
C1060 C 0.86717 0.55898 0.52183 0.0
N1061 N 0.86452 0.60035 0.5159 0.0
C1062 C 0.85839 0.57187 0.52667 0.0
C1063 C 0.87485 0.56727 0.51401 0.0
C1064 C 0.85714 0.59272 0.52355 0.0
C1065 C 0.87328 0.58817 0.51111 0.0
C1066 C 0.81821 0.48292 0.5393 0.0
C1067 C 0.81147 0.46741 0.55284 0.0
N1068 N 0.79739 0.47894 0.55427 0.0
C1069 C 0.80355 0.49448 0.54089 0.0
C1070 C 0.82207 0.46912 0.54531 0.0
C1071 C 0.79322 0.49228 0.5485 0.0
C1072 C 0.78519 0.483 0.52055 0.0
N1073 N 0.80551 0.50684 0.51938 0.0
C1074 C 0.77771 0.52176 0.51473 0.0
C1075 C 0.80237 0.52615 0.51643 0.0
C1076 C 0.75653 0.49719 0.5159 0.0
C1077 C 0.76054 0.47771 0.51882 0.0
H1078 H 0.78819 0.46795 0.52285 0.0
H1079 H 0.81874 0.54482 0.51537 0.0
C1080 C 0.89358 0.52405 0.54741 0.0
N1081 N 0.87516 0.52664 0.54357 0.0
C1082 C 0.89934 0.53149 0.55538 0.0
C1083 C 0.86768 0.5449 0.55517 0.0
C1084 C 0.86285 0.53759 0.54719 0.0
C1085 C 0.88581 0.54146 0.55944 0.0
H1086 H 0.90345 0.51574 0.54434 0.0
H1087 H 0.84854 0.53974 0.54397 0.0
C1088 C 0.82911 0.48225 0.50864 0.0
N1089 N 0.79287 0.46993 0.49681 0.0
C1090 C 0.80834 0.45731 0.50805 0.0
C1091 C 0.83161 0.50085 0.50316 0.0
C1092 C 0.79018 0.45148 0.50204 0.0
C1093 C 0.81303 0.49426 0.49724 0.0
C1094 C 0.8935 0.48208 0.52924 0.0
C1095 C 0.90913 0.48001 0.52347 0.0
C1096 C 0.88702 0.46699 0.53611 0.0
C1097 C 0.91786 0.46272 0.52466 0.0
C1098 C 0.8961 0.44989 0.53707 0.0
N1099 N 0.9112 0.44813 0.53137 0.0
C1100 C 0.93047 0.54501 0.51494 0.0
C1101 C 0.90307 0.51785 0.50472 0.0
C1102 C 0.95186 0.54704 0.51104 0.0
N1103 N 0.90671 0.5297 0.51188 0.0
C1104 C 0.92387 0.51931 0.50064 0.0
C1105 C 0.94841 0.5329 0.50403 0.0
H1106 H 0.93255 0.55344 0.52078 0.0
H1107 H 0.88386 0.50524 0.50257 0.0
C1108 C 0.81344 0.42288 0.52852 0.0
N1109 N 0.8355 0.43872 0.52459 0.0
C1110 C 0.80122 0.39648 0.52728 0.0
C1111 C 0.8351 0.40309 0.51818 0.0
C1112 C 0.84649 0.42944 0.5195 0.0
C1113 C 0.81187 0.38638 0.52196 0.0
H1114 H 0.80471 0.43081 0.53234 0.0
H1115 H 0.86345 0.44254 0.5162 0.0
O1116 O 0.86904 0.53888 0.52482 0.0
O1117 O 0.82872 0.48507 0.53191 0.0
O1118 O 0.84672 0.48851 0.51461 0.0
O1119 O 0.88451 0.4987 0.52816 0.0
H1120 H 0.8525 0.5658 0.53274 0.0
H1121 H 0.88203 0.55774 0.51022 0.0
H1122 H 0.85027 0.60282 0.52721 0.0
H1123 H 0.87908 0.59475 0.50506 0.0
H1124 H 0.81443 0.45691 0.55756 0.0
H1125 H 0.80049 0.50539 0.53634 0.0
H1126 H 0.8332 0.4599 0.54416 0.0
H1127 H 0.78198 0.50128 0.54983 0.0
H1128 H 0.77522 0.53721 0.51247 0.0
H1129 H 0.74466 0.4586 0.51992 0.0
H1130 H 0.91389 0.52901 0.55835 0.0
H1131 H 0.85647 0.55215 0.55802 0.0
H1132 H 0.80608 0.44269 0.51224 0.0
H1133 H 0.84758 0.52021 0.50352 0.0
H1134 H 0.77391 0.43232 0.50155 0.0
H1135 H 0.81463 0.5085 0.493 0.0
H1136 H 0.91427 0.49139 0.5181 0.0
H1137 H 0.87501 0.46838 0.54064 0.0
H1138 H 0.92987 0.46085 0.52022 0.0
H1139 H 0.89114 0.43802 0.54235 0.0
H1140 H 0.97046 0.55747 0.51388 0.0
H1141 H 0.92056 0.50832 0.49521 0.0
H1142 H 0.78331 0.38413 0.53031 0.0
H1143 H 0.84364 0.39598 0.51395 0.0
Li1144 Li 0.48684 0.32462 0.52115 0.0
Li1145 Li 0.48444 0.34855 0.53239 0.0
Li1146 Li 0.4759 0.35736 0.51816 0.0
Li1147 Li 0.5203 0.36931 0.52266 0.0
C1148 C 0.43507 0.30226 0.52465 0.0
N1149 N 0.39231 0.25391 0.52426 0.0
C1150 C 0.42876 0.28612 0.53127 0.0
C1151 C 0.4195 0.29398 0.51787 0.0
C1152 C 0.40709 0.2617 0.53095 0.0
C1153 C 0.39801 0.2694 0.51778 0.0
C1154 C 0.52517 0.33896 0.53603 0.0
C1155 C 0.55656 0.35909 0.54646 0.0
N1156 N 0.55294 0.33576 0.54863 0.0
C1157 C 0.5219 0.31521 0.53832 0.0
C1158 C 0.54275 0.36111 0.54009 0.0
C1159 C 0.53606 0.31399 0.54473 0.0
C1160 C 0.51067 0.29909 0.51702 0.0
N1161 N 0.48628 0.29364 0.51845 0.0
C1162 C 0.47159 0.24869 0.51824 0.0
C1163 C 0.46664 0.269 0.5189 0.0
C1164 C 0.49683 0.25403 0.51696 0.0
C1165 C 0.51635 0.27957 0.51614 0.0
H1166 H 0.52602 0.3188 0.51697 0.0
H1167 H 0.44743 0.26497 0.52012 0.0
C1168 C 0.46918 0.36443 0.54626 0.0
N1169 N 0.47543 0.34728 0.54328 0.0
C1170 C 0.46364 0.36414 0.55437 0.0
C1171 C 0.47044 0.32817 0.5561 0.0
C1172 C 0.47569 0.32908 0.54799 0.0
C1173 C 0.46447 0.34596 0.55943 0.0
H1174 H 0.46874 0.37847 0.54235 0.0
H1175 H 0.48014 0.31532 0.54544 0.0
C1176 C 0.50266 0.33995 0.50605 0.0
N1177 N 0.50425 0.31473 0.4925 0.0
C1178 C 0.52621 0.34514 0.50287 0.0
C1179 C 0.47994 0.32217 0.5023 0.0
C1180 C 0.52661 0.33212 0.49603 0.0
C1181 C 0.48114 0.30955 0.49547 0.0
C1182 C 0.51055 0.40699 0.529 0.0
C1183 C 0.51153 0.42569 0.52385 0.0
C1184 C 0.52256 0.41423 0.53643 0.0
C1185 C 0.52471 0.45137 0.52619 0.0
C1186 C 0.53558 0.44011 0.53856 0.0
N1187 N 0.53638 0.45799 0.53344 0.0
C1188 C 0.44802 0.38222 0.51583 0.0
C1189 C 0.47286 0.38211 0.50487 0.0
C1190 C 0.44843 0.40408 0.51287 0.0
N1191 N 0.46129 0.37267 0.512 0.0
C1192 C 0.47397 0.40405 0.50175 0.0
C1193 C 0.46314 0.4163 0.50606 0.0
H1194 H 0.43983 0.37484 0.52163 0.0
H1195 H 0.48405 0.3747 0.50213 0.0
C1196 C 0.57066 0.38124 0.52135 0.0
N1197 N 0.5556 0.39201 0.52085 0.0
C1198 C 0.59638 0.39518 0.51921 0.0
C1199 C 0.59086 0.43133 0.51614 0.0
C1200 C 0.56506 0.41652 0.51828 0.0
C1201 C 0.60668 0.42046 0.51647 0.0
H1202 H 0.56248 0.36149 0.5232 0.0
H1203 H 0.55251 0.42433 0.51762 0.0
O1204 O 0.45584 0.32642 0.52491 0.0
O1205 O 0.51149 0.34047 0.52976 0.0
O1206 O 0.50186 0.35222 0.51281 0.0
O1207 O 0.49742 0.38171 0.52684 0.0
H1208 H 0.44051 0.29232 0.53657 0.0
H1209 H 0.42386 0.30645 0.51277 0.0
H1210 H 0.40202 0.24894 0.53601 0.0
H1211 H 0.38582 0.26268 0.51257 0.0
H1212 H 0.57022 0.37607 0.54966 0.0
H1213 H 0.50841 0.29789 0.53522 0.0
H1214 H 0.54587 0.37967 0.53828 0.0
H1215 H 0.53364 0.29572 0.5466 0.0
H1216 H 0.4561 0.22915 0.51895 0.0
H1217 H 0.53614 0.28452 0.51534 0.0
H1218 H 0.45878 0.37799 0.55664 0.0
H1219 H 0.47167 0.31402 0.55976 0.0
H1220 H 0.54397 0.35895 0.50569 0.0
H1221 H 0.46159 0.31807 0.50467 0.0
H1222 H 0.54468 0.33583 0.49352 0.0
H1223 H 0.4637 0.29563 0.49252 0.0
H1224 H 0.50253 0.42051 0.51805 0.0
H1225 H 0.52169 0.40002 0.54055 0.0
H1226 H 0.52571 0.46603 0.52224 0.0
H1227 H 0.54498 0.44598 0.54429 0.0
H1228 H 0.43943 0.41265 0.5163 0.0
H1229 H 0.48572 0.41281 0.49653 0.0
H1230 H 0.60806 0.38621 0.51962 0.0
H1231 H 0.59811 0.45069 0.51398 0.0
Li1232 Li 0.65544 0.1384 0.53483 0.0
Li1233 Li 0.67637 0.16109 0.52281 0.0
Li1234 Li 0.63385 0.15317 0.52536 0.0
Li1235 Li 0.64097 0.1188 0.5214 0.0
C1236 C 0.67203 0.19837 0.53353 0.0
N1237 N 0.68753 0.24899 0.53694 0.0
C1238 C 0.68128 0.21678 0.52747 0.0
C1239 C 0.67077 0.20581 0.54134 0.0
C1240 C 0.68901 0.24223 0.52931 0.0
C1241 C 0.67862 0.23145 0.54294 0.0
C1242 C 0.69659 0.13211 0.52444 0.0
C1243 C 0.72484 0.13463 0.51387 0.0
N1244 N 0.74383 0.14091 0.51931 0.0
C1245 C 0.71629 0.13845 0.52994 0.0
C1246 C 0.70078 0.13004 0.51635 0.0
C1247 C 0.74008 0.14288 0.52721 0.0
C1248 C 0.64536 0.11083 0.54937 0.0
N1249 N 0.66071 0.13343 0.54562 0.0
C1250 C 0.68337 0.15219 0.55767 0.0
C1251 C 0.67984 0.15371 0.54952 0.0
C1252 C 0.66721 0.12945 0.56179 0.0
C1253 C 0.64834 0.10838 0.55753 0.0
H1254 H 0.63038 0.09497 0.54608 0.0
H1255 H 0.69199 0.17128 0.54632 0.0
C1256 C 0.71179 0.19839 0.51214 0.0
N1257 N 0.70906 0.18732 0.5194 0.0
C1258 C 0.73225 0.22306 0.51076 0.0
C1259 C 0.74809 0.22296 0.52401 0.0
C1260 C 0.7271 0.19855 0.52519 0.0
C1261 C 0.75 0.23599 0.51689 0.0
H1262 H 0.69675 0.18927 0.50775 0.0
H1263 H 0.72388 0.18968 0.531 0.0
C1264 C 0.60271 0.1158 0.53657 0.0
N1265 N 0.56866 0.10934 0.54861 0.0
C1266 C 0.57918 0.09304 0.53712 0.0
C1267 C 0.6088 0.13531 0.54212 0.0
C1268 C 0.56225 0.09014 0.54325 0.0
C1269 C 0.59139 0.13167 0.54818 0.0
C1270 C 0.6294 0.14232 0.50933 0.0
C1271 C 0.60382 0.12477 0.51115 0.0
C1272 C 0.63582 0.15246 0.50163 0.0
C1273 C 0.58516 0.11758 0.50524 0.0
C1274 C 0.61659 0.14482 0.49588 0.0
N1275 N 0.59187 0.12767 0.49779 0.0
C1276 C 0.62048 0.1885 0.51956 0.0
C1277 C 0.58563 0.15287 0.52577 0.0
C1278 C 0.60479 0.19838 0.51742 0.0
N1279 N 0.61091 0.16634 0.52378 0.0
C1280 C 0.56913 0.1619 0.52366 0.0
C1281 C 0.57864 0.18496 0.51941 0.0
H1282 H 0.64015 0.19813 0.51761 0.0
H1283 H 0.57785 0.1346 0.52871 0.0
C1284 C 0.6054 0.06814 0.52047 0.0
N1285 N 0.62387 0.08711 0.516 0.0
C1286 C 0.58493 0.04724 0.51681 0.0
C1287 C 0.60493 0.0639 0.50403 0.0
C1288 C 0.6248 0.08493 0.50796 0.0
C1289 C 0.58379 0.04545 0.50843 0.0
H1290 H 0.60536 0.07043 0.52686 0.0
H1291 H 0.63968 0.10048 0.50454 0.0
O1292 O 0.66502 0.1734 0.53192 0.0
O1293 O 0.67333 0.12813 0.52696 0.0
O1294 O 0.61953 0.11888 0.53059 0.0
O1295 O 0.64819 0.14962 0.51499 0.0
H1296 H 0.68237 0.21151 0.5214 0.0
H1297 H 0.66386 0.19198 0.54614 0.0
H1298 H 0.69619 0.25661 0.52466 0.0
H1299 H 0.67771 0.23742 0.54895 0.0
H1300 H 0.72843 0.13324 0.50762 0.0
H1301 H 0.71328 0.14013 0.53622 0.0
H1302 H 0.68568 0.1252 0.51203 0.0
H1303 H 0.75557 0.14793 0.53139 0.0
H1304 H 0.69835 0.16873 0.56074 0.0
H1305 H 0.63543 0.09059 0.56052 0.0
H1306 H 0.73308 0.2327 0.50522 0.0
H1307 H 0.76114 0.23253 0.52891 0.0
H1308 H 0.5739 0.07781 0.53283 0.0
H1309 H 0.62674 0.15308 0.54178 0.0
H1310 H 0.54399 0.07263 0.54374 0.0
H1311 H 0.59593 0.14661 0.55252 0.0
H1312 H 0.59836 0.1166 0.51705 0.0
H1313 H 0.65549 0.16606 0.50011 0.0
H1314 H 0.56534 0.10394 0.50657 0.0
H1315 H 0.62132 0.1525 0.4899 0.0
H1316 H 0.61314 0.21633 0.51419 0.0
H1317 H 0.54901 0.15052 0.52515 0.0
H1318 H 0.56928 0.03393 0.52055 0.0
H1319 H 0.60542 0.06305 0.49759 0.0
Li1320 Li 0.84542 0.54886 0.64481 0.0
Li1321 Li 0.80658 0.5135 0.63962 0.0
Li1322 Li 0.83822 0.50525 0.64537 0.0
Li1323 Li 0.8462 0.52537 0.63235 0.0
C1324 C 0.82166 0.52419 0.65882 0.0
N1325 N 0.82827 0.53467 0.67498 0.0
C1326 C 0.80497 0.52984 0.66297 0.0
C1327 C 0.84172 0.52389 0.66291 0.0
C1328 C 0.80868 0.53517 0.67112 0.0
C1329 C 0.84468 0.52913 0.67108 0.0
C1330 C 0.81228 0.54751 0.6291 0.0
C1331 C 0.78796 0.53549 0.61686 0.0
N1332 N 0.77607 0.54852 0.61922 0.0
C1333 C 0.79974 0.56073 0.63141 0.0
C1334 C 0.80627 0.53472 0.62178 0.0
C1335 C 0.78153 0.56102 0.62633 0.0
C1336 C 0.85282 0.59796 0.6449 0.0
N1337 N 0.8568 0.58169 0.64948 0.0
C1338 C 0.85953 0.60537 0.6612 0.0
C1339 C 0.86214 0.58621 0.65739 0.0
C1340 C 0.85198 0.62023 0.65676 0.0
C1341 C 0.85023 0.61746 0.64844 0.0
H1342 H 0.84944 0.59447 0.63858 0.0
H1343 H 0.86649 0.57386 0.66086 0.0
C1344 C 0.75576 0.48362 0.63332 0.0
N1345 N 0.77105 0.5024 0.63851 0.0
C1346 C 0.72951 0.47486 0.63308 0.0
C1347 C 0.73564 0.50625 0.64311 0.0
C1348 C 0.76165 0.51406 0.64324 0.0
C1349 C 0.71902 0.48595 0.63812 0.0
H1350 H 0.76381 0.47503 0.62948 0.0
H1351 H 0.77447 0.52955 0.6471 0.0
C1352 C 0.89087 0.53576 0.64396 0.0
N1353 N 0.93366 0.53323 0.64843 0.0
C1354 C 0.90124 0.52511 0.6388 0.0
C1355 C 0.90261 0.5457 0.6513 0.0
C1356 C 0.92278 0.52383 0.6412 0.0
C1357 C 0.92413 0.54408 0.65348 0.0
C1358 C 0.80099 0.4653 0.63657 0.0
C1359 C 0.7841 0.45806 0.64304 0.0
C1360 C 0.80053 0.44635 0.63165 0.0
C1361 C 0.76698 0.43211 0.64442 0.0
C1362 C 0.78316 0.42059 0.63324 0.0
N1363 N 0.76688 0.41406 0.63954 0.0
C1364 C 0.82506 0.46563 0.65679 0.0
C1365 C 0.85114 0.46686 0.64603 0.0
C1366 C 0.81852 0.44048 0.65853 0.0
N1367 N 0.84054 0.47804 0.65048 0.0
C1368 C 0.84489 0.4416 0.64752 0.0
C1369 C 0.82731 0.42771 0.65358 0.0
H1370 H 0.81531 0.47392 0.65991 0.0
H1371 H 0.86193 0.47631 0.64074 0.0
C1372 C 0.87651 0.55253 0.61902 0.0
N1373 N 0.86152 0.52894 0.62225 0.0
C1374 C 0.8858 0.55489 0.61124 0.0
C1375 C 0.86444 0.50868 0.6104 0.0
C1376 C 0.85577 0.50726 0.61818 0.0
C1377 C 0.87938 0.53273 0.60677 0.0
H1378 H 0.88071 0.56945 0.62242 0.0
H1379 H 0.84381 0.48884 0.62091 0.0
O1380 O 0.81825 0.51896 0.65081 0.0
O1381 O 0.82964 0.54631 0.63409 0.0
O1382 O 0.86995 0.5374 0.64168 0.0
O1383 O 0.81867 0.49063 0.63528 0.0
H1384 H 0.78932 0.53018 0.65994 0.0
H1385 H 0.85493 0.51975 0.65982 0.0
H1386 H 0.79594 0.53966 0.67439 0.0
H1387 H 0.86012 0.52893 0.67431 0.0
H1388 H 0.7831 0.52561 0.61119 0.0
H1389 H 0.8036 0.57023 0.63713 0.0
H1390 H 0.81533 0.52396 0.61995 0.0
H1391 H 0.7716 0.57106 0.62806 0.0
H1392 H 0.86181 0.60747 0.66761 0.0
H1393 H 0.84467 0.62867 0.64477 0.0
H1394 H 0.71753 0.45902 0.62918 0.0
H1395 H 0.72866 0.51593 0.64692 0.0
H1396 H 0.89262 0.51772 0.63304 0.0
H1397 H 0.89528 0.55471 0.65526 0.0
H1398 H 0.93086 0.5154 0.6373 0.0
H1399 H 0.93332 0.55155 0.65917 0.0
H1400 H 0.78435 0.47225 0.64703 0.0
H1401 H 0.81359 0.45135 0.62668 0.0
H1402 H 0.75391 0.42631 0.64942 0.0
H1403 H 0.7827 0.40577 0.62949 0.0
H1404 H 0.80491 0.43043 0.66326 0.0
H1405 H 0.85168 0.43234 0.64345 0.0
H1406 H 0.8975 0.57382 0.60873 0.0
H1407 H 0.85856 0.49104 0.60717 0.0
Li1408 Li 0.45452 0.30083 0.64709 0.0
Li1409 Li 0.48984 0.29753 0.6411 0.0
Li1410 Li 0.49527 0.33841 0.64461 0.0
Li1411 Li 0.47042 0.31753 0.63294 0.0
C1412 C 0.49378 0.31366 0.65961 0.0
N1413 N 0.50624 0.32242 0.67559 0.0
C1414 C 0.51272 0.30931 0.66278 0.0
C1415 C 0.4809 0.32207 0.66459 0.0
C1416 C 0.51883 0.31397 0.67087 0.0
C1417 C 0.48754 0.32649 0.67265 0.0
C1418 C 0.44895 0.25956 0.63395 0.0
C1419 C 0.45502 0.23569 0.62348 0.0
N1420 N 0.44012 0.21361 0.62756 0.0
C1421 C 0.43361 0.23665 0.63803 0.0
C1422 C 0.45968 0.25913 0.6266 0.0
C1423 C 0.4294 0.21361 0.6347 0.0
C1424 C 0.40169 0.27489 0.65115 0.0
N1425 N 0.42543 0.27961 0.65326 0.0
C1426 C 0.40779 0.24395 0.66213 0.0
C1427 C 0.42882 0.26495 0.65873 0.0
C1428 C 0.38301 0.23758 0.65974 0.0
C1429 C 0.37997 0.25383 0.65439 0.0
H1430 H 0.39962 0.28635 0.64657 0.0
H1431 H 0.44782 0.26839 0.66003 0.0
C1432 C 0.52045 0.27601 0.63586 0.0
N1433 N 0.50232 0.27427 0.64103 0.0
C1434 C 0.5286 0.25803 0.63614 0.0
C1435 C 0.49837 0.23622 0.64679 0.0
C1436 C 0.4913 0.25496 0.64644 0.0
C1437 C 0.51749 0.23768 0.64165 0.0
H1438 H 0.52867 0.29139 0.63155 0.0
H1439 H 0.47671 0.25399 0.65042 0.0
C1440 C 0.4644 0.35766 0.64256 0.0
N1441 N 0.47311 0.40707 0.64403 0.0
C1442 C 0.46528 0.37157 0.63578 0.0
C1443 C 0.46752 0.36874 0.65009 0.0
C1444 C 0.4698 0.39655 0.63665 0.0
C1445 C 0.47204 0.39378 0.65071 0.0
C1446 C 0.53318 0.34099 0.63466 0.0
C1447 C 0.54606 0.33814 0.64116 0.0
C1448 C 0.54731 0.35716 0.62837 0.0
C1449 C 0.57281 0.35156 0.64129 0.0
C1450 C 0.57406 0.37025 0.62872 0.0
N1451 N 0.58615 0.36723 0.63512 0.0
C1452 C 0.53668 0.37609 0.65419 0.0
C1453 C 0.52911 0.38977 0.64177 0.0
C1454 C 0.56113 0.39762 0.65458 0.0
N1455 N 0.52174 0.37198 0.64766 0.0
C1456 C 0.55323 0.41172 0.64197 0.0
C1457 C 0.57019 0.41506 0.6482 0.0
H1458 H 0.53093 0.36168 0.65874 0.0
H1459 H 0.51736 0.3857 0.6365 0.0
C1460 C 0.43844 0.30276 0.6193 0.0
N1461 N 0.46131 0.3206 0.62241 0.0
C1462 C 0.4331 0.30375 0.61124 0.0
C1463 C 0.47471 0.34178 0.60985 0.0
C1464 C 0.47912 0.34015 0.61792 0.0
C1465 C 0.45161 0.32317 0.60635 0.0
H1466 H 0.42465 0.2874 0.62303 0.0
H1467 H 0.49703 0.35413 0.6206 0.0
O1468 O 0.48754 0.30907 0.65171 0.0
O1469 O 0.45389 0.28237 0.6372 0.0
O1470 O 0.46015 0.33323 0.64179 0.0
O1471 O 0.50696 0.32916 0.63464 0.0
H1472 H 0.52263 0.30244 0.65902 0.0
H1473 H 0.4657 0.32481 0.66228 0.0
H1474 H 0.53355 0.31083 0.67339 0.0
H1475 H 0.47775 0.33304 0.67657 0.0
H1476 H 0.46332 0.23506 0.61783 0.0
H1477 H 0.4252 0.23669 0.64372 0.0
H1478 H 0.47174 0.27675 0.62341 0.0
H1479 H 0.41766 0.19573 0.63781 0.0
H1480 H 0.41094 0.23205 0.6663 0.0
H1481 H 0.36115 0.24938 0.65234 0.0
H1482 H 0.5437 0.26036 0.63214 0.0
H1483 H 0.48874 0.2207 0.65101 0.0
H1484 H 0.46257 0.36322 0.6299 0.0
H1485 H 0.46669 0.35825 0.65541 0.0
H1486 H 0.47068 0.40758 0.63145 0.0
H1487 H 0.4747 0.40265 0.65651 0.0
H1488 H 0.53552 0.32599 0.64612 0.0
H1489 H 0.53777 0.35978 0.62331 0.0
H1490 H 0.58297 0.34963 0.64631 0.0
H1491 H 0.58521 0.38294 0.62392 0.0
H1492 H 0.57354 0.39918 0.65948 0.0
H1493 H 0.55922 0.42487 0.63698 0.0
H1494 H 0.41489 0.2892 0.60884 0.0
H1495 H 0.48974 0.35688 0.60633 0.0
Li1496 Li 0.69306 0.18777 0.64678 0.0
Li1497 Li 0.69173 0.14904 0.6502 0.0
Li1498 Li 0.67753 0.15293 0.63673 0.0
Li1499 Li 0.65279 0.1498 0.64901 0.0
C1500 C 0.7374 0.18283 0.64288 0.0
N1501 N 0.78854 0.20059 0.64612 0.0
C1502 C 0.74898 0.19824 0.64956 0.0
C1503 C 0.75186 0.17647 0.63785 0.0
C1504 C 0.77485 0.20706 0.65109 0.0
C1505 C 0.77767 0.1856 0.63959 0.0
C1506 C 0.67281 0.15811 0.6643 0.0
C1507 C 0.6559 0.12137 0.673 0.0
N1508 N 0.65739 0.13646 0.67924 0.0
C1509 C 0.67451 0.17333 0.67082 0.0
C1510 C 0.6637 0.13199 0.66541 0.0
C1511 C 0.66649 0.162 0.67832 0.0
C1512 C 0.70315 0.23371 0.65395 0.0
N1513 N 0.71067 0.22384 0.64794 0.0
C1514 C 0.74356 0.26561 0.64408 0.0
C1515 C 0.7303 0.23911 0.64299 0.0
C1516 C 0.73633 0.27638 0.65027 0.0
C1517 C 0.71575 0.26009 0.65522 0.0
H1518 H 0.68737 0.22101 0.65775 0.0
H1519 H 0.73566 0.23066 0.63821 0.0
C1520 C 0.72124 0.1248 0.65099 0.0
N1521 N 0.71327 0.13866 0.65528 0.0
C1522 C 0.74365 0.12483 0.65315 0.0
C1523 C 0.74786 0.15167 0.66443 0.0
C1524 C 0.72555 0.15122 0.66205 0.0
C1525 C 0.75781 0.13943 0.65975 0.0
H1526 H 0.71163 0.11581 0.64547 0.0
H1527 H 0.71966 0.16308 0.66516 0.0
C1528 C 0.6623 0.19513 0.6376 0.0
N1529 N 0.66356 0.23969 0.63291 0.0
C1530 C 0.64811 0.20393 0.64176 0.0
C1531 C 0.67715 0.20899 0.63106 0.0
C1532 C 0.64898 0.22649 0.63929 0.0
C1533 C 0.67754 0.23148 0.62879 0.0
C1534 C 0.63653 0.10237 0.64279 0.0
C1535 C 0.62975 0.09286 0.63503 0.0
C1536 C 0.61903 0.09018 0.649 0.0
C1537 C 0.60543 0.07193 0.63356 0.0
C1538 C 0.59488 0.06931 0.64729 0.0
N1539 N 0.58861 0.06072 0.63967 0.0
C1540 C 0.69163 0.14181 0.62156 0.0
C1541 C 0.65696 0.1499 0.62177 0.0
C1542 C 0.69051 0.14011 0.61323 0.0
N1543 N 0.67528 0.14713 0.6256 0.0
C1544 C 0.65535 0.14866 0.61348 0.0
C1545 C 0.67257 0.14419 0.60912 0.0
H1546 H 0.7058 0.13939 0.62478 0.0
H1547 H 0.64394 0.15369 0.62515 0.0
C1548 C 0.61504 0.15243 0.65839 0.0
N1549 N 0.61889 0.14168 0.65179 0.0
C1550 C 0.59429 0.15661 0.65874 0.0
C1551 C 0.58026 0.13594 0.64592 0.0
C1552 C 0.60154 0.13263 0.64574 0.0
C1553 C 0.5774 0.14969 0.65223 0.0
H1554 H 0.62948 0.16054 0.66296 0.0
H1555 H 0.60553 0.1252 0.6404 0.0
O1556 O 0.71191 0.17351 0.64137 0.0
O1557 O 0.68077 0.16908 0.65693 0.0
O1558 O 0.66208 0.17334 0.64001 0.0
O1559 O 0.66047 0.12276 0.64432 0.0
H1560 H 0.738 0.20292 0.65363 0.0
H1561 H 0.74322 0.16444 0.63269 0.0
H1562 H 0.784 0.21886 0.65626 0.0
H1563 H 0.78905 0.18073 0.63577 0.0
H1564 H 0.64882 0.10116 0.67394 0.0
H1565 H 0.68181 0.19366 0.67008 0.0
H1566 H 0.66324 0.12015 0.66051 0.0
H1567 H 0.66752 0.17352 0.68341 0.0
H1568 H 0.75907 0.27757 0.64006 0.0
H1569 H 0.70968 0.26764 0.66008 0.0
H1570 H 0.7509 0.11535 0.64936 0.0
H1571 H 0.7582 0.16299 0.66958 0.0
H1572 H 0.63669 0.19359 0.64687 0.0
H1573 H 0.68851 0.20262 0.62784 0.0
H1574 H 0.6381 0.23353 0.64246 0.0
H1575 H 0.68903 0.24246 0.62376 0.0
H1576 H 0.64319 0.10122 0.63018 0.0
H1577 H 0.62368 0.09692 0.65506 0.0
H1578 H 0.59997 0.06451 0.62757 0.0
H1579 H 0.58109 0.05997 0.65202 0.0
H1580 H 0.70409 0.13661 0.61004 0.0
H1581 H 0.64101 0.15151 0.61051 0.0
H1582 H 0.59322 0.16757 0.66369 0.0
H1583 H 0.56746 0.12979 0.64084 0.0
Li1584 Li 0.48815 0.15364 0.14481 0.0
Li1585 Li 0.48188 0.18861 0.14139 0.0
Li1586 Li 0.44721 0.15022 0.14793 0.0
Li1587 Li 0.46134 0.14776 0.13358 0.0
C1588 C 0.49319 0.18316 0.1592 0.0
N1589 N 0.5179 0.19902 0.17372 0.0
C1590 C 0.51456 0.20766 0.16001 0.0
C1591 C 0.4842 0.16687 0.16581 0.0
C1592 C 0.52684 0.21527 0.16739 0.0
C1593 C 0.497 0.17521 0.17309 0.0
C1594 C 0.52301 0.18453 0.13306 0.0
C1595 C 0.55756 0.18868 0.12476 0.0
N1596 N 0.57477 0.20598 0.12998 0.0
C1597 C 0.54104 0.20234 0.13835 0.0
C1598 C 0.5313 0.17768 0.12619 0.0
C1599 C 0.56711 0.21302 0.13668 0.0
C1600 C 0.52283 0.13756 0.14135 0.0
N1601 N 0.51511 0.14677 0.14751 0.0
C1602 C 0.55523 0.16177 0.15407 0.0
C1603 C 0.53013 0.15711 0.15406 0.0
C1604 C 0.5648 0.15575 0.14729 0.0
C1605 C 0.54782 0.14188 0.14111 0.0
H1606 H 0.51074 0.12981 0.13615 0.0
H1607 H 0.52382 0.16405 0.15895 0.0
C1608 C 0.48653 0.23436 0.14675 0.0
N1609 N 0.49534 0.22452 0.1411 0.0
C1610 C 0.49588 0.26067 0.14713 0.0
C1611 C 0.52324 0.26623 0.13587 0.0
C1612 C 0.51305 0.23973 0.13563 0.0
C1613 C 0.5148 0.2771 0.14172 0.0
H1614 H 0.4723 0.22168 0.15099 0.0
H1615 H 0.51949 0.23134 0.13115 0.0
C1616 C 0.45483 0.10408 0.14643 0.0
N1617 N 0.45908 0.06549 0.15388 0.0
C1618 C 0.46193 0.08888 0.14206 0.0
C1619 C 0.4494 0.09934 0.15455 0.0
C1620 C 0.46412 0.06956 0.14594 0.0
C1621 C 0.45178 0.07983 0.15822 0.0
C1622 C 0.44014 0.18581 0.13545 0.0
C1623 C 0.42536 0.19256 0.14019 0.0
C1624 C 0.45047 0.19878 0.12829 0.0
C1625 C 0.42126 0.21234 0.13769 0.0
C1626 C 0.44596 0.21847 0.12601 0.0
N1627 N 0.43158 0.22479 0.13072 0.0
C1628 C 0.42349 0.15945 0.16052 0.0
C1629 C 0.39494 0.12549 0.15208 0.0
C1630 C 0.4032 0.16056 0.16405 0.0
N1631 N 0.41907 0.14256 0.15452 0.0
C1632 C 0.37399 0.12604 0.15543 0.0
C1633 C 0.3782 0.14452 0.16126 0.0
H1634 H 0.44285 0.17361 0.16208 0.0
H1635 H 0.39215 0.11298 0.14709 0.0
C1636 C 0.46299 0.12097 0.12024 0.0
N1637 N 0.45132 0.13338 0.12331 0.0
C1638 C 0.45855 0.1125 0.11235 0.0
C1639 C 0.4298 0.12938 0.11099 0.0
C1640 C 0.43453 0.1372 0.11894 0.0
C1641 C 0.44225 0.11726 0.10758 0.0
H1642 H 0.47652 0.11854 0.12383 0.0
H1643 H 0.42546 0.14705 0.12156 0.0
O1644 O 0.48082 0.17541 0.15202 0.0
O1645 O 0.49737 0.17357 0.13464 0.0
O1646 O 0.45284 0.12329 0.14278 0.0
O1647 O 0.44504 0.16704 0.1379 0.0
H1648 H 0.52158 0.22074 0.15502 0.0
H1649 H 0.46754 0.14799 0.16533 0.0
H1650 H 0.54345 0.23414 0.16809 0.0
H1651 H 0.4903 0.16275 0.17824 0.0
H1652 H 0.56425 0.18345 0.11949 0.0
H1653 H 0.53495 0.20772 0.1437 0.0
H1654 H 0.5176 0.16391 0.12204 0.0
H1655 H 0.58125 0.22688 0.14071 0.0
H1656 H 0.56771 0.17211 0.15902 0.0
H1657 H 0.5545 0.13704 0.13574 0.0
H1658 H 0.48837 0.26802 0.15163 0.0
H1659 H 0.53802 0.27806 0.13163 0.0
H1660 H 0.46579 0.09201 0.13574 0.0
H1661 H 0.44325 0.11052 0.15797 0.0
H1662 H 0.46979 0.05777 0.14264 0.0
H1663 H 0.44775 0.07603 0.16452 0.0
H1664 H 0.41728 0.18278 0.14575 0.0
H1665 H 0.46219 0.19395 0.1246 0.0
H1666 H 0.40994 0.21784 0.14131 0.0
H1667 H 0.45398 0.2288 0.12051 0.0
H1668 H 0.4072 0.17493 0.16857 0.0
H1669 H 0.35501 0.11355 0.15305 0.0
H1670 H 0.46875 0.10353 0.10988 0.0
H1671 H 0.41705 0.13329 0.10748 0.0
Li1672 Li 0.84389 0.31288 0.13144 0.0
Li1673 Li 0.83628 0.29166 0.14452 0.0
Li1674 Li 0.80259 0.29651 0.13827 0.0
Li1675 Li 0.84213 0.3335 0.14344 0.0
C1676 C 0.80592 0.26336 0.12761 0.0
N1677 N 0.78099 0.23596 0.11411 0.0
C1678 C 0.80127 0.23839 0.12658 0.0
C1679 C 0.7978 0.27438 0.12181 0.0
C1680 C 0.78865 0.22485 0.1197 0.0
C1681 C 0.78527 0.26022 0.11501 0.0
C1682 C 0.89046 0.34398 0.14245 0.0
C1683 C 0.92392 0.36993 0.1518 0.0
N1684 N 0.93639 0.38754 0.14597 0.0
C1685 C 0.90378 0.36214 0.13652 0.0
C1686 C 0.90075 0.34771 0.15013 0.0
C1687 C 0.9269 0.38411 0.13843 0.0
C1688 C 0.86197 0.33804 0.11696 0.0
N1689 N 0.85854 0.31736 0.12118 0.0
C1690 C 0.87097 0.30162 0.10998 0.0
C1691 C 0.86335 0.29952 0.11795 0.0
C1692 C 0.87356 0.32224 0.10534 0.0
C1693 C 0.86944 0.34086 0.109 0.0
H1694 H 0.85813 0.35195 0.11973 0.0
H1695 H 0.86043 0.28324 0.12147 0.0
C1696 C 0.81467 0.24585 0.15194 0.0
N1697 N 0.83827 0.26617 0.15051 0.0
C1698 C 0.8119 0.22428 0.15581 0.0
C1699 C 0.85805 0.24474 0.1567 0.0
C1700 C 0.85991 0.26623 0.15283 0.0
C1701 C 0.83372 0.22325 0.15812 0.0
H1702 H 0.79791 0.24635 0.14999 0.0
H1703 H 0.87849 0.28262 0.15153 0.0
C1704 C 0.81207 0.34481 0.13326 0.0
N1705 N 0.78948 0.37501 0.13386 0.0
C1706 C 0.79874 0.34492 0.14008 0.0
C1707 C 0.8138 0.36005 0.12674 0.0
C1708 C 0.78752 0.36034 0.14027 0.0
C1709 C 0.80225 0.37517 0.12716 0.0
C1710 C 0.81121 0.29666 0.15712 0.0
C1711 C 0.78662 0.27933 0.15988 0.0
C1712 C 0.83202 0.30573 0.16233 0.0
C1713 C 0.78336 0.27101 0.16779 0.0
C1714 C 0.82799 0.29695 0.17019 0.0
N1715 N 0.80394 0.27989 0.17274 0.0
C1716 C 0.75524 0.25415 0.14033 0.0
C1717 C 0.75158 0.28774 0.13434 0.0
C1718 C 0.72876 0.23926 0.14108 0.0
N1719 N 0.76616 0.27824 0.1373 0.0
C1720 C 0.7249 0.27352 0.135 0.0
C1721 C 0.71327 0.24921 0.13861 0.0
H1722 H 0.76723 0.24683 0.14245 0.0
H1723 H 0.76048 0.30647 0.13163 0.0
C1724 C 0.86546 0.38664 0.14283 0.0
N1725 N 0.85335 0.36645 0.1479 0.0
C1726 C 0.86405 0.40877 0.14407 0.0
C1727 C 0.83965 0.38976 0.15606 0.0
C1728 C 0.8419 0.36814 0.15467 0.0
C1729 C 0.84934 0.4097 0.15042 0.0
H1730 H 0.87344 0.38445 0.13732 0.0
H1731 H 0.83163 0.35155 0.15845 0.0
O1732 O 0.81832 0.2768 0.13431 0.0
O1733 O 0.86776 0.32239 0.1407 0.0
O1734 O 0.82426 0.33076 0.13305 0.0
O1735 O 0.81485 0.30473 0.14935 0.0
H1736 H 0.80739 0.2296 0.13104 0.0
H1737 H 0.80115 0.29364 0.12251 0.0
H1738 H 0.78495 0.20552 0.11881 0.0
H1739 H 0.77893 0.26852 0.11046 0.0
H1740 H 0.93205 0.37312 0.15773 0.0
H1741 H 0.89623 0.35944 0.13053 0.0
H1742 H 0.89107 0.33353 0.15473 0.0
H1743 H 0.9373 0.39844 0.13392 0.0
H1744 H 0.87423 0.28698 0.10744 0.0
H1745 H 0.87078 0.35686 0.10566 0.0
H1746 H 0.79278 0.20849 0.15695 0.0
H1747 H 0.87538 0.24466 0.15835 0.0
H1748 H 0.79698 0.33323 0.14519 0.0
H1749 H 0.824 0.3603 0.12141 0.0
H1750 H 0.77727 0.36066 0.14553 0.0
H1751 H 0.80352 0.38709 0.12216 0.0
H1752 H 0.77023 0.27238 0.15597 0.0
H1753 H 0.85108 0.31938 0.16031 0.0
H1754 H 0.76445 0.2575 0.16999 0.0
H1755 H 0.84397 0.30372 0.17428 0.0
H1756 H 0.72063 0.22065 0.14391 0.0
H1757 H 0.71354 0.28163 0.13285 0.0
H1758 H 0.87221 0.42387 0.13964 0.0
H1759 H 0.82793 0.38942 0.161 0.0
Li1760 Li 0.68453 0.52206 0.13466 0.0
Li1761 Li 0.70497 0.54256 0.14824 0.0
Li1762 Li 0.70827 0.50613 0.14292 0.0
Li1763 Li 0.66786 0.50033 0.14707 0.0
C1764 C 0.74409 0.54571 0.13493 0.0
N1765 N 0.79044 0.5543 0.12897 0.0
C1766 C 0.76679 0.56161 0.13904 0.0
C1767 C 0.74494 0.53425 0.12778 0.0
C1768 C 0.79004 0.56571 0.13593 0.0
C1769 C 0.76858 0.53881 0.12487 0.0
C1770 C 0.64758 0.53115 0.14557 0.0
C1771 C 0.61663 0.52688 0.15546 0.0
N1772 N 0.60043 0.52524 0.14954 0.0
C1773 C 0.63077 0.52977 0.13959 0.0
C1774 C 0.64061 0.53003 0.15357 0.0
C1775 C 0.60696 0.52665 0.14172 0.0
C1776 C 0.65348 0.50924 0.12132 0.0
N1777 N 0.67699 0.52678 0.1241 0.0
C1778 C 0.69003 0.54503 0.11111 0.0
C1779 C 0.69501 0.54494 0.11925 0.0
C1780 C 0.66647 0.52605 0.10801 0.0
C1781 C 0.64781 0.50843 0.11324 0.0
H1782 H 0.63948 0.4953 0.12536 0.0
H1783 H 0.71359 0.5586 0.12164 0.0
C1784 C 0.74029 0.5725 0.15971 0.0
N1785 N 0.72689 0.57376 0.15338 0.0
C1786 C 0.76242 0.59427 0.16226 0.0
C1787 C 0.75602 0.61863 0.15197 0.0
C1788 C 0.73383 0.59628 0.14962 0.0
C1789 C 0.77112 0.61744 0.15815 0.0
H1790 H 0.73513 0.55425 0.16236 0.0
H1791 H 0.72335 0.59645 0.1444 0.0
C1792 C 0.66187 0.4606 0.13748 0.0
N1793 N 0.63287 0.40778 0.13836 0.0
C1794 C 0.66616 0.4474 0.14358 0.0
C1795 C 0.64298 0.44687 0.13178 0.0
C1796 C 0.65126 0.42072 0.14394 0.0
C1797 C 0.6285 0.42019 0.13233 0.0
C1798 C 0.6962 0.50299 0.16133 0.0
C1799 C 0.702 0.48404 0.16347 0.0
C1800 C 0.68789 0.51376 0.16716 0.0
C1801 C 0.69883 0.47578 0.17139 0.0
C1802 C 0.68498 0.505 0.17501 0.0
N1803 N 0.69042 0.48632 0.17694 0.0
C1804 C 0.75175 0.50461 0.14778 0.0
C1805 C 0.72904 0.47581 0.13727 0.0
C1806 C 0.77 0.49683 0.1478 0.0
N1807 N 0.73178 0.49398 0.14259 0.0
C1808 C 0.74667 0.46723 0.13714 0.0
C1809 C 0.76752 0.47774 0.14246 0.0
H1810 H 0.75351 0.51925 0.15189 0.0
H1811 H 0.7131 0.46791 0.13315 0.0
C1812 C 0.61555 0.46693 0.14575 0.0
N1813 N 0.6352 0.47406 0.15099 0.0
C1814 C 0.59352 0.44296 0.14637 0.0
C1815 C 0.61152 0.43461 0.15807 0.0
C1816 C 0.63304 0.45894 0.1573 0.0
C1817 C 0.59201 0.4258 0.1523 0.0
H1818 H 0.61801 0.47866 0.14059 0.0
H1819 H 0.64889 0.46437 0.16129 0.0
O1820 O 0.72107 0.54086 0.13799 0.0
O1821 O 0.67091 0.53408 0.14358 0.0
O1822 O 0.67569 0.48683 0.13722 0.0
O1823 O 0.69927 0.51133 0.1536 0.0
H1824 H 0.76645 0.57052 0.1446 0.0
H1825 H 0.72749 0.52169 0.12457 0.0
H1826 H 0.80776 0.57789 0.13906 0.0
H1827 H 0.76952 0.52995 0.11937 0.0
H1828 H 0.6109 0.52576 0.16162 0.0
H1829 H 0.63602 0.53104 0.13338 0.0
H1830 H 0.65348 0.5314 0.15826 0.0
H1831 H 0.5937 0.52538 0.13716 0.0
H1832 H 0.70492 0.5588 0.10723 0.0
H1833 H 0.62935 0.49367 0.11105 0.0
H1834 H 0.77343 0.59266 0.1671 0.0
H1835 H 0.76226 0.63612 0.14861 0.0
H1836 H 0.6806 0.45769 0.14806 0.0
H1837 H 0.63943 0.45664 0.12698 0.0
H1838 H 0.65426 0.41032 0.14868 0.0
H1839 H 0.61373 0.40935 0.12798 0.0
H1840 H 0.70889 0.47577 0.15909 0.0
H1841 H 0.68403 0.52893 0.16566 0.0
H1842 H 0.70311 0.46103 0.17312 0.0
H1843 H 0.6785 0.51313 0.17958 0.0
H1844 H 0.78593 0.5058 0.15192 0.0
H1845 H 0.74371 0.45221 0.13299 0.0
H1846 H 0.57879 0.4372 0.14187 0.0
H1847 H 0.61145 0.42206 0.1627 0.0
Li1848 Li 0.48932 0.15255 0.02244 0.0
Li1849 Li 0.52274 0.14427 0.02612 0.0
Li1850 Li 0.48464 0.11105 0.02011 0.0
Li1851 Li 0.48349 0.12644 0.03411 0.0
C1852 C 0.52664 0.16539 0.01097 0.0
N1853 N 0.56 0.20895 0.00255 0.0
C1854 C 0.54213 0.18843 0.01497 0.0
C1855 C 0.52825 0.16452 0.00267 0.0
C1856 C 0.55883 0.21023 0.01062 0.0
C1857 C 0.54521 0.18674 0.99852 0.0
C1858 C 0.5232 0.17975 0.03807 0.0
C1859 C 0.54113 0.18991 0.05133 0.0
N1860 N 0.55113 0.21528 0.04975 0.0
C1861 C 0.53355 0.20594 0.0366 0.0
C1862 C 0.52691 0.17167 0.04551 0.0
C1863 C 0.54766 0.22359 0.04257 0.0
C1864 C 0.47805 0.19021 0.02573 0.0
N1865 N 0.48296 0.17919 0.01942 0.0
C1866 C 0.49157 0.21466 0.01109 0.0
C1867 C 0.48805 0.19008 0.01206 0.0
C1868 C 0.48953 0.22774 0.01774 0.0
C1869 C 0.48118 0.21461 0.02502 0.0
H1870 H 0.47406 0.18104 0.03151 0.0
H1871 H 0.4914 0.18069 0.00711 0.0
C1872 C 0.56875 0.15223 0.01953 0.0
N1873 N 0.55898 0.15676 0.02625 0.0
C1874 C 0.59487 0.16078 0.01893 0.0
C1875 C 0.60041 0.17767 0.0323 0.0
C1876 C 0.57417 0.16893 0.03262 0.0
C1877 C 0.61109 0.17387 0.02535 0.0
H1878 H 0.55618 0.14192 0.01461 0.0
H1879 H 0.56606 0.17189 0.03795 0.0
C1880 C 0.44116 0.12201 0.02095 0.0
N1881 N 0.40725 0.13159 0.01266 0.0
C1882 C 0.42442 0.12763 0.02507 0.0
C1883 C 0.4406 0.12114 0.01262 0.0
C1884 C 0.40743 0.13244 0.02076 0.0
C1885 C 0.42333 0.12607 0.00853 0.0
C1886 C 0.52033 0.1028 0.03157 0.0
C1887 C 0.52857 0.09261 0.02552 0.0
C1888 C 0.53213 0.10789 0.03905 0.0
C1889 C 0.54842 0.08761 0.02707 0.0
C1890 C 0.55196 0.10267 0.04035 0.0
N1891 N 0.55962 0.09272 0.03439 0.0
C1892 C 0.48228 0.08521 0.00607 0.0
C1893 C 0.46579 0.05927 0.01762 0.0
C1894 C 0.48433 0.06591 0.00215 0.0
N1895 N 0.47421 0.08189 0.01376 0.0
C1896 C 0.46766 0.03951 0.01395 0.0
C1897 C 0.47831 0.04331 0.00628 0.0
H1898 H 0.4894 0.10365 0.00325 0.0
H1899 H 0.46018 0.05755 0.02382 0.0
C1900 C 0.4575 0.1328 0.04659 0.0
N1901 N 0.46907 0.11935 0.04444 0.0
C1902 C 0.4498 0.13232 0.05445 0.0
C1903 C 0.46577 0.10377 0.05772 0.0
C1904 C 0.47265 0.10436 0.04973 0.0
C1905 C 0.45476 0.11843 0.06022 0.0
H1906 H 0.45527 0.14482 0.04226 0.0
H1907 H 0.48199 0.09392 0.04784 0.0
O1908 O 0.50981 0.14378 0.01509 0.0
O1909 O 0.50874 0.16217 0.03235 0.0
O1910 O 0.45854 0.11803 0.02501 0.0
O1911 O 0.50132 0.10841 0.03011 0.0
H1912 H 0.54139 0.18951 0.02137 0.0
H1913 H 0.51642 0.14694 0.99944 0.0
H1914 H 0.57086 0.22817 0.01366 0.0
H1915 H 0.54657 0.18633 0.9921 0.0
H1916 H 0.54424 0.1839 0.05709 0.0
H1917 H 0.5307 0.21264 0.03091 0.0
H1918 H 0.51924 0.15158 0.04676 0.0
H1919 H 0.5558 0.24389 0.0415 0.0
H1920 H 0.49758 0.22401 0.00534 0.0
H1921 H 0.47955 0.22398 0.03032 0.0
H1922 H 0.6023 0.15717 0.0135 0.0
H1923 H 0.6123 0.18783 0.03737 0.0
H1924 H 0.42459 0.12835 0.03151 0.0
H1925 H 0.4536 0.11701 0.00935 0.0
H1926 H 0.3944 0.1369 0.02387 0.0
H1927 H 0.42278 0.12561 0.00209 0.0
H1928 H 0.52011 0.08904 0.01965 0.0
H1929 H 0.52632 0.11611 0.04376 0.0
H1930 H 0.55502 0.07982 0.02244 0.0
H1931 H 0.56134 0.10664 0.0461 0.0
H1932 H 0.49278 0.06961 0.99625 0.0
H1933 H 0.46263 0.02223 0.01728 0.0
H1934 H 0.44083 0.14342 0.05601 0.0
H1935 H 0.47028 0.09299 0.06193 0.0
Li1936 Li 0.8498 0.38141 0.02378 0.0
Li1937 Li 0.83789 0.33826 0.02184 0.0
Li1938 Li 0.8667 0.36125 0.03276 0.0
Li1939 Li 0.8805 0.37094 0.01794 0.0
C1940 C 0.81238 0.35666 0.0344 0.0
N1941 N 0.77397 0.36398 0.04052 0.0
C1942 C 0.79094 0.35105 0.02976 0.0
C1943 C 0.81418 0.36573 0.04218 0.0
C1944 C 0.77176 0.35496 0.03295 0.0
C1945 C 0.79458 0.36936 0.04516 0.0
C1946 C 0.8341 0.35313 0.00685 0.0
C1947 C 0.83009 0.33285 0.99411 0.0
N1948 N 0.80618 0.32956 0.99328 0.0
C1949 C 0.8096 0.34978 0.00584 0.0
C1950 C 0.84452 0.34472 0.00093 0.0
C1951 C 0.79573 0.3377 0.99895 0.0
C1952 C 0.83701 0.41888 0.02935 0.0
N1953 N 0.84052 0.40732 0.0229 0.0
C1954 C 0.83219 0.43341 0.01407 0.0
C1955 C 0.83866 0.4145 0.01536 0.0
C1956 C 0.82769 0.44517 0.0206 0.0
C1957 C 0.83046 0.43788 0.02834 0.0
H1958 H 0.83934 0.41344 0.03529 0.0
H1959 H 0.8423 0.40559 0.01032 0.0
C1960 C 0.79355 0.29531 0.02661 0.0
N1961 N 0.80852 0.30487 0.02002 0.0
C1962 C 0.76935 0.2737 0.02609 0.0
C1963 C 0.77718 0.27022 0.01215 0.0
C1964 C 0.80138 0.29208 0.01296 0.0
C1965 C 0.76043 0.26133 0.01872 0.0
H1966 H 0.79994 0.3051 0.03225 0.0
H1967 H 0.81398 0.29912 0.00788 0.0
C1968 C 0.8942 0.41929 0.02904 0.0
N1969 N 0.91036 0.46978 0.03272 0.0
C1970 C 0.90397 0.43796 0.02307 0.0
C1971 C 0.89273 0.42627 0.03688 0.0
C1972 C 0.91202 0.46339 0.02505 0.0
C1973 C 0.90097 0.45192 0.03862 0.0
C1974 C 0.86319 0.31447 0.0229 0.0
C1975 C 0.85141 0.29616 0.0289 0.0
C1976 C 0.86579 0.30683 0.01526 0.0
C1977 C 0.84213 0.27035 0.02712 0.0
C1978 C 0.85628 0.28083 0.01372 0.0
N1979 N 0.84472 0.26328 0.01963 0.0
C1980 C 0.85711 0.34054 0.04788 0.0
C1981 C 0.90016 0.37365 0.04612 0.0
C1982 C 0.86181 0.33765 0.05583 0.0
N1983 N 0.87608 0.35846 0.04326 0.0
C1984 C 0.90577 0.37137 0.05407 0.0
C1985 C 0.88637 0.35327 0.05905 0.0
H1986 H 0.83815 0.32877 0.04541 0.0
H1987 H 0.91488 0.38769 0.04227 0.0
C1988 C 0.90693 0.39981 0.0049 0.0
N1989 N 0.90955 0.38791 0.01141 0.0
C1990 C 0.92802 0.42168 0.00186 0.0
C1991 C 0.95447 0.41747 0.01191 0.0
C1992 C 0.9328 0.39558 0.01476 0.0
C1993 C 0.9519 0.43158 0.00565 0.0
H1994 H 0.88807 0.39435 0.00267 0.0
H1995 H 0.93405 0.38641 0.02015 0.0
O1996 O 0.83134 0.35294 0.03138 0.0
O1997 O 0.84811 0.36525 0.0135 0.0
O1998 O 0.88587 0.39423 0.02721 0.0
O1999 O 0.87169 0.33972 0.02445 0.0
H2000 H 0.78913 0.34371 0.02377 0.0
H2001 H 0.83067 0.37019 0.04585 0.0
H2002 H 0.7551 0.35079 0.02942 0.0
H2003 H 0.79578 0.37652 0.05115 0.0
H2004 H 0.83785 0.32614 0.9895 0.0
H2005 H 0.80142 0.35654 0.0103 0.0
H2006 H 0.86344 0.34712 0.00161 0.0
H2007 H 0.7767 0.33488 0.99811 0.0
H2008 H 0.83072 0.43877 0.00801 0.0
H2009 H 0.82702 0.44633 0.03355 0.0
H2010 H 0.75725 0.26777 0.03133 0.0
H2011 H 0.77137 0.26088 0.0064 0.0
H2012 H 0.9051 0.43285 0.01697 0.0
H2013 H 0.88499 0.412 0.04156 0.0
H2014 H 0.91954 0.47803 0.02049 0.0
H2015 H 0.89982 0.45759 0.04465 0.0
H2016 H 0.84919 0.30181 0.03484 0.0
H2017 H 0.8749 0.32082 0.01055 0.0
H2018 H 0.8328 0.25593 0.03169 0.0
H2019 H 0.85803 0.27459 0.00782 0.0
H2020 H 0.84613 0.32381 0.05947 0.0
H2021 H 0.925 0.38367 0.0563 0.0
H2022 H 0.925 0.43216 0.99714 0.0
H2023 H 0.97259 0.42435 0.01496 0.0
Li2024 Li 0.62916 0.50437 0.02046 0.0
Li2025 Li 0.64708 0.50573 0.03387 0.0
Li2026 Li 0.66916 0.50663 0.02203 0.0
Li2027 Li 0.6292 0.46631 0.02527 0.0
C2028 C 0.68328 0.55402 0.02406 0.0
N2029 N 0.73099 0.59569 0.02095 0.0
C2030 C 0.70247 0.56288 0.02987 0.0
C2031 C 0.68821 0.56653 0.01671 0.0
C2032 C 0.72651 0.58393 0.02817 0.0
C2033 C 0.7125 0.58753 0.01524 0.0
C2034 C 0.59156 0.48237 0.03379 0.0
C2035 C 0.55358 0.46031 0.0419 0.0
N2036 N 0.55013 0.4809 0.04136 0.0
C2037 C 0.58761 0.5033 0.0333 0.0
C2038 C 0.57437 0.46066 0.0381 0.0
C2039 C 0.56656 0.50219 0.03717 0.0
C2040 C 0.58373 0.48509 0.01358 0.0
N2041 N 0.60468 0.50856 0.01463 0.0
C2042 C 0.58312 0.52868 0.00875 0.0
C2043 C 0.60506 0.53031 0.01224 0.0
C2044 C 0.56094 0.50451 0.00785 0.0
C2045 C 0.56172 0.48258 0.01014 0.0
H2046 H 0.58402 0.46824 0.0156 0.0
H2047 H 0.62195 0.54877 0.01325 0.0
C2048 C 0.6706 0.51657 0.04888 0.0
N2049 N 0.65179 0.51749 0.04467 0.0
C2050 C 0.67367 0.52236 0.05698 0.0
C2051 C 0.63973 0.53256 0.05616 0.0
C2052 C 0.63697 0.52607 0.04807 0.0
C2053 C 0.65781 0.53001 0.06072 0.0
H2054 H 0.68298 0.51089 0.04598 0.0
H2055 H 0.62282 0.5276 0.04457 0.0
C2056 C 0.63307 0.48176 0.00724 0.0
N2057 N 0.6149 0.47859 0.99191 0.0
C2058 C 0.61411 0.45822 0.00421 0.0
C2059 C 0.64301 0.50361 0.00244 0.0
C2060 C 0.60512 0.45704 0.99645 0.0
C2061 C 0.63351 0.50164 0.99471 0.0
C2062 C 0.66019 0.46733 0.03736 0.0
C2063 C 0.67948 0.46113 0.03833 0.0
C2064 C 0.63899 0.45658 0.04246 0.0
C2065 C 0.67731 0.44435 0.04442 0.0
C2066 C 0.63755 0.43991 0.04848 0.0
N2067 N 0.65657 0.43419 0.04933 0.0
C2068 C 0.71886 0.51886 0.02439 0.0
C2069 C 0.70809 0.51533 0.01068 0.0
C2070 C 0.7404 0.51687 0.0227 0.0
N2071 N 0.70266 0.51684 0.01845 0.0
C2072 C 0.72971 0.5136 0.0087 0.0
C2073 C 0.74532 0.51274 0.0148 0.0
H2074 H 0.71368 0.51943 0.03053 0.0
H2075 H 0.69459 0.51321 0.00609 0.0
C2076 C 0.5845 0.41953 0.02336 0.0
N2077 N 0.61013 0.43032 0.02455 0.0
C2078 C 0.56965 0.39346 0.02169 0.0
C2079 C 0.60777 0.38992 0.0228 0.0
C2080 C 0.62195 0.41617 0.02436 0.0
C2081 C 0.5813 0.3783 0.02129 0.0
H2082 H 0.57574 0.43139 0.02341 0.0
H2083 H 0.64245 0.42538 0.02521 0.0
O2084 O 0.6598 0.53317 0.02557 0.0
O2085 O 0.61172 0.48278 0.0299 0.0
O2086 O 0.64173 0.48338 0.01488 0.0
O2087 O 0.66194 0.48345 0.03134 0.0
H2088 H 0.69891 0.55343 0.03559 0.0
H2089 H 0.67343 0.56016 0.01221 0.0
H2090 H 0.74161 0.59088 0.03258 0.0
H2091 H 0.71664 0.59735 0.00957 0.0
H2092 H 0.54015 0.44364 0.04527 0.0
H2093 H 0.60084 0.52035 0.03005 0.0
H2094 H 0.57706 0.44423 0.03851 0.0
H2095 H 0.56333 0.51827 0.03686 0.0
H2096 H 0.58317 0.54603 0.00705 0.0
H2097 H 0.54528 0.46357 0.0094 0.0
H2098 H 0.68809 0.5206 0.06033 0.0
H2099 H 0.62731 0.5386 0.05888 0.0
H2100 H 0.60633 0.44108 0.00782 0.0
H2101 H 0.65774 0.52192 0.00468 0.0
H2102 H 0.59035 0.43898 0.99405 0.0
H2103 H 0.64091 0.51844 0.99095 0.0
H2104 H 0.69592 0.46913 0.03439 0.0
H2105 H 0.62389 0.46113 0.04179 0.0
H2106 H 0.6921 0.43938 0.04524 0.0
H2107 H 0.62129 0.43152 0.05248 0.0
H2108 H 0.75144 0.51598 0.02766 0.0
H2109 H 0.73299 0.51095 0.00251 0.0
H2110 H 0.54945 0.38551 0.02045 0.0
H2111 H 0.61751 0.37893 0.02269 0.0
Li2112 Li 0.5011 0.85129 0.85377 0.0
Li2113 Li 0.5213 0.85226 0.86624 0.0
Li2114 Li 0.54071 0.85089 0.85283 0.0
Li2115 Li 0.50204 0.81384 0.85789 0.0
C2116 C 0.53352 0.90018 0.85654 0.0
N2117 N 0.52824 0.9428 0.85448 0.0
C2118 C 0.5261 0.90989 0.86293 0.0
C2119 C 0.53857 0.91234 0.84912 0.0
C2120 C 0.52345 0.9314 0.86176 0.0
C2121 C 0.53569 0.9338 0.8482 0.0
C2122 C 0.45891 0.81617 0.86263 0.0
C2123 C 0.41654 0.80391 0.86741 0.0
N2124 N 0.40633 0.79016 0.86063 0.0
C2125 C 0.44796 0.80194 0.8557 0.0
C2126 C 0.44307 0.81719 0.86854 0.0
C2127 C 0.42136 0.78889 0.8548 0.0
C2128 C 0.4671 0.85386 0.84217 0.0
N2129 N 0.47759 0.86106 0.84956 0.0
C2130 C 0.44224 0.86535 0.85397 0.0
C2131 C 0.46642 0.86831 0.85526 0.0
C2132 C 0.42949 0.85468 0.84677 0.0
C2133 C 0.44287 0.85056 0.84064 0.0
H2134 H 0.47605 0.84815 0.83771 0.0
H2135 H 0.47466 0.87317 0.86116 0.0
C2136 C 0.55019 0.88406 0.87925 0.0
N2137 N 0.52772 0.86341 0.87693 0.0
C2138 C 0.55454 0.89089 0.88731 0.0
C2139 C 0.51255 0.85509 0.89033 0.0
C2140 C 0.50895 0.84913 0.88224 0.0
C2141 C 0.53567 0.87603 0.89296 0.0
H2142 H 0.56477 0.89501 0.87486 0.0
H2143 H 0.49133 0.83279 0.8802 0.0
C2144 C 0.50708 0.82937 0.83913 0.0
N2145 N 0.50399 0.83089 0.82273 0.0
C2146 C 0.48884 0.80785 0.83496 0.0
C2147 C 0.52393 0.85156 0.83496 0.0
C2148 C 0.48752 0.80903 0.82667 0.0
C2149 C 0.52203 0.85198 0.82666 0.0
C2150 C 0.53802 0.81154 0.86617 0.0
C2151 C 0.55226 0.80193 0.86248 0.0
C2152 C 0.52455 0.80013 0.87318 0.0
C2153 C 0.55259 0.78087 0.86583 0.0
C2154 C 0.52534 0.77909 0.87633 0.0
N2155 N 0.53921 0.76996 0.87262 0.0
C2156 C 0.59435 0.8773 0.84908 0.0
C2157 C 0.56756 0.83719 0.84289 0.0
C2158 C 0.61619 0.87737 0.84621 0.0
N2159 N 0.57074 0.85713 0.84748 0.0
C2160 C 0.58869 0.83641 0.83994 0.0
C2161 C 0.61347 0.85634 0.84175 0.0
H2162 H 0.59626 0.89261 0.8529 0.0
H2163 H 0.5486 0.82098 0.84197 0.0
C2164 C 0.46776 0.76265 0.86321 0.0
N2165 N 0.48624 0.77764 0.8579 0.0
C2166 C 0.45739 0.73612 0.86309 0.0
C2167 C 0.48578 0.74115 0.85218 0.0
C2168 C 0.4953 0.7675 0.85244 0.0
C2169 C 0.46646 0.725 0.85753 0.0
H2170 H 0.46118 0.7713 0.86757 0.0
H2171 H 0.51028 0.78002 0.84837 0.0
O2172 O 0.53601 0.87901 0.85757 0.0
O2173 O 0.48499 0.83005 0.86351 0.0
O2174 O 0.50868 0.8284 0.84724 0.0
O2175 O 0.53678 0.83164 0.86286 0.0
H2176 H 0.52206 0.90072 0.86871 0.0
H2177 H 0.54467 0.90535 0.84414 0.0
H2178 H 0.51753 0.93899 0.86664 0.0
H2179 H 0.53943 0.94334 0.84248 0.0
H2180 H 0.40408 0.80463 0.87192 0.0
H2181 H 0.45984 0.80115 0.85101 0.0
H2182 H 0.45121 0.8284 0.87389 0.0
H2183 H 0.41267 0.77788 0.84946 0.0
H2184 H 0.43249 0.86848 0.8589 0.0
H2185 H 0.43371 0.84255 0.83497 0.0
H2186 H 0.57264 0.90712 0.88913 0.0
H2187 H 0.49742 0.84337 0.89449 0.0
H2188 H 0.4758 0.79044 0.83811 0.0
H2189 H 0.53842 0.86819 0.83808 0.0
H2190 H 0.47342 0.79257 0.82337 0.0
H2191 H 0.53493 0.86904 0.82336 0.0
H2192 H 0.56284 0.81052 0.85707 0.0
H2193 H 0.51322 0.80714 0.87606 0.0
H2194 H 0.56343 0.77316 0.86301 0.0
H2195 H 0.51483 0.76995 0.88171 0.0
H2196 H 0.63495 0.89322 0.84769 0.0
H2197 H 0.58557 0.81952 0.83671 0.0
H2198 H 0.44229 0.72448 0.86726 0.0
H2199 H 0.49378 0.73362 0.84791 0.0
Li2200 Li 0.15588 0.68148 0.86447 0.0
Li2201 Li 0.15864 0.6615 0.85225 0.0
Li2202 Li 0.19274 0.70529 0.85545 0.0
Li2203 Li 0.14952 0.69649 0.85092 0.0
C2204 C 0.1913 0.66545 0.8675 0.0
N2205 N 0.20835 0.64913 0.88028 0.0
C2206 C 0.185 0.6398 0.86806 0.0
C2207 C 0.20644 0.68283 0.8734 0.0
C2208 C 0.19377 0.63192 0.87458 0.0
C2209 C 0.21481 0.67419 0.87982 0.0
C2210 C 0.10557 0.64148 0.85484 0.0
C2211 C 0.07036 0.61605 0.84597 0.0
N2212 N 0.05927 0.5979 0.85175 0.0
C2213 C 0.09371 0.62274 0.86072 0.0
C2214 C 0.09372 0.6383 0.84744 0.0
C2215 C 0.07034 0.60077 0.85903 0.0
C2216 C 0.14028 0.69285 0.87909 0.0
N2217 N 0.14491 0.67572 0.87526 0.0
C2218 C 0.13509 0.6502 0.88701 0.0
C2219 C 0.14178 0.65435 0.87898 0.0
C2220 C 0.13062 0.66776 0.89124 0.0
C2221 C 0.13289 0.68914 0.88711 0.0
H2222 H 0.14238 0.70944 0.87593 0.0
H2223 H 0.14472 0.64057 0.87573 0.0
C2224 C 0.17907 0.63473 0.84555 0.0
N2225 N 0.15604 0.63082 0.84815 0.0
C2226 C 0.18242 0.61411 0.84373 0.0
C2227 C 0.13833 0.58541 0.84743 0.0
C2228 C 0.1356 0.60675 0.84897 0.0
C2229 C 0.16214 0.58913 0.8449 0.0
H2230 H 0.19538 0.6539 0.84539 0.0
H2231 H 0.1177 0.60393 0.85127 0.0
C2232 C 0.18552 0.74163 0.86279 0.0
N2233 N 0.21688 0.79171 0.86762 0.0
C2234 C 0.18873 0.76186 0.85793 0.0
C2235 C 0.19804 0.74686 0.87015 0.0
C2236 C 0.20473 0.78705 0.86046 0.0
C2237 C 0.21388 0.77231 0.87247 0.0
C2238 C 0.17924 0.68474 0.83782 0.0
C2239 C 0.20412 0.69373 0.835 0.0
C2240 C 0.15831 0.66781 0.83317 0.0
C2241 C 0.20763 0.68541 0.82757 0.0
C2242 C 0.16263 0.65993 0.82579 0.0
N2243 N 0.18699 0.66881 0.82316 0.0
C2244 C 0.24497 0.72095 0.85669 0.0
C2245 C 0.23647 0.75119 0.85043 0.0
C2246 C 0.27106 0.73619 0.85512 0.0
N2247 N 0.22831 0.72864 0.85434 0.0
C2248 C 0.26249 0.76718 0.8488 0.0
C2249 C 0.28005 0.75949 0.85104 0.0
H2250 H 0.23793 0.70257 0.85954 0.0
H2251 H 0.2227 0.75629 0.8483 0.0
C2252 C 0.12419 0.72442 0.84982 0.0
N2253 N 0.13545 0.71371 0.84547 0.0
C2254 C 0.12278 0.74521 0.84674 0.0
C2255 C 0.14265 0.74194 0.8346 0.0
C2256 C 0.14363 0.72124 0.83789 0.0
C2257 C 0.13338 0.75498 0.83922 0.0
H2258 H 0.11874 0.71856 0.85594 0.0
H2259 H 0.15314 0.71286 0.83467 0.0
O2260 O 0.18274 0.67346 0.86118 0.0
O2261 O 0.12825 0.66323 0.85643 0.0
O2262 O 0.16995 0.71684 0.86041 0.0
O2263 O 0.17546 0.69249 0.84511 0.0
H2264 H 0.17329 0.62608 0.86355 0.0
H2265 H 0.2117 0.70277 0.873 0.0
H2266 H 0.18895 0.61212 0.87511 0.0
H2267 H 0.22649 0.68741 0.88445 0.0
H2268 H 0.061 0.61326 0.84026 0.0
H2269 H 0.10253 0.62506 0.86651 0.0
H2270 H 0.10237 0.65294 0.8429 0.0
H2271 H 0.061 0.58601 0.8635 0.0
H2272 H 0.13403 0.63362 0.88988 0.0
H2273 H 0.12905 0.70292 0.89 0.0
H2274 H 0.20127 0.61769 0.84202 0.0
H2275 H 0.12244 0.56632 0.84853 0.0
H2276 H 0.17926 0.75818 0.8522 0.0
H2277 H 0.19548 0.73143 0.87403 0.0
H2278 H 0.20752 0.80289 0.85674 0.0
H2279 H 0.22374 0.77664 0.87814 0.0
H2280 H 0.22053 0.70686 0.83852 0.0
H2281 H 0.13897 0.66069 0.83527 0.0
H2282 H 0.22677 0.69213 0.82532 0.0
H2283 H 0.14661 0.64673 0.82214 0.0
H2284 H 0.28405 0.72964 0.85696 0.0
H2285 H 0.26865 0.78481 0.84553 0.0
H2286 H 0.11573 0.75497 0.8505 0.0
H2287 H 0.15081 0.74886 0.82875 0.0
Li2288 Li 0.31405 0.47496 0.86725 0.0
Li2289 Li 0.33201 0.49584 0.85457 0.0
Li2290 Li 0.28913 0.48452 0.85777 0.0
Li2291 Li 0.29776 0.45121 0.85399 0.0
C2292 C 0.32773 0.53393 0.86225 0.0
N2293 N 0.34461 0.58499 0.85908 0.0
C2294 C 0.3203 0.541 0.85524 0.0
C2295 C 0.34375 0.55292 0.86765 0.0
C2296 C 0.32897 0.56687 0.85375 0.0
C2297 C 0.35211 0.5786 0.86593 0.0
C2298 C 0.35429 0.46485 0.85841 0.0
C2299 C 0.38106 0.45239 0.85126 0.0
N2300 N 0.39934 0.46364 0.857 0.0
C2301 C 0.37311 0.47582 0.86431 0.0
C2302 C 0.35807 0.45262 0.8519 0.0
C2303 C 0.39585 0.4752 0.86346 0.0
C2304 C 0.30758 0.45075 0.8823 0.0
N2305 N 0.32104 0.47282 0.87808 0.0
C2306 C 0.34285 0.49577 0.8898 0.0
C2307 C 0.33889 0.49488 0.8816 0.0
C2308 C 0.32855 0.4736 0.89437 0.0
C2309 C 0.3112 0.45067 0.89054 0.0
H2310 H 0.29344 0.43351 0.87932 0.0
H2311 H 0.34956 0.51193 0.87804 0.0
C2312 C 0.3624 0.53772 0.84436 0.0
N2313 N 0.36317 0.52423 0.85075 0.0
C2314 C 0.38136 0.56325 0.84333 0.0
C2315 C 0.40264 0.55991 0.85509 0.0
C2316 C 0.38316 0.53452 0.85593 0.0
C2317 C 0.40111 0.57501 0.84898 0.0
H2318 H 0.34568 0.52975 0.84056 0.0
H2319 H 0.38269 0.52401 0.8612 0.0
C2320 C 0.25542 0.44727 0.86651 0.0
N2321 N 0.2089 0.43898 0.87224 0.0
C2322 C 0.23321 0.43366 0.86194 0.0
C2323 C 0.25397 0.45665 0.874 0.0
C2324 C 0.20988 0.42968 0.86494 0.0
C2325 C 0.23026 0.45224 0.87679 0.0
C2326 C 0.30737 0.47741 0.83959 0.0
C2327 C 0.29012 0.47358 0.83345 0.0
C2328 C 0.33049 0.47837 0.83779 0.0
C2329 C 0.29621 0.47061 0.82563 0.0
C2330 C 0.33593 0.47543 0.8299 0.0
N2331 N 0.3188 0.4716 0.82403 0.0
C2332 C 0.26027 0.50752 0.86287 0.0
C2333 C 0.24718 0.48475 0.85065 0.0
C2334 C 0.24132 0.51426 0.8622 0.0
N2335 N 0.263 0.49332 0.85707 0.0
C2336 C 0.22801 0.49106 0.84973 0.0
C2337 C 0.22512 0.50629 0.85551 0.0
H2338 H 0.27303 0.51385 0.86795 0.0
H2339 H 0.24949 0.473 0.84624 0.0
C2340 C 0.26179 0.39997 0.85408 0.0
N2341 N 0.28047 0.41792 0.84936 0.0
C2342 C 0.24164 0.37798 0.85073 0.0
C2343 C 0.26219 0.39155 0.83787 0.0
C2344 C 0.28186 0.41348 0.84147 0.0
C2345 C 0.24109 0.37434 0.84246 0.0
H2346 H 0.26129 0.40374 0.86036 0.0
H2347 H 0.29706 0.42763 0.83783 0.0
O2348 O 0.32038 0.50876 0.86367 0.0
O2349 O 0.33171 0.46485 0.85922 0.0
O2350 O 0.27858 0.45198 0.8636 0.0
O2351 O 0.30166 0.48052 0.84727 0.0
H2352 H 0.30841 0.52677 0.85088 0.0
H2353 H 0.34991 0.54799 0.87308 0.0
H2354 H 0.32347 0.57256 0.84832 0.0
H2355 H 0.36465 0.59347 0.87004 0.0
H2356 H 0.38433 0.44317 0.84623 0.0
H2357 H 0.37022 0.48481 0.86949 0.0
H2358 H 0.34334 0.44327 0.84742 0.0
H2359 H 0.41068 0.48384 0.86794 0.0
H2360 H 0.35658 0.5137 0.89257 0.0
H2361 H 0.29977 0.43327 0.89391 0.0
H2362 H 0.37909 0.57424 0.83862 0.0
H2363 H 0.41764 0.56816 0.85955 0.0
H2364 H 0.23404 0.42664 0.85607 0.0
H2365 H 0.27101 0.46752 0.87757 0.0
H2366 H 0.19257 0.41932 0.86144 0.0
H2367 H 0.22887 0.45947 0.88256 0.0
H2368 H 0.27217 0.47286 0.8347 0.0
H2369 H 0.34414 0.48145 0.84242 0.0
H2370 H 0.28298 0.46756 0.82083 0.0
H2371 H 0.35376 0.47615 0.82844 0.0
H2372 H 0.23993 0.52628 0.86675 0.0
H2373 H 0.21571 0.48427 0.84453 0.0
H2374 H 0.22587 0.36479 0.85447 0.0
H2375 H 0.26248 0.38923 0.83147 0.0
Li2376 Li 0.47465 0.85501 0.97528 0.0
Li2377 Li 0.51709 0.88343 0.98106 0.0
Li2378 Li 0.51191 0.86895 0.96701 0.0
Li2379 Li 0.50478 0.83954 0.97766 0.0
C2380 C 0.4837 0.90036 0.9715 0.0
N2381 N 0.44975 0.91854 0.97068 0.0
C2382 C 0.48142 0.91403 0.97789 0.0
C2383 C 0.46852 0.89581 0.96472 0.0
C2384 C 0.46425 0.92314 0.97734 0.0
C2385 C 0.45149 0.90515 0.96441 0.0
C2386 C 0.47776 0.8332 0.99136 0.0
C2387 C 0.48057 0.81366 0.00361 0.0
N2388 N 0.45567 0.79502 0.00277 0.0
C2389 C 0.45213 0.81386 0.99065 0.0
C2390 C 0.49205 0.83313 0.99793 0.0
C2391 C 0.44134 0.79474 0.99646 0.0
C2392 C 0.42313 0.83325 0.96997 0.0
N2393 N 0.43984 0.84691 0.97588 0.0
C2394 C 0.40637 0.84699 0.9835 0.0
C2395 C 0.4321 0.8542 0.98251 0.0
C2396 C 0.38863 0.8325 0.97755 0.0
C2397 C 0.39732 0.82599 0.97066 0.0
H2398 H 0.42968 0.82739 0.96483 0.0
H2399 H 0.44585 0.86496 0.98713 0.0
C2400 C 0.54547 0.93529 0.98436 0.0
N2401 N 0.53284 0.91189 0.98789 0.0
C2402 C 0.54711 0.95654 0.98823 0.0
C2403 C 0.52564 0.92964 0.99963 0.0
C2404 C 0.5241 0.90885 0.9955 0.0
C2405 C 0.53572 0.95338 0.99576 0.0
H2406 H 0.55139 0.93683 0.9782 0.0
H2407 H 0.51333 0.88986 0.99802 0.0
C2408 C 0.48104 0.8236 0.96091 0.0
N2409 N 0.47984 0.80487 0.94576 0.0
C2410 C 0.49114 0.80751 0.95952 0.0
C2411 C 0.47024 0.83007 0.95458 0.0
C2412 C 0.49033 0.79823 0.95183 0.0
C2413 C 0.46988 0.82046 0.94697 0.0
C2414 C 0.55832 0.87303 0.97885 0.0
C2415 C 0.57839 0.87362 0.97451 0.0
C2416 C 0.55969 0.87442 0.98716 0.0
C2417 C 0.5994 0.87526 0.97858 0.0
C2418 C 0.581 0.87605 0.99102 0.0
N2419 N 0.60024 0.87641 0.98668 0.0
C2420 C 0.51946 0.89123 0.95147 0.0
C2421 C 0.53826 0.8655 0.95396 0.0
C2422 C 0.5249 0.89208 0.94334 0.0
N2423 N 0.52528 0.87722 0.95651 0.0
C2424 C 0.54405 0.86582 0.94591 0.0
C2425 C 0.53647 0.87841 0.94045 0.0
H2426 H 0.50939 0.90058 0.95367 0.0
H2427 H 0.54259 0.85447 0.95811 0.0
C2428 C 0.48087 0.78817 0.98037 0.0
N2429 N 0.5049 0.80884 0.98032 0.0
C2430 C 0.47707 0.76369 0.98148 0.0
C2431 C 0.52299 0.78176 0.98217 0.0
C2432 C 0.5259 0.80617 0.98124 0.0
C2433 C 0.49827 0.76025 0.98229 0.0
H2434 H 0.46462 0.79063 0.97918 0.0
H2435 H 0.54487 0.82268 0.98096 0.0
O2436 O 0.50013 0.89089 0.97196 0.0
O2437 O 0.48871 0.85215 0.98571 0.0
O2438 O 0.48219 0.83339 0.96837 0.0
O2439 O 0.53762 0.87136 0.97495 0.0
H2440 H 0.49244 0.91727 0.98327 0.0
H2441 H 0.46949 0.88477 0.95979 0.0
H2442 H 0.46234 0.93373 0.98225 0.0
H2443 H 0.43956 0.90164 0.95921 0.0
H2444 H 0.49146 0.8134 0.0087 0.0
H2445 H 0.44077 0.81315 0.98558 0.0
H2446 H 0.51179 0.84789 0.99867 0.0
H2447 H 0.42161 0.77958 0.99594 0.0
H2448 H 0.40031 0.85228 0.98891 0.0
H2449 H 0.3841 0.81443 0.96601 0.0
H2450 H 0.55497 0.97461 0.98508 0.0
H2451 H 0.51639 0.92647 0.00539 0.0
H2452 H 0.49987 0.8025 0.96429 0.0
H2453 H 0.46279 0.84288 0.95547 0.0
H2454 H 0.49819 0.78587 0.95068 0.0
H2455 H 0.46184 0.82556 0.942 0.0
H2456 H 0.57774 0.87274 0.96806 0.0
H2457 H 0.54452 0.87433 0.99059 0.0
H2458 H 0.61502 0.87562 0.97529 0.0
H2459 H 0.58225 0.87707 0.99745 0.0
H2460 H 0.51867 0.90194 0.93932 0.0
H2461 H 0.55331 0.85534 0.94392 0.0
H2462 H 0.45776 0.74743 0.98132 0.0
H2463 H 0.53975 0.77964 0.98266 0.0
Li2464 Li 0.12142 0.63549 0.97859 0.0
Li2465 Li 0.15354 0.62677 0.9722 0.0
Li2466 Li 0.16575 0.66989 0.97693 0.0
Li2467 Li 0.14054 0.65357 0.96499 0.0
C2468 C 0.1659 0.6437 0.99013 0.0
N2469 N 0.19444 0.65733 0.00401 0.0
C2470 C 0.18367 0.63563 0.99146 0.0
C2471 C 0.16248 0.65849 0.99589 0.0
C2472 C 0.19795 0.64277 0.99851 0.0
C2473 C 0.17715 0.66525 0.00285 0.0
C2474 C 0.10953 0.59284 0.96566 0.0
C2475 C 0.10696 0.56305 0.9556 0.0
N2476 N 0.09186 0.54322 0.96052 0.0
C2477 C 0.09392 0.57216 0.97061 0.0
C2478 C 0.11604 0.58827 0.95808 0.0
C2479 C 0.0852 0.54722 0.9679 0.0
C2480 C 0.06836 0.60886 0.98087 0.0
N2481 N 0.09123 0.61709 0.98455 0.0
C2482 C 0.07215 0.58353 0.99414 0.0
C2483 C 0.0933 0.6057 0.99127 0.0
C2484 C 0.04874 0.573 0.99002 0.0
C2485 C 0.04661 0.58678 0.98357 0.0
H2486 H 0.06757 0.61782 0.97537 0.0
H2487 H 0.11189 0.6121 0.99389 0.0
C2488 C 0.18167 0.60345 0.96668 0.0
N2489 N 0.1629 0.60115 0.97167 0.0
C2490 C 0.18932 0.5851 0.96676 0.0
C2491 C 0.158 0.56228 0.97707 0.0
C2492 C 0.151 0.58109 0.97679 0.0
C2493 C 0.17763 0.56431 0.97207 0.0
H2494 H 0.19118 0.61987 0.96279 0.0
H2495 H 0.1364 0.58003 0.98079 0.0
C2496 C 0.13313 0.69119 0.97706 0.0
N2497 N 0.13157 0.73321 0.98291 0.0
C2498 C 0.14002 0.71244 0.97217 0.0
C2499 C 0.12504 0.69109 0.98487 0.0
C2500 C 0.1392 0.73356 0.97526 0.0
C2501 C 0.12452 0.71259 0.98774 0.0
C2502 C 0.18998 0.67099 0.96035 0.0
C2503 C 0.20848 0.69703 0.96043 0.0
C2504 C 0.18607 0.65665 0.95341 0.0
C2505 C 0.22262 0.70832 0.95352 0.0
C2506 C 0.20055 0.66867 0.94662 0.0
N2507 N 0.21837 0.69404 0.94682 0.0
C2508 C 0.21483 0.69471 0.98238 0.0
C2509 C 0.19783 0.72266 0.98268 0.0
C2510 C 0.23885 0.71448 0.98462 0.0
N2511 N 0.19491 0.69902 0.98143 0.0
C2512 C 0.22187 0.74329 0.98472 0.0
C2513 C 0.24267 0.7392 0.98563 0.0
H2514 H 0.21233 0.67608 0.981 0.0
H2515 H 0.18201 0.72592 0.98179 0.0
C2516 C 0.11289 0.64417 0.9506 0.0
N2517 N 0.13366 0.66193 0.95469 0.0
C2518 C 0.10919 0.64859 0.94267 0.0
C2519 C 0.14786 0.68986 0.94342 0.0
C2520 C 0.15035 0.68492 0.95139 0.0
C2521 C 0.12737 0.67131 0.93885 0.0
H2522 H 0.09951 0.62629 0.95343 0.0
H2523 H 0.16627 0.69907 0.95486 0.0
O2524 O 0.15194 0.63714 0.98323 0.0
O2525 O 0.11861 0.61743 0.96825 0.0
O2526 O 0.13347 0.67024 0.97411 0.0
O2527 O 0.17582 0.65963 0.96705 0.0
H2528 H 0.1866 0.62421 0.98706 0.0
H2529 H 0.14877 0.66482 0.99496 0.0
H2530 H 0.21188 0.63679 0.9996 0.0
H2531 H 0.17479 0.67681 0.00734 0.0
H2532 H 0.11192 0.55924 0.94976 0.0
H2533 H 0.08885 0.57527 0.97651 0.0
H2534 H 0.12801 0.60402 0.95417 0.0
H2535 H 0.0732 0.53105 0.97168 0.0
H2536 H 0.0749 0.5735 0.99905 0.0
H2537 H 0.02884 0.57956 0.9803 0.0
H2538 H 0.20489 0.58771 0.96292 0.0
H2539 H 0.1484 0.54652 0.98122 0.0
H2540 H 0.14606 0.71267 0.96608 0.0
H2541 H 0.11908 0.67454 0.98866 0.0
H2542 H 0.14463 0.75022 0.97157 0.0
H2543 H 0.11841 0.71285 0.99378 0.0
H2544 H 0.21174 0.70848 0.96572 0.0
H2545 H 0.17183 0.63652 0.95324 0.0
H2546 H 0.23691 0.72847 0.95348 0.0
H2547 H 0.1976 0.65783 0.9412 0.0
H2548 H 0.25468 0.71083 0.98508 0.0
H2549 H 0.22437 0.7623 0.98535 0.0
H2550 H 0.09255 0.63403 0.93953 0.0
H2551 H 0.16257 0.7076 0.94083 0.0
Li2552 Li 0.37257 0.52318 0.97767 0.0
Li2553 Li 0.36248 0.48121 0.98233 0.0
Li2554 Li 0.35149 0.48773 0.96835 0.0
Li2555 Li 0.32717 0.48969 0.97965 0.0
C2556 C 0.4112 0.51879 0.97285 0.0
N2557 N 0.46276 0.55472 0.972 0.0
C2558 C 0.42675 0.52448 0.9796 0.0
C2559 C 0.42188 0.53139 0.96567 0.0
C2560 C 0.45277 0.54267 0.97904 0.0
C2561 C 0.44798 0.54951 0.96536 0.0
C2562 C 0.34634 0.49862 0.99549 0.0
C2563 C 0.31535 0.4678 0.00464 0.0
N2564 N 0.32845 0.4834 0.01085 0.0
C2565 C 0.35933 0.51448 0.00197 0.0
C2566 C 0.32405 0.4752 0.99685 0.0
C2567 C 0.35005 0.50639 0.00968 0.0
C2568 C 0.40179 0.57623 0.97332 0.0
N2569 N 0.39699 0.5585 0.97908 0.0
C2570 C 0.42559 0.59103 0.98807 0.0
C2571 C 0.40892 0.56532 0.98627 0.0
C2572 C 0.43028 0.6098 0.98234 0.0
C2573 C 0.41863 0.60216 0.97482 0.0
H2574 H 0.39214 0.57039 0.96765 0.0
H2575 H 0.40521 0.55074 0.99065 0.0
C2576 C 0.39317 0.46011 0.98347 0.0
N2577 N 0.37826 0.46584 0.98812 0.0
C2578 C 0.41351 0.45858 0.98682 0.0
C2579 C 0.40068 0.46559 -0.00019 0.0
C2580 C 0.38076 0.46732 0.99619 0.0
C2581 C 0.41816 0.46267 0.99503 0.0
H2582 H 0.39094 0.45939 0.97706 0.0
H2583 H 0.36887 0.47198 -0.00021 0.0
C2584 C 0.33757 0.52261 0.96386 0.0
N2585 N 0.32645 0.53732 0.94948 0.0
C2586 C 0.31354 0.52022 0.9626 0.0
C2587 C 0.35601 0.5327 0.95782 0.0
C2588 C 0.30828 0.52774 0.95529 0.0
C2589 C 0.35 0.53995 0.95059 0.0
C2590 C 0.31081 0.43565 0.97715 0.0
C2591 C 0.29204 0.42394 0.97127 0.0
C2592 C 0.30972 0.42184 0.98398 0.0
C2593 C 0.27199 0.3989 0.97244 0.0
C2594 C 0.28938 0.39683 0.98493 0.0
N2595 N 0.27107 0.38599 0.97919 0.0
C2596 C 0.3671 0.47625 0.95362 0.0
C2597 C 0.32552 0.47131 0.95385 0.0
C2598 C 0.3649 0.47088 0.94545 0.0
N2599 N 0.34776 0.47696 0.95756 0.0
C2600 C 0.32266 0.46624 0.9457 0.0
C2601 C 0.3427 0.46648 0.94139 0.0
H2602 H 0.38447 0.48055 0.95676 0.0
H2603 H 0.31036 0.47175 0.95716 0.0
C2604 C 0.29467 0.50266 0.98755 0.0
N2605 N 0.2947 0.48567 0.98223 0.0
C2606 C 0.27333 0.50573 0.98824 0.0
C2607 C 0.25205 0.47314 0.97815 0.0
C2608 C 0.27377 0.47051 0.97771 0.0
C2609 C 0.25207 0.4916 0.98327 0.0
H2610 H 0.3119 0.51523 0.99083 0.0
H2611 H 0.27465 0.45798 0.97329 0.0
O2612 O 0.38558 0.50126 0.97331 0.0
O2613 O 0.35515 0.50632 0.98788 0.0
O2614 O 0.34283 0.51478 0.97092 0.0
O2615 O 0.33088 0.46 0.97604 0.0
H2616 H 0.41878 0.51527 0.98525 0.0
H2617 H 0.41017 0.52728 0.96039 0.0
H2618 H 0.465 0.5473 0.98423 0.0
H2619 H 0.45649 0.55944 0.95985 0.0
H2620 H 0.29813 0.44969 0.00576 0.0
H2621 H 0.37641 0.53284 0.00107 0.0
H2622 H 0.31336 0.463 0.99193 0.0
H2623 H 0.36 0.51843 0.01474 0.0
H2624 H 0.4344 0.59624 0.99391 0.0
H2625 H 0.42162 0.61617 0.97028 0.0
H2626 H 0.42649 0.45601 0.98297 0.0
H2627 H 0.40371 0.46881 0.00617 0.0
H2628 H 0.2991 0.51268 0.96722 0.0
H2629 H 0.3746 0.53444 0.95865 0.0
H2630 H 0.28974 0.52593 0.95424 0.0
H2631 H 0.36401 0.54754 0.94584 0.0
H2632 H 0.29284 0.4341 0.96587 0.0
H2633 H 0.32446 0.4303 0.9885 0.0
H2634 H 0.25722 0.38971 0.96796 0.0
H2635 H 0.28821 0.38601 0.99022 0.0
H2636 H 0.38075 0.47126 0.94228 0.0
H2637 H 0.30519 0.46272 0.94276 0.0
H2638 H 0.27438 0.52057 0.99213 0.0
H2639 H 0.23605 0.46198 0.9742 0.0
Li2640 Li 0.16142 0.50395 0.47806 0.0
Li2641 Li 0.15375 0.53773 0.47438 0.0
Li2642 Li 0.11905 0.49764 0.48 0.0
Li2643 Li 0.13656 0.49756 0.46618 0.0
C2644 C 0.1659 0.53473 0.4917 0.0
N2645 N 0.19598 0.55719 0.50502 0.0
C2646 C 0.18673 0.55973 0.49131 0.0
C2647 C 0.16026 0.5213 0.49891 0.0
C2648 C 0.20172 0.5707 0.4981 0.0
C2649 C 0.17573 0.53295 0.50556 0.0
C2650 C 0.19686 0.53063 0.46681 0.0
C2651 C 0.22786 0.52249 0.46035 0.0
N2652 N 0.24685 0.54172 0.46466 0.0
C2653 C 0.21673 0.5505 0.47111 0.0
C2654 C 0.20248 0.51664 0.46133 0.0
C2655 C 0.24186 0.55574 0.46997 0.0
C2656 C 0.18999 0.47916 0.47703 0.0
N2657 N 0.18769 0.49685 0.48144 0.0
C2658 C 0.22973 0.51287 0.48675 0.0
C2659 C 0.20657 0.51273 0.48652 0.0
C2660 C 0.23359 0.49649 0.4817 0.0
C2661 C 0.21282 0.47848 0.47712 0.0
H2662 H 0.1751 0.46725 0.47286 0.0
H2663 H 0.20494 0.5271 0.48982 0.0
C2664 C 0.15401 0.5828 0.47878 0.0
N2665 N 0.16547 0.57336 0.47396 0.0
C2666 C 0.16192 0.60886 0.47867 0.0
C2667 C 0.19364 0.61502 0.46876 0.0
C2668 C 0.18479 0.58877 0.46895 0.0
C2669 C 0.18218 0.62547 0.47365 0.0
H2670 H 0.13866 0.56999 0.4827 0.0
H2671 H 0.19346 0.58069 0.46516 0.0
C2672 C 0.12399 0.45237 0.47976 0.0
N2673 N 0.11569 0.41106 0.48905 0.0
C2674 C 0.12279 0.43077 0.47624 0.0
C2675 C 0.1207 0.45284 0.48798 0.0
C2676 C 0.11867 0.41011 0.48104 0.0
C2677 C 0.11659 0.43181 0.49259 0.0
C2678 C 0.11144 0.53291 0.46783 0.0
C2679 C 0.0938 0.5362 0.47235 0.0
C2680 C 0.12294 0.54849 0.46118 0.0
C2681 C 0.08795 0.55503 0.47013 0.0
C2682 C 0.11663 0.56715 0.45917 0.0
N2683 N 0.0994 0.57 0.46365 0.0
C2684 C 0.09098 0.49987 0.49265 0.0
C2685 C 0.06586 0.47135 0.48234 0.0
C2686 C 0.06952 0.49957 0.49584 0.0
N2687 N 0.08887 0.48661 0.48588 0.0
C2688 C 0.04383 0.47052 0.48533 0.0
C2689 C 0.04586 0.48579 0.49193 0.0
H2690 H 0.10963 0.51248 0.49517 0.0
H2691 H 0.06503 0.46175 0.4768 0.0
C2692 C 0.13565 0.46521 0.45411 0.0
N2693 N 0.12888 0.48304 0.45585 0.0
C2694 C 0.13272 0.45557 0.44638 0.0
C2695 C 0.11526 0.48234 0.44245 0.0
C2696 C 0.11828 0.49124 0.45028 0.0
C2697 C 0.12297 0.46459 0.44037 0.0
H2698 H 0.14407 0.45909 0.45868 0.0
H2699 H 0.11278 0.50518 0.45184 0.0
O2700 O 0.15075 0.52374 0.48513 0.0
O2701 O 0.17206 0.52491 0.46794 0.0
O2702 O 0.12823 0.47288 0.47516 0.0
O2703 O 0.11791 0.51499 0.47002 0.0
H2704 H 0.19153 0.57054 0.48584 0.0
H2705 H 0.14411 0.50212 0.4994 0.0
H2706 H 0.21796 0.58996 0.49786 0.0
H2707 H 0.17161 0.52272 0.51116 0.0
H2708 H 0.23244 0.51167 0.45618 0.0
H2709 H 0.21277 0.56155 0.47535 0.0
H2710 H 0.1874 0.5013 0.45792 0.0
H2711 H 0.25738 0.57089 0.47332 0.0
H2712 H 0.24518 0.52743 0.49028 0.0
H2713 H 0.21476 0.46527 0.47321 0.0
H2714 H 0.15219 0.61584 0.48245 0.0
H2715 H 0.20964 0.627 0.46491 0.0
H2716 H 0.12511 0.42998 0.46987 0.0
H2717 H 0.12122 0.46922 0.49076 0.0
H2718 H 0.11781 0.39332 0.4784 0.0
H2719 H 0.11407 0.43196 0.49897 0.0
H2720 H 0.08485 0.52453 0.47755 0.0
H2721 H 0.13707 0.54661 0.45773 0.0
H2722 H 0.07438 0.55782 0.47359 0.0
H2723 H 0.12554 0.57947 0.45408 0.0
H2724 H 0.07175 0.51136 0.50099 0.0
H2725 H 0.02594 0.45985 0.48211 0.0
H2726 H 0.13852 0.44159 0.44511 0.0
H2727 H 0.10793 0.49011 0.43802 0.0
Li2728 Li 0.50653 0.66243 0.4771 0.0
Li2729 Li 0.47143 0.62064 0.4747 0.0
Li2730 Li 0.5119 0.62593 0.47955 0.0
Li2731 Li 0.50788 0.64006 0.46545 0.0
C2732 C 0.48963 0.64125 0.49273 0.0
N2733 N 0.49243 0.65515 0.50856 0.0
C2734 C 0.4677 0.63769 0.49671 0.0
C2735 C 0.51287 0.65147 0.49684 0.0
C2736 C 0.46955 0.64496 0.5047 0.0
C2737 C 0.51392 0.65847 0.50483 0.0
C2738 C 0.46602 0.66003 0.46821 0.0
C2739 C 0.44539 0.68133 0.46216 0.0
N2740 N 0.43323 0.67956 0.46916 0.0
C2741 C 0.45332 0.65846 0.47535 0.0
C2742 C 0.462 0.67153 0.46156 0.0
C2743 C 0.4368 0.66839 0.4757 0.0
C2744 C 0.51943 0.712 0.47333 0.0
N2745 N 0.51309 0.69616 0.47975 0.0
C2746 C 0.50008 0.72181 0.487 0.0
C2747 C 0.50487 0.70147 0.48667 0.0
C2748 C 0.50413 0.73687 0.4802 0.0
C2749 C 0.51529 0.73278 0.47345 0.0
H2750 H 0.52501 0.70687 0.46781 0.0
H2751 H 0.49959 0.68871 0.49167 0.0
C2752 C 0.42935 0.58215 0.48246 0.0
N2753 N 0.43597 0.59721 0.47587 0.0
C2754 C 0.40368 0.56497 0.48412 0.0
C2755 C 0.39213 0.5788 0.47206 0.0
C2756 C 0.4181 0.59558 0.4706 0.0
C2757 C 0.38461 0.56343 0.47896 0.0
H2758 H 0.44411 0.58371 0.48648 0.0
H2759 H 0.42398 0.60766 0.46536 0.0
C2760 C 0.5557 0.68304 0.47349 0.0
N2761 N 0.59448 0.7337 0.47339 0.0
C2762 C 0.56599 0.69558 0.46627 0.0
C2763 C 0.5655 0.69619 0.48067 0.0
C2764 C 0.58549 0.72121 0.46634 0.0
C2765 C 0.58499 0.72181 0.48049 0.0
C2766 C 0.47247 0.58206 0.46778 0.0
C2767 C 0.46494 0.56069 0.47267 0.0
C2768 C 0.46006 0.57935 0.46051 0.0
C2769 C 0.44495 0.53689 0.47021 0.0
C2770 C 0.44014 0.55523 0.45826 0.0
N2771 N 0.43306 0.53468 0.46312 0.0
C2772 C 0.50755 0.59347 0.49186 0.0
C2773 C 0.53472 0.59554 0.48131 0.0
C2774 C 0.50517 0.57057 0.49454 0.0
N2775 N 0.52152 0.60504 0.48522 0.0
C2776 C 0.53271 0.57244 0.48378 0.0
C2777 C 0.51681 0.55911 0.49027 0.0
H2778 H 0.49585 0.60026 0.49457 0.0
H2779 H 0.54468 0.6045 0.47584 0.0
C2780 C 0.51651 0.66113 0.45031 0.0
N2781 N 0.51744 0.6426 0.45464 0.0
C2782 C 0.52243 0.66381 0.44221 0.0
C2783 C 0.53056 0.62847 0.44319 0.0
C2784 C 0.52437 0.62641 0.4513 0.0
C2785 C 0.52952 0.64733 0.43853 0.0
H2786 H 0.51111 0.6738 0.45316 0.0
H2787 H 0.52491 0.61184 0.45492 0.0
O2788 O 0.48811 0.63418 0.4849 0.0
O2789 O 0.48272 0.65087 0.46776 0.0
O2790 O 0.53638 0.65799 0.47351 0.0
O2791 O 0.49153 0.60563 0.47017 0.0
H2792 H 0.44946 0.62946 0.49366 0.0
H2793 H 0.52977 0.65349 0.49393 0.0
H2794 H 0.45278 0.64247 0.50784 0.0
H2795 H 0.53179 0.66642 0.50807 0.0
H2796 H 0.44218 0.69035 0.45706 0.0
H2797 H 0.45624 0.64978 0.48056 0.0
H2798 H 0.47163 0.67295 0.45598 0.0
H2799 H 0.42691 0.66733 0.4812 0.0
H2800 H 0.49133 0.72445 0.49229 0.0
H2801 H 0.51821 0.74378 0.46805 0.0
H2802 H 0.39884 0.55321 0.48942 0.0
H2803 H 0.3781 0.57851 0.46796 0.0
H2804 H 0.55904 0.68567 0.46066 0.0
H2805 H 0.55803 0.68686 0.48631 0.0
H2806 H 0.5935 0.73116 0.46079 0.0
H2807 H 0.59256 0.73225 0.48599 0.0
H2808 H 0.47426 0.56249 0.47834 0.0
H2809 H 0.46558 0.59578 0.45669 0.0
H2810 H 0.43885 0.5202 0.47394 0.0
H2811 H 0.43026 0.55285 0.45266 0.0
H2812 H 0.49222 0.56075 0.49944 0.0
H2813 H 0.54208 0.56427 0.48033 0.0
H2814 H 0.52089 0.67832 0.43885 0.0
H2815 H 0.53612 0.61549 0.44062 0.0
Li2816 Li 0.35584 0.86786 0.46627 0.0
Li2817 Li 0.37425 0.87898 0.48049 0.0
Li2818 Li 0.36915 0.84135 0.47359 0.0
Li2819 Li 0.33198 0.84276 0.47778 0.0
C2820 C 0.41259 0.87935 0.46746 0.0
N2821 N 0.45683 0.88147 0.46195 0.0
C2822 C 0.43548 0.89295 0.47171 0.0
C2823 C 0.41229 0.86712 0.46034 0.0
C2824 C 0.45762 0.89373 0.46885 0.0
C2825 C 0.43482 0.86832 0.45768 0.0
C2826 C 0.32349 0.88028 0.47901 0.0
C2827 C 0.29922 0.87926 0.49056 0.0
N2828 N 0.28068 0.87827 0.4857 0.0
C2829 C 0.30429 0.87937 0.47412 0.0
C2830 C 0.32105 0.88033 0.48729 0.0
C2831 C 0.28276 0.87832 0.47762 0.0
C2832 C 0.33048 0.86769 0.45234 0.0
N2833 N 0.35378 0.87896 0.45594 0.0
C2834 C 0.37475 0.89771 0.44366 0.0
C2835 C 0.37566 0.8944 0.45187 0.0
C2836 C 0.3511 0.88497 0.43967 0.0
C2837 C 0.32866 0.87056 0.44415 0.0
H2838 H 0.3135 0.85508 0.45573 0.0
H2839 H 0.39393 0.90293 0.4549 0.0
C2840 C 0.41028 0.89486 0.49206 0.0
N2841 N 0.39831 0.90403 0.48737 0.0
C2842 C 0.43244 0.91158 0.49617 0.0
C2843 C 0.42889 0.94706 0.49093 0.0
C2844 C 0.40677 0.92952 0.48682 0.0
C2845 C 0.44245 0.93813 0.49551 0.0
H2846 H 0.40364 0.87458 0.49214 0.0
H2847 H 0.39715 0.93625 0.48289 0.0
C2848 C 0.3285 0.81055 0.46242 0.0
N2849 N 0.30966 0.76968 0.45194 0.0
C2850 C 0.30941 0.78619 0.46486 0.0
C2851 C 0.33782 0.81411 0.45461 0.0
C2852 C 0.30018 0.76578 0.45949 0.0
C2853 C 0.32812 0.79321 0.44942 0.0
C2854 C 0.35216 0.82279 0.48923 0.0
C2855 C 0.34053 0.79847 0.48575 0.0
C2856 C 0.35639 0.82529 0.49746 0.0
C2857 C 0.33318 0.777 0.49057 0.0
C2858 C 0.34877 0.80335 0.50208 0.0
N2859 N 0.3374 0.77986 0.49857 0.0
C2860 C 0.40648 0.83092 0.4783 0.0
C2861 C 0.37922 0.80083 0.46865 0.0
C2862 C 0.42053 0.81843 0.47901 0.0
N2863 N 0.38635 0.82209 0.47318 0.0
C2864 C 0.39248 0.78741 0.46929 0.0
C2865 C 0.41338 0.79624 0.47453 0.0
H2866 H 0.41138 0.84758 0.48193 0.0
H2867 H 0.36303 0.79396 0.46468 0.0
C2868 C 0.28 0.81402 0.47498 0.0
N2869 N 0.29735 0.821 0.48099 0.0
C2870 C 0.25666 0.79121 0.47549 0.0
C2871 C 0.26842 0.78471 0.48869 0.0
C2872 C 0.29122 0.80806 0.48801 0.0
C2873 C 0.25165 0.77513 0.48213 0.0
H2874 H 0.2854 0.8247 0.46945 0.0
H2875 H 0.30503 0.81437 0.4928 0.0
O2876 O 0.39058 0.87788 0.47026 0.0
O2877 O 0.34441 0.88067 0.47572 0.0
O2878 O 0.33744 0.8309 0.46756 0.0
O2879 O 0.35948 0.84412 0.48464 0.0
H2880 H 0.43617 0.90275 0.47719 0.0
H2881 H 0.39479 0.85657 0.45697 0.0
H2882 H 0.47543 0.90407 0.47211 0.0
H2883 H 0.4348 0.85876 0.45221 0.0
H2884 H 0.29698 0.87915 0.49696 0.0
H2885 H 0.30593 0.87926 0.46769 0.0
H2886 H 0.33576 0.88092 0.49114 0.0
H2887 H 0.26767 0.87749 0.47391 0.0
H2888 H 0.39244 0.90914 0.44042 0.0
H2889 H 0.31011 0.86015 0.44128 0.0
H2890 H 0.44241 0.90372 0.49945 0.0
H2891 H 0.43574 0.96735 0.49031 0.0
H2892 H 0.3017 0.78299 0.47084 0.0
H2893 H 0.35232 0.8328 0.45256 0.0
H2894 H 0.28543 0.74686 0.46131 0.0
H2895 H 0.33521 0.79571 0.44337 0.0
H2896 H 0.33723 0.7962 0.47941 0.0
H2897 H 0.36529 0.84397 0.50026 0.0
H2898 H 0.32411 0.75806 0.48795 0.0
H2899 H 0.35185 0.805 0.50846 0.0
H2900 H 0.43631 0.82557 0.4832 0.0
H2901 H 0.38645 0.77028 0.46576 0.0
H2902 H 0.24389 0.78512 0.4704 0.0
H2903 H 0.26542 0.77325 0.49398 0.0
Li2904 Li 0.15398 0.48632 0.35536 0.0
Li2905 Li 0.18869 0.48324 0.36089 0.0
Li2906 Li 0.15417 0.44648 0.35427 0.0
Li2907 Li 0.14712 0.46219 0.36765 0.0
C2908 C 0.19598 0.50019 0.34509 0.0
N2909 N 0.23084 0.54177 0.33622 0.0
C2910 C 0.20839 0.52472 0.34844 0.0
C2911 C 0.20157 0.49678 0.33725 0.0
C2912 C 0.22586 0.5455 0.34386 0.0
C2913 C 0.21919 0.51805 0.33286 0.0
C2914 C 0.18197 0.51839 0.37111 0.0
C2915 C 0.1973 0.53381 0.3844 0.0
N2916 N 0.20603 0.55824 0.38188 0.0
C2917 C 0.19092 0.54368 0.36867 0.0
C2918 C 0.18504 0.51342 0.37905 0.0
C2919 C 0.2031 0.56355 0.3742 0.0
C2920 C 0.13778 0.52162 0.35628 0.0
N2921 N 0.14603 0.51054 0.35087 0.0
C2922 C 0.15903 0.54561 0.34192 0.0
C2923 C 0.15461 0.521 0.34355 0.0
C2924 C 0.15362 0.55876 0.34781 0.0
C2925 C 0.14121 0.54591 0.35482 0.0
H2926 H 0.13132 0.51296 0.36209 0.0
H2927 H 0.16063 0.5116 0.3393 0.0
C2928 C 0.23615 0.4902 0.3569 0.0
N2929 N 0.22513 0.49949 0.36196 0.0
C2930 C 0.26263 0.50064 0.35678 0.0
C2931 C 0.26623 0.53086 0.36688 0.0
C2932 C 0.23956 0.51938 0.36694 0.0
C2933 C 0.27819 0.52154 0.36173 0.0
H2934 H 0.22426 0.47464 0.35291 0.0
H2935 H 0.2306 0.52679 0.37083 0.0
C2936 C 0.10632 0.45327 0.35396 0.0
N2937 N 0.0701 0.46019 0.34602 0.0
C2938 C 0.08956 0.45848 0.35824 0.0
C2939 C 0.10461 0.45144 0.34565 0.0
C2940 C 0.07139 0.46195 0.35411 0.0
C2941 C 0.08618 0.45504 0.34174 0.0
C2942 C 0.18826 0.44462 0.36845 0.0
C2943 C 0.20043 0.43382 0.36416 0.0
C2944 C 0.19586 0.45278 0.37629 0.0
C2945 C 0.22012 0.43159 0.36776 0.0
C2946 C 0.21563 0.45022 0.37968 0.0
N2947 N 0.22727 0.43978 0.37538 0.0
C2948 C 0.1533 0.41991 0.34044 0.0
C2949 C 0.14582 0.39716 0.3526 0.0
C2950 C 0.15789 0.40218 0.33652 0.0
N2951 N 0.14848 0.41759 0.34839 0.0
C2952 C 0.15067 0.37923 0.34895 0.0
C2953 C 0.15797 0.38228 0.34088 0.0
H2954 H 0.15537 0.43647 0.33728 0.0
H2955 H 0.14242 0.39617 0.35896 0.0
C2956 C 0.12111 0.46774 0.38063 0.0
N2957 N 0.13053 0.45318 0.37762 0.0
C2958 C 0.11257 0.46439 0.38851 0.0
C2959 C 0.12249 0.43032 0.38987 0.0
C2960 C 0.13069 0.43423 0.38195 0.0
C2961 C 0.11397 0.446 0.39329 0.0
H2962 H 0.12151 0.48284 0.37703 0.0
H2963 H 0.13827 0.42294 0.37937 0.0
O2964 O 0.17876 0.47952 0.34948 0.0
O2965 O 0.16969 0.49863 0.36579 0.0
O2966 O 0.12467 0.45048 0.35786 0.0
O2967 O 0.1692 0.44738 0.36499 0.0
H2968 H 0.20459 0.52765 0.35451 0.0
H2969 H 0.19238 0.47793 0.33458 0.0
H2970 H 0.23546 0.56458 0.34637 0.0
H2971 H 0.22361 0.51569 0.32677 0.0
H2972 H 0.19984 0.5302 0.39055 0.0
H2973 H 0.18853 0.54804 0.36259 0.0
H2974 H 0.17805 0.49406 0.38109 0.0
H2975 H 0.21018 0.58318 0.37238 0.0
H2976 H 0.16871 0.55512 0.33646 0.0
H2977 H 0.13713 0.55569 0.35952 0.0
H2978 H 0.27071 0.49239 0.35281 0.0
H2979 H 0.2773 0.54726 0.37069 0.0
H2980 H 0.09073 0.46003 0.36467 0.0
H2981 H 0.11758 0.44754 0.34226 0.0
H2982 H 0.05835 0.46611 0.35734 0.0
H2983 H 0.0847 0.45381 0.33531 0.0
H2984 H 0.19516 0.42775 0.35805 0.0
H2985 H 0.18665 0.46104 0.37973 0.0
H2986 H 0.22982 0.42348 0.36448 0.0
H2987 H 0.22174 0.45654 0.38573 0.0
H2988 H 0.16273 0.40489 0.33024 0.0
H2989 H 0.15069 0.36444 0.3526 0.0
H2990 H 0.10643 0.47707 0.39095 0.0
H2991 H 0.12366 0.41581 0.39336 0.0
Li2992 Li 0.54768 0.70569 0.35178 0.0
Li2993 Li 0.53308 0.69254 0.36574 0.0
Li2994 Li 0.50498 0.67077 0.35422 0.0
Li2995 Li 0.517 0.71471 0.35738 0.0
C2996 C 0.54217 0.65706 0.35185 0.0
N2997 N 0.55046 0.62659 0.34136 0.0
C2998 C 0.55174 0.64162 0.35463 0.0
C2999 C 0.53679 0.65699 0.34374 0.0
C3000 C 0.55581 0.62636 0.34923 0.0
C3001 C 0.54112 0.64146 0.33853 0.0
C3002 C 0.56024 0.75199 0.36307 0.0
C3003 C 0.56466 0.78422 0.37247 0.0
N3004 N 0.57512 0.80227 0.36665 0.0
C3005 C 0.57106 0.77086 0.35718 0.0
C3006 C 0.55706 0.75869 0.37079 0.0
C3007 C 0.57847 0.79617 0.3591 0.0
C3008 C 0.5743 0.73208 0.33837 0.0
N3009 N 0.57712 0.72296 0.34548 0.0
C3010 C 0.62013 0.75721 0.34668 0.0
C3011 C 0.5998 0.73414 0.34944 0.0
C3012 C 0.61673 0.76878 0.33987 0.0
C3013 C 0.5941 0.75513 0.33541 0.0
H3014 H 0.55572 0.72332 0.33555 0.0
H3015 H 0.60104 0.72693 0.35523 0.0
C3016 C 0.52256 0.66663 0.3802 0.0
N3017 N 0.54084 0.68738 0.37623 0.0
C3018 C 0.52576 0.66318 0.38825 0.0
C3019 C 0.56723 0.7018 0.38785 0.0
C3020 C 0.5631 0.70462 0.37981 0.0
C3021 C 0.54816 0.68113 0.39223 0.0
H3022 H 0.50503 0.65328 0.37718 0.0
H3023 H 0.57732 0.7209 0.37647 0.0
C3024 C 0.49468 0.69645 0.34239 0.0
N3025 N 0.45235 0.68912 0.33381 0.0
C3026 C 0.47248 0.69225 0.34635 0.0
C3027 C 0.49531 0.69699 0.33405 0.0
C3028 C 0.4513 0.68858 0.34191 0.0
C3029 C 0.47372 0.69322 0.32983 0.0
C3030 C 0.47935 0.68133 0.36929 0.0
C3031 C 0.45339 0.66543 0.3675 0.0
C3032 C 0.48642 0.69373 0.37667 0.0
C3033 C 0.43494 0.66248 0.37309 0.0
C3034 C 0.46738 0.6903 0.3821 0.0
N3035 N 0.44225 0.67489 0.38022 0.0
C3036 C 0.46884 0.62175 0.35814 0.0
C3037 C 0.46249 0.63246 0.34508 0.0
C3038 C 0.44436 0.60028 0.35819 0.0
N3039 N 0.47683 0.63796 0.35181 0.0
C3040 C 0.43763 0.61148 0.34493 0.0
C3041 C 0.42779 0.59582 0.35173 0.0
H3042 H 0.48074 0.62663 0.36341 0.0
H3043 H 0.46944 0.64527 0.34004 0.0
C3044 C 0.51215 0.75379 0.35019 0.0
N3045 N 0.50766 0.7408 0.35718 0.0
C3046 C 0.50546 0.77269 0.3493 0.0
C3047 C 0.49119 0.7658 0.36301 0.0
C3048 C 0.49783 0.74673 0.36359 0.0
C3049 C 0.4946 0.77869 0.35574 0.0
H3050 H 0.52083 0.74935 0.34526 0.0
H3051 H 0.4951 0.73674 0.36916 0.0
O3052 O 0.53801 0.67198 0.3571 0.0
O3053 O 0.55245 0.72701 0.36127 0.0
O3054 O 0.51575 0.70009 0.34658 0.0
O3055 O 0.4977 0.68385 0.36397 0.0
H3056 H 0.55595 0.64144 0.3609 0.0
H3057 H 0.52933 0.66873 0.34146 0.0
H3058 H 0.56322 0.61432 0.3513 0.0
H3059 H 0.53704 0.64121 0.33224 0.0
H3060 H 0.56221 0.78968 0.37841 0.0
H3061 H 0.57341 0.76598 0.35116 0.0
H3062 H 0.54864 0.74432 0.37541 0.0
H3063 H 0.58679 0.81095 0.35459 0.0
H3064 H 0.63742 0.76701 0.35023 0.0
H3065 H 0.59058 0.76345 0.33018 0.0
H3066 H 0.51033 0.64721 0.39138 0.0
H3067 H 0.58495 0.71589 0.39063 0.0
H3068 H 0.47161 0.69195 0.35277 0.0
H3069 H 0.51223 0.70007 0.33087 0.0
H3070 H 0.43404 0.68531 0.34491 0.0
H3071 H 0.47395 0.69351 0.32338 0.0
H3072 H 0.44752 0.65541 0.36186 0.0
H3073 H 0.50639 0.706 0.37818 0.0
H3074 H 0.41479 0.65027 0.37178 0.0
H3075 H 0.4726 0.69988 0.38782 0.0
H3076 H 0.43798 0.58828 0.36346 0.0
H3077 H 0.42573 0.6089 0.33979 0.0
H3078 H 0.50866 0.78246 0.34363 0.0
H3079 H 0.48278 0.7699 0.3681 0.0
Li3080 Li 0.30757 0.83444 0.36712 0.0
Li3081 Li 0.29139 0.83267 0.35304 0.0
Li3082 Li 0.29236 0.79658 0.35865 0.0
Li3083 Li 0.33145 0.83409 0.35559 0.0
C3084 C 0.24885 0.79178 0.36387 0.0
N3085 N 0.20116 0.74897 0.36614 0.0
C3086 C 0.23069 0.78292 0.35773 0.0
C3087 C 0.24262 0.77894 0.37118 0.0
C3088 C 0.20673 0.76124 0.359 0.0
C3089 C 0.21845 0.75731 0.37221 0.0
C3090 C 0.34284 0.88076 0.35471 0.0
C3091 C 0.36404 0.9039 0.34275 0.0
N3092 N 0.38521 0.9195 0.34713 0.0
C3093 C 0.36477 0.89705 0.35909 0.0
C3094 C 0.3424 0.8842 0.34648 0.0
C3095 C 0.38601 0.91652 0.35514 0.0
C3096 C 0.33517 0.86178 0.38037 0.0
N3097 N 0.31094 0.8479 0.37751 0.0
C3098 C 0.29356 0.85105 0.38997 0.0
C3099 C 0.29025 0.84278 0.38205 0.0
C3100 C 0.31843 0.86497 0.39318 0.0
C3101 C 0.33939 0.87081 0.38819 0.0
H3102 H 0.35119 0.8653 0.37662 0.0
H3103 H 0.27118 0.83163 0.3796 0.0
C3104 C 0.26638 0.83312 0.33899 0.0
N3105 N 0.27018 0.84016 0.34678 0.0
C3106 C 0.24474 0.83019 0.33502 0.0
C3107 C 0.2324 0.84343 0.34705 0.0
C3108 C 0.25436 0.84629 0.35076 0.0
C3109 C 0.2268 0.83422 0.33918 0.0
H3110 H 0.27908 0.82792 0.33605 0.0
H3111 H 0.25754 0.85105 0.35703 0.0
C3112 C 0.32616 0.79888 0.37107 0.0
N3113 N 0.332 0.76971 0.38272 0.0
C3114 C 0.34354 0.79016 0.36999 0.0
C3115 C 0.31194 0.79292 0.37812 0.0
C3116 C 0.34614 0.77538 0.37593 0.0
C3117 C 0.31512 0.77813 0.38393 0.0
C3118 C 0.31263 0.79824 0.34354 0.0
C3119 C 0.32376 0.78557 0.34735 0.0
C3120 C 0.31037 0.79712 0.33524 0.0
C3121 C 0.33252 0.77209 0.3428 0.0
C3122 C 0.31934 0.78342 0.33089 0.0
N3123 N 0.33015 0.77131 0.33473 0.0
C3124 C 0.25753 0.75102 0.35141 0.0
C3125 C 0.27536 0.74356 0.363 0.0
C3126 C 0.24324 0.72482 0.34986 0.0
N3127 N 0.2732 0.7599 0.35789 0.0
C3128 C 0.26175 0.71719 0.36159 0.0
C3129 C 0.24555 0.70763 0.35493 0.0
H3130 H 0.2564 0.76442 0.34738 0.0
H3131 H 0.28782 0.75078 0.3681 0.0
C3132 C 0.38096 0.84692 0.3587 0.0
N3133 N 0.36572 0.84514 0.3525 0.0
C3134 C 0.40323 0.84598 0.35736 0.0
C3135 C 0.39569 0.84525 0.34318 0.0
C3136 C 0.3732 0.84576 0.34482 0.0
C3137 C 0.41018 0.84365 0.34952 0.0
H3138 H 0.37455 0.84659 0.36474 0.0
H3139 H 0.36077 0.84458 0.33999 0.0
O3140 O 0.27262 0.81275 0.3627 0.0
O3141 O 0.32213 0.86104 0.35838 0.0
O3142 O 0.32366 0.81369 0.36535 0.0
O3143 O 0.30432 0.81201 0.34786 0.0
H3144 H 0.23516 0.79231 0.35199 0.0
H3145 H 0.25627 0.78551 0.37602 0.0
H3146 H 0.19261 0.75409 0.35427 0.0
H3147 H 0.21345 0.74715 0.37783 0.0
H3148 H 0.36403 0.90671 0.33638 0.0
H3149 H 0.36545 0.89459 0.36545 0.0
H3150 H 0.32564 0.87158 0.343 0.0
H3151 H 0.40316 0.92922 0.35845 0.0
H3152 H 0.27679 0.84576 0.3936 0.0
H3153 H 0.35892 0.8819 0.39031 0.0
H3154 H 0.24139 0.82349 0.32891 0.0
H3155 H 0.219 0.84644 0.35053 0.0
H3156 H 0.35491 0.7947 0.36461 0.0
H3157 H 0.29852 0.79951 0.37911 0.0
H3158 H 0.35945 0.76845 0.37515 0.0
H3159 H 0.30416 0.77333 0.3894 0.0
H3160 H 0.32566 0.78613 0.35375 0.0
H3161 H 0.30193 0.80687 0.33216 0.0
H3162 H 0.34123 0.76228 0.34569 0.0
H3163 H 0.31775 0.78246 0.32446 0.0
H3164 H 0.23111 0.71813 0.34462 0.0
H3165 H 0.26387 0.7044 0.36565 0.0
H3166 H 0.41337 0.84463 0.36249 0.0
H3167 H 0.40063 0.84431 0.33704 0.0
H3168 H 0.06416 0.20278 0.186 0.0
H3169 H 0.07167 0.15558 0.16805 0.0
H3170 H 0.02557 0.12684 0.16811 0.0
H3171 H 0.98438 0.11148 0.17471 0.0
H3172 H 0.97618 0.15815 0.19271 0.0
H3173 H 0.02144 0.19017 0.19136 0.0
C3174 C 0.05562 0.18648 0.18199 0.0
C3175 C 0.07145 0.18133 0.17708 0.0
C3176 C 0.02907 0.16945 0.18223 0.0
C3177 C 0.06004 0.16029 0.17184 0.0
C3178 C 0.03364 0.14355 0.17195 0.0
C3179 C 0.99219 0.12891 0.1782 0.0
C3180 C 0.97683 0.13206 0.1839 0.0
C3181 C 0.01814 0.1474 0.17734 0.0
C3182 C 0.98763 0.15477 0.18843 0.0
C3183 C 0.01349 0.17325 0.18762 0.0
H3184 H 0.83799 0.90127 0.1959 0.0
H3185 H 0.84673 0.90305 0.17032 0.0
H3186 H 0.86435 0.87439 0.17134 0.0
H3187 H 0.88135 0.8527 0.17962 0.0
H3188 H 0.87229 0.85086 0.20519 0.0
H3189 H 0.85039 0.87555 0.20402 0.0
C3190 C 0.84303 0.89484 0.19051 0.0
C3191 C 0.84114 0.90444 0.18305 0.0
C3192 C 0.85337 0.87861 0.19115 0.0
C3193 C 0.84828 0.89623 0.17616 0.0
C3194 C 0.85834 0.87983 0.17673 0.0
C3195 C 0.87403 0.85713 0.18493 0.0
C3196 C 0.87868 0.85013 0.19249 0.0
C3197 C 0.8616 0.87147 0.18422 0.0
C3198 C 0.86936 0.85639 0.19931 0.0
C3199 C 0.85677 0.87043 0.19865 0.0
H3200 H 0.1451 0.02689 0.18281 0.0
H3201 H 0.08327 0.03194 0.17164 0.0
H3202 H 0.05916 0.9855 0.17002 0.0
H3203 H 0.05336 0.94344 0.17338 0.0
H3204 H 0.11422 0.9378 0.18491 0.0
H3205 H 0.1415 0.98455 0.18454 0.0
C3206 C 0.12662 0.01786 0.17986 0.0
C3207 C 0.11574 0.03274 0.17749 0.0
C3208 C 0.11273 0.99109 0.17902 0.0
C3209 C 0.09175 0.02079 0.17369 0.0
C3210 C 0.07801 0.99429 0.17273 0.0
C3211 C 0.07281 0.9525 0.17566 0.0
C3212 C 0.08177 0.93744 0.17925 0.0
C3213 C 0.08795 0.97923 0.17562 0.0
C3214 C 0.10702 0.94914 0.1821 0.0
C3215 C 0.12247 0.97584 0.18197 0.0
H3216 H 0.12593 0.05936 0.31926 0.0
H3217 H 0.19668 0.06588 0.31102 0.0
H3218 H 0.17534 0.01928 0.30929 0.0
H3219 H 0.13554 0.97721 0.30905 0.0
H3220 H 0.06467 0.97169 0.31678 0.0
H3221 H 0.08705 0.01743 0.31977 0.0
C3222 C 0.13684 0.05049 0.3173 0.0
C3223 C 0.16286 0.06589 0.31536 0.0
C3224 C 0.12429 0.02395 0.31609 0.0
C3225 C 0.17663 0.05429 0.31259 0.0
C3226 C 0.16441 0.02772 0.31156 0.0
C3227 C 0.12512 0.98602 0.31148 0.0
C3228 C 0.09847 0.9712 0.31261 0.0
C3229 C 0.13809 0.01243 0.31312 0.0
C3230 C 0.08511 0.98283 0.31571 0.0
C3231 C 0.09791 0.00892 0.31747 0.0
H3232 H 0.94503 0.0908 0.32686 0.0
H3233 H 0.92745 0.10757 0.30349 0.0
H3234 H 0.97314 0.13347 0.30048 0.0
H3235 H 0.01763 0.14608 0.30383 0.0
H3236 H 0.03508 0.12933 0.32728 0.0
H3237 H 0.98989 0.10831 0.33086 0.0
C3238 C 0.95127 0.10058 0.32117 0.0
C3239 C 0.93297 0.09718 0.31539 0.0
C3240 C 0.97751 0.1149 0.31942 0.0
C3241 C 0.9412 0.11009 0.30806 0.0
C3242 C 0.96732 0.12463 0.30631 0.0
C3243 C 0.01168 0.13835 0.30978 0.0
C3244 C 0.02974 0.13878 0.3152 0.0
C3245 C 0.98561 0.12641 0.31184 0.0
C3246 C 0.02154 0.12857 0.32289 0.0
C3247 C 0.9957 0.11672 0.32497 0.0
H3248 H 0.83701 0.85866 0.31538 0.0
H3249 H 0.89078 0.92239 0.32974 0.0
H3250 H 0.91535 0.90093 0.33224 0.0
H3251 H 0.92511 0.8675 0.3286 0.0
H3252 H 0.87338 0.80509 0.31348 0.0
H3253 H 0.84385 0.82193 0.31326 0.0
C3254 C 0.85375 0.86749 0.31921 0.0
C3255 C 0.8624 0.89221 0.32227 0.0
C3256 C 0.86813 0.85528 0.32046 0.0
C3257 C 0.88411 0.90356 0.32721 0.0
C3258 C 0.8981 0.89129 0.32865 0.0
C3259 C 0.90705 0.8573 0.32541 0.0
C3260 C 0.90151 0.83537 0.32097 0.0
C3261 C 0.89085 0.86766 0.32504 0.0
C3262 C 0.87798 0.82202 0.31695 0.0
C3263 C 0.86128 0.83182 0.31675 0.0
H3264 H 0.92497 0.82601 0.80645 0.0
H3265 H 0.93079 0.82099 0.83198 0.0
H3266 H 0.97751 0.84493 0.83098 0.0
H3267 H 0.01628 0.87093 0.823 0.0
H3268 H 0.00988 0.87442 0.79743 0.0
H3269 H 0.96353 0.84734 0.79835 0.0
C3270 C 0.93629 0.82936 0.8118 0.0
C3271 C 0.92421 0.82176 0.81929 0.0
C3272 C 0.96304 0.84329 0.8112 0.0
C3273 C 0.93949 0.82688 0.82614 0.0
C3274 C 0.96623 0.84059 0.82558 0.0
C3275 C 0.00487 0.86533 0.8176 0.0
C3276 C 0.01664 0.8751 0.81017 0.0
C3277 C 0.97817 0.8495 0.81816 0.0
C3278 C 0.00137 0.86778 0.80325 0.0
C3279 C 0.97484 0.8521 0.80376 0.0
H3280 H 0.11749 0.1423 0.81643 0.0
H3281 H 0.11683 0.1312 0.79096 0.0
H3282 H 0.14132 0.1093 0.79273 0.0
H3283 H 0.15962 0.09035 0.80157 0.0
H3284 H 0.16108 0.10229 0.82699 0.0
H3285 H 0.14026 0.12779 0.82511 0.0
C3286 C 0.12321 0.13573 0.81122 0.0
C3287 C 0.11507 0.13826 0.80357 0.0
C3288 C 0.13748 0.12339 0.81227 0.0
C3289 C 0.12233 0.12908 0.79693 0.0
C3290 C 0.13651 0.11672 0.79793 0.0
C3291 C 0.15605 0.09907 0.8067 0.0
C3292 C 0.16168 0.09415 0.81443 0.0
C3293 C 0.14376 0.11336 0.80558 0.0
C3294 C 0.15662 0.10545 0.82099 0.0
C3295 C 0.14468 0.11999 0.81992 0.0
H3296 H 0.84969 0.97795 0.81011 0.0
H3297 H 0.9206 0.97679 0.81112 0.0
H3298 H 0.94456 0.02332 0.81278 0.0
H3299 H 0.94536 0.06415 0.81385 0.0
H3300 H 0.87535 0.0665 0.81184 0.0
H3301 H 0.85073 0.01951 0.81076 0.0
C3302 C 0.87038 0.98799 0.81071 0.0
C3303 C 0.88346 0.97414 0.8105 0.0
C3304 C 0.88404 0.01477 0.81154 0.0
C3305 C 0.91025 0.9872 0.8112 0.0
C3306 C 0.9239 0.01371 0.81219 0.0
C3307 C 0.92467 0.05427 0.81327 0.0
C3308 C 0.91199 0.06844 0.81307 0.0
C3309 C 0.91099 0.02763 0.81238 0.0
C3310 C 0.88531 0.05573 0.8121 0.0
C3311 C 0.87135 0.029 0.81146 0.0
H3312 H 0.90934 0.02233 0.67724 0.0
H3313 H 0.85346 0.02681 0.69211 0.0
H3314 H 0.82478 0.98041 0.69087 0.0
H3315 H 0.8179 0.9382 0.68667 0.0
H3316 H 0.87446 0.93429 0.67189 0.0
H3317 H 0.90019 0.98086 0.67175 0.0
C3318 C 0.89075 0.01308 0.68013 0.0
C3319 C 0.88355 0.02765 0.68485 0.0
C3320 C 0.87447 0.98658 0.67937 0.0
C3321 C 0.85932 0.01577 0.68848 0.0
C3322 C 0.84301 0.98931 0.68778 0.0
C3323 C 0.83564 0.94761 0.68331 0.0
C3324 C 0.84429 0.93278 0.67933 0.0
C3325 C 0.85068 0.97445 0.6834 0.0
C3326 C 0.86718 0.9452 0.67492 0.0
C3327 C 0.88211 0.97185 0.67493 0.0
H3328 H 0.05868 0.89003 0.67516 0.0
H3329 H 0.07373 0.89506 0.7005 0.0
H3330 H 0.02822 0.86983 0.70317 0.0
H3331 H 0.98399 0.85147 0.69854 0.0
H3332 H 0.96893 0.85154 0.67337 0.0
H3333 H 0.01433 0.86964 0.67047 0.0
C3334 C 0.05211 0.88563 0.68128 0.0
C3335 C 0.06993 0.89498 0.68758 0.0
C3336 C 0.02569 0.87223 0.68284 0.0
C3337 C 0.06082 0.88813 0.69546 0.0
C3338 C 0.03461 0.87392 0.69703 0.0
C3339 C 0.9906 0.85547 0.69242 0.0
C3340 C 0.97299 0.85038 0.68621 0.0
C3341 C 0.01688 0.86677 0.6908 0.0
C3342 C 0.98191 0.85503 0.67829 0.0
C3343 C 0.00796 0.86559 0.67662 0.0
H3344 H 0.06273 0.12956 0.68237 0.0
H3345 H 0.1314 0.20146 0.68683 0.0
H3346 H 0.15541 0.17889 0.68908 0.0
H3347 H 0.15604 0.13819 0.69021 0.0
H3348 H 0.08591 0.06646 0.68684 0.0
H3349 H 0.063 0.08934 0.68382 0.0
C3350 C 0.08305 0.14022 0.68373 0.0
C3351 C 0.09557 0.16701 0.68429 0.0
C3352 C 0.09623 0.1271 0.68531 0.0
C3353 C 0.12165 0.1808 0.68626 0.0
C3354 C 0.13524 0.1679 0.68758 0.0
C3355 C 0.13576 0.1277 0.6888 0.0
C3356 C 0.12257 0.10076 0.68875 0.0
C3357 C 0.12264 0.14101 0.6872 0.0
C3358 C 0.0963 0.08721 0.68699 0.0
C3359 C 0.08327 0.10026 0.68522 0.0
H3360 H 0.64269 0.4691 0.5206 0.0
H3361 H 0.63123 0.40416 0.50659 0.0
H3362 H 0.6771 0.42489 0.50393 0.0
H3363 H 0.72063 0.45839 0.50718 0.0
H3364 H 0.73294 0.52238 0.52178 0.0
H3365 H 0.6866 0.50571 0.52239 0.0
C3366 C 0.65025 0.45981 0.51683 0.0
C3367 C 0.63378 0.43497 0.51392 0.0
C3368 C 0.67676 0.47168 0.51544 0.0
C3369 C 0.64369 0.42306 0.50903 0.0
C3370 C 0.66986 0.43492 0.50749 0.0
C3371 C 0.71311 0.46894 0.51034 0.0
C3372 C 0.72994 0.49132 0.51451 0.0
C3373 C 0.68662 0.45876 0.5109 0.0
C3374 C 0.72023 0.5051 0.51852 0.0
C3375 C 0.69376 0.49541 0.51894 0.0
H3376 H 0.52591 0.24545 0.50651 0.0
H3377 H 0.48452 0.21838 0.52863 0.0
H3378 H 0.50481 0.19258 0.53108 0.0
H3379 H 0.5388 0.18286 0.52783 0.0
H3380 H 0.57972 0.20956 0.50555 0.0
H3381 H 0.55546 0.23076 0.50235 0.0
C3382 C 0.52095 0.23342 0.51178 0.0
C3383 C 0.50394 0.23387 0.51741 0.0
C3384 C 0.53308 0.21913 0.51322 0.0
C3385 C 0.49744 0.21815 0.52418 0.0
C3386 C 0.50928 0.20366 0.52563 0.0
C3387 C 0.54206 0.1928 0.52219 0.0
C3388 C 0.56158 0.19509 0.51705 0.0
C3389 C 0.52781 0.20475 0.52033 0.0
C3390 C 0.56547 0.20818 0.50977 0.0
C3391 C 0.55143 0.22013 0.50788 0.0
H3392 H 0.73522 0.27046 0.51415 0.0
H3393 H 0.8017 0.26416 0.51958 0.0
H3394 H 0.8275 0.31086 0.52116 0.0
H3395 H 0.83002 0.35308 0.52196 0.0
H3396 H 0.7622 0.35806 0.51746 0.0
H3397 H 0.73792 0.31224 0.51457 0.0
C3398 C 0.75552 0.27942 0.51548 0.0
C3399 C 0.76675 0.26411 0.51662 0.0
C3400 C 0.7698 0.30595 0.51667 0.0
C3401 C 0.79283 0.27574 0.5186 0.0
C3402 C 0.80747 0.30234 0.51954 0.0
C3403 C 0.80999 0.34407 0.52028 0.0
C3404 C 0.7978 0.35877 0.51998 0.0
C3405 C 0.79602 0.31759 0.51875 0.0
C3406 C 0.77183 0.34698 0.51784 0.0
C3407 C 0.75799 0.32086 0.51614 0.0
H3408 H 0.77672 0.39402 0.65512 0.0
H3409 H 0.84963 0.39781 0.65211 0.0
H3410 H 0.82783 0.35107 0.65089 0.0
H3411 H 0.78782 0.30934 0.65023 0.0
H3412 H 0.71522 0.30635 0.6531 0.0
H3413 H 0.73725 0.35271 0.65496 0.0
C3414 C 0.78795 0.38464 0.65439 0.0
C3415 C 0.81479 0.39936 0.65378 0.0
C3416 C 0.77533 0.35795 0.65362 0.0
C3417 C 0.82894 0.38689 0.65259 0.0
C3418 C 0.8165 0.3602 0.65188 0.0
C3419 C 0.77686 0.3189 0.65124 0.0
C3420 C 0.74994 0.30447 0.65152 0.0
C3421 C 0.78966 0.34558 0.65228 0.0
C3422 C 0.73596 0.31701 0.65294 0.0
C3423 C 0.74853 0.3435 0.65397 0.0
H3424 H 0.59899 0.42763 0.63473 0.0
H3425 H 0.6043 0.44382 0.65996 0.0
H3426 H 0.65098 0.46825 0.65897 0.0
H3427 H 0.68998 0.4813 0.65118 0.0
H3428 H 0.68439 0.46695 0.62581 0.0
H3429 H 0.63782 0.4454 0.62666 0.0
C3430 C 0.61019 0.43712 0.63999 0.0
C3431 C 0.59804 0.43372 0.64743 0.0
C3432 C 0.63696 0.45109 0.63938 0.0
C3433 C 0.61311 0.44578 0.65419 0.0
C3434 C 0.63981 0.45978 0.65362 0.0
C3435 C 0.67872 0.47408 0.64578 0.0
C3436 C 0.69083 0.47551 0.63846 0.0
C3437 C 0.65193 0.462 0.64628 0.0
C3438 C 0.67567 0.4656 0.63157 0.0
C3439 C 0.64901 0.45343 0.63203 0.0
H3440 H 0.56697 0.16753 0.63867 0.0
H3441 H 0.55028 0.15811 0.6639 0.0
H3442 H 0.52981 0.18417 0.6628 0.0
H3443 H 0.5205 0.2128 0.65493 0.0
H3444 H 0.53397 0.21891 0.62949 0.0
H3445 H 0.552 0.19083 0.63049 0.0
C3446 C 0.55814 0.17033 0.64391 0.0
C3447 C 0.56042 0.16092 0.65138 0.0
C3448 C 0.54627 0.18516 0.64324 0.0
C3449 C 0.54926 0.16543 0.6581 0.0
C3450 C 0.53751 0.18033 0.65748 0.0
C3451 C 0.52674 0.20758 0.64954 0.0
C3452 C 0.52621 0.21852 0.64216 0.0
C3453 C 0.53652 0.19083 0.65011 0.0
C3454 C 0.53482 0.21159 0.6353 0.0
C3455 C 0.54492 0.19526 0.63585 0.0
H3456 H 0.67966 0.19807 0.1368 0.0
H3457 H 0.68463 0.2687 0.14458 0.0
H3458 H 0.63959 0.24552 0.14841 0.0
H3459 H 0.59907 0.20549 0.14961 0.0
H3460 H 0.59284 0.13472 0.1415 0.0
H3461 H 0.63843 0.15757 0.13791 0.0
C3462 C 0.67086 0.20834 0.13935 0.0
C3463 C 0.68544 0.23508 0.14038 0.0
C3464 C 0.64493 0.19485 0.14158 0.0
C3465 C 0.67374 0.2482 0.1436 0.0
C3466 C 0.64806 0.23493 0.14588 0.0
C3467 C 0.60777 0.19497 0.14718 0.0
C3468 C 0.59278 0.16842 0.14593 0.0
C3469 C 0.63357 0.20829 0.14494 0.0
C3470 C 0.60412 0.15514 0.14257 0.0
C3471 C 0.63009 0.16822 0.14049 0.0
H3472 H 0.83495 0.42619 0.13742 0.0
H3473 H 0.84076 0.43364 0.16306 0.0
H3474 H 0.81685 0.45656 0.16281 0.0
H3475 H 0.7907 0.47044 0.15541 0.0
H3476 H 0.78635 0.4639 0.12973 0.0
H3477 H 0.81336 0.44446 0.12994 0.0
C3478 C 0.83178 0.43347 0.14296 0.0
C3479 C 0.83964 0.42806 0.15026 0.0
C3480 C 0.81785 0.44635 0.14278 0.0
C3481 C 0.83472 0.43726 0.15736 0.0
C3482 C 0.82101 0.45034 0.15722 0.0
C3483 C 0.79609 0.46532 0.14983 0.0
C3484 C 0.78611 0.46832 0.14257 0.0
C3485 C 0.81189 0.45436 0.14998 0.0
C3486 C 0.79315 0.46124 0.13542 0.0
C3487 C 0.80879 0.45031 0.13553 0.0
H3488 H 0.52534 0.30588 0.15526 0.0
H3489 H 0.53038 0.31221 0.12957 0.0
H3490 H 0.5531 0.35876 0.13063 0.0
H3491 H 0.57414 0.39731 0.1388 0.0
H3492 H 0.56739 0.39143 0.16445 0.0
H3493 H 0.54209 0.3448 0.1634 0.0
C3494 C 0.53083 0.31733 0.14986 0.0
C3495 C 0.52638 0.3054 0.14234 0.0
C3496 C 0.54357 0.34414 0.1505 0.0
C3497 C 0.53407 0.32077 0.13545 0.0
C3498 C 0.54689 0.34743 0.13604 0.0
C3499 C 0.56658 0.38602 0.14418 0.0
C3500 C 0.57287 0.39801 0.15171 0.0
C3501 C 0.55211 0.35929 0.14354 0.0
C3502 C 0.5632 0.38277 0.15858 0.0
C3503 C 0.5487 0.35609 0.15799 0.0
H3504 H 0.53225 0.34386 0.02571 0.0
H3505 H 0.59591 0.35065 0.01193 0.0
H3506 H 0.57186 0.30501 0.00892 0.0
H3507 H 0.53418 0.26282 0.011 0.0
H3508 H 0.47006 0.25583 0.0245 0.0
H3509 H 0.49267 0.30221 0.02661 0.0
C3510 C 0.54075 0.33551 0.02193 0.0
C3511 C 0.56605 0.3507 0.01916 0.0
C3512 C 0.52669 0.30927 0.02013 0.0
C3513 C 0.57676 0.33936 0.01434 0.0
C3514 C 0.56293 0.31328 0.01254 0.0
C3515 C 0.52478 0.27149 0.01419 0.0
C3516 C 0.50046 0.2559 0.01759 0.0
C3517 C 0.53804 0.29801 0.0155 0.0
C3518 C 0.48883 0.26743 0.02187 0.0
C3519 C 0.50179 0.2939 0.0231 0.0
H3520 H 0.73042 0.22369 0.02928 0.0
H3521 H 0.72852 0.25439 0.00619 0.0
H3522 H 0.68204 0.22755 0.00584 0.0
H3523 H 0.64168 0.20008 0.01288 0.0
H3524 H 0.64338 0.17187 0.03638 0.0
H3525 H 0.69015 0.19356 0.03588 0.0
C3526 C 0.71987 0.22443 0.02415 0.0
C3527 C 0.73302 0.24134 0.01783 0.0
C3528 C 0.69304 0.20978 0.02413 0.0
C3529 C 0.71904 0.24148 0.01113 0.0
C3530 C 0.69237 0.22635 0.01096 0.0
C3531 C 0.65228 0.19827 0.01782 0.0
C3532 C 0.63915 0.1846 0.02469 0.0
C3533 C 0.67914 0.21112 0.01755 0.0
C3534 C 0.65312 0.18263 0.03109 0.0
C3535 C 0.67982 0.19493 0.03078 0.0
H3536 H 0.79277 0.44218 0.00983 0.0
H3537 H 0.84244 0.49 0.02867 0.0
H3538 H 0.82401 0.51797 0.02761 0.0
H3539 H 0.79088 0.52619 0.02223 0.0
H3540 H 0.73939 0.47599 0.00406 0.0
H3541 H 0.76256 0.45272 0.00362 0.0
C3542 C 0.80001 0.45904 0.01359 0.0
C3543 C 0.81877 0.46384 0.01937 0.0
C3544 C 0.78915 0.47482 0.01301 0.0
C3545 C 0.82767 0.48561 0.02426 0.0
C3546 C 0.81724 0.50169 0.02363 0.0
C3547 C 0.78482 0.51029 0.01813 0.0
C3548 C 0.76314 0.50281 0.01327 0.0
C3549 C 0.79747 0.49605 0.01817 0.0
C3550 C 0.75609 0.48255 0.00783 0.0
C3551 C 0.76912 0.46887 0.00765 0.0
H3552 H 0.31169 0.81094 0.85286 0.0
H3553 H 0.30965 0.74251 0.84423 0.0
H3554 H 0.35534 0.76695 0.84123 0.0
H3555 H 0.39618 0.80673 0.842 0.0
H3556 H 0.39957 0.87508 0.85126 0.0
H3557 H 0.35288 0.85187 0.85294 0.0
C3558 C 0.32126 0.80153 0.85023 0.0
C3559 C 0.30744 0.77495 0.84884 0.0
C3560 C 0.34766 0.81567 0.84861 0.0
C3561 C 0.32002 0.76288 0.84548 0.0
C3562 C 0.34608 0.77685 0.84372 0.0
C3563 C 0.38666 0.81677 0.84418 0.0
C3564 C 0.40123 0.84264 0.84643 0.0
C3565 C 0.36013 0.80313 0.84537 0.0
C3566 C 0.38868 0.85519 0.84946 0.0
C3567 C 0.36206 0.84189 0.85045 0.0
H3568 H 0.15629 0.55728 0.85698 0.0
H3569 H 0.18191 0.575 0.83263 0.0
H3570 H 0.20119 0.5477 0.83351 0.0
H3571 H 0.21624 0.52452 0.84184 0.0
H3572 H 0.19297 0.509 0.86648 0.0
H3573 H 0.16729 0.5298 0.8649 0.0
C3574 C 0.16534 0.5544 0.8518 0.0
C3575 C 0.16764 0.56789 0.84474 0.0
C3576 C 0.17728 0.5396 0.85248 0.0
C3577 C 0.17988 0.5646 0.8381 0.0
C3578 C 0.19105 0.5492 0.83863 0.0
C3579 C 0.20503 0.52509 0.84681 0.0
C3580 C 0.20668 0.51546 0.85428 0.0
C3581 C 0.19073 0.53745 0.84589 0.0
C3582 C 0.19232 0.51666 0.8607 0.0
C3583 C 0.17757 0.52846 0.85979 0.0
H3584 H 0.41459 0.60544 0.86206 0.0
H3585 H 0.42282 0.60839 0.83645 0.0
H3586 H 0.444 0.65516 0.83686 0.0
H3587 H 0.45762 0.69475 0.84443 0.0
H3588 H 0.45131 0.69157 0.87012 0.0
H3589 H 0.43172 0.64511 0.8697 0.0
C3590 C 0.42163 0.61626 0.85657 0.0
C3591 C 0.41719 0.60337 0.84923 0.0
C3592 C 0.43374 0.64304 0.85685 0.0
C3593 C 0.42584 0.6178 0.84217 0.0
C3594 C 0.43794 0.64453 0.84241 0.0
C3595 C 0.45245 0.68403 0.84996 0.0
C3596 C 0.45576 0.69677 0.85729 0.0
C3597 C 0.4416 0.65731 0.8497 0.0
C3598 C 0.44847 0.68234 0.86437 0.0
C3599 C 0.43747 0.65575 0.86415 0.0
H3600 H 0.46974 0.64786 0.97405 0.0
H3601 H 0.42381 0.63314 0.99521 0.0
H3602 H 0.44366 0.67909 0.99772 0.0
H3603 H 0.46996 0.72329 0.99294 0.0
H3604 H 0.51615 0.73841 0.97185 0.0
H3605 H 0.50077 0.69253 0.97032 0.0
C3606 C 0.46443 0.65482 0.97926 0.0
C3607 C 0.44522 0.6373 0.9844 0.0
C3608 C 0.47591 0.68126 0.98066 0.0
C3609 C 0.43862 0.64635 0.9912 0.0
C3610 C 0.44985 0.67259 0.99261 0.0
C3611 C 0.47708 0.71649 0.98813 0.0
C3612 C 0.49399 0.73394 0.98249 0.0
C3613 C 0.46795 0.69019 0.98726 0.0
C3614 C 0.50324 0.72518 0.97629 0.0
C3615 C 0.49425 0.69898 0.97537 0.0
H3616 H 0.26877 0.77765 0.97527 0.0
H3617 H 0.27564 0.74739 0.99781 0.0
H3618 H 0.32198 0.77704 0.99783 0.0
H3619 H 0.36085 0.80676 0.99046 0.0
H3620 H 0.35426 0.83397 0.9673 0.0
H3621 H 0.30751 0.81052 0.96846 0.0
C3622 C 0.28042 0.77822 0.98028 0.0
C3623 C 0.26905 0.7607 0.98656 0.0
C3624 C 0.30708 0.79443 0.98005 0.0
C3625 C 0.28417 0.76096 0.99296 0.0
C3626 C 0.31061 0.77774 0.99293 0.0
C3627 C 0.34915 0.80806 0.98577 0.0
C3628 C 0.36084 0.82195 0.9788 0.0
C3629 C 0.32235 0.79387 0.98637 0.0
C3630 C 0.34556 0.8232 0.97269 0.0
C3631 C 0.31889 0.80981 0.97336 0.0
H3632 H 0.18562 0.54474 0.98566 0.0
H3633 H 0.19145 0.54299 0.96005 0.0
H3634 H 0.21233 0.51734 0.96128 0.0
H3635 H 0.23297 0.49958 0.96966 0.0
H3636 H 0.2278 0.50189 0.99528 0.0
H3637 H 0.20203 0.52272 0.99401 0.0
C3638 C 0.19088 0.53824 0.98034 0.0
C3639 C 0.18721 0.54599 0.97277 0.0
C3640 C 0.20305 0.52368 0.9811 0.0
C3641 C 0.19448 0.53767 0.96594 0.0
C3642 C 0.20632 0.52291 0.96664 0.0
C3643 C 0.22555 0.50393 0.97497 0.0
C3644 C 0.2323 0.49926 0.98256 0.0
C3645 C 0.21127 0.51637 0.97419 0.0
C3646 C 0.22297 0.50547 0.98937 0.0
C3647 C 0.20832 0.51743 0.98865 0.0
H3648 H 0.27224 0.51077 0.49254 0.0
H3649 H 0.2548 0.49394 0.46753 0.0
H3650 H 0.29989 0.51045 0.46464 0.0
H3651 H 0.34479 0.53474 0.4689 0.0
H3652 H 0.36241 0.55563 0.49368 0.0
H3653 H 0.31696 0.53258 0.49693 0.0
C3654 C 0.27825 0.51055 0.48646 0.0
C3655 C 0.26003 0.50136 0.48027 0.0
C3656 C 0.30441 0.52116 0.48476 0.0
C3657 C 0.26819 0.50062 0.47246 0.0
C3658 C 0.29411 0.51041 0.47076 0.0
C3659 C 0.3387 0.53424 0.47501 0.0
C3660 C 0.35706 0.54713 0.481 0.0
C3661 C 0.31245 0.52158 0.47682 0.0
C3662 C 0.3488 0.54573 0.48893 0.0
C3663 C 0.32275 0.53269 0.4908 0.0
H3664 H 0.45416 0.72048 0.48172 0.0
H3665 H 0.52657 0.78803 0.47676 0.0
H3666 H 0.50474 0.81276 0.47463 0.0
H3667 H 0.46464 0.8145 0.4739 0.0
H3668 H 0.39222 0.74563 0.47786 0.0
H3669 H 0.41437 0.72173 0.48053 0.0
C3670 C 0.46512 0.74069 0.48026 0.0
C3671 C 0.49186 0.75266 0.47953 0.0
C3672 C 0.45239 0.75431 0.47876 0.0
C3673 C 0.50596 0.77865 0.47745 0.0
C3674 C 0.49348 0.79266 0.47619 0.0
C3675 C 0.45381 0.79425 0.47535 0.0
C3676 C 0.42691 0.78174 0.47569 0.0
C3677 C 0.46667 0.78061 0.47678 0.0
C3678 C 0.41294 0.75551 0.47749 0.0
C3679 C 0.42558 0.74193 0.47907 0.0
H3680 H 0.23911 0.74479 0.469 0.0
H3681 H 0.22165 0.74235 0.49408 0.0
H3682 H 0.19755 0.69558 0.49358 0.0
H3683 H 0.18557 0.6557 0.48633 0.0
H3684 H 0.20072 0.65879 0.46104 0.0
H3685 H 0.2216 0.7053 0.46137 0.0
C3686 C 0.22933 0.73427 0.47433 0.0
C3687 C 0.23245 0.74729 0.48159 0.0
C3688 C 0.21548 0.70746 0.474 0.0
C3689 C 0.22 0.73294 0.48843 0.0
C3690 C 0.20618 0.70616 0.48816 0.0
C3691 C 0.19282 0.6664 0.48083 0.0
C3692 C 0.19198 0.65359 0.4737 0.0
C3693 C 0.20444 0.69323 0.48102 0.0
C3694 C 0.20177 0.66803 0.46668 0.0
C3695 C 0.21354 0.69468 0.46683 0.0
H3696 H 0.19477 0.67693 0.3519 0.0
H3697 H 0.26593 0.67658 0.35386 0.0
H3698 H 0.24377 0.63072 0.35091 0.0
H3699 H 0.20402 0.5905 0.34841 0.0
H3700 H 0.1321 0.58945 0.34756 0.0
H3701 H 0.1546 0.63623 0.3493 0.0
C3702 C 0.20534 0.66674 0.35162 0.0
C3703 C 0.23186 0.67994 0.3531 0.0
C3704 C 0.19237 0.64029 0.35006 0.0
C3705 C 0.24545 0.66665 0.35281 0.0
C3706 C 0.23283 0.64053 0.35109 0.0
C3707 C 0.19341 0.60069 0.34843 0.0
C3708 C 0.16664 0.58694 0.34768 0.0
C3709 C 0.20632 0.62716 0.34976 0.0
C3710 C 0.15281 0.59994 0.34799 0.0
C3711 C 0.16565 0.62655 0.34904 0.0
H3712 H 0.30792 0.52745 0.34867 0.0
H3713 H 0.31291 0.54392 0.37391 0.0
H3714 H 0.35945 0.56734 0.37305 0.0
H3715 H 0.39838 0.58522 0.36504 0.0
H3716 H 0.39384 0.56559 0.34008 0.0
H3717 H 0.3472 0.54082 0.34101 0.0
C3718 C 0.31904 0.53557 0.35405 0.0
C3719 C 0.30666 0.53408 0.36133 0.0
C3720 C 0.34587 0.54848 0.35357 0.0
C3721 C 0.32171 0.54526 0.36817 0.0
C3722 C 0.3484 0.55849 0.36771 0.0
C3723 C 0.3874 0.57495 0.35983 0.0
C3724 C 0.3998 0.57748 0.35248 0.0
C3725 C 0.36065 0.56049 0.36042 0.0
C3726 C 0.38491 0.56442 0.34579 0.0
C3727 C 0.35821 0.55016 0.34632 0.0
H3728 H 0.45336 0.8558 0.35825 0.0
H3729 H 0.40986 0.81159 0.33784 0.0
H3730 H 0.43499 0.79036 0.33736 0.0
H3731 H 0.46433 0.77916 0.34396 0.0
H3732 H 0.50378 0.81896 0.36536 0.0
H3733 H 0.48456 0.84634 0.36441 0.0
C3734 C 0.44931 0.84155 0.35368 0.0
C3735 C 0.42933 0.83522 0.34818 0.0
C3736 C 0.46273 0.82808 0.35374 0.0
C3737 C 0.42518 0.81729 0.34213 0.0
C3738 C 0.43932 0.80473 0.34192 0.0
C3739 C 0.46907 0.79417 0.34832 0.0
C3740 C 0.48531 0.79705 0.35473 0.0
C3741 C 0.45739 0.80923 0.34787 0.0
C3742 C 0.49111 0.8163 0.36042 0.0
C3743 C 0.48019 0.83196 0.35986 0.0
H3744 H 0.16867 0.17274 0.2605 0.0
H3745 H 0.24356 0.23991 0.26228 0.0
H3746 H 0.2477 0.24145 0.24771 0.0
H3747 H 0.22959 0.22352 0.23443 0.0
H3748 H 0.15386 0.15737 0.23288 0.0
H3749 H 0.15046 0.15541 0.24741 0.0
C3750 C 0.18598 0.18758 0.25768 0.0
C3751 C 0.20589 0.20603 0.26241 0.0
C3752 C 0.18802 0.18849 0.24936 0.0
C3753 C 0.228 0.22552 0.25873 0.0
C3754 C 0.23038 0.22634 0.25042 0.0
C3755 C 0.21246 0.20867 0.23731 0.0
C3756 C 0.19199 0.19063 0.23265 0.0
C3757 C 0.21048 0.20792 0.24567 0.0
C3758 C 0.16974 0.17156 0.23639 0.0
C3759 C 0.16782 0.17039 0.24467 0.0
H3760 H 0.79493 0.9701 0.236 0.0
H3761 H 0.82032 0.05087 0.23736 0.0
H3762 H 0.81541 0.0478 0.25182 0.0
H3763 H 0.80648 0.02284 0.26412 0.0
H3764 H 0.78413 0.94279 0.26284 0.0
H3765 H 0.78511 0.94492 0.2483 0.0
C3766 C 0.79951 0.98707 0.23946 0.0
C3767 C 0.80814 0.01071 0.23559 0.0
C3768 C 0.79721 0.98531 0.24779 0.0
C3769 C 0.81339 0.03237 0.24015 0.0
C3770 C 0.81079 0.03069 0.24844 0.0
C3771 C 0.80194 0.00587 0.26067 0.0
C3772 C 0.79543 0.98275 0.26458 0.0
C3773 C 0.80312 0.00736 0.25232 0.0
C3774 C 0.78898 0.96079 0.26 0.0
C3775 C 0.78973 0.96203 0.25168 0.0
H3776 H 0.03118 0.79409 0.2613 0.0
H3777 H 0.94916 0.75842 0.26435 0.0
H3778 H 0.94323 0.75278 0.25001 0.0
H3779 H 0.96145 0.76164 0.23663 0.0
H3780 H 0.04288 0.79232 0.23357 0.0
H3781 H 0.04868 0.79592 0.24797 0.0
C3782 C 0.0119 0.78444 0.2589 0.0
C3783 C 0.99075 0.77738 0.26397 0.0
C3784 C 0.00846 0.78057 0.25063 0.0
C3785 C 0.96598 0.76503 0.26063 0.0
C3786 C 0.96249 0.76154 0.25241 0.0
C3787 C 0.98044 0.76839 0.23904 0.0
C3788 C 0.00172 0.77721 0.2339 0.0
C3789 C 0.98364 0.76983 0.24734 0.0
C3790 C 0.02614 0.78618 0.23729 0.0
C3791 C 0.02951 0.78808 0.24556 0.0
H3792 H 0.76986 0.76786 0.73826 0.0
H3793 H 0.83829 0.84195 0.73662 0.0
H3794 H 0.84021 0.84575 0.75112 0.0
H3795 H 0.82298 0.82784 0.76424 0.0
H3796 H 0.75368 0.75474 0.76616 0.0
H3797 H 0.75136 0.75062 0.75157 0.0
C3798 C 0.7851 0.7848 0.74111 0.0
C3799 C 0.80388 0.80462 0.73642 0.0
C3800 C 0.78593 0.78698 0.74947 0.0
C3801 C 0.82349 0.82659 0.74013 0.0
C3802 C 0.82467 0.82872 0.74841 0.0
C3803 C 0.80744 0.81098 0.76144 0.0
C3804 C 0.7887 0.79147 0.7662 0.0
C3805 C 0.80609 0.80901 0.75312 0.0
C3806 C 0.76833 0.76993 0.76257 0.0
C3807 C 0.76705 0.76759 0.75425 0.0
H3808 H 0.21276 0.97471 0.76255 0.0
H3809 H 0.19672 0.03629 0.76614 0.0
H3810 H 0.20243 0.04607 0.75197 0.0
H3811 H 0.20839 0.03505 0.73842 0.0
H3812 H 0.22211 0.97218 0.73456 0.0
H3813 H 0.22042 0.9647 0.74895 0.0
C3814 C 0.21047 0.99024 0.76023 0.0
C3815 C 0.20433 0.00471 0.76544 0.0
C3816 C 0.21313 0.99541 0.75201 0.0
C3817 C 0.20186 0.02506 0.76233 0.0
C3818 C 0.20489 0.03055 0.7542 0.0
C3819 C 0.21153 0.02004 0.74073 0.0
C3820 C 0.21541 0.00422 0.73544 0.0
C3821 C 0.21013 0.01562 0.74897 0.0
C3822 C 0.21892 0.9845 0.73852 0.0
C3823 C 0.21798 0.98024 0.74674 0.0
H3824 H 0.02607 0.23535 0.73326 0.0
H3825 H 0.94346 0.1905 0.73369 0.0
H3826 H 0.94381 0.19383 0.74818 0.0
H3827 H 0.96765 0.20565 0.76078 0.0
H3828 H 0.05038 0.24696 0.76033 0.0
H3829 H 0.04982 0.2491 0.74584 0.0
C3830 C 0.00812 0.2263 0.73652 0.0
C3831 C 0.98481 0.21247 0.73237 0.0
C3832 C 0.00846 0.2276 0.74487 0.0
C3833 C 0.96171 0.20144 0.73669 0.0
C3834 C 0.96188 0.20314 0.745 0.0
C3835 C 0.98558 0.21516 0.75753 0.0
C3836 C 0.009 0.2259 0.76168 0.0
C3837 C 0.98517 0.21557 0.74916 0.0
C3838 C 0.03203 0.23872 0.75734 0.0
C3839 C 0.03176 0.23973 0.74903 0.0
H3840 H 0.89452 0.51431 0.57079 0.0
H3841 H 0.88418 0.57977 0.56784 0.0
H3842 H 0.88295 0.58386 0.58227 0.0
H3843 H 0.88068 0.56631 0.59562 0.0
H3844 H 0.89372 0.50255 0.59857 0.0
H3845 H 0.89844 0.50069 0.58419 0.0
C3846 C 0.8927 0.52994 0.57326 0.0
C3847 C 0.88903 0.54643 0.56818 0.0
C3848 C 0.89227 0.53238 0.58157 0.0
C3849 C 0.88637 0.56634 0.57157 0.0
C3850 C 0.88581 0.56881 0.57984 0.0
C3851 C 0.88523 0.55242 0.59317 0.0
C3852 C 0.88638 0.53431 0.59819 0.0
C3853 C 0.8881 0.55153 0.58489 0.0
C3854 C 0.89205 0.51631 0.59484 0.0
C3855 C 0.89488 0.51529 0.58662 0.0
H3856 H 0.43911 0.30472 0.56924 0.0
H3857 H 0.4805 0.38745 0.56929 0.0
H3858 H 0.47744 0.38759 0.58379 0.0
H3859 H 0.46637 0.36432 0.5965 0.0
H3860 H 0.42863 0.28166 0.5964 0.0
H3861 H 0.42669 0.28147 0.5819 0.0
C3862 C 0.44753 0.32281 0.57241 0.0
C3863 C 0.46025 0.34602 0.56816 0.0
C3864 C 0.44639 0.32278 0.58076 0.0
C3865 C 0.47042 0.36927 0.57238 0.0
C3866 C 0.46888 0.36938 0.58069 0.0
C3867 C 0.45775 0.34625 0.59332 0.0
C3868 C 0.44784 0.32307 0.59758 0.0
C3869 C 0.45744 0.34626 0.58495 0.0
C3870 C 0.43616 0.29982 0.59333 0.0
C3871 C 0.43526 0.29967 0.58501 0.0
H3872 H 0.67002 0.16436 0.5724 0.0
H3873 H 0.66789 0.09193 0.57082 0.0
H3874 H 0.67013 0.0903 0.58539 0.0
H3875 H 0.67212 0.10947 0.59861 0.0
H3876 H 0.6729 0.18132 0.59995 0.0
H3877 H 0.67194 0.18331 0.58543 0.0
C3878 C 0.67033 0.14836 0.57525 0.0
C3879 C 0.66902 0.12841 0.57057 0.0
C3880 C 0.67132 0.14744 0.58357 0.0
C3881 C 0.66884 0.10748 0.57432 0.0
C3882 C 0.67019 0.10659 0.58264 0.0
C3883 C 0.67224 0.12559 0.59569 0.0
C3884 C 0.67251 0.14519 0.60031 0.0
C3885 C 0.67136 0.12645 0.58733 0.0
C3886 C 0.67242 0.16589 0.5965 0.0
C3887 C 0.67196 0.16709 0.58821 0.0
H3888 H 0.43976 0.08208 0.072 0.0
H3889 H 0.46083 0.16108 0.06797 0.0
H3890 H 0.45607 0.16652 0.08208 0.0
H3891 H 0.44911 0.15017 0.09571 0.0
H3892 H 0.43204 0.07277 0.10012 0.0
H3893 H 0.43258 0.06556 0.08575 0.0
C3894 C 0.44344 0.10054 0.07419 0.0
C3895 C 0.45045 0.12101 0.06884 0.0
C3896 C 0.44159 0.10392 0.08241 0.0
C3897 C 0.45477 0.14469 0.07185 0.0
C3898 C 0.45235 0.14798 0.07996 0.0
C3899 C 0.44508 0.13159 0.09351 0.0
C3900 C 0.44035 0.11195 0.09892 0.0
C3901 C 0.44608 0.12786 0.0853 0.0
C3902 C 0.43572 0.08814 0.09603 0.0
C3903 C 0.43605 0.08405 0.08783 0.0
H3904 H 0.86862 0.31006 0.06803 0.0
H3905 H 0.91447 0.39246 0.06946 0.0
H3906 H 0.91742 0.38979 0.08391 0.0
H3907 H 0.90312 0.36444 0.09622 0.0
H3908 H 0.85404 0.28234 0.09477 0.0
H3909 H 0.85652 0.28453 0.08027 0.0
C3910 C 0.8793 0.32745 0.0715 0.0
C3911 C 0.89102 0.35143 0.06767 0.0
C3912 C 0.88029 0.32584 0.07982 0.0
C3913 C 0.90536 0.37373 0.07224 0.0
C3914 C 0.90688 0.37224 0.08051 0.0
C3915 C 0.89302 0.347 0.09274 0.0
C3916 C 0.87822 0.32331 0.09661 0.0
C3917 C 0.89381 0.34845 0.08438 0.0
C3918 C 0.86577 0.30084 0.09199 0.0
C3919 C 0.86696 0.30208 0.08368 0.0
H3920 H 0.6724 0.56204 0.09704 0.0
H3921 H 0.65159 0.48272 0.09954 0.0
H3922 H 0.64684 0.47697 0.08511 0.0
H3923 H 0.64987 0.49472 0.07177 0.0
H3924 H 0.66855 0.57323 0.06904 0.0
H3925 H 0.67284 0.57923 0.08357 0.0
C3926 C 0.66674 0.54354 0.09439 0.0
C3927 C 0.66234 0.52282 0.0993 0.0
C3928 C 0.66375 0.54029 0.08608 0.0
C3929 C 0.65484 0.49885 0.09585 0.0
C3930 C 0.65224 0.49558 0.08762 0.0
C3931 C 0.65484 0.5131 0.07439 0.0
C3932 C 0.65917 0.5336 0.06943 0.0
C3933 C 0.65684 0.51619 0.08268 0.0
C3934 C 0.66521 0.55726 0.07281 0.0
C3935 C 0.6677 0.56067 0.08109 0.0
H3936 H 0.55165 0.91444 0.92866 0.0
H3937 H 0.52386 0.83404 0.93274 0.0
H3938 H 0.52267 0.82665 0.91844 0.0
H3939 H 0.52714 0.84236 0.90478 0.0
H3940 H 0.55412 0.92235 0.90043 0.0
H3941 H 0.55818 0.93066 0.91482 0.0
C3942 C 0.54545 0.89536 0.9264 0.0
C3943 C 0.53795 0.87486 0.93176 0.0
C3944 C 0.54456 0.89115 0.91813 0.0
C3945 C 0.53014 0.85024 0.92876 0.0
C3946 C 0.52923 0.84593 0.92057 0.0
C3947 C 0.53389 0.86161 0.90699 0.0
C3948 C 0.54003 0.88166 0.90159 0.0
C3949 C 0.53604 0.86615 0.91522 0.0
C3950 C 0.5493 0.90663 0.9045 0.0
C3951 C 0.5515 0.91134 0.91271 0.0
H3952 H 0.10854 0.6344 0.92726 0.0
H3953 H 0.14355 0.71631 0.93051 0.0
H3954 H 0.1473 0.72236 0.91612 0.0
H3955 H 0.14365 0.70469 0.90272 0.0
H3956 H 0.10355 0.62249 0.89949 0.0
H3957 H 0.09861 0.61648 0.91384 0.0
C3958 C 0.11633 0.6536 0.92489 0.0
C3959 C 0.12618 0.67485 0.93007 0.0
C3960 C 0.11781 0.65699 0.9166 0.0
C3961 C 0.13654 0.69954 0.92675 0.0
C3962 C 0.13852 0.70306 0.91849 0.0
C3963 C 0.13323 0.68539 0.90508 0.0
C3964 C 0.12459 0.66413 0.89994 0.0
C3965 C 0.12971 0.68194 0.91336 0.0
C3966 C 0.11133 0.63934 0.90325 0.0
C3967 C 0.10824 0.63581 0.91148 0.0
H3968 H 0.3385 0.44413 0.90441 0.0
H3969 H 0.32267 0.50641 0.9039 0.0
H3970 H 0.32526 0.50936 0.91843 0.0
H3971 H 0.33213 0.49441 0.93124 0.0
H3972 H 0.35012 0.43368 0.93197 0.0
H3973 H 0.34676 0.42991 0.91739 0.0
C3974 C 0.33559 0.45826 0.90752 0.0
C3975 C 0.33041 0.47504 0.90315 0.0
C3976 C 0.33754 0.46011 0.91588 0.0
C3977 C 0.32687 0.49345 0.90718 0.0
C3978 C 0.32827 0.49509 0.91547 0.0
C3979 C 0.33515 0.48026 0.92819 0.0
C3980 C 0.34107 0.46414 0.93262 0.0
C3981 C 0.33359 0.47855 0.91987 0.0
C3982 C 0.3455 0.44623 0.92864 0.0
C3983 C 0.34353 0.44406 0.92033 0.0
H3984 H 0.08702 0.45576 0.42896 0.0
H3985 H 0.15859 0.45704 0.43266 0.0
H3986 H 0.16039 0.44853 0.41857 0.0
H3987 H 0.144 0.44484 0.40502 0.0
H3988 H 0.07416 0.44645 0.40101 0.0
H3989 H 0.06959 0.45023 0.41538 0.0
C3990 C 0.10304 0.45422 0.42669 0.0
C3991 C 0.12264 0.4571 0.4319 0.0
C3992 C 0.10441 0.45009 0.41851 0.0
C3993 C 0.14299 0.45453 0.42885 0.0
C3994 C 0.1442 0.44991 0.42076 0.0
C3995 C 0.12748 0.44546 0.40731 0.0
C3996 C 0.10939 0.44528 0.40199 0.0
C3997 C 0.12529 0.44813 0.41552 0.0
C3998 C 0.08838 0.44667 0.40501 0.0
C3999 C 0.08577 0.44882 0.41321 0.0
H4000 H 0.53268 0.63786 0.40114 0.0
H4001 H 0.56884 0.72018 0.40311 0.0
H4002 H 0.56877 0.717 0.41758 0.0
H4003 H 0.55517 0.69082 0.42968 0.0
H4004 H 0.51556 0.60835 0.42776 0.0
H4005 H 0.52042 0.61168 0.41329 0.0
C4006 C 0.54052 0.65513 0.40473 0.0
C4007 C 0.55059 0.67921 0.401 0.0
C4008 C 0.53971 0.65315 0.41307 0.0
C4009 C 0.56123 0.70139 0.40577 0.0
C4010 C 0.56098 0.69959 0.41407 0.0
C4011 C 0.54753 0.67354 0.4261 0.0
C4012 C 0.53478 0.64938 0.42982 0.0
C4013 C 0.54974 0.67556 0.41778 0.0
C4014 C 0.52562 0.62722 0.42509 0.0
C4015 C 0.52821 0.6291 0.4168 0.0
H4016 H 0.31784 0.89012 0.42983 0.0
H4017 H 0.38179 0.87672 0.42973 0.0
H4018 H 0.37788 0.87036 0.41535 0.0
H4019 H 0.35447 0.86537 0.40304 0.0
H4020 H 0.29127 0.88001 0.4028 0.0
H4021 H 0.2963 0.88841 0.41712 0.0
C4022 C 0.331 0.886 0.42663 0.0
C4023 C 0.3501 0.88397 0.43084 0.0
C4024 C 0.32855 0.88218 0.41834 0.0
C4025 C 0.36716 0.87878 0.42662 0.0
C4026 C 0.3648 0.8749 0.41841 0.0
C4027 C 0.34212 0.87099 0.40604 0.0
C4028 C 0.32246 0.87196 0.4018 0.0
C4029 C 0.34535 0.8762 0.41423 0.0
C4030 C 0.3063 0.87866 0.4059 0.0
C4031 C 0.30926 0.88365 0.4141 0.0
H4032 H 0.27859 0.14763 0.17072 0.0
H4033 H 0.3303 0.22881 0.16792 0.0
H4034 H 0.3653 0.2207 0.16479 0.0
H4035 H 0.38065 0.19046 0.1625 0.0
H4036 H 0.32882 0.10926 0.16522 0.0
H4037 H 0.29403 0.11745 0.16858 0.0
C4038 C 0.29744 0.16355 0.16932 0.0
C4039 C 0.30181 0.18878 0.16945 0.0
C4040 C 0.31732 0.15872 0.16752 0.0
C4041 C 0.3265 0.20924 0.16786 0.0
C4042 C 0.34645 0.2046 0.16605 0.0
C4043 C 0.36184 0.17456 0.16396 0.0
C4044 C 0.35733 0.14928 0.16369 0.0
C4045 C 0.34203 0.17942 0.16585 0.0
C4046 C 0.33271 0.12886 0.16538 0.0
C4047 C 0.31288 0.13354 0.16731 0.0
H4048 H 0.82986 0.13297 0.17824 0.0
H4049 H 0.76866 0.08812 0.16171 0.0
H4050 H 0.77612 0.12737 0.15502 0.0
H4051 H 0.8001 0.17415 0.15389 0.0
H4052 H 0.86045 0.21906 0.17068 0.0
H4053 H 0.85351 0.1798 0.17721 0.0
C4054 C 0.81783 0.13179 0.17326 0.0
C4055 C 0.79846 0.10771 0.17054 0.0
C4056 C 0.8223 0.15433 0.16945 0.0
C4057 C 0.78361 0.10644 0.16392 0.0
C4058 C 0.78789 0.12884 0.1601 0.0
C4059 C 0.81159 0.1754 0.15903 0.0
C4060 C 0.83064 0.19953 0.16184 0.0
C4061 C 0.80719 0.15285 0.16282 0.0
C4062 C 0.84581 0.20075 0.16836 0.0
C4063 C 0.8417 0.17834 0.17213 0.0
H4064 H 0.87348 0.71954 0.16612 0.0
H4065 H 0.90245 0.667 0.16669 0.0
H4066 H 0.86014 0.63171 0.16296 0.0
H4067 H 0.81478 0.61575 0.16006 0.0
H4068 H 0.78558 0.66811 0.15974 0.0
H4069 H 0.82847 0.70385 0.16271 0.0
C4070 C 0.87069 0.70047 0.16526 0.0
C4071 C 0.89109 0.69586 0.16662 0.0
C4072 C 0.84632 0.68033 0.16322 0.0
C4073 C 0.88702 0.67095 0.16568 0.0
C4074 C 0.86286 0.65083 0.16356 0.0
C4075 C 0.81776 0.63497 0.16071 0.0
C4076 C 0.79701 0.63929 0.15981 0.0
C4077 C 0.84233 0.65526 0.16244 0.0
C4078 C 0.80127 0.66435 0.16043 0.0
C4079 C 0.82573 0.68472 0.16214 0.0
H4080 H 0.14206 0.33174 0.34356 0.0
H4081 H 0.19779 0.39788 0.33038 0.0
H4082 H 0.21636 0.37321 0.32508 0.0
H4083 H 0.21701 0.33292 0.32419 0.0
H4084 H 0.16184 0.2671 0.33756 0.0
H4085 H 0.14386 0.29207 0.34312 0.0
C4086 C 0.1584 0.34088 0.33958 0.0
C4087 C 0.16823 0.36661 0.33733 0.0
C4088 C 0.16952 0.32681 0.33672 0.0
C4089 C 0.18927 0.37793 0.33207 0.0
C4090 C 0.2002 0.36395 0.32912 0.0
C4091 C 0.20116 0.32411 0.32836 0.0
C4092 C 0.19092 0.29824 0.33048 0.0
C4093 C 0.19051 0.33839 0.33141 0.0
C4094 C 0.17048 0.28713 0.33595 0.0
C4095 C 0.15991 0.30128 0.33904 0.0
H4096 H 0.63418 0.79189 0.32543 0.0
H4097 H 0.63778 0.80773 0.35064 0.0
H4098 H 0.66403 0.85348 0.34806 0.0
H4099 H 0.68598 0.88907 0.33867 0.0
H4100 H 0.68371 0.8732 0.31348 0.0
H4101 H 0.65588 0.82768 0.316 0.0
C4102 C 0.64076 0.80537 0.33035 0.0
C4103 C 0.63439 0.79633 0.33821 0.0
C4104 C 0.65559 0.83176 0.32882 0.0
C4105 C 0.64302 0.81407 0.34454 0.0
C4106 C 0.65774 0.84029 0.34306 0.0
C4107 C 0.67936 0.87569 0.33373 0.0
C4108 C 0.68687 0.88473 0.3259 0.0
C4109 C 0.66414 0.84936 0.33523 0.0
C4110 C 0.67781 0.86703 0.31956 0.0
C4111 C 0.66219 0.84085 0.321 0.0
H4112 H 0.11552 0.78132 0.32442 0.0
H4113 H 0.11754 0.84779 0.33487 0.0
H4114 H 0.16094 0.86302 0.33959 0.0
H4115 H 0.19878 0.85816 0.34053 0.0
H4116 H 0.19694 0.79166 0.33018 0.0
H4117 H 0.15356 0.77647 0.32535 0.0
C4118 C 0.12546 0.79914 0.32772 0.0
C4119 C 0.11308 0.81316 0.32935 0.0
C4120 C 0.1507 0.80812 0.33031 0.0
C4121 C 0.12626 0.83619 0.33369 0.0
C4122 C 0.15126 0.84514 0.33631 0.0
C4123 C 0.18888 0.8403 0.33724 0.0
C4124 C 0.20123 0.82621 0.33569 0.0
C4125 C 0.1637 0.83133 0.33463 0.0
C4126 C 0.18817 0.80324 0.33132 0.0
C4127 C 0.1632 0.79433 0.32864 0.0
H4128 H 0.71014 0.84233 0.83914 0.0
H4129 H 0.67467 0.80918 0.81655 0.0
H4130 H 0.64042 0.81846 0.81935 0.0
H4131 H 0.62108 0.83677 0.82805 0.0
H4132 H 0.65615 0.86934 0.85074 0.0
H4133 H 0.69082 0.86077 0.84784 0.0
C4134 C 0.69497 0.83721 0.83481 0.0
C4135 C 0.69495 0.82498 0.82766 0.0
C4136 C 0.67559 0.84302 0.83639 0.0
C4137 C 0.67494 0.81817 0.82217 0.0
C4138 C 0.6555 0.82376 0.82372 0.0
C4139 C 0.63624 0.84193 0.83238 0.0
C4140 C 0.63595 0.8537 0.8396 0.0
C4141 C 0.65572 0.83629 0.83078 0.0
C4142 C 0.65606 0.86067 0.84507 0.0
C4143 C 0.67573 0.85546 0.84347 0.0
H4144 H 0.1781 0.79405 0.83386 0.0
H4145 H 0.10022 0.77353 0.83934 0.0
H4146 H 0.10977 0.81698 0.83595 0.0
H4147 H 0.14018 0.8604 0.83137 0.0
H4148 H 0.21832 0.88115 0.82612 0.0
H4149 H 0.20865 0.83764 0.8294 0.0
C4150 C 0.16312 0.799 0.83419 0.0
C4151 C 0.13839 0.7806 0.83673 0.0
C4152 C 0.16884 0.82396 0.83233 0.0
C4153 C 0.11933 0.7874 0.83736 0.0
C4154 C 0.12481 0.81218 0.83544 0.0
C4155 C 0.15524 0.85556 0.83107 0.0
C4156 C 0.18003 0.87404 0.82859 0.0
C4157 C 0.14953 0.83061 0.83296 0.0
C4158 C 0.19911 0.86725 0.82801 0.0
C4159 C 0.19359 0.84242 0.82989 0.0
H4160 H 0.19341 0.36649 0.84473 0.0
H4161 H 0.23595 0.33922 0.83125 0.0
H4162 H 0.19658 0.308 0.82445 0.0
H4163 H 0.15028 0.28851 0.82246 0.0
H4164 H 0.10762 0.31592 0.83582 0.0
H4165 H 0.14709 0.34759 0.84249 0.0
C4166 C 0.19395 0.35346 0.84037 0.0
C4167 C 0.21735 0.35474 0.83856 0.0
C4168 C 0.17139 0.33594 0.83643 0.0
C4169 C 0.21806 0.33836 0.83275 0.0
C4170 C 0.19562 0.32062 0.82887 0.0
C4171 C 0.14963 0.30137 0.82686 0.0
C4172 C 0.12612 0.29977 0.82873 0.0
C4173 C 0.17223 0.31925 0.83068 0.0
C4174 C 0.12555 0.31689 0.83429 0.0
C4175 C 0.14803 0.33482 0.83813 0.0
H4176 H 0.86205 0.66825 0.65285 0.0
H4177 H 0.81998 0.60661 0.66951 0.0
H4178 H 0.80088 0.63012 0.67542 0.0
H4179 H 0.7955 0.6677 0.67571 0.0
H4180 H 0.84007 0.73079 0.65967 0.0
H4181 H 0.85755 0.70654 0.65341 0.0
C4182 C 0.84877 0.66006 0.6578 0.0
C4183 C 0.84264 0.63587 0.66078 0.0
C4184 C 0.83776 0.67362 0.66116 0.0
C4185 C 0.82545 0.62546 0.66721 0.0
C4186 C 0.81426 0.63874 0.67053 0.0
C4187 C 0.80918 0.67634 0.67089 0.0
C4188 C 0.81621 0.70112 0.66819 0.0
C4189 C 0.8202 0.66279 0.66753 0.0
C4190 C 0.83361 0.71156 0.6618 0.0
C4191 C 0.84404 0.69786 0.65827 0.0
H4192 H 0.3804 0.19146 0.6602 0.0
H4193 H 0.33578 0.2281 0.66471 0.0
H4194 H 0.29936 0.18694 0.66879 0.0
H4195 H 0.28086 0.14101 0.67141 0.0
H4196 H 0.32562 0.10448 0.66696 0.0
H4197 H 0.36178 0.1455 0.66268 0.0
C4198 C 0.36281 0.19052 0.66217 0.0
C4199 C 0.36084 0.21283 0.66225 0.0
C4200 C 0.34212 0.16692 0.66453 0.0
C4201 C 0.33771 0.21117 0.6646 0.0
C4202 C 0.31696 0.1877 0.66695 0.0
C4203 C 0.2984 0.14193 0.66938 0.0
C4204 C 0.30053 0.11972 0.66943 0.0
C4205 C 0.31901 0.1655 0.66695 0.0
C4206 C 0.32359 0.12134 0.667 0.0
C4207 C 0.34419 0.14474 0.66453 0.0
H4208 H 0.7999 0.18551 0.66227 0.0
H4209 H 0.77486 0.10504 0.66022 0.0
H4210 H 0.81871 0.11414 0.66268 0.0
H4211 H 0.86345 0.14477 0.66601 0.0
H4212 H 0.88852 0.22538 0.66785 0.0
H4213 H 0.84503 0.21637 0.66494 0.0
C4214 C 0.80402 0.16995 0.66241 0.0
C4215 C 0.78418 0.14459 0.66119 0.0
C4216 C 0.82915 0.17536 0.66378 0.0
C4217 C 0.78985 0.12467 0.66118 0.0
C4218 C 0.81486 0.12988 0.6626 0.0
C4219 C 0.85958 0.16047 0.66561 0.0
C4220 C 0.87925 0.18576 0.66712 0.0
C4221 C 0.8346 0.15514 0.66395 0.0
C4222 C 0.8737 0.20576 0.66676 0.0
C4223 C 0.84887 0.20062 0.66509 0.0
H4224 H 0.04876 0.5313 0.49468 0.0
H4225 H 0.99512 0.45008 0.49369 0.0
H4226 H 0.95993 0.45787 0.49687 0.0
H4227 H 0.9449 0.48768 0.50033 0.0
H4228 H -0.00135 0.56885 0.50149 0.0
H4229 H 0.03362 0.56117 0.49789 0.0
C4230 C 0.0294 0.51527 0.49526 0.0
C4231 C 0.02452 0.49011 0.49408 0.0
C4232 C 0.00941 0.51992 0.49707 0.0
C4233 C -0.00071 0.46958 0.49461 0.0
C4234 C 0.97923 0.47404 0.49642 0.0
C4235 C 0.96419 0.50374 0.49964 0.0
C4236 C 0.96922 0.52884 0.50108 0.0
C4237 C 0.98411 0.49912 0.49767 0.0
C4238 C 0.99439 0.5494 0.50038 0.0
C4239 C 0.01432 0.545 0.49834 0.0
H4240 H 0.47065 0.43942 0.49149 0.0
H4241 H 0.47546 0.45481 0.51678 0.0
H4242 H 0.49385 0.50031 0.51414 0.0
H4243 H 0.50978 0.53602 0.50472 0.0
H4244 H 0.50539 0.52101 0.47943 0.0
H4245 H 0.48707 0.47533 0.48204 0.0
C4246 C 0.47568 0.45271 0.49642 0.0
C4247 C 0.4713 0.44351 0.50431 0.0
C4248 C 0.48703 0.47906 0.49488 0.0
C4249 C 0.47784 0.46109 0.51063 0.0
C4250 C 0.4888 0.48725 0.50914 0.0
C4251 C 0.50486 0.52276 0.49978 0.0
C4252 C 0.5091 0.53199 0.4919 0.0
C4253 C 0.49368 0.49646 0.5013 0.0
C4254 C 0.50287 0.51456 0.48557 0.0
C4255 C 0.49201 0.48835 0.48704 0.0
H4256 H 0.54793 0.99754 0.51363 0.0
H4257 H 0.56408 0.05071 0.49421 0.0
H4258 H 0.52232 0.02208 0.48846 0.0
H4259 H 0.48031 0.98299 0.48924 0.0
H4260 H 0.46207 0.93339 0.50973 0.0
H4261 H 0.50525 0.96023 0.51489 0.0
C4262 C 0.54237 0.00322 0.5082 0.0
C4263 C 0.55948 0.02649 0.50442 0.0
C4264 C 0.51766 0.98746 0.50516 0.0
C4265 C 0.55185 0.03278 0.49722 0.0
C4266 C 0.52768 0.01658 0.49397 0.0
C4267 C 0.48554 0.97826 0.49492 0.0
C4268 C 0.46787 0.95605 0.49905 0.0
C4269 C 0.51026 0.99411 0.49796 0.0
C4270 C 0.47532 0.95009 0.50633 0.0
C4271 C 0.50003 0.96546 0.5093 0.0
H4272 H 0.50446 0.02458 0.01417 0.0
H4273 H 0.47197 0.02387 0.99118 0.0
H4274 H 0.48883 0.9975 0.98576 0.0
H4275 H 0.51208 0.97417 0.98767 0.0
H4276 H 0.54366 0.97396 0.01072 0.0
H4277 H 0.52792 0.00142 0.01606 0.0
C4278 C 0.50071 0.01829 0.00801 0.0
C4279 C 0.4867 0.0258 0.0031 0.0
C4280 C 0.51059 0.00337 0.00495 0.0
C4281 C 0.48262 0.01819 0.99507 0.0
C4282 C 0.4923 0.00322 0.99198 0.0
C4283 C 0.51598 0.98062 0.99382 0.0
C4284 C 0.52937 0.97253 0.99879 0.0
C4285 C 0.50638 0.99581 0.99686 0.0
C4286 C 0.53363 0.98026 0.0068 0.0
C4287 C 0.52451 0.99578 0.00984 0.0
H4288 H 0.96677 0.45505 0.99117 0.0
H4289 H 0.98235 0.46835 0.01637 0.0
H4290 H 0.01259 0.51343 0.01382 0.0
H4291 H 0.03357 0.54942 0.00451 0.0
H4292 H 0.01852 0.53602 0.97927 0.0
H4293 H 0.98814 0.49102 0.98183 0.0
C4294 C 0.97683 0.4678 0.9961 0.0
C4295 C 0.97244 0.45821 0.00393 0.0
C4296 C 0.9938 0.49387 0.99462 0.0
C4297 C 0.98578 0.475 0.01025 0.0
C4298 C 0.00282 0.50091 0.00882 0.0
C4299 C 0.0237 0.53668 0.99956 0.0
C4300 C 0.02824 0.54628 0.99172 0.0
C4301 C 0.00681 0.51059 0.00104 0.0
C4302 C 0.015 0.52944 0.9854 0.0
C4303 C 0.99787 0.50354 0.98683 0.0
H4304 H 0.46549 0.49489 0.98932 0.0
H4305 H 0.4258 0.44191 0.00848 0.0
H4306 H 0.46684 0.45165 0.0144 0.0
H4307 H 0.51368 0.47479 0.01401 0.0
H4308 H 0.55366 0.52749 0.99481 0.0
H4309 H 0.51265 0.51877 0.98907 0.0
C4310 C 0.46588 0.48523 0.99473 0.0
C4311 C 0.44276 0.46738 0.99841 0.0
C4312 C 0.48947 0.49114 0.99812 0.0
C4313 C 0.44341 0.45556 0.00554 0.0
C4314 C 0.46681 0.46117 0.00892 0.0
C4315 C 0.51341 0.48431 0.00855 0.0
C4316 C 0.53659 0.50154 0.00477 0.0
C4317 C 0.4899 0.47888 0.00525 0.0
C4318 C 0.53604 0.51424 0.99782 0.0
C4319 C 0.51264 0.50908 0.99452 0.0
loop_
_geom_bond_atom_site_label_1
_geom_bond_atom_site_label_2
_geom_bond_distance
_geom_bond_site_symmetry_2
_ccdc_geom_bond_type
Li0 N17 1.990 . S
Li0 O60 1.956 . S
Li0 O61 1.970 . S
Li0 O62 1.961 . S
Li1 N25 1.990 . S
Li1 O60 1.970 . S
Li1 O61 1.956 . S
Li1 O63 1.961 . S
Li2 N47 1.990 . S
Li2 O60 1.961 . S
Li2 O62 1.956 . S
Li2 O63 1.970 . S
Li3 N53 1.990 . S
Li3 O61 1.961 . S
Li3 O62 1.970 . S
Li3 O63 1.956 . S
C4 C6 1.348 . S
C4 C7 1.356 . S
C4 O60 1.325 . S
N5 C8 1.314 . S
N5 C9 1.279 . S
C6 C4 1.348 . S
C6 C8 1.353 . S
C6 H64 0.929 . S
C7 C4 1.356 . S
C7 C9 1.358 . S
C7 H65 0.930 . S
C8 N5 1.314 . S
C8 C6 1.353 . S
C8 H66 0.930 . S
C9 N5 1.279 . S
C9 C7 1.358 . S
C9 H67 0.930 . S
C10 C13 1.348 . S
C10 C14 1.356 . S
C10 O61 1.325 . S
C11 N12 1.279 . S
C11 C14 1.358 . S
C11 H68 0.930 . S
N12 C11 1.279 . S
N12 C15 1.314 . S
C13 C10 1.348 . S
C13 C15 1.353 . S
C13 H69 0.929 . S
C14 C10 1.356 . S
C14 C11 1.358 . S
C14 H70 0.930 . S
C15 N12 1.314 . S
C15 C13 1.353 . S
C15 H71 0.930 . S
C16 N17 1.314 . S
C16 C21 1.353 . S
C16 H22 0.930 . S
N17 Li0 1.990 . S
N17 C16 1.314 . S
N17 C19 1.279 . S
C18 C19 1.358 . S
C18 C20 1.356 . S
C18 H72 0.930 . S
C19 N17 1.279 . S
C19 C18 1.358 . S
C19 H23 0.930 . S
C20 C18 1.356 . S
C20 C21 1.348 . S
C21 C16 1.353 . S
C21 C20 1.348 . S
C21 H73 0.929 . S
H22 C16 0.930 . S
H23 C19 0.930 . S
C24 N25 1.314 . S
C24 C26 1.353 . S
C24 H30 0.930 . S
N25 Li1 1.990 . S
N25 C24 1.314 . S
N25 C28 1.279 . S
C26 C24 1.353 . S
C26 C29 1.348 . S
C26 H74 0.929 . S
C27 C28 1.358 . S
C27 C29 1.356 . S
C27 H75 0.930 . S
C28 N25 1.279 . S
C28 C27 1.358 . S
C28 H31 0.930 . S
C29 C26 1.348 . S
C29 C27 1.356 . S
H30 C24 0.930 . S
H31 C28 0.930 . S
C32 C34 1.348 . S
C32 C35 1.356 . S
C32 O62 1.325 . S
N33 C36 1.314 . S
N33 C37 1.279 . S
C34 C32 1.348 . S
C34 C36 1.353 . S
C34 H76 0.929 . S
C35 C32 1.356 . S
C35 C37 1.358 . S
C35 H77 0.930 . S
C36 N33 1.314 . S
C36 C34 1.353 . S
C36 H78 0.930 . S
C37 N33 1.279 . S
C37 C35 1.358 . S
C37 H79 0.930 . S
C38 C39 1.348 . S
C38 C40 1.356 . S
C38 O63 1.325 . S
C39 C38 1.348 . S
C39 C41 1.353 . S
C39 H80 0.929 . S
C40 C38 1.356 . S
C40 C42 1.358 . S
C40 H81 0.930 . S
C41 C39 1.353 . S
C41 N43 1.314 . S
C41 H82 0.930 . S
C42 C40 1.358 . S
C42 N43 1.279 . S
C42 H83 0.930 . S
N43 C41 1.314 . S
N43 C42 1.279 . S
C44 C46 1.353 . S
C44 N47 1.314 . S
C44 H50 0.930 . S
C45 N47 1.279 . S
C45 C48 1.358 . S
C45 H51 0.930 . S
C46 C44 1.353 . S
C46 C49 1.348 . S
C46 H84 0.929 . S
N47 Li2 1.990 . S
N47 C44 1.314 . S
N47 C45 1.279 . S
C48 C45 1.358 . S
C48 C49 1.356 . S
C48 H85 0.930 . S
C49 C46 1.348 . S
C49 C48 1.356 . S
H50 C44 0.930 . S
H51 C45 0.930 . S
C52 N53 1.314 . S
C52 C54 1.353 . S
C52 H58 0.930 . S
N53 Li3 1.990 . S
N53 C52 1.314 . S
N53 C56 1.279 . S
C54 C52 1.353 . S
C54 C57 1.348 . S
C54 H86 0.929 . S
C55 C56 1.358 . S
C55 C57 1.356 . S
C55 H87 0.930 . S
C56 N53 1.279 . S
C56 C55 1.358 . S
C56 H59 0.930 . S
C57 C54 1.348 . S
C57 C55 1.356 . S
H58 C52 0.930 . S
H59 C56 0.930 . S
O60 Li0 1.956 . S
O60 Li1 1.970 . S
O60 Li2 1.961 . S
O60 C4 1.325 . S
O61 Li0 1.970 . S
O61 Li1 1.956 . S
O61 Li3 1.961 . S
O61 C10 1.325 . S
O62 Li0 1.961 . S
O62 Li2 1.956 . S
O62 Li3 1.970 . S
O62 C32 1.325 . S
O63 Li1 1.961 . S
O63 Li2 1.970 . S
O63 Li3 1.956 . S
O63 C38 1.325 . S
H64 C6 0.929 . S
H65 C7 0.930 . S
H66 C8 0.930 . S
H67 C9 0.930 . S
H68 C11 0.930 . S
H69 C13 0.929 . S
H70 C14 0.930 . S
H71 C15 0.930 . S
H72 C18 0.930 . S
H73 C21 0.929 . S
H74 C26 0.929 . S
H75 C27 0.930 . S
H76 C34 0.929 . S
H77 C35 0.930 . S
H78 C36 0.930 . S
H79 C37 0.930 . S
H80 C39 0.929 . S
H81 C40 0.930 . S
H82 C41 0.930 . S
H83 C42 0.930 . S
H84 C46 0.929 . S
H85 C48 0.930 . S
H86 C54 0.929 . S
H87 C55 0.930 . S
Li88 N105 1.990 . S
Li88 O148 1.956 . S
Li88 O149 1.970 1_545 S
Li88 O150 1.961 . S
Li89 N113 1.990 . S
Li89 O148 1.970 1_565 S
Li89 O149 1.956 . S
Li89 O151 1.961 1_565 S
Li90 N135 1.990 . S
Li90 O148 1.961 . S
Li90 O150 1.956 . S
Li90 O151 1.970 . S
Li91 N141 1.990 . S
Li91 O149 1.961 1_545 S
Li91 O150 1.970 . S
Li91 O151 1.956 . S
C92 C94 1.348 . S
C92 C95 1.356 1_565 S
C92 O148 1.325 1_565 S
N93 C96 1.314 . S
N93 C97 1.279 . S
C94 C92 1.348 . S
C94 C96 1.353 . S
C94 H152 0.929 . S
C95 C92 1.356 1_545 S
C95 C97 1.358 1_545 S
C95 H153 0.930 . S
C96 N93 1.314 . S
C96 C94 1.353 . S
C96 H154 0.930 . S
C97 N93 1.279 . S
C97 C95 1.358 1_565 S
C97 H155 0.930 1_565 S
C98 C101 1.348 . S
C98 C102 1.356 . S
C98 O149 1.325 . S
C99 N100 1.279 . S
C99 C102 1.358 . S
C99 H156 0.930 . S
N100 C99 1.279 . S
N100 C103 1.314 . S
C101 C98 1.348 . S
C101 C103 1.353 . S
C101 H157 0.929 . S
C102 C98 1.356 . S
C102 C99 1.358 . S
C102 H158 0.930 . S
C103 N100 1.314 . S
C103 C101 1.353 . S
C103 H159 0.930 . S
C104 N105 1.314 . S
C104 C109 1.353 . S
C104 H110 0.930 . S
N105 Li88 1.990 . S
N105 C104 1.314 . S
N105 C107 1.279 1_545 S
C106 C107 1.358 . S
C106 C108 1.356 1_565 S
C106 H160 0.930 . S
C107 N105 1.279 1_565 S
C107 C106 1.358 . S
C107 H111 0.930 . S
C108 C106 1.356 1_545 S
C108 C109 1.348 . S
C109 C104 1.353 . S
C109 C108 1.348 . S
C109 H161 0.929 . S
H110 C104 0.930 . S
H111 C107 0.930 . S
C112 N113 1.314 . S
C112 C114 1.353 . S
C112 H118 0.930 . S
N113 Li89 1.990 . S
N113 C112 1.314 . S
N113 C116 1.279 . S
C114 C112 1.353 . S
C114 C117 1.348 . S
C114 H162 0.929 . S
C115 C116 1.358 . S
C115 C117 1.356 . S
C115 H163 0.930 . S
C116 N113 1.279 . S
C116 C115 1.358 . S
C116 H119 0.930 . S
C117 C114 1.348 . S
C117 C115 1.356 . S
H118 C112 0.930 . S
H119 C116 0.930 . S
C120 C122 1.348 . S
C120 C123 1.356 . S
C120 O150 1.325 . S
N121 C124 1.314 . S
N121 C125 1.279 . S
C122 C120 1.348 . S
C122 C124 1.353 . S
C122 H164 0.929 . S
C123 C120 1.356 . S
C123 C125 1.358 . S
C123 H165 0.930 . S
C124 N121 1.314 . S
C124 C122 1.353 . S
C124 H166 0.930 . S
C125 N121 1.279 . S
C125 C123 1.358 . S
C125 H167 0.930 . S
C126 C127 1.348 . S
C126 C128 1.356 . S
C126 O151 1.325 . S
C127 C126 1.348 . S
C127 C129 1.353 . S
C127 H168 0.929 . S
C128 C126 1.356 . S
C128 C130 1.358 . S
C128 H169 0.930 1_545 S
C129 C127 1.353 . S
C129 N131 1.314 . S
C129 H170 0.930 . S
C130 C128 1.358 . S
C130 N131 1.279 . S
C130 H171 0.926 1_545 S
N131 C129 1.314 . S
N131 C130 1.279 . S
C132 C134 1.353 . S
C132 N135 1.314 . S
C132 H138 0.930 . S
C133 N135 1.279 . S
C133 C136 1.358 . S
C133 H139 0.930 . S
C134 C132 1.353 . S
C134 C137 1.348 . S
C134 H172 0.929 . S
N135 Li90 1.990 . S
N135 C132 1.314 . S
N135 C133 1.279 . S
C136 C133 1.358 . S
C136 C137 1.356 . S
C136 H173 0.930 . S
C137 C134 1.348 . S
C137 C136 1.356 . S
H138 C132 0.930 . S
H139 C133 0.930 . S
C140 N141 1.314 . S
C140 C142 1.353 . S
C140 H146 0.930 . S
N141 Li91 1.990 . S
N141 C140 1.314 . S
N141 C144 1.279 . S
C142 C140 1.353 . S
C142 C145 1.348 . S
C142 H174 0.929 . S
C143 C144 1.358 . S
C143 C145 1.356 . S
C143 H175 0.930 . S
C144 N141 1.279 . S
C144 C143 1.358 . S
C144 H147 0.930 . S
C145 C142 1.348 . S
C145 C143 1.356 . S
H146 C140 0.930 . S
H147 C144 0.930 . S
O148 Li88 1.956 . S
O148 Li89 1.970 1_545 S
O148 Li90 1.961 . S
O148 C92 1.325 1_545 S
O149 Li88 1.970 1_565 S
O149 Li89 1.956 . S
O149 Li91 1.961 1_565 S
O149 C98 1.325 . S
O150 Li88 1.961 . S
O150 Li90 1.956 . S
O150 Li91 1.970 . S
O150 C120 1.325 . S
O151 Li89 1.961 1_545 S
O151 Li90 1.970 . S
O151 Li91 1.956 . S
O151 C126 1.325 . S
H152 C94 0.929 . S
H153 C95 0.930 . S
H154 C96 0.930 . S
H155 C97 0.930 1_545 S
H156 C99 0.930 . S
H157 C101 0.929 . S
H158 C102 0.930 . S
H159 C103 0.930 . S
H160 C106 0.930 . S
H161 C109 0.929 . S
H162 C114 0.929 . S
H163 C115 0.930 . S
H164 C122 0.929 . S
H165 C123 0.930 . S
H166 C124 0.930 . S
H167 C125 0.930 . S
H168 C127 0.929 . S
H169 C128 0.930 1_565 S
H170 C129 0.930 . S
H171 C130 0.926 1_565 S
H172 C134 0.929 . S
H173 C136 0.930 . S
H174 C142 0.929 . S
H175 C143 0.930 . S
Li176 N193 1.990 . S
Li176 O236 1.956 . S
Li176 O237 1.970 1_455 S
Li176 O238 1.961 1_455 S
Li177 N201 1.990 . S
Li177 O236 1.970 1_655 S
Li177 O237 1.956 . S
Li177 O239 1.961 . S
Li178 N223 1.990 . S
Li178 O236 1.961 1_655 S
Li178 O238 1.956 . S
Li178 O239 1.970 . S
Li179 N229 1.990 . S
Li179 O237 1.961 . S
Li179 O238 1.970 . S
Li179 O239 1.956 . S
C180 C182 1.348 . S
C180 C183 1.356 . S
C180 O236 1.325 . S
N181 C184 1.314 . S
N181 C185 1.279 . S
C182 C180 1.348 . S
C182 C184 1.353 . S
C182 H240 0.929 . S
C183 C180 1.356 . S
C183 C185 1.358 . S
C183 H241 0.930 . S
C184 N181 1.314 . S
C184 C182 1.353 . S
C184 H242 0.930 . S
C185 N181 1.279 . S
C185 C183 1.358 . S
C185 H243 0.930 . S
C186 C189 1.348 . S
C186 C190 1.356 1_455 S
C186 O237 1.325 1_455 S
C187 N188 1.279 . S
C187 C190 1.358 1_455 S
C187 H244 0.930 1_455 S
N188 C187 1.279 . S
N188 C191 1.314 . S
C189 C186 1.348 . S
C189 C191 1.353 . S
C189 H245 0.929 . S
C190 C186 1.356 1_655 S
C190 C187 1.358 1_655 S
C190 H246 0.930 . S
C191 N188 1.314 . S
C191 C189 1.353 . S
C191 H247 0.930 . S
C192 N193 1.314 . S
C192 C197 1.353 . S
C192 H198 0.930 . S
N193 Li176 1.990 . S
N193 C192 1.314 . S
N193 C195 1.279 . S
C194 C195 1.358 . S
C194 C196 1.356 . S
C194 H248 0.930 . S
C195 N193 1.279 . S
C195 C194 1.358 . S
C195 H199 0.930 . S
C196 C194 1.356 . S
C196 C197 1.348 . S
C197 C192 1.353 . S
C197 C196 1.348 . S
C197 H249 0.929 . S
H198 C192 0.930 . S
H199 C195 0.930 . S
C200 N201 1.314 . S
C200 C202 1.353 . S
C200 H206 0.930 . S
N201 Li177 1.990 . S
N201 C200 1.314 . S
N201 C204 1.279 1_655 S
C202 C200 1.353 . S
C202 C205 1.348 . S
C202 H250 0.929 . S
C203 C204 1.358 . S
C203 C205 1.356 1_455 S
C203 H251 0.930 . S
C204 N201 1.279 1_455 S
C204 C203 1.358 . S
C204 H207 0.930 . S
C205 C202 1.348 . S
C205 C203 1.356 1_655 S
H206 C200 0.930 . S
H207 C204 0.930 . S
C208 C210 1.348 . S
C208 C211 1.356 . S
C208 O238 1.325 . S
N209 C212 1.314 . S
N209 C213 1.279 . S
C210 C208 1.348 . S
C210 C212 1.353 . S
C210 H252 0.929 . S
C211 C208 1.356 . S
C211 C213 1.358 . S
C211 H253 0.930 1_655 S
C212 N209 1.314 . S
C212 C210 1.353 . S
C212 H254 0.930 . S
C213 N209 1.279 . S
C213 C211 1.358 . S
C213 H255 0.922 1_655 S
C214 C215 1.348 . S
C214 C216 1.356 . S
C214 O239 1.325 . S
C215 C214 1.348 . S
C215 C217 1.353 . S
C215 H256 0.929 . S
C216 C214 1.356 . S
C216 C218 1.358 . S
C216 H257 0.930 . S
C217 C215 1.353 . S
C217 N219 1.314 . S
C217 H258 0.930 . S
C218 C216 1.358 . S
C218 N219 1.279 . S
C218 H259 0.930 . S
N219 C217 1.314 . S
N219 C218 1.279 . S
C220 C222 1.353 . S
C220 N223 1.314 . S
C220 H226 0.930 . S
C221 N223 1.279 . S
C221 C224 1.358 . S
C221 H227 0.930 . S
C222 C220 1.353 . S
C222 C225 1.348 . S
C222 H260 0.929 . S
N223 Li178 1.990 . S
N223 C220 1.314 . S
N223 C221 1.279 . S
C224 C221 1.358 . S
C224 C225 1.356 . S
C224 H261 0.930 . S
C225 C222 1.348 . S
C225 C224 1.356 . S
H226 C220 0.930 . S
H227 C221 0.930 . S
C228 N229 1.314 . S
C228 C230 1.353 . S
C228 H234 0.930 . S
N229 Li179 1.990 . S
N229 C228 1.314 . S
N229 C232 1.279 . S
C230 C228 1.353 . S
C230 C233 1.348 . S
C230 H262 0.929 . S
C231 C232 1.358 . S
C231 C233 1.356 . S
C231 H263 0.930 . S
C232 N229 1.279 . S
C232 C231 1.358 . S
C232 H235 0.930 . S
C233 C230 1.348 . S
C233 C231 1.356 . S
H234 C228 0.930 . S
H235 C232 0.930 . S
O236 Li176 1.956 . S
O236 Li177 1.970 1_455 S
O236 Li178 1.961 1_455 S
O236 C180 1.325 . S
O237 Li176 1.970 1_655 S
O237 Li177 1.956 . S
O237 Li179 1.961 . S
O237 C186 1.325 1_655 S
O238 Li176 1.961 1_655 S
O238 Li178 1.956 . S
O238 Li179 1.970 . S
O238 C208 1.325 . S
O239 Li177 1.961 . S
O239 Li178 1.970 . S
O239 Li179 1.956 . S
O239 C214 1.325 . S
H240 C182 0.929 . S
H241 C183 0.930 . S
H242 C184 0.930 . S
H243 C185 0.930 . S
H244 C187 0.930 1_655 S
H245 C189 0.929 . S
H246 C190 0.930 . S
H247 C191 0.930 . S
H248 C194 0.930 . S
H249 C197 0.929 . S
H250 C202 0.929 . S
H251 C203 0.930 . S
H252 C210 0.929 . S
H253 C211 0.930 1_455 S
H254 C212 0.930 . S
H255 C213 0.922 1_455 S
H256 C215 0.929 . S
H257 C216 0.930 . S
H258 C217 0.930 . S
H259 C218 0.930 . S
H260 C222 0.929 . S
H261 C224 0.930 . S
H262 C230 0.929 . S
H263 C231 0.930 . S
Li264 N281 1.990 . S
Li264 O324 1.956 . S
Li264 O325 1.970 . S
Li264 O326 1.961 . S
Li265 N289 1.990 . S
Li265 O324 1.970 . S
Li265 O325 1.956 . S
Li265 O327 1.961 . S
Li266 N311 1.990 . S
Li266 O324 1.961 . S
Li266 O326 1.956 . S
Li266 O327 1.970 . S
Li267 N317 1.990 . S
Li267 O325 1.961 . S
Li267 O326 1.970 . S
Li267 O327 1.956 . S
C268 C270 1.348 . S
C268 C271 1.356 . S
C268 O324 1.325 . S
N269 C272 1.314 . S
N269 C273 1.279 . S
C270 C268 1.348 . S
C270 C272 1.353 . S
C270 H328 0.929 . S
C271 C268 1.356 . S
C271 C273 1.358 . S
C271 H329 0.930 . S
C272 N269 1.314 . S
C272 C270 1.353 . S
C272 H330 0.930 . S
C273 N269 1.279 . S
C273 C271 1.358 . S
C273 H331 0.930 . S
C274 C277 1.348 . S
C274 C278 1.356 . S
C274 O325 1.325 . S
C275 N276 1.279 . S
C275 C278 1.358 . S
C275 H332 0.930 . S
N276 C275 1.279 . S
N276 C279 1.314 . S
C277 C274 1.348 . S
C277 C279 1.353 . S
C277 H333 0.929 . S
C278 C274 1.356 . S
C278 C275 1.358 . S
C278 H334 0.930 . S
C279 N276 1.314 . S
C279 C277 1.353 . S
C279 H335 0.930 . S
C280 N281 1.314 . S
C280 C285 1.353 . S
C280 H286 0.930 . S
N281 Li264 1.990 . S
N281 C280 1.314 . S
N281 C283 1.279 . S
C282 C283 1.358 . S
C282 C284 1.356 . S
C282 H336 0.930 . S
C283 N281 1.279 . S
C283 C282 1.358 . S
C283 H287 0.930 . S
C284 C282 1.356 . S
C284 C285 1.348 . S
C285 C280 1.353 . S
C285 C284 1.348 . S
C285 H337 0.929 . S
H286 C280 0.930 . S
H287 C283 0.930 . S
C288 N289 1.314 . S
C288 C290 1.353 . S
C288 H294 0.930 . S
N289 Li265 1.990 . S
N289 C288 1.314 . S
N289 C292 1.279 . S
C290 C288 1.353 . S
C290 C293 1.348 . S
C290 H338 0.929 . S
C291 C292 1.358 . S
C291 C293 1.356 . S
C291 H339 0.930 . S
C292 N289 1.279 . S
C292 C291 1.358 . S
C292 H295 0.930 . S
C293 C290 1.348 . S
C293 C291 1.356 . S
H294 C288 0.930 . S
H295 C292 0.930 . S
C296 C298 1.348 . S
C296 C299 1.356 . S
C296 O326 1.325 . S
N297 C300 1.314 . S
N297 C301 1.279 . S
C298 C296 1.348 . S
C298 C300 1.353 . S
C298 H340 0.929 . S
C299 C296 1.356 . S
C299 C301 1.358 . S
C299 H341 0.930 . S
C300 N297 1.314 . S
C300 C298 1.353 . S
C300 H342 0.930 . S
C301 N297 1.279 . S
C301 C299 1.358 . S
C301 H343 0.930 . S
C302 C303 1.348 . S
C302 C304 1.356 . S
C302 O327 1.325 . S
C303 C302 1.348 . S
C303 C305 1.353 . S
C303 H344 0.929 . S
C304 C302 1.356 . S
C304 C306 1.358 . S
C304 H345 0.930 . S
C305 C303 1.353 . S
C305 N307 1.314 . S
C305 H346 0.930 . S
C306 C304 1.358 . S
C306 N307 1.279 . S
C306 H347 0.930 . S
N307 C305 1.314 . S
N307 C306 1.279 . S
C308 C310 1.353 . S
C308 N311 1.314 . S
C308 H314 0.930 . S
C309 N311 1.279 . S
C309 C312 1.358 . S
C309 H315 0.930 . S
C310 C308 1.353 . S
C310 C313 1.348 . S
C310 H348 0.929 . S
N311 Li266 1.990 . S
N311 C308 1.314 . S
N311 C309 1.279 . S
C312 C309 1.358 . S
C312 C313 1.356 . S
C312 H349 0.930 . S
C313 C310 1.348 . S
C313 C312 1.356 . S
H314 C308 0.930 . S
H315 C309 0.930 . S
C316 N317 1.314 . S
C316 C318 1.353 . S
C316 H322 0.930 . S
N317 Li267 1.990 . S
N317 C316 1.314 . S
N317 C320 1.279 . S
C318 C316 1.353 . S
C318 C321 1.348 . S
C318 H350 0.929 . S
C319 C320 1.358 . S
C319 C321 1.356 . S
C319 H351 0.930 . S
C320 N317 1.279 . S
C320 C319 1.358 . S
C320 H323 0.930 . S
C321 C318 1.348 . S
C321 C319 1.356 . S
H322 C316 0.930 . S
H323 C320 0.930 . S
O324 Li264 1.956 . S
O324 Li265 1.970 . S
O324 Li266 1.961 . S
O324 C268 1.325 . S
O325 Li264 1.970 . S
O325 Li265 1.956 . S
O325 Li267 1.961 . S
O325 C274 1.325 . S
O326 Li264 1.961 . S
O326 Li266 1.956 . S
O326 Li267 1.970 . S
O326 C296 1.325 . S
O327 Li265 1.961 . S
O327 Li266 1.970 . S
O327 Li267 1.956 . S
O327 C302 1.325 . S
H328 C270 0.929 . S
H329 C271 0.930 . S
H330 C272 0.930 . S
H331 C273 0.930 . S
H332 C275 0.930 . S
H333 C277 0.929 . S
H334 C278 0.930 . S
H335 C279 0.930 . S
H336 C282 0.930 . S
H337 C285 0.929 . S
H338 C290 0.929 . S
H339 C291 0.930 . S
H340 C298 0.929 . S
H341 C299 0.930 . S
H342 C300 0.930 . S
H343 C301 0.930 . S
H344 C303 0.929 . S
H345 C304 0.930 . S
H346 C305 0.930 . S
H347 C306 0.930 . S
H348 C310 0.929 . S
H349 C312 0.930 . S
H350 C318 0.929 . S
H351 C319 0.930 . S
Li352 N369 1.990 . S
Li352 O412 1.956 . S
Li352 O413 1.970 . S
Li352 O414 1.961 . S
Li353 N377 1.990 . S
Li353 O412 1.970 . S
Li353 O413 1.956 . S
Li353 O415 1.961 1_565 S
Li354 N399 1.990 . S
Li354 O412 1.961 . S
Li354 O414 1.956 . S
Li354 O415 1.970 1_565 S
Li355 N405 1.990 . S
Li355 O413 1.961 1_545 S
Li355 O414 1.970 1_545 S
Li355 O415 1.956 . S
C356 C358 1.348 . S
C356 C359 1.356 . S
C356 O412 1.325 . S
N357 C360 1.314 . S
N357 C361 1.279 . S
C358 C356 1.348 . S
C358 C360 1.353 . S
C358 H416 0.929 . S
C359 C356 1.356 . S
C359 C361 1.358 . S
C359 H417 0.930 . S
C360 N357 1.314 . S
C360 C358 1.353 . S
C360 H418 0.930 . S
C361 N357 1.279 . S
C361 C359 1.358 . S
C361 H419 0.930 . S
C362 C365 1.348 . S
C362 C366 1.356 . S
C362 O413 1.325 . S
C363 N364 1.279 . S
C363 C366 1.358 . S
C363 H420 0.914 1_565 S
N364 C363 1.279 . S
N364 C367 1.314 . S
C365 C362 1.348 . S
C365 C367 1.353 . S
C365 H421 0.929 . S
C366 C362 1.356 . S
C366 C363 1.358 . S
C366 H422 0.930 1_565 S
C367 N364 1.314 . S
C367 C365 1.353 . S
C367 H423 0.930 . S
C368 N369 1.314 . S
C368 C373 1.353 . S
C368 H374 0.930 . S
N369 Li352 1.990 . S
N369 C368 1.314 . S
N369 C371 1.279 . S
C370 C371 1.358 . S
C370 C372 1.356 . S
C370 H424 0.930 . S
C371 N369 1.279 . S
C371 C370 1.358 . S
C371 H375 0.930 . S
C372 C370 1.356 . S
C372 C373 1.348 . S
C373 C368 1.353 . S
C373 C372 1.348 . S
C373 H425 0.929 . S
H374 C368 0.930 . S
H375 C371 0.930 . S
C376 N377 1.314 . S
C376 C378 1.353 . S
C376 H382 0.930 . S
N377 Li353 1.990 . S
N377 C376 1.314 . S
N377 C380 1.279 . S
C378 C376 1.353 . S
C378 C381 1.348 . S
C378 H426 0.929 . S
C379 C380 1.358 . S
C379 C381 1.356 . S
C379 H427 0.930 . S
C380 N377 1.279 . S
C380 C379 1.358 . S
C380 H383 0.930 . S
C381 C378 1.348 . S
C381 C379 1.356 . S
H382 C376 0.930 . S
H383 C380 0.930 . S
C384 C386 1.348 . S
C384 C387 1.356 1_545 S
C384 O414 1.325 1_545 S
N385 C388 1.314 . S
N385 C389 1.279 . S
C386 C384 1.348 . S
C386 C388 1.353 . S
C386 H428 0.929 . S
C387 C384 1.356 1_565 S
C387 C389 1.358 1_565 S
C387 H429 0.930 . S
C388 N385 1.314 . S
C388 C386 1.353 . S
C388 H430 0.930 . S
C389 N385 1.279 . S
C389 C387 1.358 1_545 S
C389 H431 0.930 1_545 S
C390 C391 1.348 . S
C390 C392 1.356 . S
C390 O415 1.325 . S
C391 C390 1.348 . S
C391 C393 1.353 . S
C391 H432 0.929 . S
C392 C390 1.356 . S
C392 C394 1.358 . S
C392 H433 0.930 . S
C393 C391 1.353 . S
C393 N395 1.314 . S
C393 H434 0.930 . S
C394 C392 1.358 . S
C394 N395 1.279 . S
C394 H435 0.930 . S
N395 C393 1.314 . S
N395 C394 1.279 . S
C396 C398 1.353 . S
C396 N399 1.314 . S
C396 H402 0.930 . S
C397 N399 1.279 1_545 S
C397 C400 1.358 . S
C397 H403 0.930 . S
C398 C396 1.353 . S
C398 C401 1.348 . S
C398 H436 0.929 . S
N399 Li354 1.990 . S
N399 C396 1.314 . S
N399 C397 1.279 1_565 S
C400 C397 1.358 . S
C400 C401 1.356 1_545 S
C400 H437 0.930 . S
C401 C398 1.348 . S
C401 C400 1.356 1_565 S
H402 C396 0.930 . S
H403 C397 0.930 . S
C404 N405 1.314 . S
C404 C406 1.353 . S
C404 H410 0.930 . S
N405 Li355 1.990 . S
N405 C404 1.314 . S
N405 C408 1.279 . S
C406 C404 1.353 . S
C406 C409 1.348 . S
C406 H438 0.929 . S
C407 C408 1.358 . S
C407 C409 1.356 . S
C407 H439 0.930 . S
C408 N405 1.279 . S
C408 C407 1.358 . S
C408 H411 0.930 . S
C409 C406 1.348 . S
C409 C407 1.356 . S
H410 C404 0.930 . S
H411 C408 0.930 . S
O412 Li352 1.956 . S
O412 Li353 1.970 . S
O412 Li354 1.961 . S
O412 C356 1.325 . S
O413 Li352 1.970 . S
O413 Li353 1.956 . S
O413 Li355 1.961 1_565 S
O413 C362 1.325 . S
O414 Li352 1.961 . S
O414 Li354 1.956 . S
O414 Li355 1.970 1_565 S
O414 C384 1.325 1_565 S
O415 Li353 1.961 1_545 S
O415 Li354 1.970 1_545 S
O415 Li355 1.956 . S
O415 C390 1.325 . S
H416 C358 0.929 . S
H417 C359 0.930 . S
H418 C360 0.930 . S
H419 C361 0.930 . S
H420 C363 0.914 1_545 S
H421 C365 0.929 . S
H422 C366 0.930 1_545 S
H423 C367 0.930 . S
H424 C370 0.930 . S
H425 C373 0.929 . S
H426 C378 0.929 . S
H427 C379 0.930 . S
H428 C386 0.929 . S
H429 C387 0.930 . S
H430 C388 0.930 . S
H431 C389 0.930 1_565 S
H432 C391 0.929 . S
H433 C392 0.930 . S
H434 C393 0.930 . S
H435 C394 0.930 . S
H436 C398 0.929 . S
H437 C400 0.930 . S
H438 C406 0.929 . S
H439 C407 0.930 . S
Li440 N457 1.990 . S
Li440 O500 1.956 . S
Li440 O501 1.970 . S
Li440 O502 1.961 . S
Li441 N465 1.990 . S
Li441 O500 1.970 . S
Li441 O501 1.956 . S
Li441 O503 1.961 1_455 S
Li442 N487 1.990 . S
Li442 O500 1.961 . S
Li442 O502 1.956 . S
Li442 O503 1.970 1_455 S
Li443 N493 1.990 . S
Li443 O501 1.961 1_655 S
Li443 O502 1.970 1_655 S
Li443 O503 1.956 . S
C444 C446 1.348 . S
C444 C447 1.356 . S
C444 O500 1.325 . S
N445 C448 1.314 . S
N445 C449 1.279 . S
C446 C444 1.348 . S
C446 C448 1.353 . S
C446 H504 0.929 . S
C447 C444 1.356 . S
C447 C449 1.358 . S
C447 H505 0.930 . S
C448 N445 1.314 . S
C448 C446 1.353 . S
C448 H506 0.930 . S
C449 N445 1.279 . S
C449 C447 1.358 . S
C449 H507 0.930 . S
C450 C453 1.348 . S
C450 C454 1.356 . S
C450 O501 1.325 . S
C451 N452 1.279 . S
C451 C454 1.358 . S
C451 H508 0.925 1_455 S
N452 C451 1.279 . S
N452 C455 1.314 . S
C453 C450 1.348 . S
C453 C455 1.353 . S
C453 H509 0.929 . S
C454 C450 1.356 . S
C454 C451 1.358 . S
C454 H510 0.930 1_455 S
C455 N452 1.314 . S
C455 C453 1.353 . S
C455 H511 0.930 . S
C456 N457 1.314 . S
C456 C461 1.353 . S
C456 H462 0.930 . S
N457 Li440 1.990 . S
N457 C456 1.314 . S
N457 C459 1.279 . S
C458 C459 1.358 . S
C458 C460 1.356 . S
C458 H512 0.930 . S
C459 N457 1.279 . S
C459 C458 1.358 . S
C459 H463 0.930 . S
C460 C458 1.356 . S
C460 C461 1.348 . S
C461 C456 1.353 . S
C461 C460 1.348 . S
C461 H513 0.929 . S
H462 C456 0.930 . S
H463 C459 0.930 . S
C464 N465 1.314 . S
C464 C466 1.353 . S
C464 H470 0.930 . S
N465 Li441 1.990 . S
N465 C464 1.314 . S
N465 C468 1.279 . S
C466 C464 1.353 . S
C466 C469 1.348 . S
C466 H514 0.929 . S
C467 C468 1.358 . S
C467 C469 1.356 . S
C467 H515 0.930 . S
C468 N465 1.279 . S
C468 C467 1.358 . S
C468 H471 0.930 . S
C469 C466 1.348 . S
C469 C467 1.356 . S
H470 C464 0.930 . S
H471 C468 0.930 . S
C472 C474 1.348 . S
C472 C475 1.356 1_655 S
C472 O502 1.325 1_655 S
N473 C476 1.314 . S
N473 C477 1.279 . S
C474 C472 1.348 . S
C474 C476 1.353 . S
C474 H516 0.929 . S
C475 C472 1.356 1_455 S
C475 C477 1.358 1_455 S
C475 H517 0.930 . S
C476 N473 1.314 . S
C476 C474 1.353 . S
C476 H518 0.930 . S
C477 N473 1.279 . S
C477 C475 1.358 1_655 S
C477 H519 0.930 1_655 S
C478 C479 1.348 . S
C478 C480 1.356 . S
C478 O503 1.325 . S
C479 C478 1.348 . S
C479 C481 1.353 . S
C479 H520 0.929 . S
C480 C478 1.356 . S
C480 C482 1.358 . S
C480 H521 0.930 . S
C481 C479 1.353 . S
C481 N483 1.314 . S
C481 H522 0.930 . S
C482 C480 1.358 . S
C482 N483 1.279 . S
C482 H523 0.930 . S
N483 C481 1.314 . S
N483 C482 1.279 . S
C484 C486 1.353 . S
C484 N487 1.314 . S
C484 H490 0.930 . S
C485 N487 1.279 1_655 S
C485 C488 1.358 . S
C485 H491 0.930 . S
C486 C484 1.353 . S
C486 C489 1.348 . S
C486 H524 0.929 . S
N487 Li442 1.990 . S
N487 C484 1.314 . S
N487 C485 1.279 1_455 S
C488 C485 1.358 . S
C488 C489 1.356 1_655 S
C488 H525 0.930 . S
C489 C486 1.348 . S
C489 C488 1.356 1_455 S
H490 C484 0.930 . S
H491 C485 0.930 . S
C492 N493 1.314 . S
C492 C494 1.353 . S
C492 H498 0.930 . S
N493 Li443 1.990 . S
N493 C492 1.314 . S
N493 C496 1.279 . S
C494 C492 1.353 . S
C494 C497 1.348 . S
C494 H526 0.929 . S
C495 C496 1.358 . S
C495 C497 1.356 . S
C495 H527 0.930 . S
C496 N493 1.279 . S
C496 C495 1.358 . S
C496 H499 0.930 . S
C497 C494 1.348 . S
C497 C495 1.356 . S
H498 C492 0.930 . S
H499 C496 0.930 . S
O500 Li440 1.956 . S
O500 Li441 1.970 . S
O500 Li442 1.961 . S
O500 C444 1.325 . S
O501 Li440 1.970 . S
O501 Li441 1.956 . S
O501 Li443 1.961 1_455 S
O501 C450 1.325 . S
O502 Li440 1.961 . S
O502 Li442 1.956 . S
O502 Li443 1.970 1_455 S
O502 C472 1.325 1_455 S
O503 Li441 1.961 1_655 S
O503 Li442 1.970 1_655 S
O503 Li443 1.956 . S
O503 C478 1.325 . S
H504 C446 0.929 . S
H505 C447 0.930 . S
H506 C448 0.930 . S
H507 C449 0.930 . S
H508 C451 0.925 1_655 S
H509 C453 0.929 . S
H510 C454 0.930 1_655 S
H511 C455 0.930 . S
H512 C458 0.930 . S
H513 C461 0.929 . S
H514 C466 0.929 . S
H515 C467 0.930 . S
H516 C474 0.929 . S
H517 C475 0.930 . S
H518 C476 0.930 . S
H519 C477 0.930 1_455 S
H520 C479 0.929 . S
H521 C480 0.930 . S
H522 C481 0.930 . S
H523 C482 0.930 . S
H524 C486 0.929 . S
H525 C488 0.930 . S
H526 C494 0.929 . S
H527 C495 0.930 . S
Li528 N545 1.990 . S
Li528 O588 1.956 . S
Li528 O589 1.970 . S
Li528 O590 1.961 . S
Li529 N553 1.990 . S
Li529 O588 1.970 . S
Li529 O589 1.956 . S
Li529 O591 1.961 . S
Li530 N575 1.990 . S
Li530 O588 1.961 . S
Li530 O590 1.956 . S
Li530 O591 1.970 . S
Li531 N581 1.990 . S
Li531 O589 1.961 . S
Li531 O590 1.970 . S
Li531 O591 1.956 . S
C532 C534 1.348 . S
C532 C535 1.356 . S
C532 O588 1.325 . S
N533 C536 1.314 . S
N533 C537 1.279 . S
C534 C532 1.348 . S
C534 C536 1.353 . S
C534 H592 0.929 . S
C535 C532 1.356 . S
C535 C537 1.358 . S
C535 H593 0.930 . S
C536 N533 1.314 . S
C536 C534 1.353 . S
C536 H594 0.930 . S
C537 N533 1.279 . S
C537 C535 1.358 . S
C537 H595 0.930 . S
C538 C541 1.348 . S
C538 C542 1.356 . S
C538 O589 1.325 . S
C539 N540 1.279 . S
C539 C542 1.358 . S
C539 H596 0.930 . S
N540 C539 1.279 . S
N540 C543 1.314 . S
C541 C538 1.348 . S
C541 C543 1.353 . S
C541 H597 0.929 . S
C542 C538 1.356 . S
C542 C539 1.358 . S
C542 H598 0.930 . S
C543 N540 1.314 . S
C543 C541 1.353 . S
C543 H599 0.930 . S
C544 N545 1.314 . S
C544 C549 1.353 . S
C544 H550 0.930 . S
N545 Li528 1.990 . S
N545 C544 1.314 . S
N545 C547 1.279 . S
C546 C547 1.358 . S
C546 C548 1.356 . S
C546 H600 0.930 . S
C547 N545 1.279 . S
C547 C546 1.358 . S
C547 H551 0.930 . S
C548 C546 1.356 . S
C548 C549 1.348 . S
C549 C544 1.353 . S
C549 C548 1.348 . S
C549 H601 0.929 . S
H550 C544 0.930 . S
H551 C547 0.930 . S
C552 N553 1.314 . S
C552 C554 1.353 . S
C552 H558 0.930 . S
N553 Li529 1.990 . S
N553 C552 1.314 . S
N553 C556 1.279 . S
C554 C552 1.353 . S
C554 C557 1.348 . S
C554 H602 0.929 . S
C555 C556 1.358 . S
C555 C557 1.356 . S
C555 H603 0.930 . S
C556 N553 1.279 . S
C556 C555 1.358 . S
C556 H559 0.930 . S
C557 C554 1.348 . S
C557 C555 1.356 . S
H558 C552 0.930 . S
H559 C556 0.930 . S
C560 C562 1.348 . S
C560 C563 1.356 . S
C560 O590 1.325 . S
N561 C564 1.314 . S
N561 C565 1.279 . S
C562 C560 1.348 . S
C562 C564 1.353 . S
C562 H604 0.929 . S
C563 C560 1.356 . S
C563 C565 1.358 . S
C563 H605 0.930 . S
C564 N561 1.314 . S
C564 C562 1.353 . S
C564 H606 0.930 . S
C565 N561 1.279 . S
C565 C563 1.358 . S
C565 H607 0.930 . S
C566 C567 1.348 . S
C566 C568 1.356 . S
C566 O591 1.325 . S
C567 C566 1.348 . S
C567 C569 1.353 . S
C567 H608 0.929 . S
C568 C566 1.356 . S
C568 C570 1.358 . S
C568 H609 0.930 . S
C569 C567 1.353 . S
C569 N571 1.314 . S
C569 H610 0.930 . S
C570 C568 1.358 . S
C570 N571 1.279 . S
C570 H611 0.930 . S
N571 C569 1.314 . S
N571 C570 1.279 . S
C572 C574 1.353 . S
C572 N575 1.314 . S
C572 H578 0.930 . S
C573 N575 1.279 . S
C573 C576 1.358 . S
C573 H579 0.930 . S
C574 C572 1.353 . S
C574 C577 1.348 . S
C574 H612 0.929 . S
N575 Li530 1.990 . S
N575 C572 1.314 . S
N575 C573 1.279 . S
C576 C573 1.358 . S
C576 C577 1.356 . S
C576 H613 0.930 . S
C577 C574 1.348 . S
C577 C576 1.356 . S
H578 C572 0.930 . S
H579 C573 0.930 . S
C580 N581 1.314 . S
C580 C582 1.353 . S
C580 H586 0.930 . S
N581 Li531 1.990 . S
N581 C580 1.314 . S
N581 C584 1.279 . S
C582 C580 1.353 . S
C582 C585 1.348 . S
C582 H614 0.929 . S
C583 C584 1.358 . S
C583 C585 1.356 . S
C583 H615 0.930 . S
C584 N581 1.279 . S
C584 C583 1.358 . S
C584 H587 0.930 . S
C585 C582 1.348 . S
C585 C583 1.356 . S
H586 C580 0.930 . S
H587 C584 0.930 . S
O588 Li528 1.956 . S
O588 Li529 1.970 . S
O588 Li530 1.961 . S
O588 C532 1.325 . S
O589 Li528 1.970 . S
O589 Li529 1.956 . S
O589 Li531 1.961 . S
O589 C538 1.325 . S
O590 Li528 1.961 . S
O590 Li530 1.956 . S
O590 Li531 1.970 . S
O590 C560 1.325 . S
O591 Li529 1.961 . S
O591 Li530 1.970 . S
O591 Li531 1.956 . S
O591 C566 1.325 . S
H592 C534 0.929 . S
H593 C535 0.930 . S
H594 C536 0.930 . S
H595 C537 0.930 . S
H596 C539 0.930 . S
H597 C541 0.929 . S
H598 C542 0.930 . S
H599 C543 0.930 . S
H600 C546 0.930 . S
H601 C549 0.929 . S
H602 C554 0.929 . S
H603 C555 0.930 . S
H604 C562 0.929 . S
H605 C563 0.930 . S
H606 C564 0.930 . S
H607 C565 0.930 . S
H608 C567 0.929 . S
H609 C568 0.930 . S
H610 C569 0.930 . S
H611 C570 0.930 . S
H612 C574 0.929 . S
H613 C576 0.930 . S
H614 C582 0.929 . S
H615 C583 0.930 . S
Li616 N633 1.990 . S
Li616 O676 1.956 . S
Li616 O677 1.970 1_565 S
Li616 O678 1.961 . S
Li617 N641 1.990 . S
Li617 O676 1.970 . S
Li617 O677 1.956 1_565 S
Li617 O679 1.961 . S
Li618 N663 1.990 . S
Li618 O676 1.961 . S
Li618 O678 1.956 . S
Li618 O679 1.970 . S
Li619 N669 1.990 . S
Li619 O677 1.961 . S
Li619 O678 1.970 1_545 S
Li619 O679 1.956 1_545 S
C620 C622 1.348 . S
C620 C623 1.356 . S
C620 O676 1.325 . S
N621 C624 1.314 . S
N621 C625 1.279 . S
C622 C620 1.348 . S
C622 C624 1.353 . S
C622 H680 0.929 . S
C623 C620 1.356 . S
C623 C625 1.358 . S
C623 H681 0.930 . S
C624 N621 1.314 . S
C624 C622 1.353 . S
C624 H682 0.930 . S
C625 N621 1.279 . S
C625 C623 1.358 . S
C625 H683 0.930 . S
C626 C629 1.348 . S
C626 C630 1.356 . S
C626 O677 1.325 . S
C627 N628 1.279 . S
C627 C630 1.358 . S
C627 H684 0.930 . S
N628 C627 1.279 . S
N628 C631 1.314 . S
C629 C626 1.348 . S
C629 C631 1.353 . S
C629 H685 0.929 . S
C630 C626 1.356 . S
C630 C627 1.358 . S
C630 H686 0.930 . S
C631 N628 1.314 . S
C631 C629 1.353 . S
C631 H687 0.930 . S
C632 N633 1.314 1_545 S
C632 C637 1.353 . S
C632 H638 0.930 . S
N633 Li616 1.990 . S
N633 C632 1.314 1_565 S
N633 C635 1.279 . S
C634 C635 1.358 . S
C634 C636 1.356 . S
C634 H688 0.930 . S
C635 N633 1.279 . S
C635 C634 1.358 . S
C635 H639 0.930 . S
C636 C634 1.356 . S
C636 C637 1.348 1_565 S
C637 C632 1.353 . S
C637 C636 1.348 1_545 S
C637 H689 0.929 . S
H638 C632 0.930 . S
H639 C635 0.930 . S
C640 N641 1.314 . S
C640 C642 1.353 . S
C640 H646 0.930 . S
N641 Li617 1.990 . S
N641 C640 1.314 . S
N641 C644 1.279 . S
C642 C640 1.353 . S
C642 C645 1.348 . S
C642 H690 0.929 . S
C643 C644 1.358 . S
C643 C645 1.356 . S
C643 H691 0.930 . S
C644 N641 1.279 . S
C644 C643 1.358 . S
C644 H647 0.930 . S
C645 C642 1.348 . S
C645 C643 1.356 . S
H646 C640 0.930 . S
H647 C644 0.930 . S
C648 C650 1.348 . S
C648 C651 1.356 1_545 S
C648 O678 1.325 1_545 S
N649 C652 1.314 . S
N649 C653 1.279 . S
C650 C648 1.348 . S
C650 C652 1.353 . S
C650 H692 0.929 . S
C651 C648 1.356 1_565 S
C651 C653 1.358 1_565 S
C651 H693 0.930 . S
C652 N649 1.314 . S
C652 C650 1.353 . S
C652 H694 0.930 . S
C653 N649 1.279 . S
C653 C651 1.358 1_545 S
C653 H695 0.930 1_545 S
C654 C655 1.348 . S
C654 C656 1.356 . S
C654 O679 1.325 . S
C655 C654 1.348 . S
C655 C657 1.353 . S
C655 H696 0.929 . S
C656 C654 1.356 . S
C656 C658 1.358 . S
C656 H697 0.930 . S
C657 C655 1.353 . S
C657 N659 1.314 . S
C657 H698 0.930 . S
C658 C656 1.358 . S
C658 N659 1.279 . S
C658 H699 0.930 . S
N659 C657 1.314 . S
N659 C658 1.279 . S
C660 C662 1.353 . S
C660 N663 1.314 . S
C660 H666 0.930 . S
C661 N663 1.279 . S
C661 C664 1.358 . S
C661 H667 0.930 . S
C662 C660 1.353 . S
C662 C665 1.348 . S
C662 H700 0.929 . S
N663 Li618 1.990 . S
N663 C660 1.314 . S
N663 C661 1.279 . S
C664 C661 1.358 . S
C664 C665 1.356 . S
C664 H701 0.930 . S
C665 C662 1.348 . S
C665 C664 1.356 . S
H666 C660 0.930 . S
H667 C661 0.930 . S
C668 N669 1.314 . S
C668 C670 1.353 . S
C668 H674 0.930 . S
N669 Li619 1.990 . S
N669 C668 1.314 . S
N669 C672 1.279 . S
C670 C668 1.353 . S
C670 C673 1.348 . S
C670 H702 0.929 . S
C671 C672 1.358 . S
C671 C673 1.356 . S
C671 H703 0.930 . S
C672 N669 1.279 . S
C672 C671 1.358 . S
C672 H675 0.930 . S
C673 C670 1.348 . S
C673 C671 1.356 . S
H674 C668 0.930 . S
H675 C672 0.930 . S
O676 Li616 1.956 . S
O676 Li617 1.970 . S
O676 Li618 1.961 . S
O676 C620 1.325 . S
O677 Li616 1.970 1_545 S
O677 Li617 1.956 1_545 S
O677 Li619 1.961 . S
O677 C626 1.325 . S
O678 Li616 1.961 . S
O678 Li618 1.956 . S
O678 Li619 1.970 1_565 S
O678 C648 1.325 1_565 S
O679 Li617 1.961 . S
O679 Li618 1.970 . S
O679 Li619 1.956 1_565 S
O679 C654 1.325 . S
H680 C622 0.929 . S
H681 C623 0.930 . S
H682 C624 0.930 . S
H683 C625 0.930 . S
H684 C627 0.930 . S
H685 C629 0.929 . S
H686 C630 0.930 . S
H687 C631 0.930 . S
H688 C634 0.930 . S
H689 C637 0.929 . S
H690 C642 0.929 . S
H691 C643 0.930 . S
H692 C650 0.929 . S
H693 C651 0.930 . S
H694 C652 0.930 . S
H695 C653 0.930 1_565 S
H696 C655 0.929 . S
H697 C656 0.930 . S
H698 C657 0.930 . S
H699 C658 0.930 . S
H700 C662 0.929 . S
H701 C664 0.930 . S
H702 C670 0.929 . S
H703 C671 0.930 . S
Li704 N721 1.990 . S
Li704 O764 1.956 . S
Li704 O765 1.970 1_455 S
Li704 O766 1.961 . S
Li705 N729 1.990 . S
Li705 O764 1.970 . S
Li705 O765 1.956 1_455 S
Li705 O767 1.961 . S
Li706 N751 1.990 . S
Li706 O764 1.961 . S
Li706 O766 1.956 . S
Li706 O767 1.970 . S
Li707 N757 1.990 . S
Li707 O765 1.961 . S
Li707 O766 1.970 1_655 S
Li707 O767 1.956 1_655 S
C708 C710 1.348 . S
C708 C711 1.356 . S
C708 O764 1.325 . S
N709 C712 1.314 . S
N709 C713 1.279 . S
C710 C708 1.348 . S
C710 C712 1.353 . S
C710 H768 0.929 . S
C711 C708 1.356 . S
C711 C713 1.358 . S
C711 H769 0.930 . S
C712 N709 1.314 . S
C712 C710 1.353 . S
C712 H770 0.930 . S
C713 N709 1.279 . S
C713 C711 1.358 . S
C713 H771 0.930 . S
C714 C717 1.348 . S
C714 C718 1.356 . S
C714 O765 1.325 . S
C715 N716 1.279 . S
C715 C718 1.358 . S
C715 H772 0.930 . S
N716 C715 1.279 . S
N716 C719 1.314 . S
C717 C714 1.348 . S
C717 C719 1.353 . S
C717 H773 0.929 . S
C718 C714 1.356 . S
C718 C715 1.358 . S
C718 H774 0.930 . S
C719 N716 1.314 . S
C719 C717 1.353 . S
C719 H775 0.930 . S
C720 N721 1.314 1_655 S
C720 C725 1.353 . S
C720 H726 0.930 . S
N721 Li704 1.990 . S
N721 C720 1.314 1_455 S
N721 C723 1.279 . S
C722 C723 1.358 . S
C722 C724 1.356 . S
C722 H776 0.930 . S
C723 N721 1.279 . S
C723 C722 1.358 . S
C723 H727 0.930 . S
C724 C722 1.356 . S
C724 C725 1.348 1_455 S
C725 C720 1.353 . S
C725 C724 1.348 1_655 S
C725 H777 0.929 . S
H726 C720 0.930 . S
H727 C723 0.930 . S
C728 N729 1.314 . S
C728 C730 1.353 . S
C728 H734 0.930 . S
N729 Li705 1.990 . S
N729 C728 1.314 . S
N729 C732 1.279 . S
C730 C728 1.353 . S
C730 C733 1.348 . S
C730 H778 0.929 . S
C731 C732 1.358 . S
C731 C733 1.356 . S
C731 H779 0.930 . S
C732 N729 1.279 . S
C732 C731 1.358 . S
C732 H735 0.930 . S
C733 C730 1.348 . S
C733 C731 1.356 . S
H734 C728 0.930 . S
H735 C732 0.930 . S
C736 C738 1.348 . S
C736 C739 1.356 1_655 S
C736 O766 1.325 1_655 S
N737 C740 1.314 . S
N737 C741 1.279 . S
C738 C736 1.348 . S
C738 C740 1.353 . S
C738 H780 0.929 . S
C739 C736 1.356 1_455 S
C739 C741 1.358 1_455 S
C739 H781 0.930 . S
C740 N737 1.314 . S
C740 C738 1.353 . S
C740 H782 0.930 . S
C741 N737 1.279 . S
C741 C739 1.358 1_655 S
C741 H783 0.930 1_655 S
C742 C743 1.348 . S
C742 C744 1.356 . S
C742 O767 1.325 . S
C743 C742 1.348 . S
C743 C745 1.353 . S
C743 H784 0.929 . S
C744 C742 1.356 . S
C744 C746 1.358 . S
C744 H785 0.930 . S
C745 C743 1.353 . S
C745 N747 1.314 . S
C745 H786 0.930 . S
C746 C744 1.358 . S
C746 N747 1.279 . S
C746 H787 0.930 . S
N747 C745 1.314 . S
N747 C746 1.279 . S
C748 C750 1.353 . S
C748 N751 1.314 . S
C748 H754 0.930 . S
C749 N751 1.279 . S
C749 C752 1.358 . S
C749 H755 0.930 . S
C750 C748 1.353 . S
C750 C753 1.348 . S
C750 H788 0.929 . S
N751 Li706 1.990 . S
N751 C748 1.314 . S
N751 C749 1.279 . S
C752 C749 1.358 . S
C752 C753 1.356 . S
C752 H789 0.930 . S
C753 C750 1.348 . S
C753 C752 1.356 . S
H754 C748 0.930 . S
H755 C749 0.930 . S
C756 N757 1.314 . S
C756 C758 1.353 . S
C756 H762 0.930 . S
N757 Li707 1.990 . S
N757 C756 1.314 . S
N757 C760 1.279 . S
C758 C756 1.353 . S
C758 C761 1.348 . S
C758 H790 0.929 . S
C759 C760 1.358 . S
C759 C761 1.356 . S
C759 H791 0.930 . S
C760 N757 1.279 . S
C760 C759 1.358 . S
C760 H763 0.930 . S
C761 C758 1.348 . S
C761 C759 1.356 . S
H762 C756 0.930 . S
H763 C760 0.930 . S
O764 Li704 1.956 . S
O764 Li705 1.970 . S
O764 Li706 1.961 . S
O764 C708 1.325 . S
O765 Li704 1.970 1_655 S
O765 Li705 1.956 1_655 S
O765 Li707 1.961 . S
O765 C714 1.325 . S
O766 Li704 1.961 . S
O766 Li706 1.956 . S
O766 Li707 1.970 1_455 S
O766 C736 1.325 1_455 S
O767 Li705 1.961 . S
O767 Li706 1.970 . S
O767 Li707 1.956 1_455 S
O767 C742 1.325 . S
H768 C710 0.929 . S
H769 C711 0.930 . S
H770 C712 0.930 . S
H771 C713 0.930 . S
H772 C715 0.930 . S
H773 C717 0.929 . S
H774 C718 0.930 . S
H775 C719 0.930 . S
H776 C722 0.930 . S
H777 C725 0.929 . S
H778 C730 0.929 . S
H779 C731 0.930 . S
H780 C738 0.929 . S
H781 C739 0.930 . S
H782 C740 0.930 . S
H783 C741 0.930 1_455 S
H784 C743 0.929 . S
H785 C744 0.930 . S
H786 C745 0.930 . S
H787 C746 0.930 . S
H788 C750 0.929 . S
H789 C752 0.930 . S
H790 C758 0.929 . S
H791 C759 0.930 . S
Li792 N809 1.990 . S
Li792 O852 1.956 . S
Li792 O853 1.970 . S
Li792 O854 1.961 . S
Li793 N817 1.990 . S
Li793 O852 1.970 . S
Li793 O853 1.956 . S
Li793 O855 1.961 . S
Li794 N839 1.990 . S
Li794 O852 1.961 . S
Li794 O854 1.956 . S
Li794 O855 1.970 . S
Li795 N845 1.990 . S
Li795 O853 1.961 . S
Li795 O854 1.970 . S
Li795 O855 1.956 . S
C796 C798 1.348 . S
C796 C799 1.356 . S
C796 O852 1.325 . S
N797 C800 1.314 . S
N797 C801 1.279 . S
C798 C796 1.348 . S
C798 C800 1.353 . S
C798 H856 0.929 . S
C799 C796 1.356 . S
C799 C801 1.358 . S
C799 H857 0.930 . S
C800 N797 1.314 . S
C800 C798 1.353 . S
C800 H858 0.930 . S
C801 N797 1.279 . S
C801 C799 1.358 . S
C801 H859 0.930 . S
C802 C805 1.348 . S
C802 C806 1.356 . S
C802 O853 1.325 . S
C803 N804 1.279 . S
C803 C806 1.358 . S
C803 H860 0.930 . S
N804 C803 1.279 . S
N804 C807 1.314 . S
C805 C802 1.348 . S
C805 C807 1.353 . S
C805 H861 0.929 . S
C806 C802 1.356 . S
C806 C803 1.358 . S
C806 H862 0.930 . S
C807 N804 1.314 . S
C807 C805 1.353 . S
C807 H863 0.930 . S
C808 N809 1.314 . S
C808 C813 1.353 . S
C808 H814 0.930 . S
N809 Li792 1.990 . S
N809 C808 1.314 . S
N809 C811 1.279 . S
C810 C811 1.358 . S
C810 C812 1.356 . S
C810 H864 0.930 . S
C811 N809 1.279 . S
C811 C810 1.358 . S
C811 H815 0.930 . S
C812 C810 1.356 . S
C812 C813 1.348 . S
C813 C808 1.353 . S
C813 C812 1.348 . S
C813 H865 0.929 . S
H814 C808 0.930 . S
H815 C811 0.930 . S
C816 N817 1.314 . S
C816 C818 1.353 . S
C816 H822 0.930 . S
N817 Li793 1.990 . S
N817 C816 1.314 . S
N817 C820 1.279 . S
C818 C816 1.353 . S
C818 C821 1.348 . S
C818 H866 0.929 . S
C819 C820 1.358 . S
C819 C821 1.356 . S
C819 H867 0.930 . S
C820 N817 1.279 . S
C820 C819 1.358 . S
C820 H823 0.930 . S
C821 C818 1.348 . S
C821 C819 1.356 . S
H822 C816 0.930 . S
H823 C820 0.930 . S
C824 C826 1.348 . S
C824 C827 1.356 . S
C824 O854 1.325 . S
N825 C828 1.314 . S
N825 C829 1.279 . S
C826 C824 1.348 . S
C826 C828 1.353 . S
C826 H868 0.929 . S
C827 C824 1.356 . S
C827 C829 1.358 . S
C827 H869 0.930 . S
C828 N825 1.314 . S
C828 C826 1.353 . S
C828 H870 0.930 . S
C829 N825 1.279 . S
C829 C827 1.358 . S
C829 H871 0.930 . S
C830 C831 1.348 . S
C830 C832 1.356 . S
C830 O855 1.325 . S
C831 C830 1.348 . S
C831 C833 1.353 . S
C831 H872 0.929 . S
C832 C830 1.356 . S
C832 C834 1.358 . S
C832 H873 0.930 . S
C833 C831 1.353 . S
C833 N835 1.314 . S
C833 H874 0.930 . S
C834 C832 1.358 . S
C834 N835 1.279 . S
C834 H875 0.930 . S
N835 C833 1.314 . S
N835 C834 1.279 . S
C836 C838 1.353 . S
C836 N839 1.314 . S
C836 H842 0.930 . S
C837 N839 1.279 . S
C837 C840 1.358 . S
C837 H843 0.930 . S
C838 C836 1.353 . S
C838 C841 1.348 . S
C838 H876 0.929 . S
N839 Li794 1.990 . S
N839 C836 1.314 . S
N839 C837 1.279 . S
C840 C837 1.358 . S
C840 C841 1.356 . S
C840 H877 0.930 . S
C841 C838 1.348 . S
C841 C840 1.356 . S
H842 C836 0.930 . S
H843 C837 0.930 . S
C844 N845 1.314 . S
C844 C846 1.353 . S
C844 H850 0.930 . S
N845 Li795 1.990 . S
N845 C844 1.314 . S
N845 C848 1.279 . S
C846 C844 1.353 . S
C846 C849 1.348 . S
C846 H878 0.929 . S
C847 C848 1.358 . S
C847 C849 1.356 . S
C847 H879 0.930 . S
C848 N845 1.279 . S
C848 C847 1.358 . S
C848 H851 0.930 . S
C849 C846 1.348 . S
C849 C847 1.356 . S
H850 C844 0.930 . S
H851 C848 0.930 . S
O852 Li792 1.956 . S
O852 Li793 1.970 . S
O852 Li794 1.961 . S
O852 C796 1.325 . S
O853 Li792 1.970 . S
O853 Li793 1.956 . S
O853 Li795 1.961 . S
O853 C802 1.325 . S
O854 Li792 1.961 . S
O854 Li794 1.956 . S
O854 Li795 1.970 . S
O854 C824 1.325 . S
O855 Li793 1.961 . S
O855 Li794 1.970 . S
O855 Li795 1.956 . S
O855 C830 1.325 . S
H856 C798 0.929 . S
H857 C799 0.930 . S
H858 C800 0.930 . S
H859 C801 0.930 . S
H860 C803 0.930 . S
H861 C805 0.929 . S
H862 C806 0.930 . S
H863 C807 0.930 . S
H864 C810 0.930 . S
H865 C813 0.929 . S
H866 C818 0.929 . S
H867 C819 0.930 . S
H868 C826 0.929 . S
H869 C827 0.930 . S
H870 C828 0.930 . S
H871 C829 0.930 . S
H872 C831 0.929 . S
H873 C832 0.930 . S
H874 C833 0.930 . S
H875 C834 0.930 . S
H876 C838 0.929 . S
H877 C840 0.930 . S
H878 C846 0.929 . S
H879 C847 0.930 . S
Li880 N897 1.990 . S
Li880 O940 1.956 1_545 S
Li880 O941 1.970 . S
Li880 O942 1.961 . S
Li881 N905 1.990 . S
Li881 O940 1.970 1_545 S
Li881 O941 1.956 . S
Li881 O943 1.961 . S
Li882 N927 1.990 . S
Li882 O940 1.961 . S
Li882 O942 1.956 1_565 S
Li882 O943 1.970 1_565 S
Li883 N933 1.990 . S
Li883 O941 1.961 . S
Li883 O942 1.970 . S
Li883 O943 1.956 . S
C884 C886 1.348 . S
C884 C887 1.356 . S
C884 O940 1.325 . S
N885 C888 1.314 . S
N885 C889 1.279 . S
C886 C884 1.348 . S
C886 C888 1.353 . S
C886 H944 0.929 . S
C887 C884 1.356 . S
C887 C889 1.358 . S
C887 H945 0.930 . S
C888 N885 1.314 . S
C888 C886 1.353 . S
C888 H946 0.930 . S
C889 N885 1.279 . S
C889 C887 1.358 . S
C889 H947 0.930 . S
C890 C893 1.348 . S
C890 C894 1.356 . S
C890 O941 1.325 . S
C891 N892 1.279 . S
C891 C894 1.358 . S
C891 H948 0.930 . S
N892 C891 1.279 . S
N892 C895 1.314 . S
C893 C890 1.348 . S
C893 C895 1.353 . S
C893 H949 0.929 . S
C894 C890 1.356 . S
C894 C891 1.358 . S
C894 H950 0.930 . S
C895 N892 1.314 . S
C895 C893 1.353 . S
C895 H951 0.930 . S
C896 N897 1.314 . S
C896 C901 1.353 . S
C896 H902 0.930 . S
N897 Li880 1.990 . S
N897 C896 1.314 . S
N897 C899 1.279 . S
C898 C899 1.358 . S
C898 C900 1.356 . S
C898 H952 0.930 . S
C899 N897 1.279 . S
C899 C898 1.358 . S
C899 H903 0.930 . S
C900 C898 1.356 . S
C900 C901 1.348 . S
C901 C896 1.353 . S
C901 C900 1.348 . S
C901 H953 0.929 . S
H902 C896 0.930 . S
H903 C899 0.930 . S
C904 N905 1.314 1_565 S
C904 C906 1.353 . S
C904 H910 0.930 . S
N905 Li881 1.990 . S
N905 C904 1.314 1_545 S
N905 C908 1.279 . S
C906 C904 1.353 . S
C906 C909 1.348 1_565 S
C906 H954 0.929 . S
C907 C908 1.358 . S
C907 C909 1.356 . S
C907 H955 0.930 . S
C908 N905 1.279 . S
C908 C907 1.358 . S
C908 H911 0.930 . S
C909 C906 1.348 1_545 S
C909 C907 1.356 . S
H910 C904 0.930 . S
H911 C908 0.930 . S
C912 C914 1.348 . S
C912 C915 1.356 . S
C912 O942 1.325 . S
N913 C916 1.314 . S
N913 C917 1.279 . S
C914 C912 1.348 . S
C914 C916 1.353 . S
C914 H956 0.929 . S
C915 C912 1.356 . S
C915 C917 1.358 . S
C915 H957 0.930 . S
C916 N913 1.314 . S
C916 C914 1.353 . S
C916 H958 0.930 . S
C917 N913 1.279 . S
C917 C915 1.358 . S
C917 H959 0.930 . S
C918 C919 1.348 . S
C918 C920 1.356 1_565 S
C918 O943 1.325 1_565 S
C919 C918 1.348 . S
C919 C921 1.353 . S
C919 H960 0.929 . S
C920 C918 1.356 1_545 S
C920 C922 1.358 1_545 S
C920 H961 0.930 . S
C921 C919 1.353 . S
C921 N923 1.314 . S
C921 H962 0.930 . S
C922 C920 1.358 1_565 S
C922 N923 1.279 . S
C922 H963 0.907 1_565 S
N923 C921 1.314 . S
N923 C922 1.279 . S
C924 C926 1.353 . S
C924 N927 1.314 . S
C924 H930 0.930 . S
C925 N927 1.279 . S
C925 C928 1.358 . S
C925 H931 0.930 . S
C926 C924 1.353 . S
C926 C929 1.348 . S
C926 H964 0.929 . S
N927 Li882 1.990 . S
N927 C924 1.314 . S
N927 C925 1.279 . S
C928 C925 1.358 . S
C928 C929 1.356 . S
C928 H965 0.930 . S
C929 C926 1.348 . S
C929 C928 1.356 . S
H930 C924 0.930 . S
H931 C925 0.930 . S
C932 N933 1.314 . S
C932 C934 1.353 . S
C932 H938 0.930 . S
N933 Li883 1.990 . S
N933 C932 1.314 . S
N933 C936 1.279 . S
C934 C932 1.353 . S
C934 C937 1.348 . S
C934 H966 0.929 . S
C935 C936 1.358 . S
C935 C937 1.356 . S
C935 H967 0.930 . S
C936 N933 1.279 . S
C936 C935 1.358 . S
C936 H939 0.930 . S
C937 C934 1.348 . S
C937 C935 1.356 . S
H938 C932 0.930 . S
H939 C936 0.930 . S
O940 Li880 1.956 1_565 S
O940 Li881 1.970 1_565 S
O940 Li882 1.961 . S
O940 C884 1.325 . S
O941 Li880 1.970 . S
O941 Li881 1.956 . S
O941 Li883 1.961 . S
O941 C890 1.325 . S
O942 Li880 1.961 . S
O942 Li882 1.956 1_545 S
O942 Li883 1.970 . S
O942 C912 1.325 . S
O943 Li881 1.961 . S
O943 Li882 1.970 1_545 S
O943 Li883 1.956 . S
O943 C918 1.325 1_545 S
H944 C886 0.929 . S
H945 C887 0.930 . S
H946 C888 0.930 . S
H947 C889 0.930 . S
H948 C891 0.930 . S
H949 C893 0.929 . S
H950 C894 0.930 . S
H951 C895 0.930 . S
H952 C898 0.930 . S
H953 C901 0.929 . S
H954 C906 0.929 . S
H955 C907 0.930 . S
H956 C914 0.929 . S
H957 C915 0.930 . S
H958 C916 0.930 . S
H959 C917 0.930 . S
H960 C919 0.929 . S
H961 C920 0.930 . S
H962 C921 0.930 . S
H963 C922 0.907 1_545 S
H964 C926 0.929 . S
H965 C928 0.930 . S
H966 C934 0.929 . S
H967 C935 0.930 . S
Li968 N985 1.990 . S
Li968 O1028 1.956 . S
Li968 O1029 1.970 1_655 S
Li968 O1030 1.961 . S
Li969 N993 1.990 . S
Li969 O1028 1.970 . S
Li969 O1029 1.956 1_655 S
Li969 O1031 1.961 . S
Li970 N1015 1.990 . S
Li970 O1028 1.961 . S
Li970 O1030 1.956 . S
Li970 O1031 1.970 . S
Li971 N1021 1.990 . S
Li971 O1029 1.961 . S
Li971 O1030 1.970 1_455 S
Li971 O1031 1.956 1_455 S
C972 C974 1.348 . S
C972 C975 1.356 . S
C972 O1028 1.325 . S
N973 C976 1.314 . S
N973 C977 1.279 . S
C974 C972 1.348 . S
C974 C976 1.353 . S
C974 H1032 0.929 . S
C975 C972 1.356 . S
C975 C977 1.358 . S
C975 H1033 0.930 . S
C976 N973 1.314 . S
C976 C974 1.353 . S
C976 H1034 0.930 . S
C977 N973 1.279 . S
C977 C975 1.358 . S
C977 H1035 0.930 . S
C978 C981 1.348 . S
C978 C982 1.356 . S
C978 O1029 1.325 . S
C979 N980 1.279 . S
C979 C982 1.358 . S
C979 H1036 0.930 . S
N980 C979 1.279 . S
N980 C983 1.314 . S
C981 C978 1.348 . S
C981 C983 1.353 . S
C981 H1037 0.929 . S
C982 C978 1.356 . S
C982 C979 1.358 . S
C982 H1038 0.930 . S
C983 N980 1.314 . S
C983 C981 1.353 . S
C983 H1039 0.930 . S
C984 N985 1.314 1_455 S
C984 C989 1.353 . S
C984 H990 0.930 . S
N985 Li968 1.990 . S
N985 C984 1.314 1_655 S
N985 C987 1.279 . S
C986 C987 1.358 . S
C986 C988 1.356 . S
C986 H1040 0.930 . S
C987 N985 1.279 . S
C987 C986 1.358 . S
C987 H991 0.930 . S
C988 C986 1.356 . S
C988 C989 1.348 1_655 S
C989 C984 1.353 . S
C989 C988 1.348 1_455 S
C989 H1041 0.929 . S
H990 C984 0.930 . S
H991 C987 0.930 . S
C992 N993 1.314 . S
C992 C994 1.353 . S
C992 H998 0.930 . S
N993 Li969 1.990 . S
N993 C992 1.314 . S
N993 C996 1.279 . S
C994 C992 1.353 . S
C994 C997 1.348 . S
C994 H1042 0.929 . S
C995 C996 1.358 . S
C995 C997 1.356 . S
C995 H1043 0.930 . S
C996 N993 1.279 . S
C996 C995 1.358 . S
C996 H999 0.930 . S
C997 C994 1.348 . S
C997 C995 1.356 . S
H998 C992 0.930 . S
H999 C996 0.930 . S
C1000 C1002 1.348 . S
C1000 C1003 1.356 1_455 S
C1000 O1030 1.325 1_455 S
N1001 C1004 1.314 . S
N1001 C1005 1.279 . S
C1002 C1000 1.348 . S
C1002 C1004 1.353 . S
C1002 H1044 0.929 . S
C1003 C1000 1.356 1_655 S
C1003 C1005 1.358 1_655 S
C1003 H1045 0.930 . S
C1004 N1001 1.314 . S
C1004 C1002 1.353 . S
C1004 H1046 0.930 . S
C1005 N1001 1.279 . S
C1005 C1003 1.358 1_455 S
C1005 H1047 0.930 1_455 S
C1006 C1007 1.348 . S
C1006 C1008 1.356 . S
C1006 O1031 1.325 . S
C1007 C1006 1.348 . S
C1007 C1009 1.353 . S
C1007 H1048 0.929 . S
C1008 C1006 1.356 . S
C1008 C1010 1.358 . S
C1008 H1049 0.930 . S
C1009 C1007 1.353 . S
C1009 N1011 1.314 . S
C1009 H1050 0.930 . S
C1010 C1008 1.358 . S
C1010 N1011 1.279 . S
C1010 H1051 0.930 . S
N1011 C1009 1.314 . S
N1011 C1010 1.279 . S
C1012 C1014 1.353 . S
C1012 N1015 1.314 . S
C1012 H1018 0.930 . S
C1013 N1015 1.279 . S
C1013 C1016 1.358 . S
C1013 H1019 0.930 . S
C1014 C1012 1.353 . S
C1014 C1017 1.348 . S
C1014 H1052 0.929 . S
N1015 Li970 1.990 . S
N1015 C1012 1.314 . S
N1015 C1013 1.279 . S
C1016 C1013 1.358 . S
C1016 C1017 1.356 . S
C1016 H1053 0.930 . S
C1017 C1014 1.348 . S
C1017 C1016 1.356 . S
H1018 C1012 0.930 . S
H1019 C1013 0.930 . S
C1020 N1021 1.314 . S
C1020 C1022 1.353 . S
C1020 H1026 0.930 . S
N1021 Li971 1.990 . S
N1021 C1020 1.314 . S
N1021 C1024 1.279 . S
C1022 C1020 1.353 . S
C1022 C1025 1.348 . S
C1022 H1054 0.929 . S
C1023 C1024 1.358 . S
C1023 C1025 1.356 . S
C1023 H1055 0.930 . S
C1024 N1021 1.279 . S
C1024 C1023 1.358 . S
C1024 H1027 0.930 . S
C1025 C1022 1.348 . S
C1025 C1023 1.356 . S
H1026 C1020 0.930 . S
H1027 C1024 0.930 . S
O1028 Li968 1.956 . S
O1028 Li969 1.970 . S
O1028 Li970 1.961 . S
O1028 C972 1.325 . S
O1029 Li968 1.970 1_455 S
O1029 Li969 1.956 1_455 S
O1029 Li971 1.961 . S
O1029 C978 1.325 . S
O1030 Li968 1.961 . S
O1030 Li970 1.956 . S
O1030 Li971 1.970 1_655 S
O1030 C1000 1.325 1_655 S
O1031 Li969 1.961 . S
O1031 Li970 1.970 . S
O1031 Li971 1.956 1_655 S
O1031 C1006 1.325 . S
H1032 C974 0.929 . S
H1033 C975 0.930 . S
H1034 C976 0.930 . S
H1035 C977 0.930 . S
H1036 C979 0.930 . S
H1037 C981 0.929 . S
H1038 C982 0.930 . S
H1039 C983 0.930 . S
H1040 C986 0.930 . S
H1041 C989 0.929 . S
H1042 C994 0.929 . S
H1043 C995 0.930 . S
H1044 C1002 0.929 . S
H1045 C1003 0.930 . S
H1046 C1004 0.930 . S
H1047 C1005 0.930 1_655 S
H1048 C1007 0.929 . S
H1049 C1008 0.930 . S
H1050 C1009 0.930 . S
H1051 C1010 0.930 . S
H1052 C1014 0.929 . S
H1053 C1016 0.930 . S
H1054 C1022 0.929 . S
H1055 C1023 0.930 . S
Li1056 N1073 1.990 . S
Li1056 O1116 1.956 . S
Li1056 O1117 1.970 . S
Li1056 O1118 1.961 . S
Li1057 N1081 1.990 . S
Li1057 O1116 1.970 . S
Li1057 O1117 1.956 . S
Li1057 O1119 1.961 . S
Li1058 N1103 1.990 . S
Li1058 O1116 1.961 . S
Li1058 O1118 1.956 . S
Li1058 O1119 1.970 . S
Li1059 N1109 1.990 . S
Li1059 O1117 1.961 . S
Li1059 O1118 1.970 . S
Li1059 O1119 1.956 . S
C1060 C1062 1.348 . S
C1060 C1063 1.356 . S
C1060 O1116 1.325 . S
N1061 C1064 1.314 . S
N1061 C1065 1.279 . S
C1062 C1060 1.348 . S
C1062 C1064 1.353 . S
C1062 H1120 0.929 . S
C1063 C1060 1.356 . S
C1063 C1065 1.358 . S
C1063 H1121 0.930 . S
C1064 N1061 1.314 . S
C1064 C1062 1.353 . S
C1064 H1122 0.930 . S
C1065 N1061 1.279 . S
C1065 C1063 1.358 . S
C1065 H1123 0.930 . S
C1066 C1069 1.348 . S
C1066 C1070 1.356 . S
C1066 O1117 1.325 . S
C1067 N1068 1.279 . S
C1067 C1070 1.358 . S
C1067 H1124 0.930 . S
N1068 C1067 1.279 . S
N1068 C1071 1.314 . S
C1069 C1066 1.348 . S
C1069 C1071 1.353 . S
C1069 H1125 0.929 . S
C1070 C1066 1.356 . S
C1070 C1067 1.358 . S
C1070 H1126 0.930 . S
C1071 N1068 1.314 . S
C1071 C1069 1.353 . S
C1071 H1127 0.930 . S
C1072 N1073 1.314 . S
C1072 C1077 1.353 . S
C1072 H1078 0.930 . S
N1073 Li1056 1.990 . S
N1073 C1072 1.314 . S
N1073 C1075 1.279 . S
C1074 C1075 1.358 . S
C1074 C1076 1.356 . S
C1074 H1128 0.930 . S
C1075 N1073 1.279 . S
C1075 C1074 1.358 . S
C1075 H1079 0.930 . S
C1076 C1074 1.356 . S
C1076 C1077 1.348 . S
C1077 C1072 1.353 . S
C1077 C1076 1.348 . S
C1077 H1129 0.929 . S
H1078 C1072 0.930 . S
H1079 C1075 0.930 . S
C1080 N1081 1.314 . S
C1080 C1082 1.353 . S
C1080 H1086 0.930 . S
N1081 Li1057 1.990 . S
N1081 C1080 1.314 . S
N1081 C1084 1.279 . S
C1082 C1080 1.353 . S
C1082 C1085 1.348 . S
C1082 H1130 0.929 . S
C1083 C1084 1.358 . S
C1083 C1085 1.356 . S
C1083 H1131 0.930 . S
C1084 N1081 1.279 . S
C1084 C1083 1.358 . S
C1084 H1087 0.930 . S
C1085 C1082 1.348 . S
C1085 C1083 1.356 . S
H1086 C1080 0.930 . S
H1087 C1084 0.930 . S
C1088 C1090 1.348 . S
C1088 C1091 1.356 . S
C1088 O1118 1.325 . S
N1089 C1092 1.314 . S
N1089 C1093 1.279 . S
C1090 C1088 1.348 . S
C1090 C1092 1.353 . S
C1090 H1132 0.929 . S
C1091 C1088 1.356 . S
C1091 C1093 1.358 . S
C1091 H1133 0.930 . S
C1092 N1089 1.314 . S
C1092 C1090 1.353 . S
C1092 H1134 0.930 . S
C1093 N1089 1.279 . S
C1093 C1091 1.358 . S
C1093 H1135 0.930 . S
C1094 C1095 1.348 . S
C1094 C1096 1.356 . S
C1094 O1119 1.325 . S
C1095 C1094 1.348 . S
C1095 C1097 1.353 . S
C1095 H1136 0.929 . S
C1096 C1094 1.356 . S
C1096 C1098 1.358 . S
C1096 H1137 0.930 . S
C1097 C1095 1.353 . S
C1097 N1099 1.314 . S
C1097 H1138 0.930 . S
C1098 C1096 1.358 . S
C1098 N1099 1.279 . S
C1098 H1139 0.930 . S
N1099 C1097 1.314 . S
N1099 C1098 1.279 . S
C1100 C1102 1.353 . S
C1100 N1103 1.314 . S
C1100 H1106 0.930 . S
C1101 N1103 1.279 . S
C1101 C1104 1.358 . S
C1101 H1107 0.930 . S
C1102 C1100 1.353 . S
C1102 C1105 1.348 . S
C1102 H1140 0.929 . S
N1103 Li1058 1.990 . S
N1103 C1100 1.314 . S
N1103 C1101 1.279 . S
C1104 C1101 1.358 . S
C1104 C1105 1.356 . S
C1104 H1141 0.930 . S
C1105 C1102 1.348 . S
C1105 C1104 1.356 . S
H1106 C1100 0.930 . S
H1107 C1101 0.930 . S
C1108 N1109 1.314 . S
C1108 C1110 1.353 . S
C1108 H1114 0.930 . S
N1109 Li1059 1.990 . S
N1109 C1108 1.314 . S
N1109 C1112 1.279 . S
C1110 C1108 1.353 . S
C1110 C1113 1.348 . S
C1110 H1142 0.929 . S
C1111 C1112 1.358 . S
C1111 C1113 1.356 . S
C1111 H1143 0.930 . S
C1112 N1109 1.279 . S
C1112 C1111 1.358 . S
C1112 H1115 0.930 . S
C1113 C1110 1.348 . S
C1113 C1111 1.356 . S
H1114 C1108 0.930 . S
H1115 C1112 0.930 . S
O1116 Li1056 1.956 . S
O1116 Li1057 1.970 . S
O1116 Li1058 1.961 . S
O1116 C1060 1.325 . S
O1117 Li1056 1.970 . S
O1117 Li1057 1.956 . S
O1117 Li1059 1.961 . S
O1117 C1066 1.325 . S
O1118 Li1056 1.961 . S
O1118 Li1058 1.956 . S
O1118 Li1059 1.970 . S
O1118 C1088 1.325 . S
O1119 Li1057 1.961 . S
O1119 Li1058 1.970 . S
O1119 Li1059 1.956 . S
O1119 C1094 1.325 . S
H1120 C1062 0.929 . S
H1121 C1063 0.930 . S
H1122 C1064 0.930 . S
H1123 C1065 0.930 . S
H1124 C1067 0.930 . S
H1125 C1069 0.929 . S
H1126 C1070 0.930 . S
H1127 C1071 0.930 . S
H1128 C1074 0.930 . S
H1129 C1077 0.929 . S
H1130 C1082 0.929 . S
H1131 C1083 0.930 . S
H1132 C1090 0.929 . S
H1133 C1091 0.930 . S
H1134 C1092 0.930 . S
H1135 C1093 0.930 . S
H1136 C1095 0.929 . S
H1137 C1096 0.930 . S
H1138 C1097 0.930 . S
H1139 C1098 0.930 . S
H1140 C1102 0.929 . S
H1141 C1104 0.930 . S
H1142 C1110 0.929 . S
H1143 C1111 0.930 . S
Li1144 N1161 1.990 . S
Li1144 O1204 1.956 . S
Li1144 O1205 1.970 . S
Li1144 O1206 1.961 . S
Li1145 N1169 1.990 . S
Li1145 O1204 1.970 . S
Li1145 O1205 1.956 . S
Li1145 O1207 1.961 . S
Li1146 N1191 1.990 . S
Li1146 O1204 1.961 . S
Li1146 O1206 1.956 . S
Li1146 O1207 1.970 . S
Li1147 N1197 1.990 . S
Li1147 O1205 1.961 . S
Li1147 O1206 1.970 . S
Li1147 O1207 1.956 . S
C1148 C1150 1.348 . S
C1148 C1151 1.356 . S
C1148 O1204 1.325 . S
N1149 C1152 1.314 . S
N1149 C1153 1.279 . S
C1150 C1148 1.348 . S
C1150 C1152 1.353 . S
C1150 H1208 0.929 . S
C1151 C1148 1.356 . S
C1151 C1153 1.358 . S
C1151 H1209 0.930 . S
C1152 N1149 1.314 . S
C1152 C1150 1.353 . S
C1152 H1210 0.930 . S
C1153 N1149 1.279 . S
C1153 C1151 1.358 . S
C1153 H1211 0.930 . S
C1154 C1157 1.348 . S
C1154 C1158 1.356 . S
C1154 O1205 1.325 . S
C1155 N1156 1.279 . S
C1155 C1158 1.358 . S
C1155 H1212 0.930 . S
N1156 C1155 1.279 . S
N1156 C1159 1.314 . S
C1157 C1154 1.348 . S
C1157 C1159 1.353 . S
C1157 H1213 0.929 . S
C1158 C1154 1.356 . S
C1158 C1155 1.358 . S
C1158 H1214 0.930 . S
C1159 N1156 1.314 . S
C1159 C1157 1.353 . S
C1159 H1215 0.930 . S
C1160 N1161 1.314 . S
C1160 C1165 1.353 . S
C1160 H1166 0.930 . S
N1161 Li1144 1.990 . S
N1161 C1160 1.314 . S
N1161 C1163 1.279 . S
C1162 C1163 1.358 . S
C1162 C1164 1.356 . S
C1162 H1216 0.930 . S
C1163 N1161 1.279 . S
C1163 C1162 1.358 . S
C1163 H1167 0.930 . S
C1164 C1162 1.356 . S
C1164 C1165 1.348 . S
C1165 C1160 1.353 . S
C1165 C1164 1.348 . S
C1165 H1217 0.929 . S
H1166 C1160 0.930 . S
H1167 C1163 0.930 . S
C1168 N1169 1.314 . S
C1168 C1170 1.353 . S
C1168 H1174 0.930 . S
N1169 Li1145 1.990 . S
N1169 C1168 1.314 . S
N1169 C1172 1.279 . S
C1170 C1168 1.353 . S
C1170 C1173 1.348 . S
C1170 H1218 0.929 . S
C1171 C1172 1.358 . S
C1171 C1173 1.356 . S
C1171 H1219 0.930 . S
C1172 N1169 1.279 . S
C1172 C1171 1.358 . S
C1172 H1175 0.930 . S
C1173 C1170 1.348 . S
C1173 C1171 1.356 . S
H1174 C1168 0.930 . S
H1175 C1172 0.930 . S
C1176 C1178 1.348 . S
C1176 C1179 1.356 . S
C1176 O1206 1.325 . S
N1177 C1180 1.314 . S
N1177 C1181 1.279 . S
C1178 C1176 1.348 . S
C1178 C1180 1.353 . S
C1178 H1220 0.929 . S
C1179 C1176 1.356 . S
C1179 C1181 1.358 . S
C1179 H1221 0.930 . S
C1180 N1177 1.314 . S
C1180 C1178 1.353 . S
C1180 H1222 0.930 . S
C1181 N1177 1.279 . S
C1181 C1179 1.358 . S
C1181 H1223 0.930 . S
C1182 C1183 1.348 . S
C1182 C1184 1.356 . S
C1182 O1207 1.325 . S
C1183 C1182 1.348 . S
C1183 C1185 1.353 . S
C1183 H1224 0.929 . S
C1184 C1182 1.356 . S
C1184 C1186 1.358 . S
C1184 H1225 0.930 . S
C1185 C1183 1.353 . S
C1185 N1187 1.314 . S
C1185 H1226 0.930 . S
C1186 C1184 1.358 . S
C1186 N1187 1.279 . S
C1186 H1227 0.930 . S
N1187 C1185 1.314 . S
N1187 C1186 1.279 . S
C1188 C1190 1.353 . S
C1188 N1191 1.314 . S
C1188 H1194 0.930 . S
C1189 N1191 1.279 . S
C1189 C1192 1.358 . S
C1189 H1195 0.930 . S
C1190 C1188 1.353 . S
C1190 C1193 1.348 . S
C1190 H1228 0.929 . S
N1191 Li1146 1.990 . S
N1191 C1188 1.314 . S
N1191 C1189 1.279 . S
C1192 C1189 1.358 . S
C1192 C1193 1.356 . S
C1192 H1229 0.930 . S
C1193 C1190 1.348 . S
C1193 C1192 1.356 . S
H1194 C1188 0.930 . S
H1195 C1189 0.930 . S
C1196 N1197 1.314 . S
C1196 C1198 1.353 . S
C1196 H1202 0.930 . S
N1197 Li1147 1.990 . S
N1197 C1196 1.314 . S
N1197 C1200 1.279 . S
C1198 C1196 1.353 . S
C1198 C1201 1.348 . S
C1198 H1230 0.929 . S
C1199 C1200 1.358 . S
C1199 C1201 1.356 . S
C1199 H1231 0.930 . S
C1200 N1197 1.279 . S
C1200 C1199 1.358 . S
C1200 H1203 0.930 . S
C1201 C1198 1.348 . S
C1201 C1199 1.356 . S
H1202 C1196 0.930 . S
H1203 C1200 0.930 . S
O1204 Li1144 1.956 . S
O1204 Li1145 1.970 . S
O1204 Li1146 1.961 . S
O1204 C1148 1.325 . S
O1205 Li1144 1.970 . S
O1205 Li1145 1.956 . S
O1205 Li1147 1.961 . S
O1205 C1154 1.325 . S
O1206 Li1144 1.961 . S
O1206 Li1146 1.956 . S
O1206 Li1147 1.970 . S
O1206 C1176 1.325 . S
O1207 Li1145 1.961 . S
O1207 Li1146 1.970 . S
O1207 Li1147 1.956 . S
O1207 C1182 1.325 . S
H1208 C1150 0.929 . S
H1209 C1151 0.930 . S
H1210 C1152 0.930 . S
H1211 C1153 0.930 . S
H1212 C1155 0.930 . S
H1213 C1157 0.929 . S
H1214 C1158 0.930 . S
H1215 C1159 0.930 . S
H1216 C1162 0.930 . S
H1217 C1165 0.929 . S
H1218 C1170 0.929 . S
H1219 C1171 0.930 . S
H1220 C1178 0.929 . S
H1221 C1179 0.930 . S
H1222 C1180 0.930 . S
H1223 C1181 0.930 . S
H1224 C1183 0.929 . S
H1225 C1184 0.930 . S
H1226 C1185 0.930 . S
H1227 C1186 0.930 . S
H1228 C1190 0.929 . S
H1229 C1192 0.930 . S
H1230 C1198 0.929 . S
H1231 C1199 0.930 . S
Li1232 N1249 1.990 . S
Li1232 O1292 1.956 . S
Li1232 O1293 1.970 . S
Li1232 O1294 1.961 . S
Li1233 N1257 1.990 . S
Li1233 O1292 1.970 . S
Li1233 O1293 1.956 . S
Li1233 O1295 1.961 . S
Li1234 N1279 1.990 . S
Li1234 O1292 1.961 . S
Li1234 O1294 1.956 . S
Li1234 O1295 1.970 . S
Li1235 N1285 1.990 . S
Li1235 O1293 1.961 . S
Li1235 O1294 1.970 . S
Li1235 O1295 1.956 . S
C1236 C1238 1.348 . S
C1236 C1239 1.356 . S
C1236 O1292 1.325 . S
N1237 C1240 1.314 . S
N1237 C1241 1.279 . S
C1238 C1236 1.348 . S
C1238 C1240 1.353 . S
C1238 H1296 0.929 . S
C1239 C1236 1.356 . S
C1239 C1241 1.358 . S
C1239 H1297 0.930 . S
C1240 N1237 1.314 . S
C1240 C1238 1.353 . S
C1240 H1298 0.930 . S
C1241 N1237 1.279 . S
C1241 C1239 1.358 . S
C1241 H1299 0.930 . S
C1242 C1245 1.348 . S
C1242 C1246 1.356 . S
C1242 O1293 1.325 . S
C1243 N1244 1.279 . S
C1243 C1246 1.358 . S
C1243 H1300 0.930 . S
N1244 C1243 1.279 . S
N1244 C1247 1.314 . S
C1245 C1242 1.348 . S
C1245 C1247 1.353 . S
C1245 H1301 0.929 . S
C1246 C1242 1.356 . S
C1246 C1243 1.358 . S
C1246 H1302 0.930 . S
C1247 N1244 1.314 . S
C1247 C1245 1.353 . S
C1247 H1303 0.930 . S
C1248 N1249 1.314 . S
C1248 C1253 1.353 . S
C1248 H1254 0.930 . S
N1249 Li1232 1.990 . S
N1249 C1248 1.314 . S
N1249 C1251 1.279 . S
C1250 C1251 1.358 . S
C1250 C1252 1.356 . S
C1250 H1304 0.930 . S
C1251 N1249 1.279 . S
C1251 C1250 1.358 . S
C1251 H1255 0.930 . S
C1252 C1250 1.356 . S
C1252 C1253 1.348 . S
C1253 C1248 1.353 . S
C1253 C1252 1.348 . S
C1253 H1305 0.929 . S
H1254 C1248 0.930 . S
H1255 C1251 0.930 . S
C1256 N1257 1.314 . S
C1256 C1258 1.353 . S
C1256 H1262 0.930 . S
N1257 Li1233 1.990 . S
N1257 C1256 1.314 . S
N1257 C1260 1.279 . S
C1258 C1256 1.353 . S
C1258 C1261 1.348 . S
C1258 H1306 0.929 . S
C1259 C1260 1.358 . S
C1259 C1261 1.356 . S
C1259 H1307 0.930 . S
C1260 N1257 1.279 . S
C1260 C1259 1.358 . S
C1260 H1263 0.930 . S
C1261 C1258 1.348 . S
C1261 C1259 1.356 . S
H1262 C1256 0.930 . S
H1263 C1260 0.930 . S
C1264 C1266 1.348 . S
C1264 C1267 1.356 . S
C1264 O1294 1.325 . S
N1265 C1268 1.314 . S
N1265 C1269 1.279 . S
C1266 C1264 1.348 . S
C1266 C1268 1.353 . S
C1266 H1308 0.929 . S
C1267 C1264 1.356 . S
C1267 C1269 1.358 . S
C1267 H1309 0.930 . S
C1268 N1265 1.314 . S
C1268 C1266 1.353 . S
C1268 H1310 0.930 . S
C1269 N1265 1.279 . S
C1269 C1267 1.358 . S
C1269 H1311 0.930 . S
C1270 C1271 1.348 . S
C1270 C1272 1.356 . S
C1270 O1295 1.325 . S
C1271 C1270 1.348 . S
C1271 C1273 1.353 . S
C1271 H1312 0.929 . S
C1272 C1270 1.356 . S
C1272 C1274 1.358 . S
C1272 H1313 0.930 . S
C1273 C1271 1.353 . S
C1273 N1275 1.314 . S
C1273 H1314 0.930 . S
C1274 C1272 1.358 . S
C1274 N1275 1.279 . S
C1274 H1315 0.930 . S
N1275 C1273 1.314 . S
N1275 C1274 1.279 . S
C1276 C1278 1.353 . S
C1276 N1279 1.314 . S
C1276 H1282 0.930 . S
C1277 N1279 1.279 . S
C1277 C1280 1.358 . S
C1277 H1283 0.930 . S
C1278 C1276 1.353 . S
C1278 C1281 1.348 . S
C1278 H1316 0.929 . S
N1279 Li1234 1.990 . S
N1279 C1276 1.314 . S
N1279 C1277 1.279 . S
C1280 C1277 1.358 . S
C1280 C1281 1.356 . S
C1280 H1317 0.930 . S
C1281 C1278 1.348 . S
C1281 C1280 1.356 . S
H1282 C1276 0.930 . S
H1283 C1277 0.930 . S
C1284 N1285 1.314 . S
C1284 C1286 1.353 . S
C1284 H1290 0.930 . S
N1285 Li1235 1.990 . S
N1285 C1284 1.314 . S
N1285 C1288 1.279 . S
C1286 C1284 1.353 . S
C1286 C1289 1.348 . S
C1286 H1318 0.929 . S
C1287 C1288 1.358 . S
C1287 C1289 1.356 . S
C1287 H1319 0.930 . S
C1288 N1285 1.279 . S
C1288 C1287 1.358 . S
C1288 H1291 0.930 . S
C1289 C1286 1.348 . S
C1289 C1287 1.356 . S
H1290 C1284 0.930 . S
H1291 C1288 0.930 . S
O1292 Li1232 1.956 . S
O1292 Li1233 1.970 . S
O1292 Li1234 1.961 . S
O1292 C1236 1.325 . S
O1293 Li1232 1.970 . S
O1293 Li1233 1.956 . S
O1293 Li1235 1.961 . S
O1293 C1242 1.325 . S
O1294 Li1232 1.961 . S
O1294 Li1234 1.956 . S
O1294 Li1235 1.970 . S
O1294 C1264 1.325 . S
O1295 Li1233 1.961 . S
O1295 Li1234 1.970 . S
O1295 Li1235 1.956 . S
O1295 C1270 1.325 . S
H1296 C1238 0.929 . S
H1297 C1239 0.930 . S
H1298 C1240 0.930 . S
H1299 C1241 0.930 . S
H1300 C1243 0.930 . S
H1301 C1245 0.929 . S
H1302 C1246 0.930 . S
H1303 C1247 0.930 . S
H1304 C1250 0.930 . S
H1305 C1253 0.929 . S
H1306 C1258 0.929 . S
H1307 C1259 0.930 . S
H1308 C1266 0.929 . S
H1309 C1267 0.930 . S
H1310 C1268 0.930 . S
H1311 C1269 0.930 . S
H1312 C1271 0.929 . S
H1313 C1272 0.930 . S
H1314 C1273 0.930 . S
H1315 C1274 0.930 . S
H1316 C1278 0.929 . S
H1317 C1280 0.930 . S
H1318 C1286 0.929 . S
H1319 C1287 0.930 . S
Li1320 N1337 1.990 . S
Li1320 O1380 1.956 . S
Li1320 O1381 1.970 . S
Li1320 O1382 1.961 . S
Li1321 N1345 1.990 . S
Li1321 O1380 1.970 . S
Li1321 O1381 1.956 . S
Li1321 O1383 1.961 . S
Li1322 N1367 1.990 . S
Li1322 O1380 1.961 . S
Li1322 O1382 1.956 . S
Li1322 O1383 1.970 . S
Li1323 N1373 1.990 . S
Li1323 O1381 1.961 . S
Li1323 O1382 1.970 . S
Li1323 O1383 1.956 . S
C1324 C1326 1.348 . S
C1324 C1327 1.356 . S
C1324 O1380 1.325 . S
N1325 C1328 1.314 . S
N1325 C1329 1.279 . S
C1326 C1324 1.348 . S
C1326 C1328 1.353 . S
C1326 H1384 0.929 . S
C1327 C1324 1.356 . S
C1327 C1329 1.358 . S
C1327 H1385 0.930 . S
C1328 N1325 1.314 . S
C1328 C1326 1.353 . S
C1328 H1386 0.930 . S
C1329 N1325 1.279 . S
C1329 C1327 1.358 . S
C1329 H1387 0.930 . S
C1330 C1333 1.348 . S
C1330 C1334 1.356 . S
C1330 O1381 1.325 . S
C1331 N1332 1.279 . S
C1331 C1334 1.358 . S
C1331 H1388 0.930 . S
N1332 C1331 1.279 . S
N1332 C1335 1.314 . S
C1333 C1330 1.348 . S
C1333 C1335 1.353 . S
C1333 H1389 0.929 . S
C1334 C1330 1.356 . S
C1334 C1331 1.358 . S
C1334 H1390 0.930 . S
C1335 N1332 1.314 . S
C1335 C1333 1.353 . S
C1335 H1391 0.930 . S
C1336 N1337 1.314 . S
C1336 C1341 1.353 . S
C1336 H1342 0.930 . S
N1337 Li1320 1.990 . S
N1337 C1336 1.314 . S
N1337 C1339 1.279 . S
C1338 C1339 1.358 . S
C1338 C1340 1.356 . S
C1338 H1392 0.930 . S
C1339 N1337 1.279 . S
C1339 C1338 1.358 . S
C1339 H1343 0.930 . S
C1340 C1338 1.356 . S
C1340 C1341 1.348 . S
C1341 C1336 1.353 . S
C1341 C1340 1.348 . S
C1341 H1393 0.929 . S
H1342 C1336 0.930 . S
H1343 C1339 0.930 . S
C1344 N1345 1.314 . S
C1344 C1346 1.353 . S
C1344 H1350 0.930 . S
N1345 Li1321 1.990 . S
N1345 C1344 1.314 . S
N1345 C1348 1.279 . S
C1346 C1344 1.353 . S
C1346 C1349 1.348 . S
C1346 H1394 0.929 . S
C1347 C1348 1.358 . S
C1347 C1349 1.356 . S
C1347 H1395 0.930 . S
C1348 N1345 1.279 . S
C1348 C1347 1.358 . S
C1348 H1351 0.930 . S
C1349 C1346 1.348 . S
C1349 C1347 1.356 . S
H1350 C1344 0.930 . S
H1351 C1348 0.930 . S
C1352 C1354 1.348 . S
C1352 C1355 1.356 . S
C1352 O1382 1.325 . S
N1353 C1356 1.314 . S
N1353 C1357 1.279 . S
C1354 C1352 1.348 . S
C1354 C1356 1.353 . S
C1354 H1396 0.929 . S
C1355 C1352 1.356 . S
C1355 C1357 1.358 . S
C1355 H1397 0.930 . S
C1356 N1353 1.314 . S
C1356 C1354 1.353 . S
C1356 H1398 0.930 . S
C1357 N1353 1.279 . S
C1357 C1355 1.358 . S
C1357 H1399 0.930 . S
C1358 C1359 1.348 . S
C1358 C1360 1.356 . S
C1358 O1383 1.325 . S
C1359 C1358 1.348 . S
C1359 C1361 1.353 . S
C1359 H1400 0.929 . S
C1360 C1358 1.356 . S
C1360 C1362 1.358 . S
C1360 H1401 0.930 . S
C1361 C1359 1.353 . S
C1361 N1363 1.314 . S
C1361 H1402 0.930 . S
C1362 C1360 1.358 . S
C1362 N1363 1.279 . S
C1362 H1403 0.930 . S
N1363 C1361 1.314 . S
N1363 C1362 1.279 . S
C1364 C1366 1.353 . S
C1364 N1367 1.314 . S
C1364 H1370 0.930 . S
C1365 N1367 1.279 . S
C1365 C1368 1.358 . S
C1365 H1371 0.930 . S
C1366 C1364 1.353 . S
C1366 C1369 1.348 . S
C1366 H1404 0.929 . S
N1367 Li1322 1.990 . S
N1367 C1364 1.314 . S
N1367 C1365 1.279 . S
C1368 C1365 1.358 . S
C1368 C1369 1.356 . S
C1368 H1405 0.930 . S
C1369 C1366 1.348 . S
C1369 C1368 1.356 . S
H1370 C1364 0.930 . S
H1371 C1365 0.930 . S
C1372 N1373 1.314 . S
C1372 C1374 1.353 . S
C1372 H1378 0.930 . S
N1373 Li1323 1.990 . S
N1373 C1372 1.314 . S
N1373 C1376 1.279 . S
C1374 C1372 1.353 . S
C1374 C1377 1.348 . S
C1374 H1406 0.929 . S
C1375 C1376 1.358 . S
C1375 C1377 1.356 . S
C1375 H1407 0.930 . S
C1376 N1373 1.279 . S
C1376 C1375 1.358 . S
C1376 H1379 0.930 . S
C1377 C1374 1.348 . S
C1377 C1375 1.356 . S
H1378 C1372 0.930 . S
H1379 C1376 0.930 . S
O1380 Li1320 1.956 . S
O1380 Li1321 1.970 . S
O1380 Li1322 1.961 . S
O1380 C1324 1.325 . S
O1381 Li1320 1.970 . S
O1381 Li1321 1.956 . S
O1381 Li1323 1.961 . S
O1381 C1330 1.325 . S
O1382 Li1320 1.961 . S
O1382 Li1322 1.956 . S
O1382 Li1323 1.970 . S
O1382 C1352 1.325 . S
O1383 Li1321 1.961 . S
O1383 Li1322 1.970 . S
O1383 Li1323 1.956 . S
O1383 C1358 1.325 . S
H1384 C1326 0.929 . S
H1385 C1327 0.930 . S
H1386 C1328 0.930 . S
H1387 C1329 0.930 . S
H1388 C1331 0.930 . S
H1389 C1333 0.929 . S
H1390 C1334 0.930 . S
H1391 C1335 0.930 . S
H1392 C1338 0.930 . S
H1393 C1341 0.929 . S
H1394 C1346 0.929 . S
H1395 C1347 0.930 . S
H1396 C1354 0.929 . S
H1397 C1355 0.930 . S
H1398 C1356 0.930 . S
H1399 C1357 0.930 . S
H1400 C1359 0.929 . S
H1401 C1360 0.930 . S
H1402 C1361 0.930 . S
H1403 C1362 0.930 . S
H1404 C1366 0.929 . S
H1405 C1368 0.930 . S
H1406 C1374 0.929 . S
H1407 C1375 0.930 . S
Li1408 N1425 1.990 . S
Li1408 O1468 1.956 . S
Li1408 O1469 1.970 . S
Li1408 O1470 1.961 . S
Li1409 N1433 1.990 . S
Li1409 O1468 1.970 . S
Li1409 O1469 1.956 . S
Li1409 O1471 1.961 . S
Li1410 N1455 1.990 . S
Li1410 O1468 1.961 . S
Li1410 O1470 1.956 . S
Li1410 O1471 1.970 . S
Li1411 N1461 1.990 . S
Li1411 O1469 1.961 . S
Li1411 O1470 1.970 . S
Li1411 O1471 1.956 . S
C1412 C1414 1.348 . S
C1412 C1415 1.356 . S
C1412 O1468 1.325 . S
N1413 C1416 1.314 . S
N1413 C1417 1.279 . S
C1414 C1412 1.348 . S
C1414 C1416 1.353 . S
C1414 H1472 0.929 . S
C1415 C1412 1.356 . S
C1415 C1417 1.358 . S
C1415 H1473 0.930 . S
C1416 N1413 1.314 . S
C1416 C1414 1.353 . S
C1416 H1474 0.930 . S
C1417 N1413 1.279 . S
C1417 C1415 1.358 . S
C1417 H1475 0.930 . S
C1418 C1421 1.348 . S
C1418 C1422 1.356 . S
C1418 O1469 1.325 . S
C1419 N1420 1.279 . S
C1419 C1422 1.358 . S
C1419 H1476 0.930 . S
N1420 C1419 1.279 . S
N1420 C1423 1.314 . S
C1421 C1418 1.348 . S
C1421 C1423 1.353 . S
C1421 H1477 0.929 . S
C1422 C1418 1.356 . S
C1422 C1419 1.358 . S
C1422 H1478 0.930 . S
C1423 N1420 1.314 . S
C1423 C1421 1.353 . S
C1423 H1479 0.930 . S
C1424 N1425 1.314 . S
C1424 C1429 1.353 . S
C1424 H1430 0.930 . S
N1425 Li1408 1.990 . S
N1425 C1424 1.314 . S
N1425 C1427 1.279 . S
C1426 C1427 1.358 . S
C1426 C1428 1.356 . S
C1426 H1480 0.930 . S
C1427 N1425 1.279 . S
C1427 C1426 1.358 . S
C1427 H1431 0.930 . S
C1428 C1426 1.356 . S
C1428 C1429 1.348 . S
C1429 C1424 1.353 . S
C1429 C1428 1.348 . S
C1429 H1481 0.929 . S
H1430 C1424 0.930 . S
H1431 C1427 0.930 . S
C1432 N1433 1.314 . S
C1432 C1434 1.353 . S
C1432 H1438 0.930 . S
N1433 Li1409 1.990 . S
N1433 C1432 1.314 . S
N1433 C1436 1.279 . S
C1434 C1432 1.353 . S
C1434 C1437 1.348 . S
C1434 H1482 0.929 . S
C1435 C1436 1.358 . S
C1435 C1437 1.356 . S
C1435 H1483 0.930 . S
C1436 N1433 1.279 . S
C1436 C1435 1.358 . S
C1436 H1439 0.930 . S
C1437 C1434 1.348 . S
C1437 C1435 1.356 . S
H1438 C1432 0.930 . S
H1439 C1436 0.930 . S
C1440 C1442 1.348 . S
C1440 C1443 1.356 . S
C1440 O1470 1.325 . S
N1441 C1444 1.314 . S
N1441 C1445 1.279 . S
C1442 C1440 1.348 . S
C1442 C1444 1.353 . S
C1442 H1484 0.929 . S
C1443 C1440 1.356 . S
C1443 C1445 1.358 . S
C1443 H1485 0.930 . S
C1444 N1441 1.314 . S
C1444 C1442 1.353 . S
C1444 H1486 0.930 . S
C1445 N1441 1.279 . S
C1445 C1443 1.358 . S
C1445 H1487 0.930 . S
C1446 C1447 1.348 . S
C1446 C1448 1.356 . S
C1446 O1471 1.325 . S
C1447 C1446 1.348 . S
C1447 C1449 1.353 . S
C1447 H1488 0.929 . S
C1448 C1446 1.356 . S
C1448 C1450 1.358 . S
C1448 H1489 0.930 . S
C1449 C1447 1.353 . S
C1449 N1451 1.314 . S
C1449 H1490 0.930 . S
C1450 C1448 1.358 . S
C1450 N1451 1.279 . S
C1450 H1491 0.930 . S
N1451 C1449 1.314 . S
N1451 C1450 1.279 . S
C1452 C1454 1.353 . S
C1452 N1455 1.314 . S
C1452 H1458 0.930 . S
C1453 N1455 1.279 . S
C1453 C1456 1.358 . S
C1453 H1459 0.930 . S
C1454 C1452 1.353 . S
C1454 C1457 1.348 . S
C1454 H1492 0.929 . S
N1455 Li1410 1.990 . S
N1455 C1452 1.314 . S
N1455 C1453 1.279 . S
C1456 C1453 1.358 . S
C1456 C1457 1.356 . S
C1456 H1493 0.930 . S
C1457 C1454 1.348 . S
C1457 C1456 1.356 . S
H1458 C1452 0.930 . S
H1459 C1453 0.930 . S
C1460 N1461 1.314 . S
C1460 C1462 1.353 . S
C1460 H1466 0.930 . S
N1461 Li1411 1.990 . S
N1461 C1460 1.314 . S
N1461 C1464 1.279 . S
C1462 C1460 1.353 . S
C1462 C1465 1.348 . S
C1462 H1494 0.929 . S
C1463 C1464 1.358 . S
C1463 C1465 1.356 . S
C1463 H1495 0.930 . S
C1464 N1461 1.279 . S
C1464 C1463 1.358 . S
C1464 H1467 0.930 . S
C1465 C1462 1.348 . S
C1465 C1463 1.356 . S
H1466 C1460 0.930 . S
H1467 C1464 0.930 . S
O1468 Li1408 1.956 . S
O1468 Li1409 1.970 . S
O1468 Li1410 1.961 . S
O1468 C1412 1.325 . S
O1469 Li1408 1.970 . S
O1469 Li1409 1.956 . S
O1469 Li1411 1.961 . S
O1469 C1418 1.325 . S
O1470 Li1408 1.961 . S
O1470 Li1410 1.956 . S
O1470 Li1411 1.970 . S
O1470 C1440 1.325 . S
O1471 Li1409 1.961 . S
O1471 Li1410 1.970 . S
O1471 Li1411 1.956 . S
O1471 C1446 1.325 . S
H1472 C1414 0.929 . S
H1473 C1415 0.930 . S
H1474 C1416 0.930 . S
H1475 C1417 0.930 . S
H1476 C1419 0.930 . S
H1477 C1421 0.929 . S
H1478 C1422 0.930 . S
H1479 C1423 0.930 . S
H1480 C1426 0.930 . S
H1481 C1429 0.929 . S
H1482 C1434 0.929 . S
H1483 C1435 0.930 . S
H1484 C1442 0.929 . S
H1485 C1443 0.930 . S
H1486 C1444 0.930 . S
H1487 C1445 0.930 . S
H1488 C1447 0.929 . S
H1489 C1448 0.930 . S
H1490 C1449 0.930 . S
H1491 C1450 0.930 . S
H1492 C1454 0.929 . S
H1493 C1456 0.930 . S
H1494 C1462 0.929 . S
H1495 C1463 0.930 . S
Li1496 N1513 1.990 . S
Li1496 O1556 1.956 . S
Li1496 O1557 1.970 . S
Li1496 O1558 1.961 . S
Li1497 N1521 1.990 . S
Li1497 O1556 1.970 . S
Li1497 O1557 1.956 . S
Li1497 O1559 1.961 . S
Li1498 N1543 1.990 . S
Li1498 O1556 1.961 . S
Li1498 O1558 1.956 . S
Li1498 O1559 1.970 . S
Li1499 N1549 1.990 . S
Li1499 O1557 1.961 . S
Li1499 O1558 1.970 . S
Li1499 O1559 1.956 . S
C1500 C1502 1.348 . S
C1500 C1503 1.356 . S
C1500 O1556 1.325 . S
N1501 C1504 1.314 . S
N1501 C1505 1.279 . S
C1502 C1500 1.348 . S
C1502 C1504 1.353 . S
C1502 H1560 0.929 . S
C1503 C1500 1.356 . S
C1503 C1505 1.358 . S
C1503 H1561 0.930 . S
C1504 N1501 1.314 . S
C1504 C1502 1.353 . S
C1504 H1562 0.930 . S
C1505 N1501 1.279 . S
C1505 C1503 1.358 . S
C1505 H1563 0.930 . S
C1506 C1509 1.348 . S
C1506 C1510 1.356 . S
C1506 O1557 1.325 . S
C1507 N1508 1.279 . S
C1507 C1510 1.358 . S
C1507 H1564 0.930 . S
N1508 C1507 1.279 . S
N1508 C1511 1.314 . S
C1509 C1506 1.348 . S
C1509 C1511 1.353 . S
C1509 H1565 0.929 . S
C1510 C1506 1.356 . S
C1510 C1507 1.358 . S
C1510 H1566 0.930 . S
C1511 N1508 1.314 . S
C1511 C1509 1.353 . S
C1511 H1567 0.930 . S
C1512 N1513 1.314 . S
C1512 C1517 1.353 . S
C1512 H1518 0.930 . S
N1513 Li1496 1.990 . S
N1513 C1512 1.314 . S
N1513 C1515 1.279 . S
C1514 C1515 1.358 . S
C1514 C1516 1.356 . S
C1514 H1568 0.930 . S
C1515 N1513 1.279 . S
C1515 C1514 1.358 . S
C1515 H1519 0.930 . S
C1516 C1514 1.356 . S
C1516 C1517 1.348 . S
C1517 C1512 1.353 . S
C1517 C1516 1.348 . S
C1517 H1569 0.929 . S
H1518 C1512 0.930 . S
H1519 C1515 0.930 . S
C1520 N1521 1.314 . S
C1520 C1522 1.353 . S
C1520 H1526 0.930 . S
N1521 Li1497 1.990 . S
N1521 C1520 1.314 . S
N1521 C1524 1.279 . S
C1522 C1520 1.353 . S
C1522 C1525 1.348 . S
C1522 H1570 0.929 . S
C1523 C1524 1.358 . S
C1523 C1525 1.356 . S
C1523 H1571 0.930 . S
C1524 N1521 1.279 . S
C1524 C1523 1.358 . S
C1524 H1527 0.930 . S
C1525 C1522 1.348 . S
C1525 C1523 1.356 . S
H1526 C1520 0.930 . S
H1527 C1524 0.930 . S
C1528 C1530 1.348 . S
C1528 C1531 1.356 . S
C1528 O1558 1.325 . S
N1529 C1532 1.314 . S
N1529 C1533 1.279 . S
C1530 C1528 1.348 . S
C1530 C1532 1.353 . S
C1530 H1572 0.929 . S
C1531 C1528 1.356 . S
C1531 C1533 1.358 . S
C1531 H1573 0.930 . S
C1532 N1529 1.314 . S
C1532 C1530 1.353 . S
C1532 H1574 0.930 . S
C1533 N1529 1.279 . S
C1533 C1531 1.358 . S
C1533 H1575 0.930 . S
C1534 C1535 1.348 . S
C1534 C1536 1.356 . S
C1534 O1559 1.325 . S
C1535 C1534 1.348 . S
C1535 C1537 1.353 . S
C1535 H1576 0.929 . S
C1536 C1534 1.356 . S
C1536 C1538 1.358 . S
C1536 H1577 0.930 . S
C1537 C1535 1.353 . S
C1537 N1539 1.314 . S
C1537 H1578 0.930 . S
C1538 C1536 1.358 . S
C1538 N1539 1.279 . S
C1538 H1579 0.930 . S
N1539 C1537 1.314 . S
N1539 C1538 1.279 . S
C1540 C1542 1.353 . S
C1540 N1543 1.314 . S
C1540 H1546 0.930 . S
C1541 N1543 1.279 . S
C1541 C1544 1.358 . S
C1541 H1547 0.930 . S
C1542 C1540 1.353 . S
C1542 C1545 1.348 . S
C1542 H1580 0.929 . S
N1543 Li1498 1.990 . S
N1543 C1540 1.314 . S
N1543 C1541 1.279 . S
C1544 C1541 1.358 . S
C1544 C1545 1.356 . S
C1544 H1581 0.930 . S
C1545 C1542 1.348 . S
C1545 C1544 1.356 . S
H1546 C1540 0.930 . S
H1547 C1541 0.930 . S
C1548 N1549 1.314 . S
C1548 C1550 1.353 . S
C1548 H1554 0.930 . S
N1549 Li1499 1.990 . S
N1549 C1548 1.314 . S
N1549 C1552 1.279 . S
C1550 C1548 1.353 . S
C1550 C1553 1.348 . S
C1550 H1582 0.929 . S
C1551 C1552 1.358 . S
C1551 C1553 1.356 . S
C1551 H1583 0.930 . S
C1552 N1549 1.279 . S
C1552 C1551 1.358 . S
C1552 H1555 0.930 . S
C1553 C1550 1.348 . S
C1553 C1551 1.356 . S
H1554 C1548 0.930 . S
H1555 C1552 0.930 . S
O1556 Li1496 1.956 . S
O1556 Li1497 1.970 . S
O1556 Li1498 1.961 . S
O1556 C1500 1.325 . S
O1557 Li1496 1.970 . S
O1557 Li1497 1.956 . S
O1557 Li1499 1.961 . S
O1557 C1506 1.325 . S
O1558 Li1496 1.961 . S
O1558 Li1498 1.956 . S
O1558 Li1499 1.970 . S
O1558 C1528 1.325 . S
O1559 Li1497 1.961 . S
O1559 Li1498 1.970 . S
O1559 Li1499 1.956 . S
O1559 C1534 1.325 . S
H1560 C1502 0.929 . S
H1561 C1503 0.930 . S
H1562 C1504 0.930 . S
H1563 C1505 0.930 . S
H1564 C1507 0.930 . S
H1565 C1509 0.929 . S
H1566 C1510 0.930 . S
H1567 C1511 0.930 . S
H1568 C1514 0.930 . S
H1569 C1517 0.929 . S
H1570 C1522 0.929 . S
H1571 C1523 0.930 . S
H1572 C1530 0.929 . S
H1573 C1531 0.930 . S
H1574 C1532 0.930 . S
H1575 C1533 0.930 . S
H1576 C1535 0.929 . S
H1577 C1536 0.930 . S
H1578 C1537 0.930 . S
H1579 C1538 0.930 . S
H1580 C1542 0.929 . S
H1581 C1544 0.930 . S
H1582 C1550 0.929 . S
H1583 C1551 0.930 . S
Li1584 N1601 1.990 . S
Li1584 O1644 1.956 . S
Li1584 O1645 1.970 . S
Li1584 O1646 1.961 . S
Li1585 N1609 1.990 . S
Li1585 O1644 1.970 . S
Li1585 O1645 1.956 . S
Li1585 O1647 1.961 . S
Li1586 N1631 1.990 . S
Li1586 O1644 1.961 . S
Li1586 O1646 1.956 . S
Li1586 O1647 1.970 . S
Li1587 N1637 1.990 . S
Li1587 O1645 1.961 . S
Li1587 O1646 1.970 . S
Li1587 O1647 1.956 . S
C1588 C1590 1.348 . S
C1588 C1591 1.356 . S
C1588 O1644 1.325 . S
N1589 C1592 1.314 . S
N1589 C1593 1.279 . S
C1590 C1588 1.348 . S
C1590 C1592 1.353 . S
C1590 H1648 0.929 . S
C1591 C1588 1.356 . S
C1591 C1593 1.358 . S
C1591 H1649 0.930 . S
C1592 N1589 1.314 . S
C1592 C1590 1.353 . S
C1592 H1650 0.930 . S
C1593 N1589 1.279 . S
C1593 C1591 1.358 . S
C1593 H1651 0.930 . S
C1594 C1597 1.348 . S
C1594 C1598 1.356 . S
C1594 O1645 1.325 . S
C1595 N1596 1.279 . S
C1595 C1598 1.358 . S
C1595 H1652 0.930 . S
N1596 C1595 1.279 . S
N1596 C1599 1.314 . S
C1597 C1594 1.348 . S
C1597 C1599 1.353 . S
C1597 H1653 0.929 . S
C1598 C1594 1.356 . S
C1598 C1595 1.358 . S
C1598 H1654 0.930 . S
C1599 N1596 1.314 . S
C1599 C1597 1.353 . S
C1599 H1655 0.930 . S
C1600 N1601 1.314 . S
C1600 C1605 1.353 . S
C1600 H1606 0.930 . S
N1601 Li1584 1.990 . S
N1601 C1600 1.314 . S
N1601 C1603 1.279 . S
C1602 C1603 1.358 . S
C1602 C1604 1.356 . S
C1602 H1656 0.930 . S
C1603 N1601 1.279 . S
C1603 C1602 1.358 . S
C1603 H1607 0.930 . S
C1604 C1602 1.356 . S
C1604 C1605 1.348 . S
C1605 C1600 1.353 . S
C1605 C1604 1.348 . S
C1605 H1657 0.929 . S
H1606 C1600 0.930 . S
H1607 C1603 0.930 . S
C1608 N1609 1.314 . S
C1608 C1610 1.353 . S
C1608 H1614 0.930 . S
N1609 Li1585 1.990 . S
N1609 C1608 1.314 . S
N1609 C1612 1.279 . S
C1610 C1608 1.353 . S
C1610 C1613 1.348 . S
C1610 H1658 0.929 . S
C1611 C1612 1.358 . S
C1611 C1613 1.356 . S
C1611 H1659 0.930 . S
C1612 N1609 1.279 . S
C1612 C1611 1.358 . S
C1612 H1615 0.930 . S
C1613 C1610 1.348 . S
C1613 C1611 1.356 . S
H1614 C1608 0.930 . S
H1615 C1612 0.930 . S
C1616 C1618 1.348 . S
C1616 C1619 1.356 . S
C1616 O1646 1.325 . S
N1617 C1620 1.314 . S
N1617 C1621 1.279 . S
C1618 C1616 1.348 . S
C1618 C1620 1.353 . S
C1618 H1660 0.929 . S
C1619 C1616 1.356 . S
C1619 C1621 1.358 . S
C1619 H1661 0.930 . S
C1620 N1617 1.314 . S
C1620 C1618 1.353 . S
C1620 H1662 0.930 . S
C1621 N1617 1.279 . S
C1621 C1619 1.358 . S
C1621 H1663 0.930 . S
C1622 C1623 1.348 . S
C1622 C1624 1.356 . S
C1622 O1647 1.325 . S
C1623 C1622 1.348 . S
C1623 C1625 1.353 . S
C1623 H1664 0.929 . S
C1624 C1622 1.356 . S
C1624 C1626 1.358 . S
C1624 H1665 0.930 . S
C1625 C1623 1.353 . S
C1625 N1627 1.314 . S
C1625 H1666 0.930 . S
C1626 C1624 1.358 . S
C1626 N1627 1.279 . S
C1626 H1667 0.930 . S
N1627 C1625 1.314 . S
N1627 C1626 1.279 . S
C1628 C1630 1.353 . S
C1628 N1631 1.314 . S
C1628 H1634 0.930 . S
C1629 N1631 1.279 . S
C1629 C1632 1.358 . S
C1629 H1635 0.930 . S
C1630 C1628 1.353 . S
C1630 C1633 1.348 . S
C1630 H1668 0.929 . S
N1631 Li1586 1.990 . S
N1631 C1628 1.314 . S
N1631 C1629 1.279 . S
C1632 C1629 1.358 . S
C1632 C1633 1.356 . S
C1632 H1669 0.930 . S
C1633 C1630 1.348 . S
C1633 C1632 1.356 . S
H1634 C1628 0.930 . S
H1635 C1629 0.930 . S
C1636 N1637 1.314 . S
C1636 C1638 1.353 . S
C1636 H1642 0.930 . S
N1637 Li1587 1.990 . S
N1637 C1636 1.314 . S
N1637 C1640 1.279 . S
C1638 C1636 1.353 . S
C1638 C1641 1.348 . S
C1638 H1670 0.929 . S
C1639 C1640 1.358 . S
C1639 C1641 1.356 . S
C1639 H1671 0.930 . S
C1640 N1637 1.279 . S
C1640 C1639 1.358 . S
C1640 H1643 0.930 . S
C1641 C1638 1.348 . S
C1641 C1639 1.356 . S
H1642 C1636 0.930 . S
H1643 C1640 0.930 . S
O1644 Li1584 1.956 . S
O1644 Li1585 1.970 . S
O1644 Li1586 1.961 . S
O1644 C1588 1.325 . S
O1645 Li1584 1.970 . S
O1645 Li1585 1.956 . S
O1645 Li1587 1.961 . S
O1645 C1594 1.325 . S
O1646 Li1584 1.961 . S
O1646 Li1586 1.956 . S
O1646 Li1587 1.970 . S
O1646 C1616 1.325 . S
O1647 Li1585 1.961 . S
O1647 Li1586 1.970 . S
O1647 Li1587 1.956 . S
O1647 C1622 1.325 . S
H1648 C1590 0.929 . S
H1649 C1591 0.930 . S
H1650 C1592 0.930 . S
H1651 C1593 0.930 . S
H1652 C1595 0.930 . S
H1653 C1597 0.929 . S
H1654 C1598 0.930 . S
H1655 C1599 0.930 . S
H1656 C1602 0.930 . S
H1657 C1605 0.929 . S
H1658 C1610 0.929 . S
H1659 C1611 0.930 . S
H1660 C1618 0.929 . S
H1661 C1619 0.930 . S
H1662 C1620 0.930 . S
H1663 C1621 0.930 . S
H1664 C1623 0.929 . S
H1665 C1624 0.930 . S
H1666 C1625 0.930 . S
H1667 C1626 0.930 . S
H1668 C1630 0.929 . S
H1669 C1632 0.930 . S
H1670 C1638 0.929 . S
H1671 C1639 0.930 . S
Li1672 N1689 1.990 . S
Li1672 O1732 1.956 . S
Li1672 O1733 1.970 . S
Li1672 O1734 1.961 . S
Li1673 N1697 1.990 . S
Li1673 O1732 1.970 . S
Li1673 O1733 1.956 . S
Li1673 O1735 1.961 . S
Li1674 N1719 1.990 . S
Li1674 O1732 1.961 . S
Li1674 O1734 1.956 . S
Li1674 O1735 1.970 . S
Li1675 N1725 1.990 . S
Li1675 O1733 1.961 . S
Li1675 O1734 1.970 . S
Li1675 O1735 1.956 . S
C1676 C1678 1.348 . S
C1676 C1679 1.356 . S
C1676 O1732 1.325 . S
N1677 C1680 1.314 . S
N1677 C1681 1.279 . S
C1678 C1676 1.348 . S
C1678 C1680 1.353 . S
C1678 H1736 0.929 . S
C1679 C1676 1.356 . S
C1679 C1681 1.358 . S
C1679 H1737 0.930 . S
C1680 N1677 1.314 . S
C1680 C1678 1.353 . S
C1680 H1738 0.930 . S
C1681 N1677 1.279 . S
C1681 C1679 1.358 . S
C1681 H1739 0.930 . S
C1682 C1685 1.348 . S
C1682 C1686 1.356 . S
C1682 O1733 1.325 . S
C1683 N1684 1.279 . S
C1683 C1686 1.358 . S
C1683 H1740 0.930 . S
N1684 C1683 1.279 . S
N1684 C1687 1.314 . S
C1685 C1682 1.348 . S
C1685 C1687 1.353 . S
C1685 H1741 0.929 . S
C1686 C1682 1.356 . S
C1686 C1683 1.358 . S
C1686 H1742 0.930 . S
C1687 N1684 1.314 . S
C1687 C1685 1.353 . S
C1687 H1743 0.930 . S
C1688 N1689 1.314 . S
C1688 C1693 1.353 . S
C1688 H1694 0.930 . S
N1689 Li1672 1.990 . S
N1689 C1688 1.314 . S
N1689 C1691 1.279 . S
C1690 C1691 1.358 . S
C1690 C1692 1.356 . S
C1690 H1744 0.930 . S
C1691 N1689 1.279 . S
C1691 C1690 1.358 . S
C1691 H1695 0.930 . S
C1692 C1690 1.356 . S
C1692 C1693 1.348 . S
C1693 C1688 1.353 . S
C1693 C1692 1.348 . S
C1693 H1745 0.929 . S
H1694 C1688 0.930 . S
H1695 C1691 0.930 . S
C1696 N1697 1.314 . S
C1696 C1698 1.353 . S
C1696 H1702 0.930 . S
N1697 Li1673 1.990 . S
N1697 C1696 1.314 . S
N1697 C1700 1.279 . S
C1698 C1696 1.353 . S
C1698 C1701 1.348 . S
C1698 H1746 0.929 . S
C1699 C1700 1.358 . S
C1699 C1701 1.356 . S
C1699 H1747 0.930 . S
C1700 N1697 1.279 . S
C1700 C1699 1.358 . S
C1700 H1703 0.930 . S
C1701 C1698 1.348 . S
C1701 C1699 1.356 . S
H1702 C1696 0.930 . S
H1703 C1700 0.930 . S
C1704 C1706 1.348 . S
C1704 C1707 1.356 . S
C1704 O1734 1.325 . S
N1705 C1708 1.314 . S
N1705 C1709 1.279 . S
C1706 C1704 1.348 . S
C1706 C1708 1.353 . S
C1706 H1748 0.929 . S
C1707 C1704 1.356 . S
C1707 C1709 1.358 . S
C1707 H1749 0.930 . S
C1708 N1705 1.314 . S
C1708 C1706 1.353 . S
C1708 H1750 0.930 . S
C1709 N1705 1.279 . S
C1709 C1707 1.358 . S
C1709 H1751 0.930 . S
C1710 C1711 1.348 . S
C1710 C1712 1.356 . S
C1710 O1735 1.325 . S
C1711 C1710 1.348 . S
C1711 C1713 1.353 . S
C1711 H1752 0.929 . S
C1712 C1710 1.356 . S
C1712 C1714 1.358 . S
C1712 H1753 0.930 . S
C1713 C1711 1.353 . S
C1713 N1715 1.314 . S
C1713 H1754 0.930 . S
C1714 C1712 1.358 . S
C1714 N1715 1.279 . S
C1714 H1755 0.930 . S
N1715 C1713 1.314 . S
N1715 C1714 1.279 . S
C1716 C1718 1.353 . S
C1716 N1719 1.314 . S
C1716 H1722 0.930 . S
C1717 N1719 1.279 . S
C1717 C1720 1.358 . S
C1717 H1723 0.930 . S
C1718 C1716 1.353 . S
C1718 C1721 1.348 . S
C1718 H1756 0.929 . S
N1719 Li1674 1.990 . S
N1719 C1716 1.314 . S
N1719 C1717 1.279 . S
C1720 C1717 1.358 . S
C1720 C1721 1.356 . S
C1720 H1757 0.930 . S
C1721 C1718 1.348 . S
C1721 C1720 1.356 . S
H1722 C1716 0.930 . S
H1723 C1717 0.930 . S
C1724 N1725 1.314 . S
C1724 C1726 1.353 . S
C1724 H1730 0.930 . S
N1725 Li1675 1.990 . S
N1725 C1724 1.314 . S
N1725 C1728 1.279 . S
C1726 C1724 1.353 . S
C1726 C1729 1.348 . S
C1726 H1758 0.929 . S
C1727 C1728 1.358 . S
C1727 C1729 1.356 . S
C1727 H1759 0.930 . S
C1728 N1725 1.279 . S
C1728 C1727 1.358 . S
C1728 H1731 0.930 . S
C1729 C1726 1.348 . S
C1729 C1727 1.356 . S
H1730 C1724 0.930 . S
H1731 C1728 0.930 . S
O1732 Li1672 1.956 . S
O1732 Li1673 1.970 . S
O1732 Li1674 1.961 . S
O1732 C1676 1.325 . S
O1733 Li1672 1.970 . S
O1733 Li1673 1.956 . S
O1733 Li1675 1.961 . S
O1733 C1682 1.325 . S
O1734 Li1672 1.961 . S
O1734 Li1674 1.956 . S
O1734 Li1675 1.970 . S
O1734 C1704 1.325 . S
O1735 Li1673 1.961 . S
O1735 Li1674 1.970 . S
O1735 Li1675 1.956 . S
O1735 C1710 1.325 . S
H1736 C1678 0.929 . S
H1737 C1679 0.930 . S
H1738 C1680 0.930 . S
H1739 C1681 0.930 . S
H1740 C1683 0.930 . S
H1741 C1685 0.929 . S
H1742 C1686 0.930 . S
H1743 C1687 0.930 . S
H1744 C1690 0.930 . S
H1745 C1693 0.929 . S
H1746 C1698 0.929 . S
H1747 C1699 0.930 . S
H1748 C1706 0.929 . S
H1749 C1707 0.930 . S
H1750 C1708 0.930 . S
H1751 C1709 0.930 . S
H1752 C1711 0.929 . S
H1753 C1712 0.930 . S
H1754 C1713 0.930 . S
H1755 C1714 0.930 . S
H1756 C1718 0.929 . S
H1757 C1720 0.930 . S
H1758 C1726 0.929 . S
H1759 C1727 0.930 . S
Li1760 N1777 1.990 . S
Li1760 O1820 1.956 . S
Li1760 O1821 1.970 . S
Li1760 O1822 1.961 . S
Li1761 N1785 1.990 . S
Li1761 O1820 1.970 . S
Li1761 O1821 1.956 . S
Li1761 O1823 1.961 . S
Li1762 N1807 1.990 . S
Li1762 O1820 1.961 . S
Li1762 O1822 1.956 . S
Li1762 O1823 1.970 . S
Li1763 N1813 1.990 . S
Li1763 O1821 1.961 . S
Li1763 O1822 1.970 . S
Li1763 O1823 1.956 . S
C1764 C1766 1.348 . S
C1764 C1767 1.356 . S
C1764 O1820 1.325 . S
N1765 C1768 1.314 . S
N1765 C1769 1.279 . S
C1766 C1764 1.348 . S
C1766 C1768 1.353 . S
C1766 H1824 0.929 . S
C1767 C1764 1.356 . S
C1767 C1769 1.358 . S
C1767 H1825 0.930 . S
C1768 N1765 1.314 . S
C1768 C1766 1.353 . S
C1768 H1826 0.930 . S
C1769 N1765 1.279 . S
C1769 C1767 1.358 . S
C1769 H1827 0.930 . S
C1770 C1773 1.348 . S
C1770 C1774 1.356 . S
C1770 O1821 1.325 . S
C1771 N1772 1.279 . S
C1771 C1774 1.358 . S
C1771 H1828 0.930 . S
N1772 C1771 1.279 . S
N1772 C1775 1.314 . S
C1773 C1770 1.348 . S
C1773 C1775 1.353 . S
C1773 H1829 0.929 . S
C1774 C1770 1.356 . S
C1774 C1771 1.358 . S
C1774 H1830 0.930 . S
C1775 N1772 1.314 . S
C1775 C1773 1.353 . S
C1775 H1831 0.930 . S
C1776 N1777 1.314 . S
C1776 C1781 1.353 . S
C1776 H1782 0.930 . S
N1777 Li1760 1.990 . S
N1777 C1776 1.314 . S
N1777 C1779 1.279 . S
C1778 C1779 1.358 . S
C1778 C1780 1.356 . S
C1778 H1832 0.930 . S
C1779 N1777 1.279 . S
C1779 C1778 1.358 . S
C1779 H1783 0.930 . S
C1780 C1778 1.356 . S
C1780 C1781 1.348 . S
C1781 C1776 1.353 . S
C1781 C1780 1.348 . S
C1781 H1833 0.929 . S
H1782 C1776 0.930 . S
H1783 C1779 0.930 . S
C1784 N1785 1.314 . S
C1784 C1786 1.353 . S
C1784 H1790 0.930 . S
N1785 Li1761 1.990 . S
N1785 C1784 1.314 . S
N1785 C1788 1.279 . S
C1786 C1784 1.353 . S
C1786 C1789 1.348 . S
C1786 H1834 0.929 . S
C1787 C1788 1.358 . S
C1787 C1789 1.356 . S
C1787 H1835 0.930 . S
C1788 N1785 1.279 . S
C1788 C1787 1.358 . S
C1788 H1791 0.930 . S
C1789 C1786 1.348 . S
C1789 C1787 1.356 . S
H1790 C1784 0.930 . S
H1791 C1788 0.930 . S
C1792 C1794 1.348 . S
C1792 C1795 1.356 . S
C1792 O1822 1.325 . S
N1793 C1796 1.314 . S
N1793 C1797 1.279 . S
C1794 C1792 1.348 . S
C1794 C1796 1.353 . S
C1794 H1836 0.929 . S
C1795 C1792 1.356 . S
C1795 C1797 1.358 . S
C1795 H1837 0.930 . S
C1796 N1793 1.314 . S
C1796 C1794 1.353 . S
C1796 H1838 0.930 . S
C1797 N1793 1.279 . S
C1797 C1795 1.358 . S
C1797 H1839 0.930 . S
C1798 C1799 1.348 . S
C1798 C1800 1.356 . S
C1798 O1823 1.325 . S
C1799 C1798 1.348 . S
C1799 C1801 1.353 . S
C1799 H1840 0.929 . S
C1800 C1798 1.356 . S
C1800 C1802 1.358 . S
C1800 H1841 0.930 . S
C1801 C1799 1.353 . S
C1801 N1803 1.314 . S
C1801 H1842 0.930 . S
C1802 C1800 1.358 . S
C1802 N1803 1.279 . S
C1802 H1843 0.930 . S
N1803 C1801 1.314 . S
N1803 C1802 1.279 . S
C1804 C1806 1.353 . S
C1804 N1807 1.314 . S
C1804 H1810 0.930 . S
C1805 N1807 1.279 . S
C1805 C1808 1.358 . S
C1805 H1811 0.930 . S
C1806 C1804 1.353 . S
C1806 C1809 1.348 . S
C1806 H1844 0.929 . S
N1807 Li1762 1.990 . S
N1807 C1804 1.314 . S
N1807 C1805 1.279 . S
C1808 C1805 1.358 . S
C1808 C1809 1.356 . S
C1808 H1845 0.930 . S
C1809 C1806 1.348 . S
C1809 C1808 1.356 . S
H1810 C1804 0.930 . S
H1811 C1805 0.930 . S
C1812 N1813 1.314 . S
C1812 C1814 1.353 . S
C1812 H1818 0.930 . S
N1813 Li1763 1.990 . S
N1813 C1812 1.314 . S
N1813 C1816 1.279 . S
C1814 C1812 1.353 . S
C1814 C1817 1.348 . S
C1814 H1846 0.929 . S
C1815 C1816 1.358 . S
C1815 C1817 1.356 . S
C1815 H1847 0.930 . S
C1816 N1813 1.279 . S
C1816 C1815 1.358 . S
C1816 H1819 0.930 . S
C1817 C1814 1.348 . S
C1817 C1815 1.356 . S
H1818 C1812 0.930 . S
H1819 C1816 0.930 . S
O1820 Li1760 1.956 . S
O1820 Li1761 1.970 . S
O1820 Li1762 1.961 . S
O1820 C1764 1.325 . S
O1821 Li1760 1.970 . S
O1821 Li1761 1.956 . S
O1821 Li1763 1.961 . S
O1821 C1770 1.325 . S
O1822 Li1760 1.961 . S
O1822 Li1762 1.956 . S
O1822 Li1763 1.970 . S
O1822 C1792 1.325 . S
O1823 Li1761 1.961 . S
O1823 Li1762 1.970 . S
O1823 Li1763 1.956 . S
O1823 C1798 1.325 . S
H1824 C1766 0.929 . S
H1825 C1767 0.930 . S
H1826 C1768 0.930 . S
H1827 C1769 0.930 . S
H1828 C1771 0.930 . S
H1829 C1773 0.929 . S
H1830 C1774 0.930 . S
H1831 C1775 0.930 . S
H1832 C1778 0.930 . S
H1833 C1781 0.929 . S
H1834 C1786 0.929 . S
H1835 C1787 0.930 . S
H1836 C1794 0.929 . S
H1837 C1795 0.930 . S
H1838 C1796 0.930 . S
H1839 C1797 0.930 . S
H1840 C1799 0.929 . S
H1841 C1800 0.930 . S
H1842 C1801 0.930 . S
H1843 C1802 0.930 . S
H1844 C1806 0.929 . S
H1845 C1808 0.930 . S
H1846 C1814 0.929 . S
H1847 C1815 0.930 . S
Li1848 N1865 1.990 . S
Li1848 O1908 1.956 . S
Li1848 O1909 1.970 . S
Li1848 O1910 1.961 . S
Li1849 N1873 1.990 . S
Li1849 O1908 1.970 . S
Li1849 O1909 1.956 . S
Li1849 O1911 1.961 . S
Li1850 N1895 1.990 . S
Li1850 O1908 1.961 . S
Li1850 O1910 1.956 . S
Li1850 O1911 1.970 . S
Li1851 N1901 1.990 . S
Li1851 O1909 1.961 . S
Li1851 O1910 1.970 . S
Li1851 O1911 1.956 . S
C1852 C1854 1.348 . S
C1852 C1855 1.356 1_554 S
C1852 O1908 1.325 . S
N1853 C1856 1.314 . S
N1853 C1857 1.279 . S
C1854 C1852 1.348 . S
C1854 C1856 1.353 1_554 S
C1854 H1912 0.929 . S
C1855 C1852 1.356 1_556 S
C1855 C1857 1.358 . S
C1855 H1913 0.965 . S
C1856 N1853 1.314 . S
C1856 C1854 1.353 1_556 S
C1856 H1914 0.930 . S
C1857 N1853 1.279 . S
C1857 C1855 1.358 . S
C1857 H1915 0.930 . S
C1858 C1861 1.348 . S
C1858 C1862 1.356 . S
C1858 O1909 1.325 . S
C1859 N1860 1.279 . S
C1859 C1862 1.358 . S
C1859 H1916 0.930 . S
N1860 C1859 1.279 . S
N1860 C1863 1.314 . S
C1861 C1858 1.348 . S
C1861 C1863 1.353 . S
C1861 H1917 0.929 . S
C1862 C1858 1.356 . S
C1862 C1859 1.358 . S
C1862 H1918 0.930 . S
C1863 N1860 1.314 . S
C1863 C1861 1.353 . S
C1863 H1919 0.930 . S
C1864 N1865 1.314 . S
C1864 C1869 1.353 . S
C1864 H1870 0.930 . S
N1865 Li1848 1.990 . S
N1865 C1864 1.314 . S
N1865 C1867 1.279 . S
C1866 C1867 1.358 . S
C1866 C1868 1.356 . S
C1866 H1920 0.930 1_554 S
C1867 N1865 1.279 . S
C1867 C1866 1.358 . S
C1867 H1871 0.930 . S
C1868 C1866 1.356 . S
C1868 C1869 1.348 . S
C1869 C1864 1.353 . S
C1869 C1868 1.348 . S
C1869 H1921 0.929 . S
H1870 C1864 0.930 . S
H1871 C1867 0.930 . S
C1872 N1873 1.314 . S
C1872 C1874 1.353 . S
C1872 H1878 0.930 . S
N1873 Li1849 1.990 . S
N1873 C1872 1.314 . S
N1873 C1876 1.279 . S
C1874 C1872 1.353 . S
C1874 C1877 1.348 . S
C1874 H1922 0.929 . S
C1875 C1876 1.358 . S
C1875 C1877 1.356 . S
C1875 H1923 0.930 . S
C1876 N1873 1.279 . S
C1876 C1875 1.358 . S
C1876 H1879 0.930 . S
C1877 C1874 1.348 . S
C1877 C1875 1.356 . S
H1878 C1872 0.930 . S
H1879 C1876 0.930 . S
C1880 C1882 1.348 . S
C1880 C1883 1.356 . S
C1880 O1910 1.325 . S
N1881 C1884 1.314 . S
N1881 C1885 1.279 . S
C1882 C1880 1.348 . S
C1882 C1884 1.353 . S
C1882 H1924 0.929 . S
C1883 C1880 1.356 . S
C1883 C1885 1.358 . S
C1883 H1925 0.930 . S
C1884 N1881 1.314 . S
C1884 C1882 1.353 . S
C1884 H1926 0.930 . S
C1885 N1881 1.279 . S
C1885 C1883 1.358 . S
C1885 H1927 0.930 . S
C1886 C1887 1.348 . S
C1886 C1888 1.356 . S
C1886 O1911 1.325 . S
C1887 C1886 1.348 . S
C1887 C1889 1.353 . S
C1887 H1928 0.929 . S
C1888 C1886 1.356 . S
C1888 C1890 1.358 . S
C1888 H1929 0.930 . S
C1889 C1887 1.353 . S
C1889 N1891 1.314 . S
C1889 H1930 0.930 . S
C1890 C1888 1.358 . S
C1890 N1891 1.279 . S
C1890 H1931 0.930 . S
N1891 C1889 1.314 . S
N1891 C1890 1.279 . S
C1892 C1894 1.369 . S
C1892 N1895 1.314 . S
C1892 H1898 0.930 . S
C1893 N1895 1.279 . S
C1893 C1896 1.358 . S
C1893 H1899 0.930 . S
C1894 C1892 1.369 . S
C1894 C1897 1.352 . S
C1894 H1932 0.910 1_554 S
N1895 Li1850 1.990 . S
N1895 C1892 1.314 . S
N1895 C1893 1.279 . S
C1896 C1893 1.358 . S
C1896 C1897 1.356 . S
C1896 H1933 0.930 . S
C1897 C1894 1.352 . S
C1897 C1896 1.356 . S
H1898 C1892 0.930 . S
H1899 C1893 0.930 . S
C1900 N1901 1.314 . S
C1900 C1902 1.353 . S
C1900 H1906 0.930 . S
N1901 Li1851 1.990 . S
N1901 C1900 1.314 . S
N1901 C1904 1.279 . S
C1902 C1900 1.353 . S
C1902 C1905 1.348 . S
C1902 H1934 0.929 . S
C1903 C1904 1.358 . S
C1903 C1905 1.356 . S
C1903 H1935 0.930 . S
C1904 N1901 1.279 . S
C1904 C1903 1.358 . S
C1904 H1907 0.930 . S
C1905 C1902 1.348 . S
C1905 C1903 1.356 . S
H1906 C1900 0.930 . S
H1907 C1904 0.930 . S
O1908 Li1848 1.956 . S
O1908 Li1849 1.970 . S
O1908 Li1850 1.961 . S
O1908 C1852 1.325 . S
O1909 Li1848 1.970 . S
O1909 Li1849 1.956 . S
O1909 Li1851 1.961 . S
O1909 C1858 1.325 . S
O1910 Li1848 1.961 . S
O1910 Li1850 1.956 . S
O1910 Li1851 1.970 . S
O1910 C1880 1.325 . S
O1911 Li1849 1.961 . S
O1911 Li1850 1.970 . S
O1911 Li1851 1.956 . S
O1911 C1886 1.325 . S
H1912 C1854 0.929 . S
H1913 C1855 0.965 . S
H1914 C1856 0.930 . S
H1915 C1857 0.930 . S
H1916 C1859 0.930 . S
H1917 C1861 0.929 . S
H1918 C1862 0.930 . S
H1919 C1863 0.930 . S
H1920 C1866 0.930 1_556 S
H1921 C1869 0.929 . S
H1922 C1874 0.929 . S
H1923 C1875 0.930 . S
H1924 C1882 0.929 . S
H1925 C1883 0.930 . S
H1926 C1884 0.930 . S
H1927 C1885 0.930 . S
H1928 C1887 0.929 . S
H1929 C1888 0.930 . S
H1930 C1889 0.930 . S
H1931 C1890 0.930 . S
H1932 C1894 0.910 1_556 S
H1933 C1896 0.930 . S
H1934 C1902 0.929 . S
H1935 C1903 0.930 . S
Li1936 N1953 1.990 . S
Li1936 O1996 1.956 . S
Li1936 O1997 1.970 . S
Li1936 O1998 1.961 . S
Li1937 N1961 1.990 . S
Li1937 O1996 1.970 . S
Li1937 O1997 1.956 . S
Li1937 O1999 1.961 . S
Li1938 N1983 1.990 . S
Li1938 O1996 1.961 . S
Li1938 O1998 1.956 . S
Li1938 O1999 1.970 . S
Li1939 N1989 1.990 . S
Li1939 O1997 1.961 . S
Li1939 O1998 1.970 . S
Li1939 O1999 1.956 . S
C1940 C1942 1.348 . S
C1940 C1943 1.356 . S
C1940 O1996 1.325 . S
N1941 C1944 1.314 . S
N1941 C1945 1.279 . S
C1942 C1940 1.348 . S
C1942 C1944 1.353 . S
C1942 H2000 0.929 . S
C1943 C1940 1.356 . S
C1943 C1945 1.358 . S
C1943 H2001 0.930 . S
C1944 N1941 1.314 . S
C1944 C1942 1.353 . S
C1944 H2002 0.930 . S
C1945 N1941 1.279 . S
C1945 C1943 1.358 . S
C1945 H2003 0.930 . S
C1946 C1949 1.348 . S
C1946 C1950 1.356 1_554 S
C1946 O1997 1.325 . S
C1947 N1948 1.279 . S
C1947 C1950 1.358 . S
C1947 H2004 0.930 . S
N1948 C1947 1.279 . S
N1948 C1951 1.314 . S
C1949 C1946 1.348 . S
C1949 C1951 1.353 1_554 S
C1949 H2005 0.929 . S
C1950 C1946 1.356 1_556 S
C1950 C1947 1.358 . S
C1950 H2006 0.964 . S
C1951 N1948 1.314 . S
C1951 C1949 1.353 1_556 S
C1951 H2007 0.930 . S
C1952 N1953 1.314 . S
C1952 C1957 1.353 . S
C1952 H1958 0.930 . S
N1953 Li1936 1.990 . S
N1953 C1952 1.314 . S
N1953 C1955 1.279 . S
C1954 C1955 1.358 . S
C1954 C1956 1.356 . S
C1954 H2008 0.930 . S
C1955 N1953 1.279 . S
C1955 C1954 1.358 . S
C1955 H1959 0.930 . S
C1956 C1954 1.356 . S
C1956 C1957 1.348 . S
C1957 C1952 1.353 . S
C1957 C1956 1.348 . S
C1957 H2009 0.929 . S
H1958 C1952 0.930 . S
H1959 C1955 0.930 . S
C1960 N1961 1.314 . S
C1960 C1962 1.353 . S
C1960 H1966 0.930 . S
N1961 Li1937 1.990 . S
N1961 C1960 1.314 . S
N1961 C1964 1.279 . S
C1962 C1960 1.353 . S
C1962 C1965 1.348 . S
C1962 H2010 0.929 . S
C1963 C1964 1.358 . S
C1963 C1965 1.356 . S
C1963 H2011 0.930 1_554 S
C1964 N1961 1.279 . S
C1964 C1963 1.358 . S
C1964 H1967 0.930 . S
C1965 C1962 1.348 . S
C1965 C1963 1.356 . S
H1966 C1960 0.930 . S
H1967 C1964 0.930 . S
C1968 C1970 1.348 . S
C1968 C1971 1.356 . S
C1968 O1998 1.325 . S
N1969 C1972 1.314 . S
N1969 C1973 1.279 . S
C1970 C1968 1.348 . S
C1970 C1972 1.353 . S
C1970 H2012 0.929 . S
C1971 C1968 1.356 . S
C1971 C1973 1.358 . S
C1971 H2013 0.930 . S
C1972 N1969 1.314 . S
C1972 C1970 1.353 . S
C1972 H2014 0.930 . S
C1973 N1969 1.279 . S
C1973 C1971 1.358 . S
C1973 H2015 0.930 . S
C1974 C1975 1.348 . S
C1974 C1976 1.356 . S
C1974 O1999 1.325 . S
C1975 C1974 1.348 . S
C1975 C1977 1.353 . S
C1975 H2016 0.929 . S
C1976 C1974 1.356 . S
C1976 C1978 1.358 . S
C1976 H2017 0.930 . S
C1977 C1975 1.353 . S
C1977 N1979 1.314 . S
C1977 H2018 0.930 . S
C1978 C1976 1.358 . S
C1978 N1979 1.279 . S
C1978 H2019 0.930 . S
N1979 C1977 1.314 . S
N1979 C1978 1.279 . S
C1980 C1982 1.353 . S
C1980 N1983 1.314 . S
C1980 H1986 0.930 . S
C1981 N1983 1.279 . S
C1981 C1984 1.358 . S
C1981 H1987 0.930 . S
C1982 C1980 1.353 . S
C1982 C1985 1.348 . S
C1982 H2020 0.929 . S
N1983 Li1938 1.990 . S
N1983 C1980 1.314 . S
N1983 C1981 1.279 . S
C1984 C1981 1.358 . S
C1984 C1985 1.356 . S
C1984 H2021 0.930 . S
C1985 C1982 1.348 . S
C1985 C1984 1.356 . S
H1986 C1980 0.930 . S
H1987 C1981 0.930 . S
C1988 N1989 1.314 . S
C1988 C1990 1.370 . S
C1988 H1994 0.930 . S
N1989 Li1939 1.990 . S
N1989 C1988 1.314 . S
N1989 C1992 1.279 . S
C1990 C1988 1.370 . S
C1990 C1993 1.352 . S
C1990 H2022 0.909 1_554 S
C1991 C1992 1.358 . S
C1991 C1993 1.356 . S
C1991 H2023 0.930 . S
C1992 N1989 1.279 . S
C1992 C1991 1.358 . S
C1992 H1995 0.930 . S
C1993 C1990 1.352 . S
C1993 C1991 1.356 . S
H1994 C1988 0.930 . S
H1995 C1992 0.930 . S
O1996 Li1936 1.956 . S
O1996 Li1937 1.970 . S
O1996 Li1938 1.961 . S
O1996 C1940 1.325 . S
O1997 Li1936 1.970 . S
O1997 Li1937 1.956 . S
O1997 Li1939 1.961 . S
O1997 C1946 1.325 . S
O1998 Li1936 1.961 . S
O1998 Li1938 1.956 . S
O1998 Li1939 1.970 . S
O1998 C1968 1.325 . S
O1999 Li1937 1.961 . S
O1999 Li1938 1.970 . S
O1999 Li1939 1.956 . S
O1999 C1974 1.325 . S
H2000 C1942 0.929 . S
H2001 C1943 0.930 . S
H2002 C1944 0.930 . S
H2003 C1945 0.930 . S
H2004 C1947 0.930 . S
H2005 C1949 0.929 . S
H2006 C1950 0.964 . S
H2007 C1951 0.930 . S
H2008 C1954 0.930 . S
H2009 C1957 0.929 . S
H2010 C1962 0.929 . S
H2011 C1963 0.930 1_556 S
H2012 C1970 0.929 . S
H2013 C1971 0.930 . S
H2014 C1972 0.930 . S
H2015 C1973 0.930 . S
H2016 C1975 0.929 . S
H2017 C1976 0.930 . S
H2018 C1977 0.930 . S
H2019 C1978 0.930 . S
H2020 C1982 0.929 . S
H2021 C1984 0.930 . S
H2022 C1990 0.909 1_556 S
H2023 C1991 0.930 . S
Li2024 N2041 1.990 . S
Li2024 O2084 1.956 . S
Li2024 O2085 1.970 . S
Li2024 O2086 1.961 . S
Li2025 N2049 1.990 . S
Li2025 O2084 1.970 . S
Li2025 O2085 1.956 . S
Li2025 O2087 1.961 . S
Li2026 N2071 1.990 . S
Li2026 O2084 1.961 . S
Li2026 O2086 1.956 . S
Li2026 O2087 1.970 . S
Li2027 N2077 1.990 . S
Li2027 O2085 1.961 . S
Li2027 O2086 1.970 . S
Li2027 O2087 1.956 . S
C2028 C2030 1.348 . S
C2028 C2031 1.356 . S
C2028 O2084 1.325 . S
N2029 C2032 1.314 . S
N2029 C2033 1.279 . S
C2030 C2028 1.348 . S
C2030 C2032 1.353 . S
C2030 H2088 0.929 . S
C2031 C2028 1.356 . S
C2031 C2033 1.358 . S
C2031 H2089 0.930 . S
C2032 N2029 1.314 . S
C2032 C2030 1.353 . S
C2032 H2090 0.930 . S
C2033 N2029 1.279 . S
C2033 C2031 1.358 . S
C2033 H2091 0.930 . S
C2034 C2037 1.348 . S
C2034 C2038 1.356 . S
C2034 O2085 1.325 . S
C2035 N2036 1.279 . S
C2035 C2038 1.358 . S
C2035 H2092 0.930 . S
N2036 C2035 1.279 . S
N2036 C2039 1.314 . S
C2037 C2034 1.348 . S
C2037 C2039 1.353 . S
C2037 H2093 0.929 . S
C2038 C2034 1.356 . S
C2038 C2035 1.358 . S
C2038 H2094 0.930 . S
C2039 N2036 1.314 . S
C2039 C2037 1.353 . S
C2039 H2095 0.930 . S
C2040 N2041 1.314 . S
C2040 C2045 1.370 . S
C2040 H2046 0.930 . S
N2041 Li2024 1.990 . S
N2041 C2040 1.314 . S
N2041 C2043 1.279 . S
C2042 C2043 1.358 . S
C2042 C2044 1.356 . S
C2042 H2096 0.930 . S
C2043 N2041 1.279 . S
C2043 C2042 1.358 . S
C2043 H2047 0.930 . S
C2044 C2042 1.356 . S
C2044 C2045 1.352 . S
C2045 C2040 1.370 . S
C2045 C2044 1.352 . S
C2045 H2097 0.909 1_554 S
H2046 C2040 0.930 . S
H2047 C2043 0.930 . S
C2048 N2049 1.314 . S
C2048 C2050 1.353 . S
C2048 H2054 0.930 . S
N2049 Li2025 1.990 . S
N2049 C2048 1.314 . S
N2049 C2052 1.279 . S
C2050 C2048 1.353 . S
C2050 C2053 1.348 . S
C2050 H2098 0.929 . S
C2051 C2052 1.358 . S
C2051 C2053 1.356 . S
C2051 H2099 0.930 . S
C2052 N2049 1.279 . S
C2052 C2051 1.358 . S
C2052 H2055 0.930 . S
C2053 C2050 1.348 . S
C2053 C2051 1.356 . S
H2054 C2048 0.930 . S
H2055 C2052 0.930 . S
C2056 C2058 1.348 . S
C2056 C2059 1.356 1_554 S
C2056 O2086 1.325 . S
N2057 C2060 1.314 . S
N2057 C2061 1.279 . S
C2058 C2056 1.348 . S
C2058 C2060 1.353 1_554 S
C2058 H2100 0.929 . S
C2059 C2056 1.356 1_556 S
C2059 C2061 1.358 . S
C2059 H2101 0.964 . S
C2060 N2057 1.314 . S
C2060 C2058 1.353 1_556 S
C2060 H2102 0.930 . S
C2061 N2057 1.279 . S
C2061 C2059 1.358 . S
C2061 H2103 0.930 . S
C2062 C2063 1.348 . S
C2062 C2064 1.356 . S
C2062 O2087 1.325 . S
C2063 C2062 1.348 . S
C2063 C2065 1.353 . S
C2063 H2104 0.929 . S
C2064 C2062 1.356 . S
C2064 C2066 1.358 . S
C2064 H2105 0.930 . S
C2065 C2063 1.353 . S
C2065 N2067 1.314 . S
C2065 H2106 0.930 . S
C2066 C2064 1.358 . S
C2066 N2067 1.279 . S
C2066 H2107 0.930 . S
N2067 C2065 1.314 . S
N2067 C2066 1.279 . S
C2068 C2070 1.353 . S
C2068 N2071 1.314 . S
C2068 H2074 0.930 . S
C2069 N2071 1.279 . S
C2069 C2072 1.358 . S
C2069 H2075 0.930 . S
C2070 C2068 1.353 . S
C2070 C2073 1.348 . S
C2070 H2108 0.929 . S
N2071 Li2026 1.990 . S
N2071 C2068 1.314 . S
N2071 C2069 1.279 . S
C2072 C2069 1.358 . S
C2072 C2073 1.356 . S
C2072 H2109 0.930 1_554 S
C2073 C2070 1.348 . S
C2073 C2072 1.356 . S
H2074 C2068 0.930 . S
H2075 C2069 0.930 . S
C2076 N2077 1.314 . S
C2076 C2078 1.353 . S
C2076 H2082 0.930 . S
N2077 Li2027 1.990 . S
N2077 C2076 1.314 . S
N2077 C2080 1.279 . S
C2078 C2076 1.353 . S
C2078 C2081 1.348 . S
C2078 H2110 0.929 . S
C2079 C2080 1.358 . S
C2079 C2081 1.356 . S
C2079 H2111 0.930 . S
C2080 N2077 1.279 . S
C2080 C2079 1.358 . S
C2080 H2083 0.930 . S
C2081 C2078 1.348 . S
C2081 C2079 1.356 . S
H2082 C2076 0.930 . S
H2083 C2080 0.930 . S
O2084 Li2024 1.956 . S
O2084 Li2025 1.970 . S
O2084 Li2026 1.961 . S
O2084 C2028 1.325 . S
O2085 Li2024 1.970 . S
O2085 Li2025 1.956 . S
O2085 Li2027 1.961 . S
O2085 C2034 1.325 . S
O2086 Li2024 1.961 . S
O2086 Li2026 1.956 . S
O2086 Li2027 1.970 . S
O2086 C2056 1.325 . S
O2087 Li2025 1.961 . S
O2087 Li2026 1.970 . S
O2087 Li2027 1.956 . S
O2087 C2062 1.325 . S
H2088 C2030 0.929 . S
H2089 C2031 0.930 . S
H2090 C2032 0.930 . S
H2091 C2033 0.930 . S
H2092 C2035 0.930 . S
H2093 C2037 0.929 . S
H2094 C2038 0.930 . S
H2095 C2039 0.930 . S
H2096 C2042 0.930 . S
H2097 C2045 0.909 1_556 S
H2098 C2050 0.929 . S
H2099 C2051 0.930 . S
H2100 C2058 0.929 . S
H2101 C2059 0.964 . S
H2102 C2060 0.930 . S
H2103 C2061 0.930 . S
H2104 C2063 0.929 . S
H2105 C2064 0.930 . S
H2106 C2065 0.930 . S
H2107 C2066 0.930 . S
H2108 C2070 0.929 . S
H2109 C2072 0.930 1_556 S
H2110 C2078 0.929 . S
H2111 C2079 0.930 . S
Li2112 N2129 1.990 . S
Li2112 O2172 1.956 . S
Li2112 O2173 1.970 . S
Li2112 O2174 1.961 . S
Li2113 N2137 1.990 . S
Li2113 O2172 1.970 . S
Li2113 O2173 1.956 . S
Li2113 O2175 1.961 . S
Li2114 N2159 1.990 . S
Li2114 O2172 1.961 . S
Li2114 O2174 1.956 . S
Li2114 O2175 1.970 . S
Li2115 N2165 1.990 . S
Li2115 O2173 1.961 . S
Li2115 O2174 1.970 . S
Li2115 O2175 1.956 . S
C2116 C2118 1.348 . S
C2116 C2119 1.356 . S
C2116 O2172 1.325 . S
N2117 C2120 1.314 . S
N2117 C2121 1.279 . S
C2118 C2116 1.348 . S
C2118 C2120 1.353 . S
C2118 H2176 0.929 . S
C2119 C2116 1.356 . S
C2119 C2121 1.358 . S
C2119 H2177 0.930 . S
C2120 N2117 1.314 . S
C2120 C2118 1.353 . S
C2120 H2178 0.930 . S
C2121 N2117 1.279 . S
C2121 C2119 1.358 . S
C2121 H2179 0.930 . S
C2122 C2125 1.348 . S
C2122 C2126 1.356 . S
C2122 O2173 1.325 . S
C2123 N2124 1.279 . S
C2123 C2126 1.358 . S
C2123 H2180 0.930 . S
N2124 C2123 1.279 . S
N2124 C2127 1.314 . S
C2125 C2122 1.348 . S
C2125 C2127 1.353 . S
C2125 H2181 0.929 . S
C2126 C2122 1.356 . S
C2126 C2123 1.358 . S
C2126 H2182 0.930 . S
C2127 N2124 1.314 . S
C2127 C2125 1.353 . S
C2127 H2183 0.930 . S
C2128 N2129 1.314 . S
C2128 C2133 1.353 . S
C2128 H2134 0.930 . S
N2129 Li2112 1.990 . S
N2129 C2128 1.314 . S
N2129 C2131 1.279 . S
C2130 C2131 1.358 . S
C2130 C2132 1.356 . S
C2130 H2184 0.930 . S
C2131 N2129 1.279 . S
C2131 C2130 1.358 . S
C2131 H2135 0.930 . S
C2132 C2130 1.356 . S
C2132 C2133 1.348 . S
C2133 C2128 1.353 . S
C2133 C2132 1.348 . S
C2133 H2185 0.929 . S
H2134 C2128 0.930 . S
H2135 C2131 0.930 . S
C2136 N2137 1.314 . S
C2136 C2138 1.353 . S
C2136 H2142 0.930 . S
N2137 Li2113 1.990 . S
N2137 C2136 1.314 . S
N2137 C2140 1.279 . S
C2138 C2136 1.353 . S
C2138 C2141 1.348 . S
C2138 H2186 0.929 . S
C2139 C2140 1.358 . S
C2139 C2141 1.356 . S
C2139 H2187 0.930 . S
C2140 N2137 1.279 . S
C2140 C2139 1.358 . S
C2140 H2143 0.930 . S
C2141 C2138 1.348 . S
C2141 C2139 1.356 . S
H2142 C2136 0.930 . S
H2143 C2140 0.930 . S
C2144 C2146 1.348 . S
C2144 C2147 1.356 . S
C2144 O2174 1.325 . S
N2145 C2148 1.314 . S
N2145 C2149 1.279 . S
C2146 C2144 1.348 . S
C2146 C2148 1.353 . S
C2146 H2188 0.929 . S
C2147 C2144 1.356 . S
C2147 C2149 1.358 . S
C2147 H2189 0.930 . S
C2148 N2145 1.314 . S
C2148 C2146 1.353 . S
C2148 H2190 0.930 . S
C2149 N2145 1.279 . S
C2149 C2147 1.358 . S
C2149 H2191 0.930 . S
C2150 C2151 1.348 . S
C2150 C2152 1.356 . S
C2150 O2175 1.325 . S
C2151 C2150 1.348 . S
C2151 C2153 1.353 . S
C2151 H2192 0.929 . S
C2152 C2150 1.356 . S
C2152 C2154 1.358 . S
C2152 H2193 0.930 . S
C2153 C2151 1.353 . S
C2153 N2155 1.314 . S
C2153 H2194 0.930 . S
C2154 C2152 1.358 . S
C2154 N2155 1.279 . S
C2154 H2195 0.930 . S
N2155 C2153 1.314 . S
N2155 C2154 1.279 . S
C2156 C2158 1.353 . S
C2156 N2159 1.314 . S
C2156 H2162 0.930 . S
C2157 N2159 1.279 . S
C2157 C2160 1.358 . S
C2157 H2163 0.930 . S
C2158 C2156 1.353 . S
C2158 C2161 1.348 . S
C2158 H2196 0.929 . S
N2159 Li2114 1.990 . S
N2159 C2156 1.314 . S
N2159 C2157 1.279 . S
C2160 C2157 1.358 . S
C2160 C2161 1.356 . S
C2160 H2197 0.930 . S
C2161 C2158 1.348 . S
C2161 C2160 1.356 . S
H2162 C2156 0.930 . S
H2163 C2157 0.930 . S
C2164 N2165 1.314 . S
C2164 C2166 1.353 . S
C2164 H2170 0.930 . S
N2165 Li2115 1.990 . S
N2165 C2164 1.314 . S
N2165 C2168 1.279 . S
C2166 C2164 1.353 . S
C2166 C2169 1.348 . S
C2166 H2198 0.929 . S
C2167 C2168 1.358 . S
C2167 C2169 1.356 . S
C2167 H2199 0.930 . S
C2168 N2165 1.279 . S
C2168 C2167 1.358 . S
C2168 H2171 0.930 . S
C2169 C2166 1.348 . S
C2169 C2167 1.356 . S
H2170 C2164 0.930 . S
H2171 C2168 0.930 . S
O2172 Li2112 1.956 . S
O2172 Li2113 1.970 . S
O2172 Li2114 1.961 . S
O2172 C2116 1.325 . S
O2173 Li2112 1.970 . S
O2173 Li2113 1.956 . S
O2173 Li2115 1.961 . S
O2173 C2122 1.325 . S
O2174 Li2112 1.961 . S
O2174 Li2114 1.956 . S
O2174 Li2115 1.970 . S
O2174 C2144 1.325 . S
O2175 Li2113 1.961 . S
O2175 Li2114 1.970 . S
O2175 Li2115 1.956 . S
O2175 C2150 1.325 . S
H2176 C2118 0.929 . S
H2177 C2119 0.930 . S
H2178 C2120 0.930 . S
H2179 C2121 0.930 . S
H2180 C2123 0.930 . S
H2181 C2125 0.929 . S
H2182 C2126 0.930 . S
H2183 C2127 0.930 . S
H2184 C2130 0.930 . S
H2185 C2133 0.929 . S
H2186 C2138 0.929 . S
H2187 C2139 0.930 . S
H2188 C2146 0.929 . S
H2189 C2147 0.930 . S
H2190 C2148 0.930 . S
H2191 C2149 0.930 . S
H2192 C2151 0.929 . S
H2193 C2152 0.930 . S
H2194 C2153 0.930 . S
H2195 C2154 0.930 . S
H2196 C2158 0.929 . S
H2197 C2160 0.930 . S
H2198 C2166 0.929 . S
H2199 C2167 0.930 . S
Li2200 N2217 1.990 . S
Li2200 O2260 1.956 . S
Li2200 O2261 1.970 . S
Li2200 O2262 1.961 . S
Li2201 N2225 1.990 . S
Li2201 O2260 1.970 . S
Li2201 O2261 1.956 . S
Li2201 O2263 1.961 . S
Li2202 N2247 1.990 . S
Li2202 O2260 1.961 . S
Li2202 O2262 1.956 . S
Li2202 O2263 1.970 . S
Li2203 N2253 1.990 . S
Li2203 O2261 1.961 . S
Li2203 O2262 1.970 . S
Li2203 O2263 1.956 . S
C2204 C2206 1.348 . S
C2204 C2207 1.356 . S
C2204 O2260 1.325 . S
N2205 C2208 1.314 . S
N2205 C2209 1.279 . S
C2206 C2204 1.348 . S
C2206 C2208 1.353 . S
C2206 H2264 0.929 . S
C2207 C2204 1.356 . S
C2207 C2209 1.358 . S
C2207 H2265 0.930 . S
C2208 N2205 1.314 . S
C2208 C2206 1.353 . S
C2208 H2266 0.930 . S
C2209 N2205 1.279 . S
C2209 C2207 1.358 . S
C2209 H2267 0.930 . S
C2210 C2213 1.348 . S
C2210 C2214 1.356 . S
C2210 O2261 1.325 . S
C2211 N2212 1.279 . S
C2211 C2214 1.358 . S
C2211 H2268 0.930 . S
N2212 C2211 1.279 . S
N2212 C2215 1.314 . S
C2213 C2210 1.348 . S
C2213 C2215 1.353 . S
C2213 H2269 0.929 . S
C2214 C2210 1.356 . S
C2214 C2211 1.358 . S
C2214 H2270 0.930 . S
C2215 N2212 1.314 . S
C2215 C2213 1.353 . S
C2215 H2271 0.930 . S
C2216 N2217 1.314 . S
C2216 C2221 1.353 . S
C2216 H2222 0.930 . S
N2217 Li2200 1.990 . S
N2217 C2216 1.314 . S
N2217 C2219 1.279 . S
C2218 C2219 1.358 . S
C2218 C2220 1.356 . S
C2218 H2272 0.930 . S
C2219 N2217 1.279 . S
C2219 C2218 1.358 . S
C2219 H2223 0.930 . S
C2220 C2218 1.356 . S
C2220 C2221 1.348 . S
C2221 C2216 1.353 . S
C2221 C2220 1.348 . S
C2221 H2273 0.929 . S
H2222 C2216 0.930 . S
H2223 C2219 0.930 . S
C2224 N2225 1.314 . S
C2224 C2226 1.353 . S
C2224 H2230 0.930 . S
N2225 Li2201 1.990 . S
N2225 C2224 1.314 . S
N2225 C2228 1.279 . S
C2226 C2224 1.353 . S
C2226 C2229 1.348 . S
C2226 H2274 0.929 . S
C2227 C2228 1.358 . S
C2227 C2229 1.356 . S
C2227 H2275 0.930 . S
C2228 N2225 1.279 . S
C2228 C2227 1.358 . S
C2228 H2231 0.930 . S
C2229 C2226 1.348 . S
C2229 C2227 1.356 . S
H2230 C2224 0.930 . S
H2231 C2228 0.930 . S
C2232 C2234 1.348 . S
C2232 C2235 1.356 . S
C2232 O2262 1.325 . S
N2233 C2236 1.314 . S
N2233 C2237 1.279 . S
C2234 C2232 1.348 . S
C2234 C2236 1.353 . S
C2234 H2276 0.929 . S
C2235 C2232 1.356 . S
C2235 C2237 1.358 . S
C2235 H2277 0.930 . S
C2236 N2233 1.314 . S
C2236 C2234 1.353 . S
C2236 H2278 0.930 . S
C2237 N2233 1.279 . S
C2237 C2235 1.358 . S
C2237 H2279 0.930 . S
C2238 C2239 1.348 . S
C2238 C2240 1.356 . S
C2238 O2263 1.325 . S
C2239 C2238 1.348 . S
C2239 C2241 1.353 . S
C2239 H2280 0.929 . S
C2240 C2238 1.356 . S
C2240 C2242 1.358 . S
C2240 H2281 0.930 . S
C2241 C2239 1.353 . S
C2241 N2243 1.314 . S
C2241 H2282 0.930 . S
C2242 C2240 1.358 . S
C2242 N2243 1.279 . S
C2242 H2283 0.930 . S
N2243 C2241 1.314 . S
N2243 C2242 1.279 . S
C2244 C2246 1.353 . S
C2244 N2247 1.314 . S
C2244 H2250 0.930 . S
C2245 N2247 1.279 . S
C2245 C2248 1.358 . S
C2245 H2251 0.930 . S
C2246 C2244 1.353 . S
C2246 C2249 1.348 . S
C2246 H2284 0.929 . S
N2247 Li2202 1.990 . S
N2247 C2244 1.314 . S
N2247 C2245 1.279 . S
C2248 C2245 1.358 . S
C2248 C2249 1.356 . S
C2248 H2285 0.930 . S
C2249 C2246 1.348 . S
C2249 C2248 1.356 . S
H2250 C2244 0.930 . S
H2251 C2245 0.930 . S
C2252 N2253 1.314 . S
C2252 C2254 1.353 . S
C2252 H2258 0.930 . S
N2253 Li2203 1.990 . S
N2253 C2252 1.314 . S
N2253 C2256 1.279 . S
C2254 C2252 1.353 . S
C2254 C2257 1.348 . S
C2254 H2286 0.929 . S
C2255 C2256 1.358 . S
C2255 C2257 1.356 . S
C2255 H2287 0.930 . S
C2256 N2253 1.279 . S
C2256 C2255 1.358 . S
C2256 H2259 0.930 . S
C2257 C2254 1.348 . S
C2257 C2255 1.356 . S
H2258 C2252 0.930 . S
H2259 C2256 0.930 . S
O2260 Li2200 1.956 . S
O2260 Li2201 1.970 . S
O2260 Li2202 1.961 . S
O2260 C2204 1.325 . S
O2261 Li2200 1.970 . S
O2261 Li2201 1.956 . S
O2261 Li2203 1.961 . S
O2261 C2210 1.325 . S
O2262 Li2200 1.961 . S
O2262 Li2202 1.956 . S
O2262 Li2203 1.970 . S
O2262 C2232 1.325 . S
O2263 Li2201 1.961 . S
O2263 Li2202 1.970 . S
O2263 Li2203 1.956 . S
O2263 C2238 1.325 . S
H2264 C2206 0.929 . S
H2265 C2207 0.930 . S
H2266 C2208 0.930 . S
H2267 C2209 0.930 . S
H2268 C2211 0.930 . S
H2269 C2213 0.929 . S
H2270 C2214 0.930 . S
H2271 C2215 0.930 . S
H2272 C2218 0.930 . S
H2273 C2221 0.929 . S
H2274 C2226 0.929 . S
H2275 C2227 0.930 . S
H2276 C2234 0.929 . S
H2277 C2235 0.930 . S
H2278 C2236 0.930 . S
H2279 C2237 0.930 . S
H2280 C2239 0.929 . S
H2281 C2240 0.930 . S
H2282 C2241 0.930 . S
H2283 C2242 0.930 . S
H2284 C2246 0.929 . S
H2285 C2248 0.930 . S
H2286 C2254 0.929 . S
H2287 C2255 0.930 . S
Li2288 N2305 1.990 . S
Li2288 O2348 1.956 . S
Li2288 O2349 1.970 . S
Li2288 O2350 1.961 . S
Li2289 N2313 1.990 . S
Li2289 O2348 1.970 . S
Li2289 O2349 1.956 . S
Li2289 O2351 1.961 . S
Li2290 N2335 1.990 . S
Li2290 O2348 1.961 . S
Li2290 O2350 1.956 . S
Li2290 O2351 1.970 . S
Li2291 N2341 1.990 . S
Li2291 O2349 1.961 . S
Li2291 O2350 1.970 . S
Li2291 O2351 1.956 . S
C2292 C2294 1.348 . S
C2292 C2295 1.356 . S
C2292 O2348 1.325 . S
N2293 C2296 1.314 . S
N2293 C2297 1.279 . S
C2294 C2292 1.348 . S
C2294 C2296 1.353 . S
C2294 H2352 0.929 . S
C2295 C2292 1.356 . S
C2295 C2297 1.358 . S
C2295 H2353 0.930 . S
C2296 N2293 1.314 . S
C2296 C2294 1.353 . S
C2296 H2354 0.930 . S
C2297 N2293 1.279 . S
C2297 C2295 1.358 . S
C2297 H2355 0.930 . S
C2298 C2301 1.348 . S
C2298 C2302 1.356 . S
C2298 O2349 1.325 . S
C2299 N2300 1.279 . S
C2299 C2302 1.358 . S
C2299 H2356 0.930 . S
N2300 C2299 1.279 . S
N2300 C2303 1.314 . S
C2301 C2298 1.348 . S
C2301 C2303 1.353 . S
C2301 H2357 0.929 . S
C2302 C2298 1.356 . S
C2302 C2299 1.358 . S
C2302 H2358 0.930 . S
C2303 N2300 1.314 . S
C2303 C2301 1.353 . S
C2303 H2359 0.930 . S
C2304 N2305 1.314 . S
C2304 C2309 1.353 . S
C2304 H2310 0.930 . S
N2305 Li2288 1.990 . S
N2305 C2304 1.314 . S
N2305 C2307 1.279 . S
C2306 C2307 1.358 . S
C2306 C2308 1.356 . S
C2306 H2360 0.930 . S
C2307 N2305 1.279 . S
C2307 C2306 1.358 . S
C2307 H2311 0.930 . S
C2308 C2306 1.356 . S
C2308 C2309 1.348 . S
C2309 C2304 1.353 . S
C2309 C2308 1.348 . S
C2309 H2361 0.929 . S
H2310 C2304 0.930 . S
H2311 C2307 0.930 . S
C2312 N2313 1.314 . S
C2312 C2314 1.353 . S
C2312 H2318 0.930 . S
N2313 Li2289 1.990 . S
N2313 C2312 1.314 . S
N2313 C2316 1.279 . S
C2314 C2312 1.353 . S
C2314 C2317 1.348 . S
C2314 H2362 0.929 . S
C2315 C2316 1.358 . S
C2315 C2317 1.356 . S
C2315 H2363 0.930 . S
C2316 N2313 1.279 . S
C2316 C2315 1.358 . S
C2316 H2319 0.930 . S
C2317 C2314 1.348 . S
C2317 C2315 1.356 . S
H2318 C2312 0.930 . S
H2319 C2316 0.930 . S
C2320 C2322 1.348 . S
C2320 C2323 1.356 . S
C2320 O2350 1.325 . S
N2321 C2324 1.314 . S
N2321 C2325 1.279 . S
C2322 C2320 1.348 . S
C2322 C2324 1.353 . S
C2322 H2364 0.929 . S
C2323 C2320 1.356 . S
C2323 C2325 1.358 . S
C2323 H2365 0.930 . S
C2324 N2321 1.314 . S
C2324 C2322 1.353 . S
C2324 H2366 0.930 . S
C2325 N2321 1.279 . S
C2325 C2323 1.358 . S
C2325 H2367 0.930 . S
C2326 C2327 1.348 . S
C2326 C2328 1.356 . S
C2326 O2351 1.325 . S
C2327 C2326 1.348 . S
C2327 C2329 1.353 . S
C2327 H2368 0.929 . S
C2328 C2326 1.356 . S
C2328 C2330 1.358 . S
C2328 H2369 0.930 . S
C2329 C2327 1.353 . S
C2329 N2331 1.314 . S
C2329 H2370 0.930 . S
C2330 C2328 1.358 . S
C2330 N2331 1.279 . S
C2330 H2371 0.930 . S
N2331 C2329 1.314 . S
N2331 C2330 1.279 . S
C2332 C2334 1.353 . S
C2332 N2335 1.314 . S
C2332 H2338 0.930 . S
C2333 N2335 1.279 . S
C2333 C2336 1.358 . S
C2333 H2339 0.930 . S
C2334 C2332 1.353 . S
C2334 C2337 1.348 . S
C2334 H2372 0.929 . S
N2335 Li2290 1.990 . S
N2335 C2332 1.314 . S
N2335 C2333 1.279 . S
C2336 C2333 1.358 . S
C2336 C2337 1.356 . S
C2336 H2373 0.930 . S
C2337 C2334 1.348 . S
C2337 C2336 1.356 . S
H2338 C2332 0.930 . S
H2339 C2333 0.930 . S
C2340 N2341 1.314 . S
C2340 C2342 1.353 . S
C2340 H2346 0.930 . S
N2341 Li2291 1.990 . S
N2341 C2340 1.314 . S
N2341 C2344 1.279 . S
C2342 C2340 1.353 . S
C2342 C2345 1.348 . S
C2342 H2374 0.929 . S
C2343 C2344 1.358 . S
C2343 C2345 1.356 . S
C2343 H2375 0.930 . S
C2344 N2341 1.279 . S
C2344 C2343 1.358 . S
C2344 H2347 0.930 . S
C2345 C2342 1.348 . S
C2345 C2343 1.356 . S
H2346 C2340 0.930 . S
H2347 C2344 0.930 . S
O2348 Li2288 1.956 . S
O2348 Li2289 1.970 . S
O2348 Li2290 1.961 . S
O2348 C2292 1.325 . S
O2349 Li2288 1.970 . S
O2349 Li2289 1.956 . S
O2349 Li2291 1.961 . S
O2349 C2298 1.325 . S
O2350 Li2288 1.961 . S
O2350 Li2290 1.956 . S
O2350 Li2291 1.970 . S
O2350 C2320 1.325 . S
O2351 Li2289 1.961 . S
O2351 Li2290 1.970 . S
O2351 Li2291 1.956 . S
O2351 C2326 1.325 . S
H2352 C2294 0.929 . S
H2353 C2295 0.930 . S
H2354 C2296 0.930 . S
H2355 C2297 0.930 . S
H2356 C2299 0.930 . S
H2357 C2301 0.929 . S
H2358 C2302 0.930 . S
H2359 C2303 0.930 . S
H2360 C2306 0.930 . S
H2361 C2309 0.929 . S
H2362 C2314 0.929 . S
H2363 C2315 0.930 . S
H2364 C2322 0.929 . S
H2365 C2323 0.930 . S
H2366 C2324 0.930 . S
H2367 C2325 0.930 . S
H2368 C2327 0.929 . S
H2369 C2328 0.930 . S
H2370 C2329 0.930 . S
H2371 C2330 0.930 . S
H2372 C2334 0.929 . S
H2373 C2336 0.930 . S
H2374 C2342 0.929 . S
H2375 C2343 0.930 . S
Li2376 N2393 1.990 . S
Li2376 O2436 1.956 . S
Li2376 O2437 1.970 . S
Li2376 O2438 1.961 . S
Li2377 N2401 1.990 . S
Li2377 O2436 1.970 . S
Li2377 O2437 1.956 . S
Li2377 O2439 1.961 . S
Li2378 N2423 1.990 . S
Li2378 O2436 1.961 . S
Li2378 O2438 1.956 . S
Li2378 O2439 1.970 . S
Li2379 N2429 1.990 . S
Li2379 O2437 1.961 . S
Li2379 O2438 1.970 . S
Li2379 O2439 1.956 . S
C2380 C2382 1.348 . S
C2380 C2383 1.356 . S
C2380 O2436 1.325 . S
N2381 C2384 1.314 . S
N2381 C2385 1.279 . S
C2382 C2380 1.348 . S
C2382 C2384 1.353 . S
C2382 H2440 0.929 . S
C2383 C2380 1.356 . S
C2383 C2385 1.358 . S
C2383 H2441 0.930 . S
C2384 N2381 1.314 . S
C2384 C2382 1.353 . S
C2384 H2442 0.930 . S
C2385 N2381 1.279 . S
C2385 C2383 1.358 . S
C2385 H2443 0.930 . S
C2386 C2389 1.348 . S
C2386 C2390 1.356 1_556 S
C2386 O2437 1.325 . S
C2387 N2388 1.279 . S
C2387 C2390 1.358 . S
C2387 H2444 0.930 . S
N2388 C2387 1.279 . S
N2388 C2391 1.314 . S
C2389 C2386 1.348 . S
C2389 C2391 1.353 1_556 S
C2389 H2445 0.929 . S
C2390 C2386 1.356 1_554 S
C2390 C2387 1.358 . S
C2390 H2446 0.935 . S
C2391 N2388 1.314 . S
C2391 C2389 1.353 1_554 S
C2391 H2447 0.930 . S
C2392 N2393 1.314 . S
C2392 C2397 1.353 . S
C2392 H2398 0.930 . S
N2393 Li2376 1.990 . S
N2393 C2392 1.314 . S
N2393 C2395 1.279 . S
C2394 C2395 1.358 . S
C2394 C2396 1.356 . S
C2394 H2448 0.930 . S
C2395 N2393 1.279 . S
C2395 C2394 1.358 . S
C2395 H2399 0.930 . S
C2396 C2394 1.356 . S
C2396 C2397 1.348 . S
C2397 C2392 1.353 . S
C2397 C2396 1.348 . S
C2397 H2449 0.929 . S
H2398 C2392 0.930 . S
H2399 C2395 0.930 . S
C2400 N2401 1.314 . S
C2400 C2402 1.353 . S
C2400 H2406 0.930 . S
N2401 Li2377 1.990 . S
N2401 C2400 1.314 . S
N2401 C2404 1.279 . S
C2402 C2400 1.353 . S
C2402 C2405 1.348 . S
C2402 H2450 0.929 . S
C2403 C2404 1.358 1_554 S
C2403 C2405 1.356 1_554 S
C2403 H2451 0.930 . S
C2404 N2401 1.279 . S
C2404 C2403 1.358 1_556 S
C2404 H2407 0.957 . S
C2405 C2402 1.348 . S
C2405 C2403 1.356 1_556 S
H2406 C2400 0.930 . S
H2407 C2404 0.957 . S
C2408 C2410 1.348 . S
C2408 C2411 1.356 . S
C2408 O2438 1.325 . S
N2409 C2412 1.314 . S
N2409 C2413 1.279 . S
C2410 C2408 1.348 . S
C2410 C2412 1.353 . S
C2410 H2452 0.929 . S
C2411 C2408 1.356 . S
C2411 C2413 1.358 . S
C2411 H2453 0.930 . S
C2412 N2409 1.314 . S
C2412 C2410 1.353 . S
C2412 H2454 0.930 . S
C2413 N2409 1.279 . S
C2413 C2411 1.358 . S
C2413 H2455 0.930 . S
C2414 C2415 1.348 . S
C2414 C2416 1.356 . S
C2414 O2439 1.325 . S
C2415 C2414 1.348 . S
C2415 C2417 1.353 . S
C2415 H2456 0.929 . S
C2416 C2414 1.356 . S
C2416 C2418 1.358 . S
C2416 H2457 0.930 . S
C2417 C2415 1.353 . S
C2417 N2419 1.314 . S
C2417 H2458 0.930 . S
C2418 C2416 1.358 . S
C2418 N2419 1.279 . S
C2418 H2459 0.930 . S
N2419 C2417 1.314 . S
N2419 C2418 1.279 . S
C2420 C2422 1.353 . S
C2420 N2423 1.314 . S
C2420 H2426 0.930 . S
C2421 N2423 1.279 . S
C2421 C2424 1.358 . S
C2421 H2427 0.930 . S
C2422 C2420 1.353 . S
C2422 C2425 1.348 . S
C2422 H2460 0.929 . S
N2423 Li2378 1.990 . S
N2423 C2420 1.314 . S
N2423 C2421 1.279 . S
C2424 C2421 1.358 . S
C2424 C2425 1.356 . S
C2424 H2461 0.930 . S
C2425 C2422 1.348 . S
C2425 C2424 1.356 . S
H2426 C2420 0.930 . S
H2427 C2421 0.930 . S
C2428 N2429 1.314 . S
C2428 C2430 1.353 . S
C2428 H2434 0.930 . S
N2429 Li2379 1.990 . S
N2429 C2428 1.314 . S
N2429 C2432 1.279 . S
C2430 C2428 1.353 . S
C2430 C2433 1.348 . S
C2430 H2462 0.929 . S
C2431 C2432 1.358 . S
C2431 C2433 1.356 . S
C2431 H2463 0.930 . S
C2432 N2429 1.279 . S
C2432 C2431 1.358 . S
C2432 H2435 0.930 . S
C2433 C2430 1.348 . S
C2433 C2431 1.356 . S
H2434 C2428 0.930 . S
H2435 C2432 0.930 . S
O2436 Li2376 1.956 . S
O2436 Li2377 1.970 . S
O2436 Li2378 1.961 . S
O2436 C2380 1.325 . S
O2437 Li2376 1.970 . S
O2437 Li2377 1.956 . S
O2437 Li2379 1.961 . S
O2437 C2386 1.325 . S
O2438 Li2376 1.961 . S
O2438 Li2378 1.956 . S
O2438 Li2379 1.970 . S
O2438 C2408 1.325 . S
O2439 Li2377 1.961 . S
O2439 Li2378 1.970 . S
O2439 Li2379 1.956 . S
O2439 C2414 1.325 . S
H2440 C2382 0.929 . S
H2441 C2383 0.930 . S
H2442 C2384 0.930 . S
H2443 C2385 0.930 . S
H2444 C2387 0.930 . S
H2445 C2389 0.929 . S
H2446 C2390 0.935 . S
H2447 C2391 0.930 . S
H2448 C2394 0.930 . S
H2449 C2397 0.929 . S
H2450 C2402 0.929 . S
H2451 C2403 0.930 . S
H2452 C2410 0.929 . S
H2453 C2411 0.930 . S
H2454 C2412 0.930 . S
H2455 C2413 0.930 . S
H2456 C2415 0.929 . S
H2457 C2416 0.930 . S
H2458 C2417 0.930 . S
H2459 C2418 0.930 . S
H2460 C2422 0.929 . S
H2461 C2424 0.930 . S
H2462 C2430 0.929 . S
H2463 C2431 0.930 . S
Li2464 N2481 1.990 . S
Li2464 O2524 1.956 . S
Li2464 O2525 1.970 . S
Li2464 O2526 1.961 . S
Li2465 N2489 1.990 . S
Li2465 O2524 1.970 . S
Li2465 O2525 1.956 . S
Li2465 O2527 1.961 . S
Li2466 N2511 1.990 . S
Li2466 O2524 1.961 . S
Li2466 O2526 1.956 . S
Li2466 O2527 1.970 . S
Li2467 N2517 1.990 . S
Li2467 O2525 1.961 . S
Li2467 O2526 1.970 . S
Li2467 O2527 1.956 . S
C2468 C2470 1.348 . S
C2468 C2471 1.356 1_556 S
C2468 O2524 1.325 . S
N2469 C2472 1.314 . S
N2469 C2473 1.279 . S
C2470 C2468 1.348 . S
C2470 C2472 1.353 1_556 S
C2470 H2528 0.929 . S
C2471 C2468 1.356 1_554 S
C2471 C2473 1.358 . S
C2471 H2529 0.935 . S
C2472 N2469 1.314 . S
C2472 C2470 1.353 1_554 S
C2472 H2530 0.930 . S
C2473 N2469 1.279 . S
C2473 C2471 1.358 . S
C2473 H2531 0.930 . S
C2474 C2477 1.348 . S
C2474 C2478 1.356 . S
C2474 O2525 1.325 . S
C2475 N2476 1.279 . S
C2475 C2478 1.358 . S
C2475 H2532 0.930 . S
N2476 C2475 1.279 . S
N2476 C2479 1.314 . S
C2477 C2474 1.348 . S
C2477 C2479 1.353 . S
C2477 H2533 0.929 . S
C2478 C2474 1.356 . S
C2478 C2475 1.358 . S
C2478 H2534 0.930 . S
C2479 N2476 1.314 . S
C2479 C2477 1.353 . S
C2479 H2535 0.930 . S
C2480 N2481 1.314 . S
C2480 C2485 1.353 . S
C2480 H2486 0.930 . S
N2481 Li2464 1.990 . S
N2481 C2480 1.314 . S
N2481 C2483 1.279 . S
C2482 C2483 1.358 1_554 S
C2482 C2484 1.356 1_554 S
C2482 H2536 0.930 . S
C2483 N2481 1.279 . S
C2483 C2482 1.358 1_556 S
C2483 H2487 0.957 . S
C2484 C2482 1.356 1_556 S
C2484 C2485 1.348 . S
C2485 C2480 1.353 . S
C2485 C2484 1.348 . S
C2485 H2537 0.929 . S
H2486 C2480 0.930 . S
H2487 C2483 0.957 . S
C2488 N2489 1.314 . S
C2488 C2490 1.353 . S
C2488 H2494 0.930 . S
N2489 Li2465 1.990 . S
N2489 C2488 1.314 . S
N2489 C2492 1.279 . S
C2490 C2488 1.353 . S
C2490 C2493 1.348 . S
C2490 H2538 0.929 . S
C2491 C2492 1.358 . S
C2491 C2493 1.356 . S
C2491 H2539 0.930 . S
C2492 N2489 1.279 . S
C2492 C2491 1.358 . S
C2492 H2495 0.930 . S
C2493 C2490 1.348 . S
C2493 C2491 1.356 . S
H2494 C2488 0.930 . S
H2495 C2492 0.930 . S
C2496 C2498 1.348 . S
C2496 C2499 1.356 . S
C2496 O2526 1.325 . S
N2497 C2500 1.314 . S
N2497 C2501 1.279 . S
C2498 C2496 1.348 . S
C2498 C2500 1.353 . S
C2498 H2540 0.929 . S
C2499 C2496 1.356 . S
C2499 C2501 1.358 . S
C2499 H2541 0.930 . S
C2500 N2497 1.314 . S
C2500 C2498 1.353 . S
C2500 H2542 0.930 . S
C2501 N2497 1.279 . S
C2501 C2499 1.358 . S
C2501 H2543 0.930 . S
C2502 C2503 1.348 . S
C2502 C2504 1.356 . S
C2502 O2527 1.325 . S
C2503 C2502 1.348 . S
C2503 C2505 1.353 . S
C2503 H2544 0.929 . S
C2504 C2502 1.356 . S
C2504 C2506 1.358 . S
C2504 H2545 0.930 . S
C2505 C2503 1.353 . S
C2505 N2507 1.314 . S
C2505 H2546 0.930 . S
C2506 C2504 1.358 . S
C2506 N2507 1.279 . S
C2506 H2547 0.930 . S
N2507 C2505 1.314 . S
N2507 C2506 1.279 . S
C2508 C2510 1.353 . S
C2508 N2511 1.314 . S
C2508 H2514 0.930 . S
C2509 N2511 1.279 . S
C2509 C2512 1.358 . S
C2509 H2515 0.930 . S
C2510 C2508 1.353 . S
C2510 C2513 1.348 . S
C2510 H2548 0.929 . S
N2511 Li2466 1.990 . S
N2511 C2508 1.314 . S
N2511 C2509 1.279 . S
C2512 C2509 1.358 . S
C2512 C2513 1.356 . S
C2512 H2549 0.930 . S
C2513 C2510 1.348 . S
C2513 C2512 1.356 . S
H2514 C2508 0.930 . S
H2515 C2509 0.930 . S
C2516 N2517 1.314 . S
C2516 C2518 1.353 . S
C2516 H2522 0.930 . S
N2517 Li2467 1.990 . S
N2517 C2516 1.314 . S
N2517 C2520 1.279 . S
C2518 C2516 1.353 . S
C2518 C2521 1.348 . S
C2518 H2550 0.929 . S
C2519 C2520 1.358 . S
C2519 C2521 1.356 . S
C2519 H2551 0.930 . S
C2520 N2517 1.279 . S
C2520 C2519 1.358 . S
C2520 H2523 0.930 . S
C2521 C2518 1.348 . S
C2521 C2519 1.356 . S
H2522 C2516 0.930 . S
H2523 C2520 0.930 . S
O2524 Li2464 1.956 . S
O2524 Li2465 1.970 . S
O2524 Li2466 1.961 . S
O2524 C2468 1.325 . S
O2525 Li2464 1.970 . S
O2525 Li2465 1.956 . S
O2525 Li2467 1.961 . S
O2525 C2474 1.325 . S
O2526 Li2464 1.961 . S
O2526 Li2466 1.956 . S
O2526 Li2467 1.970 . S
O2526 C2496 1.325 . S
O2527 Li2465 1.961 . S
O2527 Li2466 1.970 . S
O2527 Li2467 1.956 . S
O2527 C2502 1.325 . S
H2528 C2470 0.929 . S
H2529 C2471 0.935 . S
H2530 C2472 0.930 . S
H2531 C2473 0.930 . S
H2532 C2475 0.930 . S
H2533 C2477 0.929 . S
H2534 C2478 0.930 . S
H2535 C2479 0.930 . S
H2536 C2482 0.930 . S
H2537 C2485 0.929 . S
H2538 C2490 0.929 . S
H2539 C2491 0.930 . S
H2540 C2498 0.929 . S
H2541 C2499 0.930 . S
H2542 C2500 0.930 . S
H2543 C2501 0.930 . S
H2544 C2503 0.929 . S
H2545 C2504 0.930 . S
H2546 C2505 0.930 . S
H2547 C2506 0.930 . S
H2548 C2510 0.929 . S
H2549 C2512 0.930 . S
H2550 C2518 0.929 . S
H2551 C2519 0.930 . S
Li2552 N2569 1.990 . S
Li2552 O2612 1.956 . S
Li2552 O2613 1.970 . S
Li2552 O2614 1.961 . S
Li2553 N2577 1.990 . S
Li2553 O2612 1.970 . S
Li2553 O2613 1.956 . S
Li2553 O2615 1.961 . S
Li2554 N2599 1.990 . S
Li2554 O2612 1.961 . S
Li2554 O2614 1.956 . S
Li2554 O2615 1.970 . S
Li2555 N2605 1.990 . S
Li2555 O2613 1.961 . S
Li2555 O2614 1.970 . S
Li2555 O2615 1.956 . S
C2556 C2558 1.348 . S
C2556 C2559 1.356 . S
C2556 O2612 1.325 . S
N2557 C2560 1.314 . S
N2557 C2561 1.279 . S
C2558 C2556 1.348 . S
C2558 C2560 1.353 . S
C2558 H2616 0.929 . S
C2559 C2556 1.356 . S
C2559 C2561 1.358 . S
C2559 H2617 0.930 . S
C2560 N2557 1.314 . S
C2560 C2558 1.353 . S
C2560 H2618 0.930 . S
C2561 N2557 1.279 . S
C2561 C2559 1.358 . S
C2561 H2619 0.930 . S
C2562 C2565 1.348 . S
C2562 C2566 1.356 1_556 S
C2562 O2613 1.325 . S
C2563 N2564 1.279 . S
C2563 C2566 1.358 . S
C2563 H2620 0.930 . S
N2564 C2563 1.279 . S
N2564 C2567 1.314 . S
C2565 C2562 1.348 . S
C2565 C2567 1.353 1_556 S
C2565 H2621 0.929 . S
C2566 C2562 1.356 1_554 S
C2566 C2563 1.358 . S
C2566 H2622 0.934 . S
C2567 N2564 1.314 . S
C2567 C2565 1.353 1_554 S
C2567 H2623 0.930 . S
C2568 N2569 1.314 . S
C2568 C2573 1.353 . S
C2568 H2574 0.930 . S
N2569 Li2552 1.990 . S
N2569 C2568 1.314 . S
N2569 C2571 1.279 . S
C2570 C2571 1.358 . S
C2570 C2572 1.356 . S
C2570 H2624 0.930 . S
C2571 N2569 1.279 . S
C2571 C2570 1.358 . S
C2571 H2575 0.930 . S
C2572 C2570 1.356 . S
C2572 C2573 1.348 . S
C2573 C2568 1.353 . S
C2573 C2572 1.348 . S
C2573 H2625 0.929 . S
H2574 C2568 0.930 . S
H2575 C2571 0.930 . S
C2576 N2577 1.314 . S
C2576 C2578 1.353 . S
C2576 H2582 0.930 . S
N2577 Li2553 1.990 . S
N2577 C2576 1.314 . S
N2577 C2580 1.279 . S
C2578 C2576 1.353 . S
C2578 C2581 1.348 . S
C2578 H2626 0.929 . S
C2579 C2580 1.358 1_554 S
C2579 C2581 1.356 1_554 S
C2579 H2627 0.930 . S
C2580 N2577 1.279 . S
C2580 C2579 1.358 1_556 S
C2580 H2583 0.957 . S
C2581 C2578 1.348 . S
C2581 C2579 1.356 1_556 S
H2582 C2576 0.930 . S
H2583 C2580 0.957 . S
C2584 C2586 1.348 . S
C2584 C2587 1.356 . S
C2584 O2614 1.325 . S
N2585 C2588 1.314 . S
N2585 C2589 1.279 . S
C2586 C2584 1.348 . S
C2586 C2588 1.353 . S
C2586 H2628 0.929 . S
C2587 C2584 1.356 . S
C2587 C2589 1.358 . S
C2587 H2629 0.930 . S
C2588 N2585 1.314 . S
C2588 C2586 1.353 . S
C2588 H2630 0.930 . S
C2589 N2585 1.279 . S
C2589 C2587 1.358 . S
C2589 H2631 0.930 . S
C2590 C2591 1.348 . S
C2590 C2592 1.356 . S
C2590 O2615 1.325 . S
C2591 C2590 1.348 . S
C2591 C2593 1.353 . S
C2591 H2632 0.929 . S
C2592 C2590 1.356 . S
C2592 C2594 1.358 . S
C2592 H2633 0.930 . S
C2593 C2591 1.353 . S
C2593 N2595 1.314 . S
C2593 H2634 0.930 . S
C2594 C2592 1.358 . S
C2594 N2595 1.279 . S
C2594 H2635 0.930 . S
N2595 C2593 1.314 . S
N2595 C2594 1.279 . S
C2596 C2598 1.353 . S
C2596 N2599 1.314 . S
C2596 H2602 0.930 . S
C2597 N2599 1.279 . S
C2597 C2600 1.358 . S
C2597 H2603 0.930 . S
C2598 C2596 1.353 . S
C2598 C2601 1.348 . S
C2598 H2636 0.929 . S
N2599 Li2554 1.990 . S
N2599 C2596 1.314 . S
N2599 C2597 1.279 . S
C2600 C2597 1.358 . S
C2600 C2601 1.356 . S
C2600 H2637 0.930 . S
C2601 C2598 1.348 . S
C2601 C2600 1.356 . S
H2602 C2596 0.930 . S
H2603 C2597 0.930 . S
C2604 N2605 1.314 . S
C2604 C2606 1.353 . S
C2604 H2610 0.930 . S
N2605 Li2555 1.990 . S
N2605 C2604 1.314 . S
N2605 C2608 1.279 . S
C2606 C2604 1.353 . S
C2606 C2609 1.348 . S
C2606 H2638 0.929 . S
C2607 C2608 1.358 . S
C2607 C2609 1.356 . S
C2607 H2639 0.930 . S
C2608 N2605 1.279 . S
C2608 C2607 1.358 . S
C2608 H2611 0.930 . S
C2609 C2606 1.348 . S
C2609 C2607 1.356 . S
H2610 C2604 0.930 . S
H2611 C2608 0.930 . S
O2612 Li2552 1.956 . S
O2612 Li2553 1.970 . S
O2612 Li2554 1.961 . S
O2612 C2556 1.325 . S
O2613 Li2552 1.970 . S
O2613 Li2553 1.956 . S
O2613 Li2555 1.961 . S
O2613 C2562 1.325 . S
O2614 Li2552 1.961 . S
O2614 Li2554 1.956 . S
O2614 Li2555 1.970 . S
O2614 C2584 1.325 . S
O2615 Li2553 1.961 . S
O2615 Li2554 1.970 . S
O2615 Li2555 1.956 . S
O2615 C2590 1.325 . S
H2616 C2558 0.929 . S
H2617 C2559 0.930 . S
H2618 C2560 0.930 . S
H2619 C2561 0.930 . S
H2620 C2563 0.930 . S
H2621 C2565 0.929 . S
H2622 C2566 0.934 . S
H2623 C2567 0.930 . S
H2624 C2570 0.930 . S
H2625 C2573 0.929 . S
H2626 C2578 0.929 . S
H2627 C2579 0.930 . S
H2628 C2586 0.929 . S
H2629 C2587 0.930 . S
H2630 C2588 0.930 . S
H2631 C2589 0.930 . S
H2632 C2591 0.929 . S
H2633 C2592 0.930 . S
H2634 C2593 0.930 . S
H2635 C2594 0.930 . S
H2636 C2598 0.929 . S
H2637 C2600 0.930 . S
H2638 C2606 0.929 . S
H2639 C2607 0.930 . S
Li2640 N2657 1.990 . S
Li2640 O2700 1.956 . S
Li2640 O2701 1.970 . S
Li2640 O2702 1.961 . S
Li2641 N2665 1.990 . S
Li2641 O2700 1.970 . S
Li2641 O2701 1.956 . S
Li2641 O2703 1.961 . S
Li2642 N2687 1.990 . S
Li2642 O2700 1.961 . S
Li2642 O2702 1.956 . S
Li2642 O2703 1.970 . S
Li2643 N2693 1.990 . S
Li2643 O2701 1.961 . S
Li2643 O2702 1.970 . S
Li2643 O2703 1.956 . S
C2644 C2646 1.348 . S
C2644 C2647 1.356 . S
C2644 O2700 1.325 . S
N2645 C2648 1.314 . S
N2645 C2649 1.279 . S
C2646 C2644 1.348 . S
C2646 C2648 1.353 . S
C2646 H2704 0.929 . S
C2647 C2644 1.356 . S
C2647 C2649 1.358 . S
C2647 H2705 0.930 . S
C2648 N2645 1.314 . S
C2648 C2646 1.353 . S
C2648 H2706 0.930 . S
C2649 N2645 1.279 . S
C2649 C2647 1.358 . S
C2649 H2707 0.930 . S
C2650 C2653 1.348 . S
C2650 C2654 1.356 . S
C2650 O2701 1.325 . S
C2651 N2652 1.279 . S
C2651 C2654 1.358 . S
C2651 H2708 0.930 . S
N2652 C2651 1.279 . S
N2652 C2655 1.314 . S
C2653 C2650 1.348 . S
C2653 C2655 1.353 . S
C2653 H2709 0.929 . S
C2654 C2650 1.356 . S
C2654 C2651 1.358 . S
C2654 H2710 0.930 . S
C2655 N2652 1.314 . S
C2655 C2653 1.353 . S
C2655 H2711 0.930 . S
C2656 N2657 1.314 . S
C2656 C2661 1.353 . S
C2656 H2662 0.930 . S
N2657 Li2640 1.990 . S
N2657 C2656 1.314 . S
N2657 C2659 1.279 . S
C2658 C2659 1.358 . S
C2658 C2660 1.356 . S
C2658 H2712 0.930 . S
C2659 N2657 1.279 . S
C2659 C2658 1.358 . S
C2659 H2663 0.930 . S
C2660 C2658 1.356 . S
C2660 C2661 1.348 . S
C2661 C2656 1.353 . S
C2661 C2660 1.348 . S
C2661 H2713 0.929 . S
H2662 C2656 0.930 . S
H2663 C2659 0.930 . S
C2664 N2665 1.314 . S
C2664 C2666 1.353 . S
C2664 H2670 0.930 . S
N2665 Li2641 1.990 . S
N2665 C2664 1.314 . S
N2665 C2668 1.279 . S
C2666 C2664 1.353 . S
C2666 C2669 1.348 . S
C2666 H2714 0.929 . S
C2667 C2668 1.358 . S
C2667 C2669 1.356 . S
C2667 H2715 0.930 . S
C2668 N2665 1.279 . S
C2668 C2667 1.358 . S
C2668 H2671 0.930 . S
C2669 C2666 1.348 . S
C2669 C2667 1.356 . S
H2670 C2664 0.930 . S
H2671 C2668 0.930 . S
C2672 C2674 1.348 . S
C2672 C2675 1.356 . S
C2672 O2702 1.325 . S
N2673 C2676 1.314 . S
N2673 C2677 1.279 . S
C2674 C2672 1.348 . S
C2674 C2676 1.353 . S
C2674 H2716 0.929 . S
C2675 C2672 1.356 . S
C2675 C2677 1.358 . S
C2675 H2717 0.930 . S
C2676 N2673 1.314 . S
C2676 C2674 1.353 . S
C2676 H2718 0.930 . S
C2677 N2673 1.279 . S
C2677 C2675 1.358 . S
C2677 H2719 0.930 . S
C2678 C2679 1.348 . S
C2678 C2680 1.356 . S
C2678 O2703 1.325 . S
C2679 C2678 1.348 . S
C2679 C2681 1.353 . S
C2679 H2720 0.929 . S
C2680 C2678 1.356 . S
C2680 C2682 1.358 . S
C2680 H2721 0.930 . S
C2681 C2679 1.353 . S
C2681 N2683 1.314 . S
C2681 H2722 0.930 . S
C2682 C2680 1.358 . S
C2682 N2683 1.279 . S
C2682 H2723 0.930 . S
N2683 C2681 1.314 . S
N2683 C2682 1.279 . S
C2684 C2686 1.353 . S
C2684 N2687 1.314 . S
C2684 H2690 0.930 . S
C2685 N2687 1.279 . S
C2685 C2688 1.358 . S
C2685 H2691 0.930 . S
C2686 C2684 1.353 . S
C2686 C2689 1.348 . S
C2686 H2724 0.929 . S
N2687 Li2642 1.990 . S
N2687 C2684 1.314 . S
N2687 C2685 1.279 . S
C2688 C2685 1.358 . S
C2688 C2689 1.356 . S
C2688 H2725 0.930 . S
C2689 C2686 1.348 . S
C2689 C2688 1.356 . S
H2690 C2684 0.930 . S
H2691 C2685 0.930 . S
C2692 N2693 1.314 . S
C2692 C2694 1.353 . S
C2692 H2698 0.930 . S
N2693 Li2643 1.990 . S
N2693 C2692 1.314 . S
N2693 C2696 1.279 . S
C2694 C2692 1.353 . S
C2694 C2697 1.348 . S
C2694 H2726 0.929 . S
C2695 C2696 1.358 . S
C2695 C2697 1.356 . S
C2695 H2727 0.930 . S
C2696 N2693 1.279 . S
C2696 C2695 1.358 . S
C2696 H2699 0.930 . S
C2697 C2694 1.348 . S
C2697 C2695 1.356 . S
H2698 C2692 0.930 . S
H2699 C2696 0.930 . S
O2700 Li2640 1.956 . S
O2700 Li2641 1.970 . S
O2700 Li2642 1.961 . S
O2700 C2644 1.325 . S
O2701 Li2640 1.970 . S
O2701 Li2641 1.956 . S
O2701 Li2643 1.961 . S
O2701 C2650 1.325 . S
O2702 Li2640 1.961 . S
O2702 Li2642 1.956 . S
O2702 Li2643 1.970 . S
O2702 C2672 1.325 . S
O2703 Li2641 1.961 . S
O2703 Li2642 1.970 . S
O2703 Li2643 1.956 . S
O2703 C2678 1.325 . S
H2704 C2646 0.929 . S
H2705 C2647 0.930 . S
H2706 C2648 0.930 . S
H2707 C2649 0.930 . S
H2708 C2651 0.930 . S
H2709 C2653 0.929 . S
H2710 C2654 0.930 . S
H2711 C2655 0.930 . S
H2712 C2658 0.930 . S
H2713 C2661 0.929 . S
H2714 C2666 0.929 . S
H2715 C2667 0.930 . S
H2716 C2674 0.929 . S
H2717 C2675 0.930 . S
H2718 C2676 0.930 . S
H2719 C2677 0.930 . S
H2720 C2679 0.929 . S
H2721 C2680 0.930 . S
H2722 C2681 0.930 . S
H2723 C2682 0.930 . S
H2724 C2686 0.929 . S
H2725 C2688 0.930 . S
H2726 C2694 0.929 . S
H2727 C2695 0.930 . S
Li2728 N2745 1.990 . S
Li2728 O2788 1.956 . S
Li2728 O2789 1.970 . S
Li2728 O2790 1.961 . S
Li2729 N2753 1.990 . S
Li2729 O2788 1.970 . S
Li2729 O2789 1.956 . S
Li2729 O2791 1.961 . S
Li2730 N2775 1.990 . S
Li2730 O2788 1.961 . S
Li2730 O2790 1.956 . S
Li2730 O2791 1.970 . S
Li2731 N2781 1.990 . S
Li2731 O2789 1.961 . S
Li2731 O2790 1.970 . S
Li2731 O2791 1.956 . S
C2732 C2734 1.348 . S
C2732 C2735 1.356 . S
C2732 O2788 1.325 . S
N2733 C2736 1.314 . S
N2733 C2737 1.279 . S
C2734 C2732 1.348 . S
C2734 C2736 1.353 . S
C2734 H2792 0.929 . S
C2735 C2732 1.356 . S
C2735 C2737 1.358 . S
C2735 H2793 0.930 . S
C2736 N2733 1.314 . S
C2736 C2734 1.353 . S
C2736 H2794 0.930 . S
C2737 N2733 1.279 . S
C2737 C2735 1.358 . S
C2737 H2795 0.930 . S
C2738 C2741 1.348 . S
C2738 C2742 1.356 . S
C2738 O2789 1.325 . S
C2739 N2740 1.279 . S
C2739 C2742 1.358 . S
C2739 H2796 0.930 . S
N2740 C2739 1.279 . S
N2740 C2743 1.314 . S
C2741 C2738 1.348 . S
C2741 C2743 1.353 . S
C2741 H2797 0.929 . S
C2742 C2738 1.356 . S
C2742 C2739 1.358 . S
C2742 H2798 0.930 . S
C2743 N2740 1.314 . S
C2743 C2741 1.353 . S
C2743 H2799 0.930 . S
C2744 N2745 1.314 . S
C2744 C2749 1.353 . S
C2744 H2750 0.930 . S
N2745 Li2728 1.990 . S
N2745 C2744 1.314 . S
N2745 C2747 1.279 . S
C2746 C2747 1.358 . S
C2746 C2748 1.356 . S
C2746 H2800 0.930 . S
C2747 N2745 1.279 . S
C2747 C2746 1.358 . S
C2747 H2751 0.930 . S
C2748 C2746 1.356 . S
C2748 C2749 1.348 . S
C2749 C2744 1.353 . S
C2749 C2748 1.348 . S
C2749 H2801 0.929 . S
H2750 C2744 0.930 . S
H2751 C2747 0.930 . S
C2752 N2753 1.314 . S
C2752 C2754 1.353 . S
C2752 H2758 0.930 . S
N2753 Li2729 1.990 . S
N2753 C2752 1.314 . S
N2753 C2756 1.279 . S
C2754 C2752 1.353 . S
C2754 C2757 1.348 . S
C2754 H2802 0.929 . S
C2755 C2756 1.358 . S
C2755 C2757 1.356 . S
C2755 H2803 0.930 . S
C2756 N2753 1.279 . S
C2756 C2755 1.358 . S
C2756 H2759 0.930 . S
C2757 C2754 1.348 . S
C2757 C2755 1.356 . S
H2758 C2752 0.930 . S
H2759 C2756 0.930 . S
C2760 C2762 1.348 . S
C2760 C2763 1.356 . S
C2760 O2790 1.325 . S
N2761 C2764 1.314 . S
N2761 C2765 1.279 . S
C2762 C2760 1.348 . S
C2762 C2764 1.353 . S
C2762 H2804 0.929 . S
C2763 C2760 1.356 . S
C2763 C2765 1.358 . S
C2763 H2805 0.930 . S
C2764 N2761 1.314 . S
C2764 C2762 1.353 . S
C2764 H2806 0.930 . S
C2765 N2761 1.279 . S
C2765 C2763 1.358 . S
C2765 H2807 0.930 . S
C2766 C2767 1.348 . S
C2766 C2768 1.356 . S
C2766 O2791 1.325 . S
C2767 C2766 1.348 . S
C2767 C2769 1.353 . S
C2767 H2808 0.929 . S
C2768 C2766 1.356 . S
C2768 C2770 1.358 . S
C2768 H2809 0.930 . S
C2769 C2767 1.353 . S
C2769 N2771 1.314 . S
C2769 H2810 0.930 . S
C2770 C2768 1.358 . S
C2770 N2771 1.279 . S
C2770 H2811 0.930 . S
N2771 C2769 1.314 . S
N2771 C2770 1.279 . S
C2772 C2774 1.353 . S
C2772 N2775 1.314 . S
C2772 H2778 0.930 . S
C2773 N2775 1.279 . S
C2773 C2776 1.358 . S
C2773 H2779 0.930 . S
C2774 C2772 1.353 . S
C2774 C2777 1.348 . S
C2774 H2812 0.929 . S
N2775 Li2730 1.990 . S
N2775 C2772 1.314 . S
N2775 C2773 1.279 . S
C2776 C2773 1.358 . S
C2776 C2777 1.356 . S
C2776 H2813 0.930 . S
C2777 C2774 1.348 . S
C2777 C2776 1.356 . S
H2778 C2772 0.930 . S
H2779 C2773 0.930 . S
C2780 N2781 1.314 . S
C2780 C2782 1.353 . S
C2780 H2786 0.930 . S
N2781 Li2731 1.990 . S
N2781 C2780 1.314 . S
N2781 C2784 1.279 . S
C2782 C2780 1.353 . S
C2782 C2785 1.348 . S
C2782 H2814 0.929 . S
C2783 C2784 1.358 . S
C2783 C2785 1.356 . S
C2783 H2815 0.930 . S
C2784 N2781 1.279 . S
C2784 C2783 1.358 . S
C2784 H2787 0.930 . S
C2785 C2782 1.348 . S
C2785 C2783 1.356 . S
H2786 C2780 0.930 . S
H2787 C2784 0.930 . S
O2788 Li2728 1.956 . S
O2788 Li2729 1.970 . S
O2788 Li2730 1.961 . S
O2788 C2732 1.325 . S
O2789 Li2728 1.970 . S
O2789 Li2729 1.956 . S
O2789 Li2731 1.961 . S
O2789 C2738 1.325 . S
O2790 Li2728 1.961 . S
O2790 Li2730 1.956 . S
O2790 Li2731 1.970 . S
O2790 C2760 1.325 . S
O2791 Li2729 1.961 . S
O2791 Li2730 1.970 . S
O2791 Li2731 1.956 . S
O2791 C2766 1.325 . S
H2792 C2734 0.929 . S
H2793 C2735 0.930 . S
H2794 C2736 0.930 . S
H2795 C2737 0.930 . S
H2796 C2739 0.930 . S
H2797 C2741 0.929 . S
H2798 C2742 0.930 . S
H2799 C2743 0.930 . S
H2800 C2746 0.930 . S
H2801 C2749 0.929 . S
H2802 C2754 0.929 . S
H2803 C2755 0.930 . S
H2804 C2762 0.929 . S
H2805 C2763 0.930 . S
H2806 C2764 0.930 . S
H2807 C2765 0.930 . S
H2808 C2767 0.929 . S
H2809 C2768 0.930 . S
H2810 C2769 0.930 . S
H2811 C2770 0.930 . S
H2812 C2774 0.929 . S
H2813 C2776 0.930 . S
H2814 C2782 0.929 . S
H2815 C2783 0.930 . S
Li2816 N2833 1.990 . S
Li2816 O2876 1.956 . S
Li2816 O2877 1.970 . S
Li2816 O2878 1.961 . S
Li2817 N2841 1.990 . S
Li2817 O2876 1.970 . S
Li2817 O2877 1.956 . S
Li2817 O2879 1.961 . S
Li2818 N2863 1.990 . S
Li2818 O2876 1.961 . S
Li2818 O2878 1.956 . S
Li2818 O2879 1.970 . S
Li2819 N2869 1.990 . S
Li2819 O2877 1.961 . S
Li2819 O2878 1.970 . S
Li2819 O2879 1.956 . S
C2820 C2822 1.348 . S
C2820 C2823 1.356 . S
C2820 O2876 1.325 . S
N2821 C2824 1.314 . S
N2821 C2825 1.279 . S
C2822 C2820 1.348 . S
C2822 C2824 1.353 . S
C2822 H2880 0.929 . S
C2823 C2820 1.356 . S
C2823 C2825 1.358 . S
C2823 H2881 0.930 . S
C2824 N2821 1.314 . S
C2824 C2822 1.353 . S
C2824 H2882 0.930 . S
C2825 N2821 1.279 . S
C2825 C2823 1.358 . S
C2825 H2883 0.930 . S
C2826 C2829 1.348 . S
C2826 C2830 1.356 . S
C2826 O2877 1.325 . S
C2827 N2828 1.279 . S
C2827 C2830 1.358 . S
C2827 H2884 0.930 . S
N2828 C2827 1.279 . S
N2828 C2831 1.314 . S
C2829 C2826 1.348 . S
C2829 C2831 1.353 . S
C2829 H2885 0.929 . S
C2830 C2826 1.356 . S
C2830 C2827 1.358 . S
C2830 H2886 0.930 . S
C2831 N2828 1.314 . S
C2831 C2829 1.353 . S
C2831 H2887 0.930 . S
C2832 N2833 1.314 . S
C2832 C2837 1.353 . S
C2832 H2838 0.930 . S
N2833 Li2816 1.990 . S
N2833 C2832 1.314 . S
N2833 C2835 1.279 . S
C2834 C2835 1.358 . S
C2834 C2836 1.356 . S
C2834 H2888 0.930 . S
C2835 N2833 1.279 . S
C2835 C2834 1.358 . S
C2835 H2839 0.930 . S
C2836 C2834 1.356 . S
C2836 C2837 1.348 . S
C2837 C2832 1.353 . S
C2837 C2836 1.348 . S
C2837 H2889 0.929 . S
H2838 C2832 0.930 . S
H2839 C2835 0.930 . S
C2840 N2841 1.314 . S
C2840 C2842 1.353 . S
C2840 H2846 0.930 . S
N2841 Li2817 1.990 . S
N2841 C2840 1.314 . S
N2841 C2844 1.279 . S
C2842 C2840 1.353 . S
C2842 C2845 1.348 . S
C2842 H2890 0.929 . S
C2843 C2844 1.358 . S
C2843 C2845 1.356 . S
C2843 H2891 0.930 . S
C2844 N2841 1.279 . S
C2844 C2843 1.358 . S
C2844 H2847 0.930 . S
C2845 C2842 1.348 . S
C2845 C2843 1.356 . S
H2846 C2840 0.930 . S
H2847 C2844 0.930 . S
C2848 C2850 1.348 . S
C2848 C2851 1.356 . S
C2848 O2878 1.325 . S
N2849 C2852 1.314 . S
N2849 C2853 1.279 . S
C2850 C2848 1.348 . S
C2850 C2852 1.353 . S
C2850 H2892 0.929 . S
C2851 C2848 1.356 . S
C2851 C2853 1.358 . S
C2851 H2893 0.930 . S
C2852 N2849 1.314 . S
C2852 C2850 1.353 . S
C2852 H2894 0.930 . S
C2853 N2849 1.279 . S
C2853 C2851 1.358 . S
C2853 H2895 0.930 . S
C2854 C2855 1.348 . S
C2854 C2856 1.356 . S
C2854 O2879 1.325 . S
C2855 C2854 1.348 . S
C2855 C2857 1.353 . S
C2855 H2896 0.929 . S
C2856 C2854 1.356 . S
C2856 C2858 1.358 . S
C2856 H2897 0.930 . S
C2857 C2855 1.353 . S
C2857 N2859 1.314 . S
C2857 H2898 0.930 . S
C2858 C2856 1.358 . S
C2858 N2859 1.279 . S
C2858 H2899 0.930 . S
N2859 C2857 1.314 . S
N2859 C2858 1.279 . S
C2860 C2862 1.353 . S
C2860 N2863 1.314 . S
C2860 H2866 0.930 . S
C2861 N2863 1.279 . S
C2861 C2864 1.358 . S
C2861 H2867 0.930 . S
C2862 C2860 1.353 . S
C2862 C2865 1.348 . S
C2862 H2900 0.929 . S
N2863 Li2818 1.990 . S
N2863 C2860 1.314 . S
N2863 C2861 1.279 . S
C2864 C2861 1.358 . S
C2864 C2865 1.356 . S
C2864 H2901 0.930 . S
C2865 C2862 1.348 . S
C2865 C2864 1.356 . S
H2866 C2860 0.930 . S
H2867 C2861 0.930 . S
C2868 N2869 1.314 . S
C2868 C2870 1.353 . S
C2868 H2874 0.930 . S
N2869 Li2819 1.990 . S
N2869 C2868 1.314 . S
N2869 C2872 1.279 . S
C2870 C2868 1.353 . S
C2870 C2873 1.348 . S
C2870 H2902 0.929 . S
C2871 C2872 1.358 . S
C2871 C2873 1.356 . S
C2871 H2903 0.930 . S
C2872 N2869 1.279 . S
C2872 C2871 1.358 . S
C2872 H2875 0.930 . S
C2873 C2870 1.348 . S
C2873 C2871 1.356 . S
H2874 C2868 0.930 . S
H2875 C2872 0.930 . S
O2876 Li2816 1.956 . S
O2876 Li2817 1.970 . S
O2876 Li2818 1.961 . S
O2876 C2820 1.325 . S
O2877 Li2816 1.970 . S
O2877 Li2817 1.956 . S
O2877 Li2819 1.961 . S
O2877 C2826 1.325 . S
O2878 Li2816 1.961 . S
O2878 Li2818 1.956 . S
O2878 Li2819 1.970 . S
O2878 C2848 1.325 . S
O2879 Li2817 1.961 . S
O2879 Li2818 1.970 . S
O2879 Li2819 1.956 . S
O2879 C2854 1.325 . S
H2880 C2822 0.929 . S
H2881 C2823 0.930 . S
H2882 C2824 0.930 . S
H2883 C2825 0.930 . S
H2884 C2827 0.930 . S
H2885 C2829 0.929 . S
H2886 C2830 0.930 . S
H2887 C2831 0.930 . S
H2888 C2834 0.930 . S
H2889 C2837 0.929 . S
H2890 C2842 0.929 . S
H2891 C2843 0.930 . S
H2892 C2850 0.929 . S
H2893 C2851 0.930 . S
H2894 C2852 0.930 . S
H2895 C2853 0.930 . S
H2896 C2855 0.929 . S
H2897 C2856 0.930 . S
H2898 C2857 0.930 . S
H2899 C2858 0.930 . S
H2900 C2862 0.929 . S
H2901 C2864 0.930 . S
H2902 C2870 0.929 . S
H2903 C2871 0.930 . S
Li2904 N2921 1.990 . S
Li2904 O2964 1.956 . S
Li2904 O2965 1.970 . S
Li2904 O2966 1.961 . S
Li2905 N2929 1.990 . S
Li2905 O2964 1.970 . S
Li2905 O2965 1.956 . S
Li2905 O2967 1.961 . S
Li2906 N2951 1.990 . S
Li2906 O2964 1.961 . S
Li2906 O2966 1.956 . S
Li2906 O2967 1.970 . S
Li2907 N2957 1.990 . S
Li2907 O2965 1.961 . S
Li2907 O2966 1.970 . S
Li2907 O2967 1.956 . S
C2908 C2910 1.348 . S
C2908 C2911 1.356 . S
C2908 O2964 1.325 . S
N2909 C2912 1.314 . S
N2909 C2913 1.279 . S
C2910 C2908 1.348 . S
C2910 C2912 1.353 . S
C2910 H2968 0.929 . S
C2911 C2908 1.356 . S
C2911 C2913 1.358 . S
C2911 H2969 0.930 . S
C2912 N2909 1.314 . S
C2912 C2910 1.353 . S
C2912 H2970 0.930 . S
C2913 N2909 1.279 . S
C2913 C2911 1.358 . S
C2913 H2971 0.930 . S
C2914 C2917 1.348 . S
C2914 C2918 1.356 . S
C2914 O2965 1.325 . S
C2915 N2916 1.279 . S
C2915 C2918 1.358 . S
C2915 H2972 0.930 . S
N2916 C2915 1.279 . S
N2916 C2919 1.314 . S
C2917 C2914 1.348 . S
C2917 C2919 1.353 . S
C2917 H2973 0.929 . S
C2918 C2914 1.356 . S
C2918 C2915 1.358 . S
C2918 H2974 0.930 . S
C2919 N2916 1.314 . S
C2919 C2917 1.353 . S
C2919 H2975 0.930 . S
C2920 N2921 1.314 . S
C2920 C2925 1.353 . S
C2920 H2926 0.930 . S
N2921 Li2904 1.990 . S
N2921 C2920 1.314 . S
N2921 C2923 1.279 . S
C2922 C2923 1.358 . S
C2922 C2924 1.356 . S
C2922 H2976 0.930 . S
C2923 N2921 1.279 . S
C2923 C2922 1.358 . S
C2923 H2927 0.930 . S
C2924 C2922 1.356 . S
C2924 C2925 1.348 . S
C2925 C2920 1.353 . S
C2925 C2924 1.348 . S
C2925 H2977 0.929 . S
H2926 C2920 0.930 . S
H2927 C2923 0.930 . S
C2928 N2929 1.314 . S
C2928 C2930 1.353 . S
C2928 H2934 0.930 . S
N2929 Li2905 1.990 . S
N2929 C2928 1.314 . S
N2929 C2932 1.279 . S
C2930 C2928 1.353 . S
C2930 C2933 1.348 . S
C2930 H2978 0.929 . S
C2931 C2932 1.358 . S
C2931 C2933 1.356 . S
C2931 H2979 0.930 . S
C2932 N2929 1.279 . S
C2932 C2931 1.358 . S
C2932 H2935 0.930 . S
C2933 C2930 1.348 . S
C2933 C2931 1.356 . S
H2934 C2928 0.930 . S
H2935 C2932 0.930 . S
C2936 C2938 1.348 . S
C2936 C2939 1.356 . S
C2936 O2966 1.325 . S
N2937 C2940 1.314 . S
N2937 C2941 1.279 . S
C2938 C2936 1.348 . S
C2938 C2940 1.353 . S
C2938 H2980 0.929 . S
C2939 C2936 1.356 . S
C2939 C2941 1.358 . S
C2939 H2981 0.930 . S
C2940 N2937 1.314 . S
C2940 C2938 1.353 . S
C2940 H2982 0.930 . S
C2941 N2937 1.279 . S
C2941 C2939 1.358 . S
C2941 H2983 0.930 . S
C2942 C2943 1.348 . S
C2942 C2944 1.356 . S
C2942 O2967 1.325 . S
C2943 C2942 1.348 . S
C2943 C2945 1.353 . S
C2943 H2984 0.929 . S
C2944 C2942 1.356 . S
C2944 C2946 1.358 . S
C2944 H2985 0.930 . S
C2945 C2943 1.353 . S
C2945 N2947 1.314 . S
C2945 H2986 0.930 . S
C2946 C2944 1.358 . S
C2946 N2947 1.279 . S
C2946 H2987 0.930 . S
N2947 C2945 1.314 . S
N2947 C2946 1.279 . S
C2948 C2950 1.353 . S
C2948 N2951 1.314 . S
C2948 H2954 0.930 . S
C2949 N2951 1.279 . S
C2949 C2952 1.358 . S
C2949 H2955 0.930 . S
C2950 C2948 1.353 . S
C2950 C2953 1.348 . S
C2950 H2988 0.929 . S
N2951 Li2906 1.990 . S
N2951 C2948 1.314 . S
N2951 C2949 1.279 . S
C2952 C2949 1.358 . S
C2952 C2953 1.356 . S
C2952 H2989 0.930 . S
C2953 C2950 1.348 . S
C2953 C2952 1.356 . S
H2954 C2948 0.930 . S
H2955 C2949 0.930 . S
C2956 N2957 1.314 . S
C2956 C2958 1.353 . S
C2956 H2962 0.930 . S
N2957 Li2907 1.990 . S
N2957 C2956 1.314 . S
N2957 C2960 1.279 . S
C2958 C2956 1.353 . S
C2958 C2961 1.348 . S
C2958 H2990 0.929 . S
C2959 C2960 1.358 . S
C2959 C2961 1.356 . S
C2959 H2991 0.930 . S
C2960 N2957 1.279 . S
C2960 C2959 1.358 . S
C2960 H2963 0.930 . S
C2961 C2958 1.348 . S
C2961 C2959 1.356 . S
H2962 C2956 0.930 . S
H2963 C2960 0.930 . S
O2964 Li2904 1.956 . S
O2964 Li2905 1.970 . S
O2964 Li2906 1.961 . S
O2964 C2908 1.325 . S
O2965 Li2904 1.970 . S
O2965 Li2905 1.956 . S
O2965 Li2907 1.961 . S
O2965 C2914 1.325 . S
O2966 Li2904 1.961 . S
O2966 Li2906 1.956 . S
O2966 Li2907 1.970 . S
O2966 C2936 1.325 . S
O2967 Li2905 1.961 . S
O2967 Li2906 1.970 . S
O2967 Li2907 1.956 . S
O2967 C2942 1.325 . S
H2968 C2910 0.929 . S
H2969 C2911 0.930 . S
H2970 C2912 0.930 . S
H2971 C2913 0.930 . S
H2972 C2915 0.930 . S
H2973 C2917 0.929 . S
H2974 C2918 0.930 . S
H2975 C2919 0.930 . S
H2976 C2922 0.930 . S
H2977 C2925 0.929 . S
H2978 C2930 0.929 . S
H2979 C2931 0.930 . S
H2980 C2938 0.929 . S
H2981 C2939 0.930 . S
H2982 C2940 0.930 . S
H2983 C2941 0.930 . S
H2984 C2943 0.929 . S
H2985 C2944 0.930 . S
H2986 C2945 0.930 . S
H2987 C2946 0.930 . S
H2988 C2950 0.929 . S
H2989 C2952 0.930 . S
H2990 C2958 0.929 . S
H2991 C2959 0.930 . S
Li2992 N3009 1.990 . S
Li2992 O3052 1.956 . S
Li2992 O3053 1.970 . S
Li2992 O3054 1.961 . S
Li2993 N3017 1.990 . S
Li2993 O3052 1.970 . S
Li2993 O3053 1.956 . S
Li2993 O3055 1.961 . S
Li2994 N3039 1.990 . S
Li2994 O3052 1.961 . S
Li2994 O3054 1.956 . S
Li2994 O3055 1.970 . S
Li2995 N3045 1.990 . S
Li2995 O3053 1.961 . S
Li2995 O3054 1.970 . S
Li2995 O3055 1.956 . S
C2996 C2998 1.348 . S
C2996 C2999 1.356 . S
C2996 O3052 1.325 . S
N2997 C3000 1.314 . S
N2997 C3001 1.279 . S
C2998 C2996 1.348 . S
C2998 C3000 1.353 . S
C2998 H3056 0.929 . S
C2999 C2996 1.356 . S
C2999 C3001 1.358 . S
C2999 H3057 0.930 . S
C3000 N2997 1.314 . S
C3000 C2998 1.353 . S
C3000 H3058 0.930 . S
C3001 N2997 1.279 . S
C3001 C2999 1.358 . S
C3001 H3059 0.930 . S
C3002 C3005 1.348 . S
C3002 C3006 1.356 . S
C3002 O3053 1.325 . S
C3003 N3004 1.279 . S
C3003 C3006 1.358 . S
C3003 H3060 0.930 . S
N3004 C3003 1.279 . S
N3004 C3007 1.314 . S
C3005 C3002 1.348 . S
C3005 C3007 1.353 . S
C3005 H3061 0.929 . S
C3006 C3002 1.356 . S
C3006 C3003 1.358 . S
C3006 H3062 0.930 . S
C3007 N3004 1.314 . S
C3007 C3005 1.353 . S
C3007 H3063 0.930 . S
C3008 N3009 1.314 . S
C3008 C3013 1.353 . S
C3008 H3014 0.930 . S
N3009 Li2992 1.990 . S
N3009 C3008 1.314 . S
N3009 C3011 1.279 . S
C3010 C3011 1.358 . S
C3010 C3012 1.356 . S
C3010 H3064 0.930 . S
C3011 N3009 1.279 . S
C3011 C3010 1.358 . S
C3011 H3015 0.930 . S
C3012 C3010 1.356 . S
C3012 C3013 1.348 . S
C3013 C3008 1.353 . S
C3013 C3012 1.348 . S
C3013 H3065 0.929 . S
H3014 C3008 0.930 . S
H3015 C3011 0.930 . S
C3016 N3017 1.314 . S
C3016 C3018 1.353 . S
C3016 H3022 0.930 . S
N3017 Li2993 1.990 . S
N3017 C3016 1.314 . S
N3017 C3020 1.279 . S
C3018 C3016 1.353 . S
C3018 C3021 1.348 . S
C3018 H3066 0.929 . S
C3019 C3020 1.358 . S
C3019 C3021 1.356 . S
C3019 H3067 0.930 . S
C3020 N3017 1.279 . S
C3020 C3019 1.358 . S
C3020 H3023 0.930 . S
C3021 C3018 1.348 . S
C3021 C3019 1.356 . S
H3022 C3016 0.930 . S
H3023 C3020 0.930 . S
C3024 C3026 1.348 . S
C3024 C3027 1.356 . S
C3024 O3054 1.325 . S
N3025 C3028 1.314 . S
N3025 C3029 1.279 . S
C3026 C3024 1.348 . S
C3026 C3028 1.353 . S
C3026 H3068 0.929 . S
C3027 C3024 1.356 . S
C3027 C3029 1.358 . S
C3027 H3069 0.930 . S
C3028 N3025 1.314 . S
C3028 C3026 1.353 . S
C3028 H3070 0.930 . S
C3029 N3025 1.279 . S
C3029 C3027 1.358 . S
C3029 H3071 0.930 . S
C3030 C3031 1.348 . S
C3030 C3032 1.356 . S
C3030 O3055 1.325 . S
C3031 C3030 1.348 . S
C3031 C3033 1.353 . S
C3031 H3072 0.929 . S
C3032 C3030 1.356 . S
C3032 C3034 1.358 . S
C3032 H3073 0.930 . S
C3033 C3031 1.353 . S
C3033 N3035 1.314 . S
C3033 H3074 0.930 . S
C3034 C3032 1.358 . S
C3034 N3035 1.279 . S
C3034 H3075 0.930 . S
N3035 C3033 1.314 . S
N3035 C3034 1.279 . S
C3036 C3038 1.353 . S
C3036 N3039 1.314 . S
C3036 H3042 0.930 . S
C3037 N3039 1.279 . S
C3037 C3040 1.358 . S
C3037 H3043 0.930 . S
C3038 C3036 1.353 . S
C3038 C3041 1.348 . S
C3038 H3076 0.929 . S
N3039 Li2994 1.990 . S
N3039 C3036 1.314 . S
N3039 C3037 1.279 . S
C3040 C3037 1.358 . S
C3040 C3041 1.356 . S
C3040 H3077 0.930 . S
C3041 C3038 1.348 . S
C3041 C3040 1.356 . S
H3042 C3036 0.930 . S
H3043 C3037 0.930 . S
C3044 N3045 1.314 . S
C3044 C3046 1.353 . S
C3044 H3050 0.930 . S
N3045 Li2995 1.990 . S
N3045 C3044 1.314 . S
N3045 C3048 1.279 . S
C3046 C3044 1.353 . S
C3046 C3049 1.348 . S
C3046 H3078 0.929 . S
C3047 C3048 1.358 . S
C3047 C3049 1.356 . S
C3047 H3079 0.930 . S
C3048 N3045 1.279 . S
C3048 C3047 1.358 . S
C3048 H3051 0.930 . S
C3049 C3046 1.348 . S
C3049 C3047 1.356 . S
H3050 C3044 0.930 . S
H3051 C3048 0.930 . S
O3052 Li2992 1.956 . S
O3052 Li2993 1.970 . S
O3052 Li2994 1.961 . S
O3052 C2996 1.325 . S
O3053 Li2992 1.970 . S
O3053 Li2993 1.956 . S
O3053 Li2995 1.961 . S
O3053 C3002 1.325 . S
O3054 Li2992 1.961 . S
O3054 Li2994 1.956 . S
O3054 Li2995 1.970 . S
O3054 C3024 1.325 . S
O3055 Li2993 1.961 . S
O3055 Li2994 1.970 . S
O3055 Li2995 1.956 . S
O3055 C3030 1.325 . S
H3056 C2998 0.929 . S
H3057 C2999 0.930 . S
H3058 C3000 0.930 . S
H3059 C3001 0.930 . S
H3060 C3003 0.930 . S
H3061 C3005 0.929 . S
H3062 C3006 0.930 . S
H3063 C3007 0.930 . S
H3064 C3010 0.930 . S
H3065 C3013 0.929 . S
H3066 C3018 0.929 . S
H3067 C3019 0.930 . S
H3068 C3026 0.929 . S
H3069 C3027 0.930 . S
H3070 C3028 0.930 . S
H3071 C3029 0.930 . S
H3072 C3031 0.929 . S
H3073 C3032 0.930 . S
H3074 C3033 0.930 . S
H3075 C3034 0.930 . S
H3076 C3038 0.929 . S
H3077 C3040 0.930 . S
H3078 C3046 0.929 . S
H3079 C3047 0.930 . S
Li3080 N3097 1.990 . S
Li3080 O3140 1.956 . S
Li3080 O3141 1.970 . S
Li3080 O3142 1.961 . S
Li3081 N3105 1.990 . S
Li3081 O3140 1.970 . S
Li3081 O3141 1.956 . S
Li3081 O3143 1.961 . S
Li3082 N3127 1.990 . S
Li3082 O3140 1.961 . S
Li3082 O3142 1.956 . S
Li3082 O3143 1.970 . S
Li3083 N3133 1.990 . S
Li3083 O3141 1.961 . S
Li3083 O3142 1.970 . S
Li3083 O3143 1.956 . S
C3084 C3086 1.348 . S
C3084 C3087 1.356 . S
C3084 O3140 1.325 . S
N3085 C3088 1.314 . S
N3085 C3089 1.279 . S
C3086 C3084 1.348 . S
C3086 C3088 1.353 . S
C3086 H3144 0.929 . S
C3087 C3084 1.356 . S
C3087 C3089 1.358 . S
C3087 H3145 0.930 . S
C3088 N3085 1.314 . S
C3088 C3086 1.353 . S
C3088 H3146 0.930 . S
C3089 N3085 1.279 . S
C3089 C3087 1.358 . S
C3089 H3147 0.930 . S
C3090 C3093 1.348 . S
C3090 C3094 1.356 . S
C3090 O3141 1.325 . S
C3091 N3092 1.279 . S
C3091 C3094 1.358 . S
C3091 H3148 0.930 . S
N3092 C3091 1.279 . S
N3092 C3095 1.314 . S
C3093 C3090 1.348 . S
C3093 C3095 1.353 . S
C3093 H3149 0.929 . S
C3094 C3090 1.356 . S
C3094 C3091 1.358 . S
C3094 H3150 0.930 . S
C3095 N3092 1.314 . S
C3095 C3093 1.353 . S
C3095 H3151 0.930 . S
C3096 N3097 1.314 . S
C3096 C3101 1.353 . S
C3096 H3102 0.930 . S
N3097 Li3080 1.990 . S
N3097 C3096 1.314 . S
N3097 C3099 1.279 . S
C3098 C3099 1.358 . S
C3098 C3100 1.356 . S
C3098 H3152 0.930 . S
C3099 N3097 1.279 . S
C3099 C3098 1.358 . S
C3099 H3103 0.930 . S
C3100 C3098 1.356 . S
C3100 C3101 1.348 . S
C3101 C3096 1.353 . S
C3101 C3100 1.348 . S
C3101 H3153 0.929 . S
H3102 C3096 0.930 . S
H3103 C3099 0.930 . S
C3104 N3105 1.314 . S
C3104 C3106 1.353 . S
C3104 H3110 0.930 . S
N3105 Li3081 1.990 . S
N3105 C3104 1.314 . S
N3105 C3108 1.279 . S
C3106 C3104 1.353 . S
C3106 C3109 1.348 . S
C3106 H3154 0.929 . S
C3107 C3108 1.358 . S
C3107 C3109 1.356 . S
C3107 H3155 0.930 . S
C3108 N3105 1.279 . S
C3108 C3107 1.358 . S
C3108 H3111 0.930 . S
C3109 C3106 1.348 . S
C3109 C3107 1.356 . S
H3110 C3104 0.930 . S
H3111 C3108 0.930 . S
C3112 C3114 1.348 . S
C3112 C3115 1.356 . S
C3112 O3142 1.325 . S
N3113 C3116 1.314 . S
N3113 C3117 1.279 . S
C3114 C3112 1.348 . S
C3114 C3116 1.353 . S
C3114 H3156 0.929 . S
C3115 C3112 1.356 . S
C3115 C3117 1.358 . S
C3115 H3157 0.930 . S
C3116 N3113 1.314 . S
C3116 C3114 1.353 . S
C3116 H3158 0.930 . S
C3117 N3113 1.279 . S
C3117 C3115 1.358 . S
C3117 H3159 0.930 . S
C3118 C3119 1.348 . S
C3118 C3120 1.356 . S
C3118 O3143 1.325 . S
C3119 C3118 1.348 . S
C3119 C3121 1.353 . S
C3119 H3160 0.929 . S
C3120 C3118 1.356 . S
C3120 C3122 1.358 . S
C3120 H3161 0.930 . S
C3121 C3119 1.353 . S
C3121 N3123 1.314 . S
C3121 H3162 0.930 . S
C3122 C3120 1.358 . S
C3122 N3123 1.279 . S
C3122 H3163 0.930 . S
N3123 C3121 1.314 . S
N3123 C3122 1.279 . S
C3124 C3126 1.353 . S
C3124 N3127 1.314 . S
C3124 H3130 0.930 . S
C3125 N3127 1.279 . S
C3125 C3128 1.358 . S
C3125 H3131 0.930 . S
C3126 C3124 1.353 . S
C3126 C3129 1.348 . S
C3126 H3164 0.929 . S
N3127 Li3082 1.990 . S
N3127 C3124 1.314 . S
N3127 C3125 1.279 . S
C3128 C3125 1.358 . S
C3128 C3129 1.356 . S
C3128 H3165 0.930 . S
C3129 C3126 1.348 . S
C3129 C3128 1.356 . S
H3130 C3124 0.930 . S
H3131 C3125 0.930 . S
C3132 N3133 1.314 . S
C3132 C3134 1.353 . S
C3132 H3138 0.930 . S
N3133 Li3083 1.990 . S
N3133 C3132 1.314 . S
N3133 C3136 1.279 . S
C3134 C3132 1.353 . S
C3134 C3137 1.348 . S
C3134 H3166 0.929 . S
C3135 C3136 1.358 . S
C3135 C3137 1.356 . S
C3135 H3167 0.930 . S
C3136 N3133 1.279 . S
C3136 C3135 1.358 . S
C3136 H3139 0.930 . S
C3137 C3134 1.348 . S
C3137 C3135 1.356 . S
H3138 C3132 0.930 . S
H3139 C3136 0.930 . S
O3140 Li3080 1.956 . S
O3140 Li3081 1.970 . S
O3140 Li3082 1.961 . S
O3140 C3084 1.325 . S
O3141 Li3080 1.970 . S
O3141 Li3081 1.956 . S
O3141 Li3083 1.961 . S
O3141 C3090 1.325 . S
O3142 Li3080 1.961 . S
O3142 Li3082 1.956 . S
O3142 Li3083 1.970 . S
O3142 C3112 1.325 . S
O3143 Li3081 1.961 . S
O3143 Li3082 1.970 . S
O3143 Li3083 1.956 . S
O3143 C3118 1.325 . S
H3144 C3086 0.929 . S
H3145 C3087 0.930 . S
H3146 C3088 0.930 . S
H3147 C3089 0.930 . S
H3148 C3091 0.930 . S
H3149 C3093 0.929 . S
H3150 C3094 0.930 . S
H3151 C3095 0.930 . S
H3152 C3098 0.930 . S
H3153 C3101 0.929 . S
H3154 C3106 0.929 . S
H3155 C3107 0.930 . S
H3156 C3114 0.929 . S
H3157 C3115 0.930 . S
H3158 C3116 0.930 . S
H3159 C3117 0.930 . S
H3160 C3119 0.929 . S
H3161 C3120 0.930 . S
H3162 C3121 0.930 . S
H3163 C3122 0.930 . S
H3164 C3126 0.929 . S
H3165 C3128 0.930 . S
H3166 C3134 0.929 . S
H3167 C3135 0.930 . S
H3168 C3174 0.930 . S
H3169 C3177 0.930 . S
H3170 C3178 0.930 . S
H3171 C3179 0.930 . S
H3172 C3182 0.930 . S
H3173 C3183 0.930 . S
C3174 H3168 0.930 . S
C3174 C3175 1.355 . S
C3174 C3176 1.415 . S
C3175 C3174 1.355 . S
C3175 C3177 1.419 . S
C3176 C3174 1.415 . S
C3176 C3181 1.425 . S
C3176 C3183 1.409 . S
C3177 H3169 0.930 . S
C3177 C3175 1.419 . S
C3177 C3178 1.362 . S
C3178 H3170 0.930 . S
C3178 C3177 1.362 . S
C3178 C3181 1.409 . S
C3179 H3171 0.930 . S
C3179 C3180 1.355 1_455 S
C3179 C3181 1.415 . S
C3180 C3179 1.355 1_655 S
C3180 C3182 1.419 . S
C3181 C3176 1.425 . S
C3181 C3178 1.409 . S
C3181 C3179 1.415 . S
C3182 H3172 0.930 . S
C3182 C3180 1.419 . S
C3182 C3183 1.362 1_655 S
C3183 H3173 0.930 . S
C3183 C3176 1.409 . S
C3183 C3182 1.362 1_455 S
H3184 C3190 0.930 . S
H3185 C3193 0.930 . S
H3186 C3194 0.930 . S
H3187 C3195 0.930 . S
H3188 C3198 0.930 . S
H3189 C3199 0.930 . S
C3190 H3184 0.930 . S
C3190 C3191 1.355 . S
C3190 C3192 1.415 . S
C3191 C3190 1.355 . S
C3191 C3193 1.419 . S
C3192 C3190 1.415 . S
C3192 C3197 1.425 . S
C3192 C3199 1.409 . S
C3193 H3185 0.930 . S
C3193 C3191 1.419 . S
C3193 C3194 1.362 . S
C3194 H3186 0.930 . S
C3194 C3193 1.362 . S
C3194 C3197 1.409 . S
C3195 H3187 0.930 . S
C3195 C3196 1.355 . S
C3195 C3197 1.415 . S
C3196 C3195 1.355 . S
C3196 C3198 1.419 . S
C3197 C3192 1.425 . S
C3197 C3194 1.409 . S
C3197 C3195 1.415 . S
C3198 H3188 0.930 . S
C3198 C3196 1.419 . S
C3198 C3199 1.362 . S
C3199 H3189 0.930 . S
C3199 C3192 1.409 . S
C3199 C3198 1.362 . S
H3200 C3206 0.930 1_545 S
H3201 C3209 0.930 1_545 S
H3202 C3210 0.930 . S
H3203 C3211 0.930 . S
H3204 C3214 0.930 . S
H3205 C3215 0.930 . S
C3206 H3200 0.930 1_565 S
C3206 C3207 1.355 1_565 S
C3206 C3208 1.415 . S
C3207 C3206 1.355 1_545 S
C3207 C3209 1.419 1_545 S
C3208 C3206 1.415 . S
C3208 C3213 1.425 . S
C3208 C3215 1.409 . S
C3209 H3201 0.930 1_565 S
C3209 C3207 1.419 1_565 S
C3209 C3210 1.362 . S
C3210 H3202 0.930 . S
C3210 C3209 1.362 . S
C3210 C3213 1.409 . S
C3211 H3203 0.930 . S
C3211 C3212 1.355 . S
C3211 C3213 1.415 . S
C3212 C3211 1.355 . S
C3212 C3214 1.419 . S
C3213 C3208 1.425 . S
C3213 C3210 1.409 . S
C3213 C3211 1.415 . S
C3214 H3204 0.930 . S
C3214 C3212 1.419 . S
C3214 C3215 1.362 . S
C3215 H3205 0.930 . S
C3215 C3208 1.409 . S
C3215 C3214 1.362 . S
H3216 C3222 0.930 . S
H3217 C3225 0.930 . S
H3218 C3226 0.930 . S
H3219 C3227 0.930 1_565 S
H3220 C3230 0.930 1_565 S
H3221 C3231 0.930 . S
C3222 H3216 0.930 . S
C3222 C3223 1.355 . S
C3222 C3224 1.415 . S
C3223 C3222 1.355 . S
C3223 C3225 1.419 . S
C3224 C3222 1.415 . S
C3224 C3229 1.425 . S
C3224 C3231 1.409 . S
C3225 H3217 0.930 . S
C3225 C3223 1.419 . S
C3225 C3226 1.362 . S
C3226 H3218 0.930 . S
C3226 C3225 1.362 . S
C3226 C3229 1.409 . S
C3227 H3219 0.930 1_545 S
C3227 C3228 1.355 1_545 S
C3227 C3229 1.415 . S
C3228 C3227 1.355 1_565 S
C3228 C3230 1.419 1_565 S
C3229 C3224 1.425 . S
C3229 C3226 1.409 . S
C3229 C3227 1.415 . S
C3230 H3220 0.930 1_545 S
C3230 C3228 1.419 1_545 S
C3230 C3231 1.362 . S
C3231 H3221 0.930 . S
C3231 C3224 1.409 . S
C3231 C3230 1.362 . S
H3232 C3238 0.930 . S
H3233 C3241 0.930 . S
H3234 C3242 0.930 . S
H3235 C3243 0.930 . S
H3236 C3246 0.930 . S
H3237 C3247 0.930 . S
C3238 H3232 0.930 . S
C3238 C3239 1.355 . S
C3238 C3240 1.415 . S
C3239 C3238 1.355 . S
C3239 C3241 1.419 . S
C3240 C3238 1.415 . S
C3240 C3245 1.425 . S
C3240 C3247 1.409 . S
C3241 H3233 0.930 . S
C3241 C3239 1.419 . S
C3241 C3242 1.362 . S
C3242 H3234 0.930 . S
C3242 C3241 1.362 . S
C3242 C3245 1.409 . S
C3243 H3235 0.930 . S
C3243 C3244 1.355 1_655 S
C3243 C3245 1.415 . S
C3244 C3243 1.355 1_455 S
C3244 C3246 1.419 . S
C3245 C3240 1.425 . S
C3245 C3242 1.409 . S
C3245 C3243 1.415 . S
C3246 H3236 0.930 . S
C3246 C3244 1.419 . S
C3246 C3247 1.362 1_455 S
C3247 H3237 0.930 . S
C3247 C3240 1.409 . S
C3247 C3246 1.362 1_655 S
H3248 C3254 0.930 . S
H3249 C3257 0.930 . S
H3250 C3258 0.930 . S
H3251 C3259 0.930 . S
H3252 C3262 0.930 . S
H3253 C3263 0.930 . S
C3254 H3248 0.930 . S
C3254 C3255 1.355 . S
C3254 C3256 1.415 . S
C3255 C3254 1.355 . S
C3255 C3257 1.419 . S
C3256 C3254 1.415 . S
C3256 C3261 1.425 . S
C3256 C3263 1.409 . S
C3257 H3249 0.930 . S
C3257 C3255 1.419 . S
C3257 C3258 1.362 . S
C3258 H3250 0.930 . S
C3258 C3257 1.362 . S
C3258 C3261 1.409 . S
C3259 H3251 0.930 . S
C3259 C3260 1.355 . S
C3259 C3261 1.415 . S
C3260 C3259 1.355 . S
C3260 C3262 1.419 . S
C3261 C3256 1.425 . S
C3261 C3258 1.409 . S
C3261 C3259 1.415 . S
C3262 H3252 0.930 . S
C3262 C3260 1.419 . S
C3262 C3263 1.362 . S
C3263 H3253 0.930 . S
C3263 C3256 1.409 . S
C3263 C3262 1.362 . S
H3264 C3270 0.930 . S
H3265 C3273 0.930 . S
H3266 C3274 0.930 . S
H3267 C3275 0.930 1_455 S
H3268 C3278 0.930 1_455 S
H3269 C3279 0.930 . S
C3270 H3264 0.930 . S
C3270 C3271 1.355 . S
C3270 C3272 1.415 . S
C3271 C3270 1.355 . S
C3271 C3273 1.419 . S
C3272 C3270 1.415 . S
C3272 C3277 1.425 . S
C3272 C3279 1.409 . S
C3273 H3265 0.930 . S
C3273 C3271 1.419 . S
C3273 C3274 1.362 . S
C3274 H3266 0.930 . S
C3274 C3273 1.362 . S
C3274 C3277 1.409 . S
C3275 H3267 0.930 1_655 S
C3275 C3276 1.355 1_655 S
C3275 C3277 1.415 . S
C3276 C3275 1.355 1_455 S
C3276 C3278 1.419 1_455 S
C3277 C3272 1.425 . S
C3277 C3274 1.409 . S
C3277 C3275 1.415 . S
C3278 H3268 0.930 1_655 S
C3278 C3276 1.419 1_655 S
C3278 C3279 1.362 . S
C3279 H3269 0.930 . S
C3279 C3272 1.409 . S
C3279 C3278 1.362 . S
H3280 C3286 0.930 . S
H3281 C3289 0.930 . S
H3282 C3290 0.930 . S
H3283 C3291 0.930 . S
H3284 C3294 0.930 . S
H3285 C3295 0.930 . S
C3286 H3280 0.930 . S
C3286 C3287 1.355 . S
C3286 C3288 1.415 . S
C3287 C3286 1.355 . S
C3287 C3289 1.419 . S
C3288 C3286 1.415 . S
C3288 C3293 1.425 . S
C3288 C3295 1.409 . S
C3289 H3281 0.930 . S
C3289 C3287 1.419 . S
C3289 C3290 1.362 . S
C3290 H3282 0.930 . S
C3290 C3289 1.362 . S
C3290 C3293 1.409 . S
C3291 H3283 0.930 . S
C3291 C3292 1.355 . S
C3291 C3293 1.415 . S
C3292 C3291 1.355 . S
C3292 C3294 1.419 . S
C3293 C3288 1.425 . S
C3293 C3290 1.409 . S
C3293 C3291 1.415 . S
C3294 H3284 0.930 . S
C3294 C3292 1.419 . S
C3294 C3295 1.362 . S
C3295 H3285 0.930 . S
C3295 C3288 1.409 . S
C3295 C3294 1.362 . S
H3296 C3302 0.930 . S
H3297 C3305 0.930 . S
H3298 C3306 0.930 . S
H3299 C3307 0.930 . S
H3300 C3310 0.930 . S
H3301 C3311 0.930 . S
C3302 H3296 0.930 . S
C3302 C3303 1.355 1_545 S
C3302 C3304 1.415 . S
C3303 C3302 1.355 1_565 S
C3303 C3305 1.419 . S
C3304 C3302 1.415 . S
C3304 C3309 1.425 . S
C3304 C3311 1.409 . S
C3305 H3297 0.930 . S
C3305 C3303 1.419 . S
C3305 C3306 1.362 1_565 S
C3306 H3298 0.930 . S
C3306 C3305 1.362 1_545 S
C3306 C3309 1.409 . S
C3307 H3299 0.930 . S
C3307 C3308 1.355 . S
C3307 C3309 1.415 . S
C3308 C3307 1.355 . S
C3308 C3310 1.419 . S
C3309 C3304 1.425 . S
C3309 C3306 1.409 . S
C3309 C3307 1.415 . S
C3310 H3300 0.930 . S
C3310 C3308 1.419 . S
C3310 C3311 1.362 . S
C3311 H3301 0.930 . S
C3311 C3304 1.409 . S
C3311 C3310 1.362 . S
H3312 C3318 0.930 . S
H3313 C3321 0.930 . S
H3314 C3322 0.930 . S
H3315 C3323 0.930 . S
H3316 C3326 0.930 . S
H3317 C3327 0.930 . S
C3318 H3312 0.930 . S
C3318 C3319 1.355 1_565 S
C3318 C3320 1.415 . S
C3319 C3318 1.355 1_545 S
C3319 C3321 1.419 . S
C3320 C3318 1.415 . S
C3320 C3325 1.425 . S
C3320 C3327 1.409 . S
C3321 H3313 0.930 . S
C3321 C3319 1.419 . S
C3321 C3322 1.362 1_545 S
C3322 H3314 0.930 . S
C3322 C3321 1.362 1_565 S
C3322 C3325 1.409 . S
C3323 H3315 0.930 . S
C3323 C3324 1.355 . S
C3323 C3325 1.415 . S
C3324 C3323 1.355 . S
C3324 C3326 1.419 . S
C3325 C3320 1.425 . S
C3325 C3322 1.409 . S
C3325 C3323 1.415 . S
C3326 H3316 0.930 . S
C3326 C3324 1.419 . S
C3326 C3327 1.362 . S
C3327 H3317 0.930 . S
C3327 C3320 1.409 . S
C3327 C3326 1.362 . S
H3328 C3334 0.930 . S
H3329 C3337 0.930 . S
H3330 C3338 0.930 . S
H3331 C3339 0.930 . S
H3332 C3342 0.930 . S
H3333 C3343 0.930 . S
C3334 H3328 0.930 . S
C3334 C3335 1.355 . S
C3334 C3336 1.415 . S
C3335 C3334 1.355 . S
C3335 C3337 1.419 . S
C3336 C3334 1.415 . S
C3336 C3341 1.425 . S
C3336 C3343 1.409 . S
C3337 H3329 0.930 . S
C3337 C3335 1.419 . S
C3337 C3338 1.362 . S
C3338 H3330 0.930 . S
C3338 C3337 1.362 . S
C3338 C3341 1.409 . S
C3339 H3331 0.930 . S
C3339 C3340 1.355 1_455 S
C3339 C3341 1.415 . S
C3340 C3339 1.355 1_655 S
C3340 C3342 1.419 . S
C3341 C3336 1.425 . S
C3341 C3338 1.409 . S
C3341 C3339 1.415 . S
C3342 H3332 0.930 . S
C3342 C3340 1.419 . S
C3342 C3343 1.362 1_655 S
C3343 H3333 0.930 . S
C3343 C3336 1.409 . S
C3343 C3342 1.362 1_455 S
H3344 C3350 0.930 . S
H3345 C3353 0.930 . S
H3346 C3354 0.930 . S
H3347 C3355 0.930 . S
H3348 C3358 0.930 . S
H3349 C3359 0.930 . S
C3350 H3344 0.930 . S
C3350 C3351 1.355 . S
C3350 C3352 1.415 . S
C3351 C3350 1.355 . S
C3351 C3353 1.419 . S
C3352 C3350 1.415 . S
C3352 C3357 1.425 . S
C3352 C3359 1.409 . S
C3353 H3345 0.930 . S
C3353 C3351 1.419 . S
C3353 C3354 1.362 . S
C3354 H3346 0.930 . S
C3354 C3353 1.362 . S
C3354 C3357 1.409 . S
C3355 H3347 0.930 . S
C3355 C3356 1.355 . S
C3355 C3357 1.415 . S
C3356 C3355 1.355 . S
C3356 C3358 1.419 . S
C3357 C3352 1.425 . S
C3357 C3354 1.409 . S
C3357 C3355 1.415 . S
C3358 H3348 0.930 . S
C3358 C3356 1.419 . S
C3358 C3359 1.362 . S
C3359 H3349 0.930 . S
C3359 C3352 1.409 . S
C3359 C3358 1.362 . S
H3360 C3366 0.930 . S
H3361 C3369 0.930 . S
H3362 C3370 0.930 . S
H3363 C3371 0.930 . S
H3364 C3374 0.930 . S
H3365 C3375 0.930 . S
C3366 H3360 0.930 . S
C3366 C3367 1.355 . S
C3366 C3368 1.415 . S
C3367 C3366 1.355 . S
C3367 C3369 1.419 . S
C3368 C3366 1.415 . S
C3368 C3373 1.425 . S
C3368 C3375 1.409 . S
C3369 H3361 0.930 . S
C3369 C3367 1.419 . S
C3369 C3370 1.362 . S
C3370 H3362 0.930 . S
C3370 C3369 1.362 . S
C3370 C3373 1.409 . S
C3371 H3363 0.930 . S
C3371 C3372 1.355 . S
C3371 C3373 1.415 . S
C3372 C3371 1.355 . S
C3372 C3374 1.419 . S
C3373 C3368 1.425 . S
C3373 C3370 1.409 . S
C3373 C3371 1.415 . S
C3374 H3364 0.930 . S
C3374 C3372 1.419 . S
C3374 C3375 1.362 . S
C3375 H3365 0.930 . S
C3375 C3368 1.409 . S
C3375 C3374 1.362 . S
H3376 C3382 0.930 . S
H3377 C3385 0.930 . S
H3378 C3386 0.930 . S
H3379 C3387 0.930 . S
H3380 C3390 0.930 . S
H3381 C3391 0.930 . S
C3382 H3376 0.930 . S
C3382 C3383 1.355 . S
C3382 C3384 1.415 . S
C3383 C3382 1.355 . S
C3383 C3385 1.419 . S
C3384 C3382 1.415 . S
C3384 C3389 1.425 . S
C3384 C3391 1.409 . S
C3385 H3377 0.930 . S
C3385 C3383 1.419 . S
C3385 C3386 1.362 . S
C3386 H3378 0.930 . S
C3386 C3385 1.362 . S
C3386 C3389 1.409 . S
C3387 H3379 0.930 . S
C3387 C3388 1.355 . S
C3387 C3389 1.415 . S
C3388 C3387 1.355 . S
C3388 C3390 1.419 . S
C3389 C3384 1.425 . S
C3389 C3386 1.409 . S
C3389 C3387 1.415 . S
C3390 H3380 0.930 . S
C3390 C3388 1.419 . S
C3390 C3391 1.362 . S
C3391 H3381 0.930 . S
C3391 C3384 1.409 . S
C3391 C3390 1.362 . S
H3392 C3398 0.930 . S
H3393 C3401 0.930 . S
H3394 C3402 0.930 . S
H3395 C3403 0.930 . S
H3396 C3406 0.930 . S
H3397 C3407 0.930 . S
C3398 H3392 0.930 . S
C3398 C3399 1.355 . S
C3398 C3400 1.415 . S
C3399 C3398 1.355 . S
C3399 C3401 1.419 . S
C3400 C3398 1.415 . S
C3400 C3405 1.425 . S
C3400 C3407 1.409 . S
C3401 H3393 0.930 . S
C3401 C3399 1.419 . S
C3401 C3402 1.362 . S
C3402 H3394 0.930 . S
C3402 C3401 1.362 . S
C3402 C3405 1.409 . S
C3403 H3395 0.930 . S
C3403 C3404 1.355 . S
C3403 C3405 1.415 . S
C3404 C3403 1.355 . S
C3404 C3406 1.419 . S
C3405 C3400 1.425 . S
C3405 C3402 1.409 . S
C3405 C3403 1.415 . S
C3406 H3396 0.930 . S
C3406 C3404 1.419 . S
C3406 C3407 1.362 . S
C3407 H3397 0.930 . S
C3407 C3400 1.409 . S
C3407 C3406 1.362 . S
H3408 C3414 0.930 . S
H3409 C3417 0.930 . S
H3410 C3418 0.930 . S
H3411 C3419 0.930 . S
H3412 C3422 0.930 . S
H3413 C3423 0.930 . S
C3414 H3408 0.930 . S
C3414 C3415 1.355 . S
C3414 C3416 1.415 . S
C3415 C3414 1.355 . S
C3415 C3417 1.419 . S
C3416 C3414 1.415 . S
C3416 C3421 1.425 . S
C3416 C3423 1.409 . S
C3417 H3409 0.930 . S
C3417 C3415 1.419 . S
C3417 C3418 1.362 . S
C3418 H3410 0.930 . S
C3418 C3417 1.362 . S
C3418 C3421 1.409 . S
C3419 H3411 0.930 . S
C3419 C3420 1.355 . S
C3419 C3421 1.415 . S
C3420 C3419 1.355 . S
C3420 C3422 1.419 . S
C3421 C3416 1.425 . S
C3421 C3418 1.409 . S
C3421 C3419 1.415 . S
C3422 H3412 0.930 . S
C3422 C3420 1.419 . S
C3422 C3423 1.362 . S
C3423 H3413 0.930 . S
C3423 C3416 1.409 . S
C3423 C3422 1.362 . S
H3424 C3430 0.930 . S
H3425 C3433 0.930 . S
H3426 C3434 0.930 . S
H3427 C3435 0.930 . S
H3428 C3438 0.930 . S
H3429 C3439 0.930 . S
C3430 H3424 0.930 . S
C3430 C3431 1.355 . S
C3430 C3432 1.415 . S
C3431 C3430 1.355 . S
C3431 C3433 1.419 . S
C3432 C3430 1.415 . S
C3432 C3437 1.425 . S
C3432 C3439 1.409 . S
C3433 H3425 0.930 . S
C3433 C3431 1.419 . S
C3433 C3434 1.362 . S
C3434 H3426 0.930 . S
C3434 C3433 1.362 . S
C3434 C3437 1.409 . S
C3435 H3427 0.930 . S
C3435 C3436 1.355 . S
C3435 C3437 1.415 . S
C3436 C3435 1.355 . S
C3436 C3438 1.419 . S
C3437 C3432 1.425 . S
C3437 C3434 1.409 . S
C3437 C3435 1.415 . S
C3438 H3428 0.930 . S
C3438 C3436 1.419 . S
C3438 C3439 1.362 . S
C3439 H3429 0.930 . S
C3439 C3432 1.409 . S
C3439 C3438 1.362 . S
H3440 C3446 0.930 . S
H3441 C3449 0.930 . S
H3442 C3450 0.930 . S
H3443 C3451 0.930 . S
H3444 C3454 0.930 . S
H3445 C3455 0.930 . S
C3446 H3440 0.930 . S
C3446 C3447 1.355 . S
C3446 C3448 1.415 . S
C3447 C3446 1.355 . S
C3447 C3449 1.419 . S
C3448 C3446 1.415 . S
C3448 C3453 1.425 . S
C3448 C3455 1.409 . S
C3449 H3441 0.930 . S
C3449 C3447 1.419 . S
C3449 C3450 1.362 . S
C3450 H3442 0.930 . S
C3450 C3449 1.362 . S
C3450 C3453 1.409 . S
C3451 H3443 0.930 . S
C3451 C3452 1.355 . S
C3451 C3453 1.415 . S
C3452 C3451 1.355 . S
C3452 C3454 1.419 . S
C3453 C3448 1.425 . S
C3453 C3450 1.409 . S
C3453 C3451 1.415 . S
C3454 H3444 0.930 . S
C3454 C3452 1.419 . S
C3454 C3455 1.362 . S
C3455 H3445 0.930 . S
C3455 C3448 1.409 . S
C3455 C3454 1.362 . S
H3456 C3462 0.930 . S
H3457 C3465 0.930 . S
H3458 C3466 0.930 . S
H3459 C3467 0.930 . S
H3460 C3470 0.930 . S
H3461 C3471 0.930 . S
C3462 H3456 0.930 . S
C3462 C3463 1.355 . S
C3462 C3464 1.415 . S
C3463 C3462 1.355 . S
C3463 C3465 1.419 . S
C3464 C3462 1.415 . S
C3464 C3469 1.425 . S
C3464 C3471 1.409 . S
C3465 H3457 0.930 . S
C3465 C3463 1.419 . S
C3465 C3466 1.362 . S
C3466 H3458 0.930 . S
C3466 C3465 1.362 . S
C3466 C3469 1.409 . S
C3467 H3459 0.930 . S
C3467 C3468 1.355 . S
C3467 C3469 1.415 . S
C3468 C3467 1.355 . S
C3468 C3470 1.419 . S
C3469 C3464 1.425 . S
C3469 C3466 1.409 . S
C3469 C3467 1.415 . S
C3470 H3460 0.930 . S
C3470 C3468 1.419 . S
C3470 C3471 1.362 . S
C3471 H3461 0.930 . S
C3471 C3464 1.409 . S
C3471 C3470 1.362 . S
H3472 C3478 0.930 . S
H3473 C3481 0.930 . S
H3474 C3482 0.930 . S
H3475 C3483 0.930 . S
H3476 C3486 0.930 . S
H3477 C3487 0.930 . S
C3478 H3472 0.930 . S
C3478 C3479 1.355 . S
C3478 C3480 1.415 . S
C3479 C3478 1.355 . S
C3479 C3481 1.419 . S
C3480 C3478 1.415 . S
C3480 C3485 1.425 . S
C3480 C3487 1.409 . S
C3481 H3473 0.930 . S
C3481 C3479 1.419 . S
C3481 C3482 1.362 . S
C3482 H3474 0.930 . S
C3482 C3481 1.362 . S
C3482 C3485 1.409 . S
C3483 H3475 0.930 . S
C3483 C3484 1.355 . S
C3483 C3485 1.415 . S
C3484 C3483 1.355 . S
C3484 C3486 1.419 . S
C3485 C3480 1.425 . S
C3485 C3482 1.409 . S
C3485 C3483 1.415 . S
C3486 H3476 0.930 . S
C3486 C3484 1.419 . S
C3486 C3487 1.362 . S
C3487 H3477 0.930 . S
C3487 C3480 1.409 . S
C3487 C3486 1.362 . S
H3488 C3494 0.930 . S
H3489 C3497 0.930 . S
H3490 C3498 0.930 . S
H3491 C3499 0.930 . S
H3492 C3502 0.930 . S
H3493 C3503 0.930 . S
C3494 H3488 0.930 . S
C3494 C3495 1.355 . S
C3494 C3496 1.415 . S
C3495 C3494 1.355 . S
C3495 C3497 1.419 . S
C3496 C3494 1.415 . S
C3496 C3501 1.425 . S
C3496 C3503 1.409 . S
C3497 H3489 0.930 . S
C3497 C3495 1.419 . S
C3497 C3498 1.362 . S
C3498 H3490 0.930 . S
C3498 C3497 1.362 . S
C3498 C3501 1.409 . S
C3499 H3491 0.930 . S
C3499 C3500 1.355 . S
C3499 C3501 1.415 . S
C3500 C3499 1.355 . S
C3500 C3502 1.419 . S
C3501 C3496 1.425 . S
C3501 C3498 1.409 . S
C3501 C3499 1.415 . S
C3502 H3492 0.930 . S
C3502 C3500 1.419 . S
C3502 C3503 1.362 . S
C3503 H3493 0.930 . S
C3503 C3496 1.409 . S
C3503 C3502 1.362 . S
H3504 C3510 0.930 . S
H3505 C3513 0.930 . S
H3506 C3514 0.930 . S
H3507 C3515 0.938 1_556 S
H3508 C3518 0.930 . S
H3509 C3519 0.930 . S
C3510 H3504 0.930 . S
C3510 C3511 1.355 . S
C3510 C3512 1.415 . S
C3511 C3510 1.355 . S
C3511 C3513 1.419 . S
C3512 C3510 1.415 . S
C3512 C3517 1.425 . S
C3512 C3519 1.409 . S
C3513 H3505 0.930 . S
C3513 C3511 1.419 . S
C3513 C3514 1.362 . S
C3514 H3506 0.930 . S
C3514 C3513 1.362 . S
C3514 C3517 1.409 . S
C3515 H3507 0.938 1_554 S
C3515 C3516 1.355 . S
C3515 C3517 1.415 . S
C3516 C3515 1.355 . S
C3516 C3518 1.419 . S
C3517 C3512 1.425 . S
C3517 C3514 1.409 . S
C3517 C3515 1.415 . S
C3518 H3508 0.930 . S
C3518 C3516 1.419 . S
C3518 C3519 1.362 . S
C3519 H3509 0.930 . S
C3519 C3512 1.409 . S
C3519 C3518 1.362 . S
H3520 C3526 0.930 . S
H3521 C3529 0.930 1_556 S
H3522 C3530 0.994 . S
H3523 C3531 0.930 . S
H3524 C3534 0.930 . S
H3525 C3535 0.930 . S
C3526 H3520 0.930 . S
C3526 C3527 1.355 . S
C3526 C3528 1.415 . S
C3527 C3526 1.355 . S
C3527 C3529 1.419 . S
C3528 C3526 1.415 . S
C3528 C3533 1.425 . S
C3528 C3535 1.409 . S
C3529 H3521 0.930 1_554 S
C3529 C3527 1.419 . S
C3529 C3530 1.362 . S
C3530 H3522 0.994 . S
C3530 C3529 1.362 . S
C3530 C3533 1.409 . S
C3531 H3523 0.930 . S
C3531 C3532 1.355 . S
C3531 C3533 1.415 . S
C3532 C3531 1.355 . S
C3532 C3534 1.419 . S
C3533 C3528 1.425 . S
C3533 C3530 1.409 . S
C3533 C3531 1.415 . S
C3534 H3524 0.930 . S
C3534 C3532 1.419 . S
C3534 C3535 1.362 . S
C3535 H3525 0.930 . S
C3535 C3528 1.409 . S
C3535 C3534 1.362 . S
H3536 C3542 0.930 . S
H3537 C3545 0.930 . S
H3538 C3546 0.930 . S
H3539 C3547 0.930 . S
H3540 C3550 0.930 . S
H3541 C3551 0.930 . S
C3542 H3536 0.930 . S
C3542 C3543 1.355 . S
C3542 C3544 1.415 . S
C3543 C3542 1.355 . S
C3543 C3545 1.419 . S
C3544 C3542 1.415 . S
C3544 C3549 1.425 . S
C3544 C3551 1.409 . S
C3545 H3537 0.930 . S
C3545 C3543 1.419 . S
C3545 C3546 1.362 . S
C3546 H3538 0.930 . S
C3546 C3545 1.362 . S
C3546 C3549 1.409 . S
C3547 H3539 0.930 . S
C3547 C3548 1.355 . S
C3547 C3549 1.415 . S
C3548 C3547 1.355 . S
C3548 C3550 1.419 . S
C3549 C3544 1.425 . S
C3549 C3546 1.409 . S
C3549 C3547 1.415 . S
C3550 H3540 0.930 . S
C3550 C3548 1.419 . S
C3550 C3551 1.362 . S
C3551 H3541 0.930 . S
C3551 C3544 1.409 . S
C3551 C3550 1.362 . S
H3552 C3558 0.930 . S
H3553 C3561 0.930 . S
H3554 C3562 0.930 . S
H3555 C3563 0.930 . S
H3556 C3566 0.930 . S
H3557 C3567 0.930 . S
C3558 H3552 0.930 . S
C3558 C3559 1.355 . S
C3558 C3560 1.415 . S
C3559 C3558 1.355 . S
C3559 C3561 1.419 . S
C3560 C3558 1.415 . S
C3560 C3565 1.425 . S
C3560 C3567 1.409 . S
C3561 H3553 0.930 . S
C3561 C3559 1.419 . S
C3561 C3562 1.362 . S
C3562 H3554 0.930 . S
C3562 C3561 1.362 . S
C3562 C3565 1.409 . S
C3563 H3555 0.930 . S
C3563 C3564 1.355 . S
C3563 C3565 1.415 . S
C3564 C3563 1.355 . S
C3564 C3566 1.419 . S
C3565 C3560 1.425 . S
C3565 C3562 1.409 . S
C3565 C3563 1.415 . S
C3566 H3556 0.930 . S
C3566 C3564 1.419 . S
C3566 C3567 1.362 . S
C3567 H3557 0.930 . S
C3567 C3560 1.409 . S
C3567 C3566 1.362 . S
H3568 C3574 0.930 . S
H3569 C3577 0.930 . S
H3570 C3578 0.930 . S
H3571 C3579 0.930 . S
H3572 C3582 0.930 . S
H3573 C3583 0.930 . S
C3574 H3568 0.930 . S
C3574 C3575 1.355 . S
C3574 C3576 1.415 . S
C3575 C3574 1.355 . S
C3575 C3577 1.419 . S
C3576 C3574 1.415 . S
C3576 C3581 1.425 . S
C3576 C3583 1.409 . S
C3577 H3569 0.930 . S
C3577 C3575 1.419 . S
C3577 C3578 1.362 . S
C3578 H3570 0.930 . S
C3578 C3577 1.362 . S
C3578 C3581 1.409 . S
C3579 H3571 0.930 . S
C3579 C3580 1.355 . S
C3579 C3581 1.415 . S
C3580 C3579 1.355 . S
C3580 C3582 1.419 . S
C3581 C3576 1.425 . S
C3581 C3578 1.409 . S
C3581 C3579 1.415 . S
C3582 H3572 0.930 . S
C3582 C3580 1.419 . S
C3582 C3583 1.362 . S
C3583 H3573 0.930 . S
C3583 C3576 1.409 . S
C3583 C3582 1.362 . S
H3584 C3590 0.930 . S
H3585 C3593 0.930 . S
H3586 C3594 0.930 . S
H3587 C3595 0.930 . S
H3588 C3598 0.930 . S
H3589 C3599 0.930 . S
C3590 H3584 0.930 . S
C3590 C3591 1.355 . S
C3590 C3592 1.415 . S
C3591 C3590 1.355 . S
C3591 C3593 1.419 . S
C3592 C3590 1.415 . S
C3592 C3597 1.425 . S
C3592 C3599 1.409 . S
C3593 H3585 0.930 . S
C3593 C3591 1.419 . S
C3593 C3594 1.362 . S
C3594 H3586 0.930 . S
C3594 C3593 1.362 . S
C3594 C3597 1.409 . S
C3595 H3587 0.930 . S
C3595 C3596 1.355 . S
C3595 C3597 1.415 . S
C3596 C3595 1.355 . S
C3596 C3598 1.419 . S
C3597 C3592 1.425 . S
C3597 C3594 1.409 . S
C3597 C3595 1.415 . S
C3598 H3588 0.930 . S
C3598 C3596 1.419 . S
C3598 C3599 1.362 . S
C3599 H3589 0.930 . S
C3599 C3592 1.409 . S
C3599 C3598 1.362 . S
H3600 C3606 0.930 . S
H3601 C3609 0.930 . S
H3602 C3610 0.930 . S
H3603 C3611 0.930 . S
H3604 C3614 0.930 . S
H3605 C3615 0.930 . S
C3606 H3600 0.930 . S
C3606 C3607 1.355 . S
C3606 C3608 1.415 . S
C3607 C3606 1.355 . S
C3607 C3609 1.419 . S
C3608 C3606 1.415 . S
C3608 C3613 1.425 . S
C3608 C3615 1.409 . S
C3609 H3601 0.930 . S
C3609 C3607 1.419 . S
C3609 C3610 1.362 . S
C3610 H3602 0.930 . S
C3610 C3609 1.362 . S
C3610 C3613 1.409 . S
C3611 H3603 0.930 . S
C3611 C3612 1.355 . S
C3611 C3613 1.415 . S
C3612 C3611 1.355 . S
C3612 C3614 1.419 . S
C3613 C3608 1.425 . S
C3613 C3610 1.409 . S
C3613 C3611 1.415 . S
C3614 H3604 0.930 . S
C3614 C3612 1.419 . S
C3614 C3615 1.362 . S
C3615 H3605 0.930 . S
C3615 C3608 1.409 . S
C3615 C3614 1.362 . S
H3616 C3622 0.930 . S
H3617 C3625 0.930 1_554 S
H3618 C3626 0.930 1_554 S
H3619 C3627 0.930 . S
H3620 C3630 0.930 . S
H3621 C3631 0.930 . S
C3622 H3616 0.930 . S
C3622 C3623 1.355 . S
C3622 C3624 1.415 . S
C3623 C3622 1.355 . S
C3623 C3625 1.419 . S
C3624 C3622 1.415 . S
C3624 C3629 1.425 . S
C3624 C3631 1.409 . S
C3625 H3617 0.930 1_556 S
C3625 C3623 1.419 . S
C3625 C3626 1.362 . S
C3626 H3618 0.930 1_556 S
C3626 C3625 1.362 . S
C3626 C3629 1.409 . S
C3627 H3619 0.930 . S
C3627 C3628 1.355 . S
C3627 C3629 1.415 . S
C3628 C3627 1.355 . S
C3628 C3630 1.419 . S
C3629 C3624 1.425 . S
C3629 C3626 1.409 . S
C3629 C3627 1.415 . S
C3630 H3620 0.930 . S
C3630 C3628 1.419 . S
C3630 C3631 1.362 . S
C3631 H3621 0.930 . S
C3631 C3624 1.409 . S
C3631 C3630 1.362 . S
H3632 C3638 0.930 . S
H3633 C3641 0.930 . S
H3634 C3642 0.930 . S
H3635 C3643 0.930 . S
H3636 C3646 0.930 1_554 S
H3637 C3647 0.930 . S
C3638 H3632 0.930 . S
C3638 C3639 1.355 . S
C3638 C3640 1.415 . S
C3639 C3638 1.355 . S
C3639 C3641 1.419 . S
C3640 C3638 1.415 . S
C3640 C3645 1.425 . S
C3640 C3647 1.409 . S
C3641 H3633 0.930 . S
C3641 C3639 1.419 . S
C3641 C3642 1.362 . S
C3642 H3634 0.930 . S
C3642 C3641 1.362 . S
C3642 C3645 1.409 . S
C3643 H3635 0.930 . S
C3643 C3644 1.355 . S
C3643 C3645 1.415 . S
C3644 C3643 1.355 . S
C3644 C3646 1.419 . S
C3645 C3640 1.425 . S
C3645 C3642 1.409 . S
C3645 C3643 1.415 . S
C3646 H3636 0.930 1_556 S
C3646 C3644 1.419 . S
C3646 C3647 1.362 . S
C3647 H3637 0.930 . S
C3647 C3640 1.409 . S
C3647 C3646 1.362 . S
H3648 C3654 0.930 . S
H3649 C3657 0.930 . S
H3650 C3658 0.930 . S
H3651 C3659 0.930 . S
H3652 C3662 0.930 . S
H3653 C3663 0.930 . S
C3654 H3648 0.930 . S
C3654 C3655 1.355 . S
C3654 C3656 1.415 . S
C3655 C3654 1.355 . S
C3655 C3657 1.419 . S
C3656 C3654 1.415 . S
C3656 C3661 1.425 . S
C3656 C3663 1.409 . S
C3657 H3649 0.930 . S
C3657 C3655 1.419 . S
C3657 C3658 1.362 . S
C3658 H3650 0.930 . S
C3658 C3657 1.362 . S
C3658 C3661 1.409 . S
C3659 H3651 0.930 . S
C3659 C3660 1.355 . S
C3659 C3661 1.415 . S
C3660 C3659 1.355 . S
C3660 C3662 1.419 . S
C3661 C3656 1.425 . S
C3661 C3658 1.409 . S
C3661 C3659 1.415 . S
C3662 H3652 0.930 . S
C3662 C3660 1.419 . S
C3662 C3663 1.362 . S
C3663 H3653 0.930 . S
C3663 C3656 1.409 . S
C3663 C3662 1.362 . S
H3664 C3670 0.930 . S
H3665 C3673 0.930 . S
H3666 C3674 0.930 . S
H3667 C3675 0.930 . S
H3668 C3678 0.930 . S
H3669 C3679 0.930 . S
C3670 H3664 0.930 . S
C3670 C3671 1.355 . S
C3670 C3672 1.415 . S
C3671 C3670 1.355 . S
C3671 C3673 1.419 . S
C3672 C3670 1.415 . S
C3672 C3677 1.425 . S
C3672 C3679 1.409 . S
C3673 H3665 0.930 . S
C3673 C3671 1.419 . S
C3673 C3674 1.362 . S
C3674 H3666 0.930 . S
C3674 C3673 1.362 . S
C3674 C3677 1.409 . S
C3675 H3667 0.930 . S
C3675 C3676 1.355 . S
C3675 C3677 1.415 . S
C3676 C3675 1.355 . S
C3676 C3678 1.419 . S
C3677 C3672 1.425 . S
C3677 C3674 1.409 . S
C3677 C3675 1.415 . S
C3678 H3668 0.930 . S
C3678 C3676 1.419 . S
C3678 C3679 1.362 . S
C3679 H3669 0.930 . S
C3679 C3672 1.409 . S
C3679 C3678 1.362 . S
H3680 C3686 0.930 . S
H3681 C3689 0.930 . S
H3682 C3690 0.930 . S
H3683 C3691 0.930 . S
H3684 C3694 0.930 . S
H3685 C3695 0.930 . S
C3686 H3680 0.930 . S
C3686 C3687 1.355 . S
C3686 C3688 1.415 . S
C3687 C3686 1.355 . S
C3687 C3689 1.419 . S
C3688 C3686 1.415 . S
C3688 C3693 1.425 . S
C3688 C3695 1.409 . S
C3689 H3681 0.930 . S
C3689 C3687 1.419 . S
C3689 C3690 1.362 . S
C3690 H3682 0.930 . S
C3690 C3689 1.362 . S
C3690 C3693 1.409 . S
C3691 H3683 0.930 . S
C3691 C3692 1.355 . S
C3691 C3693 1.415 . S
C3692 C3691 1.355 . S
C3692 C3694 1.419 . S
C3693 C3688 1.425 . S
C3693 C3690 1.409 . S
C3693 C3691 1.415 . S
C3694 H3684 0.930 . S
C3694 C3692 1.419 . S
C3694 C3695 1.362 . S
C3695 H3685 0.930 . S
C3695 C3688 1.409 . S
C3695 C3694 1.362 . S
H3696 C3702 0.930 . S
H3697 C3705 0.930 . S
H3698 C3706 0.930 . S
H3699 C3707 0.930 . S
H3700 C3710 0.930 . S
H3701 C3711 0.930 . S
C3702 H3696 0.930 . S
C3702 C3703 1.355 . S
C3702 C3704 1.415 . S
C3703 C3702 1.355 . S
C3703 C3705 1.419 . S
C3704 C3702 1.415 . S
C3704 C3709 1.425 . S
C3704 C3711 1.409 . S
C3705 H3697 0.930 . S
C3705 C3703 1.419 . S
C3705 C3706 1.362 . S
C3706 H3698 0.930 . S
C3706 C3705 1.362 . S
C3706 C3709 1.409 . S
C3707 H3699 0.930 . S
C3707 C3708 1.355 . S
C3707 C3709 1.415 . S
C3708 C3707 1.355 . S
C3708 C3710 1.419 . S
C3709 C3704 1.425 . S
C3709 C3706 1.409 . S
C3709 C3707 1.415 . S
C3710 H3700 0.930 . S
C3710 C3708 1.419 . S
C3710 C3711 1.362 . S
C3711 H3701 0.930 . S
C3711 C3704 1.409 . S
C3711 C3710 1.362 . S
H3712 C3718 0.930 . S
H3713 C3721 0.930 . S
H3714 C3722 0.930 . S
H3715 C3723 0.930 . S
H3716 C3726 0.930 . S
H3717 C3727 0.930 . S
C3718 H3712 0.930 . S
C3718 C3719 1.355 . S
C3718 C3720 1.415 . S
C3719 C3718 1.355 . S
C3719 C3721 1.419 . S
C3720 C3718 1.415 . S
C3720 C3725 1.425 . S
C3720 C3727 1.409 . S
C3721 H3713 0.930 . S
C3721 C3719 1.419 . S
C3721 C3722 1.362 . S
C3722 H3714 0.930 . S
C3722 C3721 1.362 . S
C3722 C3725 1.409 . S
C3723 H3715 0.930 . S
C3723 C3724 1.355 . S
C3723 C3725 1.415 . S
C3724 C3723 1.355 . S
C3724 C3726 1.419 . S
C3725 C3720 1.425 . S
C3725 C3722 1.409 . S
C3725 C3723 1.415 . S
C3726 H3716 0.930 . S
C3726 C3724 1.419 . S
C3726 C3727 1.362 . S
C3727 H3717 0.930 . S
C3727 C3720 1.409 . S
C3727 C3726 1.362 . S
H3728 C3734 0.930 . S
H3729 C3737 0.930 . S
H3730 C3738 0.930 . S
H3731 C3739 0.930 . S
H3732 C3742 0.930 . S
H3733 C3743 0.930 . S
C3734 H3728 0.930 . S
C3734 C3735 1.355 . S
C3734 C3736 1.415 . S
C3735 C3734 1.355 . S
C3735 C3737 1.419 . S
C3736 C3734 1.415 . S
C3736 C3741 1.425 . S
C3736 C3743 1.409 . S
C3737 H3729 0.930 . S
C3737 C3735 1.419 . S
C3737 C3738 1.362 . S
C3738 H3730 0.930 . S
C3738 C3737 1.362 . S
C3738 C3741 1.409 . S
C3739 H3731 0.930 . S
C3739 C3740 1.355 . S
C3739 C3741 1.415 . S
C3740 C3739 1.355 . S
C3740 C3742 1.419 . S
C3741 C3736 1.425 . S
C3741 C3738 1.409 . S
C3741 C3739 1.415 . S
C3742 H3732 0.930 . S
C3742 C3740 1.419 . S
C3742 C3743 1.362 . S
C3743 H3733 0.930 . S
C3743 C3736 1.409 . S
C3743 C3742 1.362 . S
H3744 C3750 0.930 . S
H3745 C3753 0.930 . S
H3746 C3754 0.930 . S
H3747 C3755 0.930 . S
H3748 C3758 0.930 . S
H3749 C3759 0.930 . S
C3750 H3744 0.930 . S
C3750 C3751 1.355 . S
C3750 C3752 1.415 . S
C3751 C3750 1.355 . S
C3751 C3753 1.419 . S
C3752 C3750 1.415 . S
C3752 C3757 1.425 . S
C3752 C3759 1.409 . S
C3753 H3745 0.930 . S
C3753 C3751 1.419 . S
C3753 C3754 1.362 . S
C3754 H3746 0.930 . S
C3754 C3753 1.362 . S
C3754 C3757 1.409 . S
C3755 H3747 0.930 . S
C3755 C3756 1.355 . S
C3755 C3757 1.415 . S
C3756 C3755 1.355 . S
C3756 C3758 1.419 . S
C3757 C3752 1.425 . S
C3757 C3754 1.409 . S
C3757 C3755 1.415 . S
C3758 H3748 0.930 . S
C3758 C3756 1.419 . S
C3758 C3759 1.362 . S
C3759 H3749 0.930 . S
C3759 C3752 1.409 . S
C3759 C3758 1.362 . S
H3760 C3766 0.930 . S
H3761 C3769 0.930 . S
H3762 C3770 0.930 . S
H3763 C3771 0.930 . S
H3764 C3774 0.930 . S
H3765 C3775 0.930 . S
C3766 H3760 0.930 . S
C3766 C3767 1.355 1_565 S
C3766 C3768 1.415 . S
C3767 C3766 1.355 1_545 S
C3767 C3769 1.419 . S
C3768 C3766 1.415 . S
C3768 C3773 1.425 1_565 S
C3768 C3775 1.409 . S
C3769 H3761 0.930 . S
C3769 C3767 1.419 . S
C3769 C3770 1.362 . S
C3770 H3762 0.930 . S
C3770 C3769 1.362 . S
C3770 C3773 1.409 . S
C3771 H3763 0.930 . S
C3771 C3772 1.355 1_545 S
C3771 C3773 1.415 . S
C3772 C3771 1.355 1_565 S
C3772 C3774 1.419 . S
C3773 C3768 1.425 1_545 S
C3773 C3770 1.409 . S
C3773 C3771 1.415 . S
C3774 H3764 0.930 . S
C3774 C3772 1.419 . S
C3774 C3775 1.362 . S
C3775 H3765 0.930 . S
C3775 C3768 1.409 . S
C3775 C3774 1.362 . S
H3776 C3782 0.930 . S
H3777 C3785 0.930 . S
H3778 C3786 0.930 . S
H3779 C3787 0.930 . S
H3780 C3790 0.930 . S
H3781 C3791 0.930 . S
C3782 H3776 0.930 . S
C3782 C3783 1.358 . S
C3782 C3784 1.415 . S
C3783 C3782 1.358 . S
C3783 C3785 1.414 1_455 S
C3784 C3782 1.415 . S
C3784 C3789 1.425 1_455 S
C3784 C3791 1.409 . S
C3785 H3777 0.930 . S
C3785 C3783 1.414 1_655 S
C3785 C3786 1.362 . S
C3786 H3778 0.930 . S
C3786 C3785 1.362 . S
C3786 C3789 1.409 . S
C3787 H3779 0.930 . S
C3787 C3788 1.360 . S
C3787 C3789 1.415 . S
C3788 C3787 1.360 . S
C3788 C3790 1.412 1_655 S
C3789 C3784 1.425 1_655 S
C3789 C3786 1.409 . S
C3789 C3787 1.415 . S
C3790 H3780 0.930 . S
C3790 C3788 1.412 1_455 S
C3790 C3791 1.362 . S
C3791 H3781 0.930 . S
C3791 C3784 1.409 . S
C3791 C3790 1.362 . S
H3792 C3798 0.930 . S
H3793 C3801 0.930 . S
H3794 C3802 0.930 . S
H3795 C3803 0.930 . S
H3796 C3806 0.930 . S
H3797 C3807 0.930 . S
C3798 H3792 0.930 . S
C3798 C3799 1.355 . S
C3798 C3800 1.415 . S
C3799 C3798 1.355 . S
C3799 C3801 1.419 . S
C3800 C3798 1.415 . S
C3800 C3805 1.425 . S
C3800 C3807 1.409 . S
C3801 H3793 0.930 . S
C3801 C3799 1.419 . S
C3801 C3802 1.362 . S
C3802 H3794 0.930 . S
C3802 C3801 1.362 . S
C3802 C3805 1.409 . S
C3803 H3795 0.930 . S
C3803 C3804 1.355 . S
C3803 C3805 1.415 . S
C3804 C3803 1.355 . S
C3804 C3806 1.419 . S
C3805 C3800 1.425 . S
C3805 C3802 1.409 . S
C3805 C3803 1.415 . S
C3806 H3796 0.930 . S
C3806 C3804 1.419 . S
C3806 C3807 1.362 . S
C3807 H3797 0.930 . S
C3807 C3800 1.409 . S
C3807 C3806 1.362 . S
H3808 C3814 0.930 . S
H3809 C3817 0.930 . S
H3810 C3818 0.930 . S
H3811 C3819 0.930 . S
H3812 C3822 0.930 . S
H3813 C3823 0.930 . S
C3814 H3808 0.930 . S
C3814 C3815 1.364 . S
C3814 C3816 1.415 . S
C3815 C3814 1.364 . S
C3815 C3817 1.407 1_565 S
C3816 C3814 1.415 . S
C3816 C3821 1.425 1_565 S
C3816 C3823 1.409 . S
C3817 H3809 0.930 . S
C3817 C3815 1.407 1_545 S
C3817 C3818 1.362 . S
C3818 H3810 0.930 . S
C3818 C3817 1.362 . S
C3818 C3821 1.409 . S
C3819 H3811 0.930 . S
C3819 C3820 1.364 . S
C3819 C3821 1.415 . S
C3820 C3819 1.364 . S
C3820 C3822 1.407 1_545 S
C3821 C3816 1.425 1_545 S
C3821 C3818 1.409 . S
C3821 C3819 1.415 . S
C3822 H3812 0.930 . S
C3822 C3820 1.407 1_565 S
C3822 C3823 1.362 . S
C3823 H3813 0.930 . S
C3823 C3816 1.409 . S
C3823 C3822 1.362 . S
H3824 C3830 0.930 . S
H3825 C3833 0.930 . S
H3826 C3834 0.930 . S
H3827 C3835 0.930 . S
H3828 C3838 0.930 . S
H3829 C3839 0.930 . S
C3830 H3824 0.930 . S
C3830 C3831 1.355 1_455 S
C3830 C3832 1.415 . S
C3831 C3830 1.355 1_655 S
C3831 C3833 1.419 . S
C3832 C3830 1.415 . S
C3832 C3837 1.425 1_455 S
C3832 C3839 1.409 . S
C3833 H3825 0.930 . S
C3833 C3831 1.419 . S
C3833 C3834 1.362 . S
C3834 H3826 0.930 . S
C3834 C3833 1.362 . S
C3834 C3837 1.409 . S
C3835 H3827 0.930 . S
C3835 C3836 1.355 1_655 S
C3835 C3837 1.415 . S
C3836 C3835 1.355 1_455 S
C3836 C3838 1.419 . S
C3837 C3832 1.425 1_655 S
C3837 C3834 1.409 . S
C3837 C3835 1.415 . S
C3838 H3828 0.930 . S
C3838 C3836 1.419 . S
C3838 C3839 1.362 . S
C3839 H3829 0.930 . S
C3839 C3832 1.409 . S
C3839 C3838 1.362 . S
H3840 C3846 0.930 . S
H3841 C3849 0.930 . S
H3842 C3850 0.930 . S
H3843 C3851 0.930 . S
H3844 C3854 0.930 . S
H3845 C3855 0.930 . S
C3846 H3840 0.930 . S
C3846 C3847 1.355 . S
C3846 C3848 1.415 . S
C3847 C3846 1.355 . S
C3847 C3849 1.419 . S
C3848 C3846 1.415 . S
C3848 C3853 1.425 . S
C3848 C3855 1.409 . S
C3849 H3841 0.930 . S
C3849 C3847 1.419 . S
C3849 C3850 1.362 . S
C3850 H3842 0.930 . S
C3850 C3849 1.362 . S
C3850 C3853 1.409 . S
C3851 H3843 0.930 . S
C3851 C3852 1.355 . S
C3851 C3853 1.415 . S
C3852 C3851 1.355 . S
C3852 C3854 1.419 . S
C3853 C3848 1.425 . S
C3853 C3850 1.409 . S
C3853 C3851 1.415 . S
C3854 H3844 0.930 . S
C3854 C3852 1.419 . S
C3854 C3855 1.362 . S
C3855 H3845 0.930 . S
C3855 C3848 1.409 . S
C3855 C3854 1.362 . S
H3856 C3862 0.930 . S
H3857 C3865 0.930 . S
H3858 C3866 0.930 . S
H3859 C3867 0.930 . S
H3860 C3870 0.930 . S
H3861 C3871 0.930 . S
C3862 H3856 0.930 . S
C3862 C3863 1.355 . S
C3862 C3864 1.415 . S
C3863 C3862 1.355 . S
C3863 C3865 1.419 . S
C3864 C3862 1.415 . S
C3864 C3869 1.425 . S
C3864 C3871 1.409 . S
C3865 H3857 0.930 . S
C3865 C3863 1.419 . S
C3865 C3866 1.362 . S
C3866 H3858 0.930 . S
C3866 C3865 1.362 . S
C3866 C3869 1.409 . S
C3867 H3859 0.930 . S
C3867 C3868 1.355 . S
C3867 C3869 1.415 . S
C3868 C3867 1.355 . S
C3868 C3870 1.419 . S
C3869 C3864 1.425 . S
C3869 C3866 1.409 . S
C3869 C3867 1.415 . S
C3870 H3860 0.930 . S
C3870 C3868 1.419 . S
C3870 C3871 1.362 . S
C3871 H3861 0.930 . S
C3871 C3864 1.409 . S
C3871 C3870 1.362 . S
H3872 C3878 0.930 . S
H3873 C3881 0.930 . S
H3874 C3882 0.930 . S
H3875 C3883 0.930 . S
H3876 C3886 0.930 . S
H3877 C3887 0.930 . S
C3878 H3872 0.930 . S
C3878 C3879 1.355 . S
C3878 C3880 1.415 . S
C3879 C3878 1.355 . S
C3879 C3881 1.419 . S
C3880 C3878 1.415 . S
C3880 C3885 1.425 . S
C3880 C3887 1.409 . S
C3881 H3873 0.930 . S
C3881 C3879 1.419 . S
C3881 C3882 1.362 . S
C3882 H3874 0.930 . S
C3882 C3881 1.362 . S
C3882 C3885 1.409 . S
C3883 H3875 0.930 . S
C3883 C3884 1.355 . S
C3883 C3885 1.415 . S
C3884 C3883 1.355 . S
C3884 C3886 1.419 . S
C3885 C3880 1.425 . S
C3885 C3882 1.409 . S
C3885 C3883 1.415 . S
C3886 H3876 0.930 . S
C3886 C3884 1.419 . S
C3886 C3887 1.362 . S
C3887 H3877 0.930 . S
C3887 C3880 1.409 . S
C3887 C3886 1.362 . S
H3888 C3894 0.930 . S
H3889 C3897 0.930 . S
H3890 C3898 0.930 . S
H3891 C3899 0.930 . S
H3892 C3902 0.930 . S
H3893 C3903 0.930 . S
C3894 H3888 0.930 . S
C3894 C3895 1.355 . S
C3894 C3896 1.415 . S
C3895 C3894 1.355 . S
C3895 C3897 1.419 . S
C3896 C3894 1.415 . S
C3896 C3901 1.425 . S
C3896 C3903 1.409 . S
C3897 H3889 0.930 . S
C3897 C3895 1.419 . S
C3897 C3898 1.362 . S
C3898 H3890 0.930 . S
C3898 C3897 1.362 . S
C3898 C3901 1.409 . S
C3899 H3891 0.930 . S
C3899 C3900 1.355 . S
C3899 C3901 1.415 . S
C3900 C3899 1.355 . S
C3900 C3902 1.419 . S
C3901 C3896 1.425 . S
C3901 C3898 1.409 . S
C3901 C3899 1.415 . S
C3902 H3892 0.930 . S
C3902 C3900 1.419 . S
C3902 C3903 1.362 . S
C3903 H3893 0.930 . S
C3903 C3896 1.409 . S
C3903 C3902 1.362 . S
H3904 C3910 0.930 . S
H3905 C3913 0.930 . S
H3906 C3914 0.930 . S
H3907 C3915 0.930 . S
H3908 C3918 0.930 . S
H3909 C3919 0.930 . S
C3910 H3904 0.930 . S
C3910 C3911 1.355 . S
C3910 C3912 1.415 . S
C3911 C3910 1.355 . S
C3911 C3913 1.419 . S
C3912 C3910 1.415 . S
C3912 C3917 1.425 . S
C3912 C3919 1.409 . S
C3913 H3905 0.930 . S
C3913 C3911 1.419 . S
C3913 C3914 1.362 . S
C3914 H3906 0.930 . S
C3914 C3913 1.362 . S
C3914 C3917 1.409 . S
C3915 H3907 0.930 . S
C3915 C3916 1.355 . S
C3915 C3917 1.415 . S
C3916 C3915 1.355 . S
C3916 C3918 1.419 . S
C3917 C3912 1.425 . S
C3917 C3914 1.409 . S
C3917 C3915 1.415 . S
C3918 H3908 0.930 . S
C3918 C3916 1.419 . S
C3918 C3919 1.362 . S
C3919 H3909 0.930 . S
C3919 C3912 1.409 . S
C3919 C3918 1.362 . S
H3920 C3926 0.930 . S
H3921 C3929 0.930 . S
H3922 C3930 0.930 . S
H3923 C3931 0.930 . S
H3924 C3934 0.930 . S
H3925 C3935 0.930 . S
C3926 H3920 0.930 . S
C3926 C3927 1.355 . S
C3926 C3928 1.415 . S
C3927 C3926 1.355 . S
C3927 C3929 1.419 . S
C3928 C3926 1.415 . S
C3928 C3933 1.425 . S
C3928 C3935 1.409 . S
C3929 H3921 0.930 . S
C3929 C3927 1.419 . S
C3929 C3930 1.362 . S
C3930 H3922 0.930 . S
C3930 C3929 1.362 . S
C3930 C3933 1.409 . S
C3931 H3923 0.930 . S
C3931 C3932 1.355 . S
C3931 C3933 1.415 . S
C3932 C3931 1.355 . S
C3932 C3934 1.419 . S
C3933 C3928 1.425 . S
C3933 C3930 1.409 . S
C3933 C3931 1.415 . S
C3934 H3924 0.930 . S
C3934 C3932 1.419 . S
C3934 C3935 1.362 . S
C3935 H3925 0.930 . S
C3935 C3928 1.409 . S
C3935 C3934 1.362 . S
H3936 C3942 0.930 . S
H3937 C3945 0.930 . S
H3938 C3946 0.930 . S
H3939 C3947 0.930 . S
H3940 C3950 0.930 . S
H3941 C3951 0.930 . S
C3942 H3936 0.930 . S
C3942 C3943 1.355 . S
C3942 C3944 1.415 . S
C3943 C3942 1.355 . S
C3943 C3945 1.419 . S
C3944 C3942 1.415 . S
C3944 C3949 1.425 . S
C3944 C3951 1.409 . S
C3945 H3937 0.930 . S
C3945 C3943 1.419 . S
C3945 C3946 1.362 . S
C3946 H3938 0.930 . S
C3946 C3945 1.362 . S
C3946 C3949 1.409 . S
C3947 H3939 0.930 . S
C3947 C3948 1.355 . S
C3947 C3949 1.415 . S
C3948 C3947 1.355 . S
C3948 C3950 1.419 . S
C3949 C3944 1.425 . S
C3949 C3946 1.409 . S
C3949 C3947 1.415 . S
C3950 H3940 0.930 . S
C3950 C3948 1.419 . S
C3950 C3951 1.362 . S
C3951 H3941 0.930 . S
C3951 C3944 1.409 . S
C3951 C3950 1.362 . S
H3952 C3958 0.930 . S
H3953 C3961 0.930 . S
H3954 C3962 0.930 . S
H3955 C3963 0.930 . S
H3956 C3966 0.930 . S
H3957 C3967 0.930 . S
C3958 H3952 0.930 . S
C3958 C3959 1.355 . S
C3958 C3960 1.415 . S
C3959 C3958 1.355 . S
C3959 C3961 1.419 . S
C3960 C3958 1.415 . S
C3960 C3965 1.425 . S
C3960 C3967 1.409 . S
C3961 H3953 0.930 . S
C3961 C3959 1.419 . S
C3961 C3962 1.362 . S
C3962 H3954 0.930 . S
C3962 C3961 1.362 . S
C3962 C3965 1.409 . S
C3963 H3955 0.930 . S
C3963 C3964 1.355 . S
C3963 C3965 1.415 . S
C3964 C3963 1.355 . S
C3964 C3966 1.419 . S
C3965 C3960 1.425 . S
C3965 C3962 1.409 . S
C3965 C3963 1.415 . S
C3966 H3956 0.930 . S
C3966 C3964 1.419 . S
C3966 C3967 1.362 . S
C3967 H3957 0.930 . S
C3967 C3960 1.409 . S
C3967 C3966 1.362 . S
H3968 C3974 0.930 . S
H3969 C3977 0.930 . S
H3970 C3978 0.930 . S
H3971 C3979 0.930 . S
H3972 C3982 0.930 . S
H3973 C3983 0.930 . S
C3974 H3968 0.930 . S
C3974 C3975 1.355 . S
C3974 C3976 1.415 . S
C3975 C3974 1.355 . S
C3975 C3977 1.419 . S
C3976 C3974 1.415 . S
C3976 C3981 1.425 . S
C3976 C3983 1.409 . S
C3977 H3969 0.930 . S
C3977 C3975 1.419 . S
C3977 C3978 1.362 . S
C3978 H3970 0.930 . S
C3978 C3977 1.362 . S
C3978 C3981 1.409 . S
C3979 H3971 0.930 . S
C3979 C3980 1.355 . S
C3979 C3981 1.415 . S
C3980 C3979 1.355 . S
C3980 C3982 1.419 . S
C3981 C3976 1.425 . S
C3981 C3978 1.409 . S
C3981 C3979 1.415 . S
C3982 H3972 0.930 . S
C3982 C3980 1.419 . S
C3982 C3983 1.362 . S
C3983 H3973 0.930 . S
C3983 C3976 1.409 . S
C3983 C3982 1.362 . S
H3984 C3990 0.930 . S
H3985 C3993 0.930 . S
H3986 C3994 0.930 . S
H3987 C3995 0.930 . S
H3988 C3998 0.930 . S
H3989 C3999 0.930 . S
C3990 H3984 0.930 . S
C3990 C3991 1.355 . S
C3990 C3992 1.415 . S
C3991 C3990 1.355 . S
C3991 C3993 1.419 . S
C3992 C3990 1.415 . S
C3992 C3997 1.425 . S
C3992 C3999 1.409 . S
C3993 H3985 0.930 . S
C3993 C3991 1.419 . S
C3993 C3994 1.362 . S
C3994 H3986 0.930 . S
C3994 C3993 1.362 . S
C3994 C3997 1.409 . S
C3995 H3987 0.930 . S
C3995 C3996 1.355 . S
C3995 C3997 1.415 . S
C3996 C3995 1.355 . S
C3996 C3998 1.419 . S
C3997 C3992 1.425 . S
C3997 C3994 1.409 . S
C3997 C3995 1.415 . S
C3998 H3988 0.930 . S
C3998 C3996 1.419 . S
C3998 C3999 1.362 . S
C3999 H3989 0.930 . S
C3999 C3992 1.409 . S
C3999 C3998 1.362 . S
H4000 C4006 0.930 . S
H4001 C4009 0.930 . S
H4002 C4010 0.930 . S
H4003 C4011 0.930 . S
H4004 C4014 0.930 . S
H4005 C4015 0.930 . S
C4006 H4000 0.930 . S
C4006 C4007 1.355 . S
C4006 C4008 1.415 . S
C4007 C4006 1.355 . S
C4007 C4009 1.419 . S
C4008 C4006 1.415 . S
C4008 C4013 1.425 . S
C4008 C4015 1.409 . S
C4009 H4001 0.930 . S
C4009 C4007 1.419 . S
C4009 C4010 1.362 . S
C4010 H4002 0.930 . S
C4010 C4009 1.362 . S
C4010 C4013 1.409 . S
C4011 H4003 0.930 . S
C4011 C4012 1.355 . S
C4011 C4013 1.415 . S
C4012 C4011 1.355 . S
C4012 C4014 1.419 . S
C4013 C4008 1.425 . S
C4013 C4010 1.409 . S
C4013 C4011 1.415 . S
C4014 H4004 0.930 . S
C4014 C4012 1.419 . S
C4014 C4015 1.362 . S
C4015 H4005 0.930 . S
C4015 C4008 1.409 . S
C4015 C4014 1.362 . S
H4016 C4022 0.930 . S
H4017 C4025 0.930 . S
H4018 C4026 0.930 . S
H4019 C4027 0.930 . S
H4020 C4030 0.930 . S
H4021 C4031 0.930 . S
C4022 H4016 0.930 . S
C4022 C4023 1.355 . S
C4022 C4024 1.415 . S
C4023 C4022 1.355 . S
C4023 C4025 1.419 . S
C4024 C4022 1.415 . S
C4024 C4029 1.425 . S
C4024 C4031 1.409 . S
C4025 H4017 0.930 . S
C4025 C4023 1.419 . S
C4025 C4026 1.362 . S
C4026 H4018 0.930 . S
C4026 C4025 1.362 . S
C4026 C4029 1.409 . S
C4027 H4019 0.930 . S
C4027 C4028 1.355 . S
C4027 C4029 1.415 . S
C4028 C4027 1.355 . S
C4028 C4030 1.419 . S
C4029 C4024 1.425 . S
C4029 C4026 1.409 . S
C4029 C4027 1.415 . S
C4030 H4020 0.930 . S
C4030 C4028 1.419 . S
C4030 C4031 1.362 . S
C4031 H4021 0.930 . S
C4031 C4024 1.409 . S
C4031 C4030 1.362 . S
H4032 C4038 0.930 . S
H4033 C4041 0.930 . S
H4034 C4042 0.930 . S
H4035 C4043 0.930 . S
H4036 C4046 0.930 . S
H4037 C4047 0.930 . S
C4038 H4032 0.930 . S
C4038 C4039 1.355 . S
C4038 C4040 1.415 . S
C4039 C4038 1.355 . S
C4039 C4041 1.419 . S
C4040 C4038 1.415 . S
C4040 C4045 1.425 . S
C4040 C4047 1.409 . S
C4041 H4033 0.930 . S
C4041 C4039 1.419 . S
C4041 C4042 1.362 . S
C4042 H4034 0.930 . S
C4042 C4041 1.362 . S
C4042 C4045 1.409 . S
C4043 H4035 0.930 . S
C4043 C4044 1.355 . S
C4043 C4045 1.415 . S
C4044 C4043 1.355 . S
C4044 C4046 1.419 . S
C4045 C4040 1.425 . S
C4045 C4042 1.409 . S
C4045 C4043 1.415 . S
C4046 H4036 0.930 . S
C4046 C4044 1.419 . S
C4046 C4047 1.362 . S
C4047 H4037 0.930 . S
C4047 C4040 1.409 . S
C4047 C4046 1.362 . S
H4048 C4054 0.930 . S
H4049 C4057 0.930 . S
H4050 C4058 0.930 . S
H4051 C4059 0.930 . S
H4052 C4062 0.930 . S
H4053 C4063 0.930 . S
C4054 H4048 0.930 . S
C4054 C4055 1.355 . S
C4054 C4056 1.415 . S
C4055 C4054 1.355 . S
C4055 C4057 1.419 . S
C4056 C4054 1.415 . S
C4056 C4061 1.425 . S
C4056 C4063 1.409 . S
C4057 H4049 0.930 . S
C4057 C4055 1.419 . S
C4057 C4058 1.362 . S
C4058 H4050 0.930 . S
C4058 C4057 1.362 . S
C4058 C4061 1.409 . S
C4059 H4051 0.930 . S
C4059 C4060 1.355 . S
C4059 C4061 1.415 . S
C4060 C4059 1.355 . S
C4060 C4062 1.419 . S
C4061 C4056 1.425 . S
C4061 C4058 1.409 . S
C4061 C4059 1.415 . S
C4062 H4052 0.930 . S
C4062 C4060 1.419 . S
C4062 C4063 1.362 . S
C4063 H4053 0.930 . S
C4063 C4056 1.409 . S
C4063 C4062 1.362 . S
H4064 C4070 0.930 . S
H4065 C4073 0.930 . S
H4066 C4074 0.930 . S
H4067 C4075 0.930 . S
H4068 C4078 0.930 . S
H4069 C4079 0.930 . S
C4070 H4064 0.930 . S
C4070 C4071 1.355 . S
C4070 C4072 1.415 . S
C4071 C4070 1.355 . S
C4071 C4073 1.419 . S
C4072 C4070 1.415 . S
C4072 C4077 1.425 . S
C4072 C4079 1.409 . S
C4073 H4065 0.930 . S
C4073 C4071 1.419 . S
C4073 C4074 1.362 . S
C4074 H4066 0.930 . S
C4074 C4073 1.362 . S
C4074 C4077 1.409 . S
C4075 H4067 0.930 . S
C4075 C4076 1.355 . S
C4075 C4077 1.415 . S
C4076 C4075 1.355 . S
C4076 C4078 1.419 . S
C4077 C4072 1.425 . S
C4077 C4074 1.409 . S
C4077 C4075 1.415 . S
C4078 H4068 0.930 . S
C4078 C4076 1.419 . S
C4078 C4079 1.362 . S
C4079 H4069 0.930 . S
C4079 C4072 1.409 . S
C4079 C4078 1.362 . S
H4080 C4086 0.930 . S
H4081 C4089 0.930 . S
H4082 C4090 0.930 . S
H4083 C4091 0.930 . S
H4084 C4094 0.930 . S
H4085 C4095 0.930 . S
C4086 H4080 0.930 . S
C4086 C4087 1.355 . S
C4086 C4088 1.415 . S
C4087 C4086 1.355 . S
C4087 C4089 1.419 . S
C4088 C4086 1.415 . S
C4088 C4093 1.425 . S
C4088 C4095 1.409 . S
C4089 H4081 0.930 . S
C4089 C4087 1.419 . S
C4089 C4090 1.362 . S
C4090 H4082 0.930 . S
C4090 C4089 1.362 . S
C4090 C4093 1.409 . S
C4091 H4083 0.930 . S
C4091 C4092 1.355 . S
C4091 C4093 1.415 . S
C4092 C4091 1.355 . S
C4092 C4094 1.419 . S
C4093 C4088 1.425 . S
C4093 C4090 1.409 . S
C4093 C4091 1.415 . S
C4094 H4084 0.930 . S
C4094 C4092 1.419 . S
C4094 C4095 1.362 . S
C4095 H4085 0.930 . S
C4095 C4088 1.409 . S
C4095 C4094 1.362 . S
H4096 C4102 0.930 . S
H4097 C4105 0.930 . S
H4098 C4106 0.930 . S
H4099 C4107 0.930 . S
H4100 C4110 0.930 . S
H4101 C4111 0.930 . S
C4102 H4096 0.930 . S
C4102 C4103 1.355 . S
C4102 C4104 1.415 . S
C4103 C4102 1.355 . S
C4103 C4105 1.419 . S
C4104 C4102 1.415 . S
C4104 C4109 1.425 . S
C4104 C4111 1.409 . S
C4105 H4097 0.930 . S
C4105 C4103 1.419 . S
C4105 C4106 1.362 . S
C4106 H4098 0.930 . S
C4106 C4105 1.362 . S
C4106 C4109 1.409 . S
C4107 H4099 0.930 . S
C4107 C4108 1.355 . S
C4107 C4109 1.415 . S
C4108 C4107 1.355 . S
C4108 C4110 1.419 . S
C4109 C4104 1.425 . S
C4109 C4106 1.409 . S
C4109 C4107 1.415 . S
C4110 H4100 0.930 . S
C4110 C4108 1.419 . S
C4110 C4111 1.362 . S
C4111 H4101 0.930 . S
C4111 C4104 1.409 . S
C4111 C4110 1.362 . S
H4112 C4118 0.930 . S
H4113 C4121 0.930 . S
H4114 C4122 0.930 . S
H4115 C4123 0.930 . S
H4116 C4126 0.930 . S
H4117 C4127 0.930 . S
C4118 H4112 0.930 . S
C4118 C4119 1.355 . S
C4118 C4120 1.415 . S
C4119 C4118 1.355 . S
C4119 C4121 1.419 . S
C4120 C4118 1.415 . S
C4120 C4125 1.425 . S
C4120 C4127 1.409 . S
C4121 H4113 0.930 . S
C4121 C4119 1.419 . S
C4121 C4122 1.362 . S
C4122 H4114 0.930 . S
C4122 C4121 1.362 . S
C4122 C4125 1.409 . S
C4123 H4115 0.930 . S
C4123 C4124 1.355 . S
C4123 C4125 1.415 . S
C4124 C4123 1.355 . S
C4124 C4126 1.419 . S
C4125 C4120 1.425 . S
C4125 C4122 1.409 . S
C4125 C4123 1.415 . S
C4126 H4116 0.930 . S
C4126 C4124 1.419 . S
C4126 C4127 1.362 . S
C4127 H4117 0.930 . S
C4127 C4120 1.409 . S
C4127 C4126 1.362 . S
H4128 C4134 0.930 . S
H4129 C4137 0.930 . S
H4130 C4138 0.930 . S
H4131 C4139 0.930 . S
H4132 C4142 0.930 . S
H4133 C4143 0.930 . S
C4134 H4128 0.930 . S
C4134 C4135 1.355 . S
C4134 C4136 1.415 . S
C4135 C4134 1.355 . S
C4135 C4137 1.419 . S
C4136 C4134 1.415 . S
C4136 C4141 1.425 . S
C4136 C4143 1.409 . S
C4137 H4129 0.930 . S
C4137 C4135 1.419 . S
C4137 C4138 1.362 . S
C4138 H4130 0.930 . S
C4138 C4137 1.362 . S
C4138 C4141 1.409 . S
C4139 H4131 0.930 . S
C4139 C4140 1.355 . S
C4139 C4141 1.415 . S
C4140 C4139 1.355 . S
C4140 C4142 1.419 . S
C4141 C4136 1.425 . S
C4141 C4138 1.409 . S
C4141 C4139 1.415 . S
C4142 H4132 0.930 . S
C4142 C4140 1.419 . S
C4142 C4143 1.362 . S
C4143 H4133 0.930 . S
C4143 C4136 1.409 . S
C4143 C4142 1.362 . S
H4144 C4150 0.930 . S
H4145 C4153 0.930 . S
H4146 C4154 0.930 . S
H4147 C4155 0.930 . S
H4148 C4158 0.930 . S
H4149 C4159 0.930 . S
C4150 H4144 0.930 . S
C4150 C4151 1.355 . S
C4150 C4152 1.415 . S
C4151 C4150 1.355 . S
C4151 C4153 1.419 . S
C4152 C4150 1.415 . S
C4152 C4157 1.425 . S
C4152 C4159 1.409 . S
C4153 H4145 0.930 . S
C4153 C4151 1.419 . S
C4153 C4154 1.362 . S
C4154 H4146 0.930 . S
C4154 C4153 1.362 . S
C4154 C4157 1.409 . S
C4155 H4147 0.930 . S
C4155 C4156 1.355 . S
C4155 C4157 1.415 . S
C4156 C4155 1.355 . S
C4156 C4158 1.419 . S
C4157 C4152 1.425 . S
C4157 C4154 1.409 . S
C4157 C4155 1.415 . S
C4158 H4148 0.930 . S
C4158 C4156 1.419 . S
C4158 C4159 1.362 . S
C4159 H4149 0.930 . S
C4159 C4152 1.409 . S
C4159 C4158 1.362 . S
H4160 C4166 0.930 . S
H4161 C4169 0.930 . S
H4162 C4170 0.930 . S
H4163 C4171 0.930 . S
H4164 C4174 0.930 . S
H4165 C4175 0.930 . S
C4166 H4160 0.930 . S
C4166 C4167 1.355 . S
C4166 C4168 1.415 . S
C4167 C4166 1.355 . S
C4167 C4169 1.419 . S
C4168 C4166 1.415 . S
C4168 C4173 1.425 . S
C4168 C4175 1.409 . S
C4169 H4161 0.930 . S
C4169 C4167 1.419 . S
C4169 C4170 1.362 . S
C4170 H4162 0.930 . S
C4170 C4169 1.362 . S
C4170 C4173 1.409 . S
C4171 H4163 0.930 . S
C4171 C4172 1.355 . S
C4171 C4173 1.415 . S
C4172 C4171 1.355 . S
C4172 C4174 1.419 . S
C4173 C4168 1.425 . S
C4173 C4170 1.409 . S
C4173 C4171 1.415 . S
C4174 H4164 0.930 . S
C4174 C4172 1.419 . S
C4174 C4175 1.362 . S
C4175 H4165 0.930 . S
C4175 C4168 1.409 . S
C4175 C4174 1.362 . S
H4176 C4182 0.930 . S
H4177 C4185 0.930 . S
H4178 C4186 0.930 . S
H4179 C4187 0.930 . S
H4180 C4190 0.930 . S
H4181 C4191 0.930 . S
C4182 H4176 0.930 . S
C4182 C4183 1.355 . S
C4182 C4184 1.415 . S
C4183 C4182 1.355 . S
C4183 C4185 1.419 . S
C4184 C4182 1.415 . S
C4184 C4189 1.425 . S
C4184 C4191 1.409 . S
C4185 H4177 0.930 . S
C4185 C4183 1.419 . S
C4185 C4186 1.362 . S
C4186 H4178 0.930 . S
C4186 C4185 1.362 . S
C4186 C4189 1.409 . S
C4187 H4179 0.930 . S
C4187 C4188 1.355 . S
C4187 C4189 1.415 . S
C4188 C4187 1.355 . S
C4188 C4190 1.419 . S
C4189 C4184 1.425 . S
C4189 C4186 1.409 . S
C4189 C4187 1.415 . S
C4190 H4180 0.930 . S
C4190 C4188 1.419 . S
C4190 C4191 1.362 . S
C4191 H4181 0.930 . S
C4191 C4184 1.409 . S
C4191 C4190 1.362 . S
H4192 C4198 0.930 . S
H4193 C4201 0.930 . S
H4194 C4202 0.930 . S
H4195 C4203 0.930 . S
H4196 C4206 0.930 . S
H4197 C4207 0.930 . S
C4198 H4192 0.930 . S
C4198 C4199 1.355 . S
C4198 C4200 1.415 . S
C4199 C4198 1.355 . S
C4199 C4201 1.419 . S
C4200 C4198 1.415 . S
C4200 C4205 1.425 . S
C4200 C4207 1.409 . S
C4201 H4193 0.930 . S
C4201 C4199 1.419 . S
C4201 C4202 1.362 . S
C4202 H4194 0.930 . S
C4202 C4201 1.362 . S
C4202 C4205 1.409 . S
C4203 H4195 0.930 . S
C4203 C4204 1.355 . S
C4203 C4205 1.415 . S
C4204 C4203 1.355 . S
C4204 C4206 1.419 . S
C4205 C4200 1.425 . S
C4205 C4202 1.409 . S
C4205 C4203 1.415 . S
C4206 H4196 0.930 . S
C4206 C4204 1.419 . S
C4206 C4207 1.362 . S
C4207 H4197 0.930 . S
C4207 C4200 1.409 . S
C4207 C4206 1.362 . S
H4208 C4214 0.930 . S
H4209 C4217 0.930 . S
H4210 C4218 0.930 . S
H4211 C4219 0.930 . S
H4212 C4222 0.930 . S
H4213 C4223 0.930 . S
C4214 H4208 0.930 . S
C4214 C4215 1.355 . S
C4214 C4216 1.415 . S
C4215 C4214 1.355 . S
C4215 C4217 1.419 . S
C4216 C4214 1.415 . S
C4216 C4221 1.425 . S
C4216 C4223 1.409 . S
C4217 H4209 0.930 . S
C4217 C4215 1.419 . S
C4217 C4218 1.362 . S
C4218 H4210 0.930 . S
C4218 C4217 1.362 . S
C4218 C4221 1.409 . S
C4219 H4211 0.930 . S
C4219 C4220 1.355 . S
C4219 C4221 1.415 . S
C4220 C4219 1.355 . S
C4220 C4222 1.419 . S
C4221 C4216 1.425 . S
C4221 C4218 1.409 . S
C4221 C4219 1.415 . S
C4222 H4212 0.930 . S
C4222 C4220 1.419 . S
C4222 C4223 1.362 . S
C4223 H4213 0.930 . S
C4223 C4216 1.409 . S
C4223 C4222 1.362 . S
H4224 C4230 0.930 . S
H4225 C4233 0.930 . S
H4226 C4234 0.930 . S
H4227 C4235 0.930 . S
H4228 C4238 0.930 . S
H4229 C4239 0.930 . S
C4230 H4224 0.930 . S
C4230 C4231 1.355 . S
C4230 C4232 1.415 . S
C4231 C4230 1.355 . S
C4231 C4233 1.419 1_455 S
C4232 C4230 1.415 . S
C4232 C4237 1.425 1_455 S
C4232 C4239 1.409 . S
C4233 H4225 0.930 . S
C4233 C4231 1.419 1_655 S
C4233 C4234 1.362 . S
C4234 H4226 0.930 . S
C4234 C4233 1.362 . S
C4234 C4237 1.409 . S
C4235 H4227 0.930 . S
C4235 C4236 1.355 . S
C4235 C4237 1.415 . S
C4236 C4235 1.355 . S
C4236 C4238 1.419 1_655 S
C4237 C4232 1.425 1_655 S
C4237 C4234 1.409 . S
C4237 C4235 1.415 . S
C4238 H4228 0.930 . S
C4238 C4236 1.419 1_455 S
C4238 C4239 1.362 . S
C4239 H4229 0.930 . S
C4239 C4232 1.409 . S
C4239 C4238 1.362 . S
H4240 C4246 0.930 . S
H4241 C4249 0.930 . S
H4242 C4250 0.930 . S
H4243 C4251 0.930 . S
H4244 C4254 0.930 . S
H4245 C4255 0.930 . S
C4246 H4240 0.930 . S
C4246 C4247 1.355 . S
C4246 C4248 1.415 . S
C4247 C4246 1.355 . S
C4247 C4249 1.419 . S
C4248 C4246 1.415 . S
C4248 C4253 1.425 . S
C4248 C4255 1.409 . S
C4249 H4241 0.930 . S
C4249 C4247 1.419 . S
C4249 C4250 1.362 . S
C4250 H4242 0.930 . S
C4250 C4249 1.362 . S
C4250 C4253 1.409 . S
C4251 H4243 0.930 . S
C4251 C4252 1.355 . S
C4251 C4253 1.415 . S
C4252 C4251 1.355 . S
C4252 C4254 1.419 . S
C4253 C4248 1.425 . S
C4253 C4250 1.409 . S
C4253 C4251 1.415 . S
C4254 H4244 0.930 . S
C4254 C4252 1.419 . S
C4254 C4255 1.362 . S
C4255 H4245 0.930 . S
C4255 C4248 1.409 . S
C4255 C4254 1.362 . S
H4256 C4262 0.930 . S
H4257 C4265 0.930 . S
H4258 C4266 0.930 . S
H4259 C4267 0.930 . S
H4260 C4270 0.930 . S
H4261 C4271 0.930 . S
C4262 H4256 0.930 . S
C4262 C4263 1.355 1_565 S
C4262 C4264 1.415 . S
C4263 C4262 1.355 1_545 S
C4263 C4265 1.419 . S
C4264 C4262 1.415 . S
C4264 C4269 1.425 1_565 S
C4264 C4271 1.409 . S
C4265 H4257 0.930 . S
C4265 C4263 1.419 . S
C4265 C4266 1.362 . S
C4266 H4258 0.930 . S
C4266 C4265 1.362 . S
C4266 C4269 1.409 . S
C4267 H4259 0.930 . S
C4267 C4268 1.355 1_545 S
C4267 C4269 1.415 . S
C4268 C4267 1.355 1_565 S
C4268 C4270 1.419 . S
C4269 C4264 1.425 1_545 S
C4269 C4266 1.409 . S
C4269 C4267 1.415 . S
C4270 H4260 0.930 . S
C4270 C4268 1.419 . S
C4270 C4271 1.362 . S
C4271 H4261 0.930 . S
C4271 C4264 1.409 . S
C4271 C4270 1.362 . S
H4272 C4278 0.930 . S
H4273 C4281 0.930 . S
H4274 C4282 0.930 . S
H4275 C4283 0.930 . S
H4276 C4286 0.930 . S
H4277 C4287 0.930 . S
C4278 H4272 0.930 . S
C4278 C4279 1.355 1_554 S
C4278 C4280 1.415 1_545 S
C4279 C4278 1.355 1_556 S
C4279 C4281 1.419 . S
C4280 C4278 1.415 1_565 S
C4280 C4285 1.425 1_564 S
C4280 C4287 1.409 . S
C4281 H4273 0.930 . S
C4281 C4279 1.419 . S
C4281 C4282 1.362 . S
C4282 H4274 0.930 . S
C4282 C4281 1.362 . S
C4282 C4285 1.409 . S
C4283 H4275 0.930 . S
C4283 C4284 1.355 1_556 S
C4283 C4285 1.415 1_565 S
C4284 C4283 1.355 1_554 S
C4284 C4286 1.419 . S
C4285 C4280 1.425 1_546 S
C4285 C4282 1.409 . S
C4285 C4283 1.415 1_545 S
C4286 H4276 0.930 . S
C4286 C4284 1.419 . S
C4286 C4287 1.362 . S
C4287 H4277 0.930 . S
C4287 C4280 1.409 . S
C4287 C4286 1.362 . S
H4288 C4294 0.930 . S
H4289 C4297 0.930 . S
H4290 C4298 0.930 . S
H4291 C4299 0.930 . S
H4292 C4302 0.930 . S
H4293 C4303 0.930 . S
C4294 H4288 0.930 . S
C4294 C4295 1.356 1_456 S
C4294 C4296 1.415 . S
C4295 C4294 1.356 1_654 S
C4295 C4297 1.417 . S
C4296 C4294 1.415 . S
C4296 C4301 1.425 1_456 S
C4296 C4303 1.409 . S
C4297 H4289 0.930 . S
C4297 C4295 1.417 . S
C4297 C4298 1.362 . S
C4298 H4290 0.930 . S
C4298 C4297 1.362 . S
C4298 C4301 1.409 . S
C4299 H4291 0.930 . S
C4299 C4300 1.342 1_654 S
C4299 C4301 1.415 . S
C4300 C4299 1.342 1_456 S
C4300 C4302 1.436 . S
C4301 C4296 1.425 1_654 S
C4301 C4298 1.409 . S
C4301 C4299 1.415 . S
C4302 H4292 0.930 . S
C4302 C4300 1.436 . S
C4302 C4303 1.362 . S
C4303 H4293 0.930 . S
C4303 C4296 1.409 . S
C4303 C4302 1.362 . S
H4304 C4310 0.930 . S
H4305 C4313 0.930 . S
H4306 C4314 0.930 . S
H4307 C4315 0.930 . S
H4308 C4318 0.930 . S
H4309 C4319 0.930 . S
C4310 H4304 0.930 . S
C4310 C4311 1.256 1_556 S
C4310 C4312 1.415 . S
C4311 C4310 1.256 1_554 S
C4311 C4313 1.543 . S
C4312 C4310 1.415 . S
C4312 C4317 1.425 1_556 S
C4312 C4319 1.409 . S
C4313 H4305 0.930 . S
C4313 C4311 1.543 . S
C4313 C4314 1.362 . S
C4314 H4306 0.930 . S
C4314 C4313 1.362 . S
C4314 C4317 1.409 . S
C4315 H4307 0.930 . S
C4315 C4316 1.355 1_554 S
C4315 C4317 1.415 . S
C4316 C4315 1.355 1_556 S
C4316 C4318 1.419 . S
C4317 C4312 1.425 1_554 S
C4317 C4314 1.409 . S
C4317 C4315 1.415 . S
C4318 H4308 0.930 . S
C4318 C4316 1.419 . S
C4318 C4319 1.362 . S
C4319 H4309 0.930 . S
C4319 C4312 1.409 . S
C4319 C4318 1.362 . S
C3175 C20 1.242 . S
C3180 C137 1.607 . S
C3191 C117 1.389 . S
C3196 C233 1.650 . S
C3207 C57 1.625 . S
C3212 C196 1.324 . S
C3223 C313 1.381 . S
C3228 C460 1.645 . S
C3239 C409 1.304 . S
C3244 C293 1.619 . S
C3255 C372 1.604 . S
C3260 C497 1.240 . S
C3271 C557 1.351 . S
C3276 C665 1.643 . S
C3287 C753 1.644 . S
C3292 C673 1.356 . S
C3303 C548 1.631 . S
C3308 C761 1.345 . S
C3319 C1017 1.612 . S
C3324 C812 1.240 . S
C3335 C929 1.230 . S
C3340 C821 1.606 . S
C3351 C1025 1.341 . S
C3356 C937 1.630 . S
C3367 C1201 1.608 . S
C3372 C1076 1.260 . S
C3383 C1164 1.352 . S
C3388 C1281 1.635 . S
C3399 C1261 1.376 . S
C3404 C1113 1.643 . S
C3415 C1369 1.387 . S
C3420 C1516 1.648 . S
C3431 C1457 1.383 . S
C3436 C1349 1.650 . S
C3447 C1553 1.388 . S
C3452 C1437 1.649 . S
C3463 C1721 1.638 . S
C3468 C1604 1.365 . S
C3479 C1729 1.353 . S
C3484 C1809 1.644 . S
C3495 C1613 1.641 . S
C3500 C1817 1.342 . S
C3511 C2081 1.629 . S
C3516 C1868 1.337 . S
C3527 C1965 1.313 . S
C3532 C1877 1.634 . S
C3543 C1956 1.604 . S
C3548 C2073 1.230 . S
C3559 C2249 1.626 . S
C3564 C2132 1.328 . S
C3575 C2229 1.326 . S
C3580 C2337 1.635 . S
C3591 C2317 1.387 . S
C3596 C2169 1.650 . S
C3607 C2572 1.612 . S
C3612 C2433 1.254 . S
C3623 C2513 1.301 . S
C3628 C2396 1.628 . S
C3639 C2493 1.649 . S
C3644 C2609 1.388 . S
C3655 C2660 1.259 . S
C3660 C2757 1.608 . S
C3671 C2748 1.312 . S
C3676 C2865 1.622 . S
C3687 C2873 1.374 . S
C3692 C2669 1.642 . S
C3703 C3129 1.638 . S
C3708 C2924 1.364 . S
C3719 C2933 1.646 . S
C3724 C3041 1.366 . S
C3735 C3137 1.253 . S
C3740 C3049 1.616 . S
C3751 C321 1.721 . S
C3756 C29 1.685 . S
C3767 C108 1.694 . S
C3772 C401 1.704 . S
C3783 C489 1.711 . S
C3788 C205 1.702 . S
C3799 C849 1.686 . S
C3804 C577 1.722 . S
C3815 C636 1.704 . S
C3820 C909 1.716 . S
C3831 C988 1.691 . S
C3836 C724 1.707 . S
C3847 C1085 1.703 . S
C3852 C1377 1.707 . S
C3863 C1173 1.714 . S
C3868 C1465 1.686 . S
C3879 C1252 1.720 . S
C3884 C1545 1.685 . S
C3895 C1905 1.695 . S
C3900 C1641 1.719 . S
C3911 C1985 1.688 . S
C3916 C1692 1.711 . S
C3927 C1780 1.688 . S
C3932 C2053 1.721 . S
C3943 C2425 1.682 . S
C3948 C2141 1.718 . S
C3959 C2521 1.706 . S
C3964 C2220 1.705 . S
C3975 C2308 1.688 . S
C3980 C2601 1.710 . S
C3991 C2697 1.700 . S
C3996 C2961 1.715 . S
C4007 C3021 1.689 . S
C4012 C2785 1.711 . S
C4023 C2836 1.685 . S
C4028 C3100 1.715 . S
C4039 C49 2.742 . S
C4044 C1633 2.750 . S
C4055 C145 2.723 . S
C4060 C1701 2.733 . S
C4071 C225 2.734 . S
C4076 C1789 2.742 . S
C4087 C2953 2.684 . S
C4092 C284 2.674 . S
C4103 C3012 2.714 . S
C4108 C381 2.706 . S
C4119 C469 2.682 . S
C4124 C3109 2.692 . S
C4135 C585 2.681 . S
C4140 C2161 2.671 . S
C4151 C2257 2.738 . S
C4156 C645 2.746 . S
C4167 C2345 2.740 . S
C4172 C733 2.749 . S
C4183 C1340 2.683 . S
C4188 C841 2.692 . S
C4199 C1428 2.742 . S
C4204 C900 2.751 . S
C4215 C1525 2.736 . S
C4220 C997 2.744 . S
C4231 C2689 2.750 . S
C4236 C1105 2.741 . S
C4247 C1193 2.676 . S
C4252 C2777 2.685 . S
C4263 C1289 2.701 . S
C4268 C2845 2.711 . S
C4279 C1897 2.715 1_556 S
C4284 C2405 2.705 1_554 S
C4295 C1993 2.682 . S
C4300 C2484 2.676 . S
C4311 C2581 2.722 1_554 S
C4316 C2044 2.748 1_556 S
