# Generated by pormake.
# Topology wia, (6)-cn, num edge types: 1
# Building blocks:
#     Node 0, Type 0, BuildingBlock: KUMBUR_clean_sbu_1, # of connection points: 6
#     Node 1, Type 0, BuildingBlock: KUMBUR_clean_sbu_1, # of connection points: 6
#     Node 2, Type 0, BuildingBlock: KUMBUR_clean_sbu_1, # of connection points: 6
#     Node 3, Type 0, BuildingBlock: KUMBUR_clean_sbu_1, # of connection points: 6
#     Node 4, Type 0, BuildingBlock: KUMBUR_clean_sbu_1, # of connection points: 6
#     Node 5, Type 0, BuildingBlock: KUMBUR_clean_sbu_1, # of connection points: 6
#     Node 6, Type 0, BuildingBlock: KUMBUR_clean_sbu_1, # of connection points: 6
#     Node 7, Type 0, BuildingBlock: KUMBUR_clean_sbu_1, # of connection points: 6
#     Node 8, Type 0, BuildingBlock: KUMBUR_clean_sbu_1, # of connection points: 6
#     Node 9, Type 0, BuildingBlock: KUMBUR_clean_sbu_1, # of connection points: 6
#     Node 10, Type 0, BuildingBlock: KUMBUR_clean_sbu_1, # of connection points: 6
#     Node 11, Type 0, BuildingBlock: KUMBUR_clean_sbu_1, # of connection points: 6
#     Node 12, Type 0, BuildingBlock: KUMBUR_clean_sbu_1, # of connection points: 6
#     Node 13, Type 0, BuildingBlock: KUMBUR_clean_sbu_1, # of connection points: 6
#     Node 14, Type 0, BuildingBlock: KUMBUR_clean_sbu_1, # of connection points: 6
#     Node 15, Type 0, BuildingBlock: KUMBUR_clean_sbu_1, # of connection points: 6
#     Edge 16, Type (0, 0), BuildingBlock: XIVTED_clean_linker_0, # of connection points: 2
#     Edge 17, Type (0, 0), BuildingBlock: XIVTED_clean_linker_0, # of connection points: 2
#     Edge 18, Type (0, 0), BuildingBlock: XIVTED_clean_linker_0, # of connection points: 2
#     Edge 19, Type (0, 0), BuildingBlock: XIVTED_clean_linker_0, # of connection points: 2
#     Edge 20, Type (0, 0), BuildingBlock: XIVTED_clean_linker_0, # of connection points: 2
#     Edge 21, Type (0, 0), BuildingBlock: XIVTED_clean_linker_0, # of connection points: 2
#     Edge 22, Type (0, 0), BuildingBlock: XIVTED_clean_linker_0, # of connection points: 2
#     Edge 23, Type (0, 0), BuildingBlock: XIVTED_clean_linker_0, # of connection points: 2
#     Edge 24, Type (0, 0), BuildingBlock: XIVTED_clean_linker_0, # of connection points: 2
#     Edge 25, Type (0, 0), BuildingBlock: XIVTED_clean_linker_0, # of connection points: 2
#     Edge 26, Type (0, 0), BuildingBlock: XIVTED_clean_linker_0, # of connection points: 2
#     Edge 27, Type (0, 0), BuildingBlock: XIVTED_clean_linker_0, # of connection points: 2
#     Edge 28, Type (0, 0), BuildingBlock: XIVTED_clean_linker_0, # of connection points: 2
#     Edge 29, Type (0, 0), BuildingBlock: XIVTED_clean_linker_0, # of connection points: 2
#     Edge 30, Type (0, 0), BuildingBlock: XIVTED_clean_linker_0, # of connection points: 2
#     Edge 31, Type (0, 0), BuildingBlock: XIVTED_clean_linker_0, # of connection points: 2
#     Edge 32, Type (0, 0), BuildingBlock: XIVTED_clean_linker_0, # of connection points: 2
#     Edge 33, Type (0, 0), BuildingBlock: XIVTED_clean_linker_0, # of connection points: 2
#     Edge 34, Type (0, 0), BuildingBlock: XIVTED_clean_linker_0, # of connection points: 2
#     Edge 35, Type (0, 0), BuildingBlock: XIVTED_clean_linker_0, # of connection points: 2
#     Edge 36, Type (0, 0), BuildingBlock: XIVTED_clean_linker_0, # of connection points: 2
#     Edge 37, Type (0, 0), BuildingBlock: XIVTED_clean_linker_0, # of connection points: 2
#     Edge 38, Type (0, 0), BuildingBlock: XIVTED_clean_linker_0, # of connection points: 2
#     Edge 39, Type (0, 0), BuildingBlock: XIVTED_clean_linker_0, # of connection points: 2
#     Edge 40, Type (0, 0), BuildingBlock: XIVTED_clean_linker_0, # of connection points: 2
#     Edge 41, Type (0, 0), BuildingBlock: XIVTED_clean_linker_0, # of connection points: 2
#     Edge 42, Type (0, 0), BuildingBlock: XIVTED_clean_linker_0, # of connection points: 2
#     Edge 43, Type (0, 0), BuildingBlock: XIVTED_clean_linker_0, # of connection points: 2
#     Edge 44, Type (0, 0), BuildingBlock: XIVTED_clean_linker_0, # of connection points: 2
#     Edge 45, Type (0, 0), BuildingBlock: XIVTED_clean_linker_0, # of connection points: 2
#     Edge 46, Type (0, 0), BuildingBlock: XIVTED_clean_linker_0, # of connection points: 2
#     Edge 47, Type (0, 0), BuildingBlock: XIVTED_clean_linker_0, # of connection points: 2
#     Edge 48, Type (0, 0), BuildingBlock: XIVTED_clean_linker_0, # of connection points: 2
#     Edge 49, Type (0, 0), BuildingBlock: XIVTED_clean_linker_0, # of connection points: 2
#     Edge 50, Type (0, 0), BuildingBlock: XIVTED_clean_linker_0, # of connection points: 2
#     Edge 51, Type (0, 0), BuildingBlock: XIVTED_clean_linker_0, # of connection points: 2
#     Edge 52, Type (0, 0), BuildingBlock: XIVTED_clean_linker_0, # of connection points: 2
#     Edge 53, Type (0, 0), BuildingBlock: XIVTED_clean_linker_0, # of connection points: 2
#     Edge 54, Type (0, 0), BuildingBlock: XIVTED_clean_linker_0, # of connection points: 2
#     Edge 55, Type (0, 0), BuildingBlock: XIVTED_clean_linker_0, # of connection points: 2
#     Edge 56, Type (0, 0), BuildingBlock: XIVTED_clean_linker_0, # of connection points: 2
#     Edge 57, Type (0, 0), BuildingBlock: XIVTED_clean_linker_0, # of connection points: 2
#     Edge 58, Type (0, 0), BuildingBlock: XIVTED_clean_linker_0, # of connection points: 2
#     Edge 59, Type (0, 0), BuildingBlock: XIVTED_clean_linker_0, # of connection points: 2
#     Edge 60, Type (0, 0), BuildingBlock: XIVTED_clean_linker_0, # of connection points: 2
#     Edge 61, Type (0, 0), BuildingBlock: XIVTED_clean_linker_0, # of connection points: 2
#     Edge 62, Type (0, 0), BuildingBlock: XIVTED_clean_linker_0, # of connection points: 2
#     Edge 63, Type (0, 0), BuildingBlock: XIVTED_clean_linker_0, # of connection points: 2
# Relax obj value: 0.500
# Max RMSD: 0.296
# Mean RMSD: 0.233
data_MOF--net-wia--node1-KUMBUR_clean_sbu_1--edge1-XIVTED_clean_linker_0
_symmetry_space_group_name_H-M    P1
_symmetry_Int_Tables_number       1
_symmetry_cell_setting            triclinic
loop_
_symmetry_equiv_pos_as_xyz
'x, y, z'
_cell_length_a     31.686873
_cell_length_b     31.600275
_cell_length_c     88.450204
_cell_angle_alpha  105.09075
_cell_angle_beta   89.02589
_cell_angle_gamma 98.946432
loop_
_atom_site_label
_atom_site_type_symbol
_atom_site_fract_x
_atom_site_fract_y
_atom_site_fract_z
_atom_type_partial_charge
Tb0 Tb 0.08588 0.63622 0.20797 0.0
C1 C 1.00128 0.53704 0.14488 0.0
N2 N 1.04091 0.5343 0.14975 0.0
C3 C 1.02459 0.45465 0.14154 0.0
C4 C 0.97079 0.49879 0.13905 0.0
C5 C 0.05379 0.49365 0.14695 0.0
C6 C 0.98251 0.45724 0.13795 0.0
C7 C 0.95349 0.58256 0.13822 0.0
C8 C 0.99288 0.57799 0.14429 0.0
C9 C 0.92187 0.54507 0.13335 0.0
C10 C 0.93052 0.50318 0.13376 0.0
Tb11 Tb 0.08486 0.60069 0.1601 0.0
N12 N 1.02446 0.61318 0.14897 0.0
C13 C 0.94763 0.62438 0.13683 0.0
C14 C 1.02002 0.65341 0.14657 0.0
C15 C 0.98123 0.65984 0.14087 0.0
H16 H 0.08682 0.49105 0.14858 0.0
H17 H 0.97746 0.69202 0.13941 0.0
H18 H 1.00922 0.56112 0.21536 0.0
H19 H 0.13296 0.80851 0.23781 0.0
H20 H 1.04603 0.68084 0.14936 0.0
H21 H 0.91783 0.62933 0.13223 0.0
H22 H 0.14212 0.73556 0.22024 0.0
H23 H 1.03482 0.42264 0.13984 0.0
H24 H 0.89119 0.54789 0.1288 0.0
H25 H 0.90647 0.47425 0.12942 0.0
H26 H 0.94338 0.55973 0.23065 0.0
H27 H 0.9601 0.427 0.13352 0.0
H28 H 0.06558 0.81718 0.25207 0.0
N29 N 1.02488 0.63153 0.22203 0.0
C30 C 1.01495 0.67004 0.23118 0.0
C31 C 0.96316 0.59106 0.23087 0.0
C32 C 0.97845 0.67085 0.24051 0.0
C33 C 1.00039 0.59201 0.22213 0.0
C34 C 0.95185 0.63073 0.23998 0.0
N35 N 0.07967 0.7045 0.22384 0.0
C36 C 0.11245 0.73939 0.22628 0.0
C37 C 1.03712 0.74857 0.24253 0.0
C38 C 1.04356 0.70811 0.23214 0.0
C39 C 0.06925 0.78541 0.24422 0.0
C40 C 0.10739 0.78061 0.23623 0.0
H41 H 0.92328 0.62991 0.24687 0.0
H42 H 0.94288 0.71271 0.25776 0.0
H43 H 0.9942 0.78101 0.25944 0.0
O44 O 0.14409 0.61633 0.21172 0.0
O45 O 0.0812 0.69346 0.19725 0.0
O46 O 0.0936 0.67497 0.17005 0.0
O47 O 0.10115 0.63326 0.23073 0.0
O48 O 0.14118 0.66376 0.19667 0.0
O49 O 0.13261 0.60219 0.17743 0.0
O50 O 0.10606 0.56976 0.13783 0.0
O51 O 0.10028 0.54887 0.1721 0.0
O52 O 0.07025 0.56257 0.19687 0.0
O53 O 0.1311 0.63703 0.14904 0.0
O54 O 1.0311 0.62749 0.17258 0.0
O55 O 1.03474 0.59559 0.19221 0.0
C56 C 0.08744 0.70442 0.18356 0.0
C57 C 0.1491 0.58395 0.23244 0.0
C58 C 0.20447 0.55757 0.24461 0.0
C59 C 0.17914 0.51556 0.24182 0.0
C60 C 0.12346 0.54232 0.22998 0.0
C61 C 0.13856 0.50819 0.23466 0.0
C62 C 0.1891 0.59144 0.23985 0.0
C63 C 0.1564 0.63949 0.1842 0.0
C64 C 0.13728 0.61962 0.22646 0.0
C65 C 0.97078 0.71131 0.25049 0.0
C66 C 0.99996 0.75022 0.25143 0.0
C67 C 0.08518 0.5349 0.18456 0.0
C68 C 0.13056 0.61629 0.12151 0.0
C69 C 0.09199 0.63116 0.10028 0.0
C70 C 0.13097 0.63886 0.09286 0.0
C71 C 0.16908 0.62413 0.11395 0.0
C72 C 0.09206 0.61951 0.1146 0.0
C73 C 0.16924 0.6353 0.09968 0.0
C74 C 1.01289 0.61392 0.18409 0.0
C75 C 0.13152 0.60482 0.13655 0.0
H76 H 0.19056 0.4888 0.24528 0.0
H77 H 0.09232 0.53625 0.22432 0.0
H78 H 0.11894 0.47588 0.23261 0.0
H79 H 0.20904 0.62357 0.24147 0.0
H80 H 0.13194 0.64833 0.08192 0.0
H81 H 0.19903 0.62144 0.11907 0.0
H82 H 0.06223 0.61244 0.12024 0.0
H83 H 0.19912 0.64138 0.09392 0.0
Tb84 Tb 0.81679 0.92773 0.43872 0.0
C85 C 0.80138 0.98775 0.3746 0.0
N86 N 0.83265 0.97888 0.38299 0.0
C87 C 0.86159 0.93896 0.35922 0.0
C88 C 0.79799 0.97157 0.35818 0.0
C89 C 0.8638 0.95641 0.3755 0.0
C90 C 0.82809 0.9459 0.35053 0.0
C91 C 0.7447 1.03061 0.3743 0.0
C92 C 0.77507 1.01627 0.38247 0.0
C93 C 0.73935 1.01287 0.35802 0.0
C94 C 0.76589 0.98317 0.34996 0.0
Tb95 Tb 0.83064 1.00452 0.4097 0.0
N96 N 0.78188 0.03282 0.39807 0.0
C97 C 0.72209 0.06362 0.38268 0.0
C98 C 0.76134 0.06633 0.40623 0.0
C99 C 0.73104 0.08214 0.39868 0.0
H100 H 0.88997 0.95101 0.38206 0.0
H101 H 0.71448 0.10836 0.40522 0.0
H102 H 0.73463 0.84865 0.42935 0.0
H103 H 0.88697 1.01587 0.49566 0.0
H104 H 0.76797 0.08039 0.41862 0.0
H105 H 0.69866 0.07588 0.37685 0.0
H106 H 0.88714 0.9838 0.46704 0.0
H107 H 0.88574 0.9202 0.35339 0.0
H108 H 0.71581 1.02295 0.3515 0.0
H109 H 0.76239 0.97073 0.33734 0.0
H110 H 0.6704 0.81951 0.44211 0.0
H111 H 0.82661 0.93266 0.33792 0.0
H112 H 0.82138 1.00225 0.51043 0.0
N113 N 0.7577 0.89867 0.44984 0.0
C114 C 0.75284 0.91579 0.46532 0.0
C115 C 0.69317 0.84689 0.44876 0.0
C116 C 0.71701 0.90046 0.47316 0.0
C117 C 0.72947 0.86342 0.44157 0.0
C118 C 0.68648 0.86607 0.46458 0.0
N119 N 0.82137 0.95533 0.46543 0.0
C120 C 0.85804 0.9785 0.47331 0.0
C121 C 0.78466 0.96208 0.48985 0.0
C122 C 0.78603 0.94571 0.47347 0.0
C123 C 0.82106 0.98885 0.49784 0.0
C124 C 0.85816 0.99649 0.48955 0.0
H125 H 0.65849 0.85313 0.47015 0.0
H126 H 0.68654 0.9076 0.49563 0.0
H127 H 0.74589 0.96194 0.51029 0.0
O128 O 0.84633 0.87746 0.42394 0.0
O129 O 0.84355 0.99775 0.44548 0.0
O130 O 0.80254 1.02841 0.43221 0.0
O131 O 0.83574 0.87938 0.44825 0.0
O132 O 0.88349 0.96144 0.43654 0.0
O133 O 0.8851 0.96793 0.41117 0.0
O134 O 0.86314 0.05942 0.4027 0.0
O135 O 0.83487 0.93443 0.40298 0.0
O136 O 0.78338 0.90285 0.41608 0.0
O137 O 0.87929 0.04752 0.42454 0.0
O138 O 0.76055 0.9892 0.41579 0.0
O139 O 0.75232 0.94365 0.43323 0.0
C140 C 0.81948 1.0276 0.44541 0.0
C141 C 0.82387 0.80914 0.43045 0.0
C142 C 0.79523 0.74377 0.43942 0.0
C143 C 0.77538 0.72394 0.42464 0.0
C144 C 0.80376 0.78889 0.41574 0.0
C145 C 0.77991 0.74636 0.41287 0.0
C146 C 0.82022 0.78591 0.44203 0.0
C147 C 0.90529 0.96453 0.42378 0.0
C148 C 0.84542 0.85567 0.43462 0.0
C149 C 0.71403 0.91849 0.48937 0.0
C150 C 0.74783 0.94941 0.49772 0.0
C151 C 0.80032 0.90618 0.40284 0.0
C152 C 0.87876 0.12164 0.42485 0.0
C153 C 0.83785 0.18289 0.42934 0.0
C154 C 0.85756 0.20095 0.44418 0.0
C155 C 0.89941 0.14094 0.43951 0.0
C156 C 0.84943 0.14395 0.41961 0.0
C157 C 0.88912 0.18064 0.44903 0.0
C158 C 0.73588 0.96651 0.42453 0.0
C159 C 0.88354 0.07595 0.41615 0.0
H160 H 0.7558 0.69153 0.42227 0.0
H161 H 0.80571 0.80609 0.40658 0.0
H162 H 0.76424 0.73105 0.40155 0.0
H163 H 0.83648 0.80126 0.45326 0.0
H164 H 0.84845 0.23046 0.45197 0.0
H165 H 0.92229 0.12446 0.44384 0.0
H166 H 0.83346 0.12964 0.4083 0.0
H167 H 0.90463 0.19488 0.46042 0.0
Tb168 Tb 0.61512 0.64481 0.66175 0.0
C169 C 0.52247 0.61029 0.72475 0.0
N170 N 0.50926 0.60256 0.70969 0.0
C171 C 0.46585 0.53457 0.71127 0.0
C172 C 0.50916 0.57976 0.73363 0.0
C173 C 0.47974 0.5663 0.70304 0.0
C174 C 0.48119 0.54096 0.72656 0.0
C175 C 0.55788 0.66256 0.74759 0.0
C176 C 0.54623 0.65082 0.73157 0.0
C177 C 0.54713 0.63135 0.75637 0.0
C178 C 0.52274 0.58995 0.74939 0.0
Tb179 Tb 0.53588 0.65417 0.69668 0.0
N180 N 0.55448 0.68019 0.72275 0.0
C181 C 0.5782 0.70586 0.75439 0.0
C182 C 0.57145 0.72335 0.72958 0.0
C183 C 0.58439 0.73659 0.74539 0.0
H184 H 0.46777 0.56139 0.69124 0.0
H185 H 0.59886 0.77054 0.75064 0.0
H186 H 0.56362 0.68032 0.63615 0.0
H187 H 0.7205 0.52271 0.65145 0.0
H188 H 0.57581 0.74747 0.72275 0.0
H189 H 0.58776 0.7163 0.76667 0.0
H190 H 0.69174 0.58993 0.66621 0.0
H191 H 0.4433 0.50532 0.70583 0.0
H192 H 0.55616 0.63949 0.76868 0.0
H193 H 0.51331 0.56676 0.75641 0.0
H194 H 0.53546 0.65062 0.60893 0.0
H195 H 0.47014 0.51657 0.73296 0.0
H196 H 0.69067 0.48186 0.62503 0.0
N197 N 0.59218 0.6236 0.63606 0.0
C198 C 0.60254 0.5848 0.62731 0.0
C199 C 0.55411 0.63158 0.61399 0.0
C200 C 0.5879 0.56679 0.61167 0.0
C201 C 0.57003 0.64825 0.62943 0.0
C202 C 0.56238 0.59023 0.60516 0.0
N203 N 0.64596 0.58589 0.64845 0.0
C204 C 0.67884 0.57213 0.65468 0.0
C205 C 0.64607 0.52709 0.62485 0.0
C206 C 0.63086 0.56526 0.63375 0.0
C207 C 0.67807 0.51111 0.63148 0.0
C208 C 0.69504 0.53417 0.64637 0.0
H209 H 0.55025 0.57751 0.59319 0.0
H210 H 0.58948 0.51236 0.59093 0.0
H211 H 0.64077 0.4776 0.60249 0.0
O212 O 0.66482 0.67023 0.64907 0.0
O213 O 0.54795 0.64818 0.65989 0.0
O214 O 0.51597 0.60525 0.67467 0.0
O215 O 0.65834 0.70106 0.67352 0.0
O216 O 0.59972 0.57869 0.66782 0.0
O217 O 0.5564 0.5863 0.68987 0.0
O218 O 0.49215 0.6788 0.68491 0.0
O219 O 0.60201 0.68633 0.70074 0.0
O220 O 0.63432 0.63504 0.68396 0.0
O221 O 0.48157 0.67423 0.70864 0.0
O222 O 0.56761 0.71905 0.69267 0.0
O223 O 0.57933 0.70209 0.66608 0.0
C224 C 0.52071 0.61413 0.66113 0.0
C225 C 0.72872 0.70214 0.66412 0.0
C226 C 0.7977 0.68352 0.65433 0.0
C227 C 0.81714 0.7067 0.66886 0.0
C228 C 0.74879 0.7266 0.67848 0.0
C229 C 0.7927 0.72857 0.68083 0.0
C230 C 0.7536 0.68112 0.65211 0.0
C231 C 0.5784 0.56194 0.67873 0.0
C232 C 0.68239 0.69964 0.66143 0.0
C233 C 0.60072 0.5271 0.60293 0.0
C234 C 0.62992 0.50731 0.6095 0.0
C235 C 0.63419 0.6646 0.69737 0.0
C236 C 0.42092 0.6578 0.69178 0.0
C237 C 0.34868 0.63636 0.69974 0.0
C238 C 0.33597 0.6172 0.68402 0.0
C239 C 0.40792 0.63831 0.67604 0.0
C240 C 0.39108 0.65633 0.70355 0.0
C241 C 0.36573 0.61783 0.67222 0.0
C242 C 0.57424 0.73163 0.67946 0.0
C243 C 0.46496 0.68048 0.69616 0.0
H244 H 0.8511 0.70857 0.67081 0.0
H245 H 0.73057 0.74412 0.68786 0.0
H246 H 0.80786 0.74731 0.69193 0.0
H247 H 0.73865 0.66237 0.64093 0.0
H248 H 0.30309 0.60225 0.68092 0.0
H249 H 0.43007 0.63927 0.66668 0.0
H250 H 0.40046 0.67209 0.7157 0.0
H251 H 0.35594 0.60308 0.66009 0.0
Tb252 Tb 0.83159 0.49527 0.91851 0.0
C253 C 0.8027 0.49342 -0.01009 0.0
N254 N 0.83646 0.48925 -0.01965 0.0
C255 C 0.88246 0.53876 0.00084 0.0
C256 C 0.80695 0.52181 0.00517 0.0
C257 C 0.87651 0.50974 -0.01418 0.0
C258 C 0.84737 0.54549 0.01046 0.0
C259 C 0.73014 0.46444 -0.00509 0.0
C260 C 0.76504 0.46542 -0.01512 0.0
C261 C 0.7329 0.4949 0.00975 0.0
C262 C 0.77131 0.52364 0.01488 0.0
Tb263 Tb 0.82277 0.44401 0.95561 0.0
N264 N 0.76438 0.43588 0.9707 0.0
C265 C 0.6946 0.43138 -0.00998 0.0
C266 C 0.73132 0.40148 0.96636 0.0
C267 C 0.69558 0.39919 0.97582 0.0
H268 H 0.90384 0.50461 0.9785 0.0
H269 H 0.66884 0.3727 0.97214 0.0
H270 H 0.75957 0.55876 0.91754 0.0
H271 H 0.89597 0.37868 0.87142 0.0
H272 H 0.73211 0.37674 0.95534 0.0
H273 H 0.66707 0.42938 -0.00262 0.0
H274 H 0.89636 0.43069 0.89762 0.0
H275 H 0.91408 0.55584 0.00498 0.0
H276 H 0.70623 0.4952 0.01759 0.0
H277 H 0.77368 0.54567 0.02659 0.0
H278 H 0.70078 0.56094 0.89971 0.0
H279 H 0.85218 0.56744 0.02215 0.0
H280 H 0.83421 0.36624 0.85316 0.0
N281 N 0.77729 0.49999 0.90274 0.0
C282 C 0.77201 0.47009 0.88859 0.0
C283 C 0.72034 0.53494 0.89649 0.0
C284 C 0.73932 0.47 0.87799 0.0
C285 C 0.75352 0.53368 0.90653 0.0
C286 C 0.71267 0.50243 0.88227 0.0
N287 N 0.83505 0.44707 0.89439 0.0
C288 C 0.86915 0.42549 0.8898 0.0
C289 C 0.80042 0.41315 0.86915 0.0
C290 C 0.80208 0.4424 0.88424 0.0
C291 C 0.83414 0.38905 0.86467 0.0
C292 C 0.86902 0.39591 0.87495 0.0
H293 H 0.68719 0.50362 0.87445 0.0
H294 H 0.71055 0.43799 0.85497 0.0
H295 H 0.76409 0.38792 0.84724 0.0
O296 O 0.86709 0.55891 0.92781 0.0
O297 O 0.84223 0.43169 0.9207 0.0
O298 O 0.79087 0.40263 0.934 0.0
O299 O 0.85957 0.53046 0.90289 0.0
O300 O 0.89464 0.4794 0.92505 0.0
O301 O 0.8911 0.46744 0.95013 0.0
O302 O 0.8328 0.4034 0.97028 0.0
O303 O 0.85006 0.51148 0.9557 0.0
O304 O 0.80708 0.53285 0.94004 0.0
O305 O 0.85014 0.38687 0.94602 0.0
O306 O 0.75844 0.45516 0.9479 0.0
O307 O 0.76274 0.47971 0.92491 0.0
C308 C 0.80901 0.40184 0.92068 0.0
C309 C 0.85563 0.60632 0.9118 0.0
C310 C 0.84009 0.64863 0.89363 0.0
C311 C 0.82141 0.67745 0.90578 0.0
C312 C 0.83652 0.63519 0.92384 0.0
C313 C 0.81968 0.67065 0.92081 0.0
C314 C 0.8577 0.61373 0.89686 0.0
C315 C 0.91344 0.47436 0.93776 0.0
C316 C 0.87092 0.56646 0.91402 0.0
C317 C 0.73576 0.43904 0.86325 0.0
C318 C 0.76627 0.41056 0.85884 0.0
C319 C 0.82509 0.53886 0.95373 0.0
C320 C 0.89173 0.36501 0.96381 0.0
C321 C 0.92845 0.32946 -0.02004 0.0
C322 C 0.96619 0.33694 0.97183 0.0
C323 C 0.92959 0.37178 0.95567 0.0
C324 C 0.89148 0.34396 0.97594 0.0
C325 C 0.96671 0.35825 0.9598 0.0
C326 C 0.74023 0.46672 0.9363 0.0
C327 C 0.85143 0.37692 0.95936 0.0
H328 H 0.80794 0.70487 0.90363 0.0
H329 H 0.83408 0.63015 0.9355 0.0
H330 H 0.80495 0.69274 0.93012 0.0
H331 H 0.87322 0.59197 0.88766 0.0
H332 H 0.99513 0.3262 0.97474 0.0
H333 H 0.93043 0.38697 0.946 0.0
H334 H 0.8619 0.33744 -0.01812 0.0
H335 H 0.99581 0.36373 0.95352 0.0
Tb336 Tb 0.10652 0.72589 0.81917 0.0
C337 C 0.07678 0.61191 0.74837 0.0
N338 N 0.08806 0.65621 0.75465 0.0
C339 C 0.13691 0.66023 0.7339 0.0
C340 C 0.09611 0.58962 0.73479 0.0
C341 C 0.11654 0.68086 0.74735 0.0
C342 C 0.12719 0.6143 0.72773 0.0
C343 C 1.02944 0.54393 0.74856 0.0
C344 C 1.04406 0.58934 0.75515 0.0
C345 C 0.04954 0.52109 0.73532 0.0
C346 C 0.08289 0.54387 0.72847 0.0
Tb347 Tb 0.05338 0.68594 0.7767 0.0
N348 N 1.0261 0.61237 0.76816 0.0
C349 C 0.99469 0.52315 0.75536 0.0
C350 C 0.99029 0.5932 0.77417 0.0
C351 C 0.97467 0.54806 0.76808 0.0
H352 H 0.1232 0.71652 0.75185 0.0
H353 H 0.94709 0.53256 0.77314 0.0
H354 H 1.02059 0.74625 0.84008 0.0
H355 H 0.24735 0.833 0.80727 0.0
H356 H 0.97456 0.61261 0.78386 0.0
H357 H 0.98249 0.48824 0.75066 0.0
H358 H 0.20162 0.76164 0.80495 0.0
H359 H 0.15973 0.67982 0.72822 0.0
H360 H 1.03908 0.48603 0.73014 0.0
H361 H 0.09754 0.52604 0.71808 0.0
H362 H 0.99601 0.81141 0.85791 0.0
H363 H 0.14286 0.59847 0.71726 0.0
H364 H 0.22707 0.90164 0.82441 0.0
N365 N 0.07778 0.78329 0.83447 0.0
C366 C 0.10372 0.82332 0.83739 0.0
C367 C 1.02617 0.81524 0.85211 0.0
C368 C 0.09122 0.86126 0.84762 0.0
C369 C 1.03978 0.77852 0.8418 0.0
C370 C 0.05197 0.85677 0.85504 0.0
N371 N 0.15243 0.78931 0.81912 0.0
C372 C 0.19056 0.79116 0.81169 0.0
C373 C 0.1681 0.86805 0.8314 0.0
C374 C 0.14178 0.82656 0.82927 0.0
C375 C 0.20601 0.87036 0.82311 0.0
C376 C 0.2174 0.83172 0.81332 0.0
H377 H 1.04124 0.88516 0.863 0.0
H378 H 0.1086 0.93204 0.85765 0.0
H379 H 0.1758 0.938 0.84349 0.0
O380 O 0.16254 0.72712 0.83174 0.0
O381 O 0.07331 0.77275 0.80961 0.0
O382 O 0.08516 0.75667 0.78331 0.0
O383 O 0.10089 0.71862 0.8421 0.0
O384 O 0.14697 0.69633 0.80034 0.0
O385 O 0.11834 0.71983 0.78128 0.0
O386 O 0.991 0.69976 0.77566 0.0
O387 O 0.06977 0.6288 0.7853 0.0
O388 O 0.09501 0.65152 0.81127 0.0
O389 O 1.0319 0.69609 0.75576 0.0
O390 O 1.01566 0.70423 0.79761 0.0
O391 O 1.04431 0.68516 0.81787 0.0
C392 C 0.0805 0.78646 0.79666 0.0
C393 C 0.15908 0.76019 0.85881 0.0
C394 C 0.21994 0.79304 0.87693 0.0
C395 C 0.1928 0.8178 0.88719 0.0
C396 C 0.13258 0.7849 0.86927 0.0
C397 C 0.14967 0.81423 0.88322 0.0
C398 C 0.20276 0.76589 0.86243 0.0
C399 C 0.14745 0.70121 0.78612 0.0
C400 C 0.14201 0.72624 0.84454 0.0
C401 C 0.11767 0.90247 0.84983 0.0
C402 C 0.15591 0.90587 0.84172 0.0
C403 C 0.08314 0.61983 0.79818 0.0
C404 C 0.97954 0.74269 0.75851 0.0
C405 C 0.92344 0.77098 0.74756 0.0
C406 C 0.94558 0.81434 0.75303 0.0
C407 C 1.00205 0.78587 0.76362 0.0
C408 C 0.94053 0.73547 0.75049 0.0
C409 C 0.98497 0.82164 0.76097 0.0
C410 C 1.01157 0.68492 0.80904 0.0
C411 C 0.99511 0.7043 0.76146 0.0
H412 H 0.2041 0.83856 0.89859 0.0
H413 H 0.09868 0.7812 0.86684 0.0
H414 H 0.12904 0.83302 0.89128 0.0
H415 H 0.22294 0.74766 0.854 0.0
H416 H 0.93282 0.84225 0.75095 0.0
H417 H 1.03254 0.79179 0.7696 0.0
H418 H 0.92312 0.70196 0.74667 0.0
H419 H 1.00234 0.85499 0.76502 0.0
Tb420 Tb 0.82096 0.86407 0.06678 0.0
C421 C 0.89411 0.94551 0.00851 0.0
N422 N 0.89232 0.9616 0.0242 0.0
C423 C 0.96039 1.00738 0.02451 0.0
C424 C 0.92983 0.95845 0.00013 0.0
C425 C 0.92392 0.99369 0.03222 0.0
C426 C 0.96368 0.98916 0.00841 0.0
C427 C 0.85701 0.90363 -0.01566 0.0
C428 C 0.85842 0.91884 0.0008 0.0
C429 C 0.89333 0.91417 0.97587 0.0
C430 C 0.92973 0.94163 -0.01623 0.0
Tb431 Tb 0.83332 0.93503 0.03609 0.0
N432 N 0.82388 0.91077 0.00944 0.0
C433 C 0.81869 0.87978 0.97692 0.0
C434 C 0.78569 0.88985 0.00222 0.0
C435 C 0.78269 0.8734 -0.0141 0.0
H436 H 0.92136 1.00789 0.04466 0.0
H437 H 0.75259 0.85597 -0.01973 0.0
H438 H 0.75546 0.91319 0.09271 0.0
H439 H 0.95034 0.77917 0.07532 0.0
H440 H 0.75759 0.88502 0.00902 0.0
H441 H 0.8162 0.86739 0.96429 0.0
H442 H 0.89189 0.7953 0.06048 0.0
H443 H 0.98584 0.03201 0.03096 0.0
H444 H 0.8931 0.90248 0.96322 0.0
H445 H 0.95703 0.95074 0.97709 0.0
H446 H 0.75596 0.94749 0.1212 0.0
H447 H 0.99177 1.00003 0.00243 0.0
H448 H 0.96401 0.81921 0.10328 0.0
N449 N 0.81629 0.89294 0.09318 0.0
C450 C 0.84901 0.88974 0.10226 0.0
C451 C 0.78251 0.93155 0.11601 0.0
C452 C 0.85073 0.9086 0.11856 0.0
C453 C 0.78236 0.9121 0.09985 0.0
C454 C 0.8172 0.93044 0.12538 0.0
N455 N 0.87364 0.84447 0.07976 0.0
C456 C 0.89766 0.81269 0.0727 0.0
C457 C 0.9118 0.8566 0.1042 0.0
C458 C 0.879 0.86446 0.09524 0.0
C459 C 0.93847 0.82637 0.09681 0.0
C460 C 0.93079 0.80362 0.08105 0.0
H461 H 0.81724 0.94545 0.13788 0.0
H462 H 0.88743 0.91858 0.14002 0.0
H463 H 0.94097 0.87269 0.12742 0.0
O464 O 0.79269 0.81116 0.07573 0.0
O465 O 0.81493 0.93358 0.07207 0.0
O466 O 0.86739 0.96137 0.05864 0.0
O467 O 0.77439 0.81506 0.05291 0.0
O468 O 0.8908 0.88024 0.06065 0.0
O469 O 0.89739 0.91655 0.04054 0.0
O470 O 0.79712 0.9792 0.0505 0.0
O471 O 0.80847 0.86425 0.02841 0.0
O472 O 0.8473 0.83738 0.04414 0.0
O473 O 0.82081 0.99007 0.02864 0.0
O474 O 0.7674 0.89843 0.03794 0.0
O475 O 0.76427 0.89625 0.06377 0.0
C476 C 0.84964 0.96159 0.07206 0.0
C477 C 0.78166 0.74428 0.05532 0.0
C478 C 0.82605 0.68657 0.05381 0.0
C479 C 0.80527 0.66227 0.03957 0.0
C480 C 0.76106 0.7193 0.04115 0.0
C481 C 0.7727 0.67842 0.03339 0.0
C482 C 0.8134 0.72713 0.06171 0.0
C483 C 0.91463 0.89785 0.05041 0.0
C484 C 0.77311 0.78986 0.06246 0.0
C485 C 0.88503 0.90367 0.1275 0.0
C486 C 0.91555 0.87761 0.12033 0.0
C487 C 0.82966 0.83379 0.03053 0.0
C488 C 0.82251 0.0534 0.05027 0.0
C489 C 0.8582 0.12719 0.04953 0.0
C490 C 0.85935 0.14027 0.06599 0.0
C491 C 0.82368 0.06741 0.06675 0.0
C492 C 0.83966 0.08365 0.04176 0.0
C493 C 0.84215 0.11049 0.07451 0.0
C494 C 0.74464 0.89678 0.05063 0.0
C495 C 0.80409 1.00733 0.04197 0.0
H496 H 0.8141 0.63084 0.03324 0.0
H497 H 0.73671 0.73192 0.03591 0.0
H498 H 0.75699 0.65959 0.02239 0.0
H499 H 0.82969 0.74633 0.07254 0.0
H500 H 0.87377 0.17344 0.07228 0.0
H501 H 0.81052 0.04512 0.0737 0.0
H502 H 0.83809 0.07346 0.02907 0.0
H503 H 0.84317 0.12083 0.08718 0.0
Tb504 Tb 0.60526 0.68695 0.27255 0.0
C505 C 0.56745 0.75693 0.34598 0.0
N506 N 0.57562 0.71837 0.33629 0.0
C507 C 0.62418 0.71074 0.35561 0.0
C508 C 0.58827 0.7749 0.36072 0.0
C509 C 0.60217 0.69409 0.34117 0.0
C510 C 0.61773 0.75169 0.36534 0.0
C511 C 0.52416 0.81553 0.35135 0.0
C512 C 0.53626 0.77695 0.34139 0.0
C513 C 0.54596 0.8349 0.3658 0.0
C514 C 0.57812 0.81467 0.37046 0.0
Tb515 Tb 0.54287 0.69765 0.31197 0.0
N516 N 0.51612 0.75697 0.32742 0.0
C517 C 0.48996 0.83269 0.3466 0.0
C518 C 0.48154 0.7723 0.323 0.0
C519 C 0.46827 0.81067 0.33242 0.0
H520 H 0.60727 0.6623 0.33379 0.0
H521 H 0.44159 0.82341 0.32869 0.0
H522 H 0.66802 0.78102 0.27353 0.0
H523 H 0.52225 0.56496 0.22338 0.0
H524 H 0.46511 0.75557 0.31197 0.0
H525 H 0.47958 0.86232 0.35389 0.0
H526 H 0.55825 0.59129 0.24943 0.0
H527 H 0.64608 0.69195 0.35923 0.0
H528 H 0.53756 0.86488 0.37358 0.0
H529 H 0.59409 0.82935 0.38177 0.0
H530 H 0.68155 0.83422 0.25717 0.0
H531 H 0.63468 0.76444 0.37653 0.0
H532 H 0.52083 0.61679 0.20673 0.0
N533 N 0.62036 0.73724 0.25797 0.0
C534 C 0.59999 0.72746 0.24389 0.0
C535 C 0.6583 0.80442 0.25332 0.0
C536 C 0.60652 0.7566 0.23414 0.0
C537 C 0.65073 0.77418 0.26252 0.0
C538 C 0.6355 0.79599 0.23918 0.0
N539 N 0.57447 0.6581 0.24802 0.0
C540 C 0.55717 0.61442 0.24239 0.0
C541 C 0.55665 0.67253 0.22363 0.0
C542 C 0.57579 0.68622 0.23873 0.0
C543 C 0.53604 0.62869 0.21826 0.0
C544 C 0.5369 0.59931 0.2276 0.0
H545 H 0.64153 0.8193 0.23203 0.0
H546 H 0.58961 0.76652 0.21179 0.0
H547 H 0.54565 0.69274 0.20259 0.0
O548 O 0.65909 0.66792 0.28116 0.0
O549 O 0.53939 0.65376 0.27258 0.0
O550 O 0.51382 0.70635 0.29113 0.0
O551 O 0.65308 0.66637 0.25681 0.0
O552 O 0.5805 0.62258 0.27846 0.0
O553 O 0.58116 0.64205 0.30547 0.0
O554 O 0.49663 0.67293 0.32621 0.0
O555 O 0.61053 0.69575 0.31017 0.0
O556 O 0.63171 0.73718 0.29352 0.0
O557 O 0.502 0.63771 0.3022 0.0
O558 O 0.55169 0.7631 0.30503 0.0
O559 O 0.58484 0.75464 0.28072 0.0
C560 C 0.50788 0.67504 0.2781 0.0
C561 C 0.72078 0.6939 0.2686 0.0
C562 C 0.78467 0.71544 0.25459 0.0
C563 C 0.79214 0.75621 0.26622 0.0
C564 C 0.73081 0.73353 0.28042 0.0
C565 C 0.76608 0.7645 0.27916 0.0
C566 C 0.74855 0.68436 0.25608 0.0
C567 C 0.58077 0.61124 0.29194 0.0
C568 C 0.67884 0.66548 0.26799 0.0
C569 C 0.58549 0.74442 0.21942 0.0
C570 C 0.56048 0.70241 0.21418 0.0
C571 C 0.63488 0.72933 0.30716 0.0
C572 C 0.43314 0.63315 0.31206 0.0
C573 C 0.3654 0.66126 0.31582 0.0
C574 C 0.34435 0.62071 0.30654 0.0
C575 C 0.41201 0.59286 0.30256 0.0
C576 C 0.4096 0.66698 0.31862 0.0
C577 C 0.36777 0.58668 0.29987 0.0
C578 C 0.56702 0.77943 0.29308 0.0
C579 C 0.47974 0.63998 0.31469 0.0
H580 H 0.81776 0.78239 0.2655 0.0
H581 H 0.71068 0.74164 0.29035 0.0
H582 H 0.77265 0.79565 0.28808 0.0
H583 H 0.741 0.65272 0.24754 0.0
H584 H 0.31014 0.61554 0.30442 0.0
H585 H 0.42971 0.56629 0.29722 0.0
H586 H 0.42552 0.69772 0.32626 0.0
H587 H 0.35166 0.55554 0.29255 0.0
Tb588 Tb 0.85069 0.42166 0.52631 0.0
C589 C 0.8382 0.40627 0.59334 0.0
N590 N 0.86478 0.38792 0.58228 0.0
C591 C 0.92359 0.41306 0.60084 0.0
C592 C 0.85352 0.43082 0.60844 0.0
C593 C 0.9067 0.38914 0.58601 0.0
C594 C 0.89704 0.43478 0.61202 0.0
C595 C 0.76564 0.41203 0.60131 0.0
C596 C 0.79519 0.39705 0.58981 0.0
C597 C 0.78068 0.43962 0.61599 0.0
C598 C 0.82465 0.44898 0.61957 0.0
Tb599 Tb 0.83546 0.35175 0.558 0.0
N600 N 0.78233 0.36887 0.57572 0.0
C601 C 0.72212 0.39643 0.59804 0.0
C602 C 0.74042 0.34937 0.57339 0.0
C603 C 0.70957 0.36397 0.58418 0.0
H604 H 0.92729 0.3721 0.57753 0.0
H605 H 0.67627 0.34949 0.58194 0.0
H606 H 0.76321 0.46371 0.52101 0.0
H607 H 0.94867 0.33938 0.48083 0.0
H608 H 0.73062 0.32218 0.56325 0.0
H609 H 0.69831 0.407 0.60653 0.0
H610 H 0.93495 0.38875 0.5065 0.0
H611 H 0.95702 0.41472 0.60364 0.0
H612 H 0.75859 0.45197 0.62493 0.0
H613 H 0.8358 0.46869 0.63115 0.0
H614 H 0.70199 0.44377 0.50222 0.0
H615 H 0.91013 0.45324 0.6235 0.0
H616 H 0.88906 0.30519 0.46171 0.0
N617 N 0.79495 0.41072 0.50872 0.0
C618 C 0.79725 0.37992 0.49496 0.0
C619 C 0.72824 0.42494 0.50014 0.0
C620 C 0.76389 0.36832 0.48358 0.0
C621 C 0.76267 0.43572 0.51087 0.0
C622 C 0.7283 0.39022 0.48661 0.0
N623 N 0.86789 0.38054 0.50224 0.0
C624 C 0.90871 0.3738 0.49826 0.0
C625 C 0.84169 0.33641 0.47668 0.0
C626 C 0.83545 0.36441 0.49152 0.0
C627 C 0.88274 0.3263 0.47302 0.0
C628 C 0.91656 0.3458 0.48375 0.0
H629 H 0.70195 0.38238 0.47819 0.0
H630 H 0.74294 0.32756 0.46041 0.0
H631 H 0.81125 0.29951 0.45436 0.0
O632 O 0.8959 0.4793 0.5344 0.0
O633 O 0.86302 0.3537 0.52195 0.0
O634 O 0.80852 0.32471 0.53453 0.0
O635 O 0.85889 0.46938 0.51337 0.0
O636 O 0.91391 0.41168 0.5348 0.0
O637 O 0.90364 0.36069 0.55011 0.0
O638 O 0.8159 0.30029 0.56866 0.0
O639 O 0.86844 0.42023 0.56346 0.0
O640 O 0.82729 0.4488 0.54932 0.0
O641 O 0.86545 0.29476 0.55176 0.0
O642 O 0.77418 0.35452 0.54566 0.0
O643 O 0.78545 0.41893 0.53733 0.0
C644 C 0.83344 0.32081 0.52262 0.0
C645 C 0.87131 0.54199 0.52975 0.0
C646 C 0.83879 0.60174 0.5242 0.0
C647 C 0.8399 0.62269 0.54034 0.0
C648 C 0.87303 0.56398 0.54579 0.0
C649 C 0.85723 0.60401 0.55102 0.0
C650 C 0.85505 0.56158 0.51905 0.0
C651 C 0.92908 0.38617 0.54264 0.0
C652 C 0.88412 0.49771 0.52397 0.0
C653 C 0.76846 0.3375 0.46922 0.0
C654 C 0.80739 0.32155 0.46576 0.0
C655 C 0.84985 0.45297 0.56193 0.0
C656 C 0.87047 0.26112 0.57267 0.0
C657 C 0.87374 0.23441 0.59604 0.0
C658 C 0.91485 0.22462 0.59221 0.0
C659 C 0.91195 0.2517 0.569 0.0
C660 C 0.85183 0.25249 0.58626 0.0
C661 C 0.934 0.23369 0.57879 0.0
C662 C 0.75884 0.38688 0.54143 0.0
C663 C 0.84513 0.27744 0.56214 0.0
H664 H 0.82718 0.65335 0.54475 0.0
H665 H 0.88612 0.55012 0.55431 0.0
H666 H 0.85812 0.62042 0.56341 0.0
H667 H 0.85521 0.54531 0.50665 0.0
H668 H 0.932 0.21018 0.59958 0.0
H669 H 0.92714 0.25774 0.55854 0.0
H670 H 0.81953 0.25873 0.58909 0.0
H671 H 0.96583 0.22629 0.57586 0.0
Tb672 Tb 0.33364 0.3479 0.55705 0.0
C673 C 0.41087 0.42858 0.49961 0.0
N674 N 0.4066 0.4483 0.51493 0.0
C675 C 0.47204 0.49794 0.5149 0.0
C676 C 0.44677 0.44152 0.49132 0.0
C677 C 0.43552 0.48391 0.52253 0.0
C678 C 0.47807 0.47613 0.49928 0.0
C679 C 0.37796 0.37922 0.47576 0.0
C680 C 0.37715 0.39827 0.49202 0.0
C681 C 0.41474 0.38962 0.46749 0.0
C682 C 0.44913 0.42084 0.47527 0.0
Tb683 Tb 0.34774 0.42219 0.52692 0.0
N684 N 0.34196 0.39072 0.5004 0.0
C685 C 0.34113 0.35203 0.46826 0.0
C686 C 0.30494 0.36695 0.49294 0.0
C687 C 0.30422 0.34646 0.47686 0.0
H688 H 0.43081 0.50071 0.53461 0.0
H689 H 0.27514 0.32666 0.4711 0.0
H690 H 0.26985 0.40257 0.5829 0.0
H691 H 0.45733 0.25775 0.56635 0.0
H692 H 0.27605 0.36295 0.49943 0.0
H693 H 0.34037 0.33662 0.45577 0.0
H694 H 0.40164 0.27727 0.55123 0.0
H695 H 0.49544 0.52551 0.52106 0.0
H696 H 0.41624 0.37501 0.45501 0.0
H697 H 0.47665 0.42987 0.46867 0.0
H698 H 0.27189 0.4396 0.61109 0.0
H699 H 0.50618 0.4872 0.49335 0.0
H700 H 0.46992 0.29616 0.59452 0.0
N701 N 0.32835 0.37756 0.58356 0.0
C702 C 0.35975 0.37271 0.59285 0.0
C703 C 0.29702 0.42105 0.60609 0.0
C704 C 0.36203 0.3928 0.60908 0.0
C705 C 0.29606 0.39996 0.59005 0.0
C706 C 0.33054 0.41805 0.61563 0.0
N707 N 0.38282 0.32543 0.57062 0.0
C708 C 0.40642 0.29338 0.56358 0.0
C709 C 0.41967 0.33589 0.59522 0.0
C710 C 0.38809 0.34522 0.58609 0.0
C711 C 0.4453 0.30446 0.58794 0.0
C712 C 0.43818 0.28259 0.57208 0.0
H713 H 0.33113 0.43424 0.62805 0.0
H714 H 0.39757 0.40144 0.63071 0.0
H715 H 0.44805 0.35111 0.61853 0.0
O716 O 0.30411 0.29055 0.56341 0.0
O717 O 0.32859 0.41748 0.5623 0.0
O718 O 0.38068 0.44927 0.54961 0.0
O719 O 0.28419 0.30558 0.54257 0.0
O720 O 0.40337 0.36182 0.55015 0.0
O721 O 0.41254 0.40939 0.53345 0.0
O722 O 0.31687 0.4726 0.5409 0.0
O723 O 0.32227 0.35162 0.52106 0.0
O724 O 0.36316 0.32282 0.53506 0.0
O725 O 0.33062 0.47016 0.51673 0.0
O726 O 0.28066 0.38976 0.52937 0.0
O727 O 0.27809 0.38249 0.55472 0.0
C728 C 0.3631 0.44581 0.56272 0.0
C729 C 0.28335 0.23067 0.54074 0.0
C730 C 0.32182 0.16784 0.53209 0.0
C731 C 0.29112 0.14807 0.52008 0.0
C732 C 0.2529 0.21062 0.52861 0.0
C733 C 0.25675 0.16947 0.51838 0.0
C734 C 0.31744 0.2088 0.54247 0.0
C735 C 0.42852 0.38562 0.54187 0.0
C736 C 0.28123 0.27597 0.55043 0.0
C737 C 0.39489 0.3859 0.61823 0.0
C738 C 0.42364 0.35729 0.6113 0.0
C739 C 0.34712 0.32276 0.52162 0.0
C740 C 0.33942 0.54079 0.53434 0.0
C741 C 0.36405 0.60782 0.52582 0.0
C742 C 0.3841 0.62778 0.54056 0.0
C743 C 0.35982 0.5611 0.549 0.0
C744 C 0.34105 0.56466 0.523 0.0
C745 C 0.38176 0.60451 0.55208 0.0
C746 C 0.25854 0.38665 0.54207 0.0
C747 C 0.319 0.4939 0.53005 0.0
H748 H 0.29405 0.11658 0.51193 0.0
H749 H 0.22659 0.22719 0.52689 0.0
H750 H 0.23335 0.15441 0.50899 0.0
H751 H 0.34068 0.22348 0.55192 0.0
H752 H 0.40218 0.66095 0.54308 0.0
H753 H 0.35939 0.5434 0.55798 0.0
H754 H 0.32465 0.54914 0.51181 0.0
H755 H 0.39759 0.61992 0.56336 0.0
Tb756 Tb 0.33148 0.90291 0.02558 0.0
C757 C 0.38114 0.91396 0.09894 0.0
N758 N 0.37426 0.88037 0.08575 0.0
C759 C 0.4273 0.8446 0.0943 0.0
C760 C 0.41243 0.91517 0.11022 0.0
C761 C 0.39545 0.84483 0.08357 0.0
C762 C 0.43628 0.88028 0.1076 0.0
C763 C 0.35792 0.97934 0.11561 0.0
C764 C 0.35443 0.94531 0.10156 0.0
C765 C 0.39037 0.98227 0.12664 0.0
C766 C 0.41765 0.9502 0.12394 0.0
Tb767 Tb 0.32299 0.88355 0.06849 0.0
N768 N 0.32328 0.94068 0.09069 0.0
C769 C 0.32788 1.00841 0.11833 0.0
C770 C 0.29305 0.96816 0.09351 0.0
C771 C 0.29514 1.00262 0.10727 0.0
H772 H 0.38828 0.81712 0.07334 0.0
H773 H 0.27138 1.02454 0.10936 0.0
H774 H 0.25043 0.82799 0.00713 0.0
H775 H 0.48382 0.95474 0.00267 0.0
H776 H 0.26721 0.96391 0.08521 0.0
H777 H 0.32912 0.03475 0.12905 0.0
H778 H 0.42084 0.96418 0.01961 0.0
H779 H 0.44476 0.81689 0.09236 0.0
H780 H 0.39391 1.00844 0.13745 0.0
H781 H 0.44178 0.95205 0.13272 0.0
H782 H 0.24093 0.75991 -0.01463 0.0
H783 H 0.4607 0.87989 0.11597 0.0
H784 H 0.4865 0.88302 -0.01686 0.0
N785 N 0.31766 0.84209 0.00455 0.0
C786 C 0.35158 0.83064 -0.00419 0.0
C787 C 0.27234 0.77942 -0.01178 0.0
C788 C 0.34788 0.79197 -0.01666 0.0
C789 C 0.27783 0.81823 0.00052 0.0
C790 C 0.30773 0.7656 -0.02016 0.0
N791 N 0.38927 0.89843 0.00983 0.0
C792 C 0.42189 0.93303 0.01099 0.0
C793 C 0.42395 0.85301 -0.01131 0.0
C794 C 0.38896 0.86026 -0.00149 0.0
C795 C 0.45896 0.88712 -0.0095 0.0
C796 C 0.45748 0.92772 0.00146 0.0
H797 H 0.30345 0.73553 0.97035 0.0
H798 H 0.38194 0.75203 0.96502 0.0
H799 H 0.44871 0.80633 0.96949 0.0
O800 O 0.32297 0.92837 0.00642 0.0
O801 O 0.30366 0.84335 0.03206 0.0
O802 O 0.34637 0.83249 0.05014 0.0
O803 O 0.30109 0.95943 0.02923 0.0
O804 O 0.39618 0.89946 0.0355 0.0
O805 O 0.39163 0.8894 0.06096 0.0
O806 O 0.27515 0.82789 0.06117 0.0
O807 O 0.31798 0.94309 0.06154 0.0
O808 O 0.36612 0.95623 0.04393 0.0
O809 O 0.29255 0.85547 0.08563 0.0
O810 O 0.26641 0.90769 0.06049 0.0
O811 O 0.26409 0.88389 0.03336 0.0
C812 C 0.32892 0.81917 0.03613 0.0
C813 C 0.26209 0.96186 0.00703 0.0
C814 C 0.22298 0.99947 -0.00756 0.0
C815 C 0.1886 0.96437 -0.00972 0.0
C816 C 0.228 0.92665 0.00446 0.0
C817 C 0.19107 0.92826 -0.00362 0.0
C818 C 0.25938 0.99838 0.00111 0.0
C819 C 0.41425 0.89468 0.04846 0.0
C820 C 0.30219 0.95888 0.01443 0.0
C821 C 0.38384 0.78223 0.97438 0.0
C822 C 0.42182 0.81296 0.97696 0.0
C823 C 0.35215 0.96696 0.05811 0.0
C824 C 0.27463 0.77749 0.0769 0.0
C825 C 0.27475 0.72815 0.09403 0.0
C826 C 0.27751 0.69262 0.08081 0.0
C827 C 0.27701 0.74149 0.06382 0.0
C828 C 0.27406 0.77059 0.09191 0.0
C829 C 0.27886 0.69943 0.06582 0.0
C830 C 0.24422 0.89514 0.04697 0.0
C831 C 0.27158 0.82214 0.0752 0.0
H832 H 0.16023 0.96454 -0.01636 0.0
H833 H 0.23063 0.89753 0.00831 0.0
H834 H 0.16482 0.90092 -0.00552 0.0
H835 H 0.28653 1.02475 0.00254 0.0
H836 H 0.27738 0.65932 0.08195 0.0
H837 H 0.27713 0.74564 0.05207 0.0
H838 H 0.27276 0.79851 0.10198 0.0
H839 H 0.28055 0.67185 0.05569 0.0
Tb840 Tb 0.31999 0.42818 0.95093 0.0
C841 C 0.30771 0.49072 0.88765 0.0
N842 N 0.33826 0.47858 0.8954 0.0
C843 C 0.36121 0.43524 0.87106 0.0
C844 C 0.3014 0.47443 0.87132 0.0
C845 C 0.36627 0.45275 0.8873 0.0
C846 C 0.32809 0.44545 0.86306 0.0
C847 C 0.25537 0.53931 0.88857 0.0
C848 C 0.28519 0.5224 0.89606 0.0
C849 C 0.24693 0.52153 0.87241 0.0
C850 C 0.26991 0.48902 0.86379 0.0
Tb851 Tb 0.34019 0.50432 0.92212 0.0
N852 N 0.29502 0.53893 0.91149 0.0
C853 C 0.23622 0.57449 0.89747 0.0
C854 C 0.27832 0.57477 0.92008 0.0
C855 C 0.24825 0.59273 0.91326 0.0
H856 H 0.39193 0.4447 0.8934 0.0
H857 H 0.23435 0.62054 0.92016 0.0
H858 H 0.22857 0.36113 0.94226 0.0
H859 H 0.40317 0.49881 0.00679 0.0
H860 H 0.28746 0.5887 0.9323 0.0
H861 H 0.2131 0.58855 0.89218 0.0
H862 H 0.39733 0.47102 0.97801 0.0
H863 H 0.38277 0.41383 0.86474 0.0
H864 H 0.22373 0.53362 0.86642 0.0
H865 H 0.26412 0.47653 0.85126 0.0
H866 H 0.16268 0.34065 0.95591 0.0
H867 H 0.32433 0.43203 0.85049 0.0
H868 H 0.33889 0.49171 0.02281 0.0
N869 N 0.25957 0.40497 0.96283 0.0
C870 C 0.25822 0.42068 0.97854 0.0
C871 C 0.18923 0.36348 0.96242 0.0
C872 C 0.2217 0.40982 -0.0131 0.0
C873 C 0.2265 0.37513 0.95473 0.0
C874 C 0.18653 0.3815 0.97856 0.0
N875 N 0.33001 0.45037 0.97761 0.0
C876 C 0.36895 0.46809 -0.01517 0.0
C877 C 0.29681 0.45912 0.00275 0.0
C878 C 0.29501 0.44458 -0.01373 0.0
C879 C 0.33606 0.47991 0.01016 0.0
C880 C 0.37243 0.48383 0.00116 0.0
H881 H 0.15778 0.37225 -0.01549 0.0
H882 H 0.19442 0.41864 0.00995 0.0
H883 H 0.26037 0.46212 0.02388 0.0
O884 O 0.35231 0.38168 0.93572 0.0
O885 O 0.34965 0.49733 0.95924 0.0
O886 O 0.31505 0.53208 0.94497 0.0
O887 O 0.32804 0.37033 0.95745 0.0
O888 O 0.38782 0.46003 0.9492 0.0
O889 O 0.38964 0.46189 0.9235 0.0
O890 O 0.37968 0.55305 0.91384 0.0
O891 O 0.33785 0.43305 0.91499 0.0
O892 O 0.28444 0.4067 0.92864 0.0
O893 O 0.39026 0.54474 0.93683 0.0
O894 O 0.26953 0.49446 0.92796 0.0
O895 O 0.25856 0.45125 0.94607 0.0
C896 C 0.32928 0.52959 0.95844 0.0
C897 C 0.32066 0.30848 0.93523 0.0
C898 C 0.28179 0.23552 0.93558 0.0
C899 C 0.27249 0.22699 0.91946 0.0
C900 C 0.31212 0.29842 0.91902 0.0
C901 C 0.28793 0.25811 0.91125 0.0
C902 C 0.30604 0.27653 0.94336 0.0
C903 C 0.41007 0.46105 0.93638 0.0
C904 C 0.34308 0.35268 0.94383 0.0
C905 C 0.22229 0.42613 0.00329 0.0
C906 C 0.25984 0.45086 0.01121 0.0
C907 C 0.30131 0.40798 0.91519 0.0
C908 C 0.41403 0.61625 0.93334 0.0
C909 C 0.42278 0.69143 0.92997 0.0
C910 C 0.44439 0.70753 0.94454 0.0
C911 C 0.43557 0.63309 0.94795 0.0
C912 C 0.40763 0.64569 0.92447 0.0
C913 C 0.45047 0.67848 0.95351 0.0
C914 C 0.24379 0.47463 0.9372 0.0
C915 C 0.40225 0.56781 0.92688 0.0
H916 H 0.25312 0.19634 0.91315 0.0
H917 H 0.32374 0.32178 0.91232 0.0
H918 H 0.28092 0.25107 0.89883 0.0
H919 H 0.31388 0.28368 0.95573 0.0
H920 H 0.45669 0.74246 0.94892 0.0
H921 H 0.44151 0.61107 0.95496 0.0
H922 H 0.39051 0.63305 0.91331 0.0
H923 H 0.46717 0.69112 0.96474 0.0
Tb924 Tb 0.32687 0.99988 0.40746 0.0
C925 C 0.37297 0.94811 0.4694 0.0
N926 N 0.36757 0.92076 0.45478 0.0
C927 C 0.42506 0.88432 0.45957 0.0
C928 C 0.40609 0.94629 0.47953 0.0
C929 C 0.39133 0.88728 0.45007 0.0
C930 C 0.43312 0.91465 0.47424 0.0
C931 C 0.34293 0.99918 0.49046 0.0
C932 C 0.34193 0.97387 0.47476 0.0
C933 C 0.37778 1.00062 0.50031 0.0
C934 C 0.40936 0.97412 0.49485 0.0
Tb935 Tb 0.31383 0.92981 0.43958 0.0
N936 N 0.30814 0.9698 0.46504 0.0
C937 C 0.30771 1.01992 0.49599 0.0
C938 C 0.27214 0.98671 0.47076 0.0
C939 C 0.27181 1.01298 0.48618 0.0
H940 H 0.38486 0.86369 0.43875 0.0
H941 H 0.2438 1.02761 0.4905 0.0
H942 H 0.23328 0.9646 0.38838 0.0
H943 H 0.48463 1.01698 0.38287 0.0
H944 H 0.24415 0.98121 0.46327 0.0
H945 H 0.30707 0.03944 0.508 0.0
H946 H 0.42842 0.03869 0.40171 0.0
H947 H 0.44467 0.85859 0.4556 0.0
H948 H 0.37949 1.02031 0.51236 0.0
H949 H 0.43493 0.97379 0.50278 0.0
H950 H 0.2056 0.91565 0.36295 0.0
H951 H 0.45893 0.91202 0.48166 0.0
H952 H 0.46625 0.95649 0.35869 0.0
N953 N 0.29834 0.95802 0.38352 0.0
C954 C 0.32614 0.94244 0.37244 0.0
C955 C 0.23963 0.92256 0.36551 0.0
C956 C 0.3119 0.91465 0.35764 0.0
C957 C 0.2555 0.9502 0.38 0.0
C958 C 0.26793 0.90405 0.35437 0.0
N959 N 0.38018 0.98706 0.38952 0.0
C960 C 0.42064 1.01068 0.39164 0.0
C961 C 0.39929 0.94469 0.36418 0.0
C962 C 0.36891 0.95704 0.37568 0.0
C963 C 0.44185 0.96502 0.36719 0.0
C964 C 0.45235 0.9991 0.38082 0.0
H965 H 0.25561 0.88275 0.34315 0.0
H966 H 0.33175 0.8778 0.33512 0.0
H967 H 0.40863 0.90402 0.34089 0.0
O968 O 0.34277 0.05033 0.39615 0.0
O969 O 0.29591 0.93218 0.4048 0.0
O970 O 0.33889 0.90086 0.41694 0.0
O971 O 0.29409 0.05513 0.41335 0.0
O972 O 0.38982 0.99653 0.4186 0.0
O973 O 0.38117 0.93852 0.43077 0.0
O974 O 0.269 0.8745 0.42842 0.0
O975 O 0.30344 0.99834 0.44353 0.0
O976 O 0.35542 1.03042 0.43057 0.0
O977 O 0.29298 0.88153 0.45166 0.0
O978 O 0.25109 0.94701 0.43358 0.0
O979 O 0.25883 0.98963 0.41529 0.0
C980 C 0.31959 0.90181 0.40423 0.0
C981 C 0.28422 0.08232 0.39111 0.0
C982 C 0.27573 0.09778 0.36579 0.0
C983 C 0.23371 0.10485 0.36942 0.0
C984 C 0.24189 0.08894 0.39456 0.0
C985 C 0.21683 0.10008 0.38372 0.0
C986 C 0.3007 0.08686 0.3767 0.0
C987 C 0.40609 0.96775 0.42469 0.0
C988 C 0.3121 0.0714 0.40232 0.0
C989 C 0.34201 0.89966 0.34649 0.0
C990 C 0.38576 0.91452 0.34978 0.0
C991 C 0.33384 1.03097 0.44325 0.0
C992 C 0.28582 0.81007 0.43431 0.0
C993 C 0.31661 0.75099 0.44114 0.0
C994 C 0.31927 0.73021 0.4251 0.0
C995 C 0.28812 0.78831 0.41834 0.0
C996 C 0.2992 0.79061 0.4456 0.0
C997 C 0.30472 0.74863 0.41382 0.0
C998 C 0.23473 0.96852 0.42447 0.0
C999 C 0.27289 0.85451 0.43934 0.0
H1000 H 0.2141 0.11391 0.36122 0.0
H1001 H 0.22828 0.08577 0.4056 0.0
H1002 H 0.18431 0.10533 0.38647 0.0
H1003 H 0.33362 0.08288 0.37402 0.0
H1004 H 0.33303 0.70002 0.42123 0.0
H1005 H 0.27783 0.80225 0.40934 0.0
H1006 H 0.2963 0.80673 0.4579 0.0
H1007 H 0.3069 0.73241 0.4015 0.0
Tb1008 Tb 0.60924 0.16397 0.69941 0.0
C1009 C 0.50415 0.0321 0.64016 0.0
N1010 N 0.54518 0.05234 0.64337 0.0
C1011 C 0.57048 0.9849 0.63016 0.0
C1012 C 0.49452 0.98677 0.63226 0.0
C1013 C 0.5784 1.03002 0.638 0.0
C1014 C 0.52835 0.96304 0.62742 0.0
C1015 C 0.42893 0.03824 0.6409 0.0
C1016 C 0.47197 0.05748 0.64448 0.0
C1017 C 0.41886 0.99267 0.63351 0.0
C1018 C 0.4516 0.96698 0.6292 0.0
Tb1019 Tb 0.55479 0.12591 0.65618 0.0
N1020 N 0.48309 0.10154 0.65135 0.0
C1021 C 0.39748 0.06566 0.64438 0.0
C1022 C 0.45273 0.12888 0.6538 0.0
C1023 C 0.40952 0.11127 0.65066 0.0
H1024 H 0.61093 0.04687 0.64029 0.0
H1025 H 0.38557 0.13297 0.65289 0.0
H1026 H 0.56038 0.07899 0.71184 0.0
H1027 H 0.6507 0.33664 0.73029 0.0
H1028 H 0.46173 0.16443 0.65807 0.0
H1029 H 0.36402 0.05219 0.64181 0.0
H1030 H 0.65808 0.26781 0.70988 0.0
H1031 H 0.59683 0.96702 0.62625 0.0
H1032 H 0.38594 0.9772 0.63076 0.0
H1033 H 0.44344 0.93209 0.62323 0.0
H1034 H 0.5157 0.06766 0.73398 0.0
H1035 H 0.52229 0.92811 0.62132 0.0
H1036 H 0.59616 0.33491 0.75059 0.0
N1037 N 0.56621 0.14942 0.71902 0.0
C1038 C 0.55767 0.18526 0.73021 0.0
C1039 C 0.52706 0.10093 0.733 0.0
C1040 C 0.53221 0.18043 0.74305 0.0
C1041 C 0.55249 0.1075 0.72048 0.0
C1042 C 0.51655 0.13753 0.74427 0.0
N1043 N 0.60622 0.22882 0.71797 0.0
C1044 C 0.63376 0.26714 0.71858 0.0
C1045 C 0.57339 0.26458 0.74163 0.0
C1046 C 0.57811 0.22661 0.72956 0.0
C1047 C 0.59881 0.30493 0.74153 0.0
C1048 C 0.62977 0.306 0.73013 0.0
H1049 H 0.4974 0.1323 0.75407 0.0
H1050 H 0.5052 0.21549 0.7645 0.0
H1051 H 0.54097 0.28933 0.76316 0.0
O1052 O 0.66875 0.14233 0.6956 0.0
O1053 O 0.59654 0.2227 0.69086 0.0
O1054 O 0.56148 0.20004 0.66613 0.0
O1055 O 0.64962 0.17182 0.71895 0.0
O1056 O 0.64333 0.18852 0.68133 0.0
O1057 O 0.62043 0.12517 0.66299 0.0
O1058 O 0.5325 0.13468 0.63508 0.0
O1059 O 0.55535 0.06861 0.66693 0.0
O1060 O 0.60299 0.09047 0.6885 0.0
O1061 O 0.59965 0.14167 0.63986 0.0
O1062 O 0.51824 0.16013 0.67533 0.0
O1063 O 0.54529 0.12945 0.69248 0.0
C1064 C 0.57853 0.23173 0.67865 0.0
C1065 C 0.69354 0.11652 0.71575 0.0
C1066 C 0.75388 0.08849 0.7243 0.0
C1067 C 0.72735 0.04777 0.72344 0.0
C1068 C 0.66729 0.0761 0.71523 0.0
C1069 C 0.68423 0.04186 0.71904 0.0
C1070 C 0.73629 0.12279 0.72053 0.0
C1071 C 0.64738 0.16212 0.66755 0.0
C1072 C 0.67814 0.15177 0.71047 0.0
C1073 C 0.52506 0.21841 0.75461 0.0
C1074 C 0.54544 0.26048 0.75386 0.0
C1075 C 0.57946 0.05916 0.67746 0.0
C1076 C 0.5754 0.11189 0.61341 0.0
C1077 C 0.55096 0.0881 0.58607 0.0
C1078 C 0.58007 0.05788 0.58284 0.0
C1079 C 0.60552 0.08261 0.60989 0.0
C1080 C 0.54872 0.11481 0.60138 0.0
C1081 C 0.60747 0.0555 0.59471 0.0
C1082 C 0.51661 0.15055 0.6888 0.0
C1083 C 0.5705 0.13936 0.62942 0.0
H1084 H 0.73985 1.02038 0.72603 0.0
H1085 H 0.63403 0.07075 0.71172 0.0
H1086 H 0.664 1.0105 0.71843 0.0
H1087 H 0.75568 0.15476 0.72134 0.0
H1088 H 0.58217 0.03688 0.57112 0.0
H1089 H 0.62737 0.08044 0.61882 0.0
H1090 H 0.52564 0.13758 0.604 0.0
H1091 H 0.6304 0.03268 0.59213 0.0
Tb1092 Tb 0.11771 0.1178 0.16579 0.0
C1093 C 0.0533 0.08638 0.23278 0.0
N1094 N 1.03373 0.07773 0.21859 0.0
C1095 C 0.99393 1.01057 0.22261 0.0
C1096 C 1.04543 0.05661 0.24227 0.0
C1097 C 1.00285 0.04139 0.21368 0.0
C1098 C 1.01592 1.0178 0.23685 0.0
C1099 C 0.09627 0.13983 0.25354 0.0
C1100 C 0.07799 0.1272 0.23831 0.0
C1101 C 0.09116 0.10926 0.26273 0.0
C1102 C 0.06565 0.06767 0.25711 0.0
Tb1103 Tb 0.05094 0.12893 0.2045 0.0
N1104 N 0.0805 0.15605 0.22926 0.0
C1105 C 0.11725 0.1834 0.25929 0.0
C1106 C 0.09799 0.19951 0.23527 0.0
C1107 C 0.11748 0.21358 0.2502 0.0
H1108 H 0.98614 0.0355 0.2026 0.0
H1109 H 0.13234 0.24776 0.25473 0.0
H1110 H 0.0538 0.15139 0.14327 0.0
H1111 H 0.22392 0.99701 0.15001 0.0
H1112 H 0.09766 0.22324 0.22842 0.0
H1113 H 0.13181 0.19451 0.27093 0.0
H1114 H 0.19688 0.06302 0.16661 0.0
H1115 H 0.97027 0.98125 0.21848 0.0
H1116 H 0.10532 0.11809 0.27442 0.0
H1117 H 0.06051 0.04505 0.26454 0.0
H1118 H 1.01798 0.12167 0.11728 0.0
H1119 H 1.00885 0.99404 0.24379 0.0
H1120 H 0.1878 0.95678 0.12456 0.0
N1121 N 0.08581 0.09577 0.14132 0.0
C1122 C 0.09533 0.05759 0.13176 0.0
C1123 C 1.03947 0.10311 0.12125 0.0
C1124 C 0.07641 0.03975 0.11669 0.0
C1125 C 0.0597 0.11972 0.13603 0.0
C1126 C 0.04745 0.06265 0.1116 0.0
N1127 N 0.1457 0.05888 0.15087 0.0
C1128 C 0.18105 0.04539 0.15553 0.0
C1129 C 0.14085 1.00097 0.12681 0.0
C1130 C 0.12673 0.03847 0.13672 0.0
C1131 C 0.17576 0.98541 0.13183 0.0
C1132 C 0.19632 1.00812 0.14618 0.0
H1133 H 1.03223 0.05019 0.10009 0.0
H1134 H 0.07386 0.98617 0.09545 0.0
H1135 H 0.13067 0.95229 0.1043 0.0
O1136 O 0.1626 0.14165 0.15096 0.0
O1137 O 0.05042 0.12171 0.16732 0.0
O1138 O 1.02444 0.07974 0.18327 0.0
O1139 O 0.16165 0.17558 0.17536 0.0
O1140 O 0.10696 0.05221 0.17251 0.0
O1141 O 0.07092 0.06108 0.19632 0.0
O1142 O 0.99801 0.14909 0.19576 0.0
O1143 O 0.11688 0.16202 0.20498 0.0
O1144 O 0.14476 0.10956 0.18709 0.0
O1145 O 1.00326 0.15053 0.22013 0.0
O1146 O 0.07748 0.1934 0.19888 0.0
O1147 O 0.08086 0.17456 0.17188 0.0
C1148 C 1.02463 0.08804 0.16961 0.0
C1149 C 0.22877 0.18166 0.16317 0.0
C1150 C 0.29719 0.17629 0.15022 0.0
C1151 C 0.31856 0.20189 0.16414 0.0
C1152 C 0.25067 0.20867 0.17683 0.0
C1153 C 0.29528 0.21821 0.17734 0.0
C1154 C 0.25236 0.16587 0.14989 0.0
C1155 C 0.08971 0.03614 0.18427 0.0
C1156 C 0.18149 0.17375 0.16231 0.0
C1157 C 0.08835 1.00075 0.10702 0.0
C1158 C 0.12067 0.98144 0.11206 0.0
C1159 C 0.14875 0.14056 0.20024 0.0
C1160 C 0.93528 0.1256 0.20833 0.0
C1161 C 0.86947 0.10757 0.22189 0.0
C1162 C 0.86039 0.06713 0.21019 0.0
C1163 C 0.92412 0.08615 0.1965 0.0
C1164 C 0.90732 0.13672 0.22071 0.0
C1165 C 0.88703 0.05711 0.19749 0.0
C1166 C 0.07987 0.20509 0.18541 0.0
C1167 C 0.97807 0.15239 0.20894 0.0
H1168 H 0.35308 0.21024 0.16467 0.0
H1169 H 0.23333 0.2229 0.18705 0.0
H1170 H 0.31183 0.23896 0.18792 0.0
H1171 H 0.23583 0.14567 0.13919 0.0
H1172 H 0.83301 0.04258 0.21079 0.0
H1173 H 0.94463 0.07677 0.18674 0.0
H1174 H 0.91575 0.16798 0.22943 0.0
H1175 H 0.87937 1.02615 0.18854 0.0
Tb1176 Tb 0.56992 0.21516 0.3187 0.0
C1177 C 0.63562 0.14183 0.24752 0.0
N1178 N 0.62773 0.18126 0.25664 0.0
C1179 C 0.69032 0.21854 0.24715 0.0
C1180 C 0.67152 0.13887 0.23792 0.0
C1181 C 0.65373 0.2197 0.25625 0.0
C1182 C 0.69948 0.17788 0.23803 0.0
C1183 C 0.61006 0.06367 0.23669 0.0
C1184 C 0.6056 0.10499 0.24693 0.0
C1185 C 0.64673 0.05981 0.22758 0.0
C1186 C 0.67731 0.09744 0.22813 0.0
Tb1187 Tb 0.56754 0.18 0.2712 0.0
N1188 N 0.57015 0.11067 0.25548 0.0
C1189 C 0.57656 1.02822 0.23535 0.0
C1190 C 0.53606 0.0772 0.25339 0.0
C1191 C 0.53909 0.03523 0.24356 0.0
H1192 H 0.6465 0.25133 0.26304 0.0
H1193 H 0.51249 1.00844 0.24227 0.0
H1194 H 0.57223 0.3257 0.33053 0.0
H1195 H 0.66995 0.11785 0.33978 0.0
H1196 H 0.50695 0.08273 0.25963 0.0
H1197 H 0.57869 0.99587 0.22761 0.0
H1198 H 0.60313 0.13282 0.32977 0.0
H1199 H 0.71126 0.249 0.24709 0.0
H1200 H 0.65096 1.02831 0.21967 0.0
H1201 H 0.70459 0.0944 0.2206 0.0
H1202 H 0.62641 0.39203 0.33976 0.0
H1203 H 0.72759 0.17709 0.23087 0.0
H1204 H 0.73207 0.17785 0.34701 0.0
N1205 N 0.61571 0.27999 0.3295 0.0
C1206 C 0.65453 0.2753 0.33452 0.0
C1207 C 0.63513 0.35934 0.338 0.0
C1208 C 0.68618 0.31232 0.34059 0.0
C1209 C 0.60471 0.32148 0.33232 0.0
C1210 C 0.67646 0.35472 0.34179 0.0
N1211 N 0.62811 0.19974 0.33017 0.0
C1212 C 0.63021 0.15903 0.33258 0.0
C1213 C 0.69933 0.22694 0.34113 0.0
C1214 C 0.66087 0.23359 0.335 0.0
C1215 C 0.70303 0.1844 0.34237 0.0
C1216 C 0.66802 0.15045 0.33831 0.0
H1217 H 0.6998 0.38407 0.34641 0.0
H1218 H 0.75046 0.33384 0.35054 0.0
H1219 H 0.76212 0.2588 0.3509 0.0
O1220 O 0.54901 0.24585 0.34096 0.0
O1221 O 0.55694 0.26853 0.30705 0.0
O1222 O 0.58469 0.25377 0.28192 0.0
O1223 O 0.52098 0.1798 0.32911 0.0
O1224 O 0.62346 0.18757 0.30614 0.0
O1225 O 0.61976 0.21989 0.28663 0.0
O1226 O 0.50925 0.19946 0.26733 0.0
O1227 O 0.57284 0.12261 0.28159 0.0
O1228 O 0.55929 0.14079 0.30863 0.0
O1229 O 0.55336 0.18461 0.24855 0.0
O1230 O 0.51182 0.15468 0.28301 0.0
O1231 O 0.52192 0.21687 0.30211 0.0
C1232 C 0.57124 0.28203 0.29441 0.0
C1233 C 0.52518 0.19705 0.35659 0.0
C1234 C 0.56555 0.19341 0.37942 0.0
C1235 C 0.5293 0.16787 0.38382 0.0
C1236 C 0.48945 0.17164 0.36119 0.0
C1237 C 0.49151 0.1573 0.37478 0.0
C1238 C 0.56287 0.2083 0.36583 0.0
C1239 C 0.64168 0.20131 0.29464 0.0
C1240 C 0.52282 0.21096 0.34204 0.0
C1241 C 0.72554 0.30588 0.34601 0.0
C1242 C 0.73214 0.26319 0.34625 0.0
C1243 C 0.56583 0.11141 0.29516 0.0
C1244 C 0.50528 0.23409 0.24718 0.0
C1245 C 0.44976 0.26189 0.2357 0.0
C1246 C 0.47513 0.3039 0.23877 0.0
C1247 C 0.5311 0.27568 0.24989 0.0
C1248 C 0.46514 0.22734 0.23999 0.0
C1249 C 0.51594 0.31056 0.24571 0.0
C1250 C 0.49745 0.1801 0.29542 0.0
C1251 C 0.51693 0.19764 0.25273 0.0
H1252 H 0.53034 0.15506 0.394 0.0
H1253 H 0.46006 0.16269 0.35421 0.0
H1254 H 0.4639 0.1374 0.37821 0.0
H1255 H 0.59014 0.22859 0.36236 0.0
H1256 H 0.46362 0.33115 0.23568 0.0
H1257 H 0.56241 0.28114 0.25536 0.0
H1258 H 0.44509 0.19519 0.23814 0.0
H1259 H 0.53567 0.34284 0.24797 0.0
Tb1260 Tb 0.13259 0.19775 0.78065 0.0
C1261 C 0.05657 0.26844 0.84849 0.0
N1262 N 0.06952 0.23028 0.84035 0.0
C1263 C 0.10662 0.22656 0.86329 0.0
C1264 C 0.06906 0.28813 0.86427 0.0
C1265 C 0.09263 0.20804 0.84769 0.0
C1266 C 0.09538 0.2672 0.87155 0.0
C1267 C 1.01054 0.32324 0.84937 0.0
C1268 C 1.02815 0.28578 0.8412 0.0
C1269 C 1.02418 0.34446 0.86492 0.0
C1270 C 0.05359 0.32701 0.87235 0.0
Tb1271 Tb 0.04956 0.20588 0.81437 0.0
N1272 N 1.01565 0.26389 0.82632 0.0
C1273 C 0.97887 0.33717 0.84181 0.0
C1274 C 0.98318 0.27568 0.81914 0.0
C1275 C 0.96474 0.3129 0.82668 0.0
H1276 H 0.1012 0.17645 0.84143 0.0
H1277 H 0.93956 0.3227 0.82087 0.0
H1278 H 0.19922 0.29115 0.78582 0.0
H1279 H 0.06763 0.08069 0.72704 0.0
H1280 H 0.97224 0.25684 0.80746 0.0
H1281 H 0.96432 0.36573 0.84768 0.0
H1282 H 0.09204 0.10389 0.75474 0.0
H1283 H 0.12598 0.20946 0.86893 0.0
H1284 H 1.01139 0.37359 0.87141 0.0
H1285 H 0.06308 0.34297 0.88446 0.0
H1286 H 0.22245 0.34721 0.77107 0.0
H1287 H 0.10599 0.28134 0.88365 0.0
H1288 H 0.07761 0.13476 0.71093 0.0
N1289 N 0.15775 0.24937 0.7675 0.0
C1290 C 0.14411 0.24127 0.75247 0.0
C1291 C 0.20013 0.31768 0.76573 0.0
C1292 C 0.15657 0.27182 0.74353 0.0
C1293 C 0.18698 0.28598 0.77404 0.0
C1294 C 0.18429 0.31093 0.75048 0.0
N1295 N 0.11318 0.17118 0.75463 0.0
C1296 C 0.09597 0.128 0.74791 0.0
C1297 C 0.10819 0.18862 0.72982 0.0
C1298 C 0.12062 0.2005 0.74577 0.0
C1299 C 0.0878 0.14528 0.72314 0.0
C1300 C 0.08224 0.11465 0.73219 0.0
H1301 H 0.19471 0.33533 0.74402 0.0
H1302 H 0.15114 0.28457 0.72076 0.0
H1303 H 0.10851 0.21154 0.70873 0.0
O1304 O 0.17847 0.1768 0.79277 0.0
O1305 O 0.06765 0.1633 0.77727 0.0
O1306 O 1.03054 0.21362 0.79177 0.0
O1307 O 0.18684 0.17798 0.7686 0.0
O1308 O 0.10176 0.13206 0.78452 0.0
O1309 O 0.08617 0.14896 0.8108 0.0
O1310 O 1.00217 0.17783 0.82719 0.0
O1311 O 0.11678 0.20341 0.81695 0.0
O1312 O 0.15027 0.24712 0.80278 0.0
O1313 O 1.00473 0.15126 0.8023 0.0
O1314 O 0.06529 0.27219 0.80847 0.0
O1315 O 0.11002 0.26469 0.7868 0.0
C1316 C 1.03601 0.1855 0.77846 0.0
C1317 C 0.24826 0.20057 0.78508 0.0
C1318 C 0.31898 0.22437 0.77628 0.0
C1319 C 0.3311 0.24876 0.79163 0.0
C1320 C 0.2606 0.22556 0.80042 0.0
C1321 C 0.30177 0.24962 0.80363 0.0
C1322 C 0.27764 0.20048 0.77307 0.0
C1323 C 0.09309 0.11928 0.79764 0.0
C1324 C 0.20502 0.1749 0.78129 0.0
C1325 C 0.14238 0.26139 0.72783 0.0
C1326 C 0.11812 0.2198 0.72098 0.0
C1327 C 0.14382 0.23815 0.81625 0.0
C1328 C 0.93614 0.15452 0.81321 0.0
C1329 C 0.87432 0.18645 0.82515 0.0
C1330 C 0.85253 0.17206 0.81058 0.0
C1331 C 0.91405 0.14023 0.79868 0.0
C1332 C 0.915 0.17522 0.82642 0.0
C1333 C 0.87221 0.14843 0.79746 0.0
C1334 C 0.0869 0.28881 0.79759 0.0
C1335 C 0.98199 0.15161 0.81468 0.0
H1336 H 0.36322 0.26677 0.79431 0.0
H1337 H 0.23865 0.22645 0.80994 0.0
H1338 H 0.31109 0.26858 0.81547 0.0
H1339 H 0.26872 0.18085 0.76124 0.0
H1340 H 0.82109 0.18019 0.80923 0.0
H1341 H 0.92926 0.12348 0.78827 0.0
H1342 H 0.93122 0.18463 0.83777 0.0
H1343 H 0.85555 0.13772 0.7862 0.0
H1344 H 0.11222 0.74669 0.15985 0.0
H1345 H 0.07434 0.99419 0.2084 0.0
H1346 H 0.06414 0.77623 0.20662 0.0
H1347 H 0.10892 0.96424 0.15995 0.0
H1348 H 0.07294 0.91611 0.20805 0.0
H1349 H 0.11349 0.82482 0.15973 0.0
C1350 C 0.10194 0.76928 0.17017 0.0
C1351 C 0.08842 0.75348 0.18335 0.0
C1352 C 0.08077 0.92627 0.19743 0.0
C1353 C 0.09006 0.84551 0.18328 0.0
C1354 C 0.08125 0.97141 0.19757 0.0
C1355 C 0.09101 0.98719 0.18413 0.0
C1356 C 0.09055 0.89504 0.18374 0.0
C1357 C 0.10107 0.95478 0.1707 0.0
C1358 C 0.10278 0.81444 0.17008 0.0
C1359 C 0.07568 0.78581 0.19624 0.0
N1360 N 0.10053 0.91102 0.17087 0.0
N1361 N 0.07691 0.82941 0.19587 0.0
H1362 H 0.67125 0.91855 0.43821 0.0
H1363 H 0.47304 0.03372 0.42085 0.0
H1364 H 0.686 1.01451 0.41111 0.0
H1365 H 0.45396 0.90388 0.4291 0.0
H1366 H 0.5505 0.03273 0.42006 0.0
H1367 H 0.59363 0.91808 0.43805 0.0
C1368 C 0.65867 0.93966 0.43218 0.0
C1369 C 0.68688 0.96655 0.42462 0.0
C1370 C 0.52947 1.00434 0.42205 0.0
C1371 C 0.5954 0.96702 0.42474 0.0
C1372 C 0.48457 1.00461 0.42234 0.0
C1373 C 0.4552 0.96854 0.42484 0.0
C1374 C 0.5467 0.96818 0.42469 0.0
C1375 C 0.47411 0.93296 0.42734 0.0
C1376 C 0.61372 0.93937 0.43212 0.0
C1377 C 0.66685 0.99325 0.4172 0.0
N1378 N 0.51784 0.93385 0.4273 0.0
N1379 N 0.62321 0.99306 0.41757 0.0
H1380 H 0.57491 0.30562 0.70403 0.0
H1381 H 0.59916 0.49172 0.65456 0.0
H1382 H 0.58001 0.27144 0.65376 0.0
H1383 H 0.55894 0.51829 0.7024 0.0
H1384 H 0.59867 0.41348 0.65443 0.0
H1385 H 0.5753 0.38374 0.7041 0.0
C1386 C 0.57663 0.31428 0.69297 0.0
C1387 C 0.57791 0.28072 0.67889 0.0
C1388 C 0.58992 0.43629 0.66499 0.0
C1389 C 0.57823 0.37239 0.67885 0.0
C1390 C 0.59037 0.48152 0.66511 0.0
C1391 C 0.579 0.51295 0.67851 0.0
C1392 C 0.5787 0.4212 0.67846 0.0
C1393 C 0.56772 0.49619 0.69168 0.0
C1394 C 0.57647 0.35934 0.69301 0.0
C1395 C 0.57892 0.29525 0.66499 0.0
N1396 N 0.56814 0.45232 0.69134 0.0
N1397 N 0.57942 0.33929 0.66534 0.0
H1398 H 0.96809 0.46729 0.96139 0.0
H1399 H 0.19255 0.49834 0.91601 0.0
H1400 H 0.97362 0.48511 0.91473 0.0
H1401 H 0.1819 0.45549 0.95848 0.0
H1402 H 0.11464 0.49867 0.91604 0.0
H1403 H 1.04582 0.46739 0.96119 0.0
C1404 C 0.98526 0.47125 0.95104 0.0
C1405 C 0.96267 0.4758 0.938 0.0
C1406 C 0.12919 0.48922 0.9254 0.0
C1407 C 0.05452 0.47686 0.93783 0.0
C1408 C 0.17423 0.48921 0.92544 0.0
C1409 C 0.19522 0.47678 0.93725 0.0
C1410 C 0.10365 0.47726 0.93738 0.0
C1411 C 0.16824 0.46505 0.94898 0.0
C1412 C 1.03025 0.47135 0.95095 0.0
C1413 C 0.98842 0.48129 0.92513 0.0
N1414 N 0.12478 0.46577 0.94876 0.0
N1415 N 1.03212 0.48177 0.92541 0.0
H1416 H 0.07797 0.58074 0.82329 0.0
H1417 H 0.1073 0.33145 0.77375 0.0
H1418 H 0.08985 0.54495 0.77322 0.0
H1419 H 0.06377 0.3598 0.82116 0.0
H1420 H 0.10623 0.40925 0.77379 0.0
H1421 H 0.07794 0.50262 0.82321 0.0
C1422 C 0.08063 0.55676 0.81221 0.0
C1423 C 0.08353 0.5708 0.79821 0.0
C1424 C 0.09687 0.39871 0.78423 0.0
C1425 C 0.08402 0.47887 0.79807 0.0
C1426 C 0.09765 0.35377 0.78426 0.0
C1427 C 0.08571 0.33762 0.79748 0.0
C1428 C 0.08461 0.42944 0.79762 0.0
C1429 C 0.07316 0.36952 0.81057 0.0
C1430 C 0.08046 0.5116 0.81219 0.0
C1431 C 0.08679 0.53675 0.78435 0.0
N1432 N 0.07325 0.41313 0.81032 0.0
N1433 N 0.08721 0.49328 0.78467 0.0
H1434 H 0.18235 0.86657 0.0224 0.0
H1435 H 0.97016 0.89198 0.0739 0.0
H1436 H 0.19094 0.92035 0.07241 0.0
H1437 H 0.97254 0.90234 0.02631 0.0
H1438 H 0.04805 0.89201 0.07328 0.0
H1439 H 0.10523 0.86944 0.02314 0.0
C1440 C 0.16869 0.87991 0.03355 0.0
C1441 C 0.19512 0.89481 0.04725 0.0
C1442 C 1.03167 0.8941 0.06292 0.0
C1443 C 0.10359 0.89548 0.04833 0.0
C1444 C 0.98666 0.89388 0.06322 0.0
C1445 C 0.9634 0.89706 0.05013 0.0
C1446 C 0.05477 0.89621 0.04924 0.0
C1447 C 0.98808 0.89988 0.03679 0.0
C1448 C 0.1239 0.88095 0.03398 0.0
C1449 C 0.17318 0.909 0.06138 0.0
N1450 N 1.03154 0.89889 0.03666 0.0
N1451 N 0.12949 0.90869 0.06153 0.0
H1452 H 0.57972 0.82198 0.26904 0.0
H1453 H 0.54185 0.0683 0.31878 0.0
H1454 H 0.54941 0.85083 0.3179 0.0
H1455 H 0.58927 0.04037 0.2719 0.0
H1456 H 0.54151 0.99007 0.31861 0.0
H1457 H 0.58023 0.90018 0.26975 0.0
C1458 C 0.57347 0.84452 0.28002 0.0
C1459 C 0.56509 0.8284 0.29346 0.0
C1460 C 0.55185 1.00085 0.3083 0.0
C1461 C 0.56458 0.92065 0.29429 0.0
C1462 C 0.55214 0.04606 0.30838 0.0
C1463 C 0.56519 0.06232 0.29526 0.0
C1464 C 0.56457 0.97022 0.29497 0.0
C1465 C 0.57803 1.03042 0.28225 0.0
C1466 C 0.57348 0.88973 0.28038 0.0
C1467 C 0.55599 0.86053 0.30713 0.0
N1468 N 0.57726 0.98677 0.28245 0.0
N1469 N 0.556 0.90435 0.30716 0.0
H1470 H 0.71323 0.45652 0.54176 0.0
H1471 H 0.47482 0.32064 0.5462 0.0
H1472 H 0.69038 0.31795 0.54072 0.0
H1473 H 0.49611 0.44985 0.53751 0.0
H1474 H 0.55257 0.3209 0.54613 0.0
H1475 H 0.63543 0.45632 0.54165 0.0
C1476 C 0.69223 0.42583 0.54145 0.0
C1477 C 0.70991 0.38723 0.54131 0.0
C1478 C 0.54046 0.34936 0.54425 0.0
C1479 C 0.61826 0.38703 0.54152 0.0
C1480 C 0.49549 0.34941 0.54441 0.0
C1481 C 0.47741 0.38533 0.54191 0.0
C1482 C 0.56907 0.3858 0.54172 0.0
C1483 C 0.50737 0.42097 0.53934 0.0
C1484 C 0.64725 0.42585 0.54148 0.0
C1485 C 0.67952 0.34902 0.54116 0.0
N1486 N 0.55088 0.42036 0.5394 0.0
N1487 N 0.63606 0.35 0.54134 0.0
H1488 H 0.10409 0.24657 0.1617 0.0
H1489 H 1.04218 0.48784 0.20443 0.0
H1490 H 0.0584 0.27703 0.20882 0.0
H1491 H 0.12748 0.46859 0.16568 0.0
H1492 H 1.04184 0.41043 0.20507 0.0
H1493 H 0.10627 0.32474 0.1616 0.0
C1494 C 0.09428 0.26941 0.17206 0.0
C1495 C 0.08097 0.25397 0.1853 0.0
C1496 C 0.06055 0.42293 0.19636 0.0
C1497 C 0.08297 0.34561 0.18515 0.0
C1498 C 0.06096 0.4677 0.19599 0.0
C1499 C 0.08469 0.48613 0.18489 0.0
C1500 C 0.08342 0.39472 0.18534 0.0
C1501 C 0.10774 0.45675 0.17427 0.0
C1502 C 0.09571 0.31453 0.17199 0.0
C1503 C 0.069 0.28644 0.19829 0.0
N1504 N 0.10623 0.41318 0.17469 0.0
N1505 N 0.06995 0.32992 0.19783 0.0
H1506 H 0.1731 0.93648 0.44346 0.0
H1507 H 0.96502 0.98492 0.40207 0.0
H1508 H 0.18299 1.00186 0.40618 0.0
H1509 H 0.95902 0.9467 0.44545 0.0
H1510 H 1.04309 0.98697 0.40236 0.0
H1511 H 0.09539 0.93598 0.44343 0.0
C1512 C 0.15931 0.95078 0.4352 0.0
C1513 C 0.18603 0.9691 0.42476 0.0
C1514 C 1.02486 0.97809 0.41184 0.0
C1515 C 0.09457 0.96812 0.42457 0.0
C1516 C 0.97979 0.97678 0.41168 0.0
C1517 C 0.95415 0.96557 0.42375 0.0
C1518 C 1.0457 0.96759 0.42408 0.0
C1519 C 0.9765 0.95562 0.43582 0.0
C1520 C 0.11439 0.95045 0.43522 0.0
C1521 C 0.16476 0.98703 0.41446 0.0
N1522 N 1.02021 0.95664 0.43562 0.0
N1523 N 0.12101 0.98582 0.41458 0.0
H1524 H 0.51023 0.99033 0.67235 0.0
H1525 H 0.6311 0.78376 0.66496 0.0
H1526 H 0.64536 1.01525 0.68276 0.0
H1527 H 0.52008 0.79192 0.69362 0.0
H1528 H 0.63292 0.86211 0.66477 0.0
H1529 H 0.50847 0.9126 0.67343 0.0
C1530 C 0.53965 0.97967 0.67481 0.0
C1531 C 0.57797 1.01044 0.67762 0.0
C1532 C 0.60809 0.84683 0.67109 0.0
C1533 C 0.57631 0.91959 0.6784 0.0
C1534 C 0.60693 0.80179 0.6712 0.0
C1535 C 0.57555 0.7804 0.67943 0.0
C1536 C 0.57659 0.8712 0.67873 0.0
C1537 C 0.54519 0.80644 0.68721 0.0
C1538 C 0.53854 0.93504 0.67549 0.0
C1539 C 0.61488 0.99357 0.68069 0.0
N1540 N 0.54608 0.84967 0.68647 0.0
N1541 N 0.61323 0.94976 0.68077 0.0
H1542 H 0.46504 0.4607 0.96078 0.0
H1543 H 0.68482 0.46388 0.91162 0.0
H1544 H 0.46871 0.46285 0.91231 0.0
H1545 H 0.68173 0.46723 0.96055 0.0
H1546 H 0.60701 0.46301 0.91157 0.0
H1547 H 0.54297 0.46201 0.96081 0.0
C1548 C 0.4819 0.46139 0.95008 0.0
C1549 C 0.45894 0.46156 0.93651 0.0
C1550 C 0.62313 0.46384 0.92236 0.0
C1551 C 0.55056 0.46311 0.93648 0.0
C1552 C 0.66815 0.46461 0.92243 0.0
C1553 C 0.69125 0.46555 0.93611 0.0
C1554 C 0.5996 0.46396 0.93609 0.0
C1555 C 0.66629 0.46571 0.94958 0.0
C1556 C 0.52692 0.46217 0.95012 0.0
C1557 C 0.48399 0.46257 0.92313 0.0
N1558 N 0.62262 0.46494 0.94922 0.0
N1559 N 0.52766 0.46326 0.92347 0.0
H1560 H 0.11567 0.83122 0.77495 0.0
H1561 H 0.06818 0.07718 0.82126 0.0
H1562 H 0.05001 0.85634 0.81857 0.0
H1563 H 0.11395 0.04704 0.77415 0.0
H1564 H 0.06513 0.99874 0.82117 0.0
H1565 H 0.11865 0.90964 0.77505 0.0
C1566 C 0.10201 0.85302 0.78466 0.0
C1567 C 0.08294 0.83592 0.79688 0.0
C1568 C 0.0759 1.00906 0.81082 0.0
C1569 C 0.08667 0.92828 0.79713 0.0
C1570 C 0.07777 0.05439 0.81085 0.0
C1571 C 0.09146 0.07012 0.79769 0.0
C1572 C 0.0881 0.97785 0.79756 0.0
C1573 C 0.10316 0.03757 0.78465 0.0
C1574 C 0.10377 0.8983 0.7847 0.0
C1575 C 0.06598 0.86713 0.80903 0.0
N1576 N 0.10136 0.99383 0.78496 0.0
N1577 N 0.06835 0.91103 0.80885 0.0
H1578 H 0.46942 0.90515 0.07414 0.0
H1579 H 0.69012 0.89278 0.02548 0.0
H1580 H 0.47308 0.88364 0.02412 0.0
H1581 H 0.68506 0.89952 0.0747 0.0
H1582 H 0.6123 0.89199 0.02496 0.0
H1583 H 0.54715 0.90516 0.07476 0.0
C1584 C 0.48618 0.90047 0.06321 0.0
C1585 C 0.46323 0.89494 0.04903 0.0
C1586 C 0.628 0.89364 0.03592 0.0
C1587 C 0.55487 0.89528 0.04971 0.0
C1588 C 0.67301 0.89412 0.03625 0.0
C1589 C 0.69563 0.89618 0.05016 0.0
C1590 C 0.60395 0.89551 0.04963 0.0
C1591 C 0.67013 0.89784 0.0636 0.0
C1592 C 0.53116 0.90063 0.0636 0.0
C1593 C 0.48835 0.88925 0.03543 0.0
N1594 N 0.62651 0.89758 0.06299 0.0
N1595 N 0.53195 0.88968 0.03612 0.0
H1596 H 0.53047 0.34842 0.31373 0.0
H1597 H 0.59949 0.53929 0.26808 0.0
H1598 H 0.6137 0.32936 0.27437 0.0
H1599 H 0.55941 0.56967 0.31593 0.0
H1600 H 0.59767 0.4613 0.26863 0.0
H1601 H 0.53388 0.42649 0.3134 0.0
C1602 C 0.54986 0.36031 0.30506 0.0
C1603 C 0.57221 0.33096 0.29418 0.0
C1604 C 0.58928 0.48492 0.27904 0.0
C1605 C 0.57488 0.42227 0.29335 0.0
C1606 C 0.59022 0.52988 0.27874 0.0
C1607 C 0.57985 0.56233 0.29201 0.0
C1608 C 0.57691 0.47089 0.29262 0.0
C1609 C 0.56806 0.54678 0.30538 0.0
C1610 C 0.55148 0.40535 0.30481 0.0
C1611 C 0.59546 0.34958 0.28298 0.0
N1612 N 0.56664 0.50284 0.30528 0.0
N1613 N 0.59593 0.3932 0.28282 0.0
H1614 H 0.20705 0.41115 0.52141 0.0
H1615 H 0.97791 0.34318 0.55847 0.0
H1616 H 0.1967 0.36203 0.56259 0.0
H1617 H 0.99387 0.4273 0.52685 0.0
H1618 H 0.05573 0.34379 0.5586 0.0
H1619 H 0.12924 0.41124 0.52161 0.0
C1620 C 0.1887 0.40022 0.53052 0.0
C1621 C 0.20976 0.38667 0.54203 0.0
C1622 C 1.04235 0.3622 0.55162 0.0
C1623 C 0.1183 0.38614 0.54219 0.0
C1624 C 0.99738 0.36198 0.55155 0.0
C1625 C 0.97785 0.38553 0.54273 0.0
C1626 C 0.06931 0.38548 0.54257 0.0
C1627 C 1.00628 0.40854 0.53391 0.0
C1628 C 0.14381 0.40039 0.53063 0.0
C1629 C 0.18292 0.37303 0.55345 0.0
N1630 N 0.0497 0.4077 0.53401 0.0
N1631 N 0.13932 0.37287 0.55316 0.0
H1632 H 0.31136 0.6707 0.10657 0.0
H1633 H 0.18094 0.72714 0.18523 0.0
H1634 H 0.22635 0.76851 0.11781 0.0
H1635 H 0.20923 0.59606 0.16344 0.0
H1636 H 0.22336 0.7553 0.16554 0.0
H1637 H 0.29678 0.65503 0.13204 0.0
C1638 C 0.29006 0.68919 0.11439 0.0
C1639 C 0.26991 0.72084 0.10993 0.0
C1640 C 0.22112 0.7206 0.16534 0.0
C1641 C 0.2545 0.7041 0.13916 0.0
C1642 C 0.19705 0.70456 0.17656 0.0
C1643 C 0.19048 0.659 0.17549 0.0
C1644 C 0.23926 0.69092 0.1533 0.0
C1645 C 0.2128 0.63126 0.16431 0.0
C1646 C 0.28222 0.68056 0.12896 0.0
C1647 C 0.24329 0.74439 0.12073 0.0
N1648 N 0.23573 0.64754 0.15341 0.0
N1649 N 0.23621 0.73535 0.13478 0.0
H1650 H 0.57922 0.20939 0.41138 0.0
H1651 H 0.82956 0.20459 0.40191 0.0
H1652 H 0.64633 0.19813 0.368 0.0
H1653 H 0.76467 0.20056 0.44486 0.0
H1654 H 0.76414 0.21749 0.39092 0.0
H1655 H 0.64774 0.21869 0.4252 0.0
C1656 C 0.60821 0.20893 0.40472 0.0
C1657 C 0.60677 0.20249 0.38839 0.0
C1658 C 0.76423 0.21453 0.40285 0.0
C1659 C 0.68524 0.214 0.4042 0.0
C1660 C 0.80163 0.20744 0.40912 0.0
C1661 C 0.8022 0.20121 0.42422 0.0
C1662 C 0.72694 0.21488 0.41167 0.0
C1663 C 0.76536 0.2053 0.43316 0.0
C1664 C 0.64734 0.21463 0.41266 0.0
C1665 C 0.64561 0.2033 0.38052 0.0
N1666 N 0.72884 0.21118 0.42665 0.0
N1667 N 0.68305 0.20864 0.38846 0.0
H1668 H 0.43814 0.43185 0.57364 0.0
H1669 H 0.47526 0.64529 0.64201 0.0
H1670 H 0.33678 0.51028 0.58566 0.0
H1671 H 0.50657 0.52442 0.64968 0.0
H1672 H 0.43322 0.60162 0.61854 0.0
H1673 H 0.47353 0.47033 0.59904 0.0
C1674 C 0.42358 0.45737 0.5816 0.0
C1675 C 0.38492 0.46854 0.57767 0.0
C1676 C 0.44897 0.58475 0.62548 0.0
C1677 C 0.42506 0.51252 0.60629 0.0
C1678 C 0.47292 0.60947 0.63874 0.0
C1679 C 0.49381 0.58805 0.64767 0.0
C1680 C 0.44729 0.53862 0.62092 0.0
C1681 C 0.49033 0.54176 0.64306 0.0
C1682 C 0.44347 0.47888 0.59608 0.0
C1683 C 0.3668 0.50126 0.58839 0.0
N1684 N 0.46793 0.51837 0.62976 0.0
N1685 N 0.38745 0.5228 0.60221 0.0
H1686 H 0.91943 0.2572 0.84577 0.0
H1687 H 0.74768 0.36414 0.89774 0.0
H1688 H 0.79117 0.18519 0.83584 0.0
H1689 H 0.86663 0.34633 0.91631 0.0
H1690 H 0.7567 0.30513 0.87387 0.0
H1691 H 0.89601 0.30076 0.87014 0.0
C1692 C 0.8862 0.25043 0.84871 0.0
C1693 C 0.85755 0.21635 0.83895 0.0
C1694 C 0.77977 0.31311 0.88348 0.0
C1695 C 0.83012 0.26789 0.86677 0.0
C1696 C 0.77462 0.34644 0.89703 0.0
C1697 C 0.80648 0.35955 0.90885 0.0
C1698 C 0.8173 0.29408 0.88193 0.0
C1699 C 0.84138 0.33683 0.90741 0.0
C1700 C 0.87286 0.27554 0.86263 0.0
C1701 C 0.81439 0.21078 0.84314 0.0
N1702 N 0.84624 0.30568 0.89405 0.0
N1703 N 0.80176 0.23646 0.85686 0.0
H1704 H 0.42919 0.68067 0.89837 0.0
H1705 H 0.27586 0.85689 0.89815 0.0
H1706 H 0.39502 0.77186 0.94052 0.0
H1707 H 0.26607 0.72389 0.86759 0.0
H1708 H 0.34159 0.84545 0.90965 0.0
H1709 H 0.39428 0.71955 0.88287 0.0
C1710 C 0.41511 0.70944 0.90436 0.0
C1711 C 0.41331 0.72193 0.92075 0.0
C1712 C 0.32532 0.81957 0.90008 0.0
C1713 C 0.37385 0.76652 0.90314 0.0
C1714 C 0.28745 0.82567 0.89362 0.0
C1715 C 0.26419 0.79108 0.88199 0.0
C1716 C 0.34058 0.77915 0.89456 0.0
C1717 C 0.28227 0.75213 0.8763 0.0
C1718 C 0.39548 0.73171 0.89552 0.0
C1719 C 0.39616 0.76046 0.92792 0.0
N1720 N 0.31903 0.74724 0.88272 0.0
N1721 N 0.37601 0.78084 0.91906 0.0
H1722 H 0.93487 0.96318 0.07672 0.0
H1723 H 1.02387 1.00474 0.15111 0.0
H1724 H 0.82266 1.00495 0.10044 0.0
H1725 H 0.95654 0.11682 0.15999 0.0
H1726 H 0.97965 0.97029 0.12717 0.0
H1727 H 0.97423 0.98601 0.10168 0.0
C1728 C 0.91844 0.97687 0.0872 0.0
C1729 C 0.87507 0.98062 0.08666 0.0
C1730 C 0.97426 1.00214 0.1345 0.0
C1731 C 0.92029 1.00864 0.11513 0.0
C1732 C 0.99893 1.02136 0.14818 0.0
C1733 C 0.99326 0.06325 0.15737 0.0
C1734 C 0.94378 1.02511 0.13023 0.0
C1735 C 0.96137 0.08426 0.1531 0.0
C1736 C 0.9409 0.98984 0.10145 0.0
C1737 C 0.85587 1.00058 0.10051 0.0
N1738 N 0.93761 0.0649 0.13977 0.0
N1739 N 0.8788 1.01439 0.11425 0.0
H1740 H 0.24996 0.85222 0.38738 0.0
H1741 H 0.3834 0.74793 0.31575 0.0
H1742 H 0.38764 0.87023 0.38916 0.0
H1743 H 0.29666 0.65667 0.33474 0.0
H1744 H 0.36525 0.80944 0.33673 0.0
H1745 H 0.25003 0.7938 0.36264 0.0
C1746 C 0.28006 0.84363 0.38253 0.0
C1747 C 0.3189 0.86529 0.39017 0.0
C1748 C 0.34915 0.77608 0.33591 0.0
C1749 C 0.31908 0.80115 0.36205 0.0
C1750 C 0.35928 0.74114 0.32399 0.0
C1751 C 0.34228 0.69737 0.32387 0.0
C1752 C 0.32102 0.76704 0.34742 0.0
C1753 C 0.31064 0.69007 0.33458 0.0
C1754 C 0.28001 0.81073 0.36853 0.0
C1755 C 0.35718 0.85363 0.38359 0.0
N1756 N 0.30147 0.72475 0.34623 0.0
N1757 N 0.35637 0.82256 0.36972 0.0
H1758 H 0.68018 0.10436 0.64324 0.0
H1759 H 0.84569 0.29229 0.62099 0.0
H1760 H 0.70178 0.24008 0.67133 0.0
H1761 H 0.84948 0.15309 0.60134 0.0
H1762 H 0.79513 0.27372 0.64036 0.0
H1763 H 0.74282 0.12095 0.628 0.0
C1764 C 0.69814 0.13761 0.64621 0.0
C1765 C 0.68561 0.17102 0.65846 0.0
C1766 C 0.80762 0.24719 0.63204 0.0
C1767 C 0.75731 0.19012 0.64119 0.0
C1768 C 0.83658 0.25784 0.62108 0.0
C1769 C 0.85165 0.22409 0.60971 0.0
C1770 C 0.79296 0.20242 0.63136 0.0
C1771 C 0.83869 0.17993 0.61006 0.0
C1772 C 0.73408 0.14696 0.6376 0.0
C1773 C 0.7103 0.21338 0.66194 0.0
N1774 N 0.80945 0.17024 0.62058 0.0
N1775 N 0.74476 0.22183 0.65326 0.0
H1776 H 0.8248 0.58584 0.86571 0.0
H1777 H 0.95472 0.74265 0.81794 0.0
H1778 H 0.86443 0.72637 0.88518 0.0
H1779 H 0.97491 0.60963 0.81602 0.0
H1780 H 0.8946 0.73435 0.83551 0.0
H1781 H 0.85143 0.59353 0.8403 0.0
C1782 C 0.83815 0.61851 0.86454 0.0
C1783 C 0.84387 0.65531 0.87767 0.0
C1784 C 0.91133 0.70657 0.83076 0.0
C1785 C 0.87346 0.66425 0.84867 0.0
C1786 C 0.94529 0.71114 0.82074 0.0
C1787 C 0.96956 0.67677 0.81576 0.0
C1788 C 0.9013 0.66697 0.83536 0.0
C1789 C 0.95687 0.63683 0.81978 0.0
C1790 C 0.8531 0.62283 0.85005 0.0
C1791 C 0.86003 0.69708 0.8754 0.0
N1792 N 0.92367 0.63307 0.82946 0.0
N1793 N 0.8752 0.70032 0.86121 0.0
H1794 H 0.49705 1.02252 0.56567 0.0
H1795 H 0.32048 0.08495 0.53618 0.0
H1796 H 0.5407 0.16364 0.57838 0.0
H1797 H 0.40599 0.20271 0.53343 0.0
H1798 H 0.38022 0.05685 0.54538 0.0
H1799 H 0.44388 0.03281 0.54758 0.0
C1800 C 0.49565 0.05555 0.56449 0.0
C1801 C 0.52261 0.09243 0.57366 0.0
C1802 C 0.38638 0.08813 0.54228 0.0
C1803 C 0.46179 0.10462 0.5534 0.0
C1804 C 0.35221 0.10412 0.53703 0.0
C1805 C 0.3585 0.14626 0.53423 0.0
C1806 C 0.4269 0.1147 0.5447 0.0
C1807 C 0.39992 0.17032 0.53573 0.0
C1808 C 0.46505 0.06149 0.55433 0.0
C1809 C 0.51988 0.13451 0.57171 0.0
N1810 N 0.43242 0.15454 0.54112 0.0
N1811 N 0.48984 0.13947 0.56185 0.0
H1812 H 0.83451 0.86163 0.37624 0.0
H1813 H 0.62343 0.81199 0.32364 0.0
H1814 H 0.71549 0.89686 0.396 0.0
H1815 H 0.70737 0.71463 0.31907 0.0
H1816 H 0.6655 0.85847 0.34685 0.0
H1817 H 0.79618 0.82158 0.35145 0.0
C1818 C 0.80039 0.86114 0.37526 0.0
C1819 C 0.77793 0.88237 0.38802 0.0
C1820 C 0.67495 0.82723 0.34058 0.0
C1821 C 0.73452 0.83774 0.35999 0.0
C1822 C 0.65131 0.80104 0.32737 0.0
C1823 C 0.6625 0.75993 0.31958 0.0
C1824 C 0.71039 0.8124 0.34561 0.0
C1825 C 0.69822 0.74641 0.32486 0.0
C1826 C 0.77867 0.83834 0.36123 0.0
C1827 C 0.73376 0.88068 0.38637 0.0
N1828 N 0.72123 0.77278 0.33757 0.0
N1829 N 0.71338 0.85892 0.37251 0.0
H1830 H 0.31912 0.03964 0.05691 0.0
H1831 H 0.36861 0.13584 0.14717 0.0
H1832 H 0.41008 0.99441 0.08221 0.0
H1833 H 0.27995 0.18081 0.12068 0.0
H1834 H 0.39929 0.09866 0.12261 0.0
H1835 H 0.32073 0.10625 0.07852 0.0
C1836 C 0.34066 0.04478 0.06683 0.0
C1837 C 0.36424 1.01189 0.06801 0.0
C1838 C 0.37374 0.11747 0.12218 0.0
C1839 C 0.36492 0.08646 0.093 0.0
C1840 C 0.35626 0.13867 0.13619 0.0
C1841 C 0.321 0.16032 0.13588 0.0
C1842 C 0.35547 0.11776 0.10783 0.0
C1843 C 0.30629 0.16323 0.12138 0.0
C1844 C 0.34135 0.08251 0.07924 0.0
C1845 C 0.39132 1.01933 0.08106 0.0
N1846 N 0.3231 0.14154 0.10794 0.0
N1847 N 0.39023 0.05552 0.09329 0.0
H1848 H 0.89154 0.64871 0.03767 0.0
H1849 H 1.02827 0.67312 0.11518 0.0
H1850 H 0.84435 0.69095 0.08441 0.0
H1851 H 0.06414 0.60227 0.06949 0.0
H1852 H 0.96116 0.68122 0.10391 0.0
H1853 H 0.95512 0.63163 0.04874 0.0
C1854 C 0.89419 0.65377 0.05023 0.0
C1855 C 0.8626 0.67157 0.06013 0.0
C1856 C 0.98348 0.66357 0.09633 0.0
C1857 C 0.93573 0.65306 0.07287 0.0
C1858 C 1.02159 0.65861 0.10281 0.0
C1859 C 0.05141 0.63634 0.09334 0.0
C1860 C 0.97529 0.64669 0.08015 0.0
C1861 C 1.04206 0.61982 0.07721 0.0
C1862 C 0.93067 0.64433 0.05655 0.0
C1863 C 0.86818 0.67808 0.07634 0.0
N1864 N 1.00483 0.62542 0.07111 0.0
N1865 N 0.90413 0.66917 0.08219 0.0
H1866 H 0.14294 0.32574 0.82977 0.0
H1867 H 0.21704 0.4057 0.90882 0.0
H1868 H 0.1969 0.21286 0.83469 0.0
H1869 H 0.33104 0.35837 0.88848 0.0
H1870 H 0.17773 0.36779 0.88406 0.0
H1871 H 0.18016 0.37053 0.85437 0.0
C1872 C 0.16307 0.31073 0.83597 0.0
C1873 C 0.16736 0.26595 0.83035 0.0
C1874 C 0.21143 0.36615 0.88505 0.0
C1875 C 0.20981 0.31635 0.85795 0.0
C1876 C 0.23372 0.38739 0.89913 0.0
C1877 C 0.27729 0.38529 0.90053 0.0
C1878 C 0.23275 0.34166 0.87258 0.0
C1879 C 0.29752 0.36099 0.88771 0.0
C1880 C 0.18385 0.336 0.84995 0.0
C1881 C 0.19316 0.24746 0.83876 0.0
N1882 N 0.27488 0.33944 0.87428 0.0
N1883 N 0.214 0.27296 0.8521 0.0
H1884 H 0.79788 0.51557 0.56586 0.0
H1885 H 0.84889 0.62114 0.65413 0.0
H1886 H 0.90623 0.48332 0.58699 0.0
H1887 H 0.79998 0.69286 0.62474 0.0
H1888 H 0.87204 0.57004 0.63057 0.0
H1889 H 0.79763 0.58014 0.58798 0.0
C1890 C 0.8217 0.5221 0.57516 0.0
C1891 C 0.85143 0.49342 0.57484 0.0
C1892 C 0.85736 0.59778 0.62937 0.0
C1893 C 0.85102 0.56698 0.60025 0.0
C1894 C 0.84438 0.62693 0.64276 0.0
C1895 C 0.82205 0.66061 0.64123 0.0
C1896 C 0.84729 0.60245 0.61454 0.0
C1897 C 0.81653 0.66672 0.6263 0.0
C1898 C 0.82167 0.55909 0.58775 0.0
C1899 C 0.88184 0.5038 0.58712 0.0
N1900 N 0.82826 0.63732 0.61348 0.0
N1901 N 0.8804 0.5394 0.59955 0.0
H1902 H 0.44976 0.23329 0.31518 0.0
H1903 H 0.31571 0.03984 0.34424 0.0
H1904 H 0.45445 0.0958 0.29228 0.0
H1905 H 0.28296 0.17163 0.3549 0.0
H1906 H 0.36335 0.05778 0.32394 0.0
H1907 H 0.3866 0.21065 0.32904 0.0
C1908 C 0.43715 0.19828 0.31298 0.0
C1909 C 0.45737 0.16628 0.30269 0.0
C1910 C 0.34501 0.08246 0.33045 0.0
C1911 C 0.38527 0.1401 0.31856 0.0
C1912 C 0.31781 0.0722 0.34198 0.0
C1913 C 0.29569 0.10446 0.35122 0.0
C1914 C 0.35067 0.12554 0.3284 0.0
C1915 C 0.29942 0.14589 0.34795 0.0
C1916 C 0.40097 0.18539 0.32082 0.0
C1917 C 0.43969 0.12143 0.30015 0.0
N1918 N 0.32712 0.15557 0.33698 0.0
N1919 N 0.40491 0.10956 0.30824 0.0
H1920 H 0.27139 0.51147 0.236 0.0
H1921 H 0.43709 0.71359 0.28613 0.0
H1922 H 0.23611 0.62603 0.26919 0.0
H1923 H 0.47689 0.59265 0.25878 0.0
H1924 H 0.36311 0.68058 0.27978 0.0
H1925 H 0.34648 0.53753 0.24465 0.0
C1926 C 0.2794 0.5415 0.24536 0.0
C1927 C 0.2478 0.56695 0.25181 0.0
C1928 C 0.38789 0.66113 0.2751 0.0
C1929 C 0.33307 0.59733 0.26144 0.0
C1930 C 0.43027 0.68006 0.27871 0.0
C1931 C 0.46329 0.65587 0.27299 0.0
C1932 C 0.37814 0.6176 0.26558 0.0
C1933 C 0.45243 0.61262 0.26333 0.0
C1934 C 0.32218 0.55657 0.25018 0.0
C1935 C 0.25969 0.60578 0.26379 0.0
N1936 N 0.41066 0.59478 0.25991 0.0
N1937 N 0.30138 0.62001 0.26809 0.0
H1938 H 0.88534 0.06464 0.46665 0.0
H1939 H 0.90134 0.28718 0.50753 0.0
H1940 H 0.76096 0.08312 0.45282 0.0
H1941 H 0.76558 0.25552 0.51326 0.0
H1942 H 0.90039 0.21364 0.48957 0.0
H1943 H 0.89124 0.13573 0.48652 0.0
C1944 C 0.85904 0.08336 0.46798 0.0
C1945 C 0.82247 0.06812 0.45824 0.0
C1946 C 0.87093 0.22263 0.49489 0.0
C1947 C 0.82954 0.14948 0.48042 0.0
C1948 C 0.87136 0.26466 0.50496 0.0
C1949 C 0.83345 0.27704 0.51181 0.0
C1950 C 0.83219 0.1933 0.49155 0.0
C1951 C 0.79547 0.2468 0.50825 0.0
C1952 C 0.86274 0.12416 0.4791 0.0
C1953 C 0.78968 0.09398 0.46014 0.0
N1954 N 0.79568 0.20632 0.49818 0.0
N1955 N 0.7939 0.13347 0.4711 0.0
H1956 H 0.18584 0.62719 0.77931 0.0
H1957 H 0.28244 0.68189 0.70289 0.0
H1958 H 0.19134 0.7557 0.7704 0.0
H1959 H 0.34573 0.60173 0.72505 0.0
H1960 H 0.23738 0.69879 0.72573 0.0
H1961 H 0.23702 0.60824 0.75821 0.0
C1962 C 0.19875 0.65168 0.77317 0.0
C1963 C 0.18437 0.69274 0.77631 0.0
C1964 C 0.26074 0.67702 0.72551 0.0
C1965 C 0.24101 0.67119 0.75228 0.0
C1966 C 0.286 0.66708 0.71246 0.0
C1967 C 0.31728 0.64026 0.7122 0.0
C1968 C 0.26637 0.65929 0.73819 0.0
C1969 C 0.32154 0.62238 0.72493 0.0
C1970 C 0.22748 0.6408 0.76113 0.0
C1971 C 0.20146 0.72346 0.76808 0.0
N1972 N 0.29607 0.63204 0.73749 0.0
N1973 N 0.22839 0.71178 0.75622 0.0
H1974 H 0.89234 0.3492 0.00872 0.0
H1975 H 0.90715 0.11295 0.02335 0.0
H1976 H 0.95907 0.25214 0.97841 0.0
H1977 H 0.84799 0.21423 0.05503 0.0
H1978 H 0.93087 0.1651 0.00764 0.0
H1979 H 0.88083 0.30237 0.02691 0.0
C1980 C 0.90487 0.31814 0.00598 0.0
C1981 C 0.92635 0.3043 -0.008 0.0
C1982 C 0.913 0.17603 0.0181 0.0
C1983 C 0.91313 0.25037 0.01269 0.0
C1984 C 0.89923 0.1462 0.02701 0.0
C1985 C 0.87527 0.15919 0.04045 0.0
C1986 C 0.9025 0.21907 0.0226 0.0
C1987 C 0.86658 0.20289 0.04481 0.0
C1988 C 0.89838 0.29145 0.01637 0.0
C1989 C 0.94248 0.26409 -0.0109 0.0
N1990 N 0.87989 0.23112 0.03585 0.0
N1991 N 0.93511 0.23826 -0.00072 0.0
H1992 H 0.65756 0.74417 0.71931 0.0
H1993 H 0.90112 0.70899 0.72022 0.0
H1994 H 0.70473 0.62446 0.69469 0.0
H1995 H 0.85231 0.81089 0.75539 0.0
H1996 H 0.82989 0.68449 0.70824 0.0
H1997 H 0.72885 0.77418 0.73118 0.0
C1998 C 0.68265 0.72395 0.71657 0.0
C1999 C 0.67527 0.68178 0.70596 0.0
C2000 C 0.83466 0.7123 0.71856 0.0
C2001 C 0.75668 0.71625 0.71915 0.0
C2002 C 0.8753 0.72642 0.72533 0.0
C2003 C 0.88225 0.76154 0.73891 0.0
C2004 C 0.80064 0.73349 0.72539 0.0
C2005 C 0.84805 0.78362 0.74492 0.0
C2006 C 0.72335 0.74126 0.72325 0.0
C2007 C 0.7091 0.65729 0.70267 0.0
N2008 N 0.80839 0.76894 0.73818 0.0
N2009 N 0.74836 0.675 0.70917 0.0
H2010 H 0.41053 0.27355 0.51453 0.0
H2011 H 0.26741 0.06572 0.45916 0.0
H2012 H 0.28176 0.27881 0.5009 0.0
H2013 H 0.40372 0.0927 0.45371 0.0
H2014 H 0.27085 0.13829 0.47813 0.0
H2015 H 0.40745 0.20145 0.49541 0.0
C2016 C 0.38185 0.25966 0.50732 0.0
C2017 C 0.34657 0.28213 0.50902 0.0
C2018 C 0.29992 0.12821 0.47275 0.0
C2019 C 0.34254 0.19986 0.48756 0.0
C2020 C 0.29809 0.0868 0.4621 0.0
C2021 C 0.33545 0.07346 0.45503 0.0
C2022 C 0.33943 0.15594 0.4764 0.0
C2023 C 0.37428 0.10209 0.45896 0.0
C2024 C 0.38012 0.2187 0.49648 0.0
C2025 C 0.3099 0.26278 0.49964 0.0
N2026 N 0.37537 0.14206 0.4695 0.0
N2027 N 0.30864 0.22233 0.48935 0.0
H2028 H 0.86863 0.75531 0.25212 0.0
H2029 H 0.9404 0.56516 0.19063 0.0
H2030 H 0.77062 0.65249 0.22559 0.0
H2031 H 0.99749 0.69923 0.19215 0.0
H2032 H 0.87873 0.59359 0.2046 0.0
H2033 H 0.91683 0.73596 0.23102 0.0
C2034 C 0.85642 0.72898 0.24203 0.0
C2035 C 0.81454 0.70532 0.2412 0.0
C2036 C 0.9044 0.61662 0.20157 0.0
C2037 C 0.87247 0.68058 0.21746 0.0
C2038 C 0.93948 0.60051 0.19373 0.0
C2039 C 0.97387 0.6301 0.19052 0.0
C2040 C 0.90465 0.66259 0.20652 0.0
C2041 C 0.97158 0.67555 0.19462 0.0
C2042 C 0.88473 0.7176 0.23 0.0
C2043 C 0.80263 0.67074 0.22753 0.0
N2044 N 0.9379 0.69064 0.2028 0.0
N2045 N 0.8318 0.6586 0.21646 0.0
H2046 H 0.20403 0.99005 0.96173 0.0
H2047 H 0.25481 0.24813 0.96602 0.0
H2048 H 0.24296 0.08927 0.00481 0.0
H2049 H 0.27467 0.14491 0.92481 0.0
H2050 H 0.23471 0.19138 -0.0198 0.0
H2051 H 0.21247 0.04833 0.94782 0.0
C2052 C 0.21359 1.02424 0.96829 0.0
C2053 C 0.22295 0.03502 -0.0156 0.0
C2054 C 0.24326 0.18137 0.96802 0.0
C2055 C 0.23282 0.10151 0.96861 0.0
C2056 C 0.25507 0.21368 0.95993 0.0
C2057 C 0.26692 0.20148 0.94418 0.0
C2058 C 0.24259 0.13653 0.96025 0.0
C2059 C 0.26532 0.15608 0.93684 0.0
C2060 C 0.21872 0.05734 0.96034 0.0
C2061 C 0.23576 0.07972 -0.00766 0.0
N2062 N 0.25341 0.12531 0.94494 0.0
N2063 N 0.2404 0.11145 -0.01565 0.0
H2064 H 1.0068 0.0989 0.76391 0.0
H2065 H 0.82199 0.13863 0.71422 0.0
H2066 H 0.98068 0.232 0.76937 0.0
H2067 H 0.79042 0.05572 0.74604 0.0
H2068 H 0.89407 0.16018 0.72579 0.0
H2069 H 0.93985 0.06984 0.74846 0.0
C2070 C 0.98739 0.12194 0.76156 0.0
C2071 C 0.99885 0.16784 0.76785 0.0
C2072 C 0.87125 0.13681 0.73 0.0
C2073 C 0.92382 0.13506 0.75015 0.0
C2074 C 0.83003 0.12476 0.72357 0.0
C2075 C 0.79945 0.09618 0.72945 0.0
C2076 C 0.88243 0.11901 0.74198 0.0
C2077 C 0.81268 0.07777 0.74109 0.0
C2078 C 0.94936 0.10535 0.75289 0.0
C2079 C 0.97258 0.19641 0.76471 0.0
N2080 N 0.85331 0.08966 0.74705 0.0
N2081 N 0.93616 0.17952 0.75596 0.0
H2082 H 0.38665 0.56262 -0.01677 0.0
H2083 H 0.25968 0.76231 0.02187 0.0
H2084 H 0.26943 0.58365 0.96426 0.0
H2085 H 0.39447 0.77059 0.03061 0.0
H2086 H 0.25838 0.68792 0.00467 0.0
H2087 H 0.38576 0.63066 0.00443 0.0
C2088 C 0.36044 0.58117 -0.01631 0.0
C2089 C 0.32805 0.56774 0.97204 0.0
C2090 C 0.28827 0.70585 0.01037 0.0
C2091 C 0.32685 0.64487 -0.00396 0.0
C2092 C 0.28905 0.7483 0.0201 0.0
C2093 C 0.32749 0.77277 0.0272 0.0
C2094 C 0.32622 0.6876 0.00781 0.0
C2095 C 0.36435 0.75269 0.0251 0.0
C2096 C 0.36013 0.62002 -0.00433 0.0
C2097 C 0.29513 0.59312 0.97298 0.0
N2098 N 0.36298 0.71121 0.0154 0.0
N2099 N 0.29538 0.63044 -0.01523 0.0
H2100 H 0.65482 0.11544 0.28414 0.0
H2101 H 0.88679 0.16348 0.25193 0.0
H2102 H 0.71597 0.25047 0.28971 0.0
H2103 H 0.78266 0.07814 0.22256 0.0
H2104 H 0.83552 0.18507 0.27231 0.0
H2105 H 0.71475 0.08949 0.26834 0.0
C2106 C 0.6814 0.13949 0.28237 0.0
C2107 C 0.68055 0.18506 0.28795 0.0
C2108 C 0.82453 0.1611 0.26142 0.0
C2109 C 0.74915 0.15581 0.27053 0.0
C2110 C 0.85355 0.14908 0.24959 0.0
C2111 C 0.83956 0.11904 0.23512 0.0
C2112 C 0.78159 0.14169 0.25905 0.0
C2113 C 0.79593 0.10054 0.23341 0.0
C2114 C 0.71541 0.12472 0.2734 0.0
C2115 C 0.71568 0.21505 0.28543 0.0
N2116 N 0.76873 0.11194 0.24524 0.0
N2117 N 0.74875 0.1999 0.27682 0.0
H2118 H 0.37474 0.57323 0.49451 0.0
H2119 H 0.35705 0.79447 0.46951 0.0
H2120 H 0.36013 0.69581 0.52837 0.0
H2121 H 0.3107 0.66293 0.44053 0.0
H2122 H 0.37557 0.76155 0.49016 0.0
H2123 H 0.36968 0.60935 0.47351 0.0
C2124 C 0.37053 0.60778 0.49755 0.0
C2125 C 0.36676 0.63124 0.51323 0.0
C2126 C 0.36158 0.74007 0.47922 0.0
C2127 C 0.36206 0.6729 0.48923 0.0
C2128 C 0.35067 0.75873 0.46745 0.0
C2129 C 0.33156 0.73149 0.45328 0.0
C2130 C 0.35411 0.69387 0.4767 0.0
C2131 C 0.32557 0.68532 0.45115 0.0
C2132 C 0.36788 0.62835 0.48555 0.0
C2133 C 0.36302 0.67641 0.51646 0.0
N2134 N 0.33671 0.668 0.46275 0.0
N2135 N 0.36043 0.69576 0.50453 0.0
H2136 H 0.22018 0.10217 0.19394 0.0
H2137 H 0.38162 0.3049 0.24574 0.0
H2138 H 0.17723 0.22249 0.22033 0.0
H2139 H 0.41945 0.19683 0.21008 0.0
H2140 H 0.3065 0.27706 0.23732 0.0
H2141 H 0.29347 0.13608 0.20145 0.0
C2142 C 0.22614 0.1357 0.20141 0.0
C2143 C 0.19251 0.1596 0.20642 0.0
C2144 C 0.33137 0.25992 0.23121 0.0
C2145 C 0.2767 0.19887 0.2151 0.0
C2146 C 0.37411 0.27605 0.23588 0.0
C2147 C 0.40643 0.25285 0.22861 0.0
C2148 C 0.32136 0.22029 0.21932 0.0
C2149 C 0.39527 0.21537 0.21604 0.0
C2150 C 0.26809 0.15515 0.20566 0.0
C2151 C 0.20217 0.20276 0.21628 0.0
N2152 N 0.35366 0.19998 0.21192 0.0
N2153 N 0.24353 0.22116 0.22028 0.0
H2154 H 0.77539 0.79874 0.00491 0.0
H2155 H 0.88826 0.58424 0.97498 0.0
H2156 H 0.88096 0.77186 0.0293 0.0
H2157 H 0.76409 0.59245 0.95777 0.0
H2158 H 0.8884 0.65573 -0.0061 0.0
H2159 H 0.77343 0.72624 -0.01397 0.0
C2160 C 0.79838 0.77784 0.00619 0.0
C2161 C 0.82858 0.79141 0.01858 0.0
C2162 C 0.8609 0.64179 -0.01391 0.0
C2163 C 0.82626 0.70871 -0.00275 0.0
C2164 C 0.86058 0.60068 0.97545 0.0
C2165 C 0.82553 0.5819 0.9652 0.0
C2166 C 0.82629 0.66473 -0.01378 0.0
C2167 C 0.79155 0.60578 0.96563 0.0
C2168 C 0.797 0.73637 -0.00448 0.0
C2169 C 0.85714 0.76273 0.0199 0.0
N2170 N 0.79276 0.64613 0.976 0.0
N2171 N 0.85533 0.7228 0.00934 0.0
H2172 H 0.38919 0.18526 0.77488 0.0
H2173 H 0.47092 0.09571 0.70388 0.0
H2174 H 0.3182 0.25086 0.74923 0.0
H2175 H 0.48373 0.22827 0.69802 0.0
H2176 H 0.42245 0.11605 0.72543 0.0
H2177 H 0.43466 0.16623 0.7523 0.0
C2178 C 0.38398 0.19648 0.76458 0.0
C2179 C 0.3503 0.21961 0.76378 0.0
C2180 C 0.43577 0.14063 0.71939 0.0
C2181 C 0.40189 0.19818 0.73809 0.0
C2182 C 0.46314 0.12905 0.70711 0.0
C2183 C 0.48179 0.16076 0.69954 0.0
C2184 C 0.42699 0.1842 0.72406 0.0
C2185 C 0.46998 0.20315 0.70376 0.0
C2186 C 0.40958 0.18536 0.7517 0.0
C2187 C 0.34415 0.23298 0.75015 0.0
N2188 N 0.44334 0.21394 0.71593 0.0
N2189 N 0.37001 0.22225 0.73775 0.0
H2190 H 0.7849 0.78085 0.47063 0.0
H2191 H 0.79272 0.55947 0.49691 0.0
H2192 H 0.79388 0.65529 0.43756 0.0
H2193 H 0.84599 0.69008 0.52496 0.0
H2194 H 0.77352 0.59274 0.47647 0.0
H2195 H 0.78719 0.74562 0.49205 0.0
C2196 C 0.78723 0.74584 0.46785 0.0
C2197 C 0.79036 0.72123 0.45227 0.0
C2198 C 0.78905 0.61398 0.48719 0.0
C2199 C 0.79173 0.68067 0.47672 0.0
C2200 C 0.80033 0.59511 0.49883 0.0
C2201 C 0.82191 0.62189 0.5126 0.0
C2202 C 0.79866 0.66 0.48943 0.0
C2203 C 0.82937 0.66803 0.51461 0.0
C2204 C 0.78827 0.7258 0.48008 0.0
C2205 C 0.79159 0.6756 0.44937 0.0
N2206 N 0.81797 0.6856 0.50311 0.0
N2207 N 0.79263 0.65681 0.46152 0.0
loop_
_geom_bond_atom_site_label_1
_geom_bond_atom_site_label_2
_geom_bond_distance
_geom_bond_site_symmetry_2
_ccdc_geom_bond_type
Tb0 N29 2.617 . S
Tb0 N35 2.572 . S
Tb0 O44 2.465 . S
Tb0 O45 2.387 . S
Tb0 O47 2.428 . S
Tb0 O48 2.308 . S
Tb0 O52 2.349 . S
Tb0 O55 2.393 . S
Tb0 C64 2.802 . S
C1 N2 1.379 1_655 S
C1 C4 1.416 1_655 S
C1 C8 1.424 . S
N2 C1 1.379 1_455 S
N2 C5 1.334 . S
N2 Tb11 2.617 . S
C3 C5 1.390 . S
C3 C6 1.339 . S
C3 H23 0.930 . S
C4 C1 1.416 1_455 S
C4 C6 1.416 . S
C4 C10 1.448 1_455 S
C5 N2 1.334 . S
C5 C3 1.390 . S
C5 H16 0.930 . S
C6 C3 1.339 . S
C6 C4 1.416 . S
C6 H27 0.930 . S
C7 C8 1.413 . S
C7 C9 1.427 . S
C7 C13 1.416 . S
C8 C1 1.424 . S
C8 C7 1.413 . S
C8 N12 1.361 . S
C9 C7 1.427 . S
C9 C10 1.328 . S
C9 H24 0.929 . S
C10 C4 1.448 1_655 S
C10 C9 1.328 . S
C10 H25 0.930 . S
Tb11 N2 2.617 . S
Tb11 N12 2.572 1_455 S
Tb11 O46 2.349 . S
Tb11 O49 2.393 . S
Tb11 O50 2.465 1_455 S
Tb11 O51 2.387 . S
Tb11 O53 2.428 1_455 S
Tb11 O54 2.308 1_455 S
Tb11 C75 2.802 1_455 S
N12 C8 1.361 . S
N12 Tb11 2.572 1_655 S
N12 C14 1.340 . S
C13 C7 1.416 . S
C13 C15 1.332 . S
C13 H21 0.931 . S
C14 N12 1.340 . S
C14 C15 1.407 . S
C14 H20 0.930 . S
C15 C13 1.332 . S
C15 C14 1.407 . S
C15 H17 0.929 . S
H16 C5 0.930 . S
H17 C15 0.929 . S
H18 C33 0.930 . S
H19 C40 0.929 . S
H20 C14 0.930 . S
H21 C13 0.931 . S
H22 C36 0.930 . S
H23 C3 0.930 . S
H24 C9 0.929 . S
H25 C10 0.930 . S
H26 C31 0.930 1_655 S
H27 C6 0.930 . S
H28 C39 0.931 . S
N29 Tb0 2.617 . S
N29 C30 1.379 . S
N29 C33 1.334 . S
C30 N29 1.379 . S
C30 C32 1.416 . S
C30 C38 1.424 . S
C31 H26 0.930 1_455 S
C31 C33 1.390 . S
C31 C34 1.339 . S
C32 C30 1.416 . S
C32 C34 1.416 . S
C32 C65 1.448 . S
C33 H18 0.930 . S
C33 N29 1.334 . S
C33 C31 1.390 . S
C34 C31 1.339 . S
C34 C32 1.416 . S
C34 H41 0.930 . S
N35 Tb0 2.572 . S
N35 C36 1.340 . S
N35 C38 1.361 . S
C36 H22 0.930 . S
C36 N35 1.340 . S
C36 C40 1.407 . S
C37 C38 1.413 . S
C37 C39 1.416 . S
C37 C66 1.427 . S
C38 C30 1.424 . S
C38 N35 1.361 . S
C38 C37 1.413 . S
C39 H28 0.931 . S
C39 C37 1.416 . S
C39 C40 1.332 . S
C40 H19 0.929 . S
C40 C36 1.407 . S
C40 C39 1.332 . S
H41 C34 0.930 . S
H42 C65 0.930 . S
H43 C66 0.929 . S
O44 Tb0 2.465 . S
O44 C64 1.264 . S
O45 Tb0 2.387 . S
O45 C56 1.264 . S
O46 Tb11 2.349 . S
O46 C56 1.243 . S
O47 Tb0 2.428 . S
O47 C64 1.256 . S
O48 Tb0 2.308 . S
O48 C63 1.266 . S
O49 Tb11 2.393 . S
O49 C63 1.248 . S
O50 Tb11 2.465 1_655 S
O50 C75 1.264 . S
O51 Tb11 2.387 . S
O51 C67 1.264 . S
O52 Tb0 2.349 . S
O52 C67 1.243 . S
O53 Tb11 2.428 1_655 S
O53 C75 1.256 . S
O54 Tb11 2.308 1_655 S
O54 C74 1.266 . S
O55 Tb0 2.393 . S
O55 C74 1.248 1_455 S
C56 O45 1.264 . S
C56 O46 1.243 . S
C57 C60 1.399 . S
C57 C62 1.383 . S
C57 C64 1.496 . S
C58 C59 1.399 . S
C58 C62 1.389 . S
C59 C58 1.399 . S
C59 C61 1.380 . S
C59 H76 0.929 . S
C60 C57 1.399 . S
C60 C61 1.392 . S
C60 H77 0.929 . S
C61 C59 1.380 . S
C61 C60 1.392 . S
C61 H78 0.929 . S
C62 C57 1.383 . S
C62 C58 1.389 . S
C62 H79 0.931 . S
C63 O48 1.266 . S
C63 O49 1.248 . S
C64 Tb0 2.802 . S
C64 O44 1.264 . S
C64 O47 1.256 . S
C64 C57 1.496 . S
C65 C32 1.448 . S
C65 H42 0.930 . S
C65 C66 1.328 . S
C66 C37 1.427 . S
C66 H43 0.929 . S
C66 C65 1.328 . S
C67 O51 1.264 . S
C67 O52 1.243 . S
C68 C71 1.399 . S
C68 C72 1.383 . S
C68 C75 1.496 . S
C69 C70 1.399 . S
C69 C72 1.389 . S
C70 C69 1.399 . S
C70 C73 1.380 . S
C70 H80 0.929 . S
C71 C68 1.399 . S
C71 C73 1.392 . S
C71 H81 0.929 . S
C72 C68 1.383 . S
C72 C69 1.389 . S
C72 H82 0.931 . S
C73 C70 1.380 . S
C73 C71 1.392 . S
C73 H83 0.929 . S
C74 O54 1.266 . S
C74 O55 1.248 1_655 S
C75 Tb11 2.802 1_655 S
C75 O50 1.264 . S
C75 O53 1.256 . S
C75 C68 1.496 . S
H76 C59 0.929 . S
H77 C60 0.929 . S
H78 C61 0.929 . S
H79 C62 0.931 . S
H80 C70 0.929 . S
H81 C71 0.929 . S
H82 C72 0.931 . S
H83 C73 0.929 . S
Tb84 N113 2.617 . S
Tb84 N119 2.572 . S
Tb84 O128 2.465 . S
Tb84 O129 2.387 . S
Tb84 O131 2.428 . S
Tb84 O132 2.308 . S
Tb84 O136 2.349 . S
Tb84 O139 2.393 . S
Tb84 C148 2.802 . S
C85 N86 1.379 . S
C85 C88 1.416 . S
C85 C92 1.424 . S
N86 C85 1.379 . S
N86 C89 1.334 . S
N86 Tb95 2.617 . S
C87 C89 1.390 . S
C87 C90 1.339 . S
C87 H107 0.930 . S
C88 C85 1.416 . S
C88 C90 1.416 . S
C88 C94 1.448 . S
C89 N86 1.334 . S
C89 C87 1.390 . S
C89 H100 0.930 . S
C90 C87 1.339 . S
C90 C88 1.416 . S
C90 H111 0.930 . S
C91 C92 1.413 . S
C91 C93 1.427 . S
C91 C97 1.416 . S
C92 C85 1.424 . S
C92 C91 1.413 . S
C92 N96 1.361 . S
C93 C91 1.427 . S
C93 C94 1.328 . S
C93 H108 0.929 . S
C94 C88 1.448 . S
C94 C93 1.328 . S
C94 H109 0.930 . S
Tb95 N86 2.617 . S
Tb95 N96 2.572 . S
Tb95 O130 2.349 . S
Tb95 O133 2.393 . S
Tb95 O134 2.465 . S
Tb95 O135 2.387 . S
Tb95 O137 2.428 1_565 S
Tb95 O138 2.308 . S
Tb95 C159 2.802 1_565 S
N96 C92 1.361 . S
N96 Tb95 2.572 . S
N96 C98 1.340 . S
C97 C91 1.416 . S
C97 C99 1.332 . S
C97 H105 0.931 . S
C98 N96 1.340 . S
C98 C99 1.407 . S
C98 H104 0.930 . S
C99 C97 1.332 . S
C99 C98 1.407 . S
C99 H101 0.929 . S
H100 C89 0.930 . S
H101 C99 0.929 . S
H102 C117 0.930 . S
H103 C124 0.929 . S
H104 C98 0.930 . S
H105 C97 0.931 . S
H106 C120 0.930 . S
H107 C87 0.930 . S
H108 C93 0.929 . S
H109 C94 0.930 . S
H110 C115 0.930 . S
H111 C90 0.930 . S
H112 C123 0.931 . S
N113 Tb84 2.617 . S
N113 C114 1.379 . S
N113 C117 1.334 . S
C114 N113 1.379 . S
C114 C116 1.416 . S
C114 C122 1.424 . S
C115 H110 0.930 . S
C115 C117 1.390 . S
C115 C118 1.339 . S
C116 C114 1.416 . S
C116 C118 1.416 . S
C116 C149 1.448 . S
C117 H102 0.930 . S
C117 N113 1.334 . S
C117 C115 1.390 . S
C118 C115 1.339 . S
C118 C116 1.416 . S
C118 H125 0.930 . S
N119 Tb84 2.572 . S
N119 C120 1.340 . S
N119 C122 1.361 . S
C120 H106 0.930 . S
C120 N119 1.340 . S
C120 C124 1.407 . S
C121 C122 1.413 . S
C121 C123 1.416 . S
C121 C150 1.427 . S
C122 C114 1.424 . S
C122 N119 1.361 . S
C122 C121 1.413 . S
C123 H112 0.931 . S
C123 C121 1.416 . S
C123 C124 1.332 . S
C124 H103 0.929 . S
C124 C120 1.407 . S
C124 C123 1.332 . S
H125 C118 0.930 . S
H126 C149 0.930 . S
H127 C150 0.929 . S
O128 Tb84 2.465 . S
O128 C148 1.264 . S
O129 Tb84 2.387 . S
O129 C140 1.264 . S
O130 Tb95 2.349 . S
O130 C140 1.243 . S
O131 Tb84 2.428 . S
O131 C148 1.256 . S
O132 Tb84 2.308 . S
O132 C147 1.266 . S
O133 Tb95 2.393 . S
O133 C147 1.248 . S
O134 Tb95 2.465 . S
O134 C159 1.264 1_565 S
O135 Tb95 2.387 . S
O135 C151 1.264 . S
O136 Tb84 2.349 . S
O136 C151 1.243 . S
O137 Tb95 2.428 1_545 S
O137 C159 1.256 . S
O138 Tb95 2.308 . S
O138 C158 1.266 . S
O139 Tb84 2.393 . S
O139 C158 1.248 . S
C140 O129 1.264 . S
C140 O130 1.243 . S
C141 C144 1.399 . S
C141 C146 1.383 . S
C141 C148 1.496 . S
C142 C143 1.399 . S
C142 C146 1.389 . S
C143 C142 1.399 . S
C143 C145 1.380 . S
C143 H160 0.929 . S
C144 C141 1.399 . S
C144 C145 1.392 . S
C144 H161 0.929 . S
C145 C143 1.380 . S
C145 C144 1.392 . S
C145 H162 0.929 . S
C146 C141 1.383 . S
C146 C142 1.389 . S
C146 H163 0.931 . S
C147 O132 1.266 . S
C147 O133 1.248 . S
C148 Tb84 2.802 . S
C148 O128 1.264 . S
C148 O131 1.256 . S
C148 C141 1.496 . S
C149 C116 1.448 . S
C149 H126 0.930 . S
C149 C150 1.328 . S
C150 C121 1.427 . S
C150 H127 0.929 . S
C150 C149 1.328 . S
C151 O135 1.264 . S
C151 O136 1.243 . S
C152 C155 1.399 . S
C152 C156 1.383 . S
C152 C159 1.496 . S
C153 C154 1.399 . S
C153 C156 1.389 . S
C154 C153 1.399 . S
C154 C157 1.380 . S
C154 H164 0.929 . S
C155 C152 1.399 . S
C155 C157 1.392 . S
C155 H165 0.929 . S
C156 C152 1.383 . S
C156 C153 1.389 . S
C156 H166 0.931 . S
C157 C154 1.380 . S
C157 C155 1.392 . S
C157 H167 0.929 . S
C158 O138 1.266 . S
C158 O139 1.248 . S
C159 Tb95 2.802 1_545 S
C159 O134 1.264 1_545 S
C159 O137 1.256 . S
C159 C152 1.496 . S
H160 C143 0.929 . S
H161 C144 0.929 . S
H162 C145 0.929 . S
H163 C146 0.931 . S
H164 C154 0.929 . S
H165 C155 0.929 . S
H166 C156 0.931 . S
H167 C157 0.929 . S
Tb168 N197 2.617 . S
Tb168 N203 2.572 . S
Tb168 O212 2.465 . S
Tb168 O213 2.387 . S
Tb168 O215 2.428 . S
Tb168 O216 2.308 . S
Tb168 O220 2.349 . S
Tb168 O223 2.393 . S
Tb168 C232 2.802 . S
C169 N170 1.379 . S
C169 C172 1.416 . S
C169 C176 1.424 . S
N170 C169 1.379 . S
N170 C173 1.334 . S
N170 Tb179 2.617 . S
C171 C173 1.390 . S
C171 C174 1.339 . S
C171 H191 0.930 . S
C172 C169 1.416 . S
C172 C174 1.416 . S
C172 C178 1.448 . S
C173 N170 1.334 . S
C173 C171 1.390 . S
C173 H184 0.930 . S
C174 C171 1.339 . S
C174 C172 1.416 . S
C174 H195 0.930 . S
C175 C176 1.413 . S
C175 C177 1.427 . S
C175 C181 1.416 . S
C176 C169 1.424 . S
C176 C175 1.413 . S
C176 N180 1.361 . S
C177 C175 1.427 . S
C177 C178 1.328 . S
C177 H192 0.929 . S
C178 C172 1.448 . S
C178 C177 1.328 . S
C178 H193 0.930 . S
Tb179 N170 2.617 . S
Tb179 N180 2.572 . S
Tb179 O214 2.349 . S
Tb179 O217 2.393 . S
Tb179 O218 2.465 . S
Tb179 O219 2.387 . S
Tb179 O221 2.428 . S
Tb179 O222 2.308 . S
Tb179 C243 2.802 . S
N180 C176 1.361 . S
N180 Tb179 2.572 . S
N180 C182 1.340 . S
C181 C175 1.416 . S
C181 C183 1.332 . S
C181 H189 0.931 . S
C182 N180 1.340 . S
C182 C183 1.407 . S
C182 H188 0.930 . S
C183 C181 1.332 . S
C183 C182 1.407 . S
C183 H185 0.929 . S
H184 C173 0.930 . S
H185 C183 0.929 . S
H186 C201 0.930 . S
H187 C208 0.929 . S
H188 C182 0.930 . S
H189 C181 0.931 . S
H190 C204 0.930 . S
H191 C171 0.930 . S
H192 C177 0.929 . S
H193 C178 0.930 . S
H194 C199 0.930 . S
H195 C174 0.930 . S
H196 C207 0.931 . S
N197 Tb168 2.617 . S
N197 C198 1.379 . S
N197 C201 1.334 . S
C198 N197 1.379 . S
C198 C200 1.416 . S
C198 C206 1.424 . S
C199 H194 0.930 . S
C199 C201 1.390 . S
C199 C202 1.339 . S
C200 C198 1.416 . S
C200 C202 1.416 . S
C200 C233 1.448 . S
C201 H186 0.930 . S
C201 N197 1.334 . S
C201 C199 1.390 . S
C202 C199 1.339 . S
C202 C200 1.416 . S
C202 H209 0.930 . S
N203 Tb168 2.572 . S
N203 C204 1.340 . S
N203 C206 1.361 . S
C204 H190 0.930 . S
C204 N203 1.340 . S
C204 C208 1.407 . S
C205 C206 1.413 . S
C205 C207 1.416 . S
C205 C234 1.427 . S
C206 C198 1.424 . S
C206 N203 1.361 . S
C206 C205 1.413 . S
C207 H196 0.931 . S
C207 C205 1.416 . S
C207 C208 1.332 . S
C208 H187 0.929 . S
C208 C204 1.407 . S
C208 C207 1.332 . S
H209 C202 0.930 . S
H210 C233 0.930 . S
H211 C234 0.929 . S
O212 Tb168 2.465 . S
O212 C232 1.264 . S
O213 Tb168 2.387 . S
O213 C224 1.264 . S
O214 Tb179 2.349 . S
O214 C224 1.243 . S
O215 Tb168 2.428 . S
O215 C232 1.256 . S
O216 Tb168 2.308 . S
O216 C231 1.266 . S
O217 Tb179 2.393 . S
O217 C231 1.248 . S
O218 Tb179 2.465 . S
O218 C243 1.264 . S
O219 Tb179 2.387 . S
O219 C235 1.264 . S
O220 Tb168 2.349 . S
O220 C235 1.243 . S
O221 Tb179 2.428 . S
O221 C243 1.256 . S
O222 Tb179 2.308 . S
O222 C242 1.266 . S
O223 Tb168 2.393 . S
O223 C242 1.248 . S
C224 O213 1.264 . S
C224 O214 1.243 . S
C225 C228 1.399 . S
C225 C230 1.383 . S
C225 C232 1.496 . S
C226 C227 1.399 . S
C226 C230 1.389 . S
C227 C226 1.399 . S
C227 C229 1.380 . S
C227 H244 0.929 . S
C228 C225 1.399 . S
C228 C229 1.392 . S
C228 H245 0.929 . S
C229 C227 1.380 . S
C229 C228 1.392 . S
C229 H246 0.929 . S
C230 C225 1.383 . S
C230 C226 1.389 . S
C230 H247 0.931 . S
C231 O216 1.266 . S
C231 O217 1.248 . S
C232 Tb168 2.802 . S
C232 O212 1.264 . S
C232 O215 1.256 . S
C232 C225 1.496 . S
C233 C200 1.448 . S
C233 H210 0.930 . S
C233 C234 1.328 . S
C234 C205 1.427 . S
C234 H211 0.929 . S
C234 C233 1.328 . S
C235 O219 1.264 . S
C235 O220 1.243 . S
C236 C239 1.399 . S
C236 C240 1.383 . S
C236 C243 1.496 . S
C237 C238 1.399 . S
C237 C240 1.389 . S
C238 C237 1.399 . S
C238 C241 1.380 . S
C238 H248 0.929 . S
C239 C236 1.399 . S
C239 C241 1.392 . S
C239 H249 0.929 . S
C240 C236 1.383 . S
C240 C237 1.389 . S
C240 H250 0.931 . S
C241 C238 1.380 . S
C241 C239 1.392 . S
C241 H251 0.929 . S
C242 O222 1.266 . S
C242 O223 1.248 . S
C243 Tb179 2.802 . S
C243 O218 1.264 . S
C243 O221 1.256 . S
C243 C236 1.496 . S
H244 C227 0.929 . S
H245 C228 0.929 . S
H246 C229 0.929 . S
H247 C230 0.931 . S
H248 C238 0.929 . S
H249 C239 0.929 . S
H250 C240 0.931 . S
H251 C241 0.929 . S
Tb252 N281 2.617 . S
Tb252 N287 2.572 . S
Tb252 O296 2.465 . S
Tb252 O297 2.387 . S
Tb252 O299 2.428 . S
Tb252 O300 2.308 . S
Tb252 O304 2.349 . S
Tb252 O307 2.393 . S
Tb252 C316 2.802 . S
C253 N254 1.379 1_554 S
C253 C256 1.416 . S
C253 C260 1.424 . S
N254 C253 1.379 1_556 S
N254 C257 1.334 . S
N254 Tb263 2.617 . S
C255 C257 1.390 1_554 S
C255 C258 1.339 . S
C255 H275 0.930 . S
C256 C253 1.416 . S
C256 C258 1.416 . S
C256 C262 1.448 . S
C257 N254 1.334 . S
C257 C255 1.390 1_556 S
C257 H268 0.930 . S
C258 C255 1.339 . S
C258 C256 1.416 . S
C258 H279 0.930 . S
C259 C260 1.413 . S
C259 C261 1.427 . S
C259 C265 1.416 . S
C260 C253 1.424 . S
C260 C259 1.413 . S
C260 N264 1.361 1_554 S
C261 C259 1.427 . S
C261 C262 1.328 . S
C261 H276 0.929 . S
C262 C256 1.448 . S
C262 C261 1.328 . S
C262 H277 0.930 . S
Tb263 N254 2.617 . S
Tb263 N264 2.572 . S
Tb263 O298 2.349 . S
Tb263 O301 2.393 . S
Tb263 O302 2.465 . S
Tb263 O303 2.387 . S
Tb263 O305 2.428 . S
Tb263 O306 2.308 . S
Tb263 C327 2.802 . S
N264 C260 1.361 1_556 S
N264 Tb263 2.572 . S
N264 C266 1.340 . S
C265 C259 1.416 . S
C265 C267 1.332 . S
C265 H273 0.931 . S
C266 N264 1.340 . S
C266 C267 1.407 1_556 S
C266 H272 0.930 . S
C267 C265 1.332 . S
C267 C266 1.407 1_554 S
C267 H269 0.929 . S
H268 C257 0.930 . S
H269 C267 0.929 . S
H270 C285 0.930 . S
H271 C292 0.929 . S
H272 C266 0.930 . S
H273 C265 0.931 . S
H274 C288 0.930 . S
H275 C255 0.930 . S
H276 C261 0.929 . S
H277 C262 0.930 . S
H278 C283 0.930 . S
H279 C258 0.930 . S
H280 C291 0.931 . S
N281 Tb252 2.617 . S
N281 C282 1.379 . S
N281 C285 1.334 . S
C282 N281 1.379 . S
C282 C284 1.416 . S
C282 C290 1.424 . S
C283 H278 0.930 . S
C283 C285 1.390 . S
C283 C286 1.339 . S
C284 C282 1.416 . S
C284 C286 1.416 . S
C284 C317 1.448 . S
C285 H270 0.930 . S
C285 N281 1.334 . S
C285 C283 1.390 . S
C286 C283 1.339 . S
C286 C284 1.416 . S
C286 H293 0.930 . S
N287 Tb252 2.572 . S
N287 C288 1.340 . S
N287 C290 1.361 . S
C288 H274 0.930 . S
C288 N287 1.340 . S
C288 C292 1.407 . S
C289 C290 1.413 . S
C289 C291 1.416 . S
C289 C318 1.427 . S
C290 C282 1.424 . S
C290 N287 1.361 . S
C290 C289 1.413 . S
C291 H280 0.931 . S
C291 C289 1.416 . S
C291 C292 1.332 . S
C292 H271 0.929 . S
C292 C288 1.407 . S
C292 C291 1.332 . S
H293 C286 0.930 . S
H294 C317 0.930 . S
H295 C318 0.929 . S
O296 Tb252 2.465 . S
O296 C316 1.264 . S
O297 Tb252 2.387 . S
O297 C308 1.264 . S
O298 Tb263 2.349 . S
O298 C308 1.243 . S
O299 Tb252 2.428 . S
O299 C316 1.256 . S
O300 Tb252 2.308 . S
O300 C315 1.266 . S
O301 Tb263 2.393 . S
O301 C315 1.248 . S
O302 Tb263 2.465 . S
O302 C327 1.264 . S
O303 Tb263 2.387 . S
O303 C319 1.264 . S
O304 Tb252 2.349 . S
O304 C319 1.243 . S
O305 Tb263 2.428 . S
O305 C327 1.256 . S
O306 Tb263 2.308 . S
O306 C326 1.266 . S
O307 Tb252 2.393 . S
O307 C326 1.248 . S
C308 O297 1.264 . S
C308 O298 1.243 . S
C309 C312 1.399 . S
C309 C314 1.383 . S
C309 C316 1.496 . S
C310 C311 1.399 . S
C310 C314 1.389 . S
C311 C310 1.399 . S
C311 C313 1.380 . S
C311 H328 0.929 . S
C312 C309 1.399 . S
C312 C313 1.392 . S
C312 H329 0.929 . S
C313 C311 1.380 . S
C313 C312 1.392 . S
C313 H330 0.929 . S
C314 C309 1.383 . S
C314 C310 1.389 . S
C314 H331 0.931 . S
C315 O300 1.266 . S
C315 O301 1.248 . S
C316 Tb252 2.802 . S
C316 O296 1.264 . S
C316 O299 1.256 . S
C316 C309 1.496 . S
C317 C284 1.448 . S
C317 H294 0.930 . S
C317 C318 1.328 . S
C318 C289 1.427 . S
C318 H295 0.929 . S
C318 C317 1.328 . S
C319 O303 1.264 . S
C319 O304 1.243 . S
C320 C323 1.399 . S
C320 C324 1.383 . S
C320 C327 1.496 . S
C321 C322 1.399 . S
C321 C324 1.389 . S
C322 C321 1.399 . S
C322 C325 1.380 . S
C322 H332 0.929 . S
C323 C320 1.399 . S
C323 C325 1.392 . S
C323 H333 0.929 . S
C324 C320 1.383 . S
C324 C321 1.389 . S
C324 H334 0.931 . S
C325 C322 1.380 . S
C325 C323 1.392 . S
C325 H335 0.925 1_556 S
C326 O306 1.266 . S
C326 O307 1.248 . S
C327 Tb263 2.802 . S
C327 O302 1.264 . S
C327 O305 1.256 . S
C327 C320 1.496 . S
H328 C311 0.929 . S
H329 C312 0.929 . S
H330 C313 0.929 . S
H331 C314 0.931 . S
H332 C322 0.929 . S
H333 C323 0.929 . S
H334 C324 0.931 . S
H335 C325 0.925 1_554 S
Tb336 N365 2.617 . S
Tb336 N371 2.572 . S
Tb336 O380 2.465 . S
Tb336 O381 2.387 . S
Tb336 O383 2.428 . S
Tb336 O384 2.308 . S
Tb336 O388 2.349 . S
Tb336 O391 2.393 1_455 S
Tb336 C400 2.802 . S
C337 N338 1.379 1_655 S
C337 C340 1.416 . S
C337 C344 1.424 . S
N338 C337 1.379 1_455 S
N338 C341 1.334 . S
N338 Tb347 2.609 1_455 S
C339 C341 1.390 . S
C339 C342 1.339 . S
C339 H359 0.930 . S
C340 C337 1.416 . S
C340 C342 1.416 1_655 S
C340 C346 1.448 . S
C341 N338 1.334 . S
C341 C339 1.390 . S
C341 H352 0.930 . S
C342 C339 1.339 . S
C342 C340 1.416 1_455 S
C342 H363 0.930 . S
C343 C344 1.413 . S
C343 C345 1.427 . S
C343 C349 1.416 . S
C344 C337 1.424 . S
C344 C343 1.413 . S
C344 N348 1.361 . S
C345 C343 1.427 . S
C345 C346 1.328 . S
C345 H360 0.929 . S
C346 C340 1.448 . S
C346 C345 1.328 . S
C346 H361 0.930 . S
Tb347 N338 2.609 1_655 S
Tb347 N348 2.587 . S
Tb347 O382 2.349 1_655 S
Tb347 O385 2.365 1_655 S
Tb347 O386 2.494 . S
Tb347 O387 2.370 1_655 S
Tb347 O389 2.440 . S
Tb347 O390 2.318 . S
Tb347 C411 2.825 . S
N348 C344 1.361 . S
N348 Tb347 2.587 . S
N348 C350 1.340 . S
C349 C343 1.416 . S
C349 C351 1.332 . S
C349 H357 0.931 . S
C350 N348 1.340 . S
C350 C351 1.407 . S
C350 H356 0.930 . S
C351 C349 1.332 . S
C351 C350 1.407 . S
C351 H353 0.929 . S
H352 C341 0.930 . S
H353 C351 0.929 . S
H354 C369 0.930 . S
H355 C376 0.929 . S
H356 C350 0.930 . S
H357 C349 0.931 . S
H358 C372 0.930 . S
H359 C339 0.930 . S
H360 C345 0.929 . S
H361 C346 0.930 . S
H362 C367 0.930 1_655 S
H363 C342 0.930 . S
H364 C375 0.931 . S
N365 Tb336 2.617 . S
N365 C366 1.379 . S
N365 C369 1.334 . S
C366 N365 1.379 . S
C366 C368 1.416 . S
C366 C374 1.424 . S
C367 H362 0.930 1_455 S
C367 C369 1.390 . S
C367 C370 1.339 . S
C368 C366 1.416 . S
C368 C370 1.416 . S
C368 C401 1.448 . S
C369 H354 0.930 . S
C369 N365 1.334 . S
C369 C367 1.390 . S
C370 C367 1.339 . S
C370 C368 1.416 . S
C370 H377 0.930 . S
N371 Tb336 2.572 . S
N371 C372 1.340 . S
N371 C374 1.361 . S
C372 H358 0.930 . S
C372 N371 1.340 . S
C372 C376 1.407 . S
C373 C374 1.413 . S
C373 C375 1.416 . S
C373 C402 1.427 . S
C374 C366 1.424 . S
C374 N371 1.361 . S
C374 C373 1.413 . S
C375 H364 0.931 . S
C375 C373 1.416 . S
C375 C376 1.332 . S
C376 H355 0.929 . S
C376 C372 1.407 . S
C376 C375 1.332 . S
H377 C370 0.930 . S
H378 C401 0.930 . S
H379 C402 0.929 . S
O380 Tb336 2.465 . S
O380 C400 1.264 . S
O381 Tb336 2.387 . S
O381 C392 1.264 . S
O382 Tb347 2.349 1_455 S
O382 C392 1.243 . S
O383 Tb336 2.428 . S
O383 C400 1.256 . S
O384 Tb336 2.308 . S
O384 C399 1.266 . S
O385 Tb347 2.365 1_455 S
O385 C399 1.248 . S
O386 Tb347 2.494 . S
O386 C411 1.264 . S
O387 Tb347 2.370 1_455 S
O387 C403 1.264 . S
O388 Tb336 2.349 . S
O388 C403 1.243 . S
O389 Tb347 2.440 . S
O389 C411 1.256 . S
O390 Tb347 2.318 . S
O390 C410 1.266 . S
O391 Tb336 2.393 1_655 S
O391 C410 1.248 . S
C392 O381 1.264 . S
C392 O382 1.243 . S
C393 C396 1.399 . S
C393 C398 1.383 . S
C393 C400 1.496 . S
C394 C395 1.399 . S
C394 C398 1.389 . S
C395 C394 1.399 . S
C395 C397 1.380 . S
C395 H412 0.929 . S
C396 C393 1.399 . S
C396 C397 1.392 . S
C396 H413 0.929 . S
C397 C395 1.380 . S
C397 C396 1.392 . S
C397 H414 0.929 . S
C398 C393 1.383 . S
C398 C394 1.389 . S
C398 H415 0.931 . S
C399 O384 1.266 . S
C399 O385 1.248 . S
C400 Tb336 2.802 . S
C400 O380 1.264 . S
C400 O383 1.256 . S
C400 C393 1.496 . S
C401 C368 1.448 . S
C401 H378 0.930 . S
C401 C402 1.328 . S
C402 C373 1.427 . S
C402 H379 0.929 . S
C402 C401 1.328 . S
C403 O387 1.264 . S
C403 O388 1.243 . S
C404 C407 1.399 . S
C404 C408 1.383 . S
C404 C411 1.496 . S
C405 C406 1.399 . S
C405 C408 1.389 . S
C406 C405 1.399 . S
C406 C409 1.380 . S
C406 H416 0.929 . S
C407 C404 1.399 . S
C407 C409 1.392 . S
C407 H417 0.929 . S
C408 C404 1.383 . S
C408 C405 1.389 . S
C408 H418 0.931 . S
C409 C406 1.380 . S
C409 C407 1.392 . S
C409 H419 0.929 . S
C410 O390 1.266 . S
C410 O391 1.248 . S
C411 Tb347 2.825 . S
C411 O386 1.264 . S
C411 O389 1.256 . S
C411 C404 1.496 . S
H412 C395 0.929 . S
H413 C396 0.929 . S
H414 C397 0.929 . S
H415 C398 0.931 . S
H416 C406 0.929 . S
H417 C407 0.929 . S
H418 C408 0.931 . S
H419 C409 0.929 . S
Tb420 N449 2.617 . S
Tb420 N455 2.572 . S
Tb420 O464 2.465 . S
Tb420 O465 2.387 . S
Tb420 O467 2.428 . S
Tb420 O468 2.308 . S
Tb420 O472 2.349 . S
Tb420 O475 2.393 . S
Tb420 C484 2.802 . S
C421 N422 1.379 . S
C421 C424 1.416 1_554 S
C421 C428 1.424 . S
N422 C421 1.379 . S
N422 C425 1.334 . S
N422 Tb431 2.617 . S
C423 C425 1.390 . S
C423 C426 1.339 1_554 S
C423 H443 0.930 . S
C424 C421 1.416 1_556 S
C424 C426 1.416 . S
C424 C430 1.448 . S
C425 N422 1.334 . S
C425 C423 1.390 . S
C425 H436 0.930 . S
C426 C423 1.339 1_556 S
C426 C424 1.416 . S
C426 H447 0.930 . S
C427 C428 1.413 1_556 S
C427 C429 1.427 . S
C427 C433 1.416 . S
C428 C421 1.424 . S
C428 C427 1.413 1_554 S
C428 N432 1.361 . S
C429 C427 1.427 . S
C429 C430 1.328 . S
C429 H444 0.929 . S
C430 C424 1.448 . S
C430 C429 1.328 . S
C430 H445 0.930 . S
Tb431 N422 2.617 . S
Tb431 N432 2.572 . S
Tb431 O466 2.349 . S
Tb431 O469 2.393 . S
Tb431 O470 2.465 . S
Tb431 O471 2.387 . S
Tb431 O473 2.428 . S
Tb431 O474 2.308 . S
Tb431 C495 2.802 . S
N432 C428 1.361 . S
N432 Tb431 2.572 . S
N432 C434 1.340 . S
C433 C427 1.416 . S
C433 C435 1.332 1_556 S
C433 H441 0.931 . S
C434 N432 1.340 . S
C434 C435 1.407 . S
C434 H440 0.930 . S
C435 C433 1.332 1_554 S
C435 C434 1.407 . S
C435 H437 0.929 . S
H436 C425 0.930 . S
H437 C435 0.929 . S
H438 C453 0.930 . S
H439 C460 0.929 . S
H440 C434 0.930 . S
H441 C433 0.931 . S
H442 C456 0.930 . S
H443 C423 0.930 . S
H444 C429 0.929 . S
H445 C430 0.930 . S
H446 C451 0.930 . S
H447 C426 0.930 . S
H448 C459 0.931 . S
N449 Tb420 2.617 . S
N449 C450 1.379 . S
N449 C453 1.334 . S
C450 N449 1.379 . S
C450 C452 1.416 . S
C450 C458 1.424 . S
C451 H446 0.930 . S
C451 C453 1.390 . S
C451 C454 1.339 . S
C452 C450 1.416 . S
C452 C454 1.416 . S
C452 C485 1.448 . S
C453 H438 0.930 . S
C453 N449 1.334 . S
C453 C451 1.390 . S
C454 C451 1.339 . S
C454 C452 1.416 . S
C454 H461 0.930 . S
N455 Tb420 2.572 . S
N455 C456 1.340 . S
N455 C458 1.361 . S
C456 H442 0.930 . S
C456 N455 1.340 . S
C456 C460 1.407 . S
C457 C458 1.413 . S
C457 C459 1.416 . S
C457 C486 1.427 . S
C458 C450 1.424 . S
C458 N455 1.361 . S
C458 C457 1.413 . S
C459 H448 0.931 . S
C459 C457 1.416 . S
C459 C460 1.332 . S
C460 H439 0.929 . S
C460 C456 1.407 . S
C460 C459 1.332 . S
H461 C454 0.930 . S
H462 C485 0.930 . S
H463 C486 0.929 . S
O464 Tb420 2.465 . S
O464 C484 1.264 . S
O465 Tb420 2.387 . S
O465 C476 1.264 . S
O466 Tb431 2.349 . S
O466 C476 1.243 . S
O467 Tb420 2.428 . S
O467 C484 1.256 . S
O468 Tb420 2.308 . S
O468 C483 1.266 . S
O469 Tb431 2.393 . S
O469 C483 1.248 . S
O470 Tb431 2.465 . S
O470 C495 1.264 . S
O471 Tb431 2.387 . S
O471 C487 1.264 . S
O472 Tb420 2.349 . S
O472 C487 1.243 . S
O473 Tb431 2.428 . S
O473 C495 1.256 . S
O474 Tb431 2.308 . S
O474 C494 1.266 . S
O475 Tb420 2.393 . S
O475 C494 1.248 . S
C476 O465 1.264 . S
C476 O466 1.243 . S
C477 C480 1.399 . S
C477 C482 1.383 . S
C477 C484 1.496 . S
C478 C479 1.399 . S
C478 C482 1.389 . S
C479 C478 1.399 . S
C479 C481 1.380 . S
C479 H496 0.929 . S
C480 C477 1.399 . S
C480 C481 1.392 . S
C480 H497 0.929 . S
C481 C479 1.380 . S
C481 C480 1.392 . S
C481 H498 0.929 . S
C482 C477 1.383 . S
C482 C478 1.389 . S
C482 H499 0.931 . S
C483 O468 1.266 . S
C483 O469 1.248 . S
C484 Tb420 2.802 . S
C484 O464 1.264 . S
C484 O467 1.256 . S
C484 C477 1.496 . S
C485 C452 1.448 . S
C485 H462 0.930 . S
C485 C486 1.328 . S
C486 C457 1.427 . S
C486 H463 0.929 . S
C486 C485 1.328 . S
C487 O471 1.264 . S
C487 O472 1.243 . S
C488 C491 1.399 . S
C488 C492 1.383 . S
C488 C495 1.496 1_545 S
C489 C490 1.399 . S
C489 C492 1.389 . S
C490 C489 1.399 . S
C490 C493 1.380 . S
C490 H500 0.929 . S
C491 C488 1.399 . S
C491 C493 1.392 . S
C491 H501 0.929 . S
C492 C488 1.383 . S
C492 C489 1.389 . S
C492 H502 0.931 . S
C493 C490 1.380 . S
C493 C491 1.392 . S
C493 H503 0.929 . S
C494 O474 1.266 . S
C494 O475 1.248 . S
C495 Tb431 2.802 . S
C495 O470 1.264 . S
C495 O473 1.256 . S
C495 C488 1.496 1_565 S
H496 C479 0.929 . S
H497 C480 0.929 . S
H498 C481 0.929 . S
H499 C482 0.931 . S
H500 C490 0.929 . S
H501 C491 0.929 . S
H502 C492 0.931 . S
H503 C493 0.929 . S
Tb504 N533 2.617 . S
Tb504 N539 2.572 . S
Tb504 O548 2.465 . S
Tb504 O549 2.387 . S
Tb504 O551 2.428 . S
Tb504 O552 2.308 . S
Tb504 O556 2.349 . S
Tb504 O559 2.393 . S
Tb504 C568 2.802 . S
C505 N506 1.379 . S
C505 C508 1.416 . S
C505 C512 1.424 . S
N506 C505 1.379 . S
N506 C509 1.334 . S
N506 Tb515 2.617 . S
C507 C509 1.390 . S
C507 C510 1.339 . S
C507 H527 0.930 . S
C508 C505 1.416 . S
C508 C510 1.416 . S
C508 C514 1.448 . S
C509 N506 1.334 . S
C509 C507 1.390 . S
C509 H520 0.930 . S
C510 C507 1.339 . S
C510 C508 1.416 . S
C510 H531 0.930 . S
C511 C512 1.413 . S
C511 C513 1.427 . S
C511 C517 1.416 . S
C512 C505 1.424 . S
C512 C511 1.413 . S
C512 N516 1.361 . S
C513 C511 1.427 . S
C513 C514 1.328 . S
C513 H528 0.929 . S
C514 C508 1.448 . S
C514 C513 1.328 . S
C514 H529 0.930 . S
Tb515 N506 2.617 . S
Tb515 N516 2.572 . S
Tb515 O550 2.349 . S
Tb515 O553 2.393 . S
Tb515 O554 2.465 . S
Tb515 O555 2.387 . S
Tb515 O557 2.428 . S
Tb515 O558 2.308 . S
Tb515 C579 2.802 . S
N516 C512 1.361 . S
N516 Tb515 2.572 . S
N516 C518 1.340 . S
C517 C511 1.416 . S
C517 C519 1.332 . S
C517 H525 0.931 . S
C518 N516 1.340 . S
C518 C519 1.407 . S
C518 H524 0.930 . S
C519 C517 1.332 . S
C519 C518 1.407 . S
C519 H521 0.929 . S
H520 C509 0.930 . S
H521 C519 0.929 . S
H522 C537 0.930 . S
H523 C544 0.929 . S
H524 C518 0.930 . S
H525 C517 0.931 . S
H526 C540 0.930 . S
H527 C507 0.930 . S
H528 C513 0.929 . S
H529 C514 0.930 . S
H530 C535 0.930 . S
H531 C510 0.930 . S
H532 C543 0.931 . S
N533 Tb504 2.617 . S
N533 C534 1.379 . S
N533 C537 1.334 . S
C534 N533 1.379 . S
C534 C536 1.416 . S
C534 C542 1.424 . S
C535 H530 0.930 . S
C535 C537 1.390 . S
C535 C538 1.339 . S
C536 C534 1.416 . S
C536 C538 1.416 . S
C536 C569 1.448 . S
C537 H522 0.930 . S
C537 N533 1.334 . S
C537 C535 1.390 . S
C538 C535 1.339 . S
C538 C536 1.416 . S
C538 H545 0.930 . S
N539 Tb504 2.572 . S
N539 C540 1.340 . S
N539 C542 1.361 . S
C540 H526 0.930 . S
C540 N539 1.340 . S
C540 C544 1.407 . S
C541 C542 1.413 . S
C541 C543 1.416 . S
C541 C570 1.427 . S
C542 C534 1.424 . S
C542 N539 1.361 . S
C542 C541 1.413 . S
C543 H532 0.931 . S
C543 C541 1.416 . S
C543 C544 1.332 . S
C544 H523 0.929 . S
C544 C540 1.407 . S
C544 C543 1.332 . S
H545 C538 0.930 . S
H546 C569 0.930 . S
H547 C570 0.929 . S
O548 Tb504 2.465 . S
O548 C568 1.264 . S
O549 Tb504 2.387 . S
O549 C560 1.264 . S
O550 Tb515 2.349 . S
O550 C560 1.243 . S
O551 Tb504 2.428 . S
O551 C568 1.256 . S
O552 Tb504 2.308 . S
O552 C567 1.266 . S
O553 Tb515 2.393 . S
O553 C567 1.248 . S
O554 Tb515 2.465 . S
O554 C579 1.264 . S
O555 Tb515 2.387 . S
O555 C571 1.264 . S
O556 Tb504 2.349 . S
O556 C571 1.243 . S
O557 Tb515 2.428 . S
O557 C579 1.256 . S
O558 Tb515 2.308 . S
O558 C578 1.266 . S
O559 Tb504 2.393 . S
O559 C578 1.248 . S
C560 O549 1.264 . S
C560 O550 1.243 . S
C561 C564 1.399 . S
C561 C566 1.383 . S
C561 C568 1.496 . S
C562 C563 1.399 . S
C562 C566 1.389 . S
C563 C562 1.399 . S
C563 C565 1.380 . S
C563 H580 0.929 . S
C564 C561 1.399 . S
C564 C565 1.392 . S
C564 H581 0.929 . S
C565 C563 1.380 . S
C565 C564 1.392 . S
C565 H582 0.929 . S
C566 C561 1.383 . S
C566 C562 1.389 . S
C566 H583 0.931 . S
C567 O552 1.266 . S
C567 O553 1.248 . S
C568 Tb504 2.802 . S
C568 O548 1.264 . S
C568 O551 1.256 . S
C568 C561 1.496 . S
C569 C536 1.448 . S
C569 H546 0.930 . S
C569 C570 1.328 . S
C570 C541 1.427 . S
C570 H547 0.929 . S
C570 C569 1.328 . S
C571 O555 1.264 . S
C571 O556 1.243 . S
C572 C575 1.399 . S
C572 C576 1.383 . S
C572 C579 1.496 . S
C573 C574 1.399 . S
C573 C576 1.389 . S
C574 C573 1.399 . S
C574 C577 1.380 . S
C574 H584 0.929 . S
C575 C572 1.399 . S
C575 C577 1.392 . S
C575 H585 0.929 . S
C576 C572 1.383 . S
C576 C573 1.389 . S
C576 H586 0.931 . S
C577 C574 1.380 . S
C577 C575 1.392 . S
C577 H587 0.929 . S
C578 O558 1.266 . S
C578 O559 1.248 . S
C579 Tb515 2.802 . S
C579 O554 1.264 . S
C579 O557 1.256 . S
C579 C572 1.496 . S
H580 C563 0.929 . S
H581 C564 0.929 . S
H582 C565 0.929 . S
H583 C566 0.931 . S
H584 C574 0.929 . S
H585 C575 0.929 . S
H586 C576 0.931 . S
H587 C577 0.929 . S
Tb588 N617 2.617 . S
Tb588 N623 2.572 . S
Tb588 O632 2.465 . S
Tb588 O633 2.387 . S
Tb588 O635 2.428 . S
Tb588 O636 2.308 . S
Tb588 O640 2.349 . S
Tb588 O643 2.393 . S
Tb588 C652 2.802 . S
C589 N590 1.379 . S
C589 C592 1.416 . S
C589 C596 1.424 . S
N590 C589 1.379 . S
N590 C593 1.334 . S
N590 Tb599 2.617 . S
C591 C593 1.390 . S
C591 C594 1.339 . S
C591 H611 0.930 . S
C592 C589 1.416 . S
C592 C594 1.416 . S
C592 C598 1.448 . S
C593 N590 1.334 . S
C593 C591 1.390 . S
C593 H604 0.930 . S
C594 C591 1.339 . S
C594 C592 1.416 . S
C594 H615 0.930 . S
C595 C596 1.413 . S
C595 C597 1.427 . S
C595 C601 1.416 . S
C596 C589 1.424 . S
C596 C595 1.413 . S
C596 N600 1.361 . S
C597 C595 1.427 . S
C597 C598 1.328 . S
C597 H612 0.929 . S
C598 C592 1.448 . S
C598 C597 1.328 . S
C598 H613 0.930 . S
Tb599 N590 2.617 . S
Tb599 N600 2.572 . S
Tb599 O634 2.349 . S
Tb599 O637 2.393 . S
Tb599 O638 2.465 . S
Tb599 O639 2.387 . S
Tb599 O641 2.428 . S
Tb599 O642 2.308 . S
Tb599 C663 2.802 . S
N600 C596 1.361 . S
N600 Tb599 2.572 . S
N600 C602 1.340 . S
C601 C595 1.416 . S
C601 C603 1.332 . S
C601 H609 0.931 . S
C602 N600 1.340 . S
C602 C603 1.407 . S
C602 H608 0.930 . S
C603 C601 1.332 . S
C603 C602 1.407 . S
C603 H605 0.929 . S
H604 C593 0.930 . S
H605 C603 0.929 . S
H606 C621 0.930 . S
H607 C628 0.929 . S
H608 C602 0.930 . S
H609 C601 0.931 . S
H610 C624 0.930 . S
H611 C591 0.930 . S
H612 C597 0.929 . S
H613 C598 0.930 . S
H614 C619 0.930 . S
H615 C594 0.930 . S
H616 C627 0.931 . S
N617 Tb588 2.617 . S
N617 C618 1.379 . S
N617 C621 1.334 . S
C618 N617 1.379 . S
C618 C620 1.416 . S
C618 C626 1.424 . S
C619 H614 0.930 . S
C619 C621 1.390 . S
C619 C622 1.339 . S
C620 C618 1.416 . S
C620 C622 1.416 . S
C620 C653 1.448 . S
C621 H606 0.930 . S
C621 N617 1.334 . S
C621 C619 1.390 . S
C622 C619 1.339 . S
C622 C620 1.416 . S
C622 H629 0.930 . S
N623 Tb588 2.572 . S
N623 C624 1.340 . S
N623 C626 1.361 . S
C624 H610 0.930 . S
C624 N623 1.340 . S
C624 C628 1.407 . S
C625 C626 1.413 . S
C625 C627 1.416 . S
C625 C654 1.427 . S
C626 C618 1.424 . S
C626 N623 1.361 . S
C626 C625 1.413 . S
C627 H616 0.931 . S
C627 C625 1.416 . S
C627 C628 1.332 . S
C628 H607 0.929 . S
C628 C624 1.407 . S
C628 C627 1.332 . S
H629 C622 0.930 . S
H630 C653 0.930 . S
H631 C654 0.929 . S
O632 Tb588 2.465 . S
O632 C652 1.264 . S
O633 Tb588 2.387 . S
O633 C644 1.264 . S
O634 Tb599 2.349 . S
O634 C644 1.243 . S
O635 Tb588 2.428 . S
O635 C652 1.256 . S
O636 Tb588 2.308 . S
O636 C651 1.266 . S
O637 Tb599 2.393 . S
O637 C651 1.248 . S
O638 Tb599 2.465 . S
O638 C663 1.264 . S
O639 Tb599 2.387 . S
O639 C655 1.264 . S
O640 Tb588 2.349 . S
O640 C655 1.243 . S
O641 Tb599 2.428 . S
O641 C663 1.256 . S
O642 Tb599 2.308 . S
O642 C662 1.266 . S
O643 Tb588 2.393 . S
O643 C662 1.248 . S
C644 O633 1.264 . S
C644 O634 1.243 . S
C645 C648 1.399 . S
C645 C650 1.383 . S
C645 C652 1.496 . S
C646 C647 1.399 . S
C646 C650 1.389 . S
C647 C646 1.399 . S
C647 C649 1.380 . S
C647 H664 0.929 . S
C648 C645 1.399 . S
C648 C649 1.392 . S
C648 H665 0.929 . S
C649 C647 1.380 . S
C649 C648 1.392 . S
C649 H666 0.929 . S
C650 C645 1.383 . S
C650 C646 1.389 . S
C650 H667 0.931 . S
C651 O636 1.266 . S
C651 O637 1.248 . S
C652 Tb588 2.802 . S
C652 O632 1.264 . S
C652 O635 1.256 . S
C652 C645 1.496 . S
C653 C620 1.448 . S
C653 H630 0.930 . S
C653 C654 1.328 . S
C654 C625 1.427 . S
C654 H631 0.929 . S
C654 C653 1.328 . S
C655 O639 1.264 . S
C655 O640 1.243 . S
C656 C659 1.399 . S
C656 C660 1.383 . S
C656 C663 1.496 . S
C657 C658 1.399 . S
C657 C660 1.389 . S
C658 C657 1.399 . S
C658 C661 1.380 . S
C658 H668 0.929 . S
C659 C656 1.399 . S
C659 C661 1.392 . S
C659 H669 0.929 . S
C660 C656 1.383 . S
C660 C657 1.389 . S
C660 H670 0.931 . S
C661 C658 1.380 . S
C661 C659 1.392 . S
C661 H671 0.929 . S
C662 O642 1.266 . S
C662 O643 1.248 . S
C663 Tb599 2.802 . S
C663 O638 1.264 . S
C663 O641 1.256 . S
C663 C656 1.496 . S
H664 C647 0.929 . S
H665 C648 0.929 . S
H666 C649 0.929 . S
H667 C650 0.931 . S
H668 C658 0.929 . S
H669 C659 0.929 . S
H670 C660 0.931 . S
H671 C661 0.929 . S
Tb672 N701 2.617 . S
Tb672 N707 2.572 . S
Tb672 O716 2.465 . S
Tb672 O717 2.387 . S
Tb672 O719 2.428 . S
Tb672 O720 2.308 . S
Tb672 O724 2.349 . S
Tb672 O727 2.393 . S
Tb672 C736 2.802 . S
C673 N674 1.379 . S
C673 C676 1.416 . S
C673 C680 1.424 . S
N674 C673 1.379 . S
N674 C677 1.334 . S
N674 Tb683 2.617 . S
C675 C677 1.390 . S
C675 C678 1.339 . S
C675 H695 0.930 . S
C676 C673 1.416 . S
C676 C678 1.416 . S
C676 C682 1.448 . S
C677 N674 1.334 . S
C677 C675 1.390 . S
C677 H688 0.930 . S
C678 C675 1.339 . S
C678 C676 1.416 . S
C678 H699 0.930 . S
C679 C680 1.413 . S
C679 C681 1.427 . S
C679 C685 1.416 . S
C680 C673 1.424 . S
C680 C679 1.413 . S
C680 N684 1.361 . S
C681 C679 1.427 . S
C681 C682 1.328 . S
C681 H696 0.929 . S
C682 C676 1.448 . S
C682 C681 1.328 . S
C682 H697 0.930 . S
Tb683 N674 2.617 . S
Tb683 N684 2.572 . S
Tb683 O718 2.349 . S
Tb683 O721 2.393 . S
Tb683 O722 2.465 . S
Tb683 O723 2.387 . S
Tb683 O725 2.428 . S
Tb683 O726 2.308 . S
Tb683 C747 2.802 . S
N684 C680 1.361 . S
N684 Tb683 2.572 . S
N684 C686 1.340 . S
C685 C679 1.416 . S
C685 C687 1.332 . S
C685 H693 0.931 . S
C686 N684 1.340 . S
C686 C687 1.407 . S
C686 H692 0.930 . S
C687 C685 1.332 . S
C687 C686 1.407 . S
C687 H689 0.929 . S
H688 C677 0.930 . S
H689 C687 0.929 . S
H690 C705 0.930 . S
H691 C712 0.929 . S
H692 C686 0.930 . S
H693 C685 0.931 . S
H694 C708 0.930 . S
H695 C675 0.930 . S
H696 C681 0.929 . S
H697 C682 0.930 . S
H698 C703 0.930 . S
H699 C678 0.930 . S
H700 C711 0.931 . S
N701 Tb672 2.617 . S
N701 C702 1.379 . S
N701 C705 1.334 . S
C702 N701 1.379 . S
C702 C704 1.416 . S
C702 C710 1.424 . S
C703 H698 0.930 . S
C703 C705 1.390 . S
C703 C706 1.339 . S
C704 C702 1.416 . S
C704 C706 1.416 . S
C704 C737 1.448 . S
C705 H690 0.930 . S
C705 N701 1.334 . S
C705 C703 1.390 . S
C706 C703 1.339 . S
C706 C704 1.416 . S
C706 H713 0.930 . S
N707 Tb672 2.572 . S
N707 C708 1.340 . S
N707 C710 1.361 . S
C708 H694 0.930 . S
C708 N707 1.340 . S
C708 C712 1.407 . S
C709 C710 1.413 . S
C709 C711 1.416 . S
C709 C738 1.427 . S
C710 C702 1.424 . S
C710 N707 1.361 . S
C710 C709 1.413 . S
C711 H700 0.931 . S
C711 C709 1.416 . S
C711 C712 1.332 . S
C712 H691 0.929 . S
C712 C708 1.407 . S
C712 C711 1.332 . S
H713 C706 0.930 . S
H714 C737 0.930 . S
H715 C738 0.929 . S
O716 Tb672 2.465 . S
O716 C736 1.264 . S
O717 Tb672 2.387 . S
O717 C728 1.264 . S
O718 Tb683 2.349 . S
O718 C728 1.243 . S
O719 Tb672 2.428 . S
O719 C736 1.256 . S
O720 Tb672 2.308 . S
O720 C735 1.266 . S
O721 Tb683 2.393 . S
O721 C735 1.248 . S
O722 Tb683 2.465 . S
O722 C747 1.264 . S
O723 Tb683 2.387 . S
O723 C739 1.264 . S
O724 Tb672 2.349 . S
O724 C739 1.243 . S
O725 Tb683 2.428 . S
O725 C747 1.256 . S
O726 Tb683 2.308 . S
O726 C746 1.266 . S
O727 Tb672 2.393 . S
O727 C746 1.248 . S
C728 O717 1.264 . S
C728 O718 1.243 . S
C729 C732 1.399 . S
C729 C734 1.383 . S
C729 C736 1.496 . S
C730 C731 1.399 . S
C730 C734 1.389 . S
C731 C730 1.399 . S
C731 C733 1.380 . S
C731 H748 0.929 . S
C732 C729 1.399 . S
C732 C733 1.392 . S
C732 H749 0.929 . S
C733 C731 1.380 . S
C733 C732 1.392 . S
C733 H750 0.929 . S
C734 C729 1.383 . S
C734 C730 1.389 . S
C734 H751 0.931 . S
C735 O720 1.266 . S
C735 O721 1.248 . S
C736 Tb672 2.802 . S
C736 O716 1.264 . S
C736 O719 1.256 . S
C736 C729 1.496 . S
C737 C704 1.448 . S
C737 H714 0.930 . S
C737 C738 1.328 . S
C738 C709 1.427 . S
C738 H715 0.929 . S
C738 C737 1.328 . S
C739 O723 1.264 . S
C739 O724 1.243 . S
C740 C743 1.399 . S
C740 C744 1.383 . S
C740 C747 1.496 . S
C741 C742 1.399 . S
C741 C744 1.389 . S
C742 C741 1.399 . S
C742 C745 1.380 . S
C742 H752 0.929 . S
C743 C740 1.399 . S
C743 C745 1.392 . S
C743 H753 0.929 . S
C744 C740 1.383 . S
C744 C741 1.389 . S
C744 H754 0.931 . S
C745 C742 1.380 . S
C745 C743 1.392 . S
C745 H755 0.929 . S
C746 O726 1.266 . S
C746 O727 1.248 . S
C747 Tb683 2.802 . S
C747 O722 1.264 . S
C747 O725 1.256 . S
C747 C740 1.496 . S
H748 C731 0.929 . S
H749 C732 0.929 . S
H750 C733 0.929 . S
H751 C734 0.931 . S
H752 C742 0.929 . S
H753 C743 0.929 . S
H754 C744 0.931 . S
H755 C745 0.929 . S
Tb756 N785 2.617 . S
Tb756 N791 2.572 . S
Tb756 O800 2.465 . S
Tb756 O801 2.387 . S
Tb756 O803 2.428 . S
Tb756 O804 2.308 . S
Tb756 O808 2.349 . S
Tb756 O811 2.393 . S
Tb756 C820 2.802 . S
C757 N758 1.379 . S
C757 C760 1.416 . S
C757 C764 1.424 . S
N758 C757 1.379 . S
N758 C761 1.334 . S
N758 Tb767 2.617 . S
C759 C761 1.390 . S
C759 C762 1.339 . S
C759 H779 0.930 . S
C760 C757 1.416 . S
C760 C762 1.416 . S
C760 C766 1.448 . S
C761 N758 1.334 . S
C761 C759 1.390 . S
C761 H772 0.930 . S
C762 C759 1.339 . S
C762 C760 1.416 . S
C762 H783 0.930 . S
C763 C764 1.413 . S
C763 C765 1.427 . S
C763 C769 1.416 . S
C764 C757 1.424 . S
C764 C763 1.413 . S
C764 N768 1.361 . S
C765 C763 1.427 . S
C765 C766 1.328 . S
C765 H780 0.929 . S
C766 C760 1.448 . S
C766 C765 1.328 . S
C766 H781 0.930 . S
Tb767 N758 2.617 . S
Tb767 N768 2.572 . S
Tb767 O802 2.349 . S
Tb767 O805 2.393 . S
Tb767 O806 2.465 . S
Tb767 O807 2.387 . S
Tb767 O809 2.428 . S
Tb767 O810 2.308 . S
Tb767 C831 2.802 . S
N768 C764 1.361 . S
N768 Tb767 2.572 . S
N768 C770 1.340 . S
C769 C763 1.416 . S
C769 C771 1.332 . S
C769 H777 0.931 . S
C770 N768 1.340 . S
C770 C771 1.407 . S
C770 H776 0.930 . S
C771 C769 1.332 . S
C771 C770 1.407 . S
C771 H773 0.929 . S
H772 C761 0.930 . S
H773 C771 0.929 . S
H774 C789 0.930 . S
H775 C796 0.929 . S
H776 C770 0.930 . S
H777 C769 0.931 . S
H778 C792 0.930 . S
H779 C759 0.930 . S
H780 C765 0.929 . S
H781 C766 0.930 . S
H782 C787 0.930 . S
H783 C762 0.930 . S
H784 C795 0.931 . S
N785 Tb756 2.617 . S
N785 C786 1.379 . S
N785 C789 1.334 . S
C786 N785 1.379 . S
C786 C788 1.416 1_554 S
C786 C794 1.424 . S
C787 H782 0.930 . S
C787 C789 1.390 . S
C787 C790 1.339 1_554 S
C788 C786 1.416 1_556 S
C788 C790 1.416 . S
C788 C821 1.448 . S
C789 H774 0.930 . S
C789 N785 1.334 . S
C789 C787 1.390 . S
C790 C787 1.339 1_556 S
C790 C788 1.416 . S
C790 H797 0.930 . S
N791 Tb756 2.572 . S
N791 C792 1.340 . S
N791 C794 1.361 . S
C792 H778 0.930 . S
C792 N791 1.340 . S
C792 C796 1.407 . S
C793 C794 1.413 1_556 S
C793 C795 1.416 . S
C793 C822 1.427 . S
C794 C786 1.424 . S
C794 N791 1.361 . S
C794 C793 1.413 1_554 S
C795 H784 0.931 . S
C795 C793 1.416 . S
C795 C796 1.332 1_556 S
C796 H775 0.929 . S
C796 C792 1.407 . S
C796 C795 1.332 1_554 S
H797 C790 0.930 . S
H798 C821 0.930 . S
H799 C822 0.929 . S
O800 Tb756 2.465 . S
O800 C820 1.264 . S
O801 Tb756 2.387 . S
O801 C812 1.264 . S
O802 Tb767 2.349 . S
O802 C812 1.243 . S
O803 Tb756 2.428 . S
O803 C820 1.256 . S
O804 Tb756 2.308 . S
O804 C819 1.266 . S
O805 Tb767 2.393 . S
O805 C819 1.248 . S
O806 Tb767 2.465 . S
O806 C831 1.264 . S
O807 Tb767 2.387 . S
O807 C823 1.264 . S
O808 Tb756 2.349 . S
O808 C823 1.243 . S
O809 Tb767 2.428 . S
O809 C831 1.256 . S
O810 Tb767 2.308 . S
O810 C830 1.266 . S
O811 Tb756 2.393 . S
O811 C830 1.248 . S
C812 O801 1.264 . S
C812 O802 1.243 . S
C813 C816 1.399 . S
C813 C818 1.383 . S
C813 C820 1.496 . S
C814 C815 1.399 . S
C814 C818 1.389 1_545 S
C815 C814 1.399 . S
C815 C817 1.380 1_545 S
C815 H832 0.929 . S
C816 C813 1.399 . S
C816 C817 1.392 . S
C816 H833 0.929 . S
C817 C815 1.380 1_565 S
C817 C816 1.392 . S
C817 H834 0.929 1_565 S
C818 C813 1.383 . S
C818 C814 1.389 1_565 S
C818 H835 0.931 . S
C819 O804 1.266 . S
C819 O805 1.248 . S
C820 Tb756 2.802 . S
C820 O800 1.264 . S
C820 O803 1.256 . S
C820 C813 1.496 . S
C821 C788 1.448 . S
C821 H798 0.930 . S
C821 C822 1.328 . S
C822 C793 1.427 . S
C822 H799 0.929 . S
C822 C821 1.328 . S
C823 O807 1.264 . S
C823 O808 1.243 . S
C824 C827 1.399 . S
C824 C828 1.383 . S
C824 C831 1.496 . S
C825 C826 1.399 . S
C825 C828 1.389 . S
C826 C825 1.399 . S
C826 C829 1.380 . S
C826 H836 0.929 . S
C827 C824 1.399 . S
C827 C829 1.392 . S
C827 H837 0.929 . S
C828 C824 1.383 . S
C828 C825 1.389 . S
C828 H838 0.931 . S
C829 C826 1.380 . S
C829 C827 1.392 . S
C829 H839 0.929 . S
C830 O810 1.266 . S
C830 O811 1.248 . S
C831 Tb767 2.802 . S
C831 O806 1.264 . S
C831 O809 1.256 . S
C831 C824 1.496 . S
H832 C815 0.929 . S
H833 C816 0.929 . S
H834 C817 0.929 1_545 S
H835 C818 0.931 . S
H836 C826 0.929 . S
H837 C827 0.929 . S
H838 C828 0.931 . S
H839 C829 0.929 . S
Tb840 N869 2.617 . S
Tb840 N875 2.572 . S
Tb840 O884 2.465 . S
Tb840 O885 2.387 . S
Tb840 O887 2.428 . S
Tb840 O888 2.308 . S
Tb840 O892 2.349 . S
Tb840 O895 2.393 . S
Tb840 C904 2.802 . S
C841 N842 1.379 . S
C841 C844 1.416 . S
C841 C848 1.424 . S
N842 C841 1.379 . S
N842 C845 1.334 . S
N842 Tb851 2.617 . S
C843 C845 1.390 . S
C843 C846 1.339 . S
C843 H863 0.930 . S
C844 C841 1.416 . S
C844 C846 1.416 . S
C844 C850 1.448 . S
C845 N842 1.334 . S
C845 C843 1.390 . S
C845 H856 0.930 . S
C846 C843 1.339 . S
C846 C844 1.416 . S
C846 H867 0.930 . S
C847 C848 1.413 . S
C847 C849 1.427 . S
C847 C853 1.416 . S
C848 C841 1.424 . S
C848 C847 1.413 . S
C848 N852 1.361 . S
C849 C847 1.427 . S
C849 C850 1.328 . S
C849 H864 0.929 . S
C850 C844 1.448 . S
C850 C849 1.328 . S
C850 H865 0.930 . S
Tb851 N842 2.617 . S
Tb851 N852 2.572 . S
Tb851 O886 2.349 . S
Tb851 O889 2.393 . S
Tb851 O890 2.465 . S
Tb851 O891 2.387 . S
Tb851 O893 2.428 . S
Tb851 O894 2.308 . S
Tb851 C915 2.802 . S
N852 C848 1.361 . S
N852 Tb851 2.572 . S
N852 C854 1.340 . S
C853 C847 1.416 . S
C853 C855 1.332 . S
C853 H861 0.931 . S
C854 N852 1.340 . S
C854 C855 1.407 . S
C854 H860 0.930 . S
C855 C853 1.332 . S
C855 C854 1.407 . S
C855 H857 0.929 . S
H856 C845 0.930 . S
H857 C855 0.929 . S
H858 C873 0.930 . S
H859 C880 0.929 . S
H860 C854 0.930 . S
H861 C853 0.931 . S
H862 C876 0.930 . S
H863 C843 0.930 . S
H864 C849 0.929 . S
H865 C850 0.930 . S
H866 C871 0.930 . S
H867 C846 0.930 . S
H868 C879 0.931 . S
N869 Tb840 2.617 . S
N869 C870 1.379 1_556 S
N869 C873 1.334 . S
C870 N869 1.379 1_554 S
C870 C872 1.416 . S
C870 C878 1.424 . S
C871 H866 0.930 . S
C871 C873 1.390 1_554 S
C871 C874 1.339 . S
C872 C870 1.416 . S
C872 C874 1.416 . S
C872 C905 1.448 . S
C873 H858 0.930 . S
C873 N869 1.334 . S
C873 C871 1.390 1_556 S
C874 C871 1.339 . S
C874 C872 1.416 . S
C874 H881 0.930 . S
N875 Tb840 2.572 . S
N875 C876 1.340 . S
N875 C878 1.361 1_556 S
C876 H862 0.930 . S
C876 N875 1.340 . S
C876 C880 1.407 1_556 S
C877 C878 1.413 . S
C877 C879 1.416 . S
C877 C906 1.427 . S
C878 C870 1.424 . S
C878 N875 1.361 1_554 S
C878 C877 1.413 . S
C879 H868 0.931 . S
C879 C877 1.416 . S
C879 C880 1.332 . S
C880 H859 0.929 . S
C880 C876 1.407 1_554 S
C880 C879 1.332 . S
H881 C874 0.930 . S
H882 C905 0.930 . S
H883 C906 0.929 . S
O884 Tb840 2.465 . S
O884 C904 1.264 . S
O885 Tb840 2.387 . S
O885 C896 1.264 . S
O886 Tb851 2.349 . S
O886 C896 1.243 . S
O887 Tb840 2.428 . S
O887 C904 1.256 . S
O888 Tb840 2.308 . S
O888 C903 1.266 . S
O889 Tb851 2.393 . S
O889 C903 1.248 . S
O890 Tb851 2.465 . S
O890 C915 1.264 . S
O891 Tb851 2.387 . S
O891 C907 1.264 . S
O892 Tb840 2.349 . S
O892 C907 1.243 . S
O893 Tb851 2.428 . S
O893 C915 1.256 . S
O894 Tb851 2.308 . S
O894 C914 1.266 . S
O895 Tb840 2.393 . S
O895 C914 1.248 . S
C896 O885 1.264 . S
C896 O886 1.243 . S
C897 C900 1.399 . S
C897 C902 1.383 . S
C897 C904 1.496 . S
C898 C899 1.399 . S
C898 C902 1.389 . S
C899 C898 1.399 . S
C899 C901 1.380 . S
C899 H916 0.929 . S
C900 C897 1.399 . S
C900 C901 1.392 . S
C900 H917 0.929 . S
C901 C899 1.380 . S
C901 C900 1.392 . S
C901 H918 0.929 . S
C902 C897 1.383 . S
C902 C898 1.389 . S
C902 H919 0.931 . S
C903 O888 1.266 . S
C903 O889 1.248 . S
C904 Tb840 2.802 . S
C904 O884 1.264 . S
C904 O887 1.256 . S
C904 C897 1.496 . S
C905 C872 1.448 . S
C905 H882 0.930 . S
C905 C906 1.328 . S
C906 C877 1.427 . S
C906 H883 0.929 . S
C906 C905 1.328 . S
C907 O891 1.264 . S
C907 O892 1.243 . S
C908 C911 1.399 . S
C908 C912 1.383 . S
C908 C915 1.496 . S
C909 C910 1.399 . S
C909 C912 1.389 . S
C910 C909 1.399 . S
C910 C913 1.380 . S
C910 H920 0.929 . S
C911 C908 1.399 . S
C911 C913 1.392 . S
C911 H921 0.929 . S
C912 C908 1.383 . S
C912 C909 1.389 . S
C912 H922 0.931 . S
C913 C910 1.380 . S
C913 C911 1.392 . S
C913 H923 0.929 . S
C914 O894 1.266 . S
C914 O895 1.248 . S
C915 Tb851 2.802 . S
C915 O890 1.264 . S
C915 O893 1.256 . S
C915 C908 1.496 . S
H916 C899 0.929 . S
H917 C900 0.929 . S
H918 C901 0.929 . S
H919 C902 0.931 . S
H920 C910 0.929 . S
H921 C911 0.929 . S
H922 C912 0.931 . S
H923 C913 0.929 . S
Tb924 N953 2.617 . S
Tb924 N959 2.572 . S
Tb924 O968 2.465 1_565 S
Tb924 O969 2.387 . S
Tb924 O971 2.428 1_565 S
Tb924 O972 2.308 . S
Tb924 O976 2.349 1_565 S
Tb924 O979 2.393 . S
Tb924 C988 2.802 1_565 S
C925 N926 1.380 . S
C925 C928 1.415 1_565 S
C925 C932 1.423 . S
N926 C925 1.380 . S
N926 C929 1.334 . S
N926 Tb935 2.617 . S
C927 C929 1.390 1_545 S
C927 C930 1.339 . S
C927 H947 0.930 . S
C928 C925 1.415 1_545 S
C928 C930 1.416 . S
C928 C934 1.448 . S
C929 N926 1.334 . S
C929 C927 1.390 1_565 S
C929 H940 0.930 . S
C930 C927 1.339 . S
C930 C928 1.416 . S
C930 H951 0.930 . S
C931 C932 1.413 1_545 S
C931 C933 1.427 . S
C931 C937 1.416 . S
C932 C925 1.423 . S
C932 C931 1.413 1_565 S
C932 N936 1.361 . S
C933 C931 1.427 . S
C933 C934 1.328 . S
C933 H948 0.929 . S
C934 C928 1.448 . S
C934 C933 1.328 . S
C934 H949 0.930 . S
Tb935 N926 2.617 . S
Tb935 N936 2.572 . S
Tb935 O970 2.349 . S
Tb935 O973 2.393 . S
Tb935 O974 2.465 . S
Tb935 O975 2.387 1_565 S
Tb935 O977 2.428 . S
Tb935 O978 2.308 . S
Tb935 C999 2.802 . S
N936 C932 1.361 . S
N936 Tb935 2.572 . S
N936 C938 1.340 . S
C937 C931 1.416 . S
C937 C939 1.332 1_545 S
C937 H945 0.931 . S
C938 N936 1.340 . S
C938 C939 1.407 . S
C938 H944 0.930 . S
C939 C937 1.332 1_565 S
C939 C938 1.407 . S
C939 H941 0.929 . S
H940 C929 0.930 . S
H941 C939 0.929 . S
H942 C957 0.930 . S
H943 C964 0.929 . S
H944 C938 0.930 . S
H945 C937 0.931 . S
H946 C960 0.930 . S
H947 C927 0.930 . S
H948 C933 0.929 . S
H949 C934 0.930 . S
H950 C955 0.930 . S
H951 C930 0.930 . S
H952 C963 0.931 . S
N953 Tb924 2.617 . S
N953 C954 1.379 . S
N953 C957 1.334 . S
C954 N953 1.379 . S
C954 C956 1.416 . S
C954 C962 1.424 . S
C955 H950 0.930 . S
C955 C957 1.390 . S
C955 C958 1.339 . S
C956 C954 1.416 . S
C956 C958 1.416 . S
C956 C989 1.448 . S
C957 H942 0.930 . S
C957 N953 1.334 . S
C957 C955 1.390 . S
C958 C955 1.339 . S
C958 C956 1.416 . S
C958 H965 0.930 . S
N959 Tb924 2.572 . S
N959 C960 1.340 . S
N959 C962 1.361 . S
C960 H946 0.930 . S
C960 N959 1.340 . S
C960 C964 1.407 . S
C961 C962 1.413 . S
C961 C963 1.416 . S
C961 C990 1.427 . S
C962 C954 1.424 . S
C962 N959 1.361 . S
C962 C961 1.413 . S
C963 H952 0.931 . S
C963 C961 1.416 . S
C963 C964 1.332 . S
C964 H943 0.929 . S
C964 C960 1.407 . S
C964 C963 1.332 . S
H965 C958 0.930 . S
H966 C989 0.930 . S
H967 C990 0.929 . S
O968 Tb924 2.465 1_545 S
O968 C988 1.264 . S
O969 Tb924 2.387 . S
O969 C980 1.264 . S
O970 Tb935 2.349 . S
O970 C980 1.243 . S
O971 Tb924 2.428 1_545 S
O971 C988 1.256 . S
O972 Tb924 2.308 . S
O972 C987 1.266 . S
O973 Tb935 2.393 . S
O973 C987 1.248 . S
O974 Tb935 2.465 . S
O974 C999 1.264 . S
O975 Tb935 2.387 1_545 S
O975 C991 1.264 . S
O976 Tb924 2.349 1_545 S
O976 C991 1.243 . S
O977 Tb935 2.428 . S
O977 C999 1.256 . S
O978 Tb935 2.308 . S
O978 C998 1.266 . S
O979 Tb924 2.393 . S
O979 C998 1.248 . S
C980 O969 1.264 . S
C980 O970 1.243 . S
C981 C984 1.399 . S
C981 C986 1.383 . S
C981 C988 1.496 . S
C982 C983 1.399 . S
C982 C986 1.389 . S
C983 C982 1.399 . S
C983 C985 1.380 . S
C983 H1000 0.929 . S
C984 C981 1.399 . S
C984 C985 1.392 . S
C984 H1001 0.929 . S
C985 C983 1.380 . S
C985 C984 1.392 . S
C985 H1002 0.929 . S
C986 C981 1.383 . S
C986 C982 1.389 . S
C986 H1003 0.931 . S
C987 O972 1.266 . S
C987 O973 1.248 . S
C988 Tb924 2.802 1_545 S
C988 O968 1.264 . S
C988 O971 1.256 . S
C988 C981 1.496 . S
C989 C956 1.448 . S
C989 H966 0.930 . S
C989 C990 1.328 . S
C990 C961 1.427 . S
C990 H967 0.929 . S
C990 C989 1.328 . S
C991 O975 1.264 . S
C991 O976 1.243 . S
C992 C995 1.399 . S
C992 C996 1.383 . S
C992 C999 1.496 . S
C993 C994 1.399 . S
C993 C996 1.389 . S
C994 C993 1.399 . S
C994 C997 1.380 . S
C994 H1004 0.929 . S
C995 C992 1.399 . S
C995 C997 1.392 . S
C995 H1005 0.929 . S
C996 C992 1.383 . S
C996 C993 1.389 . S
C996 H1006 0.931 . S
C997 C994 1.380 . S
C997 C995 1.392 . S
C997 H1007 0.929 . S
C998 O978 1.266 . S
C998 O979 1.248 . S
C999 Tb935 2.802 . S
C999 O974 1.264 . S
C999 O977 1.256 . S
C999 C992 1.496 . S
H1000 C983 0.929 . S
H1001 C984 0.929 . S
H1002 C985 0.929 . S
H1003 C986 0.931 . S
H1004 C994 0.929 . S
H1005 C995 0.929 . S
H1006 C996 0.931 . S
H1007 C997 0.929 . S
Tb1008 N1037 2.617 . S
Tb1008 N1043 2.572 . S
Tb1008 O1052 2.465 . S
Tb1008 O1053 2.387 . S
Tb1008 O1055 2.428 . S
Tb1008 O1056 2.308 . S
Tb1008 O1060 2.349 . S
Tb1008 O1063 2.393 . S
Tb1008 C1072 2.802 . S
C1009 N1010 1.393 . S
C1009 C1012 1.416 . S
C1009 C1016 1.424 . S
N1010 C1009 1.393 . S
N1010 C1013 1.331 1_565 S
N1010 Tb1019 2.610 1_565 S
C1011 C1013 1.390 1_565 S
C1011 C1014 1.339 . S
C1011 H1031 0.930 . S
C1012 C1009 1.416 . S
C1012 C1014 1.416 . S
C1012 C1018 1.448 . S
C1013 N1010 1.331 1_545 S
C1013 C1011 1.390 1_545 S
C1013 H1024 0.930 . S
C1014 C1011 1.339 . S
C1014 C1012 1.416 . S
C1014 H1035 0.930 . S
C1015 C1016 1.413 . S
C1015 C1017 1.427 . S
C1015 C1021 1.416 . S
C1016 C1009 1.424 . S
C1016 C1015 1.413 . S
C1016 N1020 1.361 . S
C1017 C1015 1.427 . S
C1017 C1018 1.328 . S
C1017 H1032 0.929 . S
C1018 C1012 1.448 . S
C1018 C1017 1.328 . S
C1018 H1033 0.930 . S
Tb1019 N1010 2.610 1_545 S
Tb1019 N1020 2.572 1_545 S
Tb1019 O1054 2.349 . S
Tb1019 O1057 2.393 . S
Tb1019 O1058 2.465 . S
Tb1019 O1059 2.403 . S
Tb1019 O1061 2.428 . S
Tb1019 O1062 2.308 . S
Tb1019 C1083 2.802 . S
N1020 C1016 1.361 . S
N1020 Tb1019 2.572 1_565 S
N1020 C1022 1.340 . S
C1021 C1015 1.416 . S
C1021 C1023 1.332 . S
C1021 H1029 0.931 . S
C1022 N1020 1.340 . S
C1022 C1023 1.407 . S
C1022 H1028 0.930 . S
C1023 C1021 1.332 . S
C1023 C1022 1.407 . S
C1023 H1025 0.929 . S
H1024 C1013 0.930 . S
H1025 C1023 0.929 . S
H1026 C1041 0.930 . S
H1027 C1048 0.929 . S
H1028 C1022 0.930 . S
H1029 C1021 0.931 . S
H1030 C1044 0.930 . S
H1031 C1011 0.930 . S
H1032 C1017 0.929 . S
H1033 C1018 0.930 . S
H1034 C1039 0.930 . S
H1035 C1014 0.930 . S
H1036 C1047 0.931 . S
N1037 Tb1008 2.617 . S
N1037 C1038 1.379 . S
N1037 C1041 1.334 . S
C1038 N1037 1.379 . S
C1038 C1040 1.416 . S
C1038 C1046 1.424 . S
C1039 H1034 0.930 . S
C1039 C1041 1.390 . S
C1039 C1042 1.339 . S
C1040 C1038 1.416 . S
C1040 C1042 1.416 . S
C1040 C1073 1.448 . S
C1041 H1026 0.930 . S
C1041 N1037 1.334 . S
C1041 C1039 1.390 . S
C1042 C1039 1.339 . S
C1042 C1040 1.416 . S
C1042 H1049 0.930 . S
N1043 Tb1008 2.572 . S
N1043 C1044 1.340 . S
N1043 C1046 1.361 . S
C1044 H1030 0.930 . S
C1044 N1043 1.340 . S
C1044 C1048 1.407 . S
C1045 C1046 1.413 . S
C1045 C1047 1.416 . S
C1045 C1074 1.427 . S
C1046 C1038 1.424 . S
C1046 N1043 1.361 . S
C1046 C1045 1.413 . S
C1047 H1036 0.931 . S
C1047 C1045 1.416 . S
C1047 C1048 1.332 . S
C1048 H1027 0.929 . S
C1048 C1044 1.407 . S
C1048 C1047 1.332 . S
H1049 C1042 0.930 . S
H1050 C1073 0.930 . S
H1051 C1074 0.929 . S
O1052 Tb1008 2.465 . S
O1052 C1072 1.264 . S
O1053 Tb1008 2.387 . S
O1053 C1064 1.264 . S
O1054 Tb1019 2.349 . S
O1054 C1064 1.243 . S
O1055 Tb1008 2.428 . S
O1055 C1072 1.256 . S
O1056 Tb1008 2.308 . S
O1056 C1071 1.266 . S
O1057 Tb1019 2.393 . S
O1057 C1071 1.248 . S
O1058 Tb1019 2.465 . S
O1058 C1083 1.264 . S
O1059 Tb1019 2.403 . S
O1059 C1075 1.255 1_545 S
O1060 Tb1008 2.349 . S
O1060 C1075 1.243 1_545 S
O1061 Tb1019 2.428 . S
O1061 C1083 1.256 . S
O1062 Tb1019 2.308 . S
O1062 C1082 1.266 . S
O1063 Tb1008 2.393 . S
O1063 C1082 1.248 . S
C1064 O1053 1.264 . S
C1064 O1054 1.243 . S
C1065 C1068 1.399 . S
C1065 C1070 1.383 . S
C1065 C1072 1.496 . S
C1066 C1067 1.399 . S
C1066 C1070 1.389 . S
C1067 C1066 1.399 . S
C1067 C1069 1.380 . S
C1067 H1084 0.929 . S
C1068 C1065 1.399 . S
C1068 C1069 1.392 . S
C1068 H1085 0.929 . S
C1069 C1067 1.380 . S
C1069 C1068 1.392 . S
C1069 H1086 0.929 . S
C1070 C1065 1.383 . S
C1070 C1066 1.389 . S
C1070 H1087 0.931 . S
C1071 O1056 1.266 . S
C1071 O1057 1.248 . S
C1072 Tb1008 2.802 . S
C1072 O1052 1.264 . S
C1072 O1055 1.256 . S
C1072 C1065 1.496 . S
C1073 C1040 1.448 . S
C1073 H1050 0.930 . S
C1073 C1074 1.328 . S
C1074 C1045 1.427 . S
C1074 H1051 0.929 . S
C1074 C1073 1.328 . S
C1075 O1059 1.255 1_565 S
C1075 O1060 1.243 1_565 S
C1076 C1079 1.399 . S
C1076 C1080 1.383 . S
C1076 C1083 1.496 . S
C1077 C1078 1.399 . S
C1077 C1080 1.389 . S
C1078 C1077 1.399 . S
C1078 C1081 1.380 . S
C1078 H1088 0.929 . S
C1079 C1076 1.399 . S
C1079 C1081 1.392 . S
C1079 H1089 0.929 . S
C1080 C1076 1.383 . S
C1080 C1077 1.389 . S
C1080 H1090 0.931 . S
C1081 C1078 1.380 . S
C1081 C1079 1.392 . S
C1081 H1091 0.929 . S
C1082 O1062 1.266 . S
C1082 O1063 1.248 . S
C1083 Tb1019 2.802 . S
C1083 O1058 1.264 . S
C1083 O1061 1.256 . S
C1083 C1076 1.496 . S
H1084 C1067 0.929 . S
H1085 C1068 0.929 . S
H1086 C1069 0.929 . S
H1087 C1070 0.931 . S
H1088 C1078 0.929 . S
H1089 C1079 0.929 . S
H1090 C1080 0.931 . S
H1091 C1081 0.929 . S
Tb1092 N1121 2.617 . S
Tb1092 N1127 2.572 . S
Tb1092 O1136 2.465 . S
Tb1092 O1137 2.387 1_455 S
Tb1092 O1139 2.428 . S
Tb1092 O1140 2.308 . S
Tb1092 O1144 2.349 . S
Tb1092 O1147 2.393 . S
Tb1092 C1156 2.802 . S
C1093 N1094 1.379 . S
C1093 C1096 1.416 . S
C1093 C1100 1.424 . S
N1094 C1093 1.379 . S
N1094 C1097 1.334 1_455 S
N1094 Tb1103 2.617 1_455 S
C1095 C1097 1.390 1_455 S
C1095 C1098 1.339 . S
C1095 H1115 0.932 . S
C1096 C1093 1.416 . S
C1096 C1098 1.416 . S
C1096 C1102 1.448 . S
C1097 N1094 1.334 1_655 S
C1097 C1095 1.390 1_655 S
C1097 H1108 0.930 . S
C1098 C1095 1.339 . S
C1098 C1096 1.416 . S
C1098 H1119 0.930 . S
C1099 C1100 1.413 . S
C1099 C1101 1.427 . S
C1099 C1105 1.416 . S
C1100 C1093 1.424 . S
C1100 C1099 1.413 . S
C1100 N1104 1.361 . S
C1101 C1099 1.427 . S
C1101 C1102 1.328 . S
C1101 H1116 0.929 . S
C1102 C1096 1.448 . S
C1102 C1101 1.328 . S
C1102 H1117 0.930 . S
Tb1103 N1094 2.617 1_655 S
Tb1103 N1104 2.572 1_655 S
Tb1103 O1138 2.349 . S
Tb1103 O1141 2.393 . S
Tb1103 O1142 2.465 . S
Tb1103 O1143 2.387 1_655 S
Tb1103 O1145 2.428 . S
Tb1103 O1146 2.308 1_655 S
Tb1103 C1167 2.802 . S
N1104 C1100 1.361 . S
N1104 Tb1103 2.572 1_455 S
N1104 C1106 1.340 . S
C1105 C1099 1.416 . S
C1105 C1107 1.332 . S
C1105 H1113 0.931 . S
C1106 N1104 1.340 . S
C1106 C1107 1.407 . S
C1106 H1112 0.930 . S
C1107 C1105 1.332 . S
C1107 C1106 1.407 . S
C1107 H1109 0.929 . S
H1108 C1097 0.930 . S
H1109 C1107 0.929 . S
H1110 C1125 0.930 . S
H1111 C1132 0.929 1_655 S
H1112 C1106 0.930 . S
H1113 C1105 0.931 . S
H1114 C1128 0.930 . S
H1115 C1095 0.932 . S
H1116 C1101 0.929 . S
H1117 C1102 0.930 . S
H1118 C1123 0.930 . S
H1119 C1098 0.930 . S
H1120 C1131 0.931 1_565 S
N1121 Tb1092 2.617 . S
N1121 C1122 1.379 . S
N1121 C1125 1.334 . S
C1122 N1121 1.379 . S
C1122 C1124 1.416 . S
C1122 C1130 1.424 . S
C1123 H1118 0.930 . S
C1123 C1125 1.390 . S
C1123 C1126 1.339 . S
C1124 C1122 1.416 . S
C1124 C1126 1.416 . S
C1124 C1157 1.448 1_455 S
C1125 H1110 0.930 . S
C1125 N1121 1.334 . S
C1125 C1123 1.390 . S
C1126 C1123 1.339 . S
C1126 C1124 1.416 . S
C1126 H1133 0.930 . S
N1127 Tb1092 2.572 . S
N1127 C1128 1.340 . S
N1127 C1130 1.361 . S
C1128 H1114 0.930 . S
C1128 N1127 1.340 . S
C1128 C1132 1.407 1_545 S
C1129 C1130 1.413 1_655 S
C1129 C1131 1.416 . S
C1129 C1158 1.427 . S
C1130 C1122 1.424 . S
C1130 N1127 1.361 . S
C1130 C1129 1.413 1_455 S
C1131 H1120 0.931 1_545 S
C1131 C1129 1.416 . S
C1131 C1132 1.332 1_645 S
C1132 H1111 0.929 1_455 S
C1132 C1128 1.407 1_565 S
C1132 C1131 1.332 1_465 S
H1133 C1126 0.930 . S
H1134 C1157 0.930 . S
H1135 C1158 0.929 . S
O1136 Tb1092 2.465 . S
O1136 C1156 1.264 . S
O1137 Tb1092 2.387 1_655 S
O1137 C1148 1.264 . S
O1138 Tb1103 2.349 . S
O1138 C1148 1.243 . S
O1139 Tb1092 2.428 . S
O1139 C1156 1.256 . S
O1140 Tb1092 2.308 . S
O1140 C1155 1.266 . S
O1141 Tb1103 2.393 . S
O1141 C1155 1.248 1_655 S
O1142 Tb1103 2.465 . S
O1142 C1167 1.264 . S
O1143 Tb1103 2.387 1_455 S
O1143 C1159 1.264 . S
O1144 Tb1092 2.349 . S
O1144 C1159 1.243 . S
O1145 Tb1103 2.428 . S
O1145 C1167 1.256 . S
O1146 Tb1103 2.308 1_455 S
O1146 C1166 1.266 . S
O1147 Tb1092 2.393 . S
O1147 C1166 1.248 . S
C1148 O1137 1.264 . S
C1148 O1138 1.243 . S
C1149 C1152 1.399 . S
C1149 C1154 1.383 . S
C1149 C1156 1.496 . S
C1150 C1151 1.399 . S
C1150 C1154 1.389 . S
C1151 C1150 1.399 . S
C1151 C1153 1.380 . S
C1151 H1168 0.929 . S
C1152 C1149 1.399 . S
C1152 C1153 1.392 . S
C1152 H1169 0.929 . S
C1153 C1151 1.380 . S
C1153 C1152 1.392 . S
C1153 H1170 0.929 . S
C1154 C1149 1.383 . S
C1154 C1150 1.389 . S
C1154 H1171 0.931 . S
C1155 O1140 1.266 . S
C1155 O1141 1.248 1_455 S
C1156 Tb1092 2.802 . S
C1156 O1136 1.264 . S
C1156 O1139 1.256 . S
C1156 C1149 1.496 . S
C1157 C1124 1.448 1_655 S
C1157 H1134 0.930 . S
C1157 C1158 1.328 . S
C1158 C1129 1.427 . S
C1158 H1135 0.929 . S
C1158 C1157 1.328 . S
C1159 O1143 1.264 . S
C1159 O1144 1.243 . S
C1160 C1163 1.399 . S
C1160 C1164 1.383 . S
C1160 C1167 1.496 . S
C1161 C1162 1.399 . S
C1161 C1164 1.389 . S
C1162 C1161 1.399 . S
C1162 C1165 1.380 . S
C1162 H1172 0.929 . S
C1163 C1160 1.399 . S
C1163 C1165 1.392 . S
C1163 H1173 0.929 . S
C1164 C1160 1.383 . S
C1164 C1161 1.389 . S
C1164 H1174 0.931 . S
C1165 C1162 1.380 . S
C1165 C1163 1.392 . S
C1165 H1175 0.929 . S
C1166 O1146 1.266 . S
C1166 O1147 1.248 . S
C1167 Tb1103 2.802 . S
C1167 O1142 1.264 . S
C1167 O1145 1.256 . S
C1167 C1160 1.496 . S
H1168 C1151 0.929 . S
H1169 C1152 0.929 . S
H1170 C1153 0.929 . S
H1171 C1154 0.931 . S
H1172 C1162 0.929 . S
H1173 C1163 0.929 . S
H1174 C1164 0.931 . S
H1175 C1165 0.929 . S
Tb1176 N1205 2.617 . S
Tb1176 N1211 2.572 . S
Tb1176 O1220 2.465 . S
Tb1176 O1221 2.387 . S
Tb1176 O1223 2.428 . S
Tb1176 O1224 2.308 . S
Tb1176 O1228 2.349 . S
Tb1176 O1231 2.393 . S
Tb1176 C1240 2.802 . S
C1177 N1178 1.379 . S
C1177 C1180 1.416 . S
C1177 C1184 1.424 . S
N1178 C1177 1.379 . S
N1178 C1181 1.334 . S
N1178 Tb1187 2.617 . S
C1179 C1181 1.390 . S
C1179 C1182 1.339 . S
C1179 H1199 0.930 . S
C1180 C1177 1.416 . S
C1180 C1182 1.416 . S
C1180 C1186 1.448 . S
C1181 N1178 1.334 . S
C1181 C1179 1.390 . S
C1181 H1192 0.930 . S
C1182 C1179 1.339 . S
C1182 C1180 1.416 . S
C1182 H1203 0.930 . S
C1183 C1184 1.413 . S
C1183 C1185 1.427 . S
C1183 C1189 1.416 . S
C1184 C1177 1.424 . S
C1184 C1183 1.413 . S
C1184 N1188 1.361 . S
C1185 C1183 1.427 . S
C1185 C1186 1.328 . S
C1185 H1200 0.929 1_545 S
C1186 C1180 1.448 . S
C1186 C1185 1.328 . S
C1186 H1201 0.930 . S
Tb1187 N1178 2.617 . S
Tb1187 N1188 2.572 . S
Tb1187 O1222 2.349 . S
Tb1187 O1225 2.393 . S
Tb1187 O1226 2.465 . S
Tb1187 O1227 2.387 . S
Tb1187 O1229 2.428 . S
Tb1187 O1230 2.308 . S
Tb1187 C1251 2.802 . S
N1188 C1184 1.361 . S
N1188 Tb1187 2.572 . S
N1188 C1190 1.340 . S
C1189 C1183 1.416 . S
C1189 C1191 1.332 . S
C1189 H1197 0.931 . S
C1190 N1188 1.340 . S
C1190 C1191 1.407 . S
C1190 H1196 0.930 . S
C1191 C1189 1.332 . S
C1191 C1190 1.407 . S
C1191 H1193 0.929 . S
H1192 C1181 0.930 . S
H1193 C1191 0.929 . S
H1194 C1209 0.930 . S
H1195 C1216 0.929 . S
H1196 C1190 0.930 . S
H1197 C1189 0.931 . S
H1198 C1212 0.930 . S
H1199 C1179 0.930 . S
H1200 C1185 0.929 1_565 S
H1201 C1186 0.930 . S
H1202 C1207 0.930 . S
H1203 C1182 0.930 . S
H1204 C1215 0.931 . S
N1205 Tb1176 2.617 . S
N1205 C1206 1.379 . S
N1205 C1209 1.334 . S
C1206 N1205 1.379 . S
C1206 C1208 1.416 . S
C1206 C1214 1.424 . S
C1207 H1202 0.930 . S
C1207 C1209 1.390 . S
C1207 C1210 1.339 . S
C1208 C1206 1.416 . S
C1208 C1210 1.416 . S
C1208 C1241 1.448 . S
C1209 H1194 0.930 . S
C1209 N1205 1.334 . S
C1209 C1207 1.390 . S
C1210 C1207 1.339 . S
C1210 C1208 1.416 . S
C1210 H1217 0.930 . S
N1211 Tb1176 2.572 . S
N1211 C1212 1.340 . S
N1211 C1214 1.361 . S
C1212 H1198 0.930 . S
C1212 N1211 1.340 . S
C1212 C1216 1.407 . S
C1213 C1214 1.413 . S
C1213 C1215 1.416 . S
C1213 C1242 1.427 . S
C1214 C1206 1.424 . S
C1214 N1211 1.361 . S
C1214 C1213 1.413 . S
C1215 H1204 0.931 . S
C1215 C1213 1.416 . S
C1215 C1216 1.332 . S
C1216 H1195 0.929 . S
C1216 C1212 1.407 . S
C1216 C1215 1.332 . S
H1217 C1210 0.930 . S
H1218 C1241 0.930 . S
H1219 C1242 0.929 . S
O1220 Tb1176 2.465 . S
O1220 C1240 1.264 . S
O1221 Tb1176 2.387 . S
O1221 C1232 1.264 . S
O1222 Tb1187 2.349 . S
O1222 C1232 1.243 . S
O1223 Tb1176 2.428 . S
O1223 C1240 1.256 . S
O1224 Tb1176 2.308 . S
O1224 C1239 1.266 . S
O1225 Tb1187 2.393 . S
O1225 C1239 1.248 . S
O1226 Tb1187 2.465 . S
O1226 C1251 1.264 . S
O1227 Tb1187 2.387 . S
O1227 C1243 1.264 . S
O1228 Tb1176 2.349 . S
O1228 C1243 1.243 . S
O1229 Tb1187 2.428 . S
O1229 C1251 1.256 . S
O1230 Tb1187 2.308 . S
O1230 C1250 1.266 . S
O1231 Tb1176 2.393 . S
O1231 C1250 1.248 . S
C1232 O1221 1.264 . S
C1232 O1222 1.243 . S
C1233 C1236 1.399 . S
C1233 C1238 1.383 . S
C1233 C1240 1.496 . S
C1234 C1235 1.399 . S
C1234 C1238 1.389 . S
C1235 C1234 1.399 . S
C1235 C1237 1.380 . S
C1235 H1252 0.929 . S
C1236 C1233 1.399 . S
C1236 C1237 1.392 . S
C1236 H1253 0.929 . S
C1237 C1235 1.380 . S
C1237 C1236 1.392 . S
C1237 H1254 0.929 . S
C1238 C1233 1.383 . S
C1238 C1234 1.389 . S
C1238 H1255 0.931 . S
C1239 O1224 1.266 . S
C1239 O1225 1.248 . S
C1240 Tb1176 2.802 . S
C1240 O1220 1.264 . S
C1240 O1223 1.256 . S
C1240 C1233 1.496 . S
C1241 C1208 1.448 . S
C1241 H1218 0.930 . S
C1241 C1242 1.328 . S
C1242 C1213 1.427 . S
C1242 H1219 0.929 . S
C1242 C1241 1.328 . S
C1243 O1227 1.264 . S
C1243 O1228 1.243 . S
C1244 C1247 1.399 . S
C1244 C1248 1.383 . S
C1244 C1251 1.496 . S
C1245 C1246 1.399 . S
C1245 C1248 1.389 . S
C1246 C1245 1.399 . S
C1246 C1249 1.380 . S
C1246 H1256 0.929 . S
C1247 C1244 1.399 . S
C1247 C1249 1.392 . S
C1247 H1257 0.929 . S
C1248 C1244 1.383 . S
C1248 C1245 1.389 . S
C1248 H1258 0.931 . S
C1249 C1246 1.380 . S
C1249 C1247 1.392 . S
C1249 H1259 0.929 . S
C1250 O1230 1.266 . S
C1250 O1231 1.248 . S
C1251 Tb1187 2.802 . S
C1251 O1226 1.264 . S
C1251 O1229 1.256 . S
C1251 C1244 1.496 . S
H1252 C1235 0.929 . S
H1253 C1236 0.929 . S
H1254 C1237 0.929 . S
H1255 C1238 0.931 . S
H1256 C1246 0.929 . S
H1257 C1247 0.929 . S
H1258 C1248 0.931 . S
H1259 C1249 0.929 . S
Tb1260 N1289 2.617 . S
Tb1260 N1295 2.572 . S
Tb1260 O1304 2.465 . S
Tb1260 O1305 2.387 . S
Tb1260 O1307 2.428 . S
Tb1260 O1308 2.308 . S
Tb1260 O1312 2.349 . S
Tb1260 O1315 2.393 . S
Tb1260 C1324 2.802 . S
C1261 N1262 1.379 . S
C1261 C1264 1.416 . S
C1261 C1268 1.424 . S
N1262 C1261 1.379 . S
N1262 C1265 1.334 . S
N1262 Tb1271 2.617 . S
C1263 C1265 1.390 . S
C1263 C1266 1.339 . S
C1263 H1283 0.930 . S
C1264 C1261 1.416 . S
C1264 C1266 1.416 . S
C1264 C1270 1.448 . S
C1265 N1262 1.334 . S
C1265 C1263 1.390 . S
C1265 H1276 0.930 . S
C1266 C1263 1.339 . S
C1266 C1264 1.416 . S
C1266 H1287 0.930 . S
C1267 C1268 1.413 . S
C1267 C1269 1.427 . S
C1267 C1273 1.416 . S
C1268 C1261 1.424 . S
C1268 C1267 1.413 . S
C1268 N1272 1.361 . S
C1269 C1267 1.427 . S
C1269 C1270 1.328 . S
C1269 H1284 0.929 . S
C1270 C1264 1.448 . S
C1270 C1269 1.328 . S
C1270 H1285 0.930 . S
Tb1271 N1262 2.617 . S
Tb1271 N1272 2.572 . S
Tb1271 O1306 2.349 1_455 S
Tb1271 O1309 2.393 . S
Tb1271 O1310 2.465 1_455 S
Tb1271 O1311 2.387 . S
Tb1271 O1313 2.428 1_455 S
Tb1271 O1314 2.308 . S
Tb1271 C1335 2.802 1_455 S
N1272 C1268 1.361 . S
N1272 Tb1271 2.572 . S
N1272 C1274 1.340 . S
C1273 C1267 1.416 . S
C1273 C1275 1.332 . S
C1273 H1281 0.931 . S
C1274 N1272 1.340 . S
C1274 C1275 1.407 . S
C1274 H1280 0.930 . S
C1275 C1273 1.332 . S
C1275 C1274 1.407 . S
C1275 H1277 0.929 . S
H1276 C1265 0.930 . S
H1277 C1275 0.929 . S
H1278 C1293 0.930 . S
H1279 C1300 0.941 . S
H1280 C1274 0.930 . S
H1281 C1273 0.931 . S
H1282 C1296 0.930 . S
H1283 C1263 0.930 . S
H1284 C1269 0.929 . S
H1285 C1270 0.930 . S
H1286 C1291 0.930 . S
H1287 C1266 0.930 . S
H1288 C1299 0.941 . S
N1289 Tb1260 2.617 . S
N1289 C1290 1.379 . S
N1289 C1293 1.334 . S
C1290 N1289 1.379 . S
C1290 C1292 1.416 . S
C1290 C1298 1.424 . S
C1291 H1286 0.930 . S
C1291 C1293 1.390 . S
C1291 C1294 1.339 . S
C1292 C1290 1.416 . S
C1292 C1294 1.416 . S
C1292 C1325 1.448 . S
C1293 H1278 0.930 . S
C1293 N1289 1.334 . S
C1293 C1291 1.390 . S
C1294 C1291 1.339 . S
C1294 C1292 1.416 . S
C1294 H1301 0.930 . S
N1295 Tb1260 2.572 . S
N1295 C1296 1.340 . S
N1295 C1298 1.361 . S
C1296 H1282 0.930 . S
C1296 N1295 1.340 . S
C1296 C1300 1.407 . S
C1297 C1298 1.413 . S
C1297 C1299 1.416 . S
C1297 C1326 1.427 . S
C1298 C1290 1.424 . S
C1298 N1295 1.361 . S
C1298 C1297 1.413 . S
C1299 H1288 0.941 . S
C1299 C1297 1.416 . S
C1299 C1300 1.332 . S
C1300 H1279 0.941 . S
C1300 C1296 1.407 . S
C1300 C1299 1.332 . S
H1301 C1294 0.930 . S
H1302 C1325 0.930 . S
H1303 C1326 0.929 1_655 S
O1304 Tb1260 2.465 . S
O1304 C1324 1.264 . S
O1305 Tb1260 2.387 . S
O1305 C1316 1.264 1_455 S
O1306 Tb1271 2.349 1_655 S
O1306 C1316 1.243 . S
O1307 Tb1260 2.428 . S
O1307 C1324 1.256 . S
O1308 Tb1260 2.308 . S
O1308 C1323 1.266 . S
O1309 Tb1271 2.393 . S
O1309 C1323 1.248 . S
O1310 Tb1271 2.465 1_655 S
O1310 C1335 1.264 . S
O1311 Tb1271 2.387 . S
O1311 C1327 1.264 . S
O1312 Tb1260 2.349 . S
O1312 C1327 1.243 . S
O1313 Tb1271 2.428 1_655 S
O1313 C1335 1.256 . S
O1314 Tb1271 2.308 . S
O1314 C1334 1.266 . S
O1315 Tb1260 2.393 . S
O1315 C1334 1.248 . S
C1316 O1305 1.264 1_655 S
C1316 O1306 1.243 . S
C1317 C1320 1.399 . S
C1317 C1322 1.383 . S
C1317 C1324 1.496 . S
C1318 C1319 1.399 . S
C1318 C1322 1.389 . S
C1319 C1318 1.399 . S
C1319 C1321 1.380 . S
C1319 H1336 0.929 . S
C1320 C1317 1.399 . S
C1320 C1321 1.392 . S
C1320 H1337 0.929 . S
C1321 C1319 1.380 . S
C1321 C1320 1.392 . S
C1321 H1338 0.929 . S
C1322 C1317 1.383 . S
C1322 C1318 1.389 . S
C1322 H1339 0.931 . S
C1323 O1308 1.266 . S
C1323 O1309 1.248 . S
C1324 Tb1260 2.802 . S
C1324 O1304 1.264 . S
C1324 O1307 1.256 . S
C1324 C1317 1.496 . S
C1325 C1292 1.448 . S
C1325 H1302 0.930 . S
C1325 C1326 1.328 . S
C1326 C1297 1.427 . S
C1326 H1303 0.929 1_455 S
C1326 C1325 1.328 . S
C1327 O1311 1.264 . S
C1327 O1312 1.243 . S
C1328 C1331 1.399 . S
C1328 C1332 1.383 . S
C1328 C1335 1.496 . S
C1329 C1330 1.399 . S
C1329 C1332 1.389 . S
C1330 C1329 1.399 . S
C1330 C1333 1.380 . S
C1330 H1340 0.929 . S
C1331 C1328 1.399 . S
C1331 C1333 1.392 . S
C1331 H1341 0.929 . S
C1332 C1328 1.383 . S
C1332 C1329 1.389 . S
C1332 H1342 0.931 . S
C1333 C1330 1.380 . S
C1333 C1331 1.392 . S
C1333 H1343 0.929 . S
C1334 O1314 1.266 . S
C1334 O1315 1.248 . S
C1335 Tb1271 2.802 1_655 S
C1335 O1310 1.264 . S
C1335 O1313 1.256 . S
C1335 C1328 1.496 . S
H1336 C1319 0.929 . S
H1337 C1320 0.929 . S
H1338 C1321 0.929 . S
H1339 C1322 0.931 . S
H1340 C1330 0.929 . S
H1341 C1331 0.929 . S
H1342 C1332 0.931 . S
H1343 C1333 0.929 . S
H1344 C1350 0.930 . S
H1345 C1354 0.930 . S
H1346 C1359 0.929 . S
H1347 C1357 0.929 . S
H1348 C1352 0.929 . S
H1349 C1358 0.929 . S
C1350 H1344 0.930 . S
C1350 C1351 1.367 . S
C1350 C1358 1.378 . S
C1351 C1350 1.367 . S
C1351 C1359 1.433 . S
C1352 H1348 0.929 . S
C1352 C1354 1.378 . S
C1352 C1356 1.350 . S
C1353 C1356 1.463 . S
C1353 C1358 1.350 . S
C1353 N1361 1.427 . S
C1354 H1345 0.930 . S
C1354 C1352 1.378 . S
C1354 C1355 1.367 . S
C1355 C1354 1.367 . S
C1355 C1357 1.433 . S
C1356 C1352 1.350 . S
C1356 C1353 1.463 . S
C1356 N1360 1.427 . S
C1357 H1347 0.929 . S
C1357 C1355 1.433 . S
C1357 N1360 1.384 . S
C1358 H1349 0.929 . S
C1358 C1350 1.378 . S
C1358 C1353 1.350 . S
C1359 H1346 0.929 . S
C1359 C1351 1.433 . S
C1359 N1361 1.384 . S
N1360 C1356 1.427 . S
N1360 C1357 1.384 . S
N1361 C1353 1.427 . S
N1361 C1359 1.384 . S
H1362 C1368 0.930 . S
H1363 C1372 0.930 . S
H1364 C1377 0.929 . S
H1365 C1375 0.929 . S
H1366 C1370 0.929 . S
H1367 C1376 0.929 . S
C1368 H1362 0.930 . S
C1368 C1369 1.367 . S
C1368 C1376 1.378 . S
C1369 C1368 1.367 . S
C1369 C1377 1.433 . S
C1370 H1366 0.929 . S
C1370 C1372 1.378 . S
C1370 C1374 1.350 . S
C1371 C1374 1.463 . S
C1371 C1376 1.350 . S
C1371 N1379 1.427 . S
C1372 H1363 0.930 . S
C1372 C1370 1.378 . S
C1372 C1373 1.367 . S
C1373 C1372 1.367 . S
C1373 C1375 1.433 . S
C1374 C1370 1.350 . S
C1374 C1371 1.463 . S
C1374 N1378 1.427 . S
C1375 H1365 0.929 . S
C1375 C1373 1.433 . S
C1375 N1378 1.384 . S
C1376 H1367 0.929 . S
C1376 C1368 1.378 . S
C1376 C1371 1.350 . S
C1377 H1364 0.929 . S
C1377 C1369 1.433 . S
C1377 N1379 1.384 . S
N1378 C1374 1.427 . S
N1378 C1375 1.384 . S
N1379 C1371 1.427 . S
N1379 C1377 1.384 . S
H1380 C1386 0.930 . S
H1381 C1390 0.930 . S
H1382 C1395 0.929 . S
H1383 C1393 0.929 . S
H1384 C1388 0.929 . S
H1385 C1394 0.929 . S
C1386 H1380 0.930 . S
C1386 C1387 1.367 . S
C1386 C1394 1.378 . S
C1387 C1386 1.367 . S
C1387 C1395 1.433 . S
C1388 H1384 0.929 . S
C1388 C1390 1.378 . S
C1388 C1392 1.350 . S
C1389 C1392 1.463 . S
C1389 C1394 1.350 . S
C1389 N1397 1.427 . S
C1390 H1381 0.930 . S
C1390 C1388 1.378 . S
C1390 C1391 1.367 . S
C1391 C1390 1.367 . S
C1391 C1393 1.433 . S
C1392 C1388 1.350 . S
C1392 C1389 1.463 . S
C1392 N1396 1.427 . S
C1393 H1383 0.929 . S
C1393 C1391 1.433 . S
C1393 N1396 1.384 . S
C1394 H1385 0.929 . S
C1394 C1386 1.378 . S
C1394 C1389 1.350 . S
C1395 H1382 0.929 . S
C1395 C1387 1.433 . S
C1395 N1397 1.384 . S
N1396 C1392 1.427 . S
N1396 C1393 1.384 . S
N1397 C1389 1.427 . S
N1397 C1395 1.384 . S
H1398 C1404 0.930 . S
H1399 C1408 0.930 . S
H1400 C1413 0.929 . S
H1401 C1411 0.929 . S
H1402 C1406 0.929 . S
H1403 C1412 0.928 1_455 S
C1404 H1398 0.930 . S
C1404 C1405 1.367 . S
C1404 C1412 1.378 . S
C1405 C1404 1.367 . S
C1405 C1413 1.433 . S
C1406 H1402 0.929 . S
C1406 C1408 1.378 . S
C1406 C1410 1.350 . S
C1407 C1410 1.463 . S
C1407 C1412 1.350 1_455 S
C1407 N1415 1.427 . S
C1408 H1399 0.930 . S
C1408 C1406 1.378 . S
C1408 C1409 1.367 . S
C1409 C1408 1.367 . S
C1409 C1411 1.433 . S
C1410 C1406 1.350 . S
C1410 C1407 1.463 . S
C1410 N1414 1.427 . S
C1411 H1401 0.929 . S
C1411 C1409 1.433 . S
C1411 N1414 1.384 . S
C1412 H1403 0.928 1_655 S
C1412 C1404 1.378 . S
C1412 C1407 1.350 1_655 S
C1413 H1400 0.929 . S
C1413 C1405 1.433 . S
C1413 N1415 1.384 1_655 S
N1414 C1410 1.427 . S
N1414 C1411 1.384 . S
N1415 C1407 1.427 . S
N1415 C1413 1.384 1_455 S
H1416 C1422 0.930 1_655 S
H1417 C1426 0.930 . S
H1418 C1431 0.929 . S
H1419 C1429 0.929 1_655 S
H1420 C1424 0.929 . S
H1421 C1430 0.929 1_655 S
C1422 H1416 0.930 1_455 S
C1422 C1423 1.367 . S
C1422 C1430 1.378 . S
C1423 C1422 1.367 . S
C1423 C1431 1.433 . S
C1424 H1420 0.929 . S
C1424 C1426 1.378 . S
C1424 C1428 1.350 . S
C1425 C1428 1.463 . S
C1425 C1430 1.350 . S
C1425 N1433 1.427 . S
C1426 H1417 0.930 . S
C1426 C1424 1.378 . S
C1426 C1427 1.367 . S
C1427 C1426 1.367 . S
C1427 C1429 1.433 . S
C1428 C1424 1.350 . S
C1428 C1425 1.463 . S
C1428 N1432 1.427 . S
C1429 H1419 0.929 1_455 S
C1429 C1427 1.433 . S
C1429 N1432 1.384 . S
C1430 H1421 0.929 1_455 S
C1430 C1422 1.378 . S
C1430 C1425 1.350 . S
C1431 H1418 0.929 . S
C1431 C1423 1.433 . S
C1431 N1433 1.384 . S
N1432 C1428 1.427 . S
N1432 C1429 1.384 . S
N1433 C1425 1.427 . S
N1433 C1431 1.384 . S
H1434 C1440 0.930 . S
H1435 C1444 0.930 . S
H1436 C1449 0.929 . S
H1437 C1447 0.929 . S
H1438 C1442 0.929 . S
H1439 C1448 0.929 . S
C1440 H1434 0.930 . S
C1440 C1441 1.367 . S
C1440 C1448 1.378 . S
C1441 C1440 1.367 . S
C1441 C1449 1.433 . S
C1442 H1438 0.929 . S
C1442 C1444 1.378 . S
C1442 C1446 1.350 1_655 S
C1443 C1446 1.463 . S
C1443 C1448 1.350 . S
C1443 N1451 1.427 . S
C1444 H1435 0.930 . S
C1444 C1442 1.378 . S
C1444 C1445 1.367 . S
C1445 C1444 1.367 . S
C1445 C1447 1.433 . S
C1446 C1442 1.350 1_455 S
C1446 C1443 1.463 . S
C1446 N1450 1.427 1_455 S
C1447 H1437 0.929 . S
C1447 C1445 1.433 . S
C1447 N1450 1.384 . S
C1448 H1439 0.929 . S
C1448 C1440 1.378 . S
C1448 C1443 1.350 . S
C1449 H1436 0.929 . S
C1449 C1441 1.433 . S
C1449 N1451 1.384 . S
N1450 C1446 1.427 1_655 S
N1450 C1447 1.384 . S
N1451 C1443 1.427 . S
N1451 C1449 1.384 . S
H1452 C1458 0.930 . S
H1453 C1462 0.930 . S
H1454 C1467 0.929 . S
H1455 C1465 0.929 . S
H1456 C1460 0.929 . S
H1457 C1466 0.929 . S
C1458 H1452 0.930 . S
C1458 C1459 1.367 . S
C1458 C1466 1.378 . S
C1459 C1458 1.367 . S
C1459 C1467 1.433 . S
C1460 H1456 0.929 . S
C1460 C1462 1.378 1_565 S
C1460 C1464 1.350 . S
C1461 C1464 1.463 . S
C1461 C1466 1.350 . S
C1461 N1469 1.427 . S
C1462 H1453 0.930 . S
C1462 C1460 1.378 1_545 S
C1462 C1463 1.367 . S
C1463 C1462 1.367 . S
C1463 C1465 1.433 1_545 S
C1464 C1460 1.350 . S
C1464 C1461 1.463 . S
C1464 N1468 1.427 . S
C1465 H1455 0.929 . S
C1465 C1463 1.433 1_565 S
C1465 N1468 1.384 . S
C1466 H1457 0.929 . S
C1466 C1458 1.378 . S
C1466 C1461 1.350 . S
C1467 H1454 0.929 . S
C1467 C1459 1.433 . S
C1467 N1469 1.384 . S
N1468 C1464 1.427 . S
N1468 C1465 1.384 . S
N1469 C1461 1.427 . S
N1469 C1467 1.384 . S
H1470 C1476 0.930 . S
H1471 C1480 0.930 . S
H1472 C1485 0.929 . S
H1473 C1483 0.929 . S
H1474 C1478 0.929 . S
H1475 C1484 0.929 . S
C1476 H1470 0.930 . S
C1476 C1477 1.367 . S
C1476 C1484 1.378 . S
C1477 C1476 1.367 . S
C1477 C1485 1.433 . S
C1478 H1474 0.929 . S
C1478 C1480 1.378 . S
C1478 C1482 1.350 . S
C1479 C1482 1.463 . S
C1479 C1484 1.350 . S
C1479 N1487 1.427 . S
C1480 H1471 0.930 . S
C1480 C1478 1.378 . S
C1480 C1481 1.367 . S
C1481 C1480 1.367 . S
C1481 C1483 1.433 . S
C1482 C1478 1.350 . S
C1482 C1479 1.463 . S
C1482 N1486 1.427 . S
C1483 H1473 0.929 . S
C1483 C1481 1.433 . S
C1483 N1486 1.384 . S
C1484 H1475 0.929 . S
C1484 C1476 1.378 . S
C1484 C1479 1.350 . S
C1485 H1472 0.929 . S
C1485 C1477 1.433 . S
C1485 N1487 1.384 . S
N1486 C1482 1.427 . S
N1486 C1483 1.384 . S
N1487 C1479 1.427 . S
N1487 C1485 1.384 . S
H1488 C1494 0.930 1_655 S
H1489 C1498 0.930 . S
H1490 C1503 0.929 . S
H1491 C1501 0.929 . S
H1492 C1496 0.929 . S
H1493 C1502 0.929 1_655 S
C1494 H1488 0.930 1_455 S
C1494 C1495 1.367 . S
C1494 C1502 1.378 . S
C1495 C1494 1.367 . S
C1495 C1503 1.433 . S
C1496 H1492 0.929 . S
C1496 C1498 1.378 . S
C1496 C1500 1.350 . S
C1497 C1500 1.463 . S
C1497 C1502 1.350 . S
C1497 N1505 1.427 . S
C1498 H1489 0.930 . S
C1498 C1496 1.378 . S
C1498 C1499 1.367 . S
C1499 C1498 1.367 . S
C1499 C1501 1.433 . S
C1500 C1496 1.350 . S
C1500 C1497 1.463 . S
C1500 N1504 1.427 . S
C1501 H1491 0.929 . S
C1501 C1499 1.433 . S
C1501 N1504 1.384 . S
C1502 H1493 0.929 1_455 S
C1502 C1494 1.378 . S
C1502 C1497 1.350 . S
C1503 H1490 0.929 . S
C1503 C1495 1.433 . S
C1503 N1505 1.384 . S
N1504 C1500 1.427 . S
N1504 C1501 1.384 . S
N1505 C1497 1.427 . S
N1505 C1503 1.384 . S
H1506 C1512 0.930 . S
H1507 C1516 0.930 . S
H1508 C1521 0.929 . S
H1509 C1519 0.929 . S
H1510 C1514 0.929 . S
H1511 C1520 0.929 . S
C1512 H1506 0.930 . S
C1512 C1513 1.367 . S
C1512 C1520 1.378 . S
C1513 C1512 1.367 . S
C1513 C1521 1.433 . S
C1514 H1510 0.929 . S
C1514 C1516 1.378 1_455 S
C1514 C1518 1.350 . S
C1515 C1518 1.463 . S
C1515 C1520 1.350 . S
C1515 N1523 1.427 . S
C1516 H1507 0.930 . S
C1516 C1514 1.378 1_655 S
C1516 C1517 1.367 . S
C1517 C1516 1.367 . S
C1517 C1519 1.433 . S
C1518 C1514 1.350 . S
C1518 C1515 1.463 . S
C1518 N1522 1.436 . S
C1519 H1509 0.929 . S
C1519 C1517 1.433 . S
C1519 N1522 1.363 1_655 S
C1520 H1511 0.929 . S
C1520 C1512 1.378 . S
C1520 C1515 1.350 . S
C1521 H1508 0.929 . S
C1521 C1513 1.433 . S
C1521 N1523 1.384 . S
N1522 C1518 1.436 . S
N1522 C1519 1.363 1_455 S
N1523 C1515 1.427 . S
N1523 C1521 1.384 . S
H1524 C1530 0.930 . S
H1525 C1534 0.930 . S
H1526 C1539 0.929 . S
H1527 C1537 0.929 . S
H1528 C1532 0.929 . S
H1529 C1538 0.929 . S
C1530 H1524 0.930 . S
C1530 C1531 1.367 . S
C1530 C1538 1.378 . S
C1531 C1530 1.367 . S
C1531 C1539 1.433 . S
C1532 H1528 0.929 . S
C1532 C1534 1.378 . S
C1532 C1536 1.350 . S
C1533 C1536 1.463 . S
C1533 C1538 1.350 . S
C1533 N1541 1.427 . S
C1534 H1525 0.930 . S
C1534 C1532 1.378 . S
C1534 C1535 1.367 . S
C1535 C1534 1.367 . S
C1535 C1537 1.433 . S
C1536 C1532 1.350 . S
C1536 C1533 1.463 . S
C1536 N1540 1.427 . S
C1537 H1527 0.929 . S
C1537 C1535 1.433 . S
C1537 N1540 1.384 . S
C1538 H1529 0.929 . S
C1538 C1530 1.378 . S
C1538 C1533 1.350 . S
C1539 H1526 0.929 . S
C1539 C1531 1.433 . S
C1539 N1541 1.384 . S
N1540 C1536 1.427 . S
N1540 C1537 1.384 . S
N1541 C1533 1.427 . S
N1541 C1539 1.384 . S
H1542 C1548 0.930 . S
H1543 C1552 0.930 . S
H1544 C1557 0.929 . S
H1545 C1555 0.929 . S
H1546 C1550 0.929 . S
H1547 C1556 0.929 . S
C1548 H1542 0.930 . S
C1548 C1549 1.367 . S
C1548 C1556 1.378 . S
C1549 C1548 1.367 . S
C1549 C1557 1.433 . S
C1550 H1546 0.929 . S
C1550 C1552 1.378 . S
C1550 C1554 1.350 . S
C1551 C1554 1.463 . S
C1551 C1556 1.350 . S
C1551 N1559 1.427 . S
C1552 H1543 0.930 . S
C1552 C1550 1.378 . S
C1552 C1553 1.367 . S
C1553 C1552 1.367 . S
C1553 C1555 1.433 . S
C1554 C1550 1.350 . S
C1554 C1551 1.463 . S
C1554 N1558 1.427 . S
C1555 H1545 0.929 . S
C1555 C1553 1.433 . S
C1555 N1558 1.384 . S
C1556 H1547 0.929 . S
C1556 C1548 1.378 . S
C1556 C1551 1.350 . S
C1557 H1544 0.929 . S
C1557 C1549 1.433 . S
C1557 N1559 1.384 . S
N1558 C1554 1.427 . S
N1558 C1555 1.384 . S
N1559 C1551 1.427 . S
N1559 C1557 1.384 . S
H1560 C1566 0.930 . S
H1561 C1570 0.930 . S
H1562 C1575 0.929 1_655 S
H1563 C1573 0.929 . S
H1564 C1568 0.929 1_655 S
H1565 C1574 0.929 . S
C1566 H1560 0.930 . S
C1566 C1567 1.367 . S
C1566 C1574 1.378 . S
C1567 C1566 1.367 . S
C1567 C1575 1.433 . S
C1568 H1564 0.929 1_455 S
C1568 C1570 1.378 1_565 S
C1568 C1572 1.350 . S
C1569 C1572 1.463 . S
C1569 C1574 1.350 . S
C1569 N1577 1.427 . S
C1570 H1561 0.930 . S
C1570 C1568 1.378 1_545 S
C1570 C1571 1.367 . S
C1571 C1570 1.367 . S
C1571 C1573 1.433 . S
C1572 C1568 1.350 . S
C1572 C1569 1.463 . S
C1572 N1576 1.427 . S
C1573 H1563 0.929 . S
C1573 C1571 1.433 . S
C1573 N1576 1.384 1_545 S
C1574 H1565 0.929 . S
C1574 C1566 1.378 . S
C1574 C1569 1.350 . S
C1575 H1562 0.929 1_455 S
C1575 C1567 1.433 . S
C1575 N1577 1.384 . S
N1576 C1572 1.427 . S
N1576 C1573 1.384 1_565 S
N1577 C1569 1.427 . S
N1577 C1575 1.384 . S
H1578 C1584 0.930 . S
H1579 C1588 0.930 . S
H1580 C1593 0.929 . S
H1581 C1591 0.929 . S
H1582 C1586 0.929 . S
H1583 C1592 0.929 . S
C1584 H1578 0.930 . S
C1584 C1585 1.367 . S
C1584 C1592 1.378 . S
C1585 C1584 1.367 . S
C1585 C1593 1.433 . S
C1586 H1582 0.929 . S
C1586 C1588 1.378 . S
C1586 C1590 1.350 . S
C1587 C1590 1.463 . S
C1587 C1592 1.350 . S
C1587 N1595 1.427 . S
C1588 H1579 0.930 . S
C1588 C1586 1.378 . S
C1588 C1589 1.367 . S
C1589 C1588 1.367 . S
C1589 C1591 1.433 . S
C1590 C1586 1.350 . S
C1590 C1587 1.463 . S
C1590 N1594 1.427 . S
C1591 H1581 0.929 . S
C1591 C1589 1.433 . S
C1591 N1594 1.384 . S
C1592 H1583 0.929 . S
C1592 C1584 1.378 . S
C1592 C1587 1.350 . S
C1593 H1580 0.929 . S
C1593 C1585 1.433 . S
C1593 N1595 1.384 . S
N1594 C1590 1.427 . S
N1594 C1591 1.384 . S
N1595 C1587 1.427 . S
N1595 C1593 1.384 . S
H1596 C1602 0.930 . S
H1597 C1606 0.930 . S
H1598 C1611 0.929 . S
H1599 C1609 0.929 . S
H1600 C1604 0.929 . S
H1601 C1610 0.929 . S
C1602 H1596 0.930 . S
C1602 C1603 1.367 . S
C1602 C1610 1.378 . S
C1603 C1602 1.367 . S
C1603 C1611 1.433 . S
C1604 H1600 0.929 . S
C1604 C1606 1.378 . S
C1604 C1608 1.350 . S
C1605 C1608 1.463 . S
C1605 C1610 1.350 . S
C1605 N1613 1.427 . S
C1606 H1597 0.930 . S
C1606 C1604 1.378 . S
C1606 C1607 1.367 . S
C1607 C1606 1.367 . S
C1607 C1609 1.433 . S
C1608 C1604 1.350 . S
C1608 C1605 1.463 . S
C1608 N1612 1.427 . S
C1609 H1599 0.929 . S
C1609 C1607 1.433 . S
C1609 N1612 1.384 . S
C1610 H1601 0.929 . S
C1610 C1602 1.378 . S
C1610 C1605 1.350 . S
C1611 H1598 0.929 . S
C1611 C1603 1.433 . S
C1611 N1613 1.384 . S
N1612 C1608 1.427 . S
N1612 C1609 1.384 . S
N1613 C1605 1.427 . S
N1613 C1611 1.384 . S
H1614 C1620 0.930 . S
H1615 C1624 0.930 . S
H1616 C1629 0.929 . S
H1617 C1627 0.929 . S
H1618 C1622 0.929 . S
H1619 C1628 0.929 . S
C1620 H1614 0.930 . S
C1620 C1621 1.367 . S
C1620 C1628 1.378 . S
C1621 C1620 1.367 . S
C1621 C1629 1.433 . S
C1622 H1618 0.929 . S
C1622 C1624 1.378 . S
C1622 C1626 1.350 1_655 S
C1623 C1626 1.463 . S
C1623 C1628 1.350 . S
C1623 N1631 1.427 . S
C1624 H1615 0.930 . S
C1624 C1622 1.378 . S
C1624 C1625 1.367 . S
C1625 C1624 1.367 . S
C1625 C1627 1.433 . S
C1626 C1622 1.350 1_455 S
C1626 C1623 1.463 . S
C1626 N1630 1.427 1_455 S
C1627 H1617 0.929 . S
C1627 C1625 1.433 . S
C1627 N1630 1.384 . S
C1628 H1619 0.929 . S
C1628 C1620 1.378 . S
C1628 C1623 1.350 . S
C1629 H1616 0.929 . S
C1629 C1621 1.433 . S
C1629 N1631 1.384 . S
N1630 C1626 1.427 1_655 S
N1630 C1627 1.384 . S
N1631 C1623 1.427 . S
N1631 C1629 1.384 . S
H1632 C1638 0.930 . S
H1633 C1642 0.930 . S
H1634 C1647 0.929 . S
H1635 C1645 0.929 . S
H1636 C1640 0.929 . S
H1637 C1646 0.929 . S
C1638 H1632 0.930 . S
C1638 C1639 1.367 . S
C1638 C1646 1.378 . S
C1639 C1638 1.367 . S
C1639 C1647 1.433 . S
C1640 H1636 0.929 . S
C1640 C1642 1.378 . S
C1640 C1644 1.350 . S
C1641 C1644 1.463 . S
C1641 C1646 1.350 . S
C1641 N1649 1.427 . S
C1642 H1633 0.930 . S
C1642 C1640 1.378 . S
C1642 C1643 1.367 . S
C1643 C1642 1.367 . S
C1643 C1645 1.433 . S
C1644 C1640 1.350 . S
C1644 C1641 1.463 . S
C1644 N1648 1.427 . S
C1645 H1635 0.929 . S
C1645 C1643 1.433 . S
C1645 N1648 1.384 . S
C1646 H1637 0.929 . S
C1646 C1638 1.378 . S
C1646 C1641 1.350 . S
C1647 H1634 0.929 . S
C1647 C1639 1.433 . S
C1647 N1649 1.384 . S
N1648 C1644 1.427 . S
N1648 C1645 1.384 . S
N1649 C1641 1.427 . S
N1649 C1647 1.384 . S
H1650 C1656 0.930 . S
H1651 C1660 0.930 . S
H1652 C1665 0.929 . S
H1653 C1663 0.929 . S
H1654 C1658 0.929 . S
H1655 C1664 0.929 . S
C1656 H1650 0.930 . S
C1656 C1657 1.367 . S
C1656 C1664 1.378 . S
C1657 C1656 1.367 . S
C1657 C1665 1.433 . S
C1658 H1654 0.929 . S
C1658 C1660 1.378 . S
C1658 C1662 1.350 . S
C1659 C1662 1.463 . S
C1659 C1664 1.350 . S
C1659 N1667 1.427 . S
C1660 H1651 0.930 . S
C1660 C1658 1.378 . S
C1660 C1661 1.367 . S
C1661 C1660 1.367 . S
C1661 C1663 1.433 . S
C1662 C1658 1.350 . S
C1662 C1659 1.463 . S
C1662 N1666 1.427 . S
C1663 H1653 0.929 . S
C1663 C1661 1.433 . S
C1663 N1666 1.384 . S
C1664 H1655 0.929 . S
C1664 C1656 1.378 . S
C1664 C1659 1.350 . S
C1665 H1652 0.929 . S
C1665 C1657 1.433 . S
C1665 N1667 1.384 . S
N1666 C1662 1.427 . S
N1666 C1663 1.384 . S
N1667 C1659 1.427 . S
N1667 C1665 1.384 . S
H1668 C1674 0.930 . S
H1669 C1678 0.930 . S
H1670 C1683 0.929 . S
H1671 C1681 0.929 . S
H1672 C1676 0.929 . S
H1673 C1682 0.929 . S
C1674 H1668 0.930 . S
C1674 C1675 1.367 . S
C1674 C1682 1.378 . S
C1675 C1674 1.367 . S
C1675 C1683 1.433 . S
C1676 H1672 0.929 . S
C1676 C1678 1.378 . S
C1676 C1680 1.350 . S
C1677 C1680 1.463 . S
C1677 C1682 1.350 . S
C1677 N1685 1.427 . S
C1678 H1669 0.930 . S
C1678 C1676 1.378 . S
C1678 C1679 1.367 . S
C1679 C1678 1.367 . S
C1679 C1681 1.433 . S
C1680 C1676 1.350 . S
C1680 C1677 1.463 . S
C1680 N1684 1.427 . S
C1681 H1671 0.929 . S
C1681 C1679 1.433 . S
C1681 N1684 1.384 . S
C1682 H1673 0.929 . S
C1682 C1674 1.378 . S
C1682 C1677 1.350 . S
C1683 H1670 0.929 . S
C1683 C1675 1.433 . S
C1683 N1685 1.384 . S
N1684 C1680 1.427 . S
N1684 C1681 1.384 . S
N1685 C1677 1.427 . S
N1685 C1683 1.384 . S
H1686 C1692 0.930 . S
H1687 C1696 0.930 . S
H1688 C1701 0.929 . S
H1689 C1699 0.929 . S
H1690 C1694 0.929 . S
H1691 C1700 0.929 . S
C1692 H1686 0.930 . S
C1692 C1693 1.367 . S
C1692 C1700 1.378 . S
C1693 C1692 1.367 . S
C1693 C1701 1.433 . S
C1694 H1690 0.929 . S
C1694 C1696 1.378 . S
C1694 C1698 1.350 . S
C1695 C1698 1.463 . S
C1695 C1700 1.350 . S
C1695 N1703 1.427 . S
C1696 H1687 0.930 . S
C1696 C1694 1.378 . S
C1696 C1697 1.367 . S
C1697 C1696 1.367 . S
C1697 C1699 1.433 . S
C1698 C1694 1.350 . S
C1698 C1695 1.463 . S
C1698 N1702 1.427 . S
C1699 H1689 0.929 . S
C1699 C1697 1.433 . S
C1699 N1702 1.384 . S
C1700 H1691 0.929 . S
C1700 C1692 1.378 . S
C1700 C1695 1.350 . S
C1701 H1688 0.929 . S
C1701 C1693 1.433 . S
C1701 N1703 1.384 . S
N1702 C1698 1.427 . S
N1702 C1699 1.384 . S
N1703 C1695 1.427 . S
N1703 C1701 1.384 . S
H1704 C1710 0.930 . S
H1705 C1714 0.930 . S
H1706 C1719 0.929 . S
H1707 C1717 0.929 . S
H1708 C1712 0.929 . S
H1709 C1718 0.929 . S
C1710 H1704 0.930 . S
C1710 C1711 1.367 . S
C1710 C1718 1.378 . S
C1711 C1710 1.367 . S
C1711 C1719 1.433 . S
C1712 H1708 0.929 . S
C1712 C1714 1.378 . S
C1712 C1716 1.350 . S
C1713 C1716 1.463 . S
C1713 C1718 1.350 . S
C1713 N1721 1.427 . S
C1714 H1705 0.930 . S
C1714 C1712 1.378 . S
C1714 C1715 1.367 . S
C1715 C1714 1.367 . S
C1715 C1717 1.433 . S
C1716 C1712 1.350 . S
C1716 C1713 1.463 . S
C1716 N1720 1.427 . S
C1717 H1707 0.929 . S
C1717 C1715 1.433 . S
C1717 N1720 1.384 . S
C1718 H1709 0.929 . S
C1718 C1710 1.378 . S
C1718 C1713 1.350 . S
C1719 H1706 0.929 . S
C1719 C1711 1.433 . S
C1719 N1721 1.384 . S
N1720 C1716 1.427 . S
N1720 C1717 1.384 . S
N1721 C1713 1.427 . S
N1721 C1719 1.384 . S
H1722 C1728 0.930 . S
H1723 C1732 0.930 . S
H1724 C1737 0.929 . S
H1725 C1735 0.929 . S
H1726 C1730 0.929 . S
H1727 C1736 0.929 . S
C1728 H1722 0.930 . S
C1728 C1729 1.367 1_545 S
C1728 C1736 1.378 . S
C1729 C1728 1.367 1_565 S
C1729 C1737 1.433 . S
C1730 H1726 0.929 . S
C1730 C1732 1.378 . S
C1730 C1734 1.350 . S
C1731 C1734 1.463 . S
C1731 C1736 1.350 . S
C1731 N1739 1.427 1_545 S
C1732 H1723 0.930 . S
C1732 C1730 1.378 . S
C1732 C1733 1.367 . S
C1733 C1732 1.367 . S
C1733 C1735 1.433 . S
C1734 C1730 1.350 . S
C1734 C1731 1.463 . S
C1734 N1738 1.427 . S
C1735 H1725 0.929 . S
C1735 C1733 1.433 . S
C1735 N1738 1.384 . S
C1736 H1727 0.929 . S
C1736 C1728 1.378 . S
C1736 C1731 1.350 . S
C1737 H1724 0.929 . S
C1737 C1729 1.433 . S
C1737 N1739 1.384 . S
N1738 C1734 1.427 . S
N1738 C1735 1.384 . S
N1739 C1731 1.427 1_565 S
N1739 C1737 1.384 . S
H1740 C1746 0.930 . S
H1741 C1750 0.930 . S
H1742 C1755 0.929 . S
H1743 C1753 0.929 . S
H1744 C1748 0.929 . S
H1745 C1754 0.929 . S
C1746 H1740 0.930 . S
C1746 C1747 1.367 . S
C1746 C1754 1.378 . S
C1747 C1746 1.367 . S
C1747 C1755 1.433 . S
C1748 H1744 0.929 . S
C1748 C1750 1.378 . S
C1748 C1752 1.350 . S
C1749 C1752 1.463 . S
C1749 C1754 1.350 . S
C1749 N1757 1.427 . S
C1750 H1741 0.930 . S
C1750 C1748 1.378 . S
C1750 C1751 1.367 . S
C1751 C1750 1.367 . S
C1751 C1753 1.433 . S
C1752 C1748 1.350 . S
C1752 C1749 1.463 . S
C1752 N1756 1.427 . S
C1753 H1743 0.929 . S
C1753 C1751 1.433 . S
C1753 N1756 1.384 . S
C1754 H1745 0.929 . S
C1754 C1746 1.378 . S
C1754 C1749 1.350 . S
C1755 H1742 0.929 . S
C1755 C1747 1.433 . S
C1755 N1757 1.384 . S
N1756 C1752 1.427 . S
N1756 C1753 1.384 . S
N1757 C1749 1.427 . S
N1757 C1755 1.384 . S
H1758 C1764 0.930 . S
H1759 C1768 0.930 . S
H1760 C1773 0.929 . S
H1761 C1771 0.929 . S
H1762 C1766 0.929 . S
H1763 C1772 0.929 . S
C1764 H1758 0.930 . S
C1764 C1765 1.367 . S
C1764 C1772 1.378 . S
C1765 C1764 1.367 . S
C1765 C1773 1.433 . S
C1766 H1762 0.929 . S
C1766 C1768 1.378 . S
C1766 C1770 1.350 . S
C1767 C1770 1.463 . S
C1767 C1772 1.350 . S
C1767 N1775 1.427 . S
C1768 H1759 0.930 . S
C1768 C1766 1.378 . S
C1768 C1769 1.367 . S
C1769 C1768 1.367 . S
C1769 C1771 1.433 . S
C1770 C1766 1.350 . S
C1770 C1767 1.463 . S
C1770 N1774 1.427 . S
C1771 H1761 0.929 . S
C1771 C1769 1.433 . S
C1771 N1774 1.384 . S
C1772 H1763 0.929 . S
C1772 C1764 1.378 . S
C1772 C1767 1.350 . S
C1773 H1760 0.929 . S
C1773 C1765 1.433 . S
C1773 N1775 1.384 . S
N1774 C1770 1.427 . S
N1774 C1771 1.384 . S
N1775 C1767 1.427 . S
N1775 C1773 1.384 . S
H1776 C1782 0.930 . S
H1777 C1786 0.930 . S
H1778 C1791 0.929 . S
H1779 C1789 0.929 . S
H1780 C1784 0.929 . S
H1781 C1790 0.929 . S
C1782 H1776 0.930 . S
C1782 C1783 1.367 . S
C1782 C1790 1.378 . S
C1783 C1782 1.367 . S
C1783 C1791 1.433 . S
C1784 H1780 0.929 . S
C1784 C1786 1.378 . S
C1784 C1788 1.350 . S
C1785 C1788 1.463 . S
C1785 C1790 1.350 . S
C1785 N1793 1.427 . S
C1786 H1777 0.930 . S
C1786 C1784 1.378 . S
C1786 C1787 1.367 . S
C1787 C1786 1.367 . S
C1787 C1789 1.433 . S
C1788 C1784 1.350 . S
C1788 C1785 1.463 . S
C1788 N1792 1.427 . S
C1789 H1779 0.929 . S
C1789 C1787 1.433 . S
C1789 N1792 1.384 . S
C1790 H1781 0.929 . S
C1790 C1782 1.378 . S
C1790 C1785 1.350 . S
C1791 H1778 0.929 . S
C1791 C1783 1.433 . S
C1791 N1793 1.384 . S
N1792 C1788 1.427 . S
N1792 C1789 1.384 . S
N1793 C1785 1.427 . S
N1793 C1791 1.384 . S
H1794 C1800 0.930 . S
H1795 C1804 0.930 . S
H1796 C1809 0.929 . S
H1797 C1807 0.929 . S
H1798 C1802 0.929 . S
H1799 C1808 0.929 . S
C1800 H1794 0.930 . S
C1800 C1801 1.367 . S
C1800 C1808 1.378 . S
C1801 C1800 1.367 . S
C1801 C1809 1.433 . S
C1802 H1798 0.929 . S
C1802 C1804 1.378 . S
C1802 C1806 1.350 . S
C1803 C1806 1.463 . S
C1803 C1808 1.350 . S
C1803 N1811 1.427 . S
C1804 H1795 0.930 . S
C1804 C1802 1.378 . S
C1804 C1805 1.367 . S
C1805 C1804 1.367 . S
C1805 C1807 1.433 . S
C1806 C1802 1.350 . S
C1806 C1803 1.463 . S
C1806 N1810 1.427 . S
C1807 H1797 0.929 . S
C1807 C1805 1.433 . S
C1807 N1810 1.384 . S
C1808 H1799 0.929 . S
C1808 C1800 1.378 . S
C1808 C1803 1.350 . S
C1809 H1796 0.929 . S
C1809 C1801 1.433 . S
C1809 N1811 1.384 . S
N1810 C1806 1.427 . S
N1810 C1807 1.384 . S
N1811 C1803 1.427 . S
N1811 C1809 1.384 . S
H1812 C1818 0.930 . S
H1813 C1822 0.930 . S
H1814 C1827 0.929 . S
H1815 C1825 0.929 . S
H1816 C1820 0.929 . S
H1817 C1826 0.929 . S
C1818 H1812 0.930 . S
C1818 C1819 1.367 . S
C1818 C1826 1.378 . S
C1819 C1818 1.367 . S
C1819 C1827 1.433 . S
C1820 H1816 0.929 . S
C1820 C1822 1.378 . S
C1820 C1824 1.350 . S
C1821 C1824 1.463 . S
C1821 C1826 1.350 . S
C1821 N1829 1.427 . S
C1822 H1813 0.930 . S
C1822 C1820 1.378 . S
C1822 C1823 1.367 . S
C1823 C1822 1.367 . S
C1823 C1825 1.433 . S
C1824 C1820 1.350 . S
C1824 C1821 1.463 . S
C1824 N1828 1.427 . S
C1825 H1815 0.929 . S
C1825 C1823 1.433 . S
C1825 N1828 1.384 . S
C1826 H1817 0.929 . S
C1826 C1818 1.378 . S
C1826 C1821 1.350 . S
C1827 H1814 0.929 . S
C1827 C1819 1.433 . S
C1827 N1829 1.384 . S
N1828 C1824 1.427 . S
N1828 C1825 1.384 . S
N1829 C1821 1.427 . S
N1829 C1827 1.384 . S
H1830 C1836 0.930 . S
H1831 C1840 0.930 . S
H1832 C1845 0.929 . S
H1833 C1843 0.929 . S
H1834 C1838 0.929 . S
H1835 C1844 0.929 . S
C1836 H1830 0.930 . S
C1836 C1837 1.367 . S
C1836 C1844 1.378 . S
C1837 C1836 1.367 . S
C1837 C1845 1.433 . S
C1838 H1834 0.929 . S
C1838 C1840 1.378 1_565 S
C1838 C1842 1.350 . S
C1839 C1842 1.463 . S
C1839 C1844 1.350 . S
C1839 N1847 1.427 . S
C1840 H1831 0.930 . S
C1840 C1838 1.378 1_545 S
C1840 C1841 1.367 . S
C1841 C1840 1.367 . S
C1841 C1843 1.433 . S
C1842 C1838 1.350 . S
C1842 C1839 1.463 . S
C1842 N1846 1.427 1_565 S
C1843 H1833 0.929 . S
C1843 C1841 1.433 . S
C1843 N1846 1.384 . S
C1844 H1835 0.929 . S
C1844 C1836 1.378 . S
C1844 C1839 1.350 . S
C1845 H1832 0.929 . S
C1845 C1837 1.433 . S
C1845 N1847 1.384 . S
N1846 C1842 1.427 1_545 S
N1846 C1843 1.384 . S
N1847 C1839 1.427 . S
N1847 C1845 1.384 . S
H1848 C1854 0.930 . S
H1849 C1858 0.930 . S
H1850 C1863 0.929 . S
H1851 C1861 0.929 . S
H1852 C1856 0.929 . S
H1853 C1862 0.929 . S
C1854 H1848 0.930 . S
C1854 C1855 1.367 . S
C1854 C1862 1.378 . S
C1855 C1854 1.367 . S
C1855 C1863 1.433 . S
C1856 H1852 0.929 . S
C1856 C1858 1.378 . S
C1856 C1860 1.350 . S
C1857 C1860 1.463 . S
C1857 C1862 1.350 . S
C1857 N1865 1.427 . S
C1858 H1849 0.930 . S
C1858 C1856 1.378 . S
C1858 C1859 1.367 . S
C1859 C1858 1.367 . S
C1859 C1861 1.433 . S
C1860 C1856 1.350 . S
C1860 C1857 1.463 . S
C1860 N1864 1.427 . S
C1861 H1851 0.929 . S
C1861 C1859 1.433 . S
C1861 N1864 1.384 . S
C1862 H1853 0.929 . S
C1862 C1854 1.378 . S
C1862 C1857 1.350 . S
C1863 H1850 0.929 . S
C1863 C1855 1.433 . S
C1863 N1865 1.384 . S
N1864 C1860 1.427 . S
N1864 C1861 1.384 . S
N1865 C1857 1.427 . S
N1865 C1863 1.384 . S
H1866 C1872 0.930 . S
H1867 C1876 0.930 . S
H1868 C1881 0.929 . S
H1869 C1879 0.929 . S
H1870 C1874 0.929 . S
H1871 C1880 0.929 . S
C1872 H1866 0.930 . S
C1872 C1873 1.367 . S
C1872 C1880 1.378 . S
C1873 C1872 1.367 . S
C1873 C1881 1.433 . S
C1874 H1870 0.929 . S
C1874 C1876 1.378 . S
C1874 C1878 1.350 . S
C1875 C1878 1.463 . S
C1875 C1880 1.350 . S
C1875 N1883 1.427 . S
C1876 H1867 0.930 . S
C1876 C1874 1.378 . S
C1876 C1877 1.367 . S
C1877 C1876 1.367 . S
C1877 C1879 1.433 . S
C1878 C1874 1.350 . S
C1878 C1875 1.463 . S
C1878 N1882 1.427 . S
C1879 H1869 0.929 . S
C1879 C1877 1.433 . S
C1879 N1882 1.384 . S
C1880 H1871 0.929 . S
C1880 C1872 1.378 . S
C1880 C1875 1.350 . S
C1881 H1868 0.929 . S
C1881 C1873 1.433 . S
C1881 N1883 1.384 . S
N1882 C1878 1.427 . S
N1882 C1879 1.384 . S
N1883 C1875 1.427 . S
N1883 C1881 1.384 . S
H1884 C1890 0.930 . S
H1885 C1894 0.930 . S
H1886 C1899 0.929 . S
H1887 C1897 0.929 . S
H1888 C1892 0.929 . S
H1889 C1898 0.929 . S
C1890 H1884 0.930 . S
C1890 C1891 1.367 . S
C1890 C1898 1.378 . S
C1891 C1890 1.367 . S
C1891 C1899 1.433 . S
C1892 H1888 0.929 . S
C1892 C1894 1.378 . S
C1892 C1896 1.350 . S
C1893 C1896 1.463 . S
C1893 C1898 1.350 . S
C1893 N1901 1.427 . S
C1894 H1885 0.930 . S
C1894 C1892 1.378 . S
C1894 C1895 1.367 . S
C1895 C1894 1.367 . S
C1895 C1897 1.433 . S
C1896 C1892 1.350 . S
C1896 C1893 1.463 . S
C1896 N1900 1.427 . S
C1897 H1887 0.929 . S
C1897 C1895 1.433 . S
C1897 N1900 1.384 . S
C1898 H1889 0.929 . S
C1898 C1890 1.378 . S
C1898 C1893 1.350 . S
C1899 H1886 0.929 . S
C1899 C1891 1.433 . S
C1899 N1901 1.384 . S
N1900 C1896 1.427 . S
N1900 C1897 1.384 . S
N1901 C1893 1.427 . S
N1901 C1899 1.384 . S
H1902 C1908 0.930 . S
H1903 C1912 0.930 . S
H1904 C1917 0.929 . S
H1905 C1915 0.929 . S
H1906 C1910 0.929 . S
H1907 C1916 0.929 . S
C1908 H1902 0.930 . S
C1908 C1909 1.367 . S
C1908 C1916 1.378 . S
C1909 C1908 1.367 . S
C1909 C1917 1.433 . S
C1910 H1906 0.929 . S
C1910 C1912 1.378 . S
C1910 C1914 1.350 . S
C1911 C1914 1.463 . S
C1911 C1916 1.350 . S
C1911 N1919 1.427 . S
C1912 H1903 0.930 . S
C1912 C1910 1.378 . S
C1912 C1913 1.367 . S
C1913 C1912 1.367 . S
C1913 C1915 1.433 . S
C1914 C1910 1.350 . S
C1914 C1911 1.463 . S
C1914 N1918 1.427 . S
C1915 H1905 0.929 . S
C1915 C1913 1.433 . S
C1915 N1918 1.384 . S
C1916 H1907 0.929 . S
C1916 C1908 1.378 . S
C1916 C1911 1.350 . S
C1917 H1904 0.929 . S
C1917 C1909 1.433 . S
C1917 N1919 1.384 . S
N1918 C1914 1.427 . S
N1918 C1915 1.384 . S
N1919 C1911 1.427 . S
N1919 C1917 1.384 . S
H1920 C1926 0.930 . S
H1921 C1930 0.930 . S
H1922 C1935 0.929 . S
H1923 C1933 0.929 . S
H1924 C1928 0.929 . S
H1925 C1934 0.929 . S
C1926 H1920 0.930 . S
C1926 C1927 1.367 . S
C1926 C1934 1.378 . S
C1927 C1926 1.367 . S
C1927 C1935 1.433 . S
C1928 H1924 0.929 . S
C1928 C1930 1.378 . S
C1928 C1932 1.350 . S
C1929 C1932 1.463 . S
C1929 C1934 1.350 . S
C1929 N1937 1.427 . S
C1930 H1921 0.930 . S
C1930 C1928 1.378 . S
C1930 C1931 1.367 . S
C1931 C1930 1.367 . S
C1931 C1933 1.433 . S
C1932 C1928 1.350 . S
C1932 C1929 1.463 . S
C1932 N1936 1.427 . S
C1933 H1923 0.929 . S
C1933 C1931 1.433 . S
C1933 N1936 1.384 . S
C1934 H1925 0.929 . S
C1934 C1926 1.378 . S
C1934 C1929 1.350 . S
C1935 H1922 0.929 . S
C1935 C1927 1.433 . S
C1935 N1937 1.384 . S
N1936 C1932 1.427 . S
N1936 C1933 1.384 . S
N1937 C1929 1.427 . S
N1937 C1935 1.384 . S
H1938 C1944 0.930 . S
H1939 C1948 0.930 . S
H1940 C1953 0.929 . S
H1941 C1951 0.929 . S
H1942 C1946 0.929 . S
H1943 C1952 0.929 . S
C1944 H1938 0.930 . S
C1944 C1945 1.367 . S
C1944 C1952 1.378 . S
C1945 C1944 1.367 . S
C1945 C1953 1.433 . S
C1946 H1942 0.929 . S
C1946 C1948 1.378 . S
C1946 C1950 1.350 . S
C1947 C1950 1.463 . S
C1947 C1952 1.350 . S
C1947 N1955 1.427 . S
C1948 H1939 0.930 . S
C1948 C1946 1.378 . S
C1948 C1949 1.367 . S
C1949 C1948 1.367 . S
C1949 C1951 1.433 . S
C1950 C1946 1.350 . S
C1950 C1947 1.463 . S
C1950 N1954 1.427 . S
C1951 H1941 0.929 . S
C1951 C1949 1.433 . S
C1951 N1954 1.384 . S
C1952 H1943 0.929 . S
C1952 C1944 1.378 . S
C1952 C1947 1.350 . S
C1953 H1940 0.929 . S
C1953 C1945 1.433 . S
C1953 N1955 1.384 . S
N1954 C1950 1.427 . S
N1954 C1951 1.384 . S
N1955 C1947 1.427 . S
N1955 C1953 1.384 . S
H1956 C1962 0.930 . S
H1957 C1966 0.930 . S
H1958 C1971 0.929 . S
H1959 C1969 0.929 . S
H1960 C1964 0.929 . S
H1961 C1970 0.929 . S
C1962 H1956 0.930 . S
C1962 C1963 1.367 . S
C1962 C1970 1.378 . S
C1963 C1962 1.367 . S
C1963 C1971 1.433 . S
C1964 H1960 0.929 . S
C1964 C1966 1.378 . S
C1964 C1968 1.350 . S
C1965 C1968 1.463 . S
C1965 C1970 1.350 . S
C1965 N1973 1.427 . S
C1966 H1957 0.930 . S
C1966 C1964 1.378 . S
C1966 C1967 1.367 . S
C1967 C1966 1.367 . S
C1967 C1969 1.433 . S
C1968 C1964 1.350 . S
C1968 C1965 1.463 . S
C1968 N1972 1.427 . S
C1969 H1959 0.929 . S
C1969 C1967 1.433 . S
C1969 N1972 1.384 . S
C1970 H1961 0.929 . S
C1970 C1962 1.378 . S
C1970 C1965 1.350 . S
C1971 H1958 0.929 . S
C1971 C1963 1.433 . S
C1971 N1973 1.384 . S
N1972 C1968 1.427 . S
N1972 C1969 1.384 . S
N1973 C1965 1.427 . S
N1973 C1971 1.384 . S
H1974 C1980 0.930 . S
H1975 C1984 0.930 . S
H1976 C1989 0.929 . S
H1977 C1987 0.929 . S
H1978 C1982 0.929 . S
H1979 C1988 0.929 . S
C1980 H1974 0.930 . S
C1980 C1981 1.367 1_554 S
C1980 C1988 1.378 . S
C1981 C1980 1.367 1_556 S
C1981 C1989 1.433 . S
C1982 H1978 0.929 . S
C1982 C1984 1.378 . S
C1982 C1986 1.350 . S
C1983 C1986 1.463 . S
C1983 C1988 1.350 . S
C1983 N1991 1.427 1_554 S
C1984 H1975 0.930 . S
C1984 C1982 1.378 . S
C1984 C1985 1.367 . S
C1985 C1984 1.367 . S
C1985 C1987 1.433 . S
C1986 C1982 1.350 . S
C1986 C1983 1.463 . S
C1986 N1990 1.427 . S
C1987 H1977 0.929 . S
C1987 C1985 1.433 . S
C1987 N1990 1.384 . S
C1988 H1979 0.929 . S
C1988 C1980 1.378 . S
C1988 C1983 1.350 . S
C1989 H1976 0.929 . S
C1989 C1981 1.433 . S
C1989 N1991 1.384 . S
N1990 C1986 1.427 . S
N1990 C1987 1.384 . S
N1991 C1983 1.427 1_556 S
N1991 C1989 1.384 . S
H1992 C1998 0.930 . S
H1993 C2002 0.930 . S
H1994 C2007 0.929 . S
H1995 C2005 0.929 . S
H1996 C2000 0.929 . S
H1997 C2006 0.929 . S
C1998 H1992 0.930 . S
C1998 C1999 1.367 . S
C1998 C2006 1.378 . S
C1999 C1998 1.367 . S
C1999 C2007 1.433 . S
C2000 H1996 0.929 . S
C2000 C2002 1.378 . S
C2000 C2004 1.350 . S
C2001 C2004 1.463 . S
C2001 C2006 1.350 . S
C2001 N2009 1.427 . S
C2002 H1993 0.930 . S
C2002 C2000 1.378 . S
C2002 C2003 1.367 . S
C2003 C2002 1.367 . S
C2003 C2005 1.433 . S
C2004 C2000 1.350 . S
C2004 C2001 1.463 . S
C2004 N2008 1.427 . S
C2005 H1995 0.929 . S
C2005 C2003 1.433 . S
C2005 N2008 1.384 . S
C2006 H1997 0.929 . S
C2006 C1998 1.378 . S
C2006 C2001 1.350 . S
C2007 H1994 0.929 . S
C2007 C1999 1.433 . S
C2007 N2009 1.384 . S
N2008 C2004 1.427 . S
N2008 C2005 1.384 . S
N2009 C2001 1.427 . S
N2009 C2007 1.384 . S
H2010 C2016 0.930 . S
H2011 C2020 0.930 . S
H2012 C2025 0.929 . S
H2013 C2023 0.929 . S
H2014 C2018 0.929 . S
H2015 C2024 0.929 . S
C2016 H2010 0.930 . S
C2016 C2017 1.367 . S
C2016 C2024 1.378 . S
C2017 C2016 1.367 . S
C2017 C2025 1.433 . S
C2018 H2014 0.929 . S
C2018 C2020 1.378 . S
C2018 C2022 1.350 . S
C2019 C2022 1.463 . S
C2019 C2024 1.350 . S
C2019 N2027 1.427 . S
C2020 H2011 0.930 . S
C2020 C2018 1.378 . S
C2020 C2021 1.367 . S
C2021 C2020 1.367 . S
C2021 C2023 1.433 . S
C2022 C2018 1.350 . S
C2022 C2019 1.463 . S
C2022 N2026 1.427 . S
C2023 H2013 0.929 . S
C2023 C2021 1.433 . S
C2023 N2026 1.384 . S
C2024 H2015 0.929 . S
C2024 C2016 1.378 . S
C2024 C2019 1.350 . S
C2025 H2012 0.929 . S
C2025 C2017 1.433 . S
C2025 N2027 1.384 . S
N2026 C2022 1.427 . S
N2026 C2023 1.384 . S
N2027 C2019 1.427 . S
N2027 C2025 1.384 . S
H2028 C2034 0.930 . S
H2029 C2038 0.930 . S
H2030 C2043 0.929 . S
H2031 C2041 0.929 . S
H2032 C2036 0.929 . S
H2033 C2042 0.929 . S
C2034 H2028 0.930 . S
C2034 C2035 1.367 . S
C2034 C2042 1.378 . S
C2035 C2034 1.367 . S
C2035 C2043 1.433 . S
C2036 H2032 0.929 . S
C2036 C2038 1.378 . S
C2036 C2040 1.350 . S
C2037 C2040 1.463 . S
C2037 C2042 1.350 . S
C2037 N2045 1.427 . S
C2038 H2029 0.930 . S
C2038 C2036 1.378 . S
C2038 C2039 1.367 . S
C2039 C2038 1.367 . S
C2039 C2041 1.433 . S
C2040 C2036 1.350 . S
C2040 C2037 1.463 . S
C2040 N2044 1.427 . S
C2041 H2031 0.929 . S
C2041 C2039 1.433 . S
C2041 N2044 1.384 . S
C2042 H2033 0.929 . S
C2042 C2034 1.378 . S
C2042 C2037 1.350 . S
C2043 H2030 0.929 . S
C2043 C2035 1.433 . S
C2043 N2045 1.384 . S
N2044 C2040 1.427 . S
N2044 C2041 1.384 . S
N2045 C2037 1.427 . S
N2045 C2043 1.384 . S
H2046 C2052 0.930 . S
H2047 C2056 0.930 . S
H2048 C2061 0.929 . S
H2049 C2059 0.929 . S
H2050 C2054 0.929 . S
H2051 C2060 0.980 . S
C2052 H2046 0.930 . S
C2052 C2053 1.367 . S
C2052 C2060 1.341 1_554 S
C2053 C2052 1.367 . S
C2053 C2061 1.433 . S
C2054 H2050 0.929 . S
C2054 C2056 1.378 . S
C2054 C2058 1.363 . S
C2055 C2058 1.492 . S
C2055 C2060 1.336 1_554 S
C2055 N2063 1.427 . S
C2056 H2047 0.930 . S
C2056 C2054 1.378 . S
C2056 C2057 1.367 1_554 S
C2057 C2056 1.367 1_556 S
C2057 C2059 1.433 . S
C2058 C2054 1.363 . S
C2058 C2055 1.492 . S
C2058 N2062 1.385 1_554 S
C2059 H2049 0.929 . S
C2059 C2057 1.433 . S
C2059 N2062 1.384 . S
C2060 H2051 0.980 . S
C2060 C2052 1.341 1_556 S
C2060 C2055 1.336 1_556 S
C2061 H2048 0.929 . S
C2061 C2053 1.433 . S
C2061 N2063 1.384 . S
N2062 C2058 1.385 1_556 S
N2062 C2059 1.384 . S
N2063 C2055 1.427 . S
N2063 C2061 1.384 . S
H2064 C2070 0.930 . S
H2065 C2074 0.930 . S
H2066 C2079 0.929 . S
H2067 C2077 0.929 . S
H2068 C2072 0.929 . S
H2069 C2078 0.929 . S
C2070 H2064 0.930 . S
C2070 C2071 1.367 . S
C2070 C2078 1.378 . S
C2071 C2070 1.367 . S
C2071 C2079 1.433 . S
C2072 H2068 0.929 . S
C2072 C2074 1.378 . S
C2072 C2076 1.350 . S
C2073 C2076 1.463 . S
C2073 C2078 1.350 . S
C2073 N2081 1.427 . S
C2074 H2065 0.930 . S
C2074 C2072 1.378 . S
C2074 C2075 1.367 . S
C2075 C2074 1.367 . S
C2075 C2077 1.433 . S
C2076 C2072 1.350 . S
C2076 C2073 1.463 . S
C2076 N2080 1.427 . S
C2077 H2067 0.929 . S
C2077 C2075 1.433 . S
C2077 N2080 1.384 . S
C2078 H2069 0.929 . S
C2078 C2070 1.378 . S
C2078 C2073 1.350 . S
C2079 H2066 0.929 . S
C2079 C2071 1.433 . S
C2079 N2081 1.384 . S
N2080 C2076 1.427 . S
N2080 C2077 1.384 . S
N2081 C2073 1.427 . S
N2081 C2079 1.384 . S
H2082 C2088 0.930 . S
H2083 C2092 0.930 . S
H2084 C2097 0.929 . S
H2085 C2095 0.929 . S
H2086 C2090 0.929 . S
H2087 C2096 0.937 . S
C2088 H2082 0.930 . S
C2088 C2089 1.367 . S
C2088 C2096 1.378 . S
C2089 C2088 1.367 . S
C2089 C2097 1.433 . S
C2090 H2086 0.929 . S
C2090 C2092 1.378 . S
C2090 C2094 1.350 . S
C2091 C2094 1.463 . S
C2091 C2096 1.350 1_554 S
C2091 N2099 1.427 1_554 S
C2092 H2083 0.930 . S
C2092 C2090 1.378 . S
C2092 C2093 1.367 . S
C2093 C2092 1.367 . S
C2093 C2095 1.433 . S
C2094 C2090 1.350 . S
C2094 C2091 1.463 . S
C2094 N2098 1.427 . S
C2095 H2085 0.929 . S
C2095 C2093 1.433 . S
C2095 N2098 1.384 . S
C2096 H2087 0.937 . S
C2096 C2088 1.378 . S
C2096 C2091 1.350 1_556 S
C2097 H2084 0.929 . S
C2097 C2089 1.433 . S
C2097 N2099 1.384 . S
N2098 C2094 1.427 . S
N2098 C2095 1.384 . S
N2099 C2091 1.427 1_556 S
N2099 C2097 1.384 . S
H2100 C2106 0.930 . S
H2101 C2110 0.930 . S
H2102 C2115 0.929 . S
H2103 C2113 0.929 . S
H2104 C2108 0.929 . S
H2105 C2114 0.929 . S
C2106 H2100 0.930 . S
C2106 C2107 1.367 . S
C2106 C2114 1.378 . S
C2107 C2106 1.367 . S
C2107 C2115 1.433 . S
C2108 H2104 0.929 . S
C2108 C2110 1.378 . S
C2108 C2112 1.350 . S
C2109 C2112 1.463 . S
C2109 C2114 1.350 . S
C2109 N2117 1.427 . S
C2110 H2101 0.930 . S
C2110 C2108 1.378 . S
C2110 C2111 1.367 . S
C2111 C2110 1.367 . S
C2111 C2113 1.433 . S
C2112 C2108 1.350 . S
C2112 C2109 1.463 . S
C2112 N2116 1.427 . S
C2113 H2103 0.929 . S
C2113 C2111 1.433 . S
C2113 N2116 1.384 . S
C2114 H2105 0.929 . S
C2114 C2106 1.378 . S
C2114 C2109 1.350 . S
C2115 H2102 0.929 . S
C2115 C2107 1.433 . S
C2115 N2117 1.384 . S
N2116 C2112 1.427 . S
N2116 C2113 1.384 . S
N2117 C2109 1.427 . S
N2117 C2115 1.384 . S
H2118 C2124 0.930 . S
H2119 C2128 0.930 . S
H2120 C2133 0.929 . S
H2121 C2131 0.929 . S
H2122 C2126 0.929 . S
H2123 C2132 0.929 . S
C2124 H2118 0.930 . S
C2124 C2125 1.367 . S
C2124 C2132 1.378 . S
C2125 C2124 1.367 . S
C2125 C2133 1.433 . S
C2126 H2122 0.929 . S
C2126 C2128 1.378 . S
C2126 C2130 1.350 . S
C2127 C2130 1.463 . S
C2127 C2132 1.350 . S
C2127 N2135 1.427 . S
C2128 H2119 0.930 . S
C2128 C2126 1.378 . S
C2128 C2129 1.367 . S
C2129 C2128 1.367 . S
C2129 C2131 1.433 . S
C2130 C2126 1.350 . S
C2130 C2127 1.463 . S
C2130 N2134 1.427 . S
C2131 H2121 0.929 . S
C2131 C2129 1.433 . S
C2131 N2134 1.384 . S
C2132 H2123 0.929 . S
C2132 C2124 1.378 . S
C2132 C2127 1.350 . S
C2133 H2120 0.929 . S
C2133 C2125 1.433 . S
C2133 N2135 1.384 . S
N2134 C2130 1.427 . S
N2134 C2131 1.384 . S
N2135 C2127 1.427 . S
N2135 C2133 1.384 . S
H2136 C2142 0.930 . S
H2137 C2146 0.930 . S
H2138 C2151 0.929 . S
H2139 C2149 0.929 . S
H2140 C2144 0.929 . S
H2141 C2150 0.929 . S
C2142 H2136 0.930 . S
C2142 C2143 1.367 . S
C2142 C2150 1.378 . S
C2143 C2142 1.367 . S
C2143 C2151 1.433 . S
C2144 H2140 0.929 . S
C2144 C2146 1.378 . S
C2144 C2148 1.350 . S
C2145 C2148 1.463 . S
C2145 C2150 1.350 . S
C2145 N2153 1.427 . S
C2146 H2137 0.930 . S
C2146 C2144 1.378 . S
C2146 C2147 1.367 . S
C2147 C2146 1.367 . S
C2147 C2149 1.433 . S
C2148 C2144 1.350 . S
C2148 C2145 1.463 . S
C2148 N2152 1.427 . S
C2149 H2139 0.929 . S
C2149 C2147 1.433 . S
C2149 N2152 1.384 . S
C2150 H2141 0.929 . S
C2150 C2142 1.378 . S
C2150 C2145 1.350 . S
C2151 H2138 0.929 . S
C2151 C2143 1.433 . S
C2151 N2153 1.384 . S
N2152 C2148 1.427 . S
N2152 C2149 1.384 . S
N2153 C2145 1.427 . S
N2153 C2151 1.384 . S
H2154 C2160 0.930 . S
H2155 C2164 0.930 . S
H2156 C2169 0.929 . S
H2157 C2167 0.929 . S
H2158 C2162 0.929 . S
H2159 C2168 0.933 . S
C2160 H2154 0.930 . S
C2160 C2161 1.367 . S
C2160 C2168 1.378 . S
C2161 C2160 1.367 . S
C2161 C2169 1.433 . S
C2162 H2158 0.929 . S
C2162 C2164 1.378 1_554 S
C2162 C2166 1.350 . S
C2163 C2166 1.463 . S
C2163 C2168 1.350 . S
C2163 N2171 1.427 . S
C2164 H2155 0.930 . S
C2164 C2162 1.378 1_556 S
C2164 C2165 1.367 . S
C2165 C2164 1.367 . S
C2165 C2167 1.433 . S
C2166 C2162 1.350 . S
C2166 C2163 1.463 . S
C2166 N2170 1.427 1_554 S
C2167 H2157 0.929 . S
C2167 C2165 1.433 . S
C2167 N2170 1.384 . S
C2168 H2159 0.933 . S
C2168 C2160 1.378 . S
C2168 C2163 1.350 . S
C2169 H2156 0.929 . S
C2169 C2161 1.433 . S
C2169 N2171 1.384 . S
N2170 C2166 1.427 1_556 S
N2170 C2167 1.384 . S
N2171 C2163 1.427 . S
N2171 C2169 1.384 . S
H2172 C2178 0.930 . S
H2173 C2182 0.930 . S
H2174 C2187 0.929 . S
H2175 C2185 0.929 . S
H2176 C2180 0.929 . S
H2177 C2186 0.929 . S
C2178 H2172 0.930 . S
C2178 C2179 1.367 . S
C2178 C2186 1.378 . S
C2179 C2178 1.367 . S
C2179 C2187 1.433 . S
C2180 H2176 0.929 . S
C2180 C2182 1.378 . S
C2180 C2184 1.350 . S
C2181 C2184 1.463 . S
C2181 C2186 1.350 . S
C2181 N2189 1.427 . S
C2182 H2173 0.930 . S
C2182 C2180 1.378 . S
C2182 C2183 1.367 . S
C2183 C2182 1.367 . S
C2183 C2185 1.433 . S
C2184 C2180 1.350 . S
C2184 C2181 1.463 . S
C2184 N2188 1.427 . S
C2185 H2175 0.929 . S
C2185 C2183 1.433 . S
C2185 N2188 1.384 . S
C2186 H2177 0.929 . S
C2186 C2178 1.378 . S
C2186 C2181 1.350 . S
C2187 H2174 0.929 . S
C2187 C2179 1.433 . S
C2187 N2189 1.384 . S
N2188 C2184 1.427 . S
N2188 C2185 1.384 . S
N2189 C2181 1.427 . S
N2189 C2187 1.384 . S
H2190 C2196 0.930 . S
H2191 C2200 0.930 . S
H2192 C2205 0.929 . S
H2193 C2203 0.929 . S
H2194 C2198 0.929 . S
H2195 C2204 0.929 . S
C2196 H2190 0.930 . S
C2196 C2197 1.367 . S
C2196 C2204 1.378 . S
C2197 C2196 1.367 . S
C2197 C2205 1.433 . S
C2198 H2194 0.929 . S
C2198 C2200 1.378 . S
C2198 C2202 1.350 . S
C2199 C2202 1.463 . S
C2199 C2204 1.350 . S
C2199 N2207 1.427 . S
C2200 H2191 0.930 . S
C2200 C2198 1.378 . S
C2200 C2201 1.367 . S
C2201 C2200 1.367 . S
C2201 C2203 1.433 . S
C2202 C2198 1.350 . S
C2202 C2199 1.463 . S
C2202 N2206 1.427 . S
C2203 H2193 0.929 . S
C2203 C2201 1.433 . S
C2203 N2206 1.384 . S
C2204 H2195 0.929 . S
C2204 C2196 1.378 . S
C2204 C2199 1.350 . S
C2205 H2192 0.929 . S
C2205 C2197 1.433 . S
C2205 N2207 1.384 . S
N2206 C2202 1.427 . S
N2206 C2203 1.384 . S
N2207 C2199 1.427 . S
N2207 C2205 1.384 . S
C1351 C56 3.772 . S
C1355 C1155 3.726 1_565 S
C1369 C158 3.791 . S
C1373 C987 3.633 . S
C1387 C1064 3.773 . S
C1391 C231 3.727 . S
C1405 C315 3.629 . S
C1409 C914 3.792 . S
C1423 C403 3.773 . S
C1427 C1334 3.726 . S
C1441 C830 3.630 . S
C1445 C483 3.792 . S
C1459 C578 3.728 . S
C1463 C1243 3.772 . S
C1477 C662 3.633 . S
C1481 C735 3.791 . S
C1495 C1166 1.480 . S
C1499 C67 1.513 . S
C1513 C998 1.526 . S
C1517 C147 1.511 . S
C1531 C1075 1.513 . S
C1535 C242 1.473 . S
C1549 C903 1.516 . S
C1553 C326 1.521 . S
C1567 C392 1.511 . S
C1571 C1323 1.473 . S
C1585 C819 1.527 . S
C1589 C494 1.510 . S
C1603 C1232 1.510 . S
C1607 C567 1.477 . S
C1621 C746 1.518 . S
C1625 C651 1.520 . S
C1639 C825 0.790 . S
C1643 C63 0.795 . S
C1657 C1234 1.107 . S
C1661 C153 0.807 . S
C1675 C728 1.177 . S
C1679 C224 1.224 . S
C1693 C1329 0.451 . S
C1697 C308 0.175 . S
C1711 C909 0.827 . S
C1715 C394 1.126 . S
C1729 C476 1.192 . S
C1733 C1148 1.221 . S
C1747 C980 0.202 . S
C1751 C573 0.502 . S
C1765 C1071 0.832 . S
C1769 C657 0.810 . S
C1783 C310 0.788 . S
C1787 C410 0.815 . S
C1801 C1077 1.137 . S
C1805 C730 0.841 . S
C1819 C151 1.194 . S
C1823 C571 1.217 . S
C1837 C823 0.186 . S
C1841 C1150 0.501 . S
C1855 C478 0.844 . S
C1859 C69 1.135 . S
C1873 C1327 1.225 . S
C1877 C907 1.182 . S
C1891 C655 0.190 . S
C1895 C226 0.503 . S
C1909 C1250 0.835 . S
C1913 C982 0.819 . S
C1927 C58 1.585 . S
C1931 C560 1.827 . S
C1945 C140 1.392 1_545 S
C1949 C644 1.436 . S
C1963 C399 1.739 . S
C1967 C237 1.415 . S
C1981 C321 1.611 . S
C1985 C489 1.706 . S
C1999 C235 1.829 . S
C2003 C405 1.582 . S
C2017 C739 1.393 . S
C2021 C991 1.440 . S
C2035 C562 1.391 . S
C2039 C74 1.734 . S
C2053 C814 1.603 . S
C2057 C898 1.710 . S
C2071 C1316 1.830 . S
C2075 C1066 1.599 . S
C2089 C896 1.403 . S
C2093 C812 1.437 . S
C2107 C1239 1.732 . S
C2111 C1161 1.408 . S
C2125 C741 1.716 . S
C2129 C993 1.596 . S
C2143 C1159 1.827 . S
C2147 C1245 1.588 . S
C2161 C487 1.396 . S
C2165 C319 1.436 . S
C2179 C1318 1.392 . S
C2183 C1082 1.734 . S
C2197 C142 1.706 . S
C2201 C646 1.610 . S
