# Generated by pormake.
# Topology sms, (6)-cn, num edge types: 1
# Building blocks:
#     Node 0, Type 0, BuildingBlock: OJICUG_clean_sbu_0, # of connection points: 6
#     Node 1, Type 0, BuildingBlock: OJICUG_clean_sbu_0, # of connection points: 6
#     Node 2, Type 0, BuildingBlock: OJICUG_clean_sbu_0, # of connection points: 6
#     Node 3, Type 0, BuildingBlock: OJICUG_clean_sbu_0, # of connection points: 6
#     Node 4, Type 0, BuildingBlock: OJICUG_clean_sbu_0, # of connection points: 6
#     Node 5, Type 0, BuildingBlock: OJICUG_clean_sbu_0, # of connection points: 6
#     Node 6, Type 0, BuildingBlock: OJICUG_clean_sbu_0, # of connection points: 6
#     Node 7, Type 0, BuildingBlock: OJICUG_clean_sbu_0, # of connection points: 6
#     Node 8, Type 0, BuildingBlock: OJICUG_clean_sbu_0, # of connection points: 6
#     Node 9, Type 0, BuildingBlock: OJICUG_clean_sbu_0, # of connection points: 6
#     Node 10, Type 0, BuildingBlock: OJICUG_clean_sbu_0, # of connection points: 6
#     Node 11, Type 0, BuildingBlock: OJICUG_clean_sbu_0, # of connection points: 6
#     Node 12, Type 0, BuildingBlock: OJICUG_clean_sbu_0, # of connection points: 6
#     Node 13, Type 0, BuildingBlock: OJICUG_clean_sbu_0, # of connection points: 6
#     Node 14, Type 0, BuildingBlock: OJICUG_clean_sbu_0, # of connection points: 6
#     Node 15, Type 0, BuildingBlock: OJICUG_clean_sbu_0, # of connection points: 6
#     Node 16, Type 0, BuildingBlock: OJICUG_clean_sbu_0, # of connection points: 6
#     Node 17, Type 0, BuildingBlock: OJICUG_clean_sbu_0, # of connection points: 6
#     Edge 18, Type (0, 0), BuildingBlock: AJUNOK_clean_linker_0, # of connection points: 2
#     Edge 19, Type (0, 0), BuildingBlock: AJUNOK_clean_linker_0, # of connection points: 2
#     Edge 20, Type (0, 0), BuildingBlock: AJUNOK_clean_linker_0, # of connection points: 2
#     Edge 21, Type (0, 0), BuildingBlock: AJUNOK_clean_linker_0, # of connection points: 2
#     Edge 22, Type (0, 0), BuildingBlock: AJUNOK_clean_linker_0, # of connection points: 2
#     Edge 23, Type (0, 0), BuildingBlock: AJUNOK_clean_linker_0, # of connection points: 2
#     Edge 24, Type (0, 0), BuildingBlock: AJUNOK_clean_linker_0, # of connection points: 2
#     Edge 25, Type (0, 0), BuildingBlock: AJUNOK_clean_linker_0, # of connection points: 2
#     Edge 26, Type (0, 0), BuildingBlock: AJUNOK_clean_linker_0, # of connection points: 2
#     Edge 27, Type (0, 0), BuildingBlock: AJUNOK_clean_linker_0, # of connection points: 2
#     Edge 28, Type (0, 0), BuildingBlock: AJUNOK_clean_linker_0, # of connection points: 2
#     Edge 29, Type (0, 0), BuildingBlock: AJUNOK_clean_linker_0, # of connection points: 2
#     Edge 30, Type (0, 0), BuildingBlock: AJUNOK_clean_linker_0, # of connection points: 2
#     Edge 31, Type (0, 0), BuildingBlock: AJUNOK_clean_linker_0, # of connection points: 2
#     Edge 32, Type (0, 0), BuildingBlock: AJUNOK_clean_linker_0, # of connection points: 2
#     Edge 33, Type (0, 0), BuildingBlock: AJUNOK_clean_linker_0, # of connection points: 2
#     Edge 34, Type (0, 0), BuildingBlock: AJUNOK_clean_linker_0, # of connection points: 2
#     Edge 35, Type (0, 0), BuildingBlock: AJUNOK_clean_linker_0, # of connection points: 2
#     Edge 36, Type (0, 0), BuildingBlock: AJUNOK_clean_linker_0, # of connection points: 2
#     Edge 37, Type (0, 0), BuildingBlock: AJUNOK_clean_linker_0, # of connection points: 2
#     Edge 38, Type (0, 0), BuildingBlock: AJUNOK_clean_linker_0, # of connection points: 2
#     Edge 39, Type (0, 0), BuildingBlock: AJUNOK_clean_linker_0, # of connection points: 2
#     Edge 40, Type (0, 0), BuildingBlock: AJUNOK_clean_linker_0, # of connection points: 2
#     Edge 41, Type (0, 0), BuildingBlock: AJUNOK_clean_linker_0, # of connection points: 2
#     Edge 42, Type (0, 0), BuildingBlock: AJUNOK_clean_linker_0, # of connection points: 2
#     Edge 43, Type (0, 0), BuildingBlock: AJUNOK_clean_linker_0, # of connection points: 2
#     Edge 44, Type (0, 0), BuildingBlock: AJUNOK_clean_linker_0, # of connection points: 2
#     Edge 45, Type (0, 0), BuildingBlock: AJUNOK_clean_linker_0, # of connection points: 2
#     Edge 46, Type (0, 0), BuildingBlock: AJUNOK_clean_linker_0, # of connection points: 2
#     Edge 47, Type (0, 0), BuildingBlock: AJUNOK_clean_linker_0, # of connection points: 2
#     Edge 48, Type (0, 0), BuildingBlock: AJUNOK_clean_linker_0, # of connection points: 2
#     Edge 49, Type (0, 0), BuildingBlock: AJUNOK_clean_linker_0, # of connection points: 2
#     Edge 50, Type (0, 0), BuildingBlock: AJUNOK_clean_linker_0, # of connection points: 2
#     Edge 51, Type (0, 0), BuildingBlock: AJUNOK_clean_linker_0, # of connection points: 2
#     Edge 52, Type (0, 0), BuildingBlock: AJUNOK_clean_linker_0, # of connection points: 2
#     Edge 53, Type (0, 0), BuildingBlock: AJUNOK_clean_linker_0, # of connection points: 2
#     Edge 54, Type (0, 0), BuildingBlock: AJUNOK_clean_linker_0, # of connection points: 2
#     Edge 55, Type (0, 0), BuildingBlock: AJUNOK_clean_linker_0, # of connection points: 2
#     Edge 56, Type (0, 0), BuildingBlock: AJUNOK_clean_linker_0, # of connection points: 2
#     Edge 57, Type (0, 0), BuildingBlock: AJUNOK_clean_linker_0, # of connection points: 2
#     Edge 58, Type (0, 0), BuildingBlock: AJUNOK_clean_linker_0, # of connection points: 2
#     Edge 59, Type (0, 0), BuildingBlock: AJUNOK_clean_linker_0, # of connection points: 2
#     Edge 60, Type (0, 0), BuildingBlock: AJUNOK_clean_linker_0, # of connection points: 2
#     Edge 61, Type (0, 0), BuildingBlock: AJUNOK_clean_linker_0, # of connection points: 2
#     Edge 62, Type (0, 0), BuildingBlock: AJUNOK_clean_linker_0, # of connection points: 2
#     Edge 63, Type (0, 0), BuildingBlock: AJUNOK_clean_linker_0, # of connection points: 2
#     Edge 64, Type (0, 0), BuildingBlock: AJUNOK_clean_linker_0, # of connection points: 2
#     Edge 65, Type (0, 0), BuildingBlock: AJUNOK_clean_linker_0, # of connection points: 2
#     Edge 66, Type (0, 0), BuildingBlock: AJUNOK_clean_linker_0, # of connection points: 2
#     Edge 67, Type (0, 0), BuildingBlock: AJUNOK_clean_linker_0, # of connection points: 2
#     Edge 68, Type (0, 0), BuildingBlock: AJUNOK_clean_linker_0, # of connection points: 2
#     Edge 69, Type (0, 0), BuildingBlock: AJUNOK_clean_linker_0, # of connection points: 2
#     Edge 70, Type (0, 0), BuildingBlock: AJUNOK_clean_linker_0, # of connection points: 2
#     Edge 71, Type (0, 0), BuildingBlock: AJUNOK_clean_linker_0, # of connection points: 2
# Relax obj value: 0.417
# Max RMSD: 0.152
# Mean RMSD: 0.152
data_MOF--net-sms--node1-OJICUG_clean_sbu_0--edge1-AJUNOK_clean_linker_0
_symmetry_space_group_name_H-M    P1
_symmetry_Int_Tables_number       1
_symmetry_cell_setting            triclinic
loop_
_symmetry_equiv_pos_as_xyz
'x, y, z'
_cell_length_a     30.865493
_cell_length_b     30.914258
_cell_length_c     43.178811
_cell_angle_alpha  89.872543
_cell_angle_beta   90.491371
_cell_angle_gamma 120.07953
loop_
_atom_site_label
_atom_site_type_symbol
_atom_site_fract_x
_atom_site_fract_y
_atom_site_fract_z
_atom_type_partial_charge
Sc0 Sc 0.20449 0.41637 0.00455 0.0
Sc1 Sc 0.16109 0.32685 0.06591 0.0
Sc2 Sc 0.22125 0.45534 0.08179 0.0
O3 O 0.19562 0.39936 0.05063 0.0
C4 C 0.30934 0.49837 0.03244 0.0
C5 C 0.22499 0.32506 0.00954 0.0
C6 C 0.25069 0.38061 0.11387 0.0
C7 C 0.09422 0.32231 0.0083 0.0
C8 C 0.17906 0.49773 0.02957 0.0
C9 C 0.11678 0.37586 0.11063 0.0
O10 O 0.28283 0.47268 0.00952 0.0
O11 O 0.20213 0.30763 0.03478 0.0
O12 O 0.25506 0.42315 0.10961 0.0
O13 O 0.127 0.36246 -0.00452 0.0
O14 O 0.19093 0.4944 0.05729 0.0
O15 O 0.11426 0.33741 0.09836 0.0
O16 O 0.18266 0.47271 0.00746 0.0
O17 O 0.10185 0.3047 0.03296 0.0
O18 O 0.15308 0.41983 0.10693 0.0
O19 O 0.22841 0.36312 -0.00402 0.0
O20 O 0.29164 0.4961 0.0592 0.0
O21 O 0.2178 0.34103 0.1005 0.0
Sc22 Sc 0.57486 0.78634 0.01124 0.0
Sc23 Sc 0.66141 0.83064 0.07482 0.0
Sc24 Sc 0.53208 0.76598 0.08749 0.0
O25 O 0.5896 0.79432 0.05777 0.0
C26 C 0.49067 0.80816 0.03452 0.0
C27 C 0.66584 0.89798 0.01784 0.0
C28 C 0.60732 0.86948 0.11962 0.0
C29 C 0.66739 0.76841 0.01809 0.0
C30 C 0.49287 0.67993 0.03651 0.0
C31 C 0.60886 0.74067 0.1215 0.0
O32 O 0.51825 0.80767 0.01306 0.0
O33 O 0.68204 0.89154 0.04354 0.0
O34 O 0.56391 0.83331 0.11373 0.0
O35 O 0.62912 0.76385 0.00392 0.0
O36 O 0.49465 0.69584 0.06383 0.0
O37 O 0.64824 0.7735 0.10826 0.0
O38 O 0.51843 0.70807 0.01435 0.0
O39 O 0.68389 0.79211 0.0434 0.0
O40 O 0.56578 0.73498 0.11655 0.0
O41 O 0.62877 0.86337 0.00325 0.0
O42 O 0.49189 0.79401 0.06193 0.0
O43 O 0.64714 0.87343 0.10863 0.0
Sc44 Sc 0.20346 0.78662 0.0019 0.0
Sc45 Sc 0.16044 0.83383 0.06263 0.0
Sc46 Sc 0.22031 0.7654 0.07939 0.0
O47 O 0.19469 0.79541 0.04785 0.0
C48 C 0.17715 0.6799 0.02809 0.0
C49 C 0.09407 0.77217 0.00474 0.0
C50 C 0.11596 0.74109 0.10811 0.0
C51 C 0.22492 0.89887 0.00601 0.0
C52 C 0.30778 0.80808 0.02965 0.0
C53 C 0.25054 0.8701 0.11045 0.0
O54 O 0.181 0.70824 0.00563 0.0
O55 O 0.10145 0.79733 0.02936 0.0
O56 O 0.15265 0.73394 0.10497 0.0
O57 O 0.22794 0.86384 -0.00725 0.0
O58 O 0.29038 0.79356 0.05658 0.0
O59 O 0.21707 0.87636 0.09742 0.0
O60 O 0.28134 0.8078 0.00684 0.0
O61 O 0.20222 0.8939 0.03127 0.0
O62 O 0.25504 0.83206 0.10614 0.0
O63 O 0.12658 0.76401 -0.00752 0.0
O64 O 0.18903 0.69552 0.05569 0.0
O65 O 0.11291 0.77628 0.09502 0.0
Sc66 Sc 0.4547 0.2341 0.8846 0.0
Sc67 Sc 0.32599 0.16575 0.89907 0.0
Sc68 Sc 0.4153 0.20727 0.96121 0.0
O69 O 0.39846 0.20224 0.91508 0.0
C70 C 0.49718 0.18581 0.9324 0.0
C71 C 0.37868 0.13189 0.85052 0.0
C72 C 0.32341 0.09669 0.95455 0.0
C73 C 0.37728 0.26112 0.85504 0.0
C74 C 0.49667 0.31506 0.93889 0.0
C75 C 0.32235 0.22573 0.95739 0.0
O76 O 0.4935 0.20064 0.9056 0.0
O77 O 0.33978 0.12227 0.86562 0.0
O78 O 0.36359 0.12937 0.96753 0.0
O79 O 0.42134 0.27062 0.86119 0.0
O80 O 0.46998 0.28599 0.96031 0.0
O81 O 0.30565 0.20482 0.93129 0.0
O82 O 0.49517 0.30069 0.91125 0.0
O83 O 0.33829 0.22261 0.8649 0.0
O84 O 0.36011 0.22819 0.97116 0.0
O85 O 0.4207 0.17131 0.85418 0.0
O86 O 0.47307 0.18769 0.95561 0.0
O87 O 0.30422 0.10494 0.93079 0.0
Sc88 Sc 0.76818 0.22351 0.88428 0.0
Sc89 Sc 0.82627 0.15562 0.90568 0.0
Sc90 Sc 0.78276 0.20664 0.96283 0.0
O91 O 0.79229 0.19514 0.91768 0.0
C92 C 0.80794 0.31159 0.93301 0.0
C93 C 0.87417 0.24538 0.85912 0.0
C94 C 0.89133 0.2215 0.9629 0.0
C95 C 0.73858 0.11783 0.85601 0.0
C96 C 0.67916 0.18266 0.93343 0.0
C97 C 0.76101 0.09376 0.96182 0.0
O98 O 0.80196 0.29598 0.90528 0.0
O99 O 0.87835 0.21396 0.87588 0.0
O100 O 0.86095 0.23517 0.97195 0.0
O101 O 0.73112 0.15403 0.86037 0.0
O102 O 0.70376 0.18016 0.95651 0.0
O103 O 0.7784 0.09579 0.93505 0.0
O104 O 0.69871 0.20001 0.90724 0.0
O105 O 0.77423 0.11469 0.8685 0.0
O106 O 0.76378 0.13144 0.9756 0.0
O107 O 0.83554 0.24997 0.85839 0.0
O108 O 0.79978 0.2831 0.95617 0.0
O109 O 0.88153 0.18968 0.94155 0.0
Sc110 Sc 0.76074 0.53998 0.88621 0.0
Sc111 Sc 0.8213 0.66709 0.90298 0.0
Sc112 Sc 0.7848 0.57836 0.96312 0.0
O113 O 0.78871 0.59512 0.91754 0.0
C114 C 0.67888 0.49653 0.94009 0.0
C115 C 0.72784 0.61231 0.85731 0.0
C116 C 0.76267 0.66931 0.96057 0.0
C117 C 0.8638 0.62144 0.85619 0.0
C118 C 0.80674 0.49638 0.9334 0.0
C119 C 0.89203 0.67119 0.95816 0.0
O120 O 0.69551 0.49504 0.91351 0.0
O121 O 0.76727 0.65198 0.86577 0.0
O122 O 0.76944 0.63739 0.97534 0.0
O123 O 0.82331 0.57956 0.85575 0.0
O124 O 0.79896 0.5168 0.95664 0.0
O125 O 0.87888 0.69254 0.93806 0.0
O126 O 0.79972 0.50546 0.90573 0.0
O127 O 0.87145 0.65742 0.87372 0.0
O128 O 0.86367 0.62695 0.96768 0.0
O129 O 0.71876 0.56897 0.86468 0.0
O130 O 0.70541 0.52732 0.96116 0.0
O131 O 0.77451 0.68037 0.93241 0.0
Sc132 Sc 0.85351 0.74073 0.3349 0.0
Sc133 Sc 0.82887 0.6699 0.40348 0.0
Sc134 Sc 0.92362 0.79281 0.40236 0.0
O135 O 0.8682 0.73474 0.37995 0.0
C136 C 0.97083 0.81191 0.3348 0.0
C137 C 0.86011 0.64034 0.34126 0.0
C138 C 0.93765 0.71108 0.43288 0.0
C139 C 0.74497 0.6631 0.35777 0.0
C140 C 0.86747 0.84095 0.36607 0.0
C141 C 0.83652 0.74371 0.45298 0.0
O142 O 0.93018 0.78362 0.32068 0.0
O143 O 0.85153 0.63508 0.37019 0.0
O144 O 0.9577 0.75019 0.41638 0.0
O145 O 0.77415 0.70021 0.34138 0.0
O146 O 0.89269 0.83881 0.38897 0.0
O147 O 0.80659 0.70522 0.43737 0.0
O148 O 0.85176 0.80946 0.34369 0.0
O149 O 0.76007 0.64569 0.37907 0.0
O150 O 0.88099 0.77447 0.44449 0.0
O151 O 0.85724 0.67343 0.32479 0.0
O152 O 0.97334 0.81868 0.36384 0.0
O153 O 0.8906 0.68195 0.4332 0.0
Sc154 Sc 0.21422 0.10738 0.3101 0.0
Sc155 Sc 0.26518 0.13276 0.38658 0.0
Sc156 Sc 0.13555 0.06659 0.37464 0.0
O157 O 0.20516 0.10227 0.35706 0.0
C158 C 0.12429 0.12732 0.31836 0.0
C159 C 0.29905 0.21426 0.33387 0.0
C160 C 0.19057 0.15891 0.42085 0.0
C161 C 0.29988 0.08661 0.33336 0.0
C162 C 0.12453 -0.00346 0.31767 0.0
C163 C 0.19261 0.031 0.42069 0.0
O164 O 0.16077 0.13194 0.30255 0.0
O165 O 0.30109 0.20117 0.36142 0.0
O166 O 0.15186 0.12454 0.40745 0.0
O167 O 0.2694 0.08535 0.31299 0.0
O168 O 0.11235 0.00494 0.34397 0.0
O169 O 0.23595 0.06761 0.4154 0.0
O170 O 0.1596 0.02973 0.30149 0.0
O171 O 0.30275 0.10279 0.3607 0.0
O172 O 0.15337 0.02602 0.40761 0.0
O173 O 0.27001 0.18444 0.31324 0.0
O174 O 0.11102 0.10412 0.34389 0.0
O175 O 0.23424 0.16633 0.41592 0.0
Sc176 Sc 0.85712 0.11618 0.33483 0.0
Sc177 Sc 0.82595 0.15734 0.40314 0.0
Sc178 Sc 0.92352 0.13265 0.40378 0.0
O179 O 0.86839 0.13473 0.38035 0.0
C180 C 0.86984 0.0293 0.36606 0.0
C181 C 0.74588 0.08094 0.3553 0.0
C182 C 0.83452 0.09143 0.45321 0.0
C183 C 0.86033 0.22121 0.34132 0.0
C184 C 0.97473 0.16417 0.33755 0.0
C185 C 0.93282 0.22621 0.43503 0.0
O186 O 0.85408 0.0452 0.34372 0.0
O187 O 0.75812 0.10967 0.37849 0.0
O188 O 0.87902 0.10531 0.44488 0.0
O189 O 0.86182 0.18739 0.32504 0.0
O190 O 0.97592 0.16015 0.36668 0.0
O191 O 0.88585 0.20836 0.43331 0.0
O192 O 0.93448 0.14993 0.32254 0.0
O193 O 0.84761 0.21555 0.3697 0.0
O194 O 0.95486 0.20832 0.41943 0.0
O195 O 0.77765 0.07811 0.33843 0.0
O196 O 0.89493 0.05649 0.38905 0.0
O197 O 0.80465 0.10002 0.43748 0.0
Sc198 Sc 0.10454 0.55306 0.22042 0.0
Sc199 Sc 0.97425 0.488 0.23004 0.0
Sc200 Sc 0.05698 0.52996 0.29557 0.0
O201 O 0.04507 0.52358 0.24882 0.0
C202 C 0.1426 0.50811 0.27355 0.0
C203 C 0.03078 0.44962 0.18727 0.0
C204 C 0.96359 0.41924 0.28774 0.0
C205 C 0.03092 0.58172 0.18593 0.0
C206 C 0.14191 0.6373 0.27261 0.0
C207 C 0.96362 0.54719 0.28661 0.0
O208 O 0.14219 0.52238 0.24605 0.0
O209 O 0.99033 0.44435 0.19806 0.0
O210 O 0.00166 0.45253 0.30244 0.0
O211 O 0.07372 0.58768 0.19219 0.0
O212 O 0.11385 0.60884 0.29397 0.0
O213 O 0.94993 0.52621 0.2603 0.0
O214 O 0.1421 0.62181 0.24547 0.0
O215 O 0.99045 0.5464 0.19669 0.0
O216 O 0.00108 0.55126 0.3017 0.0
O217 O 0.07352 0.48706 0.19287 0.0
O218 O 0.11448 0.50894 0.29466 0.0
O219 O 0.94953 0.42658 0.26152 0.0
Sc220 Sc 0.41949 0.56005 0.23559 0.0
Sc221 Sc 0.48617 0.49852 0.2516 0.0
Sc222 Sc 0.42957 0.53048 0.31266 0.0
O223 O 0.44514 0.52964 0.26674 0.0
C224 C 0.45524 0.6386 0.29089 0.0
C225 C 0.5279 0.59376 0.20887 0.0
C226 C 0.54279 0.55474 0.31325 0.0
C227 C 0.39903 0.46035 0.2015 0.0
C228 C 0.32684 0.5093 0.2818 0.0
C229 C 0.41622 0.42278 0.30291 0.0
O230 O 0.44591 0.62633 0.26255 0.0
O231 O 0.53284 0.55916 0.22107 0.0
O232 O 0.50572 0.55496 0.32557 0.0
O233 O 0.39049 0.49582 0.20636 0.0
O234 O 0.3515 0.50777 0.30509 0.0
O235 O 0.44511 0.43505 0.27991 0.0
O236 O 0.34673 0.52675 0.25577 0.0
O237 O 0.4335 0.45632 0.21503 0.0
O238 O 0.40709 0.45289 0.31754 0.0
O239 O 0.48928 0.59773 0.212 0.0
O240 O 0.44988 0.6081 0.31229 0.0
O241 O 0.54149 0.53596 0.28693 0.0
Sc242 Sc 0.41793 0.86076 0.23384 0.0
Sc243 Sc 0.48388 0.98861 0.2488 0.0
Sc244 Sc 0.42913 0.90161 0.31074 0.0
O245 O 0.44343 0.91701 0.26459 0.0
C246 C 0.32546 0.82056 0.27952 0.0
C247 C 0.39805 0.94072 0.19888 0.0
C248 C 0.41679 -0.00393 0.3015 0.0
C249 C 0.5253 0.93402 0.20671 0.0
C250 C 0.45305 0.81813 0.29018 0.0
C251 C 0.54326 0.98913 0.30889 0.0
O252 O 0.34447 0.82451 0.25299 0.0
O253 O 0.4286 0.97867 0.21455 0.0
O254 O 0.40488 0.9551 0.31494 0.0
O255 O 0.48911 0.89072 0.21227 0.0
O256 O 0.45159 0.84607 0.31112 0.0
O257 O 0.54114 0.00344 0.28166 0.0
O258 O 0.44054 0.81878 0.26218 0.0
O259 O 0.52703 0.97376 0.21585 0.0
O260 O 0.50545 0.9558 0.3234 0.0
O261 O 0.39279 0.89752 0.2023 0.0
O262 O 0.35124 0.84421 0.30325 0.0
O263 O 0.44724 0.01354 0.27926 0.0
Sc264 Sc 0.55568 0.08798 0.66589 0.0
Sc265 Sc 0.49829 0.00158 0.72611 0.0
Sc266 Sc 0.57273 0.12697 0.74207 0.0
O267 O 0.54223 0.07196 0.71117 0.0
C268 C 0.66236 0.16268 0.69818 0.0
C269 C 0.56226 0.99122 0.67264 0.0
C270 C 0.58214 0.0406 0.77565 0.0
C271 C 0.44011 0.00543 0.6679 0.0
C272 C 0.54559 0.17735 0.68627 0.0
C273 C 0.4649 0.06395 0.7674 0.0
O274 O 0.63335 0.14764 0.67443 0.0
O275 O 0.52638 0.97182 0.69178 0.0
O276 O 0.58313 0.08218 0.77643 0.0
O277 O 0.47984 0.03202 0.65247 0.0
O278 O 0.56724 0.17937 0.71183 0.0
O279 O 0.4643 0.02304 0.76257 0.0
O280 O 0.5306 0.14124 0.66739 0.0
O281 O 0.43994 0.99455 0.69627 0.0
O282 O 0.50024 0.10605 0.75866 0.0
O283 O 0.58102 0.03557 0.66249 0.0
O284 O 0.64601 0.15001 0.72553 0.0
O285 O 0.55652 0.00663 0.75606 0.0
Sc286 Sc 0.92505 0.45908 0.68186 0.0
Sc287 Sc 0.01102 0.50448 0.74563 0.0
Sc288 Sc 0.88159 0.43534 0.75814 0.0
O289 O 0.93933 0.46642 0.72838 0.0
C290 C 0.83952 0.47941 0.7068 0.0
C291 C 0.01727 0.57088 0.68781 0.0
C292 C 0.95483 0.54023 0.79021 0.0
C293 C 0.01959 0.44329 0.68954 0.0
C294 C 0.84263 0.35108 0.70583 0.0
C295 C 0.95993 0.41119 0.79026 0.0
O296 O 0.86673 0.47912 0.68483 0.0
O297 O 0.03269 0.56438 0.71372 0.0
O298 O 0.9127 0.50115 0.78604 0.0
O299 O 0.98151 0.43822 0.67456 0.0
O300 O 0.84372 0.36618 0.73327 0.0
O301 O -0.00102 0.448 0.7793 0.0
O302 O 0.86912 0.38002 0.68417 0.0
O303 O 0.03439 0.4663 0.71514 0.0
O304 O 0.91598 0.40256 0.78463 0.0
O305 O 0.97892 0.53675 0.67378 0.0
O306 O 0.84123 0.46467 0.734 0.0
O307 O -0.00516 0.5479 0.77741 0.0
Sc308 Sc 0.55392 0.45664 0.66289 0.0
Sc309 Sc 0.49791 0.49447 0.71899 0.0
Sc310 Sc 0.56193 0.43454 0.74059 0.0
O311 O 0.53788 0.46185 0.70724 0.0
C312 C 0.5361 0.3551 0.68613 0.0
C313 C 0.43997 0.43088 0.66141 0.0
C314 C 0.45501 0.40072 0.76359 0.0
C315 C 0.56674 0.56302 0.66507 0.0
C316 C 0.6562 0.48325 0.69888 0.0
C317 C 0.57811 0.53554 0.77056 0.0
O318 O 0.52564 0.37767 0.66548 0.0
O319 O 0.43908 0.44422 0.68907 0.0
O320 O 0.48669 0.38817 0.75568 0.0
O321 O 0.58437 0.53518 0.6579 0.0
O322 O 0.63782 0.47911 0.72573 0.0
O323 O 0.55713 0.54648 0.749 0.0
O324 O 0.62943 0.47154 0.67421 0.0
O325 O 0.5296 0.54948 0.68285 0.0
O326 O 0.57447 0.49284 0.77306 0.0
O327 O 0.4797 0.43941 0.6474 0.0
O328 O 0.55396 0.3738 0.71254 0.0
O329 O 0.4599 0.4431 0.75704 0.0
Sc330 Sc 0.84506 0.9217 0.60176 0.0
Sc331 Sc 0.71576 0.85654 0.58856 0.0
Sc332 Sc 0.76465 0.87887 0.66545 0.0
O333 O 0.77498 0.88573 0.61866 0.0
C334 C 0.85611 0.8602 0.65705 0.0
C335 C 0.78987 0.82964 0.55518 0.0
C336 C 0.6813 0.77307 0.64044 0.0
C337 C 0.79038 0.95996 0.5563 0.0
C338 C 0.85419 0.99011 0.6595 0.0
C339 C 0.67848 0.89965 0.64144 0.0
O340 O 0.86759 0.88071 0.63069 0.0
O341 O 0.74573 0.82039 0.56072 0.0
O342 O 0.71299 0.8004 0.66091 0.0
O343 O 0.82884 0.96576 0.57081 0.0
O344 O 0.81586 0.95776 0.67401 0.0
O345 O 0.68004 0.88911 0.61329 0.0
O346 O 0.86922 0.98109 0.63442 0.0
O347 O 0.74751 0.92132 0.55918 0.0
O348 O 0.70527 0.89607 0.6627 0.0
O349 O 0.8285 0.86608 0.56724 0.0
O350 O 0.8218 0.85884 0.67376 0.0
O351 O 0.67647 0.78871 0.61421 0.0
Sc352 Sc 0.05662 0.85348 0.5743 0.0
Sc353 Sc 0.15786 0.83424 0.57412 0.0
Sc354 Sc 0.1255 0.87412 0.64247 0.0
O355 O 0.11399 0.85497 0.59711 0.0
C356 C 0.10469 0.95604 0.6132 0.0
C357 C 0.14743 0.90116 0.52552 0.0
C358 C 0.23745 0.91115 0.62219 0.0
C359 C 0.05278 0.76391 0.54091 0.0
C360 C 0.00658 0.82206 0.64028 0.0
C361 C 0.12286 0.76952 0.63537 0.0
O362 O 0.07855 0.92719 0.59107 0.0
O363 O 0.17759 0.89193 0.54045 0.0
O364 O 0.20523 0.91303 0.63911 0.0
O365 O 0.0293 0.7793 0.55717 0.0
O366 O 0.04793 0.84099 0.65478 0.0
O367 O 0.13651 0.77565 0.60715 0.0
O368 O 0.00385 0.82091 0.611 0.0
O369 O 0.09987 0.78329 0.54288 0.0
O370 O 0.12105 0.80297 0.65189 0.0
O371 O 0.10254 0.88586 0.53394 0.0
O372 O 0.12731 0.94425 0.63354 0.0
O373 O 0.2254 0.88243 0.59901 0.0
Sc374 Sc 0.05385 0.19679 0.57518 0.0
Sc375 Sc 0.1528 0.31864 0.57416 0.0
Sc376 Sc 0.12609 0.24614 0.64223 0.0
O377 O 0.11144 0.25351 0.59735 0.0
C378 C 0.00709 0.1777 0.6423 0.0
C379 C 0.04586 0.28205 0.54339 0.0
C380 C 0.12231 0.34799 0.63697 0.0
C381 C 0.14266 0.24204 0.52508 0.0
C382 C 0.10448 0.14336 0.61267 0.0
C383 C 0.23599 0.3224 0.61955 0.0
O384 O 0.00296 0.17523 0.61305 0.0
O385 O 0.0929 0.31045 0.54435 0.0
O386 O 0.12273 0.31307 0.65277 0.0
O387 O 0.09826 0.21148 0.53396 0.0
O388 O 0.12721 0.17768 0.63294 0.0
O389 O 0.2216 0.33963 0.59776 0.0
O390 O 0.07783 0.14595 0.5908 0.0
O391 O 0.17238 0.2819 0.53969 0.0
O392 O 0.20575 0.28677 0.63654 0.0
O393 O 0.02398 0.24222 0.55909 0.0
O394 O 0.04901 0.20188 0.65609 0.0
O395 O 0.1321 0.3548 0.60814 0.0
C396 C 0.13993 0.59228 0.04589 0.0
C397 C 0.16401 0.62766 0.02233 0.0
C398 C 0.14062 0.54746 0.04634 0.0
C399 C 0.16539 0.53634 0.02322 0.0
H400 H 0.12367 0.60093 0.06539 0.0
H401 H 0.12476 0.52297 0.06612 0.0
S402 S 0.22764 0.61313 0.95404 0.0
N403 N 0.20798 0.64604 0.97333 0.0
N404 N 0.2092 0.56134 0.97414 0.0
C405 C 0.185 0.56887 -0.00218 0.0
C406 C 0.18432 0.61476 -0.00263 0.0
C407 C 0.42277 0.61517 0.00444 0.0
C408 C 0.45485 0.62745 0.03035 0.0
C409 C 0.37698 0.5699 0.00339 0.0
C410 C 0.36242 0.53604 0.0282 0.0
H411 H 0.43074 0.64249 0.98639 0.0
H412 H 0.35102 0.56368 0.98458 0.0
S413 S 0.43866 0.54587 0.09747 0.0
N414 N 0.47308 0.59849 0.07844 0.0
N415 N 0.38732 0.51363 0.07642 0.0
C416 C 0.39692 0.54543 0.05228 0.0
C417 C 0.44318 0.5912 0.05337 0.0
C418 C 0.43962 0.84514 0.05072 0.0
C419 C 0.45204 0.82144 0.02757 0.0
C420 C 0.3945 0.84525 0.04946 0.0
C421 C 0.36024 0.82159 0.02504 0.0
H422 H 0.46328 0.86055 0.07108 0.0
H423 H 0.38472 0.8607 0.06891 0.0
S424 S 0.37835 0.76062 0.95653 0.0
N425 N 0.42952 0.77903 0.9777 0.0
N426 N 0.34413 0.77915 0.97538 0.0
C427 C 0.37442 0.80235 0.00014 0.0
C428 C 0.42062 0.80228 0.00141 0.0
C429 C 0.56636 0.18594 0.96302 0.0
C430 C 0.53523 0.17073 0.93655 0.0
C431 C 0.61146 0.18512 0.96328 0.0
C432 C 0.62645 0.16919 0.93705 0.0
H433 H 0.55811 0.20256 0.98251 0.0
H434 H 0.6366 0.20111 0.98295 0.0
S435 S 0.55243 0.11499 0.86502 0.0
N436 N 0.51801 0.13086 0.88592 0.0
N437 N 0.60289 0.13013 0.8862 0.0
C438 C 0.59295 0.14884 0.91193 0.0
C439 C 0.54719 0.14937 0.91174 0.0
C440 C 0.84054 0.44353 0.91377 0.0
C441 C 0.81842 0.45576 0.93805 0.0
C442 C 0.84085 0.39845 0.91368 0.0
C443 C 0.81894 0.36364 0.93782 0.0
H444 H 0.85517 0.46764 0.89373 0.0
H445 H 0.8558 0.38958 0.8936 0.0
S446 S 0.76226 0.38074 0.0089 0.0
N447 N 0.77907 0.43197 -0.01142 0.0
N448 N 0.77955 0.347 -0.0116 0.0
C449 C 0.80082 0.37737 0.96362 0.0
C450 C 0.80057 0.42351 0.96373 0.0
C451 C 0.59085 0.44821 0.92308 0.0
C452 C 0.62683 0.45854 0.94632 0.0
C453 C 0.54539 0.40332 0.92295 0.0
C454 C 0.53471 0.36708 0.94589 0.0
H455 H 0.59957 0.47324 0.90356 0.0
H456 H 0.52029 0.39514 0.90333 0.0
S457 S 0.6138 0.37951 0.01412 0.0
N458 N 0.64672 0.43224 -0.00515 0.0
N459 N 0.56089 0.34693 -0.00552 0.0
C460 C 0.56804 0.37917 0.97103 0.0
C461 C 0.61445 0.42528 0.97124 0.0
C462 C 0.8624 0.95488 0.3375 0.0
C463 C 0.86038 0.97727 0.36543 0.0
C464 C 0.86161 0.90892 0.33748 0.0
C465 C 0.85869 0.88394 0.36539 0.0
H466 H 0.86737 0.97424 0.31573 0.0
H467 H 0.86615 0.89435 0.31571 0.0
S468 S 0.84287 0.9222 0.44401 0.0
N469 N 0.84842 0.96755 0.42115 0.0
N470 N 0.84684 0.88166 0.42111 0.0
C471 C 0.85289 0.90422 0.39313 0.0
C472 C 0.85376 0.95075 0.39316 0.0
C473 C 0.06258 0.86151 0.32904 0.0
C474 C 0.01485 0.84743 0.31703 0.0
C475 C 0.10293 0.90958 0.32397 0.0
C476 C 0.09633 0.94472 0.30702 0.0
H477 H 0.06722 0.83771 0.3456 0.0
H478 H 0.13727 0.9214 0.33699 0.0
S479 S 0.98222 0.9223 0.26481 0.0
N480 N 0.96593 0.86877 0.28232 0.0
N481 N 0.04194 0.95974 0.27349 0.0
C482 C 0.05121 0.9286 0.29096 0.0
C483 C 0.01018 0.87944 0.29578 0.0
C484 C 0.05366 0.12883 0.29271 0.0
C485 C 0.09857 0.15433 0.30961 0.0
C486 C 0.01479 0.13887 0.2979 0.0
C487 C 0.01983 0.17363 0.32072 0.0
H488 H 0.04611 0.09676 0.27864 0.0
H489 H 0.97858 0.1142 0.28741 0.0
S490 S 0.13492 0.25853 0.36482 0.0
N491 N 0.14999 0.22277 0.34458 0.0
N492 N 0.07648 0.24082 0.35503 0.0
C493 C 0.06725 0.2046 0.3339 0.0
C494 C 0.10691 0.19498 0.32818 0.0
C495 C 0.24155 0.47392 0.25934 0.0
C496 C 0.27374 0.49517 0.28499 0.0
C497 C 0.1962 0.47364 0.25736 0.0
C498 C 0.18131 0.49471 0.28091 0.0
H499 H 0.25315 0.46065 0.23964 0.0
H500 H 0.1744 0.46014 0.23616 0.0
S501 S 0.24918 0.5491 0.3547 0.0
N502 N 0.28528 0.53279 0.33596 0.0
N503 N 0.19967 0.53236 0.33221 0.0
C504 C 0.21072 0.51161 0.30803 0.0
C505 C 0.25714 0.51183 0.31008 0.0
C506 C 0.498 0.72812 0.27793 0.0
C507 C 0.4681 0.68979 0.29869 0.0
C508 C 0.49719 0.77278 0.27763 0.0
C509 C 0.46674 0.7805 0.2982 0.0
H510 H 0.51868 0.72183 0.26004 0.0
H511 H 0.51719 0.79966 0.25952 0.0
S512 S 0.38794 0.69502 0.36021 0.0
N513 N 0.41241 0.6647 0.34288 0.0
N514 N 0.41122 0.74946 0.34242 0.0
C515 C 0.44128 0.74502 0.3214 0.0
C516 C 0.44194 0.69926 0.32165 0.0
C517 C 0.21086 0.70219 0.30569 0.0
C518 C 0.17977 0.6899 0.2793 0.0
C519 C 0.25647 0.74776 0.30738 0.0
C520 C 0.27208 0.78206 0.2827 0.0
H521 H 0.20225 0.67474 0.32376 0.0
H522 H 0.28156 0.75397 0.32671 0.0
S523 S 0.19869 0.77181 0.21184 0.0
N524 N 0.16366 0.71908 0.23061 0.0
N525 N 0.24905 0.80419 0.23369 0.0
C526 C 0.2386 0.77238 0.25792 0.0
C527 C 0.19247 0.72637 0.25625 0.0
C528 C 0.58585 0.26807 0.68033 0.0
C529 C 0.54215 0.22128 0.67792 0.0
C530 C 0.58339 0.31177 0.68031 0.0
C531 C 0.53716 0.30994 0.67797 0.0
H532 H 0.62189 0.27073 0.68408 0.0
H533 H 0.61762 0.34711 0.68404 0.0
S534 S 0.41255 0.197 0.66803 0.0
N535 N 0.45181 0.17538 0.67047 0.0
N536 N 0.44721 0.25855 0.6706 0.0
C537 C 0.49348 0.26379 0.67322 0.0
C538 C 0.49599 0.21897 0.67313 0.0
C539 C 0.72846 0.23939 0.67139 0.0
C540 C 0.71513 0.20366 0.69515 0.0
C541 C 0.77286 0.28601 0.67331 0.0
C542 C 0.80514 0.29831 0.69908 0.0
H543 H 0.70255 0.23317 0.65255 0.0
H544 H 0.77967 0.31398 0.65592 0.0
S545 S 0.79323 0.21399 0.76376 0.0
N546 N 0.74253 0.1808 0.74233 0.0
N547 N 0.82516 0.26836 0.74607 0.0
C548 C 0.79488 0.26105 0.7212 0.0
C549 C 0.75011 0.21369 0.71917 0.0
C550 C 0.76931 0.47438 0.6745 0.0
C551 C 0.80058 0.49304 0.70077 0.0
C552 C 0.72417 0.47515 0.67269 0.0
C553 C 0.70899 0.49472 0.69708 0.0
H554 H 0.77768 0.45551 0.65641 0.0
H555 H 0.69939 0.45688 0.65316 0.0
S556 S 0.78338 0.55798 0.76765 0.0
N557 N 0.81731 0.53863 0.74929 0.0
N558 N 0.7332 0.54076 0.74577 0.0
C559 C 0.74262 0.51809 0.72191 0.0
C560 C 0.78821 0.51704 0.72379 0.0
C561 C 0.96742 0.85165 0.67809 0.0
C562 C 0.96177 0.81447 0.65692 0.0
C563 C 0.92856 0.86197 0.68257 0.0
C564 C 0.88291 0.8345 0.66665 0.0
H565 H 0.00394 0.87753 0.68776 0.0
H566 H 0.93651 0.8954 0.69527 0.0
S567 S 0.84478 0.72424 0.61633 0.0
N568 N 0.90377 0.74341 0.62551 0.0
N569 N 0.83041 0.76224 0.63457 0.0
C570 C 0.87421 0.79214 0.64977 0.0
C571 C 0.91384 0.78209 0.64479 0.0
C572 C 0.14847 0.09451 0.62295 0.0
C573 C 0.10454 0.09577 0.61572 0.0
C574 C 0.1485 0.04891 0.62318 0.0
C575 C 0.10458 0.00358 0.6162 0.0
H576 H 0.18321 0.12896 0.6274 0.0
H577 H 0.18327 0.04932 0.62773 0.0
S578 S 0.9781 0.98625 0.60182 0.0
N579 N 0.01492 0.04723 0.60565 0.0
N580 N 0.01498 0.96223 0.60604 0.0
C581 C 0.05999 0.00434 0.61086 0.0
C582 C 0.05997 0.05029 0.61063 0.0
C583 C 0.91498 0.12548 0.64809 0.0
C584 C 0.96316 0.14034 0.65975 0.0
C585 C 0.87506 0.07706 0.65324 0.0
C586 C 0.88232 0.04215 0.66999 0.0
H587 H 0.90954 0.14914 0.63183 0.0
H588 H 0.84042 0.06492 0.6405 0.0
S589 S -0.0021 0.0656 0.71077 0.0
N590 N 0.01321 0.11915 0.69364 0.0
N591 N 0.93814 0.02776 0.70247 0.0
C592 C 0.92803 0.05872 0.68544 0.0
C593 C 0.96862 0.10819 0.68057 0.0
C594 C 0.04729 0.39198 0.1169 0.0
C595 C 0.07542 0.37146 0.12914 0.0
C596 C 0.02497 0.41111 0.13649 0.0
C597 C 0.03043 0.41005 0.16868 0.0
H598 H 0.0476 0.39866 0.09222 0.0
H599 H 0.00885 0.43207 0.12642 0.0
S600 S 0.09287 0.35249 0.21183 0.0
N601 N 0.10148 0.34478 0.17498 0.0
N602 N 0.05931 0.38061 0.21199 0.0
C603 C 0.05299 0.384 0.18106 0.0
C604 C 0.07567 0.36461 0.16115 0.0
C605 C 0.60919 0.71994 0.17607 0.0
C606 C 0.61162 0.7082 0.14502 0.0
C607 C 0.58737 0.68214 0.19823 0.0
C608 C 0.56786 0.63182 0.18987 0.0
H609 H 0.61858 0.75756 0.1825 0.0
H610 H 0.58101 0.69177 0.22122 0.0
S611 S 0.57396 0.58334 0.11277 0.0
N612 N 0.59964 0.64433 0.10781 0.0
N613 N 0.559 0.57292 0.14978 0.0
C614 C 0.57585 0.62038 0.15983 0.0
C615 C 0.59777 0.6589 0.1372 0.0
C616 C 0.37692 0.94521 0.14454 0.0
C617 C 0.3655 0.94507 0.17588 0.0
C618 C 0.33905 0.92754 0.12204 0.0
C619 C 0.28882 0.90887 0.13038 0.0
H620 H 0.41414 0.95376 0.13781 0.0
H621 H 0.34826 0.92301 0.09853 0.0
S622 S 0.24179 0.90993 0.2087 0.0
N623 N 0.30256 0.9326 0.21372 0.0
N624 N 0.23085 0.89857 0.1712 0.0
C625 C 0.278 0.91439 0.16106 0.0
C626 C 0.31668 0.93266 0.184 0.0
C627 C 0.3927 0.06271 0.83688 0.0
C628 C 0.3774 0.09667 0.82758 0.0
C629 C 0.4161 0.04648 0.81591 0.0
C630 C 0.4252 0.06458 0.78541 0.0
H631 H 0.39183 0.05326 0.86114 0.0
H632 H 0.43203 0.02444 0.82448 0.0
S633 S 0.38469 0.14708 0.7489 0.0
N634 N 0.36634 0.14185 0.78522 0.0
N635 N 0.411 0.11215 0.74587 0.0
C636 C 0.40496 0.09389 0.77515 0.0
C637 C 0.38074 0.10977 0.7963 0.0
C638 C 0.94468 0.32593 0.79397 0.0
C639 C 0.96347 0.373 0.80811 0.0
C640 C 0.92181 0.28222 0.81165 0.0
C641 C 0.91811 0.28496 0.84381 0.0
H642 H 0.94152 0.32256 0.76895 0.0
H643 H 0.90159 0.24651 0.79985 0.0
S644 S 0.97066 0.3994 0.89198 0.0
N645 N 0.98395 0.42015 0.85604 0.0
N646 N 0.94219 0.33781 0.88955 0.0
C647 C 0.94342 0.33185 0.85844 0.0
C648 C 0.96598 0.37625 0.84042 0.0
C649 C 0.66244 0.60502 0.78334 0.0
C650 C 0.61241 0.57394 0.79232 0.0
C651 C 0.70118 0.62499 0.80553 0.0
C652 C 0.69048 0.61425 0.83708 0.0
H653 H 0.67221 0.6089 0.75904 0.0
H654 H 0.73961 0.64348 0.79769 0.0
S655 S 0.56494 0.54318 0.87235 0.0
N656 N 0.55375 0.53975 0.83469 0.0
N657 N 0.62633 0.57777 0.87646 0.0
C658 C 0.64023 0.58876 0.84638 0.0
C659 C 0.60107 0.56829 0.82389 0.0
C660 C 0.93286 0.60586 0.79168 0.0
C661 C 0.95391 0.58051 0.80707 0.0
C662 C 0.90879 0.62641 0.8083 0.0
C663 C 0.90609 0.62269 0.84062 0.0
H664 H 0.92967 0.60446 0.76663 0.0
H665 H 0.8878 0.64038 0.79574 0.0
S666 S 0.96304 0.56796 0.89166 0.0
N667 N 0.9763 0.55851 0.85618 0.0
N668 N 0.93233 0.5987 0.88767 0.0
C669 C 0.93261 0.60328 0.85634 0.0
C670 C 0.95635 0.58165 0.83942 0.0
C671 C 0.3994 0.34633 0.83983 0.0
C672 C 0.37362 0.29495 0.83273 0.0
C673 C 0.42025 0.3822 0.81635 0.0
C674 C 0.41634 0.36735 0.78529 0.0
H675 H 0.40862 0.35858 0.8637 0.0
H676 H 0.44455 0.42099 0.8228 0.0
S677 S 0.3434 0.23852 0.75446 0.0
N678 N 0.33756 0.23174 0.79244 0.0
N679 N 0.37787 0.29923 0.74821 0.0
C680 C 0.3853 0.31672 0.77775 0.0
C681 C 0.36338 0.28034 0.80161 0.0
C682 C 0.66865 0.06023 0.78385 0.0
C683 C 0.61935 0.03716 0.79496 0.0
C684 C 0.70947 0.08037 0.80442 0.0
C685 C 0.70167 0.07738 0.83647 0.0
H686 H 0.67577 0.06828 0.75937 0.0
H687 H 0.74678 0.10345 0.79527 0.0
S688 S 0.58 0.01036 0.87667 0.0
N689 N 0.56496 0.00486 0.83948 0.0
N690 N 0.64184 0.04189 0.87831 0.0
C691 C 0.65274 0.04828 0.84763 0.0
C692 C 0.61129 0.02831 0.82674 0.0
C693 C 0.58989 0.93601 0.13406 0.0
C694 C 0.60976 0.90541 0.14241 0.0
C695 C 0.5681 0.95189 0.15634 0.0
C696 C 0.56517 0.93678 0.18728 0.0
H697 H 0.58604 0.94284 0.10983 0.0
H698 H 0.54839 0.97083 0.14873 0.0
S699 S 0.61932 0.86417 0.22135 0.0
N700 N 0.6318 0.86701 0.18402 0.0
N701 N 0.59004 0.89612 0.22595 0.0
C702 C 0.59007 0.91128 0.19637 0.0
C703 C 0.61278 0.89578 0.17381 0.0
C704 C 0.07481 0.71036 0.15833 0.0
C705 C 0.07428 0.70346 0.12623 0.0
C706 C 0.05305 0.66906 0.17817 0.0
C707 C 0.03042 0.62008 0.16632 0.0
H708 H 0.09717 0.74736 0.16827 0.0
H709 H 0.05904 0.67548 0.2029 0.0
S710 S 0.01259 0.58302 0.08381 0.0
N711 N 0.04357 0.64479 0.08326 0.0
N712 N 0.00287 0.56703 0.12073 0.0
C713 C 0.0244 0.6129 0.13425 0.0
C714 C 0.0464 0.65487 0.11408 0.0
C715 C 0.37586 0.42514 0.14882 0.0
C716 C 0.36424 0.42119 0.18038 0.0
C717 C 0.33756 0.40436 0.12648 0.0
C718 C 0.28696 0.37928 0.13527 0.0
H719 H 0.41407 0.44905 0.1413 0.0
H720 H 0.34738 0.41279 0.1023 0.0
S721 S 0.23817 0.35227 0.21511 0.0
N722 N 0.29966 0.3848 0.21949 0.0
N723 N 0.22759 0.34592 0.17735 0.0
C724 C 0.27532 0.37004 0.16671 0.0
C725 C 0.31421 0.39112 0.18941 0.0
C726 C 0.76293 0.77603 0.50777 0.0
C727 C 0.79745 0.79893 0.53227 0.0
C728 C 0.77402 0.75442 0.48283 0.0
C729 C 0.81985 0.75525 0.48182 0.0
H730 H 0.7286 0.77749 0.5069 0.0
H731 H 0.7482 0.74011 0.46336 0.0
S732 S 0.91797 0.80096 0.54301 0.0
N733 N 0.87569 0.81398 0.55612 0.0
N734 N 0.89645 0.77367 0.50908 0.0
C735 C 0.8526 0.77404 0.50732 0.0
C736 C 0.8414 0.79584 0.53265 0.0
C737 C 0.13977 0.95004 0.44727 0.0
C738 C 0.18626 0.9944 0.44486 0.0
C739 C 0.12871 0.91881 0.47285 0.0
C740 C 0.1638 0.93042 0.49687 0.0
H741 H 0.11075 0.94024 0.42991 0.0
H742 H 0.09169 0.88605 0.47429 0.0
S743 S 0.29309 0.03824 0.50017 0.0
N744 N 0.26955 0.04573 0.46745 0.0
N745 N 0.24836 0.98613 0.51561 0.0
C746 C 0.21173 0.97234 0.4938 0.0
C747 C 0.22308 0.00458 0.46773 0.0
C748 C 0.0414 0.30076 0.48809 0.0
C749 C 0.01791 0.287 0.51712 0.0
C750 C 0.01308 0.2864 0.4607 0.0
C751 C 0.96052 0.25872 0.46156 0.0
H752 H 0.08163 0.31731 0.48631 0.0
H753 H 0.03245 0.29264 0.43889 0.0
S754 S 0.88196 0.22742 0.53191 0.0
N755 N 0.94002 0.25425 0.54526 0.0
N756 N 0.88638 0.22845 0.4938 0.0
C757 C 0.93691 0.25215 0.4904 0.0
C758 C 0.9658 0.26595 0.51827 0.0
C759 C 0.12416 0.20445 0.47277 0.0
C760 C 0.15934 0.22939 0.49651 0.0
C761 C 0.13591 0.18468 0.44736 0.0
C762 C 0.18315 0.18851 0.4449 0.0
H763 H 0.08662 0.19879 0.47429 0.0
H764 H 0.10687 0.16447 0.43017 0.0
S765 S 0.29026 0.25548 0.49955 0.0
N766 N 0.24462 0.26127 0.51493 0.0
N767 N 0.26704 0.22351 0.46715 0.0
C768 C 0.2199 0.21646 0.46751 0.0
C769 C 0.20789 0.23703 0.49337 0.0
C770 C 0.77309 0.01748 0.48317 0.0
C771 C 0.81802 0.06335 0.48218 0.0
C772 C 0.76274 0.98513 0.50833 0.0
C773 C 0.79702 -0.00202 0.53316 0.0
H774 H 0.74754 0.00508 0.46354 0.0
H775 H 0.72916 0.94871 0.50737 0.0
S776 S 0.9151 0.11897 0.54384 0.0
N777 N 0.89356 0.12337 0.50956 0.0
N778 N 0.8738 0.06336 0.55722 0.0
C779 C 0.83987 0.04591 0.53354 0.0
C780 C 0.85048 0.07843 0.50789 0.0
C781 C 0.97414 0.70229 0.51439 0.0
C782 C 0.02638 0.73344 0.51346 0.0
C783 C 0.94538 0.68905 0.48718 0.0
C784 C 0.96801 0.70744 0.45826 0.0
H785 H 0.95497 0.69216 0.53641 0.0
H786 H 0.905 0.66919 0.48934 0.0
S787 S 0.10413 0.77949 0.44274 0.0
N788 N 0.10025 0.77363 0.48079 0.0
N789 N 0.04587 0.74943 0.42969 0.0
C790 C 0.02046 0.73263 0.45669 0.0
C791 C 0.04983 0.74546 0.48435 0.0
C792 C 0.22268 0.24945 -0.01135 0.0
C793 C 0.25018 0.30058 -0.00408 0.0
C794 C 0.24639 0.22517 0.97604 0.0
C795 C 0.29835 0.25112 0.97146 0.0
H796 H 0.18262 0.2284 -0.00762 0.0
H797 H 0.22417 0.18588 0.97012 0.0
S798 S 0.38673 0.38507 0.98747 0.0
N799 N 0.33148 0.37643 -0.00229 0.0
N800 N 0.37659 0.3302 0.97507 0.0
C801 C 0.32628 0.30205 0.97908 0.0
C802 C 0.30196 0.32702 -0.00894 0.0
C803 C 0.7133 0.00125 0.95875 0.0
C804 C 0.7361 0.04475 0.97711 0.0
C805 C 0.69062 0.95394 0.97218 0.0
C806 C 0.69051 0.9484 0.00445 0.0
H807 H 0.7127 0.0037 0.93372 0.0
H808 H 0.67353 0.92148 0.95712 0.0
S809 S 0.74405 0.05041 0.06288 0.0
N810 N 0.75645 0.07948 0.02921 0.0
N811 N 0.71384 0.9901 0.05464 0.0
C812 C 0.71289 0.99152 0.02318 0.0
C813 C 0.73556 0.03984 0.00946 0.0
C814 C 0.97081 0.67297 0.97196 0.0
C815 C 0.94358 0.6981 0.96966 0.0
C816 C 0.02052 0.69797 0.98221 0.0
C817 C 0.04388 0.74841 -0.00891 0.0
H818 H 0.95372 0.6339 0.96552 0.0
H819 H 0.0403 0.67734 0.98407 0.0
S820 S 0.98869 0.83075 -0.01107 0.0
N821 N 0.94348 0.77611 0.97624 0.0
N822 N 0.03687 0.82293 -0.00345 0.0
C823 C 0.01713 0.77399 -0.01122 0.0
C824 C 0.96689 0.74883 0.97772 0.0
C825 C 0.69281 0.73899 0.97214 0.0
C826 C 0.69327 0.74422 0.00442 0.0
C827 C 0.71556 0.71485 0.95834 0.0
C828 C 0.73917 0.69445 0.97633 0.0
H829 H 0.67487 0.75388 0.95733 0.0
H830 H 0.71404 0.71169 0.93332 0.0
S831 S 0.74952 0.69722 0.06209 0.0
N832 N 0.71849 0.72666 0.05426 0.0
N833 N 0.7614 0.68082 0.02824 0.0
C834 C 0.73969 0.69915 0.00874 0.0
C835 C 0.71684 0.72429 0.02281 0.0
C836 C 0.22375 0.97393 0.98698 0.0
C837 C 0.2501 0.94835 -0.00816 0.0
C838 C 0.2476 0.02196 0.97427 0.0
C839 C 0.29871 0.04608 0.96711 0.0
H840 H 0.18447 0.95655 -0.00715 0.0
H841 H 0.22629 0.04073 0.97061 0.0
S842 S 0.38401 -0.00508 0.97579 0.0
N843 N 0.32938 0.94988 -0.01175 0.0
N844 N 0.37487 0.04124 0.96541 0.0
C845 C 0.32547 0.02098 0.97201 0.0
C846 C 0.3009 0.97166 0.98412 0.0
C847 C 0.96959 0.29865 0.9777 0.0
C848 C 0.94207 0.24625 0.9758 0.0
C849 C 0.01984 0.32334 0.98708 0.0
C850 C 0.04342 0.29615 -0.00459 0.0
H851 H 0.95252 0.32066 0.97122 0.0
H852 H 0.03998 0.36379 -0.01147 0.0
S853 S 0.98723 0.15845 -0.00558 0.0
N854 N 0.94172 0.16802 0.98253 0.0
N855 N 0.03594 0.21444 0.00119 0.0
C856 C 0.01615 0.24378 -0.00621 0.0
C857 C 0.96543 0.21877 0.98367 0.0
C858 C 0.88711 0.61118 0.29501 0.0
C859 C 0.88076 0.61082 0.32727 0.0
C860 C 0.91292 0.58933 0.28185 0.0
C861 C 0.93399 0.56721 0.30054 0.0
H862 H 0.87314 0.62946 0.27985 0.0
H863 H 0.91789 0.5913 0.25695 0.0
S864 S 0.9246 0.55208 0.38579 0.0
N865 N 0.89506 0.58272 0.37736 0.0
N866 N 0.94391 0.54261 0.35234 0.0
C867 C 0.92648 0.56486 0.33258 0.0
C868 C 0.89967 0.58633 0.346 0.0
C869 C 0.3757 0.35459 0.34155 0.0
C870 C 0.38829 0.36972 0.31073 0.0
C871 C 0.3477 0.30392 0.34896 0.0
C872 C 0.3308 0.26705 0.32567 0.0
H873 H 0.38759 0.38203 0.35999 0.0
H874 H 0.33831 0.29369 0.373 0.0
S875 S 0.35311 0.28809 0.2412 0.0
N876 N 0.38139 0.34452 0.25666 0.0
N877 N 0.32891 0.24921 0.27058 0.0
C878 C 0.34331 0.28187 0.29473 0.0
C879 C 0.37206 0.3333 0.28725 0.0
C880 C 0.63305 0.0186 0.30286 0.0
C881 C 0.59334 0.00927 0.32257 0.0
C882 C 0.68185 0.0399 0.31408 0.0
C883 C 0.69302 0.05335 0.34541 0.0
H884 H 0.62645 0.00963 0.27839 0.0
H885 H 0.71121 0.04737 0.29771 0.0
S886 S 0.60158 0.03325 0.407 0.0
N887 N 0.56727 0.01195 0.37512 0.0
N888 N 0.65993 0.0531 0.3965 0.0
C889 C 0.65339 0.04275 0.36568 0.0
C890 C 0.60326 0.02029 0.3542 0.0
C891 C 0.34803 0.04504 0.34811 0.0
C892 C 0.33246 0.06676 0.32512 0.0
C893 C 0.37611 0.02265 0.34044 0.0
C894 C 0.39019 0.02229 0.3097 0.0
H895 H 0.3372 0.04399 0.37203 0.0
H896 H 0.3866 0.0053 0.35858 0.0
S897 S 0.35987 0.07521 0.24113 0.0
N898 N 0.33401 0.08753 0.27057 0.0
N899 N 0.38698 0.0455 0.25612 0.0
C900 C 0.37583 0.04484 0.2866 0.0
C901 C 0.34684 0.06708 0.29433 0.0
C902 C 0.91189 0.32652 0.28275 0.0
C903 C 0.93415 0.36935 0.3017 0.0
C904 C 0.88615 0.27858 0.29564 0.0
C905 C 0.88097 0.27183 0.32791 0.0
H906 H 0.91583 0.32999 0.25781 0.0
H907 H 0.87117 0.2466 0.28022 0.0
S908 S 0.92886 0.37283 0.38732 0.0
N909 N 0.94687 0.40255 0.35398 0.0
N910 N 0.8982 0.31281 0.37844 0.0
C911 C 0.90124 0.31472 0.34701 0.0
C912 C 0.92802 0.36339 0.33385 0.0
C913 C 0.66595 0.58363 0.34849 0.0
C914 C 0.69158 0.63615 0.34987 0.0
C915 C 0.61665 0.55696 0.33752 0.0
C916 C 0.59133 0.58208 0.32865 0.0
H917 H 0.68487 0.5632 0.35453 0.0
H918 H 0.5986 0.51668 0.33531 0.0
S919 S 0.6405 0.71863 0.32991 0.0
N920 N 0.68757 0.71209 0.34259 0.0
N921 N 0.59383 0.66147 0.32298 0.0
C922 C 0.6156 0.63425 0.33124 0.0
C923 C 0.66617 0.66152 0.34162 0.0
C924 C 0.6362 0.94714 0.62728 0.0
C925 C 0.64535 0.91908 0.64935 0.0
C926 C 0.60763 0.96906 0.63466 0.0
C927 C 0.58649 0.96272 0.66411 0.0
H928 H 0.65266 0.9537 0.60446 0.0
H929 H 0.60278 0.99182 0.61739 0.0
S930 S 0.59698 0.89031 0.7295 0.0
N931 N 0.62951 0.88436 0.70136 0.0
N932 N 0.57505 0.92523 0.71522 0.0
C933 C 0.59372 0.9332 0.68604 0.0
C934 C 0.6235 0.91152 0.67868 0.0
C935 C 0.10019 0.71107 0.68009 0.0
C936 C 0.10046 0.7185 0.648 0.0
C937 C 0.07368 0.66303 0.69268 0.0
C938 C 0.0457 0.62082 0.67366 0.0
H939 H 0.11999 0.74264 0.69563 0.0
H940 H 0.07414 0.65914 0.7176 0.0
S941 S 0.03443 0.62011 0.58806 0.0
N942 N 0.07082 0.67951 0.59731 0.0
N943 N 0.02083 0.58938 0.62113 0.0
C944 C 0.04612 0.62764 0.64151 0.0
C945 C 0.07364 0.67643 0.62863 0.0
C946 C 0.32125 0.3979 0.61846 0.0
C947 C 0.29006 0.34736 0.62669 0.0
C948 C 0.37132 0.42445 0.62821 0.0
C949 C 0.39172 0.401 0.646 0.0
H950 H 0.30634 0.41785 0.60572 0.0
H951 H 0.3935 0.46396 0.623 0.0
S952 S 0.32874 0.26849 0.67028 0.0
N953 N 0.28511 0.274 0.65124 0.0
N954 N 0.37951 0.32438 0.66948 0.0
C955 C 0.36217 0.35011 0.65291 0.0
C956 C 0.31118 0.32307 0.64322 0.0
C957 C 0.05262 0.41873 0.64473 0.0
C958 C 0.04828 0.42125 0.67687 0.0
C959 C 0.07924 0.3975 0.63219 0.0
C960 C 0.10183 0.37719 0.65134 0.0
H961 H 0.0352 0.43315 0.62912 0.0
H962 H 0.08031 0.39531 0.60721 0.0
S963 S 0.10206 0.37567 0.73725 0.0
N964 N 0.06958 0.40299 0.72781 0.0
N965 N 0.11929 0.36244 0.70415 0.0
C966 C 0.09858 0.38039 0.6836 0.0
C967 C 0.07189 0.40257 0.69639 0.0
C968 C 0.64707 0.64174 0.66046 0.0
C969 C 0.59486 0.61556 0.65628 0.0
C970 C 0.67474 0.69327 0.65591 0.0
C971 C 0.65104 0.71969 0.64635 0.0
H972 H 0.66644 0.62254 0.66828 0.0
H973 H 0.71495 0.71248 0.65954 0.0
S974 S 0.51564 0.6681 0.63127 0.0
N975 N 0.52049 0.61934 0.64199 0.0
N976 N 0.57317 0.71655 0.63209 0.0
C977 C 0.59911 0.69389 0.64136 0.0
C978 C 0.57074 0.64159 0.64673 0.0
C979 C 0.3264 0.93101 0.6174 0.0
C980 C 0.29098 0.94106 0.63109 0.0
C981 C 0.37598 0.95423 0.62819 0.0
C982 C 0.39142 0.9879 0.65304 0.0
H983 H 0.31539 0.90353 0.59906 0.0
H984 H 0.4016 0.94392 0.61813 0.0
S985 S 0.31682 0.03355 0.69362 0.0
N986 N 0.27747 0.9923 0.66834 0.0
N987 N 0.37042 0.03474 0.68886 0.0
C988 C 0.35769 0.00068 0.66567 0.0
C989 C 0.30748 0.9776 0.6546 0.0
loop_
_geom_bond_atom_site_label_1
_geom_bond_atom_site_label_2
_geom_bond_distance
_geom_bond_site_symmetry_2
_ccdc_geom_bond_type
Sc0 O3 2.025 . S
Sc0 O10 2.105 . S
Sc0 O13 2.105 . S
Sc0 O16 2.105 . S
Sc0 O19 2.105 . S
Sc1 O3 2.025 . S
Sc1 O11 2.105 . S
Sc1 O15 2.105 . S
Sc1 O17 2.105 . S
Sc1 O21 2.105 . S
Sc2 O3 2.025 . S
Sc2 O12 2.105 . S
Sc2 O14 2.105 . S
Sc2 O18 2.105 . S
Sc2 O20 2.105 . S
O3 Sc0 2.025 . S
O3 Sc1 2.025 . S
O3 Sc2 2.025 . S
C4 O10 1.268 . S
C4 O20 1.268 . S
C5 O11 1.268 . S
C5 O19 1.268 . S
C6 O12 1.268 . S
C6 O21 1.268 . S
C7 O13 1.268 . S
C7 O17 1.268 . S
C8 O14 1.268 . S
C8 O16 1.268 . S
C9 O15 1.268 . S
C9 O18 1.268 . S
O10 Sc0 2.105 . S
O10 C4 1.268 . S
O11 Sc1 2.105 . S
O11 C5 1.268 . S
O12 Sc2 2.105 . S
O12 C6 1.268 . S
O13 Sc0 2.105 . S
O13 C7 1.268 . S
O14 Sc2 2.105 . S
O14 C8 1.268 . S
O15 Sc1 2.105 . S
O15 C9 1.268 . S
O16 Sc0 2.105 . S
O16 C8 1.268 . S
O17 Sc1 2.105 . S
O17 C7 1.268 . S
O18 Sc2 2.105 . S
O18 C9 1.268 . S
O19 Sc0 2.105 . S
O19 C5 1.268 . S
O20 Sc2 2.105 . S
O20 C4 1.268 . S
O21 Sc1 2.105 . S
O21 C6 1.268 . S
Sc22 O25 2.025 . S
Sc22 O32 2.105 . S
Sc22 O35 2.105 . S
Sc22 O38 2.105 . S
Sc22 O41 2.105 . S
Sc23 O25 2.025 . S
Sc23 O33 2.105 . S
Sc23 O37 2.105 . S
Sc23 O39 2.105 . S
Sc23 O43 2.105 . S
Sc24 O25 2.025 . S
Sc24 O34 2.105 . S
Sc24 O36 2.105 . S
Sc24 O40 2.105 . S
Sc24 O42 2.105 . S
O25 Sc22 2.025 . S
O25 Sc23 2.025 . S
O25 Sc24 2.025 . S
C26 O32 1.268 . S
C26 O42 1.268 . S
C27 O33 1.268 . S
C27 O41 1.268 . S
C28 O34 1.268 . S
C28 O43 1.268 . S
C29 O35 1.268 . S
C29 O39 1.268 . S
C30 O36 1.268 . S
C30 O38 1.268 . S
C31 O37 1.268 . S
C31 O40 1.268 . S
O32 Sc22 2.105 . S
O32 C26 1.268 . S
O33 Sc23 2.105 . S
O33 C27 1.268 . S
O34 Sc24 2.105 . S
O34 C28 1.268 . S
O35 Sc22 2.105 . S
O35 C29 1.268 . S
O36 Sc24 2.105 . S
O36 C30 1.268 . S
O37 Sc23 2.105 . S
O37 C31 1.268 . S
O38 Sc22 2.105 . S
O38 C30 1.268 . S
O39 Sc23 2.105 . S
O39 C29 1.268 . S
O40 Sc24 2.105 . S
O40 C31 1.268 . S
O41 Sc22 2.105 . S
O41 C27 1.268 . S
O42 Sc24 2.105 . S
O42 C26 1.268 . S
O43 Sc23 2.105 . S
O43 C28 1.268 . S
Sc44 O47 2.025 . S
Sc44 O54 2.105 . S
Sc44 O57 2.105 . S
Sc44 O60 2.105 . S
Sc44 O63 2.105 . S
Sc45 O47 2.025 . S
Sc45 O55 2.105 . S
Sc45 O59 2.105 . S
Sc45 O61 2.105 . S
Sc45 O65 2.105 . S
Sc46 O47 2.025 . S
Sc46 O56 2.105 . S
Sc46 O58 2.105 . S
Sc46 O62 2.105 . S
Sc46 O64 2.105 . S
O47 Sc44 2.025 . S
O47 Sc45 2.025 . S
O47 Sc46 2.025 . S
C48 O54 1.268 . S
C48 O64 1.268 . S
C49 O55 1.268 . S
C49 O63 1.268 . S
C50 O56 1.268 . S
C50 O65 1.268 . S
C51 O57 1.268 . S
C51 O61 1.268 . S
C52 O58 1.268 . S
C52 O60 1.268 . S
C53 O59 1.268 . S
C53 O62 1.268 . S
O54 Sc44 2.105 . S
O54 C48 1.268 . S
O55 Sc45 2.105 . S
O55 C49 1.268 . S
O56 Sc46 2.105 . S
O56 C50 1.268 . S
O57 Sc44 2.105 . S
O57 C51 1.268 . S
O58 Sc46 2.105 . S
O58 C52 1.268 . S
O59 Sc45 2.105 . S
O59 C53 1.268 . S
O60 Sc44 2.105 . S
O60 C52 1.268 . S
O61 Sc45 2.105 . S
O61 C51 1.268 . S
O62 Sc46 2.105 . S
O62 C53 1.268 . S
O63 Sc44 2.105 . S
O63 C49 1.268 . S
O64 Sc46 2.105 . S
O64 C48 1.268 . S
O65 Sc45 2.105 . S
O65 C50 1.268 . S
Sc66 O69 2.025 . S
Sc66 O76 2.105 . S
Sc66 O79 2.105 . S
Sc66 O82 2.105 . S
Sc66 O85 2.105 . S
Sc67 O69 2.025 . S
Sc67 O77 2.105 . S
Sc67 O81 2.105 . S
Sc67 O83 2.105 . S
Sc67 O87 2.105 . S
Sc68 O69 2.025 . S
Sc68 O78 2.105 . S
Sc68 O80 2.105 . S
Sc68 O84 2.105 . S
Sc68 O86 2.105 . S
O69 Sc66 2.025 . S
O69 Sc67 2.025 . S
O69 Sc68 2.025 . S
C70 O76 1.268 . S
C70 O86 1.268 . S
C71 O77 1.268 . S
C71 O85 1.268 . S
C72 O78 1.268 . S
C72 O87 1.268 . S
C73 O79 1.268 . S
C73 O83 1.268 . S
C74 O80 1.268 . S
C74 O82 1.268 . S
C75 O81 1.268 . S
C75 O84 1.268 . S
O76 Sc66 2.105 . S
O76 C70 1.268 . S
O77 Sc67 2.105 . S
O77 C71 1.268 . S
O78 Sc68 2.105 . S
O78 C72 1.268 . S
O79 Sc66 2.105 . S
O79 C73 1.268 . S
O80 Sc68 2.105 . S
O80 C74 1.268 . S
O81 Sc67 2.105 . S
O81 C75 1.268 . S
O82 Sc66 2.105 . S
O82 C74 1.268 . S
O83 Sc67 2.105 . S
O83 C73 1.268 . S
O84 Sc68 2.105 . S
O84 C75 1.268 . S
O85 Sc66 2.105 . S
O85 C71 1.268 . S
O86 Sc68 2.105 . S
O86 C70 1.268 . S
O87 Sc67 2.105 . S
O87 C72 1.268 . S
Sc88 O91 2.025 . S
Sc88 O98 2.105 . S
Sc88 O101 2.105 . S
Sc88 O104 2.105 . S
Sc88 O107 2.105 . S
Sc89 O91 2.025 . S
Sc89 O99 2.105 . S
Sc89 O103 2.105 . S
Sc89 O105 2.105 . S
Sc89 O109 2.105 . S
Sc90 O91 2.025 . S
Sc90 O100 2.105 . S
Sc90 O102 2.105 . S
Sc90 O106 2.105 . S
Sc90 O108 2.105 . S
O91 Sc88 2.025 . S
O91 Sc89 2.025 . S
O91 Sc90 2.025 . S
C92 O98 1.268 . S
C92 O108 1.268 . S
C93 O99 1.268 . S
C93 O107 1.268 . S
C94 O100 1.268 . S
C94 O109 1.268 . S
C95 O101 1.268 . S
C95 O105 1.268 . S
C96 O102 1.268 . S
C96 O104 1.268 . S
C97 O103 1.268 . S
C97 O106 1.268 . S
O98 Sc88 2.105 . S
O98 C92 1.268 . S
O99 Sc89 2.105 . S
O99 C93 1.268 . S
O100 Sc90 2.105 . S
O100 C94 1.268 . S
O101 Sc88 2.105 . S
O101 C95 1.268 . S
O102 Sc90 2.105 . S
O102 C96 1.268 . S
O103 Sc89 2.105 . S
O103 C97 1.268 . S
O104 Sc88 2.105 . S
O104 C96 1.268 . S
O105 Sc89 2.105 . S
O105 C95 1.268 . S
O106 Sc90 2.105 . S
O106 C97 1.268 . S
O107 Sc88 2.105 . S
O107 C93 1.268 . S
O108 Sc90 2.105 . S
O108 C92 1.268 . S
O109 Sc89 2.105 . S
O109 C94 1.268 . S
Sc110 O113 2.025 . S
Sc110 O120 2.105 . S
Sc110 O123 2.105 . S
Sc110 O126 2.105 . S
Sc110 O129 2.105 . S
Sc111 O113 2.025 . S
Sc111 O121 2.105 . S
Sc111 O125 2.105 . S
Sc111 O127 2.105 . S
Sc111 O131 2.105 . S
Sc112 O113 2.025 . S
Sc112 O122 2.105 . S
Sc112 O124 2.105 . S
Sc112 O128 2.105 . S
Sc112 O130 2.105 . S
O113 Sc110 2.025 . S
O113 Sc111 2.025 . S
O113 Sc112 2.025 . S
C114 O120 1.268 . S
C114 O130 1.268 . S
C115 O121 1.268 . S
C115 O129 1.268 . S
C116 O122 1.268 . S
C116 O131 1.268 . S
C117 O123 1.268 . S
C117 O127 1.268 . S
C118 O124 1.268 . S
C118 O126 1.268 . S
C119 O125 1.268 . S
C119 O128 1.268 . S
O120 Sc110 2.105 . S
O120 C114 1.268 . S
O121 Sc111 2.105 . S
O121 C115 1.268 . S
O122 Sc112 2.105 . S
O122 C116 1.268 . S
O123 Sc110 2.105 . S
O123 C117 1.268 . S
O124 Sc112 2.105 . S
O124 C118 1.268 . S
O125 Sc111 2.105 . S
O125 C119 1.268 . S
O126 Sc110 2.105 . S
O126 C118 1.268 . S
O127 Sc111 2.105 . S
O127 C117 1.268 . S
O128 Sc112 2.105 . S
O128 C119 1.268 . S
O129 Sc110 2.105 . S
O129 C115 1.268 . S
O130 Sc112 2.105 . S
O130 C114 1.268 . S
O131 Sc111 2.105 . S
O131 C116 1.268 . S
Sc132 O135 2.025 . S
Sc132 O142 2.105 . S
Sc132 O145 2.105 . S
Sc132 O148 2.105 . S
Sc132 O151 2.105 . S
Sc133 O135 2.025 . S
Sc133 O143 2.105 . S
Sc133 O147 2.105 . S
Sc133 O149 2.105 . S
Sc133 O153 2.105 . S
Sc134 O135 2.025 . S
Sc134 O144 2.105 . S
Sc134 O146 2.105 . S
Sc134 O150 2.105 . S
Sc134 O152 2.105 . S
O135 Sc132 2.025 . S
O135 Sc133 2.025 . S
O135 Sc134 2.025 . S
C136 O142 1.268 . S
C136 O152 1.268 . S
C137 O143 1.268 . S
C137 O151 1.268 . S
C138 O144 1.268 . S
C138 O153 1.268 . S
C139 O145 1.268 . S
C139 O149 1.268 . S
C140 O146 1.268 . S
C140 O148 1.268 . S
C141 O147 1.268 . S
C141 O150 1.268 . S
O142 Sc132 2.105 . S
O142 C136 1.268 . S
O143 Sc133 2.105 . S
O143 C137 1.268 . S
O144 Sc134 2.105 . S
O144 C138 1.268 . S
O145 Sc132 2.105 . S
O145 C139 1.268 . S
O146 Sc134 2.105 . S
O146 C140 1.268 . S
O147 Sc133 2.105 . S
O147 C141 1.268 . S
O148 Sc132 2.105 . S
O148 C140 1.268 . S
O149 Sc133 2.105 . S
O149 C139 1.268 . S
O150 Sc134 2.105 . S
O150 C141 1.268 . S
O151 Sc132 2.105 . S
O151 C137 1.268 . S
O152 Sc134 2.105 . S
O152 C136 1.268 . S
O153 Sc133 2.105 . S
O153 C138 1.268 . S
Sc154 O157 2.025 . S
Sc154 O164 2.105 . S
Sc154 O167 2.105 . S
Sc154 O170 2.105 . S
Sc154 O173 2.105 . S
Sc155 O157 2.025 . S
Sc155 O165 2.105 . S
Sc155 O169 2.105 . S
Sc155 O171 2.105 . S
Sc155 O175 2.105 . S
Sc156 O157 2.025 . S
Sc156 O166 2.105 . S
Sc156 O168 2.105 . S
Sc156 O172 2.105 . S
Sc156 O174 2.105 . S
O157 Sc154 2.025 . S
O157 Sc155 2.025 . S
O157 Sc156 2.025 . S
C158 O164 1.268 . S
C158 O174 1.268 . S
C159 O165 1.268 . S
C159 O173 1.268 . S
C160 O166 1.268 . S
C160 O175 1.268 . S
C161 O167 1.268 . S
C161 O171 1.268 . S
C162 O168 1.268 . S
C162 O170 1.268 . S
C163 O169 1.268 . S
C163 O172 1.268 . S
O164 Sc154 2.105 . S
O164 C158 1.268 . S
O165 Sc155 2.105 . S
O165 C159 1.268 . S
O166 Sc156 2.105 . S
O166 C160 1.268 . S
O167 Sc154 2.105 . S
O167 C161 1.268 . S
O168 Sc156 2.105 . S
O168 C162 1.268 . S
O169 Sc155 2.105 . S
O169 C163 1.268 . S
O170 Sc154 2.105 . S
O170 C162 1.268 . S
O171 Sc155 2.105 . S
O171 C161 1.268 . S
O172 Sc156 2.105 . S
O172 C163 1.268 . S
O173 Sc154 2.105 . S
O173 C159 1.268 . S
O174 Sc156 2.105 . S
O174 C158 1.268 . S
O175 Sc155 2.105 . S
O175 C160 1.268 . S
Sc176 O179 2.025 . S
Sc176 O186 2.105 . S
Sc176 O189 2.105 . S
Sc176 O192 2.105 . S
Sc176 O195 2.105 . S
Sc177 O179 2.025 . S
Sc177 O187 2.105 . S
Sc177 O191 2.105 . S
Sc177 O193 2.105 . S
Sc177 O197 2.105 . S
Sc178 O179 2.025 . S
Sc178 O188 2.105 . S
Sc178 O190 2.105 . S
Sc178 O194 2.105 . S
Sc178 O196 2.105 . S
O179 Sc176 2.025 . S
O179 Sc177 2.025 . S
O179 Sc178 2.025 . S
C180 O186 1.268 . S
C180 O196 1.268 . S
C181 O187 1.268 . S
C181 O195 1.268 . S
C182 O188 1.268 . S
C182 O197 1.268 . S
C183 O189 1.268 . S
C183 O193 1.268 . S
C184 O190 1.268 . S
C184 O192 1.268 . S
C185 O191 1.268 . S
C185 O194 1.268 . S
O186 Sc176 2.105 . S
O186 C180 1.268 . S
O187 Sc177 2.105 . S
O187 C181 1.268 . S
O188 Sc178 2.105 . S
O188 C182 1.268 . S
O189 Sc176 2.105 . S
O189 C183 1.268 . S
O190 Sc178 2.105 . S
O190 C184 1.268 . S
O191 Sc177 2.105 . S
O191 C185 1.268 . S
O192 Sc176 2.105 . S
O192 C184 1.268 . S
O193 Sc177 2.105 . S
O193 C183 1.268 . S
O194 Sc178 2.105 . S
O194 C185 1.268 . S
O195 Sc176 2.105 . S
O195 C181 1.268 . S
O196 Sc178 2.105 . S
O196 C180 1.268 . S
O197 Sc177 2.105 . S
O197 C182 1.268 . S
Sc198 O201 2.025 . S
Sc198 O208 2.105 . S
Sc198 O211 2.105 . S
Sc198 O214 2.105 . S
Sc198 O217 2.105 . S
Sc199 O201 2.025 . S
Sc199 O209 2.105 . S
Sc199 O213 2.105 1_455 S
Sc199 O215 2.105 . S
Sc199 O219 2.105 1_455 S
Sc200 O201 2.025 . S
Sc200 O210 2.105 . S
Sc200 O212 2.105 . S
Sc200 O216 2.105 . S
Sc200 O218 2.105 . S
O201 Sc198 2.025 . S
O201 Sc199 2.025 . S
O201 Sc200 2.025 . S
C202 O208 1.268 . S
C202 O218 1.268 . S
C203 O209 1.268 . S
C203 O217 1.268 . S
C204 O210 1.263 1_655 S
C204 O219 1.275 . S
C205 O211 1.268 . S
C205 O215 1.268 . S
C206 O212 1.268 . S
C206 O214 1.268 . S
C207 O213 1.270 . S
C207 O216 1.257 1_655 S
O208 Sc198 2.105 . S
O208 C202 1.268 . S
O209 Sc199 2.105 . S
O209 C203 1.268 . S
O210 Sc200 2.105 . S
O210 C204 1.263 1_455 S
O211 Sc198 2.105 . S
O211 C205 1.268 . S
O212 Sc200 2.105 . S
O212 C206 1.268 . S
O213 Sc199 2.105 1_655 S
O213 C207 1.270 . S
O214 Sc198 2.105 . S
O214 C206 1.268 . S
O215 Sc199 2.105 . S
O215 C205 1.268 . S
O216 Sc200 2.105 . S
O216 C207 1.257 1_455 S
O217 Sc198 2.105 . S
O217 C203 1.268 . S
O218 Sc200 2.105 . S
O218 C202 1.268 . S
O219 Sc199 2.105 1_655 S
O219 C204 1.275 . S
Sc220 O223 2.025 . S
Sc220 O230 2.105 . S
Sc220 O233 2.105 . S
Sc220 O236 2.105 . S
Sc220 O239 2.105 . S
Sc221 O223 2.025 . S
Sc221 O231 2.105 . S
Sc221 O235 2.105 . S
Sc221 O237 2.105 . S
Sc221 O241 2.105 . S
Sc222 O223 2.025 . S
Sc222 O232 2.105 . S
Sc222 O234 2.105 . S
Sc222 O238 2.105 . S
Sc222 O240 2.105 . S
O223 Sc220 2.025 . S
O223 Sc221 2.025 . S
O223 Sc222 2.025 . S
C224 O230 1.268 . S
C224 O240 1.268 . S
C225 O231 1.268 . S
C225 O239 1.268 . S
C226 O232 1.268 . S
C226 O241 1.268 . S
C227 O233 1.268 . S
C227 O237 1.268 . S
C228 O234 1.268 . S
C228 O236 1.268 . S
C229 O235 1.268 . S
C229 O238 1.268 . S
O230 Sc220 2.105 . S
O230 C224 1.268 . S
O231 Sc221 2.105 . S
O231 C225 1.268 . S
O232 Sc222 2.105 . S
O232 C226 1.268 . S
O233 Sc220 2.105 . S
O233 C227 1.268 . S
O234 Sc222 2.105 . S
O234 C228 1.268 . S
O235 Sc221 2.105 . S
O235 C229 1.268 . S
O236 Sc220 2.105 . S
O236 C228 1.268 . S
O237 Sc221 2.105 . S
O237 C227 1.268 . S
O238 Sc222 2.105 . S
O238 C229 1.268 . S
O239 Sc220 2.105 . S
O239 C225 1.268 . S
O240 Sc222 2.105 . S
O240 C224 1.268 . S
O241 Sc221 2.105 . S
O241 C226 1.268 . S
Sc242 O245 2.025 . S
Sc242 O252 2.105 . S
Sc242 O255 2.105 . S
Sc242 O258 2.105 . S
Sc242 O261 2.105 . S
Sc243 O245 2.025 . S
Sc243 O253 2.105 . S
Sc243 O257 2.105 1_565 S
Sc243 O259 2.105 . S
Sc243 O263 2.105 1_565 S
Sc244 O245 2.025 . S
Sc244 O254 2.105 . S
Sc244 O256 2.105 . S
Sc244 O260 2.105 . S
Sc244 O262 2.105 . S
O245 Sc242 2.025 . S
O245 Sc243 2.025 . S
O245 Sc244 2.025 . S
C246 O252 1.268 . S
C246 O262 1.268 . S
C247 O253 1.268 . S
C247 O261 1.268 . S
C248 O254 1.257 1_545 S
C248 O263 1.270 . S
C249 O255 1.268 . S
C249 O259 1.268 . S
C250 O256 1.268 . S
C250 O258 1.268 . S
C251 O257 1.275 . S
C251 O260 1.263 1_545 S
O252 Sc242 2.105 . S
O252 C246 1.268 . S
O253 Sc243 2.105 . S
O253 C247 1.268 . S
O254 Sc244 2.105 . S
O254 C248 1.257 1_565 S
O255 Sc242 2.105 . S
O255 C249 1.268 . S
O256 Sc244 2.105 . S
O256 C250 1.268 . S
O257 Sc243 2.105 1_545 S
O257 C251 1.275 . S
O258 Sc242 2.105 . S
O258 C250 1.268 . S
O259 Sc243 2.105 . S
O259 C249 1.268 . S
O260 Sc244 2.105 . S
O260 C251 1.263 1_565 S
O261 Sc242 2.105 . S
O261 C247 1.268 . S
O262 Sc244 2.105 . S
O262 C246 1.268 . S
O263 Sc243 2.105 1_545 S
O263 C248 1.270 . S
Sc264 O267 2.025 . S
Sc264 O274 2.105 . S
Sc264 O277 2.105 . S
Sc264 O280 2.105 . S
Sc264 O283 2.105 . S
Sc265 O267 2.025 . S
Sc265 O275 2.105 1_545 S
Sc265 O279 2.105 . S
Sc265 O281 2.105 1_545 S
Sc265 O285 2.105 . S
Sc266 O267 2.025 . S
Sc266 O276 2.105 . S
Sc266 O278 2.105 . S
Sc266 O282 2.105 . S
Sc266 O284 2.105 . S
O267 Sc264 2.025 . S
O267 Sc265 2.025 . S
O267 Sc266 2.025 . S
C268 O274 1.268 . S
C268 O284 1.268 . S
C269 O275 1.270 . S
C269 O283 1.257 1_565 S
C270 O276 1.268 . S
C270 O285 1.268 . S
C271 O277 1.263 1_565 S
C271 O281 1.275 . S
C272 O278 1.268 . S
C272 O280 1.268 . S
C273 O279 1.268 . S
C273 O282 1.268 . S
O274 Sc264 2.105 . S
O274 C268 1.268 . S
O275 Sc265 2.105 1_565 S
O275 C269 1.270 . S
O276 Sc266 2.105 . S
O276 C270 1.268 . S
O277 Sc264 2.105 . S
O277 C271 1.263 1_545 S
O278 Sc266 2.105 . S
O278 C272 1.268 . S
O279 Sc265 2.105 . S
O279 C273 1.268 . S
O280 Sc264 2.105 . S
O280 C272 1.268 . S
O281 Sc265 2.105 1_565 S
O281 C271 1.275 . S
O282 Sc266 2.105 . S
O282 C273 1.268 . S
O283 Sc264 2.105 . S
O283 C269 1.257 1_545 S
O284 Sc266 2.105 . S
O284 C268 1.268 . S
O285 Sc265 2.105 . S
O285 C270 1.268 . S
Sc286 O289 2.025 . S
Sc286 O296 2.105 . S
Sc286 O299 2.105 . S
Sc286 O302 2.105 . S
Sc286 O305 2.105 . S
Sc287 O289 2.025 . S
Sc287 O297 2.105 1_655 S
Sc287 O301 2.105 . S
Sc287 O303 2.105 1_655 S
Sc287 O307 2.105 . S
Sc288 O289 2.025 . S
Sc288 O298 2.105 . S
Sc288 O300 2.105 . S
Sc288 O304 2.105 . S
Sc288 O306 2.105 . S
O289 Sc286 2.025 . S
O289 Sc287 2.025 . S
O289 Sc288 2.025 . S
C290 O296 1.268 . S
C290 O306 1.268 . S
C291 O297 1.275 . S
C291 O305 1.263 1_455 S
C292 O298 1.268 . S
C292 O307 1.268 . S
C293 O299 1.257 1_455 S
C293 O303 1.270 . S
C294 O300 1.268 . S
C294 O302 1.268 . S
C295 O301 1.268 . S
C295 O304 1.268 . S
O296 Sc286 2.105 . S
O296 C290 1.268 . S
O297 Sc287 2.105 1_455 S
O297 C291 1.275 . S
O298 Sc288 2.105 . S
O298 C292 1.268 . S
O299 Sc286 2.105 . S
O299 C293 1.257 1_655 S
O300 Sc288 2.105 . S
O300 C294 1.268 . S
O301 Sc287 2.105 . S
O301 C295 1.268 . S
O302 Sc286 2.105 . S
O302 C294 1.268 . S
O303 Sc287 2.105 1_455 S
O303 C293 1.270 . S
O304 Sc288 2.105 . S
O304 C295 1.268 . S
O305 Sc286 2.105 . S
O305 C291 1.263 1_655 S
O306 Sc288 2.105 . S
O306 C290 1.268 . S
O307 Sc287 2.105 . S
O307 C292 1.268 . S
Sc308 O311 2.025 . S
Sc308 O318 2.105 . S
Sc308 O321 2.105 . S
Sc308 O324 2.105 . S
Sc308 O327 2.105 . S
Sc309 O311 2.025 . S
Sc309 O319 2.105 . S
Sc309 O323 2.105 . S
Sc309 O325 2.105 . S
Sc309 O329 2.105 . S
Sc310 O311 2.025 . S
Sc310 O320 2.105 . S
Sc310 O322 2.105 . S
Sc310 O326 2.105 . S
Sc310 O328 2.105 . S
O311 Sc308 2.025 . S
O311 Sc309 2.025 . S
O311 Sc310 2.025 . S
C312 O318 1.268 . S
C312 O328 1.268 . S
C313 O319 1.268 . S
C313 O327 1.268 . S
C314 O320 1.268 . S
C314 O329 1.268 . S
C315 O321 1.268 . S
C315 O325 1.268 . S
C316 O322 1.268 . S
C316 O324 1.268 . S
C317 O323 1.268 . S
C317 O326 1.268 . S
O318 Sc308 2.105 . S
O318 C312 1.268 . S
O319 Sc309 2.105 . S
O319 C313 1.268 . S
O320 Sc310 2.105 . S
O320 C314 1.268 . S
O321 Sc308 2.105 . S
O321 C315 1.268 . S
O322 Sc310 2.105 . S
O322 C316 1.268 . S
O323 Sc309 2.105 . S
O323 C317 1.268 . S
O324 Sc308 2.105 . S
O324 C316 1.268 . S
O325 Sc309 2.105 . S
O325 C315 1.268 . S
O326 Sc310 2.105 . S
O326 C317 1.268 . S
O327 Sc308 2.105 . S
O327 C313 1.268 . S
O328 Sc310 2.105 . S
O328 C312 1.268 . S
O329 Sc309 2.105 . S
O329 C314 1.268 . S
Sc330 O333 2.025 . S
Sc330 O340 2.105 . S
Sc330 O343 2.105 . S
Sc330 O346 2.105 . S
Sc330 O349 2.105 . S
Sc331 O333 2.025 . S
Sc331 O341 2.105 . S
Sc331 O345 2.105 . S
Sc331 O347 2.105 . S
Sc331 O351 2.105 . S
Sc332 O333 2.025 . S
Sc332 O342 2.105 . S
Sc332 O344 2.105 . S
Sc332 O348 2.105 . S
Sc332 O350 2.105 . S
O333 Sc330 2.025 . S
O333 Sc331 2.025 . S
O333 Sc332 2.025 . S
C334 O340 1.268 . S
C334 O350 1.268 . S
C335 O341 1.268 . S
C335 O349 1.268 . S
C336 O342 1.268 . S
C336 O351 1.268 . S
C337 O343 1.268 . S
C337 O347 1.268 . S
C338 O344 1.268 . S
C338 O346 1.268 . S
C339 O345 1.268 . S
C339 O348 1.268 . S
O340 Sc330 2.105 . S
O340 C334 1.268 . S
O341 Sc331 2.105 . S
O341 C335 1.268 . S
O342 Sc332 2.105 . S
O342 C336 1.268 . S
O343 Sc330 2.105 . S
O343 C337 1.268 . S
O344 Sc332 2.105 . S
O344 C338 1.268 . S
O345 Sc331 2.105 . S
O345 C339 1.268 . S
O346 Sc330 2.105 . S
O346 C338 1.268 . S
O347 Sc331 2.105 . S
O347 C337 1.268 . S
O348 Sc332 2.105 . S
O348 C339 1.268 . S
O349 Sc330 2.105 . S
O349 C335 1.268 . S
O350 Sc332 2.105 . S
O350 C334 1.268 . S
O351 Sc331 2.105 . S
O351 C336 1.268 . S
Sc352 O355 2.025 . S
Sc352 O362 2.105 . S
Sc352 O365 2.105 . S
Sc352 O368 2.105 . S
Sc352 O371 2.105 . S
Sc353 O355 2.025 . S
Sc353 O363 2.105 . S
Sc353 O367 2.105 . S
Sc353 O369 2.105 . S
Sc353 O373 2.105 . S
Sc354 O355 2.025 . S
Sc354 O364 2.105 . S
Sc354 O366 2.105 . S
Sc354 O370 2.105 . S
Sc354 O372 2.105 . S
O355 Sc352 2.025 . S
O355 Sc353 2.025 . S
O355 Sc354 2.025 . S
C356 O362 1.268 . S
C356 O372 1.268 . S
C357 O363 1.268 . S
C357 O371 1.268 . S
C358 O364 1.268 . S
C358 O373 1.268 . S
C359 O365 1.268 . S
C359 O369 1.268 . S
C360 O366 1.268 . S
C360 O368 1.268 . S
C361 O367 1.268 . S
C361 O370 1.268 . S
O362 Sc352 2.105 . S
O362 C356 1.268 . S
O363 Sc353 2.105 . S
O363 C357 1.268 . S
O364 Sc354 2.105 . S
O364 C358 1.268 . S
O365 Sc352 2.105 . S
O365 C359 1.268 . S
O366 Sc354 2.105 . S
O366 C360 1.268 . S
O367 Sc353 2.105 . S
O367 C361 1.268 . S
O368 Sc352 2.105 . S
O368 C360 1.268 . S
O369 Sc353 2.105 . S
O369 C359 1.268 . S
O370 Sc354 2.105 . S
O370 C361 1.268 . S
O371 Sc352 2.105 . S
O371 C357 1.268 . S
O372 Sc354 2.105 . S
O372 C356 1.268 . S
O373 Sc353 2.105 . S
O373 C358 1.268 . S
Sc374 O377 2.025 . S
Sc374 O384 2.105 . S
Sc374 O387 2.105 . S
Sc374 O390 2.105 . S
Sc374 O393 2.105 . S
Sc375 O377 2.025 . S
Sc375 O385 2.105 . S
Sc375 O389 2.105 . S
Sc375 O391 2.105 . S
Sc375 O395 2.105 . S
Sc376 O377 2.025 . S
Sc376 O386 2.105 . S
Sc376 O388 2.105 . S
Sc376 O392 2.105 . S
Sc376 O394 2.105 . S
O377 Sc374 2.025 . S
O377 Sc375 2.025 . S
O377 Sc376 2.025 . S
C378 O384 1.268 . S
C378 O394 1.268 . S
C379 O385 1.268 . S
C379 O393 1.268 . S
C380 O386 1.268 . S
C380 O395 1.268 . S
C381 O387 1.268 . S
C381 O391 1.268 . S
C382 O388 1.268 . S
C382 O390 1.268 . S
C383 O389 1.268 . S
C383 O392 1.268 . S
O384 Sc374 2.105 . S
O384 C378 1.268 . S
O385 Sc375 2.105 . S
O385 C379 1.268 . S
O386 Sc376 2.105 . S
O386 C380 1.268 . S
O387 Sc374 2.105 . S
O387 C381 1.268 . S
O388 Sc376 2.105 . S
O388 C382 1.268 . S
O389 Sc375 2.105 . S
O389 C383 1.268 . S
O390 Sc374 2.105 . S
O390 C382 1.268 . S
O391 Sc375 2.105 . S
O391 C381 1.268 . S
O392 Sc376 2.105 . S
O392 C383 1.268 . S
O393 Sc374 2.105 . S
O393 C379 1.268 . S
O394 Sc376 2.105 . S
O394 C378 1.268 . S
O395 Sc375 2.105 . S
O395 C380 1.268 . S
C396 C397 1.369 . S
C396 C398 1.419 . S
C396 H400 0.930 . S
C397 C396 1.369 . S
C397 C406 1.429 . S
C398 C396 1.419 . S
C398 C399 1.363 . S
C398 H401 0.929 . S
C399 C398 1.363 . S
C399 C405 1.428 . S
H400 C396 0.930 . S
H401 C398 0.929 . S
S402 N403 1.613 . S
S402 N404 1.610 . S
N403 S402 1.613 . S
N403 C406 1.350 . S
N404 S402 1.610 . S
N404 C405 1.351 . S
C405 C399 1.428 . S
C405 N404 1.351 . S
C405 C406 1.434 . S
C406 C397 1.429 . S
C406 N403 1.350 . S
C406 C405 1.434 . S
C407 C408 1.369 . S
C407 C409 1.419 . S
C407 H411 0.930 1_554 S
C408 C407 1.369 . S
C408 C417 1.429 . S
C409 C407 1.419 . S
C409 C410 1.363 . S
C409 H412 0.929 1_554 S
C410 C409 1.363 . S
C410 C416 1.428 . S
H411 C407 0.930 1_556 S
H412 C409 0.929 1_556 S
S413 N414 1.613 . S
S413 N415 1.610 . S
N414 S413 1.613 . S
N414 C417 1.350 . S
N415 S413 1.610 . S
N415 C416 1.351 . S
C416 C410 1.428 . S
C416 N415 1.351 . S
C416 C417 1.434 . S
C417 C408 1.429 . S
C417 N414 1.350 . S
C417 C416 1.434 . S
C418 C419 1.369 . S
C418 C420 1.419 . S
C418 H422 0.930 . S
C419 C418 1.369 . S
C419 C428 1.429 . S
C420 C418 1.419 . S
C420 C421 1.363 . S
C420 H423 0.929 . S
C421 C420 1.363 . S
C421 C427 1.428 . S
H422 C418 0.930 . S
H423 C420 0.929 . S
S424 N425 1.613 . S
S424 N426 1.610 . S
N425 S424 1.613 . S
N425 C428 1.350 . S
N426 S424 1.610 . S
N426 C427 1.351 . S
C427 C421 1.428 . S
C427 N426 1.351 . S
C427 C428 1.434 . S
C428 C419 1.429 . S
C428 N425 1.350 . S
C428 C427 1.434 . S
C429 C430 1.369 . S
C429 C431 1.419 . S
C429 H433 0.930 . S
C430 C429 1.369 . S
C430 C439 1.429 . S
C431 C429 1.419 . S
C431 C432 1.363 . S
C431 H434 0.929 . S
C432 C431 1.363 . S
C432 C438 1.428 . S
H433 C429 0.930 . S
H434 C431 0.929 . S
S435 N436 1.613 . S
S435 N437 1.610 . S
N436 S435 1.613 . S
N436 C439 1.350 . S
N437 S435 1.610 . S
N437 C438 1.351 . S
C438 C432 1.428 . S
C438 N437 1.351 . S
C438 C439 1.434 . S
C439 C430 1.429 . S
C439 N436 1.350 . S
C439 C438 1.434 . S
C440 C441 1.369 . S
C440 C442 1.419 . S
C440 H444 0.930 . S
C441 C440 1.369 . S
C441 C450 1.429 . S
C442 C440 1.419 . S
C442 C443 1.363 . S
C442 H445 0.929 . S
C443 C442 1.363 . S
C443 C449 1.428 . S
H444 C440 0.930 . S
H445 C442 0.929 . S
S446 N447 1.613 . S
S446 N448 1.610 . S
N447 S446 1.613 . S
N447 C450 1.350 . S
N448 S446 1.610 . S
N448 C449 1.351 . S
C449 C443 1.428 . S
C449 N448 1.351 . S
C449 C450 1.434 . S
C450 C441 1.429 . S
C450 N447 1.350 . S
C450 C449 1.434 . S
C451 C452 1.369 . S
C451 C453 1.419 . S
C451 H455 0.930 . S
C452 C451 1.369 . S
C452 C461 1.429 . S
C453 C451 1.419 . S
C453 C454 1.363 . S
C453 H456 0.929 . S
C454 C453 1.363 . S
C454 C460 1.428 . S
H455 C451 0.930 . S
H456 C453 0.929 . S
S457 N458 1.613 . S
S457 N459 1.610 . S
N458 S457 1.613 . S
N458 C461 1.350 1_554 S
N459 S457 1.610 . S
N459 C460 1.351 1_554 S
C460 C454 1.428 . S
C460 N459 1.351 1_556 S
C460 C461 1.434 . S
C461 C452 1.429 . S
C461 N458 1.350 1_556 S
C461 C460 1.434 . S
C462 C463 1.369 . S
C462 C464 1.419 . S
C462 H466 0.930 . S
C463 C462 1.369 . S
C463 C472 1.429 . S
C464 C462 1.419 . S
C464 C465 1.363 . S
C464 H467 0.929 . S
C465 C464 1.363 . S
C465 C471 1.428 . S
H466 C462 0.930 . S
H467 C464 0.929 . S
S468 N469 1.613 . S
S468 N470 1.610 . S
N469 S468 1.613 . S
N469 C472 1.350 . S
N470 S468 1.610 . S
N470 C471 1.351 . S
C471 C465 1.428 . S
C471 N470 1.351 . S
C471 C472 1.434 . S
C472 C463 1.429 . S
C472 N469 1.350 . S
C472 C471 1.434 . S
C473 C474 1.369 . S
C473 C475 1.419 . S
C473 H477 0.930 . S
C474 C473 1.369 . S
C474 C483 1.429 . S
C475 C473 1.419 . S
C475 C476 1.363 . S
C475 H478 0.929 . S
C476 C475 1.363 . S
C476 C482 1.428 . S
H477 C473 0.930 . S
H478 C475 0.929 . S
S479 N480 1.613 1_455 S
S479 N481 1.610 1_565 S
N480 S479 1.613 1_655 S
N480 C483 1.350 1_655 S
N481 S479 1.610 1_545 S
N481 C482 1.351 1_545 S
C482 C476 1.428 . S
C482 N481 1.351 1_565 S
C482 C483 1.434 . S
C483 C474 1.429 . S
C483 N480 1.350 1_455 S
C483 C482 1.434 . S
C484 C485 1.369 . S
C484 C486 1.419 . S
C484 H488 0.930 . S
C485 C484 1.369 . S
C485 C494 1.429 . S
C486 C484 1.419 . S
C486 C487 1.363 . S
C486 H489 0.929 . S
C487 C486 1.363 . S
C487 C493 1.428 . S
H488 C484 0.930 . S
H489 C486 0.929 . S
S490 N491 1.613 . S
S490 N492 1.610 . S
N491 S490 1.613 . S
N491 C494 1.350 . S
N492 S490 1.610 . S
N492 C493 1.351 . S
C493 C487 1.428 . S
C493 N492 1.351 . S
C493 C494 1.434 . S
C494 C485 1.429 . S
C494 N491 1.350 . S
C494 C493 1.434 . S
C495 C496 1.369 . S
C495 C497 1.419 . S
C495 H499 0.930 . S
C496 C495 1.369 . S
C496 C505 1.429 . S
C497 C495 1.419 . S
C497 C498 1.363 . S
C497 H500 0.929 . S
C498 C497 1.363 . S
C498 C504 1.428 . S
H499 C495 0.930 . S
H500 C497 0.929 . S
S501 N502 1.613 . S
S501 N503 1.610 . S
N502 S501 1.613 . S
N502 C505 1.350 . S
N503 S501 1.610 . S
N503 C504 1.351 . S
C504 C498 1.428 . S
C504 N503 1.351 . S
C504 C505 1.434 . S
C505 C496 1.429 . S
C505 N502 1.350 . S
C505 C504 1.434 . S
C506 C507 1.369 . S
C506 C508 1.419 . S
C506 H510 0.930 . S
C507 C506 1.369 . S
C507 C516 1.429 . S
C508 C506 1.419 . S
C508 C509 1.363 . S
C508 H511 0.929 . S
C509 C508 1.363 . S
C509 C515 1.428 . S
H510 C506 0.930 . S
H511 C508 0.929 . S
S512 N513 1.613 . S
S512 N514 1.610 . S
N513 S512 1.613 . S
N513 C516 1.350 . S
N514 S512 1.610 . S
N514 C515 1.351 . S
C515 C509 1.428 . S
C515 N514 1.351 . S
C515 C516 1.434 . S
C516 C507 1.429 . S
C516 N513 1.350 . S
C516 C515 1.434 . S
C517 C518 1.369 . S
C517 C519 1.419 . S
C517 H521 0.930 . S
C518 C517 1.369 . S
C518 C527 1.429 . S
C519 C517 1.419 . S
C519 C520 1.363 . S
C519 H522 0.929 . S
C520 C519 1.363 . S
C520 C526 1.428 . S
H521 C517 0.930 . S
H522 C519 0.929 . S
S523 N524 1.613 . S
S523 N525 1.610 . S
N524 S523 1.613 . S
N524 C527 1.350 . S
N525 S523 1.610 . S
N525 C526 1.351 . S
C526 C520 1.428 . S
C526 N525 1.351 . S
C526 C527 1.434 . S
C527 C518 1.429 . S
C527 N524 1.350 . S
C527 C526 1.434 . S
C528 C529 1.369 . S
C528 C530 1.419 . S
C528 H532 0.930 . S
C529 C528 1.369 . S
C529 C538 1.429 . S
C530 C528 1.419 . S
C530 C531 1.363 . S
C530 H533 0.929 . S
C531 C530 1.363 . S
C531 C537 1.428 . S
H532 C528 0.930 . S
H533 C530 0.929 . S
S534 N535 1.613 . S
S534 N536 1.610 . S
N535 S534 1.613 . S
N535 C538 1.350 . S
N536 S534 1.610 . S
N536 C537 1.351 . S
C537 C531 1.428 . S
C537 N536 1.351 . S
C537 C538 1.434 . S
C538 C529 1.429 . S
C538 N535 1.350 . S
C538 C537 1.434 . S
C539 C540 1.369 . S
C539 C541 1.419 . S
C539 H543 0.930 . S
C540 C539 1.369 . S
C540 C549 1.429 . S
C541 C539 1.419 . S
C541 C542 1.363 . S
C541 H544 0.929 . S
C542 C541 1.363 . S
C542 C548 1.428 . S
H543 C539 0.930 . S
H544 C541 0.929 . S
S545 N546 1.613 . S
S545 N547 1.610 . S
N546 S545 1.613 . S
N546 C549 1.350 . S
N547 S545 1.610 . S
N547 C548 1.351 . S
C548 C542 1.428 . S
C548 N547 1.351 . S
C548 C549 1.434 . S
C549 C540 1.429 . S
C549 N546 1.350 . S
C549 C548 1.434 . S
C550 C551 1.369 . S
C550 C552 1.419 . S
C550 H554 0.930 . S
C551 C550 1.369 . S
C551 C560 1.429 . S
C552 C550 1.419 . S
C552 C553 1.363 . S
C552 H555 0.929 . S
C553 C552 1.363 . S
C553 C559 1.428 . S
H554 C550 0.930 . S
H555 C552 0.929 . S
S556 N557 1.613 . S
S556 N558 1.610 . S
N557 S556 1.613 . S
N557 C560 1.350 . S
N558 S556 1.610 . S
N558 C559 1.351 . S
C559 C553 1.428 . S
C559 N558 1.351 . S
C559 C560 1.434 . S
C560 C551 1.429 . S
C560 N557 1.350 . S
C560 C559 1.434 . S
C561 C562 1.369 . S
C561 C563 1.419 . S
C561 H565 0.930 . S
C562 C561 1.369 . S
C562 C571 1.429 . S
C563 C561 1.419 . S
C563 C564 1.363 . S
C563 H566 0.929 . S
C564 C563 1.363 . S
C564 C570 1.428 . S
H565 C561 0.930 . S
H566 C563 0.929 . S
S567 N568 1.613 . S
S567 N569 1.610 . S
N568 S567 1.613 . S
N568 C571 1.350 . S
N569 S567 1.610 . S
N569 C570 1.351 . S
C570 C564 1.428 . S
C570 N569 1.351 . S
C570 C571 1.434 . S
C571 C562 1.429 . S
C571 N568 1.350 . S
C571 C570 1.434 . S
C572 C573 1.369 . S
C572 C574 1.419 . S
C572 H576 0.930 . S
C573 C572 1.369 . S
C573 C582 1.429 . S
C574 C572 1.419 . S
C574 C575 1.363 . S
C574 H577 0.929 . S
C575 C574 1.363 . S
C575 C581 1.428 . S
H576 C572 0.930 . S
H577 C574 0.929 . S
S578 N579 1.613 . S
S578 N580 1.610 1_545 S
N579 S578 1.613 . S
N579 C582 1.350 . S
N580 S578 1.610 1_565 S
N580 C581 1.351 1_565 S
C581 C575 1.428 . S
C581 N580 1.351 1_545 S
C581 C582 1.434 . S
C582 C573 1.429 . S
C582 N579 1.350 . S
C582 C581 1.434 . S
C583 C584 1.369 . S
C583 C585 1.419 . S
C583 H587 0.930 . S
C584 C583 1.369 . S
C584 C593 1.429 . S
C585 C583 1.419 . S
C585 C586 1.363 . S
C585 H588 0.929 . S
C586 C585 1.363 . S
C586 C592 1.428 . S
H587 C583 0.930 . S
H588 C585 0.929 . S
S589 N590 1.613 1_655 S
S589 N591 1.610 1_545 S
N590 S589 1.613 1_455 S
N590 C593 1.350 1_455 S
N591 S589 1.610 1_565 S
N591 C592 1.351 1_565 S
C592 C586 1.428 . S
C592 N591 1.351 1_545 S
C592 C593 1.434 . S
C593 C584 1.429 . S
C593 N590 1.350 1_655 S
C593 C592 1.434 . S
C594 C595 1.369 . S
C594 C596 1.419 . S
C594 H598 0.930 . S
C595 C594 1.369 . S
C595 C604 1.429 . S
C596 C594 1.419 . S
C596 C597 1.363 . S
C596 H599 0.929 . S
C597 C596 1.363 . S
C597 C603 1.428 . S
H598 C594 0.930 . S
H599 C596 0.929 . S
S600 N601 1.613 . S
S600 N602 1.610 . S
N601 S600 1.613 . S
N601 C604 1.350 . S
N602 S600 1.610 . S
N602 C603 1.351 . S
C603 C597 1.428 . S
C603 N602 1.351 . S
C603 C604 1.434 . S
C604 C595 1.429 . S
C604 N601 1.350 . S
C604 C603 1.434 . S
C605 C606 1.369 . S
C605 C607 1.419 . S
C605 H609 0.930 . S
C606 C605 1.369 . S
C606 C615 1.429 . S
C607 C605 1.419 . S
C607 C608 1.363 . S
C607 H610 0.929 . S
C608 C607 1.363 . S
C608 C614 1.428 . S
H609 C605 0.930 . S
H610 C607 0.929 . S
S611 N612 1.613 . S
S611 N613 1.610 . S
N612 S611 1.613 . S
N612 C615 1.350 . S
N613 S611 1.610 . S
N613 C614 1.351 . S
C614 C608 1.428 . S
C614 N613 1.351 . S
C614 C615 1.434 . S
C615 C606 1.429 . S
C615 N612 1.350 . S
C615 C614 1.434 . S
C616 C617 1.369 . S
C616 C618 1.419 . S
C616 H620 0.930 . S
C617 C616 1.369 . S
C617 C626 1.429 . S
C618 C616 1.419 . S
C618 C619 1.363 . S
C618 H621 0.929 . S
C619 C618 1.363 . S
C619 C625 1.428 . S
H620 C616 0.930 . S
H621 C618 0.929 . S
S622 N623 1.613 1_545 S
S622 N624 1.610 1_545 S
N623 S622 1.613 1_565 S
N623 C626 1.350 . S
N624 S622 1.610 1_565 S
N624 C625 1.351 . S
C625 C619 1.428 . S
C625 N624 1.351 . S
C625 C626 1.434 . S
C626 C617 1.429 . S
C626 N623 1.350 . S
C626 C625 1.434 . S
C627 C628 1.369 . S
C627 C629 1.419 . S
C627 H631 0.930 . S
C628 C627 1.369 . S
C628 C637 1.429 . S
C629 C627 1.419 . S
C629 C630 1.363 . S
C629 H632 0.929 . S
C630 C629 1.363 . S
C630 C636 1.428 . S
H631 C627 0.930 . S
H632 C629 0.929 . S
S633 N634 1.613 . S
S633 N635 1.610 . S
N634 S633 1.613 . S
N634 C637 1.350 . S
N635 S633 1.610 . S
N635 C636 1.351 . S
C636 C630 1.428 . S
C636 N635 1.351 . S
C636 C637 1.434 . S
C637 C628 1.429 . S
C637 N634 1.350 . S
C637 C636 1.434 . S
C638 C639 1.369 . S
C638 C640 1.419 . S
C638 H642 0.930 . S
C639 C638 1.369 . S
C639 C648 1.429 . S
C640 C638 1.419 . S
C640 C641 1.363 . S
C640 H643 0.929 . S
C641 C640 1.363 . S
C641 C647 1.428 . S
H642 C638 0.930 . S
H643 C640 0.929 . S
S644 N645 1.613 . S
S644 N646 1.610 . S
N645 S644 1.613 . S
N645 C648 1.350 . S
N646 S644 1.610 . S
N646 C647 1.351 . S
C647 C641 1.428 . S
C647 N646 1.351 . S
C647 C648 1.434 . S
C648 C639 1.429 . S
C648 N645 1.350 . S
C648 C647 1.434 . S
C649 C650 1.369 . S
C649 C651 1.419 . S
C649 H653 0.930 . S
C650 C649 1.369 . S
C650 C659 1.429 . S
C651 C649 1.419 . S
C651 C652 1.363 . S
C651 H654 0.929 . S
C652 C651 1.363 . S
C652 C658 1.428 . S
H653 C649 0.930 . S
H654 C651 0.929 . S
S655 N656 1.613 . S
S655 N657 1.610 . S
N656 S655 1.613 . S
N656 C659 1.350 . S
N657 S655 1.610 . S
N657 C658 1.351 . S
C658 C652 1.428 . S
C658 N657 1.351 . S
C658 C659 1.434 . S
C659 C650 1.429 . S
C659 N656 1.350 . S
C659 C658 1.434 . S
C660 C661 1.369 . S
C660 C662 1.419 . S
C660 H664 0.930 . S
C661 C660 1.369 . S
C661 C670 1.429 . S
C662 C660 1.419 . S
C662 C663 1.363 . S
C662 H665 0.929 . S
C663 C662 1.363 . S
C663 C669 1.428 . S
H664 C660 0.930 . S
H665 C662 0.929 . S
S666 N667 1.613 . S
S666 N668 1.610 . S
N667 S666 1.613 . S
N667 C670 1.350 . S
N668 S666 1.610 . S
N668 C669 1.351 . S
C669 C663 1.428 . S
C669 N668 1.351 . S
C669 C670 1.434 . S
C670 C661 1.429 . S
C670 N667 1.350 . S
C670 C669 1.434 . S
C671 C672 1.369 . S
C671 C673 1.419 . S
C671 H675 0.930 . S
C672 C671 1.369 . S
C672 C681 1.429 . S
C673 C671 1.419 . S
C673 C674 1.363 . S
C673 H676 0.929 . S
C674 C673 1.363 . S
C674 C680 1.428 . S
H675 C671 0.930 . S
H676 C673 0.929 . S
S677 N678 1.613 . S
S677 N679 1.610 . S
N678 S677 1.613 . S
N678 C681 1.350 . S
N679 S677 1.610 . S
N679 C680 1.351 . S
C680 C674 1.428 . S
C680 N679 1.351 . S
C680 C681 1.434 . S
C681 C672 1.429 . S
C681 N678 1.350 . S
C681 C680 1.434 . S
C682 C683 1.369 . S
C682 C684 1.419 . S
C682 H686 0.930 . S
C683 C682 1.369 . S
C683 C692 1.429 . S
C684 C682 1.419 . S
C684 C685 1.363 . S
C684 H687 0.929 . S
C685 C684 1.363 . S
C685 C691 1.428 . S
H686 C682 0.930 . S
H687 C684 0.929 . S
S688 N689 1.613 . S
S688 N690 1.610 1_565 S
N689 S688 1.613 . S
N689 C692 1.350 1_565 S
N690 S688 1.610 1_545 S
N690 C691 1.351 . S
C691 C685 1.428 . S
C691 N690 1.351 . S
C691 C692 1.434 . S
C692 C683 1.429 . S
C692 N689 1.350 1_545 S
C692 C691 1.434 . S
C693 C694 1.369 . S
C693 C695 1.419 . S
C693 H697 0.930 . S
C694 C693 1.369 . S
C694 C703 1.429 . S
C695 C693 1.419 . S
C695 C696 1.363 . S
C695 H698 0.929 . S
C696 C695 1.363 . S
C696 C702 1.428 . S
H697 C693 0.930 . S
H698 C695 0.929 . S
S699 N700 1.613 . S
S699 N701 1.610 . S
N700 S699 1.613 . S
N700 C703 1.350 . S
N701 S699 1.610 . S
N701 C702 1.351 . S
C702 C696 1.428 . S
C702 N701 1.351 . S
C702 C703 1.434 . S
C703 C694 1.429 . S
C703 N700 1.350 . S
C703 C702 1.434 . S
C704 C705 1.369 . S
C704 C706 1.419 . S
C704 H708 0.930 . S
C705 C704 1.369 . S
C705 C714 1.429 . S
C706 C704 1.419 . S
C706 C707 1.363 . S
C706 H709 0.929 . S
C707 C706 1.363 . S
C707 C713 1.428 . S
H708 C704 0.930 . S
H709 C706 0.929 . S
S710 N711 1.613 . S
S710 N712 1.610 . S
N711 S710 1.613 . S
N711 C714 1.350 . S
N712 S710 1.610 . S
N712 C713 1.351 . S
C713 C707 1.428 . S
C713 N712 1.351 . S
C713 C714 1.434 . S
C714 C705 1.429 . S
C714 N711 1.350 . S
C714 C713 1.434 . S
C715 C716 1.369 . S
C715 C717 1.419 . S
C715 H719 0.930 . S
C716 C715 1.369 . S
C716 C725 1.429 . S
C717 C715 1.419 . S
C717 C718 1.363 . S
C717 H720 0.929 . S
C718 C717 1.363 . S
C718 C724 1.428 . S
H719 C715 0.930 . S
H720 C717 0.929 . S
S721 N722 1.613 . S
S721 N723 1.610 . S
N722 S721 1.613 . S
N722 C725 1.350 . S
N723 S721 1.610 . S
N723 C724 1.351 . S
C724 C718 1.428 . S
C724 N723 1.351 . S
C724 C725 1.434 . S
C725 C716 1.429 . S
C725 N722 1.350 . S
C725 C724 1.434 . S
C726 C727 1.369 . S
C726 C728 1.419 . S
C726 H730 0.930 . S
C727 C726 1.369 . S
C727 C736 1.429 . S
C728 C726 1.419 . S
C728 C729 1.363 . S
C728 H731 0.929 . S
C729 C728 1.363 . S
C729 C735 1.428 . S
H730 C726 0.930 . S
H731 C728 0.929 . S
S732 N733 1.613 . S
S732 N734 1.610 . S
N733 S732 1.613 . S
N733 C736 1.350 . S
N734 S732 1.610 . S
N734 C735 1.351 . S
C735 C729 1.428 . S
C735 N734 1.351 . S
C735 C736 1.434 . S
C736 C727 1.429 . S
C736 N733 1.350 . S
C736 C735 1.434 . S
C737 C738 1.369 . S
C737 C739 1.419 1_545 S
C737 H741 0.930 . S
C738 C737 1.369 . S
C738 C747 1.429 . S
C739 C737 1.419 1_565 S
C739 C740 1.363 . S
C739 H742 0.929 . S
C740 C739 1.363 . S
C740 C746 1.428 . S
H741 C737 0.930 . S
H742 C739 0.929 . S
S743 N744 1.613 . S
S743 N745 1.610 1_545 S
N744 S743 1.613 . S
N744 C747 1.350 . S
N745 S743 1.610 1_565 S
N745 C746 1.351 . S
C746 C740 1.428 . S
C746 N745 1.351 . S
C746 C747 1.434 1_565 S
C747 C738 1.429 . S
C747 N744 1.350 . S
C747 C746 1.434 1_545 S
C748 C749 1.369 . S
C748 C750 1.419 . S
C748 H752 0.930 . S
C749 C748 1.369 . S
C749 C758 1.429 1_455 S
C750 C748 1.419 . S
C750 C751 1.363 1_455 S
C750 H753 0.929 . S
C751 C750 1.363 1_655 S
C751 C757 1.428 . S
H752 C748 0.930 . S
H753 C750 0.929 . S
S754 N755 1.613 . S
S754 N756 1.610 . S
N755 S754 1.613 . S
N755 C758 1.350 . S
N756 S754 1.610 . S
N756 C757 1.351 . S
C757 C751 1.428 . S
C757 N756 1.351 . S
C757 C758 1.434 . S
C758 C749 1.429 1_655 S
C758 N755 1.350 . S
C758 C757 1.434 . S
C759 C760 1.369 . S
C759 C761 1.419 . S
C759 H763 0.930 . S
C760 C759 1.369 . S
C760 C769 1.429 . S
C761 C759 1.419 . S
C761 C762 1.363 . S
C761 H764 0.929 . S
C762 C761 1.363 . S
C762 C768 1.428 . S
H763 C759 0.930 . S
H764 C761 0.929 . S
S765 N766 1.613 . S
S765 N767 1.610 . S
N766 S765 1.613 . S
N766 C769 1.350 . S
N767 S765 1.610 . S
N767 C768 1.351 . S
C768 C762 1.428 . S
C768 N767 1.351 . S
C768 C769 1.434 . S
C769 C760 1.429 . S
C769 N766 1.350 . S
C769 C768 1.434 . S
C770 C771 1.369 1_565 S
C770 C772 1.419 . S
C770 H774 0.930 . S
C771 C770 1.369 1_545 S
C771 C780 1.429 . S
C772 C770 1.419 . S
C772 C773 1.363 . S
C772 H775 0.929 . S
C773 C772 1.363 . S
C773 C779 1.428 1_565 S
H774 C770 0.930 . S
H775 C772 0.929 . S
S776 N777 1.613 . S
S776 N778 1.610 . S
N777 S776 1.613 . S
N777 C780 1.350 . S
N778 S776 1.610 . S
N778 C779 1.351 . S
C779 C773 1.428 1_545 S
C779 N778 1.351 . S
C779 C780 1.434 . S
C780 C771 1.429 . S
C780 N777 1.350 . S
C780 C779 1.434 . S
C781 C782 1.369 1_655 S
C781 C783 1.419 . S
C781 H785 0.930 . S
C782 C781 1.369 1_455 S
C782 C791 1.429 . S
C783 C781 1.419 . S
C783 C784 1.363 . S
C783 H786 0.929 . S
C784 C783 1.363 . S
C784 C790 1.428 1_655 S
H785 C781 0.930 . S
H786 C783 0.929 . S
S787 N788 1.613 . S
S787 N789 1.610 . S
N788 S787 1.613 . S
N788 C791 1.350 . S
N789 S787 1.610 . S
N789 C790 1.351 . S
C790 C784 1.428 1_455 S
C790 N789 1.351 . S
C790 C791 1.434 . S
C791 C782 1.429 . S
C791 N788 1.350 . S
C791 C790 1.434 . S
C792 C793 1.369 . S
C792 C794 1.419 . S
C792 H796 0.930 . S
C793 C792 1.369 . S
C793 C802 1.429 1_554 S
C794 C792 1.419 . S
C794 C795 1.363 1_554 S
C794 H797 0.929 . S
C795 C794 1.363 1_556 S
C795 C801 1.428 . S
H796 C792 0.930 . S
H797 C794 0.929 . S
S798 N799 1.613 . S
S798 N800 1.610 . S
N799 S798 1.613 . S
N799 C802 1.350 . S
N800 S798 1.610 . S
N800 C801 1.351 . S
C801 C795 1.428 . S
C801 N800 1.351 . S
C801 C802 1.434 . S
C802 C793 1.429 1_556 S
C802 N799 1.350 . S
C802 C801 1.434 . S
C803 C804 1.369 . S
C803 C805 1.419 1_545 S
C803 H807 0.930 . S
C804 C803 1.369 . S
C804 C813 1.429 1_556 S
C805 C803 1.419 1_565 S
C805 C806 1.363 1_556 S
C805 H808 0.929 . S
C806 C805 1.363 1_554 S
C806 C812 1.428 . S
H807 C803 0.930 . S
H808 C805 0.929 . S
S809 N810 1.613 . S
S809 N811 1.610 1_545 S
N810 S809 1.613 . S
N810 C813 1.350 . S
N811 S809 1.610 1_565 S
N811 C812 1.351 . S
C812 C806 1.428 . S
C812 N811 1.351 . S
C812 C813 1.434 1_565 S
C813 C804 1.429 1_554 S
C813 N810 1.350 . S
C813 C812 1.434 1_545 S
C814 C815 1.369 . S
C814 C816 1.419 1_655 S
C814 H818 0.930 . S
C815 C814 1.369 . S
C815 C824 1.429 1_556 S
C816 C814 1.419 1_455 S
C816 C817 1.363 1_556 S
C816 H819 0.929 . S
C817 C816 1.363 1_554 S
C817 C823 1.428 . S
H818 C814 0.930 . S
H819 C816 0.929 . S
S820 N821 1.613 . S
S820 N822 1.610 1_655 S
N821 S820 1.613 . S
N821 C824 1.350 . S
N822 S820 1.610 1_455 S
N822 C823 1.351 . S
C823 C817 1.428 . S
C823 N822 1.351 . S
C823 C824 1.434 1_455 S
C824 C815 1.429 1_554 S
C824 N821 1.350 . S
C824 C823 1.434 1_655 S
C825 C826 1.369 1_556 S
C825 C827 1.419 . S
C825 H829 0.930 . S
C826 C825 1.369 1_554 S
C826 C835 1.429 . S
C827 C825 1.419 . S
C827 C828 1.363 . S
C827 H830 0.929 . S
C828 C827 1.363 . S
C828 C834 1.428 1_556 S
H829 C825 0.930 . S
H830 C827 0.929 . S
S831 N832 1.613 . S
S831 N833 1.610 . S
N832 S831 1.613 . S
N832 C835 1.350 . S
N833 S831 1.610 . S
N833 C834 1.351 . S
C834 C828 1.428 1_554 S
C834 N833 1.351 . S
C834 C835 1.434 . S
C835 C826 1.429 . S
C835 N832 1.350 . S
C835 C834 1.434 . S
C836 C837 1.369 1_556 S
C836 C838 1.419 1_565 S
C836 H840 0.930 . S
C837 C836 1.369 1_554 S
C837 C846 1.429 . S
C838 C836 1.419 1_545 S
C838 C839 1.363 . S
C838 H841 0.929 . S
C839 C838 1.363 . S
C839 C845 1.428 1_556 S
H840 C836 0.930 . S
H841 C838 0.929 . S
S842 N843 1.613 1_545 S
S842 N844 1.610 . S
N843 S842 1.613 1_565 S
N843 C846 1.350 . S
N844 S842 1.610 . S
N844 C845 1.351 . S
C845 C839 1.428 1_554 S
C845 N844 1.351 . S
C845 C846 1.434 1_545 S
C846 C837 1.429 . S
C846 N843 1.350 . S
C846 C845 1.434 1_565 S
C847 C848 1.369 . S
C847 C849 1.419 1_656 S
C847 H851 0.930 . S
C848 C847 1.369 . S
C848 C857 1.429 . S
C849 C847 1.419 1_454 S
C849 C850 1.363 . S
C849 H852 0.929 . S
C850 C849 1.363 . S
C850 C856 1.428 . S
H851 C847 0.930 . S
H852 C849 0.929 . S
S853 N854 1.613 1_554 S
S853 N855 1.610 1_655 S
N854 S853 1.613 1_556 S
N854 C857 1.350 . S
N855 S853 1.610 1_455 S
N855 C856 1.351 . S
C856 C850 1.428 . S
C856 N855 1.351 . S
C856 C857 1.434 1_454 S
C857 C848 1.429 . S
C857 N854 1.350 . S
C857 C856 1.434 1_656 S
C858 C859 1.369 . S
C858 C860 1.419 . S
C858 H862 0.930 . S
C859 C858 1.369 . S
C859 C868 1.429 . S
C860 C858 1.419 . S
C860 C861 1.363 . S
C860 H863 0.929 1_655 S
C861 C860 1.363 . S
C861 C867 1.428 . S
H862 C858 0.930 . S
H863 C860 0.929 1_455 S
S864 N865 1.613 . S
S864 N866 1.610 . S
N865 S864 1.613 . S
N865 C868 1.350 . S
N866 S864 1.610 . S
N866 C867 1.351 . S
C867 C861 1.428 . S
C867 N866 1.351 . S
C867 C868 1.434 . S
C868 C859 1.429 . S
C868 N865 1.350 . S
C868 C867 1.434 . S
C869 C870 1.369 . S
C869 C871 1.419 . S
C869 H873 0.930 . S
C870 C869 1.369 . S
C870 C879 1.429 . S
C871 C869 1.419 . S
C871 C872 1.363 . S
C871 H874 0.929 . S
C872 C871 1.363 . S
C872 C878 1.428 . S
H873 C869 0.930 . S
H874 C871 0.929 . S
S875 N876 1.613 . S
S875 N877 1.610 . S
N876 S875 1.613 . S
N876 C879 1.350 . S
N877 S875 1.610 . S
N877 C878 1.351 . S
C878 C872 1.428 . S
C878 N877 1.351 . S
C878 C879 1.434 . S
C879 C870 1.429 . S
C879 N876 1.350 . S
C879 C878 1.434 . S
C880 C881 1.369 . S
C880 C882 1.419 . S
C880 H884 0.930 . S
C881 C880 1.369 . S
C881 C890 1.429 . S
C882 C880 1.419 . S
C882 C883 1.363 . S
C882 H885 0.929 . S
C883 C882 1.363 . S
C883 C889 1.428 . S
H884 C880 0.930 . S
H885 C882 0.929 . S
S886 N887 1.613 . S
S886 N888 1.610 . S
N887 S886 1.613 . S
N887 C890 1.350 . S
N888 S886 1.610 . S
N888 C889 1.351 . S
C889 C883 1.428 . S
C889 N888 1.351 . S
C889 C890 1.434 . S
C890 C881 1.429 . S
C890 N887 1.350 . S
C890 C889 1.434 . S
C891 C892 1.369 . S
C891 C893 1.419 1_545 S
C891 H895 0.930 . S
C892 C891 1.369 . S
C892 C901 1.429 . S
C893 C891 1.419 1_565 S
C893 C894 1.363 1_565 S
C893 H896 0.929 . S
C894 C893 1.363 1_545 S
C894 C900 1.428 . S
H895 C891 0.930 . S
H896 C893 0.929 . S
S897 N898 1.613 . S
S897 N899 1.610 . S
N898 S897 1.613 . S
N898 C901 1.350 . S
N899 S897 1.610 . S
N899 C900 1.351 . S
C900 C894 1.428 . S
C900 N899 1.351 . S
C900 C901 1.434 . S
C901 C892 1.429 . S
C901 N898 1.350 . S
C901 C900 1.434 . S
C902 C903 1.369 . S
C902 C904 1.419 . S
C902 H906 0.930 1_655 S
C903 C902 1.369 . S
C903 C912 1.429 . S
C904 C902 1.419 . S
C904 C905 1.363 . S
C904 H907 0.929 . S
C905 C904 1.363 . S
C905 C911 1.428 . S
H906 C902 0.930 1_455 S
H907 C904 0.929 . S
S908 N909 1.613 . S
S908 N910 1.610 . S
N909 S908 1.613 . S
N909 C912 1.350 . S
N910 S908 1.610 . S
N910 C911 1.351 . S
C911 C905 1.428 . S
C911 N910 1.351 . S
C911 C912 1.434 . S
C912 C903 1.429 . S
C912 N909 1.350 . S
C912 C911 1.434 . S
C913 C914 1.369 . S
C913 C915 1.419 . S
C913 H917 0.930 . S
C914 C913 1.369 . S
C914 C923 1.429 . S
C915 C913 1.419 . S
C915 C916 1.363 . S
C915 H918 0.929 . S
C916 C915 1.363 . S
C916 C922 1.428 . S
H917 C913 0.930 . S
H918 C915 0.929 . S
S919 N920 1.613 . S
S919 N921 1.610 . S
N920 S919 1.613 . S
N920 C923 1.350 . S
N921 S919 1.610 . S
N921 C922 1.351 . S
C922 C916 1.428 . S
C922 N921 1.351 . S
C922 C923 1.434 . S
C923 C914 1.429 . S
C923 N920 1.350 . S
C923 C922 1.434 . S
C924 C925 1.369 . S
C924 C926 1.419 . S
C924 H928 0.930 . S
C925 C924 1.369 . S
C925 C934 1.429 . S
C926 C924 1.419 . S
C926 C927 1.363 . S
C926 H929 0.929 . S
C927 C926 1.363 . S
C927 C933 1.428 . S
H928 C924 0.930 . S
H929 C926 0.929 . S
S930 N931 1.613 . S
S930 N932 1.610 . S
N931 S930 1.613 . S
N931 C934 1.350 . S
N932 S930 1.610 . S
N932 C933 1.351 . S
C933 C927 1.428 . S
C933 N932 1.351 . S
C933 C934 1.434 . S
C934 C925 1.429 . S
C934 N931 1.350 . S
C934 C933 1.434 . S
C935 C936 1.369 . S
C935 C937 1.419 . S
C935 H939 0.930 . S
C936 C935 1.369 . S
C936 C945 1.429 . S
C937 C935 1.419 . S
C937 C938 1.363 . S
C937 H940 0.929 . S
C938 C937 1.363 . S
C938 C944 1.428 . S
H939 C935 0.930 . S
H940 C937 0.929 . S
S941 N942 1.613 . S
S941 N943 1.610 . S
N942 S941 1.613 . S
N942 C945 1.350 . S
N943 S941 1.610 . S
N943 C944 1.351 . S
C944 C938 1.428 . S
C944 N943 1.351 . S
C944 C945 1.434 . S
C945 C936 1.429 . S
C945 N942 1.350 . S
C945 C944 1.434 . S
C946 C947 1.369 . S
C946 C948 1.419 . S
C946 H950 0.930 . S
C947 C946 1.369 . S
C947 C956 1.429 . S
C948 C946 1.419 . S
C948 C949 1.363 . S
C948 H951 0.929 . S
C949 C948 1.363 . S
C949 C955 1.428 . S
H950 C946 0.930 . S
H951 C948 0.929 . S
S952 N953 1.613 . S
S952 N954 1.610 . S
N953 S952 1.613 . S
N953 C956 1.350 . S
N954 S952 1.610 . S
N954 C955 1.351 . S
C955 C949 1.428 . S
C955 N954 1.351 . S
C955 C956 1.434 . S
C956 C947 1.429 . S
C956 N953 1.350 . S
C956 C955 1.434 . S
C957 C958 1.369 . S
C957 C959 1.419 . S
C957 H961 0.930 1_455 S
C958 C957 1.369 . S
C958 C967 1.429 . S
C959 C957 1.419 . S
C959 C960 1.363 . S
C959 H962 0.929 . S
C960 C959 1.363 . S
C960 C966 1.428 . S
H961 C957 0.930 1_655 S
H962 C959 0.929 . S
S963 N964 1.613 . S
S963 N965 1.610 . S
N964 S963 1.613 . S
N964 C967 1.350 . S
N965 S963 1.610 . S
N965 C966 1.351 . S
C966 C960 1.428 . S
C966 N965 1.351 . S
C966 C967 1.434 . S
C967 C958 1.429 . S
C967 N964 1.350 . S
C967 C966 1.434 . S
C968 C969 1.369 . S
C968 C970 1.419 . S
C968 H972 0.930 . S
C969 C968 1.369 . S
C969 C978 1.429 . S
C970 C968 1.419 . S
C970 C971 1.363 . S
C970 H973 0.929 . S
C971 C970 1.363 . S
C971 C977 1.428 . S
H972 C968 0.930 . S
H973 C970 0.929 . S
S974 N975 1.613 . S
S974 N976 1.610 . S
N975 S974 1.613 . S
N975 C978 1.350 . S
N976 S974 1.610 . S
N976 C977 1.351 . S
C977 C971 1.428 . S
C977 N976 1.351 . S
C977 C978 1.434 . S
C978 C969 1.429 . S
C978 N975 1.350 . S
C978 C977 1.434 . S
C979 C980 1.369 . S
C979 C981 1.419 . S
C979 H983 0.930 . S
C980 C979 1.369 . S
C980 C989 1.429 . S
C981 C979 1.419 . S
C981 C982 1.363 . S
C981 H984 0.929 . S
C982 C981 1.363 . S
C982 C988 1.428 1_565 S
H983 C979 0.930 . S
H984 C981 0.929 . S
S985 N986 1.613 . S
S985 N987 1.610 . S
N986 S985 1.613 . S
N986 C989 1.350 1_545 S
N987 S985 1.610 . S
N987 C988 1.351 . S
C988 C982 1.428 1_545 S
C988 N987 1.351 . S
C988 C989 1.434 1_545 S
C989 C980 1.429 . S
C989 N986 1.350 1_565 S
C989 C988 1.434 1_565 S
C397 C48 1.334 . S
C399 C8 1.334 . S
C408 C30 1.340 . S
C410 C4 1.339 . S
C419 C26 1.335 . S
C421 C52 1.335 . S
C430 C70 1.342 . S
C432 C96 1.341 . S
C441 C118 1.332 . S
C443 C92 1.333 . S
C452 C114 1.341 . S
C454 C74 1.340 . S
C463 C180 1.332 1_565 S
C465 C140 1.333 . S
C474 C136 1.334 1_455 S
C476 C162 1.334 1_565 S
C485 C158 1.342 . S
C487 C184 1.341 1_455 S
C496 C228 1.342 . S
C498 C202 1.341 . S
C507 C224 1.333 . S
C509 C250 1.334 . S
C518 C206 1.336 . S
C520 C246 1.337 . S
C529 C272 1.341 . S
C531 C312 1.340 . S
C540 C268 1.336 . S
C542 C294 1.336 . S
C551 C290 1.342 . S
C553 C316 1.341 . S
C562 C360 1.336 1_655 S
C564 C334 1.337 . S
C573 C382 1.332 . S
C575 C356 1.333 1_545 S
C584 C378 1.332 1_655 S
C586 C338 1.333 1_545 S
C595 C9 1.180 . S
C597 C203 1.184 . S
C606 C31 1.189 . S
C608 C225 1.185 . S
C617 C247 1.190 . S
C619 C53 1.187 . S
C628 C71 1.178 . S
C630 C273 1.182 . S
C639 C295 1.185 . S
C641 C93 1.188 . S
C650 C317 1.186 . S
C652 C115 1.188 . S
C661 C292 1.179 . S
C663 C117 1.184 . S
C672 C73 1.185 . S
C674 C314 1.188 . S
C683 C270 1.184 . S
C685 C95 1.188 . S
C694 C28 1.178 . S
C696 C249 1.182 . S
C705 C50 1.186 . S
C707 C205 1.182 . S
C716 C227 1.184 . S
C718 C6 1.181 . S
C727 C335 1.180 . S
C729 C141 1.180 . S
C738 C163 1.179 . S
C740 C357 1.182 . S
C749 C379 1.186 . S
C751 C185 1.182 . S
C760 C381 1.190 . S
C762 C160 1.186 . S
C771 C182 1.184 . S
C773 C337 1.188 . S
C782 C359 1.181 . S
C784 C138 1.185 . S
C793 C5 1.378 . S
C795 C75 1.379 . S
C804 C97 1.378 . S
C806 C27 1.379 . S
C815 C119 1.377 . S
C817 C49 1.378 . S
C826 C29 1.378 . S
C828 C116 1.378 . S
C837 C51 1.379 . S
C839 C72 1.378 . S
C848 C94 1.377 . S
C850 C7 1.378 . S
C859 C137 1.377 . S
C861 C207 1.388 . S
C870 C229 1.379 . S
C872 C159 1.378 . S
C881 C251 1.377 . S
C883 C181 1.378 . S
C892 C161 1.377 . S
C894 C248 1.388 . S
C903 C204 1.377 . S
C905 C183 1.378 . S
C914 C139 1.379 . S
C916 C226 1.379 . S
C925 C339 1.378 . S
C927 C269 1.389 . S
C936 C361 1.379 . S
C938 C291 1.377 . S
C947 C383 1.379 . S
C949 C313 1.379 . S
C958 C293 1.388 . S
C960 C380 1.377 . S
C969 C315 1.377 . S
C971 C336 1.378 . S
C980 C358 1.379 . S
C982 C271 1.378 . S
