# Generated by pormake.
# Topology wme, (6)-cn, num edge types: 1
# Building blocks:
#     Node 0, Type 0, BuildingBlock: CUKXOW_clean_sbu_0, # of connection points: 6
#     Node 1, Type 0, BuildingBlock: CUKXOW_clean_sbu_0, # of connection points: 6
#     Node 2, Type 0, BuildingBlock: CUKXOW_clean_sbu_0, # of connection points: 6
#     Node 3, Type 0, BuildingBlock: CUKXOW_clean_sbu_0, # of connection points: 6
#     Node 4, Type 0, BuildingBlock: CUKXOW_clean_sbu_0, # of connection points: 6
#     Node 5, Type 0, BuildingBlock: CUKXOW_clean_sbu_0, # of connection points: 6
#     Node 6, Type 0, BuildingBlock: CUKXOW_clean_sbu_0, # of connection points: 6
#     Node 7, Type 0, BuildingBlock: CUKXOW_clean_sbu_0, # of connection points: 6
#     Node 8, Type 0, BuildingBlock: CUKXOW_clean_sbu_0, # of connection points: 6
#     Node 9, Type 0, BuildingBlock: CUKXOW_clean_sbu_0, # of connection points: 6
#     Node 10, Type 0, BuildingBlock: CUKXOW_clean_sbu_0, # of connection points: 6
#     Node 11, Type 0, BuildingBlock: CUKXOW_clean_sbu_0, # of connection points: 6
#     Edge 12, Type (0, 0), BuildingBlock: TEMPAE_clean_linker_10, # of connection points: 2
#     Edge 13, Type (0, 0), BuildingBlock: TEMPAE_clean_linker_10, # of connection points: 2
#     Edge 14, Type (0, 0), BuildingBlock: TEMPAE_clean_linker_10, # of connection points: 2
#     Edge 15, Type (0, 0), BuildingBlock: TEMPAE_clean_linker_10, # of connection points: 2
#     Edge 16, Type (0, 0), BuildingBlock: TEMPAE_clean_linker_10, # of connection points: 2
#     Edge 17, Type (0, 0), BuildingBlock: TEMPAE_clean_linker_10, # of connection points: 2
#     Edge 18, Type (0, 0), BuildingBlock: TEMPAE_clean_linker_10, # of connection points: 2
#     Edge 19, Type (0, 0), BuildingBlock: TEMPAE_clean_linker_10, # of connection points: 2
#     Edge 20, Type (0, 0), BuildingBlock: TEMPAE_clean_linker_10, # of connection points: 2
#     Edge 21, Type (0, 0), BuildingBlock: TEMPAE_clean_linker_10, # of connection points: 2
#     Edge 22, Type (0, 0), BuildingBlock: TEMPAE_clean_linker_10, # of connection points: 2
#     Edge 23, Type (0, 0), BuildingBlock: TEMPAE_clean_linker_10, # of connection points: 2
#     Edge 24, Type (0, 0), BuildingBlock: TEMPAE_clean_linker_10, # of connection points: 2
#     Edge 25, Type (0, 0), BuildingBlock: TEMPAE_clean_linker_10, # of connection points: 2
#     Edge 26, Type (0, 0), BuildingBlock: TEMPAE_clean_linker_10, # of connection points: 2
#     Edge 27, Type (0, 0), BuildingBlock: TEMPAE_clean_linker_10, # of connection points: 2
#     Edge 28, Type (0, 0), BuildingBlock: TEMPAE_clean_linker_10, # of connection points: 2
#     Edge 29, Type (0, 0), BuildingBlock: TEMPAE_clean_linker_10, # of connection points: 2
#     Edge 30, Type (0, 0), BuildingBlock: TEMPAE_clean_linker_10, # of connection points: 2
#     Edge 31, Type (0, 0), BuildingBlock: TEMPAE_clean_linker_10, # of connection points: 2
#     Edge 32, Type (0, 0), BuildingBlock: TEMPAE_clean_linker_10, # of connection points: 2
#     Edge 33, Type (0, 0), BuildingBlock: TEMPAE_clean_linker_10, # of connection points: 2
#     Edge 34, Type (0, 0), BuildingBlock: TEMPAE_clean_linker_10, # of connection points: 2
#     Edge 35, Type (0, 0), BuildingBlock: TEMPAE_clean_linker_10, # of connection points: 2
#     Edge 36, Type (0, 0), BuildingBlock: TEMPAE_clean_linker_10, # of connection points: 2
#     Edge 37, Type (0, 0), BuildingBlock: TEMPAE_clean_linker_10, # of connection points: 2
#     Edge 38, Type (0, 0), BuildingBlock: TEMPAE_clean_linker_10, # of connection points: 2
#     Edge 39, Type (0, 0), BuildingBlock: TEMPAE_clean_linker_10, # of connection points: 2
#     Edge 40, Type (0, 0), BuildingBlock: TEMPAE_clean_linker_10, # of connection points: 2
#     Edge 41, Type (0, 0), BuildingBlock: TEMPAE_clean_linker_10, # of connection points: 2
#     Edge 42, Type (0, 0), BuildingBlock: TEMPAE_clean_linker_10, # of connection points: 2
#     Edge 43, Type (0, 0), BuildingBlock: TEMPAE_clean_linker_10, # of connection points: 2
#     Edge 44, Type (0, 0), BuildingBlock: TEMPAE_clean_linker_10, # of connection points: 2
#     Edge 45, Type (0, 0), BuildingBlock: TEMPAE_clean_linker_10, # of connection points: 2
#     Edge 46, Type (0, 0), BuildingBlock: TEMPAE_clean_linker_10, # of connection points: 2
#     Edge 47, Type (0, 0), BuildingBlock: TEMPAE_clean_linker_10, # of connection points: 2
# Relax obj value: 0.055
# Max RMSD: 0.148
# Mean RMSD: 0.148
data_MOF--net-wme--node1-CUKXOW_clean_sbu_0--edge1-TEMPAE_clean_linker_10
_symmetry_space_group_name_H-M    P1
_symmetry_Int_Tables_number       1
_symmetry_cell_setting            triclinic
loop_
_symmetry_equiv_pos_as_xyz
'x, y, z'
_cell_length_a     32.335574
_cell_length_b     32.398912
_cell_length_c     57.27195
_cell_angle_alpha  89.983047
_cell_angle_beta   89.900927
_cell_angle_gamma 119.95236
loop_
_atom_site_label
_atom_site_type_symbol
_atom_site_fract_x
_atom_site_fract_y
_atom_site_fract_z
_atom_type_partial_charge
Tb0 Tb 0.26477 0.38738 0.12253 0.0
C1 C 0.2257 0.32181 0.0778 0.0
Tb2 Tb 0.1549 0.30582 0.1201 0.0
O3 O 0.28911 0.335 0.12258 0.0
O4 O 0.2204 0.31633 0.13357 0.0
O5 O 0.25923 0.36302 0.08663 0.0
C6 C 0.07137 0.225 0.12162 0.0
O7 O 0.18438 0.29296 0.08831 0.0
C8 C 0.16971 0.39146 0.10795 0.0
C9 C 0.20071 0.35948 0.16825 0.0
O10 O 0.10544 0.23431 0.10682 0.0
O11 O 0.08459 0.26095 0.13561 0.0
O12 O 0.12787 0.35347 0.10821 0.0
O13 O 0.19833 0.37769 0.11314 0.0
O14 O 0.16668 0.32036 0.15774 0.0
O15 O 0.2393 0.39279 0.15714 0.0
C16 C 0.34058 0.47415 0.11924 0.0
O17 O 0.33615 0.44152 0.13399 0.0
O18 O 0.30239 0.45779 0.10652 0.0
C19 C 0.24728 0.29981 0.12858 0.0
Tb20 Tb 0.88101 0.24784 0.622 0.0
C21 C 0.9097 0.21005 0.57784 0.0
Tb22 Tb 0.85757 0.13945 0.62034 0.0
O23 O 0.95837 0.27435 0.62162 0.0
O24 O 0.91034 0.20614 0.6337 0.0
O25 O 0.89634 0.24037 0.58558 0.0
C26 C 0.85924 0.0581 0.62284 0.0
O27 O 0.9029 0.17175 0.58967 0.0
C28 C 0.78445 0.15064 0.6079 0.0
C29 C 0.8448 0.18352 0.66774 0.0
O30 O 0.87815 0.08933 0.60617 0.0
O31 O 0.83987 0.07296 0.63807 0.0
O32 O 0.7822 0.10952 0.60851 0.0
O33 O 0.82651 0.18029 0.61287 0.0
O34 O 0.85256 0.15081 0.65769 0.0
O35 O 0.84867 0.2212 0.65634 0.0
C36 C 0.86816 0.32276 0.6205 0.0
O37 O 0.89666 0.31783 0.63481 0.0
O38 O 0.84738 0.28575 0.60698 0.0
C39 C 0.95343 0.23371 0.62851 0.0
Tb40 Tb 0.64501 0.88509 0.12138 0.0
C41 C 0.70712 0.90111 0.07665 0.0
Tb42 Tb 0.72513 0.85835 0.1223 0.0
O43 O 0.6971 0.9603 0.1144 0.0
O44 O 0.71669 0.91644 0.13215 0.0
O45 O 0.6634 0.88771 0.08439 0.0
C46 C 0.80267 0.84991 0.1279 0.0
O47 O 0.73903 0.89717 0.08954 0.0
C48 C 0.64028 0.79215 0.10739 0.0
C49 C 0.67448 0.8601 0.17007 0.0
O50 O 0.80153 0.88461 0.11713 0.0
O51 O 0.76025 0.82028 0.13576 0.0
O52 O 0.68013 0.79548 0.10057 0.0
O53 O 0.64998 0.82274 0.12293 0.0
O54 O 0.7103 0.85771 0.15974 0.0
O55 O 0.64379 0.86864 0.15847 0.0
C56 C 0.55821 0.87544 0.12011 0.0
O57 O 0.5954 0.91049 0.13 0.0
O58 O 0.57002 0.84618 0.11088 0.0
C59 C 0.73246 0.95698 0.12319 0.0
Tb60 Tb 0.77027 0.63184 0.6218 0.0
C61 C 0.8108 0.6948 0.57622 0.0
Tb62 Tb 0.88 0.71481 0.61962 0.0
O63 O 0.74677 0.68459 0.61959 0.0
O64 O 0.81389 0.70296 0.63298 0.0
O65 O 0.77808 0.65316 0.58523 0.0
C66 C 0.96326 0.79562 0.62316 0.0
O67 O 0.85126 0.72533 0.58695 0.0
C68 C 0.86628 0.6299 0.60732 0.0
C69 C 0.83354 0.66066 0.66781 0.0
O70 O 0.928 0.78964 0.60992 0.0
O71 O 0.95132 0.75636 0.63431 0.0
O72 O 0.90797 0.6681 0.60744 0.0
O73 O 0.83731 0.64313 0.6126 0.0
O74 O 0.86787 0.69939 0.65715 0.0
O75 O 0.79435 0.62791 0.65696 0.0
C76 C 0.69333 0.5453 0.62104 0.0
O77 O 0.69557 0.58256 0.63089 0.0
O78 O 0.73424 0.55683 0.61161 0.0
C79 C 0.7877 0.71943 0.6267 0.0
Tb80 Tb 0.14965 0.77172 0.12221 0.0
C81 C 0.1183 0.80808 0.07895 0.0
Tb82 Tb 0.16826 0.8751 0.1231 0.0
O83 O 0.07194 0.74231 0.12017 0.0
O84 O 0.11597 0.80804 0.13585 0.0
O85 O 0.13041 0.77681 0.08651 0.0
C86 C 0.1678 0.95739 0.12211 0.0
O87 O 0.12585 0.84623 0.09112 0.0
C88 C 0.24357 0.86571 0.11787 0.0
C89 C 0.18219 0.83153 0.16951 0.0
O90 O 0.18382 0.94163 0.10561 0.0
O91 O 0.15174 0.92668 0.13906 0.0
O92 O 0.24473 0.90234 0.12759 0.0
O93 O 0.20269 0.83904 0.10959 0.0
O94 O 0.17334 0.86398 0.16024 0.0
O95 O 0.18007 0.79572 0.15715 0.0
C96 C 0.16508 0.69795 0.12039 0.0
O97 O 0.13295 0.7001 0.1332 0.0
O98 O 0.18824 0.73723 0.10856 0.0
C99 C 0.07399 0.78024 0.12917 0.0
Tb100 Tb 0.38718 0.14003 0.62076 0.0
C101 C 0.3187 0.11063 0.57806 0.0
Tb102 Tb 0.30244 0.15866 0.62314 0.0
O103 O 0.33842 0.06271 0.6177 0.0
O104 O 0.31762 0.10606 0.63488 0.0
O105 O 0.36322 0.12509 0.58471 0.0
C106 C 0.21954 0.15805 0.6226 0.0
O107 O 0.28774 0.11561 0.59141 0.0
C108 C 0.38685 0.23399 0.61764 0.0
C109 C 0.36074 0.17126 0.66884 0.0
O110 O 0.24995 0.17176 0.6055 0.0
O111 O 0.23567 0.1445 0.63995 0.0
O112 O 0.35155 0.23497 0.62778 0.0
O113 O 0.37253 0.19339 0.60909 0.0
O114 O 0.31897 0.16199 0.66005 0.0
O115 O 0.39446 0.16997 0.65599 0.0
C116 C 0.47525 0.15228 0.61872 0.0
O117 O 0.44035 0.12056 0.63132 0.0
O118 O 0.46049 0.17701 0.60723 0.0
C119 C 0.30305 0.06448 0.62762 0.0
Tb120 Tb 0.63869 0.77267 0.39132 0.0
C121 C 0.70674 0.80516 0.43488 0.0
Tb122 Tb 0.72331 0.87695 0.3931 0.0
O123 O 0.68629 0.74238 0.39118 0.0
O124 O 0.70954 0.81115 0.37909 0.0
O125 O 0.66363 0.7743 0.42676 0.0
C126 C 0.80549 0.96006 0.39333 0.0
O127 O 0.73706 0.84525 0.42386 0.0
C128 C 0.63799 0.8664 0.39874 0.0
C129 C 0.66831 0.83694 0.34578 0.0
O130 O 0.78009 0.93871 0.41169 0.0
O131 O 0.78484 0.93444 0.37509 0.0
O132 O 0.67444 0.90513 0.39115 0.0
O133 O 0.65195 0.83852 0.40555 0.0
O134 O 0.70972 0.86695 0.35574 0.0
O135 O 0.63304 0.80102 0.35741 0.0
C136 C 0.55053 0.69728 0.39223 0.0
O137 O 0.58388 0.70369 0.3775 0.0
O138 O 0.56695 0.73325 0.40641 0.0
C139 C 0.72315 0.78209 0.38432 0.0
Tb140 Tb 0.88597 0.63544 0.89192 0.0
C141 C 0.9115 0.70164 0.93535 0.0
Tb142 Tb 0.8622 0.71707 0.89111 0.0
O143 O 0.96362 0.68429 0.89173 0.0
O144 O 0.91703 0.70556 0.8789 0.0
O145 O 0.89698 0.65739 0.92832 0.0
C146 C 0.85778 0.79737 0.89162 0.0
O147 O 0.90611 0.73284 0.92253 0.0
C148 C 0.79008 0.63107 0.89791 0.0
C149 C 0.8575 0.66398 0.84371 0.0
O150 O 0.85395 0.77177 0.9098 0.0
O151 O 0.86448 0.77803 0.87329 0.0
O152 O 0.78605 0.66498 0.88825 0.0
O153 O 0.83187 0.64742 0.90532 0.0
O154 O 0.86082 0.70258 0.85376 0.0
O155 O 0.86351 0.6319 0.85548 0.0
C156 C 0.87221 0.54696 0.89392 0.0
O157 O 0.83962 0.55789 0.88917 0.0
O158 O 0.9126 0.58585 0.89721 0.0
C159 C 0.95968 0.72039 0.88471 0.0
Tb160 Tb 0.24855 0.87104 0.39386 0.0
C161 C 0.20761 0.89747 0.43632 0.0
Tb162 Tb 0.14537 0.85181 0.39159 0.0
O163 O 0.27885 0.94898 0.39378 0.0
O164 O 0.21277 0.9041 0.37915 0.0
O165 O 0.23294 0.87707 0.43035 0.0
C166 C 0.06286 0.85198 0.39229 0.0
O167 O 0.17519 0.89743 0.42216 0.0
C168 C 0.15356 0.77631 0.39902 0.0
C169 C 0.19275 0.84156 0.3452 0.0
O170 O 0.09092 0.86232 0.37438 0.0
O171 O 0.08147 0.84202 0.40993 0.0
O172 O 0.11671 0.77516 0.38953 0.0
O173 O 0.18109 0.81773 0.40654 0.0
O174 O 0.15752 0.84609 0.35455 0.0
O175 O 0.23012 0.84723 0.35754 0.0
C176 C 0.32506 0.85977 0.39589 0.0
O177 O 0.28551 0.8316 0.38519 0.0
O178 O 0.32176 0.8946 0.40507 0.0
C179 C 0.24055 0.9464 0.38507 0.0
Tb180 Tb 0.393 0.24883 0.89154 0.0
C181 C 0.32793 0.21178 0.93571 0.0
Tb182 Tb 0.30965 0.14418 0.89189 0.0
O183 O 0.34444 0.27778 0.89332 0.0
O184 O 0.32204 0.21047 0.87926 0.0
O185 O 0.37159 0.24189 0.92791 0.0
C186 C 0.22848 0.06015 0.89288 0.0
O187 O 0.29646 0.17382 0.9237 0.0
C188 C 0.39541 0.15614 0.89684 0.0
C189 C 0.36388 0.18912 0.84437 0.0
O190 O 0.25724 0.07947 0.9104 0.0
O191 O 0.24519 0.08831 0.87499 0.0
O192 O 0.35995 0.1182 0.88805 0.0
O193 O 0.38048 0.18252 0.90477 0.0
O194 O 0.32418 0.15539 0.85446 0.0
O195 O 0.3971 0.22654 0.85597 0.0
C196 C 0.48124 0.32422 0.89205 0.0
O197 O 0.44269 0.32514 0.88673 0.0
O198 O 0.47011 0.28083 0.89701 0.0
C199 C 0.30799 0.23859 0.88579 0.0
Tb200 Tb 0.14914 0.38456 0.39079 0.0
C201 C 0.12145 0.3172 0.43494 0.0
Tb202 Tb 0.17205 0.29902 0.39163 0.0
O203 O 0.07153 0.33542 0.39063 0.0
O204 O 0.11875 0.31351 0.37927 0.0
O205 O 0.13403 0.3606 0.42706 0.0
C206 C 0.17195 0.21682 0.38839 0.0
O207 O 0.12878 0.28606 0.42307 0.0
C208 C 0.24584 0.38335 0.40349 0.0
C209 C 0.18316 0.35592 0.34459 0.0
O210 O 0.15154 0.22774 0.40495 0.0
O211 O 0.19178 0.25191 0.37368 0.0
O212 O 0.24819 0.34458 0.40239 0.0
O213 O 0.20341 0.37079 0.39941 0.0
O214 O 0.17408 0.31479 0.35433 0.0
O215 O 0.18192 0.39064 0.35651 0.0
C216 C 0.16331 0.47262 0.39391 0.0
O217 O 0.1442 0.44443 0.37612 0.0
O218 O 0.17391 0.45111 0.40992 0.0
C219 C 0.07579 0.29892 0.38445 0.0
Tb220 Tb 0.77915 0.14294 0.89324 0.0
C221 C 0.82109 0.11879 0.93603 0.0
Tb222 Tb 0.88277 0.16366 0.89056 0.0
O223 O 0.74927 0.06526 0.89505 0.0
O224 O 0.81521 0.10905 0.87957 0.0
O225 O 0.79437 0.13743 0.92978 0.0
C226 C 0.96765 0.16829 0.89195 0.0
O227 O 0.85437 0.11982 0.92201 0.0
C228 C 0.87158 0.23798 0.89556 0.0
C229 C 0.8326 0.1671 0.8438 0.0
O230 O 0.94813 0.17856 0.90911 0.0
O231 O 0.93923 0.15505 0.87412 0.0
O232 O 0.90768 0.2392 0.88515 0.0
O233 O 0.84651 0.19765 0.90475 0.0
O234 O 0.8684 0.16386 0.85335 0.0
O235 O 0.79556 0.16239 0.85621 0.0
C236 C 0.70474 0.1573 0.89552 0.0
O237 O 0.70393 0.11793 0.90077 0.0
O238 O 0.74735 0.18848 0.88863 0.0
C239 C 0.78756 0.06724 0.88655 0.0
C240 C 0.17944 0.02831 0.14433 0.0
C241 C 0.17317 1.00531 0.12286 0.0
C242 C 0.18981 0.07583 0.14536 0.0
C243 C 0.19199 0.10021 0.12444 0.0
C244 C 0.18329 0.07621 0.10276 0.0
C245 C 0.17499 0.02928 0.10219 0.0
C246 C 0.20047 0.10056 0.16875 0.0
C247 C 0.18344 0.10031 0.08015 0.0
C248 C 0.18547 0.21362 0.1315 0.0
C249 C 0.23306 0.24886 0.12782 0.0
C250 C 0.17116 0.16506 0.12964 0.0
C251 C 0.20586 0.1515 0.12522 0.0
C252 C 0.25431 0.1871 0.12219 0.0
C253 C 0.26715 0.23536 0.12309 0.0
C254 C 0.1189 0.12838 0.13203 0.0
C255 C 0.29273 0.17425 0.11833 0.0
H256 H 0.17842 0.00982 0.1603 0.0
H257 H 0.16985 0.01128 0.08559 0.0
H258 H 0.23733 0.13149 0.16869 0.0
H259 H 0.17591 0.11452 0.17206 0.0
H260 H 0.19709 0.07651 0.18337 0.0
H261 H 0.17115 0.07524 0.06516 0.0
H262 H 0.16005 0.11618 0.0817 0.0
H263 H 0.22001 0.12978 0.07631 0.0
H264 H 0.15936 0.22404 0.13569 0.0
H265 H 0.30408 0.26258 0.1204 0.0
H266 H 0.1135 0.10299 0.14628 0.0
H267 H 0.10614 0.10744 0.11565 0.0
H268 H 0.09654 0.14482 0.13568 0.0
H269 H 0.29207 0.15096 0.13271 0.0
H270 H 0.32895 0.20618 0.11742 0.0
H271 H 0.28602 0.15397 0.10184 0.0
C272 C 0.16089 0.17162 0.64444 0.0
C273 C 0.17658 0.16278 0.62323 0.0
C274 C 0.12327 0.18147 0.64508 0.0
C275 C 0.09956 0.18048 0.62411 0.0
C276 C 0.11383 0.16904 0.60279 0.0
C277 C 0.15294 0.16141 0.60255 0.0
C278 C 0.11028 0.19496 0.66807 0.0
C279 C 0.08951 0.16624 0.5799 0.0
C280 C 0.97935 0.1732 0.63207 0.0
C281 C 0.99076 0.22019 0.62745 0.0
C282 C 1.01398 0.1593 0.63022 0.0
C283 C 0.06161 0.19376 0.62456 0.0
C284 C 0.07332 0.24136 0.61996 0.0
C285 C 0.03761 0.25391 0.62125 0.0
C286 C 0.99943 0.10762 0.63376 0.0
C287 C 0.1236 0.27904 0.61372 0.0
H288 H 0.17952 0.17304 0.66041 0.0
H289 H 0.16501 0.15436 0.58614 0.0
H290 H 0.11522 0.23134 0.66676 0.0
H291 H 0.07216 0.17031 0.6722 0.0
H292 H 0.13231 0.19423 0.68275 0.0
H293 H 0.08562 0.1356 0.56946 0.0
H294 H 0.05375 0.16261 0.58208 0.0
H295 H 0.11243 0.19895 0.56966 0.0
H296 H 0.9432 0.14717 0.63695 0.0
H297 H 0.04643 0.29022 0.61752 0.0
H298 H 0.02108 0.10406 0.64777 0.0
H299 H 1.00637 0.09343 0.61748 0.0
H300 H 0.96109 0.08536 0.63838 0.0
H301 H 0.14876 0.28081 0.62738 0.0
H302 H 0.12734 0.31487 0.61178 0.0
H303 H 0.13424 0.26952 0.59704 0.0
C304 C 0.79807 0.03233 0.10638 0.0
C305 C 0.78335 0.99299 0.12114 0.0
C306 C 0.8464 0.06746 0.10482 0.0
C307 C 0.88046 0.06321 0.11858 0.0
C308 C 0.86586 0.02247 0.13279 0.0
C309 C 0.81737 0.98784 0.13394 0.0
C310 C 0.86076 0.10978 0.08901 0.0
C311 C 0.90123 0.01615 0.14733 0.0
C312 C 1.01214 0.14567 0.10529 0.0
C313 C 0.0237 0.1821 0.12157 0.0
C314 C 0.9658 0.10608 0.10432 0.0
C315 C 0.93038 0.10339 0.11984 0.0
C316 C 0.94235 0.13973 0.13661 0.0
C317 C 0.98892 0.1786 0.13729 0.0
C318 C 0.95457 0.06807 0.08622 0.0
C319 C 0.9057 0.13799 0.15359 0.0
H320 H 0.77177 0.0358 0.09616 0.0
H321 H 0.80593 0.9572 0.14526 0.0
H322 H 0.87399 0.14255 0.09968 0.0
H323 H 0.89033 0.11479 0.07733 0.0
H324 H 0.83062 0.10579 0.07808 0.0
H325 H 0.88481 0.98046 0.1557 0.0
H326 H 0.93168 0.02103 0.13635 0.0
H327 H 0.91587 0.04369 0.1612 0.0
H328 H 0.03913 0.14839 0.09313 0.0
H329 H 0.99788 0.20674 0.14992 0.0
H330 H 0.93435 0.07243 0.07174 0.0
H331 H 0.93198 0.03194 0.09368 0.0
H332 H 0.98748 0.07044 0.07883 0.0
H333 H 0.87606 0.13803 0.14387 0.0
H334 H 0.92105 0.16865 0.16584 0.0
H335 H 0.89017 0.10456 0.16392 0.0
C336 C 0.77404 0.78484 0.61358 0.0
C337 C 0.80297 0.77041 0.62496 0.0
C338 C 0.78751 0.83317 0.61221 0.0
C339 C 0.83098 0.86776 0.62248 0.0
C340 C 0.8611 0.85339 0.63333 0.0
C341 C 0.84651 0.80474 0.63458 0.0
C342 C 0.75459 0.84707 0.60032 0.0
C343 C 0.90803 0.88919 0.64416 0.0
C344 C 0.87484 0.99649 0.60533 0.0
C345 C 0.8564 0.01129 0.62359 0.0
C346 C 0.86831 0.95022 0.60505 0.0
C347 C 0.84275 0.91833 0.62347 0.0
C348 C 0.82572 0.9339 0.64236 0.0
C349 C 0.83279 0.98023 0.64219 0.0
C350 C 0.8873 0.93496 0.58471 0.0
C351 C 0.79849 0.90106 0.66238 0.0
H352 H 0.74059 0.75829 0.60591 0.0
H353 H 0.86886 0.7935 0.64342 0.0
H354 H 0.74106 0.86296 0.61328 0.0
H355 H 0.77429 0.87445 0.58675 0.0
H356 H 0.72357 0.81617 0.592 0.0
H357 H 0.92955 0.87275 0.64959 0.0
H358 H 0.92936 0.91849 0.63169 0.0
H359 H 0.90125 0.90532 0.65973 0.0
H360 H 0.89334 0.02065 0.59099 0.0
H361 H 0.81874 0.99175 0.65639 0.0
H362 H 0.85707 0.90735 0.57444 0.0
H363 H 0.90843 0.91881 0.59105 0.0
H364 H 0.91007 0.96519 0.57293 0.0
H365 H 0.76468 0.87069 0.65583 0.0
H366 H 0.7898 0.91942 0.67629 0.0
H367 H 0.81957 0.88609 0.67019 0.0
C368 C 0.03767 0.82757 0.14372 0.0
C369 C 0.035 0.79148 0.12925 0.0
C370 C 1.00105 0.83894 0.14394 0.0
C371 C 0.96129 0.81424 0.12895 0.0
C372 C 0.959 0.77836 0.11393 0.0
C373 C 0.99558 0.76693 0.11453 0.0
C374 C 1.00461 0.87693 0.16043 0.0
C375 C 0.91797 0.75208 0.09721 0.0
C376 C 0.84316 0.80735 0.1436 0.0
C377 C 0.84439 0.84285 0.12917 0.0
C378 C 0.88143 0.7984 0.14406 0.0
C379 C 0.92148 0.825 0.12938 0.0
C380 C 0.92304 0.86124 0.11491 0.0
C381 C 0.88463 0.87005 0.11516 0.0
C382 C 0.87879 0.76015 0.1601 0.0
C383 C 0.9647 0.88987 0.09874 0.0
H384 H 0.0681 0.84641 0.15519 0.0
H385 H 0.99361 0.73919 0.10323 0.0
H386 H 1.00319 0.9056 0.15052 0.0
H387 H 0.97375 0.86141 0.17261 0.0
H388 H 0.03806 0.89305 0.17082 0.0
H389 H 0.92307 0.72737 0.08568 0.0
H390 H 0.88424 0.73125 0.10713 0.0
H391 H 0.91379 0.77783 0.08611 0.0
H392 H 0.81213 0.78639 0.15451 0.0
H393 H 0.88555 0.89742 0.1039 0.0
H394 H 0.91064 0.77513 0.17157 0.0
H395 H 0.87884 0.73135 0.14965 0.0
H396 H 0.84626 0.74429 0.17122 0.0
H397 H 0.99844 0.90784 0.10881 0.0
H398 H 0.96082 0.91728 0.08888 0.0
H399 H 0.96801 0.86575 0.08608 0.0
C400 C 0.02289 0.8781 0.60999 0.0
C401 C 1.01098 0.83856 0.62425 0.0
C402 C 0.0695 0.91751 0.60994 0.0
C403 C 0.10476 0.91702 0.62443 0.0
C404 C 0.09231 0.87765 0.63934 0.0
C405 C 0.04561 0.83892 0.63904 0.0
C406 C 0.08128 0.9588 0.59381 0.0
C407 C 0.12855 0.87603 0.65535 0.0
C408 C 0.2373 0.98926 0.61071 0.0
C409 C 0.25237 0.02719 0.62639 0.0
C410 C 0.18888 0.95431 0.60907 0.0
C411 C 0.15506 0.95691 0.62386 0.0
C412 C 0.17015 0.99572 0.63944 0.0
C413 C 0.21865 0.03051 0.64044 0.0
C414 C 0.17411 0.91411 0.59185 0.0
C415 C 0.13529 0.99986 0.65548 0.0
H416 H 0.99608 0.87786 0.59856 0.0
H417 H 0.0364 0.80846 0.65018 0.0
H418 H 0.10243 0.99326 0.603 0.0
H419 H 0.10335 0.9582 0.57914 0.0
H420 H 0.04869 0.95713 0.58649 0.0
H421 H 0.11261 0.84368 0.66655 0.0
H422 H 0.15772 0.87663 0.64486 0.0
H423 H 0.14485 0.90791 0.66678 0.0
H424 H 0.2633 0.98715 0.59955 0.0
H425 H 0.23037 0.05993 0.65256 0.0
H426 H 0.14323 0.90942 0.58138 0.0
H427 H 0.16269 0.88033 0.60144 0.0
H428 H 0.20359 0.9203 0.57976 0.0
H429 H 0.10498 0.99744 0.64532 0.0
H430 H 0.15221 0.03387 0.66538 0.0
H431 H 0.12033 0.96986 0.66811 0.0
C432 C 0.99106 0.8446 0.41254 0.0
C433 C 1.01469 0.8461 0.39177 0.0
C434 C 0.94395 0.83597 0.41218 0.0
C435 C 0.91973 0.82727 0.39057 0.0
C436 C 0.94368 0.82899 0.36956 0.0
C437 C 0.99118 0.83914 0.3704 0.0
C438 C 0.92002 0.83587 0.43487 0.0
C439 C 0.91873 0.81881 0.34624 0.0
C440 C 0.78411 0.75743 0.39048 0.0
C441 C 0.77325 0.79342 0.38596 0.0
C442 C 0.83173 0.76795 0.39215 0.0
C443 C 0.86913 0.81577 0.38983 0.0
C444 C 0.85816 0.85234 0.38585 0.0
C445 C 0.81033 0.84053 0.3836 0.0
C446 C 0.84201 0.72783 0.39596 0.0
C447 C 0.89687 0.90392 0.38393 0.0
H448 H 1.00943 0.85018 0.42906 0.0
H449 H 1.00941 0.83994 0.35434 0.0
H450 H 0.90643 0.86121 0.4338 0.0
H451 H 0.88884 0.80002 0.43813 0.0
H452 H 0.9446 0.84575 0.45001 0.0
H453 H 0.94222 0.82086 0.33157 0.0
H454 H 0.88671 0.78268 0.34643 0.0
H455 H 0.90629 0.84456 0.34289 0.0
H456 H 0.75539 0.72094 0.39239 0.0
H457 H 0.80193 0.86826 0.38024 0.0
H458 H 0.86296 0.73401 0.41219 0.0
H459 H 0.86394 0.7267 0.38131 0.0
H460 H 0.80889 0.69262 0.39729 0.0
H461 H 0.92011 0.91443 0.39958 0.0
H462 H 0.88216 0.92829 0.38218 0.0
H463 H 0.91977 0.90887 0.36854 0.0
C464 C 0.04543 0.78236 0.88839 0.0
C465 C 0.99772 0.77074 0.88613 0.0
C466 C 0.08205 0.83005 0.89002 0.0
C467 C 0.07043 0.86683 0.89008 0.0
C468 C 0.02209 0.8551 0.88834 0.0
C469 C 0.98641 0.80719 0.886 0.0
C470 C 0.13322 0.8411 0.89129 0.0
C471 C 1.00801 0.89307 0.88903 0.0
C472 C 0.16636 0.98691 0.91327 0.0
C473 C 0.18611 0.01201 0.8925 0.0
C474 C 0.12758 0.94003 0.91282 0.0
C475 C 0.10908 0.91758 0.89105 0.0
C476 C 0.12869 0.94314 0.87006 0.0
C477 C 0.16658 0.99025 0.87107 0.0
C478 C 0.1068 0.91434 0.93558 0.0
C479 C 0.11064 0.92023 0.84651 0.0
H480 H 0.0542 0.75414 0.88854 0.0
H481 H 0.94954 0.79818 0.88453 0.0
H482 H 0.15388 0.86445 0.87647 0.0
H483 H 0.15002 0.86075 0.9076 0.0
H484 H 0.13625 0.80843 0.89077 0.0
H485 H 0.96867 0.87777 0.88886 0.0
H486 H 0.02261 0.91513 0.90496 0.0
H487 H 0.02344 0.91717 0.87378 0.0
H488 H 0.18133 1.00387 0.92986 0.0
H489 H 0.18195 0.0096 0.85498 0.0
H490 H 0.11271 0.88356 0.93723 0.0
H491 H 0.06765 0.90003 0.93592 0.0
H492 H 0.12293 0.93788 0.95096 0.0
H493 H 0.11532 0.88869 0.84474 0.0
H494 H 0.12959 0.94509 0.83185 0.0
H495 H 0.07193 0.90749 0.84494 0.0
C496 C 0.15529 0.13837 0.40468 0.0
C497 C 0.17613 0.17356 0.38742 0.0
C498 C 0.1623 0.0989 0.40476 0.0
C499 C 0.19135 0.09508 0.3873 0.0
C500 C 0.21126 0.12994 0.36946 0.0
C501 C 0.20329 0.16869 0.36971 0.0
C502 C 0.14012 0.06274 0.42415 0.0
C503 C 0.24198 0.12694 0.35039 0.0
C504 C 0.25615 0.02624 0.39837 0.0
C505 C 0.22804 0.98435 0.38578 0.0
C506 C 0.24371 0.06197 0.39966 0.0
C507 C 0.20248 0.05572 0.38787 0.0
C508 C 0.17351 0.01298 0.37552 0.0
C509 C 0.18682 0.97791 0.37452 0.0
C510 C 0.27497 0.10663 0.41341 0.0
C511 C 0.1286 1.00443 0.36328 0.0
H512 H 0.1342 0.14207 0.41839 0.0
H513 H 0.21932 0.19583 0.35629 0.0
H514 H 0.13144 0.02654 0.41852 0.0
H515 H 0.16573 0.07361 0.43884 0.0
H516 H 0.10706 0.06113 0.43082 0.0
H517 H 0.25342 0.15607 0.33736 0.0
H518 H 0.27429 0.12881 0.35815 0.0
H519 H 0.22219 0.0923 0.34119 0.0
H520 H 0.28769 0.03095 0.40737 0.0
H521 H 0.16517 0.94556 0.36473 0.0
H522 H 0.25308 0.11343 0.42609 0.0
H523 H 0.29182 0.13764 0.40139 0.0
H524 H 0.30354 0.10438 0.42307 0.0
H525 H 0.10475 1.00867 0.37581 0.0
H526 H 0.10873 0.96831 0.35543 0.0
H527 H 0.13772 0.0313 0.34926 0.0
C528 C 0.247 0.26405 0.88835 0.0
C529 C 0.25788 0.22735 0.88719 0.0
C530 C 0.1994 0.2538 0.88962 0.0
C531 C 0.16206 0.2057 0.89043 0.0
C532 C 0.1731 0.16859 0.8899 0.0
C533 C 0.22089 0.17998 0.88798 0.0
C534 C 0.18903 0.29436 0.88969 0.0
C535 C 0.13453 0.1169 0.8914 0.0
C536 C 0.04149 0.18265 0.91275 0.0
C537 C 0.01628 0.17516 0.89185 0.0
C538 C 0.08874 0.1916 0.91264 0.0
C539 C 0.11141 0.1942 0.89105 0.0
C540 C 0.08585 0.18637 0.86993 0.0
C541 C 0.03836 0.17636 0.87062 0.0
C542 C 0.11446 0.19855 0.93555 0.0
C543 C 0.10902 0.18965 0.84655 0.0
H544 H 0.27569 0.30078 0.88782 0.0
H545 H 0.22939 0.1518 0.88762 0.0
H546 H 0.16614 0.29094 0.87455 0.0
H547 H 0.16905 0.29291 0.90571 0.0
H548 H 0.22209 0.32971 0.88882 0.0
H549 H 0.14934 0.09248 0.89196 0.0
H550 H 0.11246 0.11093 0.90726 0.0
H551 H 0.11046 0.10739 0.87612 0.0
H552 H 0.02428 0.18152 0.92919 0.0
H553 H 0.01891 0.17078 0.85444 0.0
H554 H 0.14564 0.23512 0.93647 0.0
H555 H 0.12833 0.17345 0.93684 0.0
H556 H 0.09101 0.19297 0.95083 0.0
H557 H 0.14089 0.22554 0.84441 0.0
H558 H 0.08436 0.18311 0.83174 0.0
H559 H 0.12141 0.16336 0.84565 0.0
C560 C 0.99125 0.23701 0.39215 0.0
C561 C 0.0378 0.24856 0.38616 0.0
C562 C 0.95471 0.18931 0.39395 0.0
C563 C 0.96534 0.15235 0.39025 0.0
C564 C 1.01263 0.16394 0.38466 0.0
C565 C 0.04809 0.21196 0.38224 0.0
C566 C 0.90455 0.1785 0.39938 0.0
C567 C 0.02575 0.12568 0.38125 0.0
C568 C 0.87307 0.03005 0.41313 0.0
C569 C 0.84831 1.00785 0.39266 0.0
C570 C 0.91244 0.0766 0.41251 0.0
C571 C 0.92638 0.1017 0.39104 0.0
C572 C 0.90169 0.07902 0.37031 0.0
C573 C 0.86335 0.03216 0.37135 0.0
C574 C 0.9387 0.09916 0.43485 0.0
C575 C 0.91475 0.10479 0.34714 0.0
H576 H 0.98321 0.2653 0.39515 0.0
H577 H 0.08394 0.22088 0.37734 0.0
H578 H 0.88019 0.15703 0.38506 0.0
H579 H 0.89152 0.15701 0.41559 0.0
H580 H 0.9022 0.21133 0.40161 0.0
H581 H 0.06442 0.14071 0.37766 0.0
H582 H 0.0162 0.10297 0.39709 0.0
H583 H 1.00522 0.10224 0.3665 0.0
H584 H 0.8616 0.0111 0.42959 0.0
H585 H 0.84411 0.01503 0.3555 0.0
H586 H 0.93453 0.13022 0.43925 0.0
H587 H 0.97745 0.11257 0.43253 0.0
H588 H 0.9255 0.07388 0.44978 0.0
H589 H 0.91062 0.13675 0.34819 0.0
H590 H 0.89223 0.08193 0.33262 0.0
H591 H 0.95268 0.1173 0.34291 0.0
C592 C 0.85797 0.86575 0.91178 0.0
C593 C 0.85145 0.83935 0.89142 0.0
C594 C 0.85044 0.90487 0.91186 0.0
C595 C 0.8341 0.91652 0.89127 0.0
C596 C 0.82758 0.88981 0.87064 0.0
C597 C 0.83713 0.85205 0.87088 0.0
C598 C 0.85911 0.93234 0.9343 0.0
C599 C 0.80927 0.90027 0.84847 0.0
C600 C 0.76562 0.98346 0.89615 0.0
C601 C 0.79928 0.02866 0.88783 0.0
C602 C 0.7767 0.94676 0.89771 0.0
C603 C 0.82276 0.9558 0.89114 0.0
C604 C 0.8573 1.00188 0.88347 0.0
C605 C 0.84479 0.03743 0.88149 0.0
C606 C 0.7391 0.89824 0.90622 0.0
C607 C 0.90759 0.01374 0.87758 0.0
H608 H 0.86927 0.85603 0.92767 0.0
H609 H 0.83184 0.8314 0.85514 0.0
H610 H 0.86292 0.96801 0.93174 0.0
H611 H 0.8288 0.91138 0.94635 0.0
H612 H 0.89181 0.93689 0.943 0.0
H613 H 0.8054 0.87565 0.83406 0.0
H614 H 0.77401 0.89722 0.85179 0.0
H615 H 0.83392 0.93732 0.84267 0.0
H616 H 0.73049 0.97668 0.9013 0.0
H617 H 0.87078 0.07225 0.87511 0.0
H618 H 0.75214 0.88835 0.92198 0.0
H619 H 0.73214 0.87112 0.89262 0.0
H620 H 0.70498 0.89693 0.9106 0.0
H621 H 0.92316 1.00429 0.8925 0.0
H622 H 0.93109 0.05211 0.87344 0.0
H623 H 0.90723 0.99239 0.86236 0.0
C624 C 0.14889 0.61798 0.13404 0.0
C625 C 0.17297 0.6568 0.11888 0.0
C626 C 0.15424 0.57766 0.1321 0.0
C627 C 0.18387 0.5758 0.11434 0.0
C628 C 0.20932 0.61554 0.09939 0.0
C629 C 0.20377 0.65571 0.10193 0.0
C630 C 0.12713 0.53647 0.14869 0.0
C631 C 0.24103 0.61495 0.08017 0.0
C632 C 0.21509 0.4772 0.12 0.0
C633 C 0.17845 0.44071 0.10697 0.0
C634 C 0.21871 0.52223 0.12184 0.0
C635 C 0.18485 0.53075 0.11034 0.0
C636 C 0.1492 0.49452 0.09629 0.0
C637 C 0.14617 0.44984 0.09499 0.0
C638 C 0.25704 0.55961 0.13715 0.0
C639 C 0.11294 0.50225 0.08337 0.0
H640 H 0.1254 0.6189 0.1473 0.0
H641 H 0.22264 0.6858 0.09024 0.0
H642 H 0.09994 0.50507 0.1389 0.0
H643 H 0.15175 0.52619 0.15689 0.0
H644 H 0.1088 0.54502 0.1627 0.0
H645 H 0.26121 0.64996 0.07123 0.0
H646 H 0.26681 0.60507 0.08728 0.0
H647 H 0.21893 0.5876 0.06704 0.0
H648 H 0.23925 0.46979 0.12981 0.0
H649 H 0.11772 0.42152 0.08498 0.0
H650 H 0.24051 0.56359 0.15336 0.0
H651 H 0.27493 0.59472 0.12825 0.0
H652 H 0.28446 0.55008 0.14205 0.0
H653 H 0.08932 0.50636 0.09608 0.0
H654 H 0.09038 0.47214 0.07154 0.0
H655 H 0.13113 0.53549 0.07291 0.0
C656 C 0.70185 0.12544 0.59508 0.0
C657 C 0.74318 0.15828 0.60686 0.0
C658 C 0.66022 0.12877 0.59592 0.0
C659 C 0.65967 0.16527 0.60931 0.0
C660 C 0.70187 0.19937 0.62074 0.0
C661 C 0.74318 0.19542 0.61937 0.0
C662 C 0.61632 0.09221 0.58312 0.0
C663 C 0.7028 0.23851 0.63542 0.0
C664 C 0.55563 0.18724 0.59985 0.0
C665 C 0.52351 0.15811 0.61713 0.0
C666 C 0.6006 0.19083 0.59735 0.0
C667 C 0.61389 0.16521 0.61274 0.0
C668 C 0.58213 0.13712 0.63074 0.0
C669 C 0.53716 0.13359 0.63258 0.0
C670 C 0.63325 0.22083 0.57784 0.0
C671 C 0.59526 0.11 0.6478 0.0
H672 H 0.70186 0.09659 0.58548 0.0
H673 H 0.77465 0.21991 0.6291 0.0
H674 H 0.58826 0.06953 0.59591 0.0
H675 H 0.60169 0.1101 0.57213 0.0
H676 H 0.62384 0.06884 0.57183 0.0
H677 H 0.73965 0.26547 0.64067 0.0
H678 H 0.68671 0.25676 0.62583 0.0
H679 H 0.68119 0.2228 0.65144 0.0
H680 H 0.54515 0.20633 0.5879 0.0
H681 H 0.51252 0.11136 0.64608 0.0
H682 H 0.63866 0.19769 0.5654 0.0
H683 H 0.66882 0.24693 0.58487 0.0
H684 H 0.6187 0.24046 0.56814 0.0
H685 H 0.59918 0.0822 0.63841 0.0
H686 H 0.56802 0.09253 0.66176 0.0
H687 H 0.63012 0.13437 0.65607 0.0
C688 C 0.58665 0.71095 0.09104 0.0
C689 C 0.5933 0.74832 0.10572 0.0
C690 C 0.54397 0.6669 0.09175 0.0
C691 C 0.50731 0.66032 0.10751 0.0
C692 C 0.51311 0.69872 0.12159 0.0
C693 C 0.55612 0.74215 0.1206 0.0
C694 C 0.53886 0.62685 0.07633 0.0
C695 C 0.47479 0.69335 0.13849 0.0
C696 C 0.38254 0.55404 0.10028 0.0
C697 C 0.38284 0.52192 0.1166 0.0
C698 C 0.42283 0.59924 0.09705 0.0
C699 C 0.4643 0.61248 0.11048 0.0
C700 C 0.46457 0.58022 0.12712 0.0
C701 C 0.42375 0.53526 0.12998 0.0
C702 C 0.42107 0.63275 0.07927 0.0
C703 C 0.50799 0.59323 0.14192 0.0
H704 H 0.61536 0.71565 0.07955 0.0
H705 H 0.56129 0.77068 0.13225 0.0
H706 H 0.53744 0.59793 0.0873 0.0
H707 H 0.50496 0.6115 0.06639 0.0
H708 H 0.56895 0.63876 0.06378 0.0
H709 H 0.44003 0.67901 0.12941 0.0
H710 H 0.47032 0.66753 0.15237 0.0
H711 H 0.48343 0.72767 0.14686 0.0
H712 H 0.35078 0.54378 0.08996 0.0
H713 H 0.42396 0.51043 0.14261 0.0
H714 H 0.44948 0.64236 0.06599 0.0
H715 H 0.42798 0.66627 0.08788 0.0
H716 H 0.38606 0.61698 0.07025 0.0
H717 H 0.5391 0.60183 0.13055 0.0
H718 H 0.50245 0.56407 0.15401 0.0
H719 H 0.51715 0.62551 0.15237 0.0
C720 C 0.82394 0.54605 0.62172 0.0
C721 C 0.85792 0.58094 0.60692 0.0
C722 C 0.82031 0.50116 0.62377 0.0
C723 C 0.85176 0.49135 0.61081 0.0
C724 C 0.88516 0.52613 0.59529 0.0
C725 C 0.88807 0.5707 0.59369 0.0
C726 C 0.78442 0.46512 0.64058 0.0
C727 C 0.91912 0.51697 0.58106 0.0
C728 C 0.8879 0.40393 0.63358 0.0
C729 C 0.86142 0.36446 0.61918 0.0
C730 C 0.88382 0.44491 0.63155 0.0
C731 C 0.85254 0.44634 0.61468 0.0
C732 C 0.8245 0.40589 0.60064 0.0
C733 C 0.8293 0.36535 0.60306 0.0
C734 C 0.91402 0.48719 0.647 0.0
C735 C 0.7906 0.40596 0.58257 0.0
H736 H 0.80206 0.55472 0.6327 0.0
H737 H 0.9147 0.59802 0.58245 0.0
H738 H 0.7616 0.43086 0.63151 0.0
H739 H 0.80331 0.45799 0.65478 0.0
H740 H 0.76111 0.47748 0.64851 0.0
H741 H 0.94044 0.54633 0.56857 0.0
H742 H 0.94401 0.5129 0.59287 0.0
H743 H 0.89909 0.48327 0.57112 0.0
H744 H 0.91251 0.40313 0.64615 0.0
H745 H 0.80847 0.33462 0.59204 0.0
H746 H 0.89124 0.49868 0.6562 0.0
H747 H 0.93986 0.51761 0.63615 0.0
H748 H 0.93422 0.47925 0.66022 0.0
H749 H 0.76624 0.41681 0.59059 0.0
H750 H 0.76881 0.3705 0.57429 0.0
H751 H 0.81115 0.43237 0.56874 0.0
C752 C 0.46964 0.82389 0.1186 0.0
C753 C 0.50997 0.86954 0.11941 0.0
C754 C 0.42339 0.81774 0.1184 0.0
C755 C 0.41762 0.85831 0.11802 0.0
C756 C 0.45851 0.9045 0.11822 0.0
C757 C 0.50417 0.90951 0.11942 0.0
C758 C 0.38083 0.76796 0.11918 0.0
C759 C 0.45407 0.9487 0.11709 0.0
C760 C 0.30178 0.8496 0.09709 0.0
C761 C 0.28364 0.85641 0.11801 0.0
C762 C 0.34488 0.84878 0.09682 0.0
C763 C 0.36906 0.853 0.11811 0.0
C764 C 0.34869 0.85641 0.13943 0.0
C765 C 0.3068 0.85927 0.13905 0.0
C766 C 0.36607 0.8466 0.07367 0.0
C767 C 0.37204 0.85888 0.16259 0.0
H768 H 0.47426 0.79295 0.11875 0.0
H769 H 0.53546 0.94478 0.11985 0.0
H770 H 0.35908 0.76379 0.13495 0.0
H771 H 0.35763 0.76165 0.10381 0.0
H772 H 0.39146 0.74021 0.11952 0.0
H773 H 0.48932 0.98174 0.11554 0.0
H774 H 0.43178 0.94664 0.10193 0.0
H775 H 0.43602 0.95133 0.13304 0.0
H776 H 0.28385 0.84786 0.08083 0.0
H777 H 0.29239 0.86432 0.15522 0.0
H778 H 0.37546 0.81805 0.07382 0.0
H779 H 0.39956 0.88078 0.07057 0.0
H780 H 0.34136 0.84018 0.05889 0.0
H781 H 0.38227 0.83093 0.16363 0.0
H782 H 0.34825 0.85442 0.17757 0.0
H783 H 0.40515 0.89387 0.16432 0.0
C784 C 0.65572 0.45691 0.61908 0.0
C785 C 0.65081 0.49745 0.62028 0.0
C786 C 0.61537 0.41102 0.61873 0.0
C787 C 0.56922 0.4059 0.61858 0.0
C788 C 0.56432 0.44701 0.61918 0.0
C789 C 0.60522 0.49227 0.62053 0.0
C790 C 0.62211 0.36814 0.6191 0.0
C791 C 0.51587 0.44324 0.61827 0.0
C792 C 0.46141 0.29188 0.59707 0.0
C793 C 0.4363 0.27357 0.61793 0.0
C794 C 0.50565 0.33444 0.597 0.0
C795 C 0.52573 0.35778 0.61843 0.0
C796 C 0.50176 0.33715 0.63967 0.0
C797 C 0.45671 0.29588 0.6391 0.0
C798 C 0.52922 0.356 0.57394 0.0
C799 C 0.52279 0.35963 0.66295 0.0
H800 H 0.69115 0.46109 0.61899 0.0
H801 H 0.60158 0.52375 0.62124 0.0
H802 H 0.60451 0.34622 0.63481 0.0
H803 H 0.60492 0.34535 0.60365 0.0
H804 H 0.66041 0.37828 0.61927 0.0
H805 H 0.51844 0.47867 0.61703 0.0
H806 H 0.4955 0.42151 0.60302 0.0
H807 H 0.49513 0.42499 0.63417 0.0
H808 H 0.44512 0.27455 0.58073 0.0
H809 H 0.43711 0.28125 0.65523 0.0
H810 H 0.56705 0.36486 0.57401 0.0
H811 H 0.52895 0.38977 0.57115 0.0
H812 H 0.5108 0.33184 0.55902 0.0
H813 H 0.56087 0.3693 0.66388 0.0
H814 H 0.50327 0.33555 0.67779 0.0
H815 H 0.5213 0.39289 0.66504 0.0
C816 C 0.36913 0.81742 0.3849 0.0
C817 C 0.36707 0.85338 0.39754 0.0
C818 C 0.41022 0.81297 0.38546 0.0
C819 C 0.4498 0.84499 0.39916 0.0
C820 C 0.44685 0.87994 0.41276 0.0
C821 C 0.40564 0.8839 0.41166 0.0
C822 C 0.41202 0.77539 0.37063 0.0
C823 C 0.48793 0.91434 0.42787 0.0
C824 C 0.55346 0.82473 0.41327 0.0
C825 C 0.58838 0.85676 0.39783 0.0
C826 C 0.50727 0.81884 0.41336 0.0
C827 C 0.49608 0.84556 0.39756 0.0
C828 C 0.53087 0.87637 0.38129 0.0
C829 C 0.57665 0.88186 0.38177 0.0
C830 C 0.47127 0.78577 0.43103 0.0
C831 C 0.52028 0.90487 0.36386 0.0
H832 H 0.3391 0.79352 0.37411 0.0
H833 H 0.40388 0.91138 0.42167 0.0
H834 H 0.43776 0.79279 0.3561 0.0
H835 H 0.42478 0.75508 0.38104 0.0
H836 H 0.37663 0.75001 0.36309 0.0
H837 H 0.47834 0.9364 0.43899 0.0
H838 H 0.49991 0.89468 0.4393 0.0
H839 H 0.51862 0.93846 0.41665 0.0
H840 H 0.56277 0.80581 0.42589 0.0
H841 H 0.60359 0.90632 0.36966 0.0
H842 H 0.43633 0.76247 0.42259 0.0
H843 H 0.46558 0.80711 0.44447 0.0
H844 H 0.48324 0.76302 0.43986 0.0
H845 H 0.4871 0.88119 0.35413 0.0
H846 H 0.5498 0.92394 0.35111 0.0
H847 H 0.51442 0.93153 0.3732 0.0
C848 C 0.73476 0.55801 0.87626 0.0
C849 C 0.75262 0.5808 0.89764 0.0
C850 C 0.69433 0.51236 0.87539 0.0
C851 C 0.67021 0.4901 0.89637 0.0
C852 C 0.68952 0.51237 0.91809 0.0
C853 C 0.73109 0.55737 0.91846 0.0
C854 C 0.67596 0.48923 0.85193 0.0
C855 C 0.66443 0.49034 0.94081 0.0
C856 C 0.5358 0.41192 0.89131 0.0
C857 C 0.5297 0.36613 0.89301 0.0
C858 C 0.58132 0.4524 0.89265 0.0
C859 C 0.62189 0.44693 0.89536 0.0
C860 C 0.61599 0.40064 0.89686 0.0
C861 C 0.56979 0.36067 0.89586 0.0
C862 C 0.58594 0.5011 0.89125 0.0
C863 C 0.65844 0.39338 0.89922 0.0
H864 H 0.75183 0.57641 0.86019 0.0
H865 H 0.74499 0.57551 0.93494 0.0
H866 H 0.66659 0.4513 0.85242 0.0
H867 H 0.64303 0.49016 0.84755 0.0
H868 H 0.70253 0.50761 0.83779 0.0
H869 H 0.68636 0.50972 0.95622 0.0
H870 H 0.63038 0.49084 0.94163 0.0
H871 H 0.65542 0.45257 0.94188 0.0
H872 H 0.50481 0.41616 0.88918 0.0
H873 H 0.56508 0.32517 0.89711 0.0
H874 H 0.60751 0.52051 0.87574 0.0
H875 H 0.60484 0.52235 0.90688 0.0
H876 H 0.55073 0.49918 0.89001 0.0
H877 H 0.68192 0.40833 0.8837 0.0
H878 H 0.64773 0.35517 0.90092 0.0
H879 H 0.67995 0.41276 0.9147 0.0
C880 C 0.12137 0.68943 0.39517 0.0
C881 C 0.15947 0.73417 0.40133 0.0
C882 C 0.12602 0.64875 0.39564 0.0
C883 C 0.17059 0.65317 0.40146 0.0
C884 C 0.20917 0.69823 0.40799 0.0
C885 C 0.20258 0.73801 0.40858 0.0
C886 C 0.08328 0.60112 0.38958 0.0
C887 C 0.25776 0.70481 0.41344 0.0
C888 C 0.16504 0.53716 0.41802 0.0
C889 C 0.17003 0.5208 0.39617 0.0
C890 C 0.16699 0.58125 0.42025 0.0
C891 C 0.17612 0.61031 0.40025 0.0
C892 C 0.18449 0.59517 0.37841 0.0
C893 C 0.18023 0.54999 0.37653 0.0
C894 C 0.15618 0.59519 0.44365 0.0
C895 C 0.19622 0.62593 0.35688 0.0
H896 H 0.08764 0.68611 0.38993 0.0
H897 H 0.2314 0.77218 0.4142 0.0
H898 H 0.08999 0.58779 0.37298 0.0
H899 H 0.07719 0.57454 0.40335 0.0
H900 H 0.05021 0.6032 0.38757 0.0
H901 H 0.28318 0.7415 0.4195 0.0
H902 H 0.255 0.6791 0.42699 0.0
H903 H 0.27269 0.69754 0.39752 0.0
H904 H 0.15715 0.51438 0.4332 0.0
H905 H 0.18487 0.53748 0.3597 0.0
H906 H 0.12179 0.59497 0.44265 0.0
H907 H 0.18408 0.63186 0.44837 0.0
H908 H 0.15355 0.57054 0.45781 0.0
H909 H 0.16399 0.62682 0.35101 0.0
H910 H 0.20883 0.61244 0.34227 0.0
H911 H 0.22413 0.66311 0.36084 0.0
C912 C 0.6653 0.20537 0.88724 0.0
C913 C 0.66359 0.16503 0.89721 0.0
C914 C 0.62502 0.21121 0.88763 0.0
C915 C 0.58247 0.17611 0.89851 0.0
C916 C 0.58156 0.13655 0.90957 0.0
C917 C 0.62199 0.13128 0.90859 0.0
C918 C 0.62737 0.25357 0.87534 0.0
C919 C 0.53727 0.09881 0.92178 0.0
C920 C 0.47795 0.19425 0.91347 0.0
C921 C 0.44526 0.16667 0.89616 0.0
C922 C 0.52398 0.19982 0.9139 0.0
C923 C 0.53735 0.1776 0.89648 0.0
C924 C 0.50516 0.15209 0.87823 0.0
C925 C 0.45933 0.14647 0.87847 0.0
C926 C 0.55737 0.22741 0.93358 0.0
C927 C 0.51838 0.12894 0.85896 0.0
H928 H 0.69762 0.23164 0.87851 0.0
H929 H 0.62085 0.10037 0.91657 0.0
H930 H 0.60913 0.24197 0.85822 0.0
H931 H 0.60875 0.26856 0.88552 0.0
H932 H 0.66479 0.28214 0.87218 0.0
H933 H 0.54387 0.07292 0.93144 0.0
H934 H 0.52374 0.11556 0.93424 0.0
H935 H 0.50875 0.07897 0.90875 0.0
H936 H 0.46689 0.20978 0.92717 0.0
H937 H 0.43413 0.12562 0.8649 0.0
H938 H 0.59291 0.25392 0.9266 0.0
H939 H 0.56256 0.20263 0.94495 0.0
H940 H 0.54345 0.24626 0.94441 0.0
H941 H 0.55349 0.15484 0.85133 0.0
H942 H 0.49139 0.11496 0.84478 0.0
H943 H 0.52164 0.09894 0.86622 0.0
C944 C 0.33045 0.44036 0.41323 0.0
C945 C 0.2869 0.43227 0.40413 0.0
C946 C 0.37137 0.48566 0.41207 0.0
C947 C 0.36882 0.52356 0.40112 0.0
C948 C 0.32451 0.51576 0.39236 0.0
C949 C 0.28398 0.47012 0.39404 0.0
C950 C 0.41765 0.49259 0.422 0.0
C951 C 0.3203 0.55495 0.38032 0.0
C952 C 0.47237 0.64839 0.41249 0.0
C953 C 0.50249 0.6547 0.39354 0.0
C954 C 0.42801 0.60644 0.41488 0.0
C955 C 0.41327 0.57032 0.39773 0.0
C956 C 0.44278 0.57753 0.37805 0.0
C957 C 0.48722 0.61951 0.37629 0.0
C958 C 0.39781 0.60003 0.43618 0.0
C959 C 0.428 0.5403 0.35917 0.0
H960 H 0.33266 0.411 0.421 0.0
H961 H 0.25056 0.46361 0.38652 0.0
H962 H 0.44382 0.50082 0.4077 0.0
H963 H 0.43324 0.52328 0.43419 0.0
H964 H 0.41284 0.46053 0.43145 0.0
H965 H 0.28259 0.54444 0.37656 0.0
H966 H 0.33633 0.58763 0.39118 0.0
H967 H 0.34034 0.5641 0.3636 0.0
H968 H 0.48406 0.67569 0.42582 0.0
H969 H 0.51031 0.62452 0.36153 0.0
H970 H 0.3955 0.57062 0.44709 0.0
H971 H 0.36092 0.5899 0.43098 0.0
H972 H 0.41264 0.63281 0.44699 0.0
H973 H 0.42652 0.50782 0.3664 0.0
H974 H 0.45309 0.55297 0.34412 0.0
H975 H 0.39173 0.52994 0.35276 0.0
C976 C 0.82281 0.45899 0.88727 0.0
C977 C 0.86474 0.49822 0.89566 0.0
C978 C 0.81687 0.41289 0.8878 0.0
C979 C 0.85338 0.406 0.89738 0.0
C980 C 0.89475 0.44534 0.90684 0.0
C981 C 0.90014 0.49101 0.90562 0.0
C982 C 0.77255 0.37202 0.87727 0.0
C983 C 0.9341 0.43948 0.91763 0.0
C984 C 0.83576 0.28393 0.91314 0.0
C985 C 0.8611 0.27734 0.89507 0.0
C986 C 0.83099 0.32482 0.91374 0.0
C987 C 0.85112 0.35901 0.89555 0.0
C988 C 0.8739 0.35057 0.87651 0.0
C989 C 0.87919 0.31022 0.87669 0.0
C990 C 0.80699 0.33277 0.93448 0.0
C991 C 0.89462 0.38525 0.85641 0.0
H992 H 0.79527 0.46453 0.87967 0.0
H993 H 0.93232 0.52123 0.91238 0.0
H994 H 0.78242 0.3589 0.86151 0.0
H995 H 0.75559 0.34184 0.88974 0.0
H996 H 0.74594 0.38252 0.87219 0.0
H997 H 0.96149 0.47257 0.92631 0.0
H998 H 0.91907 0.41024 0.93069 0.0
H999 H 0.95192 0.42967 0.90393 0.0
H1000 H 0.82169 0.25834 0.92732 0.0
H1001 H 0.89817 0.30469 0.86251 0.0
H1002 H 0.78115 0.34372 0.92873 0.0
H1003 H 0.8343 0.36209 0.94531 0.0
H1004 H 0.78801 0.30038 0.94555 0.0
H1005 H 0.86813 0.39462 0.84978 0.0
H1006 H 0.90597 0.3707 0.84174 0.0
H1007 H 0.92614 0.41865 0.86249 0.0
C1008 C 0.18293 0.39466 0.30666 0.0
C1009 C 0.19001 0.36111 0.31887 0.0
C1010 C 0.18494 0.39693 0.28214 0.0
C1011 C 0.19502 0.36542 0.26948 0.0
C1012 C 0.20366 0.33249 0.28174 0.0
C1013 C 0.2007 0.33049 0.30624 0.0
C1014 C 0.17498 0.43218 0.26974 0.0
C1015 C 0.21537 0.29884 0.26895 0.0
C1016 C 0.15564 0.33441 0.20619 0.0
C1017 C 0.19815 0.3636 0.19401 0.0
C1018 C 0.15382 0.33558 0.2307 0.0
C1019 C 0.19568 0.36616 0.24341 0.0
C1020 C 0.23848 0.39629 0.23121 0.0
C1021 C 0.23912 0.39491 0.20669 0.0
C1022 C 0.10725 0.30345 0.24303 0.0
C1023 C 0.28402 0.42898 0.24409 0.0
H1024 H 0.1743 0.41826 0.31622 0.0
H1025 H 0.20648 0.30462 0.3155 0.0
H1026 H 0.20531 0.45546 0.25815 0.0
H1027 H 0.14298 0.41284 0.25852 0.0
H1028 H 0.1688 0.45498 0.28211 0.0
H1029 H 0.22331 0.27691 0.28106 0.0
H1030 H 0.18491 0.27461 0.25772 0.0
H1031 H 0.24666 0.3192 0.25735 0.0
H1032 H 0.12374 0.31029 0.19657 0.0
H1033 H 0.27227 0.41744 0.19752 0.0
H1034 H 0.09794 0.32467 0.25489 0.0
H1035 H 0.11098 0.2772 0.25394 0.0
H1036 H 0.07735 0.28377 0.23061 0.0
H1037 H 0.27835 0.4528 0.25593 0.0
H1038 H 0.31396 0.45126 0.23204 0.0
H1039 H 0.29456 0.40757 0.2551 0.0
C1040 C 0.84263 0.22021 0.70599 0.0
C1041 C 0.83641 0.18036 0.69336 0.0
C1042 C 0.83974 0.21923 0.73049 0.0
C1043 C 0.8298 0.17723 0.74268 0.0
C1044 C 0.82152 0.13629 0.72999 0.0
C1045 C 0.8252 0.13843 0.70553 0.0
C1046 C 0.84918 0.26376 0.74337 0.0
C1047 C 0.81015 0.09057 0.74231 0.0
C1048 C 0.87382 0.18574 0.80498 0.0
C1049 C 0.83221 0.17215 0.81804 0.0
C1050 C 0.87367 0.18847 0.78051 0.0
C1051 C 0.83073 0.17681 0.76872 0.0
C1052 C 0.78873 0.16369 0.7818 0.0
C1053 C 0.79003 0.16182 0.8063 0.0
C1054 C 0.9194 0.20326 0.76726 0.0
C1055 C 0.74216 0.15057 0.76987 0.0
H1056 H 0.85146 0.25286 0.69681 0.0
H1057 H 0.81995 0.10732 0.69595 0.0
H1058 H 0.81948 0.25578 0.75561 0.0
H1059 H 0.8821 0.27701 0.75396 0.0
H1060 H 0.85363 0.29259 0.73133 0.0
H1061 H 0.80127 0.06097 0.72989 0.0
H1062 H 0.84122 0.09624 0.75292 0.0
H1063 H 0.77963 0.07969 0.75444 0.0
H1064 H 0.90667 0.19416 0.81387 0.0
H1065 H 0.75764 0.1511 0.81621 0.0
H1066 H 0.92784 0.23412 0.7558 0.0
H1067 H 0.91502 0.17369 0.75583 0.0
H1068 H 0.95018 0.2131 0.77906 0.0
H1069 H 0.74663 0.18007 0.75836 0.0
H1070 H 0.71302 0.14248 0.78253 0.0
H1071 H 0.73123 0.11891 0.75862 0.0
C1072 C 0.69568 0.83826 0.20841 0.0
C1073 C 0.66969 0.85487 0.19583 0.0
C1074 C 0.69243 0.83428 0.23284 0.0
C1075 C 0.66285 0.84767 0.24506 0.0
C1076 C 0.63613 0.86399 0.23249 0.0
C1077 C 0.63967 0.86717 0.20803 0.0
C1078 C 0.72115 0.81625 0.24561 0.0
C1079 C 0.60455 0.87903 0.24491 0.0
C1080 C 0.62871 0.80258 0.30743 0.0
C1081 C 0.66357 0.84111 0.32027 0.0
C1082 C 0.62737 0.8045 0.28293 0.0
C1083 C 0.66133 0.84615 0.27106 0.0
C1084 C 0.69534 0.88583 0.28401 0.0
C1085 C 0.69619 0.88274 0.30843 0.0
C1086 C 0.59076 0.76136 0.26972 0.0
C1087 C 0.73172 0.93115 0.27204 0.0
H1088 H 0.7187 0.82833 0.19918 0.0
H1089 H 0.61951 0.88016 0.19852 0.0
H1090 H 0.74731 0.84445 0.25732 0.0
H1091 H 0.6973 0.78531 0.25673 0.0
H1092 H 0.74082 0.80536 0.23349 0.0
H1093 H 0.58497 0.88954 0.23256 0.0
H1094 H 0.57822 0.84957 0.25606 0.0
H1095 H 0.6265 0.90961 0.25657 0.0
H1096 H 0.60347 0.7702 0.31642 0.0
H1097 H 0.72301 0.91285 0.31822 0.0
H1098 H 0.60904 0.74694 0.25883 0.0
H1099 H 0.57033 0.77142 0.25774 0.0
H1100 H 0.56527 0.73271 0.28156 0.0
H1101 H 0.75579 0.92393 0.26113 0.0
H1102 H 0.75378 0.95976 0.28468 0.0
H1103 H 0.71364 0.94429 0.26023 0.0
C1104 C 0.79723 0.62342 0.70645 0.0
C1105 C 0.83709 0.65624 0.69346 0.0
C1106 C 0.79907 0.6215 0.73092 0.0
C1107 C 0.84193 0.65276 0.74272 0.0
C1108 C 0.88272 0.68484 0.72967 0.0
C1109 C 0.87976 0.68635 0.70524 0.0
C1110 C 0.7547 0.58702 0.74421 0.0
C1111 C 0.92927 0.7184 0.74156 0.0
C1112 C 0.8373 0.6876 0.80564 0.0
C1113 C 0.85091 0.6589 0.81801 0.0
C1114 C 0.83329 0.68518 0.78121 0.0
C1115 C 0.84358 0.65362 0.76874 0.0
C1116 C 0.85658 0.62397 0.78112 0.0
C1117 C 0.85982 0.62676 0.80561 0.0
C1118 C 0.81871 0.71697 0.7687 0.0
C1119 C 0.86815 0.59011 0.76845 0.0
H1120 H 0.76403 0.60002 0.69759 0.0
H1121 H 0.91088 0.71158 0.6954 0.0
H1122 H 0.76248 0.56445 0.75589 0.0
H1123 H 0.74281 0.60708 0.75542 0.0
H1124 H 0.7249 0.56351 0.73242 0.0
H1125 H 0.95843 0.73915 0.72886 0.0
H1126 H 0.92454 0.74372 0.75272 0.0
H1127 H 0.94033 0.69815 0.75311 0.0
H1128 H 0.82995 0.71228 0.81503 0.0
H1129 H 0.87046 0.6045 0.81498 0.0
H1130 H 0.7871 0.69523 0.75756 0.0
H1131 H 0.84801 0.74195 0.75704 0.0
H1132 H 0.81 0.73807 0.78099 0.0
H1133 H 0.8378 0.56575 0.7572 0.0
H1134 H 0.87623 0.56841 0.78065 0.0
H1135 H 0.89945 0.61051 0.75686 0.0
C1136 C 0.20095 0.8738 0.20793 0.0
C1137 C 0.19027 0.83287 0.19504 0.0
C1138 C 0.20421 0.87418 0.23238 0.0
C1139 C 0.19599 0.83243 0.24428 0.0
C1140 C 0.18665 0.79144 0.23134 0.0
C1141 C 0.18422 0.79225 0.20686 0.0
C1142 C 0.21503 0.91889 0.24551 0.0
C1143 C 0.1773 0.74611 0.24339 0.0
C1144 C 0.23503 0.84552 0.30778 0.0
C1145 C 0.19278 0.83508 0.31957 0.0
C1146 C 0.23647 0.84394 0.28328 0.0
C1147 C 0.19455 0.83102 0.27028 0.0
C1148 C 0.15141 0.8187 0.28213 0.0
C1149 C 0.15112 0.82115 0.30659 0.0
C1150 C 0.28324 0.85773 0.27129 0.0
C1151 C 0.10575 0.80404 0.26893 0.0
H1152 H 0.20609 0.90548 0.19894 0.0
H1153 H 0.1758 0.76038 0.19707 0.0
H1154 H 0.18368 0.91222 0.25624 0.0
H1155 H 0.24537 0.92909 0.25761 0.0
H1156 H 0.22392 0.94932 0.23362 0.0
H1157 H 0.17357 0.71836 0.23082 0.0
H1158 H 0.20667 0.75344 0.25567 0.0
H1159 H 0.14399 0.73173 0.25384 0.0
H1160 H 0.26747 0.85651 0.31763 0.0
H1161 H 0.11823 0.81266 0.31554 0.0
H1162 H 0.29473 0.89052 0.26081 0.0
H1163 H 0.27885 0.82931 0.25904 0.0
H1164 H 0.31197 0.86436 0.2839 0.0
H1165 H 0.10975 0.83426 0.25812 0.0
H1166 H 0.07465 0.79274 0.28076 0.0
H1167 H 0.0981 0.77425 0.25688 0.0
C1168 C 0.34006 0.14512 0.80636 0.0
C1169 C 0.36941 0.18708 0.81875 0.0
C1170 C 0.34263 0.14368 0.78192 0.0
C1171 C 0.3749 0.18536 0.76952 0.0
C1172 C 0.40549 0.22749 0.78195 0.0
C1173 C 0.4026 0.22776 0.80642 0.0
C1174 C 0.30987 0.09785 0.76931 0.0
C1175 C 0.44002 0.27278 0.76936 0.0
C1176 C 0.40124 0.17123 0.70613 0.0
C1177 C 0.36797 0.17935 0.69432 0.0
C1178 C 0.40456 0.17384 0.73062 0.0
C1179 C 0.3744 0.18553 0.74352 0.0
C1180 C 0.34218 0.19566 0.73159 0.0
C1181 C 0.33914 0.19214 0.70718 0.0
C1182 C 0.43905 0.16238 0.74273 0.0
C1183 C 0.30998 0.20908 0.74466 0.0
H1184 H 0.31462 0.1134 0.81573 0.0
H1185 H 0.42539 0.26041 0.81581 0.0
H1186 H 0.28422 0.1027 0.75846 0.0
H1187 H 0.33076 0.0882 0.75737 0.0
H1188 H 0.28937 0.06775 0.78155 0.0
H1189 H 0.46337 0.30166 0.78161 0.0
H1190 H 0.46284 0.26607 0.75727 0.0
H1191 H 0.41988 0.28532 0.75865 0.0
H1192 H 0.42348 0.16109 0.69633 0.0
H1193 H 0.31365 0.19889 0.69816 0.0
H1194 H 0.41892 0.12981 0.75352 0.0
H1195 H 0.46248 0.19172 0.7547 0.0
H1196 H 0.46178 0.15643 0.73017 0.0
H1197 H 0.28473 0.17883 0.75577 0.0
H1198 H 0.28905 0.21869 0.73272 0.0
H1199 H 0.33141 0.23968 0.7564 0.0
C1200 C 0.28132 0.19089 0.97316 0.0
C1201 C 0.31161 0.22521 0.95699 0.0
C1202 C 0.26521 0.20419 0.99311 0.0
C1203 C 0.27817 0.25258 0.99632 0.0
C1204 C 0.3076 0.287 0.97958 0.0
C1205 C 0.3246 0.27301 0.96037 0.0
C1206 C 0.23516 0.16672 0.01094 0.0
C1207 C 0.32108 0.33867 0.98192 0.0
C1208 C 0.20658 0.28486 0.03798 0.0
C1209 C 0.23817 0.30405 0.05679 0.0
C1210 C 0.21892 0.2677 0.01811 0.0
C1211 C 0.26295 0.26802 0.01761 0.0
C1212 C 0.29399 0.28573 0.03705 0.0
C1213 C 0.28159 0.30431 0.0562 0.0
C1214 C 0.18553 0.25045 0.99746 0.0
C1215 C 0.34045 0.28526 0.03761 0.0
H1216 H 0.27106 0.15388 0.97044 0.0
H1217 H 0.34715 0.29944 0.94757 0.0
H1218 H 0.25326 0.17626 0.02816 0.0
H1219 H 0.20032 0.16513 0.01315 0.0
H1220 H 0.22852 0.13077 1.00596 0.0
H1221 H 0.34137 0.36026 0.96655 0.0
H1222 H 0.2885 0.34157 0.98405 0.0
H1223 H 0.34324 0.35422 0.99774 0.0
H1224 H 0.17284 0.2844 0.03859 0.0
H1225 H 0.30547 0.31815 0.07104 0.0
H1226 H 0.17544 0.21322 0.99314 0.0
H1227 H 0.20388 0.27255 0.9819 0.0
H1228 H 0.15248 0.25204 1.0007 0.0
H1229 H 0.33401 0.24901 0.0336 0.0
H1230 H 0.35845 0.29642 0.05483 0.0
H1231 H 0.36502 0.30966 0.02404 0.0
C1232 C 0.09554 0.33422 0.47332 0.0
C1233 C 0.09365 0.30108 0.45698 0.0
C1234 C 0.06655 0.31933 0.4934 0.0
C1235 C 0.03412 0.2702 0.49698 0.0
C1236 C 0.03269 0.23654 0.48075 0.0
C1237 C 0.06251 0.25235 0.461 0.0
C1238 C 0.07073 0.35615 0.51083 0.0
C1239 C 0.9986 0.18389 0.48385 0.0
C1240 C 0.98336 0.22379 0.55752 0.0
C1241 C 0.93984 0.22334 0.55673 0.0
C1242 C 1.01499 0.24024 0.53849 0.0
C1243 C 1.00157 0.25406 0.51765 0.0
C1244 C 0.95693 0.25239 0.51659 0.0
C1245 C 0.92706 0.23815 0.53638 0.0
C1246 C 0.06262 0.24265 0.54089 0.0
C1247 C 0.94068 0.26553 0.49453 0.0
H1248 H 0.11968 0.37189 0.47041 0.0
H1249 H 0.06026 0.22648 0.44831 0.0
H1250 H 0.03627 0.35568 0.51218 0.0
H1251 H 0.07882 0.34747 0.52839 0.0
H1252 H 0.09905 0.39271 0.506 0.0
H1253 H 1.00583 0.16215 0.47129 0.0
H1254 H 1.00094 0.17239 0.5018 0.0
H1255 H 0.96148 0.17642 0.48126 0.0
H1256 H 0.99347 0.21279 0.57338 0.0
H1257 H 0.8934 0.23784 0.53585 0.0
H1258 H 0.09126 0.2736 0.53137 0.0
H1259 H 0.06003 0.20978 0.53351 0.0
H1260 H 0.07323 0.24527 0.55951 0.0
H1261 H 0.96578 0.30326 0.48996 0.0
H1262 H 0.90425 0.26057 0.49626 0.0
H1263 H 0.94088 0.24337 0.4798 0.0
C1264 C 0.69153 0.92718 0.03788 0.0
C1265 C 0.72388 0.92946 0.0548 0.0
C1266 C 0.7073 0.95764 0.01834 0.0
C1267 C 0.75638 0.99202 0.01599 0.0
C1268 C 0.78915 0.99421 0.03296 0.0
C1269 C 0.77262 0.96266 0.05199 0.0
C1270 C 0.67155 0.95295 1.00011 0.0
C1271 C 0.84163 0.03055 0.03129 0.0
C1272 C 0.80835 0.04574 0.95661 0.0
C1273 C 0.80759 0.08862 0.95719 0.0
C1274 C 0.79049 0.0134 0.97529 0.0
C1275 C 0.77368 0.02525 0.99562 0.0
C1276 C 0.77408 0.06921 0.99657 0.0
C1277 C 0.79007 0.09992 0.97712 0.0
C1278 C 0.78975 0.96664 0.97297 0.0
C1279 C 0.7576 0.08373 0.01813 0.0
H1280 H 0.65385 0.90169 0.03996 0.0
H1281 H 0.79789 0.96533 0.06515 0.0
H1282 H 0.67102 0.98682 0.99866 0.0
H1283 H 0.68224 0.94589 0.9828 0.0
H1284 H 0.63487 0.92378 1.00421 0.0
H1285 H 0.86232 0.02803 0.04614 0.0
H1286 H 0.85657 0.02551 0.01479 0.0
H1287 H 0.84659 0.067 0.03095 0.0
H1288 H 0.82122 0.03647 0.9411 0.0
H1289 H 0.78925 0.13296 0.97754 0.0
H1290 H 0.75948 0.93742 0.98258 0.0
H1291 H 0.82342 0.97065 0.98013 0.0
H1292 H 0.78714 0.95605 0.95436 0.0
H1293 H 0.71957 0.05759 0.0217 0.0
H1294 H 0.76154 0.11967 0.01637 0.0
H1295 H 0.77844 0.0837 0.03351 0.0
C1296 C 0.83173 0.73569 0.53718 0.0
C1297 C 0.79795 0.71085 0.55468 0.0
C1298 C 0.81927 0.75235 0.51716 0.0
C1299 C 0.77259 0.74567 0.51518 0.0
C1300 C 0.73888 0.72165 0.53318 0.0
C1301 C 0.75173 0.70386 0.55248 0.0
C1302 C 0.85575 0.77645 0.49801 0.0
C1303 C 0.68927 0.7151 0.53219 0.0
C1304 C 0.74896 0.82324 0.47338 0.0
C1305 C 0.72402 0.79088 0.45548 0.0
C1306 C 0.76527 0.80919 0.49295 0.0
C1307 C 0.75812 0.76231 0.49406 0.0
C1308 C 0.73454 0.73023 0.47548 0.0
C1309 C 0.71705 0.74465 0.45664 0.0
C1310 C 0.78895 0.84399 0.51271 0.0
C1311 C 0.72755 0.68052 0.47555 0.0
H1312 H 0.86757 0.74137 0.53899 0.0
H1313 H 0.72591 0.68567 0.56629 0.0
H1314 H 0.84182 0.75688 0.48135 0.0
H1315 H 0.86249 0.81316 0.49519 0.0
H1316 H 0.8902 0.77822 0.50204 0.0
H1317 H 0.66828 0.69813 0.54825 0.0
H1318 H 0.69139 0.7501 0.52978 0.0
H1319 H 0.6697 0.69261 0.517 0.0
H1320 H 0.75457 0.8591 0.47235 0.0
H1321 H 0.6987 0.71997 0.44249 0.0
H1322 H 0.8251 0.84935 0.51593 0.0
H1323 H 0.76803 0.82933 0.52901 0.0
H1324 H 0.79214 0.87916 0.50909 0.0
H1325 H 0.76214 0.68198 0.47859 0.0
H1326 H 0.71222 0.66145 0.45889 0.0
H1327 H 0.70325 0.65952 0.49002 0.0
C1328 C 0.97706 0.70813 0.96031 0.0
C1329 C 0.9404 0.71856 0.95678 0.0
C1330 C 1.00729 0.72603 0.97973 0.0
C1331 C 0.99952 0.75353 0.99653 0.0
C1332 C 0.96213 0.7638 0.99314 0.0
C1333 C 0.93364 0.74704 0.97297 0.0
C1334 C 0.04765 0.71556 0.98223 0.0
C1335 C 0.95159 0.7915 0.01105 0.0
C1336 C 0.0472 0.75066 0.05662 0.0
C1337 C 0.0884 0.79552 0.05787 0.0
C1338 C 0.0168 0.7376 0.03725 0.0
C1339 C 0.02915 0.76932 0.01812 0.0
C1340 C 0.07105 0.81474 0.01923 0.0
C1341 C 0.09967 0.82777 0.03942 0.0
C1342 C 0.97157 0.68969 0.03725 0.0
C1343 C 0.08635 0.84888 0.99886 0.0
H1344 H 0.98292 0.68696 0.94747 0.0
H1345 H 0.9054 0.75528 0.9701 0.0
H1346 H 0.08189 0.74918 0.98488 0.0
H1347 H 0.0416 0.69288 0.99781 0.0
H1348 H 0.05122 0.697 0.9667 0.0
H1349 H 0.92099 0.79605 1.00593 0.0
H1350 H 0.94341 0.77285 0.02814 0.0
H1351 H 0.98337 0.82721 0.0136 0.0
H1352 H 0.03829 0.72598 0.07107 0.0
H1353 H 0.13158 0.8625 0.04049 0.0
H1354 H 0.97399 0.66646 0.02375 0.0
H1355 H 0.9405 0.69395 0.03283 0.0
H1356 H 0.96479 0.67141 0.05442 0.0
H1357 H 0.09247 0.83222 0.98329 0.0
H1358 H 0.11956 0.88294 1.00257 0.0
H1359 H 0.05773 0.85681 0.9943 0.0
C1360 C 0.2397 0.91619 0.47715 0.0
C1361 C 0.22042 0.92682 0.45772 0.0
C1362 C 0.25441 0.94591 0.49691 0.0
C1363 C 0.25131 0.98805 0.49684 0.0
C1364 C 0.23216 0.99901 0.47715 0.0
C1365 C 0.21621 0.96787 0.45802 0.0
C1366 C 0.27351 0.93239 0.51781 0.0
C1367 C 0.22939 0.04413 0.47607 0.0
C1368 C 0.25277 0.0471 0.55446 0.0
C1369 C 0.30107 0.08207 0.55642 0.0
C1370 C 0.23617 0.01612 0.53524 0.0
C1371 C 0.26839 0.0209 0.51727 0.0
C1372 C 0.31691 0.05709 0.51881 0.0
C1373 C 0.3328 0.08684 0.53853 0.0
C1374 C 0.18444 0.97741 0.5345 0.0
C1375 C 0.35211 0.06417 0.49971 0.0
H1376 H 0.24302 0.88451 0.47694 0.0
H1377 H 0.20194 0.97662 0.44289 0.0
H1378 H 0.31127 0.95989 0.52088 0.0
H1379 H 0.25307 0.93085 0.5337 0.0
H1380 H 0.27151 0.89738 0.51554 0.0
H1381 H 0.21542 0.04826 0.45907 0.0
H1382 H 0.20591 0.04414 0.4902 0.0
H1383 H 0.26533 0.07558 0.4788 0.0
H1384 H 0.22814 0.04273 0.56839 0.0
H1385 H 0.37014 0.11382 0.53996 0.0
H1386 H 0.18199 0.94201 0.53483 0.0
H1387 H 0.16761 0.97966 0.51806 0.0
H1388 H 0.16373 0.97959 0.54944 0.0
H1389 H 0.35555 0.03189 0.49811 0.0
H1390 H 0.38804 0.09529 0.50305 0.0
H1391 H 0.339 0.0694 0.48269 0.0
loop_
_geom_bond_atom_site_label_1
_geom_bond_atom_site_label_2
_geom_bond_distance
_geom_bond_site_symmetry_2
_ccdc_geom_bond_type
Tb0 O3 2.453 . S
Tb0 O4 2.596 . S
Tb0 O5 2.374 . S
Tb0 O13 2.343 . S
Tb0 O15 2.353 . S
Tb0 O17 2.427 . S
Tb0 O18 2.513 . S
C1 O5 1.251 . S
C1 O7 1.263 . S
Tb2 O4 2.343 . S
Tb2 O7 2.353 . S
Tb2 O10 2.427 . S
Tb2 O11 2.513 . S
Tb2 O12 2.453 . S
Tb2 O13 2.596 . S
Tb2 O14 2.374 . S
O3 Tb0 2.453 . S
O3 C19 1.245 . S
O4 Tb0 2.596 . S
O4 Tb2 2.343 . S
O4 C19 1.259 . S
O5 Tb0 2.374 . S
O5 C1 1.251 . S
C6 O10 1.275 . S
C6 O11 1.246 . S
O7 C1 1.263 . S
O7 Tb2 2.353 . S
C8 O12 1.245 . S
C8 O13 1.259 . S
C9 O14 1.250 . S
C9 O15 1.263 . S
O10 Tb2 2.427 . S
O10 C6 1.275 . S
O11 Tb2 2.513 . S
O11 C6 1.246 . S
O12 Tb2 2.453 . S
O12 C8 1.245 . S
O13 Tb0 2.343 . S
O13 Tb2 2.596 . S
O13 C8 1.259 . S
O14 Tb2 2.374 . S
O14 C9 1.250 . S
O15 Tb0 2.353 . S
O15 C9 1.263 . S
C16 O17 1.275 . S
C16 O18 1.246 . S
O17 Tb0 2.427 . S
O17 C16 1.275 . S
O18 Tb0 2.513 . S
O18 C16 1.246 . S
C19 O3 1.245 . S
C19 O4 1.259 . S
Tb20 O23 2.453 . S
Tb20 O24 2.596 . S
Tb20 O25 2.374 . S
Tb20 O33 2.343 . S
Tb20 O35 2.353 . S
Tb20 O37 2.427 . S
Tb20 O38 2.513 . S
C21 O25 1.251 . S
C21 O27 1.263 . S
Tb22 O24 2.343 . S
Tb22 O27 2.353 . S
Tb22 O30 2.427 . S
Tb22 O31 2.513 . S
Tb22 O32 2.453 . S
Tb22 O33 2.596 . S
Tb22 O34 2.374 . S
O23 Tb20 2.453 . S
O23 C39 1.245 . S
O24 Tb20 2.596 . S
O24 Tb22 2.343 . S
O24 C39 1.259 . S
O25 Tb20 2.374 . S
O25 C21 1.251 . S
C26 O30 1.275 . S
C26 O31 1.246 . S
O27 C21 1.263 . S
O27 Tb22 2.353 . S
C28 O32 1.245 . S
C28 O33 1.259 . S
C29 O34 1.250 . S
C29 O35 1.263 . S
O30 Tb22 2.427 . S
O30 C26 1.275 . S
O31 Tb22 2.513 . S
O31 C26 1.246 . S
O32 Tb22 2.453 . S
O32 C28 1.245 . S
O33 Tb20 2.343 . S
O33 Tb22 2.596 . S
O33 C28 1.259 . S
O34 Tb22 2.374 . S
O34 C29 1.250 . S
O35 Tb20 2.353 . S
O35 C29 1.263 . S
C36 O37 1.275 . S
C36 O38 1.246 . S
O37 Tb20 2.427 . S
O37 C36 1.275 . S
O38 Tb20 2.513 . S
O38 C36 1.246 . S
C39 O23 1.245 . S
C39 O24 1.259 . S
Tb40 O43 2.453 . S
Tb40 O44 2.596 . S
Tb40 O45 2.374 . S
Tb40 O53 2.343 . S
Tb40 O55 2.353 . S
Tb40 O57 2.427 . S
Tb40 O58 2.513 . S
C41 O45 1.251 . S
C41 O47 1.263 . S
Tb42 O44 2.343 . S
Tb42 O47 2.353 . S
Tb42 O50 2.427 . S
Tb42 O51 2.513 . S
Tb42 O52 2.453 . S
Tb42 O53 2.596 . S
Tb42 O54 2.374 . S
O43 Tb40 2.453 . S
O43 C59 1.245 . S
O44 Tb40 2.596 . S
O44 Tb42 2.343 . S
O44 C59 1.259 . S
O45 Tb40 2.374 . S
O45 C41 1.251 . S
C46 O50 1.275 . S
C46 O51 1.246 . S
O47 C41 1.263 . S
O47 Tb42 2.353 . S
C48 O52 1.245 . S
C48 O53 1.259 . S
C49 O54 1.250 . S
C49 O55 1.263 . S
O50 Tb42 2.427 . S
O50 C46 1.275 . S
O51 Tb42 2.513 . S
O51 C46 1.246 . S
O52 Tb42 2.453 . S
O52 C48 1.245 . S
O53 Tb40 2.343 . S
O53 Tb42 2.596 . S
O53 C48 1.259 . S
O54 Tb42 2.374 . S
O54 C49 1.250 . S
O55 Tb40 2.353 . S
O55 C49 1.263 . S
C56 O57 1.275 . S
C56 O58 1.246 . S
O57 Tb40 2.427 . S
O57 C56 1.275 . S
O58 Tb40 2.513 . S
O58 C56 1.246 . S
C59 O43 1.245 . S
C59 O44 1.259 . S
Tb60 O63 2.453 . S
Tb60 O64 2.596 . S
Tb60 O65 2.374 . S
Tb60 O73 2.343 . S
Tb60 O75 2.353 . S
Tb60 O77 2.427 . S
Tb60 O78 2.513 . S
C61 O65 1.251 . S
C61 O67 1.263 . S
Tb62 O64 2.343 . S
Tb62 O67 2.353 . S
Tb62 O70 2.427 . S
Tb62 O71 2.513 . S
Tb62 O72 2.453 . S
Tb62 O73 2.596 . S
Tb62 O74 2.374 . S
O63 Tb60 2.453 . S
O63 C79 1.245 . S
O64 Tb60 2.596 . S
O64 Tb62 2.343 . S
O64 C79 1.259 . S
O65 Tb60 2.374 . S
O65 C61 1.251 . S
C66 O70 1.275 . S
C66 O71 1.246 . S
O67 C61 1.263 . S
O67 Tb62 2.353 . S
C68 O72 1.245 . S
C68 O73 1.259 . S
C69 O74 1.250 . S
C69 O75 1.263 . S
O70 Tb62 2.427 . S
O70 C66 1.275 . S
O71 Tb62 2.513 . S
O71 C66 1.246 . S
O72 Tb62 2.453 . S
O72 C68 1.245 . S
O73 Tb60 2.343 . S
O73 Tb62 2.596 . S
O73 C68 1.259 . S
O74 Tb62 2.374 . S
O74 C69 1.250 . S
O75 Tb60 2.353 . S
O75 C69 1.263 . S
C76 O77 1.275 . S
C76 O78 1.246 . S
O77 Tb60 2.427 . S
O77 C76 1.275 . S
O78 Tb60 2.513 . S
O78 C76 1.246 . S
C79 O63 1.245 . S
C79 O64 1.259 . S
Tb80 O83 2.453 . S
Tb80 O84 2.596 . S
Tb80 O85 2.374 . S
Tb80 O93 2.343 . S
Tb80 O95 2.353 . S
Tb80 O97 2.427 . S
Tb80 O98 2.513 . S
C81 O85 1.251 . S
C81 O87 1.263 . S
Tb82 O84 2.343 . S
Tb82 O87 2.353 . S
Tb82 O90 2.427 . S
Tb82 O91 2.513 . S
Tb82 O92 2.453 . S
Tb82 O93 2.596 . S
Tb82 O94 2.374 . S
O83 Tb80 2.453 . S
O83 C99 1.245 . S
O84 Tb80 2.596 . S
O84 Tb82 2.343 . S
O84 C99 1.259 . S
O85 Tb80 2.374 . S
O85 C81 1.251 . S
C86 O90 1.275 . S
C86 O91 1.246 . S
O87 C81 1.263 . S
O87 Tb82 2.353 . S
C88 O92 1.245 . S
C88 O93 1.259 . S
C89 O94 1.250 . S
C89 O95 1.263 . S
O90 Tb82 2.427 . S
O90 C86 1.275 . S
O91 Tb82 2.513 . S
O91 C86 1.246 . S
O92 Tb82 2.453 . S
O92 C88 1.245 . S
O93 Tb80 2.343 . S
O93 Tb82 2.596 . S
O93 C88 1.259 . S
O94 Tb82 2.374 . S
O94 C89 1.250 . S
O95 Tb80 2.353 . S
O95 C89 1.263 . S
C96 O97 1.275 . S
C96 O98 1.246 . S
O97 Tb80 2.427 . S
O97 C96 1.275 . S
O98 Tb80 2.513 . S
O98 C96 1.246 . S
C99 O83 1.245 . S
C99 O84 1.259 . S
Tb100 O103 2.453 . S
Tb100 O104 2.596 . S
Tb100 O105 2.374 . S
Tb100 O113 2.343 . S
Tb100 O115 2.353 . S
Tb100 O117 2.427 . S
Tb100 O118 2.513 . S
C101 O105 1.251 . S
C101 O107 1.263 . S
Tb102 O104 2.343 . S
Tb102 O107 2.353 . S
Tb102 O110 2.427 . S
Tb102 O111 2.513 . S
Tb102 O112 2.453 . S
Tb102 O113 2.596 . S
Tb102 O114 2.374 . S
O103 Tb100 2.453 . S
O103 C119 1.245 . S
O104 Tb100 2.596 . S
O104 Tb102 2.343 . S
O104 C119 1.259 . S
O105 Tb100 2.374 . S
O105 C101 1.251 . S
C106 O110 1.275 . S
C106 O111 1.246 . S
O107 C101 1.263 . S
O107 Tb102 2.353 . S
C108 O112 1.245 . S
C108 O113 1.259 . S
C109 O114 1.250 . S
C109 O115 1.263 . S
O110 Tb102 2.427 . S
O110 C106 1.275 . S
O111 Tb102 2.513 . S
O111 C106 1.246 . S
O112 Tb102 2.453 . S
O112 C108 1.245 . S
O113 Tb100 2.343 . S
O113 Tb102 2.596 . S
O113 C108 1.259 . S
O114 Tb102 2.374 . S
O114 C109 1.250 . S
O115 Tb100 2.353 . S
O115 C109 1.263 . S
C116 O117 1.275 . S
C116 O118 1.246 . S
O117 Tb100 2.427 . S
O117 C116 1.275 . S
O118 Tb100 2.513 . S
O118 C116 1.246 . S
C119 O103 1.245 . S
C119 O104 1.259 . S
Tb120 O123 2.453 . S
Tb120 O124 2.596 . S
Tb120 O125 2.374 . S
Tb120 O133 2.343 . S
Tb120 O135 2.353 . S
Tb120 O137 2.427 . S
Tb120 O138 2.513 . S
C121 O125 1.251 . S
C121 O127 1.263 . S
Tb122 O124 2.343 . S
Tb122 O127 2.353 . S
Tb122 O130 2.427 . S
Tb122 O131 2.513 . S
Tb122 O132 2.453 . S
Tb122 O133 2.596 . S
Tb122 O134 2.374 . S
O123 Tb120 2.453 . S
O123 C139 1.245 . S
O124 Tb120 2.596 . S
O124 Tb122 2.343 . S
O124 C139 1.259 . S
O125 Tb120 2.374 . S
O125 C121 1.251 . S
C126 O130 1.275 . S
C126 O131 1.246 . S
O127 C121 1.263 . S
O127 Tb122 2.353 . S
C128 O132 1.245 . S
C128 O133 1.259 . S
C129 O134 1.250 . S
C129 O135 1.263 . S
O130 Tb122 2.427 . S
O130 C126 1.275 . S
O131 Tb122 2.513 . S
O131 C126 1.246 . S
O132 Tb122 2.453 . S
O132 C128 1.245 . S
O133 Tb120 2.343 . S
O133 Tb122 2.596 . S
O133 C128 1.259 . S
O134 Tb122 2.374 . S
O134 C129 1.250 . S
O135 Tb120 2.353 . S
O135 C129 1.263 . S
C136 O137 1.275 . S
C136 O138 1.246 . S
O137 Tb120 2.427 . S
O137 C136 1.275 . S
O138 Tb120 2.513 . S
O138 C136 1.246 . S
C139 O123 1.245 . S
C139 O124 1.259 . S
Tb140 O143 2.453 . S
Tb140 O144 2.596 . S
Tb140 O145 2.374 . S
Tb140 O153 2.343 . S
Tb140 O155 2.353 . S
Tb140 O157 2.427 . S
Tb140 O158 2.513 . S
C141 O145 1.251 . S
C141 O147 1.263 . S
Tb142 O144 2.343 . S
Tb142 O147 2.353 . S
Tb142 O150 2.427 . S
Tb142 O151 2.513 . S
Tb142 O152 2.453 . S
Tb142 O153 2.596 . S
Tb142 O154 2.374 . S
O143 Tb140 2.453 . S
O143 C159 1.245 . S
O144 Tb140 2.596 . S
O144 Tb142 2.343 . S
O144 C159 1.259 . S
O145 Tb140 2.374 . S
O145 C141 1.251 . S
C146 O150 1.275 . S
C146 O151 1.246 . S
O147 C141 1.263 . S
O147 Tb142 2.353 . S
C148 O152 1.245 . S
C148 O153 1.259 . S
C149 O154 1.250 . S
C149 O155 1.263 . S
O150 Tb142 2.427 . S
O150 C146 1.275 . S
O151 Tb142 2.513 . S
O151 C146 1.246 . S
O152 Tb142 2.453 . S
O152 C148 1.245 . S
O153 Tb140 2.343 . S
O153 Tb142 2.596 . S
O153 C148 1.259 . S
O154 Tb142 2.374 . S
O154 C149 1.250 . S
O155 Tb140 2.353 . S
O155 C149 1.263 . S
C156 O157 1.275 . S
C156 O158 1.246 . S
O157 Tb140 2.427 . S
O157 C156 1.275 . S
O158 Tb140 2.513 . S
O158 C156 1.246 . S
C159 O143 1.245 . S
C159 O144 1.259 . S
Tb160 O163 2.453 . S
Tb160 O164 2.596 . S
Tb160 O165 2.374 . S
Tb160 O173 2.343 . S
Tb160 O175 2.353 . S
Tb160 O177 2.427 . S
Tb160 O178 2.513 . S
C161 O165 1.251 . S
C161 O167 1.263 . S
Tb162 O164 2.343 . S
Tb162 O167 2.353 . S
Tb162 O170 2.427 . S
Tb162 O171 2.513 . S
Tb162 O172 2.453 . S
Tb162 O173 2.596 . S
Tb162 O174 2.374 . S
O163 Tb160 2.453 . S
O163 C179 1.245 . S
O164 Tb160 2.596 . S
O164 Tb162 2.343 . S
O164 C179 1.259 . S
O165 Tb160 2.374 . S
O165 C161 1.251 . S
C166 O170 1.275 . S
C166 O171 1.246 . S
O167 C161 1.263 . S
O167 Tb162 2.353 . S
C168 O172 1.245 . S
C168 O173 1.259 . S
C169 O174 1.250 . S
C169 O175 1.263 . S
O170 Tb162 2.427 . S
O170 C166 1.275 . S
O171 Tb162 2.513 . S
O171 C166 1.246 . S
O172 Tb162 2.453 . S
O172 C168 1.245 . S
O173 Tb160 2.343 . S
O173 Tb162 2.596 . S
O173 C168 1.259 . S
O174 Tb162 2.374 . S
O174 C169 1.250 . S
O175 Tb160 2.353 . S
O175 C169 1.263 . S
C176 O177 1.275 . S
C176 O178 1.246 . S
O177 Tb160 2.427 . S
O177 C176 1.275 . S
O178 Tb160 2.513 . S
O178 C176 1.246 . S
C179 O163 1.245 . S
C179 O164 1.259 . S
Tb180 O183 2.453 . S
Tb180 O184 2.596 . S
Tb180 O185 2.374 . S
Tb180 O193 2.343 . S
Tb180 O195 2.353 . S
Tb180 O197 2.427 . S
Tb180 O198 2.513 . S
C181 O185 1.251 . S
C181 O187 1.263 . S
Tb182 O184 2.343 . S
Tb182 O187 2.353 . S
Tb182 O190 2.427 . S
Tb182 O191 2.513 . S
Tb182 O192 2.453 . S
Tb182 O193 2.596 . S
Tb182 O194 2.374 . S
O183 Tb180 2.453 . S
O183 C199 1.245 . S
O184 Tb180 2.596 . S
O184 Tb182 2.343 . S
O184 C199 1.259 . S
O185 Tb180 2.374 . S
O185 C181 1.251 . S
C186 O190 1.275 . S
C186 O191 1.246 . S
O187 C181 1.263 . S
O187 Tb182 2.353 . S
C188 O192 1.245 . S
C188 O193 1.259 . S
C189 O194 1.250 . S
C189 O195 1.263 . S
O190 Tb182 2.427 . S
O190 C186 1.275 . S
O191 Tb182 2.513 . S
O191 C186 1.246 . S
O192 Tb182 2.453 . S
O192 C188 1.245 . S
O193 Tb180 2.343 . S
O193 Tb182 2.596 . S
O193 C188 1.259 . S
O194 Tb182 2.374 . S
O194 C189 1.250 . S
O195 Tb180 2.353 . S
O195 C189 1.263 . S
C196 O197 1.275 . S
C196 O198 1.246 . S
O197 Tb180 2.427 . S
O197 C196 1.275 . S
O198 Tb180 2.513 . S
O198 C196 1.246 . S
C199 O183 1.245 . S
C199 O184 1.259 . S
Tb200 O203 2.453 . S
Tb200 O204 2.596 . S
Tb200 O205 2.374 . S
Tb200 O213 2.343 . S
Tb200 O215 2.353 . S
Tb200 O217 2.427 . S
Tb200 O218 2.513 . S
C201 O205 1.251 . S
C201 O207 1.263 . S
Tb202 O204 2.343 . S
Tb202 O207 2.353 . S
Tb202 O210 2.427 . S
Tb202 O211 2.513 . S
Tb202 O212 2.453 . S
Tb202 O213 2.596 . S
Tb202 O214 2.374 . S
O203 Tb200 2.453 . S
O203 C219 1.245 . S
O204 Tb200 2.596 . S
O204 Tb202 2.343 . S
O204 C219 1.259 . S
O205 Tb200 2.374 . S
O205 C201 1.251 . S
C206 O210 1.275 . S
C206 O211 1.246 . S
O207 C201 1.263 . S
O207 Tb202 2.353 . S
C208 O212 1.245 . S
C208 O213 1.259 . S
C209 O214 1.250 . S
C209 O215 1.263 . S
O210 Tb202 2.427 . S
O210 C206 1.275 . S
O211 Tb202 2.513 . S
O211 C206 1.246 . S
O212 Tb202 2.453 . S
O212 C208 1.245 . S
O213 Tb200 2.343 . S
O213 Tb202 2.596 . S
O213 C208 1.259 . S
O214 Tb202 2.374 . S
O214 C209 1.250 . S
O215 Tb200 2.353 . S
O215 C209 1.263 . S
C216 O217 1.275 . S
C216 O218 1.246 . S
O217 Tb200 2.427 . S
O217 C216 1.275 . S
O218 Tb200 2.513 . S
O218 C216 1.246 . S
C219 O203 1.245 . S
C219 O204 1.259 . S
Tb220 O223 2.453 . S
Tb220 O224 2.596 . S
Tb220 O225 2.374 . S
Tb220 O233 2.343 . S
Tb220 O235 2.353 . S
Tb220 O237 2.427 . S
Tb220 O238 2.513 . S
C221 O225 1.251 . S
C221 O227 1.263 . S
Tb222 O224 2.343 . S
Tb222 O227 2.353 . S
Tb222 O230 2.427 . S
Tb222 O231 2.513 . S
Tb222 O232 2.453 . S
Tb222 O233 2.596 . S
Tb222 O234 2.374 . S
O223 Tb220 2.453 . S
O223 C239 1.245 . S
O224 Tb220 2.596 . S
O224 Tb222 2.343 . S
O224 C239 1.259 . S
O225 Tb220 2.374 . S
O225 C221 1.251 . S
C226 O230 1.275 . S
C226 O231 1.246 . S
O227 C221 1.263 . S
O227 Tb222 2.353 . S
C228 O232 1.245 . S
C228 O233 1.259 . S
C229 O234 1.250 . S
C229 O235 1.263 . S
O230 Tb222 2.427 . S
O230 C226 1.275 . S
O231 Tb222 2.513 . S
O231 C226 1.246 . S
O232 Tb222 2.453 . S
O232 C228 1.245 . S
O233 Tb220 2.343 . S
O233 Tb222 2.596 . S
O233 C228 1.259 . S
O234 Tb222 2.374 . S
O234 C229 1.250 . S
O235 Tb220 2.353 . S
O235 C229 1.263 . S
C236 O237 1.275 . S
C236 O238 1.246 . S
O237 Tb220 2.427 . S
O237 C236 1.275 . S
O238 Tb220 2.513 . S
O238 C236 1.246 . S
C239 O223 1.245 . S
C239 O224 1.259 . S
C240 C241 1.391 . S
C240 C242 1.394 1_565 S
C240 H256 0.931 . S
C241 C240 1.391 . S
C241 C245 1.376 1_565 S
C242 C240 1.394 1_545 S
C242 C243 1.369 . S
C242 C246 1.531 . S
C243 C242 1.369 . S
C243 C244 1.410 . S
C243 C251 1.503 . S
C244 C243 1.410 . S
C244 C245 1.392 . S
C244 C247 1.511 . S
C245 C241 1.376 1_545 S
C245 C244 1.392 . S
C245 H257 0.929 . S
C246 C242 1.531 . S
C246 H258 0.960 . S
C246 H259 0.962 . S
C246 H260 0.960 . S
C247 C244 1.511 . S
C247 H261 0.961 . S
C247 H262 0.961 . S
C247 H263 0.961 . S
C248 C249 1.370 . S
C248 C250 1.363 . S
C248 H264 0.931 . S
C249 C248 1.370 . S
C249 C253 1.408 . S
C250 C248 1.363 . S
C250 C251 1.370 . S
C250 C254 1.524 . S
C251 C243 1.503 . S
C251 C250 1.370 . S
C251 C252 1.403 . S
C252 C251 1.403 . S
C252 C253 1.404 . S
C252 C255 1.539 . S
C253 C249 1.408 . S
C253 C252 1.404 . S
C253 H265 0.930 . S
C254 C250 1.524 . S
C254 H266 0.956 . S
C254 H267 0.961 . S
C254 H268 0.961 . S
C255 C252 1.539 . S
C255 H269 0.958 . S
C255 H270 0.961 . S
C255 H271 0.960 . S
H256 C240 0.931 . S
H257 C245 0.929 . S
H258 C246 0.960 . S
H259 C246 0.962 . S
H260 C246 0.960 . S
H261 C247 0.961 . S
H262 C247 0.961 . S
H263 C247 0.961 . S
H264 C248 0.931 . S
H265 C253 0.930 . S
H266 C254 0.956 . S
H267 C254 0.961 . S
H268 C254 0.961 . S
H269 C255 0.958 . S
H270 C255 0.961 . S
H271 C255 0.960 . S
C272 C273 1.391 . S
C272 C274 1.394 . S
C272 H288 0.931 . S
C273 C272 1.391 . S
C273 C277 1.376 . S
C274 C272 1.394 . S
C274 C275 1.369 . S
C274 C278 1.531 . S
C275 C274 1.369 . S
C275 C276 1.410 . S
C275 C283 1.503 . S
C276 C275 1.410 . S
C276 C277 1.392 . S
C276 C279 1.511 . S
C277 C273 1.376 . S
C277 C276 1.392 . S
C277 H289 0.929 . S
C278 C274 1.531 . S
C278 H290 0.960 . S
C278 H291 0.962 . S
C278 H292 0.960 . S
C279 C276 1.511 . S
C279 H293 0.961 . S
C279 H294 0.961 . S
C279 H295 0.961 . S
C280 C281 1.370 . S
C280 C282 1.363 1_655 S
C280 H296 0.931 . S
C281 C280 1.370 . S
C281 C285 1.408 1_655 S
C282 C280 1.363 1_455 S
C282 C283 1.370 . S
C282 C286 1.524 . S
C283 C275 1.503 . S
C283 C282 1.370 . S
C283 C284 1.403 . S
C284 C283 1.403 . S
C284 C285 1.404 . S
C284 C287 1.539 . S
C285 C281 1.408 1_455 S
C285 C284 1.404 . S
C285 H297 0.930 . S
C286 C282 1.524 . S
C286 H298 0.956 . S
C286 H299 0.961 . S
C286 H300 0.961 1_455 S
C287 C284 1.539 . S
C287 H301 0.958 . S
C287 H302 0.961 . S
C287 H303 0.960 . S
H288 C272 0.931 . S
H289 C277 0.929 . S
H290 C278 0.960 . S
H291 C278 0.962 . S
H292 C278 0.960 . S
H293 C279 0.961 . S
H294 C279 0.961 . S
H295 C279 0.961 . S
H296 C280 0.931 . S
H297 C285 0.930 . S
H298 C286 0.956 . S
H299 C286 0.961 . S
H300 C286 0.961 1_655 S
H301 C287 0.958 . S
H302 C287 0.961 . S
H303 C287 0.960 . S
C304 C305 1.391 1_545 S
C304 C306 1.394 . S
C304 H320 0.931 . S
C305 C304 1.391 1_565 S
C305 C309 1.376 . S
C306 C304 1.394 . S
C306 C307 1.369 . S
C306 C310 1.531 . S
C307 C306 1.369 . S
C307 C308 1.410 . S
C307 C315 1.503 . S
C308 C307 1.410 . S
C308 C309 1.392 1_545 S
C308 C311 1.511 . S
C309 C305 1.376 . S
C309 C308 1.392 1_565 S
C309 H321 0.929 . S
C310 C306 1.531 . S
C310 H322 0.960 . S
C310 H323 0.962 . S
C310 H324 0.960 . S
C311 C308 1.511 . S
C311 H325 0.961 1_545 S
C311 H326 0.961 . S
C311 H327 0.961 . S
C312 C313 1.370 1_655 S
C312 C314 1.362 . S
C312 H328 0.932 1_655 S
C313 C312 1.370 1_455 S
C313 C317 1.408 1_455 S
C314 C312 1.362 . S
C314 C315 1.370 . S
C314 C318 1.524 . S
C315 C307 1.503 . S
C315 C314 1.370 . S
C315 C316 1.403 . S
C316 C315 1.403 . S
C316 C317 1.404 . S
C316 C319 1.539 . S
C317 C313 1.408 1_655 S
C317 C316 1.404 . S
C317 H329 0.930 1_655 S
C318 C314 1.524 . S
C318 H330 0.956 . S
C318 H331 0.961 . S
C318 H332 0.961 . S
C319 C316 1.539 . S
C319 H333 0.958 . S
C319 H334 0.961 . S
C319 H335 0.960 . S
H320 C304 0.931 . S
H321 C309 0.929 . S
H322 C310 0.960 . S
H323 C310 0.962 . S
H324 C310 0.960 . S
H325 C311 0.961 1_565 S
H326 C311 0.961 . S
H327 C311 0.961 . S
H328 C312 0.932 1_455 S
H329 C317 0.930 1_455 S
H330 C318 0.956 . S
H331 C318 0.961 . S
H332 C318 0.961 . S
H333 C319 0.958 . S
H334 C319 0.961 . S
H335 C319 0.960 . S
C336 C337 1.391 . S
C336 C338 1.394 . S
C336 H352 0.931 . S
C337 C336 1.391 . S
C337 C341 1.376 . S
C338 C336 1.394 . S
C338 C339 1.369 . S
C338 C342 1.531 . S
C339 C338 1.369 . S
C339 C340 1.410 . S
C339 C347 1.503 . S
C340 C339 1.410 . S
C340 C341 1.392 . S
C340 C343 1.511 . S
C341 C337 1.376 . S
C341 C340 1.392 . S
C341 H353 0.929 . S
C342 C338 1.531 . S
C342 H354 0.960 . S
C342 H355 0.962 . S
C342 H356 0.960 . S
C343 C340 1.511 . S
C343 H357 0.961 . S
C343 H358 0.961 . S
C343 H359 0.961 . S
C344 C345 1.370 1_565 S
C344 C346 1.363 . S
C344 H360 0.931 . S
C345 C344 1.370 1_545 S
C345 C349 1.408 . S
C346 C344 1.363 . S
C346 C347 1.370 . S
C346 C350 1.524 . S
C347 C339 1.503 . S
C347 C346 1.370 . S
C347 C348 1.403 . S
C348 C347 1.403 . S
C348 C349 1.404 1_565 S
C348 C351 1.539 . S
C349 C345 1.408 . S
C349 C348 1.404 1_545 S
C349 H361 0.930 . S
C350 C346 1.524 . S
C350 H362 0.956 . S
C350 H363 0.961 . S
C350 H364 0.961 . S
C351 C348 1.539 . S
C351 H365 0.958 . S
C351 H366 0.961 . S
C351 H367 0.960 . S
H352 C336 0.931 . S
H353 C341 0.929 . S
H354 C342 0.960 . S
H355 C342 0.962 . S
H356 C342 0.960 . S
H357 C343 0.961 . S
H358 C343 0.961 . S
H359 C343 0.961 . S
H360 C344 0.931 . S
H361 C349 0.930 . S
H362 C350 0.956 . S
H363 C350 0.961 . S
H364 C350 0.961 . S
H365 C351 0.958 . S
H366 C351 0.961 . S
H367 C351 0.960 . S
C368 C369 1.391 . S
C368 C370 1.394 1_455 S
C368 H384 0.931 . S
C369 C368 1.391 . S
C369 C373 1.376 1_455 S
C370 C368 1.394 1_655 S
C370 C371 1.369 . S
C370 C374 1.531 1_655 S
C371 C370 1.369 . S
C371 C372 1.410 . S
C371 C379 1.503 . S
C372 C371 1.410 . S
C372 C373 1.392 . S
C372 C375 1.511 . S
C373 C369 1.376 1_655 S
C373 C372 1.392 . S
C373 H385 0.929 . S
C374 C370 1.531 1_455 S
C374 H386 0.960 1_455 S
C374 H387 0.962 . S
C374 H388 0.960 . S
C375 C372 1.511 . S
C375 H389 0.961 . S
C375 H390 0.961 . S
C375 H391 0.961 . S
C376 C377 1.370 . S
C376 C378 1.363 . S
C376 H392 0.931 . S
C377 C376 1.370 . S
C377 C381 1.408 . S
C378 C376 1.363 . S
C378 C379 1.370 . S
C378 C382 1.524 . S
C379 C371 1.503 . S
C379 C378 1.370 . S
C379 C380 1.403 . S
C380 C379 1.403 . S
C380 C381 1.404 . S
C380 C383 1.539 . S
C381 C377 1.408 . S
C381 C380 1.404 . S
C381 H393 0.930 . S
C382 C378 1.524 . S
C382 H394 0.956 . S
C382 H395 0.961 . S
C382 H396 0.961 . S
C383 C380 1.539 . S
C383 H397 0.958 . S
C383 H398 0.961 . S
C383 H399 0.960 . S
H384 C368 0.931 . S
H385 C373 0.929 . S
H386 C374 0.960 1_655 S
H387 C374 0.962 . S
H388 C374 0.960 . S
H389 C375 0.961 . S
H390 C375 0.961 . S
H391 C375 0.961 . S
H392 C376 0.931 . S
H393 C381 0.930 . S
H394 C382 0.956 . S
H395 C382 0.961 . S
H396 C382 0.961 . S
H397 C383 0.958 . S
H398 C383 0.961 . S
H399 C383 0.960 . S
C400 C401 1.391 . S
C400 C402 1.394 1_655 S
C400 H416 0.931 . S
C401 C400 1.391 . S
C401 C405 1.376 1_655 S
C402 C400 1.394 1_455 S
C402 C403 1.369 . S
C402 C406 1.531 . S
C403 C402 1.369 . S
C403 C404 1.410 . S
C403 C411 1.503 . S
C404 C403 1.410 . S
C404 C405 1.392 . S
C404 C407 1.511 . S
C405 C401 1.376 1_455 S
C405 C404 1.392 . S
C405 H417 0.929 . S
C406 C402 1.531 . S
C406 H418 0.960 . S
C406 H419 0.962 . S
C406 H420 0.960 . S
C407 C404 1.511 . S
C407 H421 0.961 . S
C407 H422 0.961 . S
C407 H423 0.961 . S
C408 C409 1.370 1_565 S
C408 C410 1.363 . S
C408 H424 0.931 . S
C409 C408 1.370 1_545 S
C409 C413 1.408 . S
C410 C408 1.363 . S
C410 C411 1.370 . S
C410 C414 1.524 . S
C411 C403 1.503 . S
C411 C410 1.370 . S
C411 C412 1.403 . S
C412 C411 1.403 . S
C412 C413 1.404 1_565 S
C412 C415 1.539 . S
C413 C409 1.408 . S
C413 C412 1.404 1_545 S
C413 H425 0.930 . S
C414 C410 1.524 . S
C414 H426 0.956 . S
C414 H427 0.961 . S
C414 H428 0.961 . S
C415 C412 1.539 . S
C415 H429 0.958 1_565 S
C415 H430 0.961 1_565 S
C415 H431 0.960 . S
H416 C400 0.931 . S
H417 C405 0.929 . S
H418 C406 0.960 . S
H419 C406 0.962 . S
H420 C406 0.960 . S
H421 C407 0.961 . S
H422 C407 0.961 . S
H423 C407 0.961 . S
H424 C408 0.931 . S
H425 C413 0.930 . S
H426 C414 0.956 . S
H427 C414 0.961 . S
H428 C414 0.961 . S
H429 C415 0.958 1_545 S
H430 C415 0.961 1_545 S
H431 C415 0.960 . S
C432 C433 1.391 . S
C432 C434 1.394 1_455 S
C432 H448 0.931 . S
C433 C432 1.391 . S
C433 C437 1.376 1_455 S
C434 C432 1.394 1_655 S
C434 C435 1.369 . S
C434 C438 1.531 . S
C435 C434 1.369 . S
C435 C436 1.410 . S
C435 C443 1.503 . S
C436 C435 1.410 . S
C436 C437 1.392 . S
C436 C439 1.511 . S
C437 C433 1.376 1_655 S
C437 C436 1.392 . S
C437 H449 0.929 . S
C438 C434 1.531 . S
C438 H450 0.960 . S
C438 H451 0.962 . S
C438 H452 0.960 . S
C439 C436 1.511 . S
C439 H453 0.961 . S
C439 H454 0.961 . S
C439 H455 0.961 . S
C440 C441 1.370 . S
C440 C442 1.363 . S
C440 H456 0.931 . S
C441 C440 1.370 . S
C441 C445 1.408 . S
C442 C440 1.363 . S
C442 C443 1.370 . S
C442 C446 1.524 . S
C443 C435 1.503 . S
C443 C442 1.370 . S
C443 C444 1.403 . S
C444 C443 1.403 . S
C444 C445 1.404 . S
C444 C447 1.539 . S
C445 C441 1.408 . S
C445 C444 1.404 . S
C445 H457 0.930 . S
C446 C442 1.524 . S
C446 H458 0.956 . S
C446 H459 0.961 . S
C446 H460 0.961 . S
C447 C444 1.539 . S
C447 H461 0.958 . S
C447 H462 0.961 . S
C447 H463 0.960 . S
H448 C432 0.931 . S
H449 C437 0.929 . S
H450 C438 0.960 . S
H451 C438 0.962 . S
H452 C438 0.960 . S
H453 C439 0.961 . S
H454 C439 0.961 . S
H455 C439 0.961 . S
H456 C440 0.931 . S
H457 C445 0.930 . S
H458 C446 0.956 . S
H459 C446 0.961 . S
H460 C446 0.961 . S
H461 C447 0.958 . S
H462 C447 0.961 . S
H463 C447 0.960 . S
C464 C465 1.391 1_455 S
C464 C466 1.394 . S
C464 H480 0.931 . S
C465 C464 1.391 1_655 S
C465 C469 1.376 . S
C466 C464 1.394 . S
C466 C467 1.369 . S
C466 C470 1.531 . S
C467 C466 1.369 . S
C467 C468 1.410 1_455 S
C467 C475 1.503 . S
C468 C467 1.410 1_655 S
C468 C469 1.392 . S
C468 C471 1.511 . S
C469 C465 1.376 . S
C469 C468 1.392 . S
C469 H481 0.929 . S
C470 C466 1.531 . S
C470 H482 0.960 . S
C470 H483 0.962 . S
C470 H484 0.960 . S
C471 C468 1.511 . S
C471 H485 0.961 . S
C471 H486 0.961 1_655 S
C471 H487 0.961 . S
C472 C473 1.370 1_565 S
C472 C474 1.363 . S
C472 H488 0.931 1_565 S
C473 C472 1.370 1_545 S
C473 C477 1.408 . S
C474 C472 1.363 . S
C474 C475 1.370 . S
C474 C478 1.524 . S
C475 C467 1.503 . S
C475 C474 1.370 . S
C475 C476 1.403 . S
C476 C475 1.403 . S
C476 C477 1.404 1_565 S
C476 C479 1.539 . S
C477 C473 1.408 . S
C477 C476 1.404 1_545 S
C477 H489 0.930 . S
C478 C474 1.524 . S
C478 H490 0.956 . S
C478 H491 0.961 . S
C478 H492 0.961 . S
C479 C476 1.539 . S
C479 H493 0.958 . S
C479 H494 0.961 . S
C479 H495 0.960 . S
H480 C464 0.931 . S
H481 C469 0.929 . S
H482 C470 0.960 . S
H483 C470 0.962 . S
H484 C470 0.960 . S
H485 C471 0.961 . S
H486 C471 0.961 1_455 S
H487 C471 0.961 . S
H488 C472 0.931 1_545 S
H489 C477 0.930 . S
H490 C478 0.956 . S
H491 C478 0.961 . S
H492 C478 0.961 . S
H493 C479 0.958 . S
H494 C479 0.961 . S
H495 C479 0.960 . S
C496 C497 1.391 . S
C496 C498 1.394 . S
C496 H512 0.931 . S
C497 C496 1.391 . S
C497 C501 1.376 . S
C498 C496 1.394 . S
C498 C499 1.369 . S
C498 C502 1.531 . S
C499 C498 1.369 . S
C499 C500 1.410 . S
C499 C507 1.503 . S
C500 C499 1.410 . S
C500 C501 1.392 . S
C500 C503 1.511 . S
C501 C497 1.376 . S
C501 C500 1.392 . S
C501 H513 0.929 . S
C502 C498 1.531 . S
C502 H514 0.960 . S
C502 H515 0.962 . S
C502 H516 0.960 . S
C503 C500 1.511 . S
C503 H517 0.961 . S
C503 H518 0.961 . S
C503 H519 0.961 . S
C504 C505 1.370 1_545 S
C504 C506 1.363 . S
C504 H520 0.931 . S
C505 C504 1.370 1_565 S
C505 C509 1.408 . S
C506 C504 1.363 . S
C506 C507 1.370 . S
C506 C510 1.524 . S
C507 C499 1.503 . S
C507 C506 1.370 . S
C507 C508 1.402 1_545 S
C508 C507 1.402 1_565 S
C508 C509 1.405 . S
C508 C511 1.539 . S
C509 C505 1.408 . S
C509 C508 1.405 . S
C509 H521 0.930 . S
C510 C506 1.524 . S
C510 H522 0.956 . S
C510 H523 0.961 . S
C510 H524 0.961 . S
C511 C508 1.539 . S
C511 H525 0.958 . S
C511 H526 0.961 . S
C511 H527 0.960 1_565 S
H512 C496 0.931 . S
H513 C501 0.929 . S
H514 C502 0.960 . S
H515 C502 0.962 . S
H516 C502 0.960 . S
H517 C503 0.961 . S
H518 C503 0.961 . S
H519 C503 0.961 . S
H520 C504 0.931 . S
H521 C509 0.930 . S
H522 C510 0.956 . S
H523 C510 0.961 . S
H524 C510 0.961 . S
H525 C511 0.958 . S
H526 C511 0.961 . S
H527 C511 0.960 1_545 S
C528 C529 1.391 . S
C528 C530 1.394 . S
C528 H544 0.931 . S
C529 C528 1.391 . S
C529 C533 1.376 . S
C530 C528 1.394 . S
C530 C531 1.369 . S
C530 C534 1.531 . S
C531 C530 1.369 . S
C531 C532 1.410 . S
C531 C539 1.503 . S
C532 C531 1.410 . S
C532 C533 1.392 . S
C532 C535 1.511 . S
C533 C529 1.376 . S
C533 C532 1.392 . S
C533 H545 0.929 . S
C534 C530 1.531 . S
C534 H546 0.960 . S
C534 H547 0.962 . S
C534 H548 0.960 . S
C535 C532 1.511 . S
C535 H549 0.961 . S
C535 H550 0.961 . S
C535 H551 0.961 . S
C536 C537 1.370 1_455 S
C536 C538 1.363 . S
C536 H552 0.931 . S
C537 C536 1.370 1_655 S
C537 C541 1.408 . S
C538 C536 1.363 . S
C538 C539 1.370 . S
C538 C542 1.524 . S
C539 C531 1.503 . S
C539 C538 1.370 . S
C539 C540 1.403 . S
C540 C539 1.403 . S
C540 C541 1.404 1_455 S
C540 C543 1.539 . S
C541 C537 1.408 . S
C541 C540 1.404 1_655 S
C541 H553 0.930 . S
C542 C538 1.524 . S
C542 H554 0.956 . S
C542 H555 0.961 . S
C542 H556 0.961 . S
C543 C540 1.539 . S
C543 H557 0.958 . S
C543 H558 0.961 . S
C543 H559 0.960 . S
H544 C528 0.931 . S
H545 C533 0.929 . S
H546 C534 0.960 . S
H547 C534 0.962 . S
H548 C534 0.960 . S
H549 C535 0.961 . S
H550 C535 0.961 . S
H551 C535 0.961 . S
H552 C536 0.931 . S
H553 C541 0.930 . S
H554 C542 0.956 . S
H555 C542 0.961 . S
H556 C542 0.961 . S
H557 C543 0.958 . S
H558 C543 0.961 . S
H559 C543 0.960 . S
C560 C561 1.391 1_655 S
C560 C562 1.394 . S
C560 H576 0.931 . S
C561 C560 1.391 1_455 S
C561 C565 1.376 . S
C562 C560 1.394 . S
C562 C563 1.369 . S
C562 C566 1.531 . S
C563 C562 1.369 . S
C563 C564 1.410 1_655 S
C563 C571 1.503 . S
C564 C563 1.410 1_455 S
C564 C565 1.392 . S
C564 C567 1.511 . S
C565 C561 1.376 . S
C565 C564 1.392 . S
C565 H577 0.929 . S
C566 C562 1.531 . S
C566 H578 0.960 . S
C566 H579 0.962 . S
C566 H580 0.960 . S
C567 C564 1.511 . S
C567 H581 0.961 . S
C567 H582 0.961 1_455 S
C567 H583 0.961 . S
C568 C569 1.370 1_545 S
C568 C570 1.363 . S
C568 H584 0.931 . S
C569 C568 1.370 1_565 S
C569 C573 1.408 . S
C570 C568 1.363 . S
C570 C571 1.370 . S
C570 C574 1.524 . S
C571 C563 1.503 . S
C571 C570 1.370 . S
C571 C572 1.403 . S
C572 C571 1.403 . S
C572 C573 1.404 1_545 S
C572 C575 1.539 . S
C573 C569 1.408 . S
C573 C572 1.404 1_565 S
C573 H585 0.930 . S
C574 C570 1.524 . S
C574 H586 0.956 . S
C574 H587 0.961 . S
C574 H588 0.961 . S
C575 C572 1.539 . S
C575 H589 0.958 . S
C575 H590 0.961 . S
C575 H591 0.960 . S
H576 C560 0.931 . S
H577 C565 0.929 . S
H578 C566 0.960 . S
H579 C566 0.962 . S
H580 C566 0.960 . S
H581 C567 0.961 . S
H582 C567 0.961 1_655 S
H583 C567 0.961 . S
H584 C568 0.931 . S
H585 C573 0.930 . S
H586 C574 0.956 . S
H587 C574 0.961 . S
H588 C574 0.961 . S
H589 C575 0.958 . S
H590 C575 0.961 . S
H591 C575 0.960 . S
C592 C593 1.391 . S
C592 C594 1.394 . S
C592 H608 0.931 . S
C593 C592 1.391 . S
C593 C597 1.376 . S
C594 C592 1.394 . S
C594 C595 1.369 . S
C594 C598 1.531 . S
C595 C594 1.369 . S
C595 C596 1.410 . S
C595 C603 1.503 . S
C596 C595 1.410 . S
C596 C597 1.392 . S
C596 C599 1.511 . S
C597 C593 1.376 . S
C597 C596 1.392 . S
C597 H609 0.929 . S
C598 C594 1.531 . S
C598 H610 0.960 . S
C598 H611 0.962 . S
C598 H612 0.960 . S
C599 C596 1.511 . S
C599 H613 0.961 . S
C599 H614 0.961 . S
C599 H615 0.961 . S
C600 C601 1.370 1_565 S
C600 C602 1.363 . S
C600 H616 0.931 . S
C601 C600 1.370 1_545 S
C601 C605 1.408 . S
C602 C600 1.363 . S
C602 C603 1.370 . S
C602 C606 1.524 . S
C603 C595 1.503 . S
C603 C602 1.370 . S
C603 C604 1.403 1_565 S
C604 C603 1.403 1_545 S
C604 C605 1.404 . S
C604 C607 1.539 . S
C605 C601 1.408 . S
C605 C604 1.404 . S
C605 H617 0.930 . S
C606 C602 1.524 . S
C606 H618 0.956 . S
C606 H619 0.961 . S
C606 H620 0.961 . S
C607 C604 1.539 . S
C607 H621 0.958 . S
C607 H622 0.961 . S
C607 H623 0.960 1_545 S
H608 C592 0.931 . S
H609 C597 0.929 . S
H610 C598 0.960 . S
H611 C598 0.962 . S
H612 C598 0.960 . S
H613 C599 0.961 . S
H614 C599 0.961 . S
H615 C599 0.961 . S
H616 C600 0.931 . S
H617 C605 0.930 . S
H618 C606 0.956 . S
H619 C606 0.961 . S
H620 C606 0.961 . S
H621 C607 0.958 . S
H622 C607 0.961 . S
H623 C607 0.960 1_565 S
C624 C625 1.391 . S
C624 C626 1.394 . S
C624 H640 0.931 . S
C625 C624 1.391 . S
C625 C629 1.376 . S
C626 C624 1.394 . S
C626 C627 1.369 . S
C626 C630 1.531 . S
C627 C626 1.369 . S
C627 C628 1.410 . S
C627 C635 1.503 . S
C628 C627 1.410 . S
C628 C629 1.392 . S
C628 C631 1.511 . S
C629 C625 1.376 . S
C629 C628 1.392 . S
C629 H641 0.929 . S
C630 C626 1.531 . S
C630 H642 0.960 . S
C630 H643 0.962 . S
C630 H644 0.960 . S
C631 C628 1.511 . S
C631 H645 0.961 . S
C631 H646 0.961 . S
C631 H647 0.961 . S
C632 C633 1.370 . S
C632 C634 1.363 . S
C632 H648 0.931 . S
C633 C632 1.370 . S
C633 C637 1.408 . S
C634 C632 1.363 . S
C634 C635 1.370 . S
C634 C638 1.524 . S
C635 C627 1.503 . S
C635 C634 1.370 . S
C635 C636 1.403 . S
C636 C635 1.403 . S
C636 C637 1.404 . S
C636 C639 1.539 . S
C637 C633 1.408 . S
C637 C636 1.404 . S
C637 H649 0.930 . S
C638 C634 1.524 . S
C638 H650 0.956 . S
C638 H651 0.961 . S
C638 H652 0.961 . S
C639 C636 1.539 . S
C639 H653 0.958 . S
C639 H654 0.961 . S
C639 H655 0.960 . S
H640 C624 0.931 . S
H641 C629 0.929 . S
H642 C630 0.960 . S
H643 C630 0.962 . S
H644 C630 0.960 . S
H645 C631 0.961 . S
H646 C631 0.961 . S
H647 C631 0.961 . S
H648 C632 0.931 . S
H649 C637 0.930 . S
H650 C638 0.956 . S
H651 C638 0.961 . S
H652 C638 0.961 . S
H653 C639 0.958 . S
H654 C639 0.961 . S
H655 C639 0.960 . S
C656 C657 1.391 . S
C656 C658 1.394 . S
C656 H672 0.931 . S
C657 C656 1.391 . S
C657 C661 1.376 . S
C658 C656 1.394 . S
C658 C659 1.369 . S
C658 C662 1.531 . S
C659 C658 1.369 . S
C659 C660 1.410 . S
C659 C667 1.503 . S
C660 C659 1.410 . S
C660 C661 1.392 . S
C660 C663 1.511 . S
C661 C657 1.376 . S
C661 C660 1.392 . S
C661 H673 0.929 . S
C662 C658 1.531 . S
C662 H674 0.960 . S
C662 H675 0.962 . S
C662 H676 0.960 . S
C663 C660 1.511 . S
C663 H677 0.961 . S
C663 H678 0.961 . S
C663 H679 0.961 . S
C664 C665 1.370 . S
C664 C666 1.363 . S
C664 H680 0.931 . S
C665 C664 1.370 . S
C665 C669 1.408 . S
C666 C664 1.363 . S
C666 C667 1.370 . S
C666 C670 1.524 . S
C667 C659 1.503 . S
C667 C666 1.370 . S
C667 C668 1.403 . S
C668 C667 1.403 . S
C668 C669 1.404 . S
C668 C671 1.539 . S
C669 C665 1.408 . S
C669 C668 1.404 . S
C669 H681 0.930 . S
C670 C666 1.524 . S
C670 H682 0.956 . S
C670 H683 0.961 . S
C670 H684 0.961 . S
C671 C668 1.539 . S
C671 H685 0.958 . S
C671 H686 0.961 . S
C671 H687 0.960 . S
H672 C656 0.931 . S
H673 C661 0.929 . S
H674 C662 0.960 . S
H675 C662 0.962 . S
H676 C662 0.960 . S
H677 C663 0.961 . S
H678 C663 0.961 . S
H679 C663 0.961 . S
H680 C664 0.931 . S
H681 C669 0.930 . S
H682 C670 0.956 . S
H683 C670 0.961 . S
H684 C670 0.961 . S
H685 C671 0.958 . S
H686 C671 0.961 . S
H687 C671 0.960 . S
C688 C689 1.391 . S
C688 C690 1.394 . S
C688 H704 0.931 . S
C689 C688 1.391 . S
C689 C693 1.376 . S
C690 C688 1.394 . S
C690 C691 1.369 . S
C690 C694 1.531 . S
C691 C690 1.369 . S
C691 C692 1.410 . S
C691 C699 1.503 . S
C692 C691 1.410 . S
C692 C693 1.392 . S
C692 C695 1.511 . S
C693 C689 1.376 . S
C693 C692 1.392 . S
C693 H705 0.929 . S
C694 C690 1.531 . S
C694 H706 0.960 . S
C694 H707 0.962 . S
C694 H708 0.960 . S
C695 C692 1.511 . S
C695 H709 0.961 . S
C695 H710 0.961 . S
C695 H711 0.961 . S
C696 C697 1.370 . S
C696 C698 1.363 . S
C696 H712 0.931 . S
C697 C696 1.370 . S
C697 C701 1.408 . S
C698 C696 1.363 . S
C698 C699 1.370 . S
C698 C702 1.524 . S
C699 C691 1.503 . S
C699 C698 1.370 . S
C699 C700 1.403 . S
C700 C699 1.403 . S
C700 C701 1.404 . S
C700 C703 1.539 . S
C701 C697 1.408 . S
C701 C700 1.404 . S
C701 H713 0.930 . S
C702 C698 1.524 . S
C702 H714 0.956 . S
C702 H715 0.961 . S
C702 H716 0.961 . S
C703 C700 1.539 . S
C703 H717 0.958 . S
C703 H718 0.961 . S
C703 H719 0.960 . S
H704 C688 0.931 . S
H705 C693 0.929 . S
H706 C694 0.960 . S
H707 C694 0.962 . S
H708 C694 0.960 . S
H709 C695 0.961 . S
H710 C695 0.961 . S
H711 C695 0.961 . S
H712 C696 0.931 . S
H713 C701 0.930 . S
H714 C702 0.956 . S
H715 C702 0.961 . S
H716 C702 0.961 . S
H717 C703 0.958 . S
H718 C703 0.961 . S
H719 C703 0.960 . S
C720 C721 1.391 . S
C720 C722 1.394 . S
C720 H736 0.931 . S
C721 C720 1.391 . S
C721 C725 1.376 . S
C722 C720 1.394 . S
C722 C723 1.369 . S
C722 C726 1.531 . S
C723 C722 1.369 . S
C723 C724 1.410 . S
C723 C731 1.503 . S
C724 C723 1.410 . S
C724 C725 1.392 . S
C724 C727 1.511 . S
C725 C721 1.376 . S
C725 C724 1.392 . S
C725 H737 0.929 . S
C726 C722 1.531 . S
C726 H738 0.960 . S
C726 H739 0.962 . S
C726 H740 0.960 . S
C727 C724 1.511 . S
C727 H741 0.961 . S
C727 H742 0.961 . S
C727 H743 0.961 . S
C728 C729 1.370 . S
C728 C730 1.363 . S
C728 H744 0.931 . S
C729 C728 1.370 . S
C729 C733 1.408 . S
C730 C728 1.363 . S
C730 C731 1.370 . S
C730 C734 1.524 . S
C731 C723 1.503 . S
C731 C730 1.370 . S
C731 C732 1.403 . S
C732 C731 1.403 . S
C732 C733 1.404 . S
C732 C735 1.539 . S
C733 C729 1.408 . S
C733 C732 1.404 . S
C733 H745 0.930 . S
C734 C730 1.524 . S
C734 H746 0.956 . S
C734 H747 0.961 . S
C734 H748 0.961 . S
C735 C732 1.539 . S
C735 H749 0.958 . S
C735 H750 0.961 . S
C735 H751 0.960 . S
H736 C720 0.931 . S
H737 C725 0.929 . S
H738 C726 0.960 . S
H739 C726 0.962 . S
H740 C726 0.960 . S
H741 C727 0.961 . S
H742 C727 0.961 . S
H743 C727 0.961 . S
H744 C728 0.931 . S
H745 C733 0.930 . S
H746 C734 0.956 . S
H747 C734 0.961 . S
H748 C734 0.961 . S
H749 C735 0.958 . S
H750 C735 0.961 . S
H751 C735 0.960 . S
C752 C753 1.391 . S
C752 C754 1.394 . S
C752 H768 0.931 . S
C753 C752 1.391 . S
C753 C757 1.376 . S
C754 C752 1.394 . S
C754 C755 1.369 . S
C754 C758 1.531 . S
C755 C754 1.369 . S
C755 C756 1.410 . S
C755 C763 1.503 . S
C756 C755 1.410 . S
C756 C757 1.392 . S
C756 C759 1.511 . S
C757 C753 1.376 . S
C757 C756 1.392 . S
C757 H769 0.929 . S
C758 C754 1.531 . S
C758 H770 0.960 . S
C758 H771 0.962 . S
C758 H772 0.960 . S
C759 C756 1.511 . S
C759 H773 0.961 . S
C759 H774 0.961 . S
C759 H775 0.961 . S
C760 C761 1.370 . S
C760 C762 1.363 . S
C760 H776 0.931 . S
C761 C760 1.370 . S
C761 C765 1.408 . S
C762 C760 1.363 . S
C762 C763 1.370 . S
C762 C766 1.524 . S
C763 C755 1.503 . S
C763 C762 1.370 . S
C763 C764 1.403 . S
C764 C763 1.403 . S
C764 C765 1.404 . S
C764 C767 1.539 . S
C765 C761 1.408 . S
C765 C764 1.404 . S
C765 H777 0.930 . S
C766 C762 1.524 . S
C766 H778 0.956 . S
C766 H779 0.961 . S
C766 H780 0.961 . S
C767 C764 1.539 . S
C767 H781 0.958 . S
C767 H782 0.961 . S
C767 H783 0.960 . S
H768 C752 0.931 . S
H769 C757 0.929 . S
H770 C758 0.960 . S
H771 C758 0.962 . S
H772 C758 0.960 . S
H773 C759 0.961 . S
H774 C759 0.961 . S
H775 C759 0.961 . S
H776 C760 0.931 . S
H777 C765 0.930 . S
H778 C766 0.956 . S
H779 C766 0.961 . S
H780 C766 0.961 . S
H781 C767 0.958 . S
H782 C767 0.961 . S
H783 C767 0.960 . S
C784 C785 1.391 . S
C784 C786 1.394 . S
C784 H800 0.931 . S
C785 C784 1.391 . S
C785 C789 1.376 . S
C786 C784 1.394 . S
C786 C787 1.369 . S
C786 C790 1.531 . S
C787 C786 1.369 . S
C787 C788 1.410 . S
C787 C795 1.503 . S
C788 C787 1.410 . S
C788 C789 1.392 . S
C788 C791 1.511 . S
C789 C785 1.376 . S
C789 C788 1.392 . S
C789 H801 0.929 . S
C790 C786 1.531 . S
C790 H802 0.960 . S
C790 H803 0.962 . S
C790 H804 0.960 . S
C791 C788 1.511 . S
C791 H805 0.961 . S
C791 H806 0.961 . S
C791 H807 0.961 . S
C792 C793 1.370 . S
C792 C794 1.363 . S
C792 H808 0.931 . S
C793 C792 1.370 . S
C793 C797 1.408 . S
C794 C792 1.363 . S
C794 C795 1.370 . S
C794 C798 1.524 . S
C795 C787 1.503 . S
C795 C794 1.370 . S
C795 C796 1.403 . S
C796 C795 1.403 . S
C796 C797 1.404 . S
C796 C799 1.539 . S
C797 C793 1.408 . S
C797 C796 1.404 . S
C797 H809 0.930 . S
C798 C794 1.524 . S
C798 H810 0.956 . S
C798 H811 0.961 . S
C798 H812 0.961 . S
C799 C796 1.539 . S
C799 H813 0.958 . S
C799 H814 0.961 . S
C799 H815 0.960 . S
H800 C784 0.931 . S
H801 C789 0.929 . S
H802 C790 0.960 . S
H803 C790 0.962 . S
H804 C790 0.960 . S
H805 C791 0.961 . S
H806 C791 0.961 . S
H807 C791 0.961 . S
H808 C792 0.931 . S
H809 C797 0.930 . S
H810 C798 0.956 . S
H811 C798 0.961 . S
H812 C798 0.961 . S
H813 C799 0.958 . S
H814 C799 0.961 . S
H815 C799 0.960 . S
C816 C817 1.391 . S
C816 C818 1.394 . S
C816 H832 0.931 . S
C817 C816 1.391 . S
C817 C821 1.376 . S
C818 C816 1.394 . S
C818 C819 1.369 . S
C818 C822 1.531 . S
C819 C818 1.369 . S
C819 C820 1.410 . S
C819 C827 1.503 . S
C820 C819 1.410 . S
C820 C821 1.392 . S
C820 C823 1.511 . S
C821 C817 1.376 . S
C821 C820 1.392 . S
C821 H833 0.929 . S
C822 C818 1.531 . S
C822 H834 0.960 . S
C822 H835 0.962 . S
C822 H836 0.960 . S
C823 C820 1.511 . S
C823 H837 0.961 . S
C823 H838 0.961 . S
C823 H839 0.961 . S
C824 C825 1.370 . S
C824 C826 1.363 . S
C824 H840 0.931 . S
C825 C824 1.370 . S
C825 C829 1.408 . S
C826 C824 1.363 . S
C826 C827 1.370 . S
C826 C830 1.524 . S
C827 C819 1.503 . S
C827 C826 1.370 . S
C827 C828 1.403 . S
C828 C827 1.403 . S
C828 C829 1.404 . S
C828 C831 1.539 . S
C829 C825 1.408 . S
C829 C828 1.404 . S
C829 H841 0.930 . S
C830 C826 1.524 . S
C830 H842 0.956 . S
C830 H843 0.961 . S
C830 H844 0.961 . S
C831 C828 1.539 . S
C831 H845 0.958 . S
C831 H846 0.961 . S
C831 H847 0.960 . S
H832 C816 0.931 . S
H833 C821 0.929 . S
H834 C822 0.960 . S
H835 C822 0.962 . S
H836 C822 0.960 . S
H837 C823 0.961 . S
H838 C823 0.961 . S
H839 C823 0.961 . S
H840 C824 0.931 . S
H841 C829 0.930 . S
H842 C830 0.956 . S
H843 C830 0.961 . S
H844 C830 0.961 . S
H845 C831 0.958 . S
H846 C831 0.961 . S
H847 C831 0.960 . S
C848 C849 1.391 . S
C848 C850 1.394 . S
C848 H864 0.931 . S
C849 C848 1.391 . S
C849 C853 1.376 . S
C850 C848 1.394 . S
C850 C851 1.369 . S
C850 C854 1.531 . S
C851 C850 1.369 . S
C851 C852 1.410 . S
C851 C859 1.503 . S
C852 C851 1.410 . S
C852 C853 1.392 . S
C852 C855 1.511 . S
C853 C849 1.376 . S
C853 C852 1.392 . S
C853 H865 0.929 . S
C854 C850 1.531 . S
C854 H866 0.960 . S
C854 H867 0.962 . S
C854 H868 0.960 . S
C855 C852 1.511 . S
C855 H869 0.961 . S
C855 H870 0.961 . S
C855 H871 0.961 . S
C856 C857 1.370 . S
C856 C858 1.363 . S
C856 H872 0.931 . S
C857 C856 1.370 . S
C857 C861 1.408 . S
C858 C856 1.363 . S
C858 C859 1.370 . S
C858 C862 1.524 . S
C859 C851 1.503 . S
C859 C858 1.370 . S
C859 C860 1.403 . S
C860 C859 1.403 . S
C860 C861 1.404 . S
C860 C863 1.539 . S
C861 C857 1.408 . S
C861 C860 1.404 . S
C861 H873 0.930 . S
C862 C858 1.524 . S
C862 H874 0.956 . S
C862 H875 0.961 . S
C862 H876 0.961 . S
C863 C860 1.539 . S
C863 H877 0.958 . S
C863 H878 0.961 . S
C863 H879 0.960 . S
H864 C848 0.931 . S
H865 C853 0.929 . S
H866 C854 0.960 . S
H867 C854 0.962 . S
H868 C854 0.960 . S
H869 C855 0.961 . S
H870 C855 0.961 . S
H871 C855 0.961 . S
H872 C856 0.931 . S
H873 C861 0.930 . S
H874 C862 0.956 . S
H875 C862 0.961 . S
H876 C862 0.961 . S
H877 C863 0.958 . S
H878 C863 0.961 . S
H879 C863 0.960 . S
C880 C881 1.391 . S
C880 C882 1.394 . S
C880 H896 0.931 . S
C881 C880 1.391 . S
C881 C885 1.376 . S
C882 C880 1.394 . S
C882 C883 1.369 . S
C882 C886 1.531 . S
C883 C882 1.369 . S
C883 C884 1.410 . S
C883 C891 1.503 . S
C884 C883 1.410 . S
C884 C885 1.392 . S
C884 C887 1.511 . S
C885 C881 1.376 . S
C885 C884 1.392 . S
C885 H897 0.929 . S
C886 C882 1.531 . S
C886 H898 0.960 . S
C886 H899 0.962 . S
C886 H900 0.960 . S
C887 C884 1.511 . S
C887 H901 0.961 . S
C887 H902 0.961 . S
C887 H903 0.961 . S
C888 C889 1.370 . S
C888 C890 1.363 . S
C888 H904 0.931 . S
C889 C888 1.370 . S
C889 C893 1.408 . S
C890 C888 1.363 . S
C890 C891 1.370 . S
C890 C894 1.524 . S
C891 C883 1.503 . S
C891 C890 1.370 . S
C891 C892 1.403 . S
C892 C891 1.403 . S
C892 C893 1.404 . S
C892 C895 1.539 . S
C893 C889 1.408 . S
C893 C892 1.404 . S
C893 H905 0.930 . S
C894 C890 1.524 . S
C894 H906 0.956 . S
C894 H907 0.961 . S
C894 H908 0.961 . S
C895 C892 1.539 . S
C895 H909 0.958 . S
C895 H910 0.961 . S
C895 H911 0.960 . S
H896 C880 0.931 . S
H897 C885 0.929 . S
H898 C886 0.960 . S
H899 C886 0.962 . S
H900 C886 0.960 . S
H901 C887 0.961 . S
H902 C887 0.961 . S
H903 C887 0.961 . S
H904 C888 0.931 . S
H905 C893 0.930 . S
H906 C894 0.956 . S
H907 C894 0.961 . S
H908 C894 0.961 . S
H909 C895 0.958 . S
H910 C895 0.961 . S
H911 C895 0.960 . S
C912 C913 1.391 . S
C912 C914 1.394 . S
C912 H928 0.931 . S
C913 C912 1.391 . S
C913 C917 1.376 . S
C914 C912 1.394 . S
C914 C915 1.369 . S
C914 C918 1.531 . S
C915 C914 1.369 . S
C915 C916 1.410 . S
C915 C923 1.503 . S
C916 C915 1.410 . S
C916 C917 1.392 . S
C916 C919 1.511 . S
C917 C913 1.376 . S
C917 C916 1.392 . S
C917 H929 0.929 . S
C918 C914 1.531 . S
C918 H930 0.960 . S
C918 H931 0.962 . S
C918 H932 0.960 . S
C919 C916 1.511 . S
C919 H933 0.961 . S
C919 H934 0.961 . S
C919 H935 0.961 . S
C920 C921 1.370 . S
C920 C922 1.363 . S
C920 H936 0.931 . S
C921 C920 1.370 . S
C921 C925 1.408 . S
C922 C920 1.363 . S
C922 C923 1.370 . S
C922 C926 1.524 . S
C923 C915 1.503 . S
C923 C922 1.370 . S
C923 C924 1.403 . S
C924 C923 1.403 . S
C924 C925 1.404 . S
C924 C927 1.539 . S
C925 C921 1.408 . S
C925 C924 1.404 . S
C925 H937 0.930 . S
C926 C922 1.524 . S
C926 H938 0.956 . S
C926 H939 0.961 . S
C926 H940 0.961 . S
C927 C924 1.539 . S
C927 H941 0.958 . S
C927 H942 0.961 . S
C927 H943 0.960 . S
H928 C912 0.931 . S
H929 C917 0.929 . S
H930 C918 0.960 . S
H931 C918 0.962 . S
H932 C918 0.960 . S
H933 C919 0.961 . S
H934 C919 0.961 . S
H935 C919 0.961 . S
H936 C920 0.931 . S
H937 C925 0.930 . S
H938 C926 0.956 . S
H939 C926 0.961 . S
H940 C926 0.961 . S
H941 C927 0.958 . S
H942 C927 0.961 . S
H943 C927 0.960 . S
C944 C945 1.391 . S
C944 C946 1.394 . S
C944 H960 0.931 . S
C945 C944 1.391 . S
C945 C949 1.376 . S
C946 C944 1.394 . S
C946 C947 1.369 . S
C946 C950 1.531 . S
C947 C946 1.369 . S
C947 C948 1.410 . S
C947 C955 1.503 . S
C948 C947 1.410 . S
C948 C949 1.392 . S
C948 C951 1.511 . S
C949 C945 1.376 . S
C949 C948 1.392 . S
C949 H961 0.929 . S
C950 C946 1.531 . S
C950 H962 0.960 . S
C950 H963 0.962 . S
C950 H964 0.960 . S
C951 C948 1.511 . S
C951 H965 0.961 . S
C951 H966 0.961 . S
C951 H967 0.961 . S
C952 C953 1.370 . S
C952 C954 1.363 . S
C952 H968 0.931 . S
C953 C952 1.370 . S
C953 C957 1.408 . S
C954 C952 1.363 . S
C954 C955 1.370 . S
C954 C958 1.524 . S
C955 C947 1.503 . S
C955 C954 1.370 . S
C955 C956 1.403 . S
C956 C955 1.403 . S
C956 C957 1.404 . S
C956 C959 1.539 . S
C957 C953 1.408 . S
C957 C956 1.404 . S
C957 H969 0.930 . S
C958 C954 1.524 . S
C958 H970 0.956 . S
C958 H971 0.961 . S
C958 H972 0.961 . S
C959 C956 1.539 . S
C959 H973 0.958 . S
C959 H974 0.961 . S
C959 H975 0.960 . S
H960 C944 0.931 . S
H961 C949 0.929 . S
H962 C950 0.960 . S
H963 C950 0.962 . S
H964 C950 0.960 . S
H965 C951 0.961 . S
H966 C951 0.961 . S
H967 C951 0.961 . S
H968 C952 0.931 . S
H969 C957 0.930 . S
H970 C958 0.956 . S
H971 C958 0.961 . S
H972 C958 0.961 . S
H973 C959 0.958 . S
H974 C959 0.961 . S
H975 C959 0.960 . S
C976 C977 1.391 . S
C976 C978 1.394 . S
C976 H992 0.931 . S
C977 C976 1.391 . S
C977 C981 1.376 . S
C978 C976 1.394 . S
C978 C979 1.369 . S
C978 C982 1.531 . S
C979 C978 1.369 . S
C979 C980 1.410 . S
C979 C987 1.503 . S
C980 C979 1.410 . S
C980 C981 1.392 . S
C980 C983 1.511 . S
C981 C977 1.376 . S
C981 C980 1.392 . S
C981 H993 0.929 . S
C982 C978 1.531 . S
C982 H994 0.960 . S
C982 H995 0.962 . S
C982 H996 0.960 . S
C983 C980 1.511 . S
C983 H997 0.961 . S
C983 H998 0.961 . S
C983 H999 0.961 . S
C984 C985 1.370 . S
C984 C986 1.363 . S
C984 H1000 0.931 . S
C985 C984 1.370 . S
C985 C989 1.408 . S
C986 C984 1.363 . S
C986 C987 1.370 . S
C986 C990 1.524 . S
C987 C979 1.503 . S
C987 C986 1.370 . S
C987 C988 1.403 . S
C988 C987 1.403 . S
C988 C989 1.404 . S
C988 C991 1.539 . S
C989 C985 1.408 . S
C989 C988 1.404 . S
C989 H1001 0.930 . S
C990 C986 1.524 . S
C990 H1002 0.956 . S
C990 H1003 0.961 . S
C990 H1004 0.961 . S
C991 C988 1.539 . S
C991 H1005 0.958 . S
C991 H1006 0.961 . S
C991 H1007 0.960 . S
H992 C976 0.931 . S
H993 C981 0.929 . S
H994 C982 0.960 . S
H995 C982 0.962 . S
H996 C982 0.960 . S
H997 C983 0.961 . S
H998 C983 0.961 . S
H999 C983 0.961 . S
H1000 C984 0.931 . S
H1001 C989 0.930 . S
H1002 C990 0.956 . S
H1003 C990 0.961 . S
H1004 C990 0.961 . S
H1005 C991 0.958 . S
H1006 C991 0.961 . S
H1007 C991 0.960 . S
C1008 C1009 1.391 . S
C1008 C1010 1.394 . S
C1008 H1024 0.931 . S
C1009 C1008 1.391 . S
C1009 C1013 1.376 . S
C1010 C1008 1.394 . S
C1010 C1011 1.369 . S
C1010 C1014 1.531 . S
C1011 C1010 1.369 . S
C1011 C1012 1.410 . S
C1011 C1019 1.503 . S
C1012 C1011 1.410 . S
C1012 C1013 1.392 . S
C1012 C1015 1.511 . S
C1013 C1009 1.376 . S
C1013 C1012 1.392 . S
C1013 H1025 0.929 . S
C1014 C1010 1.531 . S
C1014 H1026 0.960 . S
C1014 H1027 0.962 . S
C1014 H1028 0.960 . S
C1015 C1012 1.511 . S
C1015 H1029 0.961 . S
C1015 H1030 0.961 . S
C1015 H1031 0.961 . S
C1016 C1017 1.370 . S
C1016 C1018 1.363 . S
C1016 H1032 0.931 . S
C1017 C1016 1.370 . S
C1017 C1021 1.408 . S
C1018 C1016 1.363 . S
C1018 C1019 1.370 . S
C1018 C1022 1.524 . S
C1019 C1011 1.503 . S
C1019 C1018 1.370 . S
C1019 C1020 1.403 . S
C1020 C1019 1.403 . S
C1020 C1021 1.404 . S
C1020 C1023 1.539 . S
C1021 C1017 1.408 . S
C1021 C1020 1.404 . S
C1021 H1033 0.930 . S
C1022 C1018 1.524 . S
C1022 H1034 0.956 . S
C1022 H1035 0.961 . S
C1022 H1036 0.961 . S
C1023 C1020 1.539 . S
C1023 H1037 0.958 . S
C1023 H1038 0.961 . S
C1023 H1039 0.960 . S
H1024 C1008 0.931 . S
H1025 C1013 0.929 . S
H1026 C1014 0.960 . S
H1027 C1014 0.962 . S
H1028 C1014 0.960 . S
H1029 C1015 0.961 . S
H1030 C1015 0.961 . S
H1031 C1015 0.961 . S
H1032 C1016 0.931 . S
H1033 C1021 0.930 . S
H1034 C1022 0.956 . S
H1035 C1022 0.961 . S
H1036 C1022 0.961 . S
H1037 C1023 0.958 . S
H1038 C1023 0.961 . S
H1039 C1023 0.960 . S
C1040 C1041 1.391 . S
C1040 C1042 1.394 . S
C1040 H1056 0.931 . S
C1041 C1040 1.391 . S
C1041 C1045 1.376 . S
C1042 C1040 1.394 . S
C1042 C1043 1.369 . S
C1042 C1046 1.531 . S
C1043 C1042 1.369 . S
C1043 C1044 1.410 . S
C1043 C1051 1.503 . S
C1044 C1043 1.410 . S
C1044 C1045 1.392 . S
C1044 C1047 1.511 . S
C1045 C1041 1.376 . S
C1045 C1044 1.392 . S
C1045 H1057 0.929 . S
C1046 C1042 1.531 . S
C1046 H1058 0.960 . S
C1046 H1059 0.962 . S
C1046 H1060 0.960 . S
C1047 C1044 1.511 . S
C1047 H1061 0.961 . S
C1047 H1062 0.961 . S
C1047 H1063 0.961 . S
C1048 C1049 1.370 . S
C1048 C1050 1.363 . S
C1048 H1064 0.931 . S
C1049 C1048 1.370 . S
C1049 C1053 1.408 . S
C1050 C1048 1.363 . S
C1050 C1051 1.370 . S
C1050 C1054 1.524 . S
C1051 C1043 1.503 . S
C1051 C1050 1.370 . S
C1051 C1052 1.403 . S
C1052 C1051 1.403 . S
C1052 C1053 1.404 . S
C1052 C1055 1.539 . S
C1053 C1049 1.408 . S
C1053 C1052 1.404 . S
C1053 H1065 0.930 . S
C1054 C1050 1.524 . S
C1054 H1066 0.956 . S
C1054 H1067 0.961 . S
C1054 H1068 0.961 . S
C1055 C1052 1.539 . S
C1055 H1069 0.958 . S
C1055 H1070 0.961 . S
C1055 H1071 0.960 . S
H1056 C1040 0.931 . S
H1057 C1045 0.929 . S
H1058 C1046 0.960 . S
H1059 C1046 0.962 . S
H1060 C1046 0.960 . S
H1061 C1047 0.961 . S
H1062 C1047 0.961 . S
H1063 C1047 0.961 . S
H1064 C1048 0.931 . S
H1065 C1053 0.930 . S
H1066 C1054 0.956 . S
H1067 C1054 0.961 . S
H1068 C1054 0.961 . S
H1069 C1055 0.958 . S
H1070 C1055 0.961 . S
H1071 C1055 0.960 . S
C1072 C1073 1.391 . S
C1072 C1074 1.394 . S
C1072 H1088 0.931 . S
C1073 C1072 1.391 . S
C1073 C1077 1.376 . S
C1074 C1072 1.394 . S
C1074 C1075 1.369 . S
C1074 C1078 1.531 . S
C1075 C1074 1.369 . S
C1075 C1076 1.410 . S
C1075 C1083 1.503 . S
C1076 C1075 1.410 . S
C1076 C1077 1.392 . S
C1076 C1079 1.511 . S
C1077 C1073 1.376 . S
C1077 C1076 1.392 . S
C1077 H1089 0.929 . S
C1078 C1074 1.531 . S
C1078 H1090 0.960 . S
C1078 H1091 0.962 . S
C1078 H1092 0.960 . S
C1079 C1076 1.511 . S
C1079 H1093 0.961 . S
C1079 H1094 0.961 . S
C1079 H1095 0.961 . S
C1080 C1081 1.370 . S
C1080 C1082 1.363 . S
C1080 H1096 0.931 . S
C1081 C1080 1.370 . S
C1081 C1085 1.408 . S
C1082 C1080 1.363 . S
C1082 C1083 1.370 . S
C1082 C1086 1.524 . S
C1083 C1075 1.503 . S
C1083 C1082 1.370 . S
C1083 C1084 1.403 . S
C1084 C1083 1.403 . S
C1084 C1085 1.404 . S
C1084 C1087 1.539 . S
C1085 C1081 1.408 . S
C1085 C1084 1.404 . S
C1085 H1097 0.930 . S
C1086 C1082 1.524 . S
C1086 H1098 0.956 . S
C1086 H1099 0.961 . S
C1086 H1100 0.961 . S
C1087 C1084 1.539 . S
C1087 H1101 0.958 . S
C1087 H1102 0.961 . S
C1087 H1103 0.960 . S
H1088 C1072 0.931 . S
H1089 C1077 0.929 . S
H1090 C1078 0.960 . S
H1091 C1078 0.962 . S
H1092 C1078 0.960 . S
H1093 C1079 0.961 . S
H1094 C1079 0.961 . S
H1095 C1079 0.961 . S
H1096 C1080 0.931 . S
H1097 C1085 0.930 . S
H1098 C1086 0.956 . S
H1099 C1086 0.961 . S
H1100 C1086 0.961 . S
H1101 C1087 0.958 . S
H1102 C1087 0.961 . S
H1103 C1087 0.960 . S
C1104 C1105 1.391 . S
C1104 C1106 1.394 . S
C1104 H1120 0.931 . S
C1105 C1104 1.391 . S
C1105 C1109 1.376 . S
C1106 C1104 1.394 . S
C1106 C1107 1.369 . S
C1106 C1110 1.531 . S
C1107 C1106 1.369 . S
C1107 C1108 1.410 . S
C1107 C1115 1.503 . S
C1108 C1107 1.410 . S
C1108 C1109 1.392 . S
C1108 C1111 1.511 . S
C1109 C1105 1.376 . S
C1109 C1108 1.392 . S
C1109 H1121 0.929 . S
C1110 C1106 1.531 . S
C1110 H1122 0.960 . S
C1110 H1123 0.962 . S
C1110 H1124 0.960 . S
C1111 C1108 1.511 . S
C1111 H1125 0.961 . S
C1111 H1126 0.961 . S
C1111 H1127 0.961 . S
C1112 C1113 1.370 . S
C1112 C1114 1.363 . S
C1112 H1128 0.931 . S
C1113 C1112 1.370 . S
C1113 C1117 1.408 . S
C1114 C1112 1.363 . S
C1114 C1115 1.370 . S
C1114 C1118 1.524 . S
C1115 C1107 1.503 . S
C1115 C1114 1.370 . S
C1115 C1116 1.403 . S
C1116 C1115 1.403 . S
C1116 C1117 1.404 . S
C1116 C1119 1.539 . S
C1117 C1113 1.408 . S
C1117 C1116 1.404 . S
C1117 H1129 0.930 . S
C1118 C1114 1.524 . S
C1118 H1130 0.956 . S
C1118 H1131 0.961 . S
C1118 H1132 0.961 . S
C1119 C1116 1.539 . S
C1119 H1133 0.958 . S
C1119 H1134 0.961 . S
C1119 H1135 0.960 . S
H1120 C1104 0.931 . S
H1121 C1109 0.929 . S
H1122 C1110 0.960 . S
H1123 C1110 0.962 . S
H1124 C1110 0.960 . S
H1125 C1111 0.961 . S
H1126 C1111 0.961 . S
H1127 C1111 0.961 . S
H1128 C1112 0.931 . S
H1129 C1117 0.930 . S
H1130 C1118 0.956 . S
H1131 C1118 0.961 . S
H1132 C1118 0.961 . S
H1133 C1119 0.958 . S
H1134 C1119 0.961 . S
H1135 C1119 0.960 . S
C1136 C1137 1.391 . S
C1136 C1138 1.394 . S
C1136 H1152 0.931 . S
C1137 C1136 1.391 . S
C1137 C1141 1.376 . S
C1138 C1136 1.394 . S
C1138 C1139 1.369 . S
C1138 C1142 1.531 . S
C1139 C1138 1.369 . S
C1139 C1140 1.410 . S
C1139 C1147 1.503 . S
C1140 C1139 1.410 . S
C1140 C1141 1.392 . S
C1140 C1143 1.511 . S
C1141 C1137 1.376 . S
C1141 C1140 1.392 . S
C1141 H1153 0.929 . S
C1142 C1138 1.531 . S
C1142 H1154 0.960 . S
C1142 H1155 0.962 . S
C1142 H1156 0.960 . S
C1143 C1140 1.511 . S
C1143 H1157 0.961 . S
C1143 H1158 0.961 . S
C1143 H1159 0.961 . S
C1144 C1145 1.370 . S
C1144 C1146 1.363 . S
C1144 H1160 0.931 . S
C1145 C1144 1.370 . S
C1145 C1149 1.408 . S
C1146 C1144 1.363 . S
C1146 C1147 1.370 . S
C1146 C1150 1.524 . S
C1147 C1139 1.503 . S
C1147 C1146 1.370 . S
C1147 C1148 1.403 . S
C1148 C1147 1.403 . S
C1148 C1149 1.404 . S
C1148 C1151 1.539 . S
C1149 C1145 1.408 . S
C1149 C1148 1.404 . S
C1149 H1161 0.930 . S
C1150 C1146 1.524 . S
C1150 H1162 0.956 . S
C1150 H1163 0.961 . S
C1150 H1164 0.961 . S
C1151 C1148 1.539 . S
C1151 H1165 0.958 . S
C1151 H1166 0.961 . S
C1151 H1167 0.960 . S
H1152 C1136 0.931 . S
H1153 C1141 0.929 . S
H1154 C1142 0.960 . S
H1155 C1142 0.962 . S
H1156 C1142 0.960 . S
H1157 C1143 0.961 . S
H1158 C1143 0.961 . S
H1159 C1143 0.961 . S
H1160 C1144 0.931 . S
H1161 C1149 0.930 . S
H1162 C1150 0.956 . S
H1163 C1150 0.961 . S
H1164 C1150 0.961 . S
H1165 C1151 0.958 . S
H1166 C1151 0.961 . S
H1167 C1151 0.960 . S
C1168 C1169 1.391 . S
C1168 C1170 1.394 . S
C1168 H1184 0.931 . S
C1169 C1168 1.391 . S
C1169 C1173 1.376 . S
C1170 C1168 1.394 . S
C1170 C1171 1.369 . S
C1170 C1174 1.531 . S
C1171 C1170 1.369 . S
C1171 C1172 1.410 . S
C1171 C1179 1.503 . S
C1172 C1171 1.410 . S
C1172 C1173 1.392 . S
C1172 C1175 1.511 . S
C1173 C1169 1.376 . S
C1173 C1172 1.392 . S
C1173 H1185 0.929 . S
C1174 C1170 1.531 . S
C1174 H1186 0.960 . S
C1174 H1187 0.962 . S
C1174 H1188 0.960 . S
C1175 C1172 1.511 . S
C1175 H1189 0.961 . S
C1175 H1190 0.961 . S
C1175 H1191 0.961 . S
C1176 C1177 1.370 . S
C1176 C1178 1.363 . S
C1176 H1192 0.931 . S
C1177 C1176 1.370 . S
C1177 C1181 1.408 . S
C1178 C1176 1.363 . S
C1178 C1179 1.370 . S
C1178 C1182 1.524 . S
C1179 C1171 1.503 . S
C1179 C1178 1.370 . S
C1179 C1180 1.403 . S
C1180 C1179 1.403 . S
C1180 C1181 1.404 . S
C1180 C1183 1.539 . S
C1181 C1177 1.408 . S
C1181 C1180 1.404 . S
C1181 H1193 0.930 . S
C1182 C1178 1.524 . S
C1182 H1194 0.956 . S
C1182 H1195 0.961 . S
C1182 H1196 0.961 . S
C1183 C1180 1.539 . S
C1183 H1197 0.958 . S
C1183 H1198 0.961 . S
C1183 H1199 0.960 . S
H1184 C1168 0.931 . S
H1185 C1173 0.929 . S
H1186 C1174 0.960 . S
H1187 C1174 0.962 . S
H1188 C1174 0.960 . S
H1189 C1175 0.961 . S
H1190 C1175 0.961 . S
H1191 C1175 0.961 . S
H1192 C1176 0.931 . S
H1193 C1181 0.930 . S
H1194 C1182 0.956 . S
H1195 C1182 0.961 . S
H1196 C1182 0.961 . S
H1197 C1183 0.958 . S
H1198 C1183 0.961 . S
H1199 C1183 0.960 . S
C1200 C1201 1.391 . S
C1200 C1202 1.394 . S
C1200 H1216 0.931 . S
C1201 C1200 1.391 . S
C1201 C1205 1.376 . S
C1202 C1200 1.394 . S
C1202 C1203 1.369 . S
C1202 C1206 1.533 1_556 S
C1203 C1202 1.369 . S
C1203 C1204 1.410 . S
C1203 C1211 1.503 1_556 S
C1204 C1203 1.410 . S
C1204 C1205 1.392 . S
C1204 C1207 1.511 . S
C1205 C1201 1.376 . S
C1205 C1204 1.392 . S
C1205 H1217 0.929 . S
C1206 C1202 1.533 1_554 S
C1206 H1218 0.955 . S
C1206 H1219 0.964 1_554 S
C1206 H1220 0.959 1_554 S
C1207 C1204 1.511 . S
C1207 H1221 0.961 . S
C1207 H1222 0.961 . S
C1207 H1223 0.961 1_556 S
C1208 C1209 1.370 . S
C1208 C1210 1.363 . S
C1208 H1224 0.931 . S
C1209 C1208 1.370 . S
C1209 C1213 1.408 . S
C1210 C1208 1.363 . S
C1210 C1211 1.370 . S
C1210 C1214 1.524 1_554 S
C1211 C1203 1.503 1_554 S
C1211 C1210 1.370 . S
C1211 C1212 1.403 . S
C1212 C1211 1.403 . S
C1212 C1213 1.404 . S
C1212 C1215 1.539 . S
C1213 C1209 1.408 . S
C1213 C1212 1.404 . S
C1213 H1225 0.930 . S
C1214 C1210 1.524 1_556 S
C1214 H1226 0.956 . S
C1214 H1227 0.961 . S
C1214 H1228 0.961 . S
C1215 C1212 1.539 . S
C1215 H1229 0.958 . S
C1215 H1230 0.961 . S
C1215 H1231 0.960 . S
H1216 C1200 0.931 . S
H1217 C1205 0.929 . S
H1218 C1206 0.955 . S
H1219 C1206 0.964 1_556 S
H1220 C1206 0.959 1_556 S
H1221 C1207 0.961 . S
H1222 C1207 0.961 . S
H1223 C1207 0.961 1_554 S
H1224 C1208 0.931 . S
H1225 C1213 0.930 . S
H1226 C1214 0.956 . S
H1227 C1214 0.961 . S
H1228 C1214 0.961 . S
H1229 C1215 0.958 . S
H1230 C1215 0.961 . S
H1231 C1215 0.960 . S
C1232 C1233 1.391 . S
C1232 C1234 1.394 . S
C1232 H1248 0.931 . S
C1233 C1232 1.391 . S
C1233 C1237 1.376 . S
C1234 C1232 1.394 . S
C1234 C1235 1.369 . S
C1234 C1238 1.531 . S
C1235 C1234 1.369 . S
C1235 C1236 1.410 . S
C1235 C1243 1.503 1_455 S
C1236 C1235 1.410 . S
C1236 C1237 1.392 . S
C1236 C1239 1.511 . S
C1237 C1233 1.376 . S
C1237 C1236 1.392 . S
C1237 H1249 0.929 . S
C1238 C1234 1.531 . S
C1238 H1250 0.960 1_455 S
C1238 H1251 0.962 . S
C1238 H1252 0.960 . S
C1239 C1236 1.511 . S
C1239 H1253 0.961 . S
C1239 H1254 0.961 . S
C1239 H1255 0.961 1_455 S
C1240 C1241 1.370 . S
C1240 C1242 1.363 . S
C1240 H1256 0.931 . S
C1241 C1240 1.370 . S
C1241 C1245 1.408 . S
C1242 C1240 1.363 . S
C1242 C1243 1.370 . S
C1242 C1246 1.524 1_655 S
C1243 C1235 1.503 1_655 S
C1243 C1242 1.370 . S
C1243 C1244 1.403 . S
C1244 C1243 1.403 . S
C1244 C1245 1.404 . S
C1244 C1247 1.539 . S
C1245 C1241 1.408 . S
C1245 C1244 1.404 . S
C1245 H1257 0.930 . S
C1246 C1242 1.524 1_455 S
C1246 H1258 0.956 . S
C1246 H1259 0.961 . S
C1246 H1260 0.961 . S
C1247 C1244 1.539 . S
C1247 H1261 0.958 . S
C1247 H1262 0.961 . S
C1247 H1263 0.960 . S
H1248 C1232 0.931 . S
H1249 C1237 0.929 . S
H1250 C1238 0.960 1_655 S
H1251 C1238 0.962 . S
H1252 C1238 0.960 . S
H1253 C1239 0.961 . S
H1254 C1239 0.961 . S
H1255 C1239 0.961 1_655 S
H1256 C1240 0.931 . S
H1257 C1245 0.930 . S
H1258 C1246 0.956 . S
H1259 C1246 0.961 . S
H1260 C1246 0.961 . S
H1261 C1247 0.958 . S
H1262 C1247 0.961 . S
H1263 C1247 0.960 . S
C1264 C1265 1.391 . S
C1264 C1266 1.394 . S
C1264 H1280 0.931 . S
C1265 C1264 1.391 . S
C1265 C1269 1.376 . S
C1266 C1264 1.394 . S
C1266 C1267 1.369 . S
C1266 C1270 1.531 1_565 S
C1267 C1266 1.369 . S
C1267 C1268 1.410 . S
C1267 C1275 1.503 1_564 S
C1268 C1267 1.410 . S
C1268 C1269 1.392 . S
C1268 C1271 1.511 . S
C1269 C1265 1.376 . S
C1269 C1268 1.392 . S
C1269 H1281 0.929 . S
C1270 C1266 1.531 1_545 S
C1270 H1282 0.960 . S
C1270 H1283 0.962 1_545 S
C1270 H1284 0.960 . S
C1271 C1268 1.511 . S
C1271 H1285 0.961 . S
C1271 H1286 0.961 1_554 S
C1271 H1287 0.961 . S
C1272 C1273 1.370 . S
C1272 C1274 1.363 . S
C1272 H1288 0.931 . S
C1273 C1272 1.370 . S
C1273 C1277 1.408 . S
C1274 C1272 1.363 . S
C1274 C1275 1.370 . S
C1274 C1278 1.524 1_545 S
C1275 C1267 1.503 1_546 S
C1275 C1274 1.370 . S
C1275 C1276 1.403 . S
C1276 C1275 1.403 . S
C1276 C1277 1.404 . S
C1276 C1279 1.539 1_556 S
C1277 C1273 1.408 . S
C1277 C1276 1.404 . S
C1277 H1289 0.930 . S
C1278 C1274 1.524 1_565 S
C1278 H1290 0.956 . S
C1278 H1291 0.961 . S
C1278 H1292 0.961 . S
C1279 C1276 1.539 1_554 S
C1279 H1293 0.958 . S
C1279 H1294 0.961 . S
C1279 H1295 0.960 . S
H1280 C1264 0.931 . S
H1281 C1269 0.929 . S
H1282 C1270 0.960 . S
H1283 C1270 0.962 1_565 S
H1284 C1270 0.960 . S
H1285 C1271 0.961 . S
H1286 C1271 0.961 1_556 S
H1287 C1271 0.961 . S
H1288 C1272 0.931 . S
H1289 C1277 0.930 . S
H1290 C1278 0.956 . S
H1291 C1278 0.961 . S
H1292 C1278 0.961 . S
H1293 C1279 0.958 . S
H1294 C1279 0.961 . S
H1295 C1279 0.960 . S
C1296 C1297 1.391 . S
C1296 C1298 1.394 . S
C1296 H1312 0.931 . S
C1297 C1296 1.391 . S
C1297 C1301 1.376 . S
C1298 C1296 1.394 . S
C1298 C1299 1.369 . S
C1298 C1302 1.531 . S
C1299 C1298 1.369 . S
C1299 C1300 1.410 . S
C1299 C1307 1.503 . S
C1300 C1299 1.410 . S
C1300 C1301 1.392 . S
C1300 C1303 1.511 . S
C1301 C1297 1.376 . S
C1301 C1300 1.392 . S
C1301 H1313 0.929 . S
C1302 C1298 1.531 . S
C1302 H1314 0.960 . S
C1302 H1315 0.962 . S
C1302 H1316 0.960 . S
C1303 C1300 1.511 . S
C1303 H1317 0.961 . S
C1303 H1318 0.961 . S
C1303 H1319 0.961 . S
C1304 C1305 1.370 . S
C1304 C1306 1.363 . S
C1304 H1320 0.931 . S
C1305 C1304 1.370 . S
C1305 C1309 1.408 . S
C1306 C1304 1.363 . S
C1306 C1307 1.370 . S
C1306 C1310 1.524 . S
C1307 C1299 1.503 . S
C1307 C1306 1.370 . S
C1307 C1308 1.403 . S
C1308 C1307 1.403 . S
C1308 C1309 1.404 . S
C1308 C1311 1.539 . S
C1309 C1305 1.408 . S
C1309 C1308 1.404 . S
C1309 H1321 0.930 . S
C1310 C1306 1.524 . S
C1310 H1322 0.956 . S
C1310 H1323 0.961 . S
C1310 H1324 0.961 . S
C1311 C1308 1.539 . S
C1311 H1325 0.958 . S
C1311 H1326 0.961 . S
C1311 H1327 0.960 . S
H1312 C1296 0.931 . S
H1313 C1301 0.929 . S
H1314 C1302 0.960 . S
H1315 C1302 0.962 . S
H1316 C1302 0.960 . S
H1317 C1303 0.961 . S
H1318 C1303 0.961 . S
H1319 C1303 0.961 . S
H1320 C1304 0.931 . S
H1321 C1309 0.930 . S
H1322 C1310 0.956 . S
H1323 C1310 0.961 . S
H1324 C1310 0.961 . S
H1325 C1311 0.958 . S
H1326 C1311 0.961 . S
H1327 C1311 0.960 . S
C1328 C1329 1.391 . S
C1328 C1330 1.394 . S
C1328 H1344 0.931 . S
C1329 C1328 1.391 . S
C1329 C1333 1.376 . S
C1330 C1328 1.394 . S
C1330 C1331 1.369 . S
C1330 C1334 1.531 1_655 S
C1331 C1330 1.369 . S
C1331 C1332 1.410 . S
C1331 C1339 1.503 1_656 S
C1332 C1331 1.410 . S
C1332 C1333 1.392 . S
C1332 C1335 1.511 1_556 S
C1333 C1329 1.376 . S
C1333 C1332 1.392 . S
C1333 H1345 0.929 . S
C1334 C1330 1.531 1_455 S
C1334 H1346 0.960 . S
C1334 H1347 0.962 . S
C1334 H1348 0.960 . S
C1335 C1332 1.511 1_554 S
C1335 H1349 0.961 . S
C1335 H1350 0.961 . S
C1335 H1351 0.961 1_554 S
C1336 C1337 1.370 . S
C1336 C1338 1.363 . S
C1336 H1352 0.931 . S
C1337 C1336 1.370 . S
C1337 C1341 1.408 . S
C1338 C1336 1.363 . S
C1338 C1339 1.370 . S
C1338 C1342 1.524 1_455 S
C1339 C1331 1.503 1_454 S
C1339 C1338 1.370 . S
C1339 C1340 1.403 . S
C1340 C1339 1.403 . S
C1340 C1341 1.404 . S
C1340 C1343 1.539 1_554 S
C1341 C1337 1.408 . S
C1341 C1340 1.404 . S
C1341 H1353 0.930 . S
C1342 C1338 1.524 1_655 S
C1342 H1354 0.956 . S
C1342 H1355 0.961 . S
C1342 H1356 0.961 . S
C1343 C1340 1.539 1_556 S
C1343 H1357 0.958 . S
C1343 H1358 0.961 . S
C1343 H1359 0.960 . S
H1344 C1328 0.931 . S
H1345 C1333 0.929 . S
H1346 C1334 0.960 . S
H1347 C1334 0.962 . S
H1348 C1334 0.960 . S
H1349 C1335 0.961 . S
H1350 C1335 0.961 . S
H1351 C1335 0.961 1_556 S
H1352 C1336 0.931 . S
H1353 C1341 0.930 . S
H1354 C1342 0.956 . S
H1355 C1342 0.961 . S
H1356 C1342 0.961 . S
H1357 C1343 0.958 . S
H1358 C1343 0.961 . S
H1359 C1343 0.960 . S
C1360 C1361 1.391 . S
C1360 C1362 1.394 . S
C1360 H1376 0.931 . S
C1361 C1360 1.391 . S
C1361 C1365 1.376 . S
C1362 C1360 1.394 . S
C1362 C1363 1.369 . S
C1362 C1366 1.531 . S
C1363 C1362 1.369 . S
C1363 C1364 1.410 . S
C1363 C1371 1.503 1_565 S
C1364 C1363 1.410 . S
C1364 C1365 1.392 . S
C1364 C1367 1.511 1_565 S
C1365 C1361 1.376 . S
C1365 C1364 1.392 . S
C1365 H1377 0.929 . S
C1366 C1362 1.531 . S
C1366 H1378 0.960 . S
C1366 H1379 0.962 . S
C1366 H1380 0.960 . S
C1367 C1364 1.511 1_545 S
C1367 H1381 0.961 . S
C1367 H1382 0.961 . S
C1367 H1383 0.961 . S
C1368 C1369 1.370 . S
C1368 C1370 1.363 . S
C1368 H1384 0.931 . S
C1369 C1368 1.370 . S
C1369 C1373 1.408 . S
C1370 C1368 1.363 . S
C1370 C1371 1.370 . S
C1370 C1374 1.524 1_545 S
C1371 C1363 1.503 1_545 S
C1371 C1370 1.370 . S
C1371 C1372 1.403 . S
C1372 C1371 1.403 . S
C1372 C1373 1.404 . S
C1372 C1375 1.539 . S
C1373 C1369 1.408 . S
C1373 C1372 1.404 . S
C1373 H1385 0.930 . S
C1374 C1370 1.524 1_565 S
C1374 H1386 0.956 . S
C1374 H1387 0.961 . S
C1374 H1388 0.961 . S
C1375 C1372 1.539 . S
C1375 H1389 0.958 . S
C1375 H1390 0.961 . S
C1375 H1391 0.960 . S
H1376 C1360 0.931 . S
H1377 C1365 0.929 . S
H1378 C1366 0.960 . S
H1379 C1366 0.962 . S
H1380 C1366 0.960 . S
H1381 C1367 0.961 . S
H1382 C1367 0.961 . S
H1383 C1367 0.961 . S
H1384 C1368 0.931 . S
H1385 C1373 0.930 . S
H1386 C1374 0.956 . S
H1387 C1374 0.961 . S
H1388 C1374 0.961 . S
H1389 C1375 0.958 . S
H1390 C1375 0.961 . S
H1391 C1375 0.960 . S
C241 C86 1.372 . S
C249 C19 1.399 . S
C273 C106 1.349 . S
C281 C39 1.397 . S
C305 C59 1.381 . S
C313 C6 1.378 . S
C337 C79 1.406 . S
C345 C26 1.394 . S
C369 C99 1.407 . S
C377 C46 1.378 . S
C401 C66 1.401 . S
C409 C119 1.408 . S
C433 C166 1.384 . S
C441 C139 1.402 . S
C465 C159 1.390 . S
C473 C186 1.385 . S
C497 C206 1.404 . S
C505 C179 1.409 . S
C529 C199 1.412 . S
C537 C226 1.396 . S
C561 C219 1.395 . S
C569 C126 1.389 . S
C593 C146 1.406 . S
C601 C239 1.410 . S
C625 C96 1.563 . S
C633 C8 1.495 . S
C657 C28 1.492 . S
C665 C116 1.576 . S
C689 C48 1.506 . S
C697 C16 1.578 . S
C721 C68 1.528 . S
C729 C36 1.582 . S
C753 C56 1.576 . S
C761 C88 1.506 . S
C785 C76 1.579 . S
C793 C108 1.509 . S
C817 C176 1.569 . S
C825 C128 1.500 . S
C849 C148 1.528 . S
C857 C196 1.582 . S
C881 C168 1.531 . S
C889 C216 1.583 . S
C913 C236 1.571 . S
C921 C188 1.502 . S
C945 C208 1.474 . S
C953 C136 1.572 . S
C977 C156 1.567 . S
C985 C228 1.498 . S
C1009 C209 1.719 . S
C1017 C9 1.703 . S
C1041 C29 1.694 . S
C1049 C229 1.686 . S
C1073 C49 1.682 . S
C1081 C129 1.687 . S
C1105 C69 1.721 . S
C1113 C149 1.698 . S
C1137 C89 1.683 . S
C1145 C169 1.687 . S
C1169 C189 1.683 . S
C1177 C109 1.687 . S
C1201 C181 1.836 . S
C1209 C1 1.826 . S
C1233 C201 1.817 . S
C1241 C21 1.837 . S
C1265 C41 1.820 . S
C1273 C221 1.838 . S
C1297 C61 1.832 . S
C1305 C121 1.826 . S
C1329 C141 1.823 . S
C1337 C81 1.838 . S
C1361 C161 1.812 . S
C1369 C101 1.833 . S
