# Generated by pormake.
# Topology uli, (4)-cn, num edge types: 1
# Building blocks:
#     Node 0, Type 0, BuildingBlock: CEKHIL_clean_sbu_0, # of connection points: 4
#     Node 1, Type 0, BuildingBlock: CEKHIL_clean_sbu_0, # of connection points: 4
#     Node 2, Type 0, BuildingBlock: CEKHIL_clean_sbu_0, # of connection points: 4
#     Node 3, Type 0, BuildingBlock: CEKHIL_clean_sbu_0, # of connection points: 4
#     Node 4, Type 0, BuildingBlock: CEKHIL_clean_sbu_0, # of connection points: 4
#     Node 5, Type 0, BuildingBlock: CEKHIL_clean_sbu_0, # of connection points: 4
#     Node 6, Type 0, BuildingBlock: CEKHIL_clean_sbu_0, # of connection points: 4
#     Node 7, Type 0, BuildingBlock: CEKHIL_clean_sbu_0, # of connection points: 4
#     Node 8, Type 0, BuildingBlock: CEKHIL_clean_sbu_0, # of connection points: 4
#     Node 9, Type 0, BuildingBlock: CEKHIL_clean_sbu_0, # of connection points: 4
#     Node 10, Type 0, BuildingBlock: CEKHIL_clean_sbu_0, # of connection points: 4
#     Node 11, Type 0, BuildingBlock: CEKHIL_clean_sbu_0, # of connection points: 4
#     Node 12, Type 0, BuildingBlock: CEKHIL_clean_sbu_0, # of connection points: 4
#     Node 13, Type 0, BuildingBlock: CEKHIL_clean_sbu_0, # of connection points: 4
#     Node 14, Type 0, BuildingBlock: CEKHIL_clean_sbu_0, # of connection points: 4
#     Node 15, Type 0, BuildingBlock: CEKHIL_clean_sbu_0, # of connection points: 4
#     Node 16, Type 0, BuildingBlock: CEKHIL_clean_sbu_0, # of connection points: 4
#     Node 17, Type 0, BuildingBlock: CEKHIL_clean_sbu_0, # of connection points: 4
#     Node 18, Type 0, BuildingBlock: CEKHIL_clean_sbu_0, # of connection points: 4
#     Node 19, Type 0, BuildingBlock: CEKHIL_clean_sbu_0, # of connection points: 4
#     Node 20, Type 0, BuildingBlock: CEKHIL_clean_sbu_0, # of connection points: 4
#     Node 21, Type 0, BuildingBlock: CEKHIL_clean_sbu_0, # of connection points: 4
#     Node 22, Type 0, BuildingBlock: CEKHIL_clean_sbu_0, # of connection points: 4
#     Node 23, Type 0, BuildingBlock: CEKHIL_clean_sbu_0, # of connection points: 4
#     Node 24, Type 0, BuildingBlock: CEKHIL_clean_sbu_0, # of connection points: 4
#     Node 25, Type 0, BuildingBlock: CEKHIL_clean_sbu_0, # of connection points: 4
#     Node 26, Type 0, BuildingBlock: CEKHIL_clean_sbu_0, # of connection points: 4
#     Node 27, Type 0, BuildingBlock: CEKHIL_clean_sbu_0, # of connection points: 4
#     Node 28, Type 0, BuildingBlock: CEKHIL_clean_sbu_0, # of connection points: 4
#     Node 29, Type 0, BuildingBlock: CEKHIL_clean_sbu_0, # of connection points: 4
#     Node 30, Type 0, BuildingBlock: CEKHIL_clean_sbu_0, # of connection points: 4
#     Node 31, Type 0, BuildingBlock: CEKHIL_clean_sbu_0, # of connection points: 4
#     Node 32, Type 0, BuildingBlock: CEKHIL_clean_sbu_0, # of connection points: 4
#     Node 33, Type 0, BuildingBlock: CEKHIL_clean_sbu_0, # of connection points: 4
#     Node 34, Type 0, BuildingBlock: CEKHIL_clean_sbu_0, # of connection points: 4
#     Node 35, Type 0, BuildingBlock: CEKHIL_clean_sbu_0, # of connection points: 4
#     Node 36, Type 0, BuildingBlock: CEKHIL_clean_sbu_0, # of connection points: 4
#     Node 37, Type 0, BuildingBlock: CEKHIL_clean_sbu_0, # of connection points: 4
#     Node 38, Type 0, BuildingBlock: CEKHIL_clean_sbu_0, # of connection points: 4
#     Node 39, Type 0, BuildingBlock: CEKHIL_clean_sbu_0, # of connection points: 4
#     Node 40, Type 0, BuildingBlock: CEKHIL_clean_sbu_0, # of connection points: 4
#     Node 41, Type 0, BuildingBlock: CEKHIL_clean_sbu_0, # of connection points: 4
#     Node 42, Type 0, BuildingBlock: CEKHIL_clean_sbu_0, # of connection points: 4
#     Node 43, Type 0, BuildingBlock: CEKHIL_clean_sbu_0, # of connection points: 4
#     Node 44, Type 0, BuildingBlock: CEKHIL_clean_sbu_0, # of connection points: 4
#     Node 45, Type 0, BuildingBlock: CEKHIL_clean_sbu_0, # of connection points: 4
#     Node 46, Type 0, BuildingBlock: CEKHIL_clean_sbu_0, # of connection points: 4
#     Node 47, Type 0, BuildingBlock: CEKHIL_clean_sbu_0, # of connection points: 4
#     Edge 48, Type (0, 0), BuildingBlock: EZIPEK_clean_linker_0, # of connection points: 2
#     Edge 49, Type (0, 0), BuildingBlock: EZIPEK_clean_linker_0, # of connection points: 2
#     Edge 50, Type (0, 0), BuildingBlock: EZIPEK_clean_linker_0, # of connection points: 2
#     Edge 51, Type (0, 0), BuildingBlock: EZIPEK_clean_linker_0, # of connection points: 2
#     Edge 52, Type (0, 0), BuildingBlock: EZIPEK_clean_linker_0, # of connection points: 2
#     Edge 53, Type (0, 0), BuildingBlock: EZIPEK_clean_linker_0, # of connection points: 2
#     Edge 54, Type (0, 0), BuildingBlock: EZIPEK_clean_linker_0, # of connection points: 2
#     Edge 55, Type (0, 0), BuildingBlock: EZIPEK_clean_linker_0, # of connection points: 2
#     Edge 56, Type (0, 0), BuildingBlock: EZIPEK_clean_linker_0, # of connection points: 2
#     Edge 57, Type (0, 0), BuildingBlock: EZIPEK_clean_linker_0, # of connection points: 2
#     Edge 58, Type (0, 0), BuildingBlock: EZIPEK_clean_linker_0, # of connection points: 2
#     Edge 59, Type (0, 0), BuildingBlock: EZIPEK_clean_linker_0, # of connection points: 2
#     Edge 60, Type (0, 0), BuildingBlock: EZIPEK_clean_linker_0, # of connection points: 2
#     Edge 61, Type (0, 0), BuildingBlock: EZIPEK_clean_linker_0, # of connection points: 2
#     Edge 62, Type (0, 0), BuildingBlock: EZIPEK_clean_linker_0, # of connection points: 2
#     Edge 63, Type (0, 0), BuildingBlock: EZIPEK_clean_linker_0, # of connection points: 2
#     Edge 64, Type (0, 0), BuildingBlock: EZIPEK_clean_linker_0, # of connection points: 2
#     Edge 65, Type (0, 0), BuildingBlock: EZIPEK_clean_linker_0, # of connection points: 2
#     Edge 66, Type (0, 0), BuildingBlock: EZIPEK_clean_linker_0, # of connection points: 2
#     Edge 67, Type (0, 0), BuildingBlock: EZIPEK_clean_linker_0, # of connection points: 2
#     Edge 68, Type (0, 0), BuildingBlock: EZIPEK_clean_linker_0, # of connection points: 2
#     Edge 69, Type (0, 0), BuildingBlock: EZIPEK_clean_linker_0, # of connection points: 2
#     Edge 70, Type (0, 0), BuildingBlock: EZIPEK_clean_linker_0, # of connection points: 2
#     Edge 71, Type (0, 0), BuildingBlock: EZIPEK_clean_linker_0, # of connection points: 2
#     Edge 72, Type (0, 0), BuildingBlock: EZIPEK_clean_linker_0, # of connection points: 2
#     Edge 73, Type (0, 0), BuildingBlock: EZIPEK_clean_linker_0, # of connection points: 2
#     Edge 74, Type (0, 0), BuildingBlock: EZIPEK_clean_linker_0, # of connection points: 2
#     Edge 75, Type (0, 0), BuildingBlock: EZIPEK_clean_linker_0, # of connection points: 2
#     Edge 76, Type (0, 0), BuildingBlock: EZIPEK_clean_linker_0, # of connection points: 2
#     Edge 77, Type (0, 0), BuildingBlock: EZIPEK_clean_linker_0, # of connection points: 2
#     Edge 78, Type (0, 0), BuildingBlock: EZIPEK_clean_linker_0, # of connection points: 2
#     Edge 79, Type (0, 0), BuildingBlock: EZIPEK_clean_linker_0, # of connection points: 2
#     Edge 80, Type (0, 0), BuildingBlock: EZIPEK_clean_linker_0, # of connection points: 2
#     Edge 81, Type (0, 0), BuildingBlock: EZIPEK_clean_linker_0, # of connection points: 2
#     Edge 82, Type (0, 0), BuildingBlock: EZIPEK_clean_linker_0, # of connection points: 2
#     Edge 83, Type (0, 0), BuildingBlock: EZIPEK_clean_linker_0, # of connection points: 2
#     Edge 84, Type (0, 0), BuildingBlock: EZIPEK_clean_linker_0, # of connection points: 2
#     Edge 85, Type (0, 0), BuildingBlock: EZIPEK_clean_linker_0, # of connection points: 2
#     Edge 86, Type (0, 0), BuildingBlock: EZIPEK_clean_linker_0, # of connection points: 2
#     Edge 87, Type (0, 0), BuildingBlock: EZIPEK_clean_linker_0, # of connection points: 2
#     Edge 88, Type (0, 0), BuildingBlock: EZIPEK_clean_linker_0, # of connection points: 2
#     Edge 89, Type (0, 0), BuildingBlock: EZIPEK_clean_linker_0, # of connection points: 2
#     Edge 90, Type (0, 0), BuildingBlock: EZIPEK_clean_linker_0, # of connection points: 2
#     Edge 91, Type (0, 0), BuildingBlock: EZIPEK_clean_linker_0, # of connection points: 2
#     Edge 92, Type (0, 0), BuildingBlock: EZIPEK_clean_linker_0, # of connection points: 2
#     Edge 93, Type (0, 0), BuildingBlock: EZIPEK_clean_linker_0, # of connection points: 2
#     Edge 94, Type (0, 0), BuildingBlock: EZIPEK_clean_linker_0, # of connection points: 2
#     Edge 95, Type (0, 0), BuildingBlock: EZIPEK_clean_linker_0, # of connection points: 2
#     Edge 96, Type (0, 0), BuildingBlock: EZIPEK_clean_linker_0, # of connection points: 2
#     Edge 97, Type (0, 0), BuildingBlock: EZIPEK_clean_linker_0, # of connection points: 2
#     Edge 98, Type (0, 0), BuildingBlock: EZIPEK_clean_linker_0, # of connection points: 2
#     Edge 99, Type (0, 0), BuildingBlock: EZIPEK_clean_linker_0, # of connection points: 2
#     Edge 100, Type (0, 0), BuildingBlock: EZIPEK_clean_linker_0, # of connection points: 2
#     Edge 101, Type (0, 0), BuildingBlock: EZIPEK_clean_linker_0, # of connection points: 2
#     Edge 102, Type (0, 0), BuildingBlock: EZIPEK_clean_linker_0, # of connection points: 2
#     Edge 103, Type (0, 0), BuildingBlock: EZIPEK_clean_linker_0, # of connection points: 2
#     Edge 104, Type (0, 0), BuildingBlock: EZIPEK_clean_linker_0, # of connection points: 2
#     Edge 105, Type (0, 0), BuildingBlock: EZIPEK_clean_linker_0, # of connection points: 2
#     Edge 106, Type (0, 0), BuildingBlock: EZIPEK_clean_linker_0, # of connection points: 2
#     Edge 107, Type (0, 0), BuildingBlock: EZIPEK_clean_linker_0, # of connection points: 2
#     Edge 108, Type (0, 0), BuildingBlock: EZIPEK_clean_linker_0, # of connection points: 2
#     Edge 109, Type (0, 0), BuildingBlock: EZIPEK_clean_linker_0, # of connection points: 2
#     Edge 110, Type (0, 0), BuildingBlock: EZIPEK_clean_linker_0, # of connection points: 2
#     Edge 111, Type (0, 0), BuildingBlock: EZIPEK_clean_linker_0, # of connection points: 2
#     Edge 112, Type (0, 0), BuildingBlock: EZIPEK_clean_linker_0, # of connection points: 2
#     Edge 113, Type (0, 0), BuildingBlock: EZIPEK_clean_linker_0, # of connection points: 2
#     Edge 114, Type (0, 0), BuildingBlock: EZIPEK_clean_linker_0, # of connection points: 2
#     Edge 115, Type (0, 0), BuildingBlock: EZIPEK_clean_linker_0, # of connection points: 2
#     Edge 116, Type (0, 0), BuildingBlock: EZIPEK_clean_linker_0, # of connection points: 2
#     Edge 117, Type (0, 0), BuildingBlock: EZIPEK_clean_linker_0, # of connection points: 2
#     Edge 118, Type (0, 0), BuildingBlock: EZIPEK_clean_linker_0, # of connection points: 2
#     Edge 119, Type (0, 0), BuildingBlock: EZIPEK_clean_linker_0, # of connection points: 2
#     Edge 120, Type (0, 0), BuildingBlock: EZIPEK_clean_linker_0, # of connection points: 2
#     Edge 121, Type (0, 0), BuildingBlock: EZIPEK_clean_linker_0, # of connection points: 2
#     Edge 122, Type (0, 0), BuildingBlock: EZIPEK_clean_linker_0, # of connection points: 2
#     Edge 123, Type (0, 0), BuildingBlock: EZIPEK_clean_linker_0, # of connection points: 2
#     Edge 124, Type (0, 0), BuildingBlock: EZIPEK_clean_linker_0, # of connection points: 2
#     Edge 125, Type (0, 0), BuildingBlock: EZIPEK_clean_linker_0, # of connection points: 2
#     Edge 126, Type (0, 0), BuildingBlock: EZIPEK_clean_linker_0, # of connection points: 2
#     Edge 127, Type (0, 0), BuildingBlock: EZIPEK_clean_linker_0, # of connection points: 2
#     Edge 128, Type (0, 0), BuildingBlock: EZIPEK_clean_linker_0, # of connection points: 2
#     Edge 129, Type (0, 0), BuildingBlock: EZIPEK_clean_linker_0, # of connection points: 2
#     Edge 130, Type (0, 0), BuildingBlock: EZIPEK_clean_linker_0, # of connection points: 2
#     Edge 131, Type (0, 0), BuildingBlock: EZIPEK_clean_linker_0, # of connection points: 2
#     Edge 132, Type (0, 0), BuildingBlock: EZIPEK_clean_linker_0, # of connection points: 2
#     Edge 133, Type (0, 0), BuildingBlock: EZIPEK_clean_linker_0, # of connection points: 2
#     Edge 134, Type (0, 0), BuildingBlock: EZIPEK_clean_linker_0, # of connection points: 2
#     Edge 135, Type (0, 0), BuildingBlock: EZIPEK_clean_linker_0, # of connection points: 2
#     Edge 136, Type (0, 0), BuildingBlock: EZIPEK_clean_linker_0, # of connection points: 2
#     Edge 137, Type (0, 0), BuildingBlock: EZIPEK_clean_linker_0, # of connection points: 2
#     Edge 138, Type (0, 0), BuildingBlock: EZIPEK_clean_linker_0, # of connection points: 2
#     Edge 139, Type (0, 0), BuildingBlock: EZIPEK_clean_linker_0, # of connection points: 2
#     Edge 140, Type (0, 0), BuildingBlock: EZIPEK_clean_linker_0, # of connection points: 2
#     Edge 141, Type (0, 0), BuildingBlock: EZIPEK_clean_linker_0, # of connection points: 2
#     Edge 142, Type (0, 0), BuildingBlock: EZIPEK_clean_linker_0, # of connection points: 2
#     Edge 143, Type (0, 0), BuildingBlock: EZIPEK_clean_linker_0, # of connection points: 2
# Relax obj value: 0.459
# Max RMSD: 0.156
# Mean RMSD: 0.156
data_MOF--net-uli--node1-CEKHIL_clean_sbu_0--edge1-EZIPEK_clean_linker_0
_symmetry_space_group_name_H-M    P1
_symmetry_Int_Tables_number       1
_symmetry_cell_setting            triclinic
loop_
_symmetry_equiv_pos_as_xyz
'x, y, z'
_cell_length_a     49.107066
_cell_length_b     49.064059
_cell_length_c     49.241454
_cell_angle_alpha  89.977246
_cell_angle_beta   90.050008
_cell_angle_gamma 90.122946
loop_
_atom_site_label
_atom_site_type_symbol
_atom_site_fract_x
_atom_site_fract_y
_atom_site_fract_z
_atom_type_partial_charge
Co0 Co 0.10431 0.28481 0.22621 0.0
O1 O 0.07815 0.28024 0.25473 0.0
O2 O 0.06799 0.28872 0.21167 0.0
C3 C 0.12665 0.24394 0.23445 0.0
O4 O 0.12783 0.28945 0.19403 0.0
Co5 Co 0.12953 0.30345 0.25401 0.0
O6 O 0.1575 0.30601 0.2232 0.0
C7 C 0.10077 0.3423 0.24902 0.0
C8 C 0.05977 0.28293 0.23611 0.0
C9 C 0.15156 0.29872 0.19901 0.0
O10 O 0.10336 0.32674 0.2284 0.0
O11 O 0.10744 0.33218 0.27148 0.0
O12 O 0.10427 0.24603 0.22171 0.0
O13 O 0.13702 0.26571 0.24509 0.0
Co14 Co 0.74539 0.10527 0.24809 0.0
O15 O 0.75166 0.08065 0.27763 0.0
O16 O 0.74579 0.06881 0.23433 0.0
C17 C 0.77867 0.13529 0.25777 0.0
O18 O 0.73897 0.12533 0.21252 0.0
Co19 Co 0.72635 0.16421 0.26196 0.0
O20 O 0.73069 0.16939 0.22231 0.0
C21 C 0.6857 0.11998 0.25661 0.0
C22 C 0.75045 0.06167 0.25935 0.0
C23 C 0.73393 0.15001 0.20536 0.0
O24 O 0.70469 0.10254 0.25263 0.0
O25 O 0.6902 0.14504 0.26229 0.0
O26 O 0.78429 0.11259 0.24562 0.0
O27 O 0.75423 0.13712 0.26746 0.0
Co28 Co 0.89174 0.7444 0.22744 0.0
O29 O 0.91645 0.74327 0.25747 0.0
O30 O 0.92833 0.74304 0.21384 0.0
C31 C 0.86555 0.77837 0.24314 0.0
O32 O 0.87133 0.74601 0.19137 0.0
Co33 Co 0.83016 0.73122 0.23845 0.0
O34 O 0.82631 0.74329 0.20032 0.0
C35 C 0.87019 0.68657 0.23114 0.0
C36 C 0.93552 0.74295 0.23931 0.0
C37 C 0.84619 0.74629 0.18393 0.0
O38 O 0.8896 0.70342 0.22633 0.0
O39 O 0.84608 0.69376 0.23775 0.0
O40 O 0.88853 0.78389 0.2314 0.0
O41 O 0.86118 0.75297 0.24822 0.0
Co42 Co 0.23986 0.8947 0.233 0.0
O43 O 0.23067 0.9213 0.25993 0.0
O44 O 0.23607 0.92946 0.21577 0.0
C45 C 0.20985 0.86242 0.24566 0.0
O46 O 0.24836 0.87233 0.19946 0.0
Co47 Co 0.26384 0.83877 0.25141 0.0
O48 O 0.2597 0.82985 0.21235 0.0
C49 C 0.29928 0.88727 0.24888 0.0
C50 C 0.2301 0.93846 0.23987 0.0
C51 C 0.25483 0.84759 0.19403 0.0
O52 O 0.28013 0.90134 0.23798 0.0
O53 O 0.29559 0.86339 0.25862 0.0
O54 O 0.2018 0.88311 0.23137 0.0
O55 O 0.23435 0.86417 0.255 0.0
Co56 Co 0.09773 0.73549 0.73245 0.0
O57 O 0.06983 0.73173 0.70536 0.0
O58 O 0.06286 0.72996 0.74981 0.0
C59 C 0.11753 0.77388 0.71525 0.0
O60 O 0.12193 0.73935 0.76557 0.0
Co61 Co 0.15836 0.73078 0.71337 0.0
O62 O 0.16528 0.74404 0.75076 0.0
C63 C 0.12706 0.68089 0.72764 0.0
C64 C 0.05274 0.7305 0.72536 0.0
C65 C 0.14743 0.74389 0.76954 0.0
O66 O 0.10551 0.69492 0.7327 0.0
O67 O 0.14884 0.69131 0.71787 0.0
O68 O 0.09577 0.77512 0.72996 0.0
O69 O 0.12425 0.74928 0.70864 0.0
Co70 Co 0.21564 0.09159 0.77298 0.0
O71 O 0.22075 0.07542 0.73777 0.0
O72 O 0.22482 0.05353 0.77705 0.0
C73 C 0.17697 0.1133 0.76145 0.0
O74 O 0.21106 0.10137 0.81312 0.0
Co75 Co 0.21343 0.15469 0.78043 0.0
O76 O 0.19761 0.145 0.81616 0.0
C77 C 0.26661 0.12652 0.77426 0.0
C78 C 0.22523 0.05284 0.75063 0.0
C79 C 0.20209 0.12179 0.82686 0.0
O80 O 0.25535 0.10275 0.77458 0.0
O81 O 0.25338 0.14897 0.77475 0.0
O82 O 0.17593 0.08791 0.76883 0.0
O83 O 0.20089 0.12387 0.75982 0.0
Co84 Co 0.89498 0.23886 0.73775 0.0
O85 O 0.91896 0.24927 0.7086 0.0
O86 O 0.91901 0.26724 0.74968 0.0
C87 C 0.89879 0.19299 0.73391 0.0
O88 O 0.87444 0.23368 0.77284 0.0
Co89 Co 0.84163 0.20681 0.72495 0.0
O90 O 0.83506 0.21135 0.76479 0.0
C91 C 0.84454 0.26405 0.7136 0.0
C92 C 0.92962 0.26662 0.72551 0.0
C93 C 0.85153 0.22382 0.78059 0.0
O94 O 0.86661 0.26661 0.72739 0.0
O95 O 0.83798 0.2413 0.70284 0.0
O96 O 0.91758 0.20699 0.7462 0.0
O97 O 0.88078 0.20748 0.72146 0.0
Co98 Co 0.75748 0.90214 0.73414 0.0
O99 O 0.74644 0.92866 0.70779 0.0
O100 O 0.73115 0.9265 0.74985 0.0
C101 C 0.8032 0.90586 0.72773 0.0
O102 O 0.76487 0.87798 0.76652 0.0
Co103 Co 0.78685 0.85021 0.71247 0.0
O104 O 0.78792 0.84091 0.75195 0.0
C105 C 0.72866 0.85439 0.70788 0.0
C106 C 0.73161 0.93941 0.72673 0.0
C107 C 0.77659 0.85495 0.7706 0.0
O108 O 0.72804 0.8753 0.72358 0.0
O109 O 0.74999 0.84846 0.6943 0.0
O110 O 0.79023 0.92339 0.74251 0.0
O111 O 0.7875 0.88938 0.7145 0.0
Co112 Co 0.22195 0.09702 0.23716 0.0
O113 O 0.23901 0.06234 0.23864 0.0
O114 O 0.19442 0.06949 0.24282 0.0
C115 C 0.24404 0.11254 0.19979 0.0
O116 O 0.19805 0.13044 0.23611 0.0
Co117 Co 0.25912 0.14746 0.24669 0.0
O118 O 0.22567 0.16733 0.23586 0.0
C119 C 0.23831 0.11698 0.29394 0.0
C120 C 0.21477 0.05253 0.24221 0.0
C121 C 0.20222 0.15623 0.23449 0.0
O122 O 0.22539 0.10126 0.27762 0.0
O123 O 0.25458 0.13568 0.28565 0.0
O124 O 0.2229 0.09681 0.19763 0.0
O125 O 0.2527 0.11553 0.22448 0.0
Co126 Co 0.90287 0.25938 0.25431 0.0
O127 O 0.93453 0.28167 0.25347 0.0
O128 O 0.93434 0.237 0.26153 0.0
C129 C 0.88483 0.27535 0.21492 0.0
O130 O 0.87298 0.23077 0.25587 0.0
Co131 Co 0.84797 0.2901 0.26024 0.0
O132 O 0.83259 0.25287 0.25598 0.0
C133 C 0.88134 0.27953 0.30889 0.0
C134 C 0.94803 0.2595 0.25784 0.0
C135 C 0.84676 0.23112 0.25611 0.0
O136 O 0.89799 0.26576 0.29431 0.0
O137 O 0.86205 0.2936 0.29846 0.0
O138 O 0.90324 0.2565 0.21492 0.0
O139 O 0.88039 0.28578 0.23865 0.0
Co140 Co 0.74884 0.90335 0.26215 0.0
O141 O 0.73185 0.93799 0.26579 0.0
O142 O 0.77593 0.92967 0.27254 0.0
C143 C 0.72993 0.89233 0.22145 0.0
O144 O 0.77318 0.87047 0.25917 0.0
Co145 Co 0.71272 0.85148 0.26222 0.0
O146 O 0.74745 0.83268 0.25373 0.0
C147 C 0.72806 0.87702 0.31447 0.0
C148 C 0.75607 0.94711 0.27116 0.0
C149 C 0.77039 0.84477 0.25526 0.0
O150 O 0.74243 0.89457 0.30152 0.0
O151 O 0.71285 0.85968 0.30227 0.0
O152 O 0.75106 0.90812 0.22306 0.0
O153 O 0.71926 0.88628 0.24479 0.0
Co154 Co 0.09417 0.73503 0.2584 0.0
O155 O 0.05996 0.71646 0.25859 0.0
O156 O 0.06608 0.76046 0.26788 0.0
C157 C 0.1085 0.71847 0.21785 0.0
O158 O 0.12593 0.76126 0.25862 0.0
Co159 Co 0.14809 0.70233 0.25953 0.0
O160 O 0.16487 0.73825 0.25106 0.0
C161 C 0.11835 0.7123 0.31085 0.0
C162 C 0.0495 0.74019 0.26369 0.0
C163 C 0.15163 0.76035 0.25403 0.0
O164 O 0.10077 0.72666 0.29789 0.0
O165 O 0.13735 0.69917 0.29882 0.0
O166 O 0.09189 0.7389 0.21922 0.0
O167 O 0.11364 0.70713 0.24107 0.0
Co168 Co 0.23875 0.90022 0.72535 0.0
O169 O 0.25936 0.93339 0.72299 0.0
O170 O 0.21648 0.92907 0.71064 0.0
C171 C 0.25195 0.89061 0.76853 0.0
O172 O 0.21071 0.86953 0.72545 0.0
Co173 Co 0.26801 0.8448 0.73461 0.0
O174 O 0.23057 0.82956 0.73624 0.0
C175 C 0.26506 0.86867 0.67919 0.0
C176 C 0.23755 0.94493 0.71365 0.0
C177 C 0.20972 0.84372 0.73014 0.0
O178 O 0.25046 0.8886 0.68784 0.0
O179 O 0.27568 0.85084 0.695 0.0
O180 O 0.23191 0.90709 0.76379 0.0
O181 O 0.26416 0.88186 0.74701 0.0
Co182 Co 0.08203 0.25746 0.74369 0.0
O183 O 0.05868 0.28874 0.7407 0.0
O184 O 0.04858 0.24708 0.72626 0.0
C185 C 0.09363 0.26308 0.78796 0.0
O186 O 0.10022 0.22032 0.74407 0.0
Co187 Co 0.1437 0.2646 0.75702 0.0
O188 O 0.14194 0.2246 0.76272 0.0
C189 C 0.12396 0.27281 0.70072 0.0
C190 C 0.04097 0.27215 0.73017 0.0
C191 C 0.12231 0.21019 0.75369 0.0
O192 O 0.09954 0.26603 0.70745 0.0
O193 O 0.14355 0.27528 0.71773 0.0
O194 O 0.07074 0.25164 0.78135 0.0
O195 O 0.107 0.27331 0.76779 0.0
Co196 Co 0.77199 0.08839 0.74656 0.0
O197 O 0.7373 0.07042 0.74327 0.0
O198 O 0.77686 0.0528 0.73056 0.0
C199 C 0.76469 0.10187 0.78952 0.0
O200 O 0.81181 0.10096 0.74743 0.0
Co201 Co 0.77535 0.15064 0.75953 0.0
O202 O 0.81426 0.1426 0.76638 0.0
C203 C 0.76347 0.13131 0.70348 0.0
C204 C 0.75072 0.04978 0.73392 0.0
C205 C 0.82556 0.12133 0.75676 0.0
O206 O 0.76723 0.10614 0.70986 0.0
O207 O 0.76398 0.15104 0.72049 0.0
O208 O 0.77396 0.07755 0.78497 0.0
O209 O 0.75897 0.11624 0.76845 0.0
Co210 Co 0.90621 0.77895 0.7473 0.0
O211 O 0.92392 0.74431 0.74256 0.0
O212 O 0.9367 0.78265 0.72306 0.0
C213 C 0.90314 0.77515 0.79271 0.0
O214 O 0.89394 0.81859 0.74736 0.0
Co215 Co 0.84872 0.78432 0.77279 0.0
O216 O 0.85591 0.82403 0.77192 0.0
C217 C 0.85465 0.7692 0.71474 0.0
C218 C 0.941 0.75674 0.72674 0.0
C219 C 0.87522 0.83369 0.75757 0.0
O220 O 0.88075 0.77153 0.71596 0.0
O221 O 0.83882 0.77203 0.73519 0.0
O222 O 0.92557 0.78396 0.78185 0.0
O223 O 0.88417 0.76779 0.77615 0.0
Co224 Co 0.26329 0.25049 0.09229 0.0
O225 O 0.2654 0.27874 0.06518 0.0
O226 O 0.26499 0.23439 0.05653 0.0
C227 C 0.22848 0.2701 0.11575 0.0
O228 O 0.26081 0.21534 0.11461 0.0
Co229 Co 0.274 0.26419 0.15259 0.0
O230 O 0.26604 0.2251 0.15896 0.0
C231 C 0.32054 0.25583 0.11589 0.0
C232 C 0.26487 0.25927 0.0474 0.0
C233 C 0.26214 0.20813 0.13975 0.0
O234 O 0.30446 0.24896 0.09631 0.0
O235 O 0.31203 0.26556 0.13843 0.0
O236 O 0.2235 0.25533 0.09448 0.0
O237 O 0.25388 0.27416 0.12084 0.0
Co238 Co 0.24657 0.76822 0.8911 0.0
O239 O 0.24197 0.73965 0.91698 0.0
O240 O 0.24957 0.78324 0.92713 0.0
C241 C 0.21055 0.75718 0.86518 0.0
O242 O 0.25189 0.80275 0.86864 0.0
Co243 Co 0.25904 0.75072 0.83138 0.0
O244 O 0.25248 0.78999 0.8246 0.0
C245 C 0.30369 0.75388 0.87166 0.0
C246 C 0.24481 0.75839 0.93524 0.0
C247 C 0.2526 0.80823 0.84306 0.0
O248 O 0.28714 0.76219 0.89003 0.0
O249 O 0.29616 0.74635 0.8479 0.0
O250 O 0.20708 0.77124 0.88717 0.0
O251 O 0.23469 0.74738 0.86173 0.0
Co252 Co 0.22223 0.23486 0.90003 0.0
O253 O 0.25401 0.23895 0.92238 0.0
O254 O 0.2165 0.26301 0.92686 0.0
C255 C 0.2202 0.18882 0.9018 0.0
O256 O 0.18569 0.23604 0.8806 0.0
Co257 Co 0.22859 0.20348 0.84508 0.0
O258 O 0.18953 0.21362 0.84067 0.0
C259 C 0.24751 0.25916 0.84963 0.0
C260 C 0.24101 0.25775 0.93551 0.0
C261 C 0.17619 0.22821 0.85748 0.0
O262 O 0.2355 0.26244 0.87259 0.0
O263 O 0.254 0.23551 0.84087 0.0
O264 O 0.21029 0.20319 0.92157 0.0
O265 O 0.23338 0.2025 0.88378 0.0
Co266 Co 0.75232 0.23676 0.89433 0.0
O267 O 0.7512 0.26703 0.91883 0.0
O268 O 0.74289 0.22377 0.92958 0.0
C269 C 0.79263 0.24725 0.87507 0.0
O270 O 0.75237 0.20031 0.87499 0.0
Co271 Co 0.75284 0.24643 0.83181 0.0
O272 O 0.76189 0.20705 0.83075 0.0
C273 C 0.70144 0.25146 0.86286 0.0
C274 C 0.74582 0.24896 0.93732 0.0
C275 C 0.75823 0.19152 0.85117 0.0
O276 O 0.7128 0.24257 0.88465 0.0
O277 O 0.71434 0.25639 0.8408 0.0
O278 O 0.7918 0.23436 0.89804 0.0
O279 O 0.76932 0.25552 0.86617 0.0
Co280 Co 0.77996 0.75559 0.89688 0.0
O281 O 0.74488 0.75789 0.91397 0.0
O282 O 0.7844 0.75495 0.93576 0.0
C283 C 0.77298 0.78995 0.86717 0.0
O284 O 0.82012 0.75451 0.88598 0.0
Co285 Co 0.78338 0.74168 0.83487 0.0
O286 O 0.82184 0.75249 0.84022 0.0
C287 C 0.77308 0.69797 0.87497 0.0
C288 C 0.7581 0.75789 0.93676 0.0
C289 C 0.83326 0.7549 0.86337 0.0
O290 O 0.77738 0.71426 0.89509 0.0
O291 O 0.77228 0.7056 0.85013 0.0
O292 O 0.78 0.79523 0.89199 0.0
O293 O 0.76762 0.76472 0.86217 0.0
Co294 Co 0.73223 0.7787 0.08797 0.0
O295 O 0.73155 0.75661 0.05603 0.0
O296 O 0.71896 0.79981 0.05766 0.0
C297 C 0.77452 0.76659 0.10127 0.0
O298 O 0.73063 0.80756 0.11775 0.0
Co299 Co 0.73733 0.74979 0.14429 0.0
O300 O 0.73993 0.78769 0.15809 0.0
C301 C 0.68369 0.75353 0.11693 0.0
C302 C 0.72281 0.77795 0.04322 0.0
C303 C 0.73439 0.80855 0.14366 0.0
O304 O 0.69401 0.76764 0.09756 0.0
O305 O 0.69793 0.74269 0.13588 0.0
O306 O 0.77124 0.78522 0.0829 0.0
O307 O 0.75254 0.75413 0.10856 0.0
Co308 Co 0.22944 0.73195 0.09225 0.0
O309 O 0.25232 0.73597 0.06125 0.0
O310 O 0.20882 0.72311 0.06014 0.0
C311 C 0.24086 0.77232 0.11102 0.0
O312 O 0.19983 0.72644 0.1207 0.0
Co313 Co 0.2564 0.72942 0.1495 0.0
O314 O 0.21824 0.7321 0.16233 0.0
C315 C 0.25379 0.67985 0.11506 0.0
C316 C 0.23087 0.72996 0.04713 0.0
C317 C 0.1979 0.72794 0.14675 0.0
O318 O 0.24041 0.69282 0.09681 0.0
O319 O 0.26364 0.6913 0.13632 0.0
O320 O 0.22292 0.77097 0.09185 0.0
O321 O 0.25331 0.74967 0.11611 0.0
Co322 Co 0.7561 0.25879 0.09764 0.0
O323 O 0.73034 0.25681 0.06876 0.0
O324 O 0.77421 0.26706 0.06414 0.0
C325 C 0.7448 0.2189 0.11726 0.0
O326 O 0.78818 0.26279 0.12353 0.0
Co327 Co 0.7333 0.26242 0.15655 0.0
O328 O 0.77243 0.26167 0.1666 0.0
C329 C 0.73359 0.31116 0.12123 0.0
C330 C 0.75065 0.26233 0.05289 0.0
C331 C 0.79179 0.26342 0.14943 0.0
O332 O 0.74725 0.29822 0.10325 0.0
O333 O 0.72381 0.29973 0.14252 0.0
O334 O 0.76095 0.21938 0.09652 0.0
O335 O 0.73362 0.24199 0.12317 0.0
Co336 Co 0.60616 0.72862 0.73842 0.0
O337 O 0.58772 0.74401 0.76935 0.0
O338 O 0.57376 0.74716 0.72694 0.0
C339 C 0.61343 0.68714 0.75697 0.0
O340 O 0.61829 0.71518 0.70153 0.0
Co341 Co 0.66606 0.70783 0.74247 0.0
O342 O 0.66085 0.69838 0.70349 0.0
C343 C 0.6551 0.76652 0.73764 0.0
C344 C 0.56905 0.75201 0.75249 0.0
C345 C 0.63957 0.70516 0.69027 0.0
O346 O 0.62961 0.76246 0.73249 0.0
O347 O 0.6704 0.74813 0.74805 0.0
O348 O 0.5899 0.69271 0.74633 0.0
O349 O 0.63033 0.70713 0.75817 0.0
Co350 Co 0.2517 0.58917 0.76439 0.0
O351 O 0.2523 0.56238 0.79297 0.0
O352 O 0.24376 0.55367 0.74954 0.0
C353 C 0.29132 0.61073 0.7746 0.0
O354 O 0.24959 0.6116 0.7297 0.0
Co355 Co 0.24813 0.65094 0.77947 0.0
O356 O 0.25746 0.65555 0.74051 0.0
C357 C 0.19754 0.61816 0.77287 0.0
C358 C 0.24736 0.54458 0.7741 0.0
C359 C 0.25325 0.63674 0.72313 0.0
O360 O 0.21146 0.59626 0.7694 0.0
O361 O 0.20836 0.64117 0.77883 0.0
O362 O 0.29142 0.58771 0.7618 0.0
O363 O 0.26787 0.61751 0.78445 0.0
Co364 Co 0.39737 0.22926 0.74762 0.0
O365 O 0.42302 0.22495 0.77666 0.0
O366 O 0.42778 0.20791 0.73548 0.0
C367 C 0.39156 0.27465 0.75289 0.0
O368 O 0.37592 0.23066 0.71226 0.0
Co369 Co 0.33853 0.24962 0.75953 0.0
O370 O 0.33749 0.25461 0.71957 0.0
C371 C 0.35247 0.19141 0.76755 0.0
C372 C 0.43803 0.21159 0.7596 0.0
C373 C 0.35436 0.24287 0.70383 0.0
O374 O 0.37691 0.19532 0.75897 0.0
O375 O 0.3351 0.21055 0.77088 0.0
O376 O 0.41226 0.26534 0.7395 0.0
O377 O 0.37688 0.25629 0.76472 0.0
Co378 Co 0.72938 0.39575 0.73847 0.0
O379 O 0.74326 0.41159 0.77149 0.0
O380 O 0.7556 0.42362 0.73014 0.0
C381 C 0.68467 0.3968 0.74957 0.0
O382 O 0.71971 0.38493 0.70009 0.0
Co383 Co 0.69829 0.34013 0.74099 0.0
O384 O 0.69942 0.34371 0.70074 0.0
C385 C 0.75812 0.34073 0.74101 0.0
C386 C 0.75775 0.42755 0.75619 0.0
C387 C 0.71073 0.36347 0.6882 0.0
O388 O 0.75871 0.3667 0.73706 0.0
O389 O 0.73659 0.32815 0.74879 0.0
O390 O 0.69656 0.41865 0.7406 0.0
O391 O 0.70066 0.37668 0.7546 0.0
Co392 Co 0.59249 0.22626 0.25465 0.0
O393 O 0.55901 0.22883 0.23531 0.0
O394 O 0.56312 0.21583 0.27847 0.0
C395 C 0.60989 0.26704 0.24328 0.0
O396 O 0.62477 0.22217 0.28039 0.0
Co397 Co 0.64499 0.22408 0.21915 0.0
O398 O 0.66326 0.22253 0.25505 0.0
C399 C 0.61223 0.17446 0.22626 0.0
C400 C 0.54753 0.22168 0.25788 0.0
C401 C 0.65091 0.22109 0.27778 0.0
O402 O 0.5973 0.18713 0.24347 0.0
O403 O 0.63011 0.18668 0.21177 0.0
O404 O 0.59131 0.26523 0.26178 0.0
O405 O 0.61333 0.24512 0.22901 0.0
Co406 Co 0.75374 0.59794 0.24179 0.0
O407 O 0.7495 0.56481 0.22201 0.0
O408 O 0.76372 0.56827 0.26494 0.0
C409 C 0.71293 0.61534 0.22967 0.0
O410 O 0.75943 0.62813 0.26907 0.0
Co411 Co 0.75575 0.65345 0.21214 0.0
O412 O 0.75672 0.66939 0.24928 0.0
C413 C 0.80464 0.61834 0.21311 0.0
C414 C 0.75676 0.55305 0.24448 0.0
C415 C 0.75952 0.65423 0.2701 0.0
O416 O 0.79243 0.60182 0.22925 0.0
O417 O 0.79265 0.63875 0.20211 0.0
O418 O 0.71511 0.59826 0.24964 0.0
O419 O 0.73536 0.61985 0.21655 0.0
Co420 Co 0.39276 0.7747 0.24762 0.0
O421 O 0.4227 0.77113 0.22297 0.0
O422 O 0.42596 0.78235 0.26652 0.0
C423 C 0.37215 0.73487 0.23742 0.0
O424 O 0.36669 0.78019 0.27912 0.0
Co425 Co 0.33324 0.77799 0.22647 0.0
O426 O 0.32451 0.7698 0.26505 0.0
C427 C 0.36819 0.82765 0.22733 0.0
C428 C 0.43805 0.77605 0.24389 0.0
C429 C 0.34141 0.77558 0.28388 0.0
O430 O 0.38799 0.81422 0.23783 0.0
O431 O 0.34572 0.81653 0.21994 0.0
O432 O 0.39289 0.73546 0.25364 0.0
O433 O 0.3667 0.75764 0.22529 0.0
Co434 Co 0.231 0.39285 0.25691 0.0
O435 O 0.24446 0.41913 0.2316 0.0
O436 O 0.23619 0.42724 0.27524 0.0
C437 C 0.26042 0.35953 0.24478 0.0
O438 O 0.21833 0.37 0.28907 0.0
Co439 Co 0.20275 0.34275 0.23473 0.0
O440 O 0.20096 0.33073 0.27323 0.0
C441 C 0.17384 0.39368 0.23254 0.0
C442 C 0.24442 0.43613 0.25169 0.0
C443 C 0.20855 0.34593 0.29273 0.0
O444 O 0.19218 0.40352 0.24832 0.0
O445 O 0.17642 0.37043 0.2212 0.0
O446 O 0.26717 0.37823 0.26213 0.0
O447 O 0.23689 0.36294 0.23321 0.0
Co448 Co 0.74645 0.58074 0.77049 0.0
O449 O 0.77801 0.55756 0.77117 0.0
O450 O 0.73625 0.54476 0.7826 0.0
C451 C 0.75423 0.59752 0.72809 0.0
O452 O 0.70893 0.59855 0.77112 0.0
Co453 Co 0.75311 0.64378 0.76443 0.0
O454 O 0.71332 0.64234 0.75784 0.0
C455 C 0.76254 0.61701 0.81776 0.0
C456 C 0.76141 0.53806 0.77773 0.0
C457 C 0.69884 0.6217 0.7641 0.0
O458 O 0.75402 0.59378 0.80888 0.0
O459 O 0.76566 0.6381 0.80273 0.0
O460 O 0.74228 0.57423 0.73151 0.0
O461 O 0.76282 0.60863 0.75026 0.0
Co462 Co 0.40973 0.74253 0.76323 0.0
O463 O 0.43791 0.76937 0.75952 0.0
O464 O 0.4443 0.72733 0.77471 0.0
C465 C 0.39124 0.7486 0.72154 0.0
O466 O 0.38462 0.70974 0.76885 0.0
Co467 Co 0.34945 0.76305 0.76104 0.0
O468 O 0.34146 0.7234 0.76036 0.0
C469 C 0.3809 0.76694 0.81221 0.0
C470 C 0.45468 0.75075 0.76762 0.0
C471 C 0.35891 0.70501 0.76594 0.0
O472 O 0.40139 0.75487 0.80137 0.0
O473 O 0.35971 0.77417 0.79884 0.0
O474 O 0.41249 0.73338 0.72476 0.0
O475 O 0.38411 0.76197 0.74297 0.0
Co476 Co 0.2707 0.39551 0.74192 0.0
O477 O 0.24149 0.41971 0.75127 0.0
O478 O 0.28235 0.42053 0.76978 0.0
C479 C 0.26652 0.39908 0.69631 0.0
O480 O 0.30571 0.37421 0.73742 0.0
Co481 Co 0.25716 0.34224 0.70967 0.0
O482 O 0.29684 0.33524 0.71465 0.0
C483 C 0.246 0.34513 0.76739 0.0
C484 C 0.25809 0.4311 0.76838 0.0
C485 C 0.31281 0.35086 0.72796 0.0
O486 O 0.25947 0.36751 0.76994 0.0
O487 O 0.23631 0.3374 0.74452 0.0
O488 O 0.27959 0.41772 0.70977 0.0
O489 O 0.25416 0.38125 0.71098 0.0
Co490 Co 0.58315 0.26865 0.74894 0.0
O491 O 0.56775 0.23284 0.75176 0.0
O492 O 0.54646 0.27113 0.76281 0.0
C493 C 0.59943 0.26223 0.70669 0.0
O494 O 0.59316 0.30922 0.74799 0.0
Co495 Co 0.64578 0.27498 0.74035 0.0
O496 O 0.6356 0.31288 0.73104 0.0
C497 C 0.62346 0.26248 0.795 0.0
C498 C 0.54569 0.24475 0.75975 0.0
C499 C 0.61329 0.32347 0.73891 0.0
O500 O 0.59876 0.26537 0.78676 0.0
O501 O 0.64429 0.26362 0.77942 0.0
O502 O 0.57428 0.26952 0.71003 0.0
O503 O 0.61291 0.25731 0.72858 0.0
Co504 Co 0.7338 0.39316 0.24766 0.0
O505 O 0.76009 0.42157 0.25053 0.0
O506 O 0.71544 0.42743 0.2443 0.0
C507 C 0.74817 0.36849 0.28344 0.0
O508 O 0.70131 0.36771 0.24403 0.0
Co509 Co 0.75613 0.33493 0.23461 0.0
O510 O 0.71743 0.32478 0.23992 0.0
C511 C 0.74938 0.37538 0.19065 0.0
C512 C 0.73965 0.4379 0.24729 0.0
C513 C 0.69791 0.34178 0.2418 0.0
O514 O 0.73842 0.39216 0.20722 0.0
O515 O 0.75966 0.3526 0.19803 0.0
O516 O 0.73286 0.38962 0.28712 0.0
O517 O 0.75714 0.36561 0.25894 0.0
Co518 Co 0.59797 0.74475 0.25029 0.0
O519 O 0.57088 0.77228 0.25449 0.0
O520 O 0.56277 0.72927 0.24298 0.0
C521 C 0.62126 0.75247 0.28895 0.0
O522 O 0.62156 0.7114 0.24372 0.0
Co523 Co 0.65855 0.764 0.24444 0.0
O524 O 0.66566 0.72434 0.24669 0.0
C525 C 0.62194 0.76311 0.19647 0.0
C526 C 0.55337 0.75356 0.24803 0.0
C527 C 0.64726 0.70622 0.24357 0.0
O528 O 0.60205 0.75425 0.21081 0.0
O529 O 0.64517 0.76963 0.20636 0.0
O530 O 0.59899 0.7383 0.28944 0.0
O531 O 0.62611 0.76472 0.26623 0.0
Co532 Co 0.26534 0.59448 0.23786 0.0
O533 O 0.24498 0.56177 0.24217 0.0
O534 O 0.28926 0.56365 0.23266 0.0
C535 C 0.24943 0.61572 0.27548 0.0
O536 O 0.29213 0.62558 0.23284 0.0
Co537 Co 0.23148 0.64743 0.22802 0.0
O538 O 0.26779 0.66471 0.23239 0.0
C539 C 0.24151 0.6095 0.18273 0.0
C540 C 0.26761 0.5491 0.23767 0.0
C541 C 0.29028 0.65175 0.2323 0.0
O542 O 0.25731 0.59525 0.1978 0.0
O543 O 0.22709 0.62913 0.19188 0.0
O544 O 0.2691 0.59821 0.27705 0.0
O545 O 0.23819 0.61701 0.25178 0.0
Co546 Co 0.38733 0.23967 0.24523 0.0
O547 O 0.41611 0.21545 0.25478 0.0
O548 O 0.42157 0.25871 0.24213 0.0
C549 C 0.35931 0.23133 0.28056 0.0
O550 O 0.36083 0.2696 0.23411 0.0
Co551 Co 0.33261 0.21157 0.23013 0.0
O552 O 0.32009 0.24919 0.23753 0.0
C553 C 0.37437 0.21907 0.18771 0.0
C554 C 0.43229 0.23573 0.24994 0.0
C555 C 0.33464 0.27048 0.23394 0.0
O556 O 0.39031 0.22945 0.20559 0.0
O557 O 0.35094 0.20938 0.19372 0.0
O558 O 0.38023 0.2471 0.28357 0.0
O559 O 0.3593 0.21724 0.25827 0.0
Co560 Co 0.74305 0.71362 0.59625 0.0
O561 O 0.74401 0.73658 0.5649 0.0
O562 O 0.76729 0.69809 0.56957 0.0
C563 C 0.69727 0.71421 0.60036 0.0
O564 O 0.74617 0.68441 0.62559 0.0
Co565 Co 0.71896 0.73525 0.65044 0.0
O566 O 0.72174 0.6968 0.66231 0.0
C567 C 0.77667 0.74652 0.63631 0.0
C568 C 0.76019 0.71865 0.55441 0.0
C569 C 0.73614 0.67968 0.6493 0.0
O570 O 0.77426 0.73405 0.61347 0.0
O571 O 0.75684 0.75028 0.65273 0.0
O572 O 0.70878 0.69725 0.58375 0.0
O573 O 0.71349 0.7313 0.61198 0.0
Co574 Co 0.75948 0.23126 0.39351 0.0
O575 O 0.76006 0.20423 0.42182 0.0
O576 O 0.76325 0.24907 0.42753 0.0
C577 C 0.72286 0.21649 0.37026 0.0
O578 O 0.75976 0.26522 0.36989 0.0
Co579 Co 0.76942 0.2147 0.33339 0.0
O580 O 0.75924 0.25303 0.32592 0.0
C581 C 0.81579 0.23017 0.36908 0.0
C582 C 0.7618 0.2249 0.43823 0.0
C583 C 0.75905 0.27112 0.3445 0.0
O584 O 0.80024 0.23014 0.38996 0.0
O585 O 0.80762 0.22365 0.34527 0.0
O586 O 0.71994 0.22996 0.39262 0.0
O587 O 0.74743 0.20824 0.36523 0.0
Co588 Co 0.75944 0.74541 0.39603 0.0
O589 O 0.78542 0.74221 0.42514 0.0
O590 O 0.74076 0.7472 0.43029 0.0
C591 C 0.77474 0.70974 0.37106 0.0
O592 O 0.72659 0.74798 0.3712 0.0
Co593 Co 0.77866 0.75768 0.33678 0.0
O594 O 0.7406 0.74757 0.3276 0.0
C595 C 0.76677 0.80307 0.37505 0.0
C596 C 0.76452 0.74308 0.44123 0.0
C597 C 0.72191 0.74701 0.34554 0.0
O598 O 0.76255 0.7864 0.39478 0.0
O599 O 0.77468 0.7956 0.35144 0.0
O600 O 0.75917 0.70613 0.39192 0.0
O601 O 0.78317 0.73456 0.36808 0.0
Co602 Co 0.2456 0.73873 0.39617 0.0
O603 O 0.24546 0.75681 0.43052 0.0
O604 O 0.24674 0.7119 0.42461 0.0
C605 C 0.27882 0.76519 0.37805 0.0
O606 O 0.24655 0.71314 0.36396 0.0
Co607 Co 0.23115 0.77001 0.34333 0.0
O608 O 0.24408 0.73656 0.32472 0.0
C609 C 0.18714 0.74706 0.37822 0.0
C610 C 0.24763 0.73266 0.44103 0.0
C611 C 0.24662 0.71435 0.33791 0.0
O612 O 0.20467 0.73736 0.39498 0.0
O613 O 0.19368 0.76205 0.35794 0.0
O614 O 0.28455 0.74443 0.39324 0.0
O615 O 0.25307 0.77022 0.37581 0.0
Co616 Co 0.22796 0.23429 0.39687 0.0
O617 O 0.2061 0.23163 0.42912 0.0
O618 O 0.25016 0.22376 0.42748 0.0
C619 C 0.21147 0.27525 0.38275 0.0
O620 O 0.25724 0.23573 0.3676 0.0
Co621 Co 0.19993 0.23528 0.34013 0.0
O622 O 0.23765 0.23933 0.32626 0.0
C623 C 0.20884 0.18261 0.36824 0.0
C624 C 0.22807 0.22482 0.44204 0.0
C625 C 0.25855 0.23759 0.34153 0.0
O626 O 0.22138 0.19477 0.38768 0.0
O627 O 0.19688 0.19548 0.34903 0.0
O628 O 0.23031 0.27372 0.40114 0.0
O629 O 0.20151 0.25192 0.37559 0.0
Co630 Co 0.25292 0.27272 0.59279 0.0
O631 O 0.24528 0.23912 0.57404 0.0
O632 O 0.24278 0.28038 0.55566 0.0
C633 C 0.29173 0.25752 0.61215 0.0
O634 O 0.26021 0.31184 0.60523 0.0
Co635 Co 0.25774 0.27521 0.65591 0.0
O636 O 0.27432 0.31134 0.64866 0.0
C637 C 0.20333 0.27333 0.62946 0.0
C638 C 0.241 0.25409 0.55277 0.0
C639 C 0.27011 0.32377 0.62634 0.0
O640 O 0.21371 0.27545 0.60548 0.0
O641 O 0.21743 0.27109 0.65122 0.0
O642 O 0.29217 0.26676 0.58744 0.0
O643 O 0.26811 0.2563 0.62336 0.0
Co644 Co 0.72872 0.25364 0.59187 0.0
O645 O 0.75875 0.25085 0.56756 0.0
O646 O 0.71695 0.23556 0.55931 0.0
C647 C 0.73433 0.2981 0.6023 0.0
O648 O 0.69305 0.25339 0.61278 0.0
Co649 Co 0.74104 0.26712 0.65239 0.0
O650 O 0.70104 0.27207 0.6539 0.0
C651 C 0.74859 0.21099 0.63197 0.0
C652 C 0.74184 0.23933 0.55093 0.0
C653 C 0.68499 0.26268 0.63582 0.0
O654 O 0.73909 0.21772 0.60865 0.0
O655 O 0.75283 0.22798 0.65126 0.0
O656 O 0.72152 0.29105 0.58038 0.0
O657 O 0.74579 0.27825 0.61521 0.0
Co658 Co 0.26603 0.72905 0.60154 0.0
O659 O 0.24299 0.7263 0.57048 0.0
O660 O 0.28795 0.73184 0.56929 0.0
C661 C 0.24798 0.69279 0.62364 0.0
O662 O 0.29584 0.73237 0.62996 0.0
Co663 Co 0.23951 0.74068 0.65783 0.0
O664 O 0.2769 0.73458 0.67167 0.0
C665 C 0.25182 0.78637 0.62004 0.0
C666 C 0.26504 0.72878 0.55627 0.0
C667 C 0.29751 0.73366 0.65601 0.0
O668 O 0.26156 0.76986 0.60235 0.0
O669 O 0.24083 0.77854 0.64229 0.0
O670 O 0.26658 0.68958 0.60527 0.0
O671 O 0.23944 0.71758 0.62618 0.0
C672 C 0.99206 0.27884 0.27258 0.0
C673 C 0.9778 0.26041 0.25563 0.0
C674 C 0.0185 0.25412 0.2279 0.0
C675 C 0.03128 0.27583 0.24219 0.0
N676 N 0.02933 0.31097 0.27644 0.0
N677 N 0.9761 0.23266 0.2151 0.0
C678 C 0.01792 0.28864 0.26427 0.0
C679 C 0.99069 0.24837 0.23288 0.0
N680 N 0.98079 0.28678 0.29667 0.0
N681 N 0.03309 0.23823 0.21037 0.0
H682 H 0.95579 0.2273 0.21811 0.0
H683 H 0.98365 0.2265 0.19632 0.0
H684 H 0.05362 0.24134 0.20616 0.0
H685 H 0.02546 0.22029 0.20195 0.0
H686 H 0.99116 0.29826 0.31116 0.0
H687 H 0.96192 0.27952 0.30328 0.0
H688 H 0.0193 0.32276 0.29086 0.0
H689 H 0.04789 0.31929 0.27032 0.0
C690 C 0.77704 0.99017 0.25375 0.0
C691 C 0.76049 0.97663 0.27316 0.0
C692 C 0.73901 0.01958 0.28582 0.0
C693 C 0.75557 0.03308 0.26643 0.0
N694 N 0.79613 0.03311 0.23883 0.0
N695 N 0.73213 0.97887 0.31291 0.0
C696 C 0.77653 0.01896 0.25265 0.0
C697 C 0.74367 0.99159 0.29105 0.0
N698 N 0.79168 0.97573 0.23506 0.0
N699 N 0.71779 0.03289 0.2979 0.0
H700 H 0.73562 0.95834 0.31727 0.0
H701 H 0.72155 0.9892 0.32805 0.0
H702 H 0.71323 0.05329 0.2942 0.0
H703 H 0.70332 0.02311 0.30991 0.0
H704 H 0.80121 0.98479 0.21844 0.0
H705 H 0.79274 0.95456 0.23475 0.0
H706 H 0.81338 0.02392 0.23064 0.0
H707 H 0.79664 0.05436 0.23805 0.0
C708 C 0.00978 0.7628 0.24116 0.0
C709 C 0.01997 0.74419 0.26081 0.0
C710 C 0.97472 0.72405 0.26581 0.0
C711 C 0.96432 0.74378 0.24747 0.0
N712 N 0.97033 0.78674 0.22424 0.0
N713 N 0.01122 0.71187 0.29661 0.0
C714 C 0.98133 0.76469 0.23718 0.0
C715 C 0.00208 0.72635 0.27472 0.0
N716 N 0.02708 0.77737 0.22491 0.0
N717 N 0.95903 0.70235 0.27357 0.0
H718 H 0.03112 0.7136 0.3039 0.0
H719 H -0.00155 0.70044 0.3091 0.0
H720 H 0.93914 0.69934 0.26676 0.0
H721 H 0.9666 0.68596 0.28469 0.0
H722 H 0.0204 0.78871 0.20829 0.0
H723 H 0.0482 0.77624 0.22612 0.0
H724 H 0.98174 0.80384 0.21884 0.0
H725 H 0.94942 0.78929 0.22152 0.0
C726 C 0.20118 0.97827 0.22747 0.0
C727 C 0.22199 0.967 0.24402 0.0
C728 C 0.22763 0.01079 0.2667 0.0
C729 C 0.21158 0.02307 0.24625 0.0
N730 N 0.18331 0.01901 0.20632 0.0
N731 N 0.25695 0.97311 0.27821 0.0
C732 C 0.19794 0.00696 0.22663 0.0
C733 C 0.23545 0.98323 0.26374 0.0
N734 N 0.18423 0.96155 0.21302 0.0
N735 N 0.23557 0.02571 0.28877 0.0
H736 H 0.2643 0.95334 0.27592 0.0
H737 H 0.26919 0.98513 0.2907 0.0
H738 H 0.22966 0.04595 0.29147 0.0
H739 H 0.24537 0.01725 0.30554 0.0
H740 H 0.16719 0.96859 0.20256 0.0
H741 H 0.18551 0.94035 0.21384 0.0
H742 H 0.17584 0.00836 0.18958 0.0
H743 H 0.18 0.03995 0.2053 0.0
C744 C 0.98485 0.7589 0.70118 0.0
C745 C 0.9668 0.74359 0.71737 0.0
C746 C 0.00448 0.71399 0.73146 0.0
C747 C 0.02306 0.73328 0.72041 0.0
N748 N 0.03055 0.77575 0.696 0.0
N749 N 0.95737 0.69893 0.73521 0.0
C750 C 0.01323 0.75584 0.70501 0.0
C751 C 0.97592 0.7187 0.72886 0.0
N752 N 0.97472 0.77568 0.6815 0.0
N753 N 0.01418 0.69152 0.7447 0.0
H754 H 0.93695 0.70049 0.72961 0.0
H755 H 0.96242 0.67973 0.74258 0.0
H756 H 0.0348 0.68643 0.74506 0.0
H757 H 0.00208 0.67833 0.75603 0.0
H758 H 0.98695 0.78571 0.66738 0.0
H759 H 0.95392 0.77646 0.67713 0.0
H760 H 0.02377 0.79397 0.6875 0.0
H761 H 0.05146 0.77564 0.69932 0.0
C762 C 0.20618 0.01349 0.72436 0.0
C763 C 0.22914 0.02715 0.73555 0.0
C764 C 0.25901 0.99125 0.71836 0.0
C765 C 0.23567 0.97534 0.71226 0.0
N766 N 0.1899 0.97709 0.69513 0.0
N767 N 0.27772 0.03063 0.74176 0.0
C768 C 0.20997 0.9882 0.71084 0.0
C769 C 0.25575 0.01669 0.73178 0.0
N770 N 0.18066 0.02402 0.72778 0.0
N771 N 0.28398 0.98265 0.70975 0.0
H772 H 0.27609 0.04983 0.75072 0.0
H773 H 0.29733 0.02266 0.74244 0.0
H774 H 0.28616 0.96549 0.69741 0.0
H775 H 0.30178 0.99402 0.71179 0.0
H776 H 0.1629 0.01343 0.72302 0.0
H777 H 0.17709 0.04279 0.73702 0.0
H778 H 0.17118 0.98638 0.69165 0.0
H779 H 0.19351 0.96044 0.68248 0.0
C780 C -0.0035 0.29277 0.74531 0.0
C781 C 0.01259 0.28058 0.72455 0.0
C782 C 0.97161 0.27386 0.69675 0.0
C783 C 0.95587 0.28087 0.71975 0.0
N784 N 0.95272 0.31245 0.75671 0.0
N785 N 0.01691 0.26646 0.6779 0.0
C786 C 0.9682 0.29569 0.74094 0.0
C787 C 0.00055 0.2736 0.69918 0.0
N788 N 0.00735 0.29916 0.77009 0.0
N789 N 0.95874 0.26841 0.67277 0.0
H790 H 0.03809 0.26796 0.67888 0.0
H791 H 0.00986 0.25968 0.65917 0.0
H792 H 0.93796 0.27205 0.67023 0.0
H793 H 0.96849 0.26253 0.655 0.0
H794 H 0.99546 0.30504 0.78659 0.0
H795 H 0.02772 0.29656 0.77519 0.0
H796 H 0.96094 0.32545 0.77132 0.0
H797 H 0.93211 0.31568 0.75253 0.0
C798 C 0.72462 0.00945 0.7518 0.0
C799 C 0.73712 0.0232 0.72953 0.0
C800 C 0.72917 0.98327 0.70073 0.0
C801 C 0.72243 0.96828 0.72434 0.0
N802 N 0.69838 0.9701 0.76655 0.0
N803 N 0.74733 0.02529 0.6817 0.0
C804 C 0.715 0.98244 0.74806 0.0
C805 C 0.73777 0.01087 0.70345 0.0
N806 N 0.72395 0.02111 0.77701 0.0
N807 N 0.72636 0.97113 0.67595 0.0
H808 H 0.7522 0.04597 0.68287 0.0
H809 H 0.75104 0.01681 0.6627 0.0
H810 H 0.71794 0.95165 0.67405 0.0
H811 H 0.72958 0.98096 0.65751 0.0
H812 H 0.71802 0.0106 0.79441 0.0
H813 H 0.73118 0.04063 0.78114 0.0
H814 H 0.69041 0.98002 0.78346 0.0
H815 H 0.6899 0.95091 0.76285 0.0
C816 C 0.28241 0.25681 -0.00043 0.0
C817 C 0.26193 0.26525 0.01804 0.0
C818 C 0.23452 0.28237 0.98002 0.0
C819 C 0.25187 0.26845 0.96189 0.0
N820 N 0.2984 0.25656 0.95284 0.0
N821 N 0.21809 0.28634 0.02607 0.0
C822 C 0.27782 0.25989 0.97118 0.0
C823 C 0.23814 0.27872 0.0084 0.0
N824 N 0.30585 0.24528 0.00916 0.0
N825 N 0.21569 0.30023 0.9701 0.0
H826 H 0.21954 0.28398 0.04703 0.0
H827 H 0.19902 0.29313 0.01978 0.0
H828 H 0.21496 0.30545 0.94957 0.0
H829 H 0.20376 0.31267 0.98239 0.0
H830 H 0.32015 0.23574 -0.00316 0.0
H831 H 0.31054 0.24433 0.02981 0.0
H832 H 0.3184 0.25202 0.95812 0.0
H833 H 0.29602 0.26178 0.93242 0.0
C834 C 0.21875 0.76252 0.97847 0.0
C835 C 0.24101 0.75137 0.96398 0.0
C836 C 0.25123 0.72099 0.00199 0.0
C837 C 0.2313 0.73459 0.01766 0.0
N838 N 0.19877 0.77131 0.02236 0.0
N839 N 0.28076 0.72258 0.96266 0.0
C840 C 0.2156 0.75605 0.00633 0.0
C841 C 0.25785 0.73119 0.97588 0.0
N842 N 0.20001 0.77846 0.96546 0.0
N843 N 0.26344 0.69806 0.01199 0.0
H844 H 0.28658 0.73007 0.94368 0.0
H845 H 0.2953 0.70994 0.97147 0.0
H846 H 0.25861 0.68992 0.03098 0.0
H847 H 0.27627 0.68571 0.00056 0.0
H848 H 0.18172 0.78445 0.97433 0.0
H849 H 0.20146 0.78374 0.945 0.0
H850 H 0.18965 0.7893 0.0158 0.0
H851 H 0.19545 0.76735 0.04287 0.0
C852 C 0.76372 0.27428 0.97832 0.0
C853 C 0.74451 0.25612 0.96634 0.0
C854 C 0.73044 0.24102 0.01115 0.0
C855 C 0.74734 0.26128 0.02316 0.0
N856 N 0.77295 0.303 0.01706 0.0
N857 N 0.70315 0.22996 0.97198 0.0
C858 C 0.76168 0.27987 0.00642 0.0
C859 C 0.72564 0.24213 0.98296 0.0
N860 N 0.78503 0.2847 0.9638 0.0
N861 N 0.72066 0.21949 0.02585 0.0
H862 H 0.69819 0.23164 0.95143 0.0
H863 H 0.68792 0.22117 0.98389 0.0
H864 H 0.72616 0.2156 0.0459 0.0
H865 H 0.71001 0.20341 0.01691 0.0
H866 H 0.8006 0.29601 0.97282 0.0
H867 H 0.78917 0.27957 0.94373 0.0
H868 H 0.78177 0.31808 0.00498 0.0
H869 H 0.77052 0.30863 0.03733 0.0
C870 C 0.72566 0.74604 0.97433 0.0
C871 C 0.74407 0.76483 0.96232 0.0
C872 C 0.734 0.79811 -0.00204 0.0
C873 C 0.72125 0.77722 0.01308 0.0
N874 N 0.69835 0.734 0.0139 0.0
N875 N 0.76544 0.8093 0.96191 0.0
C876 C 0.71468 0.75208 0.00041 0.0
C877 C 0.74799 0.79113 0.97379 0.0
N878 N 0.71927 0.72238 0.96106 0.0
N879 N 0.73194 0.82462 0.00611 0.0
H880 H 0.77519 0.80565 0.94351 0.0
H881 H 0.77166 0.82734 0.97121 0.0
H882 H 0.71939 0.8306 0.02205 0.0
H883 H 0.73927 0.841 0.9948 0.0
H884 H 0.70475 0.70845 0.96769 0.0
H885 H 0.72792 0.71697 0.94249 0.0
H886 H 0.69445 0.71416 0.00758 0.0
H887 H 0.68842 0.7393 0.03189 0.0
C888 C 0.52418 0.77216 0.7412 0.0
C889 C 0.54146 0.76142 0.76141 0.0
C890 C 0.50115 0.75157 0.78952 0.0
C891 C 0.48449 0.7556 0.76628 0.0
N892 N 0.48097 0.76764 0.7186 0.0
N893 N 0.5467 0.74794 0.80834 0.0
C894 C 0.4961 0.76582 0.74185 0.0
C895 C 0.53008 0.75346 0.78683 0.0
N896 N 0.53478 0.78853 0.72141 0.0
N897 N 0.48925 0.74711 0.81423 0.0
H898 H 0.56672 0.75491 0.80932 0.0
H899 H 0.5404 0.73756 0.82567 0.0
H900 H 0.46819 0.7463 0.81687 0.0
H901 H 0.49991 0.7463 0.83247 0.0
H902 H 0.52278 0.79876 0.70724 0.0
H903 H 0.55525 0.7944 0.72152 0.0
H904 H 0.48944 0.77247 0.69979 0.0
H905 H 0.46071 0.76149 0.71727 0.0
C906 C 0.27219 0.47369 0.79315 0.0
C907 C 0.25133 0.4579 0.78118 0.0
C908 C 0.224 0.49904 0.77426 0.0
C909 C 0.24748 0.51499 0.78 0.0
N910 N 0.29444 0.51756 0.79506 0.0
N911 N 0.20303 0.45404 0.7748 0.0
C912 C 0.27153 0.50244 0.79019 0.0
C913 C 0.22572 0.47013 0.77612 0.0
N914 N 0.29179 0.46125 0.80838 0.0
N915 N 0.20041 0.51153 0.76642 0.0
H916 H 0.20382 0.43323 0.77917 0.0
H917 H 0.18331 0.46144 0.77269 0.0
H918 H 0.19799 0.53265 0.76669 0.0
H919 H 0.18352 0.50117 0.75887 0.0
H920 H 0.30646 0.47189 0.81943 0.0
H921 H 0.29084 0.44051 0.81303 0.0
H922 H 0.31331 0.50889 0.79934 0.0
H923 H 0.29533 0.53863 0.79274 0.0
C924 C 0.47927 0.21791 0.78914 0.0
C925 C 0.46754 0.20725 0.76512 0.0
C926 C 0.51003 0.21342 0.74067 0.0
C927 C 0.52021 0.229 0.76292 0.0
N928 N 0.51705 0.24243 0.80993 0.0
N929 N 0.47649 0.18033 0.7256 0.0
C930 C 0.50572 0.22982 0.78788 0.0
C931 C 0.4846 0.2001 0.74334 0.0
N932 N 0.46541 0.21544 0.81303 0.0
N933 N 0.52325 0.2132 0.71623 0.0
H934 H 0.4585 0.16934 0.72863 0.0
H935 H 0.48898 0.1726 0.71036 0.0
H936 H 0.54135 0.2236 0.71251 0.0
H937 H 0.51492 0.20461 0.69875 0.0
H938 H 0.47283 0.22172 0.8318 0.0
H939 H 0.44728 0.20434 0.81424 0.0
H940 H 0.50671 0.24618 0.82796 0.0
H941 H 0.53704 0.24967 0.81002 0.0
C942 C 0.78447 0.47008 0.74866 0.0
C943 C 0.77126 0.45259 0.76709 0.0
C944 C 0.76345 0.49101 0.79779 0.0
C945 C 0.76968 0.50903 0.77601 0.0
N946 N 0.78631 0.51524 0.7298 0.0
N947 N 0.76239 0.44414 0.81425 0.0
C948 C 0.78112 0.49859 0.75148 0.0
C949 C 0.76512 0.46232 0.79344 0.0
N950 N 0.80034 0.45924 0.72868 0.0
N951 N 0.75533 0.50145 0.8222 0.0
H952 H 0.76693 0.42353 0.81174 0.0
H953 H 0.7588 0.44954 0.83434 0.0
H954 H 0.75592 0.52229 0.82642 0.0
H955 H 0.74769 0.48977 0.83809 0.0
H956 H 0.81244 0.471 0.71582 0.0
H957 H 0.80389 0.43829 0.72747 0.0
H958 H 0.7914 0.50783 0.71064 0.0
H959 H 0.78344 0.5362 0.72983 0.0
C960 C 0.47498 0.21204 0.23672 0.0
C961 C 0.46182 0.23203 0.25283 0.0
C962 C 0.50493 0.24339 0.27499 0.0
C963 C 0.51772 0.22242 0.25983 0.0
N964 N 0.51442 0.18302 0.23095 0.0
N965 N 0.46256 0.26273 0.2911 0.0
C966 C 0.50251 0.20552 0.24218 0.0
C967 C 0.47628 0.24657 0.27312 0.0
N968 N 0.46153 0.20024 0.21539 0.0
N969 N 0.52022 0.26113 0.29007 0.0
H970 H 0.44155 0.2657 0.29027 0.0
H971 H 0.47164 0.2714 0.30816 0.0
H972 H 0.54121 0.25923 0.29252 0.0
H973 H 0.51238 0.27882 0.29871 0.0
H974 H 0.47096 0.18765 0.20123 0.0
H975 H 0.44148 0.20497 0.21028 0.0
H976 H 0.50371 0.16838 0.21995 0.0
H977 H 0.53459 0.17762 0.23491 0.0
C978 C 0.73197 0.48378 0.26716 0.0
C979 C 0.74418 0.46735 0.24698 0.0
C980 C 0.76906 0.50659 0.22923 0.0
C981 C 0.75428 0.52348 0.24718 0.0
N982 N 0.71823 0.52911 0.28021 0.0
N983 N 0.77111 0.46316 0.20614 0.0
C984 C 0.73488 0.5124 0.26548 0.0
C985 C 0.76197 0.4787 0.2273 0.0
N986 N 0.71839 0.47207 0.28843 0.0
N987 N 0.79025 0.51711 0.21454 0.0
H988 H 0.76585 0.44272 0.20364 0.0
H989 H 0.78184 0.47113 0.18971 0.0
H990 H 0.79618 0.53751 0.21584 0.0
H991 H 0.80351 0.50518 0.20314 0.0
H992 H 0.71174 0.48302 0.30528 0.0
H993 H 0.71595 0.45105 0.29053 0.0
H994 H 0.70164 0.52199 0.29133 0.0
H995 H 0.71937 0.55031 0.27957 0.0
C996 C 0.50776 0.74776 0.22569 0.0
C997 C 0.52403 0.76 0.24612 0.0
C998 C 0.48516 0.78789 0.25943 0.0
C999 C 0.46785 0.7717 0.24298 0.0
N1000 N 0.46312 0.73009 0.21636 0.0
N1001 N 0.52533 0.78697 0.28743 0.0
C1002 C 0.47915 0.74991 0.2276 0.0
C1003 C 0.51202 0.77883 0.26444 0.0
N1004 N 0.5193 0.73486 0.204 0.0
N1005 N 0.47639 0.81215 0.2698 0.0
H1006 H 0.54394 0.77885 0.29356 0.0
H1007 H 0.51614 0.79912 0.30217 0.0
H1008 H 0.45746 0.82047 0.265 0.0
H1009 H 0.48926 0.82541 0.28029 0.0
H1010 H 0.50778 0.72749 0.18776 0.0
H1011 H 0.54022 0.73467 0.20046 0.0
H1012 H 0.47127 0.71297 0.20683 0.0
H1013 H 0.44225 0.72852 0.21965 0.0
C1014 C 0.27982 0.50465 0.25944 0.0
C1015 C 0.26749 0.51917 0.23782 0.0
C1016 C 0.23958 0.47972 0.22621 0.0
C1017 C 0.25253 0.46469 0.24718 0.0
N1018 N 0.28945 0.4605 0.27932 0.0
N1019 N 0.24186 0.51873 0.19619 0.0
C1020 C 0.27405 0.47642 0.26251 0.0
C1021 C 0.24948 0.50598 0.21968 0.0
N1022 N 0.29593 0.51803 0.27775 0.0
N1023 N 0.21679 0.46969 0.21368 0.0
H1024 H 0.24923 0.53795 0.19078 0.0
H1025 H 0.23069 0.50915 0.18092 0.0
H1026 H 0.20791 0.45106 0.21874 0.0
H1027 H 0.20503 0.48108 0.20023 0.0
H1028 H 0.30273 0.50924 0.29577 0.0
H1029 H 0.3012 0.53852 0.2757 0.0
H1030 H 0.30708 0.46741 0.2889 0.0
H1031 H 0.28605 0.43965 0.2818 0.0
C1032 C 0.75705 0.70244 0.50653 0.0
C1033 C 0.76793 0.72122 0.52555 0.0
C1034 C 0.78156 0.75193 0.48853 0.0
C1035 C 0.76708 0.7351 0.47006 0.0
N1036 N 0.74138 0.69408 0.46067 0.0
N1037 N 0.79216 0.76266 0.5356 0.0
C1038 C 0.75518 0.71014 0.4788 0.0
C1039 C 0.781 0.74549 0.51673 0.0
N1040 N 0.74838 0.6773 0.51495 0.0
N1041 N 0.79553 0.77415 0.4791 0.0
H1042 H 0.79384 0.75741 0.55609 0.0
H1043 H 0.79918 0.78221 0.53135 0.0
H1044 H 0.79514 0.78024 0.45881 0.0
H1045 H 0.80865 0.78587 0.4909 0.0
H1046 H 0.74323 0.66152 0.50179 0.0
H1047 H 0.74837 0.67108 0.53514 0.0
H1048 H 0.72889 0.67787 0.46622 0.0
H1049 H 0.74119 0.69763 0.43984 0.0
C1050 C 0.74218 0.20565 0.4819 0.0
C1051 C 0.76161 0.22211 0.46805 0.0
C1052 C 0.76872 0.2492 0.50863 0.0
C1053 C 0.75038 0.23209 0.52311 0.0
N1054 N 0.72811 0.18815 0.52562 0.0
N1055 N 0.8011 0.25111 0.47187 0.0
C1056 C 0.73982 0.20833 0.51047 0.0
C1057 C 0.77771 0.2408 0.48283 0.0
N1058 N 0.72478 0.18885 0.46813 0.0
N1059 N 0.77574 0.2745 0.51795 0.0
H1060 H 0.80854 0.24459 0.45311 0.0
H1061 H 0.81443 0.26352 0.48283 0.0
H1062 H 0.76702 0.28357 0.53495 0.0
H1063 H 0.7875 0.28805 0.50658 0.0
H1064 H 0.70845 0.17906 0.47754 0.0
H1065 H 0.72501 0.18622 0.4472 0.0
H1066 H 0.72211 0.16952 0.51734 0.0
H1067 H 0.72752 0.18867 0.54678 0.0
C1068 C 0.27431 0.74646 0.48191 0.0
C1069 C 0.25399 0.72952 0.47012 0.0
C1070 C 0.24739 0.70728 0.51391 0.0
C1071 C 0.26354 0.72778 0.52643 0.0
N1072 N 0.28854 0.77018 0.52238 0.0
N1073 N 0.21813 0.69619 0.47602 0.0
C1074 C 0.27614 0.74824 0.51049 0.0
C1075 C 0.23975 0.71038 0.48634 0.0
N1076 N 0.29254 0.76013 0.46593 0.0
N1077 N 0.23996 0.68451 0.52811 0.0
H1078 H 0.2111 0.69861 0.4562 0.0
H1079 H 0.20549 0.68403 0.48798 0.0
H1080 H 0.2463 0.68088 0.54801 0.0
H1081 H 0.2302 0.66791 0.51913 0.0
H1082 H 0.30915 0.77076 0.47384 0.0
H1083 H 0.29308 0.75813 0.44488 0.0
H1084 H 0.29549 0.7869 0.51128 0.0
H1085 H 0.28939 0.77315 0.5433 0.0
C1086 C 0.20981 0.24218 0.51423 0.0
C1087 C 0.23616 0.24146 0.52595 0.0
C1088 C 0.25352 0.21733 0.48594 0.0
C1089 C 0.2287 0.22282 0.47243 0.0
N1090 N 0.18012 0.22516 0.47869 0.0
N1091 N 0.28338 0.22787 0.52368 0.0
C1092 C 0.20573 0.23074 0.488 0.0
C1093 C 0.25801 0.2284 0.51224 0.0
N1094 N 0.18885 0.25427 0.5279 0.0
N1095 N 0.27186 0.19997 0.47439 0.0
H1096 H 0.2875 0.23533 0.54306 0.0
H1097 H 0.30077 0.22171 0.51329 0.0
H1098 H 0.26741 0.18919 0.45666 0.0
H1099 H 0.28952 0.19335 0.48402 0.0
H1100 H 0.17001 0.2584 0.51911 0.0
H1101 H 0.19079 0.26163 0.54769 0.0
H1102 H 0.1625 0.22876 0.48985 0.0
H1103 H 0.17675 0.21314 0.46155 0.0
C1104 C 0.16707 0.18278 0.20966 0.0
C1105 C 0.17866 0.17451 0.23457 0.0
C1106 C 0.15014 0.20676 0.25942 0.0
C1107 C 0.14197 0.21816 0.2343 0.0
N1108 N 0.14306 0.218 0.18505 0.0
N1109 N 0.18156 0.17724 0.28332 0.0
C1110 C 0.15001 0.20611 0.20922 0.0
C1111 C 0.17005 0.1859 0.25956 0.0
N1112 N 0.17272 0.16847 0.18652 0.0
N1113 N 0.1383 0.2155 0.283 0.0
H1114 H 0.19526 0.16106 0.28436 0.0
H1115 H 0.1785 0.1868 0.30187 0.0
H1116 H 0.12326 0.23049 0.28343 0.0
H1117 H 0.14143 0.20638 0.30182 0.0
H1118 H 0.16308 0.17177 0.16799 0.0
H1119 H 0.18557 0.15156 0.18639 0.0
H1120 H 0.1505 0.21175 0.1663 0.0
H1121 H 0.13143 0.23562 0.1835 0.0
C1122 C 0.82015 0.1954 0.23182 0.0
C1123 C 0.83181 0.20508 0.2562 0.0
C1124 C 0.80838 0.16927 0.2819 0.0
C1125 C 0.79791 0.15861 0.25723 0.0
N1126 N 0.80077 0.15723 0.20807 0.0
N1127 N 0.8423 0.19802 0.30341 0.0
C1128 C 0.80591 0.1703 0.23198 0.0
C1129 C 0.82756 0.19102 0.28096 0.0
N1130 N 0.82223 0.2104 0.20851 0.0
N1131 N 0.79999 0.15875 0.30621 0.0
H1132 H 0.85604 0.21425 0.30361 0.0
H1133 H 0.84262 0.18622 0.32097 0.0
H1134 H 0.78723 0.14181 0.30775 0.0
H1135 H 0.80445 0.16778 0.32484 0.0
H1136 H 0.81108 0.20611 0.191 0.0
H1137 H 0.83352 0.22836 0.20736 0.0
H1138 H 0.80893 0.16351 0.18957 0.0
H1139 H 0.79087 0.13861 0.20689 0.0
C1140 C 0.83234 0.81223 0.22406 0.0
C1141 C 0.8438 0.7988 0.24696 0.0
C1142 C 0.80859 0.8187 0.27603 0.0
C1143 C 0.79523 0.82852 0.2525 0.0
N1144 N 0.79181 0.83147 0.2038 0.0
N1145 N 0.84255 0.78837 0.29489 0.0
C1146 C 0.80636 0.82438 0.22641 0.0
C1147 C 0.83183 0.80181 0.27304 0.0
N1148 N 0.84634 0.81409 0.2002 0.0
N1149 N 0.7994 0.82598 0.3012 0.0
H1150 H 0.86091 0.77775 0.29406 0.0
H1151 H 0.83268 0.78681 0.31354 0.0
H1152 H 0.78176 0.83741 0.3042 0.0
H1153 H 0.81035 0.82244 0.31896 0.0
H1154 H 0.83995 0.82613 0.18398 0.0
H1155 H 0.86575 0.80629 0.19747 0.0
H1156 H 0.79742 0.82588 0.18418 0.0
H1157 H 0.7728 0.84081 0.20484 0.0
C1158 C 0.19306 0.82272 0.27305 0.0
C1159 C 0.19373 0.83684 0.24787 0.0
C1160 C 0.16424 0.8018 0.22768 0.0
C1161 C 0.16634 0.78638 0.25184 0.0
N1162 N 0.18572 0.77988 0.2963 0.0
N1163 N 0.18417 0.83648 0.19948 0.0
C1164 C 0.18176 0.79609 0.27411 0.0
C1165 C 0.18031 0.82562 0.22471 0.0
N1166 N 0.20179 0.83528 0.29629 0.0
N1167 N 0.14686 0.79373 0.20749 0.0
H1168 H 0.19613 0.85348 0.19582 0.0
H1169 H 0.17773 0.82698 0.18167 0.0
H1170 H 0.13555 0.77576 0.20841 0.0
H1171 H 0.14202 0.80588 0.19083 0.0
H1172 H 0.19934 0.8269 0.31558 0.0
H1173 H 0.20876 0.85536 0.29674 0.0
H1174 H 0.19989 0.78456 0.3113 0.0
H1175 H 0.17659 0.7608 0.29857 0.0
C1176 C 0.15992 0.79542 0.69562 0.0
C1177 C 0.13724 0.79724 0.71334 0.0
C1178 C 0.16077 0.83227 0.74015 0.0
C1179 C 0.18419 0.82891 0.72382 0.0
N1180 N 0.2034 0.81395 0.6814 0.0
N1181 N 0.1118 0.82801 0.7421 0.0
C1182 C 0.183 0.81242 0.70015 0.0
C1183 C 0.13622 0.81892 0.73252 0.0
N1184 N 0.15925 0.77764 0.67429 0.0
N1185 N 0.16207 0.84764 0.76323 0.0
H1186 H 0.0933 0.8218 0.73375 0.0
H1187 H 0.10996 0.84476 0.75496 0.0
H1188 H 0.17972 0.85786 0.7693 0.0
H1189 H 0.14632 0.84845 0.77737 0.0
H1190 H 0.1764 0.77183 0.66331 0.0
H1191 H 0.14119 0.76867 0.66755 0.0
H1192 H 0.20194 0.80529 0.66223 0.0
H1193 H 0.22074 0.82597 0.68394 0.0
C1194 C 0.13394 0.13761 0.77478 0.0
C1195 C 0.1531 0.13023 0.7546 0.0
C1196 C 0.14345 0.17156 0.72889 0.0
C1197 C 0.12728 0.18074 0.75082 0.0
N1198 N 0.09969 0.17028 0.78965 0.0
N1199 N 0.16762 0.13374 0.70826 0.0
C1200 C 0.11982 0.1628 0.77208 0.0
C1201 C 0.15469 0.14505 0.73005 0.0
N1202 N 0.13039 0.1213 0.79693 0.0
N1203 N 0.14936 0.1888 0.70789 0.0
H1204 H 0.17572 0.11408 0.70904 0.0
H1205 H 0.16802 0.14253 0.68902 0.0
H1206 H 0.14086 0.20819 0.70631 0.0
H1207 H 0.16349 0.18447 0.69276 0.0
H1208 H 0.11845 0.12647 0.81357 0.0
H1209 H 0.13965 0.10229 0.79865 0.0
H1210 H 0.09206 0.15784 0.80497 0.0
H1211 H 0.08898 0.18847 0.78726 0.0
C1212 C 0.88182 0.14784 0.71773 0.0
C1213 C 0.89365 0.16348 0.73887 0.0
C1214 C 0.87189 0.13431 0.77262 0.0
C1215 C 0.85533 0.12353 0.75174 0.0
N1216 N 0.8555 0.10753 0.70575 0.0
N1217 N 0.91139 0.16189 0.78451 0.0
C1218 C 0.86415 0.12594 0.72458 0.0
C1219 C 0.89275 0.15332 0.76582 0.0
N1220 N 0.88656 0.15489 0.69135 0.0
N1221 N 0.86659 0.12697 0.79877 0.0
H1222 H 0.92796 0.17406 0.77919 0.0
H1223 H 0.91224 0.1546 0.80433 0.0
H1224 H 0.85223 0.11189 0.80311 0.0
H1225 H 0.87619 0.13539 0.81565 0.0
H1226 H 0.8764 0.14617 0.67494 0.0
H1227 H 0.90061 0.17005 0.6862 0.0
H1228 H 0.86248 0.10723 0.68579 0.0
H1229 H 0.84341 0.09087 0.7111 0.0
C1230 C 0.86296 0.88207 0.76684 0.0
C1231 C 0.87202 0.86228 0.7481 0.0
C1232 C 0.84667 0.88448 0.71175 0.0
C1233 C 0.83268 0.89966 0.73177 0.0
N1234 N 0.83891 0.92481 0.77341 0.0
N1235 N 0.88502 0.85489 0.70154 0.0
C1236 C 0.84471 0.90262 0.7578 0.0
C1237 C 0.86828 0.86707 0.71997 0.0
N1238 N 0.87111 0.88028 0.79325 0.0
N1239 N 0.8387 0.88632 0.68526 0.0
H1240 H 0.90203 0.84371 0.70748 0.0
H1241 H 0.88393 0.85831 0.68071 0.0
H1242 H 0.82423 0.90056 0.67894 0.0
H1243 H 0.8461 0.87386 0.66985 0.0
H1244 H 0.86368 0.89264 0.80872 0.0
H1245 H 0.88542 0.86582 0.79942 0.0
H1246 H 0.84777 0.92844 0.79227 0.0
H1247 H 0.82791 0.94129 0.76582 0.0
C1248 C 0.27855 0.14468 0.17951 0.0
C1249 C 0.25375 0.13019 0.17691 0.0
C1250 C 0.23858 0.16182 0.14144 0.0
C1251 C 0.26122 0.1788 0.14747 0.0
N1252 N 0.30763 0.18075 0.16263 0.0
N1253 N 0.21949 0.11637 0.14446 0.0
C1254 C 0.28277 0.16843 0.16358 0.0
C1255 C 0.23649 0.136 0.15446 0.0
N1256 N 0.29802 0.1357 0.19719 0.0
N1257 N 0.21886 0.17033 0.12387 0.0
H1258 H 0.22051 0.09614 0.15082 0.0
H1259 H 0.20762 0.11898 0.12711 0.0
H1260 H 0.22101 0.18743 0.11156 0.0
H1261 H 0.20003 0.16066 0.12205 0.0
H1262 H 0.31457 0.14743 0.20345 0.0
H1263 H 0.2975 0.11615 0.20554 0.0
H1264 H 0.32499 0.17207 0.171 0.0
H1265 H 0.31135 0.19803 0.15086 0.0
C1266 C 0.84176 0.25359 0.15629 0.0
C1267 C 0.81895 0.27067 0.16027 0.0
C1268 C 0.84501 0.29877 0.19227 0.0
C1269 C 0.86622 0.27931 0.19118 0.0
N1270 N 0.89063 0.24951 0.16074 0.0
N1271 N 0.80271 0.31516 0.17288 0.0
C1272 C 0.86658 0.26024 0.16949 0.0
C1273 C 0.82175 0.29509 0.17548 0.0
N1274 N 0.8395 0.23039 0.14116 0.0
N1275 N 0.8472 0.32075 0.20914 0.0
H1276 H 0.78573 0.31329 0.16026 0.0
H1277 H 0.80523 0.33458 0.18094 0.0
H1278 H 0.86573 0.32657 0.21776 0.0
H1279 H 0.8309 0.33327 0.21428 0.0
H1280 H 0.8547 0.21563 0.14037 0.0
H1281 H 0.82168 0.22506 0.13096 0.0
H1282 H 0.8921 0.23673 0.14391 0.0
H1283 H 0.90937 0.2567 0.16773 0.0
C1284 C 0.70348 0.85654 0.19561 0.0
C1285 C 0.72367 0.87709 0.19584 0.0
C1286 C 0.7448 0.85753 0.15524 0.0
C1287 C 0.7282 0.83411 0.15844 0.0
N1288 N 0.68884 0.81256 0.17848 0.0
N1289 N 0.75162 0.90506 0.16683 0.0
C1290 C 0.70635 0.83419 0.17744 0.0
C1291 C 0.74072 0.88015 0.17277 0.0
N1292 N 0.68083 0.85952 0.21142 0.0
N1293 N 0.76551 0.85755 0.13676 0.0
H1294 H 0.74618 0.92256 0.17753 0.0
H1295 H 0.76272 0.90905 0.14925 0.0
H1296 H 0.76873 0.84156 0.12323 0.0
H1297 H 0.78044 0.87264 0.136 0.0
H1298 H 0.66427 0.84627 0.21125 0.0
H1299 H 0.67714 0.87735 0.22234 0.0
H1300 H 0.67476 0.80971 0.19394 0.0
H1301 H 0.6889 0.79692 0.16414 0.0
C1302 C 0.12446 0.73234 0.17109 0.0
C1303 C 0.12582 0.714 0.19331 0.0
C1304 C 0.17041 0.6985 0.17792 0.0
C1305 C 0.17162 0.72116 0.15989 0.0
N1306 N 0.14969 0.75981 0.13893 0.0
N1307 N 0.1428 0.67066 0.20808 0.0
C1308 C 0.1484 0.7378 0.15587 0.0
C1309 C 0.14669 0.69427 0.19388 0.0
N1310 N 0.10002 0.74327 0.16366 0.0
N1311 N 0.19226 0.68152 0.18038 0.0
H1312 H 0.12422 0.66604 0.2173 0.0
H1313 H 0.15629 0.65433 0.20791 0.0
H1314 H 0.20877 0.68188 0.16706 0.0
H1315 H 0.19444 0.66794 0.19644 0.0
H1316 H 0.09741 0.75536 0.14646 0.0
H1317 H 0.08175 0.73696 0.17246 0.0
H1318 H 0.13455 0.77462 0.13796 0.0
H1319 H 0.16677 0.76433 0.12723 0.0
C1320 C 0.28179 0.86326 0.79927 0.0
C1321 C 0.25777 0.87871 0.79582 0.0
C1322 C 0.2377 0.85676 0.83572 0.0
C1323 C 0.25797 0.83638 0.83364 0.0
N1324 N 0.30261 0.82288 0.81859 0.0
N1325 N 0.22102 0.9006 0.81971 0.0
C1326 C 0.28143 0.84087 0.81743 0.0
C1327 C 0.23807 0.87885 0.8169 0.0
N1328 N 0.30491 0.87071 0.78574 0.0
N1329 N 0.21799 0.85451 0.85508 0.0
H1330 H 0.22378 0.91857 0.80875 0.0
H1331 H 0.20652 0.90243 0.83497 0.0
H1332 H 0.21937 0.84039 0.87082 0.0
H1333 H 0.20058 0.86653 0.85578 0.0
H1334 H 0.32372 0.86137 0.78841 0.0
H1335 H 0.30576 0.88842 0.77401 0.0
H1336 H 0.31895 0.82295 0.80515 0.0
H1337 H 0.30335 0.80722 0.83291 0.0
C1338 C 0.12829 0.27717 0.82211 0.0
C1339 C 0.10739 0.25882 0.81467 0.0
C1340 C 0.12706 0.22362 0.84382 0.0
C1341 C 0.1504 0.24029 0.84753 0.0
N1342 N 0.17302 0.28376 0.84172 0.0
N1343 N 0.07962 0.22144 0.83029 0.0
C1344 C 0.15061 0.26765 0.83781 0.0
C1345 C 0.10437 0.23408 0.82921 0.0
N1346 N 0.12615 0.30388 0.81455 0.0
N1347 N 0.12711 0.19746 0.85324 0.0
H1348 H 0.06202 0.23037 0.82255 0.0
H1349 H 0.07578 0.2042 0.84203 0.0
H1350 H 0.14308 0.18967 0.8648 0.0
H1351 H 0.11216 0.18318 0.84838 0.0
H1352 H 0.13939 0.31919 0.82091 0.0
H1353 H 0.10917 0.31116 0.80404 0.0
H1354 H 0.17618 0.30231 0.83196 0.0
H1355 H 0.18929 0.2781 0.85399 0.0
C1356 C 0.73469 0.12539 0.82132 0.0
C1357 C 0.76048 0.11375 0.81661 0.0
C1358 C 0.78176 0.14669 0.84703 0.0
C1359 C 0.75736 0.162 0.846 0.0
N1360 N 0.70936 0.16493 0.83655 0.0
N1361 N 0.80609 0.10612 0.83198 0.0
C1362 C 0.73315 0.15061 0.83518 0.0
C1363 C 0.78326 0.12188 0.83214 0.0
N1364 N 0.71209 0.1125 0.81144 0.0
N1365 N 0.80354 0.15674 0.8611 0.0
H1366 H 0.80686 0.08772 0.82142 0.0
H1367 H 0.82341 0.11011 0.84347 0.0
H1368 H 0.80202 0.17428 0.87297 0.0
H1369 H 0.8227 0.14779 0.86155 0.0
H1370 H 0.69222 0.11887 0.815 0.0
H1371 H 0.71352 0.09385 0.80129 0.0
H1372 H 0.69142 0.15921 0.82684 0.0
H1373 H 0.70784 0.18326 0.84714 0.0
C1374 C 0.87387 0.78401 0.86154 0.0
C1375 C 0.86321 0.75743 0.86293 0.0
C1376 C 0.89677 0.74231 0.82989 0.0
C1377 C 0.89981 0.76985 0.82193 0.0
N1378 N 0.89632 0.81744 0.83284 0.0
N1379 N 0.87001 0.70978 0.85615 0.0
C1380 C 0.8907 0.79098 0.83915 0.0
C1381 C 0.87737 0.73593 0.85028 0.0
N1382 N 0.86718 0.80226 0.88119 0.0
N1383 N 0.91122 0.72265 0.81667 0.0
H1384 H 0.85587 0.70568 0.87145 0.0
H1385 H 0.87757 0.69268 0.84624 0.0
H1386 H 0.92539 0.72763 0.80164 0.0
H1387 H 0.91059 0.70206 0.82167 0.0
H1388 H 0.87543 0.8218 0.88232 0.0
H1389 H 0.85492 0.79648 0.89756 0.0
H1390 H 0.88778 0.83393 0.84303 0.0
H1391 H 0.90921 0.82256 0.81676 0.0
C1392 C 0.17603 0.31149 0.1557 0.0
C1393 C 0.17344 0.29446 0.17886 0.0
C1394 C 0.20143 0.26008 0.15718 0.0
C1395 C 0.20707 0.27795 0.13548 0.0
N1396 N 0.20198 0.3222 0.11492 0.0
N1397 N 0.19158 0.25672 0.2048 0.0
C1398 C 0.19509 0.30427 0.13498 0.0
C1399 C 0.18882 0.2702 0.18072 0.0
N1400 N 0.16029 0.3343 0.15355 0.0
N1401 N 0.20638 0.23296 0.15461 0.0
H1402 H 0.18376 0.26408 0.22299 0.0
H1403 H 0.20444 0.23999 0.20715 0.0
H1404 H 0.21152 0.22473 0.13589 0.0
H1405 H 0.20155 0.21865 0.16951 0.0
H1406 H 0.15926 0.34616 0.13604 0.0
H1407 H 0.14724 0.34058 0.16905 0.0
H1408 H 0.19597 0.34254 0.11484 0.0
H1409 H 0.21499 0.31695 0.09901 0.0
C1410 C 0.17442 0.77574 0.83345 0.0
C1411 C 0.18886 0.75321 0.84469 0.0
C1412 C 0.1714 0.72345 0.80899 0.0
C1413 C 0.15761 0.74599 0.79748 0.0
N1414 N 0.13956 0.79123 0.80203 0.0
N1415 N 0.19344 0.70448 0.84868 0.0
C1416 C 0.15685 0.77134 0.81095 0.0
C1417 C 0.18487 0.72665 0.83419 0.0
N1418 N 0.17873 0.80153 0.8429 0.0
N1419 N 0.17252 0.69926 0.79533 0.0
H1420 H 0.20257 0.70619 0.86775 0.0
H1421 H 0.18888 0.68446 0.84325 0.0
H1422 H 0.16197 0.69574 0.77728 0.0
H1423 H 0.18524 0.68335 0.80106 0.0
H1424 H 0.17187 0.81896 0.83296 0.0
H1425 H 0.19047 0.80582 0.85987 0.0
H1426 H 0.13603 0.80926 0.81259 0.0
H1427 H 0.12677 0.78855 0.78532 0.0
C1428 C 0.18612 0.15217 0.89214 0.0
C1429 C 0.21353 0.1598 0.89685 0.0
C1430 C 0.2285 0.12131 0.86934 0.0
C1431 C 0.20262 0.12127 0.85697 0.0
N1432 N 0.15484 0.12797 0.86207 0.0
N1433 N 0.26085 0.14753 0.89606 0.0
C1434 C 0.1806 0.13342 0.87078 0.0
C1435 C 0.23475 0.14247 0.88797 0.0
N1436 N 0.16583 0.16327 0.90741 0.0
N1437 N 0.24693 0.10177 0.86255 0.0
H1438 H 0.26533 0.16241 0.91057 0.0
H1439 H 0.27773 0.13755 0.88808 0.0
H1440 H 0.24189 0.08597 0.84926 0.0
H1441 H 0.26582 0.09977 0.87195 0.0
H1442 H 0.14542 0.15782 0.9056 0.0
H1443 H 0.1699 0.17617 0.92372 0.0
H1444 H 0.13748 0.13768 0.86927 0.0
H1445 H 0.15139 0.11299 0.84741 0.0
C1446 C 0.83447 0.2242 0.85602 0.0
C1447 C 0.81643 0.24668 0.8565 0.0
C1448 C 0.82809 0.25799 0.80977 0.0
C1449 C 0.84154 0.23244 0.80751 0.0
N1450 N 0.85936 0.19183 0.82826 0.0
N1451 N 0.80663 0.29124 0.83931 0.0
C1452 C 0.84562 0.21585 0.8307 0.0
C1453 C 0.8167 0.26565 0.835 0.0
N1454 N 0.84214 0.21208 0.87976 0.0
N1455 N 0.82504 0.27424 0.78746 0.0
H1456 H 0.79949 0.29732 0.85834 0.0
H1457 H 0.8079 0.30708 0.82531 0.0
H1458 H 0.83419 0.26986 0.76899 0.0
H1459 H 0.8125 0.2913 0.78676 0.0
H1460 H 0.85645 0.19651 0.88097 0.0
H1461 H 0.83694 0.2201 0.89864 0.0
H1462 H 0.86078 0.17741 0.84369 0.0
H1463 H 0.86823 0.18575 0.81005 0.0
C1464 C 0.75169 0.82347 0.80166 0.0
C1465 C 0.77338 0.84208 0.79743 0.0
C1466 C 0.79332 0.82986 0.84117 0.0
C1467 C 0.77175 0.81084 0.84538 0.0
N1468 N 0.72602 0.79675 0.8341 0.0
N1469 N 0.80948 0.86928 0.81615 0.0
C1470 C 0.74957 0.80983 0.82693 0.0
C1471 C 0.79246 0.84735 0.81821 0.0
N1472 N 0.73331 0.81856 0.78138 0.0
N1473 N 0.81542 0.83034 0.85798 0.0
H1474 H 0.80907 0.88243 0.79953 0.0
H1475 H 0.82177 0.87602 0.83205 0.0
H1476 H 0.817 0.81857 0.87539 0.0
H1477 H 0.83312 0.84121 0.85361 0.0
H1478 H 0.7192 0.80269 0.7819 0.0
H1479 H 0.73314 0.82957 0.76329 0.0
H1480 H 0.70829 0.79735 0.82249 0.0
H1481 H 0.7232 0.78787 0.85315 0.0
C1482 C 0.80562 0.73233 0.12141 0.0
C1483 C 0.80111 0.7599 0.11404 0.0
C1484 C 0.84092 0.77281 0.14114 0.0
C1485 C 0.83886 0.74773 0.15488 0.0
N1486 N 0.82268 0.70145 0.15582 0.0
N1487 N 0.81705 0.80693 0.11527 0.0
C1488 C 0.82267 0.72657 0.14387 0.0
C1489 C 0.81992 0.78031 0.12277 0.0
N1490 N 0.79356 0.71188 0.1069 0.0
N1491 N 0.86295 0.78916 0.14548 0.0
H1492 H 0.80326 0.81368 0.10079 0.0
H1493 H 0.82793 0.8227 0.12443 0.0
H1494 H 0.87904 0.78305 0.1579 0.0
H1495 H 0.86661 0.80695 0.13449 0.0
H1496 H 0.79754 0.6913 0.11017 0.0
H1497 H 0.78187 0.71576 0.0896 0.0
H1498 H 0.80892 0.68605 0.15087 0.0
H1499 H 0.83603 0.69657 0.17159 0.0
C1500 C 0.27374 0.80198 0.13631 0.0
C1501 C 0.24692 0.79788 0.12613 0.0
C1502 C 0.23317 0.8401 0.14858 0.0
C1503 C 0.25635 0.83825 0.16544 0.0
N1504 N 0.30179 0.82151 0.17195 0.0
N1505 N 0.20088 0.81658 0.12098 0.0
C1506 C 0.27781 0.82063 0.15794 0.0
C1507 C 0.22666 0.81808 0.13137 0.0
N1508 N 0.29532 0.789 0.12455 0.0
N1509 N 0.21665 0.86231 0.14861 0.0
H1510 H 0.1934 0.80084 0.1091 0.0
H1511 H 0.18608 0.83116 0.12544 0.0
H1512 H 0.22084 0.88016 0.15932 0.0
H1513 H 0.22084 0.88016 0.15932 0.0
H1514 H 0.31551 0.79265 0.12995 0.0
H1515 H 0.29328 0.77713 0.10709 0.0
H1516 H 0.31711 0.80701 0.16986 0.0
H1517 H 0.30577 0.83666 0.18631 0.0
C1518 C 0.70977 0.17455 0.16824 0.0
C1519 C 0.73136 0.15728 0.17628 0.0
C1520 C 0.75973 0.17433 0.13962 0.0
C1521 C 0.73919 0.19392 0.13333 0.0
N1522 N 0.69092 0.20301 0.13276 0.0
N1523 N 0.76866 0.13023 0.15982 0.0
C1524 C 0.71286 0.19083 0.14472 0.0
C1525 C 0.75364 0.15353 0.15867 0.0
N1526 N 0.68676 0.17602 0.18364 0.0
N1527 N 0.78545 0.17619 0.12924 0.0
H1528 H 0.76354 0.11407 0.17257 0.0
H1529 H 0.78398 0.12576 0.14588 0.0
H1530 H 0.79162 0.19052 0.11504 0.0
H1531 H 0.80147 0.16419 0.13629 0.0
H1532 H 0.67195 0.1909 0.18076 0.0
H1533 H 0.68326 0.16291 0.19997 0.0
H1534 H 0.67093 0.19979 0.1391 0.0
H1535 H 0.69248 0.21372 0.1145 0.0
C1536 C 0.65905 0.63801 0.79032 0.0
C1537 C 0.66921 0.62635 0.7661 0.0
C1538 C 0.62844 0.64125 0.7419 0.0
C1539 C 0.62311 0.65939 0.76349 0.0
N1540 N 0.62812 0.67101 0.81045 0.0
N1541 N 0.66223 0.61279 0.71975 0.0
C1542 C 0.63635 0.65583 0.78874 0.0
C1543 C 0.65307 0.62608 0.74228 0.0
N1544 N 0.67192 0.63279 0.81431 0.0
N1545 N 0.61021 0.63899 0.72114 0.0
H1546 H 0.67978 0.60081 0.72016 0.0
H1547 H 0.65296 0.6142 0.70078 0.0
H1548 H 0.59202 0.64992 0.72097 0.0
H1549 H 0.61175 0.62432 0.70594 0.0
H1550 H 0.66516 0.63965 0.83312 0.0
H1551 H 0.68846 0.61954 0.81536 0.0
H1552 H 0.63828 0.67175 0.82898 0.0
H1553 H 0.61079 0.6833 0.80945 0.0
C1554 C 0.31821 0.64737 0.79747 0.0
C1555 C 0.31485 0.63024 0.7745 0.0
C1556 C 0.34957 0.65744 0.75038 0.0
C1557 C 0.34801 0.67735 0.771 0.0
N1558 N 0.33066 0.69201 0.81433 0.0
N1559 N 0.32868 0.61893 0.72828 0.0
C1560 C 0.3325 0.6724 0.79473 0.0
C1561 C 0.33131 0.63482 0.7509 0.0
N1562 N 0.30836 0.63929 0.82215 0.0
N1563 N 0.36844 0.66024 0.73017 0.0
H1564 H 0.31838 0.60051 0.72762 0.0
H1565 H 0.3363 0.62454 0.70934 0.0
H1566 H 0.3818 0.67676 0.72917 0.0
H1567 H 0.37268 0.6451 0.71599 0.0
H1568 H 0.31218 0.64982 0.84013 0.0
H1569 H 0.29906 0.62037 0.82511 0.0
H1570 H 0.31665 0.69112 0.83018 0.0
H1571 H 0.34205 0.70997 0.8138 0.0
C1572 C 0.38192 0.31656 0.72477 0.0
C1573 C 0.38109 0.30291 0.75005 0.0
C1574 C 0.34217 0.3303 0.76411 0.0
C1575 C 0.33919 0.33925 0.73671 0.0
N1576 N 0.35663 0.3422 0.69112 0.0
N1577 N 0.36959 0.30565 0.79712 0.0
C1578 C 0.3595 0.33316 0.71717 0.0
C1579 C 0.36414 0.31285 0.77087 0.0
N1580 N 0.40454 0.31478 0.70882 0.0
N1581 N 0.3228 0.33644 0.78306 0.0
H1582 H 0.38629 0.29347 0.80211 0.0
H1583 H 0.35962 0.31375 0.81391 0.0
H1584 H 0.30693 0.34992 0.7795 0.0
H1585 H 0.32167 0.32732 0.80211 0.0
H1586 H 0.40706 0.32578 0.69091 0.0
H1587 H 0.42224 0.3051 0.71534 0.0
H1588 H 0.36888 0.33577 0.67512 0.0
H1589 H 0.34092 0.35522 0.68539 0.0
C1590 C 0.62177 0.36923 0.71969 0.0
C1591 C 0.61388 0.35346 0.74234 0.0
C1592 C 0.64226 0.38105 0.77205 0.0
C1593 C 0.65488 0.3922 0.74871 0.0
N1594 N 0.64918 0.40682 0.70241 0.0
N1595 N 0.60463 0.35422 0.78999 0.0
C1596 C 0.64181 0.38994 0.72315 0.0
C1597 C 0.61981 0.36311 0.76863 0.0
N1598 N 0.61122 0.36282 0.69492 0.0
N1599 N 0.65302 0.38622 0.79708 0.0
H1600 H 0.58795 0.34131 0.7871 0.0
H1601 H 0.60684 0.36169 0.80967 0.0
H1602 H 0.66889 0.40018 0.79976 0.0
H1603 H 0.64673 0.37634 0.81473 0.0
H1604 H 0.61755 0.37148 0.6767 0.0
H1605 H 0.59556 0.3485 0.69322 0.0
H1606 H 0.63948 0.40713 0.68362 0.0
H1607 H 0.66342 0.42238 0.70499 0.0
C1608 C 0.65437 0.32795 0.2634 0.0
C1609 C 0.6702 0.33036 0.23971 0.0
C1610 C 0.63957 0.29876 0.21632 0.0
C1611 C 0.62855 0.29093 0.24181 0.0
N1612 N 0.62916 0.29667 0.29116 0.0
N1613 N 0.67756 0.31947 0.19261 0.0
C1614 C 0.63627 0.30558 0.26579 0.0
C1615 C 0.66253 0.31635 0.21574 0.0
N1616 N 0.65742 0.34631 0.28398 0.0
N1617 N 0.62764 0.29016 0.19274 0.0
H1618 H 0.6934 0.33361 0.1911 0.0
H1619 H 0.67505 0.30726 0.17548 0.0
H1620 H 0.60975 0.27867 0.19241 0.0
H1621 H 0.63361 0.29703 0.17363 0.0
H1622 H 0.64471 0.34678 0.30092 0.0
H1623 H 0.6704 0.36305 0.28244 0.0
H1624 H 0.63649 0.30561 0.30891 0.0
H1625 H 0.61973 0.27814 0.29516 0.0
C1626 C 0.6877 0.65295 0.20597 0.0
C1627 C 0.68824 0.6326 0.22623 0.0
C1628 C 0.65238 0.65585 0.25149 0.0
C1629 C 0.65669 0.67905 0.2349 0.0
N1630 N 0.67414 0.69872 0.1934 0.0
N1631 N 0.65991 0.60737 0.25727 0.0
C1632 C 0.67269 0.67711 0.21089 0.0
C1633 C 0.66704 0.63165 0.24571 0.0
N1634 N 0.70021 0.64831 0.18165 0.0
N1635 N 0.63548 0.65733 0.27342 0.0
H1636 H 0.6681 0.58893 0.25064 0.0
H1637 H 0.64346 0.60499 0.27038 0.0
H1638 H 0.62319 0.67417 0.2772 0.0
H1639 H 0.63444 0.64235 0.28837 0.0
H1640 H 0.69938 0.66157 0.16517 0.0
H1641 H 0.70872 0.62943 0.1769 0.0
H1642 H 0.68789 0.70006 0.17739 0.0
H1643 H 0.66185 0.71589 0.1954 0.0
C1644 C 0.32851 0.67338 0.2571 0.0
C1645 C 0.31528 0.66829 0.23219 0.0
C1646 C 0.34433 0.70206 0.20974 0.0
C1647 C 0.35396 0.71068 0.23557 0.0
N1648 N 0.35175 0.70637 0.28472 0.0
N1649 N 0.30957 0.67758 0.18451 0.0
C1650 C 0.34551 0.69659 0.2595 0.0
C1651 C 0.32298 0.6825 0.20835 0.0
N1652 N 0.32452 0.65627 0.27865 0.0
N1653 N 0.35625 0.71176 0.18658 0.0
H1654 H 0.29496 0.66222 0.18248 0.0
H1655 H 0.31197 0.68953 0.16719 0.0
H1656 H 0.37273 0.72521 0.18682 0.0
H1657 H 0.35175 0.70439 0.16726 0.0
H1658 H 0.33592 0.65734 0.29648 0.0
H1659 H 0.31183 0.63925 0.2777 0.0
H1660 H 0.34302 0.6989 0.30252 0.0
H1661 H 0.36339 0.72365 0.28802 0.0
C1662 C 0.32803 0.3226 0.23791 0.0
C1663 C 0.3193 0.29633 0.22916 0.0
C1664 C 0.27237 0.31191 0.22806 0.0
C1665 C 0.28055 0.33836 0.23635 0.0
N1666 N 0.31783 0.37078 0.23634 0.0
N1667 N 0.28547 0.27245 0.20249 0.0
C1668 C 0.30894 0.3444 0.23734 0.0
C1669 C 0.29232 0.29342 0.21935 0.0
N1670 N 0.35375 0.32716 0.24743 0.0
N1671 N 0.24621 0.30318 0.23054 0.0
H1672 H 0.30012 0.25963 0.19398 0.0
H1673 H 0.26582 0.26994 0.19486 0.0
H1674 H 0.23163 0.31456 0.2402 0.0
H1675 H 0.24023 0.2831 0.22693 0.0
H1676 H 0.35919 0.34523 0.2572 0.0
H1677 H 0.36936 0.31297 0.24692 0.0
H1678 H 0.33839 0.37596 0.23493 0.0
H1679 H 0.30473 0.38715 0.23301 0.0
C1680 C 0.73409 0.60955 0.68163 0.0
C1681 C 0.75461 0.61289 0.70184 0.0
C1682 C 0.76754 0.65687 0.682 0.0
C1683 C 0.74492 0.65509 0.66418 0.0
N1684 N 0.71003 0.6272 0.64333 0.0
N1685 N 0.7983 0.63276 0.712 0.0
C1686 C 0.72948 0.63076 0.66269 0.0
C1687 C 0.77372 0.63444 0.6991 0.0
N1688 N 0.71914 0.58614 0.6797 0.0
N1689 N 0.78244 0.6804 0.6834 0.0
H1690 H 0.8041 0.61546 0.7229 0.0
H1691 H 0.81405 0.64672 0.70915 0.0
H1692 H 0.77907 0.69694 0.67056 0.0
H1693 H 0.79704 0.68413 0.69831 0.0
H1694 H 0.70305 0.584 0.66599 0.0
H1695 H 0.72408 0.56819 0.68974 0.0
H1696 H 0.70602 0.64139 0.62808 0.0
H1697 H 0.70602 0.64139 0.62808 0.0
C1698 C 0.35569 0.76942 0.69206 0.0
C1699 C 0.37295 0.747 0.69742 0.0
C1700 C 0.34342 0.71703 0.67061 0.0
C1701 C 0.32443 0.73857 0.6683 0.0
N1702 N 0.31215 0.78566 0.67552 0.0
N1703 N 0.38998 0.70419 0.68004 0.0
C1704 C 0.33066 0.76505 0.67828 0.0
C1705 C 0.36899 0.72212 0.68316 0.0
N1706 N 0.36417 0.79505 0.69903 0.0
N1707 N 0.33649 0.69141 0.66211 0.0
H1708 H 0.40992 0.70883 0.6855 0.0
H1709 H 0.3886 0.68656 0.66835 0.0
H1710 H 0.31807 0.68703 0.65245 0.0
H1711 H 0.34802 0.67416 0.66652 0.0
H1712 H 0.35381 0.81283 0.69404 0.0
H1713 H 0.38337 0.79869 0.70743 0.0
H1714 H 0.31377 0.80443 0.6852 0.0
H1715 H 0.29419 0.78365 0.66441 0.0
C1716 C 0.29502 0.38743 0.65606 0.0
C1717 C 0.26924 0.39447 0.66673 0.0
C1718 C 0.24732 0.36827 0.6307 0.0
C1719 C 0.27192 0.35391 0.62747 0.0
N1720 N 0.32046 0.35498 0.62843 0.0
N1721 N 0.2209 0.39769 0.66027 0.0
C1722 C 0.29638 0.36569 0.63697 0.0
C1723 C 0.24539 0.38745 0.65216 0.0
N1724 N 0.31774 0.40087 0.66474 0.0
N1725 N 0.22599 0.36289 0.61384 0.0
H1726 H 0.2196 0.41256 0.6754 0.0
H1727 H 0.20226 0.3911 0.65259 0.0
H1728 H 0.22785 0.34926 0.59769 0.0
H1729 H 0.20782 0.37379 0.61413 0.0
H1730 H 0.33716 0.39736 0.65709 0.0
H1731 H 0.31661 0.41739 0.67797 0.0
H1732 H 0.33947 0.36099 0.63559 0.0
H1733 H 0.32081 0.34006 0.61334 0.0
C1734 C 0.65135 0.23438 0.66062 0.0
C1735 C 0.65679 0.25769 0.64456 0.0
C1736 C 0.61573 0.27997 0.66138 0.0
C1737 C 0.6125 0.25813 0.68001 0.0
N1738 N 0.61915 0.21062 0.68953 0.0
N1739 N 0.64022 0.29761 0.62205 0.0
C1740 C 0.62753 0.23385 0.6767 0.0
C1741 C 0.63742 0.27879 0.64226 0.0
N1742 N 0.66995 0.21376 0.66198 0.0
N1743 N 0.59922 0.30222 0.66296 0.0
H1744 H 0.65586 0.29624 0.60779 0.0
H1745 H 0.62597 0.3127 0.61786 0.0
H1746 H 0.58245 0.30304 0.67585 0.0
H1747 H 0.60232 0.32 0.65186 0.0
H1748 H 0.66875 0.1977 0.67576 0.0
H1749 H 0.68748 0.21356 0.65007 0.0
H1750 H 0.62808 0.19164 0.68647 0.0
H1751 H 0.60137 0.21004 0.70115 0.0
C1752 C 0.73487 0.34102 0.32576 0.0
C1753 C 0.75394 0.34794 0.30492 0.0
C1754 C 0.78036 0.30731 0.31575 0.0
C1755 C 0.76087 0.29998 0.33567 0.0
N1756 N 0.72863 0.31737 0.36835 0.0
N1757 N 0.80059 0.3439 0.28993 0.0
C1758 C 0.74111 0.31926 0.34368 0.0
C1759 C 0.77854 0.33303 0.30299 0.0
N1760 N 0.71018 0.35358 0.32792 0.0
N1761 N 0.80056 0.28966 0.30871 0.0
H1762 H 0.80075 0.36376 0.28236 0.0
H1763 H 0.81964 0.33456 0.28973 0.0
H1764 H 0.8052 0.27224 0.31991 0.0
H1765 H 0.81156 0.29195 0.2908 0.0
H1766 H 0.69478 0.34619 0.34053 0.0
H1767 H 0.70381 0.36984 0.31613 0.0
H1768 H 0.71562 0.3324 0.37574 0.0
H1769 H 0.7339 0.30284 0.3828 0.0
C1770 C 0.6503 0.72733 0.32403 0.0
C1771 C 0.64215 0.75197 0.31088 0.0
C1772 C 0.6846 0.77402 0.32453 0.0
C1773 C 0.69353 0.74918 0.33611 0.0
N1774 N 0.68309 0.70446 0.35327 0.0
N1775 N 0.64641 0.80074 0.30869 0.0
C1776 C 0.67569 0.72658 0.33806 0.0
C1777 C 0.65773 0.77596 0.31442 0.0
N1778 N 0.63465 0.70436 0.32234 0.0
N1779 N 0.70204 0.7956 0.32234 0.0
H1780 H 0.62621 0.80272 0.30237 0.0
H1781 H 0.65586 0.81925 0.31313 0.0
H1782 H 0.72143 0.79593 0.33096 0.0
H1783 H 0.69779 0.8124 0.31022 0.0
H1784 H 0.64171 0.68499 0.32727 0.0
H1785 H 0.61452 0.70423 0.31595 0.0
H1786 H 0.66999 0.68846 0.35804 0.0
H1787 H 0.7019 0.70299 0.36297 0.0
C1788 C 0.2677 0.66929 0.32724 0.0
C1789 C 0.24644 0.68826 0.32291 0.0
C1790 C 0.22256 0.65513 0.29398 0.0
C1791 C 0.24507 0.63729 0.29648 0.0
N1792 N 0.28043 0.62185 0.32697 0.0
N1793 N 0.20292 0.69945 0.30284 0.0
C1794 C 0.26521 0.64261 0.31651 0.0
C1795 C 0.22359 0.68122 0.30654 0.0
N1796 N 0.29084 0.67709 0.34063 0.0
N1797 N 0.19917 0.64593 0.28195 0.0
H1798 H 0.20057 0.71704 0.31444 0.0
H1799 H 0.18875 0.69778 0.28724 0.0
H1800 H 0.1968 0.62574 0.27574 0.0
H1801 H 0.18109 0.65691 0.2811 0.0
H1802 H 0.30816 0.66491 0.34179 0.0
H1803 H 0.29377 0.69675 0.34819 0.0
H1804 H 0.29418 0.62447 0.34289 0.0
H1805 H 0.2761 0.60144 0.32305 0.0
C1806 C 0.29622 0.26022 0.31575 0.0
C1807 C 0.28555 0.23655 0.32819 0.0
C1808 C 0.32346 0.20949 0.30999 0.0
C1809 C 0.33496 0.23349 0.29859 0.0
N1810 N 0.33515 0.28318 0.29686 0.0
N1811 N 0.29083 0.18951 0.34113 0.0
C1812 C 0.32235 0.25931 0.30344 0.0
C1813 C 0.29978 0.21146 0.32658 0.0
N1814 N 0.28109 0.2836 0.31507 0.0
N1815 N 0.33504 0.18469 0.30487 0.0
H1816 H 0.27281 0.18963 0.35226 0.0
H1817 H 0.30234 0.17198 0.34394 0.0
H1818 H 0.35367 0.18245 0.29499 0.0
H1819 H 0.32561 0.16619 0.30932 0.0
H1820 H 0.28588 0.30022 0.30277 0.0
H1821 H 0.26259 0.28566 0.3252 0.0
H1822 H 0.32825 0.30219 0.30325 0.0
H1823 H 0.35367 0.28453 0.28688 0.0
C1824 C 0.65711 0.73432 0.62192 0.0
C1825 C 0.66932 0.71088 0.61103 0.0
C1826 C 0.64807 0.68252 0.64544 0.0
C1827 C 0.64189 0.70651 0.66031 0.0
N1828 N 0.63647 0.75576 0.66092 0.0
N1829 N 0.66295 0.66336 0.60234 0.0
C1830 C 0.64411 0.73258 0.64756 0.0
C1831 C 0.66031 0.68501 0.61944 0.0
N1832 N 0.659 0.75818 0.60778 0.0
N1833 N 0.64358 0.65762 0.65688 0.0
H1834 H 0.67056 0.66571 0.5827 0.0
H1835 H 0.65514 0.64406 0.6065 0.0
H1836 H 0.63352 0.65559 0.67538 0.0
H1837 H 0.65037 0.63938 0.6485 0.0
H1838 H 0.64909 0.77609 0.6132 0.0
H1839 H 0.66881 0.75901 0.58897 0.0
H1840 H 0.64129 0.77534 0.65437 0.0
H1841 H 0.62573 0.75576 0.67906 0.0
C1842 C 0.69329 0.24272 0.33778 0.0
C1843 C 0.70155 0.21728 0.34887 0.0
C1844 C 0.67181 0.19429 0.31602 0.0
C1845 C 0.66798 0.21944 0.30235 0.0
N1846 N 0.68254 0.2661 0.29627 0.0
N1847 N 0.69985 0.16816 0.34717 0.0
C1848 C 0.681 0.2432 0.31196 0.0
C1849 C 0.69121 0.19277 0.33752 0.0
N1850 N 0.6961 0.2665 0.35182 0.0
N1851 N 0.65688 0.17202 0.30868 0.0
H1852 H 0.7128 0.16634 0.36388 0.0
H1853 H 0.69536 0.14973 0.33765 0.0
H1854 H 0.64308 0.17232 0.29256 0.0
H1855 H 0.65668 0.15411 0.32 0.0
H1856 H 0.68783 0.28479 0.34488 0.0
H1857 H 0.70332 0.26762 0.37157 0.0
H1858 H 0.69408 0.2831 0.30183 0.0
H1859 H 0.67487 0.26698 0.27657 0.0
C1860 C 0.74587 0.66347 0.31795 0.0
C1861 C 0.76489 0.66692 0.2967 0.0
C1862 C 0.79497 0.6926 0.32715 0.0
C1863 C 0.77538 0.68976 0.34817 0.0
N1864 N 0.74076 0.65963 0.36642 0.0
N1865 N 0.81114 0.67663 0.28349 0.0
C1866 C 0.75335 0.67127 0.34459 0.0
C1867 C 0.79055 0.67918 0.30193 0.0
N1868 N 0.72057 0.65306 0.31275 0.0
N1869 N 0.81799 0.70766 0.33143 0.0
H1870 H 0.80872 0.66652 0.26501 0.0
H1871 H 0.83119 0.68217 0.28765 0.0
H1872 H 0.82399 0.71403 0.35074 0.0
H1873 H 0.83093 0.71391 0.31585 0.0
H1874 H 0.70513 0.65266 0.32726 0.0
H1875 H 0.71428 0.6472 0.29335 0.0
H1876 H 0.72551 0.64494 0.36449 0.0
H1877 H 0.74855 0.66105 0.38605 0.0
C1878 C 0.32654 0.76716 0.35938 0.0
C1879 C 0.29959 0.77732 0.35955 0.0
C1880 C 0.30623 0.79633 0.31429 0.0
C1881 C 0.33027 0.78031 0.31157 0.0
N1882 N 0.36691 0.75628 0.33537 0.0
N1883 N 0.27128 0.81411 0.34436 0.0
C1884 C 0.34178 0.76792 0.33511 0.0
C1885 C 0.29159 0.79587 0.33914 0.0
N1886 N 0.33807 0.75733 0.38264 0.0
N1887 N 0.29739 0.81183 0.29303 0.0
H1888 H 0.26275 0.81608 0.36366 0.0
H1889 H 0.26529 0.82943 0.33103 0.0
H1890 H 0.30937 0.81558 0.27594 0.0
H1891 H 0.27812 0.82056 0.29216 0.0
H1892 H 0.35755 0.74887 0.38313 0.0
H1893 H 0.32914 0.76009 0.40166 0.0
H1894 H 0.38043 0.75614 0.31909 0.0
H1895 H 0.38043 0.75614 0.31909 0.0
C1896 C 0.18223 0.30282 0.35068 0.0
C1897 C 0.20612 0.30066 0.36679 0.0
C1898 C 0.22929 0.33404 0.33826 0.0
C1899 C 0.2064 0.33454 0.32058 0.0
N1900 N 0.15813 0.32754 0.31525 0.0
N1901 N 0.24429 0.32643 0.38432 0.0
C1902 C 0.18181 0.3215 0.32853 0.0
C1903 C 0.22706 0.32027 0.36344 0.0
N1904 N 0.16004 0.28714 0.35667 0.0
N1905 N 0.25377 0.3448 0.33053 0.0
H1906 H 0.241 0.31949 0.40404 0.0
H1907 H 0.2589 0.34182 0.38304 0.0
H1908 H 0.25718 0.35396 0.31179 0.0
H1909 H 0.27154 0.34208 0.34181 0.0
H1910 H 0.14339 0.28485 0.34376 0.0
H1911 H 0.15848 0.27627 0.37483 0.0
H1912 H 0.1391 0.32033 0.32119 0.0
H1913 H 0.15723 0.34205 0.29976 0.0
C1914 C 0.32708 0.22078 0.66737 0.0
C1915 C 0.34649 0.24068 0.67502 0.0
C1916 C 0.33781 0.26651 0.63344 0.0
C1917 C 0.31594 0.24845 0.62767 0.0
N1918 N 0.29725 0.20339 0.63205 0.0
N1919 N 0.37731 0.27622 0.66185 0.0
C1920 C 0.3133 0.22372 0.64226 0.0
C1921 C 0.35431 0.26144 0.65669 0.0
N1922 N 0.32077 0.20004 0.68482 0.0
N1923 N 0.34184 0.28905 0.61772 0.0
H1924 H 0.38976 0.27192 0.67848 0.0
H1925 H 0.38542 0.29065 0.64863 0.0
H1926 H 0.33111 0.29252 0.59982 0.0
H1927 H 0.35549 0.30455 0.62257 0.0
H1928 H 0.30457 0.18664 0.68191 0.0
H1929 H 0.33125 0.19699 0.70301 0.0
H1930 H 0.29585 0.18403 0.64061 0.0
H1931 H 0.28742 0.20525 0.61332 0.0
C1932 C 0.75269 0.33447 0.63248 0.0
C1933 C 0.73153 0.32533 0.61522 0.0
C1934 C 0.69837 0.35245 0.64013 0.0
C1935 C 0.71865 0.35843 0.65966 0.0
N1936 N 0.76678 0.36451 0.66889 0.0
N1937 N 0.689 0.33785 0.59407 0.0
C1938 C 0.74648 0.35282 0.65385 0.0
C1939 C 0.70583 0.33837 0.6161 0.0
N1940 N 0.77848 0.32473 0.62881 0.0
N1941 N 0.67197 0.35946 0.64504 0.0
H1942 H 0.69512 0.33004 0.57539 0.0
H1943 H 0.67063 0.3484 0.59325 0.0
H1944 H 0.66645 0.37092 0.66198 0.0
H1945 H 0.65573 0.35312 0.63298 0.0
H1946 H 0.79421 0.32716 0.6428 0.0
H1947 H 0.78386 0.31347 0.61165 0.0
H1948 H 0.7874 0.36237 0.6646 0.0
H1949 H 0.76326 0.37884 0.684 0.0
C1950 C 0.26243 0.6358 0.67262 0.0
C1951 C 0.24708 0.64553 0.69501 0.0
C1952 C 0.2229 0.6772 0.66501 0.0
C1953 C 0.24213 0.67158 0.64453 0.0
N1954 N 0.26824 0.63576 0.6237 0.0
N1955 N 0.21029 0.67337 0.71211 0.0
C1956 C 0.2584 0.64783 0.64665 0.0
C1957 C 0.22628 0.66529 0.69095 0.0
N1958 N 0.28176 0.6162 0.67637 0.0
N1959 N 0.20036 0.69231 0.65894 0.0
H1960 H 0.209 0.66265 0.73032 0.0
H1961 H 0.19947 0.69158 0.71191 0.0
H1962 H 0.19612 0.69872 0.63917 0.0
H1963 H 0.18434 0.69547 0.6724 0.0
H1964 H 0.29612 0.61103 0.66172 0.0
H1965 H 0.28432 0.60597 0.6947 0.0
H1966 H 0.27873 0.61735 0.62369 0.0
H1967 H 0.26239 0.64209 0.60434 0.0
C1968 C 0.12847 0.39761 0.21191 0.0
C1969 C 0.14582 0.40485 0.23361 0.0
C1970 C 0.11231 0.3888 0.26609 0.0
C1971 C 0.1018 0.3724 0.24491 0.0
N1972 N 0.08718 0.37334 0.19847 0.0
N1973 N 0.14591 0.42341 0.27859 0.0
C1974 C 0.10502 0.38175 0.21793 0.0
C1975 C 0.13436 0.40657 0.25986 0.0
N1976 N 0.13672 0.40275 0.18602 0.0
N1977 N 0.10252 0.38565 0.29177 0.0
H1978 H 0.16192 0.4364 0.27326 0.0
H1979 H 0.1386 0.4258 0.29828 0.0
H1980 H 0.08576 0.37305 0.29557 0.0
H1981 H 0.11058 0.39543 0.30872 0.0
H1982 H 0.1264 0.39596 0.16882 0.0
H1983 H 0.15452 0.41386 0.18233 0.0
H1984 H 0.08809 0.3796 0.17829 0.0
H1985 H 0.07035 0.3613 0.20356 0.0
C1986 C 0.65311 0.11451 0.21896 0.0
C1987 C 0.65778 0.11333 0.24736 0.0
C1988 C 0.61301 0.13294 0.25506 0.0
C1989 C 0.61476 0.14425 0.22868 0.0
N1990 N 0.62707 0.13607 0.18251 0.0
N1991 N 0.63837 0.11116 0.29174 0.0
C1992 C 0.6312 0.13083 0.20938 0.0
C1993 C 0.63597 0.11854 0.26519 0.0
N1994 N 0.67079 0.10194 0.20172 0.0
N1995 N 0.59024 0.1372 0.27023 0.0
H1996 H 0.65541 0.10043 0.29859 0.0
H1997 H 0.62403 0.11582 0.30658 0.0
H1998 H 0.57326 0.14699 0.26198 0.0
H1999 H 0.58737 0.12918 0.28959 0.0
H2000 H 0.6692 0.1025 0.18067 0.0
H2001 H 0.68634 0.08941 0.20891 0.0
H2002 H 0.63906 0.12843 0.16689 0.0
H2003 H 0.61078 0.14823 0.17621 0.0
C2004 C 0.8478 0.63191 0.1905 0.0
C2005 C 0.83493 0.61821 0.21226 0.0
C2006 C 0.86651 0.63845 0.24439 0.0
C2007 C 0.87338 0.65758 0.22415 0.0
N2008 N 0.88264 0.66467 0.17692 0.0
N2009 N 0.84371 0.59564 0.25473 0.0
C2010 C 0.86874 0.65098 0.19661 0.0
C2011 C 0.84869 0.61676 0.23747 0.0
N2012 N 0.83803 0.62837 0.16484 0.0
N2013 N 0.87491 0.64281 0.2704 0.0
H2014 H 0.83154 0.57917 0.24889 0.0
H2015 H 0.85388 0.59312 0.27313 0.0
H2016 H 0.88816 0.65883 0.27511 0.0
H2017 H 0.86818 0.63132 0.28688 0.0
H2018 H 0.84465 0.63946 0.14807 0.0
H2019 H 0.82275 0.61405 0.16083 0.0
H2020 H 0.88065 0.66064 0.15626 0.0
H2021 H 0.89772 0.67887 0.18186 0.0
C2022 C 0.35467 0.87235 0.2083 0.0
C2023 C 0.36816 0.85785 0.22912 0.0
C2024 C 0.34715 0.88671 0.26329 0.0
C2025 C 0.32803 0.89453 0.24336 0.0
N2026 N 0.32316 0.90902 0.19715 0.0
N2027 N 0.38902 0.86206 0.27312 0.0
C2028 C 0.33569 0.89282 0.21579 0.0
C2029 C 0.36884 0.86923 0.25553 0.0
N2030 N 0.35825 0.86455 0.182 0.0
N2031 N 0.34233 0.89339 0.28969 0.0
H2032 H 0.40533 0.84996 0.26694 0.0
H2033 H 0.39097 0.87021 0.29254 0.0
H2034 H 0.32604 0.90605 0.29486 0.0
H2035 H 0.35372 0.88608 0.30596 0.0
H2036 H 0.34703 0.87235 0.16582 0.0
H2037 H 0.3724 0.84952 0.17691 0.0
H2038 H 0.32824 0.90922 0.17662 0.0
H2039 H 0.30931 0.92397 0.20314 0.0
C2040 C 0.12854 0.64878 0.76685 0.0
C2041 C 0.12997 0.65258 0.73834 0.0
C2042 C 0.1629 0.61523 0.73592 0.0
C2043 C 0.16851 0.61914 0.76394 0.0
N2044 N 0.15312 0.63457 0.80742 0.0
N2045 N 0.14371 0.63532 0.69499 0.0
C2046 C 0.14963 0.63377 0.77995 0.0
C2047 C 0.14506 0.63378 0.72262 0.0
N2048 N 0.10783 0.6603 0.78123 0.0
N2049 N 0.17518 0.59457 0.72207 0.0
H2050 H 0.12986 0.64821 0.6853 0.0
H2051 H 0.15667 0.62476 0.682 0.0
H2052 H 0.18707 0.57994 0.73176 0.0
H2053 H 0.17099 0.59003 0.70184 0.0
H2054 H 0.1051 0.65742 0.80199 0.0
H2055 H 0.09164 0.67011 0.77167 0.0
H2056 H 0.14215 0.64732 0.82026 0.0
H2057 H 0.16796 0.62278 0.81704 0.0
C2058 C 0.33102 0.1569 0.79754 0.0
C2059 C 0.34209 0.16338 0.77183 0.0
C2060 C 0.31058 0.13177 0.74969 0.0
C2061 C 0.29656 0.12928 0.77462 0.0
N2062 N 0.29776 0.13054 0.82319 0.0
N2063 N 0.35027 0.14929 0.72579 0.0
C2064 C 0.30867 0.13853 0.79899 0.0
C2065 C 0.33474 0.14782 0.74871 0.0
N2066 N 0.3409 0.16984 0.82005 0.0
N2067 N 0.29955 0.12053 0.72682 0.0
H2068 H 0.3681 0.16082 0.72494 0.0
H2069 H 0.34691 0.13742 0.7086 0.0
H2070 H 0.28239 0.10794 0.72762 0.0
H2071 H 0.30682 0.12408 0.70729 0.0
H2072 H 0.3323 0.16831 0.83929 0.0
H2073 H 0.35796 0.18256 0.81905 0.0
H2074 H 0.30588 0.13552 0.84206 0.0
H2075 H 0.28146 0.11689 0.82392 0.0
C2076 C 0.80915 0.33076 0.73348 0.0
C2077 C 0.78122 0.32325 0.73131 0.0
C2078 C 0.79487 0.2773 0.71887 0.0
C2079 C 0.82275 0.28522 0.71715 0.0
N2080 N 0.85468 0.32287 0.71604 0.0
N2081 N 0.74998 0.2926 0.70812 0.0
C2082 C 0.82941 0.31309 0.72226 0.0
C2083 C 0.77486 0.29767 0.7194 0.0
N2084 N 0.81666 0.35379 0.74711 0.0
N2085 N 0.78692 0.25086 0.72263 0.0
H2086 H 0.73562 0.30782 0.70496 0.0
H2087 H 0.74542 0.27415 0.6986 0.0
H2088 H 0.80012 0.23523 0.72802 0.0
H2089 H 0.7665 0.24546 0.72511 0.0
H2090 H 0.83695 0.35864 0.75109 0.0
H2091 H 0.80277 0.36643 0.75688 0.0
H2092 H 0.85975 0.34345 0.71763 0.0
H2093 H 0.86932 0.31107 0.70624 0.0
C2094 C 0.67987 0.83893 0.71844 0.0
C2095 C 0.70744 0.83254 0.71168 0.0
C2096 C 0.69496 0.78443 0.71227 0.0
C2097 C 0.67003 0.79023 0.72544 0.0
N2098 N 0.63905 0.82422 0.74244 0.0
N2099 N 0.74193 0.79663 0.71292 0.0
C2100 C 0.66232 0.81789 0.72876 0.0
C2101 C 0.71529 0.80458 0.71127 0.0
N2102 N 0.67027 0.86471 0.71451 0.0
N2103 N 0.69962 0.75941 0.7012 0.0
H2104 H 0.75792 0.80969 0.71768 0.0
H2105 H 0.7476 0.77619 0.7143 0.0
H2106 H 0.68441 0.74466 0.69967 0.0
H2107 H 0.71751 0.75483 0.69083 0.0
H2108 H 0.64988 0.86989 0.71721 0.0
H2109 H 0.682 0.88005 0.70564 0.0
H2110 H 0.63392 0.84411 0.74776 0.0
H2111 H 0.62596 0.80938 0.75018 0.0
C2112 C 0.19302 0.13853 0.3486 0.0
C2113 C 0.21282 0.15279 0.36394 0.0
C2114 C 0.24895 0.12611 0.34293 0.0
C2115 C 0.22994 0.11765 0.32307 0.0
N2116 N 0.18385 0.10142 0.31728 0.0
N2117 N 0.25583 0.14794 0.38687 0.0
C2118 C 0.20179 0.11883 0.32942 0.0
C2119 C 0.23963 0.1422 0.36512 0.0
N2120 N 0.16625 0.14531 0.35129 0.0
N2121 N 0.27567 0.11929 0.33987 0.0
H2122 H 0.24829 0.15799 0.40394 0.0
H2123 H 0.27546 0.14035 0.38925 0.0
H2124 H 0.28204 0.10663 0.32405 0.0
H2125 H 0.29116 0.12588 0.35272 0.0
H2126 H 0.15095 0.1382 0.33843 0.0
H2127 H 0.15981 0.15895 0.36626 0.0
H2128 H 0.16319 0.10081 0.32196 0.0
H2129 H 0.19033 0.08517 0.3053 0.0
C2130 C 0.88585 0.24626 0.34701 0.0
C2131 C 0.87918 0.27298 0.33848 0.0
C2132 C 0.84171 0.27363 0.37092 0.0
C2133 C 0.84228 0.24466 0.37059 0.0
N2134 N 0.86839 0.20381 0.3659 0.0
N2135 N 0.86003 0.31571 0.35146 0.0
C2136 C 0.86598 0.23114 0.36167 0.0
C2137 C 0.86049 0.28805 0.35419 0.0
N2138 N 0.91062 0.23561 0.34057 0.0
N2139 N 0.82227 0.28685 0.38565 0.0
H2140 H 0.87447 0.32575 0.33947 0.0
H2141 H 0.84638 0.32856 0.36122 0.0
H2142 H 0.80947 0.27661 0.3991 0.0
H2143 H 0.81966 0.30787 0.38587 0.0
H2144 H 0.91717 0.21649 0.34696 0.0
H2145 H 0.92556 0.24746 0.33113 0.0
H2146 H 0.88392 0.19198 0.3577 0.0
H2147 H 0.85397 0.19306 0.37728 0.0
C2148 C 0.7165 0.85486 0.35891 0.0
C2149 C 0.73424 0.87183 0.34381 0.0
C2150 C 0.77349 0.8527 0.36725 0.0
C2151 C 0.75657 0.83147 0.37686 0.0
N2152 N 0.71194 0.81932 0.39316 0.0
N2153 N 0.77566 0.89795 0.3473 0.0
C2154 C 0.72791 0.83525 0.37696 0.0
C2155 C 0.76151 0.87467 0.3528 0.0
N2156 N 0.68913 0.85668 0.35454 0.0
N2157 N 0.80099 0.85069 0.37041 0.0
H2158 H 0.76622 0.91488 0.3386 0.0
H2159 H 0.79534 0.90156 0.35437 0.0
H2160 H 0.80968 0.83492 0.38172 0.0
H2161 H 0.81482 0.86388 0.36117 0.0
H2162 H 0.67484 0.8432 0.3625 0.0
H2163 H 0.68098 0.87206 0.34233 0.0
H2164 H 0.6909 0.82126 0.39461 0.0
H2165 H 0.72021 0.80577 0.40721 0.0
C2166 C 0.13773 0.75343 0.3688 0.0
C2167 C 0.15882 0.73619 0.37811 0.0
C2168 C 0.13755 0.69736 0.35559 0.0
C2169 C 0.1212 0.71597 0.34087 0.0
N2170 N 0.09394 0.75638 0.34592 0.0
N2171 N 0.16913 0.69065 0.39311 0.0
C2172 C 0.11708 0.7423 0.35187 0.0
C2173 C 0.15527 0.70759 0.37608 0.0
N2174 N 0.13874 0.78056 0.37469 0.0
N2175 N 0.13706 0.67045 0.34871 0.0
H2176 H 0.18058 0.69813 0.40933 0.0
H2177 H 0.16675 0.66957 0.39319 0.0
H2178 H 0.12296 0.66292 0.33467 0.0
H2179 H 0.1506 0.65606 0.35635 0.0
H2180 H 0.12574 0.7949 0.36604 0.0
H2181 H 0.15345 0.78846 0.38788 0.0
H2182 H 0.08939 0.77531 0.3543 0.0
H2183 H 0.07791 0.74737 0.33524 0.0
C2184 C 0.23555 0.8343 0.62145 0.0
C2185 C 0.25738 0.816 0.61761 0.0
C2186 C 0.28852 0.84777 0.63976 0.0
C2187 C 0.26556 0.86197 0.64968 0.0
N2188 N 0.22104 0.87867 0.6381 0.0
N2189 N 0.3057 0.81123 0.61109 0.0
C2190 C 0.24031 0.85882 0.63613 0.0
C2191 C 0.2844 0.82509 0.62223 0.0
N2192 N 0.21023 0.82714 0.61254 0.0
N2193 N 0.31371 0.8548 0.64917 0.0
H2194 H 0.30276 0.79512 0.59762 0.0
H2195 H 0.32596 0.81711 0.61314 0.0
H2196 H 0.31644 0.87191 0.66152 0.0
H2197 H 0.33138 0.84381 0.64528 0.0
H2198 H 0.19264 0.83806 0.61698 0.0
H2199 H 0.20712 0.80945 0.60113 0.0
H2200 H 0.20241 0.87795 0.62804 0.0
H2201 H 0.22518 0.89729 0.64745 0.0
C2202 C 0.16318 0.30039 0.64243 0.0
C2203 C 0.17357 0.27509 0.63356 0.0
C2204 C 0.13624 0.25161 0.6566 0.0
C2205 C 0.13149 0.27568 0.67173 0.0
N2206 N 0.13567 0.32417 0.67595 0.0
N2207 N 0.16803 0.22691 0.62784 0.0
C2208 C 0.14296 0.30067 0.66307 0.0
C2209 C 0.15889 0.25082 0.63862 0.0
N2210 N 0.17374 0.3238 0.63185 0.0
N2211 N 0.11976 0.22951 0.66028 0.0
H2212 H 0.18408 0.22646 0.61394 0.0
H2213 H 0.16035 0.20784 0.6331 0.0
H2214 H 0.10302 0.23002 0.67329 0.0
H2215 H 0.1212 0.21172 0.64886 0.0
H2216 H 0.16666 0.34322 0.63648 0.0
H2217 H 0.18823 0.32316 0.61638 0.0
H2218 H 0.14509 0.34292 0.67275 0.0
H2219 H 0.12012 0.32448 0.69042 0.0
C2220 C 0.73487 0.14413 0.66387 0.0
C2221 C 0.76102 0.13943 0.67481 0.0
C2222 C 0.78072 0.17438 0.64558 0.0
C2223 C 0.75404 0.182 0.63796 0.0
N2224 N 0.70783 0.16757 0.62982 0.0
N2225 N 0.80935 0.14168 0.66922 0.0
C2226 C 0.73178 0.16441 0.64349 0.0
C2227 C 0.78421 0.15153 0.66286 0.0
N2228 N 0.713 0.13062 0.67444 0.0
N2229 N 0.80228 0.19001 0.63752 0.0
H2230 H 0.81151 0.12471 0.68178 0.0
H2231 H 0.82733 0.1485 0.66035 0.0
H2232 H 0.79996 0.20611 0.62382 0.0
H2233 H 0.82207 0.18748 0.64466 0.0
H2234 H 0.69287 0.13533 0.66976 0.0
H2235 H 0.71533 0.11505 0.68872 0.0
H2236 H 0.69134 0.15436 0.63186 0.0
H2237 H 0.70545 0.18203 0.6145 0.0
C2238 C 0.80611 0.78211 0.65687 0.0
C2239 C 0.80383 0.75544 0.64614 0.0
C2240 C 0.84126 0.73983 0.67517 0.0
C2241 C 0.84137 0.76564 0.68802 0.0
N2242 N 0.82942 0.81318 0.68752 0.0
N2243 N 0.82547 0.71215 0.63749 0.0
C2244 C 0.82572 0.78749 0.67743 0.0
C2245 C 0.82369 0.73543 0.65259 0.0
N2246 N 0.78847 0.80175 0.64807 0.0
N2247 N 0.8565 0.71908 0.68571 0.0
H2248 H 0.81339 0.70849 0.62052 0.0
H2249 H 0.84082 0.69776 0.63993 0.0
H2250 H 0.87011 0.72186 0.70176 0.0
H2251 H 0.85462 0.69883 0.67967 0.0
H2252 H 0.78656 0.82096 0.65677 0.0
H2253 H 0.77523 0.79842 0.63179 0.0
H2254 H 0.81999 0.83048 0.67985 0.0
H2255 H 0.84347 0.81744 0.70282 0.0
C2256 C 0.36809 0.26358 0.13015 0.0
C2257 C 0.34938 0.24665 0.11625 0.0
C2258 C 0.36841 0.20674 0.13884 0.0
C2259 C 0.37981 0.22454 0.15833 0.0
N2260 N 0.40501 0.26634 0.16311 0.0
N2261 N 0.34244 0.20242 0.0967 0.0
C2262 C 0.38493 0.25186 0.15055 0.0
C2263 C 0.3538 0.21815 0.11652 0.0
N2264 N 0.36735 0.29097 0.12565 0.0
N2265 N 0.37043 0.17937 0.14294 0.0
H2266 H 0.33254 0.21119 0.0801 0.0
H2267 H 0.3445 0.18136 0.09562 0.0
H2268 H 0.38148 0.17163 0.15937 0.0
H2269 H 0.36144 0.16473 0.13054 0.0
H2270 H 0.37824 0.30516 0.13704 0.0
H2271 H 0.35489 0.29917 0.11049 0.0
H2272 H 0.41028 0.28619 0.15776 0.0
H2273 H 0.41832 0.25713 0.17684 0.0
C2274 C 0.37496 0.74133 0.85468 0.0
C2275 C 0.37795 0.76711 0.84215 0.0
C2276 C 0.34292 0.78525 0.87207 0.0
C2277 C 0.33327 0.75824 0.87536 0.0
N2278 N 0.34332 0.71063 0.87751 0.0
N2279 N 0.3714 0.81527 0.84469 0.0
C2280 C 0.35089 0.73626 0.86989 0.0
C2281 C 0.36475 0.78984 0.85371 0.0
N2282 N 0.39409 0.72172 0.8505 0.0
N2283 N 0.33006 0.80615 0.88497 0.0
H2284 H 0.38762 0.81819 0.83126 0.0
H2285 H 0.3608 0.83286 0.84986 0.0
H2286 H 0.31426 0.80266 0.89869 0.0
H2287 H 0.33653 0.82634 0.88399 0.0
H2288 H 0.39344 0.70256 0.85956 0.0
H2289 H 0.41204 0.72591 0.83994 0.0
H2290 H 0.35384 0.69308 0.87205 0.0
H2291 H 0.32576 0.70734 0.88905 0.0
C2292 C 0.24332 0.27635 0.80166 0.0
C2293 C 0.24778 0.28218 0.82958 0.0
C2294 C 0.24648 0.331 0.81772 0.0
C2295 C 0.2471 0.32423 0.78959 0.0
N2296 N 0.25928 0.28845 0.75755 0.0
N2297 N 0.25919 0.31643 0.86312 0.0
C2298 C 0.24963 0.29634 0.78232 0.0
C2299 C 0.25101 0.30997 0.83743 0.0
N2300 N 0.23147 0.25262 0.79318 0.0
N2301 N 0.24069 0.35693 0.82581 0.0
H2302 H 0.26429 0.30172 0.87752 0.0
H2303 H 0.26385 0.33631 0.86901 0.0
H2304 H 0.23579 0.37244 0.8122 0.0
H2305 H 0.23785 0.36217 0.84613 0.0
H2306 H 0.22707 0.24896 0.77276 0.0
H2307 H 0.22226 0.23883 0.80638 0.0
H2308 H 0.26236 0.26797 0.7527 0.0
H2309 H 0.26794 0.302 0.74376 0.0
C2310 C 0.63849 0.28291 0.83802 0.0
C2311 C 0.62938 0.2594 0.82418 0.0
C2312 C 0.65634 0.23099 0.85454 0.0
C2313 C 0.6716 0.25443 0.86146 0.0
N2314 N 0.67426 0.30295 0.86588 0.0
N2315 N 0.62459 0.21084 0.82229 0.0
C2316 C 0.66111 0.2806 0.85583 0.0
C2317 C 0.63607 0.23325 0.83408 0.0
N2318 N 0.62631 0.30726 0.83275 0.0
N2319 N 0.66229 0.20675 0.86667 0.0
H2320 H 0.60919 0.21263 0.80775 0.0
H2321 H 0.6306 0.19093 0.82641 0.0
H2322 H 0.6771 0.20536 0.88183 0.0
H2323 H 0.65121 0.18893 0.86347 0.0
H2324 H 0.6312 0.32536 0.84265 0.0
H2325 H 0.60947 0.30839 0.81986 0.0
H2326 H 0.6695 0.32291 0.86059 0.0
H2327 H 0.69048 0.30102 0.87949 0.0
C2328 C 0.79281 0.63039 0.85537 0.0
C2329 C 0.76663 0.62177 0.84713 0.0
C2330 C 0.74556 0.65572 0.87638 0.0
C2331 C 0.77135 0.66821 0.87917 0.0
N2332 N 0.81954 0.66228 0.88249 0.0
N2333 N 0.71999 0.61643 0.85993 0.0
C2334 C 0.79508 0.65323 0.873 0.0
C2335 C 0.74364 0.63084 0.86169 0.0
N2336 N 0.81504 0.61825 0.84412 0.0
N2337 N 0.72305 0.66899 0.88563 0.0
H2338 H 0.71904 0.59821 0.84899 0.0
H2339 H 0.70253 0.62119 0.87091 0.0
H2340 H 0.72473 0.68706 0.89674 0.0
H2341 H 0.7032 0.66251 0.88186 0.0
H2342 H 0.83496 0.62491 0.84707 0.0
H2343 H 0.81297 0.60135 0.83136 0.0
H2344 H 0.83786 0.6521 0.87948 0.0
H2345 H 0.82071 0.67921 0.8953 0.0
C2346 C 0.6415 0.73129 0.13322 0.0
C2347 C 0.6539 0.75455 0.12168 0.0
C2348 C 0.62767 0.78431 0.15114 0.0
C2349 C 0.62042 0.76117 0.16658 0.0
N2350 N 0.60883 0.71345 0.16581 0.0
N2351 N 0.64705 0.8014 0.10905 0.0
C2352 C 0.62287 0.73486 0.15497 0.0
C2353 C 0.64253 0.78052 0.12674 0.0
N2354 N 0.64969 0.7061 0.1249 0.0
N2355 N 0.62211 0.80965 0.16102 0.0
H2356 H 0.65688 0.79829 0.09054 0.0
H2357 H 0.63845 0.82065 0.11125 0.0
H2358 H 0.61054 0.8123 0.17862 0.0
H2359 H 0.62958 0.82755 0.15241 0.0
H2360 H 0.644 0.688 0.13438 0.0
H2361 H 0.66303 0.70381 0.10853 0.0
H2362 H 0.60913 0.69387 0.15771 0.0
H2363 H 0.59479 0.71604 0.18145 0.0
C2364 C 0.22278 0.61716 0.13674 0.0
C2365 C 0.245 0.60863 0.15282 0.0
C2366 C 0.27615 0.63573 0.12565 0.0
C2367 C 0.2533 0.6496 0.11502 0.0
N2368 N 0.20769 0.64375 0.09787 0.0
N2369 N 0.29237 0.59661 0.15133 0.0
C2370 C 0.2275 0.63665 0.11592 0.0
C2371 C 0.27168 0.61306 0.14299 0.0
N2372 N 0.19723 0.60856 0.14337 0.0
N2373 N 0.3016 0.64572 0.1208 0.0
H2374 H 0.28865 0.57939 0.16323 0.0
H2375 H 0.31224 0.59836 0.14414 0.0
H2376 H 0.30468 0.66207 0.10754 0.0
H2377 H 0.31906 0.63842 0.13033 0.0
H2378 H 0.17955 0.61625 0.13459 0.0
H2379 H 0.19421 0.59398 0.15856 0.0
H2380 H 0.18868 0.63436 0.09711 0.0
H2381 H 0.21161 0.6569 0.08169 0.0
C2382 C 0.71746 0.37572 0.15238 0.0
C2383 C 0.74466 0.37896 0.16125 0.0
C2384 C 0.76007 0.35391 0.12162 0.0
C2385 C 0.73412 0.34134 0.12105 0.0
N2386 N 0.68615 0.34599 0.12792 0.0
N2387 N 0.79187 0.37978 0.14959 0.0
C2388 C 0.71192 0.35496 0.1331 0.0
C2389 C 0.766 0.37167 0.14359 0.0
N2390 N 0.69736 0.39104 0.16371 0.0
N2391 N 0.77891 0.34768 0.10233 0.0
H2392 H 0.7957 0.39297 0.16582 0.0
H2393 H 0.80904 0.37305 0.13919 0.0
H2394 H 0.77396 0.33551 0.08565 0.0
H2395 H 0.7981 0.35668 0.10138 0.0
H2396 H 0.67705 0.39001 0.15769 0.0
H2397 H 0.70179 0.40668 0.17738 0.0
H2398 H 0.66894 0.35305 0.13803 0.0
H2399 H 0.68254 0.33076 0.11352 0.0
loop_
_geom_bond_atom_site_label_1
_geom_bond_atom_site_label_2
_geom_bond_distance
_geom_bond_site_symmetry_2
_ccdc_geom_bond_type
Co0 O1 2.216 . S
Co0 O2 2.091 . S
Co0 O4 2.004 . S
Co0 O10 2.021 . S
Co0 O12 2.137 . S
Co0 O13 2.244 . S
O1 Co0 2.216 . S
O1 C8 1.247 . S
O2 Co0 2.091 . S
O2 C8 1.261 . S
C3 O12 1.247 . S
C3 O13 1.272 . S
O4 Co0 2.004 . S
O4 C9 1.259 . S
Co5 O6 2.061 . S
Co5 O11 2.052 . S
Co5 O13 2.135 . S
O6 Co5 2.061 . S
O6 C9 1.235 . S
C7 O10 1.238 . S
C7 O11 1.241 . S
C8 O1 1.247 . S
C8 O2 1.261 . S
C9 O4 1.259 . S
C9 O6 1.235 . S
O10 Co0 2.021 . S
O10 C7 1.238 . S
O11 Co5 2.052 . S
O11 C7 1.241 . S
O12 Co0 2.137 . S
O12 C3 1.247 . S
O13 Co0 2.244 . S
O13 C3 1.272 . S
O13 Co5 2.135 . S
Co14 O15 2.216 . S
Co14 O16 2.091 . S
Co14 O18 2.004 . S
Co14 O24 2.021 . S
Co14 O26 2.137 . S
Co14 O27 2.244 . S
O15 Co14 2.216 . S
O15 C22 1.247 . S
O16 Co14 2.091 . S
O16 C22 1.261 . S
C17 O26 1.247 . S
C17 O27 1.272 . S
O18 Co14 2.004 . S
O18 C23 1.259 . S
Co19 O20 2.061 . S
Co19 O25 2.052 . S
Co19 O27 2.135 . S
O20 Co19 2.061 . S
O20 C23 1.235 . S
C21 O24 1.238 . S
C21 O25 1.241 . S
C22 O15 1.247 . S
C22 O16 1.261 . S
C23 O18 1.259 . S
C23 O20 1.235 . S
O24 Co14 2.021 . S
O24 C21 1.238 . S
O25 Co19 2.052 . S
O25 C21 1.241 . S
O26 Co14 2.137 . S
O26 C17 1.247 . S
O27 Co14 2.244 . S
O27 C17 1.272 . S
O27 Co19 2.135 . S
Co28 O29 2.216 . S
Co28 O30 2.091 . S
Co28 O32 2.004 . S
Co28 O38 2.021 . S
Co28 O40 2.137 . S
Co28 O41 2.244 . S
O29 Co28 2.216 . S
O29 C36 1.247 . S
O30 Co28 2.091 . S
O30 C36 1.261 . S
C31 O40 1.247 . S
C31 O41 1.272 . S
O32 Co28 2.004 . S
O32 C37 1.259 . S
Co33 O34 2.061 . S
Co33 O39 2.052 . S
Co33 O41 2.135 . S
O34 Co33 2.061 . S
O34 C37 1.235 . S
C35 O38 1.238 . S
C35 O39 1.241 . S
C36 O29 1.247 . S
C36 O30 1.261 . S
C37 O32 1.259 . S
C37 O34 1.235 . S
O38 Co28 2.021 . S
O38 C35 1.238 . S
O39 Co33 2.052 . S
O39 C35 1.241 . S
O40 Co28 2.137 . S
O40 C31 1.247 . S
O41 Co28 2.244 . S
O41 C31 1.272 . S
O41 Co33 2.135 . S
Co42 O43 2.216 . S
Co42 O44 2.091 . S
Co42 O46 2.004 . S
Co42 O52 2.021 . S
Co42 O54 2.137 . S
Co42 O55 2.244 . S
O43 Co42 2.216 . S
O43 C50 1.247 . S
O44 Co42 2.091 . S
O44 C50 1.261 . S
C45 O54 1.247 . S
C45 O55 1.272 . S
O46 Co42 2.004 . S
O46 C51 1.259 . S
Co47 O48 2.061 . S
Co47 O53 2.052 . S
Co47 O55 2.135 . S
O48 Co47 2.061 . S
O48 C51 1.235 . S
C49 O52 1.238 . S
C49 O53 1.241 . S
C50 O43 1.247 . S
C50 O44 1.261 . S
C51 O46 1.259 . S
C51 O48 1.235 . S
O52 Co42 2.021 . S
O52 C49 1.238 . S
O53 Co47 2.052 . S
O53 C49 1.241 . S
O54 Co42 2.137 . S
O54 C45 1.247 . S
O55 Co42 2.244 . S
O55 C45 1.272 . S
O55 Co47 2.135 . S
Co56 O57 2.216 . S
Co56 O58 2.091 . S
Co56 O60 2.004 . S
Co56 O66 2.021 . S
Co56 O68 2.137 . S
Co56 O69 2.244 . S
O57 Co56 2.216 . S
O57 C64 1.247 . S
O58 Co56 2.091 . S
O58 C64 1.261 . S
C59 O68 1.247 . S
C59 O69 1.272 . S
O60 Co56 2.004 . S
O60 C65 1.259 . S
Co61 O62 2.061 . S
Co61 O67 2.052 . S
Co61 O69 2.135 . S
O62 Co61 2.061 . S
O62 C65 1.235 . S
C63 O66 1.238 . S
C63 O67 1.241 . S
C64 O57 1.247 . S
C64 O58 1.261 . S
C65 O60 1.259 . S
C65 O62 1.235 . S
O66 Co56 2.021 . S
O66 C63 1.238 . S
O67 Co61 2.052 . S
O67 C63 1.241 . S
O68 Co56 2.137 . S
O68 C59 1.247 . S
O69 Co56 2.244 . S
O69 C59 1.272 . S
O69 Co61 2.135 . S
Co70 O71 2.216 . S
Co70 O72 2.091 . S
Co70 O74 2.004 . S
Co70 O80 2.021 . S
Co70 O82 2.137 . S
Co70 O83 2.244 . S
O71 Co70 2.216 . S
O71 C78 1.247 . S
O72 Co70 2.091 . S
O72 C78 1.261 . S
C73 O82 1.247 . S
C73 O83 1.272 . S
O74 Co70 2.004 . S
O74 C79 1.259 . S
Co75 O76 2.061 . S
Co75 O81 2.052 . S
Co75 O83 2.135 . S
O76 Co75 2.061 . S
O76 C79 1.235 . S
C77 O80 1.238 . S
C77 O81 1.241 . S
C78 O71 1.247 . S
C78 O72 1.261 . S
C79 O74 1.259 . S
C79 O76 1.235 . S
O80 Co70 2.021 . S
O80 C77 1.238 . S
O81 Co75 2.052 . S
O81 C77 1.241 . S
O82 Co70 2.137 . S
O82 C73 1.247 . S
O83 Co70 2.244 . S
O83 C73 1.272 . S
O83 Co75 2.135 . S
Co84 O85 2.216 . S
Co84 O86 2.091 . S
Co84 O88 2.004 . S
Co84 O94 2.021 . S
Co84 O96 2.137 . S
Co84 O97 2.244 . S
O85 Co84 2.216 . S
O85 C92 1.247 . S
O86 Co84 2.091 . S
O86 C92 1.261 . S
C87 O96 1.247 . S
C87 O97 1.272 . S
O88 Co84 2.004 . S
O88 C93 1.259 . S
Co89 O90 2.061 . S
Co89 O95 2.052 . S
Co89 O97 2.135 . S
O90 Co89 2.061 . S
O90 C93 1.235 . S
C91 O94 1.238 . S
C91 O95 1.241 . S
C92 O85 1.247 . S
C92 O86 1.261 . S
C93 O88 1.259 . S
C93 O90 1.235 . S
O94 Co84 2.021 . S
O94 C91 1.238 . S
O95 Co89 2.052 . S
O95 C91 1.241 . S
O96 Co84 2.137 . S
O96 C87 1.247 . S
O97 Co84 2.244 . S
O97 C87 1.272 . S
O97 Co89 2.135 . S
Co98 O99 2.216 . S
Co98 O100 2.091 . S
Co98 O102 2.004 . S
Co98 O108 2.021 . S
Co98 O110 2.137 . S
Co98 O111 2.244 . S
O99 Co98 2.216 . S
O99 C106 1.247 . S
O100 Co98 2.091 . S
O100 C106 1.261 . S
C101 O110 1.247 . S
C101 O111 1.272 . S
O102 Co98 2.004 . S
O102 C107 1.259 . S
Co103 O104 2.061 . S
Co103 O109 2.052 . S
Co103 O111 2.135 . S
O104 Co103 2.061 . S
O104 C107 1.235 . S
C105 O108 1.238 . S
C105 O109 1.241 . S
C106 O99 1.247 . S
C106 O100 1.261 . S
C107 O102 1.259 . S
C107 O104 1.235 . S
O108 Co98 2.021 . S
O108 C105 1.238 . S
O109 Co103 2.052 . S
O109 C105 1.241 . S
O110 Co98 2.137 . S
O110 C101 1.247 . S
O111 Co98 2.244 . S
O111 C101 1.272 . S
O111 Co103 2.135 . S
Co112 O113 2.216 . S
Co112 O114 2.091 . S
Co112 O116 2.004 . S
Co112 O122 2.021 . S
Co112 O124 2.137 . S
Co112 O125 2.244 . S
O113 Co112 2.216 . S
O113 C120 1.247 . S
O114 Co112 2.091 . S
O114 C120 1.261 . S
C115 O124 1.247 . S
C115 O125 1.272 . S
O116 Co112 2.004 . S
O116 C121 1.259 . S
Co117 O118 2.061 . S
Co117 O123 2.052 . S
Co117 O125 2.135 . S
O118 Co117 2.061 . S
O118 C121 1.235 . S
C119 O122 1.238 . S
C119 O123 1.241 . S
C120 O113 1.247 . S
C120 O114 1.261 . S
C121 O116 1.259 . S
C121 O118 1.235 . S
O122 Co112 2.021 . S
O122 C119 1.238 . S
O123 Co117 2.052 . S
O123 C119 1.241 . S
O124 Co112 2.137 . S
O124 C115 1.247 . S
O125 Co112 2.244 . S
O125 C115 1.272 . S
O125 Co117 2.135 . S
Co126 O127 2.216 . S
Co126 O128 2.091 . S
Co126 O130 2.004 . S
Co126 O136 2.021 . S
Co126 O138 2.137 . S
Co126 O139 2.244 . S
O127 Co126 2.216 . S
O127 C134 1.247 . S
O128 Co126 2.091 . S
O128 C134 1.261 . S
C129 O138 1.247 . S
C129 O139 1.272 . S
O130 Co126 2.004 . S
O130 C135 1.259 . S
Co131 O132 2.061 . S
Co131 O137 2.052 . S
Co131 O139 2.135 . S
O132 Co131 2.061 . S
O132 C135 1.235 . S
C133 O136 1.238 . S
C133 O137 1.241 . S
C134 O127 1.247 . S
C134 O128 1.261 . S
C135 O130 1.259 . S
C135 O132 1.235 . S
O136 Co126 2.021 . S
O136 C133 1.238 . S
O137 Co131 2.052 . S
O137 C133 1.241 . S
O138 Co126 2.137 . S
O138 C129 1.247 . S
O139 Co126 2.244 . S
O139 C129 1.272 . S
O139 Co131 2.135 . S
Co140 O141 2.216 . S
Co140 O142 2.091 . S
Co140 O144 2.004 . S
Co140 O150 2.021 . S
Co140 O152 2.137 . S
Co140 O153 2.244 . S
O141 Co140 2.216 . S
O141 C148 1.247 . S
O142 Co140 2.091 . S
O142 C148 1.261 . S
C143 O152 1.247 . S
C143 O153 1.272 . S
O144 Co140 2.004 . S
O144 C149 1.259 . S
Co145 O146 2.061 . S
Co145 O151 2.052 . S
Co145 O153 2.135 . S
O146 Co145 2.061 . S
O146 C149 1.235 . S
C147 O150 1.238 . S
C147 O151 1.241 . S
C148 O141 1.247 . S
C148 O142 1.261 . S
C149 O144 1.259 . S
C149 O146 1.235 . S
O150 Co140 2.021 . S
O150 C147 1.238 . S
O151 Co145 2.052 . S
O151 C147 1.241 . S
O152 Co140 2.137 . S
O152 C143 1.247 . S
O153 Co140 2.244 . S
O153 C143 1.272 . S
O153 Co145 2.135 . S
Co154 O155 2.216 . S
Co154 O156 2.091 . S
Co154 O158 2.004 . S
Co154 O164 2.021 . S
Co154 O166 2.137 . S
Co154 O167 2.244 . S
O155 Co154 2.216 . S
O155 C162 1.247 . S
O156 Co154 2.091 . S
O156 C162 1.261 . S
C157 O166 1.247 . S
C157 O167 1.272 . S
O158 Co154 2.004 . S
O158 C163 1.259 . S
Co159 O160 2.061 . S
Co159 O165 2.052 . S
Co159 O167 2.135 . S
O160 Co159 2.061 . S
O160 C163 1.235 . S
C161 O164 1.238 . S
C161 O165 1.241 . S
C162 O155 1.247 . S
C162 O156 1.261 . S
C163 O158 1.259 . S
C163 O160 1.235 . S
O164 Co154 2.021 . S
O164 C161 1.238 . S
O165 Co159 2.052 . S
O165 C161 1.241 . S
O166 Co154 2.137 . S
O166 C157 1.247 . S
O167 Co154 2.244 . S
O167 C157 1.272 . S
O167 Co159 2.135 . S
Co168 O169 2.216 . S
Co168 O170 2.091 . S
Co168 O172 2.004 . S
Co168 O178 2.021 . S
Co168 O180 2.137 . S
Co168 O181 2.244 . S
O169 Co168 2.216 . S
O169 C176 1.247 . S
O170 Co168 2.091 . S
O170 C176 1.261 . S
C171 O180 1.247 . S
C171 O181 1.272 . S
O172 Co168 2.004 . S
O172 C177 1.259 . S
Co173 O174 2.061 . S
Co173 O179 2.052 . S
Co173 O181 2.135 . S
O174 Co173 2.061 . S
O174 C177 1.235 . S
C175 O178 1.238 . S
C175 O179 1.241 . S
C176 O169 1.247 . S
C176 O170 1.261 . S
C177 O172 1.259 . S
C177 O174 1.235 . S
O178 Co168 2.021 . S
O178 C175 1.238 . S
O179 Co173 2.052 . S
O179 C175 1.241 . S
O180 Co168 2.137 . S
O180 C171 1.247 . S
O181 Co168 2.244 . S
O181 C171 1.272 . S
O181 Co173 2.135 . S
Co182 O183 2.216 . S
Co182 O184 2.091 . S
Co182 O186 2.004 . S
Co182 O192 2.021 . S
Co182 O194 2.137 . S
Co182 O195 2.244 . S
O183 Co182 2.216 . S
O183 C190 1.247 . S
O184 Co182 2.091 . S
O184 C190 1.261 . S
C185 O194 1.247 . S
C185 O195 1.272 . S
O186 Co182 2.004 . S
O186 C191 1.259 . S
Co187 O188 2.061 . S
Co187 O193 2.052 . S
Co187 O195 2.135 . S
O188 Co187 2.061 . S
O188 C191 1.235 . S
C189 O192 1.238 . S
C189 O193 1.241 . S
C190 O183 1.247 . S
C190 O184 1.261 . S
C191 O186 1.259 . S
C191 O188 1.235 . S
O192 Co182 2.021 . S
O192 C189 1.238 . S
O193 Co187 2.052 . S
O193 C189 1.241 . S
O194 Co182 2.137 . S
O194 C185 1.247 . S
O195 Co182 2.244 . S
O195 C185 1.272 . S
O195 Co187 2.135 . S
Co196 O197 2.216 . S
Co196 O198 2.091 . S
Co196 O200 2.004 . S
Co196 O206 2.021 . S
Co196 O208 2.137 . S
Co196 O209 2.244 . S
O197 Co196 2.216 . S
O197 C204 1.247 . S
O198 Co196 2.091 . S
O198 C204 1.261 . S
C199 O208 1.247 . S
C199 O209 1.272 . S
O200 Co196 2.004 . S
O200 C205 1.259 . S
Co201 O202 2.061 . S
Co201 O207 2.052 . S
Co201 O209 2.135 . S
O202 Co201 2.061 . S
O202 C205 1.235 . S
C203 O206 1.238 . S
C203 O207 1.241 . S
C204 O197 1.247 . S
C204 O198 1.261 . S
C205 O200 1.259 . S
C205 O202 1.235 . S
O206 Co196 2.021 . S
O206 C203 1.238 . S
O207 Co201 2.052 . S
O207 C203 1.241 . S
O208 Co196 2.137 . S
O208 C199 1.247 . S
O209 Co196 2.244 . S
O209 C199 1.272 . S
O209 Co201 2.135 . S
Co210 O211 2.216 . S
Co210 O212 2.091 . S
Co210 O214 2.004 . S
Co210 O220 2.021 . S
Co210 O222 2.137 . S
Co210 O223 2.244 . S
O211 Co210 2.216 . S
O211 C218 1.247 . S
O212 Co210 2.091 . S
O212 C218 1.261 . S
C213 O222 1.247 . S
C213 O223 1.272 . S
O214 Co210 2.004 . S
O214 C219 1.259 . S
Co215 O216 2.061 . S
Co215 O221 2.052 . S
Co215 O223 2.135 . S
O216 Co215 2.061 . S
O216 C219 1.235 . S
C217 O220 1.238 . S
C217 O221 1.241 . S
C218 O211 1.247 . S
C218 O212 1.261 . S
C219 O214 1.259 . S
C219 O216 1.235 . S
O220 Co210 2.021 . S
O220 C217 1.238 . S
O221 Co215 2.052 . S
O221 C217 1.241 . S
O222 Co210 2.137 . S
O222 C213 1.247 . S
O223 Co210 2.244 . S
O223 C213 1.272 . S
O223 Co215 2.135 . S
Co224 O225 2.216 . S
Co224 O226 2.091 . S
Co224 O228 2.004 . S
Co224 O234 2.021 . S
Co224 O236 2.137 . S
Co224 O237 2.244 . S
O225 Co224 2.216 . S
O225 C232 1.247 . S
O226 Co224 2.091 . S
O226 C232 1.261 . S
C227 O236 1.247 . S
C227 O237 1.272 . S
O228 Co224 2.004 . S
O228 C233 1.259 . S
Co229 O230 2.061 . S
Co229 O235 2.052 . S
Co229 O237 2.135 . S
O230 Co229 2.061 . S
O230 C233 1.235 . S
C231 O234 1.238 . S
C231 O235 1.241 . S
C232 O225 1.247 . S
C232 O226 1.261 . S
C233 O228 1.259 . S
C233 O230 1.235 . S
O234 Co224 2.021 . S
O234 C231 1.238 . S
O235 Co229 2.052 . S
O235 C231 1.241 . S
O236 Co224 2.137 . S
O236 C227 1.247 . S
O237 Co224 2.244 . S
O237 C227 1.272 . S
O237 Co229 2.135 . S
Co238 O239 2.216 . S
Co238 O240 2.091 . S
Co238 O242 2.004 . S
Co238 O248 2.021 . S
Co238 O250 2.137 . S
Co238 O251 2.244 . S
O239 Co238 2.216 . S
O239 C246 1.247 . S
O240 Co238 2.091 . S
O240 C246 1.261 . S
C241 O250 1.247 . S
C241 O251 1.272 . S
O242 Co238 2.004 . S
O242 C247 1.259 . S
Co243 O244 2.061 . S
Co243 O249 2.052 . S
Co243 O251 2.135 . S
O244 Co243 2.061 . S
O244 C247 1.235 . S
C245 O248 1.238 . S
C245 O249 1.241 . S
C246 O239 1.247 . S
C246 O240 1.261 . S
C247 O242 1.259 . S
C247 O244 1.235 . S
O248 Co238 2.021 . S
O248 C245 1.238 . S
O249 Co243 2.052 . S
O249 C245 1.241 . S
O250 Co238 2.137 . S
O250 C241 1.247 . S
O251 Co238 2.244 . S
O251 C241 1.272 . S
O251 Co243 2.135 . S
Co252 O253 2.216 . S
Co252 O254 2.091 . S
Co252 O256 2.004 . S
Co252 O262 2.021 . S
Co252 O264 2.137 . S
Co252 O265 2.244 . S
O253 Co252 2.216 . S
O253 C260 1.247 . S
O254 Co252 2.091 . S
O254 C260 1.261 . S
C255 O264 1.247 . S
C255 O265 1.272 . S
O256 Co252 2.004 . S
O256 C261 1.259 . S
Co257 O258 2.061 . S
Co257 O263 2.052 . S
Co257 O265 2.135 . S
O258 Co257 2.061 . S
O258 C261 1.235 . S
C259 O262 1.238 . S
C259 O263 1.241 . S
C260 O253 1.247 . S
C260 O254 1.261 . S
C261 O256 1.259 . S
C261 O258 1.235 . S
O262 Co252 2.021 . S
O262 C259 1.238 . S
O263 Co257 2.052 . S
O263 C259 1.241 . S
O264 Co252 2.137 . S
O264 C255 1.247 . S
O265 Co252 2.244 . S
O265 C255 1.272 . S
O265 Co257 2.135 . S
Co266 O267 2.216 . S
Co266 O268 2.091 . S
Co266 O270 2.004 . S
Co266 O276 2.021 . S
Co266 O278 2.137 . S
Co266 O279 2.244 . S
O267 Co266 2.216 . S
O267 C274 1.247 . S
O268 Co266 2.091 . S
O268 C274 1.261 . S
C269 O278 1.247 . S
C269 O279 1.272 . S
O270 Co266 2.004 . S
O270 C275 1.259 . S
Co271 O272 2.061 . S
Co271 O277 2.052 . S
Co271 O279 2.135 . S
O272 Co271 2.061 . S
O272 C275 1.235 . S
C273 O276 1.238 . S
C273 O277 1.241 . S
C274 O267 1.247 . S
C274 O268 1.261 . S
C275 O270 1.259 . S
C275 O272 1.235 . S
O276 Co266 2.021 . S
O276 C273 1.238 . S
O277 Co271 2.052 . S
O277 C273 1.241 . S
O278 Co266 2.137 . S
O278 C269 1.247 . S
O279 Co266 2.244 . S
O279 C269 1.272 . S
O279 Co271 2.135 . S
Co280 O281 2.216 . S
Co280 O282 2.091 . S
Co280 O284 2.004 . S
Co280 O290 2.021 . S
Co280 O292 2.137 . S
Co280 O293 2.244 . S
O281 Co280 2.216 . S
O281 C288 1.247 . S
O282 Co280 2.091 . S
O282 C288 1.261 . S
C283 O292 1.247 . S
C283 O293 1.272 . S
O284 Co280 2.004 . S
O284 C289 1.259 . S
Co285 O286 2.061 . S
Co285 O291 2.052 . S
Co285 O293 2.135 . S
O286 Co285 2.061 . S
O286 C289 1.235 . S
C287 O290 1.238 . S
C287 O291 1.241 . S
C288 O281 1.247 . S
C288 O282 1.261 . S
C289 O284 1.259 . S
C289 O286 1.235 . S
O290 Co280 2.021 . S
O290 C287 1.238 . S
O291 Co285 2.052 . S
O291 C287 1.241 . S
O292 Co280 2.137 . S
O292 C283 1.247 . S
O293 Co280 2.244 . S
O293 C283 1.272 . S
O293 Co285 2.135 . S
Co294 O295 2.216 . S
Co294 O296 2.091 . S
Co294 O298 2.004 . S
Co294 O304 2.021 . S
Co294 O306 2.137 . S
Co294 O307 2.244 . S
O295 Co294 2.216 . S
O295 C302 1.247 . S
O296 Co294 2.091 . S
O296 C302 1.261 . S
C297 O306 1.247 . S
C297 O307 1.272 . S
O298 Co294 2.004 . S
O298 C303 1.259 . S
Co299 O300 2.061 . S
Co299 O305 2.052 . S
Co299 O307 2.135 . S
O300 Co299 2.061 . S
O300 C303 1.235 . S
C301 O304 1.238 . S
C301 O305 1.241 . S
C302 O295 1.247 . S
C302 O296 1.261 . S
C303 O298 1.259 . S
C303 O300 1.235 . S
O304 Co294 2.021 . S
O304 C301 1.238 . S
O305 Co299 2.052 . S
O305 C301 1.241 . S
O306 Co294 2.137 . S
O306 C297 1.247 . S
O307 Co294 2.244 . S
O307 C297 1.272 . S
O307 Co299 2.135 . S
Co308 O309 2.216 . S
Co308 O310 2.091 . S
Co308 O312 2.004 . S
Co308 O318 2.021 . S
Co308 O320 2.137 . S
Co308 O321 2.244 . S
O309 Co308 2.216 . S
O309 C316 1.247 . S
O310 Co308 2.091 . S
O310 C316 1.261 . S
C311 O320 1.247 . S
C311 O321 1.272 . S
O312 Co308 2.004 . S
O312 C317 1.259 . S
Co313 O314 2.061 . S
Co313 O319 2.052 . S
Co313 O321 2.135 . S
O314 Co313 2.061 . S
O314 C317 1.235 . S
C315 O318 1.238 . S
C315 O319 1.241 . S
C316 O309 1.247 . S
C316 O310 1.261 . S
C317 O312 1.259 . S
C317 O314 1.235 . S
O318 Co308 2.021 . S
O318 C315 1.238 . S
O319 Co313 2.052 . S
O319 C315 1.241 . S
O320 Co308 2.137 . S
O320 C311 1.247 . S
O321 Co308 2.244 . S
O321 C311 1.272 . S
O321 Co313 2.135 . S
Co322 O323 2.216 . S
Co322 O324 2.091 . S
Co322 O326 2.004 . S
Co322 O332 2.021 . S
Co322 O334 2.137 . S
Co322 O335 2.244 . S
O323 Co322 2.216 . S
O323 C330 1.247 . S
O324 Co322 2.091 . S
O324 C330 1.261 . S
C325 O334 1.247 . S
C325 O335 1.272 . S
O326 Co322 2.004 . S
O326 C331 1.259 . S
Co327 O328 2.061 . S
Co327 O333 2.052 . S
Co327 O335 2.135 . S
O328 Co327 2.061 . S
O328 C331 1.235 . S
C329 O332 1.238 . S
C329 O333 1.241 . S
C330 O323 1.247 . S
C330 O324 1.261 . S
C331 O326 1.259 . S
C331 O328 1.235 . S
O332 Co322 2.021 . S
O332 C329 1.238 . S
O333 Co327 2.052 . S
O333 C329 1.241 . S
O334 Co322 2.137 . S
O334 C325 1.247 . S
O335 Co322 2.244 . S
O335 C325 1.272 . S
O335 Co327 2.135 . S
Co336 O337 2.216 . S
Co336 O338 2.091 . S
Co336 O340 2.004 . S
Co336 O346 2.021 . S
Co336 O348 2.137 . S
Co336 O349 2.244 . S
O337 Co336 2.216 . S
O337 C344 1.247 . S
O338 Co336 2.091 . S
O338 C344 1.261 . S
C339 O348 1.247 . S
C339 O349 1.272 . S
O340 Co336 2.004 . S
O340 C345 1.259 . S
Co341 O342 2.061 . S
Co341 O347 2.052 . S
Co341 O349 2.135 . S
O342 Co341 2.061 . S
O342 C345 1.235 . S
C343 O346 1.238 . S
C343 O347 1.241 . S
C344 O337 1.247 . S
C344 O338 1.261 . S
C345 O340 1.259 . S
C345 O342 1.235 . S
O346 Co336 2.021 . S
O346 C343 1.238 . S
O347 Co341 2.052 . S
O347 C343 1.241 . S
O348 Co336 2.137 . S
O348 C339 1.247 . S
O349 Co336 2.244 . S
O349 C339 1.272 . S
O349 Co341 2.135 . S
Co350 O351 2.216 . S
Co350 O352 2.091 . S
Co350 O354 2.004 . S
Co350 O360 2.021 . S
Co350 O362 2.137 . S
Co350 O363 2.244 . S
O351 Co350 2.216 . S
O351 C358 1.247 . S
O352 Co350 2.091 . S
O352 C358 1.261 . S
C353 O362 1.247 . S
C353 O363 1.272 . S
O354 Co350 2.004 . S
O354 C359 1.259 . S
Co355 O356 2.061 . S
Co355 O361 2.052 . S
Co355 O363 2.135 . S
O356 Co355 2.061 . S
O356 C359 1.235 . S
C357 O360 1.238 . S
C357 O361 1.241 . S
C358 O351 1.247 . S
C358 O352 1.261 . S
C359 O354 1.259 . S
C359 O356 1.235 . S
O360 Co350 2.021 . S
O360 C357 1.238 . S
O361 Co355 2.052 . S
O361 C357 1.241 . S
O362 Co350 2.137 . S
O362 C353 1.247 . S
O363 Co350 2.244 . S
O363 C353 1.272 . S
O363 Co355 2.135 . S
Co364 O365 2.216 . S
Co364 O366 2.091 . S
Co364 O368 2.004 . S
Co364 O374 2.021 . S
Co364 O376 2.137 . S
Co364 O377 2.244 . S
O365 Co364 2.216 . S
O365 C372 1.247 . S
O366 Co364 2.091 . S
O366 C372 1.261 . S
C367 O376 1.247 . S
C367 O377 1.272 . S
O368 Co364 2.004 . S
O368 C373 1.259 . S
Co369 O370 2.061 . S
Co369 O375 2.052 . S
Co369 O377 2.135 . S
O370 Co369 2.061 . S
O370 C373 1.235 . S
C371 O374 1.238 . S
C371 O375 1.241 . S
C372 O365 1.247 . S
C372 O366 1.261 . S
C373 O368 1.259 . S
C373 O370 1.235 . S
O374 Co364 2.021 . S
O374 C371 1.238 . S
O375 Co369 2.052 . S
O375 C371 1.241 . S
O376 Co364 2.137 . S
O376 C367 1.247 . S
O377 Co364 2.244 . S
O377 C367 1.272 . S
O377 Co369 2.135 . S
Co378 O379 2.216 . S
Co378 O380 2.091 . S
Co378 O382 2.004 . S
Co378 O388 2.021 . S
Co378 O390 2.137 . S
Co378 O391 2.244 . S
O379 Co378 2.216 . S
O379 C386 1.247 . S
O380 Co378 2.091 . S
O380 C386 1.261 . S
C381 O390 1.247 . S
C381 O391 1.272 . S
O382 Co378 2.004 . S
O382 C387 1.259 . S
Co383 O384 2.061 . S
Co383 O389 2.052 . S
Co383 O391 2.135 . S
O384 Co383 2.061 . S
O384 C387 1.235 . S
C385 O388 1.238 . S
C385 O389 1.241 . S
C386 O379 1.247 . S
C386 O380 1.261 . S
C387 O382 1.259 . S
C387 O384 1.235 . S
O388 Co378 2.021 . S
O388 C385 1.238 . S
O389 Co383 2.052 . S
O389 C385 1.241 . S
O390 Co378 2.137 . S
O390 C381 1.247 . S
O391 Co378 2.244 . S
O391 C381 1.272 . S
O391 Co383 2.135 . S
Co392 O393 2.216 . S
Co392 O394 2.091 . S
Co392 O396 2.004 . S
Co392 O402 2.021 . S
Co392 O404 2.137 . S
Co392 O405 2.244 . S
O393 Co392 2.216 . S
O393 C400 1.247 . S
O394 Co392 2.091 . S
O394 C400 1.261 . S
C395 O404 1.247 . S
C395 O405 1.272 . S
O396 Co392 2.004 . S
O396 C401 1.259 . S
Co397 O398 2.061 . S
Co397 O403 2.052 . S
Co397 O405 2.135 . S
O398 Co397 2.061 . S
O398 C401 1.235 . S
C399 O402 1.238 . S
C399 O403 1.241 . S
C400 O393 1.247 . S
C400 O394 1.261 . S
C401 O396 1.259 . S
C401 O398 1.235 . S
O402 Co392 2.021 . S
O402 C399 1.238 . S
O403 Co397 2.052 . S
O403 C399 1.241 . S
O404 Co392 2.137 . S
O404 C395 1.247 . S
O405 Co392 2.244 . S
O405 C395 1.272 . S
O405 Co397 2.135 . S
Co406 O407 2.216 . S
Co406 O408 2.091 . S
Co406 O410 2.004 . S
Co406 O416 2.021 . S
Co406 O418 2.137 . S
Co406 O419 2.244 . S
O407 Co406 2.216 . S
O407 C414 1.247 . S
O408 Co406 2.091 . S
O408 C414 1.261 . S
C409 O418 1.247 . S
C409 O419 1.272 . S
O410 Co406 2.004 . S
O410 C415 1.259 . S
Co411 O412 2.061 . S
Co411 O417 2.052 . S
Co411 O419 2.135 . S
O412 Co411 2.061 . S
O412 C415 1.235 . S
C413 O416 1.238 . S
C413 O417 1.241 . S
C414 O407 1.247 . S
C414 O408 1.261 . S
C415 O410 1.259 . S
C415 O412 1.235 . S
O416 Co406 2.021 . S
O416 C413 1.238 . S
O417 Co411 2.052 . S
O417 C413 1.241 . S
O418 Co406 2.137 . S
O418 C409 1.247 . S
O419 Co406 2.244 . S
O419 C409 1.272 . S
O419 Co411 2.135 . S
Co420 O421 2.216 . S
Co420 O422 2.091 . S
Co420 O424 2.004 . S
Co420 O430 2.021 . S
Co420 O432 2.137 . S
Co420 O433 2.244 . S
O421 Co420 2.216 . S
O421 C428 1.247 . S
O422 Co420 2.091 . S
O422 C428 1.261 . S
C423 O432 1.247 . S
C423 O433 1.272 . S
O424 Co420 2.004 . S
O424 C429 1.259 . S
Co425 O426 2.061 . S
Co425 O431 2.052 . S
Co425 O433 2.135 . S
O426 Co425 2.061 . S
O426 C429 1.235 . S
C427 O430 1.238 . S
C427 O431 1.241 . S
C428 O421 1.247 . S
C428 O422 1.261 . S
C429 O424 1.259 . S
C429 O426 1.235 . S
O430 Co420 2.021 . S
O430 C427 1.238 . S
O431 Co425 2.052 . S
O431 C427 1.241 . S
O432 Co420 2.137 . S
O432 C423 1.247 . S
O433 Co420 2.244 . S
O433 C423 1.272 . S
O433 Co425 2.135 . S
Co434 O435 2.216 . S
Co434 O436 2.091 . S
Co434 O438 2.004 . S
Co434 O444 2.021 . S
Co434 O446 2.137 . S
Co434 O447 2.244 . S
O435 Co434 2.216 . S
O435 C442 1.247 . S
O436 Co434 2.091 . S
O436 C442 1.261 . S
C437 O446 1.247 . S
C437 O447 1.272 . S
O438 Co434 2.004 . S
O438 C443 1.259 . S
Co439 O440 2.061 . S
Co439 O445 2.052 . S
Co439 O447 2.135 . S
O440 Co439 2.061 . S
O440 C443 1.235 . S
C441 O444 1.238 . S
C441 O445 1.241 . S
C442 O435 1.247 . S
C442 O436 1.261 . S
C443 O438 1.259 . S
C443 O440 1.235 . S
O444 Co434 2.021 . S
O444 C441 1.238 . S
O445 Co439 2.052 . S
O445 C441 1.241 . S
O446 Co434 2.137 . S
O446 C437 1.247 . S
O447 Co434 2.244 . S
O447 C437 1.272 . S
O447 Co439 2.135 . S
Co448 O449 2.216 . S
Co448 O450 2.091 . S
Co448 O452 2.004 . S
Co448 O458 2.021 . S
Co448 O460 2.137 . S
Co448 O461 2.244 . S
O449 Co448 2.216 . S
O449 C456 1.247 . S
O450 Co448 2.091 . S
O450 C456 1.261 . S
C451 O460 1.247 . S
C451 O461 1.272 . S
O452 Co448 2.004 . S
O452 C457 1.259 . S
Co453 O454 2.061 . S
Co453 O459 2.052 . S
Co453 O461 2.135 . S
O454 Co453 2.061 . S
O454 C457 1.235 . S
C455 O458 1.238 . S
C455 O459 1.241 . S
C456 O449 1.247 . S
C456 O450 1.261 . S
C457 O452 1.259 . S
C457 O454 1.235 . S
O458 Co448 2.021 . S
O458 C455 1.238 . S
O459 Co453 2.052 . S
O459 C455 1.241 . S
O460 Co448 2.137 . S
O460 C451 1.247 . S
O461 Co448 2.244 . S
O461 C451 1.272 . S
O461 Co453 2.135 . S
Co462 O463 2.216 . S
Co462 O464 2.091 . S
Co462 O466 2.004 . S
Co462 O472 2.021 . S
Co462 O474 2.137 . S
Co462 O475 2.244 . S
O463 Co462 2.216 . S
O463 C470 1.247 . S
O464 Co462 2.091 . S
O464 C470 1.261 . S
C465 O474 1.247 . S
C465 O475 1.272 . S
O466 Co462 2.004 . S
O466 C471 1.259 . S
Co467 O468 2.061 . S
Co467 O473 2.052 . S
Co467 O475 2.135 . S
O468 Co467 2.061 . S
O468 C471 1.235 . S
C469 O472 1.238 . S
C469 O473 1.241 . S
C470 O463 1.247 . S
C470 O464 1.261 . S
C471 O466 1.259 . S
C471 O468 1.235 . S
O472 Co462 2.021 . S
O472 C469 1.238 . S
O473 Co467 2.052 . S
O473 C469 1.241 . S
O474 Co462 2.137 . S
O474 C465 1.247 . S
O475 Co462 2.244 . S
O475 C465 1.272 . S
O475 Co467 2.135 . S
Co476 O477 2.216 . S
Co476 O478 2.091 . S
Co476 O480 2.004 . S
Co476 O486 2.021 . S
Co476 O488 2.137 . S
Co476 O489 2.244 . S
O477 Co476 2.216 . S
O477 C484 1.247 . S
O478 Co476 2.091 . S
O478 C484 1.261 . S
C479 O488 1.247 . S
C479 O489 1.272 . S
O480 Co476 2.004 . S
O480 C485 1.259 . S
Co481 O482 2.061 . S
Co481 O487 2.052 . S
Co481 O489 2.135 . S
O482 Co481 2.061 . S
O482 C485 1.235 . S
C483 O486 1.238 . S
C483 O487 1.241 . S
C484 O477 1.247 . S
C484 O478 1.261 . S
C485 O480 1.259 . S
C485 O482 1.235 . S
O486 Co476 2.021 . S
O486 C483 1.238 . S
O487 Co481 2.052 . S
O487 C483 1.241 . S
O488 Co476 2.137 . S
O488 C479 1.247 . S
O489 Co476 2.244 . S
O489 C479 1.272 . S
O489 Co481 2.135 . S
Co490 O491 2.216 . S
Co490 O492 2.091 . S
Co490 O494 2.004 . S
Co490 O500 2.021 . S
Co490 O502 2.137 . S
Co490 O503 2.244 . S
O491 Co490 2.216 . S
O491 C498 1.247 . S
O492 Co490 2.091 . S
O492 C498 1.261 . S
C493 O502 1.247 . S
C493 O503 1.272 . S
O494 Co490 2.004 . S
O494 C499 1.259 . S
Co495 O496 2.061 . S
Co495 O501 2.052 . S
Co495 O503 2.135 . S
O496 Co495 2.061 . S
O496 C499 1.235 . S
C497 O500 1.238 . S
C497 O501 1.241 . S
C498 O491 1.247 . S
C498 O492 1.261 . S
C499 O494 1.259 . S
C499 O496 1.235 . S
O500 Co490 2.021 . S
O500 C497 1.238 . S
O501 Co495 2.052 . S
O501 C497 1.241 . S
O502 Co490 2.137 . S
O502 C493 1.247 . S
O503 Co490 2.244 . S
O503 C493 1.272 . S
O503 Co495 2.135 . S
Co504 O505 2.216 . S
Co504 O506 2.091 . S
Co504 O508 2.004 . S
Co504 O514 2.021 . S
Co504 O516 2.137 . S
Co504 O517 2.244 . S
O505 Co504 2.216 . S
O505 C512 1.247 . S
O506 Co504 2.091 . S
O506 C512 1.261 . S
C507 O516 1.247 . S
C507 O517 1.272 . S
O508 Co504 2.004 . S
O508 C513 1.259 . S
Co509 O510 2.061 . S
Co509 O515 2.052 . S
Co509 O517 2.135 . S
O510 Co509 2.061 . S
O510 C513 1.235 . S
C511 O514 1.238 . S
C511 O515 1.241 . S
C512 O505 1.247 . S
C512 O506 1.261 . S
C513 O508 1.259 . S
C513 O510 1.235 . S
O514 Co504 2.021 . S
O514 C511 1.238 . S
O515 Co509 2.052 . S
O515 C511 1.241 . S
O516 Co504 2.137 . S
O516 C507 1.247 . S
O517 Co504 2.244 . S
O517 C507 1.272 . S
O517 Co509 2.135 . S
Co518 O519 2.216 . S
Co518 O520 2.091 . S
Co518 O522 2.004 . S
Co518 O528 2.021 . S
Co518 O530 2.137 . S
Co518 O531 2.244 . S
O519 Co518 2.216 . S
O519 C526 1.247 . S
O520 Co518 2.091 . S
O520 C526 1.261 . S
C521 O530 1.247 . S
C521 O531 1.272 . S
O522 Co518 2.004 . S
O522 C527 1.259 . S
Co523 O524 2.061 . S
Co523 O529 2.052 . S
Co523 O531 2.135 . S
O524 Co523 2.061 . S
O524 C527 1.235 . S
C525 O528 1.238 . S
C525 O529 1.241 . S
C526 O519 1.247 . S
C526 O520 1.261 . S
C527 O522 1.259 . S
C527 O524 1.235 . S
O528 Co518 2.021 . S
O528 C525 1.238 . S
O529 Co523 2.052 . S
O529 C525 1.241 . S
O530 Co518 2.137 . S
O530 C521 1.247 . S
O531 Co518 2.244 . S
O531 C521 1.272 . S
O531 Co523 2.135 . S
Co532 O533 2.216 . S
Co532 O534 2.091 . S
Co532 O536 2.004 . S
Co532 O542 2.021 . S
Co532 O544 2.137 . S
Co532 O545 2.244 . S
O533 Co532 2.216 . S
O533 C540 1.247 . S
O534 Co532 2.091 . S
O534 C540 1.261 . S
C535 O544 1.247 . S
C535 O545 1.272 . S
O536 Co532 2.004 . S
O536 C541 1.259 . S
Co537 O538 2.061 . S
Co537 O543 2.052 . S
Co537 O545 2.135 . S
O538 Co537 2.061 . S
O538 C541 1.235 . S
C539 O542 1.238 . S
C539 O543 1.241 . S
C540 O533 1.247 . S
C540 O534 1.261 . S
C541 O536 1.259 . S
C541 O538 1.235 . S
O542 Co532 2.021 . S
O542 C539 1.238 . S
O543 Co537 2.052 . S
O543 C539 1.241 . S
O544 Co532 2.137 . S
O544 C535 1.247 . S
O545 Co532 2.244 . S
O545 C535 1.272 . S
O545 Co537 2.135 . S
Co546 O547 2.216 . S
Co546 O548 2.091 . S
Co546 O550 2.004 . S
Co546 O556 2.021 . S
Co546 O558 2.137 . S
Co546 O559 2.244 . S
O547 Co546 2.216 . S
O547 C554 1.247 . S
O548 Co546 2.091 . S
O548 C554 1.261 . S
C549 O558 1.247 . S
C549 O559 1.272 . S
O550 Co546 2.004 . S
O550 C555 1.259 . S
Co551 O552 2.061 . S
Co551 O557 2.052 . S
Co551 O559 2.135 . S
O552 Co551 2.061 . S
O552 C555 1.235 . S
C553 O556 1.238 . S
C553 O557 1.241 . S
C554 O547 1.247 . S
C554 O548 1.261 . S
C555 O550 1.259 . S
C555 O552 1.235 . S
O556 Co546 2.021 . S
O556 C553 1.238 . S
O557 Co551 2.052 . S
O557 C553 1.241 . S
O558 Co546 2.137 . S
O558 C549 1.247 . S
O559 Co546 2.244 . S
O559 C549 1.272 . S
O559 Co551 2.135 . S
Co560 O561 2.216 . S
Co560 O562 2.091 . S
Co560 O564 2.004 . S
Co560 O570 2.021 . S
Co560 O572 2.137 . S
Co560 O573 2.244 . S
O561 Co560 2.216 . S
O561 C568 1.247 . S
O562 Co560 2.091 . S
O562 C568 1.261 . S
C563 O572 1.247 . S
C563 O573 1.272 . S
O564 Co560 2.004 . S
O564 C569 1.259 . S
Co565 O566 2.061 . S
Co565 O571 2.052 . S
Co565 O573 2.135 . S
O566 Co565 2.061 . S
O566 C569 1.235 . S
C567 O570 1.238 . S
C567 O571 1.241 . S
C568 O561 1.247 . S
C568 O562 1.261 . S
C569 O564 1.259 . S
C569 O566 1.235 . S
O570 Co560 2.021 . S
O570 C567 1.238 . S
O571 Co565 2.052 . S
O571 C567 1.241 . S
O572 Co560 2.137 . S
O572 C563 1.247 . S
O573 Co560 2.244 . S
O573 C563 1.272 . S
O573 Co565 2.135 . S
Co574 O575 2.216 . S
Co574 O576 2.091 . S
Co574 O578 2.004 . S
Co574 O584 2.021 . S
Co574 O586 2.137 . S
Co574 O587 2.244 . S
O575 Co574 2.216 . S
O575 C582 1.247 . S
O576 Co574 2.091 . S
O576 C582 1.261 . S
C577 O586 1.247 . S
C577 O587 1.272 . S
O578 Co574 2.004 . S
O578 C583 1.259 . S
Co579 O580 2.061 . S
Co579 O585 2.052 . S
Co579 O587 2.135 . S
O580 Co579 2.061 . S
O580 C583 1.235 . S
C581 O584 1.238 . S
C581 O585 1.241 . S
C582 O575 1.247 . S
C582 O576 1.261 . S
C583 O578 1.259 . S
C583 O580 1.235 . S
O584 Co574 2.021 . S
O584 C581 1.238 . S
O585 Co579 2.052 . S
O585 C581 1.241 . S
O586 Co574 2.137 . S
O586 C577 1.247 . S
O587 Co574 2.244 . S
O587 C577 1.272 . S
O587 Co579 2.135 . S
Co588 O589 2.216 . S
Co588 O590 2.091 . S
Co588 O592 2.004 . S
Co588 O598 2.021 . S
Co588 O600 2.137 . S
Co588 O601 2.244 . S
O589 Co588 2.216 . S
O589 C596 1.247 . S
O590 Co588 2.091 . S
O590 C596 1.261 . S
C591 O600 1.247 . S
C591 O601 1.272 . S
O592 Co588 2.004 . S
O592 C597 1.259 . S
Co593 O594 2.061 . S
Co593 O599 2.052 . S
Co593 O601 2.135 . S
O594 Co593 2.061 . S
O594 C597 1.235 . S
C595 O598 1.238 . S
C595 O599 1.241 . S
C596 O589 1.247 . S
C596 O590 1.261 . S
C597 O592 1.259 . S
C597 O594 1.235 . S
O598 Co588 2.021 . S
O598 C595 1.238 . S
O599 Co593 2.052 . S
O599 C595 1.241 . S
O600 Co588 2.137 . S
O600 C591 1.247 . S
O601 Co588 2.244 . S
O601 C591 1.272 . S
O601 Co593 2.135 . S
Co602 O603 2.216 . S
Co602 O604 2.091 . S
Co602 O606 2.004 . S
Co602 O612 2.021 . S
Co602 O614 2.137 . S
Co602 O615 2.244 . S
O603 Co602 2.216 . S
O603 C610 1.247 . S
O604 Co602 2.091 . S
O604 C610 1.261 . S
C605 O614 1.247 . S
C605 O615 1.272 . S
O606 Co602 2.004 . S
O606 C611 1.259 . S
Co607 O608 2.061 . S
Co607 O613 2.052 . S
Co607 O615 2.135 . S
O608 Co607 2.061 . S
O608 C611 1.235 . S
C609 O612 1.238 . S
C609 O613 1.241 . S
C610 O603 1.247 . S
C610 O604 1.261 . S
C611 O606 1.259 . S
C611 O608 1.235 . S
O612 Co602 2.021 . S
O612 C609 1.238 . S
O613 Co607 2.052 . S
O613 C609 1.241 . S
O614 Co602 2.137 . S
O614 C605 1.247 . S
O615 Co602 2.244 . S
O615 C605 1.272 . S
O615 Co607 2.135 . S
Co616 O617 2.216 . S
Co616 O618 2.091 . S
Co616 O620 2.004 . S
Co616 O626 2.021 . S
Co616 O628 2.137 . S
Co616 O629 2.244 . S
O617 Co616 2.216 . S
O617 C624 1.247 . S
O618 Co616 2.091 . S
O618 C624 1.261 . S
C619 O628 1.247 . S
C619 O629 1.272 . S
O620 Co616 2.004 . S
O620 C625 1.259 . S
Co621 O622 2.061 . S
Co621 O627 2.052 . S
Co621 O629 2.135 . S
O622 Co621 2.061 . S
O622 C625 1.235 . S
C623 O626 1.238 . S
C623 O627 1.241 . S
C624 O617 1.247 . S
C624 O618 1.261 . S
C625 O620 1.259 . S
C625 O622 1.235 . S
O626 Co616 2.021 . S
O626 C623 1.238 . S
O627 Co621 2.052 . S
O627 C623 1.241 . S
O628 Co616 2.137 . S
O628 C619 1.247 . S
O629 Co616 2.244 . S
O629 C619 1.272 . S
O629 Co621 2.135 . S
Co630 O631 2.216 . S
Co630 O632 2.091 . S
Co630 O634 2.004 . S
Co630 O640 2.021 . S
Co630 O642 2.137 . S
Co630 O643 2.244 . S
O631 Co630 2.216 . S
O631 C638 1.247 . S
O632 Co630 2.091 . S
O632 C638 1.261 . S
C633 O642 1.247 . S
C633 O643 1.272 . S
O634 Co630 2.004 . S
O634 C639 1.259 . S
Co635 O636 2.061 . S
Co635 O641 2.052 . S
Co635 O643 2.135 . S
O636 Co635 2.061 . S
O636 C639 1.235 . S
C637 O640 1.238 . S
C637 O641 1.241 . S
C638 O631 1.247 . S
C638 O632 1.261 . S
C639 O634 1.259 . S
C639 O636 1.235 . S
O640 Co630 2.021 . S
O640 C637 1.238 . S
O641 Co635 2.052 . S
O641 C637 1.241 . S
O642 Co630 2.137 . S
O642 C633 1.247 . S
O643 Co630 2.244 . S
O643 C633 1.272 . S
O643 Co635 2.135 . S
Co644 O645 2.216 . S
Co644 O646 2.091 . S
Co644 O648 2.004 . S
Co644 O654 2.021 . S
Co644 O656 2.137 . S
Co644 O657 2.244 . S
O645 Co644 2.216 . S
O645 C652 1.247 . S
O646 Co644 2.091 . S
O646 C652 1.261 . S
C647 O656 1.247 . S
C647 O657 1.272 . S
O648 Co644 2.004 . S
O648 C653 1.259 . S
Co649 O650 2.061 . S
Co649 O655 2.052 . S
Co649 O657 2.135 . S
O650 Co649 2.061 . S
O650 C653 1.235 . S
C651 O654 1.238 . S
C651 O655 1.241 . S
C652 O645 1.247 . S
C652 O646 1.261 . S
C653 O648 1.259 . S
C653 O650 1.235 . S
O654 Co644 2.021 . S
O654 C651 1.238 . S
O655 Co649 2.052 . S
O655 C651 1.241 . S
O656 Co644 2.137 . S
O656 C647 1.247 . S
O657 Co644 2.244 . S
O657 C647 1.272 . S
O657 Co649 2.135 . S
Co658 O659 2.216 . S
Co658 O660 2.091 . S
Co658 O662 2.004 . S
Co658 O668 2.021 . S
Co658 O670 2.137 . S
Co658 O671 2.244 . S
O659 Co658 2.216 . S
O659 C666 1.247 . S
O660 Co658 2.091 . S
O660 C666 1.261 . S
C661 O670 1.247 . S
C661 O671 1.272 . S
O662 Co658 2.004 . S
O662 C667 1.259 . S
Co663 O664 2.061 . S
Co663 O669 2.052 . S
Co663 O671 2.135 . S
O664 Co663 2.061 . S
O664 C667 1.235 . S
C665 O668 1.238 . S
C665 O669 1.241 . S
C666 O659 1.247 . S
C666 O660 1.261 . S
C667 O662 1.259 . S
C667 O664 1.235 . S
O668 Co658 2.021 . S
O668 C665 1.238 . S
O669 Co663 2.052 . S
O669 C665 1.241 . S
O670 Co658 2.137 . S
O670 C661 1.247 . S
O671 Co658 2.244 . S
O671 C661 1.272 . S
O671 Co663 2.135 . S
C672 C673 1.363 1_455 S
C672 C678 1.379 . S
C672 N680 1.356 . S
C673 C672 1.363 1_655 S
C673 C679 1.363 . S
C674 C675 1.363 1_655 S
C674 C679 1.379 . S
C674 N681 1.356 . S
C675 C674 1.363 1_455 S
C675 C678 1.363 . S
N676 C678 1.356 . S
N676 H688 0.984 . S
N676 H689 0.985 . S
N677 C679 1.356 . S
N677 H682 0.984 . S
N677 H683 0.985 . S
C678 C672 1.379 . S
C678 C675 1.363 . S
C678 N676 1.356 . S
C679 C673 1.363 . S
C679 C674 1.379 . S
C679 N677 1.356 . S
N680 C672 1.356 . S
N680 H686 0.984 . S
N680 H687 0.984 1_455 S
N681 C674 1.356 . S
N681 H684 0.984 1_655 S
N681 H685 0.985 . S
H682 N677 0.984 . S
H683 N677 0.985 . S
H684 N681 0.984 1_455 S
H685 N681 0.985 . S
H686 N680 0.984 . S
H687 N680 0.984 1_655 S
H688 N676 0.984 . S
H689 N676 0.985 . S
C690 C691 1.363 . S
C690 C696 1.379 1_565 S
C690 N698 1.356 . S
C691 C690 1.363 . S
C691 C697 1.363 . S
C692 C693 1.363 . S
C692 C697 1.379 1_545 S
C692 N699 1.356 . S
C693 C692 1.363 . S
C693 C696 1.363 . S
N694 C696 1.356 . S
N694 H706 0.984 . S
N694 H707 0.985 . S
N695 C697 1.356 . S
N695 H700 0.984 . S
N695 H701 0.985 . S
C696 C690 1.379 1_545 S
C696 C693 1.363 . S
C696 N694 1.356 . S
C697 C691 1.363 . S
C697 C692 1.379 1_565 S
C697 N695 1.356 . S
N698 C690 1.356 . S
N698 H704 0.984 . S
N698 H705 0.984 . S
N699 C692 1.356 . S
N699 H702 0.984 . S
N699 H703 0.985 . S
H700 N695 0.984 . S
H701 N695 0.985 . S
H702 N699 0.984 . S
H703 N699 0.985 . S
H704 N698 0.984 . S
H705 N698 0.984 . S
H706 N694 0.984 . S
H707 N694 0.985 . S
C708 C709 1.363 1_655 S
C708 C714 1.379 . S
C708 N716 1.356 . S
C709 C708 1.363 1_455 S
C709 C715 1.363 . S
C710 C711 1.363 1_455 S
C710 C715 1.379 . S
C710 N717 1.356 . S
C711 C710 1.363 1_655 S
C711 C714 1.363 . S
N712 C714 1.356 . S
N712 H724 0.984 . S
N712 H725 0.985 . S
N713 C715 1.356 . S
N713 H718 0.984 . S
N713 H719 0.985 . S
C714 C708 1.379 . S
C714 C711 1.363 . S
C714 N712 1.356 . S
C715 C709 1.363 . S
C715 C710 1.379 . S
C715 N713 1.356 . S
N716 C708 1.356 . S
N716 H722 0.984 . S
N716 H723 0.984 1_655 S
N717 C710 1.356 . S
N717 H720 0.984 1_455 S
N717 H721 0.985 . S
H718 N713 0.984 . S
H719 N713 0.985 . S
H720 N717 0.984 1_655 S
H721 N717 0.985 . S
H722 N716 0.984 . S
H723 N716 0.984 1_455 S
H724 N712 0.984 . S
H725 N712 0.985 . S
C726 C727 1.363 . S
C726 C732 1.379 . S
C726 N734 1.356 . S
C727 C726 1.363 . S
C727 C733 1.363 1_565 S
C728 C729 1.363 . S
C728 C733 1.379 . S
C728 N735 1.356 . S
C729 C728 1.363 . S
C729 C732 1.363 1_545 S
N730 C732 1.356 . S
N730 H742 0.984 . S
N730 H743 0.985 1_565 S
N731 C733 1.356 . S
N731 H736 0.984 1_545 S
N731 H737 0.985 . S
C732 C726 1.379 . S
C732 C729 1.363 1_565 S
C732 N730 1.356 . S
C733 C727 1.363 1_545 S
C733 C728 1.379 . S
C733 N731 1.356 . S
N734 C726 1.356 . S
N734 H740 0.984 . S
N734 H741 0.984 . S
N735 C728 1.356 . S
N735 H738 0.984 . S
N735 H739 0.985 . S
H736 N731 0.984 1_565 S
H737 N731 0.985 . S
H738 N735 0.984 . S
H739 N735 0.985 . S
H740 N734 0.984 . S
H741 N734 0.984 . S
H742 N730 0.984 . S
H743 N730 0.985 1_545 S
C744 C745 1.363 1_455 S
C744 C750 1.379 . S
C744 N752 1.356 . S
C745 C744 1.363 1_655 S
C745 C751 1.363 . S
C746 C747 1.363 1_655 S
C746 C751 1.379 . S
C746 N753 1.356 . S
C747 C746 1.363 1_455 S
C747 C750 1.363 . S
N748 C750 1.356 . S
N748 H760 0.984 . S
N748 H761 0.985 . S
N749 C751 1.356 . S
N749 H754 0.984 . S
N749 H755 0.985 . S
C750 C744 1.379 . S
C750 C747 1.363 . S
C750 N748 1.356 . S
C751 C745 1.363 . S
C751 C746 1.379 . S
C751 N749 1.356 . S
N752 C744 1.356 . S
N752 H758 0.984 . S
N752 H759 0.984 1_455 S
N753 C746 1.356 . S
N753 H756 0.984 1_655 S
N753 H757 0.985 . S
H754 N749 0.984 . S
H755 N749 0.985 . S
H756 N753 0.984 1_455 S
H757 N753 0.985 . S
H758 N752 0.984 . S
H759 N752 0.984 1_655 S
H760 N748 0.984 . S
H761 N748 0.985 . S
C762 C763 1.363 . S
C762 C768 1.379 1_545 S
C762 N770 1.356 . S
C763 C762 1.363 . S
C763 C769 1.363 . S
C764 C765 1.363 . S
C764 C769 1.379 1_565 S
C764 N771 1.356 . S
C765 C764 1.363 . S
C765 C768 1.363 . S
N766 C768 1.356 . S
N766 H778 0.982 1_565 S
N766 H779 0.985 . S
N767 C769 1.356 . S
N767 H772 0.984 . S
N767 H773 0.982 1_545 S
C768 C762 1.379 1_565 S
C768 C765 1.363 . S
C768 N766 1.356 . S
C769 C763 1.363 . S
C769 C764 1.379 1_545 S
C769 N767 1.356 . S
N770 C762 1.356 . S
N770 H776 0.984 . S
N770 H777 0.984 . S
N771 C764 1.356 . S
N771 H774 0.984 . S
N771 H775 0.985 . S
H772 N767 0.984 . S
H773 N767 0.982 1_565 S
H774 N771 0.984 . S
H775 N771 0.985 . S
H776 N770 0.984 . S
H777 N770 0.984 . S
H778 N766 0.982 1_545 S
H779 N766 0.985 . S
C780 C781 1.363 1_655 S
C780 C786 1.379 . S
C780 N788 1.356 . S
C781 C780 1.363 1_455 S
C781 C787 1.363 . S
C782 C783 1.363 1_455 S
C782 C787 1.379 . S
C782 N789 1.356 . S
C783 C782 1.363 1_655 S
C783 C786 1.363 . S
N784 C786 1.356 . S
N784 H796 0.984 . S
N784 H797 0.985 . S
N785 C787 1.356 . S
N785 H790 0.984 . S
N785 H791 0.985 . S
C786 C780 1.379 . S
C786 C783 1.363 . S
C786 N784 1.356 . S
C787 C781 1.363 . S
C787 C782 1.379 . S
C787 N785 1.356 . S
N788 C780 1.356 . S
N788 H794 0.984 . S
N788 H795 0.984 1_655 S
N789 C782 1.356 . S
N789 H792 0.984 1_455 S
N789 H793 0.985 . S
H790 N785 0.984 . S
H791 N785 0.985 . S
H792 N789 0.984 1_655 S
H793 N789 0.985 . S
H794 N788 0.984 . S
H795 N788 0.984 1_455 S
H796 N784 0.984 . S
H797 N784 0.985 . S
C798 C799 1.363 . S
C798 C804 1.379 1_545 S
C798 N806 1.356 . S
C799 C798 1.363 . S
C799 C805 1.363 . S
C800 C801 1.363 . S
C800 C805 1.379 1_565 S
C800 N807 1.356 . S
C801 C800 1.363 . S
C801 C804 1.363 . S
N802 C804 1.356 . S
N802 H814 0.984 . S
N802 H815 0.985 . S
N803 C805 1.356 . S
N803 H808 0.984 . S
N803 H809 0.985 . S
C804 C798 1.379 1_565 S
C804 C801 1.363 . S
C804 N802 1.356 . S
C805 C799 1.363 . S
C805 C800 1.379 1_545 S
C805 N803 1.356 . S
N806 C798 1.356 . S
N806 H812 0.984 . S
N806 H813 0.984 . S
N807 C800 1.356 . S
N807 H810 0.984 . S
N807 H811 0.985 . S
H808 N803 0.984 . S
H809 N803 0.985 . S
H810 N807 0.984 . S
H811 N807 0.985 . S
H812 N806 0.984 . S
H813 N806 0.984 . S
H814 N802 0.984 . S
H815 N802 0.985 . S
C816 C817 1.363 1_556 S
C816 C822 1.379 . S
C816 N824 1.356 . S
C817 C816 1.363 1_554 S
C817 C823 1.363 . S
C818 C819 1.363 1_554 S
C818 C823 1.379 . S
C818 N825 1.356 . S
C819 C818 1.363 1_556 S
C819 C822 1.363 . S
N820 C822 1.356 . S
N820 H832 0.984 . S
N820 H833 0.985 . S
N821 C823 1.356 . S
N821 H826 0.984 . S
N821 H827 0.985 . S
C822 C816 1.379 . S
C822 C819 1.363 . S
C822 N820 1.356 . S
C823 C817 1.363 . S
C823 C818 1.379 . S
C823 N821 1.356 . S
N824 C816 1.356 . S
N824 H830 0.984 . S
N824 H831 0.971 1_556 S
N825 C818 1.356 . S
N825 H828 0.971 1_554 S
N825 H829 0.985 . S
H826 N821 0.984 . S
H827 N821 0.985 . S
H828 N825 0.971 1_556 S
H829 N825 0.985 . S
H830 N824 0.984 . S
H831 N824 0.971 1_554 S
H832 N820 0.984 . S
H833 N820 0.985 . S
C834 C835 1.363 1_554 S
C834 C840 1.379 . S
C834 N842 1.356 . S
C835 C834 1.363 1_556 S
C835 C841 1.363 . S
C836 C837 1.363 1_556 S
C836 C841 1.379 . S
C836 N843 1.356 . S
C837 C836 1.363 1_554 S
C837 C840 1.363 . S
N838 C840 1.356 . S
N838 H850 0.984 . S
N838 H851 0.985 . S
N839 C841 1.356 . S
N839 H844 0.984 . S
N839 H845 0.985 . S
C840 C834 1.379 . S
C840 C837 1.363 . S
C840 N838 1.356 . S
C841 C835 1.363 . S
C841 C836 1.379 . S
C841 N839 1.356 . S
N842 C834 1.356 . S
N842 H848 0.984 . S
N842 H849 0.984 1_554 S
N843 C836 1.356 . S
N843 H846 0.984 1_556 S
N843 H847 0.985 . S
H844 N839 0.984 . S
H845 N839 0.985 . S
H846 N843 0.984 1_554 S
H847 N843 0.985 . S
H848 N842 0.984 . S
H849 N842 0.984 1_556 S
H850 N838 0.984 . S
H851 N838 0.985 . S
C852 C853 1.363 . S
C852 C858 1.379 . S
C852 N860 1.356 . S
C853 C852 1.363 . S
C853 C859 1.363 1_556 S
C854 C855 1.363 . S
C854 C859 1.379 . S
C854 N861 1.356 . S
C855 C854 1.363 . S
C855 C858 1.363 1_554 S
N856 C858 1.356 . S
N856 H868 0.984 . S
N856 H869 0.985 . S
N857 C859 1.356 . S
N857 H862 0.984 . S
N857 H863 0.985 . S
C858 C852 1.379 . S
C858 C855 1.363 1_556 S
C858 N856 1.356 . S
C859 C853 1.363 1_554 S
C859 C854 1.379 . S
C859 N857 1.356 . S
N860 C852 1.356 . S
N860 H866 0.984 . S
N860 H867 0.984 . S
N861 C854 1.356 . S
N861 H864 0.984 . S
N861 H865 0.985 . S
H862 N857 0.984 . S
H863 N857 0.985 . S
H864 N861 0.984 . S
H865 N861 0.985 . S
H866 N860 0.984 . S
H867 N860 0.984 . S
H868 N856 0.984 . S
H869 N856 0.985 . S
C870 C871 1.363 . S
C870 C876 1.379 1_556 S
C870 N878 1.356 . S
C871 C870 1.363 . S
C871 C877 1.363 . S
C872 C873 1.363 . S
C872 C877 1.379 1_554 S
C872 N879 1.356 . S
C873 C872 1.363 . S
C873 C876 1.363 . S
N874 C876 1.356 . S
N874 H886 0.984 . S
N874 H887 0.985 . S
N875 C877 1.356 . S
N875 H880 0.984 . S
N875 H881 0.985 . S
C876 C870 1.379 1_554 S
C876 C873 1.363 . S
C876 N874 1.356 . S
C877 C871 1.363 . S
C877 C872 1.379 1_556 S
C877 N875 1.356 . S
N878 C870 1.356 . S
N878 H884 0.984 . S
N878 H885 0.984 . S
N879 C872 1.356 . S
N879 H882 0.984 . S
N879 H883 0.985 . S
H880 N875 0.984 . S
H881 N875 0.985 . S
H882 N879 0.984 . S
H883 N879 0.985 . S
H884 N878 0.984 . S
H885 N878 0.984 . S
H886 N874 0.984 . S
H887 N874 0.985 . S
C888 C889 1.363 . S
C888 C894 1.379 . S
C888 N896 1.356 . S
C889 C888 1.363 . S
C889 C895 1.363 . S
C890 C891 1.363 . S
C890 C895 1.379 . S
C890 N897 1.356 . S
C891 C890 1.363 . S
C891 C894 1.363 . S
N892 C894 1.356 . S
N892 H904 0.984 . S
N892 H905 0.985 . S
N893 C895 1.356 . S
N893 H898 0.984 . S
N893 H899 0.985 . S
C894 C888 1.379 . S
C894 C891 1.363 . S
C894 N892 1.356 . S
C895 C889 1.363 . S
C895 C890 1.379 . S
C895 N893 1.356 . S
N896 C888 1.356 . S
N896 H902 0.984 . S
N896 H903 0.984 . S
N897 C890 1.356 . S
N897 H900 0.984 . S
N897 H901 0.985 . S
H898 N893 0.984 . S
H899 N893 0.985 . S
H900 N897 0.984 . S
H901 N897 0.985 . S
H902 N896 0.984 . S
H903 N896 0.984 . S
H904 N892 0.984 . S
H905 N892 0.985 . S
C906 C907 1.363 . S
C906 C912 1.379 . S
C906 N914 1.356 . S
C907 C906 1.363 . S
C907 C913 1.363 . S
C908 C909 1.363 . S
C908 C913 1.379 . S
C908 N915 1.356 . S
C909 C908 1.363 . S
C909 C912 1.363 . S
N910 C912 1.356 . S
N910 H922 0.984 . S
N910 H923 0.985 . S
N911 C913 1.356 . S
N911 H916 0.984 . S
N911 H917 0.985 . S
C912 C906 1.379 . S
C912 C909 1.363 . S
C912 N910 1.356 . S
C913 C907 1.363 . S
C913 C908 1.379 . S
C913 N911 1.356 . S
N914 C906 1.356 . S
N914 H920 0.984 . S
N914 H921 0.984 . S
N915 C908 1.356 . S
N915 H918 0.984 . S
N915 H919 0.985 . S
H916 N911 0.984 . S
H917 N911 0.985 . S
H918 N915 0.984 . S
H919 N915 0.985 . S
H920 N914 0.984 . S
H921 N914 0.984 . S
H922 N910 0.984 . S
H923 N910 0.985 . S
C924 C925 1.363 . S
C924 C930 1.379 . S
C924 N932 1.356 . S
C925 C924 1.363 . S
C925 C931 1.363 . S
C926 C927 1.363 . S
C926 C931 1.379 . S
C926 N933 1.356 . S
C927 C926 1.363 . S
C927 C930 1.363 . S
N928 C930 1.356 . S
N928 H940 0.984 . S
N928 H941 0.985 . S
N929 C931 1.356 . S
N929 H934 0.984 . S
N929 H935 0.985 . S
C930 C924 1.379 . S
C930 C927 1.363 . S
C930 N928 1.356 . S
C931 C925 1.363 . S
C931 C926 1.379 . S
C931 N929 1.356 . S
N932 C924 1.356 . S
N932 H938 0.984 . S
N932 H939 0.984 . S
N933 C926 1.356 . S
N933 H936 0.984 . S
N933 H937 0.985 . S
H934 N929 0.984 . S
H935 N929 0.985 . S
H936 N933 0.984 . S
H937 N933 0.985 . S
H938 N932 0.984 . S
H939 N932 0.984 . S
H940 N928 0.984 . S
H941 N928 0.985 . S
C942 C943 1.363 . S
C942 C948 1.379 . S
C942 N950 1.356 . S
C943 C942 1.363 . S
C943 C949 1.363 . S
C944 C945 1.363 . S
C944 C949 1.379 . S
C944 N951 1.356 . S
C945 C944 1.363 . S
C945 C948 1.363 . S
N946 C948 1.356 . S
N946 H958 0.984 . S
N946 H959 0.985 . S
N947 C949 1.356 . S
N947 H952 0.984 . S
N947 H953 0.985 . S
C948 C942 1.379 . S
C948 C945 1.363 . S
C948 N946 1.356 . S
C949 C943 1.363 . S
C949 C944 1.379 . S
C949 N947 1.356 . S
N950 C942 1.356 . S
N950 H956 0.984 . S
N950 H957 0.984 . S
N951 C944 1.356 . S
N951 H954 0.984 . S
N951 H955 0.985 . S
H952 N947 0.984 . S
H953 N947 0.985 . S
H954 N951 0.984 . S
H955 N951 0.985 . S
H956 N950 0.984 . S
H957 N950 0.984 . S
H958 N946 0.984 . S
H959 N946 0.985 . S
C960 C961 1.363 . S
C960 C966 1.379 . S
C960 N968 1.356 . S
C961 C960 1.363 . S
C961 C967 1.363 . S
C962 C963 1.363 . S
C962 C967 1.379 . S
C962 N969 1.356 . S
C963 C962 1.363 . S
C963 C966 1.363 . S
N964 C966 1.356 . S
N964 H976 0.984 . S
N964 H977 0.985 . S
N965 C967 1.356 . S
N965 H970 0.984 . S
N965 H971 0.985 . S
C966 C960 1.379 . S
C966 C963 1.363 . S
C966 N964 1.356 . S
C967 C961 1.363 . S
C967 C962 1.379 . S
C967 N965 1.356 . S
N968 C960 1.356 . S
N968 H974 0.984 . S
N968 H975 0.984 . S
N969 C962 1.356 . S
N969 H972 0.984 . S
N969 H973 0.985 . S
H970 N965 0.984 . S
H971 N965 0.985 . S
H972 N969 0.984 . S
H973 N969 0.985 . S
H974 N968 0.984 . S
H975 N968 0.984 . S
H976 N964 0.984 . S
H977 N964 0.985 . S
C978 C979 1.363 . S
C978 C984 1.379 . S
C978 N986 1.356 . S
C979 C978 1.363 . S
C979 C985 1.363 . S
C980 C981 1.363 . S
C980 C985 1.379 . S
C980 N987 1.356 . S
C981 C980 1.363 . S
C981 C984 1.363 . S
N982 C984 1.356 . S
N982 H994 0.984 . S
N982 H995 0.985 . S
N983 C985 1.356 . S
N983 H988 0.984 . S
N983 H989 0.985 . S
C984 C978 1.379 . S
C984 C981 1.363 . S
C984 N982 1.356 . S
C985 C979 1.363 . S
C985 C980 1.379 . S
C985 N983 1.356 . S
N986 C978 1.356 . S
N986 H992 0.984 . S
N986 H993 0.984 . S
N987 C980 1.356 . S
N987 H990 0.984 . S
N987 H991 0.985 . S
H988 N983 0.984 . S
H989 N983 0.985 . S
H990 N987 0.984 . S
H991 N987 0.985 . S
H992 N986 0.984 . S
H993 N986 0.984 . S
H994 N982 0.984 . S
H995 N982 0.985 . S
C996 C997 1.363 . S
C996 C1002 1.379 . S
C996 N1004 1.356 . S
C997 C996 1.363 . S
C997 C1003 1.363 . S
C998 C999 1.363 . S
C998 C1003 1.379 . S
C998 N1005 1.356 . S
C999 C998 1.363 . S
C999 C1002 1.363 . S
N1000 C1002 1.356 . S
N1000 H1012 0.984 . S
N1000 H1013 0.985 . S
N1001 C1003 1.356 . S
N1001 H1006 0.984 . S
N1001 H1007 0.985 . S
C1002 C996 1.379 . S
C1002 C999 1.363 . S
C1002 N1000 1.356 . S
C1003 C997 1.363 . S
C1003 C998 1.379 . S
C1003 N1001 1.356 . S
N1004 C996 1.356 . S
N1004 H1010 0.984 . S
N1004 H1011 0.984 . S
N1005 C998 1.356 . S
N1005 H1008 0.984 . S
N1005 H1009 0.985 . S
H1006 N1001 0.984 . S
H1007 N1001 0.985 . S
H1008 N1005 0.984 . S
H1009 N1005 0.985 . S
H1010 N1004 0.984 . S
H1011 N1004 0.984 . S
H1012 N1000 0.984 . S
H1013 N1000 0.985 . S
C1014 C1015 1.363 . S
C1014 C1020 1.379 . S
C1014 N1022 1.356 . S
C1015 C1014 1.363 . S
C1015 C1021 1.363 . S
C1016 C1017 1.363 . S
C1016 C1021 1.379 . S
C1016 N1023 1.356 . S
C1017 C1016 1.363 . S
C1017 C1020 1.363 . S
N1018 C1020 1.356 . S
N1018 H1030 0.984 . S
N1018 H1031 0.985 . S
N1019 C1021 1.356 . S
N1019 H1024 0.984 . S
N1019 H1025 0.985 . S
C1020 C1014 1.379 . S
C1020 C1017 1.363 . S
C1020 N1018 1.356 . S
C1021 C1015 1.363 . S
C1021 C1016 1.379 . S
C1021 N1019 1.356 . S
N1022 C1014 1.356 . S
N1022 H1028 0.984 . S
N1022 H1029 0.984 . S
N1023 C1016 1.356 . S
N1023 H1026 0.984 . S
N1023 H1027 0.985 . S
H1024 N1019 0.984 . S
H1025 N1019 0.985 . S
H1026 N1023 0.984 . S
H1027 N1023 0.985 . S
H1028 N1022 0.984 . S
H1029 N1022 0.984 . S
H1030 N1018 0.984 . S
H1031 N1018 0.985 . S
C1032 C1033 1.363 . S
C1032 C1038 1.379 . S
C1032 N1040 1.356 . S
C1033 C1032 1.363 . S
C1033 C1039 1.363 . S
C1034 C1035 1.363 . S
C1034 C1039 1.379 . S
C1034 N1041 1.356 . S
C1035 C1034 1.363 . S
C1035 C1038 1.363 . S
N1036 C1038 1.356 . S
N1036 H1048 0.984 . S
N1036 H1049 0.985 . S
N1037 C1039 1.356 . S
N1037 H1042 0.984 . S
N1037 H1043 0.985 . S
C1038 C1032 1.379 . S
C1038 C1035 1.363 . S
C1038 N1036 1.356 . S
C1039 C1033 1.363 . S
C1039 C1034 1.379 . S
C1039 N1037 1.356 . S
N1040 C1032 1.356 . S
N1040 H1046 0.984 . S
N1040 H1047 0.984 . S
N1041 C1034 1.356 . S
N1041 H1044 0.984 . S
N1041 H1045 0.985 . S
H1042 N1037 0.984 . S
H1043 N1037 0.985 . S
H1044 N1041 0.984 . S
H1045 N1041 0.985 . S
H1046 N1040 0.984 . S
H1047 N1040 0.984 . S
H1048 N1036 0.984 . S
H1049 N1036 0.985 . S
C1050 C1051 1.363 . S
C1050 C1056 1.379 . S
C1050 N1058 1.356 . S
C1051 C1050 1.363 . S
C1051 C1057 1.363 . S
C1052 C1053 1.363 . S
C1052 C1057 1.379 . S
C1052 N1059 1.356 . S
C1053 C1052 1.363 . S
C1053 C1056 1.363 . S
N1054 C1056 1.356 . S
N1054 H1066 0.984 . S
N1054 H1067 0.985 . S
N1055 C1057 1.356 . S
N1055 H1060 0.984 . S
N1055 H1061 0.985 . S
C1056 C1050 1.379 . S
C1056 C1053 1.363 . S
C1056 N1054 1.356 . S
C1057 C1051 1.363 . S
C1057 C1052 1.379 . S
C1057 N1055 1.356 . S
N1058 C1050 1.356 . S
N1058 H1064 0.984 . S
N1058 H1065 0.984 . S
N1059 C1052 1.356 . S
N1059 H1062 0.984 . S
N1059 H1063 0.985 . S
H1060 N1055 0.984 . S
H1061 N1055 0.985 . S
H1062 N1059 0.984 . S
H1063 N1059 0.985 . S
H1064 N1058 0.984 . S
H1065 N1058 0.984 . S
H1066 N1054 0.984 . S
H1067 N1054 0.985 . S
C1068 C1069 1.363 . S
C1068 C1074 1.379 . S
C1068 N1076 1.356 . S
C1069 C1068 1.363 . S
C1069 C1075 1.363 . S
C1070 C1071 1.363 . S
C1070 C1075 1.379 . S
C1070 N1077 1.356 . S
C1071 C1070 1.363 . S
C1071 C1074 1.363 . S
N1072 C1074 1.356 . S
N1072 H1084 0.984 . S
N1072 H1085 0.985 . S
N1073 C1075 1.356 . S
N1073 H1078 0.984 . S
N1073 H1079 0.985 . S
C1074 C1068 1.379 . S
C1074 C1071 1.363 . S
C1074 N1072 1.356 . S
C1075 C1069 1.363 . S
C1075 C1070 1.379 . S
C1075 N1073 1.356 . S
N1076 C1068 1.356 . S
N1076 H1082 0.984 . S
N1076 H1083 0.984 . S
N1077 C1070 1.356 . S
N1077 H1080 0.984 . S
N1077 H1081 0.985 . S
H1078 N1073 0.984 . S
H1079 N1073 0.985 . S
H1080 N1077 0.984 . S
H1081 N1077 0.985 . S
H1082 N1076 0.984 . S
H1083 N1076 0.984 . S
H1084 N1072 0.984 . S
H1085 N1072 0.985 . S
C1086 C1087 1.363 . S
C1086 C1092 1.379 . S
C1086 N1094 1.356 . S
C1087 C1086 1.363 . S
C1087 C1093 1.363 . S
C1088 C1089 1.363 . S
C1088 C1093 1.379 . S
C1088 N1095 1.356 . S
C1089 C1088 1.363 . S
C1089 C1092 1.363 . S
N1090 C1092 1.356 . S
N1090 H1102 0.984 . S
N1090 H1103 0.985 . S
N1091 C1093 1.356 . S
N1091 H1096 0.984 . S
N1091 H1097 0.985 . S
C1092 C1086 1.379 . S
C1092 C1089 1.363 . S
C1092 N1090 1.356 . S
C1093 C1087 1.363 . S
C1093 C1088 1.379 . S
C1093 N1091 1.356 . S
N1094 C1086 1.356 . S
N1094 H1100 0.984 . S
N1094 H1101 0.984 . S
N1095 C1088 1.356 . S
N1095 H1098 0.984 . S
N1095 H1099 0.985 . S
H1096 N1091 0.984 . S
H1097 N1091 0.985 . S
H1098 N1095 0.984 . S
H1099 N1095 0.985 . S
H1100 N1094 0.984 . S
H1101 N1094 0.984 . S
H1102 N1090 0.984 . S
H1103 N1090 0.985 . S
C1104 C1105 1.363 . S
C1104 C1110 1.379 . S
C1104 N1112 1.356 . S
C1105 C1104 1.363 . S
C1105 C1111 1.363 . S
C1106 C1107 1.363 . S
C1106 C1111 1.379 . S
C1106 N1113 1.356 . S
C1107 C1106 1.363 . S
C1107 C1110 1.363 . S
N1108 C1110 1.356 . S
N1108 H1120 0.984 . S
N1108 H1121 0.985 . S
N1109 C1111 1.356 . S
N1109 H1114 0.984 . S
N1109 H1115 0.985 . S
C1110 C1104 1.379 . S
C1110 C1107 1.363 . S
C1110 N1108 1.356 . S
C1111 C1105 1.363 . S
C1111 C1106 1.379 . S
C1111 N1109 1.356 . S
N1112 C1104 1.356 . S
N1112 H1118 0.984 . S
N1112 H1119 0.984 . S
N1113 C1106 1.356 . S
N1113 H1116 0.984 . S
N1113 H1117 0.985 . S
H1114 N1109 0.984 . S
H1115 N1109 0.985 . S
H1116 N1113 0.984 . S
H1117 N1113 0.985 . S
H1118 N1112 0.984 . S
H1119 N1112 0.984 . S
H1120 N1108 0.984 . S
H1121 N1108 0.985 . S
C1122 C1123 1.363 . S
C1122 C1128 1.379 . S
C1122 N1130 1.356 . S
C1123 C1122 1.363 . S
C1123 C1129 1.363 . S
C1124 C1125 1.363 . S
C1124 C1129 1.379 . S
C1124 N1131 1.356 . S
C1125 C1124 1.363 . S
C1125 C1128 1.363 . S
N1126 C1128 1.356 . S
N1126 H1138 0.984 . S
N1126 H1139 0.985 . S
N1127 C1129 1.356 . S
N1127 H1132 0.984 . S
N1127 H1133 0.985 . S
C1128 C1122 1.379 . S
C1128 C1125 1.363 . S
C1128 N1126 1.356 . S
C1129 C1123 1.363 . S
C1129 C1124 1.379 . S
C1129 N1127 1.356 . S
N1130 C1122 1.356 . S
N1130 H1136 0.984 . S
N1130 H1137 0.984 . S
N1131 C1124 1.356 . S
N1131 H1134 0.984 . S
N1131 H1135 0.985 . S
H1132 N1127 0.984 . S
H1133 N1127 0.985 . S
H1134 N1131 0.984 . S
H1135 N1131 0.985 . S
H1136 N1130 0.984 . S
H1137 N1130 0.984 . S
H1138 N1126 0.984 . S
H1139 N1126 0.985 . S
C1140 C1141 1.363 . S
C1140 C1146 1.379 . S
C1140 N1148 1.356 . S
C1141 C1140 1.363 . S
C1141 C1147 1.363 . S
C1142 C1143 1.363 . S
C1142 C1147 1.379 . S
C1142 N1149 1.356 . S
C1143 C1142 1.363 . S
C1143 C1146 1.363 . S
N1144 C1146 1.356 . S
N1144 H1156 0.984 . S
N1144 H1157 0.985 . S
N1145 C1147 1.356 . S
N1145 H1150 0.984 . S
N1145 H1151 0.985 . S
C1146 C1140 1.379 . S
C1146 C1143 1.363 . S
C1146 N1144 1.356 . S
C1147 C1141 1.363 . S
C1147 C1142 1.379 . S
C1147 N1145 1.356 . S
N1148 C1140 1.356 . S
N1148 H1154 0.984 . S
N1148 H1155 0.984 . S
N1149 C1142 1.356 . S
N1149 H1152 0.984 . S
N1149 H1153 0.985 . S
H1150 N1145 0.984 . S
H1151 N1145 0.985 . S
H1152 N1149 0.984 . S
H1153 N1149 0.985 . S
H1154 N1148 0.984 . S
H1155 N1148 0.984 . S
H1156 N1144 0.984 . S
H1157 N1144 0.985 . S
C1158 C1159 1.363 . S
C1158 C1164 1.379 . S
C1158 N1166 1.356 . S
C1159 C1158 1.363 . S
C1159 C1165 1.363 . S
C1160 C1161 1.363 . S
C1160 C1165 1.379 . S
C1160 N1167 1.356 . S
C1161 C1160 1.363 . S
C1161 C1164 1.363 . S
N1162 C1164 1.356 . S
N1162 H1174 0.984 . S
N1162 H1175 0.985 . S
N1163 C1165 1.356 . S
N1163 H1168 0.984 . S
N1163 H1169 0.985 . S
C1164 C1158 1.379 . S
C1164 C1161 1.363 . S
C1164 N1162 1.356 . S
C1165 C1159 1.363 . S
C1165 C1160 1.379 . S
C1165 N1163 1.356 . S
N1166 C1158 1.356 . S
N1166 H1172 0.984 . S
N1166 H1173 0.984 . S
N1167 C1160 1.356 . S
N1167 H1170 0.984 . S
N1167 H1171 0.985 . S
H1168 N1163 0.984 . S
H1169 N1163 0.985 . S
H1170 N1167 0.984 . S
H1171 N1167 0.985 . S
H1172 N1166 0.984 . S
H1173 N1166 0.984 . S
H1174 N1162 0.984 . S
H1175 N1162 0.985 . S
C1176 C1177 1.363 . S
C1176 C1182 1.379 . S
C1176 N1184 1.356 . S
C1177 C1176 1.363 . S
C1177 C1183 1.363 . S
C1178 C1179 1.363 . S
C1178 C1183 1.379 . S
C1178 N1185 1.356 . S
C1179 C1178 1.363 . S
C1179 C1182 1.363 . S
N1180 C1182 1.356 . S
N1180 H1192 0.984 . S
N1180 H1193 0.985 . S
N1181 C1183 1.356 . S
N1181 H1186 0.984 . S
N1181 H1187 0.985 . S
C1182 C1176 1.379 . S
C1182 C1179 1.363 . S
C1182 N1180 1.356 . S
C1183 C1177 1.363 . S
C1183 C1178 1.379 . S
C1183 N1181 1.356 . S
N1184 C1176 1.356 . S
N1184 H1190 0.984 . S
N1184 H1191 0.984 . S
N1185 C1178 1.356 . S
N1185 H1188 0.984 . S
N1185 H1189 0.985 . S
H1186 N1181 0.984 . S
H1187 N1181 0.985 . S
H1188 N1185 0.984 . S
H1189 N1185 0.985 . S
H1190 N1184 0.984 . S
H1191 N1184 0.984 . S
H1192 N1180 0.984 . S
H1193 N1180 0.985 . S
C1194 C1195 1.363 . S
C1194 C1200 1.379 . S
C1194 N1202 1.356 . S
C1195 C1194 1.363 . S
C1195 C1201 1.363 . S
C1196 C1197 1.363 . S
C1196 C1201 1.379 . S
C1196 N1203 1.356 . S
C1197 C1196 1.363 . S
C1197 C1200 1.363 . S
N1198 C1200 1.356 . S
N1198 H1210 0.984 . S
N1198 H1211 0.985 . S
N1199 C1201 1.356 . S
N1199 H1204 0.984 . S
N1199 H1205 0.985 . S
C1200 C1194 1.379 . S
C1200 C1197 1.363 . S
C1200 N1198 1.356 . S
C1201 C1195 1.363 . S
C1201 C1196 1.379 . S
C1201 N1199 1.356 . S
N1202 C1194 1.356 . S
N1202 H1208 0.984 . S
N1202 H1209 0.984 . S
N1203 C1196 1.356 . S
N1203 H1206 0.984 . S
N1203 H1207 0.985 . S
H1204 N1199 0.984 . S
H1205 N1199 0.985 . S
H1206 N1203 0.984 . S
H1207 N1203 0.985 . S
H1208 N1202 0.984 . S
H1209 N1202 0.984 . S
H1210 N1198 0.984 . S
H1211 N1198 0.985 . S
C1212 C1213 1.363 . S
C1212 C1218 1.379 . S
C1212 N1220 1.356 . S
C1213 C1212 1.363 . S
C1213 C1219 1.363 . S
C1214 C1215 1.363 . S
C1214 C1219 1.379 . S
C1214 N1221 1.356 . S
C1215 C1214 1.363 . S
C1215 C1218 1.363 . S
N1216 C1218 1.356 . S
N1216 H1228 0.984 . S
N1216 H1229 0.985 . S
N1217 C1219 1.356 . S
N1217 H1222 0.984 . S
N1217 H1223 0.985 . S
C1218 C1212 1.379 . S
C1218 C1215 1.363 . S
C1218 N1216 1.356 . S
C1219 C1213 1.363 . S
C1219 C1214 1.379 . S
C1219 N1217 1.356 . S
N1220 C1212 1.356 . S
N1220 H1226 0.984 . S
N1220 H1227 0.984 . S
N1221 C1214 1.356 . S
N1221 H1224 0.984 . S
N1221 H1225 0.985 . S
H1222 N1217 0.984 . S
H1223 N1217 0.985 . S
H1224 N1221 0.984 . S
H1225 N1221 0.985 . S
H1226 N1220 0.984 . S
H1227 N1220 0.984 . S
H1228 N1216 0.984 . S
H1229 N1216 0.985 . S
C1230 C1231 1.363 . S
C1230 C1236 1.379 . S
C1230 N1238 1.356 . S
C1231 C1230 1.363 . S
C1231 C1237 1.363 . S
C1232 C1233 1.363 . S
C1232 C1237 1.379 . S
C1232 N1239 1.356 . S
C1233 C1232 1.363 . S
C1233 C1236 1.363 . S
N1234 C1236 1.356 . S
N1234 H1246 0.984 . S
N1234 H1247 0.985 . S
N1235 C1237 1.356 . S
N1235 H1240 0.984 . S
N1235 H1241 0.985 . S
C1236 C1230 1.379 . S
C1236 C1233 1.363 . S
C1236 N1234 1.356 . S
C1237 C1231 1.363 . S
C1237 C1232 1.379 . S
C1237 N1235 1.356 . S
N1238 C1230 1.356 . S
N1238 H1244 0.984 . S
N1238 H1245 0.984 . S
N1239 C1232 1.356 . S
N1239 H1242 0.984 . S
N1239 H1243 0.985 . S
H1240 N1235 0.984 . S
H1241 N1235 0.985 . S
H1242 N1239 0.984 . S
H1243 N1239 0.985 . S
H1244 N1238 0.984 . S
H1245 N1238 0.984 . S
H1246 N1234 0.984 . S
H1247 N1234 0.985 . S
C1248 C1249 1.363 . S
C1248 C1254 1.379 . S
C1248 N1256 1.356 . S
C1249 C1248 1.363 . S
C1249 C1255 1.363 . S
C1250 C1251 1.363 . S
C1250 C1255 1.379 . S
C1250 N1257 1.356 . S
C1251 C1250 1.363 . S
C1251 C1254 1.363 . S
N1252 C1254 1.356 . S
N1252 H1264 0.984 . S
N1252 H1265 0.985 . S
N1253 C1255 1.356 . S
N1253 H1258 0.984 . S
N1253 H1259 0.985 . S
C1254 C1248 1.379 . S
C1254 C1251 1.363 . S
C1254 N1252 1.356 . S
C1255 C1249 1.363 . S
C1255 C1250 1.379 . S
C1255 N1253 1.356 . S
N1256 C1248 1.356 . S
N1256 H1262 0.984 . S
N1256 H1263 0.984 . S
N1257 C1250 1.356 . S
N1257 H1260 0.984 . S
N1257 H1261 0.985 . S
H1258 N1253 0.984 . S
H1259 N1253 0.985 . S
H1260 N1257 0.984 . S
H1261 N1257 0.985 . S
H1262 N1256 0.984 . S
H1263 N1256 0.984 . S
H1264 N1252 0.984 . S
H1265 N1252 0.985 . S
C1266 C1267 1.363 . S
C1266 C1272 1.379 . S
C1266 N1274 1.356 . S
C1267 C1266 1.363 . S
C1267 C1273 1.363 . S
C1268 C1269 1.363 . S
C1268 C1273 1.379 . S
C1268 N1275 1.356 . S
C1269 C1268 1.363 . S
C1269 C1272 1.363 . S
N1270 C1272 1.356 . S
N1270 H1282 0.984 . S
N1270 H1283 0.985 . S
N1271 C1273 1.356 . S
N1271 H1276 0.984 . S
N1271 H1277 0.985 . S
C1272 C1266 1.379 . S
C1272 C1269 1.363 . S
C1272 N1270 1.356 . S
C1273 C1267 1.363 . S
C1273 C1268 1.379 . S
C1273 N1271 1.356 . S
N1274 C1266 1.356 . S
N1274 H1280 0.984 . S
N1274 H1281 0.984 . S
N1275 C1268 1.356 . S
N1275 H1278 0.984 . S
N1275 H1279 0.985 . S
H1276 N1271 0.984 . S
H1277 N1271 0.985 . S
H1278 N1275 0.984 . S
H1279 N1275 0.985 . S
H1280 N1274 0.984 . S
H1281 N1274 0.984 . S
H1282 N1270 0.984 . S
H1283 N1270 0.985 . S
C1284 C1285 1.363 . S
C1284 C1290 1.379 . S
C1284 N1292 1.356 . S
C1285 C1284 1.363 . S
C1285 C1291 1.363 . S
C1286 C1287 1.363 . S
C1286 C1291 1.379 . S
C1286 N1293 1.356 . S
C1287 C1286 1.363 . S
C1287 C1290 1.363 . S
N1288 C1290 1.356 . S
N1288 H1300 0.984 . S
N1288 H1301 0.985 . S
N1289 C1291 1.356 . S
N1289 H1294 0.984 . S
N1289 H1295 0.985 . S
C1290 C1284 1.379 . S
C1290 C1287 1.363 . S
C1290 N1288 1.356 . S
C1291 C1285 1.363 . S
C1291 C1286 1.379 . S
C1291 N1289 1.356 . S
N1292 C1284 1.356 . S
N1292 H1298 0.984 . S
N1292 H1299 0.984 . S
N1293 C1286 1.356 . S
N1293 H1296 0.984 . S
N1293 H1297 0.985 . S
H1294 N1289 0.984 . S
H1295 N1289 0.985 . S
H1296 N1293 0.984 . S
H1297 N1293 0.985 . S
H1298 N1292 0.984 . S
H1299 N1292 0.984 . S
H1300 N1288 0.984 . S
H1301 N1288 0.985 . S
C1302 C1303 1.363 . S
C1302 C1308 1.379 . S
C1302 N1310 1.356 . S
C1303 C1302 1.363 . S
C1303 C1309 1.363 . S
C1304 C1305 1.363 . S
C1304 C1309 1.379 . S
C1304 N1311 1.356 . S
C1305 C1304 1.363 . S
C1305 C1308 1.363 . S
N1306 C1308 1.356 . S
N1306 H1318 0.984 . S
N1306 H1319 0.985 . S
N1307 C1309 1.356 . S
N1307 H1312 0.984 . S
N1307 H1313 0.985 . S
C1308 C1302 1.379 . S
C1308 C1305 1.363 . S
C1308 N1306 1.356 . S
C1309 C1303 1.363 . S
C1309 C1304 1.379 . S
C1309 N1307 1.356 . S
N1310 C1302 1.356 . S
N1310 H1316 0.984 . S
N1310 H1317 0.984 . S
N1311 C1304 1.356 . S
N1311 H1314 0.984 . S
N1311 H1315 0.985 . S
H1312 N1307 0.984 . S
H1313 N1307 0.985 . S
H1314 N1311 0.984 . S
H1315 N1311 0.985 . S
H1316 N1310 0.984 . S
H1317 N1310 0.984 . S
H1318 N1306 0.984 . S
H1319 N1306 0.985 . S
C1320 C1321 1.363 . S
C1320 C1326 1.379 . S
C1320 N1328 1.356 . S
C1321 C1320 1.363 . S
C1321 C1327 1.363 . S
C1322 C1323 1.363 . S
C1322 C1327 1.379 . S
C1322 N1329 1.356 . S
C1323 C1322 1.363 . S
C1323 C1326 1.363 . S
N1324 C1326 1.356 . S
N1324 H1336 0.984 . S
N1324 H1337 0.985 . S
N1325 C1327 1.356 . S
N1325 H1330 0.984 . S
N1325 H1331 0.985 . S
C1326 C1320 1.379 . S
C1326 C1323 1.363 . S
C1326 N1324 1.356 . S
C1327 C1321 1.363 . S
C1327 C1322 1.379 . S
C1327 N1325 1.356 . S
N1328 C1320 1.356 . S
N1328 H1334 0.984 . S
N1328 H1335 0.984 . S
N1329 C1322 1.356 . S
N1329 H1332 0.984 . S
N1329 H1333 0.985 . S
H1330 N1325 0.984 . S
H1331 N1325 0.985 . S
H1332 N1329 0.984 . S
H1333 N1329 0.985 . S
H1334 N1328 0.984 . S
H1335 N1328 0.984 . S
H1336 N1324 0.984 . S
H1337 N1324 0.985 . S
C1338 C1339 1.363 . S
C1338 C1344 1.379 . S
C1338 N1346 1.356 . S
C1339 C1338 1.363 . S
C1339 C1345 1.363 . S
C1340 C1341 1.363 . S
C1340 C1345 1.379 . S
C1340 N1347 1.356 . S
C1341 C1340 1.363 . S
C1341 C1344 1.363 . S
N1342 C1344 1.356 . S
N1342 H1354 0.984 . S
N1342 H1355 0.985 . S
N1343 C1345 1.356 . S
N1343 H1348 0.984 . S
N1343 H1349 0.985 . S
C1344 C1338 1.379 . S
C1344 C1341 1.363 . S
C1344 N1342 1.356 . S
C1345 C1339 1.363 . S
C1345 C1340 1.379 . S
C1345 N1343 1.356 . S
N1346 C1338 1.356 . S
N1346 H1352 0.984 . S
N1346 H1353 0.984 . S
N1347 C1340 1.356 . S
N1347 H1350 0.984 . S
N1347 H1351 0.985 . S
H1348 N1343 0.984 . S
H1349 N1343 0.985 . S
H1350 N1347 0.984 . S
H1351 N1347 0.985 . S
H1352 N1346 0.984 . S
H1353 N1346 0.984 . S
H1354 N1342 0.984 . S
H1355 N1342 0.985 . S
C1356 C1357 1.363 . S
C1356 C1362 1.379 . S
C1356 N1364 1.356 . S
C1357 C1356 1.363 . S
C1357 C1363 1.363 . S
C1358 C1359 1.363 . S
C1358 C1363 1.379 . S
C1358 N1365 1.356 . S
C1359 C1358 1.363 . S
C1359 C1362 1.363 . S
N1360 C1362 1.356 . S
N1360 H1372 0.984 . S
N1360 H1373 0.985 . S
N1361 C1363 1.356 . S
N1361 H1366 0.984 . S
N1361 H1367 0.985 . S
C1362 C1356 1.379 . S
C1362 C1359 1.363 . S
C1362 N1360 1.356 . S
C1363 C1357 1.363 . S
C1363 C1358 1.379 . S
C1363 N1361 1.356 . S
N1364 C1356 1.356 . S
N1364 H1370 0.984 . S
N1364 H1371 0.984 . S
N1365 C1358 1.356 . S
N1365 H1368 0.984 . S
N1365 H1369 0.985 . S
H1366 N1361 0.984 . S
H1367 N1361 0.985 . S
H1368 N1365 0.984 . S
H1369 N1365 0.985 . S
H1370 N1364 0.984 . S
H1371 N1364 0.984 . S
H1372 N1360 0.984 . S
H1373 N1360 0.985 . S
C1374 C1375 1.363 . S
C1374 C1380 1.379 . S
C1374 N1382 1.356 . S
C1375 C1374 1.363 . S
C1375 C1381 1.363 . S
C1376 C1377 1.363 . S
C1376 C1381 1.379 . S
C1376 N1383 1.356 . S
C1377 C1376 1.363 . S
C1377 C1380 1.363 . S
N1378 C1380 1.356 . S
N1378 H1390 0.984 . S
N1378 H1391 0.985 . S
N1379 C1381 1.356 . S
N1379 H1384 0.984 . S
N1379 H1385 0.985 . S
C1380 C1374 1.379 . S
C1380 C1377 1.363 . S
C1380 N1378 1.356 . S
C1381 C1375 1.363 . S
C1381 C1376 1.379 . S
C1381 N1379 1.356 . S
N1382 C1374 1.356 . S
N1382 H1388 0.984 . S
N1382 H1389 0.984 . S
N1383 C1376 1.356 . S
N1383 H1386 0.984 . S
N1383 H1387 0.985 . S
H1384 N1379 0.984 . S
H1385 N1379 0.985 . S
H1386 N1383 0.984 . S
H1387 N1383 0.985 . S
H1388 N1382 0.984 . S
H1389 N1382 0.984 . S
H1390 N1378 0.984 . S
H1391 N1378 0.985 . S
C1392 C1393 1.363 . S
C1392 C1398 1.379 . S
C1392 N1400 1.356 . S
C1393 C1392 1.363 . S
C1393 C1399 1.363 . S
C1394 C1395 1.363 . S
C1394 C1399 1.379 . S
C1394 N1401 1.356 . S
C1395 C1394 1.363 . S
C1395 C1398 1.363 . S
N1396 C1398 1.356 . S
N1396 H1408 0.984 . S
N1396 H1409 0.985 . S
N1397 C1399 1.356 . S
N1397 H1402 0.984 . S
N1397 H1403 0.985 . S
C1398 C1392 1.379 . S
C1398 C1395 1.363 . S
C1398 N1396 1.356 . S
C1399 C1393 1.363 . S
C1399 C1394 1.379 . S
C1399 N1397 1.356 . S
N1400 C1392 1.356 . S
N1400 H1406 0.984 . S
N1400 H1407 0.984 . S
N1401 C1394 1.356 . S
N1401 H1404 0.984 . S
N1401 H1405 0.985 . S
H1402 N1397 0.984 . S
H1403 N1397 0.985 . S
H1404 N1401 0.984 . S
H1405 N1401 0.985 . S
H1406 N1400 0.984 . S
H1407 N1400 0.984 . S
H1408 N1396 0.984 . S
H1409 N1396 0.985 . S
C1410 C1411 1.363 . S
C1410 C1416 1.379 . S
C1410 N1418 1.356 . S
C1411 C1410 1.363 . S
C1411 C1417 1.363 . S
C1412 C1413 1.363 . S
C1412 C1417 1.379 . S
C1412 N1419 1.356 . S
C1413 C1412 1.363 . S
C1413 C1416 1.363 . S
N1414 C1416 1.356 . S
N1414 H1426 0.984 . S
N1414 H1427 0.985 . S
N1415 C1417 1.356 . S
N1415 H1420 0.984 . S
N1415 H1421 0.985 . S
C1416 C1410 1.379 . S
C1416 C1413 1.363 . S
C1416 N1414 1.356 . S
C1417 C1411 1.363 . S
C1417 C1412 1.379 . S
C1417 N1415 1.356 . S
N1418 C1410 1.356 . S
N1418 H1424 0.984 . S
N1418 H1425 0.984 . S
N1419 C1412 1.356 . S
N1419 H1422 0.984 . S
N1419 H1423 0.985 . S
H1420 N1415 0.984 . S
H1421 N1415 0.985 . S
H1422 N1419 0.984 . S
H1423 N1419 0.985 . S
H1424 N1418 0.984 . S
H1425 N1418 0.984 . S
H1426 N1414 0.984 . S
H1427 N1414 0.985 . S
C1428 C1429 1.363 . S
C1428 C1434 1.379 . S
C1428 N1436 1.356 . S
C1429 C1428 1.363 . S
C1429 C1435 1.363 . S
C1430 C1431 1.363 . S
C1430 C1435 1.379 . S
C1430 N1437 1.356 . S
C1431 C1430 1.363 . S
C1431 C1434 1.363 . S
N1432 C1434 1.356 . S
N1432 H1444 0.984 . S
N1432 H1445 0.985 . S
N1433 C1435 1.356 . S
N1433 H1438 0.984 . S
N1433 H1439 0.985 . S
C1434 C1428 1.379 . S
C1434 C1431 1.363 . S
C1434 N1432 1.356 . S
C1435 C1429 1.363 . S
C1435 C1430 1.379 . S
C1435 N1433 1.356 . S
N1436 C1428 1.356 . S
N1436 H1442 0.984 . S
N1436 H1443 0.984 . S
N1437 C1430 1.356 . S
N1437 H1440 0.984 . S
N1437 H1441 0.985 . S
H1438 N1433 0.984 . S
H1439 N1433 0.985 . S
H1440 N1437 0.984 . S
H1441 N1437 0.985 . S
H1442 N1436 0.984 . S
H1443 N1436 0.984 . S
H1444 N1432 0.984 . S
H1445 N1432 0.985 . S
C1446 C1447 1.363 . S
C1446 C1452 1.379 . S
C1446 N1454 1.356 . S
C1447 C1446 1.363 . S
C1447 C1453 1.363 . S
C1448 C1449 1.363 . S
C1448 C1453 1.379 . S
C1448 N1455 1.356 . S
C1449 C1448 1.363 . S
C1449 C1452 1.363 . S
N1450 C1452 1.356 . S
N1450 H1462 0.984 . S
N1450 H1463 0.985 . S
N1451 C1453 1.356 . S
N1451 H1456 0.984 . S
N1451 H1457 0.985 . S
C1452 C1446 1.379 . S
C1452 C1449 1.363 . S
C1452 N1450 1.356 . S
C1453 C1447 1.363 . S
C1453 C1448 1.379 . S
C1453 N1451 1.356 . S
N1454 C1446 1.356 . S
N1454 H1460 0.984 . S
N1454 H1461 0.984 . S
N1455 C1448 1.356 . S
N1455 H1458 0.984 . S
N1455 H1459 0.985 . S
H1456 N1451 0.984 . S
H1457 N1451 0.985 . S
H1458 N1455 0.984 . S
H1459 N1455 0.985 . S
H1460 N1454 0.984 . S
H1461 N1454 0.984 . S
H1462 N1450 0.984 . S
H1463 N1450 0.985 . S
C1464 C1465 1.363 . S
C1464 C1470 1.379 . S
C1464 N1472 1.356 . S
C1465 C1464 1.363 . S
C1465 C1471 1.363 . S
C1466 C1467 1.363 . S
C1466 C1471 1.379 . S
C1466 N1473 1.356 . S
C1467 C1466 1.363 . S
C1467 C1470 1.363 . S
N1468 C1470 1.356 . S
N1468 H1480 0.984 . S
N1468 H1481 0.985 . S
N1469 C1471 1.356 . S
N1469 H1474 0.984 . S
N1469 H1475 0.985 . S
C1470 C1464 1.379 . S
C1470 C1467 1.363 . S
C1470 N1468 1.356 . S
C1471 C1465 1.363 . S
C1471 C1466 1.379 . S
C1471 N1469 1.356 . S
N1472 C1464 1.356 . S
N1472 H1478 0.984 . S
N1472 H1479 0.984 . S
N1473 C1466 1.356 . S
N1473 H1476 0.984 . S
N1473 H1477 0.985 . S
H1474 N1469 0.984 . S
H1475 N1469 0.985 . S
H1476 N1473 0.984 . S
H1477 N1473 0.985 . S
H1478 N1472 0.984 . S
H1479 N1472 0.984 . S
H1480 N1468 0.984 . S
H1481 N1468 0.985 . S
C1482 C1483 1.363 . S
C1482 C1488 1.379 . S
C1482 N1490 1.356 . S
C1483 C1482 1.363 . S
C1483 C1489 1.363 . S
C1484 C1485 1.363 . S
C1484 C1489 1.379 . S
C1484 N1491 1.356 . S
C1485 C1484 1.363 . S
C1485 C1488 1.363 . S
N1486 C1488 1.356 . S
N1486 H1498 0.984 . S
N1486 H1499 0.985 . S
N1487 C1489 1.356 . S
N1487 H1492 0.984 . S
N1487 H1493 0.985 . S
C1488 C1482 1.379 . S
C1488 C1485 1.363 . S
C1488 N1486 1.356 . S
C1489 C1483 1.363 . S
C1489 C1484 1.379 . S
C1489 N1487 1.356 . S
N1490 C1482 1.356 . S
N1490 H1496 0.984 . S
N1490 H1497 0.984 . S
N1491 C1484 1.356 . S
N1491 H1494 0.984 . S
N1491 H1495 0.985 . S
H1492 N1487 0.984 . S
H1493 N1487 0.985 . S
H1494 N1491 0.984 . S
H1495 N1491 0.985 . S
H1496 N1490 0.984 . S
H1497 N1490 0.984 . S
H1498 N1486 0.984 . S
H1499 N1486 0.985 . S
C1500 C1501 1.363 . S
C1500 C1506 1.379 . S
C1500 N1508 1.356 . S
C1501 C1500 1.363 . S
C1501 C1507 1.363 . S
C1502 C1503 1.363 . S
C1502 C1507 1.379 . S
C1502 N1509 1.356 . S
C1503 C1502 1.363 . S
C1503 C1506 1.363 . S
N1504 C1506 1.356 . S
N1504 H1516 0.984 . S
N1504 H1517 0.985 . S
N1505 C1507 1.356 . S
N1505 H1510 0.984 . S
N1505 H1511 0.985 . S
C1506 C1500 1.379 . S
C1506 C1503 1.363 . S
C1506 N1504 1.356 . S
C1507 C1501 1.363 . S
C1507 C1502 1.379 . S
C1507 N1505 1.356 . S
N1508 C1500 1.356 . S
N1508 H1514 0.984 . S
N1508 H1515 0.984 . S
N1509 C1502 1.356 . S
N1509 H1512 0.984 . S
N1509 H1513 0.985 . S
H1510 N1505 0.984 . S
H1511 N1505 0.985 . S
H1512 N1509 0.984 . S
H1513 N1509 0.985 . S
H1514 N1508 0.984 . S
H1515 N1508 0.984 . S
H1516 N1504 0.984 . S
H1517 N1504 0.985 . S
C1518 C1519 1.363 . S
C1518 C1524 1.379 . S
C1518 N1526 1.356 . S
C1519 C1518 1.363 . S
C1519 C1525 1.363 . S
C1520 C1521 1.363 . S
C1520 C1525 1.379 . S
C1520 N1527 1.356 . S
C1521 C1520 1.363 . S
C1521 C1524 1.363 . S
N1522 C1524 1.356 . S
N1522 H1534 0.984 . S
N1522 H1535 0.985 . S
N1523 C1525 1.356 . S
N1523 H1528 0.984 . S
N1523 H1529 0.985 . S
C1524 C1518 1.379 . S
C1524 C1521 1.363 . S
C1524 N1522 1.356 . S
C1525 C1519 1.363 . S
C1525 C1520 1.379 . S
C1525 N1523 1.356 . S
N1526 C1518 1.356 . S
N1526 H1532 0.984 . S
N1526 H1533 0.984 . S
N1527 C1520 1.356 . S
N1527 H1530 0.984 . S
N1527 H1531 0.985 . S
H1528 N1523 0.984 . S
H1529 N1523 0.985 . S
H1530 N1527 0.984 . S
H1531 N1527 0.985 . S
H1532 N1526 0.984 . S
H1533 N1526 0.984 . S
H1534 N1522 0.984 . S
H1535 N1522 0.985 . S
C1536 C1537 1.363 . S
C1536 C1542 1.379 . S
C1536 N1544 1.356 . S
C1537 C1536 1.363 . S
C1537 C1543 1.363 . S
C1538 C1539 1.363 . S
C1538 C1543 1.379 . S
C1538 N1545 1.356 . S
C1539 C1538 1.363 . S
C1539 C1542 1.363 . S
N1540 C1542 1.356 . S
N1540 H1552 0.984 . S
N1540 H1553 0.985 . S
N1541 C1543 1.356 . S
N1541 H1546 0.984 . S
N1541 H1547 0.985 . S
C1542 C1536 1.379 . S
C1542 C1539 1.363 . S
C1542 N1540 1.356 . S
C1543 C1537 1.363 . S
C1543 C1538 1.379 . S
C1543 N1541 1.356 . S
N1544 C1536 1.356 . S
N1544 H1550 0.984 . S
N1544 H1551 0.984 . S
N1545 C1538 1.356 . S
N1545 H1548 0.984 . S
N1545 H1549 0.985 . S
H1546 N1541 0.984 . S
H1547 N1541 0.985 . S
H1548 N1545 0.984 . S
H1549 N1545 0.985 . S
H1550 N1544 0.984 . S
H1551 N1544 0.984 . S
H1552 N1540 0.984 . S
H1553 N1540 0.985 . S
C1554 C1555 1.363 . S
C1554 C1560 1.379 . S
C1554 N1562 1.356 . S
C1555 C1554 1.363 . S
C1555 C1561 1.363 . S
C1556 C1557 1.363 . S
C1556 C1561 1.379 . S
C1556 N1563 1.356 . S
C1557 C1556 1.363 . S
C1557 C1560 1.363 . S
N1558 C1560 1.356 . S
N1558 H1570 0.984 . S
N1558 H1571 0.985 . S
N1559 C1561 1.356 . S
N1559 H1564 0.984 . S
N1559 H1565 0.985 . S
C1560 C1554 1.379 . S
C1560 C1557 1.363 . S
C1560 N1558 1.356 . S
C1561 C1555 1.363 . S
C1561 C1556 1.379 . S
C1561 N1559 1.356 . S
N1562 C1554 1.356 . S
N1562 H1568 0.984 . S
N1562 H1569 0.984 . S
N1563 C1556 1.356 . S
N1563 H1566 0.984 . S
N1563 H1567 0.985 . S
H1564 N1559 0.984 . S
H1565 N1559 0.985 . S
H1566 N1563 0.984 . S
H1567 N1563 0.985 . S
H1568 N1562 0.984 . S
H1569 N1562 0.984 . S
H1570 N1558 0.984 . S
H1571 N1558 0.985 . S
C1572 C1573 1.363 . S
C1572 C1578 1.379 . S
C1572 N1580 1.356 . S
C1573 C1572 1.363 . S
C1573 C1579 1.363 . S
C1574 C1575 1.363 . S
C1574 C1579 1.379 . S
C1574 N1581 1.356 . S
C1575 C1574 1.363 . S
C1575 C1578 1.363 . S
N1576 C1578 1.356 . S
N1576 H1588 0.984 . S
N1576 H1589 0.985 . S
N1577 C1579 1.356 . S
N1577 H1582 0.984 . S
N1577 H1583 0.985 . S
C1578 C1572 1.379 . S
C1578 C1575 1.363 . S
C1578 N1576 1.356 . S
C1579 C1573 1.363 . S
C1579 C1574 1.379 . S
C1579 N1577 1.356 . S
N1580 C1572 1.356 . S
N1580 H1586 0.984 . S
N1580 H1587 0.984 . S
N1581 C1574 1.356 . S
N1581 H1584 0.984 . S
N1581 H1585 0.985 . S
H1582 N1577 0.984 . S
H1583 N1577 0.985 . S
H1584 N1581 0.984 . S
H1585 N1581 0.985 . S
H1586 N1580 0.984 . S
H1587 N1580 0.984 . S
H1588 N1576 0.984 . S
H1589 N1576 0.985 . S
C1590 C1591 1.363 . S
C1590 C1596 1.379 . S
C1590 N1598 1.356 . S
C1591 C1590 1.363 . S
C1591 C1597 1.363 . S
C1592 C1593 1.363 . S
C1592 C1597 1.379 . S
C1592 N1599 1.356 . S
C1593 C1592 1.363 . S
C1593 C1596 1.363 . S
N1594 C1596 1.356 . S
N1594 H1606 0.984 . S
N1594 H1607 0.985 . S
N1595 C1597 1.356 . S
N1595 H1600 0.984 . S
N1595 H1601 0.985 . S
C1596 C1590 1.379 . S
C1596 C1593 1.363 . S
C1596 N1594 1.356 . S
C1597 C1591 1.363 . S
C1597 C1592 1.379 . S
C1597 N1595 1.356 . S
N1598 C1590 1.356 . S
N1598 H1604 0.984 . S
N1598 H1605 0.984 . S
N1599 C1592 1.356 . S
N1599 H1602 0.984 . S
N1599 H1603 0.985 . S
H1600 N1595 0.984 . S
H1601 N1595 0.985 . S
H1602 N1599 0.984 . S
H1603 N1599 0.985 . S
H1604 N1598 0.984 . S
H1605 N1598 0.984 . S
H1606 N1594 0.984 . S
H1607 N1594 0.985 . S
C1608 C1609 1.363 . S
C1608 C1614 1.379 . S
C1608 N1616 1.356 . S
C1609 C1608 1.363 . S
C1609 C1615 1.363 . S
C1610 C1611 1.363 . S
C1610 C1615 1.379 . S
C1610 N1617 1.356 . S
C1611 C1610 1.363 . S
C1611 C1614 1.363 . S
N1612 C1614 1.356 . S
N1612 H1624 0.984 . S
N1612 H1625 0.985 . S
N1613 C1615 1.356 . S
N1613 H1618 0.984 . S
N1613 H1619 0.985 . S
C1614 C1608 1.379 . S
C1614 C1611 1.363 . S
C1614 N1612 1.356 . S
C1615 C1609 1.363 . S
C1615 C1610 1.379 . S
C1615 N1613 1.356 . S
N1616 C1608 1.356 . S
N1616 H1622 0.984 . S
N1616 H1623 0.984 . S
N1617 C1610 1.356 . S
N1617 H1620 0.984 . S
N1617 H1621 0.985 . S
H1618 N1613 0.984 . S
H1619 N1613 0.985 . S
H1620 N1617 0.984 . S
H1621 N1617 0.985 . S
H1622 N1616 0.984 . S
H1623 N1616 0.984 . S
H1624 N1612 0.984 . S
H1625 N1612 0.985 . S
C1626 C1627 1.363 . S
C1626 C1632 1.379 . S
C1626 N1634 1.356 . S
C1627 C1626 1.363 . S
C1627 C1633 1.363 . S
C1628 C1629 1.363 . S
C1628 C1633 1.379 . S
C1628 N1635 1.356 . S
C1629 C1628 1.363 . S
C1629 C1632 1.363 . S
N1630 C1632 1.356 . S
N1630 H1642 0.984 . S
N1630 H1643 0.985 . S
N1631 C1633 1.356 . S
N1631 H1636 0.984 . S
N1631 H1637 0.985 . S
C1632 C1626 1.379 . S
C1632 C1629 1.363 . S
C1632 N1630 1.356 . S
C1633 C1627 1.363 . S
C1633 C1628 1.379 . S
C1633 N1631 1.356 . S
N1634 C1626 1.356 . S
N1634 H1640 0.984 . S
N1634 H1641 0.984 . S
N1635 C1628 1.356 . S
N1635 H1638 0.984 . S
N1635 H1639 0.985 . S
H1636 N1631 0.984 . S
H1637 N1631 0.985 . S
H1638 N1635 0.984 . S
H1639 N1635 0.985 . S
H1640 N1634 0.984 . S
H1641 N1634 0.984 . S
H1642 N1630 0.984 . S
H1643 N1630 0.985 . S
C1644 C1645 1.363 . S
C1644 C1650 1.379 . S
C1644 N1652 1.356 . S
C1645 C1644 1.363 . S
C1645 C1651 1.363 . S
C1646 C1647 1.363 . S
C1646 C1651 1.379 . S
C1646 N1653 1.356 . S
C1647 C1646 1.363 . S
C1647 C1650 1.363 . S
N1648 C1650 1.356 . S
N1648 H1660 0.984 . S
N1648 H1661 0.985 . S
N1649 C1651 1.356 . S
N1649 H1654 0.984 . S
N1649 H1655 0.985 . S
C1650 C1644 1.379 . S
C1650 C1647 1.363 . S
C1650 N1648 1.356 . S
C1651 C1645 1.363 . S
C1651 C1646 1.379 . S
C1651 N1649 1.356 . S
N1652 C1644 1.356 . S
N1652 H1658 0.984 . S
N1652 H1659 0.984 . S
N1653 C1646 1.356 . S
N1653 H1656 0.984 . S
N1653 H1657 0.985 . S
H1654 N1649 0.984 . S
H1655 N1649 0.985 . S
H1656 N1653 0.984 . S
H1657 N1653 0.985 . S
H1658 N1652 0.984 . S
H1659 N1652 0.984 . S
H1660 N1648 0.984 . S
H1661 N1648 0.985 . S
C1662 C1663 1.363 . S
C1662 C1668 1.379 . S
C1662 N1670 1.356 . S
C1663 C1662 1.363 . S
C1663 C1669 1.363 . S
C1664 C1665 1.363 . S
C1664 C1669 1.379 . S
C1664 N1671 1.356 . S
C1665 C1664 1.363 . S
C1665 C1668 1.363 . S
N1666 C1668 1.356 . S
N1666 H1678 0.984 . S
N1666 H1679 0.985 . S
N1667 C1669 1.356 . S
N1667 H1672 0.984 . S
N1667 H1673 0.985 . S
C1668 C1662 1.379 . S
C1668 C1665 1.363 . S
C1668 N1666 1.356 . S
C1669 C1663 1.363 . S
C1669 C1664 1.379 . S
C1669 N1667 1.356 . S
N1670 C1662 1.356 . S
N1670 H1676 0.984 . S
N1670 H1677 0.984 . S
N1671 C1664 1.356 . S
N1671 H1674 0.984 . S
N1671 H1675 0.985 . S
H1672 N1667 0.984 . S
H1673 N1667 0.985 . S
H1674 N1671 0.984 . S
H1675 N1671 0.985 . S
H1676 N1670 0.984 . S
H1677 N1670 0.984 . S
H1678 N1666 0.984 . S
H1679 N1666 0.985 . S
C1680 C1681 1.363 . S
C1680 C1686 1.379 . S
C1680 N1688 1.356 . S
C1681 C1680 1.363 . S
C1681 C1687 1.363 . S
C1682 C1683 1.363 . S
C1682 C1687 1.379 . S
C1682 N1689 1.356 . S
C1683 C1682 1.363 . S
C1683 C1686 1.363 . S
N1684 C1686 1.356 . S
N1684 H1696 0.984 . S
N1684 H1697 0.985 . S
N1685 C1687 1.356 . S
N1685 H1690 0.984 . S
N1685 H1691 0.985 . S
C1686 C1680 1.379 . S
C1686 C1683 1.363 . S
C1686 N1684 1.356 . S
C1687 C1681 1.363 . S
C1687 C1682 1.379 . S
C1687 N1685 1.356 . S
N1688 C1680 1.356 . S
N1688 H1694 0.984 . S
N1688 H1695 0.984 . S
N1689 C1682 1.356 . S
N1689 H1692 0.984 . S
N1689 H1693 0.985 . S
H1690 N1685 0.984 . S
H1691 N1685 0.985 . S
H1692 N1689 0.984 . S
H1693 N1689 0.985 . S
H1694 N1688 0.984 . S
H1695 N1688 0.984 . S
H1696 N1684 0.984 . S
H1697 N1684 0.985 . S
C1698 C1699 1.363 . S
C1698 C1704 1.379 . S
C1698 N1706 1.356 . S
C1699 C1698 1.363 . S
C1699 C1705 1.363 . S
C1700 C1701 1.363 . S
C1700 C1705 1.379 . S
C1700 N1707 1.356 . S
C1701 C1700 1.363 . S
C1701 C1704 1.363 . S
N1702 C1704 1.356 . S
N1702 H1714 0.984 . S
N1702 H1715 0.985 . S
N1703 C1705 1.356 . S
N1703 H1708 0.984 . S
N1703 H1709 0.985 . S
C1704 C1698 1.379 . S
C1704 C1701 1.363 . S
C1704 N1702 1.356 . S
C1705 C1699 1.363 . S
C1705 C1700 1.379 . S
C1705 N1703 1.356 . S
N1706 C1698 1.356 . S
N1706 H1712 0.984 . S
N1706 H1713 0.984 . S
N1707 C1700 1.356 . S
N1707 H1710 0.984 . S
N1707 H1711 0.985 . S
H1708 N1703 0.984 . S
H1709 N1703 0.985 . S
H1710 N1707 0.984 . S
H1711 N1707 0.985 . S
H1712 N1706 0.984 . S
H1713 N1706 0.984 . S
H1714 N1702 0.984 . S
H1715 N1702 0.985 . S
C1716 C1717 1.363 . S
C1716 C1722 1.379 . S
C1716 N1724 1.356 . S
C1717 C1716 1.363 . S
C1717 C1723 1.363 . S
C1718 C1719 1.363 . S
C1718 C1723 1.379 . S
C1718 N1725 1.356 . S
C1719 C1718 1.363 . S
C1719 C1722 1.363 . S
N1720 C1722 1.356 . S
N1720 H1732 0.984 . S
N1720 H1733 0.985 . S
N1721 C1723 1.356 . S
N1721 H1726 0.984 . S
N1721 H1727 0.985 . S
C1722 C1716 1.379 . S
C1722 C1719 1.363 . S
C1722 N1720 1.356 . S
C1723 C1717 1.363 . S
C1723 C1718 1.379 . S
C1723 N1721 1.356 . S
N1724 C1716 1.356 . S
N1724 H1730 0.984 . S
N1724 H1731 0.984 . S
N1725 C1718 1.356 . S
N1725 H1728 0.984 . S
N1725 H1729 0.985 . S
H1726 N1721 0.984 . S
H1727 N1721 0.985 . S
H1728 N1725 0.984 . S
H1729 N1725 0.985 . S
H1730 N1724 0.984 . S
H1731 N1724 0.984 . S
H1732 N1720 0.984 . S
H1733 N1720 0.985 . S
C1734 C1735 1.363 . S
C1734 C1740 1.379 . S
C1734 N1742 1.356 . S
C1735 C1734 1.363 . S
C1735 C1741 1.363 . S
C1736 C1737 1.363 . S
C1736 C1741 1.379 . S
C1736 N1743 1.356 . S
C1737 C1736 1.363 . S
C1737 C1740 1.363 . S
N1738 C1740 1.356 . S
N1738 H1750 0.984 . S
N1738 H1751 0.985 . S
N1739 C1741 1.356 . S
N1739 H1744 0.984 . S
N1739 H1745 0.985 . S
C1740 C1734 1.379 . S
C1740 C1737 1.363 . S
C1740 N1738 1.356 . S
C1741 C1735 1.363 . S
C1741 C1736 1.379 . S
C1741 N1739 1.356 . S
N1742 C1734 1.356 . S
N1742 H1748 0.984 . S
N1742 H1749 0.984 . S
N1743 C1736 1.356 . S
N1743 H1746 0.984 . S
N1743 H1747 0.985 . S
H1744 N1739 0.984 . S
H1745 N1739 0.985 . S
H1746 N1743 0.984 . S
H1747 N1743 0.985 . S
H1748 N1742 0.984 . S
H1749 N1742 0.984 . S
H1750 N1738 0.984 . S
H1751 N1738 0.985 . S
C1752 C1753 1.363 . S
C1752 C1758 1.379 . S
C1752 N1760 1.356 . S
C1753 C1752 1.363 . S
C1753 C1759 1.363 . S
C1754 C1755 1.363 . S
C1754 C1759 1.379 . S
C1754 N1761 1.356 . S
C1755 C1754 1.363 . S
C1755 C1758 1.363 . S
N1756 C1758 1.356 . S
N1756 H1768 0.984 . S
N1756 H1769 0.985 . S
N1757 C1759 1.356 . S
N1757 H1762 0.984 . S
N1757 H1763 0.985 . S
C1758 C1752 1.379 . S
C1758 C1755 1.363 . S
C1758 N1756 1.356 . S
C1759 C1753 1.363 . S
C1759 C1754 1.379 . S
C1759 N1757 1.356 . S
N1760 C1752 1.356 . S
N1760 H1766 0.984 . S
N1760 H1767 0.984 . S
N1761 C1754 1.356 . S
N1761 H1764 0.984 . S
N1761 H1765 0.985 . S
H1762 N1757 0.984 . S
H1763 N1757 0.985 . S
H1764 N1761 0.984 . S
H1765 N1761 0.985 . S
H1766 N1760 0.984 . S
H1767 N1760 0.984 . S
H1768 N1756 0.984 . S
H1769 N1756 0.985 . S
C1770 C1771 1.363 . S
C1770 C1776 1.379 . S
C1770 N1778 1.356 . S
C1771 C1770 1.363 . S
C1771 C1777 1.363 . S
C1772 C1773 1.363 . S
C1772 C1777 1.379 . S
C1772 N1779 1.356 . S
C1773 C1772 1.363 . S
C1773 C1776 1.363 . S
N1774 C1776 1.356 . S
N1774 H1786 0.984 . S
N1774 H1787 0.985 . S
N1775 C1777 1.356 . S
N1775 H1780 0.984 . S
N1775 H1781 0.985 . S
C1776 C1770 1.379 . S
C1776 C1773 1.363 . S
C1776 N1774 1.356 . S
C1777 C1771 1.363 . S
C1777 C1772 1.379 . S
C1777 N1775 1.356 . S
N1778 C1770 1.356 . S
N1778 H1784 0.984 . S
N1778 H1785 0.984 . S
N1779 C1772 1.356 . S
N1779 H1782 0.984 . S
N1779 H1783 0.985 . S
H1780 N1775 0.984 . S
H1781 N1775 0.985 . S
H1782 N1779 0.984 . S
H1783 N1779 0.985 . S
H1784 N1778 0.984 . S
H1785 N1778 0.984 . S
H1786 N1774 0.984 . S
H1787 N1774 0.985 . S
C1788 C1789 1.363 . S
C1788 C1794 1.379 . S
C1788 N1796 1.356 . S
C1789 C1788 1.363 . S
C1789 C1795 1.363 . S
C1790 C1791 1.363 . S
C1790 C1795 1.379 . S
C1790 N1797 1.356 . S
C1791 C1790 1.363 . S
C1791 C1794 1.363 . S
N1792 C1794 1.356 . S
N1792 H1804 0.984 . S
N1792 H1805 0.985 . S
N1793 C1795 1.356 . S
N1793 H1798 0.984 . S
N1793 H1799 0.985 . S
C1794 C1788 1.379 . S
C1794 C1791 1.363 . S
C1794 N1792 1.356 . S
C1795 C1789 1.363 . S
C1795 C1790 1.379 . S
C1795 N1793 1.356 . S
N1796 C1788 1.356 . S
N1796 H1802 0.984 . S
N1796 H1803 0.984 . S
N1797 C1790 1.356 . S
N1797 H1800 0.984 . S
N1797 H1801 0.985 . S
H1798 N1793 0.984 . S
H1799 N1793 0.985 . S
H1800 N1797 0.984 . S
H1801 N1797 0.985 . S
H1802 N1796 0.984 . S
H1803 N1796 0.984 . S
H1804 N1792 0.984 . S
H1805 N1792 0.985 . S
C1806 C1807 1.363 . S
C1806 C1812 1.379 . S
C1806 N1814 1.356 . S
C1807 C1806 1.363 . S
C1807 C1813 1.363 . S
C1808 C1809 1.363 . S
C1808 C1813 1.379 . S
C1808 N1815 1.356 . S
C1809 C1808 1.363 . S
C1809 C1812 1.363 . S
N1810 C1812 1.356 . S
N1810 H1822 0.984 . S
N1810 H1823 0.985 . S
N1811 C1813 1.356 . S
N1811 H1816 0.984 . S
N1811 H1817 0.985 . S
C1812 C1806 1.379 . S
C1812 C1809 1.363 . S
C1812 N1810 1.356 . S
C1813 C1807 1.363 . S
C1813 C1808 1.379 . S
C1813 N1811 1.356 . S
N1814 C1806 1.356 . S
N1814 H1820 0.984 . S
N1814 H1821 0.984 . S
N1815 C1808 1.356 . S
N1815 H1818 0.984 . S
N1815 H1819 0.985 . S
H1816 N1811 0.984 . S
H1817 N1811 0.985 . S
H1818 N1815 0.984 . S
H1819 N1815 0.985 . S
H1820 N1814 0.984 . S
H1821 N1814 0.984 . S
H1822 N1810 0.984 . S
H1823 N1810 0.985 . S
C1824 C1825 1.363 . S
C1824 C1830 1.379 . S
C1824 N1832 1.356 . S
C1825 C1824 1.363 . S
C1825 C1831 1.363 . S
C1826 C1827 1.363 . S
C1826 C1831 1.379 . S
C1826 N1833 1.356 . S
C1827 C1826 1.363 . S
C1827 C1830 1.363 . S
N1828 C1830 1.356 . S
N1828 H1840 0.984 . S
N1828 H1841 0.985 . S
N1829 C1831 1.356 . S
N1829 H1834 0.984 . S
N1829 H1835 0.985 . S
C1830 C1824 1.379 . S
C1830 C1827 1.363 . S
C1830 N1828 1.356 . S
C1831 C1825 1.363 . S
C1831 C1826 1.379 . S
C1831 N1829 1.356 . S
N1832 C1824 1.356 . S
N1832 H1838 0.984 . S
N1832 H1839 0.984 . S
N1833 C1826 1.356 . S
N1833 H1836 0.984 . S
N1833 H1837 0.985 . S
H1834 N1829 0.984 . S
H1835 N1829 0.985 . S
H1836 N1833 0.984 . S
H1837 N1833 0.985 . S
H1838 N1832 0.984 . S
H1839 N1832 0.984 . S
H1840 N1828 0.984 . S
H1841 N1828 0.985 . S
C1842 C1843 1.363 . S
C1842 C1848 1.379 . S
C1842 N1850 1.356 . S
C1843 C1842 1.363 . S
C1843 C1849 1.363 . S
C1844 C1845 1.363 . S
C1844 C1849 1.379 . S
C1844 N1851 1.356 . S
C1845 C1844 1.363 . S
C1845 C1848 1.363 . S
N1846 C1848 1.356 . S
N1846 H1858 0.984 . S
N1846 H1859 0.985 . S
N1847 C1849 1.356 . S
N1847 H1852 0.984 . S
N1847 H1853 0.985 . S
C1848 C1842 1.379 . S
C1848 C1845 1.363 . S
C1848 N1846 1.356 . S
C1849 C1843 1.363 . S
C1849 C1844 1.379 . S
C1849 N1847 1.356 . S
N1850 C1842 1.356 . S
N1850 H1856 0.984 . S
N1850 H1857 0.984 . S
N1851 C1844 1.356 . S
N1851 H1854 0.984 . S
N1851 H1855 0.985 . S
H1852 N1847 0.984 . S
H1853 N1847 0.985 . S
H1854 N1851 0.984 . S
H1855 N1851 0.985 . S
H1856 N1850 0.984 . S
H1857 N1850 0.984 . S
H1858 N1846 0.984 . S
H1859 N1846 0.985 . S
C1860 C1861 1.363 . S
C1860 C1866 1.379 . S
C1860 N1868 1.356 . S
C1861 C1860 1.363 . S
C1861 C1867 1.363 . S
C1862 C1863 1.363 . S
C1862 C1867 1.379 . S
C1862 N1869 1.356 . S
C1863 C1862 1.363 . S
C1863 C1866 1.363 . S
N1864 C1866 1.356 . S
N1864 H1876 0.984 . S
N1864 H1877 0.985 . S
N1865 C1867 1.356 . S
N1865 H1870 0.984 . S
N1865 H1871 0.985 . S
C1866 C1860 1.379 . S
C1866 C1863 1.363 . S
C1866 N1864 1.356 . S
C1867 C1861 1.363 . S
C1867 C1862 1.379 . S
C1867 N1865 1.356 . S
N1868 C1860 1.356 . S
N1868 H1874 0.984 . S
N1868 H1875 0.984 . S
N1869 C1862 1.356 . S
N1869 H1872 0.984 . S
N1869 H1873 0.985 . S
H1870 N1865 0.984 . S
H1871 N1865 0.985 . S
H1872 N1869 0.984 . S
H1873 N1869 0.985 . S
H1874 N1868 0.984 . S
H1875 N1868 0.984 . S
H1876 N1864 0.984 . S
H1877 N1864 0.985 . S
C1878 C1879 1.363 . S
C1878 C1884 1.379 . S
C1878 N1886 1.356 . S
C1879 C1878 1.363 . S
C1879 C1885 1.363 . S
C1880 C1881 1.363 . S
C1880 C1885 1.379 . S
C1880 N1887 1.356 . S
C1881 C1880 1.363 . S
C1881 C1884 1.363 . S
N1882 C1884 1.356 . S
N1882 H1894 0.984 . S
N1882 H1895 0.985 . S
N1883 C1885 1.356 . S
N1883 H1888 0.984 . S
N1883 H1889 0.985 . S
C1884 C1878 1.379 . S
C1884 C1881 1.363 . S
C1884 N1882 1.356 . S
C1885 C1879 1.363 . S
C1885 C1880 1.379 . S
C1885 N1883 1.356 . S
N1886 C1878 1.356 . S
N1886 H1892 0.984 . S
N1886 H1893 0.984 . S
N1887 C1880 1.356 . S
N1887 H1890 0.984 . S
N1887 H1891 0.985 . S
H1888 N1883 0.984 . S
H1889 N1883 0.985 . S
H1890 N1887 0.984 . S
H1891 N1887 0.985 . S
H1892 N1886 0.984 . S
H1893 N1886 0.984 . S
H1894 N1882 0.984 . S
H1895 N1882 0.985 . S
C1896 C1897 1.363 . S
C1896 C1902 1.379 . S
C1896 N1904 1.356 . S
C1897 C1896 1.363 . S
C1897 C1903 1.363 . S
C1898 C1899 1.363 . S
C1898 C1903 1.379 . S
C1898 N1905 1.356 . S
C1899 C1898 1.363 . S
C1899 C1902 1.363 . S
N1900 C1902 1.356 . S
N1900 H1912 0.984 . S
N1900 H1913 0.985 . S
N1901 C1903 1.356 . S
N1901 H1906 0.984 . S
N1901 H1907 0.985 . S
C1902 C1896 1.379 . S
C1902 C1899 1.363 . S
C1902 N1900 1.356 . S
C1903 C1897 1.363 . S
C1903 C1898 1.379 . S
C1903 N1901 1.356 . S
N1904 C1896 1.356 . S
N1904 H1910 0.984 . S
N1904 H1911 0.984 . S
N1905 C1898 1.356 . S
N1905 H1908 0.984 . S
N1905 H1909 0.985 . S
H1906 N1901 0.984 . S
H1907 N1901 0.985 . S
H1908 N1905 0.984 . S
H1909 N1905 0.985 . S
H1910 N1904 0.984 . S
H1911 N1904 0.984 . S
H1912 N1900 0.984 . S
H1913 N1900 0.985 . S
C1914 C1915 1.363 . S
C1914 C1920 1.379 . S
C1914 N1922 1.356 . S
C1915 C1914 1.363 . S
C1915 C1921 1.363 . S
C1916 C1917 1.363 . S
C1916 C1921 1.379 . S
C1916 N1923 1.356 . S
C1917 C1916 1.363 . S
C1917 C1920 1.363 . S
N1918 C1920 1.356 . S
N1918 H1930 0.984 . S
N1918 H1931 0.985 . S
N1919 C1921 1.356 . S
N1919 H1924 0.984 . S
N1919 H1925 0.985 . S
C1920 C1914 1.379 . S
C1920 C1917 1.363 . S
C1920 N1918 1.356 . S
C1921 C1915 1.363 . S
C1921 C1916 1.379 . S
C1921 N1919 1.356 . S
N1922 C1914 1.356 . S
N1922 H1928 0.984 . S
N1922 H1929 0.984 . S
N1923 C1916 1.356 . S
N1923 H1926 0.984 . S
N1923 H1927 0.985 . S
H1924 N1919 0.984 . S
H1925 N1919 0.985 . S
H1926 N1923 0.984 . S
H1927 N1923 0.985 . S
H1928 N1922 0.984 . S
H1929 N1922 0.984 . S
H1930 N1918 0.984 . S
H1931 N1918 0.985 . S
C1932 C1933 1.363 . S
C1932 C1938 1.379 . S
C1932 N1940 1.356 . S
C1933 C1932 1.363 . S
C1933 C1939 1.363 . S
C1934 C1935 1.363 . S
C1934 C1939 1.379 . S
C1934 N1941 1.356 . S
C1935 C1934 1.363 . S
C1935 C1938 1.363 . S
N1936 C1938 1.356 . S
N1936 H1948 0.984 . S
N1936 H1949 0.985 . S
N1937 C1939 1.356 . S
N1937 H1942 0.984 . S
N1937 H1943 0.985 . S
C1938 C1932 1.379 . S
C1938 C1935 1.363 . S
C1938 N1936 1.356 . S
C1939 C1933 1.363 . S
C1939 C1934 1.379 . S
C1939 N1937 1.356 . S
N1940 C1932 1.356 . S
N1940 H1946 0.984 . S
N1940 H1947 0.984 . S
N1941 C1934 1.356 . S
N1941 H1944 0.984 . S
N1941 H1945 0.985 . S
H1942 N1937 0.984 . S
H1943 N1937 0.985 . S
H1944 N1941 0.984 . S
H1945 N1941 0.985 . S
H1946 N1940 0.984 . S
H1947 N1940 0.984 . S
H1948 N1936 0.984 . S
H1949 N1936 0.985 . S
C1950 C1951 1.363 . S
C1950 C1956 1.379 . S
C1950 N1958 1.356 . S
C1951 C1950 1.363 . S
C1951 C1957 1.363 . S
C1952 C1953 1.363 . S
C1952 C1957 1.379 . S
C1952 N1959 1.356 . S
C1953 C1952 1.363 . S
C1953 C1956 1.363 . S
N1954 C1956 1.356 . S
N1954 H1966 0.984 . S
N1954 H1967 0.985 . S
N1955 C1957 1.356 . S
N1955 H1960 0.984 . S
N1955 H1961 0.985 . S
C1956 C1950 1.379 . S
C1956 C1953 1.363 . S
C1956 N1954 1.356 . S
C1957 C1951 1.363 . S
C1957 C1952 1.379 . S
C1957 N1955 1.356 . S
N1958 C1950 1.356 . S
N1958 H1964 0.984 . S
N1958 H1965 0.984 . S
N1959 C1952 1.356 . S
N1959 H1962 0.984 . S
N1959 H1963 0.985 . S
H1960 N1955 0.984 . S
H1961 N1955 0.985 . S
H1962 N1959 0.984 . S
H1963 N1959 0.985 . S
H1964 N1958 0.984 . S
H1965 N1958 0.984 . S
H1966 N1954 0.984 . S
H1967 N1954 0.985 . S
C1968 C1969 1.363 . S
C1968 C1974 1.379 . S
C1968 N1976 1.356 . S
C1969 C1968 1.363 . S
C1969 C1975 1.363 . S
C1970 C1971 1.363 . S
C1970 C1975 1.379 . S
C1970 N1977 1.356 . S
C1971 C1970 1.363 . S
C1971 C1974 1.363 . S
N1972 C1974 1.356 . S
N1972 H1984 0.984 . S
N1972 H1985 0.985 . S
N1973 C1975 1.356 . S
N1973 H1978 0.984 . S
N1973 H1979 0.985 . S
C1974 C1968 1.379 . S
C1974 C1971 1.363 . S
C1974 N1972 1.356 . S
C1975 C1969 1.363 . S
C1975 C1970 1.379 . S
C1975 N1973 1.356 . S
N1976 C1968 1.356 . S
N1976 H1982 0.984 . S
N1976 H1983 0.984 . S
N1977 C1970 1.356 . S
N1977 H1980 0.984 . S
N1977 H1981 0.985 . S
H1978 N1973 0.984 . S
H1979 N1973 0.985 . S
H1980 N1977 0.984 . S
H1981 N1977 0.985 . S
H1982 N1976 0.984 . S
H1983 N1976 0.984 . S
H1984 N1972 0.984 . S
H1985 N1972 0.985 . S
C1986 C1987 1.363 . S
C1986 C1992 1.379 . S
C1986 N1994 1.356 . S
C1987 C1986 1.363 . S
C1987 C1993 1.363 . S
C1988 C1989 1.363 . S
C1988 C1993 1.379 . S
C1988 N1995 1.356 . S
C1989 C1988 1.363 . S
C1989 C1992 1.363 . S
N1990 C1992 1.356 . S
N1990 H2002 0.984 . S
N1990 H2003 0.985 . S
N1991 C1993 1.356 . S
N1991 H1996 0.984 . S
N1991 H1997 0.985 . S
C1992 C1986 1.379 . S
C1992 C1989 1.363 . S
C1992 N1990 1.356 . S
C1993 C1987 1.363 . S
C1993 C1988 1.379 . S
C1993 N1991 1.356 . S
N1994 C1986 1.356 . S
N1994 H2000 0.984 . S
N1994 H2001 0.984 . S
N1995 C1988 1.356 . S
N1995 H1998 0.984 . S
N1995 H1999 0.985 . S
H1996 N1991 0.984 . S
H1997 N1991 0.985 . S
H1998 N1995 0.984 . S
H1999 N1995 0.985 . S
H2000 N1994 0.984 . S
H2001 N1994 0.984 . S
H2002 N1990 0.984 . S
H2003 N1990 0.985 . S
C2004 C2005 1.363 . S
C2004 C2010 1.379 . S
C2004 N2012 1.356 . S
C2005 C2004 1.363 . S
C2005 C2011 1.363 . S
C2006 C2007 1.363 . S
C2006 C2011 1.379 . S
C2006 N2013 1.356 . S
C2007 C2006 1.363 . S
C2007 C2010 1.363 . S
N2008 C2010 1.356 . S
N2008 H2020 0.984 . S
N2008 H2021 0.985 . S
N2009 C2011 1.356 . S
N2009 H2014 0.984 . S
N2009 H2015 0.985 . S
C2010 C2004 1.379 . S
C2010 C2007 1.363 . S
C2010 N2008 1.356 . S
C2011 C2005 1.363 . S
C2011 C2006 1.379 . S
C2011 N2009 1.356 . S
N2012 C2004 1.356 . S
N2012 H2018 0.984 . S
N2012 H2019 0.984 . S
N2013 C2006 1.356 . S
N2013 H2016 0.984 . S
N2013 H2017 0.985 . S
H2014 N2009 0.984 . S
H2015 N2009 0.985 . S
H2016 N2013 0.984 . S
H2017 N2013 0.985 . S
H2018 N2012 0.984 . S
H2019 N2012 0.984 . S
H2020 N2008 0.984 . S
H2021 N2008 0.985 . S
C2022 C2023 1.363 . S
C2022 C2028 1.379 . S
C2022 N2030 1.356 . S
C2023 C2022 1.363 . S
C2023 C2029 1.363 . S
C2024 C2025 1.363 . S
C2024 C2029 1.379 . S
C2024 N2031 1.356 . S
C2025 C2024 1.363 . S
C2025 C2028 1.363 . S
N2026 C2028 1.356 . S
N2026 H2038 0.984 . S
N2026 H2039 0.985 . S
N2027 C2029 1.356 . S
N2027 H2032 0.984 . S
N2027 H2033 0.985 . S
C2028 C2022 1.379 . S
C2028 C2025 1.363 . S
C2028 N2026 1.356 . S
C2029 C2023 1.363 . S
C2029 C2024 1.379 . S
C2029 N2027 1.356 . S
N2030 C2022 1.356 . S
N2030 H2036 0.984 . S
N2030 H2037 0.984 . S
N2031 C2024 1.356 . S
N2031 H2034 0.984 . S
N2031 H2035 0.985 . S
H2032 N2027 0.984 . S
H2033 N2027 0.985 . S
H2034 N2031 0.984 . S
H2035 N2031 0.985 . S
H2036 N2030 0.984 . S
H2037 N2030 0.984 . S
H2038 N2026 0.984 . S
H2039 N2026 0.985 . S
C2040 C2041 1.363 . S
C2040 C2046 1.379 . S
C2040 N2048 1.356 . S
C2041 C2040 1.363 . S
C2041 C2047 1.363 . S
C2042 C2043 1.363 . S
C2042 C2047 1.379 . S
C2042 N2049 1.356 . S
C2043 C2042 1.363 . S
C2043 C2046 1.363 . S
N2044 C2046 1.356 . S
N2044 H2056 0.984 . S
N2044 H2057 0.985 . S
N2045 C2047 1.356 . S
N2045 H2050 0.984 . S
N2045 H2051 0.985 . S
C2046 C2040 1.379 . S
C2046 C2043 1.363 . S
C2046 N2044 1.356 . S
C2047 C2041 1.363 . S
C2047 C2042 1.379 . S
C2047 N2045 1.356 . S
N2048 C2040 1.356 . S
N2048 H2054 0.984 . S
N2048 H2055 0.984 . S
N2049 C2042 1.356 . S
N2049 H2052 0.984 . S
N2049 H2053 0.985 . S
H2050 N2045 0.984 . S
H2051 N2045 0.985 . S
H2052 N2049 0.984 . S
H2053 N2049 0.985 . S
H2054 N2048 0.984 . S
H2055 N2048 0.984 . S
H2056 N2044 0.984 . S
H2057 N2044 0.985 . S
C2058 C2059 1.363 . S
C2058 C2064 1.379 . S
C2058 N2066 1.356 . S
C2059 C2058 1.363 . S
C2059 C2065 1.363 . S
C2060 C2061 1.363 . S
C2060 C2065 1.379 . S
C2060 N2067 1.356 . S
C2061 C2060 1.363 . S
C2061 C2064 1.363 . S
N2062 C2064 1.356 . S
N2062 H2074 0.984 . S
N2062 H2075 0.985 . S
N2063 C2065 1.356 . S
N2063 H2068 0.984 . S
N2063 H2069 0.985 . S
C2064 C2058 1.379 . S
C2064 C2061 1.363 . S
C2064 N2062 1.356 . S
C2065 C2059 1.363 . S
C2065 C2060 1.379 . S
C2065 N2063 1.356 . S
N2066 C2058 1.356 . S
N2066 H2072 0.984 . S
N2066 H2073 0.984 . S
N2067 C2060 1.356 . S
N2067 H2070 0.984 . S
N2067 H2071 0.985 . S
H2068 N2063 0.984 . S
H2069 N2063 0.985 . S
H2070 N2067 0.984 . S
H2071 N2067 0.985 . S
H2072 N2066 0.984 . S
H2073 N2066 0.984 . S
H2074 N2062 0.984 . S
H2075 N2062 0.985 . S
C2076 C2077 1.363 . S
C2076 C2082 1.379 . S
C2076 N2084 1.356 . S
C2077 C2076 1.363 . S
C2077 C2083 1.363 . S
C2078 C2079 1.363 . S
C2078 C2083 1.379 . S
C2078 N2085 1.356 . S
C2079 C2078 1.363 . S
C2079 C2082 1.363 . S
N2080 C2082 1.356 . S
N2080 H2092 0.984 . S
N2080 H2093 0.985 . S
N2081 C2083 1.356 . S
N2081 H2086 0.984 . S
N2081 H2087 0.985 . S
C2082 C2076 1.379 . S
C2082 C2079 1.363 . S
C2082 N2080 1.356 . S
C2083 C2077 1.363 . S
C2083 C2078 1.379 . S
C2083 N2081 1.356 . S
N2084 C2076 1.356 . S
N2084 H2090 0.984 . S
N2084 H2091 0.984 . S
N2085 C2078 1.356 . S
N2085 H2088 0.984 . S
N2085 H2089 0.985 . S
H2086 N2081 0.984 . S
H2087 N2081 0.985 . S
H2088 N2085 0.984 . S
H2089 N2085 0.985 . S
H2090 N2084 0.984 . S
H2091 N2084 0.984 . S
H2092 N2080 0.984 . S
H2093 N2080 0.985 . S
C2094 C2095 1.363 . S
C2094 C2100 1.379 . S
C2094 N2102 1.356 . S
C2095 C2094 1.363 . S
C2095 C2101 1.363 . S
C2096 C2097 1.363 . S
C2096 C2101 1.379 . S
C2096 N2103 1.356 . S
C2097 C2096 1.363 . S
C2097 C2100 1.363 . S
N2098 C2100 1.356 . S
N2098 H2110 0.984 . S
N2098 H2111 0.985 . S
N2099 C2101 1.356 . S
N2099 H2104 0.984 . S
N2099 H2105 0.985 . S
C2100 C2094 1.379 . S
C2100 C2097 1.363 . S
C2100 N2098 1.356 . S
C2101 C2095 1.363 . S
C2101 C2096 1.379 . S
C2101 N2099 1.356 . S
N2102 C2094 1.356 . S
N2102 H2108 0.984 . S
N2102 H2109 0.984 . S
N2103 C2096 1.356 . S
N2103 H2106 0.984 . S
N2103 H2107 0.985 . S
H2104 N2099 0.984 . S
H2105 N2099 0.985 . S
H2106 N2103 0.984 . S
H2107 N2103 0.985 . S
H2108 N2102 0.984 . S
H2109 N2102 0.984 . S
H2110 N2098 0.984 . S
H2111 N2098 0.985 . S
C2112 C2113 1.363 . S
C2112 C2118 1.379 . S
C2112 N2120 1.356 . S
C2113 C2112 1.363 . S
C2113 C2119 1.363 . S
C2114 C2115 1.363 . S
C2114 C2119 1.379 . S
C2114 N2121 1.356 . S
C2115 C2114 1.363 . S
C2115 C2118 1.363 . S
N2116 C2118 1.356 . S
N2116 H2128 0.984 . S
N2116 H2129 0.985 . S
N2117 C2119 1.356 . S
N2117 H2122 0.984 . S
N2117 H2123 0.985 . S
C2118 C2112 1.379 . S
C2118 C2115 1.363 . S
C2118 N2116 1.356 . S
C2119 C2113 1.363 . S
C2119 C2114 1.379 . S
C2119 N2117 1.356 . S
N2120 C2112 1.356 . S
N2120 H2126 0.984 . S
N2120 H2127 0.984 . S
N2121 C2114 1.356 . S
N2121 H2124 0.984 . S
N2121 H2125 0.985 . S
H2122 N2117 0.984 . S
H2123 N2117 0.985 . S
H2124 N2121 0.984 . S
H2125 N2121 0.985 . S
H2126 N2120 0.984 . S
H2127 N2120 0.984 . S
H2128 N2116 0.984 . S
H2129 N2116 0.985 . S
C2130 C2131 1.363 . S
C2130 C2136 1.379 . S
C2130 N2138 1.356 . S
C2131 C2130 1.363 . S
C2131 C2137 1.363 . S
C2132 C2133 1.363 . S
C2132 C2137 1.379 . S
C2132 N2139 1.356 . S
C2133 C2132 1.363 . S
C2133 C2136 1.363 . S
N2134 C2136 1.356 . S
N2134 H2146 0.984 . S
N2134 H2147 0.985 . S
N2135 C2137 1.356 . S
N2135 H2140 0.984 . S
N2135 H2141 0.985 . S
C2136 C2130 1.379 . S
C2136 C2133 1.363 . S
C2136 N2134 1.356 . S
C2137 C2131 1.363 . S
C2137 C2132 1.379 . S
C2137 N2135 1.356 . S
N2138 C2130 1.356 . S
N2138 H2144 0.984 . S
N2138 H2145 0.984 . S
N2139 C2132 1.356 . S
N2139 H2142 0.984 . S
N2139 H2143 0.985 . S
H2140 N2135 0.984 . S
H2141 N2135 0.985 . S
H2142 N2139 0.984 . S
H2143 N2139 0.985 . S
H2144 N2138 0.984 . S
H2145 N2138 0.984 . S
H2146 N2134 0.984 . S
H2147 N2134 0.985 . S
C2148 C2149 1.363 . S
C2148 C2154 1.379 . S
C2148 N2156 1.356 . S
C2149 C2148 1.363 . S
C2149 C2155 1.363 . S
C2150 C2151 1.363 . S
C2150 C2155 1.379 . S
C2150 N2157 1.356 . S
C2151 C2150 1.363 . S
C2151 C2154 1.363 . S
N2152 C2154 1.356 . S
N2152 H2164 0.984 . S
N2152 H2165 0.985 . S
N2153 C2155 1.356 . S
N2153 H2158 0.984 . S
N2153 H2159 0.985 . S
C2154 C2148 1.379 . S
C2154 C2151 1.363 . S
C2154 N2152 1.356 . S
C2155 C2149 1.363 . S
C2155 C2150 1.379 . S
C2155 N2153 1.356 . S
N2156 C2148 1.356 . S
N2156 H2162 0.984 . S
N2156 H2163 0.984 . S
N2157 C2150 1.356 . S
N2157 H2160 0.984 . S
N2157 H2161 0.985 . S
H2158 N2153 0.984 . S
H2159 N2153 0.985 . S
H2160 N2157 0.984 . S
H2161 N2157 0.985 . S
H2162 N2156 0.984 . S
H2163 N2156 0.984 . S
H2164 N2152 0.984 . S
H2165 N2152 0.985 . S
C2166 C2167 1.363 . S
C2166 C2172 1.379 . S
C2166 N2174 1.356 . S
C2167 C2166 1.363 . S
C2167 C2173 1.363 . S
C2168 C2169 1.363 . S
C2168 C2173 1.379 . S
C2168 N2175 1.356 . S
C2169 C2168 1.363 . S
C2169 C2172 1.363 . S
N2170 C2172 1.356 . S
N2170 H2182 0.984 . S
N2170 H2183 0.985 . S
N2171 C2173 1.356 . S
N2171 H2176 0.984 . S
N2171 H2177 0.985 . S
C2172 C2166 1.379 . S
C2172 C2169 1.363 . S
C2172 N2170 1.356 . S
C2173 C2167 1.363 . S
C2173 C2168 1.379 . S
C2173 N2171 1.356 . S
N2174 C2166 1.356 . S
N2174 H2180 0.984 . S
N2174 H2181 0.984 . S
N2175 C2168 1.356 . S
N2175 H2178 0.984 . S
N2175 H2179 0.985 . S
H2176 N2171 0.984 . S
H2177 N2171 0.985 . S
H2178 N2175 0.984 . S
H2179 N2175 0.985 . S
H2180 N2174 0.984 . S
H2181 N2174 0.984 . S
H2182 N2170 0.984 . S
H2183 N2170 0.985 . S
C2184 C2185 1.363 . S
C2184 C2190 1.379 . S
C2184 N2192 1.356 . S
C2185 C2184 1.363 . S
C2185 C2191 1.363 . S
C2186 C2187 1.363 . S
C2186 C2191 1.379 . S
C2186 N2193 1.356 . S
C2187 C2186 1.363 . S
C2187 C2190 1.363 . S
N2188 C2190 1.356 . S
N2188 H2200 0.984 . S
N2188 H2201 0.985 . S
N2189 C2191 1.356 . S
N2189 H2194 0.984 . S
N2189 H2195 0.985 . S
C2190 C2184 1.379 . S
C2190 C2187 1.363 . S
C2190 N2188 1.356 . S
C2191 C2185 1.363 . S
C2191 C2186 1.379 . S
C2191 N2189 1.356 . S
N2192 C2184 1.356 . S
N2192 H2198 0.984 . S
N2192 H2199 0.984 . S
N2193 C2186 1.356 . S
N2193 H2196 0.984 . S
N2193 H2197 0.985 . S
H2194 N2189 0.984 . S
H2195 N2189 0.985 . S
H2196 N2193 0.984 . S
H2197 N2193 0.985 . S
H2198 N2192 0.984 . S
H2199 N2192 0.984 . S
H2200 N2188 0.984 . S
H2201 N2188 0.985 . S
C2202 C2203 1.363 . S
C2202 C2208 1.379 . S
C2202 N2210 1.356 . S
C2203 C2202 1.363 . S
C2203 C2209 1.363 . S
C2204 C2205 1.363 . S
C2204 C2209 1.379 . S
C2204 N2211 1.356 . S
C2205 C2204 1.363 . S
C2205 C2208 1.363 . S
N2206 C2208 1.356 . S
N2206 H2218 0.984 . S
N2206 H2219 0.985 . S
N2207 C2209 1.356 . S
N2207 H2212 0.984 . S
N2207 H2213 0.985 . S
C2208 C2202 1.379 . S
C2208 C2205 1.363 . S
C2208 N2206 1.356 . S
C2209 C2203 1.363 . S
C2209 C2204 1.379 . S
C2209 N2207 1.356 . S
N2210 C2202 1.356 . S
N2210 H2216 0.984 . S
N2210 H2217 0.984 . S
N2211 C2204 1.356 . S
N2211 H2214 0.984 . S
N2211 H2215 0.985 . S
H2212 N2207 0.984 . S
H2213 N2207 0.985 . S
H2214 N2211 0.984 . S
H2215 N2211 0.985 . S
H2216 N2210 0.984 . S
H2217 N2210 0.984 . S
H2218 N2206 0.984 . S
H2219 N2206 0.985 . S
C2220 C2221 1.363 . S
C2220 C2226 1.379 . S
C2220 N2228 1.356 . S
C2221 C2220 1.363 . S
C2221 C2227 1.363 . S
C2222 C2223 1.363 . S
C2222 C2227 1.379 . S
C2222 N2229 1.356 . S
C2223 C2222 1.363 . S
C2223 C2226 1.363 . S
N2224 C2226 1.356 . S
N2224 H2236 0.984 . S
N2224 H2237 0.985 . S
N2225 C2227 1.356 . S
N2225 H2230 0.984 . S
N2225 H2231 0.985 . S
C2226 C2220 1.379 . S
C2226 C2223 1.363 . S
C2226 N2224 1.356 . S
C2227 C2221 1.363 . S
C2227 C2222 1.379 . S
C2227 N2225 1.356 . S
N2228 C2220 1.356 . S
N2228 H2234 0.984 . S
N2228 H2235 0.984 . S
N2229 C2222 1.356 . S
N2229 H2232 0.984 . S
N2229 H2233 0.985 . S
H2230 N2225 0.984 . S
H2231 N2225 0.985 . S
H2232 N2229 0.984 . S
H2233 N2229 0.985 . S
H2234 N2228 0.984 . S
H2235 N2228 0.984 . S
H2236 N2224 0.984 . S
H2237 N2224 0.985 . S
C2238 C2239 1.363 . S
C2238 C2244 1.379 . S
C2238 N2246 1.356 . S
C2239 C2238 1.363 . S
C2239 C2245 1.363 . S
C2240 C2241 1.363 . S
C2240 C2245 1.379 . S
C2240 N2247 1.356 . S
C2241 C2240 1.363 . S
C2241 C2244 1.363 . S
N2242 C2244 1.356 . S
N2242 H2254 0.984 . S
N2242 H2255 0.985 . S
N2243 C2245 1.356 . S
N2243 H2248 0.984 . S
N2243 H2249 0.985 . S
C2244 C2238 1.379 . S
C2244 C2241 1.363 . S
C2244 N2242 1.356 . S
C2245 C2239 1.363 . S
C2245 C2240 1.379 . S
C2245 N2243 1.356 . S
N2246 C2238 1.356 . S
N2246 H2252 0.984 . S
N2246 H2253 0.984 . S
N2247 C2240 1.356 . S
N2247 H2250 0.984 . S
N2247 H2251 0.985 . S
H2248 N2243 0.984 . S
H2249 N2243 0.985 . S
H2250 N2247 0.984 . S
H2251 N2247 0.985 . S
H2252 N2246 0.984 . S
H2253 N2246 0.984 . S
H2254 N2242 0.984 . S
H2255 N2242 0.985 . S
C2256 C2257 1.363 . S
C2256 C2262 1.379 . S
C2256 N2264 1.356 . S
C2257 C2256 1.363 . S
C2257 C2263 1.363 . S
C2258 C2259 1.363 . S
C2258 C2263 1.379 . S
C2258 N2265 1.356 . S
C2259 C2258 1.363 . S
C2259 C2262 1.363 . S
N2260 C2262 1.356 . S
N2260 H2272 0.984 . S
N2260 H2273 0.985 . S
N2261 C2263 1.356 . S
N2261 H2266 0.984 . S
N2261 H2267 0.985 . S
C2262 C2256 1.379 . S
C2262 C2259 1.363 . S
C2262 N2260 1.356 . S
C2263 C2257 1.363 . S
C2263 C2258 1.379 . S
C2263 N2261 1.356 . S
N2264 C2256 1.356 . S
N2264 H2270 0.984 . S
N2264 H2271 0.984 . S
N2265 C2258 1.356 . S
N2265 H2268 0.984 . S
N2265 H2269 0.985 . S
H2266 N2261 0.984 . S
H2267 N2261 0.985 . S
H2268 N2265 0.984 . S
H2269 N2265 0.985 . S
H2270 N2264 0.984 . S
H2271 N2264 0.984 . S
H2272 N2260 0.984 . S
H2273 N2260 0.985 . S
C2274 C2275 1.363 . S
C2274 C2280 1.379 . S
C2274 N2282 1.356 . S
C2275 C2274 1.363 . S
C2275 C2281 1.363 . S
C2276 C2277 1.363 . S
C2276 C2281 1.379 . S
C2276 N2283 1.356 . S
C2277 C2276 1.363 . S
C2277 C2280 1.363 . S
N2278 C2280 1.356 . S
N2278 H2290 0.984 . S
N2278 H2291 0.985 . S
N2279 C2281 1.356 . S
N2279 H2284 0.984 . S
N2279 H2285 0.985 . S
C2280 C2274 1.379 . S
C2280 C2277 1.363 . S
C2280 N2278 1.356 . S
C2281 C2275 1.363 . S
C2281 C2276 1.379 . S
C2281 N2279 1.356 . S
N2282 C2274 1.356 . S
N2282 H2288 0.984 . S
N2282 H2289 0.984 . S
N2283 C2276 1.356 . S
N2283 H2286 0.984 . S
N2283 H2287 0.985 . S
H2284 N2279 0.984 . S
H2285 N2279 0.985 . S
H2286 N2283 0.984 . S
H2287 N2283 0.985 . S
H2288 N2282 0.984 . S
H2289 N2282 0.984 . S
H2290 N2278 0.984 . S
H2291 N2278 0.985 . S
C2292 C2293 1.363 . S
C2292 C2298 1.379 . S
C2292 N2300 1.356 . S
C2293 C2292 1.363 . S
C2293 C2299 1.363 . S
C2294 C2295 1.363 . S
C2294 C2299 1.379 . S
C2294 N2301 1.356 . S
C2295 C2294 1.363 . S
C2295 C2298 1.363 . S
N2296 C2298 1.356 . S
N2296 H2308 0.984 . S
N2296 H2309 0.985 . S
N2297 C2299 1.356 . S
N2297 H2302 0.984 . S
N2297 H2303 0.985 . S
C2298 C2292 1.379 . S
C2298 C2295 1.363 . S
C2298 N2296 1.356 . S
C2299 C2293 1.363 . S
C2299 C2294 1.379 . S
C2299 N2297 1.356 . S
N2300 C2292 1.356 . S
N2300 H2306 0.984 . S
N2300 H2307 0.984 . S
N2301 C2294 1.356 . S
N2301 H2304 0.984 . S
N2301 H2305 0.985 . S
H2302 N2297 0.984 . S
H2303 N2297 0.985 . S
H2304 N2301 0.984 . S
H2305 N2301 0.985 . S
H2306 N2300 0.984 . S
H2307 N2300 0.984 . S
H2308 N2296 0.984 . S
H2309 N2296 0.985 . S
C2310 C2311 1.363 . S
C2310 C2316 1.379 . S
C2310 N2318 1.356 . S
C2311 C2310 1.363 . S
C2311 C2317 1.363 . S
C2312 C2313 1.363 . S
C2312 C2317 1.379 . S
C2312 N2319 1.356 . S
C2313 C2312 1.363 . S
C2313 C2316 1.363 . S
N2314 C2316 1.356 . S
N2314 H2326 0.984 . S
N2314 H2327 0.985 . S
N2315 C2317 1.356 . S
N2315 H2320 0.984 . S
N2315 H2321 0.985 . S
C2316 C2310 1.379 . S
C2316 C2313 1.363 . S
C2316 N2314 1.356 . S
C2317 C2311 1.363 . S
C2317 C2312 1.379 . S
C2317 N2315 1.356 . S
N2318 C2310 1.356 . S
N2318 H2324 0.984 . S
N2318 H2325 0.984 . S
N2319 C2312 1.356 . S
N2319 H2322 0.984 . S
N2319 H2323 0.985 . S
H2320 N2315 0.984 . S
H2321 N2315 0.985 . S
H2322 N2319 0.984 . S
H2323 N2319 0.985 . S
H2324 N2318 0.984 . S
H2325 N2318 0.984 . S
H2326 N2314 0.984 . S
H2327 N2314 0.985 . S
C2328 C2329 1.363 . S
C2328 C2334 1.379 . S
C2328 N2336 1.356 . S
C2329 C2328 1.363 . S
C2329 C2335 1.363 . S
C2330 C2331 1.363 . S
C2330 C2335 1.379 . S
C2330 N2337 1.356 . S
C2331 C2330 1.363 . S
C2331 C2334 1.363 . S
N2332 C2334 1.356 . S
N2332 H2344 0.984 . S
N2332 H2345 0.985 . S
N2333 C2335 1.356 . S
N2333 H2338 0.984 . S
N2333 H2339 0.985 . S
C2334 C2328 1.379 . S
C2334 C2331 1.363 . S
C2334 N2332 1.356 . S
C2335 C2329 1.363 . S
C2335 C2330 1.379 . S
C2335 N2333 1.356 . S
N2336 C2328 1.356 . S
N2336 H2342 0.984 . S
N2336 H2343 0.984 . S
N2337 C2330 1.356 . S
N2337 H2340 0.984 . S
N2337 H2341 0.985 . S
H2338 N2333 0.984 . S
H2339 N2333 0.985 . S
H2340 N2337 0.984 . S
H2341 N2337 0.985 . S
H2342 N2336 0.984 . S
H2343 N2336 0.984 . S
H2344 N2332 0.984 . S
H2345 N2332 0.985 . S
C2346 C2347 1.363 . S
C2346 C2352 1.379 . S
C2346 N2354 1.356 . S
C2347 C2346 1.363 . S
C2347 C2353 1.363 . S
C2348 C2349 1.363 . S
C2348 C2353 1.379 . S
C2348 N2355 1.356 . S
C2349 C2348 1.363 . S
C2349 C2352 1.363 . S
N2350 C2352 1.356 . S
N2350 H2362 0.984 . S
N2350 H2363 0.985 . S
N2351 C2353 1.356 . S
N2351 H2356 0.984 . S
N2351 H2357 0.985 . S
C2352 C2346 1.379 . S
C2352 C2349 1.363 . S
C2352 N2350 1.356 . S
C2353 C2347 1.363 . S
C2353 C2348 1.379 . S
C2353 N2351 1.356 . S
N2354 C2346 1.356 . S
N2354 H2360 0.984 . S
N2354 H2361 0.984 . S
N2355 C2348 1.356 . S
N2355 H2358 0.984 . S
N2355 H2359 0.985 . S
H2356 N2351 0.984 . S
H2357 N2351 0.985 . S
H2358 N2355 0.984 . S
H2359 N2355 0.985 . S
H2360 N2354 0.984 . S
H2361 N2354 0.984 . S
H2362 N2350 0.984 . S
H2363 N2350 0.985 . S
C2364 C2365 1.363 . S
C2364 C2370 1.379 . S
C2364 N2372 1.356 . S
C2365 C2364 1.363 . S
C2365 C2371 1.363 . S
C2366 C2367 1.363 . S
C2366 C2371 1.379 . S
C2366 N2373 1.356 . S
C2367 C2366 1.363 . S
C2367 C2370 1.363 . S
N2368 C2370 1.356 . S
N2368 H2380 0.984 . S
N2368 H2381 0.985 . S
N2369 C2371 1.356 . S
N2369 H2374 0.984 . S
N2369 H2375 0.985 . S
C2370 C2364 1.379 . S
C2370 C2367 1.363 . S
C2370 N2368 1.356 . S
C2371 C2365 1.363 . S
C2371 C2366 1.379 . S
C2371 N2369 1.356 . S
N2372 C2364 1.356 . S
N2372 H2378 0.984 . S
N2372 H2379 0.984 . S
N2373 C2366 1.356 . S
N2373 H2376 0.984 . S
N2373 H2377 0.985 . S
H2374 N2369 0.984 . S
H2375 N2369 0.985 . S
H2376 N2373 0.984 . S
H2377 N2373 0.985 . S
H2378 N2372 0.984 . S
H2379 N2372 0.984 . S
H2380 N2368 0.984 . S
H2381 N2368 0.985 . S
C2382 C2383 1.363 . S
C2382 C2388 1.379 . S
C2382 N2390 1.356 . S
C2383 C2382 1.363 . S
C2383 C2389 1.363 . S
C2384 C2385 1.363 . S
C2384 C2389 1.379 . S
C2384 N2391 1.356 . S
C2385 C2384 1.363 . S
C2385 C2388 1.363 . S
N2386 C2388 1.356 . S
N2386 H2398 0.984 . S
N2386 H2399 0.985 . S
N2387 C2389 1.356 . S
N2387 H2392 0.984 . S
N2387 H2393 0.985 . S
C2388 C2382 1.379 . S
C2388 C2385 1.363 . S
C2388 N2386 1.356 . S
C2389 C2383 1.363 . S
C2389 C2384 1.379 . S
C2389 N2387 1.356 . S
N2390 C2382 1.356 . S
N2390 H2396 0.984 . S
N2390 H2397 0.984 . S
N2391 C2384 1.356 . S
N2391 H2394 0.984 . S
N2391 H2395 0.985 . S
H2392 N2387 0.984 . S
H2393 N2387 0.985 . S
H2394 N2391 0.984 . S
H2395 N2391 0.985 . S
H2396 N2390 0.984 . S
H2397 N2390 0.984 . S
H2398 N2386 0.984 . S
H2399 N2386 0.985 . S
C673 C134 1.731 . S
C675 C8 1.731 . S
C691 C148 1.731 . S
C693 C22 1.731 . S
C709 C162 1.731 . S
C711 C36 1.731 . S
C727 C50 1.731 . S
C729 C120 1.731 . S
C745 C218 1.731 . S
C747 C64 1.731 . S
C763 C78 1.731 . S
C765 C176 1.731 . S
C781 C190 1.731 . S
C783 C92 1.731 . S
C799 C204 1.731 . S
C801 C106 1.731 . S
C817 C232 1.731 . S
C819 C260 1.731 . S
C835 C246 1.731 . S
C837 C316 1.731 . S
C853 C274 1.731 . S
C855 C330 1.731 . S
C871 C288 1.731 . S
C873 C302 1.731 . S
C889 C344 1.731 . S
C891 C470 1.731 . S
C907 C484 1.731 . S
C909 C358 1.731 . S
C925 C372 1.731 . S
C927 C498 1.731 . S
C943 C386 1.731 . S
C945 C456 1.731 . S
C961 C554 1.731 . S
C963 C400 1.731 . S
C979 C512 1.731 . S
C981 C414 1.731 . S
C997 C526 1.731 . S
C999 C428 1.731 . S
C1015 C540 1.731 . S
C1017 C442 1.731 . S
C1033 C568 1.731 . S
C1035 C596 1.731 . S
C1051 C582 1.731 . S
C1053 C652 1.731 . S
C1069 C610 1.731 . S
C1071 C666 1.731 . S
C1087 C638 1.731 . S
C1089 C624 1.731 . S
C1105 C121 1.250 . S
C1107 C3 1.444 . S
C1123 C135 1.250 . S
C1125 C17 1.444 . S
C1141 C31 1.444 . S
C1143 C149 1.250 . S
C1159 C45 1.444 . S
C1161 C163 1.250 . S
C1177 C59 1.444 . S
C1179 C177 1.250 . S
C1195 C73 1.444 . S
C1197 C191 1.250 . S
C1213 C87 1.444 . S
C1215 C205 1.250 . S
C1231 C219 1.250 . S
C1233 C101 1.444 . S
C1249 C115 1.444 . S
C1251 C233 1.250 . S
C1267 C331 1.250 . S
C1269 C129 1.444 . S
C1285 C143 1.444 . S
C1287 C303 1.250 . S
C1303 C157 1.444 . S
C1305 C317 1.250 . S
C1321 C171 1.444 . S
C1323 C247 1.250 . S
C1339 C185 1.444 . S
C1341 C261 1.250 . S
C1357 C199 1.444 . S
C1359 C275 1.250 . S
C1375 C289 1.250 . S
C1377 C213 1.444 . S
C1393 C9 1.250 . S
C1395 C227 1.444 . S
C1411 C241 1.444 . S
C1413 C65 1.250 . S
C1429 C255 1.444 . S
C1431 C79 1.250 . S
C1447 C269 1.444 . S
C1449 C93 1.250 . S
C1465 C107 1.250 . S
C1467 C283 1.444 . S
C1483 C297 1.444 . S
C1485 C37 1.250 . S
C1501 C311 1.444 . S
C1503 C51 1.250 . S
C1519 C23 1.250 . S
C1521 C325 1.444 . S
C1537 C457 1.250 . S
C1539 C339 1.444 . S
C1555 C353 1.444 . S
C1557 C471 1.250 . S
C1573 C367 1.444 . S
C1575 C485 1.250 . S
C1591 C499 1.250 . S
C1593 C381 1.444 . S
C1609 C513 1.250 . S
C1611 C395 1.444 . S
C1627 C409 1.444 . S
C1629 C527 1.250 . S
C1645 C541 1.250 . S
C1647 C423 1.444 . S
C1663 C555 1.250 . S
C1665 C437 1.444 . S
C1681 C451 1.444 . S
C1683 C569 1.250 . S
C1699 C465 1.444 . S
C1701 C667 1.250 . S
C1717 C479 1.444 . S
C1719 C639 1.250 . S
C1735 C653 1.250 . S
C1737 C493 1.444 . S
C1753 C507 1.444 . S
C1755 C583 1.250 . S
C1771 C521 1.444 . S
C1773 C597 1.250 . S
C1789 C611 1.250 . S
C1791 C535 1.444 . S
C1807 C625 1.250 . S
C1809 C549 1.444 . S
C1825 C563 1.444 . S
C1827 C345 1.250 . S
C1843 C577 1.444 . S
C1845 C401 1.250 . S
C1861 C415 1.250 . S
C1863 C591 1.444 . S
C1879 C605 1.444 . S
C1881 C429 1.250 . S
C1897 C619 1.444 . S
C1899 C443 1.250 . S
C1915 C373 1.250 . S
C1917 C633 1.444 . S
C1933 C647 1.444 . S
C1935 C387 1.250 . S
C1951 C359 1.250 . S
C1953 C661 1.444 . S
C1969 C441 1.455 . S
C1971 C7 1.455 . S
C1987 C21 1.455 . S
C1989 C399 1.455 . S
C2005 C413 1.455 . S
C2007 C35 1.455 . S
C2023 C427 1.455 . S
C2025 C49 1.455 . S
C2041 C63 1.455 . S
C2043 C357 1.455 . S
C2059 C371 1.455 . S
C2061 C77 1.455 . S
C2077 C385 1.455 . S
C2079 C91 1.455 . S
C2095 C105 1.455 . S
C2097 C343 1.455 . S
C2113 C623 1.455 . S
C2115 C119 1.455 . S
C2131 C133 1.455 . S
C2133 C581 1.455 . S
C2149 C147 1.455 . S
C2151 C595 1.455 . S
C2167 C609 1.455 . S
C2169 C161 1.455 . S
C2185 C665 1.455 . S
C2187 C175 1.455 . S
C2203 C637 1.455 . S
C2205 C189 1.455 . S
C2221 C203 1.455 . S
C2223 C651 1.455 . S
C2239 C567 1.455 . S
C2241 C217 1.455 . S
C2257 C231 1.455 . S
C2259 C553 1.455 . S
C2275 C469 1.455 . S
C2277 C245 1.455 . S
C2293 C259 1.455 . S
C2295 C483 1.455 . S
C2311 C497 1.455 . S
C2313 C273 1.455 . S
C2329 C455 1.455 . S
C2331 C287 1.455 . S
C2347 C301 1.455 . S
C2349 C525 1.455 . S
C2365 C539 1.455 . S
C2367 C315 1.455 . S
C2383 C511 1.455 . S
C2385 C329 1.455 . S
