# Generated by pormake.
# Topology irl, (4)-cn, num edge types: 1
# Building blocks:
#     Node 0, Type 0, BuildingBlock: KUFVIS_clean_sbu_0, # of connection points: 4
#     Node 1, Type 0, BuildingBlock: KUFVIS_clean_sbu_0, # of connection points: 4
#     Node 2, Type 0, BuildingBlock: KUFVIS_clean_sbu_0, # of connection points: 4
#     Node 3, Type 0, BuildingBlock: KUFVIS_clean_sbu_0, # of connection points: 4
#     Node 4, Type 0, BuildingBlock: KUFVIS_clean_sbu_0, # of connection points: 4
#     Node 5, Type 0, BuildingBlock: KUFVIS_clean_sbu_0, # of connection points: 4
#     Node 6, Type 0, BuildingBlock: KUFVIS_clean_sbu_0, # of connection points: 4
#     Node 7, Type 0, BuildingBlock: KUFVIS_clean_sbu_0, # of connection points: 4
#     Edge 8, Type (0, 0), BuildingBlock: UVAHIK_clean_linker_0, # of connection points: 2
#     Edge 9, Type (0, 0), BuildingBlock: UVAHIK_clean_linker_0, # of connection points: 2
#     Edge 10, Type (0, 0), BuildingBlock: UVAHIK_clean_linker_0, # of connection points: 2
#     Edge 11, Type (0, 0), BuildingBlock: UVAHIK_clean_linker_0, # of connection points: 2
#     Edge 12, Type (0, 0), BuildingBlock: UVAHIK_clean_linker_0, # of connection points: 2
#     Edge 13, Type (0, 0), BuildingBlock: UVAHIK_clean_linker_0, # of connection points: 2
#     Edge 14, Type (0, 0), BuildingBlock: UVAHIK_clean_linker_0, # of connection points: 2
#     Edge 15, Type (0, 0), BuildingBlock: UVAHIK_clean_linker_0, # of connection points: 2
#     Edge 16, Type (0, 0), BuildingBlock: UVAHIK_clean_linker_0, # of connection points: 2
#     Edge 17, Type (0, 0), BuildingBlock: UVAHIK_clean_linker_0, # of connection points: 2
#     Edge 18, Type (0, 0), BuildingBlock: UVAHIK_clean_linker_0, # of connection points: 2
#     Edge 19, Type (0, 0), BuildingBlock: UVAHIK_clean_linker_0, # of connection points: 2
#     Edge 20, Type (0, 0), BuildingBlock: UVAHIK_clean_linker_0, # of connection points: 2
#     Edge 21, Type (0, 0), BuildingBlock: UVAHIK_clean_linker_0, # of connection points: 2
#     Edge 22, Type (0, 0), BuildingBlock: UVAHIK_clean_linker_0, # of connection points: 2
#     Edge 23, Type (0, 0), BuildingBlock: UVAHIK_clean_linker_0, # of connection points: 2
# Relax obj value: 0.102
# Max RMSD: 0.152
# Mean RMSD: 0.152
data_MOF--net-irl--node1-KUFVIS_clean_sbu_0--edge1-UVAHIK_clean_linker_0
_symmetry_space_group_name_H-M    P1
_symmetry_Int_Tables_number       1
_symmetry_cell_setting            triclinic
loop_
_symmetry_equiv_pos_as_xyz
'x, y, z'
_cell_length_a     44.17173
_cell_length_b     57.28902
_cell_length_c     35.938934
_cell_angle_alpha  90.173698
_cell_angle_beta   89.991439
_cell_angle_gamma 90.018381
loop_
_atom_site_label
_atom_site_type_symbol
_atom_site_fract_x
_atom_site_fract_y
_atom_site_fract_z
_atom_type_partial_charge
Mn0 Mn 0.0531 0.16143 0.00567 0.0
Mn1 Mn 0.03112 0.21736 0.01881 0.0
C2 C 0.04935 0.1761 0.06498 0.0
C3 C 0.03946 0.12258 -0.00458 0.0
C4 C 0.09455 0.20361 -0.00521 0.0
O5 O 0.03583 0.17068 0.95582 0.0
O6 O 0.01828 0.20674 0.96851 0.0
C7 C 0.9648 0.21003 0.01971 0.0
N8 N 0.99037 0.21808 0.03657 0.0
C9 C 0.96195 0.232 0.08927 0.0
C10 C 0.93527 0.224 0.07236 0.0
C11 C 0.93672 0.2129 0.03748 0.0
C12 C 0.98926 0.22867 0.07021 0.0
H13 H 0.96585 0.20146 -0.00707 0.0
C14 C 0.02182 0.18922 0.94672 0.0
O15 O 0.06583 0.13044 0.98539 0.0
O16 O 0.02124 0.13727 0.01133 0.0
N17 N 0.04181 0.23013 0.0663 0.0
C18 C 0.06976 0.23583 0.07959 0.0
C19 C 0.07236 0.2465 0.11467 0.0
C20 C 0.04622 0.25147 0.1355 0.0
C21 C 0.01769 0.24578 0.12098 0.0
C22 C 0.01649 0.23523 0.08581 0.0
H23 H 0.08993 0.23214 0.06366 0.0
O24 O 0.06515 0.15743 0.05856 0.0
O25 O 0.03534 0.1852 0.03667 0.0
O26 O 0.09085 0.18149 -0.00397 0.0
O27 O 0.07344 0.21826 0.00158 0.0
C28 C 0.99041 0.24983 0.14027 0.0
C29 C 0.96258 0.24284 0.12452 0.0
H30 H 0.91358 0.22613 0.08602 0.0
H31 H 0.91624 0.20658 0.02434 0.0
H32 H 0.09446 0.25086 0.12565 0.0
H33 H 0.04833 0.25954 0.16266 0.0
H34 H 0.99062 0.25803 0.16746 0.0
H35 H 0.94181 0.24571 0.13989 0.0
Mn36 Mn 0.93941 0.8421 -0.00385 0.0
Mn37 Mn 0.96333 0.78614 0.00054 0.0
C38 C 0.95491 0.82688 0.05193 0.0
C39 C 0.95101 0.88117 0.98464 0.0
C40 C 0.89704 0.79979 -0.00352 0.0
O41 O 0.94629 0.83357 0.9423 0.0
O42 O 0.96482 0.79712 0.94812 0.0
C43 C 0.02745 0.79395 0.98024 0.0
N44 N 0.00644 0.7857 0.00462 0.0
C45 C 0.04523 0.77257 0.04664 0.0
C46 C 0.0673 0.78078 0.02186 0.0
C47 C 0.05836 0.79156 -0.01145 0.0
C48 C 0.01478 0.77535 0.03678 0.0
H49 H 0.02065 0.80234 0.9547 0.0
C50 C 0.95718 0.81485 0.92859 0.0
O51 O 0.92335 0.87354 0.98202 0.0
O52 O 0.97162 0.86611 -0.00648 0.0
N53 N 0.96321 0.77306 0.04949 0.0
C54 C 0.9391 0.76688 0.07098 0.0
C55 C 0.94415 0.75633 0.10566 0.0
C56 C 0.97388 0.75204 0.1177 0.0
C57 C -0.00169 0.75817 0.0948 0.0
C58 C 0.99188 0.76846 0.06039 0.0
H59 H 0.91621 0.77014 0.06188 0.0
O60 O 0.93806 0.84541 0.05116 0.0
O61 O 0.96281 0.8181 0.01998 0.0
O62 O 0.90084 0.82194 -0.00335 0.0
O63 O 0.91887 0.78516 -0.00263 0.0
C64 C 0.02879 0.75487 0.10504 0.0
C65 C 0.05224 0.7621 0.08102 0.0
H66 H 0.09116 0.77907 0.02825 0.0
H67 H 0.07525 0.79805 0.96938 0.0
H68 H 0.92518 0.75162 0.12315 0.0
H69 H 0.97769 0.74415 0.14465 0.0
H70 H 0.03446 0.74706 0.13155 0.0
H71 H 0.07558 0.75973 0.0894 0.0
Mn72 Mn 0.05271 0.84448 0.48091 0.0
Mn73 Mn 0.03377 0.78782 0.46848 0.0
C74 C 0.0499 0.82939 0.42182 0.0
C75 C 0.03689 0.88286 0.49075 0.0
C76 C 0.09637 0.80375 0.49244 0.0
O77 O 0.03594 0.8349 0.53085 0.0
O78 O 0.02016 0.7983 0.51853 0.0
C79 C 0.96712 0.79304 0.46709 0.0
N80 N 0.99317 0.78572 0.45049 0.0
C81 C 0.96574 0.77073 0.39773 0.0
C82 C 0.93859 0.77797 0.41438 0.0
C83 C 0.9393 0.78923 0.44915 0.0
C84 C 0.99276 0.77497 0.41695 0.0
H85 H 0.96761 0.80175 0.49378 0.0
C86 C 0.0228 0.81601 0.54013 0.0
O87 O 0.06369 0.87596 0.50085 0.0
O88 O 0.01954 0.86751 0.47496 0.0
N89 N 0.04532 0.77513 0.42124 0.0
C90 C 0.0736 0.77015 0.40826 0.0
C91 C 0.07691 0.75938 0.37335 0.0
C92 C 0.05114 0.75356 0.35237 0.0
C93 C 0.02227 0.7585 0.36659 0.0
C94 C 0.02037 0.76917 0.40161 0.0
H95 H 0.09349 0.7745 0.4243 0.0
O96 O 0.06459 0.84864 0.42799 0.0
O97 O 0.03635 0.81999 0.4502 0.0
O98 O 0.0915 0.82573 0.49078 0.0
O99 O 0.07605 0.78838 0.48594 0.0
C100 C 0.99532 0.75357 0.34713 0.0
C101 C 0.96708 0.75978 0.3626 0.0
H102 H 0.91709 0.77512 0.40059 0.0
H103 H 0.91846 0.79497 0.46209 0.0
H104 H 0.09926 0.75559 0.36261 0.0
H105 H 0.05379 0.74542 0.32533 0.0
H106 H 0.99608 0.74528 0.32001 0.0
H107 H 0.94655 0.75623 0.34711 0.0
Mn108 Mn 0.93564 0.16257 0.49116 0.0
Mn109 Mn 0.96116 0.21811 0.48631 0.0
C110 C 0.95152 0.17736 0.43522 0.0
C111 C 0.94586 0.12331 0.50285 0.0
C112 C 0.89451 0.20561 0.49046 0.0
O113 O 0.9429 0.17108 0.54494 0.0
O114 O 0.96223 0.20728 0.53885 0.0
C115 C 0.02499 0.20926 0.50687 0.0
N116 N 0.00429 0.2178 0.48237 0.0
C117 C 0.04355 0.23016 0.44039 0.0
C118 C 0.06532 0.22165 0.46531 0.0
C119 C 0.05598 0.21111 0.49865 0.0
C120 C 0.01301 0.22792 0.45017 0.0
H121 H 0.01789 0.20106 0.53245 0.0
C122 C 0.95422 0.1897 0.55851 0.0
O123 O 0.91851 0.13153 0.50555 0.0
O124 O 0.967 0.1379 0.49382 0.0
N125 N 0.96155 0.23103 0.43726 0.0
C126 C 0.93768 0.23753 0.41562 0.0
C127 C 0.94312 0.24788 0.38088 0.0
C128 C 0.973 0.25165 0.36892 0.0
C129 C 0.99719 0.24521 0.39197 0.0
C130 C 0.99037 0.23512 0.42643 0.0
H131 H 0.91467 0.23467 0.42466 0.0
O132 O 0.93407 0.15915 0.43619 0.0
O133 O 0.95976 0.18609 0.4671 0.0
O134 O 0.89772 0.18342 0.49063 0.0
O135 O 0.91672 0.2199 0.48934 0.0
C136 C 0.02778 0.24797 0.38181 0.0
C137 C 0.05095 0.24041 0.40597 0.0
H138 H 0.08924 0.22294 0.45899 0.0
H139 H 0.07264 0.2044 0.51793 0.0
H140 H 0.92434 0.25284 0.36328 0.0
H141 H 0.97711 0.25939 0.34193 0.0
H142 H 0.03375 0.25561 0.35526 0.0
H143 H 0.07438 0.24237 0.39765 0.0
Mn144 Mn 0.55411 0.66178 0.00623 0.0
Mn145 Mn 0.53387 0.71835 0.01627 0.0
C146 C 0.55078 0.67779 0.06467 0.0
C147 C 0.53925 0.623 -0.00185 0.0
C148 C 0.59695 0.70293 -0.00649 0.0
O149 O 0.53732 0.67025 0.95577 0.0
O150 O 0.52097 0.70689 0.96649 0.0
C151 C 0.46736 0.71214 0.01703 0.0
N152 N 0.49307 0.72012 0.03365 0.0
C153 C 0.46481 0.73549 0.08546 0.0
C154 C 0.43799 0.72758 0.06877 0.0
C155 C 0.43929 0.71579 0.03446 0.0
C156 C 0.4921 0.73138 0.06674 0.0
H157 H 0.46829 0.70303 -0.0093 0.0
C158 C 0.524 0.68888 0.94561 0.0
O159 O 0.5659 0.6301 0.98778 0.0
O160 O 0.52146 0.63839 0.01307 0.0
N161 N 0.54469 0.73197 0.0631 0.0
C162 C 0.57272 0.73761 0.07621 0.0
C163 C 0.57545 0.74899 0.11071 0.0
C164 C 0.54936 0.75471 0.13114 0.0
C165 C 0.52075 0.7491 0.11679 0.0
C166 C 0.51943 0.73785 0.08218 0.0
H167 H 0.59285 0.73333 0.06059 0.0
O168 O 0.56592 0.65866 0.05934 0.0
O169 O 0.53708 0.68653 0.03587 0.0
O170 O 0.59251 0.68092 -0.00423 0.0
O171 O 0.57631 0.71813 -0.00062 0.0
C172 C 0.49352 0.75389 0.13573 0.0
C173 C 0.46558 0.747 0.12016 0.0
H174 H 0.4163 0.73031 0.08218 0.0
H175 H 0.4187 0.70953 0.0215 0.0
H176 H 0.59761 0.7533 0.12157 0.0
H177 H 0.55157 0.76332 0.15789 0.0
H178 H 0.49383 0.76261 0.16251 0.0
H179 H 0.44483 0.75047 0.13525 0.0
Mn180 Mn 0.43758 0.34205 -0.00174 0.0
Mn181 Mn 0.46103 0.2859 -0.00404 0.0
C182 C 0.45287 0.32414 0.05211 0.0
C183 C 0.44904 0.38155 -0.00885 0.0
C184 C 0.39489 0.30002 -0.00651 0.0
O185 O 0.44457 0.33607 0.94358 0.0
O186 O 0.46274 0.29934 0.945 0.0
C187 C 0.52526 0.29425 0.97666 0.0
N188 N 0.50414 0.28502 -1e-05 0.0
C189 C 0.54277 0.26975 0.04036 0.0
C190 C 0.56494 0.27895 0.01662 0.0
C191 C 0.55613 0.29129 0.98467 0.0
C192 C 0.51236 0.27315 0.03083 0.0
H193 H 0.51857 0.30384 0.95218 0.0
C194 C 0.4554 0.31802 0.92766 0.0
O195 O 0.42144 0.37395 0.98766 0.0
O196 O 0.46973 0.36623 -0.00144 0.0
N197 N 0.46075 0.2706 0.04323 0.0
C198 C 0.43657 0.26372 0.06405 0.0
C199 C 0.4415 0.25168 0.09749 0.0
C200 C 0.47117 0.24664 0.10897 0.0
C201 C 0.49567 0.25354 0.08676 0.0
C202 C 0.48937 0.26534 0.05358 0.0
H203 H 0.41372 0.26758 0.05539 0.0
O204 O 0.43612 0.34273 0.05349 0.0
O205 O 0.46083 0.31689 0.01921 0.0
O206 O 0.39897 0.32206 -0.00372 0.0
O207 O 0.41653 0.28523 -0.00738 0.0
C208 C 0.52611 0.2496 0.0966 0.0
C209 C 0.54964 0.25772 0.07345 0.0
H210 H 0.58877 0.27681 0.0228 0.0
H211 H 0.57311 0.29854 0.96632 0.0
H212 H 0.42247 0.24638 0.11445 0.0
H213 H 0.47489 0.23756 0.13497 0.0
H214 H 0.53169 0.2406 0.12217 0.0
H215 H 0.57296 0.25484 0.08155 0.0
Mn216 Mn 0.55324 0.34597 0.4755 0.0
Mn217 Mn 0.53213 0.28937 0.46948 0.0
C218 C 0.54906 0.32858 0.41816 0.0
C219 C 0.53884 0.38496 0.48198 0.0
C220 C 0.59571 0.30485 0.49004 0.0
O221 O 0.53703 0.33885 0.5267 0.0
O222 O 0.51991 0.30215 0.51877 0.0
C223 C 0.46571 0.29614 0.46941 0.0
N224 N 0.49112 0.28753 0.45287 0.0
C225 C 0.4621 0.27139 0.4023 0.0
C226 C 0.43559 0.27993 0.41893 0.0
C227 C 0.43742 0.29241 0.45258 0.0
C228 C 0.48964 0.2756 0.42042 0.0
H229 H 0.46705 0.3058 0.49521 0.0
C230 C 0.5235 0.32067 0.53834 0.0
O231 O 0.56559 0.37792 0.49203 0.0
O232 O 0.52077 0.36941 0.46799 0.0
N233 N 0.54224 0.2745 0.42336 0.0
C234 C 0.57004 0.26823 0.41023 0.0
C235 C 0.57223 0.25607 0.37635 0.0
C236 C 0.54586 0.25025 0.35656 0.0
C237 C 0.51749 0.25651 0.37096 0.0
C238 C 0.5167 0.26849 0.40497 0.0
H239 H 0.59039 0.2726 0.42535 0.0
O240 O 0.56442 0.34776 0.42204 0.0
O241 O 0.53558 0.32064 0.44773 0.0
O242 O 0.59153 0.32681 0.48638 0.0
O243 O 0.57477 0.28968 0.48564 0.0
C244 C 0.49001 0.25169 0.3526 0.0
C245 C 0.46234 0.2592 0.36819 0.0
H246 H 0.41373 0.27716 0.40597 0.0
H247 H 0.41707 0.29915 0.46548 0.0
H248 H 0.59421 0.25125 0.36547 0.0
H249 H 0.54766 0.24106 0.33027 0.0
H250 H 0.48992 0.24247 0.32624 0.0
H251 H 0.44139 0.25566 0.35355 0.0
Mn252 Mn 0.43869 0.66562 0.4879 0.0
Mn253 Mn 0.4635 0.72143 0.486 0.0
C254 C 0.45425 0.68178 0.43279 0.0
C255 C 0.44937 0.62618 0.49725 0.0
C256 C 0.39703 0.70835 0.48974 0.0
O257 O 0.44605 0.67298 0.54211 0.0
O258 O 0.46479 0.70947 0.53788 0.0
C259 C 0.52747 0.71265 0.50595 0.0
N260 N 0.50662 0.72153 0.48196 0.0
C261 C 0.54565 0.73502 0.44054 0.0
C262 C 0.56757 0.72616 0.46494 0.0
C263 C 0.55842 0.71489 0.49775 0.0
C264 C 0.51516 0.73237 0.45028 0.0
H265 H 0.52052 0.70388 0.5311 0.0
C266 C 0.45713 0.69141 0.55661 0.0
O267 O 0.42194 0.63417 0.50057 0.0
O268 O 0.47033 0.64111 0.48898 0.0
N269 N 0.46364 0.73537 0.43767 0.0
C270 C 0.43965 0.74209 0.41641 0.0
C271 C 0.4449 0.75314 0.38218 0.0
C272 C 0.47471 0.75737 0.37035 0.0
C273 C 0.49901 0.75067 0.39301 0.0
C274 C 0.49239 0.73988 0.42698 0.0
H275 H 0.41669 0.73887 0.42535 0.0
O276 O 0.43699 0.66345 0.43277 0.0
O277 O 0.46247 0.68983 0.46511 0.0
O278 O 0.40053 0.68619 0.48873 0.0
O279 O 0.41905 0.72283 0.48924 0.0
C280 C 0.52956 0.75385 0.38291 0.0
C281 C 0.55286 0.74599 0.40663 0.0
H282 H 0.59146 0.72774 0.45863 0.0
H283 H 0.5752 0.7079 0.51662 0.0
H284 H 0.42602 0.7583 0.36487 0.0
H285 H 0.47867 0.76566 0.34374 0.0
H286 H 0.53537 0.76204 0.35674 0.0
H287 H 0.57625 0.74828 0.39835 0.0
C288 C 0.93706 0.92362 0.98087 0.0
C289 C 0.95907 0.90598 0.97915 0.0
C290 C 0.94555 0.94716 0.97903 0.0
C291 C 0.01287 0.98517 -0.00676 0.0
H292 H 0.96247 0.03234 0.9472 0.0
C293 C 0.05155 0.08112 0.97818 0.0
C294 C 0.03035 0.098 -0.0106 0.0
C295 C 0.0429 0.05774 0.97406 0.0
C296 C 0.97671 0.01934 0.96027 0.0
H297 H 0.00701 0.89905 0.97224 0.0
H298 H 0.02166 0.93981 0.96773 0.0
H299 H 0.94708 0.9914 0.94459 0.0
H300 H 0.9833 0.10373 0.0042 0.0
H301 H 0.96824 0.06303 -0.00324 0.0
H302 H 0.04257 0.01311 0.00866 0.0
C303 C -0.00204 0.93569 0.9718 0.0
C304 C 0.96785 0.99589 0.95893 0.0
C305 C 0.98953 0.91226 0.9741 0.0
C306 C 0.00021 0.09113 -0.00438 0.0
C307 C 0.99151 0.06784 -0.00888 0.0
C308 C 0.02184 0.00855 -0.00575 0.0
C309 C 0.97621 0.95351 0.97503 0.0
C310 C 0.98576 0.97849 0.97554 0.0
C311 C 0.01281 0.05084 0.98066 0.0
C312 C 0.0038 0.02591 0.97798 0.0
H313 H 0.91342 0.91928 0.98491 0.0
H314 H 0.92818 0.96037 0.98197 0.0
H315 H 0.02695 0.97241 0.00709 0.0
H316 H 0.07492 0.08589 0.97314 0.0
H317 H 0.05975 0.04504 0.96567 0.0
C318 C 0.99569 0.91273 0.49118 0.0
C319 C 0.02631 0.90709 0.49672 0.0
C320 C 0.98551 0.93564 0.49578 0.0
C321 C 0.00706 0.99332 0.53599 0.0
H322 H 0.94716 0.01647 0.46637 0.0
C323 C 0.98321 0.09121 0.51238 0.0
C324 C 0.95294 0.09833 0.5084 0.0
C325 C 0.99054 0.06757 0.51497 0.0
C326 C 0.96357 0.01017 0.48635 0.0
H327 H 0.07026 0.92102 0.5117 0.0
H328 H 0.05274 0.9612 0.5187 0.0
H329 H 0.96362 0.97598 0.46245 0.0
H330 H 0.90652 0.08628 0.50475 0.0
H331 H 0.91943 0.04475 0.50879 0.0
H332 H 0.00764 0.0279 0.55895 0.0
C333 C 0.03638 0.94784 0.51159 0.0
C334 C 0.97303 0.98693 0.48418 0.0
C335 C 0.04651 0.92482 0.50734 0.0
C336 C 0.93004 0.08131 0.50785 0.0
C337 C 0.93743 0.05757 0.50995 0.0
C338 C -0.00219 0.01664 0.53791 0.0
C339 C 0.00575 0.95358 0.50565 0.0
C340 C 0.99504 0.9782 0.50883 0.0
C341 C 0.96781 0.05047 0.51321 0.0
C342 C 0.97611 0.02535 0.51295 0.0
H343 H 0.97947 0.89942 0.48332 0.0
H344 H 0.96167 0.93924 0.49171 0.0
H345 H 0.02361 0.98716 0.55589 0.0
H346 H 0.00138 0.10392 0.51298 0.0
H347 H 0.01415 0.06265 0.51711 0.0
C348 C 0.49883 0.5925 -0.00078 0.0
C349 C 0.52933 0.59848 -0.0064 0.0
C350 C 0.48927 0.56934 -0.00389 0.0
C351 C 0.51247 0.51105 0.95983 0.0
H352 H 0.45188 0.48892 0.02945 0.0
C353 C 0.48736 0.41336 0.98481 0.0
C354 C 0.45687 0.40655 0.98753 0.0
C355 C 0.49521 0.43694 0.98283 0.0
C356 C 0.46854 0.49492 0.00953 0.0
H357 H 0.57375 0.58487 0.98004 0.0
H358 H 0.55731 0.54426 0.97562 0.0
H359 H 0.46802 0.52955 0.03173 0.0
H360 H 0.41063 0.41912 -0.01003 0.0
H361 H 0.42442 0.46051 0.987 0.0
H362 H 0.51353 0.47608 0.9385 0.0
C363 C 0.54056 0.55754 0.98166 0.0
C364 C 0.47779 0.51824 0.01074 0.0
C365 C 0.55007 0.58081 0.9844 0.0
C366 C 0.43432 0.42384 0.98785 0.0
C367 C 0.44221 0.4475 0.98634 0.0
C368 C 0.50342 0.48766 0.95889 0.0
C369 C 0.51004 0.55147 0.9877 0.0
C370 C 0.49993 0.52664 0.98595 0.0
C371 C 0.47276 0.45428 0.98395 0.0
C372 C 0.48142 0.47933 0.9838 0.0
H373 H 0.48221 0.60575 0.00601 0.0
H374 H 0.4655 0.56548 0.00017 0.0
H375 H 0.52915 0.51694 0.93986 0.0
H376 H 0.50528 0.40045 0.98443 0.0
H377 H 0.51894 0.44163 0.98137 0.0
C378 C 0.49842 0.41546 0.481 0.0
C379 C 0.52893 0.40947 0.48655 0.0
C380 C 0.48875 0.43854 0.48506 0.0
C381 C 0.5115 0.49597 0.5249 0.0
H382 H 0.45101 0.51966 0.45651 0.0
C383 C 0.48709 0.59409 0.50446 0.0
C384 C 0.45672 0.60114 0.50136 0.0
C385 C 0.49461 0.57044 0.50592 0.0
C386 C 0.46762 0.51321 0.47612 0.0
H387 H 0.57327 0.42301 0.50073 0.0
H388 H 0.55663 0.46348 0.50682 0.0
H389 H 0.46727 0.47913 0.45178 0.0
H390 H 0.41035 0.58894 0.49796 0.0
H391 H 0.42359 0.54741 0.50005 0.0
H392 H 0.51239 0.53039 0.54841 0.0
C393 C 0.53997 0.45025 0.50012 0.0
C394 C 0.47695 0.48995 0.47348 0.0
C395 C 0.54959 0.42708 0.49638 0.0
C396 C 0.43394 0.58402 0.50041 0.0
C397 C 0.44152 0.56029 0.50139 0.0
C398 C 0.50235 0.5193 0.5273 0.0
C399 C 0.5094 0.4563 0.49443 0.0
C400 C 0.49912 0.48102 0.49774 0.0
C401 C 0.47198 0.55327 0.50388 0.0
C402 C 0.48042 0.52819 0.50282 0.0
H403 H 0.48186 0.40227 0.47372 0.0
H404 H 0.46497 0.44239 0.48116 0.0
H405 H 0.52816 0.48964 0.54452 0.0
H406 H 0.50517 0.60686 0.50532 0.0
H407 H 0.51828 0.56559 0.50749 0.0
C408 C 0.06729 0.18619 0.12848 0.0
C409 C 0.04333 0.18312 0.10338 0.0
C410 C 0.06133 0.19119 0.16582 0.0
C411 C 0.0016 0.21119 0.23 0.0
H412 H 0.03974 0.16971 0.30095 0.0
C413 C 0.94683 0.188 0.36882 0.0
C414 C 0.9652 0.18422 0.39992 0.0
C415 C 0.95987 0.1927 0.33435 0.0
C416 C 0.0294 0.18187 0.28177 0.0
H417 H 0.99469 0.18109 0.0973 0.0
H418 H 0.98409 0.19004 0.16251 0.0
H419 H 0.05678 0.16977 0.23659 0.0
H420 H 0.01124 0.18074 0.41966 0.0
H421 H 0.03433 0.18953 0.35942 0.0
H422 H 0.97375 0.22295 0.27497 0.0
C423 C 0.00742 0.18947 0.15326 0.0
C424 C 0.03914 0.18185 0.24487 0.0
C425 C 0.01341 0.18439 0.11606 0.0
C426 C 0.99676 0.18447 0.39609 0.0
C427 C 0.00989 0.18921 0.36161 0.0
C428 C 0.99206 0.2114 0.26698 0.0
C429 C 0.03132 0.19282 0.1785 0.0
C430 C 0.02464 0.19594 0.21844 0.0
C431 C 0.99155 0.19327 0.33032 0.0
C432 C 0.00511 0.19611 0.29293 0.0
H433 H 0.09054 0.18473 0.11917 0.0
H434 H 0.08012 0.19355 0.18483 0.0
H435 H 0.99031 0.22241 0.21019 0.0
H436 H 0.9224 0.1872 0.3712 0.0
H437 H 0.94511 0.19509 0.31062 0.0
C438 C 0.06879 0.81917 0.35881 0.0
C439 C 0.04451 0.82188 0.38353 0.0
C440 C 0.06336 0.81368 0.32154 0.0
C441 C 0.00457 0.79227 0.25685 0.0
H442 H 0.04273 0.83378 0.18591 0.0
C443 C 0.95008 0.81596 0.1182 0.0
C444 C 0.96848 0.81967 0.08711 0.0
C445 C 0.96308 0.81097 0.15258 0.0
C446 C 0.0324 0.82161 0.2051 0.0
H447 H 0.99576 0.82271 0.38902 0.0
H448 H 0.98607 0.81303 0.32388 0.0
H449 H 0.05931 0.83409 0.25041 0.0
H450 H 0.01456 0.82269 0.06725 0.0
H451 H 0.03756 0.81351 0.12739 0.0
H452 H 0.97702 0.78029 0.21172 0.0
C453 C 0.0093 0.8142 0.33339 0.0
C454 C 0.04189 0.82183 0.24209 0.0
C455 C 0.01477 0.81974 0.37054 0.0
C456 C 4e-05 0.81903 0.09083 0.0
C457 C 0.01312 0.81404 0.12522 0.0
C458 C 0.99522 0.79192 0.2198 0.0
C459 C 0.03354 0.81123 0.3085 0.0
C460 C 0.02733 0.80776 0.26852 0.0
C461 C 0.99475 0.81009 0.15652 0.0
C462 C 0.00828 0.80723 0.19387 0.0
H463 H 0.09189 0.8213 0.36837 0.0
H464 H 0.08241 0.8116 0.30283 0.0
H465 H 0.99325 0.78105 0.27665 0.0
H466 H 0.92566 0.81703 0.11589 0.0
H467 H 0.94831 0.80864 0.17634 0.0
C468 C 0.00353 0.7925 0.59371 0.0
C469 C 0.0104 0.81435 0.57814 0.0
C470 C 0.99366 0.79092 0.63051 0.0
C471 C 0.96004 0.82436 0.70719 0.0
H472 H 0.00592 0.78284 0.77087 0.0
C473 C 0.95965 0.83373 0.86609 0.0
C474 C 0.96081 0.81342 0.88784 0.0
C475 C 0.9628 0.83241 0.82756 0.0
C476 C 0.99246 0.79419 0.75343 0.0
H477 H 0.01106 0.85173 0.58836 0.0
H478 H 0.99367 0.8489 0.65251 0.0
H479 H 0.01522 0.78277 0.70407 0.0
H480 H 0.96571 0.77573 0.88619 0.0
H481 H 0.97058 0.77338 0.81881 0.0
H482 H 0.9373 0.83588 0.75642 0.0
C483 C 0.99599 0.83304 0.63624 0.0
C484 C -0.00216 0.79416 0.7152 0.0
C485 C 0.00618 0.83462 0.59964 0.0
C486 C 0.965 0.79173 0.87023 0.0
C487 C 0.96786 0.79038 0.83162 0.0
C488 C 0.95443 0.82424 0.74538 0.0
C489 C 0.99011 0.81117 0.65215 0.0
C490 C 0.98207 0.80954 0.69189 0.0
C491 C 0.96689 0.81072 0.80988 0.0
C492 C 0.971 0.80948 0.76901 0.0
H493 H 0.0065 0.77657 0.57783 0.0
H494 H 0.98906 0.77387 0.64218 0.0
H495 H 0.94736 0.8362 0.68964 0.0
H496 H 0.95665 0.85074 0.87884 0.0
H497 H 0.96257 0.84845 0.81172 0.0
C498 C 0.00571 0.17037 0.88717 0.0
C499 C 0.00944 0.1907 0.90868 0.0
C500 C 0.99545 0.1718 0.85058 0.0
C501 C 0.99623 0.21057 0.77151 0.0
H502 H 0.93585 0.16843 0.73097 0.0
C503 C 0.96237 0.21283 0.6168 0.0
C504 C 0.95805 0.19114 0.59923 0.0
C505 C 0.96551 0.21417 0.65538 0.0
C506 C 0.95295 0.18018 0.7418 0.0
H507 H 0.00468 0.22842 0.90898 0.0
H508 H 0.98716 0.23086 0.84463 0.0
H509 H 0.94642 0.16817 0.79762 0.0
H510 H 0.95395 0.15382 0.60826 0.0
H511 H 0.96041 0.15609 0.6753 0.0
H512 H 0.0038 0.22195 0.71576 0.0
C513 C 0.99216 0.21388 0.85631 0.0
C514 C 0.95884 0.18009 0.77993 0.0
C515 C 0.00206 0.21245 0.8931 0.0
C516 C 0.95703 0.17083 0.62099 0.0
C517 C 0.9605 0.17215 0.65948 0.0
C518 C 0.99059 0.21049 0.73334 0.0
C519 C 0.98903 0.19358 0.83469 0.0
C520 C 0.98079 0.19509 0.795 0.0
C521 C 0.96473 0.19383 0.67714 0.0
C522 C 0.96918 0.19507 0.71798 0.0
H523 H 0.011 0.15334 0.89847 0.0
H524 H 0.99346 0.15591 0.83433 0.0
H525 H 0.01354 0.2221 0.78247 0.0
H526 H 0.96296 0.22882 0.60083 0.0
H527 H 0.96831 0.23118 0.66816 0.0
C528 C 0.5155 0.68794 0.11557 0.0
C529 C 0.54526 0.68589 0.10263 0.0
C530 C 0.50996 0.69397 0.15252 0.0
C531 C 0.54237 0.68733 0.2438 0.0
H532 H 0.47753 0.72911 0.27334 0.0
C533 C 0.49965 0.68981 0.39446 0.0
C534 C 0.46807 0.68936 0.39795 0.0
C535 C 0.51296 0.69505 0.3603 0.0
C536 C 0.49572 0.71741 0.26551 0.0
H537 H 0.59265 0.68714 0.1177 0.0
H538 H 0.58303 0.69764 0.18291 0.0
H539 H 0.49398 0.72799 0.20848 0.0
H540 H 0.42543 0.69268 0.36897 0.0
H541 H 0.44848 0.70138 0.30887 0.0
H542 H 0.54292 0.67556 0.30005 0.0
C543 C 0.56402 0.69516 0.16428 0.0
C544 C 0.50519 0.71686 0.22849 0.0
C545 C 0.56952 0.6892 0.1272 0.0
C546 C 0.44987 0.69359 0.36685 0.0
C547 C 0.46311 0.69877 0.33267 0.0
C548 C 0.53272 0.68771 0.28072 0.0
C549 C 0.53417 0.69751 0.17725 0.0
C550 C 0.52793 0.70129 0.21714 0.0
C551 C 0.49482 0.69937 0.32894 0.0
C552 C 0.50859 0.70217 0.29167 0.0
H553 H 0.49653 0.68449 0.09724 0.0
H554 H 0.48673 0.69506 0.16204 0.0
H555 H 0.55977 0.675 0.2357 0.0
H556 H 0.514 0.68576 0.41801 0.0
H557 H 0.53742 0.6954 0.35834 0.0
C558 C 0.51356 0.31737 0.36798 0.0
C559 C 0.54336 0.31946 0.38082 0.0
C560 C 0.50794 0.31062 0.33135 0.0
C561 C 0.54076 0.31569 0.24003 0.0
H562 H 0.47481 0.27474 0.21122 0.0
C563 C 0.49801 0.31425 0.0898 0.0
C564 C 0.46646 0.31535 0.08639 0.0
C565 C 0.51118 0.30825 0.12373 0.0
C566 C 0.49332 0.2862 0.21884 0.0
H567 H 0.59072 0.31739 0.36585 0.0
H568 H 0.58097 0.3056 0.30126 0.0
H569 H 0.49118 0.27614 0.27615 0.0
H570 H 0.42375 0.31219 0.11529 0.0
H571 H 0.44655 0.3023 0.17501 0.0
H572 H 0.54175 0.327 0.1836 0.0
C573 C 0.56198 0.30863 0.31973 0.0
C574 C 0.50273 0.28691 0.2559 0.0
C575 C 0.56756 0.31533 0.35647 0.0
C576 C 0.44816 0.31082 0.11731 0.0
C577 C 0.46126 0.30494 0.15129 0.0
C578 C 0.53119 0.31515 0.20311 0.0
C579 C 0.5321 0.30638 0.3068 0.0
C580 C 0.52588 0.30223 0.26698 0.0
C581 C 0.49295 0.3039 0.15503 0.0
C582 C 0.50667 0.30101 0.19235 0.0
H583 H 0.49465 0.32143 0.38608 0.0
H584 H 0.48471 0.30961 0.32185 0.0
H585 H 0.55847 0.32782 0.2479 0.0
H586 H 0.51248 0.31851 0.06644 0.0
H587 H 0.53563 0.30752 0.12562 0.0
C588 C 0.46502 0.29806 0.86678 0.0
C589 C 0.45966 0.31871 0.88695 0.0
C590 C 0.46894 0.29875 0.82828 0.0
C591 C 0.49377 0.3372 0.75408 0.0
H592 H 0.45262 0.2935 0.68876 0.0
C593 C 0.508 0.34217 0.5958 0.0
C594 C 0.5118 0.32091 0.57679 0.0
C595 C 0.49853 0.34244 0.6328 0.0
C596 C 0.46449 0.30567 0.70667 0.0
H597 H 0.45423 0.35629 0.88251 0.0
H598 H 0.46144 0.35743 0.8153 0.0
H599 H 0.44245 0.29273 0.75556 0.0
H600 H 0.50797 0.28327 0.58134 0.0
H601 H 0.49231 0.28369 0.64628 0.0
H602 H 0.51657 0.34973 0.70575 0.0
C603 C 0.46252 0.34075 0.82938 0.0
C604 C 0.45861 0.30525 0.74483 0.0
C605 C 0.45829 0.34005 0.8678 0.0
C606 C 0.50519 0.29994 0.59523 0.0
C607 C 0.49604 0.30019 0.6324 0.0
C608 C 0.49989 0.33748 0.71605 0.0
C609 C 0.4679 0.32012 0.80932 0.0
C610 C 0.4733 0.32096 0.76883 0.0
C611 C 0.49299 0.32144 0.65173 0.0
C612 C 0.48541 0.32167 0.69191 0.0
H613 H 0.4661 0.28132 0.88066 0.0
H614 H 0.47336 0.28263 0.81341 0.0
H615 H 0.50568 0.34929 0.77212 0.0
H616 H 0.51248 0.35866 0.58218 0.0
H617 H 0.49576 0.35912 0.64663 0.0
C618 C 0.50431 0.7115 0.89134 0.0
C619 C 0.51196 0.68993 0.90736 0.0
C620 C 0.4948 0.71262 0.85438 0.0
C621 C 0.46324 0.67817 0.77762 0.0
H622 H 0.50713 0.7213 0.71448 0.0
C623 C 0.46072 0.67132 0.61808 0.0
C624 C 0.4611 0.69206 0.59734 0.0
C625 C 0.46448 0.67194 0.65659 0.0
C626 C 0.49423 0.70946 0.73177 0.0
H627 H 0.51438 0.65254 0.89768 0.0
H628 H 0.49758 0.65457 0.83317 0.0
H629 H 0.51674 0.72106 0.78117 0.0
H630 H 0.46507 0.72977 0.60077 0.0
H631 H 0.47089 0.73089 0.66806 0.0
H632 H 0.44062 0.66658 0.72834 0.0
C633 C 0.49905 0.67056 0.84925 0.0
C634 C 0.49981 0.70931 0.76994 0.0
C635 C 0.50887 0.66944 0.88607 0.0
C636 C 0.465 0.71345 0.61594 0.0
C637 C 0.46842 0.71409 0.6545 0.0
C638 C 0.45741 0.67847 0.73947 0.0
C639 C 0.4924 0.69218 0.83295 0.0
C640 C 0.48465 0.69347 0.79309 0.0
C641 C 0.46837 0.69333 0.67524 0.0
C642 C 0.47316 0.69391 0.71605 0.0
H643 H 0.50638 0.7276 0.90701 0.0
H644 H 0.48956 0.72948 0.84242 0.0
H645 H 0.45106 0.66595 0.79504 0.0
H646 H 0.45795 0.65453 0.60454 0.0
H647 H 0.46489 0.65559 0.67163 0.0
C648 C 0.35851 0.26653 -0.00907 0.0
C649 C 0.36358 0.29079 -0.00897 0.0
C650 C 0.32925 0.25755 -0.01174 0.0
C651 C 0.24938 0.27297 0.0036 0.0
H652 H 0.23413 0.21783 0.94348 0.0
C653 C 0.12911 0.2374 0.98308 0.0
C654 C 0.12515 0.21318 0.9874 0.0
C655 C 0.158 0.24699 0.98002 0.0
C656 C 0.23809 0.23313 0.96059 0.0
H657 H 0.34159 0.32461 -0.01168 0.0
H658 H 0.29038 0.30885 0.98335 0.0
H659 H 0.28482 0.23481 0.94505 0.0
H660 H 0.14864 0.17998 -0.00959 0.0
H661 H 0.19927 0.19683 0.98526 0.0
H662 H 0.20277 0.27122 0.01938 0.0
C663 C 0.30918 0.29682 0.98573 0.0
C664 C 0.26711 0.24286 0.96151 0.0
C665 C 0.33855 0.30585 -0.01154 0.0
C666 C 0.15084 0.19869 0.98708 0.0
C667 C 0.17985 0.20834 0.98403 0.0
C668 C 0.22039 0.26327 0.00264 0.0
C669 C 0.30423 0.27256 0.98554 0.0
C670 C 0.27312 0.26281 0.98323 0.0
C671 C 0.18373 0.23264 0.98123 0.0
C672 C 0.21444 0.24319 0.98125 0.0
H673 H 0.37716 0.25434 -0.00688 0.0
H674 H 0.32621 0.23879 -0.01111 0.0
H675 H 0.25335 0.2881 0.02108 0.0
H676 H 0.10988 0.24913 0.98281 0.0
H677 H 0.16021 0.26573 0.97712 0.0
C678 C 0.63284 0.73576 0.98077 0.0
C679 C 0.62796 0.71174 0.98635 0.0
C680 C 0.66212 0.74473 0.97835 0.0
C681 C 0.7394 0.73182 0.00885 0.0
H682 H 0.76125 0.78236 0.94244 0.0
C683 C 0.86142 0.76585 -0.00264 0.0
C684 C 0.86591 0.79012 -0.00514 0.0
C685 C 0.83245 0.75633 -0.00494 0.0
C686 C 0.75537 0.76843 0.96143 0.0
H687 H 0.65025 0.67819 -0.00794 0.0
H688 H 0.70151 0.69391 0.98748 0.0
H689 H 0.71099 0.76478 0.93813 0.0
H690 H 0.84316 0.82341 0.98818 0.0
H691 H 0.7923 0.80668 0.9845 0.0
H692 H 0.78359 0.73556 0.03238 0.0
C693 C 0.68252 0.7058 0.98553 0.0
C694 C 0.72664 0.7583 0.95887 0.0
C695 C 0.65314 0.69677 0.98786 0.0
C696 C 0.84055 0.80466 -0.0098 0.0
C697 C 0.81144 0.79507 0.98783 0.0
C698 C 0.76808 0.74194 0.01141 0.0
C699 C 0.68731 0.72994 0.98146 0.0
C700 C 0.71832 0.73991 0.98262 0.0
C701 C 0.80712 0.77078 -0.00976 0.0
C702 C 0.77639 0.76037 0.98776 0.0
H703 H 0.61402 0.74785 0.97933 0.0
H704 H 0.665 0.76342 0.97553 0.0
H705 H 0.7335 0.71802 0.02806 0.0
H706 H 0.88033 0.75403 0.00094 0.0
H707 H 0.82996 0.73754 -0.00349 0.0
C708 C 0.13277 0.77121 0.5046 0.0
C709 C 0.12748 0.79523 0.49974 0.0
C710 C 0.1622 0.76258 0.50734 0.0
C711 C 0.23969 0.77678 0.4791 0.0
H712 H 0.26118 0.72536 0.54392 0.0
C713 C 0.36173 0.74251 0.49047 0.0
C714 C 0.36601 0.71818 0.49184 0.0
C715 C 0.33281 0.75211 0.49306 0.0
C716 C 0.25541 0.73956 0.5254 0.0
H717 H 0.14915 0.82912 0.49557 0.0
H718 H 0.20067 0.81399 0.5007 0.0
H719 H 0.21072 0.74259 0.54799 0.0
H720 H 0.34296 0.68488 0.49685 0.0
H721 H 0.29225 0.70173 0.50104 0.0
H722 H 0.2842 0.77364 0.45624 0.0
C723 C 0.1819 0.80185 0.50186 0.0
C724 C 0.22657 0.74948 0.52781 0.0
C725 C 0.15237 0.81053 0.4992 0.0
C726 C 0.34052 0.70367 0.49572 0.0
C727 C 0.31149 0.71333 0.49838 0.0
C728 C 0.2685 0.76688 0.47669 0.0
C729 C 0.18712 0.77772 0.50528 0.0
C730 C 0.21834 0.76813 0.50455 0.0
C731 C 0.30735 0.73767 0.49706 0.0
C732 C 0.27666 0.7481 0.49971 0.0
H733 H 0.11419 0.75887 0.50527 0.0
H734 H 0.16541 0.74389 0.50961 0.0
H735 H 0.23388 0.79081 0.46028 0.0
H736 H 0.38075 0.7543 0.48752 0.0
H737 H 0.33045 0.77092 0.49243 0.0
C738 C 0.6314 0.27205 0.50373 0.0
C739 C 0.6267 0.296 0.49724 0.0
C740 C 0.66062 0.26301 0.50645 0.0
C741 C 0.73817 0.27516 0.47581 0.0
H742 H 0.75917 0.22537 0.54402 0.0
C743 C 0.85967 0.24003 0.48874 0.0
C744 C 0.86362 0.21574 0.49187 0.0
C745 C 0.8309 0.24994 0.49073 0.0
C746 C 0.75353 0.23909 0.52455 0.0
H747 H 0.64924 0.32935 0.49012 0.0
H748 H 0.70039 0.31351 0.49524 0.0
H749 H 0.70912 0.24334 0.54749 0.0
H750 H 0.84011 0.18282 0.4994 0.0
H751 H 0.78965 0.20022 0.50258 0.0
H752 H 0.78242 0.27083 0.45266 0.0
C753 C 0.68131 0.30173 0.49767 0.0
C754 C 0.72491 0.24944 0.52661 0.0
C755 C 0.65199 0.31083 0.49502 0.0
C756 C 0.83794 0.20158 0.49689 0.0
C757 C 0.80905 0.21156 0.49897 0.0
C758 C 0.76675 0.26483 0.47376 0.0
C759 C 0.68592 0.27765 0.50275 0.0
C760 C 0.71688 0.26753 0.50216 0.0
C761 C 0.80525 0.23586 0.49591 0.0
C762 C 0.77473 0.24664 0.49803 0.0
H763 H 0.6125 0.26007 0.50571 0.0
H764 H 0.66335 0.24436 0.51002 0.0
H765 H 0.7325 0.28873 0.45609 0.0
H766 H 0.87885 0.25156 0.48486 0.0
H767 H 0.82882 0.26874 0.48875 0.0
loop_
_geom_bond_atom_site_label_1
_geom_bond_atom_site_label_2
_geom_bond_distance
_geom_bond_site_symmetry_2
_ccdc_geom_bond_type
Mn0 O5 2.095 1_554 S
Mn0 O15 2.162 . S
Mn0 O16 2.297 . S
Mn0 O24 2.385 . S
Mn0 O25 2.209 . S
Mn0 O26 2.094 . S
Mn1 O6 2.121 1_554 S
Mn1 N8 2.257 1_455 S
Mn1 N17 2.282 . S
Mn1 O25 2.215 . S
Mn1 O27 2.117 . S
C2 O24 1.234 . S
C2 O25 1.283 . S
C3 O15 1.281 . S
C3 O16 1.236 . S
C4 O26 1.240 . S
C4 O27 1.264 . S
O5 Mn0 2.095 1_556 S
O5 C14 1.250 . S
O6 Mn1 2.121 1_556 S
O6 C14 1.258 . S
C7 N8 1.326 . S
C7 C11 1.460 . S
C7 H13 0.929 1_554 S
N8 Mn1 2.257 1_655 S
N8 C7 1.326 . S
N8 C12 1.362 . S
C9 C10 1.258 . S
C9 C12 1.431 . S
C9 C29 1.449 . S
C10 C9 1.258 . S
C10 C11 1.477 . S
C10 H30 0.931 . S
C11 C7 1.460 . S
C11 C10 1.477 . S
C11 H31 0.938 . S
C12 N8 1.362 . S
C12 C9 1.431 . S
C12 C22 1.476 1_655 S
H13 C7 0.929 1_556 S
C14 O5 1.250 . S
C14 O6 1.258 . S
O15 Mn0 2.162 . S
O15 C3 1.281 . S
O16 Mn0 2.297 . S
O16 C3 1.236 . S
N17 Mn1 2.282 . S
N17 C18 1.328 . S
N17 C22 1.318 . S
C18 N17 1.328 . S
C18 C19 1.457 . S
C18 H23 0.929 . S
C19 C18 1.457 . S
C19 C20 1.291 . S
C19 H32 0.931 . S
C20 C19 1.291 . S
C20 C21 1.373 . S
C20 H33 0.929 . S
C21 C20 1.373 . S
C21 C22 1.396 . S
C21 C28 1.403 1_455 S
C22 C12 1.476 1_455 S
C22 N17 1.318 . S
C22 C21 1.396 . S
H23 C18 0.929 . S
O24 Mn0 2.385 . S
O24 C2 1.234 . S
O25 Mn0 2.209 . S
O25 Mn1 2.215 . S
O25 C2 1.283 . S
O26 Mn0 2.094 . S
O26 C4 1.240 . S
O27 Mn1 2.117 . S
O27 C4 1.264 . S
C28 C21 1.403 1_655 S
C28 C29 1.399 . S
C28 H34 0.929 . S
C29 C9 1.449 . S
C29 C28 1.399 . S
C29 H35 0.930 . S
H30 C10 0.931 . S
H31 C11 0.938 . S
H32 C19 0.931 . S
H33 C20 0.929 . S
H34 C28 0.929 . S
H35 C29 0.930 . S
Mn36 O41 2.095 1_554 S
Mn36 O51 2.162 . S
Mn36 O52 2.297 . S
Mn36 O60 2.385 . S
Mn36 O61 2.209 . S
Mn36 O62 2.094 . S
Mn37 O42 2.121 1_554 S
Mn37 N44 2.257 1_655 S
Mn37 N53 2.282 . S
Mn37 O61 2.215 . S
Mn37 O63 2.117 . S
C38 O60 1.234 . S
C38 O61 1.283 . S
C39 O51 1.281 . S
C39 O52 1.236 . S
C40 O62 1.240 . S
C40 O63 1.264 . S
O41 Mn36 2.095 1_556 S
O41 C50 1.250 . S
O42 Mn37 2.121 1_556 S
O42 C50 1.258 . S
C43 N44 1.326 . S
C43 C47 1.460 . S
C43 H49 0.929 1_554 S
N44 Mn37 2.257 1_455 S
N44 C43 1.326 . S
N44 C48 1.362 . S
C45 C46 1.258 . S
C45 C48 1.431 . S
C45 C65 1.449 . S
C46 C45 1.258 . S
C46 C47 1.477 . S
C46 H66 0.931 . S
C47 C43 1.460 . S
C47 C46 1.477 . S
C47 H67 0.938 . S
C48 N44 1.362 . S
C48 C45 1.431 . S
C48 C58 1.476 1_455 S
H49 C43 0.929 1_556 S
C50 O41 1.250 . S
C50 O42 1.258 . S
O51 Mn36 2.162 . S
O51 C39 1.281 . S
O52 Mn36 2.297 . S
O52 C39 1.236 . S
N53 Mn37 2.282 . S
N53 C54 1.328 . S
N53 C58 1.318 . S
C54 N53 1.328 . S
C54 C55 1.457 . S
C54 H59 0.929 . S
C55 C54 1.457 . S
C55 C56 1.291 . S
C55 H68 0.931 . S
C56 C55 1.291 . S
C56 C57 1.373 . S
C56 H69 0.929 . S
C57 C56 1.373 . S
C57 C58 1.396 . S
C57 C64 1.403 1_655 S
C58 C48 1.476 1_655 S
C58 N53 1.318 . S
C58 C57 1.396 . S
H59 C54 0.929 . S
O60 Mn36 2.385 . S
O60 C38 1.234 . S
O61 Mn36 2.209 . S
O61 Mn37 2.215 . S
O61 C38 1.283 . S
O62 Mn36 2.094 . S
O62 C40 1.240 . S
O63 Mn37 2.117 . S
O63 C40 1.264 . S
C64 C57 1.403 1_455 S
C64 C65 1.399 . S
C64 H70 0.929 . S
C65 C45 1.449 . S
C65 C64 1.399 . S
C65 H71 0.930 . S
H66 C46 0.931 . S
H67 C47 0.938 . S
H68 C55 0.931 . S
H69 C56 0.929 . S
H70 C64 0.929 . S
H71 C65 0.930 . S
Mn72 O77 2.095 . S
Mn72 O87 2.162 . S
Mn72 O88 2.297 . S
Mn72 O96 2.385 . S
Mn72 O97 2.209 . S
Mn72 O98 2.094 . S
Mn73 O78 2.121 . S
Mn73 N80 2.257 1_455 S
Mn73 N89 2.282 . S
Mn73 O97 2.215 . S
Mn73 O99 2.117 . S
C74 O96 1.234 . S
C74 O97 1.283 . S
C75 O87 1.281 . S
C75 O88 1.236 . S
C76 O98 1.240 . S
C76 O99 1.264 . S
O77 Mn72 2.095 . S
O77 C86 1.250 . S
O78 Mn73 2.121 . S
O78 C86 1.258 . S
C79 N80 1.326 . S
C79 C83 1.460 . S
C79 H85 0.929 . S
N80 Mn73 2.257 1_655 S
N80 C79 1.326 . S
N80 C84 1.362 . S
C81 C82 1.258 . S
C81 C84 1.431 . S
C81 C101 1.449 . S
C82 C81 1.258 . S
C82 C83 1.477 . S
C82 H102 0.931 . S
C83 C79 1.460 . S
C83 C82 1.477 . S
C83 H103 0.930 . S
C84 N80 1.362 . S
C84 C81 1.431 . S
C84 C94 1.476 1_655 S
H85 C79 0.929 . S
C86 O77 1.250 . S
C86 O78 1.258 . S
O87 Mn72 2.162 . S
O87 C75 1.281 . S
O88 Mn72 2.297 . S
O88 C75 1.236 . S
N89 Mn73 2.282 . S
N89 C90 1.328 . S
N89 C94 1.318 . S
C90 N89 1.328 . S
C90 C91 1.457 . S
C90 H95 0.929 . S
C91 C90 1.457 . S
C91 C92 1.291 . S
C91 H104 0.931 . S
C92 C91 1.291 . S
C92 C93 1.373 . S
C92 H105 0.929 . S
C93 C92 1.373 . S
C93 C94 1.396 . S
C93 C100 1.403 1_455 S
C94 C84 1.476 1_455 S
C94 N89 1.318 . S
C94 C93 1.396 . S
H95 C90 0.929 . S
O96 Mn72 2.385 . S
O96 C74 1.234 . S
O97 Mn72 2.209 . S
O97 Mn73 2.215 . S
O97 C74 1.283 . S
O98 Mn72 2.094 . S
O98 C76 1.240 . S
O99 Mn73 2.117 . S
O99 C76 1.264 . S
C100 C93 1.403 1_655 S
C100 C101 1.399 . S
C100 H106 0.929 . S
C101 C81 1.449 . S
C101 C100 1.399 . S
C101 H107 0.930 . S
H102 C82 0.931 . S
H103 C83 0.930 . S
H104 C91 0.931 . S
H105 C92 0.929 . S
H106 C100 0.929 . S
H107 C101 0.930 . S
Mn108 O113 2.095 . S
Mn108 O123 2.162 . S
Mn108 O124 2.297 . S
Mn108 O132 2.385 . S
Mn108 O133 2.209 . S
Mn108 O134 2.094 . S
Mn109 O114 2.121 . S
Mn109 N116 2.257 1_655 S
Mn109 N125 2.282 . S
Mn109 O133 2.215 . S
Mn109 O135 2.117 . S
C110 O132 1.234 . S
C110 O133 1.283 . S
C111 O123 1.281 . S
C111 O124 1.236 . S
C112 O134 1.240 . S
C112 O135 1.264 . S
O113 Mn108 2.095 . S
O113 C122 1.250 . S
O114 Mn109 2.121 . S
O114 C122 1.258 . S
C115 N116 1.326 . S
C115 C119 1.460 . S
C115 H121 0.929 . S
N116 Mn109 2.257 1_455 S
N116 C115 1.326 . S
N116 C120 1.362 . S
C117 C118 1.258 . S
C117 C120 1.431 . S
C117 C137 1.449 . S
C118 C117 1.258 . S
C118 C119 1.477 . S
C118 H138 0.931 . S
C119 C115 1.460 . S
C119 C118 1.477 . S
C119 H139 0.930 . S
C120 N116 1.362 . S
C120 C117 1.431 . S
C120 C130 1.476 1_455 S
H121 C115 0.929 . S
C122 O113 1.250 . S
C122 O114 1.258 . S
O123 Mn108 2.162 . S
O123 C111 1.281 . S
O124 Mn108 2.297 . S
O124 C111 1.236 . S
N125 Mn109 2.282 . S
N125 C126 1.328 . S
N125 C130 1.318 . S
C126 N125 1.328 . S
C126 C127 1.457 . S
C126 H131 0.929 . S
C127 C126 1.457 . S
C127 C128 1.291 . S
C127 H140 0.931 . S
C128 C127 1.291 . S
C128 C129 1.373 . S
C128 H141 0.929 . S
C129 C128 1.373 . S
C129 C130 1.396 . S
C129 C136 1.403 1_655 S
C130 C120 1.476 1_655 S
C130 N125 1.318 . S
C130 C129 1.396 . S
H131 C126 0.929 . S
O132 Mn108 2.385 . S
O132 C110 1.234 . S
O133 Mn108 2.209 . S
O133 Mn109 2.215 . S
O133 C110 1.283 . S
O134 Mn108 2.094 . S
O134 C112 1.240 . S
O135 Mn109 2.117 . S
O135 C112 1.264 . S
C136 C129 1.403 1_455 S
C136 C137 1.399 . S
C136 H142 0.929 . S
C137 C117 1.449 . S
C137 C136 1.399 . S
C137 H143 0.930 . S
H138 C118 0.931 . S
H139 C119 0.930 . S
H140 C127 0.931 . S
H141 C128 0.929 . S
H142 C136 0.929 . S
H143 C137 0.930 . S
Mn144 O149 2.095 1_554 S
Mn144 O159 2.162 . S
Mn144 O160 2.297 . S
Mn144 O168 2.385 . S
Mn144 O169 2.209 . S
Mn144 O170 2.094 . S
Mn145 O150 2.121 1_554 S
Mn145 N152 2.257 . S
Mn145 N161 2.282 . S
Mn145 O169 2.215 . S
Mn145 O171 2.117 . S
C146 O168 1.234 . S
C146 O169 1.283 . S
C147 O159 1.281 . S
C147 O160 1.236 . S
C148 O170 1.240 . S
C148 O171 1.264 . S
O149 Mn144 2.095 1_556 S
O149 C158 1.250 . S
O150 Mn145 2.121 1_556 S
O150 C158 1.258 . S
C151 N152 1.326 . S
C151 C155 1.460 . S
C151 H157 0.929 1_554 S
N152 Mn145 2.257 . S
N152 C151 1.326 . S
N152 C156 1.362 . S
C153 C154 1.258 . S
C153 C156 1.431 . S
C153 C173 1.449 . S
C154 C153 1.258 . S
C154 C155 1.477 . S
C154 H174 0.931 . S
C155 C151 1.460 . S
C155 C154 1.477 . S
C155 H175 0.938 . S
C156 N152 1.362 . S
C156 C153 1.431 . S
C156 C166 1.476 . S
H157 C151 0.929 1_556 S
C158 O149 1.250 . S
C158 O150 1.258 . S
O159 Mn144 2.162 . S
O159 C147 1.281 . S
O160 Mn144 2.297 . S
O160 C147 1.236 . S
N161 Mn145 2.282 . S
N161 C162 1.328 . S
N161 C166 1.318 . S
C162 N161 1.328 . S
C162 C163 1.457 . S
C162 H167 0.929 . S
C163 C162 1.457 . S
C163 C164 1.291 . S
C163 H176 0.931 . S
C164 C163 1.291 . S
C164 C165 1.373 . S
C164 H177 0.929 . S
C165 C164 1.373 . S
C165 C166 1.396 . S
C165 C172 1.403 . S
C166 C156 1.476 . S
C166 N161 1.318 . S
C166 C165 1.396 . S
H167 C162 0.929 . S
O168 Mn144 2.385 . S
O168 C146 1.234 . S
O169 Mn144 2.209 . S
O169 Mn145 2.215 . S
O169 C146 1.283 . S
O170 Mn144 2.094 . S
O170 C148 1.240 . S
O171 Mn145 2.117 . S
O171 C148 1.264 . S
C172 C165 1.403 . S
C172 C173 1.399 . S
C172 H178 0.929 . S
C173 C153 1.449 . S
C173 C172 1.399 . S
C173 H179 0.930 . S
H174 C154 0.931 . S
H175 C155 0.938 . S
H176 C163 0.931 . S
H177 C164 0.929 . S
H178 C172 0.929 . S
H179 C173 0.930 . S
Mn180 O185 2.095 1_554 S
Mn180 O195 2.162 . S
Mn180 O196 2.297 . S
Mn180 O204 2.385 . S
Mn180 O205 2.209 . S
Mn180 O206 2.094 . S
Mn181 O186 2.121 1_554 S
Mn181 N188 2.257 . S
Mn181 N197 2.282 . S
Mn181 O205 2.215 . S
Mn181 O207 2.117 . S
C182 O204 1.234 . S
C182 O205 1.283 . S
C183 O195 1.281 . S
C183 O196 1.236 . S
C184 O206 1.240 . S
C184 O207 1.264 . S
O185 Mn180 2.095 1_556 S
O185 C194 1.250 . S
O186 Mn181 2.121 1_556 S
O186 C194 1.258 . S
C187 N188 1.326 . S
C187 C191 1.460 . S
C187 H193 0.929 1_554 S
N188 Mn181 2.257 . S
N188 C187 1.326 . S
N188 C192 1.362 . S
C189 C190 1.258 . S
C189 C192 1.431 . S
C189 C209 1.449 . S
C190 C189 1.258 . S
C190 C191 1.477 . S
C190 H210 0.931 . S
C191 C187 1.460 . S
C191 C190 1.477 . S
C191 H211 0.938 . S
C192 N188 1.362 . S
C192 C189 1.431 . S
C192 C202 1.476 . S
H193 C187 0.929 1_556 S
C194 O185 1.250 . S
C194 O186 1.258 . S
O195 Mn180 2.162 . S
O195 C183 1.281 . S
O196 Mn180 2.297 . S
O196 C183 1.236 . S
N197 Mn181 2.282 . S
N197 C198 1.328 . S
N197 C202 1.318 . S
C198 N197 1.328 . S
C198 C199 1.457 . S
C198 H203 0.929 . S
C199 C198 1.457 . S
C199 C200 1.291 . S
C199 H212 0.931 . S
C200 C199 1.291 . S
C200 C201 1.373 . S
C200 H213 0.929 . S
C201 C200 1.373 . S
C201 C202 1.396 . S
C201 C208 1.403 . S
C202 C192 1.476 . S
C202 N197 1.318 . S
C202 C201 1.396 . S
H203 C198 0.929 . S
O204 Mn180 2.385 . S
O204 C182 1.234 . S
O205 Mn180 2.209 . S
O205 Mn181 2.215 . S
O205 C182 1.283 . S
O206 Mn180 2.094 . S
O206 C184 1.240 . S
O207 Mn181 2.117 . S
O207 C184 1.264 . S
C208 C201 1.403 . S
C208 C209 1.399 . S
C208 H214 0.929 . S
C209 C189 1.449 . S
C209 C208 1.399 . S
C209 H215 0.930 . S
H210 C190 0.931 . S
H211 C191 0.938 . S
H212 C199 0.931 . S
H213 C200 0.929 . S
H214 C208 0.929 . S
H215 C209 0.930 . S
Mn216 O221 2.095 . S
Mn216 O231 2.162 . S
Mn216 O232 2.297 . S
Mn216 O240 2.385 . S
Mn216 O241 2.209 . S
Mn216 O242 2.094 . S
Mn217 O222 2.121 . S
Mn217 N224 2.257 . S
Mn217 N233 2.282 . S
Mn217 O241 2.215 . S
Mn217 O243 2.117 . S
C218 O240 1.234 . S
C218 O241 1.283 . S
C219 O231 1.281 . S
C219 O232 1.236 . S
C220 O242 1.240 . S
C220 O243 1.264 . S
O221 Mn216 2.095 . S
O221 C230 1.250 . S
O222 Mn217 2.121 . S
O222 C230 1.258 . S
C223 N224 1.326 . S
C223 C227 1.460 . S
C223 H229 0.929 . S
N224 Mn217 2.257 . S
N224 C223 1.326 . S
N224 C228 1.362 . S
C225 C226 1.258 . S
C225 C228 1.431 . S
C225 C245 1.449 . S
C226 C225 1.258 . S
C226 C227 1.477 . S
C226 H246 0.931 . S
C227 C223 1.460 . S
C227 C226 1.477 . S
C227 H247 0.930 . S
C228 N224 1.362 . S
C228 C225 1.431 . S
C228 C238 1.476 . S
H229 C223 0.929 . S
C230 O221 1.250 . S
C230 O222 1.258 . S
O231 Mn216 2.162 . S
O231 C219 1.281 . S
O232 Mn216 2.297 . S
O232 C219 1.236 . S
N233 Mn217 2.282 . S
N233 C234 1.328 . S
N233 C238 1.318 . S
C234 N233 1.328 . S
C234 C235 1.457 . S
C234 H239 0.929 . S
C235 C234 1.457 . S
C235 C236 1.291 . S
C235 H248 0.931 . S
C236 C235 1.291 . S
C236 C237 1.373 . S
C236 H249 0.929 . S
C237 C236 1.373 . S
C237 C238 1.396 . S
C237 C244 1.403 . S
C238 C228 1.476 . S
C238 N233 1.318 . S
C238 C237 1.396 . S
H239 C234 0.929 . S
O240 Mn216 2.385 . S
O240 C218 1.234 . S
O241 Mn216 2.209 . S
O241 Mn217 2.215 . S
O241 C218 1.283 . S
O242 Mn216 2.094 . S
O242 C220 1.240 . S
O243 Mn217 2.117 . S
O243 C220 1.264 . S
C244 C237 1.403 . S
C244 C245 1.399 . S
C244 H250 0.929 . S
C245 C225 1.449 . S
C245 C244 1.399 . S
C245 H251 0.930 . S
H246 C226 0.931 . S
H247 C227 0.930 . S
H248 C235 0.931 . S
H249 C236 0.929 . S
H250 C244 0.929 . S
H251 C245 0.930 . S
Mn252 O257 2.095 . S
Mn252 O267 2.162 . S
Mn252 O268 2.297 . S
Mn252 O276 2.385 . S
Mn252 O277 2.209 . S
Mn252 O278 2.094 . S
Mn253 O258 2.121 . S
Mn253 N260 2.257 . S
Mn253 N269 2.282 . S
Mn253 O277 2.215 . S
Mn253 O279 2.117 . S
C254 O276 1.234 . S
C254 O277 1.283 . S
C255 O267 1.281 . S
C255 O268 1.236 . S
C256 O278 1.240 . S
C256 O279 1.264 . S
O257 Mn252 2.095 . S
O257 C266 1.250 . S
O258 Mn253 2.121 . S
O258 C266 1.258 . S
C259 N260 1.326 . S
C259 C263 1.460 . S
C259 H265 0.929 . S
N260 Mn253 2.257 . S
N260 C259 1.326 . S
N260 C264 1.362 . S
C261 C262 1.258 . S
C261 C264 1.431 . S
C261 C281 1.449 . S
C262 C261 1.258 . S
C262 C263 1.477 . S
C262 H282 0.931 . S
C263 C259 1.460 . S
C263 C262 1.477 . S
C263 H283 0.930 . S
C264 N260 1.362 . S
C264 C261 1.431 . S
C264 C274 1.476 . S
H265 C259 0.929 . S
C266 O257 1.250 . S
C266 O258 1.258 . S
O267 Mn252 2.162 . S
O267 C255 1.281 . S
O268 Mn252 2.297 . S
O268 C255 1.236 . S
N269 Mn253 2.282 . S
N269 C270 1.328 . S
N269 C274 1.318 . S
C270 N269 1.328 . S
C270 C271 1.457 . S
C270 H275 0.929 . S
C271 C270 1.457 . S
C271 C272 1.291 . S
C271 H284 0.931 . S
C272 C271 1.291 . S
C272 C273 1.373 . S
C272 H285 0.929 . S
C273 C272 1.373 . S
C273 C274 1.396 . S
C273 C280 1.403 . S
C274 C264 1.476 . S
C274 N269 1.318 . S
C274 C273 1.396 . S
H275 C270 0.929 . S
O276 Mn252 2.385 . S
O276 C254 1.234 . S
O277 Mn252 2.209 . S
O277 Mn253 2.215 . S
O277 C254 1.283 . S
O278 Mn252 2.094 . S
O278 C256 1.240 . S
O279 Mn253 2.117 . S
O279 C256 1.264 . S
C280 C273 1.403 . S
C280 C281 1.399 . S
C280 H286 0.929 . S
C281 C261 1.449 . S
C281 C280 1.399 . S
C281 H287 0.930 . S
H282 C262 0.931 . S
H283 C263 0.930 . S
H284 C271 0.931 . S
H285 C272 0.929 . S
H286 C280 0.929 . S
H287 C281 0.930 . S
C288 C289 1.349 1_556 S
C288 C290 1.327 . S
C288 H313 0.950 . S
C289 C288 1.349 1_554 S
C289 C305 1.349 . S
C290 C288 1.327 . S
C290 C309 1.429 1_556 S
C290 H314 0.950 . S
C291 C308 1.574 1_565 S
C291 C310 1.368 1_455 S
C291 H315 0.949 . S
H292 C296 0.949 . S
C293 C294 1.349 . S
C293 C295 1.327 . S
C293 H316 0.950 . S
C294 C293 1.349 . S
C294 C306 1.349 1_554 S
C295 C293 1.327 . S
C295 C311 1.429 . S
C295 H317 0.950 . S
C296 H292 0.949 . S
C296 C304 1.574 1_545 S
C296 C312 1.368 1_656 S
H297 C305 0.950 . S
H298 C303 0.950 1_455 S
H299 C304 0.949 . S
H300 C306 0.950 . S
H301 C307 0.950 1_655 S
H302 C308 0.949 . S
C303 H298 0.950 1_655 S
C303 C305 1.327 . S
C303 C309 1.429 . S
C304 C296 1.574 1_565 S
C304 H299 0.949 . S
C304 C310 1.368 1_556 S
C305 C289 1.349 . S
C305 H297 0.950 . S
C305 C303 1.327 . S
C306 C294 1.349 1_556 S
C306 H300 0.950 . S
C306 C307 1.327 . S
C307 H301 0.950 1_455 S
C307 C306 1.327 . S
C307 C311 1.429 1_556 S
C308 C291 1.574 1_545 S
C308 H302 0.949 . S
C308 C312 1.368 . S
C309 C290 1.429 1_554 S
C309 C303 1.429 . S
C309 C310 1.523 . S
C310 C291 1.368 1_655 S
C310 C304 1.368 1_554 S
C310 C309 1.523 . S
C311 C295 1.429 . S
C311 C307 1.429 1_554 S
C311 C312 1.523 . S
C312 C296 1.368 1_454 S
C312 C308 1.368 . S
C312 C311 1.523 . S
H313 C288 0.950 . S
H314 C290 0.950 . S
H315 C291 0.949 . S
H316 C293 0.950 . S
H317 C295 0.950 . S
C318 C319 1.349 . S
C318 C320 1.327 . S
C318 H343 0.950 . S
C319 C318 1.349 . S
C319 C335 1.349 . S
C320 C318 1.327 . S
C320 C339 1.429 . S
C320 H344 0.950 1_455 S
C321 C338 1.574 1_565 S
C321 C340 1.368 . S
C321 H345 0.949 . S
H322 C326 0.949 . S
C323 C324 1.349 . S
C323 C325 1.327 . S
C323 H346 0.950 . S
C324 C323 1.349 . S
C324 C336 1.349 . S
C325 C323 1.327 . S
C325 C341 1.429 . S
C325 H347 0.950 1_655 S
C326 H322 0.949 . S
C326 C334 1.574 1_545 S
C326 C342 1.368 . S
H327 C335 0.950 . S
H328 C333 0.950 . S
H329 C334 0.949 . S
H330 C336 0.950 . S
H331 C337 0.950 . S
H332 C338 0.949 . S
C333 H328 0.950 . S
C333 C335 1.327 . S
C333 C339 1.429 . S
C334 C326 1.574 1_565 S
C334 H329 0.949 . S
C334 C340 1.368 1_655 S
C335 C319 1.349 . S
C335 H327 0.950 . S
C335 C333 1.327 . S
C336 C324 1.349 . S
C336 H330 0.950 . S
C336 C337 1.327 . S
C337 H331 0.950 . S
C337 C336 1.327 . S
C337 C341 1.429 . S
C338 C321 1.574 1_545 S
C338 H332 0.949 . S
C338 C342 1.368 1_455 S
C339 C320 1.429 . S
C339 C333 1.429 . S
C339 C340 1.523 . S
C340 C321 1.368 . S
C340 C334 1.368 1_455 S
C340 C339 1.523 . S
C341 C325 1.429 . S
C341 C337 1.429 . S
C341 C342 1.523 . S
C342 C326 1.368 . S
C342 C338 1.368 1_655 S
C342 C341 1.523 . S
H343 C318 0.950 . S
H344 C320 0.950 1_655 S
H345 C321 0.949 . S
H346 C323 0.950 . S
H347 C325 0.950 1_455 S
C348 C349 1.349 . S
C348 C350 1.327 . S
C348 H373 0.950 . S
C349 C348 1.349 . S
C349 C365 1.349 1_554 S
C350 C348 1.327 . S
C350 C369 1.429 . S
C350 H374 0.950 . S
C351 C368 1.574 . S
C351 C370 1.368 1_556 S
C351 H375 0.949 . S
H352 C356 0.949 . S
C353 C354 1.349 1_556 S
C353 C355 1.327 . S
C353 H376 0.950 . S
C354 C353 1.349 1_554 S
C354 C366 1.349 . S
C355 C353 1.327 . S
C355 C371 1.429 1_556 S
C355 H377 0.950 . S
C356 H352 0.949 . S
C356 C364 1.574 . S
C356 C372 1.368 . S
H357 C365 0.950 . S
H358 C363 0.950 . S
H359 C364 0.949 . S
H360 C366 0.950 . S
H361 C367 0.950 . S
H362 C368 0.949 . S
C363 H358 0.950 . S
C363 C365 1.327 . S
C363 C369 1.429 1_556 S
C364 C356 1.574 . S
C364 H359 0.949 . S
C364 C370 1.368 . S
C365 C349 1.349 1_556 S
C365 H357 0.950 . S
C365 C363 1.327 . S
C366 C354 1.349 . S
C366 H360 0.950 . S
C366 C367 1.327 . S
C367 H361 0.950 . S
C367 C366 1.327 . S
C367 C371 1.429 . S
C368 C351 1.574 . S
C368 H362 0.949 . S
C368 C372 1.368 1_556 S
C369 C350 1.429 . S
C369 C363 1.429 1_554 S
C369 C370 1.523 . S
C370 C351 1.368 1_554 S
C370 C364 1.368 . S
C370 C369 1.523 . S
C371 C355 1.429 1_554 S
C371 C367 1.429 . S
C371 C372 1.523 . S
C372 C356 1.368 . S
C372 C368 1.368 1_554 S
C372 C371 1.523 . S
H373 C348 0.950 . S
H374 C350 0.950 . S
H375 C351 0.949 . S
H376 C353 0.950 . S
H377 C355 0.950 . S
C378 C379 1.349 . S
C378 C380 1.327 . S
C378 H403 0.950 . S
C379 C378 1.349 . S
C379 C395 1.349 . S
C380 C378 1.327 . S
C380 C399 1.429 . S
C380 H404 0.950 . S
C381 C398 1.574 . S
C381 C400 1.368 . S
C381 H405 0.949 . S
H382 C386 0.949 . S
C383 C384 1.349 . S
C383 C385 1.327 . S
C383 H406 0.950 . S
C384 C383 1.349 . S
C384 C396 1.349 . S
C385 C383 1.327 . S
C385 C401 1.429 . S
C385 H407 0.950 . S
C386 H382 0.949 . S
C386 C394 1.574 . S
C386 C402 1.368 . S
H387 C395 0.950 . S
H388 C393 0.950 . S
H389 C394 0.949 . S
H390 C396 0.950 . S
H391 C397 0.950 . S
H392 C398 0.949 . S
C393 H388 0.950 . S
C393 C395 1.327 . S
C393 C399 1.429 . S
C394 C386 1.574 . S
C394 H389 0.949 . S
C394 C400 1.368 . S
C395 C379 1.349 . S
C395 H387 0.950 . S
C395 C393 1.327 . S
C396 C384 1.349 . S
C396 H390 0.950 . S
C396 C397 1.327 . S
C397 H391 0.950 . S
C397 C396 1.327 . S
C397 C401 1.429 . S
C398 C381 1.574 . S
C398 H392 0.949 . S
C398 C402 1.368 . S
C399 C380 1.429 . S
C399 C393 1.429 . S
C399 C400 1.523 . S
C400 C381 1.368 . S
C400 C394 1.368 . S
C400 C399 1.523 . S
C401 C385 1.429 . S
C401 C397 1.429 . S
C401 C402 1.523 . S
C402 C386 1.368 . S
C402 C398 1.368 . S
C402 C401 1.523 . S
H403 C378 0.950 . S
H404 C380 0.950 . S
H405 C381 0.949 . S
H406 C383 0.950 . S
H407 C385 0.950 . S
C408 C409 1.349 . S
C408 C410 1.327 . S
C408 H433 0.950 . S
C409 C408 1.349 . S
C409 C425 1.362 . S
C410 C408 1.327 . S
C410 C429 1.429 . S
C410 H434 0.950 . S
C411 C428 1.574 . S
C411 C430 1.368 1_655 S
C411 H435 0.949 . S
H412 C416 0.949 . S
C413 C414 1.349 . S
C413 C415 1.327 . S
C413 H436 0.950 . S
C414 C413 1.349 . S
C414 C426 1.362 . S
C415 C413 1.327 . S
C415 C431 1.429 . S
C415 H437 0.950 . S
C416 H412 0.949 . S
C416 C424 1.574 . S
C416 C432 1.368 1_455 S
H417 C425 0.941 1_655 S
H418 C423 0.950 . S
H419 C424 0.949 . S
H420 C426 0.941 1_455 S
H421 C427 0.950 . S
H422 C428 0.949 . S
C423 H418 0.950 . S
C423 C425 1.324 1_655 S
C423 C429 1.429 1_655 S
C424 C416 1.574 . S
C424 H419 0.949 . S
C424 C430 1.368 . S
C425 C409 1.362 . S
C425 H417 0.941 1_455 S
C425 C423 1.324 1_455 S
C426 C414 1.362 . S
C426 H420 0.941 1_655 S
C426 C427 1.324 1_655 S
C427 H421 0.950 . S
C427 C426 1.324 1_455 S
C427 C431 1.429 1_455 S
C428 C411 1.574 . S
C428 H422 0.949 . S
C428 C432 1.368 . S
C429 C410 1.429 . S
C429 C423 1.429 1_455 S
C429 C430 1.523 . S
C430 C411 1.368 1_455 S
C430 C424 1.368 . S
C430 C429 1.523 . S
C431 C415 1.429 . S
C431 C427 1.429 1_655 S
C431 C432 1.523 . S
C432 C416 1.368 1_655 S
C432 C428 1.368 . S
C432 C431 1.523 . S
H433 C408 0.950 . S
H434 C410 0.950 . S
H435 C411 0.949 . S
H436 C413 0.950 . S
H437 C415 0.950 . S
C438 C439 1.349 . S
C438 C440 1.327 . S
C438 H463 0.950 . S
C439 C438 1.349 . S
C439 C455 1.362 . S
C440 C438 1.327 . S
C440 C459 1.429 . S
C440 H464 0.950 . S
C441 C458 1.574 . S
C441 C460 1.368 1_655 S
C441 H465 0.949 . S
H442 C446 0.949 . S
C443 C444 1.349 . S
C443 C445 1.327 . S
C443 H466 0.950 . S
C444 C443 1.349 . S
C444 C456 1.362 . S
C445 C443 1.327 . S
C445 C461 1.429 . S
C445 H467 0.950 . S
C446 H442 0.949 . S
C446 C454 1.574 . S
C446 C462 1.368 1_455 S
H447 C455 0.941 1_655 S
H448 C453 0.950 . S
H449 C454 0.949 . S
H450 C456 0.941 1_455 S
H451 C457 0.950 . S
H452 C458 0.949 . S
C453 H448 0.950 . S
C453 C455 1.324 1_655 S
C453 C459 1.429 1_655 S
C454 C446 1.574 . S
C454 H449 0.949 . S
C454 C460 1.368 . S
C455 C439 1.362 . S
C455 H447 0.941 1_455 S
C455 C453 1.324 1_455 S
C456 C444 1.362 . S
C456 H450 0.941 1_655 S
C456 C457 1.324 1_655 S
C457 H451 0.950 . S
C457 C456 1.324 1_455 S
C457 C461 1.429 1_455 S
C458 C441 1.574 . S
C458 H452 0.949 . S
C458 C462 1.368 . S
C459 C440 1.429 . S
C459 C453 1.429 1_455 S
C459 C460 1.523 . S
C460 C441 1.368 1_455 S
C460 C454 1.368 . S
C460 C459 1.523 . S
C461 C445 1.429 . S
C461 C457 1.429 1_655 S
C461 C462 1.523 . S
C462 C446 1.368 1_655 S
C462 C458 1.368 . S
C462 C461 1.523 . S
H463 C438 0.950 . S
H464 C440 0.950 . S
H465 C441 0.949 . S
H466 C443 0.950 . S
H467 C445 0.950 . S
C468 C469 1.349 . S
C468 C470 1.327 . S
C468 H493 0.950 . S
C469 C468 1.349 . S
C469 C485 1.349 . S
C470 C468 1.327 . S
C470 C489 1.429 . S
C470 H494 0.950 . S
C471 C488 1.574 . S
C471 C490 1.368 1_655 S
C471 H495 0.949 . S
H472 C476 0.949 . S
C473 C474 1.349 . S
C473 C475 1.327 . S
C473 H496 0.950 . S
C474 C473 1.349 . S
C474 C486 1.349 . S
C475 C473 1.327 . S
C475 C491 1.429 . S
C475 H497 0.950 . S
C476 H472 0.949 . S
C476 C484 1.574 . S
C476 C492 1.368 1_455 S
H477 C485 0.950 1_655 S
H478 C483 0.950 . S
H479 C484 0.949 . S
H480 C486 0.950 1_455 S
H481 C487 0.950 . S
H482 C488 0.949 . S
C483 H478 0.950 . S
C483 C485 1.327 1_655 S
C483 C489 1.429 1_655 S
C484 C476 1.574 . S
C484 H479 0.949 . S
C484 C490 1.368 . S
C485 C469 1.349 . S
C485 H477 0.950 1_455 S
C485 C483 1.327 1_455 S
C486 C474 1.349 . S
C486 H480 0.950 1_655 S
C486 C487 1.327 1_655 S
C487 H481 0.950 . S
C487 C486 1.327 1_455 S
C487 C491 1.429 1_455 S
C488 C471 1.574 . S
C488 H482 0.949 . S
C488 C492 1.368 . S
C489 C470 1.429 . S
C489 C483 1.429 1_455 S
C489 C490 1.523 . S
C490 C471 1.368 1_455 S
C490 C484 1.368 . S
C490 C489 1.523 . S
C491 C475 1.429 . S
C491 C487 1.429 1_655 S
C491 C492 1.523 . S
C492 C476 1.368 1_655 S
C492 C488 1.368 . S
C492 C491 1.523 . S
H493 C468 0.950 . S
H494 C470 0.950 . S
H495 C471 0.949 . S
H496 C473 0.950 . S
H497 C475 0.950 . S
C498 C499 1.349 . S
C498 C500 1.327 1_455 S
C498 H523 0.950 1_455 S
C499 C498 1.349 . S
C499 C515 1.349 . S
C500 C498 1.327 1_655 S
C500 C519 1.429 1_655 S
C500 H524 0.950 . S
C501 C518 1.574 . S
C501 C520 1.368 . S
C501 H525 0.949 . S
H502 C506 0.949 . S
C503 C504 1.349 . S
C503 C505 1.327 1_655 S
C503 H526 0.950 1_655 S
C504 C503 1.349 . S
C504 C516 1.349 . S
C505 C503 1.327 1_455 S
C505 C521 1.429 1_455 S
C505 H527 0.950 . S
C506 H502 0.949 . S
C506 C514 1.574 . S
C506 C522 1.368 . S
H507 C515 0.950 . S
H508 C513 0.950 . S
H509 C514 0.949 . S
H510 C516 0.950 . S
H511 C517 0.950 . S
H512 C518 0.949 . S
C513 H508 0.950 . S
C513 C515 1.327 . S
C513 C519 1.429 . S
C514 C506 1.574 . S
C514 H509 0.949 . S
C514 C520 1.368 1_655 S
C515 C499 1.349 . S
C515 H507 0.950 . S
C515 C513 1.327 . S
C516 C504 1.349 . S
C516 H510 0.950 . S
C516 C517 1.327 . S
C517 H511 0.950 . S
C517 C516 1.327 . S
C517 C521 1.429 . S
C518 C501 1.574 . S
C518 H512 0.949 . S
C518 C522 1.368 1_455 S
C519 C500 1.429 1_455 S
C519 C513 1.429 . S
C519 C520 1.523 . S
C520 C501 1.368 . S
C520 C514 1.368 1_455 S
C520 C519 1.523 . S
C521 C505 1.429 1_655 S
C521 C517 1.429 . S
C521 C522 1.523 . S
C522 C506 1.368 . S
C522 C518 1.368 1_655 S
C522 C521 1.523 . S
H523 C498 0.950 1_655 S
H524 C500 0.950 . S
H525 C501 0.949 . S
H526 C503 0.950 1_455 S
H527 C505 0.950 . S
C528 C529 1.349 . S
C528 C530 1.327 . S
C528 H553 0.950 . S
C529 C528 1.349 . S
C529 C545 1.349 . S
C530 C528 1.327 . S
C530 C549 1.429 . S
C530 H554 0.950 . S
C531 C548 1.574 . S
C531 C550 1.368 . S
C531 H555 0.949 . S
H532 C536 0.949 . S
C533 C534 1.349 . S
C533 C535 1.327 . S
C533 H556 0.950 . S
C534 C533 1.349 . S
C534 C546 1.349 . S
C535 C533 1.327 . S
C535 C551 1.429 . S
C535 H557 0.950 . S
C536 H532 0.949 . S
C536 C544 1.574 . S
C536 C552 1.368 . S
H537 C545 0.950 . S
H538 C543 0.950 . S
H539 C544 0.949 . S
H540 C546 0.950 . S
H541 C547 0.950 . S
H542 C548 0.949 . S
C543 H538 0.950 . S
C543 C545 1.327 . S
C543 C549 1.429 . S
C544 C536 1.574 . S
C544 H539 0.949 . S
C544 C550 1.368 . S
C545 C529 1.349 . S
C545 H537 0.950 . S
C545 C543 1.327 . S
C546 C534 1.349 . S
C546 H540 0.950 . S
C546 C547 1.327 . S
C547 H541 0.950 . S
C547 C546 1.327 . S
C547 C551 1.429 . S
C548 C531 1.574 . S
C548 H542 0.949 . S
C548 C552 1.368 . S
C549 C530 1.429 . S
C549 C543 1.429 . S
C549 C550 1.523 . S
C550 C531 1.368 . S
C550 C544 1.368 . S
C550 C549 1.523 . S
C551 C535 1.429 . S
C551 C547 1.429 . S
C551 C552 1.523 . S
C552 C536 1.368 . S
C552 C548 1.368 . S
C552 C551 1.523 . S
H553 C528 0.950 . S
H554 C530 0.950 . S
H555 C531 0.949 . S
H556 C533 0.950 . S
H557 C535 0.950 . S
C558 C559 1.349 . S
C558 C560 1.327 . S
C558 H583 0.950 . S
C559 C558 1.349 . S
C559 C575 1.349 . S
C560 C558 1.327 . S
C560 C579 1.429 . S
C560 H584 0.950 . S
C561 C578 1.574 . S
C561 C580 1.368 . S
C561 H585 0.949 . S
H562 C566 0.949 . S
C563 C564 1.349 . S
C563 C565 1.327 . S
C563 H586 0.950 . S
C564 C563 1.349 . S
C564 C576 1.349 . S
C565 C563 1.327 . S
C565 C581 1.429 . S
C565 H587 0.950 . S
C566 H562 0.949 . S
C566 C574 1.574 . S
C566 C582 1.368 . S
H567 C575 0.950 . S
H568 C573 0.950 . S
H569 C574 0.949 . S
H570 C576 0.950 . S
H571 C577 0.950 . S
H572 C578 0.949 . S
C573 H568 0.950 . S
C573 C575 1.327 . S
C573 C579 1.429 . S
C574 C566 1.574 . S
C574 H569 0.949 . S
C574 C580 1.368 . S
C575 C559 1.349 . S
C575 H567 0.950 . S
C575 C573 1.327 . S
C576 C564 1.349 . S
C576 H570 0.950 . S
C576 C577 1.327 . S
C577 H571 0.950 . S
C577 C576 1.327 . S
C577 C581 1.429 . S
C578 C561 1.574 . S
C578 H572 0.949 . S
C578 C582 1.368 . S
C579 C560 1.429 . S
C579 C573 1.429 . S
C579 C580 1.523 . S
C580 C561 1.368 . S
C580 C574 1.368 . S
C580 C579 1.523 . S
C581 C565 1.429 . S
C581 C577 1.429 . S
C581 C582 1.523 . S
C582 C566 1.368 . S
C582 C578 1.368 . S
C582 C581 1.523 . S
H583 C558 0.950 . S
H584 C560 0.950 . S
H585 C561 0.949 . S
H586 C563 0.950 . S
H587 C565 0.950 . S
C588 C589 1.349 . S
C588 C590 1.327 . S
C588 H613 0.950 . S
C589 C588 1.349 . S
C589 C605 1.349 . S
C590 C588 1.327 . S
C590 C609 1.429 . S
C590 H614 0.950 . S
C591 C608 1.574 . S
C591 C610 1.368 . S
C591 H615 0.949 . S
H592 C596 0.949 . S
C593 C594 1.349 . S
C593 C595 1.327 . S
C593 H616 0.950 . S
C594 C593 1.349 . S
C594 C606 1.349 . S
C595 C593 1.327 . S
C595 C611 1.429 . S
C595 H617 0.950 . S
C596 H592 0.949 . S
C596 C604 1.574 . S
C596 C612 1.368 . S
H597 C605 0.950 . S
H598 C603 0.950 . S
H599 C604 0.949 . S
H600 C606 0.950 . S
H601 C607 0.950 . S
H602 C608 0.949 . S
C603 H598 0.950 . S
C603 C605 1.327 . S
C603 C609 1.429 . S
C604 C596 1.574 . S
C604 H599 0.949 . S
C604 C610 1.368 . S
C605 C589 1.349 . S
C605 H597 0.950 . S
C605 C603 1.327 . S
C606 C594 1.349 . S
C606 H600 0.950 . S
C606 C607 1.327 . S
C607 H601 0.950 . S
C607 C606 1.327 . S
C607 C611 1.429 . S
C608 C591 1.574 . S
C608 H602 0.949 . S
C608 C612 1.368 . S
C609 C590 1.429 . S
C609 C603 1.429 . S
C609 C610 1.523 . S
C610 C591 1.368 . S
C610 C604 1.368 . S
C610 C609 1.523 . S
C611 C595 1.429 . S
C611 C607 1.429 . S
C611 C612 1.523 . S
C612 C596 1.368 . S
C612 C608 1.368 . S
C612 C611 1.523 . S
H613 C588 0.950 . S
H614 C590 0.950 . S
H615 C591 0.949 . S
H616 C593 0.950 . S
H617 C595 0.950 . S
C618 C619 1.349 . S
C618 C620 1.327 . S
C618 H643 0.950 . S
C619 C618 1.349 . S
C619 C635 1.349 . S
C620 C618 1.327 . S
C620 C639 1.429 . S
C620 H644 0.950 . S
C621 C638 1.574 . S
C621 C640 1.368 . S
C621 H645 0.949 . S
H622 C626 0.949 . S
C623 C624 1.349 . S
C623 C625 1.327 . S
C623 H646 0.950 . S
C624 C623 1.349 . S
C624 C636 1.349 . S
C625 C623 1.327 . S
C625 C641 1.429 . S
C625 H647 0.950 . S
C626 H622 0.949 . S
C626 C634 1.574 . S
C626 C642 1.368 . S
H627 C635 0.950 . S
H628 C633 0.950 . S
H629 C634 0.949 . S
H630 C636 0.950 . S
H631 C637 0.950 . S
H632 C638 0.949 . S
C633 H628 0.950 . S
C633 C635 1.327 . S
C633 C639 1.429 . S
C634 C626 1.574 . S
C634 H629 0.949 . S
C634 C640 1.368 . S
C635 C619 1.349 . S
C635 H627 0.950 . S
C635 C633 1.327 . S
C636 C624 1.349 . S
C636 H630 0.950 . S
C636 C637 1.327 . S
C637 H631 0.950 . S
C637 C636 1.327 . S
C637 C641 1.429 . S
C638 C621 1.574 . S
C638 H632 0.949 . S
C638 C642 1.368 . S
C639 C620 1.429 . S
C639 C633 1.429 . S
C639 C640 1.523 . S
C640 C621 1.368 . S
C640 C634 1.368 . S
C640 C639 1.523 . S
C641 C625 1.429 . S
C641 C637 1.429 . S
C641 C642 1.523 . S
C642 C626 1.368 . S
C642 C638 1.368 . S
C642 C641 1.523 . S
H643 C618 0.950 . S
H644 C620 0.950 . S
H645 C621 0.949 . S
H646 C623 0.950 . S
H647 C625 0.950 . S
C648 C649 1.349 1_556 S
C648 C650 1.327 . S
C648 H673 0.950 . S
C649 C648 1.349 1_554 S
C649 C665 1.349 . S
C650 C648 1.327 . S
C650 C669 1.429 1_556 S
C650 H674 0.950 . S
C651 C668 1.574 . S
C651 C670 1.368 . S
C651 H675 0.949 . S
H652 C656 0.949 . S
C653 C654 1.349 . S
C653 C655 1.327 . S
C653 H676 0.950 . S
C654 C653 1.349 . S
C654 C666 1.349 1_554 S
C655 C653 1.327 . S
C655 C671 1.429 . S
C655 H677 0.950 . S
C656 H652 0.949 . S
C656 C664 1.574 . S
C656 C672 1.368 1_556 S
H657 C665 0.950 . S
H658 C663 0.950 . S
H659 C664 0.949 . S
H660 C666 0.950 . S
H661 C667 0.950 . S
H662 C668 0.949 . S
C663 H658 0.950 . S
C663 C665 1.327 . S
C663 C669 1.429 . S
C664 C656 1.574 . S
C664 H659 0.949 . S
C664 C670 1.368 1_556 S
C665 C649 1.349 . S
C665 H657 0.950 . S
C665 C663 1.327 . S
C666 C654 1.349 1_556 S
C666 H660 0.950 . S
C666 C667 1.327 . S
C667 H661 0.950 . S
C667 C666 1.327 . S
C667 C671 1.429 1_556 S
C668 C651 1.574 . S
C668 H662 0.949 . S
C668 C672 1.368 . S
C669 C650 1.429 1_554 S
C669 C663 1.429 . S
C669 C670 1.523 . S
C670 C651 1.368 . S
C670 C664 1.368 1_554 S
C670 C669 1.523 . S
C671 C655 1.429 . S
C671 C667 1.429 1_554 S
C671 C672 1.523 . S
C672 C656 1.368 1_554 S
C672 C668 1.368 . S
C672 C671 1.523 . S
H673 C648 0.950 . S
H674 C650 0.950 . S
H675 C651 0.949 . S
H676 C653 0.950 . S
H677 C655 0.950 . S
C678 C679 1.349 1_556 S
C678 C680 1.327 . S
C678 H703 0.950 . S
C679 C678 1.349 1_554 S
C679 C695 1.349 . S
C680 C678 1.327 . S
C680 C699 1.429 1_556 S
C680 H704 0.950 . S
C681 C698 1.574 . S
C681 C700 1.368 . S
C681 H705 0.949 . S
H682 C686 0.949 . S
C683 C684 1.349 . S
C683 C685 1.327 . S
C683 H706 0.950 . S
C684 C683 1.349 . S
C684 C696 1.349 1_554 S
C685 C683 1.327 . S
C685 C701 1.429 . S
C685 H707 0.950 . S
C686 H682 0.949 . S
C686 C694 1.574 . S
C686 C702 1.368 1_556 S
H687 C695 0.950 . S
H688 C693 0.950 . S
H689 C694 0.949 . S
H690 C696 0.950 . S
H691 C697 0.950 . S
H692 C698 0.949 . S
C693 H688 0.950 . S
C693 C695 1.327 . S
C693 C699 1.429 . S
C694 C686 1.574 . S
C694 H689 0.949 . S
C694 C700 1.368 1_556 S
C695 C679 1.349 . S
C695 H687 0.950 . S
C695 C693 1.327 . S
C696 C684 1.349 1_556 S
C696 H690 0.950 . S
C696 C697 1.327 . S
C697 H691 0.950 . S
C697 C696 1.327 . S
C697 C701 1.429 1_556 S
C698 C681 1.574 . S
C698 H692 0.949 . S
C698 C702 1.368 . S
C699 C680 1.429 1_554 S
C699 C693 1.429 . S
C699 C700 1.523 . S
C700 C681 1.368 . S
C700 C694 1.368 1_554 S
C700 C699 1.523 . S
C701 C685 1.429 . S
C701 C697 1.429 1_554 S
C701 C702 1.523 . S
C702 C686 1.368 1_554 S
C702 C698 1.368 . S
C702 C701 1.523 . S
H703 C678 0.950 . S
H704 C680 0.950 . S
H705 C681 0.949 . S
H706 C683 0.950 . S
H707 C685 0.950 . S
C708 C709 1.349 . S
C708 C710 1.327 . S
C708 H733 0.950 . S
C709 C708 1.349 . S
C709 C725 1.349 . S
C710 C708 1.327 . S
C710 C729 1.429 . S
C710 H734 0.950 . S
C711 C728 1.574 . S
C711 C730 1.368 . S
C711 H735 0.949 . S
H712 C716 0.949 . S
C713 C714 1.349 . S
C713 C715 1.327 . S
C713 H736 0.950 . S
C714 C713 1.349 . S
C714 C726 1.349 . S
C715 C713 1.327 . S
C715 C731 1.429 . S
C715 H737 0.950 . S
C716 H712 0.949 . S
C716 C724 1.574 . S
C716 C732 1.368 . S
H717 C725 0.950 . S
H718 C723 0.950 . S
H719 C724 0.949 . S
H720 C726 0.950 . S
H721 C727 0.950 . S
H722 C728 0.949 . S
C723 H718 0.950 . S
C723 C725 1.327 . S
C723 C729 1.429 . S
C724 C716 1.574 . S
C724 H719 0.949 . S
C724 C730 1.368 . S
C725 C709 1.349 . S
C725 H717 0.950 . S
C725 C723 1.327 . S
C726 C714 1.349 . S
C726 H720 0.950 . S
C726 C727 1.327 . S
C727 H721 0.950 . S
C727 C726 1.327 . S
C727 C731 1.429 . S
C728 C711 1.574 . S
C728 H722 0.949 . S
C728 C732 1.368 . S
C729 C710 1.429 . S
C729 C723 1.429 . S
C729 C730 1.523 . S
C730 C711 1.368 . S
C730 C724 1.368 . S
C730 C729 1.523 . S
C731 C715 1.429 . S
C731 C727 1.429 . S
C731 C732 1.523 . S
C732 C716 1.368 . S
C732 C728 1.368 . S
C732 C731 1.523 . S
H733 C708 0.950 . S
H734 C710 0.950 . S
H735 C711 0.949 . S
H736 C713 0.950 . S
H737 C715 0.950 . S
C738 C739 1.349 . S
C738 C740 1.327 . S
C738 H763 0.950 . S
C739 C738 1.349 . S
C739 C755 1.349 . S
C740 C738 1.327 . S
C740 C759 1.429 . S
C740 H764 0.950 . S
C741 C758 1.574 . S
C741 C760 1.368 . S
C741 H765 0.949 . S
H742 C746 0.949 . S
C743 C744 1.349 . S
C743 C745 1.327 . S
C743 H766 0.950 . S
C744 C743 1.349 . S
C744 C756 1.349 . S
C745 C743 1.327 . S
C745 C761 1.429 . S
C745 H767 0.950 . S
C746 H742 0.949 . S
C746 C754 1.574 . S
C746 C762 1.368 . S
H747 C755 0.950 . S
H748 C753 0.950 . S
H749 C754 0.949 . S
H750 C756 0.950 . S
H751 C757 0.950 . S
H752 C758 0.949 . S
C753 H748 0.950 . S
C753 C755 1.327 . S
C753 C759 1.429 . S
C754 C746 1.574 . S
C754 H749 0.949 . S
C754 C760 1.368 . S
C755 C739 1.349 . S
C755 H747 0.950 . S
C755 C753 1.327 . S
C756 C744 1.349 . S
C756 H750 0.950 . S
C756 C757 1.327 . S
C757 H751 0.950 . S
C757 C756 1.327 . S
C757 C761 1.429 . S
C758 C741 1.574 . S
C758 H752 0.949 . S
C758 C762 1.368 . S
C759 C740 1.429 . S
C759 C753 1.429 . S
C759 C760 1.523 . S
C760 C741 1.368 . S
C760 C754 1.368 . S
C760 C759 1.523 . S
C761 C745 1.429 . S
C761 C757 1.429 . S
C761 C762 1.523 . S
C762 C746 1.368 . S
C762 C758 1.368 . S
C762 C761 1.523 . S
H763 C738 0.950 . S
H764 C740 0.950 . S
H765 C741 0.949 . S
H766 C743 0.950 . S
H767 C745 0.950 . S
C289 C39 1.508 . S
C294 C3 1.508 . S
C319 C75 1.508 . S
C324 C111 1.508 . S
C349 C147 1.508 . S
C354 C183 1.508 . S
C379 C219 1.508 . S
C384 C255 1.508 . S
C409 C2 1.039 . S
C414 C110 1.039 . S
C439 C74 1.039 . S
C444 C38 1.039 . S
C469 C86 1.122 . S
C474 C50 1.122 . S
C499 C14 1.122 . S
C504 C122 1.122 . S
C529 C146 1.039 . S
C534 C254 1.039 . S
C559 C218 1.039 . S
C564 C182 1.039 . S
C589 C194 1.122 . S
C594 C230 1.122 . S
C619 C158 1.122 . S
C624 C266 1.122 . S
C649 C184 1.514 . S
C654 C4 1.514 . S
C679 C148 1.514 . S
C684 C40 1.514 . S
C709 C76 1.514 . S
C714 C256 1.514 . S
C739 C220 1.514 . S
C744 C112 1.514 . S
