# Generated by pormake.
# Topology cag, (4)-cn, num edge types: 1
# Building blocks:
#     Node 0, Type 0, BuildingBlock: TATPOV_clean_sbu_0, # of connection points: 4
#     Node 1, Type 0, BuildingBlock: TATPOV_clean_sbu_0, # of connection points: 4
#     Node 2, Type 0, BuildingBlock: TATPOV_clean_sbu_0, # of connection points: 4
#     Node 3, Type 0, BuildingBlock: TATPOV_clean_sbu_0, # of connection points: 4
#     Node 4, Type 0, BuildingBlock: TATPOV_clean_sbu_0, # of connection points: 4
#     Node 5, Type 0, BuildingBlock: TATPOV_clean_sbu_0, # of connection points: 4
#     Node 6, Type 0, BuildingBlock: TATPOV_clean_sbu_0, # of connection points: 4
#     Node 7, Type 0, BuildingBlock: TATPOV_clean_sbu_0, # of connection points: 4
#     Node 8, Type 0, BuildingBlock: TATPOV_clean_sbu_0, # of connection points: 4
#     Node 9, Type 0, BuildingBlock: TATPOV_clean_sbu_0, # of connection points: 4
#     Node 10, Type 0, BuildingBlock: TATPOV_clean_sbu_0, # of connection points: 4
#     Node 11, Type 0, BuildingBlock: TATPOV_clean_sbu_0, # of connection points: 4
#     Node 12, Type 0, BuildingBlock: TATPOV_clean_sbu_0, # of connection points: 4
#     Node 13, Type 0, BuildingBlock: TATPOV_clean_sbu_0, # of connection points: 4
#     Node 14, Type 0, BuildingBlock: TATPOV_clean_sbu_0, # of connection points: 4
#     Node 15, Type 0, BuildingBlock: TATPOV_clean_sbu_0, # of connection points: 4
#     Edge 16, Type (0, 0), BuildingBlock: XUDNAN_clean_linker_2, # of connection points: 2
#     Edge 17, Type (0, 0), BuildingBlock: XUDNAN_clean_linker_2, # of connection points: 2
#     Edge 18, Type (0, 0), BuildingBlock: XUDNAN_clean_linker_2, # of connection points: 2
#     Edge 19, Type (0, 0), BuildingBlock: XUDNAN_clean_linker_2, # of connection points: 2
#     Edge 20, Type (0, 0), BuildingBlock: XUDNAN_clean_linker_2, # of connection points: 2
#     Edge 21, Type (0, 0), BuildingBlock: XUDNAN_clean_linker_2, # of connection points: 2
#     Edge 22, Type (0, 0), BuildingBlock: XUDNAN_clean_linker_2, # of connection points: 2
#     Edge 23, Type (0, 0), BuildingBlock: XUDNAN_clean_linker_2, # of connection points: 2
#     Edge 24, Type (0, 0), BuildingBlock: XUDNAN_clean_linker_2, # of connection points: 2
#     Edge 25, Type (0, 0), BuildingBlock: XUDNAN_clean_linker_2, # of connection points: 2
#     Edge 26, Type (0, 0), BuildingBlock: XUDNAN_clean_linker_2, # of connection points: 2
#     Edge 27, Type (0, 0), BuildingBlock: XUDNAN_clean_linker_2, # of connection points: 2
#     Edge 28, Type (0, 0), BuildingBlock: XUDNAN_clean_linker_2, # of connection points: 2
#     Edge 29, Type (0, 0), BuildingBlock: XUDNAN_clean_linker_2, # of connection points: 2
#     Edge 30, Type (0, 0), BuildingBlock: XUDNAN_clean_linker_2, # of connection points: 2
#     Edge 31, Type (0, 0), BuildingBlock: XUDNAN_clean_linker_2, # of connection points: 2
#     Edge 32, Type (0, 0), BuildingBlock: XUDNAN_clean_linker_2, # of connection points: 2
#     Edge 33, Type (0, 0), BuildingBlock: XUDNAN_clean_linker_2, # of connection points: 2
#     Edge 34, Type (0, 0), BuildingBlock: XUDNAN_clean_linker_2, # of connection points: 2
#     Edge 35, Type (0, 0), BuildingBlock: XUDNAN_clean_linker_2, # of connection points: 2
#     Edge 36, Type (0, 0), BuildingBlock: XUDNAN_clean_linker_2, # of connection points: 2
#     Edge 37, Type (0, 0), BuildingBlock: XUDNAN_clean_linker_2, # of connection points: 2
#     Edge 38, Type (0, 0), BuildingBlock: XUDNAN_clean_linker_2, # of connection points: 2
#     Edge 39, Type (0, 0), BuildingBlock: XUDNAN_clean_linker_2, # of connection points: 2
#     Edge 40, Type (0, 0), BuildingBlock: XUDNAN_clean_linker_2, # of connection points: 2
#     Edge 41, Type (0, 0), BuildingBlock: XUDNAN_clean_linker_2, # of connection points: 2
#     Edge 42, Type (0, 0), BuildingBlock: XUDNAN_clean_linker_2, # of connection points: 2
#     Edge 43, Type (0, 0), BuildingBlock: XUDNAN_clean_linker_2, # of connection points: 2
#     Edge 44, Type (0, 0), BuildingBlock: XUDNAN_clean_linker_2, # of connection points: 2
#     Edge 45, Type (0, 0), BuildingBlock: XUDNAN_clean_linker_2, # of connection points: 2
#     Edge 46, Type (0, 0), BuildingBlock: XUDNAN_clean_linker_2, # of connection points: 2
#     Edge 47, Type (0, 0), BuildingBlock: XUDNAN_clean_linker_2, # of connection points: 2
# Relax obj value: 0.024
# Max RMSD: 0.072
# Mean RMSD: 0.062
data_MOF--net-cag--node1-TATPOV_clean_sbu_0--edge1-XUDNAN_clean_linker_2
_symmetry_space_group_name_H-M    P1
_symmetry_Int_Tables_number       1
_symmetry_cell_setting            triclinic
loop_
_symmetry_equiv_pos_as_xyz
'x, y, z'
_cell_length_a     43.168245
_cell_length_b     48.317189
_cell_length_c     43.193976
_cell_angle_alpha  89.994069
_cell_angle_beta   90.044137
_cell_angle_gamma 89.974581
loop_
_atom_site_label
_atom_site_type_symbol
_atom_site_fract_x
_atom_site_fract_y
_atom_site_fract_z
_atom_type_partial_charge
Zn0 Zn 0.30488 0.15502 0.01527 0.0
Zn1 Zn 0.28507 0.15213 0.07477 0.0
O2 O 0.33203 0.15861 0.07844 0.0
O3 O 0.34809 0.16372 0.03034 0.0
O4 O 0.27269 0.14707 0.11972 0.0
O5 O 0.27482 0.18623 0.00941 0.0
O6 O 0.26001 0.1856 0.05824 0.0
C7 C 0.35365 0.1634 0.05912 0.0
C8 C 0.27715 0.10295 0.02924 0.0
O9 O 0.27308 0.11476 0.0553 0.0
O10 O 0.29108 0.11558 0.00766 0.0
C11 C 0.28211 0.12478 0.1323 0.0
O12 O 0.29853 0.10735 0.11569 0.0
C13 C 0.25854 0.19611 0.03115 0.0
Zn14 Zn 0.18077 0.84824 0.52481 0.0
Zn15 Zn 0.21098 0.85835 0.57864 0.0
O16 O 0.16545 0.85425 0.59073 0.0
O17 O 0.1398 0.84625 0.54765 0.0
O18 O 0.23082 0.86197 0.62078 0.0
O19 O 0.20608 0.81384 0.51833 0.0
O20 O 0.23219 0.82341 0.56078 0.0
C21 C 0.14003 0.84966 0.57671 0.0
C22 C 0.21366 0.90107 0.52701 0.0
O23 O 0.22015 0.89442 0.55485 0.0
O24 O 0.1981 0.8849 0.50992 0.0
C25 C 0.22085 0.87865 0.64129 0.0
O26 O 0.19861 0.89608 0.63408 0.0
C27 C 0.22758 0.80807 0.53719 0.0
Zn28 Zn 0.30947 0.85809 0.9831 0.0
Zn29 Zn 0.28024 0.86327 0.92808 0.0
O30 O 0.32667 0.86035 0.91901 0.0
O31 O 0.35172 0.85732 0.96317 0.0
O32 O 0.2645 0.86206 0.88406 0.0
O33 O 0.2869 0.82256 0.9909 0.0
O34 O 0.25915 0.82957 0.94878 0.0
C35 C 0.35202 0.85841 0.93391 0.0
C36 C 0.27309 0.90899 0.9751 0.0
O37 O 0.26826 0.90059 0.94753 0.0
O38 O 0.28864 0.89446 0.99399 0.0
C39 C 0.25595 0.88174 0.86647 0.0
O40 O 0.25374 0.90695 0.87762 0.0
C41 C 0.26508 0.81545 0.97303 0.0
Zn42 Zn 0.18384 0.14497 0.46743 0.0
Zn43 Zn 0.21042 0.13989 0.41009 0.0
O44 O 0.16418 0.14555 0.40159 0.0
O45 O 0.14177 0.15033 0.44701 0.0
O46 O 0.22756 0.1362 0.36652 0.0
O47 O 0.21256 0.17742 0.47509 0.0
O48 O 0.23387 0.17289 0.42902 0.0
C49 C 0.13987 0.14925 0.41775 0.0
C50 C 0.21391 0.09221 0.45752 0.0
O51 O 0.22007 0.10272 0.43116 0.0
O52 O 0.19872 0.106 0.47732 0.0
C53 C 0.22656 0.11287 0.35291 0.0
O54 O 0.21522 0.09142 0.36775 0.0
C55 C 0.23218 0.1852 0.45508 0.0
Zn56 Zn 0.61595 0.92671 0.85598 0.0
Zn57 Zn 0.63146 0.8858 0.8961 0.0
O58 O 0.58526 0.87929 0.88861 0.0
O59 O 0.57247 0.91101 0.85421 0.0
O60 O 0.64307 0.85571 0.92627 0.0
O61 O 0.64864 0.91327 0.82683 0.0
O62 O 0.66027 0.879 0.85847 0.0
C63 C 0.56514 0.89067 0.87119 0.0
C64 C 0.63782 0.94684 0.91469 0.0
O65 O 0.64008 0.92116 0.92092 0.0
O66 O 0.62816 0.95475 0.88845 0.0
C67 C 0.67146 0.85119 0.93215 0.0
O68 O 0.69266 0.8661 0.91809 0.0
C69 C 0.66461 0.89205 0.83317 0.0
Zn70 Zn 0.87639 0.0734 0.34888 0.0
Zn71 Zn 0.85981 0.11115 0.39223 0.0
O72 O 0.90522 0.12128 0.38432 0.0
O73 O 0.9181 0.09294 0.34645 0.0
O74 O 0.84475 0.13937 0.42303 0.0
O75 O 0.84067 0.08502 0.32189 0.0
O76 O 0.82953 0.11754 0.35588 0.0
C77 C 0.92505 0.1124 0.36487 0.0
C78 C 0.85909 0.04911 0.40734 0.0
O79 O 0.85461 0.07423 0.41509 0.0
O80 O 0.86873 0.04322 0.38044 0.0
C81 C 0.85717 0.14512 0.44894 0.0
O82 O 0.8826 0.13221 0.45739 0.0
C83 C 0.82414 0.1053 0.33031 0.0
Zn84 Zn 0.60781 0.09279 0.14413 0.0
Zn85 Zn 0.63595 0.13611 0.11337 0.0
O86 O 0.59107 0.14859 0.11381 0.0
O87 O 0.56757 0.11512 0.1393 0.0
O88 O 0.65938 0.16385 0.0878 0.0
O89 O 0.63839 0.10023 0.17928 0.0
O90 O 0.65781 0.1366 0.15527 0.0
C91 C 0.56646 0.13802 0.1249 0.0
C92 C 0.63603 0.07626 0.08736 0.0
O93 O 0.64295 0.10183 0.08721 0.0
O94 O 0.62042 0.06627 0.10953 0.0
C95 C 0.64791 0.18026 0.06783 0.0
O96 O 0.61773 0.18172 0.06433 0.0
C97 C 0.65689 0.12061 0.17865 0.0
Zn98 Zn 0.87492 0.91263 0.64526 0.0
Zn99 Zn 0.86015 0.86488 0.61538 0.0
O100 O 0.90644 0.86004 0.62358 0.0
O101 O 0.91814 0.89685 0.65143 0.0
O102 O 0.84778 0.83065 0.59183 0.0
O103 O 0.84096 0.90445 0.67588 0.0
O104 O 0.83202 0.86405 0.65391 0.0
C105 C 0.92608 0.87429 0.63875 0.0
C106 C 0.85476 0.92161 0.58291 0.0
O107 O 0.8513 0.89546 0.58385 0.0
O108 O 0.86503 0.93443 0.60635 0.0
C109 C 0.85691 0.82677 0.56417 0.0
O110 O 0.87571 0.84487 0.55144 0.0
C111 C 0.82647 0.88168 0.67513 0.0
Zn112 Zn 0.81204 0.65318 0.02839 0.0
Zn113 Zn 0.77968 0.64376 0.08041 0.0
O114 O 0.82537 0.64465 0.09407 0.0
O115 O 0.85248 0.6515 0.05167 0.0
O116 O 0.75796 0.63994 0.12173 0.0
O117 O 0.79077 0.68953 0.02223 0.0
O118 O 0.76097 0.67995 0.06218 0.0
C119 C 0.8514 0.64753 0.08061 0.0
C120 C 0.77547 0.60255 0.0274 0.0
O121 O 0.76903 0.60874 0.05537 0.0
O122 O 0.79228 0.61839 0.01115 0.0
C123 C 0.7684 0.62376 0.14253 0.0
O124 O 0.79217 0.6078 0.13602 0.0
C125 C 0.7683 0.69577 0.03967 0.0
Zn126 Zn 0.68458 0.33199 0.52568 0.0
Zn127 Zn 0.71362 0.34512 0.5791 0.0
O128 O 0.66773 0.34046 0.59053 0.0
O129 O 0.6432 0.32996 0.54747 0.0
O130 O 0.7318 0.35434 0.6212 0.0
O131 O 0.71175 0.29847 0.52216 0.0
O132 O 0.73716 0.30994 0.56449 0.0
C133 C 0.64267 0.33483 0.57627 0.0
C134 C 0.71465 0.38536 0.52398 0.0
O135 O 0.72149 0.37966 0.552 0.0
O136 O 0.69957 0.36824 0.50767 0.0
C137 C 0.72764 0.37849 0.63218 0.0
O138 O 0.71326 0.39705 0.61519 0.0
C139 C 0.73328 0.29381 0.54139 0.0
Zn140 Zn 0.80872 0.36112 0.97188 0.0
Zn141 Zn 0.78722 0.36399 0.91292 0.0
O142 O 0.83438 0.35954 0.90781 0.0
O143 O 0.85189 0.35541 0.95558 0.0
O144 O 0.77319 0.36718 0.86817 0.0
O145 O 0.78267 0.32752 0.97831 0.0
O146 O 0.76521 0.32902 0.93022 0.0
C147 C 0.85668 0.35585 0.92669 0.0
C148 C 0.77764 0.41221 0.95926 0.0
O149 O 0.77407 0.40112 0.9327 0.0
O150 O 0.79186 0.39928 0.98044 0.0
C151 C 0.77822 0.3899 0.85415 0.0
O152 O 0.79131 0.41032 0.86939 0.0
C153 C 0.7662 0.31756 0.95682 0.0
Zn154 Zn 0.68973 0.63346 0.49057 0.0
Zn155 Zn 0.70609 0.6334 0.42989 0.0
O156 O 0.65958 0.64214 0.43053 0.0
O157 O 0.64585 0.64463 0.47951 0.0
O158 O 0.71398 0.63556 0.38375 0.0
O159 O 0.72158 0.66296 0.49829 0.0
O160 O 0.73464 0.66336 0.449 0.0
C161 C 0.639 0.64638 0.45108 0.0
C162 C 0.71304 0.58057 0.46854 0.0
O163 O 0.71606 0.59336 0.44288 0.0
O164 O 0.70228 0.59303 0.49202 0.0
C165 C 0.73116 0.62009 0.36723 0.0
O166 O 0.7474 0.60038 0.38049 0.0
C167 C 0.73797 0.67258 0.4765 0.0
Zn168 Zn 0.11428 0.42348 0.84387 0.0
Zn169 Zn 0.13858 0.38435 0.88307 0.0
O170 O 0.09354 0.3732 0.87908 0.0
O171 O 0.07241 0.40386 0.84783 0.0
O172 O 0.1559 0.35546 0.91169 0.0
O173 O 0.14616 0.41168 0.812 0.0
O174 O 0.1645 0.37984 0.8437 0.0
C175 C 0.06998 0.38255 0.86479 0.0
C176 C 0.13909 0.44573 0.90095 0.0
O177 O 0.14476 0.42043 0.90692 0.0
O178 O 0.12661 0.45257 0.87551 0.0
C179 C 0.14739 0.35338 0.93978 0.0
O180 O 0.12676 0.37081 0.95074 0.0
C181 C 0.16504 0.39225 0.8177 0.0
Zn182 Zn 0.38693 0.59023 0.34986 0.0
Zn183 Zn 0.35756 0.62436 0.39075 0.0
O184 O 0.40229 0.63772 0.39159 0.0
O185 O 0.42702 0.61141 0.35818 0.0
O186 O 0.33631 0.65059 0.42 0.0
O187 O 0.35616 0.60162 0.3169 0.0
O188 O 0.3332 0.62942 0.35023 0.0
C189 C 0.42725 0.63078 0.37799 0.0
C190 C 0.36067 0.56216 0.40308 0.0
O191 O 0.3526 0.58646 0.41118 0.0
O192 O 0.37514 0.55825 0.37794 0.0
C193 C 0.34689 0.65532 0.44696 0.0
O194 O 0.37198 0.64231 0.45622 0.0
C195 C 0.335 0.61886 0.32327 0.0
Zn196 Zn 0.11926 0.57431 0.14447 0.0
Zn197 Zn 0.12961 0.62305 0.11362 0.0
O198 O 0.08369 0.62534 0.12296 0.0
O199 O 0.07462 0.58795 0.15077 0.0
O200 O 0.13861 0.65701 0.08844 0.0
O201 O 0.15388 0.58576 0.17393 0.0
O202 O 0.15824 0.62643 0.15117 0.0
C203 C 0.06511 0.61014 0.13824 0.0
C204 C 0.13916 0.56658 0.08165 0.0
O205 O 0.14027 0.59286 0.08271 0.0
O206 O 0.13029 0.55299 0.10513 0.0
C207 C 0.16678 0.66134 0.08151 0.0
O208 O 0.18809 0.6444 0.09216 0.0
C209 C 0.16615 0.60956 0.17237 0.0
Zn210 Zn 0.37881 0.41597 0.63312 0.0
Zn211 Zn 0.36286 0.36928 0.60147 0.0
O212 O 0.40863 0.36215 0.61054 0.0
O213 O 0.42121 0.39812 0.63937 0.0
O214 O 0.34851 0.3363 0.5769 0.0
O215 O 0.3438 0.4084 0.66293 0.0
O216 O 0.3341 0.36885 0.63939 0.0
C217 C 0.42849 0.37544 0.62651 0.0
C218 C 0.36002 0.42688 0.57069 0.0
O219 O 0.35599 0.40079 0.5707 0.0
O220 O 0.37014 0.43893 0.5947 0.0
C221 C 0.358 0.33218 0.54942 0.0
O222 O 0.37884 0.34893 0.53761 0.0
C223 C 0.32857 0.38608 0.66101 0.0
H224 H 0.25171 0.22213 0.97568 0.0
H225 H 0.21983 0.22468 0.07096 0.0
H226 H 0.18719 0.26542 0.05826 0.0
H227 H 0.25706 0.29478 0.96436 0.0
H228 H 0.24416 0.29324 0.9247 0.0
H229 H 0.2642 0.26422 0.9415 0.0
H230 H 0.2183 0.23207 0.92711 0.0
H231 H 0.19813 0.26098 0.91019 0.0
H232 H 0.17979 0.24072 0.94003 0.0
H233 H 0.15829 0.30658 0.03422 0.0
H234 H 0.13612 0.34379 0.00156 0.0
H235 H 0.18825 0.31299 0.92286 0.0
C236 C 0.23787 0.23109 0.99402 0.0
C237 C 0.23834 0.22016 0.02436 0.0
C238 C 0.21982 0.23268 0.04754 0.0
C239 C 0.20124 0.25581 0.04053 0.0
C240 C 0.20151 0.26605 0.01029 0.0
C241 C 0.21939 0.25398 0.98749 0.0
C242 C 0.21606 0.26877 0.95685 0.0
C243 C 0.24722 0.28098 0.94625 0.0
C244 C 0.20224 0.24949 0.9321 0.0
C245 C 0.19352 0.29123 0.96585 0.0
C246 C 0.18526 0.28941 0.99671 0.0
C247 C 0.16462 0.30814 0.01005 0.0
C248 C 0.15216 0.32919 0.99132 0.0
C249 C 0.16046 0.33132 0.95965 0.0
C250 C 0.18143 0.31201 0.94696 0.0
H251 H 0.29457 0.68535 0.43455 0.0
H252 H 0.36534 0.67275 0.50462 0.0
H253 H 0.34133 0.70922 0.53683 0.0
H254 H 0.29082 0.75811 0.44075 0.0
H255 H 0.24954 0.75996 0.43483 0.0
H256 H 0.27136 0.73188 0.41831 0.0
H257 H 0.23579 0.69651 0.44608 0.0
H258 H 0.2138 0.72451 0.46266 0.0
H259 H 0.23083 0.69862 0.48745 0.0
H260 H 0.31066 0.749 0.56018 0.0
H261 H 0.27579 0.78813 0.57263 0.0
H262 H 0.22549 0.77365 0.48705 0.0
C263 C 0.30493 0.69004 0.45678 0.0
C264 C 0.33183 0.67617 0.46706 0.0
C265 C 0.34468 0.68306 0.49627 0.0
C266 C 0.3312 0.70373 0.51474 0.0
C267 C 0.30484 0.71719 0.50373 0.0
C268 C 0.2918 0.7105 0.47546 0.0
C269 C 0.26401 0.72848 0.4684 0.0
C270 C 0.26927 0.74562 0.43883 0.0
C271 C 0.23435 0.71098 0.46602 0.0
C272 C 0.26365 0.74662 0.49691 0.0
C273 C 0.28726 0.7398 0.51712 0.0
C274 C 0.29195 0.75438 0.54461 0.0
C275 C 0.27205 0.77658 0.55147 0.0
C276 C 0.24783 0.78395 0.53089 0.0
C277 C 0.24362 0.76852 0.50342 0.0
H278 H 0.28169 0.77229 0.00985 0.0
H279 H 0.20472 0.80502 0.95658 0.0
H280 H 0.17091 0.76787 0.97716 0.0
H281 H 0.2613 0.69883 1.00046 0.0
H282 H 0.27416 0.69034 0.03902 0.0
H283 H 0.29232 0.71821 0.01811 0.0
H284 H 0.28015 0.75157 0.06352 0.0
H285 H 0.26164 0.72394 0.08439 0.0
H286 H 0.24069 0.75543 0.07646 0.0
H287 H 0.14454 0.72996 0.00835 0.0
H288 H 0.12906 0.69171 0.0432 0.0
H289 H 0.22436 0.68339 0.07386 0.0
C290 C 0.25783 0.77143 0.00213 0.0
C291 C 0.24572 0.79152 0.98173 0.0
C292 C 0.21445 0.78967 0.97207 0.0
C293 C 0.19509 0.76875 0.98373 0.0
C294 C 0.20762 0.74968 0.00454 0.0
C295 C 0.23843 0.75057 0.01316 0.0
C296 C 0.24625 0.72812 0.03625 0.0
C297 C 0.2699 0.70766 0.02263 0.0
C298 C 0.25785 0.74052 0.06696 0.0
C299 C 0.21482 0.71483 0.03999 0.0
C300 C 0.19277 0.72752 0.02159 0.0
C301 C 0.16172 0.71962 0.02248 0.0
C302 C 0.15312 0.69802 0.04247 0.0
C303 C 0.17557 0.68452 0.06107 0.0
C304 C 0.20675 0.6931 0.05966 0.0
H305 H 0.31056 0.29731 0.56524 0.0
H306 H 0.37332 0.31735 0.49002 0.0
H307 H 0.34796 0.28204 0.45726 0.0
H308 H 0.30724 0.22371 0.55143 0.0
H309 H 0.26676 0.22128 0.56128 0.0
H310 H 0.29053 0.24761 0.57878 0.0
H311 H 0.25245 0.28532 0.55934 0.0
H312 H 0.22868 0.25913 0.5416 0.0
H313 H 0.24339 0.28737 0.51865 0.0
H314 H 0.3148 0.24474 0.43245 0.0
H315 H 0.2774 0.20809 0.41819 0.0
H316 H 0.23646 0.2135 0.5098 0.0
C317 C 0.31918 0.29418 0.54197 0.0
C318 C 0.344 0.31007 0.53024 0.0
C319 C 0.35438 0.30539 0.49955 0.0
C320 C 0.3401 0.28541 0.48075 0.0
C321 C 0.31546 0.27032 0.49296 0.0
C322 C 0.30517 0.27445 0.5229 0.0
C323 C 0.27804 0.25584 0.53046 0.0
C324 C 0.28614 0.23593 0.55706 0.0
C325 C 0.24892 0.27294 0.53794 0.0
C326 C 0.27461 0.24059 0.50008 0.0
C327 C 0.29637 0.24917 0.4787 0.0
C328 C 0.29766 0.23786 0.44902 0.0
C329 C 0.2763 0.21709 0.44112 0.0
C330 C 0.25393 0.20791 0.46282 0.0
C331 C 0.25315 0.22004 0.49258 0.0
H332 H 0.78551 0.73915 0.00331 0.0
H333 H 0.70879 0.70801 0.05798 0.0
H334 H 0.67593 0.74647 0.03892 0.0
H335 H 0.76791 0.81339 0.01325 0.0
H336 H 0.77988 0.82141 0.9743 0.0
H337 H 0.79776 0.79314 0.99486 0.0
H338 H 0.78324 0.75993 0.95001 0.0
H339 H 0.76505 0.78795 0.92949 0.0
H340 H 0.74331 0.75707 0.93816 0.0
H341 H 0.65005 0.78535 0.00872 0.0
H342 H 0.63451 0.82315 0.9733 0.0
H343 H 0.7291 0.82893 0.93999 0.0
C344 C 0.76196 0.74065 0.01176 0.0
C345 C 0.74967 0.72058 0.0321 0.0
C346 C 0.71873 0.72328 0.04257 0.0
C347 C 0.69989 0.745 0.03178 0.0
C348 C 0.71255 0.76398 0.01097 0.0
C349 C 0.74305 0.76221 0.00149 0.0
C350 C 0.7509 0.78438 0.97806 0.0
C351 C 0.77557 0.80426 0.99089 0.0
C352 C 0.76122 0.77156 0.94711 0.0
C353 C 0.71981 0.79851 0.97508 0.0
C354 C 0.69795 0.78655 0.99425 0.0
C355 C 0.66711 0.79513 0.99401 0.0
C356 C 0.65848 0.81652 0.97371 0.0
C357 C 0.68065 0.8291 0.95403 0.0
C358 C 0.7117 0.82001 0.95502 0.0
H359 H 0.80278 0.17256 0.43914 0.0
H360 H 0.87881 0.16555 0.50449 0.0
H361 H 0.85444 0.20156 0.53729 0.0
H362 H 0.794 0.24518 0.44374 0.0
H363 H 0.75239 0.24419 0.44037 0.0
H364 H 0.77546 0.21727 0.42316 0.0
H365 H 0.74461 0.18032 0.4539 0.0
H366 H 0.72148 0.20717 0.47128 0.0
H367 H 0.74212 0.18297 0.49545 0.0
H368 H 0.82182 0.24027 0.56184 0.0
H369 H 0.78464 0.27757 0.57518 0.0
H370 H 0.73071 0.25733 0.49338 0.0
C371 C 0.81435 0.17843 0.4604 0.0
C372 C 0.84274 0.16623 0.46922 0.0
C373 C 0.85702 0.1746 0.49726 0.0
C374 C 0.84333 0.195 0.51606 0.0
C375 C 0.81533 0.20667 0.50653 0.0
C376 C 0.80104 0.19855 0.47935 0.0
C377 C 0.77149 0.21449 0.47368 0.0
C378 C 0.77348 0.23128 0.44345 0.0
C379 C 0.74326 0.19508 0.47359 0.0
C380 C 0.77142 0.23315 0.50173 0.0
C381 C 0.79675 0.22841 0.52056 0.0
C382 C 0.8018 0.24399 0.54733 0.0
C383 C 0.78056 0.2651 0.55475 0.0
C384 C 0.75468 0.27038 0.53542 0.0
C385 C 0.7501 0.25385 0.50883 0.0
H386 H 0.70436 0.30788 0.9655 0.0
H387 H 0.79463 0.26881 0.96481 0.0
H388 H 0.77232 0.22674 0.98824 0.0
H389 H 0.68297 0.28623 0.03684 0.0
H390 H 0.64262 0.27967 0.02896 0.0
H391 H 0.66351 0.30444 0.00599 0.0
H392 H 0.64897 0.27807 0.95586 0.0
H393 H 0.62741 0.25343 0.97863 0.0
H394 H 0.65741 0.24163 0.9528 0.0
H395 H 0.74343 0.19345 0.0201 0.0
H396 H 0.70795 0.16804 0.05445 0.0
H397 H 0.63513 0.22743 0.03444 0.0
C398 C 0.7189 0.28986 0.96891 0.0
C399 C 0.75094 0.29102 0.96272 0.0
C400 C 0.76987 0.2678 0.96878 0.0
C401 C 0.75742 0.24393 0.98216 0.0
C402 C 0.72597 0.24368 0.98924 0.0
C403 C 0.70674 0.26577 0.98236 0.0
C404 C 0.6745 0.26113 0.99536 0.0
C405 C 0.66539 0.28424 0.01814 0.0
C406 C 0.65066 0.25839 0.96909 0.0
C407 C 0.67916 0.23375 0.0119 0.0
C408 C 0.70897 0.224 0.00777 0.0
C409 C 0.71979 0.20047 0.02292 0.0
C410 C 0.69954 0.18634 0.04263 0.0
C411 C 0.66876 0.19571 0.04698 0.0
C412 C 0.65841 0.2196 0.03117 0.0
H413 H 0.81725 0.78612 0.58357 0.0
H414 H 0.86859 0.81445 0.50322 0.0
H415 H 0.84551 0.77684 0.47201 0.0
H416 H 0.82289 0.71235 0.56711 0.0
H417 H 0.7843 0.70543 0.58102 0.0
H418 H 0.80635 0.7336 0.59716 0.0
H419 H 0.76185 0.76759 0.58363 0.0
H420 H 0.73975 0.73957 0.56736 0.0
H421 H 0.74816 0.76971 0.54426 0.0
H422 H 0.81417 0.73724 0.4489 0.0
H423 H 0.77817 0.69887 0.4365 0.0
H424 H 0.74828 0.69719 0.53246 0.0
C425 C 0.82396 0.78429 0.5595 0.0
C426 C 0.84477 0.80323 0.54587 0.0
C427 C 0.85275 0.80014 0.51422 0.0
C428 C 0.83975 0.77884 0.49629 0.0
C429 C 0.81896 0.76075 0.51039 0.0
C430 C 0.81128 0.76321 0.54134 0.0
C431 C 0.78769 0.74173 0.55085 0.0
C432 C 0.80112 0.72211 0.57549 0.0
C433 C 0.75759 0.75548 0.56218 0.0
C434 C 0.78292 0.72702 0.52034 0.0
C435 C 0.80119 0.73813 0.49723 0.0
C436 C 0.79993 0.72825 0.46689 0.0
C437 C 0.7794 0.70649 0.46005 0.0
C438 C 0.76042 0.69494 0.48347 0.0
C439 C 0.76251 0.70539 0.51397 0.0
H440 H 0.28053 0.07197 0.97606 0.0
H441 H 0.25178 0.06806 0.07229 0.0
H442 H 0.23999 0.01845 0.06611 0.0
H443 H 0.22312 0.02036 0.94595 0.0
H444 H 0.25074 0.00628 0.91892 0.0
H445 H 0.25255 0.04235 0.92949 0.0
H446 H 0.30977 0.03617 0.94633 0.0
H447 H 0.30814 0.00021 0.93583 0.0
H448 H 0.31942 0.01 0.9745 0.0
H449 H 0.23933 0.96861 0.05222 0.0
H450 H 0.24878 0.92189 0.03107 0.0
H451 H 0.27553 0.95776 0.94312 0.0
C452 C 0.27108 0.06085 0.99566 0.0
C453 C 0.26704 0.07395 0.02466 0.0
C454 C 0.25495 0.05855 0.04981 0.0
C455 C 0.24807 0.03036 0.0465 0.0
C456 C 0.25298 0.01795 0.01779 0.0
C457 C 0.26391 0.03273 0.9927 0.0
C458 C 0.26963 0.01397 0.96515 0.0
C459 C 0.24769 0.02118 0.93829 0.0
C460 C 0.30376 0.01516 0.95487 0.0
C461 C 0.26161 0.98614 0.97913 0.0
C462 C 0.2517 0.98898 0.00943 0.0
C463 C 0.24625 0.96613 0.0283 0.0
C464 C 0.25172 0.93972 0.01615 0.0
C465 C 0.26228 0.93638 0.98537 0.0
C466 C 0.26648 0.95982 0.96639 0.0
H467 H 0.21001 0.95204 0.55443 0.0
H468 H 0.2372 0.91039 0.46986 0.0
H469 H 0.24701 0.95558 0.44499 0.0
H470 H 0.16691 0.00271 0.51803 0.0
H471 H 0.17646 0.03044 0.54426 0.0
H472 H 0.17743 0.99518 0.55756 0.0
H473 H 0.23448 0.00132 0.57494 0.0
H474 H 0.23363 0.03674 0.56183 0.0
H475 H 0.26287 0.01339 0.54749 0.0
H476 H 0.24856 0.00467 0.42754 0.0
H477 H 0.23912 0.05423 0.41772 0.0
H478 H 0.208 0.06432 0.51265 0.0
C479 C 0.21907 0.95256 0.53106 0.0
C480 C 0.22346 0.92789 0.51415 0.0
C481 C 0.23408 0.92918 0.4832 0.0
C482 C 0.23981 0.9547 0.46896 0.0
C483 C 0.23446 0.97876 0.48589 0.0
C484 C 0.22426 0.97797 0.51625 0.0
C485 C 0.21658 0.00676 0.52789 0.0
C486 C 0.18232 0.00888 0.53748 0.0
C487 C 0.23819 0.01504 0.55462 0.0
C488 C 0.22317 0.02368 0.49908 0.0
C489 C 0.23409 0.0072 0.47535 0.0
C490 C 0.24036 0.01787 0.44604 0.0
C491 C 0.23488 0.04606 0.44068 0.0
C492 C 0.22279 0.06321 0.46438 0.0
C493 C 0.21738 0.05183 0.49408 0.0
H494 H 0.62785 0.94412 0.97714 0.0
H495 H 0.66431 0.99699 0.90469 0.0
H496 H 0.67371 0.03394 0.94305 0.0
H497 H 0.58563 0.99604 0.01368 0.0
H498 H 0.59183 0.98381 0.05263 0.0
H499 H 0.59275 0.95982 0.02081 0.0
H500 H 0.64771 0.94389 0.03713 0.0
H501 H 0.64693 0.96783 0.06913 0.0
H502 H 0.6781 0.96919 0.04143 0.0
H503 H 0.67528 0.0661 0.9876 0.0
H504 H 0.66566 0.09309 0.03486 0.0
H505 H 0.62525 0.02055 0.07848 0.0
C506 C 0.63859 0.96323 0.96963 0.0
C507 C 0.6458 0.96772 0.93815 0.0
C508 C 0.65883 0.99323 0.9288 0.0
C509 C 0.6644 0.01422 0.95042 0.0
C510 C 0.65649 0.00943 0.98121 0.0
C511 C 0.64369 0.98466 0.99085 0.0
C512 C 0.63403 0.98606 0.02455 0.0
C513 C 0.59898 0.98115 0.02811 0.0
C514 C 0.65282 0.96552 0.04422 0.0
C515 C 0.64267 0.01571 0.03206 0.0
C516 C 0.65618 0.02856 0.00688 0.0
C517 C 0.66498 0.05624 0.00759 0.0
C518 C 0.65934 0.0714 0.03459 0.0
C519 C 0.64464 0.05897 0.06043 0.0
C520 C 0.63668 0.03061 0.05922 0.0
H521 H 0.85843 0.0524 0.4707 0.0
H522 H 0.84745 0.99486 0.39433 0.0
H523 H 0.84011 0.95659 0.43144 0.0
H524 H 0.90342 0.008 0.51687 0.0
H525 H 0.88706 0.01907 0.5532 0.0
H526 H 0.88786 0.04246 0.5208 0.0
H527 H 0.82845 0.04916 0.52513 0.0
H528 H 0.82746 0.02573 0.55759 0.0
H529 H 0.8034 0.01933 0.52423 0.0
H530 H 0.83677 0.92428 0.47642 0.0
H531 H 0.84103 0.89955 0.52617 0.0
H532 H 0.85613 0.9778 0.57336 0.0
C533 C 0.85392 0.03183 0.46183 0.0
C534 C 0.85327 0.02659 0.42968 0.0
C535 C 0.84802 -0.0007 0.4189 0.0
C536 C 0.84365 0.97747 0.43978 0.0
C537 C 0.84478 0.98325 0.47134 0.0
C538 C 0.84995 0.00971 0.48236 0.0
C539 C 0.85263 0.00992 0.51732 0.0
C540 C 0.88465 0.02048 0.52764 0.0
C541 C 0.82642 0.02705 0.53192 0.0
C542 C 0.84875 0.97938 0.52414 0.0
C543 C 0.84374 0.96443 0.49734 0.0
C544 C 0.84047 0.93576 0.49762 0.0
C545 C 0.8429 0.92191 0.52602 0.0
C546 C 0.84892 0.93672 0.55369 0.0
C547 C 0.85141 0.96588 0.55266 0.0
H548 H 0.77642 0.43985 0.0146 0.0
H549 H 0.7565 0.44993 0.91671 0.0
H550 H 0.74617 0.49958 0.92538 0.0
H551 H 0.71867 0.49201 0.04322 0.0
H552 H 0.74442 0.50333 0.07356 0.0
H553 H 0.74542 0.46788 0.06054 0.0
H554 H 0.80416 0.47249 0.04938 0.0
H555 H 0.80333 0.50786 0.0622 0.0
H556 H 0.81755 0.49963 0.02406 0.0
H557 H 0.74706 0.5488 0.94279 0.0
H558 H 0.75659 0.5938 0.96823 0.0
H559 H 0.77325 0.55186 0.05535 0.0
C560 C 0.76912 0.45233 0.99509 0.0
C561 C 0.76726 0.44098 0.96496 0.0
C562 C 0.75791 0.45809 0.94002 0.0
C563 C 0.75195 0.48633 0.94473 0.0
C564 C 0.7549 0.497 0.97459 0.0
C565 C 0.76284 0.48045 0.99944 0.0
C566 C 0.76697 0.49738 0.02869 0.0
C567 C 0.7424 0.48969 0.05293 0.0
C568 C 0.79996 0.49415 0.04183 0.0
C569 C 0.76158 0.52624 0.01612 0.0
C570 C 0.75435 0.52552 0.9849 0.0
C571 C 0.75184 0.54962 0.96737 0.0
C572 C 0.75738 0.57504 0.98196 0.0
C573 C 0.76506 0.57618 0.0138 0.0
C574 C 0.76642 0.55153 0.03122 0.0
H575 H 0.71949 0.43499 0.55416 0.0
H576 H 0.72576 0.3972 0.46333 0.0
H577 H 0.7324 0.44336 0.43968 0.0
H578 H 0.67286 0.48942 0.53116 0.0
H579 H 0.68974 0.51497 0.55647 0.0
H580 H 0.69101 0.47897 0.56691 0.0
H581 H 0.75076 0.48146 0.57192 0.0
H582 H 0.74968 0.51761 0.56164 0.0
H583 H 0.77346 0.49396 0.53982 0.0
H584 H 0.73325 0.49367 0.42536 0.0
H585 H 0.72587 0.54428 0.42132 0.0
H586 H 0.71662 0.54922 0.52126 0.0
C587 C 0.72324 0.43643 0.52942 0.0
C588 C 0.72253 0.41258 0.51058 0.0
C589 C 0.72644 0.41527 0.47817 0.0
C590 C 0.73034 0.44137 0.46454 0.0
C591 C 0.73009 0.4646 0.48364 0.0
C592 C 0.72662 0.46239 0.51539 0.0
C593 C 0.72368 0.49065 0.53028 0.0
C594 C 0.69247 0.49366 0.54718 0.0
C595 C 0.75103 0.49624 0.55221 0.0
C596 C 0.72517 0.50899 0.50188 0.0
C597 C 0.72948 0.49363 0.47527 0.0
C598 C 0.7302 0.50596 0.44607 0.0
C599 C 0.72597 0.53472 0.444 0.0
C600 C 0.72062 0.55073 0.47094 0.0
C601 C 0.72073 0.53761 0.50022 0.0
H602 H 0.139 0.51055 0.06993 0.0
H603 H 0.15469 0.59041 0.02644 0.0
H604 H 0.16115 0.56744 0.97602 0.0
H605 H 0.19411 0.47105 0.02062 0.0
H606 H 0.16931 0.44106 0.01959 0.0
H607 H 0.16918 0.46344 0.05298 0.0
H608 H 0.10985 0.46988 0.04731 0.0
H609 H 0.10982 0.44768 0.01388 0.0
H610 H 0.09424 0.48221 0.01111 0.0
H611 H 0.15909 0.53697 0.92963 0.0
H612 H 0.15186 0.50021 0.89054 0.0
H613 H 0.1401 0.43977 0.96389 0.0
C614 C 0.14441 0.52316 0.04992 0.0
C615 C 0.14629 0.5523 0.05219 0.0
C616 C 0.15315 0.56806 0.02537 0.0
C617 C 0.15693 0.55521 0.99657 0.0
C618 C 0.15419 0.52655 0.99501 0.0
C619 C 0.1485 0.51064 0.02098 0.0
C620 C 0.14502 0.48035 0.0126 0.0
C621 C 0.17096 0.46295 0.02732 0.0
C622 C 0.11282 0.4694 0.02176 0.0
C623 C 0.14863 0.4819 0.97777 0.0
C624 C 0.15401 0.50874 0.96813 0.0
C625 C 0.15553 0.51577 0.93688 0.0
C626 C 0.15126 0.49482 0.91487 0.0
C627 C 0.1458 0.46719 0.92426 0.0
C628 C 0.14494 0.46064 0.95611 0.0
H629 H 0.35599 0.56256 0.46616 0.0
H630 H 0.35288 0.50821 0.38629 0.0
H631 H 0.34704 0.46782 0.42089 0.0
H632 H 0.40308 0.51958 0.51081 0.0
H633 H 0.38497 0.52757 0.54732 0.0
H634 H 0.38428 0.55253 0.51642 0.0
H635 H 0.32437 0.55463 0.51943 0.0
H636 H 0.32487 0.52973 0.55049 0.0
H637 H 0.30221 0.52314 0.51621 0.0
H638 H 0.34508 0.43328 0.46392 0.0
H639 H 0.35026 0.40663 0.51236 0.0
H640 H 0.35749 0.48335 0.56425 0.0
C641 C 0.35329 0.54221 0.45599 0.0
C642 C 0.3545 0.53843 0.42361 0.0
C643 C 0.35186 0.51147 0.41108 0.0
C644 C 0.3484 0.48846 0.43051 0.0
C645 C 0.34789 0.4928 0.46239 0.0
C646 C 0.35039 0.51898 0.47508 0.0
C647 C 0.35229 0.51772 0.51005 0.0
C648 C 0.38298 0.53007 0.52182 0.0
C649 C 0.32426 0.53216 0.52492 0.0
C650 C 0.35111 0.48672 0.515 0.0
C651 C 0.34799 0.47276 0.48725 0.0
C652 C 0.3473 0.44397 0.48583 0.0
C653 C 0.35026 0.42903 0.51347 0.0
C654 C 0.35433 0.44291 0.54209 0.0
C655 C 0.35439 0.47214 0.54276 0.0
H656 H 0.50886 0.12178 0.14512 0.0
H657 H 0.55536 0.18293 0.08797 0.0
H658 H 0.50483 0.19971 0.0694 0.0
H659 H 0.45323 0.10326 0.09272 0.0
H660 H 0.42186 0.09932 0.11988 0.0
H661 H 0.46119 0.09477 0.13259 0.0
H662 H 0.45341 0.13216 0.17487 0.0
H663 H 0.41384 0.13666 0.16247 0.0
H664 H 0.43955 0.16601 0.16407 0.0
H665 H 0.45086 0.20413 0.05 0.0
H666 H 0.39594 0.19893 0.03489 0.0
H667 H 0.38342 0.13727 0.10672 0.0
C668 C 0.5084 0.13922 0.12938 0.0
C669 C 0.53614 0.15098 0.11798 0.0
C670 C 0.5345 0.17358 0.09713 0.0
C671 C 0.50586 0.18331 0.08643 0.0
C672 C 0.47903 0.1706 0.09724 0.0
C673 C 0.47996 0.1494 0.11871 0.0
C674 C 0.44782 0.13806 0.12493 0.0
C675 C 0.44594 0.10703 0.11704 0.0
C676 C 0.43808 0.14356 0.15859 0.0
C677 C 0.42893 0.15532 0.10253 0.0
C678 C 0.44741 0.17404 0.08689 0.0
C679 C 0.43597 0.19014 0.06267 0.0
C680 C 0.40486 0.18694 0.05413 0.0
C681 C 0.38554 0.16805 0.07 0.0
C682 C 0.3976 0.1524 0.09483 0.0
H683 H 0.95714 0.84596 0.59397 0.0
H684 H 0.96935 0.88593 0.68302 0.0
H685 H 0.02586 0.87818 0.67965 0.0
H686 H 0.02233 0.7951 0.60032 0.0
H687 H 0.03238 0.79942 0.56011 0.0
H688 H 0.99267 0.80316 0.57233 0.0
H689 H 0.9909 0.852 0.5476 0.0
H690 H 0.03057 0.84856 0.53558 0.0
H691 H 0.01905 0.87755 0.55918 0.0
H692 H 0.08102 0.87081 0.66406 0.0
H693 H 0.13083 0.86643 0.63654 0.0
H694 H 0.08262 0.83367 0.55625 0.0
C695 C 0.97163 0.85217 0.61324 0.0
C696 C 0.95897 0.86612 0.63899 0.0
C697 C 0.97868 0.87496 0.66324 0.0
C698 C 0.01074 0.87056 0.66157 0.0
C699 C 0.02265 0.85748 0.63539 0.0
C700 C 0.0037 0.84842 0.61163 0.0
C701 C 0.02248 0.8382 0.58435 0.0
C702 C 0.01715 0.80712 0.57897 0.0
C703 C 0.01532 0.8551 0.55496 0.0
C704 C 0.05493 0.84375 0.59606 0.0
C705 C 0.05456 0.85429 0.6258 0.0
C706 C 0.08164 0.86226 0.64091 0.0
C707 C 0.10982 0.85972 0.62506 0.0
C708 C 0.11061 0.84973 0.59422 0.0
C709 C 0.08279 0.84129 0.57982 0.0
H710 H 0.41021 0.84926 0.95731 0.0
H711 H 0.36114 0.86961 0.87249 0.0
H712 H 0.41103 0.87522 0.84546 0.0
H713 H 0.46885 0.89751 0.94971 0.0
H714 H 0.49928 0.8759 0.96499 0.0
H715 H 0.45985 0.87024 0.97674 0.0
H716 H 0.46343 0.81914 0.95883 0.0
H717 H 0.50301 0.82463 0.94706 0.0
H718 H 0.47513 0.81145 0.9197 0.0
H719 H 0.46564 0.88489 0.82972 0.0
H720 H 0.5215 0.89552 0.82572 0.0
H721 H 0.53517 0.86663 0.91984 0.0
C722 C 0.40993 0.85439 0.93291 0.0
C723 C 0.38178 0.85902 0.91703 0.0
C724 C 0.38241 0.86586 0.88513 0.0
C725 C 0.41064 0.86906 0.86954 0.0
C726 C 0.43797 0.86492 0.88605 0.0
C727 C 0.43787 0.85739 0.91692 0.0
C728 C 0.47044 0.85575 0.92978 0.0
C729 C 0.47485 0.87606 0.95689 0.0
C730 C 0.47847 0.82596 0.9394 0.0
C731 C 0.48881 0.86456 0.90164 0.0
C732 C 0.46966 0.86961 0.8766 0.0
C733 C 0.48097 0.88041 0.84891 0.0
C734 C 0.51265 0.88648 0.84689 0.0
C735 C 0.5326 0.88153 0.87233 0.0
C736 C 0.52055 0.86995 0.89979 0.0
H737 H 0.08283 0.15581 0.44504 0.0
H738 H 0.12724 0.14294 0.356 0.0
H739 H 0.07601 0.13759 0.33152 0.0
H740 H 0.02654 0.10601 0.43685 0.0
H741 H 0.99593 0.125 0.45565 0.0
H742 H 0.03565 0.13189 0.46551 0.0
H743 H 0.028 0.18373 0.45214 0.0
H744 H 0.98809 0.17701 0.44237 0.0
H745 H 0.0133 0.19331 0.41456 0.0
H746 H 0.02109 0.12663 0.31825 0.0
H747 H 0.9659 0.11322 0.3167 0.0
H748 H 0.95661 0.13498 0.41368 0.0
C749 C 0.08179 0.15256 0.42025 0.0
C750 C 0.10912 0.14984 0.40247 0.0
C751 C 0.10669 0.14523 0.37015 0.0
C752 C 0.07766 0.1422 0.35598 0.0
C753 C 0.05124 0.1442 0.37435 0.0
C754 C 0.05299 0.14965 0.40571 0.0
C755 C 0.02122 0.14879 0.42059 0.0
C756 C 0.01977 0.1266 0.44614 0.0
C757 C 0.01212 0.17742 0.43315 0.0
C758 C 0.00151 0.14089 0.39295 0.0
C759 C 0.01926 0.13856 0.36644 0.0
C760 C 0.00681 0.129 0.33866 0.0
C761 C 0.9755 0.12132 0.33803 0.0
C762 C 0.95696 0.12341 0.36495 0.0
C763 C 0.97006 0.13384 0.39256 0.0
H764 H 0.03391 0.64313 0.09775 0.0
H765 H 0.02103 0.59226 0.17949 0.0
H766 H 0.96457 0.60112 0.17725 0.0
H767 H 0.97137 0.69376 0.11265 0.0
H768 H 0.96089 0.69528 0.07229 0.0
H769 H 0.00045 0.68847 0.0833 0.0
H770 H -0.00018 0.64338 0.05077 0.0
H771 H 0.96034 0.64999 0.03975 0.0
H772 H 0.97043 0.61771 0.05812 0.0
H773 H 0.90909 0.6128 0.1635 0.0
H774 H 0.85942 0.62317 0.13741 0.0
H775 H 0.9093 0.66406 0.06319 0.0
C776 C 0.01935 0.63445 0.1157 0.0
C777 C 0.03185 0.61731 0.13905 0.0
C778 C 0.0119 0.60562 0.16153 0.0
C779 C 0.97986 0.61064 0.16051 0.0
C780 C 0.96822 0.62723 0.13676 0.0
C781 C 0.98741 0.63885 0.1147 0.0
C782 C 0.96905 0.65333 0.08964 0.0
C783 C 0.97585 0.68457 0.08948 0.0
C784 C 0.97528 0.64031 0.0577 0.0
C785 C 0.93646 0.64749 0.10058 0.0
C786 C 0.93639 0.63294 0.12814 0.0
C787 C 0.90889 0.62438 0.14206 0.0
C788 C 0.88079 0.6304 0.12709 0.0
C789 C 0.88054 0.64436 0.09825 0.0
C790 C 0.90876 0.65337 0.08522 0.0
H791 H 0.58522 0.32107 0.55395 0.0
H792 H 0.63208 0.35314 0.63536 0.0
H793 H 0.58147 0.3619 0.65998 0.0
H794 H 0.52712 0.36946 0.55138 0.0
H795 H 0.4968 0.34623 0.53919 0.0
H796 H 0.53646 0.33862 0.52981 0.0
H797 H 0.53167 0.29076 0.55647 0.0
H798 H 0.49182 0.29817 0.56581 0.0
H799 H 0.51865 0.2888 0.59606 0.0
H800 H 0.52643 0.37398 0.67213 0.0
H801 H 0.47075 0.38591 0.67214 0.0
H802 H 0.45949 0.3441 0.584 0.0
C803 C 0.58489 0.32929 0.57726 0.0
C804 C 0.61264 0.3364 0.59272 0.0
C805 C 0.61116 0.34738 0.6231 0.0
C806 C 0.5825 0.35242 0.6373 0.0
C807 C 0.55557 0.34595 0.62104 0.0
C808 C 0.55651 0.33423 0.59186 0.0
C809 C 0.5243 0.33107 0.57842 0.0
C810 C 0.52099 0.34732 0.54791 0.0
C811 C 0.51613 0.30037 0.57394 0.0
C812 C 0.50518 0.3439 0.60403 0.0
C813 C 0.52363 0.35218 0.62852 0.0
C814 C 0.51164 0.36699 0.65347 0.0
C815 C 0.48005 0.37377 0.65322 0.0
C816 C 0.46081 0.36558 0.62829 0.0
C817 C 0.4735 0.34999 0.60374 0.0
H818 H 0.01288 0.4008 0.84499 0.0
H819 H 0.05776 0.33594 0.89834 0.0
H820 H 0.0068 0.31849 0.91453 0.0
H821 H 0.95693 0.4166 0.89806 0.0
H822 H 0.92587 0.42268 0.87098 0.0
H823 H 0.96539 0.42752 0.85906 0.0
H824 H 0.95744 0.39306 0.81381 0.0
H825 H 0.91769 0.38827 0.82544 0.0
H826 H 0.94301 0.35878 0.82172 0.0
H827 H 0.95291 0.31324 0.93243 0.0
H828 H 0.89811 0.31829 0.94777 0.0
H829 H 0.88672 0.38459 0.88111 0.0
C830 C 0.01196 0.38243 0.85931 0.0
C831 C 0.03936 0.36976 0.87038 0.0
C832 C 0.03715 0.34602 0.88952 0.0
C833 C 0.00828 0.33587 0.8988 0.0
C834 C 0.98178 0.34941 0.88841 0.0
C835 C 0.98324 0.3719 0.8687 0.0
C836 C 0.95131 0.38403 0.86309 0.0
C837 C 0.94981 0.4145 0.87343 0.0
C838 C 0.9418 0.38083 0.82898 0.0
C839 C 0.93196 0.36562 0.88387 0.0
C840 C 0.95005 0.34568 0.89807 0.0
C841 C 0.93829 0.32822 0.92086 0.0
C842 C 0.90727 0.33134 0.92955 0.0
C843 C 0.88835 0.35151 0.91524 0.0
C844 C 0.90064 0.36852 0.89172 0.0
H845 H 0.60973 0.62983 0.39816 0.0
H846 H 0.59535 0.67519 0.48359 0.0
H847 H 0.54035 0.68216 0.46965 0.0
H848 H 0.55373 0.66873 0.34908 0.0
H849 H 0.54105 0.63776 0.32957 0.0
H850 H 0.58028 0.64035 0.34362 0.0
H851 H 0.57289 0.59517 0.37513 0.0
H852 H 0.53378 0.59243 0.36114 0.0
H853 H 0.54124 0.59273 0.40221 0.0
H854 H 0.4864 0.68071 0.44885 0.0
H855 H 0.43654 0.66723 0.42558 0.0
H856 H 0.48545 0.6207 0.35481 0.0
C857 C 0.59516 0.64185 0.41351 0.0
C858 C 0.60678 0.65229 0.44175 0.0
C859 C 0.58686 0.66715 0.46176 0.0
C860 C 0.55568 0.67137 0.45394 0.0
C861 C 0.54479 0.66042 0.42612 0.0
C862 C 0.56387 0.6458 0.40631 0.0
C863 C 0.54565 0.6333 0.37978 0.0
C864 C 0.55579 0.64579 0.34867 0.0
C865 C 0.54856 0.60153 0.37958 0.0
C866 C 0.5132 0.64246 0.3883 0.0
C867 C 0.51333 0.65864 0.41468 0.0
C868 C 0.48602 0.6683 0.428 0.0
C869 C 0.45778 0.66053 0.41455 0.0
C870 C 0.45703 0.64288 0.38833 0.0
C871 C 0.48521 0.63439 0.37466 0.0
H872 H 0.26268 0.1601 0.1787 0.0
H873 H 0.28537 0.0742 0.15975 0.0
H874 H 0.27424 0.06221 0.21404 0.0
H875 H 0.29719 0.16191 0.25494 0.0
H876 H 0.26786 0.18415 0.27116 0.0
H877 H 0.27691 0.18617 0.23052 0.0
H878 H 0.2193 0.17737 0.21689 0.0
H879 H 0.21005 0.17542 0.25749 0.0
H880 H 0.20013 0.14715 0.23213 0.0
H881 H 0.25946 0.05902 0.26963 0.0
H882 H 0.2436 0.06516 0.32404 0.0
H883 H 0.23281 0.15341 0.30845 0.0
C884 C 0.26515 0.13877 0.18598 0.0
C885 C 0.2748 0.11806 0.16494 0.0
C886 C 0.27808 0.09043 0.17543 0.0
C887 C 0.27177 0.08338 0.20624 0.0
C888 C 0.26249 0.10424 0.22642 0.0
C889 C 0.25934 0.1314 0.21687 0.0
C890 C 0.24955 0.14982 0.24359 0.0
C891 C 0.27436 0.17181 0.25045 0.0
C892 C 0.21787 0.16322 0.23713 0.0
C893 C 0.2475 0.12871 0.26951 0.0
C894 C 0.25491 0.10253 0.25898 0.0
C895 C 0.25379 0.07944 0.27823 0.0
C896 C 0.24471 0.08313 0.30909 0.0
C897 C 0.23717 0.10976 0.32053 0.0
C898 C 0.23883 0.13285 0.30046 0.0
H899 H 0.2277 0.91462 0.82237 0.0
H900 H 0.27737 0.83715 0.83432 0.0
H901 H 0.27554 0.82924 0.77808 0.0
H902 H 0.1765 0.88934 0.76193 0.0
H903 H 0.17627 0.92161 0.74098 0.0
H904 H 0.18188 0.92155 0.78231 0.0
H905 H 0.23312 0.94874 0.77535 0.0
H906 H 0.22781 0.94865 0.73398 0.0
H907 H 0.26295 0.93494 0.75056 0.0
H908 H 0.27024 0.83021 0.7207 0.0
H909 H 0.25672 0.83752 0.66588 0.0
H910 H 0.20822 0.91318 0.69049 0.0
C911 C 0.23809 0.89597 0.81313 0.0
C912 C 0.25274 0.87655 0.8328 0.0
C913 C 0.26588 0.85229 0.81981 0.0
C914 C 0.26514 0.84766 0.78783 0.0
C915 C 0.25087 0.86729 0.76906 0.0
C916 C 0.23715 0.89077 0.78117 0.0
C917 C 0.22239 0.90802 0.75577 0.0
C918 C 0.18717 0.91025 0.76054 0.0
C919 C 0.23748 0.93679 0.75381 0.0
C920 C 0.23014 0.89061 0.72758 0.0
C921 C 0.24687 0.86738 0.73582 0.0
C922 C 0.257 0.84826 0.71394 0.0
C923 C 0.24931 0.85267 0.68281 0.0
C924 C 0.23135 0.87589 0.67382 0.0
C925 C 0.22194 0.89521 0.69658 0.0
H926 H 0.69641 0.92565 0.79456 0.0
H927 H 0.68862 0.83989 0.82311 0.0
H928 H 0.72889 0.82693 0.78462 0.0
H929 H 0.70818 0.91438 0.71403 0.0
H930 H 0.73587 0.94208 0.71022 0.0
H931 H 0.7062 0.94396 0.7394 0.0
H932 H 0.74813 0.95039 0.78184 0.0
H933 H 0.77794 0.94866 0.75278 0.0
H934 H 0.77887 0.92531 0.78531 0.0
H935 H 0.76868 0.82385 0.74026 0.0
H936 H 0.80786 0.83157 0.69905 0.0
H937 H 0.79073 0.91989 0.70389 0.0
C938 C 0.70304 0.90408 0.79267 0.0
C939 C 0.68922 0.88367 0.81144 0.0
C940 C 0.69896 0.85579 0.80878 0.0
C941 C 0.72167 0.84828 0.78695 0.0
C942 C 0.73463 0.86902 0.76852 0.0
C943 C 0.7259 0.89641 0.77163 0.0
C944 C 0.7439 0.9151 0.75021 0.0
C945 C 0.72224 0.92973 0.7271 0.0
C946 C 0.76337 0.93609 0.76864 0.0
C947 C 0.76411 0.89402 0.73425 0.0
C948 C 0.75828 0.86747 0.74469 0.0
C949 C 0.77361 0.8446 0.73221 0.0
C950 C 0.79568 0.84913 0.70878 0.0
C951 C 0.80246 0.87633 0.69864 0.0
C952 C 0.78634 0.8989 0.71155 0.0
H953 H 0.78658 0.07174 0.29675 0.0
H954 H 0.80227 0.15782 0.32025 0.0
H955 H 0.75935 0.17161 0.28519 0.0
H956 H 0.76837 0.08049 0.21787 0.0
H957 H 0.73839 0.05454 0.21738 0.0
H958 H 0.76984 0.05183 0.24457 0.0
H959 H 0.73059 0.04976 0.28992 0.0
H960 H 0.69897 0.05246 0.26284 0.0
H961 H 0.70227 0.07692 0.29417 0.0
H962 H 0.71807 0.17569 0.24325 0.0
H963 H 0.67828 0.16953 0.20236 0.0
H964 H 0.68667 0.08049 0.21115 0.0
C965 C 0.7809 0.09349 0.29455 0.0
C966 C 0.79781 0.11381 0.31079 0.0
C967 C 0.7895 0.14202 0.30785 0.0
C968 C 0.76526 0.14999 0.28802 0.0
C969 C 0.74918 0.12938 0.27205 0.0
C970 C 0.75634 0.10168 0.27561 0.0
C971 C 0.73536 0.08348 0.25635 0.0
C972 C 0.75412 0.06661 0.23264 0.0
C973 C 0.71563 0.06454 0.27706 0.0
C974 C 0.71571 0.10526 0.24068 0.0
C975 C 0.72415 0.13165 0.24978 0.0
C976 C 0.71084 0.15512 0.23646 0.0
C977 C 0.68838 0.15146 0.21326 0.0
C978 C 0.67913 0.12457 0.20415 0.0
C979 C 0.69278 0.10127 0.21831 0.0
H980 H 0.7682 0.59358 0.32454 0.0
H981 H 0.69513 0.65498 0.33263 0.0
H982 H 0.69507 0.66092 0.27596 0.0
H983 H 0.80991 0.6278 0.26391 0.0
H984 H 0.82056 0.59623 0.2444 0.0
H985 H 0.81421 0.59614 0.28559 0.0
H986 H 0.77342 0.55722 0.27919 0.0
H987 H 0.77954 0.55729 0.23794 0.0
H988 H 0.74114 0.56232 0.2533 0.0
H989 H 0.70325 0.66075 0.21844 0.0
H990 H 0.72078 0.65588 0.16433 0.0
H991 H 0.78875 0.5949 0.19348 0.0
C992 C 0.75212 0.60823 0.31441 0.0
C993 C 0.73164 0.62378 0.33313 0.0
C994 C 0.71109 0.64283 0.31887 0.0
C995 C 0.71079 0.64631 0.28665 0.0
C996 C 0.7312 0.63063 0.26889 0.0
C997 C 0.75159 0.61206 0.28223 0.0
C998 C 0.7717 0.59835 0.2579 0.0
C999 C 0.80613 0.60504 0.26327 0.0
C1000 C 0.7661 0.56693 0.25704 0.0
C1001 C 0.75955 0.61226 0.22886 0.0
C1002 C 0.73606 0.63068 0.2357 0.0
C1003 C 0.72158 0.64634 0.21278 0.0
C1004 C 0.73168 0.64339 0.18208 0.0
C1005 C 0.75611 0.62498 0.17456 0.0
C1006 C 0.76991 0.60904 0.19836 0.0
H1007 H 0.74014 0.34269 0.68028 0.0
H1008 H 0.73547 0.42995 0.65678 0.0
H1009 H 0.74817 0.4421 0.71079 0.0
H1010 H 0.70423 0.3492 0.75453 0.0
H1011 H 0.72803 0.32333 0.77295 0.0
H1012 H 0.72026 0.32121 0.73205 0.0
H1013 H 0.77917 0.32034 0.72067 0.0
H1014 H 0.78712 0.32227 0.76156 0.0
H1015 H 0.80347 0.34757 0.73563 0.0
H1016 H 0.76113 0.44496 0.76707 0.0
H1017 H 0.77256 0.43843 0.82253 0.0
H1018 H 0.76658 0.34937 0.81067 0.0
C1019 C 0.74218 0.36434 0.68644 0.0
C1020 C 0.73703 0.3854 0.66425 0.0
C1021 C 0.73937 0.41348 0.67335 0.0
C1022 C 0.74659 0.42059 0.70397 0.0
C1023 C 0.75114 0.39939 0.72535 0.0
C1024 C 0.74898 0.37183 0.71708 0.0
C1025 C 0.75392 0.35316 0.74491 0.0
C1026 C 0.72488 0.3357 0.75149 0.0
C1027 C 0.78263 0.33475 0.74042 0.0
C1028 C 0.75919 0.37455 0.77007 0.0
C1029 C 0.75769 0.40107 0.75818 0.0
C1030 C 0.7623 0.42431 0.77668 0.0
C1031 C 0.7688 0.42037 0.80817 0.0
C1032 C 0.77034 0.39342 0.82099 0.0
C1033 C 0.76527 0.37023 0.80162 0.0
H1034 H 0.29131 0.42391 0.68887 0.0
H1035 H 0.31003 0.33585 0.6839 0.0
H1036 H 0.26969 0.32731 0.72365 0.0
H1037 H 0.27679 0.42851 0.76962 0.0
H1038 H 0.24569 0.45316 0.76567 0.0
H1039 H 0.27613 0.45205 0.73724 0.0
H1040 H 0.23542 0.44517 0.69376 0.0
H1041 H 0.20482 0.44632 0.72205 0.0
H1042 H 0.20818 0.417 0.69647 0.0
H1043 H 0.22977 0.32933 0.76697 0.0
H1044 H 0.18959 0.34106 0.80586 0.0
H1045 H 0.19431 0.42719 0.77809 0.0
C1046 C 0.28692 0.40283 0.69618 0.0
C1047 C 0.30387 0.38053 0.68369 0.0
C1048 C 0.2972 0.35318 0.69333 0.0
C1049 C 0.27445 0.34817 0.71589 0.0
C1050 C 0.25826 0.37072 0.72795 0.0
C1051 C 0.26387 0.39745 0.718 0.0
C1052 C 0.24272 0.41802 0.73375 0.0
C1053 C 0.26146 0.43917 0.75269 0.0
C1054 C 0.22153 0.43247 0.71009 0.0
C1055 C 0.22458 0.3988 0.75451 0.0
C1056 C 0.23408 0.37163 0.75119 0.0
C1057 C 0.22181 0.35046 0.7694 0.0
C1058 C 0.19914 0.35729 0.79144 0.0
C1059 C 0.18865 0.38491 0.79452 0.0
C1060 C 0.20149 0.40581 0.77571 0.0
H1061 H 0.31081 0.58239 0.28217 0.0
H1062 H 0.30314 0.66728 0.31374 0.0
H1063 H 0.26011 0.67511 0.2766 0.0
H1064 H 0.29158 0.59328 0.20131 0.0
H1065 H 0.26921 0.56187 0.19875 0.0
H1066 H 0.30112 0.56409 0.22553 0.0
H1067 H 0.26444 0.55069 0.2706 0.0
H1068 H 0.23241 0.54856 0.24401 0.0
H1069 H 0.22997 0.57088 0.27736 0.0
H1070 H 0.21812 0.67327 0.23509 0.0
H1071 H 0.1775 0.66077 0.19692 0.0
H1072 H 0.20994 0.57584 0.19745 0.0
C1073 C 0.30045 0.60279 0.28084 0.0
C1074 C 0.31056 0.62443 0.30027 0.0
C1075 C 0.29582 0.65056 0.29872 0.0
C1076 C 0.27147 0.65517 0.27771 0.0
C1077 C 0.26185 0.63324 0.259 0.0
C1078 C 0.27568 0.60747 0.26072 0.0
C1079 C 0.25959 0.58669 0.24006 0.0
C1080 C 0.2817 0.57586 0.21492 0.0
C1081 C 0.24578 0.56281 0.25916 0.0
C1082 C 0.2345 0.60474 0.22635 0.0
C1083 C 0.23646 0.63165 0.23707 0.0
C1084 C 0.21623 0.65221 0.22677 0.0
C1085 C 0.19331 0.64497 0.20512 0.0
C1086 C 0.19047 0.61732 0.19468 0.0
C1087 C 0.21134 0.59705 0.20548 0.0
loop_
_geom_bond_atom_site_label_1
_geom_bond_atom_site_label_2
_geom_bond_distance
_geom_bond_site_symmetry_2
_ccdc_geom_bond_type
Zn0 O3 2.031 . S
Zn0 O5 2.049 . S
Zn0 O10 2.067 . S
Zn1 O2 1.962 . S
Zn1 O4 1.986 . S
Zn1 O6 1.996 . S
Zn1 O9 1.943 . S
O2 Zn1 1.962 . S
O2 C7 1.254 . S
O3 Zn0 2.031 . S
O3 C7 1.269 . S
O4 Zn1 1.986 . S
O4 C11 1.262 . S
O5 Zn0 2.049 . S
O5 C13 1.260 . S
O6 Zn1 1.996 . S
O6 C13 1.257 . S
C7 O2 1.254 . S
C7 O3 1.269 . S
C8 O9 1.249 . S
C8 O10 1.270 . S
O9 Zn1 1.943 . S
O9 C8 1.249 . S
O10 Zn0 2.067 . S
O10 C8 1.270 . S
C11 O4 1.262 . S
C11 O12 1.232 . S
O12 C11 1.232 . S
C13 O5 1.260 . S
C13 O6 1.257 . S
Zn14 O17 2.031 . S
Zn14 O19 2.049 . S
Zn14 O24 2.067 . S
Zn15 O16 1.962 . S
Zn15 O18 1.986 . S
Zn15 O20 1.996 . S
Zn15 O23 1.943 . S
O16 Zn15 1.962 . S
O16 C21 1.254 . S
O17 Zn14 2.031 . S
O17 C21 1.269 . S
O18 Zn15 1.986 . S
O18 C25 1.262 . S
O19 Zn14 2.049 . S
O19 C27 1.260 . S
O20 Zn15 1.996 . S
O20 C27 1.257 . S
C21 O16 1.254 . S
C21 O17 1.269 . S
C22 O23 1.249 . S
C22 O24 1.270 . S
O23 Zn15 1.943 . S
O23 C22 1.249 . S
O24 Zn14 2.067 . S
O24 C22 1.270 . S
C25 O18 1.262 . S
C25 O26 1.232 . S
O26 C25 1.232 . S
C27 O19 1.260 . S
C27 O20 1.257 . S
Zn28 O31 2.031 . S
Zn28 O33 2.049 . S
Zn28 O38 2.067 . S
Zn29 O30 1.962 . S
Zn29 O32 1.986 . S
Zn29 O34 1.996 . S
Zn29 O37 1.943 . S
O30 Zn29 1.962 . S
O30 C35 1.254 . S
O31 Zn28 2.031 . S
O31 C35 1.269 . S
O32 Zn29 1.986 . S
O32 C39 1.262 . S
O33 Zn28 2.049 . S
O33 C41 1.260 . S
O34 Zn29 1.996 . S
O34 C41 1.257 . S
C35 O30 1.254 . S
C35 O31 1.269 . S
C36 O37 1.249 . S
C36 O38 1.270 . S
O37 Zn29 1.943 . S
O37 C36 1.249 . S
O38 Zn28 2.067 . S
O38 C36 1.270 . S
C39 O32 1.262 . S
C39 O40 1.232 . S
O40 C39 1.232 . S
C41 O33 1.260 . S
C41 O34 1.257 . S
Zn42 O45 2.031 . S
Zn42 O47 2.049 . S
Zn42 O52 2.067 . S
Zn43 O44 1.962 . S
Zn43 O46 1.986 . S
Zn43 O48 1.996 . S
Zn43 O51 1.943 . S
O44 Zn43 1.962 . S
O44 C49 1.254 . S
O45 Zn42 2.031 . S
O45 C49 1.269 . S
O46 Zn43 1.986 . S
O46 C53 1.262 . S
O47 Zn42 2.049 . S
O47 C55 1.260 . S
O48 Zn43 1.996 . S
O48 C55 1.257 . S
C49 O44 1.254 . S
C49 O45 1.269 . S
C50 O51 1.249 . S
C50 O52 1.270 . S
O51 Zn43 1.943 . S
O51 C50 1.249 . S
O52 Zn42 2.067 . S
O52 C50 1.270 . S
C53 O46 1.262 . S
C53 O54 1.232 . S
O54 C53 1.232 . S
C55 O47 1.260 . S
C55 O48 1.257 . S
Zn56 O59 2.031 . S
Zn56 O61 2.049 . S
Zn56 O66 2.067 . S
Zn57 O58 1.962 . S
Zn57 O60 1.986 . S
Zn57 O62 1.996 . S
Zn57 O65 1.943 . S
O58 Zn57 1.962 . S
O58 C63 1.254 . S
O59 Zn56 2.031 . S
O59 C63 1.269 . S
O60 Zn57 1.986 . S
O60 C67 1.262 . S
O61 Zn56 2.049 . S
O61 C69 1.260 . S
O62 Zn57 1.996 . S
O62 C69 1.257 . S
C63 O58 1.254 . S
C63 O59 1.269 . S
C64 O65 1.249 . S
C64 O66 1.270 . S
O65 Zn57 1.943 . S
O65 C64 1.249 . S
O66 Zn56 2.067 . S
O66 C64 1.270 . S
C67 O60 1.262 . S
C67 O68 1.232 . S
O68 C67 1.232 . S
C69 O61 1.260 . S
C69 O62 1.257 . S
Zn70 O73 2.031 . S
Zn70 O75 2.049 . S
Zn70 O80 2.067 . S
Zn71 O72 1.962 . S
Zn71 O74 1.986 . S
Zn71 O76 1.996 . S
Zn71 O79 1.943 . S
O72 Zn71 1.962 . S
O72 C77 1.254 . S
O73 Zn70 2.031 . S
O73 C77 1.269 . S
O74 Zn71 1.986 . S
O74 C81 1.262 . S
O75 Zn70 2.049 . S
O75 C83 1.260 . S
O76 Zn71 1.996 . S
O76 C83 1.257 . S
C77 O72 1.254 . S
C77 O73 1.269 . S
C78 O79 1.249 . S
C78 O80 1.270 . S
O79 Zn71 1.943 . S
O79 C78 1.249 . S
O80 Zn70 2.067 . S
O80 C78 1.270 . S
C81 O74 1.262 . S
C81 O82 1.232 . S
O82 C81 1.232 . S
C83 O75 1.260 . S
C83 O76 1.257 . S
Zn84 O87 2.031 . S
Zn84 O89 2.049 . S
Zn84 O94 2.067 . S
Zn85 O86 1.962 . S
Zn85 O88 1.986 . S
Zn85 O90 1.996 . S
Zn85 O93 1.943 . S
O86 Zn85 1.962 . S
O86 C91 1.254 . S
O87 Zn84 2.031 . S
O87 C91 1.269 . S
O88 Zn85 1.986 . S
O88 C95 1.262 . S
O89 Zn84 2.049 . S
O89 C97 1.260 . S
O90 Zn85 1.996 . S
O90 C97 1.257 . S
C91 O86 1.254 . S
C91 O87 1.269 . S
C92 O93 1.249 . S
C92 O94 1.270 . S
O93 Zn85 1.943 . S
O93 C92 1.249 . S
O94 Zn84 2.067 . S
O94 C92 1.270 . S
C95 O88 1.262 . S
C95 O96 1.232 . S
O96 C95 1.232 . S
C97 O89 1.260 . S
C97 O90 1.257 . S
Zn98 O101 2.031 . S
Zn98 O103 2.049 . S
Zn98 O108 2.067 . S
Zn99 O100 1.962 . S
Zn99 O102 1.986 . S
Zn99 O104 1.996 . S
Zn99 O107 1.943 . S
O100 Zn99 1.962 . S
O100 C105 1.254 . S
O101 Zn98 2.031 . S
O101 C105 1.269 . S
O102 Zn99 1.986 . S
O102 C109 1.262 . S
O103 Zn98 2.049 . S
O103 C111 1.260 . S
O104 Zn99 1.996 . S
O104 C111 1.257 . S
C105 O100 1.254 . S
C105 O101 1.269 . S
C106 O107 1.249 . S
C106 O108 1.270 . S
O107 Zn99 1.943 . S
O107 C106 1.249 . S
O108 Zn98 2.067 . S
O108 C106 1.270 . S
C109 O102 1.262 . S
C109 O110 1.232 . S
O110 C109 1.232 . S
C111 O103 1.260 . S
C111 O104 1.257 . S
Zn112 O115 2.031 . S
Zn112 O117 2.049 . S
Zn112 O122 2.067 . S
Zn113 O114 1.962 . S
Zn113 O116 1.986 . S
Zn113 O118 1.996 . S
Zn113 O121 1.943 . S
O114 Zn113 1.962 . S
O114 C119 1.254 . S
O115 Zn112 2.031 . S
O115 C119 1.269 . S
O116 Zn113 1.986 . S
O116 C123 1.262 . S
O117 Zn112 2.049 . S
O117 C125 1.260 . S
O118 Zn113 1.996 . S
O118 C125 1.257 . S
C119 O114 1.254 . S
C119 O115 1.269 . S
C120 O121 1.249 . S
C120 O122 1.270 . S
O121 Zn113 1.943 . S
O121 C120 1.249 . S
O122 Zn112 2.067 . S
O122 C120 1.270 . S
C123 O116 1.262 . S
C123 O124 1.232 . S
O124 C123 1.232 . S
C125 O117 1.260 . S
C125 O118 1.257 . S
Zn126 O129 2.031 . S
Zn126 O131 2.049 . S
Zn126 O136 2.067 . S
Zn127 O128 1.962 . S
Zn127 O130 1.986 . S
Zn127 O132 1.996 . S
Zn127 O135 1.943 . S
O128 Zn127 1.962 . S
O128 C133 1.254 . S
O129 Zn126 2.031 . S
O129 C133 1.269 . S
O130 Zn127 1.986 . S
O130 C137 1.262 . S
O131 Zn126 2.049 . S
O131 C139 1.260 . S
O132 Zn127 1.996 . S
O132 C139 1.257 . S
C133 O128 1.254 . S
C133 O129 1.269 . S
C134 O135 1.249 . S
C134 O136 1.270 . S
O135 Zn127 1.943 . S
O135 C134 1.249 . S
O136 Zn126 2.067 . S
O136 C134 1.270 . S
C137 O130 1.262 . S
C137 O138 1.232 . S
O138 C137 1.232 . S
C139 O131 1.260 . S
C139 O132 1.257 . S
Zn140 O143 2.031 . S
Zn140 O145 2.049 . S
Zn140 O150 2.067 . S
Zn141 O142 1.962 . S
Zn141 O144 1.986 . S
Zn141 O146 1.996 . S
Zn141 O149 1.943 . S
O142 Zn141 1.962 . S
O142 C147 1.254 . S
O143 Zn140 2.031 . S
O143 C147 1.269 . S
O144 Zn141 1.986 . S
O144 C151 1.262 . S
O145 Zn140 2.049 . S
O145 C153 1.260 . S
O146 Zn141 1.996 . S
O146 C153 1.257 . S
C147 O142 1.254 . S
C147 O143 1.269 . S
C148 O149 1.249 . S
C148 O150 1.270 . S
O149 Zn141 1.943 . S
O149 C148 1.249 . S
O150 Zn140 2.067 . S
O150 C148 1.270 . S
C151 O144 1.262 . S
C151 O152 1.232 . S
O152 C151 1.232 . S
C153 O145 1.260 . S
C153 O146 1.257 . S
Zn154 O157 2.031 . S
Zn154 O159 2.049 . S
Zn154 O164 2.067 . S
Zn155 O156 1.962 . S
Zn155 O158 1.986 . S
Zn155 O160 1.996 . S
Zn155 O163 1.943 . S
O156 Zn155 1.962 . S
O156 C161 1.254 . S
O157 Zn154 2.031 . S
O157 C161 1.269 . S
O158 Zn155 1.986 . S
O158 C165 1.262 . S
O159 Zn154 2.049 . S
O159 C167 1.260 . S
O160 Zn155 1.996 . S
O160 C167 1.257 . S
C161 O156 1.254 . S
C161 O157 1.269 . S
C162 O163 1.249 . S
C162 O164 1.270 . S
O163 Zn155 1.943 . S
O163 C162 1.249 . S
O164 Zn154 2.067 . S
O164 C162 1.270 . S
C165 O158 1.262 . S
C165 O166 1.232 . S
O166 C165 1.232 . S
C167 O159 1.260 . S
C167 O160 1.257 . S
Zn168 O171 2.031 . S
Zn168 O173 2.049 . S
Zn168 O178 2.067 . S
Zn169 O170 1.962 . S
Zn169 O172 1.986 . S
Zn169 O174 1.996 . S
Zn169 O177 1.943 . S
O170 Zn169 1.962 . S
O170 C175 1.254 . S
O171 Zn168 2.031 . S
O171 C175 1.269 . S
O172 Zn169 1.986 . S
O172 C179 1.262 . S
O173 Zn168 2.049 . S
O173 C181 1.260 . S
O174 Zn169 1.996 . S
O174 C181 1.257 . S
C175 O170 1.254 . S
C175 O171 1.269 . S
C176 O177 1.249 . S
C176 O178 1.270 . S
O177 Zn169 1.943 . S
O177 C176 1.249 . S
O178 Zn168 2.067 . S
O178 C176 1.270 . S
C179 O172 1.262 . S
C179 O180 1.232 . S
O180 C179 1.232 . S
C181 O173 1.260 . S
C181 O174 1.257 . S
Zn182 O185 2.031 . S
Zn182 O187 2.049 . S
Zn182 O192 2.067 . S
Zn183 O184 1.962 . S
Zn183 O186 1.986 . S
Zn183 O188 1.996 . S
Zn183 O191 1.943 . S
O184 Zn183 1.962 . S
O184 C189 1.254 . S
O185 Zn182 2.031 . S
O185 C189 1.269 . S
O186 Zn183 1.986 . S
O186 C193 1.262 . S
O187 Zn182 2.049 . S
O187 C195 1.260 . S
O188 Zn183 1.996 . S
O188 C195 1.257 . S
C189 O184 1.254 . S
C189 O185 1.269 . S
C190 O191 1.249 . S
C190 O192 1.270 . S
O191 Zn183 1.943 . S
O191 C190 1.249 . S
O192 Zn182 2.067 . S
O192 C190 1.270 . S
C193 O186 1.262 . S
C193 O194 1.232 . S
O194 C193 1.232 . S
C195 O187 1.260 . S
C195 O188 1.257 . S
Zn196 O199 2.031 . S
Zn196 O201 2.049 . S
Zn196 O206 2.067 . S
Zn197 O198 1.962 . S
Zn197 O200 1.986 . S
Zn197 O202 1.996 . S
Zn197 O205 1.943 . S
O198 Zn197 1.962 . S
O198 C203 1.254 . S
O199 Zn196 2.031 . S
O199 C203 1.269 . S
O200 Zn197 1.986 . S
O200 C207 1.262 . S
O201 Zn196 2.049 . S
O201 C209 1.260 . S
O202 Zn197 1.996 . S
O202 C209 1.257 . S
C203 O198 1.254 . S
C203 O199 1.269 . S
C204 O205 1.249 . S
C204 O206 1.270 . S
O205 Zn197 1.943 . S
O205 C204 1.249 . S
O206 Zn196 2.067 . S
O206 C204 1.270 . S
C207 O200 1.262 . S
C207 O208 1.232 . S
O208 C207 1.232 . S
C209 O201 1.260 . S
C209 O202 1.257 . S
Zn210 O213 2.031 . S
Zn210 O215 2.049 . S
Zn210 O220 2.067 . S
Zn211 O212 1.962 . S
Zn211 O214 1.986 . S
Zn211 O216 1.996 . S
Zn211 O219 1.943 . S
O212 Zn211 1.962 . S
O212 C217 1.254 . S
O213 Zn210 2.031 . S
O213 C217 1.269 . S
O214 Zn211 1.986 . S
O214 C221 1.262 . S
O215 Zn210 2.049 . S
O215 C223 1.260 . S
O216 Zn211 1.996 . S
O216 C223 1.257 . S
C217 O212 1.254 . S
C217 O213 1.269 . S
C218 O219 1.249 . S
C218 O220 1.270 . S
O219 Zn211 1.943 . S
O219 C218 1.249 . S
O220 Zn210 2.067 . S
O220 C218 1.270 . S
C221 O214 1.262 . S
C221 O222 1.232 . S
O222 C221 1.232 . S
C223 O215 1.260 . S
C223 O216 1.257 . S
H224 C236 0.930 1_556 S
H225 C238 0.930 . S
H226 C239 0.930 . S
H227 C243 0.959 . S
H228 C243 0.959 . S
H229 C243 0.961 . S
H230 C244 0.960 . S
H231 C244 0.961 . S
H232 C244 0.959 . S
H233 C247 0.929 . S
H234 C248 0.938 . S
H235 C250 0.930 . S
C236 H224 0.930 1_554 S
C236 C237 1.399 . S
C236 C241 1.388 1_554 S
C237 C236 1.399 . S
C237 C238 1.376 . S
C238 H225 0.930 . S
C238 C237 1.376 . S
C238 C239 1.388 . S
C239 H226 0.930 . S
C239 C238 1.388 . S
C239 C240 1.390 . S
C240 C239 1.390 . S
C240 C241 1.373 1_554 S
C240 C246 1.465 . S
C241 C236 1.388 1_556 S
C241 C240 1.373 1_556 S
C241 C242 1.548 . S
C242 C241 1.548 . S
C242 C243 1.502 . S
C242 C244 1.561 . S
C242 C245 1.526 . S
C243 H227 0.959 . S
C243 H228 0.959 . S
C243 H229 0.961 . S
C243 C242 1.502 . S
C244 H230 0.960 . S
C244 H231 0.961 . S
C244 H232 0.959 . S
C244 C242 1.561 . S
C245 C242 1.526 . S
C245 C246 1.396 1_556 S
C245 C250 1.390 . S
C246 C240 1.465 . S
C246 C245 1.396 1_554 S
C246 C247 1.399 . S
C247 H233 0.929 . S
C247 C246 1.399 . S
C247 C248 1.385 1_554 S
C248 H234 0.938 . S
C248 C247 1.385 1_556 S
C248 C249 1.389 . S
C249 C248 1.389 . S
C249 C250 1.387 . S
C250 H235 0.930 . S
C250 C245 1.390 . S
C250 C249 1.387 . S
H251 C263 0.930 . S
H252 C265 0.930 . S
H253 C266 0.930 . S
H254 C270 0.959 . S
H255 C270 0.959 . S
H256 C270 0.961 . S
H257 C271 0.960 . S
H258 C271 0.961 . S
H259 C271 0.959 . S
H260 C274 0.929 . S
H261 C275 0.931 . S
H262 C277 0.930 . S
C263 H251 0.930 . S
C263 C264 1.399 . S
C263 C268 1.399 . S
C264 C263 1.399 . S
C264 C265 1.376 . S
C265 H252 0.930 . S
C265 C264 1.376 . S
C265 C266 1.388 . S
C266 H253 0.930 . S
C266 C265 1.388 . S
C266 C267 1.390 . S
C267 C266 1.390 . S
C267 C268 1.394 . S
C267 C273 1.465 . S
C268 C263 1.399 . S
C268 C267 1.394 . S
C268 C269 1.516 . S
C269 C268 1.516 . S
C269 C270 1.502 . S
C269 C271 1.561 . S
C269 C272 1.526 . S
C270 H254 0.959 . S
C270 H255 0.959 . S
C270 H256 0.961 . S
C270 C269 1.502 . S
C271 H257 0.960 . S
C271 H258 0.961 . S
C271 H259 0.959 . S
C271 C269 1.561 . S
C272 C269 1.526 . S
C272 C273 1.396 . S
C272 C277 1.390 . S
C273 C267 1.465 . S
C273 C272 1.396 . S
C273 C274 1.399 . S
C274 H260 0.929 . S
C274 C273 1.399 . S
C274 C275 1.385 . S
C275 H261 0.931 . S
C275 C274 1.385 . S
C275 C276 1.389 . S
C276 C275 1.389 . S
C276 C277 1.387 . S
C277 H262 0.930 . S
C277 C272 1.390 . S
C277 C276 1.387 . S
H278 C290 0.930 . S
H279 C292 0.930 1_554 S
H280 C293 0.930 . S
H281 C297 0.959 . S
H282 C297 0.959 . S
H283 C297 0.961 . S
H284 C298 0.960 . S
H285 C298 0.961 . S
H286 C298 0.959 . S
H287 C301 0.929 . S
H288 C302 0.931 . S
H289 C304 0.930 1_556 S
C290 H278 0.930 . S
C290 C291 1.399 . S
C290 C295 1.399 . S
C291 C290 1.399 . S
C291 C292 1.376 . S
C292 H279 0.930 1_556 S
C292 C291 1.376 . S
C292 C293 1.388 1_556 S
C293 H280 0.930 . S
C293 C292 1.388 1_554 S
C293 C294 1.390 . S
C294 C293 1.390 . S
C294 C295 1.394 1_554 S
C294 C300 1.465 . S
C295 C290 1.399 . S
C295 C294 1.394 1_556 S
C295 C296 1.516 . S
C296 C295 1.516 . S
C296 C297 1.502 . S
C296 C298 1.561 . S
C296 C299 1.526 1_556 S
C297 H281 0.959 . S
C297 H282 0.959 . S
C297 H283 0.961 . S
C297 C296 1.502 . S
C298 H284 0.960 . S
C298 H285 0.961 . S
C298 H286 0.959 . S
C298 C296 1.561 . S
C299 C296 1.526 1_554 S
C299 C300 1.396 . S
C299 C304 1.390 . S
C300 C294 1.465 . S
C300 C299 1.396 . S
C300 C301 1.399 . S
C301 H287 0.929 . S
C301 C300 1.399 . S
C301 C302 1.385 . S
C302 H288 0.931 . S
C302 C301 1.385 . S
C302 C303 1.389 . S
C303 C302 1.389 . S
C303 C304 1.387 . S
C304 H289 0.930 1_554 S
C304 C299 1.390 . S
C304 C303 1.387 . S
H305 C317 0.930 . S
H306 C319 0.930 . S
H307 C320 0.930 . S
H308 C324 0.959 . S
H309 C324 0.959 . S
H310 C324 0.961 . S
H311 C325 0.960 . S
H312 C325 0.961 . S
H313 C325 0.959 . S
H314 C328 0.929 . S
H315 C329 0.931 . S
H316 C331 0.930 . S
C317 H305 0.930 . S
C317 C318 1.399 . S
C317 C322 1.399 . S
C318 C317 1.399 . S
C318 C319 1.376 . S
C319 H306 0.930 . S
C319 C318 1.376 . S
C319 C320 1.388 . S
C320 H307 0.930 . S
C320 C319 1.388 . S
C320 C321 1.390 . S
C321 C320 1.390 . S
C321 C322 1.394 . S
C321 C327 1.465 . S
C322 C317 1.399 . S
C322 C321 1.394 . S
C322 C323 1.516 . S
C323 C322 1.516 . S
C323 C324 1.502 . S
C323 C325 1.561 . S
C323 C326 1.526 . S
C324 H308 0.959 . S
C324 H309 0.959 . S
C324 H310 0.961 . S
C324 C323 1.502 . S
C325 H311 0.960 . S
C325 H312 0.961 . S
C325 H313 0.959 . S
C325 C323 1.561 . S
C326 C323 1.526 . S
C326 C327 1.396 . S
C326 C331 1.390 . S
C327 C321 1.465 . S
C327 C326 1.396 . S
C327 C328 1.399 . S
C328 H314 0.929 . S
C328 C327 1.399 . S
C328 C329 1.385 . S
C329 H315 0.931 . S
C329 C328 1.385 . S
C329 C330 1.389 . S
C330 C329 1.389 . S
C330 C331 1.387 . S
C331 H316 0.930 . S
C331 C326 1.390 . S
C331 C330 1.387 . S
H332 C344 0.930 . S
H333 C346 0.930 . S
H334 C347 0.930 . S
H335 C351 0.959 . S
H336 C351 0.959 . S
H337 C351 0.961 . S
H338 C352 0.960 1_554 S
H339 C352 0.961 . S
H340 C352 0.959 . S
H341 C355 0.929 . S
H342 C356 0.931 . S
H343 C358 0.930 . S
C344 H332 0.930 . S
C344 C345 1.399 . S
C344 C349 1.399 . S
C345 C344 1.399 . S
C345 C346 1.376 . S
C346 H333 0.930 . S
C346 C345 1.376 . S
C346 C347 1.388 1_554 S
C347 H334 0.930 . S
C347 C346 1.388 1_556 S
C347 C348 1.390 . S
C348 C347 1.390 . S
C348 C349 1.394 1_556 S
C348 C354 1.465 . S
C349 C344 1.399 . S
C349 C348 1.394 1_554 S
C349 C350 1.516 . S
C350 C349 1.516 . S
C350 C351 1.502 . S
C350 C352 1.561 1_554 S
C350 C353 1.526 1_554 S
C351 H335 0.959 . S
C351 H336 0.959 . S
C351 H337 0.961 . S
C351 C350 1.502 . S
C352 H338 0.960 1_556 S
C352 H339 0.961 . S
C352 H340 0.959 . S
C352 C350 1.561 1_556 S
C353 C350 1.526 1_556 S
C353 C354 1.396 . S
C353 C358 1.390 . S
C354 C348 1.465 . S
C354 C353 1.396 . S
C354 C355 1.399 . S
C355 H341 0.929 . S
C355 C354 1.399 . S
C355 C356 1.385 . S
C356 H342 0.931 . S
C356 C355 1.385 . S
C356 C357 1.389 . S
C357 C356 1.389 . S
C357 C358 1.387 . S
C358 H343 0.930 . S
C358 C353 1.390 . S
C358 C357 1.387 . S
H359 C371 0.930 . S
H360 C373 0.930 . S
H361 C374 0.930 . S
H362 C378 0.959 . S
H363 C378 0.959 . S
H364 C378 0.961 . S
H365 C379 0.960 . S
H366 C379 0.961 . S
H367 C379 0.959 . S
H368 C382 0.929 . S
H369 C383 0.931 . S
H370 C385 0.930 . S
C371 H359 0.930 . S
C371 C372 1.399 . S
C371 C376 1.399 . S
C372 C371 1.399 . S
C372 C373 1.376 . S
C373 H360 0.930 . S
C373 C372 1.376 . S
C373 C374 1.388 . S
C374 H361 0.930 . S
C374 C373 1.388 . S
C374 C375 1.390 . S
C375 C374 1.390 . S
C375 C376 1.394 . S
C375 C381 1.465 . S
C376 C371 1.399 . S
C376 C375 1.394 . S
C376 C377 1.516 . S
C377 C376 1.516 . S
C377 C378 1.502 . S
C377 C379 1.561 . S
C377 C380 1.526 . S
C378 H362 0.959 . S
C378 H363 0.959 . S
C378 H364 0.961 . S
C378 C377 1.502 . S
C379 H365 0.960 . S
C379 H366 0.961 . S
C379 H367 0.959 . S
C379 C377 1.561 . S
C380 C377 1.526 . S
C380 C381 1.396 . S
C380 C385 1.390 . S
C381 C375 1.465 . S
C381 C380 1.396 . S
C381 C382 1.399 . S
C382 H368 0.929 . S
C382 C381 1.399 . S
C382 C383 1.385 . S
C383 H369 0.931 . S
C383 C382 1.385 . S
C383 C384 1.389 . S
C384 C383 1.389 . S
C384 C385 1.387 . S
C385 H370 0.930 . S
C385 C380 1.390 . S
C385 C384 1.387 . S
H386 C398 0.930 . S
H387 C400 0.939 . S
H388 C401 0.930 . S
H389 C405 0.959 . S
H390 C405 0.959 . S
H391 C405 0.961 . S
H392 C406 0.960 . S
H393 C406 0.961 . S
H394 C406 0.959 . S
H395 C409 0.929 . S
H396 C410 0.931 . S
H397 C412 0.930 1_556 S
C398 H386 0.930 . S
C398 C399 1.399 . S
C398 C403 1.399 . S
C399 C398 1.399 . S
C399 C400 1.376 . S
C400 H387 0.939 . S
C400 C399 1.376 . S
C400 C401 1.388 1_556 S
C401 H388 0.930 . S
C401 C400 1.388 1_554 S
C401 C402 1.390 . S
C402 C401 1.390 . S
C402 C403 1.394 1_554 S
C402 C408 1.465 . S
C403 C398 1.399 . S
C403 C402 1.394 1_556 S
C403 C404 1.516 . S
C404 C403 1.516 . S
C404 C405 1.502 . S
C404 C406 1.561 . S
C404 C407 1.526 1_556 S
C405 H389 0.959 . S
C405 H390 0.959 . S
C405 H391 0.961 . S
C405 C404 1.502 . S
C406 H392 0.960 . S
C406 H393 0.961 . S
C406 H394 0.959 . S
C406 C404 1.561 . S
C407 C404 1.526 1_554 S
C407 C408 1.396 . S
C407 C412 1.390 . S
C408 C402 1.465 . S
C408 C407 1.396 . S
C408 C409 1.399 . S
C409 H395 0.929 . S
C409 C408 1.399 . S
C409 C410 1.385 . S
C410 H396 0.931 . S
C410 C409 1.385 . S
C410 C411 1.389 . S
C411 C410 1.389 . S
C411 C412 1.387 . S
C412 H397 0.930 1_554 S
C412 C407 1.390 . S
C412 C411 1.387 . S
H413 C425 0.930 . S
H414 C427 0.930 . S
H415 C428 0.930 . S
H416 C432 0.959 . S
H417 C432 0.959 . S
H418 C432 0.961 . S
H419 C433 0.960 . S
H420 C433 0.961 . S
H421 C433 0.959 . S
H422 C436 0.929 . S
H423 C437 0.931 . S
H424 C439 0.930 . S
C425 H413 0.930 . S
C425 C426 1.399 . S
C425 C430 1.399 . S
C426 C425 1.399 . S
C426 C427 1.376 . S
C427 H414 0.930 . S
C427 C426 1.376 . S
C427 C428 1.388 . S
C428 H415 0.930 . S
C428 C427 1.388 . S
C428 C429 1.390 . S
C429 C428 1.390 . S
C429 C430 1.394 . S
C429 C435 1.465 . S
C430 C425 1.399 . S
C430 C429 1.394 . S
C430 C431 1.516 . S
C431 C430 1.516 . S
C431 C432 1.502 . S
C431 C433 1.561 . S
C431 C434 1.526 . S
C432 H416 0.959 . S
C432 H417 0.959 . S
C432 H418 0.961 . S
C432 C431 1.502 . S
C433 H419 0.960 . S
C433 H420 0.961 . S
C433 H421 0.959 . S
C433 C431 1.561 . S
C434 C431 1.526 . S
C434 C435 1.396 . S
C434 C439 1.390 . S
C435 C429 1.465 . S
C435 C434 1.396 . S
C435 C436 1.399 . S
C436 H422 0.929 . S
C436 C435 1.399 . S
C436 C437 1.385 . S
C437 H423 0.931 . S
C437 C436 1.385 . S
C437 C438 1.389 . S
C438 C437 1.389 . S
C438 C439 1.387 . S
C439 H424 0.930 . S
C439 C434 1.390 . S
C439 C438 1.387 . S
H440 C452 0.930 . S
H441 C454 0.930 . S
H442 C455 0.952 . S
H443 C459 0.959 . S
H444 C459 0.959 . S
H445 C459 0.961 . S
H446 C460 0.960 . S
H447 C460 0.961 . S
H448 C460 0.959 . S
H449 C463 0.929 . S
H450 C464 0.931 . S
H451 C466 0.930 . S
C452 H440 0.930 . S
C452 C453 1.399 . S
C452 C457 1.399 . S
C453 C452 1.399 . S
C453 C454 1.376 . S
C454 H441 0.930 . S
C454 C453 1.376 . S
C454 C455 1.388 . S
C455 H442 0.952 . S
C455 C454 1.388 . S
C455 C456 1.390 . S
C456 C455 1.390 . S
C456 C457 1.394 . S
C456 C462 1.465 1_545 S
C457 C452 1.399 . S
C457 C456 1.394 . S
C457 C458 1.516 1_554 S
C458 C457 1.516 1_556 S
C458 C459 1.502 . S
C458 C460 1.561 . S
C458 C461 1.526 1_545 S
C459 H443 0.959 . S
C459 H444 0.959 . S
C459 H445 0.961 . S
C459 C458 1.502 . S
C460 H446 0.960 . S
C460 H447 0.961 . S
C460 H448 0.959 . S
C460 C458 1.561 . S
C461 C458 1.526 1_565 S
C461 C462 1.396 1_556 S
C461 C466 1.390 . S
C462 C456 1.465 1_565 S
C462 C461 1.396 1_554 S
C462 C463 1.399 . S
C463 H449 0.929 . S
C463 C462 1.399 . S
C463 C464 1.385 1_554 S
C464 H450 0.931 . S
C464 C463 1.385 1_556 S
C464 C465 1.389 . S
C465 C464 1.389 . S
C465 C466 1.387 . S
C466 H451 0.930 . S
C466 C461 1.390 . S
C466 C465 1.387 . S
H467 C479 0.930 . S
H468 C481 0.930 . S
H469 C482 0.930 . S
H470 C486 0.979 . S
H471 C486 0.959 . S
H472 C486 0.961 1_565 S
H473 C487 0.960 . S
H474 C487 0.961 . S
H475 C487 0.959 . S
H476 C490 0.929 . S
H477 C491 0.931 . S
H478 C493 0.930 . S
C479 H467 0.930 . S
C479 C480 1.399 . S
C479 C484 1.399 . S
C480 C479 1.399 . S
C480 C481 1.376 . S
C481 H468 0.930 . S
C481 C480 1.376 . S
C481 C482 1.388 . S
C482 H469 0.930 . S
C482 C481 1.388 . S
C482 C483 1.390 . S
C483 C482 1.390 . S
C483 C484 1.394 . S
C483 C489 1.465 1_565 S
C484 C479 1.399 . S
C484 C483 1.394 . S
C484 C485 1.516 1_565 S
C485 C484 1.516 1_545 S
C485 C486 1.502 . S
C485 C487 1.561 . S
C485 C488 1.526 . S
C486 H470 0.979 . S
C486 H471 0.959 . S
C486 H472 0.961 1_545 S
C486 C485 1.502 . S
C487 H473 0.960 . S
C487 H474 0.961 . S
C487 H475 0.959 . S
C487 C485 1.561 . S
C488 C485 1.526 . S
C488 C489 1.396 . S
C488 C493 1.390 . S
C489 C483 1.465 1_545 S
C489 C488 1.396 . S
C489 C490 1.399 . S
C490 H476 0.929 . S
C490 C489 1.399 . S
C490 C491 1.385 . S
C491 H477 0.931 . S
C491 C490 1.385 . S
C491 C492 1.389 . S
C492 C491 1.389 . S
C492 C493 1.387 . S
C493 H478 0.930 . S
C493 C488 1.390 . S
C493 C492 1.387 . S
H494 C506 0.930 . S
H495 C508 0.930 . S
H496 C509 0.930 . S
H497 C513 0.980 . S
H498 C513 0.959 . S
H499 C513 0.961 . S
H500 C514 0.960 . S
H501 C514 0.961 . S
H502 C514 0.959 . S
H503 C517 0.903 1_556 S
H504 C518 0.931 . S
H505 C520 0.930 . S
C506 H494 0.930 . S
C506 C507 1.399 . S
C506 C511 1.399 . S
C507 C506 1.399 . S
C507 C508 1.376 . S
C508 H495 0.930 . S
C508 C507 1.376 . S
C508 C509 1.388 . S
C509 H496 0.930 . S
C509 C508 1.388 . S
C509 C510 1.390 . S
C510 C509 1.390 . S
C510 C511 1.394 . S
C510 C516 1.465 1_566 S
C511 C506 1.399 . S
C511 C510 1.394 . S
C511 C512 1.516 1_556 S
C512 C511 1.516 1_554 S
C512 C513 1.502 . S
C512 C514 1.561 . S
C512 C515 1.526 1_565 S
C513 H497 0.980 . S
C513 H498 0.959 . S
C513 H499 0.961 . S
C513 C512 1.502 . S
C514 H500 0.960 . S
C514 H501 0.961 . S
C514 H502 0.959 . S
C514 C512 1.561 . S
C515 C512 1.526 1_545 S
C515 C516 1.396 . S
C515 C520 1.390 . S
C516 C510 1.465 1_544 S
C516 C515 1.396 . S
C516 C517 1.401 . S
C517 H503 0.903 1_554 S
C517 C516 1.401 . S
C517 C518 1.411 . S
C518 H504 0.931 . S
C518 C517 1.411 . S
C518 C519 1.389 . S
C519 C518 1.389 . S
C519 C520 1.387 . S
C520 H505 0.930 . S
C520 C515 1.390 . S
C520 C519 1.387 . S
H521 C533 0.930 . S
H522 C535 0.930 . S
H523 C536 0.930 1_565 S
H524 C540 0.959 . S
H525 C540 0.959 . S
H526 C540 0.961 . S
H527 C541 0.960 . S
H528 C541 0.961 . S
H529 C541 0.959 . S
H530 C544 0.929 . S
H531 C545 0.931 . S
H532 C547 0.930 . S
C533 H521 0.930 . S
C533 C534 1.399 . S
C533 C538 1.399 . S
C534 C533 1.399 . S
C534 C535 1.376 . S
C535 H522 0.930 . S
C535 C534 1.376 . S
C535 C536 1.388 . S
C536 H523 0.930 1_545 S
C536 C535 1.388 . S
C536 C537 1.390 . S
C537 C536 1.390 . S
C537 C538 1.394 . S
C537 C543 1.465 1_545 S
C538 C533 1.399 . S
C538 C537 1.394 . S
C538 C539 1.516 . S
C539 C538 1.516 . S
C539 C540 1.502 . S
C539 C541 1.561 . S
C539 C542 1.526 1_545 S
C540 H524 0.959 . S
C540 H525 0.959 . S
C540 H526 0.961 . S
C540 C539 1.502 . S
C541 H527 0.960 . S
C541 H528 0.961 . S
C541 H529 0.959 . S
C541 C539 1.561 . S
C542 C539 1.526 1_565 S
C542 C543 1.396 . S
C542 C547 1.390 . S
C543 C537 1.465 1_565 S
C543 C542 1.396 . S
C543 C544 1.399 . S
C544 H530 0.929 . S
C544 C543 1.399 . S
C544 C545 1.385 . S
C545 H531 0.931 . S
C545 C544 1.385 . S
C545 C546 1.389 . S
C546 C545 1.389 . S
C546 C547 1.387 . S
C547 H532 0.930 . S
C547 C542 1.390 . S
C547 C546 1.387 . S
H548 C560 0.930 . S
H549 C562 0.930 . S
H550 C563 0.930 . S
H551 C567 0.959 . S
H552 C567 0.959 . S
H553 C567 0.961 . S
H554 C568 0.952 1_556 S
H555 C568 0.961 . S
H556 C568 0.959 1_556 S
H557 C571 0.929 . S
H558 C572 0.931 . S
H559 C574 0.930 . S
C560 H548 0.930 . S
C560 C561 1.399 . S
C560 C565 1.399 . S
C561 C560 1.399 . S
C561 C562 1.376 . S
C562 H549 0.930 . S
C562 C561 1.376 . S
C562 C563 1.388 . S
C563 H550 0.930 . S
C563 C562 1.388 . S
C563 C564 1.390 . S
C564 C563 1.390 . S
C564 C565 1.394 . S
C564 C570 1.465 . S
C565 C560 1.399 . S
C565 C564 1.394 . S
C565 C566 1.516 1_556 S
C566 C565 1.516 1_554 S
C566 C567 1.502 . S
C566 C568 1.561 . S
C566 C569 1.526 . S
C567 H551 0.959 . S
C567 H552 0.959 . S
C567 H553 0.961 . S
C567 C566 1.502 . S
C568 H554 0.952 1_554 S
C568 H555 0.961 . S
C568 H556 0.959 1_554 S
C568 C566 1.561 . S
C569 C566 1.526 . S
C569 C570 1.396 1_554 S
C569 C574 1.390 . S
C570 C564 1.465 . S
C570 C569 1.396 1_556 S
C570 C571 1.399 . S
C571 H557 0.929 . S
C571 C570 1.399 . S
C571 C572 1.385 1_556 S
C572 H558 0.931 . S
C572 C571 1.385 1_554 S
C572 C573 1.389 . S
C573 C572 1.389 . S
C573 C574 1.387 . S
C574 H559 0.930 . S
C574 C569 1.390 . S
C574 C573 1.387 . S
H575 C587 0.930 . S
H576 C589 0.930 . S
H577 C590 0.930 . S
H578 C594 0.959 . S
H579 C594 0.959 . S
H580 C594 0.961 . S
H581 C595 0.960 . S
H582 C595 0.961 . S
H583 C595 0.959 . S
H584 C598 0.929 . S
H585 C599 0.931 . S
H586 C601 0.930 . S
C587 H575 0.930 . S
C587 C588 1.399 . S
C587 C592 1.399 . S
C588 C587 1.399 . S
C588 C589 1.376 . S
C589 H576 0.930 . S
C589 C588 1.376 . S
C589 C590 1.388 . S
C590 H577 0.930 . S
C590 C589 1.388 . S
C590 C591 1.390 . S
C591 C590 1.390 . S
C591 C592 1.394 . S
C591 C597 1.465 . S
C592 C587 1.399 . S
C592 C591 1.394 . S
C592 C593 1.516 . S
C593 C592 1.516 . S
C593 C594 1.502 . S
C593 C595 1.561 . S
C593 C596 1.526 . S
C594 H578 0.959 . S
C594 H579 0.959 . S
C594 H580 0.961 . S
C594 C593 1.502 . S
C595 H581 0.960 . S
C595 H582 0.961 . S
C595 H583 0.959 . S
C595 C593 1.561 . S
C596 C593 1.526 . S
C596 C597 1.396 . S
C596 C601 1.390 . S
C597 C591 1.465 . S
C597 C596 1.396 . S
C597 C598 1.399 . S
C598 H584 0.929 . S
C598 C597 1.399 . S
C598 C599 1.385 . S
C599 H585 0.931 . S
C599 C598 1.385 . S
C599 C600 1.389 . S
C600 C599 1.389 . S
C600 C601 1.387 . S
C601 H586 0.930 . S
C601 C596 1.390 . S
C601 C600 1.387 . S
H602 C614 0.930 . S
H603 C616 0.930 . S
H604 C617 0.930 . S
H605 C621 0.959 . S
H606 C621 0.959 . S
H607 C621 0.961 . S
H608 C622 0.960 . S
H609 C622 0.961 . S
H610 C622 0.959 . S
H611 C625 0.929 . S
H612 C626 0.931 . S
H613 C628 0.930 . S
C614 H602 0.930 . S
C614 C615 1.399 . S
C614 C619 1.399 . S
C615 C614 1.399 . S
C615 C616 1.376 . S
C616 H603 0.930 . S
C616 C615 1.376 . S
C616 C617 1.388 1_554 S
C617 H604 0.930 . S
C617 C616 1.388 1_556 S
C617 C618 1.388 1_556 S
C618 C617 1.388 1_554 S
C618 C619 1.405 . S
C618 C624 1.457 1_554 S
C619 C614 1.399 . S
C619 C618 1.405 . S
C619 C620 1.516 . S
C620 C619 1.516 . S
C620 C621 1.502 . S
C620 C622 1.561 . S
C620 C623 1.526 1_554 S
C621 H605 0.959 . S
C621 H606 0.959 . S
C621 H607 0.961 . S
C621 C620 1.502 . S
C622 H608 0.960 . S
C622 H609 0.961 . S
C622 H610 0.959 . S
C622 C620 1.561 . S
C623 C620 1.526 1_556 S
C623 C624 1.396 . S
C623 C628 1.390 . S
C624 C618 1.457 1_556 S
C624 C623 1.396 . S
C624 C625 1.399 . S
C625 H611 0.929 . S
C625 C624 1.399 . S
C625 C626 1.385 . S
C626 H612 0.931 . S
C626 C625 1.385 . S
C626 C627 1.389 . S
C627 C626 1.389 . S
C627 C628 1.387 . S
C628 H613 0.930 . S
C628 C623 1.390 . S
C628 C627 1.387 . S
H629 C641 0.930 . S
H630 C643 0.930 . S
H631 C644 0.930 . S
H632 C648 0.959 . S
H633 C648 0.959 . S
H634 C648 0.961 . S
H635 C649 0.960 . S
H636 C649 0.961 . S
H637 C649 0.959 . S
H638 C652 0.929 . S
H639 C653 0.931 . S
H640 C655 0.930 . S
C641 H629 0.930 . S
C641 C642 1.399 . S
C641 C646 1.399 . S
C642 C641 1.399 . S
C642 C643 1.376 . S
C643 H630 0.930 . S
C643 C642 1.376 . S
C643 C644 1.388 . S
C644 H631 0.930 . S
C644 C643 1.388 . S
C644 C645 1.390 . S
C645 C644 1.390 . S
C645 C646 1.394 . S
C645 C651 1.465 . S
C646 C641 1.399 . S
C646 C645 1.394 . S
C646 C647 1.516 . S
C647 C646 1.516 . S
C647 C648 1.502 . S
C647 C649 1.561 . S
C647 C650 1.526 . S
C648 H632 0.959 . S
C648 H633 0.959 . S
C648 H634 0.961 . S
C648 C647 1.502 . S
C649 H635 0.960 . S
C649 H636 0.961 . S
C649 H637 0.959 . S
C649 C647 1.561 . S
C650 C647 1.526 . S
C650 C651 1.396 . S
C650 C655 1.390 . S
C651 C645 1.465 . S
C651 C650 1.396 . S
C651 C652 1.399 . S
C652 H638 0.929 . S
C652 C651 1.399 . S
C652 C653 1.385 . S
C653 H639 0.931 . S
C653 C652 1.385 . S
C653 C654 1.389 . S
C654 C653 1.389 . S
C654 C655 1.387 . S
C655 H640 0.930 . S
C655 C650 1.390 . S
C655 C654 1.387 . S
H656 C668 0.930 . S
H657 C670 0.930 . S
H658 C671 0.930 . S
H659 C675 0.959 . S
H660 C675 0.959 . S
H661 C675 0.961 . S
H662 C676 0.960 . S
H663 C676 0.961 . S
H664 C676 0.959 . S
H665 C679 0.929 . S
H666 C680 0.931 . S
H667 C682 0.930 . S
C668 H656 0.930 . S
C668 C669 1.399 . S
C668 C673 1.399 . S
C669 C668 1.399 . S
C669 C670 1.376 . S
C670 H657 0.930 . S
C670 C669 1.376 . S
C670 C671 1.388 . S
C671 H658 0.930 . S
C671 C670 1.388 . S
C671 C672 1.390 . S
C672 C671 1.390 . S
C672 C673 1.394 . S
C672 C678 1.465 . S
C673 C668 1.399 . S
C673 C672 1.394 . S
C673 C674 1.516 . S
C674 C673 1.516 . S
C674 C675 1.502 . S
C674 C676 1.561 . S
C674 C677 1.526 . S
C675 H659 0.959 . S
C675 H660 0.959 . S
C675 H661 0.961 . S
C675 C674 1.502 . S
C676 H662 0.960 . S
C676 H663 0.961 . S
C676 H664 0.959 . S
C676 C674 1.561 . S
C677 C674 1.526 . S
C677 C678 1.396 . S
C677 C682 1.390 . S
C678 C672 1.465 . S
C678 C677 1.396 . S
C678 C679 1.399 . S
C679 H665 0.929 . S
C679 C678 1.399 . S
C679 C680 1.385 . S
C680 H666 0.931 . S
C680 C679 1.385 . S
C680 C681 1.389 . S
C681 C680 1.389 . S
C681 C682 1.387 . S
C682 H667 0.930 . S
C682 C677 1.390 . S
C682 C681 1.387 . S
H683 C695 0.930 . S
H684 C697 0.930 . S
H685 C698 0.930 . S
H686 C702 0.959 . S
H687 C702 0.959 . S
H688 C702 0.961 1_655 S
H689 C703 0.935 1_655 S
H690 C703 0.984 . S
H691 C703 0.961 . S
H692 C706 0.929 . S
H693 C707 0.931 . S
H694 C709 0.930 . S
C695 H683 0.930 . S
C695 C696 1.399 . S
C695 C700 1.399 . S
C696 C695 1.399 . S
C696 C697 1.376 . S
C697 H684 0.930 . S
C697 C696 1.376 . S
C697 C698 1.388 . S
C698 H685 0.930 . S
C698 C697 1.388 . S
C698 C699 1.390 . S
C699 C698 1.390 . S
C699 C700 1.394 . S
C699 C705 1.465 1_655 S
C700 C695 1.399 . S
C700 C699 1.394 . S
C700 C701 1.495 1_655 S
C701 C700 1.495 1_455 S
C701 C702 1.503 . S
C701 C703 1.561 . S
C701 C704 1.547 . S
C702 H686 0.959 . S
C702 H687 0.959 . S
C702 H688 0.961 1_455 S
C702 C701 1.503 . S
C703 H689 0.935 1_455 S
C703 H690 0.984 . S
C703 H691 0.961 . S
C703 C701 1.561 . S
C704 C701 1.547 . S
C704 C705 1.396 . S
C704 C709 1.390 . S
C705 C699 1.465 1_455 S
C705 C704 1.396 . S
C705 C706 1.399 . S
C706 H692 0.929 . S
C706 C705 1.399 . S
C706 C707 1.385 . S
C707 H693 0.931 . S
C707 C706 1.385 . S
C707 C708 1.389 . S
C708 C707 1.389 . S
C708 C709 1.387 . S
C709 H694 0.930 . S
C709 C704 1.390 . S
C709 C708 1.387 . S
H710 C722 0.930 . S
H711 C724 0.930 . S
H712 C725 0.930 . S
H713 C729 0.959 . S
H714 C729 0.959 . S
H715 C729 0.961 . S
H716 C730 0.960 . S
H717 C730 0.961 . S
H718 C730 0.959 . S
H719 C733 0.929 . S
H720 C734 0.931 . S
H721 C736 0.930 . S
C722 H710 0.930 . S
C722 C723 1.399 . S
C722 C727 1.399 . S
C723 C722 1.399 . S
C723 C724 1.376 . S
C724 H711 0.930 . S
C724 C723 1.376 . S
C724 C725 1.388 . S
C725 H712 0.930 . S
C725 C724 1.388 . S
C725 C726 1.390 . S
C726 C725 1.390 . S
C726 C727 1.394 . S
C726 C732 1.465 . S
C727 C722 1.399 . S
C727 C726 1.394 . S
C727 C728 1.516 . S
C728 C727 1.516 . S
C728 C729 1.502 . S
C728 C730 1.561 . S
C728 C731 1.526 . S
C729 H713 0.959 . S
C729 H714 0.959 . S
C729 H715 0.961 . S
C729 C728 1.502 . S
C730 H716 0.960 . S
C730 H717 0.961 . S
C730 H718 0.959 . S
C730 C728 1.561 . S
C731 C728 1.526 . S
C731 C732 1.396 . S
C731 C736 1.390 . S
C732 C726 1.465 . S
C732 C731 1.396 . S
C732 C733 1.399 . S
C733 H719 0.929 . S
C733 C732 1.399 . S
C733 C734 1.385 . S
C734 H720 0.931 . S
C734 C733 1.385 . S
C734 C735 1.389 . S
C735 C734 1.389 . S
C735 C736 1.387 . S
C736 H721 0.930 . S
C736 C731 1.390 . S
C736 C735 1.387 . S
H737 C749 0.930 . S
H738 C751 0.930 . S
H739 C752 0.930 . S
H740 C756 0.960 . S
H741 C756 0.962 . S
H742 C756 0.957 1_455 S
H743 C757 0.960 . S
H744 C757 0.961 1_655 S
H745 C757 0.957 1_655 S
H746 C760 0.929 . S
H747 C761 0.931 . S
H748 C763 0.930 . S
C749 H737 0.930 . S
C749 C750 1.399 . S
C749 C754 1.399 . S
C750 C749 1.399 . S
C750 C751 1.376 . S
C751 H738 0.930 . S
C751 C750 1.376 . S
C751 C752 1.388 . S
C752 H739 0.930 . S
C752 C751 1.388 . S
C752 C753 1.390 . S
C753 C752 1.390 . S
C753 C754 1.394 . S
C753 C759 1.465 1_455 S
C754 C749 1.399 . S
C754 C753 1.394 . S
C754 C755 1.528 . S
C755 C754 1.528 . S
C755 C756 1.501 1_455 S
C755 C757 1.562 . S
C755 C758 1.513 1_455 S
C756 H740 0.960 . S
C756 H741 0.962 . S
C756 H742 0.957 1_655 S
C756 C755 1.501 1_655 S
C757 H743 0.960 . S
C757 H744 0.961 1_455 S
C757 H745 0.957 1_455 S
C757 C755 1.562 . S
C758 C755 1.513 1_655 S
C758 C759 1.396 . S
C758 C763 1.390 . S
C759 C753 1.465 1_655 S
C759 C758 1.396 . S
C759 C760 1.399 . S
C760 H746 0.929 . S
C760 C759 1.399 . S
C760 C761 1.385 . S
C761 H747 0.931 . S
C761 C760 1.385 . S
C761 C762 1.389 . S
C762 C761 1.389 . S
C762 C763 1.387 . S
C763 H748 0.930 . S
C763 C758 1.390 . S
C763 C762 1.387 . S
H764 C776 0.930 . S
H765 C778 0.930 . S
H766 C779 0.930 . S
H767 C783 0.959 . S
H768 C783 0.959 . S
H769 C783 0.961 1_455 S
H770 C784 0.933 1_455 S
H771 C784 0.986 . S
H772 C784 0.961 . S
H773 C787 0.929 . S
H774 C788 0.931 . S
H775 C790 0.930 . S
C776 H764 0.930 . S
C776 C777 1.399 . S
C776 C781 1.399 . S
C777 C776 1.399 . S
C777 C778 1.376 . S
C778 H765 0.930 . S
C778 C777 1.376 . S
C778 C779 1.388 . S
C779 H766 0.930 . S
C779 C778 1.388 . S
C779 C780 1.390 . S
C780 C779 1.390 . S
C780 C781 1.394 . S
C780 C786 1.465 1_455 S
C781 C776 1.399 . S
C781 C780 1.394 . S
C781 C782 1.494 1_455 S
C782 C781 1.494 1_655 S
C782 C783 1.503 . S
C782 C784 1.561 . S
C782 C785 1.547 . S
C783 H767 0.959 . S
C783 H768 0.959 . S
C783 H769 0.961 1_655 S
C783 C782 1.503 . S
C784 H770 0.933 1_655 S
C784 H771 0.986 . S
C784 H772 0.961 . S
C784 C782 1.561 . S
C785 C782 1.547 . S
C785 C786 1.396 . S
C785 C790 1.390 . S
C786 C780 1.465 1_655 S
C786 C785 1.396 . S
C786 C787 1.399 . S
C787 H773 0.929 . S
C787 C786 1.399 . S
C787 C788 1.385 . S
C788 H774 0.931 . S
C788 C787 1.385 . S
C788 C789 1.389 . S
C789 C788 1.389 . S
C789 C790 1.387 . S
C790 H775 0.930 . S
C790 C785 1.390 . S
C790 C789 1.387 . S
H791 C803 0.930 . S
H792 C805 0.930 . S
H793 C806 0.930 . S
H794 C810 0.959 . S
H795 C810 0.959 . S
H796 C810 0.961 . S
H797 C811 0.960 . S
H798 C811 0.961 . S
H799 C811 0.959 . S
H800 C814 0.929 . S
H801 C815 0.931 . S
H802 C817 0.930 . S
C803 H791 0.930 . S
C803 C804 1.399 . S
C803 C808 1.399 . S
C804 C803 1.399 . S
C804 C805 1.376 . S
C805 H792 0.930 . S
C805 C804 1.376 . S
C805 C806 1.388 . S
C806 H793 0.930 . S
C806 C805 1.388 . S
C806 C807 1.390 . S
C807 C806 1.390 . S
C807 C808 1.394 . S
C807 C813 1.465 . S
C808 C803 1.399 . S
C808 C807 1.394 . S
C808 C809 1.516 . S
C809 C808 1.516 . S
C809 C810 1.502 . S
C809 C811 1.561 . S
C809 C812 1.526 . S
C810 H794 0.959 . S
C810 H795 0.959 . S
C810 H796 0.961 . S
C810 C809 1.502 . S
C811 H797 0.960 . S
C811 H798 0.961 . S
C811 H799 0.959 . S
C811 C809 1.561 . S
C812 C809 1.526 . S
C812 C813 1.396 . S
C812 C817 1.390 . S
C813 C807 1.465 . S
C813 C812 1.396 . S
C813 C814 1.399 . S
C814 H800 0.929 . S
C814 C813 1.399 . S
C814 C815 1.385 . S
C815 H801 0.931 . S
C815 C814 1.385 . S
C815 C816 1.389 . S
C816 C815 1.389 . S
C816 C817 1.387 . S
C817 H802 0.930 . S
C817 C812 1.390 . S
C817 C816 1.387 . S
H818 C830 0.930 . S
H819 C832 0.930 . S
H820 C833 0.930 . S
H821 C837 0.959 1_655 S
H822 C837 0.954 1_655 S
H823 C837 0.967 . S
H824 C838 0.990 . S
H825 C838 0.934 1_655 S
H826 C838 0.956 1_655 S
H827 C841 0.929 . S
H828 C842 0.931 . S
H829 C844 0.930 . S
C830 H818 0.930 . S
C830 C831 1.399 . S
C830 C835 1.399 . S
C831 C830 1.399 . S
C831 C832 1.376 . S
C832 H819 0.930 . S
C832 C831 1.376 . S
C832 C833 1.388 . S
C833 H820 0.930 . S
C833 C832 1.388 . S
C833 C834 1.390 . S
C834 C833 1.390 . S
C834 C835 1.394 . S
C834 C840 1.465 1_455 S
C835 C830 1.399 . S
C835 C834 1.394 . S
C835 C836 1.531 . S
C836 C835 1.531 . S
C836 C837 1.502 . S
C836 C838 1.561 . S
C836 C839 1.511 1_455 S
C837 H821 0.959 1_455 S
C837 H822 0.954 1_455 S
C837 H823 0.967 . S
C837 C836 1.502 . S
C838 H824 0.990 . S
C838 H825 0.934 1_455 S
C838 H826 0.956 1_455 S
C838 C836 1.561 . S
C839 C836 1.511 1_655 S
C839 C840 1.396 . S
C839 C844 1.390 . S
C840 C834 1.465 1_655 S
C840 C839 1.396 . S
C840 C841 1.399 . S
C841 H827 0.929 . S
C841 C840 1.399 . S
C841 C842 1.385 . S
C842 H828 0.931 . S
C842 C841 1.385 . S
C842 C843 1.389 . S
C843 C842 1.389 . S
C843 C844 1.387 . S
C844 H829 0.930 . S
C844 C839 1.390 . S
C844 C843 1.387 . S
H845 C857 0.930 . S
H846 C859 0.930 . S
H847 C860 0.930 . S
H848 C864 0.959 . S
H849 C864 0.959 . S
H850 C864 0.961 . S
H851 C865 0.960 . S
H852 C865 0.961 . S
H853 C865 0.959 . S
H854 C868 0.929 . S
H855 C869 0.931 . S
H856 C871 0.930 . S
C857 H845 0.930 . S
C857 C858 1.399 . S
C857 C862 1.399 . S
C858 C857 1.399 . S
C858 C859 1.376 . S
C859 H846 0.930 . S
C859 C858 1.376 . S
C859 C860 1.388 . S
C860 H847 0.930 . S
C860 C859 1.388 . S
C860 C861 1.390 . S
C861 C860 1.390 . S
C861 C862 1.394 . S
C861 C867 1.465 . S
C862 C857 1.399 . S
C862 C861 1.394 . S
C862 C863 1.516 . S
C863 C862 1.516 . S
C863 C864 1.502 . S
C863 C865 1.561 . S
C863 C866 1.526 . S
C864 H848 0.959 . S
C864 H849 0.959 . S
C864 H850 0.961 . S
C864 C863 1.502 . S
C865 H851 0.960 . S
C865 H852 0.961 . S
C865 H853 0.959 . S
C865 C863 1.561 . S
C866 C863 1.526 . S
C866 C867 1.396 . S
C866 C871 1.390 . S
C867 C861 1.465 . S
C867 C866 1.396 . S
C867 C868 1.399 . S
C868 H854 0.929 . S
C868 C867 1.399 . S
C868 C869 1.385 . S
C869 H855 0.931 . S
C869 C868 1.385 . S
C869 C870 1.389 . S
C870 C869 1.389 . S
C870 C871 1.387 . S
C871 H856 0.930 . S
C871 C866 1.390 . S
C871 C870 1.387 . S
H872 C884 0.930 . S
H873 C886 0.930 . S
H874 C887 0.930 . S
H875 C891 0.959 . S
H876 C891 0.959 . S
H877 C891 0.961 . S
H878 C892 0.960 . S
H879 C892 0.961 . S
H880 C892 0.959 . S
H881 C895 0.929 . S
H882 C896 0.931 . S
H883 C898 0.930 . S
C884 H872 0.930 . S
C884 C885 1.399 . S
C884 C889 1.399 . S
C885 C884 1.399 . S
C885 C886 1.376 . S
C886 H873 0.930 . S
C886 C885 1.376 . S
C886 C887 1.388 . S
C887 H874 0.930 . S
C887 C886 1.388 . S
C887 C888 1.390 . S
C888 C887 1.390 . S
C888 C889 1.394 . S
C888 C894 1.465 . S
C889 C884 1.399 . S
C889 C888 1.394 . S
C889 C890 1.516 . S
C890 C889 1.516 . S
C890 C891 1.502 . S
C890 C892 1.561 . S
C890 C893 1.526 . S
C891 H875 0.959 . S
C891 H876 0.959 . S
C891 H877 0.961 . S
C891 C890 1.502 . S
C892 H878 0.960 . S
C892 H879 0.961 . S
C892 H880 0.959 . S
C892 C890 1.561 . S
C893 C890 1.526 . S
C893 C894 1.396 . S
C893 C898 1.390 . S
C894 C888 1.465 . S
C894 C893 1.396 . S
C894 C895 1.399 . S
C895 H881 0.929 . S
C895 C894 1.399 . S
C895 C896 1.385 . S
C896 H882 0.931 . S
C896 C895 1.385 . S
C896 C897 1.389 . S
C897 C896 1.389 . S
C897 C898 1.387 . S
C898 H883 0.930 . S
C898 C893 1.390 . S
C898 C897 1.387 . S
H899 C911 0.930 . S
H900 C913 0.930 . S
H901 C914 0.930 . S
H902 C918 0.959 . S
H903 C918 0.959 . S
H904 C918 0.961 . S
H905 C919 0.960 . S
H906 C919 0.961 . S
H907 C919 0.959 . S
H908 C922 0.929 . S
H909 C923 0.931 . S
H910 C925 0.930 . S
C911 H899 0.930 . S
C911 C912 1.399 . S
C911 C916 1.399 . S
C912 C911 1.399 . S
C912 C913 1.376 . S
C913 H900 0.930 . S
C913 C912 1.376 . S
C913 C914 1.388 . S
C914 H901 0.930 . S
C914 C913 1.388 . S
C914 C915 1.390 . S
C915 C914 1.390 . S
C915 C916 1.394 . S
C915 C921 1.465 . S
C916 C911 1.399 . S
C916 C915 1.394 . S
C916 C917 1.516 . S
C917 C916 1.516 . S
C917 C918 1.502 . S
C917 C919 1.561 . S
C917 C920 1.526 . S
C918 H902 0.959 . S
C918 H903 0.959 . S
C918 H904 0.961 . S
C918 C917 1.502 . S
C919 H905 0.960 . S
C919 H906 0.961 . S
C919 H907 0.959 . S
C919 C917 1.561 . S
C920 C917 1.526 . S
C920 C921 1.396 . S
C920 C925 1.390 . S
C921 C915 1.465 . S
C921 C920 1.396 . S
C921 C922 1.399 . S
C922 H908 0.929 . S
C922 C921 1.399 . S
C922 C923 1.385 . S
C923 H909 0.931 . S
C923 C922 1.385 . S
C923 C924 1.389 . S
C924 C923 1.389 . S
C924 C925 1.387 . S
C925 H910 0.930 . S
C925 C920 1.390 . S
C925 C924 1.387 . S
H926 C938 0.930 . S
H927 C940 0.930 . S
H928 C941 0.930 . S
H929 C945 0.959 . S
H930 C945 0.959 . S
H931 C945 0.961 . S
H932 C946 0.960 . S
H933 C946 0.961 . S
H934 C946 0.959 . S
H935 C949 0.929 . S
H936 C950 0.931 . S
H937 C952 0.930 . S
C938 H926 0.930 . S
C938 C939 1.399 . S
C938 C943 1.399 . S
C939 C938 1.399 . S
C939 C940 1.376 . S
C940 H927 0.930 . S
C940 C939 1.376 . S
C940 C941 1.388 . S
C941 H928 0.930 . S
C941 C940 1.388 . S
C941 C942 1.390 . S
C942 C941 1.390 . S
C942 C943 1.394 . S
C942 C948 1.465 . S
C943 C938 1.399 . S
C943 C942 1.394 . S
C943 C944 1.516 . S
C944 C943 1.516 . S
C944 C945 1.502 . S
C944 C946 1.561 . S
C944 C947 1.526 . S
C945 H929 0.959 . S
C945 H930 0.959 . S
C945 H931 0.961 . S
C945 C944 1.502 . S
C946 H932 0.960 . S
C946 H933 0.961 . S
C946 H934 0.959 . S
C946 C944 1.561 . S
C947 C944 1.526 . S
C947 C948 1.396 . S
C947 C952 1.390 . S
C948 C942 1.465 . S
C948 C947 1.396 . S
C948 C949 1.399 . S
C949 H935 0.929 . S
C949 C948 1.399 . S
C949 C950 1.385 . S
C950 H936 0.931 . S
C950 C949 1.385 . S
C950 C951 1.389 . S
C951 C950 1.389 . S
C951 C952 1.387 . S
C952 H937 0.930 . S
C952 C947 1.390 . S
C952 C951 1.387 . S
H953 C965 0.930 . S
H954 C967 0.930 . S
H955 C968 0.930 . S
H956 C972 0.959 . S
H957 C972 0.959 . S
H958 C972 0.961 . S
H959 C973 0.960 . S
H960 C973 0.961 . S
H961 C973 0.959 . S
H962 C976 0.929 . S
H963 C977 0.931 . S
H964 C979 0.930 . S
C965 H953 0.930 . S
C965 C966 1.399 . S
C965 C970 1.399 . S
C966 C965 1.399 . S
C966 C967 1.376 . S
C967 H954 0.930 . S
C967 C966 1.376 . S
C967 C968 1.388 . S
C968 H955 0.930 . S
C968 C967 1.388 . S
C968 C969 1.390 . S
C969 C968 1.390 . S
C969 C970 1.394 . S
C969 C975 1.465 . S
C970 C965 1.399 . S
C970 C969 1.394 . S
C970 C971 1.516 . S
C971 C970 1.516 . S
C971 C972 1.502 . S
C971 C973 1.561 . S
C971 C974 1.526 . S
C972 H956 0.959 . S
C972 H957 0.959 . S
C972 H958 0.961 . S
C972 C971 1.502 . S
C973 H959 0.960 . S
C973 H960 0.961 . S
C973 H961 0.959 . S
C973 C971 1.561 . S
C974 C971 1.526 . S
C974 C975 1.396 . S
C974 C979 1.390 . S
C975 C969 1.465 . S
C975 C974 1.396 . S
C975 C976 1.399 . S
C976 H962 0.929 . S
C976 C975 1.399 . S
C976 C977 1.385 . S
C977 H963 0.931 . S
C977 C976 1.385 . S
C977 C978 1.389 . S
C978 C977 1.389 . S
C978 C979 1.387 . S
C979 H964 0.930 . S
C979 C974 1.390 . S
C979 C978 1.387 . S
H980 C992 0.930 . S
H981 C994 0.930 . S
H982 C995 0.930 . S
H983 C999 0.959 . S
H984 C999 0.959 . S
H985 C999 0.961 . S
H986 C1000 0.960 . S
H987 C1000 0.961 . S
H988 C1000 0.959 . S
H989 C1003 0.929 . S
H990 C1004 0.931 . S
H991 C1006 0.930 . S
C992 H980 0.930 . S
C992 C993 1.399 . S
C992 C997 1.399 . S
C993 C992 1.399 . S
C993 C994 1.376 . S
C994 H981 0.930 . S
C994 C993 1.376 . S
C994 C995 1.388 . S
C995 H982 0.930 . S
C995 C994 1.388 . S
C995 C996 1.390 . S
C996 C995 1.390 . S
C996 C997 1.394 . S
C996 C1002 1.465 . S
C997 C992 1.399 . S
C997 C996 1.394 . S
C997 C998 1.516 . S
C998 C997 1.516 . S
C998 C999 1.502 . S
C998 C1000 1.561 . S
C998 C1001 1.526 . S
C999 H983 0.959 . S
C999 H984 0.959 . S
C999 H985 0.961 . S
C999 C998 1.502 . S
C1000 H986 0.960 . S
C1000 H987 0.961 . S
C1000 H988 0.959 . S
C1000 C998 1.561 . S
C1001 C998 1.526 . S
C1001 C1002 1.396 . S
C1001 C1006 1.390 . S
C1002 C996 1.465 . S
C1002 C1001 1.396 . S
C1002 C1003 1.399 . S
C1003 H989 0.929 . S
C1003 C1002 1.399 . S
C1003 C1004 1.385 . S
C1004 H990 0.931 . S
C1004 C1003 1.385 . S
C1004 C1005 1.389 . S
C1005 C1004 1.389 . S
C1005 C1006 1.387 . S
C1006 H991 0.930 . S
C1006 C1001 1.390 . S
C1006 C1005 1.387 . S
H1007 C1019 0.930 . S
H1008 C1021 0.930 . S
H1009 C1022 0.930 . S
H1010 C1026 0.959 . S
H1011 C1026 0.959 . S
H1012 C1026 0.961 . S
H1013 C1027 0.960 . S
H1014 C1027 0.961 . S
H1015 C1027 0.959 . S
H1016 C1030 0.929 . S
H1017 C1031 0.931 . S
H1018 C1033 0.930 . S
C1019 H1007 0.930 . S
C1019 C1020 1.399 . S
C1019 C1024 1.399 . S
C1020 C1019 1.399 . S
C1020 C1021 1.376 . S
C1021 H1008 0.930 . S
C1021 C1020 1.376 . S
C1021 C1022 1.388 . S
C1022 H1009 0.930 . S
C1022 C1021 1.388 . S
C1022 C1023 1.390 . S
C1023 C1022 1.390 . S
C1023 C1024 1.394 . S
C1023 C1029 1.465 . S
C1024 C1019 1.399 . S
C1024 C1023 1.394 . S
C1024 C1025 1.516 . S
C1025 C1024 1.516 . S
C1025 C1026 1.502 . S
C1025 C1027 1.561 . S
C1025 C1028 1.526 . S
C1026 H1010 0.959 . S
C1026 H1011 0.959 . S
C1026 H1012 0.961 . S
C1026 C1025 1.502 . S
C1027 H1013 0.960 . S
C1027 H1014 0.961 . S
C1027 H1015 0.959 . S
C1027 C1025 1.561 . S
C1028 C1025 1.526 . S
C1028 C1029 1.396 . S
C1028 C1033 1.390 . S
C1029 C1023 1.465 . S
C1029 C1028 1.396 . S
C1029 C1030 1.399 . S
C1030 H1016 0.929 . S
C1030 C1029 1.399 . S
C1030 C1031 1.385 . S
C1031 H1017 0.931 . S
C1031 C1030 1.385 . S
C1031 C1032 1.389 . S
C1032 C1031 1.389 . S
C1032 C1033 1.387 . S
C1033 H1018 0.930 . S
C1033 C1028 1.390 . S
C1033 C1032 1.387 . S
H1034 C1046 0.930 . S
H1035 C1048 0.930 . S
H1036 C1049 0.930 . S
H1037 C1053 0.959 . S
H1038 C1053 0.959 . S
H1039 C1053 0.961 . S
H1040 C1054 0.960 . S
H1041 C1054 0.961 . S
H1042 C1054 0.959 . S
H1043 C1057 0.929 . S
H1044 C1058 0.931 . S
H1045 C1060 0.930 . S
C1046 H1034 0.930 . S
C1046 C1047 1.399 . S
C1046 C1051 1.399 . S
C1047 C1046 1.399 . S
C1047 C1048 1.376 . S
C1048 H1035 0.930 . S
C1048 C1047 1.376 . S
C1048 C1049 1.388 . S
C1049 H1036 0.930 . S
C1049 C1048 1.388 . S
C1049 C1050 1.390 . S
C1050 C1049 1.390 . S
C1050 C1051 1.394 . S
C1050 C1056 1.465 . S
C1051 C1046 1.399 . S
C1051 C1050 1.394 . S
C1051 C1052 1.516 . S
C1052 C1051 1.516 . S
C1052 C1053 1.502 . S
C1052 C1054 1.561 . S
C1052 C1055 1.526 . S
C1053 H1037 0.959 . S
C1053 H1038 0.959 . S
C1053 H1039 0.961 . S
C1053 C1052 1.502 . S
C1054 H1040 0.960 . S
C1054 H1041 0.961 . S
C1054 H1042 0.959 . S
C1054 C1052 1.561 . S
C1055 C1052 1.526 . S
C1055 C1056 1.396 . S
C1055 C1060 1.390 . S
C1056 C1050 1.465 . S
C1056 C1055 1.396 . S
C1056 C1057 1.399 . S
C1057 H1043 0.929 . S
C1057 C1056 1.399 . S
C1057 C1058 1.385 . S
C1058 H1044 0.931 . S
C1058 C1057 1.385 . S
C1058 C1059 1.389 . S
C1059 C1058 1.389 . S
C1059 C1060 1.387 . S
C1060 H1045 0.930 . S
C1060 C1055 1.390 . S
C1060 C1059 1.387 . S
H1061 C1073 0.930 . S
H1062 C1075 0.930 . S
H1063 C1076 0.930 . S
H1064 C1080 0.959 . S
H1065 C1080 0.959 . S
H1066 C1080 0.961 . S
H1067 C1081 0.960 . S
H1068 C1081 0.961 . S
H1069 C1081 0.959 . S
H1070 C1084 0.929 . S
H1071 C1085 0.931 . S
H1072 C1087 0.930 . S
C1073 H1061 0.930 . S
C1073 C1074 1.399 . S
C1073 C1078 1.399 . S
C1074 C1073 1.399 . S
C1074 C1075 1.376 . S
C1075 H1062 0.930 . S
C1075 C1074 1.376 . S
C1075 C1076 1.388 . S
C1076 H1063 0.930 . S
C1076 C1075 1.388 . S
C1076 C1077 1.390 . S
C1077 C1076 1.390 . S
C1077 C1078 1.394 . S
C1077 C1083 1.465 . S
C1078 C1073 1.399 . S
C1078 C1077 1.394 . S
C1078 C1079 1.516 . S
C1079 C1078 1.516 . S
C1079 C1080 1.502 . S
C1079 C1081 1.561 . S
C1079 C1082 1.526 . S
C1080 H1064 0.959 . S
C1080 H1065 0.959 . S
C1080 H1066 0.961 . S
C1080 C1079 1.502 . S
C1081 H1067 0.960 . S
C1081 H1068 0.961 . S
C1081 H1069 0.959 . S
C1081 C1079 1.561 . S
C1082 C1079 1.526 . S
C1082 C1083 1.396 . S
C1082 C1087 1.390 . S
C1083 C1077 1.465 . S
C1083 C1082 1.396 . S
C1083 C1084 1.399 . S
C1084 H1070 0.929 . S
C1084 C1083 1.399 . S
C1084 C1085 1.385 . S
C1085 H1071 0.931 . S
C1085 C1084 1.385 . S
C1085 C1086 1.389 . S
C1086 C1085 1.389 . S
C1086 C1087 1.387 . S
C1087 H1072 0.930 . S
C1087 C1082 1.390 . S
C1087 C1086 1.387 . S
C237 C13 1.398 . S
C249 C179 1.421 . S
C264 C193 1.440 . S
C276 C27 1.350 . S
C291 C41 1.296 . S
C303 C207 1.434 . S
C318 C221 1.417 . S
C330 C55 1.385 . S
C345 C125 1.329 . S
C357 C67 1.423 . S
C372 C81 1.442 . S
C384 C139 1.340 . S
C399 C153 1.290 . S
C411 C95 1.440 . S
C426 C109 1.426 . S
C438 C167 1.395 . S
C453 C8 1.378 . S
C465 C36 1.336 . S
C480 C22 1.358 . S
C492 C50 1.379 . S
C507 C64 1.500 . S
C519 C92 1.518 . S
C534 C78 1.493 . S
C546 C106 1.522 . S
C561 C148 1.390 . S
C573 C120 1.342 . S
C588 C134 1.368 . S
C600 C162 1.369 . S
C615 C204 1.514 . S
C627 C176 1.488 . S
C642 C190 1.486 . S
C654 C218 1.524 . S
C669 C91 1.507 . S
C681 C7 1.470 . S
C696 C105 1.470 . S
C708 C21 1.505 . S
C723 C35 1.488 . S
C735 C63 1.485 . S
C750 C49 1.505 . S
C762 C77 1.474 . S
C777 C203 1.470 . S
C789 C119 1.505 . S
C804 C133 1.499 . S
C816 C217 1.482 . S
C831 C175 1.498 . S
C843 C147 1.483 . S
C858 C161 1.485 . S
C870 C189 1.488 . S
C885 C11 1.329 . S
C897 C53 1.318 . S
C912 C39 1.306 . S
C924 C25 1.329 . S
C939 C69 1.490 . S
C951 C111 1.440 . S
C966 C83 1.490 . S
C978 C97 1.438 . S
C993 C165 1.309 . S
C1005 C123 1.326 . S
C1020 C137 1.331 . S
C1032 C151 1.315 . S
C1047 C223 1.490 . S
C1059 C181 1.443 . S
C1074 C195 1.487 . S
C1086 C209 1.453 . S
