# Generated by pormake.
# Topology umd, (4)-cn, num edge types: 1
# Building blocks:
#     Node 0, Type 0, BuildingBlock: GALJAG_clean_sbu_0, # of connection points: 4
#     Node 1, Type 0, BuildingBlock: GALJAG_clean_sbu_0, # of connection points: 4
#     Node 2, Type 0, BuildingBlock: GALJAG_clean_sbu_0, # of connection points: 4
#     Node 3, Type 0, BuildingBlock: GALJAG_clean_sbu_0, # of connection points: 4
#     Node 4, Type 0, BuildingBlock: GALJAG_clean_sbu_0, # of connection points: 4
#     Node 5, Type 0, BuildingBlock: GALJAG_clean_sbu_0, # of connection points: 4
#     Node 6, Type 0, BuildingBlock: GALJAG_clean_sbu_0, # of connection points: 4
#     Node 7, Type 0, BuildingBlock: GALJAG_clean_sbu_0, # of connection points: 4
#     Node 8, Type 0, BuildingBlock: GALJAG_clean_sbu_0, # of connection points: 4
#     Node 9, Type 0, BuildingBlock: GALJAG_clean_sbu_0, # of connection points: 4
#     Node 10, Type 0, BuildingBlock: GALJAG_clean_sbu_0, # of connection points: 4
#     Node 11, Type 0, BuildingBlock: GALJAG_clean_sbu_0, # of connection points: 4
#     Node 12, Type 0, BuildingBlock: GALJAG_clean_sbu_0, # of connection points: 4
#     Node 13, Type 0, BuildingBlock: GALJAG_clean_sbu_0, # of connection points: 4
#     Node 14, Type 0, BuildingBlock: GALJAG_clean_sbu_0, # of connection points: 4
#     Node 15, Type 0, BuildingBlock: GALJAG_clean_sbu_0, # of connection points: 4
#     Edge 16, Type (0, 0), BuildingBlock: XUDNAN_clean_linker_2, # of connection points: 2
#     Edge 17, Type (0, 0), BuildingBlock: XUDNAN_clean_linker_2, # of connection points: 2
#     Edge 18, Type (0, 0), BuildingBlock: XUDNAN_clean_linker_2, # of connection points: 2
#     Edge 19, Type (0, 0), BuildingBlock: XUDNAN_clean_linker_2, # of connection points: 2
#     Edge 20, Type (0, 0), BuildingBlock: XUDNAN_clean_linker_2, # of connection points: 2
#     Edge 21, Type (0, 0), BuildingBlock: XUDNAN_clean_linker_2, # of connection points: 2
#     Edge 22, Type (0, 0), BuildingBlock: XUDNAN_clean_linker_2, # of connection points: 2
#     Edge 23, Type (0, 0), BuildingBlock: XUDNAN_clean_linker_2, # of connection points: 2
#     Edge 24, Type (0, 0), BuildingBlock: XUDNAN_clean_linker_2, # of connection points: 2
#     Edge 25, Type (0, 0), BuildingBlock: XUDNAN_clean_linker_2, # of connection points: 2
#     Edge 26, Type (0, 0), BuildingBlock: XUDNAN_clean_linker_2, # of connection points: 2
#     Edge 27, Type (0, 0), BuildingBlock: XUDNAN_clean_linker_2, # of connection points: 2
#     Edge 28, Type (0, 0), BuildingBlock: XUDNAN_clean_linker_2, # of connection points: 2
#     Edge 29, Type (0, 0), BuildingBlock: XUDNAN_clean_linker_2, # of connection points: 2
#     Edge 30, Type (0, 0), BuildingBlock: XUDNAN_clean_linker_2, # of connection points: 2
#     Edge 31, Type (0, 0), BuildingBlock: XUDNAN_clean_linker_2, # of connection points: 2
#     Edge 32, Type (0, 0), BuildingBlock: XUDNAN_clean_linker_2, # of connection points: 2
#     Edge 33, Type (0, 0), BuildingBlock: XUDNAN_clean_linker_2, # of connection points: 2
#     Edge 34, Type (0, 0), BuildingBlock: XUDNAN_clean_linker_2, # of connection points: 2
#     Edge 35, Type (0, 0), BuildingBlock: XUDNAN_clean_linker_2, # of connection points: 2
#     Edge 36, Type (0, 0), BuildingBlock: XUDNAN_clean_linker_2, # of connection points: 2
#     Edge 37, Type (0, 0), BuildingBlock: XUDNAN_clean_linker_2, # of connection points: 2
#     Edge 38, Type (0, 0), BuildingBlock: XUDNAN_clean_linker_2, # of connection points: 2
#     Edge 39, Type (0, 0), BuildingBlock: XUDNAN_clean_linker_2, # of connection points: 2
#     Edge 40, Type (0, 0), BuildingBlock: XUDNAN_clean_linker_2, # of connection points: 2
#     Edge 41, Type (0, 0), BuildingBlock: XUDNAN_clean_linker_2, # of connection points: 2
#     Edge 42, Type (0, 0), BuildingBlock: XUDNAN_clean_linker_2, # of connection points: 2
#     Edge 43, Type (0, 0), BuildingBlock: XUDNAN_clean_linker_2, # of connection points: 2
#     Edge 44, Type (0, 0), BuildingBlock: XUDNAN_clean_linker_2, # of connection points: 2
#     Edge 45, Type (0, 0), BuildingBlock: XUDNAN_clean_linker_2, # of connection points: 2
#     Edge 46, Type (0, 0), BuildingBlock: XUDNAN_clean_linker_2, # of connection points: 2
#     Edge 47, Type (0, 0), BuildingBlock: XUDNAN_clean_linker_2, # of connection points: 2
# Relax obj value: 0.079
# Max RMSD: 0.208
# Mean RMSD: 0.208
data_MOF--net-umd--node1-GALJAG_clean_sbu_0--edge1-XUDNAN_clean_linker_2
_symmetry_space_group_name_H-M    P1
_symmetry_Int_Tables_number       1
_symmetry_cell_setting            triclinic
loop_
_symmetry_equiv_pos_as_xyz
'x, y, z'
_cell_length_a     39.928344
_cell_length_b     39.935977
_cell_length_c     56.657452
_cell_angle_alpha  89.944241
_cell_angle_beta   89.986955
_cell_angle_gamma 90.056321
loop_
_atom_site_label
_atom_site_type_symbol
_atom_site_fract_x
_atom_site_fract_y
_atom_site_fract_z
_atom_type_partial_charge
In0 In 0.18021 0.43148 0.13217 0.0
O1 O 0.1878 0.37586 0.14005 0.0
O2 O 0.23037 0.40585 0.13113 0.0
C3 C 0.11518 0.44535 0.13943 0.0
C4 C 0.18207 0.42915 0.08501 0.0
C5 C 0.2055 0.46873 0.16725 0.0
O6 O 0.12919 0.42046 0.14909 0.0
O7 O 0.13369 0.46251 0.12604 0.0
O8 O 0.2061 0.47907 0.14607 0.0
O9 O 0.19271 0.44016 0.17014 0.0
C10 C 0.21913 0.37721 0.13645 0.0
O11 O 0.19538 0.45339 0.09608 0.0
O12 O 0.16778 0.40747 0.09777 0.0
In13 In 0.54181 0.18426 0.62389 0.0
O14 O 0.51479 0.20991 0.59294 0.0
O15 O 0.53597 0.16135 0.5878 0.0
C16 C 0.52433 0.21536 0.66402 0.0
C17 C 0.60364 0.20975 0.61825 0.0
C18 C 0.51559 0.12479 0.63616 0.0
O19 O 0.5081 0.21956 0.64502 0.0
O20 O 0.5495 0.19643 0.66233 0.0
O21 O 0.49866 0.1514 0.63466 0.0
O22 O 0.54651 0.12794 0.63142 0.0
C23 C 0.51999 0.18562 0.57908 0.0
O24 O 0.59926 0.1802 0.62585 0.0
O25 O 0.57713 0.22534 0.61318 0.0
In26 In 0.82201 0.54824 0.12916 0.0
O27 O 0.79658 0.51874 0.09947 0.0
O28 O 0.83312 0.55571 0.09053 0.0
C29 C 0.79312 0.51485 0.16528 0.0
C30 C 0.79338 0.60929 0.12782 0.0
C31 C 0.88719 0.5345 0.13794 0.0
O32 O 0.79881 0.50093 0.14566 0.0
O33 O 0.80136 0.54524 0.16625 0.0
O34 O 0.87063 0.55448 0.15059 0.0
O35 O 0.8713 0.52235 0.12081 0.0
C36 C 0.81267 0.5338 0.08336 0.0
O37 O 0.82457 0.60586 0.13094 0.0
O38 O 0.77739 0.58226 0.12553 0.0
In39 In 0.42481 0.8278 0.63832 0.0
O40 O 0.3674 0.82532 0.63821 0.0
O41 O 0.3951 0.7817 0.62881 0.0
C42 C 0.43615 0.89327 0.64698 0.0
C43 C 0.44715 0.82224 0.5937 0.0
C44 C 0.44601 0.79874 0.67857 0.0
O45 O 0.40695 0.88101 0.64652 0.0
O46 O 0.45933 0.87244 0.64355 0.0
O47 O 0.46538 0.80314 0.6612 0.0
O48 O 0.41656 0.80917 0.67561 0.0
C49 C 0.36672 0.79489 0.63197 0.0
O50 O 0.45924 0.80478 0.61028 0.0
O51 O 0.4243 0.84222 0.59981 0.0
In52 In 0.17059 0.57672 0.36595 0.0
O53 O 0.17366 0.63388 0.36888 0.0
O54 O 0.21783 0.60484 0.37446 0.0
C55 C 0.10586 0.56187 0.35806 0.0
C56 C 0.17685 0.55237 0.40996 0.0
C57 C 0.19595 0.56223 0.3232 0.0
O58 O 0.11601 0.59178 0.36007 0.0
O59 O 0.12837 0.53985 0.35984 0.0
O60 O 0.19792 0.54175 0.34024 0.0
O61 O 0.18126 0.58934 0.32788 0.0
C62 C 0.20472 0.63357 0.37345 0.0
O63 O 0.194 0.54077 0.39301 0.0
O64 O 0.15687 0.57557 0.40443 0.0
In65 In 0.43761 0.17463 0.86703 0.0
O66 O 0.47212 0.19961 0.89439 0.0
O67 O 0.43824 0.16176 0.90582 0.0
C68 C 0.45548 0.20328 0.82574 0.0
C69 C 0.37847 0.20554 0.87266 0.0
C70 C 0.44871 0.10902 0.85891 0.0
O71 O 0.47644 0.1991 0.84222 0.0
O72 O 0.42645 0.19274 0.8301 0.0
O73 O 0.41963 0.12113 0.86082 0.0
O74 O 0.47212 0.13009 0.86072 0.0
C75 C 0.46065 0.18255 0.91141 0.0
O76 O 0.38038 0.17499 0.86689 0.0
O77 O 0.40626 0.21988 0.87609 0.0
In78 In 0.82324 0.43169 0.36708 0.0
O79 O 0.8317 0.37483 0.36925 0.0
O80 O 0.7847 0.39532 0.38012 0.0
C81 C 0.88102 0.46327 0.35717 0.0
C82 C 0.81425 0.45589 0.41074 0.0
C83 C 0.79332 0.43754 0.32487 0.0
O84 O 0.8804 0.43235 0.36231 0.0
O85 O 0.85278 0.47739 0.35678 0.0
O86 O 0.78765 0.45812 0.34141 0.0
O87 O 0.81349 0.4143 0.32987 0.0
C88 C 0.80254 0.36951 0.37736 0.0
O89 O 0.79375 0.46236 0.39425 0.0
O90 O 0.83894 0.438 0.40485 0.0
In91 In 0.55502 0.81681 0.87502 0.0
O92 O 0.52682 0.79109 0.90521 0.0
O93 O 0.55713 0.83368 0.91299 0.0
C94 C 0.53396 0.78627 0.83551 0.0
C95 C 0.61729 0.79152 0.87771 0.0
C96 C 0.52763 0.87704 0.86614 0.0
O97 O 0.52036 0.78089 0.85534 0.0
O98 O 0.55851 0.80619 0.83593 0.0
O99 O 0.559 0.87361 0.86861 0.0
O100 O 0.51089 0.85043 0.86826 0.0
C101 C 0.53788 0.81107 0.9207 0.0
O102 O 0.61219 0.82108 0.87041 0.0
O103 O 0.59127 0.77555 0.88348 0.0
In104 In 0.81667 0.56173 0.86616 0.0
O105 O 0.8202 0.61918 0.86459 0.0
O106 O 0.77582 0.59627 0.87816 0.0
C107 C 0.87714 0.53701 0.8545 0.0
C108 C 0.81113 0.53955 0.91081 0.0
C109 C 0.7843 0.54792 0.82581 0.0
O110 O 0.8736 0.56725 0.86077 0.0
O111 O 0.85051 0.52007 0.85411 0.0
O112 O 0.78366 0.52798 0.8432 0.0
O113 O 0.80064 0.57456 0.82905 0.0
C114 C 0.7911 0.62305 0.87315 0.0
O115 O 0.79104 0.53014 0.89483 0.0
O116 O 0.83388 0.55928 0.90399 0.0
In117 In 0.4465 0.82765 0.37541 0.0
O118 O 0.47561 0.80466 0.40624 0.0
O119 O 0.44049 0.8434 0.4135 0.0
C120 C 0.47504 0.79831 0.33766 0.0
C121 C 0.38635 0.79735 0.37735 0.0
C122 C 0.46178 0.89177 0.36511 0.0
O123 O 0.48896 0.7985 0.35769 0.0
O124 O 0.44685 0.81243 0.33694 0.0
O125 O 0.43267 0.88001 0.36232 0.0
O126 O 0.48286 0.87134 0.37329 0.0
C127 C 0.46156 0.82284 0.42158 0.0
O128 O 0.38917 0.82841 0.37349 0.0
O129 O 0.41368 0.78202 0.38014 0.0
In130 In 0.17 0.43436 0.86481 0.0
O131 O 0.18753 0.45684 0.90033 0.0
O132 O 0.15254 0.41634 0.89993 0.0
C133 C 0.20203 0.46309 0.82845 0.0
C134 C 0.20437 0.37692 0.86498 0.0
C135 C 0.10627 0.45043 0.85447 0.0
O136 O 0.19746 0.47893 0.84757 0.0
O137 O 0.19044 0.43377 0.82798 0.0
O138 O 0.11807 0.42153 0.85068 0.0
O139 O 0.12667 0.47104 0.86335 0.0
C140 C 0.17048 0.43578 0.91208 0.0
O141 O 0.17395 0.37799 0.85855 0.0
O142 O 0.21703 0.40476 0.87081 0.0
In143 In 0.57316 0.17953 0.36993 0.0
O144 O 0.63013 0.17179 0.3712 0.0
O145 O 0.60926 0.21509 0.38745 0.0
C146 C 0.55101 0.11924 0.35567 0.0
C147 C 0.54022 0.18312 0.41132 0.0
C148 C 0.56441 0.21397 0.3295 0.0
O149 O 0.57912 0.12274 0.36576 0.0
O150 O 0.53507 0.14608 0.35232 0.0
O151 O 0.5422 0.21323 0.34543 0.0
O152 O 0.59088 0.19826 0.33436 0.0
C153 C 0.63533 0.19889 0.38219 0.0
O154 O 0.54246 0.20829 0.39783 0.0
O155 O 0.55452 0.15704 0.40397 0.0
In156 In 0.81199 0.43773 0.62768 0.0
O157 O 0.8092 0.38048 0.63136 0.0
O158 O 0.76617 0.40653 0.61913 0.0
C159 C 0.87782 0.44851 0.6353 0.0
C160 C 0.80685 0.45763 0.58237 0.0
C161 C 0.78548 0.46555 0.66685 0.0
O162 O 0.8652 0.41948 0.63488 0.0
O163 O 0.85719 0.47198 0.63207 0.0
O164 O 0.78506 0.48015 0.64707 0.0
O165 O 0.79889 0.437 0.66671 0.0
C166 C 0.77925 0.37874 0.62428 0.0
O167 O 0.78768 0.46885 0.59825 0.0
O168 O 0.82837 0.43681 0.58946 0.0
In169 In 0.57043 0.82159 0.13667 0.0
O170 O 0.62803 0.82072 0.13562 0.0
O171 O 0.60056 0.77629 0.1274 0.0
C172 C 0.54855 0.88382 0.14596 0.0
C173 C 0.5466 0.8148 0.09264 0.0
C174 C 0.55716 0.79416 0.1788 0.0
O175 O 0.57878 0.87842 0.14022 0.0
O176 O 0.53033 0.85806 0.14712 0.0
O177 O 0.53688 0.79164 0.16168 0.0
O178 O 0.58369 0.81027 0.17449 0.0
C179 C 0.62884 0.78999 0.12994 0.0
O180 O 0.53636 0.79636 0.10936 0.0
O181 O 0.56819 0.83642 0.09839 0.0
In182 In 0.17068 0.55616 0.62767 0.0
O183 O 0.19571 0.52651 0.5978 0.0
O184 O 0.15614 0.56042 0.58943 0.0
C185 C 0.19832 0.53885 0.66905 0.0
C186 C 0.1989 0.61706 0.62519 0.0
C187 C 0.11035 0.52815 0.63487 0.0
O188 O 0.20656 0.52466 0.64989 0.0
O189 O 0.17638 0.56145 0.66708 0.0
O190 O 0.11371 0.55961 0.63277 0.0
O191 O 0.13718 0.51158 0.63338 0.0
C192 C 0.17745 0.5396 0.58199 0.0
O193 O 0.16803 0.61365 0.62995 0.0
O194 O 0.21451 0.59008 0.62158 0.0
In195 In 0.46205 0.18268 0.13018 0.0
O196 O 0.49078 0.20582 0.09897 0.0
O197 O 0.45452 0.16805 0.09201 0.0
C198 C 0.49126 0.20966 0.16865 0.0
C199 C 0.40264 0.21453 0.13069 0.0
C200 C 0.47424 0.11742 0.13904 0.0
O201 O 0.50558 0.20972 0.14873 0.0
O202 O 0.46269 0.19628 0.16887 0.0
O203 O 0.44547 0.13025 0.14094 0.0
O204 O 0.49688 0.13748 0.13256 0.0
C205 C 0.47583 0.18819 0.08371 0.0
O206 O 0.40506 0.18333 0.13397 0.0
O207 O 0.43005 0.22936 0.12687 0.0
H208 H 0.06979 0.46776 0.10751 0.0
H209 H 0.08273 0.44563 0.18182 0.0
H210 H 0.02625 0.46877 0.19011 0.0
H211 H 0.02487 0.54373 0.1129 0.0
H212 H 0.99666 0.53529 0.08879 0.0
H213 H 0.038 0.51733 0.08883 0.0
H214 H 0.0127 0.45781 0.08473 0.0
H215 H 0.9713 0.47564 0.08429 0.0
H216 H 0.98167 0.44384 0.10566 0.0
H217 H 0.97004 0.49894 0.19023 0.0
H218 H 0.9145 0.52387 0.18147 0.0
H219 H 0.93674 0.52038 0.10664 0.0
C220 C 0.06051 0.46755 0.12548 0.0
C221 C 0.08034 0.45515 0.1441 0.0
C222 C 0.06758 0.4549 0.16737 0.0
C223 C 0.03574 0.46821 0.17222 0.0
C224 C 0.01693 0.48087 0.15348 0.0
C225 C 0.02852 0.47977 0.13049 0.0
C226 C 0.00287 0.49336 0.11334 0.0
C227 C 0.01642 0.52426 0.1002 0.0
C228 C 0.99146 0.46603 0.09599 0.0
C229 C 0.97517 0.50278 0.13026 0.0
C230 C 0.98393 0.49601 0.15339 0.0
C231 C 0.96276 0.50394 0.17217 0.0
C232 C 0.93147 0.51832 0.16708 0.0
C233 C 0.92157 0.52384 0.14343 0.0
C234 C 0.94379 0.51619 0.12487 0.0
H235 H 0.49558 0.92602 0.64031 0.0
H236 H 0.39161 0.94216 0.65947 0.0
H237 H 0.40213 0.00311 0.66169 0.0
H238 H 0.53186 0.99287 0.67678 0.0
H239 H 0.56254 0.00396 0.65477 0.0
H240 H 0.54762 0.96145 0.65684 0.0
H241 H 0.53032 0.96318 0.61278 0.0
H242 H 0.54508 0.00566 0.61058 0.0
H243 H 0.50252 0.9957 0.60262 0.0
H244 H 0.42285 0.06204 0.65926 0.0
H245 H 0.4519 0.11544 0.65179 0.0
H246 H 0.54257 0.06135 0.63365 0.0
C247 C 0.47516 0.94233 0.64537 0.0
C248 C 0.4428 0.92942 0.64989 0.0
C249 C 0.41659 0.95157 0.65604 0.0
C250 C 0.42236 0.98617 0.65739 0.0
C251 C 0.45445 0.99813 0.65251 0.0
C252 C 0.48044 0.97692 0.64663 0.0
C253 C 0.51201 0.99636 0.64077 0.0
C254 C 0.54017 0.98817 0.65834 0.0
C255 C 0.52312 0.98984 0.61517 0.0
C256 C 0.49959 0.0319 0.64391 0.0
C257 C 0.46639 0.03228 0.65088 0.0
C258 C 0.4489 0.06206 0.654 0.0
C259 C 0.46564 0.09226 0.64966 0.0
C260 C 0.49953 0.09254 0.6422 0.0
C261 C 0.51679 0.06192 0.63957 0.0
H262 H 0.0775 0.49977 0.36162 0.0
H263 H 0.05395 0.60389 0.34728 0.0
H264 H 0.99416 0.58891 0.3428 0.0
H265 H 0.01647 0.46254 0.32146 0.0
H266 H 0.00651 0.42871 0.34136 0.0
H267 H 0.0477 0.44719 0.34173 0.0
H268 H 0.0415 0.45945 0.38643 0.0
H269 H 0.00036 0.441 0.3862 0.0
H270 H 0.00602 0.48322 0.39671 0.0
H271 H 0.93711 0.56311 0.34142 0.0
H272 H 0.88597 0.52893 0.34489 0.0
H273 H 0.9463 0.44149 0.36108 0.0
C274 C 0.05981 0.51936 0.35725 0.0
C275 C 0.0703 0.55298 0.35462 0.0
C276 C 0.04639 0.57799 0.34928 0.0
C277 C 0.01245 0.56969 0.34664 0.0
C278 C 0.00291 0.53632 0.34949 0.0
C279 C 0.02585 0.51156 0.35475 0.0
C280 C 0.00881 0.47797 0.35821 0.0
C281 C 0.02057 0.45261 0.33957 0.0
C282 C 0.01451 0.46464 0.38338 0.0
C283 C 0.9726 0.48776 0.35434 0.0
C284 C 0.96985 0.52148 0.3491 0.0
C285 C 0.93895 0.53666 0.3454 0.0
C286 C 0.91005 0.517 0.34742 0.0
C287 C 0.91216 0.48253 0.35323 0.0
C288 C 0.94393 0.4677 0.35646 0.0
H289 H 0.55545 0.94034 0.86645 0.0
H290 H 0.46197 0.88683 0.85581 0.0
H291 H 0.43249 0.94033 0.85015 0.0
H292 H 0.52113 0.00683 0.89967 0.0
H293 H 0.54751 0.03891 0.88714 0.0
H294 H 0.56208 0.99631 0.88851 0.0
H295 H 0.57256 0.99685 0.84337 0.0
H296 H 0.55803 0.03951 0.84187 0.0
H297 H 0.53885 0.00784 0.82368 0.0
H298 H 0.41218 0.99911 0.84835 0.0
H299 H 0.40251 0.06011 0.85037 0.0
H300 H 0.50882 0.07615 0.86177 0.0
C301 C 0.52889 0.93994 0.8626 0.0
C302 C 0.51102 0.90944 0.86153 0.0
C303 C 0.47619 0.9099 0.85672 0.0
C304 C 0.45919 0.94016 0.85341 0.0
C305 C 0.47736 0.96981 0.85488 0.0
C306 C 0.51143 0.97004 0.85928 0.0
C307 C 0.52456 0.00559 0.86103 0.0
C308 C 0.5397 0.01229 0.88555 0.0
C309 C 0.55001 0.01287 0.84131 0.0
C310 C 0.49244 0.02514 0.85738 0.0
C311 C 0.46557 0.00398 0.85371 0.0
C312 C 0.43306 0.01601 0.85095 0.0
C313 C 0.42779 0.05066 0.85216 0.0
C314 C 0.45491 0.07281 0.85609 0.0
C315 C 0.48766 0.05982 0.85847 0.0
H316 H 0.94032 0.56075 0.86468 0.0
H317 H 0.88738 0.47756 0.83248 0.0
H318 H 0.94087 0.44812 0.8264 0.0
H319 H 0.01625 0.55599 0.8272 0.0
H320 H 0.04384 0.566 0.85137 0.0
H321 H 0.00174 0.58223 0.85097 0.0
H322 H 0.9909 0.55611 0.89216 0.0
H323 H 0.03283 0.53966 0.89262 0.0
H324 H 0.99763 0.51189 0.89647 0.0
H325 H 0.99902 0.4255 0.82678 0.0
H326 H 0.05862 0.41162 0.8332 0.0
H327 H 0.07425 0.50909 0.86522 0.0
C328 C 0.94015 0.53668 0.8559 0.0
C329 C 0.90976 0.52149 0.84895 0.0
C330 C 0.9104 0.48967 0.83792 0.0
C331 C 0.94066 0.47276 0.83433 0.0
C332 C 0.97012 0.48801 0.84184 0.0
C333 C 0.97022 0.5193 0.85229 0.0
C334 C 0.00522 0.52904 0.86005 0.0
C335 C 0.01748 0.56016 0.84659 0.0
C336 C 0.00672 0.53448 0.88692 0.0
C337 C 0.02453 0.49805 0.85277 0.0
C338 C 0.00384 0.47482 0.84213 0.0
C339 C 0.0156 0.44364 0.83484 0.0
C340 C 0.04943 0.43594 0.83861 0.0
C341 C 0.07104 0.4593 0.8496 0.0
C342 C 0.05838 0.49083 0.85657 0.0
H343 H 0.57344 0.05713 0.36921 0.0
H344 H 0.49335 0.10735 0.33144 0.0
H345 H 0.46322 0.05371 0.32764 0.0
H346 H 0.56922 0.97707 0.33593 0.0
H347 H 0.57764 0.95245 0.36193 0.0
H348 H 0.59467 0.99409 0.35931 0.0
H349 H 0.56698 0.01019 0.39908 0.0
H350 H 0.54954 0.96879 0.4017 0.0
H351 H 0.52243 0.00482 0.4027 0.0
H352 H 0.4389 0.99622 0.33171 0.0
H353 H 0.42382 0.93768 0.34129 0.0
H354 H 0.5199 0.9246 0.37588 0.0
C355 C 0.55 0.05664 0.35961 0.0
C356 C 0.53579 0.08633 0.35054 0.0
C357 C 0.50475 0.08485 0.33847 0.0
C358 C 0.48742 0.05451 0.33621 0.0
C359 C 0.50158 0.02584 0.34599 0.0
C360 C 0.53234 0.02651 0.35721 0.0
C361 C 0.54104 0.9925 0.36732 0.0
C362 C 0.57251 0.97818 0.3554 0.0
C363 C 0.54523 0.9942 0.39429 0.0
C364 C 0.51003 0.97288 0.36052 0.0
C365 C 0.48763 0.99253 0.34815 0.0
C366 C 0.45645 0.98042 0.34108 0.0
C367 C 0.44803 0.94724 0.34669 0.0
C368 C 0.47075 0.92664 0.3592 0.0
C369 C 0.50216 0.93968 0.36608 0.0
H370 H 0.91111 0.50845 0.63249 0.0
H371 H 0.92638 0.40224 0.64471 0.0
H372 H 0.9873 0.41194 0.6481 0.0
H373 H 0.98254 0.52082 0.59651 0.0
H374 H 0.99225 0.56182 0.60791 0.0
H375 H 0.94965 0.54701 0.60806 0.0
H376 H 0.94613 0.55738 0.65314 0.0
H377 H 0.98874 0.57229 0.65312 0.0
H378 H 0.97667 0.53842 0.67238 0.0
H379 H 0.04629 0.43246 0.64812 0.0
H380 H 0.10007 0.46229 0.6446 0.0
H381 H 0.04702 0.55554 0.63229 0.0
C382 C 0.92725 0.48729 0.63616 0.0
C383 C 0.91405 0.45457 0.63843 0.0
C384 C 0.93597 0.4275 0.64297 0.0
C385 C 0.97057 0.43278 0.64496 0.0
C386 C 0.9828 0.46528 0.6424 0.0
C387 C 0.96186 0.49211 0.63814 0.0
C388 C 0.98162 0.5243 0.63515 0.0
C389 C 0.97619 0.53936 0.61044 0.0
C390 C 0.97276 0.54959 0.65461 0.0
C391 C 0.01701 0.51127 0.63805 0.0
C392 C 0.01703 0.47718 0.64236 0.0
C393 C 0.04661 0.45918 0.64492 0.0
C394 C 0.07703 0.47637 0.64284 0.0
C395 C 0.07772 0.51126 0.63823 0.0
C396 C 0.04726 0.52894 0.63602 0.0
H397 H 0.53187 0.08204 0.13033 0.0
H398 H 0.43122 0.0721 0.15849 0.0
H399 H 0.44134 0.01207 0.16598 0.0
H400 H 0.53283 0.00432 0.10007 0.0
H401 H 0.57625 0.99543 0.1061 0.0
H402 H 0.56209 0.03815 0.10452 0.0
H403 H 0.58563 0.04915 0.14641 0.0
H404 H 0.5998 0.00639 0.14816 0.0
H405 H 0.57245 0.02292 0.17061 0.0
H406 H 0.46096 0.95327 0.16871 0.0
H407 H 0.48812 0.8982 0.16528 0.0
H408 H 0.57633 0.94528 0.13505 0.0
C409 C 0.51211 0.06727 0.1383 0.0
C410 C 0.48078 0.0817 0.14394 0.0
C411 C 0.45539 0.06154 0.15407 0.0
C412 C 0.46095 0.02747 0.15847 0.0
C413 C 0.49202 0.01397 0.15262 0.0
C414 C 0.51718 0.03313 0.1427 0.0
C415 C 0.54763 0.01192 0.13697 0.0
C416 C 0.55512 0.01249 0.11033 0.0
C417 C 0.57818 0.02328 0.15141 0.0
C418 C 0.53542 0.97776 0.1449 0.0
C419 C 0.50337 0.97969 0.15406 0.0
C420 C 0.48612 0.95144 0.16174 0.0
C421 C 0.50178 0.92027 0.15968 0.0
C422 C 0.53436 0.91749 0.14996 0.0
C423 C 0.55158 0.94672 0.14281 0.0
H424 H 0.20929 0.50086 0.304 0.0
H425 H 0.20778 0.60699 0.28791 0.0
H426 H 0.22015 0.59463 0.24614 0.0
H427 H 0.27454 0.47604 0.25913 0.0
H428 H 0.25261 0.43773 0.25248 0.0
H429 H 0.25065 0.45516 0.28179 0.0
H430 H 0.18578 0.45522 0.27962 0.0
H431 H 0.18756 0.4379 0.25042 0.0
H432 H 0.16534 0.47649 0.25552 0.0
H433 H 0.22434 0.57056 0.20535 0.0
H434 H 0.21743 0.53651 0.16913 0.0
H435 H 0.21524 0.4464 0.21188 0.0
C436 C 0.21273 0.52148 0.29181 0.0
C437 C 0.20791 0.55483 0.29914 0.0
C438 C 0.21155 0.58121 0.28261 0.0
C439 C 0.21877 0.57446 0.25888 0.0
C440 C 0.22235 0.5412 0.25198 0.0
C441 C 0.21957 0.51513 0.268 0.0
C442 C 0.22011 0.48158 0.25566 0.0
C443 C 0.25135 0.46144 0.26268 0.0
C444 C 0.18778 0.46166 0.26059 0.0
C445 C 0.22204 0.49288 0.2302 0.0
C446 C 0.22413 0.52731 0.22839 0.0
C447 C 0.22337 0.54353 0.20653 0.0
C448 C 0.21948 0.52406 0.18606 0.0
C449 C 0.2159 0.48892 0.18775 0.0
C450 C 0.2182 0.47324 0.21005 0.0
H451 H 0.55575 0.20825 0.70637 0.0
H452 H 0.46589 0.24838 0.67401 0.0
H453 H 0.44207 0.25871 0.71359 0.0
H454 H 0.51729 0.16278 0.74836 0.0
H455 H 0.54721 0.16967 0.77168 0.0
H456 H 0.56032 0.17241 0.74143 0.0
H457 H 0.58255 0.23254 0.74844 0.0
H458 H 0.5698 0.2299 0.77893 0.0
H459 H 0.55509 0.26384 0.76068 0.0
H460 H 0.42384 0.25384 0.75539 0.0
H461 H 0.41334 0.23664 0.79657 0.0
H462 H 0.51549 0.20099 0.80237 0.0
C463 C 0.53155 0.22032 0.70762 0.0
C464 C 0.51268 0.22768 0.68716 0.0
C465 C 0.48086 0.24285 0.68947 0.0
C466 C 0.46718 0.24884 0.71188 0.0
C467 C 0.48587 0.23995 0.73173 0.0
C468 C 0.51762 0.22648 0.72982 0.0
C469 C 0.53095 0.21551 0.75365 0.0
C470 C 0.53941 0.17787 0.75377 0.0
C471 C 0.5614 0.23672 0.76085 0.0
C472 C 0.501 0.22309 0.76911 0.0
C473 C 0.47546 0.23768 0.75616 0.0
C474 C 0.44393 0.24334 0.76586 0.0
C475 C 0.43816 0.23334 0.7892 0.0
C476 C 0.46379 0.21796 0.80262 0.0
C477 C 0.49583 0.21359 0.79265 0.0
H478 H 0.77827 0.54151 0.20817 0.0
H479 H 0.78289 0.44728 0.17035 0.0
H480 H 0.77264 0.4168 0.20768 0.0
H481 H 0.82382 0.51738 0.25519 0.0
H482 H 0.80074 0.5402 0.27728 0.0
H483 H 0.80095 0.55465 0.24727 0.0
H484 H 0.73608 0.55287 0.24636 0.0
H485 H 0.73564 0.5385 0.27654 0.0
H486 H 0.71454 0.51467 0.25399 0.0
H487 H 0.77349 0.39685 0.2494 0.0
H488 H 0.78386 0.38891 0.292 0.0
H489 H 0.77696 0.49605 0.30287 0.0
C490 C 0.776 0.5145 0.20761 0.0
C491 C 0.78122 0.4967 0.18639 0.0
C492 C 0.77867 0.46138 0.18639 0.0
C493 C 0.77278 0.4439 0.20751 0.0
C494 C 0.76902 0.46219 0.22832 0.0
C495 C 0.77008 0.49678 0.22847 0.0
C496 C 0.76931 0.51046 0.25339 0.0
C497 C 0.80056 0.53191 0.25857 0.0
C498 C 0.73696 0.53029 0.25783 0.0
C499 C 0.76958 0.47815 0.26735 0.0
C500 C 0.76884 0.45057 0.25256 0.0
C501 C 0.77309 0.41816 0.26118 0.0
C502 C 0.77906 0.4139 0.28536 0.0
C503 C 0.78063 0.44186 0.30065 0.0
C504 C 0.77479 0.47423 0.29163 0.0
H505 H 0.56016 0.7942 0.79144 0.0
H506 H 0.4751 0.75239 0.82892 0.0
H507 H 0.44659 0.74216 0.79092 0.0
H508 H 0.51646 0.83939 0.75212 0.0
H509 H 0.54341 0.83294 0.72701 0.0
H510 H 0.56025 0.83012 0.75632 0.0
H511 H 0.58193 0.77024 0.74773 0.0
H512 H 0.56545 0.77297 0.71816 0.0
H513 H 0.55328 0.73877 0.73711 0.0
H514 H 0.423 0.74775 0.75053 0.0
H515 H 0.40736 0.7653 0.71021 0.0
H516 H 0.50834 0.80143 0.69832 0.0
C517 C 0.53604 0.78178 0.7916 0.0
C518 C 0.51982 0.77398 0.81307 0.0
C519 C 0.48805 0.7583 0.81264 0.0
C520 C 0.4717 0.75236 0.79114 0.0
C521 C 0.48777 0.76174 0.77028 0.0
C522 C 0.51952 0.77556 0.7703 0.0
C523 C 0.52977 0.78682 0.7458 0.0
C524 C 0.53792 0.82454 0.7453 0.0
C525 C 0.55936 0.76595 0.73666 0.0
C526 C 0.49807 0.77906 0.73223 0.0
C527 C 0.47431 0.76415 0.74662 0.0
C528 C 0.44168 0.75845 0.7389 0.0
C529 C 0.43298 0.76866 0.71606 0.0
C530 C 0.45684 0.78421 0.70119 0.0
C531 C 0.48997 0.78869 0.70917 0.0
H532 H 0.78122 0.48629 0.80539 0.0
H533 H 0.75998 0.5912 0.79307 0.0
H534 H 0.74827 0.57909 0.75113 0.0
H535 H 0.82775 0.4759 0.75621 0.0
H536 H 0.81478 0.43374 0.74943 0.0
H537 H 0.81304 0.44853 0.77933 0.0
H538 H 0.74992 0.43372 0.78156 0.0
H539 H 0.75152 0.41846 0.75163 0.0
H540 H 0.72159 0.45022 0.75969 0.0
H541 H 0.74814 0.55774 0.70988 0.0
H542 H 0.76087 0.529 0.67234 0.0
H543 H 0.78468 0.43833 0.71107 0.0
C544 C 0.77258 0.50634 0.79404 0.0
C545 C 0.77079 0.53952 0.8024 0.0
C546 C 0.76098 0.56553 0.78693 0.0
C547 C 0.75421 0.55886 0.76314 0.0
C548 C 0.75756 0.52607 0.7551 0.0
C549 C 0.76639 0.50016 0.77011 0.0
C550 C 0.77328 0.4683 0.75646 0.0
C551 C 0.80934 0.45593 0.76061 0.0
C552 C 0.74753 0.44107 0.76271 0.0
C553 C 0.76845 0.48074 0.73144 0.0
C554 C 0.75861 0.5139 0.73105 0.0
C555 C 0.7552 0.53158 0.70995 0.0
C556 C 0.76258 0.51511 0.68872 0.0
C557 C 0.77364 0.48146 0.68883 0.0
C558 C 0.7759 0.46397 0.71045 0.0
H559 H 0.44775 0.7929 0.29378 0.0
H560 H 0.53961 0.77631 0.33291 0.0
H561 H 0.56911 0.76363 0.29562 0.0
H562 H 0.46384 0.72856 0.24615 0.0
H563 H 0.44531 0.75518 0.22401 0.0
H564 H 0.43013 0.75642 0.25398 0.0
H565 H 0.44074 0.82042 0.25522 0.0
H566 H 0.45607 0.81938 0.22544 0.0
H567 H 0.48199 0.8363 0.24859 0.0
H568 H 0.59056 0.76395 0.25437 0.0
H569 H 0.60193 0.77483 0.2122 0.0
H570 H 0.49583 0.78878 0.19961 0.0
C571 C 0.47383 0.78557 0.29457 0.0
C572 C 0.49145 0.78548 0.31618 0.0
C573 C 0.52564 0.77628 0.31653 0.0
C574 C 0.54255 0.76897 0.29545 0.0
C575 C 0.52471 0.77043 0.2743 0.0
C576 C 0.49096 0.77802 0.27374 0.0
C577 C 0.47835 0.78143 0.24864 0.0
C578 C 0.4529 0.75374 0.24286 0.0
C579 C 0.46344 0.81646 0.24423 0.0
C580 C 0.51067 0.77646 0.23516 0.0
C581 C 0.53704 0.76967 0.25028 0.0
C582 C 0.57001 0.76824 0.24229 0.0
C583 C 0.57625 0.77457 0.21837 0.0
C584 C 0.54965 0.78204 0.20274 0.0
C585 C 0.51642 0.78205 0.21112 0.0
H586 H 0.18674 0.52249 0.8075 0.0
H587 H 0.24837 0.43398 0.80059 0.0
H588 H 0.26271 0.45009 0.75975 0.0
H589 H 0.14936 0.51461 0.75519 0.0
H590 H 0.14636 0.55836 0.74763 0.0
H591 H 0.14864 0.54599 0.77805 0.0
H592 H 0.20064 0.5838 0.78425 0.0
H593 H 0.19824 0.59681 0.75381 0.0
H594 H 0.23649 0.57913 0.76519 0.0
H595 H 0.26102 0.46885 0.71804 0.0
H596 H 0.24396 0.48946 0.67869 0.0
H597 H 0.18175 0.56488 0.71196 0.0
C598 C 0.20473 0.50768 0.79774 0.0
C599 C 0.21728 0.47758 0.80719 0.0
C600 C 0.23921 0.45755 0.79365 0.0
C601 C 0.24747 0.46651 0.77048 0.0
C602 C 0.23336 0.49549 0.76108 0.0
C603 C 0.21268 0.51602 0.77435 0.0
C604 C 0.19645 0.54254 0.75902 0.0
C605 C 0.15794 0.5402 0.76004 0.0
C606 C 0.2087 0.57766 0.76598 0.0
C607 C 0.20973 0.53255 0.735 0.0
C608 C 0.2316 0.50587 0.73661 0.0
C609 C 0.24457 0.49027 0.71657 0.0
C610 C 0.23463 0.502 0.69429 0.0
C611 C 0.21167 0.5288 0.6923 0.0
C612 C 0.19969 0.5446 0.71295 0.0
H613 H 0.5045 0.22099 0.30707 0.0
H614 H 0.61138 0.23421 0.29771 0.0
H615 H 0.60274 0.24453 0.25516 0.0
H616 H 0.49345 0.17293 0.25909 0.0
H617 H 0.45287 0.18858 0.25059 0.0
H618 H 0.46594 0.19101 0.28086 0.0
H619 H 0.45603 0.25512 0.28083 0.0
H620 H 0.44248 0.25287 0.25051 0.0
H621 H 0.47599 0.28081 0.25873 0.0
H622 H 0.58387 0.24337 0.21305 0.0
H623 H 0.55628 0.23019 0.17505 0.0
H624 H 0.46207 0.21574 0.2118 0.0
C625 C 0.52584 0.22763 0.29622 0.0
C626 C 0.55851 0.2274 0.30563 0.0
C627 C 0.58609 0.23472 0.2908 0.0
C628 C 0.58141 0.24068 0.26663 0.0
C629 C 0.54898 0.23918 0.2576 0.0
C630 C 0.5216 0.23308 0.27199 0.0
C631 C 0.49014 0.22777 0.25756 0.0
C632 C 0.47474 0.19301 0.26231 0.0
C633 C 0.46466 0.25582 0.26218 0.0
C634 C 0.5044 0.23017 0.23286 0.0
C635 C 0.5382 0.23756 0.2332 0.0
C636 C 0.55726 0.23826 0.21254 0.0
C637 C 0.54144 0.23068 0.19105 0.0
C638 C 0.50709 0.22204 0.19052 0.0
C639 C 0.48833 0.22256 0.21165 0.0
H640 H 0.187 0.48113 0.94766 0.0
H641 H 0.16245 0.37691 0.93408 0.0
H642 H 0.16719 0.36433 0.97625 0.0
H643 H 0.24615 0.46585 0.99657 0.0
H644 H 0.23197 0.50108 0.01373 0.0
H645 H 0.2295 0.50234 0.98197 0.0
H646 H 0.16599 0.51486 0.98457 0.0
H647 H 0.16828 0.51367 0.01631 0.0
H648 H 0.13918 0.4869 0.00096 0.0
H649 H 0.17134 0.36232 0.01875 0.0
H650 H 0.17294 0.37137 0.0615 0.0
H651 H 0.19399 0.47695 0.05023 0.0
C652 C 0.183 0.4557 0.95368 0.0
C653 C 0.17428 0.42999 0.93764 0.0
C654 C 0.16882 0.39705 0.94607 0.0
C655 C 0.17169 0.38954 0.96999 0.0
C656 C 0.17983 0.41527 0.98541 0.0
C657 C 0.18527 0.44774 0.97784 0.0
C658 C 0.19156 0.47071 0.9988 0.0
C659 C 0.22691 0.48589 0.99769 0.0
C660 C 0.16464 0.49816 0.00024 0.0
C661 C 0.18836 0.44598 0.01913 0.0
C662 C 0.18188 0.41416 0.01074 0.0
C663 C 0.17656 0.38704 0.02564 0.0
C664 C 0.1774 0.39251 0.04991 0.0
C665 C 0.18352 0.42484 0.05917 0.0
C666 C 0.18956 0.45193 0.04359 0.0
H667 H 0.54096 0.23278 0.44479 0.0
H668 H 0.50386 0.13294 0.4302 0.0
H669 H 0.48431 0.12779 0.47128 0.0
H670 H 0.57595 0.21358 0.49742 0.0
H671 H 0.56646 0.25203 0.51265 0.0
H672 H 0.56997 0.25184 0.48104 0.0
H673 H 0.51035 0.27677 0.47737 0.0
H674 H 0.5067 0.27726 0.5091 0.0
H675 H 0.47564 0.256 0.49154 0.0
H676 H 0.47969 0.1281 0.51422 0.0
H677 H 0.48939 0.13438 0.55698 0.0
H678 H 0.52862 0.23422 0.54548 0.0
C679 C 0.52735 0.21055 0.45011 0.0
C680 C 0.5233 0.18344 0.43439 0.0
C681 C 0.50678 0.15405 0.44203 0.0
C682 C 0.49548 0.15098 0.46528 0.0
C683 C 0.50097 0.17751 0.48073 0.0
C684 C 0.5163 0.2069 0.47352 0.0
C685 C 0.5235 0.22944 0.4945 0.0
C686 C 0.5612 0.23714 0.49651 0.0
C687 C 0.5028 0.26179 0.49304 0.0
C688 C 0.51154 0.20732 0.51463 0.0
C689 C 0.49805 0.17776 0.50615 0.0
C690 C 0.48918 0.15152 0.52112 0.0
C691 C 0.49486 0.15522 0.54533 0.0
C692 C 0.50896 0.18501 0.55436 0.0
C693 C 0.51663 0.21173 0.53894 0.0
H694 H 0.84958 0.559 0.0472 0.0
H695 H 0.76542 0.49355 0.06213 0.0
H696 H 0.75713 0.48489 0.01916 0.0
H697 H 0.81479 0.59926 0.99775 0.0
H698 H 0.85385 0.60197 0.9819 0.0
H699 H 0.85386 0.60114 0.01365 0.0
H700 H 0.89356 0.54978 0.01312 0.0
H701 H 0.89367 0.55044 0.98133 0.0
H702 H 0.88168 0.51287 0.99684 0.0
H703 H 0.75654 0.48658 0.9739 0.0
H704 H 0.76414 0.49796 0.93116 0.0
H705 H 0.84942 0.5613 0.94732 0.0
C706 C 0.82953 0.5426 0.0415 0.0
C707 C 0.8081 0.52695 0.05795 0.0
C708 C 0.78217 0.50572 0.04976 0.0
C709 C 0.77731 0.50066 0.02543 0.0
C710 C 0.79879 0.5168 0.00964 0.0
C711 C 0.8245 0.53719 0.01745 0.0
C712 C 0.84366 0.55251 0.99715 0.0
C713 C 0.84138 0.59099 0.99765 0.0
C714 C 0.88031 0.54068 0.99711 0.0
C715 C 0.82447 0.53805 0.97658 0.0
C716 C 0.79872 0.51742 0.984 0.0
C717 C 0.77685 0.50244 0.96793 0.0
C718 C 0.78133 0.50901 0.94373 0.0
C719 C 0.80746 0.53034 0.93594 0.0
C720 C 0.82938 0.54463 0.95266 0.0
H721 H 0.42476 0.85889 0.55653 0.0
H722 H 0.49263 0.7781 0.57467 0.0
H723 H 0.50689 0.77131 0.53233 0.0
H724 H 0.39219 0.8225 0.50521 0.0
H725 H 0.38892 0.86139 0.48921 0.0
H726 H 0.38641 0.86131 0.52091 0.0
H727 H 0.43536 0.90394 0.52302 0.0
H728 H 0.43799 0.90421 0.49127 0.0
H729 H 0.47448 0.89436 0.50865 0.0
H730 H 0.51061 0.77147 0.48733 0.0
H731 H 0.5035 0.77861 0.44415 0.0
H732 H 0.43317 0.85939 0.45674 0.0
C733 C 0.44295 0.84 0.55168 0.0
C734 C 0.45766 0.81904 0.56883 0.0
C735 C 0.48117 0.7945 0.56176 0.0
C736 C 0.48941 0.79049 0.53779 0.0
C737 C 0.47403 0.81138 0.52127 0.0
C738 C 0.4514 0.83573 0.52801 0.0
C739 C 0.43715 0.85408 0.50696 0.0
C740 C 0.39891 0.84952 0.50549 0.0
C741 C 0.44684 0.89135 0.50752 0.0
C742 C 0.4548 0.8359 0.48721 0.0
C743 C 0.47617 0.81148 0.49571 0.0
C744 C 0.49418 0.79073 0.48052 0.0
C745 C 0.48999 0.79493 0.45606 0.0
C746 C 0.46787 0.8196 0.44715 0.0
C747 C 0.45042 0.84044 0.46301 0.0
H748 H 0.13791 0.57055 0.44699 0.0
H749 H 0.22422 0.50991 0.42893 0.0
H750 H 0.23205 0.49611 0.47131 0.0
H751 H 0.17102 0.6063 0.49782 0.0
H752 H 0.13207 0.60628 0.51391 0.0
H753 H 0.13174 0.60834 0.4822 0.0
H754 H 0.09372 0.5557 0.48053 0.0
H755 H 0.09381 0.55355 0.51229 0.0
H756 H 0.10683 0.51783 0.49518 0.0
H757 H 0.23243 0.49305 0.51665 0.0
H758 H 0.22503 0.50069 0.55982 0.0
H759 H 0.13837 0.56335 0.54657 0.0
C760 C 0.15822 0.55396 0.45184 0.0
C761 C 0.18046 0.54125 0.43471 0.0
C762 C 0.20679 0.51976 0.44181 0.0
C763 C 0.2114 0.51182 0.46581 0.0
C764 C 0.18927 0.52537 0.48233 0.0
C765 C 0.16306 0.5458 0.47552 0.0
C766 C 0.14361 0.55866 0.49649 0.0
C767 C 0.1447 0.59716 0.49767 0.0
C768 C 0.10735 0.54564 0.49609 0.0
C769 C 0.16337 0.54299 0.51633 0.0
C770 C 0.18948 0.52362 0.50797 0.0
C771 C 0.21184 0.50788 0.52333 0.0
C772 C 0.20749 0.51235 0.54779 0.0
C773 C 0.18111 0.53255 0.55651 0.0
C774 C 0.1587 0.54763 0.54048 0.0
H775 H 0.439 0.14711 0.9494 0.0
H776 H 0.50531 0.22849 0.92953 0.0
H777 H 0.51935 0.23742 0.97173 0.0
H778 H 0.40563 0.185 -0.0 0.0
H779 H 0.40308 0.14669 0.01675 0.0
H780 H 0.40057 0.14547 0.98506 0.0
H781 H 0.4503 0.1038 0.98373 0.0
H782 H 0.45292 0.1048 0.01547 0.0
H783 H 0.48924 0.11472 0.99789 0.0
H784 H 0.52331 0.23889 0.01694 0.0
H785 H 0.51672 0.23281 0.06028 0.0
H786 H 0.44751 0.15054 0.04911 0.0
C787 C 0.4568 0.1666 0.95383 0.0
C788 C 0.47115 0.18708 0.93622 0.0
C789 C 0.49415 0.21243 0.94279 0.0
C790 C 0.50224 0.21765 0.96668 0.0
C791 C 0.48722 0.19719 0.98366 0.0
C792 C 0.46508 0.17209 0.97742 0.0
C793 C 0.45116 0.15429 0.99883 0.0
C794 C 0.41285 0.15811 0.00023 0.0
C795 C 0.46154 0.11721 0.99898 0.0
C796 C 0.46847 0.17358 0.01822 0.0
C797 C 0.48937 0.1981 0.00926 0.0
C798 C 0.50718 0.2196 0.02409 0.0
C799 C 0.5033 0.21598 0.04866 0.0
C800 C 0.48165 0.1912 0.05803 0.0
C801 C 0.46434 0.16967 0.04251 0.0
H802 H 0.85551 0.44314 0.44766 0.0
H803 H 0.76089 0.49013 0.42997 0.0
H804 H 0.75062 0.50099 0.47247 0.0
H805 H 0.82714 0.40007 0.4966 0.0
H806 H 0.86514 0.40478 0.51345 0.0
H807 H 0.86678 0.40504 0.48175 0.0
H808 H 0.89642 0.46284 0.48246 0.0
H809 H 0.89503 0.4627 0.51425 0.0
H810 H 0.87729 0.49723 0.49802 0.0
H811 H 0.74901 0.50189 0.51762 0.0
H812 H 0.7557 0.49182 0.56057 0.0
H813 H 0.85086 0.44308 0.54733 0.0
C814 C 0.8329 0.45634 0.45261 0.0
C815 C 0.80905 0.46596 0.43555 0.0
C816 C 0.77959 0.48278 0.4428 0.0
C817 C 0.7736 0.48905 0.46687 0.0
C818 C 0.79741 0.47847 0.48331 0.0
C819 C 0.82654 0.46261 0.47638 0.0
C820 C 0.84707 0.45132 0.49731 0.0
C821 C 0.85178 0.41304 0.49727 0.0
C822 C 0.88096 0.46962 0.49805 0.0
C823 C 0.82458 0.46242 0.51722 0.0
C824 C 0.79625 0.47849 0.50894 0.0
C825 C 0.77128 0.48965 0.52426 0.0
C826 C 0.77526 0.48385 0.54859 0.0
C827 C 0.80378 0.46668 0.5572 0.0
C828 C 0.82883 0.45634 0.54127 0.0
H829 H 0.56317 0.85471 0.05565 0.0
H830 H 0.50704 0.76518 0.07357 0.0
H831 H 0.49447 0.7563 0.03115 0.0
H832 H 0.50989 0.88227 0.00654 0.0
H833 H 0.5453 0.89702 0.98974 0.0
H834 H 0.54661 0.89771 0.02152 0.0
H835 H 0.60127 0.8627 0.02078 0.0
H836 H 0.60006 0.86175 0.98907 0.0
H837 H 0.60176 0.82313 0.0055 0.0
H838 H 0.49257 0.75511 0.98603 0.0
H839 H 0.50108 0.76199 0.94293 0.0
H840 H 0.55852 0.85237 0.9559 0.0
C841 C 0.54775 0.8335 0.05075 0.0
C842 C 0.53599 0.81065 0.06785 0.0
C843 C 0.51612 0.78309 0.0607 0.0
C844 C 0.50888 0.77787 0.03668 0.0
C845 C 0.52151 0.80062 0.02019 0.0
C846 C 0.54032 0.82802 0.02703 0.0
C847 C 0.55267 0.84784 0.00604 0.0
C848 C 0.53771 0.88331 0.00596 0.0
C849 C 0.59121 0.84889 0.00532 0.0
C850 C 0.53862 0.82692 0.98619 0.0
C851 C 0.52044 0.79993 0.99458 0.0
C852 C 0.50643 0.77638 0.9793 0.0
C853 C 0.5114 0.78045 0.95489 0.0
C854 C 0.53038 0.80774 0.94612 0.0
C855 C 0.54372 0.83135 0.96205 0.0
H856 H 0.28647 0.37587 0.12924 0.0
H857 H 0.20173 0.3118 0.14555 0.0
H858 H 0.23934 0.26243 0.14561 0.0
H859 H 0.32761 0.31971 0.08993 0.0
H860 H 0.36908 0.33117 0.09957 0.0
H861 H 0.3355 0.36113 0.10128 0.0
H862 H 0.34679 0.36902 0.146 0.0
H863 H 0.38052 0.33922 0.14441 0.0
H864 H 0.34687 0.33296 0.16517 0.0
H865 H 0.28694 0.22004 0.14333 0.0
H866 H 0.34022 0.18869 0.13981 0.0
H867 H 0.39266 0.28153 0.12485 0.0
C868 C 0.27576 0.3515 0.13293 0.0
C869 C 0.24121 0.34761 0.13743 0.0
C870 C 0.22819 0.31529 0.14212 0.0
C871 C 0.24933 0.28715 0.14215 0.0
C872 C 0.28332 0.2919 0.13745 0.0
C873 C 0.29639 0.32333 0.13301 0.0
C874 C 0.33365 0.32196 0.12839 0.0
C875 C 0.34193 0.33421 0.1033 0.0
C876 C 0.35309 0.34197 0.14711 0.0
C877 C 0.33964 0.2848 0.13091 0.0
C878 C 0.31039 0.26778 0.13611 0.0
C879 C 0.30997 0.23314 0.13927 0.0
C880 C 0.3403 0.21556 0.1372 0.0
C881 C 0.3705 0.2327 0.13204 0.0
C882 C 0.36997 0.26771 0.12877 0.0
H883 H 0.71785 0.3699 0.60462 0.0
H884 H 0.79762 0.31626 0.6402 0.0
H885 H 0.76339 0.26441 0.63922 0.0
H886 H 0.65147 0.33334 0.63474 0.0
H887 H 0.62379 0.33204 0.60963 0.0
H888 H 0.65602 0.36341 0.61119 0.0
H889 H 0.67923 0.34393 0.57071 0.0
H890 H 0.64701 0.31239 0.56904 0.0
H891 H 0.69044 0.30061 0.56657 0.0
H892 H 0.71739 0.21963 0.63728 0.0
H893 H 0.6645 0.1871 0.63486 0.0
H894 H 0.6167 0.27111 0.59995 0.0
C895 C 0.72837 0.34716 0.61195 0.0
C896 C 0.76034 0.34703 0.6225 0.0
C897 C 0.77317 0.31681 0.63195 0.0
C898 C 0.75393 0.28727 0.63143 0.0
C899 C 0.72219 0.28841 0.62114 0.0
C900 C 0.7097 0.31763 0.61143 0.0
C901 C 0.67434 0.3131 0.60253 0.0
C902 C 0.64999 0.33687 0.61529 0.0
C903 C 0.67267 0.31778 0.57561 0.0
C904 C 0.66835 0.27704 0.60938 0.0
C905 C 0.69623 0.26294 0.61986 0.0
C906 C 0.6956 0.23033 0.6288 0.0
C907 C 0.66552 0.21201 0.62733 0.0
C908 C 0.63659 0.22655 0.61715 0.0
C909 C 0.63845 0.25919 0.60769 0.0
H910 H 0.72801 0.62003 0.11774 0.0
H911 H 0.81951 0.67218 0.13652 0.0
H912 H 0.78837 0.72602 0.13684 0.0
H913 H 0.69372 0.68404 0.07943 0.0
H914 H 0.65139 0.67614 0.08903 0.0
H915 H 0.68165 0.64273 0.08909 0.0
H916 H 0.66992 0.63202 0.13351 0.0
H917 H 0.63964 0.66533 0.13357 0.0
H918 H 0.67401 0.66607 0.15418 0.0
H919 H 0.74485 0.77396 0.1373 0.0
H920 H 0.69422 0.81012 0.13778 0.0
H921 H 0.6334 0.72458 0.11803 0.0
C922 C 0.74169 0.64276 0.12173 0.0
C923 C 0.77614 0.642 0.12711 0.0
C924 C 0.79306 0.6723 0.13229 0.0
C925 C 0.77559 0.70293 0.13249 0.0
C926 C 0.74138 0.70268 0.1273 0.0
C927 C 0.7248 0.67325 0.12192 0.0
C928 C 0.68793 0.67894 0.11779 0.0
C929 C 0.67811 0.66994 0.09232 0.0
C930 C 0.66664 0.65945 0.13584 0.0
C931 C 0.68603 0.71618 0.12194 0.0
C932 C 0.71697 0.72969 0.12735 0.0
C933 C 0.7206 0.76361 0.13285 0.0
C934 C 0.69179 0.78396 0.13306 0.0
C935 C 0.65995 0.77018 0.12785 0.0
C936 C 0.65738 0.73599 0.12194 0.0
H937 H 0.26424 0.62728 0.61462 0.0
H938 H 0.17397 0.67999 0.63533 0.0
H939 H 0.20627 0.73315 0.63703 0.0
H940 H 0.31881 0.6696 0.65258 0.0
H941 H 0.35345 0.66957 0.63218 0.0
H942 H 0.32244 0.63694 0.63079 0.0
H943 H 0.31146 0.6509 0.58674 0.0
H944 H 0.34254 0.68358 0.58798 0.0
H945 H 0.30055 0.6931 0.57843 0.0
H946 H 0.2506 0.78 0.63876 0.0
H947 H 0.30183 0.81519 0.64042 0.0
H948 H 0.36139 0.72987 0.61862 0.0
C949 C 0.25102 0.65002 0.61923 0.0
C950 C 0.21658 0.64958 0.62478 0.0
C951 C 0.20036 0.67986 0.6309 0.0
C952 C 0.2185 0.71011 0.6319 0.0
C953 C 0.25269 0.70947 0.62663 0.0
C954 C 0.26862 0.6801 0.62033 0.0
C955 C 0.3057 0.68526 0.6166 0.0
C956 C 0.3263 0.6641 0.63408 0.0
C957 C 0.31563 0.67777 0.59091 0.0
C958 C 0.30846 0.72212 0.62202 0.0
C959 C 0.27772 0.73589 0.62767 0.0
C960 C 0.2747 0.76947 0.63416 0.0
C961 C 0.30387 0.78925 0.63506 0.0
C962 C 0.33552 0.77526 0.62959 0.0
C963 C 0.33756 0.74138 0.62278 0.0
H964 H 0.37607 0.73133 0.38634 0.0
H965 H 0.32344 0.8234 0.36986 0.0
H966 H 0.26964 0.7923 0.36963 0.0
H967 H 0.32914 0.67882 0.34938 0.0
H968 H 0.33001 0.64355 0.36925 0.0
H969 H 0.36346 0.67373 0.36973 0.0
H970 H 0.35345 0.68353 0.41444 0.0
H971 H 0.31988 0.65335 0.41408 0.0
H972 H 0.31231 0.69524 0.42462 0.0
H973 H 0.22186 0.74947 0.36904 0.0
H974 H 0.18527 0.69925 0.36766 0.0
H975 H 0.27066 0.63667 0.38473 0.0
C976 C 0.35323 0.7451 0.38291 0.0
C977 C 0.35385 0.77974 0.37815 0.0
C978 C 0.32344 0.7968 0.37362 0.0
C979 C 0.29281 0.77937 0.37349 0.0
C980 C 0.29317 0.74503 0.37806 0.0
C981 C 0.32267 0.72819 0.38275 0.0
C982 C 0.31685 0.69114 0.38613 0.0
C983 C 0.33599 0.67062 0.36751 0.0
C984 C 0.32617 0.68018 0.41131 0.0
C985 C 0.2795 0.6895 0.3822 0.0
C986 C 0.26608 0.72076 0.37774 0.0
C987 C 0.23211 0.72494 0.37272 0.0
C988 C 0.21152 0.69634 0.37199 0.0
C989 C 0.22515 0.66415 0.37613 0.0
C990 C 0.25945 0.66096 0.38159 0.0
H991 H 0.3699 0.27104 0.88411 0.0
H992 H 0.31542 0.18251 0.86184 0.0
H993 H 0.26343 0.21612 0.85896 0.0
H994 H 0.30252 0.30889 0.91872 0.0
H995 H 0.31379 0.35067 0.90963 0.0
H996 H 0.34549 0.31876 0.9118 0.0
H997 H 0.36247 0.32988 0.86831 0.0
H998 H 0.33065 0.36157 0.86592 0.0
H999 H 0.33118 0.32705 0.84546 0.0
H1000 H 0.21824 0.26116 0.85585 0.0
H1001 H 0.18398 0.3129 0.85405 0.0
H1002 H 0.26944 0.37066 0.87817 0.0
C1003 C 0.34694 0.25853 0.87901 0.0
C1004 C 0.34659 0.22418 0.87328 0.0
C1005 C 0.31612 0.20881 0.86645 0.0
C1006 C 0.28653 0.2277 0.86473 0.0
C1007 C 0.28795 0.26178 0.87001 0.0
C1008 C 0.31739 0.27692 0.87719 0.0
C1009 C 0.31292 0.31409 0.88086 0.0
C1010 C 0.31903 0.32365 0.9068 0.0
C1011 C 0.33565 0.33432 0.86414 0.0
C1012 C 0.27648 0.31774 0.87428 0.0
C1013 C 0.26231 0.28738 0.86816 0.0
C1014 C 0.22904 0.28501 0.8608 0.0
C1015 C 0.20982 0.31447 0.85976 0.0
C1016 C 0.22408 0.34571 0.86598 0.0
C1017 C 0.25778 0.34714 0.87336 0.0
H1018 H 0.65063 0.254 0.40785 0.0
H1019 H 0.69537 0.17765 0.36366 0.0
H1020 H 0.74869 0.20942 0.36341 0.0
H1021 H 0.68095 0.31982 0.37829 0.0
H1022 H 0.68794 0.34661 0.4034 0.0
H1023 H 0.65674 0.31434 0.40488 0.0
H1024 H 0.68526 0.28942 0.44205 0.0
H1025 H 0.71656 0.32196 0.44083 0.0
H1026 H 0.72907 0.2786 0.4411 0.0
H1027 H 0.79336 0.25487 0.36211 0.0
H1028 H 0.82394 0.30891 0.35977 0.0
H1029 H 0.74867 0.3548 0.4043 0.0
C1030 C 0.672 0.24331 0.39882 0.0
C1031 C 0.66899 0.21333 0.38588 0.0
C1032 C 0.69731 0.20043 0.37393 0.0
C1033 C 0.72768 0.21832 0.3737 0.0
C1034 C 0.72933 0.24875 0.38578 0.0
C1035 C 0.70223 0.26084 0.39839 0.0
C1036 C 0.70848 0.29592 0.40733 0.0
C1037 C 0.68197 0.3206 0.3979 0.0
C1038 C 0.70994 0.29649 0.43444 0.0
C1039 C 0.74253 0.30253 0.3967 0.0
C1040 C 0.75467 0.27488 0.38479 0.0
C1041 C 0.78441 0.2764 0.37182 0.0
C1042 C 0.80164 0.30713 0.37058 0.0
C1043 C 0.78862 0.33588 0.38189 0.0
C1044 C 0.75929 0.33312 0.39561 0.0
H1045 H 0.73434 0.63581 0.89756 0.0
H1046 H 0.80953 0.68383 0.85389 0.0
H1047 H 0.776 0.73617 0.85406 0.0
H1048 H 0.666 0.66712 0.86905 0.0
H1049 H 0.64046 0.67215 0.89504 0.0
H1050 H 0.67291 0.64105 0.89458 0.0
H1051 H 0.69949 0.66701 0.93212 0.0
H1052 H 0.66688 0.69817 0.9328 0.0
H1053 H 0.71021 0.71087 0.93241 0.0
H1054 H 0.72971 0.78087 0.85512 0.0
H1055 H 0.6763 0.81259 0.85706 0.0
H1056 H 0.63298 0.7336 0.89984 0.0
C1057 C 0.74422 0.65756 0.88847 0.0
C1058 C 0.77451 0.65588 0.87575 0.0
C1059 C 0.78646 0.68476 0.86393 0.0
C1060 C 0.76757 0.71453 0.86393 0.0
C1061 C 0.73714 0.71496 0.87611 0.0
C1062 C 0.72585 0.6872 0.88838 0.0
C1063 C 0.69126 0.69262 0.89842 0.0
C1064 C 0.66621 0.66671 0.88868 0.0
C1065 C 0.69202 0.69215 0.92555 0.0
C1066 C 0.68408 0.72729 0.88913 0.0
C1067 C 0.71088 0.74019 0.87661 0.0
C1068 C 0.70882 0.77117 0.86521 0.0
C1069 C 0.67845 0.78901 0.86638 0.0
C1070 C 0.6506 0.77551 0.8786 0.0
C1071 C 0.65389 0.74463 0.89044 0.0
loop_
_geom_bond_atom_site_label_1
_geom_bond_atom_site_label_2
_geom_bond_distance
_geom_bond_site_symmetry_2
_ccdc_geom_bond_type
In0 O1 2.294 . S
In0 O2 2.326 . S
In0 O6 2.266 . S
In0 O7 2.326 . S
In0 O8 2.266 . S
In0 O9 2.326 . S
In0 O11 2.294 . S
In0 O12 2.326 . S
O1 In0 2.294 . S
O1 C10 1.240 . S
O2 In0 2.326 . S
O2 C10 1.252 . S
C3 O6 1.252 . S
C3 O7 1.260 . S
C4 O11 1.240 . S
C4 O12 1.252 . S
C5 O8 1.252 . S
C5 O9 1.260 . S
O6 In0 2.266 . S
O6 C3 1.252 . S
O7 In0 2.326 . S
O7 C3 1.260 . S
O8 In0 2.266 . S
O8 C5 1.252 . S
O9 In0 2.326 . S
O9 C5 1.260 . S
C10 O1 1.240 . S
C10 O2 1.252 . S
O11 In0 2.294 . S
O11 C4 1.240 . S
O12 In0 2.326 . S
O12 C4 1.252 . S
In13 O14 2.294 . S
In13 O15 2.326 . S
In13 O19 2.266 . S
In13 O20 2.326 . S
In13 O21 2.266 . S
In13 O22 2.326 . S
In13 O24 2.294 . S
In13 O25 2.326 . S
O14 In13 2.294 . S
O14 C23 1.240 . S
O15 In13 2.326 . S
O15 C23 1.252 . S
C16 O19 1.252 . S
C16 O20 1.260 . S
C17 O24 1.240 . S
C17 O25 1.252 . S
C18 O21 1.252 . S
C18 O22 1.260 . S
O19 In13 2.266 . S
O19 C16 1.252 . S
O20 In13 2.326 . S
O20 C16 1.260 . S
O21 In13 2.266 . S
O21 C18 1.252 . S
O22 In13 2.326 . S
O22 C18 1.260 . S
C23 O14 1.240 . S
C23 O15 1.252 . S
O24 In13 2.294 . S
O24 C17 1.240 . S
O25 In13 2.326 . S
O25 C17 1.252 . S
In26 O27 2.294 . S
In26 O28 2.326 . S
In26 O32 2.266 . S
In26 O33 2.326 . S
In26 O34 2.266 . S
In26 O35 2.326 . S
In26 O37 2.294 . S
In26 O38 2.326 . S
O27 In26 2.294 . S
O27 C36 1.240 . S
O28 In26 2.326 . S
O28 C36 1.252 . S
C29 O32 1.252 . S
C29 O33 1.260 . S
C30 O37 1.240 . S
C30 O38 1.252 . S
C31 O34 1.252 . S
C31 O35 1.260 . S
O32 In26 2.266 . S
O32 C29 1.252 . S
O33 In26 2.326 . S
O33 C29 1.260 . S
O34 In26 2.266 . S
O34 C31 1.252 . S
O35 In26 2.326 . S
O35 C31 1.260 . S
C36 O27 1.240 . S
C36 O28 1.252 . S
O37 In26 2.294 . S
O37 C30 1.240 . S
O38 In26 2.326 . S
O38 C30 1.252 . S
In39 O40 2.294 . S
In39 O41 2.326 . S
In39 O45 2.266 . S
In39 O46 2.326 . S
In39 O47 2.266 . S
In39 O48 2.326 . S
In39 O50 2.294 . S
In39 O51 2.326 . S
O40 In39 2.294 . S
O40 C49 1.240 . S
O41 In39 2.326 . S
O41 C49 1.252 . S
C42 O45 1.252 . S
C42 O46 1.260 . S
C43 O50 1.240 . S
C43 O51 1.252 . S
C44 O47 1.252 . S
C44 O48 1.260 . S
O45 In39 2.266 . S
O45 C42 1.252 . S
O46 In39 2.326 . S
O46 C42 1.260 . S
O47 In39 2.266 . S
O47 C44 1.252 . S
O48 In39 2.326 . S
O48 C44 1.260 . S
C49 O40 1.240 . S
C49 O41 1.252 . S
O50 In39 2.294 . S
O50 C43 1.240 . S
O51 In39 2.326 . S
O51 C43 1.252 . S
In52 O53 2.294 . S
In52 O54 2.326 . S
In52 O58 2.266 . S
In52 O59 2.326 . S
In52 O60 2.266 . S
In52 O61 2.326 . S
In52 O63 2.294 . S
In52 O64 2.326 . S
O53 In52 2.294 . S
O53 C62 1.240 . S
O54 In52 2.326 . S
O54 C62 1.252 . S
C55 O58 1.252 . S
C55 O59 1.260 . S
C56 O63 1.240 . S
C56 O64 1.252 . S
C57 O60 1.252 . S
C57 O61 1.260 . S
O58 In52 2.266 . S
O58 C55 1.252 . S
O59 In52 2.326 . S
O59 C55 1.260 . S
O60 In52 2.266 . S
O60 C57 1.252 . S
O61 In52 2.326 . S
O61 C57 1.260 . S
C62 O53 1.240 . S
C62 O54 1.252 . S
O63 In52 2.294 . S
O63 C56 1.240 . S
O64 In52 2.326 . S
O64 C56 1.252 . S
In65 O66 2.294 . S
In65 O67 2.326 . S
In65 O71 2.266 . S
In65 O72 2.326 . S
In65 O73 2.266 . S
In65 O74 2.326 . S
In65 O76 2.294 . S
In65 O77 2.326 . S
O66 In65 2.294 . S
O66 C75 1.240 . S
O67 In65 2.326 . S
O67 C75 1.252 . S
C68 O71 1.252 . S
C68 O72 1.260 . S
C69 O76 1.240 . S
C69 O77 1.252 . S
C70 O73 1.252 . S
C70 O74 1.260 . S
O71 In65 2.266 . S
O71 C68 1.252 . S
O72 In65 2.326 . S
O72 C68 1.260 . S
O73 In65 2.266 . S
O73 C70 1.252 . S
O74 In65 2.326 . S
O74 C70 1.260 . S
C75 O66 1.240 . S
C75 O67 1.252 . S
O76 In65 2.294 . S
O76 C69 1.240 . S
O77 In65 2.326 . S
O77 C69 1.252 . S
In78 O79 2.294 . S
In78 O80 2.326 . S
In78 O84 2.266 . S
In78 O85 2.326 . S
In78 O86 2.266 . S
In78 O87 2.326 . S
In78 O89 2.294 . S
In78 O90 2.326 . S
O79 In78 2.294 . S
O79 C88 1.240 . S
O80 In78 2.326 . S
O80 C88 1.252 . S
C81 O84 1.252 . S
C81 O85 1.260 . S
C82 O89 1.240 . S
C82 O90 1.252 . S
C83 O86 1.252 . S
C83 O87 1.260 . S
O84 In78 2.266 . S
O84 C81 1.252 . S
O85 In78 2.326 . S
O85 C81 1.260 . S
O86 In78 2.266 . S
O86 C83 1.252 . S
O87 In78 2.326 . S
O87 C83 1.260 . S
C88 O79 1.240 . S
C88 O80 1.252 . S
O89 In78 2.294 . S
O89 C82 1.240 . S
O90 In78 2.326 . S
O90 C82 1.252 . S
In91 O92 2.294 . S
In91 O93 2.326 . S
In91 O97 2.266 . S
In91 O98 2.326 . S
In91 O99 2.266 . S
In91 O100 2.326 . S
In91 O102 2.294 . S
In91 O103 2.326 . S
O92 In91 2.294 . S
O92 C101 1.240 . S
O93 In91 2.326 . S
O93 C101 1.252 . S
C94 O97 1.252 . S
C94 O98 1.260 . S
C95 O102 1.240 . S
C95 O103 1.252 . S
C96 O99 1.252 . S
C96 O100 1.260 . S
O97 In91 2.266 . S
O97 C94 1.252 . S
O98 In91 2.326 . S
O98 C94 1.260 . S
O99 In91 2.266 . S
O99 C96 1.252 . S
O100 In91 2.326 . S
O100 C96 1.260 . S
C101 O92 1.240 . S
C101 O93 1.252 . S
O102 In91 2.294 . S
O102 C95 1.240 . S
O103 In91 2.326 . S
O103 C95 1.252 . S
In104 O105 2.294 . S
In104 O106 2.326 . S
In104 O110 2.266 . S
In104 O111 2.326 . S
In104 O112 2.266 . S
In104 O113 2.326 . S
In104 O115 2.294 . S
In104 O116 2.326 . S
O105 In104 2.294 . S
O105 C114 1.240 . S
O106 In104 2.326 . S
O106 C114 1.252 . S
C107 O110 1.252 . S
C107 O111 1.260 . S
C108 O115 1.240 . S
C108 O116 1.252 . S
C109 O112 1.252 . S
C109 O113 1.260 . S
O110 In104 2.266 . S
O110 C107 1.252 . S
O111 In104 2.326 . S
O111 C107 1.260 . S
O112 In104 2.266 . S
O112 C109 1.252 . S
O113 In104 2.326 . S
O113 C109 1.260 . S
C114 O105 1.240 . S
C114 O106 1.252 . S
O115 In104 2.294 . S
O115 C108 1.240 . S
O116 In104 2.326 . S
O116 C108 1.252 . S
In117 O118 2.294 . S
In117 O119 2.326 . S
In117 O123 2.266 . S
In117 O124 2.326 . S
In117 O125 2.266 . S
In117 O126 2.326 . S
In117 O128 2.294 . S
In117 O129 2.326 . S
O118 In117 2.294 . S
O118 C127 1.240 . S
O119 In117 2.326 . S
O119 C127 1.252 . S
C120 O123 1.252 . S
C120 O124 1.260 . S
C121 O128 1.240 . S
C121 O129 1.252 . S
C122 O125 1.252 . S
C122 O126 1.260 . S
O123 In117 2.266 . S
O123 C120 1.252 . S
O124 In117 2.326 . S
O124 C120 1.260 . S
O125 In117 2.266 . S
O125 C122 1.252 . S
O126 In117 2.326 . S
O126 C122 1.260 . S
C127 O118 1.240 . S
C127 O119 1.252 . S
O128 In117 2.294 . S
O128 C121 1.240 . S
O129 In117 2.326 . S
O129 C121 1.252 . S
In130 O131 2.294 . S
In130 O132 2.326 . S
In130 O136 2.266 . S
In130 O137 2.326 . S
In130 O138 2.266 . S
In130 O139 2.326 . S
In130 O141 2.294 . S
In130 O142 2.326 . S
O131 In130 2.294 . S
O131 C140 1.240 . S
O132 In130 2.326 . S
O132 C140 1.252 . S
C133 O136 1.252 . S
C133 O137 1.260 . S
C134 O141 1.240 . S
C134 O142 1.252 . S
C135 O138 1.252 . S
C135 O139 1.260 . S
O136 In130 2.266 . S
O136 C133 1.252 . S
O137 In130 2.326 . S
O137 C133 1.260 . S
O138 In130 2.266 . S
O138 C135 1.252 . S
O139 In130 2.326 . S
O139 C135 1.260 . S
C140 O131 1.240 . S
C140 O132 1.252 . S
O141 In130 2.294 . S
O141 C134 1.240 . S
O142 In130 2.326 . S
O142 C134 1.252 . S
In143 O144 2.294 . S
In143 O145 2.326 . S
In143 O149 2.266 . S
In143 O150 2.326 . S
In143 O151 2.266 . S
In143 O152 2.326 . S
In143 O154 2.294 . S
In143 O155 2.326 . S
O144 In143 2.294 . S
O144 C153 1.240 . S
O145 In143 2.326 . S
O145 C153 1.252 . S
C146 O149 1.252 . S
C146 O150 1.260 . S
C147 O154 1.240 . S
C147 O155 1.252 . S
C148 O151 1.252 . S
C148 O152 1.260 . S
O149 In143 2.266 . S
O149 C146 1.252 . S
O150 In143 2.326 . S
O150 C146 1.260 . S
O151 In143 2.266 . S
O151 C148 1.252 . S
O152 In143 2.326 . S
O152 C148 1.260 . S
C153 O144 1.240 . S
C153 O145 1.252 . S
O154 In143 2.294 . S
O154 C147 1.240 . S
O155 In143 2.326 . S
O155 C147 1.252 . S
In156 O157 2.294 . S
In156 O158 2.326 . S
In156 O162 2.266 . S
In156 O163 2.326 . S
In156 O164 2.266 . S
In156 O165 2.326 . S
In156 O167 2.294 . S
In156 O168 2.326 . S
O157 In156 2.294 . S
O157 C166 1.240 . S
O158 In156 2.326 . S
O158 C166 1.252 . S
C159 O162 1.252 . S
C159 O163 1.260 . S
C160 O167 1.240 . S
C160 O168 1.252 . S
C161 O164 1.252 . S
C161 O165 1.260 . S
O162 In156 2.266 . S
O162 C159 1.252 . S
O163 In156 2.326 . S
O163 C159 1.260 . S
O164 In156 2.266 . S
O164 C161 1.252 . S
O165 In156 2.326 . S
O165 C161 1.260 . S
C166 O157 1.240 . S
C166 O158 1.252 . S
O167 In156 2.294 . S
O167 C160 1.240 . S
O168 In156 2.326 . S
O168 C160 1.252 . S
In169 O170 2.294 . S
In169 O171 2.326 . S
In169 O175 2.266 . S
In169 O176 2.326 . S
In169 O177 2.266 . S
In169 O178 2.326 . S
In169 O180 2.294 . S
In169 O181 2.326 . S
O170 In169 2.294 . S
O170 C179 1.240 . S
O171 In169 2.326 . S
O171 C179 1.252 . S
C172 O175 1.252 . S
C172 O176 1.260 . S
C173 O180 1.240 . S
C173 O181 1.252 . S
C174 O177 1.252 . S
C174 O178 1.260 . S
O175 In169 2.266 . S
O175 C172 1.252 . S
O176 In169 2.326 . S
O176 C172 1.260 . S
O177 In169 2.266 . S
O177 C174 1.252 . S
O178 In169 2.326 . S
O178 C174 1.260 . S
C179 O170 1.240 . S
C179 O171 1.252 . S
O180 In169 2.294 . S
O180 C173 1.240 . S
O181 In169 2.326 . S
O181 C173 1.252 . S
In182 O183 2.294 . S
In182 O184 2.326 . S
In182 O188 2.266 . S
In182 O189 2.326 . S
In182 O190 2.266 . S
In182 O191 2.326 . S
In182 O193 2.294 . S
In182 O194 2.326 . S
O183 In182 2.294 . S
O183 C192 1.240 . S
O184 In182 2.326 . S
O184 C192 1.252 . S
C185 O188 1.252 . S
C185 O189 1.260 . S
C186 O193 1.240 . S
C186 O194 1.252 . S
C187 O190 1.252 . S
C187 O191 1.260 . S
O188 In182 2.266 . S
O188 C185 1.252 . S
O189 In182 2.326 . S
O189 C185 1.260 . S
O190 In182 2.266 . S
O190 C187 1.252 . S
O191 In182 2.326 . S
O191 C187 1.260 . S
C192 O183 1.240 . S
C192 O184 1.252 . S
O193 In182 2.294 . S
O193 C186 1.240 . S
O194 In182 2.326 . S
O194 C186 1.252 . S
In195 O196 2.294 . S
In195 O197 2.326 . S
In195 O201 2.266 . S
In195 O202 2.326 . S
In195 O203 2.266 . S
In195 O204 2.326 . S
In195 O206 2.294 . S
In195 O207 2.326 . S
O196 In195 2.294 . S
O196 C205 1.240 . S
O197 In195 2.326 . S
O197 C205 1.252 . S
C198 O201 1.252 . S
C198 O202 1.260 . S
C199 O206 1.240 . S
C199 O207 1.252 . S
C200 O203 1.252 . S
C200 O204 1.260 . S
O201 In195 2.266 . S
O201 C198 1.252 . S
O202 In195 2.326 . S
O202 C198 1.260 . S
O203 In195 2.266 . S
O203 C200 1.252 . S
O204 In195 2.326 . S
O204 C200 1.260 . S
C205 O196 1.240 . S
C205 O197 1.252 . S
O206 In195 2.294 . S
O206 C199 1.240 . S
O207 In195 2.326 . S
O207 C199 1.252 . S
H208 C220 0.930 . S
H209 C222 0.930 . S
H210 C223 0.930 . S
H211 C227 0.959 . S
H212 C227 0.959 . S
H213 C227 0.961 . S
H214 C228 0.960 1_455 S
H215 C228 0.961 . S
H216 C228 0.959 . S
H217 C231 0.929 . S
H218 C232 0.931 . S
H219 C234 0.930 . S
C220 H208 0.930 . S
C220 C221 1.399 . S
C220 C225 1.399 . S
C221 C220 1.399 . S
C221 C222 1.376 . S
C222 H209 0.930 . S
C222 C221 1.376 . S
C222 C223 1.388 . S
C223 H210 0.930 . S
C223 C222 1.388 . S
C223 C224 1.390 . S
C224 C223 1.390 . S
C224 C225 1.394 . S
C224 C230 1.465 1_455 S
C225 C220 1.399 . S
C225 C224 1.394 . S
C225 C226 1.516 . S
C226 C225 1.516 . S
C226 C227 1.502 . S
C226 C228 1.561 1_455 S
C226 C229 1.526 1_455 S
C227 H211 0.959 . S
C227 H212 0.959 . S
C227 H213 0.961 . S
C227 C226 1.502 . S
C228 H214 0.960 1_655 S
C228 H215 0.961 . S
C228 H216 0.959 . S
C228 C226 1.561 1_655 S
C229 C226 1.526 1_655 S
C229 C230 1.396 . S
C229 C234 1.390 . S
C230 C224 1.465 1_655 S
C230 C229 1.396 . S
C230 C231 1.399 . S
C231 H217 0.929 . S
C231 C230 1.399 . S
C231 C232 1.385 . S
C232 H218 0.931 . S
C232 C231 1.385 . S
C232 C233 1.389 . S
C233 C232 1.389 . S
C233 C234 1.387 . S
C234 H219 0.930 . S
C234 C229 1.390 . S
C234 C233 1.387 . S
H235 C247 0.930 . S
H236 C249 0.930 . S
H237 C250 0.930 . S
H238 C254 0.959 . S
H239 C254 0.959 1_545 S
H240 C254 0.961 . S
H241 C255 0.960 1_565 S
H242 C255 0.961 . S
H243 C255 0.959 . S
H244 C258 0.929 . S
H245 C259 0.931 . S
H246 C261 0.930 . S
C247 H235 0.930 . S
C247 C248 1.399 . S
C247 C252 1.399 . S
C248 C247 1.399 . S
C248 C249 1.376 . S
C249 H236 0.930 . S
C249 C248 1.376 . S
C249 C250 1.388 . S
C250 H237 0.930 . S
C250 C249 1.388 . S
C250 C251 1.390 . S
C251 C250 1.390 . S
C251 C252 1.394 . S
C251 C257 1.465 1_565 S
C252 C247 1.399 . S
C252 C251 1.394 . S
C252 C253 1.539 . S
C253 C252 1.539 . S
C253 C254 1.515 . S
C253 C255 1.548 1_565 S
C253 C256 1.502 1_565 S
C254 H238 0.959 . S
C254 H239 0.959 1_565 S
C254 H240 0.961 . S
C254 C253 1.515 . S
C255 H241 0.960 1_545 S
C255 H242 0.961 . S
C255 H243 0.959 . S
C255 C253 1.548 1_545 S
C256 C253 1.502 1_545 S
C256 C257 1.396 . S
C256 C261 1.390 . S
C257 C251 1.465 1_545 S
C257 C256 1.396 . S
C257 C258 1.399 . S
C258 H244 0.929 . S
C258 C257 1.399 . S
C258 C259 1.385 . S
C259 H245 0.931 . S
C259 C258 1.385 . S
C259 C260 1.389 . S
C260 C259 1.389 . S
C260 C261 1.387 . S
C261 H246 0.930 . S
C261 C256 1.390 . S
C261 C260 1.387 . S
H262 C274 0.930 . S
H263 C276 0.930 . S
H264 C277 0.930 . S
H265 C281 0.959 . S
H266 C281 0.959 . S
H267 C281 0.961 . S
H268 C282 0.960 1_455 S
H269 C282 0.961 . S
H270 C282 0.959 . S
H271 C285 0.929 . S
H272 C286 0.931 . S
H273 C288 0.930 . S
C274 H262 0.930 . S
C274 C275 1.399 . S
C274 C279 1.399 . S
C275 C274 1.399 . S
C275 C276 1.376 . S
C276 H263 0.930 . S
C276 C275 1.376 . S
C276 C277 1.388 . S
C277 H264 0.930 . S
C277 C276 1.388 . S
C277 C278 1.390 . S
C278 C277 1.390 . S
C278 C279 1.394 . S
C278 C284 1.465 1_455 S
C279 C274 1.399 . S
C279 C278 1.394 . S
C279 C280 1.516 . S
C280 C279 1.516 . S
C280 C281 1.502 . S
C280 C282 1.561 1_455 S
C280 C283 1.526 1_455 S
C281 H265 0.959 . S
C281 H266 0.959 . S
C281 H267 0.961 . S
C281 C280 1.502 . S
C282 H268 0.960 1_655 S
C282 H269 0.961 . S
C282 H270 0.959 . S
C282 C280 1.561 1_655 S
C283 C280 1.526 1_655 S
C283 C284 1.396 . S
C283 C288 1.390 . S
C284 C278 1.465 1_655 S
C284 C283 1.396 . S
C284 C285 1.399 . S
C285 H271 0.929 . S
C285 C284 1.399 . S
C285 C286 1.385 . S
C286 H272 0.931 . S
C286 C285 1.385 . S
C286 C287 1.389 . S
C287 C286 1.389 . S
C287 C288 1.387 . S
C288 H273 0.930 . S
C288 C283 1.390 . S
C288 C287 1.387 . S
H289 C301 0.930 . S
H290 C303 0.930 . S
H291 C304 0.930 . S
H292 C308 0.959 . S
H293 C308 0.959 . S
H294 C308 0.985 . S
H295 C309 0.960 . S
H296 C309 0.961 1_545 S
H297 C309 0.959 . S
H298 C312 0.929 . S
H299 C313 0.931 . S
H300 C315 0.930 . S
C301 H289 0.930 . S
C301 C302 1.399 . S
C301 C306 1.399 . S
C302 C301 1.399 . S
C302 C303 1.376 . S
C303 H290 0.930 . S
C303 C302 1.376 . S
C303 C304 1.388 . S
C304 H291 0.930 . S
C304 C303 1.388 . S
C304 C305 1.390 . S
C305 C304 1.390 . S
C305 C306 1.394 . S
C305 C311 1.465 1_565 S
C306 C301 1.399 . S
C306 C305 1.394 . S
C306 C307 1.516 1_565 S
C307 C306 1.516 1_545 S
C307 C308 1.502 . S
C307 C309 1.561 1_545 S
C307 C310 1.526 . S
C308 H292 0.959 . S
C308 H293 0.959 . S
C308 H294 0.985 . S
C308 C307 1.502 . S
C309 H295 0.960 . S
C309 H296 0.961 1_565 S
C309 H297 0.959 . S
C309 C307 1.561 1_565 S
C310 C307 1.526 . S
C310 C311 1.396 . S
C310 C315 1.390 . S
C311 C305 1.465 1_545 S
C311 C310 1.396 . S
C311 C312 1.399 . S
C312 H298 0.929 . S
C312 C311 1.399 . S
C312 C313 1.385 . S
C313 H299 0.931 . S
C313 C312 1.385 . S
C313 C314 1.389 . S
C314 C313 1.389 . S
C314 C315 1.387 . S
C315 H300 0.930 . S
C315 C310 1.390 . S
C315 C314 1.387 . S
H316 C328 0.930 . S
H317 C330 0.930 . S
H318 C331 0.930 . S
H319 C335 0.959 . S
H320 C335 0.959 . S
H321 C335 0.961 . S
H322 C336 0.960 . S
H323 C336 0.961 1_455 S
H324 C336 0.959 . S
H325 C339 0.929 . S
H326 C340 0.931 . S
H327 C342 0.930 . S
C328 H316 0.930 . S
C328 C329 1.399 . S
C328 C333 1.399 . S
C329 C328 1.399 . S
C329 C330 1.376 . S
C330 H317 0.930 . S
C330 C329 1.376 . S
C330 C331 1.388 . S
C331 H318 0.930 . S
C331 C330 1.388 . S
C331 C332 1.390 . S
C332 C331 1.390 . S
C332 C333 1.394 . S
C332 C338 1.465 1_655 S
C333 C328 1.399 . S
C333 C332 1.394 . S
C333 C334 1.516 1_655 S
C334 C333 1.516 1_455 S
C334 C335 1.502 . S
C334 C336 1.561 1_455 S
C334 C337 1.526 . S
C335 H319 0.959 . S
C335 H320 0.959 . S
C335 H321 0.961 . S
C335 C334 1.502 . S
C336 H322 0.960 . S
C336 H323 0.961 1_655 S
C336 H324 0.959 . S
C336 C334 1.561 1_655 S
C337 C334 1.526 . S
C337 C338 1.396 . S
C337 C342 1.390 . S
C338 C332 1.465 1_455 S
C338 C337 1.396 . S
C338 C339 1.399 . S
C339 H325 0.929 . S
C339 C338 1.399 . S
C339 C340 1.385 . S
C340 H326 0.931 . S
C340 C339 1.385 . S
C340 C341 1.389 . S
C341 C340 1.389 . S
C341 C342 1.387 . S
C342 H327 0.930 . S
C342 C337 1.390 . S
C342 C341 1.387 . S
H343 C355 0.930 . S
H344 C357 0.930 . S
H345 C358 0.930 . S
H346 C362 0.959 . S
H347 C362 0.959 . S
H348 C362 0.961 . S
H349 C363 0.960 . S
H350 C363 0.961 1_565 S
H351 C363 0.959 . S
H352 C366 0.929 . S
H353 C367 0.931 . S
H354 C369 0.930 . S
C355 H343 0.930 . S
C355 C356 1.399 . S
C355 C360 1.399 . S
C356 C355 1.399 . S
C356 C357 1.376 . S
C357 H344 0.930 . S
C357 C356 1.376 . S
C357 C358 1.388 . S
C358 H345 0.930 . S
C358 C357 1.388 . S
C358 C359 1.390 . S
C359 C358 1.390 . S
C359 C360 1.394 . S
C359 C365 1.465 1_545 S
C360 C355 1.399 . S
C360 C359 1.394 . S
C360 C361 1.516 1_545 S
C361 C360 1.516 1_565 S
C361 C362 1.502 . S
C361 C363 1.561 1_565 S
C361 C364 1.526 . S
C362 H346 0.959 . S
C362 H347 0.959 . S
C362 H348 0.961 . S
C362 C361 1.502 . S
C363 H349 0.960 . S
C363 H350 0.961 1_545 S
C363 H351 0.959 . S
C363 C361 1.561 1_545 S
C364 C361 1.526 . S
C364 C365 1.396 . S
C364 C369 1.390 . S
C365 C359 1.465 1_565 S
C365 C364 1.396 . S
C365 C366 1.399 . S
C366 H352 0.929 . S
C366 C365 1.399 . S
C366 C367 1.385 . S
C367 H353 0.931 . S
C367 C366 1.385 . S
C367 C368 1.389 . S
C368 C367 1.389 . S
C368 C369 1.387 . S
C369 H354 0.930 . S
C369 C364 1.390 . S
C369 C368 1.387 . S
H370 C382 0.930 . S
H371 C384 0.930 . S
H372 C385 0.930 . S
H373 C389 0.959 . S
H374 C389 0.959 . S
H375 C389 0.961 . S
H376 C390 0.960 1_655 S
H377 C390 0.961 . S
H378 C390 0.959 . S
H379 C393 0.929 . S
H380 C394 0.931 . S
H381 C396 0.930 . S
C382 H370 0.930 . S
C382 C383 1.399 . S
C382 C387 1.399 . S
C383 C382 1.399 . S
C383 C384 1.376 . S
C384 H371 0.930 . S
C384 C383 1.376 . S
C384 C385 1.388 . S
C385 H372 0.930 . S
C385 C384 1.388 . S
C385 C386 1.390 . S
C386 C385 1.390 . S
C386 C387 1.394 . S
C386 C392 1.465 1_655 S
C387 C382 1.399 . S
C387 C386 1.394 . S
C387 C388 1.516 . S
C388 C387 1.516 . S
C388 C389 1.502 . S
C388 C390 1.561 1_655 S
C388 C391 1.526 1_655 S
C389 H373 0.959 . S
C389 H374 0.959 . S
C389 H375 0.961 . S
C389 C388 1.502 . S
C390 H376 0.960 1_455 S
C390 H377 0.961 . S
C390 H378 0.959 . S
C390 C388 1.561 1_455 S
C391 C388 1.526 1_455 S
C391 C392 1.396 . S
C391 C396 1.390 . S
C392 C386 1.465 1_455 S
C392 C391 1.396 . S
C392 C393 1.399 . S
C393 H379 0.929 . S
C393 C392 1.399 . S
C393 C394 1.385 . S
C394 H380 0.931 . S
C394 C393 1.385 . S
C394 C395 1.389 . S
C395 C394 1.389 . S
C395 C396 1.387 . S
C396 H381 0.930 . S
C396 C391 1.390 . S
C396 C395 1.387 . S
H397 C409 0.930 . S
H398 C411 0.930 . S
H399 C412 0.930 . S
H400 C416 0.959 . S
H401 C416 0.959 . S
H402 C416 0.961 . S
H403 C417 0.960 1_545 S
H404 C417 0.961 . S
H405 C417 0.959 . S
H406 C420 0.929 . S
H407 C421 0.931 . S
H408 C423 0.930 . S
C409 H397 0.930 . S
C409 C410 1.399 . S
C409 C414 1.399 . S
C410 C409 1.399 . S
C410 C411 1.376 . S
C411 H398 0.930 . S
C411 C410 1.376 . S
C411 C412 1.388 . S
C412 H399 0.930 . S
C412 C411 1.388 . S
C412 C413 1.390 . S
C413 C412 1.390 . S
C413 C414 1.394 . S
C413 C419 1.465 1_545 S
C414 C409 1.399 . S
C414 C413 1.394 . S
C414 C415 1.516 . S
C415 C414 1.516 . S
C415 C416 1.502 . S
C415 C417 1.561 1_545 S
C415 C418 1.526 1_545 S
C416 H400 0.959 . S
C416 H401 0.959 . S
C416 H402 0.961 . S
C416 C415 1.502 . S
C417 H403 0.960 1_565 S
C417 H404 0.961 . S
C417 H405 0.959 . S
C417 C415 1.561 1_565 S
C418 C415 1.526 1_565 S
C418 C419 1.396 . S
C418 C423 1.390 . S
C419 C413 1.465 1_565 S
C419 C418 1.396 . S
C419 C420 1.399 . S
C420 H406 0.929 . S
C420 C419 1.399 . S
C420 C421 1.385 . S
C421 H407 0.931 . S
C421 C420 1.385 . S
C421 C422 1.389 . S
C422 C421 1.389 . S
C422 C423 1.387 . S
C423 H408 0.930 . S
C423 C418 1.390 . S
C423 C422 1.387 . S
H424 C436 0.930 . S
H425 C438 0.930 . S
H426 C439 0.930 . S
H427 C443 0.959 . S
H428 C443 0.959 . S
H429 C443 0.961 . S
H430 C444 0.960 . S
H431 C444 0.961 . S
H432 C444 0.959 . S
H433 C447 0.929 . S
H434 C448 0.931 . S
H435 C450 0.930 . S
C436 H424 0.930 . S
C436 C437 1.399 . S
C436 C441 1.399 . S
C437 C436 1.399 . S
C437 C438 1.376 . S
C438 H425 0.930 . S
C438 C437 1.376 . S
C438 C439 1.388 . S
C439 H426 0.930 . S
C439 C438 1.388 . S
C439 C440 1.390 . S
C440 C439 1.390 . S
C440 C441 1.394 . S
C440 C446 1.465 . S
C441 C436 1.399 . S
C441 C440 1.394 . S
C441 C442 1.516 . S
C442 C441 1.516 . S
C442 C443 1.502 . S
C442 C444 1.561 . S
C442 C445 1.526 . S
C443 H427 0.959 . S
C443 H428 0.959 . S
C443 H429 0.961 . S
C443 C442 1.502 . S
C444 H430 0.960 . S
C444 H431 0.961 . S
C444 H432 0.959 . S
C444 C442 1.561 . S
C445 C442 1.526 . S
C445 C446 1.396 . S
C445 C450 1.390 . S
C446 C440 1.465 . S
C446 C445 1.396 . S
C446 C447 1.399 . S
C447 H433 0.929 . S
C447 C446 1.399 . S
C447 C448 1.385 . S
C448 H434 0.931 . S
C448 C447 1.385 . S
C448 C449 1.389 . S
C449 C448 1.389 . S
C449 C450 1.387 . S
C450 H435 0.930 . S
C450 C445 1.390 . S
C450 C449 1.387 . S
H451 C463 0.930 . S
H452 C465 0.930 . S
H453 C466 0.930 . S
H454 C470 0.959 . S
H455 C470 0.959 . S
H456 C470 0.961 . S
H457 C471 0.960 . S
H458 C471 0.961 . S
H459 C471 0.959 . S
H460 C474 0.929 . S
H461 C475 0.931 . S
H462 C477 0.930 . S
C463 H451 0.930 . S
C463 C464 1.399 . S
C463 C468 1.399 . S
C464 C463 1.399 . S
C464 C465 1.376 . S
C465 H452 0.930 . S
C465 C464 1.376 . S
C465 C466 1.388 . S
C466 H453 0.930 . S
C466 C465 1.388 . S
C466 C467 1.390 . S
C467 C466 1.390 . S
C467 C468 1.394 . S
C467 C473 1.465 . S
C468 C463 1.399 . S
C468 C467 1.394 . S
C468 C469 1.516 . S
C469 C468 1.516 . S
C469 C470 1.502 . S
C469 C471 1.561 . S
C469 C472 1.526 . S
C470 H454 0.959 . S
C470 H455 0.959 . S
C470 H456 0.961 . S
C470 C469 1.502 . S
C471 H457 0.960 . S
C471 H458 0.961 . S
C471 H459 0.959 . S
C471 C469 1.561 . S
C472 C469 1.526 . S
C472 C473 1.396 . S
C472 C477 1.390 . S
C473 C467 1.465 . S
C473 C472 1.396 . S
C473 C474 1.399 . S
C474 H460 0.929 . S
C474 C473 1.399 . S
C474 C475 1.385 . S
C475 H461 0.931 . S
C475 C474 1.385 . S
C475 C476 1.389 . S
C476 C475 1.389 . S
C476 C477 1.387 . S
C477 H462 0.930 . S
C477 C472 1.390 . S
C477 C476 1.387 . S
H478 C490 0.930 . S
H479 C492 0.930 . S
H480 C493 0.930 . S
H481 C497 0.959 . S
H482 C497 0.959 . S
H483 C497 0.961 . S
H484 C498 0.960 . S
H485 C498 0.961 . S
H486 C498 0.959 . S
H487 C501 0.929 . S
H488 C502 0.931 . S
H489 C504 0.930 . S
C490 H478 0.930 . S
C490 C491 1.399 . S
C490 C495 1.399 . S
C491 C490 1.399 . S
C491 C492 1.376 . S
C492 H479 0.930 . S
C492 C491 1.376 . S
C492 C493 1.388 . S
C493 H480 0.930 . S
C493 C492 1.388 . S
C493 C494 1.390 . S
C494 C493 1.390 . S
C494 C495 1.394 . S
C494 C500 1.465 . S
C495 C490 1.399 . S
C495 C494 1.394 . S
C495 C496 1.516 . S
C496 C495 1.516 . S
C496 C497 1.502 . S
C496 C498 1.561 . S
C496 C499 1.526 . S
C497 H481 0.959 . S
C497 H482 0.959 . S
C497 H483 0.961 . S
C497 C496 1.502 . S
C498 H484 0.960 . S
C498 H485 0.961 . S
C498 H486 0.959 . S
C498 C496 1.561 . S
C499 C496 1.526 . S
C499 C500 1.396 . S
C499 C504 1.390 . S
C500 C494 1.465 . S
C500 C499 1.396 . S
C500 C501 1.399 . S
C501 H487 0.929 . S
C501 C500 1.399 . S
C501 C502 1.385 . S
C502 H488 0.931 . S
C502 C501 1.385 . S
C502 C503 1.389 . S
C503 C502 1.389 . S
C503 C504 1.387 . S
C504 H489 0.930 . S
C504 C499 1.390 . S
C504 C503 1.387 . S
H505 C517 0.930 . S
H506 C519 0.930 . S
H507 C520 0.930 . S
H508 C524 0.959 . S
H509 C524 0.959 . S
H510 C524 0.961 . S
H511 C525 0.960 . S
H512 C525 0.961 . S
H513 C525 0.959 . S
H514 C528 0.929 . S
H515 C529 0.931 . S
H516 C531 0.930 . S
C517 H505 0.930 . S
C517 C518 1.399 . S
C517 C522 1.399 . S
C518 C517 1.399 . S
C518 C519 1.376 . S
C519 H506 0.930 . S
C519 C518 1.376 . S
C519 C520 1.388 . S
C520 H507 0.930 . S
C520 C519 1.388 . S
C520 C521 1.390 . S
C521 C520 1.390 . S
C521 C522 1.394 . S
C521 C527 1.465 . S
C522 C517 1.399 . S
C522 C521 1.394 . S
C522 C523 1.516 . S
C523 C522 1.516 . S
C523 C524 1.502 . S
C523 C525 1.561 . S
C523 C526 1.526 . S
C524 H508 0.959 . S
C524 H509 0.959 . S
C524 H510 0.961 . S
C524 C523 1.502 . S
C525 H511 0.960 . S
C525 H512 0.961 . S
C525 H513 0.959 . S
C525 C523 1.561 . S
C526 C523 1.526 . S
C526 C527 1.396 . S
C526 C531 1.390 . S
C527 C521 1.465 . S
C527 C526 1.396 . S
C527 C528 1.399 . S
C528 H514 0.929 . S
C528 C527 1.399 . S
C528 C529 1.385 . S
C529 H515 0.931 . S
C529 C528 1.385 . S
C529 C530 1.389 . S
C530 C529 1.389 . S
C530 C531 1.387 . S
C531 H516 0.930 . S
C531 C526 1.390 . S
C531 C530 1.387 . S
H532 C544 0.930 . S
H533 C546 0.930 . S
H534 C547 0.930 . S
H535 C551 0.959 . S
H536 C551 0.959 . S
H537 C551 0.961 . S
H538 C552 0.960 . S
H539 C552 0.961 . S
H540 C552 0.959 . S
H541 C555 0.929 . S
H542 C556 0.931 . S
H543 C558 0.930 . S
C544 H532 0.930 . S
C544 C545 1.399 . S
C544 C549 1.399 . S
C545 C544 1.399 . S
C545 C546 1.376 . S
C546 H533 0.930 . S
C546 C545 1.376 . S
C546 C547 1.388 . S
C547 H534 0.930 . S
C547 C546 1.388 . S
C547 C548 1.390 . S
C548 C547 1.390 . S
C548 C549 1.394 . S
C548 C554 1.465 . S
C549 C544 1.399 . S
C549 C548 1.394 . S
C549 C550 1.516 . S
C550 C549 1.516 . S
C550 C551 1.502 . S
C550 C552 1.561 . S
C550 C553 1.526 . S
C551 H535 0.959 . S
C551 H536 0.959 . S
C551 H537 0.961 . S
C551 C550 1.502 . S
C552 H538 0.960 . S
C552 H539 0.961 . S
C552 H540 0.959 . S
C552 C550 1.561 . S
C553 C550 1.526 . S
C553 C554 1.396 . S
C553 C558 1.390 . S
C554 C548 1.465 . S
C554 C553 1.396 . S
C554 C555 1.399 . S
C555 H541 0.929 . S
C555 C554 1.399 . S
C555 C556 1.385 . S
C556 H542 0.931 . S
C556 C555 1.385 . S
C556 C557 1.389 . S
C557 C556 1.389 . S
C557 C558 1.387 . S
C558 H543 0.930 . S
C558 C553 1.390 . S
C558 C557 1.387 . S
H559 C571 0.930 . S
H560 C573 0.930 . S
H561 C574 0.930 . S
H562 C578 0.959 . S
H563 C578 0.959 . S
H564 C578 0.961 . S
H565 C579 0.960 . S
H566 C579 0.961 . S
H567 C579 0.959 . S
H568 C582 0.929 . S
H569 C583 0.931 . S
H570 C585 0.930 . S
C571 H559 0.930 . S
C571 C572 1.399 . S
C571 C576 1.399 . S
C572 C571 1.399 . S
C572 C573 1.376 . S
C573 H560 0.930 . S
C573 C572 1.376 . S
C573 C574 1.388 . S
C574 H561 0.930 . S
C574 C573 1.388 . S
C574 C575 1.390 . S
C575 C574 1.390 . S
C575 C576 1.394 . S
C575 C581 1.465 . S
C576 C571 1.399 . S
C576 C575 1.394 . S
C576 C577 1.516 . S
C577 C576 1.516 . S
C577 C578 1.502 . S
C577 C579 1.561 . S
C577 C580 1.526 . S
C578 H562 0.959 . S
C578 H563 0.959 . S
C578 H564 0.961 . S
C578 C577 1.502 . S
C579 H565 0.960 . S
C579 H566 0.961 . S
C579 H567 0.959 . S
C579 C577 1.561 . S
C580 C577 1.526 . S
C580 C581 1.396 . S
C580 C585 1.390 . S
C581 C575 1.465 . S
C581 C580 1.396 . S
C581 C582 1.399 . S
C582 H568 0.929 . S
C582 C581 1.399 . S
C582 C583 1.385 . S
C583 H569 0.931 . S
C583 C582 1.385 . S
C583 C584 1.389 . S
C584 C583 1.389 . S
C584 C585 1.387 . S
C585 H570 0.930 . S
C585 C580 1.390 . S
C585 C584 1.387 . S
H586 C598 0.930 . S
H587 C600 0.930 . S
H588 C601 0.930 . S
H589 C605 0.959 . S
H590 C605 0.959 . S
H591 C605 0.961 . S
H592 C606 0.960 . S
H593 C606 0.961 . S
H594 C606 0.959 . S
H595 C609 0.929 . S
H596 C610 0.931 . S
H597 C612 0.930 . S
C598 H586 0.930 . S
C598 C599 1.399 . S
C598 C603 1.399 . S
C599 C598 1.399 . S
C599 C600 1.376 . S
C600 H587 0.930 . S
C600 C599 1.376 . S
C600 C601 1.388 . S
C601 H588 0.930 . S
C601 C600 1.388 . S
C601 C602 1.390 . S
C602 C601 1.390 . S
C602 C603 1.394 . S
C602 C608 1.465 . S
C603 C598 1.399 . S
C603 C602 1.394 . S
C603 C604 1.516 . S
C604 C603 1.516 . S
C604 C605 1.502 . S
C604 C606 1.561 . S
C604 C607 1.526 . S
C605 H589 0.959 . S
C605 H590 0.959 . S
C605 H591 0.961 . S
C605 C604 1.502 . S
C606 H592 0.960 . S
C606 H593 0.961 . S
C606 H594 0.959 . S
C606 C604 1.561 . S
C607 C604 1.526 . S
C607 C608 1.396 . S
C607 C612 1.390 . S
C608 C602 1.465 . S
C608 C607 1.396 . S
C608 C609 1.399 . S
C609 H595 0.929 . S
C609 C608 1.399 . S
C609 C610 1.385 . S
C610 H596 0.931 . S
C610 C609 1.385 . S
C610 C611 1.389 . S
C611 C610 1.389 . S
C611 C612 1.387 . S
C612 H597 0.930 . S
C612 C607 1.390 . S
C612 C611 1.387 . S
H613 C625 0.930 . S
H614 C627 0.930 . S
H615 C628 0.930 . S
H616 C632 0.959 . S
H617 C632 0.959 . S
H618 C632 0.961 . S
H619 C633 0.960 . S
H620 C633 0.961 . S
H621 C633 0.959 . S
H622 C636 0.929 . S
H623 C637 0.931 . S
H624 C639 0.930 . S
C625 H613 0.930 . S
C625 C626 1.399 . S
C625 C630 1.399 . S
C626 C625 1.399 . S
C626 C627 1.376 . S
C627 H614 0.930 . S
C627 C626 1.376 . S
C627 C628 1.388 . S
C628 H615 0.930 . S
C628 C627 1.388 . S
C628 C629 1.390 . S
C629 C628 1.390 . S
C629 C630 1.394 . S
C629 C635 1.465 . S
C630 C625 1.399 . S
C630 C629 1.394 . S
C630 C631 1.516 . S
C631 C630 1.516 . S
C631 C632 1.502 . S
C631 C633 1.561 . S
C631 C634 1.526 . S
C632 H616 0.959 . S
C632 H617 0.959 . S
C632 H618 0.961 . S
C632 C631 1.502 . S
C633 H619 0.960 . S
C633 H620 0.961 . S
C633 H621 0.959 . S
C633 C631 1.561 . S
C634 C631 1.526 . S
C634 C635 1.396 . S
C634 C639 1.390 . S
C635 C629 1.465 . S
C635 C634 1.396 . S
C635 C636 1.399 . S
C636 H622 0.929 . S
C636 C635 1.399 . S
C636 C637 1.385 . S
C637 H623 0.931 . S
C637 C636 1.385 . S
C637 C638 1.389 . S
C638 C637 1.389 . S
C638 C639 1.387 . S
C639 H624 0.930 . S
C639 C634 1.390 . S
C639 C638 1.387 . S
H640 C652 0.930 . S
H641 C654 0.930 . S
H642 C655 0.930 . S
H643 C659 0.962 . S
H644 C659 0.979 . S
H645 C659 0.939 1_556 S
H646 C660 0.958 1_556 S
H647 C660 0.963 . S
H648 C660 0.959 . S
H649 C663 0.929 . S
H650 C664 0.931 . S
H651 C666 0.930 . S
C652 H640 0.930 . S
C652 C653 1.399 . S
C652 C657 1.399 . S
C653 C652 1.399 . S
C653 C654 1.376 . S
C654 H641 0.930 . S
C654 C653 1.376 . S
C654 C655 1.388 . S
C655 H642 0.930 . S
C655 C654 1.388 . S
C655 C656 1.390 . S
C656 C655 1.390 . S
C656 C657 1.394 . S
C656 C662 1.465 1_556 S
C657 C652 1.399 . S
C657 C656 1.394 . S
C657 C658 1.517 1_556 S
C658 C657 1.517 1_554 S
C658 C659 1.502 . S
C658 C660 1.561 . S
C658 C661 1.525 . S
C659 H643 0.962 . S
C659 H644 0.979 . S
C659 H645 0.939 1_554 S
C659 C658 1.502 . S
C660 H646 0.958 1_554 S
C660 H647 0.963 . S
C660 H648 0.959 . S
C660 C658 1.561 . S
C661 C658 1.525 . S
C661 C662 1.396 . S
C661 C666 1.390 . S
C662 C656 1.465 1_554 S
C662 C661 1.396 . S
C662 C663 1.399 . S
C663 H649 0.929 . S
C663 C662 1.399 . S
C663 C664 1.385 . S
C664 H650 0.931 . S
C664 C663 1.385 . S
C664 C665 1.389 . S
C665 C664 1.389 . S
C665 C666 1.387 . S
C666 H651 0.930 . S
C666 C661 1.390 . S
C666 C665 1.387 . S
H667 C679 0.930 . S
H668 C681 0.930 . S
H669 C682 0.930 . S
H670 C686 0.959 . S
H671 C686 0.959 . S
H672 C686 0.961 . S
H673 C687 0.960 . S
H674 C687 0.961 . S
H675 C687 0.959 . S
H676 C690 0.929 . S
H677 C691 0.931 . S
H678 C693 0.930 . S
C679 H667 0.930 . S
C679 C680 1.399 . S
C679 C684 1.399 . S
C680 C679 1.399 . S
C680 C681 1.376 . S
C681 H668 0.930 . S
C681 C680 1.376 . S
C681 C682 1.388 . S
C682 H669 0.930 . S
C682 C681 1.388 . S
C682 C683 1.390 . S
C683 C682 1.390 . S
C683 C684 1.394 . S
C683 C689 1.465 . S
C684 C679 1.399 . S
C684 C683 1.394 . S
C684 C685 1.516 . S
C685 C684 1.516 . S
C685 C686 1.502 . S
C685 C687 1.561 . S
C685 C688 1.526 . S
C686 H670 0.959 . S
C686 H671 0.959 . S
C686 H672 0.961 . S
C686 C685 1.502 . S
C687 H673 0.960 . S
C687 H674 0.961 . S
C687 H675 0.959 . S
C687 C685 1.561 . S
C688 C685 1.526 . S
C688 C689 1.396 . S
C688 C693 1.390 . S
C689 C683 1.465 . S
C689 C688 1.396 . S
C689 C690 1.399 . S
C690 H676 0.929 . S
C690 C689 1.399 . S
C690 C691 1.385 . S
C691 H677 0.931 . S
C691 C690 1.385 . S
C691 C692 1.389 . S
C692 C691 1.389 . S
C692 C693 1.387 . S
C693 H678 0.930 . S
C693 C688 1.390 . S
C693 C692 1.387 . S
H694 C706 0.930 . S
H695 C708 0.930 . S
H696 C709 0.930 . S
H697 C713 0.962 . S
H698 C713 0.979 . S
H699 C713 0.939 1_554 S
H700 C714 0.958 1_554 S
H701 C714 0.963 . S
H702 C714 0.959 . S
H703 C717 0.929 . S
H704 C718 0.931 . S
H705 C720 0.930 . S
C706 H694 0.930 . S
C706 C707 1.399 . S
C706 C711 1.399 . S
C707 C706 1.399 . S
C707 C708 1.376 . S
C708 H695 0.930 . S
C708 C707 1.376 . S
C708 C709 1.388 . S
C709 H696 0.930 . S
C709 C708 1.388 . S
C709 C710 1.390 . S
C710 C709 1.390 . S
C710 C711 1.394 . S
C710 C716 1.465 1_554 S
C711 C706 1.399 . S
C711 C710 1.394 . S
C711 C712 1.517 1_554 S
C712 C711 1.517 1_556 S
C712 C713 1.502 . S
C712 C714 1.561 . S
C712 C715 1.525 . S
C713 H697 0.962 . S
C713 H698 0.979 . S
C713 H699 0.939 1_556 S
C713 C712 1.502 . S
C714 H700 0.958 1_556 S
C714 H701 0.963 . S
C714 H702 0.959 . S
C714 C712 1.561 . S
C715 C712 1.525 . S
C715 C716 1.396 . S
C715 C720 1.390 . S
C716 C710 1.465 1_556 S
C716 C715 1.396 . S
C716 C717 1.399 . S
C717 H703 0.929 . S
C717 C716 1.399 . S
C717 C718 1.385 . S
C718 H704 0.931 . S
C718 C717 1.385 . S
C718 C719 1.389 . S
C719 C718 1.389 . S
C719 C720 1.387 . S
C720 H705 0.930 . S
C720 C715 1.390 . S
C720 C719 1.387 . S
H721 C733 0.930 . S
H722 C735 0.930 . S
H723 C736 0.930 . S
H724 C740 0.959 . S
H725 C740 0.959 . S
H726 C740 0.961 . S
H727 C741 0.960 . S
H728 C741 0.961 . S
H729 C741 0.959 . S
H730 C744 0.929 . S
H731 C745 0.931 . S
H732 C747 0.930 . S
C733 H721 0.930 . S
C733 C734 1.399 . S
C733 C738 1.399 . S
C734 C733 1.399 . S
C734 C735 1.376 . S
C735 H722 0.930 . S
C735 C734 1.376 . S
C735 C736 1.388 . S
C736 H723 0.930 . S
C736 C735 1.388 . S
C736 C737 1.390 . S
C737 C736 1.390 . S
C737 C738 1.394 . S
C737 C743 1.465 . S
C738 C733 1.399 . S
C738 C737 1.394 . S
C738 C739 1.516 . S
C739 C738 1.516 . S
C739 C740 1.502 . S
C739 C741 1.561 . S
C739 C742 1.526 . S
C740 H724 0.959 . S
C740 H725 0.959 . S
C740 H726 0.961 . S
C740 C739 1.502 . S
C741 H727 0.960 . S
C741 H728 0.961 . S
C741 H729 0.959 . S
C741 C739 1.561 . S
C742 C739 1.526 . S
C742 C743 1.396 . S
C742 C747 1.390 . S
C743 C737 1.465 . S
C743 C742 1.396 . S
C743 C744 1.399 . S
C744 H730 0.929 . S
C744 C743 1.399 . S
C744 C745 1.385 . S
C745 H731 0.931 . S
C745 C744 1.385 . S
C745 C746 1.389 . S
C746 C745 1.389 . S
C746 C747 1.387 . S
C747 H732 0.930 . S
C747 C742 1.390 . S
C747 C746 1.387 . S
H748 C760 0.930 . S
H749 C762 0.930 . S
H750 C763 0.930 . S
H751 C767 0.959 . S
H752 C767 0.959 . S
H753 C767 0.961 . S
H754 C768 0.960 . S
H755 C768 0.961 . S
H756 C768 0.959 . S
H757 C771 0.929 . S
H758 C772 0.931 . S
H759 C774 0.930 . S
C760 H748 0.930 . S
C760 C761 1.399 . S
C760 C765 1.399 . S
C761 C760 1.399 . S
C761 C762 1.376 . S
C762 H749 0.930 . S
C762 C761 1.376 . S
C762 C763 1.388 . S
C763 H750 0.930 . S
C763 C762 1.388 . S
C763 C764 1.390 . S
C764 C763 1.390 . S
C764 C765 1.394 . S
C764 C770 1.465 . S
C765 C760 1.399 . S
C765 C764 1.394 . S
C765 C766 1.516 . S
C766 C765 1.516 . S
C766 C767 1.502 . S
C766 C768 1.561 . S
C766 C769 1.526 . S
C767 H751 0.959 . S
C767 H752 0.959 . S
C767 H753 0.961 . S
C767 C766 1.502 . S
C768 H754 0.960 . S
C768 H755 0.961 . S
C768 H756 0.959 . S
C768 C766 1.561 . S
C769 C766 1.526 . S
C769 C770 1.396 . S
C769 C774 1.390 . S
C770 C764 1.465 . S
C770 C769 1.396 . S
C770 C771 1.399 . S
C771 H757 0.929 . S
C771 C770 1.399 . S
C771 C772 1.385 . S
C772 H758 0.931 . S
C772 C771 1.385 . S
C772 C773 1.389 . S
C773 C772 1.389 . S
C773 C774 1.387 . S
C774 H759 0.930 . S
C774 C769 1.390 . S
C774 C773 1.387 . S
H775 C787 0.930 . S
H776 C789 0.930 . S
H777 C790 0.930 . S
H778 C794 0.962 . S
H779 C794 0.979 . S
H780 C794 0.939 1_556 S
H781 C795 0.958 1_556 S
H782 C795 0.963 . S
H783 C795 0.959 . S
H784 C798 0.929 . S
H785 C799 0.931 . S
H786 C801 0.930 . S
C787 H775 0.930 . S
C787 C788 1.399 . S
C787 C792 1.399 . S
C788 C787 1.399 . S
C788 C789 1.376 . S
C789 H776 0.930 . S
C789 C788 1.376 . S
C789 C790 1.388 . S
C790 H777 0.930 . S
C790 C789 1.388 . S
C790 C791 1.390 . S
C791 C790 1.390 . S
C791 C792 1.394 . S
C791 C797 1.465 1_556 S
C792 C787 1.399 . S
C792 C791 1.394 . S
C792 C793 1.517 1_556 S
C793 C792 1.517 1_554 S
C793 C794 1.502 . S
C793 C795 1.561 . S
C793 C796 1.525 . S
C794 H778 0.962 . S
C794 H779 0.979 . S
C794 H780 0.939 1_554 S
C794 C793 1.502 . S
C795 H781 0.958 1_554 S
C795 H782 0.963 . S
C795 H783 0.959 . S
C795 C793 1.561 . S
C796 C793 1.525 . S
C796 C797 1.396 . S
C796 C801 1.390 . S
C797 C791 1.465 1_554 S
C797 C796 1.396 . S
C797 C798 1.399 . S
C798 H784 0.929 . S
C798 C797 1.399 . S
C798 C799 1.385 . S
C799 H785 0.931 . S
C799 C798 1.385 . S
C799 C800 1.389 . S
C800 C799 1.389 . S
C800 C801 1.387 . S
C801 H786 0.930 . S
C801 C796 1.390 . S
C801 C800 1.387 . S
H802 C814 0.930 . S
H803 C816 0.930 . S
H804 C817 0.930 . S
H805 C821 0.959 . S
H806 C821 0.959 . S
H807 C821 0.961 . S
H808 C822 0.960 . S
H809 C822 0.961 . S
H810 C822 0.959 . S
H811 C825 0.929 . S
H812 C826 0.931 . S
H813 C828 0.930 . S
C814 H802 0.930 . S
C814 C815 1.399 . S
C814 C819 1.399 . S
C815 C814 1.399 . S
C815 C816 1.376 . S
C816 H803 0.930 . S
C816 C815 1.376 . S
C816 C817 1.388 . S
C817 H804 0.930 . S
C817 C816 1.388 . S
C817 C818 1.390 . S
C818 C817 1.390 . S
C818 C819 1.394 . S
C818 C824 1.465 . S
C819 C814 1.399 . S
C819 C818 1.394 . S
C819 C820 1.516 . S
C820 C819 1.516 . S
C820 C821 1.502 . S
C820 C822 1.561 . S
C820 C823 1.526 . S
C821 H805 0.959 . S
C821 H806 0.959 . S
C821 H807 0.961 . S
C821 C820 1.502 . S
C822 H808 0.960 . S
C822 H809 0.961 . S
C822 H810 0.959 . S
C822 C820 1.561 . S
C823 C820 1.526 . S
C823 C824 1.396 . S
C823 C828 1.390 . S
C824 C818 1.465 . S
C824 C823 1.396 . S
C824 C825 1.399 . S
C825 H811 0.929 . S
C825 C824 1.399 . S
C825 C826 1.385 . S
C826 H812 0.931 . S
C826 C825 1.385 . S
C826 C827 1.389 . S
C827 C826 1.389 . S
C827 C828 1.387 . S
C828 H813 0.930 . S
C828 C823 1.390 . S
C828 C827 1.387 . S
H829 C841 0.930 . S
H830 C843 0.930 . S
H831 C844 0.930 . S
H832 C848 0.962 . S
H833 C848 0.979 . S
H834 C848 0.939 1_554 S
H835 C849 0.958 1_554 S
H836 C849 0.963 . S
H837 C849 0.959 . S
H838 C852 0.929 . S
H839 C853 0.931 . S
H840 C855 0.930 . S
C841 H829 0.930 . S
C841 C842 1.399 . S
C841 C846 1.399 . S
C842 C841 1.399 . S
C842 C843 1.376 . S
C843 H830 0.930 . S
C843 C842 1.376 . S
C843 C844 1.388 . S
C844 H831 0.930 . S
C844 C843 1.388 . S
C844 C845 1.390 . S
C845 C844 1.390 . S
C845 C846 1.394 . S
C845 C851 1.465 1_554 S
C846 C841 1.399 . S
C846 C845 1.394 . S
C846 C847 1.517 1_554 S
C847 C846 1.517 1_556 S
C847 C848 1.502 . S
C847 C849 1.561 . S
C847 C850 1.525 . S
C848 H832 0.962 . S
C848 H833 0.979 . S
C848 H834 0.939 1_556 S
C848 C847 1.502 . S
C849 H835 0.958 1_556 S
C849 H836 0.963 . S
C849 H837 0.959 . S
C849 C847 1.561 . S
C850 C847 1.525 . S
C850 C851 1.396 . S
C850 C855 1.390 . S
C851 C845 1.465 1_556 S
C851 C850 1.396 . S
C851 C852 1.399 . S
C852 H838 0.929 . S
C852 C851 1.399 . S
C852 C853 1.385 . S
C853 H839 0.931 . S
C853 C852 1.385 . S
C853 C854 1.389 . S
C854 C853 1.389 . S
C854 C855 1.387 . S
C855 H840 0.930 . S
C855 C850 1.390 . S
C855 C854 1.387 . S
H856 C868 0.930 . S
H857 C870 0.930 . S
H858 C871 0.930 . S
H859 C875 0.959 . S
H860 C875 0.959 . S
H861 C875 0.961 . S
H862 C876 0.960 . S
H863 C876 0.961 . S
H864 C876 0.959 . S
H865 C879 0.929 . S
H866 C880 0.931 . S
H867 C882 0.930 . S
C868 H856 0.930 . S
C868 C869 1.399 . S
C868 C873 1.399 . S
C869 C868 1.399 . S
C869 C870 1.376 . S
C870 H857 0.930 . S
C870 C869 1.376 . S
C870 C871 1.388 . S
C871 H858 0.930 . S
C871 C870 1.388 . S
C871 C872 1.390 . S
C872 C871 1.390 . S
C872 C873 1.394 . S
C872 C878 1.465 . S
C873 C868 1.399 . S
C873 C872 1.394 . S
C873 C874 1.516 . S
C874 C873 1.516 . S
C874 C875 1.502 . S
C874 C876 1.561 . S
C874 C877 1.526 . S
C875 H859 0.959 . S
C875 H860 0.959 . S
C875 H861 0.961 . S
C875 C874 1.502 . S
C876 H862 0.960 . S
C876 H863 0.961 . S
C876 H864 0.959 . S
C876 C874 1.561 . S
C877 C874 1.526 . S
C877 C878 1.396 . S
C877 C882 1.390 . S
C878 C872 1.465 . S
C878 C877 1.396 . S
C878 C879 1.399 . S
C879 H865 0.929 . S
C879 C878 1.399 . S
C879 C880 1.385 . S
C880 H866 0.931 . S
C880 C879 1.385 . S
C880 C881 1.389 . S
C881 C880 1.389 . S
C881 C882 1.387 . S
C882 H867 0.930 . S
C882 C877 1.390 . S
C882 C881 1.387 . S
H883 C895 0.930 . S
H884 C897 0.930 . S
H885 C898 0.930 . S
H886 C902 0.959 . S
H887 C902 0.959 . S
H888 C902 0.961 . S
H889 C903 0.960 . S
H890 C903 0.961 . S
H891 C903 0.959 . S
H892 C906 0.929 . S
H893 C907 0.931 . S
H894 C909 0.930 . S
C895 H883 0.930 . S
C895 C896 1.399 . S
C895 C900 1.399 . S
C896 C895 1.399 . S
C896 C897 1.376 . S
C897 H884 0.930 . S
C897 C896 1.376 . S
C897 C898 1.388 . S
C898 H885 0.930 . S
C898 C897 1.388 . S
C898 C899 1.390 . S
C899 C898 1.390 . S
C899 C900 1.394 . S
C899 C905 1.465 . S
C900 C895 1.399 . S
C900 C899 1.394 . S
C900 C901 1.516 . S
C901 C900 1.516 . S
C901 C902 1.502 . S
C901 C903 1.561 . S
C901 C904 1.526 . S
C902 H886 0.959 . S
C902 H887 0.959 . S
C902 H888 0.961 . S
C902 C901 1.502 . S
C903 H889 0.960 . S
C903 H890 0.961 . S
C903 H891 0.959 . S
C903 C901 1.561 . S
C904 C901 1.526 . S
C904 C905 1.396 . S
C904 C909 1.390 . S
C905 C899 1.465 . S
C905 C904 1.396 . S
C905 C906 1.399 . S
C906 H892 0.929 . S
C906 C905 1.399 . S
C906 C907 1.385 . S
C907 H893 0.931 . S
C907 C906 1.385 . S
C907 C908 1.389 . S
C908 C907 1.389 . S
C908 C909 1.387 . S
C909 H894 0.930 . S
C909 C904 1.390 . S
C909 C908 1.387 . S
H910 C922 0.930 . S
H911 C924 0.930 . S
H912 C925 0.930 . S
H913 C929 0.959 . S
H914 C929 0.959 . S
H915 C929 0.961 . S
H916 C930 0.960 . S
H917 C930 0.961 . S
H918 C930 0.959 . S
H919 C933 0.929 . S
H920 C934 0.931 . S
H921 C936 0.930 . S
C922 H910 0.930 . S
C922 C923 1.399 . S
C922 C927 1.399 . S
C923 C922 1.399 . S
C923 C924 1.376 . S
C924 H911 0.930 . S
C924 C923 1.376 . S
C924 C925 1.388 . S
C925 H912 0.930 . S
C925 C924 1.388 . S
C925 C926 1.390 . S
C926 C925 1.390 . S
C926 C927 1.394 . S
C926 C932 1.465 . S
C927 C922 1.399 . S
C927 C926 1.394 . S
C927 C928 1.516 . S
C928 C927 1.516 . S
C928 C929 1.502 . S
C928 C930 1.561 . S
C928 C931 1.526 . S
C929 H913 0.959 . S
C929 H914 0.959 . S
C929 H915 0.961 . S
C929 C928 1.502 . S
C930 H916 0.960 . S
C930 H917 0.961 . S
C930 H918 0.959 . S
C930 C928 1.561 . S
C931 C928 1.526 . S
C931 C932 1.396 . S
C931 C936 1.390 . S
C932 C926 1.465 . S
C932 C931 1.396 . S
C932 C933 1.399 . S
C933 H919 0.929 . S
C933 C932 1.399 . S
C933 C934 1.385 . S
C934 H920 0.931 . S
C934 C933 1.385 . S
C934 C935 1.389 . S
C935 C934 1.389 . S
C935 C936 1.387 . S
C936 H921 0.930 . S
C936 C931 1.390 . S
C936 C935 1.387 . S
H937 C949 0.930 . S
H938 C951 0.930 . S
H939 C952 0.930 . S
H940 C956 0.959 . S
H941 C956 0.959 . S
H942 C956 0.961 . S
H943 C957 0.960 . S
H944 C957 0.961 . S
H945 C957 0.959 . S
H946 C960 0.929 . S
H947 C961 0.931 . S
H948 C963 0.930 . S
C949 H937 0.930 . S
C949 C950 1.399 . S
C949 C954 1.399 . S
C950 C949 1.399 . S
C950 C951 1.376 . S
C951 H938 0.930 . S
C951 C950 1.376 . S
C951 C952 1.388 . S
C952 H939 0.930 . S
C952 C951 1.388 . S
C952 C953 1.390 . S
C953 C952 1.390 . S
C953 C954 1.394 . S
C953 C959 1.465 . S
C954 C949 1.399 . S
C954 C953 1.394 . S
C954 C955 1.516 . S
C955 C954 1.516 . S
C955 C956 1.502 . S
C955 C957 1.561 . S
C955 C958 1.526 . S
C956 H940 0.959 . S
C956 H941 0.959 . S
C956 H942 0.961 . S
C956 C955 1.502 . S
C957 H943 0.960 . S
C957 H944 0.961 . S
C957 H945 0.959 . S
C957 C955 1.561 . S
C958 C955 1.526 . S
C958 C959 1.396 . S
C958 C963 1.390 . S
C959 C953 1.465 . S
C959 C958 1.396 . S
C959 C960 1.399 . S
C960 H946 0.929 . S
C960 C959 1.399 . S
C960 C961 1.385 . S
C961 H947 0.931 . S
C961 C960 1.385 . S
C961 C962 1.389 . S
C962 C961 1.389 . S
C962 C963 1.387 . S
C963 H948 0.930 . S
C963 C958 1.390 . S
C963 C962 1.387 . S
H964 C976 0.930 . S
H965 C978 0.930 . S
H966 C979 0.930 . S
H967 C983 0.959 . S
H968 C983 0.959 . S
H969 C983 0.961 . S
H970 C984 0.960 . S
H971 C984 0.961 . S
H972 C984 0.959 . S
H973 C987 0.929 . S
H974 C988 0.931 . S
H975 C990 0.930 . S
C976 H964 0.930 . S
C976 C977 1.399 . S
C976 C981 1.399 . S
C977 C976 1.399 . S
C977 C978 1.376 . S
C978 H965 0.930 . S
C978 C977 1.376 . S
C978 C979 1.388 . S
C979 H966 0.930 . S
C979 C978 1.388 . S
C979 C980 1.390 . S
C980 C979 1.390 . S
C980 C981 1.394 . S
C980 C986 1.465 . S
C981 C976 1.399 . S
C981 C980 1.394 . S
C981 C982 1.516 . S
C982 C981 1.516 . S
C982 C983 1.502 . S
C982 C984 1.561 . S
C982 C985 1.526 . S
C983 H967 0.959 . S
C983 H968 0.959 . S
C983 H969 0.961 . S
C983 C982 1.502 . S
C984 H970 0.960 . S
C984 H971 0.961 . S
C984 H972 0.959 . S
C984 C982 1.561 . S
C985 C982 1.526 . S
C985 C986 1.396 . S
C985 C990 1.390 . S
C986 C980 1.465 . S
C986 C985 1.396 . S
C986 C987 1.399 . S
C987 H973 0.929 . S
C987 C986 1.399 . S
C987 C988 1.385 . S
C988 H974 0.931 . S
C988 C987 1.385 . S
C988 C989 1.389 . S
C989 C988 1.389 . S
C989 C990 1.387 . S
C990 H975 0.930 . S
C990 C985 1.390 . S
C990 C989 1.387 . S
H991 C1003 0.930 . S
H992 C1005 0.930 . S
H993 C1006 0.930 . S
H994 C1010 0.959 . S
H995 C1010 0.959 . S
H996 C1010 0.961 . S
H997 C1011 0.960 . S
H998 C1011 0.961 . S
H999 C1011 0.959 . S
H1000 C1014 0.929 . S
H1001 C1015 0.931 . S
H1002 C1017 0.930 . S
C1003 H991 0.930 . S
C1003 C1004 1.399 . S
C1003 C1008 1.399 . S
C1004 C1003 1.399 . S
C1004 C1005 1.376 . S
C1005 H992 0.930 . S
C1005 C1004 1.376 . S
C1005 C1006 1.388 . S
C1006 H993 0.930 . S
C1006 C1005 1.388 . S
C1006 C1007 1.390 . S
C1007 C1006 1.390 . S
C1007 C1008 1.394 . S
C1007 C1013 1.465 . S
C1008 C1003 1.399 . S
C1008 C1007 1.394 . S
C1008 C1009 1.516 . S
C1009 C1008 1.516 . S
C1009 C1010 1.502 . S
C1009 C1011 1.561 . S
C1009 C1012 1.526 . S
C1010 H994 0.959 . S
C1010 H995 0.959 . S
C1010 H996 0.961 . S
C1010 C1009 1.502 . S
C1011 H997 0.960 . S
C1011 H998 0.961 . S
C1011 H999 0.959 . S
C1011 C1009 1.561 . S
C1012 C1009 1.526 . S
C1012 C1013 1.396 . S
C1012 C1017 1.390 . S
C1013 C1007 1.465 . S
C1013 C1012 1.396 . S
C1013 C1014 1.399 . S
C1014 H1000 0.929 . S
C1014 C1013 1.399 . S
C1014 C1015 1.385 . S
C1015 H1001 0.931 . S
C1015 C1014 1.385 . S
C1015 C1016 1.389 . S
C1016 C1015 1.389 . S
C1016 C1017 1.387 . S
C1017 H1002 0.930 . S
C1017 C1012 1.390 . S
C1017 C1016 1.387 . S
H1018 C1030 0.930 . S
H1019 C1032 0.930 . S
H1020 C1033 0.930 . S
H1021 C1037 0.959 . S
H1022 C1037 0.959 . S
H1023 C1037 0.961 . S
H1024 C1038 0.960 . S
H1025 C1038 0.961 . S
H1026 C1038 0.959 . S
H1027 C1041 0.929 . S
H1028 C1042 0.931 . S
H1029 C1044 0.930 . S
C1030 H1018 0.930 . S
C1030 C1031 1.399 . S
C1030 C1035 1.399 . S
C1031 C1030 1.399 . S
C1031 C1032 1.376 . S
C1032 H1019 0.930 . S
C1032 C1031 1.376 . S
C1032 C1033 1.388 . S
C1033 H1020 0.930 . S
C1033 C1032 1.388 . S
C1033 C1034 1.390 . S
C1034 C1033 1.390 . S
C1034 C1035 1.394 . S
C1034 C1040 1.465 . S
C1035 C1030 1.399 . S
C1035 C1034 1.394 . S
C1035 C1036 1.516 . S
C1036 C1035 1.516 . S
C1036 C1037 1.502 . S
C1036 C1038 1.561 . S
C1036 C1039 1.526 . S
C1037 H1021 0.959 . S
C1037 H1022 0.959 . S
C1037 H1023 0.961 . S
C1037 C1036 1.502 . S
C1038 H1024 0.960 . S
C1038 H1025 0.961 . S
C1038 H1026 0.959 . S
C1038 C1036 1.561 . S
C1039 C1036 1.526 . S
C1039 C1040 1.396 . S
C1039 C1044 1.390 . S
C1040 C1034 1.465 . S
C1040 C1039 1.396 . S
C1040 C1041 1.399 . S
C1041 H1027 0.929 . S
C1041 C1040 1.399 . S
C1041 C1042 1.385 . S
C1042 H1028 0.931 . S
C1042 C1041 1.385 . S
C1042 C1043 1.389 . S
C1043 C1042 1.389 . S
C1043 C1044 1.387 . S
C1044 H1029 0.930 . S
C1044 C1039 1.390 . S
C1044 C1043 1.387 . S
H1045 C1057 0.930 . S
H1046 C1059 0.930 . S
H1047 C1060 0.930 . S
H1048 C1064 0.959 . S
H1049 C1064 0.959 . S
H1050 C1064 0.961 . S
H1051 C1065 0.960 . S
H1052 C1065 0.961 . S
H1053 C1065 0.959 . S
H1054 C1068 0.929 . S
H1055 C1069 0.931 . S
H1056 C1071 0.930 . S
C1057 H1045 0.930 . S
C1057 C1058 1.399 . S
C1057 C1062 1.399 . S
C1058 C1057 1.399 . S
C1058 C1059 1.376 . S
C1059 H1046 0.930 . S
C1059 C1058 1.376 . S
C1059 C1060 1.388 . S
C1060 H1047 0.930 . S
C1060 C1059 1.388 . S
C1060 C1061 1.390 . S
C1061 C1060 1.390 . S
C1061 C1062 1.394 . S
C1061 C1067 1.465 . S
C1062 C1057 1.399 . S
C1062 C1061 1.394 . S
C1062 C1063 1.516 . S
C1063 C1062 1.516 . S
C1063 C1064 1.502 . S
C1063 C1065 1.561 . S
C1063 C1066 1.526 . S
C1064 H1048 0.959 . S
C1064 H1049 0.959 . S
C1064 H1050 0.961 . S
C1064 C1063 1.502 . S
C1065 H1051 0.960 . S
C1065 H1052 0.961 . S
C1065 H1053 0.959 . S
C1065 C1063 1.561 . S
C1066 C1063 1.526 . S
C1066 C1067 1.396 . S
C1066 C1071 1.390 . S
C1067 C1061 1.465 . S
C1067 C1066 1.396 . S
C1067 C1068 1.399 . S
C1068 H1054 0.929 . S
C1068 C1067 1.399 . S
C1068 C1069 1.385 . S
C1069 H1055 0.931 . S
C1069 C1068 1.385 . S
C1069 C1070 1.389 . S
C1070 C1069 1.389 . S
C1070 C1071 1.387 . S
C1071 H1056 0.930 . S
C1071 C1066 1.390 . S
C1071 C1070 1.387 . S
C221 C3 1.411 . S
C233 C31 1.380 . S
C248 C42 1.408 . S
C260 C18 1.385 . S
C275 C55 1.411 . S
C287 C81 1.380 . S
C302 C96 1.362 . S
C314 C70 1.387 . S
C329 C107 1.371 . S
C341 C135 1.405 . S
C356 C146 1.372 . S
C368 C122 1.404 . S
C383 C159 1.399 . S
C395 C187 1.366 . S
C410 C200 1.399 . S
C422 C172 1.367 . S
C437 C57 1.268 . S
C449 C5 1.299 . S
C464 C16 1.298 . S
C476 C68 1.269 . S
C491 C29 1.323 . S
C503 C83 1.277 . S
C518 C94 1.305 . S
C530 C44 1.265 . S
C545 C109 1.282 . S
C557 C161 1.324 . S
C572 C120 1.265 . S
C584 C174 1.286 . S
C599 C133 1.288 . S
C611 C185 1.324 . S
C626 C148 1.261 . S
C638 C198 1.295 . S
C653 C140 1.324 . S
C665 C4 1.325 . S
C680 C147 1.347 . S
C692 C23 1.340 . S
C707 C36 1.343 . S
C719 C108 1.349 . S
C734 C43 1.367 . S
C746 C127 1.366 . S
C761 C56 1.352 . S
C773 C192 1.345 . S
C788 C75 1.366 . S
C800 C205 1.367 . S
C815 C82 1.348 . S
C827 C160 1.342 . S
C842 C173 1.344 . S
C854 C101 1.351 . S
C869 C10 1.316 . S
C881 C199 1.321 . S
C896 C166 1.333 . S
C908 C17 1.330 . S
C923 C30 1.329 . S
C935 C179 1.325 . S
C950 C186 1.308 . S
C962 C49 1.311 . S
C977 C121 1.322 . S
C989 C62 1.327 . S
C1004 C69 1.327 . S
C1016 C134 1.324 . S
C1031 C153 1.334 . S
C1043 C88 1.331 . S
C1058 C114 1.335 . S
C1070 C95 1.333 . S
