# Generated by pormake.
# Topology uoc, (4)-cn, num edge types: 1
# Building blocks:
#     Node 0, Type 0, BuildingBlock: GALJAG_clean_sbu_0, # of connection points: 4
#     Node 1, Type 0, BuildingBlock: GALJAG_clean_sbu_0, # of connection points: 4
#     Node 2, Type 0, BuildingBlock: GALJAG_clean_sbu_0, # of connection points: 4
#     Node 3, Type 0, BuildingBlock: GALJAG_clean_sbu_0, # of connection points: 4
#     Node 4, Type 0, BuildingBlock: GALJAG_clean_sbu_0, # of connection points: 4
#     Node 5, Type 0, BuildingBlock: GALJAG_clean_sbu_0, # of connection points: 4
#     Node 6, Type 0, BuildingBlock: GALJAG_clean_sbu_0, # of connection points: 4
#     Node 7, Type 0, BuildingBlock: GALJAG_clean_sbu_0, # of connection points: 4
#     Edge 8, Type (0, 0), BuildingBlock: FUNLAD_clean_linker_1, # of connection points: 2
#     Edge 9, Type (0, 0), BuildingBlock: FUNLAD_clean_linker_1, # of connection points: 2
#     Edge 10, Type (0, 0), BuildingBlock: FUNLAD_clean_linker_1, # of connection points: 2
#     Edge 11, Type (0, 0), BuildingBlock: FUNLAD_clean_linker_1, # of connection points: 2
#     Edge 12, Type (0, 0), BuildingBlock: FUNLAD_clean_linker_1, # of connection points: 2
#     Edge 13, Type (0, 0), BuildingBlock: FUNLAD_clean_linker_1, # of connection points: 2
#     Edge 14, Type (0, 0), BuildingBlock: FUNLAD_clean_linker_1, # of connection points: 2
#     Edge 15, Type (0, 0), BuildingBlock: FUNLAD_clean_linker_1, # of connection points: 2
#     Edge 16, Type (0, 0), BuildingBlock: FUNLAD_clean_linker_1, # of connection points: 2
#     Edge 17, Type (0, 0), BuildingBlock: FUNLAD_clean_linker_1, # of connection points: 2
#     Edge 18, Type (0, 0), BuildingBlock: FUNLAD_clean_linker_1, # of connection points: 2
#     Edge 19, Type (0, 0), BuildingBlock: FUNLAD_clean_linker_1, # of connection points: 2
#     Edge 20, Type (0, 0), BuildingBlock: FUNLAD_clean_linker_1, # of connection points: 2
#     Edge 21, Type (0, 0), BuildingBlock: FUNLAD_clean_linker_1, # of connection points: 2
#     Edge 22, Type (0, 0), BuildingBlock: FUNLAD_clean_linker_1, # of connection points: 2
#     Edge 23, Type (0, 0), BuildingBlock: FUNLAD_clean_linker_1, # of connection points: 2
# Relax obj value: 0.017
# Max RMSD: 0.050
# Mean RMSD: 0.050
data_MOF--net-uoc--node1-GALJAG_clean_sbu_0--edge1-FUNLAD_clean_linker_1
_symmetry_space_group_name_H-M    P1
_symmetry_Int_Tables_number       1
_symmetry_cell_setting            triclinic
loop_
_symmetry_equiv_pos_as_xyz
'x, y, z'
_cell_length_a     28.791683
_cell_length_b     28.967871
_cell_length_c     57.621276
_cell_angle_alpha  89.976776
_cell_angle_beta   89.997783
_cell_angle_gamma 90.413195
loop_
_atom_site_label
_atom_site_type_symbol
_atom_site_fract_x
_atom_site_fract_y
_atom_site_fract_z
_atom_type_partial_charge
In0 In 0.10965 0.25209 0.12593 0.0
O1 O 0.05369 0.30762 0.12324 0.0
O2 O 0.12466 0.32895 0.12427 0.0
C3 C 0.06013 0.17321 0.12344 0.0
C4 C 0.13801 0.25249 0.17031 0.0
C5 C 0.15764 0.24057 0.08644 0.0
O6 O 0.04145 0.21223 0.12084 0.0
O7 O 0.10322 0.17423 0.12743 0.0
O8 O 0.17554 0.23299 0.10607 0.0
O9 O 0.11624 0.25449 0.08686 0.0
C10 C 0.08268 0.34064 0.1231 0.0
O11 O 0.16621 0.25697 0.15364 0.0
O12 O 0.09609 0.24724 0.16458 0.0
In13 In 0.75404 0.61242 0.37159 0.0
O14 O 0.76397 0.66725 0.34356 0.0
O15 O 0.75501 0.59694 0.33312 0.0
C16 C 0.74361 0.65794 0.41171 0.0
C17 C 0.84153 0.58098 0.37611 0.0
C18 C 0.66639 0.57936 0.37108 0.0
O19 O 0.74369 0.67863 0.39238 0.0
O20 O 0.74998 0.61487 0.41072 0.0
O21 O 0.70053 0.55309 0.37517 0.0
O22 O 0.67685 0.62088 0.36698 0.0
C23 C 0.76154 0.63837 0.3271 0.0
O24 O 0.80713 0.55343 0.37503 0.0
O25 O 0.83146 0.62321 0.37527 0.0
In26 In 0.39044 0.24383 0.6237 0.0
O27 O 0.45892 0.20387 0.62501 0.0
O28 O 0.39672 0.16655 0.61767 0.0
C29 C 0.42117 0.33186 0.6276 0.0
C30 C 0.35007 0.22517 0.66468 0.0
C31 C 0.34661 0.25264 0.58271 0.0
O32 O 0.44738 0.29963 0.62097 0.0
O33 O 0.38036 0.31956 0.63261 0.0
O34 O 0.32511 0.2529 0.60177 0.0
O35 O 0.38991 0.24712 0.58429 0.0
C36 C 0.44003 0.16526 0.62083 0.0
O37 O 0.32845 0.22158 0.64572 0.0
O38 O 0.39173 0.23867 0.663 0.0
In39 In 0.76035 0.89198 0.87146 0.0
O40 O 0.74639 0.8272 0.84992 0.0
O41 O 0.7446 0.89281 0.83303 0.0
C42 C 0.78103 0.84615 0.9107 0.0
C43 C 0.67478 0.92722 0.87752 0.0
C44 C 0.84135 0.93853 0.86533 0.0
O45 O 0.78802 0.82876 0.89092 0.0
O46 O 0.76391 0.88607 0.91053 0.0
O47 O 0.81171 0.95084 0.8802 0.0
O48 O 0.82962 0.9042 0.85329 0.0
C49 C 0.74004 0.84953 0.83134 0.0
O50 O 0.70837 0.95203 0.87058 0.0
O51 O 0.68471 0.88582 0.88171 0.0
In52 In 0.60444 0.74565 0.62172 0.0
O53 O 0.53508 0.78416 0.622 0.0
O54 O 0.59709 0.82307 0.61656 0.0
C55 C 0.57436 0.65751 0.62627 0.0
C56 C 0.64488 0.76544 0.6626 0.0
C57 C 0.64816 0.73722 0.58058 0.0
O58 O 0.54785 0.68944 0.61957 0.0
O59 O 0.61521 0.67013 0.63098 0.0
O60 O 0.6696 0.73601 0.59963 0.0
O61 O 0.60498 0.74336 0.58222 0.0
C62 C 0.5535 0.82331 0.6187 0.0
O63 O 0.6661 0.76954 0.64355 0.0
O64 O 0.60353 0.75093 0.66109 0.0
In65 In 0.26201 0.1083 0.878 0.0
O66 O 0.27177 0.17027 0.85405 0.0
O67 O 0.26635 0.1034 0.83878 0.0
C68 C 0.24495 0.15441 0.91746 0.0
C69 C 0.35004 0.07789 0.88201 0.0
C70 C 0.18137 0.06005 0.87724 0.0
O71 O 0.24175 0.17344 0.89782 0.0
O72 O 0.25711 0.11266 0.91713 0.0
O73 O 0.21827 0.04341 0.88552 0.0
O74 O 0.18552 0.10012 0.8689 0.0
C75 C 0.27198 0.14625 0.83578 0.0
O76 O 0.31741 0.05173 0.87523 0.0
O77 O 0.33805 0.11829 0.88717 0.0
In78 In 0.89964 0.75077 0.12246 0.0
O79 O 0.84239 0.74621 0.14998 0.0
O80 O 0.91236 0.75581 0.16115 0.0
C81 C 0.85436 0.76114 0.08207 0.0
C82 C 0.9271 0.66232 0.12037 0.0
C83 C 0.94808 0.83035 0.12062 0.0
O84 O 0.83433 0.76668 0.10138 0.0
O85 O 0.89652 0.74979 0.08327 0.0
O86 O 0.96759 0.79154 0.1189 0.0
O87 O 0.90459 0.82883 0.12338 0.0
C88 C 0.87039 0.75051 0.16676 0.0
O89 O 0.95595 0.69545 0.12056 0.0
O90 O 0.88503 0.67386 0.12095 0.0
In91 In 0.25258 0.39058 0.37459 0.0
O92 O 0.24404 0.3352 0.34679 0.0
O93 O 0.25378 0.40516 0.33601 0.0
C94 C 0.25984 0.34427 0.41463 0.0
C95 C 0.16513 0.42266 0.37844 0.0
C96 C 0.34042 0.42334 0.37503 0.0
O97 O 0.26107 0.32406 0.39519 0.0
O98 O 0.25404 0.38746 0.41379 0.0
O99 O 0.30606 0.45029 0.37694 0.0
O100 O 0.33013 0.38124 0.37285 0.0
C101 C 0.24751 0.36362 0.33019 0.0
O102 O 0.19983 0.44991 0.37813 0.0
O103 O 0.17487 0.38041 0.3771 0.0
H104 H 0.21525 0.21295 0.06544 0.0
C105 C 0.18184 0.2301 0.06462 0.0
H106 H 0.12746 0.25361 0.04321 0.0
H107 H 0.29999 0.2161 0.96821 0.0
H108 H 0.34046 0.27939 0.98722 0.0
H109 H 0.30754 0.31635 0.02205 0.0
H110 H 0.23426 0.28981 0.03826 0.0
C111 C 0.16156 0.23782 0.04401 0.0
C112 C 0.18059 0.21808 0.02227 0.0
C113 C 0.22276 0.23501 0.01269 0.0
C114 C 0.24097 0.21473 0.99217 0.0
C115 C 0.284 0.23105 0.98341 0.0
C116 C 0.30767 0.26725 0.9942 0.0
C117 C 0.28919 0.28797 0.01385 0.0
C118 C 0.24721 0.27224 0.02304 0.0
H119 H 0.22092 0.21391 0.93808 0.0
C120 C 0.23312 0.17855 0.93909 0.0
H121 H 0.24523 0.12093 0.96067 0.0
H122 H 0.09892 0.17723 0.03628 0.0
H123 H 0.05744 0.11564 0.0166 0.0
H124 H 0.08768 0.08239 0.98025 0.0
H125 H 0.15983 0.11033 0.96349 0.0
C126 C 0.23476 0.15685 0.95965 0.0
C127 C 0.21625 0.17853 0.98101 0.0
C128 C 0.17377 0.16208 0.99042 0.0
C129 C 0.15596 0.18179 0.01111 0.0
C130 C 0.1138 0.1641 0.02038 0.0
C131 C 0.08962 0.12861 0.00929 0.0
C132 C 0.10668 0.10985 0.98885 0.0
C133 C 0.14822 0.1262 0.97945 0.0
H134 H 0.76222 0.62394 0.28968 0.0
C135 C 0.76761 0.65086 0.30257 0.0
H136 H 0.78734 0.72028 0.30838 0.0
H137 H 0.86888 0.65842 0.20384 0.0
H138 H 0.91722 0.60455 0.22485 0.0
H139 H 0.91103 0.59711 0.2674 0.0
H140 H 0.85544 0.64244 0.289 0.0
C141 C 0.78242 0.69277 0.29578 0.0
C142 C 0.79166 0.70268 0.27084 0.0
C143 C 0.8266 0.67807 0.25873 0.0
C144 C 0.83249 0.68475 0.23448 0.0
C145 C 0.86477 0.65676 0.22248 0.0
C146 C 0.8925 0.62535 0.2343 0.0
C147 C 0.88884 0.62098 0.25822 0.0
C148 C 0.85641 0.64696 0.27038 0.0
H149 H 0.88308 0.75353 0.20429 0.0
C150 C 0.85675 0.74626 0.19123 0.0
H151 H 0.78855 0.72165 0.1851 0.0
H152 H 0.72221 0.75589 0.28885 0.0
H153 H 0.67674 0.8128 0.26813 0.0
H154 H 0.69026 0.8277 0.22651 0.0
H155 H 0.74907 0.78545 0.20528 0.0
C156 C 0.81543 0.72904 0.19783 0.0
C157 C 0.80606 0.71872 0.22271 0.0
C158 C 0.77184 0.74393 0.23488 0.0
C159 C 0.7645 0.73578 0.25896 0.0
C160 C 0.72959 0.76101 0.27062 0.0
C161 C 0.7032 0.79376 0.25893 0.0
C162 C 0.7108 0.80213 0.23549 0.0
C163 C 0.74466 0.77764 0.22351 0.0
H164 H 0.28688 0.27198 0.56093 0.0
C165 C 0.32324 0.26214 0.56056 0.0
H166 H 0.38339 0.2542 0.54012 0.0
H167 H 0.20887 0.2726 0.46367 0.0
H168 H 0.17999 0.20011 0.47927 0.0
H169 H 0.21859 0.16314 0.51261 0.0
H170 H 0.28571 0.19896 0.53083 0.0
C171 C 0.34664 0.26253 0.54042 0.0
C172 C 0.32569 0.28182 0.51898 0.0
C173 C 0.28773 0.25934 0.50795 0.0
C174 C 0.2669 0.27949 0.48803 0.0
C175 C 0.22729 0.25781 0.4782 0.0
C176 C 0.21013 0.21634 0.4871 0.0
C177 C 0.23175 0.19562 0.50592 0.0
C178 C 0.27011 0.2167 0.5163 0.0
H179 H 0.2819 0.28468 0.43562 0.0
C180 C 0.26912 0.31985 0.4365 0.0
H181 H 0.25417 0.37692 0.45782 0.0
H182 H 0.39715 0.33461 0.53641 0.0
H183 H 0.42801 0.40529 0.51989 0.0
H184 H 0.39508 0.43772 0.48395 0.0
H185 H 0.33069 0.39999 0.46451 0.0
C186 C 0.26591 0.34137 0.45706 0.0
C187 C 0.28558 0.32083 0.47853 0.0
C188 C 0.32395 0.34296 0.4894 0.0
C189 C 0.34375 0.32364 0.50976 0.0
C190 C 0.38126 0.34715 0.52063 0.0
C191 C 0.39932 0.3879 0.51137 0.0
C192 C 0.38072 0.40619 0.49117 0.0
C193 C 0.34356 0.38416 0.48023 0.0
H194 H 0.71711 0.79042 0.80991 0.0
C195 C 0.72612 0.82691 0.80953 0.0
H196 H 0.73079 0.88761 0.78943 0.0
H197 H 0.71182 0.71673 0.71154 0.0
H198 H 0.78433 0.68773 0.72696 0.0
H199 H 0.82175 0.72503 0.76067 0.0
H200 H 0.7863 0.79075 0.77948 0.0
C201 C 0.72278 0.85087 0.78964 0.0
C202 C 0.70285 0.83017 0.76819 0.0
C203 C 0.72533 0.79312 0.75676 0.0
C204 C 0.70514 0.77326 0.73653 0.0
C205 C 0.72669 0.73445 0.72632 0.0
C206 C 0.76819 0.71724 0.73509 0.0
C207 C 0.78915 0.73811 0.75412 0.0
C208 C 0.76819 0.77564 0.76488 0.0
H209 H 0.7011 0.79384 0.68442 0.0
C210 C 0.6665 0.7786 0.68478 0.0
H211 H 0.60887 0.75991 0.70547 0.0
H212 H 0.65009 0.90022 0.78612 0.0
H213 H 0.58005 0.93187 0.76938 0.0
H214 H 0.54799 0.90081 0.73284 0.0
H215 H 0.58539 0.83735 0.71306 0.0
C216 C 0.64405 0.77376 0.70507 0.0
C217 C 0.66403 0.79224 0.72701 0.0
C218 C 0.64197 0.82973 0.73822 0.0
C219 C 0.66115 0.84843 0.75894 0.0
C220 C 0.63773 0.88522 0.77006 0.0
C221 C 0.59733 0.90369 0.76068 0.0
C222 C 0.57923 0.88613 0.74015 0.0
C223 C 0.60106 0.84959 0.72899 0.0
H224 H 0.24763 0.37726 0.29271 0.0
C225 C 0.2423 0.35054 0.30572 0.0
H226 H 0.22282 0.2811 0.31184 0.0
H227 H 0.13933 0.34328 0.20785 0.0
H228 H 0.09068 0.39612 0.22929 0.0
H229 H 0.09734 0.40265 0.27186 0.0
H230 H 0.15371 0.35744 0.29303 0.0
C231 C 0.22774 0.30844 0.29914 0.0
C232 C 0.21795 0.29841 0.2743 0.0
C233 C 0.18246 0.32275 0.26247 0.0
C234 C 0.17625 0.31647 0.23823 0.0
C235 C 0.1436 0.34447 0.22648 0.0
C236 C 0.11571 0.37534 0.23855 0.0
C237 C 0.11963 0.3792 0.26248 0.0
C238 C 0.1525 0.35331 0.27439 0.0
H239 H 0.12519 0.24912 0.20782 0.0
C240 C 0.15158 0.25632 0.19478 0.0
H241 H 0.22004 0.28017 0.18862 0.0
H242 H 0.28827 0.24574 0.29184 0.0
H243 H 0.33402 0.18963 0.27072 0.0
H244 H 0.31983 0.17511 0.22912 0.0
H245 H 0.26011 0.21695 0.20831 0.0
C246 C 0.19312 0.27297 0.20137 0.0
C247 C 0.20279 0.28293 0.22623 0.0
C248 C 0.2375 0.25786 0.23815 0.0
C249 C 0.24524 0.26577 0.26221 0.0
C250 C 0.28064 0.24079 0.27362 0.0
C251 C 0.30717 0.20849 0.2617 0.0
C252 C 0.2992 0.20033 0.23828 0.0
C253 C 0.26481 0.2246 0.22654 0.0
H254 H 0.70773 0.71828 0.55859 0.0
C255 C 0.67153 0.72869 0.5583 0.0
H256 H 0.61198 0.73968 0.53779 0.0
H257 H 0.79005 0.72654 0.46282 0.0
H258 H 0.81952 0.79645 0.48085 0.0
H259 H 0.77967 0.83055 0.51459 0.0
H260 H 0.71069 0.79433 0.53077 0.0
C261 C 0.64854 0.7306 0.53805 0.0
C262 C 0.66985 0.71368 0.51616 0.0
C263 C 0.70885 0.73656 0.50627 0.0
C264 C 0.73045 0.7182 0.48611 0.0
C265 C 0.77109 0.74005 0.47748 0.0
C266 C 0.78857 0.78006 0.48777 0.0
C267 C 0.76625 0.79916 0.50682 0.0
C268 C 0.72683 0.77784 0.51603 0.0
H269 H 0.72001 0.71688 0.43283 0.0
C270 C 0.73229 0.68152 0.43359 0.0
H271 H 0.74411 0.62309 0.45452 0.0
H272 H 0.59576 0.66105 0.5308 0.0
H273 H 0.56436 0.59311 0.51182 0.0
H274 H 0.59912 0.56381 0.47564 0.0
H275 H 0.66544 0.60221 0.45825 0.0
C276 C 0.73301 0.65887 0.45394 0.0
C277 C 0.71156 0.67835 0.47524 0.0
C278 C 0.67187 0.65614 0.48483 0.0
C279 C 0.65123 0.6736 0.5054 0.0
C280 C 0.61241 0.6499 0.51495 0.0
C281 C 0.59402 0.61072 0.50427 0.0
C282 C 0.61359 0.59421 0.48391 0.0
C283 C 0.65191 0.61654 0.47419 0.0
H284 H 0.29353 0.19833 0.68682 0.0
C285 C 0.32866 0.21233 0.68695 0.0
H286 H 0.38788 0.22798 0.70712 0.0
H287 H 0.21687 0.20333 0.78478 0.0
H288 H 0.18308 0.2715 0.76737 0.0
H289 H 0.21848 0.3075 0.73276 0.0
H290 H 0.28726 0.27489 0.71507 0.0
C291 C 0.35216 0.21556 0.70699 0.0
C292 C 0.33269 0.19671 0.72893 0.0
C293 C 0.29371 0.2175 0.73961 0.0
C294 C 0.27476 0.19821 0.76027 0.0
C295 C 0.23404 0.21785 0.76974 0.0
C296 C 0.21403 0.25678 0.75981 0.0
C297 C 0.23385 0.27694 0.74027 0.0
C298 C 0.27321 0.25769 0.73021 0.0
H299 H 0.29233 0.20254 0.81205 0.0
C300 C 0.28141 0.16658 0.81287 0.0
H301 H 0.26944 0.10496 0.79428 0.0
H302 H 0.40648 0.14738 0.71229 0.0
H303 H 0.44162 0.08056 0.73027 0.0
H304 H 0.41145 0.04962 0.76723 0.0
H305 H 0.34597 0.08511 0.78639 0.0
C306 C 0.27932 0.14121 0.7934 0.0
C307 C 0.2964 0.15969 0.77085 0.0
C308 C 0.33541 0.13894 0.76015 0.0
C309 C 0.35338 0.15731 0.73909 0.0
C310 C 0.39181 0.13536 0.7285 0.0
C311 C 0.41232 0.09689 0.73861 0.0
C312 C 0.39533 0.07946 0.75942 0.0
C313 C 0.35749 0.10014 0.77018 0.0
H314 H 0.79555 0.78247 0.05995 0.0
C315 C 0.83129 0.77064 0.0598 0.0
H316 H 0.89114 0.75854 0.03955 0.0
H317 H 0.73634 0.76307 0.95524 0.0
H318 H 0.71308 0.68745 0.96933 0.0
H319 H 0.74593 0.65603 0.00554 0.0
H320 H 0.80188 0.70039 0.02805 0.0
C321 C 0.85483 0.76852 0.03972 0.0
C322 C 0.835 0.78673 0.01783 0.0
C323 C 0.80317 0.75997 0.00468 0.0
C324 C 0.78527 0.77756 0.98345 0.0
C325 C 0.75216 0.75085 0.97109 0.0
C326 C 0.73829 0.70747 0.97906 0.0
C327 C 0.75671 0.68982 -0.00052 0.0
C328 C 0.78874 0.71564 0.01224 0.0
H329 H 0.8136 0.79094 0.9315 0.0
C330 C 0.79356 0.82253 0.93242 0.0
H331 H 0.76294 0.87265 0.954 0.0
H332 H 0.89443 0.84726 0.03941 0.0
H333 H 0.9183 0.92256 0.02528 0.0
H334 H 0.8892 0.9523 0.98793 0.0
H335 H 0.83573 0.90703 0.96459 0.0
C336 C 0.78212 0.84051 0.95312 0.0
C337 C 0.8002 0.82142 0.97525 0.0
C338 C 0.83185 0.84826 0.98854 0.0
C339 C 0.8492 0.8309 0.00988 0.0
C340 C 0.88048 0.85856 0.02294 0.0
C341 C 0.89448 0.90191 0.01505 0.0
C342 C 0.87802 0.91867 0.99405 0.0
C343 C 0.84718 0.89231 0.98085 0.0
H344 H 0.9968 0.131 0.11784 0.0
C345 C 0.03368 0.12963 0.12178 0.0
H346 H 0.0909 0.08702 0.12961 0.0
H347 H 0.96328 0.92255 0.16533 0.0
H348 H 0.98657 0.9559 0.20221 0.0
H349 H 0.02901 0.03014 0.20371 0.0
H350 H 0.04834 0.07156 0.16833 0.0
C351 C 0.05434 0.0887 0.12501 0.0
C352 C 0.02784 0.0446 0.12395 0.0
C353 C 0.01705 0.0208 0.14477 0.0
C354 C 0.99259 0.97805 0.14391 0.0
C355 C 0.98187 0.95514 0.16499 0.0
C356 C 0.99502 0.9739 0.18628 0.0
C357 C 0.01893 0.01569 0.18712 0.0
C358 C 0.02987 0.03906 0.16668 0.0
H359 H 0.0119 0.87303 0.11834 0.0
C360 C 0.9743 0.87418 0.11988 0.0
H361 H 0.91524 0.91671 0.12321 0.0
H362 H 0.04568 0.08004 0.08073 0.0
H363 H 0.02265 0.04649 0.04388 0.0
H364 H 0.97924 0.97288 0.04244 0.0
H365 H 0.95857 0.93214 0.0779 0.0
C366 C 0.95277 0.91502 0.12149 0.0
C367 C 0.97936 0.95906 0.12223 0.0
C368 C 0.99034 0.9827 0.10138 0.0
C369 C 0.01488 0.02546 0.10223 0.0
C370 C 0.02643 0.04785 0.08113 0.0
C371 C 0.01354 0.0289 0.05984 0.0
C372 C 0.98908 0.98741 0.05904 0.0
C373 C 0.97749 0.9644 0.0795 0.0
H374 H 0.08992 0.41035 0.3808 0.0
C375 C 0.11624 0.43742 0.37991 0.0
H376 H 0.12817 0.50923 0.37757 0.0
H377 H 0.92702 0.54292 0.33505 0.0
H378 H 0.97618 0.55852 0.30177 0.0
H379 H 0.06053 0.54454 0.3035 0.0
H380 H 0.09623 0.51483 0.33852 0.0
C381 C 0.10269 0.48165 0.3795 0.0
C382 C 0.05215 0.49328 0.37923 0.0
C383 C 0.03189 0.51157 0.35878 0.0
C384 C 0.98325 0.52013 0.35787 0.0
C385 C 0.96386 0.53685 0.33693 0.0
C386 C 0.99164 0.54567 0.31762 0.0
C387 C 0.03912 0.53775 0.31858 0.0
C388 C 0.05917 0.52075 0.33883 0.0
H389 H 0.91673 0.59378 0.37796 0.0
C390 C 0.89054 0.56655 0.37742 0.0
H391 H 0.87902 0.49443 0.37714 0.0
H392 H 0.08004 0.46215 0.42186 0.0
H393 H 0.03072 0.44616 0.45505 0.0
H394 H 0.94626 0.45939 0.45315 0.0
H395 H 0.91062 0.48895 0.41804 0.0
C396 C 0.90435 0.52241 0.37712 0.0
C397 C 0.95492 0.51111 0.37756 0.0
C398 C 0.97513 0.4928 0.39798 0.0
C399 C 0.0238 0.48438 0.39893 0.0
C400 C 0.04317 0.46788 0.41992 0.0
C401 C 0.01529 0.45888 0.43918 0.0
C402 C 0.96774 0.4664 0.43812 0.0
C403 C 0.94773 0.48333 0.41785 0.0
H404 H 0.41054 0.40535 0.63543 0.0
C405 C 0.43568 0.38067 0.62894 0.0
H406 H 0.50223 0.3719 0.61431 0.0
H407 H 0.51717 0.57713 0.57725 0.0
H408 H 0.51057 0.53404 0.54131 0.0
H409 H 0.49342 0.4505 0.5417 0.0
H410 H 0.48306 0.40942 0.57804 0.0
C411 C 0.47748 0.39581 0.6218 0.0
C412 C 0.48896 0.44611 0.62176 0.0
C413 C 0.49447 0.46971 0.60034 0.0
C414 C 0.50369 0.51805 0.6001 0.0
C415 C 0.50962 0.54057 0.57846 0.0
C416 C 0.50596 0.51625 0.55768 0.0
C417 C 0.49633 0.4692 0.55791 0.0
C418 C 0.49056 0.44603 0.57891 0.0
H419 H 0.58513 0.58438 0.63495 0.0
C420 C 0.56004 0.6087 0.62807 0.0
H421 H 0.49383 0.6166 0.61291 0.0
H422 H 0.48562 0.41088 0.6659 0.0
H423 H 0.48972 0.45437 0.70178 0.0
H424 H 0.5001 0.53897 0.70127 0.0
H425 H 0.50725 0.58045 0.66488 0.0
C426 C 0.51848 0.59313 0.62083 0.0
C427 C 0.50722 0.54281 0.62126 0.0
C428 C 0.50128 0.51931 0.64268 0.0
C429 C 0.49318 0.47078 0.64295 0.0
C430 C 0.48992 0.44791 0.66463 0.0
C431 C 0.49255 0.47242 0.68538 0.0
C432 C 0.49856 0.52003 0.6851 0.0
C433 C 0.50289 0.54338 0.66407 0.0
H434 H 0.60124 0.91918 0.88676 0.0
C435 C 0.62676 0.94355 0.87998 0.0
H436 H 0.63735 0.00965 0.86542 0.0
H437 H 0.42827 0.02312 0.83131 0.0
H438 H 0.46983 0.01799 0.7948 0.0
H439 H 0.55402 0.0032 0.79402 0.0
H440 H 0.59734 0.99356 0.82975 0.0
C441 C 0.61286 0.98557 0.87327 0.0
C442 C 0.5626 0.9976 0.87395 0.0
C443 C 0.53774 0.00294 0.85289 0.0
C444 C 0.48901 0.01088 0.85334 0.0
C445 C 0.46518 0.01653 0.83202 0.0
C446 C 0.48861 0.01374 0.81092 0.0
C447 C 0.53603 0.0054 0.81048 0.0
C448 C 0.56048 0.99999 0.83114 0.0
H449 H 0.42381 0.08878 0.89032 0.0
C450 C 0.39907 0.06397 0.88326 0.0
H451 H 0.39059 0.9992 0.86698 0.0
H452 H 0.60053 0.99463 0.91752 0.0
H453 H 0.55869 0.99676 0.95404 0.0
H454 H 0.47343 0.00456 0.95475 0.0
H455 H 0.42964 0.01113 0.91898 0.0
C456 C 0.41447 0.02346 0.87515 0.0
C457 C 0.46517 0.0133 0.87484 0.0
C458 C 0.49002 0.00765 0.89592 0.0
C459 C 0.53891 0.00093 0.89548 0.0
C460 C 0.56315 0.99789 0.91681 0.0
C461 C 0.53961 0.99939 0.93791 0.0
C462 C 0.49163 0.00396 0.93831 0.0
C463 C 0.46695 0.00803 0.91763 0.0
H464 H 0.91281 0.58769 0.11996 0.0
C465 C 0.94048 0.61344 0.12016 0.0
H466 H 0.01306 0.6248 0.12058 0.0
H467 H 0.98927 0.41074 0.16132 0.0
H468 H 0.9572 0.4474 0.19554 0.0
H469 H 0.94354 0.53136 0.19638 0.0
H470 H 0.96174 0.57912 0.16299 0.0
C471 C 0.98482 0.59972 0.12094 0.0
C472 C 0.99616 0.54971 0.1212 0.0
C473 C 0.98576 0.52238 0.141 0.0
C474 C 0.99424 0.47408 0.14065 0.0
C475 C 0.98352 0.44758 0.16064 0.0
C476 C 0.96516 0.46819 0.18042 0.0
C477 C 0.95741 0.51545 0.18088 0.0
C478 C 0.96771 0.54242 0.16151 0.0
H479 H 0.09729 0.41516 0.12152 0.0
C480 C 0.06952 0.38952 0.12174 0.0
H481 H 0.99695 0.37837 0.12203 0.0
H482 H 0.02123 0.5925 0.0807 0.0
H483 H 0.05344 0.55589 0.04648 0.0
H484 H 0.06687 0.47189 0.04558 0.0
H485 H 0.04841 0.42405 0.07891 0.0
C486 C 0.02521 0.40335 0.12098 0.0
C487 C 0.01396 0.4534 0.12069 0.0
C488 C 0.02442 0.48076 0.1009 0.0
C489 C 0.01597 0.52906 0.10127 0.0
C490 C 0.02688 0.55563 0.08133 0.0
C491 C 0.04532 0.53506 0.06156 0.0
C492 C 0.05295 0.48778 0.06107 0.0
C493 C 0.0425 0.46075 0.08041 0.0
H494 H 0.41546 0.41099 0.37463 0.0
C495 C 0.38955 0.43811 0.37517 0.0
H496 H 0.37867 0.51003 0.37642 0.0
H497 H 0.57988 0.55282 0.4168 0.0
H498 H 0.53031 0.57624 0.44872 0.0
H499 H 0.4459 0.56154 0.44757 0.0
H500 H 0.41027 0.52389 0.41439 0.0
C501 C 0.4038 0.48232 0.37529 0.0
C502 C 0.45454 0.49386 0.37522 0.0
C503 C 0.47484 0.51604 0.39472 0.0
C504 C 0.52365 0.52439 0.39543 0.0
C505 C 0.54299 0.54611 0.41525 0.0
C506 C 0.515 0.55949 0.43375 0.0
C507 C 0.46744 0.55124 0.4331 0.0
C508 C 0.44742 0.52965 0.41391 0.0
H509 H 0.59147 0.59075 0.36745 0.0
C510 C 0.61726 0.56462 0.37138 0.0
H511 H 0.62761 0.49462 0.38028 0.0
H512 H 0.42658 0.45701 0.33359 0.0
H513 H 0.47623 0.43361 0.30182 0.0
H514 H 0.56118 0.44443 0.30401 0.0
H515 H 0.59691 0.47929 0.33796 0.0
C516 C 0.60283 0.52178 0.37665 0.0
C517 C 0.55215 0.51062 0.37661 0.0
C518 C 0.53191 0.4887 0.35707 0.0
C519 C 0.48302 0.48115 0.35614 0.0
C520 C 0.46362 0.46175 0.33572 0.0
C521 C 0.49171 0.44857 0.31722 0.0
C522 C 0.53952 0.45477 0.31843 0.0
C523 C 0.55957 0.47479 0.33802 0.0
H524 H 0.50378 0.12332 0.62302 0.0
C525 C 0.46639 0.12178 0.6205 0.0
H526 H 0.40779 0.07893 0.61491 0.0
H527 H 0.51947 0.91024 0.57469 0.0
H528 H 0.48222 0.93895 0.53985 0.0
H529 H 0.43957 0.0125 0.54027 0.0
H530 H 0.434 0.05787 0.57552 0.0
C531 C 0.44502 0.08065 0.61794 0.0
C532 C 0.47114 0.03644 0.61789 0.0
C533 C 0.47367 0.01009 0.59719 0.0
C534 C 0.49812 0.96757 0.59695 0.0
C535 C 0.50091 0.94248 0.57591 0.0
C536 C 0.4798 0.95863 0.55576 0.0
C537 C 0.45578 1.00004 0.556 0.0
C538 C 0.45275 0.02569 0.57638 0.0
H539 H 0.48854 0.86367 0.61851 0.0
C540 C 0.5262 0.86619 0.61791 0.0
H541 H 0.58458 0.91085 0.6174 0.0
H542 H 0.4684 0.07547 0.66125 0.0
H543 H 0.50514 0.04631 0.69608 0.0
H544 H 0.54946 0.97373 0.69534 0.0
H545 H 0.55686 0.92965 0.65973 0.0
C546 C 0.54694 0.90789 0.61712 0.0
C547 C 0.51973 0.95134 0.61746 0.0
C548 C 0.51679 0.97737 0.63823 0.0
C549 C 0.49201 0.0197 0.63854 0.0
C550 C 0.48792 0.04386 0.65981 0.0
C551 C 0.50861 0.02733 0.68 0.0
C552 C 0.53351 0.98645 0.67959 0.0
C553 C 0.53757 0.96155 0.65902 0.0
H554 H 0.90508 0.95619 0.84614 0.0
C555 C 0.88743 0.96027 0.86268 0.0
H556 H 0.8929 0.98315 0.89729 0.0
H557 H 0.1083 0.96769 0.8519 0.0
H558 H 0.09153 0.88632 0.84677 0.0
H559 H 0.01524 0.85378 0.85779 0.0
H560 H 0.9548 0.90284 0.87312 0.0
C561 C 0.91016 0.97964 0.88061 0.0
C562 C 0.95896 0.99707 0.87823 0.0
C563 C 0.9952 0.96712 0.87111 0.0
C564 C 0.0405 0.98513 0.86666 0.0
C565 C 0.07435 0.95539 0.85711 0.0
C566 C 0.06504 0.90861 0.85385 0.0
C567 C 0.02201 0.89035 0.85991 0.0
C568 C 0.98741 0.91906 0.86846 0.0
H569 H 0.13342 0.0057 0.88987 0.0
C570 C 0.13615 0.03591 0.87876 0.0
H571 H 0.10133 0.08246 0.85688 0.0
H572 H 0.8984 0.06365 0.8927 0.0
H573 H 0.91711 0.14337 0.90153 0.0
H574 H 0.99725 0.1729 0.8975 0.0
H575 H 0.05899 0.12313 0.88429 0.0
C576 C 0.09836 0.05173 0.86763 0.0
C577 C 0.05081 0.03216 0.87153 0.0
C578 C 0.0152 0.06145 0.87994 0.0
C579 C 0.96918 0.04409 0.88295 0.0
C580 C 0.93411 0.07466 0.89054 0.0
C581 C 0.94433 0.1206 0.89564 0.0
C582 C 0.98942 0.13724 0.89333 0.0
C583 C 0.02454 0.10824 0.88561 0.0
loop_
_geom_bond_atom_site_label_1
_geom_bond_atom_site_label_2
_geom_bond_distance
_geom_bond_site_symmetry_2
_ccdc_geom_bond_type
In0 O1 2.294 . S
In0 O2 2.326 . S
In0 O6 2.266 . S
In0 O7 2.326 . S
In0 O8 2.266 . S
In0 O9 2.326 . S
In0 O11 2.294 . S
In0 O12 2.326 . S
O1 In0 2.294 . S
O1 C10 1.240 . S
O2 In0 2.326 . S
O2 C10 1.252 . S
C3 O6 1.252 . S
C3 O7 1.260 . S
C4 O11 1.240 . S
C4 O12 1.252 . S
C5 O8 1.252 . S
C5 O9 1.260 . S
O6 In0 2.266 . S
O6 C3 1.252 . S
O7 In0 2.326 . S
O7 C3 1.260 . S
O8 In0 2.266 . S
O8 C5 1.252 . S
O9 In0 2.326 . S
O9 C5 1.260 . S
C10 O1 1.240 . S
C10 O2 1.252 . S
O11 In0 2.294 . S
O11 C4 1.240 . S
O12 In0 2.326 . S
O12 C4 1.252 . S
In13 O14 2.294 . S
In13 O15 2.326 . S
In13 O19 2.266 . S
In13 O20 2.326 . S
In13 O21 2.266 . S
In13 O22 2.326 . S
In13 O24 2.294 . S
In13 O25 2.326 . S
O14 In13 2.294 . S
O14 C23 1.240 . S
O15 In13 2.326 . S
O15 C23 1.252 . S
C16 O19 1.252 . S
C16 O20 1.260 . S
C17 O24 1.240 . S
C17 O25 1.252 . S
C18 O21 1.252 . S
C18 O22 1.260 . S
O19 In13 2.266 . S
O19 C16 1.252 . S
O20 In13 2.326 . S
O20 C16 1.260 . S
O21 In13 2.266 . S
O21 C18 1.252 . S
O22 In13 2.326 . S
O22 C18 1.260 . S
C23 O14 1.240 . S
C23 O15 1.252 . S
O24 In13 2.294 . S
O24 C17 1.240 . S
O25 In13 2.326 . S
O25 C17 1.252 . S
In26 O27 2.294 . S
In26 O28 2.326 . S
In26 O32 2.266 . S
In26 O33 2.326 . S
In26 O34 2.266 . S
In26 O35 2.326 . S
In26 O37 2.294 . S
In26 O38 2.326 . S
O27 In26 2.294 . S
O27 C36 1.240 . S
O28 In26 2.326 . S
O28 C36 1.252 . S
C29 O32 1.252 . S
C29 O33 1.260 . S
C30 O37 1.240 . S
C30 O38 1.252 . S
C31 O34 1.252 . S
C31 O35 1.260 . S
O32 In26 2.266 . S
O32 C29 1.252 . S
O33 In26 2.326 . S
O33 C29 1.260 . S
O34 In26 2.266 . S
O34 C31 1.252 . S
O35 In26 2.326 . S
O35 C31 1.260 . S
C36 O27 1.240 . S
C36 O28 1.252 . S
O37 In26 2.294 . S
O37 C30 1.240 . S
O38 In26 2.326 . S
O38 C30 1.252 . S
In39 O40 2.294 . S
In39 O41 2.326 . S
In39 O45 2.266 . S
In39 O46 2.326 . S
In39 O47 2.266 . S
In39 O48 2.326 . S
In39 O50 2.294 . S
In39 O51 2.326 . S
O40 In39 2.294 . S
O40 C49 1.240 . S
O41 In39 2.326 . S
O41 C49 1.252 . S
C42 O45 1.252 . S
C42 O46 1.260 . S
C43 O50 1.240 . S
C43 O51 1.252 . S
C44 O47 1.252 . S
C44 O48 1.260 . S
O45 In39 2.266 . S
O45 C42 1.252 . S
O46 In39 2.326 . S
O46 C42 1.260 . S
O47 In39 2.266 . S
O47 C44 1.252 . S
O48 In39 2.326 . S
O48 C44 1.260 . S
C49 O40 1.240 . S
C49 O41 1.252 . S
O50 In39 2.294 . S
O50 C43 1.240 . S
O51 In39 2.326 . S
O51 C43 1.252 . S
In52 O53 2.294 . S
In52 O54 2.326 . S
In52 O58 2.266 . S
In52 O59 2.326 . S
In52 O60 2.266 . S
In52 O61 2.326 . S
In52 O63 2.294 . S
In52 O64 2.326 . S
O53 In52 2.294 . S
O53 C62 1.240 . S
O54 In52 2.326 . S
O54 C62 1.252 . S
C55 O58 1.252 . S
C55 O59 1.260 . S
C56 O63 1.240 . S
C56 O64 1.252 . S
C57 O60 1.252 . S
C57 O61 1.260 . S
O58 In52 2.266 . S
O58 C55 1.252 . S
O59 In52 2.326 . S
O59 C55 1.260 . S
O60 In52 2.266 . S
O60 C57 1.252 . S
O61 In52 2.326 . S
O61 C57 1.260 . S
C62 O53 1.240 . S
C62 O54 1.252 . S
O63 In52 2.294 . S
O63 C56 1.240 . S
O64 In52 2.326 . S
O64 C56 1.252 . S
In65 O66 2.294 . S
In65 O67 2.326 . S
In65 O71 2.266 . S
In65 O72 2.326 . S
In65 O73 2.266 . S
In65 O74 2.326 . S
In65 O76 2.294 . S
In65 O77 2.326 . S
O66 In65 2.294 . S
O66 C75 1.240 . S
O67 In65 2.326 . S
O67 C75 1.252 . S
C68 O71 1.252 . S
C68 O72 1.260 . S
C69 O76 1.240 . S
C69 O77 1.252 . S
C70 O73 1.252 . S
C70 O74 1.260 . S
O71 In65 2.266 . S
O71 C68 1.252 . S
O72 In65 2.326 . S
O72 C68 1.260 . S
O73 In65 2.266 . S
O73 C70 1.252 . S
O74 In65 2.326 . S
O74 C70 1.260 . S
C75 O66 1.240 . S
C75 O67 1.252 . S
O76 In65 2.294 . S
O76 C69 1.240 . S
O77 In65 2.326 . S
O77 C69 1.252 . S
In78 O79 2.294 . S
In78 O80 2.326 . S
In78 O84 2.266 . S
In78 O85 2.326 . S
In78 O86 2.266 . S
In78 O87 2.326 . S
In78 O89 2.294 . S
In78 O90 2.326 . S
O79 In78 2.294 . S
O79 C88 1.240 . S
O80 In78 2.326 . S
O80 C88 1.252 . S
C81 O84 1.252 . S
C81 O85 1.260 . S
C82 O89 1.240 . S
C82 O90 1.252 . S
C83 O86 1.252 . S
C83 O87 1.260 . S
O84 In78 2.266 . S
O84 C81 1.252 . S
O85 In78 2.326 . S
O85 C81 1.260 . S
O86 In78 2.266 . S
O86 C83 1.252 . S
O87 In78 2.326 . S
O87 C83 1.260 . S
C88 O79 1.240 . S
C88 O80 1.252 . S
O89 In78 2.294 . S
O89 C82 1.240 . S
O90 In78 2.326 . S
O90 C82 1.252 . S
In91 O92 2.294 . S
In91 O93 2.326 . S
In91 O97 2.266 . S
In91 O98 2.326 . S
In91 O99 2.266 . S
In91 O100 2.326 . S
In91 O102 2.294 . S
In91 O103 2.326 . S
O92 In91 2.294 . S
O92 C101 1.240 . S
O93 In91 2.326 . S
O93 C101 1.252 . S
C94 O97 1.252 . S
C94 O98 1.260 . S
C95 O102 1.240 . S
C95 O103 1.252 . S
C96 O99 1.252 . S
C96 O100 1.260 . S
O97 In91 2.266 . S
O97 C94 1.252 . S
O98 In91 2.326 . S
O98 C94 1.260 . S
O99 In91 2.266 . S
O99 C96 1.252 . S
O100 In91 2.326 . S
O100 C96 1.260 . S
C101 O92 1.240 . S
C101 O93 1.252 . S
O102 In91 2.294 . S
O102 C95 1.240 . S
O103 In91 2.326 . S
O103 C95 1.252 . S
H104 C105 0.951 . S
C105 H104 0.951 . S
C105 C111 1.265 . S
H106 C111 0.950 . S
H107 C115 0.949 . S
H108 C116 0.950 . S
H109 C117 0.951 . S
H110 C118 0.951 . S
C111 C105 1.265 . S
C111 H106 0.950 . S
C111 C112 1.478 . S
C112 C111 1.478 . S
C112 C113 1.397 . S
C112 C129 1.394 . S
C113 C112 1.397 . S
C113 C114 1.438 1_554 S
C113 C118 1.429 . S
C114 C113 1.438 1_556 S
C114 C115 1.428 . S
C114 C127 1.394 . S
C115 H107 0.949 . S
C115 C114 1.428 . S
C115 C116 1.345 . S
C116 H108 0.950 . S
C116 C115 1.345 . S
C116 C117 1.424 1_556 S
C117 H109 0.951 . S
C117 C116 1.424 1_554 S
C117 C118 1.347 . S
C118 H110 0.951 . S
C118 C113 1.429 . S
C118 C117 1.347 . S
H119 C120 0.951 . S
C120 H119 0.951 . S
C120 C126 1.265 . S
H121 C126 0.950 . S
H122 C130 0.949 . S
H123 C131 0.950 . S
H124 C132 0.951 . S
H125 C133 0.951 . S
C126 C120 1.265 . S
C126 H121 0.950 . S
C126 C127 1.478 . S
C127 C114 1.394 . S
C127 C126 1.478 . S
C127 C128 1.397 . S
C128 C127 1.397 . S
C128 C129 1.438 1_556 S
C128 C133 1.429 . S
C129 C112 1.394 . S
C129 C128 1.438 1_554 S
C129 C130 1.428 . S
C130 H122 0.949 . S
C130 C129 1.428 . S
C130 C131 1.345 . S
C131 H123 0.950 . S
C131 C130 1.345 . S
C131 C132 1.424 1_554 S
C132 H124 0.951 . S
C132 C131 1.424 1_556 S
C132 C133 1.347 . S
C133 H125 0.951 . S
C133 C128 1.429 . S
C133 C132 1.347 . S
H134 C135 0.951 . S
C135 H134 0.951 . S
C135 C141 1.265 . S
H136 C141 0.950 . S
H137 C145 0.949 . S
H138 C146 0.950 . S
H139 C147 0.951 . S
H140 C148 0.951 . S
C141 C135 1.265 . S
C141 H136 0.950 . S
C141 C142 1.478 . S
C142 C141 1.478 . S
C142 C143 1.397 . S
C142 C159 1.394 . S
C143 C142 1.397 . S
C143 C144 1.438 . S
C143 C148 1.429 . S
C144 C143 1.438 . S
C144 C145 1.428 . S
C144 C157 1.394 . S
C145 H137 0.949 . S
C145 C144 1.428 . S
C145 C146 1.345 . S
C146 H138 0.950 . S
C146 C145 1.345 . S
C146 C147 1.424 . S
C147 H139 0.951 . S
C147 C146 1.424 . S
C147 C148 1.347 . S
C148 H140 0.951 . S
C148 C143 1.429 . S
C148 C147 1.347 . S
H149 C150 0.951 . S
C150 H149 0.951 . S
C150 C156 1.265 . S
H151 C156 0.950 . S
H152 C160 0.949 . S
H153 C161 0.950 . S
H154 C162 0.951 . S
H155 C163 0.951 . S
C156 C150 1.265 . S
C156 H151 0.950 . S
C156 C157 1.478 . S
C157 C144 1.394 . S
C157 C156 1.478 . S
C157 C158 1.397 . S
C158 C157 1.397 . S
C158 C159 1.438 . S
C158 C163 1.429 . S
C159 C142 1.394 . S
C159 C158 1.438 . S
C159 C160 1.428 . S
C160 H152 0.949 . S
C160 C159 1.428 . S
C160 C161 1.345 . S
C161 H153 0.950 . S
C161 C160 1.345 . S
C161 C162 1.424 . S
C162 H154 0.951 . S
C162 C161 1.424 . S
C162 C163 1.347 . S
C163 H155 0.951 . S
C163 C158 1.429 . S
C163 C162 1.347 . S
H164 C165 0.951 . S
C165 H164 0.951 . S
C165 C171 1.265 . S
H166 C171 0.950 . S
H167 C175 0.949 . S
H168 C176 0.950 . S
H169 C177 0.951 . S
H170 C178 0.951 . S
C171 C165 1.265 . S
C171 H166 0.950 . S
C171 C172 1.478 . S
C172 C171 1.478 . S
C172 C173 1.397 . S
C172 C189 1.394 . S
C173 C172 1.397 . S
C173 C174 1.438 . S
C173 C178 1.429 . S
C174 C173 1.438 . S
C174 C175 1.428 . S
C174 C187 1.394 . S
C175 H167 0.949 . S
C175 C174 1.428 . S
C175 C176 1.345 . S
C176 H168 0.950 . S
C176 C175 1.345 . S
C176 C177 1.424 . S
C177 H169 0.951 . S
C177 C176 1.424 . S
C177 C178 1.347 . S
C178 H170 0.951 . S
C178 C173 1.429 . S
C178 C177 1.347 . S
H179 C180 0.951 . S
C180 H179 0.951 . S
C180 C186 1.265 . S
H181 C186 0.950 . S
H182 C190 0.949 . S
H183 C191 0.950 . S
H184 C192 0.951 . S
H185 C193 0.951 . S
C186 C180 1.265 . S
C186 H181 0.950 . S
C186 C187 1.478 . S
C187 C174 1.394 . S
C187 C186 1.478 . S
C187 C188 1.397 . S
C188 C187 1.397 . S
C188 C189 1.438 . S
C188 C193 1.429 . S
C189 C172 1.394 . S
C189 C188 1.438 . S
C189 C190 1.428 . S
C190 H182 0.949 . S
C190 C189 1.428 . S
C190 C191 1.345 . S
C191 H183 0.950 . S
C191 C190 1.345 . S
C191 C192 1.424 . S
C192 H184 0.951 . S
C192 C191 1.424 . S
C192 C193 1.347 . S
C193 H185 0.951 . S
C193 C188 1.429 . S
C193 C192 1.347 . S
H194 C195 0.951 . S
C195 H194 0.951 . S
C195 C201 1.265 . S
H196 C201 0.950 . S
H197 C205 0.949 . S
H198 C206 0.950 . S
H199 C207 0.951 . S
H200 C208 0.951 . S
C201 C195 1.265 . S
C201 H196 0.950 . S
C201 C202 1.478 . S
C202 C201 1.478 . S
C202 C203 1.397 . S
C202 C219 1.394 . S
C203 C202 1.397 . S
C203 C204 1.438 . S
C203 C208 1.429 . S
C204 C203 1.438 . S
C204 C205 1.428 . S
C204 C217 1.394 . S
C205 H197 0.949 . S
C205 C204 1.428 . S
C205 C206 1.345 . S
C206 H198 0.950 . S
C206 C205 1.345 . S
C206 C207 1.424 . S
C207 H199 0.951 . S
C207 C206 1.424 . S
C207 C208 1.347 . S
C208 H200 0.951 . S
C208 C203 1.429 . S
C208 C207 1.347 . S
H209 C210 0.951 . S
C210 H209 0.951 . S
C210 C216 1.265 . S
H211 C216 0.950 . S
H212 C220 0.949 . S
H213 C221 0.950 . S
H214 C222 0.951 . S
H215 C223 0.951 . S
C216 C210 1.265 . S
C216 H211 0.950 . S
C216 C217 1.478 . S
C217 C204 1.394 . S
C217 C216 1.478 . S
C217 C218 1.397 . S
C218 C217 1.397 . S
C218 C219 1.438 . S
C218 C223 1.429 . S
C219 C202 1.394 . S
C219 C218 1.438 . S
C219 C220 1.428 . S
C220 H212 0.949 . S
C220 C219 1.428 . S
C220 C221 1.345 . S
C221 H213 0.950 . S
C221 C220 1.345 . S
C221 C222 1.424 . S
C222 H214 0.951 . S
C222 C221 1.424 . S
C222 C223 1.347 . S
C223 H215 0.951 . S
C223 C218 1.429 . S
C223 C222 1.347 . S
H224 C225 0.951 . S
C225 H224 0.951 . S
C225 C231 1.265 . S
H226 C231 0.950 . S
H227 C235 0.949 . S
H228 C236 0.950 . S
H229 C237 0.951 . S
H230 C238 0.951 . S
C231 C225 1.265 . S
C231 H226 0.950 . S
C231 C232 1.478 . S
C232 C231 1.478 . S
C232 C233 1.397 . S
C232 C249 1.394 . S
C233 C232 1.397 . S
C233 C234 1.438 . S
C233 C238 1.429 . S
C234 C233 1.438 . S
C234 C235 1.428 . S
C234 C247 1.394 . S
C235 H227 0.949 . S
C235 C234 1.428 . S
C235 C236 1.345 . S
C236 H228 0.950 . S
C236 C235 1.345 . S
C236 C237 1.424 . S
C237 H229 0.951 . S
C237 C236 1.424 . S
C237 C238 1.347 . S
C238 H230 0.951 . S
C238 C233 1.429 . S
C238 C237 1.347 . S
H239 C240 0.951 . S
C240 H239 0.951 . S
C240 C246 1.265 . S
H241 C246 0.950 . S
H242 C250 0.949 . S
H243 C251 0.950 . S
H244 C252 0.951 . S
H245 C253 0.951 . S
C246 C240 1.265 . S
C246 H241 0.950 . S
C246 C247 1.478 . S
C247 C234 1.394 . S
C247 C246 1.478 . S
C247 C248 1.397 . S
C248 C247 1.397 . S
C248 C249 1.438 . S
C248 C253 1.429 . S
C249 C232 1.394 . S
C249 C248 1.438 . S
C249 C250 1.428 . S
C250 H242 0.949 . S
C250 C249 1.428 . S
C250 C251 1.345 . S
C251 H243 0.950 . S
C251 C250 1.345 . S
C251 C252 1.424 . S
C252 H244 0.951 . S
C252 C251 1.424 . S
C252 C253 1.347 . S
C253 H245 0.951 . S
C253 C248 1.429 . S
C253 C252 1.347 . S
H254 C255 0.951 . S
C255 H254 0.951 . S
C255 C261 1.265 . S
H256 C261 0.950 . S
H257 C265 0.949 . S
H258 C266 0.950 . S
H259 C267 0.951 . S
H260 C268 0.951 . S
C261 C255 1.265 . S
C261 H256 0.950 . S
C261 C262 1.478 . S
C262 C261 1.478 . S
C262 C263 1.397 . S
C262 C279 1.394 . S
C263 C262 1.397 . S
C263 C264 1.438 . S
C263 C268 1.429 . S
C264 C263 1.438 . S
C264 C265 1.428 . S
C264 C277 1.394 . S
C265 H257 0.949 . S
C265 C264 1.428 . S
C265 C266 1.345 . S
C266 H258 0.950 . S
C266 C265 1.345 . S
C266 C267 1.424 . S
C267 H259 0.951 . S
C267 C266 1.424 . S
C267 C268 1.347 . S
C268 H260 0.951 . S
C268 C263 1.429 . S
C268 C267 1.347 . S
H269 C270 0.951 . S
C270 H269 0.951 . S
C270 C276 1.265 . S
H271 C276 0.950 . S
H272 C280 0.949 . S
H273 C281 0.950 . S
H274 C282 0.951 . S
H275 C283 0.951 . S
C276 C270 1.265 . S
C276 H271 0.950 . S
C276 C277 1.478 . S
C277 C264 1.394 . S
C277 C276 1.478 . S
C277 C278 1.397 . S
C278 C277 1.397 . S
C278 C279 1.438 . S
C278 C283 1.429 . S
C279 C262 1.394 . S
C279 C278 1.438 . S
C279 C280 1.428 . S
C280 H272 0.949 . S
C280 C279 1.428 . S
C280 C281 1.345 . S
C281 H273 0.950 . S
C281 C280 1.345 . S
C281 C282 1.424 . S
C282 H274 0.951 . S
C282 C281 1.424 . S
C282 C283 1.347 . S
C283 H275 0.951 . S
C283 C278 1.429 . S
C283 C282 1.347 . S
H284 C285 0.951 . S
C285 H284 0.951 . S
C285 C291 1.265 . S
H286 C291 0.950 . S
H287 C295 0.949 . S
H288 C296 0.950 . S
H289 C297 0.951 . S
H290 C298 0.951 . S
C291 C285 1.265 . S
C291 H286 0.950 . S
C291 C292 1.478 . S
C292 C291 1.478 . S
C292 C293 1.397 . S
C292 C309 1.394 . S
C293 C292 1.397 . S
C293 C294 1.438 . S
C293 C298 1.429 . S
C294 C293 1.438 . S
C294 C295 1.428 . S
C294 C307 1.394 . S
C295 H287 0.949 . S
C295 C294 1.428 . S
C295 C296 1.345 . S
C296 H288 0.950 . S
C296 C295 1.345 . S
C296 C297 1.424 . S
C297 H289 0.951 . S
C297 C296 1.424 . S
C297 C298 1.347 . S
C298 H290 0.951 . S
C298 C293 1.429 . S
C298 C297 1.347 . S
H299 C300 0.951 . S
C300 H299 0.951 . S
C300 C306 1.265 . S
H301 C306 0.950 . S
H302 C310 0.949 . S
H303 C311 0.950 . S
H304 C312 0.951 . S
H305 C313 0.951 . S
C306 C300 1.265 . S
C306 H301 0.950 . S
C306 C307 1.478 . S
C307 C294 1.394 . S
C307 C306 1.478 . S
C307 C308 1.397 . S
C308 C307 1.397 . S
C308 C309 1.438 . S
C308 C313 1.429 . S
C309 C292 1.394 . S
C309 C308 1.438 . S
C309 C310 1.428 . S
C310 H302 0.949 . S
C310 C309 1.428 . S
C310 C311 1.345 . S
C311 H303 0.950 . S
C311 C310 1.345 . S
C311 C312 1.424 . S
C312 H304 0.951 . S
C312 C311 1.424 . S
C312 C313 1.347 . S
C313 H305 0.951 . S
C313 C308 1.429 . S
C313 C312 1.347 . S
H314 C315 0.951 . S
C315 H314 0.951 . S
C315 C321 1.265 . S
H316 C321 0.950 . S
H317 C325 0.949 . S
H318 C326 0.950 . S
H319 C327 0.951 . S
H320 C328 0.951 . S
C321 C315 1.265 . S
C321 H316 0.950 . S
C321 C322 1.478 . S
C322 C321 1.478 . S
C322 C323 1.397 . S
C322 C339 1.394 . S
C323 C322 1.397 . S
C323 C324 1.438 1_554 S
C323 C328 1.429 . S
C324 C323 1.438 1_556 S
C324 C325 1.428 . S
C324 C337 1.394 . S
C325 H317 0.949 . S
C325 C324 1.428 . S
C325 C326 1.345 . S
C326 H318 0.950 . S
C326 C325 1.345 . S
C326 C327 1.424 . S
C327 H319 0.951 . S
C327 C326 1.424 . S
C327 C328 1.347 1_556 S
C328 H320 0.951 . S
C328 C323 1.429 . S
C328 C327 1.347 1_554 S
H329 C330 0.951 . S
C330 H329 0.951 . S
C330 C336 1.265 . S
H331 C336 0.950 . S
H332 C340 0.949 . S
H333 C341 0.950 . S
H334 C342 0.951 . S
H335 C343 0.951 . S
C336 C330 1.265 . S
C336 H331 0.950 . S
C336 C337 1.478 . S
C337 C324 1.394 . S
C337 C336 1.478 . S
C337 C338 1.397 . S
C338 C337 1.397 . S
C338 C339 1.438 1_556 S
C338 C343 1.429 . S
C339 C322 1.394 . S
C339 C338 1.438 1_554 S
C339 C340 1.428 . S
C340 H332 0.949 . S
C340 C339 1.428 . S
C340 C341 1.345 . S
C341 H333 0.950 . S
C341 C340 1.345 . S
C341 C342 1.424 . S
C342 H334 0.951 . S
C342 C341 1.424 . S
C342 C343 1.347 1_554 S
C343 H335 0.951 . S
C343 C338 1.429 . S
C343 C342 1.347 1_556 S
H344 C345 0.951 . S
C345 H344 0.951 . S
C345 C351 1.265 . S
H346 C351 0.950 . S
H347 C355 0.949 . S
H348 C356 0.950 . S
H349 C357 0.951 . S
H350 C358 0.951 . S
C351 C345 1.265 . S
C351 H346 0.950 . S
C351 C352 1.478 . S
C352 C351 1.478 . S
C352 C353 1.397 . S
C352 C369 1.394 . S
C353 C352 1.397 . S
C353 C354 1.438 1_445 S
C353 C358 1.429 . S
C354 C353 1.438 1_665 S
C354 C355 1.428 . S
C354 C367 1.394 . S
C355 H347 0.949 . S
C355 C354 1.428 . S
C355 C356 1.345 . S
C356 H348 0.950 . S
C356 C355 1.345 . S
C356 C357 1.424 1_665 S
C357 H349 0.951 . S
C357 C356 1.424 1_445 S
C357 C358 1.347 . S
C358 H350 0.951 . S
C358 C353 1.429 . S
C358 C357 1.347 . S
H359 C360 0.951 . S
C360 H359 0.951 . S
C360 C366 1.265 . S
H361 C366 0.950 . S
H362 C370 0.949 . S
H363 C371 0.950 . S
H364 C372 0.951 . S
H365 C373 0.951 . S
C366 C360 1.265 . S
C366 H361 0.950 . S
C366 C367 1.478 . S
C367 C354 1.394 . S
C367 C366 1.478 . S
C367 C368 1.397 . S
C368 C367 1.397 . S
C368 C369 1.438 1_665 S
C368 C373 1.429 . S
C369 C352 1.394 . S
C369 C368 1.438 1_445 S
C369 C370 1.428 . S
C370 H362 0.949 . S
C370 C369 1.428 . S
C370 C371 1.345 . S
C371 H363 0.950 . S
C371 C370 1.345 . S
C371 C372 1.424 1_445 S
C372 H364 0.951 . S
C372 C371 1.424 1_665 S
C372 C373 1.347 . S
C373 H365 0.951 . S
C373 C368 1.429 . S
C373 C372 1.347 . S
H374 C375 0.951 . S
C375 H374 0.951 . S
C375 C381 1.265 . S
H376 C381 0.950 . S
H377 C385 0.949 . S
H378 C386 0.950 . S
H379 C387 0.951 . S
H380 C388 0.951 . S
C381 C375 1.265 . S
C381 H376 0.950 . S
C381 C382 1.478 . S
C382 C381 1.478 . S
C382 C383 1.397 . S
C382 C399 1.394 . S
C383 C382 1.397 . S
C383 C384 1.438 1_455 S
C383 C388 1.429 . S
C384 C383 1.438 1_655 S
C384 C385 1.428 . S
C384 C397 1.394 . S
C385 H377 0.949 . S
C385 C384 1.428 . S
C385 C386 1.345 . S
C386 H378 0.950 . S
C386 C385 1.345 . S
C386 C387 1.424 1_655 S
C387 H379 0.951 . S
C387 C386 1.424 1_455 S
C387 C388 1.347 . S
C388 H380 0.951 . S
C388 C383 1.429 . S
C388 C387 1.347 . S
H389 C390 0.951 . S
C390 H389 0.951 . S
C390 C396 1.265 . S
H391 C396 0.950 . S
H392 C400 0.949 . S
H393 C401 0.950 . S
H394 C402 0.951 . S
H395 C403 0.951 . S
C396 C390 1.265 . S
C396 H391 0.950 . S
C396 C397 1.478 . S
C397 C384 1.394 . S
C397 C396 1.478 . S
C397 C398 1.397 . S
C398 C397 1.397 . S
C398 C399 1.438 1_655 S
C398 C403 1.429 . S
C399 C382 1.394 . S
C399 C398 1.438 1_455 S
C399 C400 1.428 . S
C400 H392 0.949 . S
C400 C399 1.428 . S
C400 C401 1.345 . S
C401 H393 0.950 . S
C401 C400 1.345 . S
C401 C402 1.424 1_455 S
C402 H394 0.951 . S
C402 C401 1.424 1_655 S
C402 C403 1.347 . S
C403 H395 0.951 . S
C403 C398 1.429 . S
C403 C402 1.347 . S
H404 C405 0.951 . S
C405 H404 0.951 . S
C405 C411 1.265 . S
H406 C411 0.950 . S
H407 C415 0.949 . S
H408 C416 0.950 . S
H409 C417 0.951 . S
H410 C418 0.951 . S
C411 C405 1.265 . S
C411 H406 0.950 . S
C411 C412 1.478 . S
C412 C411 1.478 . S
C412 C413 1.397 . S
C412 C429 1.394 . S
C413 C412 1.397 . S
C413 C414 1.438 . S
C413 C418 1.429 . S
C414 C413 1.438 . S
C414 C415 1.428 . S
C414 C427 1.394 . S
C415 H407 0.949 . S
C415 C414 1.428 . S
C415 C416 1.345 . S
C416 H408 0.950 . S
C416 C415 1.345 . S
C416 C417 1.424 . S
C417 H409 0.951 . S
C417 C416 1.424 . S
C417 C418 1.347 . S
C418 H410 0.951 . S
C418 C413 1.429 . S
C418 C417 1.347 . S
H419 C420 0.951 . S
C420 H419 0.951 . S
C420 C426 1.265 . S
H421 C426 0.950 . S
H422 C430 0.949 . S
H423 C431 0.950 . S
H424 C432 0.951 . S
H425 C433 0.951 . S
C426 C420 1.265 . S
C426 H421 0.950 . S
C426 C427 1.478 . S
C427 C414 1.394 . S
C427 C426 1.478 . S
C427 C428 1.397 . S
C428 C427 1.397 . S
C428 C429 1.438 . S
C428 C433 1.429 . S
C429 C412 1.394 . S
C429 C428 1.438 . S
C429 C430 1.428 . S
C430 H422 0.949 . S
C430 C429 1.428 . S
C430 C431 1.345 . S
C431 H423 0.950 . S
C431 C430 1.345 . S
C431 C432 1.424 . S
C432 H424 0.951 . S
C432 C431 1.424 . S
C432 C433 1.347 . S
C433 H425 0.951 . S
C433 C428 1.429 . S
C433 C432 1.347 . S
H434 C435 0.951 . S
C435 H434 0.951 . S
C435 C441 1.265 . S
H436 C441 0.950 1_545 S
H437 C445 0.949 . S
H438 C446 0.950 . S
H439 C447 0.951 . S
H440 C448 0.951 . S
C441 C435 1.265 . S
C441 H436 0.950 1_565 S
C441 C442 1.478 . S
C442 C441 1.478 . S
C442 C443 1.397 1_565 S
C442 C459 1.394 . S
C443 C442 1.397 1_545 S
C443 C444 1.438 . S
C443 C448 1.429 . S
C444 C443 1.438 . S
C444 C445 1.428 . S
C444 C457 1.394 . S
C445 H437 0.949 . S
C445 C444 1.428 . S
C445 C446 1.345 . S
C446 H438 0.950 . S
C446 C445 1.345 . S
C446 C447 1.424 . S
C447 H439 0.951 . S
C447 C446 1.424 . S
C447 C448 1.347 . S
C448 H440 0.951 . S
C448 C443 1.429 . S
C448 C447 1.347 . S
H449 C450 0.951 . S
C450 H449 0.951 . S
C450 C456 1.265 . S
H451 C456 0.950 1_565 S
H452 C460 0.949 . S
H453 C461 0.950 . S
H454 C462 0.951 . S
H455 C463 0.951 . S
C456 C450 1.265 . S
C456 H451 0.950 1_545 S
C456 C457 1.478 . S
C457 C444 1.394 . S
C457 C456 1.478 . S
C457 C458 1.397 1_545 S
C458 C457 1.397 1_565 S
C458 C459 1.438 . S
C458 C463 1.429 . S
C459 C442 1.394 . S
C459 C458 1.438 . S
C459 C460 1.428 . S
C460 H452 0.949 . S
C460 C459 1.428 . S
C460 C461 1.345 . S
C461 H453 0.950 . S
C461 C460 1.345 . S
C461 C462 1.424 . S
C462 H454 0.951 . S
C462 C461 1.424 . S
C462 C463 1.347 . S
C463 H455 0.951 . S
C463 C458 1.429 . S
C463 C462 1.347 . S
H464 C465 0.951 . S
C465 H464 0.951 . S
C465 C471 1.265 . S
H466 C471 0.950 . S
H467 C475 0.949 . S
H468 C476 0.950 . S
H469 C477 0.951 . S
H470 C478 0.951 . S
C471 C465 1.265 . S
C471 H466 0.950 . S
C471 C472 1.478 . S
C472 C471 1.478 . S
C472 C473 1.397 . S
C472 C489 1.394 1_655 S
C473 C472 1.397 . S
C473 C474 1.438 . S
C473 C478 1.429 . S
C474 C473 1.438 . S
C474 C475 1.428 . S
C474 C487 1.394 1_655 S
C475 H467 0.949 . S
C475 C474 1.428 . S
C475 C476 1.345 . S
C476 H468 0.950 . S
C476 C475 1.345 . S
C476 C477 1.424 . S
C477 H469 0.951 . S
C477 C476 1.424 . S
C477 C478 1.347 . S
C478 H470 0.951 . S
C478 C473 1.429 . S
C478 C477 1.347 . S
H479 C480 0.951 . S
C480 H479 0.951 . S
C480 C486 1.265 . S
H481 C486 0.950 . S
H482 C490 0.949 . S
H483 C491 0.950 . S
H484 C492 0.951 . S
H485 C493 0.951 . S
C486 C480 1.265 . S
C486 H481 0.950 . S
C486 C487 1.478 . S
C487 C474 1.394 1_455 S
C487 C486 1.478 . S
C487 C488 1.397 . S
C488 C487 1.397 . S
C488 C489 1.438 . S
C488 C493 1.429 . S
C489 C472 1.394 1_455 S
C489 C488 1.438 . S
C489 C490 1.428 . S
C490 H482 0.949 . S
C490 C489 1.428 . S
C490 C491 1.345 . S
C491 H483 0.950 . S
C491 C490 1.345 . S
C491 C492 1.424 . S
C492 H484 0.951 . S
C492 C491 1.424 . S
C492 C493 1.347 . S
C493 H485 0.951 . S
C493 C488 1.429 . S
C493 C492 1.347 . S
H494 C495 0.951 . S
C495 H494 0.951 . S
C495 C501 1.265 . S
H496 C501 0.950 . S
H497 C505 0.949 . S
H498 C506 0.950 . S
H499 C507 0.951 . S
H500 C508 0.951 . S
C501 C495 1.265 . S
C501 H496 0.950 . S
C501 C502 1.478 . S
C502 C501 1.478 . S
C502 C503 1.397 . S
C502 C519 1.394 . S
C503 C502 1.397 . S
C503 C504 1.438 . S
C503 C508 1.429 . S
C504 C503 1.438 . S
C504 C505 1.428 . S
C504 C517 1.394 . S
C505 H497 0.949 . S
C505 C504 1.428 . S
C505 C506 1.345 . S
C506 H498 0.950 . S
C506 C505 1.345 . S
C506 C507 1.424 . S
C507 H499 0.951 . S
C507 C506 1.424 . S
C507 C508 1.347 . S
C508 H500 0.951 . S
C508 C503 1.429 . S
C508 C507 1.347 . S
H509 C510 0.951 . S
C510 H509 0.951 . S
C510 C516 1.265 . S
H511 C516 0.950 . S
H512 C520 0.949 . S
H513 C521 0.950 . S
H514 C522 0.951 . S
H515 C523 0.951 . S
C516 C510 1.265 . S
C516 H511 0.950 . S
C516 C517 1.478 . S
C517 C504 1.394 . S
C517 C516 1.478 . S
C517 C518 1.397 . S
C518 C517 1.397 . S
C518 C519 1.438 . S
C518 C523 1.429 . S
C519 C502 1.394 . S
C519 C518 1.438 . S
C519 C520 1.428 . S
C520 H512 0.949 . S
C520 C519 1.428 . S
C520 C521 1.345 . S
C521 H513 0.950 . S
C521 C520 1.345 . S
C521 C522 1.424 . S
C522 H514 0.951 . S
C522 C521 1.424 . S
C522 C523 1.347 . S
C523 H515 0.951 . S
C523 C518 1.429 . S
C523 C522 1.347 . S
H524 C525 0.951 . S
C525 H524 0.951 . S
C525 C531 1.265 . S
H526 C531 0.950 . S
H527 C535 0.949 . S
H528 C536 0.950 . S
H529 C537 0.951 . S
H530 C538 0.951 . S
C531 C525 1.265 . S
C531 H526 0.950 . S
C531 C532 1.478 . S
C532 C531 1.478 . S
C532 C533 1.397 . S
C532 C549 1.394 . S
C533 C532 1.397 . S
C533 C534 1.438 1_545 S
C533 C538 1.429 . S
C534 C533 1.438 1_565 S
C534 C535 1.428 . S
C534 C547 1.394 . S
C535 H527 0.949 . S
C535 C534 1.428 . S
C535 C536 1.345 . S
C536 H528 0.950 . S
C536 C535 1.345 . S
C536 C537 1.424 . S
C537 H529 0.951 . S
C537 C536 1.424 . S
C537 C538 1.347 1_565 S
C538 H530 0.951 . S
C538 C533 1.429 . S
C538 C537 1.347 1_545 S
H539 C540 0.951 . S
C540 H539 0.951 . S
C540 C546 1.265 . S
H541 C546 0.950 . S
H542 C550 0.949 . S
H543 C551 0.950 . S
H544 C552 0.951 . S
H545 C553 0.951 . S
C546 C540 1.265 . S
C546 H541 0.950 . S
C546 C547 1.478 . S
C547 C534 1.394 . S
C547 C546 1.478 . S
C547 C548 1.397 . S
C548 C547 1.397 . S
C548 C549 1.438 1_565 S
C548 C553 1.429 . S
C549 C532 1.394 . S
C549 C548 1.438 1_545 S
C549 C550 1.428 . S
C550 H542 0.949 . S
C550 C549 1.428 . S
C550 C551 1.345 . S
C551 H543 0.950 . S
C551 C550 1.345 . S
C551 C552 1.424 . S
C552 H544 0.951 . S
C552 C551 1.424 . S
C552 C553 1.347 1_545 S
C553 H545 0.951 . S
C553 C548 1.429 . S
C553 C552 1.347 1_565 S
H554 C555 0.951 . S
C555 H554 0.951 . S
C555 C561 1.265 . S
H556 C561 0.950 . S
H557 C565 0.949 . S
H558 C566 0.950 . S
H559 C567 0.951 . S
H560 C568 0.962 . S
C561 C555 1.265 . S
C561 H556 0.950 . S
C561 C562 1.478 . S
C562 C561 1.478 . S
C562 C563 1.397 . S
C562 C579 1.394 1_565 S
C563 C562 1.397 . S
C563 C564 1.438 1_655 S
C563 C568 1.429 . S
C564 C563 1.438 1_455 S
C564 C565 1.428 . S
C564 C577 1.394 1_565 S
C565 H557 0.949 . S
C565 C564 1.428 . S
C565 C566 1.345 . S
C566 H558 0.950 . S
C566 C565 1.345 . S
C566 C567 1.424 . S
C567 H559 0.951 . S
C567 C566 1.424 . S
C567 C568 1.336 1_455 S
C568 H560 0.962 . S
C568 C563 1.429 . S
C568 C567 1.336 1_655 S
H569 C570 0.951 . S
C570 H569 0.951 . S
C570 C576 1.265 . S
H571 C576 0.950 . S
H572 C580 0.949 . S
H573 C581 0.950 . S
H574 C582 0.951 . S
H575 C583 0.962 . S
C576 C570 1.265 . S
C576 H571 0.950 . S
C576 C577 1.478 . S
C577 C564 1.394 1_545 S
C577 C576 1.478 . S
C577 C578 1.397 . S
C578 C577 1.397 . S
C578 C579 1.438 1_455 S
C578 C583 1.429 . S
C579 C562 1.394 1_545 S
C579 C578 1.438 1_655 S
C579 C580 1.428 . S
C580 H572 0.949 . S
C580 C579 1.428 . S
C580 C581 1.345 . S
C581 H573 0.950 . S
C581 C580 1.345 . S
C581 C582 1.424 . S
C582 H574 0.951 . S
C582 C581 1.424 . S
C582 C583 1.336 1_655 S
C583 H575 0.962 . S
C583 C578 1.429 . S
C583 C582 1.336 1_455 S
C105 C5 1.302 . S
C120 C68 1.329 . S
C135 C23 1.321 . S
C150 C88 1.298 . S
C165 C31 1.330 . S
C180 C94 1.309 . S
C195 C49 1.310 . S
C210 C56 1.332 . S
C225 C101 1.305 . S
C240 C4 1.308 . S
C255 C57 1.307 . S
C270 C16 1.330 . S
C285 C30 1.332 . S
C300 C75 1.312 . S
C315 C81 1.329 . S
C330 C42 1.313 . S
C345 C3 1.519 . S
C360 C83 1.522 . S
C375 C95 1.523 . S
C390 C17 1.521 . S
C405 C29 1.525 . S
C420 C55 1.525 . S
C435 C43 1.522 . S
C450 C69 1.522 . S
C465 C82 1.527 . S
C480 C10 1.512 . S
C495 C96 1.523 . S
C510 C18 1.527 . S
C525 C36 1.513 . S
C540 C62 1.514 . S
C555 C44 1.527 . S
C570 C70 1.519 . S
