# Generated by pormake.
# Topology ecc, (8)-cn, num edge types: 1
# Building blocks:
#     Node 0, Type 0, BuildingBlock: VETTIZ_charged_sbu_0, # of connection points: 8
#     Node 1, Type 0, BuildingBlock: VETTIZ_charged_sbu_0, # of connection points: 8
#     Node 2, Type 0, BuildingBlock: VETTIZ_charged_sbu_0, # of connection points: 8
#     Node 3, Type 0, BuildingBlock: VETTIZ_charged_sbu_0, # of connection points: 8
#     Node 4, Type 0, BuildingBlock: VETTIZ_charged_sbu_0, # of connection points: 8
#     Node 5, Type 0, BuildingBlock: VETTIZ_charged_sbu_0, # of connection points: 8
#     Node 6, Type 0, BuildingBlock: VETTIZ_charged_sbu_0, # of connection points: 8
#     Node 7, Type 0, BuildingBlock: VETTIZ_charged_sbu_0, # of connection points: 8
#     Node 8, Type 0, BuildingBlock: VETTIZ_charged_sbu_0, # of connection points: 8
#     Node 9, Type 0, BuildingBlock: VETTIZ_charged_sbu_0, # of connection points: 8
#     Node 10, Type 0, BuildingBlock: VETTIZ_charged_sbu_0, # of connection points: 8
#     Node 11, Type 0, BuildingBlock: VETTIZ_charged_sbu_0, # of connection points: 8
#     Node 12, Type 0, BuildingBlock: VETTIZ_charged_sbu_0, # of connection points: 8
#     Node 13, Type 0, BuildingBlock: VETTIZ_charged_sbu_0, # of connection points: 8
#     Node 14, Type 0, BuildingBlock: VETTIZ_charged_sbu_0, # of connection points: 8
#     Node 15, Type 0, BuildingBlock: VETTIZ_charged_sbu_0, # of connection points: 8
#     Node 16, Type 0, BuildingBlock: VETTIZ_charged_sbu_0, # of connection points: 8
#     Node 17, Type 0, BuildingBlock: VETTIZ_charged_sbu_0, # of connection points: 8
#     Edge 18, Type (0, 0), None
#     Edge 19, Type (0, 0), None
#     Edge 20, Type (0, 0), None
#     Edge 21, Type (0, 0), None
#     Edge 22, Type (0, 0), None
#     Edge 23, Type (0, 0), None
#     Edge 24, Type (0, 0), None
#     Edge 25, Type (0, 0), None
#     Edge 26, Type (0, 0), None
#     Edge 27, Type (0, 0), None
#     Edge 28, Type (0, 0), None
#     Edge 29, Type (0, 0), None
#     Edge 30, Type (0, 0), None
#     Edge 31, Type (0, 0), None
#     Edge 32, Type (0, 0), None
#     Edge 33, Type (0, 0), None
#     Edge 34, Type (0, 0), None
#     Edge 35, Type (0, 0), None
#     Edge 36, Type (0, 0), None
#     Edge 37, Type (0, 0), None
#     Edge 38, Type (0, 0), None
#     Edge 39, Type (0, 0), None
#     Edge 40, Type (0, 0), None
#     Edge 41, Type (0, 0), None
#     Edge 42, Type (0, 0), None
#     Edge 43, Type (0, 0), None
#     Edge 44, Type (0, 0), None
#     Edge 45, Type (0, 0), None
#     Edge 46, Type (0, 0), None
#     Edge 47, Type (0, 0), None
#     Edge 48, Type (0, 0), None
#     Edge 49, Type (0, 0), None
#     Edge 50, Type (0, 0), None
#     Edge 51, Type (0, 0), None
#     Edge 52, Type (0, 0), None
#     Edge 53, Type (0, 0), None
#     Edge 54, Type (0, 0), None
#     Edge 55, Type (0, 0), None
#     Edge 56, Type (0, 0), None
#     Edge 57, Type (0, 0), None
#     Edge 58, Type (0, 0), None
#     Edge 59, Type (0, 0), None
#     Edge 60, Type (0, 0), None
#     Edge 61, Type (0, 0), None
#     Edge 62, Type (0, 0), None
#     Edge 63, Type (0, 0), None
#     Edge 64, Type (0, 0), None
#     Edge 65, Type (0, 0), None
#     Edge 66, Type (0, 0), None
#     Edge 67, Type (0, 0), None
#     Edge 68, Type (0, 0), None
#     Edge 69, Type (0, 0), None
#     Edge 70, Type (0, 0), None
#     Edge 71, Type (0, 0), None
#     Edge 72, Type (0, 0), None
#     Edge 73, Type (0, 0), None
#     Edge 74, Type (0, 0), None
#     Edge 75, Type (0, 0), None
#     Edge 76, Type (0, 0), None
#     Edge 77, Type (0, 0), None
#     Edge 78, Type (0, 0), None
#     Edge 79, Type (0, 0), None
#     Edge 80, Type (0, 0), None
#     Edge 81, Type (0, 0), None
#     Edge 82, Type (0, 0), None
#     Edge 83, Type (0, 0), None
#     Edge 84, Type (0, 0), None
#     Edge 85, Type (0, 0), None
#     Edge 86, Type (0, 0), None
#     Edge 87, Type (0, 0), None
#     Edge 88, Type (0, 0), None
#     Edge 89, Type (0, 0), None
# Relax obj value: 0.299
# Max RMSD: 0.235
# Mean RMSD: 0.235
data_MOF--net-ecc--node1-VETTIZ_charged_sbu_0--edge1-none
_symmetry_space_group_name_H-M    P1
_symmetry_Int_Tables_number       1
_symmetry_cell_setting            triclinic
loop_
_symmetry_equiv_pos_as_xyz
'x, y, z'
_cell_length_a     28.165154
_cell_length_b     28.313079
_cell_length_c     11.88675
_cell_angle_alpha  91.229871
_cell_angle_beta   90.644096
_cell_angle_gamma 120.40541
loop_
_atom_site_label
_atom_site_type_symbol
_atom_site_fract_x
_atom_site_fract_y
_atom_site_fract_z
_atom_type_partial_charge
Fe0 Fe 0.12902 1.00579 0.93501 0.0
O1 O 0.18076 1.00387 0.82374 0.0
Fe2 Fe 0.19539 0.06679 0.71735 0.0
Fe3 Fe 0.25653 1.01912 0.86012 0.0
O4 O 0.17997 1.01102 0.82737 0.0
O5 O 0.27258 0.08698 0.75612 0.0
O6 O 0.27585 0.0822 0.76192 0.0
Fe7 Fe 0.32598 0.09989 0.64259 0.0
C8 C 0.24298 0.09706 1.03044 0.0
O9 O 0.12726 0.93935 0.9832 0.0
O10 O 0.21008 0.94468 0.96559 0.0
O11 O 0.25898 0.03098 0.52611 0.0
O12 O 0.18396 1.01009 0.6143 0.0
O13 O 0.10896 0.03115 0.69265 0.0
O14 O 0.08089 0.9604 0.81188 0.0
O15 O 0.26026 0.96913 0.71512 0.0
O16 O 0.34005 0.03963 0.68121 0.0
C17 C 0.07233 0.98438 0.73271 0.0
O18 O 0.31022 0.16803 0.60864 0.0
O19 O 0.21845 0.12904 0.6091 0.0
O20 O 0.19119 0.06284 0.03791 0.0
O21 O 0.27242 0.08123 0.98224 0.0
C22 C 0.15568 0.9163 0.98277 0.0
C23 C 0.30396 0.99166 0.65264 0.0
C24 C 0.37714 0.10455 0.88957 0.0
O25 O 0.33976 0.05266 0.89744 0.0
O26 O 0.38012 0.13297 0.79793 0.0
C27 C 0.20829 0.99403 0.55406 0.0
O28 O 0.20433 0.12424 0.82356 0.0
O29 O 0.12198 0.07067 0.88179 0.0
C30 C 0.26606 0.1731 0.60864 0.0
C31 C 0.15715 0.11503 0.83982 0.0
Fe32 Fe 0.05966 0.14978 0.95247 0.0
O33 O 0.07401 0.20211 0.83329 0.0
Fe34 Fe 0.05218 0.16689 0.6658 0.0
Fe35 Fe 0.06162 0.2639 0.872 0.0
O36 O 0.06301 0.19486 0.82497 0.0
O37 O 1.0107 0.21111 0.72049 0.0
O38 O 1.00192 0.22468 0.75867 0.0
Fe39 Fe 0.99381 0.26258 0.63159 0.0
C40 C 0.96548 0.16035 1.00734 0.0
O41 O 0.08134 0.21642 0.05832 0.0
O42 O 0.13383 0.29311 0.98758 0.0
O43 O 0.0624 0.26547 0.51579 0.0
O44 O 0.11306 0.23831 0.61892 0.0
O45 O 0.10915 0.14168 0.71847 0.0
O46 O 0.13486 0.17375 0.89644 0.0
O47 O 0.11825 0.31974 0.73988 0.0
O48 O 0.053 0.33403 0.69363 0.0
C49 C 0.14066 0.15276 0.80792 0.0
O50 O 0.92534 0.1848 0.56076 0.0
O51 O 0.99409 0.17878 0.59332 0.0
O52 O 0.98275 0.12851 0.98301 0.0
O53 O 0.99564 0.21282 0.99119 0.0
C54 C 0.12959 0.25549 0.05327 0.0
C55 C 0.10046 0.34433 0.67431 0.0
C56 C 0.98104 0.29842 0.88944 0.0
O57 O 1.03291 0.31507 0.90479 0.0
O58 O 0.95537 0.27545 0.78949 0.0
C59 C 0.10862 0.26369 0.537 0.0
O60 O 0.98842 0.09963 0.70545 0.0
O61 O 1.02499 0.08126 0.84866 0.0
C62 C 0.94438 0.15251 0.55835 0.0
C63 C 0.9842 0.07024 0.78321 0.0
Fe64 Fe 0.93774 0.95133 0.94066 0.0
O65 O 0.88225 0.89916 0.82823 0.0
Fe66 Fe 0.91046 0.90544 0.66532 0.0
Fe67 Fe 0.81903 0.82463 0.86952 0.0
O68 O 0.89228 0.89677 0.82587 0.0
O69 O 0.87618 0.82255 0.72143 0.0
O70 O 0.85747 0.80005 0.76681 0.0
Fe71 Fe 0.81954 0.75301 0.6313 0.0
C72 C 0.92673 0.84478 1.02083 0.0
O73 O 0.87021 0.92262 1.03068 0.0
O74 O 0.78861 0.87023 0.96581 0.0
O75 O 0.82164 0.81974 0.5121 0.0
O76 O 0.83275 0.88054 0.64207 0.0
O77 O 0.93198 0.98763 0.69195 0.0
O78 O 0.91722 1.00106 0.87303 0.0
O79 O 0.75766 0.81739 0.73618 0.0
O80 O 0.74893 0.74102 0.68768 0.0
C81 C 0.93574 1.01823 0.77751 0.0
O82 O 0.8943 0.7573 0.567 0.0
O83 O 0.90642 0.83371 0.61133 0.0
O84 O 0.95724 0.89537 1.0002 0.0
O85 O 0.87387 0.81934 0.99722 0.0
C86 C 0.8261 0.92035 0.99371 0.0
C87 C 0.73777 0.77652 0.66384 0.0
C88 C 0.78496 0.70853 0.88814 0.0
O89 O 0.76711 0.74253 0.90464 0.0
O90 O 0.80949 0.70778 0.79172 0.0
C91 C 0.81777 0.86338 0.5444 0.0
O92 O 0.98596 0.92669 0.68998 0.0
O93 O 1.00551 0.98174 0.83795 0.0
C94 C 0.92892 0.80815 0.56919 0.0
C95 C 1.01777 0.97005 0.7419 0.0
Fe96 Fe 0.91366 0.02888 0.17501 0.0
O97 O 0.89048 1.00926 0.33035 0.0
Fe98 Fe 0.80633 0.07006 0.14939 0.0
Fe99 Fe 0.93614 1.00199 0.44244 0.0
O100 O 0.86992 0.06791 0.23361 0.0
O101 O 0.85027 0.06545 0.2751 0.0
O102 O 0.88135 0.99633 0.32856 0.0
Fe103 Fe 0.81407 1.00026 0.36968 0.0
C104 C 0.94954 0.94733 0.26165 0.0
O105 O 0.98609 0.09221 0.22169 0.0
O106 O 1.00464 0.05058 0.35842 0.0
O107 O 0.76424 0.02864 0.42042 0.0
O108 O 0.7995 0.10625 0.31436 0.0
O109 O 0.87363 0.14196 0.07245 0.0
O110 O 0.89715 0.08676 0.11715 0.0
O111 O 0.94821 0.07319 0.51073 0.0
O112 O 0.8638 0.06041 0.50176 0.0
C113 C 0.91192 0.13127 0.06825 0.0
O114 O 0.75215 0.94533 0.22874 0.0
O115 O 0.73955 1.01098 0.21843 0.0
O116 O 0.94755 0.97818 0.18584 0.0
O117 O 0.92444 0.93723 0.35352 0.0
C118 C 1.01818 0.08891 0.29099 0.0
C119 C 0.91603 0.09177 0.52207 0.0
C120 C 0.82653 0.9137 0.48249 0.0
O121 O 0.86882 0.95596 0.52366 0.0
O122 O 0.78767 0.92415 0.4575 0.0
C123 C 0.7843 0.08125 0.4138 0.0
O124 O 0.81064 1.00533 1.02548 0.0
O125 O 0.83745 0.96708 0.14853 0.0
C126 C 0.72541 0.96544 0.17818 0.0
C127 C 0.81587 0.96272 0.05583 0.0
Fe128 Fe 0.07205 0.91364 0.17684 0.0
O129 O 0.07754 0.90297 0.33895 0.0
Fe130 Fe 1.00732 0.75906 0.1526 0.0
Fe131 Fe 0.07277 0.94712 0.46215 0.0
O132 O 1.02322 0.83017 0.2369 0.0
O133 O 1.01699 0.80783 0.28092 0.0
O134 O 0.08968 0.90687 0.3432 0.0
Fe135 Fe 0.08261 0.83489 0.38461 0.0
C136 C 0.15521 1.02119 0.31893 0.0
O137 O 1.01308 0.92922 0.19387 0.0
O138 O 1.03038 0.97138 0.3618 0.0
O139 O 0.05688 0.75771 0.4288 0.0
O140 O 0.97642 0.71618 0.319 0.0
O141 O 0.93901 0.76566 0.07851 0.0
O142 O 1.00547 0.84251 0.11541 0.0
O143 O 0.99887 0.88575 0.49432 0.0
O144 O 1.0225 0.82345 0.51493 0.0
C145 C 0.95694 0.81669 0.07141 0.0
O146 O 0.13207 0.82275 0.24932 0.0
O147 O 0.06195 0.74428 0.2193 0.0
O148 O 0.13254 0.99324 0.22589 0.0
O149 O 0.14082 1.00636 0.41711 0.0
C150 C 1.00066 0.94946 0.27314 0.0
C151 C 0.98582 0.83834 0.51933 0.0
C152 C 0.16195 0.93227 0.52431 0.0
O153 O 0.11406 0.9203 0.55746 0.0
O154 O 0.16197 0.89058 0.47631 0.0
C155 C 1.00483 0.72244 0.41658 0.0
O156 O 0.07501 0.82446 1.03635 0.0
O157 O 0.12967 0.89252 0.15467 0.0
C158 C 0.10856 0.77666 0.19045 0.0
C159 C 0.12445 0.86924 0.06067 0.0
Fe160 Fe 0.17355 0.17837 0.39772 0.0
O161 O 0.20346 0.18281 0.24841 0.0
Fe162 Fe 0.2781 0.32844 0.43247 0.0
Fe163 Fe 0.16164 0.12983 0.13177 0.0
O164 O 0.21924 0.26041 0.33869 0.0
O165 O 0.24149 0.2771 0.30914 0.0
O166 O 0.21273 0.1788 0.24982 0.0
Fe167 Fe 0.2772 0.24851 0.20986 0.0
C168 C 0.17895 0.07727 0.31576 0.0
O169 O 0.10111 0.16074 0.33148 0.0
O170 O 0.09492 0.09289 0.22744 0.0
O171 O 0.33332 0.32499 0.17043 0.0
O172 O 0.29872 0.37204 0.26834 0.0
O173 O 0.20397 0.33111 0.47827 0.0
O174 O 0.17436 0.25003 0.43444 0.0
O175 O 0.14097 0.18384 0.09709 0.0
O176 O 0.22325 0.26031 0.08742 0.0
C177 C 0.16016 0.28395 0.46669 0.0
O178 O 0.33287 0.25049 0.3532 0.0
O179 O 0.34754 0.33071 0.39147 0.0
O180 O 0.15978 0.09926 0.3849 0.0
O181 O 0.19418 0.09367 0.21897 0.0
C182 C 0.07378 0.11897 0.26966 0.0
C183 C 0.16941 0.23504 0.08107 0.0
C184 C 0.26188 0.15914 0.0451 0.0
O185 O 0.22383 0.16828 1.02928 0.0
O186 O 0.30113 0.19714 0.10803 0.0
C187 C 0.31975 0.36214 0.17534 0.0
O188 O 0.26752 0.26555 0.56633 0.0
O189 O 0.24719 0.19757 0.44809 0.0
C190 C 0.35481 0.29315 0.42268 0.0
C191 C 0.26447 0.21794 0.54194 0.0
Fe192 Fe 0.80957 0.34059 0.35008 0.0
O193 O 0.83935 0.32476 0.20285 0.0
Fe194 Fe 0.85171 0.38226 0.07299 0.0
Fe195 Fe 0.92078 0.34467 0.21103 0.0
O196 O 0.83703 0.32896 0.20104 0.0
O197 O 0.93003 0.41206 0.11827 0.0
O198 O 0.93346 0.40829 0.1208 0.0
Fe199 Fe 0.98704 0.43479 1.00506 0.0
C200 C 0.92385 0.43472 0.36638 0.0
O201 O 0.85696 0.30972 0.41875 0.0
O202 O 0.88482 0.26976 0.30645 0.0
O203 O 0.92459 0.3856 0.86919 0.0
O204 O 0.85512 0.32806 0.9738 0.0
O205 O 0.76506 0.34046 0.04053 0.0
O206 O 0.79419 0.31227 0.1779 0.0
O207 O 0.92107 0.29908 0.05403 0.0
O208 O 0.99938 0.37102 1.01348 0.0
C209 C 0.75065 0.30637 0.12011 0.0
O210 O 0.96977 0.4985 0.98716 0.0
O211 O 0.8774 0.44422 0.95427 0.0
O212 O 0.87327 0.41402 0.35391 0.0
O213 O 0.94269 0.40248 0.35169 0.0
C214 C 0.84801 0.26414 0.37884 0.0
C215 C 0.96195 0.32325 0.98415 0.0
C216 C 0.0361 0.43023 0.24301 0.0
O217 O 1.00435 0.37754 0.2294 0.0
O218 O 0.03865 0.46353 0.16246 0.0
C219 C 0.87805 0.33937 0.8815 0.0
O220 O 0.84635 0.43623 0.17006 0.0
O221 O 0.77661 0.38559 0.27793 0.0
C222 C 0.92264 0.49207 0.95458 0.0
C223 C 0.79881 0.42161 0.20149 0.0
Fe224 Fe 0.73599 0.50283 0.36137 0.0
O225 O 0.73616 0.54173 0.22623 0.0
Fe226 Fe 0.70827 0.49996 0.07716 0.0
Fe227 Fe 0.74281 0.61555 0.2437 0.0
O228 O 0.74258 0.53759 0.22364 0.0
O229 O 0.67648 0.54761 0.09476 0.0
O230 O 0.69321 0.56203 0.11005 0.0
Fe231 Fe 0.67989 0.59483 0.98049 0.0
C232 C 0.64129 0.52454 0.392 0.0
O233 O 0.7902 0.5822 0.42278 0.0
O234 O 0.82684 0.62495 0.26966 0.0
O235 O 0.73238 0.57754 0.87151 0.0
O236 O 0.77626 0.5574 0.99933 0.0
O237 O 0.74967 0.45519 0.09602 0.0
O238 O 0.78885 0.48922 0.27177 0.0
O239 O 0.75345 0.65484 0.06926 0.0
O240 O 0.7525 0.65534 0.05726 0.0
C241 C 0.78019 0.45927 0.18388 0.0
O242 O 0.61159 0.51415 0.92972 0.0
O243 O 0.65747 0.46648 0.93584 0.0
O244 O 0.67547 0.51461 0.43885 0.0
O245 O 0.66083 0.56227 0.31736 0.0
C246 C 0.8336 0.60613 0.36579 0.0
C247 C 0.79301 0.68487 0.99834 0.0
C248 C 0.63686 0.61957 0.21165 0.0
O249 O 0.66252 0.59887 0.25814 0.0
O250 O 0.63742 0.62292 0.10097 0.0
C251 C 0.77404 0.57231 0.90153 0.0
O252 O 0.64257 0.4413 0.14359 0.0
O253 O 0.68373 0.42743 0.2838 0.0
C254 C 0.61149 0.46726 0.92444 0.0
C255 C 0.65578 0.41107 0.19131 0.0
Fe256 Fe 0.60527 0.27148 0.32271 0.0
O257 O 0.54999 0.24062 0.19475 0.0
Fe258 Fe 0.59732 0.23731 0.06772 0.0
Fe259 Fe 0.49033 0.16071 0.20406 0.0
O260 O 0.55774 0.24369 0.19325 0.0
O261 O 0.54939 0.15766 0.09642 0.0
O262 O 0.54201 0.15221 0.10479 0.0
Fe263 Fe 0.51551 0.10345 0.97639 0.0
C264 C 0.57928 0.15772 0.35046 0.0
O265 O 0.53107 0.23786 0.4088 0.0
O266 O 0.45356 0.19545 0.31128 0.0
O267 O 0.52434 0.1701 0.85896 0.0
O268 O 0.53836 0.23753 0.97972 0.0
O269 O 0.63671 0.32733 0.08404 0.0
O270 O 0.61024 0.33421 0.26304 0.0
O271 O 0.44226 0.16146 0.05496 0.0
O272 O 0.43697 0.08579 0.9907 0.0
C273 C 0.62712 0.35345 0.16753 0.0
O274 O 0.60061 0.12792 0.95171 0.0
O275 O 0.63514 0.21972 0.93663 0.0
O276 O 0.60746 0.20519 0.32028 0.0
O277 O 0.52744 0.13762 0.34063 0.0
C278 C 0.48711 0.23704 0.3772 0.0
C279 C 0.42403 0.12198 0.97772 0.0
C280 C 0.46104 0.04816 0.21526 0.0
O281 O 0.43938 0.07875 0.20845 0.0
O282 O 0.49279 0.04827 0.13061 0.0
C283 C 0.5239 0.21582 0.88428 0.0
O284 O 0.65961 0.23472 0.14435 0.0
O285 O 0.68205 0.30653 0.24235 0.0
C286 C 0.64155 0.17708 0.93152 0.0
C287 C 0.6962 0.28119 0.1748 0.0
Fe288 Fe 0.57911 0.35788 0.6726 0.0
O289 O 0.58235 0.40002 0.53876 0.0
Fe290 Fe 0.45007 0.31552 0.77444 0.0
Fe291 Fe 0.60792 0.38542 0.39906 0.0
O292 O 0.49974 0.32968 0.65526 0.0
O293 O 0.49628 0.33371 0.652 0.0
O294 O 0.58208 0.40619 0.54188 0.0
Fe295 Fe 0.50493 0.39018 0.54711 0.0
C296 C 0.69553 0.43057 0.57684 0.0
O297 O 0.56989 0.29307 0.59304 0.0
O298 O 0.63103 0.33307 0.47045 0.0
O299 O 0.42296 0.3617 0.54069 0.0
O300 O 0.39076 0.27936 0.62162 0.0
O301 O 0.47014 0.25186 0.80074 0.0
O302 O 0.56357 0.3039 0.80379 0.0
O303 O 0.53202 0.32906 0.32178 0.0
O304 O 0.47833 0.31306 0.45332 0.0
C305 C 0.51864 0.25594 0.81008 0.0
O306 O 0.51263 0.44848 0.68886 0.0
O307 O 0.43751 0.37907 0.75034 0.0
O308 O 0.66707 0.39942 0.65968 0.0
O309 O 0.67663 0.43546 0.48327 0.0
C310 C 0.61566 0.30516 0.55794 0.0
C311 C 0.49232 0.2938 0.37208 0.0
C312 C 0.58373 0.47475 0.37195 0.0
O313 O 0.58779 0.43727 0.32243 0.0
O314 O 0.54096 0.46046 0.43625 0.0
C315 C 0.39051 0.30931 0.5352 0.0
O316 O 0.52196 0.37577 0.88557 0.0
O317 O 0.58768 0.42125 0.76064 0.0
C318 C 0.47412 0.42917 0.76455 0.0
C319 C 0.56781 0.41984 0.85436 0.0
Fe320 Fe 0.73307 0.25051 0.66229 0.0
O321 O 0.68603 0.20824 0.53578 0.0
Fe322 Fe 0.78445 0.17008 0.75313 0.0
Fe323 Fe 0.69369 0.24812 0.4025 0.0
O324 O 0.76341 0.20148 0.63388 0.0
O325 O 0.7597 0.193 0.62784 0.0
O326 O 0.68075 0.202 0.53755 0.0
Fe327 Fe 0.69549 0.14039 0.53104 0.0
C328 C 0.64012 0.27271 0.58447 0.0
O329 O 0.79229 0.30658 0.57133 0.0
O330 O 0.73976 0.32878 0.48451 0.0
O331 O 0.72022 0.08607 0.52263 0.0
O332 O 0.80764 0.13957 0.59784 0.0
O333 O 0.84691 0.25522 0.77545 0.0
O334 O 0.79193 0.29262 0.78912 0.0
O335 O 0.76291 0.25452 0.35184 0.0
O336 O 0.75689 0.17796 0.4001 0.0
C337 C 0.84049 0.29739 0.79546 0.0
O338 O 0.65015 0.09617 0.68164 0.0
O339 O 0.72307 0.09277 0.73785 0.0
O340 O 0.68294 0.28939 0.65488 0.0
O341 O 0.63169 0.24217 0.49864 0.0
C342 C 0.7821 0.34316 0.54904 0.0
C343 C 0.78542 0.22631 0.36055 0.0
C344 C 0.61592 0.13195 0.35174 0.0
O345 O 0.66301 0.16922 0.32337 0.0
O346 O 0.61875 0.10138 0.42854 0.0
C347 C 0.7721 0.1058 0.51641 0.0
O348 O 0.73136 0.1829 0.8744 0.0
O349 O 0.67627 0.1959 0.75868 0.0
C350 C 0.67396 0.07945 0.75365 0.0
C351 C 0.68521 0.18257 0.85242 0.0
Fe352 Fe 0.84983 0.50036 0.68359 0.0
O353 O 0.88383 0.4843 0.54504 0.0
Fe354 Fe 0.93836 0.6364 0.75285 0.0
Fe355 Fe 0.8402 0.46588 0.39834 0.0
O356 O 0.89799 0.57786 0.63972 0.0
O357 O 0.90534 0.5819 0.63231 0.0
O358 O 0.89091 0.48739 0.53942 0.0
Fe359 Fe 0.95376 0.56858 0.52919 0.0
C360 C 0.8162 0.39796 0.61001 0.0
O361 O 0.78533 0.49527 0.60467 0.0
O362 O 0.76455 0.4307 0.47594 0.0
O363 O 1.00526 0.65091 0.51289 0.0
O364 O 0.95764 0.68639 0.60104 0.0
O365 O 0.85695 0.61919 0.79016 0.0
O366 O 0.8181 0.52714 0.81611 0.0
O367 O 0.83845 0.53351 0.44008 0.0
O368 O 0.91702 0.59257 0.38897 0.0
C369 C 0.81632 0.57245 0.82313 0.0
O370 O 1.00407 0.56836 0.67951 0.0
O371 O 1.01414 0.64764 0.723 0.0
O372 O 0.80316 0.41319 0.70183 0.0
O373 O 0.85515 0.44048 0.55644 0.0
C374 C 0.7518 0.44927 0.56283 0.0
C375 C 0.86565 0.57608 0.3875 0.0
C376 C 0.95314 0.49679 0.35169 0.0
O377 O 0.91751 0.50921 0.32251 0.0
O378 O 0.98922 0.53256 0.42278 0.0
C379 C 0.98446 0.68256 0.51246 0.0
O380 O 0.92761 0.57679 0.88164 0.0
O381 O 0.91159 0.5051 0.77246 0.0
C382 C 1.02651 0.61197 0.74688 0.0
C383 C 0.92397 0.52914 0.86681 0.0
Fe384 Fe 0.46972 0.68298 0.61392 0.0
O385 O 0.51602 0.67756 0.49498 0.0
Fe386 Fe 0.5316 0.73645 0.37874 0.0
Fe387 Fe 0.5903 0.68772 0.51937 0.0
O388 O 0.51653 0.68529 0.49928 0.0
O389 O 0.60832 0.75543 0.41393 0.0
O390 O 0.61109 0.75027 0.41909 0.0
Fe391 Fe 0.66058 0.76689 0.29846 0.0
C392 C 0.58619 0.7717 0.69593 0.0
O393 O 0.46797 0.61557 0.65869 0.0
O394 O 0.54733 0.61585 0.62481 0.0
O395 O 0.59214 0.70378 0.18031 0.0
O396 O 0.52049 0.67803 0.28585 0.0
O397 O 0.44568 0.70255 0.36055 0.0
O398 O 0.41691 0.63748 0.49525 0.0
O399 O 0.58878 0.636 0.3754 0.0
O400 O 0.66946 0.70132 0.32029 0.0
C401 C 0.40866 0.6592 0.41044 0.0
O402 O 0.64693 0.83556 0.26623 0.0
O403 O 0.55444 0.79328 0.25756 0.0
O404 O 0.53537 0.73972 0.71835 0.0
O405 O 0.6108 0.75101 0.64377 0.0
C406 C 0.49434 0.59019 0.64936 0.0
C407 C 0.62831 0.65407 0.30161 0.0
C408 C 0.70379 0.76328 0.55147 0.0
O409 O 0.66978 0.71133 0.54297 0.0
O410 O 0.71055 0.79524 0.46327 0.0
C411 C 0.54342 0.6655 0.21469 0.0
O412 O 0.54173 0.79666 0.4734 0.0
O413 O 0.46392 0.74718 0.55712 0.0
C414 C 0.60155 0.83776 0.25481 0.0
C415 C 0.49564 0.78782 0.49988 0.0
Fe416 Fe 0.3992 0.82352 0.62783 0.0
O417 O 0.41119 0.87314 0.50424 0.0
Fe418 Fe 0.39001 0.83733 0.34 0.0
Fe419 Fe 0.40165 0.93719 0.53504 0.0
O420 O 0.39917 0.86509 0.49869 0.0
O421 O 0.34669 0.88003 0.38921 0.0
O422 O 0.33928 0.89642 0.42909 0.0
Fe423 Fe 0.33064 0.93012 0.29398 0.0
C424 C 0.3058 0.83662 0.68203 0.0
O425 O 0.42652 0.89343 0.72701 0.0
O426 O 0.47643 0.96785 0.64394 0.0
O427 O 0.3958 0.92632 0.17844 0.0
O428 O 0.44792 0.90981 0.29959 0.0
O429 O 0.44732 0.81398 0.38532 0.0
O430 O 0.47217 0.84392 0.56493 0.0
O431 O 0.4572 0.99053 0.39521 0.0
O432 O 0.39157 1.00313 0.34655 0.0
C433 C 0.4785 0.82487 0.47401 0.0
O434 O 0.26178 0.85151 0.22974 0.0
O435 O 0.32996 0.84636 0.27273 0.0
O436 O 0.32388 0.80485 0.66515 0.0
O437 O 0.33621 0.88883 0.6607 0.0
C438 C 0.47466 0.93201 0.71217 0.0
C439 C 0.43845 1.01238 0.32399 0.0
C440 C 0.32216 0.97035 0.55043 0.0
O441 O 0.37479 0.98976 0.55952 0.0
O442 O 0.29439 0.9456 0.4531 0.0
C443 C 0.44168 0.9252 0.20538 0.0
O444 O 0.32825 0.76877 0.37576 0.0
O445 O 0.35988 0.75334 0.53018 0.0
C446 C 0.28168 0.81999 0.23197 0.0
C447 C 0.32017 0.74321 0.46187 0.0
Fe448 Fe 0.27518 0.62549 0.61453 0.0
O449 O 0.21962 0.57477 0.50117 0.0
Fe450 Fe 0.24506 0.58107 0.33688 0.0
Fe451 Fe 0.15906 0.50009 0.54647 0.0
O452 O 0.22962 0.57233 0.49824 0.0
O453 O 0.21567 0.49894 0.39886 0.0
O454 O 0.19828 0.47687 0.4428 0.0
Fe455 Fe 0.15925 0.42596 0.31595 0.0
C456 C 0.26818 0.51982 0.6862 0.0
O457 O 0.20786 0.59407 0.70577 0.0
O458 O 0.12637 0.54295 0.64236 0.0
O459 O 0.1578 0.48861 0.19326 0.0
O460 O 0.16534 0.55092 0.31649 0.0
O461 O 0.2613 0.66188 0.36855 0.0
O462 O 0.25268 0.67493 0.55375 0.0
O463 O 0.09437 0.48808 0.4184 0.0
O464 O 0.08721 0.41172 0.37246 0.0
C465 C 0.26962 0.69249 0.45769 0.0
O466 O 0.2358 0.43477 0.24786 0.0
O467 O 0.24625 0.51156 0.28413 0.0
O468 O 0.29764 0.5702 0.66429 0.0
O469 O 0.21495 0.49544 0.67159 0.0
C470 C 0.16404 0.59262 0.66931 0.0
C471 C 0.07326 0.44553 0.35048 0.0
C472 C 0.12667 0.38634 0.57889 0.0
O473 O 0.11087 0.42188 0.58952 0.0
O474 O 0.14787 0.3809 0.481 0.0
C475 C 0.15206 0.5317 0.21924 0.0
O476 O 0.32255 0.60708 0.35391 0.0
O477 O 0.34138 0.65698 0.51086 0.0
C478 C 0.26868 0.48622 0.24042 0.0
C479 C 0.3546 0.64699 0.41465 0.0
Fe480 Fe 0.25308 0.70559 0.84297 0.0
O481 O 0.23158 0.68136 0.99797 0.0
Fe482 Fe 0.14344 0.74091 0.82097 0.0
Fe483 Fe 0.28072 0.67439 0.10001 0.0
O484 O 0.20765 0.74104 0.90562 0.0
O485 O 0.18899 0.73584 0.94287 0.0
O486 O 0.22247 0.66859 0.9966 0.0
Fe487 Fe 0.15557 0.67206 0.0415 0.0
C488 C 0.29471 0.62695 0.9084 0.0
O489 O 0.32465 0.77078 0.88707 0.0
O490 O 0.34838 0.72943 1.01362 0.0
O491 O 0.10578 0.7021 0.09098 0.0
O492 O 0.13714 0.77892 0.98394 0.0
O493 O 0.21053 0.81536 0.74282 0.0
O494 O 0.23455 0.76112 0.78378 0.0
O495 O 0.28808 0.7417 0.1829 0.0
O496 O 0.20443 0.73155 0.16798 0.0
C497 C 0.25007 0.80631 0.73856 0.0
O498 O 0.09271 0.61289 0.90933 0.0
O499 O 0.0775 0.6775 0.88918 0.0
O500 O 0.29129 0.65909 0.83854 0.0
O501 O 0.26967 0.61341 0.99963 0.0
C502 C 0.36001 0.76606 0.94227 0.0
C503 C 0.25568 0.76048 0.19413 0.0
C504 C 0.16779 0.58163 0.15153 0.0
O505 O 0.21697 0.6178 0.18108 0.0
O506 O 0.13348 0.59957 0.13553 0.0
C507 C 0.12317 0.75457 0.08391 0.0
O508 O 0.1479 0.67749 0.69574 0.0
O509 O 0.17798 0.64257 0.81879 0.0
C510 C 0.06421 0.63026 0.85673 0.0
C511 C 0.15478 0.63624 0.72777 0.0
Fe512 Fe 0.41438 0.59022 0.83447 0.0
O513 O 0.41808 0.58001 0.99667 0.0
Fe514 Fe 0.35159 0.4353 0.81621 0.0
Fe515 Fe 0.41351 0.62525 0.11606 0.0
O516 O 0.36574 0.50695 0.89545 0.0
O517 O 0.36039 0.48539 0.93911 0.0
O518 O 0.43138 0.58414 1.00124 0.0
Fe519 Fe 0.42364 0.5119 0.04739 0.0
C520 C 0.49004 0.70233 0.97072 0.0
O521 O 0.35564 0.60539 0.84685 0.0
O522 O 0.37403 0.65117 1.011 0.0
O523 O 0.39575 0.43457 0.09355 0.0
O524 O 0.31694 0.39356 0.97935 0.0
O525 O 0.28267 0.44085 0.73909 0.0
O526 O 0.34878 0.51826 0.77295 0.0
O527 O 0.33783 0.56382 0.15288 0.0
O528 O 0.36053 0.50035 0.17331 0.0
C529 C 0.29978 0.49188 0.73143 0.0
O530 O 0.47937 0.50166 0.92121 0.0
O531 O 0.40911 0.42443 0.88773 0.0
O532 O 0.47142 0.67369 0.87696 0.0
O533 O 0.48407 0.6835 0.06727 0.0
C534 C 0.34655 0.63152 0.91891 0.0
C535 C 0.32496 0.51668 0.18331 0.0
C536 C 0.49806 0.60595 0.18181 0.0
O537 O 0.45007 0.59464 0.21139 0.0
O538 O 0.49953 0.56358 0.14526 0.0
C539 C 0.34341 0.40078 0.07934 0.0
O540 O 0.41801 0.49794 0.70014 0.0
O541 O 0.47109 0.56679 0.81947 0.0
C542 C 0.45752 0.45556 0.86311 0.0
C543 C 0.46628 0.54322 0.72557 0.0
Fe544 Fe 0.51844 0.85336 1.01079 0.0
O545 O 0.54887 0.83366 0.8733 0.0
Fe546 Fe 0.60898 0.98641 0.07832 0.0
Fe547 Fe 0.49825 0.79867 0.74215 0.0
O548 O 0.5639 0.92967 0.96048 0.0
O549 O 0.57237 0.93275 0.95812 0.0
O550 O 0.55559 0.83549 0.87077 0.0
Fe551 Fe 0.61566 0.91558 0.84985 0.0
C552 C 0.49788 0.75575 0.97766 0.0
O553 O 0.44745 0.83932 0.93697 0.0
O554 O 0.42735 0.76396 0.8341 0.0
O555 O 0.66527 0.99903 0.82792 0.0
O556 O 0.62605 0.03868 0.93309 0.0
O557 O 0.52914 0.97363 0.11417 0.0
O558 O 0.48991 0.88302 0.13826 0.0
O559 O 0.48958 0.86357 0.76279 0.0
O560 O 0.56804 0.93301 0.72407 0.0
C561 C 0.48536 0.92648 0.13197 0.0
O562 O 0.67069 0.91481 0.98908 0.0
O563 O 0.68378 0.99411 0.04174 0.0
O564 O 0.47981 0.77305 0.05672 0.0
O565 O 0.52933 0.7931 0.90438 0.0
C566 C 0.41353 0.79172 0.89861 0.0
C567 C 0.51596 0.91243 0.7357 0.0
C568 C 0.60671 0.83373 0.68293 0.0
O569 O 0.56864 0.84269 0.66052 0.0
O570 O 0.64632 0.87444 0.74032 0.0
C571 C 0.64812 0.03408 0.83835 0.0
O572 O 0.59953 0.92503 0.20661 0.0
O573 O 0.58453 0.86001 0.086 0.0
C574 C 0.69425 0.95633 0.06071 0.0
C575 C 0.60013 0.88009 0.18144 0.0
loop_
_geom_bond_atom_site_label_1
_geom_bond_atom_site_label_2
_geom_bond_distance
_geom_bond_site_symmetry_2
_ccdc_geom_bond_type
Fe0 O1 1.886 . S
Fe0 O4 1.715 . S
Fe0 O9 2.077 1_545 S
Fe0 O14 1.935 1_545 S
Fe0 O20 2.077 1_556 S
Fe0 O29 1.935 . S
O1 Fe0 1.886 . S
O1 Fe3 1.715 . S
Fe2 O4 1.886 . S
Fe2 O5 1.715 . S
Fe2 O12 1.935 1_545 S
Fe2 O13 2.077 1_545 S
Fe2 O19 1.935 . S
Fe2 O28 2.077 . S
Fe3 O1 1.715 . S
Fe3 O6 1.886 . S
Fe3 O10 1.935 1_545 S
Fe3 O15 2.077 1_545 S
Fe3 O21 1.935 . S
Fe3 O25 2.077 . S
O4 Fe0 1.715 . S
O4 Fe2 1.886 . S
O5 Fe2 1.715 . S
O5 Fe7 1.886 . S
O6 Fe3 1.886 . S
O6 Fe7 1.715 . S
Fe7 O5 1.886 . S
Fe7 O6 1.715 . S
Fe7 O11 2.077 1_545 S
Fe7 O16 1.935 1_545 S
Fe7 O18 2.077 . S
Fe7 O26 1.935 . S
C8 O20 1.381 . S
C8 O21 1.421 1_554 S
O9 Fe0 2.077 1_565 S
O9 C22 1.381 1_556 S
O10 Fe3 1.935 1_565 S
O10 C22 1.421 1_556 S
O11 Fe7 2.077 1_565 S
O11 C27 1.381 . S
O12 Fe2 1.935 1_565 S
O12 C27 1.421 . S
O13 Fe2 2.077 1_565 S
O13 C17 1.381 . S
O14 Fe0 1.935 1_565 S
O14 C17 1.421 . S
O15 Fe3 2.077 1_565 S
O15 C23 1.381 . S
O16 Fe7 1.935 1_565 S
O16 C23 1.421 . S
C17 O13 1.381 . S
C17 O14 1.421 . S
O18 Fe7 2.077 . S
O18 C30 1.381 . S
O19 Fe2 1.935 . S
O19 C30 1.421 . S
O20 Fe0 2.077 1_554 S
O20 C8 1.381 . S
O21 Fe3 1.935 . S
O21 C8 1.421 1_556 S
C22 O9 1.381 1_554 S
C22 O10 1.421 1_554 S
C23 O15 1.381 . S
C23 O16 1.421 . S
C24 O25 1.381 . S
C24 O26 1.421 . S
O25 Fe3 2.077 . S
O25 C24 1.381 . S
O26 Fe7 1.935 . S
O26 C24 1.421 . S
C27 O11 1.381 . S
C27 O12 1.421 . S
O28 Fe2 2.077 . S
O28 C31 1.381 . S
O29 Fe0 1.935 . S
O29 C31 1.421 . S
C30 O18 1.381 . S
C30 O19 1.421 . S
C31 O28 1.381 . S
C31 O29 1.421 . S
Fe32 O33 1.886 . S
Fe32 O36 1.715 . S
Fe32 O41 2.077 . S
Fe32 O46 1.935 . S
Fe32 O52 2.077 1_456 S
Fe32 O61 1.935 1_455 S
O33 Fe32 1.886 . S
O33 Fe35 1.715 . S
Fe34 O36 1.886 . S
Fe34 O37 1.715 . S
Fe34 O44 1.935 . S
Fe34 O45 2.077 . S
Fe34 O51 1.935 1_455 S
Fe34 O60 2.077 1_455 S
Fe35 O33 1.715 . S
Fe35 O38 1.886 . S
Fe35 O42 1.935 . S
Fe35 O47 2.077 . S
Fe35 O53 1.935 1_455 S
Fe35 O57 2.077 1_455 S
O36 Fe32 1.715 . S
O36 Fe34 1.886 . S
O37 Fe34 1.715 . S
O37 Fe39 1.886 . S
O38 Fe35 1.886 . S
O38 Fe39 1.715 . S
Fe39 O37 1.886 . S
Fe39 O38 1.715 . S
Fe39 O43 2.077 . S
Fe39 O48 1.935 . S
Fe39 O50 2.077 1_455 S
Fe39 O58 1.935 1_455 S
C40 O52 1.381 . S
C40 O53 1.421 1_554 S
O41 Fe32 2.077 . S
O41 C54 1.381 1_556 S
O42 Fe35 1.935 . S
O42 C54 1.421 1_556 S
O43 Fe39 2.077 . S
O43 C59 1.381 . S
O44 Fe34 1.935 . S
O44 C59 1.421 . S
O45 Fe34 2.077 . S
O45 C49 1.381 . S
O46 Fe32 1.935 . S
O46 C49 1.421 . S
O47 Fe35 2.077 . S
O47 C55 1.381 . S
O48 Fe39 1.935 . S
O48 C55 1.421 . S
C49 O45 1.381 . S
C49 O46 1.421 . S
O50 Fe39 2.077 1_655 S
O50 C62 1.381 . S
O51 Fe34 1.935 1_655 S
O51 C62 1.421 . S
O52 Fe32 2.077 1_654 S
O52 C40 1.381 . S
O53 Fe35 1.935 1_655 S
O53 C40 1.421 1_556 S
C54 O41 1.381 1_554 S
C54 O42 1.421 1_554 S
C55 O47 1.381 . S
C55 O48 1.421 . S
C56 O57 1.381 . S
C56 O58 1.421 . S
O57 Fe35 2.077 1_655 S
O57 C56 1.381 . S
O58 Fe39 1.935 1_655 S
O58 C56 1.421 . S
C59 O43 1.381 . S
C59 O44 1.421 . S
O60 Fe34 2.077 1_655 S
O60 C63 1.381 . S
O61 Fe32 1.935 1_655 S
O61 C63 1.421 . S
C62 O50 1.381 . S
C62 O51 1.421 . S
C63 O60 1.381 . S
C63 O61 1.421 . S
Fe64 O65 1.886 . S
Fe64 O68 1.715 . S
Fe64 O73 2.077 . S
Fe64 O78 1.935 . S
Fe64 O84 2.077 1_556 S
Fe64 O93 1.935 . S
O65 Fe64 1.886 . S
O65 Fe67 1.715 . S
Fe66 O68 1.886 . S
Fe66 O69 1.715 . S
Fe66 O76 1.935 . S
Fe66 O77 2.077 . S
Fe66 O83 1.935 . S
Fe66 O92 2.077 . S
Fe67 O65 1.715 . S
Fe67 O70 1.886 . S
Fe67 O74 1.935 . S
Fe67 O79 2.077 . S
Fe67 O85 1.935 . S
Fe67 O89 2.077 . S
O68 Fe64 1.715 . S
O68 Fe66 1.886 . S
O69 Fe66 1.715 . S
O69 Fe71 1.886 . S
O70 Fe67 1.886 . S
O70 Fe71 1.715 . S
Fe71 O69 1.886 . S
Fe71 O70 1.715 . S
Fe71 O75 2.077 . S
Fe71 O80 1.935 . S
Fe71 O82 2.077 . S
Fe71 O90 1.935 . S
C72 O84 1.381 . S
C72 O85 1.421 1_554 S
O73 Fe64 2.077 . S
O73 C86 1.381 1_556 S
O74 Fe67 1.935 . S
O74 C86 1.421 1_556 S
O75 Fe71 2.077 . S
O75 C91 1.381 . S
O76 Fe66 1.935 . S
O76 C91 1.421 . S
O77 Fe66 2.077 . S
O77 C81 1.381 . S
O78 Fe64 1.935 . S
O78 C81 1.421 . S
O79 Fe67 2.077 . S
O79 C87 1.381 . S
O80 Fe71 1.935 . S
O80 C87 1.421 . S
C81 O77 1.381 . S
C81 O78 1.421 . S
O82 Fe71 2.077 . S
O82 C94 1.381 . S
O83 Fe66 1.935 . S
O83 C94 1.421 . S
O84 Fe64 2.077 1_554 S
O84 C72 1.381 . S
O85 Fe67 1.935 . S
O85 C72 1.421 1_556 S
C86 O73 1.381 1_554 S
C86 O74 1.421 1_554 S
C87 O79 1.381 . S
C87 O80 1.421 . S
C88 O89 1.381 . S
C88 O90 1.421 . S
O89 Fe67 2.077 . S
O89 C88 1.381 . S
O90 Fe71 1.935 . S
O90 C88 1.421 . S
C91 O75 1.381 . S
C91 O76 1.421 . S
O92 Fe66 2.077 . S
O92 C95 1.381 . S
O93 Fe64 1.935 . S
O93 C95 1.421 . S
C94 O82 1.381 . S
C94 O83 1.421 . S
C95 O92 1.381 . S
C95 O93 1.421 . S
Fe96 O97 1.886 . S
Fe96 O100 1.715 . S
Fe96 O105 2.077 . S
Fe96 O110 1.935 . S
Fe96 O116 2.077 1_545 S
Fe96 O125 1.935 1_545 S
O97 Fe96 1.886 . S
O97 Fe99 1.715 . S
Fe98 O100 1.886 . S
Fe98 O101 1.715 . S
Fe98 O108 1.935 . S
Fe98 O109 2.077 . S
Fe98 O115 1.935 1_545 S
Fe98 O124 2.077 1_544 S
Fe99 O97 1.715 . S
Fe99 O102 1.886 . S
Fe99 O106 1.935 . S
Fe99 O111 2.077 . S
Fe99 O117 1.935 1_545 S
Fe99 O121 2.077 1_545 S
O100 Fe96 1.715 . S
O100 Fe98 1.886 . S
O101 Fe98 1.715 . S
O101 Fe103 1.886 . S
O102 Fe99 1.886 . S
O102 Fe103 1.715 . S
Fe103 O101 1.886 . S
Fe103 O102 1.715 . S
Fe103 O107 2.077 . S
Fe103 O112 1.935 . S
Fe103 O114 2.077 1_545 S
Fe103 O122 1.935 1_545 S
C104 O116 1.381 . S
C104 O117 1.421 . S
O105 Fe96 2.077 . S
O105 C118 1.381 . S
O106 Fe99 1.935 . S
O106 C118 1.421 . S
O107 Fe103 2.077 . S
O107 C123 1.381 . S
O108 Fe98 1.935 . S
O108 C123 1.421 . S
O109 Fe98 2.077 . S
O109 C113 1.381 1_554 S
O110 Fe96 1.935 . S
O110 C113 1.421 1_554 S
O111 Fe99 2.077 . S
O111 C119 1.381 . S
O112 Fe103 1.935 . S
O112 C119 1.421 . S
C113 O109 1.381 1_556 S
C113 O110 1.421 1_556 S
O114 Fe103 2.077 1_565 S
O114 C126 1.381 . S
O115 Fe98 1.935 1_565 S
O115 C126 1.421 . S
O116 Fe96 2.077 1_565 S
O116 C104 1.381 . S
O117 Fe99 1.935 1_565 S
O117 C104 1.421 . S
C118 O105 1.381 . S
C118 O106 1.421 . S
C119 O111 1.381 . S
C119 O112 1.421 . S
C120 O121 1.381 . S
C120 O122 1.421 . S
O121 Fe99 2.077 1_565 S
O121 C120 1.381 . S
O122 Fe103 1.935 1_565 S
O122 C120 1.421 . S
C123 O107 1.381 . S
C123 O108 1.421 . S
O124 Fe98 2.077 1_566 S
O124 C127 1.381 . S
O125 Fe96 1.935 1_565 S
O125 C127 1.421 1_554 S
C126 O114 1.381 . S
C126 O115 1.421 . S
C127 O124 1.381 . S
C127 O125 1.421 1_556 S
Fe128 O129 1.886 . S
Fe128 O132 1.715 . S
Fe128 O137 2.077 1_455 S
Fe128 O142 1.935 1_455 S
Fe128 O148 2.077 . S
Fe128 O157 1.935 . S
O129 Fe128 1.886 . S
O129 Fe131 1.715 . S
Fe130 O132 1.886 . S
Fe130 O133 1.715 . S
Fe130 O140 1.935 1_455 S
Fe130 O141 2.077 1_455 S
Fe130 O147 1.935 . S
Fe130 O156 2.077 1_554 S
Fe131 O129 1.715 . S
Fe131 O134 1.886 . S
Fe131 O138 1.935 1_455 S
Fe131 O143 2.077 1_455 S
Fe131 O149 1.935 . S
Fe131 O153 2.077 . S
O132 Fe128 1.715 . S
O132 Fe130 1.886 . S
O133 Fe130 1.715 . S
O133 Fe135 1.886 . S
O134 Fe131 1.886 . S
O134 Fe135 1.715 . S
Fe135 O133 1.886 . S
Fe135 O134 1.715 . S
Fe135 O139 2.077 1_455 S
Fe135 O144 1.935 1_455 S
Fe135 O146 2.077 . S
Fe135 O154 1.935 . S
C136 O148 1.381 . S
C136 O149 1.421 . S
O137 Fe128 2.077 1_655 S
O137 C150 1.381 . S
O138 Fe131 1.935 1_655 S
O138 C150 1.421 . S
O139 Fe135 2.077 1_655 S
O139 C155 1.381 . S
O140 Fe130 1.935 1_655 S
O140 C155 1.421 . S
O141 Fe130 2.077 1_655 S
O141 C145 1.381 1_554 S
O142 Fe128 1.935 1_655 S
O142 C145 1.421 1_554 S
O143 Fe131 2.077 1_655 S
O143 C151 1.381 . S
O144 Fe135 1.935 1_655 S
O144 C151 1.421 . S
C145 O141 1.381 1_556 S
C145 O142 1.421 1_556 S
O146 Fe135 2.077 . S
O146 C158 1.381 . S
O147 Fe130 1.935 . S
O147 C158 1.421 . S
O148 Fe128 2.077 . S
O148 C136 1.381 . S
O149 Fe131 1.935 . S
O149 C136 1.421 . S
C150 O137 1.381 . S
C150 O138 1.421 . S
C151 O143 1.381 . S
C151 O144 1.421 . S
C152 O153 1.381 . S
C152 O154 1.421 . S
O153 Fe131 2.077 . S
O153 C152 1.381 . S
O154 Fe135 1.935 . S
O154 C152 1.421 . S
C155 O139 1.381 . S
C155 O140 1.421 . S
O156 Fe130 2.077 1_556 S
O156 C159 1.381 . S
O157 Fe128 1.935 . S
O157 C159 1.421 1_554 S
C158 O146 1.381 . S
C158 O147 1.421 . S
C159 O156 1.381 . S
C159 O157 1.421 1_556 S
Fe160 O161 1.886 . S
Fe160 O164 1.715 . S
Fe160 O169 2.077 . S
Fe160 O174 1.935 . S
Fe160 O180 2.077 . S
Fe160 O189 1.935 . S
O161 Fe160 1.886 . S
O161 Fe163 1.715 . S
Fe162 O164 1.886 . S
Fe162 O165 1.715 . S
Fe162 O172 1.935 . S
Fe162 O173 2.077 . S
Fe162 O179 1.935 . S
Fe162 O188 2.077 . S
Fe163 O161 1.715 . S
Fe163 O166 1.886 . S
Fe163 O170 1.935 . S
Fe163 O175 2.077 1_554 S
Fe163 O181 1.935 . S
Fe163 O185 2.077 . S
O164 Fe160 1.715 . S
O164 Fe162 1.886 . S
O165 Fe162 1.715 . S
O165 Fe167 1.886 . S
O166 Fe163 1.886 . S
O166 Fe167 1.715 . S
Fe167 O165 1.886 . S
Fe167 O166 1.715 . S
Fe167 O171 2.077 . S
Fe167 O176 1.935 . S
Fe167 O178 2.077 . S
Fe167 O186 1.935 . S
C168 O180 1.381 . S
C168 O181 1.421 . S
O169 Fe160 2.077 . S
O169 C182 1.381 . S
O170 Fe163 1.935 . S
O170 C182 1.421 . S
O171 Fe167 2.077 . S
O171 C187 1.381 . S
O172 Fe162 1.935 . S
O172 C187 1.421 . S
O173 Fe162 2.077 . S
O173 C177 1.381 . S
O174 Fe160 1.935 . S
O174 C177 1.421 . S
O175 Fe163 2.077 1_556 S
O175 C183 1.381 . S
O176 Fe167 1.935 . S
O176 C183 1.421 1_554 S
C177 O173 1.381 . S
C177 O174 1.421 . S
O178 Fe167 2.077 . S
O178 C190 1.381 . S
O179 Fe162 1.935 . S
O179 C190 1.421 . S
O180 Fe160 2.077 . S
O180 C168 1.381 . S
O181 Fe163 1.935 . S
O181 C168 1.421 . S
C182 O169 1.381 . S
C182 O170 1.421 . S
C183 O175 1.381 . S
C183 O176 1.421 1_556 S
C184 O185 1.381 1_556 S
C184 O186 1.421 1_556 S
O185 Fe163 2.077 . S
O185 C184 1.381 1_554 S
O186 Fe167 1.935 . S
O186 C184 1.421 1_554 S
C187 O171 1.381 . S
C187 O172 1.421 . S
O188 Fe162 2.077 . S
O188 C191 1.381 . S
O189 Fe160 1.935 . S
O189 C191 1.421 . S
C190 O178 1.381 . S
C190 O179 1.421 . S
C191 O188 1.381 . S
C191 O189 1.421 . S
Fe192 O193 1.886 . S
Fe192 O196 1.715 . S
Fe192 O201 2.077 . S
Fe192 O206 1.935 . S
Fe192 O212 2.077 . S
Fe192 O221 1.935 . S
O193 Fe192 1.886 . S
O193 Fe195 1.715 . S
Fe194 O196 1.886 1_556 S
Fe194 O197 1.715 . S
Fe194 O204 1.935 . S
Fe194 O205 2.077 . S
Fe194 O211 1.935 . S
Fe194 O220 2.079 . S
Fe195 O193 1.715 . S
Fe195 O198 1.886 . S
Fe195 O202 1.935 . S
Fe195 O207 2.077 . S
Fe195 O213 1.935 . S
Fe195 O217 2.077 . S
O196 Fe192 1.715 . S
O196 Fe194 1.886 1_554 S
O197 Fe194 1.715 . S
O197 Fe199 1.886 . S
O198 Fe195 1.886 . S
O198 Fe199 1.715 1_554 S
Fe199 O197 1.886 . S
Fe199 O198 1.715 1_556 S
Fe199 O203 2.077 . S
Fe199 O208 1.935 . S
Fe199 O210 2.077 . S
Fe199 O218 1.935 . S
C200 O212 1.381 . S
C200 O213 1.421 . S
O201 Fe192 2.077 . S
O201 C214 1.381 . S
O202 Fe195 1.935 . S
O202 C214 1.421 . S
O203 Fe199 2.077 . S
O203 C219 1.381 . S
O204 Fe194 1.935 . S
O204 C219 1.421 . S
O205 Fe194 2.077 . S
O205 C209 1.381 1_556 S
O206 Fe192 1.935 . S
O206 C209 1.421 . S
O207 Fe195 2.077 . S
O207 C215 1.381 . S
O208 Fe199 1.935 . S
O208 C215 1.421 1_556 S
C209 O205 1.381 1_554 S
C209 O206 1.421 . S
O210 Fe199 2.077 . S
O210 C222 1.381 . S
O211 Fe194 1.935 . S
O211 C222 1.421 . S
O212 Fe192 2.077 . S
O212 C200 1.381 . S
O213 Fe195 1.935 . S
O213 C200 1.421 . S
C214 O201 1.381 . S
C214 O202 1.421 . S
C215 O207 1.381 . S
C215 O208 1.421 1_554 S
C216 O217 1.381 1_455 S
C216 O218 1.421 1_454 S
O217 Fe195 2.077 . S
O217 C216 1.381 1_655 S
O218 Fe199 1.935 . S
O218 C216 1.421 1_656 S
C219 O203 1.381 . S
C219 O204 1.421 . S
O220 Fe194 2.079 . S
O220 C223 1.375 1_556 S
O221 Fe192 1.935 . S
O221 C223 1.421 . S
C222 O210 1.381 . S
C222 O211 1.421 . S
C223 O220 1.375 1_554 S
C223 O221 1.421 . S
Fe224 O225 1.886 . S
Fe224 O228 1.715 . S
Fe224 O233 2.077 . S
Fe224 O238 1.935 . S
Fe224 O244 2.077 . S
Fe224 O253 1.935 . S
O225 Fe224 1.886 . S
O225 Fe227 1.715 . S
Fe226 O228 1.886 1_556 S
Fe226 O229 1.715 . S
Fe226 O236 1.935 . S
Fe226 O237 2.077 . S
Fe226 O243 1.935 . S
Fe226 O252 2.079 . S
Fe227 O225 1.715 . S
Fe227 O230 1.886 . S
Fe227 O234 1.935 . S
Fe227 O239 2.077 . S
Fe227 O245 1.935 . S
Fe227 O249 2.077 . S
O228 Fe224 1.715 . S
O228 Fe226 1.886 1_554 S
O229 Fe226 1.715 . S
O229 Fe231 1.886 . S
O230 Fe227 1.886 . S
O230 Fe231 1.715 1_554 S
Fe231 O229 1.886 . S
Fe231 O230 1.715 1_556 S
Fe231 O235 2.077 . S
Fe231 O240 1.935 . S
Fe231 O242 2.077 . S
Fe231 O250 1.935 . S
C232 O244 1.381 . S
C232 O245 1.421 . S
O233 Fe224 2.077 . S
O233 C246 1.381 . S
O234 Fe227 1.935 . S
O234 C246 1.421 . S
O235 Fe231 2.077 . S
O235 C251 1.381 . S
O236 Fe226 1.935 . S
O236 C251 1.421 . S
O237 Fe226 2.077 . S
O237 C241 1.381 1_556 S
O238 Fe224 1.935 . S
O238 C241 1.421 . S
O239 Fe227 2.077 . S
O239 C247 1.381 . S
O240 Fe231 1.935 . S
O240 C247 1.421 1_556 S
C241 O237 1.381 1_554 S
C241 O238 1.421 . S
O242 Fe231 2.077 . S
O242 C254 1.381 . S
O243 Fe226 1.935 . S
O243 C254 1.421 . S
O244 Fe224 2.077 . S
O244 C232 1.381 . S
O245 Fe227 1.935 . S
O245 C232 1.421 . S
C246 O233 1.381 . S
C246 O234 1.421 . S
C247 O239 1.381 . S
C247 O240 1.421 1_554 S
C248 O249 1.381 . S
C248 O250 1.421 1_554 S
O249 Fe227 2.077 . S
O249 C248 1.381 . S
O250 Fe231 1.935 . S
O250 C248 1.421 1_556 S
C251 O235 1.381 . S
C251 O236 1.421 . S
O252 Fe226 2.079 . S
O252 C255 1.375 1_556 S
O253 Fe224 1.935 . S
O253 C255 1.421 . S
C254 O242 1.381 . S
C254 O243 1.421 . S
C255 O252 1.375 1_554 S
C255 O253 1.421 . S
Fe256 O257 1.886 . S
Fe256 O260 1.715 . S
Fe256 O265 2.077 . S
Fe256 O270 1.935 . S
Fe256 O276 2.077 . S
Fe256 O285 1.935 . S
O257 Fe256 1.886 . S
O257 Fe259 1.715 . S
Fe258 O260 1.886 1_556 S
Fe258 O261 1.715 . S
Fe258 O268 1.935 . S
Fe258 O269 2.077 . S
Fe258 O275 1.935 . S
Fe258 O284 2.079 . S
Fe259 O257 1.715 . S
Fe259 O262 1.886 . S
Fe259 O266 1.935 . S
Fe259 O271 2.077 . S
Fe259 O277 1.935 . S
Fe259 O281 2.077 . S
O260 Fe256 1.715 . S
O260 Fe258 1.886 1_554 S
O261 Fe258 1.715 . S
O261 Fe263 1.886 . S
O262 Fe259 1.886 . S
O262 Fe263 1.715 1_554 S
Fe263 O261 1.886 . S
Fe263 O262 1.715 1_556 S
Fe263 O267 2.077 . S
Fe263 O272 1.935 . S
Fe263 O274 2.077 . S
Fe263 O282 1.935 . S
C264 O276 1.381 . S
C264 O277 1.421 . S
O265 Fe256 2.077 . S
O265 C278 1.381 . S
O266 Fe259 1.935 . S
O266 C278 1.421 . S
O267 Fe263 2.077 . S
O267 C283 1.381 . S
O268 Fe258 1.935 . S
O268 C283 1.421 . S
O269 Fe258 2.077 . S
O269 C273 1.381 1_556 S
O270 Fe256 1.935 . S
O270 C273 1.421 . S
O271 Fe259 2.077 . S
O271 C279 1.381 . S
O272 Fe263 1.935 . S
O272 C279 1.421 1_556 S
C273 O269 1.381 1_554 S
C273 O270 1.421 . S
O274 Fe263 2.077 . S
O274 C286 1.381 . S
O275 Fe258 1.935 . S
O275 C286 1.421 . S
O276 Fe256 2.077 . S
O276 C264 1.381 . S
O277 Fe259 1.935 . S
O277 C264 1.421 . S
C278 O265 1.381 . S
C278 O266 1.421 . S
C279 O271 1.381 . S
C279 O272 1.421 1_554 S
C280 O281 1.381 . S
C280 O282 1.421 1_554 S
O281 Fe259 2.077 . S
O281 C280 1.381 . S
O282 Fe263 1.935 . S
O282 C280 1.421 1_556 S
C283 O267 1.381 . S
C283 O268 1.421 . S
O284 Fe258 2.079 . S
O284 C287 1.375 1_556 S
O285 Fe256 1.935 . S
O285 C287 1.421 . S
C286 O274 1.381 . S
C286 O275 1.421 . S
C287 O284 1.375 1_554 S
C287 O285 1.421 . S
Fe288 O289 1.886 . S
Fe288 O292 1.715 . S
Fe288 O297 2.077 . S
Fe288 O302 1.935 . S
Fe288 O308 2.077 . S
Fe288 O317 1.935 . S
O289 Fe288 1.886 . S
O289 Fe291 1.715 . S
Fe290 O292 1.886 . S
Fe290 O293 1.715 . S
Fe290 O300 1.935 . S
Fe290 O301 2.077 . S
Fe290 O307 1.935 . S
Fe290 O316 2.077 . S
Fe291 O289 1.715 . S
Fe291 O294 1.886 . S
Fe291 O298 1.935 . S
Fe291 O303 2.077 . S
Fe291 O309 1.935 . S
Fe291 O313 2.077 . S
O292 Fe288 1.715 . S
O292 Fe290 1.886 . S
O293 Fe290 1.715 . S
O293 Fe295 1.886 . S
O294 Fe291 1.886 . S
O294 Fe295 1.715 . S
Fe295 O293 1.886 . S
Fe295 O294 1.715 . S
Fe295 O299 2.077 . S
Fe295 O304 1.935 . S
Fe295 O306 2.077 . S
Fe295 O314 1.935 . S
C296 O308 1.381 . S
C296 O309 1.421 . S
O297 Fe288 2.077 . S
O297 C310 1.381 . S
O298 Fe291 1.935 . S
O298 C310 1.421 . S
O299 Fe295 2.077 . S
O299 C315 1.381 . S
O300 Fe290 1.935 . S
O300 C315 1.421 . S
O301 Fe290 2.077 . S
O301 C305 1.381 . S
O302 Fe288 1.935 . S
O302 C305 1.421 . S
O303 Fe291 2.077 . S
O303 C311 1.381 . S
O304 Fe295 1.935 . S
O304 C311 1.421 . S
C305 O301 1.381 . S
C305 O302 1.421 . S
O306 Fe295 2.077 . S
O306 C318 1.381 . S
O307 Fe290 1.935 . S
O307 C318 1.421 . S
O308 Fe288 2.077 . S
O308 C296 1.381 . S
O309 Fe291 1.935 . S
O309 C296 1.421 . S
C310 O297 1.381 . S
C310 O298 1.421 . S
C311 O303 1.381 . S
C311 O304 1.421 . S
C312 O313 1.381 . S
C312 O314 1.421 . S
O313 Fe291 2.077 . S
O313 C312 1.381 . S
O314 Fe295 1.935 . S
O314 C312 1.421 . S
C315 O299 1.381 . S
C315 O300 1.421 . S
O316 Fe290 2.077 . S
O316 C319 1.381 . S
O317 Fe288 1.935 . S
O317 C319 1.421 . S
C318 O306 1.381 . S
C318 O307 1.421 . S
C319 O316 1.381 . S
C319 O317 1.421 . S
Fe320 O321 1.886 . S
Fe320 O324 1.715 . S
Fe320 O329 2.077 . S
Fe320 O334 1.935 . S
Fe320 O340 2.077 . S
Fe320 O349 1.935 . S
O321 Fe320 1.886 . S
O321 Fe323 1.715 . S
Fe322 O324 1.886 . S
Fe322 O325 1.715 . S
Fe322 O332 1.935 . S
Fe322 O333 2.077 . S
Fe322 O339 1.935 . S
Fe322 O348 2.077 . S
Fe323 O321 1.715 . S
Fe323 O326 1.886 . S
Fe323 O330 1.935 . S
Fe323 O335 2.077 . S
Fe323 O341 1.935 . S
Fe323 O345 2.077 . S
O324 Fe320 1.715 . S
O324 Fe322 1.886 . S
O325 Fe322 1.715 . S
O325 Fe327 1.886 . S
O326 Fe323 1.886 . S
O326 Fe327 1.715 . S
Fe327 O325 1.886 . S
Fe327 O326 1.715 . S
Fe327 O331 2.077 . S
Fe327 O336 1.935 . S
Fe327 O338 2.077 . S
Fe327 O346 1.935 . S
C328 O340 1.381 . S
C328 O341 1.421 . S
O329 Fe320 2.077 . S
O329 C342 1.381 . S
O330 Fe323 1.935 . S
O330 C342 1.421 . S
O331 Fe327 2.077 . S
O331 C347 1.381 . S
O332 Fe322 1.935 . S
O332 C347 1.421 . S
O333 Fe322 2.077 . S
O333 C337 1.381 . S
O334 Fe320 1.935 . S
O334 C337 1.421 . S
O335 Fe323 2.077 . S
O335 C343 1.381 . S
O336 Fe327 1.935 . S
O336 C343 1.421 . S
C337 O333 1.381 . S
C337 O334 1.421 . S
O338 Fe327 2.077 . S
O338 C350 1.381 . S
O339 Fe322 1.935 . S
O339 C350 1.421 . S
O340 Fe320 2.077 . S
O340 C328 1.381 . S
O341 Fe323 1.935 . S
O341 C328 1.421 . S
C342 O329 1.381 . S
C342 O330 1.421 . S
C343 O335 1.381 . S
C343 O336 1.421 . S
C344 O345 1.381 . S
C344 O346 1.421 . S
O345 Fe323 2.077 . S
O345 C344 1.381 . S
O346 Fe327 1.935 . S
O346 C344 1.421 . S
C347 O331 1.381 . S
C347 O332 1.421 . S
O348 Fe322 2.077 . S
O348 C351 1.381 . S
O349 Fe320 1.935 . S
O349 C351 1.421 . S
C350 O338 1.381 . S
C350 O339 1.421 . S
C351 O348 1.381 . S
C351 O349 1.421 . S
Fe352 O353 1.886 . S
Fe352 O356 1.715 . S
Fe352 O361 2.077 . S
Fe352 O366 1.935 . S
Fe352 O372 2.077 . S
Fe352 O381 1.935 . S
O353 Fe352 1.886 . S
O353 Fe355 1.715 . S
Fe354 O356 1.886 . S
Fe354 O357 1.715 . S
Fe354 O364 1.935 . S
Fe354 O365 2.077 . S
Fe354 O371 1.935 . S
Fe354 O380 2.077 . S
Fe355 O353 1.715 . S
Fe355 O358 1.886 . S
Fe355 O362 1.935 . S
Fe355 O367 2.077 . S
Fe355 O373 1.935 . S
Fe355 O377 2.077 . S
O356 Fe352 1.715 . S
O356 Fe354 1.886 . S
O357 Fe354 1.715 . S
O357 Fe359 1.886 . S
O358 Fe355 1.886 . S
O358 Fe359 1.715 . S
Fe359 O357 1.886 . S
Fe359 O358 1.715 . S
Fe359 O363 2.077 . S
Fe359 O368 1.935 . S
Fe359 O370 2.077 . S
Fe359 O378 1.935 . S
C360 O372 1.381 . S
C360 O373 1.421 . S
O361 Fe352 2.077 . S
O361 C374 1.381 . S
O362 Fe355 1.935 . S
O362 C374 1.421 . S
O363 Fe359 2.077 . S
O363 C379 1.381 . S
O364 Fe354 1.935 . S
O364 C379 1.421 . S
O365 Fe354 2.077 . S
O365 C369 1.381 . S
O366 Fe352 1.935 . S
O366 C369 1.421 . S
O367 Fe355 2.077 . S
O367 C375 1.381 . S
O368 Fe359 1.935 . S
O368 C375 1.421 . S
C369 O365 1.381 . S
C369 O366 1.421 . S
O370 Fe359 2.077 . S
O370 C382 1.381 1_655 S
O371 Fe354 1.935 . S
O371 C382 1.421 1_655 S
O372 Fe352 2.077 . S
O372 C360 1.381 . S
O373 Fe355 1.935 . S
O373 C360 1.421 . S
C374 O361 1.381 . S
C374 O362 1.421 . S
C375 O367 1.381 . S
C375 O368 1.421 . S
C376 O377 1.381 . S
C376 O378 1.421 . S
O377 Fe355 2.077 . S
O377 C376 1.381 . S
O378 Fe359 1.935 . S
O378 C376 1.421 . S
C379 O363 1.381 . S
C379 O364 1.421 . S
O380 Fe354 2.077 . S
O380 C383 1.381 . S
O381 Fe352 1.935 . S
O381 C383 1.421 . S
C382 O370 1.381 1_455 S
C382 O371 1.421 1_455 S
C383 O380 1.381 . S
C383 O381 1.421 . S
Fe384 O385 1.886 . S
Fe384 O388 1.715 . S
Fe384 O393 2.077 . S
Fe384 O398 1.935 . S
Fe384 O404 2.077 . S
Fe384 O413 1.935 . S
O385 Fe384 1.886 . S
O385 Fe387 1.715 . S
Fe386 O388 1.886 . S
Fe386 O389 1.715 . S
Fe386 O396 1.935 . S
Fe386 O397 2.077 . S
Fe386 O403 1.935 . S
Fe386 O412 2.077 . S
Fe387 O385 1.715 . S
Fe387 O390 1.886 . S
Fe387 O394 1.935 . S
Fe387 O399 2.077 . S
Fe387 O405 1.935 . S
Fe387 O409 2.077 . S
O388 Fe384 1.715 . S
O388 Fe386 1.886 . S
O389 Fe386 1.715 . S
O389 Fe391 1.886 . S
O390 Fe387 1.886 . S
O390 Fe391 1.715 . S
Fe391 O389 1.886 . S
Fe391 O390 1.715 . S
Fe391 O395 2.077 . S
Fe391 O400 1.935 . S
Fe391 O402 2.077 . S
Fe391 O410 1.935 . S
C392 O404 1.381 . S
C392 O405 1.421 . S
O393 Fe384 2.077 . S
O393 C406 1.381 . S
O394 Fe387 1.935 . S
O394 C406 1.421 . S
O395 Fe391 2.077 . S
O395 C411 1.381 . S
O396 Fe386 1.935 . S
O396 C411 1.421 . S
O397 Fe386 2.077 . S
O397 C401 1.381 . S
O398 Fe384 1.935 . S
O398 C401 1.421 . S
O399 Fe387 2.077 . S
O399 C407 1.381 . S
O400 Fe391 1.935 . S
O400 C407 1.421 . S
C401 O397 1.381 . S
C401 O398 1.421 . S
O402 Fe391 2.077 . S
O402 C414 1.381 . S
O403 Fe386 1.935 . S
O403 C414 1.421 . S
O404 Fe384 2.077 . S
O404 C392 1.381 . S
O405 Fe387 1.935 . S
O405 C392 1.421 . S
C406 O393 1.381 . S
C406 O394 1.421 . S
C407 O399 1.381 . S
C407 O400 1.421 . S
C408 O409 1.381 . S
C408 O410 1.421 . S
O409 Fe387 2.077 . S
O409 C408 1.381 . S
O410 Fe391 1.935 . S
O410 C408 1.421 . S
C411 O395 1.381 . S
C411 O396 1.421 . S
O412 Fe386 2.077 . S
O412 C415 1.381 . S
O413 Fe384 1.935 . S
O413 C415 1.421 . S
C414 O402 1.381 . S
C414 O403 1.421 . S
C415 O412 1.381 . S
C415 O413 1.421 . S
Fe416 O417 1.886 . S
Fe416 O420 1.715 . S
Fe416 O425 2.077 . S
Fe416 O430 1.935 . S
Fe416 O436 2.077 . S
Fe416 O445 1.935 . S
O417 Fe416 1.886 . S
O417 Fe419 1.715 . S
Fe418 O420 1.886 . S
Fe418 O421 1.715 . S
Fe418 O428 1.935 . S
Fe418 O429 2.077 . S
Fe418 O435 1.935 . S
Fe418 O444 2.077 . S
Fe419 O417 1.715 . S
Fe419 O422 1.886 . S
Fe419 O426 1.935 . S
Fe419 O431 2.077 . S
Fe419 O437 1.935 . S
Fe419 O441 2.077 . S
O420 Fe416 1.715 . S
O420 Fe418 1.886 . S
O421 Fe418 1.715 . S
O421 Fe423 1.886 . S
O422 Fe419 1.886 . S
O422 Fe423 1.715 . S
Fe423 O421 1.886 . S
Fe423 O422 1.715 . S
Fe423 O427 2.077 . S
Fe423 O432 1.935 . S
Fe423 O434 2.077 . S
Fe423 O442 1.935 . S
C424 O436 1.381 . S
C424 O437 1.421 . S
O425 Fe416 2.077 . S
O425 C438 1.381 . S
O426 Fe419 1.935 . S
O426 C438 1.421 . S
O427 Fe423 2.077 . S
O427 C443 1.381 . S
O428 Fe418 1.935 . S
O428 C443 1.421 . S
O429 Fe418 2.077 . S
O429 C433 1.381 . S
O430 Fe416 1.935 . S
O430 C433 1.421 . S
O431 Fe419 2.077 . S
O431 C439 1.381 1_565 S
O432 Fe423 1.935 . S
O432 C439 1.421 1_565 S
C433 O429 1.381 . S
C433 O430 1.421 . S
O434 Fe423 2.077 . S
O434 C446 1.381 . S
O435 Fe418 1.935 . S
O435 C446 1.421 . S
O436 Fe416 2.077 . S
O436 C424 1.381 . S
O437 Fe419 1.935 . S
O437 C424 1.421 . S
C438 O425 1.381 . S
C438 O426 1.421 . S
C439 O431 1.381 1_545 S
C439 O432 1.421 1_545 S
C440 O441 1.381 . S
C440 O442 1.421 . S
O441 Fe419 2.077 . S
O441 C440 1.381 . S
O442 Fe423 1.935 . S
O442 C440 1.421 . S
C443 O427 1.381 . S
C443 O428 1.421 . S
O444 Fe418 2.077 . S
O444 C447 1.381 . S
O445 Fe416 1.935 . S
O445 C447 1.421 . S
C446 O434 1.381 . S
C446 O435 1.421 . S
C447 O444 1.381 . S
C447 O445 1.421 . S
Fe448 O449 1.886 . S
Fe448 O452 1.715 . S
Fe448 O457 2.077 . S
Fe448 O462 1.935 . S
Fe448 O468 2.077 . S
Fe448 O477 1.935 . S
O449 Fe448 1.886 . S
O449 Fe451 1.715 . S
Fe450 O452 1.886 . S
Fe450 O453 1.715 . S
Fe450 O460 1.935 . S
Fe450 O461 2.077 . S
Fe450 O467 1.935 . S
Fe450 O476 2.077 . S
Fe451 O449 1.715 . S
Fe451 O454 1.886 . S
Fe451 O458 1.935 . S
Fe451 O463 2.077 . S
Fe451 O469 1.935 . S
Fe451 O473 2.077 . S
O452 Fe448 1.715 . S
O452 Fe450 1.886 . S
O453 Fe450 1.715 . S
O453 Fe455 1.886 . S
O454 Fe451 1.886 . S
O454 Fe455 1.715 . S
Fe455 O453 1.886 . S
Fe455 O454 1.715 . S
Fe455 O459 2.077 . S
Fe455 O464 1.935 . S
Fe455 O466 2.077 . S
Fe455 O474 1.935 . S
C456 O468 1.381 . S
C456 O469 1.421 . S
O457 Fe448 2.077 . S
O457 C470 1.381 . S
O458 Fe451 1.935 . S
O458 C470 1.421 . S
O459 Fe455 2.077 . S
O459 C475 1.381 . S
O460 Fe450 1.935 . S
O460 C475 1.421 . S
O461 Fe450 2.077 . S
O461 C465 1.381 . S
O462 Fe448 1.935 . S
O462 C465 1.421 . S
O463 Fe451 2.077 . S
O463 C471 1.381 . S
O464 Fe455 1.935 . S
O464 C471 1.421 . S
C465 O461 1.381 . S
C465 O462 1.421 . S
O466 Fe455 2.077 . S
O466 C478 1.381 . S
O467 Fe450 1.935 . S
O467 C478 1.421 . S
O468 Fe448 2.077 . S
O468 C456 1.381 . S
O469 Fe451 1.935 . S
O469 C456 1.421 . S
C470 O457 1.381 . S
C470 O458 1.421 . S
C471 O463 1.381 . S
C471 O464 1.421 . S
C472 O473 1.381 . S
C472 O474 1.421 . S
O473 Fe451 2.077 . S
O473 C472 1.381 . S
O474 Fe455 1.935 . S
O474 C472 1.421 . S
C475 O459 1.381 . S
C475 O460 1.421 . S
O476 Fe450 2.077 . S
O476 C479 1.381 . S
O477 Fe448 1.935 . S
O477 C479 1.421 . S
C478 O466 1.381 . S
C478 O467 1.421 . S
C479 O476 1.381 . S
C479 O477 1.421 . S
Fe480 O481 1.886 . S
Fe480 O484 1.715 . S
Fe480 O489 2.077 . S
Fe480 O494 1.935 . S
Fe480 O500 2.077 . S
Fe480 O509 1.935 . S
O481 Fe480 1.886 . S
O481 Fe483 1.715 1_556 S
Fe482 O484 1.886 . S
Fe482 O485 1.715 . S
Fe482 O492 1.935 . S
Fe482 O493 2.077 . S
Fe482 O499 1.935 . S
Fe482 O508 2.077 . S
Fe483 O481 1.715 1_554 S
Fe483 O486 1.886 . S
Fe483 O490 1.935 . S
Fe483 O495 2.077 . S
Fe483 O501 1.935 . S
Fe483 O505 2.077 . S
O484 Fe480 1.715 . S
O484 Fe482 1.886 . S
O485 Fe482 1.715 . S
O485 Fe487 1.886 1_556 S
O486 Fe483 1.886 . S
O486 Fe487 1.715 . S
Fe487 O485 1.886 1_554 S
Fe487 O486 1.715 . S
Fe487 O491 2.077 . S
Fe487 O496 1.935 . S
Fe487 O498 2.079 . S
Fe487 O506 1.935 . S
C488 O500 1.381 . S
C488 O501 1.421 1_556 S
O489 Fe480 2.077 . S
O489 C502 1.381 . S
O490 Fe483 1.935 . S
O490 C502 1.421 1_554 S
O491 Fe487 2.077 . S
O491 C507 1.381 1_554 S
O492 Fe482 1.935 . S
O492 C507 1.421 . S
O493 Fe482 2.077 . S
O493 C497 1.381 . S
O494 Fe480 1.935 . S
O494 C497 1.421 . S
O495 Fe483 2.077 . S
O495 C503 1.381 . S
O496 Fe487 1.935 . S
O496 C503 1.421 . S
C497 O493 1.381 . S
C497 O494 1.421 . S
O498 Fe487 2.079 . S
O498 C510 1.375 1_554 S
O499 Fe482 1.935 . S
O499 C510 1.421 . S
O500 Fe480 2.077 . S
O500 C488 1.381 . S
O501 Fe483 1.935 . S
O501 C488 1.421 1_554 S
C502 O489 1.381 . S
C502 O490 1.421 1_556 S
C503 O495 1.381 . S
C503 O496 1.421 . S
C504 O505 1.381 . S
C504 O506 1.421 . S
O505 Fe483 2.077 . S
O505 C504 1.381 . S
O506 Fe487 1.935 . S
O506 C504 1.421 . S
C507 O491 1.381 1_556 S
C507 O492 1.421 . S
O508 Fe482 2.077 . S
O508 C511 1.381 . S
O509 Fe480 1.935 . S
O509 C511 1.421 . S
C510 O498 1.375 1_556 S
C510 O499 1.421 . S
C511 O508 1.381 . S
C511 O509 1.421 . S
Fe512 O513 1.886 . S
Fe512 O516 1.715 . S
Fe512 O521 2.077 . S
Fe512 O526 1.935 . S
Fe512 O532 2.077 . S
Fe512 O541 1.935 . S
O513 Fe512 1.886 . S
O513 Fe515 1.715 1_556 S
Fe514 O516 1.886 . S
Fe514 O517 1.715 . S
Fe514 O524 1.935 . S
Fe514 O525 2.077 . S
Fe514 O531 1.935 . S
Fe514 O540 2.077 . S
Fe515 O513 1.715 1_554 S
Fe515 O518 1.886 . S
Fe515 O522 1.935 . S
Fe515 O527 2.077 . S
Fe515 O533 1.935 . S
Fe515 O537 2.077 . S
O516 Fe512 1.715 . S
O516 Fe514 1.886 . S
O517 Fe514 1.715 . S
O517 Fe519 1.886 1_556 S
O518 Fe515 1.886 . S
O518 Fe519 1.715 . S
Fe519 O517 1.886 1_554 S
Fe519 O518 1.715 . S
Fe519 O523 2.077 . S
Fe519 O528 1.935 . S
Fe519 O530 2.079 . S
Fe519 O538 1.935 . S
C520 O532 1.381 . S
C520 O533 1.421 1_556 S
O521 Fe512 2.077 . S
O521 C534 1.381 . S
O522 Fe515 1.935 . S
O522 C534 1.421 1_554 S
O523 Fe519 2.077 . S
O523 C539 1.381 1_554 S
O524 Fe514 1.935 . S
O524 C539 1.421 . S
O525 Fe514 2.077 . S
O525 C529 1.381 . S
O526 Fe512 1.935 . S
O526 C529 1.421 . S
O527 Fe515 2.077 . S
O527 C535 1.381 . S
O528 Fe519 1.935 . S
O528 C535 1.421 . S
C529 O525 1.381 . S
C529 O526 1.421 . S
O530 Fe519 2.079 . S
O530 C542 1.375 1_554 S
O531 Fe514 1.935 . S
O531 C542 1.421 . S
O532 Fe512 2.077 . S
O532 C520 1.381 . S
O533 Fe515 1.935 . S
O533 C520 1.421 1_554 S
C534 O521 1.381 . S
C534 O522 1.421 1_556 S
C535 O527 1.381 . S
C535 O528 1.421 . S
C536 O537 1.381 . S
C536 O538 1.421 . S
O537 Fe515 2.077 . S
O537 C536 1.381 . S
O538 Fe519 1.935 . S
O538 C536 1.421 . S
C539 O523 1.381 1_556 S
C539 O524 1.421 . S
O540 Fe514 2.077 . S
O540 C543 1.381 . S
O541 Fe512 1.935 . S
O541 C543 1.421 . S
C542 O530 1.375 1_556 S
C542 O531 1.421 . S
C543 O540 1.381 . S
C543 O541 1.421 . S
Fe544 O545 1.886 1_554 S
Fe544 O548 1.715 . S
Fe544 O553 2.079 . S
Fe544 O558 1.935 . S
Fe544 O564 2.077 . S
Fe544 O573 1.935 . S
O545 Fe544 1.886 1_556 S
O545 Fe547 1.715 . S
Fe546 O548 1.886 . S
Fe546 O549 1.715 1_554 S
Fe546 O556 1.935 . S
Fe546 O557 2.077 . S
Fe546 O563 1.935 . S
Fe546 O572 2.077 . S
Fe547 O545 1.715 . S
Fe547 O550 1.886 . S
Fe547 O554 1.935 . S
Fe547 O559 2.077 . S
Fe547 O565 1.935 . S
Fe547 O569 2.077 . S
O548 Fe544 1.715 . S
O548 Fe546 1.886 . S
O549 Fe546 1.715 1_556 S
O549 Fe551 1.886 . S
O550 Fe547 1.886 . S
O550 Fe551 1.715 . S
Fe551 O549 1.886 . S
Fe551 O550 1.715 . S
Fe551 O555 2.077 . S
Fe551 O560 1.935 . S
Fe551 O562 2.077 . S
Fe551 O570 1.935 . S
C552 O564 1.381 1_556 S
C552 O565 1.421 . S
O553 Fe544 2.079 . S
O553 C566 1.375 1_554 S
O554 Fe547 1.935 . S
O554 C566 1.421 . S
O555 Fe551 2.077 . S
O555 C571 1.381 1_565 S
O556 Fe546 1.935 . S
O556 C571 1.421 1_564 S
O557 Fe546 2.077 . S
O557 C561 1.381 . S
O558 Fe544 1.935 . S
O558 C561 1.421 . S
O559 Fe547 2.077 . S
O559 C567 1.381 . S
O560 Fe551 1.935 . S
O560 C567 1.421 . S
C561 O557 1.381 . S
C561 O558 1.421 . S
O562 Fe551 2.077 . S
O562 C574 1.381 . S
O563 Fe546 1.935 . S
O563 C574 1.421 1_554 S
O564 Fe544 2.077 . S
O564 C552 1.381 1_554 S
O565 Fe547 1.935 . S
O565 C552 1.421 . S
C566 O553 1.375 1_556 S
C566 O554 1.421 . S
C567 O559 1.381 . S
C567 O560 1.421 . S
C568 O569 1.381 . S
C568 O570 1.421 . S
O569 Fe547 2.077 . S
O569 C568 1.381 . S
O570 Fe551 1.935 . S
O570 C568 1.421 . S
C571 O555 1.381 1_545 S
C571 O556 1.421 1_546 S
O572 Fe546 2.077 . S
O572 C575 1.381 . S
O573 Fe544 1.935 . S
O573 C575 1.421 . S
C574 O562 1.381 . S
C574 O563 1.421 1_556 S
C575 O572 1.381 . S
C575 O573 1.421 . S
C49 C31 1.062 . S
C63 C81 1.062 1_545 S
C95 C17 1.062 1_655 S
C150 C104 1.062 . S
C168 C136 1.017 1_545 S
C182 C118 1.122 1_455 S
C223 C241 1.062 . S
C255 C273 1.062 . S
C209 C287 1.062 . S
C310 C328 1.062 . S
C360 C342 1.062 . S
C374 C296 1.062 . S
C415 C433 1.062 . S
C447 C465 1.062 . S
C479 C401 1.062 . S
C534 C488 1.062 . S
C520 C552 1.017 . S
C566 C502 1.122 . S
C30 C191 1.788 . S
C62 C119 1.839 . S
C94 C151 1.839 . S
C54 C183 1.923 1_554 S
C127 C86 1.880 1_556 S
C22 C159 1.880 1_554 S
C91 C120 1.880 . S
C152 C27 1.880 . S
C177 C59 1.788 . S
C145 C72 1.839 1_556 S
C184 C8 1.923 1_556 S
C40 C113 1.839 1_554 S
C222 C383 1.788 . S
C319 C254 1.788 . S
C351 C286 1.788 . S
C246 C375 1.923 . S
C311 C278 1.923 . S
C343 C214 1.924 . S
C305 C283 1.788 . S
C219 C337 1.788 . S
C251 C369 1.788 . S
C264 C344 1.923 . S
C376 C200 1.923 . S
C312 C232 1.924 . S
C414 C575 1.788 . S
C446 C503 1.839 . S
C535 C478 1.839 . S
C438 C567 1.923 . S
C470 C511 1.880 . S
C543 C406 1.880 . S
C504 C475 1.880 . S
C536 C411 1.880 . S
C561 C443 1.788 . S
C529 C456 1.839 . S
C568 C392 1.923 . S
C497 C424 1.839 . S
C23 C440 3.922 . S
C55 C472 3.922 . S
C408 C87 3.922 . S
C215 C56 3.922 1_554 S
C247 C88 3.922 1_554 S
C24 C279 3.922 1_556 S
C123 C347 4.061 . S
C155 C379 4.061 . S
C315 C190 3.922 . S
C158 C507 3.922 1_554 S
C539 C187 4.061 1_556 S
C574 C126 3.783 1_556 S
C248 C407 3.922 . S
C280 C439 3.922 . S
C471 C216 3.922 . S
C318 C542 3.783 . S
C350 C571 3.922 . S
C382 C510 3.783 . S
