# Generated by pormake.
# Topology neb, (4)-cn, num edge types: 1
# Building blocks:
#     Node 0, Type 0, BuildingBlock: CEKHIL_clean_sbu_0, # of connection points: 4
#     Node 1, Type 0, BuildingBlock: CEKHIL_clean_sbu_0, # of connection points: 4
#     Node 2, Type 0, BuildingBlock: CEKHIL_clean_sbu_0, # of connection points: 4
#     Node 3, Type 0, BuildingBlock: CEKHIL_clean_sbu_0, # of connection points: 4
#     Node 4, Type 0, BuildingBlock: CEKHIL_clean_sbu_0, # of connection points: 4
#     Node 5, Type 0, BuildingBlock: CEKHIL_clean_sbu_0, # of connection points: 4
#     Node 6, Type 0, BuildingBlock: CEKHIL_clean_sbu_0, # of connection points: 4
#     Node 7, Type 0, BuildingBlock: CEKHIL_clean_sbu_0, # of connection points: 4
#     Node 8, Type 0, BuildingBlock: CEKHIL_clean_sbu_0, # of connection points: 4
#     Node 9, Type 0, BuildingBlock: CEKHIL_clean_sbu_0, # of connection points: 4
#     Node 10, Type 0, BuildingBlock: CEKHIL_clean_sbu_0, # of connection points: 4
#     Node 11, Type 0, BuildingBlock: CEKHIL_clean_sbu_0, # of connection points: 4
#     Node 12, Type 0, BuildingBlock: CEKHIL_clean_sbu_0, # of connection points: 4
#     Node 13, Type 0, BuildingBlock: CEKHIL_clean_sbu_0, # of connection points: 4
#     Node 14, Type 0, BuildingBlock: CEKHIL_clean_sbu_0, # of connection points: 4
#     Node 15, Type 0, BuildingBlock: CEKHIL_clean_sbu_0, # of connection points: 4
#     Edge 16, Type (0, 0), BuildingBlock: ZUJKAS_clean_linker_0, # of connection points: 2
#     Edge 17, Type (0, 0), BuildingBlock: ZUJKAS_clean_linker_0, # of connection points: 2
#     Edge 18, Type (0, 0), BuildingBlock: ZUJKAS_clean_linker_0, # of connection points: 2
#     Edge 19, Type (0, 0), BuildingBlock: ZUJKAS_clean_linker_0, # of connection points: 2
#     Edge 20, Type (0, 0), BuildingBlock: ZUJKAS_clean_linker_0, # of connection points: 2
#     Edge 21, Type (0, 0), BuildingBlock: ZUJKAS_clean_linker_0, # of connection points: 2
#     Edge 22, Type (0, 0), BuildingBlock: ZUJKAS_clean_linker_0, # of connection points: 2
#     Edge 23, Type (0, 0), BuildingBlock: ZUJKAS_clean_linker_0, # of connection points: 2
#     Edge 24, Type (0, 0), BuildingBlock: ZUJKAS_clean_linker_0, # of connection points: 2
#     Edge 25, Type (0, 0), BuildingBlock: ZUJKAS_clean_linker_0, # of connection points: 2
#     Edge 26, Type (0, 0), BuildingBlock: ZUJKAS_clean_linker_0, # of connection points: 2
#     Edge 27, Type (0, 0), BuildingBlock: ZUJKAS_clean_linker_0, # of connection points: 2
#     Edge 28, Type (0, 0), BuildingBlock: ZUJKAS_clean_linker_0, # of connection points: 2
#     Edge 29, Type (0, 0), BuildingBlock: ZUJKAS_clean_linker_0, # of connection points: 2
#     Edge 30, Type (0, 0), BuildingBlock: ZUJKAS_clean_linker_0, # of connection points: 2
#     Edge 31, Type (0, 0), BuildingBlock: ZUJKAS_clean_linker_0, # of connection points: 2
#     Edge 32, Type (0, 0), BuildingBlock: ZUJKAS_clean_linker_0, # of connection points: 2
#     Edge 33, Type (0, 0), BuildingBlock: ZUJKAS_clean_linker_0, # of connection points: 2
#     Edge 34, Type (0, 0), BuildingBlock: ZUJKAS_clean_linker_0, # of connection points: 2
#     Edge 35, Type (0, 0), BuildingBlock: ZUJKAS_clean_linker_0, # of connection points: 2
#     Edge 36, Type (0, 0), BuildingBlock: ZUJKAS_clean_linker_0, # of connection points: 2
#     Edge 37, Type (0, 0), BuildingBlock: ZUJKAS_clean_linker_0, # of connection points: 2
#     Edge 38, Type (0, 0), BuildingBlock: ZUJKAS_clean_linker_0, # of connection points: 2
#     Edge 39, Type (0, 0), BuildingBlock: ZUJKAS_clean_linker_0, # of connection points: 2
#     Edge 40, Type (0, 0), BuildingBlock: ZUJKAS_clean_linker_0, # of connection points: 2
#     Edge 41, Type (0, 0), BuildingBlock: ZUJKAS_clean_linker_0, # of connection points: 2
#     Edge 42, Type (0, 0), BuildingBlock: ZUJKAS_clean_linker_0, # of connection points: 2
#     Edge 43, Type (0, 0), BuildingBlock: ZUJKAS_clean_linker_0, # of connection points: 2
#     Edge 44, Type (0, 0), BuildingBlock: ZUJKAS_clean_linker_0, # of connection points: 2
#     Edge 45, Type (0, 0), BuildingBlock: ZUJKAS_clean_linker_0, # of connection points: 2
#     Edge 46, Type (0, 0), BuildingBlock: ZUJKAS_clean_linker_0, # of connection points: 2
#     Edge 47, Type (0, 0), BuildingBlock: ZUJKAS_clean_linker_0, # of connection points: 2
# Relax obj value: 0.002
# Max RMSD: 0.028
# Mean RMSD: 0.028
data_MOF--net-neb--node1-CEKHIL_clean_sbu_0--edge1-ZUJKAS_clean_linker_0
_symmetry_space_group_name_H-M    P1
_symmetry_Int_Tables_number       1
_symmetry_cell_setting            triclinic
loop_
_symmetry_equiv_pos_as_xyz
'x, y, z'
_cell_length_a     53.498425
_cell_length_b     29.292867
_cell_length_c     98.738154
_cell_angle_alpha  90.003077
_cell_angle_beta   92.324747
_cell_angle_gamma 89.994479
loop_
_atom_site_label
_atom_site_type_symbol
_atom_site_fract_x
_atom_site_fract_y
_atom_site_fract_z
_atom_type_partial_charge
Co0 Co 0.13126 0.09991 0.44846 0.0
O1 O 0.12163 0.05703 0.46211 0.0
O2 O 0.09499 0.09555 0.44882 0.0
C3 C 0.15969 0.13722 0.46201 0.0
O4 O 0.13425 0.14875 0.4337 0.0
Co5 Co 0.18557 0.10205 0.43874 0.0
O6 O 0.17498 0.16025 0.43005 0.0
C7 C 0.15106 0.02979 0.42857 0.0
C8 C 0.09857 0.06704 0.45883 0.0
C9 C 0.15202 0.17098 0.42816 0.0
O10 O 0.13279 0.04913 0.43451 0.0
O11 O 0.1737 0.04383 0.4299 0.0
O12 O 0.13607 0.1471 0.4623 0.0
O13 O 0.16512 0.10298 0.45442 0.0
Co14 Co 0.12309 0.10148 0.81075 0.0
O15 O 0.13284 0.05879 0.79707 0.0
O16 O 0.15938 0.09745 0.81037 0.0
C17 C 0.09451 0.13858 0.79725 0.0
O18 O 0.11991 0.15021 0.82553 0.0
Co19 Co 0.06874 0.10292 0.82047 0.0
O20 O 0.07909 0.16161 0.82895 0.0
C21 C 0.1035 0.0309 0.83056 0.0
C22 C 0.15587 0.06897 0.80035 0.0
C23 C 0.10201 0.17251 0.83092 0.0
O24 O 0.12172 0.05058 0.82467 0.0
O25 O 0.08081 0.04467 0.82922 0.0
O26 O 0.1181 0.14871 0.79693 0.0
O27 O 0.08923 0.10422 0.80482 0.0
Co28 Co 0.87474 0.90425 0.56062 0.0
O29 O 0.88453 0.94692 0.54695 0.0
O30 O 0.91103 0.90821 0.56027 0.0
C31 C 0.8462 0.86719 0.54708 0.0
O32 O 0.87149 0.85554 0.57539 0.0
Co33 Co 0.82035 0.90293 0.57028 0.0
O34 O 0.83066 0.84433 0.57884 0.0
C35 C 0.85501 0.97525 0.58024 0.0
C36 C 0.90755 0.93668 0.55024 0.0
C37 C 0.85358 0.83334 0.5808 0.0
O38 O 0.87331 0.9552 0.57452 0.0
O39 O 0.8323 0.96162 0.57881 0.0
O40 O 0.86979 0.85702 0.5468 0.0
O41 O 0.8409 0.90156 0.55465 0.0
Co42 Co 0.88061 0.90697 0.19884 0.0
O43 O 0.87082 0.94945 0.21257 0.0
O44 O 0.84431 0.91095 0.1992 0.0
C45 C 0.90909 0.86961 0.21235 0.0
O46 O 0.88384 0.85845 0.18401 0.0
Co47 Co 0.93501 0.90578 0.18921 0.0
O48 O 0.92463 0.84783 0.18032 0.0
C49 C 0.90025 0.97771 0.17908 0.0
C50 C 0.8478 0.93924 0.20927 0.0
C51 C 0.90172 0.83674 0.1784 0.0
O52 O 0.88203 0.95807 0.18499 0.0
O53 O 0.92294 0.96394 0.18043 0.0
O54 O 0.88549 0.85953 0.21259 0.0
O55 O 0.91446 0.9041 0.20484 0.0
Co56 Co 0.13008 0.60152 0.94889 0.0
O57 O 0.12031 0.55893 0.96259 0.0
O58 O 0.09379 0.5978 0.94931 0.0
C59 C 0.15877 0.6385 0.96235 0.0
O60 O 0.13329 0.65021 0.93411 0.0
Co61 Co 0.18443 0.60254 0.93912 0.0
O62 O 0.17407 0.66084 0.9304 0.0
C63 C 0.14956 0.5305 0.92919 0.0
C64 C 0.09729 0.56936 0.95935 0.0
C65 C 0.15117 0.67205 0.92854 0.0
O66 O 0.13133 0.55059 0.93496 0.0
O67 O 0.17229 0.54399 0.93059 0.0
O68 O 0.1352 0.64875 0.96269 0.0
O69 O 0.16397 0.60409 0.95478 0.0
Co70 Co 0.12246 0.59985 0.31053 0.0
O71 O 0.13207 0.55715 0.29682 0.0
O72 O 0.15873 0.59526 0.31021 0.0
C73 C 0.09414 0.63759 0.29703 0.0
O74 O 0.11943 0.64846 0.32535 0.0
Co75 Co 0.06807 0.60176 0.32017 0.0
O76 O 0.07868 0.65966 0.32902 0.0
C77 C 0.1025 0.52929 0.33024 0.0
C78 C 0.15514 0.56691 0.30016 0.0
C79 C 0.10163 0.67046 0.33094 0.0
O80 O 0.12081 0.54885 0.3244 0.0
O81 O 0.07985 0.54326 0.32887 0.0
O82 O 0.11778 0.64731 0.29676 0.0
O83 O 0.08863 0.60319 0.30453 0.0
Co84 Co 0.87246 0.40715 0.06083 0.0
O85 O 0.88219 0.45014 0.04722 0.0
O86 O 0.90875 0.41114 0.06043 0.0
C87 C 0.84388 0.37034 0.04725 0.0
O88 O 0.86934 0.35809 0.07551 0.0
Co89 Co 0.81811 0.40534 0.07056 0.0
O90 O 0.8286 0.34707 0.07923 0.0
C91 C 0.85287 0.47712 0.08083 0.0
C92 C 0.90522 0.43979 0.05045 0.0
C93 C 0.85153 0.33606 0.08107 0.0
O94 O 0.8711 0.45776 0.07485 0.0
O95 O 0.8302 0.46326 0.07947 0.0
O96 O 0.86747 0.36023 0.04692 0.0
O97 O 0.83859 0.40451 0.0549 0.0
Co98 Co 0.87996 0.40386 0.6988 0.0
O99 O 0.87024 0.44636 0.71254 0.0
O100 O 0.84367 0.40773 0.69925 0.0
C101 C 0.90864 0.36672 0.71223 0.0
O102 O 0.88311 0.35525 0.68399 0.0
Co103 Co 0.93426 0.40278 0.68899 0.0
O104 O 0.92394 0.34408 0.6805 0.0
C105 C 0.89943 0.47499 0.67914 0.0
C106 C 0.84721 0.43607 0.7093 0.0
C107 C 0.90102 0.33304 0.67857 0.0
O108 O 0.88121 0.45491 0.68492 0.0
O109 O 0.92216 0.46141 0.68049 0.0
O110 O 0.88507 0.35651 0.71257 0.0
O111 O 0.91385 0.40118 0.70468 0.0
Co112 Co 0.62945 0.10337 0.94909 0.0
O113 O 0.6197 0.06102 0.96285 0.0
O114 O 0.59314 0.09961 0.94953 0.0
C115 C 0.65814 0.14056 0.9625 0.0
O116 O 0.6327 0.15176 0.93423 0.0
Co117 Co 0.68382 0.10383 0.93935 0.0
O118 O 0.67352 0.16193 0.9305 0.0
C119 C 0.64889 0.03175 0.92957 0.0
C120 C 0.59667 0.07131 0.9596 0.0
C121 C 0.65064 0.1733 0.92862 0.0
O122 O 0.63067 0.05216 0.93526 0.0
O123 O 0.67165 0.04506 0.93098 0.0
O124 O 0.63457 0.15086 0.96282 0.0
O125 O 0.66332 0.10597 0.95499 0.0
Co126 Co 0.62363 0.10055 0.31123 0.0
O127 O 0.6332 0.05745 0.29762 0.0
O128 O 0.65989 0.09631 0.31078 0.0
C129 C 0.59507 0.13748 0.29767 0.0
O130 O 0.6207 0.14969 0.32591 0.0
Co131 Co 0.56936 0.10317 0.32106 0.0
O132 O 0.57996 0.16204 0.32932 0.0
C133 C 0.60399 0.03119 0.3314 0.0
C134 C 0.65627 0.0677 0.3008 0.0
C135 C 0.60295 0.17252 0.33126 0.0
O136 O 0.62221 0.05002 0.32527 0.0
O137 O 0.58139 0.04548 0.33014 0.0
O138 O 0.61867 0.14744 0.29731 0.0
O139 O 0.58973 0.10343 0.30535 0.0
Co140 Co 0.37317 0.90287 0.06108 0.0
O141 O 0.38242 0.94624 0.04748 0.0
O142 O 0.40941 0.90787 0.0606 0.0
C143 C 0.34478 0.86545 0.04755 0.0
O144 O 0.37055 0.8536 0.07575 0.0
Co145 Co 0.31896 0.89939 0.07097 0.0
O146 O 0.32985 0.84043 0.07907 0.0
C147 C 0.35323 0.97198 0.08123 0.0
C148 C 0.40556 0.93652 0.05064 0.0
C149 C 0.35289 0.83031 0.08102 0.0
O150 O 0.37152 0.95332 0.07513 0.0
O151 O 0.33068 0.95739 0.07999 0.0
O152 O 0.36843 0.85596 0.04715 0.0
O153 O 0.33928 0.89938 0.05524 0.0
Co154 Co 0.38026 0.90481 0.69892 0.0
O155 O 0.37065 0.94748 0.71264 0.0
O156 O 0.34398 0.90889 0.69938 0.0
C157 C 0.40893 0.86757 0.71233 0.0
O158 O 0.38326 0.85609 0.68412 0.0
Co159 Co 0.43451 0.9034 0.68904 0.0
O160 O 0.424 0.84511 0.68037 0.0
C161 C 0.39973 0.97562 0.67915 0.0
C162 C 0.34759 0.93733 0.70941 0.0
C163 C 0.40106 0.83408 0.67854 0.0
O164 O 0.38154 0.95576 0.68501 0.0
O165 O 0.42244 0.96191 0.68046 0.0
O166 O 0.38534 0.85753 0.71271 0.0
O167 O 0.41417 0.90196 0.70475 0.0
Co168 Co 0.63081 0.60105 0.44933 0.0
O169 O 0.62097 0.55916 0.4632 0.0
O170 O 0.59451 0.59734 0.44972 0.0
C171 C 0.65947 0.63861 0.46267 0.0
O172 O 0.63415 0.64897 0.43435 0.0
Co173 Co 0.68522 0.60092 0.43966 0.0
O174 O 0.67494 0.65827 0.43037 0.0
C175 C 0.65025 0.52878 0.43001 0.0
C176 C 0.59796 0.56932 0.45986 0.0
C177 C 0.65208 0.66985 0.42853 0.0
O178 O 0.63205 0.54943 0.43564 0.0
O179 O 0.67303 0.54199 0.43141 0.0
O180 O 0.63591 0.64896 0.46293 0.0
O181 O 0.66467 0.60375 0.45528 0.0
Co182 Co 0.62349 0.60287 0.81091 0.0
O183 O 0.63312 0.55977 0.79732 0.0
O184 O 0.65977 0.59836 0.81058 0.0
C185 C 0.59512 0.64006 0.79731 0.0
O186 O 0.62048 0.65198 0.8256 0.0
Co187 Co 0.5691 0.60551 0.82058 0.0
O188 O 0.57969 0.66432 0.82889 0.0
C189 C 0.60351 0.5332 0.83088 0.0
C190 C 0.65618 0.56979 0.80058 0.0
C191 C 0.60267 0.67481 0.83089 0.0
O192 O 0.62185 0.55231 0.82493 0.0
O193 O 0.5809 0.5474 0.82951 0.0
O194 O 0.61875 0.64985 0.797 0.0
O195 O 0.58966 0.60598 0.80495 0.0
Co196 Co 0.37277 0.40532 0.56081 0.0
O197 O 0.38236 0.44787 0.54706 0.0
O198 O 0.40905 0.40996 0.56048 0.0
C199 C 0.34447 0.36742 0.54733 0.0
O200 O 0.36979 0.35684 0.57567 0.0
Co201 Co 0.31841 0.4033 0.57047 0.0
O202 O 0.32904 0.3453 0.57926 0.0
C203 C 0.35275 0.47607 0.58044 0.0
C204 C 0.40544 0.43815 0.55039 0.0
C205 C 0.35201 0.33465 0.5812 0.0
O206 O 0.37108 0.45648 0.57462 0.0
O207 O 0.33012 0.46197 0.57909 0.0
O208 O 0.36812 0.35771 0.54708 0.0
O209 O 0.33894 0.40187 0.55482 0.0
Co210 Co 0.38027 0.40204 0.19923 0.0
O211 O 0.37044 0.44427 0.21301 0.0
O212 O 0.34397 0.40565 0.19965 0.0
C213 C 0.40903 0.36485 0.21259 0.0
O214 O 0.38359 0.35372 0.18436 0.0
Co215 Co 0.43463 0.40204 0.18946 0.0
O216 O 0.42437 0.34427 0.1804 0.0
C217 C 0.39961 0.47408 0.17982 0.0
C218 C 0.34743 0.43395 0.20973 0.0
C219 C 0.40152 0.33261 0.17861 0.0
O220 O 0.38142 0.45333 0.18542 0.0
O221 O 0.42241 0.46101 0.18125 0.0
O222 O 0.38548 0.35449 0.21293 0.0
O223 O 0.41415 0.39954 0.20512 0.0
H224 H 0.35175 0.29522 0.53045 0.0
H225 H 0.32045 0.25573 0.51599 0.0
H226 H 0.26278 0.34289 0.53097 0.0
H227 H 0.29396 0.38226 0.5456 0.0
H228 H 0.24944 0.25013 0.52976 0.0
H229 H 0.28744 0.30834 0.48119 0.0
H230 H 0.30984 0.28035 0.4924 0.0
H231 H 0.29652 0.33392 0.49728 0.0
C232 C 0.3324 0.30593 0.5307 0.0
C233 C 0.32534 0.34207 0.5391 0.0
C234 C 0.31456 0.28351 0.52236 0.0
C235 C 0.28937 0.29695 0.5222 0.0
C236 C 0.28216 0.33221 0.53085 0.0
H237 H 0.1526 0.20897 0.47908 0.0
H238 H 0.18402 0.24788 0.49361 0.0
C239 C 0.29999 0.35466 0.5392 0.0
C240 C 0.27051 0.27412 0.51307 0.0
H241 H 0.25501 0.25318 0.47973 0.0
C242 C 0.25058 0.25094 0.51882 0.0
C243 C 0.27207 0.27517 0.49879 0.0
C244 C 0.29248 0.3011 0.49201 0.0
C245 C 0.23239 0.22811 0.5107 0.0
C246 C 0.23393 0.22921 0.49642 0.0
C247 C 0.25388 0.25234 0.49067 0.0
C248 C 0.215 0.2066 0.48728 0.0
C249 C 0.21199 0.20215 0.51748 0.0
C250 C 0.22211 0.17152 0.47855 0.0
C251 C 0.20421 0.1494 0.47015 0.0
C252 C 0.17888 0.16218 0.4703 0.0
C253 C 0.17193 0.19813 0.4788 0.0
C254 C 0.18983 0.22021 0.48718 0.0
H255 H 0.2171 0.19472 0.52828 0.0
H256 H 0.19466 0.22299 0.51716 0.0
H257 H 0.20787 0.16943 0.51217 0.0
H258 H 0.24146 0.16072 0.47839 0.0
H259 H 0.21016 0.12193 0.46369 0.0
H260 H 0.95721 0.9119 0.5518 0.0
H261 H 0.99003 0.93485 0.5365 0.0
H262 H 0.93725 0.02114 0.51449 0.0
H263 H 0.90463 0.99894 0.52974 0.0
H264 H 0.98966 0.92179 0.50841 0.0
H265 H 0.99683 0.1062 0.52056 0.0
H266 H 0.98162 0.06598 0.53137 0.0
H267 H 0.96547 0.08771 0.51639 0.0
C268 C 0.95273 0.93638 0.54385 0.0
C269 C 0.92831 0.95373 0.54205 0.0
C270 C 0.97148 0.94931 0.53507 0.0
C271 C 0.96622 0.98016 0.52442 0.0
C272 C 0.94195 0.99805 0.52277 0.0
H273 H 0.04887 0.0914 0.4573 0.0
H274 H 0.01614 0.0682 0.47264 0.0
C275 C 0.92325 0.98511 0.53149 0.0
C276 C 0.98558 0.99183 0.51454 0.0
H277 H 0.01671 0.08136 0.50073 0.0
C278 C 0.99571 0.95664 0.50681 0.0
C279 C 0.99335 0.03736 0.51235 0.0
C280 C 0.98395 0.07646 0.52069 0.0
C281 C 0.01303 0.96579 0.4968 0.0
C282 C 0.02078 0.01132 0.49459 0.0
C283 C 0.01065 0.04651 0.50234 0.0
C284 C 0.04008 0.02303 0.48469 0.0
C285 C 0.02244 0.92669 0.48846 0.0
C286 C 0.06438 0.00528 0.48631 0.0
C287 C 0.08303 0.01837 0.47757 0.0
C288 C 0.07788 0.04976 0.46703 0.0
C289 C 0.05342 0.06692 0.46525 0.0
C290 C 0.03473 0.05385 0.47404 0.0
H291 H 0.0096 0.89689 0.48861 0.0
H292 H 0.02469 0.93715 0.47777 0.0
H293 H 0.04095 0.91556 0.49273 0.0
H294 H 0.06915 0.9822 0.49459 0.0
H295 H 0.10169 0.00467 0.47932 0.0
H296 H 0.29771 0.9142 0.70758 0.0
H297 H 0.2649 0.93751 0.72285 0.0
H298 H 0.31829 0.02072 0.74551 0.0
H299 H 0.3509 0.99823 0.73028 0.0
H300 H 0.26445 0.92303 0.75076 0.0
H301 H 0.25996 0.1084 0.73964 0.0
H302 H 0.27499 0.06825 0.72874 0.0
H303 H 0.29097 0.08841 0.74396 0.0
C304 C 0.30234 0.93808 0.71567 0.0
C305 C 0.32692 0.95451 0.71765 0.0
C306 C 0.2836 0.95122 0.72443 0.0
C307 C 0.28902 0.98133 0.73525 0.0
C308 C 0.31346 0.99825 0.73709 0.0
H309 H 0.20574 0.09222 0.80225 0.0
H310 H 0.23865 0.06887 0.78705 0.0
C311 C 0.33215 0.98513 0.72838 0.0
C312 C 0.2696 0.99324 0.74507 0.0
H313 H 0.23924 0.08319 0.75916 0.0
C314 C 0.2588 0.95802 0.75252 0.0
C315 C 0.26236 0.03895 0.74748 0.0
C316 C 0.27248 0.07817 0.73945 0.0
C317 C 0.24134 0.96728 0.76244 0.0
C318 C 0.23409 0.01298 0.76485 0.0
C319 C 0.2449 0.0482 0.7574 0.0
C320 C 0.21463 0.02488 0.77464 0.0
C321 C 0.23122 0.92805 0.77047 0.0
C322 C 0.1902 0.00789 0.77278 0.0
C323 C 0.17146 0.02103 0.78145 0.0
C324 C 0.17661 0.05176 0.79217 0.0
C325 C 0.20117 0.06826 0.79417 0.0
C326 C 0.21997 0.05509 0.78545 0.0
H327 H 0.24379 0.89787 0.77031 0.0
H328 H 0.22865 0.938 0.78118 0.0
H329 H 0.21277 0.91772 0.76594 0.0
H330 H 0.18543 0.98535 0.76437 0.0
H331 H 0.15273 0.00787 0.77953 0.0
H332 H 0.10124 0.21027 0.78009 0.0
H333 H 0.06944 0.24955 0.76588 0.0
H334 H 0.01243 0.16228 0.78149 0.0
H335 H 0.04407 0.12319 0.79586 0.0
H336 H 0.03787 0.21123 0.7457 0.0
H337 H 0.98299 0.29001 0.78611 0.0
H338 H 0.014 0.26707 0.78931 0.0
H339 H 0.98745 0.22951 0.7879 0.0
C340 C 0.08189 0.19972 0.7806 0.0
C341 C 0.07514 0.16371 0.78913 0.0
C342 C 0.06376 0.22213 0.77245 0.0
C343 C 0.03853 0.20921 0.77273 0.0
C344 C 0.03172 0.17341 0.78129 0.0
H345 H 0.90206 0.29488 0.72934 0.0
H346 H 0.93394 0.25564 0.74351 0.0
C347 C 0.04984 0.15096 0.78945 0.0
C348 C 0.01951 0.23205 0.7637 0.0
H349 H 0.96548 0.29419 0.76367 0.0
C350 C 0.0221 0.22958 0.74962 0.0
C351 C 0.99892 0.25584 0.76884 0.0
C352 C 0.99571 0.26123 0.78387 0.0
C353 C 0.00443 0.24959 0.74053 0.0
C354 C 0.98383 0.27337 0.74567 0.0
C355 C 0.98125 0.27585 0.75975 0.0
C356 C 0.96478 0.29613 0.73664 0.0
C357 C 0.00764 0.24423 0.7255 0.0
C358 C 0.97153 0.33198 0.72809 0.0
C359 C 0.95336 0.35442 0.71996 0.0
C360 C 0.92807 0.34158 0.7203 0.0
C361 C 0.92139 0.3055 0.72882 0.0
C362 C 0.93957 0.2831 0.73694 0.0
H363 H 0.0204 0.21552 0.72326 0.0
H364 H 0.98936 0.23829 0.72006 0.0
H365 H 0.01584 0.276 0.72147 0.0
H366 H 0.99081 0.34318 0.72788 0.0
H367 H 0.95908 0.38224 0.71356 0.0
H368 H 0.85298 0.79524 0.53003 0.0
H369 H 0.82132 0.75642 0.51562 0.0
H370 H 0.76425 0.84421 0.53095 0.0
H371 H 0.79578 0.8829 0.54552 0.0
H372 H 0.75052 0.75186 0.52978 0.0
H373 H 0.78793 0.8094 0.481 0.0
H374 H 0.81041 0.78107 0.49208 0.0
H375 H 0.79742 0.83482 0.49705 0.0
C376 C 0.83368 0.80623 0.53036 0.0
C377 C 0.82689 0.84232 0.53885 0.0
C378 C 0.81564 0.78421 0.52205 0.0
C379 C 0.79051 0.79801 0.52202 0.0
C380 C 0.78358 0.83326 0.53074 0.0
H381 H 0.65286 0.71125 0.47948 0.0
H382 H 0.6846 0.75031 0.49377 0.0
C383 C 0.80161 0.85532 0.53906 0.0
C384 C 0.77142 0.77545 0.51297 0.0
H385 H 0.75533 0.75449 0.4797 0.0
C386 C 0.75149 0.75259 0.51883 0.0
C387 C 0.77275 0.77642 0.49869 0.0
C388 C 0.79314 0.80207 0.49179 0.0
C389 C 0.73309 0.72996 0.5108 0.0
C390 C 0.73443 0.73092 0.49651 0.0
C391 C 0.75436 0.75377 0.49065 0.0
C392 C 0.71533 0.70834 0.48748 0.0
C393 C 0.71269 0.70435 0.51768 0.0
C394 C 0.7222 0.6728 0.47884 0.0
C395 C 0.70412 0.65058 0.4706 0.0
C396 C 0.67886 0.66371 0.47078 0.0
C397 C 0.67214 0.70014 0.47917 0.0
C398 C 0.69022 0.72231 0.48741 0.0
H399 H 0.71784 0.69716 0.52849 0.0
H400 H 0.6954 0.7253 0.51734 0.0
H401 H 0.70846 0.67152 0.51245 0.0
H402 H 0.7415 0.66172 0.47867 0.0
H403 H 0.70989 0.62274 0.46421 0.0
H404 H 0.70593 0.0924 0.30219 0.0
H405 H 0.73834 0.07066 0.28648 0.0
H406 H 0.68552 0.98346 0.26485 0.0
H407 H 0.65312 0.00527 0.28032 0.0
H408 H 0.7583 0.98526 0.27944 0.0
H409 H 0.71001 0.0666 0.23489 0.0
H410 H 0.70126 0.07761 0.25205 0.0
H411 H 0.69112 0.02618 0.24353 0.0
C412 C 0.7013 0.06826 0.29417 0.0
C413 C 0.67687 0.05084 0.29247 0.0
C414 C 0.71982 0.05596 0.28517 0.0
C415 C 0.71422 0.02624 0.27428 0.0
C416 C 0.69014 0.00734 0.27294 0.0
H417 H 0.79817 0.91418 0.20777 0.0
H418 H 0.7656 0.93561 0.22342 0.0
C419 C 0.67167 0.01961 0.28189 0.0
C420 C 0.73339 0.01511 0.26425 0.0
H421 H 0.74542 0.02088 0.23051 0.0
C422 C 0.75555 0.99327 0.26876 0.0
C423 C 0.72977 0.02542 0.25028 0.0
C424 C 0.70687 0.05062 0.24488 0.0
C425 C 0.77394 0.9807 0.25967 0.0
C426 C 0.77033 0.99104 0.2457 0.0
C427 C 0.74816 0.01285 0.24119 0.0
C428 C 0.78957 0.98012 0.23569 0.0
C429 C 0.79684 0.95551 0.26507 0.0
C430 C 0.81359 0.99918 0.23708 0.0
C431 C 0.83215 0.98708 0.22817 0.0
C432 C 0.82708 0.95587 0.21757 0.0
C433 C 0.80269 0.9383 0.21581 0.0
C434 C 0.78409 0.95042 0.22478 0.0
H435 H 0.79367 0.93941 0.27505 0.0
H436 H 0.8025 0.92861 0.25789 0.0
H437 H 0.81257 0.97997 0.26646 0.0
H438 H 0.81812 0.02304 0.24519 0.0
H439 H 0.85066 1.00154 0.22978 0.0
H440 H 0.90205 0.79763 0.22933 0.0
H441 H 0.93352 0.75838 0.24374 0.0
H442 H 0.99094 0.84564 0.22856 0.0
H443 H 0.95958 0.88481 0.21397 0.0
H444 H 0.00426 0.75275 0.22969 0.0
H445 H 0.967 0.8111 0.27843 0.0
H446 H 0.94439 0.78328 0.2673 0.0
H447 H 0.95776 0.83675 0.26237 0.0
C448 C 0.92138 0.80842 0.22903 0.0
C449 C 0.92832 0.84451 0.22058 0.0
C450 C 0.93931 0.78615 0.23734 0.0
C451 C 0.96449 0.79967 0.23742 0.0
C452 C 0.97157 0.83491 0.22873 0.0
H453 H 0.10139 0.70968 0.28011 0.0
H454 H 0.07004 0.74938 0.26574 0.0
C455 C 0.95364 0.85724 0.22041 0.0
C456 C 0.98345 0.77682 0.24648 0.0
H457 H 0.99924 0.75547 0.27976 0.0
C458 C 0.00325 0.75351 0.24064 0.0
C459 C 0.98205 0.77781 0.26076 0.0
C460 C 0.9618 0.8039 0.26763 0.0
C461 C 0.02144 0.73042 0.24869 0.0
C462 C 0.02004 0.73139 0.26298 0.0
C463 C 1.00025 0.75473 0.26881 0.0
C464 C 0.03894 0.70835 0.27204 0.0
C465 C 0.04168 0.7043 0.24182 0.0
C466 C 0.03175 0.67313 0.2807 0.0
C467 C 0.04962 0.65055 0.289 0.0
C468 C 0.07499 0.663 0.28883 0.0
C469 C 0.08203 0.69909 0.2804 0.0
C470 C 0.06416 0.72163 0.27212 0.0
H471 H 0.0365 0.69717 0.23102 0.0
H472 H 0.05912 0.72486 0.24216 0.0
H473 H 0.04568 0.67141 0.24707 0.0
H474 H 0.01236 0.66258 0.28087 0.0
H475 H 0.0436 0.62298 0.29541 0.0
H476 H 0.29419 0.87921 0.04643 0.0
H477 H 0.26271 0.83954 0.03207 0.0
H478 H 0.32047 0.75593 0.0156 0.0
H479 H 0.35198 0.79499 0.03002 0.0
H480 H 0.26033 0.83488 1.00376 0.0
H481 H 0.26848 0.66169 0.02631 0.0
H482 H 0.28112 0.71185 0.03472 0.0
H483 H 0.29761 0.68548 0.02128 0.0
C484 C 0.30015 0.85208 0.03984 0.0
C485 C 0.32556 0.84013 0.03938 0.0
C486 C 0.28216 0.82952 0.03163 0.0
C487 C 0.28919 0.79441 0.02288 0.0
C488 C 0.31454 0.78228 0.02246 0.0
H489 H 0.20927 0.62364 0.96344 0.0
H490 H 0.24107 0.66305 0.97766 0.0
C491 C 0.33254 0.8048 0.03067 0.0
C492 C 0.27017 0.77178 0.0138 0.0
H493 H 0.24397 0.66839 0.00583 0.0
C494 C 0.25664 0.79852 1.00425 0.0
C495 C 0.2655 0.7243 0.01442 0.0
C496 C 0.27876 0.69414 0.02481 0.0
C497 C 0.23883 0.77896 0.99515 0.0
C498 C 0.23411 0.7315 0.99579 0.0
C499 C 0.24767 0.70475 0.00533 0.0
C500 C 0.21492 0.70895 0.9868 0.0
C501 C 0.22563 0.80914 0.98475 0.0
C502 C 0.18965 0.72158 0.98724 0.0
C503 C 0.17147 0.69924 0.9791 0.0
C504 C 0.17819 0.66356 0.97045 0.0
C505 C 0.20352 0.65106 0.96998 0.0
C506 C 0.2217 0.67347 0.97811 0.0
H507 H 0.23609 0.84133 0.98314 0.0
H508 H 0.22304 0.79127 0.97487 0.0
H509 H 0.20689 0.81831 0.98834 0.0
H510 H 0.18391 0.74821 0.99406 0.0
H511 H 0.1521 0.70947 0.97976 0.0
H512 H 0.04769 0.59461 0.9579 0.0
H513 H 0.01511 0.57305 0.97353 0.0
H514 H 0.06757 0.48527 0.99521 0.0
H515 H 0.10014 0.50692 0.97983 0.0
H516 H 0.99486 0.48791 0.98042 0.0
H517 H 0.04301 0.568 0.02521 0.0
H518 H 0.05197 0.57914 0.00809 0.0
H519 H 0.0619 0.52753 0.01658 0.0
C520 C 0.0522 0.5704 0.96592 0.0
C521 C 0.07658 0.55276 0.96766 0.0
C522 C 0.03359 0.5582 0.97487 0.0
C523 C 0.03904 0.52835 0.98575 0.0
C524 C 0.06306 0.50926 0.98713 0.0
H525 H 0.95485 0.41478 0.05187 0.0
H526 H 0.9874 0.43673 0.03627 0.0
C527 C 0.08163 0.52144 0.97823 0.0
C528 C 0.01975 0.51722 0.99571 0.0
H529 H 0.00756 0.52214 0.02945 0.0
C530 C 0.99757 0.49563 0.99112 0.0
C531 C 0.02331 0.52716 0.00971 0.0
C532 C 0.04622 0.55211 0.01521 0.0
C533 C 0.97911 0.48291 1.00016 0.0
C534 C 0.98268 0.49282 0.01415 0.0
C535 C 0.00485 0.51443 0.01874 0.0
C536 C 0.96342 0.48155 0.02412 0.0
C537 C 0.9562 0.45798 0.99466 0.0
C538 C 0.93938 0.50059 0.02278 0.0
C539 C 0.92083 0.48818 0.03166 0.0
C540 C 0.92591 0.45669 0.04218 0.0
C541 C 0.95031 0.43912 0.04389 0.0
C542 C 0.96891 0.45154 0.03496 0.0
H543 H 0.95937 0.44221 0.98464 0.0
H544 H 0.95049 0.43086 1.00175 0.0
H545 H 0.9405 0.48254 0.99333 0.0
H546 H 0.93485 0.52469 0.01473 0.0
H547 H 0.9023 0.50265 0.03008 0.0
H548 H 0.29756 0.41074 0.20772 0.0
H549 H 0.26454 0.43402 0.22287 0.0
H550 H 0.31771 0.51693 0.24579 0.0
H551 H 0.35051 0.49449 0.23068 0.0
H552 H 0.26354 0.4196 0.25076 0.0
H553 H 0.25967 0.60497 0.23963 0.0
H554 H 0.27482 0.56471 0.22881 0.0
H555 H 0.29059 0.58485 0.24411 0.0
C556 C 0.30209 0.43453 0.21585 0.0
C557 C 0.32666 0.45092 0.21793 0.0
C558 C 0.28323 0.44766 0.22454 0.0
C559 C 0.28853 0.47772 0.23539 0.0
C560 C 0.31298 0.49452 0.23734 0.0
H561 H 0.20511 0.58933 0.30217 0.0
H562 H 0.23801 0.56551 0.28702 0.0
C563 C 0.33177 0.48143 0.2287 0.0
C564 C 0.26898 0.48977 0.24511 0.0
H565 H 0.23875 0.58001 0.25913 0.0
C566 C 0.25798 0.45465 0.25252 0.0
C567 C 0.26184 0.53554 0.2475 0.0
C568 C 0.27215 0.57467 0.23951 0.0
C569 C 0.24044 0.46407 0.26239 0.0
C570 C 0.23333 0.50985 0.26479 0.0
C571 C 0.24431 0.54496 0.25737 0.0
C572 C 0.21385 0.52198 0.27455 0.0
C573 C 0.23009 0.42495 0.27037 0.0
C574 C 0.18936 0.50539 0.27263 0.0
C575 C 0.17062 0.5188 0.28127 0.0
C576 C 0.17585 0.5494 0.292 0.0
C577 C 0.20048 0.56548 0.29407 0.0
C578 C 0.21927 0.55205 0.28538 0.0
H579 H 0.24251 0.39457 0.27021 0.0
H580 H 0.22751 0.43486 0.28108 0.0
H581 H 0.21161 0.41494 0.2658 0.0
H582 H 0.18453 0.48296 0.2642 0.0
H583 H 0.15183 0.50596 0.2793 0.0
H584 H 0.70863 0.1256 0.96361 0.0
H585 H 0.74039 0.16472 0.97791 0.0
H586 H 0.68334 0.25049 0.99415 0.0
H587 H 0.65152 0.21197 0.97976 0.0
H588 H 0.72617 0.29839 0.98723 0.0
H589 H 0.75086 0.14706 0.01889 0.0
H590 H 0.7531 0.13811 1.00098 0.0
H591 H 0.72311 0.1492 0.00788 0.0
C592 C 0.70286 0.15287 0.97021 0.0
C593 C 0.67755 0.16552 0.97063 0.0
C594 C 0.72101 0.17498 0.97843 0.0
C595 C 0.71416 0.20992 0.98729 0.0
C596 C 0.689 0.2234 0.98746 0.0
H597 H 0.79339 0.38524 0.04604 0.0
H598 H 0.76174 0.34632 0.03162 0.0
C599 C 0.67085 0.20135 0.97923 0.0
C600 C 0.73321 0.23263 0.99633 0.0
H601 H 0.77611 0.21291 0.02225 0.0
C602 C 0.73703 0.27977 0.99492 0.0
C603 C 0.74735 0.20824 0.00636 0.0
C604 C 0.74331 0.15794 0.00875 0.0
C605 C 0.75494 0.30306 1.00311 0.0
C606 C 0.76907 0.27866 0.01315 0.0
C607 C 0.76526 0.23152 0.01455 0.0
C608 C 0.78807 0.30138 0.02222 0.0
C609 C 0.75896 0.35337 1.00075 0.0
C610 C 0.81325 0.28801 0.02205 0.0
C611 C 0.83133 0.30996 0.03035 0.0
C612 C 0.82454 0.34556 0.03902 0.0
C613 C 0.79922 0.35814 0.03941 0.0
C614 C 0.78114 0.33614 0.03111 0.0
H615 H 0.7514 0.36427 0.99061 0.0
H616 H 0.74917 0.37316 0.00852 0.0
H617 H 0.77916 0.36212 1.00161 0.0
H618 H 0.81897 0.26106 0.01533 0.0
H619 H 0.85068 0.2994 0.02984 0.0
H620 H 0.70622 0.59173 0.80273 0.0
H621 H 0.73903 0.56882 0.78743 0.0
H622 H 0.68549 0.48741 0.76427 0.0
H623 H 0.65285 0.50944 0.77956 0.0
H624 H 0.73068 0.44332 0.76846 0.0
H625 H 0.74535 0.61889 0.74915 0.0
H626 H 0.74926 0.61323 0.76722 0.0
H627 H 0.71901 0.60392 0.7591 0.0
C628 C 0.70151 0.56857 0.79447 0.0
C629 C 0.67686 0.55263 0.79235 0.0
C630 C 0.72023 0.55584 0.78564 0.0
C631 C 0.71463 0.52713 0.77451 0.0
C632 C 0.69026 0.50983 0.77271 0.0
H633 H 0.79723 0.4136 0.70721 0.0
H634 H 0.76441 0.4361 0.72255 0.0
C635 C 0.6716 0.52249 0.7815 0.0
C636 C 0.73391 0.51534 0.76459 0.0
H637 H 0.77266 0.56161 0.74154 0.0
C638 C 0.73982 0.46918 0.76255 0.0
C639 C 0.74577 0.54905 0.75682 0.0
C640 C 0.73942 0.59903 0.75805 0.0
C641 C 0.75757 0.45588 0.75317 0.0
C642 C 0.76944 0.48959 0.74541 0.0
C643 C 0.76352 0.53575 0.74745 0.0
C644 C 0.78875 0.47784 0.7355 0.0
C645 C 0.76392 0.4059 0.75194 0.0
C646 C 0.81308 0.49526 0.7373 0.0
C647 C 0.83175 0.48283 0.72849 0.0
C648 C 0.82652 0.45281 0.7176 0.0
C649 C 0.80191 0.43667 0.7155 0.0
C650 C 0.78318 0.44918 0.72434 0.0
H651 H 0.75797 0.38602 0.76083 0.0
H652 H 0.7541 0.39171 0.74276 0.0
H653 H 0.78434 0.40101 0.7509 0.0
H654 H 0.81783 0.51764 0.74575 0.0
H655 H 0.85047 0.49602 0.73042 0.0
H656 H 0.54691 0.0956 0.95802 0.0
H657 H 0.51433 0.07355 0.9736 0.0
H658 H 0.56723 0.9874 0.99556 0.0
H659 H 0.59977 0.00946 0.98022 0.0
H660 H 0.49479 0.98747 0.98061 0.0
H661 H 0.54164 0.07046 0.0253 0.0
H662 H 0.55056 0.08162 0.00818 0.0
H663 H 0.56108 0.03061 0.01679 0.0
C664 C 0.55152 0.07164 0.96609 0.0
C665 C 0.576 0.05456 0.96791 0.0
C666 C 0.53291 0.05917 0.97502 0.0
C667 C 0.53848 0.02962 0.98595 0.0
C668 C 0.56262 0.01113 0.98742 0.0
H669 H 0.45548 0.91351 0.05208 0.0
H670 H 0.48776 0.93671 0.03647 0.0
C671 C 0.58118 0.02355 0.97855 0.0
C672 C 0.5192 0.01812 0.99588 0.0
H673 H 0.50676 0.02317 0.02958 0.0
C674 C 0.49732 0.99553 0.9913 0.0
C675 C 0.52254 0.02851 0.00986 0.0
C676 C 0.5451 0.05451 0.01534 0.0
C677 C 0.47898 0.98218 1.00033 0.0
C678 C 0.48235 0.99247 0.01431 0.0
C679 C 0.5042 0.01516 0.01889 0.0
C680 C 0.46323 0.98044 0.02428 0.0
C681 C 0.45643 0.95616 0.99484 0.0
C682 C 0.43896 0.99844 0.02291 0.0
C683 C 0.42056 0.98534 0.0318 0.0
C684 C 0.42603 0.95414 0.04235 0.0
C685 C 0.45064 0.93759 0.04407 0.0
C686 C 0.46909 0.95073 0.03513 0.0
H687 H 0.45982 0.94048 0.98484 0.0
H688 H 0.4511 0.92883 1.00197 0.0
H689 H 0.44039 0.97998 0.9935 0.0
H690 H 0.43413 0.02228 0.01483 0.0
H691 H 0.40186 0.99903 0.03021 0.0
H692 H 0.45946 0.38051 0.21387 0.0
H693 H 0.49126 0.3415 0.22816 0.0
H694 H 0.43453 0.25372 0.24381 0.0
H695 H 0.40257 0.29287 0.22967 0.0
H696 H 0.46609 0.29276 0.26396 0.0
H697 H 0.52095 0.21372 0.22357 0.0
H698 H 0.51625 0.27415 0.22173 0.0
H699 H 0.48985 0.23625 0.22039 0.0
C700 C 0.45379 0.35264 0.22027 0.0
C701 C 0.42852 0.33972 0.22063 0.0
C702 C 0.472 0.33024 0.22838 0.0
C703 C 0.46531 0.29434 0.23693 0.0
C704 C 0.44011 0.28122 0.23724 0.0
H705 H 0.54462 0.12224 0.29633 0.0
H706 H 0.513 0.16114 0.28191 0.0
C707 C 0.42189 0.30356 0.22913 0.0
C708 C 0.48439 0.2717 0.24597 0.0
H709 H 0.53841 0.20952 0.24601 0.0
C710 C 0.48185 0.27436 0.26004 0.0
C711 C 0.50496 0.24787 0.24083 0.0
C712 C 0.50814 0.24237 0.2258 0.0
C713 C 0.49954 0.25446 0.26914 0.0
C714 C 0.5201 0.23057 0.264 0.0
C715 C 0.52266 0.22794 0.24993 0.0
C716 C 0.53913 0.20779 0.27305 0.0
C717 C 0.49637 0.26006 0.28416 0.0
C718 C 0.56437 0.22059 0.27272 0.0
C719 C 0.5825 0.19827 0.2809 0.0
C720 C 0.57572 0.16249 0.28951 0.0
C721 C 0.55041 0.14984 0.28987 0.0
C722 C 0.53229 0.17219 0.28168 0.0
H723 H 0.48372 0.28894 0.28638 0.0
H724 H 0.48807 0.22845 0.28824 0.0
H725 H 0.51469 0.26587 0.28959 0.0
H726 H 0.57007 0.24785 0.2661 0.0
H727 H 0.60185 0.20873 0.28037 0.0
H728 H 0.45948 0.88186 0.71327 0.0
H729 H 0.49128 0.84224 0.72744 0.0
H730 H 0.43401 0.75784 0.74404 0.0
H731 H 0.4022 0.7968 0.72979 0.0
H732 H 0.49439 0.83721 0.75559 0.0
H733 H 0.48581 0.66403 0.73312 0.0
H734 H 0.47282 0.7141 0.72483 0.0
H735 H 0.45674 0.68743 0.73838 0.0
C736 C 0.4537 0.85456 0.71984 0.0
C737 C 0.42835 0.84234 0.72038 0.0
C738 C 0.47188 0.83202 0.72795 0.0
C739 C 0.46507 0.79669 0.73667 0.0
C740 C 0.43977 0.78434 0.73719 0.0
H741 H 0.54454 0.62627 0.79621 0.0
H742 H 0.51301 0.66593 0.78188 0.0
C743 C 0.42159 0.80681 0.72908 0.0
C744 C 0.48427 0.77407 0.74565 0.0
H745 H 0.51029 0.67054 0.75365 0.0
C746 C 0.49799 0.80081 0.75512 0.0
C747 C 0.48886 0.72655 0.74505 0.0
C748 C 0.47546 0.69635 0.73472 0.0
C749 C 0.51584 0.78121 0.76419 0.0
C750 C 0.5204 0.73368 0.7636 0.0
C751 C 0.50671 0.70694 0.75412 0.0
C752 C 0.53946 0.71099 0.77265 0.0
C753 C 0.52926 0.8114 0.77451 0.0
C754 C 0.56481 0.72307 0.77219 0.0
C755 C 0.58284 0.70058 0.78039 0.0
C756 C 0.57588 0.6653 0.78913 0.0
C757 C 0.55048 0.65336 0.78961 0.0
C758 C 0.53246 0.67592 0.78141 0.0
H759 H 0.51902 0.84388 0.77604 0.0
H760 H 0.53174 0.79375 0.78443 0.0
H761 H 0.54806 0.82 0.7709 0.0
H762 H 0.57072 0.74938 0.76531 0.0
H763 H 0.60227 0.71037 0.77972 0.0
H764 H 0.4555 0.41655 0.55262 0.0
H765 H 0.48843 0.44008 0.53745 0.0
H766 H 0.43473 0.52058 0.51411 0.0
H767 H 0.40201 0.49792 0.52924 0.0
H768 H 0.48968 0.42414 0.50973 0.0
H769 H 0.49203 0.61029 0.51975 0.0
H770 H 0.47706 0.57041 0.53076 0.0
H771 H 0.46131 0.58912 0.5153 0.0
C772 C 0.45083 0.4399 0.5444 0.0
C773 C 0.42613 0.45551 0.5422 0.0
C774 C 0.46964 0.45317 0.5357 0.0
C775 C 0.46416 0.48259 0.52472 0.0
C776 C 0.4396 0.49869 0.52266 0.0
H777 H 0.54797 0.59164 0.45761 0.0
H778 H 0.51491 0.56861 0.47277 0.0
C779 C 0.42084 0.48547 0.53131 0.0
C780 C 0.48367 0.49452 0.51495 0.0
H781 H 0.51341 0.58452 0.5005 0.0
C782 C 0.495 0.45919 0.50779 0.0
C783 C 0.49048 0.54029 0.51231 0.0
C784 C 0.47977 0.57971 0.52002 0.0
C785 C 0.51259 0.46836 0.49792 0.0
C786 C 0.51942 0.51413 0.49529 0.0
C787 C 0.50808 0.54947 0.50244 0.0
C788 C 0.53902 0.52599 0.48556 0.0
C789 C 0.52328 0.42893 0.4902 0.0
C790 C 0.56354 0.50972 0.48767 0.0
C791 C 0.58235 0.52265 0.47902 0.0
C792 C 0.57718 0.55249 0.46809 0.0
C793 C 0.55254 0.56837 0.46586 0.0
C794 C 0.53367 0.55538 0.47456 0.0
H795 H 0.51097 0.39842 0.49044 0.0
H796 H 0.52607 0.43827 0.47947 0.0
H797 H 0.5417 0.41938 0.49495 0.0
H798 H 0.56832 0.48786 0.49623 0.0
H799 H 0.60114 0.51 0.48112 0.0
H800 H 0.148 0.70362 0.33943 0.0
H801 H 0.15702 0.76395 0.35621 0.0
H802 H 0.07801 0.78395 0.3608 0.0
H803 H 0.06877 0.72414 0.34425 0.0
H804 H 0.14095 0.85785 0.35626 0.0
H805 H 0.10529 0.76175 0.3999 0.0
H806 H 0.11261 0.73452 0.38414 0.0
H807 H 0.08373 0.76523 0.38551 0.0
C808 C 0.13254 0.72091 0.34399 0.0
C809 C 0.10765 0.70857 0.34052 0.0
C810 C 0.13773 0.75536 0.35358 0.0
C811 C 0.11818 0.77781 0.35995 0.0
C812 C 0.0934 0.76642 0.35625 0.0
H813 H 0.10549 0.99244 0.42051 0.0
H814 H 0.09759 0.93153 0.40382 0.0
C815 C 0.08818 0.73224 0.34669 0.0
C816 C 0.12344 0.81344 0.3704 0.0
H817 H 0.11438 0.84026 0.40355 0.0
C818 C 0.13533 0.85391 0.36662 0.0
C819 C 0.11591 0.80836 0.38391 0.0
C820 C 0.10387 0.76498 0.38868 0.0
C821 C 0.13944 0.88981 0.37591 0.0
C822 C 0.13189 0.88474 0.38942 0.0
C823 C 0.12006 0.8442 0.3932 0.0
C824 C 0.13662 0.92075 0.39983 0.0
C825 C 0.15126 0.93332 0.37107 0.0
C826 C 0.16118 0.93408 0.40339 0.0
C827 C 0.16577 0.96871 0.4129 0.0
C828 C 0.14588 0.99078 0.41918 0.0
C829 C 0.12127 0.97637 0.41589 0.0
C830 C 0.11671 0.94159 0.40633 0.0
H831 H 0.14962 0.93656 0.35986 0.0
H832 H 0.14252 0.96371 0.37566 0.0
H833 H 0.17145 0.93326 0.37413 0.0
H834 H 0.17688 0.91775 0.39877 0.0
H835 H 0.185 0.97843 0.41521 0.0
H836 H 0.10558 0.20224 0.41911 0.0
H837 H 0.09652 0.26235 0.40227 0.0
H838 H 0.17549 0.28638 0.39891 0.0
H839 H 0.18478 0.22674 0.41552 0.0
H840 H 0.11089 0.35679 0.4024 0.0
H841 H 0.15085 0.26308 0.35948 0.0
H842 H 0.14323 0.23539 0.37512 0.0
H843 H 0.1716 0.26792 0.37417 0.0
C844 C 0.12102 0.2204 0.41482 0.0
C845 C 0.14592 0.20918 0.41862 0.0
C846 C 0.1158 0.25472 0.40519 0.0
C847 C 0.13535 0.27819 0.39913 0.0
C848 C 0.16013 0.26802 0.40321 0.0
H849 H 0.14811 0.4936 0.3389 0.0
H850 H 0.15591 0.4328 0.35562 0.0
C851 C 0.16536 0.23393 0.41279 0.0
C852 C 0.13009 0.31356 0.3886 0.0
H853 H 0.14064 0.34107 0.35566 0.0
C854 C 0.11721 0.35325 0.39215 0.0
C855 C 0.1385 0.30899 0.37525 0.0
C856 C 0.15162 0.2664 0.3707 0.0
C857 C 0.113 0.38893 0.3828 0.0
C858 C 0.12145 0.38439 0.36945 0.0
C859 C 0.13425 0.34461 0.36589 0.0
C860 C 0.11678 0.42023 0.35897 0.0
C861 C 0.10009 0.43167 0.38741 0.0
C862 C 0.09223 0.43249 0.35502 0.0
C863 C 0.0877 0.4671 0.34549 0.0
C864 C 0.10766 0.49017 0.33958 0.0
C865 C 0.13229 0.47674 0.34323 0.0
C866 C 0.13679 0.44203 0.35282 0.0
H867 H 0.10103 0.43496 0.39863 0.0
H868 H 0.10853 0.46261 0.38297 0.0
H869 H 0.08007 0.43038 0.38403 0.0
H870 H 0.07649 0.41539 0.35936 0.0
H871 H 0.06847 0.47603 0.34288 0.0
H872 H 0.14807 0.20097 0.84136 0.0
H873 H 0.15649 0.26121 0.85824 0.0
H874 H 0.07769 0.29157 0.85864 0.0
H875 H 0.06905 0.23172 0.842 0.0
H876 H 0.14495 0.35603 0.85754 0.0
H877 H 0.09621 0.26852 0.89875 0.0
H878 H 0.10486 0.23949 0.8835 0.0
H879 H 0.0775 0.27518 0.88336 0.0
C880 C 0.13254 0.22058 0.845 0.0
C881 C 0.10785 0.21099 0.84039 0.0
C882 C 0.13739 0.25495 0.85466 0.0
C883 C 0.11765 0.2802 0.85993 0.0
C884 C 0.09315 0.27178 0.85499 0.0
H885 H 0.10389 0.49878 0.91922 0.0
H886 H 0.09619 0.43819 0.9024 0.0
C887 C 0.08829 0.23757 0.84539 0.0
C888 C 0.12247 0.31551 0.87054 0.0
H889 H 0.1083 0.34548 0.90282 0.0
C890 C 0.1371 0.3536 0.86748 0.0
C891 C 0.11206 0.31244 0.88347 0.0
C892 C 0.09696 0.27154 0.88755 0.0
C893 C 0.14119 0.38914 0.87689 0.0
C894 C 0.13079 0.38606 0.88983 0.0
C895 C 0.11619 0.34791 0.89289 0.0
C896 C 0.1353 0.42165 0.90041 0.0
C897 C 0.15611 0.4302 0.87275 0.0
C898 C 0.15973 0.43156 0.90518 0.0
C899 C 0.16419 0.46607 0.91474 0.0
C900 C 0.14427 0.49133 0.91989 0.0
C901 C 0.11968 0.48016 0.91548 0.0
C902 C 0.11525 0.44559 0.90584 0.0
H903 H 0.15661 0.43331 0.86154 0.0
H904 H 0.14824 0.46217 0.87686 0.0
H905 H 0.17566 0.42665 0.8768 0.0
H906 H 0.17545 0.41273 0.90143 0.0
H907 H 0.18338 0.47319 0.91798 0.0
H908 H 0.18423 0.72686 0.91577 0.0
H909 H 0.17523 0.78733 0.89938 0.0
H910 H 0.09612 0.76526 0.90301 0.0
H911 H 0.10491 0.70447 0.91963 0.0
H912 H 0.1493 0.77935 0.87443 0.0
H913 H 0.10334 0.90412 0.90773 0.0
H914 H 0.12155 0.85662 0.91436 0.0
H915 H 0.09018 0.84768 0.9077 0.0
C916 C 0.16484 0.73486 0.91321 0.0
C917 C 0.14528 0.71056 0.91908 0.0
C918 C 0.15977 0.76954 0.90379 0.0
C919 C 0.13504 0.78113 0.90003 0.0
C920 C 0.11538 0.7574 0.90592 0.0
H921 H 0.06965 0.97774 0.84336 0.0
H922 H 0.07787 0.91658 0.85965 0.0
C923 C 0.12044 0.72251 0.91539 0.0
C924 C 0.13009 0.81699 0.88959 0.0
H925 H 0.10349 0.92187 0.88435 0.0
C926 C 0.13932 0.81057 0.8766 0.0
C927 C 0.1171 0.85771 0.89243 0.0
C928 C 0.10763 0.86734 0.90633 0.0
C929 C 0.1356 0.84341 0.86633 0.0
C930 C 0.12269 0.88423 0.86919 0.0
C931 C 0.11341 0.8906 0.88217 0.0
C932 C 0.11813 0.92044 0.8588 0.0
C933 C 0.14504 0.83364 0.85243 0.0
C934 C 0.13807 0.94309 0.85283 0.0
C935 C 0.13346 0.97823 0.8434 0.0
C936 C 0.10879 0.99167 0.83985 0.0
C937 C 0.08892 0.96852 0.8458 0.0
C938 C 0.09355 0.93348 0.85517 0.0
H939 H 0.14865 0.79665 0.85095 0.0
H940 H 0.13143 0.84538 0.84438 0.0
H941 H 0.16289 0.85218 0.85119 0.0
H942 H 0.15723 0.93421 0.85565 0.0
H943 H 0.14922 0.99542 0.83911 0.0
H944 H 0.855 0.30452 0.66812 0.0
H945 H 0.84651 0.24297 0.65169 0.0
H946 H 0.92538 0.21326 0.65115 0.0
H947 H 0.93402 0.27378 0.66755 0.0
H948 H 0.86479 0.23526 0.62544 0.0
H949 H 0.89508 0.08739 0.65706 0.0
H950 H 0.88879 0.14279 0.66419 0.0
H951 H 0.91811 0.13182 0.65651 0.0
C952 C 0.8705 0.28454 0.66463 0.0
C953 C 0.89519 0.29424 0.66922 0.0
C954 C 0.86563 0.24945 0.6552 0.0
C955 C 0.88529 0.22308 0.65031 0.0
C956 C 0.90985 0.23247 0.65496 0.0
H957 H 0.90056 0.00704 0.59034 0.0
H958 H 0.90811 0.06871 0.60683 0.0
C959 C 0.91475 0.26745 0.66431 0.0
C960 C 0.88046 0.18711 0.63989 0.0
H961 H 0.88899 0.07365 0.63337 0.0
C962 C 0.86988 0.19986 0.62721 0.0
C963 C 0.88728 0.14095 0.64217 0.0
C964 C 0.89773 0.12473 0.65576 0.0
C965 C 0.86641 0.16792 0.61666 0.0
C966 C 0.87337 0.12184 0.61892 0.0
C967 C 0.88386 0.10905 0.63162 0.0
C968 C 0.86901 0.08601 0.60842 0.0
C969 C 0.85582 0.18396 0.60309 0.0
C970 C 0.84457 0.07525 0.60385 0.0
C971 C 0.8402 0.04013 0.59447 0.0
C972 C 0.86018 0.01471 0.58944 0.0
C973 C 0.88473 0.02598 0.59391 0.0
C974 C 0.88908 0.06112 0.60337 0.0
H975 H 0.8577 0.2215 0.60189 0.0
H976 H 0.86527 0.16682 0.59467 0.0
H977 H 0.83562 0.17538 0.60221 0.0
H978 H 0.82877 0.09342 0.60776 0.0
H979 H 0.82102 0.03254 0.59132 0.0
H980 H 0.93324 0.53247 0.668 0.0
H981 H 0.92527 0.59366 0.65168 0.0
H982 H 0.84603 0.56768 0.65254 0.0
H983 H 0.85378 0.50655 0.66913 0.0
H984 H 0.90366 0.58716 0.62624 0.0
H985 H 0.84893 0.70522 0.6575 0.0
H986 H 0.86658 0.65803 0.66474 0.0
H987 H 0.83648 0.64836 0.65647 0.0
C988 C 0.91404 0.5399 0.66486 0.0
C989 C 0.89414 0.51443 0.66995 0.0
C990 C 0.90954 0.57496 0.65548 0.0
C991 C 0.88506 0.58565 0.65095 0.0
C992 C 0.86507 0.56071 0.65608 0.0
H993 H 0.82057 0.7744 0.59196 0.0
H994 H 0.82924 0.71403 0.60843 0.0
C995 C 0.86954 0.52562 0.66554 0.0
C996 C 0.88074 0.62168 0.64047 0.0
H997 H 0.85102 0.72315 0.63414 0.0
C998 C 0.89224 0.61702 0.62799 0.0
C999 C 0.86586 0.66066 0.64275 0.0
C1000 C 0.85393 0.66874 0.65613 0.0
C1001 C 0.88889 0.64975 0.61766 0.0
C1002 C 0.87394 0.68863 0.61992 0.0
C1003 C 0.86249 0.69335 0.63241 0.0
C1004 C 0.86929 0.72429 0.60938 0.0
C1005 C 0.90087 0.64184 0.60429 0.0
C1006 C 0.88898 0.75023 0.60432 0.0
C1007 C 0.8841 0.78499 0.59479 0.0
C1008 C 0.8594 0.79471 0.59022 0.0
C1009 C 0.83984 0.76818 0.59523 0.0
C1010 C 0.84473 0.73355 0.6047 0.0
H1011 H 0.90648 0.60562 0.60301 0.0
H1012 H 0.88795 0.65156 0.59568 0.0
H1013 H 0.91792 0.66324 0.60382 0.0
H1014 H 0.90806 0.74424 0.60796 0.0
H1015 H 0.89961 0.80482 0.59124 0.0
H1016 H 0.89837 0.51603 0.08831 0.0
H1017 H 0.90638 0.57688 0.10501 0.0
H1018 H 0.82734 0.58703 0.11137 0.0
H1019 H 0.81912 0.52652 0.0949 0.0
H1020 H 0.88786 0.66781 0.10562 0.0
H1021 H 0.85747 0.56831 0.14986 0.0
H1022 H 0.86426 0.54195 0.13389 0.0
H1023 H 0.83483 0.57024 0.13593 0.0
C1024 C 0.88267 0.53127 0.09322 0.0
C1025 C 0.85811 0.51594 0.09027 0.0
C1026 C 0.8873 0.56602 0.10279 0.0
C1027 C 0.86749 0.58585 0.10964 0.0
C1028 C 0.84297 0.57152 0.10645 0.0
H1029 H 0.85556 0.8013 0.17048 0.0
H1030 H 0.84673 0.74076 0.15374 0.0
C1031 C 0.83832 0.53699 0.09692 0.0
C1032 C 0.87227 0.62187 0.12004 0.0
H1033 H 0.8648 0.64748 0.15343 0.0
C1034 C 0.88296 0.66328 0.11609 0.0
C1035 C 0.86573 0.61601 0.13369 0.0
C1036 C 0.85514 0.5716 0.13866 0.0
C1037 C 0.88692 0.69923 0.12536 0.0
C1038 C 0.88039 0.69337 0.13901 0.0
C1039 C 0.86966 0.652 0.14296 0.0
C1040 C 0.88554 0.72916 0.14942 0.0
C1041 C 0.8977 0.74353 0.12043 0.0
C1042 C 0.91026 0.74191 0.15276 0.0
C1043 C 0.91537 0.77618 0.16231 0.0
C1044 C 0.89585 0.79862 0.1688 0.0
C1045 C 0.87104 0.78498 0.16566 0.0
C1046 C 0.86596 0.7504 0.1561 0.0
H1047 H 0.89564 0.74677 0.10923 0.0
H1048 H 0.88851 0.77324 0.12513 0.0
H1049 H 0.91795 0.74482 0.12331 0.0
H1050 H 0.92569 0.72536 0.14795 0.0
H1051 H 0.93473 0.78533 0.16447 0.0
H1052 H 0.93397 0.02834 0.16535 0.0
H1053 H 0.92566 0.08935 0.14904 0.0
H1054 H 0.84652 0.07665 0.15479 0.0
H1055 H 0.85463 0.01549 0.17134 0.0
H1056 H 0.89776 0.08461 0.12481 0.0
H1057 H 0.85846 0.21405 0.15908 0.0
H1058 H 0.87539 0.16453 0.16533 0.0
H1059 H 0.8433 0.15937 0.15942 0.0
C1060 C 0.91475 0.0386 0.16329 0.0
C1061 C 0.89497 0.01683 0.16975 0.0
C1062 C 0.91006 0.07354 0.1539 0.0
C1063 C 0.88552 0.08792 0.15076 0.0
C1064 C 0.86567 0.06668 0.15723 0.0
H1065 H 0.81868 0.28338 0.09471 0.0
H1066 H 0.82792 0.22299 0.11109 0.0
C1067 C 0.87034 0.03157 0.16666 0.0
C1068 C 0.88085 0.12412 0.14039 0.0
H1069 H 0.85625 0.23081 0.13557 0.0
C1070 C 0.88878 0.11667 0.12717 0.0
C1071 C 0.86919 0.16597 0.14348 0.0
C1072 C 0.86127 0.17681 0.15762 0.0
C1073 C 0.88493 0.14954 0.11691 0.0
C1074 C 0.87317 0.1913 0.12 0.0
C1075 C 0.8653 0.1988 0.13322 0.0
C1076 C 0.86805 0.22712 0.10958 0.0
C1077 C 0.89289 0.13887 0.10277 0.0
C1078 C 0.88759 0.24966 0.10322 0.0
C1079 C 0.88239 0.28454 0.09377 0.0
C1080 C 0.85753 0.29761 0.09054 0.0
C1081 C 0.83807 0.27447 0.09689 0.0
C1082 C 0.84329 0.23985 0.10631 0.0
H1083 H 0.89649 0.10184 0.10139 0.0
H1084 H 0.87838 0.14996 0.0951 0.0
H1085 H 0.9104 0.15764 0.10083 0.0
H1086 H 0.90688 0.24085 0.10574 0.0
H1087 H 0.89784 0.30165 0.08915 0.0
H1088 H 0.57003 0.73558 0.84152 0.0
H1089 H 0.57886 0.79571 0.85805 0.0
H1090 H 0.65732 0.76193 0.85852 0.0
H1091 H 0.64871 0.70156 0.84175 0.0
H1092 H 0.59948 0.78533 0.88399 0.0
H1093 H 0.65777 0.90067 0.8537 0.0
H1094 H 0.63891 0.85565 0.84609 0.0
H1095 H 0.66839 0.84253 0.85457 0.0
C1096 C 0.58925 0.74098 0.84501 0.0
C1097 C 0.60867 0.71348 0.84026 0.0
C1098 C 0.59424 0.77547 0.8545 0.0
C1099 C 0.61874 0.78362 0.85948 0.0
C1100 C 0.63829 0.75679 0.85466 0.0
H1101 H 0.68257 0.97296 0.91889 0.0
H1102 H 0.67461 0.91196 0.90251 0.0
C1103 C 0.63333 0.72216 0.8451 0.0
C1104 C 0.62342 0.81899 0.8701 0.0
H1105 H 0.65415 0.91916 0.87688 0.0
C1106 C 0.6114 0.81466 0.88243 0.0
C1107 C 0.63896 0.85723 0.86806 0.0
C1108 C 0.65161 0.86471 0.85486 0.0
C1109 C 0.61476 0.84712 0.89284 0.0
C1110 C 0.63021 0.8855 0.89078 0.0
C1111 C 0.64228 0.88976 0.87846 0.0
C1112 C 0.63448 0.92134 0.90132 0.0
C1113 C 0.60217 0.83943 0.90605 0.0
C1114 C 0.61454 0.94695 0.90622 0.0
C1115 C 0.619 0.98191 0.91573 0.0
C1116 C 0.64355 0.99231 0.92039 0.0
C1117 C 0.6634 0.96615 0.91554 0.0
C1118 C 0.65891 0.93119 0.90612 0.0
H1119 H 0.59675 0.80313 0.90734 0.0
H1120 H 0.61456 0.8497 0.91481 0.0
H1121 H 0.5849 0.86038 0.90618 0.0
H1122 H 0.59555 0.94064 0.90247 0.0
H1123 H 0.60329 1.00155 0.91913 0.0
H1124 H 0.60449 0.20695 0.91991 0.0
H1125 H 0.59594 0.26751 0.90314 0.0
H1126 H 0.67511 0.28696 0.89903 0.0
H1127 H 0.68389 0.22691 0.91557 0.0
H1128 H 0.61209 0.3612 0.90321 0.0
H1129 H 0.64872 0.26525 0.85979 0.0
H1130 H 0.64107 0.23796 0.87549 0.0
H1131 H 0.67 0.26864 0.8743 0.0
C1132 C 0.62009 0.22417 0.91546 0.0
C1133 C 0.64488 0.21158 0.91905 0.0
C1134 C 0.61516 0.25876 0.90587 0.0
C1135 C 0.6349 0.2811 0.89964 0.0
C1136 C 0.65959 0.2695 0.90347 0.0
H1137 H 0.64897 0.49591 0.8392 0.0
H1138 H 0.65657 0.43505 0.85594 0.0
C1139 C 0.66453 0.23517 0.91302 0.0
C1140 C 0.62993 0.31683 0.88917 0.0
H1141 H 0.63981 0.34382 0.85612 0.0
C1142 C 0.61797 0.3573 0.89289 0.0
C1143 C 0.63778 0.31181 0.87573 0.0
C1144 C 0.64991 0.26844 0.87101 0.0
C1145 C 0.6141 0.39327 0.8836 0.0
C1146 C 0.62197 0.38825 0.87015 0.0
C1147 C 0.63388 0.34772 0.86643 0.0
C1148 C 0.61744 0.42428 0.85972 0.0
C1149 C 0.60217 0.43677 0.88837 0.0
C1150 C 0.59294 0.43759 0.85602 0.0
C1151 C 0.58853 0.47219 0.84648 0.0
C1152 C 0.60854 0.49425 0.84031 0.0
C1153 C 0.6331 0.47986 0.84374 0.0
C1154 C 0.63749 0.44511 0.85332 0.0
H1155 H 0.6036 0.43999 0.89959 0.0
H1156 H 0.61099 0.46718 0.88384 0.0
H1157 H 0.58203 0.4367 0.88521 0.0
H1158 H 0.57716 0.42127 0.86055 0.0
H1159 H 0.56934 0.48189 0.84406 0.0
H1160 H 0.57039 0.23279 0.3422 0.0
H1161 H 0.57942 0.29272 0.35876 0.0
H1162 H 0.65794 0.25978 0.35864 0.0
H1163 H 0.64913 0.19959 0.34184 0.0
H1164 H 0.60077 0.28203 0.38458 0.0
H1165 H 0.65774 0.39869 0.35398 0.0
H1166 H 0.63881 0.35362 0.34645 0.0
H1167 H 0.66855 0.34064 0.35466 0.0
C1168 C 0.58967 0.23833 0.34556 0.0
C1169 C 0.60904 0.21111 0.34064 0.0
C1170 C 0.59477 0.27271 0.35508 0.0
C1171 C 0.61935 0.28103 0.3599 0.0
C1172 C 0.63885 0.2545 0.3549 0.0
H1173 H 0.68387 0.47028 0.41913 0.0
H1174 H 0.67577 0.40929 0.40276 0.0
C1175 C 0.63377 0.21998 0.34532 0.0
C1176 C 0.62417 0.31627 0.37054 0.0
H1177 H 0.65464 0.41676 0.37721 0.0
C1178 C 0.61251 0.31155 0.38297 0.0
C1179 C 0.63949 0.35477 0.36843 0.0
C1180 C 0.65172 0.36264 0.35513 0.0
C1181 C 0.61601 0.3439 0.39339 0.0
C1182 C 0.63123 0.38253 0.39126 0.0
C1183 C 0.64296 0.38717 0.37885 0.0
C1184 C 0.63562 0.41828 0.40181 0.0
C1185 C 0.60382 0.33584 0.4067 0.0
C1186 C 0.6157 0.44365 0.40685 0.0
C1187 C 0.62024 0.47862 0.41634 0.0
C1188 C 0.64485 0.48926 0.42086 0.0
C1189 C 0.66467 0.46329 0.41589 0.0
C1190 C 0.6601 0.42834 0.40649 0.0
H1191 H 0.59855 0.29945 0.40798 0.0
H1192 H 0.61642 0.34608 0.41538 0.0
H1193 H 0.58651 0.35661 0.407 0.0
H1194 H 0.59667 0.43715 0.40321 0.0
H1195 H 0.60455 0.49809 0.41984 0.0
H1196 H 0.6063 0.70879 0.42159 0.0
H1197 H 0.59759 0.7695 0.40488 0.0
H1198 H 0.67605 0.77731 0.39687 0.0
H1199 H 0.68498 0.71716 0.41336 0.0
H1200 H 0.61831 0.86098 0.40403 0.0
H1201 H 0.64175 0.7586 0.35897 0.0
H1202 H 0.63536 0.73294 0.37509 0.0
H1203 H 0.66535 0.75831 0.37244 0.0
C1204 C 0.6217 0.72342 0.41628 0.0
C1205 C 0.64632 0.70771 0.41881 0.0
C1206 C 0.61669 0.75811 0.40674 0.0
C1207 C 0.63613 0.77735 0.39947 0.0
C1208 C 0.6607 0.76236 0.40216 0.0
H1209 H 0.6491 0.98912 0.3379 0.0
H1210 H 0.65707 0.92788 0.3545 0.0
C1211 C 0.66575 0.72801 0.41169 0.0
C1212 C 0.63103 0.81354 0.38917 0.0
H1213 H 0.63601 0.83822 0.35554 0.0
C1214 C 0.62198 0.85594 0.39341 0.0
C1215 C 0.63605 0.80699 0.37534 0.0
C1216 C 0.64496 0.76165 0.37012 0.0
C1217 C 0.61825 0.89224 0.38423 0.0
C1218 C 0.62327 0.88569 0.37039 0.0
C1219 C 0.63229 0.84326 0.36615 0.0
C1220 C 0.61851 0.92207 0.3601 0.0
C1221 C 0.60949 0.93765 0.38948 0.0
C1222 C 0.59416 0.93835 0.35752 0.0
C1223 C 0.58952 0.97307 0.34806 0.0
C1224 C 0.60916 0.99239 0.34087 0.0
C1225 C 0.63353 0.97524 0.34325 0.0
C1226 C 0.63813 0.94025 0.35274 0.0
H1227 H 0.61288 0.9407 0.40062 0.0
H1228 H 0.61907 0.96632 0.38447 0.0
H1229 H 0.58908 0.94109 0.38726 0.0
H1230 H 0.57865 0.92418 0.36286 0.0
H1231 H 0.57047 0.98502 0.3465 0.0
H1232 H 0.35561 0.29461 0.17146 0.0
H1233 H 0.34693 0.23249 0.15525 0.0
H1234 H 0.42556 0.22272 0.14772 0.0
H1235 H 0.43447 0.28363 0.16392 0.0
H1236 H 0.35657 0.22892 0.12785 0.0
H1237 H 0.40819 0.09077 0.15521 0.0
H1238 H 0.4005 0.14407 0.16321 0.0
H1239 H 0.427 0.14044 0.15261 0.0
C1240 C 0.37107 0.27897 0.16644 0.0
C1241 C 0.39576 0.29416 0.1691 0.0
C1242 C 0.36608 0.24349 0.15716 0.0
C1243 C 0.38565 0.22235 0.15043 0.0
C1244 C 0.41021 0.23762 0.15302 0.0
H1245 H 0.39839 0.01299 0.08819 0.0
H1246 H 0.40612 0.07503 0.10452 0.0
C1247 C 0.41523 0.27283 0.16227 0.0
C1248 C 0.3805 0.18558 0.14029 0.0
H1249 H 0.39588 0.07591 0.13216 0.0
C1250 C 0.36499 0.19534 0.12885 0.0
C1251 C 0.39163 0.14181 0.14154 0.0
C1252 C 0.40756 0.12842 0.15387 0.0
C1253 C 0.36073 0.16295 0.1185 0.0
C1254 C 0.37199 0.1193 0.11971 0.0
C1255 C 0.38742 0.10947 0.13118 0.0
C1256 C 0.3673 0.08282 0.10943 0.0
C1257 C 0.34467 0.17615 0.1062 0.0
C1258 C 0.34297 0.06639 0.10683 0.0
C1259 C 0.33848 0.03116 0.09751 0.0
C1260 C 0.35826 0.01109 0.09061 0.0
C1261 C 0.38268 0.02767 0.09323 0.0
C1262 C 0.38715 0.06307 0.1026 0.0
H1263 H 0.34343 0.2138 0.10501 0.0
H1264 H 0.35208 0.16135 0.09682 0.0
H1265 H 0.32544 0.1629 0.10735 0.0
H1266 H 0.32743 0.08031 0.11218 0.0
H1267 H 0.31942 0.01927 0.09587 0.0
H1268 H 0.43303 0.53472 0.16981 0.0
H1269 H 0.42507 0.59575 0.15342 0.0
H1270 H 0.34638 0.56341 0.15213 0.0
H1271 H 0.3541 0.50254 0.1688 0.0
H1272 H 0.40627 0.58823 0.12757 0.0
H1273 H 0.34509 0.7006 0.15701 0.0
H1274 H 0.36309 0.65474 0.16475 0.0
H1275 H 0.3341 0.64286 0.15557 0.0
C1276 C 0.41394 0.54076 0.16618 0.0
C1277 C 0.39419 0.51359 0.17068 0.0
C1278 C 0.40945 0.57573 0.15677 0.0
C1279 C 0.38512 0.58455 0.15161 0.0
C1280 C 0.36526 0.55793 0.15617 0.0
H1281 H 0.32078 0.76732 0.09098 0.0
H1282 H 0.3298 0.70737 0.10755 0.0
C1283 C 0.36972 0.52299 0.16568 0.0
C1284 C 0.38089 0.6203 0.14103 0.0
H1285 H 0.34876 0.71865 0.13373 0.0
C1286 C 0.39379 0.61689 0.12895 0.0
C1287 C 0.36462 0.65773 0.14282 0.0
C1288 C 0.3511 0.66458 0.15578 0.0
C1289 C 0.39051 0.6493 0.11852 0.0
C1290 C 0.37414 0.68656 0.12028 0.0
C1291 C 0.3613 0.69006 0.13238 0.0
C1292 C 0.36942 0.7217 0.10959 0.0
C1293 C 0.40409 0.6427 0.10556 0.0
C1294 C 0.38876 0.74968 0.10509 0.0
C1295 C 0.38369 0.78418 0.0955 0.0
C1296 C 0.35911 0.79161 0.09033 0.0
C1297 C 0.33993 0.76292 0.09474 0.0
C1298 C 0.34502 0.72853 0.10425 0.0
H1299 H 0.41094 0.60712 0.10451 0.0
H1300 H 0.39178 0.65113 0.09659 0.0
H1301 H 0.42052 0.66582 0.10559 0.0
H1302 H 0.40768 0.74558 0.10922 0.0
H1303 H 0.39889 0.80575 0.09241 0.0
H1304 H 0.35471 0.80194 0.66967 0.0
H1305 H 0.34576 0.74034 0.65332 0.0
H1306 H 0.42483 0.71847 0.64945 0.0
H1307 H 0.43396 0.77891 0.66579 0.0
H1308 H 0.35987 0.73471 0.62644 0.0
H1309 H 0.39989 0.58978 0.65614 0.0
H1310 H 0.39325 0.64431 0.66372 0.0
H1311 H 0.42136 0.63636 0.65459 0.0
C1312 C 0.37019 0.78369 0.66545 0.0
C1313 C 0.39506 0.79548 0.66913 0.0
C1314 C 0.36504 0.74855 0.65608 0.0
C1315 C 0.38463 0.72428 0.6503 0.0
C1316 C 0.4094 0.73593 0.65398 0.0
H1317 H 0.3983 0.51193 0.58912 0.0
H1318 H 0.40598 0.57366 0.60556 0.0
C1319 C 0.41456 0.77087 0.6633 0.0
C1320 C 0.37943 0.68811 0.63998 0.0
H1321 H 0.39089 0.57615 0.63265 0.0
C1322 C 0.36645 0.69994 0.62784 0.0
C1323 C 0.38817 0.64278 0.64177 0.0
C1324 C 0.40123 0.62735 0.65481 0.0
C1325 C 0.36248 0.668 0.61733 0.0
C1326 C 0.37139 0.62279 0.61909 0.0
C1327 C 0.38425 0.61089 0.63126 0.0
C1328 C 0.36682 0.58687 0.60863 0.0
C1329 C 0.34927 0.68323 0.60432 0.0
C1330 C 0.34229 0.57373 0.60491 0.0
C1331 C 0.33784 0.53862 0.59554 0.0
C1332 C 0.35783 0.51548 0.58969 0.0
C1333 C 0.38244 0.52904 0.59334 0.0
C1334 C 0.38687 0.56423 0.60277 0.0
H1335 H 0.34981 0.72094 0.60314 0.0
H1336 H 0.35775 0.6673 0.59539 0.0
H1337 H 0.32936 0.67267 0.6044 0.0
H1338 H 0.32653 0.59003 0.60948 0.0
H1339 H 0.31862 0.5292 0.59306 0.0
H1340 H 0.31919 0.27883 0.59378 0.0
H1341 H 0.32838 0.21906 0.61035 0.0
H1342 H 0.40741 0.24256 0.6069 0.0
H1343 H 0.3984 0.30343 0.59034 0.0
H1344 H 0.35497 0.13912 0.60829 0.0
H1345 H 0.39885 0.25186 0.64775 0.0
H1346 H 0.38127 0.27396 0.63321 0.0
H1347 H 0.41287 0.25453 0.63155 0.0
C1348 C 0.3386 0.27152 0.59649 0.0
C1349 C 0.35806 0.29643 0.59074 0.0
C1350 C 0.34379 0.23713 0.60599 0.0
C1351 C 0.36855 0.22676 0.61006 0.0
C1352 C 0.38812 0.25063 0.60413 0.0
H1353 H 0.43355 0.03002 0.66676 0.0
H1354 H 0.42531 0.0905 0.65024 0.0
C1355 C 0.38294 0.28522 0.59458 0.0
C1356 C 0.37357 0.19082 0.62048 0.0
H1357 H 0.39919 0.17254 0.6523 0.0
C1358 C 0.36461 0.14644 0.61792 0.0
C1359 C 0.38606 0.20042 0.63307 0.0
C1360 C 0.39515 0.24783 0.63666 0.0
C1361 C 0.36809 0.1113 0.62752 0.0
C1362 C 0.38051 0.12094 0.64012 0.0
C1363 C 0.38957 0.16525 0.64266 0.0
C1364 C 0.38505 0.08513 0.65062 0.0
C1365 C 0.35894 0.0639 0.62396 0.0
C1366 C 0.36511 0.06253 0.6566 0.0
C1367 C 0.36972 0.02769 0.66613 0.0
C1368 C 0.39441 0.01485 0.66987 0.0
C1369 C 0.41428 0.03862 0.66411 0.0
C1370 C 0.40964 0.07337 0.65464 0.0
H1371 H 0.35522 0.05981 0.61287 0.0
H1372 H 0.37279 0.03775 0.62743 0.0
H1373 H 0.34122 0.05731 0.62909 0.0
H1374 H 0.34595 0.07167 0.65385 0.0
H1375 H 0.35396 0.01034 0.67036 0.0
loop_
_geom_bond_atom_site_label_1
_geom_bond_atom_site_label_2
_geom_bond_distance
_geom_bond_site_symmetry_2
_ccdc_geom_bond_type
Co0 O1 2.216 . S
Co0 O2 2.091 . S
Co0 O4 2.004 . S
Co0 O10 2.021 . S
Co0 O12 2.137 . S
Co0 O13 2.244 . S
O1 Co0 2.216 . S
O1 C8 1.247 . S
O2 Co0 2.091 . S
O2 C8 1.261 . S
C3 O12 1.247 . S
C3 O13 1.272 . S
O4 Co0 2.004 . S
O4 C9 1.259 . S
Co5 O6 2.061 . S
Co5 O11 2.052 . S
Co5 O13 2.135 . S
O6 Co5 2.061 . S
O6 C9 1.235 . S
C7 O10 1.238 . S
C7 O11 1.241 . S
C8 O1 1.247 . S
C8 O2 1.261 . S
C9 O4 1.259 . S
C9 O6 1.235 . S
O10 Co0 2.021 . S
O10 C7 1.238 . S
O11 Co5 2.052 . S
O11 C7 1.241 . S
O12 Co0 2.137 . S
O12 C3 1.247 . S
O13 Co0 2.244 . S
O13 C3 1.272 . S
O13 Co5 2.135 . S
Co14 O15 2.216 . S
Co14 O16 2.091 . S
Co14 O18 2.004 . S
Co14 O24 2.021 . S
Co14 O26 2.137 . S
Co14 O27 2.244 . S
O15 Co14 2.216 . S
O15 C22 1.247 . S
O16 Co14 2.091 . S
O16 C22 1.261 . S
C17 O26 1.247 . S
C17 O27 1.272 . S
O18 Co14 2.004 . S
O18 C23 1.259 . S
Co19 O20 2.061 . S
Co19 O25 2.052 . S
Co19 O27 2.135 . S
O20 Co19 2.061 . S
O20 C23 1.235 . S
C21 O24 1.238 . S
C21 O25 1.241 . S
C22 O15 1.247 . S
C22 O16 1.261 . S
C23 O18 1.259 . S
C23 O20 1.235 . S
O24 Co14 2.021 . S
O24 C21 1.238 . S
O25 Co19 2.052 . S
O25 C21 1.241 . S
O26 Co14 2.137 . S
O26 C17 1.247 . S
O27 Co14 2.244 . S
O27 C17 1.272 . S
O27 Co19 2.135 . S
Co28 O29 2.216 . S
Co28 O30 2.091 . S
Co28 O32 2.004 . S
Co28 O38 2.021 . S
Co28 O40 2.137 . S
Co28 O41 2.244 . S
O29 Co28 2.216 . S
O29 C36 1.247 . S
O30 Co28 2.091 . S
O30 C36 1.261 . S
C31 O40 1.247 . S
C31 O41 1.272 . S
O32 Co28 2.004 . S
O32 C37 1.259 . S
Co33 O34 2.061 . S
Co33 O39 2.052 . S
Co33 O41 2.135 . S
O34 Co33 2.061 . S
O34 C37 1.235 . S
C35 O38 1.238 . S
C35 O39 1.241 . S
C36 O29 1.247 . S
C36 O30 1.261 . S
C37 O32 1.259 . S
C37 O34 1.235 . S
O38 Co28 2.021 . S
O38 C35 1.238 . S
O39 Co33 2.052 . S
O39 C35 1.241 . S
O40 Co28 2.137 . S
O40 C31 1.247 . S
O41 Co28 2.244 . S
O41 C31 1.272 . S
O41 Co33 2.135 . S
Co42 O43 2.216 . S
Co42 O44 2.091 . S
Co42 O46 2.004 . S
Co42 O52 2.021 . S
Co42 O54 2.137 . S
Co42 O55 2.244 . S
O43 Co42 2.216 . S
O43 C50 1.247 . S
O44 Co42 2.091 . S
O44 C50 1.261 . S
C45 O54 1.247 . S
C45 O55 1.272 . S
O46 Co42 2.004 . S
O46 C51 1.259 . S
Co47 O48 2.061 . S
Co47 O53 2.052 . S
Co47 O55 2.135 . S
O48 Co47 2.061 . S
O48 C51 1.235 . S
C49 O52 1.238 . S
C49 O53 1.241 . S
C50 O43 1.247 . S
C50 O44 1.261 . S
C51 O46 1.259 . S
C51 O48 1.235 . S
O52 Co42 2.021 . S
O52 C49 1.238 . S
O53 Co47 2.052 . S
O53 C49 1.241 . S
O54 Co42 2.137 . S
O54 C45 1.247 . S
O55 Co42 2.244 . S
O55 C45 1.272 . S
O55 Co47 2.135 . S
Co56 O57 2.216 . S
Co56 O58 2.091 . S
Co56 O60 2.004 . S
Co56 O66 2.021 . S
Co56 O68 2.137 . S
Co56 O69 2.244 . S
O57 Co56 2.216 . S
O57 C64 1.247 . S
O58 Co56 2.091 . S
O58 C64 1.261 . S
C59 O68 1.247 . S
C59 O69 1.272 . S
O60 Co56 2.004 . S
O60 C65 1.259 . S
Co61 O62 2.061 . S
Co61 O67 2.052 . S
Co61 O69 2.135 . S
O62 Co61 2.061 . S
O62 C65 1.235 . S
C63 O66 1.238 . S
C63 O67 1.241 . S
C64 O57 1.247 . S
C64 O58 1.261 . S
C65 O60 1.259 . S
C65 O62 1.235 . S
O66 Co56 2.021 . S
O66 C63 1.238 . S
O67 Co61 2.052 . S
O67 C63 1.241 . S
O68 Co56 2.137 . S
O68 C59 1.247 . S
O69 Co56 2.244 . S
O69 C59 1.272 . S
O69 Co61 2.135 . S
Co70 O71 2.216 . S
Co70 O72 2.091 . S
Co70 O74 2.004 . S
Co70 O80 2.021 . S
Co70 O82 2.137 . S
Co70 O83 2.244 . S
O71 Co70 2.216 . S
O71 C78 1.247 . S
O72 Co70 2.091 . S
O72 C78 1.261 . S
C73 O82 1.247 . S
C73 O83 1.272 . S
O74 Co70 2.004 . S
O74 C79 1.259 . S
Co75 O76 2.061 . S
Co75 O81 2.052 . S
Co75 O83 2.135 . S
O76 Co75 2.061 . S
O76 C79 1.235 . S
C77 O80 1.238 . S
C77 O81 1.241 . S
C78 O71 1.247 . S
C78 O72 1.261 . S
C79 O74 1.259 . S
C79 O76 1.235 . S
O80 Co70 2.021 . S
O80 C77 1.238 . S
O81 Co75 2.052 . S
O81 C77 1.241 . S
O82 Co70 2.137 . S
O82 C73 1.247 . S
O83 Co70 2.244 . S
O83 C73 1.272 . S
O83 Co75 2.135 . S
Co84 O85 2.216 . S
Co84 O86 2.091 . S
Co84 O88 2.004 . S
Co84 O94 2.021 . S
Co84 O96 2.137 . S
Co84 O97 2.244 . S
O85 Co84 2.216 . S
O85 C92 1.247 . S
O86 Co84 2.091 . S
O86 C92 1.261 . S
C87 O96 1.247 . S
C87 O97 1.272 . S
O88 Co84 2.004 . S
O88 C93 1.259 . S
Co89 O90 2.061 . S
Co89 O95 2.052 . S
Co89 O97 2.135 . S
O90 Co89 2.061 . S
O90 C93 1.235 . S
C91 O94 1.238 . S
C91 O95 1.241 . S
C92 O85 1.247 . S
C92 O86 1.261 . S
C93 O88 1.259 . S
C93 O90 1.235 . S
O94 Co84 2.021 . S
O94 C91 1.238 . S
O95 Co89 2.052 . S
O95 C91 1.241 . S
O96 Co84 2.137 . S
O96 C87 1.247 . S
O97 Co84 2.244 . S
O97 C87 1.272 . S
O97 Co89 2.135 . S
Co98 O99 2.216 . S
Co98 O100 2.091 . S
Co98 O102 2.004 . S
Co98 O108 2.021 . S
Co98 O110 2.137 . S
Co98 O111 2.244 . S
O99 Co98 2.216 . S
O99 C106 1.247 . S
O100 Co98 2.091 . S
O100 C106 1.261 . S
C101 O110 1.247 . S
C101 O111 1.272 . S
O102 Co98 2.004 . S
O102 C107 1.259 . S
Co103 O104 2.061 . S
Co103 O109 2.052 . S
Co103 O111 2.135 . S
O104 Co103 2.061 . S
O104 C107 1.235 . S
C105 O108 1.238 . S
C105 O109 1.241 . S
C106 O99 1.247 . S
C106 O100 1.261 . S
C107 O102 1.259 . S
C107 O104 1.235 . S
O108 Co98 2.021 . S
O108 C105 1.238 . S
O109 Co103 2.052 . S
O109 C105 1.241 . S
O110 Co98 2.137 . S
O110 C101 1.247 . S
O111 Co98 2.244 . S
O111 C101 1.272 . S
O111 Co103 2.135 . S
Co112 O113 2.216 . S
Co112 O114 2.091 . S
Co112 O116 2.004 . S
Co112 O122 2.021 . S
Co112 O124 2.137 . S
Co112 O125 2.244 . S
O113 Co112 2.216 . S
O113 C120 1.247 . S
O114 Co112 2.091 . S
O114 C120 1.261 . S
C115 O124 1.247 . S
C115 O125 1.272 . S
O116 Co112 2.004 . S
O116 C121 1.259 . S
Co117 O118 2.061 . S
Co117 O123 2.052 . S
Co117 O125 2.135 . S
O118 Co117 2.061 . S
O118 C121 1.235 . S
C119 O122 1.238 . S
C119 O123 1.241 . S
C120 O113 1.247 . S
C120 O114 1.261 . S
C121 O116 1.259 . S
C121 O118 1.235 . S
O122 Co112 2.021 . S
O122 C119 1.238 . S
O123 Co117 2.052 . S
O123 C119 1.241 . S
O124 Co112 2.137 . S
O124 C115 1.247 . S
O125 Co112 2.244 . S
O125 C115 1.272 . S
O125 Co117 2.135 . S
Co126 O127 2.216 . S
Co126 O128 2.091 . S
Co126 O130 2.004 . S
Co126 O136 2.021 . S
Co126 O138 2.137 . S
Co126 O139 2.244 . S
O127 Co126 2.216 . S
O127 C134 1.247 . S
O128 Co126 2.091 . S
O128 C134 1.261 . S
C129 O138 1.247 . S
C129 O139 1.272 . S
O130 Co126 2.004 . S
O130 C135 1.259 . S
Co131 O132 2.061 . S
Co131 O137 2.052 . S
Co131 O139 2.135 . S
O132 Co131 2.061 . S
O132 C135 1.235 . S
C133 O136 1.238 . S
C133 O137 1.241 . S
C134 O127 1.247 . S
C134 O128 1.261 . S
C135 O130 1.259 . S
C135 O132 1.235 . S
O136 Co126 2.021 . S
O136 C133 1.238 . S
O137 Co131 2.052 . S
O137 C133 1.241 . S
O138 Co126 2.137 . S
O138 C129 1.247 . S
O139 Co126 2.244 . S
O139 C129 1.272 . S
O139 Co131 2.135 . S
Co140 O141 2.216 . S
Co140 O142 2.091 . S
Co140 O144 2.004 . S
Co140 O150 2.021 . S
Co140 O152 2.137 . S
Co140 O153 2.244 . S
O141 Co140 2.216 . S
O141 C148 1.247 . S
O142 Co140 2.091 . S
O142 C148 1.261 . S
C143 O152 1.247 . S
C143 O153 1.272 . S
O144 Co140 2.004 . S
O144 C149 1.259 . S
Co145 O146 2.061 . S
Co145 O151 2.052 . S
Co145 O153 2.135 . S
O146 Co145 2.061 . S
O146 C149 1.235 . S
C147 O150 1.238 . S
C147 O151 1.241 . S
C148 O141 1.247 . S
C148 O142 1.261 . S
C149 O144 1.259 . S
C149 O146 1.235 . S
O150 Co140 2.021 . S
O150 C147 1.238 . S
O151 Co145 2.052 . S
O151 C147 1.241 . S
O152 Co140 2.137 . S
O152 C143 1.247 . S
O153 Co140 2.244 . S
O153 C143 1.272 . S
O153 Co145 2.135 . S
Co154 O155 2.216 . S
Co154 O156 2.091 . S
Co154 O158 2.004 . S
Co154 O164 2.021 . S
Co154 O166 2.137 . S
Co154 O167 2.244 . S
O155 Co154 2.216 . S
O155 C162 1.247 . S
O156 Co154 2.091 . S
O156 C162 1.261 . S
C157 O166 1.247 . S
C157 O167 1.272 . S
O158 Co154 2.004 . S
O158 C163 1.259 . S
Co159 O160 2.061 . S
Co159 O165 2.052 . S
Co159 O167 2.135 . S
O160 Co159 2.061 . S
O160 C163 1.235 . S
C161 O164 1.238 . S
C161 O165 1.241 . S
C162 O155 1.247 . S
C162 O156 1.261 . S
C163 O158 1.259 . S
C163 O160 1.235 . S
O164 Co154 2.021 . S
O164 C161 1.238 . S
O165 Co159 2.052 . S
O165 C161 1.241 . S
O166 Co154 2.137 . S
O166 C157 1.247 . S
O167 Co154 2.244 . S
O167 C157 1.272 . S
O167 Co159 2.135 . S
Co168 O169 2.216 . S
Co168 O170 2.091 . S
Co168 O172 2.004 . S
Co168 O178 2.021 . S
Co168 O180 2.137 . S
Co168 O181 2.244 . S
O169 Co168 2.216 . S
O169 C176 1.247 . S
O170 Co168 2.091 . S
O170 C176 1.261 . S
C171 O180 1.247 . S
C171 O181 1.272 . S
O172 Co168 2.004 . S
O172 C177 1.259 . S
Co173 O174 2.061 . S
Co173 O179 2.052 . S
Co173 O181 2.135 . S
O174 Co173 2.061 . S
O174 C177 1.235 . S
C175 O178 1.238 . S
C175 O179 1.241 . S
C176 O169 1.247 . S
C176 O170 1.261 . S
C177 O172 1.259 . S
C177 O174 1.235 . S
O178 Co168 2.021 . S
O178 C175 1.238 . S
O179 Co173 2.052 . S
O179 C175 1.241 . S
O180 Co168 2.137 . S
O180 C171 1.247 . S
O181 Co168 2.244 . S
O181 C171 1.272 . S
O181 Co173 2.135 . S
Co182 O183 2.216 . S
Co182 O184 2.091 . S
Co182 O186 2.004 . S
Co182 O192 2.021 . S
Co182 O194 2.137 . S
Co182 O195 2.244 . S
O183 Co182 2.216 . S
O183 C190 1.247 . S
O184 Co182 2.091 . S
O184 C190 1.261 . S
C185 O194 1.247 . S
C185 O195 1.272 . S
O186 Co182 2.004 . S
O186 C191 1.259 . S
Co187 O188 2.061 . S
Co187 O193 2.052 . S
Co187 O195 2.135 . S
O188 Co187 2.061 . S
O188 C191 1.235 . S
C189 O192 1.238 . S
C189 O193 1.241 . S
C190 O183 1.247 . S
C190 O184 1.261 . S
C191 O186 1.259 . S
C191 O188 1.235 . S
O192 Co182 2.021 . S
O192 C189 1.238 . S
O193 Co187 2.052 . S
O193 C189 1.241 . S
O194 Co182 2.137 . S
O194 C185 1.247 . S
O195 Co182 2.244 . S
O195 C185 1.272 . S
O195 Co187 2.135 . S
Co196 O197 2.216 . S
Co196 O198 2.091 . S
Co196 O200 2.004 . S
Co196 O206 2.021 . S
Co196 O208 2.137 . S
Co196 O209 2.244 . S
O197 Co196 2.216 . S
O197 C204 1.247 . S
O198 Co196 2.091 . S
O198 C204 1.261 . S
C199 O208 1.247 . S
C199 O209 1.272 . S
O200 Co196 2.004 . S
O200 C205 1.259 . S
Co201 O202 2.061 . S
Co201 O207 2.052 . S
Co201 O209 2.135 . S
O202 Co201 2.061 . S
O202 C205 1.235 . S
C203 O206 1.238 . S
C203 O207 1.241 . S
C204 O197 1.247 . S
C204 O198 1.261 . S
C205 O200 1.259 . S
C205 O202 1.235 . S
O206 Co196 2.021 . S
O206 C203 1.238 . S
O207 Co201 2.052 . S
O207 C203 1.241 . S
O208 Co196 2.137 . S
O208 C199 1.247 . S
O209 Co196 2.244 . S
O209 C199 1.272 . S
O209 Co201 2.135 . S
Co210 O211 2.216 . S
Co210 O212 2.091 . S
Co210 O214 2.004 . S
Co210 O220 2.021 . S
Co210 O222 2.137 . S
Co210 O223 2.244 . S
O211 Co210 2.216 . S
O211 C218 1.247 . S
O212 Co210 2.091 . S
O212 C218 1.261 . S
C213 O222 1.247 . S
C213 O223 1.272 . S
O214 Co210 2.004 . S
O214 C219 1.259 . S
Co215 O216 2.061 . S
Co215 O221 2.052 . S
Co215 O223 2.135 . S
O216 Co215 2.061 . S
O216 C219 1.235 . S
C217 O220 1.238 . S
C217 O221 1.241 . S
C218 O211 1.247 . S
C218 O212 1.261 . S
C219 O214 1.259 . S
C219 O216 1.235 . S
O220 Co210 2.021 . S
O220 C217 1.238 . S
O221 Co215 2.052 . S
O221 C217 1.241 . S
O222 Co210 2.137 . S
O222 C213 1.247 . S
O223 Co210 2.244 . S
O223 C213 1.272 . S
O223 Co215 2.135 . S
H224 C232 0.929 . S
H225 C234 0.930 . S
H226 C236 0.930 . S
H227 C239 0.929 . S
H228 C242 0.930 . S
H229 C244 0.960 . S
H230 C244 0.960 . S
H231 C244 0.960 . S
C232 H224 0.929 . S
C232 C233 1.377 . S
C232 C234 1.384 . S
C233 C232 1.377 . S
C233 C239 1.390 . S
C234 H225 0.930 . S
C234 C232 1.384 . S
C234 C235 1.372 . S
C235 C234 1.372 . S
C235 C236 1.400 . S
C235 C240 1.490 . S
C236 H226 0.930 . S
C236 C235 1.400 . S
C236 C239 1.386 . S
H237 C253 0.930 . S
H238 C254 0.931 . S
C239 H227 0.929 . S
C239 C233 1.390 . S
C239 C236 1.386 . S
C240 C235 1.490 . S
C240 C242 1.395 . S
C240 C243 1.403 . S
H241 C247 0.930 . S
C242 H228 0.930 . S
C242 C240 1.395 . S
C242 C245 1.403 . S
C243 C240 1.403 . S
C243 C244 1.524 . S
C243 C247 1.400 . S
C244 H229 0.960 . S
C244 H230 0.960 . S
C244 H231 0.960 . S
C244 C243 1.524 . S
C245 C242 1.403 . S
C245 C246 1.392 . S
C245 C249 1.495 . S
C246 C245 1.392 . S
C246 C247 1.385 . S
C246 C248 1.478 . S
C247 H241 0.930 . S
C247 C243 1.400 . S
C247 C246 1.385 . S
C248 C246 1.478 . S
C248 C250 1.381 . S
C248 C254 1.383 . S
C249 C245 1.495 . S
C249 H255 0.959 . S
C249 H256 0.961 . S
C249 H257 0.960 . S
C250 C248 1.381 . S
C250 C251 1.394 . S
C250 H258 0.930 . S
C251 C250 1.394 . S
C251 C252 1.383 . S
C251 H259 0.929 . S
C252 C251 1.383 . S
C252 C253 1.377 . S
C253 H237 0.930 . S
C253 C252 1.377 . S
C253 C254 1.379 . S
C254 H238 0.931 . S
C254 C248 1.383 . S
C254 C253 1.379 . S
H255 C249 0.959 . S
H256 C249 0.961 . S
H257 C249 0.960 . S
H258 C250 0.930 . S
H259 C251 0.929 . S
H260 C268 0.929 . S
H261 C270 0.930 . S
H262 C272 0.930 . S
H263 C275 0.929 . S
H264 C278 0.930 . S
H265 C280 0.960 . S
H266 C280 0.960 . S
H267 C280 0.960 . S
C268 H260 0.929 . S
C268 C269 1.377 . S
C268 C270 1.384 . S
C269 C268 1.377 . S
C269 C275 1.390 . S
C270 H261 0.930 . S
C270 C268 1.384 . S
C270 C271 1.372 . S
C271 C270 1.372 . S
C271 C272 1.400 . S
C271 C276 1.490 . S
C272 H262 0.930 . S
C272 C271 1.400 . S
C272 C275 1.386 . S
H273 C289 0.930 . S
H274 C290 0.931 . S
C275 H263 0.929 . S
C275 C269 1.390 . S
C275 C272 1.386 . S
C276 C271 1.490 . S
C276 C278 1.395 1_655 S
C276 C279 1.403 1_565 S
H277 C283 0.929 1_655 S
C278 H264 0.930 . S
C278 C276 1.395 1_455 S
C278 C281 1.403 . S
C279 C276 1.403 1_545 S
C279 C280 1.524 . S
C279 C283 1.389 1_655 S
C280 H265 0.960 . S
C280 H266 0.960 . S
C280 H267 0.960 . S
C280 C279 1.524 . S
C281 C278 1.403 . S
C281 C282 1.392 1_565 S
C281 C285 1.495 . S
C282 C281 1.392 1_545 S
C282 C283 1.397 . S
C282 C284 1.478 . S
C283 H277 0.929 1_455 S
C283 C279 1.389 1_455 S
C283 C282 1.397 . S
C284 C282 1.478 . S
C284 C286 1.381 . S
C284 C290 1.383 . S
C285 C281 1.495 . S
C285 H291 0.959 . S
C285 H292 0.961 . S
C285 H293 0.960 . S
C286 C284 1.381 . S
C286 C287 1.394 . S
C286 H294 0.930 . S
C287 C286 1.394 . S
C287 C288 1.383 . S
C287 H295 0.929 . S
C288 C287 1.383 . S
C288 C289 1.377 . S
C289 H273 0.930 . S
C289 C288 1.377 . S
C289 C290 1.379 . S
C290 H274 0.931 . S
C290 C284 1.383 . S
C290 C289 1.379 . S
H291 C285 0.959 . S
H292 C285 0.961 . S
H293 C285 0.960 . S
H294 C286 0.930 . S
H295 C287 0.929 . S
H296 C304 0.929 . S
H297 C306 0.928 1_545 S
H298 C308 0.930 . S
H299 C311 0.929 . S
H300 C314 0.930 . S
H301 C316 0.960 . S
H302 C316 0.960 . S
H303 C316 0.960 1_565 S
C304 H296 0.929 . S
C304 C305 1.377 . S
C304 C306 1.384 . S
C305 C304 1.377 . S
C305 C311 1.390 . S
C306 H297 0.928 1_565 S
C306 C304 1.384 . S
C306 C307 1.372 . S
C307 C306 1.372 . S
C307 C308 1.400 . S
C307 C312 1.490 . S
C308 H298 0.930 . S
C308 C307 1.400 . S
C308 C311 1.386 . S
H309 C325 0.930 . S
H310 C326 0.931 1_565 S
C311 H299 0.929 . S
C311 C305 1.390 . S
C311 C308 1.386 . S
C312 C307 1.490 . S
C312 C314 1.395 . S
C312 C315 1.403 1_565 S
H313 C319 0.930 . S
C314 H300 0.930 . S
C314 C312 1.395 . S
C314 C317 1.403 . S
C315 C312 1.403 1_545 S
C315 C316 1.524 . S
C315 C319 1.400 . S
C316 H301 0.960 . S
C316 H302 0.960 . S
C316 H303 0.960 1_545 S
C316 C315 1.524 . S
C317 C314 1.403 . S
C317 C318 1.392 1_565 S
C317 C321 1.495 . S
C318 C317 1.392 1_545 S
C318 C319 1.385 . S
C318 C320 1.478 . S
C319 H313 0.930 . S
C319 C315 1.400 . S
C319 C318 1.385 . S
C320 C318 1.478 . S
C320 C322 1.381 . S
C320 C326 1.383 . S
C321 C317 1.495 . S
C321 H327 0.959 . S
C321 H328 0.961 . S
C321 H329 0.960 1_565 S
C322 C320 1.381 . S
C322 C323 1.394 . S
C322 H330 0.930 . S
C323 C322 1.394 . S
C323 C324 1.383 . S
C323 H331 0.929 . S
C324 C323 1.383 . S
C324 C325 1.377 . S
C325 H309 0.930 . S
C325 C324 1.377 . S
C325 C326 1.379 . S
C326 H310 0.931 1_545 S
C326 C320 1.383 . S
C326 C325 1.379 . S
H327 C321 0.959 . S
H328 C321 0.961 . S
H329 C321 0.960 1_545 S
H330 C322 0.930 . S
H331 C323 0.929 . S
H332 C340 0.929 . S
H333 C342 0.930 . S
H334 C344 0.930 . S
H335 C347 0.929 . S
H336 C350 0.930 . S
H337 C352 0.960 . S
H338 C352 0.960 . S
H339 C352 0.960 . S
C340 H332 0.929 . S
C340 C341 1.377 . S
C340 C342 1.384 . S
C341 C340 1.377 . S
C341 C347 1.390 . S
C342 H333 0.930 . S
C342 C340 1.384 . S
C342 C343 1.372 . S
C343 C342 1.372 . S
C343 C344 1.400 . S
C343 C348 1.490 . S
C344 H334 0.930 . S
C344 C343 1.400 . S
C344 C347 1.386 . S
H345 C361 0.930 . S
H346 C362 0.931 . S
C347 H335 0.929 . S
C347 C341 1.390 . S
C347 C344 1.386 . S
C348 C343 1.490 . S
C348 C350 1.395 . S
C348 C351 1.403 1_455 S
H349 C355 0.930 . S
C350 H336 0.930 . S
C350 C348 1.395 . S
C350 C353 1.403 . S
C351 C348 1.403 1_655 S
C351 C352 1.524 . S
C351 C355 1.400 . S
C352 H337 0.960 . S
C352 H338 0.960 . S
C352 H339 0.960 . S
C352 C351 1.524 . S
C353 C350 1.403 . S
C353 C354 1.392 1_455 S
C353 C357 1.495 . S
C354 C353 1.392 1_655 S
C354 C355 1.385 . S
C354 C356 1.478 . S
C355 H349 0.930 . S
C355 C351 1.400 . S
C355 C354 1.385 . S
C356 C354 1.478 . S
C356 C358 1.381 . S
C356 C362 1.383 . S
C357 C353 1.495 . S
C357 H363 0.959 . S
C357 H364 0.961 . S
C357 H365 0.960 . S
C358 C356 1.381 . S
C358 C359 1.394 . S
C358 H366 0.930 . S
C359 C358 1.394 . S
C359 C360 1.383 . S
C359 H367 0.929 . S
C360 C359 1.383 . S
C360 C361 1.377 . S
C361 H345 0.930 . S
C361 C360 1.377 . S
C361 C362 1.379 . S
C362 H346 0.931 . S
C362 C356 1.383 . S
C362 C361 1.379 . S
H363 C357 0.959 . S
H364 C357 0.961 . S
H365 C357 0.960 . S
H366 C358 0.930 . S
H367 C359 0.929 . S
H368 C376 0.929 . S
H369 C378 0.930 . S
H370 C380 0.930 . S
H371 C383 0.929 . S
H372 C386 0.930 . S
H373 C388 0.960 . S
H374 C388 0.960 . S
H375 C388 0.960 . S
C376 H368 0.929 . S
C376 C377 1.377 . S
C376 C378 1.384 . S
C377 C376 1.377 . S
C377 C383 1.390 . S
C378 H369 0.930 . S
C378 C376 1.384 . S
C378 C379 1.372 . S
C379 C378 1.372 . S
C379 C380 1.400 . S
C379 C384 1.490 . S
C380 H370 0.930 . S
C380 C379 1.400 . S
C380 C383 1.386 . S
H381 C397 0.930 . S
H382 C398 0.931 . S
C383 H371 0.929 . S
C383 C377 1.390 . S
C383 C380 1.386 . S
C384 C379 1.490 . S
C384 C386 1.395 . S
C384 C387 1.403 . S
H385 C391 0.930 . S
C386 H372 0.930 . S
C386 C384 1.395 . S
C386 C389 1.403 . S
C387 C384 1.403 . S
C387 C388 1.524 . S
C387 C391 1.400 . S
C388 H373 0.960 . S
C388 H374 0.960 . S
C388 H375 0.960 . S
C388 C387 1.524 . S
C389 C386 1.403 . S
C389 C390 1.392 . S
C389 C393 1.495 . S
C390 C389 1.392 . S
C390 C391 1.385 . S
C390 C392 1.478 . S
C391 H385 0.930 . S
C391 C387 1.400 . S
C391 C390 1.385 . S
C392 C390 1.478 . S
C392 C394 1.381 . S
C392 C398 1.383 . S
C393 C389 1.495 . S
C393 H399 0.959 . S
C393 H400 0.961 . S
C393 H401 0.960 . S
C394 C392 1.381 . S
C394 C395 1.394 . S
C394 H402 0.930 . S
C395 C394 1.394 . S
C395 C396 1.383 . S
C395 H403 0.929 . S
C396 C395 1.383 . S
C396 C397 1.377 . S
C397 H381 0.930 . S
C397 C396 1.377 . S
C397 C398 1.379 . S
C398 H382 0.931 . S
C398 C392 1.383 . S
C398 C397 1.379 . S
H399 C393 0.959 . S
H400 C393 0.961 . S
H401 C393 0.960 . S
H402 C394 0.930 . S
H403 C395 0.929 . S
H404 C412 0.929 . S
H405 C414 0.930 . S
H406 C416 0.930 . S
H407 C419 0.929 . S
H408 C422 0.930 . S
H409 C424 0.960 . S
H410 C424 0.960 . S
H411 C424 0.960 . S
C412 H404 0.929 . S
C412 C413 1.377 . S
C412 C414 1.384 . S
C413 C412 1.377 . S
C413 C419 1.390 . S
C414 H405 0.930 . S
C414 C412 1.384 . S
C414 C415 1.372 . S
C415 C414 1.372 . S
C415 C416 1.400 . S
C415 C420 1.490 . S
C416 H406 0.930 . S
C416 C415 1.400 . S
C416 C419 1.386 . S
H417 C433 0.930 . S
H418 C434 0.931 . S
C419 H407 0.929 . S
C419 C413 1.390 . S
C419 C416 1.386 . S
C420 C415 1.490 . S
C420 C422 1.395 1_545 S
C420 C423 1.403 . S
H421 C427 0.930 . S
C422 H408 0.930 . S
C422 C420 1.395 1_565 S
C422 C425 1.403 . S
C423 C420 1.403 . S
C423 C424 1.524 . S
C423 C427 1.400 . S
C424 H409 0.960 . S
C424 H410 0.960 . S
C424 H411 0.960 . S
C424 C423 1.524 . S
C425 C422 1.403 . S
C425 C426 1.392 . S
C425 C429 1.495 . S
C426 C425 1.392 . S
C426 C427 1.385 1_565 S
C426 C428 1.478 . S
C427 H421 0.930 . S
C427 C423 1.400 . S
C427 C426 1.385 1_545 S
C428 C426 1.478 . S
C428 C430 1.381 . S
C428 C434 1.383 . S
C429 C425 1.495 . S
C429 H435 0.959 . S
C429 H436 0.961 . S
C429 H437 0.960 . S
C430 C428 1.381 . S
C430 C431 1.394 . S
C430 H438 0.930 . S
C431 C430 1.394 . S
C431 C432 1.383 . S
C431 H439 0.929 . S
C432 C431 1.383 . S
C432 C433 1.377 . S
C433 H417 0.930 . S
C433 C432 1.377 . S
C433 C434 1.379 . S
C434 H418 0.931 . S
C434 C428 1.383 . S
C434 C433 1.379 . S
H435 C429 0.959 . S
H436 C429 0.961 . S
H437 C429 0.960 . S
H438 C430 0.930 . S
H439 C431 0.929 . S
H440 C448 0.929 . S
H441 C450 0.930 . S
H442 C452 0.930 . S
H443 C455 0.929 . S
H444 C458 0.930 . S
H445 C460 0.960 . S
H446 C460 0.960 . S
H447 C460 0.960 . S
C448 H440 0.929 . S
C448 C449 1.377 . S
C448 C450 1.384 . S
C449 C448 1.377 . S
C449 C455 1.390 . S
C450 H441 0.930 . S
C450 C448 1.384 . S
C450 C451 1.372 . S
C451 C450 1.372 . S
C451 C452 1.400 . S
C451 C456 1.490 . S
C452 H442 0.930 . S
C452 C451 1.400 . S
C452 C455 1.386 . S
H453 C469 0.930 . S
H454 C470 0.931 . S
C455 H443 0.929 . S
C455 C449 1.390 . S
C455 C452 1.386 . S
C456 C451 1.490 . S
C456 C458 1.395 1_655 S
C456 C459 1.403 . S
H457 C463 0.929 1_655 S
C458 H444 0.930 . S
C458 C456 1.395 1_455 S
C458 C461 1.403 . S
C459 C456 1.403 . S
C459 C460 1.524 . S
C459 C463 1.388 1_655 S
C460 H445 0.960 . S
C460 H446 0.960 . S
C460 H447 0.960 . S
C460 C459 1.524 . S
C461 C458 1.403 . S
C461 C462 1.392 . S
C461 C465 1.495 . S
C462 C461 1.392 . S
C462 C463 1.398 . S
C462 C464 1.478 . S
C463 H457 0.929 1_455 S
C463 C459 1.388 1_455 S
C463 C462 1.398 . S
C464 C462 1.478 . S
C464 C466 1.381 . S
C464 C470 1.383 . S
C465 C461 1.495 . S
C465 H471 0.959 . S
C465 H472 0.961 . S
C465 H473 0.960 . S
C466 C464 1.381 . S
C466 C467 1.394 . S
C466 H474 0.930 . S
C467 C466 1.394 . S
C467 C468 1.383 . S
C467 H475 0.929 . S
C468 C467 1.383 . S
C468 C469 1.377 . S
C469 H453 0.930 . S
C469 C468 1.377 . S
C469 C470 1.379 . S
C470 H454 0.931 . S
C470 C464 1.383 . S
C470 C469 1.379 . S
H471 C465 0.959 . S
H472 C465 0.961 . S
H473 C465 0.960 . S
H474 C466 0.930 . S
H475 C467 0.929 . S
H476 C484 0.929 . S
H477 C486 0.930 . S
H478 C488 0.930 . S
H479 C491 0.929 . S
H480 C494 0.930 . S
H481 C496 0.960 . S
H482 C496 0.960 . S
H483 C496 0.960 . S
C484 H476 0.929 . S
C484 C485 1.377 . S
C484 C486 1.384 . S
C485 C484 1.377 . S
C485 C491 1.390 . S
C486 H477 0.930 . S
C486 C484 1.384 . S
C486 C487 1.372 . S
C487 C486 1.372 . S
C487 C488 1.400 . S
C487 C492 1.490 . S
C488 H478 0.930 . S
C488 C487 1.400 . S
C488 C491 1.386 . S
H489 C505 0.930 . S
H490 C506 0.931 . S
C491 H479 0.929 . S
C491 C485 1.390 . S
C491 C488 1.386 . S
C492 C487 1.490 . S
C492 C494 1.395 . S
C492 C495 1.403 . S
H493 C499 0.930 . S
C494 H480 0.930 . S
C494 C492 1.395 . S
C494 C497 1.403 1_554 S
C495 C492 1.403 . S
C495 C496 1.524 . S
C495 C499 1.400 1_554 S
C496 H481 0.960 . S
C496 H482 0.960 . S
C496 H483 0.960 . S
C496 C495 1.524 . S
C497 C494 1.403 1_556 S
C497 C498 1.392 . S
C497 C501 1.495 . S
C498 C497 1.392 . S
C498 C499 1.385 . S
C498 C500 1.478 . S
C499 H493 0.930 . S
C499 C495 1.400 1_556 S
C499 C498 1.385 . S
C500 C498 1.478 . S
C500 C502 1.381 . S
C500 C506 1.383 . S
C501 C497 1.495 . S
C501 H507 0.959 . S
C501 H508 0.961 . S
C501 H509 0.960 . S
C502 C500 1.381 . S
C502 C503 1.394 . S
C502 H510 0.930 . S
C503 C502 1.394 . S
C503 C504 1.383 . S
C503 H511 0.929 . S
C504 C503 1.383 . S
C504 C505 1.377 . S
C505 H489 0.930 . S
C505 C504 1.377 . S
C505 C506 1.379 . S
C506 H490 0.931 . S
C506 C500 1.383 . S
C506 C505 1.379 . S
H507 C501 0.959 . S
H508 C501 0.961 . S
H509 C501 0.960 . S
H510 C502 0.930 . S
H511 C503 0.929 . S
H512 C520 0.929 . S
H513 C522 0.930 . S
H514 C524 0.930 . S
H515 C527 0.929 . S
H516 C530 0.930 . S
H517 C532 0.960 . S
H518 C532 0.960 . S
H519 C532 0.960 . S
C520 H512 0.929 . S
C520 C521 1.377 . S
C520 C522 1.384 . S
C521 C520 1.377 . S
C521 C527 1.390 . S
C522 H513 0.930 . S
C522 C520 1.384 . S
C522 C523 1.372 . S
C523 C522 1.372 . S
C523 C524 1.400 . S
C523 C528 1.490 . S
C524 H514 0.930 . S
C524 C523 1.400 . S
C524 C527 1.386 . S
H525 C541 0.930 . S
H526 C542 0.931 . S
C527 H515 0.929 . S
C527 C521 1.390 . S
C527 C524 1.386 . S
C528 C523 1.490 . S
C528 C530 1.395 1_455 S
C528 C531 1.403 1_556 S
H529 C535 0.930 . S
C530 H516 0.930 . S
C530 C528 1.395 1_655 S
C530 C533 1.403 . S
C531 C528 1.403 1_554 S
C531 C532 1.524 . S
C531 C535 1.400 . S
C532 H517 0.960 . S
C532 H518 0.960 . S
C532 H519 0.960 . S
C532 C531 1.524 . S
C533 C530 1.403 . S
C533 C534 1.392 1_556 S
C533 C537 1.495 . S
C534 C533 1.392 1_554 S
C534 C535 1.385 1_655 S
C534 C536 1.478 . S
C535 H529 0.930 . S
C535 C531 1.400 . S
C535 C534 1.385 1_455 S
C536 C534 1.478 . S
C536 C538 1.381 . S
C536 C542 1.383 . S
C537 C533 1.495 . S
C537 H543 0.959 . S
C537 H544 0.961 . S
C537 H545 0.960 . S
C538 C536 1.381 . S
C538 C539 1.394 . S
C538 H546 0.930 . S
C539 C538 1.394 . S
C539 C540 1.383 . S
C539 H547 0.929 . S
C540 C539 1.383 . S
C540 C541 1.377 . S
C541 H525 0.930 . S
C541 C540 1.377 . S
C541 C542 1.379 . S
C542 H526 0.931 . S
C542 C536 1.383 . S
C542 C541 1.379 . S
H543 C537 0.959 . S
H544 C537 0.961 . S
H545 C537 0.960 . S
H546 C538 0.930 . S
H547 C539 0.929 . S
H548 C556 0.929 . S
H549 C558 0.930 . S
H550 C560 0.930 . S
H551 C563 0.929 . S
H552 C566 0.930 . S
H553 C568 0.960 . S
H554 C568 0.960 . S
H555 C568 0.960 . S
C556 H548 0.929 . S
C556 C557 1.377 . S
C556 C558 1.384 . S
C557 C556 1.377 . S
C557 C563 1.390 . S
C558 H549 0.930 . S
C558 C556 1.384 . S
C558 C559 1.372 . S
C559 C558 1.372 . S
C559 C560 1.400 . S
C559 C564 1.490 . S
C560 H550 0.930 . S
C560 C559 1.400 . S
C560 C563 1.386 . S
H561 C577 0.930 . S
H562 C578 0.931 . S
C563 H551 0.929 . S
C563 C557 1.390 . S
C563 C560 1.386 . S
C564 C559 1.490 . S
C564 C566 1.395 . S
C564 C567 1.403 . S
H565 C571 0.930 . S
C566 H552 0.930 . S
C566 C564 1.395 . S
C566 C569 1.403 . S
C567 C564 1.403 . S
C567 C568 1.524 . S
C567 C571 1.400 . S
C568 H553 0.960 . S
C568 H554 0.960 . S
C568 H555 0.960 . S
C568 C567 1.524 . S
C569 C566 1.403 . S
C569 C570 1.392 . S
C569 C573 1.495 . S
C570 C569 1.392 . S
C570 C571 1.385 . S
C570 C572 1.478 . S
C571 H565 0.930 . S
C571 C567 1.400 . S
C571 C570 1.385 . S
C572 C570 1.478 . S
C572 C574 1.381 . S
C572 C578 1.383 . S
C573 C569 1.495 . S
C573 H579 0.959 . S
C573 H580 0.961 . S
C573 H581 0.960 . S
C574 C572 1.381 . S
C574 C575 1.394 . S
C574 H582 0.930 . S
C575 C574 1.394 . S
C575 C576 1.383 . S
C575 H583 0.929 . S
C576 C575 1.383 . S
C576 C577 1.377 . S
C577 H561 0.930 . S
C577 C576 1.377 . S
C577 C578 1.379 . S
C578 H562 0.931 . S
C578 C572 1.383 . S
C578 C577 1.379 . S
H579 C573 0.959 . S
H580 C573 0.961 . S
H581 C573 0.960 . S
H582 C574 0.930 . S
H583 C575 0.929 . S
H584 C592 0.929 . S
H585 C594 0.930 . S
H586 C596 0.930 . S
H587 C599 0.929 . S
H588 C602 0.930 . S
H589 C604 0.921 1_554 S
H590 C604 0.960 . S
H591 C604 0.960 . S
C592 H584 0.929 . S
C592 C593 1.377 . S
C592 C594 1.384 . S
C593 C592 1.377 . S
C593 C599 1.390 . S
C594 H585 0.930 . S
C594 C592 1.384 . S
C594 C595 1.372 . S
C595 C594 1.372 . S
C595 C596 1.400 . S
C595 C600 1.490 . S
C596 H586 0.930 . S
C596 C595 1.400 . S
C596 C599 1.386 . S
H597 C613 0.930 . S
H598 C614 0.931 . S
C599 H587 0.929 . S
C599 C593 1.390 . S
C599 C596 1.386 . S
C600 C595 1.490 . S
C600 C602 1.395 . S
C600 C603 1.403 . S
H601 C607 0.930 . S
C602 H588 0.930 . S
C602 C600 1.395 . S
C602 C605 1.403 1_556 S
C603 C600 1.403 . S
C603 C604 1.524 . S
C603 C607 1.400 1_556 S
C604 H589 0.921 1_556 S
C604 H590 0.960 . S
C604 H591 0.960 . S
C604 C603 1.524 . S
C605 C602 1.403 1_554 S
C605 C606 1.392 . S
C605 C609 1.495 . S
C606 C605 1.392 . S
C606 C607 1.385 . S
C606 C608 1.478 . S
C607 H601 0.930 . S
C607 C603 1.400 1_554 S
C607 C606 1.385 . S
C608 C606 1.478 . S
C608 C610 1.381 . S
C608 C614 1.383 . S
C609 C605 1.495 . S
C609 H615 0.959 1_554 S
C609 H616 0.961 . S
C609 H617 0.986 . S
C610 C608 1.381 . S
C610 C611 1.394 . S
C610 H618 0.930 . S
C611 C610 1.394 . S
C611 C612 1.383 . S
C611 H619 0.929 . S
C612 C611 1.383 . S
C612 C613 1.377 . S
C613 H597 0.930 . S
C613 C612 1.377 . S
C613 C614 1.379 . S
C614 H598 0.931 . S
C614 C608 1.383 . S
C614 C613 1.379 . S
H615 C609 0.959 1_556 S
H616 C609 0.961 . S
H617 C609 0.986 . S
H618 C610 0.930 . S
H619 C611 0.929 . S
H620 C628 0.929 . S
H621 C630 0.930 . S
H622 C632 0.930 . S
H623 C635 0.929 . S
H624 C638 0.930 . S
H625 C640 0.960 . S
H626 C640 0.960 . S
H627 C640 0.960 . S
C628 H620 0.929 . S
C628 C629 1.377 . S
C628 C630 1.384 . S
C629 C628 1.377 . S
C629 C635 1.390 . S
C630 H621 0.930 . S
C630 C628 1.384 . S
C630 C631 1.372 . S
C631 C630 1.372 . S
C631 C632 1.400 . S
C631 C636 1.490 . S
C632 H622 0.930 . S
C632 C631 1.400 . S
C632 C635 1.386 . S
H633 C649 0.930 . S
H634 C650 0.931 . S
C635 H623 0.929 . S
C635 C629 1.390 . S
C635 C632 1.386 . S
C636 C631 1.490 . S
C636 C638 1.395 . S
C636 C639 1.403 . S
H637 C643 0.930 . S
C638 H624 0.930 . S
C638 C636 1.395 . S
C638 C641 1.403 . S
C639 C636 1.403 . S
C639 C640 1.524 . S
C639 C643 1.400 . S
C640 H625 0.960 . S
C640 H626 0.960 . S
C640 H627 0.960 . S
C640 C639 1.524 . S
C641 C638 1.403 . S
C641 C642 1.392 . S
C641 C645 1.495 . S
C642 C641 1.392 . S
C642 C643 1.385 . S
C642 C644 1.478 . S
C643 H637 0.930 . S
C643 C639 1.400 . S
C643 C642 1.385 . S
C644 C642 1.478 . S
C644 C646 1.381 . S
C644 C650 1.383 . S
C645 C641 1.495 . S
C645 H651 0.959 . S
C645 H652 0.961 . S
C645 H653 0.960 . S
C646 C644 1.381 . S
C646 C647 1.394 . S
C646 H654 0.930 . S
C647 C646 1.394 . S
C647 C648 1.383 . S
C647 H655 0.929 . S
C648 C647 1.383 . S
C648 C649 1.377 . S
C649 H633 0.930 . S
C649 C648 1.377 . S
C649 C650 1.379 . S
C650 H634 0.931 . S
C650 C644 1.383 . S
C650 C649 1.379 . S
H651 C645 0.959 . S
H652 C645 0.961 . S
H653 C645 0.960 . S
H654 C646 0.930 . S
H655 C647 0.929 . S
H656 C664 0.929 . S
H657 C666 0.930 . S
H658 C668 0.930 . S
H659 C671 0.929 . S
H660 C674 0.930 . S
H661 C676 0.960 . S
H662 C676 0.960 . S
H663 C676 0.960 . S
C664 H656 0.929 . S
C664 C665 1.377 . S
C664 C666 1.384 . S
C665 C664 1.377 . S
C665 C671 1.390 . S
C666 H657 0.930 . S
C666 C664 1.384 . S
C666 C667 1.372 . S
C667 C666 1.372 . S
C667 C668 1.400 . S
C667 C672 1.490 . S
C668 H658 0.930 . S
C668 C667 1.400 . S
C668 C671 1.386 . S
H669 C685 0.930 . S
H670 C686 0.931 . S
C671 H659 0.929 . S
C671 C665 1.390 . S
C671 C668 1.386 . S
C672 C667 1.490 . S
C672 C674 1.395 1_545 S
C672 C675 1.403 1_556 S
H673 C679 0.930 . S
C674 H660 0.930 . S
C674 C672 1.395 1_565 S
C674 C677 1.403 . S
C675 C672 1.403 1_554 S
C675 C676 1.524 . S
C675 C679 1.400 . S
C676 H661 0.960 . S
C676 H662 0.960 . S
C676 H663 0.960 . S
C676 C675 1.524 . S
C677 C674 1.403 . S
C677 C678 1.392 1_556 S
C677 C681 1.495 . S
C678 C677 1.392 1_554 S
C678 C679 1.385 1_565 S
C678 C680 1.478 . S
C679 H673 0.930 . S
C679 C675 1.400 . S
C679 C678 1.385 1_545 S
C680 C678 1.478 . S
C680 C682 1.381 . S
C680 C686 1.383 . S
C681 C677 1.495 . S
C681 H687 0.959 . S
C681 H688 0.961 . S
C681 H689 0.960 . S
C682 C680 1.381 . S
C682 C683 1.394 . S
C682 H690 0.930 . S
C683 C682 1.394 . S
C683 C684 1.383 . S
C683 H691 0.929 . S
C684 C683 1.383 . S
C684 C685 1.377 . S
C685 H669 0.930 . S
C685 C684 1.377 . S
C685 C686 1.379 . S
C686 H670 0.931 . S
C686 C680 1.383 . S
C686 C685 1.379 . S
H687 C681 0.959 . S
H688 C681 0.961 . S
H689 C681 0.960 . S
H690 C682 0.930 . S
H691 C683 0.929 . S
H692 C700 0.929 . S
H693 C702 0.930 . S
H694 C704 0.930 . S
H695 C707 0.929 . S
H696 C710 0.930 . S
H697 C712 0.960 . S
H698 C712 0.960 . S
H699 C712 0.960 . S
C700 H692 0.929 . S
C700 C701 1.377 . S
C700 C702 1.384 . S
C701 C700 1.377 . S
C701 C707 1.390 . S
C702 H693 0.930 . S
C702 C700 1.384 . S
C702 C703 1.372 . S
C703 C702 1.372 . S
C703 C704 1.400 . S
C703 C708 1.490 . S
C704 H694 0.930 . S
C704 C703 1.400 . S
C704 C707 1.386 . S
H705 C721 0.930 . S
H706 C722 0.931 . S
C707 H695 0.929 . S
C707 C701 1.390 . S
C707 C704 1.386 . S
C708 C703 1.490 . S
C708 C710 1.395 . S
C708 C711 1.403 . S
H709 C715 0.930 . S
C710 H696 0.930 . S
C710 C708 1.395 . S
C710 C713 1.403 . S
C711 C708 1.403 . S
C711 C712 1.524 . S
C711 C715 1.400 . S
C712 H697 0.960 . S
C712 H698 0.960 . S
C712 H699 0.960 . S
C712 C711 1.524 . S
C713 C710 1.403 . S
C713 C714 1.392 . S
C713 C717 1.495 . S
C714 C713 1.392 . S
C714 C715 1.385 . S
C714 C716 1.478 . S
C715 H709 0.930 . S
C715 C711 1.400 . S
C715 C714 1.385 . S
C716 C714 1.478 . S
C716 C718 1.381 . S
C716 C722 1.383 . S
C717 C713 1.495 . S
C717 H723 0.959 . S
C717 H724 0.961 . S
C717 H725 0.960 . S
C718 C716 1.381 . S
C718 C719 1.394 . S
C718 H726 0.930 . S
C719 C718 1.394 . S
C719 C720 1.383 . S
C719 H727 0.929 . S
C720 C719 1.383 . S
C720 C721 1.377 . S
C721 H705 0.930 . S
C721 C720 1.377 . S
C721 C722 1.379 . S
C722 H706 0.931 . S
C722 C716 1.383 . S
C722 C721 1.379 . S
H723 C717 0.959 . S
H724 C717 0.961 . S
H725 C717 0.960 . S
H726 C718 0.930 . S
H727 C719 0.929 . S
H728 C736 0.929 . S
H729 C738 0.930 . S
H730 C740 0.930 . S
H731 C743 0.929 . S
H732 C746 0.930 . S
H733 C748 0.960 . S
H734 C748 0.960 . S
H735 C748 0.960 . S
C736 H728 0.929 . S
C736 C737 1.377 . S
C736 C738 1.384 . S
C737 C736 1.377 . S
C737 C743 1.390 . S
C738 H729 0.930 . S
C738 C736 1.384 . S
C738 C739 1.372 . S
C739 C738 1.372 . S
C739 C740 1.400 . S
C739 C744 1.490 . S
C740 H730 0.930 . S
C740 C739 1.400 . S
C740 C743 1.386 . S
H741 C757 0.930 . S
H742 C758 0.931 . S
C743 H731 0.929 . S
C743 C737 1.390 . S
C743 C740 1.386 . S
C744 C739 1.490 . S
C744 C746 1.395 . S
C744 C747 1.403 . S
H745 C751 0.930 . S
C746 H732 0.930 . S
C746 C744 1.395 . S
C746 C749 1.403 . S
C747 C744 1.403 . S
C747 C748 1.524 . S
C747 C751 1.400 . S
C748 H733 0.960 . S
C748 H734 0.960 . S
C748 H735 0.960 . S
C748 C747 1.524 . S
C749 C746 1.403 . S
C749 C750 1.392 . S
C749 C753 1.495 . S
C750 C749 1.392 . S
C750 C751 1.385 . S
C750 C752 1.478 . S
C751 H745 0.930 . S
C751 C747 1.400 . S
C751 C750 1.385 . S
C752 C750 1.478 . S
C752 C754 1.381 . S
C752 C758 1.383 . S
C753 C749 1.495 . S
C753 H759 0.959 . S
C753 H760 0.961 . S
C753 H761 0.960 . S
C754 C752 1.381 . S
C754 C755 1.394 . S
C754 H762 0.930 . S
C755 C754 1.394 . S
C755 C756 1.383 . S
C755 H763 0.929 . S
C756 C755 1.383 . S
C756 C757 1.377 . S
C757 H741 0.930 . S
C757 C756 1.377 . S
C757 C758 1.379 . S
C758 H742 0.931 . S
C758 C752 1.383 . S
C758 C757 1.379 . S
H759 C753 0.959 . S
H760 C753 0.961 . S
H761 C753 0.960 . S
H762 C754 0.930 . S
H763 C755 0.929 . S
H764 C772 0.929 . S
H765 C774 0.930 . S
H766 C776 0.930 . S
H767 C779 0.929 . S
H768 C782 0.930 . S
H769 C784 0.960 . S
H770 C784 0.960 . S
H771 C784 0.960 . S
C772 H764 0.929 . S
C772 C773 1.377 . S
C772 C774 1.384 . S
C773 C772 1.377 . S
C773 C779 1.390 . S
C774 H765 0.930 . S
C774 C772 1.384 . S
C774 C775 1.372 . S
C775 C774 1.372 . S
C775 C776 1.400 . S
C775 C780 1.490 . S
C776 H766 0.930 . S
C776 C775 1.400 . S
C776 C779 1.386 . S
H777 C793 0.930 . S
H778 C794 0.931 . S
C779 H767 0.929 . S
C779 C773 1.390 . S
C779 C776 1.386 . S
C780 C775 1.490 . S
C780 C782 1.395 . S
C780 C783 1.403 . S
H781 C787 0.930 . S
C782 H768 0.930 . S
C782 C780 1.395 . S
C782 C785 1.403 . S
C783 C780 1.403 . S
C783 C784 1.524 . S
C783 C787 1.400 . S
C784 H769 0.960 . S
C784 H770 0.960 . S
C784 H771 0.960 . S
C784 C783 1.524 . S
C785 C782 1.403 . S
C785 C786 1.392 . S
C785 C789 1.495 . S
C786 C785 1.392 . S
C786 C787 1.385 . S
C786 C788 1.478 . S
C787 H781 0.930 . S
C787 C783 1.400 . S
C787 C786 1.385 . S
C788 C786 1.478 . S
C788 C790 1.381 . S
C788 C794 1.383 . S
C789 C785 1.495 . S
C789 H795 0.959 . S
C789 H796 0.961 . S
C789 H797 0.960 . S
C790 C788 1.381 . S
C790 C791 1.394 . S
C790 H798 0.930 . S
C791 C790 1.394 . S
C791 C792 1.383 . S
C791 H799 0.929 . S
C792 C791 1.383 . S
C792 C793 1.377 . S
C793 H777 0.930 . S
C793 C792 1.377 . S
C793 C794 1.379 . S
C794 H778 0.931 . S
C794 C788 1.383 . S
C794 C793 1.379 . S
H795 C789 0.959 . S
H796 C789 0.961 . S
H797 C789 0.960 . S
H798 C790 0.930 . S
H799 C791 0.929 . S
H800 C808 0.929 . S
H801 C810 0.930 . S
H802 C812 0.930 . S
H803 C815 0.929 . S
H804 C818 0.930 . S
H805 C820 0.960 . S
H806 C820 0.960 . S
H807 C820 0.960 . S
C808 H800 0.929 . S
C808 C809 1.377 . S
C808 C810 1.384 . S
C809 C808 1.377 . S
C809 C815 1.390 . S
C810 H801 0.930 . S
C810 C808 1.384 . S
C810 C811 1.372 . S
C811 C810 1.372 . S
C811 C812 1.400 . S
C811 C816 1.490 . S
C812 H802 0.930 . S
C812 C811 1.400 . S
C812 C815 1.386 . S
H813 C829 0.930 . S
H814 C830 0.931 . S
C815 H803 0.929 . S
C815 C809 1.390 . S
C815 C812 1.386 . S
C816 C811 1.490 . S
C816 C818 1.395 . S
C816 C819 1.403 . S
H817 C823 0.930 . S
C818 H804 0.930 . S
C818 C816 1.395 . S
C818 C821 1.403 . S
C819 C816 1.403 . S
C819 C820 1.524 . S
C819 C823 1.400 . S
C820 H805 0.960 . S
C820 H806 0.960 . S
C820 H807 0.960 . S
C820 C819 1.524 . S
C821 C818 1.403 . S
C821 C822 1.392 . S
C821 C825 1.495 . S
C822 C821 1.392 . S
C822 C823 1.385 . S
C822 C824 1.478 . S
C823 H817 0.930 . S
C823 C819 1.400 . S
C823 C822 1.385 . S
C824 C822 1.478 . S
C824 C826 1.381 . S
C824 C830 1.383 . S
C825 C821 1.495 . S
C825 H831 0.959 . S
C825 H832 0.961 . S
C825 H833 0.960 . S
C826 C824 1.381 . S
C826 C827 1.394 1_565 S
C826 H834 0.930 . S
C827 C826 1.394 1_545 S
C827 C828 1.383 . S
C827 H835 0.929 . S
C828 C827 1.383 . S
C828 C829 1.377 . S
C829 H813 0.930 . S
C829 C828 1.377 . S
C829 C830 1.379 1_545 S
C830 H814 0.931 . S
C830 C824 1.383 . S
C830 C829 1.379 1_565 S
H831 C825 0.959 . S
H832 C825 0.961 . S
H833 C825 0.960 . S
H834 C826 0.930 . S
H835 C827 0.929 . S
H836 C844 0.929 . S
H837 C846 0.930 . S
H838 C848 0.930 . S
H839 C851 0.929 . S
H840 C854 0.930 . S
H841 C856 0.960 . S
H842 C856 0.960 . S
H843 C856 0.960 . S
C844 H836 0.929 . S
C844 C845 1.377 . S
C844 C846 1.384 . S
C845 C844 1.377 . S
C845 C851 1.390 . S
C846 H837 0.930 . S
C846 C844 1.384 . S
C846 C847 1.372 . S
C847 C846 1.372 . S
C847 C848 1.400 . S
C847 C852 1.490 . S
C848 H838 0.930 . S
C848 C847 1.400 . S
C848 C851 1.386 . S
H849 C865 0.930 . S
H850 C866 0.931 . S
C851 H839 0.929 . S
C851 C845 1.390 . S
C851 C848 1.386 . S
C852 C847 1.490 . S
C852 C854 1.395 . S
C852 C855 1.403 . S
H853 C859 0.930 . S
C854 H840 0.930 . S
C854 C852 1.395 . S
C854 C857 1.403 . S
C855 C852 1.403 . S
C855 C856 1.524 . S
C855 C859 1.400 . S
C856 H841 0.960 . S
C856 H842 0.960 . S
C856 H843 0.960 . S
C856 C855 1.524 . S
C857 C854 1.403 . S
C857 C858 1.392 . S
C857 C861 1.495 . S
C858 C857 1.392 . S
C858 C859 1.385 . S
C858 C860 1.478 . S
C859 H853 0.930 . S
C859 C855 1.400 . S
C859 C858 1.385 . S
C860 C858 1.478 . S
C860 C862 1.381 . S
C860 C866 1.383 . S
C861 C857 1.495 . S
C861 H867 0.959 . S
C861 H868 0.961 . S
C861 H869 0.960 . S
C862 C860 1.381 . S
C862 C863 1.394 . S
C862 H870 0.930 . S
C863 C862 1.394 . S
C863 C864 1.383 . S
C863 H871 0.929 . S
C864 C863 1.383 . S
C864 C865 1.377 . S
C865 H849 0.930 . S
C865 C864 1.377 . S
C865 C866 1.379 . S
C866 H850 0.931 . S
C866 C860 1.383 . S
C866 C865 1.379 . S
H867 C861 0.959 . S
H868 C861 0.961 . S
H869 C861 0.960 . S
H870 C862 0.930 . S
H871 C863 0.929 . S
H872 C880 0.929 . S
H873 C882 0.930 . S
H874 C884 0.930 . S
H875 C887 0.929 . S
H876 C890 0.930 . S
H877 C892 0.960 . S
H878 C892 0.960 . S
H879 C892 0.960 . S
C880 H872 0.929 . S
C880 C881 1.377 . S
C880 C882 1.384 . S
C881 C880 1.377 . S
C881 C887 1.390 . S
C882 H873 0.930 . S
C882 C880 1.384 . S
C882 C883 1.372 . S
C883 C882 1.372 . S
C883 C884 1.400 . S
C883 C888 1.490 . S
C884 H874 0.930 . S
C884 C883 1.400 . S
C884 C887 1.386 . S
H885 C901 0.930 . S
H886 C902 0.931 . S
C887 H875 0.929 . S
C887 C881 1.390 . S
C887 C884 1.386 . S
C888 C883 1.490 . S
C888 C890 1.395 . S
C888 C891 1.403 . S
H889 C895 0.930 . S
C890 H876 0.930 . S
C890 C888 1.395 . S
C890 C893 1.403 . S
C891 C888 1.403 . S
C891 C892 1.524 . S
C891 C895 1.400 . S
C892 H877 0.960 . S
C892 H878 0.960 . S
C892 H879 0.960 . S
C892 C891 1.524 . S
C893 C890 1.403 . S
C893 C894 1.392 . S
C893 C897 1.495 . S
C894 C893 1.392 . S
C894 C895 1.385 . S
C894 C896 1.478 . S
C895 H889 0.930 . S
C895 C891 1.400 . S
C895 C894 1.385 . S
C896 C894 1.478 . S
C896 C898 1.381 . S
C896 C902 1.383 . S
C897 C893 1.495 . S
C897 H903 0.959 . S
C897 H904 0.961 . S
C897 H905 0.960 . S
C898 C896 1.381 . S
C898 C899 1.394 . S
C898 H906 0.930 . S
C899 C898 1.394 . S
C899 C900 1.383 . S
C899 H907 0.929 . S
C900 C899 1.383 . S
C900 C901 1.377 . S
C901 H885 0.930 . S
C901 C900 1.377 . S
C901 C902 1.379 . S
C902 H886 0.931 . S
C902 C896 1.383 . S
C902 C901 1.379 . S
H903 C897 0.959 . S
H904 C897 0.961 . S
H905 C897 0.960 . S
H906 C898 0.930 . S
H907 C899 0.929 . S
H908 C916 0.929 . S
H909 C918 0.930 . S
H910 C920 0.930 . S
H911 C923 0.929 . S
H912 C926 0.930 . S
H913 C928 0.960 . S
H914 C928 0.960 . S
H915 C928 0.960 . S
C916 H908 0.929 . S
C916 C917 1.377 . S
C916 C918 1.384 . S
C917 C916 1.377 . S
C917 C923 1.390 . S
C918 H909 0.930 . S
C918 C916 1.384 . S
C918 C919 1.372 . S
C919 C918 1.372 . S
C919 C920 1.400 . S
C919 C924 1.490 . S
C920 H910 0.930 . S
C920 C919 1.400 . S
C920 C923 1.386 . S
H921 C937 0.930 . S
H922 C938 0.931 . S
C923 H911 0.929 . S
C923 C917 1.390 . S
C923 C920 1.386 . S
C924 C919 1.490 . S
C924 C926 1.395 . S
C924 C927 1.403 . S
H925 C931 0.930 . S
C926 H912 0.930 . S
C926 C924 1.395 . S
C926 C929 1.403 . S
C927 C924 1.403 . S
C927 C928 1.524 . S
C927 C931 1.400 . S
C928 H913 0.960 . S
C928 H914 0.960 . S
C928 H915 0.960 . S
C928 C927 1.524 . S
C929 C926 1.403 . S
C929 C930 1.392 . S
C929 C933 1.495 . S
C930 C929 1.392 . S
C930 C931 1.385 . S
C930 C932 1.478 . S
C931 H925 0.930 . S
C931 C927 1.400 . S
C931 C930 1.385 . S
C932 C930 1.478 . S
C932 C934 1.381 . S
C932 C938 1.383 . S
C933 C929 1.495 . S
C933 H939 0.959 . S
C933 H940 0.961 . S
C933 H941 0.960 . S
C934 C932 1.381 . S
C934 C935 1.394 . S
C934 H942 0.930 . S
C935 C934 1.394 . S
C935 C936 1.383 1_565 S
C935 H943 0.929 1_565 S
C936 C935 1.383 1_545 S
C936 C937 1.377 . S
C937 H921 0.930 . S
C937 C936 1.377 . S
C937 C938 1.379 1_545 S
C938 H922 0.931 . S
C938 C932 1.383 . S
C938 C937 1.379 1_565 S
H939 C933 0.959 . S
H940 C933 0.961 . S
H941 C933 0.960 . S
H942 C934 0.930 . S
H943 C935 0.929 1_545 S
H944 C952 0.929 . S
H945 C954 0.930 . S
H946 C956 0.930 . S
H947 C959 0.929 . S
H948 C962 0.930 . S
H949 C964 0.960 . S
H950 C964 0.960 . S
H951 C964 0.960 . S
C952 H944 0.929 . S
C952 C953 1.377 . S
C952 C954 1.384 . S
C953 C952 1.377 . S
C953 C959 1.390 . S
C954 H945 0.930 . S
C954 C952 1.384 . S
C954 C955 1.372 . S
C955 C954 1.372 . S
C955 C956 1.400 . S
C955 C960 1.490 . S
C956 H946 0.930 . S
C956 C955 1.400 . S
C956 C959 1.386 . S
H957 C973 0.930 . S
H958 C974 0.931 . S
C959 H947 0.929 . S
C959 C953 1.390 . S
C959 C956 1.386 . S
C960 C955 1.490 . S
C960 C962 1.395 . S
C960 C963 1.403 . S
H961 C967 0.930 . S
C962 H948 0.930 . S
C962 C960 1.395 . S
C962 C965 1.403 . S
C963 C960 1.403 . S
C963 C964 1.524 . S
C963 C967 1.400 . S
C964 H949 0.960 . S
C964 H950 0.960 . S
C964 H951 0.960 . S
C964 C963 1.524 . S
C965 C962 1.403 . S
C965 C966 1.392 . S
C965 C969 1.495 . S
C966 C965 1.392 . S
C966 C967 1.385 . S
C966 C968 1.478 . S
C967 H961 0.930 . S
C967 C963 1.400 . S
C967 C966 1.385 . S
C968 C966 1.478 . S
C968 C970 1.381 . S
C968 C974 1.383 . S
C969 C965 1.495 . S
C969 H975 0.959 . S
C969 H976 0.961 . S
C969 H977 0.960 . S
C970 C968 1.381 . S
C970 C971 1.394 . S
C970 H978 0.930 . S
C971 C970 1.394 . S
C971 C972 1.383 1_545 S
C971 H979 0.930 . S
C972 C971 1.383 1_565 S
C972 C973 1.377 . S
C973 H957 0.930 . S
C973 C972 1.377 . S
C973 C974 1.379 1_565 S
C974 H958 0.931 . S
C974 C968 1.383 . S
C974 C973 1.379 1_545 S
H975 C969 0.959 . S
H976 C969 0.961 . S
H977 C969 0.960 . S
H978 C970 0.930 . S
H979 C971 0.930 . S
H980 C988 0.929 . S
H981 C990 0.930 . S
H982 C992 0.930 . S
H983 C995 0.929 . S
H984 C998 0.930 . S
H985 C1000 0.960 . S
H986 C1000 0.960 . S
H987 C1000 0.960 . S
C988 H980 0.929 . S
C988 C989 1.377 . S
C988 C990 1.384 . S
C989 C988 1.377 . S
C989 C995 1.390 . S
C990 H981 0.930 . S
C990 C988 1.384 . S
C990 C991 1.372 . S
C991 C990 1.372 . S
C991 C992 1.400 . S
C991 C996 1.490 . S
C992 H982 0.930 . S
C992 C991 1.400 . S
C992 C995 1.386 . S
H993 C1009 0.930 . S
H994 C1010 0.931 . S
C995 H983 0.929 . S
C995 C989 1.390 . S
C995 C992 1.386 . S
C996 C991 1.490 . S
C996 C998 1.395 . S
C996 C999 1.403 . S
H997 C1003 0.930 . S
C998 H984 0.930 . S
C998 C996 1.395 . S
C998 C1001 1.403 . S
C999 C996 1.403 . S
C999 C1000 1.524 . S
C999 C1003 1.400 . S
C1000 H985 0.960 . S
C1000 H986 0.960 . S
C1000 H987 0.960 . S
C1000 C999 1.524 . S
C1001 C998 1.403 . S
C1001 C1002 1.392 . S
C1001 C1005 1.495 . S
C1002 C1001 1.392 . S
C1002 C1003 1.385 . S
C1002 C1004 1.478 . S
C1003 H997 0.930 . S
C1003 C999 1.400 . S
C1003 C1002 1.385 . S
C1004 C1002 1.478 . S
C1004 C1006 1.381 . S
C1004 C1010 1.383 . S
C1005 C1001 1.495 . S
C1005 H1011 0.959 . S
C1005 H1012 0.961 . S
C1005 H1013 0.960 . S
C1006 C1004 1.381 . S
C1006 C1007 1.394 . S
C1006 H1014 0.930 . S
C1007 C1006 1.394 . S
C1007 C1008 1.383 . S
C1007 H1015 0.929 . S
C1008 C1007 1.383 . S
C1008 C1009 1.377 . S
C1009 H993 0.930 . S
C1009 C1008 1.377 . S
C1009 C1010 1.379 . S
C1010 H994 0.931 . S
C1010 C1004 1.383 . S
C1010 C1009 1.379 . S
H1011 C1005 0.959 . S
H1012 C1005 0.961 . S
H1013 C1005 0.960 . S
H1014 C1006 0.930 . S
H1015 C1007 0.929 . S
H1016 C1024 0.929 . S
H1017 C1026 0.930 . S
H1018 C1028 0.930 . S
H1019 C1031 0.929 . S
H1020 C1034 0.930 . S
H1021 C1036 0.960 . S
H1022 C1036 0.960 . S
H1023 C1036 0.960 . S
C1024 H1016 0.929 . S
C1024 C1025 1.377 . S
C1024 C1026 1.384 . S
C1025 C1024 1.377 . S
C1025 C1031 1.390 . S
C1026 H1017 0.930 . S
C1026 C1024 1.384 . S
C1026 C1027 1.372 . S
C1027 C1026 1.372 . S
C1027 C1028 1.400 . S
C1027 C1032 1.490 . S
C1028 H1018 0.930 . S
C1028 C1027 1.400 . S
C1028 C1031 1.386 . S
H1029 C1045 0.930 . S
H1030 C1046 0.931 . S
C1031 H1019 0.929 . S
C1031 C1025 1.390 . S
C1031 C1028 1.386 . S
C1032 C1027 1.490 . S
C1032 C1034 1.395 . S
C1032 C1035 1.403 . S
H1033 C1039 0.930 . S
C1034 H1020 0.930 . S
C1034 C1032 1.395 . S
C1034 C1037 1.403 . S
C1035 C1032 1.403 . S
C1035 C1036 1.524 . S
C1035 C1039 1.400 . S
C1036 H1021 0.960 . S
C1036 H1022 0.960 . S
C1036 H1023 0.960 . S
C1036 C1035 1.524 . S
C1037 C1034 1.403 . S
C1037 C1038 1.392 . S
C1037 C1041 1.495 . S
C1038 C1037 1.392 . S
C1038 C1039 1.385 . S
C1038 C1040 1.478 . S
C1039 H1033 0.930 . S
C1039 C1035 1.400 . S
C1039 C1038 1.385 . S
C1040 C1038 1.478 . S
C1040 C1042 1.381 . S
C1040 C1046 1.383 . S
C1041 C1037 1.495 . S
C1041 H1047 0.959 . S
C1041 H1048 0.961 . S
C1041 H1049 0.960 . S
C1042 C1040 1.381 . S
C1042 C1043 1.394 . S
C1042 H1050 0.930 . S
C1043 C1042 1.394 . S
C1043 C1044 1.383 . S
C1043 H1051 0.929 . S
C1044 C1043 1.383 . S
C1044 C1045 1.377 . S
C1045 H1029 0.930 . S
C1045 C1044 1.377 . S
C1045 C1046 1.379 . S
C1046 H1030 0.931 . S
C1046 C1040 1.383 . S
C1046 C1045 1.379 . S
H1047 C1041 0.959 . S
H1048 C1041 0.961 . S
H1049 C1041 0.960 . S
H1050 C1042 0.930 . S
H1051 C1043 0.929 . S
H1052 C1060 0.929 . S
H1053 C1062 0.930 1_565 S
H1054 C1064 0.930 . S
H1055 C1067 0.929 . S
H1056 C1070 0.930 . S
H1057 C1072 0.960 . S
H1058 C1072 0.960 . S
H1059 C1072 0.960 . S
C1060 H1052 0.929 . S
C1060 C1061 1.377 . S
C1060 C1062 1.383 1_565 S
C1061 C1060 1.377 . S
C1061 C1067 1.390 1_565 S
C1062 H1053 0.930 1_545 S
C1062 C1060 1.383 1_545 S
C1062 C1063 1.373 . S
C1063 C1062 1.373 . S
C1063 C1064 1.400 . S
C1063 C1068 1.490 . S
C1064 H1054 0.930 . S
C1064 C1063 1.400 . S
C1064 C1067 1.386 . S
H1065 C1081 0.930 . S
H1066 C1082 0.931 . S
C1067 H1055 0.929 . S
C1067 C1061 1.390 1_545 S
C1067 C1064 1.386 . S
C1068 C1063 1.490 . S
C1068 C1070 1.395 . S
C1068 C1071 1.403 . S
H1069 C1075 0.930 . S
C1070 H1056 0.930 . S
C1070 C1068 1.395 . S
C1070 C1073 1.403 . S
C1071 C1068 1.403 . S
C1071 C1072 1.524 . S
C1071 C1075 1.400 . S
C1072 H1057 0.960 . S
C1072 H1058 0.960 . S
C1072 H1059 0.960 . S
C1072 C1071 1.524 . S
C1073 C1070 1.403 . S
C1073 C1074 1.392 . S
C1073 C1077 1.495 . S
C1074 C1073 1.392 . S
C1074 C1075 1.385 . S
C1074 C1076 1.478 . S
C1075 H1069 0.930 . S
C1075 C1071 1.400 . S
C1075 C1074 1.385 . S
C1076 C1074 1.478 . S
C1076 C1078 1.381 . S
C1076 C1082 1.383 . S
C1077 C1073 1.495 . S
C1077 H1083 0.959 . S
C1077 H1084 0.961 . S
C1077 H1085 0.960 . S
C1078 C1076 1.381 . S
C1078 C1079 1.394 . S
C1078 H1086 0.930 . S
C1079 C1078 1.394 . S
C1079 C1080 1.383 . S
C1079 H1087 0.929 . S
C1080 C1079 1.383 . S
C1080 C1081 1.377 . S
C1081 H1065 0.930 . S
C1081 C1080 1.377 . S
C1081 C1082 1.379 . S
C1082 H1066 0.931 . S
C1082 C1076 1.383 . S
C1082 C1081 1.379 . S
H1083 C1077 0.959 . S
H1084 C1077 0.961 . S
H1085 C1077 0.960 . S
H1086 C1078 0.930 . S
H1087 C1079 0.929 . S
H1088 C1096 0.929 . S
H1089 C1098 0.930 . S
H1090 C1100 0.930 . S
H1091 C1103 0.929 . S
H1092 C1106 0.930 . S
H1093 C1108 0.960 . S
H1094 C1108 0.960 . S
H1095 C1108 0.960 . S
C1096 H1088 0.929 . S
C1096 C1097 1.377 . S
C1096 C1098 1.384 . S
C1097 C1096 1.377 . S
C1097 C1103 1.390 . S
C1098 H1089 0.930 . S
C1098 C1096 1.384 . S
C1098 C1099 1.372 . S
C1099 C1098 1.372 . S
C1099 C1100 1.400 . S
C1099 C1104 1.490 . S
C1100 H1090 0.930 . S
C1100 C1099 1.400 . S
C1100 C1103 1.386 . S
H1101 C1117 0.930 . S
H1102 C1118 0.931 . S
C1103 H1091 0.929 . S
C1103 C1097 1.390 . S
C1103 C1100 1.386 . S
C1104 C1099 1.490 . S
C1104 C1106 1.395 . S
C1104 C1107 1.403 . S
H1105 C1111 0.930 . S
C1106 H1092 0.930 . S
C1106 C1104 1.395 . S
C1106 C1109 1.403 . S
C1107 C1104 1.403 . S
C1107 C1108 1.524 . S
C1107 C1111 1.400 . S
C1108 H1093 0.960 . S
C1108 H1094 0.960 . S
C1108 H1095 0.960 . S
C1108 C1107 1.524 . S
C1109 C1106 1.403 . S
C1109 C1110 1.392 . S
C1109 C1113 1.495 . S
C1110 C1109 1.392 . S
C1110 C1111 1.385 . S
C1110 C1112 1.478 . S
C1111 H1105 0.930 . S
C1111 C1107 1.400 . S
C1111 C1110 1.385 . S
C1112 C1110 1.478 . S
C1112 C1114 1.381 . S
C1112 C1118 1.383 . S
C1113 C1109 1.495 . S
C1113 H1119 0.959 . S
C1113 H1120 0.961 . S
C1113 H1121 0.960 . S
C1114 C1112 1.381 . S
C1114 C1115 1.394 1_565 S
C1114 H1122 0.930 . S
C1115 C1114 1.394 1_545 S
C1115 C1116 1.383 . S
C1115 H1123 0.929 . S
C1116 C1115 1.383 . S
C1116 C1117 1.377 1_545 S
C1117 H1101 0.930 . S
C1117 C1116 1.377 1_565 S
C1117 C1118 1.379 . S
C1118 H1102 0.931 . S
C1118 C1112 1.383 . S
C1118 C1117 1.379 . S
H1119 C1113 0.959 . S
H1120 C1113 0.961 . S
H1121 C1113 0.960 . S
H1122 C1114 0.930 . S
H1123 C1115 0.929 . S
H1124 C1132 0.929 . S
H1125 C1134 0.930 . S
H1126 C1136 0.930 . S
H1127 C1139 0.929 . S
H1128 C1142 0.930 . S
H1129 C1144 0.960 . S
H1130 C1144 0.960 . S
H1131 C1144 0.960 . S
C1132 H1124 0.929 . S
C1132 C1133 1.377 . S
C1132 C1134 1.384 . S
C1133 C1132 1.377 . S
C1133 C1139 1.390 . S
C1134 H1125 0.930 . S
C1134 C1132 1.384 . S
C1134 C1135 1.372 . S
C1135 C1134 1.372 . S
C1135 C1136 1.400 . S
C1135 C1140 1.490 . S
C1136 H1126 0.930 . S
C1136 C1135 1.400 . S
C1136 C1139 1.386 . S
H1137 C1153 0.930 . S
H1138 C1154 0.931 . S
C1139 H1127 0.929 . S
C1139 C1133 1.390 . S
C1139 C1136 1.386 . S
C1140 C1135 1.490 . S
C1140 C1142 1.395 . S
C1140 C1143 1.403 . S
H1141 C1147 0.930 . S
C1142 H1128 0.930 . S
C1142 C1140 1.395 . S
C1142 C1145 1.403 . S
C1143 C1140 1.403 . S
C1143 C1144 1.524 . S
C1143 C1147 1.400 . S
C1144 H1129 0.960 . S
C1144 H1130 0.960 . S
C1144 H1131 0.960 . S
C1144 C1143 1.524 . S
C1145 C1142 1.403 . S
C1145 C1146 1.392 . S
C1145 C1149 1.495 . S
C1146 C1145 1.392 . S
C1146 C1147 1.385 . S
C1146 C1148 1.478 . S
C1147 H1141 0.930 . S
C1147 C1143 1.400 . S
C1147 C1146 1.385 . S
C1148 C1146 1.478 . S
C1148 C1150 1.381 . S
C1148 C1154 1.383 . S
C1149 C1145 1.495 . S
C1149 H1155 0.959 . S
C1149 H1156 0.961 . S
C1149 H1157 0.960 . S
C1150 C1148 1.381 . S
C1150 C1151 1.394 . S
C1150 H1158 0.930 . S
C1151 C1150 1.394 . S
C1151 C1152 1.383 . S
C1151 H1159 0.929 . S
C1152 C1151 1.383 . S
C1152 C1153 1.377 . S
C1153 H1137 0.930 . S
C1153 C1152 1.377 . S
C1153 C1154 1.379 . S
C1154 H1138 0.931 . S
C1154 C1148 1.383 . S
C1154 C1153 1.379 . S
H1155 C1149 0.959 . S
H1156 C1149 0.961 . S
H1157 C1149 0.960 . S
H1158 C1150 0.930 . S
H1159 C1151 0.929 . S
H1160 C1168 0.929 . S
H1161 C1170 0.930 . S
H1162 C1172 0.930 . S
H1163 C1175 0.929 . S
H1164 C1178 0.930 . S
H1165 C1180 0.960 . S
H1166 C1180 0.960 . S
H1167 C1180 0.960 . S
C1168 H1160 0.929 . S
C1168 C1169 1.377 . S
C1168 C1170 1.384 . S
C1169 C1168 1.377 . S
C1169 C1175 1.390 . S
C1170 H1161 0.930 . S
C1170 C1168 1.384 . S
C1170 C1171 1.372 . S
C1171 C1170 1.372 . S
C1171 C1172 1.400 . S
C1171 C1176 1.490 . S
C1172 H1162 0.930 . S
C1172 C1171 1.400 . S
C1172 C1175 1.386 . S
H1173 C1189 0.930 . S
H1174 C1190 0.931 . S
C1175 H1163 0.929 . S
C1175 C1169 1.390 . S
C1175 C1172 1.386 . S
C1176 C1171 1.490 . S
C1176 C1178 1.395 . S
C1176 C1179 1.403 . S
H1177 C1183 0.930 . S
C1178 H1164 0.930 . S
C1178 C1176 1.395 . S
C1178 C1181 1.403 . S
C1179 C1176 1.403 . S
C1179 C1180 1.524 . S
C1179 C1183 1.400 . S
C1180 H1165 0.960 . S
C1180 H1166 0.960 . S
C1180 H1167 0.960 . S
C1180 C1179 1.524 . S
C1181 C1178 1.403 . S
C1181 C1182 1.392 . S
C1181 C1185 1.495 . S
C1182 C1181 1.392 . S
C1182 C1183 1.385 . S
C1182 C1184 1.478 . S
C1183 H1177 0.930 . S
C1183 C1179 1.400 . S
C1183 C1182 1.385 . S
C1184 C1182 1.478 . S
C1184 C1186 1.381 . S
C1184 C1190 1.383 . S
C1185 C1181 1.495 . S
C1185 H1191 0.959 . S
C1185 H1192 0.961 . S
C1185 H1193 0.960 . S
C1186 C1184 1.381 . S
C1186 C1187 1.394 . S
C1186 H1194 0.930 . S
C1187 C1186 1.394 . S
C1187 C1188 1.383 . S
C1187 H1195 0.929 . S
C1188 C1187 1.383 . S
C1188 C1189 1.377 . S
C1189 H1173 0.930 . S
C1189 C1188 1.377 . S
C1189 C1190 1.379 . S
C1190 H1174 0.931 . S
C1190 C1184 1.383 . S
C1190 C1189 1.379 . S
H1191 C1185 0.959 . S
H1192 C1185 0.961 . S
H1193 C1185 0.960 . S
H1194 C1186 0.930 . S
H1195 C1187 0.929 . S
H1196 C1204 0.929 . S
H1197 C1206 0.930 . S
H1198 C1208 0.930 . S
H1199 C1211 0.929 . S
H1200 C1214 0.930 . S
H1201 C1216 0.960 . S
H1202 C1216 0.960 . S
H1203 C1216 0.960 . S
C1204 H1196 0.929 . S
C1204 C1205 1.377 . S
C1204 C1206 1.384 . S
C1205 C1204 1.377 . S
C1205 C1211 1.390 . S
C1206 H1197 0.930 . S
C1206 C1204 1.384 . S
C1206 C1207 1.372 . S
C1207 C1206 1.372 . S
C1207 C1208 1.400 . S
C1207 C1212 1.490 . S
C1208 H1198 0.930 . S
C1208 C1207 1.400 . S
C1208 C1211 1.386 . S
H1209 C1225 0.930 . S
H1210 C1226 0.931 . S
C1211 H1199 0.929 . S
C1211 C1205 1.390 . S
C1211 C1208 1.386 . S
C1212 C1207 1.490 . S
C1212 C1214 1.395 . S
C1212 C1215 1.403 . S
H1213 C1219 0.930 . S
C1214 H1200 0.930 . S
C1214 C1212 1.395 . S
C1214 C1217 1.403 . S
C1215 C1212 1.403 . S
C1215 C1216 1.524 . S
C1215 C1219 1.400 . S
C1216 H1201 0.960 . S
C1216 H1202 0.960 . S
C1216 H1203 0.960 . S
C1216 C1215 1.524 . S
C1217 C1214 1.403 . S
C1217 C1218 1.392 . S
C1217 C1221 1.495 . S
C1218 C1217 1.392 . S
C1218 C1219 1.385 . S
C1218 C1220 1.478 . S
C1219 H1213 0.930 . S
C1219 C1215 1.400 . S
C1219 C1218 1.385 . S
C1220 C1218 1.478 . S
C1220 C1222 1.381 1_565 S
C1220 C1226 1.383 . S
C1221 C1217 1.495 . S
C1221 H1227 0.959 . S
C1221 H1228 0.961 . S
C1221 H1229 0.960 . S
C1222 C1220 1.381 1_545 S
C1222 C1223 1.394 . S
C1222 H1230 0.930 . S
C1223 C1222 1.394 . S
C1223 C1224 1.383 . S
C1223 H1231 0.929 . S
C1224 C1223 1.383 . S
C1224 C1225 1.377 1_545 S
C1225 H1209 0.930 . S
C1225 C1224 1.377 1_565 S
C1225 C1226 1.379 . S
C1226 H1210 0.931 . S
C1226 C1220 1.383 . S
C1226 C1225 1.379 . S
H1227 C1221 0.959 . S
H1228 C1221 0.961 . S
H1229 C1221 0.960 . S
H1230 C1222 0.930 . S
H1231 C1223 0.929 . S
H1232 C1240 0.929 . S
H1233 C1242 0.930 . S
H1234 C1244 0.930 . S
H1235 C1247 0.929 . S
H1236 C1250 0.930 . S
H1237 C1252 0.960 . S
H1238 C1252 0.960 . S
H1239 C1252 0.960 . S
C1240 H1232 0.929 . S
C1240 C1241 1.377 . S
C1240 C1242 1.384 . S
C1241 C1240 1.377 . S
C1241 C1247 1.390 . S
C1242 H1233 0.930 . S
C1242 C1240 1.384 . S
C1242 C1243 1.372 . S
C1243 C1242 1.372 . S
C1243 C1244 1.400 . S
C1243 C1248 1.490 . S
C1244 H1234 0.930 . S
C1244 C1243 1.400 . S
C1244 C1247 1.386 . S
H1245 C1261 0.930 . S
H1246 C1262 0.931 . S
C1247 H1235 0.929 . S
C1247 C1241 1.390 . S
C1247 C1244 1.386 . S
C1248 C1243 1.490 . S
C1248 C1250 1.395 . S
C1248 C1251 1.403 . S
H1249 C1255 0.930 . S
C1250 H1236 0.930 . S
C1250 C1248 1.395 . S
C1250 C1253 1.403 . S
C1251 C1248 1.403 . S
C1251 C1252 1.524 . S
C1251 C1255 1.400 . S
C1252 H1237 0.960 . S
C1252 H1238 0.960 . S
C1252 H1239 0.960 . S
C1252 C1251 1.524 . S
C1253 C1250 1.403 . S
C1253 C1254 1.392 . S
C1253 C1257 1.495 . S
C1254 C1253 1.392 . S
C1254 C1255 1.385 . S
C1254 C1256 1.478 . S
C1255 H1249 0.930 . S
C1255 C1251 1.400 . S
C1255 C1254 1.385 . S
C1256 C1254 1.478 . S
C1256 C1258 1.381 1_545 S
C1256 C1262 1.383 . S
C1257 C1253 1.495 . S
C1257 H1263 0.959 . S
C1257 H1264 0.961 . S
C1257 H1265 0.960 . S
C1258 C1256 1.381 1_565 S
C1258 C1259 1.394 . S
C1258 H1266 0.930 . S
C1259 C1258 1.394 . S
C1259 C1260 1.383 . S
C1259 H1267 0.929 . S
C1260 C1259 1.383 . S
C1260 C1261 1.377 1_565 S
C1261 H1245 0.930 . S
C1261 C1260 1.377 1_545 S
C1261 C1262 1.379 . S
C1262 H1246 0.931 . S
C1262 C1256 1.383 . S
C1262 C1261 1.379 . S
H1263 C1257 0.959 . S
H1264 C1257 0.961 . S
H1265 C1257 0.960 . S
H1266 C1258 0.930 . S
H1267 C1259 0.929 . S
H1268 C1276 0.929 . S
H1269 C1278 0.930 . S
H1270 C1280 0.930 . S
H1271 C1283 0.929 . S
H1272 C1286 0.930 . S
H1273 C1288 0.960 . S
H1274 C1288 0.960 . S
H1275 C1288 0.960 . S
C1276 H1268 0.929 . S
C1276 C1277 1.377 . S
C1276 C1278 1.384 . S
C1277 C1276 1.377 . S
C1277 C1283 1.390 . S
C1278 H1269 0.930 . S
C1278 C1276 1.384 . S
C1278 C1279 1.372 . S
C1279 C1278 1.372 . S
C1279 C1280 1.400 . S
C1279 C1284 1.490 . S
C1280 H1270 0.930 . S
C1280 C1279 1.400 . S
C1280 C1283 1.386 . S
H1281 C1297 0.930 . S
H1282 C1298 0.931 . S
C1283 H1271 0.929 . S
C1283 C1277 1.390 . S
C1283 C1280 1.386 . S
C1284 C1279 1.490 . S
C1284 C1286 1.395 . S
C1284 C1287 1.403 . S
H1285 C1291 0.930 . S
C1286 H1272 0.930 . S
C1286 C1284 1.395 . S
C1286 C1289 1.403 . S
C1287 C1284 1.403 . S
C1287 C1288 1.524 . S
C1287 C1291 1.400 . S
C1288 H1273 0.960 . S
C1288 H1274 0.960 . S
C1288 H1275 0.960 . S
C1288 C1287 1.524 . S
C1289 C1286 1.403 . S
C1289 C1290 1.392 . S
C1289 C1293 1.495 . S
C1290 C1289 1.392 . S
C1290 C1291 1.385 . S
C1290 C1292 1.478 . S
C1291 H1285 0.930 . S
C1291 C1287 1.400 . S
C1291 C1290 1.385 . S
C1292 C1290 1.478 . S
C1292 C1294 1.381 . S
C1292 C1298 1.383 . S
C1293 C1289 1.495 . S
C1293 H1299 0.959 . S
C1293 H1300 0.961 . S
C1293 H1301 0.960 . S
C1294 C1292 1.381 . S
C1294 C1295 1.394 . S
C1294 H1302 0.930 . S
C1295 C1294 1.394 . S
C1295 C1296 1.383 . S
C1295 H1303 0.929 . S
C1296 C1295 1.383 . S
C1296 C1297 1.377 . S
C1297 H1281 0.930 . S
C1297 C1296 1.377 . S
C1297 C1298 1.379 . S
C1298 H1282 0.931 . S
C1298 C1292 1.383 . S
C1298 C1297 1.379 . S
H1299 C1293 0.959 . S
H1300 C1293 0.961 . S
H1301 C1293 0.960 . S
H1302 C1294 0.930 . S
H1303 C1295 0.929 . S
H1304 C1312 0.929 . S
H1305 C1314 0.930 . S
H1306 C1316 0.930 . S
H1307 C1319 0.929 . S
H1308 C1322 0.930 . S
H1309 C1324 0.960 . S
H1310 C1324 0.960 . S
H1311 C1324 0.960 . S
C1312 H1304 0.929 . S
C1312 C1313 1.377 . S
C1312 C1314 1.384 . S
C1313 C1312 1.377 . S
C1313 C1319 1.390 . S
C1314 H1305 0.930 . S
C1314 C1312 1.384 . S
C1314 C1315 1.372 . S
C1315 C1314 1.372 . S
C1315 C1316 1.400 . S
C1315 C1320 1.490 . S
C1316 H1306 0.930 . S
C1316 C1315 1.400 . S
C1316 C1319 1.386 . S
H1317 C1333 0.930 . S
H1318 C1334 0.931 . S
C1319 H1307 0.929 . S
C1319 C1313 1.390 . S
C1319 C1316 1.386 . S
C1320 C1315 1.490 . S
C1320 C1322 1.395 . S
C1320 C1323 1.403 . S
H1321 C1327 0.930 . S
C1322 H1308 0.930 . S
C1322 C1320 1.395 . S
C1322 C1325 1.403 . S
C1323 C1320 1.403 . S
C1323 C1324 1.524 . S
C1323 C1327 1.400 . S
C1324 H1309 0.960 . S
C1324 H1310 0.960 . S
C1324 H1311 0.960 . S
C1324 C1323 1.524 . S
C1325 C1322 1.403 . S
C1325 C1326 1.392 . S
C1325 C1329 1.495 . S
C1326 C1325 1.392 . S
C1326 C1327 1.385 . S
C1326 C1328 1.478 . S
C1327 H1321 0.930 . S
C1327 C1323 1.400 . S
C1327 C1326 1.385 . S
C1328 C1326 1.478 . S
C1328 C1330 1.381 . S
C1328 C1334 1.383 . S
C1329 C1325 1.495 . S
C1329 H1335 0.959 . S
C1329 H1336 0.961 . S
C1329 H1337 0.960 . S
C1330 C1328 1.381 . S
C1330 C1331 1.394 . S
C1330 H1338 0.930 . S
C1331 C1330 1.394 . S
C1331 C1332 1.383 . S
C1331 H1339 0.929 . S
C1332 C1331 1.383 . S
C1332 C1333 1.377 . S
C1333 H1317 0.930 . S
C1333 C1332 1.377 . S
C1333 C1334 1.379 . S
C1334 H1318 0.931 . S
C1334 C1328 1.383 . S
C1334 C1333 1.379 . S
H1335 C1329 0.959 . S
H1336 C1329 0.961 . S
H1337 C1329 0.960 . S
H1338 C1330 0.930 . S
H1339 C1331 0.929 . S
H1340 C1348 0.929 . S
H1341 C1350 0.930 . S
H1342 C1352 0.930 . S
H1343 C1355 0.929 . S
H1344 C1358 0.930 . S
H1345 C1360 0.960 . S
H1346 C1360 0.960 . S
H1347 C1360 0.960 . S
C1348 H1340 0.929 . S
C1348 C1349 1.377 . S
C1348 C1350 1.384 . S
C1349 C1348 1.377 . S
C1349 C1355 1.390 . S
C1350 H1341 0.930 . S
C1350 C1348 1.384 . S
C1350 C1351 1.372 . S
C1351 C1350 1.372 . S
C1351 C1352 1.400 . S
C1351 C1356 1.490 . S
C1352 H1342 0.930 . S
C1352 C1351 1.400 . S
C1352 C1355 1.386 . S
H1353 C1369 0.930 . S
H1354 C1370 0.931 . S
C1355 H1343 0.929 . S
C1355 C1349 1.390 . S
C1355 C1352 1.386 . S
C1356 C1351 1.490 . S
C1356 C1358 1.395 . S
C1356 C1359 1.403 . S
H1357 C1363 0.930 . S
C1358 H1344 0.930 . S
C1358 C1356 1.395 . S
C1358 C1361 1.403 . S
C1359 C1356 1.403 . S
C1359 C1360 1.524 . S
C1359 C1363 1.400 . S
C1360 H1345 0.960 . S
C1360 H1346 0.960 . S
C1360 H1347 0.960 . S
C1360 C1359 1.524 . S
C1361 C1358 1.403 . S
C1361 C1362 1.392 . S
C1361 C1365 1.495 . S
C1362 C1361 1.392 . S
C1362 C1363 1.385 . S
C1362 C1364 1.478 . S
C1363 H1357 0.930 . S
C1363 C1359 1.400 . S
C1363 C1362 1.385 . S
C1364 C1362 1.478 . S
C1364 C1366 1.381 . S
C1364 C1370 1.383 . S
C1365 C1361 1.495 . S
C1365 H1371 0.959 . S
C1365 H1372 0.961 . S
C1365 H1373 0.960 . S
C1366 C1364 1.381 . S
C1366 C1367 1.394 1_545 S
C1366 H1374 0.930 . S
C1367 C1366 1.394 1_565 S
C1367 C1368 1.383 . S
C1367 H1375 0.929 . S
C1368 C1367 1.383 . S
C1368 C1369 1.377 . S
C1369 H1353 0.930 . S
C1369 C1368 1.377 . S
C1369 C1370 1.379 1_565 S
C1370 H1354 0.931 . S
C1370 C1364 1.383 . S
C1370 C1369 1.379 1_545 S
H1371 C1365 0.959 . S
H1372 C1365 0.961 . S
H1373 C1365 0.960 . S
H1374 C1366 0.930 . S
H1375 C1367 0.929 . S
C233 C199 1.491 . S
C252 C3 1.483 . S
C269 C36 1.496 . S
C288 C8 1.494 . S
C305 C162 1.496 . S
C324 C22 1.492 . S
C341 C17 1.493 . S
C360 C101 1.496 . S
C377 C31 1.491 . S
C396 C171 1.486 . S
C413 C134 1.495 . S
C432 C50 1.490 . S
C449 C45 1.491 . S
C468 C73 1.485 . S
C485 C143 1.493 . S
C504 C59 1.484 . S
C521 C64 1.495 . S
C540 C92 1.491 . S
C557 C218 1.496 . S
C576 C78 1.493 . S
C593 C115 1.494 . S
C612 C87 1.495 . S
C629 C190 1.496 . S
C648 C106 1.491 . S
C665 C120 1.495 . S
C684 C148 1.490 . S
C701 C213 1.494 . S
C720 C129 1.495 . S
C737 C157 1.492 . S
C756 C185 1.482 . S
C773 C204 1.496 . S
C792 C176 1.492 . S
C809 C79 1.412 . S
C828 C7 1.389 . S
C845 C9 1.412 . S
C864 C77 1.386 . S
C881 C23 1.409 . S
C900 C63 1.380 . S
C917 C65 1.407 . S
C936 C21 1.411 . S
C953 C107 1.413 . S
C972 C35 1.415 . S
C989 C105 1.405 . S
C1008 C37 1.422 . S
C1025 C91 1.406 . S
C1044 C51 1.409 . S
C1061 C49 1.399 . S
C1080 C93 1.401 . S
C1097 C191 1.410 . S
C1116 C119 1.419 . S
C1133 C121 1.412 . S
C1152 C189 1.386 . S
C1169 C135 1.408 . S
C1188 C175 1.416 . S
C1205 C177 1.413 . S
C1224 C133 1.398 . S
C1241 C219 1.409 . S
C1260 C147 1.385 . S
C1277 C217 1.406 . S
C1296 C149 1.423 . S
C1313 C163 1.411 . S
C1332 C203 1.393 . S
C1349 C205 1.408 . S
C1368 C161 1.400 . S
