# Generated by pormake.
# Topology lcs-e, (6)-cn, num edge types: 1
# Building blocks:
#     Node 0, Type 0, BuildingBlock: HISSIN_clean_sbu_0, # of connection points: 6
#     Node 1, Type 0, BuildingBlock: HISSIN_clean_sbu_0, # of connection points: 6
#     Node 2, Type 0, BuildingBlock: HISSIN_clean_sbu_0, # of connection points: 6
#     Node 3, Type 0, BuildingBlock: HISSIN_clean_sbu_0, # of connection points: 6
#     Node 4, Type 0, BuildingBlock: HISSIN_clean_sbu_0, # of connection points: 6
#     Node 5, Type 0, BuildingBlock: HISSIN_clean_sbu_0, # of connection points: 6
#     Node 6, Type 0, BuildingBlock: HISSIN_clean_sbu_0, # of connection points: 6
#     Node 7, Type 0, BuildingBlock: HISSIN_clean_sbu_0, # of connection points: 6
#     Node 8, Type 0, BuildingBlock: HISSIN_clean_sbu_0, # of connection points: 6
#     Node 9, Type 0, BuildingBlock: HISSIN_clean_sbu_0, # of connection points: 6
#     Node 10, Type 0, BuildingBlock: HISSIN_clean_sbu_0, # of connection points: 6
#     Node 11, Type 0, BuildingBlock: HISSIN_clean_sbu_0, # of connection points: 6
#     Node 12, Type 0, BuildingBlock: HISSIN_clean_sbu_0, # of connection points: 6
#     Node 13, Type 0, BuildingBlock: HISSIN_clean_sbu_0, # of connection points: 6
#     Node 14, Type 0, BuildingBlock: HISSIN_clean_sbu_0, # of connection points: 6
#     Node 15, Type 0, BuildingBlock: HISSIN_clean_sbu_0, # of connection points: 6
#     Node 16, Type 0, BuildingBlock: HISSIN_clean_sbu_0, # of connection points: 6
#     Node 17, Type 0, BuildingBlock: HISSIN_clean_sbu_0, # of connection points: 6
#     Node 18, Type 0, BuildingBlock: HISSIN_clean_sbu_0, # of connection points: 6
#     Node 19, Type 0, BuildingBlock: HISSIN_clean_sbu_0, # of connection points: 6
#     Node 20, Type 0, BuildingBlock: HISSIN_clean_sbu_0, # of connection points: 6
#     Node 21, Type 0, BuildingBlock: HISSIN_clean_sbu_0, # of connection points: 6
#     Node 22, Type 0, BuildingBlock: HISSIN_clean_sbu_0, # of connection points: 6
#     Node 23, Type 0, BuildingBlock: HISSIN_clean_sbu_0, # of connection points: 6
#     Node 24, Type 0, BuildingBlock: HISSIN_clean_sbu_0, # of connection points: 6
#     Node 25, Type 0, BuildingBlock: HISSIN_clean_sbu_0, # of connection points: 6
#     Node 26, Type 0, BuildingBlock: HISSIN_clean_sbu_0, # of connection points: 6
#     Node 27, Type 0, BuildingBlock: HISSIN_clean_sbu_0, # of connection points: 6
#     Node 28, Type 0, BuildingBlock: HISSIN_clean_sbu_0, # of connection points: 6
#     Node 29, Type 0, BuildingBlock: HISSIN_clean_sbu_0, # of connection points: 6
#     Node 30, Type 0, BuildingBlock: HISSIN_clean_sbu_0, # of connection points: 6
#     Node 31, Type 0, BuildingBlock: HISSIN_clean_sbu_0, # of connection points: 6
#     Node 32, Type 0, BuildingBlock: HISSIN_clean_sbu_0, # of connection points: 6
#     Node 33, Type 0, BuildingBlock: HISSIN_clean_sbu_0, # of connection points: 6
#     Node 34, Type 0, BuildingBlock: HISSIN_clean_sbu_0, # of connection points: 6
#     Node 35, Type 0, BuildingBlock: HISSIN_clean_sbu_0, # of connection points: 6
#     Node 36, Type 0, BuildingBlock: HISSIN_clean_sbu_0, # of connection points: 6
#     Node 37, Type 0, BuildingBlock: HISSIN_clean_sbu_0, # of connection points: 6
#     Node 38, Type 0, BuildingBlock: HISSIN_clean_sbu_0, # of connection points: 6
#     Node 39, Type 0, BuildingBlock: HISSIN_clean_sbu_0, # of connection points: 6
#     Node 40, Type 0, BuildingBlock: HISSIN_clean_sbu_0, # of connection points: 6
#     Node 41, Type 0, BuildingBlock: HISSIN_clean_sbu_0, # of connection points: 6
#     Node 42, Type 0, BuildingBlock: HISSIN_clean_sbu_0, # of connection points: 6
#     Node 43, Type 0, BuildingBlock: HISSIN_clean_sbu_0, # of connection points: 6
#     Node 44, Type 0, BuildingBlock: HISSIN_clean_sbu_0, # of connection points: 6
#     Node 45, Type 0, BuildingBlock: HISSIN_clean_sbu_0, # of connection points: 6
#     Node 46, Type 0, BuildingBlock: HISSIN_clean_sbu_0, # of connection points: 6
#     Node 47, Type 0, BuildingBlock: HISSIN_clean_sbu_0, # of connection points: 6
#     Edge 48, Type (0, 0), BuildingBlock: OJICUG_clean_linker_0, # of connection points: 2
#     Edge 49, Type (0, 0), BuildingBlock: OJICUG_clean_linker_0, # of connection points: 2
#     Edge 50, Type (0, 0), BuildingBlock: OJICUG_clean_linker_0, # of connection points: 2
#     Edge 51, Type (0, 0), BuildingBlock: OJICUG_clean_linker_0, # of connection points: 2
#     Edge 52, Type (0, 0), BuildingBlock: OJICUG_clean_linker_0, # of connection points: 2
#     Edge 53, Type (0, 0), BuildingBlock: OJICUG_clean_linker_0, # of connection points: 2
#     Edge 54, Type (0, 0), BuildingBlock: OJICUG_clean_linker_0, # of connection points: 2
#     Edge 55, Type (0, 0), BuildingBlock: OJICUG_clean_linker_0, # of connection points: 2
#     Edge 56, Type (0, 0), BuildingBlock: OJICUG_clean_linker_0, # of connection points: 2
#     Edge 57, Type (0, 0), BuildingBlock: OJICUG_clean_linker_0, # of connection points: 2
#     Edge 58, Type (0, 0), BuildingBlock: OJICUG_clean_linker_0, # of connection points: 2
#     Edge 59, Type (0, 0), BuildingBlock: OJICUG_clean_linker_0, # of connection points: 2
#     Edge 60, Type (0, 0), BuildingBlock: OJICUG_clean_linker_0, # of connection points: 2
#     Edge 61, Type (0, 0), BuildingBlock: OJICUG_clean_linker_0, # of connection points: 2
#     Edge 62, Type (0, 0), BuildingBlock: OJICUG_clean_linker_0, # of connection points: 2
#     Edge 63, Type (0, 0), BuildingBlock: OJICUG_clean_linker_0, # of connection points: 2
#     Edge 64, Type (0, 0), BuildingBlock: OJICUG_clean_linker_0, # of connection points: 2
#     Edge 65, Type (0, 0), BuildingBlock: OJICUG_clean_linker_0, # of connection points: 2
#     Edge 66, Type (0, 0), BuildingBlock: OJICUG_clean_linker_0, # of connection points: 2
#     Edge 67, Type (0, 0), BuildingBlock: OJICUG_clean_linker_0, # of connection points: 2
#     Edge 68, Type (0, 0), BuildingBlock: OJICUG_clean_linker_0, # of connection points: 2
#     Edge 69, Type (0, 0), BuildingBlock: OJICUG_clean_linker_0, # of connection points: 2
#     Edge 70, Type (0, 0), BuildingBlock: OJICUG_clean_linker_0, # of connection points: 2
#     Edge 71, Type (0, 0), BuildingBlock: OJICUG_clean_linker_0, # of connection points: 2
#     Edge 72, Type (0, 0), BuildingBlock: OJICUG_clean_linker_0, # of connection points: 2
#     Edge 73, Type (0, 0), BuildingBlock: OJICUG_clean_linker_0, # of connection points: 2
#     Edge 74, Type (0, 0), BuildingBlock: OJICUG_clean_linker_0, # of connection points: 2
#     Edge 75, Type (0, 0), BuildingBlock: OJICUG_clean_linker_0, # of connection points: 2
#     Edge 76, Type (0, 0), BuildingBlock: OJICUG_clean_linker_0, # of connection points: 2
#     Edge 77, Type (0, 0), BuildingBlock: OJICUG_clean_linker_0, # of connection points: 2
#     Edge 78, Type (0, 0), BuildingBlock: OJICUG_clean_linker_0, # of connection points: 2
#     Edge 79, Type (0, 0), BuildingBlock: OJICUG_clean_linker_0, # of connection points: 2
#     Edge 80, Type (0, 0), BuildingBlock: OJICUG_clean_linker_0, # of connection points: 2
#     Edge 81, Type (0, 0), BuildingBlock: OJICUG_clean_linker_0, # of connection points: 2
#     Edge 82, Type (0, 0), BuildingBlock: OJICUG_clean_linker_0, # of connection points: 2
#     Edge 83, Type (0, 0), BuildingBlock: OJICUG_clean_linker_0, # of connection points: 2
#     Edge 84, Type (0, 0), BuildingBlock: OJICUG_clean_linker_0, # of connection points: 2
#     Edge 85, Type (0, 0), BuildingBlock: OJICUG_clean_linker_0, # of connection points: 2
#     Edge 86, Type (0, 0), BuildingBlock: OJICUG_clean_linker_0, # of connection points: 2
#     Edge 87, Type (0, 0), BuildingBlock: OJICUG_clean_linker_0, # of connection points: 2
#     Edge 88, Type (0, 0), BuildingBlock: OJICUG_clean_linker_0, # of connection points: 2
#     Edge 89, Type (0, 0), BuildingBlock: OJICUG_clean_linker_0, # of connection points: 2
#     Edge 90, Type (0, 0), BuildingBlock: OJICUG_clean_linker_0, # of connection points: 2
#     Edge 91, Type (0, 0), BuildingBlock: OJICUG_clean_linker_0, # of connection points: 2
#     Edge 92, Type (0, 0), BuildingBlock: OJICUG_clean_linker_0, # of connection points: 2
#     Edge 93, Type (0, 0), BuildingBlock: OJICUG_clean_linker_0, # of connection points: 2
#     Edge 94, Type (0, 0), BuildingBlock: OJICUG_clean_linker_0, # of connection points: 2
#     Edge 95, Type (0, 0), BuildingBlock: OJICUG_clean_linker_0, # of connection points: 2
#     Edge 96, Type (0, 0), BuildingBlock: OJICUG_clean_linker_0, # of connection points: 2
#     Edge 97, Type (0, 0), BuildingBlock: OJICUG_clean_linker_0, # of connection points: 2
#     Edge 98, Type (0, 0), BuildingBlock: OJICUG_clean_linker_0, # of connection points: 2
#     Edge 99, Type (0, 0), BuildingBlock: OJICUG_clean_linker_0, # of connection points: 2
#     Edge 100, Type (0, 0), BuildingBlock: OJICUG_clean_linker_0, # of connection points: 2
#     Edge 101, Type (0, 0), BuildingBlock: OJICUG_clean_linker_0, # of connection points: 2
#     Edge 102, Type (0, 0), BuildingBlock: OJICUG_clean_linker_0, # of connection points: 2
#     Edge 103, Type (0, 0), BuildingBlock: OJICUG_clean_linker_0, # of connection points: 2
#     Edge 104, Type (0, 0), BuildingBlock: OJICUG_clean_linker_0, # of connection points: 2
#     Edge 105, Type (0, 0), BuildingBlock: OJICUG_clean_linker_0, # of connection points: 2
#     Edge 106, Type (0, 0), BuildingBlock: OJICUG_clean_linker_0, # of connection points: 2
#     Edge 107, Type (0, 0), BuildingBlock: OJICUG_clean_linker_0, # of connection points: 2
#     Edge 108, Type (0, 0), BuildingBlock: OJICUG_clean_linker_0, # of connection points: 2
#     Edge 109, Type (0, 0), BuildingBlock: OJICUG_clean_linker_0, # of connection points: 2
#     Edge 110, Type (0, 0), BuildingBlock: OJICUG_clean_linker_0, # of connection points: 2
#     Edge 111, Type (0, 0), BuildingBlock: OJICUG_clean_linker_0, # of connection points: 2
#     Edge 112, Type (0, 0), BuildingBlock: OJICUG_clean_linker_0, # of connection points: 2
#     Edge 113, Type (0, 0), BuildingBlock: OJICUG_clean_linker_0, # of connection points: 2
#     Edge 114, Type (0, 0), BuildingBlock: OJICUG_clean_linker_0, # of connection points: 2
#     Edge 115, Type (0, 0), BuildingBlock: OJICUG_clean_linker_0, # of connection points: 2
#     Edge 116, Type (0, 0), BuildingBlock: OJICUG_clean_linker_0, # of connection points: 2
#     Edge 117, Type (0, 0), BuildingBlock: OJICUG_clean_linker_0, # of connection points: 2
#     Edge 118, Type (0, 0), BuildingBlock: OJICUG_clean_linker_0, # of connection points: 2
#     Edge 119, Type (0, 0), BuildingBlock: OJICUG_clean_linker_0, # of connection points: 2
#     Edge 120, Type (0, 0), BuildingBlock: OJICUG_clean_linker_0, # of connection points: 2
#     Edge 121, Type (0, 0), BuildingBlock: OJICUG_clean_linker_0, # of connection points: 2
#     Edge 122, Type (0, 0), BuildingBlock: OJICUG_clean_linker_0, # of connection points: 2
#     Edge 123, Type (0, 0), BuildingBlock: OJICUG_clean_linker_0, # of connection points: 2
#     Edge 124, Type (0, 0), BuildingBlock: OJICUG_clean_linker_0, # of connection points: 2
#     Edge 125, Type (0, 0), BuildingBlock: OJICUG_clean_linker_0, # of connection points: 2
#     Edge 126, Type (0, 0), BuildingBlock: OJICUG_clean_linker_0, # of connection points: 2
#     Edge 127, Type (0, 0), BuildingBlock: OJICUG_clean_linker_0, # of connection points: 2
#     Edge 128, Type (0, 0), BuildingBlock: OJICUG_clean_linker_0, # of connection points: 2
#     Edge 129, Type (0, 0), BuildingBlock: OJICUG_clean_linker_0, # of connection points: 2
#     Edge 130, Type (0, 0), BuildingBlock: OJICUG_clean_linker_0, # of connection points: 2
#     Edge 131, Type (0, 0), BuildingBlock: OJICUG_clean_linker_0, # of connection points: 2
#     Edge 132, Type (0, 0), BuildingBlock: OJICUG_clean_linker_0, # of connection points: 2
#     Edge 133, Type (0, 0), BuildingBlock: OJICUG_clean_linker_0, # of connection points: 2
#     Edge 134, Type (0, 0), BuildingBlock: OJICUG_clean_linker_0, # of connection points: 2
#     Edge 135, Type (0, 0), BuildingBlock: OJICUG_clean_linker_0, # of connection points: 2
#     Edge 136, Type (0, 0), BuildingBlock: OJICUG_clean_linker_0, # of connection points: 2
#     Edge 137, Type (0, 0), BuildingBlock: OJICUG_clean_linker_0, # of connection points: 2
#     Edge 138, Type (0, 0), BuildingBlock: OJICUG_clean_linker_0, # of connection points: 2
#     Edge 139, Type (0, 0), BuildingBlock: OJICUG_clean_linker_0, # of connection points: 2
#     Edge 140, Type (0, 0), BuildingBlock: OJICUG_clean_linker_0, # of connection points: 2
#     Edge 141, Type (0, 0), BuildingBlock: OJICUG_clean_linker_0, # of connection points: 2
#     Edge 142, Type (0, 0), BuildingBlock: OJICUG_clean_linker_0, # of connection points: 2
#     Edge 143, Type (0, 0), BuildingBlock: OJICUG_clean_linker_0, # of connection points: 2
#     Edge 144, Type (0, 0), BuildingBlock: OJICUG_clean_linker_0, # of connection points: 2
#     Edge 145, Type (0, 0), BuildingBlock: OJICUG_clean_linker_0, # of connection points: 2
#     Edge 146, Type (0, 0), BuildingBlock: OJICUG_clean_linker_0, # of connection points: 2
#     Edge 147, Type (0, 0), BuildingBlock: OJICUG_clean_linker_0, # of connection points: 2
#     Edge 148, Type (0, 0), BuildingBlock: OJICUG_clean_linker_0, # of connection points: 2
#     Edge 149, Type (0, 0), BuildingBlock: OJICUG_clean_linker_0, # of connection points: 2
#     Edge 150, Type (0, 0), BuildingBlock: OJICUG_clean_linker_0, # of connection points: 2
#     Edge 151, Type (0, 0), BuildingBlock: OJICUG_clean_linker_0, # of connection points: 2
#     Edge 152, Type (0, 0), BuildingBlock: OJICUG_clean_linker_0, # of connection points: 2
#     Edge 153, Type (0, 0), BuildingBlock: OJICUG_clean_linker_0, # of connection points: 2
#     Edge 154, Type (0, 0), BuildingBlock: OJICUG_clean_linker_0, # of connection points: 2
#     Edge 155, Type (0, 0), BuildingBlock: OJICUG_clean_linker_0, # of connection points: 2
#     Edge 156, Type (0, 0), BuildingBlock: OJICUG_clean_linker_0, # of connection points: 2
#     Edge 157, Type (0, 0), BuildingBlock: OJICUG_clean_linker_0, # of connection points: 2
#     Edge 158, Type (0, 0), BuildingBlock: OJICUG_clean_linker_0, # of connection points: 2
#     Edge 159, Type (0, 0), BuildingBlock: OJICUG_clean_linker_0, # of connection points: 2
#     Edge 160, Type (0, 0), BuildingBlock: OJICUG_clean_linker_0, # of connection points: 2
#     Edge 161, Type (0, 0), BuildingBlock: OJICUG_clean_linker_0, # of connection points: 2
#     Edge 162, Type (0, 0), BuildingBlock: OJICUG_clean_linker_0, # of connection points: 2
#     Edge 163, Type (0, 0), BuildingBlock: OJICUG_clean_linker_0, # of connection points: 2
#     Edge 164, Type (0, 0), BuildingBlock: OJICUG_clean_linker_0, # of connection points: 2
#     Edge 165, Type (0, 0), BuildingBlock: OJICUG_clean_linker_0, # of connection points: 2
#     Edge 166, Type (0, 0), BuildingBlock: OJICUG_clean_linker_0, # of connection points: 2
#     Edge 167, Type (0, 0), BuildingBlock: OJICUG_clean_linker_0, # of connection points: 2
#     Edge 168, Type (0, 0), BuildingBlock: OJICUG_clean_linker_0, # of connection points: 2
#     Edge 169, Type (0, 0), BuildingBlock: OJICUG_clean_linker_0, # of connection points: 2
#     Edge 170, Type (0, 0), BuildingBlock: OJICUG_clean_linker_0, # of connection points: 2
#     Edge 171, Type (0, 0), BuildingBlock: OJICUG_clean_linker_0, # of connection points: 2
#     Edge 172, Type (0, 0), BuildingBlock: OJICUG_clean_linker_0, # of connection points: 2
#     Edge 173, Type (0, 0), BuildingBlock: OJICUG_clean_linker_0, # of connection points: 2
#     Edge 174, Type (0, 0), BuildingBlock: OJICUG_clean_linker_0, # of connection points: 2
#     Edge 175, Type (0, 0), BuildingBlock: OJICUG_clean_linker_0, # of connection points: 2
#     Edge 176, Type (0, 0), BuildingBlock: OJICUG_clean_linker_0, # of connection points: 2
#     Edge 177, Type (0, 0), BuildingBlock: OJICUG_clean_linker_0, # of connection points: 2
#     Edge 178, Type (0, 0), BuildingBlock: OJICUG_clean_linker_0, # of connection points: 2
#     Edge 179, Type (0, 0), BuildingBlock: OJICUG_clean_linker_0, # of connection points: 2
#     Edge 180, Type (0, 0), BuildingBlock: OJICUG_clean_linker_0, # of connection points: 2
#     Edge 181, Type (0, 0), BuildingBlock: OJICUG_clean_linker_0, # of connection points: 2
#     Edge 182, Type (0, 0), BuildingBlock: OJICUG_clean_linker_0, # of connection points: 2
#     Edge 183, Type (0, 0), BuildingBlock: OJICUG_clean_linker_0, # of connection points: 2
#     Edge 184, Type (0, 0), BuildingBlock: OJICUG_clean_linker_0, # of connection points: 2
#     Edge 185, Type (0, 0), BuildingBlock: OJICUG_clean_linker_0, # of connection points: 2
#     Edge 186, Type (0, 0), BuildingBlock: OJICUG_clean_linker_0, # of connection points: 2
#     Edge 187, Type (0, 0), BuildingBlock: OJICUG_clean_linker_0, # of connection points: 2
#     Edge 188, Type (0, 0), BuildingBlock: OJICUG_clean_linker_0, # of connection points: 2
#     Edge 189, Type (0, 0), BuildingBlock: OJICUG_clean_linker_0, # of connection points: 2
#     Edge 190, Type (0, 0), BuildingBlock: OJICUG_clean_linker_0, # of connection points: 2
#     Edge 191, Type (0, 0), BuildingBlock: OJICUG_clean_linker_0, # of connection points: 2
# Relax obj value: 0.519
# Max RMSD: 0.314
# Mean RMSD: 0.293
data_MOF--net-lcs-e--node1-HISSIN_clean_sbu_0--edge1-OJICUG_clean_linker_0
_symmetry_space_group_name_H-M    P1
_symmetry_Int_Tables_number       1
_symmetry_cell_setting            triclinic
loop_
_symmetry_equiv_pos_as_xyz
'x, y, z'
_cell_length_a     49.339935
_cell_length_b     49.378855
_cell_length_c     49.45615
_cell_angle_alpha  89.037098
_cell_angle_beta   90.048551
_cell_angle_gamma 88.002567
loop_
_atom_site_label
_atom_site_type_symbol
_atom_site_fract_x
_atom_site_fract_y
_atom_site_fract_z
_atom_type_partial_charge
Eu0 Eu 0.05118 0.41653 0.26672 0.0
Eu1 Eu 1.0095 0.4185 0.30962 0.0
C2 C 1.02302 0.47875 0.28374 0.0
C3 C 0.10796 0.4331 0.22129 0.0
C4 C 0.11873 0.44597 0.24374 0.0
C5 C 0.15035 0.43872 0.19761 0.0
C6 C 0.1455 0.45377 0.24376 0.0
C7 C 0.12372 0.42988 0.19801 0.0
C8 C 0.16186 0.44987 0.22084 0.0
C9 C 0.08306 0.41827 0.22488 0.0
O10 O 1.01361 0.37045 0.30193 0.0
O11 O 1.03427 0.37235 0.26165 0.0
C12 C 1.02477 0.35667 0.28145 0.0
O13 O 0.07425 0.39207 0.29889 0.0
O14 O 0.96748 0.40782 0.31728 0.0
O15 O 0.98923 0.43245 0.34564 0.0
O16 O 0.04053 0.39246 0.33108 0.0
C17 C 0.06464 0.38445 0.32256 0.0
O18 O 0.07455 0.43735 0.2981 0.0
O19 O 0.04268 0.43977 0.33196 0.0
O20 O 1.00337 0.46336 0.29288 0.0
O21 O 0.08528 0.40015 0.24419 0.0
O22 O 0.0601 0.43235 0.226 0.0
O23 O 0.04372 0.46477 0.27246 0.0
C24 C 0.963 0.4001 0.36429 0.0
C25 C 0.98032 0.37727 0.36804 0.0
C26 C 0.94773 0.3957 0.41048 0.0
C27 C 0.98176 0.36403 0.393 0.0
C28 C 0.94658 0.40919 0.3855 0.0
C29 C 0.96541 0.37301 0.41456 0.0
C30 C 0.96798 0.41817 0.34154 0.0
C31 C 0.06674 0.44517 0.32214 0.0
H32 H 0.10696 0.44847 0.26195 0.0
H33 H 0.16191 0.43669 0.17921 0.0
H34 H 0.15349 0.46212 0.26211 0.0
H35 H 0.1158 0.41979 0.18055 0.0
H36 H 0.99398 0.37066 0.35217 0.0
H37 H 0.93503 0.40335 0.4266 0.0
H38 H 0.99631 0.34725 0.39546 0.0
H39 H 0.93391 0.42745 0.38315 0.0
Eu40 Eu 0.9116 0.76453 0.55273 0.0
Eu41 Eu 0.91226 0.81173 0.51497 0.0
C42 C 0.97258 0.78216 0.52528 0.0
C43 C 0.9247 0.71054 0.60626 0.0
C44 C 0.95261 0.7131 0.61006 0.0
C45 C 0.9189 0.7046 0.65473 0.0
C46 C 0.96355 0.71165 0.63611 0.0
C47 C 0.90817 0.70511 0.62866 0.0
C48 C 0.94664 0.70857 0.65889 0.0
C49 C 0.91135 0.71951 0.58097 0.0
O50 O 0.86408 0.8053 0.51842 0.0
O51 O 0.86685 0.76282 0.53518 0.0
C52 C 0.85075 0.78393 0.52788 0.0
O53 O 0.88916 0.79547 0.57841 0.0
O54 O 0.90162 0.8257 0.47371 0.0
O55 O 0.92821 0.84861 0.49922 0.0
O56 O 0.88769 0.83105 0.5476 0.0
C57 C 0.88119 0.82024 0.57106 0.0
O58 O 0.93432 0.79181 0.57901 0.0
O59 O 0.93593 0.8286 0.54998 0.0
O60 O 0.95599 0.79287 0.50654 0.0
O61 O 0.8947 0.74008 0.58451 0.0
O62 O 0.92579 0.72208 0.55887 0.0
O63 O 0.95971 0.76947 0.54541 0.0
C64 C 0.90354 0.87393 0.46816 0.0
C65 C 0.87593 0.87991 0.47196 0.0
C66 C 0.91182 0.92172 0.46187 0.0
C67 C 0.86633 0.90676 0.47084 0.0
C68 C 0.92124 0.89483 0.46223 0.0
C69 C 0.88436 0.92803 0.4668 0.0
C70 C 0.91557 0.84769 0.4762 0.0
C71 C 0.94224 0.81633 0.57314 0.0
H72 H 0.96578 0.7175 0.59315 0.0
H73 H 0.90512 0.70233 0.67156 0.0
H74 H 0.98521 0.71367 0.63833 0.0
H75 H 0.88648 0.70337 0.62617 0.0
H76 H 0.86205 0.86404 0.47693 0.0
H77 H 0.92625 0.93748 0.45871 0.0
H78 H 0.84482 0.9108 0.47366 0.0
H79 H 0.94277 0.89047 0.4597 0.0
Eu80 Eu 0.5194 0.67452 0.76617 0.0
Eu81 Eu 0.56039 0.67169 0.80926 0.0
C82 C 0.54849 0.61204 0.78197 0.0
C83 C 0.46793 0.65621 0.71623 0.0
C84 C 0.46552 0.63217 0.73133 0.0
C85 C 0.42234 0.65179 0.69926 0.0
C86 C 0.44156 0.61822 0.73075 0.0
C87 C 0.44637 0.66584 0.69998 0.0
C88 C 0.41958 0.62787 0.71476 0.0
C89 C 0.48937 0.67439 0.72317 0.0
O90 O 0.55454 0.72001 0.803 0.0
O91 O 0.53476 0.7195 0.76228 0.0
C92 C 0.54361 0.73447 0.78239 0.0
O93 O 0.49469 0.69573 0.79847 0.0
O94 O 0.60115 0.68546 0.81853 0.0
O95 O 0.58233 0.65493 0.84368 0.0
O96 O 0.52749 0.69399 0.83165 0.0
C97 C 0.50318 0.70148 0.82287 0.0
O98 O 0.49743 0.64886 0.79588 0.0
O99 O 0.52841 0.64773 0.83073 0.0
O100 O 0.56752 0.62733 0.79224 0.0
O101 O 0.48334 0.68833 0.74459 0.0
O102 O 0.51435 0.6643 0.7236 0.0
O103 O 0.52803 0.62625 0.77015 0.0
C104 C 0.60585 0.68678 0.86612 0.0
C105 C 0.58302 0.69872 0.87867 0.0
C106 C 0.6325 0.69475 0.90597 0.0
C107 C 0.58456 0.70733 0.90516 0.0
C108 C 0.63074 0.68522 0.87965 0.0
C109 C 0.60921 0.70499 0.91927 0.0
C110 C 0.60194 0.67175 0.84144 0.0
C111 C 0.50527 0.64062 0.82015 0.0
H112 H 0.48156 0.62501 0.74486 0.0
H113 H 0.40582 0.66 0.68699 0.0
H114 H 0.44005 0.6004 0.74364 0.0
H115 H 0.44758 0.68492 0.68896 0.0
H116 H 0.56356 0.69988 0.86856 0.0
H117 H 0.65201 0.69411 0.91592 0.0
H118 H 0.56626 0.71519 0.91476 0.0
H119 H 0.64849 0.67598 0.87021 0.0
Eu120 Eu 0.66543 0.32162 0.04811 0.0
Eu121 Eu 0.66557 0.27552 1.01096 0.0
C122 C 0.60507 0.30218 1.02212 0.0
C123 C 0.64064 0.37172 0.09599 0.0
C124 C 0.62301 0.35109 0.10298 0.0
C125 C 0.63656 0.38898 0.1413 0.0
C126 C 0.61396 0.34814 0.1294 0.0
C127 C 0.64663 0.39123 0.11501 0.0
C128 C 0.62126 0.36661 0.14925 0.0
C129 C 0.65897 0.36696 0.07333 0.0
O130 O 0.71327 0.28471 1.0118 0.0
O131 O 0.71021 0.32542 1.03151 0.0
C132 C 0.72637 0.30546 1.0223 0.0
O133 O 0.69302 0.29343 0.07283 0.0
O134 O 0.68038 0.25824 0.97274 0.0
O135 O 0.64708 0.24052 0.99456 0.0
O136 O 0.69172 0.25748 0.04376 0.0
C137 C 0.70093 0.26888 0.06562 0.0
O138 O 0.64704 0.29224 0.07652 0.0
O139 O 0.64614 0.25607 0.04792 0.0
O140 O 0.62158 0.29429 1.00234 0.0
O141 O 0.67757 0.34858 0.07952 0.0
O142 O 0.64809 0.36309 0.04955 0.0
O143 O 0.6181 0.31252 0.04295 0.0
C144 C 0.67664 0.2103 0.97378 0.0
C145 C 0.6829 0.19591 0.99788 0.0
C146 C 0.68636 0.16975 0.94836 0.0
C147 C 0.68993 0.16839 0.99727 0.0
C148 C 0.67864 0.19718 0.94901 0.0
C149 C 0.69134 0.15496 0.97252 0.0
C150 C 0.66448 0.23766 0.97505 0.0
C151 C 0.64091 0.26717 0.07154 0.0
H152 H 0.61835 0.33562 0.0887 0.0
H153 H 0.64157 0.40429 0.1555 0.0
H154 H 0.60251 0.33045 0.13431 0.0
H155 H 0.66053 0.4071 0.11011 0.0
H156 H 0.68141 0.20575 1.01727 0.0
H157 H 0.68892 0.16021 0.92895 0.0
H158 H 0.69411 0.15759 1.01614 0.0
H159 H 0.67389 0.20802 0.93027 0.0
Eu160 Eu 1.00361 0.66662 0.27815 0.0
Eu161 Eu 0.04896 0.66665 0.31535 0.0
C162 C 1.02246 0.72785 0.30315 0.0
C163 C 0.95072 0.6798 0.22482 0.0
C164 C 0.95386 0.70752 0.21989 0.0
C165 C 0.9491 0.67221 0.17654 0.0
C166 C 0.95488 0.71745 0.19336 0.0
C167 C 0.94684 0.66255 0.20297 0.0
C168 C 0.95383 0.69968 0.17137 0.0
C169 C 0.95848 0.6672 0.25084 0.0
O170 O 0.04287 0.61869 0.31166 0.0
O171 O 1.00043 0.62198 0.29613 0.0
C172 C 1.02142 0.60559 0.30289 0.0
O173 O 1.03392 0.64245 0.25281 0.0
O174 O 0.05903 0.65315 0.35668 0.0
O175 O 0.08537 0.67999 0.33422 0.0
O176 O 0.06934 0.64266 0.28306 0.0
C177 C 0.05875 0.63492 0.26021 0.0
O178 O 1.03198 0.68769 0.2509 0.0
O179 O 0.06793 0.68957 0.28039 0.0
O180 O 1.03284 0.71151 0.32233 0.0
O181 O 0.97819 0.64935 0.24819 0.0
O182 O 0.96172 0.68246 0.27197 0.0
O183 O 1.00962 0.71478 0.28363 0.0
C184 C 0.10655 0.64664 0.3598 0.0
C185 C 0.11621 0.63103 0.33819 0.0
C186 C 0.14874 0.63801 0.38346 0.0
C187 C 0.14257 0.62035 0.3385 0.0
C188 C 0.12259 0.64959 0.38273 0.0
C189 C 0.15935 0.62429 0.3609 0.0
C190 C 0.08276 0.66426 0.3554 0.0
C191 C 0.0565 0.69534 0.25675 0.0
H192 H 0.95702 0.72124 0.23637 0.0
H193 H 0.94837 0.6578 0.16034 0.0
H194 H 0.95735 0.73897 0.1902 0.0
H195 H 0.94462 0.64099 0.20637 0.0
H196 H 0.10402 0.62876 0.32024 0.0
H197 H 0.16071 0.64004 0.40151 0.0
H198 H 0.15002 0.60985 0.32079 0.0
H199 H 0.11537 0.66169 0.3995 0.0
Eu200 Eu 0.65986 0.80864 0.56657 0.0
Eu201 Eu 0.66402 0.77595 0.51687 0.0
C202 C 0.72307 0.78436 0.54652 0.0
C203 C 0.67119 0.85704 0.62215 0.0
C204 C 0.69926 0.8598 0.6198 0.0
C205 C 0.66532 0.9059 0.62608 0.0
C206 C 0.71018 0.88549 0.62002 0.0
C207 C 0.65456 0.88016 0.6268 0.0
C208 C 0.69319 0.90903 0.6216 0.0
C209 C 0.65823 0.83233 0.61321 0.0
O210 O 0.61569 0.77592 0.52409 0.0
O211 O 0.61582 0.79045 0.56692 0.0
C212 C 0.60103 0.78361 0.54564 0.0
O213 O 0.63612 0.83694 0.53785 0.0
O214 O 0.66003 0.73471 0.5017 0.0
O215 O 0.67843 0.76639 0.47719 0.0
O216 O 0.63639 0.80915 0.50086 0.0
C217 C 0.62836 0.83143 0.5131 0.0
O218 O 0.68045 0.83898 0.54135 0.0
O219 O 0.68615 0.81333 0.5033 0.0
O220 O 0.70791 0.76662 0.53428 0.0
O221 O 0.64098 0.83726 0.59376 0.0
O222 O 0.67331 0.81042 0.60894 0.0
O223 O 0.70862 0.80279 0.56064 0.0
C224 C 0.65972 0.73083 0.45342 0.0
C225 C 0.65675 0.74754 0.43019 0.0
C226 C 0.64428 0.69289 0.42805 0.0
C227 C 0.64731 0.73705 0.40619 0.0
C228 C 0.65406 0.7033 0.452 0.0
C229 C 0.6405 0.70984 0.40518 0.0
C230 C 0.67096 0.74134 0.47839 0.0
C231 C 0.68969 0.83576 0.51676 0.0
H232 H 0.71262 0.84236 0.61625 0.0
H233 H 0.6514 0.92321 0.62754 0.0
H234 H 0.73194 0.88678 0.61805 0.0
H235 H 0.63278 0.87851 0.62859 0.0
H236 H 0.66139 0.76882 0.43052 0.0
H237 H 0.63873 0.67186 0.42762 0.0
H238 H 0.64395 0.7505 0.38888 0.0
H239 H 0.65683 0.68997 0.46948 0.0
Eu240 Eu 0.56578 0.42233 0.77575 0.0
Eu241 Eu 0.52081 0.42325 0.8142 0.0
C242 C 0.54721 0.3617 0.80348 0.0
C243 C 0.61844 0.39663 0.72943 0.0
C244 C 0.59958 0.37706 0.72326 0.0
C245 C 0.64223 0.38671 0.68786 0.0
C246 C 0.60116 0.36344 0.69893 0.0
C247 C 0.64022 0.4009 0.712 0.0
C248 C 0.62208 0.3687 0.68054 0.0
C249 C 0.61108 0.41672 0.74964 0.0
O250 O 0.52832 0.47107 0.80986 0.0
O251 O 0.56908 0.46791 0.78993 0.0
C252 C 0.54905 0.48415 0.79893 0.0
O253 O 0.53567 0.44606 0.74943 0.0
O254 O 0.50653 0.43996 0.8528 0.0
O255 O 0.48697 0.40597 0.83488 0.0
O256 O 0.5005 0.44644 0.78007 0.0
C257 C 0.51083 0.45348 0.75656 0.0
O258 O 0.53659 0.39912 0.75174 0.0
O259 O 0.50012 0.40122 0.78063 0.0
O260 O 0.53782 0.37826 0.82256 0.0
O261 O 0.59091 0.43261 0.74162 0.0
O262 O 0.60828 0.40801 0.77468 0.0
O263 O 0.55919 0.37463 0.78308 0.0
C264 C 0.45866 0.43753 0.85466 0.0
C265 C 0.44514 0.44505 0.83053 0.0
C266 C 0.41719 0.44559 0.87952 0.0
C267 C 0.41754 0.45162 0.83075 0.0
C268 C 0.44472 0.43821 0.87922 0.0
C269 C 0.40321 0.45139 0.8552 0.0
C270 C 0.48553 0.42451 0.85316 0.0
C271 C 0.51167 0.39299 0.75808 0.0
H272 H 0.58235 0.37383 0.73624 0.0
H273 H 0.65911 0.39042 0.67462 0.0
H274 H 0.58514 0.34991 0.69401 0.0
H275 H 0.65476 0.41621 0.7163 0.0
H276 H 0.45563 0.44443 0.81131 0.0
H277 H 0.40686 0.44695 0.89875 0.0
H278 H 0.40734 0.45643 0.81177 0.0
H279 H 0.45491 0.43242 0.89797 0.0
Eu280 Eu 0.91577 0.27482 0.05799 0.0
Eu281 Eu 0.91292 0.31695 1.01378 0.0
C282 C 0.85351 0.30404 0.04178 0.0
C283 C 0.90417 0.21396 0.10071 0.0
C284 C 0.89856 0.19977 0.07705 0.0
C285 C 0.89033 0.17536 0.12751 0.0
C286 C 0.88953 0.17343 0.07858 0.0
C287 C 0.89985 0.20171 0.12598 0.0
C288 C 0.88567 0.16085 0.10381 0.0
C289 C 0.91668 0.24041 0.09843 0.0
O290 O 0.96101 0.31176 1.02172 0.0
O291 O 0.95888 0.29363 0.0635 0.0
C292 C 0.97465 0.30179 0.0433 0.0
O293 O 0.93742 0.25196 1.0244 0.0
O294 O 0.92327 0.35906 1.00438 0.0
O295 O 0.89667 0.33701 0.97821 0.0
O296 O 0.93701 0.28553 0.99138 0.0
C297 C 0.94403 0.26099 1.0001 0.0
O298 O 0.89293 0.25243 1.02752 0.0
O299 O 0.88892 0.28463 0.99348 0.0
O300 O 0.86887 0.32338 1.0318 0.0
O301 O 0.93529 0.24126 0.07989 0.0
O302 O 0.90058 0.26205 0.09787 0.0
O303 O 0.8675 0.28346 0.0538 0.0
C304 C 0.92316 0.36763 0.95649 0.0
C305 C 0.95131 0.365 0.95347 0.0
C306 C 0.91787 0.37243 0.90791 0.0
C307 C 0.96265 0.36583 0.92768 0.0
C308 C 0.90666 0.37253 0.93369 0.0
C309 C 0.94594 0.36836 0.90456 0.0
C310 C 0.90991 0.35903 0.98141 0.0
C311 C 0.88343 0.26076 1.00394 0.0
H312 H 0.90187 0.20877 0.05728 0.0
H313 H 0.88606 0.16652 0.14714 0.0
H314 H 0.88573 0.16281 0.06002 0.0
H315 H 0.90397 0.21237 0.14442 0.0
H316 H 0.96438 0.36093 0.97078 0.0
H317 H 0.90438 0.37442 0.89066 0.0
H318 H 0.98449 0.36366 0.92589 0.0
H319 H 0.8848 0.37428 0.9357 0.0
Eu320 Eu 0.26743 0.05475 0.41457 0.0
Eu321 Eu 0.31279 1.01625 0.41644 0.0
C322 C 0.28637 1.02739 0.47653 0.0
C323 C 0.21223 0.09952 0.43828 0.0
C324 C 0.2307 0.10503 0.45883 0.0
C325 C 0.18828 0.14201 0.44683 0.0
C326 C 0.22902 0.1295 0.47212 0.0
C327 C 0.19046 0.11768 0.43288 0.0
C328 C 0.20827 0.14869 0.46568 0.0
C329 C 0.22058 0.07966 0.41828 0.0
O330 O 0.3047 1.01872 0.36807 0.0
O331 O 0.26406 0.04037 0.36921 0.0
C332 C 0.28395 1.03018 0.35391 0.0
O333 O 0.29685 0.07961 0.38977 0.0
O334 O 0.32476 0.97477 0.40553 0.0
O335 O 0.35027 0.99823 0.43164 0.0
O336 O 0.33222 0.04798 0.39163 0.0
C337 C 0.32162 0.07131 0.38308 0.0
O338 O 0.29498 0.08123 0.43635 0.0
O339 O 0.33188 0.05152 0.43795 0.0
O340 O 0.29636 1.0081 0.46068 0.0
O341 O 0.2403 0.0883 0.40327 0.0
O342 O 0.22485 0.05459 0.42694 0.0
O343 O 0.2745 0.04807 0.46274 0.0
C344 C 0.37234 0.97122 0.40119 0.0
C345 C 0.3786 0.9898 0.38063 0.0
C346 C 0.41699 0.95016 0.39745 0.0
C347 C 0.4041 0.98883 0.36878 0.0
C348 C 0.39155 0.95144 0.40962 0.0
C349 C 0.42355 0.96881 0.37685 0.0
C350 C 0.34838 0.97641 0.41746 0.0
C351 C 0.32004 0.07516 0.44362 0.0
H352 H 0.24797 0.09158 0.46289 0.0
H353 H 0.17155 0.15594 0.44213 0.0
H354 H 0.24504 0.1339 0.48618 0.0
H355 H 0.17625 0.1139 0.41677 0.0
H356 H 0.36417 1.0058 0.37459 0.0
H357 H 0.43144 0.93454 0.40418 0.0
H358 H 0.40859 1.00403 0.35355 0.0
H359 H 0.38717 0.93757 0.42612 0.0
Eu360 Eu 0.27538 1.01379 0.66395 0.0
Eu361 Eu 0.32094 0.04981 0.66602 0.0
C362 C 0.303 1.02557 0.72654 0.0
C363 C 0.21536 0.97206 0.67848 0.0
C364 C 0.20345 0.99417 0.69203 0.0
C365 C 0.17492 0.94681 0.68591 0.0
C366 C 0.17705 0.993 0.70156 0.0
C367 C 0.20118 0.94826 0.67571 0.0
C368 C 0.16238 0.96941 0.69833 0.0
C369 C 0.24028 0.97588 0.6634 0.0
O370 O 0.31501 0.04441 0.61782 0.0
O371 O 0.29252 1.0061 0.61996 0.0
C372 C 0.30292 1.02505 0.60411 0.0
O373 O 0.25623 0.05043 0.64162 0.0
O374 O 0.36365 0.05029 0.65386 0.0
O375 O 0.34623 0.08168 0.67954 0.0
O376 O 0.29312 0.07759 0.6429 0.0
C377 C 0.26817 0.07323 0.63543 0.0
O378 O 0.25535 0.04653 0.68769 0.0
O379 O 0.29061 0.07583 0.68958 0.0
O380 O 0.32352 1.03369 0.71137 0.0
O381 O 0.239 0.99741 0.64784 0.0
O382 O 0.26326 0.97319 0.67666 0.0
O383 O 0.28235 1.01595 0.71233 0.0
C384 C 0.37394 0.09626 0.64602 0.0
C385 C 0.35697 0.10227 0.62386 0.0
C386 C 0.39142 0.14137 0.64283 0.0
C387 C 0.35628 0.12796 0.61203 0.0
C388 C 0.39166 0.11568 0.65506 0.0
C389 C 0.37319 0.14805 0.62161 0.0
C390 C 0.36653 0.07432 0.66425 0.0
C391 C 0.26583 0.06898 0.69606 0.0
H392 H 0.21409 1.01285 0.69404 0.0
H393 H 0.1645 0.92803 0.68416 0.0
H394 H 0.16799 1.01076 0.71098 0.0
H395 H 0.21012 0.93113 0.66509 0.0
H396 H 0.3425 0.08786 0.61715 0.0
H397 H 0.40492 0.15613 0.65063 0.0
H398 H 0.34146 0.13229 0.59627 0.0
H399 H 0.40432 0.11163 0.67269 0.0
Eu400 Eu 0.27234 0.06155 0.91457 0.0
Eu401 Eu 0.31508 1.01949 0.91456 0.0
C402 C 0.30072 0.04444 0.85343 0.0
C403 C 0.21769 0.10971 0.89306 0.0
C404 C 0.20897 0.08812 0.87764 0.0
C405 C 0.17444 0.13309 0.88566 0.0
C406 C 0.18255 0.08804 0.86807 0.0
C407 C 0.20061 0.13256 0.89647 0.0
C408 C 0.16466 0.11029 0.87249 0.0
C409 C 0.24111 0.10481 0.91063 0.0
O410 O 0.31002 1.0269 0.96255 0.0
O411 O 0.2878 0.06706 0.95956 0.0
C412 C 0.29793 0.04744 0.97578 0.0
O413 O 0.25003 1.0295 0.93836 0.0
O414 O 0.35696 1.01199 0.92825 0.0
O415 O 0.33799 0.98441 0.90076 0.0
O416 O 0.28469 0.99706 0.93835 0.0
C417 C 0.26033 1.00549 0.94575 0.0
O418 O 0.24977 1.03056 0.89262 0.0
O419 O 0.28296 0.99668 0.89204 0.0
O420 O 0.32077 1.03574 0.86966 0.0
O421 O 0.23729 0.08505 0.92781 0.0
O422 O 0.26503 0.10307 0.89915 0.0
O423 O 0.2795 0.05546 0.86663 0.0
C424 C 0.36355 0.96468 0.93443 0.0
C425 C 0.344 0.95854 0.95389 0.0
C426 C 0.38242 0.91901 0.93849 0.0
C427 C 0.34283 0.9325 0.96466 0.0
C428 C 0.38304 0.94498 0.92705 0.0
C429 C 0.36193 0.91227 0.957 0.0
C430 C 0.35829 0.98816 0.91691 0.0
C431 C 0.25857 1.00639 0.88537 0.0
H432 H 0.22191 0.0703 0.87486 0.0
H433 H 0.16174 0.15111 0.88808 0.0
H434 H 0.17601 0.06997 0.85824 0.0
H435 H 0.20703 0.14936 0.90845 0.0
H436 H 0.32836 0.97338 0.95928 0.0
H437 H 0.3977 0.90414 0.93241 0.0
H438 H 0.32631 0.92818 0.97827 0.0
H439 H 0.39781 0.94926 0.91148 0.0
Eu440 Eu 0.26714 1.02082 0.16646 0.0
Eu441 Eu 0.30715 0.06329 0.1631 0.0
C442 C 0.28064 0.04826 0.10337 0.0
C443 C 0.21605 0.96555 0.15681 0.0
C444 C 0.21642 0.96321 0.12865 0.0
C445 C 0.20921 0.91736 0.16167 0.0
C446 C 0.21345 0.93791 0.11707 0.0
C447 C 0.21133 0.94272 0.17312 0.0
C448 C 0.21105 0.91446 0.13351 0.0
C449 C 0.22593 0.98951 0.17006 0.0
O450 O 0.30186 0.05786 0.21156 0.0
O451 O 0.26202 1.03793 0.21074 0.0
C452 C 0.28189 0.04695 0.22593 0.0
O453 O 0.30216 0.99907 0.18893 0.0
O454 O 0.31131 0.10544 0.17525 0.0
O455 O 0.34083 0.08614 0.14852 0.0
O456 O 0.33283 1.03299 0.18549 0.0
C457 C 0.32609 1.00894 0.19414 0.0
O458 O 0.29758 0.99852 0.14169 0.0
O459 O 0.33034 1.03066 0.13966 0.0
O460 O 0.29043 0.06785 0.11829 0.0
O461 O 0.24911 0.98483 0.18212 0.0
O462 O 0.2245 1.0131 0.15736 0.0
O463 O 0.26961 1.02821 0.1179 0.0
C464 C 0.35808 0.11241 0.18153 0.0
C465 C 0.36674 0.09226 0.20014 0.0
C466 C 0.40072 0.13444 0.18692 0.0
C467 C 0.39279 0.09214 0.2107 0.0
C468 C 0.37488 0.13389 0.17539 0.0
C469 C 0.4104 0.11297 0.20386 0.0
C470 C 0.33532 0.10668 0.16399 0.0
C471 C 0.32117 1.00679 0.13328 0.0
H472 H 0.22022 0.98057 0.11571 0.0
H473 H 0.20754 0.89997 0.17509 0.0
H474 H 0.21384 0.93671 0.09524 0.0
H475 H 0.21129 0.94418 0.19497 0.0
H476 H 0.35411 0.07536 0.20486 0.0
H477 H 0.41324 0.15135 0.18204 0.0
H478 H 0.39934 0.07497 0.22324 0.0
H479 H 0.36856 0.14944 0.16077 0.0
Eu480 Eu 0.41721 0.27372 0.05319 0.0
Eu481 Eu 0.416 0.30565 1.00534 0.0
C482 C 0.4785 0.28427 1.02377 0.0
C483 C 0.43977 0.22301 0.10556 0.0
C484 C 0.45834 0.2417 0.11457 0.0
C485 C 0.44762 0.19574 0.14583 0.0
C486 C 0.46973 0.23859 0.14009 0.0
C487 C 0.43527 0.19946 0.12066 0.0
C488 C 0.4637 0.21604 0.15644 0.0
C489 C 0.42012 0.23201 0.0853 0.0
O490 O 0.36834 0.29542 1.0086 0.0
O491 O 0.37013 0.27147 0.04727 0.0
C492 C 0.35459 0.28323 1.02849 0.0
O493 O 0.39437 0.30987 0.07055 0.0
O494 O 0.40545 0.30165 0.96259 0.0
O495 O 0.42568 0.33725 0.97664 0.0
O496 O 0.39162 0.33447 1.03078 0.0
C497 C 0.38625 0.33174 0.0567 0.0
O498 O 0.44183 0.30612 0.07015 0.0
O499 O 0.43864 0.33434 1.03263 0.0
O500 O 0.46231 0.29075 1.00293 0.0
O501 O 0.40827 0.25516 0.09148 0.0
O502 O 0.42736 0.2306 0.05978 0.0
O503 O 0.46525 0.27643 0.04595 0.0
C504 C 0.39129 0.34524 0.94647 0.0
C505 C 0.36687 0.34751 0.96081 0.0
C506 C 0.38404 0.39101 0.92942 0.0
C507 C 0.35227 0.37204 0.96121 0.0
C508 C 0.39902 0.36657 0.92956 0.0
C509 C 0.3614 0.39451 0.94647 0.0
C510 C 0.41231 0.32656 0.95702 0.0
C511 C 0.44741 0.32883 0.05745 0.0
H512 H 0.46176 0.26016 0.10309 0.0
H513 H 0.44374 0.1775 0.15734 0.0
H514 H 0.4819 0.25472 0.14746 0.0
H515 H 0.42089 0.18493 0.11387 0.0
H516 H 0.36059 0.33138 0.97412 0.0
H517 H 0.39119 0.40751 0.91715 0.0
H518 H 0.33509 0.37372 0.97473 0.0
H519 H 0.41802 0.36529 0.91859 0.0
Eu520 Eu 0.06043 0.91636 0.27699 0.0
Eu521 Eu 1.01913 0.91647 0.31704 0.0
C522 C 0.04338 0.85403 0.30296 0.0
C523 C 0.11199 0.90333 0.22143 0.0
C524 C 0.1121 0.87506 0.21969 0.0
C525 C 0.11726 0.90707 0.1728 0.0
C526 C 0.11455 0.86287 0.19452 0.0
C527 C 0.11571 0.91912 0.19799 0.0
C528 C 0.11596 0.87881 0.17063 0.0
C529 C 0.10283 0.91728 0.24581 0.0
O530 O 1.02379 0.96439 0.31024 0.0
O531 O 0.06557 0.96089 0.29378 0.0
C532 C 0.04513 0.9775 0.30106 0.0
O533 O 1.02658 0.93836 0.2534 0.0
O534 O 1.02215 0.92502 0.36014 0.0
O535 O 0.98518 0.90892 0.34295 0.0
O536 O 0.99422 0.94038 0.28688 0.0
C537 C 1.00224 0.94593 0.26211 0.0
O538 O 1.0301 0.8928 0.25465 0.0
O539 O 0.99623 0.89217 0.28661 0.0
O540 O 1.03038 0.8696 0.32064 0.0
O541 O 0.08068 0.93186 0.24183 0.0
O542 O 0.10287 0.90403 0.26905 0.0
O543 O 0.05788 0.86781 0.28466 0.0
C544 C 0.9791 0.93988 0.37627 0.0
C545 C 0.97723 0.96553 0.36377 0.0
C546 C 0.93361 0.94611 0.39329 0.0
C547 C 0.95285 0.98044 0.36417 0.0
C548 C 0.95795 0.93109 0.39261 0.0
C549 C 0.93029 0.97007 0.37764 0.0
C550 C 0.99659 0.9193 0.36408 0.0
C551 C 1.00615 0.88515 0.26289 0.0
H552 H 0.10915 0.86246 0.23752 0.0
H553 H 0.11814 0.92016 0.15509 0.0
H554 H 0.11464 0.84098 0.19384 0.0
H555 H 0.11545 0.94104 0.19896 0.0
H556 H 0.99341 0.97259 0.35104 0.0
H557 H 0.9169 0.9379 0.40453 0.0
H558 H 0.95119 0.99881 0.35194 0.0
H559 H 0.95908 0.9112 0.40225 0.0
Eu560 Eu 0.16102 0.81826 0.54775 0.0
Eu561 Eu 0.16115 0.77716 0.50753 0.0
C562 C 0.09922 0.80135 0.52205 0.0
C563 C 0.13803 0.86849 0.59732 0.0
C564 C 0.11939 0.84891 0.60465 0.0
C565 C 0.13184 0.88947 0.64071 0.0
C566 C 0.10842 0.84852 0.63046 0.0
C567 C 0.14358 0.8893 0.61507 0.0
C568 C 0.11515 0.86836 0.64913 0.0
C569 C 0.15687 0.86213 0.5756 0.0
O570 O 0.20927 0.7828 0.51278 0.0
O571 O 0.20645 0.82282 0.53303 0.0
C572 C 0.22263 0.8029 0.52393 0.0
O573 O 0.18543 0.78629 0.57162 0.0
O574 O 0.17437 0.77313 0.46549 0.0
O575 O 0.14968 0.74256 0.48472 0.0
O576 O 0.18487 0.75376 0.53889 0.0
C577 C 0.19256 0.76205 0.56272 0.0
O578 O 0.13881 0.78748 0.57149 0.0
O579 O 0.13837 0.754 0.5397 0.0
O580 O 0.11508 0.79177 0.50245 0.0
O581 O 0.17292 0.84151 0.58202 0.0
O582 O 0.14681 0.86058 0.55112 0.0
O583 O 0.11284 0.81303 0.54188 0.0
C584 C 0.18449 0.72668 0.45851 0.0
C585 C 0.20307 0.71881 0.47885 0.0
C586 C 0.19203 0.6835 0.43723 0.0
C587 C 0.21453 0.69275 0.47948 0.0
C588 C 0.1797 0.70933 0.43716 0.0
C589 C 0.2084 0.67444 0.45912 0.0
C590 C 0.16508 0.7486 0.46425 0.0
C591 C 0.1316 0.76348 0.56362 0.0
H592 H 0.11527 0.83241 0.59132 0.0
H593 H 0.13662 0.9056 0.65418 0.0
H594 H 0.09592 0.83176 0.63609 0.0
H595 H 0.15824 0.90433 0.6098 0.0
H596 H 0.20673 0.73191 0.49567 0.0
H597 H 0.18801 0.6704 0.4206 0.0
H598 H 0.22691 0.68665 0.49676 0.0
H599 H 0.1652 0.71507 0.42144 0.0
Eu600 Eu 0.06216 0.66034 0.76571 0.0
Eu601 Eu 1.02439 0.66146 0.81062 0.0
C602 C 1.00552 0.69269 0.75555 0.0
C603 C 0.10702 0.67807 0.70877 0.0
C604 C 0.0878 0.6988 0.7026 0.0
C605 C 0.12601 0.68244 0.66406 0.0
C606 C 0.08723 0.71084 0.67704 0.0
C607 C 0.12625 0.67004 0.68956 0.0
C608 C 0.10635 0.70281 0.65742 0.0
C609 C 0.10234 0.66073 0.73208 0.0
O610 O 0.99889 0.63959 0.78171 0.0
O611 O 1.02822 0.63799 0.7457 0.0
C612 C 1.00501 0.63197 0.7571 0.0
O613 O 0.07056 0.61539 0.78201 0.0
O614 O 0.99113 0.67481 0.83604 0.0
O615 O 1.02227 0.64708 0.85269 0.0
O616 O 1.03185 0.61326 0.80498 0.0
C617 C 0.05202 0.59955 0.79267 0.0
O618 O 0.05788 0.70851 0.77323 0.0
O619 O 0.03994 0.70619 0.81469 0.0
O620 O 0.99811 0.68524 0.78013 0.0
O621 O 0.10356 0.67171 0.75601 0.0
O622 O 0.0809 0.64648 0.72893 0.0
O623 O 1.02921 0.68533 0.74545 0.0
C624 C 0.97613 0.6399 0.86223 0.0
C625 C 0.96844 0.62167 0.84246 0.0
C626 C 0.93359 0.63366 0.88524 0.0
C627 C 0.94281 0.61093 0.84305 0.0
C628 C 0.95895 0.64532 0.88405 0.0
C629 C 0.92473 0.61734 0.86411 0.0
C630 C 0.9979 0.65806 0.85571 0.0
C631 C 0.04802 0.7221 0.79448 0.0
H632 H 0.07223 0.70455 0.71703 0.0
H633 H 0.14105 0.67585 0.64952 0.0
H634 H 0.07136 0.72593 0.67256 0.0
H635 H 0.14066 0.65346 0.69387 0.0
H636 H 0.9814 0.61743 0.82534 0.0
H637 H 0.92074 0.63797 0.90235 0.0
H638 H 0.93688 0.59868 0.82625 0.0
H639 H 0.96449 0.65959 0.89934 0.0
Eu640 Eu 0.16628 0.27139 0.57176 0.0
Eu641 Eu 0.16514 0.30797 0.52673 0.0
C642 C 0.19548 0.24952 0.5188 0.0
C643 C 0.19265 0.22926 0.62799 0.0
C644 C 0.2143 0.224 0.61032 0.0
C645 C 0.19903 0.1843 0.64731 0.0
C646 C 0.22668 0.19838 0.60956 0.0
C647 C 0.18596 0.20978 0.64743 0.0
C648 C 0.2184 0.1778 0.62734 0.0
C649 C 0.17189 0.24912 0.61925 0.0
O650 O 0.14181 0.27526 0.50801 0.0
O651 O 0.14279 0.24479 0.5438 0.0
C652 C 0.13504 0.25212 0.51916 0.0
O653 O 0.11953 0.28416 0.57469 0.0
O654 O 0.17749 0.3269 0.48944 0.0
O655 O 0.15119 0.34957 0.51712 0.0
O656 O 0.11691 0.30481 0.53413 0.0
C657 C 0.10351 0.2935 0.55474 0.0
O658 O 0.21411 0.27689 0.56387 0.0
O659 O 0.21003 0.31584 0.54099 0.0
O660 O 0.18807 0.27278 0.50692 0.0
O661 O 0.17952 0.27386 0.61391 0.0
O662 O 0.15691 0.23951 0.60018 0.0
O663 O 0.18946 0.24427 0.54417 0.0
C664 C 0.14386 0.35381 0.47012 0.0
C665 C 0.12825 0.3327 0.46073 0.0
C666 C 0.13368 0.37975 0.42949 0.0
C667 C 0.11666 0.3345 0.43518 0.0
C668 C 0.14602 0.37761 0.45479 0.0
C669 C 0.11986 0.35779 0.41902 0.0
C670 C 0.16189 0.34842 0.49288 0.0
C671 C 0.22688 0.29683 0.55126 0.0
H672 H 0.21959 0.23859 0.59495 0.0
H673 H 0.19289 0.1694 0.66197 0.0
H674 H 0.24131 0.19444 0.5937 0.0
H675 H 0.16904 0.21336 0.66102 0.0
H676 H 0.1266 0.31408 0.4724 0.0
H677 H 0.13528 0.39838 0.41796 0.0
H678 H 0.10611 0.31724 0.42775 0.0
H679 H 0.1581 0.39399 0.46186 0.0
Eu680 Eu 0.5184 0.4063 0.26623 0.0
Eu681 Eu 0.56037 0.4031 0.30867 0.0
C682 C 0.57424 0.37484 0.25171 0.0
C683 C 0.47652 0.39735 0.20469 0.0
C684 C 0.50042 0.39302 0.18966 0.0
C685 C 0.45005 0.38671 0.16534 0.0
C686 C 0.49912 0.38639 0.1625 0.0
C687 C 0.45132 0.39398 0.19248 0.0
C688 C 0.47392 0.38352 0.15 0.0
C689 C 0.47828 0.40816 0.23197 0.0
O690 O 0.58314 0.42746 0.27906 0.0
O691 O 0.55183 0.42889 0.24451 0.0
C692 C 0.5753 0.43557 0.25485 0.0
O693 O 0.51075 0.44975 0.2851 0.0
O694 O 0.59645 0.39118 0.33118 0.0
O695 O 0.56367 0.41367 0.3513 0.0
O696 O 0.55191 0.45134 0.30353 0.0
C697 C 0.53044 0.46537 0.29348 0.0
O698 O 0.52299 0.35775 0.27426 0.0
O699 O 0.54581 0.35816 0.31348 0.0
O700 O 0.58351 0.37967 0.27615 0.0
O701 O 0.47955 0.39089 0.2523 0.0
O702 O 0.49601 0.42683 0.23397 0.0
O703 O 0.55049 0.38431 0.24329 0.0
C704 C 0.60908 0.42441 0.35997 0.0
C705 C 0.61571 0.44462 0.34111 0.0
C706 C 0.64876 0.43432 0.38615 0.0
C707 C 0.63944 0.45862 0.34398 0.0
C708 C 0.62528 0.41975 0.38288 0.0
C709 C 0.65664 0.45309 0.36617 0.0
C710 C 0.58908 0.40491 0.3524 0.0
C711 C 0.53533 0.34324 0.29425 0.0
H712 H 0.52014 0.39559 0.19873 0.0
H713 H 0.4305 0.38304 0.15648 0.0
H714 H 0.51782 0.38363 0.15124 0.0
H715 H 0.43273 0.39717 0.20381 0.0
H716 H 0.60352 0.44825 0.32314 0.0
H717 H 0.66103 0.43046 0.40395 0.0
H718 H 0.64486 0.47279 0.3281 0.0
H719 H 0.62049 0.40406 0.39751 0.0
Eu720 Eu 0.41568 0.79985 0.06937 0.0
Eu721 Eu 0.41513 0.75825 1.02868 0.0
C722 C 0.38385 0.81491 1.01441 0.0
C723 C 0.3945 0.85317 0.11629 0.0
C724 C 0.37727 0.86194 0.09512 0.0
C725 C 0.38754 0.89639 0.13762 0.0
C726 C 0.36693 0.88843 0.09413 0.0
C727 C 0.39898 0.87017 0.13798 0.0
C728 C 0.37261 0.90626 0.11504 0.0
C729 C 0.41279 0.83004 0.11162 0.0
O730 O 0.43715 0.78871 1.00433 0.0
O731 O 0.43838 0.82201 1.03634 0.0
C732 C 0.44457 0.81266 1.01218 0.0
O733 O 0.46104 0.78374 0.07482 0.0
O734 O 0.4001 0.73636 0.99502 0.0
O735 O 0.42851 0.71578 1.02275 0.0
O736 O 0.46342 0.76338 1.03482 0.0
C737 C 0.47692 0.77477 0.05499 0.0
O738 O 0.36764 0.79429 0.06476 0.0
O739 O 0.37053 0.75369 0.04574 0.0
O740 O 0.39069 0.79068 1.00538 0.0
O741 O 0.40217 0.80607 0.11107 0.0
O742 O 0.42884 0.83444 0.09124 0.0
O743 O 0.39203 0.8232 1.03804 0.0
C744 C 0.42884 0.70501 0.97567 0.0
C745 C 0.4562 0.71013 0.9712 0.0
C746 C 0.42252 0.69798 0.92777 0.0
C747 C 0.46655 0.70964 0.94498 0.0
C748 C 0.41252 0.69747 0.95404 0.0
C749 C 0.4494 0.70511 0.92277 0.0
C750 C 0.41502 0.71461 0.99993 0.0
C751 C 0.35433 0.77381 0.05437 0.0
H752 H 0.37368 0.84901 0.07818 0.0
H753 H 0.39089 0.90906 0.15472 0.0
H754 H 0.35553 0.89511 0.07638 0.0
H755 H 0.41235 0.8637 0.15443 0.0
H756 H 0.46909 0.71621 0.98761 0.0
H757 H 0.40855 0.69445 0.91143 0.0
H758 H 0.48772 0.71396 0.94212 0.0
H759 H 0.39119 0.69381 0.95715 0.0
Eu760 Eu 1.02866 0.41181 0.75729 0.0
Eu761 Eu 0.0643 0.41125 0.80408 0.0
C762 C 1.00566 0.4424 0.80898 0.0
C763 C 0.98514 0.43687 0.7021 0.0
C764 C 0.97898 0.45778 0.72014 0.0
C765 C 0.94048 0.44301 0.68247 0.0
C766 C 0.95315 0.46979 0.72072 0.0
C767 C 0.96617 0.43029 0.6825 0.0
C768 C 0.9332 0.46183 0.70251 0.0
C769 C 1.00599 0.41677 0.71017 0.0
O770 O 1.03051 0.38831 0.82257 0.0
O771 O 1.00129 0.38943 0.7861 0.0
C772 C 1.00759 0.38186 0.81108 0.0
O773 O 0.04287 0.36552 0.75567 0.0
O774 O 0.07951 0.42852 0.84027 0.0
O775 O 0.10446 0.39796 0.81994 0.0
O776 O 0.06124 0.36295 0.79721 0.0
C777 C 0.05088 0.34959 0.77634 0.0
O778 O 1.03426 0.45951 0.76394 0.0
O779 O 0.07313 0.45509 0.78637 0.0
O780 O 1.02842 0.43505 0.82145 0.0
O781 O 1.03037 0.42543 0.71494 0.0
O782 O 0.99735 0.40094 0.72939 0.0
O783 O 1.00089 0.43543 0.78398 0.0
C784 C 0.10828 0.40365 0.86796 0.0
C785 C 0.10247 0.37721 0.87595 0.0
C786 C 0.11352 0.41603 0.91486 0.0
C787 C 0.10221 0.37021 0.90337 0.0
C788 C 0.11457 0.42275 0.88747 0.0
C789 C 0.10686 0.3898 0.92318 0.0
C790 C 0.10189 0.41388 0.84083 0.0
C791 C 0.05418 0.47211 0.77617 0.0
H792 H 0.99312 0.46289 0.73571 0.0
H793 H 0.92607 0.43719 0.66748 0.0
H794 H 0.94854 0.48398 0.73665 0.0
H795 H 0.97043 0.4139 0.66867 0.0
H796 H 0.0971 0.36234 0.86118 0.0
H797 H 0.11703 0.43165 0.92941 0.0
H798 H 0.09801 0.34949 0.90898 0.0
H799 H 0.11854 0.44348 0.88154 0.0
Eu800 Eu 0.41473 0.30691 0.5596 0.0
Eu801 Eu 0.417 0.27075 0.51439 0.0
C802 C 0.44853 0.25072 0.5682 0.0
C803 C 0.43048 0.35503 0.6143 0.0
C804 C 0.45151 0.33708 0.62273 0.0
C805 C 0.43515 0.38054 0.65506 0.0
C806 C 0.46374 0.34031 0.64767 0.0
C807 C 0.42256 0.37699 0.63025 0.0
C808 C 0.45548 0.36191 0.66423 0.0
C809 C 0.41329 0.34733 0.59222 0.0
O810 O 0.39507 0.24392 0.5428 0.0
O811 O 0.39283 0.27203 0.57935 0.0
C812 C 0.38735 0.24904 0.56765 0.0
O813 O 0.36965 0.31475 0.54431 0.0
O814 O 0.4302 0.23832 0.48821 0.0
O815 O 0.40404 0.27105 0.47199 0.0
O816 O 0.36854 0.27694 0.52055 0.0
C817 C 0.3543 0.29635 0.53335 0.0
O818 O 0.4631 0.30418 0.55274 0.0
O819 O 0.46236 0.28558 0.51175 0.0
O820 O 0.44094 0.24372 0.54383 0.0
O821 O 0.42328 0.34916 0.5677 0.0
O822 O 0.40164 0.32445 0.59708 0.0
O823 O 0.44084 0.27402 0.57876 0.0
C824 C 0.39567 0.22567 0.46095 0.0
C825 C 0.37572 0.21868 0.47969 0.0
C826 C 0.3895 0.18346 0.43803 0.0
C827 C 0.36384 0.19367 0.47857 0.0
C828 C 0.40204 0.20831 0.43966 0.0
C829 C 0.37108 0.17541 0.45811 0.0
C830 C 0.41434 0.2465 0.46843 0.0
C831 C 0.47749 0.29416 0.53202 0.0
H832 H 0.45731 0.31964 0.61075 0.0
H833 H 0.42872 0.39761 0.66718 0.0
H834 H 0.47904 0.32538 0.65427 0.0
H835 H 0.40596 0.39067 0.62406 0.0
H836 H 0.37094 0.23154 0.4966 0.0
H837 H 0.39481 0.1703 0.42151 0.0
H838 H 0.35005 0.18821 0.49462 0.0
H839 H 0.41776 0.21323 0.42528 0.0
Eu840 Eu 0.55506 0.65482 0.26115 0.0
Eu841 Eu 0.51507 0.65469 0.30286 0.0
C842 C 0.57035 0.62056 0.31511 0.0
C843 C 0.60691 0.63453 0.21188 0.0
C844 C 0.61539 0.6162 0.23236 0.0
C845 C 0.65105 0.63029 0.19127 0.0
C846 C 0.64216 0.60674 0.23354 0.0
C847 C 0.6245 0.64084 0.1908 0.0
C848 C 0.66059 0.61432 0.21338 0.0
C849 C 0.58389 0.6526 0.2175 0.0
O850 O 0.54686 0.67405 0.32659 0.0
O851 O 0.57988 0.67461 0.29392 0.0
C852 C 0.57135 0.67993 0.31866 0.0
O853 O 0.54001 0.70065 0.256 0.0
O854 O 0.49182 0.64338 0.33793 0.0
O855 O 0.47323 0.67029 0.3073 0.0
O856 O 0.52271 0.70274 0.29742 0.0
C857 C 0.53288 0.71646 0.27641 0.0
O858 O 0.54782 0.6068 0.2648 0.0
O859 O 0.50926 0.60958 0.28841 0.0
O860 O 0.54664 0.62825 0.32524 0.0
O861 O 0.56001 0.64186 0.21924 0.0
O862 O 0.58892 0.66832 0.23765 0.0
O863 O 0.57813 0.62891 0.29106 0.0
C864 C 0.46609 0.67917 0.35362 0.0
C865 C 0.48696 0.69574 0.36191 0.0
C866 C 0.44159 0.68936 0.39464 0.0
C867 C 0.48588 0.7078 0.38706 0.0
C868 C 0.44306 0.67655 0.36973 0.0
C869 C 0.46349 0.70413 0.40405 0.0
C870 C 0.47169 0.6602 0.33196 0.0
C871 C 0.52814 0.59343 0.27727 0.0
H872 H 0.60201 0.61127 0.24888 0.0
H873 H 0.66422 0.63529 0.1747 0.0
H874 H 0.64852 0.5946 0.25098 0.0
H875 H 0.61826 0.65517 0.17496 0.0
H876 H 0.50505 0.69772 0.3498 0.0
H877 H 0.42358 0.68727 0.40672 0.0
H878 H 0.50315 0.71896 0.39359 0.0
H879 H 0.42689 0.66364 0.36367 0.0
Eu880 Eu 0.16552 0.7632 0.06154 0.0
Eu881 Eu 0.16477 0.80489 1.02001 0.0
C882 C 0.13346 0.819 0.07521 0.0
C883 C 0.14508 0.71161 0.11138 0.0
C884 C 0.12118 0.72745 0.11401 0.0
C885 C 0.13985 0.69456 0.15704 0.0
C886 C 0.10716 0.72759 0.13829 0.0
C887 C 0.15407 0.69469 0.13272 0.0
C888 C 0.11654 0.71144 0.16026 0.0
C889 C 0.16417 0.71917 0.09055 0.0
O890 O 0.1875 0.82705 0.05149 0.0
O891 O 0.18759 0.79442 0.08524 0.0
C892 C 0.19438 0.81836 0.0759 0.0
O893 O 0.21118 0.75735 0.04697 0.0
O894 O 0.15174 0.84034 0.9968 0.0
O895 O 0.17845 0.80997 0.97817 0.0
O896 O 0.21297 0.79733 1.02544 0.0
C897 C 0.22681 0.77658 1.03718 0.0
O898 O 0.1174 0.76847 0.05378 0.0
O899 O 0.11964 0.79048 1.01408 0.0
O900 O 0.14118 0.82848 0.05148 0.0
O901 O 0.1552 0.72059 0.06554 0.0
O902 O 0.17746 0.74036 0.09735 0.0
O903 O 0.14031 0.79428 0.08365 0.0
C904 C 0.18599 0.85644 0.97068 0.0
C905 C 0.20271 0.86509 0.99154 0.0
C906 C 0.1945 0.89741 0.94532 0.0
C907 C 0.21382 0.89049 0.99009 0.0
C908 C 0.1825 0.8723 0.94722 0.0
C909 C 0.2092 0.90729 0.96725 0.0
C910 C 0.16775 0.83464 0.97659 0.0
C911 C 0.10375 0.78043 1.03325 0.0
H912 H 0.11449 0.74137 0.09807 0.0
H913 H 0.14761 0.68188 0.1735 0.0
H914 H 0.08974 0.74137 0.14011 0.0
H915 H 0.17299 0.68299 0.13122 0.0
H916 H 0.20544 0.85309 1.0099 0.0
H917 H 0.19179 0.90931 0.92698 0.0
H918 H 0.22495 0.89734 1.00742 0.0
H919 H 0.16952 0.8659 0.93101 0.0
Eu920 Eu 0.76488 0.06286 0.6584 0.0
Eu921 Eu 0.80548 1.01879 0.65982 0.0
C922 C 0.75003 1.00875 0.69161 0.0
C923 C 0.70911 0.1165 0.66877 0.0
C924 C 0.70892 0.11872 0.69695 0.0
C925 C 0.66021 0.12282 0.66775 0.0
C926 C 0.68438 0.12261 0.71047 0.0
C927 C 0.68477 0.11971 0.65421 0.0
C928 C 0.65969 0.12353 0.69609 0.0
C929 C 0.73297 0.10582 0.65449 0.0
O930 O 0.77583 0.99639 0.63567 0.0
O931 O 0.74186 1.02946 0.63783 0.0
C932 C 0.75101 1.00532 0.63013 0.0
O933 O 0.78297 0.06785 0.61426 0.0
O934 O 0.82759 0.98292 0.67264 0.0
O935 O 0.84936 1.01488 0.65186 0.0
O936 O 0.80075 1.02576 0.61184 0.0
C937 C 0.791 0.04764 0.59837 0.0
O938 O 0.77599 0.06379 0.70602 0.0
O939 O 0.80659 1.02906 0.70606 0.0
O940 O 0.77308 0.99761 0.68328 0.0
O941 O 0.75672 0.10597 0.6664 0.0
O942 O 0.72868 0.083 0.64273 0.0
O943 O 0.74259 1.03384 0.68495 0.0
C944 C 0.86486 0.96836 0.64929 0.0
C945 C 0.86161 0.96499 0.62149 0.0
C946 C 0.87526 0.92044 0.65524 0.0
C947 C 0.86459 0.93917 0.6107 0.0
C948 C 0.8736 0.94636 0.66571 0.0
C949 C 0.86959 0.91638 0.62783 0.0
C950 C 0.85071 0.99047 0.66293 0.0
C951 C 0.79178 0.04626 0.72055 0.0
H952 H 0.72747 0.11622 0.7086 0.0
H953 H 0.64166 0.12348 0.65601 0.0
H954 H 0.68475 0.12411 0.73229 0.0
H955 H 0.68459 0.11792 0.6324 0.0
H956 H 0.85463 0.98175 0.60857 0.0
H957 H 0.87907 0.90359 0.66915 0.0
H958 H 0.8614 0.93698 0.5892 0.0
H959 H 0.87583 0.94868 0.68735 0.0
Eu960 Eu 0.76826 1.02337 0.40973 0.0
Eu961 Eu 0.79515 0.07156 0.40985 0.0
C962 C 0.82262 1.01975 0.44235 0.0
C963 C 0.70916 0.98185 0.42874 0.0
C964 C 0.71859 0.98091 0.45543 0.0
C965 C 0.68754 0.93935 0.43574 0.0
C966 C 0.71451 0.95811 0.47147 0.0
C967 C 0.69213 0.96197 0.4195 0.0
C968 C 0.70033 0.93638 0.4611 0.0
C969 C 0.72425 0.99697 0.40889 0.0
O970 O 0.8264 0.04698 0.38734 0.0
O971 O 0.80483 1.0066 0.38756 0.0
C972 C 0.82574 1.02126 0.38102 0.0
O973 O 0.77122 1.02604 0.36254 0.0
O974 O 0.82373 0.10024 0.42431 0.0
O975 O 0.79231 0.1141 0.39627 0.0
O976 O 0.78327 0.06917 0.36198 0.0
C977 C 0.7773 0.04723 0.34755 0.0
O978 O 0.77034 1.02861 0.45764 0.0
O979 O 0.77885 0.07263 0.45537 0.0
O980 O 0.82642 0.04429 0.43235 0.0
O981 O 0.72412 1.02356 0.41125 0.0
O982 O 0.7484 0.98587 0.40455 0.0
O983 O 0.80042 1.00674 0.43729 0.0
C984 C 0.83751 0.1273 0.38962 0.0
C985 C 0.84319 0.11133 0.36702 0.0
C986 C 0.88312 0.14379 0.3879 0.0
C987 C 0.86894 0.11065 0.35568 0.0
C988 C 0.85734 0.14413 0.39953 0.0
C989 C 0.88946 0.12646 0.3663 0.0
C990 C 0.81561 0.11925 0.40744 0.0
C991 C 0.77511 0.05095 0.47128 0.0
H992 H 0.73184 0.99616 0.46275 0.0
H993 H 0.67573 0.92334 0.42757 0.0
H994 H 0.72463 0.95666 0.49089 0.0
H995 H 0.68479 0.9625 0.39883 0.0
H996 H 0.82847 0.0975 0.35958 0.0
H997 H 0.89823 0.1564 0.39651 0.0
H998 H 0.87299 0.09656 0.33954 0.0
H999 H 0.85357 0.15597 0.41748 0.0
Eu1000 Eu 0.77209 0.06252 0.15983 0.0
Eu1001 Eu 0.80648 1.01369 0.15885 0.0
C1002 C 0.82761 0.06839 0.12857 0.0
C1003 C 0.72933 0.12341 0.14302 0.0
C1004 C 0.7502 0.13053 0.12538 0.0
C1005 C 0.7104 0.16899 0.14008 0.0
C1006 C 0.75193 0.15707 0.11618 0.0
C1007 C 0.70922 0.14255 0.15008 0.0
C1008 C 0.7321 0.1767 0.1235 0.0
C1009 C 0.73321 0.09906 0.15941 0.0
O1010 O 0.83461 0.03878 0.18215 0.0
O1011 O 0.80843 0.07818 0.18222 0.0
C1012 C 0.83082 0.06422 0.18893 0.0
O1013 O 0.76544 0.05005 0.20509 0.0
O1014 O 0.83771 0.98719 0.14259 0.0
O1015 O 0.80904 0.97066 0.17109 0.0
O1016 O 0.79721 1.01651 0.20697 0.0
C1017 C 0.7808 1.03378 0.22057 0.0
O1018 O 0.77513 0.05541 0.11194 0.0
O1019 O 0.78793 1.01164 0.1147 0.0
O1020 O 0.83364 0.04299 0.13583 0.0
O1021 O 0.73096 0.07569 0.14753 0.0
O1022 O 0.75489 0.10009 0.1743 0.0
O1023 O 0.80494 0.08076 0.13594 0.0
C1024 C 0.85571 0.9558 0.17292 0.0
C1025 C 0.85688 0.95678 0.20119 0.0
C1026 C 0.90466 0.95022 0.17117 0.0
C1027 C 0.88191 0.95505 0.21431 0.0
C1028 C 0.87963 0.95085 0.15821 0.0
C1029 C 0.90618 0.95329 0.19931 0.0
C1030 C 0.83194 0.96667 0.15807 0.0
C1031 C 0.78218 1.03295 0.09862 0.0
H1032 H 0.76627 0.116 0.12033 0.0
H1033 H 0.69443 0.18341 0.1455 0.0
H1034 H 0.76917 0.16222 0.10383 0.0
H1035 H 0.69338 0.13737 0.16423 0.0
H1036 H 0.83872 0.96057 0.21303 0.0
H1037 H 0.92273 0.94886 0.15881 0.0
H1038 H 0.88219 0.95622 0.23614 0.0
H1039 H 0.87914 0.95012 0.13632 0.0
Eu1040 Eu 0.77488 1.01095 0.91102 0.0
Eu1041 Eu 0.8033 0.06086 0.90886 0.0
C1042 C 0.74435 0.06155 0.88143 0.0
C1043 C 0.73518 0.95368 0.89042 0.0
C1044 C 0.73024 0.96957 0.86707 0.0
C1045 C 0.691 0.93448 0.88563 0.0
C1046 C 0.7053 0.9692 0.85409 0.0
C1047 C 0.71588 0.93533 0.89904 0.0
C1048 C 0.68496 0.95238 0.86381 0.0
C1049 C 0.75501 0.963 0.90974 0.0
O1050 O 0.77048 0.07642 0.93556 0.0
O1051 O 0.74497 1.0382 0.93443 0.0
C1052 C 0.74896 0.06308 0.94264 0.0
O1053 O 0.79142 1.00999 0.95632 0.0
O1054 O 0.81698 0.10039 0.89839 0.0
O1055 O 0.84614 0.06959 0.91423 0.0
O1056 O 0.80301 0.05348 0.95697 0.0
C1057 C 0.79692 1.03134 0.97132 0.0
O1058 O 0.78539 1.01363 0.86303 0.0
O1059 O 0.80395 0.05433 0.86213 0.0
O1060 O 0.76506 0.07631 0.88793 0.0
O1061 O 0.77928 0.96802 0.90058 0.0
O1062 O 0.74496 0.98263 0.92425 0.0
O1063 O 0.74402 1.03559 0.88751 0.0
C1064 C 0.8508 0.11569 0.92505 0.0
C1065 C 0.83445 0.12261 0.94715 0.0
C1066 C 0.87422 0.15751 0.92904 0.0
C1067 C 0.83693 0.14754 0.95919 0.0
C1068 C 0.87119 0.13277 0.91647 0.0
C1069 C 0.85649 0.16555 0.94993 0.0
C1070 C 0.84166 0.09511 0.90701 0.0
C1071 C 0.79461 1.03429 0.84802 0.0
H1072 H 0.74457 0.98431 0.8604 0.0
H1073 H 0.67615 0.9207 0.89314 0.0
H1074 H 0.70147 0.98351 0.8376 0.0
H1075 H 0.71914 0.92326 0.91733 0.0
H1076 H 0.81819 0.10976 0.95354 0.0
H1077 H 0.88991 0.17056 0.92182 0.0
H1078 H 0.82257 0.15308 0.97486 0.0
H1079 H 0.88365 0.12774 0.8991 0.0
Eu1080 Eu 0.66529 0.77289 0.06959 0.0
Eu1081 Eu 0.66431 0.81215 1.02489 0.0
C1082 C 0.69525 0.75422 1.01557 0.0
C1083 C 0.69047 0.72467 0.12117 0.0
C1084 C 0.70945 0.71783 0.10113 0.0
C1085 C 0.69731 0.68019 0.14147 0.0
C1086 C 0.72065 0.6917 0.10002 0.0
C1087 C 0.68519 0.70611 0.14195 0.0
C1088 C 0.71398 0.67221 0.1197 0.0
C1089 C 0.6707 0.74641 0.11498 0.0
O1090 O 0.64184 0.77955 1.00517 0.0
O1091 O 0.64217 0.74782 0.03988 0.0
C1092 C 0.63477 0.75614 1.01542 0.0
O1093 O 0.61926 0.78736 0.07366 0.0
O1094 O 0.68048 0.83182 0.98954 0.0
O1095 O 0.64786 0.85212 1.01158 0.0
O1096 O 0.61623 0.80808 1.03305 0.0
C1097 C 0.6031 0.79656 0.05378 0.0
O1098 O 0.71292 0.77946 0.06244 0.0
O1099 O 0.70845 0.81972 0.04169 0.0
O1100 O 0.68754 0.77768 1.00439 0.0
O1101 O 0.67981 0.77087 0.11149 0.0
O1102 O 0.65436 0.73963 0.09574 0.0
O1103 O 0.68864 0.74766 0.04046 0.0
C1104 C 0.64836 0.85478 0.96361 0.0
C1105 C 0.63902 0.83165 0.95092 0.0
C1106 C 0.6393 0.88109 0.92277 0.0
C1107 C 0.63085 0.83299 0.92402 0.0
C1108 C 0.64818 0.87958 0.94957 0.0
C1109 C 0.63126 0.85766 0.90955 0.0
C1110 C 0.66244 0.85163 0.98946 0.0
C1111 C 0.72545 0.80018 0.0509 0.0
H1112 H 0.71356 0.73182 0.08475 0.0
H1113 H 0.69282 0.66619 0.15764 0.0
H1114 H 0.73326 0.68656 0.08283 0.0
H1115 H 0.67035 0.71098 0.15741 0.0
H1116 H 0.6393 0.81222 0.96142 0.0
H1117 H 0.63851 0.90059 0.91247 0.0
H1118 H 0.62463 0.81463 0.91446 0.0
H1119 H 0.65548 0.89755 0.95907 0.0
Eu1120 Eu 0.05575 0.16257 0.76463 0.0
Eu1121 Eu 1.00991 0.16155 0.80225 0.0
C1122 C 0.06555 0.12999 0.8204 0.0
C1123 C 0.11675 0.14612 0.72362 0.0
C1124 C 0.12856 0.13407 0.74692 0.0
C1125 C 0.15771 0.13587 0.6987 0.0
C1126 C 0.1552 0.12412 0.74642 0.0
C1127 C 0.13121 0.14659 0.69938 0.0
C1128 C 0.17022 0.12547 0.72243 0.0
C1129 C 0.09145 0.16191 0.72621 0.0
O1130 O 1.03757 0.18337 0.8286 0.0
O1131 O 0.0744 0.18413 0.80006 0.0
C1132 C 0.06235 0.19042 0.82305 0.0
O1133 O 0.03903 0.20741 0.75701 0.0
O1134 O 0.98528 0.14665 0.83471 0.0
O1135 O 0.96715 0.17524 0.80549 0.0
O1136 O 1.01606 0.20983 0.79582 0.0
C1137 C 1.02887 0.22334 0.77613 0.0
O1138 O 0.04894 0.11449 0.76812 0.0
O1139 O 1.00709 0.11702 0.78546 0.0
O1140 O 0.04066 0.13699 0.82784 0.0
O1141 O 0.06876 0.14902 0.72449 0.0
O1142 O 0.09175 0.17828 0.74653 0.0
O1143 O 0.07588 0.13824 0.79741 0.0
C1144 C 0.95431 0.17727 0.85222 0.0
C1145 C 0.95754 0.20523 0.8542 0.0
C1146 C 0.94711 0.17411 0.90063 0.0
C1147 C 0.95594 0.21749 0.8794 0.0
C1148 C 0.94769 0.16213 0.87537 0.0
C1149 C 0.95214 0.20181 0.90314 0.0
C1150 C 0.96436 0.16236 0.82871 0.0
C1151 C 1.02779 0.10104 0.77766 0.0
H1152 H 0.11766 0.13367 0.76588 0.0
H1153 H 0.16837 0.13555 0.67965 0.0
H1154 H 0.16422 0.1159 0.76492 0.0
H1155 H 0.12232 0.1558 0.68126 0.0
H1156 H 0.96283 0.21733 0.83664 0.0
H1157 H 0.94426 0.16116 0.91818 0.0
H1158 H 0.95869 0.2391 0.88025 0.0
H1159 H 0.94541 0.14041 0.87425 0.0
Eu1160 Eu 0.91654 0.29965 0.56713 0.0
Eu1161 Eu 0.91574 0.25591 0.52685 0.0
C1162 C 0.8839 0.31231 0.51199 0.0
C1163 C 0.89821 0.35755 0.61057 0.0
C1164 C 0.88354 0.36797 0.58821 0.0
C1165 C 0.89068 0.4 0.63332 0.0
C1166 C 0.87388 0.3947 0.58773 0.0
C1167 C 0.90131 0.37344 0.63339 0.0
C1168 C 0.87786 0.41123 0.61008 0.0
C1169 C 0.9148 0.33287 0.60722 0.0
O1170 O 0.93657 0.28646 0.50171 0.0
O1171 O 0.93916 0.32031 0.53301 0.0
C1172 C 0.94469 0.31033 0.50897 0.0
O1173 O 0.96102 0.28174 0.57388 0.0
O1174 O 0.89681 0.23335 0.49561 0.0
O1175 O 0.93194 0.21534 0.51607 0.0
O1176 O 0.96387 0.26134 0.53388 0.0
C1177 C 0.97712 0.2727 0.55425 0.0
O1178 O 0.86869 0.29279 0.56299 0.0
O1179 O 0.8721 0.25111 0.54614 0.0
O1180 O 0.89121 0.28807 0.50337 0.0
O1181 O 0.90251 0.30977 0.60794 0.0
O1182 O 0.93135 0.33481 0.58687 0.0
O1183 O 0.89224 0.32142 0.53522 0.0
C1184 C 0.92575 0.20881 0.46841 0.0
C1185 C 0.95274 0.21372 0.46178 0.0
C1186 C 0.9145 0.20753 0.42062 0.0
C1187 C 0.96052 0.2156 0.4347 0.0
C1188 C 0.90697 0.20474 0.44763 0.0
C1189 C 0.94127 0.2135 0.41377 0.0
C1190 C 0.91514 0.21389 0.49564 0.0
C1191 C 0.85566 0.27159 0.55365 0.0
H1192 H 0.88113 0.35599 0.57036 0.0
H1193 H 0.89263 0.41176 0.65134 0.0
H1194 H 0.86404 0.40256 0.5695 0.0
H1195 H 0.9127 0.36569 0.65076 0.0
H1196 H 0.96756 0.21724 0.4774 0.0
H1197 H 0.89904 0.20602 0.40524 0.0
H1198 H 0.98159 0.21917 0.43028 0.0
H1199 H 0.8859 0.20132 0.45234 0.0
Eu1200 Eu 0.55234 0.92184 0.76403 0.0
Eu1201 Eu 0.51982 0.92458 0.81344 0.0
C1202 C 0.52784 0.98442 0.7845 0.0
C1203 C 0.59985 0.93345 0.70658 0.0
C1204 C 0.60298 0.9615 0.70745 0.0
C1205 C 0.64858 0.9266 0.70249 0.0
C1206 C 0.62886 0.97197 0.70637 0.0
C1207 C 0.6227 0.91632 0.70237 0.0
C1208 C 0.65214 0.95452 0.70554 0.0
C1209 C 0.57505 0.92111 0.71654 0.0
O1210 O 0.52023 0.8765 0.8056 0.0
O1211 O 0.53377 0.87822 0.76244 0.0
C1212 C 0.52746 0.86263 0.78358 0.0
O1213 O 0.58042 0.89647 0.79173 0.0
O1214 O 0.47882 0.91743 0.82791 0.0
O1215 O 0.50796 0.93769 0.85317 0.0
O1216 O 0.55281 0.89689 0.82923 0.0
C1217 C 0.57484 0.8885 0.81661 0.0
O1218 O 0.58315 0.94111 0.78925 0.0
O1219 O 0.55776 0.94508 0.82805 0.0
O1220 O 0.51029 0.969 0.79717 0.0
O1221 O 0.58004 0.90334 0.7357 0.0
O1222 O 0.55372 0.93671 0.72184 0.0
O1223 O 0.54647 0.97033 0.77024 0.0
C1224 C 0.4791 0.90926 0.87494 0.0
C1225 C 0.49581 0.88611 0.87933 0.0
C1226 C 0.45874 0.90301 0.91881 0.0
C1227 C 0.49413 0.87153 0.90348 0.0
C1228 C 0.46061 0.91774 0.89468 0.0
C1229 C 0.4754 0.87968 0.92341 0.0
C1230 C 0.48431 0.92681 0.85191 0.0
C1231 C 0.58036 0.94888 0.81436 0.0
H1232 H 0.58569 0.97523 0.71048 0.0
H1233 H 0.6656 0.91226 0.70171 0.0
H1234 H 0.63044 0.99373 0.70709 0.0
H1235 H 0.62073 0.89455 0.70158 0.0
H1236 H 0.51077 0.87986 0.86445 0.0
H1237 H 0.44419 0.90985 0.93375 0.0
H1238 H 0.50773 0.85407 0.9066 0.0
H1239 H 0.44811 0.93604 0.89169 0.0
Eu1240 Eu 1.0178 0.16787 0.26521 0.0
Eu1241 Eu 0.05172 0.1653 0.31328 0.0
C1242 C 0.04402 0.10559 0.28574 0.0
C1243 C 0.97957 0.14482 0.20649 0.0
C1244 C 0.97594 0.12098 0.22165 0.0
C1245 C 0.93679 0.1385 0.18403 0.0
C1246 C 0.9522 0.10689 0.2192 0.0
C1247 C 0.96041 0.15291 0.18686 0.0
C1248 C 0.93183 0.11614 0.20111 0.0
C1249 C 0.99777 0.1648 0.21697 0.0
O1250 O 0.05034 0.21369 0.30474 0.0
O1251 O 1.03207 0.21333 0.26317 0.0
C1252 C 0.04067 0.22822 0.28345 0.0
O1253 O 0.98963 0.19252 0.29237 0.0
O1254 O 0.0918 0.17567 0.32852 0.0
O1255 O 0.06582 0.14889 0.35147 0.0
O1256 O 1.01766 0.19099 0.3297 0.0
C1257 C 0.99526 0.19946 0.31733 0.0
O1258 O 0.98914 0.14553 0.29104 0.0
O1259 O 1.01481 0.14401 0.32985 0.0
O1260 O 0.06208 0.12125 0.29698 0.0
O1261 O 0.98646 0.17895 0.23619 0.0
O1262 O 1.02271 0.15651 0.22285 0.0
O1263 O 1.0243 0.11966 0.27275 0.0
C1264 C 0.09261 0.17664 0.3765 0.0
C1265 C 0.0705 0.18729 0.39122 0.0
C1266 C 0.1226 0.18643 0.41338 0.0
C1267 C 0.07431 0.19656 0.41727 0.0
C1268 C 0.11871 0.17652 0.38751 0.0
C1269 C 0.10035 0.19585 0.42871 0.0
C1270 C 0.08792 0.16255 0.35137 0.0
C1271 C 0.99258 0.13833 0.3165 0.0
H1272 H 0.99027 0.11456 0.23714 0.0
H1273 H 0.92194 0.14563 0.16934 0.0
H1274 H 0.94916 0.08989 0.23283 0.0
H1275 H 0.96269 0.1715 0.17524 0.0
H1276 H 0.05014 0.18755 0.38296 0.0
H1277 H 0.143 0.18708 0.42127 0.0
H1278 H 0.05686 0.20401 0.42856 0.0
H1279 H 0.13593 0.1684 0.37631 0.0
Eu1280 Eu 0.51033 0.17328 0.7789 0.0
Eu1281 Eu 0.55291 0.17189 0.81679 0.0
C1282 C 0.52841 0.23497 0.80379 0.0
C1283 C 0.4604 0.18255 0.72145 0.0
C1284 C 0.4647 0.20958 0.71426 0.0
C1285 C 0.45741 0.17119 0.67403 0.0
C1286 C 0.46557 0.21731 0.68705 0.0
C1287 C 0.45557 0.16371 0.70119 0.0
C1288 C 0.46311 0.19794 0.66661 0.0
C1289 C 0.46725 0.17196 0.74847 0.0
O1290 O 0.54849 0.12431 0.80959 0.0
O1291 O 0.50559 0.12853 0.79676 0.0
C1292 C 0.52657 0.11155 0.80196 0.0
O1293 O 0.54321 0.15234 0.75365 0.0
O1294 O 0.54944 0.16224 0.85985 0.0
O1295 O 0.58736 0.17693 0.84265 0.0
O1296 O 0.57636 0.14807 0.78634 0.0
C1297 C 0.56751 0.14356 0.76179 0.0
O1298 O 0.54027 0.19614 0.75448 0.0
O1299 O 0.57498 0.19684 0.78551 0.0
O1300 O 0.54328 0.21894 0.82013 0.0
O1301 O 0.48739 0.15438 0.74793 0.0
O1302 O 0.4691 0.18869 0.76862 0.0
O1303 O 0.51244 0.22162 0.78684 0.0
C1304 C 0.59165 0.14464 0.87627 0.0
C1305 C 0.59329 0.11954 0.86346 0.0
C1306 C 0.63565 0.13563 0.89611 0.0
C1307 C 0.61707 0.10366 0.86508 0.0
C1308 C 0.61202 0.1517 0.89415 0.0
C1309 C 0.63916 0.11255 0.88004 0.0
C1310 C 0.57535 0.16646 0.86378 0.0
C1311 C 0.56452 0.20376 0.76171 0.0
H1312 H 0.4687 0.22443 0.72951 0.0
H1313 H 0.45553 0.15568 0.65901 0.0
H1314 H 0.46883 0.23839 0.68213 0.0
H1315 H 0.45255 0.14262 0.7064 0.0
H1316 H 0.5776 0.11371 0.84972 0.0
H1317 H 0.65189 0.14252 0.90854 0.0
H1318 H 0.61889 0.08588 0.8526 0.0
H1319 H 0.61105 0.17108 0.90414 0.0
Eu1320 Eu 0.16411 0.30475 0.06547 0.0
Eu1321 Eu 0.16471 0.2784 1.01574 0.0
C1322 C 0.2268 0.2845 0.04067 0.0
C1323 C 0.18619 0.3433 0.12306 0.0
C1324 C 0.20782 0.3492 0.10583 0.0
C1325 C 0.19129 0.38626 0.14494 0.0
C1326 C 0.21999 0.37407 0.10702 0.0
C1327 C 0.17856 0.36152 0.14325 0.0
C1328 C 0.21128 0.3933 0.12603 0.0
C1329 C 0.16702 0.32355 0.11403 0.0
O1330 O 0.11665 0.28045 1.02224 0.0
O1331 O 0.11851 0.28956 0.06629 0.0
C1332 C 0.10277 0.2856 0.04478 0.0
O1333 O 0.14069 0.33687 0.04025 0.0
O1334 O 0.16152 0.23481 1.0109 0.0
O1335 O 0.17146 0.26165 0.97653 0.0
O1336 O 0.13665 0.31188 1.00168 0.0
C1337 C 0.13078 0.33365 1.01578 0.0
O1338 O 0.18668 0.33558 0.04129 0.0
O1339 O 0.18577 0.31513 1.00002 0.0
O1340 O 0.21205 0.27823 1.01964 0.0
O1341 O 0.1509 0.33377 0.09543 0.0
O1342 O 0.17687 0.2995 0.10778 0.0
O1343 O 0.21212 0.29177 0.06245 0.0
C1344 C 0.14468 0.22586 0.96745 0.0
C1345 C 0.12177 0.24198 0.96038 0.0
C1346 C 0.13587 0.19599 0.93077 0.0
C1347 C 0.10723 0.2363 0.93732 0.0
C1348 C 0.15101 0.20219 0.95344 0.0
C1349 C 0.11493 0.2139 0.92162 0.0
C1350 C 0.16496 0.23729 0.98457 0.0
C1351 C 0.19248 0.33543 1.01533 0.0
H1352 H 0.21364 0.33568 0.08971 0.0
H1353 H 0.18475 0.40019 0.16039 0.0
H1354 H 0.23506 0.37872 0.09189 0.0
H1355 H 0.16155 0.35751 0.15638 0.0
H1356 H 0.1168 0.26048 0.97107 0.0
H1357 H 0.14135 0.17794 0.91973 0.0
H1358 H 0.09127 0.25058 0.9309 0.0
H1359 H 0.16867 0.18958 0.95886 0.0
Eu1360 Eu 0.41307 0.77143 0.55853 0.0
Eu1361 Eu 0.40981 0.81319 0.51566 0.0
C1362 C 0.35015 0.79993 0.54222 0.0
C1363 C 0.39777 0.71542 0.60586 0.0
C1364 C 0.37858 0.70831 0.5866 0.0
C1365 C 0.39616 0.67053 0.62593 0.0
C1366 C 0.36884 0.68224 0.58644 0.0
C1367 C 0.40644 0.69651 0.62563 0.0
C1368 C 0.37739 0.66294 0.6062 0.0
C1369 C 0.41326 0.73955 0.60083 0.0
O1370 O 0.45819 0.8089 0.52345 0.0
O1371 O 0.4569 0.78872 0.56417 0.0
C1372 C 0.47234 0.79812 0.54434 0.0
O1373 O 0.43681 0.7491 0.52572 0.0
O1374 O 0.4203 0.85535 0.50812 0.0
O1375 O 0.39516 0.83425 0.47967 0.0
O1376 O 0.4344 0.78282 0.49304 0.0
C1377 C 0.443 0.75875 0.50154 0.0
O1378 O 0.39099 0.74783 0.52848 0.0
O1379 O 0.38738 0.77995 0.4943 0.0
O1380 O 0.36533 0.81948 0.53246 0.0
O1381 O 0.42963 0.73649 0.58044 0.0
O1382 O 0.39994 0.763 0.60008 0.0
O1383 O 0.36449 0.77921 0.55371 0.0
C1384 C 0.42779 0.86022 0.46123 0.0
C1385 C 0.45024 0.84246 0.45806 0.0
C1386 C 0.43244 0.87557 0.4149 0.0
C1387 C 0.46321 0.84059 0.43329 0.0
C1388 C 0.41902 0.87694 0.43967 0.0
C1389 C 0.45455 0.85716 0.41133 0.0
C1390 C 0.4097 0.85529 0.48377 0.0
C1391 C 0.38225 0.75578 0.50451 0.0
H1392 H 0.37222 0.72249 0.57073 0.0
H1393 H 0.40312 0.65639 0.64149 0.0
H1394 H 0.35509 0.67722 0.57037 0.0
H1395 H 0.42188 0.70147 0.64016 0.0
H1396 H 0.45667 0.82866 0.47422 0.0
H1397 H 0.42518 0.88864 0.39851 0.0
H1398 H 0.47948 0.82548 0.43129 0.0
H1399 H 0.40106 0.89002 0.44159 0.0
Eu1400 Eu 0.76875 0.55569 0.91303 0.0
Eu1401 Eu 0.80956 0.51369 0.91475 0.0
C1402 C 0.7857 0.52847 0.97564 0.0
C1403 C 0.71725 0.60569 0.93512 0.0
C1404 C 0.73666 0.61195 0.95453 0.0
C1405 C 0.69306 0.6479 0.9437 0.0
C1406 C 0.73519 0.63673 0.96728 0.0
C1407 C 0.69501 0.62333 0.93027 0.0
C1408 C 0.71376 0.65534 0.96143 0.0
C1409 C 0.72436 0.58487 0.91579 0.0
O1410 O 0.80229 0.51836 0.86634 0.0
O1411 O 0.76292 0.54178 0.86782 0.0
C1412 C 0.78212 0.53082 0.85228 0.0
O1413 O 0.80125 0.57756 0.88915 0.0
O1414 O 0.81239 0.47068 0.90486 0.0
O1415 O 0.84504 0.48968 0.92656 0.0
O1416 O 0.83321 0.54251 0.89039 0.0
C1417 C 0.82528 0.56704 0.88253 0.0
O1418 O 0.79885 0.57899 0.93533 0.0
O1419 O 0.83265 0.54575 0.93734 0.0
O1420 O 0.79552 0.50872 0.96026 0.0
O1421 O 0.7451 0.59142 0.90103 0.0
O1422 O 0.72621 0.55981 0.92509 0.0
O1423 O 0.77399 0.54905 0.96148 0.0
C1424 C 0.858 0.4597 0.8942 0.0
C1425 C 0.86068 0.47516 0.87043 0.0
C1426 C 0.90367 0.44156 0.88882 0.0
C1427 C 0.88511 0.47488 0.85664 0.0
C1428 C 0.87924 0.44224 0.90292 0.0
C1429 C 0.90713 0.45855 0.86603 0.0
C1430 C 0.83757 0.46846 0.9135 0.0
C1431 C 0.82305 0.57028 0.94319 0.0
H1432 H 0.75422 0.59869 0.95817 0.0
H1433 H 0.67582 0.66133 0.9396 0.0
H1434 H 0.75165 0.64175 0.98059 0.0
H1435 H 0.68004 0.61884 0.91509 0.0
H1436 H 0.84476 0.48933 0.86384 0.0
H1437 H 0.92009 0.42846 0.89636 0.0
H1438 H 0.88703 0.48866 0.83955 0.0
H1439 H 0.87765 0.4307 0.92165 0.0
Eu1440 Eu 0.77791 0.51177 0.16312 0.0
Eu1441 Eu 0.81924 0.55184 0.16543 0.0
C1442 C 0.80396 0.52606 0.22562 0.0
C1443 C 0.72534 0.46358 0.18171 0.0
C1444 C 0.71555 0.48376 0.19913 0.0
C1445 C 0.68398 0.43959 0.18782 0.0
C1446 C 0.68951 0.48267 0.20961 0.0
C1447 C 0.70978 0.44116 0.17656 0.0
C1448 C 0.67317 0.46086 0.20354 0.0
C1449 C 0.74824 0.46954 0.16443 0.0
O1450 O 0.81471 0.54622 0.11702 0.0
O1451 O 0.79421 0.50664 0.1185 0.0
C1452 C 0.8036 0.52641 0.10301 0.0
O1453 O 0.75528 0.54584 0.13989 0.0
O1454 O 0.86134 0.55739 0.15299 0.0
O1455 O 0.84114 0.58547 0.18046 0.0
O1456 O 0.78897 0.5768 0.14217 0.0
C1457 C 0.76502 0.56976 0.13383 0.0
O1458 O 0.75425 0.54244 0.18612 0.0
O1459 O 0.78625 0.5751 0.1885 0.0
O1460 O 0.82401 0.53491 0.2103 0.0
O1461 O 0.74325 0.49073 0.14895 0.0
O1462 O 0.77226 0.46963 0.17581 0.0
O1463 O 0.7838 0.51559 0.21147 0.0
C1464 C 0.86719 0.60453 0.14797 0.0
C1465 C 0.84861 0.61147 0.12737 0.0
C1466 C 0.88374 0.64998 0.14626 0.0
C1467 C 0.84686 0.63775 0.11699 0.0
C1468 C 0.88502 0.62374 0.15714 0.0
C1469 C 0.86436 0.65747 0.12631 0.0
C1470 C 0.86193 0.58096 0.16482 0.0
C1471 C 0.76221 0.56588 0.1946 0.0
H1472 H 0.7273 0.50136 0.20307 0.0
H1473 H 0.67241 0.42195 0.1839 0.0
H1474 H 0.68192 0.49943 0.22161 0.0
H1475 H 0.71704 0.42555 0.16295 0.0
H1476 H 0.83405 0.5971 0.12072 0.0
H1477 H 0.8976 0.66442 0.15395 0.0
H1478 H 0.83106 0.64265 0.10235 0.0
H1479 H 0.89886 0.61891 0.17369 0.0
Eu1480 Eu 0.77248 0.56348 0.41314 0.0
Eu1481 Eu 0.81202 0.51844 0.41315 0.0
C1482 C 0.80066 0.54452 0.35243 0.0
C1483 C 0.72304 0.61498 0.38917 0.0
C1484 C 0.71824 0.59551 0.36965 0.0
C1485 C 0.67694 0.63256 0.3837 0.0
C1486 C 0.69253 0.59314 0.35884 0.0
C1487 C 0.70257 0.63415 0.3955 0.0
C1488 C 0.67124 0.61113 0.3663 0.0
C1489 C 0.74503 0.60905 0.40825 0.0
O1490 O 0.80884 0.52649 0.4611 0.0
O1491 O 0.78775 0.56738 0.45843 0.0
C1492 C 0.79751 0.54739 0.47444 0.0
O1493 O 0.74805 0.5337 0.43771 0.0
O1494 O 0.85309 0.50637 0.42646 0.0
O1495 O 0.83125 0.48189 0.39811 0.0
O1496 O 0.78013 0.49869 0.43755 0.0
C1497 C 0.7566 0.50911 0.44522 0.0
O1498 O 0.74672 0.53472 0.39173 0.0
O1499 O 0.77736 0.49857 0.39131 0.0
O1500 O 0.82014 0.53526 0.36898 0.0
O1501 O 0.73883 0.58974 0.42514 0.0
O1502 O 0.76952 0.60557 0.39828 0.0
O1503 O 0.77961 0.55607 0.36537 0.0
C1504 C 0.8561 0.45865 0.43019 0.0
C1505 C 0.8364 0.45235 0.44943 0.0
C1506 C 0.87435 0.41275 0.43309 0.0
C1507 C 0.83521 0.42619 0.45997 0.0
C1508 C 0.87514 0.43886 0.42211 0.0
C1509 C 0.85429 0.40604 0.45205 0.0
C1510 C 0.85217 0.4832 0.41399 0.0
C1511 C 0.75345 0.5098 0.38501 0.0
H1512 H 0.73361 0.58028 0.36477 0.0
H1513 H 0.66142 0.64753 0.38901 0.0
H1514 H 0.68925 0.57615 0.34587 0.0
H1515 H 0.70582 0.64911 0.41084 0.0
H1516 H 0.82101 0.4673 0.45522 0.0
H1517 H 0.88939 0.39786 0.42663 0.0
H1518 H 0.81901 0.42177 0.47393 0.0
H1519 H 0.88991 0.44332 0.4066 0.0
Eu1520 Eu 0.76913 0.51987 0.66501 0.0
Eu1521 Eu 0.80583 0.56488 0.66163 0.0
C1522 C 0.78072 0.54806 0.60196 0.0
C1523 C 0.72764 0.46009 0.65127 0.0
C1524 C 0.75053 0.44697 0.63993 0.0
C1525 C 0.70099 0.42144 0.6412 0.0
C1526 C 0.74893 0.42081 0.63034 0.0
C1527 C 0.70275 0.44745 0.65149 0.0
C1528 C 0.72424 0.4076 0.63136 0.0
C1529 C 0.73102 0.485 0.66611 0.0
O1530 O 0.80022 0.55898 0.71006 0.0
O1531 O 0.76157 0.53701 0.70888 0.0
C1532 C 0.78068 0.54713 0.72428 0.0
O1533 O 0.80568 0.50027 0.68704 0.0
O1534 O 0.80716 0.60744 0.67329 0.0
O1535 O 0.83803 0.58968 0.64701 0.0
O1536 O 0.83344 0.53669 0.68447 0.0
C1537 C 0.82873 0.51188 0.69256 0.0
O1538 O 0.80155 0.49928 0.64128 0.0
O1539 O 0.83126 0.5341 0.63786 0.0
O1540 O 0.78889 0.56841 0.61685 0.0
O1541 O 0.7521 0.4838 0.68198 0.0
O1542 O 0.72859 0.50799 0.65255 0.0
O1543 O 0.77134 0.52723 0.61652 0.0
C1544 C 0.85335 0.617 0.67985 0.0
C1545 C 0.85973 0.59944 0.70162 0.0
C1546 C 0.89816 0.63517 0.68245 0.0
C1547 C 0.88546 0.59884 0.71296 0.0
C1548 C 0.87244 0.63528 0.67065 0.0
C1549 C 0.9052 0.61648 0.70336 0.0
C1550 C 0.83113 0.61 0.66223 0.0
C1551 C 0.82406 0.50937 0.63212 0.0
H1552 H 0.76998 0.45647 0.63967 0.0
H1553 H 0.68147 0.41219 0.6408 0.0
H1554 H 0.76713 0.41073 0.62268 0.0
H1555 H 0.68492 0.45737 0.66014 0.0
H1556 H 0.84555 0.58457 0.70843 0.0
H1557 H 0.91263 0.64922 0.67464 0.0
H1558 H 0.89007 0.5836 0.72841 0.0
H1559 H 0.86808 0.64842 0.6533 0.0
Eu1560 Eu 0.56908 0.15306 0.26729 0.0
Eu1561 Eu 0.52787 0.15502 0.3102 0.0
C1562 C 0.51445 0.18757 0.25459 0.0
C1563 C 0.61928 0.17222 0.21513 0.0
C1564 C 0.60502 0.19713 0.21236 0.0
C1565 C 0.63798 0.17813 0.17035 0.0
C1566 C 0.60692 0.21231 0.18858 0.0
C1567 C 0.63602 0.16291 0.19422 0.0
C1568 C 0.62327 0.2029 0.16718 0.0
C1569 C 0.61141 0.15336 0.23633 0.0
O1570 O 0.5039 0.13451 0.27918 0.0
O1571 O 0.53558 0.13186 0.24511 0.0
C1572 C 0.51144 0.12673 0.25503 0.0
O1573 O 0.57465 0.10769 0.28293 0.0
O1574 O 0.49387 0.17089 0.33312 0.0
O1575 O 0.52042 0.13979 0.35141 0.0
O1576 O 0.53499 0.10665 0.30471 0.0
C1577 C 0.55526 0.09247 0.29291 0.0
O1578 O 0.56499 0.20123 0.27508 0.0
O1579 O 0.54422 0.19931 0.31527 0.0
O1580 O 0.50467 0.17978 0.27815 0.0
O1581 O 0.61182 0.16191 0.26133 0.0
O1582 O 0.58915 0.14132 0.23038 0.0
O1583 O 0.53855 0.17957 0.24611 0.0
C1584 C 0.47286 0.13797 0.35755 0.0
C1585 C 0.46225 0.12371 0.33593 0.0
C1586 C 0.43073 0.13307 0.38179 0.0
C1587 C 0.4356 0.11558 0.33651 0.0
C1588 C 0.4572 0.14222 0.38073 0.0
C1589 C 0.41929 0.12054 0.35929 0.0
C1590 C 0.49717 0.15334 0.35284 0.0
C1591 C 0.55366 0.21503 0.29552 0.0
H1592 H 0.59119 0.20409 0.22795 0.0
H1593 H 0.65055 0.17019 0.15426 0.0
H1594 H 0.59472 0.2309 0.18664 0.0
H1595 H 0.64645 0.14326 0.19578 0.0
H1596 H 0.47401 0.12046 0.31778 0.0
H1597 H 0.41921 0.13605 0.4001 0.0
H1598 H 0.42765 0.10621 0.31868 0.0
H1599 H 0.46503 0.15344 0.3975 0.0
Eu1600 Eu 1.0125 0.91356 0.77064 0.0
Eu1601 Eu 0.05734 0.91005 0.80901 0.0
C1602 C 0.0663 0.88162 0.75132 0.0
C1603 C 0.96056 0.89585 0.72157 0.0
C1604 C 0.97734 0.87291 0.7171 0.0
C1605 C 0.94331 0.89335 0.67597 0.0
C1606 C 0.97783 0.8608 0.69199 0.0
C1607 C 0.94314 0.90573 0.7011 0.0
C1608 C 0.96104 0.87103 0.67096 0.0
C1609 C 0.96761 0.91358 0.74346 0.0
O1610 O 0.07767 0.93395 0.777 0.0
O1611 O 0.04308 0.93657 0.74568 0.0
C1612 C 0.06763 0.9425 0.75369 0.0
O1613 O 1.00838 0.95842 0.78679 0.0
O1614 O 0.09443 0.8957 0.82829 0.0
O1615 O 0.06578 0.92119 0.8508 0.0
O1616 O 0.04978 0.95859 0.80521 0.0
C1617 C 1.02863 0.97326 0.79518 0.0
O1618 O 1.01805 0.86501 0.77716 0.0
O1619 O 0.04243 0.86524 0.81523 0.0
O1620 O 0.07779 0.88743 0.77452 0.0
O1621 O 0.96992 0.90274 0.76781 0.0
O1622 O 0.98807 0.92826 0.73695 0.0
O1623 O 0.04141 0.88982 0.7453 0.0
C1624 C 0.1128 0.92759 0.8554 0.0
C1625 C 0.1228 0.94381 0.83437 0.0
C1626 C 0.15183 0.93726 0.8826 0.0
C1627 C 0.14781 0.95555 0.83691 0.0
C1628 C 0.12707 0.92479 0.87975 0.0
C1629 C 0.16289 0.9519 0.86085 0.0
C1630 C 0.09034 0.91019 0.84977 0.0
C1631 C 1.03114 0.85035 0.79643 0.0
H1632 H 0.99165 0.86558 0.73233 0.0
H1633 H 0.93003 0.90172 0.66035 0.0
H1634 H 0.99228 0.84415 0.68886 0.0
H1635 H 0.93069 0.92398 0.70398 0.0
H1636 H 0.11203 0.94605 0.81535 0.0
H1637 H 0.1624 0.93527 0.90168 0.0
H1638 H 0.15569 0.96669 0.81975 0.0
H1639 H 0.11956 0.91229 0.89613 0.0
Eu1640 Eu 0.52924 0.90465 0.26041 0.0
Eu1641 Eu 0.57167 0.90449 0.30094 0.0
C1642 C 0.51459 0.93555 0.31475 0.0
C1643 C 0.47885 0.92936 0.21065 0.0
C1644 C 0.47178 0.94823 0.23053 0.0
C1645 C 0.43594 0.93874 0.18848 0.0
C1646 C 0.44618 0.96079 0.2305 0.0
C1647 C 0.46127 0.92534 0.18908 0.0
C1648 C 0.42758 0.95541 0.20995 0.0
C1649 C 0.50019 0.90924 0.21696 0.0
O1650 O 0.54097 0.88316 0.32537 0.0
O1651 O 0.50751 0.88102 0.29306 0.0
C1652 C 0.5172 0.87506 0.3174 0.0
O1653 O 0.54359 0.85882 0.25587 0.0
O1654 O 0.59427 0.92377 0.33191 0.0
O1655 O 0.61228 0.8884 0.31282 0.0
O1656 O 0.56739 0.85615 0.29447 0.0
C1657 C 0.55441 0.84281 0.27513 0.0
O1658 O 0.53511 0.95247 0.26581 0.0
O1659 O 0.57704 0.94855 0.28214 0.0
O1660 O 0.53884 0.92798 0.32391 0.0
O1661 O 0.5251 0.91769 0.21805 0.0
O1662 O 0.4939 0.89416 0.23776 0.0
O1663 O 0.50596 0.92827 0.29093 0.0
C1664 C 0.61957 0.89584 0.36008 0.0
C1665 C 0.61328 0.86953 0.36823 0.0
C1666 C 0.62197 0.90901 0.40705 0.0
C1667 C 0.61122 0.86306 0.39568 0.0
C1668 C 0.62499 0.91517 0.37968 0.0
C1669 C 0.61445 0.88303 0.41541 0.0
C1670 C 0.61394 0.90569 0.33252 0.0
C1671 C 0.55647 0.96531 0.27503 0.0
H1672 H 0.48507 0.95137 0.24748 0.0
H1673 H 0.42265 0.93538 0.17168 0.0
H1674 H 0.44059 0.97347 0.24739 0.0
H1675 H 0.46641 0.91069 0.17367 0.0
H1676 H 0.60869 0.85436 0.35349 0.0
H1677 H 0.62447 0.92498 0.42148 0.0
H1678 H 0.60652 0.84247 0.40132 0.0
H1679 H 0.62945 0.93577 0.37372 0.0
Eu1680 Eu 0.91305 0.81205 0.05982 0.0
Eu1681 Eu 0.91532 0.77205 1.01642 0.0
C1682 C 0.94524 0.75558 0.07247 0.0
C1683 C 0.92882 0.85864 0.11522 0.0
C1684 C 0.9486 0.83915 0.1233 0.0
C1685 C 0.93124 0.87937 0.15899 0.0
C1686 C 0.95906 0.83923 0.14936 0.0
C1687 C 0.92035 0.87892 0.13299 0.0
C1688 C 0.95049 0.85932 0.16761 0.0
C1689 C 0.91249 0.8533 0.09161 0.0
O1690 O 0.89229 0.7486 0.04704 0.0
O1691 O 0.89038 0.77912 0.08164 0.0
C1692 C 0.88417 0.75576 0.07125 0.0
O1693 O 0.86831 0.81891 0.04291 0.0
O1694 O 0.93019 0.7376 0.9938 0.0
O1695 O 0.90179 0.76655 0.97466 0.0
O1696 O 0.86701 0.77954 1.02141 0.0
C1697 C 0.85292 0.79981 1.03305 0.0
O1698 O 0.96131 0.80745 0.05276 0.0
O1699 O 0.95996 0.78827 1.01207 0.0
O1700 O 0.93822 0.74724 0.04838 0.0
O1701 O 0.92448 0.85364 0.06796 0.0
O1702 O 0.89793 0.8321 0.09535 0.0
O1703 O 0.93774 0.77962 0.0814 0.0
C1704 C 0.89693 0.71955 0.96801 0.0
C1705 C 0.88052 0.70976 0.98886 0.0
C1706 C 0.88981 0.67872 0.94302 0.0
C1707 C 0.87006 0.68406 0.98753 0.0
C1708 C 0.90114 0.70418 0.94482 0.0
C1709 C 0.87501 0.66796 0.96479 0.0
C1710 C 0.91383 0.74251 0.97352 0.0
C1711 C 0.97538 0.79698 1.03207 0.0
H1712 H 0.95469 0.82281 0.11001 0.0
H1713 H 0.92431 0.89525 0.17233 0.0
H1714 H 0.97328 0.82303 0.15532 0.0
H1715 H 0.90449 0.89363 0.12721 0.0
H1716 H 0.87723 0.72132 1.00699 0.0
H1717 H 0.89286 0.6674 0.92474 0.0
H1718 H 0.85891 0.67655 1.00477 0.0
H1719 H 0.91393 0.71138 0.92861 0.0
Eu1720 Eu 0.66775 0.25849 0.56216 0.0
Eu1721 Eu 0.6655 0.30372 0.52281 0.0
C1722 C 0.63734 0.31285 0.58152 0.0
C1723 C 0.64745 0.20868 0.61281 0.0
C1724 C 0.62539 0.22686 0.61633 0.0
C1725 C 0.64368 0.1942 0.65961 0.0
C1726 C 0.61337 0.22967 0.6415 0.0
C1727 C 0.65622 0.19194 0.6344 0.0
C1728 C 0.62245 0.21358 0.66366 0.0
C1729 C 0.66582 0.21395 0.59046 0.0
O1730 O 0.68962 0.3232 0.55462 0.0
O1731 O 0.69136 0.28849 0.58633 0.0
C1732 C 0.69792 0.31286 0.57791 0.0
O1733 O 0.7128 0.25369 0.54587 0.0
O1734 O 0.64923 0.34046 0.50399 0.0
O1735 O 0.67859 0.31542 0.482 0.0
O1736 O 0.71383 0.29466 0.52575 0.0
C1737 C 0.72802 0.27349 0.53651 0.0
O1738 O 0.61953 0.26556 0.55485 0.0
O1739 O 0.62177 0.28712 0.51501 0.0
O1740 O 0.64323 0.32401 0.55788 0.0
O1741 O 0.65523 0.21644 0.56615 0.0
O1742 O 0.68174 0.23356 0.59601 0.0
O1743 O 0.64491 0.2878 0.58778 0.0
C1744 C 0.68083 0.36319 0.47898 0.0
C1745 C 0.69211 0.37576 0.50142 0.0
C1746 C 0.69246 0.40139 0.45072 0.0
C1747 C 0.70243 0.40147 0.49875 0.0
C1748 C 0.68144 0.37586 0.45352 0.0
C1749 C 0.70219 0.41475 0.47347 0.0
C1750 C 0.66539 0.33885 0.48324 0.0
C1751 C 0.60585 0.27737 0.53422 0.0
H1752 H 0.61885 0.2406 0.60019 0.0
H1753 H 0.65113 0.18118 0.67595 0.0
H1754 H 0.59779 0.24545 0.64361 0.0
H1755 H 0.67381 0.17839 0.63224 0.0
H1756 H 0.69177 0.36623 0.52129 0.0
H1757 H 0.69349 0.41067 0.43084 0.0
H1758 H 0.71 0.41119 0.51658 0.0
H1759 H 0.6729 0.36633 0.43603 0.0
Eu1760 Eu 0.26414 0.55542 0.16436 0.0
Eu1761 Eu 0.31151 0.51925 0.16619 0.0
C1762 C 0.25873 0.50005 0.19837 0.0
C1763 C 0.19982 0.59592 0.17604 0.0
C1764 C 0.19124 0.5753 0.19349 0.0
C1765 C 0.15595 0.61874 0.17954 0.0
C1766 C 0.16505 0.5763 0.20381 0.0
C1767 C 0.18209 0.61753 0.16891 0.0
C1768 C 0.14721 0.59826 0.19729 0.0
C1769 C 0.22538 0.59232 0.16182 0.0
O1770 O 0.28593 0.49088 0.14455 0.0
O1771 O 0.24738 0.51838 0.14357 0.0
C1772 C 0.26044 0.49532 0.13786 0.0
O1773 O 0.28152 0.56529 0.12085 0.0
O1774 O 0.34085 0.48706 0.17573 0.0
O1775 O 0.35397 0.52346 0.15459 0.0
O1776 O 0.30328 0.52543 0.11827 0.0
C1777 C 0.29148 0.54622 0.10471 0.0
O1778 O 0.27294 0.55453 0.21267 0.0
O1779 O 0.31388 0.53325 0.21172 0.0
O1780 O 0.2839 0.49306 0.19177 0.0
O1781 O 0.24773 0.5955 0.17556 0.0
O1782 O 0.22631 0.57059 0.1473 0.0
O1783 O 0.2468 0.52263 0.18946 0.0
C1784 C 0.37104 0.48029 0.14119 0.0
C1785 C 0.35676 0.47832 0.11682 0.0
C1786 C 0.39225 0.43625 0.13364 0.0
C1787 C 0.35882 0.45474 0.10188 0.0
C1788 C 0.38977 0.4597 0.14887 0.0
C1789 C 0.37573 0.43291 0.11081 0.0
C1790 C 0.3601 0.49827 0.16188 0.0
C1791 C 0.29392 0.5435 0.22689 0.0
H1792 H 0.20456 0.55805 0.19852 0.0
H1793 H 0.14277 0.63591 0.17422 0.0
H1794 H 0.15885 0.55987 0.21694 0.0
H1795 H 0.18829 0.6332 0.15485 0.0
H1796 H 0.34209 0.49392 0.11057 0.0
H1797 H 0.40609 0.42023 0.14061 0.0
H1798 H 0.34571 0.45304 0.08451 0.0
H1799 H 0.40073 0.46072 0.16779 0.0
Eu1800 Eu 0.25565 0.5261 0.91544 0.0
Eu1801 Eu 0.30277 0.55843 0.91716 0.0
C1802 C 0.30681 0.49797 0.94434 0.0
C1803 C 0.19541 0.4905 0.93862 0.0
C1804 C 0.20819 0.48766 0.96389 0.0
C1805 C 0.17988 0.44476 0.94303 0.0
C1806 C 0.20849 0.46288 0.97771 0.0
C1807 C 0.1798 0.46952 0.92912 0.0
C1808 C 0.19548 0.4407 0.9667 0.0
C1809 C 0.20673 0.50896 0.91866 0.0
O1810 O 0.31977 0.52503 0.89178 0.0
O1811 O 0.28273 0.49789 0.89086 0.0
C1812 C 0.30768 0.50329 0.88366 0.0
O1813 O 0.25519 0.53968 0.86907 0.0
O1814 O 0.34155 0.57101 0.93128 0.0
O1815 O 0.31566 0.5995 0.90791 0.0
O1816 O 0.29578 0.55878 0.86872 0.0
C1817 C 0.27552 0.54881 0.8542 0.0
O1818 O 0.26305 0.52967 0.96357 0.0
O1819 O 0.28644 0.56719 0.96127 0.0
O1820 O 0.31975 0.52037 0.93871 0.0
O1821 O 0.21302 0.53325 0.92656 0.0
O1822 O 0.22607 0.49699 0.90489 0.0
O1823 O 0.28127 0.49548 0.9377 0.0
C1824 C 0.36316 0.60062 0.90308 0.0
C1825 C 0.37191 0.58243 0.88323 0.0
C1826 C 0.40462 0.62474 0.89836 0.0
C1827 C 0.39718 0.58506 0.87133 0.0
C1828 C 0.37944 0.62186 0.91053 0.0
C1829 C 0.41383 0.60622 0.8788 0.0
C1830 C 0.33948 0.59461 0.9191 0.0
C1831 C 0.27559 0.54868 0.97725 0.0
H1832 H 0.22039 0.50358 0.97158 0.0
H1833 H 0.16907 0.42838 0.93425 0.0
H1834 H 0.22072 0.46068 0.99584 0.0
H1835 H 0.17006 0.47122 0.90949 0.0
H1836 H 0.35965 0.56556 0.87777 0.0
H1837 H 0.41679 0.64146 0.90427 0.0
H1838 H 0.40382 0.57025 0.85663 0.0
H1839 H 0.373 0.63572 0.92622 0.0
Eu1840 Eu 0.26671 0.55839 0.66709 0.0
Eu1841 Eu 0.30649 0.51345 0.66552 0.0
C1842 C 0.32103 0.56923 0.63429 0.0
C1843 C 0.22124 0.61714 0.6501 0.0
C1844 C 0.2398 0.62272 0.62952 0.0
C1845 C 0.20212 0.66266 0.64571 0.0
C1846 C 0.23998 0.64831 0.61752 0.0
C1847 C 0.20234 0.63712 0.65814 0.0
C1848 C 0.22101 0.66861 0.62531 0.0
C1849 C 0.22618 0.5932 0.66702 0.0
O1850 O 0.33287 0.54174 0.68659 0.0
O1851 O 0.30158 0.57717 0.68973 0.0
C1852 C 0.32593 0.56618 0.69469 0.0
O1853 O 0.25946 0.54078 0.71102 0.0
O1854 O 0.33906 0.48884 0.64913 0.0
O1855 O 0.31281 0.4711 0.67931 0.0
O1856 O 0.2999 0.51932 0.71375 0.0
C1857 C 0.27909 0.53101 0.72713 0.0
O1858 O 0.26987 0.55111 0.61892 0.0
O1859 O 0.28838 0.50925 0.62146 0.0
O1860 O 0.32975 0.54444 0.64089 0.0
O1861 O 0.22496 0.56959 0.6554 0.0
O1862 O 0.24777 0.59523 0.68188 0.0
O1863 O 0.29773 0.57931 0.64291 0.0
C1864 C 0.36024 0.45899 0.67872 0.0
C1865 C 0.36435 0.46398 0.70618 0.0
C1866 C 0.40876 0.45295 0.6724 0.0
C1867 C 0.39062 0.4639 0.71657 0.0
C1868 C 0.3825 0.452 0.66231 0.0
C1869 C 0.41319 0.45985 0.69944 0.0
C1870 C 0.33519 0.46823 0.66517 0.0
C1871 C 0.27985 0.5297 0.60544 0.0
H1872 H 0.25507 0.60767 0.6237 0.0
H1873 H 0.18724 0.67772 0.65221 0.0
H1874 H 0.25538 0.6522 0.60251 0.0
H1875 H 0.18846 0.63327 0.67462 0.0
H1876 H 0.3475 0.46962 0.71919 0.0
H1877 H 0.42547 0.44977 0.65852 0.0
H1878 H 0.39318 0.46809 0.73782 0.0
H1879 H 0.37969 0.44841 0.64094 0.0
Eu1880 Eu 0.27044 0.51397 0.41777 0.0
Eu1881 Eu 0.31344 0.55297 0.41508 0.0
C1882 C 0.25748 0.5693 0.3848 0.0
C1883 C 0.21684 0.46722 0.39931 0.0
C1884 C 0.2071 0.488 0.38186 0.0
C1885 C 0.17644 0.44236 0.39113 0.0
C1886 C 0.18154 0.48671 0.37034 0.0
C1887 C 0.20176 0.44409 0.40346 0.0
C1888 C 0.16563 0.46413 0.37532 0.0
C1889 C 0.2394 0.47273 0.4171 0.0
O1890 O 0.28321 0.57808 0.43755 0.0
O1891 O 0.24843 0.54827 0.43977 0.0
C1892 C 0.25887 0.57172 0.44555 0.0
O1893 O 0.28628 0.50825 0.46284 0.0
O1894 O 0.33673 0.58649 0.40074 0.0
O1895 O 0.35562 0.5566 0.42818 0.0
O1896 O 0.30828 0.54702 0.46349 0.0
C1897 C 0.29643 0.52751 0.4779 0.0
O1898 O 0.27685 0.51763 0.36942 0.0
O1899 O 0.31723 0.53689 0.37011 0.0
O1900 O 0.28162 0.57772 0.3914 0.0
O1901 O 0.26377 0.472 0.40649 0.0
O1902 O 0.23463 0.49417 0.43159 0.0
O1903 O 0.24866 0.54584 0.39319 0.0
C1904 C 0.36297 0.60325 0.43421 0.0
C1905 C 0.3427 0.61234 0.45205 0.0
C1906 C 0.38581 0.64535 0.4396 0.0
C1907 C 0.34302 0.63837 0.46221 0.0
C1908 C 0.38492 0.61956 0.42852 0.0
C1909 C 0.36427 0.65551 0.45559 0.0
C1910 C 0.35711 0.58068 0.41678 0.0
C1911 C 0.29711 0.52799 0.35501 0.0
H1912 H 0.21846 0.50612 0.37867 0.0
H1913 H 0.16519 0.42422 0.39434 0.0
H1914 H 0.17392 0.50395 0.35845 0.0
H1915 H 0.20901 0.42796 0.41703 0.0
H1916 H 0.32548 0.60007 0.45645 0.0
H1917 H 0.40307 0.65747 0.43517 0.0
H1918 H 0.32593 0.64533 0.47426 0.0
H1919 H 0.4006 0.61292 0.41456 0.0
C1920 C 0.04626 0.52726 0.28978 0.0
C1921 C 1.02246 0.51147 0.28782 0.0
H1922 H 0.06518 0.56599 0.29641 0.0
C1923 C 0.99823 0.52794 0.29172 0.0
H1924 H 0.06583 0.51692 0.28754 0.0
C1925 C 0.99782 0.55718 0.29636 0.0
C1926 C 1.02164 0.57289 0.29872 0.0
H1927 H 0.97895 0.51818 0.29092 0.0
H1928 H 0.97826 0.56755 0.2984 0.0
C1929 C 0.04588 0.55631 0.29526 0.0
C1930 C 0.80114 0.80799 0.53657 0.0
C1931 C 0.81783 0.78405 0.53192 0.0
H1932 H 0.76155 0.82738 0.54527 0.0
C1933 C 0.80198 0.76017 0.53307 0.0
H1934 H 0.81084 0.8273 0.53641 0.0
C1935 C 0.77261 0.7603 0.53758 0.0
C1936 C 0.756 0.78417 0.54275 0.0
H1937 H 0.81236 0.74079 0.53006 0.0
H1938 H 0.76282 0.74103 0.5373 0.0
C1939 C 0.77192 0.80802 0.54207 0.0
C1940 C 0.57318 0.53268 0.79316 0.0
C1941 C 0.54918 0.51708 0.79526 0.0
H1942 H 0.59245 0.57178 0.78854 0.0
C1943 C 0.52511 0.53408 0.79214 0.0
H1944 H 0.59264 0.52201 0.795 0.0
C1945 C 0.52503 0.56341 0.78719 0.0
C1946 C 0.54899 0.57909 0.78556 0.0
H1947 H 0.50571 0.52453 0.79305 0.0
H1948 H 0.50556 0.57404 0.78511 0.0
C1949 C 0.57307 0.56217 0.78915 0.0
C1950 C 0.80539 0.28083 1.03346 0.0
C1951 C 0.82074 0.3046 1.03755 0.0
H1952 H 0.76701 0.262 1.02465 0.0
C1953 C 0.80381 0.32881 1.03544 0.0
H1954 H 0.81613 0.26134 1.03412 0.0
C1955 C 0.77449 0.32913 1.03068 0.0
C1956 C 0.75919 0.30537 1.02621 0.0
H1957 H 0.81325 0.34808 1.03788 0.0
H1958 H 0.76372 0.3486 1.03025 0.0
C1959 C 0.77628 0.28123 1.02767 0.0
C1960 C 0.29271 1.0023 0.52569 0.0
C1961 C 0.29001 1.02662 0.50938 0.0
H1962 H 0.29769 0.98218 0.56527 0.0
C1963 C 0.29237 0.05032 0.5256 0.0
H1964 H 0.29145 0.98308 0.51566 0.0
C1965 C 0.29723 0.04975 0.55486 0.0
C1966 C 0.29944 1.02544 0.57124 0.0
H1967 H 0.29094 0.06993 0.51547 0.0
H1968 H 0.29874 0.06897 0.56486 0.0
C1969 C 0.29658 1.00177 0.5551 0.0
C1970 C 0.2783 1.0308 0.77544 0.0
C1971 C 0.30253 1.02932 0.75932 0.0
H1972 H 0.25816 1.03707 0.81437 0.0
C1973 C 0.32616 1.0335 0.77557 0.0
H1974 H 0.25914 1.02796 0.76546 0.0
C1975 C 0.32566 1.03807 0.80478 0.0
C1976 C 0.30138 0.04017 0.82075 0.0
H1977 H 0.34569 1.03303 0.76563 0.0
H1978 H 0.34487 0.04037 0.81491 0.0
C1979 C 0.27772 1.03634 0.80446 0.0
C1980 C 0.28685 0.07201 0.05378 0.0
C1981 C 0.28401 0.04813 0.07046 0.0
H1982 H 0.29222 0.09123 1.014 0.0
C1983 C 0.28655 1.02404 0.05458 0.0
H1984 H 0.28556 0.09149 0.06351 0.0
C1985 C 0.2917 1.02386 1.02537 0.0
C1986 C 0.29409 0.04776 1.00863 0.0
H1987 H 0.28504 1.00469 0.06493 0.0
H1988 H 0.29334 1.00437 1.01569 0.0
C1989 C 0.29101 0.07186 1.02442 0.0
C1990 C 0.30669 0.03935 0.27477 0.0
C1991 C 0.28239 0.04328 0.25887 0.0
H1992 H 0.32676 1.03146 0.31374 0.0
C1993 C 0.25866 0.04185 0.27561 0.0
H1994 H 0.32595 0.03961 0.26432 0.0
C1995 C 0.25917 1.03781 0.30505 0.0
C1996 C 0.28343 1.03347 0.32092 0.0
H1997 H 0.23905 0.04429 0.26588 0.0
H1998 H 0.23991 1.03783 0.31551 0.0
C1999 C 0.30716 1.03432 0.30409 0.0
C2000 C 0.52805 0.28828 0.0466 0.0
C2001 C 0.5112 0.2878 1.02295 0.0
H2002 H 0.56756 0.29355 0.06544 0.0
C2003 C 0.52666 0.29236 0.99877 0.0
H2004 H 0.51871 0.28476 0.06605 0.0
C2005 C 0.5559 0.29659 0.99833 0.0
C2006 C 0.57253 0.29781 1.02209 0.0
H2007 H 0.51606 0.29252 0.97959 0.0
H2008 H 0.56548 0.29938 0.97885 0.0
C2009 C 0.55703 0.29348 0.04623 0.0
C2010 C 1.02371 0.29604 0.06836 0.0
C2011 C 1.0076 0.29826 0.04414 0.0
H2012 H 0.06334 0.29137 0.08823 0.0
C2013 C 1.02412 0.29528 1.02043 0.0
H2014 H 1.01338 0.29769 0.08759 0.0
C2015 C 0.05352 0.29047 1.02087 0.0
C2016 C 0.06977 0.28894 0.04499 0.0
H2017 H 1.01412 0.2961 1.00093 0.0
H2018 H 0.06367 0.28809 1.00163 0.0
C2019 C 0.0533 0.2921 0.06876 0.0
C2020 C 1.03129 0.77658 0.27893 0.0
C2021 C 1.02707 0.76042 0.30293 0.0
H2022 H 0.04023 0.81547 0.25955 0.0
C2023 C 1.02944 0.77628 0.32684 0.0
H2024 H 1.03038 0.76668 0.2596 0.0
C2025 C 1.03454 0.80531 0.32676 0.0
C2026 C 0.03926 0.82139 0.30285 0.0
H2027 H 1.02689 0.76621 0.34623 0.0
H2028 H 1.03509 0.81524 0.34608 0.0
C2029 C 1.03744 0.80543 0.27891 0.0
C2030 C 0.55129 0.78872 0.56927 0.0
C2031 C 0.56789 0.78634 0.54547 0.0
H2032 H 0.51134 0.79325 0.58826 0.0
C2033 C 0.55158 0.7885 0.52137 0.0
H2034 H 0.5613 0.78759 0.58875 0.0
C2035 C 0.52205 0.79297 0.52106 0.0
C2036 C 0.50543 0.79502 0.54485 0.0
H2037 H 0.5618 0.78706 0.50208 0.0
H2038 H 0.51205 0.79434 0.50157 0.0
C2039 C 0.52165 0.79229 0.56898 0.0
C2040 C 1.02066 0.7898 0.49997 0.0
C2041 C 1.00528 0.78608 0.52435 0.0
H2042 H 0.05932 0.79625 0.47957 0.0
C2043 C 1.02211 0.78826 0.54789 0.0
H2044 H 1.01006 0.78885 0.48086 0.0
C2045 C 0.05109 0.79382 0.54713 0.0
C2046 C 0.06657 0.79706 0.52274 0.0
H2047 H 1.01266 0.7862 0.56753 0.0
H2048 H 0.06163 0.79511 0.56625 0.0
C2049 C 0.04984 0.79439 0.4992 0.0
C2050 C 1.03491 0.27767 0.25853 0.0
C2051 C 1.03758 0.2613 0.28278 0.0
H2052 H 1.02994 0.31742 0.23843 0.0
C2053 C 1.03535 0.27774 0.30643 0.0
H2054 H 1.03605 0.26751 0.23932 0.0
C2055 C 1.03054 0.3072 0.3059 0.0
C2056 C 1.02828 0.32363 0.28166 0.0
H2057 H 1.03692 0.26768 0.326 0.0
H2058 H 1.02905 0.31731 0.32511 0.0
C2059 C 1.03109 0.30727 0.25799 0.0
C2060 C 0.5318 0.81247 0.80683 0.0
C2061 C 0.53046 0.82961 0.78306 0.0
H2062 H 0.5374 0.77233 0.82584 0.0
C2063 C 0.53394 0.814 0.75895 0.0
H2064 H 0.52927 0.82189 0.82628 0.0
C2065 C 0.53787 0.78445 0.75865 0.0
C2066 C 0.53989 0.76743 0.78247 0.0
H2067 H 0.53346 0.82474 0.73969 0.0
H2068 H 0.53976 0.77488 0.73918 0.0
C2069 C 0.53668 0.78306 0.80657 0.0
C2070 C 1.02976 0.52163 0.78209 0.0
C2071 C 0.05408 0.50491 0.77995 0.0
H2072 H 1.00959 0.56122 0.78823 0.0
C2073 C 0.07783 0.52067 0.7828 0.0
H2074 H 1.0105 0.51192 0.78051 0.0
C2075 C 0.07728 0.55008 0.7866 0.0
C2076 C 0.05293 0.5667 0.78923 0.0
H2077 H 0.09744 0.51022 0.78168 0.0
H2078 H 0.09653 0.55987 0.78783 0.0
C2079 C 1.02921 0.55083 0.78689 0.0
C2080 C 0.27517 0.32089 0.54415 0.0
C2081 C 0.25967 0.29693 0.54714 0.0
H2082 H 0.31416 0.34012 0.53871 0.0
C2083 C 0.27663 0.27283 0.54473 0.0
H2084 H 0.26451 0.34035 0.54545 0.0
C2085 C 0.30586 0.27271 0.53956 0.0
C2086 C 0.32145 0.29666 0.53708 0.0
H2087 H 0.26711 0.25345 0.54639 0.0
H2088 H 0.3165 0.25324 0.53805 0.0
C2089 C 0.30458 0.32075 0.54 0.0
C2090 C 0.50513 0.51518 0.28835 0.0
C2091 C 0.52946 0.49834 0.28992 0.0
H2092 H 0.48506 0.55533 0.28433 0.0
C2093 C 0.55316 0.51417 0.28651 0.0
H2094 H 0.48589 0.50548 0.29047 0.0
C2095 C 0.55261 0.54354 0.28175 0.0
C2096 C 0.52834 0.56047 0.28065 0.0
H2097 H 0.57277 0.50365 0.28706 0.0
H2098 H 0.57186 0.5532 0.27942 0.0
C2099 C 0.50463 0.54472 0.28454 0.0
C2100 C 0.30554 0.75057 0.04862 0.0
C2101 C 0.32148 0.77425 0.05067 0.0
H2102 H 0.26618 0.73205 0.04395 0.0
C2103 C 0.30495 0.79863 0.04748 0.0
H2104 H 0.31588 0.73094 0.05052 0.0
C2105 C 0.27569 0.79927 0.0425 0.0
C2106 C 0.25966 0.77561 0.04091 0.0
H2107 H 0.31484 0.81783 0.04834 0.0
H2108 H 0.26541 0.81891 0.04032 0.0
C2109 C 0.27611 0.75123 0.04456 0.0
C2110 C 0.78005 1.02628 0.52023 0.0
C2111 C 0.77838 0.05069 0.50404 0.0
H2112 H 0.78571 1.00572 0.5594 0.0
C2113 C 0.78133 0.07426 0.52027 0.0
H2114 H 0.7778 1.00718 0.51021 0.0
C2115 C 0.78522 0.07343 0.54964 0.0
C2116 C 0.78754 0.04891 0.56567 0.0
H2117 H 0.78048 0.0939 0.51021 0.0
H2118 H 0.78672 0.09253 0.55986 0.0
C2119 C 0.78478 1.0254 0.54939 0.0
C2120 C 0.7728 0.06581 0.29551 0.0
C2121 C 0.7786 0.04452 0.31487 0.0
H2122 H 0.768 0.07949 0.2535 0.0
C2123 C 0.78532 1.01929 0.30188 0.0
H2124 H 0.7674 0.08576 0.30296 0.0
C2125 C 0.78654 1.01572 0.27261 0.0
C2126 C 0.78006 1.03683 0.25325 0.0
H2127 H 0.79018 1.00175 0.31462 0.0
H2128 H 0.79224 0.99584 0.26518 0.0
C2129 C 0.77306 0.062 0.26624 0.0
C2130 C 0.7941 0.0553 1.02008 0.0
C2131 C 0.79413 1.03127 1.00415 0.0
H2132 H 0.78953 0.07526 0.05895 0.0
C2133 C 0.78974 1.00763 1.02071 0.0
H2134 H 0.79754 0.07441 1.00986 0.0
C2135 C 0.78607 1.00802 0.0501 0.0
C2136 C 0.78535 1.03221 0.06587 0.0
H2137 H 0.78926 0.98823 1.01089 0.0
H2138 H 0.78343 0.98886 0.06053 0.0
C2139 C 0.78946 0.05581 0.04925 0.0
C2140 C 0.78862 0.06559 0.77167 0.0
C2141 C 0.79218 0.04365 0.75333 0.0
H2142 H 0.78732 0.08046 0.81299 0.0
C2143 C 0.79623 1.01811 0.76749 0.0
H2144 H 0.78536 0.08583 0.76328 0.0
C2145 C 0.79639 1.01475 0.79691 0.0
C2146 C 0.79356 1.03679 0.81524 0.0
H2147 H 0.79897 1.00004 0.75557 0.0
H2148 H 0.79932 0.99448 0.80531 0.0
C2149 C 0.78981 0.06235 0.80108 0.0
C2150 C 0.52608 0.78106 0.07844 0.0
C2151 C 0.50948 0.77955 0.05466 0.0
H2152 H 0.56562 0.78625 0.09737 0.0
C2153 C 0.52489 0.78482 1.03061 0.0
H2154 H 0.51659 0.77773 0.09789 0.0
C2155 C 0.55371 0.79109 1.0304 0.0
C2156 C 0.57047 0.79196 0.05414 0.0
H2157 H 0.5144 0.78473 1.01138 0.0
H2158 H 0.56302 0.79501 1.01101 0.0
C2159 C 0.55511 0.78633 0.07815 0.0
C2160 C 1.025 0.79151 1.00821 0.0
C2161 C 1.00843 0.79346 1.03205 0.0
H2162 H 0.06496 0.78709 0.98921 0.0
C2163 C 1.02462 0.79036 0.05615 0.0
H2164 H 1.01501 0.79335 0.98875 0.0
C2165 C 0.05409 0.78555 0.0564 0.0
C2166 C 0.07073 0.78407 1.0326 0.0
H2167 H 1.01432 0.79117 0.07545 0.0
H2168 H 0.06403 0.78342 0.07588 0.0
C2169 C 0.05461 0.78764 1.00848 0.0
C2170 C 1.03786 0.27226 0.75234 0.0
C2171 C 1.0337 0.25593 0.77622 0.0
H2172 H 0.04526 0.31152 0.73306 0.0
C2173 C 1.03633 0.27167 0.80024 0.0
H2174 H 1.03665 0.26257 0.73294 0.0
C2175 C 0.04262 0.30049 0.80034 0.0
C2176 C 0.04625 0.31694 0.77642 0.0
H2177 H 1.03404 0.26144 0.81959 0.0
H2178 H 0.04423 0.3101 0.81974 0.0
C2179 C 0.0432 0.30127 0.75243 0.0
C2180 C 0.52671 0.28902 0.55651 0.0
C2181 C 0.51056 0.29072 0.5323 0.0
H2182 H 0.56606 0.28305 0.57661 0.0
C2183 C 0.52719 0.28739 0.50865 0.0
H2184 H 0.51643 0.2912 0.5757 0.0
C2185 C 0.55678 0.28342 0.50915 0.0
C2186 C 0.57284 0.28112 0.53341 0.0
H2187 H 0.51726 0.28813 0.48912 0.0
H2188 H 0.56717 0.28175 0.48996 0.0
C2189 C 0.55616 0.28405 0.55706 0.0
C2190 C 1.02628 0.27733 0.5783 0.0
C2191 C 1.00973 0.27723 0.55439 0.0
H2192 H 0.06584 0.28113 0.59764 0.0
C2193 C 1.02522 0.28371 0.5307 0.0
H2194 H 1.01671 0.27303 0.59752 0.0
C2195 C 0.05408 0.28978 0.53095 0.0
C2196 C 0.07084 0.28912 0.55476 0.0
H2197 H 1.01475 0.2848 0.51145 0.0
H2198 H 0.06338 0.29492 0.51184 0.0
C2199 C 0.05537 0.28235 0.5784 0.0
C2200 C 0.04041 0.77213 0.77144 0.0
C2201 C 0.04442 0.75512 0.79509 0.0
H2202 H 1.03265 0.81218 0.75277 0.0
C2203 C 0.04322 0.77084 0.81929 0.0
H2204 H 0.04062 0.76252 0.75193 0.0
C2205 C 0.03922 0.80039 0.81974 0.0
C2206 C 1.03472 0.81734 0.79613 0.0
H2207 H 0.04577 0.7602 0.83848 0.0
H2208 H 0.03933 0.81004 0.83923 0.0
C2209 C 1.03545 0.80156 0.77195 0.0
C2210 C 0.54135 0.29366 0.31876 0.0
C2211 C 0.53908 0.31022 0.29461 0.0
H2212 H 0.54642 0.25381 0.33859 0.0
C2213 C 0.54257 0.29409 0.27086 0.0
H2214 H 0.53934 0.30361 0.33803 0.0
C2215 C 0.54798 0.2647 0.27125 0.0
C2216 C 0.5497 0.24805 0.29538 0.0
H2217 H 0.54171 0.30439 0.25137 0.0
H2218 H 0.5505 0.25485 0.25201 0.0
C2219 C 0.54576 0.26413 0.31911 0.0
C2220 C 0.50288 0.06271 0.79834 0.0
C2221 C 0.52652 0.07887 0.79766 0.0
H2222 H 0.48428 1.02323 0.79591 0.0
C2223 C 0.55047 0.06265 0.79167 0.0
H2224 H 0.48354 0.07276 0.80258 0.0
C2225 C 0.55076 1.03351 0.78664 0.0
C2226 C 0.52721 1.01724 0.78781 0.0
H2227 H 0.56959 0.07271 0.79044 0.0
H2228 H 0.57009 1.02349 0.78233 0.0
C2229 C 0.50331 1.03338 0.79422 0.0
C2230 C 0.27343 0.2872 1.01268 0.0
C2231 C 0.25968 0.28423 1.03817 0.0
H2232 H 0.31087 0.29009 0.98924 0.0
C2233 C 0.27853 0.28101 0.06012 0.0
H2234 H 0.26115 0.28993 0.99463 0.0
C2235 C 0.30801 0.28024 0.05676 0.0
C2236 C 0.32173 0.28348 1.03129 0.0
H2237 H 0.27051 0.27862 0.08035 0.0
H2238 H 0.3203 0.27742 0.07479 0.0
C2239 C 0.30287 0.2873 1.00943 0.0
C2240 C 0.06884 0.05593 0.29392 0.0
C2241 C 0.04479 0.07262 0.28906 0.0
H2242 H 0.08856 1.0159 0.30041 0.0
C2243 C 1.02104 0.0566 0.28876 0.0
H2244 H 0.08806 0.0658 0.29475 0.0
C2245 C 1.02123 1.02721 0.29318 0.0
C2246 C 0.04528 1.01044 0.29757 0.0
H2247 H 1.0016 0.06701 0.28552 0.0
H2248 H 1.00195 1.01741 0.29267 0.0
C2249 C 0.06912 1.02636 0.2974 0.0
C2250 C 0.30077 0.82513 0.53524 0.0
C2251 C 0.31726 0.80071 0.53851 0.0
H2252 H 0.26106 0.84552 0.52928 0.0
C2253 C 0.30127 0.77709 0.53618 0.0
H2254 H 0.31066 0.8443 0.53636 0.0
C2255 C 0.27202 0.77782 0.53088 0.0
C2256 C 0.25547 0.80225 0.52804 0.0
H2257 H 0.31157 0.75742 0.53794 0.0
H2258 H 0.26216 0.75865 0.52944 0.0
C2259 C 0.27138 0.82586 0.53085 0.0
C2260 C 0.79296 0.50375 1.02473 0.0
C2261 C 0.78953 0.52803 1.00846 0.0
H2262 H 0.79891 0.48368 0.06418 0.0
C2263 C 0.79166 0.55179 1.02465 0.0
H2264 H 0.79198 0.48449 1.01472 0.0
C2265 C 0.79691 0.55129 0.05385 0.0
C2266 C 0.79988 0.52698 0.07018 0.0
H2267 H 0.78972 0.57137 1.01454 0.0
H2268 H 0.79813 0.57054 0.06385 0.0
C2269 C 0.79728 0.50327 0.05405 0.0
C2270 C 0.82686 0.53299 0.27495 0.0
C2271 C 0.80329 0.52984 0.25835 0.0
H2272 H 0.84527 0.53887 0.31462 0.0
C2273 C 0.77886 0.53228 0.27406 0.0
H2274 H 0.84653 0.53176 0.26529 0.0
C2275 C 0.77807 0.53763 0.3031 0.0
C2276 C 0.80166 0.54035 0.31977 0.0
H2277 H 0.75971 0.53047 0.26371 0.0
H2278 H 0.75838 0.53916 0.31272 0.0
C2279 C 0.82611 0.53739 0.30417 0.0
C2280 C 0.78717 0.52394 0.55327 0.0
C2281 C 0.78406 0.54801 0.56908 0.0
H2282 H 0.79458 0.50433 0.51452 0.0
C2283 C 0.78621 0.57195 0.55235 0.0
H2284 H 0.78606 0.50457 0.56363 0.0
C2285 C 0.79029 0.57182 0.52299 0.0
C2286 C 0.79396 0.54773 0.50729 0.0
H2287 H 0.78441 0.59142 0.56203 0.0
H2288 H 0.79091 0.5912 0.5125 0.0
C2289 C 0.7923 0.52381 0.52409 0.0
C2290 C 0.80553 0.53605 0.80276 0.0
C2291 C 0.7817 0.5342 0.81932 0.0
H2292 H 0.82449 0.542 0.76315 0.0
C2293 C 0.75748 0.53744 0.80321 0.0
H2294 H 0.8251 0.53424 0.81268 0.0
C2295 C 0.75713 0.5413 0.77374 0.0
C2296 C 0.78094 0.54366 0.75724 0.0
H2297 H 0.73816 0.53665 0.81348 0.0
H2298 H 0.73757 0.54284 0.7638 0.0
C2299 C 0.80517 0.54091 0.7734 0.0
C2300 C 0.53819 0.31364 0.77987 0.0
C2301 C 0.54261 0.32909 0.80379 0.0
H2302 H 0.52971 0.27523 0.76053 0.0
C2303 C 0.54115 0.31231 0.82771 0.0
H2304 H 0.53858 0.3242 0.76052 0.0
C2305 C 0.53668 0.28312 0.82764 0.0
C2306 C 0.53174 0.26776 0.80377 0.0
H2307 H 0.54404 0.32173 0.84706 0.0
H2308 H 0.53684 0.27245 0.84694 0.0
C2309 C 0.53265 0.28465 0.77987 0.0
C2310 C 0.58026 1.01382 0.28084 0.0
C2311 C 0.55641 0.99805 0.27912 0.0
H2312 H 0.59917 0.05293 0.28539 0.0
C2313 C 0.53223 1.01466 0.28288 0.0
H2314 H 0.59978 1.00346 0.27849 0.0
C2315 C 0.53191 0.0438 0.288 0.0
C2316 C 0.55573 0.05966 0.28926 0.0
H2317 H 0.51292 1.00491 0.28228 0.0
H2318 H 0.51239 0.05414 0.2905 0.0
C2319 C 0.5799 0.04314 0.2851 0.0
C2320 C 0.80447 0.7763 0.03926 0.0
C2321 C 0.82005 0.80026 1.03678 0.0
H2322 H 0.76574 0.75701 0.04599 0.0
C2323 C 0.80316 0.82434 0.03968 0.0
H2324 H 0.8151 0.75684 1.03776 0.0
C2325 C 0.77374 0.82446 0.04385 0.0
C2326 C 0.75825 0.80048 0.04679 0.0
H2327 H 0.81272 0.84372 1.0384 0.0
H2328 H 0.76305 0.84391 0.04516 0.0
C2329 C 0.77524 0.77641 0.04437 0.0
C2330 C 1.00393 0.0525 0.7838 0.0
C2331 C 1.02786 0.06813 0.78135 0.0
H2332 H 0.98477 1.01343 0.78894 0.0
C2333 C 0.05199 0.05119 0.78435 0.0
H2334 H 0.98442 0.06312 0.78211 0.0
C2335 C 0.05217 1.02189 0.78954 0.0
C2336 C 1.02826 1.00618 0.79151 0.0
H2337 H 0.07136 0.06073 0.7831 0.0
H2338 H 0.07166 1.01137 0.79166 0.0
C2339 C 1.00413 1.02305 0.78806 0.0
C2340 C 0.77743 0.24846 0.54463 0.0
C2341 C 0.76094 0.27268 0.53994 0.0
H2342 H 0.8172 0.22842 0.55154 0.0
C2343 C 0.77701 0.29637 0.54045 0.0
H2344 H 0.7675 0.22926 0.54489 0.0
C2345 C 0.80626 0.29594 0.5455 0.0
C2346 C 0.82281 0.27173 0.54983 0.0
H2347 H 0.7668 0.3159 0.53727 0.0
H2348 H 0.81613 0.31518 0.54551 0.0
C2349 C 0.80687 0.24797 0.54876 0.0
C2350 C 0.28534 0.52346 0.05573 0.0
C2351 C 0.28789 0.54714 0.07191 0.0
H2352 H 0.27895 0.50485 1.01649 0.0
C2353 C 0.28564 0.57148 0.0556 0.0
H2354 H 0.28646 0.50387 0.06589 0.0
C2355 C 0.28201 0.57201 1.02617 0.0
C2356 C 0.27896 0.54834 1.01007 0.0
H2357 H 0.28711 0.59068 0.06563 0.0
H2358 H 0.28123 0.59158 1.01596 0.0
C2359 C 0.28069 0.52405 1.02647 0.0
C2360 C 0.30026 0.54721 0.80494 0.0
C2361 C 0.27631 0.54545 0.82135 0.0
H2362 H 0.3206 0.54359 0.76575 0.0
C2363 C 0.25336 0.53845 0.80528 0.0
H2364 H 0.31886 0.55274 0.81466 0.0
C2365 C 0.25416 0.53409 0.77605 0.0
C2366 C 0.27829 0.53495 0.75985 0.0
H2367 H 0.23407 0.53644 0.8154 0.0
H2368 H 0.23538 0.52949 0.76609 0.0
C2369 C 0.30131 0.54174 0.7759 0.0
C2370 C 0.28652 0.55278 0.55569 0.0
C2371 C 0.28324 0.52912 0.57257 0.0
H2372 H 0.29362 0.5714 0.51594 0.0
C2373 C 0.28517 0.50485 0.55693 0.0
H2374 H 0.28578 0.57234 0.56526 0.0
C2375 C 0.28917 0.50434 0.52757 0.0
C2376 C 0.2929 0.52795 0.51076 0.0
H2377 H 0.28325 0.48563 0.56748 0.0
H2378 H 0.28966 0.48479 0.51796 0.0
C2379 C 0.29142 0.55221 0.52646 0.0
C2380 C 0.32 0.53333 0.30513 0.0
C2381 C 0.29643 0.53141 0.32204 0.0
H2382 H 0.33835 0.53747 0.26504 0.0
C2383 C 0.27199 0.53451 0.30625 0.0
H2384 H 0.33971 0.53149 0.31473 0.0
C2385 C 0.27117 0.53934 0.27691 0.0
C2386 C 0.29473 0.54066 0.25991 0.0
H2387 H 0.25283 0.53364 0.31676 0.0
H2388 H 0.25147 0.54163 0.2674 0.0
C2389 C 0.31918 0.53709 0.27564 0.0
C2390 C 0.54514 0.79456 0.25184 0.0
C2391 C 0.55005 0.81013 0.27555 0.0
H2392 H 0.53715 0.75593 0.23284 0.0
C2393 C 0.54841 0.79357 0.29966 0.0
H2394 H 0.54555 0.80492 0.2324 0.0
C2395 C 0.54233 0.76468 0.29998 0.0
C2396 C 0.53787 0.74903 0.2762 0.0
H2397 H 0.55132 0.80317 0.31891 0.0
H2398 H 0.54155 0.75436 0.31944 0.0
C2399 C 0.53995 0.76552 0.25211 0.0
C2400 C 0.10872 0.37827 0.34596 0.0
C2401 C 0.08195 0.37049 0.3425 0.0
H2402 H 0.14205 0.38013 0.37342 0.0
C2403 C 0.06952 0.35469 0.36243 0.0
H2404 H 0.11849 0.39072 0.33085 0.0
C2405 C 0.08248 0.34936 0.38689 0.0
C2406 C 0.10823 0.35948 0.39162 0.0
H2407 H 0.04878 0.34856 0.36006 0.0
H2408 H 0.07142 0.33911 0.40271 0.0
C2409 C 0.12185 0.37276 0.37049 0.0
C2410 C 0.95593 0.87288 0.62027 0.0
C2411 C 0.96146 0.85789 0.64426 0.0
H2412 H 0.9456 0.87132 0.57824 0.0
C2413 C 0.96584 0.82971 0.64283 0.0
H2414 H 0.95335 0.89474 0.62046 0.0
C2415 C 0.9627 0.81661 0.61855 0.0
C2416 C 0.95413 0.83122 0.59533 0.0
H2417 H 0.96996 0.81732 0.66072 0.0
H2418 H 0.96485 0.79469 0.61857 0.0
C2419 C 0.95207 0.85959 0.59594 0.0
C2420 C 0.49217 0.72738 0.8636 0.0
C2421 C 0.48382 0.70983 0.84355 0.0
H2422 H 0.48699 0.7406 0.90405 0.0
C2423 C 0.46123 0.69399 0.84798 0.0
H2424 H 0.50966 0.73972 0.86044 0.0
C2425 C 0.44933 0.69304 0.87349 0.0
C2426 C 0.45933 0.70865 0.89463 0.0
H2427 H 0.45472 0.68005 0.83278 0.0
H2428 H 0.43364 0.67864 0.87689 0.0
C2429 C 0.47968 0.72717 0.88881 0.0
C2430 C 0.63162 0.22224 0.09314 0.0
C2431 C 0.63233 0.25054 0.09468 0.0
H2432 H 0.62759 0.18481 0.1149 0.0
C2433 C 0.62809 0.26299 0.11973 0.0
H2434 H 0.63485 0.21212 0.07409 0.0
C2435 C 0.62488 0.24749 0.14305 0.0
C2436 C 0.62516 0.21912 0.14188 0.0
H2437 H 0.62849 0.28479 0.12168 0.0
H2438 H 0.62323 0.25785 0.16213 0.0
C2439 C 0.62791 0.20663 0.11658 0.0
C2440 C 0.05892 0.71275 0.20994 0.0
C2441 C 0.07239 0.70593 0.23424 0.0
H2442 H 0.06198 0.71814 0.16751 0.0
C2443 C 0.10079 0.7046 0.23491 0.0
H2444 H 1.03697 0.71427 0.20887 0.0
C2445 C 0.1154 0.7078 0.211 0.0
C2446 C 0.10171 0.71188 0.18618 0.0
H2447 H 0.11163 0.6995 0.25346 0.0
H2448 H 0.13732 0.70611 0.2119 0.0
C2449 C 0.07336 0.7152 0.18611 0.0
C2450 C 0.59524 0.84397 0.47789 0.0
C2451 C 0.61516 0.85216 0.49587 0.0
H2452 H 0.57848 0.84829 0.43827 0.0
C2453 C 0.62927 0.87563 0.49009 0.0
H2454 H 0.58387 0.82605 0.48221 0.0
C2455 C 0.62759 0.88737 0.46427 0.0
C2456 C 0.61088 0.87627 0.4445 0.0
H2457 H 0.64435 0.88255 0.50402 0.0
H2458 H 0.64134 0.90326 0.45926 0.0
C2459 C 0.59281 0.85623 0.45244 0.0
C2460 C 0.46786 0.3829 0.73614 0.0
C2461 C 0.49614 0.37958 0.73743 0.0
H2462 H 0.43246 0.37941 0.71167 0.0
C2463 C 0.5103 0.36696 0.71625 0.0
H2464 H 0.45656 0.39257 0.75231 0.0
C2465 C 0.49684 0.36033 0.69286 0.0
C2466 C 0.46882 0.36558 0.69048 0.0
H2467 H 0.53213 0.3638 0.71696 0.0
H2468 H 0.50877 0.35261 0.67613 0.0
C2469 C 0.45422 0.37582 0.71274 0.0
C2470 C 0.97063 0.23646 0.93426 0.0
C2471 C 0.95411 0.21416 0.93028 0.0
H2472 H 0.98061 0.26893 0.96022 0.0
C2473 C 0.93907 0.20432 0.95234 0.0
H2474 H 0.98362 0.24389 0.91835 0.0
C2475 C 0.93879 0.21778 0.97687 0.0
C2476 C 0.95279 0.24178 0.97948 0.0
H2477 H 0.92613 0.18726 0.9504 0.0
H2478 H 0.92543 0.21093 0.99277 0.0
C2479 C 0.96957 0.25044 0.95848 0.0
C2480 C 0.34546 0.11448 0.37912 0.0
C2481 C 0.3404 0.08882 0.36902 0.0
H2482 H 0.3747 0.14509 0.3836 0.0
C2483 C 0.35928 0.07622 0.35176 0.0
H2484 H 0.33125 0.12435 0.39279 0.0
C2485 C 0.38441 0.08725 0.34752 0.0
C2486 C 0.39093 0.11154 0.35997 0.0
H2487 H 0.35584 0.05622 0.34405 0.0
H2488 H 0.39935 0.07543 0.33634 0.0
C2489 C 0.37064 0.12587 0.3745 0.0
C2490 C 0.22535 0.10111 0.63198 0.0
C2491 C 0.25273 0.09709 0.62525 0.0
H2492 H 0.19263 0.12998 0.63716 0.0
C2493 C 0.26735 0.11892 0.61515 0.0
H2494 H 0.21366 0.08456 0.63983 0.0
C2495 C 0.25606 0.145 0.6154 0.0
C2496 C 0.2294 0.14968 0.62453 0.0
H2497 H 0.28849 0.11626 0.60951 0.0
H2498 H 0.26899 0.16149 0.60999 0.0
C2499 C 0.21365 0.12727 0.63131 0.0
C2500 C 0.21808 1.00245 0.85722 0.0
C2501 C 0.23843 0.98952 0.87306 0.0
H2502 H 0.17789 1.00116 0.84188 0.0
C2503 C 0.23543 0.96273 0.88199 0.0
H2504 H 0.22003 1.0232 0.85019 0.0
C2505 C 0.21118 0.9499 0.87703 0.0
C2506 C 0.1898 0.96381 0.86323 0.0
H2507 H 0.25079 0.95257 0.89455 0.0
H2508 H 0.20879 0.92951 0.88484 0.0
C2509 C 0.19391 0.98982 0.85251 0.0
C2510 C 0.3369 0.94112 0.1022 0.0
C2511 C 0.3624 0.93478 0.11368 0.0
H2512 H 0.30443 0.97037 0.0981 0.0
C2513 C 0.37707 0.9556 0.12539 0.0
H2514 H 0.32492 0.9258 0.09298 0.0
C2515 C 0.36492 0.98128 0.12877 0.0
C2516 C 0.33822 0.98632 0.12004 0.0
H2517 H 0.39727 0.95166 0.13333 0.0
H2518 H 0.37531 0.99607 0.14054 0.0
C2519 C 0.32512 0.9668 0.10501 0.0
C2520 C 0.39485 0.9933 0.22071 0.0
C2521 C 0.39961 0.96705 0.21099 0.0
H2522 H 0.3666 1.02653 0.22464 0.0
C2523 C 0.37758 0.95249 0.20146 0.0
H2524 H 0.41118 1.00516 0.22827 0.0
C2525 C 0.35194 0.96512 0.19873 0.0
C2526 C 0.34814 0.99224 0.206 0.0
H2527 H 0.38039 0.93176 0.19503 0.0
H2528 H 0.33594 0.95451 0.18884 0.0
C2529 C 0.36923 1.00559 0.21865 0.0
C2530 C 0.37488 0.12532 0.44931 0.0
C2531 C 0.35952 0.14813 0.45804 0.0
H2532 H 0.3744 0.08351 0.43823 0.0
C2533 C 0.33269 0.1448 0.46653 0.0
H2534 H 0.39589 0.12702 0.44349 0.0
C2535 C 0.32097 0.11979 0.46479 0.0
C2536 C 0.33548 0.09768 0.45373 0.0
H2537 H 0.32011 0.16179 0.47323 0.0
H2538 H 0.29979 0.1183 0.47025 0.0
C2539 C 0.36287 0.10023 0.44702 0.0
C2540 C 0.24297 0.1139 0.7012 0.0
C2541 C 0.24733 0.08718 0.71045 0.0
H2542 H 0.21452 0.14754 0.69834 0.0
C2543 C 0.22859 0.07539 0.72796 0.0
H2544 H 0.25713 0.12318 0.68743 0.0
C2545 C 0.20415 0.08881 0.73349 0.0
C2546 C 0.19822 0.11429 0.72165 0.0
H2547 H 0.23154 0.05462 0.735 0.0
H2548 H 0.18905 0.07818 0.74501 0.0
C2549 C 0.21839 0.12747 0.70685 0.0
C2550 C 0.20536 0.95638 0.95313 0.0
C2551 C 0.21987 0.93488 0.96629 0.0
H2552 H 0.20688 0.99676 0.93671 0.0
C2553 C 0.2453 0.93965 0.97763 0.0
H2554 H 0.18533 0.95356 0.94489 0.0
C2555 C 0.25696 0.96457 0.97393 0.0
C2556 C 0.24371 0.98497 0.95832 0.0
H2557 H 0.25714 0.92365 0.98779 0.0
H2558 H 0.27745 0.96703 0.98119 0.0
C2559 C 0.21728 0.98135 0.94908 0.0
C2560 C 0.37783 0.38204 0.11236 0.0
C2561 C 0.375 0.40642 0.09725 0.0
H2562 H 0.38302 0.33886 0.11139 0.0
C2563 C 0.37127 0.40523 0.06917 0.0
H2564 H 0.37974 0.38215 0.13413 0.0
C2565 C 0.37199 0.38042 0.05626 0.0
C2566 C 0.3772 0.35625 0.0711 0.0
H2567 H 0.36904 0.42353 0.05682 0.0
H2568 H 0.37035 0.38042 1.03448 0.0
C2569 C 0.37906 0.35719 0.09935 0.0
C2570 C 0.8533 0.19504 0.99014 0.0
C2571 C 0.8586 0.19233 0.96244 0.0
H2572 H 0.85527 0.21997 1.02455 0.0
C2573 C 0.86706 0.215 0.94737 0.0
H2574 H 0.84702 0.17815 1.00258 0.0
C2575 C 0.87275 0.23902 0.96039 0.0
C2576 C 0.8696 0.24055 0.98844 0.0
H2577 H 0.87049 0.21385 0.9258 0.0
H2578 H 0.88157 0.2554 0.94894 0.0
C2579 C 0.8582 0.21908 1.00285 0.0
C2580 C 0.09748 0.60322 0.25425 0.0
C2581 C 0.07664 0.61936 0.24238 0.0
H2582 H 0.13632 0.58436 0.24947 0.0
C2583 C 0.07644 0.62411 0.21441 0.0
H2584 H 0.09784 0.59912 0.27584 0.0
C2585 C 0.09854 0.61514 0.19891 0.0
C2586 C 0.12096 0.60159 0.21142 0.0
H2587 H 0.06045 0.63654 0.20494 0.0
H2588 H 0.09877 0.62024 0.17754 0.0
C2589 C 0.1195 0.59454 0.23898 0.0
C2590 C 0.701 0.86085 0.47455 0.0
C2591 C 0.69904 0.86002 0.50278 0.0
H2592 H 0.70342 0.88581 0.43915 0.0
C2593 C 0.7007 0.88409 0.51736 0.0
H2594 H 0.69999 0.84256 0.46285 0.0
C2595 C 0.70107 0.90888 0.50385 0.0
C2596 C 0.70101 0.91001 0.47552 0.0
H2597 H 0.69955 0.88408 0.53924 0.0
H2598 H 0.70019 0.92711 0.51572 0.0
C2599 C 0.70224 0.88569 0.46101 0.0
C2600 C 0.98016 0.94111 0.21787 0.0
C2601 C 0.98126 0.95438 0.24264 0.0
H2602 H 0.95535 0.92917 0.18537 0.0
C2603 C 0.95901 0.97037 0.25117 0.0
H2604 H 0.99704 0.92835 0.21107 0.0
C2605 C 0.93509 0.97126 0.23621 0.0
C2606 C 0.93281 0.95549 0.21291 0.0
H2607 H 0.95961 0.98089 0.27021 0.0
H2608 H 0.91811 0.9835 0.24355 0.0
C2609 C 0.95603 0.94139 0.20326 0.0
C2610 C 0.20983 0.71879 0.62354 0.0
C2611 C 0.21954 0.69506 0.61075 0.0
H2612 H 0.19351 0.75934 0.61806 0.0
C2613 C 0.22532 0.69613 0.58296 0.0
H2614 H 0.20607 0.71899 0.64509 0.0
C2615 C 0.21927 0.71945 0.56793 0.0
C2616 C 0.20657 0.74192 0.58014 0.0
H2617 H 0.2326 0.67845 0.57217 0.0
H2618 H 0.22256 0.71904 0.54627 0.0
C2619 C 0.20315 0.74209 0.60823 0.0
C2620 C 0.10788 0.47115 0.32564 0.0
C2621 C 0.0878 0.4565 0.33881 0.0
H2622 H 0.14856 0.48375 0.32613 0.0
C2623 C 0.09192 0.44734 0.36549 0.0
H2624 H 0.10504 0.47838 0.30497 0.0
C2625 C 0.11694 0.45085 0.37798 0.0
C2626 C 0.13804 0.46328 0.36375 0.0
H2627 H 0.07676 0.43567 0.37583 0.0
H2628 H 0.12006 0.44297 0.39833 0.0
C2629 C 0.13286 0.47422 0.33782 0.0
C2630 C 0.46442 0.61357 0.82284 0.0
C2631 C 0.48565 0.62591 0.83627 0.0
H2632 H 0.42476 0.59849 0.82561 0.0
C2633 C 0.48513 0.62789 0.86449 0.0
H2634 H 0.46456 0.61149 0.80105 0.0
C2635 C 0.4623 0.61994 0.87879 0.0
C2636 C 0.43988 0.61004 0.86492 0.0
H2637 H 0.50134 0.63736 0.87522 0.0
H2638 H 0.46171 0.62273 0.90045 0.0
C2639 C 0.44165 0.60592 0.83698 0.0
C2640 C 0.94755 0.6937 0.70797 0.0
C2641 C 0.95802 0.70957 0.68672 0.0
H2642 H 0.95416 0.67691 0.74773 0.0
C2643 C 0.9806 0.72532 0.69193 0.0
H2644 H 0.93002 0.68155 0.70509 0.0
C2645 C 0.99454 0.72233 0.71633 0.0
C2646 C 0.9857 0.70416 0.73622 0.0
H2647 H 0.98848 0.7389 0.67666 0.0
H2648 H 1.01344 0.73258 0.7188 0.0
C2649 C 0.96119 0.69123 0.73267 0.0
C2650 C 0.13068 0.20773 0.49735 0.0
C2651 C 0.12045 0.23406 0.50189 0.0
H2652 H 0.13216 0.17462 0.46988 0.0
C2653 C 0.10053 0.2457 0.48471 0.0
H2654 H 0.14644 0.19869 0.51021 0.0
C2655 C 0.09256 0.23227 0.46184 0.0
C2656 C 0.10466 0.20705 0.45566 0.0
H2657 H 0.0929 0.26625 0.48765 0.0
H2658 H 0.07865 0.24267 0.44788 0.0
C2659 C 0.12289 0.19428 0.47413 0.0
C2660 C 0.57831 0.34947 0.21 0.0
C2661 C 0.59142 0.36326 0.23052 0.0
H2662 H 0.5759 0.34165 0.1682 0.0
C2663 C 0.61707 0.37353 0.22562 0.0
H2664 H 0.5584 0.34141 0.21341 0.0
C2665 C 0.62783 0.37293 0.19947 0.0
C2666 C 0.61271 0.36269 0.17789 0.0
H2667 H 0.62745 0.38445 0.24114 0.0
H2668 H 0.64724 0.38187 0.19601 0.0
C2669 C 0.58844 0.34974 0.18385 0.0
C2670 C 0.46656 0.81823 0.96781 0.0
C2671 C 0.45735 0.82992 0.99192 0.0
H2672 H 0.47852 0.8247 0.92712 0.0
C2673 C 0.45742 0.85812 0.99471 0.0
H2674 H 0.46707 0.79647 0.9652 0.0
C2675 C 0.46476 0.87449 0.97283 0.0
C2676 C 0.47185 0.86279 0.94795 0.0
H2677 H 0.45051 0.86757 1.01319 0.0
H2678 H 0.46398 0.89627 0.97515 0.0
C2679 C 0.47345 0.83448 0.94597 0.0
C2680 C 0.98087 0.34964 0.8728 0.0
C2681 C 0.9579 0.36662 0.8772 0.0
H2682 H 1.01483 0.34096 0.84728 0.0
C2683 C 0.94778 0.38314 0.85574 0.0
H2684 H 0.98847 0.33568 0.88838 0.0
C2685 C 0.96226 0.38507 0.83164 0.0
C2686 C 0.98719 0.37097 0.82907 0.0
H2687 H 0.92991 0.39618 0.85818 0.0
H2688 H 0.95552 0.39983 0.8164 0.0
C2689 C 0.99561 0.35208 0.84903 0.0
C2690 C 0.44963 0.19472 0.61776 0.0
C2691 C 0.46591 0.206 0.63778 0.0
H2692 H 0.43253 0.19981 0.57817 0.0
C2693 C 0.48297 0.2271 0.63042 0.0
H2694 H 0.43665 0.17811 0.62236 0.0
C2695 C 0.48022 0.23971 0.60519 0.0
C2696 C 0.46101 0.23084 0.5868 0.0
H2697 H 0.49691 0.23532 0.64481 0.0
H2698 H 0.49099 0.25809 0.6012 0.0
C2699 C 0.44746 0.20695 0.59221 0.0
C2700 C 0.63346 0.70314 0.35555 0.0
C2701 C 0.62446 0.70079 0.38241 0.0
H2702 H 0.62352 0.69799 0.31363 0.0
C2703 C 0.59837 0.69221 0.38786 0.0
H2704 H 0.65359 0.71009 0.35115 0.0
C2705 C 0.58122 0.68631 0.3669 0.0
C2706 C 0.58994 0.68826 0.33988 0.0
H2707 H 0.59089 0.69081 0.40843 0.0
H2708 H 0.56111 0.67985 0.37217 0.0
C2709 C 0.61632 0.6965 0.33426 0.0
C2710 C 0.10602 0.82729 0.11612 0.0
C2711 C 0.12224 0.8375 0.09537 0.0
H2712 H 0.09024 0.8329 0.15576 0.0
C2713 C 0.13281 0.86332 0.0976 0.0
H2714 H 0.09743 0.80746 0.11459 0.0
C2715 C 0.12995 0.87733 0.12171 0.0
C2716 C 0.11584 0.866 0.14367 0.0
H2717 H 0.14569 0.87143 0.08191 0.0
H2718 H 0.14058 0.896 0.12362 0.0
C2719 C 0.10248 0.84162 0.13992 0.0
C2720 C 0.72704 0.96513 0.69376 0.0
C2721 C 0.72922 0.99159 0.70305 0.0
H2722 H 0.70083 0.93308 0.68589 0.0
C2723 C 0.70797 1.00342 0.718 0.0
H2724 H 0.74322 0.95556 0.68214 0.0
C2725 C 0.68361 0.99028 0.72077 0.0
C2726 C 0.67978 0.96552 0.70781 0.0
H2727 H 0.70954 1.02363 0.72594 0.0
H2728 H 0.66743 1.00035 0.73191 0.0
C2729 C 0.70242 0.95227 0.69585 0.0
C2730 C 0.88378 0.97577 0.44838 0.0
C2731 C 0.87406 0.95652 0.46698 0.0
H2732 H 0.8751 1.01313 0.42702 0.0
C2733 C 0.85199 0.96383 0.48356 0.0
H2734 H 0.90124 0.9713 0.43588 0.0
C2735 C 0.83689 0.98751 0.47804 0.0
C2736 C 0.84417 1.00445 0.45648 0.0
H2737 H 0.8449 0.95015 0.49916 0.0
H2738 H 0.81795 0.99099 0.48862 0.0
C2739 C 0.86896 0.9999 0.44339 0.0
C2740 C 0.87869 0.06292 0.20419 0.0
C2741 C 0.85489 0.07829 0.19805 0.0
H2742 H 0.92162 0.06247 0.20843 0.0
C2743 C 0.85611 0.10655 0.19546 0.0
H2744 H 0.87845 0.04106 0.20641 0.0
C2745 C 0.88104 0.11897 0.19707 0.0
C2746 C 0.90514 0.10329 0.20107 0.0
H2747 H 0.83813 0.11892 0.19063 0.0
H2748 H 0.88146 0.14077 0.19459 0.0
C2749 C 0.90355 0.07523 0.20534 0.0
C2750 C 0.72435 0.11814 0.98581 0.0
C2751 C 0.70088 0.12637 0.97151 0.0
H2752 H 0.75795 0.09004 0.98792 0.0
C2753 C 0.68932 0.1084 0.95335 0.0
H2754 H 0.73369 0.13148 0.99999 0.0
C2755 C 0.70319 0.08426 0.94677 0.0
C2756 C 0.72871 0.07829 0.95817 0.0
H2757 H 0.67071 0.11395 0.94279 0.0
H2758 H 0.69555 0.0721 0.93062 0.0
C2759 C 0.73817 0.09424 0.97912 0.0
C2760 C 0.66943 0.07148 0.87358 0.0
C2761 C 0.66635 0.09959 0.87678 0.0
H2762 H 0.69685 1.03742 0.87084 0.0
C2763 C 0.6895 0.11547 0.87624 0.0
H2764 H 0.65207 0.05867 0.8737 0.0
C2765 C 0.7153 0.10326 0.875 0.0
C2766 C 0.71835 0.07497 0.87401 0.0
H2767 H 0.68776 0.13734 0.87746 0.0
H2768 H 0.73275 0.11586 0.8765 0.0
C2769 C 0.69519 0.05933 0.87183 0.0
C2770 C 0.74229 0.96398 0.60455 0.0
C2771 C 0.73221 0.98528 0.62042 0.0
H2772 H 0.73727 0.92369 0.59133 0.0
C2773 C 0.70653 0.9835 0.63224 0.0
H2774 H 0.76187 0.96518 0.59475 0.0
C2775 C 0.69291 0.95919 0.63141 0.0
C2776 C 0.70464 0.93647 0.61837 0.0
H2777 H 0.69835 0.99971 0.64465 0.0
H2778 H 0.6744 0.95778 0.64296 0.0
C2779 C 0.72845 0.93995 0.6032 0.0
C2780 C 0.8744 1.02367 0.36983 0.0
C2781 C 0.85126 1.00803 0.37248 0.0
H2782 H 0.91742 1.0242 0.37134 0.0
C2783 C 0.85413 0.97971 0.37281 0.0
H2784 H 0.87284 0.04561 0.36921 0.0
C2785 C 0.8799 0.96732 0.3733 0.0
C2786 C 0.90312 0.9831 0.37393 0.0
H2787 H 0.83663 0.96715 0.37451 0.0
H2788 H 0.88153 0.9454 0.37415 0.0
C2789 C 0.90009 1.01136 0.37107 0.0
C2790 C 0.85123 0.12806 0.09068 0.0
C2791 C 0.87468 0.13348 0.10535 0.0
H2792 H 0.81801 0.102 0.08637 0.0
C2793 C 0.88591 0.1135 0.12304 0.0
H2794 H 0.84218 0.1431 0.07691 0.0
C2795 C 0.87239 0.08946 0.12785 0.0
C2796 C 0.84731 0.08563 0.11542 0.0
H2797 H 0.90434 0.11706 0.13412 0.0
H2798 H 0.8801 0.07532 0.1432 0.0
C2799 C 0.83758 0.10438 0.09581 0.0
C2800 C 0.71949 0.71012 1.01284 0.0
C2801 C 0.70672 0.73227 0.99932 0.0
H2802 H 0.73023 0.66816 1.01212 0.0
C2803 C 0.69963 0.7302 0.97203 0.0
H2804 H 0.72533 0.71136 1.03391 0.0
C2805 C 0.70299 0.70537 0.9592 0.0
C2806 C 0.71319 0.6824 0.97367 0.0
H2807 H 0.68961 0.74702 0.96126 0.0
H2808 H 0.69667 0.70394 0.93833 0.0
C2809 C 0.72233 0.68532 1.0003 0.0
C2810 C 0.19611 0.86619 0.13306 0.0
C2811 C 0.21104 0.88717 0.12133 0.0
H2812 H 0.18 0.82691 0.12796 0.0
C2813 C 0.2253 0.88214 0.09721 0.0
H2814 H 0.18482 0.86914 0.15158 0.0
C2815 C 0.22199 0.85813 0.08349 0.0
C2816 C 0.20508 0.83839 0.09407 0.0
H2817 H 0.23814 0.89717 0.08822 0.0
H2818 H 0.23132 0.85568 0.06381 0.0
C2819 C 0.19345 0.8418 0.11964 0.0
C2820 C 0.93429 0.4631 0.82386 0.0
C2821 C 0.9335 0.4593 0.85203 0.0
H2822 H 0.95832 0.46255 0.78829 0.0
C2823 C 0.958 0.45521 0.86639 0.0
H2824 H 0.91596 0.46617 0.812 0.0
C2825 C 0.98245 0.45219 0.85252 0.0
C2826 C 0.98267 0.4537 0.8242 0.0
H2827 H 0.95821 0.45323 0.88822 0.0
H2828 H 1.00074 0.44687 0.86383 0.0
C2829 C 0.9587 0.46088 0.81016 0.0
C2830 C 0.36793 0.20386 0.56873 0.0
C2831 C 0.37666 0.2262 0.5831 0.0
H2832 H 0.36184 0.16166 0.56892 0.0
C2833 C 0.38036 0.22387 0.61116 0.0
H2834 H 0.36457 0.20517 0.54707 0.0
C2835 C 0.37783 0.19871 0.62414 0.0
C2836 C 0.37203 0.17559 0.60909 0.0
H2837 H 0.3871 0.24083 0.62269 0.0
H2838 H 0.38157 0.19722 0.64569 0.0
C2839 C 0.36617 0.17877 0.58141 0.0
C2840 C 0.10465 0.09932 0.82733 0.0
C2841 C 0.0849 0.11658 0.83888 0.0
H2842 H 0.14565 0.08527 0.82767 0.0
C2843 C 0.08961 0.12775 0.86421 0.0
H2844 H 0.10144 0.09079 0.80758 0.0
C2845 C 0.11518 0.1243 0.87621 0.0
C2846 C 0.13623 0.10991 0.86278 0.0
H2847 H 0.0747 0.14144 0.87326 0.0
H2848 H 0.11883 0.13422 0.89516 0.0
C2849 C 0.13019 0.09636 0.83888 0.0
C2850 C 0.848 0.37664 0.49278 0.0
C2851 C 0.85494 0.37895 0.46533 0.0
H2852 H 0.85062 0.35261 0.52878 0.0
C2853 C 0.86571 0.35595 0.45201 0.0
H2854 H 0.83976 0.39368 0.50395 0.0
C2855 C 0.87288 0.33243 0.46676 0.0
C2856 C 0.86877 0.33168 0.49474 0.0
H2857 H 0.87026 0.35664 0.43061 0.0
H2858 H 0.88367 0.31596 0.45675 0.0
C2859 C 0.8545 0.35307 0.50721 0.0
C2860 C 0.96072 0.61086 0.75574 0.0
C2861 C 0.98286 0.62091 0.74146 0.0
H2862 H 0.91879 0.60348 0.7557 0.0
C2863 C 0.98066 0.62563 0.71352 0.0
H2864 H 0.96198 0.6067 0.7773 0.0
C2865 C 0.95572 0.62278 0.70061 0.0
C2866 C 0.93268 0.61565 0.71564 0.0
H2867 H 0.99749 0.63344 0.70208 0.0
H2868 H 0.95431 0.62733 0.67916 0.0
C2869 C 0.93582 0.60881 0.74317 0.0
C2870 C 0.62438 0.44861 0.1993 0.0
C2871 C 0.64534 0.45982 0.21438 0.0
H2872 H 0.58472 0.4321 0.20048 0.0
C2873 C 0.64001 0.4685 0.24075 0.0
H2874 H 0.62756 0.44292 0.17851 0.0
C2875 C 0.61523 0.46361 0.25269 0.0
C2876 C 0.59563 0.44932 0.23879 0.0
H2877 H 0.65554 0.47729 0.25297 0.0
H2878 H 0.61239 0.46884 0.27372 0.0
C2879 C 0.59962 0.44314 0.21154 0.0
C2880 C 0.63336 0.87641 0.86214 0.0
C2881 C 0.62121 0.85944 0.88145 0.0
H2882 H 0.62817 0.89822 0.82452 0.0
C2883 C 0.59732 0.84652 0.87472 0.0
H2884 H 0.65219 0.88605 0.86658 0.0
C2885 C 0.58402 0.85313 0.85066 0.0
C2886 C 0.59434 0.87273 0.83305 0.0
H2887 H 0.58741 0.83338 0.8891 0.0
H2888 H 0.56408 0.84533 0.8474 0.0
C2889 C 0.61998 0.88295 0.83787 0.0
C2890 C 0.44769 0.37329 0.07942 0.0
C2891 C 0.46116 0.34869 0.07349 0.0
H2892 H 0.44112 0.4039 0.10915 0.0
C2893 C 0.48273 0.33916 0.0899 0.0
H2894 H 0.43099 0.38093 0.06695 0.0
C2895 C 0.4885 0.35207 0.11385 0.0
C2896 C 0.47254 0.37459 0.12177 0.0
H2897 H 0.49309 0.32001 0.08581 0.0
H2898 H 0.50359 0.3428 0.12734 0.0
C2899 C 0.45318 0.3861 0.1037 0.0
C2900 C 0.97064 0.23384 0.37803 0.0
C2901 C 0.94949 0.21671 0.38503 0.0
H2902 H 1.00182 0.24221 0.34949 0.0
C2903 C 0.93837 0.20069 0.36477 0.0
H2904 H 0.97879 0.24757 0.39256 0.0
C2905 C 0.95082 0.19875 0.33951 0.0
C2906 C 0.97479 0.21232 0.33457 0.0
H2907 H 0.9217 0.1877 0.36903 0.0
H2908 H 0.94382 0.18395 0.32542 0.0
C2909 C 0.98339 0.23142 0.35307 0.0
C2910 C 0.10592 0.75943 0.60585 0.0
C2911 C 0.11843 0.7466 0.58384 0.0
H2912 H 0.09342 0.75603 0.64663 0.0
C2913 C 0.12242 0.7184 0.58418 0.0
H2914 H 0.10219 0.7812 0.60582 0.0
C2915 C 0.11652 0.70357 0.60758 0.0
C2916 C 0.10702 0.71695 0.63087 0.0
H2917 H 0.13191 0.70812 0.56729 0.0
H2918 H 0.12074 0.68191 0.60784 0.0
C2919 C 0.10061 0.74485 0.62926 0.0
C2920 C 0.60932 0.2086 0.73928 0.0
C2921 C 0.58135 0.21453 0.73994 0.0
H2922 H 0.64469 0.20442 0.71465 0.0
C2923 C 0.5682 0.22454 0.71652 0.0
H2924 H 0.61993 0.20082 0.75712 0.0
C2925 C 0.58176 0.22495 0.69202 0.0
C2926 C 0.60926 0.21663 0.69051 0.0
H2927 H 0.54663 0.22955 0.71655 0.0
H2928 H 0.56987 0.23002 0.67416 0.0
C2929 C 0.62328 0.20993 0.71472 0.0
C2930 C 0.0886 0.36211 0.96129 0.0
C2931 C 0.106 0.38226 0.95227 0.0
H2932 H 0.08274 0.3306 0.99044 0.0
C2933 C 0.125 0.39228 0.97051 0.0
H2934 H 0.07268 0.35496 0.94841 0.0
C2935 C 0.12966 0.37912 0.99532 0.0
C2936 C 0.11598 0.35551 1.00149 0.0
H2937 H 0.13821 0.40834 0.96472 0.0
H2938 H 0.14643 0.3851 1.0077 0.0
C2939 C 0.0938 0.34858 0.9857 0.0
C2940 C 0.96186 0.87675 0.24098 0.0
C2941 C 0.98985 0.87144 0.243 0.0
H2942 H 0.92695 0.87642 0.21537 0.0
C2943 C 1.00354 0.85776 0.22221 0.0
H2944 H 0.95094 0.88735 0.25683 0.0
C2945 C 0.99033 0.8526 0.19825 0.0
C2946 C 0.96287 0.86031 0.19484 0.0
H2947 H 1.02516 0.85319 0.22349 0.0
H2948 H 1.00239 0.84448 0.18181 0.0
C2949 C 0.94835 0.87105 0.217 0.0
C2950 C 0.47332 0.74157 0.43543 0.0
C2951 C 0.46293 0.71586 0.43136 0.0
H2952 H 0.47633 0.77481 0.46205 0.0
C2953 C 0.45108 0.70207 0.45328 0.0
H2954 H 0.48252 0.75282 0.41907 0.0
C2955 C 0.44732 0.71489 0.47801 0.0
C2956 C 0.45552 0.74154 0.481 0.0
H2957 H 0.44365 0.68187 0.45098 0.0
H2958 H 0.43593 0.70493 0.4938 0.0
C2959 C 0.46987 0.75417 0.46011 0.0
C2960 C 0.86722 0.56973 0.85633 0.0
C2961 C 0.8463 0.58338 0.87032 0.0
H2962 H 0.90863 0.56882 0.84492 0.0
C2963 C 0.84977 0.61002 0.8786 0.0
H2964 H 0.86492 0.5491 0.84973 0.0
C2965 C 0.87496 0.62175 0.87535 0.0
C2966 C 0.89694 0.60682 0.86408 0.0
H2967 H 0.83395 0.6208 0.88967 0.0
H2968 H 0.87749 0.64201 0.88277 0.0
C2969 C 0.89238 0.58111 0.85361 0.0
C2970 C 0.76177 0.61238 0.10804 0.0
C2971 C 0.74829 0.59162 0.12159 0.0
H2972 H 0.76254 0.65434 0.09855 0.0
C2973 C 0.72145 0.59607 0.12995 0.0
H2974 H 0.78251 0.60924 0.10123 0.0
C2975 C 0.70946 0.62205 0.12764 0.0
C2976 C 0.72445 0.64382 0.11758 0.0
H2977 H 0.71072 0.58032 0.14053 0.0
H2978 H 0.68901 0.6253 0.13502 0.0
C2979 C 0.75023 0.63835 0.10654 0.0
C2980 C 0.73034 0.46593 0.38154 0.0
C2981 C 0.73147 0.49356 0.37485 0.0
H2982 H 0.70554 0.43128 0.38394 0.0
C2983 C 0.70879 0.50706 0.36308 0.0
H2984 H 0.7475 0.45518 0.39093 0.0
C2985 C 0.68467 0.49381 0.35997 0.0
C2986 C 0.68284 0.46658 0.36812 0.0
H2987 H 0.7092 0.5284 0.3577 0.0
H2988 H 0.66716 0.50533 0.35229 0.0
C2989 C 0.70615 0.45249 0.37815 0.0
C2990 C 0.84203 0.44599 0.5979 0.0
C2991 C 0.86737 0.43963 0.60967 0.0
H2992 H 0.80888 0.47451 0.59494 0.0
C2993 C 0.88129 0.46007 0.62285 0.0
H2994 H 0.83065 0.43084 0.58766 0.0
C2995 C 0.86855 0.48533 0.62718 0.0
C2996 C 0.84195 0.49025 0.61807 0.0
H2997 H 0.90132 0.45602 0.63116 0.0
H2998 H 0.8783 0.49972 0.63997 0.0
C2999 C 0.82958 0.47118 0.60186 0.0
C3000 C 0.90004 0.49945 0.71356 0.0
C3001 C 0.90496 0.47285 0.70476 0.0
H3002 H 0.87117 0.5319 0.71866 0.0
C3003 C 0.88271 0.45723 0.69771 0.0
H3004 H 0.91642 0.51226 0.71915 0.0
C3005 C 0.85655 0.46899 0.69652 0.0
C3006 C 0.85236 0.49631 0.70299 0.0
H3007 H 0.8856 0.43626 0.69209 0.0
H3008 H 0.8402 0.45741 0.68851 0.0
C3009 C 0.87396 0.51081 0.71325 0.0
C3010 C 0.86635 0.59436 0.94648 0.0
C3011 C 0.8398 0.59063 0.95543 0.0
H3012 H 0.89869 0.62199 0.94283 0.0
C3013 C 0.82658 0.61078 0.9707 0.0
H3014 H 0.87676 0.57917 0.93437 0.0
C3015 C 0.83845 0.6355 0.97451 0.0
C3016 C 0.86411 0.6404 0.9636 0.0
H3017 H 0.806 0.60831 0.97775 0.0
H3018 H 0.82663 0.65128 0.98448 0.0
C3019 C 0.87851 0.61913 0.95066 0.0
C3020 C 0.69617 0.57931 0.22614 0.0
C3021 C 0.68938 0.60497 0.21499 0.0
H3022 H 0.72611 0.54754 0.22994 0.0
C3023 C 0.71008 0.62057 0.20371 0.0
H3024 H 0.68105 0.56656 0.23503 0.0
C3025 C 0.73606 0.60912 0.20002 0.0
C3026 C 0.74152 0.58227 0.20829 0.0
H3027 H 0.70584 0.64098 0.19626 0.0
H3028 H 0.75077 0.62018 0.18838 0.0
C3029 C 0.72217 0.56834 0.22329 0.0
C3030 C 0.71295 0.48619 0.44825 0.0
C3031 C 0.73877 0.49039 0.45883 0.0
H3032 H 0.68096 0.45825 0.44448 0.0
C3033 C 0.75052 0.47154 0.47724 0.0
H3034 H 0.70384 0.50032 0.43359 0.0
C3035 C 0.73781 0.44755 0.48316 0.0
C3036 C 0.71316 0.442 0.47063 0.0
H3037 H 0.77068 0.47428 0.4852 0.0
H3038 H 0.7483 0.43252 0.49592 0.0
C3039 C 0.70022 0.46195 0.45402 0.0
C3040 C 0.88525 0.8422 0.61482 0.0
C3041 C 0.87048 0.839 0.591 0.0
H3042 H 0.89779 0.86976 0.64447 0.0
C3043 C 0.85156 0.85914 0.58255 0.0
H3044 H 0.89998 0.82678 0.62162 0.0
C3045 C 0.84984 0.88366 0.59587 0.0
C3046 C 0.86767 0.88863 0.61729 0.0
H3047 H 0.83988 0.85684 0.56421 0.0
H3048 H 0.83565 0.8992 0.5883 0.0
C3049 C 0.88417 0.86706 0.6277 0.0
C3050 C 0.37541 0.70479 0.45045 0.0
C3051 C 0.36408 0.68362 0.46572 0.0
H3052 H 0.38979 0.74534 0.45083 0.0
C3053 C 0.35346 0.68927 0.49142 0.0
H3054 H 0.38283 0.70142 0.43018 0.0
C3055 C 0.35611 0.71467 0.50245 0.0
C3056 C 0.37019 0.73473 0.48847 0.0
H3057 H 0.3447 0.67367 0.50393 0.0
H3058 H 0.34936 0.7178 0.52306 0.0
C3059 C 0.37865 0.73021 0.46186 0.0
C3060 C 0.6083 0.11544 0.75163 0.0
C3061 C 0.58714 0.13284 0.74239 0.0
H3062 H 0.64756 0.09811 0.74375 0.0
C3063 C 0.58806 0.14408 0.71624 0.0
H3064 H 0.60773 0.10633 0.77171 0.0
C3065 C 0.61124 0.14014 0.70053 0.0
C3066 C 0.63359 0.12472 0.71076 0.0
H3067 H 0.57196 0.15775 0.70884 0.0
H3068 H 0.61212 0.15054 0.68115 0.0
C3069 C 0.63124 0.11118 0.73582 0.0
C3070 C 0.20289 0.38403 1.01886 0.0
C3071 C 0.20057 0.36107 1.0027 0.0
H3072 H 0.20135 0.42708 1.02045 0.0
C3073 C 0.20044 0.36424 0.97448 0.0
H3074 H 0.20328 0.38227 0.04073 0.0
C3075 C 0.19999 0.39011 0.96274 0.0
C3076 C 0.19923 0.41325 0.97904 0.0
H3077 H 0.19898 0.34691 0.96148 0.0
H3078 H 0.19931 0.39192 0.94091 0.0
C3079 C 0.20177 0.40986 1.00719 0.0
C3080 C 0.44579 0.48187 0.73034 0.0
C3081 C 0.44108 0.46327 0.70974 0.0
H3082 H 0.47281 0.49372 0.7615 0.0
C3083 C 0.463 0.44708 0.70024 0.0
H3084 H 0.42985 0.49569 0.73727 0.0
C3085 C 0.48811 0.4473 0.71313 0.0
C3086 C 0.4913 0.463 0.73615 0.0
H3087 H 0.46038 0.43266 0.68431 0.0
H3088 H 0.50383 0.43276 0.70712 0.0
C3089 C 0.4706 0.48141 0.74374 0.0
C3090 C 0.72026 0.2265 0.12527 0.0
C3091 C 0.73239 0.20432 0.11169 0.0
H3092 H 0.70047 0.26565 0.12071 0.0
C3093 C 0.74097 0.20783 0.08485 0.0
H3094 H 0.71446 0.22481 0.14632 0.0
C3095 C 0.73403 0.23147 0.0708 0.0
C3096 C 0.71795 0.25163 0.08312 0.0
H3097 H 0.75035 0.19144 0.07356 0.0
H3098 H 0.73829 0.23244 0.04932 0.0
C3099 C 0.71279 0.25012 0.11089 0.0
C3100 C 0.62842 0.9612 0.81256 0.0
C3101 C 0.60541 0.95599 0.82827 0.0
H3102 H 0.67138 0.96234 0.81093 0.0
C3103 C 0.60832 0.95201 0.85628 0.0
H3104 H 0.62685 0.96443 0.79088 0.0
C3105 C 0.63413 0.95141 0.86803 0.0
C3106 C 0.65737 0.95448 0.85187 0.0
H3107 H 0.59096 0.94775 0.86885 0.0
H3108 H 0.63586 0.94799 0.88964 0.0
C3109 C 0.65408 0.96002 0.82412 0.0
C3110 C 0.92064 0.12038 0.3269 0.0
C3111 C 0.91719 0.12492 0.35465 0.0
H3112 H 0.94762 0.11921 0.29349 0.0
C3113 C 0.9403 0.12891 0.37071 0.0
H3114 H 0.90353 0.11742 0.31369 0.0
C3115 C 0.96585 0.13088 0.35875 0.0
C3116 C 0.96863 0.12842 0.33068 0.0
H3117 H 0.93858 0.13158 0.39232 0.0
H3118 H 0.98291 0.13611 0.37118 0.0
C3119 C 0.94609 0.12158 0.31519 0.0
C3120 C 0.49974 0.22349 0.19045 0.0
C3121 C 0.47411 0.21377 0.18438 0.0
H3122 H 0.53196 0.22408 0.21889 0.0
C3123 C 0.45922 0.20086 0.20491 0.0
H3124 H 0.51195 0.23337 0.1753 0.0
C3125 C 0.47112 0.19504 0.23002 0.0
C3126 C 0.49779 0.20243 0.23474 0.0
H3127 H 0.43897 0.19401 0.20116 0.0
H3128 H 0.46054 0.18261 0.24456 0.0
C3129 C 0.51125 0.21826 0.21557 0.0
C3130 C 0.63257 0.71279 0.99141 0.0
C3131 C 0.62132 0.73855 0.99676 0.0
H3132 H 0.63724 0.68154 0.96212 0.0
C3133 C 0.60259 0.75083 0.97868 0.0
H3134 H 0.6474 0.70323 1.00499 0.0
C3135 C 0.59747 0.73905 0.95407 0.0
C3136 C 0.61086 0.71462 0.94724 0.0
H3137 H 0.59408 0.77095 0.98234 0.0
H3138 H 0.58478 0.75027 0.9396 0.0
C3139 C 0.62732 0.70082 0.96665 0.0
C3140 C 0.07902 0.85692 0.68231 0.0
C3141 C 0.10486 0.86688 0.6772 0.0
H3142 H 0.04728 0.85209 0.7109 0.0
C3143 C 0.12024 0.87617 0.69899 0.0
H3144 H 0.06643 0.8497 0.66621 0.0
C3145 C 0.10884 0.87811 0.72474 0.0
C3146 C 0.0821 0.87044 0.72893 0.0
H3147 H 0.14062 0.88307 0.69596 0.0
H3148 H 0.12002 0.88773 0.74058 0.0
C3149 C 0.06797 0.85826 0.70802 0.0
C3150 C 0.96555 0.31436 0.46401 0.0
C3151 C 0.95657 0.32705 0.48769 0.0
H3152 H 0.97399 0.31854 0.42228 0.0
C3153 C 0.95484 0.3554 0.48857 0.0
H3154 H 0.96753 0.29247 0.46291 0.0
C3155 C 0.95956 0.3707 0.46516 0.0
C3156 C 0.96559 0.35775 0.44059 0.0
H3157 H 0.94814 0.36564 0.50671 0.0
H3158 H 0.9573 0.39255 0.46611 0.0
C3159 C 0.96958 0.32946 0.44063 0.0
C3160 C 0.51263 0.85366 0.36221 0.0
C3161 C 0.50011 0.86332 0.33832 0.0
H3162 H 0.5086 0.84581 0.40409 0.0
C3163 C 0.47182 0.86657 0.33721 0.0
H3164 H 0.53446 0.85059 0.36348 0.0
C3165 C 0.45653 0.86277 0.36063 0.0
C3166 C 0.4695 0.85621 0.38541 0.0
H3167 H 0.46172 0.87389 0.31891 0.0
H3168 H 0.43477 0.8662 0.35949 0.0
C3169 C 0.49762 0.85065 0.3856 0.0
C3170 C 0.94322 0.69884 0.12163 0.0
C3171 C 0.95748 0.7099 0.14328 0.0
H3172 H 0.92922 0.70448 0.08097 0.0
C3173 C 0.97386 0.73215 0.1381 0.0
H3174 H 0.93073 0.6815 0.12449 0.0
C3175 C 0.9727 0.74545 0.1131 0.0
C3176 C 0.95576 0.73623 0.09274 0.0
H3177 H 0.98631 0.74036 0.15381 0.0
H3178 H 0.98317 0.76425 0.11046 0.0
C3179 C 0.94259 0.7118 0.09642 0.0
C3180 C 0.11769 0.20104 0.87294 0.0
C3181 C 0.10222 0.2103 0.89507 0.0
H3182 H 0.11704 0.18768 0.83194 0.0
C3183 C 0.07457 0.21681 0.89155 0.0
H3184 H 0.13927 0.19673 0.87486 0.0
C3185 C 0.06234 0.21299 0.86681 0.0
C3186 C 0.07728 0.2017 0.84538 0.0
H3187 H 0.06205 0.22389 0.90813 0.0
H3188 H 0.04071 0.21729 0.86502 0.0
C3189 C 0.10522 0.19659 0.84819 0.0
C3190 C 0.63115 0.36983 0.63049 0.0
C3191 C 0.6225 0.35573 0.65375 0.0
H3192 H 0.64218 0.36732 0.58865 0.0
C3193 C 0.61439 0.32892 0.65131 0.0
H3194 H 0.63676 0.39079 0.63154 0.0
C3195 C 0.61643 0.31599 0.62665 0.0
C3196 C 0.6272 0.32932 0.604 0.0
H3197 H 0.60771 0.31736 0.66871 0.0
H3198 H 0.61129 0.29486 0.6258 0.0
C3199 C 0.63358 0.35668 0.60576 0.0
C3200 C 0.2106 0.44489 0.20574 0.0
C3201 C 0.19032 0.45866 0.22079 0.0
H3202 H 0.24994 0.4471 0.18748 0.0
C3203 C 0.19695 0.48233 0.2343 0.0
H3204 H 0.20647 0.4261 0.19584 0.0
C3205 C 0.2221 0.4935 0.23049 0.0
C3206 C 0.2409 0.48167 0.21261 0.0
H3207 H 0.18203 0.4937 0.24595 0.0
H3208 H 0.2255 0.51324 0.23884 0.0
C3209 C 0.23581 0.4564 0.2016 0.0
C3210 C 0.35012 0.4708 0.9491 0.0
C3211 C 0.32189 0.47291 0.95214 0.0
H3212 H 0.38495 0.44423 0.94552 0.0
C3213 C 0.30732 0.44933 0.95667 0.0
H3214 H 0.36188 0.48864 0.94564 0.0
C3215 C 0.32016 0.42398 0.955 0.0
C3216 C 0.34811 0.4216 0.94991 0.0
H3217 H 0.28551 0.45028 0.95934 0.0
H3218 H 0.30775 0.40637 0.95635 0.0
C3219 C 0.36318 0.4453 0.94826 0.0
C3220 C 0.36883 0.62576 0.70948 0.0
C3221 C 0.39432 0.61253 0.71361 0.0
H3222 H 0.32672 0.62138 0.70038 0.0
C3223 C 0.39578 0.58411 0.71534 0.0
H3224 H 0.36678 0.64765 0.70882 0.0
C3225 C 0.37278 0.56928 0.71166 0.0
C3226 C 0.34781 0.58238 0.70533 0.0
H3227 H 0.41493 0.57304 0.71813 0.0
H3228 H 0.37502 0.54736 0.71217 0.0
C3229 C 0.34575 0.61077 0.70517 0.0
C3230 C 0.2039 0.62472 0.45065 0.0
C3231 C 0.21899 0.64606 0.46079 0.0
H3232 H 0.20484 0.58333 0.43812 0.0
C3233 C 0.24485 0.6402 0.47167 0.0
H3234 H 0.18345 0.62833 0.44324 0.0
C3235 C 0.25629 0.61424 0.47021 0.0
C3236 C 0.24255 0.59388 0.45698 0.0
H3237 H 0.25717 0.65594 0.47966 0.0
H3238 H 0.27702 0.61079 0.47707 0.0
C3239 C 0.21573 0.59875 0.44851 0.0
C3240 C 0.19305 0.58738 0.35057 0.0
C3241 C 0.18743 0.61309 0.36122 0.0
H3242 H 0.22098 0.55371 0.34884 0.0
C3243 C 0.2083 0.62686 0.37399 0.0
H3244 H 0.17752 0.57615 0.34067 0.0
C3245 C 0.23335 0.61374 0.37892 0.0
C3246 C 0.2376 0.58691 0.37085 0.0
H3247 H 0.20475 0.64713 0.38151 0.0
H3248 H 0.24818 0.62351 0.39126 0.0
C3249 C 0.21804 0.57452 0.35514 0.0
C3250 C 0.25006 0.42377 0.11891 0.0
C3251 C 0.22271 0.42067 0.12562 0.0
H3252 H 0.2829 0.45036 0.11576 0.0
C3253 C 0.2066 0.44384 0.13188 0.0
H3254 H 0.2632 0.40651 0.11407 0.0
C3255 C 0.21821 0.46919 0.13358 0.0
C3256 C 0.246 0.47168 0.12863 0.0
H3257 H 0.1852 0.4423 0.13615 0.0
H3258 H 0.20589 0.48633 0.14041 0.0
C3259 C 0.26142 0.44902 0.11996 0.0
C3260 C 0.33112 0.45882 0.87921 0.0
C3261 C 0.32438 0.48442 0.86813 0.0
H3262 H 0.36221 0.42773 0.88343 0.0
C3263 C 0.34072 0.49552 0.84794 0.0
H3264 H 0.31872 0.45003 0.89491 0.0
C3265 C 0.36555 0.48321 0.84173 0.0
C3266 C 0.37427 0.45961 0.85575 0.0
H3267 H 0.33597 0.51547 0.83955 0.0
H3268 H 0.37901 0.49379 0.82821 0.0
C3269 C 0.35617 0.44644 0.87308 0.0
C3270 C 0.37939 0.61315 0.6192 0.0
C3271 C 0.3653 0.63578 0.60744 0.0
H3272 H 0.37617 0.57343 0.63706 0.0
C3273 C 0.33827 0.63299 0.59925 0.0
H3274 H 0.40053 0.6141 0.62485 0.0
C3275 C 0.32498 0.60933 0.605 0.0
C3276 C 0.33806 0.58822 0.61978 0.0
H3277 H 0.32641 0.64969 0.59037 0.0
H3278 H 0.3036 0.6086 0.6001 0.0
C3279 C 0.36573 0.58954 0.6256 0.0
C3280 C 0.21723 0.17847 0.50472 0.0
C3281 C 0.20822 0.17578 0.47801 0.0
H3282 H 0.22202 0.20466 0.53797 0.0
C3283 C 0.19943 0.19912 0.46327 0.0
H3284 H 0.22396 0.16104 0.51683 0.0
C3285 C 0.19779 0.22428 0.47573 0.0
C3286 C 0.20515 0.22638 0.50297 0.0
H3287 H 0.19312 0.19787 0.44237 0.0
H3288 H 0.18901 0.24156 0.46465 0.0
C3289 C 0.21613 0.20356 0.5169 0.0
C3290 C 0.70136 0.33626 0.62151 0.0
C3291 C 0.71152 0.3314 0.59555 0.0
H3292 H 0.69751 0.36485 0.65347 0.0
C3293 C 0.72933 0.34954 0.58356 0.0
H3294 H 0.68724 0.32264 0.63085 0.0
C3295 C 0.73477 0.37368 0.59608 0.0
C3296 C 0.72244 0.38001 0.62081 0.0
H3297 H 0.73704 0.34623 0.56334 0.0
H3298 H 0.74688 0.38823 0.58534 0.0
C3299 C 0.70674 0.3606 0.63408 0.0
C3300 C 0.49574 0.94711 0.35998 0.0
C3301 C 0.495 0.95003 0.33178 0.0
H3302 H 0.47368 0.95179 0.39686 0.0
C3303 C 0.47273 0.96343 0.31924 0.0
H3304 H 0.51286 0.93697 0.37004 0.0
C3305 C 0.45012 0.97096 0.33421 0.0
C3306 C 0.44956 0.96584 0.36221 0.0
H3307 H 0.47193 0.96637 0.29748 0.0
H3308 H 0.43246 0.97891 0.32333 0.0
C3309 C 0.47314 0.95517 0.37518 0.0
C3310 C 0.85608 0.68887 0.08686 0.0
C3311 C 0.8634 0.68517 0.11417 0.0
H3312 H 0.8552 0.71515 0.05242 0.0
C3313 C 0.87189 0.70771 0.12874 0.0
H3314 H 0.84961 0.67231 0.07466 0.0
C3315 C 0.87617 0.73235 0.11539 0.0
C3316 C 0.87145 0.73476 0.08752 0.0
H3317 H 0.8767 0.70598 0.15007 0.0
H3318 H 0.88526 0.74856 0.12634 0.0
C3319 C 0.85955 0.71355 0.07389 0.0
C3320 C 0.59469 0.61661 0.35886 0.0
C3321 C 0.59183 0.60829 0.33211 0.0
H3322 H 0.62229 0.6238 0.39101 0.0
C3323 C 0.61396 0.59585 0.31893 0.0
H3324 H 0.57777 0.62605 0.3695 0.0
C3325 C 0.63959 0.59605 0.33037 0.0
C3326 C 0.6434 0.60743 0.35591 0.0
H3327 H 0.6121 0.58899 0.29832 0.0
H3328 H 0.65647 0.58918 0.31803 0.0
C3329 C 0.62038 0.61607 0.37077 0.0
C3330 C 0.35651 0.85698 1.00974 0.0
C3331 C 0.37033 0.83541 0.99712 0.0
H3332 H 0.34448 0.89844 1.00774 0.0
C3333 C 0.37655 0.83732 0.96957 0.0
H3334 H 0.35119 0.85574 1.03097 0.0
C3335 C 0.37182 0.86187 0.95566 0.0
C3336 C 0.36136 0.88476 0.96939 0.0
H3337 H 0.38719 0.8208 0.95948 0.0
H3338 H 0.37781 0.86324 0.93465 0.0
C3339 C 0.3525 0.88156 0.99621 0.0
C3340 C 0.44395 0.1007 0.24033 0.0
C3341 C 0.43851 0.11227 0.21466 0.0
H3342 H 0.47248 0.09446 0.27228 0.0
C3343 C 0.45995 0.12373 0.20004 0.0
H3344 H 0.42818 0.09197 0.25253 0.0
C3345 C 0.48549 0.12585 0.21197 0.0
C3346 C 0.4899 0.11611 0.23841 0.0
H3347 H 0.45678 0.13203 0.17986 0.0
H3348 H 0.50091 0.13701 0.20144 0.0
C3349 C 0.46948 0.10213 0.25179 0.0
C3350 C 0.11464 0.95353 0.69618 0.0
C3351 C 0.13479 0.96779 0.70954 0.0
H3352 H 0.07627 0.93462 0.6999 0.0
C3353 C 0.12922 0.97859 0.73506 0.0
H3354 H 0.11817 0.94564 0.67617 0.0
C3355 C 0.10516 0.97303 0.74808 0.0
C3356 C 0.08636 0.95638 0.73596 0.0
H3357 H 0.14428 0.98952 0.746 0.0
H3358 H 0.10242 0.97961 0.76871 0.0
C3359 C 0.09044 0.94779 0.7094 0.0
loop_
_geom_bond_atom_site_label_1
_geom_bond_atom_site_label_2
_geom_bond_distance
_geom_bond_site_symmetry_2
_ccdc_geom_bond_type
Eu0 C9 2.828 . S
Eu0 O11 2.392 . S
Eu0 O13 2.418 . S
Eu0 O18 2.373 . S
Eu0 O21 2.488 . S
Eu0 O22 2.471 . S
Eu0 O23 2.349 . S
Eu1 O10 2.373 1_455 S
Eu1 O14 2.488 1_455 S
Eu1 O15 2.471 1_455 S
Eu1 O16 2.349 . S
Eu1 O19 2.392 . S
Eu1 O20 2.418 1_455 S
Eu1 C30 2.828 1_455 S
C2 O20 1.234 1_455 S
C2 O23 1.278 . S
C3 C4 1.379 . S
C3 C7 1.373 . S
C3 C9 1.505 . S
C4 C3 1.379 . S
C4 C6 1.369 . S
C4 H32 0.930 . S
C5 C7 1.383 . S
C5 C8 1.382 . S
C5 H33 0.930 . S
C6 C4 1.369 . S
C6 C8 1.392 . S
C6 H34 0.930 . S
C7 C3 1.373 . S
C7 C5 1.383 . S
C7 H35 0.931 . S
C8 C5 1.382 . S
C8 C6 1.392 . S
C9 Eu0 2.828 . S
C9 C3 1.505 . S
C9 O21 1.249 . S
C9 O22 1.244 . S
O10 Eu1 2.373 1_655 S
O10 C12 1.258 . S
O11 Eu0 2.392 . S
O11 C12 1.242 1_455 S
C12 O10 1.258 . S
C12 O11 1.242 1_655 S
O13 Eu0 2.418 . S
O13 C17 1.244 . S
O14 Eu1 2.488 1_655 S
O14 C30 1.249 . S
O15 Eu1 2.471 1_655 S
O15 C30 1.244 . S
O16 Eu1 2.349 . S
O16 C17 1.265 . S
C17 O13 1.244 . S
C17 O16 1.265 . S
O18 Eu0 2.373 . S
O18 C31 1.258 . S
O19 Eu1 2.392 . S
O19 C31 1.242 . S
O20 Eu1 2.418 1_655 S
O20 C2 1.234 1_655 S
O21 Eu0 2.488 . S
O21 C9 1.249 . S
O22 Eu0 2.471 . S
O22 C9 1.244 . S
O23 Eu0 2.349 . S
O23 C2 1.278 . S
C24 C25 1.379 . S
C24 C28 1.373 . S
C24 C30 1.505 . S
C25 C24 1.379 . S
C25 C27 1.369 . S
C25 H36 0.930 . S
C26 C28 1.383 . S
C26 C29 1.382 . S
C26 H37 0.930 . S
C27 C25 1.369 . S
C27 C29 1.392 . S
C27 H38 0.930 . S
C28 C24 1.373 . S
C28 C26 1.383 . S
C28 H39 0.931 . S
C29 C26 1.382 . S
C29 C27 1.392 . S
C30 Eu1 2.828 1_655 S
C30 O14 1.249 . S
C30 O15 1.244 . S
C30 C24 1.505 . S
C31 O18 1.258 . S
C31 O19 1.242 . S
H32 C4 0.930 . S
H33 C5 0.930 . S
H34 C6 0.930 . S
H35 C7 0.931 . S
H36 C25 0.930 . S
H37 C26 0.930 . S
H38 C27 0.930 . S
H39 C28 0.931 . S
Eu40 C49 2.828 . S
Eu40 O51 2.392 . S
Eu40 O53 2.418 . S
Eu40 O58 2.373 . S
Eu40 O61 2.488 . S
Eu40 O62 2.471 . S
Eu40 O63 2.349 . S
Eu41 O50 2.373 . S
Eu41 O54 2.488 . S
Eu41 O55 2.471 . S
Eu41 O56 2.349 . S
Eu41 O59 2.392 . S
Eu41 O60 2.418 . S
Eu41 C70 2.828 . S
C42 O60 1.244 . S
C42 O63 1.265 . S
C43 C44 1.379 . S
C43 C47 1.373 . S
C43 C49 1.505 . S
C44 C43 1.379 . S
C44 C46 1.369 . S
C44 H72 0.930 . S
C45 C47 1.383 . S
C45 C48 1.382 . S
C45 H73 0.930 . S
C46 C44 1.369 . S
C46 C48 1.392 . S
C46 H74 0.930 . S
C47 C43 1.373 . S
C47 C45 1.383 . S
C47 H75 0.931 . S
C48 C45 1.382 . S
C48 C46 1.392 . S
C49 Eu40 2.828 . S
C49 C43 1.505 . S
C49 O61 1.249 . S
C49 O62 1.244 . S
O50 Eu41 2.373 . S
O50 C52 1.258 . S
O51 Eu40 2.392 . S
O51 C52 1.242 . S
C52 O50 1.258 . S
C52 O51 1.242 . S
O53 Eu40 2.418 . S
O53 C57 1.244 . S
O54 Eu41 2.488 . S
O54 C70 1.249 . S
O55 Eu41 2.471 . S
O55 C70 1.244 . S
O56 Eu41 2.349 . S
O56 C57 1.265 . S
C57 O53 1.244 . S
C57 O56 1.265 . S
O58 Eu40 2.373 . S
O58 C71 1.258 . S
O59 Eu41 2.392 . S
O59 C71 1.242 . S
O60 Eu41 2.418 . S
O60 C42 1.244 . S
O61 Eu40 2.488 . S
O61 C49 1.249 . S
O62 Eu40 2.471 . S
O62 C49 1.244 . S
O63 Eu40 2.349 . S
O63 C42 1.265 . S
C64 C65 1.379 . S
C64 C68 1.373 . S
C64 C70 1.505 . S
C65 C64 1.379 . S
C65 C67 1.369 . S
C65 H76 0.930 . S
C66 C68 1.383 . S
C66 C69 1.382 . S
C66 H77 0.930 . S
C67 C65 1.369 . S
C67 C69 1.392 . S
C67 H78 0.930 . S
C68 C64 1.373 . S
C68 C66 1.383 . S
C68 H79 0.931 . S
C69 C66 1.382 . S
C69 C67 1.392 . S
C70 Eu41 2.828 . S
C70 O54 1.249 . S
C70 O55 1.244 . S
C70 C64 1.505 . S
C71 O58 1.258 . S
C71 O59 1.242 . S
H72 C44 0.930 . S
H73 C45 0.930 . S
H74 C46 0.930 . S
H75 C47 0.931 . S
H76 C65 0.930 . S
H77 C66 0.930 . S
H78 C67 0.930 . S
H79 C68 0.931 . S
Eu80 C89 2.828 . S
Eu80 O91 2.392 . S
Eu80 O93 2.418 . S
Eu80 O98 2.373 . S
Eu80 O101 2.488 . S
Eu80 O102 2.471 . S
Eu80 O103 2.349 . S
Eu81 O90 2.373 . S
Eu81 O94 2.488 . S
Eu81 O95 2.471 . S
Eu81 O96 2.349 . S
Eu81 O99 2.392 . S
Eu81 O100 2.418 . S
Eu81 C110 2.828 . S
C82 O100 1.244 . S
C82 O103 1.265 . S
C83 C84 1.379 . S
C83 C87 1.373 . S
C83 C89 1.505 . S
C84 C83 1.379 . S
C84 C86 1.369 . S
C84 H112 0.930 . S
C85 C87 1.383 . S
C85 C88 1.382 . S
C85 H113 0.930 . S
C86 C84 1.369 . S
C86 C88 1.392 . S
C86 H114 0.930 . S
C87 C83 1.373 . S
C87 C85 1.383 . S
C87 H115 0.931 . S
C88 C85 1.382 . S
C88 C86 1.392 . S
C89 Eu80 2.828 . S
C89 C83 1.505 . S
C89 O101 1.249 . S
C89 O102 1.244 . S
O90 Eu81 2.373 . S
O90 C92 1.258 . S
O91 Eu80 2.392 . S
O91 C92 1.242 . S
C92 O90 1.258 . S
C92 O91 1.242 . S
O93 Eu80 2.418 . S
O93 C97 1.244 . S
O94 Eu81 2.488 . S
O94 C110 1.249 . S
O95 Eu81 2.471 . S
O95 C110 1.244 . S
O96 Eu81 2.349 . S
O96 C97 1.265 . S
C97 O93 1.244 . S
C97 O96 1.265 . S
O98 Eu80 2.373 . S
O98 C111 1.258 . S
O99 Eu81 2.392 . S
O99 C111 1.242 . S
O100 Eu81 2.418 . S
O100 C82 1.244 . S
O101 Eu80 2.488 . S
O101 C89 1.249 . S
O102 Eu80 2.471 . S
O102 C89 1.244 . S
O103 Eu80 2.349 . S
O103 C82 1.265 . S
C104 C105 1.379 . S
C104 C108 1.373 . S
C104 C110 1.505 . S
C105 C104 1.379 . S
C105 C107 1.369 . S
C105 H116 0.930 . S
C106 C108 1.383 . S
C106 C109 1.382 . S
C106 H117 0.930 . S
C107 C105 1.369 . S
C107 C109 1.392 . S
C107 H118 0.930 . S
C108 C104 1.373 . S
C108 C106 1.383 . S
C108 H119 0.931 . S
C109 C106 1.382 . S
C109 C107 1.392 . S
C110 Eu81 2.828 . S
C110 O94 1.249 . S
C110 O95 1.244 . S
C110 C104 1.505 . S
C111 O98 1.258 . S
C111 O99 1.242 . S
H112 C84 0.930 . S
H113 C85 0.930 . S
H114 C86 0.930 . S
H115 C87 0.931 . S
H116 C105 0.930 . S
H117 C106 0.930 . S
H118 C107 0.930 . S
H119 C108 0.931 . S
Eu120 C129 2.828 . S
Eu120 O131 2.392 1_554 S
Eu120 O133 2.418 . S
Eu120 O138 2.373 . S
Eu120 O141 2.488 . S
Eu120 O142 2.471 . S
Eu120 O143 2.349 . S
Eu121 O130 2.373 . S
Eu121 O134 2.488 . S
Eu121 O135 2.471 . S
Eu121 O136 2.349 1_556 S
Eu121 O139 2.392 1_556 S
Eu121 O140 2.418 . S
Eu121 C150 2.828 . S
C122 O140 1.244 . S
C122 O143 1.265 1_556 S
C123 C124 1.379 . S
C123 C127 1.373 . S
C123 C129 1.505 . S
C124 C123 1.379 . S
C124 C126 1.369 . S
C124 H152 0.930 . S
C125 C127 1.383 . S
C125 C128 1.382 . S
C125 H153 0.930 . S
C126 C124 1.369 . S
C126 C128 1.392 . S
C126 H154 0.930 . S
C127 C123 1.373 . S
C127 C125 1.383 . S
C127 H155 0.931 . S
C128 C125 1.382 . S
C128 C126 1.392 . S
C129 Eu120 2.828 . S
C129 C123 1.505 . S
C129 O141 1.249 . S
C129 O142 1.244 . S
O130 Eu121 2.373 . S
O130 C132 1.258 . S
O131 Eu120 2.392 1_556 S
O131 C132 1.242 . S
C132 O130 1.258 . S
C132 O131 1.242 . S
O133 Eu120 2.418 . S
O133 C137 1.244 . S
O134 Eu121 2.488 . S
O134 C150 1.249 . S
O135 Eu121 2.471 . S
O135 C150 1.244 . S
O136 Eu121 2.349 1_554 S
O136 C137 1.265 . S
C137 O133 1.244 . S
C137 O136 1.265 . S
O138 Eu120 2.373 . S
O138 C151 1.258 . S
O139 Eu121 2.392 1_554 S
O139 C151 1.242 . S
O140 Eu121 2.418 . S
O140 C122 1.244 . S
O141 Eu120 2.488 . S
O141 C129 1.249 . S
O142 Eu120 2.471 . S
O142 C129 1.244 . S
O143 Eu120 2.349 . S
O143 C122 1.265 1_554 S
C144 C145 1.379 . S
C144 C148 1.373 . S
C144 C150 1.505 . S
C145 C144 1.379 . S
C145 C147 1.369 . S
C145 H156 0.930 . S
C146 C148 1.383 . S
C146 C149 1.382 . S
C146 H157 0.930 . S
C147 C145 1.369 . S
C147 C149 1.392 . S
C147 H158 0.930 . S
C148 C144 1.373 . S
C148 C146 1.383 . S
C148 H159 0.931 . S
C149 C146 1.382 . S
C149 C147 1.392 . S
C150 Eu121 2.828 . S
C150 O134 1.249 . S
C150 O135 1.244 . S
C150 C144 1.505 . S
C151 O138 1.258 . S
C151 O139 1.242 . S
H152 C124 0.930 . S
H153 C125 0.930 . S
H154 C126 0.930 . S
H155 C127 0.931 . S
H156 C145 0.930 . S
H157 C146 0.930 . S
H158 C147 0.930 . S
H159 C148 0.931 . S
Eu160 C169 2.828 . S
Eu160 O171 2.392 . S
Eu160 O173 2.418 1_655 S
Eu160 O178 2.373 1_655 S
Eu160 O181 2.488 . S
Eu160 O182 2.471 . S
Eu160 O183 2.349 . S
Eu161 O170 2.373 . S
Eu161 O174 2.488 . S
Eu161 O175 2.471 . S
Eu161 O176 2.349 . S
Eu161 O179 2.392 . S
Eu161 O180 2.418 . S
Eu161 C190 2.828 . S
C162 O180 1.244 1_655 S
C162 O183 1.265 . S
C163 C164 1.379 . S
C163 C167 1.373 . S
C163 C169 1.505 . S
C164 C163 1.379 . S
C164 C166 1.369 . S
C164 H192 0.930 . S
C165 C167 1.383 . S
C165 C168 1.382 . S
C165 H193 0.930 . S
C166 C164 1.369 . S
C166 C168 1.392 . S
C166 H194 0.930 . S
C167 C163 1.373 . S
C167 C165 1.383 . S
C167 H195 0.931 . S
C168 C165 1.382 . S
C168 C166 1.392 . S
C169 Eu160 2.828 . S
C169 C163 1.505 . S
C169 O181 1.249 . S
C169 O182 1.244 . S
O170 Eu161 2.373 . S
O170 C172 1.258 . S
O171 Eu160 2.392 . S
O171 C172 1.242 1_655 S
C172 O170 1.258 . S
C172 O171 1.242 1_455 S
O173 Eu160 2.418 1_455 S
O173 C177 1.244 . S
O174 Eu161 2.488 . S
O174 C190 1.249 . S
O175 Eu161 2.471 . S
O175 C190 1.244 . S
O176 Eu161 2.349 . S
O176 C177 1.265 . S
C177 O173 1.244 . S
C177 O176 1.265 . S
O178 Eu160 2.373 1_455 S
O178 C191 1.258 . S
O179 Eu161 2.392 . S
O179 C191 1.242 . S
O180 Eu161 2.418 . S
O180 C162 1.244 1_455 S
O181 Eu160 2.488 . S
O181 C169 1.249 . S
O182 Eu160 2.471 . S
O182 C169 1.244 . S
O183 Eu160 2.349 . S
O183 C162 1.265 . S
C184 C185 1.379 . S
C184 C188 1.373 . S
C184 C190 1.505 . S
C185 C184 1.379 . S
C185 C187 1.369 . S
C185 H196 0.930 . S
C186 C188 1.383 . S
C186 C189 1.382 . S
C186 H197 0.930 . S
C187 C185 1.369 . S
C187 C189 1.392 . S
C187 H198 0.930 . S
C188 C184 1.373 . S
C188 C186 1.383 . S
C188 H199 0.931 . S
C189 C186 1.382 . S
C189 C187 1.392 . S
C190 Eu161 2.828 . S
C190 O174 1.249 . S
C190 O175 1.244 . S
C190 C184 1.505 . S
C191 O178 1.258 . S
C191 O179 1.242 . S
H192 C164 0.930 . S
H193 C165 0.930 . S
H194 C166 0.930 . S
H195 C167 0.931 . S
H196 C185 0.930 . S
H197 C186 0.930 . S
H198 C187 0.930 . S
H199 C188 0.931 . S
Eu200 C209 2.828 . S
Eu200 O211 2.392 . S
Eu200 O213 2.418 . S
Eu200 O218 2.373 . S
Eu200 O221 2.488 . S
Eu200 O222 2.471 . S
Eu200 O223 2.349 . S
Eu201 O210 2.373 . S
Eu201 O214 2.488 . S
Eu201 O215 2.471 . S
Eu201 O216 2.349 . S
Eu201 O219 2.392 . S
Eu201 O220 2.418 . S
Eu201 C230 2.828 . S
C202 O220 1.244 . S
C202 O223 1.265 . S
C203 C204 1.379 . S
C203 C207 1.373 . S
C203 C209 1.505 . S
C204 C203 1.379 . S
C204 C206 1.369 . S
C204 H232 0.930 . S
C205 C207 1.383 . S
C205 C208 1.382 . S
C205 H233 0.930 . S
C206 C204 1.369 . S
C206 C208 1.392 . S
C206 H234 0.930 . S
C207 C203 1.373 . S
C207 C205 1.383 . S
C207 H235 0.931 . S
C208 C205 1.382 . S
C208 C206 1.392 . S
C209 Eu200 2.828 . S
C209 C203 1.505 . S
C209 O221 1.249 . S
C209 O222 1.244 . S
O210 Eu201 2.373 . S
O210 C212 1.258 . S
O211 Eu200 2.392 . S
O211 C212 1.242 . S
C212 O210 1.258 . S
C212 O211 1.242 . S
O213 Eu200 2.418 . S
O213 C217 1.244 . S
O214 Eu201 2.488 . S
O214 C230 1.249 . S
O215 Eu201 2.471 . S
O215 C230 1.244 . S
O216 Eu201 2.349 . S
O216 C217 1.265 . S
C217 O213 1.244 . S
C217 O216 1.265 . S
O218 Eu200 2.373 . S
O218 C231 1.258 . S
O219 Eu201 2.392 . S
O219 C231 1.242 . S
O220 Eu201 2.418 . S
O220 C202 1.244 . S
O221 Eu200 2.488 . S
O221 C209 1.249 . S
O222 Eu200 2.471 . S
O222 C209 1.244 . S
O223 Eu200 2.349 . S
O223 C202 1.265 . S
C224 C225 1.379 . S
C224 C228 1.373 . S
C224 C230 1.505 . S
C225 C224 1.379 . S
C225 C227 1.369 . S
C225 H236 0.930 . S
C226 C228 1.383 . S
C226 C229 1.382 . S
C226 H237 0.930 . S
C227 C225 1.369 . S
C227 C229 1.392 . S
C227 H238 0.930 . S
C228 C224 1.373 . S
C228 C226 1.383 . S
C228 H239 0.931 . S
C229 C226 1.382 . S
C229 C227 1.392 . S
C230 Eu201 2.828 . S
C230 O214 1.249 . S
C230 O215 1.244 . S
C230 C224 1.505 . S
C231 O218 1.258 . S
C231 O219 1.242 . S
H232 C204 0.930 . S
H233 C205 0.930 . S
H234 C206 0.930 . S
H235 C207 0.931 . S
H236 C225 0.930 . S
H237 C226 0.930 . S
H238 C227 0.930 . S
H239 C228 0.931 . S
Eu240 C249 2.828 . S
Eu240 O251 2.392 . S
Eu240 O253 2.418 . S
Eu240 O258 2.373 . S
Eu240 O261 2.488 . S
Eu240 O262 2.471 . S
Eu240 O263 2.349 . S
Eu241 O250 2.373 . S
Eu241 O254 2.488 . S
Eu241 O255 2.471 . S
Eu241 O256 2.349 . S
Eu241 O259 2.392 . S
Eu241 O260 2.418 . S
Eu241 C270 2.828 . S
C242 O260 1.244 . S
C242 O263 1.265 . S
C243 C244 1.379 . S
C243 C247 1.373 . S
C243 C249 1.505 . S
C244 C243 1.379 . S
C244 C246 1.369 . S
C244 H272 0.930 . S
C245 C247 1.383 . S
C245 C248 1.382 . S
C245 H273 0.930 . S
C246 C244 1.369 . S
C246 C248 1.392 . S
C246 H274 0.930 . S
C247 C243 1.373 . S
C247 C245 1.383 . S
C247 H275 0.931 . S
C248 C245 1.382 . S
C248 C246 1.392 . S
C249 Eu240 2.828 . S
C249 C243 1.505 . S
C249 O261 1.249 . S
C249 O262 1.244 . S
O250 Eu241 2.373 . S
O250 C252 1.258 . S
O251 Eu240 2.392 . S
O251 C252 1.242 . S
C252 O250 1.258 . S
C252 O251 1.242 . S
O253 Eu240 2.418 . S
O253 C257 1.244 . S
O254 Eu241 2.488 . S
O254 C270 1.249 . S
O255 Eu241 2.471 . S
O255 C270 1.244 . S
O256 Eu241 2.349 . S
O256 C257 1.265 . S
C257 O253 1.244 . S
C257 O256 1.265 . S
O258 Eu240 2.373 . S
O258 C271 1.258 . S
O259 Eu241 2.392 . S
O259 C271 1.242 . S
O260 Eu241 2.418 . S
O260 C242 1.244 . S
O261 Eu240 2.488 . S
O261 C249 1.249 . S
O262 Eu240 2.471 . S
O262 C249 1.244 . S
O263 Eu240 2.349 . S
O263 C242 1.265 . S
C264 C265 1.379 . S
C264 C268 1.373 . S
C264 C270 1.505 . S
C265 C264 1.379 . S
C265 C267 1.369 . S
C265 H276 0.930 . S
C266 C268 1.383 . S
C266 C269 1.382 . S
C266 H277 0.930 . S
C267 C265 1.369 . S
C267 C269 1.392 . S
C267 H278 0.930 . S
C268 C264 1.373 . S
C268 C266 1.383 . S
C268 H279 0.931 . S
C269 C266 1.382 . S
C269 C267 1.392 . S
C270 Eu241 2.828 . S
C270 O254 1.249 . S
C270 O255 1.244 . S
C270 C264 1.505 . S
C271 O258 1.258 . S
C271 O259 1.242 . S
H272 C244 0.930 . S
H273 C245 0.930 . S
H274 C246 0.930 . S
H275 C247 0.931 . S
H276 C265 0.930 . S
H277 C266 0.930 . S
H278 C267 0.930 . S
H279 C268 0.931 . S
Eu280 C289 2.828 . S
Eu280 O291 2.392 . S
Eu280 O293 2.418 1_554 S
Eu280 O298 2.373 1_554 S
Eu280 O301 2.488 . S
Eu280 O302 2.471 . S
Eu280 O303 2.349 . S
Eu281 O290 2.373 . S
Eu281 O294 2.488 . S
Eu281 O295 2.471 . S
Eu281 O296 2.349 . S
Eu281 O299 2.392 . S
Eu281 O300 2.418 . S
Eu281 C310 2.828 . S
C282 O300 1.244 1_554 S
C282 O303 1.265 . S
C283 C284 1.379 . S
C283 C287 1.373 . S
C283 C289 1.505 . S
C284 C283 1.379 . S
C284 C286 1.369 . S
C284 H312 0.930 . S
C285 C287 1.383 . S
C285 C288 1.382 . S
C285 H313 0.930 . S
C286 C284 1.369 . S
C286 C288 1.392 . S
C286 H314 0.930 . S
C287 C283 1.373 . S
C287 C285 1.383 . S
C287 H315 0.931 . S
C288 C285 1.382 . S
C288 C286 1.392 . S
C289 Eu280 2.828 . S
C289 C283 1.505 . S
C289 O301 1.249 . S
C289 O302 1.244 . S
O290 Eu281 2.373 . S
O290 C292 1.258 . S
O291 Eu280 2.392 . S
O291 C292 1.242 1_554 S
C292 O290 1.258 . S
C292 O291 1.242 1_556 S
O293 Eu280 2.418 1_556 S
O293 C297 1.244 . S
O294 Eu281 2.488 . S
O294 C310 1.249 . S
O295 Eu281 2.471 . S
O295 C310 1.244 . S
O296 Eu281 2.349 . S
O296 C297 1.265 . S
C297 O293 1.244 . S
C297 O296 1.265 . S
O298 Eu280 2.373 1_556 S
O298 C311 1.258 . S
O299 Eu281 2.392 . S
O299 C311 1.242 . S
O300 Eu281 2.418 . S
O300 C282 1.244 1_556 S
O301 Eu280 2.488 . S
O301 C289 1.249 . S
O302 Eu280 2.471 . S
O302 C289 1.244 . S
O303 Eu280 2.349 . S
O303 C282 1.265 . S
C304 C305 1.379 . S
C304 C308 1.373 . S
C304 C310 1.505 . S
C305 C304 1.379 . S
C305 C307 1.369 . S
C305 H316 0.930 . S
C306 C308 1.383 . S
C306 C309 1.382 . S
C306 H317 0.930 . S
C307 C305 1.369 . S
C307 C309 1.392 . S
C307 H318 0.930 . S
C308 C304 1.373 . S
C308 C306 1.383 . S
C308 H319 0.931 . S
C309 C306 1.382 . S
C309 C307 1.392 . S
C310 Eu281 2.828 . S
C310 O294 1.249 . S
C310 O295 1.244 . S
C310 C304 1.505 . S
C311 O298 1.258 . S
C311 O299 1.242 . S
H312 C284 0.930 . S
H313 C285 0.930 . S
H314 C286 0.930 . S
H315 C287 0.931 . S
H316 C305 0.930 . S
H317 C306 0.930 . S
H318 C307 0.930 . S
H319 C308 0.931 . S
Eu320 C329 2.828 . S
Eu320 O331 2.392 . S
Eu320 O333 2.418 . S
Eu320 O338 2.373 . S
Eu320 O341 2.488 . S
Eu320 O342 2.471 . S
Eu320 O343 2.349 . S
Eu321 O330 2.373 . S
Eu321 O334 2.488 . S
Eu321 O335 2.471 . S
Eu321 O336 2.349 1_565 S
Eu321 O339 2.392 1_565 S
Eu321 O340 2.418 . S
Eu321 C350 2.828 . S
C322 O340 1.244 . S
C322 O343 1.265 1_565 S
C323 C324 1.379 . S
C323 C327 1.373 . S
C323 C329 1.505 . S
C324 C323 1.379 . S
C324 C326 1.369 . S
C324 H352 0.930 . S
C325 C327 1.383 . S
C325 C328 1.382 . S
C325 H353 0.930 . S
C326 C324 1.369 . S
C326 C328 1.392 . S
C326 H354 0.930 . S
C327 C323 1.373 . S
C327 C325 1.383 . S
C327 H355 0.931 . S
C328 C325 1.382 . S
C328 C326 1.392 . S
C329 Eu320 2.828 . S
C329 C323 1.505 . S
C329 O341 1.249 . S
C329 O342 1.244 . S
O330 Eu321 2.373 . S
O330 C332 1.258 . S
O331 Eu320 2.392 . S
O331 C332 1.242 1_545 S
C332 O330 1.258 . S
C332 O331 1.242 1_565 S
O333 Eu320 2.418 . S
O333 C337 1.244 . S
O334 Eu321 2.488 . S
O334 C350 1.249 . S
O335 Eu321 2.471 . S
O335 C350 1.244 . S
O336 Eu321 2.349 1_545 S
O336 C337 1.265 . S
C337 O333 1.244 . S
C337 O336 1.265 . S
O338 Eu320 2.373 . S
O338 C351 1.258 . S
O339 Eu321 2.392 1_545 S
O339 C351 1.242 . S
O340 Eu321 2.418 . S
O340 C322 1.244 . S
O341 Eu320 2.488 . S
O341 C329 1.249 . S
O342 Eu320 2.471 . S
O342 C329 1.244 . S
O343 Eu320 2.349 . S
O343 C322 1.265 1_545 S
C344 C345 1.379 . S
C344 C348 1.373 . S
C344 C350 1.505 . S
C345 C344 1.379 . S
C345 C347 1.369 . S
C345 H356 0.930 . S
C346 C348 1.383 . S
C346 C349 1.382 . S
C346 H357 0.930 . S
C347 C345 1.369 . S
C347 C349 1.392 . S
C347 H358 0.930 . S
C348 C344 1.373 . S
C348 C346 1.383 . S
C348 H359 0.931 . S
C349 C346 1.382 . S
C349 C347 1.392 . S
C350 Eu321 2.828 . S
C350 O334 1.249 . S
C350 O335 1.244 . S
C350 C344 1.505 . S
C351 O338 1.258 . S
C351 O339 1.242 . S
H352 C324 0.930 . S
H353 C325 0.930 . S
H354 C326 0.930 . S
H355 C327 0.931 . S
H356 C345 0.930 . S
H357 C346 0.930 . S
H358 C347 0.930 . S
H359 C348 0.931 . S
Eu360 C369 2.828 . S
Eu360 O371 2.392 . S
Eu360 O373 2.418 1_565 S
Eu360 O378 2.373 1_565 S
Eu360 O381 2.488 . S
Eu360 O382 2.471 . S
Eu360 O383 2.349 . S
Eu361 O370 2.373 . S
Eu361 O374 2.488 . S
Eu361 O375 2.471 . S
Eu361 O376 2.349 . S
Eu361 O379 2.392 . S
Eu361 O380 2.418 . S
Eu361 C390 2.828 . S
C362 O380 1.244 1_565 S
C362 O383 1.265 . S
C363 C364 1.379 . S
C363 C367 1.373 . S
C363 C369 1.505 . S
C364 C363 1.379 . S
C364 C366 1.369 . S
C364 H392 0.930 . S
C365 C367 1.383 . S
C365 C368 1.382 . S
C365 H393 0.930 . S
C366 C364 1.369 . S
C366 C368 1.392 . S
C366 H394 0.930 . S
C367 C363 1.373 . S
C367 C365 1.383 . S
C367 H395 0.931 . S
C368 C365 1.382 . S
C368 C366 1.392 . S
C369 Eu360 2.828 . S
C369 C363 1.505 . S
C369 O381 1.249 . S
C369 O382 1.244 . S
O370 Eu361 2.373 . S
O370 C372 1.258 1_545 S
O371 Eu360 2.392 . S
O371 C372 1.242 . S
C372 O370 1.258 1_565 S
C372 O371 1.242 . S
O373 Eu360 2.418 1_545 S
O373 C377 1.244 . S
O374 Eu361 2.488 . S
O374 C390 1.249 . S
O375 Eu361 2.471 . S
O375 C390 1.244 . S
O376 Eu361 2.349 . S
O376 C377 1.265 . S
C377 O373 1.244 . S
C377 O376 1.265 . S
O378 Eu360 2.373 1_545 S
O378 C391 1.258 . S
O379 Eu361 2.392 . S
O379 C391 1.242 . S
O380 Eu361 2.418 . S
O380 C362 1.244 1_545 S
O381 Eu360 2.488 . S
O381 C369 1.249 . S
O382 Eu360 2.471 . S
O382 C369 1.244 . S
O383 Eu360 2.349 . S
O383 C362 1.265 . S
C384 C385 1.379 . S
C384 C388 1.373 . S
C384 C390 1.505 . S
C385 C384 1.379 . S
C385 C387 1.369 . S
C385 H396 0.930 . S
C386 C388 1.383 . S
C386 C389 1.382 . S
C386 H397 0.930 . S
C387 C385 1.369 . S
C387 C389 1.392 . S
C387 H398 0.930 . S
C388 C384 1.373 . S
C388 C386 1.383 . S
C388 H399 0.931 . S
C389 C386 1.382 . S
C389 C387 1.392 . S
C390 Eu361 2.828 . S
C390 O374 1.249 . S
C390 O375 1.244 . S
C390 C384 1.505 . S
C391 O378 1.258 . S
C391 O379 1.242 . S
H392 C364 0.930 . S
H393 C365 0.930 . S
H394 C366 0.930 . S
H395 C367 0.931 . S
H396 C385 0.930 . S
H397 C386 0.930 . S
H398 C387 0.930 . S
H399 C388 0.931 . S
Eu400 C409 2.828 . S
Eu400 O411 2.392 . S
Eu400 O413 2.418 1_545 S
Eu400 O418 2.373 1_545 S
Eu400 O421 2.488 . S
Eu400 O422 2.471 . S
Eu400 O423 2.349 . S
Eu401 O410 2.373 . S
Eu401 O414 2.488 . S
Eu401 O415 2.471 . S
Eu401 O416 2.349 . S
Eu401 O419 2.392 . S
Eu401 O420 2.418 . S
Eu401 C430 2.828 . S
C402 O420 1.244 1_545 S
C402 O423 1.265 . S
C403 C404 1.379 . S
C403 C407 1.373 . S
C403 C409 1.505 . S
C404 C403 1.379 . S
C404 C406 1.369 . S
C404 H432 0.930 . S
C405 C407 1.383 . S
C405 C408 1.382 . S
C405 H433 0.930 . S
C406 C404 1.369 . S
C406 C408 1.392 . S
C406 H434 0.930 . S
C407 C403 1.373 . S
C407 C405 1.383 . S
C407 H435 0.931 . S
C408 C405 1.382 . S
C408 C406 1.392 . S
C409 Eu400 2.828 . S
C409 C403 1.505 . S
C409 O421 1.249 . S
C409 O422 1.244 . S
O410 Eu401 2.373 . S
O410 C412 1.258 . S
O411 Eu400 2.392 . S
O411 C412 1.242 1_545 S
C412 O410 1.258 . S
C412 O411 1.242 1_565 S
O413 Eu400 2.418 1_565 S
O413 C417 1.244 . S
O414 Eu401 2.488 . S
O414 C430 1.249 . S
O415 Eu401 2.471 . S
O415 C430 1.244 . S
O416 Eu401 2.349 . S
O416 C417 1.265 . S
C417 O413 1.244 . S
C417 O416 1.265 . S
O418 Eu400 2.373 1_565 S
O418 C431 1.258 . S
O419 Eu401 2.392 . S
O419 C431 1.242 . S
O420 Eu401 2.418 . S
O420 C402 1.244 1_565 S
O421 Eu400 2.488 . S
O421 C409 1.249 . S
O422 Eu400 2.471 . S
O422 C409 1.244 . S
O423 Eu400 2.349 . S
O423 C402 1.265 . S
C424 C425 1.379 . S
C424 C428 1.373 . S
C424 C430 1.505 . S
C425 C424 1.379 . S
C425 C427 1.369 . S
C425 H436 0.930 . S
C426 C428 1.383 . S
C426 C429 1.382 . S
C426 H437 0.930 . S
C427 C425 1.369 . S
C427 C429 1.392 . S
C427 H438 0.930 . S
C428 C424 1.373 . S
C428 C426 1.383 . S
C428 H439 0.931 . S
C429 C426 1.382 . S
C429 C427 1.392 . S
C430 Eu401 2.828 . S
C430 O414 1.249 . S
C430 O415 1.244 . S
C430 C424 1.505 . S
C431 O418 1.258 . S
C431 O419 1.242 . S
H432 C404 0.930 . S
H433 C405 0.930 . S
H434 C406 0.930 . S
H435 C407 0.931 . S
H436 C425 0.930 . S
H437 C426 0.930 . S
H438 C427 0.930 . S
H439 C428 0.931 . S
Eu440 C449 2.828 . S
Eu440 O451 2.427 . S
Eu440 O453 2.418 . S
Eu440 O458 2.373 . S
Eu440 O461 2.488 . S
Eu440 O462 2.471 . S
Eu440 O463 2.349 . S
Eu441 O450 2.373 . S
Eu441 O454 2.488 . S
Eu441 O455 2.471 . S
Eu441 O456 2.349 1_545 S
Eu441 O459 2.392 1_545 S
Eu441 O460 2.418 . S
Eu441 C470 2.828 . S
C442 O460 1.244 . S
C442 O463 1.265 1_545 S
C443 C444 1.379 . S
C443 C447 1.373 . S
C443 C449 1.505 . S
C444 C443 1.379 . S
C444 C446 1.369 . S
C444 H472 0.930 . S
C445 C447 1.383 . S
C445 C448 1.382 . S
C445 H473 0.930 . S
C446 C444 1.369 . S
C446 C448 1.392 . S
C446 H474 0.930 . S
C447 C443 1.373 . S
C447 C445 1.383 . S
C447 H475 0.931 . S
C448 C445 1.382 . S
C448 C446 1.392 . S
C449 Eu440 2.828 . S
C449 C443 1.505 . S
C449 O461 1.249 . S
C449 O462 1.244 . S
O450 Eu441 2.373 . S
O450 C452 1.258 . S
O451 Eu440 2.427 . S
O451 C452 1.204 1_565 S
C452 O450 1.258 . S
C452 O451 1.204 1_545 S
O453 Eu440 2.418 . S
O453 C457 1.244 . S
O454 Eu441 2.488 . S
O454 C470 1.249 . S
O455 Eu441 2.471 . S
O455 C470 1.244 . S
O456 Eu441 2.349 1_565 S
O456 C457 1.265 . S
C457 O453 1.244 . S
C457 O456 1.265 . S
O458 Eu440 2.373 . S
O458 C471 1.258 . S
O459 Eu441 2.392 1_565 S
O459 C471 1.242 . S
O460 Eu441 2.418 . S
O460 C442 1.244 . S
O461 Eu440 2.488 . S
O461 C449 1.249 . S
O462 Eu440 2.471 . S
O462 C449 1.244 . S
O463 Eu440 2.349 . S
O463 C442 1.265 1_565 S
C464 C465 1.379 . S
C464 C468 1.373 . S
C464 C470 1.505 . S
C465 C464 1.379 . S
C465 C467 1.369 . S
C465 H476 0.930 . S
C466 C468 1.383 . S
C466 C469 1.382 . S
C466 H477 0.930 . S
C467 C465 1.369 . S
C467 C469 1.392 . S
C467 H478 0.930 . S
C468 C464 1.373 . S
C468 C466 1.383 . S
C468 H479 0.931 . S
C469 C466 1.382 . S
C469 C467 1.392 . S
C470 Eu441 2.828 . S
C470 O454 1.249 . S
C470 O455 1.244 . S
C470 C464 1.505 . S
C471 O458 1.258 . S
C471 O459 1.242 . S
H472 C444 0.930 . S
H473 C445 0.930 . S
H474 C446 0.930 . S
H475 C447 0.931 . S
H476 C465 0.930 . S
H477 C466 0.930 . S
H478 C467 0.930 . S
H479 C468 0.931 . S
Eu480 C489 2.828 . S
Eu480 O491 2.392 1_554 S
Eu480 O493 2.418 . S
Eu480 O498 2.373 . S
Eu480 O501 2.488 . S
Eu480 O502 2.471 . S
Eu480 O503 2.349 . S
Eu481 O490 2.373 . S
Eu481 O494 2.488 . S
Eu481 O495 2.471 . S
Eu481 O496 2.349 1_556 S
Eu481 O499 2.392 1_556 S
Eu481 O500 2.418 . S
Eu481 C510 2.828 . S
C482 O500 1.244 . S
C482 O503 1.265 1_556 S
C483 C484 1.379 . S
C483 C487 1.373 . S
C483 C489 1.505 . S
C484 C483 1.379 . S
C484 C486 1.369 . S
C484 H512 0.930 . S
C485 C487 1.383 . S
C485 C488 1.382 . S
C485 H513 0.930 . S
C486 C484 1.369 . S
C486 C488 1.392 . S
C486 H514 0.930 . S
C487 C483 1.373 . S
C487 C485 1.383 . S
C487 H515 0.931 . S
C488 C485 1.382 . S
C488 C486 1.392 . S
C489 Eu480 2.828 . S
C489 C483 1.505 . S
C489 O501 1.249 . S
C489 O502 1.244 . S
O490 Eu481 2.373 . S
O490 C492 1.258 . S
O491 Eu480 2.392 1_556 S
O491 C492 1.242 . S
C492 O490 1.258 . S
C492 O491 1.242 . S
O493 Eu480 2.418 . S
O493 C497 1.244 . S
O494 Eu481 2.488 . S
O494 C510 1.249 . S
O495 Eu481 2.471 . S
O495 C510 1.244 . S
O496 Eu481 2.349 1_554 S
O496 C497 1.265 . S
C497 O493 1.244 . S
C497 O496 1.265 . S
O498 Eu480 2.373 . S
O498 C511 1.258 . S
O499 Eu481 2.392 1_554 S
O499 C511 1.242 . S
O500 Eu481 2.418 . S
O500 C482 1.244 . S
O501 Eu480 2.488 . S
O501 C489 1.249 . S
O502 Eu480 2.471 . S
O502 C489 1.244 . S
O503 Eu480 2.349 . S
O503 C482 1.265 1_554 S
C504 C505 1.379 . S
C504 C508 1.373 . S
C504 C510 1.505 . S
C505 C504 1.379 . S
C505 C507 1.369 . S
C505 H516 0.930 . S
C506 C508 1.383 . S
C506 C509 1.382 . S
C506 H517 0.930 . S
C507 C505 1.369 . S
C507 C509 1.392 . S
C507 H518 0.930 . S
C508 C504 1.373 . S
C508 C506 1.383 . S
C508 H519 0.931 . S
C509 C506 1.382 . S
C509 C507 1.392 . S
C510 Eu481 2.828 . S
C510 O494 1.249 . S
C510 O495 1.244 . S
C510 C504 1.505 . S
C511 O498 1.258 . S
C511 O499 1.242 . S
H512 C484 0.930 . S
H513 C485 0.930 . S
H514 C486 0.930 . S
H515 C487 0.931 . S
H516 C505 0.930 . S
H517 C506 0.930 . S
H518 C507 0.930 . S
H519 C508 0.931 . S
Eu520 C529 2.828 . S
Eu520 O531 2.392 . S
Eu520 O533 2.418 1_455 S
Eu520 O538 2.373 1_455 S
Eu520 O541 2.488 . S
Eu520 O542 2.471 . S
Eu520 O543 2.349 . S
Eu521 O530 2.373 . S
Eu521 O534 2.488 . S
Eu521 O535 2.471 . S
Eu521 O536 2.349 . S
Eu521 O539 2.392 . S
Eu521 O540 2.418 1_655 S
Eu521 C550 2.828 . S
C522 O540 1.244 . S
C522 O543 1.265 . S
C523 C524 1.379 . S
C523 C527 1.373 . S
C523 C529 1.505 . S
C524 C523 1.379 . S
C524 C526 1.369 . S
C524 H552 0.930 . S
C525 C527 1.383 . S
C525 C528 1.382 . S
C525 H553 0.930 . S
C526 C524 1.369 . S
C526 C528 1.392 . S
C526 H554 0.930 . S
C527 C523 1.373 . S
C527 C525 1.383 . S
C527 H555 0.931 . S
C528 C525 1.382 . S
C528 C526 1.392 . S
C529 Eu520 2.828 . S
C529 C523 1.505 . S
C529 O541 1.249 . S
C529 O542 1.244 . S
O530 Eu521 2.373 . S
O530 C532 1.258 1_655 S
O531 Eu520 2.392 . S
O531 C532 1.242 . S
C532 O530 1.258 1_455 S
C532 O531 1.242 . S
O533 Eu520 2.418 1_655 S
O533 C537 1.244 . S
O534 Eu521 2.488 . S
O534 C550 1.249 . S
O535 Eu521 2.471 . S
O535 C550 1.244 . S
O536 Eu521 2.349 . S
O536 C537 1.265 . S
C537 O533 1.244 . S
C537 O536 1.265 . S
O538 Eu520 2.373 1_655 S
O538 C551 1.258 . S
O539 Eu521 2.392 . S
O539 C551 1.242 . S
O540 Eu521 2.418 1_455 S
O540 C522 1.244 . S
O541 Eu520 2.488 . S
O541 C529 1.249 . S
O542 Eu520 2.471 . S
O542 C529 1.244 . S
O543 Eu520 2.349 . S
O543 C522 1.265 . S
C544 C545 1.379 . S
C544 C548 1.373 . S
C544 C550 1.505 . S
C545 C544 1.379 . S
C545 C547 1.369 . S
C545 H556 0.930 . S
C546 C548 1.383 . S
C546 C549 1.382 . S
C546 H557 0.930 . S
C547 C545 1.369 . S
C547 C549 1.392 . S
C547 H558 0.930 . S
C548 C544 1.373 . S
C548 C546 1.383 . S
C548 H559 0.931 . S
C549 C546 1.382 . S
C549 C547 1.392 . S
C550 Eu521 2.828 . S
C550 O534 1.249 . S
C550 O535 1.244 . S
C550 C544 1.505 . S
C551 O538 1.258 . S
C551 O539 1.242 . S
H552 C524 0.930 . S
H553 C525 0.930 . S
H554 C526 0.930 . S
H555 C527 0.931 . S
H556 C545 0.930 . S
H557 C546 0.930 . S
H558 C547 0.930 . S
H559 C548 0.931 . S
Eu560 C569 2.828 . S
Eu560 O571 2.392 . S
Eu560 O573 2.418 . S
Eu560 O578 2.373 . S
Eu560 O581 2.488 . S
Eu560 O582 2.471 . S
Eu560 O583 2.349 . S
Eu561 O570 2.373 . S
Eu561 O574 2.488 . S
Eu561 O575 2.471 . S
Eu561 O576 2.349 . S
Eu561 O579 2.392 . S
Eu561 O580 2.418 . S
Eu561 C590 2.828 . S
C562 O580 1.244 . S
C562 O583 1.265 . S
C563 C564 1.379 . S
C563 C567 1.373 . S
C563 C569 1.505 . S
C564 C563 1.379 . S
C564 C566 1.369 . S
C564 H592 0.930 . S
C565 C567 1.383 . S
C565 C568 1.382 . S
C565 H593 0.930 . S
C566 C564 1.369 . S
C566 C568 1.392 . S
C566 H594 0.930 . S
C567 C563 1.373 . S
C567 C565 1.383 . S
C567 H595 0.931 . S
C568 C565 1.382 . S
C568 C566 1.392 . S
C569 Eu560 2.828 . S
C569 C563 1.505 . S
C569 O581 1.249 . S
C569 O582 1.244 . S
O570 Eu561 2.373 . S
O570 C572 1.258 . S
O571 Eu560 2.392 . S
O571 C572 1.242 . S
C572 O570 1.258 . S
C572 O571 1.242 . S
O573 Eu560 2.418 . S
O573 C577 1.244 . S
O574 Eu561 2.488 . S
O574 C590 1.249 . S
O575 Eu561 2.471 . S
O575 C590 1.244 . S
O576 Eu561 2.349 . S
O576 C577 1.265 . S
C577 O573 1.244 . S
C577 O576 1.265 . S
O578 Eu560 2.373 . S
O578 C591 1.258 . S
O579 Eu561 2.392 . S
O579 C591 1.242 . S
O580 Eu561 2.418 . S
O580 C562 1.244 . S
O581 Eu560 2.488 . S
O581 C569 1.249 . S
O582 Eu560 2.471 . S
O582 C569 1.244 . S
O583 Eu560 2.349 . S
O583 C562 1.265 . S
C584 C585 1.379 . S
C584 C588 1.373 . S
C584 C590 1.505 . S
C585 C584 1.379 . S
C585 C587 1.369 . S
C585 H596 0.930 . S
C586 C588 1.383 . S
C586 C589 1.382 . S
C586 H597 0.930 . S
C587 C585 1.369 . S
C587 C589 1.392 . S
C587 H598 0.930 . S
C588 C584 1.373 . S
C588 C586 1.383 . S
C588 H599 0.931 . S
C589 C586 1.382 . S
C589 C587 1.392 . S
C590 Eu561 2.828 . S
C590 O574 1.249 . S
C590 O575 1.244 . S
C590 C584 1.505 . S
C591 O578 1.258 . S
C591 O579 1.242 . S
H592 C564 0.930 . S
H593 C565 0.930 . S
H594 C566 0.930 . S
H595 C567 0.931 . S
H596 C585 0.930 . S
H597 C586 0.930 . S
H598 C587 0.930 . S
H599 C588 0.931 . S
Eu600 C609 2.828 1_655 S
Eu600 O611 2.392 . S
Eu600 O613 2.418 1_655 S
Eu600 O618 2.373 1_655 S
Eu600 O621 2.488 1_655 S
Eu600 O622 2.471 1_655 S
Eu600 O623 2.349 . S
Eu601 O610 2.373 . S
Eu601 O614 2.488 . S
Eu601 O615 2.471 . S
Eu601 O616 2.349 . S
Eu601 O619 2.392 . S
Eu601 O620 2.418 . S
Eu601 C630 2.828 . S
C602 O620 1.244 . S
C602 O623 1.265 . S
C603 C604 1.379 . S
C603 C607 1.373 . S
C603 C609 1.505 . S
C604 C603 1.379 . S
C604 C606 1.369 . S
C604 H632 0.930 . S
C605 C607 1.383 . S
C605 C608 1.382 . S
C605 H633 0.930 . S
C606 C604 1.369 . S
C606 C608 1.392 . S
C606 H634 0.930 . S
C607 C603 1.373 . S
C607 C605 1.383 . S
C607 H635 0.931 . S
C608 C605 1.382 . S
C608 C606 1.392 . S
C609 Eu600 2.828 1_455 S
C609 C603 1.505 . S
C609 O621 1.249 . S
C609 O622 1.244 . S
O610 Eu601 2.373 . S
O610 C612 1.258 . S
O611 Eu600 2.392 . S
O611 C612 1.242 . S
C612 O610 1.258 . S
C612 O611 1.242 . S
O613 Eu600 2.418 1_455 S
O613 C617 1.234 1_455 S
O614 Eu601 2.488 . S
O614 C630 1.249 . S
O615 Eu601 2.471 . S
O615 C630 1.244 . S
O616 Eu601 2.349 . S
O616 C617 1.278 . S
C617 O613 1.234 1_655 S
C617 O616 1.278 . S
O618 Eu600 2.373 1_455 S
O618 C631 1.258 . S
O619 Eu601 2.392 . S
O619 C631 1.242 1_655 S
O620 Eu601 2.418 . S
O620 C602 1.244 . S
O621 Eu600 2.488 1_455 S
O621 C609 1.249 . S
O622 Eu600 2.471 1_455 S
O622 C609 1.244 . S
O623 Eu600 2.349 . S
O623 C602 1.265 . S
C624 C625 1.379 . S
C624 C628 1.373 . S
C624 C630 1.505 . S
C625 C624 1.379 . S
C625 C627 1.369 . S
C625 H636 0.930 . S
C626 C628 1.383 . S
C626 C629 1.382 . S
C626 H637 0.930 . S
C627 C625 1.369 . S
C627 C629 1.392 . S
C627 H638 0.930 . S
C628 C624 1.373 . S
C628 C626 1.383 . S
C628 H639 0.931 . S
C629 C626 1.382 . S
C629 C627 1.392 . S
C630 Eu601 2.828 . S
C630 O614 1.249 . S
C630 O615 1.244 . S
C630 C624 1.505 . S
C631 O618 1.258 . S
C631 O619 1.242 1_455 S
H632 C604 0.930 . S
H633 C605 0.930 . S
H634 C606 0.930 . S
H635 C607 0.931 . S
H636 C625 0.930 . S
H637 C626 0.930 . S
H638 C627 0.930 . S
H639 C628 0.931 . S
Eu640 C649 2.828 . S
Eu640 O651 2.392 . S
Eu640 O653 2.418 . S
Eu640 O658 2.373 . S
Eu640 O661 2.488 . S
Eu640 O662 2.471 . S
Eu640 O663 2.349 . S
Eu641 O650 2.373 . S
Eu641 O654 2.488 . S
Eu641 O655 2.471 . S
Eu641 O656 2.349 . S
Eu641 O659 2.392 . S
Eu641 O660 2.418 . S
Eu641 C670 2.828 . S
C642 O660 1.244 . S
C642 O663 1.265 . S
C643 C644 1.379 . S
C643 C647 1.373 . S
C643 C649 1.505 . S
C644 C643 1.379 . S
C644 C646 1.369 . S
C644 H672 0.930 . S
C645 C647 1.383 . S
C645 C648 1.382 . S
C645 H673 0.930 . S
C646 C644 1.369 . S
C646 C648 1.392 . S
C646 H674 0.930 . S
C647 C643 1.373 . S
C647 C645 1.383 . S
C647 H675 0.931 . S
C648 C645 1.382 . S
C648 C646 1.392 . S
C649 Eu640 2.828 . S
C649 C643 1.505 . S
C649 O661 1.249 . S
C649 O662 1.244 . S
O650 Eu641 2.373 . S
O650 C652 1.258 . S
O651 Eu640 2.392 . S
O651 C652 1.242 . S
C652 O650 1.258 . S
C652 O651 1.242 . S
O653 Eu640 2.418 . S
O653 C657 1.244 . S
O654 Eu641 2.488 . S
O654 C670 1.249 . S
O655 Eu641 2.471 . S
O655 C670 1.244 . S
O656 Eu641 2.349 . S
O656 C657 1.265 . S
C657 O653 1.244 . S
C657 O656 1.265 . S
O658 Eu640 2.373 . S
O658 C671 1.258 . S
O659 Eu641 2.392 . S
O659 C671 1.242 . S
O660 Eu641 2.418 . S
O660 C642 1.244 . S
O661 Eu640 2.488 . S
O661 C649 1.249 . S
O662 Eu640 2.471 . S
O662 C649 1.244 . S
O663 Eu640 2.349 . S
O663 C642 1.265 . S
C664 C665 1.379 . S
C664 C668 1.373 . S
C664 C670 1.505 . S
C665 C664 1.379 . S
C665 C667 1.369 . S
C665 H676 0.930 . S
C666 C668 1.383 . S
C666 C669 1.382 . S
C666 H677 0.930 . S
C667 C665 1.369 . S
C667 C669 1.392 . S
C667 H678 0.930 . S
C668 C664 1.373 . S
C668 C666 1.383 . S
C668 H679 0.931 . S
C669 C666 1.382 . S
C669 C667 1.392 . S
C670 Eu641 2.828 . S
C670 O654 1.249 . S
C670 O655 1.244 . S
C670 C664 1.505 . S
C671 O658 1.258 . S
C671 O659 1.242 . S
H672 C644 0.930 . S
H673 C645 0.930 . S
H674 C646 0.930 . S
H675 C647 0.931 . S
H676 C665 0.930 . S
H677 C666 0.930 . S
H678 C667 0.930 . S
H679 C668 0.931 . S
Eu680 C689 2.828 . S
Eu680 O691 2.392 . S
Eu680 O693 2.418 . S
Eu680 O698 2.373 . S
Eu680 O701 2.488 . S
Eu680 O702 2.471 . S
Eu680 O703 2.349 . S
Eu681 O690 2.373 . S
Eu681 O694 2.488 . S
Eu681 O695 2.471 . S
Eu681 O696 2.349 . S
Eu681 O699 2.392 . S
Eu681 O700 2.418 . S
Eu681 C710 2.828 . S
C682 O700 1.244 . S
C682 O703 1.265 . S
C683 C684 1.379 . S
C683 C687 1.373 . S
C683 C689 1.505 . S
C684 C683 1.379 . S
C684 C686 1.369 . S
C684 H712 0.930 . S
C685 C687 1.383 . S
C685 C688 1.382 . S
C685 H713 0.930 . S
C686 C684 1.369 . S
C686 C688 1.392 . S
C686 H714 0.930 . S
C687 C683 1.373 . S
C687 C685 1.383 . S
C687 H715 0.931 . S
C688 C685 1.382 . S
C688 C686 1.392 . S
C689 Eu680 2.828 . S
C689 C683 1.505 . S
C689 O701 1.249 . S
C689 O702 1.244 . S
O690 Eu681 2.373 . S
O690 C692 1.258 . S
O691 Eu680 2.392 . S
O691 C692 1.242 . S
C692 O690 1.258 . S
C692 O691 1.242 . S
O693 Eu680 2.418 . S
O693 C697 1.244 . S
O694 Eu681 2.488 . S
O694 C710 1.249 . S
O695 Eu681 2.471 . S
O695 C710 1.244 . S
O696 Eu681 2.349 . S
O696 C697 1.265 . S
C697 O693 1.244 . S
C697 O696 1.265 . S
O698 Eu680 2.373 . S
O698 C711 1.258 . S
O699 Eu681 2.392 . S
O699 C711 1.242 . S
O700 Eu681 2.418 . S
O700 C682 1.244 . S
O701 Eu680 2.488 . S
O701 C689 1.249 . S
O702 Eu680 2.471 . S
O702 C689 1.244 . S
O703 Eu680 2.349 . S
O703 C682 1.265 . S
C704 C705 1.379 . S
C704 C708 1.373 . S
C704 C710 1.505 . S
C705 C704 1.379 . S
C705 C707 1.369 . S
C705 H716 0.930 . S
C706 C708 1.383 . S
C706 C709 1.382 . S
C706 H717 0.930 . S
C707 C705 1.369 . S
C707 C709 1.392 . S
C707 H718 0.930 . S
C708 C704 1.373 . S
C708 C706 1.383 . S
C708 H719 0.931 . S
C709 C706 1.382 . S
C709 C707 1.392 . S
C710 Eu681 2.828 . S
C710 O694 1.249 . S
C710 O695 1.244 . S
C710 C704 1.505 . S
C711 O698 1.258 . S
C711 O699 1.242 . S
H712 C684 0.930 . S
H713 C685 0.930 . S
H714 C686 0.930 . S
H715 C687 0.931 . S
H716 C705 0.930 . S
H717 C706 0.930 . S
H718 C707 0.930 . S
H719 C708 0.931 . S
Eu720 C729 2.828 . S
Eu720 O731 2.392 1_554 S
Eu720 O733 2.418 . S
Eu720 O738 2.373 . S
Eu720 O741 2.488 . S
Eu720 O742 2.471 . S
Eu720 O743 2.349 1_554 S
Eu721 O730 2.373 . S
Eu721 O734 2.488 . S
Eu721 O735 2.471 . S
Eu721 O736 2.349 . S
Eu721 O739 2.392 1_556 S
Eu721 O740 2.418 . S
Eu721 C750 2.828 . S
C722 O740 1.244 . S
C722 O743 1.265 . S
C723 C724 1.379 . S
C723 C727 1.373 . S
C723 C729 1.505 . S
C724 C723 1.379 . S
C724 C726 1.369 . S
C724 H752 0.930 . S
C725 C727 1.383 . S
C725 C728 1.382 . S
C725 H753 0.930 . S
C726 C724 1.369 . S
C726 C728 1.392 . S
C726 H754 0.930 . S
C727 C723 1.373 . S
C727 C725 1.383 . S
C727 H755 0.931 . S
C728 C725 1.382 . S
C728 C726 1.392 . S
C729 Eu720 2.828 . S
C729 C723 1.505 . S
C729 O741 1.249 . S
C729 O742 1.244 . S
O730 Eu721 2.373 . S
O730 C732 1.258 . S
O731 Eu720 2.392 1_556 S
O731 C732 1.242 . S
C732 O730 1.258 . S
C732 O731 1.242 . S
O733 Eu720 2.418 . S
O733 C737 1.244 . S
O734 Eu721 2.488 . S
O734 C750 1.249 . S
O735 Eu721 2.471 . S
O735 C750 1.244 . S
O736 Eu721 2.349 . S
O736 C737 1.265 1_556 S
C737 O733 1.244 . S
C737 O736 1.265 1_554 S
O738 Eu720 2.373 . S
O738 C751 1.258 . S
O739 Eu721 2.392 1_554 S
O739 C751 1.242 . S
O740 Eu721 2.418 . S
O740 C722 1.244 . S
O741 Eu720 2.488 . S
O741 C729 1.249 . S
O742 Eu720 2.471 . S
O742 C729 1.244 . S
O743 Eu720 2.349 1_556 S
O743 C722 1.265 . S
C744 C745 1.379 . S
C744 C748 1.373 . S
C744 C750 1.505 . S
C745 C744 1.379 . S
C745 C747 1.369 . S
C745 H756 0.930 . S
C746 C748 1.383 . S
C746 C749 1.382 . S
C746 H757 0.930 . S
C747 C745 1.369 . S
C747 C749 1.392 . S
C747 H758 0.930 . S
C748 C744 1.373 . S
C748 C746 1.383 . S
C748 H759 0.931 . S
C749 C746 1.382 . S
C749 C747 1.392 . S
C750 Eu721 2.828 . S
C750 O734 1.249 . S
C750 O735 1.244 . S
C750 C744 1.505 . S
C751 O738 1.258 . S
C751 O739 1.242 . S
H752 C724 0.930 . S
H753 C725 0.930 . S
H754 C726 0.930 . S
H755 C727 0.931 . S
H756 C745 0.930 . S
H757 C746 0.930 . S
H758 C747 0.930 . S
H759 C748 0.931 . S
Eu760 C769 2.828 . S
Eu760 O771 2.392 . S
Eu760 O773 2.418 . S
Eu760 O778 2.373 . S
Eu760 O781 2.488 . S
Eu760 O782 2.471 . S
Eu760 O783 2.349 . S
Eu761 O770 2.373 1_455 S
Eu761 O774 2.488 . S
Eu761 O775 2.471 . S
Eu761 O776 2.349 . S
Eu761 O779 2.392 . S
Eu761 O780 2.418 1_455 S
Eu761 C790 2.828 . S
C762 O780 1.244 . S
C762 O783 1.265 . S
C763 C764 1.379 . S
C763 C767 1.373 . S
C763 C769 1.505 . S
C764 C763 1.379 . S
C764 C766 1.369 . S
C764 H792 0.930 . S
C765 C767 1.383 . S
C765 C768 1.382 . S
C765 H793 0.930 . S
C766 C764 1.369 . S
C766 C768 1.392 . S
C766 H794 0.930 . S
C767 C763 1.373 . S
C767 C765 1.383 . S
C767 H795 0.931 . S
C768 C765 1.382 . S
C768 C766 1.392 . S
C769 Eu760 2.828 . S
C769 C763 1.505 . S
C769 O781 1.249 . S
C769 O782 1.244 . S
O770 Eu761 2.373 1_655 S
O770 C772 1.258 . S
O771 Eu760 2.392 . S
O771 C772 1.242 . S
C772 O770 1.258 . S
C772 O771 1.242 . S
O773 Eu760 2.418 . S
O773 C777 1.244 1_655 S
O774 Eu761 2.488 . S
O774 C790 1.249 . S
O775 Eu761 2.471 . S
O775 C790 1.244 . S
O776 Eu761 2.349 . S
O776 C777 1.265 . S
C777 O773 1.244 1_455 S
C777 O776 1.265 . S
O778 Eu760 2.373 . S
O778 C791 1.258 . S
O779 Eu761 2.392 . S
O779 C791 1.242 1_455 S
O780 Eu761 2.418 1_655 S
O780 C762 1.244 . S
O781 Eu760 2.488 . S
O781 C769 1.249 . S
O782 Eu760 2.471 . S
O782 C769 1.244 . S
O783 Eu760 2.349 . S
O783 C762 1.265 . S
C784 C785 1.379 . S
C784 C788 1.373 . S
C784 C790 1.505 . S
C785 C784 1.379 . S
C785 C787 1.369 . S
C785 H796 0.930 . S
C786 C788 1.383 . S
C786 C789 1.382 . S
C786 H797 0.930 . S
C787 C785 1.369 . S
C787 C789 1.392 . S
C787 H798 0.930 . S
C788 C784 1.373 . S
C788 C786 1.383 . S
C788 H799 0.931 . S
C789 C786 1.382 . S
C789 C787 1.392 . S
C790 Eu761 2.828 . S
C790 O774 1.249 . S
C790 O775 1.244 . S
C790 C784 1.505 . S
C791 O778 1.258 . S
C791 O779 1.242 1_655 S
H792 C764 0.930 . S
H793 C765 0.930 . S
H794 C766 0.930 . S
H795 C767 0.931 . S
H796 C785 0.930 . S
H797 C786 0.930 . S
H798 C787 0.930 . S
H799 C788 0.931 . S
Eu800 C809 2.828 . S
Eu800 O811 2.392 . S
Eu800 O813 2.418 . S
Eu800 O818 2.373 . S
Eu800 O821 2.488 . S
Eu800 O822 2.471 . S
Eu800 O823 2.349 . S
Eu801 O810 2.373 . S
Eu801 O814 2.488 . S
Eu801 O815 2.471 . S
Eu801 O816 2.349 . S
Eu801 O819 2.392 . S
Eu801 O820 2.418 . S
Eu801 C830 2.828 . S
C802 O820 1.244 . S
C802 O823 1.265 . S
C803 C804 1.379 . S
C803 C807 1.373 . S
C803 C809 1.505 . S
C804 C803 1.379 . S
C804 C806 1.369 . S
C804 H832 0.930 . S
C805 C807 1.383 . S
C805 C808 1.382 . S
C805 H833 0.930 . S
C806 C804 1.369 . S
C806 C808 1.392 . S
C806 H834 0.930 . S
C807 C803 1.373 . S
C807 C805 1.383 . S
C807 H835 0.931 . S
C808 C805 1.382 . S
C808 C806 1.392 . S
C809 Eu800 2.828 . S
C809 C803 1.505 . S
C809 O821 1.249 . S
C809 O822 1.244 . S
O810 Eu801 2.373 . S
O810 C812 1.258 . S
O811 Eu800 2.392 . S
O811 C812 1.242 . S
C812 O810 1.258 . S
C812 O811 1.242 . S
O813 Eu800 2.418 . S
O813 C817 1.244 . S
O814 Eu801 2.488 . S
O814 C830 1.249 . S
O815 Eu801 2.471 . S
O815 C830 1.244 . S
O816 Eu801 2.349 . S
O816 C817 1.265 . S
C817 O813 1.244 . S
C817 O816 1.265 . S
O818 Eu800 2.373 . S
O818 C831 1.258 . S
O819 Eu801 2.392 . S
O819 C831 1.242 . S
O820 Eu801 2.418 . S
O820 C802 1.244 . S
O821 Eu800 2.488 . S
O821 C809 1.249 . S
O822 Eu800 2.471 . S
O822 C809 1.244 . S
O823 Eu800 2.349 . S
O823 C802 1.265 . S
C824 C825 1.379 . S
C824 C828 1.373 . S
C824 C830 1.505 . S
C825 C824 1.379 . S
C825 C827 1.369 . S
C825 H836 0.930 . S
C826 C828 1.383 . S
C826 C829 1.382 . S
C826 H837 0.930 . S
C827 C825 1.369 . S
C827 C829 1.392 . S
C827 H838 0.930 . S
C828 C824 1.373 . S
C828 C826 1.383 . S
C828 H839 0.931 . S
C829 C826 1.382 . S
C829 C827 1.392 . S
C830 Eu801 2.828 . S
C830 O814 1.249 . S
C830 O815 1.244 . S
C830 C824 1.505 . S
C831 O818 1.258 . S
C831 O819 1.242 . S
H832 C804 0.930 . S
H833 C805 0.930 . S
H834 C806 0.930 . S
H835 C807 0.931 . S
H836 C825 0.930 . S
H837 C826 0.930 . S
H838 C827 0.930 . S
H839 C828 0.931 . S
Eu840 C849 2.828 . S
Eu840 O851 2.392 . S
Eu840 O853 2.418 . S
Eu840 O858 2.373 . S
Eu840 O861 2.488 . S
Eu840 O862 2.471 . S
Eu840 O863 2.349 . S
Eu841 O850 2.373 . S
Eu841 O854 2.488 . S
Eu841 O855 2.471 . S
Eu841 O856 2.349 . S
Eu841 O859 2.392 . S
Eu841 O860 2.418 . S
Eu841 C870 2.828 . S
C842 O860 1.244 . S
C842 O863 1.265 . S
C843 C844 1.379 . S
C843 C847 1.373 . S
C843 C849 1.505 . S
C844 C843 1.379 . S
C844 C846 1.369 . S
C844 H872 0.930 . S
C845 C847 1.383 . S
C845 C848 1.382 . S
C845 H873 0.930 . S
C846 C844 1.369 . S
C846 C848 1.392 . S
C846 H874 0.930 . S
C847 C843 1.373 . S
C847 C845 1.383 . S
C847 H875 0.931 . S
C848 C845 1.382 . S
C848 C846 1.392 . S
C849 Eu840 2.828 . S
C849 C843 1.505 . S
C849 O861 1.249 . S
C849 O862 1.244 . S
O850 Eu841 2.373 . S
O850 C852 1.258 . S
O851 Eu840 2.392 . S
O851 C852 1.242 . S
C852 O850 1.258 . S
C852 O851 1.242 . S
O853 Eu840 2.418 . S
O853 C857 1.244 . S
O854 Eu841 2.488 . S
O854 C870 1.249 . S
O855 Eu841 2.471 . S
O855 C870 1.244 . S
O856 Eu841 2.349 . S
O856 C857 1.265 . S
C857 O853 1.244 . S
C857 O856 1.265 . S
O858 Eu840 2.373 . S
O858 C871 1.258 . S
O859 Eu841 2.392 . S
O859 C871 1.242 . S
O860 Eu841 2.418 . S
O860 C842 1.244 . S
O861 Eu840 2.488 . S
O861 C849 1.249 . S
O862 Eu840 2.471 . S
O862 C849 1.244 . S
O863 Eu840 2.349 . S
O863 C842 1.265 . S
C864 C865 1.379 . S
C864 C868 1.373 . S
C864 C870 1.505 . S
C865 C864 1.379 . S
C865 C867 1.369 . S
C865 H876 0.930 . S
C866 C868 1.383 . S
C866 C869 1.382 . S
C866 H877 0.930 . S
C867 C865 1.369 . S
C867 C869 1.392 . S
C867 H878 0.930 . S
C868 C864 1.373 . S
C868 C866 1.383 . S
C868 H879 0.931 . S
C869 C866 1.382 . S
C869 C867 1.392 . S
C870 Eu841 2.828 . S
C870 O854 1.249 . S
C870 O855 1.244 . S
C870 C864 1.505 . S
C871 O858 1.258 . S
C871 O859 1.242 . S
H872 C844 0.930 . S
H873 C845 0.930 . S
H874 C846 0.930 . S
H875 C847 0.931 . S
H876 C865 0.930 . S
H877 C866 0.930 . S
H878 C867 0.930 . S
H879 C868 0.931 . S
Eu880 C889 2.828 . S
Eu880 O891 2.392 . S
Eu880 O893 2.418 . S
Eu880 O898 2.373 . S
Eu880 O901 2.488 . S
Eu880 O902 2.471 . S
Eu880 O903 2.349 . S
Eu881 O890 2.373 1_556 S
Eu881 O894 2.488 . S
Eu881 O895 2.471 . S
Eu881 O896 2.349 . S
Eu881 O899 2.392 . S
Eu881 O900 2.418 1_556 S
Eu881 C910 2.828 . S
C882 O900 1.244 . S
C882 O903 1.265 . S
C883 C884 1.379 . S
C883 C887 1.373 . S
C883 C889 1.505 . S
C884 C883 1.379 . S
C884 C886 1.369 . S
C884 H912 0.930 . S
C885 C887 1.383 . S
C885 C888 1.382 . S
C885 H913 0.930 . S
C886 C884 1.369 . S
C886 C888 1.392 . S
C886 H914 0.930 . S
C887 C883 1.373 . S
C887 C885 1.383 . S
C887 H915 0.931 . S
C888 C885 1.382 . S
C888 C886 1.392 . S
C889 Eu880 2.828 . S
C889 C883 1.505 . S
C889 O901 1.249 . S
C889 O902 1.244 . S
O890 Eu881 2.373 1_554 S
O890 C892 1.258 . S
O891 Eu880 2.392 . S
O891 C892 1.242 . S
C892 O890 1.258 . S
C892 O891 1.242 . S
O893 Eu880 2.418 . S
O893 C897 1.244 1_554 S
O894 Eu881 2.488 . S
O894 C910 1.249 . S
O895 Eu881 2.471 . S
O895 C910 1.244 . S
O896 Eu881 2.349 . S
O896 C897 1.265 . S
C897 O893 1.244 1_556 S
C897 O896 1.265 . S
O898 Eu880 2.373 . S
O898 C911 1.258 . S
O899 Eu881 2.392 . S
O899 C911 1.242 1_556 S
O900 Eu881 2.418 1_554 S
O900 C882 1.244 . S
O901 Eu880 2.488 . S
O901 C889 1.249 . S
O902 Eu880 2.471 . S
O902 C889 1.244 . S
O903 Eu880 2.349 . S
O903 C882 1.265 . S
C904 C905 1.379 . S
C904 C908 1.373 . S
C904 C910 1.505 . S
C905 C904 1.379 . S
C905 C907 1.369 . S
C905 H916 0.930 . S
C906 C908 1.383 . S
C906 C909 1.382 . S
C906 H917 0.930 . S
C907 C905 1.369 . S
C907 C909 1.392 . S
C907 H918 0.930 . S
C908 C904 1.373 . S
C908 C906 1.383 . S
C908 H919 0.931 . S
C909 C906 1.382 . S
C909 C907 1.392 . S
C910 Eu881 2.828 . S
C910 O894 1.249 . S
C910 O895 1.244 . S
C910 C904 1.505 . S
C911 O898 1.258 . S
C911 O899 1.242 1_554 S
H912 C884 0.930 . S
H913 C885 0.930 . S
H914 C886 0.930 . S
H915 C887 0.931 . S
H916 C905 0.930 . S
H917 C906 0.930 . S
H918 C907 0.930 . S
H919 C908 0.931 . S
Eu920 C929 2.828 . S
Eu920 O931 2.392 1_545 S
Eu920 O933 2.418 . S
Eu920 O938 2.373 . S
Eu920 O941 2.488 . S
Eu920 O942 2.471 . S
Eu920 O943 2.349 1_545 S
Eu921 O930 2.373 . S
Eu921 O934 2.488 . S
Eu921 O935 2.471 . S
Eu921 O936 2.349 . S
Eu921 O939 2.392 . S
Eu921 O940 2.418 . S
Eu921 C950 2.828 . S
C922 O940 1.244 . S
C922 O943 1.265 . S
C923 C924 1.379 . S
C923 C927 1.373 . S
C923 C929 1.505 . S
C924 C923 1.379 . S
C924 C926 1.369 . S
C924 H952 0.930 . S
C925 C927 1.383 . S
C925 C928 1.382 . S
C925 H953 0.930 . S
C926 C924 1.369 . S
C926 C928 1.392 . S
C926 H954 0.930 . S
C927 C923 1.373 . S
C927 C925 1.383 . S
C927 H955 0.931 . S
C928 C925 1.382 . S
C928 C926 1.392 . S
C929 Eu920 2.828 . S
C929 C923 1.505 . S
C929 O941 1.249 . S
C929 O942 1.244 . S
O930 Eu921 2.373 . S
O930 C932 1.258 . S
O931 Eu920 2.392 1_565 S
O931 C932 1.242 . S
C932 O930 1.258 . S
C932 O931 1.242 . S
O933 Eu920 2.418 . S
O933 C937 1.244 . S
O934 Eu921 2.488 . S
O934 C950 1.249 . S
O935 Eu921 2.471 . S
O935 C950 1.244 . S
O936 Eu921 2.349 . S
O936 C937 1.265 1_565 S
C937 O933 1.244 . S
C937 O936 1.265 1_545 S
O938 Eu920 2.373 . S
O938 C951 1.258 . S
O939 Eu921 2.392 . S
O939 C951 1.242 1_565 S
O940 Eu921 2.418 . S
O940 C922 1.244 . S
O941 Eu920 2.488 . S
O941 C929 1.249 . S
O942 Eu920 2.471 . S
O942 C929 1.244 . S
O943 Eu920 2.349 1_565 S
O943 C922 1.265 . S
C944 C945 1.379 . S
C944 C948 1.373 . S
C944 C950 1.505 . S
C945 C944 1.379 . S
C945 C947 1.369 . S
C945 H956 0.930 . S
C946 C948 1.383 . S
C946 C949 1.382 . S
C946 H957 0.930 . S
C947 C945 1.369 . S
C947 C949 1.392 . S
C947 H958 0.930 . S
C948 C944 1.373 . S
C948 C946 1.383 . S
C948 H959 0.931 . S
C949 C946 1.382 . S
C949 C947 1.392 . S
C950 Eu921 2.828 . S
C950 O934 1.249 . S
C950 O935 1.244 . S
C950 C944 1.505 . S
C951 O938 1.258 . S
C951 O939 1.242 1_545 S
H952 C924 0.930 . S
H953 C925 0.930 . S
H954 C926 0.930 . S
H955 C927 0.931 . S
H956 C945 0.930 . S
H957 C946 0.930 . S
H958 C947 0.930 . S
H959 C948 0.931 . S
Eu960 C969 2.828 . S
Eu960 O971 2.392 . S
Eu960 O973 2.418 . S
Eu960 O978 2.373 . S
Eu960 O981 2.488 . S
Eu960 O982 2.471 . S
Eu960 O983 2.349 . S
Eu961 O970 2.373 1_545 S
Eu961 O974 2.488 . S
Eu961 O975 2.471 . S
Eu961 O976 2.349 . S
Eu961 O979 2.392 . S
Eu961 O980 2.418 1_545 S
Eu961 C990 2.828 . S
C962 O980 1.244 . S
C962 O983 1.265 . S
C963 C964 1.379 . S
C963 C967 1.373 . S
C963 C969 1.505 . S
C964 C963 1.379 . S
C964 C966 1.369 . S
C964 H992 0.930 . S
C965 C967 1.383 . S
C965 C968 1.382 . S
C965 H993 0.930 . S
C966 C964 1.369 . S
C966 C968 1.392 . S
C966 H994 0.930 . S
C967 C963 1.373 . S
C967 C965 1.383 . S
C967 H995 0.931 . S
C968 C965 1.382 . S
C968 C966 1.392 . S
C969 Eu960 2.828 . S
C969 C963 1.505 . S
C969 O981 1.249 . S
C969 O982 1.244 . S
O970 Eu961 2.373 1_565 S
O970 C972 1.258 . S
O971 Eu960 2.392 . S
O971 C972 1.242 . S
C972 O970 1.258 . S
C972 O971 1.242 . S
O973 Eu960 2.418 . S
O973 C977 1.244 1_565 S
O974 Eu961 2.488 . S
O974 C990 1.249 . S
O975 Eu961 2.471 . S
O975 C990 1.244 . S
O976 Eu961 2.349 . S
O976 C977 1.265 . S
C977 O973 1.244 1_545 S
C977 O976 1.265 . S
O978 Eu960 2.373 . S
O978 C991 1.258 1_565 S
O979 Eu961 2.392 . S
O979 C991 1.242 . S
O980 Eu961 2.418 1_565 S
O980 C962 1.244 . S
O981 Eu960 2.488 . S
O981 C969 1.249 . S
O982 Eu960 2.471 . S
O982 C969 1.244 . S
O983 Eu960 2.349 . S
O983 C962 1.265 . S
C984 C985 1.379 . S
C984 C988 1.373 . S
C984 C990 1.505 . S
C985 C984 1.379 . S
C985 C987 1.369 . S
C985 H996 0.930 . S
C986 C988 1.383 . S
C986 C989 1.382 . S
C986 H997 0.930 . S
C987 C985 1.369 . S
C987 C989 1.392 . S
C987 H998 0.930 . S
C988 C984 1.373 . S
C988 C986 1.383 . S
C988 H999 0.931 . S
C989 C986 1.382 . S
C989 C987 1.392 . S
C990 Eu961 2.828 . S
C990 O974 1.249 . S
C990 O975 1.244 . S
C990 C984 1.505 . S
C991 O978 1.258 1_545 S
C991 O979 1.242 . S
H992 C964 0.930 . S
H993 C965 0.930 . S
H994 C966 0.930 . S
H995 C967 0.931 . S
H996 C985 0.930 . S
H997 C986 0.930 . S
H998 C987 0.930 . S
H999 C988 0.931 . S
Eu1000 C1009 2.828 . S
Eu1000 O1011 2.392 . S
Eu1000 O1013 2.418 . S
Eu1000 O1018 2.373 . S
Eu1000 O1021 2.488 . S
Eu1000 O1022 2.471 . S
Eu1000 O1023 2.349 . S
Eu1001 O1010 2.373 1_565 S
Eu1001 O1014 2.488 . S
Eu1001 O1015 2.471 . S
Eu1001 O1016 2.349 . S
Eu1001 O1019 2.392 . S
Eu1001 O1020 2.418 1_565 S
Eu1001 C1030 2.828 . S
C1002 O1020 1.244 . S
C1002 O1023 1.265 . S
C1003 C1004 1.379 . S
C1003 C1007 1.373 . S
C1003 C1009 1.505 . S
C1004 C1003 1.379 . S
C1004 C1006 1.369 . S
C1004 H1032 0.930 . S
C1005 C1007 1.383 . S
C1005 C1008 1.382 . S
C1005 H1033 0.930 . S
C1006 C1004 1.369 . S
C1006 C1008 1.392 . S
C1006 H1034 0.930 . S
C1007 C1003 1.373 . S
C1007 C1005 1.383 . S
C1007 H1035 0.931 . S
C1008 C1005 1.382 . S
C1008 C1006 1.392 . S
C1009 Eu1000 2.828 . S
C1009 C1003 1.505 . S
C1009 O1021 1.249 . S
C1009 O1022 1.244 . S
O1010 Eu1001 2.373 1_545 S
O1010 C1012 1.258 . S
O1011 Eu1000 2.392 . S
O1011 C1012 1.242 . S
C1012 O1010 1.258 . S
C1012 O1011 1.242 . S
O1013 Eu1000 2.418 . S
O1013 C1017 1.244 1_545 S
O1014 Eu1001 2.488 . S
O1014 C1030 1.249 . S
O1015 Eu1001 2.471 . S
O1015 C1030 1.244 . S
O1016 Eu1001 2.349 . S
O1016 C1017 1.265 . S
C1017 O1013 1.244 1_565 S
C1017 O1016 1.265 . S
O1018 Eu1000 2.373 . S
O1018 C1031 1.258 . S
O1019 Eu1001 2.392 . S
O1019 C1031 1.242 1_565 S
O1020 Eu1001 2.418 1_545 S
O1020 C1002 1.244 . S
O1021 Eu1000 2.488 . S
O1021 C1009 1.249 . S
O1022 Eu1000 2.471 . S
O1022 C1009 1.244 . S
O1023 Eu1000 2.349 . S
O1023 C1002 1.265 . S
C1024 C1025 1.379 . S
C1024 C1028 1.373 . S
C1024 C1030 1.505 . S
C1025 C1024 1.379 . S
C1025 C1027 1.369 . S
C1025 H1036 0.930 . S
C1026 C1028 1.383 . S
C1026 C1029 1.382 . S
C1026 H1037 0.930 . S
C1027 C1025 1.369 . S
C1027 C1029 1.392 . S
C1027 H1038 0.930 . S
C1028 C1024 1.373 . S
C1028 C1026 1.383 . S
C1028 H1039 0.931 . S
C1029 C1026 1.382 . S
C1029 C1027 1.392 . S
C1030 Eu1001 2.828 . S
C1030 O1014 1.249 . S
C1030 O1015 1.244 . S
C1030 C1024 1.505 . S
C1031 O1018 1.258 . S
C1031 O1019 1.242 1_545 S
H1032 C1004 0.930 . S
H1033 C1005 0.930 . S
H1034 C1006 0.930 . S
H1035 C1007 0.931 . S
H1036 C1025 0.930 . S
H1037 C1026 0.930 . S
H1038 C1027 0.930 . S
H1039 C1028 0.931 . S
Eu1040 C1049 2.828 . S
Eu1040 O1051 2.392 1_565 S
Eu1040 O1053 2.418 . S
Eu1040 O1058 2.373 . S
Eu1040 O1061 2.488 . S
Eu1040 O1062 2.471 . S
Eu1040 O1063 2.349 1_565 S
Eu1041 O1050 2.373 . S
Eu1041 O1054 2.488 . S
Eu1041 O1055 2.471 . S
Eu1041 O1056 2.349 . S
Eu1041 O1059 2.427 . S
Eu1041 O1060 2.418 . S
Eu1041 C1070 2.828 . S
C1042 O1060 1.244 . S
C1042 O1063 1.265 . S
C1043 C1044 1.379 . S
C1043 C1047 1.373 . S
C1043 C1049 1.505 . S
C1044 C1043 1.379 . S
C1044 C1046 1.369 . S
C1044 H1072 0.930 . S
C1045 C1047 1.383 . S
C1045 C1048 1.382 . S
C1045 H1073 0.930 . S
C1046 C1044 1.369 . S
C1046 C1048 1.392 . S
C1046 H1074 0.930 . S
C1047 C1043 1.373 . S
C1047 C1045 1.383 . S
C1047 H1075 0.931 . S
C1048 C1045 1.382 . S
C1048 C1046 1.392 . S
C1049 Eu1040 2.828 . S
C1049 C1043 1.505 . S
C1049 O1061 1.249 . S
C1049 O1062 1.244 . S
O1050 Eu1041 2.373 . S
O1050 C1052 1.258 . S
O1051 Eu1040 2.392 1_545 S
O1051 C1052 1.242 . S
C1052 O1050 1.258 . S
C1052 O1051 1.242 . S
O1053 Eu1040 2.418 . S
O1053 C1057 1.244 . S
O1054 Eu1041 2.488 . S
O1054 C1070 1.249 . S
O1055 Eu1041 2.471 . S
O1055 C1070 1.244 . S
O1056 Eu1041 2.349 . S
O1056 C1057 1.265 1_545 S
C1057 O1053 1.244 . S
C1057 O1056 1.265 1_565 S
O1058 Eu1040 2.373 . S
O1058 C1071 1.258 . S
O1059 Eu1041 2.427 . S
O1059 C1071 1.204 1_545 S
O1060 Eu1041 2.418 . S
O1060 C1042 1.244 . S
O1061 Eu1040 2.488 . S
O1061 C1049 1.249 . S
O1062 Eu1040 2.471 . S
O1062 C1049 1.244 . S
O1063 Eu1040 2.349 1_545 S
O1063 C1042 1.265 . S
C1064 C1065 1.379 . S
C1064 C1068 1.373 . S
C1064 C1070 1.505 . S
C1065 C1064 1.379 . S
C1065 C1067 1.369 . S
C1065 H1076 0.930 . S
C1066 C1068 1.383 . S
C1066 C1069 1.382 . S
C1066 H1077 0.930 . S
C1067 C1065 1.369 . S
C1067 C1069 1.392 . S
C1067 H1078 0.930 . S
C1068 C1064 1.373 . S
C1068 C1066 1.383 . S
C1068 H1079 0.931 . S
C1069 C1066 1.382 . S
C1069 C1067 1.392 . S
C1070 Eu1041 2.828 . S
C1070 O1054 1.249 . S
C1070 O1055 1.244 . S
C1070 C1064 1.505 . S
C1071 O1058 1.258 . S
C1071 O1059 1.204 1_565 S
H1072 C1044 0.930 . S
H1073 C1045 0.930 . S
H1074 C1046 0.930 . S
H1075 C1047 0.931 . S
H1076 C1065 0.930 . S
H1077 C1066 0.930 . S
H1078 C1067 0.930 . S
H1079 C1068 0.931 . S
Eu1080 C1089 2.828 . S
Eu1080 O1091 2.392 1_554 S
Eu1080 O1093 2.418 . S
Eu1080 O1098 2.373 . S
Eu1080 O1101 2.488 . S
Eu1080 O1102 2.471 . S
Eu1080 O1103 2.349 1_554 S
Eu1081 O1090 2.373 . S
Eu1081 O1094 2.488 . S
Eu1081 O1095 2.471 . S
Eu1081 O1096 2.349 . S
Eu1081 O1099 2.392 1_556 S
Eu1081 O1100 2.418 . S
Eu1081 C1110 2.828 . S
C1082 O1100 1.244 . S
C1082 O1103 1.265 . S
C1083 C1084 1.379 . S
C1083 C1087 1.373 . S
C1083 C1089 1.505 . S
C1084 C1083 1.379 . S
C1084 C1086 1.369 . S
C1084 H1112 0.930 . S
C1085 C1087 1.383 . S
C1085 C1088 1.382 . S
C1085 H1113 0.930 . S
C1086 C1084 1.369 . S
C1086 C1088 1.392 . S
C1086 H1114 0.930 . S
C1087 C1083 1.373 . S
C1087 C1085 1.383 . S
C1087 H1115 0.931 . S
C1088 C1085 1.382 . S
C1088 C1086 1.392 . S
C1089 Eu1080 2.828 . S
C1089 C1083 1.505 . S
C1089 O1101 1.249 . S
C1089 O1102 1.244 . S
O1090 Eu1081 2.373 . S
O1090 C1092 1.258 . S
O1091 Eu1080 2.392 1_556 S
O1091 C1092 1.242 . S
C1092 O1090 1.258 . S
C1092 O1091 1.242 . S
O1093 Eu1080 2.418 . S
O1093 C1097 1.244 . S
O1094 Eu1081 2.488 . S
O1094 C1110 1.249 . S
O1095 Eu1081 2.471 . S
O1095 C1110 1.244 . S
O1096 Eu1081 2.349 . S
O1096 C1097 1.265 1_556 S
C1097 O1093 1.244 . S
C1097 O1096 1.265 1_554 S
O1098 Eu1080 2.373 . S
O1098 C1111 1.258 . S
O1099 Eu1081 2.392 1_554 S
O1099 C1111 1.242 . S
O1100 Eu1081 2.418 . S
O1100 C1082 1.244 . S
O1101 Eu1080 2.488 . S
O1101 C1089 1.249 . S
O1102 Eu1080 2.471 . S
O1102 C1089 1.244 . S
O1103 Eu1080 2.349 1_556 S
O1103 C1082 1.265 . S
C1104 C1105 1.379 . S
C1104 C1108 1.373 . S
C1104 C1110 1.505 . S
C1105 C1104 1.379 . S
C1105 C1107 1.369 . S
C1105 H1116 0.930 . S
C1106 C1108 1.383 . S
C1106 C1109 1.382 . S
C1106 H1117 0.930 . S
C1107 C1105 1.369 . S
C1107 C1109 1.392 . S
C1107 H1118 0.930 . S
C1108 C1104 1.373 . S
C1108 C1106 1.383 . S
C1108 H1119 0.931 . S
C1109 C1106 1.382 . S
C1109 C1107 1.392 . S
C1110 Eu1081 2.828 . S
C1110 O1094 1.249 . S
C1110 O1095 1.244 . S
C1110 C1104 1.505 . S
C1111 O1098 1.258 . S
C1111 O1099 1.242 . S
H1112 C1084 0.930 . S
H1113 C1085 0.930 . S
H1114 C1086 0.930 . S
H1115 C1087 0.931 . S
H1116 C1105 0.930 . S
H1117 C1106 0.930 . S
H1118 C1107 0.930 . S
H1119 C1108 0.931 . S
Eu1120 C1129 2.828 . S
Eu1120 O1131 2.392 . S
Eu1120 O1133 2.418 1_455 S
Eu1120 O1138 2.373 . S
Eu1120 O1141 2.488 . S
Eu1120 O1142 2.471 . S
Eu1120 O1143 2.349 . S
Eu1121 O1130 2.373 1_655 S
Eu1121 O1134 2.488 . S
Eu1121 O1135 2.471 . S
Eu1121 O1136 2.349 . S
Eu1121 O1139 2.392 . S
Eu1121 O1140 2.418 1_655 S
Eu1121 C1150 2.828 . S
C1122 O1140 1.244 . S
C1122 O1143 1.265 . S
C1123 C1124 1.379 . S
C1123 C1127 1.373 . S
C1123 C1129 1.505 . S
C1124 C1123 1.379 . S
C1124 C1126 1.369 . S
C1124 H1152 0.930 . S
C1125 C1127 1.383 . S
C1125 C1128 1.382 . S
C1125 H1153 0.930 . S
C1126 C1124 1.369 . S
C1126 C1128 1.392 . S
C1126 H1154 0.930 . S
C1127 C1123 1.373 . S
C1127 C1125 1.383 . S
C1127 H1155 0.931 . S
C1128 C1125 1.382 . S
C1128 C1126 1.392 . S
C1129 Eu1120 2.828 . S
C1129 C1123 1.505 . S
C1129 O1141 1.249 . S
C1129 O1142 1.244 . S
O1130 Eu1121 2.373 1_455 S
O1130 C1132 1.258 . S
O1131 Eu1120 2.392 . S
O1131 C1132 1.242 . S
C1132 O1130 1.258 . S
C1132 O1131 1.242 . S
O1133 Eu1120 2.418 1_655 S
O1133 C1137 1.244 . S
O1134 Eu1121 2.488 . S
O1134 C1150 1.249 . S
O1135 Eu1121 2.471 . S
O1135 C1150 1.244 . S
O1136 Eu1121 2.349 . S
O1136 C1137 1.265 . S
C1137 O1133 1.244 . S
C1137 O1136 1.265 . S
O1138 Eu1120 2.373 . S
O1138 C1151 1.258 1_455 S
O1139 Eu1121 2.392 . S
O1139 C1151 1.242 . S
O1140 Eu1121 2.418 1_455 S
O1140 C1122 1.244 . S
O1141 Eu1120 2.488 . S
O1141 C1129 1.249 . S
O1142 Eu1120 2.471 . S
O1142 C1129 1.244 . S
O1143 Eu1120 2.349 . S
O1143 C1122 1.265 . S
C1144 C1145 1.379 . S
C1144 C1148 1.373 . S
C1144 C1150 1.505 . S
C1145 C1144 1.379 . S
C1145 C1147 1.369 . S
C1145 H1156 0.930 . S
C1146 C1148 1.383 . S
C1146 C1149 1.382 . S
C1146 H1157 0.930 . S
C1147 C1145 1.369 . S
C1147 C1149 1.392 . S
C1147 H1158 0.930 . S
C1148 C1144 1.373 . S
C1148 C1146 1.383 . S
C1148 H1159 0.931 . S
C1149 C1146 1.382 . S
C1149 C1147 1.392 . S
C1150 Eu1121 2.828 . S
C1150 O1134 1.249 . S
C1150 O1135 1.244 . S
C1150 C1144 1.505 . S
C1151 O1138 1.258 1_655 S
C1151 O1139 1.242 . S
H1152 C1124 0.930 . S
H1153 C1125 0.930 . S
H1154 C1126 0.930 . S
H1155 C1127 0.931 . S
H1156 C1145 0.930 . S
H1157 C1146 0.930 . S
H1158 C1147 0.930 . S
H1159 C1148 0.931 . S
Eu1160 C1169 2.828 . S
Eu1160 O1171 2.392 . S
Eu1160 O1173 2.418 . S
Eu1160 O1178 2.373 . S
Eu1160 O1181 2.488 . S
Eu1160 O1182 2.471 . S
Eu1160 O1183 2.349 . S
Eu1161 O1170 2.373 . S
Eu1161 O1174 2.488 . S
Eu1161 O1175 2.471 . S
Eu1161 O1176 2.349 . S
Eu1161 O1179 2.392 . S
Eu1161 O1180 2.418 . S
Eu1161 C1190 2.828 . S
C1162 O1180 1.244 . S
C1162 O1183 1.265 . S
C1163 C1164 1.379 . S
C1163 C1167 1.373 . S
C1163 C1169 1.505 . S
C1164 C1163 1.379 . S
C1164 C1166 1.369 . S
C1164 H1192 0.930 . S
C1165 C1167 1.383 . S
C1165 C1168 1.382 . S
C1165 H1193 0.930 . S
C1166 C1164 1.369 . S
C1166 C1168 1.392 . S
C1166 H1194 0.930 . S
C1167 C1163 1.373 . S
C1167 C1165 1.383 . S
C1167 H1195 0.931 . S
C1168 C1165 1.382 . S
C1168 C1166 1.392 . S
C1169 Eu1160 2.828 . S
C1169 C1163 1.505 . S
C1169 O1181 1.249 . S
C1169 O1182 1.244 . S
O1170 Eu1161 2.373 . S
O1170 C1172 1.258 . S
O1171 Eu1160 2.392 . S
O1171 C1172 1.242 . S
C1172 O1170 1.258 . S
C1172 O1171 1.242 . S
O1173 Eu1160 2.418 . S
O1173 C1177 1.244 . S
O1174 Eu1161 2.488 . S
O1174 C1190 1.249 . S
O1175 Eu1161 2.471 . S
O1175 C1190 1.244 . S
O1176 Eu1161 2.349 . S
O1176 C1177 1.265 . S
C1177 O1173 1.244 . S
C1177 O1176 1.265 . S
O1178 Eu1160 2.373 . S
O1178 C1191 1.258 . S
O1179 Eu1161 2.392 . S
O1179 C1191 1.242 . S
O1180 Eu1161 2.418 . S
O1180 C1162 1.244 . S
O1181 Eu1160 2.488 . S
O1181 C1169 1.249 . S
O1182 Eu1160 2.471 . S
O1182 C1169 1.244 . S
O1183 Eu1160 2.349 . S
O1183 C1162 1.265 . S
C1184 C1185 1.379 . S
C1184 C1188 1.373 . S
C1184 C1190 1.505 . S
C1185 C1184 1.379 . S
C1185 C1187 1.369 . S
C1185 H1196 0.930 . S
C1186 C1188 1.383 . S
C1186 C1189 1.382 . S
C1186 H1197 0.930 . S
C1187 C1185 1.369 . S
C1187 C1189 1.392 . S
C1187 H1198 0.930 . S
C1188 C1184 1.373 . S
C1188 C1186 1.383 . S
C1188 H1199 0.931 . S
C1189 C1186 1.382 . S
C1189 C1187 1.392 . S
C1190 Eu1161 2.828 . S
C1190 O1174 1.249 . S
C1190 O1175 1.244 . S
C1190 C1184 1.505 . S
C1191 O1178 1.258 . S
C1191 O1179 1.242 . S
H1192 C1164 0.930 . S
H1193 C1165 0.930 . S
H1194 C1166 0.930 . S
H1195 C1167 0.931 . S
H1196 C1185 0.930 . S
H1197 C1186 0.930 . S
H1198 C1187 0.930 . S
H1199 C1188 0.931 . S
Eu1200 C1209 2.828 . S
Eu1200 O1211 2.392 . S
Eu1200 O1213 2.418 . S
Eu1200 O1218 2.373 . S
Eu1200 O1221 2.488 . S
Eu1200 O1222 2.471 . S
Eu1200 O1223 2.349 . S
Eu1201 O1210 2.373 . S
Eu1201 O1214 2.488 . S
Eu1201 O1215 2.471 . S
Eu1201 O1216 2.349 . S
Eu1201 O1219 2.392 . S
Eu1201 O1220 2.418 . S
Eu1201 C1230 2.828 . S
C1202 O1220 1.244 . S
C1202 O1223 1.265 . S
C1203 C1204 1.379 . S
C1203 C1207 1.373 . S
C1203 C1209 1.505 . S
C1204 C1203 1.379 . S
C1204 C1206 1.369 . S
C1204 H1232 0.930 . S
C1205 C1207 1.383 . S
C1205 C1208 1.382 . S
C1205 H1233 0.930 . S
C1206 C1204 1.369 . S
C1206 C1208 1.392 . S
C1206 H1234 0.930 . S
C1207 C1203 1.373 . S
C1207 C1205 1.383 . S
C1207 H1235 0.931 . S
C1208 C1205 1.382 . S
C1208 C1206 1.392 . S
C1209 Eu1200 2.828 . S
C1209 C1203 1.505 . S
C1209 O1221 1.249 . S
C1209 O1222 1.244 . S
O1210 Eu1201 2.373 . S
O1210 C1212 1.258 . S
O1211 Eu1200 2.392 . S
O1211 C1212 1.242 . S
C1212 O1210 1.258 . S
C1212 O1211 1.242 . S
O1213 Eu1200 2.418 . S
O1213 C1217 1.244 . S
O1214 Eu1201 2.488 . S
O1214 C1230 1.249 . S
O1215 Eu1201 2.471 . S
O1215 C1230 1.244 . S
O1216 Eu1201 2.349 . S
O1216 C1217 1.265 . S
C1217 O1213 1.244 . S
C1217 O1216 1.265 . S
O1218 Eu1200 2.373 . S
O1218 C1231 1.258 . S
O1219 Eu1201 2.392 . S
O1219 C1231 1.242 . S
O1220 Eu1201 2.418 . S
O1220 C1202 1.244 . S
O1221 Eu1200 2.488 . S
O1221 C1209 1.249 . S
O1222 Eu1200 2.471 . S
O1222 C1209 1.244 . S
O1223 Eu1200 2.349 . S
O1223 C1202 1.265 . S
C1224 C1225 1.379 . S
C1224 C1228 1.373 . S
C1224 C1230 1.505 . S
C1225 C1224 1.379 . S
C1225 C1227 1.369 . S
C1225 H1236 0.930 . S
C1226 C1228 1.383 . S
C1226 C1229 1.382 . S
C1226 H1237 0.930 . S
C1227 C1225 1.369 . S
C1227 C1229 1.392 . S
C1227 H1238 0.930 . S
C1228 C1224 1.373 . S
C1228 C1226 1.383 . S
C1228 H1239 0.931 . S
C1229 C1226 1.382 . S
C1229 C1227 1.392 . S
C1230 Eu1201 2.828 . S
C1230 O1214 1.249 . S
C1230 O1215 1.244 . S
C1230 C1224 1.505 . S
C1231 O1218 1.258 . S
C1231 O1219 1.242 . S
H1232 C1204 0.930 . S
H1233 C1205 0.930 . S
H1234 C1206 0.930 . S
H1235 C1207 0.931 . S
H1236 C1225 0.930 . S
H1237 C1226 0.930 . S
H1238 C1227 0.930 . S
H1239 C1228 0.931 . S
Eu1240 C1249 2.828 . S
Eu1240 O1251 2.365 1_655 S
Eu1240 O1253 2.418 . S
Eu1240 O1258 2.373 . S
Eu1240 O1261 2.488 . S
Eu1240 O1262 2.471 . S
Eu1240 O1263 2.349 . S
Eu1241 O1250 2.373 . S
Eu1241 O1254 2.488 . S
Eu1241 O1255 2.471 . S
Eu1241 O1256 2.349 1_455 S
Eu1241 O1259 2.392 1_455 S
Eu1241 O1260 2.418 . S
Eu1241 C1270 2.828 . S
C1242 O1260 1.244 . S
C1242 O1263 1.265 1_455 S
C1243 C1244 1.379 . S
C1243 C1247 1.373 . S
C1243 C1249 1.505 . S
C1244 C1243 1.379 . S
C1244 C1246 1.369 . S
C1244 H1272 0.930 . S
C1245 C1247 1.383 . S
C1245 C1248 1.382 . S
C1245 H1273 0.930 . S
C1246 C1244 1.369 . S
C1246 C1248 1.392 . S
C1246 H1274 0.930 . S
C1247 C1243 1.373 . S
C1247 C1245 1.383 . S
C1247 H1275 0.931 . S
C1248 C1245 1.382 . S
C1248 C1246 1.392 . S
C1249 Eu1240 2.828 . S
C1249 C1243 1.505 . S
C1249 O1261 1.249 . S
C1249 O1262 1.244 . S
O1250 Eu1241 2.373 . S
O1250 C1252 1.258 . S
O1251 Eu1240 2.365 1_455 S
O1251 C1252 1.271 . S
C1252 O1250 1.258 . S
C1252 O1251 1.271 . S
O1253 Eu1240 2.418 . S
O1253 C1257 1.244 . S
O1254 Eu1241 2.488 . S
O1254 C1270 1.249 . S
O1255 Eu1241 2.471 . S
O1255 C1270 1.244 . S
O1256 Eu1241 2.349 1_655 S
O1256 C1257 1.265 . S
C1257 O1253 1.244 . S
C1257 O1256 1.265 . S
O1258 Eu1240 2.373 . S
O1258 C1271 1.258 . S
O1259 Eu1241 2.392 1_655 S
O1259 C1271 1.242 . S
O1260 Eu1241 2.418 . S
O1260 C1242 1.244 . S
O1261 Eu1240 2.488 . S
O1261 C1249 1.249 . S
O1262 Eu1240 2.471 . S
O1262 C1249 1.244 . S
O1263 Eu1240 2.349 . S
O1263 C1242 1.265 1_655 S
C1264 C1265 1.379 . S
C1264 C1268 1.373 . S
C1264 C1270 1.505 . S
C1265 C1264 1.379 . S
C1265 C1267 1.369 . S
C1265 H1276 0.930 . S
C1266 C1268 1.383 . S
C1266 C1269 1.382 . S
C1266 H1277 0.930 . S
C1267 C1265 1.369 . S
C1267 C1269 1.392 . S
C1267 H1278 0.930 . S
C1268 C1264 1.373 . S
C1268 C1266 1.383 . S
C1268 H1279 0.931 . S
C1269 C1266 1.382 . S
C1269 C1267 1.392 . S
C1270 Eu1241 2.828 . S
C1270 O1254 1.249 . S
C1270 O1255 1.244 . S
C1270 C1264 1.505 . S
C1271 O1258 1.258 . S
C1271 O1259 1.242 . S
H1272 C1244 0.930 . S
H1273 C1245 0.930 . S
H1274 C1246 0.930 . S
H1275 C1247 0.931 . S
H1276 C1265 0.930 . S
H1277 C1266 0.930 . S
H1278 C1267 0.930 . S
H1279 C1268 0.931 . S
Eu1280 C1289 2.828 . S
Eu1280 O1291 2.392 . S
Eu1280 O1293 2.418 . S
Eu1280 O1298 2.373 . S
Eu1280 O1301 2.488 . S
Eu1280 O1302 2.471 . S
Eu1280 O1303 2.349 . S
Eu1281 O1290 2.373 . S
Eu1281 O1294 2.488 . S
Eu1281 O1295 2.471 . S
Eu1281 O1296 2.349 . S
Eu1281 O1299 2.392 . S
Eu1281 O1300 2.418 . S
Eu1281 C1310 2.828 . S
C1282 O1300 1.244 . S
C1282 O1303 1.265 . S
C1283 C1284 1.379 . S
C1283 C1287 1.373 . S
C1283 C1289 1.505 . S
C1284 C1283 1.379 . S
C1284 C1286 1.369 . S
C1284 H1312 0.930 . S
C1285 C1287 1.383 . S
C1285 C1288 1.382 . S
C1285 H1313 0.930 . S
C1286 C1284 1.369 . S
C1286 C1288 1.392 . S
C1286 H1314 0.930 . S
C1287 C1283 1.373 . S
C1287 C1285 1.383 . S
C1287 H1315 0.931 . S
C1288 C1285 1.382 . S
C1288 C1286 1.392 . S
C1289 Eu1280 2.828 . S
C1289 C1283 1.505 . S
C1289 O1301 1.249 . S
C1289 O1302 1.244 . S
O1290 Eu1281 2.373 . S
O1290 C1292 1.258 . S
O1291 Eu1280 2.392 . S
O1291 C1292 1.242 . S
C1292 O1290 1.258 . S
C1292 O1291 1.242 . S
O1293 Eu1280 2.418 . S
O1293 C1297 1.244 . S
O1294 Eu1281 2.488 . S
O1294 C1310 1.249 . S
O1295 Eu1281 2.471 . S
O1295 C1310 1.244 . S
O1296 Eu1281 2.349 . S
O1296 C1297 1.265 . S
C1297 O1293 1.244 . S
C1297 O1296 1.265 . S
O1298 Eu1280 2.373 . S
O1298 C1311 1.258 . S
O1299 Eu1281 2.392 . S
O1299 C1311 1.242 . S
O1300 Eu1281 2.418 . S
O1300 C1282 1.244 . S
O1301 Eu1280 2.488 . S
O1301 C1289 1.249 . S
O1302 Eu1280 2.471 . S
O1302 C1289 1.244 . S
O1303 Eu1280 2.349 . S
O1303 C1282 1.265 . S
C1304 C1305 1.379 . S
C1304 C1308 1.373 . S
C1304 C1310 1.505 . S
C1305 C1304 1.379 . S
C1305 C1307 1.369 . S
C1305 H1316 0.930 . S
C1306 C1308 1.383 . S
C1306 C1309 1.382 . S
C1306 H1317 0.930 . S
C1307 C1305 1.369 . S
C1307 C1309 1.392 . S
C1307 H1318 0.930 . S
C1308 C1304 1.373 . S
C1308 C1306 1.383 . S
C1308 H1319 0.931 . S
C1309 C1306 1.382 . S
C1309 C1307 1.392 . S
C1310 Eu1281 2.828 . S
C1310 O1294 1.249 . S
C1310 O1295 1.244 . S
C1310 C1304 1.505 . S
C1311 O1298 1.258 . S
C1311 O1299 1.242 . S
H1312 C1284 0.930 . S
H1313 C1285 0.930 . S
H1314 C1286 0.930 . S
H1315 C1287 0.931 . S
H1316 C1305 0.930 . S
H1317 C1306 0.930 . S
H1318 C1307 0.930 . S
H1319 C1308 0.931 . S
Eu1320 C1329 2.828 . S
Eu1320 O1331 2.392 . S
Eu1320 O1333 2.418 1_554 S
Eu1320 O1338 2.373 1_554 S
Eu1320 O1341 2.488 . S
Eu1320 O1342 2.471 . S
Eu1320 O1343 2.349 . S
Eu1321 O1330 2.373 . S
Eu1321 O1334 2.488 . S
Eu1321 O1335 2.471 . S
Eu1321 O1336 2.349 . S
Eu1321 O1339 2.392 . S
Eu1321 O1340 2.418 . S
Eu1321 C1350 2.828 . S
C1322 O1340 1.244 1_554 S
C1322 O1343 1.265 . S
C1323 C1324 1.379 . S
C1323 C1327 1.373 . S
C1323 C1329 1.505 . S
C1324 C1323 1.379 . S
C1324 C1326 1.369 . S
C1324 H1352 0.930 . S
C1325 C1327 1.383 . S
C1325 C1328 1.382 . S
C1325 H1353 0.930 . S
C1326 C1324 1.369 . S
C1326 C1328 1.392 . S
C1326 H1354 0.930 . S
C1327 C1323 1.373 . S
C1327 C1325 1.383 . S
C1327 H1355 0.931 . S
C1328 C1325 1.382 . S
C1328 C1326 1.392 . S
C1329 Eu1320 2.828 . S
C1329 C1323 1.505 . S
C1329 O1341 1.249 . S
C1329 O1342 1.244 . S
O1330 Eu1321 2.373 . S
O1330 C1332 1.258 . S
O1331 Eu1320 2.392 . S
O1331 C1332 1.242 1_554 S
C1332 O1330 1.258 . S
C1332 O1331 1.242 1_556 S
O1333 Eu1320 2.418 1_556 S
O1333 C1337 1.244 . S
O1334 Eu1321 2.488 . S
O1334 C1350 1.249 . S
O1335 Eu1321 2.471 . S
O1335 C1350 1.244 . S
O1336 Eu1321 2.349 . S
O1336 C1337 1.265 . S
C1337 O1333 1.244 . S
C1337 O1336 1.265 . S
O1338 Eu1320 2.373 1_556 S
O1338 C1351 1.258 . S
O1339 Eu1321 2.392 . S
O1339 C1351 1.242 . S
O1340 Eu1321 2.418 . S
O1340 C1322 1.244 1_556 S
O1341 Eu1320 2.488 . S
O1341 C1329 1.249 . S
O1342 Eu1320 2.471 . S
O1342 C1329 1.244 . S
O1343 Eu1320 2.349 . S
O1343 C1322 1.265 . S
C1344 C1345 1.379 . S
C1344 C1348 1.373 . S
C1344 C1350 1.505 . S
C1345 C1344 1.379 . S
C1345 C1347 1.369 . S
C1345 H1356 0.930 . S
C1346 C1348 1.383 . S
C1346 C1349 1.382 . S
C1346 H1357 0.930 . S
C1347 C1345 1.369 . S
C1347 C1349 1.392 . S
C1347 H1358 0.930 . S
C1348 C1344 1.373 . S
C1348 C1346 1.383 . S
C1348 H1359 0.931 . S
C1349 C1346 1.382 . S
C1349 C1347 1.392 . S
C1350 Eu1321 2.828 . S
C1350 O1334 1.249 . S
C1350 O1335 1.244 . S
C1350 C1344 1.505 . S
C1351 O1338 1.258 . S
C1351 O1339 1.242 . S
H1352 C1324 0.930 . S
H1353 C1325 0.930 . S
H1354 C1326 0.930 . S
H1355 C1327 0.931 . S
H1356 C1345 0.930 . S
H1357 C1346 0.930 . S
H1358 C1347 0.930 . S
H1359 C1348 0.931 . S
Eu1360 C1369 2.828 . S
Eu1360 O1371 2.392 . S
Eu1360 O1373 2.418 . S
Eu1360 O1378 2.373 . S
Eu1360 O1381 2.488 . S
Eu1360 O1382 2.471 . S
Eu1360 O1383 2.349 . S
Eu1361 O1370 2.373 . S
Eu1361 O1374 2.488 . S
Eu1361 O1375 2.471 . S
Eu1361 O1376 2.349 . S
Eu1361 O1379 2.392 . S
Eu1361 O1380 2.418 . S
Eu1361 C1390 2.828 . S
C1362 O1380 1.244 . S
C1362 O1383 1.265 . S
C1363 C1364 1.379 . S
C1363 C1367 1.373 . S
C1363 C1369 1.505 . S
C1364 C1363 1.379 . S
C1364 C1366 1.369 . S
C1364 H1392 0.930 . S
C1365 C1367 1.383 . S
C1365 C1368 1.382 . S
C1365 H1393 0.930 . S
C1366 C1364 1.369 . S
C1366 C1368 1.392 . S
C1366 H1394 0.930 . S
C1367 C1363 1.373 . S
C1367 C1365 1.383 . S
C1367 H1395 0.931 . S
C1368 C1365 1.382 . S
C1368 C1366 1.392 . S
C1369 Eu1360 2.828 . S
C1369 C1363 1.505 . S
C1369 O1381 1.249 . S
C1369 O1382 1.244 . S
O1370 Eu1361 2.373 . S
O1370 C1372 1.258 . S
O1371 Eu1360 2.392 . S
O1371 C1372 1.242 . S
C1372 O1370 1.258 . S
C1372 O1371 1.242 . S
O1373 Eu1360 2.418 . S
O1373 C1377 1.244 . S
O1374 Eu1361 2.488 . S
O1374 C1390 1.249 . S
O1375 Eu1361 2.471 . S
O1375 C1390 1.244 . S
O1376 Eu1361 2.349 . S
O1376 C1377 1.265 . S
C1377 O1373 1.244 . S
C1377 O1376 1.265 . S
O1378 Eu1360 2.373 . S
O1378 C1391 1.258 . S
O1379 Eu1361 2.392 . S
O1379 C1391 1.242 . S
O1380 Eu1361 2.418 . S
O1380 C1362 1.244 . S
O1381 Eu1360 2.488 . S
O1381 C1369 1.249 . S
O1382 Eu1360 2.471 . S
O1382 C1369 1.244 . S
O1383 Eu1360 2.349 . S
O1383 C1362 1.265 . S
C1384 C1385 1.379 . S
C1384 C1388 1.373 . S
C1384 C1390 1.505 . S
C1385 C1384 1.379 . S
C1385 C1387 1.369 . S
C1385 H1396 0.930 . S
C1386 C1388 1.383 . S
C1386 C1389 1.382 . S
C1386 H1397 0.930 . S
C1387 C1385 1.369 . S
C1387 C1389 1.392 . S
C1387 H1398 0.930 . S
C1388 C1384 1.373 . S
C1388 C1386 1.383 . S
C1388 H1399 0.931 . S
C1389 C1386 1.382 . S
C1389 C1387 1.392 . S
C1390 Eu1361 2.828 . S
C1390 O1374 1.249 . S
C1390 O1375 1.244 . S
C1390 C1384 1.505 . S
C1391 O1378 1.258 . S
C1391 O1379 1.242 . S
H1392 C1364 0.930 . S
H1393 C1365 0.930 . S
H1394 C1366 0.930 . S
H1395 C1367 0.931 . S
H1396 C1385 0.930 . S
H1397 C1386 0.930 . S
H1398 C1387 0.930 . S
H1399 C1388 0.931 . S
Eu1400 C1409 2.828 . S
Eu1400 O1411 2.392 . S
Eu1400 O1413 2.418 . S
Eu1400 O1418 2.373 . S
Eu1400 O1421 2.488 . S
Eu1400 O1422 2.471 . S
Eu1400 O1423 2.349 . S
Eu1401 O1410 2.373 . S
Eu1401 O1414 2.488 . S
Eu1401 O1415 2.471 . S
Eu1401 O1416 2.349 . S
Eu1401 O1419 2.392 . S
Eu1401 O1420 2.418 . S
Eu1401 C1430 2.828 . S
C1402 O1420 1.244 . S
C1402 O1423 1.265 . S
C1403 C1404 1.379 . S
C1403 C1407 1.373 . S
C1403 C1409 1.505 . S
C1404 C1403 1.379 . S
C1404 C1406 1.369 . S
C1404 H1432 0.930 . S
C1405 C1407 1.383 . S
C1405 C1408 1.382 . S
C1405 H1433 0.930 . S
C1406 C1404 1.369 . S
C1406 C1408 1.392 . S
C1406 H1434 0.930 . S
C1407 C1403 1.373 . S
C1407 C1405 1.383 . S
C1407 H1435 0.931 . S
C1408 C1405 1.382 . S
C1408 C1406 1.392 . S
C1409 Eu1400 2.828 . S
C1409 C1403 1.505 . S
C1409 O1421 1.249 . S
C1409 O1422 1.244 . S
O1410 Eu1401 2.373 . S
O1410 C1412 1.258 . S
O1411 Eu1400 2.392 . S
O1411 C1412 1.242 . S
C1412 O1410 1.258 . S
C1412 O1411 1.242 . S
O1413 Eu1400 2.418 . S
O1413 C1417 1.244 . S
O1414 Eu1401 2.488 . S
O1414 C1430 1.249 . S
O1415 Eu1401 2.471 . S
O1415 C1430 1.244 . S
O1416 Eu1401 2.349 . S
O1416 C1417 1.265 . S
C1417 O1413 1.244 . S
C1417 O1416 1.265 . S
O1418 Eu1400 2.373 . S
O1418 C1431 1.258 . S
O1419 Eu1401 2.392 . S
O1419 C1431 1.242 . S
O1420 Eu1401 2.418 . S
O1420 C1402 1.244 . S
O1421 Eu1400 2.488 . S
O1421 C1409 1.249 . S
O1422 Eu1400 2.471 . S
O1422 C1409 1.244 . S
O1423 Eu1400 2.349 . S
O1423 C1402 1.265 . S
C1424 C1425 1.379 . S
C1424 C1428 1.373 . S
C1424 C1430 1.505 . S
C1425 C1424 1.379 . S
C1425 C1427 1.369 . S
C1425 H1436 0.930 . S
C1426 C1428 1.383 . S
C1426 C1429 1.382 . S
C1426 H1437 0.930 . S
C1427 C1425 1.369 . S
C1427 C1429 1.392 . S
C1427 H1438 0.930 . S
C1428 C1424 1.373 . S
C1428 C1426 1.383 . S
C1428 H1439 0.931 . S
C1429 C1426 1.382 . S
C1429 C1427 1.392 . S
C1430 Eu1401 2.828 . S
C1430 O1414 1.249 . S
C1430 O1415 1.244 . S
C1430 C1424 1.505 . S
C1431 O1418 1.258 . S
C1431 O1419 1.242 . S
H1432 C1404 0.930 . S
H1433 C1405 0.930 . S
H1434 C1406 0.930 . S
H1435 C1407 0.931 . S
H1436 C1425 0.930 . S
H1437 C1426 0.930 . S
H1438 C1427 0.930 . S
H1439 C1428 0.931 . S
Eu1440 C1449 2.828 . S
Eu1440 O1451 2.392 . S
Eu1440 O1453 2.418 . S
Eu1440 O1458 2.373 . S
Eu1440 O1461 2.488 . S
Eu1440 O1462 2.471 . S
Eu1440 O1463 2.349 . S
Eu1441 O1450 2.373 . S
Eu1441 O1454 2.488 . S
Eu1441 O1455 2.471 . S
Eu1441 O1456 2.349 . S
Eu1441 O1459 2.392 . S
Eu1441 O1460 2.418 . S
Eu1441 C1470 2.828 . S
C1442 O1460 1.244 . S
C1442 O1463 1.265 . S
C1443 C1444 1.379 . S
C1443 C1447 1.373 . S
C1443 C1449 1.505 . S
C1444 C1443 1.379 . S
C1444 C1446 1.369 . S
C1444 H1472 0.930 . S
C1445 C1447 1.383 . S
C1445 C1448 1.382 . S
C1445 H1473 0.930 . S
C1446 C1444 1.369 . S
C1446 C1448 1.392 . S
C1446 H1474 0.930 . S
C1447 C1443 1.373 . S
C1447 C1445 1.383 . S
C1447 H1475 0.931 . S
C1448 C1445 1.382 . S
C1448 C1446 1.392 . S
C1449 Eu1440 2.828 . S
C1449 C1443 1.505 . S
C1449 O1461 1.249 . S
C1449 O1462 1.244 . S
O1450 Eu1441 2.373 . S
O1450 C1452 1.258 . S
O1451 Eu1440 2.392 . S
O1451 C1452 1.242 . S
C1452 O1450 1.258 . S
C1452 O1451 1.242 . S
O1453 Eu1440 2.418 . S
O1453 C1457 1.244 . S
O1454 Eu1441 2.488 . S
O1454 C1470 1.249 . S
O1455 Eu1441 2.471 . S
O1455 C1470 1.244 . S
O1456 Eu1441 2.349 . S
O1456 C1457 1.265 . S
C1457 O1453 1.244 . S
C1457 O1456 1.265 . S
O1458 Eu1440 2.373 . S
O1458 C1471 1.258 . S
O1459 Eu1441 2.392 . S
O1459 C1471 1.242 . S
O1460 Eu1441 2.418 . S
O1460 C1442 1.244 . S
O1461 Eu1440 2.488 . S
O1461 C1449 1.249 . S
O1462 Eu1440 2.471 . S
O1462 C1449 1.244 . S
O1463 Eu1440 2.349 . S
O1463 C1442 1.265 . S
C1464 C1465 1.379 . S
C1464 C1468 1.373 . S
C1464 C1470 1.505 . S
C1465 C1464 1.379 . S
C1465 C1467 1.369 . S
C1465 H1476 0.930 . S
C1466 C1468 1.383 . S
C1466 C1469 1.382 . S
C1466 H1477 0.930 . S
C1467 C1465 1.369 . S
C1467 C1469 1.392 . S
C1467 H1478 0.930 . S
C1468 C1464 1.373 . S
C1468 C1466 1.383 . S
C1468 H1479 0.931 . S
C1469 C1466 1.382 . S
C1469 C1467 1.392 . S
C1470 Eu1441 2.828 . S
C1470 O1454 1.249 . S
C1470 O1455 1.244 . S
C1470 C1464 1.505 . S
C1471 O1458 1.258 . S
C1471 O1459 1.242 . S
H1472 C1444 0.930 . S
H1473 C1445 0.930 . S
H1474 C1446 0.930 . S
H1475 C1447 0.931 . S
H1476 C1465 0.930 . S
H1477 C1466 0.930 . S
H1478 C1467 0.930 . S
H1479 C1468 0.931 . S
Eu1480 C1489 2.828 . S
Eu1480 O1491 2.392 . S
Eu1480 O1493 2.418 . S
Eu1480 O1498 2.373 . S
Eu1480 O1501 2.488 . S
Eu1480 O1502 2.471 . S
Eu1480 O1503 2.349 . S
Eu1481 O1490 2.373 . S
Eu1481 O1494 2.488 . S
Eu1481 O1495 2.471 . S
Eu1481 O1496 2.349 . S
Eu1481 O1499 2.392 . S
Eu1481 O1500 2.418 . S
Eu1481 C1510 2.828 . S
C1482 O1500 1.244 . S
C1482 O1503 1.265 . S
C1483 C1484 1.379 . S
C1483 C1487 1.373 . S
C1483 C1489 1.505 . S
C1484 C1483 1.379 . S
C1484 C1486 1.369 . S
C1484 H1512 0.930 . S
C1485 C1487 1.383 . S
C1485 C1488 1.382 . S
C1485 H1513 0.930 . S
C1486 C1484 1.369 . S
C1486 C1488 1.392 . S
C1486 H1514 0.930 . S
C1487 C1483 1.373 . S
C1487 C1485 1.383 . S
C1487 H1515 0.931 . S
C1488 C1485 1.382 . S
C1488 C1486 1.392 . S
C1489 Eu1480 2.828 . S
C1489 C1483 1.505 . S
C1489 O1501 1.249 . S
C1489 O1502 1.244 . S
O1490 Eu1481 2.373 . S
O1490 C1492 1.258 . S
O1491 Eu1480 2.392 . S
O1491 C1492 1.242 . S
C1492 O1490 1.258 . S
C1492 O1491 1.242 . S
O1493 Eu1480 2.418 . S
O1493 C1497 1.244 . S
O1494 Eu1481 2.488 . S
O1494 C1510 1.249 . S
O1495 Eu1481 2.471 . S
O1495 C1510 1.244 . S
O1496 Eu1481 2.349 . S
O1496 C1497 1.265 . S
C1497 O1493 1.244 . S
C1497 O1496 1.265 . S
O1498 Eu1480 2.373 . S
O1498 C1511 1.258 . S
O1499 Eu1481 2.392 . S
O1499 C1511 1.242 . S
O1500 Eu1481 2.418 . S
O1500 C1482 1.244 . S
O1501 Eu1480 2.488 . S
O1501 C1489 1.249 . S
O1502 Eu1480 2.471 . S
O1502 C1489 1.244 . S
O1503 Eu1480 2.349 . S
O1503 C1482 1.265 . S
C1504 C1505 1.379 . S
C1504 C1508 1.373 . S
C1504 C1510 1.505 . S
C1505 C1504 1.379 . S
C1505 C1507 1.369 . S
C1505 H1516 0.930 . S
C1506 C1508 1.383 . S
C1506 C1509 1.382 . S
C1506 H1517 0.930 . S
C1507 C1505 1.369 . S
C1507 C1509 1.392 . S
C1507 H1518 0.930 . S
C1508 C1504 1.373 . S
C1508 C1506 1.383 . S
C1508 H1519 0.931 . S
C1509 C1506 1.382 . S
C1509 C1507 1.392 . S
C1510 Eu1481 2.828 . S
C1510 O1494 1.249 . S
C1510 O1495 1.244 . S
C1510 C1504 1.505 . S
C1511 O1498 1.258 . S
C1511 O1499 1.242 . S
H1512 C1484 0.930 . S
H1513 C1485 0.930 . S
H1514 C1486 0.930 . S
H1515 C1487 0.931 . S
H1516 C1505 0.930 . S
H1517 C1506 0.930 . S
H1518 C1507 0.930 . S
H1519 C1508 0.931 . S
Eu1520 C1529 2.828 . S
Eu1520 O1531 2.392 . S
Eu1520 O1533 2.418 . S
Eu1520 O1538 2.373 . S
Eu1520 O1541 2.488 . S
Eu1520 O1542 2.471 . S
Eu1520 O1543 2.349 . S
Eu1521 O1530 2.373 . S
Eu1521 O1534 2.488 . S
Eu1521 O1535 2.471 . S
Eu1521 O1536 2.349 . S
Eu1521 O1539 2.392 . S
Eu1521 O1540 2.418 . S
Eu1521 C1550 2.828 . S
C1522 O1540 1.244 . S
C1522 O1543 1.265 . S
C1523 C1524 1.379 . S
C1523 C1527 1.373 . S
C1523 C1529 1.505 . S
C1524 C1523 1.379 . S
C1524 C1526 1.369 . S
C1524 H1552 0.930 . S
C1525 C1527 1.383 . S
C1525 C1528 1.382 . S
C1525 H1553 0.930 . S
C1526 C1524 1.369 . S
C1526 C1528 1.392 . S
C1526 H1554 0.930 . S
C1527 C1523 1.373 . S
C1527 C1525 1.383 . S
C1527 H1555 0.931 . S
C1528 C1525 1.382 . S
C1528 C1526 1.392 . S
C1529 Eu1520 2.828 . S
C1529 C1523 1.505 . S
C1529 O1541 1.249 . S
C1529 O1542 1.244 . S
O1530 Eu1521 2.373 . S
O1530 C1532 1.258 . S
O1531 Eu1520 2.392 . S
O1531 C1532 1.242 . S
C1532 O1530 1.258 . S
C1532 O1531 1.242 . S
O1533 Eu1520 2.418 . S
O1533 C1537 1.244 . S
O1534 Eu1521 2.488 . S
O1534 C1550 1.249 . S
O1535 Eu1521 2.471 . S
O1535 C1550 1.244 . S
O1536 Eu1521 2.349 . S
O1536 C1537 1.265 . S
C1537 O1533 1.244 . S
C1537 O1536 1.265 . S
O1538 Eu1520 2.373 . S
O1538 C1551 1.258 . S
O1539 Eu1521 2.392 . S
O1539 C1551 1.242 . S
O1540 Eu1521 2.418 . S
O1540 C1522 1.244 . S
O1541 Eu1520 2.488 . S
O1541 C1529 1.249 . S
O1542 Eu1520 2.471 . S
O1542 C1529 1.244 . S
O1543 Eu1520 2.349 . S
O1543 C1522 1.265 . S
C1544 C1545 1.379 . S
C1544 C1548 1.373 . S
C1544 C1550 1.505 . S
C1545 C1544 1.379 . S
C1545 C1547 1.369 . S
C1545 H1556 0.930 . S
C1546 C1548 1.383 . S
C1546 C1549 1.382 . S
C1546 H1557 0.930 . S
C1547 C1545 1.369 . S
C1547 C1549 1.392 . S
C1547 H1558 0.930 . S
C1548 C1544 1.373 . S
C1548 C1546 1.383 . S
C1548 H1559 0.931 . S
C1549 C1546 1.382 . S
C1549 C1547 1.392 . S
C1550 Eu1521 2.828 . S
C1550 O1534 1.249 . S
C1550 O1535 1.244 . S
C1550 C1544 1.505 . S
C1551 O1538 1.258 . S
C1551 O1539 1.242 . S
H1552 C1524 0.930 . S
H1553 C1525 0.930 . S
H1554 C1526 0.930 . S
H1555 C1527 0.931 . S
H1556 C1545 0.930 . S
H1557 C1546 0.930 . S
H1558 C1547 0.930 . S
H1559 C1548 0.931 . S
Eu1560 C1569 2.828 . S
Eu1560 O1571 2.392 . S
Eu1560 O1573 2.418 . S
Eu1560 O1578 2.373 . S
Eu1560 O1581 2.488 . S
Eu1560 O1582 2.471 . S
Eu1560 O1583 2.349 . S
Eu1561 O1570 2.373 . S
Eu1561 O1574 2.488 . S
Eu1561 O1575 2.471 . S
Eu1561 O1576 2.349 . S
Eu1561 O1579 2.392 . S
Eu1561 O1580 2.418 . S
Eu1561 C1590 2.828 . S
C1562 O1580 1.244 . S
C1562 O1583 1.265 . S
C1563 C1564 1.379 . S
C1563 C1567 1.373 . S
C1563 C1569 1.505 . S
C1564 C1563 1.379 . S
C1564 C1566 1.369 . S
C1564 H1592 0.930 . S
C1565 C1567 1.383 . S
C1565 C1568 1.382 . S
C1565 H1593 0.930 . S
C1566 C1564 1.369 . S
C1566 C1568 1.392 . S
C1566 H1594 0.930 . S
C1567 C1563 1.373 . S
C1567 C1565 1.383 . S
C1567 H1595 0.931 . S
C1568 C1565 1.382 . S
C1568 C1566 1.392 . S
C1569 Eu1560 2.828 . S
C1569 C1563 1.505 . S
C1569 O1581 1.249 . S
C1569 O1582 1.244 . S
O1570 Eu1561 2.373 . S
O1570 C1572 1.258 . S
O1571 Eu1560 2.392 . S
O1571 C1572 1.242 . S
C1572 O1570 1.258 . S
C1572 O1571 1.242 . S
O1573 Eu1560 2.418 . S
O1573 C1577 1.244 . S
O1574 Eu1561 2.488 . S
O1574 C1590 1.249 . S
O1575 Eu1561 2.471 . S
O1575 C1590 1.244 . S
O1576 Eu1561 2.349 . S
O1576 C1577 1.265 . S
C1577 O1573 1.244 . S
C1577 O1576 1.265 . S
O1578 Eu1560 2.373 . S
O1578 C1591 1.258 . S
O1579 Eu1561 2.392 . S
O1579 C1591 1.242 . S
O1580 Eu1561 2.418 . S
O1580 C1562 1.244 . S
O1581 Eu1560 2.488 . S
O1581 C1569 1.249 . S
O1582 Eu1560 2.471 . S
O1582 C1569 1.244 . S
O1583 Eu1560 2.349 . S
O1583 C1562 1.265 . S
C1584 C1585 1.379 . S
C1584 C1588 1.373 . S
C1584 C1590 1.505 . S
C1585 C1584 1.379 . S
C1585 C1587 1.369 . S
C1585 H1596 0.930 . S
C1586 C1588 1.383 . S
C1586 C1589 1.382 . S
C1586 H1597 0.930 . S
C1587 C1585 1.369 . S
C1587 C1589 1.392 . S
C1587 H1598 0.930 . S
C1588 C1584 1.373 . S
C1588 C1586 1.383 . S
C1588 H1599 0.931 . S
C1589 C1586 1.382 . S
C1589 C1587 1.392 . S
C1590 Eu1561 2.828 . S
C1590 O1574 1.249 . S
C1590 O1575 1.244 . S
C1590 C1584 1.505 . S
C1591 O1578 1.258 . S
C1591 O1579 1.242 . S
H1592 C1564 0.930 . S
H1593 C1565 0.930 . S
H1594 C1566 0.930 . S
H1595 C1567 0.931 . S
H1596 C1585 0.930 . S
H1597 C1586 0.930 . S
H1598 C1587 0.930 . S
H1599 C1588 0.931 . S
Eu1600 C1609 2.828 . S
Eu1600 O1611 2.392 1_655 S
Eu1600 O1613 2.418 . S
Eu1600 O1618 2.373 . S
Eu1600 O1621 2.488 . S
Eu1600 O1622 2.471 . S
Eu1600 O1623 2.349 1_655 S
Eu1601 O1610 2.373 . S
Eu1601 O1614 2.488 . S
Eu1601 O1615 2.471 . S
Eu1601 O1616 2.349 . S
Eu1601 O1619 2.365 1_455 S
Eu1601 O1620 2.418 . S
Eu1601 C1630 2.828 . S
C1602 O1620 1.244 . S
C1602 O1623 1.265 . S
C1603 C1604 1.379 . S
C1603 C1607 1.373 . S
C1603 C1609 1.505 . S
C1604 C1603 1.379 . S
C1604 C1606 1.369 . S
C1604 H1632 0.930 . S
C1605 C1607 1.383 . S
C1605 C1608 1.382 . S
C1605 H1633 0.930 . S
C1606 C1604 1.369 . S
C1606 C1608 1.392 . S
C1606 H1634 0.930 . S
C1607 C1603 1.373 . S
C1607 C1605 1.383 . S
C1607 H1635 0.931 . S
C1608 C1605 1.382 . S
C1608 C1606 1.392 . S
C1609 Eu1600 2.828 . S
C1609 C1603 1.505 . S
C1609 O1621 1.249 . S
C1609 O1622 1.244 . S
O1610 Eu1601 2.373 . S
O1610 C1612 1.258 . S
O1611 Eu1600 2.392 1_455 S
O1611 C1612 1.242 . S
C1612 O1610 1.258 . S
C1612 O1611 1.242 . S
O1613 Eu1600 2.418 . S
O1613 C1617 1.244 . S
O1614 Eu1601 2.488 . S
O1614 C1630 1.249 . S
O1615 Eu1601 2.471 . S
O1615 C1630 1.244 . S
O1616 Eu1601 2.349 . S
O1616 C1617 1.265 1_455 S
C1617 O1613 1.244 . S
C1617 O1616 1.265 1_655 S
O1618 Eu1600 2.373 . S
O1618 C1631 1.258 . S
O1619 Eu1601 2.365 1_655 S
O1619 C1631 1.271 . S
O1620 Eu1601 2.418 . S
O1620 C1602 1.244 . S
O1621 Eu1600 2.488 . S
O1621 C1609 1.249 . S
O1622 Eu1600 2.471 . S
O1622 C1609 1.244 . S
O1623 Eu1600 2.349 1_455 S
O1623 C1602 1.265 . S
C1624 C1625 1.379 . S
C1624 C1628 1.373 . S
C1624 C1630 1.505 . S
C1625 C1624 1.379 . S
C1625 C1627 1.369 . S
C1625 H1636 0.930 . S
C1626 C1628 1.383 . S
C1626 C1629 1.382 . S
C1626 H1637 0.930 . S
C1627 C1625 1.369 . S
C1627 C1629 1.392 . S
C1627 H1638 0.930 . S
C1628 C1624 1.373 . S
C1628 C1626 1.383 . S
C1628 H1639 0.931 . S
C1629 C1626 1.382 . S
C1629 C1627 1.392 . S
C1630 Eu1601 2.828 . S
C1630 O1614 1.249 . S
C1630 O1615 1.244 . S
C1630 C1624 1.505 . S
C1631 O1618 1.258 . S
C1631 O1619 1.271 . S
H1632 C1604 0.930 . S
H1633 C1605 0.930 . S
H1634 C1606 0.930 . S
H1635 C1607 0.931 . S
H1636 C1625 0.930 . S
H1637 C1626 0.930 . S
H1638 C1627 0.930 . S
H1639 C1628 0.931 . S
Eu1640 C1649 2.828 . S
Eu1640 O1651 2.392 . S
Eu1640 O1653 2.418 . S
Eu1640 O1658 2.373 . S
Eu1640 O1661 2.488 . S
Eu1640 O1662 2.471 . S
Eu1640 O1663 2.349 . S
Eu1641 O1650 2.373 . S
Eu1641 O1654 2.488 . S
Eu1641 O1655 2.471 . S
Eu1641 O1656 2.349 . S
Eu1641 O1659 2.392 . S
Eu1641 O1660 2.418 . S
Eu1641 C1670 2.828 . S
C1642 O1660 1.244 . S
C1642 O1663 1.265 . S
C1643 C1644 1.379 . S
C1643 C1647 1.373 . S
C1643 C1649 1.505 . S
C1644 C1643 1.379 . S
C1644 C1646 1.369 . S
C1644 H1672 0.930 . S
C1645 C1647 1.383 . S
C1645 C1648 1.382 . S
C1645 H1673 0.930 . S
C1646 C1644 1.369 . S
C1646 C1648 1.392 . S
C1646 H1674 0.930 . S
C1647 C1643 1.373 . S
C1647 C1645 1.383 . S
C1647 H1675 0.931 . S
C1648 C1645 1.382 . S
C1648 C1646 1.392 . S
C1649 Eu1640 2.828 . S
C1649 C1643 1.505 . S
C1649 O1661 1.249 . S
C1649 O1662 1.244 . S
O1650 Eu1641 2.373 . S
O1650 C1652 1.258 . S
O1651 Eu1640 2.392 . S
O1651 C1652 1.242 . S
C1652 O1650 1.258 . S
C1652 O1651 1.242 . S
O1653 Eu1640 2.418 . S
O1653 C1657 1.244 . S
O1654 Eu1641 2.488 . S
O1654 C1670 1.249 . S
O1655 Eu1641 2.471 . S
O1655 C1670 1.244 . S
O1656 Eu1641 2.349 . S
O1656 C1657 1.265 . S
C1657 O1653 1.244 . S
C1657 O1656 1.265 . S
O1658 Eu1640 2.373 . S
O1658 C1671 1.258 . S
O1659 Eu1641 2.392 . S
O1659 C1671 1.242 . S
O1660 Eu1641 2.418 . S
O1660 C1642 1.244 . S
O1661 Eu1640 2.488 . S
O1661 C1649 1.249 . S
O1662 Eu1640 2.471 . S
O1662 C1649 1.244 . S
O1663 Eu1640 2.349 . S
O1663 C1642 1.265 . S
C1664 C1665 1.379 . S
C1664 C1668 1.373 . S
C1664 C1670 1.505 . S
C1665 C1664 1.379 . S
C1665 C1667 1.369 . S
C1665 H1676 0.930 . S
C1666 C1668 1.383 . S
C1666 C1669 1.382 . S
C1666 H1677 0.930 . S
C1667 C1665 1.369 . S
C1667 C1669 1.392 . S
C1667 H1678 0.930 . S
C1668 C1664 1.373 . S
C1668 C1666 1.383 . S
C1668 H1679 0.931 . S
C1669 C1666 1.382 . S
C1669 C1667 1.392 . S
C1670 Eu1641 2.828 . S
C1670 O1654 1.249 . S
C1670 O1655 1.244 . S
C1670 C1664 1.505 . S
C1671 O1658 1.258 . S
C1671 O1659 1.242 . S
H1672 C1644 0.930 . S
H1673 C1645 0.930 . S
H1674 C1646 0.930 . S
H1675 C1647 0.931 . S
H1676 C1665 0.930 . S
H1677 C1666 0.930 . S
H1678 C1667 0.930 . S
H1679 C1668 0.931 . S
Eu1680 C1689 2.828 . S
Eu1680 O1691 2.392 . S
Eu1680 O1693 2.418 . S
Eu1680 O1698 2.373 . S
Eu1680 O1701 2.488 . S
Eu1680 O1702 2.471 . S
Eu1680 O1703 2.349 . S
Eu1681 O1690 2.373 1_556 S
Eu1681 O1694 2.488 . S
Eu1681 O1695 2.471 . S
Eu1681 O1696 2.349 . S
Eu1681 O1699 2.392 . S
Eu1681 O1700 2.418 1_556 S
Eu1681 C1710 2.828 . S
C1682 O1700 1.244 . S
C1682 O1703 1.265 . S
C1683 C1684 1.379 . S
C1683 C1687 1.373 . S
C1683 C1689 1.505 . S
C1684 C1683 1.379 . S
C1684 C1686 1.369 . S
C1684 H1712 0.930 . S
C1685 C1687 1.383 . S
C1685 C1688 1.382 . S
C1685 H1713 0.930 . S
C1686 C1684 1.369 . S
C1686 C1688 1.392 . S
C1686 H1714 0.930 . S
C1687 C1683 1.373 . S
C1687 C1685 1.383 . S
C1687 H1715 0.931 . S
C1688 C1685 1.382 . S
C1688 C1686 1.392 . S
C1689 Eu1680 2.828 . S
C1689 C1683 1.505 . S
C1689 O1701 1.249 . S
C1689 O1702 1.244 . S
O1690 Eu1681 2.373 1_554 S
O1690 C1692 1.258 . S
O1691 Eu1680 2.392 . S
O1691 C1692 1.242 . S
C1692 O1690 1.258 . S
C1692 O1691 1.242 . S
O1693 Eu1680 2.418 . S
O1693 C1697 1.244 1_554 S
O1694 Eu1681 2.488 . S
O1694 C1710 1.249 . S
O1695 Eu1681 2.471 . S
O1695 C1710 1.244 . S
O1696 Eu1681 2.349 . S
O1696 C1697 1.265 . S
C1697 O1693 1.244 1_556 S
C1697 O1696 1.265 . S
O1698 Eu1680 2.373 . S
O1698 C1711 1.258 . S
O1699 Eu1681 2.392 . S
O1699 C1711 1.242 1_556 S
O1700 Eu1681 2.418 1_554 S
O1700 C1682 1.244 . S
O1701 Eu1680 2.488 . S
O1701 C1689 1.249 . S
O1702 Eu1680 2.471 . S
O1702 C1689 1.244 . S
O1703 Eu1680 2.349 . S
O1703 C1682 1.265 . S
C1704 C1705 1.379 . S
C1704 C1708 1.373 . S
C1704 C1710 1.505 . S
C1705 C1704 1.379 . S
C1705 C1707 1.369 . S
C1705 H1716 0.930 . S
C1706 C1708 1.383 . S
C1706 C1709 1.382 . S
C1706 H1717 0.930 . S
C1707 C1705 1.369 . S
C1707 C1709 1.392 . S
C1707 H1718 0.930 . S
C1708 C1704 1.373 . S
C1708 C1706 1.383 . S
C1708 H1719 0.931 . S
C1709 C1706 1.382 . S
C1709 C1707 1.392 . S
C1710 Eu1681 2.828 . S
C1710 O1694 1.249 . S
C1710 O1695 1.244 . S
C1710 C1704 1.505 . S
C1711 O1698 1.258 . S
C1711 O1699 1.242 1_554 S
H1712 C1684 0.930 . S
H1713 C1685 0.930 . S
H1714 C1686 0.930 . S
H1715 C1687 0.931 . S
H1716 C1705 0.930 . S
H1717 C1706 0.930 . S
H1718 C1707 0.930 . S
H1719 C1708 0.931 . S
Eu1720 C1729 2.828 . S
Eu1720 O1731 2.392 . S
Eu1720 O1733 2.418 . S
Eu1720 O1738 2.373 . S
Eu1720 O1741 2.488 . S
Eu1720 O1742 2.471 . S
Eu1720 O1743 2.349 . S
Eu1721 O1730 2.373 . S
Eu1721 O1734 2.488 . S
Eu1721 O1735 2.471 . S
Eu1721 O1736 2.349 . S
Eu1721 O1739 2.392 . S
Eu1721 O1740 2.418 . S
Eu1721 C1750 2.828 . S
C1722 O1740 1.244 . S
C1722 O1743 1.265 . S
C1723 C1724 1.379 . S
C1723 C1727 1.373 . S
C1723 C1729 1.505 . S
C1724 C1723 1.379 . S
C1724 C1726 1.369 . S
C1724 H1752 0.930 . S
C1725 C1727 1.383 . S
C1725 C1728 1.382 . S
C1725 H1753 0.930 . S
C1726 C1724 1.369 . S
C1726 C1728 1.392 . S
C1726 H1754 0.930 . S
C1727 C1723 1.373 . S
C1727 C1725 1.383 . S
C1727 H1755 0.931 . S
C1728 C1725 1.382 . S
C1728 C1726 1.392 . S
C1729 Eu1720 2.828 . S
C1729 C1723 1.505 . S
C1729 O1741 1.249 . S
C1729 O1742 1.244 . S
O1730 Eu1721 2.373 . S
O1730 C1732 1.258 . S
O1731 Eu1720 2.392 . S
O1731 C1732 1.242 . S
C1732 O1730 1.258 . S
C1732 O1731 1.242 . S
O1733 Eu1720 2.418 . S
O1733 C1737 1.244 . S
O1734 Eu1721 2.488 . S
O1734 C1750 1.249 . S
O1735 Eu1721 2.471 . S
O1735 C1750 1.244 . S
O1736 Eu1721 2.349 . S
O1736 C1737 1.265 . S
C1737 O1733 1.244 . S
C1737 O1736 1.265 . S
O1738 Eu1720 2.373 . S
O1738 C1751 1.258 . S
O1739 Eu1721 2.392 . S
O1739 C1751 1.242 . S
O1740 Eu1721 2.418 . S
O1740 C1722 1.244 . S
O1741 Eu1720 2.488 . S
O1741 C1729 1.249 . S
O1742 Eu1720 2.471 . S
O1742 C1729 1.244 . S
O1743 Eu1720 2.349 . S
O1743 C1722 1.265 . S
C1744 C1745 1.379 . S
C1744 C1748 1.373 . S
C1744 C1750 1.505 . S
C1745 C1744 1.379 . S
C1745 C1747 1.369 . S
C1745 H1756 0.930 . S
C1746 C1748 1.383 . S
C1746 C1749 1.382 . S
C1746 H1757 0.930 . S
C1747 C1745 1.369 . S
C1747 C1749 1.392 . S
C1747 H1758 0.930 . S
C1748 C1744 1.373 . S
C1748 C1746 1.383 . S
C1748 H1759 0.931 . S
C1749 C1746 1.382 . S
C1749 C1747 1.392 . S
C1750 Eu1721 2.828 . S
C1750 O1734 1.249 . S
C1750 O1735 1.244 . S
C1750 C1744 1.505 . S
C1751 O1738 1.258 . S
C1751 O1739 1.242 . S
H1752 C1724 0.930 . S
H1753 C1725 0.930 . S
H1754 C1726 0.930 . S
H1755 C1727 0.931 . S
H1756 C1745 0.930 . S
H1757 C1746 0.930 . S
H1758 C1747 0.930 . S
H1759 C1748 0.931 . S
Eu1760 C1769 2.828 . S
Eu1760 O1771 2.392 . S
Eu1760 O1773 2.418 . S
Eu1760 O1778 2.373 . S
Eu1760 O1781 2.488 . S
Eu1760 O1782 2.471 . S
Eu1760 O1783 2.349 . S
Eu1761 O1770 2.373 . S
Eu1761 O1774 2.488 . S
Eu1761 O1775 2.471 . S
Eu1761 O1776 2.349 . S
Eu1761 O1779 2.392 . S
Eu1761 O1780 2.418 . S
Eu1761 C1790 2.828 . S
C1762 O1780 1.244 . S
C1762 O1783 1.265 . S
C1763 C1764 1.379 . S
C1763 C1767 1.373 . S
C1763 C1769 1.505 . S
C1764 C1763 1.379 . S
C1764 C1766 1.369 . S
C1764 H1792 0.930 . S
C1765 C1767 1.383 . S
C1765 C1768 1.382 . S
C1765 H1793 0.930 . S
C1766 C1764 1.369 . S
C1766 C1768 1.392 . S
C1766 H1794 0.930 . S
C1767 C1763 1.373 . S
C1767 C1765 1.383 . S
C1767 H1795 0.931 . S
C1768 C1765 1.382 . S
C1768 C1766 1.392 . S
C1769 Eu1760 2.828 . S
C1769 C1763 1.505 . S
C1769 O1781 1.249 . S
C1769 O1782 1.244 . S
O1770 Eu1761 2.373 . S
O1770 C1772 1.258 . S
O1771 Eu1760 2.392 . S
O1771 C1772 1.242 . S
C1772 O1770 1.258 . S
C1772 O1771 1.242 . S
O1773 Eu1760 2.418 . S
O1773 C1777 1.244 . S
O1774 Eu1761 2.488 . S
O1774 C1790 1.249 . S
O1775 Eu1761 2.471 . S
O1775 C1790 1.244 . S
O1776 Eu1761 2.349 . S
O1776 C1777 1.265 . S
C1777 O1773 1.244 . S
C1777 O1776 1.265 . S
O1778 Eu1760 2.373 . S
O1778 C1791 1.258 . S
O1779 Eu1761 2.392 . S
O1779 C1791 1.242 . S
O1780 Eu1761 2.418 . S
O1780 C1762 1.244 . S
O1781 Eu1760 2.488 . S
O1781 C1769 1.249 . S
O1782 Eu1760 2.471 . S
O1782 C1769 1.244 . S
O1783 Eu1760 2.349 . S
O1783 C1762 1.265 . S
C1784 C1785 1.379 . S
C1784 C1788 1.373 . S
C1784 C1790 1.505 . S
C1785 C1784 1.379 . S
C1785 C1787 1.369 . S
C1785 H1796 0.930 . S
C1786 C1788 1.383 . S
C1786 C1789 1.382 . S
C1786 H1797 0.930 . S
C1787 C1785 1.369 . S
C1787 C1789 1.392 . S
C1787 H1798 0.930 . S
C1788 C1784 1.373 . S
C1788 C1786 1.383 . S
C1788 H1799 0.931 . S
C1789 C1786 1.382 . S
C1789 C1787 1.392 . S
C1790 Eu1761 2.828 . S
C1790 O1774 1.249 . S
C1790 O1775 1.244 . S
C1790 C1784 1.505 . S
C1791 O1778 1.258 . S
C1791 O1779 1.242 . S
H1792 C1764 0.930 . S
H1793 C1765 0.930 . S
H1794 C1766 0.930 . S
H1795 C1767 0.931 . S
H1796 C1785 0.930 . S
H1797 C1786 0.930 . S
H1798 C1787 0.930 . S
H1799 C1788 0.931 . S
Eu1800 C1809 2.828 . S
Eu1800 O1811 2.392 . S
Eu1800 O1813 2.418 . S
Eu1800 O1818 2.373 . S
Eu1800 O1821 2.488 . S
Eu1800 O1822 2.471 . S
Eu1800 O1823 2.349 . S
Eu1801 O1810 2.373 . S
Eu1801 O1814 2.488 . S
Eu1801 O1815 2.471 . S
Eu1801 O1816 2.349 . S
Eu1801 O1819 2.392 . S
Eu1801 O1820 2.418 . S
Eu1801 C1830 2.828 . S
C1802 O1820 1.244 . S
C1802 O1823 1.265 . S
C1803 C1804 1.379 . S
C1803 C1807 1.373 . S
C1803 C1809 1.505 . S
C1804 C1803 1.379 . S
C1804 C1806 1.369 . S
C1804 H1832 0.930 . S
C1805 C1807 1.383 . S
C1805 C1808 1.382 . S
C1805 H1833 0.930 . S
C1806 C1804 1.369 . S
C1806 C1808 1.392 . S
C1806 H1834 0.930 . S
C1807 C1803 1.373 . S
C1807 C1805 1.383 . S
C1807 H1835 0.931 . S
C1808 C1805 1.382 . S
C1808 C1806 1.392 . S
C1809 Eu1800 2.828 . S
C1809 C1803 1.505 . S
C1809 O1821 1.249 . S
C1809 O1822 1.244 . S
O1810 Eu1801 2.373 . S
O1810 C1812 1.258 . S
O1811 Eu1800 2.392 . S
O1811 C1812 1.242 . S
C1812 O1810 1.258 . S
C1812 O1811 1.242 . S
O1813 Eu1800 2.418 . S
O1813 C1817 1.244 . S
O1814 Eu1801 2.488 . S
O1814 C1830 1.249 . S
O1815 Eu1801 2.471 . S
O1815 C1830 1.244 . S
O1816 Eu1801 2.349 . S
O1816 C1817 1.265 . S
C1817 O1813 1.244 . S
C1817 O1816 1.265 . S
O1818 Eu1800 2.373 . S
O1818 C1831 1.258 . S
O1819 Eu1801 2.392 . S
O1819 C1831 1.242 . S
O1820 Eu1801 2.418 . S
O1820 C1802 1.244 . S
O1821 Eu1800 2.488 . S
O1821 C1809 1.249 . S
O1822 Eu1800 2.471 . S
O1822 C1809 1.244 . S
O1823 Eu1800 2.349 . S
O1823 C1802 1.265 . S
C1824 C1825 1.379 . S
C1824 C1828 1.373 . S
C1824 C1830 1.505 . S
C1825 C1824 1.379 . S
C1825 C1827 1.369 . S
C1825 H1836 0.930 . S
C1826 C1828 1.383 . S
C1826 C1829 1.382 . S
C1826 H1837 0.930 . S
C1827 C1825 1.369 . S
C1827 C1829 1.392 . S
C1827 H1838 0.930 . S
C1828 C1824 1.373 . S
C1828 C1826 1.383 . S
C1828 H1839 0.931 . S
C1829 C1826 1.382 . S
C1829 C1827 1.392 . S
C1830 Eu1801 2.828 . S
C1830 O1814 1.249 . S
C1830 O1815 1.244 . S
C1830 C1824 1.505 . S
C1831 O1818 1.258 . S
C1831 O1819 1.242 . S
H1832 C1804 0.930 . S
H1833 C1805 0.930 . S
H1834 C1806 0.930 . S
H1835 C1807 0.931 . S
H1836 C1825 0.930 . S
H1837 C1826 0.930 . S
H1838 C1827 0.930 . S
H1839 C1828 0.931 . S
Eu1840 C1849 2.828 . S
Eu1840 O1851 2.392 . S
Eu1840 O1853 2.418 . S
Eu1840 O1858 2.373 . S
Eu1840 O1861 2.488 . S
Eu1840 O1862 2.471 . S
Eu1840 O1863 2.349 . S
Eu1841 O1850 2.373 . S
Eu1841 O1854 2.488 . S
Eu1841 O1855 2.471 . S
Eu1841 O1856 2.349 . S
Eu1841 O1859 2.392 . S
Eu1841 O1860 2.418 . S
Eu1841 C1870 2.828 . S
C1842 O1860 1.244 . S
C1842 O1863 1.265 . S
C1843 C1844 1.379 . S
C1843 C1847 1.373 . S
C1843 C1849 1.505 . S
C1844 C1843 1.379 . S
C1844 C1846 1.369 . S
C1844 H1872 0.930 . S
C1845 C1847 1.383 . S
C1845 C1848 1.382 . S
C1845 H1873 0.930 . S
C1846 C1844 1.369 . S
C1846 C1848 1.392 . S
C1846 H1874 0.930 . S
C1847 C1843 1.373 . S
C1847 C1845 1.383 . S
C1847 H1875 0.931 . S
C1848 C1845 1.382 . S
C1848 C1846 1.392 . S
C1849 Eu1840 2.828 . S
C1849 C1843 1.505 . S
C1849 O1861 1.249 . S
C1849 O1862 1.244 . S
O1850 Eu1841 2.373 . S
O1850 C1852 1.258 . S
O1851 Eu1840 2.392 . S
O1851 C1852 1.242 . S
C1852 O1850 1.258 . S
C1852 O1851 1.242 . S
O1853 Eu1840 2.418 . S
O1853 C1857 1.244 . S
O1854 Eu1841 2.488 . S
O1854 C1870 1.249 . S
O1855 Eu1841 2.471 . S
O1855 C1870 1.244 . S
O1856 Eu1841 2.349 . S
O1856 C1857 1.265 . S
C1857 O1853 1.244 . S
C1857 O1856 1.265 . S
O1858 Eu1840 2.373 . S
O1858 C1871 1.258 . S
O1859 Eu1841 2.392 . S
O1859 C1871 1.242 . S
O1860 Eu1841 2.418 . S
O1860 C1842 1.244 . S
O1861 Eu1840 2.488 . S
O1861 C1849 1.249 . S
O1862 Eu1840 2.471 . S
O1862 C1849 1.244 . S
O1863 Eu1840 2.349 . S
O1863 C1842 1.265 . S
C1864 C1865 1.379 . S
C1864 C1868 1.373 . S
C1864 C1870 1.505 . S
C1865 C1864 1.379 . S
C1865 C1867 1.369 . S
C1865 H1876 0.930 . S
C1866 C1868 1.383 . S
C1866 C1869 1.382 . S
C1866 H1877 0.930 . S
C1867 C1865 1.369 . S
C1867 C1869 1.392 . S
C1867 H1878 0.930 . S
C1868 C1864 1.373 . S
C1868 C1866 1.383 . S
C1868 H1879 0.931 . S
C1869 C1866 1.382 . S
C1869 C1867 1.392 . S
C1870 Eu1841 2.828 . S
C1870 O1854 1.249 . S
C1870 O1855 1.244 . S
C1870 C1864 1.505 . S
C1871 O1858 1.258 . S
C1871 O1859 1.242 . S
H1872 C1844 0.930 . S
H1873 C1845 0.930 . S
H1874 C1846 0.930 . S
H1875 C1847 0.931 . S
H1876 C1865 0.930 . S
H1877 C1866 0.930 . S
H1878 C1867 0.930 . S
H1879 C1868 0.931 . S
Eu1880 C1889 2.828 . S
Eu1880 O1891 2.392 . S
Eu1880 O1893 2.418 . S
Eu1880 O1898 2.373 . S
Eu1880 O1901 2.488 . S
Eu1880 O1902 2.471 . S
Eu1880 O1903 2.349 . S
Eu1881 O1890 2.373 . S
Eu1881 O1894 2.488 . S
Eu1881 O1895 2.471 . S
Eu1881 O1896 2.349 . S
Eu1881 O1899 2.392 . S
Eu1881 O1900 2.418 . S
Eu1881 C1910 2.828 . S
C1882 O1900 1.244 . S
C1882 O1903 1.265 . S
C1883 C1884 1.379 . S
C1883 C1887 1.373 . S
C1883 C1889 1.505 . S
C1884 C1883 1.379 . S
C1884 C1886 1.369 . S
C1884 H1912 0.930 . S
C1885 C1887 1.383 . S
C1885 C1888 1.382 . S
C1885 H1913 0.930 . S
C1886 C1884 1.369 . S
C1886 C1888 1.392 . S
C1886 H1914 0.930 . S
C1887 C1883 1.373 . S
C1887 C1885 1.383 . S
C1887 H1915 0.931 . S
C1888 C1885 1.382 . S
C1888 C1886 1.392 . S
C1889 Eu1880 2.828 . S
C1889 C1883 1.505 . S
C1889 O1901 1.249 . S
C1889 O1902 1.244 . S
O1890 Eu1881 2.373 . S
O1890 C1892 1.258 . S
O1891 Eu1880 2.392 . S
O1891 C1892 1.242 . S
C1892 O1890 1.258 . S
C1892 O1891 1.242 . S
O1893 Eu1880 2.418 . S
O1893 C1897 1.244 . S
O1894 Eu1881 2.488 . S
O1894 C1910 1.249 . S
O1895 Eu1881 2.471 . S
O1895 C1910 1.244 . S
O1896 Eu1881 2.349 . S
O1896 C1897 1.265 . S
C1897 O1893 1.244 . S
C1897 O1896 1.265 . S
O1898 Eu1880 2.373 . S
O1898 C1911 1.258 . S
O1899 Eu1881 2.392 . S
O1899 C1911 1.242 . S
O1900 Eu1881 2.418 . S
O1900 C1882 1.244 . S
O1901 Eu1880 2.488 . S
O1901 C1889 1.249 . S
O1902 Eu1880 2.471 . S
O1902 C1889 1.244 . S
O1903 Eu1880 2.349 . S
O1903 C1882 1.265 . S
C1904 C1905 1.379 . S
C1904 C1908 1.373 . S
C1904 C1910 1.505 . S
C1905 C1904 1.379 . S
C1905 C1907 1.369 . S
C1905 H1916 0.930 . S
C1906 C1908 1.383 . S
C1906 C1909 1.382 . S
C1906 H1917 0.930 . S
C1907 C1905 1.369 . S
C1907 C1909 1.392 . S
C1907 H1918 0.930 . S
C1908 C1904 1.373 . S
C1908 C1906 1.383 . S
C1908 H1919 0.931 . S
C1909 C1906 1.382 . S
C1909 C1907 1.392 . S
C1910 Eu1881 2.828 . S
C1910 O1894 1.249 . S
C1910 O1895 1.244 . S
C1910 C1904 1.505 . S
C1911 O1898 1.258 . S
C1911 O1899 1.242 . S
H1912 C1884 0.930 . S
H1913 C1885 0.930 . S
H1914 C1886 0.930 . S
H1915 C1887 0.931 . S
H1916 C1905 0.930 . S
H1917 C1906 0.930 . S
H1918 C1907 0.930 . S
H1919 C1908 0.931 . S
C1920 C1921 1.387 1_455 S
C1920 H1924 0.950 . S
C1920 C1929 1.390 . S
C1921 C1920 1.387 1_655 S
C1921 C1923 1.387 . S
H1922 C1929 0.950 . S
C1923 C1921 1.387 . S
C1923 C1925 1.390 . S
C1923 H1927 0.950 . S
H1924 C1920 0.950 . S
C1925 C1923 1.390 . S
C1925 C1926 1.387 . S
C1925 H1928 0.950 . S
C1926 C1925 1.387 . S
C1926 C1929 1.387 1_655 S
H1927 C1923 0.950 . S
H1928 C1925 0.950 . S
C1929 C1920 1.390 . S
C1929 H1922 0.950 . S
C1929 C1926 1.387 1_455 S
C1930 C1931 1.387 . S
C1930 H1934 0.950 . S
C1930 C1939 1.390 . S
C1931 C1930 1.387 . S
C1931 C1933 1.387 . S
H1932 C1939 0.950 . S
C1933 C1931 1.387 . S
C1933 C1935 1.390 . S
C1933 H1937 0.950 . S
H1934 C1930 0.950 . S
C1935 C1933 1.390 . S
C1935 C1936 1.387 . S
C1935 H1938 0.950 . S
C1936 C1935 1.387 . S
C1936 C1939 1.387 . S
H1937 C1933 0.950 . S
H1938 C1935 0.950 . S
C1939 C1930 1.390 . S
C1939 H1932 0.950 . S
C1939 C1936 1.387 . S
C1940 C1941 1.387 . S
C1940 H1944 0.950 . S
C1940 C1949 1.390 . S
C1941 C1940 1.387 . S
C1941 C1943 1.387 . S
H1942 C1949 0.950 . S
C1943 C1941 1.387 . S
C1943 C1945 1.390 . S
C1943 H1947 0.950 . S
H1944 C1940 0.950 . S
C1945 C1943 1.390 . S
C1945 C1946 1.387 . S
C1945 H1948 0.950 . S
C1946 C1945 1.387 . S
C1946 C1949 1.387 . S
H1947 C1943 0.950 . S
H1948 C1945 0.950 . S
C1949 C1940 1.390 . S
C1949 H1942 0.950 . S
C1949 C1946 1.387 . S
C1950 C1951 1.387 . S
C1950 H1954 0.950 . S
C1950 C1959 1.390 . S
C1951 C1950 1.387 . S
C1951 C1953 1.387 . S
H1952 C1959 0.950 . S
C1953 C1951 1.387 . S
C1953 C1955 1.390 . S
C1953 H1957 0.950 . S
H1954 C1950 0.950 . S
C1955 C1953 1.390 . S
C1955 C1956 1.387 . S
C1955 H1958 0.950 . S
C1956 C1955 1.387 . S
C1956 C1959 1.387 . S
H1957 C1953 0.950 . S
H1958 C1955 0.950 . S
C1959 C1950 1.390 . S
C1959 H1952 0.950 . S
C1959 C1956 1.387 . S
C1960 C1961 1.387 . S
C1960 H1964 0.950 . S
C1960 C1969 1.390 . S
C1961 C1960 1.387 . S
C1961 C1963 1.387 1_565 S
H1962 C1969 0.950 . S
C1963 C1961 1.387 1_545 S
C1963 C1965 1.390 . S
C1963 H1967 0.950 . S
H1964 C1960 0.950 . S
C1965 C1963 1.390 . S
C1965 C1966 1.387 1_545 S
C1965 H1968 0.950 . S
C1966 C1965 1.387 1_565 S
C1966 C1969 1.387 . S
H1967 C1963 0.950 . S
H1968 C1965 0.950 . S
C1969 C1960 1.390 . S
C1969 H1962 0.950 . S
C1969 C1966 1.387 . S
C1970 C1971 1.387 . S
C1970 H1974 0.950 . S
C1970 C1979 1.390 . S
C1971 C1970 1.387 . S
C1971 C1973 1.372 1_565 S
H1972 C1979 0.950 . S
C1973 C1971 1.372 1_545 S
C1973 C1975 1.398 . S
C1973 H1977 0.958 . S
H1974 C1970 0.950 . S
C1975 C1973 1.398 . S
C1975 C1976 1.400 . S
C1975 H1978 0.950 . S
C1976 C1975 1.400 . S
C1976 C1979 1.364 1_545 S
H1977 C1973 0.958 . S
H1978 C1975 0.950 . S
C1979 C1970 1.390 . S
C1979 H1972 0.950 . S
C1979 C1976 1.364 1_565 S
C1980 C1981 1.387 . S
C1980 H1984 0.950 . S
C1980 C1989 1.390 1_554 S
C1981 C1980 1.387 . S
C1981 C1983 1.387 1_545 S
H1982 C1989 0.950 . S
C1983 C1981 1.387 1_565 S
C1983 C1985 1.390 1_554 S
C1983 H1987 0.950 . S
H1984 C1980 0.950 . S
C1985 C1983 1.390 1_556 S
C1985 C1986 1.387 1_565 S
C1985 H1988 0.950 . S
C1986 C1985 1.387 1_545 S
C1986 C1989 1.387 . S
H1987 C1983 0.950 . S
H1988 C1985 0.950 . S
C1989 C1980 1.390 1_556 S
C1989 H1982 0.950 . S
C1989 C1986 1.387 . S
C1990 C1991 1.387 . S
C1990 H1994 0.950 . S
C1990 C1999 1.390 . S
C1991 C1990 1.387 . S
C1991 C1993 1.387 . S
H1992 C1999 0.950 . S
C1993 C1991 1.387 . S
C1993 C1995 1.390 1_545 S
C1993 H1997 0.950 1_545 S
H1994 C1990 0.950 . S
C1995 C1993 1.390 1_565 S
C1995 C1996 1.387 . S
C1995 H1998 0.950 . S
C1996 C1995 1.387 . S
C1996 C1999 1.387 1_565 S
H1997 C1993 0.950 1_565 S
H1998 C1995 0.950 . S
C1999 C1990 1.390 . S
C1999 H1992 0.950 . S
C1999 C1996 1.387 1_545 S
C2000 C2001 1.387 1_554 S
C2000 H2004 0.950 . S
C2000 C2009 1.390 . S
C2001 C2000 1.387 1_556 S
C2001 C2003 1.387 . S
H2002 C2009 0.950 . S
C2003 C2001 1.387 . S
C2003 C2005 1.390 . S
C2003 H2007 0.950 . S
H2004 C2000 0.950 . S
C2005 C2003 1.390 . S
C2005 C2006 1.387 . S
C2005 H2008 0.950 . S
C2006 C2005 1.387 . S
C2006 C2009 1.387 1_556 S
H2007 C2003 0.950 . S
H2008 C2005 0.950 . S
C2009 C2000 1.390 . S
C2009 H2002 0.950 . S
C2009 C2006 1.387 1_554 S
C2010 C2011 1.399 . S
C2010 H2014 0.950 . S
C2010 C2019 1.390 1_655 S
C2011 C2010 1.399 . S
C2011 C2013 1.375 1_554 S
H2012 C2019 0.950 . S
C2013 C2011 1.375 1_556 S
C2013 C2015 1.390 1_655 S
C2013 H2017 0.950 . S
H2014 C2010 0.950 . S
C2015 C2013 1.390 1_455 S
C2015 C2016 1.387 1_556 S
C2015 H2018 0.950 . S
C2016 C2015 1.387 1_554 S
C2016 C2019 1.388 . S
H2017 C2013 0.950 . S
H2018 C2015 0.950 . S
C2019 C2010 1.390 1_455 S
C2019 H2012 0.950 . S
C2019 C2016 1.388 . S
C2020 C2021 1.396 . S
C2020 H2024 0.950 . S
C2020 C2029 1.390 . S
C2021 C2020 1.396 . S
C2021 C2023 1.393 . S
H2022 C2029 0.950 . S
C2023 C2021 1.393 . S
C2023 C2025 1.390 . S
C2023 H2027 0.955 . S
H2024 C2020 0.950 . S
C2025 C2023 1.390 . S
C2025 C2026 1.387 . S
C2025 H2028 0.950 . S
C2026 C2025 1.387 . S
C2026 C2029 1.387 . S
H2027 C2023 0.955 . S
H2028 C2025 0.950 . S
C2029 C2020 1.390 . S
C2029 H2022 0.950 . S
C2029 C2026 1.387 . S
C2030 C2031 1.387 . S
C2030 H2034 0.950 . S
C2030 C2039 1.390 . S
C2031 C2030 1.387 . S
C2031 C2033 1.387 . S
H2032 C2039 0.950 . S
C2033 C2031 1.387 . S
C2033 C2035 1.390 . S
C2033 H2037 0.950 . S
H2034 C2030 0.950 . S
C2035 C2033 1.390 . S
C2035 C2036 1.387 . S
C2035 H2038 0.950 . S
C2036 C2035 1.387 . S
C2036 C2039 1.387 . S
H2037 C2033 0.950 . S
H2038 C2035 0.950 . S
C2039 C2030 1.390 . S
C2039 H2032 0.950 . S
C2039 C2036 1.387 . S
C2040 C2041 1.387 . S
C2040 H2044 0.950 . S
C2040 C2049 1.390 1_655 S
C2041 C2040 1.387 . S
C2041 C2043 1.387 . S
H2042 C2049 0.950 . S
C2043 C2041 1.387 . S
C2043 C2045 1.390 1_655 S
C2043 H2047 0.950 . S
H2044 C2040 0.950 . S
C2045 C2043 1.390 1_455 S
C2045 C2046 1.387 . S
C2045 H2048 0.950 . S
C2046 C2045 1.387 . S
C2046 C2049 1.387 . S
H2047 C2043 0.950 . S
H2048 C2045 0.950 . S
C2049 C2040 1.390 1_455 S
C2049 H2042 0.950 . S
C2049 C2046 1.387 . S
C2050 C2051 1.387 . S
C2050 H2054 0.950 . S
C2050 C2059 1.390 . S
C2051 C2050 1.387 . S
C2051 C2053 1.387 . S
H2052 C2059 0.950 . S
C2053 C2051 1.387 . S
C2053 C2055 1.390 . S
C2053 H2057 0.950 . S
H2054 C2050 0.950 . S
C2055 C2053 1.390 . S
C2055 C2056 1.387 . S
C2055 H2058 0.950 . S
C2056 C2055 1.387 . S
C2056 C2059 1.387 . S
H2057 C2053 0.950 . S
H2058 C2055 0.950 . S
C2059 C2050 1.390 . S
C2059 H2052 0.950 . S
C2059 C2056 1.387 . S
C2060 C2061 1.387 . S
C2060 H2064 0.950 . S
C2060 C2069 1.390 . S
C2061 C2060 1.387 . S
C2061 C2063 1.387 . S
H2062 C2069 0.950 . S
C2063 C2061 1.387 . S
C2063 C2065 1.390 . S
C2063 H2067 0.950 . S
H2064 C2060 0.950 . S
C2065 C2063 1.390 . S
C2065 C2066 1.387 . S
C2065 H2068 0.950 . S
C2066 C2065 1.387 . S
C2066 C2069 1.387 . S
H2067 C2063 0.950 . S
H2068 C2065 0.950 . S
C2069 C2060 1.390 . S
C2069 H2062 0.950 . S
C2069 C2066 1.387 . S
C2070 C2071 1.387 1_655 S
C2070 H2074 0.950 . S
C2070 C2079 1.390 . S
C2071 C2070 1.387 1_455 S
C2071 C2073 1.387 . S
H2072 C2079 0.950 . S
C2073 C2071 1.387 . S
C2073 C2075 1.390 . S
C2073 H2077 0.950 . S
H2074 C2070 0.950 . S
C2075 C2073 1.390 . S
C2075 C2076 1.387 . S
C2075 H2078 0.950 . S
C2076 C2075 1.387 . S
C2076 C2079 1.387 1_455 S
H2077 C2073 0.950 . S
H2078 C2075 0.950 . S
C2079 C2070 1.390 . S
C2079 H2072 0.950 . S
C2079 C2076 1.387 1_655 S
C2080 C2081 1.387 . S
C2080 H2084 0.950 . S
C2080 C2089 1.390 . S
C2081 C2080 1.387 . S
C2081 C2083 1.387 . S
H2082 C2089 0.950 . S
C2083 C2081 1.387 . S
C2083 C2085 1.390 . S
C2083 H2087 0.950 . S
H2084 C2080 0.950 . S
C2085 C2083 1.390 . S
C2085 C2086 1.387 . S
C2085 H2088 0.950 . S
C2086 C2085 1.387 . S
C2086 C2089 1.387 . S
H2087 C2083 0.950 . S
H2088 C2085 0.950 . S
C2089 C2080 1.390 . S
C2089 H2082 0.950 . S
C2089 C2086 1.387 . S
C2090 C2091 1.387 . S
C2090 H2094 0.950 . S
C2090 C2099 1.390 . S
C2091 C2090 1.387 . S
C2091 C2093 1.387 . S
H2092 C2099 0.950 . S
C2093 C2091 1.387 . S
C2093 C2095 1.390 . S
C2093 H2097 0.950 . S
H2094 C2090 0.950 . S
C2095 C2093 1.390 . S
C2095 C2096 1.387 . S
C2095 H2098 0.950 . S
C2096 C2095 1.387 . S
C2096 C2099 1.387 . S
H2097 C2093 0.950 . S
H2098 C2095 0.950 . S
C2099 C2090 1.390 . S
C2099 H2092 0.950 . S
C2099 C2096 1.387 . S
C2100 C2101 1.387 . S
C2100 H2104 0.950 . S
C2100 C2109 1.390 . S
C2101 C2100 1.387 . S
C2101 C2103 1.387 . S
H2102 C2109 0.950 . S
C2103 C2101 1.387 . S
C2103 C2105 1.390 . S
C2103 H2107 0.950 . S
H2104 C2100 0.950 . S
C2105 C2103 1.390 . S
C2105 C2106 1.387 . S
C2105 H2108 0.950 . S
C2106 C2105 1.387 . S
C2106 C2109 1.387 . S
H2107 C2103 0.950 . S
H2108 C2105 0.950 . S
C2109 C2100 1.390 . S
C2109 H2102 0.950 . S
C2109 C2106 1.387 . S
C2110 C2111 1.387 1_565 S
C2110 H2114 0.950 . S
C2110 C2119 1.390 . S
C2111 C2110 1.387 1_545 S
C2111 C2113 1.387 . S
H2112 C2119 0.950 . S
C2113 C2111 1.387 . S
C2113 C2115 1.390 . S
C2113 H2117 0.950 . S
H2114 C2110 0.950 . S
C2115 C2113 1.390 . S
C2115 C2116 1.387 . S
C2115 H2118 0.950 . S
C2116 C2115 1.387 . S
C2116 C2119 1.387 1_545 S
H2117 C2113 0.950 . S
H2118 C2115 0.950 . S
C2119 C2110 1.390 . S
C2119 H2112 0.950 . S
C2119 C2116 1.387 1_565 S
C2120 C2121 1.387 . S
C2120 H2124 0.950 . S
C2120 C2129 1.390 . S
C2121 C2120 1.387 . S
C2121 C2123 1.387 1_545 S
H2122 C2129 0.950 . S
C2123 C2121 1.387 1_565 S
C2123 C2125 1.390 . S
C2123 H2127 0.950 . S
H2124 C2120 0.950 . S
C2125 C2123 1.390 . S
C2125 C2126 1.387 . S
C2125 H2128 0.950 . S
C2126 C2125 1.387 . S
C2126 C2129 1.387 1_565 S
H2127 C2123 0.950 . S
H2128 C2125 0.950 . S
C2129 C2120 1.390 . S
C2129 H2122 0.950 . S
C2129 C2126 1.387 1_545 S
C2130 C2131 1.387 1_545 S
C2130 H2134 0.950 . S
C2130 C2139 1.390 1_556 S
C2131 C2130 1.387 1_565 S
C2131 C2133 1.387 . S
H2132 C2139 0.950 . S
C2133 C2131 1.387 . S
C2133 C2135 1.390 1_556 S
C2133 H2137 0.950 . S
H2134 C2130 0.950 . S
C2135 C2133 1.390 1_554 S
C2135 C2136 1.387 . S
C2135 H2138 0.950 . S
C2136 C2135 1.387 . S
C2136 C2139 1.387 1_565 S
H2137 C2133 0.950 . S
H2138 C2135 0.950 . S
C2139 C2130 1.390 1_554 S
C2139 H2132 0.950 . S
C2139 C2136 1.387 1_545 S
C2140 C2141 1.387 . S
C2140 H2144 0.950 . S
C2140 C2149 1.390 . S
C2141 C2140 1.387 . S
C2141 C2143 1.387 1_545 S
H2142 C2149 0.950 . S
C2143 C2141 1.387 1_565 S
C2143 C2145 1.390 . S
C2143 H2147 0.950 . S
H2144 C2140 0.950 . S
C2145 C2143 1.390 . S
C2145 C2146 1.387 . S
C2145 H2148 0.950 . S
C2146 C2145 1.387 . S
C2146 C2149 1.387 1_565 S
H2147 C2143 0.950 . S
H2148 C2145 0.950 . S
C2149 C2140 1.390 . S
C2149 H2142 0.950 . S
C2149 C2146 1.387 1_545 S
C2150 C2151 1.387 . S
C2150 H2154 0.950 . S
C2150 C2159 1.390 . S
C2151 C2150 1.387 . S
C2151 C2153 1.387 1_554 S
H2152 C2159 0.950 . S
C2153 C2151 1.387 1_556 S
C2153 C2155 1.390 . S
C2153 H2157 0.950 . S
H2154 C2150 0.950 . S
C2155 C2153 1.390 . S
C2155 C2156 1.387 1_556 S
C2155 H2158 0.950 . S
C2156 C2155 1.387 1_554 S
C2156 C2159 1.387 . S
H2157 C2153 0.950 . S
H2158 C2155 0.950 . S
C2159 C2150 1.390 . S
C2159 H2152 0.950 . S
C2159 C2156 1.387 . S
C2160 C2161 1.389 . S
C2160 H2164 0.950 . S
C2160 C2169 1.390 1_655 S
C2161 C2160 1.389 . S
C2161 C2163 1.386 1_556 S
H2162 C2169 0.950 . S
C2163 C2161 1.386 1_554 S
C2163 C2165 1.390 1_655 S
C2163 H2167 0.950 . S
H2164 C2160 0.950 . S
C2165 C2163 1.390 1_455 S
C2165 C2166 1.376 1_554 S
C2165 H2168 0.950 . S
C2166 C2165 1.376 1_556 S
C2166 C2169 1.399 . S
H2167 C2163 0.950 . S
H2168 C2165 0.950 . S
C2169 C2160 1.390 1_455 S
C2169 H2162 0.950 . S
C2169 C2166 1.399 . S
C2170 C2171 1.387 . S
C2170 H2174 0.950 . S
C2170 C2179 1.390 . S
C2171 C2170 1.387 . S
C2171 C2173 1.387 . S
H2172 C2179 0.950 . S
C2173 C2171 1.387 . S
C2173 C2175 1.390 . S
C2173 H2177 0.950 . S
H2174 C2170 0.950 . S
C2175 C2173 1.390 . S
C2175 C2176 1.395 . S
C2175 H2178 0.950 . S
C2176 C2175 1.395 . S
C2176 C2179 1.394 . S
H2177 C2173 0.950 . S
H2178 C2175 0.950 . S
C2179 C2170 1.390 . S
C2179 H2172 0.950 . S
C2179 C2176 1.394 . S
C2180 C2181 1.387 . S
C2180 H2184 0.950 . S
C2180 C2189 1.390 . S
C2181 C2180 1.387 . S
C2181 C2183 1.387 . S
H2182 C2189 0.950 . S
C2183 C2181 1.387 . S
C2183 C2185 1.390 . S
C2183 H2187 0.950 . S
H2184 C2180 0.950 . S
C2185 C2183 1.390 . S
C2185 C2186 1.387 . S
C2185 H2188 0.950 . S
C2186 C2185 1.387 . S
C2186 C2189 1.387 . S
H2187 C2183 0.950 . S
H2188 C2185 0.950 . S
C2189 C2180 1.390 . S
C2189 H2182 0.950 . S
C2189 C2186 1.387 . S
C2190 C2191 1.387 . S
C2190 H2194 0.950 . S
C2190 C2199 1.390 1_655 S
C2191 C2190 1.387 . S
C2191 C2193 1.387 . S
H2192 C2199 0.950 . S
C2193 C2191 1.387 . S
C2193 C2195 1.390 1_655 S
C2193 H2197 0.950 . S
H2194 C2190 0.950 . S
C2195 C2193 1.390 1_455 S
C2195 C2196 1.387 . S
C2195 H2198 0.950 . S
C2196 C2195 1.387 . S
C2196 C2199 1.387 . S
H2197 C2193 0.950 . S
H2198 C2195 0.950 . S
C2199 C2190 1.390 1_455 S
C2199 H2192 0.950 . S
C2199 C2196 1.387 . S
C2200 C2201 1.387 . S
C2200 H2204 0.950 . S
C2200 C2209 1.390 . S
C2201 C2200 1.387 . S
C2201 C2203 1.387 1_655 S
H2202 C2209 0.950 . S
C2203 C2201 1.387 1_455 S
C2203 C2205 1.389 1_455 S
C2203 H2207 0.951 . S
H2204 C2200 0.950 . S
C2205 C2203 1.389 1_655 S
C2205 C2206 1.387 . S
C2205 H2208 0.950 . S
C2206 C2205 1.387 . S
C2206 C2209 1.387 . S
H2207 C2203 0.951 . S
H2208 C2205 0.950 . S
C2209 C2200 1.390 . S
C2209 H2202 0.950 . S
C2209 C2206 1.387 . S
C2210 C2211 1.387 . S
C2210 H2214 0.950 . S
C2210 C2219 1.390 . S
C2211 C2210 1.387 . S
C2211 C2213 1.387 . S
H2212 C2219 0.950 . S
C2213 C2211 1.387 . S
C2213 C2215 1.390 . S
C2213 H2217 0.950 . S
H2214 C2210 0.950 . S
C2215 C2213 1.390 . S
C2215 C2216 1.387 . S
C2215 H2218 0.950 . S
C2216 C2215 1.387 . S
C2216 C2219 1.387 . S
H2217 C2213 0.950 . S
H2218 C2215 0.950 . S
C2219 C2210 1.390 . S
C2219 H2212 0.950 . S
C2219 C2216 1.387 . S
C2220 C2221 1.387 . S
C2220 H2224 0.950 . S
C2220 C2229 1.390 1_545 S
C2221 C2220 1.387 . S
C2221 C2223 1.387 . S
H2222 C2229 0.950 . S
C2223 C2221 1.387 . S
C2223 C2225 1.390 1_545 S
C2223 H2227 0.950 . S
H2224 C2220 0.950 . S
C2225 C2223 1.390 1_565 S
C2225 C2226 1.387 . S
C2225 H2228 0.950 . S
C2226 C2225 1.387 . S
C2226 C2229 1.387 . S
H2227 C2223 0.950 . S
H2228 C2225 0.950 . S
C2229 C2220 1.390 1_565 S
C2229 H2222 0.950 . S
C2229 C2226 1.387 . S
C2230 C2231 1.387 . S
C2230 H2234 0.950 . S
C2230 C2239 1.390 . S
C2231 C2230 1.387 . S
C2231 C2233 1.387 1_556 S
H2232 C2239 0.950 . S
C2233 C2231 1.387 1_554 S
C2233 C2235 1.390 . S
C2233 H2237 0.950 . S
H2234 C2230 0.950 . S
C2235 C2233 1.390 . S
C2235 C2236 1.387 1_554 S
C2235 H2238 0.950 . S
C2236 C2235 1.387 1_556 S
C2236 C2239 1.387 . S
H2237 C2233 0.950 . S
H2238 C2235 0.950 . S
C2239 C2230 1.390 . S
C2239 H2232 0.950 . S
C2239 C2236 1.387 . S
C2240 C2241 1.387 . S
C2240 H2244 0.950 . S
C2240 C2249 1.390 1_545 S
C2241 C2240 1.387 . S
C2241 C2243 1.387 1_455 S
H2242 C2249 0.950 . S
C2243 C2241 1.387 1_655 S
C2243 C2245 1.390 1_545 S
C2243 H2247 0.950 . S
H2244 C2240 0.950 . S
C2245 C2243 1.390 1_565 S
C2245 C2246 1.387 1_655 S
C2245 H2248 0.950 . S
C2246 C2245 1.387 1_455 S
C2246 C2249 1.387 . S
H2247 C2243 0.950 . S
H2248 C2245 0.950 . S
C2249 C2240 1.390 1_565 S
C2249 H2242 0.950 . S
C2249 C2246 1.387 . S
C2250 C2251 1.387 . S
C2250 H2254 0.950 . S
C2250 C2259 1.390 . S
C2251 C2250 1.387 . S
C2251 C2253 1.387 . S
H2252 C2259 0.950 . S
C2253 C2251 1.387 . S
C2253 C2255 1.390 . S
C2253 H2257 0.950 . S
H2254 C2250 0.950 . S
C2255 C2253 1.390 . S
C2255 C2256 1.387 . S
C2255 H2258 0.950 . S
C2256 C2255 1.387 . S
C2256 C2259 1.387 . S
H2257 C2253 0.950 . S
H2258 C2255 0.950 . S
C2259 C2250 1.390 . S
C2259 H2252 0.950 . S
C2259 C2256 1.387 . S
C2260 C2261 1.387 . S
C2260 H2264 0.950 . S
C2260 C2269 1.390 1_556 S
C2261 C2260 1.387 . S
C2261 C2263 1.387 . S
H2262 C2269 0.950 . S
C2263 C2261 1.387 . S
C2263 C2265 1.390 1_556 S
C2263 H2267 0.950 . S
H2264 C2260 0.950 . S
C2265 C2263 1.390 1_554 S
C2265 C2266 1.387 . S
C2265 H2268 0.950 . S
C2266 C2265 1.387 . S
C2266 C2269 1.387 . S
H2267 C2263 0.950 . S
H2268 C2265 0.950 . S
C2269 C2260 1.390 1_554 S
C2269 H2262 0.950 . S
C2269 C2266 1.387 . S
C2270 C2271 1.387 . S
C2270 H2274 0.950 . S
C2270 C2279 1.390 . S
C2271 C2270 1.387 . S
C2271 C2273 1.387 . S
H2272 C2279 0.950 . S
C2273 C2271 1.387 . S
C2273 C2275 1.390 . S
C2273 H2277 0.950 . S
H2274 C2270 0.950 . S
C2275 C2273 1.390 . S
C2275 C2276 1.387 . S
C2275 H2278 0.950 . S
C2276 C2275 1.387 . S
C2276 C2279 1.387 . S
H2277 C2273 0.950 . S
H2278 C2275 0.950 . S
C2279 C2270 1.390 . S
C2279 H2272 0.950 . S
C2279 C2276 1.387 . S
C2280 C2281 1.387 . S
C2280 H2284 0.950 . S
C2280 C2289 1.390 . S
C2281 C2280 1.387 . S
C2281 C2283 1.387 . S
H2282 C2289 0.950 . S
C2283 C2281 1.387 . S
C2283 C2285 1.390 . S
C2283 H2287 0.950 . S
H2284 C2280 0.950 . S
C2285 C2283 1.390 . S
C2285 C2286 1.387 . S
C2285 H2288 0.950 . S
C2286 C2285 1.387 . S
C2286 C2289 1.387 . S
H2287 C2283 0.950 . S
H2288 C2285 0.950 . S
C2289 C2280 1.390 . S
C2289 H2282 0.950 . S
C2289 C2286 1.387 . S
C2290 C2291 1.387 . S
C2290 H2294 0.950 . S
C2290 C2299 1.390 . S
C2291 C2290 1.387 . S
C2291 C2293 1.387 . S
H2292 C2299 0.950 . S
C2293 C2291 1.387 . S
C2293 C2295 1.390 . S
C2293 H2297 0.950 . S
H2294 C2290 0.950 . S
C2295 C2293 1.390 . S
C2295 C2296 1.387 . S
C2295 H2298 0.950 . S
C2296 C2295 1.387 . S
C2296 C2299 1.387 . S
H2297 C2293 0.950 . S
H2298 C2295 0.950 . S
C2299 C2290 1.390 . S
C2299 H2292 0.950 . S
C2299 C2296 1.387 . S
C2300 C2301 1.387 . S
C2300 H2304 0.950 . S
C2300 C2309 1.390 . S
C2301 C2300 1.387 . S
C2301 C2303 1.387 . S
H2302 C2309 0.950 . S
C2303 C2301 1.387 . S
C2303 C2305 1.390 . S
C2303 H2307 0.950 . S
H2304 C2300 0.950 . S
C2305 C2303 1.390 . S
C2305 C2306 1.387 . S
C2305 H2308 0.950 . S
C2306 C2305 1.387 . S
C2306 C2309 1.387 . S
H2307 C2303 0.950 . S
H2308 C2305 0.950 . S
C2309 C2300 1.390 . S
C2309 H2302 0.950 . S
C2309 C2306 1.387 . S
C2310 C2311 1.387 . S
C2310 H2314 0.950 . S
C2310 C2319 1.390 1_565 S
C2311 C2310 1.387 . S
C2311 C2313 1.387 . S
H2312 C2319 0.950 . S
C2313 C2311 1.387 . S
C2313 C2315 1.390 1_565 S
C2313 H2317 0.950 . S
H2314 C2310 0.950 . S
C2315 C2313 1.390 1_545 S
C2315 C2316 1.387 . S
C2315 H2318 0.950 . S
C2316 C2315 1.387 . S
C2316 C2319 1.387 . S
H2317 C2313 0.950 . S
H2318 C2315 0.950 . S
C2319 C2310 1.390 1_545 S
C2319 H2312 0.950 . S
C2319 C2316 1.387 . S
C2320 C2321 1.390 . S
C2320 H2324 0.937 1_554 S
C2320 C2329 1.402 . S
C2321 C2320 1.390 . S
C2321 C2323 1.387 . S
H2322 C2329 0.950 . S
C2323 C2321 1.387 . S
C2323 C2325 1.390 . S
C2323 H2327 0.950 . S
H2324 C2320 0.937 1_556 S
C2325 C2323 1.390 . S
C2325 C2326 1.387 . S
C2325 H2328 0.950 . S
C2326 C2325 1.387 . S
C2326 C2329 1.387 . S
H2327 C2323 0.950 . S
H2328 C2325 0.950 . S
C2329 C2320 1.402 . S
C2329 H2322 0.950 . S
C2329 C2326 1.387 . S
C2330 C2331 1.387 . S
C2330 H2334 0.950 . S
C2330 C2339 1.390 1_545 S
C2331 C2330 1.387 . S
C2331 C2333 1.387 . S
H2332 C2339 0.950 . S
C2333 C2331 1.387 . S
C2333 C2335 1.390 1_545 S
C2333 H2337 0.950 1_655 S
H2334 C2330 0.950 . S
C2335 C2333 1.390 1_565 S
C2335 C2336 1.387 . S
C2335 H2338 0.950 1_655 S
C2336 C2335 1.387 . S
C2336 C2339 1.387 . S
H2337 C2333 0.950 1_455 S
H2338 C2335 0.950 1_455 S
C2339 C2330 1.390 1_565 S
C2339 H2332 0.950 . S
C2339 C2336 1.387 . S
C2340 C2341 1.387 . S
C2340 H2344 0.950 . S
C2340 C2349 1.390 . S
C2341 C2340 1.387 . S
C2341 C2343 1.387 . S
H2342 C2349 0.950 . S
C2343 C2341 1.387 . S
C2343 C2345 1.390 . S
C2343 H2347 0.950 . S
H2344 C2340 0.950 . S
C2345 C2343 1.390 . S
C2345 C2346 1.387 . S
C2345 H2348 0.950 . S
C2346 C2345 1.387 . S
C2346 C2349 1.387 . S
H2347 C2343 0.950 . S
H2348 C2345 0.950 . S
C2349 C2340 1.390 . S
C2349 H2342 0.950 . S
C2349 C2346 1.387 . S
C2350 C2351 1.387 . S
C2350 H2354 0.950 . S
C2350 C2359 1.390 1_554 S
C2351 C2350 1.387 . S
C2351 C2353 1.387 . S
H2352 C2359 0.950 . S
C2353 C2351 1.387 . S
C2353 C2355 1.390 1_554 S
C2353 H2357 0.950 . S
H2354 C2350 0.950 . S
C2355 C2353 1.390 1_556 S
C2355 C2356 1.387 . S
C2355 H2358 0.950 . S
C2356 C2355 1.387 . S
C2356 C2359 1.387 . S
H2357 C2353 0.950 . S
H2358 C2355 0.950 . S
C2359 C2350 1.390 1_556 S
C2359 H2352 0.950 . S
C2359 C2356 1.387 . S
C2360 C2361 1.387 . S
C2360 H2364 0.950 . S
C2360 C2369 1.390 . S
C2361 C2360 1.387 . S
C2361 C2363 1.387 . S
H2362 C2369 0.950 . S
C2363 C2361 1.387 . S
C2363 C2365 1.390 . S
C2363 H2367 0.950 . S
H2364 C2360 0.950 . S
C2365 C2363 1.390 . S
C2365 C2366 1.387 . S
C2365 H2368 0.950 . S
C2366 C2365 1.387 . S
C2366 C2369 1.387 . S
H2367 C2363 0.950 . S
H2368 C2365 0.950 . S
C2369 C2360 1.390 . S
C2369 H2362 0.950 . S
C2369 C2366 1.387 . S
C2370 C2371 1.387 . S
C2370 H2374 0.950 . S
C2370 C2379 1.390 . S
C2371 C2370 1.387 . S
C2371 C2373 1.387 . S
H2372 C2379 0.950 . S
C2373 C2371 1.387 . S
C2373 C2375 1.390 . S
C2373 H2377 0.950 . S
H2374 C2370 0.950 . S
C2375 C2373 1.390 . S
C2375 C2376 1.387 . S
C2375 H2378 0.950 . S
C2376 C2375 1.387 . S
C2376 C2379 1.387 . S
H2377 C2373 0.950 . S
H2378 C2375 0.950 . S
C2379 C2370 1.390 . S
C2379 H2372 0.950 . S
C2379 C2376 1.387 . S
C2380 C2381 1.387 . S
C2380 H2384 0.950 . S
C2380 C2389 1.390 . S
C2381 C2380 1.387 . S
C2381 C2383 1.387 . S
H2382 C2389 0.950 . S
C2383 C2381 1.387 . S
C2383 C2385 1.390 . S
C2383 H2387 0.950 . S
H2384 C2380 0.950 . S
C2385 C2383 1.390 . S
C2385 C2386 1.387 . S
C2385 H2388 0.950 . S
C2386 C2385 1.387 . S
C2386 C2389 1.387 . S
H2387 C2383 0.950 . S
H2388 C2385 0.950 . S
C2389 C2380 1.390 . S
C2389 H2382 0.950 . S
C2389 C2386 1.387 . S
C2390 C2391 1.387 . S
C2390 H2394 0.950 . S
C2390 C2399 1.390 . S
C2391 C2390 1.387 . S
C2391 C2393 1.387 . S
H2392 C2399 0.950 . S
C2393 C2391 1.387 . S
C2393 C2395 1.390 . S
C2393 H2397 0.950 . S
H2394 C2390 0.950 . S
C2395 C2393 1.390 . S
C2395 C2396 1.387 . S
C2395 H2398 0.950 . S
C2396 C2395 1.387 . S
C2396 C2399 1.387 . S
H2397 C2393 0.950 . S
H2398 C2395 0.950 . S
C2399 C2390 1.390 . S
C2399 H2392 0.950 . S
C2399 C2396 1.387 . S
C2400 C2401 1.387 . S
C2400 H2404 0.950 . S
C2400 C2409 1.390 . S
C2401 C2400 1.387 . S
C2401 C2403 1.387 . S
H2402 C2409 0.950 . S
C2403 C2401 1.387 . S
C2403 C2405 1.390 . S
C2403 H2407 0.950 . S
H2404 C2400 0.950 . S
C2405 C2403 1.390 . S
C2405 C2406 1.387 . S
C2405 H2408 0.950 . S
C2406 C2405 1.387 . S
C2406 C2409 1.387 . S
H2407 C2403 0.950 . S
H2408 C2405 0.950 . S
C2409 C2400 1.390 . S
C2409 H2402 0.950 . S
C2409 C2406 1.387 . S
C2410 C2411 1.387 . S
C2410 H2414 0.950 . S
C2410 C2419 1.390 . S
C2411 C2410 1.387 . S
C2411 C2413 1.387 . S
H2412 C2419 0.950 . S
C2413 C2411 1.387 . S
C2413 C2415 1.390 . S
C2413 H2417 0.950 . S
H2414 C2410 0.950 . S
C2415 C2413 1.390 . S
C2415 C2416 1.387 . S
C2415 H2418 0.950 . S
C2416 C2415 1.387 . S
C2416 C2419 1.387 . S
H2417 C2413 0.950 . S
H2418 C2415 0.950 . S
C2419 C2410 1.390 . S
C2419 H2412 0.950 . S
C2419 C2416 1.387 . S
C2420 C2421 1.387 . S
C2420 H2424 0.950 . S
C2420 C2429 1.390 . S
C2421 C2420 1.387 . S
C2421 C2423 1.387 . S
H2422 C2429 0.950 . S
C2423 C2421 1.387 . S
C2423 C2425 1.390 . S
C2423 H2427 0.950 . S
H2424 C2420 0.950 . S
C2425 C2423 1.390 . S
C2425 C2426 1.387 . S
C2425 H2428 0.950 . S
C2426 C2425 1.387 . S
C2426 C2429 1.387 . S
H2427 C2423 0.950 . S
H2428 C2425 0.950 . S
C2429 C2420 1.390 . S
C2429 H2422 0.950 . S
C2429 C2426 1.387 . S
C2430 C2431 1.387 . S
C2430 H2434 0.950 . S
C2430 C2439 1.390 . S
C2431 C2430 1.387 . S
C2431 C2433 1.387 . S
H2432 C2439 0.950 . S
C2433 C2431 1.387 . S
C2433 C2435 1.390 . S
C2433 H2437 0.950 . S
H2434 C2430 0.950 . S
C2435 C2433 1.390 . S
C2435 C2436 1.387 . S
C2435 H2438 0.950 . S
C2436 C2435 1.387 . S
C2436 C2439 1.387 . S
H2437 C2433 0.950 . S
H2438 C2435 0.950 . S
C2439 C2430 1.390 . S
C2439 H2432 0.950 . S
C2439 C2436 1.387 . S
C2440 C2441 1.387 . S
C2440 H2444 0.950 . S
C2440 C2449 1.390 . S
C2441 C2440 1.387 . S
C2441 C2443 1.387 . S
H2442 C2449 0.950 . S
C2443 C2441 1.387 . S
C2443 C2445 1.390 . S
C2443 H2447 0.950 . S
H2444 C2440 0.950 . S
C2445 C2443 1.390 . S
C2445 C2446 1.387 . S
C2445 H2448 0.950 . S
C2446 C2445 1.387 . S
C2446 C2449 1.387 . S
H2447 C2443 0.950 . S
H2448 C2445 0.950 . S
C2449 C2440 1.390 . S
C2449 H2442 0.950 . S
C2449 C2446 1.387 . S
C2450 C2451 1.387 . S
C2450 H2454 0.950 . S
C2450 C2459 1.390 . S
C2451 C2450 1.387 . S
C2451 C2453 1.387 . S
H2452 C2459 0.950 . S
C2453 C2451 1.387 . S
C2453 C2455 1.390 . S
C2453 H2457 0.950 . S
H2454 C2450 0.950 . S
C2455 C2453 1.390 . S
C2455 C2456 1.387 . S
C2455 H2458 0.950 . S
C2456 C2455 1.387 . S
C2456 C2459 1.387 . S
H2457 C2453 0.950 . S
H2458 C2455 0.950 . S
C2459 C2450 1.390 . S
C2459 H2452 0.950 . S
C2459 C2456 1.387 . S
C2460 C2461 1.387 . S
C2460 H2464 0.950 . S
C2460 C2469 1.390 . S
C2461 C2460 1.387 . S
C2461 C2463 1.387 . S
H2462 C2469 0.950 . S
C2463 C2461 1.387 . S
C2463 C2465 1.390 . S
C2463 H2467 0.950 . S
H2464 C2460 0.950 . S
C2465 C2463 1.390 . S
C2465 C2466 1.387 . S
C2465 H2468 0.950 . S
C2466 C2465 1.387 . S
C2466 C2469 1.387 . S
H2467 C2463 0.950 . S
H2468 C2465 0.950 . S
C2469 C2460 1.390 . S
C2469 H2462 0.950 . S
C2469 C2466 1.387 . S
C2470 C2471 1.387 . S
C2470 H2474 0.950 . S
C2470 C2479 1.390 . S
C2471 C2470 1.387 . S
C2471 C2473 1.387 . S
H2472 C2479 0.950 . S
C2473 C2471 1.387 . S
C2473 C2475 1.390 . S
C2473 H2477 0.950 . S
H2474 C2470 0.950 . S
C2475 C2473 1.390 . S
C2475 C2476 1.387 . S
C2475 H2478 0.950 . S
C2476 C2475 1.387 . S
C2476 C2479 1.387 . S
H2477 C2473 0.950 . S
H2478 C2475 0.950 . S
C2479 C2470 1.390 . S
C2479 H2472 0.950 . S
C2479 C2476 1.387 . S
C2480 C2481 1.387 . S
C2480 H2484 0.950 . S
C2480 C2489 1.390 . S
C2481 C2480 1.387 . S
C2481 C2483 1.387 . S
H2482 C2489 0.950 . S
C2483 C2481 1.387 . S
C2483 C2485 1.390 . S
C2483 H2487 0.950 . S
H2484 C2480 0.950 . S
C2485 C2483 1.390 . S
C2485 C2486 1.387 . S
C2485 H2488 0.950 . S
C2486 C2485 1.387 . S
C2486 C2489 1.387 . S
H2487 C2483 0.950 . S
H2488 C2485 0.950 . S
C2489 C2480 1.390 . S
C2489 H2482 0.950 . S
C2489 C2486 1.387 . S
C2490 C2491 1.387 . S
C2490 H2494 0.950 . S
C2490 C2499 1.390 . S
C2491 C2490 1.387 . S
C2491 C2493 1.387 . S
H2492 C2499 0.950 . S
C2493 C2491 1.387 . S
C2493 C2495 1.390 . S
C2493 H2497 0.950 . S
H2494 C2490 0.950 . S
C2495 C2493 1.390 . S
C2495 C2496 1.387 . S
C2495 H2498 0.950 . S
C2496 C2495 1.387 . S
C2496 C2499 1.387 . S
H2497 C2493 0.950 . S
H2498 C2495 0.950 . S
C2499 C2490 1.390 . S
C2499 H2492 0.950 . S
C2499 C2496 1.387 . S
C2500 C2501 1.387 . S
C2500 H2504 0.950 . S
C2500 C2509 1.390 . S
C2501 C2500 1.387 . S
C2501 C2503 1.387 . S
H2502 C2509 0.950 . S
C2503 C2501 1.387 . S
C2503 C2505 1.390 . S
C2503 H2507 0.950 . S
H2504 C2500 0.950 . S
C2505 C2503 1.390 . S
C2505 C2506 1.387 . S
C2505 H2508 0.950 . S
C2506 C2505 1.387 . S
C2506 C2509 1.387 . S
H2507 C2503 0.950 . S
H2508 C2505 0.950 . S
C2509 C2500 1.390 . S
C2509 H2502 0.950 . S
C2509 C2506 1.387 . S
C2510 C2511 1.387 . S
C2510 H2514 0.950 . S
C2510 C2519 1.390 . S
C2511 C2510 1.387 . S
C2511 C2513 1.387 . S
H2512 C2519 0.950 . S
C2513 C2511 1.387 . S
C2513 C2515 1.390 . S
C2513 H2517 0.950 . S
H2514 C2510 0.950 . S
C2515 C2513 1.390 . S
C2515 C2516 1.387 . S
C2515 H2518 0.950 . S
C2516 C2515 1.387 . S
C2516 C2519 1.387 . S
H2517 C2513 0.950 . S
H2518 C2515 0.950 . S
C2519 C2510 1.390 . S
C2519 H2512 0.950 . S
C2519 C2516 1.387 . S
C2520 C2521 1.387 . S
C2520 H2524 0.950 . S
C2520 C2529 1.390 . S
C2521 C2520 1.387 . S
C2521 C2523 1.387 . S
H2522 C2529 0.950 . S
C2523 C2521 1.387 . S
C2523 C2525 1.390 . S
C2523 H2527 0.950 . S
H2524 C2520 0.950 . S
C2525 C2523 1.390 . S
C2525 C2526 1.387 . S
C2525 H2528 0.950 . S
C2526 C2525 1.387 . S
C2526 C2529 1.387 . S
H2527 C2523 0.950 . S
H2528 C2525 0.950 . S
C2529 C2520 1.390 . S
C2529 H2522 0.950 . S
C2529 C2526 1.387 . S
C2530 C2531 1.387 . S
C2530 H2534 0.950 . S
C2530 C2539 1.390 . S
C2531 C2530 1.387 . S
C2531 C2533 1.387 . S
H2532 C2539 0.950 . S
C2533 C2531 1.387 . S
C2533 C2535 1.390 . S
C2533 H2537 0.950 . S
H2534 C2530 0.950 . S
C2535 C2533 1.390 . S
C2535 C2536 1.387 . S
C2535 H2538 0.950 . S
C2536 C2535 1.387 . S
C2536 C2539 1.387 . S
H2537 C2533 0.950 . S
H2538 C2535 0.950 . S
C2539 C2530 1.390 . S
C2539 H2532 0.950 . S
C2539 C2536 1.387 . S
C2540 C2541 1.387 . S
C2540 H2544 0.950 . S
C2540 C2549 1.390 . S
C2541 C2540 1.387 . S
C2541 C2543 1.387 . S
H2542 C2549 0.950 . S
C2543 C2541 1.387 . S
C2543 C2545 1.390 . S
C2543 H2547 0.950 1_545 S
H2544 C2540 0.950 . S
C2545 C2543 1.390 . S
C2545 C2546 1.387 . S
C2545 H2548 0.950 . S
C2546 C2545 1.387 . S
C2546 C2549 1.387 . S
H2547 C2543 0.950 1_565 S
H2548 C2545 0.950 . S
C2549 C2540 1.390 . S
C2549 H2542 0.950 . S
C2549 C2546 1.387 . S
C2550 C2551 1.387 . S
C2550 H2554 0.950 . S
C2550 C2559 1.390 . S
C2551 C2550 1.387 . S
C2551 C2553 1.387 . S
H2552 C2559 0.950 . S
C2553 C2551 1.387 . S
C2553 C2555 1.390 . S
C2553 H2557 0.950 . S
H2554 C2550 0.950 . S
C2555 C2553 1.390 . S
C2555 C2556 1.387 . S
C2555 H2558 0.950 . S
C2556 C2555 1.387 . S
C2556 C2559 1.387 . S
H2557 C2553 0.950 . S
H2558 C2555 0.950 . S
C2559 C2550 1.390 . S
C2559 H2552 0.950 . S
C2559 C2556 1.387 . S
C2560 C2561 1.387 . S
C2560 H2564 0.950 . S
C2560 C2569 1.390 . S
C2561 C2560 1.387 . S
C2561 C2563 1.387 . S
H2562 C2569 0.950 . S
C2563 C2561 1.387 . S
C2563 C2565 1.390 . S
C2563 H2567 0.950 . S
H2564 C2560 0.950 . S
C2565 C2563 1.390 . S
C2565 C2566 1.387 . S
C2565 H2568 0.950 . S
C2566 C2565 1.387 . S
C2566 C2569 1.387 . S
H2567 C2563 0.950 . S
H2568 C2565 0.950 . S
C2569 C2560 1.390 . S
C2569 H2562 0.950 . S
C2569 C2566 1.387 . S
C2570 C2571 1.387 . S
C2570 H2574 0.950 . S
C2570 C2579 1.390 . S
C2571 C2570 1.387 . S
C2571 C2573 1.387 . S
H2572 C2579 0.950 . S
C2573 C2571 1.387 . S
C2573 C2575 1.390 . S
C2573 H2577 0.950 . S
H2574 C2570 0.950 . S
C2575 C2573 1.390 . S
C2575 C2576 1.387 . S
C2575 H2578 0.950 . S
C2576 C2575 1.387 . S
C2576 C2579 1.387 . S
H2577 C2573 0.950 . S
H2578 C2575 0.950 . S
C2579 C2570 1.390 . S
C2579 H2572 0.950 . S
C2579 C2576 1.387 . S
C2580 C2581 1.387 . S
C2580 H2584 0.950 . S
C2580 C2589 1.390 . S
C2581 C2580 1.387 . S
C2581 C2583 1.387 . S
H2582 C2589 0.950 . S
C2583 C2581 1.387 . S
C2583 C2585 1.390 . S
C2583 H2587 0.950 . S
H2584 C2580 0.950 . S
C2585 C2583 1.390 . S
C2585 C2586 1.387 . S
C2585 H2588 0.950 . S
C2586 C2585 1.387 . S
C2586 C2589 1.387 . S
H2587 C2583 0.950 . S
H2588 C2585 0.950 . S
C2589 C2580 1.390 . S
C2589 H2582 0.950 . S
C2589 C2586 1.387 . S
C2590 C2591 1.387 . S
C2590 H2594 0.950 . S
C2590 C2599 1.390 . S
C2591 C2590 1.387 . S
C2591 C2593 1.387 . S
H2592 C2599 0.950 . S
C2593 C2591 1.387 . S
C2593 C2595 1.390 . S
C2593 H2597 0.950 . S
H2594 C2590 0.950 . S
C2595 C2593 1.390 . S
C2595 C2596 1.387 . S
C2595 H2598 0.950 . S
C2596 C2595 1.387 . S
C2596 C2599 1.387 . S
H2597 C2593 0.950 . S
H2598 C2595 0.950 . S
C2599 C2590 1.390 . S
C2599 H2592 0.950 . S
C2599 C2596 1.387 . S
C2600 C2601 1.387 . S
C2600 H2604 0.950 . S
C2600 C2609 1.390 . S
C2601 C2600 1.387 . S
C2601 C2603 1.387 . S
H2602 C2609 0.950 . S
C2603 C2601 1.387 . S
C2603 C2605 1.390 . S
C2603 H2607 0.950 . S
H2604 C2600 0.950 . S
C2605 C2603 1.390 . S
C2605 C2606 1.387 . S
C2605 H2608 0.950 . S
C2606 C2605 1.387 . S
C2606 C2609 1.387 . S
H2607 C2603 0.950 . S
H2608 C2605 0.950 . S
C2609 C2600 1.390 . S
C2609 H2602 0.950 . S
C2609 C2606 1.387 . S
C2610 C2611 1.387 . S
C2610 H2614 0.950 . S
C2610 C2619 1.390 . S
C2611 C2610 1.387 . S
C2611 C2613 1.387 . S
H2612 C2619 0.950 . S
C2613 C2611 1.387 . S
C2613 C2615 1.390 . S
C2613 H2617 0.950 . S
H2614 C2610 0.950 . S
C2615 C2613 1.390 . S
C2615 C2616 1.387 . S
C2615 H2618 0.950 . S
C2616 C2615 1.387 . S
C2616 C2619 1.387 . S
H2617 C2613 0.950 . S
H2618 C2615 0.950 . S
C2619 C2610 1.390 . S
C2619 H2612 0.950 . S
C2619 C2616 1.387 . S
C2620 C2621 1.387 . S
C2620 H2624 0.950 . S
C2620 C2629 1.390 . S
C2621 C2620 1.387 . S
C2621 C2623 1.387 . S
H2622 C2629 0.950 . S
C2623 C2621 1.387 . S
C2623 C2625 1.390 . S
C2623 H2627 0.950 . S
H2624 C2620 0.950 . S
C2625 C2623 1.390 . S
C2625 C2626 1.387 . S
C2625 H2628 0.950 . S
C2626 C2625 1.387 . S
C2626 C2629 1.387 . S
H2627 C2623 0.950 . S
H2628 C2625 0.950 . S
C2629 C2620 1.390 . S
C2629 H2622 0.950 . S
C2629 C2626 1.387 . S
C2630 C2631 1.387 . S
C2630 H2634 0.950 . S
C2630 C2639 1.390 . S
C2631 C2630 1.387 . S
C2631 C2633 1.387 . S
H2632 C2639 0.950 . S
C2633 C2631 1.387 . S
C2633 C2635 1.390 . S
C2633 H2637 0.950 . S
H2634 C2630 0.950 . S
C2635 C2633 1.390 . S
C2635 C2636 1.387 . S
C2635 H2638 0.950 . S
C2636 C2635 1.387 . S
C2636 C2639 1.387 . S
H2637 C2633 0.950 . S
H2638 C2635 0.950 . S
C2639 C2630 1.390 . S
C2639 H2632 0.950 . S
C2639 C2636 1.387 . S
C2640 C2641 1.387 . S
C2640 H2644 0.950 . S
C2640 C2649 1.390 . S
C2641 C2640 1.387 . S
C2641 C2643 1.387 . S
H2642 C2649 0.950 . S
C2643 C2641 1.387 . S
C2643 C2645 1.390 . S
C2643 H2647 0.950 . S
H2644 C2640 0.950 . S
C2645 C2643 1.390 . S
C2645 C2646 1.387 . S
C2645 H2648 0.950 . S
C2646 C2645 1.387 . S
C2646 C2649 1.387 . S
H2647 C2643 0.950 . S
H2648 C2645 0.950 . S
C2649 C2640 1.390 . S
C2649 H2642 0.950 . S
C2649 C2646 1.387 . S
C2650 C2651 1.387 . S
C2650 H2654 0.950 . S
C2650 C2659 1.390 . S
C2651 C2650 1.387 . S
C2651 C2653 1.387 . S
H2652 C2659 0.950 . S
C2653 C2651 1.387 . S
C2653 C2655 1.390 . S
C2653 H2657 0.950 . S
H2654 C2650 0.950 . S
C2655 C2653 1.390 . S
C2655 C2656 1.387 . S
C2655 H2658 0.950 . S
C2656 C2655 1.387 . S
C2656 C2659 1.387 . S
H2657 C2653 0.950 . S
H2658 C2655 0.950 . S
C2659 C2650 1.390 . S
C2659 H2652 0.950 . S
C2659 C2656 1.387 . S
C2660 C2661 1.387 . S
C2660 H2664 0.950 . S
C2660 C2669 1.390 . S
C2661 C2660 1.387 . S
C2661 C2663 1.387 . S
H2662 C2669 0.950 . S
C2663 C2661 1.387 . S
C2663 C2665 1.390 . S
C2663 H2667 0.950 . S
H2664 C2660 0.950 . S
C2665 C2663 1.390 . S
C2665 C2666 1.387 . S
C2665 H2668 0.950 . S
C2666 C2665 1.387 . S
C2666 C2669 1.387 . S
H2667 C2663 0.950 . S
H2668 C2665 0.950 . S
C2669 C2660 1.390 . S
C2669 H2662 0.950 . S
C2669 C2666 1.387 . S
C2670 C2671 1.387 . S
C2670 H2674 0.950 . S
C2670 C2679 1.390 . S
C2671 C2670 1.387 . S
C2671 C2673 1.387 . S
H2672 C2679 0.950 . S
C2673 C2671 1.387 . S
C2673 C2675 1.390 . S
C2673 H2677 0.950 . S
H2674 C2670 0.950 . S
C2675 C2673 1.390 . S
C2675 C2676 1.387 . S
C2675 H2678 0.950 . S
C2676 C2675 1.387 . S
C2676 C2679 1.387 . S
H2677 C2673 0.950 . S
H2678 C2675 0.950 . S
C2679 C2670 1.390 . S
C2679 H2672 0.950 . S
C2679 C2676 1.387 . S
C2680 C2681 1.387 . S
C2680 H2684 0.950 . S
C2680 C2689 1.390 . S
C2681 C2680 1.387 . S
C2681 C2683 1.387 . S
H2682 C2689 0.950 . S
C2683 C2681 1.387 . S
C2683 C2685 1.390 . S
C2683 H2687 0.950 . S
H2684 C2680 0.950 . S
C2685 C2683 1.390 . S
C2685 C2686 1.387 . S
C2685 H2688 0.950 . S
C2686 C2685 1.387 . S
C2686 C2689 1.387 . S
H2687 C2683 0.950 . S
H2688 C2685 0.950 . S
C2689 C2680 1.390 . S
C2689 H2682 0.950 . S
C2689 C2686 1.387 . S
C2690 C2691 1.387 . S
C2690 H2694 0.950 . S
C2690 C2699 1.390 . S
C2691 C2690 1.387 . S
C2691 C2693 1.387 . S
H2692 C2699 0.950 . S
C2693 C2691 1.387 . S
C2693 C2695 1.390 . S
C2693 H2697 0.950 . S
H2694 C2690 0.950 . S
C2695 C2693 1.390 . S
C2695 C2696 1.387 . S
C2695 H2698 0.950 . S
C2696 C2695 1.387 . S
C2696 C2699 1.387 . S
H2697 C2693 0.950 . S
H2698 C2695 0.950 . S
C2699 C2690 1.390 . S
C2699 H2692 0.950 . S
C2699 C2696 1.387 . S
C2700 C2701 1.387 . S
C2700 H2704 0.950 . S
C2700 C2709 1.390 . S
C2701 C2700 1.387 . S
C2701 C2703 1.387 . S
H2702 C2709 0.950 . S
C2703 C2701 1.387 . S
C2703 C2705 1.390 . S
C2703 H2707 0.950 . S
H2704 C2700 0.950 . S
C2705 C2703 1.390 . S
C2705 C2706 1.387 . S
C2705 H2708 0.950 . S
C2706 C2705 1.387 . S
C2706 C2709 1.387 . S
H2707 C2703 0.950 . S
H2708 C2705 0.950 . S
C2709 C2700 1.390 . S
C2709 H2702 0.950 . S
C2709 C2706 1.387 . S
C2710 C2711 1.387 . S
C2710 H2714 0.950 . S
C2710 C2719 1.390 . S
C2711 C2710 1.387 . S
C2711 C2713 1.387 . S
H2712 C2719 0.950 . S
C2713 C2711 1.387 . S
C2713 C2715 1.390 . S
C2713 H2717 0.950 . S
H2714 C2710 0.950 . S
C2715 C2713 1.390 . S
C2715 C2716 1.387 . S
C2715 H2718 0.950 . S
C2716 C2715 1.387 . S
C2716 C2719 1.387 . S
H2717 C2713 0.950 . S
H2718 C2715 0.950 . S
C2719 C2710 1.390 . S
C2719 H2712 0.950 . S
C2719 C2716 1.387 . S
C2720 C2721 1.387 . S
C2720 H2724 0.950 . S
C2720 C2729 1.390 . S
C2721 C2720 1.387 . S
C2721 C2723 1.387 . S
H2722 C2729 0.950 . S
C2723 C2721 1.387 . S
C2723 C2725 1.390 . S
C2723 H2727 0.950 . S
H2724 C2720 0.950 . S
C2725 C2723 1.390 . S
C2725 C2726 1.387 . S
C2725 H2728 0.950 . S
C2726 C2725 1.387 . S
C2726 C2729 1.387 . S
H2727 C2723 0.950 . S
H2728 C2725 0.950 . S
C2729 C2720 1.390 . S
C2729 H2722 0.950 . S
C2729 C2726 1.387 . S
C2730 C2731 1.387 . S
C2730 H2734 0.950 . S
C2730 C2739 1.390 . S
C2731 C2730 1.387 . S
C2731 C2733 1.387 . S
H2732 C2739 0.950 . S
C2733 C2731 1.387 . S
C2733 C2735 1.390 . S
C2733 H2737 0.950 . S
H2734 C2730 0.950 . S
C2735 C2733 1.390 . S
C2735 C2736 1.387 . S
C2735 H2738 0.950 . S
C2736 C2735 1.387 . S
C2736 C2739 1.387 . S
H2737 C2733 0.950 . S
H2738 C2735 0.950 . S
C2739 C2730 1.390 . S
C2739 H2732 0.950 . S
C2739 C2736 1.387 . S
C2740 C2741 1.387 . S
C2740 H2744 0.950 . S
C2740 C2749 1.390 . S
C2741 C2740 1.387 . S
C2741 C2743 1.387 . S
H2742 C2749 0.950 . S
C2743 C2741 1.387 . S
C2743 C2745 1.390 . S
C2743 H2747 0.950 . S
H2744 C2740 0.950 . S
C2745 C2743 1.390 . S
C2745 C2746 1.387 . S
C2745 H2748 0.950 . S
C2746 C2745 1.387 . S
C2746 C2749 1.387 . S
H2747 C2743 0.950 . S
H2748 C2745 0.950 . S
C2749 C2740 1.390 . S
C2749 H2742 0.950 . S
C2749 C2746 1.387 . S
C2750 C2751 1.387 . S
C2750 H2754 0.950 . S
C2750 C2759 1.390 . S
C2751 C2750 1.387 . S
C2751 C2753 1.387 . S
H2752 C2759 0.950 . S
C2753 C2751 1.387 . S
C2753 C2755 1.390 . S
C2753 H2757 0.950 . S
H2754 C2750 0.950 . S
C2755 C2753 1.390 . S
C2755 C2756 1.387 . S
C2755 H2758 0.950 . S
C2756 C2755 1.387 . S
C2756 C2759 1.387 . S
H2757 C2753 0.950 . S
H2758 C2755 0.950 . S
C2759 C2750 1.390 . S
C2759 H2752 0.950 . S
C2759 C2756 1.387 . S
C2760 C2761 1.387 . S
C2760 H2764 0.950 . S
C2760 C2769 1.390 . S
C2761 C2760 1.387 . S
C2761 C2763 1.387 . S
H2762 C2769 0.950 . S
C2763 C2761 1.387 . S
C2763 C2765 1.390 . S
C2763 H2767 0.950 . S
H2764 C2760 0.950 . S
C2765 C2763 1.390 . S
C2765 C2766 1.387 . S
C2765 H2768 0.950 . S
C2766 C2765 1.387 . S
C2766 C2769 1.387 . S
H2767 C2763 0.950 . S
H2768 C2765 0.950 . S
C2769 C2760 1.390 . S
C2769 H2762 0.950 . S
C2769 C2766 1.387 . S
C2770 C2771 1.387 . S
C2770 H2774 0.950 . S
C2770 C2779 1.390 . S
C2771 C2770 1.387 . S
C2771 C2773 1.387 . S
H2772 C2779 0.950 . S
C2773 C2771 1.387 . S
C2773 C2775 1.390 . S
C2773 H2777 0.950 . S
H2774 C2770 0.950 . S
C2775 C2773 1.390 . S
C2775 C2776 1.387 . S
C2775 H2778 0.950 . S
C2776 C2775 1.387 . S
C2776 C2779 1.387 . S
H2777 C2773 0.950 . S
H2778 C2775 0.950 . S
C2779 C2770 1.390 . S
C2779 H2772 0.950 . S
C2779 C2776 1.387 . S
C2780 C2781 1.387 . S
C2780 H2784 0.950 . S
C2780 C2789 1.390 . S
C2781 C2780 1.387 . S
C2781 C2783 1.387 . S
H2782 C2789 0.950 . S
C2783 C2781 1.387 . S
C2783 C2785 1.390 . S
C2783 H2787 0.950 . S
H2784 C2780 0.950 . S
C2785 C2783 1.390 . S
C2785 C2786 1.387 . S
C2785 H2788 0.950 . S
C2786 C2785 1.387 . S
C2786 C2789 1.387 . S
H2787 C2783 0.950 . S
H2788 C2785 0.950 . S
C2789 C2780 1.390 . S
C2789 H2782 0.950 . S
C2789 C2786 1.387 . S
C2790 C2791 1.387 . S
C2790 H2794 0.950 . S
C2790 C2799 1.390 . S
C2791 C2790 1.387 . S
C2791 C2793 1.387 . S
H2792 C2799 0.950 . S
C2793 C2791 1.387 . S
C2793 C2795 1.390 . S
C2793 H2797 0.950 . S
H2794 C2790 0.950 . S
C2795 C2793 1.390 . S
C2795 C2796 1.387 . S
C2795 H2798 0.950 . S
C2796 C2795 1.387 . S
C2796 C2799 1.387 . S
H2797 C2793 0.950 . S
H2798 C2795 0.950 . S
C2799 C2790 1.390 . S
C2799 H2792 0.950 . S
C2799 C2796 1.387 . S
C2800 C2801 1.387 . S
C2800 H2804 0.950 . S
C2800 C2809 1.390 . S
C2801 C2800 1.387 . S
C2801 C2803 1.387 . S
H2802 C2809 0.950 . S
C2803 C2801 1.387 . S
C2803 C2805 1.390 . S
C2803 H2807 0.950 . S
H2804 C2800 0.950 . S
C2805 C2803 1.390 . S
C2805 C2806 1.387 . S
C2805 H2808 0.950 . S
C2806 C2805 1.387 . S
C2806 C2809 1.387 . S
H2807 C2803 0.950 . S
H2808 C2805 0.950 . S
C2809 C2800 1.390 . S
C2809 H2802 0.950 . S
C2809 C2806 1.387 . S
C2810 C2811 1.387 . S
C2810 H2814 0.950 . S
C2810 C2819 1.390 . S
C2811 C2810 1.387 . S
C2811 C2813 1.387 . S
H2812 C2819 0.950 . S
C2813 C2811 1.387 . S
C2813 C2815 1.390 . S
C2813 H2817 0.950 . S
H2814 C2810 0.950 . S
C2815 C2813 1.390 . S
C2815 C2816 1.387 . S
C2815 H2818 0.950 . S
C2816 C2815 1.387 . S
C2816 C2819 1.387 . S
H2817 C2813 0.950 . S
H2818 C2815 0.950 . S
C2819 C2810 1.390 . S
C2819 H2812 0.950 . S
C2819 C2816 1.387 . S
C2820 C2821 1.387 . S
C2820 H2824 0.950 . S
C2820 C2829 1.390 . S
C2821 C2820 1.387 . S
C2821 C2823 1.387 . S
H2822 C2829 0.950 . S
C2823 C2821 1.387 . S
C2823 C2825 1.390 . S
C2823 H2827 0.950 . S
H2824 C2820 0.950 . S
C2825 C2823 1.390 . S
C2825 C2826 1.387 . S
C2825 H2828 0.950 . S
C2826 C2825 1.387 . S
C2826 C2829 1.387 . S
H2827 C2823 0.950 . S
H2828 C2825 0.950 . S
C2829 C2820 1.390 . S
C2829 H2822 0.950 . S
C2829 C2826 1.387 . S
C2830 C2831 1.387 . S
C2830 H2834 0.950 . S
C2830 C2839 1.390 . S
C2831 C2830 1.387 . S
C2831 C2833 1.387 . S
H2832 C2839 0.950 . S
C2833 C2831 1.387 . S
C2833 C2835 1.390 . S
C2833 H2837 0.950 . S
H2834 C2830 0.950 . S
C2835 C2833 1.390 . S
C2835 C2836 1.387 . S
C2835 H2838 0.950 . S
C2836 C2835 1.387 . S
C2836 C2839 1.387 . S
H2837 C2833 0.950 . S
H2838 C2835 0.950 . S
C2839 C2830 1.390 . S
C2839 H2832 0.950 . S
C2839 C2836 1.387 . S
C2840 C2841 1.387 . S
C2840 H2844 0.950 . S
C2840 C2849 1.390 . S
C2841 C2840 1.387 . S
C2841 C2843 1.387 . S
H2842 C2849 0.950 . S
C2843 C2841 1.387 . S
C2843 C2845 1.390 . S
C2843 H2847 0.950 . S
H2844 C2840 0.950 . S
C2845 C2843 1.390 . S
C2845 C2846 1.387 . S
C2845 H2848 0.950 . S
C2846 C2845 1.387 . S
C2846 C2849 1.387 . S
H2847 C2843 0.950 . S
H2848 C2845 0.950 . S
C2849 C2840 1.390 . S
C2849 H2842 0.950 . S
C2849 C2846 1.387 . S
C2850 C2851 1.387 . S
C2850 H2854 0.950 . S
C2850 C2859 1.390 . S
C2851 C2850 1.387 . S
C2851 C2853 1.387 . S
H2852 C2859 0.950 . S
C2853 C2851 1.387 . S
C2853 C2855 1.390 . S
C2853 H2857 0.950 . S
H2854 C2850 0.950 . S
C2855 C2853 1.390 . S
C2855 C2856 1.387 . S
C2855 H2858 0.950 . S
C2856 C2855 1.387 . S
C2856 C2859 1.387 . S
H2857 C2853 0.950 . S
H2858 C2855 0.950 . S
C2859 C2850 1.390 . S
C2859 H2852 0.950 . S
C2859 C2856 1.387 . S
C2860 C2861 1.387 . S
C2860 H2864 0.950 . S
C2860 C2869 1.390 . S
C2861 C2860 1.387 . S
C2861 C2863 1.387 . S
H2862 C2869 0.950 . S
C2863 C2861 1.387 . S
C2863 C2865 1.390 . S
C2863 H2867 0.950 . S
H2864 C2860 0.950 . S
C2865 C2863 1.390 . S
C2865 C2866 1.387 . S
C2865 H2868 0.950 . S
C2866 C2865 1.387 . S
C2866 C2869 1.387 . S
H2867 C2863 0.950 . S
H2868 C2865 0.950 . S
C2869 C2860 1.390 . S
C2869 H2862 0.950 . S
C2869 C2866 1.387 . S
C2870 C2871 1.387 . S
C2870 H2874 0.950 . S
C2870 C2879 1.390 . S
C2871 C2870 1.387 . S
C2871 C2873 1.387 . S
H2872 C2879 0.950 . S
C2873 C2871 1.387 . S
C2873 C2875 1.390 . S
C2873 H2877 0.950 . S
H2874 C2870 0.950 . S
C2875 C2873 1.390 . S
C2875 C2876 1.387 . S
C2875 H2878 0.950 . S
C2876 C2875 1.387 . S
C2876 C2879 1.387 . S
H2877 C2873 0.950 . S
H2878 C2875 0.950 . S
C2879 C2870 1.390 . S
C2879 H2872 0.950 . S
C2879 C2876 1.387 . S
C2880 C2881 1.387 . S
C2880 H2884 0.950 . S
C2880 C2889 1.390 . S
C2881 C2880 1.387 . S
C2881 C2883 1.387 . S
H2882 C2889 0.950 . S
C2883 C2881 1.387 . S
C2883 C2885 1.390 . S
C2883 H2887 0.950 . S
H2884 C2880 0.950 . S
C2885 C2883 1.390 . S
C2885 C2886 1.387 . S
C2885 H2888 0.950 . S
C2886 C2885 1.387 . S
C2886 C2889 1.387 . S
H2887 C2883 0.950 . S
H2888 C2885 0.950 . S
C2889 C2880 1.390 . S
C2889 H2882 0.950 . S
C2889 C2886 1.387 . S
C2890 C2891 1.387 . S
C2890 H2894 0.950 . S
C2890 C2899 1.390 . S
C2891 C2890 1.387 . S
C2891 C2893 1.387 . S
H2892 C2899 0.950 . S
C2893 C2891 1.387 . S
C2893 C2895 1.390 . S
C2893 H2897 0.950 . S
H2894 C2890 0.950 . S
C2895 C2893 1.390 . S
C2895 C2896 1.387 . S
C2895 H2898 0.950 . S
C2896 C2895 1.387 . S
C2896 C2899 1.387 . S
H2897 C2893 0.950 . S
H2898 C2895 0.950 . S
C2899 C2890 1.390 . S
C2899 H2892 0.950 . S
C2899 C2896 1.387 . S
C2900 C2901 1.387 . S
C2900 H2904 0.950 . S
C2900 C2909 1.390 . S
C2901 C2900 1.387 . S
C2901 C2903 1.387 . S
H2902 C2909 0.950 . S
C2903 C2901 1.387 . S
C2903 C2905 1.390 . S
C2903 H2907 0.950 . S
H2904 C2900 0.950 . S
C2905 C2903 1.390 . S
C2905 C2906 1.387 . S
C2905 H2908 0.950 . S
C2906 C2905 1.387 . S
C2906 C2909 1.387 . S
H2907 C2903 0.950 . S
H2908 C2905 0.950 . S
C2909 C2900 1.390 . S
C2909 H2902 0.950 . S
C2909 C2906 1.387 . S
C2910 C2911 1.387 . S
C2910 H2914 0.950 . S
C2910 C2919 1.390 . S
C2911 C2910 1.387 . S
C2911 C2913 1.387 . S
H2912 C2919 0.950 . S
C2913 C2911 1.387 . S
C2913 C2915 1.390 . S
C2913 H2917 0.950 . S
H2914 C2910 0.950 . S
C2915 C2913 1.390 . S
C2915 C2916 1.387 . S
C2915 H2918 0.950 . S
C2916 C2915 1.387 . S
C2916 C2919 1.387 . S
H2917 C2913 0.950 . S
H2918 C2915 0.950 . S
C2919 C2910 1.390 . S
C2919 H2912 0.950 . S
C2919 C2916 1.387 . S
C2920 C2921 1.387 . S
C2920 H2924 0.950 . S
C2920 C2929 1.390 . S
C2921 C2920 1.387 . S
C2921 C2923 1.387 . S
H2922 C2929 0.950 . S
C2923 C2921 1.387 . S
C2923 C2925 1.390 . S
C2923 H2927 0.950 . S
H2924 C2920 0.950 . S
C2925 C2923 1.390 . S
C2925 C2926 1.387 . S
C2925 H2928 0.950 . S
C2926 C2925 1.387 . S
C2926 C2929 1.387 . S
H2927 C2923 0.950 . S
H2928 C2925 0.950 . S
C2929 C2920 1.390 . S
C2929 H2922 0.950 . S
C2929 C2926 1.387 . S
C2930 C2931 1.387 . S
C2930 H2934 0.950 . S
C2930 C2939 1.390 . S
C2931 C2930 1.387 . S
C2931 C2933 1.387 . S
H2932 C2939 0.950 . S
C2933 C2931 1.387 . S
C2933 C2935 1.390 . S
C2933 H2937 0.950 . S
H2934 C2930 0.950 . S
C2935 C2933 1.390 . S
C2935 C2936 1.387 . S
C2935 H2938 0.950 . S
C2936 C2935 1.387 . S
C2936 C2939 1.387 . S
H2937 C2933 0.950 . S
H2938 C2935 0.950 . S
C2939 C2930 1.390 . S
C2939 H2932 0.950 . S
C2939 C2936 1.387 . S
C2940 C2941 1.387 . S
C2940 H2944 0.950 . S
C2940 C2949 1.390 . S
C2941 C2940 1.387 . S
C2941 C2943 1.387 . S
H2942 C2949 0.950 . S
C2943 C2941 1.387 . S
C2943 C2945 1.390 . S
C2943 H2947 0.950 . S
H2944 C2940 0.950 . S
C2945 C2943 1.390 . S
C2945 C2946 1.387 . S
C2945 H2948 0.950 . S
C2946 C2945 1.387 . S
C2946 C2949 1.387 . S
H2947 C2943 0.950 . S
H2948 C2945 0.950 . S
C2949 C2940 1.390 . S
C2949 H2942 0.950 . S
C2949 C2946 1.387 . S
C2950 C2951 1.387 . S
C2950 H2954 0.950 . S
C2950 C2959 1.390 . S
C2951 C2950 1.387 . S
C2951 C2953 1.387 . S
H2952 C2959 0.950 . S
C2953 C2951 1.387 . S
C2953 C2955 1.390 . S
C2953 H2957 0.950 . S
H2954 C2950 0.950 . S
C2955 C2953 1.390 . S
C2955 C2956 1.387 . S
C2955 H2958 0.950 . S
C2956 C2955 1.387 . S
C2956 C2959 1.387 . S
H2957 C2953 0.950 . S
H2958 C2955 0.950 . S
C2959 C2950 1.390 . S
C2959 H2952 0.950 . S
C2959 C2956 1.387 . S
C2960 C2961 1.387 . S
C2960 H2964 0.950 . S
C2960 C2969 1.390 . S
C2961 C2960 1.387 . S
C2961 C2963 1.387 . S
H2962 C2969 0.950 . S
C2963 C2961 1.387 . S
C2963 C2965 1.390 . S
C2963 H2967 0.950 . S
H2964 C2960 0.950 . S
C2965 C2963 1.390 . S
C2965 C2966 1.387 . S
C2965 H2968 0.950 . S
C2966 C2965 1.387 . S
C2966 C2969 1.387 . S
H2967 C2963 0.950 . S
H2968 C2965 0.950 . S
C2969 C2960 1.390 . S
C2969 H2962 0.950 . S
C2969 C2966 1.387 . S
C2970 C2971 1.387 . S
C2970 H2974 0.950 . S
C2970 C2979 1.390 . S
C2971 C2970 1.387 . S
C2971 C2973 1.387 . S
H2972 C2979 0.950 . S
C2973 C2971 1.387 . S
C2973 C2975 1.390 . S
C2973 H2977 0.950 . S
H2974 C2970 0.950 . S
C2975 C2973 1.390 . S
C2975 C2976 1.387 . S
C2975 H2978 0.950 . S
C2976 C2975 1.387 . S
C2976 C2979 1.387 . S
H2977 C2973 0.950 . S
H2978 C2975 0.950 . S
C2979 C2970 1.390 . S
C2979 H2972 0.950 . S
C2979 C2976 1.387 . S
C2980 C2981 1.387 . S
C2980 H2984 0.950 . S
C2980 C2989 1.390 . S
C2981 C2980 1.387 . S
C2981 C2983 1.387 . S
H2982 C2989 0.950 . S
C2983 C2981 1.387 . S
C2983 C2985 1.390 . S
C2983 H2987 0.950 . S
H2984 C2980 0.950 . S
C2985 C2983 1.390 . S
C2985 C2986 1.387 . S
C2985 H2988 0.950 . S
C2986 C2985 1.387 . S
C2986 C2989 1.387 . S
H2987 C2983 0.950 . S
H2988 C2985 0.950 . S
C2989 C2980 1.390 . S
C2989 H2982 0.950 . S
C2989 C2986 1.387 . S
C2990 C2991 1.387 . S
C2990 H2994 0.950 . S
C2990 C2999 1.390 . S
C2991 C2990 1.387 . S
C2991 C2993 1.387 . S
H2992 C2999 0.950 . S
C2993 C2991 1.387 . S
C2993 C2995 1.390 . S
C2993 H2997 0.950 . S
H2994 C2990 0.950 . S
C2995 C2993 1.390 . S
C2995 C2996 1.387 . S
C2995 H2998 0.950 . S
C2996 C2995 1.387 . S
C2996 C2999 1.387 . S
H2997 C2993 0.950 . S
H2998 C2995 0.950 . S
C2999 C2990 1.390 . S
C2999 H2992 0.950 . S
C2999 C2996 1.387 . S
C3000 C3001 1.387 . S
C3000 H3004 0.950 . S
C3000 C3009 1.390 . S
C3001 C3000 1.387 . S
C3001 C3003 1.387 . S
H3002 C3009 0.950 . S
C3003 C3001 1.387 . S
C3003 C3005 1.390 . S
C3003 H3007 0.950 . S
H3004 C3000 0.950 . S
C3005 C3003 1.390 . S
C3005 C3006 1.387 . S
C3005 H3008 0.950 . S
C3006 C3005 1.387 . S
C3006 C3009 1.387 . S
H3007 C3003 0.950 . S
H3008 C3005 0.950 . S
C3009 C3000 1.390 . S
C3009 H3002 0.950 . S
C3009 C3006 1.387 . S
C3010 C3011 1.387 . S
C3010 H3014 0.950 . S
C3010 C3019 1.390 . S
C3011 C3010 1.387 . S
C3011 C3013 1.387 . S
H3012 C3019 0.950 . S
C3013 C3011 1.387 . S
C3013 C3015 1.390 . S
C3013 H3017 0.950 . S
H3014 C3010 0.950 . S
C3015 C3013 1.390 . S
C3015 C3016 1.387 . S
C3015 H3018 0.950 . S
C3016 C3015 1.387 . S
C3016 C3019 1.387 . S
H3017 C3013 0.950 . S
H3018 C3015 0.950 . S
C3019 C3010 1.390 . S
C3019 H3012 0.950 . S
C3019 C3016 1.387 . S
C3020 C3021 1.387 . S
C3020 H3024 0.950 . S
C3020 C3029 1.390 . S
C3021 C3020 1.387 . S
C3021 C3023 1.387 . S
H3022 C3029 0.950 . S
C3023 C3021 1.387 . S
C3023 C3025 1.390 . S
C3023 H3027 0.950 . S
H3024 C3020 0.950 . S
C3025 C3023 1.390 . S
C3025 C3026 1.387 . S
C3025 H3028 0.950 . S
C3026 C3025 1.387 . S
C3026 C3029 1.387 . S
H3027 C3023 0.950 . S
H3028 C3025 0.950 . S
C3029 C3020 1.390 . S
C3029 H3022 0.950 . S
C3029 C3026 1.387 . S
C3030 C3031 1.387 . S
C3030 H3034 0.950 . S
C3030 C3039 1.390 . S
C3031 C3030 1.387 . S
C3031 C3033 1.387 . S
H3032 C3039 0.950 . S
C3033 C3031 1.387 . S
C3033 C3035 1.390 . S
C3033 H3037 0.950 . S
H3034 C3030 0.950 . S
C3035 C3033 1.390 . S
C3035 C3036 1.387 . S
C3035 H3038 0.950 . S
C3036 C3035 1.387 . S
C3036 C3039 1.387 . S
H3037 C3033 0.950 . S
H3038 C3035 0.950 . S
C3039 C3030 1.390 . S
C3039 H3032 0.950 . S
C3039 C3036 1.387 . S
C3040 C3041 1.387 . S
C3040 H3044 0.950 . S
C3040 C3049 1.390 . S
C3041 C3040 1.387 . S
C3041 C3043 1.387 . S
H3042 C3049 0.950 . S
C3043 C3041 1.387 . S
C3043 C3045 1.390 . S
C3043 H3047 0.950 . S
H3044 C3040 0.950 . S
C3045 C3043 1.390 . S
C3045 C3046 1.387 . S
C3045 H3048 0.950 . S
C3046 C3045 1.387 . S
C3046 C3049 1.387 . S
H3047 C3043 0.950 . S
H3048 C3045 0.950 . S
C3049 C3040 1.390 . S
C3049 H3042 0.950 . S
C3049 C3046 1.387 . S
C3050 C3051 1.387 . S
C3050 H3054 0.950 . S
C3050 C3059 1.390 . S
C3051 C3050 1.387 . S
C3051 C3053 1.387 . S
H3052 C3059 0.950 . S
C3053 C3051 1.387 . S
C3053 C3055 1.390 . S
C3053 H3057 0.950 . S
H3054 C3050 0.950 . S
C3055 C3053 1.390 . S
C3055 C3056 1.387 . S
C3055 H3058 0.950 . S
C3056 C3055 1.387 . S
C3056 C3059 1.387 . S
H3057 C3053 0.950 . S
H3058 C3055 0.950 . S
C3059 C3050 1.390 . S
C3059 H3052 0.950 . S
C3059 C3056 1.387 . S
C3060 C3061 1.387 . S
C3060 H3064 0.950 . S
C3060 C3069 1.390 . S
C3061 C3060 1.387 . S
C3061 C3063 1.387 . S
H3062 C3069 0.950 . S
C3063 C3061 1.387 . S
C3063 C3065 1.390 . S
C3063 H3067 0.950 . S
H3064 C3060 0.950 . S
C3065 C3063 1.390 . S
C3065 C3066 1.387 . S
C3065 H3068 0.950 . S
C3066 C3065 1.387 . S
C3066 C3069 1.387 . S
H3067 C3063 0.950 . S
H3068 C3065 0.950 . S
C3069 C3060 1.390 . S
C3069 H3062 0.950 . S
C3069 C3066 1.387 . S
C3070 C3071 1.387 . S
C3070 H3074 0.950 . S
C3070 C3079 1.390 . S
C3071 C3070 1.387 . S
C3071 C3073 1.387 . S
H3072 C3079 0.950 . S
C3073 C3071 1.387 . S
C3073 C3075 1.390 . S
C3073 H3077 0.950 . S
H3074 C3070 0.950 . S
C3075 C3073 1.390 . S
C3075 C3076 1.387 . S
C3075 H3078 0.950 . S
C3076 C3075 1.387 . S
C3076 C3079 1.387 . S
H3077 C3073 0.950 . S
H3078 C3075 0.950 . S
C3079 C3070 1.390 . S
C3079 H3072 0.950 . S
C3079 C3076 1.387 . S
C3080 C3081 1.387 . S
C3080 H3084 0.950 . S
C3080 C3089 1.390 . S
C3081 C3080 1.387 . S
C3081 C3083 1.387 . S
H3082 C3089 0.950 . S
C3083 C3081 1.387 . S
C3083 C3085 1.390 . S
C3083 H3087 0.950 . S
H3084 C3080 0.950 . S
C3085 C3083 1.390 . S
C3085 C3086 1.387 . S
C3085 H3088 0.950 . S
C3086 C3085 1.387 . S
C3086 C3089 1.387 . S
H3087 C3083 0.950 . S
H3088 C3085 0.950 . S
C3089 C3080 1.390 . S
C3089 H3082 0.950 . S
C3089 C3086 1.387 . S
C3090 C3091 1.387 . S
C3090 H3094 0.950 . S
C3090 C3099 1.390 . S
C3091 C3090 1.387 . S
C3091 C3093 1.387 . S
H3092 C3099 0.950 . S
C3093 C3091 1.387 . S
C3093 C3095 1.390 . S
C3093 H3097 0.950 . S
H3094 C3090 0.950 . S
C3095 C3093 1.390 . S
C3095 C3096 1.387 . S
C3095 H3098 0.950 . S
C3096 C3095 1.387 . S
C3096 C3099 1.387 . S
H3097 C3093 0.950 . S
H3098 C3095 0.950 . S
C3099 C3090 1.390 . S
C3099 H3092 0.950 . S
C3099 C3096 1.387 . S
C3100 C3101 1.387 . S
C3100 H3104 0.950 . S
C3100 C3109 1.390 . S
C3101 C3100 1.387 . S
C3101 C3103 1.387 . S
H3102 C3109 0.950 . S
C3103 C3101 1.387 . S
C3103 C3105 1.390 . S
C3103 H3107 0.950 . S
H3104 C3100 0.950 . S
C3105 C3103 1.390 . S
C3105 C3106 1.387 . S
C3105 H3108 0.950 . S
C3106 C3105 1.387 . S
C3106 C3109 1.387 . S
H3107 C3103 0.950 . S
H3108 C3105 0.950 . S
C3109 C3100 1.390 . S
C3109 H3102 0.950 . S
C3109 C3106 1.387 . S
C3110 C3111 1.387 . S
C3110 H3114 0.950 . S
C3110 C3119 1.390 . S
C3111 C3110 1.387 . S
C3111 C3113 1.387 . S
H3112 C3119 0.950 . S
C3113 C3111 1.387 . S
C3113 C3115 1.390 . S
C3113 H3117 0.950 . S
H3114 C3110 0.950 . S
C3115 C3113 1.390 . S
C3115 C3116 1.387 . S
C3115 H3118 0.950 . S
C3116 C3115 1.387 . S
C3116 C3119 1.387 . S
H3117 C3113 0.950 . S
H3118 C3115 0.950 . S
C3119 C3110 1.390 . S
C3119 H3112 0.950 . S
C3119 C3116 1.387 . S
C3120 C3121 1.387 . S
C3120 H3124 0.950 . S
C3120 C3129 1.390 . S
C3121 C3120 1.387 . S
C3121 C3123 1.387 . S
H3122 C3129 0.950 . S
C3123 C3121 1.387 . S
C3123 C3125 1.390 . S
C3123 H3127 0.950 . S
H3124 C3120 0.950 . S
C3125 C3123 1.390 . S
C3125 C3126 1.387 . S
C3125 H3128 0.950 . S
C3126 C3125 1.387 . S
C3126 C3129 1.387 . S
H3127 C3123 0.950 . S
H3128 C3125 0.950 . S
C3129 C3120 1.390 . S
C3129 H3122 0.950 . S
C3129 C3126 1.387 . S
C3130 C3131 1.387 . S
C3130 H3134 0.950 . S
C3130 C3139 1.390 . S
C3131 C3130 1.387 . S
C3131 C3133 1.387 . S
H3132 C3139 0.950 . S
C3133 C3131 1.387 . S
C3133 C3135 1.390 . S
C3133 H3137 0.950 . S
H3134 C3130 0.950 . S
C3135 C3133 1.390 . S
C3135 C3136 1.387 . S
C3135 H3138 0.950 . S
C3136 C3135 1.387 . S
C3136 C3139 1.387 . S
H3137 C3133 0.950 . S
H3138 C3135 0.950 . S
C3139 C3130 1.390 . S
C3139 H3132 0.950 . S
C3139 C3136 1.387 . S
C3140 C3141 1.387 . S
C3140 H3144 0.950 . S
C3140 C3149 1.390 . S
C3141 C3140 1.387 . S
C3141 C3143 1.387 . S
H3142 C3149 0.950 . S
C3143 C3141 1.387 . S
C3143 C3145 1.390 . S
C3143 H3147 0.950 . S
H3144 C3140 0.950 . S
C3145 C3143 1.390 . S
C3145 C3146 1.387 . S
C3145 H3148 0.950 . S
C3146 C3145 1.387 . S
C3146 C3149 1.387 . S
H3147 C3143 0.950 . S
H3148 C3145 0.950 . S
C3149 C3140 1.390 . S
C3149 H3142 0.950 . S
C3149 C3146 1.387 . S
C3150 C3151 1.387 . S
C3150 H3154 0.950 . S
C3150 C3159 1.390 . S
C3151 C3150 1.387 . S
C3151 C3153 1.387 . S
H3152 C3159 0.950 . S
C3153 C3151 1.387 . S
C3153 C3155 1.390 . S
C3153 H3157 0.950 . S
H3154 C3150 0.950 . S
C3155 C3153 1.390 . S
C3155 C3156 1.387 . S
C3155 H3158 0.950 . S
C3156 C3155 1.387 . S
C3156 C3159 1.387 . S
H3157 C3153 0.950 . S
H3158 C3155 0.950 . S
C3159 C3150 1.390 . S
C3159 H3152 0.950 . S
C3159 C3156 1.387 . S
C3160 C3161 1.387 . S
C3160 H3164 0.950 . S
C3160 C3169 1.390 . S
C3161 C3160 1.387 . S
C3161 C3163 1.387 . S
H3162 C3169 0.950 . S
C3163 C3161 1.387 . S
C3163 C3165 1.390 . S
C3163 H3167 0.950 . S
H3164 C3160 0.950 . S
C3165 C3163 1.390 . S
C3165 C3166 1.387 . S
C3165 H3168 0.950 . S
C3166 C3165 1.387 . S
C3166 C3169 1.387 . S
H3167 C3163 0.950 . S
H3168 C3165 0.950 . S
C3169 C3160 1.390 . S
C3169 H3162 0.950 . S
C3169 C3166 1.387 . S
C3170 C3171 1.387 . S
C3170 H3174 0.950 . S
C3170 C3179 1.390 . S
C3171 C3170 1.387 . S
C3171 C3173 1.387 . S
H3172 C3179 0.950 . S
C3173 C3171 1.387 . S
C3173 C3175 1.390 . S
C3173 H3177 0.950 . S
H3174 C3170 0.950 . S
C3175 C3173 1.390 . S
C3175 C3176 1.387 . S
C3175 H3178 0.950 . S
C3176 C3175 1.387 . S
C3176 C3179 1.387 . S
H3177 C3173 0.950 . S
H3178 C3175 0.950 . S
C3179 C3170 1.390 . S
C3179 H3172 0.950 . S
C3179 C3176 1.387 . S
C3180 C3181 1.387 . S
C3180 H3184 0.950 . S
C3180 C3189 1.390 . S
C3181 C3180 1.387 . S
C3181 C3183 1.387 . S
H3182 C3189 0.950 . S
C3183 C3181 1.387 . S
C3183 C3185 1.390 . S
C3183 H3187 0.950 . S
H3184 C3180 0.950 . S
C3185 C3183 1.390 . S
C3185 C3186 1.387 . S
C3185 H3188 0.950 1_455 S
C3186 C3185 1.387 . S
C3186 C3189 1.387 . S
H3187 C3183 0.950 . S
H3188 C3185 0.950 1_655 S
C3189 C3180 1.390 . S
C3189 H3182 0.950 . S
C3189 C3186 1.387 . S
C3190 C3191 1.387 . S
C3190 H3194 0.950 . S
C3190 C3199 1.390 . S
C3191 C3190 1.387 . S
C3191 C3193 1.387 . S
H3192 C3199 0.950 . S
C3193 C3191 1.387 . S
C3193 C3195 1.390 . S
C3193 H3197 0.950 . S
H3194 C3190 0.950 . S
C3195 C3193 1.390 . S
C3195 C3196 1.387 . S
C3195 H3198 0.950 . S
C3196 C3195 1.387 . S
C3196 C3199 1.387 . S
H3197 C3193 0.950 . S
H3198 C3195 0.950 . S
C3199 C3190 1.390 . S
C3199 H3192 0.950 . S
C3199 C3196 1.387 . S
C3200 C3201 1.387 . S
C3200 H3204 0.950 . S
C3200 C3209 1.390 . S
C3201 C3200 1.387 . S
C3201 C3203 1.387 . S
H3202 C3209 0.950 . S
C3203 C3201 1.387 . S
C3203 C3205 1.390 . S
C3203 H3207 0.950 . S
H3204 C3200 0.950 . S
C3205 C3203 1.390 . S
C3205 C3206 1.387 . S
C3205 H3208 0.950 . S
C3206 C3205 1.387 . S
C3206 C3209 1.387 . S
H3207 C3203 0.950 . S
H3208 C3205 0.950 . S
C3209 C3200 1.390 . S
C3209 H3202 0.950 . S
C3209 C3206 1.387 . S
C3210 C3211 1.387 . S
C3210 H3214 0.950 . S
C3210 C3219 1.390 . S
C3211 C3210 1.387 . S
C3211 C3213 1.387 . S
H3212 C3219 0.950 . S
C3213 C3211 1.387 . S
C3213 C3215 1.390 . S
C3213 H3217 0.950 . S
H3214 C3210 0.950 . S
C3215 C3213 1.390 . S
C3215 C3216 1.387 . S
C3215 H3218 0.950 . S
C3216 C3215 1.387 . S
C3216 C3219 1.387 . S
H3217 C3213 0.950 . S
H3218 C3215 0.950 . S
C3219 C3210 1.390 . S
C3219 H3212 0.950 . S
C3219 C3216 1.387 . S
C3220 C3221 1.387 . S
C3220 H3224 0.950 . S
C3220 C3229 1.390 . S
C3221 C3220 1.387 . S
C3221 C3223 1.387 . S
H3222 C3229 0.950 . S
C3223 C3221 1.387 . S
C3223 C3225 1.390 . S
C3223 H3227 0.950 . S
H3224 C3220 0.950 . S
C3225 C3223 1.390 . S
C3225 C3226 1.387 . S
C3225 H3228 0.950 . S
C3226 C3225 1.387 . S
C3226 C3229 1.387 . S
H3227 C3223 0.950 . S
H3228 C3225 0.950 . S
C3229 C3220 1.390 . S
C3229 H3222 0.950 . S
C3229 C3226 1.387 . S
C3230 C3231 1.387 . S
C3230 H3234 0.950 . S
C3230 C3239 1.390 . S
C3231 C3230 1.387 . S
C3231 C3233 1.387 . S
H3232 C3239 0.950 . S
C3233 C3231 1.387 . S
C3233 C3235 1.390 . S
C3233 H3237 0.950 . S
H3234 C3230 0.950 . S
C3235 C3233 1.390 . S
C3235 C3236 1.387 . S
C3235 H3238 0.950 . S
C3236 C3235 1.387 . S
C3236 C3239 1.387 . S
H3237 C3233 0.950 . S
H3238 C3235 0.950 . S
C3239 C3230 1.390 . S
C3239 H3232 0.950 . S
C3239 C3236 1.387 . S
C3240 C3241 1.387 . S
C3240 H3244 0.950 . S
C3240 C3249 1.390 . S
C3241 C3240 1.387 . S
C3241 C3243 1.387 . S
H3242 C3249 0.950 . S
C3243 C3241 1.387 . S
C3243 C3245 1.390 . S
C3243 H3247 0.950 . S
H3244 C3240 0.950 . S
C3245 C3243 1.390 . S
C3245 C3246 1.387 . S
C3245 H3248 0.950 . S
C3246 C3245 1.387 . S
C3246 C3249 1.387 . S
H3247 C3243 0.950 . S
H3248 C3245 0.950 . S
C3249 C3240 1.390 . S
C3249 H3242 0.950 . S
C3249 C3246 1.387 . S
C3250 C3251 1.387 . S
C3250 H3254 0.950 . S
C3250 C3259 1.390 . S
C3251 C3250 1.387 . S
C3251 C3253 1.387 . S
H3252 C3259 0.950 . S
C3253 C3251 1.387 . S
C3253 C3255 1.390 . S
C3253 H3257 0.950 . S
H3254 C3250 0.950 . S
C3255 C3253 1.390 . S
C3255 C3256 1.387 . S
C3255 H3258 0.950 . S
C3256 C3255 1.387 . S
C3256 C3259 1.387 . S
H3257 C3253 0.950 . S
H3258 C3255 0.950 . S
C3259 C3250 1.390 . S
C3259 H3252 0.950 . S
C3259 C3256 1.387 . S
C3260 C3261 1.387 . S
C3260 H3264 0.950 . S
C3260 C3269 1.390 . S
C3261 C3260 1.387 . S
C3261 C3263 1.387 . S
H3262 C3269 0.950 . S
C3263 C3261 1.387 . S
C3263 C3265 1.390 . S
C3263 H3267 0.950 . S
H3264 C3260 0.950 . S
C3265 C3263 1.390 . S
C3265 C3266 1.387 . S
C3265 H3268 0.950 . S
C3266 C3265 1.387 . S
C3266 C3269 1.387 . S
H3267 C3263 0.950 . S
H3268 C3265 0.950 . S
C3269 C3260 1.390 . S
C3269 H3262 0.950 . S
C3269 C3266 1.387 . S
C3270 C3271 1.387 . S
C3270 H3274 0.950 . S
C3270 C3279 1.390 . S
C3271 C3270 1.387 . S
C3271 C3273 1.387 . S
H3272 C3279 0.950 . S
C3273 C3271 1.387 . S
C3273 C3275 1.390 . S
C3273 H3277 0.950 . S
H3274 C3270 0.950 . S
C3275 C3273 1.390 . S
C3275 C3276 1.387 . S
C3275 H3278 0.950 . S
C3276 C3275 1.387 . S
C3276 C3279 1.387 . S
H3277 C3273 0.950 . S
H3278 C3275 0.950 . S
C3279 C3270 1.390 . S
C3279 H3272 0.950 . S
C3279 C3276 1.387 . S
C3280 C3281 1.387 . S
C3280 H3284 0.950 . S
C3280 C3289 1.390 . S
C3281 C3280 1.387 . S
C3281 C3283 1.387 . S
H3282 C3289 0.950 . S
C3283 C3281 1.387 . S
C3283 C3285 1.390 . S
C3283 H3287 0.950 . S
H3284 C3280 0.950 . S
C3285 C3283 1.390 . S
C3285 C3286 1.387 . S
C3285 H3288 0.950 . S
C3286 C3285 1.387 . S
C3286 C3289 1.387 . S
H3287 C3283 0.950 . S
H3288 C3285 0.950 . S
C3289 C3280 1.390 . S
C3289 H3282 0.950 . S
C3289 C3286 1.387 . S
C3290 C3291 1.387 . S
C3290 H3294 0.950 . S
C3290 C3299 1.390 . S
C3291 C3290 1.387 . S
C3291 C3293 1.387 . S
H3292 C3299 0.950 . S
C3293 C3291 1.387 . S
C3293 C3295 1.390 . S
C3293 H3297 0.950 . S
H3294 C3290 0.950 . S
C3295 C3293 1.390 . S
C3295 C3296 1.387 . S
C3295 H3298 0.950 . S
C3296 C3295 1.387 . S
C3296 C3299 1.387 . S
H3297 C3293 0.950 . S
H3298 C3295 0.950 . S
C3299 C3290 1.390 . S
C3299 H3292 0.950 . S
C3299 C3296 1.387 . S
C3300 C3301 1.387 . S
C3300 H3304 0.950 . S
C3300 C3309 1.390 . S
C3301 C3300 1.387 . S
C3301 C3303 1.387 . S
H3302 C3309 0.950 . S
C3303 C3301 1.387 . S
C3303 C3305 1.390 . S
C3303 H3307 0.950 . S
H3304 C3300 0.950 . S
C3305 C3303 1.390 . S
C3305 C3306 1.387 . S
C3305 H3308 0.950 . S
C3306 C3305 1.387 . S
C3306 C3309 1.387 . S
H3307 C3303 0.950 . S
H3308 C3305 0.950 . S
C3309 C3300 1.390 . S
C3309 H3302 0.950 . S
C3309 C3306 1.387 . S
C3310 C3311 1.387 . S
C3310 H3314 0.950 . S
C3310 C3319 1.390 . S
C3311 C3310 1.387 . S
C3311 C3313 1.387 . S
H3312 C3319 0.950 . S
C3313 C3311 1.387 . S
C3313 C3315 1.390 . S
C3313 H3317 0.950 . S
H3314 C3310 0.950 . S
C3315 C3313 1.390 . S
C3315 C3316 1.387 . S
C3315 H3318 0.950 . S
C3316 C3315 1.387 . S
C3316 C3319 1.387 . S
H3317 C3313 0.950 . S
H3318 C3315 0.950 . S
C3319 C3310 1.390 . S
C3319 H3312 0.950 . S
C3319 C3316 1.387 . S
C3320 C3321 1.387 . S
C3320 H3324 0.950 . S
C3320 C3329 1.390 . S
C3321 C3320 1.387 . S
C3321 C3323 1.387 . S
H3322 C3329 0.950 . S
C3323 C3321 1.387 . S
C3323 C3325 1.390 . S
C3323 H3327 0.950 . S
H3324 C3320 0.950 . S
C3325 C3323 1.390 . S
C3325 C3326 1.387 . S
C3325 H3328 0.950 . S
C3326 C3325 1.387 . S
C3326 C3329 1.387 . S
H3327 C3323 0.950 . S
H3328 C3325 0.950 . S
C3329 C3320 1.390 . S
C3329 H3322 0.950 . S
C3329 C3326 1.387 . S
C3330 C3331 1.387 . S
C3330 H3334 0.950 . S
C3330 C3339 1.390 . S
C3331 C3330 1.387 . S
C3331 C3333 1.387 . S
H3332 C3339 0.950 . S
C3333 C3331 1.387 . S
C3333 C3335 1.390 . S
C3333 H3337 0.950 . S
H3334 C3330 0.950 . S
C3335 C3333 1.390 . S
C3335 C3336 1.387 . S
C3335 H3338 0.950 . S
C3336 C3335 1.387 . S
C3336 C3339 1.387 . S
H3337 C3333 0.950 . S
H3338 C3335 0.950 . S
C3339 C3330 1.390 . S
C3339 H3332 0.950 . S
C3339 C3336 1.387 . S
C3340 C3341 1.387 . S
C3340 H3344 0.950 . S
C3340 C3349 1.390 . S
C3341 C3340 1.387 . S
C3341 C3343 1.387 . S
H3342 C3349 0.950 . S
C3343 C3341 1.387 . S
C3343 C3345 1.390 . S
C3343 H3347 0.950 . S
H3344 C3340 0.950 . S
C3345 C3343 1.390 . S
C3345 C3346 1.387 . S
C3345 H3348 0.950 . S
C3346 C3345 1.387 . S
C3346 C3349 1.387 . S
H3347 C3343 0.950 . S
H3348 C3345 0.950 . S
C3349 C3340 1.390 . S
C3349 H3342 0.950 . S
C3349 C3346 1.387 . S
C3350 C3351 1.387 . S
C3350 H3354 0.950 . S
C3350 C3359 1.390 . S
C3351 C3350 1.387 . S
C3351 C3353 1.387 . S
H3352 C3359 0.950 . S
C3353 C3351 1.387 . S
C3353 C3355 1.390 . S
C3353 H3357 0.950 . S
H3354 C3350 0.950 . S
C3355 C3353 1.390 . S
C3355 C3356 1.387 . S
C3355 H3358 0.950 . S
C3356 C3355 1.387 . S
C3356 C3359 1.387 . S
H3357 C3353 0.950 . S
H3358 C3355 0.950 . S
C3359 C3350 1.390 . S
C3359 H3352 0.950 . S
C3359 C3356 1.387 . S
C1921 C2 3.892 1_655 S
C1926 C172 4.016 1_655 S
C1931 C52 3.596 . S
C1936 C202 3.456 . S
C1941 C252 3.118 . S
C1946 C82 2.986 . S
C1951 C282 3.452 1_556 S
C1956 C132 3.568 . S
C1961 C322 3.468 . S
C1966 C372 3.548 . S
C1971 C362 3.381 . S
C1976 C402 3.415 . S
C1981 C442 3.434 . S
C1986 C412 3.572 1_545 S
C1991 C452 3.567 . S
C1996 C332 3.595 . S
C2001 C482 3.834 . S
C2006 C122 3.815 . S
C2011 C292 3.106 1_554 S
C2016 C1332 3.095 1_554 S
C2021 C162 3.841 1_455 S
C2026 C522 3.825 . S
C2031 C212 3.095 . S
C2036 C1372 3.107 . S
C2041 C42 3.836 . S
C2046 C562 3.817 . S
C2051 C1252 3.104 . S
C2056 C12 3.119 1_455 S
C2061 C1212 3.117 . S
C2066 C92 3.101 . S
C2071 C791 4.018 1_455 S
C2076 C617 3.894 1_455 S
C2081 C671 3.596 . S
C2086 C817 3.456 . S
C2091 C697 2.983 . S
C2096 C871 3.115 . S
C2101 C751 3.568 . S
C2106 C897 3.452 1_554 S
C2111 C991 3.548 . S
C2116 C937 3.468 . S
C2121 C977 3.383 . S
C2126 C1017 3.412 . S
C2131 C1057 3.434 . S
C2136 C1031 3.572 1_565 S
C2141 C951 3.597 . S
C2146 C1071 3.569 . S
C2151 C737 3.815 . S
C2156 C1097 3.834 . S
C2161 C1711 3.092 1_556 S
C2166 C911 3.104 1_556 S
C2171 C1137 3.825 . S
C2176 C777 3.841 1_655 S
C2181 C831 3.095 . S
C2186 C1751 3.107 . S
C2191 C1177 3.815 . S
C2196 C657 3.834 . S
C2201 C631 3.119 1_655 S
C2206 C1631 3.104 . S
C2211 C711 3.101 . S
C2216 C1591 3.117 . S
C2221 C1292 4.018 . S
C2226 C1202 3.894 . S
C2231 C1322 3.457 1_556 S
C2236 C492 3.597 . S
C2241 C1242 2.986 . S
C2246 C532 3.117 . S
C2251 C1362 3.454 . S
C2256 C572 3.570 . S
C2261 C1402 3.468 . S
C2266 C1452 3.548 . S
C2271 C1442 3.383 . S
C2276 C1482 3.412 . S
C2281 C1522 3.431 . S
C2286 C1492 3.570 . S
C2291 C1412 3.595 . S
C2296 C1532 3.567 . S
C2301 C242 3.825 . S
C2306 C1282 3.846 . S
C2311 C1671 4.016 . S
C2316 C1577 3.892 . S
C2321 C1697 3.458 1_554 S
C2326 C1111 3.598 . S
C2331 C1151 3.116 . S
C2336 C1617 2.984 . S
C2341 C1737 3.452 . S
C2346 C1191 3.568 . S
C2351 C1777 3.468 . S
C2356 C1831 3.548 . S
C2361 C1817 3.383 . S
C2366 C1857 3.413 . S
C2371 C1871 3.572 . S
C2376 C1897 3.434 . S
C2381 C1911 3.567 . S
C2386 C1791 3.595 . S
C2391 C1657 3.846 . S
C2396 C857 3.825 . S
C2401 C17 0.895 . S
C2406 C669 0.903 . S
C2411 C1608 1.594 . S
C2416 C71 1.657 . S
C2421 C97 0.830 . S
C2426 C749 0.834 . S
C2431 C151 1.446 . S
C2436 C1568 1.377 . S
C2441 C191 1.565 . S
C2446 C888 1.501 . S
C2451 C217 0.831 . S
C2456 C1669 0.834 . S
C2461 C271 1.510 . S
C2466 C808 1.445 . S
C2471 C1149 0.927 . S
C2476 C297 0.914 . S
C2481 C337 0.618 . S
C2486 C1589 0.566 . S
C2491 C377 1.867 . S
C2496 C648 1.637 . S
C2501 C431 1.086 . S
C2506 C1629 1.135 . S
C2511 C728 1.518 . S
C2516 C471 1.610 . S
C2521 C1648 1.281 . S
C2526 C457 1.476 . S
C2531 C829 0.880 . S
C2536 C351 0.856 . S
C2541 C391 1.958 . S
C2546 C1128 1.843 . S
C2551 C909 0.832 . S
C2556 C417 0.824 . S
C2561 C1789 0.771 . S
C2566 C497 0.771 . S
C2571 C1069 0.750 . S
C2576 C311 0.748 . S
C2581 C177 1.391 . S
C2586 C1768 1.247 . S
C2591 C231 1.662 . S
C2596 C968 1.570 . S
C2601 C537 1.199 . S
C2606 C1029 1.208 . S
C2611 C1848 1.742 . S
C2616 C577 1.958 . S
C2621 C31 1.177 . S
C2626 C1888 1.147 . S
C2631 C111 1.041 . S
C2636 C1829 1.093 . S
C2641 C48 0.900 . S
C2646 C602 0.891 . S
C2651 C652 1.653 . S
C2656 C1269 1.589 . S
C2661 C682 0.831 . S
C2666 C128 0.834 . S
C2671 C732 1.445 . S
C2676 C1229 1.376 . S
C2681 C309 1.502 . S
C2686 C772 1.566 . S
C2691 C1288 0.834 . S
C2696 C802 0.831 . S
C2701 C229 1.446 . S
C2706 C852 1.510 . S
C2711 C882 0.917 . S
C2716 C528 0.932 . S
C2721 C922 0.618 . S
C2726 C1208 0.566 . S
C2731 C69 1.633 . S
C2736 C962 1.864 . S
C2741 C1012 1.088 . S
C2746 C1248 1.136 . S
C2751 C149 1.523 . S
C2756 C1052 1.614 . S
C2761 C1309 1.285 . S
C2766 C1042 1.481 . S
C2771 C932 0.856 . S
C2776 C208 0.879 . S
C2781 C972 1.957 . S
C2786 C549 1.841 . S
C2791 C288 0.833 . S
C2796 C1002 0.825 . S
C2801 C1082 0.774 . S
C2806 C1408 0.774 . S
C2811 C448 0.752 . S
C2816 C892 0.752 . S
C2821 C1429 1.252 . S
C2826 C762 1.396 . S
C2831 C812 1.663 . S
C2836 C389 1.572 . S
C2841 C1122 1.199 . S
C2846 C408 1.207 . S
C2851 C1509 1.740 . S
C2856 C1162 1.957 . S
C2861 C612 1.178 . S
C2866 C1549 1.145 . S
C2871 C1448 1.094 . S
C2876 C692 1.042 . S
C2881 C1109 0.902 . S
C2886 C1217 0.894 . S
C2891 C511 1.658 . S
C2896 C688 1.594 . S
C2901 C1189 0.833 . S
C2906 C1257 0.829 . S
C2911 C591 1.441 . S
C2916 C608 1.374 . S
C2921 C1311 1.567 . S
C2926 C1728 1.502 . S
C2931 C789 0.833 . S
C2936 C1337 0.831 . S
C2941 C551 1.510 . S
C2946 C1688 1.444 . S
C2951 C869 0.926 . S
C2956 C1377 0.911 . S
C2961 C1417 0.610 . S
C2966 C629 0.562 . S
C2971 C1457 1.864 . S
C2976 C1088 1.635 . S
C2981 C1511 1.087 . S
C2986 C709 1.136 . S
C2991 C1168 1.520 . S
C2996 C1551 1.611 . S
C3001 C768 1.282 . S
C3006 C1537 1.476 . S
C3011 C1431 0.856 . S
C3016 C1709 0.880 . S
C3021 C848 1.839 . S
C3026 C1471 1.954 . S
C3031 C1497 0.824 . S
C3036 C1749 0.832 . S
C3041 C57 0.772 . S
C3046 C949 0.774 . S
C3051 C1909 0.754 . S
C3056 C1391 0.754 . S
C3061 C1297 1.391 . S
C3066 C928 1.246 . S
C3071 C1351 1.659 . S
C3076 C1808 1.568 . S
C3081 C1869 1.203 . S
C3086 C257 1.194 . S
C3091 C1008 1.741 . S
C3096 C137 1.958 . S
C3101 C1231 1.173 . S
C3106 C1048 1.142 . S
C3111 C989 1.093 . S
C3116 C1271 1.041 . S
C3121 C488 0.901 . S
C3126 C1562 0.892 . S
C3131 C1092 1.653 . S
C3136 C109 1.590 . S
C3141 C568 0.835 . S
C3146 C1602 0.832 . S
C3151 C1172 1.445 . S
C3156 C29 1.376 . S
C3161 C1652 1.566 . S
C3166 C1389 1.501 . S
C3171 C168 0.833 . S
C3176 C1682 0.831 . S
C3181 C1349 1.443 . S
C3186 C1132 1.507 . S
C3191 C248 0.929 . S
C3196 C1722 0.913 . S
C3201 C8 0.563 . S
C3206 C1762 0.612 . S
C3211 C1802 1.863 . S
C3216 C509 1.633 . S
C3221 C88 1.136 . S
C3226 C1852 1.087 . S
C3231 C589 1.522 . S
C3236 C1892 1.613 . S
C3241 C189 1.286 . S
C3246 C1882 1.481 . S
C3251 C1328 0.880 . S
C3256 C1772 0.856 . S
C3261 C1812 1.955 . S
C3266 C269 1.840 . S
C3271 C1368 0.832 . S
C3276 C1842 0.822 . S
C3281 C328 0.773 . S
C3286 C642 0.773 . S
C3291 C1732 0.748 . S
C3296 C1528 0.750 . S
C3301 C1642 1.391 . S
C3306 C349 1.248 . S
C3311 C1469 1.572 . S
C3316 C1692 1.663 . S
C3321 C842 1.197 . S
C3326 C1488 1.207 . S
C3331 C722 1.958 . S
C3336 C429 1.742 . S
C3341 C469 1.145 . S
C3346 C1572 1.177 . S
C3351 C368 1.093 . S
C3356 C1612 1.042 . S
