# Generated by pormake.
# Topology gis, (4)-cn, num edge types: 1
# Building blocks:
#     Node 0, Type 0, BuildingBlock: QUQFOY_clean_sbu_3, # of connection points: 4
#     Node 1, Type 0, BuildingBlock: QUQFOY_clean_sbu_3, # of connection points: 4
#     Node 2, Type 0, BuildingBlock: QUQFOY_clean_sbu_3, # of connection points: 4
#     Node 3, Type 0, BuildingBlock: QUQFOY_clean_sbu_3, # of connection points: 4
#     Node 4, Type 0, BuildingBlock: QUQFOY_clean_sbu_3, # of connection points: 4
#     Node 5, Type 0, BuildingBlock: QUQFOY_clean_sbu_3, # of connection points: 4
#     Node 6, Type 0, BuildingBlock: QUQFOY_clean_sbu_3, # of connection points: 4
#     Node 7, Type 0, BuildingBlock: QUQFOY_clean_sbu_3, # of connection points: 4
#     Node 8, Type 0, BuildingBlock: QUQFOY_clean_sbu_3, # of connection points: 4
#     Node 9, Type 0, BuildingBlock: QUQFOY_clean_sbu_3, # of connection points: 4
#     Node 10, Type 0, BuildingBlock: QUQFOY_clean_sbu_3, # of connection points: 4
#     Node 11, Type 0, BuildingBlock: QUQFOY_clean_sbu_3, # of connection points: 4
#     Node 12, Type 0, BuildingBlock: QUQFOY_clean_sbu_3, # of connection points: 4
#     Node 13, Type 0, BuildingBlock: QUQFOY_clean_sbu_3, # of connection points: 4
#     Node 14, Type 0, BuildingBlock: QUQFOY_clean_sbu_3, # of connection points: 4
#     Node 15, Type 0, BuildingBlock: QUQFOY_clean_sbu_3, # of connection points: 4
#     Edge 16, Type (0, 0), BuildingBlock: MIFKUJ_clean_linker_0, # of connection points: 2
#     Edge 17, Type (0, 0), BuildingBlock: MIFKUJ_clean_linker_0, # of connection points: 2
#     Edge 18, Type (0, 0), BuildingBlock: MIFKUJ_clean_linker_0, # of connection points: 2
#     Edge 19, Type (0, 0), BuildingBlock: MIFKUJ_clean_linker_0, # of connection points: 2
#     Edge 20, Type (0, 0), BuildingBlock: MIFKUJ_clean_linker_0, # of connection points: 2
#     Edge 21, Type (0, 0), BuildingBlock: MIFKUJ_clean_linker_0, # of connection points: 2
#     Edge 22, Type (0, 0), BuildingBlock: MIFKUJ_clean_linker_0, # of connection points: 2
#     Edge 23, Type (0, 0), BuildingBlock: MIFKUJ_clean_linker_0, # of connection points: 2
#     Edge 24, Type (0, 0), BuildingBlock: MIFKUJ_clean_linker_0, # of connection points: 2
#     Edge 25, Type (0, 0), BuildingBlock: MIFKUJ_clean_linker_0, # of connection points: 2
#     Edge 26, Type (0, 0), BuildingBlock: MIFKUJ_clean_linker_0, # of connection points: 2
#     Edge 27, Type (0, 0), BuildingBlock: MIFKUJ_clean_linker_0, # of connection points: 2
#     Edge 28, Type (0, 0), BuildingBlock: MIFKUJ_clean_linker_0, # of connection points: 2
#     Edge 29, Type (0, 0), BuildingBlock: MIFKUJ_clean_linker_0, # of connection points: 2
#     Edge 30, Type (0, 0), BuildingBlock: MIFKUJ_clean_linker_0, # of connection points: 2
#     Edge 31, Type (0, 0), BuildingBlock: MIFKUJ_clean_linker_0, # of connection points: 2
#     Edge 32, Type (0, 0), BuildingBlock: MIFKUJ_clean_linker_0, # of connection points: 2
#     Edge 33, Type (0, 0), BuildingBlock: MIFKUJ_clean_linker_0, # of connection points: 2
#     Edge 34, Type (0, 0), BuildingBlock: MIFKUJ_clean_linker_0, # of connection points: 2
#     Edge 35, Type (0, 0), BuildingBlock: MIFKUJ_clean_linker_0, # of connection points: 2
#     Edge 36, Type (0, 0), BuildingBlock: MIFKUJ_clean_linker_0, # of connection points: 2
#     Edge 37, Type (0, 0), BuildingBlock: MIFKUJ_clean_linker_0, # of connection points: 2
#     Edge 38, Type (0, 0), BuildingBlock: MIFKUJ_clean_linker_0, # of connection points: 2
#     Edge 39, Type (0, 0), BuildingBlock: MIFKUJ_clean_linker_0, # of connection points: 2
#     Edge 40, Type (0, 0), BuildingBlock: MIFKUJ_clean_linker_0, # of connection points: 2
#     Edge 41, Type (0, 0), BuildingBlock: MIFKUJ_clean_linker_0, # of connection points: 2
#     Edge 42, Type (0, 0), BuildingBlock: MIFKUJ_clean_linker_0, # of connection points: 2
#     Edge 43, Type (0, 0), BuildingBlock: MIFKUJ_clean_linker_0, # of connection points: 2
#     Edge 44, Type (0, 0), BuildingBlock: MIFKUJ_clean_linker_0, # of connection points: 2
#     Edge 45, Type (0, 0), BuildingBlock: MIFKUJ_clean_linker_0, # of connection points: 2
#     Edge 46, Type (0, 0), BuildingBlock: MIFKUJ_clean_linker_0, # of connection points: 2
#     Edge 47, Type (0, 0), BuildingBlock: MIFKUJ_clean_linker_0, # of connection points: 2
# Relax obj value: 0.062
# Max RMSD: 0.131
# Mean RMSD: 0.123
data_MOF--net-gis--node1-QUQFOY_clean_sbu_3--edge1-MIFKUJ_clean_linker_0
_symmetry_space_group_name_H-M    P1
_symmetry_Int_Tables_number       1
_symmetry_cell_setting            triclinic
loop_
_symmetry_equiv_pos_as_xyz
'x, y, z'
_cell_length_a     68.128368
_cell_length_b     72.196911
_cell_length_c     48.086054
_cell_angle_alpha  90.423381
_cell_angle_beta   90.54388
_cell_angle_gamma 90.001481
loop_
_atom_site_label
_atom_site_type_symbol
_atom_site_fract_x
_atom_site_fract_y
_atom_site_fract_z
_atom_type_partial_charge
C0 C 0.1578 0.6027 0.16836 0.0
O1 O 0.14203 0.60663 0.18096 0.0
Cd2 Cd 0.11258 0.61245 0.15442 0.0
O3 O 0.15774 0.60037 0.14213 0.0
Cd4 Cd 0.13711 0.59904 0.10026 0.0
C5 C 0.13181 0.64483 0.1086 0.0
O6 O 0.10785 0.58697 0.12286 0.0
O7 O 0.10436 0.59628 0.08055 0.0
O8 O 0.1585 0.57284 0.0932 0.0
C9 C 0.09664 0.58928 0.10193 0.0
O10 O 0.12124 0.64063 0.12937 0.0
C11 C 0.15999 0.57479 0.06714 0.0
O12 O 0.14016 0.63231 0.09413 0.0
O13 O 0.15068 0.58813 0.05604 0.0
C14 C 0.65065 0.87993 0.32112 0.0
O15 O 0.63379 0.8763 0.31104 0.0
Cd16 Cd 0.60684 0.87092 0.34194 0.0
O17 O 0.65302 0.88228 0.34717 0.0
Cd18 Cd 0.63602 0.88433 0.3917 0.0
C19 C 0.62817 0.8386 0.3866 0.0
O20 O 0.6055 0.89676 0.37308 0.0
O21 O 0.60476 0.88773 0.41568 0.0
O22 O 0.65567 0.91195 0.39439 0.0
C23 C 0.59576 0.89489 0.39521 0.0
O24 O 0.61603 0.84301 0.36742 0.0
C25 C 0.66087 0.91026 0.41962 0.0
O26 O 0.63865 0.8509 0.39879 0.0
O27 O 0.6547 0.89604 0.43235 0.0
C28 C 0.33 0.38288 0.66581 0.0
O29 O 0.34653 0.37791 0.67565 0.0
Cd30 Cd 0.37444 0.37356 0.64575 0.0
O31 O 0.32812 0.38672 0.64017 0.0
Cd32 Cd 0.34635 0.38929 0.59687 0.0
C33 C 0.35376 0.34322 0.59786 0.0
O34 O 0.37716 0.40035 0.61689 0.0
O35 O 0.37768 0.39246 0.57349 0.0
O36 O 0.32858 0.41781 0.58939 0.0
C37 C 0.38683 0.39884 0.59456 0.0
O38 O 0.366 0.34628 0.61759 0.0
C39 C 0.32182 0.41329 0.56559 0.0
O40 O 0.34378 0.35636 0.58734 0.0
O41 O 0.32662 0.39747 0.55612 0.0
C42 C 0.83104 0.10684 0.82197 0.0
O43 O 0.84676 0.11241 0.8108 0.0
Cd44 Cd 0.87667 0.11494 0.83791 0.0
O45 O 0.83113 0.10134 0.84702 0.0
Cd46 Cd 0.8529 0.09567 0.88678 0.0
C47 C 0.85998 0.14137 0.89334 0.0
O48 O 0.88195 0.08595 0.86063 0.0
O49 O 0.88596 0.09108 0.90458 0.0
O50 O 0.8327 0.06811 0.88916 0.0
C51 C 0.89331 0.08591 0.8817 0.0
O52 O 0.87087 0.13963 0.87205 0.0
C53 C 0.83152 0.06812 0.91547 0.0
O54 O 0.85027 0.12768 0.90253 0.0
O55 O 0.84022 0.0811 0.92864 0.0
C56 C 0.15742 0.38234 0.83413 0.0
O57 O 0.14042 0.37919 0.82409 0.0
Cd58 Cd 0.11261 0.37561 0.85423 0.0
O59 O 0.15987 0.38491 0.86012 0.0
Cd60 Cd 0.14238 0.38732 0.90421 0.0
C61 C 0.13201 0.34207 0.89761 0.0
O62 O 0.11284 0.40156 0.88519 0.0
O63 O 0.11118 0.39204 0.92746 0.0
O64 O 0.16545 0.41241 0.91126 0.0
C65 C 0.10282 0.39998 0.90713 0.0
O66 O 0.11931 0.34684 0.87938 0.0
C67 C 0.1681 0.40951 0.93701 0.0
O68 O 0.14346 0.35391 0.90894 0.0
O69 O 0.15904 0.39593 0.94759 0.0
C70 C 0.82474 0.88822 0.15911 0.0
O71 O 0.84098 0.88492 0.17125 0.0
Cd72 Cd 0.86894 0.87522 0.14482 0.0
O73 O 0.82341 0.88757 0.13271 0.0
Cd74 Cd 0.84238 0.88284 0.09013 0.0
C75 C 0.84729 0.83847 0.10895 0.0
O76 O 0.87259 0.89698 0.10787 0.0
O77 O 0.8745 0.88244 0.06861 0.0
O78 O 0.82138 0.90817 0.07638 0.0
C79 C 0.88293 0.89217 0.08722 0.0
O80 O 0.85912 0.84458 0.12756 0.0
C81 C 0.81971 0.90324 0.05111 0.0
O82 O 0.83833 0.8495 0.09265 0.0
O83 O 0.82841 0.88845 0.04374 0.0
C84 C 0.33804 0.60214 0.32329 0.0
O85 O 0.35525 0.60477 0.31422 0.0
Cd86 Cd 0.38242 0.60524 0.34689 0.0
O87 O 0.33535 0.59769 0.34849 0.0
Cd88 Cd 0.35181 0.5898 0.39213 0.0
C89 C 0.36286 0.63487 0.39678 0.0
O90 O 0.38184 0.57705 0.37283 0.0
O91 O 0.38205 0.58271 0.41702 0.0
O92 O 0.33006 0.56344 0.39088 0.0
C93 C 0.39107 0.57662 0.39589 0.0
O94 O 0.37505 0.63168 0.37736 0.0
C95 C 0.32417 0.56526 0.41571 0.0
O96 O 0.3517 0.62213 0.40569 0.0
O97 O 0.33121 0.57868 0.42987 0.0
C98 C 0.65097 0.10218 0.66476 0.0
O99 O 0.63454 0.10591 0.67573 0.0
Cd100 Cd 0.607 0.11356 0.6462 0.0
O101 O 0.65233 0.10028 0.63854 0.0
Cd102 Cd 0.63336 0.09928 0.59498 0.0
C103 C 0.63014 0.1453 0.6031 0.0
O104 O 0.60176 0.08923 0.61289 0.0
O105 O 0.60188 0.1002 0.57117 0.0
O106 O 0.64837 0.06944 0.58837 0.0
C107 C 0.59224 0.09303 0.59081 0.0
O108 O 0.61841 0.14145 0.62275 0.0
C109 C 0.65506 0.07256 0.56432 0.0
O110 O 0.63855 0.1325 0.58924 0.0
O111 O 0.65168 0.08847 0.5541 0.0
C112 C 0.83438 0.36569 0.82991 0.0
O113 O 0.85067 0.36106 0.81933 0.0
Cd114 Cd 0.87903 0.35768 0.84939 0.0
O115 O 0.83344 0.37018 0.85545 0.0
Cd116 Cd 0.85377 0.37547 0.89684 0.0
C117 C 0.86007 0.32993 0.90128 0.0
O118 O 0.88444 0.38561 0.87549 0.0
O119 O 0.8858 0.37771 0.91878 0.0
O120 O 0.83785 0.40501 0.89672 0.0
C121 C 0.89442 0.38439 0.89786 0.0
O122 O 0.87162 0.33231 0.88092 0.0
C123 C 0.83279 0.405 0.92202 0.0
O124 O 0.84997 0.34331 0.91094 0.0
O125 O 0.83712 0.3907 0.93613 0.0
C126 C 0.32772 0.08488 0.52792 0.0
O127 O 0.33213 0.09719 0.51033 0.0
Cd128 Cd 0.34521 0.12651 0.52668 0.0
O129 O 0.329 0.08834 0.55379 0.0
Cd130 Cd 0.33643 0.11198 0.58831 0.0
C131 C 0.3835 0.1104 0.56771 0.0
O132 O 0.32491 0.13906 0.56285 0.0
O133 O 0.34256 0.14391 0.59986 0.0
O134 O 0.30632 0.10294 0.61029 0.0
C135 C 0.33266 0.15055 0.57981 0.0
O136 O 0.37754 0.11878 0.54596 0.0
C137 C 0.31394 0.09931 0.6338 0.0
O138 O 0.37143 0.10526 0.58621 0.0
O139 O 0.33236 0.10177 0.63644 0.0
C140 C 0.65303 0.5996 0.33792 0.0
O141 O 0.63605 0.60216 0.32753 0.0
Cd142 Cd 0.60858 0.60739 0.35744 0.0
O143 O 0.65543 0.59838 0.36412 0.0
Cd144 Cd 0.63837 0.59742 0.40884 0.0
C145 C 0.6281 0.64247 0.3999 0.0
O146 O 0.60963 0.58243 0.3895 0.0
O147 O 0.60679 0.59162 0.43196 0.0
O148 O 0.66085 0.57195 0.41198 0.0
C149 C 0.59913 0.58353 0.41102 0.0
O150 O 0.61644 0.63669 0.38083 0.0
C151 C 0.66518 0.57398 0.4375 0.0
O152 O 0.63889 0.6312 0.41345 0.0
O153 O 0.65717 0.58746 0.4503 0.0
C154 C 0.14866 0.88191 0.17058 0.0
O155 O 0.13183 0.87847 0.1804 0.0
Cd156 Cd 0.1051 0.87108 0.14935 0.0
O157 O 0.15099 0.88343 0.14449 0.0
Cd158 Cd 0.13317 0.88426 0.09983 0.0
C159 C 0.12839 0.83859 0.10681 0.0
O160 O 0.10211 0.89604 0.11727 0.0
O161 O 0.10191 0.88556 0.07508 0.0
O162 O 0.15163 0.91233 0.09705 0.0
C163 C 0.09262 0.8932 0.09481 0.0
O164 O 0.11637 0.84285 0.12599 0.0
C165 C 0.15667 0.91048 0.07188 0.0
O166 O 0.13748 0.85108 0.0935 0.0
O167 O 0.15092 0.89593 0.05912 0.0
C168 C 0.83212 0.58041 0.04928 0.0
O169 O 0.8372 0.59421 0.03482 0.0
Cd170 Cd 0.85083 0.62136 0.05656 0.0
O171 O 0.83307 0.58119 0.07568 0.0
Cd172 Cd 0.84058 0.60267 0.11413 0.0
C173 C 0.88796 0.60159 0.09643 0.0
O174 O 0.82872 0.63102 0.09219 0.0
O175 O 0.84563 0.63427 0.13015 0.0
O176 O 0.81006 0.59062 0.13065 0.0
C177 C 0.83542 0.64169 0.11108 0.0
O178 O 0.88237 0.61142 0.07592 0.0
C179 C 0.81546 0.58853 0.15572 0.0
O180 O 0.87558 0.59541 0.11375 0.0
O181 O 0.83316 0.59264 0.16177 0.0
C182 C 0.15306 0.08397 0.94993 0.0
O183 O 0.14657 0.09723 0.96471 0.0
Cd184 Cd 0.13249 0.12421 0.94317 0.0
O185 O 0.15364 0.08531 0.92359 0.0
Cd186 Cd 0.14789 0.10648 0.88487 0.0
C187 C 0.09927 0.10344 0.89743 0.0
O188 O 0.15622 0.13456 0.91057 0.0
O189 O 0.14557 0.13815 0.86841 0.0
O190 O 0.1798 0.09533 0.87149 0.0
C191 C 0.15187 0.14542 0.89083 0.0
O192 O 0.10297 0.11265 0.91958 0.0
C193 C 0.17522 0.0917 0.84641 0.0
O194 O 0.11297 0.0988 0.88092 0.0
O195 O 0.15756 0.09483 0.83898 0.0
C196 C 0.65579 0.3787 0.67045 0.0
O197 O 0.63937 0.3753 0.68159 0.0
Cd198 Cd 0.61106 0.36995 0.65217 0.0
O199 O 0.65684 0.38142 0.64441 0.0
Cd200 Cd 0.63741 0.38467 0.60165 0.0
C201 C 0.632 0.33866 0.60551 0.0
O202 O 0.60671 0.39555 0.62146 0.0
O203 O 0.6056 0.38621 0.57861 0.0
O204 O 0.65297 0.41436 0.59825 0.0
C205 C 0.59672 0.39318 0.59927 0.0
O206 O 0.62073 0.34247 0.62578 0.0
C207 C 0.65988 0.41199 0.57409 0.0
O208 O 0.64091 0.35146 0.59257 0.0
O209 O 0.65644 0.39649 0.56222 0.0
C210 C 0.33637 0.89424 0.45617 0.0
O211 O 0.34134 0.88226 0.47409 0.0
Cd212 Cd 0.35537 0.85353 0.45787 0.0
O213 O 0.33675 0.89028 0.43041 0.0
Cd214 Cd 0.34225 0.86568 0.39655 0.0
C215 C 0.3898 0.87136 0.41218 0.0
O216 O 0.33375 0.83899 0.42472 0.0
O217 O 0.3499 0.83371 0.38691 0.0
O218 O 0.30977 0.87354 0.38143 0.0
C219 C 0.34123 0.82732 0.40801 0.0
O220 O 0.38545 0.86344 0.43493 0.0
C221 C 0.31369 0.87547 0.3559 0.0
O222 O 0.37661 0.87486 0.39399 0.0
O223 O 0.3314 0.87278 0.34869 0.0
H224 H 0.14612 0.823 0.06111 0.0
H225 H 0.15273 0.78993 0.05284 0.0
H226 H 0.12651 0.77682 0.13157 0.0
H227 H 0.11966 0.80946 0.13982 0.0
H228 H 0.16402 0.76019 0.1221 0.0
H229 H 0.10043 0.77051 0.07634 0.0
H230 H 0.0789 0.78527 0.04144 0.0
H231 H 0.1156 0.76484 0.9759 0.0
H232 H 0.13751 0.75016 0.0105 0.0
H233 H 0.12286 0.67445 0.1413 0.0
H234 H 0.12913 0.707 0.13239 0.0
H235 H 0.15449 0.69296 0.05316 0.0
H236 H 0.14837 0.65997 0.062 0.0
H237 H 0.12666 0.72317 0.05218 0.0
H238 H 0.18527 0.70609 0.09895 0.0
H239 H 0.20641 0.69145 0.13442 0.0
H240 H 0.17967 0.72456 0.19817 0.0
H241 H 0.15812 0.73917 0.16321 0.0
C242 C 0.14177 0.81303 0.0766 0.0
C243 C 0.13233 0.81882 0.10109 0.0
C244 C 0.14554 0.79421 0.07183 0.0
C245 C 0.14016 0.78105 0.09167 0.0
C246 C 0.13086 0.78683 0.1161 0.0
C247 C 0.12685 0.80548 0.12069 0.0
C248 C 0.14383 0.76108 0.08746 0.0
C249 C 0.15599 0.75205 0.10672 0.0
C250 C 0.13389 0.75066 0.0667 0.0
C251 C 0.12075 0.75949 0.04599 0.0
C252 C 0.10402 0.76934 0.0545 0.0
C253 C 0.09172 0.77765 0.03478 0.0
C254 C 0.09592 0.77606 0.00647 0.0
C255 C 0.1124 0.7661 -0.00217 0.0
C256 C 0.12475 0.75779 0.01748 0.0
C257 C 0.12973 0.67818 0.12191 0.0
C258 C 0.13514 0.66459 0.10236 0.0
C259 C 0.13342 0.69681 0.11695 0.0
C260 C 0.1425 0.7023 0.09231 0.0
C261 C 0.14759 0.68891 0.07238 0.0
C262 C 0.14409 0.67012 0.07749 0.0
C263 C 0.1461 0.72221 0.08777 0.0
C264 C 0.13531 0.73127 0.06692 0.0
C265 C 0.15732 0.7327 0.10711 0.0
C266 C 0.17003 0.72372 0.12839 0.0
C267 C 0.18376 0.71014 0.12056 0.0
C268 C 0.19584 0.70186 0.14058 0.0
C269 C 0.19441 0.70711 0.16851 0.0
C270 C 0.1808 0.72055 0.17651 0.0
C271 C 0.16866 0.72885 0.15659 0.0
H272 H 0.20389 0.70082 0.18395 0.0
H273 H 0.08638 0.78249 0.99123 0.0
H274 H 0.42087 0.8672 0.44768 0.0
H275 H 0.45475 0.87655 0.44076 0.0
H276 H 0.43972 0.8974 0.35948 0.0
H277 H 0.4055 0.88792 0.36612 0.0
H278 H 0.47361 0.87631 0.35973 0.0
H279 H 0.44815 0.92774 0.41054 0.0
H280 H 0.42996 0.94333 0.4481 0.0
H281 H 0.46944 0.92035 0.50881 0.0
H282 H 0.48772 0.90439 0.47165 0.0
H283 H 0.57221 0.90813 0.35347 0.0
H284 H 0.53632 0.90982 0.35289 0.0
H285 H 0.53511 0.88959 0.43708 0.0
H286 H 0.57088 0.88827 0.43803 0.0
H287 H 0.50801 0.91587 0.42958 0.0
H288 H 0.5293 0.86044 0.38073 0.0
H289 H 0.54733 0.84346 0.34434 0.0
H290 H 0.51551 0.87291 0.28109 0.0
H291 H 0.49747 0.89025 0.31716 0.0
C292 C 0.42466 0.87379 0.42829 0.0
C293 C 0.41042 0.87687 0.40748 0.0
C294 C 0.44405 0.87922 0.42446 0.0
C295 C 0.44964 0.88794 0.39982 0.0
C296 C 0.43561 0.89081 0.37874 0.0
C297 C 0.4161 0.8854 0.38258 0.0
C298 C 0.47035 0.89352 0.39617 0.0
C299 C 0.48106 0.88533 0.37458 0.0
C300 C 0.48007 0.90505 0.41584 0.0
C301 C 0.46925 0.9148 0.43828 0.0
C302 C 0.45289 0.92592 0.43191 0.0
C303 C 0.44257 0.93483 0.45313 0.0
C304 C 0.44852 0.93282 0.48083 0.0
C305 C 0.46485 0.92191 0.48735 0.0
C306 C 0.47521 0.91295 0.4662 0.0
C307 C 0.56429 0.90429 0.37198 0.0
C308 C 0.57434 0.89788 0.3957 0.0
C309 C 0.5438 0.90521 0.37158 0.0
C310 C 0.53306 0.89955 0.39479 0.0
C311 C 0.54312 0.894 0.41893 0.0
C312 C 0.56356 0.89318 0.4194 0.0
C313 C 0.51137 0.89822 0.39364 0.0
C314 C 0.50048 0.90721 0.41434 0.0
C315 C 0.50151 0.88732 0.37328 0.0
C316 C 0.51222 0.87679 0.35162 0.0
C317 C 0.52625 0.86338 0.35906 0.0
C318 C 0.53646 0.85368 0.3385 0.0
C319 C 0.53262 0.85715 0.31042 0.0
C320 C 0.51851 0.87027 0.30285 0.0
C321 C 0.50829 0.88004 0.32333 0.0
H322 H 0.54053 0.84962 0.29452 0.0
H323 H 0.44051 0.93972 0.49723 0.0
H324 H 0.32691 0.33073 0.55918 0.0
H325 H 0.32096 0.2986 0.54469 0.0
H326 H 0.36757 0.2804 0.59937 0.0
H327 H 0.37376 0.31228 0.61369 0.0
H328 H 0.36872 0.26269 0.54963 0.0
H329 H 0.31973 0.27894 0.6191 0.0
H330 H 0.29201 0.29723 0.63723 0.0
H331 H 0.25719 0.28228 0.56562 0.0
H332 H 0.28483 0.26407 0.54691 0.0
H333 H 0.3537 0.17689 0.60736 0.0
H334 H 0.35449 0.21001 0.59846 0.0
H335 H 0.31153 0.20322 0.53273 0.0
H336 H 0.31078 0.16966 0.54131 0.0
H337 H 0.30495 0.23384 0.57333 0.0
H338 H 0.35294 0.2112 0.51049 0.0
H339 H 0.38085 0.19188 0.49573 0.0
H340 H 0.41788 0.21823 0.55699 0.0
H341 H 0.39011 0.23751 0.57244 0.0
C342 C 0.336 0.31989 0.56794 0.0
C343 C 0.35073 0.32405 0.58775 0.0
C344 C 0.33255 0.30156 0.55966 0.0
C345 C 0.34375 0.28716 0.5711 0.0
C346 C 0.3588 0.29134 0.59022 0.0
C347 C 0.36225 0.30958 0.5985 0.0
C348 C 0.33943 0.26754 0.56449 0.0
C349 C 0.35475 0.25638 0.55463 0.0
C350 C 0.32098 0.25945 0.57019 0.0
C351 C 0.30441 0.27038 0.58143 0.0
C352 C 0.30622 0.27969 0.60712 0.0
C353 C 0.29052 0.29001 0.61752 0.0
C354 C 0.27287 0.29097 0.60253 0.0
C355 C 0.27088 0.28156 0.57716 0.0
C356 C 0.28656 0.27125 0.56665 0.0
C357 C 0.34435 0.18237 0.59104 0.0
C358 C 0.33222 0.17068 0.57495 0.0
C359 C 0.34488 0.20129 0.58593 0.0
C360 C 0.33324 0.20892 0.56476 0.0
C361 C 0.32068 0.19746 0.54906 0.0
C362 C 0.3203 0.17837 0.55396 0.0
C363 C 0.33451 0.22899 0.55963 0.0
C364 C 0.31867 0.24023 0.56731 0.0
C365 C 0.35252 0.23716 0.55212 0.0
C366 C 0.3694 0.22577 0.54268 0.0
C367 C 0.367 0.2128 0.52094 0.0
C368 C 0.38281 0.20186 0.51243 0.0
C369 C 0.40113 0.20382 0.52543 0.0
C370 C 0.40369 0.21674 0.54692 0.0
C371 C 0.38792 0.22771 0.55553 0.0
H372 H 0.41334 0.19532 0.51882 0.0
H373 H 0.26073 0.29896 0.61062 0.0
H374 H 0.06846 0.10408 0.93302 0.0
H375 H 0.03452 0.09535 0.92349 0.0
H376 H 0.04928 0.08167 0.83878 0.0
H377 H 0.0836 0.09032 0.84819 0.0
H378 H 0.01523 0.10445 0.84481 0.0
H379 H 0.04015 0.04718 0.87863 0.0
H380 H 0.05862 0.02682 0.91042 0.0
H381 H 0.02097 0.04263 0.97765 0.0
H382 H 0.00245 0.06332 0.94637 0.0
H383 H 0.91428 0.07798 0.83464 0.0
H384 H 0.95002 0.07516 0.8308 0.0
H385 H 0.95604 0.08384 0.91936 0.0
H386 H 0.92054 0.08627 0.92341 0.0
H387 H 0.98096 0.05795 0.90233 0.0
H388 H 0.9613 0.11944 0.87246 0.0
H389 H 0.94323 0.14153 0.84286 0.0
H390 H 0.97124 0.11919 0.77034 0.0
H391 H 0.98929 0.0968 0.79953 0.0
C392 C 0.06458 0.09919 0.91233 0.0
C393 C 0.07875 0.0979 0.89135 0.0
C394 C 0.04518 0.0941 0.90698 0.0
C395 C 0.03948 0.08769 0.88053 0.0
C396 C 0.05347 0.0865 0.85938 0.0
C397 C 0.07304 0.09141 0.86481 0.0
C398 C 0.01865 0.08293 0.87522 0.0
C399 C 0.00777 0.09395 0.8568 0.0
C400 C 0.00897 0.06943 0.89125 0.0
C401 C 0.01996 0.05687 0.91014 0.0
C402 C 0.03588 0.04641 0.90023 0.0
C403 C 0.04635 0.0348 0.91816 0.0
C404 C 0.04098 0.03345 0.94604 0.0
C405 C 0.02511 0.04369 0.95604 0.0
C406 C 0.0146 0.05534 0.9382 0.0
C407 C 0.92323 0.07905 0.85331 0.0
C408 C 0.91462 0.08251 0.8793 0.0
C409 C 0.94364 0.07749 0.85107 0.0
C410 C 0.95571 0.07951 0.87476 0.0
C411 C 0.94703 0.08221 0.90081 0.0
C412 C 0.92671 0.08369 0.90307 0.0
C413 C 0.9774 0.07993 0.87264 0.0
C414 C 0.98846 0.06809 0.88972 0.0
C415 C 0.98722 0.09282 0.85561 0.0
C416 C 0.97644 0.1063 0.8381 0.0
C417 C 0.96348 0.11915 0.85017 0.0
C418 C 0.95327 0.13173 0.83348 0.0
C419 C 0.95603 0.13172 0.80472 0.0
C420 C 0.96907 0.11915 0.79261 0.0
C421 C 0.9793 0.10652 0.80921 0.0
H422 H 0.94811 0.14147 0.79183 0.0
H423 H 0.04911 0.02445 0.95989 0.0
H424 H 0.16566 0.32437 0.91303 0.0
H425 H 0.17097 0.29092 0.91524 0.0
H426 H 0.10927 0.2817 0.89912 0.0
H427 H 0.10413 0.31509 0.89542 0.0
H428 H 0.16029 0.26252 0.943 0.0
H429 H 0.10202 0.24592 0.85697 0.0
H430 H 0.08702 0.26102 0.8161 0.0
H431 H 0.13776 0.2958 0.80818 0.0
H432 H 0.15316 0.28074 0.84875 0.0
H433 H 0.14432 0.1656 0.93742 0.0
H434 H 0.14298 0.19933 0.94171 0.0
H435 H 0.16173 0.20429 0.85647 0.0
H436 H 0.16153 0.17056 0.85166 0.0
H437 H 0.13481 0.22629 0.86238 0.0
H438 H 0.19195 0.21522 0.9172 0.0
H439 H 0.21243 0.20102 0.95384 0.0
H440 H 0.17405 0.22271 0.01646 0.0
H441 H 0.15318 0.23685 0.98017 0.0
C442 C 0.1532 0.31519 0.91035 0.0
C443 C 0.13454 0.32224 0.90363 0.0
C444 C 0.15624 0.29608 0.91165 0.0
C445 C 0.14061 0.28379 0.90666 0.0
C446 C 0.12166 0.29092 0.90221 0.0
C447 C 0.11871 0.30997 0.90023 0.0
C448 C 0.14431 0.26361 0.90418 0.0
C449 C 0.15474 0.25455 0.9254 0.0
C450 C 0.13771 0.25333 0.88071 0.0
C451 C 0.12864 0.26232 0.85607 0.0
C452 C 0.11 0.25674 0.84644 0.0
C453 C 0.10142 0.2653 0.82333 0.0
C454 C 0.1114 0.2794 0.80961 0.0
C455 C 0.13001 0.28492 0.81889 0.0
C456 C 0.13866 0.27639 0.84195 0.0
C457 C 0.1483 0.17396 0.91975 0.0
C458 C 0.15297 0.16562 0.89423 0.0
C459 C 0.14769 0.19324 0.92223 0.0
C460 C 0.1525 0.20447 0.89951 0.0
C461 C 0.15783 0.196 0.87427 0.0
C462 C 0.15778 0.17676 0.87154 0.0
C463 C 0.1507 0.22497 0.90136 0.0
C464 C 0.14051 0.23414 0.88 0.0
C465 C 0.1584 0.23542 0.92403 0.0
C466 C 0.17091 0.22696 0.94594 0.0
C467 C 0.1878 0.21686 0.93878 0.0
C468 C 0.19949 0.20884 0.95948 0.0
C469 C 0.19452 0.21093 0.98745 0.0
C470 C 0.17787 0.22109 0.99478 0.0
C471 C 0.16612 0.22912 0.97415 0.0
H472 H 0.20359 0.20471 0.00345 0.0
H473 H 0.10473 0.28603 0.79175 0.0
H474 H 0.90591 0.90903 0.12695 0.0
H475 H 0.94168 0.91228 0.12696 0.0
H476 H 0.94381 0.88653 0.04579 0.0
H477 H 0.90818 0.88303 0.04576 0.0
H478 H 0.96916 0.87074 0.08108 0.0
H479 H 0.95247 0.93264 0.05416 0.0
H480 H 0.93588 0.96288 0.05815 0.0
H481 H 0.96429 0.97267 0.13698 0.0
H482 H 0.98086 0.94235 0.13365 0.0
H483 H 0.06842 0.88573 0.05067 0.0
H484 H 0.03272 0.8886 0.0487 0.0
H485 H 0.03274 0.91077 0.13223 0.0
H486 H 0.06857 0.90803 0.13438 0.0
H487 H 0.00649 0.929 0.09652 0.0
H488 H 0.02263 0.8669 0.12363 0.0
H489 H 0.03936 0.83673 0.1195 0.0
H490 H 0.01168 0.82738 0.04004 0.0
H491 H -0.005 0.85764 0.04351 0.0
C492 C 0.91399 0.90425 0.10899 0.0
C493 C 0.90426 0.89568 0.08642 0.0
C494 C 0.93441 0.90618 0.10897 0.0
C495 C 0.94537 0.8997 0.08632 0.0
C496 C 0.93562 0.89158 0.06349 0.0
C497 C 0.91525 0.88962 0.06351 0.0
C498 C 0.9671 0.90028 0.08706 0.0
C499 C 0.97731 0.88353 0.08403 0.0
C500 C 0.97769 0.9169 0.09173 0.0
C501 C 0.96775 0.93513 0.09379 0.0
C502 C 0.95505 0.94116 0.07247 0.0
C503 C 0.94568 0.95833 0.07458 0.0
C504 C 0.94899 0.96967 0.09784 0.0
C505 C 0.96172 0.96387 0.119 0.0
C506 C 0.97112 0.9467 0.117 0.0
C507 C 0.06087 0.89138 0.06854 0.0
C508 C 0.07127 0.89648 0.09279 0.0
C509 C 0.04049 0.89299 0.06738 0.0
C510 C 0.03013 0.89967 0.09045 0.0
C511 C 0.04051 0.90555 0.11425 0.0
C512 C 0.06094 0.9039 0.11546 0.0
C513 C 0.00843 0.8995 0.0902 0.0
C514 C -0.00173 0.91626 0.09348 0.0
C515 C -0.00218 0.88289 0.08576 0.0
C516 C 0.00772 0.86462 0.08371 0.0
C517 C 0.02023 0.85848 0.10517 0.0
C518 C 0.02968 0.84135 0.10297 0.0
C519 C 0.02662 0.83017 0.07949 0.0
C520 C 0.01405 0.83607 0.0582 0.0
C521 C 0.00459 0.8532 0.06028 0.0
H522 H 0.03396 0.81691 0.07782 0.0
H523 H 0.94173 0.98296 0.09943 0.0
H524 H 0.33621 0.64794 0.43461 0.0
H525 H 0.33095 0.6802 0.44867 0.0
H526 H 0.37931 0.6971 0.3974 0.0
H527 H 0.38486 0.66505 0.38362 0.0
H528 H 0.37915 0.71611 0.44558 0.0
H529 H 0.33201 0.6984 0.37341 0.0
H530 H 0.30489 0.67966 0.35373 0.0
H531 H 0.26809 0.69561 0.42185 0.0
H532 H 0.29511 0.71426 0.44211 0.0
H533 H 0.36358 0.80109 0.38291 0.0
H534 H 0.3652 0.76815 0.39336 0.0
H535 H 0.32145 0.77516 0.4568 0.0
H536 H 0.3199 0.80849 0.44672 0.0
H537 H 0.31578 0.74412 0.41629 0.0
H538 H 0.36262 0.76821 0.48128 0.0
H539 H 0.39019 0.788 0.49667 0.0
H540 H 0.42818 0.76078 0.43852 0.0
H541 H 0.40076 0.74101 0.42245 0.0
C542 C 0.3459 0.6585 0.42664 0.0
C543 C 0.36083 0.65395 0.40774 0.0
C544 C 0.34284 0.67691 0.43467 0.0
C545 C 0.3546 0.69103 0.42382 0.0
C546 C 0.37007 0.6864 0.40604 0.0
C547 C 0.37316 0.66806 0.39805 0.0
C548 C 0.35017 0.71079 0.4291 0.0
C549 C 0.36526 0.72223 0.43936 0.0
C550 C 0.33185 0.71868 0.42163 0.0
C551 C 0.31564 0.70749 0.40947 0.0
C552 C 0.31818 0.69777 0.38431 0.0
C553 C 0.30283 0.6872 0.37303 0.0
C554 C 0.2848 0.68639 0.38659 0.0
C555 C 0.28208 0.6962 0.41142 0.0
C556 C 0.2974 0.70678 0.42281 0.0
C557 C 0.35426 0.79568 0.39908 0.0
C558 C 0.34164 0.80735 0.41406 0.0
C559 C 0.35528 0.77688 0.40509 0.0
C560 C 0.34358 0.76937 0.426 0.0
C561 C 0.33064 0.78083 0.44069 0.0
C562 C 0.3298 0.79979 0.43494 0.0
C563 C 0.34501 0.7494 0.43178 0.0
C564 C 0.3294 0.73792 0.42351 0.0
C565 C 0.36293 0.74149 0.44074 0.0
C566 C 0.37958 0.75316 0.45059 0.0
C567 C 0.37682 0.76651 0.47165 0.0
C568 C 0.39243 0.77772 0.48051 0.0
C569 C 0.41092 0.77566 0.46856 0.0
C570 C 0.41385 0.76235 0.44777 0.0
C571 C 0.39828 0.75112 0.43881 0.0
H572 H 0.42299 0.78436 0.47544 0.0
H573 H 0.27292 0.6782 0.37782 0.0
H574 H 0.56835 0.1039 0.54827 0.0
H575 H 0.53256 0.1044 0.54724 0.0
H576 H 0.53123 0.0796 0.6285 0.0
H577 H 0.56726 0.07909 0.62982 0.0
H578 H 0.50243 0.06514 0.58916 0.0
H579 H 0.52498 0.12296 0.62735 0.0
H580 H 0.54532 0.15121 0.62888 0.0
H581 H 0.5204 0.1687 0.55104 0.0
H582 H 0.50014 0.1404 0.54882 0.0
H583 H 0.40188 0.09172 0.6101 0.0
H584 H 0.43717 0.08664 0.61642 0.0
H585 H 0.44836 0.11588 0.54028 0.0
H586 H 0.41328 0.12116 0.53389 0.0
H587 H 0.47217 0.1275 0.58206 0.0
H588 H 0.45066 0.06939 0.5426 0.0
H589 H 0.43045 0.04107 0.54023 0.0
H590 H 0.45328 0.02399 0.61952 0.0
H591 H 0.47336 0.0524 0.62261 0.0
C592 C 0.5605 0.09837 0.56584 0.0
C593 C 0.57062 0.09161 0.58926 0.0
C594 C 0.54004 0.09867 0.5652 0.0
C595 C 0.52932 0.09222 0.58791 0.0
C596 C 0.5393 0.08466 0.61081 0.0
C597 C 0.55984 0.08444 0.61155 0.0
C598 C 0.50777 0.09452 0.58818 0.0
C599 C 0.49574 0.07875 0.58808 0.0
C600 C 0.49917 0.11231 0.58638 0.0
C601 C 0.51116 0.12947 0.58781 0.0
C602 C 0.52395 0.13276 0.61045 0.0
C603 C 0.53544 0.14879 0.61146 0.0
C604 C 0.53418 0.16172 0.59004 0.0
C605 C 0.52137 0.15867 0.5676 0.0
C606 C 0.50986 0.14264 0.56647 0.0
C607 C 0.41185 0.09703 0.59467 0.0
C608 C 0.40475 0.10685 0.57149 0.0
C609 C 0.43199 0.09406 0.59827 0.0
C610 C 0.44534 0.10081 0.57873 0.0
C611 C 0.43829 0.11059 0.55562 0.0
C612 C 0.41821 0.11353 0.55197 0.0
C613 C 0.46674 0.0981 0.58245 0.0
C614 C 0.47878 0.11385 0.58338 0.0
C615 C 0.47528 0.0803 0.58494 0.0
C616 C 0.46335 0.06313 0.58299 0.0
C617 C 0.45124 0.05968 0.55965 0.0
C618 C 0.43983 0.0436 0.55815 0.0
C619 C 0.44055 0.03077 0.57974 0.0
C620 C 0.45272 0.03397 0.60284 0.0
C621 C 0.46412 0.05005 0.60447 0.0
H622 H 0.43171 0.01832 0.57854 0.0
H623 H 0.54311 0.17413 0.59085 0.0
H624 H 0.88557 0.17008 0.88995 0.0
H625 H 0.88168 0.20134 0.90838 0.0
H626 H 0.82659 0.18587 0.94513 0.0
H627 H 0.83048 0.15424 0.92678 0.0
H628 H 0.82425 0.21741 0.91214 0.0
H629 H 0.86214 0.19715 0.98852 0.0
H630 H 0.88886 0.18091 0.01319 0.0
H631 H 0.93142 0.21559 0.97382 0.0
H632 H 0.905 0.23186 0.94857 0.0
H633 H 0.83033 0.31599 0.93324 0.0
H634 H 0.82638 0.28378 0.94844 0.0
H635 H 0.88174 0.26965 0.91096 0.0
H636 H 0.88577 0.30147 0.89584 0.0
H637 H 0.87673 0.25255 0.96156 0.0
H638 H 0.83958 0.2639 0.87507 0.0
H639 H 0.81362 0.27947 0.84779 0.0
H640 H 0.77027 0.2609 0.90555 0.0
H641 H 0.79605 0.24541 0.93334 0.0
C642 C 0.87274 0.17322 0.90224 0.0
C643 C 0.85828 0.15974 0.90679 0.0
C644 C 0.87061 0.19106 0.91297 0.0
C645 C 0.85394 0.19585 0.92837 0.0
C646 C 0.83962 0.18236 0.93349 0.0
C647 C 0.84188 0.16434 0.92303 0.0
C648 C 0.85095 0.21546 0.93634 0.0
C649 C 0.83535 0.22505 0.9238 0.0
C650 C 0.86549 0.2254 0.9514 0.0
C651 C 0.88153 0.21573 0.96661 0.0
C652 C 0.8772 0.20125 0.98499 0.0
C653 C 0.8923 0.19204 -0.0009 0.0
C654 C 0.91182 0.19721 0.99507 0.0
C655 C 0.91628 0.21162 0.97695 0.0
C656 C 0.90124 0.22087 0.96278 0.0
C657 C 0.84177 0.30604 0.92865 0.0
C658 C 0.85825 0.31118 0.91307 0.0
C659 C 0.83949 0.28769 0.93733 0.0
C660 C 0.85375 0.27436 0.93072 0.0
C661 C 0.87061 0.27974 0.91639 0.0
C662 C 0.87281 0.29792 0.90754 0.0
C663 C 0.85069 0.25443 0.93606 0.0
C664 C 0.86516 0.24482 0.95106 0.0
C665 C 0.83518 0.24446 0.92314 0.0
C666 C 0.81973 0.25374 0.90645 0.0
C667 C 0.82453 0.26328 0.88205 0.0
C668 C 0.80985 0.27206 0.86648 0.0
C669 C 0.79032 0.27123 0.87499 0.0
C670 C 0.78541 0.26158 0.89903 0.0
C671 C 0.80004 0.2528 0.9147 0.0
H672 H 0.77897 0.27803 0.8629 0.0
H673 H 0.92349 0.19006 0.00601 0.0
H674 H 0.65376 0.66119 0.43475 0.0
H675 H 0.65799 0.6949 0.43879 0.0
H676 H 0.61057 0.70294 0.38007 0.0
H677 H 0.60624 0.66964 0.37586 0.0
H678 H 0.64427 0.72166 0.36609 0.0
H679 H 0.60404 0.71131 0.44779 0.0
H680 H 0.59705 0.69758 0.49344 0.0
H681 H 0.64942 0.72226 0.52758 0.0
H682 H 0.65684 0.73595 0.48198 0.0
H683 H 0.60636 0.80972 0.36689 0.0
H684 H 0.61109 0.7769 0.37546 0.0
H685 H 0.65959 0.78926 0.43081 0.0
H686 H 0.6549 0.82253 0.42243 0.0
H687 H 0.63385 0.7606 0.45014 0.0
H688 H 0.67132 0.77482 0.37008 0.0
H689 H 0.67789 0.78895 0.32459 0.0
H690 H 0.63143 0.75685 0.28731 0.0
H691 H 0.62436 0.74273 0.33267 0.0
C692 C 0.6441 0.67017 0.42295 0.0
C693 C 0.62976 0.6627 0.4048 0.0
C694 C 0.64654 0.6894 0.42531 0.0
C695 C 0.63466 0.70136 0.40959 0.0
C696 C 0.61999 0.69393 0.3922 0.0
C697 C 0.61752 0.67484 0.38988 0.0
C698 C 0.6378 0.72165 0.40983 0.0
C699 C 0.64199 0.73018 0.38447 0.0
C700 C 0.63562 0.73267 0.43406 0.0
C701 C 0.63113 0.72444 0.46141 0.0
C702 C 0.61416 0.71366 0.46496 0.0
C703 C 0.6101 0.70592 0.49084 0.0
C704 C 0.62282 0.70898 0.51337 0.0
C705 C 0.6396 0.71985 0.51009 0.0
C706 C 0.64374 0.72761 0.48424 0.0
C707 C 0.61801 0.80558 0.38102 0.0
C708 C 0.63041 0.81878 0.39372 0.0
C709 C 0.62068 0.78678 0.38589 0.0
C710 C 0.63587 0.78068 0.40341 0.0
C711 C 0.64784 0.79374 0.41711 0.0
C712 C 0.64516 0.8127 0.41223 0.0
C713 C 0.6394 0.76055 0.40611 0.0
C714 C 0.63659 0.75206 0.43193 0.0
C715 C 0.64294 0.74947 0.3823 0.0
C716 C 0.64726 0.75777 0.35485 0.0
C717 C 0.66242 0.77085 0.35223 0.0
C718 C 0.66624 0.77886 0.32645 0.0
C719 C 0.65507 0.77382 0.30309 0.0
C720 C 0.64008 0.76074 0.30543 0.0
C721 C 0.63618 0.75271 0.33117 0.0
H722 H 0.65805 0.78003 0.28315 0.0
H723 H 0.61964 0.70299 0.53339 0.0
H724 H 0.84988 0.66749 0.14738 0.0
H725 H 0.84672 0.70103 0.14472 0.0
H726 H 0.81159 0.69539 0.07 0.0
H727 H 0.815 0.66164 0.07223 0.0
H728 H 0.83932 0.72119 0.06407 0.0
H729 H 0.79034 0.70842 0.13073 0.0
H730 H 0.77605 0.69444 0.17254 0.0
H731 H 0.81778 0.72351 0.22414 0.0
H732 H 0.83255 0.73745 0.1826 0.0
H733 H 0.8242 0.81983 0.07094 0.0
H734 H 0.81747 0.78651 0.06909 0.0
H735 H 0.85485 0.77839 0.14087 0.0
H736 H 0.86158 0.81151 0.14303 0.0
H737 H 0.81973 0.7599 0.14485 0.0
H738 H 0.87128 0.76859 0.07695 0.0
H739 H 0.88568 0.78217 0.03488 0.0
H740 H 0.83801 0.76057 0.98539 0.0
H741 H 0.8232 0.74706 0.02727 0.0
C742 C 0.84137 0.67335 0.13046 0.0
C743 C 0.83269 0.66194 0.11 0.0
C744 C 0.83947 0.69253 0.12907 0.0
C745 C 0.82868 0.70069 0.10738 0.0
C746 C 0.8199 0.68935 0.08697 0.0
C747 C 0.82184 0.6701 0.0883 0.0
C748 C 0.82753 0.72111 0.10551 0.0
C749 C 0.83461 0.72967 0.08149 0.0
C750 C 0.82156 0.73214 0.12835 0.0
C751 C 0.81263 0.7239 0.15348 0.0
C752 C 0.79656 0.71174 0.15096 0.0
C753 C 0.78836 0.70383 0.17463 0.0
C754 C 0.79602 0.70807 0.20097 0.0
C755 C 0.81186 0.72025 0.20371 0.0
C756 C 0.82014 0.72818 0.18011 0.0
C757 C 0.83101 0.81094 0.0863 0.0
C758 C 0.84347 0.81833 0.10709 0.0
C759 C 0.82716 0.79193 0.08519 0.0
C760 C 0.8357 0.78004 0.10482 0.0
C761 C 0.84805 0.78738 0.12561 0.0
C762 C 0.85196 0.80631 0.12669 0.0
C763 C 0.83209 0.75986 0.1038 0.0
C764 C 0.82407 0.75138 0.12726 0.0
C765 C 0.8371 0.74892 0.08041 0.0
C766 C 0.84602 0.75702 0.05527 0.0
C767 C 0.86379 0.76688 0.05713 0.0
C768 C 0.87204 0.77453 0.03332 0.0
C769 C 0.86273 0.77229 0.00749 0.0
C770 C 0.84518 0.76233 0.00542 0.0
C771 C 0.83686 0.75467 0.02918 0.0
H772 H 0.86915 0.77822 0.98908 0.0
H773 H 0.78965 0.70193 0.21927 0.0
H774 H 0.6208 0.30859 0.63503 0.0
H775 H 0.62756 0.27618 0.62527 0.0
H776 H 0.65765 0.29113 0.55023 0.0
H777 H 0.6511 0.32407 0.56002 0.0
H778 H 0.62872 0.25961 0.54661 0.0
H779 H 0.68633 0.27842 0.59535 0.0
H780 H 0.70556 0.29474 0.63165 0.0
H781 H 0.67748 0.26267 0.69472 0.0
H782 H 0.65783 0.24636 0.65885 0.0
H783 H 0.64805 0.16021 0.55729 0.0
H784 H 0.6549 0.19313 0.54878 0.0
H785 H 0.62908 0.20741 0.62762 0.0
H786 H 0.62207 0.17494 0.63616 0.0
H787 H 0.6656 0.22447 0.6184 0.0
H788 H 0.6029 0.21246 0.57091 0.0
H789 H 0.58207 0.19676 0.53574 0.0
H790 H 0.61952 0.21626 0.47086 0.0
H791 H 0.64072 0.23189 0.50574 0.0
C792 C 0.62879 0.30512 0.61634 0.0
C793 C 0.63547 0.31897 0.59834 0.0
C794 C 0.63269 0.28655 0.61086 0.0
C795 C 0.64325 0.28134 0.58721 0.0
C796 C 0.64954 0.29497 0.56866 0.0
C797 C 0.64582 0.31372 0.57431 0.0
C798 C 0.64757 0.26151 0.58272 0.0
C799 C 0.63731 0.25191 0.56171 0.0
C800 C 0.65866 0.25155 0.60261 0.0
C801 C 0.67055 0.26119 0.62436 0.0
C802 C 0.68415 0.27492 0.61697 0.0
C803 C 0.69514 0.28417 0.63748 0.0
C804 C 0.69273 0.27975 0.66548 0.0
C805 C 0.67934 0.26606 0.67302 0.0
C806 C 0.6683 0.25679 0.6526 0.0
C807 C 0.64387 0.1704 0.57278 0.0
C808 C 0.63445 0.16497 0.59736 0.0
C809 C 0.64779 0.18915 0.56788 0.0
C810 C 0.64254 0.20262 0.58764 0.0
C811 C 0.63334 0.19718 0.61221 0.0
C812 C 0.62923 0.1786 0.61695 0.0
C813 C 0.64604 0.22257 0.58308 0.0
C814 C 0.65773 0.23217 0.60254 0.0
C815 C 0.63626 0.23248 0.56181 0.0
C816 C 0.62353 0.2231 0.54092 0.0
C817 C 0.60679 0.21325 0.54916 0.0
C818 C 0.5949 0.2044 0.52929 0.0
C819 C 0.59952 0.20545 0.50109 0.0
C820 C 0.616 0.21541 0.49271 0.0
C821 C 0.62795 0.22427 0.51252 0.0
H822 H 0.59029 0.1986 0.48573 0.0
H823 H 0.70125 0.28692 0.68133 0.0
H824 H 0.07762 0.39554 0.95023 0.0
H825 H 0.04184 0.39681 0.94847 0.0
H826 H 0.04382 0.4134 0.86258 0.0
H827 H 0.07976 0.41224 0.86414 0.0
H828 H 0.01388 0.43137 0.89358 0.0
H829 H 0.03775 0.3701 0.87424 0.0
H830 H 0.05771 0.34223 0.88305 0.0
H831 H 0.02811 0.33396 0.96042 0.0
H832 H 0.0082 0.36199 0.9523 0.0
H833 H 0.91697 0.39928 0.85679 0.0
H834 H 0.9523 0.40564 0.85865 0.0
H835 H 0.95463 0.38665 0.94347 0.0
H836 H 0.91948 0.38023 0.9418 0.0
H837 H 0.98254 0.37054 0.91117 0.0
H838 H 0.95832 0.43179 0.93014 0.0
H839 H 0.93868 0.45987 0.92135 0.0
H840 H 0.96864 0.46808 0.84426 0.0
H841 H 0.98828 0.43988 0.85239 0.0
C842 C 0.07049 0.39975 0.9311 0.0
C843 C 0.08149 0.40352 0.90721 0.0
C844 C 0.05005 0.40048 0.93013 0.0
C845 C 0.04025 0.40492 0.90528 0.0
C846 C 0.05116 0.4099 0.88192 0.0
C847 C 0.07166 0.40916 0.88284 0.0
C848 C 0.01874 0.40263 0.90311 0.0
C849 C 0.00698 0.41805 0.89707 0.0
C850 C 0.00985 0.38527 0.908 0.0
C851 C 0.02162 0.36825 0.91279 0.0
C852 C 0.0356 0.36243 0.89324 0.0
C853 C 0.04689 0.34659 0.89809 0.0
C854 C 0.04421 0.33636 0.92231 0.0
C855 C 0.03019 0.34191 0.94169 0.0
C856 C 0.01889 0.35777 0.93696 0.0
C857 C 0.925 0.39659 0.87589 0.0
C858 C 0.91548 0.38918 0.89911 0.0
C859 C 0.94514 0.40031 0.87695 0.0
C860 C 0.95602 0.39667 0.90124 0.0
C861 C 0.94647 0.38953 0.92453 0.0
C862 C 0.92638 0.3859 0.92354 0.0
C863 C 0.97754 0.39934 0.90205 0.0
C864 C 0.98936 0.3839 0.90768 0.0
C865 C 0.98641 0.41666 0.89668 0.0
C866 C 0.97461 0.43361 0.89172 0.0
C867 C 0.96059 0.43948 0.91118 0.0
C868 C 0.94949 0.45544 0.90635 0.0
C869 C 0.95237 0.46572 0.88222 0.0
C870 C 0.9664 0.46009 0.86291 0.0
C871 C 0.97753 0.44412 0.86763 0.0
H872 H 0.94377 0.47808 0.87852 0.0
H873 H 0.05297 0.3241 0.92603 0.0
H874 H 0.5786 0.56875 0.36728 0.0
H875 H 0.54339 0.56251 0.36457 0.0
H876 H 0.53715 0.57982 0.45007 0.0
H877 H 0.57246 0.586 0.45306 0.0
H878 H 0.5142 0.5489 0.43641 0.0
H879 H 0.52763 0.60985 0.40069 0.0
H880 H 0.54419 0.63228 0.37039 0.0
H881 H 0.52143 0.60406 0.29808 0.0
H882 H 0.50498 0.58128 0.32797 0.0
H883 H 0.4149 0.57752 0.44175 0.0
H884 H 0.4504 0.57337 0.44351 0.0
H885 H 0.45059 0.56109 0.35555 0.0
H886 H 0.415 0.56562 0.35351 0.0
H887 H 0.47696 0.58667 0.36813 0.0
H888 H 0.46054 0.52739 0.4042 0.0
H889 H 0.44396 0.50513 0.4347 0.0
H890 H 0.47187 0.52988 0.50626 0.0
H891 H 0.48842 0.55248 0.47623 0.0
C892 C 0.56979 0.57103 0.38563 0.0
C893 C 0.57824 0.57807 0.41031 0.0
C894 C 0.54968 0.56746 0.38402 0.0
C895 C 0.53768 0.57092 0.40702 0.0
C896 C 0.5462 0.57708 0.4321 0.0
C897 C 0.56633 0.58069 0.43372 0.0
C898 C 0.51609 0.56941 0.40429 0.0
C899 C 0.50598 0.55722 0.42165 0.0
C900 C 0.50551 0.57998 0.38455 0.0
C901 C 0.51526 0.59375 0.36655 0.0
C902 C 0.52629 0.60834 0.37832 0.0
C903 C 0.53563 0.62113 0.36123 0.0
C904 C 0.53391 0.61956 0.33233 0.0
C905 C 0.52278 0.60523 0.32047 0.0
C906 C 0.51344 0.59239 0.33747 0.0
C907 C 0.42244 0.57369 0.42283 0.0
C908 C 0.41217 0.572 0.39745 0.0
C909 C 0.44274 0.5712 0.42391 0.0
C910 C 0.45314 0.56677 0.3997 0.0
C911 C 0.44284 0.56448 0.37448 0.0
C912 C 0.42251 0.56704 0.37336 0.0
C913 C 0.47489 0.56617 0.40034 0.0
C914 C 0.48509 0.57809 0.38265 0.0
C915 C 0.48549 0.55534 0.41979 0.0
C916 C 0.47561 0.54173 0.43795 0.0
C917 C 0.46303 0.52819 0.42646 0.0
C918 C 0.45366 0.51548 0.44366 0.0
C919 C 0.45683 0.51611 0.4724 0.0
C920 C 0.46942 0.52942 0.48399 0.0
C921 C 0.47882 0.54216 0.46688 0.0
H922 H 0.44956 0.50626 0.48569 0.0
H923 H 0.54115 0.62948 0.31912 0.0
H924 H 0.57301 0.40454 0.64172 0.0
H925 H 0.53726 0.40809 0.64044 0.0
H926 H 0.5366 0.39365 0.55322 0.0
H927 H 0.5722 0.38982 0.55439 0.0
H928 H 0.51187 0.42986 0.61091 0.0
H929 H 0.4972 0.36628 0.53967 0.0
H930 H 0.51238 0.33618 0.52816 0.0
H931 H 0.54046 0.33505 0.60846 0.0
H932 H 0.52523 0.36499 0.62058 0.0
H933 H 0.41126 0.39462 0.55037 0.0
H934 H 0.44703 0.39688 0.55038 0.0
H935 H 0.44674 0.41162 0.63748 0.0
H936 H 0.4109 0.40954 0.63761 0.0
H937 H 0.47201 0.37581 0.58019 0.0
H938 H 0.48697 0.43922 0.65153 0.0
H939 H 0.47167 0.46914 0.6637 0.0
H940 H 0.44258 0.47039 0.58413 0.0
H941 H 0.45789 0.44062 0.57134 0.0
C942 C 0.56525 0.40224 0.62223 0.0
C943 C 0.57538 0.39672 0.59822 0.0
C944 C 0.54485 0.40433 0.62153 0.0
C945 C 0.53428 0.40088 0.59684 0.0
C946 C 0.54446 0.39608 0.5726 0.0
C947 C 0.56481 0.39394 0.5733 0.0
C948 C 0.51256 0.40153 0.59661 0.0
C949 C 0.50311 0.418 0.60451 0.0
C950 C 0.5012 0.38612 0.58782 0.0
C951 C 0.51024 0.36798 0.58089 0.0
C952 C 0.50656 0.35957 0.55489 0.0
C953 C 0.51517 0.34254 0.54827 0.0
C954 C 0.52743 0.33374 0.56753 0.0
C955 C 0.53103 0.34191 0.59351 0.0
C956 C 0.52242 0.35892 0.60026 0.0
C957 C 0.41878 0.39856 0.56946 0.0
C958 C 0.40827 0.40183 0.59403 0.0
C959 C 0.43922 0.39981 0.56943 0.0
C960 C 0.44953 0.40447 0.59389 0.0
C961 C 0.43906 0.40823 0.61829 0.0
C962 C 0.41859 0.40697 0.61835 0.0
C963 C 0.47126 0.4042 0.59422 0.0
C964 C 0.48073 0.38773 0.58647 0.0
C965 C 0.48258 0.41958 0.60326 0.0
C966 C 0.47342 0.43758 0.61062 0.0
C967 C 0.47736 0.44591 0.6366 0.0
C968 C 0.46867 0.46284 0.64361 0.0
C969 C 0.45611 0.47163 0.62474 0.0
C970 C 0.45224 0.46353 0.59878 0.0
C971 C 0.4609 0.44661 0.59166 0.0
H972 H 0.4494 0.48473 0.63021 0.0
H973 H 0.5341 0.32057 0.56235 0.0
H974 H 0.07529 0.57545 0.14524 0.0
H975 H 0.03936 0.57451 0.14905 0.0
H976 H 0.03378 0.59702 0.06653 0.0
H977 H 0.06939 0.59785 0.06242 0.0
H978 H 0.01321 0.61676 0.10815 0.0
H979 H 0.02319 0.55373 0.07539 0.0
H980 H 0.03702 0.52223 0.07807 0.0
H981 H 0.00965 0.51438 0.15719 0.0
H982 H -0.00413 0.54596 0.15514 0.0
H983 H 0.91742 0.61021 0.06093 0.0
H984 H 0.95248 0.60546 0.06745 0.0
H985 H 0.94202 0.57959 0.14651 0.0
H986 H 0.90655 0.58411 0.14001 0.0
H987 H 0.97059 0.56131 0.11581 0.0
H988 H 0.95781 0.62268 0.14701 0.0
H989 H 0.94383 0.65415 0.14526 0.0
H990 H 0.97674 0.66551 0.07161 0.0
H991 H 0.9907 0.63401 0.07266 0.0
C992 C 0.06637 0.57996 0.1278 0.0
C993 C 0.07515 0.58684 0.1036 0.0
C994 C 0.0459 0.57939 0.13 0.0
C995 C 0.034 0.58578 0.1081 0.0
C996 C 0.04275 0.59211 0.08369 0.0
C997 C 0.06311 0.59253 0.08137 0.0
C998 C 0.01246 0.58703 0.1109 0.0
C999 C 0.00387 0.60464 0.10969 0.0
C1000 C 0.00042 0.57124 0.11406 0.0
C1001 C 0.00872 0.55229 0.11529 0.0
C1002 C 0.0203 0.54536 0.0935 0.0
C1003 C 0.02808 0.52747 0.09486 0.0
C1004 C 0.02428 0.51633 0.11783 0.0
C1005 C 0.01262 0.52304 0.13944 0.0
C1006 C 0.00482 0.54093 0.13818 0.0
C1007 C 0.92247 0.60345 0.07972 0.0
C1008 C 0.90916 0.59772 0.1001 0.0
C1009 C 0.94255 0.60077 0.08342 0.0
C1010 C 0.94985 0.59247 0.10768 0.0
C1011 C 0.93665 0.58612 0.12771 0.0
C1012 C 0.91643 0.58876 0.12398 0.0
C1013 C 0.97134 0.59103 0.112 0.0
C1014 C 0.97993 0.57345 0.11472 0.0
C1015 C 0.98348 0.60688 0.1105 0.0
C1016 C 0.97521 0.62592 0.10983 0.0
C1017 C 0.96197 0.63184 0.13033 0.0
C1018 C 0.95406 0.6497 0.12948 0.0
C1019 C 0.95937 0.66181 0.10831 0.0
C1020 C 0.97264 0.65611 0.08799 0.0
C1021 C 0.98057 0.63826 0.08873 0.0
H1022 H 0.95323 0.67563 0.10769 0.0
H1023 H 0.03031 0.50248 0.11884 0.0
H1024 H 0.14872 0.56008 0.01762 0.0
H1025 H 0.16213 0.53244 0.99546 0.0
H1026 H 0.20931 0.53148 0.05618 0.0
H1027 H 0.19475 0.55826 0.07979 0.0
H1028 H 0.19109 0.51977 0.97124 0.0
H1029 H 0.22221 0.48791 0.07103 0.0
H1030 H 0.21895 0.49044 0.12204 0.0
H1031 H 0.15927 0.50858 0.11216 0.0
H1032 H 0.16215 0.50597 0.06116 0.0
H1033 H 0.20073 0.42921 0.92345 0.0
H1034 H 0.21323 0.4568 0.94773 0.0
H1035 H 0.17011 0.44897 0.01193 0.0
H1036 H 0.15895 0.42068 0.98903 0.0
H1037 H 0.19776 0.46592 0.0341 0.0
H1038 H 0.16188 0.47496 0.94669 0.0
H1039 H 0.1569 0.47164 0.89598 0.0
H1040 H 0.21228 0.49818 0.88173 0.0
H1041 H 0.21765 0.50148 0.93241 0.0
C1042 C 0.16214 0.55413 0.02589 0.0
C1043 C 0.17058 0.561 0.05052 0.0
C1044 C 0.16988 0.53835 0.01319 0.0
C1045 C 0.1865 0.5295 0.02454 0.0
C1046 C 0.19611 0.53763 0.04756 0.0
C1047 C 0.18791 0.55299 0.0609 0.0
C1048 C 0.19217 0.51089 0.01391 0.0
C1049 C 0.19277 0.50804 0.98504 0.0
C1050 C 0.19443 0.49548 0.03178 0.0
C1051 C 0.19251 0.49701 0.06236 0.0
C1052 C 0.20841 0.49242 0.0798 0.0
C1053 C 0.20662 0.49387 0.10868 0.0
C1054 C 0.18894 0.49975 0.12033 0.0
C1055 C 0.17298 0.5041 0.10312 0.0
C1056 C 0.17468 0.50265 0.07424 0.0
C1057 C 0.19451 0.43309 0.94331 0.0
C1058 C 0.17876 0.42307 0.9543 0.0
C1059 C 0.20151 0.44891 0.95705 0.0
C1060 C 0.19212 0.45543 0.98111 0.0
C1061 C 0.17759 0.44438 0.99333 0.0
C1062 C 0.17114 0.4282 0.98019 0.0
C1063 C 0.19509 0.47468 0.99149 0.0
C1064 C 0.19656 0.47771 0.0203 0.0
C1065 C 0.19348 0.49016 0.97362 0.0
C1066 C 0.19028 0.48823 0.94323 0.0
C1067 C 0.17302 0.48 0.9327 0.0
C1068 C 0.17013 0.47812 0.904 0.0
C1069 C 0.1843 0.48463 0.88565 0.0
C1070 C 0.20135 0.49309 0.89597 0.0
C1071 C 0.20433 0.49496 0.92467 0.0
H1072 H 0.18203 0.48317 0.86343 0.0
H1073 H 0.1876 0.50088 0.14268 0.0
H1074 H 0.68911 0.88092 0.33663 0.0
H1075 H 0.71752 0.88532 0.30717 0.0
H1076 H 0.67964 0.88857 0.23493 0.0
H1077 H 0.65095 0.88363 0.26437 0.0
H1078 H 0.71066 0.8677 0.22448 0.0
H1079 H 0.70079 0.92778 0.26385 0.0
H1080 H 0.69531 0.95058 0.30141 0.0
H1081 H 0.7507 0.9362 0.33872 0.0
H1082 H 0.75639 0.91311 0.30161 0.0
H1083 H 0.78821 0.89683 0.13938 0.0
H1084 H 0.75784 0.89883 0.16564 0.0
H1085 H 0.79003 0.88919 0.24182 0.0
H1086 H 0.82065 0.88727 0.21574 0.0
H1087 H 0.76049 0.91575 0.24745 0.0
H1088 H 0.76845 0.8538 0.21019 0.0
H1089 H 0.77373 0.83089 0.1727 0.0
H1090 H 0.72134 0.84943 0.13106 0.0
H1091 H 0.71592 0.87264 0.16814 0.0
C1092 C 0.68676 0.88258 0.31447 0.0
C1093 C 0.66776 0.88204 0.30282 0.0
C1094 C 0.70304 0.88522 0.29769 0.0
C1095 C 0.70066 0.8877 0.26896 0.0
C1096 C 0.68176 0.88682 0.25711 0.0
C1097 C 0.66541 0.88398 0.27392 0.0
C1098 C 0.71807 0.89071 0.25139 0.0
C1099 C 0.72134 0.87846 0.22916 0.0
C1100 C 0.73218 0.90454 0.25784 0.0
C1101 C 0.72895 0.91861 0.28002 0.0
C1102 C 0.71175 0.9294 0.28015 0.0
C1103 C 0.70861 0.94238 0.30136 0.0
C1104 C 0.72263 0.94481 0.32247 0.0
C1105 C 0.73985 0.9343 0.32236 0.0
C1106 C 0.74305 0.92127 0.30122 0.0
C1107 C 0.78893 0.89535 0.16177 0.0
C1108 C 0.80683 0.89164 0.17546 0.0
C1109 C 0.77153 0.89649 0.1767 0.0
C1110 C 0.77171 0.89386 0.20554 0.0
C1111 C 0.78965 0.89119 0.21952 0.0
C1112 C 0.8071 0.89005 0.20458 0.0
C1113 C 0.75308 0.89264 0.22085 0.0
C1114 C 0.74962 0.90519 0.24263 0.0
C1115 C 0.73874 0.87915 0.21393 0.0
C1116 C 0.7419 0.86508 0.19177 0.0
C1117 C 0.75814 0.85308 0.19293 0.0
C1118 C 0.76115 0.84003 0.17178 0.0
C1119 C 0.74791 0.83874 0.14947 0.0
C1120 C 0.7316 0.85046 0.14833 0.0
C1121 C 0.72855 0.86356 0.16941 0.0
H1122 H 0.75026 0.82863 0.13312 0.0
H1123 H 0.72016 0.95485 0.33889 0.0
H1124 H 0.31161 0.4485 0.57987 0.0
H1125 H 0.2974 0.47193 0.54979 0.0
H1126 H 0.29083 0.43139 0.48391 0.0
H1127 H 0.30563 0.40785 0.51387 0.0
H1128 H 0.31152 0.45895 0.46723 0.0
H1129 H 0.25009 0.45501 0.51067 0.0
H1130 H 0.22646 0.45252 0.54895 0.0
H1131 H 0.24482 0.50555 0.5807 0.0
H1132 H 0.26878 0.50826 0.54288 0.0
H1133 H 0.30306 0.53846 0.38868 0.0
H1134 H 0.28776 0.51138 0.40956 0.0
H1135 H 0.30121 0.53308 0.49138 0.0
H1136 H 0.31612 0.5604 0.47067 0.0
H1137 H 0.26737 0.51128 0.49089 0.0
H1138 H 0.33528 0.50828 0.45811 0.0
H1139 H 0.36058 0.51077 0.42194 0.0
H1140 H 0.33027 0.47004 0.37215 0.0
H1141 H 0.30466 0.4675 0.40794 0.0
C1142 C 0.30675 0.44444 0.55919 0.0
C1143 C 0.31007 0.42643 0.54903 0.0
C1144 C 0.29835 0.45782 0.54209 0.0
C1145 C 0.29289 0.45341 0.5146 0.0
C1146 C 0.29489 0.43508 0.50507 0.0
C1147 C 0.30342 0.42168 0.52216 0.0
C1148 C 0.28883 0.46858 0.4948 0.0
C1149 C 0.30129 0.47005 0.47186 0.0
C1150 C 0.27578 0.48327 0.50108 0.0
C1151 C 0.2613 0.48182 0.52388 0.0
C1152 C 0.24919 0.4661 0.52589 0.0
C1153 C 0.23571 0.46466 0.54752 0.0
C1154 C 0.23414 0.47887 0.56725 0.0
C1155 C 0.24603 0.49457 0.56537 0.0
C1156 C 0.25954 0.49608 0.5438 0.0
C1157 C 0.30225 0.53772 0.41113 0.0
C1158 C 0.31122 0.55128 0.4281 0.0
C1159 C 0.2934 0.52229 0.423 0.0
C1160 C 0.29373 0.52009 0.45196 0.0
C1161 C 0.30084 0.53453 0.46897 0.0
C1162 C 0.3095 0.55007 0.45711 0.0
C1163 C 0.29049 0.50166 0.46427 0.0
C1164 C 0.27685 0.49972 0.48572 0.0
C1165 C 0.30252 0.48647 0.45685 0.0
C1166 C 0.31797 0.48788 0.43547 0.0
C1167 C 0.33397 0.49995 0.43936 0.0
C1168 C 0.34836 0.50136 0.41895 0.0
C1169 C 0.347 0.49062 0.39472 0.0
C1170 C 0.33128 0.47839 0.39089 0.0
C1171 C 0.31682 0.47696 0.41122 0.0
H1172 H 0.35815 0.49172 0.37894 0.0
H1173 H 0.22371 0.47771 0.58398 0.0
H1174 H 0.65407 0.10154 0.72174 0.0
H1175 H 0.68429 0.10107 0.7497 0.0
H1176 H 0.71862 0.10014 0.67472 0.0
H1177 H 0.68867 0.09999 0.6468 0.0
H1178 H 0.73417 0.07769 0.71062 0.0
H1179 H 0.71083 0.14059 0.71331 0.0
H1180 H 0.68684 0.16552 0.7219 0.0
H1181 H 0.68463 0.15076 0.80816 0.0
H1182 H 0.70844 0.12558 0.8 0.0
H1183 H 0.82561 0.11029 0.76564 0.0
H1184 H 0.79446 0.10856 0.73976 0.0
H1185 H 0.76334 0.10083 0.81649 0.0
H1186 H 0.79423 0.10243 0.84245 0.0
H1187 H 0.74597 0.127 0.78125 0.0
H1188 H 0.77089 0.0646 0.77762 0.0
H1189 H 0.79563 0.04053 0.76799 0.0
H1190 H 0.79572 0.05562 0.68178 0.0
H1191 H 0.77117 0.07998 0.69098 0.0
C1192 C 0.66806 0.1011 0.71126 0.0
C1193 C 0.66896 0.10089 0.68207 0.0
C1194 C 0.68532 0.10093 0.72724 0.0
C1195 C 0.70373 0.10087 0.71428 0.0
C1196 C 0.7046 0.10019 0.68518 0.0
C1197 C 0.68742 0.10015 0.66924 0.0
C1198 C 0.72217 0.10188 0.73081 0.0
C1199 C 0.73681 0.0886 0.72585 0.0
C1200 C 0.72552 0.11593 0.75101 0.0
C1201 C 0.71125 0.13108 0.75598 0.0
C1202 C 0.70512 0.14258 0.73407 0.0
C1203 C 0.69157 0.15676 0.73886 0.0
C1204 C 0.68417 0.15969 0.76554 0.0
C1205 C 0.69035 0.14846 0.78749 0.0
C1206 C 0.70387 0.13424 0.7828 0.0
C1207 C 0.81212 0.10829 0.77698 0.0
C1208 C 0.81239 0.10643 0.80606 0.0
C1209 C 0.79439 0.10723 0.76219 0.0
C1210 C 0.77669 0.10444 0.77628 0.0
C1211 C 0.77687 0.10297 0.80529 0.0
C1212 C 0.79456 0.10382 0.82004 0.0
C1213 C 0.75791 0.10294 0.76081 0.0
C1214 C 0.74325 0.1161 0.76603 0.0
C1215 C 0.75463 0.08892 0.74065 0.0
C1216 C 0.76934 0.07424 0.73505 0.0
C1217 C 0.77631 0.0629 0.75666 0.0
C1218 C 0.79028 0.04918 0.75126 0.0
C1219 C 0.79729 0.04658 0.7243 0.0
C1220 C 0.7903 0.05767 0.70266 0.0
C1221 C 0.77635 0.07142 0.70795 0.0
H1222 H 0.8081 0.03595 0.72017 0.0
H1223 H 0.67369 0.17068 0.76921 0.0
H1224 H 0.82393 0.41133 0.97687 0.0
H1225 H 0.81604 0.4414 -0.00181 0.0
H1226 H 0.81511 0.46657 0.91717 0.0
H1227 H 0.82266 0.43678 0.89572 0.0
H1228 H 0.84413 0.48018 0.95736 0.0
H1229 H 0.77522 0.46695 0.94714 0.0
H1230 H 0.74507 0.44861 0.95326 0.0
H1231 H 0.75132 0.4533 0.04197 0.0
H1232 H 0.78171 0.47143 0.03638 0.0
H1233 H 0.82991 0.57281 0.99348 0.0
H1234 H 0.8231 0.54287 0.97142 0.0
H1235 H 0.81363 0.51861 0.05189 0.0
H1236 H 0.82014 0.5485 0.07416 0.0
H1237 H 0.78827 0.5043 0.01232 0.0
H1238 H 0.85719 0.5147 0.02443 0.0
H1239 H 0.88835 0.53185 0.02088 0.0
H1240 H 0.88356 0.53062 0.93178 0.0
H1241 H 0.85219 0.51369 0.93482 0.0
C1242 C 0.82149 0.42317 0.96358 0.0
C1243 C 0.82422 0.42178 0.93469 0.0
C1244 C 0.81693 0.44028 0.97576 0.0
C1245 C 0.81512 0.4561 0.95916 0.0
C1246 C 0.81648 0.45446 0.93023 0.0
C1247 C 0.82085 0.43742 0.91806 0.0
C1248 C 0.81493 0.4747 0.97196 0.0
C1249 C 0.83179 0.4856 0.96898 0.0
C1250 C 0.79909 0.48133 0.98792 0.0
C1251 C 0.78088 0.47037 0.99134 0.0
C1252 C 0.7703 0.46389 0.96796 0.0
C1253 C 0.75313 0.45358 0.97133 0.0
C1254 C 0.74632 0.44974 -0.00201 0.0
C1255 C 0.75663 0.45625 0.02133 0.0
C1256 C 0.77382 0.46656 0.01807 0.0
C1257 C 0.8261 0.56119 0.00647 0.0
C1258 C 0.82589 0.56296 0.03559 0.0
C1259 C 0.82219 0.54411 0.99384 0.0
C1260 C 0.81814 0.52852 0.01011 0.0
C1261 C 0.81675 0.53048 0.03902 0.0
C1262 C 0.82062 0.54756 0.05168 0.0
C1263 C 0.81735 0.5099 -0.00278 0.0
C1264 C 0.8005 0.49894 0.00044 0.0
C1265 C 0.83335 0.50297 0.98179 0.0
C1266 C 0.85223 0.51313 0.97985 0.0
C1267 C 0.86269 0.51823 0.00408 0.0
C1268 C 0.88041 0.52789 0.00216 0.0
C1269 C 0.8879 0.53237 0.97612 0.0
C1270 C 0.87772 0.52717 0.95193 0.0
C1271 C 0.85997 0.51754 0.95374 0.0
H1272 H 0.90163 0.53984 0.97467 0.0
H1273 H 0.73301 0.44177 0.00056 0.0
H1274 H 0.17118 0.08658 0.79022 0.0
H1275 H 0.19733 0.08029 0.75699 0.0
H1276 H 0.23923 0.07618 0.82453 0.0
H1277 H 0.21325 0.08268 0.85781 0.0
H1278 H 0.25075 0.10052 0.787 0.0
H1279 H 0.2282 0.0383 0.78497 0.0
H1280 H 0.20417 0.01284 0.78147 0.0
H1281 H 0.18903 0.02931 0.69838 0.0
H1282 H 0.21275 0.05506 0.7015 0.0
H1283 H 0.32572 0.09039 0.6867 0.0
H1284 H 0.30471 0.0818 0.72564 0.0
H1285 H 0.25366 0.08551 0.67216 0.0
H1286 H 0.27447 0.09371 0.63322 0.0
H1287 H 0.25053 0.05666 0.70709 0.0
H1288 H 0.26787 0.1219 0.71327 0.0
H1289 H 0.291 0.14814 0.71664 0.0
H1290 H 0.31506 0.12609 0.79234 0.0
H1291 H 0.29221 0.09959 0.78921 0.0
C1292 C 0.18589 0.08399 0.79801 0.0
C1293 C 0.19022 0.08533 0.82657 0.0
C1294 C 0.2008 0.08027 0.77902 0.0
C1295 C 0.22021 0.0777 0.78833 0.0
C1296 C 0.22435 0.07813 0.81694 0.0
C1297 C 0.20948 0.08187 0.8359 0.0
C1298 C 0.23644 0.07688 0.76811 0.0
C1299 C 0.25098 0.09061 0.76992 0.0
C1300 C 0.2365 0.06418 0.74557 0.0
C1301 C 0.22219 0.0487 0.74355 0.0
C1302 C 0.21964 0.0366 0.76602 0.0
C1303 C 0.20609 0.02209 0.76409 0.0
C1304 C 0.19506 0.01948 0.73973 0.0
C1305 C 0.19758 0.03135 0.71724 0.0
C1306 C 0.2111 0.04589 0.71906 0.0
C1307 C 0.31004 0.08919 0.68322 0.0
C1308 C 0.30171 0.09295 0.65701 0.0
C1309 C 0.29807 0.08427 0.70545 0.0
C1310 C 0.27762 0.08322 0.70182 0.0
C1311 C 0.26941 0.08621 0.67539 0.0
C1312 C 0.28133 0.09103 0.6532 0.0
C1313 C 0.26448 0.08053 0.72577 0.0
C1314 C 0.25052 0.06623 0.7246 0.0
C1315 C 0.26484 0.09274 0.7489 0.0
C1316 C 0.27853 0.10867 0.75082 0.0
C1317 C 0.2782 0.12259 0.73051 0.0
C1318 C 0.29124 0.13751 0.7324 0.0
C1319 C 0.30454 0.13875 0.75464 0.0
C1320 C 0.30478 0.12509 0.77509 0.0
C1321 C 0.2918 0.11012 0.77327 0.0
H1322 H 0.31461 0.15031 0.75607 0.0
H1323 H 0.18458 0.00824 0.73828 0.0
H1324 H 0.66812 0.56764 0.49341 0.0
H1325 H 0.68068 0.53948 0.51516 0.0
H1326 H 0.70147 0.52011 0.4356 0.0
H1327 H 0.68873 0.54807 0.41371 0.0
H1328 H 0.67533 0.49718 0.45672 0.0
H1329 H 0.73367 0.5258 0.48981 0.0
H1330 H 0.75416 0.54988 0.51222 0.0
H1331 H 0.72478 0.54122 0.58965 0.0
H1332 H 0.70389 0.51728 0.56763 0.0
H1333 H 0.67914 0.41102 0.52416 0.0
H1334 H 0.69308 0.43744 0.49938 0.0
H1335 H 0.67738 0.47358 0.56755 0.0
H1336 H 0.6643 0.44734 0.59268 0.0
H1337 H 0.71004 0.48547 0.54595 0.0
H1338 H 0.64619 0.46538 0.50972 0.0
H1339 H 0.62324 0.4429 0.48822 0.0
H1340 H 0.66106 0.43745 0.41768 0.0
H1341 H 0.68433 0.45976 0.43896 0.0
C1342 C 0.67598 0.55768 0.48075 0.0
C1343 C 0.67711 0.55985 0.45182 0.0
C1344 C 0.68325 0.54162 0.49321 0.0
C1345 C 0.69193 0.52764 0.47695 0.0
C1346 C 0.69476 0.53068 0.4485 0.0
C1347 C 0.68742 0.54664 0.43603 0.0
C1348 C 0.69437 0.50879 0.4884 0.0
C1349 C 0.68345 0.49449 0.47579 0.0
C1350 C 0.70458 0.50539 0.51357 0.0
C1351 C 0.71714 0.51976 0.52699 0.0
C1352 C 0.73147 0.52911 0.51157 0.0
C1353 C 0.74318 0.54272 0.52422 0.0
C1354 C 0.74076 0.54708 0.55233 0.0
C1355 C 0.72665 0.53782 0.56787 0.0
C1356 C 0.71489 0.52419 0.55532 0.0
C1357 C 0.67901 0.42456 0.534 0.0
C1358 C 0.67034 0.42717 0.56014 0.0
C1359 C 0.68697 0.43963 0.51986 0.0
C1360 C 0.68594 0.45756 0.5314 0.0
C1361 C 0.67837 0.45991 0.5582 0.0
C1362 C 0.67073 0.44488 0.57247 0.0
C1363 C 0.69042 0.47421 0.51474 0.0
C1364 C 0.70254 0.48806 0.52637 0.0
C1365 C 0.68104 0.47741 0.48883 0.0
C1366 C 0.66709 0.46401 0.47607 0.0
C1367 C 0.64965 0.45928 0.48972 0.0
C1368 C 0.63659 0.44659 0.47756 0.0
C1369 C 0.64073 0.4387 0.45165 0.0
C1370 C 0.65791 0.44353 0.43779 0.0
C1371 C 0.67104 0.45619 0.44988 0.0
H1372 H 0.6306 0.42889 0.44227 0.0
H1373 H 0.74984 0.55763 0.56209 0.0
H1374 H 0.3157 0.87647 0.29887 0.0
H1375 H 0.28826 0.88088 0.26611 0.0
H1376 H 0.2489 0.88892 0.3349 0.0
H1377 H 0.27597 0.88445 0.36754 0.0
H1378 H 0.23607 0.86245 0.29876 0.0
H1379 H 0.26134 0.92474 0.29462 0.0
H1380 H 0.2866 0.94859 0.28708 0.0
H1381 H 0.29334 0.92991 0.20272 0.0
H1382 H 0.26829 0.90578 0.20987 0.0
H1383 H 0.14908 0.88538 0.22734 0.0
H1384 H 0.17785 0.88743 0.258 0.0
H1385 H 0.21584 0.88446 0.18681 0.0
H1386 H 0.18723 0.88301 0.15602 0.0
H1387 H 0.23003 0.90855 0.22318 0.0
H1388 H 0.20637 0.84602 0.22663 0.0
H1389 H 0.18182 0.82135 0.2331 0.0
H1390 H 0.1733 0.83919 0.31751 0.0
H1391 H 0.19762 0.86413 0.31143 0.0
C1392 C 0.30124 0.87942 0.30694 0.0
C1393 C 0.29794 0.87992 0.33574 0.0
C1394 C 0.28562 0.882 0.28824 0.0
C1395 C 0.26658 0.8852 0.29816 0.0
C1396 C 0.26347 0.88638 0.32687 0.0
C1397 C 0.27898 0.88381 0.34547 0.0
C1398 C 0.24952 0.88585 0.27896 0.0
C1399 C 0.23462 0.8727 0.28248 0.0
C1400 C 0.248 0.89883 0.25719 0.0
C1401 C 0.26309 0.91332 0.25288 0.0
C1402 C 0.26833 0.92561 0.27454 0.0
C1403 C 0.28259 0.9392 0.27031 0.0
C1404 C 0.29161 0.94073 0.24446 0.0
C1405 C 0.28636 0.92869 0.22275 0.0
C1406 C 0.27212 0.91507 0.22687 0.0
C1407 C 0.16356 0.88526 0.21822 0.0
C1408 C 0.16588 0.88387 0.18929 0.0
C1409 C 0.17998 0.88639 0.23575 0.0
C1410 C 0.19899 0.88578 0.2247 0.0
C1411 C 0.20132 0.88493 0.19579 0.0
C1412 C 0.18493 0.88403 0.17823 0.0
C1413 C 0.21645 0.88529 0.24327 0.0
C1414 C 0.23147 0.89835 0.23954 0.0
C1415 C 0.21823 0.87209 0.26473 0.0
C1416 C 0.20367 0.85705 0.26848 0.0
C1417 C 0.19916 0.84476 0.24651 0.0
C1418 C 0.1853 0.83072 0.25011 0.0
C1419 C 0.17597 0.82873 0.27567 0.0
C1420 C 0.18052 0.84076 0.29771 0.0
C1421 C 0.19435 0.85484 0.2942 0.0
H1422 H 0.16525 0.81786 0.27842 0.0
H1423 H 0.30264 0.95127 0.24123 0.0
H1424 H 0.66389 0.03789 0.58213 0.0
H1425 H 0.67643 0.01214 0.5548 0.0
H1426 H 0.68218 0.04789 0.48378 0.0
H1427 H 0.66907 0.07382 0.51106 0.0
H1428 H 0.66182 0.01874 0.47047 0.0
H1429 H 0.72314 0.02735 0.51508 0.0
H1430 H 0.74656 0.03281 0.55366 0.0
H1431 H 0.72974 0.98138 0.59082 0.0
H1432 H 0.706 0.97571 0.55271 0.0
H1433 H 0.68091 0.93842 0.3956 0.0
H1434 H 0.69188 0.96705 0.41815 0.0
H1435 H 0.67588 0.94515 0.498 0.0
H1436 H 0.6651 0.91628 0.4756 0.0
H1437 H 0.70852 0.9699 0.50058 0.0
H1438 H 0.64195 0.96668 0.46212 0.0
H1439 H 0.61809 0.96122 0.42402 0.0
H1440 H 0.64557 0.00355 0.37562 0.0
H1441 H 0.66977 0.00905 0.41334 0.0
C1442 C 0.66813 0.04041 0.56084 0.0
C1443 C 0.66527 0.05784 0.54863 0.0
C1444 C 0.67554 0.02567 0.54529 0.0
C1445 C 0.68047 0.02809 0.51728 0.0
C1446 C 0.67855 0.04574 0.5054 0.0
C1447 C 0.67104 0.06052 0.52098 0.0
C1448 C 0.68474 0.01162 0.49975 0.0
C1449 C 0.67251 0.00836 0.47661 0.0
C1450 C 0.69839 -0.00214 0.50801 0.0
C1451 C 0.7127 0.00114 0.53103 0.0
C1452 C 0.72433 0.01725 0.53157 0.0
C1453 C 0.73768 0.02038 0.55335 0.0
C1454 C 0.73963 0.00746 0.57469 0.0
C1455 C 0.72823 -0.00863 0.57427 0.0
C1456 C 0.71484 0.98817 0.55254 0.0
C1457 C 0.68025 0.93948 0.41806 0.0
C1458 C 0.67175 0.92531 0.43384 0.0
C1459 C 0.6866 0.95582 0.43089 0.0
C1460 C 0.68432 0.95831 0.45962 0.0
C1461 C 0.67772 0.94347 0.47577 0.0
C1462 C 0.67148 0.92702 0.46294 0.0
C1463 C 0.68535 0.9771 0.47197 0.0
C1464 C 0.69839 0.98066 0.49409 0.0
C1465 C 0.67247 -0.00876 0.46285 0.0
C1466 C 0.65778 0.98811 0.44036 0.0
C1467 C 0.64296 0.97473 0.44327 0.0
C1468 C 0.62938 0.97164 0.42176 0.0
C1469 C 0.63035 0.98199 0.39738 0.0
C1470 C 0.64486 -0.00449 0.3945 0.0
C1471 C 0.65852 -0.00138 0.41592 0.0
H1472 H 0.61982 0.97958 0.38075 0.0
H1473 H 0.74997 0.00991 0.59154 0.0
H1474 H 0.29236 0.39027 0.64987 0.0
H1475 H 0.26318 0.39069 0.67859 0.0
H1476 H 0.29852 0.3782 0.751 0.0
H1477 H 0.32796 0.37732 0.72214 0.0
H1478 H 0.26631 0.35719 0.74901 0.0
H1479 H 0.28018 0.42183 0.74047 0.0
H1480 H 0.28752 0.45086 0.71595 0.0
H1481 H 0.23253 0.44711 0.6719 0.0
H1482 H 0.22497 0.41792 0.6959 0.0
H1483 H 0.19579 0.38102 0.85007 0.0
H1484 H 0.22463 0.38123 0.82051 0.0
H1485 H 0.18748 0.38483 0.74764 0.0
H1486 H 0.15828 0.38446 0.77717 0.0
H1487 H 0.22013 0.41037 0.74968 0.0
H1488 H 0.20653 0.34551 0.75927 0.0
H1489 H 0.19941 0.31697 0.78513 0.0
H1490 H 0.25446 0.32186 0.82878 0.0
H1491 H 0.26178 0.35062 0.80348 0.0
C1492 C 0.29402 0.3877 0.67193 0.0
C1493 C 0.31253 0.3838 0.68374 0.0
C1494 C 0.2773 0.38803 0.68834 0.0
C1495 C 0.27872 0.38473 0.71697 0.0
C1496 C 0.29714 0.38084 0.72891 0.0
C1497 C 0.31393 0.38039 0.71243 0.0
C1498 C 0.26083 0.38483 0.73418 0.0
C1499 C 0.25638 0.36893 0.74949 0.0
C1500 C 0.24763 0.39999 0.73421 0.0
C1501 C 0.2521 0.41759 0.7198 0.0
C1502 C 0.26972 0.42712 0.7254 0.0
C1503 C 0.27391 0.44362 0.71162 0.0
C1504 C 0.26052 0.4508 0.69233 0.0
C1505 C 0.24289 0.44152 0.68683 0.0
C1506 C 0.23864 0.42501 0.70054 0.0
C1507 C 0.19368 0.38188 0.82776 0.0
C1508 C 0.17474 0.3827 0.81592 0.0
C1509 C 0.21019 0.38194 0.81093 0.0
C1510 C 0.2081 0.38292 0.78199 0.0
C1511 C 0.18929 0.38403 0.77 0.0
C1512 C 0.17268 0.38375 0.78686 0.0
C1513 C 0.22573 0.38279 0.76442 0.0
C1514 C 0.23011 0.39867 0.74911 0.0
C1515 C 0.23893 0.36768 0.76453 0.0
C1516 C 0.23462 0.35032 0.77967 0.0
C1517 C 0.21705 0.3406 0.77456 0.0
C1518 C 0.21298 0.32436 0.78908 0.0
C1519 C 0.22645 0.31763 0.80863 0.0
C1520 C 0.24403 0.3271 0.81365 0.0
C1521 C 0.24815 0.34336 0.7992 0.0
H1522 H 0.22328 0.30505 0.81986 0.0
H1523 H 0.26379 0.46357 0.68168 0.0
H1524 H 0.84188 0.05357 0.96522 0.0
H1525 H 0.82979 0.02498 0.98548 0.0
H1526 H 0.78652 0.02014 0.91952 0.0
H1527 H 0.79978 0.04808 0.89802 0.0
H1528 H 0.80006 0.01164 0.00658 0.0
H1529 H 0.77714 0.97537 0.90472 0.0
H1530 H 0.7837 0.97671 0.85435 0.0
H1531 H 0.84132 -0.0016 0.87126 0.0
H1532 H 0.83515 -0.00299 0.9217 0.0
H1533 H 0.78613 0.9232 0.05704 0.0
H1534 H 0.77614 0.94977 0.02887 0.0
H1535 H 0.82463 0.93931 0.97366 0.0
H1536 H 0.83343 0.91193 0.00033 0.0
H1537 H 0.79917 0.95585 0.94574 0.0
H1538 H 0.82781 0.96732 0.03729 0.0
H1539 H 0.82908 0.96548 0.0885 0.0
H1540 H 0.7733 -0.00705 0.09348 0.0
H1541 H 0.77162 -0.00525 0.04224 0.0
C1542 C 0.82964 0.0465 0.95526 0.0
C1543 C 0.82191 0.0528 0.92995 0.0
C1544 C 0.82266 0.03017 0.96687 0.0
C1545 C 0.80747 0.0201 0.95374 0.0
C1546 C 0.79864 0.02729 0.9296 0.0
C1547 C 0.80611 0.0433 0.91744 0.0
C1548 C 0.80216 0.00152 0.96445 0.0
C1549 C 0.79967 -0.00052 0.99319 0.0
C1550 C 0.80166 0.98555 0.9471 0.0
C1551 C 0.80557 0.98633 0.91689 0.0
C1552 C 0.79121 0.9804 0.89764 0.0
C1553 C 0.79486 0.98117 0.86911 0.0
C1554 C 0.81289 0.98771 0.85961 0.0
C1555 C 0.82734 -0.00659 0.87864 0.0
C1556 C 0.82377 -0.00736 0.90719 0.0
C1557 C 0.79409 0.92622 0.0382 0.0
C1558 C 0.81063 0.91576 0.03087 0.0
C1559 C 0.7885 0.94147 0.02226 0.0
C1560 C 0.80009 0.94702 -0.00022 0.0
C1561 C 0.81549 0.93546 0.991 0.0
C1562 C 0.82057 0.91979 0.00627 0.0
C1563 C 0.79832 0.96593 0.988 0.0
C1564 C 0.79912 0.96806 0.95904 0.0
C1565 C 0.79847 0.98194 0.00526 0.0
C1566 C 0.79947 0.98095 0.03601 0.0
C1567 C 0.81578 0.97288 0.04934 0.0
C1568 C 0.81658 0.97185 0.07834 0.0
C1569 C 0.80125 0.97904 0.09423 0.0
C1570 C 0.78513 0.98733 0.08114 0.0
C1571 C 0.78424 0.98836 0.05213 0.0
H1572 H 0.80189 0.97822 0.11669 0.0
H1573 H 0.81567 0.98832 0.83752 0.0
H1574 H 0.1649 0.60997 0.22361 0.0
H1575 H 0.19675 0.61031 0.24754 0.0
H1576 H 0.22516 0.59363 0.17157 0.0
H1577 H 0.19349 0.59296 0.14761 0.0
H1578 H 0.24023 0.57548 0.21515 0.0
H1579 H 0.22604 0.63787 0.19146 0.0
H1580 H 0.20603 0.6662 0.18871 0.0
H1581 H 0.2063 0.67067 0.27782 0.0
H1582 H 0.22595 0.64204 0.28113 0.0
H1583 H 0.33635 0.59976 0.2663 0.0
H1584 H 0.30669 0.60083 0.23683 0.0
H1585 H 0.27131 0.61014 0.30953 0.0
H1586 H 0.3006 0.60889 0.33895 0.0
H1587 H 0.26149 0.63311 0.26367 0.0
H1588 H 0.27375 0.56847 0.2857 0.0
H1589 H 0.2939 0.5401 0.28678 0.0
H1590 H 0.29829 0.54096 0.19777 0.0
H1591 H 0.27838 0.56951 0.19622 0.0
C1592 C 0.1779 0.60621 0.21207 0.0
C1593 C 0.17667 0.60159 0.18367 0.0
C1594 C 0.19608 0.6065 0.22572 0.0
C1595 C 0.21331 0.60227 0.21117 0.0
C1596 C 0.21204 0.597 0.18312 0.0
C1597 C 0.19391 0.59669 0.16947 0.0
C1598 C 0.23273 0.60377 0.225 0.0
C1599 C 0.245 0.58816 0.2254 0.0
C1600 C 0.23891 0.62032 0.23839 0.0
C1601 C 0.22732 0.6377 0.23655 0.0
C1602 C 0.22171 0.64481 0.21049 0.0
C1603 C 0.21044 0.66094 0.20883 0.0
C1604 C 0.20488 0.67024 0.23308 0.0
C1605 C 0.21061 0.66344 0.25905 0.0
C1606 C 0.22181 0.64724 0.26084 0.0
C1607 C 0.32225 0.6022 0.27589 0.0
C1608 C 0.32073 0.60407 0.3049 0.0
C1609 C 0.30538 0.60277 0.2591 0.0
C1610 C 0.28688 0.60548 0.27113 0.0
C1611 C 0.28547 0.60805 0.29992 0.0
C1612 C 0.30221 0.60722 0.31668 0.0
C1613 C 0.26874 0.60475 0.25416 0.0
C1614 C 0.25674 0.62051 0.25316 0.0
C1615 C 0.26291 0.58842 0.23995 0.0
C1616 C 0.2748 0.57124 0.24088 0.0
C1617 C 0.27917 0.5627 0.26639 0.0
C1618 C 0.29051 0.54657 0.26708 0.0
C1619 C 0.29743 0.53876 0.24237 0.0
C1620 C 0.29296 0.54704 0.2169 0.0
C1621 C 0.28165 0.56319 0.2161 0.0
H1622 H 0.3062 0.52627 0.24295 0.0
H1623 H 0.19615 0.68274 0.23175 0.0
H1624 H 0.31618 0.05652 0.56084 0.0
H1625 H 0.31309 0.02399 0.54809 0.0
H1626 H 0.32464 0.03717 0.46249 0.0
H1627 H 0.32801 0.07004 0.47507 0.0
H1628 H 0.29389 0.00878 0.47277 0.0
H1629 H 0.36127 0.02408 0.4953 0.0
H1630 H 0.38766 0.03761 0.52447 0.0
H1631 H 0.37203 0.00179 0.59162 0.0
H1632 H 0.34534 0.98824 0.56296 0.0
H1633 H 0.32873 0.92337 0.42224 0.0
H1634 H 0.32253 0.95532 0.43543 0.0
H1635 H 0.32513 0.94045 0.52215 0.0
H1636 H 0.33202 0.90824 0.50906 0.0
H1637 H 0.3469 0.96975 0.51289 0.0
H1638 H 0.28115 0.95247 0.48931 0.0
H1639 H 0.25468 0.93892 0.46036 0.0
H1640 H 0.26658 0.97804 0.39584 0.0
H1641 H 0.29331 -0.00833 0.42424 0.0
C1642 C 0.3178 0.05264 0.53918 0.0
C1643 C 0.32266 0.06584 0.519 0.0
C1644 C 0.31598 0.03402 0.53199 0.0
C1645 C 0.3189 0.02827 0.5045 0.0
C1646 C 0.32239 0.04147 0.48386 0.0
C1647 C 0.32434 0.06019 0.49108 0.0
C1648 C 0.32008 0.00833 0.49808 0.0
C1649 C 0.30555 0.00021 0.48122 0.0
C1650 C 0.33505 -0.00276 0.50987 0.0
C1651 C 0.35116 0.0053 0.52709 0.0
C1652 C 0.36334 0.01921 0.51638 0.0
C1653 C 0.37838 0.02686 0.53279 0.0
C1654 C 0.38147 0.02061 0.55991 0.0
C1655 C 0.36959 0.00665 0.57062 0.0
C1656 C 0.35451 -0.00103 0.5543 0.0
C1657 C 0.32779 0.92677 0.44417 0.0
C1658 C 0.33092 0.91324 0.46465 0.0
C1659 C 0.32409 0.94508 0.45165 0.0
C1660 C 0.32307 0.95023 0.47975 0.0
C1661 C 0.32578 0.93672 0.50032 0.0
C1662 C 0.32968 0.91834 0.49283 0.0
C1663 C 0.32068 0.96997 0.48743 0.0
C1664 C 0.33507 0.97817 0.50456 0.0
C1665 C 0.30554 0.98107 0.47591 0.0
C1666 C 0.28934 0.97301 0.45885 0.0
C1667 C 0.27822 0.95811 0.46887 0.0
C1668 C 0.26315 0.95042 0.45257 0.0
C1669 C 0.25898 0.95759 0.42626 0.0
C1670 C 0.26983 0.97249 0.41622 0.0
C1671 C 0.28492 0.98022 0.43243 0.0
H1672 H 0.24731 0.95161 0.41367 0.0
H1673 H 0.39311 0.02656 0.57259 0.0
H1674 H 0.77912 0.57416 0.14691 0.0
H1675 H 0.75265 0.57213 0.18049 0.0
H1676 H 0.7922 0.58985 0.246 0.0
H1677 H 0.81899 0.59182 0.21238 0.0
H1678 H 0.76284 0.5628 0.26246 0.0
H1679 H 0.76811 0.62193 0.21683 0.0
H1680 H 0.77108 0.6422 0.17603 0.0
H1681 H 0.71642 0.62137 0.14343 0.0
H1682 H 0.71328 0.60077 0.18388 0.0
H1683 H 0.69165 0.60056 0.35308 0.0
H1684 H 0.7201 0.59563 0.32357 0.0
H1685 H 0.68182 0.58762 0.25245 0.0
H1686 H 0.65323 0.59312 0.28177 0.0
H1687 H 0.7113 0.60904 0.23955 0.0
H1688 H 0.70502 0.55079 0.2862 0.0
H1689 H 0.70198 0.53046 0.32692 0.0
H1690 H 0.75802 0.54911 0.35765 0.0
H1691 H 0.76127 0.56976 0.3173 0.0
C1692 C 0.78234 0.57721 0.16857 0.0
C1693 C 0.80102 0.58347 0.17699 0.0
C1694 C 0.76721 0.57601 0.18771 0.0
C1695 C 0.77046 0.58117 0.21552 0.0
C1696 C 0.78947 0.58586 0.22454 0.0
C1697 C 0.80472 0.58701 0.20534 0.0
C1698 C 0.75352 0.58398 0.23398 0.0
C1699 C 0.75164 0.57302 0.25772 0.0
C1700 C 0.73884 0.59713 0.22739 0.0
C1701 C 0.74056 0.60969 0.20324 0.0
C1702 C 0.7568 0.62158 0.20086 0.0
C1703 C 0.75851 0.63314 0.17782 0.0
C1704 C 0.74397 0.63304 0.15711 0.0
C1705 C 0.72768 0.62142 0.15946 0.0
C1706 C 0.72592 0.60981 0.18246 0.0
C1707 C 0.68926 0.59776 0.33115 0.0
C1708 C 0.67019 0.59718 0.31974 0.0
C1709 C 0.70555 0.59482 0.31435 0.0
C1710 C 0.70306 0.59089 0.28593 0.0
C1711 C 0.68405 0.59054 0.27439 0.0
C1712 C 0.66774 0.59371 0.29114 0.0
C1713 C 0.72033 0.5877 0.26806 0.0
C1714 C 0.72238 0.59872 0.24438 0.0
C1715 C 0.73508 0.57457 0.27477 0.0
C1716 C 0.7333 0.56195 0.29884 0.0
C1717 C 0.71664 0.55064 0.30172 0.0
C1718 C 0.71488 0.53905 0.32473 0.0
C1719 C 0.72977 0.53853 0.3449 0.0
C1720 C 0.74648 0.54954 0.34203 0.0
C1721 C 0.7483 0.56118 0.31908 0.0
H1722 H 0.72837 0.52956 0.36271 0.0
H1723 H 0.74532 0.642 0.13928 0.0
H1724 H 0.17687 0.93872 0.09618 0.0
H1725 H 0.1855 0.96805 0.07468 0.0
H1726 H 0.16737 0.94657 0.99456 0.0
H1727 H 0.15877 0.91697 0.01596 0.0
H1728 H 0.19982 0.97407 0.99409 0.0
H1729 H 0.13357 0.96475 0.02861 0.0
H1730 H 0.10993 0.95578 0.06463 0.0
H1731 H 0.1334 -0.0025 0.1197 0.0
H1732 H 0.15742 0.00649 0.08411 0.0
H1733 H 0.15955 0.05086 0.92428 0.0
H1734 H 0.16834 0.02157 0.94567 0.0
H1735 H 0.171 0.04835 0.0262 0.0
H1736 H 0.1614 0.07773 0.00494 0.0
H1737 H 0.15028 0.01875 0.02914 0.0
H1738 H 0.21319 0.03172 0.9915 0.0
H1739 H 0.23696 0.04056 0.9556 0.0
H1740 H 0.22074 -0.00713 0.9067 0.0
H1741 H 0.19666 0.98387 0.94212 0.0
C1742 C 0.1753 0.94001 0.07384 0.0
C1743 C 0.16673 0.92576 0.05778 0.0
C1744 C 0.18034 0.95674 0.0616 0.0
C1745 C 0.17672 0.95949 0.0332 0.0
C1746 C 0.17024 0.94462 0.01655 0.0
C1747 C 0.16526 0.92777 0.0288 0.0
C1748 C 0.17597 0.97852 0.02234 0.0
C1749 C 0.189 0.9839 0.00155 0.0
C1750 C 0.16206 -0.00868 0.03264 0.0
C1751 C 0.14741 0.98614 0.05385 0.0
C1752 C 0.13378 0.97191 0.04848 0.0
C1753 C 0.1203 0.96683 0.0688 0.0
C1754 C 0.1202 0.97603 0.09447 0.0
C1755 C 0.13353 0.99036 0.09983 0.0
C1756 C 0.14707 -0.00454 0.0796 0.0
C1757 C 0.1622 0.0506 0.94653 0.0
C1758 C 0.15968 0.06659 0.96297 0.0
C1759 C 0.16743 0.03384 0.9587 0.0
C1760 C 0.17067 0.0328 0.98749 0.0
C1761 C 0.16864 0.04886 0.00391 0.0
C1762 C 0.16312 0.06562 0.99177 0.0
C1763 C 0.17418 0.0146 0.00064 0.0
C1764 C 0.16146 0.00922 0.02186 0.0
C1765 C 0.18843 0.00191 0.9907 0.0
C1766 C 0.20302 0.00719 0.96942 0.0
C1767 C 0.21459 0.02318 0.97301 0.0
C1768 C 0.22814 0.02821 0.95276 0.0
C1769 C 0.23033 0.0173 0.92887 0.0
C1770 C 0.21902 0.00131 0.92522 0.0
C1771 C 0.20545 -0.00378 0.9454 0.0
H1772 H 0.24082 0.02122 0.9132 0.0
H1773 H 0.10976 0.97208 0.11018 0.0
H1774 H 0.65984 0.37632 0.7272 0.0
H1775 H 0.69056 0.37486 0.75406 0.0
H1776 H 0.72366 0.37945 0.67842 0.0
H1777 H 0.69325 0.38099 0.65149 0.0
H1778 H 0.73624 0.35069 0.71213 0.0
H1779 H 0.72117 0.41561 0.71968 0.0
H1780 H 0.70045 0.44266 0.7306 0.0
H1781 H 0.69716 0.42554 0.81576 0.0
H1782 H 0.71763 0.39823 0.80524 0.0
H1783 H 0.83093 0.36486 0.77298 0.0
H1784 H 0.8007 0.36753 0.74531 0.0
H1785 H 0.76683 0.37036 0.82063 0.0
H1786 H 0.79685 0.36824 0.84826 0.0
H1787 H 0.75469 0.39574 0.78625 0.0
H1788 H 0.76877 0.33066 0.77945 0.0
H1789 H 0.78887 0.30308 0.76924 0.0
H1790 H 0.79326 0.31955 0.6839 0.0
H1791 H 0.77339 0.34738 0.6937 0.0
C1792 C 0.67366 0.37714 0.71633 0.0
C1793 C 0.67409 0.37877 0.68722 0.0
C1794 C 0.69117 0.37634 0.73168 0.0
C1795 C 0.70932 0.37708 0.71815 0.0
C1796 C 0.70978 0.37883 0.68919 0.0
C1797 C 0.69235 0.37978 0.67388 0.0
C1798 C 0.72792 0.37556 0.73402 0.0
C1799 C 0.74044 0.36064 0.72813 0.0
C1800 C 0.73306 0.38835 0.75524 0.0
C1801 C 0.72076 0.40477 0.7616 0.0
C1802 C 0.71588 0.41752 0.74068 0.0
C1803 C 0.70421 0.43292 0.74681 0.0
C1804 C 0.69745 0.43579 0.77384 0.0
C1805 C 0.70238 0.42329 0.79482 0.0
C1806 C 0.71403 0.40785 0.78879 0.0
C1807 C 0.81702 0.36595 0.78359 0.0
C1808 C 0.81628 0.36636 0.81278 0.0
C1809 C 0.79976 0.36743 0.76778 0.0
C1810 C 0.78149 0.36901 0.78093 0.0
C1811 C 0.78076 0.36924 0.81005 0.0
C1812 C 0.79795 0.36797 0.82581 0.0
C1813 C 0.76306 0.37076 0.76454 0.0
C1814 C 0.75055 0.38574 0.77028 0.0
C1815 C 0.75784 0.35794 0.74333 0.0
C1816 C 0.76977 0.3412 0.73738 0.0
C1817 C 0.77415 0.32848 0.75856 0.0
C1818 C 0.78548 0.31279 0.75284 0.0
C1819 C 0.79238 0.30959 0.72596 0.0
C1820 C 0.78793 0.32206 0.70473 0.0
C1821 C 0.77662 0.33778 0.71034 0.0
H1822 H 0.80115 0.29743 0.72157 0.0
H1823 H 0.68842 0.44773 0.77854 0.0
loop_
_geom_bond_atom_site_label_1
_geom_bond_atom_site_label_2
_geom_bond_distance
_geom_bond_site_symmetry_2
_ccdc_geom_bond_type
C0 O1 1.306 . S
C0 O3 1.160 . S
O1 C0 1.306 . S
O1 Cd2 2.228 . S
Cd2 O1 2.228 . S
Cd2 O6 2.273 . S
Cd2 O10 2.277 . S
O3 C0 1.160 . S
O3 Cd4 2.203 . S
Cd4 O3 2.203 . S
Cd4 O6 2.411 . S
Cd4 O7 2.333 . S
Cd4 O8 2.352 . S
Cd4 O12 2.277 . S
Cd4 O13 2.356 . S
C5 O10 1.209 . S
C5 O12 1.226 . S
O6 Cd2 2.273 . S
O6 Cd4 2.411 . S
O6 C9 1.320 . S
O7 Cd4 2.333 . S
O7 C9 1.214 . S
O8 Cd4 2.352 . S
O8 C11 1.258 . S
C9 O6 1.320 . S
C9 O7 1.214 . S
O10 Cd2 2.277 . S
O10 C5 1.209 . S
C11 O8 1.258 . S
C11 O13 1.282 . S
O12 Cd4 2.277 . S
O12 C5 1.226 . S
O13 Cd4 2.356 . S
O13 C11 1.282 . S
C14 O15 1.306 . S
C14 O17 1.160 . S
O15 C14 1.306 . S
O15 Cd16 2.228 . S
Cd16 O15 2.228 . S
Cd16 O20 2.273 . S
Cd16 O24 2.277 . S
O17 C14 1.160 . S
O17 Cd18 2.203 . S
Cd18 O17 2.203 . S
Cd18 O20 2.411 . S
Cd18 O21 2.333 . S
Cd18 O22 2.352 . S
Cd18 O26 2.277 . S
Cd18 O27 2.356 . S
C19 O24 1.209 . S
C19 O26 1.226 . S
O20 Cd16 2.273 . S
O20 Cd18 2.411 . S
O20 C23 1.320 . S
O21 Cd18 2.333 . S
O21 C23 1.214 . S
O22 Cd18 2.352 . S
O22 C25 1.258 . S
C23 O20 1.320 . S
C23 O21 1.214 . S
O24 Cd16 2.277 . S
O24 C19 1.209 . S
C25 O22 1.258 . S
C25 O27 1.282 . S
O26 Cd18 2.277 . S
O26 C19 1.226 . S
O27 Cd18 2.356 . S
O27 C25 1.282 . S
C28 O29 1.306 . S
C28 O31 1.160 . S
O29 C28 1.306 . S
O29 Cd30 2.228 . S
Cd30 O29 2.228 . S
Cd30 O34 2.273 . S
Cd30 O38 2.277 . S
O31 C28 1.160 . S
O31 Cd32 2.203 . S
Cd32 O31 2.203 . S
Cd32 O34 2.411 . S
Cd32 O35 2.333 . S
Cd32 O36 2.352 . S
Cd32 O40 2.277 . S
Cd32 O41 2.356 . S
C33 O38 1.209 . S
C33 O40 1.226 . S
O34 Cd30 2.273 . S
O34 Cd32 2.411 . S
O34 C37 1.320 . S
O35 Cd32 2.333 . S
O35 C37 1.214 . S
O36 Cd32 2.352 . S
O36 C39 1.258 . S
C37 O34 1.320 . S
C37 O35 1.214 . S
O38 Cd30 2.277 . S
O38 C33 1.209 . S
C39 O36 1.258 . S
C39 O41 1.282 . S
O40 Cd32 2.277 . S
O40 C33 1.226 . S
O41 Cd32 2.356 . S
O41 C39 1.282 . S
C42 O43 1.306 . S
C42 O45 1.160 . S
O43 C42 1.306 . S
O43 Cd44 2.228 . S
Cd44 O43 2.228 . S
Cd44 O48 2.273 . S
Cd44 O52 2.277 . S
O45 C42 1.160 . S
O45 Cd46 2.203 . S
Cd46 O45 2.203 . S
Cd46 O48 2.411 . S
Cd46 O49 2.333 . S
Cd46 O50 2.352 . S
Cd46 O54 2.277 . S
Cd46 O55 2.356 . S
C47 O52 1.209 . S
C47 O54 1.226 . S
O48 Cd44 2.273 . S
O48 Cd46 2.411 . S
O48 C51 1.320 . S
O49 Cd46 2.333 . S
O49 C51 1.214 . S
O50 Cd46 2.352 . S
O50 C53 1.258 . S
C51 O48 1.320 . S
C51 O49 1.214 . S
O52 Cd44 2.277 . S
O52 C47 1.209 . S
C53 O50 1.258 . S
C53 O55 1.282 . S
O54 Cd46 2.277 . S
O54 C47 1.226 . S
O55 Cd46 2.356 . S
O55 C53 1.282 . S
C56 O57 1.306 . S
C56 O59 1.160 . S
O57 C56 1.306 . S
O57 Cd58 2.228 . S
Cd58 O57 2.228 . S
Cd58 O62 2.273 . S
Cd58 O66 2.277 . S
O59 C56 1.160 . S
O59 Cd60 2.203 . S
Cd60 O59 2.203 . S
Cd60 O62 2.411 . S
Cd60 O63 2.333 . S
Cd60 O64 2.352 . S
Cd60 O68 2.277 . S
Cd60 O69 2.356 . S
C61 O66 1.209 . S
C61 O68 1.226 . S
O62 Cd58 2.273 . S
O62 Cd60 2.411 . S
O62 C65 1.320 . S
O63 Cd60 2.333 . S
O63 C65 1.214 . S
O64 Cd60 2.352 . S
O64 C67 1.258 . S
C65 O62 1.320 . S
C65 O63 1.214 . S
O66 Cd58 2.277 . S
O66 C61 1.209 . S
C67 O64 1.258 . S
C67 O69 1.282 . S
O68 Cd60 2.277 . S
O68 C61 1.226 . S
O69 Cd60 2.356 . S
O69 C67 1.282 . S
C70 O71 1.306 . S
C70 O73 1.160 . S
O71 C70 1.306 . S
O71 Cd72 2.228 . S
Cd72 O71 2.228 . S
Cd72 O76 2.273 . S
Cd72 O80 2.277 . S
O73 C70 1.160 . S
O73 Cd74 2.203 . S
Cd74 O73 2.203 . S
Cd74 O76 2.411 . S
Cd74 O77 2.333 . S
Cd74 O78 2.352 . S
Cd74 O82 2.277 . S
Cd74 O83 2.356 . S
C75 O80 1.209 . S
C75 O82 1.226 . S
O76 Cd72 2.273 . S
O76 Cd74 2.411 . S
O76 C79 1.320 . S
O77 Cd74 2.333 . S
O77 C79 1.214 . S
O78 Cd74 2.352 . S
O78 C81 1.258 . S
C79 O76 1.320 . S
C79 O77 1.214 . S
O80 Cd72 2.277 . S
O80 C75 1.209 . S
C81 O78 1.258 . S
C81 O83 1.282 . S
O82 Cd74 2.277 . S
O82 C75 1.226 . S
O83 Cd74 2.356 . S
O83 C81 1.282 . S
C84 O85 1.306 . S
C84 O87 1.160 . S
O85 C84 1.306 . S
O85 Cd86 2.228 . S
Cd86 O85 2.228 . S
Cd86 O90 2.273 . S
Cd86 O94 2.277 . S
O87 C84 1.160 . S
O87 Cd88 2.203 . S
Cd88 O87 2.203 . S
Cd88 O90 2.411 . S
Cd88 O91 2.333 . S
Cd88 O92 2.352 . S
Cd88 O96 2.277 . S
Cd88 O97 2.356 . S
C89 O94 1.209 . S
C89 O96 1.226 . S
O90 Cd86 2.273 . S
O90 Cd88 2.411 . S
O90 C93 1.320 . S
O91 Cd88 2.333 . S
O91 C93 1.214 . S
O92 Cd88 2.352 . S
O92 C95 1.258 . S
C93 O90 1.320 . S
C93 O91 1.214 . S
O94 Cd86 2.277 . S
O94 C89 1.209 . S
C95 O92 1.258 . S
C95 O97 1.282 . S
O96 Cd88 2.277 . S
O96 C89 1.226 . S
O97 Cd88 2.356 . S
O97 C95 1.282 . S
C98 O99 1.306 . S
C98 O101 1.160 . S
O99 C98 1.306 . S
O99 Cd100 2.228 . S
Cd100 O99 2.228 . S
Cd100 O104 2.273 . S
Cd100 O108 2.277 . S
O101 C98 1.160 . S
O101 Cd102 2.203 . S
Cd102 O101 2.203 . S
Cd102 O104 2.411 . S
Cd102 O105 2.333 . S
Cd102 O106 2.352 . S
Cd102 O110 2.277 . S
Cd102 O111 2.356 . S
C103 O108 1.209 . S
C103 O110 1.226 . S
O104 Cd100 2.273 . S
O104 Cd102 2.411 . S
O104 C107 1.320 . S
O105 Cd102 2.333 . S
O105 C107 1.214 . S
O106 Cd102 2.352 . S
O106 C109 1.258 . S
C107 O104 1.320 . S
C107 O105 1.214 . S
O108 Cd100 2.277 . S
O108 C103 1.209 . S
C109 O106 1.258 . S
C109 O111 1.282 . S
O110 Cd102 2.277 . S
O110 C103 1.226 . S
O111 Cd102 2.356 . S
O111 C109 1.282 . S
C112 O113 1.306 . S
C112 O115 1.160 . S
O113 C112 1.306 . S
O113 Cd114 2.228 . S
Cd114 O113 2.228 . S
Cd114 O118 2.273 . S
Cd114 O122 2.277 . S
O115 C112 1.160 . S
O115 Cd116 2.203 . S
Cd116 O115 2.203 . S
Cd116 O118 2.411 . S
Cd116 O119 2.333 . S
Cd116 O120 2.352 . S
Cd116 O124 2.277 . S
Cd116 O125 2.356 . S
C117 O122 1.209 . S
C117 O124 1.226 . S
O118 Cd114 2.273 . S
O118 Cd116 2.411 . S
O118 C121 1.320 . S
O119 Cd116 2.333 . S
O119 C121 1.214 . S
O120 Cd116 2.352 . S
O120 C123 1.258 . S
C121 O118 1.320 . S
C121 O119 1.214 . S
O122 Cd114 2.277 . S
O122 C117 1.209 . S
C123 O120 1.258 . S
C123 O125 1.282 . S
O124 Cd116 2.277 . S
O124 C117 1.226 . S
O125 Cd116 2.356 . S
O125 C123 1.282 . S
C126 O127 1.306 . S
C126 O129 1.160 . S
O127 C126 1.306 . S
O127 Cd128 2.228 . S
Cd128 O127 2.228 . S
Cd128 O132 2.273 . S
Cd128 O136 2.277 . S
O129 C126 1.160 . S
O129 Cd130 2.203 . S
Cd130 O129 2.203 . S
Cd130 O132 2.411 . S
Cd130 O133 2.333 . S
Cd130 O134 2.352 . S
Cd130 O138 2.277 . S
Cd130 O139 2.356 . S
C131 O136 1.209 . S
C131 O138 1.226 . S
O132 Cd128 2.273 . S
O132 Cd130 2.411 . S
O132 C135 1.320 . S
O133 Cd130 2.333 . S
O133 C135 1.214 . S
O134 Cd130 2.352 . S
O134 C137 1.258 . S
C135 O132 1.320 . S
C135 O133 1.214 . S
O136 Cd128 2.277 . S
O136 C131 1.209 . S
C137 O134 1.258 . S
C137 O139 1.282 . S
O138 Cd130 2.277 . S
O138 C131 1.226 . S
O139 Cd130 2.356 . S
O139 C137 1.282 . S
C140 O141 1.306 . S
C140 O143 1.160 . S
O141 C140 1.306 . S
O141 Cd142 2.228 . S
Cd142 O141 2.228 . S
Cd142 O146 2.273 . S
Cd142 O150 2.277 . S
O143 C140 1.160 . S
O143 Cd144 2.203 . S
Cd144 O143 2.203 . S
Cd144 O146 2.411 . S
Cd144 O147 2.333 . S
Cd144 O148 2.352 . S
Cd144 O152 2.277 . S
Cd144 O153 2.356 . S
C145 O150 1.209 . S
C145 O152 1.226 . S
O146 Cd142 2.273 . S
O146 Cd144 2.411 . S
O146 C149 1.320 . S
O147 Cd144 2.333 . S
O147 C149 1.214 . S
O148 Cd144 2.352 . S
O148 C151 1.258 . S
C149 O146 1.320 . S
C149 O147 1.214 . S
O150 Cd142 2.277 . S
O150 C145 1.209 . S
C151 O148 1.258 . S
C151 O153 1.282 . S
O152 Cd144 2.277 . S
O152 C145 1.226 . S
O153 Cd144 2.356 . S
O153 C151 1.282 . S
C154 O155 1.306 . S
C154 O157 1.160 . S
O155 C154 1.306 . S
O155 Cd156 2.228 . S
Cd156 O155 2.228 . S
Cd156 O160 2.273 . S
Cd156 O164 2.277 . S
O157 C154 1.160 . S
O157 Cd158 2.203 . S
Cd158 O157 2.203 . S
Cd158 O160 2.411 . S
Cd158 O161 2.333 . S
Cd158 O162 2.352 . S
Cd158 O166 2.277 . S
Cd158 O167 2.356 . S
C159 O164 1.209 . S
C159 O166 1.226 . S
O160 Cd156 2.273 . S
O160 Cd158 2.411 . S
O160 C163 1.320 . S
O161 Cd158 2.333 . S
O161 C163 1.214 . S
O162 Cd158 2.352 . S
O162 C165 1.258 . S
C163 O160 1.320 . S
C163 O161 1.214 . S
O164 Cd156 2.277 . S
O164 C159 1.209 . S
C165 O162 1.258 . S
C165 O167 1.282 . S
O166 Cd158 2.277 . S
O166 C159 1.226 . S
O167 Cd158 2.356 . S
O167 C165 1.282 . S
C168 O169 1.306 . S
C168 O171 1.160 . S
O169 C168 1.306 . S
O169 Cd170 2.228 . S
Cd170 O169 2.228 . S
Cd170 O174 2.273 . S
Cd170 O178 2.277 . S
O171 C168 1.160 . S
O171 Cd172 2.203 . S
Cd172 O171 2.203 . S
Cd172 O174 2.411 . S
Cd172 O175 2.333 . S
Cd172 O176 2.352 . S
Cd172 O180 2.277 . S
Cd172 O181 2.356 . S
C173 O178 1.209 . S
C173 O180 1.226 . S
O174 Cd170 2.273 . S
O174 Cd172 2.411 . S
O174 C177 1.320 . S
O175 Cd172 2.333 . S
O175 C177 1.214 . S
O176 Cd172 2.352 . S
O176 C179 1.258 . S
C177 O174 1.320 . S
C177 O175 1.214 . S
O178 Cd170 2.277 . S
O178 C173 1.209 . S
C179 O176 1.258 . S
C179 O181 1.282 . S
O180 Cd172 2.277 . S
O180 C173 1.226 . S
O181 Cd172 2.356 . S
O181 C179 1.282 . S
C182 O183 1.306 . S
C182 O185 1.160 . S
O183 C182 1.306 . S
O183 Cd184 2.228 . S
Cd184 O183 2.228 . S
Cd184 O188 2.273 . S
Cd184 O192 2.277 . S
O185 C182 1.160 . S
O185 Cd186 2.203 . S
Cd186 O185 2.203 . S
Cd186 O188 2.411 . S
Cd186 O189 2.333 . S
Cd186 O190 2.352 . S
Cd186 O194 2.277 . S
Cd186 O195 2.356 . S
C187 O192 1.209 . S
C187 O194 1.226 . S
O188 Cd184 2.273 . S
O188 Cd186 2.411 . S
O188 C191 1.320 . S
O189 Cd186 2.333 . S
O189 C191 1.214 . S
O190 Cd186 2.352 . S
O190 C193 1.258 . S
C191 O188 1.320 . S
C191 O189 1.214 . S
O192 Cd184 2.277 . S
O192 C187 1.209 . S
C193 O190 1.258 . S
C193 O195 1.282 . S
O194 Cd186 2.277 . S
O194 C187 1.226 . S
O195 Cd186 2.356 . S
O195 C193 1.282 . S
C196 O197 1.306 . S
C196 O199 1.160 . S
O197 C196 1.306 . S
O197 Cd198 2.228 . S
Cd198 O197 2.228 . S
Cd198 O202 2.273 . S
Cd198 O206 2.277 . S
O199 C196 1.160 . S
O199 Cd200 2.203 . S
Cd200 O199 2.203 . S
Cd200 O202 2.411 . S
Cd200 O203 2.333 . S
Cd200 O204 2.352 . S
Cd200 O208 2.277 . S
Cd200 O209 2.356 . S
C201 O206 1.209 . S
C201 O208 1.226 . S
O202 Cd198 2.273 . S
O202 Cd200 2.411 . S
O202 C205 1.320 . S
O203 Cd200 2.333 . S
O203 C205 1.214 . S
O204 Cd200 2.352 . S
O204 C207 1.258 . S
C205 O202 1.320 . S
C205 O203 1.214 . S
O206 Cd198 2.277 . S
O206 C201 1.209 . S
C207 O204 1.258 . S
C207 O209 1.282 . S
O208 Cd200 2.277 . S
O208 C201 1.226 . S
O209 Cd200 2.356 . S
O209 C207 1.282 . S
C210 O211 1.306 . S
C210 O213 1.160 . S
O211 C210 1.306 . S
O211 Cd212 2.228 . S
Cd212 O211 2.228 . S
Cd212 O216 2.273 . S
Cd212 O220 2.277 . S
O213 C210 1.160 . S
O213 Cd214 2.203 . S
Cd214 O213 2.203 . S
Cd214 O216 2.411 . S
Cd214 O217 2.333 . S
Cd214 O218 2.352 . S
Cd214 O222 2.277 . S
Cd214 O223 2.356 . S
C215 O220 1.209 . S
C215 O222 1.226 . S
O216 Cd212 2.273 . S
O216 Cd214 2.411 . S
O216 C219 1.320 . S
O217 Cd214 2.333 . S
O217 C219 1.214 . S
O218 Cd214 2.352 . S
O218 C221 1.258 . S
C219 O216 1.320 . S
C219 O217 1.214 . S
O220 Cd212 2.277 . S
O220 C215 1.209 . S
C221 O218 1.258 . S
C221 O223 1.282 . S
O222 Cd214 2.277 . S
O222 C215 1.226 . S
O223 Cd214 2.356 . S
O223 C221 1.282 . S
H224 C242 0.951 . S
H225 C244 0.951 . S
H226 C246 0.950 . S
H227 C247 0.950 . S
H228 C249 0.950 . S
H229 C252 0.950 . S
H230 C253 0.950 . S
H231 C255 0.950 . S
H232 C256 0.950 . S
H233 C257 0.951 . S
H234 C259 0.951 . S
H235 C261 0.950 . S
H236 C262 0.950 . S
H237 C264 0.950 . S
H238 C267 0.950 . S
H239 C268 0.950 . S
H240 C270 0.950 . S
H241 C271 0.950 . S
C242 H224 0.951 . S
C242 C243 1.366 . S
C242 C244 1.388 . S
C243 C242 1.366 . S
C243 C247 1.385 . S
C244 H225 0.951 . S
C244 C242 1.388 . S
C244 C245 1.366 . S
C245 C244 1.366 . S
C245 C246 1.414 . S
C245 C248 1.499 . S
C246 H226 0.950 . S
C246 C245 1.414 . S
C246 C247 1.374 . S
C247 H227 0.950 . S
C247 C243 1.385 . S
C247 C246 1.374 . S
C248 C245 1.499 . S
C248 C249 1.373 . S
C248 C250 1.389 . S
C249 H228 0.950 . S
C249 C248 1.373 . S
C249 C265 1.377 . S
C250 C248 1.389 . S
C250 C251 1.524 . S
C250 C264 1.377 . S
C251 C250 1.524 . S
C251 C252 1.397 . S
C251 C256 1.363 . S
C252 H229 0.950 . S
C252 C251 1.397 . S
C252 C253 1.334 . S
C253 H230 0.950 . S
C253 C252 1.334 . S
C253 C254 1.287 . S
C254 C253 1.287 . S
C254 C255 1.524 . S
C254 H273 0.913 . S
C255 H231 0.950 . S
C255 C254 1.524 . S
C255 C256 1.415 . S
C256 H232 0.950 . S
C256 C251 1.363 . S
C256 C255 1.415 . S
C257 H233 0.951 . S
C257 C258 1.366 . S
C257 C259 1.388 . S
C258 C257 1.366 . S
C258 C262 1.385 . S
C259 H234 0.951 . S
C259 C257 1.388 . S
C259 C260 1.366 . S
C260 C259 1.366 . S
C260 C261 1.414 . S
C260 C263 1.499 . S
C261 H235 0.950 . S
C261 C260 1.414 . S
C261 C262 1.374 . S
C262 H236 0.950 . S
C262 C258 1.385 . S
C262 C261 1.374 . S
C263 C260 1.499 . S
C263 C264 1.373 . S
C263 C265 1.389 . S
C264 H237 0.950 . S
C264 C250 1.377 . S
C264 C263 1.373 . S
C265 C249 1.377 . S
C265 C263 1.389 . S
C265 C266 1.524 . S
C266 C265 1.524 . S
C266 C267 1.397 . S
C266 C271 1.363 . S
C267 H238 0.950 . S
C267 C266 1.397 . S
C267 C268 1.334 . S
C268 H239 0.950 . S
C268 C267 1.334 . S
C268 C269 1.287 . S
C269 C268 1.287 . S
C269 C270 1.524 . S
C269 H272 0.999 . S
C270 H240 0.950 . S
C270 C269 1.524 . S
C270 C271 1.415 . S
C271 H241 0.950 . S
C271 C266 1.363 . S
C271 C270 1.415 . S
H272 C269 0.999 . S
H273 C254 0.913 . S
H274 C292 0.951 . S
H275 C294 0.951 . S
H276 C296 0.950 . S
H277 C297 0.950 . S
H278 C299 0.950 . S
H279 C302 0.950 . S
H280 C303 0.950 . S
H281 C305 0.950 . S
H282 C306 0.950 . S
H283 C307 0.951 . S
H284 C309 0.951 . S
H285 C311 0.950 . S
H286 C312 0.950 . S
H287 C314 0.950 . S
H288 C317 0.950 . S
H289 C318 0.950 . S
H290 C320 0.950 . S
H291 C321 0.950 . S
C292 H274 0.951 . S
C292 C293 1.366 . S
C292 C294 1.388 . S
C293 C292 1.366 . S
C293 C297 1.385 . S
C294 H275 0.951 . S
C294 C292 1.388 . S
C294 C295 1.366 . S
C295 C294 1.366 . S
C295 C296 1.414 . S
C295 C298 1.499 . S
C296 H276 0.950 . S
C296 C295 1.414 . S
C296 C297 1.374 . S
C297 H277 0.950 . S
C297 C293 1.385 . S
C297 C296 1.374 . S
C298 C295 1.499 . S
C298 C299 1.373 . S
C298 C300 1.389 . S
C299 H278 0.950 . S
C299 C298 1.373 . S
C299 C315 1.377 . S
C300 C298 1.389 . S
C300 C301 1.524 . S
C300 C314 1.377 . S
C301 C300 1.524 . S
C301 C302 1.397 . S
C301 C306 1.363 . S
C302 H279 0.950 . S
C302 C301 1.397 . S
C302 C303 1.334 . S
C303 H280 0.950 . S
C303 C302 1.334 . S
C303 C304 1.287 . S
C304 C303 1.287 . S
C304 C305 1.524 . S
C304 H323 0.913 . S
C305 H281 0.950 . S
C305 C304 1.524 . S
C305 C306 1.415 . S
C306 H282 0.950 . S
C306 C301 1.363 . S
C306 C305 1.415 . S
C307 H283 0.951 . S
C307 C308 1.366 . S
C307 C309 1.388 . S
C308 C307 1.366 . S
C308 C312 1.385 . S
C309 H284 0.951 . S
C309 C307 1.388 . S
C309 C310 1.366 . S
C310 C309 1.366 . S
C310 C311 1.414 . S
C310 C313 1.499 . S
C311 H285 0.950 . S
C311 C310 1.414 . S
C311 C312 1.374 . S
C312 H286 0.950 . S
C312 C308 1.385 . S
C312 C311 1.374 . S
C313 C310 1.499 . S
C313 C314 1.373 . S
C313 C315 1.389 . S
C314 H287 0.950 . S
C314 C300 1.377 . S
C314 C313 1.373 . S
C315 C299 1.377 . S
C315 C313 1.389 . S
C315 C316 1.524 . S
C316 C315 1.524 . S
C316 C317 1.397 . S
C316 C321 1.363 . S
C317 H288 0.950 . S
C317 C316 1.397 . S
C317 C318 1.334 . S
C318 H289 0.950 . S
C318 C317 1.334 . S
C318 C319 1.287 . S
C319 C318 1.287 . S
C319 C320 1.524 . S
C319 H322 0.999 . S
C320 H290 0.950 . S
C320 C319 1.524 . S
C320 C321 1.415 . S
C321 H291 0.950 . S
C321 C316 1.363 . S
C321 C320 1.415 . S
H322 C319 0.999 . S
H323 C304 0.913 . S
H324 C342 0.951 . S
H325 C344 0.951 . S
H326 C346 0.950 . S
H327 C347 0.950 . S
H328 C349 0.950 . S
H329 C352 0.950 . S
H330 C353 0.950 . S
H331 C355 0.950 . S
H332 C356 0.950 . S
H333 C357 0.951 . S
H334 C359 0.951 . S
H335 C361 0.950 . S
H336 C362 0.950 . S
H337 C364 0.950 . S
H338 C367 0.950 . S
H339 C368 0.950 . S
H340 C370 0.950 . S
H341 C371 0.950 . S
C342 H324 0.951 . S
C342 C343 1.366 . S
C342 C344 1.388 . S
C343 C342 1.366 . S
C343 C347 1.385 . S
C344 H325 0.951 . S
C344 C342 1.388 . S
C344 C345 1.366 . S
C345 C344 1.366 . S
C345 C346 1.414 . S
C345 C348 1.499 . S
C346 H326 0.950 . S
C346 C345 1.414 . S
C346 C347 1.374 . S
C347 H327 0.950 . S
C347 C343 1.385 . S
C347 C346 1.374 . S
C348 C345 1.499 . S
C348 C349 1.373 . S
C348 C350 1.389 . S
C349 H328 0.950 . S
C349 C348 1.373 . S
C349 C365 1.377 . S
C350 C348 1.389 . S
C350 C351 1.524 . S
C350 C364 1.377 . S
C351 C350 1.524 . S
C351 C352 1.397 . S
C351 C356 1.363 . S
C352 H329 0.950 . S
C352 C351 1.397 . S
C352 C353 1.334 . S
C353 H330 0.950 . S
C353 C352 1.334 . S
C353 C354 1.287 . S
C354 C353 1.287 . S
C354 C355 1.524 . S
C354 H373 0.913 . S
C355 H331 0.950 . S
C355 C354 1.524 . S
C355 C356 1.415 . S
C356 H332 0.950 . S
C356 C351 1.363 . S
C356 C355 1.415 . S
C357 H333 0.951 . S
C357 C358 1.366 . S
C357 C359 1.388 . S
C358 C357 1.366 . S
C358 C362 1.385 . S
C359 H334 0.951 . S
C359 C357 1.388 . S
C359 C360 1.366 . S
C360 C359 1.366 . S
C360 C361 1.414 . S
C360 C363 1.499 . S
C361 H335 0.950 . S
C361 C360 1.414 . S
C361 C362 1.374 . S
C362 H336 0.950 . S
C362 C358 1.385 . S
C362 C361 1.374 . S
C363 C360 1.499 . S
C363 C364 1.373 . S
C363 C365 1.389 . S
C364 H337 0.950 . S
C364 C350 1.377 . S
C364 C363 1.373 . S
C365 C349 1.377 . S
C365 C363 1.389 . S
C365 C366 1.524 . S
C366 C365 1.524 . S
C366 C367 1.397 . S
C366 C371 1.363 . S
C367 H338 0.950 . S
C367 C366 1.397 . S
C367 C368 1.334 . S
C368 H339 0.950 . S
C368 C367 1.334 . S
C368 C369 1.287 . S
C369 C368 1.287 . S
C369 C370 1.524 . S
C369 H372 0.999 . S
C370 H340 0.950 . S
C370 C369 1.524 . S
C370 C371 1.415 . S
C371 H341 0.950 . S
C371 C366 1.363 . S
C371 C370 1.415 . S
H372 C369 0.999 . S
H373 C354 0.913 . S
H374 C392 0.951 . S
H375 C394 0.951 . S
H376 C396 0.950 . S
H377 C397 0.950 . S
H378 C399 0.950 . S
H379 C402 0.950 . S
H380 C403 0.950 . S
H381 C405 0.950 . S
H382 C406 0.950 . S
H383 C407 0.951 . S
H384 C409 0.951 . S
H385 C411 0.950 . S
H386 C412 0.950 . S
H387 C414 0.950 . S
H388 C417 0.950 . S
H389 C418 0.950 . S
H390 C420 0.950 . S
H391 C421 0.950 . S
C392 H374 0.951 . S
C392 C393 1.366 . S
C392 C394 1.388 . S
C393 C392 1.366 . S
C393 C397 1.385 . S
C394 H375 0.951 . S
C394 C392 1.388 . S
C394 C395 1.366 . S
C395 C394 1.366 . S
C395 C396 1.414 . S
C395 C398 1.499 . S
C396 H376 0.950 . S
C396 C395 1.414 . S
C396 C397 1.374 . S
C397 H377 0.950 . S
C397 C393 1.385 . S
C397 C396 1.374 . S
C398 C395 1.499 . S
C398 C399 1.373 . S
C398 C400 1.389 . S
C399 H378 0.950 . S
C399 C398 1.373 . S
C399 C415 1.377 1_455 S
C400 C398 1.389 . S
C400 C401 1.524 . S
C400 C414 1.377 1_455 S
C401 C400 1.524 . S
C401 C402 1.397 . S
C401 C406 1.363 . S
C402 H379 0.950 . S
C402 C401 1.397 . S
C402 C403 1.334 . S
C403 H380 0.950 . S
C403 C402 1.334 . S
C403 C404 1.287 . S
C404 C403 1.287 . S
C404 C405 1.524 . S
C404 H423 0.913 . S
C405 H381 0.950 . S
C405 C404 1.524 . S
C405 C406 1.415 . S
C406 H382 0.950 . S
C406 C401 1.363 . S
C406 C405 1.415 . S
C407 H383 0.951 . S
C407 C408 1.366 . S
C407 C409 1.388 . S
C408 C407 1.366 . S
C408 C412 1.385 . S
C409 H384 0.951 . S
C409 C407 1.388 . S
C409 C410 1.366 . S
C410 C409 1.366 . S
C410 C411 1.414 . S
C410 C413 1.499 . S
C411 H385 0.950 . S
C411 C410 1.414 . S
C411 C412 1.374 . S
C412 H386 0.950 . S
C412 C408 1.385 . S
C412 C411 1.374 . S
C413 C410 1.499 . S
C413 C414 1.373 . S
C413 C415 1.389 . S
C414 H387 0.950 . S
C414 C400 1.377 1_655 S
C414 C413 1.373 . S
C415 C399 1.377 1_655 S
C415 C413 1.389 . S
C415 C416 1.524 . S
C416 C415 1.524 . S
C416 C417 1.397 . S
C416 C421 1.363 . S
C417 H388 0.950 . S
C417 C416 1.397 . S
C417 C418 1.334 . S
C418 H389 0.950 . S
C418 C417 1.334 . S
C418 C419 1.287 . S
C419 C418 1.287 . S
C419 C420 1.524 . S
C419 H422 0.999 . S
C420 H390 0.950 . S
C420 C419 1.524 . S
C420 C421 1.415 . S
C421 H391 0.950 . S
C421 C416 1.363 . S
C421 C420 1.415 . S
H422 C419 0.999 . S
H423 C404 0.913 . S
H424 C442 0.951 . S
H425 C444 0.951 . S
H426 C446 0.950 . S
H427 C447 0.950 . S
H428 C449 0.950 . S
H429 C452 0.950 . S
H430 C453 0.950 . S
H431 C455 0.950 . S
H432 C456 0.950 . S
H433 C457 0.951 . S
H434 C459 0.951 . S
H435 C461 0.950 . S
H436 C462 0.950 . S
H437 C464 0.950 . S
H438 C467 0.950 . S
H439 C468 0.950 . S
H440 C470 0.950 1_554 S
H441 C471 0.950 . S
C442 H424 0.951 . S
C442 C443 1.366 . S
C442 C444 1.388 . S
C443 C442 1.366 . S
C443 C447 1.385 . S
C444 H425 0.951 . S
C444 C442 1.388 . S
C444 C445 1.366 . S
C445 C444 1.366 . S
C445 C446 1.414 . S
C445 C448 1.499 . S
C446 H426 0.950 . S
C446 C445 1.414 . S
C446 C447 1.374 . S
C447 H427 0.950 . S
C447 C443 1.385 . S
C447 C446 1.374 . S
C448 C445 1.499 . S
C448 C449 1.373 . S
C448 C450 1.389 . S
C449 H428 0.950 . S
C449 C448 1.373 . S
C449 C465 1.377 . S
C450 C448 1.389 . S
C450 C451 1.524 . S
C450 C464 1.377 . S
C451 C450 1.524 . S
C451 C452 1.397 . S
C451 C456 1.363 . S
C452 H429 0.950 . S
C452 C451 1.397 . S
C452 C453 1.334 . S
C453 H430 0.950 . S
C453 C452 1.334 . S
C453 C454 1.287 . S
C454 C453 1.287 . S
C454 C455 1.524 . S
C454 H473 0.913 . S
C455 H431 0.950 . S
C455 C454 1.524 . S
C455 C456 1.415 . S
C456 H432 0.950 . S
C456 C451 1.363 . S
C456 C455 1.415 . S
C457 H433 0.951 . S
C457 C458 1.366 . S
C457 C459 1.388 . S
C458 C457 1.366 . S
C458 C462 1.385 . S
C459 H434 0.951 . S
C459 C457 1.388 . S
C459 C460 1.366 . S
C460 C459 1.366 . S
C460 C461 1.414 . S
C460 C463 1.499 . S
C461 H435 0.950 . S
C461 C460 1.414 . S
C461 C462 1.374 . S
C462 H436 0.950 . S
C462 C458 1.385 . S
C462 C461 1.374 . S
C463 C460 1.499 . S
C463 C464 1.373 . S
C463 C465 1.389 . S
C464 H437 0.950 . S
C464 C450 1.377 . S
C464 C463 1.373 . S
C465 C449 1.377 . S
C465 C463 1.389 . S
C465 C466 1.524 . S
C466 C465 1.524 . S
C466 C467 1.397 . S
C466 C471 1.363 . S
C467 H438 0.950 . S
C467 C466 1.397 . S
C467 C468 1.334 . S
C468 H439 0.950 . S
C468 C467 1.334 . S
C468 C469 1.287 . S
C469 C468 1.287 . S
C469 C470 1.524 . S
C469 H472 0.999 1_556 S
C470 H440 0.950 1_556 S
C470 C469 1.524 . S
C470 C471 1.415 . S
C471 H441 0.950 . S
C471 C466 1.363 . S
C471 C470 1.415 . S
H472 C469 0.999 1_554 S
H473 C454 0.913 . S
H474 C492 0.951 . S
H475 C494 0.951 . S
H476 C496 0.950 . S
H477 C497 0.950 . S
H478 C499 0.950 . S
H479 C502 0.950 . S
H480 C503 0.950 . S
H481 C505 0.950 . S
H482 C506 0.950 . S
H483 C507 0.951 . S
H484 C509 0.951 . S
H485 C511 0.950 . S
H486 C512 0.950 . S
H487 C514 0.950 . S
H488 C517 0.950 . S
H489 C518 0.950 . S
H490 C520 0.950 . S
H491 C521 0.950 . S
C492 H474 0.951 . S
C492 C493 1.366 . S
C492 C494 1.388 . S
C493 C492 1.366 . S
C493 C497 1.385 . S
C494 H475 0.951 . S
C494 C492 1.388 . S
C494 C495 1.366 . S
C495 C494 1.366 . S
C495 C496 1.414 . S
C495 C498 1.499 . S
C496 H476 0.950 . S
C496 C495 1.414 . S
C496 C497 1.374 . S
C497 H477 0.950 . S
C497 C493 1.385 . S
C497 C496 1.374 . S
C498 C495 1.499 . S
C498 C499 1.373 . S
C498 C500 1.389 . S
C499 H478 0.950 . S
C499 C498 1.373 . S
C499 C515 1.377 1_655 S
C500 C498 1.389 . S
C500 C501 1.524 . S
C500 C514 1.377 1_655 S
C501 C500 1.524 . S
C501 C502 1.397 . S
C501 C506 1.363 . S
C502 H479 0.950 . S
C502 C501 1.397 . S
C502 C503 1.334 . S
C503 H480 0.950 . S
C503 C502 1.334 . S
C503 C504 1.287 . S
C504 C503 1.287 . S
C504 C505 1.524 . S
C504 H523 0.913 . S
C505 H481 0.950 . S
C505 C504 1.524 . S
C505 C506 1.415 . S
C506 H482 0.950 . S
C506 C501 1.363 . S
C506 C505 1.415 . S
C507 H483 0.951 . S
C507 C508 1.366 . S
C507 C509 1.388 . S
C508 C507 1.366 . S
C508 C512 1.385 . S
C509 H484 0.951 . S
C509 C507 1.388 . S
C509 C510 1.366 . S
C510 C509 1.366 . S
C510 C511 1.414 . S
C510 C513 1.499 . S
C511 H485 0.950 . S
C511 C510 1.414 . S
C511 C512 1.374 . S
C512 H486 0.950 . S
C512 C508 1.385 . S
C512 C511 1.374 . S
C513 C510 1.499 . S
C513 C514 1.373 . S
C513 C515 1.389 . S
C514 H487 0.950 . S
C514 C500 1.377 1_455 S
C514 C513 1.373 . S
C515 C499 1.377 1_455 S
C515 C513 1.389 . S
C515 C516 1.524 . S
C516 C515 1.524 . S
C516 C517 1.397 . S
C516 C521 1.363 . S
C517 H488 0.950 . S
C517 C516 1.397 . S
C517 C518 1.334 . S
C518 H489 0.950 . S
C518 C517 1.334 . S
C518 C519 1.287 . S
C519 C518 1.287 . S
C519 C520 1.524 . S
C519 H522 0.999 . S
C520 H490 0.950 . S
C520 C519 1.524 . S
C520 C521 1.415 . S
C521 H491 0.950 . S
C521 C516 1.363 . S
C521 C520 1.415 . S
H522 C519 0.999 . S
H523 C504 0.913 . S
H524 C542 0.951 . S
H525 C544 0.951 . S
H526 C546 0.950 . S
H527 C547 0.950 . S
H528 C549 0.950 . S
H529 C552 0.950 . S
H530 C553 0.950 . S
H531 C555 0.950 . S
H532 C556 0.950 . S
H533 C557 0.951 . S
H534 C559 0.951 . S
H535 C561 0.950 . S
H536 C562 0.950 . S
H537 C564 0.950 . S
H538 C567 0.950 . S
H539 C568 0.950 . S
H540 C570 0.950 . S
H541 C571 0.950 . S
C542 H524 0.951 . S
C542 C543 1.366 . S
C542 C544 1.388 . S
C543 C542 1.366 . S
C543 C547 1.385 . S
C544 H525 0.951 . S
C544 C542 1.388 . S
C544 C545 1.366 . S
C545 C544 1.366 . S
C545 C546 1.414 . S
C545 C548 1.499 . S
C546 H526 0.950 . S
C546 C545 1.414 . S
C546 C547 1.374 . S
C547 H527 0.950 . S
C547 C543 1.385 . S
C547 C546 1.374 . S
C548 C545 1.499 . S
C548 C549 1.373 . S
C548 C550 1.389 . S
C549 H528 0.950 . S
C549 C548 1.373 . S
C549 C565 1.377 . S
C550 C548 1.389 . S
C550 C551 1.524 . S
C550 C564 1.377 . S
C551 C550 1.524 . S
C551 C552 1.397 . S
C551 C556 1.363 . S
C552 H529 0.950 . S
C552 C551 1.397 . S
C552 C553 1.334 . S
C553 H530 0.950 . S
C553 C552 1.334 . S
C553 C554 1.287 . S
C554 C553 1.287 . S
C554 C555 1.524 . S
C554 H573 0.913 . S
C555 H531 0.950 . S
C555 C554 1.524 . S
C555 C556 1.415 . S
C556 H532 0.950 . S
C556 C551 1.363 . S
C556 C555 1.415 . S
C557 H533 0.951 . S
C557 C558 1.366 . S
C557 C559 1.388 . S
C558 C557 1.366 . S
C558 C562 1.385 . S
C559 H534 0.951 . S
C559 C557 1.388 . S
C559 C560 1.366 . S
C560 C559 1.366 . S
C560 C561 1.414 . S
C560 C563 1.499 . S
C561 H535 0.950 . S
C561 C560 1.414 . S
C561 C562 1.374 . S
C562 H536 0.950 . S
C562 C558 1.385 . S
C562 C561 1.374 . S
C563 C560 1.499 . S
C563 C564 1.373 . S
C563 C565 1.389 . S
C564 H537 0.950 . S
C564 C550 1.377 . S
C564 C563 1.373 . S
C565 C549 1.377 . S
C565 C563 1.389 . S
C565 C566 1.524 . S
C566 C565 1.524 . S
C566 C567 1.397 . S
C566 C571 1.363 . S
C567 H538 0.950 . S
C567 C566 1.397 . S
C567 C568 1.334 . S
C568 H539 0.950 . S
C568 C567 1.334 . S
C568 C569 1.287 . S
C569 C568 1.287 . S
C569 C570 1.524 . S
C569 H572 0.999 . S
C570 H540 0.950 . S
C570 C569 1.524 . S
C570 C571 1.415 . S
C571 H541 0.950 . S
C571 C566 1.363 . S
C571 C570 1.415 . S
H572 C569 0.999 . S
H573 C554 0.913 . S
H574 C592 0.951 . S
H575 C594 0.951 . S
H576 C596 0.950 . S
H577 C597 0.950 . S
H578 C599 0.950 . S
H579 C602 0.950 . S
H580 C603 0.950 . S
H581 C605 0.950 . S
H582 C606 0.950 . S
H583 C607 0.951 . S
H584 C609 0.951 . S
H585 C611 0.950 . S
H586 C612 0.950 . S
H587 C614 0.950 . S
H588 C617 0.950 . S
H589 C618 0.950 . S
H590 C620 0.950 . S
H591 C621 0.950 . S
C592 H574 0.951 . S
C592 C593 1.366 . S
C592 C594 1.388 . S
C593 C592 1.366 . S
C593 C597 1.385 . S
C594 H575 0.951 . S
C594 C592 1.388 . S
C594 C595 1.366 . S
C595 C594 1.366 . S
C595 C596 1.414 . S
C595 C598 1.499 . S
C596 H576 0.950 . S
C596 C595 1.414 . S
C596 C597 1.374 . S
C597 H577 0.950 . S
C597 C593 1.385 . S
C597 C596 1.374 . S
C598 C595 1.499 . S
C598 C599 1.373 . S
C598 C600 1.389 . S
C599 H578 0.950 . S
C599 C598 1.373 . S
C599 C615 1.377 . S
C600 C598 1.389 . S
C600 C601 1.524 . S
C600 C614 1.377 . S
C601 C600 1.524 . S
C601 C602 1.397 . S
C601 C606 1.363 . S
C602 H579 0.950 . S
C602 C601 1.397 . S
C602 C603 1.334 . S
C603 H580 0.950 . S
C603 C602 1.334 . S
C603 C604 1.287 . S
C604 C603 1.287 . S
C604 C605 1.524 . S
C604 H623 0.913 . S
C605 H581 0.950 . S
C605 C604 1.524 . S
C605 C606 1.415 . S
C606 H582 0.950 . S
C606 C601 1.363 . S
C606 C605 1.415 . S
C607 H583 0.951 . S
C607 C608 1.366 . S
C607 C609 1.388 . S
C608 C607 1.366 . S
C608 C612 1.385 . S
C609 H584 0.951 . S
C609 C607 1.388 . S
C609 C610 1.366 . S
C610 C609 1.366 . S
C610 C611 1.414 . S
C610 C613 1.499 . S
C611 H585 0.950 . S
C611 C610 1.414 . S
C611 C612 1.374 . S
C612 H586 0.950 . S
C612 C608 1.385 . S
C612 C611 1.374 . S
C613 C610 1.499 . S
C613 C614 1.373 . S
C613 C615 1.389 . S
C614 H587 0.950 . S
C614 C600 1.377 . S
C614 C613 1.373 . S
C615 C599 1.377 . S
C615 C613 1.389 . S
C615 C616 1.524 . S
C616 C615 1.524 . S
C616 C617 1.397 . S
C616 C621 1.363 . S
C617 H588 0.950 . S
C617 C616 1.397 . S
C617 C618 1.334 . S
C618 H589 0.950 . S
C618 C617 1.334 . S
C618 C619 1.287 . S
C619 C618 1.287 . S
C619 C620 1.524 . S
C619 H622 0.999 . S
C620 H590 0.950 . S
C620 C619 1.524 . S
C620 C621 1.415 . S
C621 H591 0.950 . S
C621 C616 1.363 . S
C621 C620 1.415 . S
H622 C619 0.999 . S
H623 C604 0.913 . S
H624 C642 0.951 . S
H625 C644 0.951 . S
H626 C646 0.950 . S
H627 C647 0.950 . S
H628 C649 0.950 . S
H629 C652 0.950 . S
H630 C653 0.950 . S
H631 C655 0.950 1_554 S
H632 C656 0.950 . S
H633 C657 0.951 . S
H634 C659 0.951 . S
H635 C661 0.950 . S
H636 C662 0.950 . S
H637 C664 0.950 . S
H638 C667 0.950 . S
H639 C668 0.950 . S
H640 C670 0.950 . S
H641 C671 0.950 . S
C642 H624 0.951 . S
C642 C643 1.366 . S
C642 C644 1.388 . S
C643 C642 1.366 . S
C643 C647 1.385 . S
C644 H625 0.951 . S
C644 C642 1.388 . S
C644 C645 1.366 . S
C645 C644 1.366 . S
C645 C646 1.414 . S
C645 C648 1.499 . S
C646 H626 0.950 . S
C646 C645 1.414 . S
C646 C647 1.374 . S
C647 H627 0.950 . S
C647 C643 1.385 . S
C647 C646 1.374 . S
C648 C645 1.499 . S
C648 C649 1.373 . S
C648 C650 1.389 . S
C649 H628 0.950 . S
C649 C648 1.373 . S
C649 C665 1.377 . S
C650 C648 1.389 . S
C650 C651 1.524 . S
C650 C664 1.377 . S
C651 C650 1.524 . S
C651 C652 1.397 . S
C651 C656 1.363 . S
C652 H629 0.950 . S
C652 C651 1.397 . S
C652 C653 1.334 . S
C653 H630 0.950 . S
C653 C652 1.334 . S
C653 C654 1.287 1_556 S
C654 C653 1.287 1_554 S
C654 C655 1.524 1_554 S
C654 H673 0.913 . S
C655 H631 0.950 1_556 S
C655 C654 1.524 1_556 S
C655 C656 1.415 . S
C656 H632 0.950 . S
C656 C651 1.363 . S
C656 C655 1.415 . S
C657 H633 0.951 . S
C657 C658 1.366 . S
C657 C659 1.388 . S
C658 C657 1.366 . S
C658 C662 1.385 . S
C659 H634 0.951 . S
C659 C657 1.388 . S
C659 C660 1.366 . S
C660 C659 1.366 . S
C660 C661 1.414 . S
C660 C663 1.499 . S
C661 H635 0.950 . S
C661 C660 1.414 . S
C661 C662 1.374 . S
C662 H636 0.950 . S
C662 C658 1.385 . S
C662 C661 1.374 . S
C663 C660 1.499 . S
C663 C664 1.373 . S
C663 C665 1.389 . S
C664 H637 0.950 . S
C664 C650 1.377 . S
C664 C663 1.373 . S
C665 C649 1.377 . S
C665 C663 1.389 . S
C665 C666 1.524 . S
C666 C665 1.524 . S
C666 C667 1.397 . S
C666 C671 1.363 . S
C667 H638 0.950 . S
C667 C666 1.397 . S
C667 C668 1.334 . S
C668 H639 0.950 . S
C668 C667 1.334 . S
C668 C669 1.287 . S
C669 C668 1.287 . S
C669 C670 1.524 . S
C669 H672 0.999 . S
C670 H640 0.950 . S
C670 C669 1.524 . S
C670 C671 1.415 . S
C671 H641 0.950 . S
C671 C666 1.363 . S
C671 C670 1.415 . S
H672 C669 0.999 . S
H673 C654 0.913 . S
H674 C692 0.951 . S
H675 C694 0.951 . S
H676 C696 0.950 . S
H677 C697 0.950 . S
H678 C699 0.950 . S
H679 C702 0.950 . S
H680 C703 0.950 . S
H681 C705 0.950 . S
H682 C706 0.950 . S
H683 C707 0.951 . S
H684 C709 0.951 . S
H685 C711 0.950 . S
H686 C712 0.950 . S
H687 C714 0.950 . S
H688 C717 0.950 . S
H689 C718 0.950 . S
H690 C720 0.950 . S
H691 C721 0.950 . S
C692 H674 0.951 . S
C692 C693 1.366 . S
C692 C694 1.388 . S
C693 C692 1.366 . S
C693 C697 1.385 . S
C694 H675 0.951 . S
C694 C692 1.388 . S
C694 C695 1.366 . S
C695 C694 1.366 . S
C695 C696 1.414 . S
C695 C698 1.499 . S
C696 H676 0.950 . S
C696 C695 1.414 . S
C696 C697 1.374 . S
C697 H677 0.950 . S
C697 C693 1.385 . S
C697 C696 1.374 . S
C698 C695 1.499 . S
C698 C699 1.373 . S
C698 C700 1.389 . S
C699 H678 0.950 . S
C699 C698 1.373 . S
C699 C715 1.377 . S
C700 C698 1.389 . S
C700 C701 1.524 . S
C700 C714 1.377 . S
C701 C700 1.524 . S
C701 C702 1.397 . S
C701 C706 1.363 . S
C702 H679 0.950 . S
C702 C701 1.397 . S
C702 C703 1.334 . S
C703 H680 0.950 . S
C703 C702 1.334 . S
C703 C704 1.287 . S
C704 C703 1.287 . S
C704 C705 1.524 . S
C704 H723 0.913 . S
C705 H681 0.950 . S
C705 C704 1.524 . S
C705 C706 1.415 . S
C706 H682 0.950 . S
C706 C701 1.363 . S
C706 C705 1.415 . S
C707 H683 0.951 . S
C707 C708 1.366 . S
C707 C709 1.388 . S
C708 C707 1.366 . S
C708 C712 1.385 . S
C709 H684 0.951 . S
C709 C707 1.388 . S
C709 C710 1.366 . S
C710 C709 1.366 . S
C710 C711 1.414 . S
C710 C713 1.499 . S
C711 H685 0.950 . S
C711 C710 1.414 . S
C711 C712 1.374 . S
C712 H686 0.950 . S
C712 C708 1.385 . S
C712 C711 1.374 . S
C713 C710 1.499 . S
C713 C714 1.373 . S
C713 C715 1.389 . S
C714 H687 0.950 . S
C714 C700 1.377 . S
C714 C713 1.373 . S
C715 C699 1.377 . S
C715 C713 1.389 . S
C715 C716 1.524 . S
C716 C715 1.524 . S
C716 C717 1.397 . S
C716 C721 1.363 . S
C717 H688 0.950 . S
C717 C716 1.397 . S
C717 C718 1.334 . S
C718 H689 0.950 . S
C718 C717 1.334 . S
C718 C719 1.287 . S
C719 C718 1.287 . S
C719 C720 1.524 . S
C719 H722 0.999 . S
C720 H690 0.950 . S
C720 C719 1.524 . S
C720 C721 1.415 . S
C721 H691 0.950 . S
C721 C716 1.363 . S
C721 C720 1.415 . S
H722 C719 0.999 . S
H723 C704 0.913 . S
H724 C742 0.951 . S
H725 C744 0.951 . S
H726 C746 0.950 . S
H727 C747 0.950 . S
H728 C749 0.950 . S
H729 C752 0.950 . S
H730 C753 0.950 . S
H731 C755 0.950 . S
H732 C756 0.950 . S
H733 C757 0.951 . S
H734 C759 0.951 . S
H735 C761 0.950 . S
H736 C762 0.950 . S
H737 C764 0.950 . S
H738 C767 0.950 . S
H739 C768 0.950 . S
H740 C770 0.950 1_556 S
H741 C771 0.950 . S
C742 H724 0.951 . S
C742 C743 1.366 . S
C742 C744 1.388 . S
C743 C742 1.366 . S
C743 C747 1.385 . S
C744 H725 0.951 . S
C744 C742 1.388 . S
C744 C745 1.366 . S
C745 C744 1.366 . S
C745 C746 1.414 . S
C745 C748 1.499 . S
C746 H726 0.950 . S
C746 C745 1.414 . S
C746 C747 1.374 . S
C747 H727 0.950 . S
C747 C743 1.385 . S
C747 C746 1.374 . S
C748 C745 1.499 . S
C748 C749 1.373 . S
C748 C750 1.389 . S
C749 H728 0.950 . S
C749 C748 1.373 . S
C749 C765 1.377 . S
C750 C748 1.389 . S
C750 C751 1.524 . S
C750 C764 1.377 . S
C751 C750 1.524 . S
C751 C752 1.397 . S
C751 C756 1.363 . S
C752 H729 0.950 . S
C752 C751 1.397 . S
C752 C753 1.334 . S
C753 H730 0.950 . S
C753 C752 1.334 . S
C753 C754 1.287 . S
C754 C753 1.287 . S
C754 C755 1.524 . S
C754 H773 0.913 . S
C755 H731 0.950 . S
C755 C754 1.524 . S
C755 C756 1.415 . S
C756 H732 0.950 . S
C756 C751 1.363 . S
C756 C755 1.415 . S
C757 H733 0.951 . S
C757 C758 1.366 . S
C757 C759 1.388 . S
C758 C757 1.366 . S
C758 C762 1.385 . S
C759 H734 0.951 . S
C759 C757 1.388 . S
C759 C760 1.366 . S
C760 C759 1.366 . S
C760 C761 1.414 . S
C760 C763 1.499 . S
C761 H735 0.950 . S
C761 C760 1.414 . S
C761 C762 1.374 . S
C762 H736 0.950 . S
C762 C758 1.385 . S
C762 C761 1.374 . S
C763 C760 1.499 . S
C763 C764 1.373 . S
C763 C765 1.389 . S
C764 H737 0.950 . S
C764 C750 1.377 . S
C764 C763 1.373 . S
C765 C749 1.377 . S
C765 C763 1.389 . S
C765 C766 1.524 . S
C766 C765 1.524 . S
C766 C767 1.397 . S
C766 C771 1.363 . S
C767 H738 0.950 . S
C767 C766 1.397 . S
C767 C768 1.334 . S
C768 H739 0.950 . S
C768 C767 1.334 . S
C768 C769 1.271 1_554 S
C769 C768 1.271 1_556 S
C769 C770 1.515 1_556 S
C769 H772 1.027 . S
C770 H740 0.950 1_554 S
C770 C769 1.515 1_554 S
C770 C771 1.415 . S
C771 H741 0.950 . S
C771 C766 1.363 . S
C771 C770 1.415 . S
H772 C769 1.027 . S
H773 C754 0.913 . S
H774 C792 0.951 . S
H775 C794 0.951 . S
H776 C796 0.950 . S
H777 C797 0.950 . S
H778 C799 0.950 . S
H779 C802 0.950 . S
H780 C803 0.950 . S
H781 C805 0.950 . S
H782 C806 0.950 . S
H783 C807 0.951 . S
H784 C809 0.951 . S
H785 C811 0.950 . S
H786 C812 0.950 . S
H787 C814 0.950 . S
H788 C817 0.950 . S
H789 C818 0.950 . S
H790 C820 0.950 . S
H791 C821 0.950 . S
C792 H774 0.951 . S
C792 C793 1.366 . S
C792 C794 1.388 . S
C793 C792 1.366 . S
C793 C797 1.385 . S
C794 H775 0.951 . S
C794 C792 1.388 . S
C794 C795 1.366 . S
C795 C794 1.366 . S
C795 C796 1.414 . S
C795 C798 1.499 . S
C796 H776 0.950 . S
C796 C795 1.414 . S
C796 C797 1.374 . S
C797 H777 0.950 . S
C797 C793 1.385 . S
C797 C796 1.374 . S
C798 C795 1.499 . S
C798 C799 1.373 . S
C798 C800 1.389 . S
C799 H778 0.950 . S
C799 C798 1.373 . S
C799 C815 1.377 . S
C800 C798 1.389 . S
C800 C801 1.524 . S
C800 C814 1.377 . S
C801 C800 1.524 . S
C801 C802 1.397 . S
C801 C806 1.363 . S
C802 H779 0.950 . S
C802 C801 1.397 . S
C802 C803 1.334 . S
C803 H780 0.950 . S
C803 C802 1.334 . S
C803 C804 1.287 . S
C804 C803 1.287 . S
C804 C805 1.524 . S
C804 H823 0.913 . S
C805 H781 0.950 . S
C805 C804 1.524 . S
C805 C806 1.415 . S
C806 H782 0.950 . S
C806 C801 1.363 . S
C806 C805 1.415 . S
C807 H783 0.951 . S
C807 C808 1.366 . S
C807 C809 1.388 . S
C808 C807 1.366 . S
C808 C812 1.385 . S
C809 H784 0.951 . S
C809 C807 1.388 . S
C809 C810 1.366 . S
C810 C809 1.366 . S
C810 C811 1.414 . S
C810 C813 1.499 . S
C811 H785 0.950 . S
C811 C810 1.414 . S
C811 C812 1.374 . S
C812 H786 0.950 . S
C812 C808 1.385 . S
C812 C811 1.374 . S
C813 C810 1.499 . S
C813 C814 1.373 . S
C813 C815 1.389 . S
C814 H787 0.950 . S
C814 C800 1.377 . S
C814 C813 1.373 . S
C815 C799 1.377 . S
C815 C813 1.389 . S
C815 C816 1.524 . S
C816 C815 1.524 . S
C816 C817 1.397 . S
C816 C821 1.363 . S
C817 H788 0.950 . S
C817 C816 1.397 . S
C817 C818 1.334 . S
C818 H789 0.950 . S
C818 C817 1.334 . S
C818 C819 1.287 . S
C819 C818 1.287 . S
C819 C820 1.524 . S
C819 H822 0.999 . S
C820 H790 0.950 . S
C820 C819 1.524 . S
C820 C821 1.415 . S
C821 H791 0.950 . S
C821 C816 1.363 . S
C821 C820 1.415 . S
H822 C819 0.999 . S
H823 C804 0.913 . S
H824 C842 0.951 . S
H825 C844 0.951 . S
H826 C846 0.950 . S
H827 C847 0.950 . S
H828 C849 0.950 . S
H829 C852 0.950 . S
H830 C853 0.950 . S
H831 C855 0.950 . S
H832 C856 0.950 . S
H833 C857 0.951 . S
H834 C859 0.951 . S
H835 C861 0.950 . S
H836 C862 0.950 . S
H837 C864 0.950 . S
H838 C867 0.950 . S
H839 C868 0.950 . S
H840 C870 0.950 . S
H841 C871 0.950 . S
C842 H824 0.951 . S
C842 C843 1.366 . S
C842 C844 1.388 . S
C843 C842 1.366 . S
C843 C847 1.385 . S
C844 H825 0.951 . S
C844 C842 1.388 . S
C844 C845 1.366 . S
C845 C844 1.366 . S
C845 C846 1.414 . S
C845 C848 1.499 . S
C846 H826 0.950 . S
C846 C845 1.414 . S
C846 C847 1.374 . S
C847 H827 0.950 . S
C847 C843 1.385 . S
C847 C846 1.374 . S
C848 C845 1.499 . S
C848 C849 1.373 . S
C848 C850 1.389 . S
C849 H828 0.950 . S
C849 C848 1.373 . S
C849 C865 1.377 1_455 S
C850 C848 1.389 . S
C850 C851 1.524 . S
C850 C864 1.377 1_455 S
C851 C850 1.524 . S
C851 C852 1.397 . S
C851 C856 1.363 . S
C852 H829 0.950 . S
C852 C851 1.397 . S
C852 C853 1.334 . S
C853 H830 0.950 . S
C853 C852 1.334 . S
C853 C854 1.287 . S
C854 C853 1.287 . S
C854 C855 1.524 . S
C854 H873 0.913 . S
C855 H831 0.950 . S
C855 C854 1.524 . S
C855 C856 1.415 . S
C856 H832 0.950 . S
C856 C851 1.363 . S
C856 C855 1.415 . S
C857 H833 0.951 . S
C857 C858 1.366 . S
C857 C859 1.388 . S
C858 C857 1.366 . S
C858 C862 1.385 . S
C859 H834 0.951 . S
C859 C857 1.388 . S
C859 C860 1.366 . S
C860 C859 1.366 . S
C860 C861 1.414 . S
C860 C863 1.499 . S
C861 H835 0.950 . S
C861 C860 1.414 . S
C861 C862 1.374 . S
C862 H836 0.950 . S
C862 C858 1.385 . S
C862 C861 1.374 . S
C863 C860 1.499 . S
C863 C864 1.373 . S
C863 C865 1.389 . S
C864 H837 0.950 . S
C864 C850 1.377 1_655 S
C864 C863 1.373 . S
C865 C849 1.377 1_655 S
C865 C863 1.389 . S
C865 C866 1.524 . S
C866 C865 1.524 . S
C866 C867 1.397 . S
C866 C871 1.363 . S
C867 H838 0.950 . S
C867 C866 1.397 . S
C867 C868 1.334 . S
C868 H839 0.950 . S
C868 C867 1.334 . S
C868 C869 1.287 . S
C869 C868 1.287 . S
C869 C870 1.524 . S
C869 H872 0.999 . S
C870 H840 0.950 . S
C870 C869 1.524 . S
C870 C871 1.415 . S
C871 H841 0.950 . S
C871 C866 1.363 . S
C871 C870 1.415 . S
H872 C869 0.999 . S
H873 C854 0.913 . S
H874 C892 0.951 . S
H875 C894 0.951 . S
H876 C896 0.950 . S
H877 C897 0.950 . S
H878 C899 0.950 . S
H879 C902 0.950 . S
H880 C903 0.950 . S
H881 C905 0.950 . S
H882 C906 0.950 . S
H883 C907 0.951 . S
H884 C909 0.951 . S
H885 C911 0.950 . S
H886 C912 0.950 . S
H887 C914 0.950 . S
H888 C917 0.950 . S
H889 C918 0.950 . S
H890 C920 0.950 . S
H891 C921 0.950 . S
C892 H874 0.951 . S
C892 C893 1.366 . S
C892 C894 1.388 . S
C893 C892 1.366 . S
C893 C897 1.385 . S
C894 H875 0.951 . S
C894 C892 1.388 . S
C894 C895 1.366 . S
C895 C894 1.366 . S
C895 C896 1.414 . S
C895 C898 1.499 . S
C896 H876 0.950 . S
C896 C895 1.414 . S
C896 C897 1.374 . S
C897 H877 0.950 . S
C897 C893 1.385 . S
C897 C896 1.374 . S
C898 C895 1.499 . S
C898 C899 1.373 . S
C898 C900 1.389 . S
C899 H878 0.950 . S
C899 C898 1.373 . S
C899 C915 1.377 . S
C900 C898 1.389 . S
C900 C901 1.524 . S
C900 C914 1.377 . S
C901 C900 1.524 . S
C901 C902 1.397 . S
C901 C906 1.363 . S
C902 H879 0.950 . S
C902 C901 1.397 . S
C902 C903 1.334 . S
C903 H880 0.950 . S
C903 C902 1.334 . S
C903 C904 1.287 . S
C904 C903 1.287 . S
C904 C905 1.524 . S
C904 H923 0.913 . S
C905 H881 0.950 . S
C905 C904 1.524 . S
C905 C906 1.415 . S
C906 H882 0.950 . S
C906 C901 1.363 . S
C906 C905 1.415 . S
C907 H883 0.951 . S
C907 C908 1.366 . S
C907 C909 1.388 . S
C908 C907 1.366 . S
C908 C912 1.385 . S
C909 H884 0.951 . S
C909 C907 1.388 . S
C909 C910 1.366 . S
C910 C909 1.366 . S
C910 C911 1.414 . S
C910 C913 1.499 . S
C911 H885 0.950 . S
C911 C910 1.414 . S
C911 C912 1.374 . S
C912 H886 0.950 . S
C912 C908 1.385 . S
C912 C911 1.374 . S
C913 C910 1.499 . S
C913 C914 1.373 . S
C913 C915 1.389 . S
C914 H887 0.950 . S
C914 C900 1.377 . S
C914 C913 1.373 . S
C915 C899 1.377 . S
C915 C913 1.389 . S
C915 C916 1.524 . S
C916 C915 1.524 . S
C916 C917 1.397 . S
C916 C921 1.363 . S
C917 H888 0.950 . S
C917 C916 1.397 . S
C917 C918 1.334 . S
C918 H889 0.950 . S
C918 C917 1.334 . S
C918 C919 1.287 . S
C919 C918 1.287 . S
C919 C920 1.524 . S
C919 H922 0.999 . S
C920 H890 0.950 . S
C920 C919 1.524 . S
C920 C921 1.415 . S
C921 H891 0.950 . S
C921 C916 1.363 . S
C921 C920 1.415 . S
H922 C919 0.999 . S
H923 C904 0.913 . S
H924 C942 0.951 . S
H925 C944 0.951 . S
H926 C946 0.950 . S
H927 C947 0.950 . S
H928 C949 0.950 . S
H929 C952 0.950 . S
H930 C953 0.950 . S
H931 C955 0.950 . S
H932 C956 0.950 . S
H933 C957 0.951 . S
H934 C959 0.951 . S
H935 C961 0.950 . S
H936 C962 0.950 . S
H937 C964 0.950 . S
H938 C967 0.950 . S
H939 C968 0.950 . S
H940 C970 0.950 . S
H941 C971 0.950 . S
C942 H924 0.951 . S
C942 C943 1.366 . S
C942 C944 1.388 . S
C943 C942 1.366 . S
C943 C947 1.385 . S
C944 H925 0.951 . S
C944 C942 1.388 . S
C944 C945 1.366 . S
C945 C944 1.366 . S
C945 C946 1.414 . S
C945 C948 1.499 . S
C946 H926 0.950 . S
C946 C945 1.414 . S
C946 C947 1.374 . S
C947 H927 0.950 . S
C947 C943 1.385 . S
C947 C946 1.374 . S
C948 C945 1.499 . S
C948 C949 1.373 . S
C948 C950 1.389 . S
C949 H928 0.950 . S
C949 C948 1.373 . S
C949 C965 1.377 . S
C950 C948 1.389 . S
C950 C951 1.524 . S
C950 C964 1.377 . S
C951 C950 1.524 . S
C951 C952 1.397 . S
C951 C956 1.363 . S
C952 H929 0.950 . S
C952 C951 1.397 . S
C952 C953 1.334 . S
C953 H930 0.950 . S
C953 C952 1.334 . S
C953 C954 1.287 . S
C954 C953 1.287 . S
C954 C955 1.524 . S
C954 H973 0.913 . S
C955 H931 0.950 . S
C955 C954 1.524 . S
C955 C956 1.415 . S
C956 H932 0.950 . S
C956 C951 1.363 . S
C956 C955 1.415 . S
C957 H933 0.951 . S
C957 C958 1.366 . S
C957 C959 1.388 . S
C958 C957 1.366 . S
C958 C962 1.385 . S
C959 H934 0.951 . S
C959 C957 1.388 . S
C959 C960 1.366 . S
C960 C959 1.366 . S
C960 C961 1.414 . S
C960 C963 1.499 . S
C961 H935 0.950 . S
C961 C960 1.414 . S
C961 C962 1.374 . S
C962 H936 0.950 . S
C962 C958 1.385 . S
C962 C961 1.374 . S
C963 C960 1.499 . S
C963 C964 1.373 . S
C963 C965 1.389 . S
C964 H937 0.950 . S
C964 C950 1.377 . S
C964 C963 1.373 . S
C965 C949 1.377 . S
C965 C963 1.389 . S
C965 C966 1.524 . S
C966 C965 1.524 . S
C966 C967 1.397 . S
C966 C971 1.363 . S
C967 H938 0.950 . S
C967 C966 1.397 . S
C967 C968 1.334 . S
C968 H939 0.950 . S
C968 C967 1.334 . S
C968 C969 1.287 . S
C969 C968 1.287 . S
C969 C970 1.524 . S
C969 H972 0.999 . S
C970 H940 0.950 . S
C970 C969 1.524 . S
C970 C971 1.415 . S
C971 H941 0.950 . S
C971 C966 1.363 . S
C971 C970 1.415 . S
H972 C969 0.999 . S
H973 C954 0.913 . S
H974 C992 0.951 . S
H975 C994 0.951 . S
H976 C996 0.950 . S
H977 C997 0.950 . S
H978 C999 0.950 . S
H979 C1002 0.950 . S
H980 C1003 0.950 . S
H981 C1005 0.950 . S
H982 C1006 0.950 . S
H983 C1007 0.951 . S
H984 C1009 0.951 . S
H985 C1011 0.950 . S
H986 C1012 0.950 . S
H987 C1014 0.950 . S
H988 C1017 0.950 . S
H989 C1018 0.950 . S
H990 C1020 0.950 . S
H991 C1021 0.950 . S
C992 H974 0.951 . S
C992 C993 1.366 . S
C992 C994 1.388 . S
C993 C992 1.366 . S
C993 C997 1.385 . S
C994 H975 0.951 . S
C994 C992 1.388 . S
C994 C995 1.366 . S
C995 C994 1.366 . S
C995 C996 1.414 . S
C995 C998 1.499 . S
C996 H976 0.950 . S
C996 C995 1.414 . S
C996 C997 1.374 . S
C997 H977 0.950 . S
C997 C993 1.385 . S
C997 C996 1.374 . S
C998 C995 1.499 . S
C998 C999 1.373 . S
C998 C1000 1.389 . S
C999 H978 0.950 . S
C999 C998 1.373 . S
C999 C1015 1.377 1_455 S
C1000 C998 1.389 . S
C1000 C1001 1.524 . S
C1000 C1014 1.377 1_455 S
C1001 C1000 1.524 . S
C1001 C1002 1.397 . S
C1001 C1006 1.363 . S
C1002 H979 0.950 . S
C1002 C1001 1.397 . S
C1002 C1003 1.334 . S
C1003 H980 0.950 . S
C1003 C1002 1.334 . S
C1003 C1004 1.287 . S
C1004 C1003 1.287 . S
C1004 C1005 1.524 . S
C1004 H1023 0.913 . S
C1005 H981 0.950 . S
C1005 C1004 1.524 . S
C1005 C1006 1.415 . S
C1006 H982 0.950 . S
C1006 C1001 1.363 . S
C1006 C1005 1.415 . S
C1007 H983 0.951 . S
C1007 C1008 1.366 . S
C1007 C1009 1.388 . S
C1008 C1007 1.366 . S
C1008 C1012 1.385 . S
C1009 H984 0.951 . S
C1009 C1007 1.388 . S
C1009 C1010 1.366 . S
C1010 C1009 1.366 . S
C1010 C1011 1.414 . S
C1010 C1013 1.499 . S
C1011 H985 0.950 . S
C1011 C1010 1.414 . S
C1011 C1012 1.374 . S
C1012 H986 0.950 . S
C1012 C1008 1.385 . S
C1012 C1011 1.374 . S
C1013 C1010 1.499 . S
C1013 C1014 1.373 . S
C1013 C1015 1.389 . S
C1014 H987 0.950 . S
C1014 C1000 1.377 1_655 S
C1014 C1013 1.373 . S
C1015 C999 1.377 1_655 S
C1015 C1013 1.389 . S
C1015 C1016 1.524 . S
C1016 C1015 1.524 . S
C1016 C1017 1.397 . S
C1016 C1021 1.363 . S
C1017 H988 0.950 . S
C1017 C1016 1.397 . S
C1017 C1018 1.334 . S
C1018 H989 0.950 . S
C1018 C1017 1.334 . S
C1018 C1019 1.287 . S
C1019 C1018 1.287 . S
C1019 C1020 1.524 . S
C1019 H1022 0.999 . S
C1020 H990 0.950 . S
C1020 C1019 1.524 . S
C1020 C1021 1.415 . S
C1021 H991 0.950 . S
C1021 C1016 1.363 . S
C1021 C1020 1.415 . S
H1022 C1019 0.999 . S
H1023 C1004 0.913 . S
H1024 C1042 0.951 . S
H1025 C1044 0.951 . S
H1026 C1046 0.950 . S
H1027 C1047 0.950 . S
H1028 C1049 0.950 . S
H1029 C1052 0.950 . S
H1030 C1053 0.950 . S
H1031 C1055 0.950 . S
H1032 C1056 0.950 . S
H1033 C1057 0.951 . S
H1034 C1059 0.951 . S
H1035 C1061 0.950 . S
H1036 C1062 0.950 . S
H1037 C1064 0.950 . S
H1038 C1067 0.950 . S
H1039 C1068 0.950 . S
H1040 C1070 0.950 . S
H1041 C1071 0.950 . S
C1042 H1024 0.951 . S
C1042 C1043 1.366 . S
C1042 C1044 1.388 . S
C1043 C1042 1.366 . S
C1043 C1047 1.385 . S
C1044 H1025 0.951 . S
C1044 C1042 1.388 . S
C1044 C1045 1.366 . S
C1045 C1044 1.366 . S
C1045 C1046 1.414 . S
C1045 C1048 1.499 . S
C1046 H1026 0.950 . S
C1046 C1045 1.414 . S
C1046 C1047 1.374 . S
C1047 H1027 0.950 . S
C1047 C1043 1.385 . S
C1047 C1046 1.374 . S
C1048 C1045 1.499 . S
C1048 C1049 1.373 1_554 S
C1048 C1050 1.389 . S
C1049 H1028 0.950 . S
C1049 C1048 1.373 1_556 S
C1049 C1065 1.377 . S
C1050 C1048 1.389 . S
C1050 C1051 1.524 . S
C1050 C1064 1.377 . S
C1051 C1050 1.524 . S
C1051 C1052 1.397 . S
C1051 C1056 1.363 . S
C1052 H1029 0.950 . S
C1052 C1051 1.397 . S
C1052 C1053 1.334 . S
C1053 H1030 0.950 . S
C1053 C1052 1.334 . S
C1053 C1054 1.287 . S
C1054 C1053 1.287 . S
C1054 C1055 1.524 . S
C1054 H1073 0.913 . S
C1055 H1031 0.950 . S
C1055 C1054 1.524 . S
C1055 C1056 1.415 . S
C1056 H1032 0.950 . S
C1056 C1051 1.363 . S
C1056 C1055 1.415 . S
C1057 H1033 0.951 . S
C1057 C1058 1.366 . S
C1057 C1059 1.388 . S
C1058 C1057 1.366 . S
C1058 C1062 1.385 . S
C1059 H1034 0.951 . S
C1059 C1057 1.388 . S
C1059 C1060 1.366 . S
C1060 C1059 1.366 . S
C1060 C1061 1.414 . S
C1060 C1063 1.499 . S
C1061 H1035 0.950 . S
C1061 C1060 1.414 . S
C1061 C1062 1.374 . S
C1062 H1036 0.950 . S
C1062 C1058 1.385 . S
C1062 C1061 1.374 . S
C1063 C1060 1.499 . S
C1063 C1064 1.373 1_556 S
C1063 C1065 1.389 . S
C1064 H1037 0.950 . S
C1064 C1050 1.377 . S
C1064 C1063 1.373 1_554 S
C1065 C1049 1.377 . S
C1065 C1063 1.389 . S
C1065 C1066 1.524 . S
C1066 C1065 1.524 . S
C1066 C1067 1.397 . S
C1066 C1071 1.363 . S
C1067 H1038 0.950 . S
C1067 C1066 1.397 . S
C1067 C1068 1.334 . S
C1068 H1039 0.950 . S
C1068 C1067 1.334 . S
C1068 C1069 1.287 . S
C1069 C1068 1.287 . S
C1069 C1070 1.524 . S
C1069 H1072 0.999 . S
C1070 H1040 0.950 . S
C1070 C1069 1.524 . S
C1070 C1071 1.415 . S
C1071 H1041 0.950 . S
C1071 C1066 1.363 . S
C1071 C1070 1.415 . S
H1072 C1069 0.999 . S
H1073 C1054 0.913 . S
H1074 C1092 0.951 . S
H1075 C1094 0.951 . S
H1076 C1096 0.950 . S
H1077 C1097 0.950 . S
H1078 C1099 0.950 . S
H1079 C1102 0.950 . S
H1080 C1103 0.950 . S
H1081 C1105 0.950 . S
H1082 C1106 0.950 . S
H1083 C1107 0.951 . S
H1084 C1109 0.951 . S
H1085 C1111 0.950 . S
H1086 C1112 0.950 . S
H1087 C1114 0.950 . S
H1088 C1117 0.950 . S
H1089 C1118 0.950 . S
H1090 C1120 0.950 . S
H1091 C1121 0.950 . S
C1092 H1074 0.951 . S
C1092 C1093 1.366 . S
C1092 C1094 1.388 . S
C1093 C1092 1.366 . S
C1093 C1097 1.385 . S
C1094 H1075 0.951 . S
C1094 C1092 1.388 . S
C1094 C1095 1.366 . S
C1095 C1094 1.366 . S
C1095 C1096 1.414 . S
C1095 C1098 1.499 . S
C1096 H1076 0.950 . S
C1096 C1095 1.414 . S
C1096 C1097 1.374 . S
C1097 H1077 0.950 . S
C1097 C1093 1.385 . S
C1097 C1096 1.374 . S
C1098 C1095 1.499 . S
C1098 C1099 1.373 . S
C1098 C1100 1.389 . S
C1099 H1078 0.950 . S
C1099 C1098 1.373 . S
C1099 C1115 1.377 . S
C1100 C1098 1.389 . S
C1100 C1101 1.524 . S
C1100 C1114 1.377 . S
C1101 C1100 1.524 . S
C1101 C1102 1.397 . S
C1101 C1106 1.363 . S
C1102 H1079 0.950 . S
C1102 C1101 1.397 . S
C1102 C1103 1.334 . S
C1103 H1080 0.950 . S
C1103 C1102 1.334 . S
C1103 C1104 1.287 . S
C1104 C1103 1.287 . S
C1104 C1105 1.524 . S
C1104 H1123 0.913 . S
C1105 H1081 0.950 . S
C1105 C1104 1.524 . S
C1105 C1106 1.415 . S
C1106 H1082 0.950 . S
C1106 C1101 1.363 . S
C1106 C1105 1.415 . S
C1107 H1083 0.951 . S
C1107 C1108 1.366 . S
C1107 C1109 1.388 . S
C1108 C1107 1.366 . S
C1108 C1112 1.385 . S
C1109 H1084 0.951 . S
C1109 C1107 1.388 . S
C1109 C1110 1.366 . S
C1110 C1109 1.366 . S
C1110 C1111 1.414 . S
C1110 C1113 1.499 . S
C1111 H1085 0.950 . S
C1111 C1110 1.414 . S
C1111 C1112 1.374 . S
C1112 H1086 0.950 . S
C1112 C1108 1.385 . S
C1112 C1111 1.374 . S
C1113 C1110 1.499 . S
C1113 C1114 1.373 . S
C1113 C1115 1.389 . S
C1114 H1087 0.950 . S
C1114 C1100 1.377 . S
C1114 C1113 1.373 . S
C1115 C1099 1.377 . S
C1115 C1113 1.389 . S
C1115 C1116 1.524 . S
C1116 C1115 1.524 . S
C1116 C1117 1.397 . S
C1116 C1121 1.363 . S
C1117 H1088 0.950 . S
C1117 C1116 1.397 . S
C1117 C1118 1.334 . S
C1118 H1089 0.950 . S
C1118 C1117 1.334 . S
C1118 C1119 1.287 . S
C1119 C1118 1.287 . S
C1119 C1120 1.524 . S
C1119 H1122 0.999 . S
C1120 H1090 0.950 . S
C1120 C1119 1.524 . S
C1120 C1121 1.415 . S
C1121 H1091 0.950 . S
C1121 C1116 1.363 . S
C1121 C1120 1.415 . S
H1122 C1119 0.999 . S
H1123 C1104 0.913 . S
H1124 C1142 0.951 . S
H1125 C1144 0.951 . S
H1126 C1146 0.950 . S
H1127 C1147 0.950 . S
H1128 C1149 0.950 . S
H1129 C1152 0.950 . S
H1130 C1153 0.950 . S
H1131 C1155 0.950 . S
H1132 C1156 0.950 . S
H1133 C1157 0.951 . S
H1134 C1159 0.951 . S
H1135 C1161 0.950 . S
H1136 C1162 0.950 . S
H1137 C1164 0.950 . S
H1138 C1167 0.950 . S
H1139 C1168 0.950 . S
H1140 C1170 0.950 . S
H1141 C1171 0.950 . S
C1142 H1124 0.951 . S
C1142 C1143 1.366 . S
C1142 C1144 1.388 . S
C1143 C1142 1.366 . S
C1143 C1147 1.385 . S
C1144 H1125 0.951 . S
C1144 C1142 1.388 . S
C1144 C1145 1.366 . S
C1145 C1144 1.366 . S
C1145 C1146 1.414 . S
C1145 C1148 1.499 . S
C1146 H1126 0.950 . S
C1146 C1145 1.414 . S
C1146 C1147 1.374 . S
C1147 H1127 0.950 . S
C1147 C1143 1.385 . S
C1147 C1146 1.374 . S
C1148 C1145 1.499 . S
C1148 C1149 1.373 . S
C1148 C1150 1.389 . S
C1149 H1128 0.950 . S
C1149 C1148 1.373 . S
C1149 C1165 1.377 . S
C1150 C1148 1.389 . S
C1150 C1151 1.524 . S
C1150 C1164 1.377 . S
C1151 C1150 1.524 . S
C1151 C1152 1.397 . S
C1151 C1156 1.363 . S
C1152 H1129 0.950 . S
C1152 C1151 1.397 . S
C1152 C1153 1.334 . S
C1153 H1130 0.950 . S
C1153 C1152 1.334 . S
C1153 C1154 1.287 . S
C1154 C1153 1.287 . S
C1154 C1155 1.524 . S
C1154 H1173 0.913 . S
C1155 H1131 0.950 . S
C1155 C1154 1.524 . S
C1155 C1156 1.415 . S
C1156 H1132 0.950 . S
C1156 C1151 1.363 . S
C1156 C1155 1.415 . S
C1157 H1133 0.951 . S
C1157 C1158 1.366 . S
C1157 C1159 1.388 . S
C1158 C1157 1.366 . S
C1158 C1162 1.385 . S
C1159 H1134 0.951 . S
C1159 C1157 1.388 . S
C1159 C1160 1.366 . S
C1160 C1159 1.366 . S
C1160 C1161 1.414 . S
C1160 C1163 1.499 . S
C1161 H1135 0.950 . S
C1161 C1160 1.414 . S
C1161 C1162 1.374 . S
C1162 H1136 0.950 . S
C1162 C1158 1.385 . S
C1162 C1161 1.374 . S
C1163 C1160 1.499 . S
C1163 C1164 1.373 . S
C1163 C1165 1.389 . S
C1164 H1137 0.950 . S
C1164 C1150 1.377 . S
C1164 C1163 1.373 . S
C1165 C1149 1.377 . S
C1165 C1163 1.389 . S
C1165 C1166 1.524 . S
C1166 C1165 1.524 . S
C1166 C1167 1.397 . S
C1166 C1171 1.363 . S
C1167 H1138 0.950 . S
C1167 C1166 1.397 . S
C1167 C1168 1.334 . S
C1168 H1139 0.950 . S
C1168 C1167 1.334 . S
C1168 C1169 1.287 . S
C1169 C1168 1.287 . S
C1169 C1170 1.524 . S
C1169 H1172 0.999 . S
C1170 H1140 0.950 . S
C1170 C1169 1.524 . S
C1170 C1171 1.415 . S
C1171 H1141 0.950 . S
C1171 C1166 1.363 . S
C1171 C1170 1.415 . S
H1172 C1169 0.999 . S
H1173 C1154 0.913 . S
H1174 C1192 0.951 . S
H1175 C1194 0.951 . S
H1176 C1196 0.950 . S
H1177 C1197 0.950 . S
H1178 C1199 0.950 . S
H1179 C1202 0.950 . S
H1180 C1203 0.950 . S
H1181 C1205 0.950 . S
H1182 C1206 0.950 . S
H1183 C1207 0.951 . S
H1184 C1209 0.951 . S
H1185 C1211 0.950 . S
H1186 C1212 0.950 . S
H1187 C1214 0.950 . S
H1188 C1217 0.950 . S
H1189 C1218 0.950 . S
H1190 C1220 0.950 . S
H1191 C1221 0.950 . S
C1192 H1174 0.951 . S
C1192 C1193 1.366 . S
C1192 C1194 1.388 . S
C1193 C1192 1.366 . S
C1193 C1197 1.385 . S
C1194 H1175 0.951 . S
C1194 C1192 1.388 . S
C1194 C1195 1.366 . S
C1195 C1194 1.366 . S
C1195 C1196 1.414 . S
C1195 C1198 1.499 . S
C1196 H1176 0.950 . S
C1196 C1195 1.414 . S
C1196 C1197 1.374 . S
C1197 H1177 0.950 . S
C1197 C1193 1.385 . S
C1197 C1196 1.374 . S
C1198 C1195 1.499 . S
C1198 C1199 1.373 . S
C1198 C1200 1.389 . S
C1199 H1178 0.950 . S
C1199 C1198 1.373 . S
C1199 C1215 1.377 . S
C1200 C1198 1.389 . S
C1200 C1201 1.524 . S
C1200 C1214 1.377 . S
C1201 C1200 1.524 . S
C1201 C1202 1.397 . S
C1201 C1206 1.363 . S
C1202 H1179 0.950 . S
C1202 C1201 1.397 . S
C1202 C1203 1.334 . S
C1203 H1180 0.950 . S
C1203 C1202 1.334 . S
C1203 C1204 1.287 . S
C1204 C1203 1.287 . S
C1204 C1205 1.524 . S
C1204 H1223 0.913 . S
C1205 H1181 0.950 . S
C1205 C1204 1.524 . S
C1205 C1206 1.415 . S
C1206 H1182 0.950 . S
C1206 C1201 1.363 . S
C1206 C1205 1.415 . S
C1207 H1183 0.951 . S
C1207 C1208 1.366 . S
C1207 C1209 1.388 . S
C1208 C1207 1.366 . S
C1208 C1212 1.385 . S
C1209 H1184 0.951 . S
C1209 C1207 1.388 . S
C1209 C1210 1.366 . S
C1210 C1209 1.366 . S
C1210 C1211 1.414 . S
C1210 C1213 1.499 . S
C1211 H1185 0.950 . S
C1211 C1210 1.414 . S
C1211 C1212 1.374 . S
C1212 H1186 0.950 . S
C1212 C1208 1.385 . S
C1212 C1211 1.374 . S
C1213 C1210 1.499 . S
C1213 C1214 1.373 . S
C1213 C1215 1.389 . S
C1214 H1187 0.950 . S
C1214 C1200 1.377 . S
C1214 C1213 1.373 . S
C1215 C1199 1.377 . S
C1215 C1213 1.389 . S
C1215 C1216 1.524 . S
C1216 C1215 1.524 . S
C1216 C1217 1.397 . S
C1216 C1221 1.363 . S
C1217 H1188 0.950 . S
C1217 C1216 1.397 . S
C1217 C1218 1.334 . S
C1218 H1189 0.950 . S
C1218 C1217 1.334 . S
C1218 C1219 1.287 . S
C1219 C1218 1.287 . S
C1219 C1220 1.524 . S
C1219 H1222 0.999 . S
C1220 H1190 0.950 . S
C1220 C1219 1.524 . S
C1220 C1221 1.415 . S
C1221 H1191 0.950 . S
C1221 C1216 1.363 . S
C1221 C1220 1.415 . S
H1222 C1219 0.999 . S
H1223 C1204 0.913 . S
H1224 C1242 0.951 . S
H1225 C1244 0.951 . S
H1226 C1246 0.950 . S
H1227 C1247 0.950 . S
H1228 C1249 0.950 . S
H1229 C1252 0.950 . S
H1230 C1253 0.950 . S
H1231 C1255 0.950 . S
H1232 C1256 0.950 . S
H1233 C1257 0.951 . S
H1234 C1259 0.951 . S
H1235 C1261 0.950 . S
H1236 C1262 0.950 . S
H1237 C1264 0.950 . S
H1238 C1267 0.950 . S
H1239 C1268 0.950 . S
H1240 C1270 0.950 . S
H1241 C1271 0.950 . S
C1242 H1224 0.951 . S
C1242 C1243 1.366 . S
C1242 C1244 1.388 . S
C1243 C1242 1.366 . S
C1243 C1247 1.385 . S
C1244 H1225 0.951 . S
C1244 C1242 1.388 . S
C1244 C1245 1.366 . S
C1245 C1244 1.366 . S
C1245 C1246 1.414 . S
C1245 C1248 1.499 . S
C1246 H1226 0.950 . S
C1246 C1245 1.414 . S
C1246 C1247 1.374 . S
C1247 H1227 0.950 . S
C1247 C1243 1.385 . S
C1247 C1246 1.374 . S
C1248 C1245 1.499 . S
C1248 C1249 1.373 1_556 S
C1248 C1250 1.389 . S
C1249 H1228 0.950 . S
C1249 C1248 1.373 1_554 S
C1249 C1265 1.377 . S
C1250 C1248 1.389 . S
C1250 C1251 1.524 . S
C1250 C1264 1.377 1_556 S
C1251 C1250 1.524 . S
C1251 C1252 1.397 . S
C1251 C1256 1.363 . S
C1252 H1229 0.950 . S
C1252 C1251 1.397 . S
C1252 C1253 1.334 . S
C1253 H1230 0.950 . S
C1253 C1252 1.334 . S
C1253 C1254 1.287 . S
C1254 C1253 1.287 . S
C1254 C1255 1.524 . S
C1254 H1273 0.913 . S
C1255 H1231 0.950 . S
C1255 C1254 1.524 . S
C1255 C1256 1.415 . S
C1256 H1232 0.950 . S
C1256 C1251 1.363 . S
C1256 C1255 1.415 . S
C1257 H1233 0.951 . S
C1257 C1258 1.366 . S
C1257 C1259 1.388 . S
C1258 C1257 1.366 . S
C1258 C1262 1.385 . S
C1259 H1234 0.951 . S
C1259 C1257 1.388 . S
C1259 C1260 1.366 . S
C1260 C1259 1.366 . S
C1260 C1261 1.414 . S
C1260 C1263 1.499 . S
C1261 H1235 0.950 . S
C1261 C1260 1.414 . S
C1261 C1262 1.374 . S
C1262 H1236 0.950 . S
C1262 C1258 1.385 . S
C1262 C1261 1.374 . S
C1263 C1260 1.499 . S
C1263 C1264 1.373 . S
C1263 C1265 1.389 . S
C1264 H1237 0.950 . S
C1264 C1250 1.377 1_554 S
C1264 C1263 1.373 . S
C1265 C1249 1.377 . S
C1265 C1263 1.389 . S
C1265 C1266 1.524 . S
C1266 C1265 1.524 . S
C1266 C1267 1.397 . S
C1266 C1271 1.363 . S
C1267 H1238 0.950 . S
C1267 C1266 1.397 . S
C1267 C1268 1.334 . S
C1268 H1239 0.950 . S
C1268 C1267 1.334 . S
C1268 C1269 1.287 . S
C1269 C1268 1.287 . S
C1269 C1270 1.524 . S
C1269 H1272 0.999 . S
C1270 H1240 0.950 . S
C1270 C1269 1.524 . S
C1270 C1271 1.415 . S
C1271 H1241 0.950 . S
C1271 C1266 1.363 . S
C1271 C1270 1.415 . S
H1272 C1269 0.999 . S
H1273 C1254 0.913 . S
H1274 C1292 0.951 . S
H1275 C1294 0.951 . S
H1276 C1296 0.950 . S
H1277 C1297 0.950 . S
H1278 C1299 0.950 . S
H1279 C1302 0.950 . S
H1280 C1303 0.950 . S
H1281 C1305 0.950 . S
H1282 C1306 0.950 . S
H1283 C1307 0.951 . S
H1284 C1309 0.951 . S
H1285 C1311 0.950 . S
H1286 C1312 0.950 . S
H1287 C1314 0.950 . S
H1288 C1317 0.950 . S
H1289 C1318 0.950 . S
H1290 C1320 0.950 . S
H1291 C1321 0.950 . S
C1292 H1274 0.951 . S
C1292 C1293 1.366 . S
C1292 C1294 1.388 . S
C1293 C1292 1.366 . S
C1293 C1297 1.385 . S
C1294 H1275 0.951 . S
C1294 C1292 1.388 . S
C1294 C1295 1.366 . S
C1295 C1294 1.366 . S
C1295 C1296 1.414 . S
C1295 C1298 1.499 . S
C1296 H1276 0.950 . S
C1296 C1295 1.414 . S
C1296 C1297 1.374 . S
C1297 H1277 0.950 . S
C1297 C1293 1.385 . S
C1297 C1296 1.374 . S
C1298 C1295 1.499 . S
C1298 C1299 1.373 . S
C1298 C1300 1.389 . S
C1299 H1278 0.950 . S
C1299 C1298 1.373 . S
C1299 C1315 1.377 . S
C1300 C1298 1.389 . S
C1300 C1301 1.524 . S
C1300 C1314 1.377 . S
C1301 C1300 1.524 . S
C1301 C1302 1.397 . S
C1301 C1306 1.363 . S
C1302 H1279 0.950 . S
C1302 C1301 1.397 . S
C1302 C1303 1.334 . S
C1303 H1280 0.950 . S
C1303 C1302 1.334 . S
C1303 C1304 1.287 . S
C1304 C1303 1.287 . S
C1304 C1305 1.524 . S
C1304 H1323 0.913 . S
C1305 H1281 0.950 . S
C1305 C1304 1.524 . S
C1305 C1306 1.415 . S
C1306 H1282 0.950 . S
C1306 C1301 1.363 . S
C1306 C1305 1.415 . S
C1307 H1283 0.951 . S
C1307 C1308 1.366 . S
C1307 C1309 1.388 . S
C1308 C1307 1.366 . S
C1308 C1312 1.385 . S
C1309 H1284 0.951 . S
C1309 C1307 1.388 . S
C1309 C1310 1.366 . S
C1310 C1309 1.366 . S
C1310 C1311 1.414 . S
C1310 C1313 1.499 . S
C1311 H1285 0.950 . S
C1311 C1310 1.414 . S
C1311 C1312 1.374 . S
C1312 H1286 0.950 . S
C1312 C1308 1.385 . S
C1312 C1311 1.374 . S
C1313 C1310 1.499 . S
C1313 C1314 1.373 . S
C1313 C1315 1.389 . S
C1314 H1287 0.950 . S
C1314 C1300 1.377 . S
C1314 C1313 1.373 . S
C1315 C1299 1.377 . S
C1315 C1313 1.389 . S
C1315 C1316 1.524 . S
C1316 C1315 1.524 . S
C1316 C1317 1.397 . S
C1316 C1321 1.363 . S
C1317 H1288 0.950 . S
C1317 C1316 1.397 . S
C1317 C1318 1.334 . S
C1318 H1289 0.950 . S
C1318 C1317 1.334 . S
C1318 C1319 1.287 . S
C1319 C1318 1.287 . S
C1319 C1320 1.524 . S
C1319 H1322 0.999 . S
C1320 H1290 0.950 . S
C1320 C1319 1.524 . S
C1320 C1321 1.415 . S
C1321 H1291 0.950 . S
C1321 C1316 1.363 . S
C1321 C1320 1.415 . S
H1322 C1319 0.999 . S
H1323 C1304 0.913 . S
H1324 C1342 0.951 . S
H1325 C1344 0.951 . S
H1326 C1346 0.950 . S
H1327 C1347 0.950 . S
H1328 C1349 0.950 . S
H1329 C1352 0.950 . S
H1330 C1353 0.950 . S
H1331 C1355 0.950 . S
H1332 C1356 0.950 . S
H1333 C1357 0.951 . S
H1334 C1359 0.951 . S
H1335 C1361 0.950 . S
H1336 C1362 0.950 . S
H1337 C1364 0.950 . S
H1338 C1367 0.950 . S
H1339 C1368 0.950 . S
H1340 C1370 0.950 . S
H1341 C1371 0.950 . S
C1342 H1324 0.951 . S
C1342 C1343 1.366 . S
C1342 C1344 1.388 . S
C1343 C1342 1.366 . S
C1343 C1347 1.385 . S
C1344 H1325 0.951 . S
C1344 C1342 1.388 . S
C1344 C1345 1.366 . S
C1345 C1344 1.366 . S
C1345 C1346 1.414 . S
C1345 C1348 1.499 . S
C1346 H1326 0.950 . S
C1346 C1345 1.414 . S
C1346 C1347 1.374 . S
C1347 H1327 0.950 . S
C1347 C1343 1.385 . S
C1347 C1346 1.374 . S
C1348 C1345 1.499 . S
C1348 C1349 1.373 . S
C1348 C1350 1.389 . S
C1349 H1328 0.950 . S
C1349 C1348 1.373 . S
C1349 C1365 1.377 . S
C1350 C1348 1.389 . S
C1350 C1351 1.524 . S
C1350 C1364 1.377 . S
C1351 C1350 1.524 . S
C1351 C1352 1.397 . S
C1351 C1356 1.363 . S
C1352 H1329 0.950 . S
C1352 C1351 1.397 . S
C1352 C1353 1.334 . S
C1353 H1330 0.950 . S
C1353 C1352 1.334 . S
C1353 C1354 1.287 . S
C1354 C1353 1.287 . S
C1354 C1355 1.524 . S
C1354 H1373 0.913 . S
C1355 H1331 0.950 . S
C1355 C1354 1.524 . S
C1355 C1356 1.415 . S
C1356 H1332 0.950 . S
C1356 C1351 1.363 . S
C1356 C1355 1.415 . S
C1357 H1333 0.951 . S
C1357 C1358 1.366 . S
C1357 C1359 1.388 . S
C1358 C1357 1.366 . S
C1358 C1362 1.385 . S
C1359 H1334 0.951 . S
C1359 C1357 1.388 . S
C1359 C1360 1.366 . S
C1360 C1359 1.366 . S
C1360 C1361 1.414 . S
C1360 C1363 1.499 . S
C1361 H1335 0.950 . S
C1361 C1360 1.414 . S
C1361 C1362 1.374 . S
C1362 H1336 0.950 . S
C1362 C1358 1.385 . S
C1362 C1361 1.374 . S
C1363 C1360 1.499 . S
C1363 C1364 1.373 . S
C1363 C1365 1.389 . S
C1364 H1337 0.950 . S
C1364 C1350 1.377 . S
C1364 C1363 1.373 . S
C1365 C1349 1.377 . S
C1365 C1363 1.389 . S
C1365 C1366 1.524 . S
C1366 C1365 1.524 . S
C1366 C1367 1.397 . S
C1366 C1371 1.363 . S
C1367 H1338 0.950 . S
C1367 C1366 1.397 . S
C1367 C1368 1.334 . S
C1368 H1339 0.950 . S
C1368 C1367 1.334 . S
C1368 C1369 1.287 . S
C1369 C1368 1.287 . S
C1369 C1370 1.524 . S
C1369 H1372 0.999 . S
C1370 H1340 0.950 . S
C1370 C1369 1.524 . S
C1370 C1371 1.415 . S
C1371 H1341 0.950 . S
C1371 C1366 1.363 . S
C1371 C1370 1.415 . S
H1372 C1369 0.999 . S
H1373 C1354 0.913 . S
H1374 C1392 0.951 . S
H1375 C1394 0.951 . S
H1376 C1396 0.950 . S
H1377 C1397 0.950 . S
H1378 C1399 0.950 . S
H1379 C1402 0.950 . S
H1380 C1403 0.950 . S
H1381 C1405 0.950 . S
H1382 C1406 0.950 . S
H1383 C1407 0.951 . S
H1384 C1409 0.951 . S
H1385 C1411 0.950 . S
H1386 C1412 0.950 . S
H1387 C1414 0.950 . S
H1388 C1417 0.950 . S
H1389 C1418 0.950 . S
H1390 C1420 0.950 . S
H1391 C1421 0.950 . S
C1392 H1374 0.951 . S
C1392 C1393 1.366 . S
C1392 C1394 1.388 . S
C1393 C1392 1.366 . S
C1393 C1397 1.385 . S
C1394 H1375 0.951 . S
C1394 C1392 1.388 . S
C1394 C1395 1.366 . S
C1395 C1394 1.366 . S
C1395 C1396 1.414 . S
C1395 C1398 1.499 . S
C1396 H1376 0.950 . S
C1396 C1395 1.414 . S
C1396 C1397 1.374 . S
C1397 H1377 0.950 . S
C1397 C1393 1.385 . S
C1397 C1396 1.374 . S
C1398 C1395 1.499 . S
C1398 C1399 1.373 . S
C1398 C1400 1.389 . S
C1399 H1378 0.950 . S
C1399 C1398 1.373 . S
C1399 C1415 1.377 . S
C1400 C1398 1.389 . S
C1400 C1401 1.524 . S
C1400 C1414 1.377 . S
C1401 C1400 1.524 . S
C1401 C1402 1.397 . S
C1401 C1406 1.363 . S
C1402 H1379 0.950 . S
C1402 C1401 1.397 . S
C1402 C1403 1.334 . S
C1403 H1380 0.950 . S
C1403 C1402 1.334 . S
C1403 C1404 1.287 . S
C1404 C1403 1.287 . S
C1404 C1405 1.524 . S
C1404 H1423 0.913 . S
C1405 H1381 0.950 . S
C1405 C1404 1.524 . S
C1405 C1406 1.415 . S
C1406 H1382 0.950 . S
C1406 C1401 1.363 . S
C1406 C1405 1.415 . S
C1407 H1383 0.951 . S
C1407 C1408 1.366 . S
C1407 C1409 1.388 . S
C1408 C1407 1.366 . S
C1408 C1412 1.385 . S
C1409 H1384 0.951 . S
C1409 C1407 1.388 . S
C1409 C1410 1.366 . S
C1410 C1409 1.366 . S
C1410 C1411 1.414 . S
C1410 C1413 1.499 . S
C1411 H1385 0.950 . S
C1411 C1410 1.414 . S
C1411 C1412 1.374 . S
C1412 H1386 0.950 . S
C1412 C1408 1.385 . S
C1412 C1411 1.374 . S
C1413 C1410 1.499 . S
C1413 C1414 1.373 . S
C1413 C1415 1.389 . S
C1414 H1387 0.950 . S
C1414 C1400 1.377 . S
C1414 C1413 1.373 . S
C1415 C1399 1.377 . S
C1415 C1413 1.389 . S
C1415 C1416 1.524 . S
C1416 C1415 1.524 . S
C1416 C1417 1.397 . S
C1416 C1421 1.363 . S
C1417 H1388 0.950 . S
C1417 C1416 1.397 . S
C1417 C1418 1.334 . S
C1418 H1389 0.950 . S
C1418 C1417 1.334 . S
C1418 C1419 1.287 . S
C1419 C1418 1.287 . S
C1419 C1420 1.524 . S
C1419 H1422 0.999 . S
C1420 H1390 0.950 . S
C1420 C1419 1.524 . S
C1420 C1421 1.415 . S
C1421 H1391 0.950 . S
C1421 C1416 1.363 . S
C1421 C1420 1.415 . S
H1422 C1419 0.999 . S
H1423 C1404 0.913 . S
H1424 C1442 0.951 . S
H1425 C1444 0.951 . S
H1426 C1446 0.950 . S
H1427 C1447 0.950 . S
H1428 C1449 0.950 . S
H1429 C1452 0.950 . S
H1430 C1453 0.950 . S
H1431 C1455 0.950 . S
H1432 C1456 0.950 1_565 S
H1433 C1457 0.951 . S
H1434 C1459 0.951 . S
H1435 C1461 0.950 . S
H1436 C1462 0.950 . S
H1437 C1464 0.950 . S
H1438 C1467 0.950 . S
H1439 C1468 0.950 . S
H1440 C1470 0.950 . S
H1441 C1471 0.950 1_545 S
C1442 H1424 0.951 . S
C1442 C1443 1.366 . S
C1442 C1444 1.388 . S
C1443 C1442 1.366 . S
C1443 C1447 1.385 . S
C1444 H1425 0.951 . S
C1444 C1442 1.388 . S
C1444 C1445 1.366 . S
C1445 C1444 1.366 . S
C1445 C1446 1.414 . S
C1445 C1448 1.499 . S
C1446 H1426 0.950 . S
C1446 C1445 1.414 . S
C1446 C1447 1.374 . S
C1447 H1427 0.950 . S
C1447 C1443 1.385 . S
C1447 C1446 1.374 . S
C1448 C1445 1.499 . S
C1448 C1449 1.373 . S
C1448 C1450 1.389 . S
C1449 H1428 0.950 . S
C1449 C1448 1.373 . S
C1449 C1465 1.377 1_545 S
C1450 C1448 1.389 . S
C1450 C1451 1.524 . S
C1450 C1464 1.377 1_545 S
C1451 C1450 1.524 . S
C1451 C1452 1.397 . S
C1451 C1456 1.363 . S
C1452 H1429 0.950 . S
C1452 C1451 1.397 . S
C1452 C1453 1.334 . S
C1453 H1430 0.950 . S
C1453 C1452 1.334 . S
C1453 C1454 1.287 . S
C1454 C1453 1.287 . S
C1454 C1455 1.524 . S
C1454 H1473 0.913 . S
C1455 H1431 0.950 . S
C1455 C1454 1.524 . S
C1455 C1456 1.415 . S
C1456 H1432 0.950 1_545 S
C1456 C1451 1.363 . S
C1456 C1455 1.415 . S
C1457 H1433 0.951 . S
C1457 C1458 1.366 . S
C1457 C1459 1.388 . S
C1458 C1457 1.366 . S
C1458 C1462 1.385 . S
C1459 H1434 0.951 . S
C1459 C1457 1.388 . S
C1459 C1460 1.366 . S
C1460 C1459 1.366 . S
C1460 C1461 1.414 . S
C1460 C1463 1.499 . S
C1461 H1435 0.950 . S
C1461 C1460 1.414 . S
C1461 C1462 1.374 . S
C1462 H1436 0.950 . S
C1462 C1458 1.385 . S
C1462 C1461 1.374 . S
C1463 C1460 1.499 . S
C1463 C1464 1.373 . S
C1463 C1465 1.389 . S
C1464 H1437 0.950 . S
C1464 C1450 1.377 1_565 S
C1464 C1463 1.373 . S
C1465 C1449 1.377 1_565 S
C1465 C1463 1.389 . S
C1465 C1466 1.524 . S
C1466 C1465 1.524 . S
C1466 C1467 1.397 . S
C1466 C1471 1.363 . S
C1467 H1438 0.950 . S
C1467 C1466 1.397 . S
C1467 C1468 1.334 . S
C1468 H1439 0.950 . S
C1468 C1467 1.334 . S
C1468 C1469 1.287 . S
C1469 C1468 1.287 . S
C1469 C1470 1.524 . S
C1469 H1472 0.999 . S
C1470 H1440 0.950 . S
C1470 C1469 1.524 . S
C1470 C1471 1.415 . S
C1471 H1441 0.950 1_565 S
C1471 C1466 1.363 . S
C1471 C1470 1.415 . S
H1472 C1469 0.999 . S
H1473 C1454 0.913 . S
H1474 C1492 0.951 . S
H1475 C1494 0.951 . S
H1476 C1496 0.950 . S
H1477 C1497 0.950 . S
H1478 C1499 0.950 . S
H1479 C1502 0.950 . S
H1480 C1503 0.950 . S
H1481 C1505 0.950 . S
H1482 C1506 0.950 . S
H1483 C1507 0.951 . S
H1484 C1509 0.951 . S
H1485 C1511 0.950 . S
H1486 C1512 0.950 . S
H1487 C1514 0.950 . S
H1488 C1517 0.950 . S
H1489 C1518 0.950 . S
H1490 C1520 0.950 . S
H1491 C1521 0.950 . S
C1492 H1474 0.951 . S
C1492 C1493 1.366 . S
C1492 C1494 1.388 . S
C1493 C1492 1.366 . S
C1493 C1497 1.385 . S
C1494 H1475 0.951 . S
C1494 C1492 1.388 . S
C1494 C1495 1.366 . S
C1495 C1494 1.366 . S
C1495 C1496 1.414 . S
C1495 C1498 1.499 . S
C1496 H1476 0.950 . S
C1496 C1495 1.414 . S
C1496 C1497 1.374 . S
C1497 H1477 0.950 . S
C1497 C1493 1.385 . S
C1497 C1496 1.374 . S
C1498 C1495 1.499 . S
C1498 C1499 1.373 . S
C1498 C1500 1.389 . S
C1499 H1478 0.950 . S
C1499 C1498 1.373 . S
C1499 C1515 1.377 . S
C1500 C1498 1.389 . S
C1500 C1501 1.524 . S
C1500 C1514 1.377 . S
C1501 C1500 1.524 . S
C1501 C1502 1.397 . S
C1501 C1506 1.363 . S
C1502 H1479 0.950 . S
C1502 C1501 1.397 . S
C1502 C1503 1.334 . S
C1503 H1480 0.950 . S
C1503 C1502 1.334 . S
C1503 C1504 1.287 . S
C1504 C1503 1.287 . S
C1504 C1505 1.524 . S
C1504 H1523 0.913 . S
C1505 H1481 0.950 . S
C1505 C1504 1.524 . S
C1505 C1506 1.415 . S
C1506 H1482 0.950 . S
C1506 C1501 1.363 . S
C1506 C1505 1.415 . S
C1507 H1483 0.951 . S
C1507 C1508 1.366 . S
C1507 C1509 1.388 . S
C1508 C1507 1.366 . S
C1508 C1512 1.385 . S
C1509 H1484 0.951 . S
C1509 C1507 1.388 . S
C1509 C1510 1.366 . S
C1510 C1509 1.366 . S
C1510 C1511 1.414 . S
C1510 C1513 1.499 . S
C1511 H1485 0.950 . S
C1511 C1510 1.414 . S
C1511 C1512 1.374 . S
C1512 H1486 0.950 . S
C1512 C1508 1.385 . S
C1512 C1511 1.374 . S
C1513 C1510 1.499 . S
C1513 C1514 1.373 . S
C1513 C1515 1.389 . S
C1514 H1487 0.950 . S
C1514 C1500 1.377 . S
C1514 C1513 1.373 . S
C1515 C1499 1.377 . S
C1515 C1513 1.389 . S
C1515 C1516 1.524 . S
C1516 C1515 1.524 . S
C1516 C1517 1.397 . S
C1516 C1521 1.363 . S
C1517 H1488 0.950 . S
C1517 C1516 1.397 . S
C1517 C1518 1.334 . S
C1518 H1489 0.950 . S
C1518 C1517 1.334 . S
C1518 C1519 1.287 . S
C1519 C1518 1.287 . S
C1519 C1520 1.524 . S
C1519 H1522 0.999 . S
C1520 H1490 0.950 . S
C1520 C1519 1.524 . S
C1520 C1521 1.415 . S
C1521 H1491 0.950 . S
C1521 C1516 1.363 . S
C1521 C1520 1.415 . S
H1522 C1519 0.999 . S
H1523 C1504 0.913 . S
H1524 C1542 0.951 . S
H1525 C1544 0.951 . S
H1526 C1546 0.950 . S
H1527 C1547 0.950 . S
H1528 C1549 0.950 . S
H1529 C1552 0.950 . S
H1530 C1553 0.950 . S
H1531 C1555 0.950 . S
H1532 C1556 0.950 . S
H1533 C1557 0.951 . S
H1534 C1559 0.951 . S
H1535 C1561 0.950 . S
H1536 C1562 0.950 . S
H1537 C1564 0.950 . S
H1538 C1567 0.950 . S
H1539 C1568 0.950 . S
H1540 C1570 0.950 . S
H1541 C1571 0.950 . S
C1542 H1524 0.951 . S
C1542 C1543 1.366 . S
C1542 C1544 1.388 . S
C1543 C1542 1.366 . S
C1543 C1547 1.385 . S
C1544 H1525 0.951 . S
C1544 C1542 1.388 . S
C1544 C1545 1.366 . S
C1545 C1544 1.366 . S
C1545 C1546 1.414 . S
C1545 C1548 1.499 . S
C1546 H1526 0.950 . S
C1546 C1545 1.414 . S
C1546 C1547 1.374 . S
C1547 H1527 0.950 . S
C1547 C1543 1.385 . S
C1547 C1546 1.374 . S
C1548 C1545 1.499 . S
C1548 C1549 1.373 1_556 S
C1548 C1550 1.393 1_545 S
C1549 H1528 0.950 . S
C1549 C1548 1.373 1_554 S
C1549 C1565 1.377 1_545 S
C1550 C1548 1.393 1_565 S
C1550 C1551 1.524 . S
C1550 C1564 1.372 . S
C1551 C1550 1.524 . S
C1551 C1552 1.388 1_565 S
C1551 C1556 1.378 . S
C1552 H1529 0.950 . S
C1552 C1551 1.388 1_545 S
C1552 C1553 1.334 . S
C1553 H1530 0.950 . S
C1553 C1552 1.334 . S
C1553 C1554 1.287 1_545 S
C1554 C1553 1.287 1_565 S
C1554 C1555 1.524 . S
C1554 H1573 0.913 . S
C1555 H1531 0.950 . S
C1555 C1554 1.524 . S
C1555 C1556 1.415 . S
C1556 H1532 0.950 . S
C1556 C1551 1.378 . S
C1556 C1555 1.415 . S
C1557 H1533 0.951 . S
C1557 C1558 1.366 . S
C1557 C1559 1.388 . S
C1558 C1557 1.366 . S
C1558 C1562 1.385 . S
C1559 H1534 0.951 . S
C1559 C1557 1.388 . S
C1559 C1560 1.366 . S
C1560 C1559 1.366 . S
C1560 C1561 1.414 . S
C1560 C1563 1.499 . S
C1561 H1535 0.950 . S
C1561 C1560 1.414 . S
C1561 C1562 1.374 . S
C1562 H1536 0.950 . S
C1562 C1558 1.385 . S
C1562 C1561 1.374 . S
C1563 C1560 1.499 . S
C1563 C1564 1.373 1_554 S
C1563 C1565 1.389 . S
C1564 H1537 0.950 . S
C1564 C1550 1.372 . S
C1564 C1563 1.373 1_556 S
C1565 C1549 1.377 1_565 S
C1565 C1563 1.389 . S
C1565 C1566 1.524 . S
C1566 C1565 1.524 . S
C1566 C1567 1.397 . S
C1566 C1571 1.363 1_565 S
C1567 H1538 0.950 . S
C1567 C1566 1.397 . S
C1567 C1568 1.334 . S
C1568 H1539 0.950 . S
C1568 C1567 1.334 . S
C1568 C1569 1.287 1_565 S
C1569 C1568 1.287 1_545 S
C1569 C1570 1.524 . S
C1569 H1572 0.999 . S
C1570 H1540 0.950 . S
C1570 C1569 1.524 . S
C1570 C1571 1.415 . S
C1571 H1541 0.950 . S
C1571 C1566 1.363 1_545 S
C1571 C1570 1.415 . S
H1572 C1569 0.999 . S
H1573 C1554 0.913 . S
H1574 C1592 0.951 . S
H1575 C1594 0.951 . S
H1576 C1596 0.950 . S
H1577 C1597 0.950 . S
H1578 C1599 0.950 . S
H1579 C1602 0.950 . S
H1580 C1603 0.950 . S
H1581 C1605 0.950 . S
H1582 C1606 0.950 . S
H1583 C1607 0.951 . S
H1584 C1609 0.951 . S
H1585 C1611 0.950 . S
H1586 C1612 0.950 . S
H1587 C1614 0.950 . S
H1588 C1617 0.950 . S
H1589 C1618 0.950 . S
H1590 C1620 0.950 . S
H1591 C1621 0.950 . S
C1592 H1574 0.951 . S
C1592 C1593 1.366 . S
C1592 C1594 1.388 . S
C1593 C1592 1.366 . S
C1593 C1597 1.385 . S
C1594 H1575 0.951 . S
C1594 C1592 1.388 . S
C1594 C1595 1.366 . S
C1595 C1594 1.366 . S
C1595 C1596 1.414 . S
C1595 C1598 1.499 . S
C1596 H1576 0.950 . S
C1596 C1595 1.414 . S
C1596 C1597 1.374 . S
C1597 H1577 0.950 . S
C1597 C1593 1.385 . S
C1597 C1596 1.374 . S
C1598 C1595 1.499 . S
C1598 C1599 1.373 . S
C1598 C1600 1.389 . S
C1599 H1578 0.950 . S
C1599 C1598 1.373 . S
C1599 C1615 1.377 . S
C1600 C1598 1.389 . S
C1600 C1601 1.524 . S
C1600 C1614 1.377 . S
C1601 C1600 1.524 . S
C1601 C1602 1.397 . S
C1601 C1606 1.363 . S
C1602 H1579 0.950 . S
C1602 C1601 1.397 . S
C1602 C1603 1.334 . S
C1603 H1580 0.950 . S
C1603 C1602 1.334 . S
C1603 C1604 1.287 . S
C1604 C1603 1.287 . S
C1604 C1605 1.524 . S
C1604 H1623 0.913 . S
C1605 H1581 0.950 . S
C1605 C1604 1.524 . S
C1605 C1606 1.415 . S
C1606 H1582 0.950 . S
C1606 C1601 1.363 . S
C1606 C1605 1.415 . S
C1607 H1583 0.951 . S
C1607 C1608 1.366 . S
C1607 C1609 1.388 . S
C1608 C1607 1.366 . S
C1608 C1612 1.385 . S
C1609 H1584 0.951 . S
C1609 C1607 1.388 . S
C1609 C1610 1.366 . S
C1610 C1609 1.366 . S
C1610 C1611 1.414 . S
C1610 C1613 1.499 . S
C1611 H1585 0.950 . S
C1611 C1610 1.414 . S
C1611 C1612 1.374 . S
C1612 H1586 0.950 . S
C1612 C1608 1.385 . S
C1612 C1611 1.374 . S
C1613 C1610 1.499 . S
C1613 C1614 1.373 . S
C1613 C1615 1.389 . S
C1614 H1587 0.950 . S
C1614 C1600 1.377 . S
C1614 C1613 1.373 . S
C1615 C1599 1.377 . S
C1615 C1613 1.389 . S
C1615 C1616 1.524 . S
C1616 C1615 1.524 . S
C1616 C1617 1.397 . S
C1616 C1621 1.363 . S
C1617 H1588 0.950 . S
C1617 C1616 1.397 . S
C1617 C1618 1.334 . S
C1618 H1589 0.950 . S
C1618 C1617 1.334 . S
C1618 C1619 1.287 . S
C1619 C1618 1.287 . S
C1619 C1620 1.524 . S
C1619 H1622 0.999 . S
C1620 H1590 0.950 . S
C1620 C1619 1.524 . S
C1620 C1621 1.415 . S
C1621 H1591 0.950 . S
C1621 C1616 1.363 . S
C1621 C1620 1.415 . S
H1622 C1619 0.999 . S
H1623 C1604 0.913 . S
H1624 C1642 0.951 . S
H1625 C1644 0.951 . S
H1626 C1646 0.950 . S
H1627 C1647 0.950 . S
H1628 C1649 0.950 . S
H1629 C1652 0.950 . S
H1630 C1653 0.950 . S
H1631 C1655 0.971 . S
H1632 C1656 0.950 1_565 S
H1633 C1657 0.951 . S
H1634 C1659 0.951 . S
H1635 C1661 0.950 . S
H1636 C1662 0.950 . S
H1637 C1664 0.950 . S
H1638 C1667 0.950 . S
H1639 C1668 0.950 . S
H1640 C1670 0.950 . S
H1641 C1671 0.950 1_545 S
C1642 H1624 0.951 . S
C1642 C1643 1.366 . S
C1642 C1644 1.388 . S
C1643 C1642 1.366 . S
C1643 C1647 1.385 . S
C1644 H1625 0.951 . S
C1644 C1642 1.388 . S
C1644 C1645 1.366 . S
C1645 C1644 1.366 . S
C1645 C1646 1.414 . S
C1645 C1648 1.499 . S
C1646 H1626 0.950 . S
C1646 C1645 1.414 . S
C1646 C1647 1.374 . S
C1647 H1627 0.950 . S
C1647 C1643 1.385 . S
C1647 C1646 1.374 . S
C1648 C1645 1.499 . S
C1648 C1649 1.373 . S
C1648 C1650 1.389 . S
C1649 H1628 0.950 . S
C1649 C1648 1.373 . S
C1649 C1665 1.377 1_545 S
C1650 C1648 1.389 . S
C1650 C1651 1.524 . S
C1650 C1664 1.377 1_545 S
C1651 C1650 1.524 . S
C1651 C1652 1.397 . S
C1651 C1656 1.363 . S
C1652 H1629 0.950 . S
C1652 C1651 1.397 . S
C1652 C1653 1.334 . S
C1653 H1630 0.950 . S
C1653 C1652 1.334 . S
C1653 C1654 1.287 . S
C1654 C1653 1.287 . S
C1654 C1655 1.524 . S
C1654 H1673 0.913 . S
C1655 H1631 0.971 . S
C1655 C1654 1.524 . S
C1655 C1656 1.415 . S
C1656 H1632 0.950 1_545 S
C1656 C1651 1.363 . S
C1656 C1655 1.415 . S
C1657 H1633 0.951 . S
C1657 C1658 1.366 . S
C1657 C1659 1.388 . S
C1658 C1657 1.366 . S
C1658 C1662 1.385 . S
C1659 H1634 0.951 . S
C1659 C1657 1.388 . S
C1659 C1660 1.366 . S
C1660 C1659 1.366 . S
C1660 C1661 1.414 . S
C1660 C1663 1.499 . S
C1661 H1635 0.950 . S
C1661 C1660 1.414 . S
C1661 C1662 1.374 . S
C1662 H1636 0.950 . S
C1662 C1658 1.385 . S
C1662 C1661 1.374 . S
C1663 C1660 1.499 . S
C1663 C1664 1.373 . S
C1663 C1665 1.389 . S
C1664 H1637 0.950 . S
C1664 C1650 1.377 1_565 S
C1664 C1663 1.373 . S
C1665 C1649 1.377 1_565 S
C1665 C1663 1.389 . S
C1665 C1666 1.524 . S
C1666 C1665 1.524 . S
C1666 C1667 1.397 . S
C1666 C1671 1.363 . S
C1667 H1638 0.950 . S
C1667 C1666 1.397 . S
C1667 C1668 1.334 . S
C1668 H1639 0.950 . S
C1668 C1667 1.334 . S
C1668 C1669 1.287 . S
C1669 C1668 1.287 . S
C1669 C1670 1.524 . S
C1669 H1672 0.999 . S
C1670 H1640 0.950 . S
C1670 C1669 1.524 . S
C1670 C1671 1.415 . S
C1671 H1641 0.950 1_565 S
C1671 C1666 1.363 . S
C1671 C1670 1.415 . S
H1672 C1669 0.999 . S
H1673 C1654 0.913 . S
H1674 C1692 0.951 . S
H1675 C1694 0.951 . S
H1676 C1696 0.950 . S
H1677 C1697 0.950 . S
H1678 C1699 0.950 . S
H1679 C1702 0.950 . S
H1680 C1703 0.950 . S
H1681 C1705 0.950 . S
H1682 C1706 0.950 . S
H1683 C1707 0.951 . S
H1684 C1709 0.951 . S
H1685 C1711 0.950 . S
H1686 C1712 0.950 . S
H1687 C1714 0.950 . S
H1688 C1717 0.950 . S
H1689 C1718 0.950 . S
H1690 C1720 0.950 . S
H1691 C1721 0.950 . S
C1692 H1674 0.951 . S
C1692 C1693 1.366 . S
C1692 C1694 1.388 . S
C1693 C1692 1.366 . S
C1693 C1697 1.385 . S
C1694 H1675 0.951 . S
C1694 C1692 1.388 . S
C1694 C1695 1.366 . S
C1695 C1694 1.366 . S
C1695 C1696 1.414 . S
C1695 C1698 1.499 . S
C1696 H1676 0.950 . S
C1696 C1695 1.414 . S
C1696 C1697 1.374 . S
C1697 H1677 0.950 . S
C1697 C1693 1.385 . S
C1697 C1696 1.374 . S
C1698 C1695 1.499 . S
C1698 C1699 1.373 . S
C1698 C1700 1.389 . S
C1699 H1678 0.950 . S
C1699 C1698 1.373 . S
C1699 C1715 1.377 . S
C1700 C1698 1.389 . S
C1700 C1701 1.524 . S
C1700 C1714 1.377 . S
C1701 C1700 1.524 . S
C1701 C1702 1.397 . S
C1701 C1706 1.363 . S
C1702 H1679 0.950 . S
C1702 C1701 1.397 . S
C1702 C1703 1.334 . S
C1703 H1680 0.950 . S
C1703 C1702 1.334 . S
C1703 C1704 1.287 . S
C1704 C1703 1.287 . S
C1704 C1705 1.524 . S
C1704 H1723 0.913 . S
C1705 H1681 0.950 . S
C1705 C1704 1.524 . S
C1705 C1706 1.415 . S
C1706 H1682 0.950 . S
C1706 C1701 1.363 . S
C1706 C1705 1.415 . S
C1707 H1683 0.951 . S
C1707 C1708 1.366 . S
C1707 C1709 1.388 . S
C1708 C1707 1.366 . S
C1708 C1712 1.385 . S
C1709 H1684 0.951 . S
C1709 C1707 1.388 . S
C1709 C1710 1.366 . S
C1710 C1709 1.366 . S
C1710 C1711 1.414 . S
C1710 C1713 1.499 . S
C1711 H1685 0.950 . S
C1711 C1710 1.414 . S
C1711 C1712 1.374 . S
C1712 H1686 0.950 . S
C1712 C1708 1.385 . S
C1712 C1711 1.374 . S
C1713 C1710 1.499 . S
C1713 C1714 1.373 . S
C1713 C1715 1.389 . S
C1714 H1687 0.950 . S
C1714 C1700 1.377 . S
C1714 C1713 1.373 . S
C1715 C1699 1.377 . S
C1715 C1713 1.389 . S
C1715 C1716 1.524 . S
C1716 C1715 1.524 . S
C1716 C1717 1.397 . S
C1716 C1721 1.363 . S
C1717 H1688 0.950 . S
C1717 C1716 1.397 . S
C1717 C1718 1.334 . S
C1718 H1689 0.950 . S
C1718 C1717 1.334 . S
C1718 C1719 1.287 . S
C1719 C1718 1.287 . S
C1719 C1720 1.524 . S
C1719 H1722 0.999 . S
C1720 H1690 0.950 . S
C1720 C1719 1.524 . S
C1720 C1721 1.415 . S
C1721 H1691 0.950 . S
C1721 C1716 1.363 . S
C1721 C1720 1.415 . S
H1722 C1719 0.999 . S
H1723 C1704 0.913 . S
H1724 C1742 0.951 . S
H1725 C1744 0.951 . S
H1726 C1746 0.950 1_556 S
H1727 C1747 0.950 . S
H1728 C1749 0.950 . S
H1729 C1752 0.950 . S
H1730 C1753 0.950 . S
H1731 C1755 0.950 . S
H1732 C1756 0.950 . S
H1733 C1757 0.951 . S
H1734 C1759 0.951 . S
H1735 C1761 0.950 . S
H1736 C1762 0.950 . S
H1737 C1764 0.950 . S
H1738 C1767 0.950 . S
H1739 C1768 0.950 . S
H1740 C1770 0.950 . S
H1741 C1771 0.950 . S
C1742 H1724 0.951 . S
C1742 C1743 1.366 . S
C1742 C1744 1.388 . S
C1743 C1742 1.366 . S
C1743 C1747 1.385 . S
C1744 H1725 0.951 . S
C1744 C1742 1.388 . S
C1744 C1745 1.366 . S
C1745 C1744 1.366 . S
C1745 C1746 1.414 . S
C1745 C1748 1.499 . S
C1746 H1726 0.950 1_554 S
C1746 C1745 1.414 . S
C1746 C1747 1.374 . S
C1747 H1727 0.950 . S
C1747 C1743 1.385 . S
C1747 C1746 1.374 . S
C1748 C1745 1.499 . S
C1748 C1749 1.373 1_554 S
C1748 C1750 1.389 1_565 S
C1749 H1728 0.950 . S
C1749 C1748 1.373 1_556 S
C1749 C1765 1.377 1_565 S
C1750 C1748 1.389 1_545 S
C1750 C1751 1.524 . S
C1750 C1764 1.377 . S
C1751 C1750 1.524 . S
C1751 C1752 1.397 1_545 S
C1751 C1756 1.363 . S
C1752 H1729 0.950 . S
C1752 C1751 1.397 1_565 S
C1752 C1753 1.334 . S
C1753 H1730 0.950 . S
C1753 C1752 1.334 . S
C1753 C1754 1.287 1_565 S
C1754 C1753 1.287 1_545 S
C1754 C1755 1.524 . S
C1754 H1773 0.913 . S
C1755 H1731 0.950 . S
C1755 C1754 1.524 . S
C1755 C1756 1.415 . S
C1756 H1732 0.950 . S
C1756 C1751 1.363 . S
C1756 C1755 1.415 . S
C1757 H1733 0.951 . S
C1757 C1758 1.366 . S
C1757 C1759 1.388 . S
C1758 C1757 1.366 . S
C1758 C1762 1.385 . S
C1759 H1734 0.951 . S
C1759 C1757 1.388 . S
C1759 C1760 1.366 . S
C1760 C1759 1.366 . S
C1760 C1761 1.414 . S
C1760 C1763 1.499 . S
C1761 H1735 0.950 . S
C1761 C1760 1.414 . S
C1761 C1762 1.374 . S
C1762 H1736 0.950 . S
C1762 C1758 1.385 . S
C1762 C1761 1.374 . S
C1763 C1760 1.499 . S
C1763 C1764 1.373 1_556 S
C1763 C1765 1.389 . S
C1764 H1737 0.950 . S
C1764 C1750 1.377 . S
C1764 C1763 1.373 1_554 S
C1765 C1749 1.377 1_545 S
C1765 C1763 1.389 . S
C1765 C1766 1.524 . S
C1766 C1765 1.524 . S
C1766 C1767 1.397 . S
C1766 C1771 1.363 1_545 S
C1767 H1738 0.950 . S
C1767 C1766 1.397 . S
C1767 C1768 1.334 . S
C1768 H1739 0.950 . S
C1768 C1767 1.334 . S
C1768 C1769 1.287 . S
C1769 C1768 1.287 . S
C1769 C1770 1.524 1_545 S
C1769 H1772 0.999 . S
C1770 H1740 0.950 . S
C1770 C1769 1.524 1_565 S
C1770 C1771 1.415 . S
C1771 H1741 0.950 . S
C1771 C1766 1.363 1_565 S
C1771 C1770 1.415 . S
H1772 C1769 0.999 . S
H1773 C1754 0.913 . S
H1774 C1792 0.951 . S
H1775 C1794 0.951 . S
H1776 C1796 0.950 . S
H1777 C1797 0.950 . S
H1778 C1799 0.950 . S
H1779 C1802 0.950 . S
H1780 C1803 0.950 . S
H1781 C1805 0.950 . S
H1782 C1806 0.950 . S
H1783 C1807 0.951 . S
H1784 C1809 0.951 . S
H1785 C1811 0.950 . S
H1786 C1812 0.950 . S
H1787 C1814 0.950 . S
H1788 C1817 0.950 . S
H1789 C1818 0.950 . S
H1790 C1820 0.950 . S
H1791 C1821 0.950 . S
C1792 H1774 0.951 . S
C1792 C1793 1.366 . S
C1792 C1794 1.388 . S
C1793 C1792 1.366 . S
C1793 C1797 1.385 . S
C1794 H1775 0.951 . S
C1794 C1792 1.388 . S
C1794 C1795 1.366 . S
C1795 C1794 1.366 . S
C1795 C1796 1.414 . S
C1795 C1798 1.499 . S
C1796 H1776 0.950 . S
C1796 C1795 1.414 . S
C1796 C1797 1.374 . S
C1797 H1777 0.950 . S
C1797 C1793 1.385 . S
C1797 C1796 1.374 . S
C1798 C1795 1.499 . S
C1798 C1799 1.373 . S
C1798 C1800 1.389 . S
C1799 H1778 0.950 . S
C1799 C1798 1.373 . S
C1799 C1815 1.377 . S
C1800 C1798 1.389 . S
C1800 C1801 1.524 . S
C1800 C1814 1.377 . S
C1801 C1800 1.524 . S
C1801 C1802 1.397 . S
C1801 C1806 1.363 . S
C1802 H1779 0.950 . S
C1802 C1801 1.397 . S
C1802 C1803 1.334 . S
C1803 H1780 0.950 . S
C1803 C1802 1.334 . S
C1803 C1804 1.287 . S
C1804 C1803 1.287 . S
C1804 C1805 1.524 . S
C1804 H1823 0.913 . S
C1805 H1781 0.950 . S
C1805 C1804 1.524 . S
C1805 C1806 1.415 . S
C1806 H1782 0.950 . S
C1806 C1801 1.363 . S
C1806 C1805 1.415 . S
C1807 H1783 0.951 . S
C1807 C1808 1.366 . S
C1807 C1809 1.388 . S
C1808 C1807 1.366 . S
C1808 C1812 1.385 . S
C1809 H1784 0.951 . S
C1809 C1807 1.388 . S
C1809 C1810 1.366 . S
C1810 C1809 1.366 . S
C1810 C1811 1.414 . S
C1810 C1813 1.499 . S
C1811 H1785 0.950 . S
C1811 C1810 1.414 . S
C1811 C1812 1.374 . S
C1812 H1786 0.950 . S
C1812 C1808 1.385 . S
C1812 C1811 1.374 . S
C1813 C1810 1.499 . S
C1813 C1814 1.373 . S
C1813 C1815 1.389 . S
C1814 H1787 0.950 . S
C1814 C1800 1.377 . S
C1814 C1813 1.373 . S
C1815 C1799 1.377 . S
C1815 C1813 1.389 . S
C1815 C1816 1.524 . S
C1816 C1815 1.524 . S
C1816 C1817 1.397 . S
C1816 C1821 1.363 . S
C1817 H1788 0.950 . S
C1817 C1816 1.397 . S
C1817 C1818 1.334 . S
C1818 H1789 0.950 . S
C1818 C1817 1.334 . S
C1818 C1819 1.287 . S
C1819 C1818 1.287 . S
C1819 C1820 1.524 . S
C1819 H1822 0.999 . S
C1820 H1790 0.950 . S
C1820 C1819 1.524 . S
C1820 C1821 1.415 . S
C1821 H1791 0.950 . S
C1821 C1816 1.363 . S
C1821 C1820 1.415 . S
H1822 C1819 0.999 . S
H1823 C1804 0.913 . S
C243 C159 1.299 . S
C258 C5 1.297 . S
C293 C215 1.377 . S
C308 C23 1.370 . S
C343 C33 1.322 . S
C358 C135 1.313 . S
C393 C187 1.348 . S
C408 C51 1.343 . S
C443 C61 1.284 . S
C458 C191 1.274 . S
C493 C79 1.360 . S
C508 C163 1.359 . S
C543 C89 1.320 . S
C558 C219 1.314 . S
C593 C107 1.341 . S
C608 C131 1.348 . S
C643 C47 1.281 . S
C658 C117 1.284 . S
C693 C145 1.245 . S
C708 C19 1.245 . S
C743 C177 1.261 . S
C758 C75 1.267 . S
C793 C201 1.245 . S
C808 C103 1.243 . S
C843 C65 1.402 . S
C858 C121 1.403 . S
C893 C149 1.373 . S
C908 C93 1.376 . S
C943 C205 1.403 . S
C958 C37 1.405 . S
C993 C9 1.386 . S
C1008 C173 1.391 . S
C1043 C11 1.172 . S
C1058 C67 1.171 . S
C1093 C14 1.295 . S
C1108 C70 1.295 . S
C1143 C39 1.256 . S
C1158 C95 1.256 . S
C1193 C98 1.226 . S
C1208 C42 1.226 . S
C1243 C123 1.233 . S
C1258 C168 1.228 . S
C1293 C193 1.177 . S
C1308 C137 1.177 . S
C1343 C151 1.162 . S
C1358 C207 1.162 . S
C1393 C221 1.237 . S
C1408 C154 1.233 . S
C1443 C109 1.072 . S
C1458 C25 1.073 . S
C1493 C28 1.385 . S
C1508 C56 1.386 . S
C1543 C53 1.156 . S
C1558 C81 1.156 . S
C1593 C0 1.315 . S
C1608 C84 1.314 . S
C1643 C126 1.270 . S
C1658 C210 1.269 . S
C1693 C179 1.215 . S
C1708 C140 1.210 . S
C1743 C165 1.204 . S
C1758 C182 1.199 . S
C1793 C196 1.270 . S
C1808 C112 1.270 . S
