# Generated by pormake.
# Topology uko, (4)-cn, num edge types: 1
# Building blocks:
#     Node 0, Type 0, BuildingBlock: QUQFOY_clean_sbu_1, # of connection points: 4
#     Node 1, Type 0, BuildingBlock: QUQFOY_clean_sbu_1, # of connection points: 4
#     Node 2, Type 0, BuildingBlock: QUQFOY_clean_sbu_1, # of connection points: 4
#     Node 3, Type 0, BuildingBlock: QUQFOY_clean_sbu_1, # of connection points: 4
#     Node 4, Type 0, BuildingBlock: QUQFOY_clean_sbu_1, # of connection points: 4
#     Node 5, Type 0, BuildingBlock: QUQFOY_clean_sbu_1, # of connection points: 4
#     Node 6, Type 0, BuildingBlock: QUQFOY_clean_sbu_1, # of connection points: 4
#     Node 7, Type 0, BuildingBlock: QUQFOY_clean_sbu_1, # of connection points: 4
#     Node 8, Type 0, BuildingBlock: QUQFOY_clean_sbu_1, # of connection points: 4
#     Node 9, Type 0, BuildingBlock: QUQFOY_clean_sbu_1, # of connection points: 4
#     Node 10, Type 0, BuildingBlock: QUQFOY_clean_sbu_1, # of connection points: 4
#     Node 11, Type 0, BuildingBlock: QUQFOY_clean_sbu_1, # of connection points: 4
#     Node 12, Type 0, BuildingBlock: QUQFOY_clean_sbu_1, # of connection points: 4
#     Node 13, Type 0, BuildingBlock: QUQFOY_clean_sbu_1, # of connection points: 4
#     Node 14, Type 0, BuildingBlock: QUQFOY_clean_sbu_1, # of connection points: 4
#     Node 15, Type 0, BuildingBlock: QUQFOY_clean_sbu_1, # of connection points: 4
#     Node 16, Type 0, BuildingBlock: QUQFOY_clean_sbu_1, # of connection points: 4
#     Node 17, Type 0, BuildingBlock: QUQFOY_clean_sbu_1, # of connection points: 4
#     Node 18, Type 0, BuildingBlock: QUQFOY_clean_sbu_1, # of connection points: 4
#     Node 19, Type 0, BuildingBlock: QUQFOY_clean_sbu_1, # of connection points: 4
#     Node 20, Type 0, BuildingBlock: QUQFOY_clean_sbu_1, # of connection points: 4
#     Node 21, Type 0, BuildingBlock: QUQFOY_clean_sbu_1, # of connection points: 4
#     Node 22, Type 0, BuildingBlock: QUQFOY_clean_sbu_1, # of connection points: 4
#     Node 23, Type 0, BuildingBlock: QUQFOY_clean_sbu_1, # of connection points: 4
#     Node 24, Type 0, BuildingBlock: QUQFOY_clean_sbu_1, # of connection points: 4
#     Node 25, Type 0, BuildingBlock: QUQFOY_clean_sbu_1, # of connection points: 4
#     Node 26, Type 0, BuildingBlock: QUQFOY_clean_sbu_1, # of connection points: 4
#     Node 27, Type 0, BuildingBlock: QUQFOY_clean_sbu_1, # of connection points: 4
#     Node 28, Type 0, BuildingBlock: QUQFOY_clean_sbu_1, # of connection points: 4
#     Node 29, Type 0, BuildingBlock: QUQFOY_clean_sbu_1, # of connection points: 4
#     Node 30, Type 0, BuildingBlock: QUQFOY_clean_sbu_1, # of connection points: 4
#     Node 31, Type 0, BuildingBlock: QUQFOY_clean_sbu_1, # of connection points: 4
#     Node 32, Type 0, BuildingBlock: QUQFOY_clean_sbu_1, # of connection points: 4
#     Node 33, Type 0, BuildingBlock: QUQFOY_clean_sbu_1, # of connection points: 4
#     Node 34, Type 0, BuildingBlock: QUQFOY_clean_sbu_1, # of connection points: 4
#     Node 35, Type 0, BuildingBlock: QUQFOY_clean_sbu_1, # of connection points: 4
#     Node 36, Type 0, BuildingBlock: QUQFOY_clean_sbu_1, # of connection points: 4
#     Node 37, Type 0, BuildingBlock: QUQFOY_clean_sbu_1, # of connection points: 4
#     Node 38, Type 0, BuildingBlock: QUQFOY_clean_sbu_1, # of connection points: 4
#     Node 39, Type 0, BuildingBlock: QUQFOY_clean_sbu_1, # of connection points: 4
#     Node 40, Type 0, BuildingBlock: QUQFOY_clean_sbu_1, # of connection points: 4
#     Node 41, Type 0, BuildingBlock: QUQFOY_clean_sbu_1, # of connection points: 4
#     Node 42, Type 0, BuildingBlock: QUQFOY_clean_sbu_1, # of connection points: 4
#     Node 43, Type 0, BuildingBlock: QUQFOY_clean_sbu_1, # of connection points: 4
#     Node 44, Type 0, BuildingBlock: QUQFOY_clean_sbu_1, # of connection points: 4
#     Node 45, Type 0, BuildingBlock: QUQFOY_clean_sbu_1, # of connection points: 4
#     Node 46, Type 0, BuildingBlock: QUQFOY_clean_sbu_1, # of connection points: 4
#     Node 47, Type 0, BuildingBlock: QUQFOY_clean_sbu_1, # of connection points: 4
#     Edge 48, Type (0, 0), BuildingBlock: CIFDUS_clean_linker_0, # of connection points: 2
#     Edge 49, Type (0, 0), BuildingBlock: CIFDUS_clean_linker_0, # of connection points: 2
#     Edge 50, Type (0, 0), BuildingBlock: CIFDUS_clean_linker_0, # of connection points: 2
#     Edge 51, Type (0, 0), BuildingBlock: CIFDUS_clean_linker_0, # of connection points: 2
#     Edge 52, Type (0, 0), BuildingBlock: CIFDUS_clean_linker_0, # of connection points: 2
#     Edge 53, Type (0, 0), BuildingBlock: CIFDUS_clean_linker_0, # of connection points: 2
#     Edge 54, Type (0, 0), BuildingBlock: CIFDUS_clean_linker_0, # of connection points: 2
#     Edge 55, Type (0, 0), BuildingBlock: CIFDUS_clean_linker_0, # of connection points: 2
#     Edge 56, Type (0, 0), BuildingBlock: CIFDUS_clean_linker_0, # of connection points: 2
#     Edge 57, Type (0, 0), BuildingBlock: CIFDUS_clean_linker_0, # of connection points: 2
#     Edge 58, Type (0, 0), BuildingBlock: CIFDUS_clean_linker_0, # of connection points: 2
#     Edge 59, Type (0, 0), BuildingBlock: CIFDUS_clean_linker_0, # of connection points: 2
#     Edge 60, Type (0, 0), BuildingBlock: CIFDUS_clean_linker_0, # of connection points: 2
#     Edge 61, Type (0, 0), BuildingBlock: CIFDUS_clean_linker_0, # of connection points: 2
#     Edge 62, Type (0, 0), BuildingBlock: CIFDUS_clean_linker_0, # of connection points: 2
#     Edge 63, Type (0, 0), BuildingBlock: CIFDUS_clean_linker_0, # of connection points: 2
#     Edge 64, Type (0, 0), BuildingBlock: CIFDUS_clean_linker_0, # of connection points: 2
#     Edge 65, Type (0, 0), BuildingBlock: CIFDUS_clean_linker_0, # of connection points: 2
#     Edge 66, Type (0, 0), BuildingBlock: CIFDUS_clean_linker_0, # of connection points: 2
#     Edge 67, Type (0, 0), BuildingBlock: CIFDUS_clean_linker_0, # of connection points: 2
#     Edge 68, Type (0, 0), BuildingBlock: CIFDUS_clean_linker_0, # of connection points: 2
#     Edge 69, Type (0, 0), BuildingBlock: CIFDUS_clean_linker_0, # of connection points: 2
#     Edge 70, Type (0, 0), BuildingBlock: CIFDUS_clean_linker_0, # of connection points: 2
#     Edge 71, Type (0, 0), BuildingBlock: CIFDUS_clean_linker_0, # of connection points: 2
#     Edge 72, Type (0, 0), BuildingBlock: CIFDUS_clean_linker_0, # of connection points: 2
#     Edge 73, Type (0, 0), BuildingBlock: CIFDUS_clean_linker_0, # of connection points: 2
#     Edge 74, Type (0, 0), BuildingBlock: CIFDUS_clean_linker_0, # of connection points: 2
#     Edge 75, Type (0, 0), BuildingBlock: CIFDUS_clean_linker_0, # of connection points: 2
#     Edge 76, Type (0, 0), BuildingBlock: CIFDUS_clean_linker_0, # of connection points: 2
#     Edge 77, Type (0, 0), BuildingBlock: CIFDUS_clean_linker_0, # of connection points: 2
#     Edge 78, Type (0, 0), BuildingBlock: CIFDUS_clean_linker_0, # of connection points: 2
#     Edge 79, Type (0, 0), BuildingBlock: CIFDUS_clean_linker_0, # of connection points: 2
#     Edge 80, Type (0, 0), BuildingBlock: CIFDUS_clean_linker_0, # of connection points: 2
#     Edge 81, Type (0, 0), BuildingBlock: CIFDUS_clean_linker_0, # of connection points: 2
#     Edge 82, Type (0, 0), BuildingBlock: CIFDUS_clean_linker_0, # of connection points: 2
#     Edge 83, Type (0, 0), BuildingBlock: CIFDUS_clean_linker_0, # of connection points: 2
#     Edge 84, Type (0, 0), BuildingBlock: CIFDUS_clean_linker_0, # of connection points: 2
#     Edge 85, Type (0, 0), BuildingBlock: CIFDUS_clean_linker_0, # of connection points: 2
#     Edge 86, Type (0, 0), BuildingBlock: CIFDUS_clean_linker_0, # of connection points: 2
#     Edge 87, Type (0, 0), BuildingBlock: CIFDUS_clean_linker_0, # of connection points: 2
#     Edge 88, Type (0, 0), BuildingBlock: CIFDUS_clean_linker_0, # of connection points: 2
#     Edge 89, Type (0, 0), BuildingBlock: CIFDUS_clean_linker_0, # of connection points: 2
#     Edge 90, Type (0, 0), BuildingBlock: CIFDUS_clean_linker_0, # of connection points: 2
#     Edge 91, Type (0, 0), BuildingBlock: CIFDUS_clean_linker_0, # of connection points: 2
#     Edge 92, Type (0, 0), BuildingBlock: CIFDUS_clean_linker_0, # of connection points: 2
#     Edge 93, Type (0, 0), BuildingBlock: CIFDUS_clean_linker_0, # of connection points: 2
#     Edge 94, Type (0, 0), BuildingBlock: CIFDUS_clean_linker_0, # of connection points: 2
#     Edge 95, Type (0, 0), BuildingBlock: CIFDUS_clean_linker_0, # of connection points: 2
#     Edge 96, Type (0, 0), BuildingBlock: CIFDUS_clean_linker_0, # of connection points: 2
#     Edge 97, Type (0, 0), BuildingBlock: CIFDUS_clean_linker_0, # of connection points: 2
#     Edge 98, Type (0, 0), BuildingBlock: CIFDUS_clean_linker_0, # of connection points: 2
#     Edge 99, Type (0, 0), BuildingBlock: CIFDUS_clean_linker_0, # of connection points: 2
#     Edge 100, Type (0, 0), BuildingBlock: CIFDUS_clean_linker_0, # of connection points: 2
#     Edge 101, Type (0, 0), BuildingBlock: CIFDUS_clean_linker_0, # of connection points: 2
#     Edge 102, Type (0, 0), BuildingBlock: CIFDUS_clean_linker_0, # of connection points: 2
#     Edge 103, Type (0, 0), BuildingBlock: CIFDUS_clean_linker_0, # of connection points: 2
#     Edge 104, Type (0, 0), BuildingBlock: CIFDUS_clean_linker_0, # of connection points: 2
#     Edge 105, Type (0, 0), BuildingBlock: CIFDUS_clean_linker_0, # of connection points: 2
#     Edge 106, Type (0, 0), BuildingBlock: CIFDUS_clean_linker_0, # of connection points: 2
#     Edge 107, Type (0, 0), BuildingBlock: CIFDUS_clean_linker_0, # of connection points: 2
#     Edge 108, Type (0, 0), BuildingBlock: CIFDUS_clean_linker_0, # of connection points: 2
#     Edge 109, Type (0, 0), BuildingBlock: CIFDUS_clean_linker_0, # of connection points: 2
#     Edge 110, Type (0, 0), BuildingBlock: CIFDUS_clean_linker_0, # of connection points: 2
#     Edge 111, Type (0, 0), BuildingBlock: CIFDUS_clean_linker_0, # of connection points: 2
#     Edge 112, Type (0, 0), BuildingBlock: CIFDUS_clean_linker_0, # of connection points: 2
#     Edge 113, Type (0, 0), BuildingBlock: CIFDUS_clean_linker_0, # of connection points: 2
#     Edge 114, Type (0, 0), BuildingBlock: CIFDUS_clean_linker_0, # of connection points: 2
#     Edge 115, Type (0, 0), BuildingBlock: CIFDUS_clean_linker_0, # of connection points: 2
#     Edge 116, Type (0, 0), BuildingBlock: CIFDUS_clean_linker_0, # of connection points: 2
#     Edge 117, Type (0, 0), BuildingBlock: CIFDUS_clean_linker_0, # of connection points: 2
#     Edge 118, Type (0, 0), BuildingBlock: CIFDUS_clean_linker_0, # of connection points: 2
#     Edge 119, Type (0, 0), BuildingBlock: CIFDUS_clean_linker_0, # of connection points: 2
#     Edge 120, Type (0, 0), BuildingBlock: CIFDUS_clean_linker_0, # of connection points: 2
#     Edge 121, Type (0, 0), BuildingBlock: CIFDUS_clean_linker_0, # of connection points: 2
#     Edge 122, Type (0, 0), BuildingBlock: CIFDUS_clean_linker_0, # of connection points: 2
#     Edge 123, Type (0, 0), BuildingBlock: CIFDUS_clean_linker_0, # of connection points: 2
#     Edge 124, Type (0, 0), BuildingBlock: CIFDUS_clean_linker_0, # of connection points: 2
#     Edge 125, Type (0, 0), BuildingBlock: CIFDUS_clean_linker_0, # of connection points: 2
#     Edge 126, Type (0, 0), BuildingBlock: CIFDUS_clean_linker_0, # of connection points: 2
#     Edge 127, Type (0, 0), BuildingBlock: CIFDUS_clean_linker_0, # of connection points: 2
#     Edge 128, Type (0, 0), BuildingBlock: CIFDUS_clean_linker_0, # of connection points: 2
#     Edge 129, Type (0, 0), BuildingBlock: CIFDUS_clean_linker_0, # of connection points: 2
#     Edge 130, Type (0, 0), BuildingBlock: CIFDUS_clean_linker_0, # of connection points: 2
#     Edge 131, Type (0, 0), BuildingBlock: CIFDUS_clean_linker_0, # of connection points: 2
#     Edge 132, Type (0, 0), BuildingBlock: CIFDUS_clean_linker_0, # of connection points: 2
#     Edge 133, Type (0, 0), BuildingBlock: CIFDUS_clean_linker_0, # of connection points: 2
#     Edge 134, Type (0, 0), BuildingBlock: CIFDUS_clean_linker_0, # of connection points: 2
#     Edge 135, Type (0, 0), BuildingBlock: CIFDUS_clean_linker_0, # of connection points: 2
#     Edge 136, Type (0, 0), BuildingBlock: CIFDUS_clean_linker_0, # of connection points: 2
#     Edge 137, Type (0, 0), BuildingBlock: CIFDUS_clean_linker_0, # of connection points: 2
#     Edge 138, Type (0, 0), BuildingBlock: CIFDUS_clean_linker_0, # of connection points: 2
#     Edge 139, Type (0, 0), BuildingBlock: CIFDUS_clean_linker_0, # of connection points: 2
#     Edge 140, Type (0, 0), BuildingBlock: CIFDUS_clean_linker_0, # of connection points: 2
#     Edge 141, Type (0, 0), BuildingBlock: CIFDUS_clean_linker_0, # of connection points: 2
#     Edge 142, Type (0, 0), BuildingBlock: CIFDUS_clean_linker_0, # of connection points: 2
#     Edge 143, Type (0, 0), BuildingBlock: CIFDUS_clean_linker_0, # of connection points: 2
# Relax obj value: 0.229
# Max RMSD: 0.109
# Mean RMSD: 0.109
data_MOF--net-uko--node1-QUQFOY_clean_sbu_1--edge1-CIFDUS_clean_linker_0
_symmetry_space_group_name_H-M    P1
_symmetry_Int_Tables_number       1
_symmetry_cell_setting            triclinic
loop_
_symmetry_equiv_pos_as_xyz
'x, y, z'
_cell_length_a     50.003065
_cell_length_b     49.95753
_cell_length_c     50.01368
_cell_angle_alpha  90.00349
_cell_angle_beta   89.971745
_cell_angle_gamma 90.012891
loop_
_atom_site_label
_atom_site_type_symbol
_atom_site_fract_x
_atom_site_fract_y
_atom_site_fract_z
_atom_type_partial_charge
O0 O 0.01866 0.35255 0.3114 0.0
Cd1 Cd 0.00311 0.36248 0.27405 0.0
Cd2 Cd 0.04732 0.39422 0.27582 0.0
O3 O 0.059 0.36968 0.30626 0.0
O4 O 0.97594 0.33396 0.26725 0.0
O5 O 0.01437 0.33632 0.24544 0.0
C6 C 0.99256 0.32339 0.25058 0.0
C7 C 0.07682 0.40566 0.24168 0.0
C8 C 0.04273 0.35521 0.31929 0.0
C9 C 0.99481 0.4215 0.27559 0.0
O10 O 0.01875 0.42235 0.28381 0.0
O11 O 0.98502 0.39972 0.26671 0.0
O12 O 0.07872 0.41614 0.26516 0.0
O13 O 0.0586 0.38772 0.23776 0.0
O14 O 0.98202 0.13549 0.31049 0.0
Cd15 Cd 0.99158 0.12663 0.27085 0.0
Cd16 Cd 0.95192 0.09006 0.28214 0.0
O17 O 0.9425 0.11602 0.3121 0.0
O18 O 0.01727 0.15554 0.26071 0.0
O19 O 0.97574 0.15384 0.2456 0.0
C20 C 0.99813 0.16666 0.24748 0.0
C21 C 0.91976 0.07488 0.25223 0.0
C22 C 0.95954 0.13201 0.32196 0.0
C23 C 0.00379 0.06786 0.26997 0.0
O24 O 0.98455 0.06578 0.28633 0.0
O25 O 0.00775 0.08998 0.25794 0.0
O26 O 0.92118 0.06553 0.27624 0.0
O27 O 0.93618 0.09372 0.24548 0.0
O28 O 0.00683 0.6376 0.1988 0.0
Cd29 Cd 0.99786 0.62646 0.23783 0.0
Cd30 Cd 0.04111 0.59792 0.23009 0.0
O31 O 0.04913 0.62563 0.20101 0.0
O32 O 0.97564 0.65645 0.25227 0.0
O33 O 0.01766 0.64922 0.2642 0.0
C34 C 0.9968 0.66451 0.26471 0.0
C35 C 0.07155 0.58753 0.26358 0.0
C36 C 0.0305 0.63841 0.18943 0.0
C37 C 0.99079 0.56802 0.23465 0.0
O38 O 0.013 0.56908 0.22246 0.0
O39 O 0.98194 0.58863 0.24674 0.0
O40 O 0.07419 0.57799 0.23973 0.0
O41 O 0.05207 0.6039 0.26814 0.0
O42 O 0.97977 0.85145 0.19781 0.0
Cd43 Cd 0.988 0.86003 0.23787 0.0
Cd44 Cd 0.95051 0.89615 0.2273 0.0
O45 O 0.94101 0.87233 0.19572 0.0
O46 O 0.00818 0.82819 0.25127 0.0
O47 O 0.96623 0.83685 0.26247 0.0
C48 C 0.98644 0.82071 0.26305 0.0
C49 C 0.91952 0.90769 0.25978 0.0
C50 C 0.95779 0.85611 0.18578 0.0
C51 C 0.0025 0.91807 0.2397 0.0
O52 O 0.98278 0.92094 0.22408 0.0
O53 O 0.00642 0.89556 0.25099 0.0
O54 O 0.91984 0.91955 0.23685 0.0
O55 O 0.93631 0.88844 0.26389 0.0
O56 O 0.30827 0.01162 0.34866 0.0
Cd57 Cd 0.26946 1.00126 0.36014 0.0
Cd58 Cd 0.27783 0.0446 0.38964 0.0
O59 O 0.30643 0.05356 0.36203 0.0
O60 O 0.25803 0.97464 0.33264 0.0
O61 O 0.24224 0.01598 0.33436 0.0
C62 C 0.2439 0.99338 0.32187 0.0
C63 C 0.24461 0.07475 0.40135 0.0
C64 C 0.31771 0.0353 0.34849 0.0
C65 C 0.27245 0.9949 0.41914 0.0
O66 O 0.28609 0.01623 0.41792 0.0
O67 O 0.25988 0.98681 0.39852 0.0
O68 O 0.26863 0.07711 0.41049 0.0
O69 O 0.2397 0.05576 0.38448 0.0
O70 O 0.6929 0.48568 0.36385 0.0
Cd71 Cd 0.73077 0.49738 0.37676 0.0
Cd72 Cd 0.721 0.45425 0.40872 0.0
O73 O 0.6933 0.4448 0.3804 0.0
O74 O 0.74192 0.52399 0.34911 0.0
O75 O 0.75949 0.48348 0.35205 0.0
C76 C 0.75717 0.50574 0.33907 0.0
C77 C 0.75103 0.4222 0.424 0.0
C78 C 0.68312 0.46217 0.36498 0.0
C79 C 0.72519 0.50627 0.43554 0.0
O80 O 0.71262 0.48424 0.43526 0.0
O81 O 0.73792 0.51392 0.41483 0.0
O82 O 0.72637 0.42216 0.43157 0.0
O83 O 0.75851 0.44011 0.40689 0.0
O84 O 0.30499 0.98597 0.13614 0.0
Cd85 Cd 0.26552 0.995 0.12611 0.0
Cd86 Cd 0.27833 0.95488 0.09003 0.0
O87 O 0.30827 0.94668 0.11637 0.0
O88 O 0.25469 0.02086 0.1546 0.0
O89 O 0.23971 0.97926 0.15289 0.0
C90 C 0.24135 0.00172 0.16563 0.0
C91 C 0.25008 0.9211 0.07506 0.0
C92 C 0.31718 0.96385 0.13276 0.0
C93 C 0.26554 0.00669 0.06712 0.0
O94 O 0.28172 0.98726 0.06525 0.0
O95 O 0.25342 0.011 0.08912 0.0
O96 O 0.27407 0.92358 0.06587 0.0
O97 O 0.24235 0.93749 0.09353 0.0
O98 O 0.69928 0.5117 0.15196 0.0
Cd99 Cd 0.73911 0.50289 0.14298 0.0
Cd100 Cd 0.72962 0.5444 0.11062 0.0
O101 O 0.69998 0.55317 0.13716 0.0
O102 O 0.75012 0.47711 0.17146 0.0
O103 O 0.76385 0.5192 0.17028 0.0
C104 C 0.76261 0.49663 0.18288 0.0
C105 C 0.76236 0.5751 0.09909 0.0
C106 C 0.68897 0.53499 0.15102 0.0
C107 C 0.7404 0.49489 0.08377 0.0
O108 O 0.72408 0.51426 0.0835 0.0
O109 O 0.75242 0.48905 0.10545 0.0
O110 O 0.73866 0.57641 0.08894 0.0
O111 O 0.76712 0.5569 0.11685 0.0
O112 O 0.35373 0.30739 0.00563 0.0
Cd113 Cd 0.3654 0.26826 0.99738 0.0
Cd114 Cd 0.39533 0.27792 0.03924 0.0
O115 O 0.36749 0.30669 0.04741 0.0
O116 O 0.33507 0.25256 0.97653 0.0
O117 O 0.34371 0.24209 0.01867 0.0
C118 C 0.32786 0.24062 0.9983 0.0
C119 C 0.40697 0.24547 0.07026 0.0
C120 C 0.35369 0.31744 0.02903 0.0
C121 C 0.4237 0.272 0.98848 0.0
O122 O 0.42311 0.28522 0.01009 0.0
O123 O 0.403 0.25927 0.98083 0.0
O124 O 0.41642 0.26947 0.07185 0.0
O125 O 0.39005 0.24015 0.05147 0.0
O126 O 0.3579 0.6884 0.48174 0.0
Cd127 Cd 0.36842 0.72726 0.49272 0.0
Cd128 Cd 0.40163 0.71934 0.45141 0.0
O129 O 0.37507 0.69013 0.4412 0.0
O130 O 0.33759 0.73998 0.51489 0.0
O131 O 0.34548 0.7543 0.47376 0.0
C132 C 0.32977 0.75347 0.4943 0.0
C133 C 0.41642 0.75055 0.42025 0.0
C134 C 0.36009 0.67881 0.45825 0.0
C135 C 0.42673 0.72443 0.50406 0.0
O136 O 0.42769 0.71198 0.48201 0.0
O137 O 0.40528 0.73629 0.51106 0.0
O138 O 0.42505 0.72623 0.42004 0.0
O139 O 0.39845 0.75695 0.43772 0.0
O140 O 0.64136 0.80812 0.49411 0.0
Cd141 Cd 0.63048 0.76886 0.50284 0.0
Cd142 Cd 0.60159 0.77681 0.45974 0.0
O143 O 0.62914 0.80598 0.45189 0.0
O144 O 0.66071 0.75438 0.52473 0.0
O145 O 0.65348 0.74299 0.48256 0.0
C146 C 0.66886 0.74236 0.50334 0.0
C147 C 0.59082 0.74413 0.42855 0.0
C148 C 0.642 0.81755 0.47046 0.0
C149 C 0.57181 0.77133 0.50981 0.0
O150 O 0.57286 0.78411 0.48795 0.0
O151 O 0.59253 0.75923 0.51839 0.0
O152 O 0.58133 0.76807 0.42667 0.0
O153 O 0.60735 0.73898 0.44773 0.0
O154 O 0.1412 0.693 0.516 0.0
Cd155 Cd 0.13292 0.73304 0.5074 0.0
Cd156 Cd 0.0983 0.72358 0.54676 0.0
O157 O 0.12322 0.69281 0.55621 0.0
O158 O 0.16439 0.74556 0.48592 0.0
O159 O 0.15758 0.75711 0.52809 0.0
C160 C 0.1731 0.75697 0.5074 0.0
C161 C 0.08798 0.75721 0.57692 0.0
C162 C 0.13829 0.68209 0.53885 0.0
C163 C 0.07414 0.73516 0.49591 0.0
O164 O 0.07235 0.71926 0.51555 0.0
O165 O 0.09642 0.74661 0.49102 0.0
O166 O 0.07632 0.73418 0.57812 0.0
O167 O 0.10633 0.76077 0.55904 0.0
O168 O 0.99734 0.6455 0.6986 0.0
Cd169 Cd 0.00535 0.63319 0.73748 0.0
Cd170 Cd 0.96319 0.60324 0.72683 0.0
O171 O 0.95523 0.63281 0.69973 0.0
O172 O 0.02671 0.66314 0.75322 0.0
O173 O 0.98453 0.65497 0.76399 0.0
C174 C 0.00512 0.67062 0.7653 0.0
C175 C 0.93075 0.58793 0.75645 0.0
C176 C 0.97377 0.64645 0.68903 0.0
C177 C 0.01419 0.57507 0.73208 0.0
O178 O 0.99285 0.57622 0.71845 0.0
O179 O 0.02155 0.59528 0.74576 0.0
O180 O 0.93044 0.58115 0.73156 0.0
O181 O 0.94906 0.60441 0.76435 0.0
O182 O 0.00807 0.85554 0.70013 0.0
Cd183 Cd 0.00548 0.86594 0.7404 0.0
Cd184 Cd 0.04285 0.90007 0.72363 0.0
O185 O 0.0486 0.87177 0.69482 0.0
O186 O 0.98702 0.8349 0.75769 0.0
O187 O 0.03024 0.84324 0.7624 0.0
C188 C 0.0102 0.82729 0.76618 0.0
C189 C 0.07787 0.91591 0.74956 0.0
C190 C 0.02982 0.85666 0.68691 0.0
C191 C 0.99343 0.92434 0.74046 0.0
O192 O 0.01045 0.92501 0.72169 0.0
O193 O 0.99064 0.90292 0.75403 0.0
O194 O 0.07453 0.92401 0.72528 0.0
O195 O 0.0618 0.89782 0.75876 0.0
O196 O 0.9946 0.35747 0.80715 0.0
Cd197 Cd 0.00524 0.36953 0.76871 0.0
Cd198 Cd 0.96222 0.40098 0.77856 0.0
O199 O 0.95303 0.37187 0.80561 0.0
O200 O 0.03119 0.34146 0.75706 0.0
O201 O 0.9902 0.34461 0.74078 0.0
C202 C 0.01237 0.3314 0.74255 0.0
C203 C 0.92953 0.41816 0.7503 0.0
C204 C 0.9709 0.35753 0.81646 0.0
C205 C 0.01398 0.42798 0.77412 0.0
O206 O 0.99242 0.42719 0.78741 0.0
O207 O 0.02132 0.4076 0.76068 0.0
O208 O 0.9304 0.42455 0.77525 0.0
O209 O 0.94682 0.40107 0.74147 0.0
O210 O 0.00859 0.14707 0.80358 0.0
Cd211 Cd 0.0022 0.13638 0.76386 0.0
Cd212 Cd 0.04295 0.10403 0.77712 0.0
O213 O 0.0501 0.13264 0.80538 0.0
O214 O 0.97772 0.16487 0.75024 0.0
O215 O 0.02043 0.16232 0.73895 0.0
C216 C 0.99816 0.17547 0.73854 0.0
C217 C 0.07582 0.08974 0.74766 0.0
C218 C 0.03141 0.14696 0.81484 0.0
C219 C 0.99319 0.07736 0.76534 0.0
O220 O 0.01209 0.07753 0.7822 0.0
O221 O 0.98807 0.09852 0.75207 0.0
O222 O 0.07537 0.08161 0.77216 0.0
O223 O 0.05812 0.10709 0.74022 0.0
O224 O 0.69312 0.99133 0.64131 0.0
Cd225 Cd 0.733 0.99669 0.63067 0.0
Cd226 Cd 0.71871 0.95837 0.59645 0.0
O227 O 0.68989 0.95079 0.62445 0.0
O228 O 0.74885 0.01701 0.66115 0.0
O229 O 0.75726 0.9742 0.65338 0.0
C230 C 0.75951 0.99479 0.6689 0.0
C231 C 0.74741 0.92513 0.58133 0.0
C232 C 0.68102 0.96895 0.6398 0.0
C233 C 0.73205 0.00944 0.57265 0.0
O234 O 0.71499 0.99069 0.5715 0.0
O235 O 0.74516 0.01318 0.59414 0.0
O236 O 0.72309 0.92666 0.57283 0.0
O237 O 0.75511 0.94202 0.59936 0.0
O238 O 0.31088 0.5237 0.64387 0.0
Cd239 Cd 0.27128 0.51476 0.63418 0.0
Cd240 Cd 0.28506 0.55006 0.59502 0.0
O241 O 0.31506 0.56082 0.62043 0.0
O242 O 0.25827 0.49352 0.66542 0.0
O243 O 0.24557 0.53519 0.65744 0.0
C244 C 0.24555 0.51462 0.67314 0.0
C245 C 0.25458 0.5809 0.5785 0.0
C246 C 0.32353 0.54518 0.6385 0.0
C247 C 0.27121 0.49723 0.57676 0.0
O248 O 0.2884 0.51555 0.57334 0.0
O249 O 0.25885 0.49558 0.59896 0.0
O250 O 0.27842 0.57913 0.56873 0.0
O251 O 0.24842 0.56569 0.59852 0.0
O252 O 0.69661 0.01733 0.85535 0.0
Cd253 Cd 0.73622 0.00727 0.86409 0.0
Cd254 Cd 0.72745 0.04628 0.89967 0.0
O255 O 0.69582 0.0562 0.87617 0.0
O256 O 0.74821 0.98557 0.83273 0.0
O257 O 0.76199 0.02697 0.84037 0.0
C258 C 0.76125 0.00638 0.82471 0.0
C259 C 0.76002 0.07747 0.91055 0.0
C260 C 0.68533 0.03972 0.86001 0.0
C261 C 0.73795 0.9938 0.92233 0.0
O262 O 0.72375 0.0146 0.92517 0.0
O263 O 0.74853 0.98868 0.89974 0.0
O264 O 0.73717 0.07726 0.92256 0.0
O265 O 0.76409 0.06031 0.89163 0.0
O266 O 0.30622 0.49175 0.85954 0.0
Cd267 Cd 0.26618 0.49913 0.86834 0.0
Cd268 Cd 0.27589 0.45842 0.90056 0.0
O269 O 0.30682 0.45051 0.87499 0.0
O270 O 0.25297 0.52122 0.83774 0.0
O271 O 0.24185 0.47875 0.8438 0.0
C272 C 0.24146 0.49986 0.82884 0.0
C273 C 0.24266 0.42735 0.90975 0.0
C274 C 0.31739 0.46888 0.86101 0.0
C275 C 0.26457 0.50893 0.92691 0.0
O276 O 0.27972 0.48862 0.928 0.0
O277 O 0.25323 0.515 0.90494 0.0
O278 O 0.26572 0.426 0.92127 0.0
O279 O 0.23885 0.44586 0.89209 0.0
O280 O 0.64794 0.70434 0.98892 0.0
Cd281 Cd 0.63799 0.74346 0.9998 0.0
Cd282 Cd 0.60366 0.73429 0.95885 0.0
O283 O 0.62837 0.70333 0.94947 0.0
O284 O 0.6664 0.75326 0.02591 0.0
O285 O 0.6642 0.77026 0.98512 0.0
C286 C 0.67703 0.76777 0.00742 0.0
C287 C 0.59247 0.76625 0.92712 0.0
C288 C 0.64435 0.69317 0.96631 0.0
C289 C 0.57919 0.74401 0.01072 0.0
O290 O 0.57726 0.72992 0.98976 0.0
O291 O 0.60139 0.75494 0.01666 0.0
O292 O 0.58121 0.743 0.92732 0.0
O293 O 0.61086 0.77111 0.94463 0.0
O294 O 0.64802 0.30317 0.5105 0.0
Cd295 Cd 0.63895 0.26324 0.50249 0.0
Cd296 Cd 0.60774 0.27278 0.54437 0.0
O297 O 0.63413 0.30291 0.55225 0.0
O298 O 0.66755 0.25167 0.4771 0.0
O299 O 0.66593 0.23848 0.5193 0.0
C300 C 0.67873 0.23936 0.49684 0.0
C301 C 0.59739 0.24017 0.57569 0.0
C302 C 0.64748 0.31382 0.53364 0.0
C303 C 0.57996 0.26263 0.49471 0.0
O304 O 0.57984 0.27797 0.51488 0.0
O305 O 0.60147 0.25064 0.48817 0.0
O306 O 0.58695 0.26376 0.57698 0.0
O307 O 0.61473 0.23542 0.55708 0.0
O308 O 0.35901 0.2003 0.5153 0.0
Cd309 Cd 0.36824 0.24003 0.50622 0.0
Cd310 Cd 0.40083 0.23067 0.54785 0.0
O311 O 0.37634 0.19916 0.55579 0.0
O312 O 0.33954 0.25063 0.48058 0.0
O313 O 0.34124 0.26536 0.52225 0.0
C314 C 0.3284 0.26365 0.49988 0.0
C315 C 0.41046 0.26242 0.58023 0.0
C316 C 0.36164 0.18884 0.5379 0.0
C317 C 0.42739 0.24141 0.49724 0.0
O318 O 0.42851 0.22697 0.51801 0.0
O319 O 0.40537 0.25241 0.49064 0.0
O320 O 0.42199 0.23932 0.58023 0.0
O321 O 0.39258 0.26722 0.56219 0.0
O322 O 0.86264 0.30811 0.48635 0.0
Cd323 Cd 0.87368 0.26975 0.49868 0.0
Cd324 Cd 0.90749 0.27838 0.45666 0.0
O325 O 0.8809 0.30739 0.44622 0.0
O326 O 0.84518 0.25998 0.52495 0.0
O327 O 0.84816 0.24168 0.48481 0.0
C328 C 0.83499 0.24466 0.50686 0.0
C329 C 0.92277 0.24751 0.42539 0.0
C330 C 0.86527 0.31811 0.46307 0.0
C331 C 0.93236 0.2732 0.50927 0.0
O332 O 0.93324 0.28599 0.48742 0.0
O333 O 0.91102 0.26107 0.51609 0.0
O334 O 0.93124 0.2719 0.42547 0.0
O335 O 0.90473 0.24082 0.44268 0.0
O336 O 0.50737 0.85559 0.80076 0.0
Cd337 Cd 0.49921 0.86452 0.76084 0.0
Cd338 Cd 0.54073 0.89599 0.77023 0.0
O339 O 0.54893 0.87008 0.80063 0.0
O340 O 0.47405 0.83571 0.74938 0.0
O341 O 0.51617 0.83774 0.73597 0.0
C342 C 0.49382 0.82475 0.73691 0.0
C343 C 0.57164 0.90623 0.73726 0.0
C344 C 0.53042 0.85657 0.81154 0.0
C345 C 0.49095 0.92343 0.75995 0.0
O346 O 0.51108 0.92375 0.77531 0.0
O347 O 0.48457 0.9018 0.74808 0.0
O348 O 0.57306 0.91696 0.76069 0.0
O349 O 0.55318 0.88862 0.7329 0.0
O350 O 0.49274 0.64579 0.80995 0.0
Cd351 Cd 0.50152 0.6324 0.77153 0.0
Cd352 Cd 0.45836 0.60322 0.78263 0.0
O353 O 0.4507 0.63275 0.80983 0.0
O354 O 0.52702 0.65974 0.75754 0.0
O355 O 0.48523 0.65617 0.7434 0.0
C356 C 0.50754 0.66928 0.74355 0.0
C357 C 0.42568 0.58828 0.7531 0.0
C358 C 0.46936 0.64662 0.81999 0.0
C359 C 0.50893 0.57406 0.77812 0.0
O360 O 0.48737 0.57561 0.79136 0.0
O361 O 0.51684 0.59399 0.76437 0.0
O362 O 0.42528 0.58167 0.77803 0.0
O363 O 0.44423 0.60444 0.74508 0.0
O364 O 0.51235 0.14582 0.6986 0.0
Cd365 Cd 0.50546 0.13463 0.73819 0.0
Cd366 Cd 0.54455 0.09979 0.72311 0.0
O367 O 0.55247 0.12811 0.69483 0.0
O368 O 0.48093 0.16303 0.75187 0.0
O369 O 0.52336 0.15997 0.76397 0.0
C370 C 0.50109 0.17312 0.76441 0.0
C371 C 0.57793 0.08335 0.75083 0.0
C372 C 0.53462 0.14402 0.68638 0.0
C373 C 0.49378 0.07593 0.73638 0.0
O374 O 0.51209 0.07516 0.71888 0.0
O375 O 0.49021 0.09726 0.74987 0.0
O376 O 0.56149 0.10145 0.75932 0.0
O377 O 0.57586 0.07553 0.72633 0.0
O378 O 0.49575 0.35617 0.70324 0.0
Cd379 Cd 0.50615 0.36725 0.74196 0.0
Cd380 Cd 0.46155 0.39492 0.73557 0.0
O381 O 0.45336 0.36768 0.70621 0.0
O382 O 0.53257 0.33948 0.75305 0.0
O383 O 0.49143 0.34162 0.76928 0.0
C384 C 0.51383 0.32882 0.76727 0.0
C385 C 0.43043 0.40555 0.7684 0.0
C386 C 0.47197 0.35528 0.6942 0.0
C387 C 0.51145 0.42592 0.73885 0.0
O388 O 0.48883 0.42444 0.72752 0.0
O389 O 0.52121 0.40548 0.75046 0.0
O390 O 0.42837 0.41489 0.74445 0.0
O391 O 0.44972 0.38911 0.77353 0.0
O392 O 0.81459 0.52599 0.8662 0.0
Cd393 Cd 0.77439 0.51874 0.87493 0.0
Cd394 Cd 0.7875 0.55571 0.91266 0.0
O395 O 0.81829 0.56445 0.88746 0.0
O396 O 0.76124 0.49767 0.84351 0.0
O397 O 0.75053 0.54006 0.85051 0.0
C398 C 0.75007 0.51934 0.835 0.0
C399 C 0.75832 0.58855 0.92769 0.0
C400 C 0.82726 0.54765 0.87071 0.0
C401 C 0.77235 0.50394 0.93315 0.0
O402 O 0.7896 0.52228 0.93611 0.0
O403 O 0.76048 0.50132 0.91075 0.0
O404 O 0.78202 0.58615 0.93762 0.0
O405 O 0.75155 0.57276 0.90834 0.0
O406 O 0.19877 0.98356 0.85038 0.0
Cd407 Cd 0.23764 0.9972 0.8576 0.0
Cd408 Cd 0.23254 0.95566 0.89306 0.0
O409 O 0.20192 0.94377 0.86921 0.0
O410 O 0.24368 0.02425 0.82876 0.0
O411 O 0.26313 0.98449 0.82897 0.0
C412 C 0.25831 0.00675 0.81669 0.0
C413 C 0.26575 0.9259 0.90608 0.0
C414 C 0.18959 0.96007 0.85422 0.0
C415 C 0.23983 0.0081 0.91644 0.0
O416 O 0.22611 0.98691 0.91853 0.0
O417 O 0.25043 0.0141 0.89406 0.0
O418 O 0.24235 0.92547 0.91694 0.0
O419 O 0.27007 0.94281 0.88698 0.0
O420 O 0.81112 0.48646 0.64697 0.0
Cd421 Cd 0.77241 0.49957 0.63871 0.0
Cd422 Cd 0.77523 0.45655 0.6066 0.0
O423 O 0.80695 0.44598 0.62988 0.0
O424 O 0.7627 0.52283 0.66983 0.0
O425 O 0.74552 0.48253 0.66328 0.0
C426 C 0.74831 0.50323 0.67857 0.0
C427 C 0.74208 0.42569 0.59604 0.0
C428 C 0.81989 0.46272 0.64388 0.0
C429 C 0.77121 0.50918 0.58006 0.0
O430 O 0.78087 0.4858 0.57866 0.0
O431 O 0.7625 0.51816 0.60225 0.0
O432 O 0.76523 0.42494 0.5847 0.0
O433 O 0.73799 0.44352 0.61431 0.0
O434 O 0.18635 0.02479 0.63376 0.0
Cd435 Cd 0.22439 0.01218 0.62187 0.0
Cd436 Cd 0.21494 0.05403 0.58775 0.0
O437 O 0.18638 0.06459 0.61472 0.0
O438 O 0.23441 0.98542 0.64983 0.0
O439 O 0.25279 0.0256 0.64725 0.0
C440 C 0.24993 0.00331 0.66007 0.0
C441 C 0.24598 0.08514 0.57265 0.0
C442 C 0.1762 0.04801 0.63098 0.0
C443 C 0.22048 0.00162 0.56292 0.0
O444 O 0.20721 0.0232 0.56211 0.0
O445 O 0.23281 0.99509 0.58423 0.0
O446 O 0.22162 0.0853 0.56418 0.0
O447 O 0.25255 0.06764 0.59053 0.0
O448 O 0.85618 0.80755 0.52005 0.0
Cd449 Cd 0.86508 0.76748 0.51205 0.0
Cd450 Cd 0.90051 0.7784 0.55025 0.0
O451 O 0.87626 0.80985 0.55919 0.0
O452 O 0.83342 0.75399 0.49151 0.0
O453 O 0.84143 0.74312 0.53364 0.0
C454 C 0.8255 0.74258 0.51329 0.0
C455 C 0.9109 0.7457 0.58135 0.0
C456 C 0.86022 0.8196 0.54214 0.0
C457 C 0.92366 0.76561 0.49894 0.0
O458 O 0.92607 0.78145 0.51856 0.0
O459 O 0.90121 0.7543 0.49458 0.0
O460 O 0.92292 0.76858 0.58151 0.0
O461 O 0.89215 0.74179 0.56399 0.0
O462 O 0.85288 0.20294 0.99339 0.0
Cd463 Cd 0.86216 0.2431 1.00016 0.0
Cd464 Cd 0.89339 0.23209 0.95882 0.0
O465 O 0.86703 0.20184 0.95175 0.0
O466 O 0.83335 0.25572 0.02482 0.0
O467 O 0.83551 0.26745 0.98222 0.0
C468 C 0.82244 0.26739 0.00454 0.0
C469 C 0.90405 0.26351 0.92651 0.0
C470 C 0.85353 0.19156 0.97061 0.0
C471 C 0.9212 0.24386 0.00798 0.0
O472 O 0.92124 0.22771 0.98846 0.0
O473 O 0.89971 0.25614 0.01406 0.0
O474 O 0.9144 0.23984 0.92609 0.0
O475 O 0.8866 0.26898 0.94481 0.0
O476 O 0.14348 0.30554 0.99071 0.0
Cd477 Cd 0.1331 0.26553 0.99581 0.0
Cd478 Cd 0.10139 0.27842 0.95589 0.0
O479 O 0.12882 0.3081 0.94932 0.0
O480 O 0.1639 0.24919 0.01555 0.0
O481 O 0.15587 0.24198 0.97265 0.0
C482 C 0.17161 0.23929 0.99296 0.0
C483 C 0.09161 0.24589 0.92434 0.0
C484 C 0.14302 0.31742 0.96819 0.0
C485 C 0.07432 0.266 0.0055 0.0
O486 O 0.07402 0.28235 0.98612 0.0
O487 O 0.09578 0.25334 0.01093 0.0
O488 O 0.08093 0.26939 0.92296 0.0
O489 O 0.1087 0.24127 0.94315 0.0
O490 O 0.64228 0.19665 0.00372 0.0
Cd491 Cd 0.62936 0.23531 0.99528 0.0
Cd492 Cd 0.60078 0.2246 0.03876 0.0
O493 O 0.6305 0.19749 0.0461 0.0
O494 O 0.65683 0.24915 0.9698 0.0
O495 O 0.6537 0.26286 0.01176 0.0
C496 C 0.66677 0.26266 0.98943 0.0
C497 C 0.58649 0.25469 0.07123 0.0
C498 C 0.64378 0.18696 0.02721 0.0
C499 C 0.57088 0.22931 0.9888 0.0
O500 O 0.5728 0.2158 0.01016 0.0
O501 O 0.59074 0.24305 0.98068 0.0
O502 O 0.57977 0.22977 0.0721 0.0
O503 O 0.60241 0.26236 0.05234 0.0
O504 O 0.49498 0.15138 0.19124 0.0
Cd505 Cd 0.50349 0.14151 0.23078 0.0
Cd506 Cd 0.46039 0.11226 0.22291 0.0
O507 O 0.45269 0.13929 0.19332 0.0
O508 O 0.52598 0.17184 0.24417 0.0
O509 O 0.48372 0.16572 0.25595 0.0
C510 C 0.50479 0.18077 0.25597 0.0
C511 C 0.42867 0.1012 0.25494 0.0
C512 C 0.4714 0.15186 0.18164 0.0
C513 C 0.51036 0.08277 0.22959 0.0
O514 O 0.48885 0.08363 0.21626 0.0
O515 O 0.51865 0.10368 0.24159 0.0
O516 O 0.42742 0.09158 0.23103 0.0
O517 O 0.44746 0.11811 0.2604 0.0
O518 O 0.5252 0.36662 0.18568 0.0
Cd519 Cd 0.5174 0.37654 0.22548 0.0
Cd520 Cd 0.55473 0.41323 0.21231 0.0
O521 O 0.56369 0.38775 0.18179 0.0
O522 O 0.4964 0.34536 0.23941 0.0
O523 O 0.53854 0.35306 0.25042 0.0
C524 C 0.51796 0.33739 0.25114 0.0
C525 C 0.58638 0.42662 0.24339 0.0
C526 C 0.54694 0.37083 0.17306 0.0
C527 C 0.50311 0.4351 0.22591 0.0
O528 O 0.52206 0.43759 0.20926 0.0
O529 O 0.49976 0.41283 0.23794 0.0
O530 O 0.58563 0.43706 0.21979 0.0
O531 O 0.56967 0.40764 0.24894 0.0
O532 O 0.47853 0.86754 0.31138 0.0
Cd533 Cd 0.48946 0.87954 0.27298 0.0
Cd534 Cd 0.44819 0.91254 0.28246 0.0
O535 O 0.43815 0.88519 0.31103 0.0
O536 O 0.51209 0.84936 0.25949 0.0
O537 O 0.47102 0.85722 0.24505 0.0
C538 C 0.49174 0.84172 0.24556 0.0
C539 C 0.41709 0.92726 0.25124 0.0
C540 C 0.45521 0.86956 0.32142 0.0
C541 C 0.50074 0.93797 0.27751 0.0
O542 O 0.47876 0.93861 0.29012 0.0
O543 O 0.50769 0.91676 0.26515 0.0
O544 O 0.43487 0.90962 0.24477 0.0
O545 O 0.41659 0.93565 0.27563 0.0
O546 O 0.50843 0.65244 0.30204 0.0
Cd547 Cd 0.50365 0.64471 0.26135 0.0
Cd548 Cd 0.54338 0.61183 0.27324 0.0
O549 O 0.54985 0.63774 0.30408 0.0
O550 O 0.48289 0.67599 0.24732 0.0
O551 O 0.52608 0.67 0.23965 0.0
C552 C 0.50521 0.68522 0.23811 0.0
C553 C 0.57628 0.60089 0.2425 0.0
C554 C 0.53086 0.65131 0.31405 0.0
C555 C 0.49437 0.58589 0.25811 0.0
O556 O 0.51257 0.585 0.27568 0.0
O557 O 0.4897 0.60792 0.24611 0.0
O558 O 0.57578 0.59003 0.26593 0.0
O559 O 0.55865 0.61899 0.23697 0.0
O560 O 0.1979 0.49222 0.14683 0.0
Cd561 Cd 0.2379 0.49876 0.13698 0.0
Cd562 Cd 0.22593 0.45926 0.10399 0.0
O563 O 0.19568 0.45147 0.1303 0.0
O564 O 0.25263 0.51977 0.16763 0.0
O565 O 0.26238 0.47718 0.1603 0.0
C566 C 0.26384 0.49793 0.17569 0.0
C567 C 0.25795 0.42755 0.09319 0.0
C568 C 0.18608 0.46969 0.14513 0.0
C569 C 0.23848 0.50968 0.0785 0.0
O570 O 0.22226 0.49022 0.07742 0.0
O571 O 0.2506 0.51472 0.10032 0.0
O572 O 0.23456 0.4271 0.08227 0.0
O573 O 0.26278 0.44553 0.11115 0.0
O574 O 0.80402 0.0152 0.14103 0.0
Cd575 Cd 0.76453 0.00672 0.13047 0.0
Cd576 Cd 0.77579 0.04565 0.09589 0.0
O577 O 0.80701 0.05418 0.12064 0.0
O578 O 0.74992 0.98591 0.16133 0.0
O579 O 0.7385 0.0278 0.15261 0.0
C580 C 0.73744 0.00738 0.16844 0.0
C581 C 0.74305 0.07704 0.08626 0.0
C582 C 0.81625 0.03723 0.13709 0.0
C583 C 0.76442 0.9938 0.07201 0.0
O584 O 0.77905 0.01439 0.06973 0.0
O585 O 0.75325 0.9886 0.0943 0.0
O586 O 0.76589 0.0775 0.07421 0.0
O587 O 0.73915 0.05912 0.10449 0.0
O588 O 0.19554 0.50602 0.35924 0.0
Cd589 Cd 0.23566 0.50245 0.3698 0.0
Cd590 Cd 0.21907 0.53913 0.40496 0.0
O591 O 0.18975 0.54575 0.37729 0.0
O592 O 0.25246 0.48314 0.33916 0.0
O593 O 0.2588 0.52625 0.34721 0.0
C594 C 0.2621 0.50589 0.33159 0.0
C595 C 0.24733 0.57287 0.41959 0.0
C596 C 0.1821 0.52757 0.36132 0.0
C597 C 0.23613 0.48919 0.42793 0.0
O598 O 0.21744 0.50627 0.42938 0.0
O599 O 0.24917 0.48675 0.40619 0.0
O600 O 0.2233 0.57068 0.42883 0.0
O601 O 0.25486 0.55644 0.40107 0.0
O602 O 0.79743 0.99427 0.35355 0.0
Cd603 Cd 0.75734 1.00048 0.36294 0.0
Cd604 Cd 0.76842 0.96066 0.39545 0.0
O605 O 0.79866 0.95309 0.36907 0.0
O606 O 0.74253 0.02083 0.33196 0.0
O607 O 0.73348 0.97814 0.33974 0.0
C608 C 0.73187 0.99865 0.32406 0.0
C609 C 0.73665 0.92868 0.40636 0.0
C610 C 0.80881 0.9715 0.35483 0.0
C611 C 0.75652 0.01128 0.42117 0.0
O612 O 0.77228 0.99145 0.42219 0.0
O613 O 0.7445 0.01667 0.3994 0.0
O614 O 0.76009 0.92838 0.41717 0.0
O615 O 0.7316 0.94668 0.38849 0.0
O616 O 0.14789 0.19117 0.49288 0.0
Cd617 Cd 0.1351 0.22958 0.5031 0.0
Cd618 Cd 0.1035 0.21847 0.46043 0.0
O619 O 0.13261 0.19133 0.4516 0.0
O620 O 0.16264 0.242 0.52919 0.0
O621 O 0.15964 0.25779 0.48798 0.0
C622 C 0.17257 0.25657 0.51033 0.0
C623 C 0.0869 0.24701 0.42769 0.0
C624 C 0.14753 0.18123 0.46944 0.0
C625 C 0.07652 0.22413 0.51186 0.0
O626 O 0.07728 0.21015 0.49075 0.0
O627 O 0.09694 0.23769 0.51879 0.0
O628 O 0.08014 0.22211 0.42852 0.0
O629 O 0.10402 0.25559 0.44505 0.0
O630 O 0.1459 0.79829 0.01673 0.0
Cd631 Cd 0.13694 0.75884 0.00616 0.0
Cd632 Cd 0.10264 0.76706 0.04685 0.0
O633 O 0.12616 0.79901 0.05613 0.0
O634 O 0.16596 0.74906 0.98069 0.0
O635 O 0.16314 0.73249 0.02163 0.0
C636 C 0.17631 0.73478 0.9995 0.0
C637 C 0.09256 0.73446 0.07832 0.0
C638 C 0.14181 0.80959 0.0392 0.0
C639 C 0.0784 0.75702 0.9948 0.0
O640 O 0.07603 0.77062 0.01604 0.0
O641 O 0.10087 0.74679 0.98871 0.0
O642 O 0.08051 0.7573 0.07834 0.0
O643 O 0.11118 0.73043 0.06083 0.0
O644 O 0.85689 0.69511 0.01011 0.0
Cd645 Cd 0.86914 0.73424 0.00221 0.0
Cd646 Cd 0.90369 0.71963 0.04196 0.0
O647 O 0.87537 0.69136 0.04988 0.0
O648 O 0.84146 0.74802 0.97713 0.0
O649 O 0.84474 0.76138 0.01919 0.0
C650 C 0.83184 0.76167 0.9968 0.0
C651 C 0.91937 0.74757 0.07559 0.0
C652 C 0.85899 0.68301 0.03242 0.0
C653 C 0.92782 0.7318 0.99085 0.0
O654 O 0.92874 0.71509 0.00988 0.0
O655 O 0.90644 0.74492 0.98662 0.0
O656 O 0.90161 0.75595 0.05876 0.0
O657 O 0.92742 0.7231 0.07363 0.0
O658 O 0.35788 0.80529 0.99641 0.0
Cd659 Cd 0.369 0.76602 0.00537 0.0
Cd660 Cd 0.40053 0.77594 0.96362 0.0
O661 O 0.37454 0.80632 0.95567 0.0
O662 O 0.34096 0.75327 0.03064 0.0
O663 O 0.3442 0.73903 0.98885 0.0
C664 C 0.33119 0.7394 0.01119 0.0
C665 C 0.40994 0.7434 0.93195 0.0
C666 C 0.35966 0.81642 0.97356 0.0
C667 C 0.42796 0.76653 0.01398 0.0
O668 O 0.42862 0.78073 0.993 0.0
O669 O 0.40627 0.75518 0.02092 0.0
O670 O 0.42097 0.76674 0.93085 0.0
O671 O 0.39272 0.73882 0.95071 0.0
H672 H 0.95843 0.20316 0.24067 0.0
H673 H 0.04399 0.19368 0.23562 0.0
H674 H 0.04943 0.24209 0.23113 0.0
H675 H 0.03046 0.28726 0.23596 0.0
H676 H 0.94529 0.29667 0.24563 0.0
H677 H 0.93904 0.24841 0.24055 0.0
C678 C 0.97819 0.21164 0.23779 0.0
C679 C 1.00078 0.19483 0.23853 0.0
C680 C 0.98125 0.23963 0.23641 0.0
C681 C 0.02629 0.20618 0.23518 0.0
C682 C 0.02942 0.23389 0.23275 0.0
C683 C 0.01047 0.27883 0.23616 0.0
C684 C 0.98837 0.29553 0.24122 0.0
C685 C 0.00714 0.25089 0.2344 0.0
C686 C 0.96263 0.28424 0.24183 0.0
C687 C 0.95906 0.2566 0.23906 0.0
H688 H 0.95604 0.69983 0.27322 0.0
H689 H 0.04191 0.69237 0.27758 0.0
H690 H 0.04622 0.74085 0.28138 0.0
H691 H 0.02609 0.78545 0.27553 0.0
H692 H 0.94023 0.79299 0.27163 0.0
H693 H 0.93547 0.74456 0.27606 0.0
C694 C 0.97566 0.70875 0.27573 0.0
C695 C 0.99862 0.69246 0.27463 0.0
C696 C 0.97805 0.73676 0.27763 0.0
C697 C 0.02387 0.70436 0.27822 0.0
C698 C 0.02639 0.73217 0.28018 0.0
C699 C 0.00631 0.77656 0.27634 0.0
C700 C 0.98358 0.7928 0.2728 0.0
C701 C 0.0037 0.74861 0.27869 0.0
C702 C 0.95809 0.781 0.27421 0.0
C703 C 0.95534 0.75323 0.27654 0.0
H704 H 0.23162 0.96183 0.20139 0.0
H705 H 0.23175 0.04777 0.19327 0.0
H706 H 0.22752 0.0527 0.24167 0.0
H707 H 0.23143 0.03275 0.28644 0.0
H708 H 0.23525 0.94689 0.29454 0.0
H709 H 0.22979 0.94176 0.24628 0.0
C710 C 0.22992 0.98162 0.21015 0.0
C711 C 0.23216 0.0044 0.19372 0.0
C712 C 0.22855 0.98432 0.23815 0.0
C713 C 0.23021 0.0299 0.20545 0.0
C714 C 0.22792 0.03274 0.23318 0.0
C715 C 0.23027 0.0129 0.27774 0.0
C716 C 0.23392 0.99025 0.29409 0.0
C717 C 0.22821 0.01012 0.2498 0.0
C718 C 0.23263 0.96467 0.28242 0.0
C719 C 0.22965 0.96172 0.25477 0.0
H720 H 0.77112 0.53678 0.21866 0.0
H721 H 0.77218 0.4508 0.21097 0.0
H722 H 0.77565 0.44618 0.25947 0.0
H723 H 0.77078 0.46632 0.30409 0.0
H724 H 0.76571 0.55216 0.31165 0.0
H725 H 0.77189 0.5571 0.26345 0.0
C726 C 0.77289 0.51705 0.22754 0.0
C727 C 0.77123 0.49417 0.21118 0.0
C728 C 0.77382 0.51451 0.25557 0.0
C729 C 0.77328 0.46875 0.22308 0.0
C730 C 0.77514 0.46608 0.25086 0.0
C731 C 0.77185 0.48614 0.2953 0.0
C732 C 0.76766 0.50883 0.31147 0.0
C733 C 0.77431 0.48878 0.26736 0.0
C734 C 0.76878 0.53435 0.29967 0.0
C735 C 0.77217 0.53719 0.27205 0.0
H736 H 0.29146 0.23066 0.9589 0.0
H737 H 0.30174 0.22793 0.04452 0.0
H738 H 0.25357 0.22307 0.05047 0.0
H739 H 0.20825 0.22762 0.0317 0.0
H740 H 0.19801 0.23024 0.94607 0.0
H741 H 0.24624 0.22659 0.93986 0.0
C742 C 0.28324 0.22828 0.97884 0.0
C743 C 0.30021 0.23015 0.00123 0.0
C744 C 0.25539 0.22582 0.98217 0.0
C745 C 0.28921 0.22672 0.0269 0.0
C746 C 0.26157 0.22414 0.03035 0.0
C747 C 0.2165 0.22669 0.01166 0.0
C748 C 0.1995 0.2297 0.98942 0.0
C749 C 0.24439 0.22489 0.0082 0.0
C750 C 0.21055 0.22813 0.96359 0.0
C751 C 0.23823 0.22624 0.95999 0.0
H752 H 0.29504 0.76267 0.53541 0.0
H753 H 0.30128 0.76562 0.44943 0.0
H754 H 0.25284 0.77052 0.44581 0.0
H755 H 0.20833 0.76681 0.46681 0.0
H756 H 0.20217 0.76485 0.55284 0.0
H757 H 0.25076 0.7672 0.55665 0.0
C758 C 0.28587 0.76507 0.51591 0.0
C759 C 0.3018 0.7634 0.49272 0.0
C760 C 0.25789 0.76776 0.51394 0.0
C761 C 0.28958 0.7668 0.46762 0.0
C762 C 0.26179 0.76939 0.46551 0.0
C763 C 0.21759 0.76757 0.48641 0.0
C764 C 0.20157 0.76527 0.50948 0.0
C765 C 0.24566 0.76882 0.48849 0.0
C766 C 0.21392 0.76655 0.53472 0.0
C767 C 0.24179 0.76768 0.53693 0.0
H768 H 0.78985 0.73143 0.47352 0.0
H769 H 0.79762 0.73394 0.55939 0.0
H770 H 0.74919 0.73017 0.5642 0.0
H771 H 0.70443 0.73356 0.54383 0.0
H772 H 0.69671 0.73043 0.45796 0.0
H773 H 0.74512 0.7265 0.45343 0.0
C774 C 0.781 0.73048 0.4933 0.0
C775 C 0.79737 0.73338 0.51603 0.0
C776 C 0.75303 0.72848 0.49595 0.0
C777 C 0.78557 0.73183 0.54152 0.0
C778 C 0.75779 0.72987 0.54431 0.0
C779 C 0.71327 0.73132 0.52415 0.0
C780 C 0.69691 0.73273 0.50127 0.0
C781 C 0.74126 0.72929 0.52164 0.0
C782 C 0.70874 0.72951 0.47594 0.0
C783 C 0.73652 0.72747 0.4733 0.0
H784 H 0.97224 0.79043 0.77974 0.0
H785 H 0.0576 0.80088 0.77251 0.0
H786 H 0.06406 0.75259 0.77587 0.0
H787 H 0.04489 0.70725 0.77309 0.0
H788 H 0.9595 0.69681 0.78009 0.0
H789 H 0.95376 0.74504 0.78513 0.0
C790 C 0.99232 0.78222 0.77959 0.0
C791 C 0.01435 0.79931 0.77542 0.0
C792 C 0.99589 0.7543 0.78118 0.0
C793 C 0.04024 0.78828 0.77556 0.0
C794 C 0.04395 0.76057 0.77729 0.0
C795 C 0.02508 0.71543 0.77643 0.0
C796 C 0.00264 0.69838 0.77575 0.0
C797 C 0.02185 0.74333 0.77893 0.0
C798 C 0.97715 0.70938 0.78037 0.0
C799 C 0.97381 0.73706 0.78306 0.0
H800 H 0.03972 0.20979 0.73048 0.0
H801 H 0.95367 0.20489 0.72693 0.0
H802 H 0.95077 0.25351 0.72288 0.0
H803 H 0.97218 0.29753 0.72813 0.0
H804 H 0.05801 0.30236 0.73526 0.0
H805 H 0.06151 0.25393 0.72964 0.0
C806 C 0.02037 0.21928 0.72802 0.0
C807 C 0.99694 0.20368 0.72922 0.0
C808 C 0.01879 0.24741 0.72671 0.0
C809 C 0.97202 0.21639 0.72622 0.0
C810 C 0.97033 0.24426 0.72404 0.0
C811 C 0.99171 0.2881 0.72766 0.0
C812 C 0.01478 0.30358 0.73232 0.0
C813 C 0.99351 0.26004 0.72542 0.0
C814 C 0.03991 0.29094 0.73186 0.0
C815 C 0.04192 0.26318 0.72879 0.0
H816 H 0.76924 0.96533 0.78974 0.0
H817 H 0.77427 0.05129 0.79652 0.0
H818 H 0.77849 0.05515 0.74805 0.0
H819 H 0.77283 0.03462 0.70365 0.0
H820 H 0.76787 0.94866 0.69688 0.0
H821 H 0.77211 0.94431 0.74529 0.0
C822 C 0.77195 0.98487 0.78067 0.0
C823 C 0.77096 0.008 0.79673 0.0
C824 C 0.77408 0.98698 0.7527 0.0
C825 C 0.77483 0.03314 0.78468 0.0
C826 C 0.77705 0.0354 0.75689 0.0
C827 C 0.77339 0.0149 0.7127 0.0
C828 C 0.76956 0.99204 0.69667 0.0
C829 C 0.7755 0.01254 0.74065 0.0
C830 C 0.77065 0.96662 0.70869 0.0
C831 C 0.77286 0.96411 0.73646 0.0
H832 H 0.23243 0.54127 0.79447 0.0
H833 H 0.2311 0.45504 0.79947 0.0
H834 H 0.22825 0.45197 0.75088 0.0
H835 H 0.23391 0.4736 0.70702 0.0
H836 H 0.23495 0.55979 0.70191 0.0
H837 H 0.22965 0.56302 0.75034 0.0
C838 C 0.23082 0.52182 0.78498 0.0
C839 C 0.23245 0.49843 0.80061 0.0
C840 C 0.22946 0.52016 0.75692 0.0
C841 C 0.23002 0.47339 0.78798 0.0
C842 C 0.22859 0.47159 0.76012 0.0
C843 C 0.2323 0.49309 0.71643 0.0
C844 C 0.23527 0.5164 0.7009 0.0
C845 C 0.22949 0.49481 0.74437 0.0
C846 C 0.23281 0.54151 0.71336 0.0
C847 C 0.22998 0.54338 0.74113 0.0
H848 H 0.71207 0.7802 0.96782 0.0
H849 H 0.70498 0.77513 0.05362 0.0
H850 H 0.7535 0.77832 0.05813 0.0
H851 H 0.79779 0.77385 0.03735 0.0
H852 H 0.80468 0.7747 0.95138 0.0
H853 H 0.75664 0.78238 0.94729 0.0
C854 C 0.72109 0.78066 0.98754 0.0
C855 C 0.70497 0.77715 0.01033 0.0
C856 C 0.7491 0.78132 0.98992 0.0
C857 C 0.71698 0.7776 0.03574 0.0
C858 C 0.74475 0.77927 0.03833 0.0
C859 C 0.78891 0.77655 0.01775 0.0
C860 C 0.80473 0.77341 0.9947 0.0
C861 C 0.76106 0.77983 0.01551 0.0
C862 C 0.79289 0.7768 0.96944 0.0
C863 C 0.76537 0.78107 0.96707 0.0
H864 H 0.71422 0.23172 0.53733 0.0
H865 H 0.70712 0.22874 0.45145 0.0
H866 H 0.75566 0.2252 0.44722 0.0
H867 H 0.80017 0.23048 0.46752 0.0
H868 H 0.8071 0.23748 0.55318 0.0
H869 H 0.75886 0.23147 0.55793 0.0
C870 C 0.72323 0.2295 0.51773 0.0
C871 C 0.70703 0.23064 0.49474 0.0
C872 C 0.75129 0.22856 0.51539 0.0
C873 C 0.71911 0.22803 0.46947 0.0
C874 C 0.74692 0.22615 0.46703 0.0
C875 C 0.79123 0.2299 0.48727 0.0
C876 C 0.80724 0.23457 0.50995 0.0
C877 C 0.76326 0.2275 0.48979 0.0
C878 C 0.79525 0.23406 0.53538 0.0
C879 C 0.7676 0.23075 0.53811 0.0
H880 H 0.20702 0.27015 0.47046 0.0
H881 H 0.20016 0.26642 0.55634 0.0
H882 H 0.24829 0.27342 0.56079 0.0
H883 H 0.29294 0.27276 0.54015 0.0
H884 H 0.29997 0.27251 0.4542 0.0
H885 H 0.2514 0.27541 0.44992 0.0
C886 C 0.21594 0.27168 0.49017 0.0
C887 C 0.20001 0.26758 0.51303 0.0
C888 C 0.24384 0.27463 0.49255 0.0
C889 C 0.21196 0.26937 0.53841 0.0
C890 C 0.23955 0.27323 0.54097 0.0
C891 C 0.2839 0.27415 0.52049 0.0
C892 C 0.30008 0.27223 0.49753 0.0
C893 C 0.25583 0.27473 0.51817 0.0
C894 C 0.28798 0.2738 0.4722 0.0
C895 C 0.26016 0.27532 0.46973 0.0
H896 H 0.53471 0.79018 0.72696 0.0
H897 H 0.44861 0.79541 0.72828 0.0
H898 H 0.44528 0.74675 0.72521 0.0
H899 H 0.46679 0.7028 0.73024 0.0
H900 H 0.55286 0.69771 0.73266 0.0
H901 H 0.55624 0.74596 0.72565 0.0
C902 C 0.51521 0.78074 0.72577 0.0
C903 C 0.49195 0.79644 0.72811 0.0
C904 C 0.51344 0.75261 0.72504 0.0
C905 C 0.46685 0.78381 0.72671 0.0
C906 C 0.46492 0.75593 0.72509 0.0
C907 C 0.48629 0.71211 0.72841 0.0
C908 C 0.50953 0.69666 0.73221 0.0
C909 C 0.48808 0.74008 0.72544 0.0
C910 C 0.53465 0.70913 0.72998 0.0
C911 C 0.5366 0.73679 0.72612 0.0
H912 H 0.47396 0.29418 0.78039 0.0
H913 H 0.55978 0.30011 0.77394 0.0
H914 H 0.56371 0.25152 0.77755 0.0
H915 H 0.54231 0.20729 0.77443 0.0
H916 H 0.45628 0.20152 0.77708 0.0
H917 H 0.45292 0.24985 0.78352 0.0
C918 C 0.49358 0.28492 0.78061 0.0
C919 C 0.51653 0.30078 0.77667 0.0
C920 C 0.49563 0.25683 0.7816 0.0
C921 C 0.54178 0.28839 0.77679 0.0
C922 C 0.54404 0.26054 0.77869 0.0
C923 C 0.52287 0.2165 0.77722 0.0
C924 C 0.49957 0.20081 0.77503 0.0
C925 C 0.52103 0.2445 0.77989 0.0
C926 C 0.47452 0.21313 0.77849 0.0
C927 C 0.47258 0.24082 0.78205 0.0
H928 H 0.73703 0.47878 0.80089 0.0
H929 H 0.74419 0.56472 0.8053 0.0
H930 H 0.74079 0.5678 0.75669 0.0
H931 H 0.74279 0.54548 0.71273 0.0
H932 H 0.73455 0.45963 0.70836 0.0
H933 H 0.73088 0.4572 0.75697 0.0
C934 C 0.73719 0.49824 0.79126 0.0
C935 C 0.74123 0.52145 0.80673 0.0
C936 C 0.73531 0.49987 0.76321 0.0
C937 C 0.74112 0.54651 0.79394 0.0
C938 C 0.73939 0.54829 0.76607 0.0
C939 C 0.73953 0.52631 0.72237 0.0
C940 C 0.73933 0.50275 0.70689 0.0
C941 C 0.73753 0.52502 0.75044 0.0
C942 C 0.73482 0.4781 0.71971 0.0
C943 C 0.73293 0.47665 0.74759 0.0
H944 H 0.26175 0.04197 0.69642 0.0
H945 H 0.26042 0.95634 0.68573 0.0
H946 H 0.26781 0.9499 0.7336 0.0
H947 H 0.26752 0.96849 0.77916 0.0
H948 H 0.26418 0.05403 0.79011 0.0
H949 H 0.26618 0.06066 0.74173 0.0
C950 C 0.26387 0.02192 0.70446 0.0
C951 C 0.26052 0.99966 0.68752 0.0
C952 C 0.26693 0.01836 0.73224 0.0
C953 C 0.26288 0.9738 0.69834 0.0
C954 C 0.26698 0.9701 0.72576 0.0
C955 C 0.26801 0.98859 0.77098 0.0
C956 C 0.26567 0.01074 0.78823 0.0
C957 C 0.26799 0.99221 0.74304 0.0
C958 C 0.26591 0.03665 0.77727 0.0
C959 C 0.26693 0.04045 0.74958 0.0
H960 H 0.70026 0.27577 0.03032 0.0
H961 H 0.6959 0.27225 0.94426 0.0
H962 H 0.74426 0.2783 0.94123 0.0
H963 H 0.78826 0.27676 0.96317 0.0
H964 H 0.79268 0.2769 0.04931 0.0
H965 H 0.74406 0.28048 0.05213 0.0
C966 C 0.70977 0.27714 0.01087 0.0
C967 C 0.69444 0.27333 0.98756 0.0
C968 C 0.73779 0.27962 0.0093 0.0
C969 C 0.70719 0.27496 0.96254 0.0
C970 C 0.73492 0.27827 0.96079 0.0
C971 C 0.77866 0.27835 0.98255 0.0
C972 C 0.79413 0.27631 0.00599 0.0
C973 C 0.75054 0.27945 0.98405 0.0
C974 C 0.78128 0.27824 0.03094 0.0
C975 C 0.75342 0.28016 0.03258 0.0
H976 H 0.4775 0.30279 0.26325 0.0
H977 H 0.56352 0.30878 0.26033 0.0
H978 H 0.56734 0.26033 0.26545 0.0
H979 H 0.54603 0.21585 0.2635 0.0
H980 H 0.46 0.20995 0.26704 0.0
H981 H 0.45649 0.25859 0.26948 0.0
C982 C 0.4971 0.29357 0.26439 0.0
C983 C 0.52016 0.30941 0.26101 0.0
C984 C 0.49917 0.26559 0.26718 0.0
C985 C 0.54541 0.29714 0.26282 0.0
C986 C 0.54762 0.26934 0.26554 0.0
C987 C 0.52654 0.22516 0.2655 0.0
C988 C 0.50331 0.2092 0.26467 0.0
C989 C 0.52462 0.25327 0.26667 0.0
C990 C 0.47824 0.22164 0.26754 0.0
C991 C 0.47618 0.24955 0.26872 0.0
H992 H 0.53325 0.80735 0.2369 0.0
H993 H 0.44743 0.81354 0.2306 0.0
H994 H 0.44415 0.76524 0.22397 0.0
H995 H 0.46507 0.72066 0.22721 0.0
H996 H 0.55095 0.71456 0.23295 0.0
H997 H 0.55476 0.76324 0.23204 0.0
C998 C 0.51388 0.79823 0.2334 0.0
C999 C 0.49061 0.81407 0.23464 0.0
C1000 C 0.5121 0.77032 0.2298 0.0
C1001 C 0.4657 0.80191 0.22981 0.0
C1002 C 0.46377 0.77419 0.22622 0.0
C1003 C 0.48466 0.72995 0.22759 0.0
C1004 C 0.50764 0.7139 0.23055 0.0
C1005 C 0.48674 0.75808 0.22726 0.0
C1006 C 0.53289 0.72633 0.23075 0.0
C1007 C 0.5351 0.75425 0.23044 0.0
H1008 H 0.27548 0.46687 0.29596 0.0
H1009 H 0.27072 0.55267 0.30468 0.0
H1010 H 0.27529 0.55812 0.25641 0.0
H1011 H 0.27249 0.53814 0.21151 0.0
H1012 H 0.27672 0.4523 0.20282 0.0
H1013 H 0.28103 0.44733 0.25115 0.0
C1014 C 0.27613 0.4868 0.28738 0.0
C1015 C 0.27226 0.50929 0.30391 0.0
C1016 C 0.27833 0.48979 0.2595 0.0
C1017 C 0.2735 0.53498 0.29248 0.0
C1018 C 0.27591 0.53812 0.26479 0.0
C1019 C 0.27505 0.51838 0.22012 0.0
C1020 C 0.27376 0.49561 0.20356 0.0
C1021 C 0.27709 0.51562 0.24804 0.0
C1022 C 0.27745 0.47018 0.21504 0.0
C1023 C 0.27972 0.46729 0.24276 0.0
H1024 H 0.72626 0.96724 0.20359 0.0
H1025 H 0.72439 0.05318 0.19513 0.0
H1026 H 0.71796 0.05808 0.24324 0.0
H1027 H 0.72104 0.03823 0.28818 0.0
H1028 H 0.72297 0.95229 0.29663 0.0
H1029 H 0.72061 0.94716 0.24818 0.0
C1030 C 0.72375 0.98702 0.21218 0.0
C1031 C 0.72632 0.00981 0.19583 0.0
C1032 C 0.72037 0.98973 0.23997 0.0
C1033 C 0.72266 0.03528 0.20723 0.0
C1034 C 0.71917 0.03813 0.23483 0.0
C1035 C 0.72021 0.01836 0.27946 0.0
C1036 C 0.7227 0.99571 0.29601 0.0
C1037 C 0.71923 0.01554 0.2515 0.0
C1038 C 0.72125 0.9701 0.2844 0.0
C1039 C 0.72012 0.96714 0.25663 0.0
H1040 H 0.2109 0.72306 0.03965 0.0
H1041 H 0.20464 0.72636 0.95371 0.0
H1042 H 0.25316 0.72254 0.94966 0.0
H1043 H 0.2973 0.72684 0.97069 0.0
H1044 H 0.30345 0.72786 0.05671 0.0
H1045 H 0.25527 0.72088 0.06059 0.0
C1046 C 0.2201 0.72209 0.02002 0.0
C1047 C 0.20423 0.72526 0.99703 0.0
C1048 C 0.24812 0.72107 0.01788 0.0
C1049 C 0.21645 0.72417 0.97173 0.0
C1050 C 0.24422 0.72212 0.9694 0.0
C1051 C 0.28822 0.72471 0.99028 0.0
C1052 C 0.30389 0.72815 0.01337 0.0
C1053 C 0.26031 0.72185 0.99236 0.0
C1054 C 0.29178 0.7255 0.03861 0.0
C1055 C 0.26419 0.72165 0.04085 0.0
H1056 H 0.104 0.29654 0.41266 0.0
H1057 H 0.04214 0.23805 0.39812 0.0
H1058 H 0.02167 0.26743 0.36502 0.0
H1059 H 0.02234 0.30887 0.33877 0.0
H1060 H 0.08563 0.36627 0.35111 0.0
H1061 H 0.10438 0.33836 0.38662 0.0
C1062 C 0.08601 0.29029 0.40229 0.0
C1063 C 0.07471 0.26512 0.40775 0.0
C1064 C 0.07455 0.30712 0.38291 0.0
C1065 C 0.05141 0.25724 0.3941 0.0
C1066 C 0.03961 0.27407 0.37523 0.0
C1067 C 0.04002 0.31545 0.3495 0.0
C1068 C 0.05251 0.33964 0.34243 0.0
C1069 C 0.05113 0.29895 0.36931 0.0
C1070 C 0.07566 0.3477 0.3562 0.0
C1071 C 0.08642 0.33173 0.37645 0.0
H1072 H 0.90516 0.19687 0.4154 0.0
H1073 H 0.96577 0.25406 0.39258 0.0
H1074 H 0.98414 0.2223 0.36047 0.0
H1075 H 0.9816 0.17925 0.33712 0.0
H1076 H 0.91982 0.12274 0.35825 0.0
H1077 H 0.90356 0.15308 0.39296 0.0
C1078 C 0.92243 0.20234 0.40345 0.0
C1079 C 0.93391 0.22788 0.40625 0.0
C1080 C 0.93276 0.18405 0.38476 0.0
C1081 C 0.95634 0.23463 0.39066 0.0
C1082 C 0.96695 0.21644 0.37233 0.0
C1083 C 0.96486 0.17337 0.34961 0.0
C1084 C 0.95197 0.14876 0.34514 0.0
C1085 C 0.95515 0.19121 0.36901 0.0
C1086 C 0.93007 0.14161 0.36127 0.0
C1087 C 0.9207 0.15898 0.38106 0.0
H1088 H 0.04528 0.73009 0.10421 0.0
H1089 H 0.12183 0.69137 0.09489 0.0
H1090 H 0.10882 0.65726 0.12756 0.0
H1091 H 0.07631 0.63962 0.16003 0.0
H1092 H 0.99922 0.67774 0.16804 0.0
H1093 H 0.0117 0.71071 0.13428 0.0
C1094 C 0.05914 0.71419 0.10936 0.0
C1095 C 0.08461 0.71341 0.09747 0.0
C1096 C 0.05136 0.69449 0.12778 0.0
C1097 C 0.10216 0.69244 0.10391 0.0
C1098 C 0.09472 0.67296 0.12256 0.0
C1099 C 0.06215 0.655 0.15422 0.0
C1100 C 0.03692 0.65628 0.16669 0.0
C1101 C 0.06945 0.67392 0.13478 0.0
C1102 C 0.01873 0.67621 0.15876 0.0
C1103 C 0.02591 0.6952 0.13955 0.0
H1104 H 0.97765 0.80811 0.16977 0.0
H1105 H 0.92058 0.86918 0.1482 0.0
H1106 H 0.9042 0.84132 0.11157 0.0
H1107 H 0.90427 0.79858 0.08733 0.0
H1108 H 0.96008 0.73677 0.11023 0.0
H1109 H 0.97864 0.76588 0.14467 0.0
C1110 C 0.96193 0.8155 0.15678 0.0
C1111 C 0.9504 0.84069 0.16166 0.0
C1112 C 0.95211 0.79909 0.1362 0.0
C1113 C 0.92978 0.84983 0.14487 0.0
C1114 C 0.92033 0.83388 0.12398 0.0
C1115 C 0.92053 0.7915 0.09981 0.0
C1116 C 0.93062 0.76547 0.0963 0.0
C1117 C 0.931 0.80828 0.11977 0.0
C1118 C 0.95176 0.75664 0.11262 0.0
C1119 C 0.96248 0.77331 0.13229 0.0
H1120 H 0.3485 0.08011 0.35002 0.0
H1121 H 0.33719 0.00638 0.30642 0.0
H1122 H 0.37051 0.02043 0.27358 0.0
H1123 H 0.40116 0.0546 0.25606 0.0
H1124 H 0.41389 0.12755 0.30042 0.0
H1125 H 0.38155 0.11291 0.33417 0.0
C1126 C 0.35349 0.067 0.33347 0.0
C1127 C 0.34024 0.0423 0.33061 0.0
C1128 C 0.37269 0.07519 0.31467 0.0
C1129 C 0.34713 0.02545 0.30917 0.0
C1130 C 0.36606 0.03354 0.29027 0.0
C1131 C 0.3968 0.06732 0.27309 0.0
C1132 C 0.40955 0.09229 0.2756 0.0
C1133 C 0.37862 0.05855 0.2926 0.0
C1134 C 0.40417 0.10832 0.29803 0.0
C1135 C 0.38572 0.09995 0.3173 0.0
H1136 H 0.59532 0.40698 0.29335 0.0
H1137 H 0.61957 0.46973 0.23916 0.0
H1138 H 0.64995 0.48762 0.27285 0.0
H1139 H 0.67068 0.48471 0.31724 0.0
H1140 H 0.64802 0.42081 0.37071 0.0
H1141 H 0.61574 0.40434 0.33793 0.0
C1142 C 0.60726 0.42456 0.28891 0.0
C1143 C 0.60523 0.43691 0.26374 0.0
C1144 C 0.62485 0.43466 0.30833 0.0
C1145 C 0.62084 0.4597 0.25832 0.0
C1146 C 0.63816 0.47004 0.27762 0.0
C1147 C 0.65837 0.46743 0.32187 0.0
C1148 C 0.6616 0.4541 0.34642 0.0
C1149 C 0.64039 0.45764 0.30266 0.0
C1150 C 0.64586 0.43145 0.35195 0.0
C1151 C 0.62748 0.42196 0.33319 0.0
H1152 H 0.32932 0.98481 0.18128 0.0
H1153 H 0.35544 0.92595 0.12378 0.0
H1154 H 0.38936 0.90994 0.15508 0.0
H1155 H 0.40978 0.91088 0.1998 0.0
H1156 H 0.38198 0.96844 0.25791 0.0
H1157 H 0.35052 0.98661 0.22543 0.0
C1158 C 0.34274 0.96879 0.17542 0.0
C1159 C 0.33994 0.95666 0.15021 0.0
C1160 C 0.36166 0.95917 0.19379 0.0
C1161 C 0.35721 0.93564 0.14308 0.0
C1162 C 0.37654 0.92639 0.161 0.0
C1163 C 0.39688 0.92743 0.20532 0.0
C1164 C 0.39814 0.93814 0.2313 0.0
C1165 C 0.37861 0.93767 0.1866 0.0
C1166 C 0.3813 0.95964 0.23812 0.0
C1167 C 0.36334 0.97014 0.21953 0.0
H1168 H 0.60325 0.5539 0.24147 0.0
H1169 H 0.59287 0.62774 0.19796 0.0
H1170 H 0.62571 0.61307 0.16478 0.0
H1171 H 0.65851 0.58 0.14918 0.0
H1172 H 0.66794 0.5056 0.1921 0.0
H1173 H 0.63394 0.5196 0.22425 0.0
C1174 C 0.60825 0.56681 0.22476 0.0
C1175 C 0.59597 0.59203 0.22234 0.0
C1176 C 0.62678 0.55806 0.20557 0.0
C1177 C 0.60219 0.60832 0.20032 0.0
C1178 C 0.62093 0.59992 0.18134 0.0
C1179 C 0.65295 0.56671 0.16541 0.0
C1180 C 0.66589 0.54185 0.16828 0.0
C1181 C 0.63347 0.57492 0.18388 0.0
C1182 C 0.65828 0.52481 0.18933 0.0
C1183 C 0.63896 0.53287 0.20785 0.0
H1184 H 0.26038 0.40036 0.04644 0.0
H1185 H 0.30261 0.4125 0.12067 0.0
H1186 H 0.33691 0.3805 0.10665 0.0
H1187 H 0.3539 0.34797 0.07399 0.0
H1188 H 0.31231 0.33694 0.99915 0.0
H1189 H 0.27894 0.37001 0.01256 0.0
C1190 C 0.27706 0.39594 0.05957 0.0
C1191 C 0.27881 0.40846 0.08469 0.0
C1192 C 0.29689 0.37792 0.05119 0.0
C1193 C 0.30078 0.40298 0.10129 0.0
C1194 C 0.32038 0.38472 0.09328 0.0
C1195 C 0.33767 0.35297 0.0605 0.0
C1196 C 0.33554 0.33988 0.03567 0.0
C1197 C 0.31853 0.37195 0.06835 0.0
C1198 C 0.3145 0.34676 0.01834 0.0
C1199 C 0.2953 0.36554 0.02607 0.0
H1200 H 0.31307 0.6623 0.47992 0.0
H1201 H 0.36941 0.64448 0.41701 0.0
H1202 H 0.33971 0.60972 0.39979 0.0
H1203 H 0.29687 0.58583 0.40132 0.0
H1204 H 0.23963 0.605 0.46308 0.0
H1205 H 0.27047 0.63783 0.48191 0.0
C1206 C 0.319 0.65053 0.46269 0.0
C1207 C 0.34343 0.65587 0.44983 0.0
C1208 C 0.30151 0.63105 0.45246 0.0
C1209 C 0.35068 0.64074 0.42727 0.0
C1210 C 0.33369 0.62092 0.41735 0.0
C1211 C 0.29114 0.59719 0.4189 0.0
C1212 C 0.26592 0.59307 0.43063 0.0
C1213 C 0.30888 0.61619 0.42953 0.0
C1214 C 0.25883 0.60793 0.45346 0.0
C1215 C 0.27649 0.62664 0.46434 0.0
H1216 H 0.73405 0.90204 0.45343 0.0
H1217 H 0.6926 0.91258 0.37853 0.0
H1218 H 0.65871 0.8801 0.39243 0.0
H1219 H 0.64189 0.84757 0.42518 0.0
H1220 H 0.68254 0.83821 0.50074 0.0
H1221 H 0.7155 0.87176 0.48744 0.0
C1222 C 0.71762 0.89716 0.44013 0.0
C1223 C 0.71598 0.90937 0.41485 0.0
C1224 C 0.698 0.87888 0.44846 0.0
C1225 C 0.69433 0.90331 0.39803 0.0
C1226 C 0.67496 0.88478 0.40598 0.0
C1227 C 0.65782 0.85304 0.43885 0.0
C1228 C 0.65982 0.84028 0.46386 0.0
C1229 C 0.67671 0.87231 0.43107 0.0
C1230 C 0.68046 0.84777 0.48142 0.0
C1231 C 0.69943 0.86683 0.47375 0.0
H1232 H 0.18516 0.66616 0.51649 0.0
H1233 H 0.1293 0.64674 0.57937 0.0
H1234 H 0.16003 0.61295 0.59668 0.0
H1235 H 0.20404 0.5912 0.59588 0.0
H1236 H 0.26063 0.61198 0.53402 0.0
H1237 H 0.22839 0.64296 0.5145 0.0
C1238 C 0.17949 0.65417 0.53367 0.0
C1239 C 0.15497 0.65893 0.54659 0.0
C1240 C 0.19758 0.63531 0.54398 0.0
C1241 C 0.14809 0.64348 0.56906 0.0
C1242 C 0.1657 0.62424 0.57906 0.0
C1243 C 0.20931 0.60246 0.5781 0.0
C1244 C 0.23481 0.59946 0.56663 0.0
C1245 C 0.19074 0.62041 0.56704 0.0
C1246 C 0.24124 0.6141 0.54347 0.0
C1247 C 0.22278 0.63177 0.5322 0.0
H1248 H 0.92829 0.64817 0.65941 0.0
H1249 H 0.0045 0.68745 0.66987 0.0
H1250 H 0.99161 0.72171 0.63753 0.0
H1251 H 0.95793 0.7416 0.60786 0.0
H1252 H 0.88226 0.70169 0.59635 0.0
H1253 H 0.89567 0.6666 0.62771 0.0
C1254 C 0.94218 0.6641 0.65446 0.0
C1255 C 0.96727 0.6653 0.66715 0.0
C1256 C 0.93463 0.68374 0.63589 0.0
C1257 C 0.9851 0.68597 0.66035 0.0
C1258 C 0.97768 0.70568 0.64197 0.0
C1259 C 0.94435 0.72525 0.61227 0.0
C1260 C 0.91902 0.72438 0.60009 0.0
C1261 C 0.95235 0.70497 0.62995 0.0
C1262 C 0.90182 0.70284 0.6056 0.0
C1263 C 0.90948 0.68278 0.62349 0.0
H1264 H 0.07192 0.85676 0.65261 0.0
H1265 H 0.99894 0.81432 0.67094 0.0
H1266 H 0.01045 0.77991 0.6382 0.0
H1267 H 0.04261 0.76046 0.60651 0.0
H1268 H 0.11531 0.80318 0.5879 0.0
H1269 H 0.10258 0.83887 0.61882 0.0
C1270 C 0.05835 0.84015 0.64926 0.0
C1271 C 0.03467 0.83807 0.66436 0.0
C1272 C 0.06521 0.82032 0.63062 0.0
C1273 C 0.01726 0.81648 0.65959 0.0
C1274 C 0.02392 0.79668 0.641 0.0
C1275 C 0.05568 0.77758 0.60924 0.0
C1276 C 0.08004 0.77903 0.59521 0.0
C1277 C 0.0481 0.79813 0.62682 0.0
C1278 C 0.09654 0.80153 0.59859 0.0
C1279 C 0.08925 0.82195 0.61623 0.0
H1280 H 0.9256 0.35864 0.84648 0.0
H1281 H 0.99929 0.31493 0.83556 0.0
H1282 H 0.98484 0.28184 0.86847 0.0
H1283 H 0.95057 0.2644 0.89897 0.0
H1284 H 0.87759 0.3088 0.91122 0.0
H1285 H 0.89242 0.34255 0.87897 0.0
C1286 C 0.93859 0.34198 0.85143 0.0
C1287 C 0.96344 0.3392 0.83848 0.0
C1288 C 0.93018 0.32305 0.87039 0.0
C1289 C 0.98012 0.31762 0.84529 0.0
C1290 C 0.9718 0.29859 0.86399 0.0
C1291 C 0.93786 0.28142 0.89449 0.0
C1292 C 0.91287 0.28397 0.90715 0.0
C1293 C 0.94673 0.30092 0.87637 0.0
C1294 C 0.89685 0.30637 0.9016 0.0
C1295 C 0.90533 0.32565 0.8832 0.0
H1296 H 0.07511 0.14753 0.84712 0.0
H1297 H 1.00091 0.18902 0.83193 0.0
H1298 H 0.01319 0.22345 0.86432 0.0
H1299 H 0.04597 0.24293 0.89531 0.0
H1300 H 0.11951 0.20081 0.91154 0.0
H1301 H 0.10659 0.16553 0.88019 0.0
C1302 C 0.06149 0.16396 0.85108 0.0
C1303 C 0.03719 0.16573 0.83701 0.0
C1304 C 0.0687 0.18374 0.86966 0.0
C1305 C 0.0197 0.18707 0.84253 0.0
C1306 C 0.02678 0.20689 0.86092 0.0
C1307 C 0.0592 0.22606 0.8919 0.0
C1308 C 0.08381 0.22461 0.90542 0.0
C1309 C 0.05143 0.20566 0.87425 0.0
C1310 C 0.10052 0.20241 0.90124 0.0
C1311 C 0.09313 0.18224 0.88336 0.0
H1312 H 0.60005 0.95227 0.73485 0.0
H1313 H 0.58421 0.87939 0.69136 0.0
H1314 H 0.61541 0.89329 0.6563 0.0
H1315 H 0.64853 0.92527 0.6391 0.0
H1316 H 0.66348 0.99866 0.68225 0.0
H1317 H 0.63085 0.98563 0.71613 0.0
C1318 C 0.60348 0.9394 0.71772 0.0
C1319 C 0.59017 0.91466 0.71585 0.0
C1320 C 0.62109 0.9477 0.69751 0.0
C1321 C 0.59436 0.89844 0.69331 0.0
C1322 C 0.61216 0.9064 0.67326 0.0
C1323 C 0.64447 0.93857 0.65576 0.0
C1324 C 0.6586 0.96284 0.65818 0.0
C1325 C 0.62579 0.93089 0.67527 0.0
C1326 C 0.65291 0.97989 0.67982 0.0
C1327 C 0.63436 0.97238 0.69933 0.0
H1328 H 0.41804 0.60113 0.70063 0.0
H1329 H 0.389 0.54932 0.76336 0.0
H1330 H 0.35657 0.52973 0.73273 0.0
H1331 H 0.33521 0.52839 0.6887 0.0
H1332 H 0.36253 0.5815 0.62638 0.0
H1333 H 0.39707 0.59919 0.65613 0.0
C1334 C 0.40463 0.58555 0.70758 0.0
C1335 C 0.40588 0.57685 0.7343 0.0
C1336 C 0.3858 0.57445 0.68988 0.0
C1337 C 0.38836 0.55658 0.74296 0.0
C1338 C 0.36985 0.54526 0.72543 0.0
C1339 C 0.34899 0.54353 0.68148 0.0
C1340 C 0.34639 0.55351 0.65533 0.0
C1341 C 0.36828 0.55413 0.6989 0.0
C1342 C 0.36414 0.57345 0.64643 0.0
C1343 C 0.38382 0.58365 0.66346 0.0
H1344 H 0.66944 0.02114 0.81155 0.0
H1345 H 0.64858 0.07771 0.87333 0.0
H1346 H 0.61293 0.09578 0.84526 0.0
H1347 H 0.58943 0.09728 0.80218 0.0
H1348 H 0.61171 0.04196 0.7397 0.0
H1349 H 0.64509 0.02178 0.76895 0.0
C1350 C 0.65678 0.03711 0.81904 0.0
C1351 C 0.66158 0.04801 0.8445 0.0
C1352 C 0.63682 0.04791 0.80251 0.0
C1353 C 0.64528 0.06898 0.85378 0.0
C1354 C 0.62496 0.07939 0.83771 0.0
C1355 C 0.60156 0.08079 0.79498 0.0
C1356 C 0.59818 0.07131 0.76873 0.0
C1357 C 0.62089 0.06936 0.81185 0.0
C1358 C 0.61402 0.04984 0.75974 0.0
C1359 C 0.63307 0.03819 0.77649 0.0
H1360 H 0.34971 0.42503 0.86343 0.0
H1361 H 0.33732 0.49856 0.81974 0.0
H1362 H 0.37145 0.48543 0.78746 0.0
H1363 H 0.40262 0.45183 0.76996 0.0
H1364 H 0.41647 0.37901 0.81413 0.0
H1365 H 0.38384 0.39305 0.84791 0.0
C1366 C 0.35469 0.43833 0.84703 0.0
C1367 C 0.34079 0.46266 0.84393 0.0
C1368 C 0.37433 0.43063 0.82846 0.0
C1369 C 0.34768 0.47974 0.82267 0.0
C1370 C 0.36708 0.47217 0.80407 0.0
C1371 C 0.39847 0.43903 0.78699 0.0
C1372 C 0.41155 0.41424 0.78938 0.0
C1373 C 0.38011 0.44743 0.80646 0.0
C1374 C 0.40648 0.39811 0.81181 0.0
C1375 C 0.38786 0.40613 0.83109 0.0
H1376 H 0.69195 0.67784 0.98742 0.0
H1377 H 0.6344 0.65714 0.92656 0.0
H1378 H 0.66435 0.62247 0.90955 0.0
H1379 H 0.70788 0.59968 0.91044 0.0
H1380 H 0.7661 0.62178 0.97022 0.0
H1381 H 0.73498 0.65429 0.98904 0.0
C1382 C 0.68578 0.66544 0.97071 0.0
C1383 C 0.66095 0.67 0.95833 0.0
C1384 C 0.70339 0.64603 0.96059 0.0
C1385 C 0.65341 0.65403 0.93645 0.0
C1386 C 0.67057 0.63427 0.92664 0.0
C1387 C 0.71375 0.6116 0.92759 0.0
C1388 C 0.73934 0.60839 0.93878 0.0
C1389 C 0.6958 0.63042 0.93825 0.0
C1390 C 0.74659 0.62394 0.96108 0.0
C1391 C 0.72877 0.64251 0.97194 0.0
H1392 H 0.64687 0.34481 0.57839 0.0
H1393 H 0.68736 0.33482 0.50274 0.0
H1394 H 0.71993 0.36891 0.51537 0.0
H1395 H 0.73858 0.39937 0.54897 0.0
H1396 H 0.69773 0.41044 0.62416 0.0
H1397 H 0.6636 0.37798 0.61065 0.0
C1398 C 0.66264 0.35029 0.56453 0.0
C1399 C 0.66476 0.3371 0.53973 0.0
C1400 C 0.68139 0.36985 0.57196 0.0
C1401 C 0.6852 0.34463 0.52193 0.0
C1402 C 0.70396 0.36402 0.52921 0.0
C1403 C 0.7222 0.39467 0.56241 0.0
C1404 C 0.72085 0.40693 0.58769 0.0
C1405 C 0.70255 0.37634 0.55437 0.0
C1406 C 0.69926 0.4011 0.60467 0.0
C1407 C 0.67977 0.38257 0.59695 0.0
H1408 H 0.29682 0.0942 0.59001 0.0
H1409 H 0.23942 0.119 0.53051 0.0
H1410 H 0.27135 0.15122 0.51258 0.0
H1411 H 0.31457 0.17421 0.51538 0.0
H1412 H 0.3711 0.15137 0.57639 0.0
H1413 H 0.34073 0.11629 0.59187 0.0
C1414 C 0.29135 0.10658 0.57306 0.0
C1415 C 0.26572 0.1043 0.56174 0.0
C1416 C 0.30971 0.12536 0.56303 0.0
C1417 C 0.25895 0.12048 0.53976 0.0
C1418 C 0.27723 0.13888 0.52941 0.0
C1419 C 0.32046 0.16122 0.53173 0.0
C1420 C 0.34507 0.1653 0.54466 0.0
C1421 C 0.30256 0.14169 0.54106 0.0
C1422 C 0.35224 0.1486 0.56611 0.0
C1423 C 0.33484 0.12863 0.57504 0.0
H1424 H 0.80165 0.41147 0.40699 0.0
H1425 H 0.74319 0.38895 0.46643 0.0
H1426 H 0.77427 0.35641 0.48522 0.0
H1427 H 0.81739 0.33302 0.48374 0.0
H1428 H 0.87499 0.35367 0.42288 0.0
H1429 H 0.84509 0.38842 0.4059 0.0
C1430 C 0.79576 0.39949 0.42409 0.0
C1431 C 0.77011 0.40257 0.43519 0.0
C1432 C 0.81363 0.38052 0.43462 0.0
C1433 C 0.76275 0.38685 0.45734 0.0
C1434 C 0.78055 0.36828 0.46818 0.0
C1435 C 0.82355 0.3454 0.46701 0.0
C1436 C 0.84839 0.34088 0.45466 0.0
C1437 C 0.80596 0.36481 0.45688 0.0
C1438 C 0.85594 0.35678 0.43272 0.0
C1439 C 0.83883 0.3766 0.42296 0.0
H1440 H 0.5747 0.85865 0.84308 0.0
H1441 H 0.50002 0.81646 0.83285 0.0
H1442 H 0.5126 0.78505 0.86802 0.0
H1443 H 0.54586 0.76799 0.89974 0.0
H1444 H 0.62007 0.81061 0.91096 0.0
H1445 H 0.60662 0.84345 0.87723 0.0
C1446 C 0.56105 0.84275 0.84872 0.0
C1447 C 0.53653 0.83983 0.83519 0.0
C1448 C 0.56843 0.82469 0.86892 0.0
C1449 C 0.51899 0.81923 0.84292 0.0
C1450 C 0.52623 0.80114 0.86293 0.0
C1451 C 0.5591 0.78448 0.8948 0.0
C1452 C 0.58408 0.7867 0.90753 0.0
C1453 C 0.5511 0.8034 0.8757 0.0
C1454 C 0.6008 0.80842 0.90132 0.0
C1455 C 0.59312 0.82718 0.88205 0.0
H1456 H 0.42527 0.64709 0.85182 0.0
H1457 H 0.49972 0.6885 0.83755 0.0
H1458 H 0.48772 0.72215 0.87085 0.0
H1459 H 0.45535 0.74078 0.90267 0.0
H1460 H 0.38164 0.69868 0.91831 0.0
H1461 H 0.39405 0.66432 0.88569 0.0
C1462 C 0.43896 0.66338 0.85613 0.0
C1463 C 0.4633 0.66534 0.84211 0.0
C1464 C 0.43197 0.68262 0.87535 0.0
C1465 C 0.48091 0.68644 0.84809 0.0
C1466 C 0.474 0.70579 0.86703 0.0
C1467 C 0.44197 0.72411 0.89889 0.0
C1468 C 0.41747 0.7224 0.9126 0.0
C1469 C 0.44944 0.70426 0.88051 0.0
C1470 C 0.40056 0.70046 0.90789 0.0
C1471 C 0.40764 0.68083 0.88927 0.0
H1472 H 0.5778 0.14254 0.65326 0.0
H1473 H 0.50583 0.18742 0.66968 0.0
H1474 H 0.51903 0.22107 0.63685 0.0
H1475 H 0.55204 0.23892 0.60524 0.0
H1476 H 0.62349 0.19371 0.5879 0.0
H1477 H 0.6095 0.15903 0.61953 0.0
C1478 C 0.56485 0.15954 0.6495 0.0
C1479 C 0.54092 0.16248 0.66406 0.0
C1480 C 0.57262 0.1789 0.63067 0.0
C1481 C 0.52432 0.18457 0.65876 0.0
C1482 C 0.53193 0.20394 0.6401 0.0
C1483 C 0.5646 0.22151 0.60843 0.0
C1484 C 0.58894 0.21903 0.59454 0.0
C1485 C 0.55624 0.20153 0.6263 0.0
C1486 C 0.60474 0.19613 0.59848 0.0
C1487 C 0.59673 0.1763 0.61653 0.0
H1488 H 0.42643 0.35515 0.66439 0.0
H1489 H 0.50293 0.3159 0.67256 0.0
H1490 H 0.49051 0.28379 0.63799 0.0
H1491 H 0.45722 0.26557 0.60701 0.0
H1492 H 0.38137 0.3055 0.59728 0.0
H1493 H 0.39422 0.33866 0.631 0.0
C1494 C 0.44047 0.3397 0.65845 0.0
C1495 C 0.46551 0.33785 0.67117 0.0
C1496 C 0.43323 0.32131 0.63848 0.0
C1497 C 0.48356 0.31785 0.66307 0.0
C1498 C 0.47642 0.29937 0.6434 0.0
C1499 C 0.44348 0.28151 0.61231 0.0
C1500 C 0.41825 0.28292 0.6 0.0
C1501 C 0.45118 0.30068 0.63128 0.0
C1502 C 0.40086 0.30396 0.60662 0.0
C1503 C 0.40819 0.3229 0.62587 0.0
H1504 H 0.9229 0.60138 0.80867 0.0
H1505 H 0.89451 0.54836 0.7467 0.0
H1506 H 0.86189 0.52922 0.77749 0.0
H1507 H 0.83981 0.52905 0.8213 0.0
H1508 H 0.8666 0.5835 0.88267 0.0
H1509 H 0.90167 0.60024 0.85301 0.0
C1510 C 0.90961 0.58561 0.80192 0.0
C1511 C 0.91104 0.57649 0.77536 0.0
C1512 C 0.89067 0.57482 0.81968 0.0
C1513 C 0.8937 0.55597 0.76697 0.0
C1514 C 0.87508 0.5449 0.78459 0.0
C1515 C 0.85363 0.54423 0.82835 0.0
C1516 C 0.85068 0.55494 0.85418 0.0
C1517 C 0.87322 0.55433 0.81092 0.0
C1518 C 0.86848 0.57492 0.86287 0.0
C1519 C 0.88845 0.58459 0.84588 0.0
H1520 H 0.17043 0.97938 0.8073 0.0
H1521 H 0.15609 0.91915 0.86745 0.0
H1522 H 0.11979 0.90045 0.84063 0.0
H1523 H 0.09351 0.89994 0.79916 0.0
H1524 H 0.10939 0.95894 0.7381 0.0
H1525 H 0.14374 0.97927 0.76612 0.0
C1526 C 0.15908 0.96242 0.81471 0.0
C1527 C 0.16583 0.95074 0.83936 0.0
C1528 C 0.13874 0.95131 0.79885 0.0
C1529 C 0.15125 0.92849 0.84852 0.0
C1530 C 0.13056 0.91774 0.83316 0.0
C1531 C 0.10448 0.91724 0.79199 0.0
C1532 C 0.09898 0.92778 0.76653 0.0
C1533 C 0.1244 0.92873 0.80811 0.0
C1534 C 0.11337 0.95025 0.75754 0.0
C1535 C 0.13296 0.96199 0.77359 0.0
H1536 H 0.91524 0.40249 0.70012 0.0
H1537 H 0.89915 0.46217 0.76043 0.0
H1538 H 0.86574 0.48291 0.73162 0.0
H1539 H 0.83937 0.48277 0.6903 0.0
H1540 H 0.85326 0.42154 0.63109 0.0
H1541 H 0.88942 0.40296 0.65824 0.0
C1542 C 0.90448 0.42009 0.70688 0.0
C1543 C 0.90956 0.43065 0.73243 0.0
C1544 C 0.88494 0.4317 0.69037 0.0
C1545 C 0.89544 0.45345 0.74095 0.0
C1546 C 0.87638 0.46541 0.72445 0.0
C1547 C 0.85062 0.46564 0.68314 0.0
C1548 C 0.84376 0.45361 0.6587 0.0
C1549 C 0.87077 0.45455 0.69924 0.0
C1550 C 0.8582 0.43114 0.64987 0.0
C1551 C 0.8788 0.42046 0.66542 0.0
H1552 H 0.08525 0.10577 0.69648 0.0
H1553 H 0.11016 0.04816 0.7558 0.0
H1554 H 0.14174 0.02867 0.72415 0.0
H1555 H 0.16335 0.02879 0.68006 0.0
H1556 H 0.14008 0.08769 0.62144 0.0
H1557 H 0.1066 0.10561 0.65222 0.0
C1558 C 0.0976 0.08897 0.70249 0.0
C1559 C 0.09542 0.07856 0.72851 0.0
C1560 C 0.11591 0.07795 0.68424 0.0
C1561 C 0.11157 0.05674 0.73596 0.0
C1562 C 0.12958 0.04548 0.71783 0.0
C1563 C 0.15066 0.04528 0.67389 0.0
C1564 C 0.15406 0.0568 0.64847 0.0
C1565 C 0.13199 0.05597 0.69195 0.0
C1566 C 0.13781 0.07846 0.64092 0.0
C1567 C 0.11873 0.08878 0.65853 0.0
H1568 H 0.79881 0.91534 0.59633 0.0
H1569 H 0.73788 0.88998 0.54067 0.0
H1570 H 0.76839 0.85693 0.52178 0.0
H1571 H 0.81168 0.83375 0.52239 0.0
H1572 H 0.87194 0.85773 0.57929 0.0
H1573 H 0.84257 0.89304 0.59603 0.0
C1574 C 0.79221 0.90261 0.58005 0.0
C1575 C 0.76603 0.90503 0.57009 0.0
C1576 C 0.80982 0.88349 0.56935 0.0
C1577 C 0.75785 0.88842 0.5489 0.0
C1578 C 0.77532 0.86955 0.53799 0.0
C1579 C 0.81857 0.84702 0.53812 0.0
C1580 C 0.84398 0.8432 0.54951 0.0
C1581 C 0.80129 0.86677 0.54817 0.0
C1582 C 0.85245 0.86028 0.57018 0.0
C1583 C 0.83563 0.8804 0.57984 0.0
H1584 H 0.76299 0.10502 0.95709 0.0
H1585 H 0.80425 0.09262 0.88231 0.0
H1586 H 0.83804 0.12559 0.89521 0.0
H1587 H 0.85445 0.15947 0.92674 0.0
H1588 H 0.81354 0.17122 0.00189 0.0
H1589 H 0.78123 0.13658 0.98999 0.0
C1590 C 0.77939 0.10953 0.94361 0.0
C1591 C 0.78095 0.09669 0.91863 0.0
C1592 C 0.79885 0.12825 0.95128 0.0
C1593 C 0.80255 0.10236 0.90158 0.0
C1594 C 0.82186 0.12119 0.90895 0.0
C1595 C 0.83864 0.15427 0.94066 0.0
C1596 C 0.83634 0.16807 0.96509 0.0
C1597 C 0.82004 0.13445 0.93363 0.0
C1598 C 0.81584 0.16092 0.98297 0.0
C1599 C 0.79723 0.14122 0.97611 0.0
H1600 H 0.14413 0.34984 0.92446 0.0
H1601 H 0.1839 0.33536 0.99972 0.0
H1602 H 0.21821 0.36812 0.98816 0.0
H1603 H 0.23834 0.39894 0.95565 0.0
H1604 H 0.19812 0.41445 0.88095 0.0
H1605 H 0.16262 0.38305 0.89327 0.0
C1606 C 0.16013 0.35406 0.93849 0.0
C1607 C 0.16147 0.34001 0.96286 0.0
C1608 C 0.1799 0.37283 0.93167 0.0
C1609 C 0.18228 0.34588 0.98085 0.0
C1610 C 0.20204 0.36449 0.97418 0.0
C1611 C 0.22182 0.3954 0.94204 0.0
C1612 C 0.22101 0.40868 0.91726 0.0
C1613 C 0.20132 0.37769 0.94945 0.0
C1614 C 0.19925 0.40433 0.90007 0.0
C1615 C 0.17895 0.38641 0.90712 0.0
H1616 H 0.64596 0.1563 0.07204 0.0
H1617 H 0.68448 0.16857 0.99574 0.0
H1618 H 0.7187 0.13574 0.00743 0.0
H1619 H 0.7387 0.10496 0.04005 0.0
H1620 H 0.69944 0.09149 0.11571 0.0
H1621 H 0.6645 0.12352 0.10358 0.0
C1622 C 0.66172 0.15165 0.05788 0.0
C1623 C 0.66271 0.16498 0.0331 0.0
C1624 C 0.68132 0.13274 0.06471 0.0
C1625 C 0.68317 0.15855 0.0149 0.0
C1626 C 0.70285 0.13989 0.02163 0.0
C1627 C 0.72252 0.10909 0.0539 0.0
C1628 C 0.72179 0.09615 0.07886 0.0
C1629 C 0.70231 0.12715 0.04662 0.0
C1630 C 0.70048 0.10131 0.09642 0.0
C1631 C 0.68051 0.1196 0.0895 0.0
H1632 H 0.45378 0.24367 0.09725 0.0
H1633 H 0.38023 0.20025 0.08499 0.0
H1634 H 0.3945 0.16634 0.11731 0.0
H1635 H 0.42695 0.15034 0.15051 0.0
H1636 H 0.50126 0.19296 0.16148 0.0
H1637 H 0.48783 0.22567 0.12777 0.0
C1638 C 0.44089 0.22678 0.1017 0.0
C1639 C 0.41583 0.22461 0.08913 0.0
C1640 C 0.44943 0.20718 0.11988 0.0
C1641 C 0.39954 0.20238 0.09458 0.0
C1642 C 0.40769 0.18302 0.11302 0.0
C1643 C 0.44033 0.16663 0.14533 0.0
C1644 C 0.46498 0.16931 0.15863 0.0
C1645 C 0.43247 0.18537 0.12597 0.0
C1646 C 0.48221 0.19038 0.1515 0.0
C1647 C 0.47446 0.20921 0.13237 0.0
H1648 H 0.52866 0.32101 0.16174 0.0
H1649 H 0.58263 0.38212 0.13336 0.0
H1650 H 0.59918 0.35181 0.09873 0.0
H1651 H 0.60012 0.30707 0.07816 0.0
H1652 H 0.54764 0.2454 0.10831 0.0
H1653 H 0.52887 0.27672 0.14063 0.0
C1654 C 0.5437 0.32785 0.14768 0.0
C1655 C 0.55429 0.35381 0.15001 0.0
C1656 C 0.55371 0.31007 0.12837 0.0
C1657 C 0.57413 0.36222 0.13193 0.0
C1658 C 0.58368 0.34487 0.11221 0.0
C1659 C 0.58456 0.30051 0.09178 0.0
C1660 C 0.57546 0.27388 0.0909 0.0
C1661 C 0.57397 0.31858 0.11055 0.0
C1662 C 0.55522 0.26571 0.10868 0.0
C1663 C 0.54437 0.28364 0.12713 0.0
H1664 H 0.47643 0.82143 0.33473 0.0
H1665 H 0.41463 0.87741 0.35699 0.0
H1666 H 0.39754 0.84581 0.39017 0.0
H1667 H 0.39879 0.80136 0.41127 0.0
H1668 H 0.45931 0.74464 0.38716 0.0
H1669 H 0.47813 0.77734 0.35626 0.0
C1670 C 0.45949 0.82687 0.34715 0.0
C1671 C 0.44691 0.85176 0.34353 0.0
C1672 C 0.4493 0.80832 0.36562 0.0
C1673 C 0.42468 0.85836 0.35944 0.0
C1674 C 0.41484 0.84027 0.37834 0.0
C1675 C 0.41611 0.79619 0.39928 0.0
C1676 C 0.4275 0.77055 0.40144 0.0
C1677 C 0.42672 0.81502 0.3813 0.0
C1678 C 0.44997 0.76415 0.38576 0.0
C1679 C 0.46085 0.78288 0.36813 0.0
H1680 H 0.54525 0.74275 0.39942 0.0
H1681 H 0.61736 0.69822 0.41557 0.0
H1682 H 0.60408 0.66428 0.38287 0.0
H1683 H 0.57318 0.64872 0.34802 0.0
H1684 H 0.50044 0.69271 0.33282 0.0
H1685 H 0.51251 0.72515 0.36727 0.0
C1686 C 0.55805 0.7256 0.39576 0.0
C1687 C 0.58244 0.72315 0.40953 0.0
C1688 C 0.55009 0.70602 0.37728 0.0
C1689 C 0.59858 0.70059 0.40506 0.0
C1690 C 0.59098 0.68121 0.38639 0.0
C1691 C 0.5598 0.66522 0.35245 0.0
C1692 C 0.53604 0.66837 0.33769 0.0
C1693 C 0.56693 0.68389 0.37218 0.0
C1694 C 0.51882 0.68975 0.34387 0.0
C1695 C 0.52581 0.70844 0.36345 0.0
H1696 H 0.15383 0.42577 0.14378 0.0
H1697 H 0.16723 0.49947 0.1869 0.0
H1698 H 0.1342 0.4862 0.22027 0.0
H1699 H 0.10389 0.45241 0.23886 0.0
H1700 H 0.08948 0.37915 0.19554 0.0
H1701 H 0.12066 0.39349 0.16057 0.0
C1702 C 0.1493 0.43909 0.16029 0.0
C1703 C 0.16318 0.4635 0.1629 0.0
C1704 C 0.13037 0.43127 0.17953 0.0
C1705 C 0.15688 0.48059 0.18434 0.0
C1706 C 0.13811 0.47294 0.20356 0.0
C1707 C 0.10757 0.43957 0.22176 0.0
C1708 C 0.09475 0.41458 0.21995 0.0
C1709 C 0.12519 0.4481 0.20165 0.0
C1710 C 0.09926 0.3984 0.19743 0.0
C1711 C 0.11706 0.4066 0.17746 0.0
H1712 H 0.83029 0.01625 0.18519 0.0
H1713 H 0.8538 0.07551 0.12696 0.0
H1714 H 0.88848 0.09195 0.15716 0.0
H1715 H 0.91032 0.09129 0.20115 0.0
H1716 H 0.88549 0.03312 0.25999 0.0
H1717 H 0.85312 0.0146 0.22858 0.0
C1718 C 0.8433 0.03246 0.17892 0.0
C1719 C 0.8395 0.04459 0.15384 0.0
C1720 C 0.86273 0.04229 0.19666 0.0
C1721 C 0.8563 0.06583 0.14617 0.0
C1722 C 0.87607 0.07532 0.16348 0.0
C1723 C 0.89786 0.07454 0.20709 0.0
C1724 C 0.90022 0.06377 0.23296 0.0
C1725 C 0.87912 0.06405 0.18897 0.0
C1726 C 0.88397 0.04197 0.24028 0.0
C1727 C 0.86548 0.03128 0.22229 0.0
H1728 H 0.10238 0.54299 0.26509 0.0
H1729 H 0.08144 0.61322 0.31072 0.0
H1730 H 0.11249 0.5998 0.34605 0.0
H1731 H 0.14701 0.56917 0.36291 0.0
H1732 H 0.16708 0.49835 0.31761 0.0
H1733 H 0.13452 0.51071 0.28345 0.0
C1734 C 0.10465 0.55538 0.28276 0.0
C1735 C 0.08995 0.57926 0.28515 0.0
C1736 C 0.1222 0.54733 0.30312 0.0
C1737 C 0.09268 0.59484 0.30836 0.0
C1738 C 0.11039 0.58715 0.32857 0.0
C1739 C 0.14406 0.55625 0.34572 0.0
C1740 C 0.15962 0.53294 0.34279 0.0
C1741 C 0.12542 0.56356 0.32604 0.0
C1742 C 0.15538 0.51638 0.32046 0.0
C1743 C 0.13688 0.52352 0.30078 0.0
H1744 H 0.8399 0.92689 0.35562 0.0
H1745 H 0.82922 0.00199 0.31423 0.0
H1746 H 0.86282 0.98887 0.28132 0.0
H1747 H 0.89311 0.95496 0.26274 0.0
H1748 H 0.90434 0.88017 0.30443 0.0
H1749 H 0.87249 0.89428 0.33877 0.0
C1750 C 0.84512 0.94054 0.33959 0.0
C1751 C 0.8319 0.96532 0.33733 0.0
C1752 C 0.8643 0.9328 0.32061 0.0
C1753 C 0.83908 0.98283 0.31651 0.0
C1754 C 0.85818 0.97527 0.29756 0.0
C1755 C 0.88856 0.94173 0.27933 0.0
C1756 C 0.90076 0.9164 0.28087 0.0
C1757 C 0.8705 0.95009 0.29912 0.0
C1758 C 0.89508 0.8997 0.30273 0.0
C1759 C 0.8769 0.90776 0.32237 0.0
H1760 H 0.14602 0.14975 0.42516 0.0
H1761 H 0.19166 0.16448 0.49695 0.0
H1762 H 0.22576 0.13286 0.482 0.0
H1763 H 0.24364 0.10273 0.44762 0.0
H1764 H 0.19747 0.08671 0.37655 0.0
H1765 H 0.1625 0.11728 0.39213 0.0
C1766 C 0.1633 0.14586 0.43767 0.0
C1767 C 0.16634 0.15959 0.46206 0.0
C1768 C 0.18283 0.12765 0.42897 0.0
C1769 C 0.18875 0.15414 0.47813 0.0
C1770 C 0.20836 0.13618 0.46953 0.0
C1771 C 0.22595 0.10599 0.43551 0.0
C1772 C 0.22326 0.09283 0.4108 0.0
C1773 C 0.2058 0.12317 0.4448 0.0
C1774 C 0.20001 0.09677 0.39557 0.0
C1775 C 0.18004 0.1142 0.40448 0.0
H1776 H 0.20036 0.90761 0.09286 0.0
H1777 H 0.25917 0.88794 0.03275 0.0
H1778 H 0.22982 0.85334 0.01485 0.0
H1779 H 0.18833 0.82726 0.01743 0.0
H1780 H 0.1303 0.84549 0.07868 0.0
H1781 H 0.15828 0.88222 0.0947 0.0
C1782 C 0.20672 0.8958 0.07581 0.0
C1783 C 0.23199 0.90028 0.06429 0.0
C1784 C 0.18983 0.87572 0.06572 0.0
C1785 C 0.23991 0.88481 0.04216 0.0
C1786 C 0.2231 0.86504 0.03183 0.0
C1787 C 0.18161 0.83953 0.03402 0.0
C1788 C 0.15724 0.83369 0.04679 0.0
C1789 C 0.19811 0.86017 0.04357 0.0
C1790 C 0.149 0.84955 0.0685 0.0
C1791 C 0.16502 0.87051 0.07774 0.0
H1792 H 0.8609 0.6504 0.07589 0.0
H1793 H 0.81472 0.66661 0.00475 0.0
H1794 H 0.78078 0.63462 0.01926 0.0
H1795 H 0.7631 0.60385 0.05319 0.0
H1796 H 0.80956 0.58692 0.12388 0.0
H1797 H 0.8445 0.61757 0.10852 0.0
C1798 C 0.84355 0.64676 0.06339 0.0
C1799 C 0.84033 0.66103 0.03933 0.0
C1800 C 0.82403 0.62845 0.07191 0.0
C1801 C 0.81779 0.6559 0.02333 0.0
C1802 C 0.79826 0.63771 0.03168 0.0
C1803 C 0.78085 0.60693 0.06528 0.0
C1804 C 0.78361 0.59344 0.08982 0.0
C1805 C 0.80096 0.62425 0.05615 0.0
C1806 C 0.80692 0.59721 0.105 0.0
C1807 C 0.8269 0.61469 0.09621 0.0
H1808 H 0.26745 0.89982 0.9535 0.0
H1809 H 0.31186 0.91163 0.88045 0.0
H1810 H 0.34604 0.88019 0.89588 0.0
H1811 H 0.36189 0.8476 0.92904 0.0
H1812 H 0.31771 0.83643 0.00242 0.0
H1813 H 0.28504 0.86977 0.98809 0.0
C1814 C 0.28462 0.89551 0.94095 0.0
C1815 C 0.28696 0.90772 0.91571 0.0
C1816 C 0.30427 0.87767 0.95007 0.0
C1817 C 0.30955 0.90236 0.89989 0.0
C1818 C 0.32908 0.8844 0.90871 0.0
C1819 C 0.34529 0.85265 0.94206 0.0
C1820 C 0.34218 0.83935 0.96669 0.0
C1821 C 0.32647 0.87171 0.93362 0.0
C1822 C 0.32064 0.84634 0.98338 0.0
C1823 C 0.30184 0.86529 0.97513 0.0
H1824 H 0.97696 0.54353 0.28079 0.0
H1825 H 0.97915 0.53261 0.19543 0.0
H1826 H 0.97325 0.48435 0.20093 0.0
H1827 H 0.97812 0.44507 0.23016 0.0
H1828 H 0.98262 0.45605 0.31538 0.0
H1829 H 0.9746 0.50407 0.31015 0.0
C1830 C 0.97495 0.53063 0.26345 0.0
C1831 C 0.97832 0.54146 0.23776 0.0
C1832 C 0.97321 0.50272 0.26688 0.0
C1833 C 0.97642 0.5246 0.21538 0.0
C1834 C 0.97331 0.49699 0.21855 0.0
C1835 C 0.97608 0.45788 0.24757 0.0
C1836 C 0.98063 0.44719 0.27311 0.0
C1837 C 0.97318 0.4857 0.24422 0.0
C1838 C 0.97883 0.46395 0.29557 0.0
C1839 C 0.97455 0.49143 0.29253 0.0
H1840 H 0.01701 0.96088 0.20987 0.0
H1841 H 0.01666 0.93075 0.29061 0.0
H1842 H 0.02249 0.97616 0.30786 0.0
H1843 H 0.01701 0.02459 0.29986 0.0
H1844 H 0.01772 0.05469 0.21908 0.0
H1845 H 0.02311 0.00921 0.2019 0.0
C1846 C 0.0193 0.96421 0.23119 0.0
C1847 C 0.01602 0.94265 0.24899 0.0
C1848 C 0.02226 0.99042 0.24094 0.0
C1849 C 0.01918 0.94704 0.27654 0.0
C1850 C 0.02217 0.97307 0.28641 0.0
C1851 C 0.01938 0.02123 0.27855 0.0
C1852 C 0.01652 0.04283 0.26072 0.0
C1853 C 0.02215 0.99498 0.26883 0.0
C1854 C 0.01984 0.03837 0.23319 0.0
C1855 C 0.02262 0.01232 0.22335 0.0
H1856 H 0.26802 0.98582 0.54256 0.0
H1857 H 0.1837 0.98864 0.5253 0.0
H1858 H 0.19262 0.97983 0.47805 0.0
H1859 H 0.22475 0.98148 0.44083 0.0
H1860 H 0.3091 0.98502 0.4578 0.0
H1861 H 0.30011 0.98055 0.50565 0.0
C1862 C 0.25161 0.98336 0.52858 0.0
C1863 C 0.22526 0.98775 0.53731 0.0
C1864 C 0.25704 0.9799 0.50117 0.0
C1865 C 0.20414 0.98519 0.51897 0.0
C1866 C 0.20927 0.9804 0.49191 0.0
C1867 C 0.24114 0.98012 0.45497 0.0
C1868 C 0.26753 0.98346 0.44591 0.0
C1869 C 0.23569 0.97917 0.48258 0.0
C1870 C 0.28863 0.98235 0.46441 0.0
C1871 C 0.28347 0.98005 0.49178 0.0
H1872 H 0.72383 0.52219 0.55808 0.0
H1873 H 0.80874 0.52451 0.54424 0.0
H1874 H 0.80128 0.53078 0.49632 0.0
H1875 H 0.77096 0.52457 0.45804 0.0
H1876 H 0.6864 0.51602 0.47206 0.0
H1877 H 0.69302 0.5238 0.51982 0.0
C1878 C 0.74058 0.52541 0.54466 0.0
C1879 C 0.76676 0.52322 0.55456 0.0
C1880 C 0.7361 0.52726 0.51693 0.0
C1881 C 0.78842 0.52652 0.53698 0.0
C1882 C 0.78414 0.52974 0.50955 0.0
C1883 C 0.75393 0.52559 0.47145 0.0
C1884 C 0.72825 0.51974 0.46164 0.0
C1885 C 0.75811 0.52856 0.49914 0.0
C1886 C 0.70635 0.52051 0.47924 0.0
C1887 C 0.71016 0.52474 0.50658 0.0
H1888 H 0.20846 0.02084 0.95862 0.0
H1889 H 0.29004 0.02283 0.93093 0.0
H1890 H 0.30584 0.02773 0.97694 0.0
H1891 H 0.29648 0.021 0.02496 0.0
H1892 H 0.21484 0.01978 0.05262 0.0
H1893 H 0.19893 0.0257 0.00679 0.0
C1894 C 0.22962 0.02349 0.96264 0.0
C1895 C 0.24811 0.0212 0.94155 0.0
C1896 C 0.23853 0.02597 0.98917 0.0
C1897 C 0.27546 0.02468 0.94685 0.0
C1898 C 0.2845 0.02712 0.97321 0.0
C1899 C 0.27525 0.02307 0.021 0.0
C1900 C 0.25683 0.01957 0.042 0.0
C1901 C 0.26627 0.02625 0.99456 0.0
C1902 C 0.22939 0.02245 0.03678 0.0
C1903 C 0.22028 0.02554 0.01052 0.0
H1904 H 0.71067 0.48647 0.03918 0.0
H1905 H 0.79114 0.4812 0.06962 0.0
H1906 H 0.80856 0.47873 0.02401 0.0
H1907 H 0.8012 0.48756 0.97603 0.0
H1908 H 0.72072 0.49198 0.94551 0.0
H1909 H 0.70294 0.48466 0.99047 0.0
C1910 C 0.73194 0.48383 0.0358 0.0
C1911 C 0.74963 0.4844 0.05768 0.0
C1912 C 0.74181 0.48264 0.00949 0.0
C1913 C 0.77711 0.48077 0.05312 0.0
C1914 C 0.78711 0.47965 0.02701 0.0
C1915 C 0.77978 0.48595 0.97913 0.0
C1916 C 0.76228 0.49065 0.95759 0.0
C1917 C 0.76972 0.48196 0.00508 0.0
C1918 C 0.73459 0.48836 0.96174 0.0
C1919 C 0.72441 0.48447 0.98753 0.0
H1920 H 0.44758 0.2252 0.9758 0.0
H1921 H 0.45925 0.31058 0.97495 0.0
H1922 H 0.50731 0.30444 0.96831 0.0
H1923 H 0.54646 0.27496 0.97281 0.0
H1924 H 0.53479 0.18983 0.97993 0.0
H1925 H 0.48666 0.1954 0.97351 0.0
C1926 C 0.46056 0.24237 0.97299 0.0
C1927 C 0.45001 0.26828 0.97567 0.0
C1928 C 0.48839 0.23864 0.97083 0.0
C1929 C 0.46703 0.29046 0.97275 0.0
C1930 C 0.49453 0.28694 0.96922 0.0
C1931 C 0.53344 0.2576 0.97186 0.0
C1932 C 0.54405 0.23204 0.97679 0.0
C1933 C 0.50559 0.26114 0.96968 0.0
C1934 C 0.52698 0.2097 0.97613 0.0
C1935 C 0.49944 0.21291 0.97266 0.0
H1936 H 0.54872 0.72445 0.52405 0.0
H1937 H 0.53471 0.80939 0.52013 0.0
H1938 H 0.48661 0.80217 0.52501 0.0
H1939 H 0.44855 0.77136 0.51989 0.0
H1940 H 0.46279 0.6864 0.5177 0.0
H1941 H 0.51034 0.69367 0.52635 0.0
C1942 C 0.53517 0.74135 0.52547 0.0
C1943 C 0.54514 0.76739 0.52186 0.0
C1944 C 0.50737 0.73691 0.52669 0.0
C1945 C 0.5274 0.78917 0.52302 0.0
C1946 C 0.49988 0.78502 0.52555 0.0
C1947 C 0.46192 0.75447 0.52252 0.0
C1948 C 0.45227 0.72841 0.51831 0.0
C1949 C 0.48954 0.75893 0.5259 0.0
C1950 C 0.46984 0.70664 0.52104 0.0
C1951 C 0.49708 0.71081 0.52572 0.0
H1952 H 0.03056 0.7054 0.48345 0.0
H1953 H 0.06065 0.78625 0.4829 0.0
H1954 H 0.01509 0.8035 0.4787 0.0
H1955 H 0.96679 0.79547 0.48519 0.0
H1956 H 0.93668 0.71463 0.48499 0.0
H1957 H 0.98205 0.69743 0.47882 0.0
C1958 C 0.02716 0.72675 0.48136 0.0
C1959 C 0.04885 0.74456 0.48381 0.0
C1960 C 1.00087 0.7365 0.47923 0.0
C1961 C 0.0443 0.77215 0.48097 0.0
C1962 C 0.01819 0.78203 0.4789 0.0
C1963 C 0.97011 0.77415 0.48277 0.0
C1964 C 0.94852 0.75631 0.48588 0.0
C1965 C 0.99629 0.76442 0.47947 0.0
C1966 C 0.95295 0.72875 0.48258 0.0
C1967 C 0.97896 0.7189 0.47936 0.0
H1968 H 0.02862 0.45208 0.72796 0.0
H1969 H 0.02598 0.46344 0.81327 0.0
H1970 H 0.03274 0.51157 0.80758 0.0
H1971 H 0.02905 0.55083 0.77812 0.0
H1972 H 0.02553 0.53947 0.69284 0.0
H1973 H 0.03215 0.49133 0.69847 0.0
C1974 C 0.0307 0.46501 0.74527 0.0
C1975 C 0.02691 0.45434 0.77097 0.0
C1976 C 0.03298 0.49288 0.74173 0.0
C1977 C 0.02897 0.4713 0.79329 0.0
C1978 C 0.03258 0.49885 0.79002 0.0
C1979 C 0.03088 0.53789 0.76079 0.0
C1980 C 0.02687 0.54857 0.73512 0.0
C1981 C 0.03312 0.51002 0.7643 0.0
C1982 C 0.02865 0.5316 0.71279 0.0
C1983 C 0.0322 0.50405 0.71602 0.0
H1984 H 0.9842 0.03439 0.79731 0.0
H1985 H 0.97797 0.06119 0.71561 0.0
H1986 H 0.97274 0.01493 0.70058 0.0
H1987 H 0.97889 0.96687 0.71008 0.0
H1988 H 0.98437 0.94004 0.79182 0.0
H1989 H 0.98031 0.98621 0.8075 0.0
C1990 C 0.98084 0.03012 0.77631 0.0
C1991 C 0.98186 0.05111 0.75755 0.0
C1992 C 0.97804 0.00343 0.76781 0.0
C1993 C 0.97724 0.0454 0.73044 0.0
C1994 C 0.97452 0.0189 0.72181 0.0
C1995 C 0.97828 0.97109 0.73135 0.0
C1996 C 0.98228 0.95015 0.74976 0.0
C1997 C 0.97619 0.99773 0.74019 0.0
C1998 C 0.98126 0.95579 0.77726 0.0
C1999 C 0.97924 0.98225 0.78622 0.0
H2000 H 0.78805 0.02357 0.46338 0.0
H2001 H 0.70617 0.02473 0.43654 0.0
H2002 H 0.69075 0.02934 0.48272 0.0
H2003 H 0.70061 0.02301 0.53064 0.0
H2004 H 0.78255 0.02262 0.55743 0.0
H2005 H 0.79797 0.02842 0.51142 0.0
C2006 C 0.76689 0.02586 0.46763 0.0
C2007 C 0.74822 0.02345 0.44674 0.0
C2008 C 0.7582 0.02823 0.49424 0.0
C2009 C 0.72089 0.0266 0.45233 0.0
C2010 C 0.71206 0.02891 0.47877 0.0
C2011 C 0.7218 0.02517 0.52645 0.0
C2012 C 0.74045 0.02195 0.54725 0.0
C2013 C 0.7305 0.02827 0.49991 0.0
C2014 C 0.76782 0.02503 0.54173 0.0
C2015 C 0.77666 0.02806 0.51538 0.0
H2016 H 0.20799 0.47707 0.47275 0.0
H2017 H 0.28785 0.4773 0.44014 0.0
H2018 H 0.30653 0.47432 0.48513 0.0
H2019 H 0.29995 0.48208 0.53333 0.0
H2020 H 0.22012 0.48182 0.56597 0.0
H2021 H 0.20165 0.47369 0.5215 0.0
C2022 C 0.22946 0.47551 0.47548 0.0
C2023 C 0.24653 0.47796 0.45323 0.0
C2024 C 0.24007 0.4742 0.50145 0.0
C2025 C 0.27427 0.47556 0.45694 0.0
C2026 C 0.28499 0.47414 0.48272 0.0
C2027 C 0.27858 0.47927 0.53081 0.0
C2028 C 0.26138 0.48305 0.55276 0.0
C2029 C 0.26809 0.47501 0.50511 0.0
C2030 C 0.23378 0.47906 0.54937 0.0
C2031 C 0.22317 0.47471 0.52387 0.0
H2032 H 0.70715 0.97886 0.96423 0.0
H2033 H 0.78855 0.97981 0.93595 0.0
H2034 H 0.80483 0.97434 0.98171 0.0
H2035 H 0.79562 0.98031 0.02984 0.0
H2036 H 0.71421 0.97862 0.05809 0.0
H2037 H 0.69813 0.97263 0.01234 0.0
C2038 C 0.7284 0.97668 0.96804 0.0
C2039 C 0.74667 0.98007 0.94692 0.0
C2040 C 0.73758 0.97387 0.99444 0.0
C2041 C 0.77414 0.97716 0.95192 0.0
C2042 C 0.78346 0.97439 0.97814 0.0
C2043 C 0.77444 0.97751 0.02602 0.0
C2044 C 0.75607 0.98029 0.04714 0.0
C2045 C 0.76537 0.97434 0.99962 0.0
C2046 C 0.7287 0.9765 0.04213 0.0
C2047 C 0.71949 0.9734 0.01591 0.0
H2048 H 0.29581 0.5208 0.9695 0.0
H2049 H 0.21425 0.52291 0.94177 0.0
H2050 H 0.19841 0.52827 0.98773 0.0
H2051 H 0.20767 0.52268 0.03589 0.0
H2052 H 0.28927 0.52183 0.06359 0.0
H2053 H 0.30529 0.52634 0.01762 0.0
C2054 C 0.27464 0.52344 0.97351 0.0
C2055 C 0.25617 0.52113 0.95243 0.0
C2056 C 0.26571 0.52638 0.99999 0.0
C2057 C 0.22882 0.52471 0.9577 0.0
C2058 C 0.21975 0.52747 0.98402 0.0
C2059 C 0.22892 0.5245 0.03187 0.0
C2060 C 0.2473 0.52158 0.05296 0.0
C2061 C 0.23796 0.52693 0.00537 0.0
C2062 C 0.27476 0.5241 0.04767 0.0
C2063 C 0.28393 0.52637 0.02134 0.0
H2064 H 0.46987 0.79885 0.0254 0.0
H2065 H 0.44391 0.71664 0.02801 0.0
H2066 H 0.49027 0.70176 0.03243 0.0
H2067 H 0.538 0.71209 0.02528 0.0
H2068 H 0.56402 0.79431 0.02409 0.0
H2069 H 0.51788 0.80938 0.03009 0.0
C2070 C 0.47438 0.77777 0.02801 0.0
C2071 C 0.4537 0.75881 0.02604 0.0
C2072 C 0.50108 0.76939 0.03042 0.0
C2073 C 0.45956 0.73156 0.02955 0.0
C2074 C 0.48609 0.72304 0.03177 0.0
C2075 C 0.53361 0.73325 0.02745 0.0
C2076 C 0.55416 0.75212 0.02395 0.0
C2077 C 0.50703 0.74172 0.03074 0.0
C2078 C 0.54845 0.77947 0.02684 0.0
C2079 C 0.52203 0.78808 0.02995 0.0
H2080 H 0.46877 0.20906 0.48422 0.0
H2081 H 0.44367 0.29155 0.48409 0.0
H2082 H 0.49011 0.30603 0.47863 0.0
H2083 H 0.53805 0.29506 0.48337 0.0
H2084 H 0.56309 0.21253 0.48209 0.0
H2085 H 0.51652 0.19811 0.47797 0.0
C2086 C 0.47344 0.23015 0.48195 0.0
C2087 C 0.45298 0.24926 0.48479 0.0
C2088 C 0.50019 0.23828 0.47895 0.0
C2089 C 0.45911 0.27651 0.4818 0.0
C2090 C 0.4857 0.28479 0.479 0.0
C2091 C 0.53331 0.27397 0.48119 0.0
C2092 C 0.55384 0.25484 0.48333 0.0
C2093 C 0.50648 0.26587 0.47893 0.0
C2094 C 0.54761 0.2276 0.48038 0.0
C2095 C 0.52095 0.21935 0.47833 0.0
H2096 H 0.95353 0.22582 0.52437 0.0
H2097 H 0.96914 0.31057 0.52293 0.0
H2098 H 0.01669 0.30244 0.53078 0.0
H2099 H 0.05444 0.2711 0.52729 0.0
H2100 H 0.03897 0.18643 0.52242 0.0
H2101 H 0.99112 0.19435 0.52844 0.0
C2102 C 0.96723 0.24247 0.52699 0.0
C2103 C 0.95797 0.26873 0.52319 0.0
C2104 C 0.99479 0.23753 0.52984 0.0
C2105 C 0.97591 0.29019 0.52593 0.0
C2106 C 0.00314 0.28552 0.53015 0.0
C2107 C 0.04066 0.25438 0.52871 0.0
C2108 C 0.05011 0.22825 0.52441 0.0
C2109 C 0.013 0.25924 0.53058 0.0
C2110 C 0.03206 0.20672 0.52572 0.0
C2111 C 0.00468 0.21127 0.52892 0.0
H2112 H 0.48006 0.03388 0.70492 0.0
H2113 H 0.48182 0.06013 0.78702 0.0
H2114 H 0.47623 0.01397 0.80218 0.0
H2115 H 0.4803 0.96586 0.79186 0.0
H2116 H 0.47746 0.93955 0.70985 0.0
H2117 H 0.47338 0.98597 0.69482 0.0
C2118 C 0.47828 0.02954 0.7261 0.0
C2119 C 0.48175 0.05026 0.74484 0.0
C2120 C 0.47523 0.00291 0.73466 0.0
C2121 C 0.47919 0.04452 0.77221 0.0
C2122 C 0.47627 0.01807 0.7809 0.0
C2123 C 0.4778 0.9703 0.77077 0.0
C2124 C 0.4795 0.94945 0.75194 0.0
C2125 C 0.47565 0.99703 0.76231 0.0
C2126 C 0.47611 0.95529 0.7247 0.0
C2127 C 0.47409 0.98186 0.71609 0.0
H2128 H 0.524 0.54903 0.73264 0.0
H2129 H 0.51988 0.53915 0.81808 0.0
H2130 H 0.52729 0.491 0.81336 0.0
H2131 H 0.52499 0.45117 0.78454 0.0
H2132 H 0.52241 0.46093 0.69906 0.0
H2133 H 0.5282 0.50931 0.7039 0.0
C2134 C 0.52583 0.53641 0.75021 0.0
C2135 C 0.52151 0.54748 0.77566 0.0
C2136 C 0.52847 0.50853 0.7472 0.0
C2137 C 0.52325 0.53095 0.79831 0.0
C2138 C 0.52727 0.50341 0.79559 0.0
C2139 C 0.52686 0.46386 0.76703 0.0
C2140 C 0.52352 0.45267 0.7415 0.0
C2141 C 0.52849 0.49181 0.77008 0.0
C2142 C 0.52517 0.46924 0.71889 0.0
C2143 C 0.52822 0.4969 0.72168 0.0
H2144 H 0.03233 0.29828 0.01721 0.0
H2145 H 0.05779 0.21587 0.01874 0.0
H2146 H 0.01141 0.20131 0.02423 0.0
H2147 H 0.96342 0.21195 0.01958 0.0
H2148 H 0.93795 0.29435 0.01938 0.0
H2149 H 0.98447 0.30908 0.023 0.0
C2150 C 0.02775 0.2772 0.01967 0.0
C2151 C 0.04835 0.25814 0.01725 0.0
C2152 C 1.00102 0.26899 0.02272 0.0
C2153 C 0.04228 0.2309 0.02062 0.0
C2154 C 0.01572 0.22256 0.02348 0.0
C2155 C 0.96806 0.2331 0.0213 0.0
C2156 C 0.94739 0.25207 0.01894 0.0
C2157 C 0.99486 0.24138 0.02325 0.0
C2158 C 0.95352 0.2794 0.02129 0.0
C2159 C 0.98016 0.28782 0.02305 0.0
H2160 H 0.52172 0.0601 0.27733 0.0
H2161 H 0.52266 0.04523 0.19254 0.0
H2162 H 0.52652 0.99711 0.20049 0.0
H2163 H 0.51917 0.95939 0.23129 0.0
H2164 H 0.51217 0.97459 0.31576 0.0
H2165 H 0.52171 0.02202 0.30853 0.0
C2166 C 0.524 0.04635 0.26069 0.0
C2167 C 0.52208 0.05609 0.23442 0.0
C2168 C 0.52457 0.01857 0.26546 0.0
C2169 C 0.5243 0.0381 0.21294 0.0
C2170 C 0.52622 0.01056 0.2175 0.0
C2171 C 0.52089 0.97294 0.24815 0.0
C2172 C 0.51505 0.9636 0.274 0.0
C2173 C 0.52487 1.00049 0.24363 0.0
C2174 C 0.51669 0.98141 0.29569 0.0
C2175 C 0.52191 0.00857 0.29152 0.0
H2176 H 0.48978 0.47856 0.19622 0.0
H2177 H 0.48767 0.44752 0.27662 0.0
H2178 H 0.47972 0.49254 0.29405 0.0
H2179 H 0.48282 0.5413 0.28678 0.0
H2180 H 0.48425 0.57232 0.20637 0.0
H2181 H 0.48237 0.52679 0.18852 0.0
C2182 C 0.48666 0.48157 0.21748 0.0
C2183 C 0.48969 0.45984 0.23515 0.0
C2184 C 0.48233 0.50757 0.22736 0.0
C2185 C 0.48539 0.4639 0.26261 0.0
C2186 C 0.48113 0.48972 0.27261 0.0
C2187 C 0.48174 0.53808 0.26535 0.0
C2188 C 0.48402 0.56009 0.2479 0.0
C2189 C 0.48094 0.51182 0.25526 0.0
C2190 C 0.48245 0.55573 0.22021 0.0
C2191 C 0.48169 0.52966 0.20999 0.0
H2192 H 0.0368 0.78851 0.9808 0.0
H2193 H 0.06429 0.7068 0.97991 0.0
H2194 H 0.01847 0.69105 0.97322 0.0
H2195 H 0.97028 0.70055 0.97809 0.0
H2196 H 0.94292 0.78238 0.978 0.0
H2197 H 0.98895 0.79816 0.97383 0.0
C2198 C 0.0328 0.76734 0.97803 0.0
C2199 C 0.05366 0.74878 0.98116 0.0
C2200 C 0.0064 0.75848 0.97442 0.0
C2201 C 0.04847 0.72141 0.97747 0.0
C2202 C 0.02223 0.7124 0.97397 0.0
C2203 C 0.97439 0.72179 0.97613 0.0
C2204 C 0.95339 0.74031 0.97883 0.0
C2205 C 1.00094 0.73071 0.97396 0.0
C2206 C 0.95879 0.76775 0.976 0.0
C2207 C 0.98515 0.7768 0.97391 0.0
loop_
_geom_bond_atom_site_label_1
_geom_bond_atom_site_label_2
_geom_bond_distance
_geom_bond_site_symmetry_2
_ccdc_geom_bond_type
O0 Cd1 2.223 . S
O0 C8 1.315 . S
Cd1 O0 2.223 . S
Cd1 O4 2.297 1_455 S
Cd1 O5 2.439 . S
Cd1 O11 2.240 . S
Cd2 O3 2.240 . S
Cd2 O10 2.223 . S
Cd2 O12 2.297 . S
Cd2 O13 2.439 . S
O3 Cd2 2.240 . S
O3 C8 1.279 . S
O4 Cd1 2.297 1_655 S
O4 C6 1.247 1_655 S
O5 Cd1 2.439 . S
O5 C6 1.208 . S
C6 O4 1.247 1_455 S
C6 O5 1.208 . S
C7 O12 1.247 . S
C7 O13 1.208 . S
C8 O0 1.315 . S
C8 O3 1.279 . S
C9 O10 1.315 . S
C9 O11 1.279 . S
O10 Cd2 2.223 . S
O10 C9 1.315 . S
O11 Cd1 2.240 . S
O11 C9 1.279 . S
O12 Cd2 2.297 . S
O12 C7 1.247 . S
O13 Cd2 2.439 . S
O13 C7 1.208 . S
O14 Cd15 2.223 . S
O14 C22 1.315 . S
Cd15 O14 2.223 . S
Cd15 O18 2.297 1_655 S
Cd15 O19 2.439 . S
Cd15 O25 2.240 . S
Cd16 O17 2.240 . S
Cd16 O24 2.223 . S
Cd16 O26 2.297 . S
Cd16 O27 2.439 . S
O17 Cd16 2.240 . S
O17 C22 1.279 . S
O18 Cd15 2.297 1_455 S
O18 C20 1.247 1_455 S
O19 Cd15 2.439 . S
O19 C20 1.208 . S
C20 O18 1.247 1_655 S
C20 O19 1.208 . S
C21 O26 1.247 . S
C21 O27 1.208 . S
C22 O14 1.315 . S
C22 O17 1.279 . S
C23 O24 1.315 . S
C23 O25 1.279 . S
O24 Cd16 2.223 . S
O24 C23 1.315 . S
O25 Cd15 2.240 . S
O25 C23 1.279 . S
O26 Cd16 2.297 . S
O26 C21 1.247 . S
O27 Cd16 2.439 . S
O27 C21 1.208 . S
O28 Cd29 2.223 . S
O28 C36 1.315 . S
Cd29 O28 2.223 . S
Cd29 O32 2.297 1_455 S
Cd29 O33 2.439 . S
Cd29 O39 2.240 . S
Cd30 O31 2.240 . S
Cd30 O38 2.223 . S
Cd30 O40 2.297 . S
Cd30 O41 2.439 . S
O31 Cd30 2.240 . S
O31 C36 1.279 . S
O32 Cd29 2.297 1_655 S
O32 C34 1.247 1_655 S
O33 Cd29 2.439 . S
O33 C34 1.208 . S
C34 O32 1.247 1_455 S
C34 O33 1.208 . S
C35 O40 1.247 . S
C35 O41 1.208 . S
C36 O28 1.315 . S
C36 O31 1.279 . S
C37 O38 1.315 . S
C37 O39 1.279 . S
O38 Cd30 2.223 . S
O38 C37 1.315 . S
O39 Cd29 2.240 . S
O39 C37 1.279 . S
O40 Cd30 2.297 . S
O40 C35 1.247 . S
O41 Cd30 2.439 . S
O41 C35 1.208 . S
O42 Cd43 2.223 . S
O42 C50 1.315 . S
Cd43 O42 2.223 . S
Cd43 O46 2.297 1_655 S
Cd43 O47 2.439 . S
Cd43 O53 2.240 . S
Cd44 O45 2.240 . S
Cd44 O52 2.223 . S
Cd44 O54 2.297 . S
Cd44 O55 2.439 . S
O45 Cd44 2.240 . S
O45 C50 1.279 . S
O46 Cd43 2.297 1_455 S
O46 C48 1.247 1_455 S
O47 Cd43 2.439 . S
O47 C48 1.208 . S
C48 O46 1.247 1_655 S
C48 O47 1.208 . S
C49 O54 1.247 . S
C49 O55 1.208 . S
C50 O42 1.315 . S
C50 O45 1.279 . S
C51 O52 1.315 . S
C51 O53 1.279 . S
O52 Cd44 2.223 . S
O52 C51 1.315 . S
O53 Cd43 2.240 . S
O53 C51 1.279 . S
O54 Cd44 2.297 . S
O54 C49 1.247 . S
O55 Cd44 2.439 . S
O55 C49 1.208 . S
O56 Cd57 2.223 . S
O56 C64 1.315 . S
Cd57 O56 2.223 . S
Cd57 O60 2.297 1_545 S
Cd57 O61 2.439 . S
Cd57 O67 2.240 . S
Cd58 O59 2.240 . S
Cd58 O66 2.223 . S
Cd58 O68 2.297 . S
Cd58 O69 2.439 . S
O59 Cd58 2.240 . S
O59 C64 1.279 . S
O60 Cd57 2.297 1_565 S
O60 C62 1.247 1_565 S
O61 Cd57 2.439 . S
O61 C62 1.208 . S
C62 O60 1.247 1_545 S
C62 O61 1.208 . S
C63 O68 1.247 . S
C63 O69 1.208 . S
C64 O56 1.315 . S
C64 O59 1.279 . S
C65 O66 1.315 . S
C65 O67 1.279 . S
O66 Cd58 2.223 . S
O66 C65 1.315 . S
O67 Cd57 2.240 . S
O67 C65 1.279 . S
O68 Cd58 2.297 . S
O68 C63 1.247 . S
O69 Cd58 2.439 . S
O69 C63 1.208 . S
O70 Cd71 2.223 . S
O70 C78 1.315 . S
Cd71 O70 2.223 . S
Cd71 O74 2.297 . S
Cd71 O75 2.439 . S
Cd71 O81 2.240 . S
Cd72 O73 2.240 . S
Cd72 O80 2.223 . S
Cd72 O82 2.297 . S
Cd72 O83 2.439 . S
O73 Cd72 2.240 . S
O73 C78 1.279 . S
O74 Cd71 2.297 . S
O74 C76 1.247 . S
O75 Cd71 2.439 . S
O75 C76 1.208 . S
C76 O74 1.247 . S
C76 O75 1.208 . S
C77 O82 1.247 . S
C77 O83 1.208 . S
C78 O70 1.315 . S
C78 O73 1.279 . S
C79 O80 1.315 . S
C79 O81 1.279 . S
O80 Cd72 2.223 . S
O80 C79 1.315 . S
O81 Cd71 2.240 . S
O81 C79 1.279 . S
O82 Cd72 2.297 . S
O82 C77 1.247 . S
O83 Cd72 2.439 . S
O83 C77 1.208 . S
O84 Cd85 2.223 . S
O84 C92 1.315 . S
Cd85 O84 2.223 . S
Cd85 O88 2.297 1_565 S
Cd85 O89 2.439 . S
Cd85 O95 2.240 . S
Cd86 O87 2.240 . S
Cd86 O94 2.223 . S
Cd86 O96 2.297 . S
Cd86 O97 2.439 . S
O87 Cd86 2.240 . S
O87 C92 1.279 . S
O88 Cd85 2.297 1_545 S
O88 C90 1.247 1_545 S
O89 Cd85 2.439 . S
O89 C90 1.208 . S
C90 O88 1.247 1_565 S
C90 O89 1.208 . S
C91 O96 1.247 . S
C91 O97 1.208 . S
C92 O84 1.315 . S
C92 O87 1.279 . S
C93 O94 1.315 . S
C93 O95 1.279 . S
O94 Cd86 2.223 . S
O94 C93 1.315 . S
O95 Cd85 2.240 . S
O95 C93 1.279 . S
O96 Cd86 2.297 . S
O96 C91 1.247 . S
O97 Cd86 2.439 . S
O97 C91 1.208 . S
O98 Cd99 2.223 . S
O98 C106 1.315 . S
Cd99 O98 2.223 . S
Cd99 O102 2.297 . S
Cd99 O103 2.439 . S
Cd99 O109 2.240 . S
Cd100 O101 2.240 . S
Cd100 O108 2.223 . S
Cd100 O110 2.297 . S
Cd100 O111 2.439 . S
O101 Cd100 2.240 . S
O101 C106 1.279 . S
O102 Cd99 2.297 . S
O102 C104 1.247 . S
O103 Cd99 2.439 . S
O103 C104 1.208 . S
C104 O102 1.247 . S
C104 O103 1.208 . S
C105 O110 1.247 . S
C105 O111 1.208 . S
C106 O98 1.315 . S
C106 O101 1.279 . S
C107 O108 1.315 . S
C107 O109 1.279 . S
O108 Cd100 2.223 . S
O108 C107 1.315 . S
O109 Cd99 2.240 . S
O109 C107 1.279 . S
O110 Cd100 2.297 . S
O110 C105 1.247 . S
O111 Cd100 2.439 . S
O111 C105 1.208 . S
O112 Cd113 2.223 . S
O112 C120 1.315 . S
Cd113 O112 2.223 . S
Cd113 O116 2.297 1_554 S
Cd113 O117 2.439 . S
Cd113 O123 2.240 . S
Cd114 O115 2.240 . S
Cd114 O122 2.223 . S
Cd114 O124 2.297 . S
Cd114 O125 2.439 . S
O115 Cd114 2.240 . S
O115 C120 1.279 . S
O116 Cd113 2.297 1_556 S
O116 C118 1.247 1_556 S
O117 Cd113 2.439 . S
O117 C118 1.208 . S
C118 O116 1.247 1_554 S
C118 O117 1.208 . S
C119 O124 1.247 . S
C119 O125 1.208 . S
C120 O112 1.315 . S
C120 O115 1.279 . S
C121 O122 1.315 . S
C121 O123 1.279 . S
O122 Cd114 2.223 . S
O122 C121 1.315 . S
O123 Cd113 2.240 . S
O123 C121 1.279 . S
O124 Cd114 2.297 . S
O124 C119 1.247 . S
O125 Cd114 2.439 . S
O125 C119 1.208 . S
O126 Cd127 2.223 . S
O126 C134 1.315 . S
Cd127 O126 2.223 . S
Cd127 O130 2.297 . S
Cd127 O131 2.439 . S
Cd127 O137 2.240 . S
Cd128 O129 2.240 . S
Cd128 O136 2.223 . S
Cd128 O138 2.297 . S
Cd128 O139 2.439 . S
O129 Cd128 2.240 . S
O129 C134 1.279 . S
O130 Cd127 2.297 . S
O130 C132 1.247 . S
O131 Cd127 2.439 . S
O131 C132 1.208 . S
C132 O130 1.247 . S
C132 O131 1.208 . S
C133 O138 1.247 . S
C133 O139 1.208 . S
C134 O126 1.315 . S
C134 O129 1.279 . S
C135 O136 1.315 . S
C135 O137 1.279 . S
O136 Cd128 2.223 . S
O136 C135 1.315 . S
O137 Cd127 2.240 . S
O137 C135 1.279 . S
O138 Cd128 2.297 . S
O138 C133 1.247 . S
O139 Cd128 2.439 . S
O139 C133 1.208 . S
O140 Cd141 2.223 . S
O140 C148 1.315 . S
Cd141 O140 2.223 . S
Cd141 O144 2.297 . S
Cd141 O145 2.439 . S
Cd141 O151 2.240 . S
Cd142 O143 2.240 . S
Cd142 O150 2.223 . S
Cd142 O152 2.297 . S
Cd142 O153 2.439 . S
O143 Cd142 2.240 . S
O143 C148 1.279 . S
O144 Cd141 2.297 . S
O144 C146 1.247 . S
O145 Cd141 2.439 . S
O145 C146 1.208 . S
C146 O144 1.247 . S
C146 O145 1.208 . S
C147 O152 1.247 . S
C147 O153 1.208 . S
C148 O140 1.315 . S
C148 O143 1.279 . S
C149 O150 1.315 . S
C149 O151 1.279 . S
O150 Cd142 2.223 . S
O150 C149 1.315 . S
O151 Cd141 2.240 . S
O151 C149 1.279 . S
O152 Cd142 2.297 . S
O152 C147 1.247 . S
O153 Cd142 2.439 . S
O153 C147 1.208 . S
O154 Cd155 2.223 . S
O154 C162 1.315 . S
Cd155 O154 2.223 . S
Cd155 O158 2.297 . S
Cd155 O159 2.439 . S
Cd155 O165 2.240 . S
Cd156 O157 2.240 . S
Cd156 O164 2.223 . S
Cd156 O166 2.297 . S
Cd156 O167 2.439 . S
O157 Cd156 2.240 . S
O157 C162 1.279 . S
O158 Cd155 2.297 . S
O158 C160 1.247 . S
O159 Cd155 2.439 . S
O159 C160 1.208 . S
C160 O158 1.247 . S
C160 O159 1.208 . S
C161 O166 1.247 . S
C161 O167 1.208 . S
C162 O154 1.315 . S
C162 O157 1.279 . S
C163 O164 1.315 . S
C163 O165 1.279 . S
O164 Cd156 2.223 . S
O164 C163 1.315 . S
O165 Cd155 2.240 . S
O165 C163 1.279 . S
O166 Cd156 2.297 . S
O166 C161 1.247 . S
O167 Cd156 2.439 . S
O167 C161 1.208 . S
O168 Cd169 2.223 . S
O168 C176 1.315 . S
Cd169 O168 2.223 . S
Cd169 O172 2.297 1_655 S
Cd169 O173 2.439 . S
Cd169 O179 2.240 . S
Cd170 O171 2.240 . S
Cd170 O178 2.223 . S
Cd170 O180 2.297 . S
Cd170 O181 2.439 . S
O171 Cd170 2.240 . S
O171 C176 1.279 . S
O172 Cd169 2.297 1_455 S
O172 C174 1.247 1_455 S
O173 Cd169 2.439 . S
O173 C174 1.208 . S
C174 O172 1.247 1_655 S
C174 O173 1.208 . S
C175 O180 1.247 . S
C175 O181 1.208 . S
C176 O168 1.315 . S
C176 O171 1.279 . S
C177 O178 1.315 . S
C177 O179 1.279 . S
O178 Cd170 2.223 . S
O178 C177 1.315 . S
O179 Cd169 2.240 . S
O179 C177 1.279 . S
O180 Cd170 2.297 . S
O180 C175 1.247 . S
O181 Cd170 2.439 . S
O181 C175 1.208 . S
O182 Cd183 2.223 . S
O182 C190 1.315 . S
Cd183 O182 2.223 . S
Cd183 O186 2.297 1_455 S
Cd183 O187 2.439 . S
Cd183 O193 2.240 . S
Cd184 O185 2.240 . S
Cd184 O192 2.223 . S
Cd184 O194 2.297 . S
Cd184 O195 2.439 . S
O185 Cd184 2.240 . S
O185 C190 1.279 . S
O186 Cd183 2.297 1_655 S
O186 C188 1.247 1_655 S
O187 Cd183 2.439 . S
O187 C188 1.208 . S
C188 O186 1.247 1_455 S
C188 O187 1.208 . S
C189 O194 1.247 . S
C189 O195 1.208 . S
C190 O182 1.315 . S
C190 O185 1.279 . S
C191 O192 1.315 . S
C191 O193 1.279 . S
O192 Cd184 2.223 . S
O192 C191 1.315 . S
O193 Cd183 2.240 . S
O193 C191 1.279 . S
O194 Cd184 2.297 . S
O194 C189 1.247 . S
O195 Cd184 2.439 . S
O195 C189 1.208 . S
O196 Cd197 2.223 . S
O196 C204 1.315 . S
Cd197 O196 2.223 . S
Cd197 O200 2.297 1_655 S
Cd197 O201 2.439 . S
Cd197 O207 2.240 . S
Cd198 O199 2.240 . S
Cd198 O206 2.223 . S
Cd198 O208 2.297 . S
Cd198 O209 2.439 . S
O199 Cd198 2.240 . S
O199 C204 1.279 . S
O200 Cd197 2.297 1_455 S
O200 C202 1.247 1_455 S
O201 Cd197 2.439 . S
O201 C202 1.208 . S
C202 O200 1.247 1_655 S
C202 O201 1.208 . S
C203 O208 1.247 . S
C203 O209 1.208 . S
C204 O196 1.315 . S
C204 O199 1.279 . S
C205 O206 1.315 . S
C205 O207 1.279 . S
O206 Cd198 2.223 . S
O206 C205 1.315 . S
O207 Cd197 2.240 . S
O207 C205 1.279 . S
O208 Cd198 2.297 . S
O208 C203 1.247 . S
O209 Cd198 2.439 . S
O209 C203 1.208 . S
O210 Cd211 2.223 . S
O210 C218 1.315 . S
Cd211 O210 2.223 . S
Cd211 O214 2.297 1_455 S
Cd211 O215 2.439 . S
Cd211 O221 2.240 . S
Cd212 O213 2.240 . S
Cd212 O220 2.223 . S
Cd212 O222 2.297 . S
Cd212 O223 2.439 . S
O213 Cd212 2.240 . S
O213 C218 1.279 . S
O214 Cd211 2.297 1_655 S
O214 C216 1.247 1_655 S
O215 Cd211 2.439 . S
O215 C216 1.208 . S
C216 O214 1.247 1_455 S
C216 O215 1.208 . S
C217 O222 1.247 . S
C217 O223 1.208 . S
C218 O210 1.315 . S
C218 O213 1.279 . S
C219 O220 1.315 . S
C219 O221 1.279 . S
O220 Cd212 2.223 . S
O220 C219 1.315 . S
O221 Cd211 2.240 . S
O221 C219 1.279 . S
O222 Cd212 2.297 . S
O222 C217 1.247 . S
O223 Cd212 2.439 . S
O223 C217 1.208 . S
O224 Cd225 2.223 . S
O224 C232 1.315 . S
Cd225 O224 2.223 . S
Cd225 O228 2.297 1_565 S
Cd225 O229 2.439 . S
Cd225 O235 2.240 . S
Cd226 O227 2.240 . S
Cd226 O234 2.223 . S
Cd226 O236 2.297 . S
Cd226 O237 2.439 . S
O227 Cd226 2.240 . S
O227 C232 1.279 . S
O228 Cd225 2.297 1_545 S
O228 C230 1.247 1_545 S
O229 Cd225 2.439 . S
O229 C230 1.208 . S
C230 O228 1.247 1_565 S
C230 O229 1.208 . S
C231 O236 1.247 . S
C231 O237 1.208 . S
C232 O224 1.315 . S
C232 O227 1.279 . S
C233 O234 1.315 . S
C233 O235 1.279 . S
O234 Cd226 2.223 . S
O234 C233 1.315 . S
O235 Cd225 2.240 . S
O235 C233 1.279 . S
O236 Cd226 2.297 . S
O236 C231 1.247 . S
O237 Cd226 2.439 . S
O237 C231 1.208 . S
O238 Cd239 2.223 . S
O238 C246 1.315 . S
Cd239 O238 2.223 . S
Cd239 O242 2.297 . S
Cd239 O243 2.439 . S
Cd239 O249 2.240 . S
Cd240 O241 2.240 . S
Cd240 O248 2.223 . S
Cd240 O250 2.297 . S
Cd240 O251 2.439 . S
O241 Cd240 2.240 . S
O241 C246 1.279 . S
O242 Cd239 2.297 . S
O242 C244 1.247 . S
O243 Cd239 2.439 . S
O243 C244 1.208 . S
C244 O242 1.247 . S
C244 O243 1.208 . S
C245 O250 1.247 . S
C245 O251 1.208 . S
C246 O238 1.315 . S
C246 O241 1.279 . S
C247 O248 1.315 . S
C247 O249 1.279 . S
O248 Cd240 2.223 . S
O248 C247 1.315 . S
O249 Cd239 2.240 . S
O249 C247 1.279 . S
O250 Cd240 2.297 . S
O250 C245 1.247 . S
O251 Cd240 2.439 . S
O251 C245 1.208 . S
O252 Cd253 2.223 . S
O252 C260 1.315 . S
Cd253 O252 2.223 . S
Cd253 O256 2.297 1_545 S
Cd253 O257 2.439 . S
Cd253 O263 2.240 . S
Cd254 O255 2.240 . S
Cd254 O262 2.223 . S
Cd254 O264 2.297 . S
Cd254 O265 2.439 . S
O255 Cd254 2.240 . S
O255 C260 1.279 . S
O256 Cd253 2.297 1_565 S
O256 C258 1.247 1_565 S
O257 Cd253 2.439 . S
O257 C258 1.208 . S
C258 O256 1.247 1_545 S
C258 O257 1.208 . S
C259 O264 1.247 . S
C259 O265 1.208 . S
C260 O252 1.315 . S
C260 O255 1.279 . S
C261 O262 1.315 . S
C261 O263 1.279 . S
O262 Cd254 2.223 . S
O262 C261 1.315 . S
O263 Cd253 2.240 . S
O263 C261 1.279 . S
O264 Cd254 2.297 . S
O264 C259 1.247 . S
O265 Cd254 2.439 . S
O265 C259 1.208 . S
O266 Cd267 2.223 . S
O266 C274 1.315 . S
Cd267 O266 2.223 . S
Cd267 O270 2.297 . S
Cd267 O271 2.439 . S
Cd267 O277 2.240 . S
Cd268 O269 2.240 . S
Cd268 O276 2.223 . S
Cd268 O278 2.297 . S
Cd268 O279 2.439 . S
O269 Cd268 2.240 . S
O269 C274 1.279 . S
O270 Cd267 2.297 . S
O270 C272 1.247 . S
O271 Cd267 2.439 . S
O271 C272 1.208 . S
C272 O270 1.247 . S
C272 O271 1.208 . S
C273 O278 1.247 . S
C273 O279 1.208 . S
C274 O266 1.315 . S
C274 O269 1.279 . S
C275 O276 1.315 . S
C275 O277 1.279 . S
O276 Cd268 2.223 . S
O276 C275 1.315 . S
O277 Cd267 2.240 . S
O277 C275 1.279 . S
O278 Cd268 2.297 . S
O278 C273 1.247 . S
O279 Cd268 2.439 . S
O279 C273 1.208 . S
O280 Cd281 2.223 . S
O280 C288 1.315 . S
Cd281 O280 2.223 . S
Cd281 O284 2.297 1_556 S
Cd281 O285 2.439 . S
Cd281 O291 2.240 . S
Cd282 O283 2.240 . S
Cd282 O290 2.223 . S
Cd282 O292 2.297 . S
Cd282 O293 2.439 . S
O283 Cd282 2.240 . S
O283 C288 1.279 . S
O284 Cd281 2.297 1_554 S
O284 C286 1.247 1_554 S
O285 Cd281 2.439 . S
O285 C286 1.208 . S
C286 O284 1.247 1_556 S
C286 O285 1.208 . S
C287 O292 1.247 . S
C287 O293 1.208 . S
C288 O280 1.315 . S
C288 O283 1.279 . S
C289 O290 1.315 . S
C289 O291 1.279 . S
O290 Cd282 2.223 . S
O290 C289 1.315 . S
O291 Cd281 2.240 . S
O291 C289 1.279 . S
O292 Cd282 2.297 . S
O292 C287 1.247 . S
O293 Cd282 2.439 . S
O293 C287 1.208 . S
O294 Cd295 2.223 . S
O294 C302 1.315 . S
Cd295 O294 2.223 . S
Cd295 O298 2.297 . S
Cd295 O299 2.439 . S
Cd295 O305 2.240 . S
Cd296 O297 2.240 . S
Cd296 O304 2.223 . S
Cd296 O306 2.297 . S
Cd296 O307 2.439 . S
O297 Cd296 2.240 . S
O297 C302 1.279 . S
O298 Cd295 2.297 . S
O298 C300 1.247 . S
O299 Cd295 2.439 . S
O299 C300 1.208 . S
C300 O298 1.247 . S
C300 O299 1.208 . S
C301 O306 1.247 . S
C301 O307 1.208 . S
C302 O294 1.315 . S
C302 O297 1.279 . S
C303 O304 1.315 . S
C303 O305 1.279 . S
O304 Cd296 2.223 . S
O304 C303 1.315 . S
O305 Cd295 2.240 . S
O305 C303 1.279 . S
O306 Cd296 2.297 . S
O306 C301 1.247 . S
O307 Cd296 2.439 . S
O307 C301 1.208 . S
O308 Cd309 2.223 . S
O308 C316 1.315 . S
Cd309 O308 2.223 . S
Cd309 O312 2.297 . S
Cd309 O313 2.439 . S
Cd309 O319 2.240 . S
Cd310 O311 2.240 . S
Cd310 O318 2.223 . S
Cd310 O320 2.297 . S
Cd310 O321 2.439 . S
O311 Cd310 2.240 . S
O311 C316 1.279 . S
O312 Cd309 2.297 . S
O312 C314 1.247 . S
O313 Cd309 2.439 . S
O313 C314 1.208 . S
C314 O312 1.247 . S
C314 O313 1.208 . S
C315 O320 1.247 . S
C315 O321 1.208 . S
C316 O308 1.315 . S
C316 O311 1.279 . S
C317 O318 1.315 . S
C317 O319 1.279 . S
O318 Cd310 2.223 . S
O318 C317 1.315 . S
O319 Cd309 2.240 . S
O319 C317 1.279 . S
O320 Cd310 2.297 . S
O320 C315 1.247 . S
O321 Cd310 2.439 . S
O321 C315 1.208 . S
O322 Cd323 2.223 . S
O322 C330 1.315 . S
Cd323 O322 2.223 . S
Cd323 O326 2.297 . S
Cd323 O327 2.439 . S
Cd323 O333 2.240 . S
Cd324 O325 2.240 . S
Cd324 O332 2.223 . S
Cd324 O334 2.297 . S
Cd324 O335 2.439 . S
O325 Cd324 2.240 . S
O325 C330 1.279 . S
O326 Cd323 2.297 . S
O326 C328 1.247 . S
O327 Cd323 2.439 . S
O327 C328 1.208 . S
C328 O326 1.247 . S
C328 O327 1.208 . S
C329 O334 1.247 . S
C329 O335 1.208 . S
C330 O322 1.315 . S
C330 O325 1.279 . S
C331 O332 1.315 . S
C331 O333 1.279 . S
O332 Cd324 2.223 . S
O332 C331 1.315 . S
O333 Cd323 2.240 . S
O333 C331 1.279 . S
O334 Cd324 2.297 . S
O334 C329 1.247 . S
O335 Cd324 2.439 . S
O335 C329 1.208 . S
O336 Cd337 2.223 . S
O336 C344 1.315 . S
Cd337 O336 2.223 . S
Cd337 O340 2.297 . S
Cd337 O341 2.439 . S
Cd337 O347 2.240 . S
Cd338 O339 2.240 . S
Cd338 O346 2.223 . S
Cd338 O348 2.297 . S
Cd338 O349 2.439 . S
O339 Cd338 2.240 . S
O339 C344 1.279 . S
O340 Cd337 2.297 . S
O340 C342 1.247 . S
O341 Cd337 2.439 . S
O341 C342 1.208 . S
C342 O340 1.247 . S
C342 O341 1.208 . S
C343 O348 1.247 . S
C343 O349 1.208 . S
C344 O336 1.315 . S
C344 O339 1.279 . S
C345 O346 1.315 . S
C345 O347 1.279 . S
O346 Cd338 2.223 . S
O346 C345 1.315 . S
O347 Cd337 2.240 . S
O347 C345 1.279 . S
O348 Cd338 2.297 . S
O348 C343 1.247 . S
O349 Cd338 2.439 . S
O349 C343 1.208 . S
O350 Cd351 2.223 . S
O350 C358 1.315 . S
Cd351 O350 2.223 . S
Cd351 O354 2.297 . S
Cd351 O355 2.439 . S
Cd351 O361 2.240 . S
Cd352 O353 2.240 . S
Cd352 O360 2.223 . S
Cd352 O362 2.297 . S
Cd352 O363 2.439 . S
O353 Cd352 2.240 . S
O353 C358 1.279 . S
O354 Cd351 2.297 . S
O354 C356 1.247 . S
O355 Cd351 2.439 . S
O355 C356 1.208 . S
C356 O354 1.247 . S
C356 O355 1.208 . S
C357 O362 1.247 . S
C357 O363 1.208 . S
C358 O350 1.315 . S
C358 O353 1.279 . S
C359 O360 1.315 . S
C359 O361 1.279 . S
O360 Cd352 2.223 . S
O360 C359 1.315 . S
O361 Cd351 2.240 . S
O361 C359 1.279 . S
O362 Cd352 2.297 . S
O362 C357 1.247 . S
O363 Cd352 2.439 . S
O363 C357 1.208 . S
O364 Cd365 2.223 . S
O364 C372 1.315 . S
Cd365 O364 2.223 . S
Cd365 O368 2.297 . S
Cd365 O369 2.439 . S
Cd365 O375 2.240 . S
Cd366 O367 2.240 . S
Cd366 O374 2.223 . S
Cd366 O376 2.297 . S
Cd366 O377 2.439 . S
O367 Cd366 2.240 . S
O367 C372 1.279 . S
O368 Cd365 2.297 . S
O368 C370 1.247 . S
O369 Cd365 2.439 . S
O369 C370 1.208 . S
C370 O368 1.247 . S
C370 O369 1.208 . S
C371 O376 1.247 . S
C371 O377 1.208 . S
C372 O364 1.315 . S
C372 O367 1.279 . S
C373 O374 1.315 . S
C373 O375 1.279 . S
O374 Cd366 2.223 . S
O374 C373 1.315 . S
O375 Cd365 2.240 . S
O375 C373 1.279 . S
O376 Cd366 2.297 . S
O376 C371 1.247 . S
O377 Cd366 2.439 . S
O377 C371 1.208 . S
O378 Cd379 2.223 . S
O378 C386 1.315 . S
Cd379 O378 2.223 . S
Cd379 O382 2.297 . S
Cd379 O383 2.439 . S
Cd379 O389 2.240 . S
Cd380 O381 2.240 . S
Cd380 O388 2.223 . S
Cd380 O390 2.297 . S
Cd380 O391 2.439 . S
O381 Cd380 2.240 . S
O381 C386 1.279 . S
O382 Cd379 2.297 . S
O382 C384 1.247 . S
O383 Cd379 2.439 . S
O383 C384 1.208 . S
C384 O382 1.247 . S
C384 O383 1.208 . S
C385 O390 1.247 . S
C385 O391 1.208 . S
C386 O378 1.315 . S
C386 O381 1.279 . S
C387 O388 1.315 . S
C387 O389 1.279 . S
O388 Cd380 2.223 . S
O388 C387 1.315 . S
O389 Cd379 2.240 . S
O389 C387 1.279 . S
O390 Cd380 2.297 . S
O390 C385 1.247 . S
O391 Cd380 2.439 . S
O391 C385 1.208 . S
O392 Cd393 2.223 . S
O392 C400 1.315 . S
Cd393 O392 2.223 . S
Cd393 O396 2.297 . S
Cd393 O397 2.439 . S
Cd393 O403 2.240 . S
Cd394 O395 2.240 . S
Cd394 O402 2.223 . S
Cd394 O404 2.297 . S
Cd394 O405 2.439 . S
O395 Cd394 2.240 . S
O395 C400 1.279 . S
O396 Cd393 2.297 . S
O396 C398 1.247 . S
O397 Cd393 2.439 . S
O397 C398 1.208 . S
C398 O396 1.247 . S
C398 O397 1.208 . S
C399 O404 1.247 . S
C399 O405 1.208 . S
C400 O392 1.315 . S
C400 O395 1.279 . S
C401 O402 1.315 . S
C401 O403 1.279 . S
O402 Cd394 2.223 . S
O402 C401 1.315 . S
O403 Cd393 2.240 . S
O403 C401 1.279 . S
O404 Cd394 2.297 . S
O404 C399 1.247 . S
O405 Cd394 2.439 . S
O405 C399 1.208 . S
O406 Cd407 2.223 . S
O406 C414 1.315 . S
Cd407 O406 2.223 . S
Cd407 O410 2.297 1_565 S
Cd407 O411 2.439 . S
Cd407 O417 2.240 . S
Cd408 O409 2.240 . S
Cd408 O416 2.223 . S
Cd408 O418 2.297 . S
Cd408 O419 2.439 . S
O409 Cd408 2.240 . S
O409 C414 1.279 . S
O410 Cd407 2.297 1_545 S
O410 C412 1.247 1_545 S
O411 Cd407 2.439 . S
O411 C412 1.208 . S
C412 O410 1.247 1_565 S
C412 O411 1.208 . S
C413 O418 1.247 . S
C413 O419 1.208 . S
C414 O406 1.315 . S
C414 O409 1.279 . S
C415 O416 1.315 . S
C415 O417 1.279 . S
O416 Cd408 2.223 . S
O416 C415 1.315 . S
O417 Cd407 2.240 . S
O417 C415 1.279 . S
O418 Cd408 2.297 . S
O418 C413 1.247 . S
O419 Cd408 2.439 . S
O419 C413 1.208 . S
O420 Cd421 2.223 . S
O420 C428 1.315 . S
Cd421 O420 2.223 . S
Cd421 O424 2.297 . S
Cd421 O425 2.439 . S
Cd421 O431 2.240 . S
Cd422 O423 2.240 . S
Cd422 O430 2.223 . S
Cd422 O432 2.297 . S
Cd422 O433 2.439 . S
O423 Cd422 2.240 . S
O423 C428 1.279 . S
O424 Cd421 2.297 . S
O424 C426 1.247 . S
O425 Cd421 2.439 . S
O425 C426 1.208 . S
C426 O424 1.247 . S
C426 O425 1.208 . S
C427 O432 1.247 . S
C427 O433 1.208 . S
C428 O420 1.315 . S
C428 O423 1.279 . S
C429 O430 1.315 . S
C429 O431 1.279 . S
O430 Cd422 2.223 . S
O430 C429 1.315 . S
O431 Cd421 2.240 . S
O431 C429 1.279 . S
O432 Cd422 2.297 . S
O432 C427 1.247 . S
O433 Cd422 2.439 . S
O433 C427 1.208 . S
O434 Cd435 2.223 . S
O434 C442 1.315 . S
Cd435 O434 2.223 . S
Cd435 O438 2.297 1_545 S
Cd435 O439 2.439 . S
Cd435 O445 2.240 . S
Cd436 O437 2.240 . S
Cd436 O444 2.223 . S
Cd436 O446 2.297 . S
Cd436 O447 2.439 . S
O437 Cd436 2.240 . S
O437 C442 1.279 . S
O438 Cd435 2.297 1_565 S
O438 C440 1.247 1_565 S
O439 Cd435 2.439 . S
O439 C440 1.208 . S
C440 O438 1.247 1_545 S
C440 O439 1.208 . S
C441 O446 1.247 . S
C441 O447 1.208 . S
C442 O434 1.315 . S
C442 O437 1.279 . S
C443 O444 1.315 . S
C443 O445 1.279 . S
O444 Cd436 2.223 . S
O444 C443 1.315 . S
O445 Cd435 2.240 . S
O445 C443 1.279 . S
O446 Cd436 2.297 . S
O446 C441 1.247 . S
O447 Cd436 2.439 . S
O447 C441 1.208 . S
O448 Cd449 2.223 . S
O448 C456 1.315 . S
Cd449 O448 2.223 . S
Cd449 O452 2.297 . S
Cd449 O453 2.439 . S
Cd449 O459 2.240 . S
Cd450 O451 2.240 . S
Cd450 O458 2.223 . S
Cd450 O460 2.297 . S
Cd450 O461 2.439 . S
O451 Cd450 2.240 . S
O451 C456 1.279 . S
O452 Cd449 2.297 . S
O452 C454 1.247 . S
O453 Cd449 2.439 . S
O453 C454 1.208 . S
C454 O452 1.247 . S
C454 O453 1.208 . S
C455 O460 1.247 . S
C455 O461 1.208 . S
C456 O448 1.315 . S
C456 O451 1.279 . S
C457 O458 1.315 . S
C457 O459 1.279 . S
O458 Cd450 2.223 . S
O458 C457 1.315 . S
O459 Cd449 2.240 . S
O459 C457 1.279 . S
O460 Cd450 2.297 . S
O460 C455 1.247 . S
O461 Cd450 2.439 . S
O461 C455 1.208 . S
O462 Cd463 2.223 . S
O462 C470 1.315 . S
Cd463 O462 2.223 . S
Cd463 O466 2.297 1_556 S
Cd463 O467 2.439 . S
Cd463 O473 2.240 . S
Cd464 O465 2.240 . S
Cd464 O472 2.223 . S
Cd464 O474 2.297 . S
Cd464 O475 2.439 . S
O465 Cd464 2.240 . S
O465 C470 1.279 . S
O466 Cd463 2.297 1_554 S
O466 C468 1.247 1_554 S
O467 Cd463 2.439 . S
O467 C468 1.208 . S
C468 O466 1.247 1_556 S
C468 O467 1.208 . S
C469 O474 1.247 . S
C469 O475 1.208 . S
C470 O462 1.315 . S
C470 O465 1.279 . S
C471 O472 1.315 . S
C471 O473 1.279 . S
O472 Cd464 2.223 . S
O472 C471 1.315 . S
O473 Cd463 2.240 . S
O473 C471 1.279 . S
O474 Cd464 2.297 . S
O474 C469 1.247 . S
O475 Cd464 2.439 . S
O475 C469 1.208 . S
O476 Cd477 2.223 . S
O476 C484 1.315 . S
Cd477 O476 2.223 . S
Cd477 O480 2.297 1_556 S
Cd477 O481 2.439 . S
Cd477 O487 2.240 . S
Cd478 O479 2.240 . S
Cd478 O486 2.223 . S
Cd478 O488 2.297 . S
Cd478 O489 2.439 . S
O479 Cd478 2.240 . S
O479 C484 1.279 . S
O480 Cd477 2.297 1_554 S
O480 C482 1.247 1_554 S
O481 Cd477 2.439 . S
O481 C482 1.208 . S
C482 O480 1.247 1_556 S
C482 O481 1.208 . S
C483 O488 1.247 . S
C483 O489 1.208 . S
C484 O476 1.315 . S
C484 O479 1.279 . S
C485 O486 1.315 . S
C485 O487 1.279 . S
O486 Cd478 2.223 . S
O486 C485 1.315 . S
O487 Cd477 2.240 . S
O487 C485 1.279 . S
O488 Cd478 2.297 . S
O488 C483 1.247 . S
O489 Cd478 2.439 . S
O489 C483 1.208 . S
O490 Cd491 2.223 . S
O490 C498 1.315 . S
Cd491 O490 2.223 . S
Cd491 O494 2.297 1_554 S
Cd491 O495 2.439 . S
Cd491 O501 2.240 . S
Cd492 O493 2.240 . S
Cd492 O500 2.223 . S
Cd492 O502 2.297 . S
Cd492 O503 2.439 . S
O493 Cd492 2.240 . S
O493 C498 1.279 . S
O494 Cd491 2.297 1_556 S
O494 C496 1.247 1_556 S
O495 Cd491 2.439 . S
O495 C496 1.208 . S
C496 O494 1.247 1_554 S
C496 O495 1.208 . S
C497 O502 1.247 . S
C497 O503 1.208 . S
C498 O490 1.315 . S
C498 O493 1.279 . S
C499 O500 1.315 . S
C499 O501 1.279 . S
O500 Cd492 2.223 . S
O500 C499 1.315 . S
O501 Cd491 2.240 . S
O501 C499 1.279 . S
O502 Cd492 2.297 . S
O502 C497 1.247 . S
O503 Cd492 2.439 . S
O503 C497 1.208 . S
O504 Cd505 2.223 . S
O504 C512 1.315 . S
Cd505 O504 2.223 . S
Cd505 O508 2.297 . S
Cd505 O509 2.439 . S
Cd505 O515 2.240 . S
Cd506 O507 2.240 . S
Cd506 O514 2.223 . S
Cd506 O516 2.297 . S
Cd506 O517 2.439 . S
O507 Cd506 2.240 . S
O507 C512 1.279 . S
O508 Cd505 2.297 . S
O508 C510 1.247 . S
O509 Cd505 2.439 . S
O509 C510 1.208 . S
C510 O508 1.247 . S
C510 O509 1.208 . S
C511 O516 1.247 . S
C511 O517 1.208 . S
C512 O504 1.315 . S
C512 O507 1.279 . S
C513 O514 1.315 . S
C513 O515 1.279 . S
O514 Cd506 2.223 . S
O514 C513 1.315 . S
O515 Cd505 2.240 . S
O515 C513 1.279 . S
O516 Cd506 2.297 . S
O516 C511 1.247 . S
O517 Cd506 2.439 . S
O517 C511 1.208 . S
O518 Cd519 2.223 . S
O518 C526 1.315 . S
Cd519 O518 2.223 . S
Cd519 O522 2.297 . S
Cd519 O523 2.439 . S
Cd519 O529 2.240 . S
Cd520 O521 2.240 . S
Cd520 O528 2.223 . S
Cd520 O530 2.297 . S
Cd520 O531 2.439 . S
O521 Cd520 2.240 . S
O521 C526 1.279 . S
O522 Cd519 2.297 . S
O522 C524 1.247 . S
O523 Cd519 2.439 . S
O523 C524 1.208 . S
C524 O522 1.247 . S
C524 O523 1.208 . S
C525 O530 1.247 . S
C525 O531 1.208 . S
C526 O518 1.315 . S
C526 O521 1.279 . S
C527 O528 1.315 . S
C527 O529 1.279 . S
O528 Cd520 2.223 . S
O528 C527 1.315 . S
O529 Cd519 2.240 . S
O529 C527 1.279 . S
O530 Cd520 2.297 . S
O530 C525 1.247 . S
O531 Cd520 2.439 . S
O531 C525 1.208 . S
O532 Cd533 2.223 . S
O532 C540 1.315 . S
Cd533 O532 2.223 . S
Cd533 O536 2.297 . S
Cd533 O537 2.439 . S
Cd533 O543 2.240 . S
Cd534 O535 2.240 . S
Cd534 O542 2.223 . S
Cd534 O544 2.297 . S
Cd534 O545 2.439 . S
O535 Cd534 2.240 . S
O535 C540 1.279 . S
O536 Cd533 2.297 . S
O536 C538 1.247 . S
O537 Cd533 2.439 . S
O537 C538 1.208 . S
C538 O536 1.247 . S
C538 O537 1.208 . S
C539 O544 1.247 . S
C539 O545 1.208 . S
C540 O532 1.315 . S
C540 O535 1.279 . S
C541 O542 1.315 . S
C541 O543 1.279 . S
O542 Cd534 2.223 . S
O542 C541 1.315 . S
O543 Cd533 2.240 . S
O543 C541 1.279 . S
O544 Cd534 2.297 . S
O544 C539 1.247 . S
O545 Cd534 2.439 . S
O545 C539 1.208 . S
O546 Cd547 2.223 . S
O546 C554 1.315 . S
Cd547 O546 2.223 . S
Cd547 O550 2.297 . S
Cd547 O551 2.439 . S
Cd547 O557 2.240 . S
Cd548 O549 2.240 . S
Cd548 O556 2.223 . S
Cd548 O558 2.297 . S
Cd548 O559 2.439 . S
O549 Cd548 2.240 . S
O549 C554 1.279 . S
O550 Cd547 2.297 . S
O550 C552 1.247 . S
O551 Cd547 2.439 . S
O551 C552 1.208 . S
C552 O550 1.247 . S
C552 O551 1.208 . S
C553 O558 1.247 . S
C553 O559 1.208 . S
C554 O546 1.315 . S
C554 O549 1.279 . S
C555 O556 1.315 . S
C555 O557 1.279 . S
O556 Cd548 2.223 . S
O556 C555 1.315 . S
O557 Cd547 2.240 . S
O557 C555 1.279 . S
O558 Cd548 2.297 . S
O558 C553 1.247 . S
O559 Cd548 2.439 . S
O559 C553 1.208 . S
O560 Cd561 2.223 . S
O560 C568 1.315 . S
Cd561 O560 2.223 . S
Cd561 O564 2.297 . S
Cd561 O565 2.439 . S
Cd561 O571 2.240 . S
Cd562 O563 2.240 . S
Cd562 O570 2.223 . S
Cd562 O572 2.297 . S
Cd562 O573 2.439 . S
O563 Cd562 2.240 . S
O563 C568 1.279 . S
O564 Cd561 2.297 . S
O564 C566 1.247 . S
O565 Cd561 2.439 . S
O565 C566 1.208 . S
C566 O564 1.247 . S
C566 O565 1.208 . S
C567 O572 1.247 . S
C567 O573 1.208 . S
C568 O560 1.315 . S
C568 O563 1.279 . S
C569 O570 1.315 . S
C569 O571 1.279 . S
O570 Cd562 2.223 . S
O570 C569 1.315 . S
O571 Cd561 2.240 . S
O571 C569 1.279 . S
O572 Cd562 2.297 . S
O572 C567 1.247 . S
O573 Cd562 2.439 . S
O573 C567 1.208 . S
O574 Cd575 2.223 . S
O574 C582 1.315 . S
Cd575 O574 2.223 . S
Cd575 O578 2.297 1_545 S
Cd575 O579 2.439 . S
Cd575 O585 2.240 . S
Cd576 O577 2.240 . S
Cd576 O584 2.223 . S
Cd576 O586 2.297 . S
Cd576 O587 2.439 . S
O577 Cd576 2.240 . S
O577 C582 1.279 . S
O578 Cd575 2.297 1_565 S
O578 C580 1.247 1_565 S
O579 Cd575 2.439 . S
O579 C580 1.208 . S
C580 O578 1.247 1_545 S
C580 O579 1.208 . S
C581 O586 1.247 . S
C581 O587 1.208 . S
C582 O574 1.315 . S
C582 O577 1.279 . S
C583 O584 1.315 . S
C583 O585 1.279 . S
O584 Cd576 2.223 . S
O584 C583 1.315 . S
O585 Cd575 2.240 . S
O585 C583 1.279 . S
O586 Cd576 2.297 . S
O586 C581 1.247 . S
O587 Cd576 2.439 . S
O587 C581 1.208 . S
O588 Cd589 2.223 . S
O588 C596 1.315 . S
Cd589 O588 2.223 . S
Cd589 O592 2.297 . S
Cd589 O593 2.439 . S
Cd589 O599 2.240 . S
Cd590 O591 2.240 . S
Cd590 O598 2.223 . S
Cd590 O600 2.297 . S
Cd590 O601 2.439 . S
O591 Cd590 2.240 . S
O591 C596 1.279 . S
O592 Cd589 2.297 . S
O592 C594 1.247 . S
O593 Cd589 2.439 . S
O593 C594 1.208 . S
C594 O592 1.247 . S
C594 O593 1.208 . S
C595 O600 1.247 . S
C595 O601 1.208 . S
C596 O588 1.315 . S
C596 O591 1.279 . S
C597 O598 1.315 . S
C597 O599 1.279 . S
O598 Cd590 2.223 . S
O598 C597 1.315 . S
O599 Cd589 2.240 . S
O599 C597 1.279 . S
O600 Cd590 2.297 . S
O600 C595 1.247 . S
O601 Cd590 2.439 . S
O601 C595 1.208 . S
O602 Cd603 2.223 . S
O602 C610 1.315 . S
Cd603 O602 2.223 . S
Cd603 O606 2.297 1_565 S
Cd603 O607 2.439 . S
Cd603 O613 2.240 . S
Cd604 O605 2.240 . S
Cd604 O612 2.223 . S
Cd604 O614 2.297 . S
Cd604 O615 2.439 . S
O605 Cd604 2.240 . S
O605 C610 1.279 . S
O606 Cd603 2.297 1_545 S
O606 C608 1.247 1_545 S
O607 Cd603 2.439 . S
O607 C608 1.208 . S
C608 O606 1.247 1_565 S
C608 O607 1.208 . S
C609 O614 1.247 . S
C609 O615 1.208 . S
C610 O602 1.315 . S
C610 O605 1.279 . S
C611 O612 1.315 . S
C611 O613 1.279 . S
O612 Cd604 2.223 . S
O612 C611 1.315 . S
O613 Cd603 2.240 . S
O613 C611 1.279 . S
O614 Cd604 2.297 . S
O614 C609 1.247 . S
O615 Cd604 2.439 . S
O615 C609 1.208 . S
O616 Cd617 2.223 . S
O616 C624 1.315 . S
Cd617 O616 2.223 . S
Cd617 O620 2.297 . S
Cd617 O621 2.439 . S
Cd617 O627 2.240 . S
Cd618 O619 2.240 . S
Cd618 O626 2.223 . S
Cd618 O628 2.297 . S
Cd618 O629 2.439 . S
O619 Cd618 2.240 . S
O619 C624 1.279 . S
O620 Cd617 2.297 . S
O620 C622 1.247 . S
O621 Cd617 2.439 . S
O621 C622 1.208 . S
C622 O620 1.247 . S
C622 O621 1.208 . S
C623 O628 1.247 . S
C623 O629 1.208 . S
C624 O616 1.315 . S
C624 O619 1.279 . S
C625 O626 1.315 . S
C625 O627 1.279 . S
O626 Cd618 2.223 . S
O626 C625 1.315 . S
O627 Cd617 2.240 . S
O627 C625 1.279 . S
O628 Cd618 2.297 . S
O628 C623 1.247 . S
O629 Cd618 2.439 . S
O629 C623 1.208 . S
O630 Cd631 2.223 . S
O630 C638 1.315 . S
Cd631 O630 2.223 . S
Cd631 O634 2.297 1_554 S
Cd631 O635 2.439 . S
Cd631 O641 2.240 . S
Cd632 O633 2.240 . S
Cd632 O640 2.223 . S
Cd632 O642 2.297 . S
Cd632 O643 2.439 . S
O633 Cd632 2.240 . S
O633 C638 1.279 . S
O634 Cd631 2.297 1_556 S
O634 C636 1.247 1_556 S
O635 Cd631 2.439 . S
O635 C636 1.208 . S
C636 O634 1.247 1_554 S
C636 O635 1.208 . S
C637 O642 1.247 . S
C637 O643 1.208 . S
C638 O630 1.315 . S
C638 O633 1.279 . S
C639 O640 1.315 . S
C639 O641 1.279 . S
O640 Cd632 2.223 . S
O640 C639 1.315 . S
O641 Cd631 2.240 . S
O641 C639 1.279 . S
O642 Cd632 2.297 . S
O642 C637 1.247 . S
O643 Cd632 2.439 . S
O643 C637 1.208 . S
O644 Cd645 2.223 . S
O644 C652 1.315 . S
Cd645 O644 2.223 . S
Cd645 O648 2.297 1_554 S
Cd645 O649 2.439 . S
Cd645 O655 2.240 . S
Cd646 O647 2.240 . S
Cd646 O654 2.223 . S
Cd646 O656 2.297 . S
Cd646 O657 2.439 . S
O647 Cd646 2.240 . S
O647 C652 1.279 . S
O648 Cd645 2.297 1_556 S
O648 C650 1.247 1_556 S
O649 Cd645 2.439 . S
O649 C650 1.208 . S
C650 O648 1.247 1_554 S
C650 O649 1.208 . S
C651 O656 1.247 . S
C651 O657 1.208 . S
C652 O644 1.315 . S
C652 O647 1.279 . S
C653 O654 1.315 . S
C653 O655 1.279 . S
O654 Cd646 2.223 . S
O654 C653 1.315 . S
O655 Cd645 2.240 . S
O655 C653 1.279 . S
O656 Cd646 2.297 . S
O656 C651 1.247 . S
O657 Cd646 2.439 . S
O657 C651 1.208 . S
O658 Cd659 2.223 . S
O658 C666 1.315 . S
Cd659 O658 2.223 . S
Cd659 O662 2.297 1_556 S
Cd659 O663 2.439 . S
Cd659 O669 2.240 . S
Cd660 O661 2.240 . S
Cd660 O668 2.223 . S
Cd660 O670 2.297 . S
Cd660 O671 2.439 . S
O661 Cd660 2.240 . S
O661 C666 1.279 . S
O662 Cd659 2.297 1_554 S
O662 C664 1.247 1_554 S
O663 Cd659 2.439 . S
O663 C664 1.208 . S
C664 O662 1.247 1_556 S
C664 O663 1.208 . S
C665 O670 1.247 . S
C665 O671 1.208 . S
C666 O658 1.315 . S
C666 O661 1.279 . S
C667 O668 1.315 . S
C667 O669 1.279 . S
O668 Cd660 2.223 . S
O668 C667 1.315 . S
O669 Cd659 2.240 . S
O669 C667 1.279 . S
O670 Cd660 2.297 . S
O670 C665 1.247 . S
O671 Cd660 2.439 . S
O671 C665 1.208 . S
H672 C678 0.930 . S
H673 C681 0.930 . S
H674 C682 0.930 . S
H675 C683 0.930 . S
H676 C686 0.930 . S
H677 C687 0.930 . S
C678 H672 0.930 . S
C678 C679 1.355 . S
C678 C680 1.415 . S
C679 C678 1.355 . S
C679 C681 1.419 1_655 S
C680 C678 1.415 . S
C680 C685 1.425 1_655 S
C680 C687 1.409 . S
C681 H673 0.930 . S
C681 C679 1.419 1_455 S
C681 C682 1.362 . S
C682 H674 0.930 . S
C682 C681 1.362 . S
C682 C685 1.409 . S
C683 H675 0.930 . S
C683 C684 1.355 . S
C683 C685 1.415 . S
C684 C683 1.355 . S
C684 C686 1.419 1_455 S
C685 C680 1.425 1_455 S
C685 C682 1.409 . S
C685 C683 1.415 . S
C686 H676 0.930 . S
C686 C684 1.419 1_655 S
C686 C687 1.362 . S
C687 H677 0.930 . S
C687 C680 1.409 . S
C687 C686 1.362 . S
H688 C694 0.930 . S
H689 C697 0.930 . S
H690 C698 0.930 . S
H691 C699 0.930 . S
H692 C702 0.930 . S
H693 C703 0.930 . S
C694 H688 0.930 . S
C694 C695 1.355 1_655 S
C694 C696 1.415 . S
C695 C694 1.355 1_455 S
C695 C697 1.419 . S
C696 C694 1.415 . S
C696 C701 1.425 1_655 S
C696 C703 1.409 . S
C697 H689 0.930 . S
C697 C695 1.419 . S
C697 C698 1.362 . S
C698 H690 0.930 . S
C698 C697 1.362 . S
C698 C701 1.409 . S
C699 H691 0.930 . S
C699 C700 1.355 1_455 S
C699 C701 1.415 . S
C700 C699 1.355 1_655 S
C700 C702 1.419 . S
C701 C696 1.425 1_455 S
C701 C698 1.409 . S
C701 C699 1.415 . S
C702 H692 0.930 . S
C702 C700 1.419 . S
C702 C703 1.362 . S
C703 H693 0.930 . S
C703 C696 1.409 . S
C703 C702 1.362 . S
H704 C710 0.930 . S
H705 C713 0.930 . S
H706 C714 0.930 . S
H707 C715 0.930 . S
H708 C718 0.930 . S
H709 C719 0.930 . S
C710 H704 0.930 . S
C710 C711 1.355 . S
C710 C712 1.415 . S
C711 C710 1.355 . S
C711 C713 1.419 1_565 S
C712 C710 1.415 . S
C712 C717 1.425 1_565 S
C712 C719 1.409 . S
C713 H705 0.930 . S
C713 C711 1.419 1_545 S
C713 C714 1.362 . S
C714 H706 0.930 . S
C714 C713 1.362 . S
C714 C717 1.409 . S
C715 H707 0.930 . S
C715 C716 1.355 . S
C715 C717 1.415 . S
C716 C715 1.355 . S
C716 C718 1.419 1_545 S
C717 C712 1.425 1_545 S
C717 C714 1.409 . S
C717 C715 1.415 . S
C718 H708 0.930 . S
C718 C716 1.419 1_565 S
C718 C719 1.362 . S
C719 H709 0.930 . S
C719 C712 1.409 . S
C719 C718 1.362 . S
H720 C726 0.930 . S
H721 C729 0.930 . S
H722 C730 0.930 . S
H723 C731 0.930 . S
H724 C734 0.930 . S
H725 C735 0.930 . S
C726 H720 0.930 . S
C726 C727 1.355 . S
C726 C728 1.415 . S
C727 C726 1.355 . S
C727 C729 1.419 . S
C728 C726 1.415 . S
C728 C733 1.425 . S
C728 C735 1.409 . S
C729 H721 0.930 . S
C729 C727 1.419 . S
C729 C730 1.362 . S
C730 H722 0.930 . S
C730 C729 1.362 . S
C730 C733 1.409 . S
C731 H723 0.930 . S
C731 C732 1.355 . S
C731 C733 1.415 . S
C732 C731 1.355 . S
C732 C734 1.419 . S
C733 C728 1.425 . S
C733 C730 1.409 . S
C733 C731 1.415 . S
C734 H724 0.930 . S
C734 C732 1.419 . S
C734 C735 1.362 . S
C735 H725 0.930 . S
C735 C728 1.409 . S
C735 C734 1.362 . S
H736 C742 0.930 . S
H737 C745 0.930 . S
H738 C746 0.930 . S
H739 C747 0.930 . S
H740 C750 0.930 . S
H741 C751 0.930 . S
C742 H736 0.930 . S
C742 C743 1.355 1_556 S
C742 C744 1.415 . S
C743 C742 1.355 1_554 S
C743 C745 1.419 . S
C744 C742 1.415 . S
C744 C749 1.425 1_556 S
C744 C751 1.409 . S
C745 H737 0.930 . S
C745 C743 1.419 . S
C745 C746 1.362 . S
C746 H738 0.930 . S
C746 C745 1.362 . S
C746 C749 1.409 . S
C747 H739 0.930 . S
C747 C748 1.355 1_554 S
C747 C749 1.415 . S
C748 C747 1.355 1_556 S
C748 C750 1.419 . S
C749 C744 1.425 1_554 S
C749 C746 1.409 . S
C749 C747 1.415 . S
C750 H740 0.930 . S
C750 C748 1.419 . S
C750 C751 1.362 . S
C751 H741 0.930 . S
C751 C744 1.409 . S
C751 C750 1.362 . S
H752 C758 0.930 . S
H753 C761 0.930 . S
H754 C762 0.930 . S
H755 C763 0.930 . S
H756 C766 0.930 . S
H757 C767 0.930 . S
C758 H752 0.930 . S
C758 C759 1.355 . S
C758 C760 1.415 . S
C759 C758 1.355 . S
C759 C761 1.419 . S
C760 C758 1.415 . S
C760 C765 1.425 . S
C760 C767 1.409 . S
C761 H753 0.930 . S
C761 C759 1.419 . S
C761 C762 1.362 . S
C762 H754 0.930 . S
C762 C761 1.362 . S
C762 C765 1.409 . S
C763 H755 0.930 . S
C763 C764 1.355 . S
C763 C765 1.415 . S
C764 C763 1.355 . S
C764 C766 1.419 . S
C765 C760 1.425 . S
C765 C762 1.409 . S
C765 C763 1.415 . S
C766 H756 0.930 . S
C766 C764 1.419 . S
C766 C767 1.362 . S
C767 H757 0.930 . S
C767 C760 1.409 . S
C767 C766 1.362 . S
H768 C774 0.930 . S
H769 C777 0.930 . S
H770 C778 0.930 . S
H771 C779 0.930 . S
H772 C782 0.930 . S
H773 C783 0.930 . S
C774 H768 0.930 . S
C774 C775 1.355 . S
C774 C776 1.415 . S
C775 C774 1.355 . S
C775 C777 1.419 . S
C776 C774 1.415 . S
C776 C781 1.425 . S
C776 C783 1.409 . S
C777 H769 0.930 . S
C777 C775 1.419 . S
C777 C778 1.362 . S
C778 H770 0.930 . S
C778 C777 1.362 . S
C778 C781 1.409 . S
C779 H771 0.930 . S
C779 C780 1.355 . S
C779 C781 1.415 . S
C780 C779 1.355 . S
C780 C782 1.419 . S
C781 C776 1.425 . S
C781 C778 1.409 . S
C781 C779 1.415 . S
C782 H772 0.930 . S
C782 C780 1.419 . S
C782 C783 1.362 . S
C783 H773 0.930 . S
C783 C776 1.409 . S
C783 C782 1.362 . S
H784 C790 0.930 . S
H785 C793 0.930 . S
H786 C794 0.930 . S
H787 C795 0.930 . S
H788 C798 0.930 . S
H789 C799 0.930 . S
C790 H784 0.930 . S
C790 C791 1.355 1_655 S
C790 C792 1.415 . S
C791 C790 1.355 1_455 S
C791 C793 1.419 . S
C792 C790 1.415 . S
C792 C797 1.425 1_655 S
C792 C799 1.409 . S
C793 H785 0.930 . S
C793 C791 1.419 . S
C793 C794 1.362 . S
C794 H786 0.930 . S
C794 C793 1.362 . S
C794 C797 1.409 . S
C795 H787 0.930 . S
C795 C796 1.355 1_455 S
C795 C797 1.415 . S
C796 C795 1.355 1_655 S
C796 C798 1.419 . S
C797 C792 1.425 1_455 S
C797 C794 1.409 . S
C797 C795 1.415 . S
C798 H788 0.930 . S
C798 C796 1.419 . S
C798 C799 1.362 . S
C799 H789 0.930 . S
C799 C792 1.409 . S
C799 C798 1.362 . S
H800 C806 0.930 . S
H801 C809 0.930 . S
H802 C810 0.930 . S
H803 C811 0.930 . S
H804 C814 0.930 . S
H805 C815 0.930 . S
C806 H800 0.930 . S
C806 C807 1.355 . S
C806 C808 1.415 . S
C807 C806 1.355 . S
C807 C809 1.419 1_455 S
C808 C806 1.415 . S
C808 C813 1.425 1_455 S
C808 C815 1.409 . S
C809 H801 0.930 . S
C809 C807 1.419 1_655 S
C809 C810 1.362 . S
C810 H802 0.930 . S
C810 C809 1.362 . S
C810 C813 1.409 . S
C811 H803 0.930 . S
C811 C812 1.355 . S
C811 C813 1.415 . S
C812 C811 1.355 . S
C812 C814 1.419 1_655 S
C813 C808 1.425 1_655 S
C813 C810 1.409 . S
C813 C811 1.415 . S
C814 H804 0.930 . S
C814 C812 1.419 1_455 S
C814 C815 1.362 . S
C815 H805 0.930 . S
C815 C808 1.409 . S
C815 C814 1.362 . S
H816 C822 0.930 . S
H817 C825 0.930 . S
H818 C826 0.930 . S
H819 C827 0.930 . S
H820 C830 0.930 . S
H821 C831 0.930 . S
C822 H816 0.930 . S
C822 C823 1.355 1_565 S
C822 C824 1.415 . S
C823 C822 1.355 1_545 S
C823 C825 1.419 . S
C824 C822 1.415 . S
C824 C829 1.425 1_565 S
C824 C831 1.409 . S
C825 H817 0.930 . S
C825 C823 1.419 . S
C825 C826 1.362 . S
C826 H818 0.930 . S
C826 C825 1.362 . S
C826 C829 1.409 . S
C827 H819 0.930 . S
C827 C828 1.355 1_545 S
C827 C829 1.415 . S
C828 C827 1.355 1_565 S
C828 C830 1.419 . S
C829 C824 1.425 1_545 S
C829 C826 1.409 . S
C829 C827 1.415 . S
C830 H820 0.930 . S
C830 C828 1.419 . S
C830 C831 1.362 . S
C831 H821 0.930 . S
C831 C824 1.409 . S
C831 C830 1.362 . S
H832 C838 0.930 . S
H833 C841 0.930 . S
H834 C842 0.930 . S
H835 C843 0.930 . S
H836 C846 0.930 . S
H837 C847 0.930 . S
C838 H832 0.930 . S
C838 C839 1.355 . S
C838 C840 1.415 . S
C839 C838 1.355 . S
C839 C841 1.419 . S
C840 C838 1.415 . S
C840 C845 1.425 . S
C840 C847 1.409 . S
C841 H833 0.930 . S
C841 C839 1.419 . S
C841 C842 1.362 . S
C842 H834 0.930 . S
C842 C841 1.362 . S
C842 C845 1.409 . S
C843 H835 0.930 . S
C843 C844 1.355 . S
C843 C845 1.415 . S
C844 C843 1.355 . S
C844 C846 1.419 . S
C845 C840 1.425 . S
C845 C842 1.409 . S
C845 C843 1.415 . S
C846 H836 0.930 . S
C846 C844 1.419 . S
C846 C847 1.362 . S
C847 H837 0.930 . S
C847 C840 1.409 . S
C847 C846 1.362 . S
H848 C854 0.930 . S
H849 C857 0.930 . S
H850 C858 0.930 . S
H851 C859 0.930 . S
H852 C862 0.930 . S
H853 C863 0.930 . S
C854 H848 0.930 . S
C854 C855 1.355 . S
C854 C856 1.415 . S
C855 C854 1.355 . S
C855 C857 1.419 1_556 S
C856 C854 1.415 . S
C856 C861 1.425 1_556 S
C856 C863 1.409 . S
C857 H849 0.930 . S
C857 C855 1.419 1_554 S
C857 C858 1.362 . S
C858 H850 0.930 . S
C858 C857 1.362 . S
C858 C861 1.409 . S
C859 H851 0.930 . S
C859 C860 1.355 . S
C859 C861 1.415 . S
C860 C859 1.355 . S
C860 C862 1.419 1_554 S
C861 C856 1.425 1_554 S
C861 C858 1.409 . S
C861 C859 1.415 . S
C862 H852 0.930 . S
C862 C860 1.419 1_556 S
C862 C863 1.362 . S
C863 H853 0.930 . S
C863 C856 1.409 . S
C863 C862 1.362 . S
H864 C870 0.930 . S
H865 C873 0.930 . S
H866 C874 0.930 . S
H867 C875 0.930 . S
H868 C878 0.930 . S
H869 C879 0.930 . S
C870 H864 0.930 . S
C870 C871 1.355 . S
C870 C872 1.415 . S
C871 C870 1.355 . S
C871 C873 1.419 . S
C872 C870 1.415 . S
C872 C877 1.425 . S
C872 C879 1.409 . S
C873 H865 0.930 . S
C873 C871 1.419 . S
C873 C874 1.362 . S
C874 H866 0.930 . S
C874 C873 1.362 . S
C874 C877 1.409 . S
C875 H867 0.930 . S
C875 C876 1.355 . S
C875 C877 1.415 . S
C876 C875 1.355 . S
C876 C878 1.419 . S
C877 C872 1.425 . S
C877 C874 1.409 . S
C877 C875 1.415 . S
C878 H868 0.930 . S
C878 C876 1.419 . S
C878 C879 1.362 . S
C879 H869 0.930 . S
C879 C872 1.409 . S
C879 C878 1.362 . S
H880 C886 0.930 . S
H881 C889 0.930 . S
H882 C890 0.930 . S
H883 C891 0.930 . S
H884 C894 0.930 . S
H885 C895 0.930 . S
C886 H880 0.930 . S
C886 C887 1.355 . S
C886 C888 1.415 . S
C887 C886 1.355 . S
C887 C889 1.419 . S
C888 C886 1.415 . S
C888 C893 1.425 . S
C888 C895 1.409 . S
C889 H881 0.930 . S
C889 C887 1.419 . S
C889 C890 1.362 . S
C890 H882 0.930 . S
C890 C889 1.362 . S
C890 C893 1.409 . S
C891 H883 0.930 . S
C891 C892 1.355 . S
C891 C893 1.415 . S
C892 C891 1.355 . S
C892 C894 1.419 . S
C893 C888 1.425 . S
C893 C890 1.409 . S
C893 C891 1.415 . S
C894 H884 0.930 . S
C894 C892 1.419 . S
C894 C895 1.362 . S
C895 H885 0.930 . S
C895 C888 1.409 . S
C895 C894 1.362 . S
H896 C902 0.930 . S
H897 C905 0.930 . S
H898 C906 0.930 . S
H899 C907 0.930 . S
H900 C910 0.930 . S
H901 C911 0.930 . S
C902 H896 0.930 . S
C902 C903 1.355 . S
C902 C904 1.415 . S
C903 C902 1.355 . S
C903 C905 1.419 . S
C904 C902 1.415 . S
C904 C909 1.425 . S
C904 C911 1.409 . S
C905 H897 0.930 . S
C905 C903 1.419 . S
C905 C906 1.362 . S
C906 H898 0.930 . S
C906 C905 1.362 . S
C906 C909 1.409 . S
C907 H899 0.930 . S
C907 C908 1.355 . S
C907 C909 1.415 . S
C908 C907 1.355 . S
C908 C910 1.419 . S
C909 C904 1.425 . S
C909 C906 1.409 . S
C909 C907 1.415 . S
C910 H900 0.930 . S
C910 C908 1.419 . S
C910 C911 1.362 . S
C911 H901 0.930 . S
C911 C904 1.409 . S
C911 C910 1.362 . S
H912 C918 0.930 . S
H913 C921 0.930 . S
H914 C922 0.930 . S
H915 C923 0.930 . S
H916 C926 0.930 . S
H917 C927 0.930 . S
C918 H912 0.930 . S
C918 C919 1.355 . S
C918 C920 1.415 . S
C919 C918 1.355 . S
C919 C921 1.419 . S
C920 C918 1.415 . S
C920 C925 1.425 . S
C920 C927 1.409 . S
C921 H913 0.930 . S
C921 C919 1.419 . S
C921 C922 1.362 . S
C922 H914 0.930 . S
C922 C921 1.362 . S
C922 C925 1.409 . S
C923 H915 0.930 . S
C923 C924 1.355 . S
C923 C925 1.415 . S
C924 C923 1.355 . S
C924 C926 1.419 . S
C925 C920 1.425 . S
C925 C922 1.409 . S
C925 C923 1.415 . S
C926 H916 0.930 . S
C926 C924 1.419 . S
C926 C927 1.362 . S
C927 H917 0.930 . S
C927 C920 1.409 . S
C927 C926 1.362 . S
H928 C934 0.930 . S
H929 C937 0.930 . S
H930 C938 0.930 . S
H931 C939 0.930 . S
H932 C942 0.930 . S
H933 C943 0.930 . S
C934 H928 0.930 . S
C934 C935 1.355 . S
C934 C936 1.415 . S
C935 C934 1.355 . S
C935 C937 1.419 . S
C936 C934 1.415 . S
C936 C941 1.425 . S
C936 C943 1.409 . S
C937 H929 0.930 . S
C937 C935 1.419 . S
C937 C938 1.362 . S
C938 H930 0.930 . S
C938 C937 1.362 . S
C938 C941 1.409 . S
C939 H931 0.930 . S
C939 C940 1.355 . S
C939 C941 1.415 . S
C940 C939 1.355 . S
C940 C942 1.419 . S
C941 C936 1.425 . S
C941 C938 1.409 . S
C941 C939 1.415 . S
C942 H932 0.930 . S
C942 C940 1.419 . S
C942 C943 1.362 . S
C943 H933 0.930 . S
C943 C936 1.409 . S
C943 C942 1.362 . S
H944 C950 0.930 . S
H945 C953 0.933 . S
H946 C954 0.930 . S
H947 C955 0.930 . S
H948 C958 0.933 . S
H949 C959 0.930 . S
C950 H944 0.930 . S
C950 C951 1.355 . S
C950 C952 1.415 . S
C951 C950 1.355 . S
C951 C953 1.410 1_545 S
C952 C950 1.415 . S
C952 C957 1.425 1_545 S
C952 C959 1.409 . S
C953 H945 0.933 . S
C953 C951 1.410 1_565 S
C953 C954 1.369 . S
C954 H946 0.930 . S
C954 C953 1.369 . S
C954 C957 1.409 . S
C955 H947 0.930 . S
C955 C956 1.355 . S
C955 C957 1.415 . S
C956 C955 1.355 . S
C956 C958 1.410 1_565 S
C957 C952 1.425 1_565 S
C957 C954 1.409 . S
C957 C955 1.415 . S
C958 H948 0.933 . S
C958 C956 1.410 1_545 S
C958 C959 1.369 . S
C959 H949 0.930 . S
C959 C952 1.409 . S
C959 C958 1.369 . S
H960 C966 0.930 . S
H961 C969 0.930 . S
H962 C970 0.930 . S
H963 C971 0.930 . S
H964 C974 0.930 . S
H965 C975 0.930 . S
C966 H960 0.930 . S
C966 C967 1.355 . S
C966 C968 1.415 . S
C967 C966 1.355 . S
C967 C969 1.419 1_554 S
C968 C966 1.415 . S
C968 C973 1.425 1_554 S
C968 C975 1.409 . S
C969 H961 0.930 . S
C969 C967 1.419 1_556 S
C969 C970 1.362 . S
C970 H962 0.930 . S
C970 C969 1.362 . S
C970 C973 1.409 . S
C971 H963 0.930 . S
C971 C972 1.355 . S
C971 C973 1.415 . S
C972 C971 1.355 . S
C972 C974 1.419 1_556 S
C973 C968 1.425 1_556 S
C973 C970 1.409 . S
C973 C971 1.415 . S
C974 H964 0.930 . S
C974 C972 1.419 1_554 S
C974 C975 1.362 . S
C975 H965 0.930 . S
C975 C968 1.409 . S
C975 C974 1.362 . S
H976 C982 0.930 . S
H977 C985 0.930 . S
H978 C986 0.930 . S
H979 C987 0.930 . S
H980 C990 0.930 . S
H981 C991 0.930 . S
C982 H976 0.930 . S
C982 C983 1.355 . S
C982 C984 1.415 . S
C983 C982 1.355 . S
C983 C985 1.419 . S
C984 C982 1.415 . S
C984 C989 1.425 . S
C984 C991 1.409 . S
C985 H977 0.930 . S
C985 C983 1.419 . S
C985 C986 1.362 . S
C986 H978 0.930 . S
C986 C985 1.362 . S
C986 C989 1.409 . S
C987 H979 0.930 . S
C987 C988 1.355 . S
C987 C989 1.415 . S
C988 C987 1.355 . S
C988 C990 1.419 . S
C989 C984 1.425 . S
C989 C986 1.409 . S
C989 C987 1.415 . S
C990 H980 0.930 . S
C990 C988 1.419 . S
C990 C991 1.362 . S
C991 H981 0.930 . S
C991 C984 1.409 . S
C991 C990 1.362 . S
H992 C998 0.930 . S
H993 C1001 0.930 . S
H994 C1002 0.930 . S
H995 C1003 0.930 . S
H996 C1006 0.930 . S
H997 C1007 0.930 . S
C998 H992 0.930 . S
C998 C999 1.355 . S
C998 C1000 1.415 . S
C999 C998 1.355 . S
C999 C1001 1.419 . S
C1000 C998 1.415 . S
C1000 C1005 1.425 . S
C1000 C1007 1.409 . S
C1001 H993 0.930 . S
C1001 C999 1.419 . S
C1001 C1002 1.362 . S
C1002 H994 0.930 . S
C1002 C1001 1.362 . S
C1002 C1005 1.409 . S
C1003 H995 0.930 . S
C1003 C1004 1.355 . S
C1003 C1005 1.415 . S
C1004 C1003 1.355 . S
C1004 C1006 1.419 . S
C1005 C1000 1.425 . S
C1005 C1002 1.409 . S
C1005 C1003 1.415 . S
C1006 H996 0.930 . S
C1006 C1004 1.419 . S
C1006 C1007 1.362 . S
C1007 H997 0.930 . S
C1007 C1000 1.409 . S
C1007 C1006 1.362 . S
H1008 C1014 0.930 . S
H1009 C1017 0.930 . S
H1010 C1018 0.930 . S
H1011 C1019 0.930 . S
H1012 C1022 0.930 . S
H1013 C1023 0.930 . S
C1014 H1008 0.930 . S
C1014 C1015 1.355 . S
C1014 C1016 1.415 . S
C1015 C1014 1.355 . S
C1015 C1017 1.419 . S
C1016 C1014 1.415 . S
C1016 C1021 1.425 . S
C1016 C1023 1.409 . S
C1017 H1009 0.930 . S
C1017 C1015 1.419 . S
C1017 C1018 1.362 . S
C1018 H1010 0.930 . S
C1018 C1017 1.362 . S
C1018 C1021 1.409 . S
C1019 H1011 0.930 . S
C1019 C1020 1.355 . S
C1019 C1021 1.415 . S
C1020 C1019 1.355 . S
C1020 C1022 1.419 . S
C1021 C1016 1.425 . S
C1021 C1018 1.409 . S
C1021 C1019 1.415 . S
C1022 H1012 0.930 . S
C1022 C1020 1.419 . S
C1022 C1023 1.362 . S
C1023 H1013 0.930 . S
C1023 C1016 1.409 . S
C1023 C1022 1.362 . S
H1024 C1030 0.930 . S
H1025 C1033 0.930 . S
H1026 C1034 0.930 . S
H1027 C1035 0.930 . S
H1028 C1038 0.930 . S
H1029 C1039 0.930 . S
C1030 H1024 0.930 . S
C1030 C1031 1.355 1_565 S
C1030 C1032 1.415 . S
C1031 C1030 1.355 1_545 S
C1031 C1033 1.419 . S
C1032 C1030 1.415 . S
C1032 C1037 1.425 1_565 S
C1032 C1039 1.409 . S
C1033 H1025 0.930 . S
C1033 C1031 1.419 . S
C1033 C1034 1.362 . S
C1034 H1026 0.930 . S
C1034 C1033 1.362 . S
C1034 C1037 1.409 . S
C1035 H1027 0.930 . S
C1035 C1036 1.355 1_545 S
C1035 C1037 1.415 . S
C1036 C1035 1.355 1_565 S
C1036 C1038 1.419 . S
C1037 C1032 1.425 1_545 S
C1037 C1034 1.409 . S
C1037 C1035 1.415 . S
C1038 H1028 0.930 . S
C1038 C1036 1.419 . S
C1038 C1039 1.362 . S
C1039 H1029 0.930 . S
C1039 C1032 1.409 . S
C1039 C1038 1.362 . S
H1040 C1046 0.930 . S
H1041 C1049 0.930 . S
H1042 C1050 0.930 . S
H1043 C1051 0.930 . S
H1044 C1054 0.930 . S
H1045 C1055 0.930 . S
C1046 H1040 0.930 . S
C1046 C1047 1.355 . S
C1046 C1048 1.415 . S
C1047 C1046 1.355 . S
C1047 C1049 1.419 1_554 S
C1048 C1046 1.415 . S
C1048 C1053 1.425 1_554 S
C1048 C1055 1.409 . S
C1049 H1041 0.930 . S
C1049 C1047 1.419 1_556 S
C1049 C1050 1.362 . S
C1050 H1042 0.930 . S
C1050 C1049 1.362 . S
C1050 C1053 1.409 . S
C1051 H1043 0.930 . S
C1051 C1052 1.355 . S
C1051 C1053 1.415 . S
C1052 C1051 1.355 . S
C1052 C1054 1.419 1_556 S
C1053 C1048 1.425 1_556 S
C1053 C1050 1.409 . S
C1053 C1051 1.415 . S
C1054 H1044 0.930 . S
C1054 C1052 1.419 1_554 S
C1054 C1055 1.362 . S
C1055 H1045 0.930 . S
C1055 C1048 1.409 . S
C1055 C1054 1.362 . S
H1056 C1062 0.930 . S
H1057 C1065 0.930 . S
H1058 C1066 0.930 . S
H1059 C1067 0.930 . S
H1060 C1070 0.930 . S
H1061 C1071 0.930 . S
C1062 H1056 0.930 . S
C1062 C1063 1.355 . S
C1062 C1064 1.415 . S
C1063 C1062 1.355 . S
C1063 C1065 1.419 . S
C1064 C1062 1.415 . S
C1064 C1069 1.425 . S
C1064 C1071 1.409 . S
C1065 H1057 0.930 . S
C1065 C1063 1.419 . S
C1065 C1066 1.362 . S
C1066 H1058 0.930 . S
C1066 C1065 1.362 . S
C1066 C1069 1.409 . S
C1067 H1059 0.930 . S
C1067 C1068 1.355 . S
C1067 C1069 1.415 . S
C1068 C1067 1.355 . S
C1068 C1070 1.419 . S
C1069 C1064 1.425 . S
C1069 C1066 1.409 . S
C1069 C1067 1.415 . S
C1070 H1060 0.930 . S
C1070 C1068 1.419 . S
C1070 C1071 1.362 . S
C1071 H1061 0.930 . S
C1071 C1064 1.409 . S
C1071 C1070 1.362 . S
H1072 C1078 0.930 . S
H1073 C1081 0.930 . S
H1074 C1082 0.930 . S
H1075 C1083 0.930 . S
H1076 C1086 0.930 . S
H1077 C1087 0.930 . S
C1078 H1072 0.930 . S
C1078 C1079 1.355 . S
C1078 C1080 1.415 . S
C1079 C1078 1.355 . S
C1079 C1081 1.419 . S
C1080 C1078 1.415 . S
C1080 C1085 1.425 . S
C1080 C1087 1.409 . S
C1081 H1073 0.930 . S
C1081 C1079 1.419 . S
C1081 C1082 1.362 . S
C1082 H1074 0.930 . S
C1082 C1081 1.362 . S
C1082 C1085 1.409 . S
C1083 H1075 0.930 . S
C1083 C1084 1.355 . S
C1083 C1085 1.415 . S
C1084 C1083 1.355 . S
C1084 C1086 1.419 . S
C1085 C1080 1.425 . S
C1085 C1082 1.409 . S
C1085 C1083 1.415 . S
C1086 H1076 0.930 . S
C1086 C1084 1.419 . S
C1086 C1087 1.362 . S
C1087 H1077 0.930 . S
C1087 C1080 1.409 . S
C1087 C1086 1.362 . S
H1088 C1094 0.930 . S
H1089 C1097 0.930 . S
H1090 C1098 0.930 . S
H1091 C1099 0.930 . S
H1092 C1102 0.930 . S
H1093 C1103 0.930 . S
C1094 H1088 0.930 . S
C1094 C1095 1.355 . S
C1094 C1096 1.415 . S
C1095 C1094 1.355 . S
C1095 C1097 1.419 . S
C1096 C1094 1.415 . S
C1096 C1101 1.425 . S
C1096 C1103 1.409 . S
C1097 H1089 0.930 . S
C1097 C1095 1.419 . S
C1097 C1098 1.362 . S
C1098 H1090 0.930 . S
C1098 C1097 1.362 . S
C1098 C1101 1.409 . S
C1099 H1091 0.930 . S
C1099 C1100 1.355 . S
C1099 C1101 1.415 . S
C1100 C1099 1.355 . S
C1100 C1102 1.419 . S
C1101 C1096 1.425 . S
C1101 C1098 1.409 . S
C1101 C1099 1.415 . S
C1102 H1092 0.930 . S
C1102 C1100 1.419 . S
C1102 C1103 1.362 . S
C1103 H1093 0.930 . S
C1103 C1096 1.409 . S
C1103 C1102 1.362 . S
H1104 C1110 0.930 . S
H1105 C1113 0.930 . S
H1106 C1114 0.930 . S
H1107 C1115 0.930 . S
H1108 C1118 0.930 . S
H1109 C1119 0.930 . S
C1110 H1104 0.930 . S
C1110 C1111 1.355 . S
C1110 C1112 1.415 . S
C1111 C1110 1.355 . S
C1111 C1113 1.419 . S
C1112 C1110 1.415 . S
C1112 C1117 1.425 . S
C1112 C1119 1.409 . S
C1113 H1105 0.930 . S
C1113 C1111 1.419 . S
C1113 C1114 1.362 . S
C1114 H1106 0.930 . S
C1114 C1113 1.362 . S
C1114 C1117 1.409 . S
C1115 H1107 0.930 . S
C1115 C1116 1.355 . S
C1115 C1117 1.415 . S
C1116 C1115 1.355 . S
C1116 C1118 1.419 . S
C1117 C1112 1.425 . S
C1117 C1114 1.409 . S
C1117 C1115 1.415 . S
C1118 H1108 0.930 . S
C1118 C1116 1.419 . S
C1118 C1119 1.362 . S
C1119 H1109 0.930 . S
C1119 C1112 1.409 . S
C1119 C1118 1.362 . S
H1120 C1126 0.930 . S
H1121 C1129 0.930 . S
H1122 C1130 0.930 . S
H1123 C1131 0.930 . S
H1124 C1134 0.930 . S
H1125 C1135 0.930 . S
C1126 H1120 0.930 . S
C1126 C1127 1.355 . S
C1126 C1128 1.415 . S
C1127 C1126 1.355 . S
C1127 C1129 1.419 . S
C1128 C1126 1.415 . S
C1128 C1133 1.425 . S
C1128 C1135 1.409 . S
C1129 H1121 0.930 . S
C1129 C1127 1.419 . S
C1129 C1130 1.362 . S
C1130 H1122 0.930 . S
C1130 C1129 1.362 . S
C1130 C1133 1.409 . S
C1131 H1123 0.930 . S
C1131 C1132 1.355 . S
C1131 C1133 1.415 . S
C1132 C1131 1.355 . S
C1132 C1134 1.419 . S
C1133 C1128 1.425 . S
C1133 C1130 1.409 . S
C1133 C1131 1.415 . S
C1134 H1124 0.930 . S
C1134 C1132 1.419 . S
C1134 C1135 1.362 . S
C1135 H1125 0.930 . S
C1135 C1128 1.409 . S
C1135 C1134 1.362 . S
H1136 C1142 0.930 . S
H1137 C1145 0.930 . S
H1138 C1146 0.930 . S
H1139 C1147 0.930 . S
H1140 C1150 0.930 . S
H1141 C1151 0.930 . S
C1142 H1136 0.930 . S
C1142 C1143 1.355 . S
C1142 C1144 1.415 . S
C1143 C1142 1.355 . S
C1143 C1145 1.419 . S
C1144 C1142 1.415 . S
C1144 C1149 1.425 . S
C1144 C1151 1.409 . S
C1145 H1137 0.930 . S
C1145 C1143 1.419 . S
C1145 C1146 1.362 . S
C1146 H1138 0.930 . S
C1146 C1145 1.362 . S
C1146 C1149 1.409 . S
C1147 H1139 0.930 . S
C1147 C1148 1.355 . S
C1147 C1149 1.415 . S
C1148 C1147 1.355 . S
C1148 C1150 1.419 . S
C1149 C1144 1.425 . S
C1149 C1146 1.409 . S
C1149 C1147 1.415 . S
C1150 H1140 0.930 . S
C1150 C1148 1.419 . S
C1150 C1151 1.362 . S
C1151 H1141 0.930 . S
C1151 C1144 1.409 . S
C1151 C1150 1.362 . S
H1152 C1158 0.930 . S
H1153 C1161 0.930 . S
H1154 C1162 0.930 . S
H1155 C1163 0.930 . S
H1156 C1166 0.930 . S
H1157 C1167 0.930 . S
C1158 H1152 0.930 . S
C1158 C1159 1.355 . S
C1158 C1160 1.415 . S
C1159 C1158 1.355 . S
C1159 C1161 1.419 . S
C1160 C1158 1.415 . S
C1160 C1165 1.425 . S
C1160 C1167 1.409 . S
C1161 H1153 0.930 . S
C1161 C1159 1.419 . S
C1161 C1162 1.362 . S
C1162 H1154 0.930 . S
C1162 C1161 1.362 . S
C1162 C1165 1.409 . S
C1163 H1155 0.930 . S
C1163 C1164 1.355 . S
C1163 C1165 1.415 . S
C1164 C1163 1.355 . S
C1164 C1166 1.419 . S
C1165 C1160 1.425 . S
C1165 C1162 1.409 . S
C1165 C1163 1.415 . S
C1166 H1156 0.930 . S
C1166 C1164 1.419 . S
C1166 C1167 1.362 . S
C1167 H1157 0.930 . S
C1167 C1160 1.409 . S
C1167 C1166 1.362 . S
H1168 C1174 0.930 . S
H1169 C1177 0.930 . S
H1170 C1178 0.930 . S
H1171 C1179 0.930 . S
H1172 C1182 0.930 . S
H1173 C1183 0.930 . S
C1174 H1168 0.930 . S
C1174 C1175 1.355 . S
C1174 C1176 1.415 . S
C1175 C1174 1.355 . S
C1175 C1177 1.419 . S
C1176 C1174 1.415 . S
C1176 C1181 1.425 . S
C1176 C1183 1.409 . S
C1177 H1169 0.930 . S
C1177 C1175 1.419 . S
C1177 C1178 1.362 . S
C1178 H1170 0.930 . S
C1178 C1177 1.362 . S
C1178 C1181 1.409 . S
C1179 H1171 0.930 . S
C1179 C1180 1.355 . S
C1179 C1181 1.415 . S
C1180 C1179 1.355 . S
C1180 C1182 1.419 . S
C1181 C1176 1.425 . S
C1181 C1178 1.409 . S
C1181 C1179 1.415 . S
C1182 H1172 0.930 . S
C1182 C1180 1.419 . S
C1182 C1183 1.362 . S
C1183 H1173 0.930 . S
C1183 C1176 1.409 . S
C1183 C1182 1.362 . S
H1184 C1190 0.930 . S
H1185 C1193 0.930 . S
H1186 C1194 0.930 . S
H1187 C1195 0.930 . S
H1188 C1198 0.930 . S
H1189 C1199 0.930 . S
C1190 H1184 0.930 . S
C1190 C1191 1.355 . S
C1190 C1192 1.415 . S
C1191 C1190 1.355 . S
C1191 C1193 1.419 . S
C1192 C1190 1.415 . S
C1192 C1197 1.425 . S
C1192 C1199 1.409 . S
C1193 H1185 0.930 . S
C1193 C1191 1.419 . S
C1193 C1194 1.362 . S
C1194 H1186 0.930 . S
C1194 C1193 1.362 . S
C1194 C1197 1.409 . S
C1195 H1187 0.930 . S
C1195 C1196 1.355 . S
C1195 C1197 1.415 . S
C1196 C1195 1.355 . S
C1196 C1198 1.419 . S
C1197 C1192 1.425 . S
C1197 C1194 1.409 . S
C1197 C1195 1.415 . S
C1198 H1188 0.930 . S
C1198 C1196 1.419 . S
C1198 C1199 1.362 . S
C1199 H1189 0.930 . S
C1199 C1192 1.409 . S
C1199 C1198 1.362 . S
H1200 C1206 0.930 . S
H1201 C1209 0.930 . S
H1202 C1210 0.930 . S
H1203 C1211 0.930 . S
H1204 C1214 0.930 . S
H1205 C1215 0.930 . S
C1206 H1200 0.930 . S
C1206 C1207 1.355 . S
C1206 C1208 1.415 . S
C1207 C1206 1.355 . S
C1207 C1209 1.419 . S
C1208 C1206 1.415 . S
C1208 C1213 1.425 . S
C1208 C1215 1.409 . S
C1209 H1201 0.930 . S
C1209 C1207 1.419 . S
C1209 C1210 1.362 . S
C1210 H1202 0.930 . S
C1210 C1209 1.362 . S
C1210 C1213 1.409 . S
C1211 H1203 0.930 . S
C1211 C1212 1.355 . S
C1211 C1213 1.415 . S
C1212 C1211 1.355 . S
C1212 C1214 1.419 . S
C1213 C1208 1.425 . S
C1213 C1210 1.409 . S
C1213 C1211 1.415 . S
C1214 H1204 0.930 . S
C1214 C1212 1.419 . S
C1214 C1215 1.362 . S
C1215 H1205 0.930 . S
C1215 C1208 1.409 . S
C1215 C1214 1.362 . S
H1216 C1222 0.930 . S
H1217 C1225 0.930 . S
H1218 C1226 0.930 . S
H1219 C1227 0.930 . S
H1220 C1230 0.930 . S
H1221 C1231 0.930 . S
C1222 H1216 0.930 . S
C1222 C1223 1.355 . S
C1222 C1224 1.415 . S
C1223 C1222 1.355 . S
C1223 C1225 1.419 . S
C1224 C1222 1.415 . S
C1224 C1229 1.425 . S
C1224 C1231 1.409 . S
C1225 H1217 0.930 . S
C1225 C1223 1.419 . S
C1225 C1226 1.362 . S
C1226 H1218 0.930 . S
C1226 C1225 1.362 . S
C1226 C1229 1.409 . S
C1227 H1219 0.930 . S
C1227 C1228 1.355 . S
C1227 C1229 1.415 . S
C1228 C1227 1.355 . S
C1228 C1230 1.419 . S
C1229 C1224 1.425 . S
C1229 C1226 1.409 . S
C1229 C1227 1.415 . S
C1230 H1220 0.930 . S
C1230 C1228 1.419 . S
C1230 C1231 1.362 . S
C1231 H1221 0.930 . S
C1231 C1224 1.409 . S
C1231 C1230 1.362 . S
H1232 C1238 0.930 . S
H1233 C1241 0.930 . S
H1234 C1242 0.930 . S
H1235 C1243 0.930 . S
H1236 C1246 0.930 . S
H1237 C1247 0.930 . S
C1238 H1232 0.930 . S
C1238 C1239 1.355 . S
C1238 C1240 1.415 . S
C1239 C1238 1.355 . S
C1239 C1241 1.419 . S
C1240 C1238 1.415 . S
C1240 C1245 1.425 . S
C1240 C1247 1.409 . S
C1241 H1233 0.930 . S
C1241 C1239 1.419 . S
C1241 C1242 1.362 . S
C1242 H1234 0.930 . S
C1242 C1241 1.362 . S
C1242 C1245 1.409 . S
C1243 H1235 0.930 . S
C1243 C1244 1.355 . S
C1243 C1245 1.415 . S
C1244 C1243 1.355 . S
C1244 C1246 1.419 . S
C1245 C1240 1.425 . S
C1245 C1242 1.409 . S
C1245 C1243 1.415 . S
C1246 H1236 0.930 . S
C1246 C1244 1.419 . S
C1246 C1247 1.362 . S
C1247 H1237 0.930 . S
C1247 C1240 1.409 . S
C1247 C1246 1.362 . S
H1248 C1254 0.930 . S
H1249 C1257 0.930 . S
H1250 C1258 0.930 . S
H1251 C1259 0.930 . S
H1252 C1262 0.930 . S
H1253 C1263 0.930 . S
C1254 H1248 0.930 . S
C1254 C1255 1.355 . S
C1254 C1256 1.415 . S
C1255 C1254 1.355 . S
C1255 C1257 1.419 . S
C1256 C1254 1.415 . S
C1256 C1261 1.425 . S
C1256 C1263 1.409 . S
C1257 H1249 0.930 . S
C1257 C1255 1.419 . S
C1257 C1258 1.362 . S
C1258 H1250 0.930 . S
C1258 C1257 1.362 . S
C1258 C1261 1.409 . S
C1259 H1251 0.930 . S
C1259 C1260 1.355 . S
C1259 C1261 1.415 . S
C1260 C1259 1.355 . S
C1260 C1262 1.419 . S
C1261 C1256 1.425 . S
C1261 C1258 1.409 . S
C1261 C1259 1.415 . S
C1262 H1252 0.930 . S
C1262 C1260 1.419 . S
C1262 C1263 1.362 . S
C1263 H1253 0.930 . S
C1263 C1256 1.409 . S
C1263 C1262 1.362 . S
H1264 C1270 0.930 . S
H1265 C1273 0.930 . S
H1266 C1274 0.930 . S
H1267 C1275 0.930 . S
H1268 C1278 0.930 . S
H1269 C1279 0.930 . S
C1270 H1264 0.930 . S
C1270 C1271 1.355 . S
C1270 C1272 1.415 . S
C1271 C1270 1.355 . S
C1271 C1273 1.419 . S
C1272 C1270 1.415 . S
C1272 C1277 1.425 . S
C1272 C1279 1.409 . S
C1273 H1265 0.930 . S
C1273 C1271 1.419 . S
C1273 C1274 1.362 . S
C1274 H1266 0.930 . S
C1274 C1273 1.362 . S
C1274 C1277 1.409 . S
C1275 H1267 0.930 . S
C1275 C1276 1.355 . S
C1275 C1277 1.415 . S
C1276 C1275 1.355 . S
C1276 C1278 1.419 . S
C1277 C1272 1.425 . S
C1277 C1274 1.409 . S
C1277 C1275 1.415 . S
C1278 H1268 0.930 . S
C1278 C1276 1.419 . S
C1278 C1279 1.362 . S
C1279 H1269 0.930 . S
C1279 C1272 1.409 . S
C1279 C1278 1.362 . S
H1280 C1286 0.930 . S
H1281 C1289 0.930 . S
H1282 C1290 0.930 . S
H1283 C1291 0.930 . S
H1284 C1294 0.930 . S
H1285 C1295 0.930 . S
C1286 H1280 0.930 . S
C1286 C1287 1.355 . S
C1286 C1288 1.415 . S
C1287 C1286 1.355 . S
C1287 C1289 1.419 . S
C1288 C1286 1.415 . S
C1288 C1293 1.425 . S
C1288 C1295 1.409 . S
C1289 H1281 0.930 . S
C1289 C1287 1.419 . S
C1289 C1290 1.362 . S
C1290 H1282 0.930 . S
C1290 C1289 1.362 . S
C1290 C1293 1.409 . S
C1291 H1283 0.930 . S
C1291 C1292 1.355 . S
C1291 C1293 1.415 . S
C1292 C1291 1.355 . S
C1292 C1294 1.419 . S
C1293 C1288 1.425 . S
C1293 C1290 1.409 . S
C1293 C1291 1.415 . S
C1294 H1284 0.930 . S
C1294 C1292 1.419 . S
C1294 C1295 1.362 . S
C1295 H1285 0.930 . S
C1295 C1288 1.409 . S
C1295 C1294 1.362 . S
H1296 C1302 0.930 . S
H1297 C1305 0.930 . S
H1298 C1306 0.930 . S
H1299 C1307 0.930 . S
H1300 C1310 0.930 . S
H1301 C1311 0.930 . S
C1302 H1296 0.930 . S
C1302 C1303 1.355 . S
C1302 C1304 1.415 . S
C1303 C1302 1.355 . S
C1303 C1305 1.419 . S
C1304 C1302 1.415 . S
C1304 C1309 1.425 . S
C1304 C1311 1.409 . S
C1305 H1297 0.930 . S
C1305 C1303 1.419 . S
C1305 C1306 1.362 . S
C1306 H1298 0.930 . S
C1306 C1305 1.362 . S
C1306 C1309 1.409 . S
C1307 H1299 0.930 . S
C1307 C1308 1.355 . S
C1307 C1309 1.415 . S
C1308 C1307 1.355 . S
C1308 C1310 1.419 . S
C1309 C1304 1.425 . S
C1309 C1306 1.409 . S
C1309 C1307 1.415 . S
C1310 H1300 0.930 . S
C1310 C1308 1.419 . S
C1310 C1311 1.362 . S
C1311 H1301 0.930 . S
C1311 C1304 1.409 . S
C1311 C1310 1.362 . S
H1312 C1318 0.930 . S
H1313 C1321 0.930 . S
H1314 C1322 0.930 . S
H1315 C1323 0.930 . S
H1316 C1326 0.930 . S
H1317 C1327 0.930 . S
C1318 H1312 0.930 . S
C1318 C1319 1.355 . S
C1318 C1320 1.415 . S
C1319 C1318 1.355 . S
C1319 C1321 1.419 . S
C1320 C1318 1.415 . S
C1320 C1325 1.425 . S
C1320 C1327 1.409 . S
C1321 H1313 0.930 . S
C1321 C1319 1.419 . S
C1321 C1322 1.362 . S
C1322 H1314 0.930 . S
C1322 C1321 1.362 . S
C1322 C1325 1.409 . S
C1323 H1315 0.930 . S
C1323 C1324 1.355 . S
C1323 C1325 1.415 . S
C1324 C1323 1.355 . S
C1324 C1326 1.419 . S
C1325 C1320 1.425 . S
C1325 C1322 1.409 . S
C1325 C1323 1.415 . S
C1326 H1316 0.930 . S
C1326 C1324 1.419 . S
C1326 C1327 1.362 . S
C1327 H1317 0.930 . S
C1327 C1320 1.409 . S
C1327 C1326 1.362 . S
H1328 C1334 0.930 . S
H1329 C1337 0.930 . S
H1330 C1338 0.930 . S
H1331 C1339 0.930 . S
H1332 C1342 0.930 . S
H1333 C1343 0.930 . S
C1334 H1328 0.930 . S
C1334 C1335 1.355 . S
C1334 C1336 1.415 . S
C1335 C1334 1.355 . S
C1335 C1337 1.419 . S
C1336 C1334 1.415 . S
C1336 C1341 1.425 . S
C1336 C1343 1.409 . S
C1337 H1329 0.930 . S
C1337 C1335 1.419 . S
C1337 C1338 1.362 . S
C1338 H1330 0.930 . S
C1338 C1337 1.362 . S
C1338 C1341 1.409 . S
C1339 H1331 0.930 . S
C1339 C1340 1.355 . S
C1339 C1341 1.415 . S
C1340 C1339 1.355 . S
C1340 C1342 1.419 . S
C1341 C1336 1.425 . S
C1341 C1338 1.409 . S
C1341 C1339 1.415 . S
C1342 H1332 0.930 . S
C1342 C1340 1.419 . S
C1342 C1343 1.362 . S
C1343 H1333 0.930 . S
C1343 C1336 1.409 . S
C1343 C1342 1.362 . S
H1344 C1350 0.930 . S
H1345 C1353 0.930 . S
H1346 C1354 0.930 . S
H1347 C1355 0.930 . S
H1348 C1358 0.930 . S
H1349 C1359 0.930 . S
C1350 H1344 0.930 . S
C1350 C1351 1.355 . S
C1350 C1352 1.415 . S
C1351 C1350 1.355 . S
C1351 C1353 1.419 . S
C1352 C1350 1.415 . S
C1352 C1357 1.425 . S
C1352 C1359 1.409 . S
C1353 H1345 0.930 . S
C1353 C1351 1.419 . S
C1353 C1354 1.362 . S
C1354 H1346 0.930 . S
C1354 C1353 1.362 . S
C1354 C1357 1.409 . S
C1355 H1347 0.930 . S
C1355 C1356 1.355 . S
C1355 C1357 1.415 . S
C1356 C1355 1.355 . S
C1356 C1358 1.419 . S
C1357 C1352 1.425 . S
C1357 C1354 1.409 . S
C1357 C1355 1.415 . S
C1358 H1348 0.930 . S
C1358 C1356 1.419 . S
C1358 C1359 1.362 . S
C1359 H1349 0.930 . S
C1359 C1352 1.409 . S
C1359 C1358 1.362 . S
H1360 C1366 0.930 . S
H1361 C1369 0.930 . S
H1362 C1370 0.930 . S
H1363 C1371 0.930 . S
H1364 C1374 0.930 . S
H1365 C1375 0.930 . S
C1366 H1360 0.930 . S
C1366 C1367 1.355 . S
C1366 C1368 1.415 . S
C1367 C1366 1.355 . S
C1367 C1369 1.419 . S
C1368 C1366 1.415 . S
C1368 C1373 1.425 . S
C1368 C1375 1.409 . S
C1369 H1361 0.930 . S
C1369 C1367 1.419 . S
C1369 C1370 1.362 . S
C1370 H1362 0.930 . S
C1370 C1369 1.362 . S
C1370 C1373 1.409 . S
C1371 H1363 0.930 . S
C1371 C1372 1.355 . S
C1371 C1373 1.415 . S
C1372 C1371 1.355 . S
C1372 C1374 1.419 . S
C1373 C1368 1.425 . S
C1373 C1370 1.409 . S
C1373 C1371 1.415 . S
C1374 H1364 0.930 . S
C1374 C1372 1.419 . S
C1374 C1375 1.362 . S
C1375 H1365 0.930 . S
C1375 C1368 1.409 . S
C1375 C1374 1.362 . S
H1376 C1382 0.930 . S
H1377 C1385 0.930 . S
H1378 C1386 0.930 . S
H1379 C1387 0.930 . S
H1380 C1390 0.930 . S
H1381 C1391 0.930 . S
C1382 H1376 0.930 . S
C1382 C1383 1.355 . S
C1382 C1384 1.415 . S
C1383 C1382 1.355 . S
C1383 C1385 1.419 . S
C1384 C1382 1.415 . S
C1384 C1389 1.425 . S
C1384 C1391 1.409 . S
C1385 H1377 0.930 . S
C1385 C1383 1.419 . S
C1385 C1386 1.362 . S
C1386 H1378 0.930 . S
C1386 C1385 1.362 . S
C1386 C1389 1.409 . S
C1387 H1379 0.930 . S
C1387 C1388 1.355 . S
C1387 C1389 1.415 . S
C1388 C1387 1.355 . S
C1388 C1390 1.419 . S
C1389 C1384 1.425 . S
C1389 C1386 1.409 . S
C1389 C1387 1.415 . S
C1390 H1380 0.930 . S
C1390 C1388 1.419 . S
C1390 C1391 1.362 . S
C1391 H1381 0.930 . S
C1391 C1384 1.409 . S
C1391 C1390 1.362 . S
H1392 C1398 0.930 . S
H1393 C1401 0.930 . S
H1394 C1402 0.930 . S
H1395 C1403 0.930 . S
H1396 C1406 0.930 . S
H1397 C1407 0.930 . S
C1398 H1392 0.930 . S
C1398 C1399 1.355 . S
C1398 C1400 1.415 . S
C1399 C1398 1.355 . S
C1399 C1401 1.419 . S
C1400 C1398 1.415 . S
C1400 C1405 1.425 . S
C1400 C1407 1.409 . S
C1401 H1393 0.930 . S
C1401 C1399 1.419 . S
C1401 C1402 1.362 . S
C1402 H1394 0.930 . S
C1402 C1401 1.362 . S
C1402 C1405 1.409 . S
C1403 H1395 0.930 . S
C1403 C1404 1.355 . S
C1403 C1405 1.415 . S
C1404 C1403 1.355 . S
C1404 C1406 1.419 . S
C1405 C1400 1.425 . S
C1405 C1402 1.409 . S
C1405 C1403 1.415 . S
C1406 H1396 0.930 . S
C1406 C1404 1.419 . S
C1406 C1407 1.362 . S
C1407 H1397 0.930 . S
C1407 C1400 1.409 . S
C1407 C1406 1.362 . S
H1408 C1414 0.930 . S
H1409 C1417 0.930 . S
H1410 C1418 0.930 . S
H1411 C1419 0.930 . S
H1412 C1422 0.930 . S
H1413 C1423 0.930 . S
C1414 H1408 0.930 . S
C1414 C1415 1.355 . S
C1414 C1416 1.415 . S
C1415 C1414 1.355 . S
C1415 C1417 1.419 . S
C1416 C1414 1.415 . S
C1416 C1421 1.425 . S
C1416 C1423 1.409 . S
C1417 H1409 0.930 . S
C1417 C1415 1.419 . S
C1417 C1418 1.362 . S
C1418 H1410 0.930 . S
C1418 C1417 1.362 . S
C1418 C1421 1.409 . S
C1419 H1411 0.930 . S
C1419 C1420 1.355 . S
C1419 C1421 1.415 . S
C1420 C1419 1.355 . S
C1420 C1422 1.419 . S
C1421 C1416 1.425 . S
C1421 C1418 1.409 . S
C1421 C1419 1.415 . S
C1422 H1412 0.930 . S
C1422 C1420 1.419 . S
C1422 C1423 1.362 . S
C1423 H1413 0.930 . S
C1423 C1416 1.409 . S
C1423 C1422 1.362 . S
H1424 C1430 0.930 . S
H1425 C1433 0.930 . S
H1426 C1434 0.930 . S
H1427 C1435 0.930 . S
H1428 C1438 0.930 . S
H1429 C1439 0.930 . S
C1430 H1424 0.930 . S
C1430 C1431 1.355 . S
C1430 C1432 1.415 . S
C1431 C1430 1.355 . S
C1431 C1433 1.419 . S
C1432 C1430 1.415 . S
C1432 C1437 1.425 . S
C1432 C1439 1.409 . S
C1433 H1425 0.930 . S
C1433 C1431 1.419 . S
C1433 C1434 1.362 . S
C1434 H1426 0.930 . S
C1434 C1433 1.362 . S
C1434 C1437 1.409 . S
C1435 H1427 0.930 . S
C1435 C1436 1.355 . S
C1435 C1437 1.415 . S
C1436 C1435 1.355 . S
C1436 C1438 1.419 . S
C1437 C1432 1.425 . S
C1437 C1434 1.409 . S
C1437 C1435 1.415 . S
C1438 H1428 0.930 . S
C1438 C1436 1.419 . S
C1438 C1439 1.362 . S
C1439 H1429 0.930 . S
C1439 C1432 1.409 . S
C1439 C1438 1.362 . S
H1440 C1446 0.930 . S
H1441 C1449 0.930 . S
H1442 C1450 0.930 . S
H1443 C1451 0.930 . S
H1444 C1454 0.930 . S
H1445 C1455 0.930 . S
C1446 H1440 0.930 . S
C1446 C1447 1.355 . S
C1446 C1448 1.415 . S
C1447 C1446 1.355 . S
C1447 C1449 1.419 . S
C1448 C1446 1.415 . S
C1448 C1453 1.425 . S
C1448 C1455 1.409 . S
C1449 H1441 0.930 . S
C1449 C1447 1.419 . S
C1449 C1450 1.362 . S
C1450 H1442 0.930 . S
C1450 C1449 1.362 . S
C1450 C1453 1.409 . S
C1451 H1443 0.930 . S
C1451 C1452 1.355 . S
C1451 C1453 1.415 . S
C1452 C1451 1.355 . S
C1452 C1454 1.419 . S
C1453 C1448 1.425 . S
C1453 C1450 1.409 . S
C1453 C1451 1.415 . S
C1454 H1444 0.930 . S
C1454 C1452 1.419 . S
C1454 C1455 1.362 . S
C1455 H1445 0.930 . S
C1455 C1448 1.409 . S
C1455 C1454 1.362 . S
H1456 C1462 0.930 . S
H1457 C1465 0.930 . S
H1458 C1466 0.930 . S
H1459 C1467 0.930 . S
H1460 C1470 0.930 . S
H1461 C1471 0.930 . S
C1462 H1456 0.930 . S
C1462 C1463 1.355 . S
C1462 C1464 1.415 . S
C1463 C1462 1.355 . S
C1463 C1465 1.419 . S
C1464 C1462 1.415 . S
C1464 C1469 1.425 . S
C1464 C1471 1.409 . S
C1465 H1457 0.930 . S
C1465 C1463 1.419 . S
C1465 C1466 1.362 . S
C1466 H1458 0.930 . S
C1466 C1465 1.362 . S
C1466 C1469 1.409 . S
C1467 H1459 0.930 . S
C1467 C1468 1.355 . S
C1467 C1469 1.415 . S
C1468 C1467 1.355 . S
C1468 C1470 1.419 . S
C1469 C1464 1.425 . S
C1469 C1466 1.409 . S
C1469 C1467 1.415 . S
C1470 H1460 0.930 . S
C1470 C1468 1.419 . S
C1470 C1471 1.362 . S
C1471 H1461 0.930 . S
C1471 C1464 1.409 . S
C1471 C1470 1.362 . S
H1472 C1478 0.930 . S
H1473 C1481 0.930 . S
H1474 C1482 0.930 . S
H1475 C1483 0.930 . S
H1476 C1486 0.930 . S
H1477 C1487 0.930 . S
C1478 H1472 0.930 . S
C1478 C1479 1.355 . S
C1478 C1480 1.415 . S
C1479 C1478 1.355 . S
C1479 C1481 1.419 . S
C1480 C1478 1.415 . S
C1480 C1485 1.425 . S
C1480 C1487 1.409 . S
C1481 H1473 0.930 . S
C1481 C1479 1.419 . S
C1481 C1482 1.362 . S
C1482 H1474 0.930 . S
C1482 C1481 1.362 . S
C1482 C1485 1.409 . S
C1483 H1475 0.930 . S
C1483 C1484 1.355 . S
C1483 C1485 1.415 . S
C1484 C1483 1.355 . S
C1484 C1486 1.419 . S
C1485 C1480 1.425 . S
C1485 C1482 1.409 . S
C1485 C1483 1.415 . S
C1486 H1476 0.930 . S
C1486 C1484 1.419 . S
C1486 C1487 1.362 . S
C1487 H1477 0.930 . S
C1487 C1480 1.409 . S
C1487 C1486 1.362 . S
H1488 C1494 0.930 . S
H1489 C1497 0.930 . S
H1490 C1498 0.930 . S
H1491 C1499 0.930 . S
H1492 C1502 0.930 . S
H1493 C1503 0.930 . S
C1494 H1488 0.930 . S
C1494 C1495 1.355 . S
C1494 C1496 1.415 . S
C1495 C1494 1.355 . S
C1495 C1497 1.419 . S
C1496 C1494 1.415 . S
C1496 C1501 1.425 . S
C1496 C1503 1.409 . S
C1497 H1489 0.930 . S
C1497 C1495 1.419 . S
C1497 C1498 1.362 . S
C1498 H1490 0.930 . S
C1498 C1497 1.362 . S
C1498 C1501 1.409 . S
C1499 H1491 0.930 . S
C1499 C1500 1.355 . S
C1499 C1501 1.415 . S
C1500 C1499 1.355 . S
C1500 C1502 1.419 . S
C1501 C1496 1.425 . S
C1501 C1498 1.409 . S
C1501 C1499 1.415 . S
C1502 H1492 0.930 . S
C1502 C1500 1.419 . S
C1502 C1503 1.362 . S
C1503 H1493 0.930 . S
C1503 C1496 1.409 . S
C1503 C1502 1.362 . S
H1504 C1510 0.930 . S
H1505 C1513 0.930 . S
H1506 C1514 0.930 . S
H1507 C1515 0.930 . S
H1508 C1518 0.930 . S
H1509 C1519 0.930 . S
C1510 H1504 0.930 . S
C1510 C1511 1.355 . S
C1510 C1512 1.415 . S
C1511 C1510 1.355 . S
C1511 C1513 1.419 . S
C1512 C1510 1.415 . S
C1512 C1517 1.425 . S
C1512 C1519 1.409 . S
C1513 H1505 0.930 . S
C1513 C1511 1.419 . S
C1513 C1514 1.362 . S
C1514 H1506 0.930 . S
C1514 C1513 1.362 . S
C1514 C1517 1.409 . S
C1515 H1507 0.930 . S
C1515 C1516 1.355 . S
C1515 C1517 1.415 . S
C1516 C1515 1.355 . S
C1516 C1518 1.419 . S
C1517 C1512 1.425 . S
C1517 C1514 1.409 . S
C1517 C1515 1.415 . S
C1518 H1508 0.930 . S
C1518 C1516 1.419 . S
C1518 C1519 1.362 . S
C1519 H1509 0.930 . S
C1519 C1512 1.409 . S
C1519 C1518 1.362 . S
H1520 C1526 0.930 . S
H1521 C1529 0.930 . S
H1522 C1530 0.930 . S
H1523 C1531 0.930 . S
H1524 C1534 0.930 . S
H1525 C1535 0.930 . S
C1526 H1520 0.930 . S
C1526 C1527 1.355 . S
C1526 C1528 1.415 . S
C1527 C1526 1.355 . S
C1527 C1529 1.419 . S
C1528 C1526 1.415 . S
C1528 C1533 1.425 . S
C1528 C1535 1.409 . S
C1529 H1521 0.930 . S
C1529 C1527 1.419 . S
C1529 C1530 1.362 . S
C1530 H1522 0.930 . S
C1530 C1529 1.362 . S
C1530 C1533 1.409 . S
C1531 H1523 0.930 . S
C1531 C1532 1.355 . S
C1531 C1533 1.415 . S
C1532 C1531 1.355 . S
C1532 C1534 1.419 . S
C1533 C1528 1.425 . S
C1533 C1530 1.409 . S
C1533 C1531 1.415 . S
C1534 H1524 0.930 . S
C1534 C1532 1.419 . S
C1534 C1535 1.362 . S
C1535 H1525 0.930 . S
C1535 C1528 1.409 . S
C1535 C1534 1.362 . S
H1536 C1542 0.930 . S
H1537 C1545 0.930 . S
H1538 C1546 0.930 . S
H1539 C1547 0.930 . S
H1540 C1550 0.930 . S
H1541 C1551 0.930 . S
C1542 H1536 0.930 . S
C1542 C1543 1.355 . S
C1542 C1544 1.415 . S
C1543 C1542 1.355 . S
C1543 C1545 1.419 . S
C1544 C1542 1.415 . S
C1544 C1549 1.425 . S
C1544 C1551 1.409 . S
C1545 H1537 0.930 . S
C1545 C1543 1.419 . S
C1545 C1546 1.362 . S
C1546 H1538 0.930 . S
C1546 C1545 1.362 . S
C1546 C1549 1.409 . S
C1547 H1539 0.930 . S
C1547 C1548 1.355 . S
C1547 C1549 1.415 . S
C1548 C1547 1.355 . S
C1548 C1550 1.419 . S
C1549 C1544 1.425 . S
C1549 C1546 1.409 . S
C1549 C1547 1.415 . S
C1550 H1540 0.930 . S
C1550 C1548 1.419 . S
C1550 C1551 1.362 . S
C1551 H1541 0.930 . S
C1551 C1544 1.409 . S
C1551 C1550 1.362 . S
H1552 C1558 0.930 . S
H1553 C1561 0.930 . S
H1554 C1562 0.930 . S
H1555 C1563 0.930 . S
H1556 C1566 0.930 . S
H1557 C1567 0.930 . S
C1558 H1552 0.930 . S
C1558 C1559 1.355 . S
C1558 C1560 1.415 . S
C1559 C1558 1.355 . S
C1559 C1561 1.419 . S
C1560 C1558 1.415 . S
C1560 C1565 1.425 . S
C1560 C1567 1.409 . S
C1561 H1553 0.930 . S
C1561 C1559 1.419 . S
C1561 C1562 1.362 . S
C1562 H1554 0.930 . S
C1562 C1561 1.362 . S
C1562 C1565 1.409 . S
C1563 H1555 0.930 . S
C1563 C1564 1.355 . S
C1563 C1565 1.415 . S
C1564 C1563 1.355 . S
C1564 C1566 1.419 . S
C1565 C1560 1.425 . S
C1565 C1562 1.409 . S
C1565 C1563 1.415 . S
C1566 H1556 0.930 . S
C1566 C1564 1.419 . S
C1566 C1567 1.362 . S
C1567 H1557 0.930 . S
C1567 C1560 1.409 . S
C1567 C1566 1.362 . S
H1568 C1574 0.930 . S
H1569 C1577 0.930 . S
H1570 C1578 0.930 . S
H1571 C1579 0.930 . S
H1572 C1582 0.930 . S
H1573 C1583 0.930 . S
C1574 H1568 0.930 . S
C1574 C1575 1.355 . S
C1574 C1576 1.415 . S
C1575 C1574 1.355 . S
C1575 C1577 1.419 . S
C1576 C1574 1.415 . S
C1576 C1581 1.425 . S
C1576 C1583 1.409 . S
C1577 H1569 0.930 . S
C1577 C1575 1.419 . S
C1577 C1578 1.362 . S
C1578 H1570 0.930 . S
C1578 C1577 1.362 . S
C1578 C1581 1.409 . S
C1579 H1571 0.930 . S
C1579 C1580 1.355 . S
C1579 C1581 1.415 . S
C1580 C1579 1.355 . S
C1580 C1582 1.419 . S
C1581 C1576 1.425 . S
C1581 C1578 1.409 . S
C1581 C1579 1.415 . S
C1582 H1572 0.930 . S
C1582 C1580 1.419 . S
C1582 C1583 1.362 . S
C1583 H1573 0.930 . S
C1583 C1576 1.409 . S
C1583 C1582 1.362 . S
H1584 C1590 0.930 . S
H1585 C1593 0.930 . S
H1586 C1594 0.930 . S
H1587 C1595 0.930 . S
H1588 C1598 0.930 . S
H1589 C1599 0.930 . S
C1590 H1584 0.930 . S
C1590 C1591 1.355 . S
C1590 C1592 1.415 . S
C1591 C1590 1.355 . S
C1591 C1593 1.419 . S
C1592 C1590 1.415 . S
C1592 C1597 1.425 . S
C1592 C1599 1.409 . S
C1593 H1585 0.930 . S
C1593 C1591 1.419 . S
C1593 C1594 1.362 . S
C1594 H1586 0.930 . S
C1594 C1593 1.362 . S
C1594 C1597 1.409 . S
C1595 H1587 0.930 . S
C1595 C1596 1.355 . S
C1595 C1597 1.415 . S
C1596 C1595 1.355 . S
C1596 C1598 1.419 . S
C1597 C1592 1.425 . S
C1597 C1594 1.409 . S
C1597 C1595 1.415 . S
C1598 H1588 0.930 . S
C1598 C1596 1.419 . S
C1598 C1599 1.362 . S
C1599 H1589 0.930 . S
C1599 C1592 1.409 . S
C1599 C1598 1.362 . S
H1600 C1606 0.930 . S
H1601 C1609 0.930 . S
H1602 C1610 0.930 . S
H1603 C1611 0.930 . S
H1604 C1614 0.930 . S
H1605 C1615 0.930 . S
C1606 H1600 0.930 . S
C1606 C1607 1.355 . S
C1606 C1608 1.415 . S
C1607 C1606 1.355 . S
C1607 C1609 1.419 . S
C1608 C1606 1.415 . S
C1608 C1613 1.425 . S
C1608 C1615 1.409 . S
C1609 H1601 0.930 . S
C1609 C1607 1.419 . S
C1609 C1610 1.362 . S
C1610 H1602 0.930 . S
C1610 C1609 1.362 . S
C1610 C1613 1.409 . S
C1611 H1603 0.930 . S
C1611 C1612 1.355 . S
C1611 C1613 1.415 . S
C1612 C1611 1.355 . S
C1612 C1614 1.419 . S
C1613 C1608 1.425 . S
C1613 C1610 1.409 . S
C1613 C1611 1.415 . S
C1614 H1604 0.930 . S
C1614 C1612 1.419 . S
C1614 C1615 1.362 . S
C1615 H1605 0.930 . S
C1615 C1608 1.409 . S
C1615 C1614 1.362 . S
H1616 C1622 0.930 . S
H1617 C1625 0.930 . S
H1618 C1626 0.930 . S
H1619 C1627 0.930 . S
H1620 C1630 0.930 . S
H1621 C1631 0.930 . S
C1622 H1616 0.930 . S
C1622 C1623 1.355 . S
C1622 C1624 1.415 . S
C1623 C1622 1.355 . S
C1623 C1625 1.419 . S
C1624 C1622 1.415 . S
C1624 C1629 1.425 . S
C1624 C1631 1.409 . S
C1625 H1617 0.930 . S
C1625 C1623 1.419 . S
C1625 C1626 1.362 . S
C1626 H1618 0.930 . S
C1626 C1625 1.362 . S
C1626 C1629 1.409 . S
C1627 H1619 0.930 . S
C1627 C1628 1.355 . S
C1627 C1629 1.415 . S
C1628 C1627 1.355 . S
C1628 C1630 1.419 . S
C1629 C1624 1.425 . S
C1629 C1626 1.409 . S
C1629 C1627 1.415 . S
C1630 H1620 0.930 . S
C1630 C1628 1.419 . S
C1630 C1631 1.362 . S
C1631 H1621 0.930 . S
C1631 C1624 1.409 . S
C1631 C1630 1.362 . S
H1632 C1638 0.930 . S
H1633 C1641 0.930 . S
H1634 C1642 0.930 . S
H1635 C1643 0.930 . S
H1636 C1646 0.930 . S
H1637 C1647 0.930 . S
C1638 H1632 0.930 . S
C1638 C1639 1.355 . S
C1638 C1640 1.415 . S
C1639 C1638 1.355 . S
C1639 C1641 1.419 . S
C1640 C1638 1.415 . S
C1640 C1645 1.425 . S
C1640 C1647 1.409 . S
C1641 H1633 0.930 . S
C1641 C1639 1.419 . S
C1641 C1642 1.362 . S
C1642 H1634 0.930 . S
C1642 C1641 1.362 . S
C1642 C1645 1.409 . S
C1643 H1635 0.930 . S
C1643 C1644 1.355 . S
C1643 C1645 1.415 . S
C1644 C1643 1.355 . S
C1644 C1646 1.419 . S
C1645 C1640 1.425 . S
C1645 C1642 1.409 . S
C1645 C1643 1.415 . S
C1646 H1636 0.930 . S
C1646 C1644 1.419 . S
C1646 C1647 1.362 . S
C1647 H1637 0.930 . S
C1647 C1640 1.409 . S
C1647 C1646 1.362 . S
H1648 C1654 0.930 . S
H1649 C1657 0.930 . S
H1650 C1658 0.930 . S
H1651 C1659 0.930 . S
H1652 C1662 0.930 . S
H1653 C1663 0.930 . S
C1654 H1648 0.930 . S
C1654 C1655 1.355 . S
C1654 C1656 1.415 . S
C1655 C1654 1.355 . S
C1655 C1657 1.419 . S
C1656 C1654 1.415 . S
C1656 C1661 1.425 . S
C1656 C1663 1.409 . S
C1657 H1649 0.930 . S
C1657 C1655 1.419 . S
C1657 C1658 1.362 . S
C1658 H1650 0.930 . S
C1658 C1657 1.362 . S
C1658 C1661 1.409 . S
C1659 H1651 0.930 . S
C1659 C1660 1.355 . S
C1659 C1661 1.415 . S
C1660 C1659 1.355 . S
C1660 C1662 1.419 . S
C1661 C1656 1.425 . S
C1661 C1658 1.409 . S
C1661 C1659 1.415 . S
C1662 H1652 0.930 . S
C1662 C1660 1.419 . S
C1662 C1663 1.362 . S
C1663 H1653 0.930 . S
C1663 C1656 1.409 . S
C1663 C1662 1.362 . S
H1664 C1670 0.930 . S
H1665 C1673 0.930 . S
H1666 C1674 0.930 . S
H1667 C1675 0.930 . S
H1668 C1678 0.930 . S
H1669 C1679 0.930 . S
C1670 H1664 0.930 . S
C1670 C1671 1.355 . S
C1670 C1672 1.415 . S
C1671 C1670 1.355 . S
C1671 C1673 1.419 . S
C1672 C1670 1.415 . S
C1672 C1677 1.425 . S
C1672 C1679 1.409 . S
C1673 H1665 0.930 . S
C1673 C1671 1.419 . S
C1673 C1674 1.362 . S
C1674 H1666 0.930 . S
C1674 C1673 1.362 . S
C1674 C1677 1.409 . S
C1675 H1667 0.930 . S
C1675 C1676 1.355 . S
C1675 C1677 1.415 . S
C1676 C1675 1.355 . S
C1676 C1678 1.419 . S
C1677 C1672 1.425 . S
C1677 C1674 1.409 . S
C1677 C1675 1.415 . S
C1678 H1668 0.930 . S
C1678 C1676 1.419 . S
C1678 C1679 1.362 . S
C1679 H1669 0.930 . S
C1679 C1672 1.409 . S
C1679 C1678 1.362 . S
H1680 C1686 0.930 . S
H1681 C1689 0.930 . S
H1682 C1690 0.930 . S
H1683 C1691 0.930 . S
H1684 C1694 0.930 . S
H1685 C1695 0.930 . S
C1686 H1680 0.930 . S
C1686 C1687 1.355 . S
C1686 C1688 1.415 . S
C1687 C1686 1.355 . S
C1687 C1689 1.419 . S
C1688 C1686 1.415 . S
C1688 C1693 1.425 . S
C1688 C1695 1.409 . S
C1689 H1681 0.930 . S
C1689 C1687 1.419 . S
C1689 C1690 1.362 . S
C1690 H1682 0.930 . S
C1690 C1689 1.362 . S
C1690 C1693 1.409 . S
C1691 H1683 0.930 . S
C1691 C1692 1.355 . S
C1691 C1693 1.415 . S
C1692 C1691 1.355 . S
C1692 C1694 1.419 . S
C1693 C1688 1.425 . S
C1693 C1690 1.409 . S
C1693 C1691 1.415 . S
C1694 H1684 0.930 . S
C1694 C1692 1.419 . S
C1694 C1695 1.362 . S
C1695 H1685 0.930 . S
C1695 C1688 1.409 . S
C1695 C1694 1.362 . S
H1696 C1702 0.930 . S
H1697 C1705 0.930 . S
H1698 C1706 0.930 . S
H1699 C1707 0.930 . S
H1700 C1710 0.930 . S
H1701 C1711 0.930 . S
C1702 H1696 0.930 . S
C1702 C1703 1.355 . S
C1702 C1704 1.415 . S
C1703 C1702 1.355 . S
C1703 C1705 1.419 . S
C1704 C1702 1.415 . S
C1704 C1709 1.425 . S
C1704 C1711 1.409 . S
C1705 H1697 0.930 . S
C1705 C1703 1.419 . S
C1705 C1706 1.362 . S
C1706 H1698 0.930 . S
C1706 C1705 1.362 . S
C1706 C1709 1.409 . S
C1707 H1699 0.930 . S
C1707 C1708 1.355 . S
C1707 C1709 1.415 . S
C1708 C1707 1.355 . S
C1708 C1710 1.419 . S
C1709 C1704 1.425 . S
C1709 C1706 1.409 . S
C1709 C1707 1.415 . S
C1710 H1700 0.930 . S
C1710 C1708 1.419 . S
C1710 C1711 1.362 . S
C1711 H1701 0.930 . S
C1711 C1704 1.409 . S
C1711 C1710 1.362 . S
H1712 C1718 0.930 . S
H1713 C1721 0.930 . S
H1714 C1722 0.930 . S
H1715 C1723 0.930 . S
H1716 C1726 0.930 . S
H1717 C1727 0.930 . S
C1718 H1712 0.930 . S
C1718 C1719 1.355 . S
C1718 C1720 1.415 . S
C1719 C1718 1.355 . S
C1719 C1721 1.419 . S
C1720 C1718 1.415 . S
C1720 C1725 1.425 . S
C1720 C1727 1.409 . S
C1721 H1713 0.930 . S
C1721 C1719 1.419 . S
C1721 C1722 1.362 . S
C1722 H1714 0.930 . S
C1722 C1721 1.362 . S
C1722 C1725 1.409 . S
C1723 H1715 0.930 . S
C1723 C1724 1.355 . S
C1723 C1725 1.415 . S
C1724 C1723 1.355 . S
C1724 C1726 1.419 . S
C1725 C1720 1.425 . S
C1725 C1722 1.409 . S
C1725 C1723 1.415 . S
C1726 H1716 0.930 . S
C1726 C1724 1.419 . S
C1726 C1727 1.362 . S
C1727 H1717 0.930 . S
C1727 C1720 1.409 . S
C1727 C1726 1.362 . S
H1728 C1734 0.930 . S
H1729 C1737 0.930 . S
H1730 C1738 0.930 . S
H1731 C1739 0.930 . S
H1732 C1742 0.930 . S
H1733 C1743 0.930 . S
C1734 H1728 0.930 . S
C1734 C1735 1.355 . S
C1734 C1736 1.415 . S
C1735 C1734 1.355 . S
C1735 C1737 1.419 . S
C1736 C1734 1.415 . S
C1736 C1741 1.425 . S
C1736 C1743 1.409 . S
C1737 H1729 0.930 . S
C1737 C1735 1.419 . S
C1737 C1738 1.362 . S
C1738 H1730 0.930 . S
C1738 C1737 1.362 . S
C1738 C1741 1.409 . S
C1739 H1731 0.930 . S
C1739 C1740 1.355 . S
C1739 C1741 1.415 . S
C1740 C1739 1.355 . S
C1740 C1742 1.419 . S
C1741 C1736 1.425 . S
C1741 C1738 1.409 . S
C1741 C1739 1.415 . S
C1742 H1732 0.930 . S
C1742 C1740 1.419 . S
C1742 C1743 1.362 . S
C1743 H1733 0.930 . S
C1743 C1736 1.409 . S
C1743 C1742 1.362 . S
H1744 C1750 0.930 . S
H1745 C1753 0.930 . S
H1746 C1754 0.930 . S
H1747 C1755 0.930 . S
H1748 C1758 0.930 . S
H1749 C1759 0.930 . S
C1750 H1744 0.930 . S
C1750 C1751 1.355 . S
C1750 C1752 1.415 . S
C1751 C1750 1.355 . S
C1751 C1753 1.419 . S
C1752 C1750 1.415 . S
C1752 C1757 1.425 . S
C1752 C1759 1.409 . S
C1753 H1745 0.930 . S
C1753 C1751 1.419 . S
C1753 C1754 1.362 . S
C1754 H1746 0.930 . S
C1754 C1753 1.362 . S
C1754 C1757 1.409 . S
C1755 H1747 0.930 . S
C1755 C1756 1.355 . S
C1755 C1757 1.415 . S
C1756 C1755 1.355 . S
C1756 C1758 1.419 . S
C1757 C1752 1.425 . S
C1757 C1754 1.409 . S
C1757 C1755 1.415 . S
C1758 H1748 0.930 . S
C1758 C1756 1.419 . S
C1758 C1759 1.362 . S
C1759 H1749 0.930 . S
C1759 C1752 1.409 . S
C1759 C1758 1.362 . S
H1760 C1766 0.930 . S
H1761 C1769 0.930 . S
H1762 C1770 0.930 . S
H1763 C1771 0.930 . S
H1764 C1774 0.930 . S
H1765 C1775 0.930 . S
C1766 H1760 0.930 . S
C1766 C1767 1.355 . S
C1766 C1768 1.415 . S
C1767 C1766 1.355 . S
C1767 C1769 1.419 . S
C1768 C1766 1.415 . S
C1768 C1773 1.425 . S
C1768 C1775 1.409 . S
C1769 H1761 0.930 . S
C1769 C1767 1.419 . S
C1769 C1770 1.362 . S
C1770 H1762 0.930 . S
C1770 C1769 1.362 . S
C1770 C1773 1.409 . S
C1771 H1763 0.930 . S
C1771 C1772 1.355 . S
C1771 C1773 1.415 . S
C1772 C1771 1.355 . S
C1772 C1774 1.419 . S
C1773 C1768 1.425 . S
C1773 C1770 1.409 . S
C1773 C1771 1.415 . S
C1774 H1764 0.930 . S
C1774 C1772 1.419 . S
C1774 C1775 1.362 . S
C1775 H1765 0.930 . S
C1775 C1768 1.409 . S
C1775 C1774 1.362 . S
H1776 C1782 0.930 . S
H1777 C1785 0.930 . S
H1778 C1786 0.930 . S
H1779 C1787 0.930 . S
H1780 C1790 0.930 . S
H1781 C1791 0.930 . S
C1782 H1776 0.930 . S
C1782 C1783 1.355 . S
C1782 C1784 1.415 . S
C1783 C1782 1.355 . S
C1783 C1785 1.419 . S
C1784 C1782 1.415 . S
C1784 C1789 1.425 . S
C1784 C1791 1.409 . S
C1785 H1777 0.930 . S
C1785 C1783 1.419 . S
C1785 C1786 1.362 . S
C1786 H1778 0.930 . S
C1786 C1785 1.362 . S
C1786 C1789 1.409 . S
C1787 H1779 0.930 . S
C1787 C1788 1.355 . S
C1787 C1789 1.415 . S
C1788 C1787 1.355 . S
C1788 C1790 1.419 . S
C1789 C1784 1.425 . S
C1789 C1786 1.409 . S
C1789 C1787 1.415 . S
C1790 H1780 0.930 . S
C1790 C1788 1.419 . S
C1790 C1791 1.362 . S
C1791 H1781 0.930 . S
C1791 C1784 1.409 . S
C1791 C1790 1.362 . S
H1792 C1798 0.930 . S
H1793 C1801 0.930 . S
H1794 C1802 0.930 . S
H1795 C1803 0.930 . S
H1796 C1806 0.930 . S
H1797 C1807 0.930 . S
C1798 H1792 0.930 . S
C1798 C1799 1.355 . S
C1798 C1800 1.415 . S
C1799 C1798 1.355 . S
C1799 C1801 1.419 . S
C1800 C1798 1.415 . S
C1800 C1805 1.425 . S
C1800 C1807 1.409 . S
C1801 H1793 0.930 . S
C1801 C1799 1.419 . S
C1801 C1802 1.362 . S
C1802 H1794 0.930 . S
C1802 C1801 1.362 . S
C1802 C1805 1.409 . S
C1803 H1795 0.930 . S
C1803 C1804 1.355 . S
C1803 C1805 1.415 . S
C1804 C1803 1.355 . S
C1804 C1806 1.419 . S
C1805 C1800 1.425 . S
C1805 C1802 1.409 . S
C1805 C1803 1.415 . S
C1806 H1796 0.930 . S
C1806 C1804 1.419 . S
C1806 C1807 1.362 . S
C1807 H1797 0.930 . S
C1807 C1800 1.409 . S
C1807 C1806 1.362 . S
H1808 C1814 0.930 . S
H1809 C1817 0.930 . S
H1810 C1818 0.930 . S
H1811 C1819 0.930 . S
H1812 C1822 0.930 . S
H1813 C1823 0.930 . S
C1814 H1808 0.930 . S
C1814 C1815 1.355 . S
C1814 C1816 1.415 . S
C1815 C1814 1.355 . S
C1815 C1817 1.419 . S
C1816 C1814 1.415 . S
C1816 C1821 1.425 . S
C1816 C1823 1.409 . S
C1817 H1809 0.930 . S
C1817 C1815 1.419 . S
C1817 C1818 1.362 . S
C1818 H1810 0.930 . S
C1818 C1817 1.362 . S
C1818 C1821 1.409 . S
C1819 H1811 0.930 . S
C1819 C1820 1.355 . S
C1819 C1821 1.415 . S
C1820 C1819 1.355 . S
C1820 C1822 1.419 . S
C1821 C1816 1.425 . S
C1821 C1818 1.409 . S
C1821 C1819 1.415 . S
C1822 H1812 0.930 . S
C1822 C1820 1.419 . S
C1822 C1823 1.362 . S
C1823 H1813 0.930 . S
C1823 C1816 1.409 . S
C1823 C1822 1.362 . S
H1824 C1830 0.930 . S
H1825 C1833 0.930 . S
H1826 C1834 0.930 . S
H1827 C1835 0.930 . S
H1828 C1838 0.930 . S
H1829 C1839 0.930 . S
C1830 H1824 0.930 . S
C1830 C1831 1.355 . S
C1830 C1832 1.415 . S
C1831 C1830 1.355 . S
C1831 C1833 1.419 . S
C1832 C1830 1.415 . S
C1832 C1837 1.425 . S
C1832 C1839 1.409 . S
C1833 H1825 0.930 . S
C1833 C1831 1.419 . S
C1833 C1834 1.362 . S
C1834 H1826 0.930 . S
C1834 C1833 1.362 . S
C1834 C1837 1.409 . S
C1835 H1827 0.930 . S
C1835 C1836 1.355 . S
C1835 C1837 1.415 . S
C1836 C1835 1.355 . S
C1836 C1838 1.419 . S
C1837 C1832 1.425 . S
C1837 C1834 1.409 . S
C1837 C1835 1.415 . S
C1838 H1828 0.930 . S
C1838 C1836 1.419 . S
C1838 C1839 1.362 . S
C1839 H1829 0.930 . S
C1839 C1832 1.409 . S
C1839 C1838 1.362 . S
H1840 C1846 0.930 . S
H1841 C1849 0.930 . S
H1842 C1850 0.917 1_545 S
H1843 C1851 0.930 . S
H1844 C1854 0.930 . S
H1845 C1855 0.917 1_465 S
C1846 H1840 0.930 . S
C1846 C1847 1.355 . S
C1846 C1848 1.415 . S
C1847 C1846 1.355 . S
C1847 C1849 1.419 . S
C1848 C1846 1.415 . S
C1848 C1853 1.425 1_565 S
C1848 C1855 1.402 1_565 S
C1849 H1841 0.930 . S
C1849 C1847 1.419 . S
C1849 C1850 1.383 . S
C1850 H1842 0.917 1_565 S
C1850 C1849 1.383 . S
C1850 C1853 1.402 1_565 S
C1851 H1843 0.930 . S
C1851 C1852 1.355 . S
C1851 C1853 1.415 . S
C1852 C1851 1.355 . S
C1852 C1854 1.419 . S
C1853 C1848 1.425 1_545 S
C1853 C1850 1.402 1_545 S
C1853 C1851 1.415 . S
C1854 H1844 0.930 . S
C1854 C1852 1.419 . S
C1854 C1855 1.383 . S
C1855 H1845 0.917 1_645 S
C1855 C1848 1.402 1_545 S
C1855 C1854 1.383 . S
H1856 C1862 0.930 . S
H1857 C1865 0.930 . S
H1858 C1866 0.930 . S
H1859 C1867 0.930 . S
H1860 C1870 0.930 . S
H1861 C1871 0.930 . S
C1862 H1856 0.930 . S
C1862 C1863 1.355 . S
C1862 C1864 1.415 . S
C1863 C1862 1.355 . S
C1863 C1865 1.419 . S
C1864 C1862 1.415 . S
C1864 C1869 1.425 . S
C1864 C1871 1.409 . S
C1865 H1857 0.930 . S
C1865 C1863 1.419 . S
C1865 C1866 1.362 . S
C1866 H1858 0.930 . S
C1866 C1865 1.362 . S
C1866 C1869 1.409 . S
C1867 H1859 0.930 . S
C1867 C1868 1.355 . S
C1867 C1869 1.415 . S
C1868 C1867 1.355 . S
C1868 C1870 1.419 . S
C1869 C1864 1.425 . S
C1869 C1866 1.409 . S
C1869 C1867 1.415 . S
C1870 H1860 0.930 . S
C1870 C1868 1.419 . S
C1870 C1871 1.362 . S
C1871 H1861 0.930 . S
C1871 C1864 1.409 . S
C1871 C1870 1.362 . S
H1872 C1878 0.930 . S
H1873 C1881 0.930 . S
H1874 C1882 0.930 . S
H1875 C1883 0.930 . S
H1876 C1886 0.930 . S
H1877 C1887 0.930 . S
C1878 H1872 0.930 . S
C1878 C1879 1.355 . S
C1878 C1880 1.415 . S
C1879 C1878 1.355 . S
C1879 C1881 1.419 . S
C1880 C1878 1.415 . S
C1880 C1885 1.425 . S
C1880 C1887 1.409 . S
C1881 H1873 0.930 . S
C1881 C1879 1.419 . S
C1881 C1882 1.362 . S
C1882 H1874 0.930 . S
C1882 C1881 1.362 . S
C1882 C1885 1.409 . S
C1883 H1875 0.930 . S
C1883 C1884 1.355 . S
C1883 C1885 1.415 . S
C1884 C1883 1.355 . S
C1884 C1886 1.419 . S
C1885 C1880 1.425 . S
C1885 C1882 1.409 . S
C1885 C1883 1.415 . S
C1886 H1876 0.930 . S
C1886 C1884 1.419 . S
C1886 C1887 1.362 . S
C1887 H1877 0.930 . S
C1887 C1880 1.409 . S
C1887 C1886 1.362 . S
H1888 C1894 0.930 . S
H1889 C1897 0.930 . S
H1890 C1898 0.936 1_545 S
H1891 C1899 0.930 . S
H1892 C1902 0.930 . S
H1893 C1903 0.936 . S
C1894 H1888 0.930 . S
C1894 C1895 1.355 . S
C1894 C1896 1.415 . S
C1895 C1894 1.355 . S
C1895 C1897 1.419 . S
C1896 C1894 1.415 . S
C1896 C1901 1.425 1_556 S
C1896 C1903 1.412 . S
C1897 H1889 0.930 . S
C1897 C1895 1.419 . S
C1897 C1898 1.354 1_556 S
C1898 H1890 0.936 1_565 S
C1898 C1897 1.354 1_554 S
C1898 C1901 1.412 . S
C1899 H1891 0.930 . S
C1899 C1900 1.355 . S
C1899 C1901 1.415 . S
C1900 C1899 1.355 . S
C1900 C1902 1.419 . S
C1901 C1896 1.425 1_554 S
C1901 C1898 1.412 . S
C1901 C1899 1.415 . S
C1902 H1892 0.930 . S
C1902 C1900 1.419 . S
C1902 C1903 1.354 1_554 S
C1903 H1893 0.936 . S
C1903 C1896 1.412 . S
C1903 C1902 1.354 1_556 S
H1904 C1910 0.930 . S
H1905 C1913 0.930 . S
H1906 C1914 0.930 . S
H1907 C1915 0.930 . S
H1908 C1918 0.930 . S
H1909 C1919 0.930 . S
C1910 H1904 0.930 . S
C1910 C1911 1.355 . S
C1910 C1912 1.415 . S
C1911 C1910 1.355 . S
C1911 C1913 1.419 . S
C1912 C1910 1.415 . S
C1912 C1917 1.425 1_554 S
C1912 C1919 1.409 . S
C1913 H1905 0.930 . S
C1913 C1911 1.419 . S
C1913 C1914 1.362 1_554 S
C1914 H1906 0.930 . S
C1914 C1913 1.362 1_556 S
C1914 C1917 1.409 . S
C1915 H1907 0.930 . S
C1915 C1916 1.355 . S
C1915 C1917 1.415 . S
C1916 C1915 1.355 . S
C1916 C1918 1.419 . S
C1917 C1912 1.425 1_556 S
C1917 C1914 1.409 . S
C1917 C1915 1.415 . S
C1918 H1908 0.930 . S
C1918 C1916 1.419 . S
C1918 C1919 1.362 1_556 S
C1919 H1909 0.930 . S
C1919 C1912 1.409 . S
C1919 C1918 1.362 1_554 S
H1920 C1926 0.930 . S
H1921 C1929 0.930 . S
H1922 C1930 0.930 . S
H1923 C1931 0.930 . S
H1924 C1934 0.930 . S
H1925 C1935 0.930 . S
C1926 H1920 0.930 . S
C1926 C1927 1.355 . S
C1926 C1928 1.415 . S
C1927 C1926 1.355 . S
C1927 C1929 1.419 . S
C1928 C1926 1.415 . S
C1928 C1933 1.425 . S
C1928 C1935 1.409 . S
C1929 H1921 0.930 . S
C1929 C1927 1.419 . S
C1929 C1930 1.362 . S
C1930 H1922 0.930 . S
C1930 C1929 1.362 . S
C1930 C1933 1.409 . S
C1931 H1923 0.930 . S
C1931 C1932 1.355 . S
C1931 C1933 1.415 . S
C1932 C1931 1.355 . S
C1932 C1934 1.419 . S
C1933 C1928 1.425 . S
C1933 C1930 1.409 . S
C1933 C1931 1.415 . S
C1934 H1924 0.930 . S
C1934 C1932 1.419 . S
C1934 C1935 1.362 . S
C1935 H1925 0.930 . S
C1935 C1928 1.409 . S
C1935 C1934 1.362 . S
H1936 C1942 0.930 . S
H1937 C1945 0.930 . S
H1938 C1946 0.930 . S
H1939 C1947 0.930 . S
H1940 C1950 0.930 . S
H1941 C1951 0.930 . S
C1942 H1936 0.930 . S
C1942 C1943 1.355 . S
C1942 C1944 1.415 . S
C1943 C1942 1.355 . S
C1943 C1945 1.419 . S
C1944 C1942 1.415 . S
C1944 C1949 1.425 . S
C1944 C1951 1.409 . S
C1945 H1937 0.930 . S
C1945 C1943 1.419 . S
C1945 C1946 1.362 . S
C1946 H1938 0.930 . S
C1946 C1945 1.362 . S
C1946 C1949 1.409 . S
C1947 H1939 0.930 . S
C1947 C1948 1.355 . S
C1947 C1949 1.415 . S
C1948 C1947 1.355 . S
C1948 C1950 1.419 . S
C1949 C1944 1.425 . S
C1949 C1946 1.409 . S
C1949 C1947 1.415 . S
C1950 H1940 0.930 . S
C1950 C1948 1.419 . S
C1950 C1951 1.362 . S
C1951 H1941 0.930 . S
C1951 C1944 1.409 . S
C1951 C1950 1.362 . S
H1952 C1958 0.930 . S
H1953 C1961 0.930 . S
H1954 C1962 0.930 . S
H1955 C1963 0.930 . S
H1956 C1966 0.930 . S
H1957 C1967 0.930 . S
C1958 H1952 0.930 . S
C1958 C1959 1.355 . S
C1958 C1960 1.415 . S
C1959 C1958 1.355 . S
C1959 C1961 1.419 . S
C1960 C1958 1.415 . S
C1960 C1965 1.425 1_455 S
C1960 C1967 1.409 . S
C1961 H1953 0.930 . S
C1961 C1959 1.419 . S
C1961 C1962 1.362 1_455 S
C1962 H1954 0.930 . S
C1962 C1961 1.362 1_655 S
C1962 C1965 1.409 . S
C1963 H1955 0.930 . S
C1963 C1964 1.355 . S
C1963 C1965 1.415 . S
C1964 C1963 1.355 . S
C1964 C1966 1.419 . S
C1965 C1960 1.425 1_655 S
C1965 C1962 1.409 . S
C1965 C1963 1.415 . S
C1966 H1956 0.930 . S
C1966 C1964 1.419 . S
C1966 C1967 1.362 1_655 S
C1967 H1957 0.930 . S
C1967 C1960 1.409 . S
C1967 C1966 1.362 1_455 S
H1968 C1974 0.930 . S
H1969 C1977 0.930 . S
H1970 C1978 0.930 . S
H1971 C1979 0.930 . S
H1972 C1982 0.930 . S
H1973 C1983 0.930 . S
C1974 H1968 0.930 . S
C1974 C1975 1.355 . S
C1974 C1976 1.415 . S
C1975 C1974 1.355 . S
C1975 C1977 1.419 . S
C1976 C1974 1.415 . S
C1976 C1981 1.425 . S
C1976 C1983 1.409 . S
C1977 H1969 0.930 . S
C1977 C1975 1.419 . S
C1977 C1978 1.362 . S
C1978 H1970 0.930 . S
C1978 C1977 1.362 . S
C1978 C1981 1.409 . S
C1979 H1971 0.930 . S
C1979 C1980 1.355 . S
C1979 C1981 1.415 . S
C1980 C1979 1.355 . S
C1980 C1982 1.419 . S
C1981 C1976 1.425 . S
C1981 C1978 1.409 . S
C1981 C1979 1.415 . S
C1982 H1972 0.930 . S
C1982 C1980 1.419 . S
C1982 C1983 1.362 . S
C1983 H1973 0.930 . S
C1983 C1976 1.409 . S
C1983 C1982 1.362 . S
H1984 C1990 0.930 . S
H1985 C1993 0.925 1_655 S
H1986 C1994 0.930 1_665 S
H1987 C1995 0.930 . S
H1988 C1998 0.930 . S
H1989 C1999 0.930 1_545 S
C1990 H1984 0.930 . S
C1990 C1991 1.355 . S
C1990 C1992 1.415 . S
C1991 C1990 1.355 . S
C1991 C1993 1.419 . S
C1992 C1990 1.415 . S
C1992 C1997 1.425 1_545 S
C1992 C1999 1.409 1_545 S
C1993 H1985 0.925 1_455 S
C1993 C1991 1.419 . S
C1993 C1994 1.362 . S
C1994 H1986 0.930 1_445 S
C1994 C1993 1.362 . S
C1994 C1997 1.409 1_545 S
C1995 H1987 0.930 . S
C1995 C1996 1.355 . S
C1995 C1997 1.415 . S
C1996 C1995 1.355 . S
C1996 C1998 1.419 . S
C1997 C1992 1.425 1_565 S
C1997 C1994 1.409 1_565 S
C1997 C1995 1.415 . S
C1998 H1988 0.930 . S
C1998 C1996 1.419 . S
C1998 C1999 1.362 . S
C1999 H1989 0.930 1_565 S
C1999 C1992 1.409 1_565 S
C1999 C1998 1.362 . S
H2000 C2006 0.930 . S
H2001 C2009 0.930 . S
H2002 C2010 0.930 . S
H2003 C2011 0.930 . S
H2004 C2014 0.930 . S
H2005 C2015 0.930 . S
C2006 H2000 0.930 . S
C2006 C2007 1.355 . S
C2006 C2008 1.415 . S
C2007 C2006 1.355 . S
C2007 C2009 1.419 . S
C2008 C2006 1.415 . S
C2008 C2013 1.425 . S
C2008 C2015 1.409 . S
C2009 H2001 0.930 . S
C2009 C2007 1.419 . S
C2009 C2010 1.362 . S
C2010 H2002 0.930 . S
C2010 C2009 1.362 . S
C2010 C2013 1.409 . S
C2011 H2003 0.930 . S
C2011 C2012 1.355 . S
C2011 C2013 1.415 . S
C2012 C2011 1.355 . S
C2012 C2014 1.419 . S
C2013 C2008 1.425 . S
C2013 C2010 1.409 . S
C2013 C2011 1.415 . S
C2014 H2004 0.930 . S
C2014 C2012 1.419 . S
C2014 C2015 1.362 . S
C2015 H2005 0.930 . S
C2015 C2008 1.409 . S
C2015 C2014 1.362 . S
H2016 C2022 0.930 . S
H2017 C2025 0.930 . S
H2018 C2026 0.930 . S
H2019 C2027 0.930 . S
H2020 C2030 0.930 . S
H2021 C2031 0.930 . S
C2022 H2016 0.930 . S
C2022 C2023 1.355 . S
C2022 C2024 1.415 . S
C2023 C2022 1.355 . S
C2023 C2025 1.419 . S
C2024 C2022 1.415 . S
C2024 C2029 1.425 . S
C2024 C2031 1.409 . S
C2025 H2017 0.930 . S
C2025 C2023 1.419 . S
C2025 C2026 1.362 . S
C2026 H2018 0.930 . S
C2026 C2025 1.362 . S
C2026 C2029 1.409 . S
C2027 H2019 0.930 . S
C2027 C2028 1.355 . S
C2027 C2029 1.415 . S
C2028 C2027 1.355 . S
C2028 C2030 1.419 . S
C2029 C2024 1.425 . S
C2029 C2026 1.409 . S
C2029 C2027 1.415 . S
C2030 H2020 0.930 . S
C2030 C2028 1.419 . S
C2030 C2031 1.362 . S
C2031 H2021 0.930 . S
C2031 C2024 1.409 . S
C2031 C2030 1.362 . S
H2032 C2038 0.930 . S
H2033 C2041 0.930 1_565 S
H2034 C2042 0.930 1_565 S
H2035 C2043 0.930 . S
H2036 C2046 0.930 . S
H2037 C2047 0.930 . S
C2038 H2032 0.930 . S
C2038 C2039 1.355 . S
C2038 C2040 1.415 . S
C2039 C2038 1.355 . S
C2039 C2041 1.419 . S
C2040 C2038 1.415 . S
C2040 C2045 1.425 1_556 S
C2040 C2047 1.409 1_556 S
C2041 H2033 0.930 1_545 S
C2041 C2039 1.419 . S
C2041 C2042 1.362 . S
C2042 H2034 0.930 1_545 S
C2042 C2041 1.362 . S
C2042 C2045 1.409 1_556 S
C2043 H2035 0.930 . S
C2043 C2044 1.355 . S
C2043 C2045 1.415 . S
C2044 C2043 1.355 . S
C2044 C2046 1.419 . S
C2045 C2040 1.425 1_554 S
C2045 C2042 1.409 1_554 S
C2045 C2043 1.415 . S
C2046 H2036 0.930 . S
C2046 C2044 1.419 . S
C2046 C2047 1.362 . S
C2047 H2037 0.930 . S
C2047 C2040 1.409 1_554 S
C2047 C2046 1.362 . S
H2048 C2054 0.930 . S
H2049 C2057 0.930 . S
H2050 C2058 0.930 . S
H2051 C2059 0.930 . S
H2052 C2062 0.930 . S
H2053 C2063 0.930 . S
C2054 H2048 0.930 . S
C2054 C2055 1.355 . S
C2054 C2056 1.415 . S
C2055 C2054 1.355 . S
C2055 C2057 1.419 . S
C2056 C2054 1.415 . S
C2056 C2061 1.425 1_556 S
C2056 C2063 1.409 1_556 S
C2057 H2049 0.930 . S
C2057 C2055 1.419 . S
C2057 C2058 1.362 . S
C2058 H2050 0.930 . S
C2058 C2057 1.362 . S
C2058 C2061 1.409 1_556 S
C2059 H2051 0.930 . S
C2059 C2060 1.355 . S
C2059 C2061 1.415 . S
C2060 C2059 1.355 . S
C2060 C2062 1.419 . S
C2061 C2056 1.425 1_554 S
C2061 C2058 1.409 1_554 S
C2061 C2059 1.415 . S
C2062 H2052 0.930 . S
C2062 C2060 1.419 . S
C2062 C2063 1.362 . S
C2063 H2053 0.930 . S
C2063 C2056 1.409 1_554 S
C2063 C2062 1.362 . S
H2064 C2070 0.930 . S
H2065 C2073 0.930 1_554 S
H2066 C2074 0.930 1_554 S
H2067 C2075 0.930 . S
H2068 C2078 0.930 . S
H2069 C2079 0.930 . S
C2070 H2064 0.930 . S
C2070 C2071 1.355 . S
C2070 C2072 1.415 . S
C2071 C2070 1.355 . S
C2071 C2073 1.419 . S
C2072 C2070 1.415 . S
C2072 C2077 1.425 . S
C2072 C2079 1.409 . S
C2073 H2065 0.930 1_556 S
C2073 C2071 1.419 . S
C2073 C2074 1.362 . S
C2074 H2066 0.930 1_556 S
C2074 C2073 1.362 . S
C2074 C2077 1.409 . S
C2075 H2067 0.930 . S
C2075 C2076 1.355 . S
C2075 C2077 1.415 . S
C2076 C2075 1.355 . S
C2076 C2078 1.419 . S
C2077 C2072 1.425 . S
C2077 C2074 1.409 . S
C2077 C2075 1.415 . S
C2078 H2068 0.930 . S
C2078 C2076 1.419 . S
C2078 C2079 1.362 . S
C2079 H2069 0.930 . S
C2079 C2072 1.409 . S
C2079 C2078 1.362 . S
H2080 C2086 0.930 . S
H2081 C2089 0.930 . S
H2082 C2090 0.930 . S
H2083 C2091 0.930 . S
H2084 C2094 0.930 . S
H2085 C2095 0.930 . S
C2086 H2080 0.930 . S
C2086 C2087 1.355 . S
C2086 C2088 1.415 . S
C2087 C2086 1.355 . S
C2087 C2089 1.419 . S
C2088 C2086 1.415 . S
C2088 C2093 1.425 . S
C2088 C2095 1.409 . S
C2089 H2081 0.930 . S
C2089 C2087 1.419 . S
C2089 C2090 1.362 . S
C2090 H2082 0.930 . S
C2090 C2089 1.362 . S
C2090 C2093 1.409 . S
C2091 H2083 0.930 . S
C2091 C2092 1.355 . S
C2091 C2093 1.415 . S
C2092 C2091 1.355 . S
C2092 C2094 1.419 . S
C2093 C2088 1.425 . S
C2093 C2090 1.409 . S
C2093 C2091 1.415 . S
C2094 H2084 0.930 . S
C2094 C2092 1.419 . S
C2094 C2095 1.362 . S
C2095 H2085 0.930 . S
C2095 C2088 1.409 . S
C2095 C2094 1.362 . S
H2096 C2102 0.930 . S
H2097 C2105 0.930 . S
H2098 C2106 0.930 . S
H2099 C2107 0.930 . S
H2100 C2110 0.930 . S
H2101 C2111 0.930 . S
C2102 H2096 0.930 . S
C2102 C2103 1.355 . S
C2102 C2104 1.415 1_655 S
C2103 C2102 1.355 . S
C2103 C2105 1.419 . S
C2104 C2102 1.415 1_455 S
C2104 C2109 1.425 1_455 S
C2104 C2111 1.409 . S
C2105 H2097 0.930 . S
C2105 C2103 1.419 . S
C2105 C2106 1.362 . S
C2106 H2098 0.930 . S
C2106 C2105 1.362 . S
C2106 C2109 1.409 . S
C2107 H2099 0.930 . S
C2107 C2108 1.355 . S
C2107 C2109 1.415 1_455 S
C2108 C2107 1.355 . S
C2108 C2110 1.419 . S
C2109 C2104 1.425 1_655 S
C2109 C2106 1.409 . S
C2109 C2107 1.415 1_655 S
C2110 H2100 0.930 . S
C2110 C2108 1.419 . S
C2110 C2111 1.362 . S
C2111 H2101 0.930 . S
C2111 C2104 1.409 . S
C2111 C2110 1.362 . S
H2112 C2118 0.930 . S
H2113 C2121 0.930 . S
H2114 C2122 0.940 . S
H2115 C2123 0.930 . S
H2116 C2126 0.930 . S
H2117 C2127 0.940 . S
C2118 H2112 0.930 . S
C2118 C2119 1.355 . S
C2118 C2120 1.415 . S
C2119 C2118 1.355 . S
C2119 C2121 1.419 . S
C2120 C2118 1.415 . S
C2120 C2125 1.425 1_545 S
C2120 C2127 1.409 1_545 S
C2121 H2113 0.930 . S
C2121 C2119 1.419 . S
C2121 C2122 1.362 . S
C2122 H2114 0.940 . S
C2122 C2121 1.362 . S
C2122 C2125 1.409 1_545 S
C2123 H2115 0.930 . S
C2123 C2124 1.355 . S
C2123 C2125 1.415 . S
C2124 C2123 1.355 . S
C2124 C2126 1.419 . S
C2125 C2120 1.425 1_565 S
C2125 C2122 1.409 1_565 S
C2125 C2123 1.415 . S
C2126 H2116 0.930 . S
C2126 C2124 1.419 . S
C2126 C2127 1.362 . S
C2127 H2117 0.940 . S
C2127 C2120 1.409 1_565 S
C2127 C2126 1.362 . S
H2128 C2134 0.930 . S
H2129 C2137 0.930 . S
H2130 C2138 0.930 . S
H2131 C2139 0.930 . S
H2132 C2142 0.930 . S
H2133 C2143 0.930 . S
C2134 H2128 0.930 . S
C2134 C2135 1.355 . S
C2134 C2136 1.415 . S
C2135 C2134 1.355 . S
C2135 C2137 1.419 . S
C2136 C2134 1.415 . S
C2136 C2141 1.425 . S
C2136 C2143 1.409 . S
C2137 H2129 0.930 . S
C2137 C2135 1.419 . S
C2137 C2138 1.362 . S
C2138 H2130 0.930 . S
C2138 C2137 1.362 . S
C2138 C2141 1.409 . S
C2139 H2131 0.930 . S
C2139 C2140 1.355 . S
C2139 C2141 1.415 . S
C2140 C2139 1.355 . S
C2140 C2142 1.419 . S
C2141 C2136 1.425 . S
C2141 C2138 1.409 . S
C2141 C2139 1.415 . S
C2142 H2132 0.930 . S
C2142 C2140 1.419 . S
C2142 C2143 1.362 . S
C2143 H2133 0.930 . S
C2143 C2136 1.409 . S
C2143 C2142 1.362 . S
H2144 C2150 0.930 . S
H2145 C2153 0.930 . S
H2146 C2154 0.930 . S
H2147 C2155 0.930 . S
H2148 C2158 0.930 . S
H2149 C2159 0.930 . S
C2150 H2144 0.930 . S
C2150 C2151 1.355 . S
C2150 C2152 1.415 . S
C2151 C2150 1.355 . S
C2151 C2153 1.419 . S
C2152 C2150 1.415 . S
C2152 C2157 1.425 1_455 S
C2152 C2159 1.409 . S
C2153 H2145 0.930 . S
C2153 C2151 1.419 . S
C2153 C2154 1.362 1_455 S
C2154 H2146 0.930 . S
C2154 C2153 1.362 1_655 S
C2154 C2157 1.409 . S
C2155 H2147 0.930 . S
C2155 C2156 1.355 . S
C2155 C2157 1.415 . S
C2156 C2155 1.355 . S
C2156 C2158 1.419 . S
C2157 C2152 1.425 1_655 S
C2157 C2154 1.409 . S
C2157 C2155 1.415 . S
C2158 H2148 0.930 . S
C2158 C2156 1.419 . S
C2158 C2159 1.362 1_655 S
C2159 H2149 0.930 . S
C2159 C2152 1.409 . S
C2159 C2158 1.362 1_455 S
H2160 C2166 0.930 . S
H2161 C2169 0.930 . S
H2162 C2170 0.930 . S
H2163 C2171 0.930 . S
H2164 C2174 0.930 . S
H2165 C2175 0.930 . S
C2166 H2160 0.930 . S
C2166 C2167 1.355 . S
C2166 C2168 1.415 1_545 S
C2167 C2166 1.355 . S
C2167 C2169 1.419 . S
C2168 C2166 1.415 1_565 S
C2168 C2173 1.425 1_565 S
C2168 C2175 1.409 . S
C2169 H2161 0.930 . S
C2169 C2167 1.419 . S
C2169 C2170 1.362 . S
C2170 H2162 0.930 . S
C2170 C2169 1.362 . S
C2170 C2173 1.409 . S
C2171 H2163 0.930 . S
C2171 C2172 1.355 . S
C2171 C2173 1.415 1_565 S
C2172 C2171 1.355 . S
C2172 C2174 1.419 . S
C2173 C2168 1.425 1_545 S
C2173 C2170 1.409 . S
C2173 C2171 1.415 1_545 S
C2174 H2164 0.930 . S
C2174 C2172 1.419 . S
C2174 C2175 1.362 . S
C2175 H2165 0.930 . S
C2175 C2168 1.409 . S
C2175 C2174 1.362 . S
H2176 C2182 0.930 . S
H2177 C2185 0.930 . S
H2178 C2186 0.930 . S
H2179 C2187 0.930 . S
H2180 C2190 0.930 . S
H2181 C2191 0.930 . S
C2182 H2176 0.930 . S
C2182 C2183 1.355 . S
C2182 C2184 1.415 . S
C2183 C2182 1.355 . S
C2183 C2185 1.419 . S
C2184 C2182 1.415 . S
C2184 C2189 1.425 . S
C2184 C2191 1.409 . S
C2185 H2177 0.930 . S
C2185 C2183 1.419 . S
C2185 C2186 1.362 . S
C2186 H2178 0.930 . S
C2186 C2185 1.362 . S
C2186 C2189 1.409 . S
C2187 H2179 0.930 . S
C2187 C2188 1.355 . S
C2187 C2189 1.415 . S
C2188 C2187 1.355 . S
C2188 C2190 1.419 . S
C2189 C2184 1.425 . S
C2189 C2186 1.409 . S
C2189 C2187 1.415 . S
C2190 H2180 0.930 . S
C2190 C2188 1.419 . S
C2190 C2191 1.362 . S
C2191 H2181 0.930 . S
C2191 C2184 1.409 . S
C2191 C2190 1.362 . S
H2192 C2198 0.930 . S
H2193 C2201 0.930 . S
H2194 C2202 0.930 . S
H2195 C2203 0.930 . S
H2196 C2206 0.930 . S
H2197 C2207 0.930 1_556 S
C2198 H2192 0.930 . S
C2198 C2199 1.355 . S
C2198 C2200 1.415 . S
C2199 C2198 1.355 . S
C2199 C2201 1.419 . S
C2200 C2198 1.415 . S
C2200 C2205 1.425 1_455 S
C2200 C2207 1.409 . S
C2201 H2193 0.930 . S
C2201 C2199 1.419 . S
C2201 C2202 1.362 1_455 S
C2202 H2194 0.930 . S
C2202 C2201 1.362 1_655 S
C2202 C2205 1.409 . S
C2203 H2195 0.930 . S
C2203 C2204 1.355 . S
C2203 C2205 1.415 . S
C2204 C2203 1.355 . S
C2204 C2206 1.419 . S
C2205 C2200 1.425 1_655 S
C2205 C2202 1.409 . S
C2205 C2203 1.415 . S
C2206 H2196 0.930 . S
C2206 C2204 1.419 . S
C2206 C2207 1.362 1_655 S
C2207 H2197 0.930 1_554 S
C2207 C2200 1.409 . S
C2207 C2206 1.362 1_455 S
C679 C20 1.916 . S
C684 C6 1.909 . S
C695 C34 1.924 . S
C700 C48 1.900 . S
C711 C90 1.913 . S
C716 C62 1.912 . S
C727 C104 1.911 . S
C732 C76 1.913 . S
C743 C118 1.897 . S
C748 C482 1.927 . S
C759 C132 1.891 . S
C764 C160 1.933 . S
C775 C454 1.902 . S
C780 C146 1.922 . S
C791 C188 1.930 . S
C796 C174 1.894 . S
C807 C216 1.928 . S
C812 C202 1.897 . S
C823 C258 1.924 . S
C828 C230 1.900 . S
C839 C272 1.925 . S
C844 C244 1.900 . S
C855 C286 1.927 . S
C860 C650 1.897 . S
C871 C300 1.910 . S
C876 C328 1.914 . S
C887 C622 1.909 . S
C892 C314 1.916 . S
C903 C342 1.903 . S
C908 C356 1.921 . S
C919 C384 1.899 . S
C924 C370 1.925 . S
C935 C398 1.917 . S
C940 C426 1.907 . S
C951 C440 1.933 . S
C956 C412 1.891 . S
C967 C496 1.905 . S
C972 C468 1.920 . S
C983 C524 1.933 . S
C988 C510 1.891 . S
C999 C538 1.933 . S
C1004 C552 1.892 . S
C1015 C594 1.893 . S
C1020 C566 1.931 . S
C1031 C580 1.931 . S
C1036 C608 1.893 . S
C1047 C636 1.896 . S
C1052 C664 1.928 . S
C1063 C623 1.412 . S
C1068 C8 1.607 . S
C1079 C329 1.441 . S
C1084 C22 1.606 . S
C1095 C637 1.486 . S
C1100 C36 1.601 . S
C1111 C50 1.606 . S
C1116 C651 1.371 . S
C1127 C64 1.601 . S
C1132 C511 1.423 . S
C1143 C525 1.470 . S
C1148 C78 1.604 . S
C1159 C92 1.607 . S
C1164 C539 1.370 . S
C1175 C553 1.392 . S
C1180 C106 1.603 . S
C1191 C567 1.484 . S
C1196 C120 1.600 . S
C1207 C134 1.608 . S
C1212 C595 1.387 . S
C1223 C609 1.370 . S
C1228 C148 1.607 . S
C1239 C162 1.608 . S
C1244 C245 1.379 . S
C1255 C176 1.601 . S
C1260 C455 1.486 . S
C1271 C190 1.607 . S
C1276 C161 1.372 . S
C1287 C204 1.602 . S
C1292 C469 1.411 . S
C1303 C218 1.604 . S
C1308 C483 1.388 . S
C1319 C343 1.445 . S
C1324 C232 1.606 . S
C1335 C357 1.417 . S
C1340 C246 1.607 . S
C1351 C260 1.608 . S
C1356 C371 1.383 . S
C1367 C274 1.602 . S
C1372 C385 1.411 . S
C1383 C288 1.606 . S
C1388 C399 1.444 . S
C1399 C302 1.600 . S
C1404 C427 1.485 . S
C1415 C441 1.437 . S
C1420 C316 1.606 . S
C1431 C77 1.380 . S
C1436 C330 1.604 . S
C1447 C344 1.603 . S
C1452 C287 1.477 . S
C1463 C358 1.601 . S
C1468 C665 1.436 . S
C1479 C372 1.600 . S
C1484 C301 1.484 . S
C1495 C386 1.603 . S
C1500 C315 1.480 . S
C1511 C175 1.415 . S
C1516 C400 1.607 . S
C1527 C414 1.607 . S
C1532 C189 1.375 . S
C1543 C203 1.396 . S
C1548 C428 1.608 . S
C1559 C217 1.397 . S
C1564 C442 1.608 . S
C1575 C231 1.399 . S
C1580 C456 1.608 . S
C1591 C259 1.374 . S
C1596 C470 1.605 . S
C1607 C484 1.603 . S
C1612 C273 1.391 . S
C1623 C498 1.600 . S
C1628 C581 1.475 . S
C1639 C119 1.425 . S
C1644 C512 1.601 . S
C1655 C526 1.607 . S
C1660 C497 1.415 . S
C1671 C540 1.607 . S
C1676 C133 1.413 . S
C1687 C147 1.435 . S
C1692 C554 1.601 . S
C1703 C568 1.605 . S
C1708 C7 1.373 . S
C1719 C582 1.608 . S
C1724 C21 1.396 . S
C1735 C35 1.481 . S
C1740 C596 1.600 . S
C1751 C610 1.601 . S
C1756 C49 1.486 . S
C1767 C624 1.604 . S
C1772 C63 1.384 . S
C1783 C91 1.422 . S
C1788 C638 1.607 . S
C1799 C652 1.600 . S
C1804 C105 1.468 . S
C1815 C413 1.384 . S
C1820 C666 1.604 . S
C1831 C37 1.116 . S
C1836 C9 1.197 . S
C1847 C51 1.160 . S
C1852 C23 1.222 . S
C1863 C443 1.130 . S
C1868 C65 1.166 . S
C1879 C429 1.159 . S
C1884 C79 1.135 . S
C1895 C415 1.225 . S
C1900 C93 1.132 . S
C1911 C107 1.220 . S
C1916 C401 1.163 . S
C1927 C121 1.146 . S
C1932 C499 1.147 . S
C1943 C149 1.117 . S
C1948 C135 1.195 . S
C1959 C163 1.203 . S
C1964 C457 1.190 . S
C1975 C205 1.200 . S
C1980 C177 1.116 . S
C1991 C219 1.223 . S
C1996 C191 1.155 . S
C2007 C611 1.171 . S
C2012 C233 1.217 . S
C2023 C597 1.218 . S
C2028 C247 1.168 . S
C2039 C261 1.225 . S
C2044 C583 1.131 . S
C2055 C275 1.223 . S
C2060 C569 1.127 . S
C2071 C667 1.225 . S
C2076 C289 1.135 . S
C2087 C317 1.160 . S
C2092 C303 1.222 . S
C2103 C331 1.127 . S
C2108 C625 1.170 . S
C2119 C373 1.141 . S
C2124 C345 1.226 . S
C2135 C359 1.189 . S
C2140 C387 1.118 . S
C2151 C485 1.207 . S
C2156 C471 1.185 . S
C2167 C513 1.155 . S
C2172 C541 1.138 . S
C2183 C527 1.198 . S
C2188 C555 1.196 . S
C2199 C639 1.135 . S
C2204 C653 1.225 . S
