# Generated by pormake.
# Topology ukv, (4)-cn, num edge types: 1
# Building blocks:
#     Node 0, Type 0, BuildingBlock: GALJAG_clean_sbu_0, # of connection points: 4
#     Node 1, Type 0, BuildingBlock: GALJAG_clean_sbu_0, # of connection points: 4
#     Node 2, Type 0, BuildingBlock: GALJAG_clean_sbu_0, # of connection points: 4
#     Node 3, Type 0, BuildingBlock: GALJAG_clean_sbu_0, # of connection points: 4
#     Node 4, Type 0, BuildingBlock: GALJAG_clean_sbu_0, # of connection points: 4
#     Node 5, Type 0, BuildingBlock: GALJAG_clean_sbu_0, # of connection points: 4
#     Node 6, Type 0, BuildingBlock: GALJAG_clean_sbu_0, # of connection points: 4
#     Node 7, Type 0, BuildingBlock: GALJAG_clean_sbu_0, # of connection points: 4
#     Node 8, Type 0, BuildingBlock: GALJAG_clean_sbu_0, # of connection points: 4
#     Node 9, Type 0, BuildingBlock: GALJAG_clean_sbu_0, # of connection points: 4
#     Node 10, Type 0, BuildingBlock: GALJAG_clean_sbu_0, # of connection points: 4
#     Node 11, Type 0, BuildingBlock: GALJAG_clean_sbu_0, # of connection points: 4
#     Node 12, Type 0, BuildingBlock: GALJAG_clean_sbu_0, # of connection points: 4
#     Node 13, Type 0, BuildingBlock: GALJAG_clean_sbu_0, # of connection points: 4
#     Node 14, Type 0, BuildingBlock: GALJAG_clean_sbu_0, # of connection points: 4
#     Node 15, Type 0, BuildingBlock: GALJAG_clean_sbu_0, # of connection points: 4
#     Node 16, Type 0, BuildingBlock: GALJAG_clean_sbu_0, # of connection points: 4
#     Node 17, Type 0, BuildingBlock: GALJAG_clean_sbu_0, # of connection points: 4
#     Node 18, Type 0, BuildingBlock: GALJAG_clean_sbu_0, # of connection points: 4
#     Node 19, Type 0, BuildingBlock: GALJAG_clean_sbu_0, # of connection points: 4
#     Node 20, Type 0, BuildingBlock: GALJAG_clean_sbu_0, # of connection points: 4
#     Node 21, Type 0, BuildingBlock: GALJAG_clean_sbu_0, # of connection points: 4
#     Node 22, Type 0, BuildingBlock: GALJAG_clean_sbu_0, # of connection points: 4
#     Node 23, Type 0, BuildingBlock: GALJAG_clean_sbu_0, # of connection points: 4
#     Node 24, Type 0, BuildingBlock: GALJAG_clean_sbu_0, # of connection points: 4
#     Node 25, Type 0, BuildingBlock: GALJAG_clean_sbu_0, # of connection points: 4
#     Node 26, Type 0, BuildingBlock: GALJAG_clean_sbu_0, # of connection points: 4
#     Node 27, Type 0, BuildingBlock: GALJAG_clean_sbu_0, # of connection points: 4
#     Node 28, Type 0, BuildingBlock: GALJAG_clean_sbu_0, # of connection points: 4
#     Node 29, Type 0, BuildingBlock: GALJAG_clean_sbu_0, # of connection points: 4
#     Node 30, Type 0, BuildingBlock: GALJAG_clean_sbu_0, # of connection points: 4
#     Node 31, Type 0, BuildingBlock: GALJAG_clean_sbu_0, # of connection points: 4
#     Node 32, Type 0, BuildingBlock: GALJAG_clean_sbu_0, # of connection points: 4
#     Node 33, Type 0, BuildingBlock: GALJAG_clean_sbu_0, # of connection points: 4
#     Node 34, Type 0, BuildingBlock: GALJAG_clean_sbu_0, # of connection points: 4
#     Node 35, Type 0, BuildingBlock: GALJAG_clean_sbu_0, # of connection points: 4
#     Edge 36, Type (0, 0), BuildingBlock: TEMPAE_clean_linker_10, # of connection points: 2
#     Edge 37, Type (0, 0), BuildingBlock: TEMPAE_clean_linker_10, # of connection points: 2
#     Edge 38, Type (0, 0), BuildingBlock: TEMPAE_clean_linker_10, # of connection points: 2
#     Edge 39, Type (0, 0), BuildingBlock: TEMPAE_clean_linker_10, # of connection points: 2
#     Edge 40, Type (0, 0), BuildingBlock: TEMPAE_clean_linker_10, # of connection points: 2
#     Edge 41, Type (0, 0), BuildingBlock: TEMPAE_clean_linker_10, # of connection points: 2
#     Edge 42, Type (0, 0), BuildingBlock: TEMPAE_clean_linker_10, # of connection points: 2
#     Edge 43, Type (0, 0), BuildingBlock: TEMPAE_clean_linker_10, # of connection points: 2
#     Edge 44, Type (0, 0), BuildingBlock: TEMPAE_clean_linker_10, # of connection points: 2
#     Edge 45, Type (0, 0), BuildingBlock: TEMPAE_clean_linker_10, # of connection points: 2
#     Edge 46, Type (0, 0), BuildingBlock: TEMPAE_clean_linker_10, # of connection points: 2
#     Edge 47, Type (0, 0), BuildingBlock: TEMPAE_clean_linker_10, # of connection points: 2
#     Edge 48, Type (0, 0), BuildingBlock: TEMPAE_clean_linker_10, # of connection points: 2
#     Edge 49, Type (0, 0), BuildingBlock: TEMPAE_clean_linker_10, # of connection points: 2
#     Edge 50, Type (0, 0), BuildingBlock: TEMPAE_clean_linker_10, # of connection points: 2
#     Edge 51, Type (0, 0), BuildingBlock: TEMPAE_clean_linker_10, # of connection points: 2
#     Edge 52, Type (0, 0), BuildingBlock: TEMPAE_clean_linker_10, # of connection points: 2
#     Edge 53, Type (0, 0), BuildingBlock: TEMPAE_clean_linker_10, # of connection points: 2
#     Edge 54, Type (0, 0), BuildingBlock: TEMPAE_clean_linker_10, # of connection points: 2
#     Edge 55, Type (0, 0), BuildingBlock: TEMPAE_clean_linker_10, # of connection points: 2
#     Edge 56, Type (0, 0), BuildingBlock: TEMPAE_clean_linker_10, # of connection points: 2
#     Edge 57, Type (0, 0), BuildingBlock: TEMPAE_clean_linker_10, # of connection points: 2
#     Edge 58, Type (0, 0), BuildingBlock: TEMPAE_clean_linker_10, # of connection points: 2
#     Edge 59, Type (0, 0), BuildingBlock: TEMPAE_clean_linker_10, # of connection points: 2
#     Edge 60, Type (0, 0), BuildingBlock: TEMPAE_clean_linker_10, # of connection points: 2
#     Edge 61, Type (0, 0), BuildingBlock: TEMPAE_clean_linker_10, # of connection points: 2
#     Edge 62, Type (0, 0), BuildingBlock: TEMPAE_clean_linker_10, # of connection points: 2
#     Edge 63, Type (0, 0), BuildingBlock: TEMPAE_clean_linker_10, # of connection points: 2
#     Edge 64, Type (0, 0), BuildingBlock: TEMPAE_clean_linker_10, # of connection points: 2
#     Edge 65, Type (0, 0), BuildingBlock: TEMPAE_clean_linker_10, # of connection points: 2
#     Edge 66, Type (0, 0), BuildingBlock: TEMPAE_clean_linker_10, # of connection points: 2
#     Edge 67, Type (0, 0), BuildingBlock: TEMPAE_clean_linker_10, # of connection points: 2
#     Edge 68, Type (0, 0), BuildingBlock: TEMPAE_clean_linker_10, # of connection points: 2
#     Edge 69, Type (0, 0), BuildingBlock: TEMPAE_clean_linker_10, # of connection points: 2
#     Edge 70, Type (0, 0), BuildingBlock: TEMPAE_clean_linker_10, # of connection points: 2
#     Edge 71, Type (0, 0), BuildingBlock: TEMPAE_clean_linker_10, # of connection points: 2
#     Edge 72, Type (0, 0), BuildingBlock: TEMPAE_clean_linker_10, # of connection points: 2
#     Edge 73, Type (0, 0), BuildingBlock: TEMPAE_clean_linker_10, # of connection points: 2
#     Edge 74, Type (0, 0), BuildingBlock: TEMPAE_clean_linker_10, # of connection points: 2
#     Edge 75, Type (0, 0), BuildingBlock: TEMPAE_clean_linker_10, # of connection points: 2
#     Edge 76, Type (0, 0), BuildingBlock: TEMPAE_clean_linker_10, # of connection points: 2
#     Edge 77, Type (0, 0), BuildingBlock: TEMPAE_clean_linker_10, # of connection points: 2
#     Edge 78, Type (0, 0), BuildingBlock: TEMPAE_clean_linker_10, # of connection points: 2
#     Edge 79, Type (0, 0), BuildingBlock: TEMPAE_clean_linker_10, # of connection points: 2
#     Edge 80, Type (0, 0), BuildingBlock: TEMPAE_clean_linker_10, # of connection points: 2
#     Edge 81, Type (0, 0), BuildingBlock: TEMPAE_clean_linker_10, # of connection points: 2
#     Edge 82, Type (0, 0), BuildingBlock: TEMPAE_clean_linker_10, # of connection points: 2
#     Edge 83, Type (0, 0), BuildingBlock: TEMPAE_clean_linker_10, # of connection points: 2
#     Edge 84, Type (0, 0), BuildingBlock: TEMPAE_clean_linker_10, # of connection points: 2
#     Edge 85, Type (0, 0), BuildingBlock: TEMPAE_clean_linker_10, # of connection points: 2
#     Edge 86, Type (0, 0), BuildingBlock: TEMPAE_clean_linker_10, # of connection points: 2
#     Edge 87, Type (0, 0), BuildingBlock: TEMPAE_clean_linker_10, # of connection points: 2
#     Edge 88, Type (0, 0), BuildingBlock: TEMPAE_clean_linker_10, # of connection points: 2
#     Edge 89, Type (0, 0), BuildingBlock: TEMPAE_clean_linker_10, # of connection points: 2
#     Edge 90, Type (0, 0), BuildingBlock: TEMPAE_clean_linker_10, # of connection points: 2
#     Edge 91, Type (0, 0), BuildingBlock: TEMPAE_clean_linker_10, # of connection points: 2
#     Edge 92, Type (0, 0), BuildingBlock: TEMPAE_clean_linker_10, # of connection points: 2
#     Edge 93, Type (0, 0), BuildingBlock: TEMPAE_clean_linker_10, # of connection points: 2
#     Edge 94, Type (0, 0), BuildingBlock: TEMPAE_clean_linker_10, # of connection points: 2
#     Edge 95, Type (0, 0), BuildingBlock: TEMPAE_clean_linker_10, # of connection points: 2
#     Edge 96, Type (0, 0), BuildingBlock: TEMPAE_clean_linker_10, # of connection points: 2
#     Edge 97, Type (0, 0), BuildingBlock: TEMPAE_clean_linker_10, # of connection points: 2
#     Edge 98, Type (0, 0), BuildingBlock: TEMPAE_clean_linker_10, # of connection points: 2
#     Edge 99, Type (0, 0), BuildingBlock: TEMPAE_clean_linker_10, # of connection points: 2
#     Edge 100, Type (0, 0), BuildingBlock: TEMPAE_clean_linker_10, # of connection points: 2
#     Edge 101, Type (0, 0), BuildingBlock: TEMPAE_clean_linker_10, # of connection points: 2
#     Edge 102, Type (0, 0), BuildingBlock: TEMPAE_clean_linker_10, # of connection points: 2
#     Edge 103, Type (0, 0), BuildingBlock: TEMPAE_clean_linker_10, # of connection points: 2
#     Edge 104, Type (0, 0), BuildingBlock: TEMPAE_clean_linker_10, # of connection points: 2
#     Edge 105, Type (0, 0), BuildingBlock: TEMPAE_clean_linker_10, # of connection points: 2
#     Edge 106, Type (0, 0), BuildingBlock: TEMPAE_clean_linker_10, # of connection points: 2
#     Edge 107, Type (0, 0), BuildingBlock: TEMPAE_clean_linker_10, # of connection points: 2
# Relax obj value: 0.157
# Max RMSD: 0.129
# Mean RMSD: 0.129
data_MOF--net-ukv--node1-GALJAG_clean_sbu_0--edge1-TEMPAE_clean_linker_10
_symmetry_space_group_name_H-M    P1
_symmetry_Int_Tables_number       1
_symmetry_cell_setting            triclinic
loop_
_symmetry_equiv_pos_as_xyz
'x, y, z'
_cell_length_a     90.033544
_cell_length_b     90.054472
_cell_length_c     24.197446
_cell_angle_alpha  89.997164
_cell_angle_beta   90.029292
_cell_angle_gamma 119.99613
loop_
_atom_site_label
_atom_site_type_symbol
_atom_site_fract_x
_atom_site_fract_y
_atom_site_fract_z
_atom_type_partial_charge
In0 In 0.23949 0.07059 0.03401 0.0
O1 O 0.24923 0.09294 0.09362 0.0
O2 O 0.22217 0.07678 0.08543 0.0
C3 C 0.27109 0.07993 0.99561 0.0
C4 C 0.22737 0.04174 0.09465 0.0
C5 C 0.22632 0.07633 0.9421 0.0
O6 O 0.26844 0.0881 0.03294 0.0
O7 O 0.25781 0.06673 0.97849 0.0
O8 O 0.22612 0.06234 0.94941 0.0
O9 O 0.23277 0.0869 0.98114 0.0
C10 C 0.23444 0.08973 0.10823 0.0
O11 O 0.21877 0.04322 0.056 0.0
O12 O 0.24222 0.05441 0.10057 0.0
In13 In 0.91916 0.17181 0.05956 0.0
O14 O 0.89951 0.15643 0.12587 0.0
O15 O 0.91614 0.1475 0.09822 0.0
C16 C 0.90856 0.19355 0.02648 0.0
C17 C 0.94803 0.19068 0.11816 0.0
C18 C 0.91313 0.15459 0.96416 0.0
O19 O 0.90028 0.18169 0.06093 0.0
O20 O 0.92239 0.1947 0.00999 0.0
O21 O 0.92814 0.16601 0.97779 0.0
O22 O 0.90158 0.15209 -0.00148 0.0
C23 C 0.904 0.14522 0.12966 0.0
O24 O 0.94779 0.18256 0.07521 0.0
O25 O 0.93392 0.18965 0.13003 0.0
In26 In 0.82931 0.75507 0.04982 0.0
O27 O 0.82127 0.77477 0.07174 0.0
O28 O 0.80904 0.75078 0.11322 0.0
C29 C 0.84933 0.76959 0.96091 0.0
C30 C 0.85242 0.76021 0.12827 0.0
C31 C 0.80859 0.7238 0.00619 0.0
O32 O 0.83508 0.76901 0.96617 0.0
O33 O 0.85338 0.76333 0.00068 0.0
O34 O 0.81944 0.72642 0.04347 0.0
O35 O 0.80787 0.7369 0.99191 0.0
C36 C 0.81069 0.76545 0.10828 0.0
O37 O 0.84133 0.74539 0.11202 0.0
O38 O 0.85176 0.77243 0.10502 0.0
In39 In 0.07825 0.25029 0.43253 0.0
O40 O 0.04991 0.23115 0.41651 0.0
O41 O 0.06186 0.25419 0.36971 0.0
C42 C 0.08519 0.23796 0.52386 0.0
C43 C 0.09396 0.24152 0.35582 0.0
C44 C 0.08952 0.28229 0.47048 0.0
O45 O 0.07056 0.23633 0.51607 0.0
O46 O 0.09585 0.24546 0.48563 0.0
O47 O 0.09688 0.27909 0.43171 0.0
O48 O 0.07622 0.2694 0.48898 0.0
C49 C 0.04849 0.24003 0.37867 0.0
O50 O 0.09815 0.25694 0.36527 0.0
O51 O 0.08171 0.23054 0.38474 0.0
In52 In 0.76174 0.83496 0.46664 0.0
O53 O 0.77987 0.82569 0.43666 0.0
O54 O 0.75553 0.81557 0.39809 0.0
C55 C 0.77827 0.85187 0.55929 0.0
C56 C 0.76633 0.85984 0.396 0.0
C57 C 0.72986 0.81494 0.50713 0.0
O58 O 0.7735 0.83625 0.55212 0.0
O59 O 0.77541 0.8589 0.51896 0.0
O60 O 0.7335 0.82695 0.47335 0.0
O61 O 0.74227 0.81283 0.5199 0.0
C62 C 0.76973 0.81605 0.39967 0.0
O63 O 0.75229 0.85057 0.42077 0.0
O64 O 0.77813 0.8566 0.40724 0.0
In65 In 0.15308 0.92548 0.45887 0.0
O66 O 0.16181 0.9524 0.42485 0.0
O67 O 0.17266 0.93823 0.39078 0.0
C68 C 0.13666 0.92561 0.55204 0.0
C69 C 0.12835 0.90404 0.38972 0.0
C70 C 0.17372 0.91462 0.50108 0.0
O71 O 0.15214 0.93664 0.54326 0.0
O72 O 0.12939 0.91549 0.51242 0.0
O73 O 0.16193 0.90592 0.46693 0.0
O74 O 0.17531 0.92897 0.51322 0.0
C75 C 0.17181 0.95176 0.38955 0.0
O76 O 0.1374 0.89965 0.41765 0.0
O77 O 0.13164 0.91928 0.39734 0.0
In78 In 0.74891 0.92048 0.95246 0.0
O79 O 0.7433 0.90014 0.8875 0.0
O80 O 0.76912 0.91547 0.91491 0.0
C81 C 0.71659 0.91119 0.98218 0.0
C82 C 0.76117 0.94942 0.89245 0.0
C83 C 0.7589 0.91386 0.04929 0.0
O84 O 0.72003 0.90278 0.94786 0.0
O85 O 0.72946 0.92459 0.00037 0.0
O86 O 0.76283 0.92898 0.03593 0.0
O87 O 0.75017 0.90253 0.01394 0.0
C88 C 0.75868 0.90352 0.88389 0.0
O89 O 0.76866 0.94861 0.93556 0.0
O90 O 0.74728 0.93595 0.88151 0.0
In91 In 0.07871 0.8251 0.9423 0.0
O92 O 0.09864 0.84158 0.87801 0.0
O93 O 0.08182 0.84996 0.90809 0.0
C94 C 0.08964 0.80338 0.97273 0.0
C95 C 0.05067 0.80677 0.8795 0.0
C96 C 0.08313 0.84065 0.0403 0.0
O97 O 0.09829 0.81611 0.94162 0.0
O98 O 0.07527 0.80136 0.98723 0.0
O99 O 0.06835 0.82965 0.02331 0.0
O100 O 0.09526 0.84355 0.00797 0.0
C101 C 0.09407 0.85277 0.8764 0.0
O102 O 0.05015 0.81386 0.924 0.0
O103 O 0.06512 0.80849 0.86818 0.0
In104 In 0.17026 0.24356 0.94096 0.0
O105 O 0.17901 0.22461 0.91597 0.0
O106 O 0.19071 0.24898 0.87694 0.0
C107 C 0.15046 0.22782 0.02942 0.0
C108 C 0.14709 0.23885 0.86331 0.0
C109 C 0.19033 0.2746 0.98704 0.0
O110 O 0.16516 0.22945 0.02413 0.0
O111 O 0.14583 0.23358 0.98971 0.0
O112 O 0.17935 0.27199 0.95026 0.0
O113 O 0.1915 0.26162 -0.00037 0.0
C114 C 0.1895 0.23446 0.88011 0.0
O115 O 0.15777 0.25353 0.88173 0.0
O116 O 0.14817 0.22655 0.88407 0.0
In117 In 0.92314 0.75007 0.55475 0.0
O118 O 0.90274 0.74274 0.62067 0.0
O119 O 0.91966 0.76934 0.60533 0.0
C120 C 0.91181 0.71822 0.51533 0.0
C121 C 0.95278 0.76001 0.6091 0.0
C122 C 0.91643 0.76304 0.46442 0.0
O123 O 0.90459 0.72127 0.55488 0.0
O124 O 0.925 0.73119 0.49663 0.0
O125 O 0.93084 0.76406 0.47118 0.0
O126 O 0.9059 0.75584 0.50319 0.0
C127 C 0.90707 0.75807 0.63243 0.0
O128 O 0.95137 0.76929 0.5727 0.0
O129 O 0.9395 0.74565 0.61627 0.0
In130 In 0.24664 0.1692 0.53624 0.0
O131 O 0.25363 0.15444 0.59664 0.0
O132 O 0.22713 0.14632 0.58598 0.0
C133 C 0.2788 0.18954 0.49892 0.0
C134 C 0.23742 0.18865 0.59541 0.0
C135 C 0.23295 0.15059 0.44432 0.0
O136 O 0.27538 0.17937 0.53896 0.0
O137 O 0.26601 0.18973 0.47836 0.0
O138 O 0.23277 0.16437 0.4527 0.0
O139 O 0.23973 0.14641 0.48219 0.0
C140 C 0.23827 0.14397 0.60978 0.0
O141 O 0.22817 0.17896 0.5569 0.0
O142 O 0.25144 0.18896 0.60206 0.0
In143 In 0.83836 0.07029 0.5442 0.0
O144 O 0.85253 0.09518 0.59174 0.0
O145 O 0.85974 0.07623 0.6057 0.0
C146 C 0.81808 0.08128 0.49993 0.0
C147 C 0.81919 0.04309 0.60983 0.0
C148 C 0.85621 0.07167 0.45285 0.0
O149 O 0.82972 0.08996 0.53455 0.0
O150 O 0.81643 0.06687 0.4884 0.0
O151 O 0.84075 0.06023 0.4593 0.0
O152 O 0.86271 0.08151 0.4936 0.0
C153 C 0.8621 0.09095 0.61732 0.0
O154 O 0.82974 0.04311 0.57539 0.0
O155 O 0.81803 0.05645 0.60958 0.0
In156 In 0.89819 0.40539 0.36471 0.0
O157 O 0.90963 0.43063 0.41061 0.0
O158 O 0.88314 0.41258 0.42371 0.0
C159 C 0.92971 0.41519 0.32479 0.0
C160 C 0.88832 0.37827 0.43253 0.0
C161 C 0.8829 0.40723 0.27086 0.0
O162 O 0.92664 0.42457 0.35593 0.0
O163 O 0.9169 0.40067 0.31458 0.0
O164 O 0.88719 0.396 0.27774 0.0
O165 O 0.88531 0.41657 0.31234 0.0
C166 C 0.89585 0.4271 0.43514 0.0
O167 O 0.8786 0.3784 0.39507 0.0
O168 O 0.90297 0.39144 0.43405 0.0
In169 In 0.58654 0.50661 0.38842 0.0
O170 O 0.61492 0.51525 0.40173 0.0
O171 O 0.6029 0.52453 0.45641 0.0
C172 C 0.57771 0.48904 0.29311 0.0
C173 C 0.57057 0.48053 0.45988 0.0
C174 C 0.57775 0.52994 0.35849 0.0
O175 O 0.59327 0.49935 0.30487 0.0
O176 O 0.56708 0.48771 0.32938 0.0
O177 O 0.56968 0.51868 0.39488 0.0
O178 O 0.59061 0.52975 0.33847 0.0
C179 C 0.61627 0.52409 0.44403 0.0
O180 O 0.56689 0.49231 0.45558 0.0
O181 O 0.58233 0.48196 0.42815 0.0
In182 In 0.50308 0.09068 0.3826 0.0
O183 O 0.49442 0.10991 0.40533 0.0
O184 O 0.48437 0.08666 0.45087 0.0
C185 C 0.52188 0.10344 0.29066 0.0
C186 C 0.52811 0.09766 0.45562 0.0
C187 C 0.4806 0.05947 0.34246 0.0
O188 O 0.50953 0.10592 0.30129 0.0
O189 O 0.52456 0.09486 0.32633 0.0
O190 O 0.49179 0.06177 0.37815 0.0
O191 O 0.48055 0.0729 0.3278 0.0
C192 C 0.48496 0.10083 0.44457 0.0
O193 O 0.51634 0.08253 0.44518 0.0
O194 O 0.52713 0.10929 0.42949 0.0
In195 In 0.74436 0.57923 0.76923 0.0
O196 O 0.7162 0.56033 0.74898 0.0
O197 O 0.72953 0.58294 0.70048 0.0
C198 C 0.75057 0.56717 0.86251 0.0
C199 C 0.76125 0.57049 0.69703 0.0
C200 C 0.75402 0.61089 0.80715 0.0
O201 O 0.73568 0.56448 0.8514 0.0
O202 O 0.76181 0.57561 0.82667 0.0
O203 O 0.76262 0.60807 0.7718 0.0
O204 O 0.74031 0.59778 0.82223 0.0
C205 C 0.7158 0.56903 0.7086 0.0
O206 O 0.76498 0.58587 0.70452 0.0
O207 O 0.7489 0.55954 0.72568 0.0
In208 In 0.41913 0.15994 0.7824 0.0
O209 O 0.43944 0.15258 0.76188 0.0
O210 O 0.41687 0.14211 0.71277 0.0
C211 C 0.43062 0.17624 0.87926 0.0
C212 C 0.42749 0.18609 0.71258 0.0
C213 C 0.38679 0.13784 0.81495 0.0
O214 O 0.43235 0.16356 0.86661 0.0
O215 O 0.42336 0.18049 0.84316 0.0
O216 O 0.39049 0.15036 0.78331 0.0
O217 O 0.39939 0.1362 0.8291 0.0
C218 C 0.4313 0.14342 0.7209 0.0
O219 O 0.41241 0.17351 0.7164 0.0
O220 O 0.43835 0.18543 0.74392 0.0
In221 In 0.82897 0.25932 0.79169 0.0
O222 O 0.81702 0.23552 0.73816 0.0
O223 O 0.80637 0.252 0.73421 0.0
C224 C 0.85041 0.24956 0.83488 0.0
C225 C 0.84609 0.28754 0.72815 0.0
C226 C 0.81019 0.25547 0.88293 0.0
O227 O 0.83911 0.2408 0.79942 0.0
O228 O 0.85126 0.26356 0.84753 0.0
O229 O 0.82527 0.26789 0.87757 0.0
O230 O 0.80456 0.24576 0.84156 0.0
C231 C 0.80586 0.23846 0.71734 0.0
O232 O 0.83553 0.28632 0.76466 0.0
O233 O 0.8485 0.27494 0.72574 0.0
In234 In 0.42847 0.25598 0.29182 0.0
O235 O 0.41838 0.23135 0.24297 0.0
O236 O 0.44526 0.24915 0.24015 0.0
C237 C 0.39629 0.24407 0.32937 0.0
C238 C 0.43751 0.28249 0.22198 0.0
C239 C 0.44434 0.2567 0.38739 0.0
O240 O 0.40103 0.23461 0.30602 0.0
O241 O 0.40776 0.25964 0.33329 0.0
O242 O 0.44343 0.2477 0.34644 0.0
O243 O 0.43793 0.26617 0.37949 0.0
C244 C 0.43292 0.23491 0.22445 0.0
O245 O 0.42364 0.26849 0.21807 0.0
O246 O 0.44678 0.28344 0.26249 0.0
In247 In 0.74544 0.15636 0.28062 0.0
O248 O 0.7169 0.14583 0.2638 0.0
O249 O 0.73043 0.13727 0.21321 0.0
C250 C 0.7512 0.17428 0.37444 0.0
C251 C 0.76032 0.1822 0.20782 0.0
C252 C 0.75727 0.13576 0.31498 0.0
O253 O 0.73658 0.16159 0.36366 0.0
O254 O 0.76247 0.17769 0.33809 0.0
O255 O 0.76487 0.14722 0.27881 0.0
O256 O 0.74347 0.13443 0.33276 0.0
C257 C 0.71649 0.13686 0.22306 0.0
O258 O 0.76519 0.17135 0.2143 0.0
O259 O 0.74791 0.17992 0.23791 0.0
In260 In 0.83405 0.57214 0.28039 0.0
O261 O 0.8203 0.58166 0.22488 0.0
O262 O 0.8119 0.55491 0.22383 0.0
C263 C 0.85321 0.60356 0.32512 0.0
C264 C 0.85386 0.56449 0.21665 0.0
C265 C 0.81611 0.55552 0.37123 0.0
O266 O 0.85603 0.5914 0.33442 0.0
O267 O 0.84092 0.59993 0.2925 0.0
O268 O 0.83149 0.55921 0.36459 0.0
O269 O 0.80987 0.55959 0.33147 0.0
C270 C 0.80999 0.567 0.20548 0.0
O271 O 0.84365 0.55414 0.25213 0.0
O272 O 0.85438 0.57871 0.21481 0.0
In273 In 0.59549 0.08946 0.87667 0.0
O274 O 0.57287 0.08193 0.93363 0.0
O275 O 0.59228 0.10831 0.93066 0.0
C276 C 0.58167 0.05755 0.83447 0.0
C277 C 0.62295 0.09627 0.93936 0.0
C278 C 0.59425 0.10587 0.78534 0.0
O279 O 0.5741 0.06167 0.86996 0.0
O280 O 0.59638 0.06947 0.82098 0.0
O281 O 0.60613 0.10249 0.79277 0.0
O282 O 0.5836 0.1014 0.82423 0.0
C283 C 0.57814 0.09702 0.95078 0.0
O284 O 0.62346 0.10656 0.90295 0.0
O285 O 0.60887 0.08244 0.94248 0.0
In286 In 0.92097 0.50813 0.87742 0.0
O287 O 0.92544 0.49298 0.94419 0.0
O288 O 0.89994 0.4834 0.91483 0.0
C289 C 0.95349 0.53016 0.84657 0.0
C290 C 0.91007 0.52606 0.93694 0.0
C291 C 0.91003 0.49153 0.78086 0.0
O292 O 0.94963 0.51765 0.87847 0.0
O293 O 0.94097 0.5318 0.83139 0.0
O294 O 0.90675 0.50314 0.79471 0.0
O295 O 0.91867 0.48855 0.81552 0.0
C296 C 0.90983 0.48143 0.94709 0.0
O297 O 0.90237 0.51795 0.89378 0.0
O298 O 0.92349 0.5256 0.94836 0.0
In299 In 0.49875 0.40379 0.87344 0.0
O300 O 0.49182 0.37654 0.89755 0.0
O301 O 0.47818 0.38736 0.9357 0.0
C302 C 0.51765 0.40727 0.78267 0.0
C303 C 0.52176 0.42376 0.94975 0.0
C304 C 0.47747 0.41428 0.83382 0.0
O305 O 0.52352 0.41663 0.82474 0.0
O306 O 0.50227 0.39544 0.78705 0.0
O307 O 0.48812 0.42204 0.87201 0.0
O308 O 0.47722 0.40093 0.81657 0.0
C309 C 0.48062 0.37478 0.93238 0.0
O310 O 0.51876 0.40877 0.93923 0.0
O311 O 0.51318 0.42866 0.92155 0.0
In312 In 0.58038 0.7449 0.71348 0.0
O313 O 0.58635 0.7655 0.77763 0.0
O314 O 0.56014 0.74877 0.75637 0.0
C315 C 0.6128 0.75591 0.68034 0.0
C316 C 0.56974 0.71615 0.77351 0.0
C317 C 0.5684 0.75056 0.619 0.0
O318 O 0.60905 0.76378 0.71583 0.0
O319 O 0.6002 0.74223 0.66244 0.0
O320 O 0.56682 0.73607 0.62941 0.0
O321 O 0.57581 0.76173 0.65599 0.0
C322 C 0.57084 0.76131 0.785 0.0
O323 O 0.56137 0.71668 0.73235 0.0
O324 O 0.58366 0.7298 0.78235 0.0
In325 In 0.25186 0.84302 0.70693 0.0
O326 O 0.2312 0.82664 0.76901 0.0
O327 O 0.24989 0.81957 0.74867 0.0
C328 C 0.23821 0.86229 0.67508 0.0
C329 C 0.28015 0.86243 0.76771 0.0
C330 C 0.24841 0.8268 0.61071 0.0
O331 O 0.23097 0.85026 0.70968 0.0
O332 O 0.25249 0.86482 0.65762 0.0
O333 O 0.26153 0.84115 0.62078 0.0
O334 O 0.23748 0.82087 0.64893 0.0
C335 C 0.23669 0.81631 0.77622 0.0
O336 O 0.28029 0.85385 0.72663 0.0
O337 O 0.26601 0.8617 0.77637 0.0
In338 In 0.1673 0.42745 0.71123 0.0
O339 O 0.18176 0.41804 0.76377 0.0
O340 O 0.18913 0.44451 0.76899 0.0
C341 C 0.14834 0.39636 0.66414 0.0
C342 C 0.1471 0.43391 0.77733 0.0
C343 C 0.18515 0.44489 0.62129 0.0
O344 O 0.1604 0.3997 0.69744 0.0
O345 O 0.14564 0.40862 0.65536 0.0
O346 O 0.16975 0.44105 0.62845 0.0
O347 O 0.19146 0.44059 0.66025 0.0
C348 C 0.1916 0.43255 0.78505 0.0
O349 O 0.15699 0.44463 0.74203 0.0
O350 O 0.14709 0.41992 0.77776 0.0
In351 In 0.40258 0.91361 0.10998 0.0
O352 O 0.37448 0.89562 0.08674 0.0
O353 O 0.38794 0.91974 0.04641 0.0
C354 C 0.40617 0.89846 0.20072 0.0
C355 C 0.41938 0.90608 0.03376 0.0
C356 C 0.41565 0.94548 0.15166 0.0
O357 O 0.39307 0.89997 0.19368 0.0
O358 O 0.41687 0.90417 0.16185 0.0
O359 O 0.4231 0.94176 0.11459 0.0
O360 O 0.40137 0.93317 0.1669 0.0
C361 C 0.3742 0.90563 0.05071 0.0
O362 O 0.42403 0.9213 0.04795 0.0
O363 O 0.40611 0.89464 0.05777 0.0
In364 In 0.07863 0.48794 0.11672 0.0
O365 O 0.09766 0.47854 0.10185 0.0
O366 O 0.07562 0.46888 0.05043 0.0
C367 C 0.09037 0.50611 0.21035 0.0
C368 C 0.08897 0.5135 0.04325 0.0
C369 C 0.04597 0.46712 0.14866 0.0
O370 O 0.09092 0.4925 0.20283 0.0
O371 O 0.0841 0.51034 0.17098 0.0
O372 O 0.04999 0.4783 0.1114 0.0
O373 O 0.0584 0.46615 0.16872 0.0
C374 C 0.08951 0.46927 0.06108 0.0
O375 O 0.07329 0.50282 0.05155 0.0
O376 O 0.09936 0.51117 0.07181 0.0
In377 In 0.49814 0.59579 0.12547 0.0
O378 O 0.50649 0.62306 0.09608 0.0
O379 O 0.51816 0.60998 0.05964 0.0
C380 C 0.47947 0.5931 0.21594 0.0
C381 C 0.47466 0.57577 0.05071 0.0
C382 C 0.51884 0.58545 0.17053 0.0
O383 O 0.47378 0.58295 0.17564 0.0
O384 O 0.49459 0.60539 0.20985 0.0
O385 O 0.50706 0.57639 0.13675 0.0
O386 O 0.5204 0.59989 0.18085 0.0
C387 C 0.51689 0.62328 0.06062 0.0
O388 O 0.48509 0.57192 0.07233 0.0
O389 O 0.47611 0.58978 0.06694 0.0
In390 In 0.09986 0.59493 0.62516 0.0
O391 O 0.12397 0.61746 0.5889 0.0
O392 O 0.10066 0.61767 0.5801 0.0
C393 C 0.11131 0.58706 0.71708 0.0
C394 C 0.09932 0.57378 0.54612 0.0
C395 C 0.0688 0.58714 0.66401 0.0
O396 O 0.11271 0.60163 0.71087 0.0
O397 O 0.1047 0.57703 0.67682 0.0
O398 O 0.07079 0.57944 0.62353 0.0
O399 O 0.08253 0.59921 0.68387 0.0
C400 C 0.1164 0.62479 0.56895 0.0
O401 O 0.08617 0.57468 0.55877 0.0
O402 O 0.11267 0.58361 0.57316 0.0
In403 In 0.41107 0.49516 0.61345 0.0
O404 O 0.43105 0.50943 0.547 0.0
O405 O 0.41488 0.5193 0.57114 0.0
C406 C 0.42122 0.47322 0.64833 0.0
C407 C 0.38197 0.47679 0.5553 0.0
C408 C 0.41771 0.51319 0.70742 0.0
O409 O 0.42955 0.48482 0.61316 0.0
O410 O 0.40753 0.47242 0.66475 0.0
O411 O 0.40276 0.50109 0.69647 0.0
O412 O 0.42884 0.51598 0.67115 0.0
C413 C 0.42702 0.52092 0.54086 0.0
O414 O 0.38274 0.48585 0.59632 0.0
O415 O 0.39561 0.4766 0.54537 0.0
In416 In 0.49577 0.91099 0.60855 0.0
O417 O 0.4828 0.91967 0.54656 0.0
O418 O 0.47233 0.89278 0.55839 0.0
C419 C 0.51761 0.94248 0.64847 0.0
C420 C 0.51379 0.90028 0.54838 0.0
C421 C 0.47664 0.8975 0.69966 0.0
O422 O 0.50655 0.93985 0.61195 0.0
O423 O 0.51787 0.92925 0.66411 0.0
O424 O 0.4901 0.89672 0.69157 0.0
O425 O 0.473 0.90477 0.66191 0.0
C426 C 0.47135 0.90462 0.53368 0.0
O427 O 0.50396 0.89135 0.58708 0.0
O428 O 0.51492 0.91468 0.54186 0.0
In429 In 0.25524 0.41907 0.22472 0.0
O430 O 0.28347 0.43785 0.24426 0.0
O431 O 0.27007 0.41546 0.29375 0.0
C432 C 0.24907 0.43079 0.13065 0.0
C433 C 0.23864 0.42842 0.29611 0.0
C434 C 0.2454 0.38726 0.18787 0.0
O435 O 0.26402 0.43379 0.14258 0.0
O436 O 0.23775 0.4222 0.16612 0.0
O437 O 0.23689 0.39023 0.22321 0.0
O438 O 0.25911 0.40029 0.17239 0.0
C439 C 0.28385 0.42927 0.28507 0.0
O440 O 0.23482 0.41296 0.28975 0.0
O441 O 0.25092 0.43912 0.26671 0.0
In442 In 0.56915 0.83278 0.2035 0.0
O443 O 0.54967 0.8407 0.23005 0.0
O444 O 0.57388 0.85238 0.27011 0.0
C445 C 0.55366 0.81449 0.11196 0.0
C446 C 0.56522 0.80893 0.27745 0.0
C447 C 0.60069 0.85343 0.16146 0.0
O448 O 0.55657 0.82963 0.11829 0.0
O449 O 0.55798 0.80866 0.15224 0.0
O450 O 0.59753 0.8416 0.19546 0.0
O451 O 0.58797 0.8551 0.14932 0.0
C452 C 0.55926 0.85093 0.26692 0.0
O453 O 0.5797 0.81992 0.25861 0.0
O454 O 0.55266 0.81002 0.25897 0.0
In455 In 0.17128 0.73858 0.19636 0.0
O456 O 0.17427 0.71798 0.24122 0.0
O457 O 0.14951 0.71522 0.24018 0.0
C458 C 0.18955 0.74412 0.10304 0.0
C459 C 0.19222 0.76133 0.27142 0.0
C460 C 0.14841 0.74686 0.15647 0.0
O461 O 0.17621 0.72987 0.11217 0.0
O462 O 0.19361 0.75495 0.14118 0.0
O463 O 0.15838 0.75475 0.19615 0.0
O464 O 0.14958 0.73436 0.13797 0.0
C465 C 0.15899 0.70965 0.25742 0.0
O466 O 0.17708 0.75835 0.26375 0.0
O467 O 0.19668 0.7528 0.24125 0.0
C468 C 0.18989 0.9623 0.30493 0.0
C469 C 0.18093 0.9651 0.34727 0.0
C470 C 0.19776 0.97424 0.26229 0.0
C471 C 0.19676 0.98942 0.26227 0.0
C472 C 0.18798 0.99247 0.30538 0.0
C473 C 0.18009 0.98022 0.34734 0.0
C474 C 0.20695 0.97052 0.21689 0.0
C475 C 0.18682 0.00863 0.30693 0.0
C476 C 0.22956 0.02783 0.18081 0.0
C477 C 0.22005 0.02734 0.13424 0.0
C478 C 0.2222 0.01543 0.22248 0.0
C479 C 0.20496 0.00215 0.21717 0.0
C480 C 0.19547 0.00123 0.16932 0.0
C481 C 0.20312 0.01389 0.12842 0.0
C482 C 0.23272 0.01685 0.27293 0.0
C483 C 0.1771 0.9871 0.162 0.0
H484 H 0.19052 0.95059 0.30455 0.0
H485 H 0.17316 0.98241 0.37997 0.0
H486 H 0.20098 0.97013 0.17637 0.0
H487 H 0.22053 0.98091 0.2147 0.0
H488 H 0.20661 0.95813 0.22315 0.0
H489 H 0.17978 0.00919 0.34383 0.0
H490 H 0.19988 0.02005 0.30705 0.0
H491 H 0.18019 0.00942 0.26931 0.0
H492 H 0.24265 0.03824 0.1856 0.0
H493 H 0.19572 0.01348 0.0925 0.0
H494 H 0.23299 0.00477 0.27906 0.0
H495 H 0.22674 0.0188 0.31024 0.0
H496 H 0.24613 0.02763 0.26983 0.0
H497 H 0.17618 0.9744 0.16605 0.0
H498 H 0.17177 0.98775 0.12123 0.0
H499 H 0.16901 0.98798 0.19496 0.0
C500 C 0.96234 0.208 0.20212 0.0
C501 C 0.96316 0.19955 0.15452 0.0
C502 C 0.976 0.21527 0.23977 0.0
C503 C 0.9908 0.21402 0.22955 0.0
C504 C 0.99187 0.20585 0.18094 0.0
C505 C 0.97802 0.19871 0.1439 0.0
C506 C 0.97444 0.22397 0.29102 0.0
C507 C 0.0075 0.20433 0.16865 0.0
C508 C 0.03252 0.24431 0.302 0.0
C509 C 0.03302 0.23382 0.34394 0.0
C510 C 0.0187 0.23813 0.26504 0.0
C511 C 0.00508 0.22104 0.27016 0.0
C512 C 0.00529 0.21052 0.31335 0.0
C513 C 0.01927 0.21706 0.34984 0.0
C514 C 0.01887 0.24975 0.21972 0.0
C515 C 0.99094 0.19224 0.32013 0.0
H516 H 0.95088 0.20869 0.21052 0.0
H517 H 0.97868 0.19215 0.10723 0.0
H518 H 0.97495 0.21709 0.32836 0.0
H519 H 0.98538 0.23729 0.29359 0.0
H520 H 0.96231 0.22437 0.29186 0.0
H521 H 0.00649 0.19798 0.12835 0.0
H522 H 0.01915 0.21722 0.16814 0.0
H523 H 0.00929 0.19683 0.20172 0.0
H524 H 0.04313 0.25729 0.2973 0.0
H525 H 0.01963 0.2089 0.38213 0.0
H526 H 0.00697 0.25052 0.22119 0.0
H527 H 0.01923 0.24437 0.17882 0.0
H528 H 0.03007 0.26292 0.22288 0.0
H529 H 0.97847 0.19185 0.32399 0.0
H530 H 0.99275 0.18595 0.35698 0.0
H531 H 0.99016 0.18468 0.28292 0.0
C532 C 0.79049 0.80805 0.36076 0.0
C533 C 0.77452 0.80714 0.35826 0.0
C534 C 0.79561 0.8007 0.31916 0.0
C535 C 0.78451 0.79237 0.27397 0.0
C536 C 0.76825 0.79118 0.27174 0.0
C537 C 0.76342 0.79853 0.31405 0.0
C538 C 0.81299 0.80206 0.32313 0.0
C539 C 0.7561 0.78244 0.22412 0.0
C540 C 0.80545 0.7886 0.14273 0.0
C541 C 0.8024 0.77178 0.14685 0.0
C542 C 0.7993 0.79534 0.18317 0.0
C543 C 0.79 0.78503 0.22879 0.0
C544 C 0.78641 0.76787 0.23215 0.0
C545 C 0.79261 0.76143 0.19101 0.0
C546 C 0.8032 0.81366 0.17796 0.0
C547 C 0.77653 0.75649 0.28019 0.0
H548 H 0.7991 0.81471 0.39485 0.0
H549 H 0.75107 0.79785 0.31183 0.0
H550 H 0.81156 0.7891 0.32164 0.0
H551 H 0.821 0.80936 0.28728 0.0
H552 H 0.81988 0.80854 0.36171 0.0
H553 H 0.74377 0.7823 0.22921 0.0
H554 H 0.76215 0.7891 0.18491 0.0
H555 H 0.75335 0.76902 0.22009 0.0
H556 H 0.81302 0.79664 0.10867 0.0
H557 H 0.79023 0.74842 0.19444 0.0
H558 H 0.81155 0.82139 0.21265 0.0
H559 H 0.79119 0.81421 0.18062 0.0
H560 H 0.80974 0.81964 0.13844 0.0
H561 H 0.7838 0.7619 0.31906 0.0
H562 H 0.77412 0.7432 0.27527 0.0
H563 H 0.76403 0.75599 0.28478 0.0
C564 C 0.76021 0.96353 0.8051 0.0
C565 C 0.76877 0.96417 0.85424 0.0
C566 C 0.76794 0.97647 0.76521 0.0
C567 C 0.78462 0.99041 0.77482 0.0
C568 C 0.79313 0.99142 0.82511 0.0
C569 C 0.7851 0.97825 0.86429 0.0
C570 C 0.75844 0.97497 0.71214 0.0
C571 C 0.81089 0.00619 0.83691 0.0
C572 C 0.81166 0.01465 0.6506 0.0
C573 C 0.80977 0.02917 0.65014 0.0
C574 C 0.80348 0.00188 0.69092 0.0
C575 C 0.79326 0.00376 0.73171 0.0
C576 C 0.79118 0.01832 0.73108 0.0
C577 C 0.79943 0.03083 0.6902 0.0
C578 C 0.80588 0.98644 0.69014 0.0
C579 C 0.78039 0.02076 0.77391 0.0
H580 H 0.74758 0.95267 0.79709 0.0
H581 H 0.79178 0.97877 0.90218 0.0
H582 H 0.75744 0.98664 0.70571 0.0
H583 H 0.76566 0.97396 0.67658 0.0
H584 H 0.74531 0.96361 0.7119 0.0
H585 H 0.81545 0.00544 0.87892 0.0
H586 H 0.82008 0.00631 0.80612 0.0
H587 H 0.81104 0.01854 0.83295 0.0
H588 H 0.81967 0.01335 0.61977 0.0
H589 H 0.79796 0.04207 0.69015 0.0
H590 H 0.79325 0.97453 0.68674 0.0
H591 H 0.81182 0.98569 0.72947 0.0
H592 H 0.8141 0.98683 0.65531 0.0
H593 H 0.76706 0.0098 0.7728 0.0
H594 H 0.78003 0.03279 0.76747 0.0
H595 H 0.78553 0.02107 0.81583 0.0
C596 C 0.02079 0.79849 0.85141 0.0
C597 C 0.03602 0.79834 0.84104 0.0
C598 C 0.00738 0.79179 0.8127 0.0
C599 C 0.00928 0.78476 0.76263 0.0
C600 C 0.02448 0.78423 0.75253 0.0
C601 C 0.03768 0.79104 0.79187 0.0
C602 C 0.99132 0.79253 0.8249 0.0
C603 C 0.02692 0.77676 0.69974 0.0
C604 C 0.9686 0.75494 0.68441 0.0
C605 C 0.96807 0.76597 0.64456 0.0
C606 C 0.98213 0.7608 0.72242 0.0
C607 C 0.99541 0.77812 0.72056 0.0
C608 C 0.99522 0.78921 0.67939 0.0
C609 C 0.98153 0.78298 0.64175 0.0
C610 C 0.98196 0.74858 0.76549 0.0
C611 C 0.00921 0.80776 0.6761 0.0
H612 H 0.01949 0.80416 0.88928 0.0
H613 H 0.04944 0.7909 0.78363 0.0
H614 H 0.98956 0.80041 0.79313 0.0
H615 H 0.97993 0.77947 0.82295 0.0
H616 H 0.99172 0.79808 0.86624 0.0
H617 H 0.03931 0.77685 0.69899 0.0
H618 H 0.01634 0.76336 0.69451 0.0
H619 H 0.0265 0.78417 0.66377 0.0
H620 H 0.95822 0.74176 0.68672 0.0
H621 H 0.98114 0.79156 0.6111 0.0
H622 H 0.98097 0.75305 0.80731 0.0
H623 H 0.99414 0.7483 0.76409 0.0
H624 H 0.97111 0.73531 0.7597 0.0
H625 H 0.00934 0.81453 0.71454 0.0
H626 H 0.00752 0.8145 0.64032 0.0
H627 H 0.02192 0.80865 0.67266 0.0
C628 C 0.21542 0.19583 0.6281 0.0
C629 C 0.23166 0.19748 0.63383 0.0
C630 C 0.20916 0.20264 0.668 0.0
C631 C 0.21939 0.21119 0.7147 0.0
C632 C 0.23599 0.21332 0.7198 0.0
C633 C 0.24195 0.20648 0.6792 0.0
C634 C 0.19145 0.20028 0.66097 0.0
C635 C 0.24726 0.22235 0.769 0.0
C636 C 0.2081 0.23988 0.79768 0.0
C637 C 0.19835 0.22895 0.84086 0.0
C638 C 0.21518 0.23433 0.75659 0.0
C639 C 0.21253 0.21748 0.759 0.0
C640 C 0.20312 0.20655 0.80337 0.0
C641 C 0.19609 0.21241 0.84377 0.0
C642 C 0.22513 0.24634 0.70989 0.0
C643 C 0.20018 0.18855 0.80754 0.0
H644 H 0.20743 0.18888 0.59312 0.0
H645 H 0.25452 0.20777 0.68387 0.0
H646 H 0.18303 0.19226 0.69509 0.0
H647 H 0.19203 0.21287 0.66322 0.0
H648 H 0.18548 0.19408 0.62104 0.0
H649 H 0.26012 0.22357 0.76557 0.0
H650 H 0.24892 0.23536 0.7735 0.0
H651 H 0.24103 0.21516 0.80733 0.0
H652 H 0.20985 0.25268 0.79514 0.0
H653 H 0.18855 0.20393 0.87705 0.0
H654 H 0.21856 0.24084 0.67004 0.0
H655 H 0.23812 0.24786 0.70715 0.0
H656 H 0.22648 0.25922 0.71501 0.0
H657 H 0.19276 0.18094 0.77118 0.0
H658 H 0.1931 0.18189 0.84563 0.0
H659 H 0.21264 0.18882 0.80719 0.0
C660 C 0.86314 0.30072 0.64287 0.0
C661 C 0.8537 0.30164 0.6875 0.0
C662 C 0.86909 0.31306 0.60079 0.0
C663 C 0.86564 0.32673 0.60368 0.0
C664 C 0.8565 0.32799 0.64936 0.0
C665 C 0.85056 0.31537 0.69069 0.0
C666 C 0.87875 0.31126 0.55265 0.0
C667 C 0.85277 0.34253 0.65412 0.0
C668 C 0.89346 0.36665 0.5193 0.0
C669 C 0.88273 0.36456 0.47435 0.0
C670 C 0.88805 0.35444 0.56168 0.0
C671 C 0.87157 0.3397 0.55876 0.0
C672 C 0.86079 0.33733 0.51297 0.0
C673 C 0.86648 0.34986 0.47134 0.0
C674 C 0.89987 0.35745 0.60997 0.0
C675 C 0.8432 0.32165 0.50825 0.0
H676 H 0.86555 0.29009 0.64006 0.0
H677 H 0.84325 0.31611 0.72508 0.0
H678 H 0.8717 0.30992 0.51365 0.0
H679 H 0.89153 0.32296 0.54876 0.0
H680 H 0.88057 0.29999 0.55701 0.0
H681 H 0.84596 0.34195 0.69307 0.0
H682 H 0.8649 0.35502 0.65242 0.0
H683 H 0.84476 0.34218 0.61871 0.0
H684 H 0.90602 0.37804 0.52197 0.0
H685 H 0.85815 0.34821 0.43669 0.0
H686 H 0.90242 0.34665 0.61378 0.0
H687 H 0.89365 0.35797 0.64893 0.0
H688 H 0.91232 0.36957 0.60582 0.0
H689 H 0.84423 0.30988 0.50963 0.0
H690 H 0.83655 0.32156 0.46945 0.0
H691 H 0.83516 0.32108 0.54383 0.0
C692 C 0.64539 0.52927 0.46996 0.0
C693 C 0.63166 0.5321 0.47962 0.0
C694 C 0.65929 0.53553 0.50681 0.0
C695 C 0.65941 0.54482 0.5542 0.0
C696 C 0.64577 0.54805 0.56336 0.0
C697 C 0.63206 0.54164 0.52596 0.0
C698 C 0.67368 0.5319 0.49567 0.0
C699 C 0.64549 0.558 0.61324 0.0
C700 C 0.68643 0.54683 0.67771 0.0
C701 C 0.70096 0.56306 0.67102 0.0
C702 C 0.67278 0.5407 0.63991 0.0
C703 C 0.67374 0.55109 0.59454 0.0
C704 C 0.6883 0.56757 0.58801 0.0
C705 C 0.70173 0.57335 0.62634 0.0
C706 C 0.6574 0.52308 0.64823 0.0
C707 C 0.68975 0.57903 0.54028 0.0
H708 H 0.6451 0.52185 0.4343 0.0
H709 H 0.62146 0.54387 0.53364 0.0
H710 H 0.68611 0.54408 0.494 0.0
H711 H 0.67453 0.52416 0.5299 0.0
H712 H 0.67187 0.52487 0.45624 0.0
H713 H 0.63413 0.55976 0.61358 0.0
H714 H 0.64539 0.55119 0.65159 0.0
H715 H 0.65725 0.57081 0.61424 0.0
H716 H 0.68582 0.53881 0.71206 0.0
H717 H 0.71296 0.5859 0.6209 0.0
H718 H 0.65572 0.51492 0.61174 0.0
H719 H 0.64561 0.524 0.65202 0.0
H720 H 0.65863 0.51663 0.68569 0.0
H721 H 0.68906 0.57256 0.50056 0.0
H722 H 0.70192 0.59153 0.54129 0.0
H723 H 0.67886 0.58151 0.541 0.0
C724 C 0.42915 0.1269 0.63579 0.0
C725 C 0.43859 0.13605 0.6823 0.0
C726 C 0.4363 0.12098 0.59611 0.0
C727 C 0.45327 0.12427 0.60323 0.0
C728 C 0.46278 0.13325 0.65058 0.0
C729 C 0.45531 0.13906 0.68962 0.0
C730 C 0.42576 0.1114 0.54622 0.0
C731 C 0.48089 0.1369 0.65963 0.0
C732 C 0.46668 0.09608 0.52726 0.0
C733 C 0.47614 0.10662 0.48296 0.0
C734 C 0.45913 0.10165 0.56656 0.0
C735 C 0.46102 0.11815 0.56132 0.0
C736 C 0.47031 0.12876 0.51618 0.0
C737 C 0.4778 0.12287 0.47747 0.0
C738 C 0.44931 0.08997 0.6141 0.0
C739 C 0.4725 0.14641 0.50919 0.0
H740 H 0.41623 0.12458 0.62986 0.0
H741 H 0.46266 0.14618 0.72542 0.0
H742 H 0.43232 0.11837 0.50793 0.0
H743 H 0.42454 0.09853 0.54394 0.0
H744 H 0.4127 0.1098 0.5471 0.0
H745 H 0.48646 0.14387 0.69892 0.0
H746 H 0.48115 0.12471 0.66029 0.0
H747 H 0.48917 0.14469 0.62493 0.0
H748 H 0.46538 0.0835 0.53178 0.0
H749 H 0.48513 0.13106 0.44336 0.0
H750 H 0.43597 0.0876 0.61459 0.0
H751 H 0.45534 0.09621 0.65386 0.0
H752 H 0.44886 0.07743 0.61178 0.0
H753 H 0.45976 0.14551 0.5071 0.0
H754 H 0.47982 0.15294 0.4713 0.0
H755 H 0.47931 0.15448 0.54551 0.0
C756 C 0.4328 0.29318 0.13248 0.0
C757 C 0.44281 0.29612 0.18004 0.0
C758 C 0.43808 0.30547 0.09038 0.0
C759 C 0.45368 0.32112 0.09625 0.0
C760 C 0.46371 0.32429 0.14461 0.0
C761 C 0.45817 0.3117 0.18594 0.0
C762 C 0.4271 0.30161 0.0393 0.0
C763 C 0.48037 0.34091 0.15239 0.0
C764 C 0.47667 0.34712 0.96909 0.0
C765 C 0.47238 0.36008 0.97061 0.0
C766 C 0.47038 0.33412 0.00915 0.0
C767 C 0.45959 0.33416 0.05165 0.0
C768 C 0.45479 0.3469 0.05233 0.0
C769 C 0.46123 0.35971 0.0117 0.0
C770 C 0.47564 0.32062 0.0069 0.0
C771 C 0.44326 0.34731 0.09691 0.0
H772 H 0.42094 0.28111 0.12763 0.0
H773 H 0.46594 0.314 0.22263 0.0
H774 H 0.42349 0.31162 0.03335 0.0
H775 H 0.43447 0.30184 0.00229 0.0
H776 H 0.41519 0.28891 0.04153 0.0
H777 H 0.48647 0.34151 0.19288 0.0
H778 H 0.48948 0.34245 0.11903 0.0
H779 H 0.4781 0.35191 0.14945 0.0
H780 H 0.4853 0.34737 0.9374 0.0
H781 H 0.45788 0.36971 0.01305 0.0
H782 H 0.46413 0.30763 0.00693 0.0
H783 H 0.48325 0.32159 0.04418 0.0
H784 H 0.48343 0.32193 0.96969 0.0
H785 H 0.4311 0.33486 0.0986 0.0
H786 H 0.44018 0.35768 0.09022 0.0
H787 H 0.44958 0.34929 0.13777 0.0
C788 C 0.70242 0.11906 0.13978 0.0
C789 C 0.70161 0.12814 0.18565 0.0
C790 C 0.68946 0.11261 0.09963 0.0
C791 C 0.67537 0.11533 0.10559 0.0
C792 C 0.67411 0.12385 0.15301 0.0
C793 C 0.68727 0.13017 0.19258 0.0
C794 C 0.69119 0.10349 0.04979 0.0
C795 C 0.6592 0.12689 0.16087 0.0
C796 C 0.65194 0.11673 0.97714 0.0
C797 C 0.63704 0.10062 0.97884 0.0
C798 C 0.66467 0.12158 0.01774 0.0
C799 C 0.66238 0.11001 0.06095 0.0
C800 C 0.64757 0.09355 0.06202 0.0
C801 C 0.63507 0.08904 0.02087 0.0
C802 C 0.68038 0.13922 0.01512 0.0
C803 C 0.64474 0.08087 0.10734 0.0
H804 H 0.71347 0.11742 0.13429 0.0
H805 H 0.68661 0.13719 0.22797 0.0
H806 H 0.67936 0.0909 0.04408 0.0
H807 H 0.69286 0.11118 0.01208 0.0
H808 H 0.70229 0.10136 0.0533 0.0
H809 H 0.6596 0.13278 0.20159 0.0
H810 H 0.65933 0.1355 0.12785 0.0
H811 H 0.6469 0.11463 0.15737 0.0
H812 H 0.6535 0.12572 0.94475 0.0
H813 H 0.62355 0.07656 0.02239 0.0
H814 H 0.69215 0.13819 0.01495 0.0
H815 H 0.68095 0.14667 0.05236 0.0
H816 H 0.68046 0.14646 0.97786 0.0
H817 H 0.65581 0.0787 0.10983 0.0
H818 H 0.63288 0.06833 0.10086 0.0
H819 H 0.64379 0.08613 0.14779 0.0
C820 C 0.86171 0.5436 0.17796 0.0
C821 C 0.8635 0.55997 0.17732 0.0
C822 C 0.86985 0.53882 0.13809 0.0
C823 C 0.87999 0.55072 0.09673 0.0
C824 C 0.8821 0.56738 0.09652 0.0
C825 C 0.87383 0.57181 0.13688 0.0
C826 C 0.86739 0.52097 0.13971 0.0
C827 C 0.89285 0.58041 0.05313 0.0
C828 C 0.91209 0.5422 0.02285 0.0
C829 C 0.90311 0.53398 0.97458 0.0
C830 C 0.90487 0.54808 0.06242 0.0
C831 C 0.88828 0.54566 0.05343 0.0
C832 C 0.87939 0.53791 0.00388 0.0
C833 C 0.88693 0.53215 0.96494 0.0
C834 C 0.91477 0.55638 0.11462 0.0
C835 C 0.8617 0.53521 0.99281 0.0
H836 H 0.85371 0.53441 0.20909 0.0
H837 H 0.87524 0.58449 0.13617 0.0
H838 H 0.86117 0.51406 0.10095 0.0
H839 H 0.88001 0.52164 0.14245 0.0
H840 H 0.85938 0.51337 0.17524 0.0
H841 H 0.89353 0.59295 0.05959 0.0
H842 H 0.90607 0.58247 0.05342 0.0
H843 H 0.88741 0.57553 0.01152 0.0
H844 H 0.92462 0.54367 0.03047 0.0
H845 H 0.87994 0.52578 0.92772 0.0
H846 H 0.90781 0.54835 0.15084 0.0
H847 H 0.91583 0.56908 0.12068 0.0
H848 H 0.92788 0.55811 0.11395 0.0
H849 H 0.85258 0.52636 0.02418 0.0
H850 H 0.85687 0.52975 0.95112 0.0
H851 H 0.86179 0.54754 0.99645 0.0
C852 C 0.57245 0.70262 0.85977 0.0
C853 C 0.56303 0.70155 0.81226 0.0
C854 C 0.56556 0.68986 0.90048 0.0
C855 C 0.54888 0.67566 0.89335 0.0
C856 C 0.53952 0.67421 0.84462 0.0
C857 C 0.54671 0.68722 0.8046 0.0
C858 C 0.57594 0.69183 0.95184 0.0
C859 C 0.52175 0.65914 0.83544 0.0
C860 C 0.53588 0.6357 0.97861 0.0
C861 C 0.52588 0.63725 0.02016 0.0
C862 C 0.54349 0.64813 0.93715 0.0
C863 C 0.54111 0.66251 0.93746 0.0
C864 C 0.5313 0.66433 0.97991 0.0
C865 C 0.52375 0.65163 0.02077 0.0
C866 C 0.55385 0.64575 0.89254 0.0
C867 C 0.52862 0.67959 0.98175 0.0
H868 H 0.58508 0.71369 0.86594 0.0
H869 H 0.53938 0.68636 0.76799 0.0
H870 H 0.5692 0.69291 0.98865 0.0
H871 H 0.57726 0.68033 0.95775 0.0
H872 H 0.58896 0.70333 0.95008 0.0
H873 H 0.51649 0.65955 0.79429 0.0
H874 H 0.52193 0.64696 0.83903 0.0
H875 H 0.51294 0.65899 0.86778 0.0
H876 H 0.53752 0.62457 0.97784 0.0
H877 H 0.51601 0.65286 0.05276 0.0
H878 H 0.56704 0.65694 0.89159 0.0
H879 H 0.548 0.64502 0.85153 0.0
H880 H 0.55465 0.63395 0.89869 0.0
H881 H 0.54118 0.69164 0.98313 0.0
H882 H 0.52093 0.67926 0.01811 0.0
H883 H 0.52195 0.67998 0.94366 0.0
C884 C 0.34531 0.88417 0.01446 0.0
C885 C 0.35968 0.90068 0.01253 0.0
C886 C 0.33231 0.87879 0.97455 0.0
C887 C 0.33377 0.8902 0.93184 0.0
C888 C 0.34799 0.90705 0.93072 0.0
C889 C 0.36078 0.91209 0.97115 0.0
C890 C 0.31726 0.86074 0.9772 0.0
C891 C 0.34995 0.91958 0.88593 0.0
C892 C 0.30948 0.86987 0.7994 0.0
C893 C 0.2947 0.87112 0.80639 0.0
C894 C 0.32251 0.87638 0.83943 0.0
C895 C 0.32065 0.88431 0.88744 0.0
C896 C 0.30603 0.88613 0.89376 0.0
C897 C 0.29322 0.87951 0.8531 0.0
C898 C 0.338 0.87432 0.83118 0.0
C899 C 0.30365 0.89457 0.94427 0.0
H900 H 0.34443 0.87531 0.04634 0.0
H901 H 0.37187 0.92488 0.96947 0.0
H902 H 0.30506 0.86098 0.9776 0.0
H903 H 0.31711 0.85351 0.93986 0.0
H904 H 0.31768 0.85371 0.01434 0.0
H905 H 0.36134 0.93247 0.89254 0.0
H906 H 0.35123 0.91468 0.84518 0.0
H907 H 0.33835 0.92091 0.88401 0.0
H908 H 0.31067 0.86338 0.76339 0.0
H909 H 0.28181 0.88052 0.85869 0.0
H910 H 0.33847 0.866 0.86415 0.0
H911 H 0.34993 0.88694 0.83444 0.0
H912 H 0.33786 0.86856 0.79044 0.0
H913 H 0.30261 0.88695 0.98159 0.0
H914 H 0.29198 0.89579 0.94148 0.0
H915 H 0.31496 0.90753 0.95012 0.0
C916 C 0.12777 0.42576 0.85913 0.0
C917 C 0.13726 0.43776 0.81793 0.0
C918 C 0.11932 0.42959 0.90053 0.0
C919 C 0.12035 0.44578 0.90054 0.0
C920 C 0.12963 0.45783 0.85845 0.0
C921 C 0.13802 0.45367 0.81763 0.0
C922 C 0.10955 0.41644 0.94475 0.0
C923 C 0.1309 0.47519 0.85699 0.0
C924 C 0.08736 0.4523 0.97714 0.0
C925 C 0.09659 0.4613 0.02416 0.0
C926 C 0.09477 0.44673 0.93727 0.0
C927 C 0.1118 0.45021 0.94474 0.0
C928 C 0.12092 0.45861 0.99333 0.0
C929 C 0.11319 0.46407 0.03253 0.0
C930 C 0.08463 0.43774 0.88611 0.0
C931 C 0.13906 0.4624 0.00286 0.0
H932 H 0.12718 0.41344 0.85962 0.0
H933 H 0.14536 0.46298 0.7859 0.0
H934 H 0.1152 0.42167 0.98588 0.0
H935 H 0.09602 0.41349 0.9458 0.0
H936 H 0.1097 0.4043 0.93813 0.0
H937 H 0.13833 0.48295 0.82085 0.0
H938 H 0.11788 0.47364 0.85549 0.0
H939 H 0.13717 0.4824 0.89527 0.0
H940 H 0.07451 0.45011 0.9705 0.0
H941 H 0.12037 0.47103 0.0688 0.0
H942 H 0.0845 0.42548 0.8799 0.0
H943 H 0.09083 0.44584 0.84927 0.0
H944 H 0.07117 0.43503 0.88829 0.0
H945 H 0.13979 0.45052 -0.0014 0.0
H946 H 0.14395 0.468 0.04436 0.0
H947 H 0.14765 0.47156 0.97111 0.0
C948 C 0.12026 0.65142 0.52418 0.0
C949 C 0.12441 0.63841 0.5273 0.0
C950 C 0.12659 0.66342 0.48093 0.0
C951 C 0.13654 0.66175 0.43863 0.0
C952 C 0.1407 0.64855 0.44173 0.0
C953 C 0.13487 0.63726 0.48675 0.0
C954 C 0.12249 0.67776 0.48022 0.0
C955 C 0.15071 0.64594 0.39645 0.0
C956 C 0.1371 0.68219 0.30067 0.0
C957 C 0.15354 0.6966 0.30099 0.0
C958 C 0.13156 0.67041 0.34455 0.0
C959 C 0.14246 0.67367 0.39077 0.0
C960 C 0.15903 0.68836 0.39132 0.0
C961 C 0.16451 0.69946 0.34579 0.0
C962 C 0.11407 0.65452 0.34153 0.0
C963 C 0.17076 0.69266 0.44069 0.0
H964 H 0.11209 0.6522 0.55559 0.0
H965 H 0.13776 0.62693 0.48874 0.0
H966 H 0.13445 0.69029 0.47527 0.0
H967 H 0.11412 0.67617 0.44447 0.0
H968 H 0.11591 0.67812 0.51859 0.0
H969 H 0.15262 0.63487 0.40477 0.0
H970 H 0.14385 0.64373 0.35651 0.0
H971 H 0.16346 0.6576 0.39154 0.0
H972 H 0.12865 0.68009 0.26594 0.0
H973 H 0.17712 0.71084 0.34633 0.0
H974 H 0.10571 0.65486 0.37453 0.0
H975 H 0.11518 0.64293 0.34851 0.0
H976 H 0.10774 0.65326 0.30101 0.0
H977 H 0.16428 0.69377 0.47819 0.0
H978 H 0.18306 0.70485 0.43511 0.0
H979 H 0.17365 0.68223 0.44836 0.0
C980 C 0.3528 0.47066 0.52595 0.0
C981 C 0.3669 0.46828 0.51848 0.0
C982 C 0.33918 0.46391 0.488 0.0
C983 C 0.3397 0.45456 0.4417 0.0
C984 C 0.35371 0.45176 0.43477 0.0
C985 C 0.36715 0.45867 0.47325 0.0
C986 C 0.32439 0.46709 0.49679 0.0
C987 C 0.35468 0.44177 0.3861 0.0
C988 C 0.29793 0.42525 0.36785 0.0
C989 C 0.29869 0.43538 0.3227 0.0
C990 C 0.31126 0.43128 0.40666 0.0
C991 C 0.32569 0.44784 0.40014 0.0
C992 C 0.32669 0.45802 0.35408 0.0
C993 C 0.31316 0.45165 0.31581 0.0
C994 C 0.30977 0.42004 0.45511 0.0
C995 C 0.34193 0.47573 0.34575 0.0
H996 H 0.35259 0.47813 0.56076 0.0
H997 H 0.37803 0.45679 0.46728 0.0
H998 H 0.32357 0.47455 0.46161 0.0
H999 H 0.31213 0.45472 0.49814 0.0
H1000 H 0.3257 0.47422 0.53564 0.0
H1001 H 0.36622 0.44032 0.38764 0.0
H1002 H 0.3431 0.42883 0.38482 0.0
H1003 H 0.35495 0.44836 0.34704 0.0
H1004 H 0.28676 0.41266 0.3734 0.0
H1005 H 0.31377 0.45953 0.28106 0.0
H1006 H 0.30984 0.42646 0.49433 0.0
H1007 H 0.32096 0.41803 0.45617 0.0
H1008 H 0.29787 0.40732 0.45348 0.0
H1009 H 0.34313 0.48403 0.38134 0.0
H1010 H 0.34089 0.48188 0.30725 0.0
H1011 H 0.3539 0.47507 0.34396 0.0
C1012 C 0.5313 0.90389 0.46453 0.0
C1013 C 0.5221 0.8939 0.5101 0.0
C1014 C 0.53792 0.8975 0.4246 0.0
C1015 C 0.53535 0.88076 0.43061 0.0
C1016 C 0.5265 0.87078 0.47735 0.0
C1017 C 0.51992 0.87747 0.51656 0.0
C1018 C 0.54727 0.90851 0.37529 0.0
C1019 C 0.52368 0.85292 0.48531 0.0
C1020 C 0.53696 0.85726 0.30258 0.0
C1021 C 0.55346 0.85944 0.3065 0.0
C1022 C 0.53095 0.86428 0.34251 0.0
C1023 C 0.54168 0.87359 0.38742 0.0
C1024 C 0.55844 0.87603 0.3911 0.0
C1025 C 0.56415 0.86897 0.35047 0.0
C1026 C 0.51305 0.86156 0.33703 0.0
C1027 C 0.57022 0.88586 0.43844 0.0
H1028 H 0.53299 0.9166 0.45928 0.0
H1029 H 0.51281 0.8697 0.55171 0.0
H1030 H 0.56025 0.91003 0.37206 0.0
H1031 H 0.54027 0.90216 0.3368 0.0
H1032 H 0.5486 0.92144 0.37762 0.0
H1033 H 0.51713 0.8471 0.52496 0.0
H1034 H 0.51579 0.84454 0.4509 0.0
H1035 H 0.53614 0.8532 0.48439 0.0
H1036 H 0.52867 0.84988 0.2687 0.0
H1037 H 0.5769 0.87064 0.35378 0.0
H1038 H 0.51352 0.8741 0.33626 0.0
H1039 H 0.50524 0.85439 0.37338 0.0
H1040 H 0.50648 0.85434 0.299 0.0
H1041 H 0.57213 0.89901 0.44021 0.0
H1042 H 0.58296 0.8868 0.43481 0.0
H1043 H 0.56431 0.8795 0.47816 0.0
C1044 C 0.21656 0.11823 0.66167 0.0
C1045 C 0.23377 0.13034 0.65104 0.0
C1046 C 0.21216 0.10608 0.704 0.0
C1047 C 0.22529 0.10631 0.73669 0.0
C1048 C 0.24271 0.11797 0.72426 0.0
C1049 C 0.24673 0.1298 0.68137 0.0
C1050 C 0.19348 0.09362 0.7154 0.0
C1051 C 0.25712 0.11866 0.75833 0.0
C1052 C 0.22033 0.09611 0.88844 0.0
C1053 C 0.22167 0.08128 0.88973 0.0
C1054 C 0.22006 0.10366 0.83828 0.0
C1055 C 0.22109 0.0961 0.78824 0.0
C1056 C 0.22072 0.08019 0.78915 0.0
C1057 C 0.22105 0.07293 0.84021 0.0
C1058 C 0.22032 0.12056 0.83919 0.0
C1059 C 0.22141 0.07158 0.73651 0.0
H1060 H 0.2065 0.11848 0.63777 0.0
H1061 H 0.26005 0.13905 0.67295 0.0
H1062 H 0.1914 0.08056 0.72304 0.0
H1063 H 0.18944 0.09764 0.75315 0.0
H1064 H 0.18512 0.09302 0.68066 0.0
H1065 H 0.26994 0.12762 0.74075 0.0
H1066 H 0.25655 0.1229 0.80097 0.0
H1067 H 0.25572 0.10573 0.76129 0.0
H1068 H 0.22054 0.10244 0.9268 0.0
H1069 H 0.22199 0.06139 0.84117 0.0
H1070 H 0.2108 0.12037 0.8097 0.0
H1071 H 0.23316 0.13098 0.82616 0.0
H1072 H 0.21755 0.12371 0.88095 0.0
H1073 H 0.21304 0.07235 0.70432 0.0
H1074 H 0.21747 0.05791 0.74344 0.0
H1075 H 0.23472 0.07825 0.72034 0.0
C1076 C 0.87605 0.11801 0.67181 0.0
C1077 C 0.87421 0.10192 0.66041 0.0
C1078 C 0.88545 0.12753 0.71773 0.0
C1079 C 0.89315 0.12076 0.753 0.0
C1080 C 0.89247 0.10516 0.73922 0.0
C1081 C 0.88295 0.09588 0.69297 0.0
C1082 C 0.88596 0.14418 0.73086 0.0
C1083 C 0.90065 0.09761 0.77557 0.0
C1084 C 0.92098 0.14996 0.86882 0.0
C1085 C 0.90891 0.14512 0.91148 0.0
C1086 C 0.91628 0.14173 0.81715 0.0
C1087 C 0.89917 0.12845 0.80846 0.0
C1088 C 0.88718 0.12311 0.85223 0.0
C1089 C 0.8922 0.13152 0.90312 0.0
C1090 C 0.92941 0.14765 0.7714 0.0
C1091 C 0.86881 0.10893 0.8448 0.0
H1092 H 0.86949 0.12283 0.64628 0.0
H1093 H 0.88171 0.08351 0.68391 0.0
H1094 H 0.87763 0.1423 0.76707 0.0
H1095 H 0.89916 0.15428 0.74189 0.0
H1096 H 0.88141 0.1488 0.69568 0.0
H1097 H 0.9016 0.08718 0.75436 0.0
H1098 H 0.91367 0.10764 0.78869 0.0
H1099 H 0.89283 0.09225 0.81348 0.0
H1100 H 0.93393 0.16046 0.87528 0.0
H1101 H 0.88286 0.12762 0.93616 0.0
H1102 H 0.92611 0.15428 0.73913 0.0
H1103 H 0.92933 0.13652 0.75145 0.0
H1104 H 0.94257 0.15661 0.78662 0.0
H1105 H 0.86237 0.11282 0.81357 0.0
H1106 H 0.86135 0.10578 0.88385 0.0
H1107 H 0.86842 0.09715 0.82931 0.0
C1108 C 0.90268 0.77959 0.68406 0.0
C1109 C 0.89818 0.76246 0.67492 0.0
C1110 C 0.89484 0.78394 0.72625 0.0
C1111 C 0.88242 0.77084 0.76024 0.0
C1112 C 0.87743 0.75348 0.74985 0.0
C1113 C 0.88535 0.74951 0.70716 0.0
C1114 C 0.9003 0.80255 0.7357 0.0
C1115 C 0.86425 0.73913 0.78534 0.0
C1116 C 0.87596 0.77681 0.91031 0.0
C1117 C 0.85941 0.77457 0.90951 0.0
C1118 C 0.88428 0.7771 0.86123 0.0
C1119 C 0.87581 0.77514 0.81022 0.0
C1120 C 0.85984 0.77464 0.80889 0.0
C1121 C 0.85177 0.77436 0.85886 0.0
C1122 C 0.90138 0.7778 0.86449 0.0
C1123 C 0.8506 0.77289 0.75515 0.0
H1124 H 0.91249 0.78964 0.65878 0.0
H1125 H 0.88177 0.73625 0.69996 0.0
H1126 H 0.88892 0.80413 0.74083 0.0
H1127 H 0.90791 0.80708 0.77435 0.0
H1128 H 0.90824 0.81084 0.70115 0.0
H1129 H 0.86112 0.72627 0.7698 0.0
H1130 H 0.86913 0.74056 0.82826 0.0
H1131 H 0.85225 0.73974 0.78699 0.0
H1132 H 0.88199 0.77721 0.94954 0.0
H1133 H 0.83898 0.7727 0.85819 0.0
H1134 H 0.91051 0.78707 0.83403 0.0
H1135 H 0.89963 0.765 0.8543 0.0
H1136 H 0.90719 0.7815 0.90633 0.0
H1137 H 0.85966 0.78128 0.72286 0.0
H1138 H 0.84026 0.77611 0.76005 0.0
H1139 H 0.84472 0.75946 0.74031 0.0
C1140 C 0.13462 0.25053 0.79607 0.0
C1141 C 0.13461 0.23634 0.81968 0.0
C1142 C 0.12392 0.24854 0.75131 0.0
C1143 C 0.11292 0.23194 0.72985 0.0
C1144 C 0.11217 0.21745 0.75545 0.0
C1145 C 0.1231 0.21983 0.80008 0.0
C1146 C 0.12509 0.26432 0.72508 0.0
C1147 C 0.10049 0.19955 0.73399 0.0
C1148 C 0.08102 0.2304 0.62435 0.0
C1149 C 0.09037 0.23313 0.57546 0.0
C1150 C 0.0877 0.22889 0.6752 0.0
C1151 C 0.10402 0.23015 0.67662 0.0
C1152 C 0.11288 0.23166 0.62678 0.0
C1153 C 0.10593 0.23314 0.57682 0.0
C1154 C 0.07784 0.22707 0.72755 0.0
C1155 C 0.13026 0.23292 0.62643 0.0
H1156 H 0.14339 0.2633 0.81144 0.0
H1157 H 0.12294 0.2088 0.81863 0.0
H1158 H 0.13074 0.26614 0.68316 0.0
H1159 H 0.11212 0.26274 0.72032 0.0
H1160 H 0.13313 0.2761 0.74965 0.0
H1161 H 0.09953 0.18959 0.76319 0.0
H1162 H 0.08744 0.19748 0.72623 0.0
H1163 H 0.10549 0.19785 0.69404 0.0
H1164 H 0.06896 0.23035 0.62332 0.0
H1165 H 0.11309 0.23504 0.53891 0.0
H1166 H 0.08406 0.23944 0.75023 0.0
H1167 H 0.07793 0.21728 0.75514 0.0
H1168 H 0.06433 0.22348 0.7189 0.0
H1169 H 0.13984 0.24514 0.64608 0.0
H1170 H 0.13469 0.23251 0.58391 0.0
H1171 H 0.12991 0.22232 0.65076 0.0
C1172 C 0.77949 0.85062 0.66207 0.0
C1173 C 0.78309 0.86037 0.61364 0.0
C1174 C 0.77874 0.85755 0.71328 0.0
C1175 C 0.78155 0.87448 0.71544 0.0
C1176 C 0.78726 0.88495 0.66773 0.0
C1177 C 0.78803 0.87776 0.61734 0.0
C1178 C 0.77319 0.84619 0.76372 0.0
C1179 C 0.79058 0.90313 0.66831 0.0
C1180 C 0.75275 0.88389 0.80428 0.0
C1181 C 0.76418 0.8947 0.84462 0.0
C1182 C 0.75814 0.87664 0.76337 0.0
C1183 C 0.77533 0.88013 0.76332 0.0
C1184 C 0.78669 0.89027 0.80579 0.0
C1185 C 0.78101 0.8976 0.84576 0.0
C1186 C 0.74561 0.86592 0.71865 0.0
C1187 C 0.80498 0.89395 0.8078 0.0
H1188 H 0.77583 0.8372 0.65946 0.0
H1189 H 0.79111 0.88541 0.58002 0.0
H1190 H 0.7802 0.85352 0.80102 0.0
H1191 H 0.75931 0.84114 0.771 0.0
H1192 H 0.7753 0.83513 0.75845 0.0
H1193 H 0.79722 0.91025 0.63023 0.0
H1194 H 0.77818 0.90293 0.67151 0.0
H1195 H 0.79845 0.91023 0.70461 0.0
H1196 H 0.73972 0.88157 0.80345 0.0
H1197 H 0.78984 0.90583 0.87732 0.0
H1198 H 0.74479 0.85324 0.71587 0.0
H1199 H 0.75018 0.87235 0.67804 0.0
H1200 H 0.73253 0.86385 0.72607 0.0
H1201 H 0.80565 0.88225 0.79828 0.0
H1202 H 0.81094 0.89893 0.84884 0.0
H1203 H 0.81267 0.90372 0.77619 0.0
C1204 C 0.13946 0.92834 0.65457 0.0
C1205 C 0.12899 0.92171 0.60772 0.0
C1206 C 0.13384 0.92034 0.70621 0.0
C1207 C 0.1175 0.90543 0.71044 0.0
C1208 C 0.10614 0.90011 0.66481 0.0
C1209 C 0.11202 0.90842 0.61397 0.0
C1210 C 0.14607 0.92677 0.75452 0.0
C1211 C 0.08852 0.88438 0.66768 0.0
C1212 C 0.11238 0.86791 0.79526 0.0
C1213 C 0.10172 0.86745 0.83805 0.0
C1214 C 0.11823 0.88073 0.7548 0.0
C1215 C 0.11348 0.89354 0.75777 0.0
C1216 C 0.10359 0.89374 0.80282 0.0
C1217 C 0.09765 0.88056 0.84222 0.0
C1218 C 0.12876 0.88002 0.7073 0.0
C1219 C 0.09865 0.90741 0.8082 0.0
H1220 H 0.15255 0.93875 0.65008 0.0
H1221 H 0.10379 0.90344 0.57796 0.0
H1222 H 0.13918 0.9257 0.79364 0.0
H1223 H 0.15228 0.91885 0.75877 0.0
H1224 H 0.15629 0.94033 0.74866 0.0
H1225 H 0.08049 0.88338 0.63141 0.0
H1226 H 0.0898 0.87275 0.66893 0.0
H1227 H 0.08175 0.88448 0.70581 0.0
H1228 H 0.11561 0.85784 0.79207 0.0
H1229 H 0.08955 0.88034 0.8757 0.0
H1230 H 0.14089 0.89243 0.70335 0.0
H1231 H 0.12156 0.87779 0.66804 0.0
H1232 H 0.13195 0.86967 0.71246 0.0
H1233 H 0.10959 0.92022 0.79756 0.0
H1234 H 0.09422 0.90791 0.85065 0.0
H1235 H 0.08807 0.90465 0.77901 0.0
C1236 C 0.75977 0.89238 0.11103 0.0
C1237 C 0.76341 0.90927 0.1027 0.0
C1238 C 0.76242 0.88701 0.16238 0.0
C1239 C 0.76891 0.89884 0.20667 0.0
C1240 C 0.77327 0.91611 0.19811 0.0
C1241 C 0.77045 0.92116 0.14596 0.0
C1242 C 0.75767 0.86847 0.16966 0.0
C1243 C 0.78033 0.92906 0.2444 0.0
C1244 C 0.75448 0.87503 0.34167 0.0
C1245 C 0.76829 0.87255 0.35397 0.0
C1246 C 0.75511 0.88494 0.29618 0.0
C1247 C 0.76991 0.8925 0.26232 0.0
C1248 C 0.78442 0.89123 0.27728 0.0
C1249 C 0.78343 0.8812 0.32302 0.0
C1250 C 0.73938 0.88606 0.28174 0.0
C1251 C 0.80049 0.89927 0.24252 0.0
H1252 H 0.75447 0.88317 0.07755 0.0
H1253 H 0.7733 0.93424 0.13953 0.0
H1254 H 0.76875 0.86768 0.18609 0.0
H1255 H 0.74709 0.86218 0.20008 0.0
H1256 H 0.75348 0.86114 0.13034 0.0
H1257 H 0.78504 0.94234 0.22939 0.0
H1258 H 0.77015 0.92595 0.27555 0.0
H1259 H 0.79099 0.92855 0.26564 0.0
H1260 H 0.74283 0.86855 0.36598 0.0
H1261 H 0.79423 0.87948 0.33282 0.0
H1262 H 0.73303 0.87793 0.24506 0.0
H1263 H 0.74296 0.89941 0.27092 0.0
H1264 H 0.72997 0.88165 0.31619 0.0
H1265 H 0.79822 0.89158 0.20439 0.0
H1266 H 0.81155 0.89983 0.26487 0.0
H1267 H 0.80391 0.91243 0.22973 0.0
C1268 C 0.10315 0.86221 0.1072 0.0
C1269 C 0.08639 0.84947 0.09405 0.0
C1270 C 0.10704 0.87034 0.15862 0.0
C1271 C 0.09383 0.86562 0.19809 0.0
C1272 C 0.07677 0.85307 0.18474 0.0
C1273 C 0.07323 0.84509 0.13263 0.0
C1274 C 0.12542 0.88371 0.17109 0.0
C1275 C 0.0624 0.84782 0.22584 0.0
C1276 C 0.11338 0.8761 0.34022 0.0
C1277 C 0.11618 0.89274 0.34731 0.0
C1278 C 0.10454 0.86632 0.29394 0.0
C1279 C 0.09843 0.87343 0.2539 0.0
C1280 C 0.09982 0.88959 0.26351 0.0
C1281 C 0.10872 0.89909 0.31026 0.0
C1282 C 0.1032 0.84908 0.28542 0.0
C1283 C 0.09333 0.89753 0.22204 0.0
H1284 H 0.11336 0.86573 0.0774 0.0
H1285 H 0.06025 0.83526 0.12247 0.0
H1286 H 0.12619 0.89593 0.1835 0.0
H1287 H 0.13027 0.87939 0.20618 0.0
H1288 H 0.13404 0.88626 0.13513 0.0
H1289 H 0.04964 0.8391 0.20731 0.0
H1290 H 0.06437 0.84117 0.26126 0.0
H1291 H 0.06239 0.85929 0.24254 0.0
H1292 H 0.11891 0.87104 0.36924 0.0
H1293 H 0.11069 0.9119 0.31595 0.0
H1294 H 0.11253 0.85025 0.25334 0.0
H1295 H 0.09022 0.83951 0.27062 0.0
H1296 H 0.10599 0.84421 0.32394 0.0
H1297 H 0.10227 0.90245 0.18643 0.0
H1298 H 0.09239 0.90837 0.24014 0.0
H1299 H 0.08056 0.88786 0.20593 0.0
C1300 C 0.14869 0.22379 0.13172 0.0
C1301 C 0.14057 0.22261 0.08119 0.0
C1302 C 0.14075 0.22373 0.18174 0.0
C1303 C 0.12443 0.22248 0.18059 0.0
C1304 C 0.11548 0.21939 0.12998 0.0
C1305 C 0.12368 0.21946 0.08083 0.0
C1306 C 0.15051 0.22666 0.2351 0.0
C1307 C 0.098 0.21783 0.12692 0.0
C1308 C 0.09854 0.21955 0.30784 0.0
C1309 C 0.10264 0.23669 0.31382 0.0
C1310 C 0.10618 0.21475 0.26629 0.0
C1311 C 0.11799 0.22737 0.22968 0.0
C1312 C 0.12256 0.24477 0.23676 0.0
C1313 C 0.11487 0.24922 0.27892 0.0
C1314 C 0.1012 0.19614 0.26044 0.0
C1315 C 0.13508 0.25863 0.1984 0.0
H1316 H 0.16173 0.22614 0.13209 0.0
H1317 H 0.11729 0.21829 0.04172 0.0
H1318 H 0.15615 0.24029 0.24755 0.0
H1319 H 0.14186 0.21867 0.26883 0.0
H1320 H 0.16109 0.22376 0.23072 0.0
H1321 H 0.09185 0.21312 0.08594 0.0
H1322 H 0.08939 0.209 0.15925 0.0
H1323 H 0.09929 0.23058 0.13438 0.0
H1324 H 0.08919 0.20984 0.33518 0.0
H1325 H 0.11814 0.26248 0.28365 0.0
H1326 H 0.11277 0.19488 0.25515 0.0
H1327 H 0.09316 0.19068 0.223 0.0
H1328 H 0.09385 0.1884 0.29674 0.0
H1329 H 0.14733 0.25849 0.19694 0.0
H1330 H 0.13788 0.27162 0.21123 0.0
H1331 H 0.12978 0.25619 0.15584 0.0
C1332 C 0.87708 0.77967 0.18865 0.0
C1333 C 0.86499 0.76301 0.17192 0.0
C1334 C 0.8883 0.78241 0.23273 0.0
C1335 C 0.88726 0.76813 0.26072 0.0
C1336 C 0.87558 0.7513 0.24238 0.0
C1337 C 0.86459 0.74895 0.19811 0.0
C1338 C 0.9007 0.80053 0.25087 0.0
C1339 C 0.87407 0.73573 0.27125 0.0
C1340 C 0.91984 0.76973 0.36334 0.0
C1341 C 0.9112 0.76799 0.41316 0.0
C1342 C 0.91278 0.77098 0.31295 0.0
C1343 C 0.8968 0.77049 0.31296 0.0
C1344 C 0.88879 0.77011 0.36362 0.0
C1345 C 0.8961 0.76886 0.4131 0.0
C1346 C 0.92178 0.7716 0.25969 0.0
C1347 C 0.87181 0.76971 0.36549 0.0
H1348 H 0.87752 0.79059 0.16812 0.0
H1349 H 0.85536 0.73605 0.18501 0.0
H1350 H 0.89642 0.80311 0.2909 0.0
H1351 H 0.91367 0.80226 0.25739 0.0
H1352 H 0.9016 0.81015 0.22029 0.0
H1353 H 0.8653 0.72362 0.24926 0.0
H1354 H 0.88685 0.73679 0.27479 0.0
H1355 H 0.86914 0.73495 0.3138 0.0
H1356 H 0.93155 0.7691 0.36337 0.0
H1357 H 0.88951 0.76773 0.45172 0.0
H1358 H 0.9217 0.78114 0.23087 0.0
H1359 H 0.91487 0.7589 0.23914 0.0
H1360 H 0.93526 0.77483 0.26685 0.0
H1361 H 0.87226 0.78005 0.3394 0.0
H1362 H 0.8682 0.77118 0.40819 0.0
H1363 H 0.86159 0.75731 0.34868 0.0
C1364 C 0.2151 0.09603 0.16519 0.0
C1365 C 0.23173 0.10001 0.15015 0.0
C1366 C 0.21242 0.10476 0.20861 0.0
C1367 C 0.22672 0.11759 0.23773 0.0
C1368 C 0.24355 0.12227 0.22064 0.0
C1369 C 0.24584 0.11344 0.17693 0.0
C1370 C 0.19432 0.09962 0.22516 0.0
C1371 C 0.25916 0.1359 0.25069 0.0
C1372 C 0.22626 0.14842 0.34326 0.0
C1373 C 0.2275 0.14083 0.39229 0.0
C1374 C 0.22466 0.14037 0.29209 0.0
C1375 C 0.22434 0.12449 0.29052 0.0
C1376 C 0.22411 0.11617 0.34038 0.0
C1377 C 0.22568 0.12446 0.39065 0.0
C1378 C 0.22462 0.14944 0.23973 0.0
C1379 C 0.22365 0.09916 0.34061 0.0
H1380 H 0.20415 0.08577 0.14411 0.0
H1381 H 0.25873 0.11667 0.16505 0.0
H1382 H 0.19097 0.09202 0.26387 0.0
H1383 H 0.19314 0.1111 0.23341 0.0
H1384 H 0.18487 0.09173 0.19285 0.0
H1385 H 0.2713 0.13903 0.22929 0.0
H1386 H 0.25846 0.1478 0.25475 0.0
H1387 H 0.25956 0.13139 0.29306 0.0
H1388 H 0.2276 0.16107 0.34452 0.0
H1389 H 0.22638 0.11846 0.42867 0.0
H1390 H 0.21521 0.14027 0.20961 0.0
H1391 H 0.23747 0.15531 0.22022 0.0
H1392 H 0.22156 0.15976 0.24797 0.0
H1393 H 0.21317 0.08979 0.31371 0.0
H1394 H 0.2218 0.09365 0.38281 0.0
H1395 H 0.2359 0.10091 0.32388 0.0
C1396 C 0.88184 0.08942 0.39528 0.0
C1397 C 0.86478 0.0761 0.39856 0.0
C1398 C 0.88865 0.09798 0.34536 0.0
C1399 C 0.87815 0.09294 0.29766 0.0
C1400 C 0.86169 0.0781 0.29923 0.0
C1401 C 0.85513 0.06982 0.34996 0.0
C1402 C 0.90636 0.11364 0.3454 0.0
C1403 C 0.85032 0.07202 0.24879 0.0
C1404 C 0.88506 0.13067 0.21019 0.0
C1405 C 0.89613 0.13087 0.16926 0.0
C1406 C 0.8786 0.11794 0.25099 0.0
C1407 C 0.88317 0.10498 0.25034 0.0
C1408 C 0.89364 0.10462 0.20743 0.0
C1409 C 0.90014 0.1177 0.16757 0.0
C1410 C 0.86748 0.11881 0.29619 0.0
C1411 C 0.89848 0.09083 0.20472 0.0
H1412 H 0.88943 0.09414 0.43271 0.0
H1413 H 0.84197 0.05941 0.35221 0.0
H1414 H 0.91375 0.1137 0.30871 0.0
H1415 H 0.90521 0.12534 0.34341 0.0
H1416 H 0.91371 0.11437 0.38319 0.0
H1417 H 0.83982 0.05852 0.25333 0.0
H1418 H 0.84445 0.08019 0.24258 0.0
H1419 H 0.85783 0.07309 0.21118 0.0
H1420 H 0.88188 0.14079 0.21146 0.0
H1421 H 0.90858 0.11773 0.13556 0.0
H1422 H 0.87405 0.12091 0.33666 0.0
H1423 H 0.85519 0.1065 0.29882 0.0
H1424 H 0.86458 0.1293 0.28942 0.0
H1425 H 0.90809 0.09314 0.23724 0.0
H1426 H 0.90407 0.09061 0.16402 0.0
H1427 H 0.88714 0.07802 0.21257 0.0
C1428 C 0.87557 0.42523 0.21226 0.0
C1429 C 0.87944 0.412 0.21605 0.0
C1430 C 0.87768 0.43397 0.16244 0.0
C1431 C 0.88364 0.4292 0.11533 0.0
C1432 C 0.88553 0.41452 0.11729 0.0
C1433 C 0.88343 0.40606 0.16791 0.0
C1434 C 0.87536 0.44946 0.16205 0.0
C1435 C 0.89141 0.40876 0.06748 0.0
C1436 C 0.88642 0.45367 0.98446 0.0
C1437 C 0.90348 0.46711 0.98677 0.0
C1438 C 0.87991 0.44064 0.02446 0.0
C1439 C 0.89067 0.44129 0.0681 0.0
C1440 C 0.90808 0.45452 0.06944 0.0
C1441 C 0.91429 0.46722 0.02852 0.0
C1442 C 0.8614 0.42656 0.02109 0.0
C1443 C 0.91998 0.4557 0.11545 0.0
H1444 H 0.87226 0.42971 0.2493 0.0
H1445 H 0.88632 0.39575 0.17055 0.0
H1446 H 0.88813 0.46128 0.16073 0.0
H1447 H 0.86818 0.44946 0.12484 0.0
H1448 H 0.86846 0.45002 0.19934 0.0
H1449 H 0.88872 0.39537 0.07211 0.0
H1450 H 0.88508 0.40969 0.02932 0.0
H1451 H 0.90544 0.41723 0.06222 0.0
H1452 H 0.87805 0.45347 0.95186 0.0
H1453 H 0.9275 0.47755 0.0303 0.0
H1454 H 0.85389 0.42846 0.05382 0.0
H1455 H 0.86026 0.41386 0.02823 0.0
H1456 H 0.85557 0.42637 0.98042 0.0
H1457 H 0.91523 0.45771 0.15549 0.0
H1458 H 0.93331 0.46638 0.10915 0.0
H1459 H 0.92023 0.44355 0.11866 0.0
C1460 C 0.58353 0.48197 0.19805 0.0
C1461 C 0.57195 0.47949 0.24059 0.0
C1462 C 0.57767 0.47339 0.14725 0.0
C1463 C 0.55988 0.46215 0.13926 0.0
C1464 C 0.54822 0.4594 0.18254 0.0
C1465 C 0.55441 0.46809 0.23258 0.0
C1466 C 0.59042 0.47656 0.10189 0.0
C1467 C 0.52914 0.4475 0.17574 0.0
C1468 C 0.53756 0.45143 0.00074 0.0
C1469 C 0.53369 0.43442 0.99371 0.0
C1470 C 0.54727 0.46112 0.04606 0.0
C1471 C 0.55307 0.45352 0.0854 0.0
C1472 C 0.55006 0.4367 0.07671 0.0
C1473 C 0.54043 0.42734 0.03076 0.0
C1474 C 0.55032 0.47908 0.05368 0.0
C1475 C 0.55599 0.42815 0.11786 0.0
H1476 H 0.5971 0.49078 0.20416 0.0
H1477 H 0.54538 0.46607 0.26537 0.0
H1478 H 0.58899 0.46423 0.08739 0.0
H1479 H 0.58784 0.4826 0.06598 0.0
H1480 H 0.60387 0.48502 0.11558 0.0
H1481 H 0.52188 0.44644 0.21407 0.0
H1482 H 0.5242 0.45222 0.14204 0.0
H1483 H 0.5265 0.4345 0.16392 0.0
H1484 H 0.53254 0.45701 0.97178 0.0
H1485 H 0.53754 0.41422 0.02526 0.0
H1486 H 0.56392 0.48804 0.06452 0.0
H1487 H 0.54233 0.47922 0.08833 0.0
H1488 H 0.54705 0.4839 0.01599 0.0
H1489 H 0.56955 0.43688 0.12971 0.0
H1490 H 0.55476 0.41607 0.1014 0.0
H1491 H 0.54815 0.42509 0.15599 0.0
C1492 C 0.57503 0.11792 0.01058 0.0
C1493 C 0.5688 0.101 0.99281 0.0
C1494 C 0.5672 0.12156 0.05458 0.0
C1495 C 0.553 0.10792 0.08155 0.0
C1496 C 0.54604 0.09095 0.06145 0.0
C1497 C 0.55402 0.08771 0.01717 0.0
C1498 C 0.57476 0.13984 0.07423 0.0
C1499 C 0.53089 0.07602 0.08912 0.0
C1500 C 0.54675 0.10769 0.23524 0.0
C1501 C 0.53161 0.10844 0.23854 0.0
C1502 C 0.55455 0.10878 0.18438 0.0
C1503 C 0.54703 0.11072 0.13558 0.0
C1504 C 0.53258 0.11299 0.13905 0.0
C1505 C 0.52497 0.11179 0.19081 0.0
C1506 C 0.57003 0.10642 0.18264 0.0
C1507 C 0.52445 0.11543 0.08793 0.0
H1508 H 0.58634 0.12828 0.9913 0.0
H1509 H 0.54905 0.07464 0.00313 0.0
H1510 H 0.56449 0.14282 0.08399 0.0
H1511 H 0.58218 0.14161 0.1127 0.0
H1512 H 0.5835 0.14915 0.04301 0.0
H1513 H 0.52605 0.06393 0.06524 0.0
H1514 H 0.5347 0.07402 0.13087 0.0
H1515 H 0.52026 0.07876 0.09445 0.0
H1516 H 0.55206 0.10536 0.2723 0.0
H1517 H 0.51329 0.11244 0.19337 0.0
H1518 H 0.58037 0.11661 0.15735 0.0
H1519 H 0.56645 0.09393 0.16301 0.0
H1520 H 0.5752 0.10664 0.22452 0.0
H1521 H 0.53437 0.12437 0.05862 0.0
H1522 H 0.51572 0.12043 0.09812 0.0
H1523 H 0.51687 0.10294 0.06656 0.0
C1524 C 0.77122 0.56315 0.91882 0.0
C1525 C 0.75526 0.56222 0.91488 0.0
C1526 C 0.77754 0.56143 0.9697 0.0
C1527 C 0.76762 0.55871 0.01793 0.0
C1528 C 0.75096 0.55656 0.01378 0.0
C1529 C 0.74493 0.55835 0.962 0.0
C1530 C 0.79532 0.56367 0.97219 0.0
C1531 C 0.73996 0.55341 0.06429 0.0
C1532 C 0.7864 0.54796 0.141 0.0
C1533 C 0.79722 0.56435 0.16274 0.0
C1534 C 0.77555 0.54564 0.09616 0.0
C1535 C 0.7757 0.56008 0.07252 0.0
C1536 C 0.78579 0.57648 0.09665 0.0
C1537 C 0.79642 0.57841 0.14157 0.0
C1538 C 0.76479 0.52793 0.072 0.0
C1539 C 0.78629 0.59221 0.07267 0.0
H1540 H 0.77914 0.56591 0.88226 0.0
H1541 H 0.73256 0.5576 0.95895 0.0
H1542 H 0.80403 0.57567 0.99476 0.0
H1543 H 0.79512 0.55291 0.99509 0.0
H1544 H 0.80077 0.56437 0.93044 0.0
H1545 H 0.72643 0.5491 0.0532 0.0
H1546 H 0.74028 0.54365 0.09146 0.0
H1547 H 0.74507 0.56545 0.08848 0.0
H1548 H 0.78682 0.53701 0.15773 0.0
H1549 H 0.80462 0.59108 0.15868 0.0
H1550 H 0.77068 0.527 0.03285 0.0
H1551 H 0.7517 0.52542 0.06211 0.0
H1552 H 0.76378 0.5178 0.10052 0.0
H1553 H 0.79274 0.59516 0.0318 0.0
H1554 H 0.79331 0.60363 0.09971 0.0
H1555 H 0.7731 0.58987 0.06606 0.0
C1556 C 0.43541 0.20037 0.93979 0.0
C1557 C 0.43546 0.18494 0.93325 0.0
C1558 C 0.43734 0.20779 0.99188 0.0
C1559 C 0.4394 0.19958 0.03872 0.0
C1560 C 0.4406 0.18458 0.03205 0.0
C1561 C 0.43858 0.17738 0.97909 0.0
C1562 C 0.43613 0.22388 -0.00295 0.0
C1563 C 0.44303 0.17564 0.08099 0.0
C1564 C 0.45137 0.22857 0.16315 0.0
C1565 C 0.43509 0.22389 0.18404 0.0
C1566 C 0.45323 0.21965 0.11863 0.0
C1567 C 0.43843 0.20592 0.09437 0.0
C1568 C 0.42212 0.20029 0.11831 0.0
C1569 C 0.42066 0.20933 0.16304 0.0
C1570 C 0.47086 0.22577 0.09498 0.0
C1571 C 0.40601 0.18565 0.09375 0.0
H1572 H 0.43323 0.20637 0.90426 0.0
H1573 H 0.43867 0.16547 0.97403 0.0
H1574 H 0.42439 0.22102 0.02047 0.0
H1575 H 0.44728 0.23385 0.02033 0.0
H1576 H 0.43563 0.22924 0.95618 0.0
H1577 H 0.44701 0.1663 0.06808 0.0
H1578 H 0.45277 0.18504 0.10985 0.0
H1579 H 0.43078 0.1686 0.10401 0.0
H1580 H 0.46261 0.23967 0.17989 0.0
H1581 H 0.40806 0.20553 0.17958 0.0
H1582 H 0.47247 0.23329 0.05689 0.0
H1583 H 0.47252 0.21475 0.08346 0.0
H1584 H 0.48113 0.23406 0.12457 0.0
H1585 H 0.40324 0.18973 0.05361 0.0
H1586 H 0.39472 0.18149 0.12119 0.0
H1587 H 0.40774 0.17449 0.0856 0.0
C1588 C 0.78433 0.23642 0.93773 0.0
C1589 C 0.80112 0.25035 0.93627 0.0
C1590 C 0.77714 0.22778 0.98723 0.0
C1591 C 0.78695 0.23335 0.03636 0.0
C1592 C 0.8031 0.24861 0.03622 0.0
C1593 C 0.81005 0.25697 0.98588 0.0
C1594 C 0.7598 0.21164 0.98561 0.0
C1595 C 0.81374 0.25518 0.0881 0.0
C1596 C 0.76362 0.20897 0.1654 0.0
C1597 C 0.76822 0.19622 0.16713 0.0
C1598 C 0.7703 0.22178 0.1247 0.0
C1599 C 0.7816 0.2216 0.0845 0.0
C1600 C 0.78672 0.20908 0.08727 0.0
C1601 C 0.78003 0.19659 0.12878 0.0
C1602 C 0.76481 0.23511 0.1236 0.0
C1603 C 0.79872 0.20841 0.04497 0.0
H1604 H 0.77729 0.23142 0.89946 0.0
H1605 H 0.823 0.26782 0.98494 0.0
H1606 H 0.76152 0.20031 0.98988 0.0
H1607 H 0.75168 0.21135 0.02048 0.0
H1608 H 0.7529 0.21039 0.94629 0.0
H1609 H 0.82401 0.26879 0.08379 0.0
H1610 H 0.80561 0.25401 0.12414 0.0
H1611 H 0.81987 0.24738 0.09688 0.0
H1612 H 0.7546 0.20881 0.19541 0.0
H1613 H 0.78367 0.18679 0.13017 0.0
H1614 H 0.756 0.23258 0.08827 0.0
H1615 H 0.77606 0.2481 0.11762 0.0
H1616 H 0.7581 0.23505 0.16218 0.0
H1617 H 0.79268 0.20581 0.00345 0.0
H1618 H 0.802 0.19831 0.05443 0.0
H1619 H 0.81077 0.22095 0.04287 0.0
C1620 C 0.44379 0.25837 0.49021 0.0
C1621 C 0.44895 0.25333 0.44254 0.0
C1622 C 0.44317 0.25076 0.54144 0.0
C1623 C 0.44771 0.23783 0.54441 0.0
C1624 C 0.45487 0.23427 0.49771 0.0
C1625 C 0.45547 0.24215 0.44728 0.0
C1626 C 0.436 0.25529 0.59085 0.0
C1627 C 0.46002 0.22068 0.49917 0.0
C1628 C 0.44832 0.21511 0.67565 0.0
C1629 C 0.43219 0.20018 0.67297 0.0
C1630 C 0.4533 0.22807 0.63578 0.0
C1631 C 0.44199 0.22579 0.59182 0.0
C1632 C 0.42547 0.21099 0.59013 0.0
C1633 C 0.42073 0.19843 0.63103 0.0
C1634 C 0.47084 0.24385 0.63966 0.0
C1635 C 0.41304 0.20801 0.54371 0.0
H1636 H 0.4389 0.26716 0.48682 0.0
H1637 H 0.45974 0.23844 0.41059 0.0
H1638 H 0.42233 0.24538 0.59635 0.0
H1639 H 0.44294 0.25561 0.62915 0.0
H1640 H 0.43675 0.2679 0.58549 0.0
H1641 H 0.46753 0.22119 0.46209 0.0
H1642 H 0.46774 0.22209 0.53655 0.0
H1643 H 0.44832 0.20782 0.50092 0.0
H1644 H 0.45715 0.21657 0.70848 0.0
H1645 H 0.40823 0.18693 0.629 0.0
H1646 H 0.47016 0.25558 0.63067 0.0
H1647 H 0.47944 0.24306 0.60848 0.0
H1648 H 0.47667 0.24517 0.68113 0.0
H1649 H 0.41079 0.21902 0.54033 0.0
H1650 H 0.40047 0.19614 0.54968 0.0
H1651 H 0.41856 0.20699 0.50386 0.0
C1652 C 0.78254 0.23182 0.64905 0.0
C1653 C 0.79377 0.22737 0.67444 0.0
C1654 C 0.77248 0.22246 0.60375 0.0
C1655 C 0.7738 0.20843 0.58353 0.0
C1656 C 0.78428 0.20322 0.61136 0.0
C1657 C 0.79415 0.21277 0.65654 0.0
C1658 C 0.76132 0.22827 0.57544 0.0
C1659 C 0.786 0.18829 0.59111 0.0
C1660 C 0.74484 0.17756 0.47305 0.0
C1661 C 0.75547 0.184 0.42656 0.0
C1662 C 0.75021 0.18585 0.52444 0.0
C1663 C 0.7665 0.20085 0.52887 0.0
C1664 C 0.77678 0.20789 0.48123 0.0
C1665 C 0.77113 0.19937 0.43072 0.0
C1666 C 0.73888 0.1781 0.57437 0.0
C1667 C 0.79419 0.22394 0.48406 0.0
H1668 H 0.78209 0.24301 0.66317 0.0
H1669 H 0.80267 0.20917 0.67648 0.0
H1670 H 0.76741 0.23474 0.53602 0.0
H1671 H 0.74858 0.21714 0.56523 0.0
H1672 H 0.75945 0.2374 0.60134 0.0
H1673 H 0.7931 0.18472 0.62085 0.0
H1674 H 0.77318 0.17693 0.58375 0.0
H1675 H 0.79299 0.19169 0.55116 0.0
H1676 H 0.7327 0.16569 0.46982 0.0
H1677 H 0.77928 0.2045 0.39465 0.0
H1678 H 0.73814 0.18813 0.59881 0.0
H1679 H 0.74447 0.17223 0.60154 0.0
H1680 H 0.72569 0.16804 0.56273 0.0
H1681 H 0.7932 0.23444 0.5044 0.0
H1682 H 0.79999 0.22839 0.44254 0.0
H1683 H 0.803 0.22144 0.5093 0.0
C1684 C 0.78168 0.57774 0.61898 0.0
C1685 C 0.77034 0.56562 0.65677 0.0
C1686 C 0.7894 0.57307 0.57758 0.0
C1687 C 0.78585 0.55588 0.57442 0.0
C1688 C 0.77514 0.54378 0.61433 0.0
C1689 C 0.76735 0.54877 0.65485 0.0
C1690 C 0.80073 0.58637 0.53562 0.0
C1691 C 0.77136 0.52546 0.61301 0.0
C1692 C 0.78975 0.54556 0.42676 0.0
C1693 C 0.80709 0.55022 0.42459 0.0
C1694 C 0.78207 0.54568 0.47684 0.0
C1695 C 0.792 0.55048 0.52578 0.0
C1696 C 0.80887 0.5531 0.52479 0.0
C1697 C 0.81629 0.55297 0.47387 0.0
C1698 C 0.76397 0.54261 0.47612 0.0
C1699 C 0.81967 0.55773 0.57646 0.0
H1700 H 0.78409 0.5908 0.62058 0.0
H1701 H 0.75872 0.5394 0.68451 0.0
H1702 H 0.81339 0.58712 0.53347 0.0
H1703 H 0.79479 0.58262 0.49402 0.0
H1704 H 0.80281 0.59932 0.54547 0.0
H1705 H 0.76562 0.51867 0.65241 0.0
H1706 H 0.7622 0.51848 0.57908 0.0
H1707 H 0.78321 0.52493 0.60479 0.0
H1708 H 0.78253 0.54315 0.38869 0.0
H1709 H 0.82968 0.55645 0.47235 0.0
H1710 H 0.7643 0.55501 0.48149 0.0
H1711 H 0.75638 0.53414 0.51071 0.0
H1712 H 0.75727 0.53674 0.43668 0.0
H1713 H 0.82476 0.57149 0.58599 0.0
H1714 H 0.8307 0.55556 0.57137 0.0
H1715 H 0.8119 0.55018 0.61237 0.0
C1716 C 0.57843 0.11657 0.73016 0.0
C1717 C 0.59098 0.11174 0.73233 0.0
C1718 C 0.5713 0.1174 0.67975 0.0
C1719 C 0.57699 0.11341 0.63043 0.0
C1720 C 0.59108 0.11054 0.63182 0.0
C1721 C 0.59794 0.10969 0.6831 0.0
C1722 C 0.5564 0.12068 0.68012 0.0
C1723 C 0.59783 0.10675 0.57984 0.0
C1724 C 0.54037 0.0885 0.53143 0.0
C1725 C 0.54171 0.10148 0.49639 0.0
C1726 C 0.55234 0.09213 0.5736 0.0
C1727 C 0.56612 0.10912 0.58033 0.0
C1728 C 0.56812 0.12208 0.543 0.0
C1729 C 0.55575 0.11813 0.50167 0.0
C1730 C 0.5497 0.07793 0.61276 0.0
C1731 C 0.58286 0.14022 0.5481 0.0
H1732 H 0.57324 0.11845 0.76825 0.0
H1733 H 0.60776 0.10608 0.68468 0.0
H1734 H 0.55793 0.12995 0.64736 0.0
H1735 H 0.54435 0.10851 0.67152 0.0
H1736 H 0.55503 0.12573 0.72055 0.0
H1737 H 0.6109 0.10866 0.58602 0.0
H1738 H 0.58918 0.09321 0.56758 0.0
H1739 H 0.59817 0.115 0.54522 0.0
H1740 H 0.52959 0.0756 0.5272 0.0
H1741 H 0.55693 0.12815 0.47408 0.0
H1742 H 0.54701 0.08086 0.6549 0.0
H1743 H 0.5615 0.07699 0.61523 0.0
H1744 H 0.53889 0.06527 0.59997 0.0
H1745 H 0.58042 0.14669 0.58306 0.0
H1746 H 0.58451 0.14778 0.50999 0.0
H1747 H 0.59502 0.14035 0.55693 0.0
C1748 C 0.88031 0.43312 0.5093 0.0
C1749 C 0.89511 0.43853 0.47727 0.0
C1750 C 0.88041 0.4427 0.55516 0.0
C1751 C 0.89568 0.45797 0.56907 0.0
C1752 C 0.91019 0.46417 0.53415 0.0
C1753 C 0.90973 0.45435 0.48863 0.0
C1754 C 0.86464 0.43576 0.59112 0.0
C1755 C 0.92669 0.48045 0.5474 0.0
C1756 C 0.89806 0.48761 0.68491 0.0
C1757 C 0.90477 0.48227 0.72781 0.0
C1758 C 0.89442 0.47947 0.63308 0.0
C1759 C 0.89759 0.46574 0.6245 0.0
C1760 C 0.90374 0.45993 0.66847 0.0
C1761 C 0.90726 0.46827 0.71948 0.0
C1762 C 0.88779 0.48591 0.5871 0.0
C1763 C 0.9072 0.44525 0.66119 0.0
H1764 H 0.86891 0.42097 0.50027 0.0
H1765 H 0.92113 0.4587 0.46349 0.0
H1766 H 0.86669 0.43012 0.62914 0.0
H1767 H 0.8622 0.44617 0.60405 0.0
H1768 H 0.85307 0.42565 0.56967 0.0
H1769 H 0.93587 0.48476 0.5123 0.0
H1770 H 0.92411 0.49091 0.55834 0.0
H1771 H 0.93288 0.47823 0.58369 0.0
H1772 H 0.8961 0.49842 0.69134 0.0
H1773 H 0.9123 0.46398 0.75272 0.0
H1774 H 0.87652 0.47507 0.5669 0.0
H1775 H 0.89785 0.49223 0.55507 0.0
H1776 H 0.8841 0.49527 0.60215 0.0
H1777 H 0.89555 0.43373 0.64554 0.0
H1778 H 0.9112 0.44181 0.70034 0.0
H1779 H 0.9175 0.44876 0.63014 0.0
C1780 C 0.56597 0.45315 0.50149 0.0
C1781 C 0.56216 0.46647 0.50023 0.0
C1782 C 0.55885 0.44031 0.54204 0.0
C1783 C 0.54787 0.44101 0.58244 0.0
C1784 C 0.54354 0.45412 0.58011 0.0
C1785 C 0.55069 0.46664 0.53885 0.0
C1786 C 0.56353 0.42639 0.54278 0.0
C1787 C 0.53187 0.45532 0.62255 0.0
C1788 C 0.51808 0.40601 0.67977 0.0
C1789 C 0.52695 0.41224 0.72972 0.0
C1790 C 0.52545 0.41431 0.62972 0.0
C1791 C 0.54196 0.4291 0.63019 0.0
C1792 C 0.55165 0.43418 0.67964 0.0
C1793 C 0.54402 0.42563 0.72889 0.0
C1794 C 0.51489 0.40828 0.57752 0.0
C1795 C 0.56938 0.44977 0.68183 0.0
H1796 H 0.57475 0.4529 0.47132 0.0
H1797 H 0.54766 0.47687 0.53782 0.0
H1798 H 0.57224 0.4285 0.57804 0.0
H1799 H 0.55192 0.41363 0.54863 0.0
H1800 H 0.57006 0.42617 0.5041 0.0
H1801 H 0.52921 0.46586 0.61341 0.0
H1802 H 0.51949 0.44309 0.62438 0.0
H1803 H 0.53786 0.45757 0.66408 0.0
H1804 H 0.50492 0.39556 0.68021 0.0
H1805 H 0.55099 0.43031 0.76742 0.0
H1806 H 0.52295 0.40913 0.54165 0.0
H1807 H 0.50938 0.41664 0.56876 0.0
H1808 H 0.50416 0.39487 0.58138 0.0
H1809 H 0.57734 0.44975 0.64693 0.0
H1810 H 0.57608 0.45051 0.72118 0.0
H1811 H 0.56835 0.46151 0.67807 0.0
C1812 C 0.547 0.7845 0.34039 0.0
C1813 C 0.56326 0.79629 0.31975 0.0
C1814 C 0.54524 0.77374 0.38487 0.0
C1815 C 0.5601 0.77498 0.4093 0.0
C1816 C 0.57644 0.7861 0.38628 0.0
C1817 C 0.57781 0.79661 0.34166 0.0
C1818 C 0.52759 0.76185 0.4078 0.0
C1819 C 0.59261 0.78781 0.41118 0.0
C1820 C 0.56286 0.77025 0.56297 0.0
C1821 C 0.56327 0.75494 0.56644 0.0
C1822 C 0.56077 0.77636 0.51219 0.0
C1823 C 0.55904 0.76689 0.4636 0.0
C1824 C 0.55825 0.75081 0.4672 0.0
C1825 C 0.56038 0.74498 0.51888 0.0
C1826 C 0.56155 0.79351 0.51027 0.0
C1827 C 0.55619 0.74028 0.41626 0.0
H1828 H 0.53569 0.78407 0.32307 0.0
H1829 H 0.59039 0.80558 0.32541 0.0
H1830 H 0.52605 0.7491 0.41734 0.0
H1831 H 0.52588 0.76721 0.44698 0.0
H1832 H 0.51732 0.76014 0.37866 0.0
H1833 H 0.60406 0.79563 0.38499 0.0
H1834 H 0.59486 0.794 0.45237 0.0
H1835 H 0.59128 0.77499 0.41731 0.0
H1836 H 0.56485 0.77786 0.59986 0.0
H1837 H 0.56064 0.73309 0.52158 0.0
H1838 H 0.55048 0.79248 0.48685 0.0
H1839 H 0.5734 0.80297 0.48852 0.0
H1840 H 0.56157 0.79856 0.55219 0.0
H1841 H 0.54613 0.73985 0.38871 0.0
H1842 H 0.55284 0.72696 0.4268 0.0
H1843 H 0.5684 0.74632 0.39272 0.0
C1844 C 0.23324 0.8004 0.55479 0.0
C1845 C 0.24497 0.81801 0.55713 0.0
C1846 C 0.22716 0.7921 0.50413 0.0
C1847 C 0.2328 0.80173 0.45469 0.0
C1848 C 0.2455 0.81931 0.45659 0.0
C1849 C 0.25155 0.82728 0.50811 0.0
C1850 C 0.21385 0.77324 0.50384 0.0
C1851 C 0.25181 0.82995 0.40465 0.0
C1852 C 0.21942 0.77439 0.3256 0.0
C1853 C 0.20364 0.77329 0.31398 0.0
C1854 C 0.22966 0.78446 0.36952 0.0
C1855 C 0.22396 0.79363 0.40224 0.0
C1856 C 0.2085 0.79332 0.38867 0.0
C1857 C 0.19848 0.78309 0.34475 0.0
C1858 C 0.24606 0.78447 0.3828 0.0
C1859 C 0.20206 0.80308 0.4224 0.0
H1860 H 0.2283 0.79321 0.59282 0.0
H1861 H 0.26059 0.84093 0.51005 0.0
H1862 H 0.20133 0.77158 0.49026 0.0
H1863 H 0.21747 0.76621 0.47415 0.0
H1864 H 0.21214 0.7673 0.54529 0.0
H1865 H 0.26344 0.84259 0.41233 0.0
H1866 H 0.25475 0.82308 0.37225 0.0
H1867 H 0.24159 0.83219 0.3882 0.0
H1868 H 0.22351 0.7669 0.30161 0.0
H1869 H 0.18637 0.7824 0.33546 0.0
H1870 H 0.24427 0.77699 0.42111 0.0
H1871 H 0.25667 0.79772 0.39051 0.0
H1872 H 0.2499 0.77873 0.34904 0.0
H1873 H 0.19831 0.79728 0.46417 0.0
H1874 H 0.1908 0.80292 0.40304 0.0
H1875 H 0.21237 0.8166 0.42782 0.0
C1876 C 0.21143 0.45518 0.56508 0.0
C1877 C 0.19406 0.4504 0.5678 0.0
C1878 C 0.21895 0.45493 0.51482 0.0
C1879 C 0.20884 0.44989 0.46626 0.0
C1880 C 0.19197 0.44727 0.4677 0.0
C1881 C 0.1847 0.44752 0.51879 0.0
C1882 C 0.23707 0.45805 0.51505 0.0
C1883 C 0.18099 0.44243 0.4164 0.0
C1884 C 0.23286 0.45054 0.33681 0.0
C1885 C 0.22976 0.43364 0.33606 0.0
C1886 C 0.22531 0.45588 0.37705 0.0
C1887 C 0.21474 0.44411 0.41792 0.0
C1888 C 0.21107 0.42686 0.41597 0.0
C1889 C 0.21855 0.42182 0.37479 0.0
C1890 C 0.22919 0.47424 0.37704 0.0
C1891 C 0.19988 0.41389 0.45895 0.0
H1892 H 0.21877 0.45771 0.60293 0.0
H1893 H 0.1713 0.44396 0.52071 0.0
H1894 H 0.23674 0.44562 0.51048 0.0
H1895 H 0.24449 0.46629 0.47984 0.0
H1896 H 0.24393 0.46419 0.55403 0.0
H1897 H 0.17002 0.44469 0.42159 0.0
H1898 H 0.18865 0.44977 0.38004 0.0
H1899 H 0.17579 0.4286 0.40759 0.0
H1900 H 0.24139 0.45967 0.30643 0.0
H1901 H 0.21606 0.40874 0.37411 0.0
H1902 H 0.23874 0.4815 0.40975 0.0
H1903 H 0.21749 0.47495 0.38622 0.0
H1904 H 0.23454 0.48064 0.33681 0.0
H1905 H 0.20598 0.41793 0.50024 0.0
H1906 H 0.19772 0.40085 0.45008 0.0
H1907 H 0.18724 0.4132 0.46118 0.0
C1908 C 0.45893 0.91467 0.46088 0.0
C1909 C 0.45809 0.90115 0.49186 0.0
C1910 C 0.44735 0.91152 0.41777 0.0
C1911 C 0.43455 0.89443 0.40576 0.0
C1912 C 0.43302 0.88081 0.43896 0.0
C1913 C 0.44492 0.88432 0.48151 0.0
C1914 C 0.44945 0.92642 0.38317 0.0
C1915 C 0.41934 0.86249 0.42798 0.0
C1916 C 0.40241 0.89322 0.30254 0.0
C1917 C 0.41028 0.89292 0.25295 0.0
C1918 C 0.4093 0.89218 0.35355 0.0
C1919 C 0.42436 0.89092 0.35436 0.0
C1920 C 0.43128 0.88894 0.30428 0.0
C1921 C 0.42411 0.88992 0.25416 0.0
C1922 C 0.40134 0.89392 0.40622 0.0
C1923 C 0.44727 0.88744 0.30327 0.0
H1924 H 0.46901 0.9277 0.46906 0.0
H1925 H 0.44412 0.87385 0.50589 0.0
H1926 H 0.45329 0.92523 0.34056 0.0
H1927 H 0.4371 0.92631 0.38024 0.0
H1928 H 0.45929 0.93899 0.40028 0.0
H1929 H 0.41799 0.85389 0.4629 0.0
H1930 H 0.40676 0.8616 0.42039 0.0
H1931 H 0.42269 0.85777 0.3903 0.0
H1932 H 0.39164 0.89545 0.30165 0.0
H1933 H 0.43006 0.88943 0.21576 0.0
H1934 H 0.40904 0.90721 0.4221 0.0
H1935 H 0.40126 0.88514 0.43857 0.0
H1936 H 0.388 0.89119 0.39945 0.0
H1937 H 0.45848 0.89987 0.31572 0.0
H1938 H 0.44982 0.88404 0.2616 0.0
H1939 H 0.44619 0.87762 0.33314 0.0
C1940 C 0.11463 0.5634 0.4855 0.0
C1941 C 0.09925 0.56237 0.50235 0.0
C1942 C 0.11493 0.55347 0.44135 0.0
C1943 C 0.09945 0.54224 0.41378 0.0
C1944 C 0.08377 0.54059 0.4323 0.0
C1945 C 0.08387 0.55075 0.4763 0.0
C1946 C 0.13188 0.55561 0.42257 0.0
C1947 C 0.06698 0.52866 0.40408 0.0
C1948 C 0.09877 0.53292 0.26165 0.0
C1949 C 0.09542 0.51597 0.26215 0.0
C1950 C 0.10106 0.54193 0.31088 0.0
C1951 C 0.09974 0.53367 0.36186 0.0
C1952 C 0.09727 0.51686 0.36262 0.0
C1953 C 0.09522 0.50818 0.31244 0.0
C1954 C 0.10395 0.55995 0.30829 0.0
C1955 C 0.0958 0.50769 0.41631 0.0
H1956 H 0.12655 0.57233 0.50578 0.0
H1957 H 0.07194 0.54981 0.48961 0.0
H1958 H 0.13091 0.54292 0.41716 0.0
H1959 H 0.13533 0.56213 0.38184 0.0
H1960 H 0.14239 0.5633 0.4522 0.0
H1961 H 0.05579 0.52769 0.4267 0.0
H1962 H 0.06702 0.53335 0.36165 0.0
H1963 H 0.06532 0.51564 0.40029 0.0
H1964 H 0.0991 0.539 0.22263 0.0
H1965 H 0.09258 0.49504 0.31274 0.0
H1966 H 0.11514 0.56872 0.33406 0.0
H1967 H 0.09258 0.56013 0.32513 0.0
H1968 H 0.10618 0.56502 0.26541 0.0
H1969 H 0.10637 0.51606 0.44477 0.0
H1970 H 0.09602 0.49559 0.40986 0.0
H1971 H 0.08358 0.50457 0.43697 0.0
C1972 C 0.44704 0.53471 0.46207 0.0
C1973 C 0.43551 0.53493 0.50034 0.0
C1974 C 0.45426 0.5472 0.42067 0.0
C1975 C 0.44995 0.56032 0.4179 0.0
C1976 C 0.43895 0.56109 0.45807 0.0
C1977 C 0.43174 0.54828 0.49869 0.0
C1978 C 0.46592 0.54589 0.37843 0.0
C1979 C 0.43432 0.57505 0.45699 0.0
C1980 C 0.47942 0.59498 0.31881 0.0
C1981 C 0.47037 0.58855 0.26927 0.0
C1982 C 0.47224 0.58686 0.36928 0.0
C1983 C 0.45573 0.57204 0.36963 0.0
C1984 C 0.44587 0.56677 0.32056 0.0
C1985 C 0.45331 0.57516 0.27092 0.0
C1986 C 0.48296 0.59311 0.42109 0.0
C1987 C 0.42816 0.55113 0.31915 0.0
H1988 H 0.45005 0.52446 0.46342 0.0
H1989 H 0.42294 0.54858 0.52863 0.0
H1990 H 0.4599 0.5435 0.33692 0.0
H1991 H 0.47828 0.55813 0.37627 0.0
H1992 H 0.46861 0.5354 0.38801 0.0
H1993 H 0.4279 0.57541 0.49574 0.0
H1994 H 0.44593 0.58776 0.45062 0.0
H1995 H 0.42552 0.57284 0.42191 0.0
H1996 H 0.49259 0.60541 0.31771 0.0
H1997 H 0.4462 0.57032 0.23268 0.0
H1998 H 0.48858 0.58485 0.4299 0.0
H1999 H 0.475 0.59234 0.45717 0.0
H2000 H 0.49362 0.60654 0.41664 0.0
H2001 H 0.42923 0.53944 0.32362 0.0
H2002 H 0.42135 0.55017 0.27982 0.0
H2003 H 0.42026 0.55132 0.354 0.0
C2004 C 0.11504 0.56561 0.76967 0.0
C2005 C 0.11448 0.58088 0.7696 0.0
C2006 C 0.11361 0.5569 0.81895 0.0
C2007 C 0.1116 0.56367 0.86932 0.0
C2008 C 0.11268 0.57991 0.87008 0.0
C2009 C 0.11412 0.58838 0.8199 0.0
C2010 C 0.11269 0.53969 0.81635 0.0
C2011 C 0.11088 0.58765 0.92317 0.0
C2012 C 0.08278 0.5287 0.96872 0.0
C2013 C 0.09475 0.52747 0.00244 0.0
C2014 C 0.08813 0.54108 0.92693 0.0
C2015 C 0.10589 0.55253 0.91896 0.0
C2016 C 0.118 0.55191 0.95469 0.0
C2017 C 0.11227 0.5393 0.99596 0.0
C2018 C 0.0748 0.54134 0.88959 0.0
C2019 C 0.13699 0.56404 0.9478 0.0
H2020 H 0.11553 0.5599 0.73075 0.0
H2021 H 0.11372 0.60021 0.81989 0.0
H2022 H 0.12113 0.53885 0.84807 0.0
H2023 H 0.09937 0.52938 0.82516 0.0
H2024 H 0.11645 0.53721 0.77514 0.0
H2025 H 0.11527 0.60151 0.91843 0.0
H2026 H 0.0972 0.58095 0.93581 0.0
H2027 H 0.11828 0.58603 0.95696 0.0
H2028 H 0.06922 0.51966 0.97389 0.0
H2029 H 0.12157 0.53848 0.02239 0.0
H2030 H 0.07628 0.53766 0.84704 0.0
H2031 H 0.07664 0.55445 0.88751 0.0
H2032 H 0.06152 0.5324 0.90376 0.0
H2033 H 0.14157 0.56058 0.91002 0.0
H2034 H 0.14447 0.56357 0.98363 0.0
H2035 H 0.13968 0.57739 0.94251 0.0
C2036 C 0.46175 0.55002 0.9899 0.0
C2037 C 0.46231 0.56509 0.00771 0.0
C2038 C 0.45161 0.54079 0.94473 0.0
C2039 C 0.4418 0.54679 0.91682 0.0
C2040 C 0.44141 0.56134 0.93695 0.0
C2041 C 0.45173 0.57037 0.98221 0.0
C2042 C 0.45235 0.52529 0.92457 0.0
C2043 C 0.43098 0.56801 0.90856 0.0
C2044 C 0.43861 0.53769 0.76392 0.0
C2045 C 0.42247 0.52289 0.75968 0.0
C2046 C 0.44464 0.54605 0.81451 0.0
C2047 C 0.43427 0.53943 0.86215 0.0
C2048 C 0.41756 0.52503 0.85768 0.0
C2049 C 0.41181 0.51689 0.8062 0.0
C2050 C 0.46251 0.56146 0.81738 0.0
C2051 C 0.40612 0.51774 0.90761 0.0
H2052 H 0.46977 0.54579 0.00991 0.0
H2053 H 0.45198 0.58193 0.99627 0.0
H2054 H 0.43924 0.51439 0.91718 0.0
H2055 H 0.45933 0.52835 0.88466 0.0
H2056 H 0.45897 0.52117 0.95439 0.0
H2057 H 0.42977 0.57756 0.93436 0.0
H2058 H 0.43726 0.57424 0.86907 0.0
H2059 H 0.41795 0.55734 0.89849 0.0
H2060 H 0.44681 0.54249 0.72784 0.0
H2061 H 0.3993 0.50545 0.80292 0.0
H2062 H 0.47085 0.5583 0.84268 0.0
H2063 H 0.46223 0.57236 0.83767 0.0
H2064 H 0.46842 0.56566 0.77587 0.0
H2065 H 0.41118 0.51136 0.93477 0.0
H2066 H 0.39273 0.5082 0.89599 0.0
H2067 H 0.40602 0.52811 0.93207 0.0
C2068 C 0.4743 0.89135 0.80101 0.0
C2069 C 0.4668 0.8924 0.75152 0.0
C2070 C 0.46644 0.89054 0.85195 0.0
C2071 C 0.45084 0.8908 0.85277 0.0
C2072 C 0.4425 0.8902 0.80258 0.0
C2073 C 0.4506 0.891 0.75254 0.0
C2074 C 0.47552 0.89083 0.90471 0.0
C2075 C 0.42578 0.89033 0.80155 0.0
C2076 C 0.42365 0.88495 0.97913 0.0
C2077 C 0.42859 0.90203 0.99145 0.0
C2078 C 0.43158 0.88101 0.93618 0.0
C2079 C 0.44453 0.89448 0.90465 0.0
C2080 C 0.45009 0.91175 0.91868 0.0
C2081 C 0.44208 0.91531 0.9621 0.0
C2082 C 0.42554 0.86247 0.92296 0.0
C2083 C 0.46386 0.9265 0.88592 0.0
H2084 H 0.48681 0.89235 0.80022 0.0
H2085 H 0.44466 0.89154 0.71415 0.0
H2086 H 0.48197 0.90399 0.92218 0.0
H2087 H 0.46626 0.88212 0.93603 0.0
H2088 H 0.48539 0.88708 0.89751 0.0
H2089 H 0.42005 0.88784 0.75953 0.0
H2090 H 0.41637 0.88054 0.83021 0.0
H2091 H 0.42805 0.90303 0.81561 0.0
H2092 H 0.41334 0.87464 0.00225 0.0
H2093 H 0.44603 0.92852 0.97182 0.0
H2094 H 0.43661 0.86054 0.91531 0.0
H2095 H 0.4177 0.85876 0.8847 0.0
H2096 H 0.41761 0.85376 0.95677 0.0
H2097 H 0.47547 0.92524 0.88277 0.0
H2098 H 0.46755 0.93914 0.90469 0.0
H2099 H 0.4592 0.92626 0.84327 0.0
C2100 C 0.21448 0.45125 0.85207 0.0
C2101 C 0.20435 0.4351 0.82774 0.0
C2102 C 0.22507 0.4533 0.8974 0.0
C2103 C 0.22536 0.43884 0.91888 0.0
C2104 C 0.21608 0.42278 0.89197 0.0
C2105 C 0.20569 0.42111 0.84662 0.0
C2106 C 0.23499 0.47067 0.92453 0.0
C2107 C 0.21607 0.40704 0.91357 0.0
C2108 C 0.2554 0.44047 0.03201 0.0
C2109 C 0.24449 0.43565 0.07794 0.0
C2110 C 0.24974 0.44253 0.9799 0.0
C2111 C 0.23284 0.43965 0.97416 0.0
C2112 C 0.22222 0.43582 0.02122 0.0
C2113 C 0.22819 0.43389 0.07248 0.0
C2114 C 0.26147 0.44685 0.93067 0.0
C2115 C 0.20414 0.43275 0.01702 0.0
H2116 H 0.21365 0.46215 0.83711 0.0
H2117 H 0.19803 0.40865 0.82748 0.0
H2118 H 0.22845 0.47071 0.96335 0.0
H2119 H 0.24812 0.47353 0.93558 0.0
H2120 H 0.23592 0.48106 0.89742 0.0
H2121 H 0.20986 0.39608 0.88435 0.0
H2122 H 0.22937 0.40986 0.92156 0.0
H2123 H 0.20904 0.4031 0.9534 0.0
H2124 H 0.26803 0.44188 0.03623 0.0
H2125 H 0.2198 0.43037 0.10809 0.0
H2126 H 0.26105 0.45678 0.90468 0.0
H2127 H 0.2571 0.43524 0.9047 0.0
H2128 H 0.27496 0.45149 0.94327 0.0
H2129 H 0.20411 0.44364 0.99575 0.0
H2130 H 0.19802 0.43104 0.05815 0.0
H2131 H 0.19618 0.42106 0.99206 0.0
C2132 C 0.54843 0.76613 0.82844 0.0
C2133 C 0.56557 0.77004 0.82536 0.0
C2134 C 0.5431 0.77351 0.86935 0.0
C2135 C 0.55518 0.78477 0.9084 0.0
C2136 C 0.57263 0.78925 0.90401 0.0
C2137 C 0.57762 0.7819 0.86229 0.0
C2138 C 0.52448 0.76871 0.87209 0.0
C2139 C 0.58592 0.80118 0.94503 0.0
C2140 C 0.55083 0.81429 0.00931 0.0
C2141 C 0.54881 0.80536 0.05871 0.0
C2142 C 0.55119 0.807 0.95838 0.0
C2143 C 0.54959 0.79054 0.95749 0.0
C2144 C 0.5456 0.78079 0.00667 0.0
C2145 C 0.5452 0.78832 0.05675 0.0
C2146 C 0.55496 0.81757 0.90648 0.0
C2147 C 0.54365 0.76313 0.00751 0.0
H2148 H 0.5391 0.75708 0.79948 0.0
H2149 H 0.59089 0.78501 0.8598 0.0
H2150 H 0.51815 0.75965 0.90676 0.0
H2151 H 0.52326 0.78019 0.88006 0.0
H2152 H 0.51752 0.76248 0.83335 0.0
H2153 H 0.59907 0.804 0.93413 0.0
H2154 H 0.58589 0.81347 0.94734 0.0
H2155 H 0.58276 0.79533 0.98682 0.0
H2156 H 0.55348 0.82743 0.01067 0.0
H2157 H 0.54335 0.78129 0.09491 0.0
H2158 H 0.54742 0.80947 0.87106 0.0
H2159 H 0.56874 0.8233 0.89601 0.0
H2160 H 0.55209 0.82814 0.91179 0.0
H2161 H 0.53517 0.75512 0.97352 0.0
H2162 H 0.53832 0.75642 0.04734 0.0
H2163 H 0.55639 0.76426 0.00122 0.0
C2164 C 0.23433 0.78992 0.81858 0.0
C2165 C 0.22867 0.80185 0.81531 0.0
C2166 C 0.22783 0.77702 0.85898 0.0
C2167 C 0.21563 0.7763 0.89731 0.0
C2168 C 0.20924 0.78777 0.89227 0.0
C2169 C 0.21579 0.80037 0.85109 0.0
C2170 C 0.23465 0.76478 0.86234 0.0
C2171 C 0.19623 0.78744 0.93245 0.0
C2172 C 0.18951 0.7413 0.0004 0.0
C2173 C 0.19827 0.74919 0.04923 0.0
C2174 C 0.19585 0.74922 0.94901 0.0
C2175 C 0.21118 0.7653 0.94713 0.0
C2176 C 0.22093 0.77229 0.99582 0.0
C2177 C 0.21435 0.76409 0.04631 0.0
C2178 C 0.18535 0.74117 0.89768 0.0
C2179 C 0.23743 0.78934 0.99564 0.0
H2180 H 0.24414 0.7909 0.79041 0.0
H2181 H 0.21129 0.80949 0.84836 0.0
H2182 H 0.24386 0.76853 0.89717 0.0
H2183 H 0.22412 0.75151 0.87041 0.0
H2184 H 0.24139 0.76483 0.82381 0.0
H2185 H 0.19169 0.79641 0.9204 0.0
H2186 H 0.18498 0.77432 0.9353 0.0
H2187 H 0.20202 0.79104 0.97429 0.0
H2188 H 0.17708 0.72971 0.00261 0.0
H2189 H 0.22125 0.77007 0.0841 0.0
H2190 H 0.19373 0.7428 0.86188 0.0
H2191 H 0.17792 0.74758 0.88739 0.0
H2192 H 0.17617 0.72728 0.90365 0.0
H2193 H 0.24602 0.78981 0.96204 0.0
H2194 H 0.24442 0.79195 0.03554 0.0
H2195 H 0.2345 0.79976 0.98798 0.0
C2196 C 0.36612 0.11408 0.8761 0.0
C2197 C 0.36933 0.12687 0.83712 0.0
C2198 C 0.35001 0.10476 0.90154 0.0
C2199 C 0.33686 0.10836 0.88763 0.0
C2200 C 0.33985 0.1208 0.84677 0.0
C2201 C 0.35606 0.12991 0.82199 0.0
C2202 C 0.34726 0.09153 0.94476 0.0
C2203 C 0.32613 0.12498 0.83071 0.0
C2204 C 0.29026 0.07794 0.92484 0.0
C2205 C 0.28823 0.08612 0.97112 0.0
C2206 C 0.30618 0.08472 0.89809 0.0
C2207 C 0.32034 0.10002 0.91825 0.0
C2208 C 0.31849 0.10797 0.96615 0.0
C2209 C 0.30244 0.10093 0.99197 0.0
C2210 C 0.3077 0.07588 0.8472 0.0
C2211 C 0.33331 0.12427 0.98904 0.0
H2212 H 0.37635 0.11166 0.88787 0.0
H2213 H 0.35846 0.13975 0.79178 0.0
H2214 H 0.34541 0.09588 0.98576 0.0
H2215 H 0.33549 0.0792 0.93547 0.0
H2216 H 0.35828 0.08924 0.94751 0.0
H2217 H 0.33016 0.13421 0.79581 0.0
H2218 H 0.3142 0.11313 0.81881 0.0
H2219 H 0.32302 0.13059 0.86664 0.0
H2220 H 0.2793 0.06648 0.90857 0.0
H2221 H 0.30095 0.10728 0.02784 0.0
H2222 H 0.31868 0.07361 0.85138 0.0
H2223 H 0.31024 0.08424 0.8106 0.0
H2224 H 0.29588 0.06341 0.83935 0.0
H2225 H 0.34451 0.12253 0.99644 0.0
H2226 H 0.33 0.12829 0.02836 0.0
H2227 H 0.3373 0.13478 0.9585 0.0
C2228 C 0.88594 0.20183 0.0208 0.0
C2229 C 0.90187 0.20428 0.00356 0.0
C2230 C 0.87857 0.21058 0.99513 0.0
C2231 C 0.88736 0.22202 0.95115 0.0
C2232 C 0.90377 0.22507 0.93511 0.0
C2233 C 0.91084 0.21616 0.96156 0.0
C2234 C 0.86108 0.20705 0.01356 0.0
C2235 C 0.91354 0.2372 0.88848 0.0
C2236 C 0.85945 0.22769 0.84562 0.0
C2237 C 0.86092 0.24329 0.86209 0.0
C2238 C 0.86828 0.22082 0.87364 0.0
C2239 C 0.8788 0.22976 0.91934 0.0
C2240 C 0.88066 0.24572 0.93539 0.0
C2241 C 0.8717 0.25232 0.90648 0.0
C2242 C 0.86603 0.2038 0.85508 0.0
C2243 C 0.89177 0.2556 0.9839 0.0
H2244 H 0.87898 0.19269 0.05335 0.0
H2245 H 0.92318 0.21813 0.94814 0.0
H2246 H 0.86132 0.21925 0.02247 0.0
H2247 H 0.85165 0.20053 0.97985 0.0
H2248 H 0.85654 0.19882 0.051 0.0
H2249 H 0.92672 0.23925 0.88416 0.0
H2250 H 0.90659 0.23196 0.849 0.0
H2251 H 0.9144 0.24979 0.89518 0.0
H2252 H 0.85115 0.22067 0.81129 0.0
H2253 H 0.87284 0.26437 0.91944 0.0
H2254 H 0.86004 0.19422 0.88867 0.0
H2255 H 0.8787 0.20507 0.84615 0.0
H2256 H 0.85788 0.1988 0.81756 0.0
H2257 H 0.88655 0.24803 0.02234 0.0
H2258 H 0.89254 0.26821 0.98938 0.0
H2259 H 0.90494 0.25775 0.97842 0.0
C2260 C 0.77606 0.64184 0.81671 0.0
C2261 C 0.76018 0.62794 0.83224 0.0
C2262 C 0.78288 0.65766 0.844 0.0
C2263 C 0.77357 0.65959 0.88783 0.0
C2264 C 0.75723 0.6458 0.90231 0.0
C2265 C 0.75072 0.63012 0.87432 0.0
C2266 C 0.80034 0.67209 0.82728 0.0
C2267 C 0.7469 0.64742 0.94866 0.0
C2268 C 0.80022 0.69305 0.99536 0.0
C2269 C 0.79846 0.707 0.97875 0.0
C2270 C 0.79184 0.67741 0.96686 0.0
C2271 C 0.78145 0.6757 0.92063 0.0
C2272 C 0.77922 0.68958 0.90462 0.0
C2273 C 0.78777 0.70509 0.93392 0.0
C2274 C 0.79449 0.66287 0.98531 0.0
C2275 C 0.7682 0.68819 0.85563 0.0
H2276 H 0.7834 0.64023 0.78414 0.0
H2277 H 0.73841 0.61941 0.88642 0.0
H2278 H 0.79971 0.68386 0.81847 0.0
H2279 H 0.80952 0.67512 0.86183 0.0
H2280 H 0.80543 0.66886 0.79021 0.0
H2281 H 0.73389 0.63597 0.95197 0.0
H2282 H 0.75369 0.64913 0.98848 0.0
H2283 H 0.74559 0.65891 0.94243 0.0
H2284 H 0.80846 0.69445 0.03004 0.0
H2285 H 0.78637 0.71585 0.92091 0.0
H2286 H 0.80097 0.65974 0.9521 0.0
H2287 H 0.78193 0.65119 0.99306 0.0
H2288 H 0.80236 0.66604 0.02348 0.0
H2289 H 0.77386 0.68635 0.81732 0.0
H2290 H 0.76696 0.69979 0.8506 0.0
H2291 H 0.7552 0.67684 0.86014 0.0
C2292 C 0.14197 0.36637 0.64799 0.0
C2293 C 0.13857 0.37962 0.63608 0.0
C2294 C 0.13328 0.35062 0.62017 0.0
C2295 C 0.12096 0.34811 0.57937 0.0
C2296 C 0.11735 0.36138 0.56754 0.0
C2297 C 0.1262 0.37699 0.59614 0.0
C2298 C 0.13743 0.33674 0.63405 0.0
C2299 C 0.10431 0.35915 0.52423 0.0
C2300 C 0.11165 0.31337 0.47379 0.0
C2301 C 0.09666 0.29952 0.49521 0.0
C2302 C 0.11943 0.32943 0.4999 0.0
C2303 C 0.11205 0.33163 0.54865 0.0
C2304 C 0.09662 0.31783 0.5695 0.0
C2305 C 0.08909 0.30193 0.54244 0.0
C2306 C 0.13583 0.34389 0.47628 0.0
C2307 C 0.08839 0.3197 0.6214 0.0
H2308 H 0.15152 0.36834 0.67885 0.0
H2309 H 0.12356 0.38722 0.58671 0.0
H2310 H 0.12562 0.32492 0.64704 0.0
H2311 H 0.14243 0.33348 0.59686 0.0
H2312 H 0.1471 0.34063 0.6676 0.0
H2313 H 0.10276 0.3706 0.52072 0.0
H2314 H 0.10826 0.35668 0.4834 0.0
H2315 H 0.09168 0.34786 0.53427 0.0
H2316 H 0.11753 0.31158 0.43723 0.0
H2317 H 0.07749 0.29125 0.55917 0.0
H2318 H 0.1465 0.34749 0.50595 0.0
H2319 H 0.13456 0.3554 0.46985 0.0
H2320 H 0.13935 0.34039 0.43632 0.0
H2321 H 0.09708 0.32224 0.65712 0.0
H2322 H 0.0759 0.30804 0.63039 0.0
H2323 H 0.08631 0.3308 0.61765 0.0
C2324 C 0.70958 0.7927 0.57322 0.0
C2325 C 0.71261 0.8047 0.53155 0.0
C2326 C 0.69347 0.78361 0.59882 0.0
C2327 C 0.68012 0.7866 0.58214 0.0
C2328 C 0.68303 0.79845 0.53928 0.0
C2329 C 0.69925 0.80739 0.51456 0.0
C2330 C 0.69084 0.77109 0.64445 0.0
C2331 C 0.66908 0.80194 0.52021 0.0
C2332 C 0.63354 0.75474 0.61442 0.0
C2333 C 0.63036 0.76284 0.65861 0.0
C2334 C 0.64984 0.76207 0.59008 0.0
C2335 C 0.66325 0.77782 0.6106 0.0
C2336 C 0.66026 0.78573 0.65648 0.0
C2337 C 0.64383 0.77815 0.67989 0.0
C2338 C 0.65256 0.75327 0.54121 0.0
C2339 C 0.67427 0.8025 0.67969 0.0
H2340 H 0.71989 0.7906 0.58652 0.0
H2341 H 0.70153 0.81664 0.48229 0.0
H2342 H 0.68788 0.77544 0.68368 0.0
H2343 H 0.67972 0.7583 0.63476 0.0
H2344 H 0.70231 0.76972 0.651 0.0
H2345 H 0.67324 0.81109 0.48505 0.0
H2346 H 0.65758 0.7898 0.5074 0.0
H2347 H 0.66517 0.80732 0.55483 0.0
H2348 H 0.62316 0.74289 0.59784 0.0
H2349 H 0.64145 0.78443 0.71416 0.0
H2350 H 0.66378 0.75156 0.5485 0.0
H2351 H 0.65538 0.7614 0.50386 0.0
H2352 H 0.64117 0.74054 0.53265 0.0
H2353 H 0.68577 0.8015 0.68961 0.0
H2354 H 0.67015 0.80641 0.71761 0.0
H2355 H 0.67815 0.81277 0.6483 0.0
C2356 C 0.19591 0.91744 0.56892 0.0
C2357 C 0.18433 0.9082 0.52648 0.0
C2358 C 0.20547 0.91105 0.5951 0.0
C2359 C 0.20343 0.89509 0.57815 0.0
C2360 C 0.19194 0.88584 0.53475 0.0
C2361 C 0.18249 0.89249 0.50952 0.0
C2362 C 0.21756 0.92123 0.64136 0.0
C2363 C 0.18949 0.86881 0.51535 0.0
C2364 C 0.23758 0.88342 0.60982 0.0
C2365 C 0.23006 0.87185 0.65368 0.0
C2366 C 0.22925 0.89145 0.58571 0.0
C2367 C 0.21308 0.88786 0.6062 0.0
C2368 C 0.2057 0.87665 0.65173 0.0
C2369 C 0.21427 0.86873 0.67485 0.0
C2370 C 0.23749 0.9033 0.53712 0.0
C2371 C 0.18851 0.87262 0.67494 0.0
H2372 H 0.19732 0.92958 0.58225 0.0
H2373 H 0.17356 0.88531 0.47669 0.0
H2374 H 0.21358 0.91362 0.68009 0.0
H2375 H 0.23073 0.92395 0.63163 0.0
H2376 H 0.21793 0.93358 0.64883 0.0
H2377 H 0.18036 0.86343 0.48023 0.0
H2378 H 0.20197 0.87028 0.50233 0.0
H2379 H 0.18461 0.85944 0.54984 0.0
H2380 H 0.24979 0.88587 0.5933 0.0
H2381 H 0.20843 0.85983 0.70886 0.0
H2382 H 0.23839 0.91585 0.54501 0.0
H2383 H 0.22942 0.89775 0.49976 0.0
H2384 H 0.25055 0.9055 0.52821 0.0
H2385 H 0.18857 0.88465 0.68531 0.0
H2386 H 0.18506 0.8645 0.71259 0.0
H2387 H 0.17838 0.86581 0.64339 0.0
C2388 C 0.69619 0.91345 0.04687 0.0
C2389 C 0.69905 0.90494 0.00325 0.0
C2390 C 0.67998 0.9065 0.0717 0.0
C2391 C 0.66635 0.8907 0.05228 0.0
C2392 C 0.66898 0.88248 0.00654 0.0
C2393 C 0.68532 0.8897 0.98261 0.0
C2394 C 0.67764 0.91565 0.1203 0.0
C2395 C 0.65474 0.86566 0.98445 0.0
C2396 C 0.63137 0.86148 0.15177 0.0
C2397 C 0.61774 0.86386 0.13587 0.0
C2398 C 0.64736 0.87043 0.12563 0.0
C2399 C 0.64976 0.88203 0.08243 0.0
C2400 C 0.63617 0.88479 0.06697 0.0
C2401 C 0.62028 0.87566 0.09397 0.0
C2402 C 0.66157 0.86719 0.14343 0.0
C2403 C 0.63828 0.89706 0.0211 0.0
H2404 H 0.70676 0.92525 0.06293 0.0
H2405 H 0.68745 0.8831 0.94874 0.0
H2406 H 0.66622 0.91708 0.1141 0.0
H2407 H 0.67542 0.90792 0.15831 0.0
H2408 H 0.68901 0.92854 0.12705 0.0
H2409 H 0.65849 0.86166 0.94594 0.0
H2410 H 0.65119 0.85548 0.01596 0.0
H2411 H 0.64314 0.86662 0.97594 0.0
H2412 H 0.62947 0.85239 0.18422 0.0
H2413 H 0.60977 0.87753 0.08151 0.0
H2414 H 0.67314 0.87944 0.15499 0.0
H2415 H 0.6652 0.86165 0.10853 0.0
H2416 H 0.65782 0.85825 0.17909 0.0
H2417 H 0.64952 0.90989 0.02941 0.0
H2418 H 0.62675 0.89842 0.01602 0.0
H2419 H 0.64075 0.89246 0.98152 0.0
C2420 C 0.13717 0.76712 0.1521 0.0
C2421 C 0.13736 0.75275 0.13083 0.0
C2422 C 0.12815 0.77399 0.12524 0.0
C2423 C 0.11909 0.76628 0.07591 0.0
C2424 C 0.11875 0.7514 0.05524 0.0
C2425 C 0.12791 0.74481 0.08297 0.0
C2426 C 0.12879 0.78985 0.1487 0.0
C2427 C 0.10916 0.7428 0.00291 0.0
C2428 C 0.08673 0.77928 0.03171 0.0
C2429 C 0.0964 0.79257 0.99432 0.0
C2430 C 0.09371 0.77012 0.05706 0.0
C2431 C 0.11077 0.77439 0.04477 0.0
C2432 C 0.12034 0.78733 0.00537 0.0
C2433 C 0.11303 0.79626 0.98058 0.0
C2434 C 0.08309 0.75634 0.09861 0.0
C2435 C 0.13856 0.79223 0.99108 0.0
H2436 H 0.14443 0.7733 0.18913 0.0
H2437 H 0.12803 0.73369 0.06634 0.0
H2438 H 0.13532 0.80062 0.11906 0.0
H2439 H 0.11561 0.78759 0.15484 0.0
H2440 H 0.13572 0.79379 0.18879 0.0
H2441 H 0.10909 0.73063 0.99459 0.0
H2442 H 0.09572 0.74003 0.0055 0.0
H2443 H 0.11521 0.75154 0.96728 0.0
H2444 H 0.07385 0.77634 0.04237 0.0
H2445 H 0.12054 0.80649 0.95161 0.0
H2446 H 0.08875 0.76048 0.14041 0.0
H2447 H 0.08316 0.74434 0.08879 0.0
H2448 H 0.06959 0.75351 0.09988 0.0
H2449 H 0.14686 0.7978 0.02796 0.0
H2450 H 0.14383 0.80174 0.95696 0.0
H2451 H 0.13923 0.78071 0.97883 0.0
C2452 C 0.22325 0.35631 0.1792 0.0
C2453 C 0.23909 0.37015 0.16301 0.0
C2454 C 0.21624 0.34047 0.15196 0.0
C2455 C 0.22531 0.33846 0.1075 0.0
C2456 C 0.24161 0.35219 0.09238 0.0
C2457 C 0.24831 0.36789 0.12036 0.0
C2458 C 0.19885 0.32608 0.16942 0.0
C2459 C 0.25167 0.35051 0.04528 0.0
C2460 C 0.21103 0.29307 0.05996 0.0
C2461 C 0.20025 0.29126 0.01548 0.0
C2462 C 0.21954 0.30848 0.0898 0.0
C2463 C 0.21721 0.32236 0.07466 0.0
C2464 C 0.20667 0.32072 0.02895 0.0
C2465 C 0.1983 0.30518 -6e-05 0.0
C2466 C 0.2307 0.30978 0.13827 0.0
C2467 C 0.20392 0.33527 0.01142 0.0
H2468 H 0.21608 0.35798 0.21223 0.0
H2469 H 0.26058 0.37856 0.10774 0.0
H2470 H 0.18948 0.32313 0.13549 0.0
H2471 H 0.19943 0.31427 0.17761 0.0
H2472 H 0.194 0.32934 0.20706 0.0
H2473 H 0.26468 0.36193 0.04144 0.0
H2474 H 0.25296 0.33899 0.05108 0.0
H2475 H 0.24469 0.34881 0.00587 0.0
H2476 H 0.21255 0.28232 0.07217 0.0
H2477 H 0.19 0.30384 0.96556 0.0
H2478 H 0.22527 0.31174 0.1769 0.0
H2479 H 0.24374 0.32103 0.13327 0.0
H2480 H 0.23181 0.2981 0.14308 0.0
H2481 H 0.19766 0.33842 0.04532 0.0
H2482 H 0.19581 0.33213 0.9738 0.0
H2483 H 0.21644 0.34694 0.0031 0.0
C2484 C 0.85926 0.63348 0.34034 0.0
C2485 C 0.86304 0.62048 0.35204 0.0
C2486 C 0.86793 0.64936 0.36737 0.0
C2487 C 0.88066 0.65228 0.4071 0.0
C2488 C 0.8847 0.63929 0.41857 0.0
C2489 C 0.87584 0.62352 0.39083 0.0
C2490 C 0.86331 0.66293 0.35393 0.0
C2491 C 0.89819 0.64196 0.46071 0.0
C2492 C 0.91206 0.69875 0.44236 0.0
C2493 C 0.90471 0.70103 0.49036 0.0
C2494 C 0.9046 0.68282 0.41548 0.0
C2495 C 0.88947 0.66885 0.43732 0.0
C2496 C 0.88231 0.67095 0.48675 0.0
C2497 C 0.89 0.68704 0.51264 0.0
C2498 C 0.91259 0.68107 0.36283 0.0
C2499 C 0.86623 0.65632 0.51143 0.0
H2500 H 0.84938 0.63118 0.31038 0.0
H2501 H 0.87878 0.6135 0.40006 0.0
H2502 H 0.8584 0.66612 0.39151 0.0
H2503 H 0.87488 0.67486 0.34023 0.0
H2504 H 0.8534 0.65877 0.32104 0.0
H2505 H 0.90012 0.63073 0.4638 0.0
H2506 H 0.9106 0.65342 0.44979 0.0
H2507 H 0.89444 0.64437 0.50195 0.0
H2508 H 0.92343 0.70954 0.42495 0.0
H2509 H 0.8843 0.68873 0.54981 0.0
H2510 H 0.90359 0.67822 0.32784 0.0
H2511 H 0.91504 0.67019 0.3662 0.0
H2512 H 0.92486 0.69289 0.35294 0.0
H2513 H 0.85533 0.65239 0.48248 0.0
H2514 H 0.86283 0.6598 0.55163 0.0
H2515 H 0.86788 0.64502 0.51773 0.0
C2516 C 0.31018 0.20003 0.50312 0.0
C2517 C 0.29624 0.19958 0.47576 0.0
C2518 C 0.32661 0.20837 0.4796 0.0
C2519 C 0.32908 0.21628 0.42724 0.0
C2520 C 0.31514 0.21625 0.40007 0.0
C2521 C 0.29887 0.20795 0.42482 0.0
C2522 C 0.34121 0.20828 0.51008 0.0
C2523 C 0.31728 0.22446 0.34403 0.0
C2524 C 0.37481 0.24778 0.38395 0.0
C2525 C 0.37887 0.23729 0.35206 0.0
C2526 C 0.35854 0.24119 0.40809 0.0
C2527 C 0.34607 0.22376 0.39975 0.0
C2528 C 0.34999 0.21323 0.36655 0.0
C2529 C 0.36637 0.22012 0.34325 0.0
C2530 C 0.35483 0.25277 0.44345 0.0
C2531 C 0.33697 0.1946 0.3564 0.0
H2532 H 0.30821 0.19364 0.54264 0.0
H2533 H 0.2881 0.20758 0.40347 0.0
H2534 H 0.34584 0.20089 0.48612 0.0
H2535 H 0.35214 0.22155 0.51432 0.0
H2536 H 0.33739 0.20252 0.55191 0.0
H2537 H 0.3054 0.22417 0.32988 0.0
H2538 H 0.32786 0.23798 0.3451 0.0
H2539 H 0.32081 0.21764 0.31315 0.0
H2540 H 0.38445 0.26107 0.3909 0.0
H2541 H 0.36944 0.21198 0.31846 0.0
H2542 H 0.35209 0.24784 0.48645 0.0
H2543 H 0.34325 0.25281 0.42799 0.0
H2544 H 0.3657 0.26617 0.44417 0.0
H2545 H 0.33351 0.18749 0.39611 0.0
H2546 H 0.34181 0.18836 0.32769 0.0
H2547 H 0.32504 0.19344 0.33886 0.0
C2548 C 0.81002 0.10386 0.48838 0.0
C2549 C 0.80776 0.08784 0.47321 0.0
C2550 C 0.80096 0.11069 0.46159 0.0
C2551 C 0.78941 0.10129 0.41849 0.0
C2552 C 0.78689 0.08499 0.4035 0.0
C2553 C 0.79609 0.07844 0.43114 0.0
C2554 C 0.80395 0.1281 0.47887 0.0
C2555 C 0.77469 0.07463 0.35769 0.0
C2556 C 0.75663 0.11448 0.38244 0.0
C2557 C 0.7646 0.12561 0.33783 0.0
C2558 C 0.76431 0.10603 0.4081 0.0
C2559 C 0.7803 0.10877 0.3885 0.0
C2560 C 0.78808 0.11949 0.34217 0.0
C2561 C 0.78014 0.12781 0.31742 0.0
C2562 C 0.75564 0.09469 0.45741 0.0
C2563 C 0.80509 0.12263 0.31992 0.0
H2564 H 0.81902 0.11117 0.5209 0.0
H2565 H 0.79434 0.06606 0.41921 0.0
H2566 H 0.80917 0.13714 0.44359 0.0
H2567 H 0.79163 0.12718 0.49088 0.0
H2568 H 0.81303 0.13354 0.51411 0.0
H2569 H 0.77381 0.06196 0.35218 0.0
H2570 H 0.76169 0.07253 0.36648 0.0
H2571 H 0.77899 0.0818 0.31819 0.0
H2572 H 0.74461 0.11272 0.39835 0.0
H2573 H 0.78632 0.13637 0.28284 0.0
H2574 H 0.76362 0.10039 0.49485 0.0
H2575 H 0.75435 0.08189 0.45127 0.0
H2576 H 0.74271 0.09298 0.46514 0.0
H2577 H 0.81525 0.12949 0.35136 0.0
H2578 H 0.80885 0.13039 0.28141 0.0
H2579 H 0.80454 0.11027 0.31134 0.0
C2580 C 0.94918 0.41102 0.26108 0.0
C2581 C 0.94676 0.42114 0.30008 0.0
C2582 C 0.96508 0.41705 0.23487 0.0
C2583 C 0.97884 0.43354 0.2482 0.0
C2584 C 0.97655 0.44363 0.28843 0.0
C2585 C 0.96052 0.43731 0.31383 0.0
C2586 C 0.96707 0.40595 0.19214 0.0
C2587 C 0.99095 0.46126 0.30393 0.0
C2588 C 0.02501 0.44645 0.21675 0.0
C2589 C 0.02835 0.45699 0.17036 0.0
C2590 C 0.00874 0.43822 0.24148 0.0
C2591 C 0.99553 0.44056 0.21909 0.0
C2592 C 0.99864 0.4506 0.17088 0.0
C2593 C 0.01504 0.45874 0.14714 0.0
C2594 C 0.0059 0.42761 0.29286 0.0
C2595 C 0.98482 0.45331 0.14563 0.0
H2596 H 0.93855 0.39851 0.25028 0.0
H2597 H 0.95871 0.44517 0.34402 0.0
H2598 H 0.96998 0.41242 0.15132 0.0
H2599 H 0.978 0.4041 0.20307 0.0
H2600 H 0.95533 0.39317 0.18812 0.0
H2601 H 0.98722 0.46722 0.33732 0.0
H2602 H 0.00229 0.4605 0.31782 0.0
H2603 H 0.9949 0.46978 0.26724 0.0
H2604 H 0.03526 0.44506 0.23484 0.0
H2605 H 0.01755 0.46683 0.11116 0.0
H2606 H 0.99435 0.41476 0.28803 0.0
H2607 H 0.00359 0.43389 0.32863 0.0
H2608 H 0.01706 0.42596 0.30249 0.0
H2609 H 0.97305 0.4408 0.13828 0.0
H2610 H 0.98893 0.46042 0.1059 0.0
H2611 H 0.9814 0.46065 0.17472 0.0
C2612 C 0.52693 0.563 0.18489 0.0
C2613 C 0.52939 0.57924 0.19781 0.0
C2614 C 0.53608 0.55644 0.2126 0.0
C2615 C 0.54797 0.56638 0.25427 0.0
C2616 C 0.55078 0.58294 0.26676 0.0
C2617 C 0.54143 0.58919 0.23832 0.0
C2618 C 0.53276 0.53872 0.19801 0.0
C2619 C 0.56338 0.59388 0.31089 0.0
C2620 C 0.55657 0.54011 0.35819 0.0
C2621 C 0.57155 0.5412 0.33682 0.0
C2622 C 0.54918 0.54893 0.33322 0.0
C2623 C 0.55698 0.55906 0.28575 0.0
C2624 C 0.5726 0.56093 0.26576 0.0
C2625 C 0.57971 0.55197 0.29159 0.0
C2626 C 0.53257 0.54671 0.35595 0.0
C2627 C 0.58133 0.57168 0.2154 0.0
H2628 H 0.51764 0.55527 0.15357 0.0
H2629 H 0.54337 0.60176 0.24845 0.0
H2630 H 0.54494 0.53928 0.1862 0.0
H2631 H 0.52762 0.5302 0.23457 0.0
H2632 H 0.52349 0.53288 0.16344 0.0
H2633 H 0.56468 0.60679 0.31375 0.0
H2634 H 0.55914 0.58746 0.35162 0.0
H2635 H 0.57618 0.59543 0.30238 0.0
H2636 H 0.55025 0.53186 0.3933 0.0
H2637 H 0.59133 0.55289 0.27502 0.0
H2638 H 0.52207 0.53945 0.32587 0.0
H2639 H 0.53353 0.55937 0.36203 0.0
H2640 H 0.52901 0.5397 0.39591 0.0
H2641 H 0.57336 0.56552 0.17827 0.0
H2642 H 0.59424 0.57325 0.2086 0.0
H2643 H 0.58265 0.58456 0.21939 0.0
C2644 C 0.41552 0.9657 0.22211 0.0
C2645 C 0.42356 0.9626 0.17758 0.0
C2646 C 0.42357 0.98152 0.24981 0.0
C2647 C 0.44001 0.99447 0.23243 0.0
C2648 C 0.44796 0.99156 0.1865 0.0
C2649 C 0.43963 0.97565 0.15963 0.0
C2650 C 0.41471 0.98419 0.29856 0.0
C2651 C 0.46548 0.0051 0.16666 0.0
C2652 C 0.45779 0.04088 0.27506 0.0
C2653 C 0.46917 0.04256 0.31738 0.0
C2654 C 0.44783 0.02516 0.24796 0.0
C2655 C 0.44932 0.01082 0.26364 0.0
C2656 C 0.46042 0.01232 0.30745 0.0
C2657 C 0.47022 0.02819 0.33381 0.0
C2658 C 0.43609 0.02402 0.20151 0.0
C2659 C 0.46233 0.99729 0.32541 0.0
H2660 H 0.40309 0.95564 0.23613 0.0
H2661 H 0.44588 0.97331 0.12515 0.0
H2662 H 0.42226 0.98592 0.33669 0.0
H2663 H 0.41396 0.99602 0.29279 0.0
H2664 H 0.40153 0.97322 0.30479 0.0
H2665 H 0.46953 0.00109 0.12882 0.0
H2666 H 0.46553 0.01721 0.15777 0.0
H2667 H 0.47512 0.0079 0.19956 0.0
H2668 H 0.45692 0.05196 0.26227 0.0
H2669 H 0.47898 0.02941 0.36658 0.0
H2670 H 0.42291 0.01324 0.20887 0.0
H2671 H 0.4406 0.02136 0.16205 0.0
H2672 H 0.43558 0.03602 0.19674 0.0
H2673 H 0.4496 0.98615 0.33554 0.0
H2674 H 0.47083 0.00035 0.36201 0.0
H2675 H 0.46775 0.99334 0.29104 0.0
C2676 C 0.58182 0.03687 0.76593 0.0
C2677 C 0.57356 0.04038 0.8088 0.0
C2678 C 0.57377 0.02093 0.73898 0.0
C2679 C 0.5571 0.00824 0.75546 0.0
C2680 C 0.54886 0.0116 0.79954 0.0
C2681 C 0.55719 0.02764 0.82565 0.0
C2682 C 0.58293 0.0178 0.69212 0.0
C2683 C 0.53109 0.99836 0.81841 0.0
C2684 C 0.52776 0.97379 0.65441 0.0
C2685 C 0.52868 0.95955 0.6732 0.0
C2686 C 0.53729 0.98983 0.67999 0.0
C2687 C 0.54796 0.99164 0.7255 0.0
C2688 C 0.54928 0.97741 0.74377 0.0
C2689 C 0.53962 0.96152 0.71733 0.0
C2690 C 0.5356 0.00474 0.6592 0.0
C2691 C 0.56052 0.97887 0.79218 0.0
H2692 H 0.59448 0.04669 0.75274 0.0
H2693 H 0.55076 0.03029 0.85883 0.0
H2694 H 0.58367 0.00606 0.70021 0.0
H2695 H 0.57561 0.01564 0.6532 0.0
H2696 H 0.59613 0.02872 0.68589 0.0
H2697 H 0.52674 0.00276 0.85462 0.0
H2698 H 0.52181 0.99535 0.78419 0.0
H2699 H 0.53081 0.98627 0.82954 0.0
H2700 H 0.51934 0.97233 0.62024 0.0
H2701 H 0.54038 0.95054 0.732 0.0
H2702 H 0.54843 0.01576 0.64937 0.0
H2703 H 0.52993 0.00899 0.69193 0.0
H2704 H 0.52741 0.00141 0.62172 0.0
H2705 H 0.57382 0.98946 0.78521 0.0
H2706 H 0.56082 0.96684 0.79942 0.0
H2707 H 0.55575 0.982 0.83018 0.0
C2708 C 0.03722 0.56714 0.6673 0.0
C2709 C 0.05182 0.58138 0.68912 0.0
C2710 C 0.02131 0.56028 0.6939 0.0
C2711 C 0.01995 0.56787 0.74346 0.0
C2712 C 0.03449 0.58267 0.76453 0.0
C2713 C 0.05029 0.58924 0.73712 0.0
C2714 C 0.00609 0.54449 0.67006 0.0
C2715 C 0.03349 0.59118 0.81704 0.0
C2716 C 0.97453 0.55447 0.78792 0.0
C2717 C 0.97103 0.54114 0.825 0.0
C2718 C 0.99067 0.56381 0.76267 0.0
C2719 C 0.00353 0.55963 0.77464 0.0
C2720 C 0.00028 0.54664 0.81371 0.0
C2721 C 0.98406 0.53757 0.8385 0.0
C2722 C 0.99372 0.57767 0.72159 0.0
C2723 C 0.01368 0.54181 0.82757 0.0
H2724 H 0.03832 0.56103 0.63016 0.0
H2725 H 0.06154 0.60027 0.75413 0.0
H2726 H 0.00187 0.53362 0.69931 0.0
H2727 H 0.99516 0.54675 0.66426 0.0
H2728 H 0.00908 0.54069 0.62973 0.0
H2729 H 0.04554 0.6034 0.82532 0.0
H2730 H 0.02272 0.59382 0.81473 0.0
H2731 H 0.03092 0.58243 0.85255 0.0
H2732 H 0.96451 0.55732 0.77749 0.0
H2733 H 0.98144 0.5273 0.86722 0.0
H2734 H 0.99519 0.57364 0.67958 0.0
H2735 H 0.00578 0.58967 0.7315 0.0
H2736 H 0.98301 0.58045 0.72078 0.0
H2737 H 0.01647 0.5364 0.79041 0.0
H2738 H 0.0095 0.53219 0.86136 0.0
H2739 H 0.02583 0.55333 0.8401 0.0
C2740 C 0.41841 0.45035 0.71316 0.0
C2741 C 0.42765 0.46233 0.67168 0.0
C2742 C 0.42514 0.44109 0.73938 0.0
C2743 C 0.44151 0.44394 0.72376 0.0
C2744 C 0.45063 0.45559 0.68061 0.0
C2745 C 0.44358 0.46465 0.65505 0.0
C2746 C 0.41501 0.42871 0.78503 0.0
C2747 C 0.46812 0.45895 0.66274 0.0
C2748 C 0.46866 0.43644 0.82752 0.0
C2749 C 0.46707 0.42101 0.8086 0.0
C2750 C 0.46006 0.44382 0.80105 0.0
C2751 C 0.44959 0.43553 0.75458 0.0
C2752 C 0.44751 0.41967 0.73631 0.0
C2753 C 0.45631 0.41259 0.76356 0.0
C2754 C 0.46257 0.46074 0.82182 0.0
C2755 C 0.4364 0.41043 0.68708 0.0
H2756 H 0.40607 0.4485 0.72611 0.0
H2757 H 0.45077 0.47388 0.62296 0.0
H2758 H 0.41377 0.41601 0.77708 0.0
H2759 H 0.4219 0.43346 0.82487 0.0
H2760 H 0.40197 0.42702 0.78944 0.0
H2761 H 0.4731 0.46768 0.62654 0.0
H2762 H 0.47734 0.4648 0.69737 0.0
H2763 H 0.4676 0.44672 0.65205 0.0
H2764 H 0.47696 0.44299 0.86236 0.0
H2765 H 0.45503 0.40064 0.74879 0.0
H2766 H 0.44998 0.45967 0.83064 0.0
H2767 H 0.46891 0.4707 0.78947 0.0
H2768 H 0.47052 0.46513 0.85991 0.0
H2769 H 0.42336 0.40862 0.69265 0.0
H2770 H 0.43525 0.3977 0.68031 0.0
H2771 H 0.4419 0.41829 0.64932 0.0
loop_
_geom_bond_atom_site_label_1
_geom_bond_atom_site_label_2
_geom_bond_distance
_geom_bond_site_symmetry_2
_ccdc_geom_bond_type
In0 O1 2.294 . S
In0 O2 2.326 . S
In0 O6 2.266 . S
In0 O7 2.326 . S
In0 O8 2.272 . S
In0 O9 2.326 . S
In0 O11 2.294 . S
In0 O12 2.326 . S
O1 In0 2.294 . S
O1 C10 1.240 . S
O2 In0 2.326 . S
O2 C10 1.252 . S
C3 O6 1.252 . S
C3 O7 1.260 . S
C4 O11 1.240 . S
C4 O12 1.252 . S
C5 O8 1.251 1_556 S
C5 O9 1.260 1_556 S
O6 In0 2.266 . S
O6 C3 1.252 . S
O7 In0 2.326 . S
O7 C3 1.260 . S
O8 In0 2.272 . S
O8 C5 1.251 1_554 S
O9 In0 2.326 . S
O9 C5 1.260 1_554 S
C10 O1 1.240 . S
C10 O2 1.252 . S
O11 In0 2.294 . S
O11 C4 1.240 . S
O12 In0 2.326 . S
O12 C4 1.252 . S
In13 O14 2.294 . S
In13 O15 2.326 . S
In13 O19 2.266 . S
In13 O20 2.326 . S
In13 O21 2.275 . S
In13 O22 2.326 . S
In13 O24 2.294 . S
In13 O25 2.326 . S
O14 In13 2.294 . S
O14 C23 1.240 . S
O15 In13 2.326 . S
O15 C23 1.252 . S
C16 O19 1.252 . S
C16 O20 1.260 . S
C17 O24 1.240 . S
C17 O25 1.252 . S
C18 O21 1.250 1_556 S
C18 O22 1.260 1_556 S
O19 In13 2.266 . S
O19 C16 1.252 . S
O20 In13 2.326 . S
O20 C16 1.260 . S
O21 In13 2.275 . S
O21 C18 1.250 1_554 S
O22 In13 2.326 . S
O22 C18 1.260 1_554 S
C23 O14 1.240 . S
C23 O15 1.252 . S
O24 In13 2.294 . S
O24 C17 1.240 . S
O25 In13 2.326 . S
O25 C17 1.252 . S
In26 O27 2.294 . S
In26 O28 2.326 . S
In26 O32 2.272 . S
In26 O33 2.326 . S
In26 O34 2.266 . S
In26 O35 2.326 . S
In26 O37 2.294 . S
In26 O38 2.326 . S
O27 In26 2.294 . S
O27 C36 1.240 . S
O28 In26 2.326 . S
O28 C36 1.252 . S
C29 O32 1.251 1_556 S
C29 O33 1.260 1_556 S
C30 O37 1.240 . S
C30 O38 1.252 . S
C31 O34 1.252 . S
C31 O35 1.260 . S
O32 In26 2.272 . S
O32 C29 1.251 1_554 S
O33 In26 2.326 . S
O33 C29 1.260 1_554 S
O34 In26 2.266 . S
O34 C31 1.252 . S
O35 In26 2.326 . S
O35 C31 1.260 . S
C36 O27 1.240 . S
C36 O28 1.252 . S
O37 In26 2.294 . S
O37 C30 1.240 . S
O38 In26 2.326 . S
O38 C30 1.252 . S
In39 O40 2.294 . S
In39 O41 2.326 . S
In39 O45 2.266 . S
In39 O46 2.326 . S
In39 O47 2.266 . S
In39 O48 2.326 . S
In39 O50 2.294 . S
In39 O51 2.326 . S
O40 In39 2.294 . S
O40 C49 1.240 . S
O41 In39 2.326 . S
O41 C49 1.252 . S
C42 O45 1.252 . S
C42 O46 1.260 . S
C43 O50 1.240 . S
C43 O51 1.252 . S
C44 O47 1.252 . S
C44 O48 1.260 . S
O45 In39 2.266 . S
O45 C42 1.252 . S
O46 In39 2.326 . S
O46 C42 1.260 . S
O47 In39 2.266 . S
O47 C44 1.252 . S
O48 In39 2.326 . S
O48 C44 1.260 . S
C49 O40 1.240 . S
C49 O41 1.252 . S
O50 In39 2.294 . S
O50 C43 1.240 . S
O51 In39 2.326 . S
O51 C43 1.252 . S
In52 O53 2.294 . S
In52 O54 2.326 . S
In52 O58 2.266 . S
In52 O59 2.326 . S
In52 O60 2.266 . S
In52 O61 2.326 . S
In52 O63 2.294 . S
In52 O64 2.326 . S
O53 In52 2.294 . S
O53 C62 1.240 . S
O54 In52 2.326 . S
O54 C62 1.252 . S
C55 O58 1.252 . S
C55 O59 1.260 . S
C56 O63 1.240 . S
C56 O64 1.252 . S
C57 O60 1.252 . S
C57 O61 1.260 . S
O58 In52 2.266 . S
O58 C55 1.252 . S
O59 In52 2.326 . S
O59 C55 1.260 . S
O60 In52 2.266 . S
O60 C57 1.252 . S
O61 In52 2.326 . S
O61 C57 1.260 . S
C62 O53 1.240 . S
C62 O54 1.252 . S
O63 In52 2.294 . S
O63 C56 1.240 . S
O64 In52 2.326 . S
O64 C56 1.252 . S
In65 O66 2.294 . S
In65 O67 2.326 . S
In65 O71 2.266 . S
In65 O72 2.326 . S
In65 O73 2.266 . S
In65 O74 2.326 . S
In65 O76 2.294 . S
In65 O77 2.326 . S
O66 In65 2.294 . S
O66 C75 1.240 . S
O67 In65 2.326 . S
O67 C75 1.252 . S
C68 O71 1.252 . S
C68 O72 1.260 . S
C69 O76 1.240 . S
C69 O77 1.252 . S
C70 O73 1.252 . S
C70 O74 1.260 . S
O71 In65 2.266 . S
O71 C68 1.252 . S
O72 In65 2.326 . S
O72 C68 1.260 . S
O73 In65 2.266 . S
O73 C70 1.252 . S
O74 In65 2.326 . S
O74 C70 1.260 . S
C75 O66 1.240 . S
C75 O67 1.252 . S
O76 In65 2.294 . S
O76 C69 1.240 . S
O77 In65 2.326 . S
O77 C69 1.252 . S
In78 O79 2.294 . S
In78 O80 2.326 . S
In78 O84 2.266 . S
In78 O85 2.326 . S
In78 O86 2.272 . S
In78 O87 2.326 . S
In78 O89 2.294 . S
In78 O90 2.326 . S
O79 In78 2.294 . S
O79 C88 1.240 . S
O80 In78 2.326 . S
O80 C88 1.252 . S
C81 O84 1.252 . S
C81 O85 1.260 . S
C82 O89 1.240 . S
C82 O90 1.252 . S
C83 O86 1.251 1_554 S
C83 O87 1.260 1_554 S
O84 In78 2.266 . S
O84 C81 1.252 . S
O85 In78 2.326 . S
O85 C81 1.260 . S
O86 In78 2.272 . S
O86 C83 1.251 1_556 S
O87 In78 2.326 . S
O87 C83 1.260 1_556 S
C88 O79 1.240 . S
C88 O80 1.252 . S
O89 In78 2.294 . S
O89 C82 1.240 . S
O90 In78 2.326 . S
O90 C82 1.252 . S
In91 O92 2.294 . S
In91 O93 2.326 . S
In91 O97 2.266 . S
In91 O98 2.326 . S
In91 O99 2.275 . S
In91 O100 2.326 . S
In91 O102 2.294 . S
In91 O103 2.326 . S
O92 In91 2.294 . S
O92 C101 1.240 . S
O93 In91 2.326 . S
O93 C101 1.252 . S
C94 O97 1.252 . S
C94 O98 1.260 . S
C95 O102 1.240 . S
C95 O103 1.252 . S
C96 O99 1.250 1_554 S
C96 O100 1.260 1_554 S
O97 In91 2.266 . S
O97 C94 1.252 . S
O98 In91 2.326 . S
O98 C94 1.260 . S
O99 In91 2.275 . S
O99 C96 1.250 1_556 S
O100 In91 2.326 . S
O100 C96 1.260 1_556 S
C101 O92 1.240 . S
C101 O93 1.252 . S
O102 In91 2.294 . S
O102 C95 1.240 . S
O103 In91 2.326 . S
O103 C95 1.252 . S
In104 O105 2.294 . S
In104 O106 2.326 . S
In104 O110 2.272 . S
In104 O111 2.326 . S
In104 O112 2.266 . S
In104 O113 2.326 . S
In104 O115 2.294 . S
In104 O116 2.326 . S
O105 In104 2.294 . S
O105 C114 1.240 . S
O106 In104 2.326 . S
O106 C114 1.252 . S
C107 O110 1.251 1_554 S
C107 O111 1.260 1_554 S
C108 O115 1.240 . S
C108 O116 1.252 . S
C109 O112 1.252 . S
C109 O113 1.260 . S
O110 In104 2.272 . S
O110 C107 1.251 1_556 S
O111 In104 2.326 . S
O111 C107 1.260 1_556 S
O112 In104 2.266 . S
O112 C109 1.252 . S
O113 In104 2.326 . S
O113 C109 1.260 . S
C114 O105 1.240 . S
C114 O106 1.252 . S
O115 In104 2.294 . S
O115 C108 1.240 . S
O116 In104 2.326 . S
O116 C108 1.252 . S
In117 O118 2.294 . S
In117 O119 2.326 . S
In117 O123 2.266 . S
In117 O124 2.326 . S
In117 O125 2.266 . S
In117 O126 2.326 . S
In117 O128 2.294 . S
In117 O129 2.326 . S
O118 In117 2.294 . S
O118 C127 1.240 . S
O119 In117 2.326 . S
O119 C127 1.252 . S
C120 O123 1.252 . S
C120 O124 1.260 . S
C121 O128 1.240 . S
C121 O129 1.252 . S
C122 O125 1.252 . S
C122 O126 1.260 . S
O123 In117 2.266 . S
O123 C120 1.252 . S
O124 In117 2.326 . S
O124 C120 1.260 . S
O125 In117 2.266 . S
O125 C122 1.252 . S
O126 In117 2.326 . S
O126 C122 1.260 . S
C127 O118 1.240 . S
C127 O119 1.252 . S
O128 In117 2.294 . S
O128 C121 1.240 . S
O129 In117 2.326 . S
O129 C121 1.252 . S
In130 O131 2.294 . S
In130 O132 2.326 . S
In130 O136 2.266 . S
In130 O137 2.326 . S
In130 O138 2.266 . S
In130 O139 2.326 . S
In130 O141 2.294 . S
In130 O142 2.326 . S
O131 In130 2.294 . S
O131 C140 1.240 . S
O132 In130 2.326 . S
O132 C140 1.252 . S
C133 O136 1.252 . S
C133 O137 1.260 . S
C134 O141 1.240 . S
C134 O142 1.252 . S
C135 O138 1.252 . S
C135 O139 1.260 . S
O136 In130 2.266 . S
O136 C133 1.252 . S
O137 In130 2.326 . S
O137 C133 1.260 . S
O138 In130 2.266 . S
O138 C135 1.252 . S
O139 In130 2.326 . S
O139 C135 1.260 . S
C140 O131 1.240 . S
C140 O132 1.252 . S
O141 In130 2.294 . S
O141 C134 1.240 . S
O142 In130 2.326 . S
O142 C134 1.252 . S
In143 O144 2.294 . S
In143 O145 2.326 . S
In143 O149 2.266 . S
In143 O150 2.326 . S
In143 O151 2.266 . S
In143 O152 2.326 . S
In143 O154 2.294 . S
In143 O155 2.326 . S
O144 In143 2.294 . S
O144 C153 1.240 . S
O145 In143 2.326 . S
O145 C153 1.252 . S
C146 O149 1.252 . S
C146 O150 1.260 . S
C147 O154 1.240 . S
C147 O155 1.252 . S
C148 O151 1.252 . S
C148 O152 1.260 . S
O149 In143 2.266 . S
O149 C146 1.252 . S
O150 In143 2.326 . S
O150 C146 1.260 . S
O151 In143 2.266 . S
O151 C148 1.252 . S
O152 In143 2.326 . S
O152 C148 1.260 . S
C153 O144 1.240 . S
C153 O145 1.252 . S
O154 In143 2.294 . S
O154 C147 1.240 . S
O155 In143 2.326 . S
O155 C147 1.252 . S
In156 O157 2.294 . S
In156 O158 2.326 . S
In156 O162 2.266 . S
In156 O163 2.326 . S
In156 O164 2.266 . S
In156 O165 2.326 . S
In156 O167 2.294 . S
In156 O168 2.326 . S
O157 In156 2.294 . S
O157 C166 1.240 . S
O158 In156 2.326 . S
O158 C166 1.252 . S
C159 O162 1.252 . S
C159 O163 1.260 . S
C160 O167 1.240 . S
C160 O168 1.252 . S
C161 O164 1.252 . S
C161 O165 1.260 . S
O162 In156 2.266 . S
O162 C159 1.252 . S
O163 In156 2.326 . S
O163 C159 1.260 . S
O164 In156 2.266 . S
O164 C161 1.252 . S
O165 In156 2.326 . S
O165 C161 1.260 . S
C166 O157 1.240 . S
C166 O158 1.252 . S
O167 In156 2.294 . S
O167 C160 1.240 . S
O168 In156 2.326 . S
O168 C160 1.252 . S
In169 O170 2.294 . S
In169 O171 2.326 . S
In169 O175 2.266 . S
In169 O176 2.326 . S
In169 O177 2.266 . S
In169 O178 2.326 . S
In169 O180 2.294 . S
In169 O181 2.326 . S
O170 In169 2.294 . S
O170 C179 1.240 . S
O171 In169 2.326 . S
O171 C179 1.252 . S
C172 O175 1.252 . S
C172 O176 1.260 . S
C173 O180 1.240 . S
C173 O181 1.252 . S
C174 O177 1.252 . S
C174 O178 1.260 . S
O175 In169 2.266 . S
O175 C172 1.252 . S
O176 In169 2.326 . S
O176 C172 1.260 . S
O177 In169 2.266 . S
O177 C174 1.252 . S
O178 In169 2.326 . S
O178 C174 1.260 . S
C179 O170 1.240 . S
C179 O171 1.252 . S
O180 In169 2.294 . S
O180 C173 1.240 . S
O181 In169 2.326 . S
O181 C173 1.252 . S
In182 O183 2.294 . S
In182 O184 2.326 . S
In182 O188 2.266 . S
In182 O189 2.326 . S
In182 O190 2.266 . S
In182 O191 2.326 . S
In182 O193 2.294 . S
In182 O194 2.326 . S
O183 In182 2.294 . S
O183 C192 1.240 . S
O184 In182 2.326 . S
O184 C192 1.252 . S
C185 O188 1.252 . S
C185 O189 1.260 . S
C186 O193 1.240 . S
C186 O194 1.252 . S
C187 O190 1.252 . S
C187 O191 1.260 . S
O188 In182 2.266 . S
O188 C185 1.252 . S
O189 In182 2.326 . S
O189 C185 1.260 . S
O190 In182 2.266 . S
O190 C187 1.252 . S
O191 In182 2.326 . S
O191 C187 1.260 . S
C192 O183 1.240 . S
C192 O184 1.252 . S
O193 In182 2.294 . S
O193 C186 1.240 . S
O194 In182 2.326 . S
O194 C186 1.252 . S
In195 O196 2.294 . S
In195 O197 2.326 . S
In195 O201 2.266 . S
In195 O202 2.326 . S
In195 O203 2.266 . S
In195 O204 2.326 . S
In195 O206 2.294 . S
In195 O207 2.326 . S
O196 In195 2.294 . S
O196 C205 1.240 . S
O197 In195 2.326 . S
O197 C205 1.252 . S
C198 O201 1.252 . S
C198 O202 1.260 . S
C199 O206 1.240 . S
C199 O207 1.252 . S
C200 O203 1.252 . S
C200 O204 1.260 . S
O201 In195 2.266 . S
O201 C198 1.252 . S
O202 In195 2.326 . S
O202 C198 1.260 . S
O203 In195 2.266 . S
O203 C200 1.252 . S
O204 In195 2.326 . S
O204 C200 1.260 . S
C205 O196 1.240 . S
C205 O197 1.252 . S
O206 In195 2.294 . S
O206 C199 1.240 . S
O207 In195 2.326 . S
O207 C199 1.252 . S
In208 O209 2.294 . S
In208 O210 2.326 . S
In208 O214 2.266 . S
In208 O215 2.326 . S
In208 O216 2.266 . S
In208 O217 2.326 . S
In208 O219 2.294 . S
In208 O220 2.326 . S
O209 In208 2.294 . S
O209 C218 1.240 . S
O210 In208 2.326 . S
O210 C218 1.252 . S
C211 O214 1.252 . S
C211 O215 1.260 . S
C212 O219 1.240 . S
C212 O220 1.252 . S
C213 O216 1.252 . S
C213 O217 1.260 . S
O214 In208 2.266 . S
O214 C211 1.252 . S
O215 In208 2.326 . S
O215 C211 1.260 . S
O216 In208 2.266 . S
O216 C213 1.252 . S
O217 In208 2.326 . S
O217 C213 1.260 . S
C218 O209 1.240 . S
C218 O210 1.252 . S
O219 In208 2.294 . S
O219 C212 1.240 . S
O220 In208 2.326 . S
O220 C212 1.252 . S
In221 O222 2.294 . S
In221 O223 2.326 . S
In221 O227 2.266 . S
In221 O228 2.326 . S
In221 O229 2.266 . S
In221 O230 2.326 . S
In221 O232 2.294 . S
In221 O233 2.326 . S
O222 In221 2.294 . S
O222 C231 1.240 . S
O223 In221 2.326 . S
O223 C231 1.252 . S
C224 O227 1.252 . S
C224 O228 1.260 . S
C225 O232 1.240 . S
C225 O233 1.252 . S
C226 O229 1.252 . S
C226 O230 1.260 . S
O227 In221 2.266 . S
O227 C224 1.252 . S
O228 In221 2.326 . S
O228 C224 1.260 . S
O229 In221 2.266 . S
O229 C226 1.252 . S
O230 In221 2.326 . S
O230 C226 1.260 . S
C231 O222 1.240 . S
C231 O223 1.252 . S
O232 In221 2.294 . S
O232 C225 1.240 . S
O233 In221 2.326 . S
O233 C225 1.252 . S
In234 O235 2.294 . S
In234 O236 2.326 . S
In234 O240 2.266 . S
In234 O241 2.326 . S
In234 O242 2.266 . S
In234 O243 2.326 . S
In234 O245 2.294 . S
In234 O246 2.326 . S
O235 In234 2.294 . S
O235 C244 1.240 . S
O236 In234 2.326 . S
O236 C244 1.252 . S
C237 O240 1.252 . S
C237 O241 1.260 . S
C238 O245 1.240 . S
C238 O246 1.252 . S
C239 O242 1.252 . S
C239 O243 1.260 . S
O240 In234 2.266 . S
O240 C237 1.252 . S
O241 In234 2.326 . S
O241 C237 1.260 . S
O242 In234 2.266 . S
O242 C239 1.252 . S
O243 In234 2.326 . S
O243 C239 1.260 . S
C244 O235 1.240 . S
C244 O236 1.252 . S
O245 In234 2.294 . S
O245 C238 1.240 . S
O246 In234 2.326 . S
O246 C238 1.252 . S
In247 O248 2.294 . S
In247 O249 2.326 . S
In247 O253 2.266 . S
In247 O254 2.326 . S
In247 O255 2.266 . S
In247 O256 2.326 . S
In247 O258 2.294 . S
In247 O259 2.326 . S
O248 In247 2.294 . S
O248 C257 1.240 . S
O249 In247 2.326 . S
O249 C257 1.252 . S
C250 O253 1.252 . S
C250 O254 1.260 . S
C251 O258 1.240 . S
C251 O259 1.252 . S
C252 O255 1.252 . S
C252 O256 1.260 . S
O253 In247 2.266 . S
O253 C250 1.252 . S
O254 In247 2.326 . S
O254 C250 1.260 . S
O255 In247 2.266 . S
O255 C252 1.252 . S
O256 In247 2.326 . S
O256 C252 1.260 . S
C257 O248 1.240 . S
C257 O249 1.252 . S
O258 In247 2.294 . S
O258 C251 1.240 . S
O259 In247 2.326 . S
O259 C251 1.252 . S
In260 O261 2.294 . S
In260 O262 2.326 . S
In260 O266 2.266 . S
In260 O267 2.326 . S
In260 O268 2.266 . S
In260 O269 2.326 . S
In260 O271 2.294 . S
In260 O272 2.326 . S
O261 In260 2.294 . S
O261 C270 1.240 . S
O262 In260 2.326 . S
O262 C270 1.252 . S
C263 O266 1.252 . S
C263 O267 1.260 . S
C264 O271 1.240 . S
C264 O272 1.252 . S
C265 O268 1.252 . S
C265 O269 1.260 . S
O266 In260 2.266 . S
O266 C263 1.252 . S
O267 In260 2.326 . S
O267 C263 1.260 . S
O268 In260 2.266 . S
O268 C265 1.252 . S
O269 In260 2.326 . S
O269 C265 1.260 . S
C270 O261 1.240 . S
C270 O262 1.252 . S
O271 In260 2.294 . S
O271 C264 1.240 . S
O272 In260 2.326 . S
O272 C264 1.252 . S
In273 O274 2.294 . S
In273 O275 2.326 . S
In273 O279 2.266 . S
In273 O280 2.326 . S
In273 O281 2.266 . S
In273 O282 2.326 . S
In273 O284 2.294 . S
In273 O285 2.326 . S
O274 In273 2.294 . S
O274 C283 1.240 1_556 S
O275 In273 2.326 . S
O275 C283 1.252 1_556 S
C276 O279 1.252 . S
C276 O280 1.260 . S
C277 O284 1.240 . S
C277 O285 1.252 . S
C278 O281 1.252 . S
C278 O282 1.260 . S
O279 In273 2.266 . S
O279 C276 1.252 . S
O280 In273 2.326 . S
O280 C276 1.260 . S
O281 In273 2.266 . S
O281 C278 1.252 . S
O282 In273 2.326 . S
O282 C278 1.260 . S
C283 O274 1.240 1_554 S
C283 O275 1.252 1_554 S
O284 In273 2.294 . S
O284 C277 1.240 . S
O285 In273 2.326 . S
O285 C277 1.252 . S
In286 O287 2.294 . S
In286 O288 2.326 . S
In286 O292 2.266 . S
In286 O293 2.326 . S
In286 O294 2.266 . S
In286 O295 2.326 . S
In286 O297 2.294 . S
In286 O298 2.326 . S
O287 In286 2.294 . S
O287 C296 1.240 1_556 S
O288 In286 2.326 . S
O288 C296 1.252 1_556 S
C289 O292 1.252 . S
C289 O293 1.260 . S
C290 O297 1.240 . S
C290 O298 1.252 . S
C291 O294 1.252 . S
C291 O295 1.260 . S
O292 In286 2.266 . S
O292 C289 1.252 . S
O293 In286 2.326 . S
O293 C289 1.260 . S
O294 In286 2.266 . S
O294 C291 1.252 . S
O295 In286 2.326 . S
O295 C291 1.260 . S
C296 O287 1.240 1_554 S
C296 O288 1.252 1_554 S
O297 In286 2.294 . S
O297 C290 1.240 . S
O298 In286 2.326 . S
O298 C290 1.252 . S
In299 O300 2.294 . S
In299 O301 2.326 . S
In299 O305 2.266 . S
In299 O306 2.326 . S
In299 O307 2.266 . S
In299 O308 2.326 . S
In299 O310 2.294 . S
In299 O311 2.326 . S
O300 In299 2.294 . S
O300 C309 1.240 . S
O301 In299 2.326 . S
O301 C309 1.252 . S
C302 O305 1.252 . S
C302 O306 1.260 . S
C303 O310 1.240 1_554 S
C303 O311 1.252 1_554 S
C304 O307 1.252 . S
C304 O308 1.260 . S
O305 In299 2.266 . S
O305 C302 1.252 . S
O306 In299 2.326 . S
O306 C302 1.260 . S
O307 In299 2.266 . S
O307 C304 1.252 . S
O308 In299 2.326 . S
O308 C304 1.260 . S
C309 O300 1.240 . S
C309 O301 1.252 . S
O310 In299 2.294 . S
O310 C303 1.240 1_556 S
O311 In299 2.326 . S
O311 C303 1.252 1_556 S
In312 O313 2.294 . S
In312 O314 2.326 . S
In312 O318 2.266 . S
In312 O319 2.326 . S
In312 O320 2.266 . S
In312 O321 2.326 . S
In312 O323 2.294 . S
In312 O324 2.326 . S
O313 In312 2.294 . S
O313 C322 1.240 . S
O314 In312 2.326 . S
O314 C322 1.252 . S
C315 O318 1.252 . S
C315 O319 1.260 . S
C316 O323 1.240 . S
C316 O324 1.252 . S
C317 O320 1.252 . S
C317 O321 1.260 . S
O318 In312 2.266 . S
O318 C315 1.252 . S
O319 In312 2.326 . S
O319 C315 1.260 . S
O320 In312 2.266 . S
O320 C317 1.252 . S
O321 In312 2.326 . S
O321 C317 1.260 . S
C322 O313 1.240 . S
C322 O314 1.252 . S
O323 In312 2.294 . S
O323 C316 1.240 . S
O324 In312 2.326 . S
O324 C316 1.252 . S
In325 O326 2.294 . S
In325 O327 2.326 . S
In325 O331 2.266 . S
In325 O332 2.326 . S
In325 O333 2.266 . S
In325 O334 2.326 . S
In325 O336 2.294 . S
In325 O337 2.326 . S
O326 In325 2.294 . S
O326 C335 1.240 . S
O327 In325 2.326 . S
O327 C335 1.252 . S
C328 O331 1.252 . S
C328 O332 1.260 . S
C329 O336 1.240 . S
C329 O337 1.252 . S
C330 O333 1.252 . S
C330 O334 1.260 . S
O331 In325 2.266 . S
O331 C328 1.252 . S
O332 In325 2.326 . S
O332 C328 1.260 . S
O333 In325 2.266 . S
O333 C330 1.252 . S
O334 In325 2.326 . S
O334 C330 1.260 . S
C335 O326 1.240 . S
C335 O327 1.252 . S
O336 In325 2.294 . S
O336 C329 1.240 . S
O337 In325 2.326 . S
O337 C329 1.252 . S
In338 O339 2.294 . S
In338 O340 2.326 . S
In338 O344 2.266 . S
In338 O345 2.326 . S
In338 O346 2.266 . S
In338 O347 2.326 . S
In338 O349 2.294 . S
In338 O350 2.326 . S
O339 In338 2.294 . S
O339 C348 1.240 . S
O340 In338 2.326 . S
O340 C348 1.252 . S
C341 O344 1.252 . S
C341 O345 1.260 . S
C342 O349 1.240 . S
C342 O350 1.252 . S
C343 O346 1.252 . S
C343 O347 1.260 . S
O344 In338 2.266 . S
O344 C341 1.252 . S
O345 In338 2.326 . S
O345 C341 1.260 . S
O346 In338 2.266 . S
O346 C343 1.252 . S
O347 In338 2.326 . S
O347 C343 1.260 . S
C348 O339 1.240 . S
C348 O340 1.252 . S
O349 In338 2.294 . S
O349 C342 1.240 . S
O350 In338 2.326 . S
O350 C342 1.252 . S
In351 O352 2.294 . S
In351 O353 2.326 . S
In351 O357 2.266 . S
In351 O358 2.326 . S
In351 O359 2.266 . S
In351 O360 2.326 . S
In351 O362 2.294 . S
In351 O363 2.326 . S
O352 In351 2.294 . S
O352 C361 1.240 . S
O353 In351 2.326 . S
O353 C361 1.252 . S
C354 O357 1.252 . S
C354 O358 1.260 . S
C355 O362 1.240 1_556 S
C355 O363 1.252 1_556 S
C356 O359 1.252 . S
C356 O360 1.260 . S
O357 In351 2.266 . S
O357 C354 1.252 . S
O358 In351 2.326 . S
O358 C354 1.260 . S
O359 In351 2.266 . S
O359 C356 1.252 . S
O360 In351 2.326 . S
O360 C356 1.260 . S
C361 O352 1.240 . S
C361 O353 1.252 . S
O362 In351 2.294 . S
O362 C355 1.240 1_554 S
O363 In351 2.326 . S
O363 C355 1.252 1_554 S
In364 O365 2.294 . S
In364 O366 2.326 . S
In364 O370 2.266 . S
In364 O371 2.326 . S
In364 O372 2.266 . S
In364 O373 2.326 . S
In364 O375 2.294 . S
In364 O376 2.326 . S
O365 In364 2.294 . S
O365 C374 1.240 . S
O366 In364 2.326 . S
O366 C374 1.252 . S
C367 O370 1.252 . S
C367 O371 1.260 . S
C368 O375 1.240 1_556 S
C368 O376 1.252 1_556 S
C369 O372 1.252 . S
C369 O373 1.260 . S
O370 In364 2.266 . S
O370 C367 1.252 . S
O371 In364 2.326 . S
O371 C367 1.260 . S
O372 In364 2.266 . S
O372 C369 1.252 . S
O373 In364 2.326 . S
O373 C369 1.260 . S
C374 O365 1.240 . S
C374 O366 1.252 . S
O375 In364 2.294 . S
O375 C368 1.240 1_554 S
O376 In364 2.326 . S
O376 C368 1.252 1_554 S
In377 O378 2.294 . S
In377 O379 2.326 . S
In377 O383 2.266 . S
In377 O384 2.326 . S
In377 O385 2.266 . S
In377 O386 2.326 . S
In377 O388 2.294 . S
In377 O389 2.326 . S
O378 In377 2.294 . S
O378 C387 1.240 . S
O379 In377 2.326 . S
O379 C387 1.252 . S
C380 O383 1.252 . S
C380 O384 1.260 . S
C381 O388 1.240 1_556 S
C381 O389 1.252 1_556 S
C382 O385 1.252 . S
C382 O386 1.260 . S
O383 In377 2.266 . S
O383 C380 1.252 . S
O384 In377 2.326 . S
O384 C380 1.260 . S
O385 In377 2.266 . S
O385 C382 1.252 . S
O386 In377 2.326 . S
O386 C382 1.260 . S
C387 O378 1.240 . S
C387 O379 1.252 . S
O388 In377 2.294 . S
O388 C381 1.240 1_554 S
O389 In377 2.326 . S
O389 C381 1.252 1_554 S
In390 O391 2.294 . S
In390 O392 2.326 . S
In390 O396 2.266 . S
In390 O397 2.326 . S
In390 O398 2.266 . S
In390 O399 2.326 . S
In390 O401 2.294 . S
In390 O402 2.326 . S
O391 In390 2.294 . S
O391 C400 1.240 . S
O392 In390 2.326 . S
O392 C400 1.252 . S
C393 O396 1.252 . S
C393 O397 1.260 . S
C394 O401 1.240 . S
C394 O402 1.252 . S
C395 O398 1.252 . S
C395 O399 1.260 . S
O396 In390 2.266 . S
O396 C393 1.252 . S
O397 In390 2.326 . S
O397 C393 1.260 . S
O398 In390 2.266 . S
O398 C395 1.252 . S
O399 In390 2.326 . S
O399 C395 1.260 . S
C400 O391 1.240 . S
C400 O392 1.252 . S
O401 In390 2.294 . S
O401 C394 1.240 . S
O402 In390 2.326 . S
O402 C394 1.252 . S
In403 O404 2.294 . S
In403 O405 2.326 . S
In403 O409 2.266 . S
In403 O410 2.326 . S
In403 O411 2.266 . S
In403 O412 2.326 . S
In403 O414 2.294 . S
In403 O415 2.326 . S
O404 In403 2.294 . S
O404 C413 1.240 . S
O405 In403 2.326 . S
O405 C413 1.252 . S
C406 O409 1.252 . S
C406 O410 1.260 . S
C407 O414 1.240 . S
C407 O415 1.252 . S
C408 O411 1.252 . S
C408 O412 1.260 . S
O409 In403 2.266 . S
O409 C406 1.252 . S
O410 In403 2.326 . S
O410 C406 1.260 . S
O411 In403 2.266 . S
O411 C408 1.252 . S
O412 In403 2.326 . S
O412 C408 1.260 . S
C413 O404 1.240 . S
C413 O405 1.252 . S
O414 In403 2.294 . S
O414 C407 1.240 . S
O415 In403 2.326 . S
O415 C407 1.252 . S
In416 O417 2.294 . S
In416 O418 2.326 . S
In416 O422 2.266 . S
In416 O423 2.326 . S
In416 O424 2.266 . S
In416 O425 2.326 . S
In416 O427 2.294 . S
In416 O428 2.326 . S
O417 In416 2.294 . S
O417 C426 1.240 . S
O418 In416 2.326 . S
O418 C426 1.252 . S
C419 O422 1.252 . S
C419 O423 1.260 . S
C420 O427 1.240 . S
C420 O428 1.252 . S
C421 O424 1.252 . S
C421 O425 1.260 . S
O422 In416 2.266 . S
O422 C419 1.252 . S
O423 In416 2.326 . S
O423 C419 1.260 . S
O424 In416 2.266 . S
O424 C421 1.252 . S
O425 In416 2.326 . S
O425 C421 1.260 . S
C426 O417 1.240 . S
C426 O418 1.252 . S
O427 In416 2.294 . S
O427 C420 1.240 . S
O428 In416 2.326 . S
O428 C420 1.252 . S
In429 O430 2.294 . S
In429 O431 2.326 . S
In429 O435 2.266 . S
In429 O436 2.326 . S
In429 O437 2.266 . S
In429 O438 2.326 . S
In429 O440 2.294 . S
In429 O441 2.326 . S
O430 In429 2.294 . S
O430 C439 1.240 . S
O431 In429 2.326 . S
O431 C439 1.252 . S
C432 O435 1.252 . S
C432 O436 1.260 . S
C433 O440 1.240 . S
C433 O441 1.252 . S
C434 O437 1.252 . S
C434 O438 1.260 . S
O435 In429 2.266 . S
O435 C432 1.252 . S
O436 In429 2.326 . S
O436 C432 1.260 . S
O437 In429 2.266 . S
O437 C434 1.252 . S
O438 In429 2.326 . S
O438 C434 1.260 . S
C439 O430 1.240 . S
C439 O431 1.252 . S
O440 In429 2.294 . S
O440 C433 1.240 . S
O441 In429 2.326 . S
O441 C433 1.252 . S
In442 O443 2.294 . S
In442 O444 2.326 . S
In442 O448 2.266 . S
In442 O449 2.326 . S
In442 O450 2.266 . S
In442 O451 2.326 . S
In442 O453 2.294 . S
In442 O454 2.326 . S
O443 In442 2.294 . S
O443 C452 1.240 . S
O444 In442 2.326 . S
O444 C452 1.252 . S
C445 O448 1.252 . S
C445 O449 1.260 . S
C446 O453 1.240 . S
C446 O454 1.252 . S
C447 O450 1.252 . S
C447 O451 1.260 . S
O448 In442 2.266 . S
O448 C445 1.252 . S
O449 In442 2.326 . S
O449 C445 1.260 . S
O450 In442 2.266 . S
O450 C447 1.252 . S
O451 In442 2.326 . S
O451 C447 1.260 . S
C452 O443 1.240 . S
C452 O444 1.252 . S
O453 In442 2.294 . S
O453 C446 1.240 . S
O454 In442 2.326 . S
O454 C446 1.252 . S
In455 O456 2.294 . S
In455 O457 2.326 . S
In455 O461 2.266 . S
In455 O462 2.326 . S
In455 O463 2.266 . S
In455 O464 2.326 . S
In455 O466 2.294 . S
In455 O467 2.326 . S
O456 In455 2.294 . S
O456 C465 1.240 . S
O457 In455 2.326 . S
O457 C465 1.252 . S
C458 O461 1.252 . S
C458 O462 1.260 . S
C459 O466 1.240 . S
C459 O467 1.252 . S
C460 O463 1.252 . S
C460 O464 1.260 . S
O461 In455 2.266 . S
O461 C458 1.252 . S
O462 In455 2.326 . S
O462 C458 1.260 . S
O463 In455 2.266 . S
O463 C460 1.252 . S
O464 In455 2.326 . S
O464 C460 1.260 . S
C465 O456 1.240 . S
C465 O457 1.252 . S
O466 In455 2.294 . S
O466 C459 1.240 . S
O467 In455 2.326 . S
O467 C459 1.252 . S
C468 C469 1.391 . S
C468 C470 1.394 . S
C468 H484 0.931 . S
C469 C468 1.391 . S
C469 C473 1.376 . S
C470 C468 1.394 . S
C470 C471 1.369 . S
C470 C474 1.531 . S
C471 C470 1.369 . S
C471 C472 1.410 . S
C471 C479 1.503 1_565 S
C472 C471 1.410 . S
C472 C473 1.392 . S
C472 C475 1.511 1_565 S
C473 C469 1.376 . S
C473 C472 1.392 . S
C473 H485 0.929 . S
C474 C470 1.531 . S
C474 H486 0.960 . S
C474 H487 0.962 . S
C474 H488 0.960 . S
C475 C472 1.511 1_545 S
C475 H489 0.961 . S
C475 H490 0.961 . S
C475 H491 0.961 1_545 S
C476 C477 1.370 . S
C476 C478 1.363 . S
C476 H492 0.931 . S
C477 C476 1.370 . S
C477 C481 1.408 . S
C478 C476 1.363 . S
C478 C479 1.370 . S
C478 C482 1.524 . S
C479 C471 1.503 1_545 S
C479 C478 1.370 . S
C479 C480 1.403 . S
C480 C479 1.403 . S
C480 C481 1.404 . S
C480 C483 1.539 1_545 S
C481 C477 1.408 . S
C481 C480 1.404 . S
C481 H493 0.930 . S
C482 C478 1.524 . S
C482 H494 0.956 . S
C482 H495 0.961 . S
C482 H496 0.961 . S
C483 C480 1.539 1_565 S
C483 H497 0.958 . S
C483 H498 0.961 . S
C483 H499 0.960 . S
H484 C468 0.931 . S
H485 C473 0.929 . S
H486 C474 0.960 . S
H487 C474 0.962 . S
H488 C474 0.960 . S
H489 C475 0.961 . S
H490 C475 0.961 . S
H491 C475 0.961 1_565 S
H492 C476 0.931 . S
H493 C481 0.930 . S
H494 C482 0.956 . S
H495 C482 0.961 . S
H496 C482 0.961 . S
H497 C483 0.958 . S
H498 C483 0.961 . S
H499 C483 0.960 . S
C500 C501 1.391 . S
C500 C502 1.394 . S
C500 H516 0.931 . S
C501 C500 1.391 . S
C501 C505 1.376 . S
C502 C500 1.394 . S
C502 C503 1.369 . S
C502 C506 1.531 . S
C503 C502 1.369 . S
C503 C504 1.410 . S
C503 C511 1.503 1_655 S
C504 C503 1.410 . S
C504 C505 1.392 . S
C504 C507 1.511 1_655 S
C505 C501 1.376 . S
C505 C504 1.392 . S
C505 H517 0.929 . S
C506 C502 1.531 . S
C506 H518 0.960 . S
C506 H519 0.962 . S
C506 H520 0.960 . S
C507 C504 1.511 1_455 S
C507 H521 0.961 . S
C507 H522 0.961 . S
C507 H523 0.961 . S
C508 C509 1.370 . S
C508 C510 1.363 . S
C508 H524 0.931 . S
C509 C508 1.370 . S
C509 C513 1.408 . S
C510 C508 1.363 . S
C510 C511 1.370 . S
C510 C514 1.524 . S
C511 C503 1.503 1_455 S
C511 C510 1.370 . S
C511 C512 1.403 . S
C512 C511 1.403 . S
C512 C513 1.404 . S
C512 C515 1.539 1_455 S
C513 C509 1.408 . S
C513 C512 1.404 . S
C513 H525 0.930 . S
C514 C510 1.524 . S
C514 H526 0.956 . S
C514 H527 0.961 . S
C514 H528 0.961 . S
C515 C512 1.539 1_655 S
C515 H529 0.958 . S
C515 H530 0.961 1_655 S
C515 H531 0.960 . S
H516 C500 0.931 . S
H517 C505 0.929 . S
H518 C506 0.960 . S
H519 C506 0.962 . S
H520 C506 0.960 . S
H521 C507 0.961 . S
H522 C507 0.961 . S
H523 C507 0.961 . S
H524 C508 0.931 . S
H525 C513 0.930 . S
H526 C514 0.956 . S
H527 C514 0.961 . S
H528 C514 0.961 . S
H529 C515 0.958 . S
H530 C515 0.961 1_455 S
H531 C515 0.960 . S
C532 C533 1.391 . S
C532 C534 1.394 . S
C532 H548 0.931 . S
C533 C532 1.391 . S
C533 C537 1.376 . S
C534 C532 1.394 . S
C534 C535 1.369 . S
C534 C538 1.531 . S
C535 C534 1.369 . S
C535 C536 1.410 . S
C535 C543 1.503 . S
C536 C535 1.410 . S
C536 C537 1.392 . S
C536 C539 1.511 . S
C537 C533 1.376 . S
C537 C536 1.392 . S
C537 H549 0.929 . S
C538 C534 1.531 . S
C538 H550 0.960 . S
C538 H551 0.962 . S
C538 H552 0.960 . S
C539 C536 1.511 . S
C539 H553 0.961 . S
C539 H554 0.961 . S
C539 H555 0.961 . S
C540 C541 1.370 . S
C540 C542 1.363 . S
C540 H556 0.931 . S
C541 C540 1.370 . S
C541 C545 1.408 . S
C542 C540 1.363 . S
C542 C543 1.370 . S
C542 C546 1.524 . S
C543 C535 1.503 . S
C543 C542 1.370 . S
C543 C544 1.403 . S
C544 C543 1.403 . S
C544 C545 1.404 . S
C544 C547 1.539 . S
C545 C541 1.408 . S
C545 C544 1.404 . S
C545 H557 0.930 . S
C546 C542 1.524 . S
C546 H558 0.956 . S
C546 H559 0.961 . S
C546 H560 0.961 . S
C547 C544 1.539 . S
C547 H561 0.958 . S
C547 H562 0.961 . S
C547 H563 0.960 . S
H548 C532 0.931 . S
H549 C537 0.929 . S
H550 C538 0.960 . S
H551 C538 0.962 . S
H552 C538 0.960 . S
H553 C539 0.961 . S
H554 C539 0.961 . S
H555 C539 0.961 . S
H556 C540 0.931 . S
H557 C545 0.930 . S
H558 C546 0.956 . S
H559 C546 0.961 . S
H560 C546 0.961 . S
H561 C547 0.958 . S
H562 C547 0.961 . S
H563 C547 0.960 . S
C564 C565 1.391 . S
C564 C566 1.394 . S
C564 H580 0.931 . S
C565 C564 1.391 . S
C565 C569 1.376 . S
C566 C564 1.394 . S
C566 C567 1.369 . S
C566 C570 1.531 . S
C567 C566 1.369 . S
C567 C568 1.410 . S
C567 C575 1.503 1_565 S
C568 C567 1.410 . S
C568 C569 1.392 . S
C568 C571 1.511 1_565 S
C569 C565 1.376 . S
C569 C568 1.392 . S
C569 H581 0.929 . S
C570 C566 1.531 . S
C570 H582 0.960 . S
C570 H583 0.962 . S
C570 H584 0.960 . S
C571 C568 1.511 1_545 S
C571 H585 0.961 . S
C571 H586 0.961 . S
C571 H587 0.961 . S
C572 C573 1.370 . S
C572 C574 1.363 . S
C572 H588 0.931 . S
C573 C572 1.370 . S
C573 C577 1.408 . S
C574 C572 1.363 . S
C574 C575 1.370 . S
C574 C578 1.524 . S
C575 C567 1.503 1_545 S
C575 C574 1.370 . S
C575 C576 1.403 . S
C576 C575 1.403 . S
C576 C577 1.404 . S
C576 C579 1.539 . S
C577 C573 1.408 . S
C577 C576 1.404 . S
C577 H589 0.930 . S
C578 C574 1.524 . S
C578 H590 0.956 1_545 S
C578 H591 0.961 . S
C578 H592 0.961 . S
C579 C576 1.539 . S
C579 H593 0.989 . S
C579 H594 0.961 . S
C579 H595 0.960 . S
H580 C564 0.931 . S
H581 C569 0.929 . S
H582 C570 0.960 . S
H583 C570 0.962 . S
H584 C570 0.960 . S
H585 C571 0.961 . S
H586 C571 0.961 . S
H587 C571 0.961 . S
H588 C572 0.931 . S
H589 C577 0.930 . S
H590 C578 0.956 1_565 S
H591 C578 0.961 . S
H592 C578 0.961 . S
H593 C579 0.989 . S
H594 C579 0.961 . S
H595 C579 0.960 . S
C596 C597 1.391 . S
C596 C598 1.394 . S
C596 H612 0.931 . S
C597 C596 1.391 . S
C597 C601 1.376 . S
C598 C596 1.394 . S
C598 C599 1.369 . S
C598 C602 1.531 1_455 S
C599 C598 1.369 . S
C599 C600 1.410 . S
C599 C607 1.503 1_455 S
C600 C599 1.410 . S
C600 C601 1.392 . S
C600 C603 1.511 . S
C601 C597 1.376 . S
C601 C600 1.392 . S
C601 H613 0.929 . S
C602 C598 1.531 1_655 S
C602 H614 0.960 . S
C602 H615 0.962 . S
C602 H616 0.960 . S
C603 C600 1.511 . S
C603 H617 0.961 . S
C603 H618 0.961 . S
C603 H619 0.961 . S
C604 C605 1.370 . S
C604 C606 1.363 . S
C604 H620 0.931 . S
C605 C604 1.370 . S
C605 C609 1.408 . S
C606 C604 1.363 . S
C606 C607 1.370 . S
C606 C610 1.524 . S
C607 C599 1.503 1_655 S
C607 C606 1.370 . S
C607 C608 1.403 . S
C608 C607 1.403 . S
C608 C609 1.404 . S
C608 C611 1.539 . S
C609 C605 1.408 . S
C609 C608 1.404 . S
C609 H621 0.930 . S
C610 C606 1.524 . S
C610 H622 0.956 . S
C610 H623 0.934 1_655 S
C610 H624 0.961 . S
C611 C608 1.539 . S
C611 H625 0.958 . S
C611 H626 0.961 1_655 S
C611 H627 0.960 1_655 S
H612 C596 0.931 . S
H613 C601 0.929 . S
H614 C602 0.960 . S
H615 C602 0.962 . S
H616 C602 0.960 . S
H617 C603 0.961 . S
H618 C603 0.961 . S
H619 C603 0.961 . S
H620 C604 0.931 . S
H621 C609 0.930 . S
H622 C610 0.956 . S
H623 C610 0.934 1_455 S
H624 C610 0.961 . S
H625 C611 0.958 . S
H626 C611 0.961 1_455 S
H627 C611 0.960 1_455 S
C628 C629 1.391 . S
C628 C630 1.394 . S
C628 H644 0.931 . S
C629 C628 1.391 . S
C629 C633 1.376 . S
C630 C628 1.394 . S
C630 C631 1.369 . S
C630 C634 1.531 . S
C631 C630 1.369 . S
C631 C632 1.410 . S
C631 C639 1.503 . S
C632 C631 1.410 . S
C632 C633 1.392 . S
C632 C635 1.511 . S
C633 C629 1.376 . S
C633 C632 1.392 . S
C633 H645 0.929 . S
C634 C630 1.531 . S
C634 H646 0.960 . S
C634 H647 0.962 . S
C634 H648 0.960 . S
C635 C632 1.511 . S
C635 H649 0.961 . S
C635 H650 0.961 . S
C635 H651 0.961 . S
C636 C637 1.370 . S
C636 C638 1.363 . S
C636 H652 0.931 . S
C637 C636 1.370 . S
C637 C641 1.408 . S
C638 C636 1.363 . S
C638 C639 1.370 . S
C638 C642 1.524 . S
C639 C631 1.503 . S
C639 C638 1.370 . S
C639 C640 1.403 . S
C640 C639 1.403 . S
C640 C641 1.404 . S
C640 C643 1.539 . S
C641 C637 1.408 . S
C641 C640 1.404 . S
C641 H653 0.930 . S
C642 C638 1.524 . S
C642 H654 0.956 . S
C642 H655 0.961 . S
C642 H656 0.961 . S
C643 C640 1.539 . S
C643 H657 0.958 . S
C643 H658 0.961 . S
C643 H659 0.960 . S
H644 C628 0.931 . S
H645 C633 0.929 . S
H646 C634 0.960 . S
H647 C634 0.962 . S
H648 C634 0.960 . S
H649 C635 0.961 . S
H650 C635 0.961 . S
H651 C635 0.961 . S
H652 C636 0.931 . S
H653 C641 0.930 . S
H654 C642 0.956 . S
H655 C642 0.961 . S
H656 C642 0.961 . S
H657 C643 0.958 . S
H658 C643 0.961 . S
H659 C643 0.960 . S
C660 C661 1.391 . S
C660 C662 1.394 . S
C660 H676 0.931 . S
C661 C660 1.391 . S
C661 C665 1.376 . S
C662 C660 1.394 . S
C662 C663 1.369 . S
C662 C666 1.531 . S
C663 C662 1.369 . S
C663 C664 1.410 . S
C663 C671 1.503 . S
C664 C663 1.410 . S
C664 C665 1.392 . S
C664 C667 1.511 . S
C665 C661 1.376 . S
C665 C664 1.392 . S
C665 H677 0.929 . S
C666 C662 1.531 . S
C666 H678 0.960 . S
C666 H679 0.962 . S
C666 H680 0.960 . S
C667 C664 1.511 . S
C667 H681 0.961 . S
C667 H682 0.961 . S
C667 H683 0.961 . S
C668 C669 1.370 . S
C668 C670 1.363 . S
C668 H684 0.931 . S
C669 C668 1.370 . S
C669 C673 1.408 . S
C670 C668 1.363 . S
C670 C671 1.370 . S
C670 C674 1.524 . S
C671 C663 1.503 . S
C671 C670 1.370 . S
C671 C672 1.403 . S
C672 C671 1.403 . S
C672 C673 1.404 . S
C672 C675 1.539 . S
C673 C669 1.408 . S
C673 C672 1.404 . S
C673 H685 0.930 . S
C674 C670 1.524 . S
C674 H686 0.956 . S
C674 H687 0.961 . S
C674 H688 0.961 . S
C675 C672 1.539 . S
C675 H689 0.958 . S
C675 H690 0.961 . S
C675 H691 0.960 . S
H676 C660 0.931 . S
H677 C665 0.929 . S
H678 C666 0.960 . S
H679 C666 0.962 . S
H680 C666 0.960 . S
H681 C667 0.961 . S
H682 C667 0.961 . S
H683 C667 0.961 . S
H684 C668 0.931 . S
H685 C673 0.930 . S
H686 C674 0.956 . S
H687 C674 0.961 . S
H688 C674 0.961 . S
H689 C675 0.958 . S
H690 C675 0.961 . S
H691 C675 0.960 . S
C692 C693 1.391 . S
C692 C694 1.394 . S
C692 H708 0.931 . S
C693 C692 1.391 . S
C693 C697 1.376 . S
C694 C692 1.394 . S
C694 C695 1.369 . S
C694 C698 1.531 . S
C695 C694 1.369 . S
C695 C696 1.410 . S
C695 C703 1.503 . S
C696 C695 1.410 . S
C696 C697 1.392 . S
C696 C699 1.511 . S
C697 C693 1.376 . S
C697 C696 1.392 . S
C697 H709 0.929 . S
C698 C694 1.531 . S
C698 H710 0.960 . S
C698 H711 0.962 . S
C698 H712 0.960 . S
C699 C696 1.511 . S
C699 H713 0.961 . S
C699 H714 0.961 . S
C699 H715 0.961 . S
C700 C701 1.370 . S
C700 C702 1.363 . S
C700 H716 0.931 . S
C701 C700 1.370 . S
C701 C705 1.408 . S
C702 C700 1.363 . S
C702 C703 1.370 . S
C702 C706 1.524 . S
C703 C695 1.503 . S
C703 C702 1.370 . S
C703 C704 1.403 . S
C704 C703 1.403 . S
C704 C705 1.404 . S
C704 C707 1.539 . S
C705 C701 1.408 . S
C705 C704 1.404 . S
C705 H717 0.930 . S
C706 C702 1.524 . S
C706 H718 0.956 . S
C706 H719 0.961 . S
C706 H720 0.961 . S
C707 C704 1.539 . S
C707 H721 0.958 . S
C707 H722 0.961 . S
C707 H723 0.960 . S
H708 C692 0.931 . S
H709 C697 0.929 . S
H710 C698 0.960 . S
H711 C698 0.962 . S
H712 C698 0.960 . S
H713 C699 0.961 . S
H714 C699 0.961 . S
H715 C699 0.961 . S
H716 C700 0.931 . S
H717 C705 0.930 . S
H718 C706 0.956 . S
H719 C706 0.961 . S
H720 C706 0.961 . S
H721 C707 0.958 . S
H722 C707 0.961 . S
H723 C707 0.960 . S
C724 C725 1.391 . S
C724 C726 1.394 . S
C724 H740 0.931 . S
C725 C724 1.391 . S
C725 C729 1.376 . S
C726 C724 1.394 . S
C726 C727 1.369 . S
C726 C730 1.531 . S
C727 C726 1.369 . S
C727 C728 1.410 . S
C727 C735 1.503 . S
C728 C727 1.410 . S
C728 C729 1.392 . S
C728 C731 1.511 . S
C729 C725 1.376 . S
C729 C728 1.392 . S
C729 H741 0.929 . S
C730 C726 1.531 . S
C730 H742 0.960 . S
C730 H743 0.962 . S
C730 H744 0.960 . S
C731 C728 1.511 . S
C731 H745 0.961 . S
C731 H746 0.961 . S
C731 H747 0.961 . S
C732 C733 1.370 . S
C732 C734 1.363 . S
C732 H748 0.931 . S
C733 C732 1.370 . S
C733 C737 1.408 . S
C734 C732 1.363 . S
C734 C735 1.370 . S
C734 C738 1.524 . S
C735 C727 1.503 . S
C735 C734 1.370 . S
C735 C736 1.403 . S
C736 C735 1.403 . S
C736 C737 1.404 . S
C736 C739 1.539 . S
C737 C733 1.408 . S
C737 C736 1.404 . S
C737 H749 0.930 . S
C738 C734 1.524 . S
C738 H750 0.956 . S
C738 H751 0.961 . S
C738 H752 0.961 . S
C739 C736 1.539 . S
C739 H753 0.958 . S
C739 H754 0.961 . S
C739 H755 0.960 . S
H740 C724 0.931 . S
H741 C729 0.929 . S
H742 C730 0.960 . S
H743 C730 0.962 . S
H744 C730 0.960 . S
H745 C731 0.961 . S
H746 C731 0.961 . S
H747 C731 0.961 . S
H748 C732 0.931 . S
H749 C737 0.930 . S
H750 C738 0.956 . S
H751 C738 0.961 . S
H752 C738 0.961 . S
H753 C739 0.958 . S
H754 C739 0.961 . S
H755 C739 0.960 . S
C756 C757 1.391 . S
C756 C758 1.394 . S
C756 H772 0.931 . S
C757 C756 1.391 . S
C757 C761 1.376 . S
C758 C756 1.394 . S
C758 C759 1.369 . S
C758 C762 1.531 . S
C759 C758 1.369 . S
C759 C760 1.410 . S
C759 C767 1.503 . S
C760 C759 1.410 . S
C760 C761 1.392 . S
C760 C763 1.511 . S
C761 C757 1.376 . S
C761 C760 1.392 . S
C761 H773 0.929 . S
C762 C758 1.531 . S
C762 H774 0.960 . S
C762 H775 0.962 . S
C762 H776 0.960 . S
C763 C760 1.511 . S
C763 H777 0.961 . S
C763 H778 0.961 . S
C763 H779 0.961 . S
C764 C765 1.370 1_554 S
C764 C766 1.363 . S
C764 H780 0.931 . S
C765 C764 1.370 1_556 S
C765 C769 1.408 . S
C766 C764 1.363 . S
C766 C767 1.370 . S
C766 C770 1.524 . S
C767 C759 1.503 . S
C767 C766 1.370 . S
C767 C768 1.403 . S
C768 C767 1.403 . S
C768 C769 1.404 1_554 S
C768 C771 1.539 1_554 S
C769 C765 1.408 . S
C769 C768 1.404 1_556 S
C769 H781 0.930 . S
C770 C766 1.524 . S
C770 H782 0.956 . S
C770 H783 0.961 . S
C770 H784 0.961 . S
C771 C768 1.539 1_556 S
C771 H785 0.958 . S
C771 H786 0.961 . S
C771 H787 0.960 1_556 S
H772 C756 0.931 . S
H773 C761 0.929 . S
H774 C762 0.960 . S
H775 C762 0.962 . S
H776 C762 0.960 . S
H777 C763 0.961 . S
H778 C763 0.961 . S
H779 C763 0.961 . S
H780 C764 0.931 . S
H781 C769 0.930 . S
H782 C770 0.956 . S
H783 C770 0.961 . S
H784 C770 0.961 . S
H785 C771 0.958 . S
H786 C771 0.961 . S
H787 C771 0.960 1_554 S
C788 C789 1.391 . S
C788 C790 1.394 . S
C788 H804 0.931 . S
C789 C788 1.391 . S
C789 C793 1.376 . S
C790 C788 1.394 . S
C790 C791 1.369 . S
C790 C794 1.531 . S
C791 C790 1.369 . S
C791 C792 1.410 . S
C791 C799 1.503 . S
C792 C791 1.410 . S
C792 C793 1.392 . S
C792 C795 1.511 . S
C793 C789 1.376 . S
C793 C792 1.392 . S
C793 H805 0.929 . S
C794 C790 1.531 . S
C794 H806 0.960 . S
C794 H807 0.962 . S
C794 H808 0.960 . S
C795 C792 1.511 . S
C795 H809 0.961 . S
C795 H810 0.961 . S
C795 H811 0.961 . S
C796 C797 1.370 . S
C796 C798 1.363 1_556 S
C796 H812 0.931 . S
C797 C796 1.370 . S
C797 C801 1.408 1_556 S
C798 C796 1.363 1_554 S
C798 C799 1.370 . S
C798 C802 1.524 . S
C799 C791 1.503 . S
C799 C798 1.370 . S
C799 C800 1.403 . S
C800 C799 1.403 . S
C800 C801 1.404 . S
C800 C803 1.539 . S
C801 C797 1.408 1_554 S
C801 C800 1.404 . S
C801 H813 0.930 . S
C802 C798 1.524 . S
C802 H814 0.956 . S
C802 H815 0.961 . S
C802 H816 0.961 . S
C803 C800 1.539 . S
C803 H817 0.958 . S
C803 H818 0.961 . S
C803 H819 0.960 . S
H804 C788 0.931 . S
H805 C793 0.929 . S
H806 C794 0.960 . S
H807 C794 0.962 . S
H808 C794 0.960 . S
H809 C795 0.961 . S
H810 C795 0.961 . S
H811 C795 0.961 . S
H812 C796 0.931 . S
H813 C801 0.930 . S
H814 C802 0.956 . S
H815 C802 0.961 . S
H816 C802 0.961 . S
H817 C803 0.958 . S
H818 C803 0.961 . S
H819 C803 0.960 . S
C820 C821 1.391 . S
C820 C822 1.394 . S
C820 H836 0.931 . S
C821 C820 1.391 . S
C821 C825 1.376 . S
C822 C820 1.394 . S
C822 C823 1.369 . S
C822 C826 1.531 . S
C823 C822 1.369 . S
C823 C824 1.410 . S
C823 C831 1.503 . S
C824 C823 1.410 . S
C824 C825 1.392 . S
C824 C827 1.511 . S
C825 C821 1.376 . S
C825 C824 1.392 . S
C825 H837 0.929 . S
C826 C822 1.531 . S
C826 H838 0.960 . S
C826 H839 0.962 . S
C826 H840 0.960 . S
C827 C824 1.511 . S
C827 H841 0.961 . S
C827 H842 0.961 . S
C827 H843 0.961 . S
C828 C829 1.370 1_554 S
C828 C830 1.363 . S
C828 H844 0.931 . S
C829 C828 1.370 1_556 S
C829 C833 1.408 . S
C830 C828 1.363 . S
C830 C831 1.370 . S
C830 C834 1.524 . S
C831 C823 1.503 . S
C831 C830 1.370 . S
C831 C832 1.403 1_554 S
C832 C831 1.403 1_556 S
C832 C833 1.404 . S
C832 C835 1.539 . S
C833 C829 1.408 . S
C833 C832 1.404 . S
C833 H845 0.930 . S
C834 C830 1.524 . S
C834 H846 0.956 . S
C834 H847 0.961 . S
C834 H848 0.961 . S
C835 C832 1.539 . S
C835 H849 0.958 . S
C835 H850 0.961 . S
C835 H851 0.960 . S
H836 C820 0.931 . S
H837 C825 0.929 . S
H838 C826 0.960 . S
H839 C826 0.962 . S
H840 C826 0.960 . S
H841 C827 0.961 . S
H842 C827 0.961 . S
H843 C827 0.961 . S
H844 C828 0.931 . S
H845 C833 0.930 . S
H846 C834 0.956 . S
H847 C834 0.961 . S
H848 C834 0.961 . S
H849 C835 0.958 . S
H850 C835 0.961 . S
H851 C835 0.960 . S
C852 C853 1.391 . S
C852 C854 1.394 . S
C852 H868 0.931 . S
C853 C852 1.391 . S
C853 C857 1.376 . S
C854 C852 1.394 . S
C854 C855 1.369 . S
C854 C858 1.531 . S
C855 C854 1.369 . S
C855 C856 1.410 . S
C855 C863 1.503 . S
C856 C855 1.410 . S
C856 C857 1.392 . S
C856 C859 1.511 . S
C857 C853 1.376 . S
C857 C856 1.392 . S
C857 H869 0.929 . S
C858 C854 1.531 . S
C858 H870 0.960 . S
C858 H871 0.962 . S
C858 H872 0.960 . S
C859 C856 1.511 . S
C859 H873 0.961 . S
C859 H874 0.961 . S
C859 H875 0.961 . S
C860 C861 1.370 1_556 S
C860 C862 1.363 . S
C860 H876 0.931 . S
C861 C860 1.370 1_554 S
C861 C865 1.408 . S
C862 C860 1.363 . S
C862 C863 1.370 . S
C862 C866 1.524 . S
C863 C855 1.503 . S
C863 C862 1.370 . S
C863 C864 1.403 . S
C864 C863 1.403 . S
C864 C865 1.404 1_556 S
C864 C867 1.539 1_556 S
C865 C861 1.408 . S
C865 C864 1.404 1_554 S
C865 H877 0.930 . S
C866 C862 1.524 . S
C866 H878 0.956 . S
C866 H879 0.961 . S
C866 H880 0.961 . S
C867 C864 1.539 1_554 S
C867 H881 0.958 . S
C867 H882 0.961 . S
C867 H883 0.960 1_554 S
H868 C852 0.931 . S
H869 C857 0.929 . S
H870 C858 0.960 . S
H871 C858 0.962 . S
H872 C858 0.960 . S
H873 C859 0.961 . S
H874 C859 0.961 . S
H875 C859 0.961 . S
H876 C860 0.931 . S
H877 C865 0.930 . S
H878 C866 0.956 . S
H879 C866 0.961 . S
H880 C866 0.961 . S
H881 C867 0.958 . S
H882 C867 0.961 . S
H883 C867 0.960 1_556 S
C884 C885 1.391 . S
C884 C886 1.394 1_554 S
C884 H900 0.931 . S
C885 C884 1.391 . S
C885 C889 1.376 1_554 S
C886 C884 1.394 1_556 S
C886 C887 1.369 . S
C886 C890 1.531 . S
C887 C886 1.369 . S
C887 C888 1.410 . S
C887 C895 1.503 . S
C888 C887 1.410 . S
C888 C889 1.392 . S
C888 C891 1.511 . S
C889 C885 1.376 1_556 S
C889 C888 1.392 . S
C889 H901 0.929 . S
C890 C886 1.531 . S
C890 H902 0.960 . S
C890 H903 0.962 . S
C890 H904 0.960 1_556 S
C891 C888 1.511 . S
C891 H905 0.961 . S
C891 H906 0.961 . S
C891 H907 0.961 . S
C892 C893 1.370 . S
C892 C894 1.363 . S
C892 H908 0.931 . S
C893 C892 1.370 . S
C893 C897 1.408 . S
C894 C892 1.363 . S
C894 C895 1.370 . S
C894 C898 1.524 . S
C895 C887 1.503 . S
C895 C894 1.370 . S
C895 C896 1.403 . S
C896 C895 1.403 . S
C896 C897 1.404 . S
C896 C899 1.539 . S
C897 C893 1.408 . S
C897 C896 1.404 . S
C897 H909 0.930 . S
C898 C894 1.524 . S
C898 H910 0.956 . S
C898 H911 0.961 . S
C898 H912 0.961 . S
C899 C896 1.539 . S
C899 H913 0.958 . S
C899 H914 0.961 . S
C899 H915 0.960 . S
H900 C884 0.931 . S
H901 C889 0.929 . S
H902 C890 0.960 . S
H903 C890 0.962 . S
H904 C890 0.960 1_554 S
H905 C891 0.961 . S
H906 C891 0.961 . S
H907 C891 0.961 . S
H908 C892 0.931 . S
H909 C897 0.930 . S
H910 C898 0.956 . S
H911 C898 0.961 . S
H912 C898 0.961 . S
H913 C899 0.958 . S
H914 C899 0.961 . S
H915 C899 0.960 . S
C916 C917 1.391 . S
C916 C918 1.394 . S
C916 H932 0.931 . S
C917 C916 1.391 . S
C917 C921 1.376 . S
C918 C916 1.394 . S
C918 C919 1.369 . S
C918 C922 1.531 . S
C919 C918 1.369 . S
C919 C920 1.410 . S
C919 C927 1.503 . S
C920 C919 1.410 . S
C920 C921 1.392 . S
C920 C923 1.511 . S
C921 C917 1.376 . S
C921 C920 1.392 . S
C921 H933 0.929 . S
C922 C918 1.531 . S
C922 H934 0.960 . S
C922 H935 0.962 . S
C922 H936 0.960 . S
C923 C920 1.511 . S
C923 H937 0.961 . S
C923 H938 0.961 . S
C923 H939 0.961 . S
C924 C925 1.370 1_556 S
C924 C926 1.363 . S
C924 H940 0.931 . S
C925 C924 1.370 1_554 S
C925 C929 1.408 . S
C926 C924 1.363 . S
C926 C927 1.370 . S
C926 C930 1.524 . S
C927 C919 1.503 . S
C927 C926 1.370 . S
C927 C928 1.389 1_556 S
C928 C927 1.389 1_554 S
C928 C929 1.412 . S
C928 C931 1.544 . S
C929 C925 1.408 . S
C929 C928 1.412 . S
C929 H941 0.930 . S
C930 C926 1.524 . S
C930 H942 0.956 . S
C930 H943 0.961 . S
C930 H944 0.961 . S
C931 C928 1.544 . S
C931 H945 0.958 . S
C931 H946 0.961 . S
C931 H947 0.960 1_554 S
H932 C916 0.931 . S
H933 C921 0.929 . S
H934 C922 0.960 . S
H935 C922 0.962 . S
H936 C922 0.960 . S
H937 C923 0.961 . S
H938 C923 0.961 . S
H939 C923 0.961 . S
H940 C924 0.931 . S
H941 C929 0.930 . S
H942 C930 0.956 . S
H943 C930 0.961 . S
H944 C930 0.961 . S
H945 C931 0.958 . S
H946 C931 0.961 . S
H947 C931 0.960 1_556 S
C948 C949 1.391 . S
C948 C950 1.394 . S
C948 H964 0.931 . S
C949 C948 1.391 . S
C949 C953 1.376 . S
C950 C948 1.394 . S
C950 C951 1.369 . S
C950 C954 1.531 . S
C951 C950 1.369 . S
C951 C952 1.410 . S
C951 C959 1.503 . S
C952 C951 1.410 . S
C952 C953 1.392 . S
C952 C955 1.511 . S
C953 C949 1.376 . S
C953 C952 1.392 . S
C953 H965 0.929 . S
C954 C950 1.531 . S
C954 H966 0.960 . S
C954 H967 0.962 . S
C954 H968 0.960 . S
C955 C952 1.511 . S
C955 H969 0.961 . S
C955 H970 0.961 . S
C955 H971 0.961 . S
C956 C957 1.370 . S
C956 C958 1.363 . S
C956 H972 0.931 . S
C957 C956 1.370 . S
C957 C961 1.408 . S
C958 C956 1.363 . S
C958 C959 1.370 . S
C958 C962 1.524 . S
C959 C951 1.503 . S
C959 C958 1.370 . S
C959 C960 1.403 . S
C960 C959 1.403 . S
C960 C961 1.404 . S
C960 C963 1.539 . S
C961 C957 1.408 . S
C961 C960 1.404 . S
C961 H973 0.930 . S
C962 C958 1.524 . S
C962 H974 0.956 . S
C962 H975 0.961 . S
C962 H976 0.961 . S
C963 C960 1.539 . S
C963 H977 0.958 . S
C963 H978 0.961 . S
C963 H979 0.960 . S
H964 C948 0.931 . S
H965 C953 0.929 . S
H966 C954 0.960 . S
H967 C954 0.962 . S
H968 C954 0.960 . S
H969 C955 0.961 . S
H970 C955 0.961 . S
H971 C955 0.961 . S
H972 C956 0.931 . S
H973 C961 0.930 . S
H974 C962 0.956 . S
H975 C962 0.961 . S
H976 C962 0.961 . S
H977 C963 0.958 . S
H978 C963 0.961 . S
H979 C963 0.960 . S
C980 C981 1.391 . S
C980 C982 1.394 . S
C980 H996 0.931 . S
C981 C980 1.391 . S
C981 C985 1.376 . S
C982 C980 1.394 . S
C982 C983 1.369 . S
C982 C986 1.531 . S
C983 C982 1.369 . S
C983 C984 1.410 . S
C983 C991 1.503 . S
C984 C983 1.410 . S
C984 C985 1.392 . S
C984 C987 1.511 . S
C985 C981 1.376 . S
C985 C984 1.392 . S
C985 H997 0.929 . S
C986 C982 1.531 . S
C986 H998 0.960 . S
C986 H999 0.962 . S
C986 H1000 0.960 . S
C987 C984 1.511 . S
C987 H1001 0.961 . S
C987 H1002 0.961 . S
C987 H1003 0.961 . S
C988 C989 1.370 . S
C988 C990 1.363 . S
C988 H1004 0.931 . S
C989 C988 1.370 . S
C989 C993 1.408 . S
C990 C988 1.363 . S
C990 C991 1.370 . S
C990 C994 1.524 . S
C991 C983 1.503 . S
C991 C990 1.370 . S
C991 C992 1.403 . S
C992 C991 1.403 . S
C992 C993 1.404 . S
C992 C995 1.539 . S
C993 C989 1.408 . S
C993 C992 1.404 . S
C993 H1005 0.930 . S
C994 C990 1.524 . S
C994 H1006 0.956 . S
C994 H1007 0.961 . S
C994 H1008 0.961 . S
C995 C992 1.539 . S
C995 H1009 0.958 . S
C995 H1010 0.961 . S
C995 H1011 0.960 . S
H996 C980 0.931 . S
H997 C985 0.929 . S
H998 C986 0.960 . S
H999 C986 0.962 . S
H1000 C986 0.960 . S
H1001 C987 0.961 . S
H1002 C987 0.961 . S
H1003 C987 0.961 . S
H1004 C988 0.931 . S
H1005 C993 0.930 . S
H1006 C994 0.956 . S
H1007 C994 0.961 . S
H1008 C994 0.961 . S
H1009 C995 0.958 . S
H1010 C995 0.961 . S
H1011 C995 0.960 . S
C1012 C1013 1.391 . S
C1012 C1014 1.394 . S
C1012 H1028 0.931 . S
C1013 C1012 1.391 . S
C1013 C1017 1.376 . S
C1014 C1012 1.394 . S
C1014 C1015 1.369 . S
C1014 C1018 1.531 . S
C1015 C1014 1.369 . S
C1015 C1016 1.410 . S
C1015 C1023 1.503 . S
C1016 C1015 1.410 . S
C1016 C1017 1.392 . S
C1016 C1019 1.511 . S
C1017 C1013 1.376 . S
C1017 C1016 1.392 . S
C1017 H1029 0.929 . S
C1018 C1014 1.531 . S
C1018 H1030 0.960 . S
C1018 H1031 0.962 . S
C1018 H1032 0.960 . S
C1019 C1016 1.511 . S
C1019 H1033 0.961 . S
C1019 H1034 0.961 . S
C1019 H1035 0.961 . S
C1020 C1021 1.370 . S
C1020 C1022 1.363 . S
C1020 H1036 0.931 . S
C1021 C1020 1.370 . S
C1021 C1025 1.408 . S
C1022 C1020 1.363 . S
C1022 C1023 1.370 . S
C1022 C1026 1.524 . S
C1023 C1015 1.503 . S
C1023 C1022 1.370 . S
C1023 C1024 1.403 . S
C1024 C1023 1.403 . S
C1024 C1025 1.404 . S
C1024 C1027 1.539 . S
C1025 C1021 1.408 . S
C1025 C1024 1.404 . S
C1025 H1037 0.930 . S
C1026 C1022 1.524 . S
C1026 H1038 0.956 . S
C1026 H1039 0.961 . S
C1026 H1040 0.961 . S
C1027 C1024 1.539 . S
C1027 H1041 0.958 . S
C1027 H1042 0.961 . S
C1027 H1043 0.960 . S
H1028 C1012 0.931 . S
H1029 C1017 0.929 . S
H1030 C1018 0.960 . S
H1031 C1018 0.962 . S
H1032 C1018 0.960 . S
H1033 C1019 0.961 . S
H1034 C1019 0.961 . S
H1035 C1019 0.961 . S
H1036 C1020 0.931 . S
H1037 C1025 0.930 . S
H1038 C1026 0.956 . S
H1039 C1026 0.961 . S
H1040 C1026 0.961 . S
H1041 C1027 0.958 . S
H1042 C1027 0.961 . S
H1043 C1027 0.960 . S
C1044 C1045 1.391 . S
C1044 C1046 1.394 . S
C1044 H1060 0.931 . S
C1045 C1044 1.391 . S
C1045 C1049 1.376 . S
C1046 C1044 1.394 . S
C1046 C1047 1.369 . S
C1046 C1050 1.531 . S
C1047 C1046 1.369 . S
C1047 C1048 1.410 . S
C1047 C1055 1.503 . S
C1048 C1047 1.410 . S
C1048 C1049 1.392 . S
C1048 C1051 1.511 . S
C1049 C1045 1.376 . S
C1049 C1048 1.392 . S
C1049 H1061 0.929 . S
C1050 C1046 1.531 . S
C1050 H1062 0.960 . S
C1050 H1063 0.962 . S
C1050 H1064 0.960 . S
C1051 C1048 1.511 . S
C1051 H1065 0.961 . S
C1051 H1066 0.961 . S
C1051 H1067 0.961 . S
C1052 C1053 1.370 . S
C1052 C1054 1.363 . S
C1052 H1068 0.931 . S
C1053 C1052 1.370 . S
C1053 C1057 1.408 . S
C1054 C1052 1.363 . S
C1054 C1055 1.370 . S
C1054 C1058 1.524 . S
C1055 C1047 1.503 . S
C1055 C1054 1.370 . S
C1055 C1056 1.403 . S
C1056 C1055 1.403 . S
C1056 C1057 1.404 . S
C1056 C1059 1.539 . S
C1057 C1053 1.408 . S
C1057 C1056 1.404 . S
C1057 H1069 0.930 . S
C1058 C1054 1.524 . S
C1058 H1070 0.956 . S
C1058 H1071 0.961 . S
C1058 H1072 0.961 . S
C1059 C1056 1.539 . S
C1059 H1073 0.958 . S
C1059 H1074 0.961 . S
C1059 H1075 0.960 . S
H1060 C1044 0.931 . S
H1061 C1049 0.929 . S
H1062 C1050 0.960 . S
H1063 C1050 0.962 . S
H1064 C1050 0.960 . S
H1065 C1051 0.961 . S
H1066 C1051 0.961 . S
H1067 C1051 0.961 . S
H1068 C1052 0.931 . S
H1069 C1057 0.930 . S
H1070 C1058 0.956 . S
H1071 C1058 0.961 . S
H1072 C1058 0.961 . S
H1073 C1059 0.958 . S
H1074 C1059 0.961 . S
H1075 C1059 0.960 . S
C1076 C1077 1.391 . S
C1076 C1078 1.394 . S
C1076 H1092 0.931 . S
C1077 C1076 1.391 . S
C1077 C1081 1.376 . S
C1078 C1076 1.394 . S
C1078 C1079 1.369 . S
C1078 C1082 1.531 . S
C1079 C1078 1.369 . S
C1079 C1080 1.410 . S
C1079 C1087 1.503 . S
C1080 C1079 1.410 . S
C1080 C1081 1.392 . S
C1080 C1083 1.511 . S
C1081 C1077 1.376 . S
C1081 C1080 1.392 . S
C1081 H1093 0.929 . S
C1082 C1078 1.531 . S
C1082 H1094 0.960 . S
C1082 H1095 0.962 . S
C1082 H1096 0.960 . S
C1083 C1080 1.511 . S
C1083 H1097 0.961 . S
C1083 H1098 0.961 . S
C1083 H1099 0.961 . S
C1084 C1085 1.370 . S
C1084 C1086 1.363 . S
C1084 H1100 0.931 . S
C1085 C1084 1.370 . S
C1085 C1089 1.408 . S
C1086 C1084 1.363 . S
C1086 C1087 1.370 . S
C1086 C1090 1.524 . S
C1087 C1079 1.503 . S
C1087 C1086 1.370 . S
C1087 C1088 1.403 . S
C1088 C1087 1.403 . S
C1088 C1089 1.404 . S
C1088 C1091 1.539 . S
C1089 C1085 1.408 . S
C1089 C1088 1.404 . S
C1089 H1101 0.930 . S
C1090 C1086 1.524 . S
C1090 H1102 0.956 . S
C1090 H1103 0.961 . S
C1090 H1104 0.961 . S
C1091 C1088 1.539 . S
C1091 H1105 0.958 . S
C1091 H1106 0.961 . S
C1091 H1107 0.960 . S
H1092 C1076 0.931 . S
H1093 C1081 0.929 . S
H1094 C1082 0.960 . S
H1095 C1082 0.962 . S
H1096 C1082 0.960 . S
H1097 C1083 0.961 . S
H1098 C1083 0.961 . S
H1099 C1083 0.961 . S
H1100 C1084 0.931 . S
H1101 C1089 0.930 . S
H1102 C1090 0.956 . S
H1103 C1090 0.961 . S
H1104 C1090 0.961 . S
H1105 C1091 0.958 . S
H1106 C1091 0.961 . S
H1107 C1091 0.960 . S
C1108 C1109 1.391 . S
C1108 C1110 1.394 . S
C1108 H1124 0.931 . S
C1109 C1108 1.391 . S
C1109 C1113 1.376 . S
C1110 C1108 1.394 . S
C1110 C1111 1.369 . S
C1110 C1114 1.531 . S
C1111 C1110 1.369 . S
C1111 C1112 1.410 . S
C1111 C1119 1.503 . S
C1112 C1111 1.410 . S
C1112 C1113 1.392 . S
C1112 C1115 1.511 . S
C1113 C1109 1.376 . S
C1113 C1112 1.392 . S
C1113 H1125 0.929 . S
C1114 C1110 1.531 . S
C1114 H1126 0.960 . S
C1114 H1127 0.962 . S
C1114 H1128 0.960 . S
C1115 C1112 1.511 . S
C1115 H1129 0.961 . S
C1115 H1130 0.961 . S
C1115 H1131 0.961 . S
C1116 C1117 1.370 . S
C1116 C1118 1.363 . S
C1116 H1132 0.931 . S
C1117 C1116 1.370 . S
C1117 C1121 1.408 . S
C1118 C1116 1.363 . S
C1118 C1119 1.370 . S
C1118 C1122 1.524 . S
C1119 C1111 1.503 . S
C1119 C1118 1.370 . S
C1119 C1120 1.403 . S
C1120 C1119 1.403 . S
C1120 C1121 1.404 . S
C1120 C1123 1.539 . S
C1121 C1117 1.408 . S
C1121 C1120 1.404 . S
C1121 H1133 0.930 . S
C1122 C1118 1.524 . S
C1122 H1134 0.956 . S
C1122 H1135 0.961 . S
C1122 H1136 0.961 . S
C1123 C1120 1.539 . S
C1123 H1137 0.958 . S
C1123 H1138 0.961 . S
C1123 H1139 0.960 . S
H1124 C1108 0.931 . S
H1125 C1113 0.929 . S
H1126 C1114 0.960 . S
H1127 C1114 0.962 . S
H1128 C1114 0.960 . S
H1129 C1115 0.961 . S
H1130 C1115 0.961 . S
H1131 C1115 0.961 . S
H1132 C1116 0.931 . S
H1133 C1121 0.930 . S
H1134 C1122 0.956 . S
H1135 C1122 0.961 . S
H1136 C1122 0.961 . S
H1137 C1123 0.958 . S
H1138 C1123 0.961 . S
H1139 C1123 0.960 . S
C1140 C1141 1.391 . S
C1140 C1142 1.394 . S
C1140 H1156 0.931 . S
C1141 C1140 1.391 . S
C1141 C1145 1.376 . S
C1142 C1140 1.394 . S
C1142 C1143 1.369 . S
C1142 C1146 1.531 . S
C1143 C1142 1.369 . S
C1143 C1144 1.410 . S
C1143 C1151 1.503 . S
C1144 C1143 1.410 . S
C1144 C1145 1.392 . S
C1144 C1147 1.511 . S
C1145 C1141 1.376 . S
C1145 C1144 1.392 . S
C1145 H1157 0.929 . S
C1146 C1142 1.531 . S
C1146 H1158 0.960 . S
C1146 H1159 0.962 . S
C1146 H1160 0.960 . S
C1147 C1144 1.511 . S
C1147 H1161 0.961 . S
C1147 H1162 0.961 . S
C1147 H1163 0.961 . S
C1148 C1149 1.370 . S
C1148 C1150 1.363 . S
C1148 H1164 0.931 . S
C1149 C1148 1.370 . S
C1149 C1153 1.408 . S
C1150 C1148 1.363 . S
C1150 C1151 1.370 . S
C1150 C1154 1.524 . S
C1151 C1143 1.503 . S
C1151 C1150 1.370 . S
C1151 C1152 1.403 . S
C1152 C1151 1.403 . S
C1152 C1153 1.404 . S
C1152 C1155 1.539 . S
C1153 C1149 1.408 . S
C1153 C1152 1.404 . S
C1153 H1165 0.930 . S
C1154 C1150 1.524 . S
C1154 H1166 0.956 . S
C1154 H1167 0.961 . S
C1154 H1168 0.961 . S
C1155 C1152 1.539 . S
C1155 H1169 0.958 . S
C1155 H1170 0.961 . S
C1155 H1171 0.960 . S
H1156 C1140 0.931 . S
H1157 C1145 0.929 . S
H1158 C1146 0.960 . S
H1159 C1146 0.962 . S
H1160 C1146 0.960 . S
H1161 C1147 0.961 . S
H1162 C1147 0.961 . S
H1163 C1147 0.961 . S
H1164 C1148 0.931 . S
H1165 C1153 0.930 . S
H1166 C1154 0.956 . S
H1167 C1154 0.961 . S
H1168 C1154 0.961 . S
H1169 C1155 0.958 . S
H1170 C1155 0.961 . S
H1171 C1155 0.960 . S
C1172 C1173 1.391 . S
C1172 C1174 1.394 . S
C1172 H1188 0.931 . S
C1173 C1172 1.391 . S
C1173 C1177 1.376 . S
C1174 C1172 1.394 . S
C1174 C1175 1.369 . S
C1174 C1178 1.531 . S
C1175 C1174 1.369 . S
C1175 C1176 1.410 . S
C1175 C1183 1.503 . S
C1176 C1175 1.410 . S
C1176 C1177 1.392 . S
C1176 C1179 1.511 . S
C1177 C1173 1.376 . S
C1177 C1176 1.392 . S
C1177 H1189 0.929 . S
C1178 C1174 1.531 . S
C1178 H1190 0.960 . S
C1178 H1191 0.962 . S
C1178 H1192 0.960 . S
C1179 C1176 1.511 . S
C1179 H1193 0.961 . S
C1179 H1194 0.961 . S
C1179 H1195 0.961 . S
C1180 C1181 1.370 . S
C1180 C1182 1.363 . S
C1180 H1196 0.931 . S
C1181 C1180 1.370 . S
C1181 C1185 1.408 . S
C1182 C1180 1.363 . S
C1182 C1183 1.370 . S
C1182 C1186 1.524 . S
C1183 C1175 1.503 . S
C1183 C1182 1.370 . S
C1183 C1184 1.403 . S
C1184 C1183 1.403 . S
C1184 C1185 1.404 . S
C1184 C1187 1.539 . S
C1185 C1181 1.408 . S
C1185 C1184 1.404 . S
C1185 H1197 0.930 . S
C1186 C1182 1.524 . S
C1186 H1198 0.956 . S
C1186 H1199 0.961 . S
C1186 H1200 0.961 . S
C1187 C1184 1.539 . S
C1187 H1201 0.958 . S
C1187 H1202 0.961 . S
C1187 H1203 0.960 . S
H1188 C1172 0.931 . S
H1189 C1177 0.929 . S
H1190 C1178 0.960 . S
H1191 C1178 0.962 . S
H1192 C1178 0.960 . S
H1193 C1179 0.961 . S
H1194 C1179 0.961 . S
H1195 C1179 0.961 . S
H1196 C1180 0.931 . S
H1197 C1185 0.930 . S
H1198 C1186 0.956 . S
H1199 C1186 0.961 . S
H1200 C1186 0.961 . S
H1201 C1187 0.958 . S
H1202 C1187 0.961 . S
H1203 C1187 0.960 . S
C1204 C1205 1.391 . S
C1204 C1206 1.394 . S
C1204 H1220 0.931 . S
C1205 C1204 1.391 . S
C1205 C1209 1.376 . S
C1206 C1204 1.394 . S
C1206 C1207 1.369 . S
C1206 C1210 1.531 . S
C1207 C1206 1.369 . S
C1207 C1208 1.410 . S
C1207 C1215 1.503 . S
C1208 C1207 1.410 . S
C1208 C1209 1.392 . S
C1208 C1211 1.511 . S
C1209 C1205 1.376 . S
C1209 C1208 1.392 . S
C1209 H1221 0.929 . S
C1210 C1206 1.531 . S
C1210 H1222 0.960 . S
C1210 H1223 0.962 . S
C1210 H1224 0.960 . S
C1211 C1208 1.511 . S
C1211 H1225 0.961 . S
C1211 H1226 0.961 . S
C1211 H1227 0.961 . S
C1212 C1213 1.370 . S
C1212 C1214 1.363 . S
C1212 H1228 0.931 . S
C1213 C1212 1.370 . S
C1213 C1217 1.408 . S
C1214 C1212 1.363 . S
C1214 C1215 1.370 . S
C1214 C1218 1.524 . S
C1215 C1207 1.503 . S
C1215 C1214 1.370 . S
C1215 C1216 1.403 . S
C1216 C1215 1.403 . S
C1216 C1217 1.404 . S
C1216 C1219 1.539 . S
C1217 C1213 1.408 . S
C1217 C1216 1.404 . S
C1217 H1229 0.930 . S
C1218 C1214 1.524 . S
C1218 H1230 0.956 . S
C1218 H1231 0.961 . S
C1218 H1232 0.961 . S
C1219 C1216 1.539 . S
C1219 H1233 0.958 . S
C1219 H1234 0.961 . S
C1219 H1235 0.960 . S
H1220 C1204 0.931 . S
H1221 C1209 0.929 . S
H1222 C1210 0.960 . S
H1223 C1210 0.962 . S
H1224 C1210 0.960 . S
H1225 C1211 0.961 . S
H1226 C1211 0.961 . S
H1227 C1211 0.961 . S
H1228 C1212 0.931 . S
H1229 C1217 0.930 . S
H1230 C1218 0.956 . S
H1231 C1218 0.961 . S
H1232 C1218 0.961 . S
H1233 C1219 0.958 . S
H1234 C1219 0.961 . S
H1235 C1219 0.960 . S
C1236 C1237 1.391 . S
C1236 C1238 1.394 . S
C1236 H1252 0.931 . S
C1237 C1236 1.391 . S
C1237 C1241 1.376 . S
C1238 C1236 1.394 . S
C1238 C1239 1.369 . S
C1238 C1242 1.531 . S
C1239 C1238 1.369 . S
C1239 C1240 1.410 . S
C1239 C1247 1.503 . S
C1240 C1239 1.410 . S
C1240 C1241 1.392 . S
C1240 C1243 1.511 . S
C1241 C1237 1.376 . S
C1241 C1240 1.392 . S
C1241 H1253 0.929 . S
C1242 C1238 1.531 . S
C1242 H1254 0.960 . S
C1242 H1255 0.962 . S
C1242 H1256 0.960 . S
C1243 C1240 1.511 . S
C1243 H1257 0.961 . S
C1243 H1258 0.961 . S
C1243 H1259 0.961 . S
C1244 C1245 1.370 . S
C1244 C1246 1.363 . S
C1244 H1260 0.931 . S
C1245 C1244 1.370 . S
C1245 C1249 1.408 . S
C1246 C1244 1.363 . S
C1246 C1247 1.370 . S
C1246 C1250 1.524 . S
C1247 C1239 1.503 . S
C1247 C1246 1.370 . S
C1247 C1248 1.403 . S
C1248 C1247 1.403 . S
C1248 C1249 1.404 . S
C1248 C1251 1.539 . S
C1249 C1245 1.408 . S
C1249 C1248 1.404 . S
C1249 H1261 0.930 . S
C1250 C1246 1.524 . S
C1250 H1262 0.956 . S
C1250 H1263 0.961 . S
C1250 H1264 0.961 . S
C1251 C1248 1.539 . S
C1251 H1265 0.958 . S
C1251 H1266 0.961 . S
C1251 H1267 0.960 . S
H1252 C1236 0.931 . S
H1253 C1241 0.929 . S
H1254 C1242 0.960 . S
H1255 C1242 0.962 . S
H1256 C1242 0.960 . S
H1257 C1243 0.961 . S
H1258 C1243 0.961 . S
H1259 C1243 0.961 . S
H1260 C1244 0.931 . S
H1261 C1249 0.930 . S
H1262 C1250 0.956 . S
H1263 C1250 0.961 . S
H1264 C1250 0.961 . S
H1265 C1251 0.958 . S
H1266 C1251 0.961 . S
H1267 C1251 0.960 . S
C1268 C1269 1.391 . S
C1268 C1270 1.394 . S
C1268 H1284 0.931 . S
C1269 C1268 1.391 . S
C1269 C1273 1.376 . S
C1270 C1268 1.394 . S
C1270 C1271 1.369 . S
C1270 C1274 1.531 . S
C1271 C1270 1.369 . S
C1271 C1272 1.410 . S
C1271 C1279 1.503 . S
C1272 C1271 1.410 . S
C1272 C1273 1.392 . S
C1272 C1275 1.511 . S
C1273 C1269 1.376 . S
C1273 C1272 1.392 . S
C1273 H1285 0.929 . S
C1274 C1270 1.531 . S
C1274 H1286 0.960 . S
C1274 H1287 0.962 . S
C1274 H1288 0.960 . S
C1275 C1272 1.511 . S
C1275 H1289 0.961 . S
C1275 H1290 0.961 . S
C1275 H1291 0.961 . S
C1276 C1277 1.370 . S
C1276 C1278 1.363 . S
C1276 H1292 0.931 . S
C1277 C1276 1.370 . S
C1277 C1281 1.408 . S
C1278 C1276 1.363 . S
C1278 C1279 1.370 . S
C1278 C1282 1.524 . S
C1279 C1271 1.503 . S
C1279 C1278 1.370 . S
C1279 C1280 1.403 . S
C1280 C1279 1.403 . S
C1280 C1281 1.404 . S
C1280 C1283 1.539 . S
C1281 C1277 1.408 . S
C1281 C1280 1.404 . S
C1281 H1293 0.930 . S
C1282 C1278 1.524 . S
C1282 H1294 0.956 . S
C1282 H1295 0.961 . S
C1282 H1296 0.961 . S
C1283 C1280 1.539 . S
C1283 H1297 0.958 . S
C1283 H1298 0.961 . S
C1283 H1299 0.960 . S
H1284 C1268 0.931 . S
H1285 C1273 0.929 . S
H1286 C1274 0.960 . S
H1287 C1274 0.962 . S
H1288 C1274 0.960 . S
H1289 C1275 0.961 . S
H1290 C1275 0.961 . S
H1291 C1275 0.961 . S
H1292 C1276 0.931 . S
H1293 C1281 0.930 . S
H1294 C1282 0.956 . S
H1295 C1282 0.961 . S
H1296 C1282 0.961 . S
H1297 C1283 0.958 . S
H1298 C1283 0.961 . S
H1299 C1283 0.960 . S
C1300 C1301 1.391 . S
C1300 C1302 1.394 . S
C1300 H1316 0.931 . S
C1301 C1300 1.391 . S
C1301 C1305 1.376 . S
C1302 C1300 1.394 . S
C1302 C1303 1.369 . S
C1302 C1306 1.531 . S
C1303 C1302 1.369 . S
C1303 C1304 1.410 . S
C1303 C1311 1.503 . S
C1304 C1303 1.410 . S
C1304 C1305 1.392 . S
C1304 C1307 1.511 . S
C1305 C1301 1.376 . S
C1305 C1304 1.392 . S
C1305 H1317 0.929 . S
C1306 C1302 1.531 . S
C1306 H1318 0.960 . S
C1306 H1319 0.962 . S
C1306 H1320 0.960 . S
C1307 C1304 1.511 . S
C1307 H1321 0.961 . S
C1307 H1322 0.961 . S
C1307 H1323 0.961 . S
C1308 C1309 1.370 . S
C1308 C1310 1.363 . S
C1308 H1324 0.931 . S
C1309 C1308 1.370 . S
C1309 C1313 1.408 . S
C1310 C1308 1.363 . S
C1310 C1311 1.370 . S
C1310 C1314 1.524 . S
C1311 C1303 1.503 . S
C1311 C1310 1.370 . S
C1311 C1312 1.403 . S
C1312 C1311 1.403 . S
C1312 C1313 1.404 . S
C1312 C1315 1.539 . S
C1313 C1309 1.408 . S
C1313 C1312 1.404 . S
C1313 H1325 0.930 . S
C1314 C1310 1.524 . S
C1314 H1326 0.956 . S
C1314 H1327 0.961 . S
C1314 H1328 0.961 . S
C1315 C1312 1.539 . S
C1315 H1329 0.958 . S
C1315 H1330 0.961 . S
C1315 H1331 0.960 . S
H1316 C1300 0.931 . S
H1317 C1305 0.929 . S
H1318 C1306 0.960 . S
H1319 C1306 0.962 . S
H1320 C1306 0.960 . S
H1321 C1307 0.961 . S
H1322 C1307 0.961 . S
H1323 C1307 0.961 . S
H1324 C1308 0.931 . S
H1325 C1313 0.930 . S
H1326 C1314 0.956 . S
H1327 C1314 0.961 . S
H1328 C1314 0.961 . S
H1329 C1315 0.958 . S
H1330 C1315 0.961 . S
H1331 C1315 0.960 . S
C1332 C1333 1.391 . S
C1332 C1334 1.394 . S
C1332 H1348 0.931 . S
C1333 C1332 1.391 . S
C1333 C1337 1.376 . S
C1334 C1332 1.394 . S
C1334 C1335 1.369 . S
C1334 C1338 1.531 . S
C1335 C1334 1.369 . S
C1335 C1336 1.410 . S
C1335 C1343 1.503 . S
C1336 C1335 1.410 . S
C1336 C1337 1.392 . S
C1336 C1339 1.511 . S
C1337 C1333 1.376 . S
C1337 C1336 1.392 . S
C1337 H1349 0.929 . S
C1338 C1334 1.531 . S
C1338 H1350 0.960 . S
C1338 H1351 0.962 . S
C1338 H1352 0.960 . S
C1339 C1336 1.511 . S
C1339 H1353 0.961 . S
C1339 H1354 0.961 . S
C1339 H1355 0.961 . S
C1340 C1341 1.370 . S
C1340 C1342 1.363 . S
C1340 H1356 0.931 . S
C1341 C1340 1.370 . S
C1341 C1345 1.408 . S
C1342 C1340 1.363 . S
C1342 C1343 1.370 . S
C1342 C1346 1.524 . S
C1343 C1335 1.503 . S
C1343 C1342 1.370 . S
C1343 C1344 1.403 . S
C1344 C1343 1.403 . S
C1344 C1345 1.404 . S
C1344 C1347 1.539 . S
C1345 C1341 1.408 . S
C1345 C1344 1.404 . S
C1345 H1357 0.930 . S
C1346 C1342 1.524 . S
C1346 H1358 0.956 . S
C1346 H1359 0.961 . S
C1346 H1360 0.961 . S
C1347 C1344 1.539 . S
C1347 H1361 0.958 . S
C1347 H1362 0.961 . S
C1347 H1363 0.960 . S
H1348 C1332 0.931 . S
H1349 C1337 0.929 . S
H1350 C1338 0.960 . S
H1351 C1338 0.962 . S
H1352 C1338 0.960 . S
H1353 C1339 0.961 . S
H1354 C1339 0.961 . S
H1355 C1339 0.961 . S
H1356 C1340 0.931 . S
H1357 C1345 0.930 . S
H1358 C1346 0.956 . S
H1359 C1346 0.961 . S
H1360 C1346 0.961 . S
H1361 C1347 0.958 . S
H1362 C1347 0.961 . S
H1363 C1347 0.960 . S
C1364 C1365 1.391 . S
C1364 C1366 1.394 . S
C1364 H1380 0.931 . S
C1365 C1364 1.391 . S
C1365 C1369 1.376 . S
C1366 C1364 1.394 . S
C1366 C1367 1.369 . S
C1366 C1370 1.531 . S
C1367 C1366 1.369 . S
C1367 C1368 1.410 . S
C1367 C1375 1.503 . S
C1368 C1367 1.410 . S
C1368 C1369 1.392 . S
C1368 C1371 1.511 . S
C1369 C1365 1.376 . S
C1369 C1368 1.392 . S
C1369 H1381 0.929 . S
C1370 C1366 1.531 . S
C1370 H1382 0.960 . S
C1370 H1383 0.962 . S
C1370 H1384 0.960 . S
C1371 C1368 1.511 . S
C1371 H1385 0.961 . S
C1371 H1386 0.961 . S
C1371 H1387 0.961 . S
C1372 C1373 1.370 . S
C1372 C1374 1.363 . S
C1372 H1388 0.931 . S
C1373 C1372 1.370 . S
C1373 C1377 1.408 . S
C1374 C1372 1.363 . S
C1374 C1375 1.370 . S
C1374 C1378 1.524 . S
C1375 C1367 1.503 . S
C1375 C1374 1.370 . S
C1375 C1376 1.403 . S
C1376 C1375 1.403 . S
C1376 C1377 1.404 . S
C1376 C1379 1.539 . S
C1377 C1373 1.408 . S
C1377 C1376 1.404 . S
C1377 H1389 0.930 . S
C1378 C1374 1.524 . S
C1378 H1390 0.956 . S
C1378 H1391 0.961 . S
C1378 H1392 0.961 . S
C1379 C1376 1.539 . S
C1379 H1393 0.958 . S
C1379 H1394 0.961 . S
C1379 H1395 0.960 . S
H1380 C1364 0.931 . S
H1381 C1369 0.929 . S
H1382 C1370 0.960 . S
H1383 C1370 0.962 . S
H1384 C1370 0.960 . S
H1385 C1371 0.961 . S
H1386 C1371 0.961 . S
H1387 C1371 0.961 . S
H1388 C1372 0.931 . S
H1389 C1377 0.930 . S
H1390 C1378 0.956 . S
H1391 C1378 0.961 . S
H1392 C1378 0.961 . S
H1393 C1379 0.958 . S
H1394 C1379 0.961 . S
H1395 C1379 0.960 . S
C1396 C1397 1.391 . S
C1396 C1398 1.394 . S
C1396 H1412 0.931 . S
C1397 C1396 1.391 . S
C1397 C1401 1.376 . S
C1398 C1396 1.394 . S
C1398 C1399 1.369 . S
C1398 C1402 1.531 . S
C1399 C1398 1.369 . S
C1399 C1400 1.410 . S
C1399 C1407 1.503 . S
C1400 C1399 1.410 . S
C1400 C1401 1.392 . S
C1400 C1403 1.511 . S
C1401 C1397 1.376 . S
C1401 C1400 1.392 . S
C1401 H1413 0.929 . S
C1402 C1398 1.531 . S
C1402 H1414 0.960 . S
C1402 H1415 0.962 . S
C1402 H1416 0.960 . S
C1403 C1400 1.511 . S
C1403 H1417 0.961 . S
C1403 H1418 0.961 . S
C1403 H1419 0.961 . S
C1404 C1405 1.370 . S
C1404 C1406 1.363 . S
C1404 H1420 0.931 . S
C1405 C1404 1.370 . S
C1405 C1409 1.408 . S
C1406 C1404 1.363 . S
C1406 C1407 1.370 . S
C1406 C1410 1.524 . S
C1407 C1399 1.503 . S
C1407 C1406 1.370 . S
C1407 C1408 1.403 . S
C1408 C1407 1.403 . S
C1408 C1409 1.404 . S
C1408 C1411 1.539 . S
C1409 C1405 1.408 . S
C1409 C1408 1.404 . S
C1409 H1421 0.930 . S
C1410 C1406 1.524 . S
C1410 H1422 0.956 . S
C1410 H1423 0.961 . S
C1410 H1424 0.961 . S
C1411 C1408 1.539 . S
C1411 H1425 0.958 . S
C1411 H1426 0.961 . S
C1411 H1427 0.960 . S
H1412 C1396 0.931 . S
H1413 C1401 0.929 . S
H1414 C1402 0.960 . S
H1415 C1402 0.962 . S
H1416 C1402 0.960 . S
H1417 C1403 0.961 . S
H1418 C1403 0.961 . S
H1419 C1403 0.961 . S
H1420 C1404 0.931 . S
H1421 C1409 0.930 . S
H1422 C1410 0.956 . S
H1423 C1410 0.961 . S
H1424 C1410 0.961 . S
H1425 C1411 0.958 . S
H1426 C1411 0.961 . S
H1427 C1411 0.960 . S
C1428 C1429 1.391 . S
C1428 C1430 1.394 . S
C1428 H1444 0.931 . S
C1429 C1428 1.391 . S
C1429 C1433 1.376 . S
C1430 C1428 1.394 . S
C1430 C1431 1.369 . S
C1430 C1434 1.531 . S
C1431 C1430 1.369 . S
C1431 C1432 1.410 . S
C1431 C1439 1.503 . S
C1432 C1431 1.410 . S
C1432 C1433 1.392 . S
C1432 C1435 1.511 . S
C1433 C1429 1.376 . S
C1433 C1432 1.392 . S
C1433 H1445 0.929 . S
C1434 C1430 1.531 . S
C1434 H1446 0.960 . S
C1434 H1447 0.962 . S
C1434 H1448 0.960 . S
C1435 C1432 1.511 . S
C1435 H1449 0.961 . S
C1435 H1450 0.961 . S
C1435 H1451 0.961 . S
C1436 C1437 1.370 . S
C1436 C1438 1.363 . S
C1436 H1452 0.931 . S
C1437 C1436 1.370 . S
C1437 C1441 1.408 . S
C1438 C1436 1.363 . S
C1438 C1439 1.370 . S
C1438 C1442 1.524 . S
C1439 C1431 1.503 . S
C1439 C1438 1.370 . S
C1439 C1440 1.403 . S
C1440 C1439 1.403 . S
C1440 C1441 1.404 . S
C1440 C1443 1.539 . S
C1441 C1437 1.408 . S
C1441 C1440 1.404 . S
C1441 H1453 0.930 . S
C1442 C1438 1.524 . S
C1442 H1454 0.956 . S
C1442 H1455 0.961 . S
C1442 H1456 0.961 . S
C1443 C1440 1.539 . S
C1443 H1457 0.958 . S
C1443 H1458 0.961 . S
C1443 H1459 0.960 . S
H1444 C1428 0.931 . S
H1445 C1433 0.929 . S
H1446 C1434 0.960 . S
H1447 C1434 0.962 . S
H1448 C1434 0.960 . S
H1449 C1435 0.961 . S
H1450 C1435 0.961 . S
H1451 C1435 0.961 . S
H1452 C1436 0.931 . S
H1453 C1441 0.930 . S
H1454 C1442 0.956 . S
H1455 C1442 0.961 . S
H1456 C1442 0.961 . S
H1457 C1443 0.958 . S
H1458 C1443 0.961 . S
H1459 C1443 0.960 . S
C1460 C1461 1.391 . S
C1460 C1462 1.394 . S
C1460 H1476 0.931 . S
C1461 C1460 1.391 . S
C1461 C1465 1.376 . S
C1462 C1460 1.394 . S
C1462 C1463 1.369 . S
C1462 C1466 1.531 . S
C1463 C1462 1.369 . S
C1463 C1464 1.410 . S
C1463 C1471 1.503 . S
C1464 C1463 1.410 . S
C1464 C1465 1.392 . S
C1464 C1467 1.511 . S
C1465 C1461 1.376 . S
C1465 C1464 1.392 . S
C1465 H1477 0.929 . S
C1466 C1462 1.531 . S
C1466 H1478 0.960 . S
C1466 H1479 0.962 . S
C1466 H1480 0.960 . S
C1467 C1464 1.511 . S
C1467 H1481 0.961 . S
C1467 H1482 0.961 . S
C1467 H1483 0.961 . S
C1468 C1469 1.370 . S
C1468 C1470 1.363 . S
C1468 H1484 0.931 . S
C1469 C1468 1.370 . S
C1469 C1473 1.408 . S
C1470 C1468 1.363 . S
C1470 C1471 1.370 . S
C1470 C1474 1.524 . S
C1471 C1463 1.503 . S
C1471 C1470 1.370 . S
C1471 C1472 1.403 . S
C1472 C1471 1.403 . S
C1472 C1473 1.404 . S
C1472 C1475 1.539 . S
C1473 C1469 1.408 . S
C1473 C1472 1.404 . S
C1473 H1485 0.930 . S
C1474 C1470 1.524 . S
C1474 H1486 0.956 . S
C1474 H1487 0.961 . S
C1474 H1488 0.961 . S
C1475 C1472 1.539 . S
C1475 H1489 0.958 . S
C1475 H1490 0.961 . S
C1475 H1491 0.960 . S
H1476 C1460 0.931 . S
H1477 C1465 0.929 . S
H1478 C1466 0.960 . S
H1479 C1466 0.962 . S
H1480 C1466 0.960 . S
H1481 C1467 0.961 . S
H1482 C1467 0.961 . S
H1483 C1467 0.961 . S
H1484 C1468 0.931 . S
H1485 C1473 0.930 . S
H1486 C1474 0.956 . S
H1487 C1474 0.961 . S
H1488 C1474 0.961 . S
H1489 C1475 0.958 . S
H1490 C1475 0.961 . S
H1491 C1475 0.960 . S
C1492 C1493 1.391 . S
C1492 C1494 1.394 . S
C1492 H1508 0.931 . S
C1493 C1492 1.391 . S
C1493 C1497 1.376 . S
C1494 C1492 1.394 . S
C1494 C1495 1.369 . S
C1494 C1498 1.531 . S
C1495 C1494 1.369 . S
C1495 C1496 1.410 . S
C1495 C1503 1.503 . S
C1496 C1495 1.410 . S
C1496 C1497 1.392 . S
C1496 C1499 1.511 . S
C1497 C1493 1.376 . S
C1497 C1496 1.392 . S
C1497 H1509 0.929 . S
C1498 C1494 1.531 . S
C1498 H1510 0.960 . S
C1498 H1511 0.962 . S
C1498 H1512 0.960 . S
C1499 C1496 1.511 . S
C1499 H1513 0.961 . S
C1499 H1514 0.961 . S
C1499 H1515 0.961 . S
C1500 C1501 1.370 . S
C1500 C1502 1.363 . S
C1500 H1516 0.931 . S
C1501 C1500 1.370 . S
C1501 C1505 1.408 . S
C1502 C1500 1.363 . S
C1502 C1503 1.370 . S
C1502 C1506 1.524 . S
C1503 C1495 1.503 . S
C1503 C1502 1.370 . S
C1503 C1504 1.403 . S
C1504 C1503 1.403 . S
C1504 C1505 1.404 . S
C1504 C1507 1.539 . S
C1505 C1501 1.408 . S
C1505 C1504 1.404 . S
C1505 H1517 0.930 . S
C1506 C1502 1.524 . S
C1506 H1518 0.956 . S
C1506 H1519 0.961 . S
C1506 H1520 0.961 . S
C1507 C1504 1.539 . S
C1507 H1521 0.958 . S
C1507 H1522 0.961 . S
C1507 H1523 0.960 . S
H1508 C1492 0.931 . S
H1509 C1497 0.929 . S
H1510 C1498 0.960 . S
H1511 C1498 0.962 . S
H1512 C1498 0.960 . S
H1513 C1499 0.961 . S
H1514 C1499 0.961 . S
H1515 C1499 0.961 . S
H1516 C1500 0.931 . S
H1517 C1505 0.930 . S
H1518 C1506 0.956 . S
H1519 C1506 0.961 . S
H1520 C1506 0.961 . S
H1521 C1507 0.958 . S
H1522 C1507 0.961 . S
H1523 C1507 0.960 . S
C1524 C1525 1.391 . S
C1524 C1526 1.394 . S
C1524 H1540 0.931 . S
C1525 C1524 1.391 . S
C1525 C1529 1.376 . S
C1526 C1524 1.394 . S
C1526 C1527 1.369 . S
C1526 C1530 1.531 . S
C1527 C1526 1.369 . S
C1527 C1528 1.410 . S
C1527 C1535 1.503 1_556 S
C1528 C1527 1.410 . S
C1528 C1529 1.392 . S
C1528 C1531 1.511 1_556 S
C1529 C1525 1.376 . S
C1529 C1528 1.392 . S
C1529 H1541 0.929 . S
C1530 C1526 1.531 . S
C1530 H1542 0.960 . S
C1530 H1543 0.962 . S
C1530 H1544 0.960 . S
C1531 C1528 1.511 1_554 S
C1531 H1545 0.961 . S
C1531 H1546 0.961 . S
C1531 H1547 0.961 . S
C1532 C1533 1.370 . S
C1532 C1534 1.363 . S
C1532 H1548 0.931 . S
C1533 C1532 1.370 . S
C1533 C1537 1.408 . S
C1534 C1532 1.363 . S
C1534 C1535 1.370 . S
C1534 C1538 1.524 . S
C1535 C1527 1.503 1_554 S
C1535 C1534 1.370 . S
C1535 C1536 1.403 . S
C1536 C1535 1.403 . S
C1536 C1537 1.404 . S
C1536 C1539 1.539 . S
C1537 C1533 1.408 . S
C1537 C1536 1.404 . S
C1537 H1549 0.930 . S
C1538 C1534 1.524 . S
C1538 H1550 0.956 1_554 S
C1538 H1551 0.961 . S
C1538 H1552 0.961 . S
C1539 C1536 1.539 . S
C1539 H1553 0.958 . S
C1539 H1554 0.961 . S
C1539 H1555 0.960 . S
H1540 C1524 0.931 . S
H1541 C1529 0.929 . S
H1542 C1530 0.960 . S
H1543 C1530 0.962 . S
H1544 C1530 0.960 . S
H1545 C1531 0.961 . S
H1546 C1531 0.961 . S
H1547 C1531 0.961 . S
H1548 C1532 0.931 . S
H1549 C1537 0.930 . S
H1550 C1538 0.956 1_556 S
H1551 C1538 0.961 . S
H1552 C1538 0.961 . S
H1553 C1539 0.958 . S
H1554 C1539 0.961 . S
H1555 C1539 0.960 . S
C1556 C1557 1.391 . S
C1556 C1558 1.394 . S
C1556 H1572 0.931 . S
C1557 C1556 1.391 . S
C1557 C1561 1.376 . S
C1558 C1556 1.394 . S
C1558 C1559 1.369 . S
C1558 C1562 1.531 . S
C1559 C1558 1.369 . S
C1559 C1560 1.410 . S
C1559 C1567 1.503 1_556 S
C1560 C1559 1.410 . S
C1560 C1561 1.392 . S
C1560 C1563 1.511 1_556 S
C1561 C1557 1.376 . S
C1561 C1560 1.392 . S
C1561 H1573 0.929 . S
C1562 C1558 1.531 . S
C1562 H1574 0.960 . S
C1562 H1575 0.962 . S
C1562 H1576 0.960 . S
C1563 C1560 1.511 1_554 S
C1563 H1577 0.961 . S
C1563 H1578 0.961 . S
C1563 H1579 0.961 . S
C1564 C1565 1.370 . S
C1564 C1566 1.363 . S
C1564 H1580 0.931 . S
C1565 C1564 1.370 . S
C1565 C1569 1.408 . S
C1566 C1564 1.363 . S
C1566 C1567 1.370 . S
C1566 C1570 1.524 1_554 S
C1567 C1559 1.503 1_554 S
C1567 C1566 1.370 . S
C1567 C1568 1.403 . S
C1568 C1567 1.403 . S
C1568 C1569 1.404 . S
C1568 C1571 1.539 . S
C1569 C1565 1.408 . S
C1569 C1568 1.404 . S
C1569 H1581 0.930 . S
C1570 C1566 1.524 1_556 S
C1570 H1582 0.956 . S
C1570 H1583 0.961 . S
C1570 H1584 0.961 1_556 S
C1571 C1568 1.539 . S
C1571 H1585 0.958 . S
C1571 H1586 0.961 . S
C1571 H1587 0.960 . S
H1572 C1556 0.931 . S
H1573 C1561 0.929 . S
H1574 C1562 0.960 . S
H1575 C1562 0.962 . S
H1576 C1562 0.960 . S
H1577 C1563 0.961 . S
H1578 C1563 0.961 . S
H1579 C1563 0.961 . S
H1580 C1564 0.931 . S
H1581 C1569 0.930 . S
H1582 C1570 0.956 . S
H1583 C1570 0.961 . S
H1584 C1570 0.961 1_554 S
H1585 C1571 0.958 . S
H1586 C1571 0.961 . S
H1587 C1571 0.960 . S
C1588 C1589 1.391 . S
C1588 C1590 1.394 . S
C1588 H1604 0.931 . S
C1589 C1588 1.391 . S
C1589 C1593 1.376 . S
C1590 C1588 1.394 . S
C1590 C1591 1.369 . S
C1590 C1594 1.531 . S
C1591 C1590 1.369 . S
C1591 C1592 1.410 . S
C1591 C1599 1.503 1_556 S
C1592 C1591 1.410 . S
C1592 C1593 1.392 . S
C1592 C1595 1.511 1_556 S
C1593 C1589 1.376 . S
C1593 C1592 1.392 . S
C1593 H1605 0.929 . S
C1594 C1590 1.531 . S
C1594 H1606 0.960 . S
C1594 H1607 0.962 . S
C1594 H1608 0.960 . S
C1595 C1592 1.511 1_554 S
C1595 H1609 0.961 . S
C1595 H1610 0.961 . S
C1595 H1611 0.961 . S
C1596 C1597 1.370 . S
C1596 C1598 1.363 . S
C1596 H1612 0.931 . S
C1597 C1596 1.370 . S
C1597 C1601 1.408 . S
C1598 C1596 1.363 . S
C1598 C1599 1.370 . S
C1598 C1602 1.524 . S
C1599 C1591 1.503 1_554 S
C1599 C1598 1.370 . S
C1599 C1600 1.403 . S
C1600 C1599 1.403 . S
C1600 C1601 1.404 . S
C1600 C1603 1.539 . S
C1601 C1597 1.408 . S
C1601 C1600 1.404 . S
C1601 H1613 0.930 . S
C1602 C1598 1.524 . S
C1602 H1614 0.956 1_554 S
C1602 H1615 0.961 . S
C1602 H1616 0.961 . S
C1603 C1600 1.539 . S
C1603 H1617 0.958 . S
C1603 H1618 0.961 . S
C1603 H1619 0.960 . S
H1604 C1588 0.931 . S
H1605 C1593 0.929 . S
H1606 C1594 0.960 . S
H1607 C1594 0.962 . S
H1608 C1594 0.960 . S
H1609 C1595 0.961 . S
H1610 C1595 0.961 . S
H1611 C1595 0.961 . S
H1612 C1596 0.931 . S
H1613 C1601 0.930 . S
H1614 C1602 0.956 1_556 S
H1615 C1602 0.961 . S
H1616 C1602 0.961 . S
H1617 C1603 0.958 . S
H1618 C1603 0.961 . S
H1619 C1603 0.960 . S
C1620 C1621 1.391 . S
C1620 C1622 1.394 . S
C1620 H1636 0.931 . S
C1621 C1620 1.391 . S
C1621 C1625 1.376 . S
C1622 C1620 1.394 . S
C1622 C1623 1.369 . S
C1622 C1626 1.531 . S
C1623 C1622 1.369 . S
C1623 C1624 1.410 . S
C1623 C1631 1.503 . S
C1624 C1623 1.410 . S
C1624 C1625 1.392 . S
C1624 C1627 1.511 . S
C1625 C1621 1.376 . S
C1625 C1624 1.392 . S
C1625 H1637 0.929 . S
C1626 C1622 1.531 . S
C1626 H1638 0.960 . S
C1626 H1639 0.962 . S
C1626 H1640 0.960 . S
C1627 C1624 1.511 . S
C1627 H1641 0.961 . S
C1627 H1642 0.961 . S
C1627 H1643 0.961 . S
C1628 C1629 1.370 . S
C1628 C1630 1.363 . S
C1628 H1644 0.931 . S
C1629 C1628 1.370 . S
C1629 C1633 1.408 . S
C1630 C1628 1.363 . S
C1630 C1631 1.370 . S
C1630 C1634 1.524 . S
C1631 C1623 1.503 . S
C1631 C1630 1.370 . S
C1631 C1632 1.403 . S
C1632 C1631 1.403 . S
C1632 C1633 1.404 . S
C1632 C1635 1.539 . S
C1633 C1629 1.408 . S
C1633 C1632 1.404 . S
C1633 H1645 0.930 . S
C1634 C1630 1.524 . S
C1634 H1646 0.956 . S
C1634 H1647 0.961 . S
C1634 H1648 0.961 . S
C1635 C1632 1.539 . S
C1635 H1649 0.958 . S
C1635 H1650 0.961 . S
C1635 H1651 0.960 . S
H1636 C1620 0.931 . S
H1637 C1625 0.929 . S
H1638 C1626 0.960 . S
H1639 C1626 0.962 . S
H1640 C1626 0.960 . S
H1641 C1627 0.961 . S
H1642 C1627 0.961 . S
H1643 C1627 0.961 . S
H1644 C1628 0.931 . S
H1645 C1633 0.930 . S
H1646 C1634 0.956 . S
H1647 C1634 0.961 . S
H1648 C1634 0.961 . S
H1649 C1635 0.958 . S
H1650 C1635 0.961 . S
H1651 C1635 0.960 . S
C1652 C1653 1.391 . S
C1652 C1654 1.394 . S
C1652 H1668 0.931 . S
C1653 C1652 1.391 . S
C1653 C1657 1.376 . S
C1654 C1652 1.394 . S
C1654 C1655 1.369 . S
C1654 C1658 1.531 . S
C1655 C1654 1.369 . S
C1655 C1656 1.410 . S
C1655 C1663 1.503 . S
C1656 C1655 1.410 . S
C1656 C1657 1.392 . S
C1656 C1659 1.511 . S
C1657 C1653 1.376 . S
C1657 C1656 1.392 . S
C1657 H1669 0.929 . S
C1658 C1654 1.531 . S
C1658 H1670 0.960 . S
C1658 H1671 0.962 . S
C1658 H1672 0.960 . S
C1659 C1656 1.511 . S
C1659 H1673 0.961 . S
C1659 H1674 0.961 . S
C1659 H1675 0.961 . S
C1660 C1661 1.370 . S
C1660 C1662 1.363 . S
C1660 H1676 0.931 . S
C1661 C1660 1.370 . S
C1661 C1665 1.408 . S
C1662 C1660 1.363 . S
C1662 C1663 1.370 . S
C1662 C1666 1.524 . S
C1663 C1655 1.503 . S
C1663 C1662 1.370 . S
C1663 C1664 1.403 . S
C1664 C1663 1.403 . S
C1664 C1665 1.404 . S
C1664 C1667 1.539 . S
C1665 C1661 1.408 . S
C1665 C1664 1.404 . S
C1665 H1677 0.930 . S
C1666 C1662 1.524 . S
C1666 H1678 0.956 . S
C1666 H1679 0.961 . S
C1666 H1680 0.961 . S
C1667 C1664 1.539 . S
C1667 H1681 0.958 . S
C1667 H1682 0.961 . S
C1667 H1683 0.960 . S
H1668 C1652 0.931 . S
H1669 C1657 0.929 . S
H1670 C1658 0.960 . S
H1671 C1658 0.962 . S
H1672 C1658 0.960 . S
H1673 C1659 0.961 . S
H1674 C1659 0.961 . S
H1675 C1659 0.961 . S
H1676 C1660 0.931 . S
H1677 C1665 0.930 . S
H1678 C1666 0.956 . S
H1679 C1666 0.961 . S
H1680 C1666 0.961 . S
H1681 C1667 0.958 . S
H1682 C1667 0.961 . S
H1683 C1667 0.960 . S
C1684 C1685 1.391 . S
C1684 C1686 1.394 . S
C1684 H1700 0.931 . S
C1685 C1684 1.391 . S
C1685 C1689 1.376 . S
C1686 C1684 1.394 . S
C1686 C1687 1.369 . S
C1686 C1690 1.531 . S
C1687 C1686 1.369 . S
C1687 C1688 1.410 . S
C1687 C1695 1.503 . S
C1688 C1687 1.410 . S
C1688 C1689 1.392 . S
C1688 C1691 1.511 . S
C1689 C1685 1.376 . S
C1689 C1688 1.392 . S
C1689 H1701 0.929 . S
C1690 C1686 1.531 . S
C1690 H1702 0.960 . S
C1690 H1703 0.962 . S
C1690 H1704 0.960 . S
C1691 C1688 1.511 . S
C1691 H1705 0.961 . S
C1691 H1706 0.961 . S
C1691 H1707 0.961 . S
C1692 C1693 1.370 . S
C1692 C1694 1.363 . S
C1692 H1708 0.931 . S
C1693 C1692 1.370 . S
C1693 C1697 1.408 . S
C1694 C1692 1.363 . S
C1694 C1695 1.370 . S
C1694 C1698 1.524 . S
C1695 C1687 1.503 . S
C1695 C1694 1.370 . S
C1695 C1696 1.403 . S
C1696 C1695 1.403 . S
C1696 C1697 1.404 . S
C1696 C1699 1.539 . S
C1697 C1693 1.408 . S
C1697 C1696 1.404 . S
C1697 H1709 0.930 . S
C1698 C1694 1.524 . S
C1698 H1710 0.956 . S
C1698 H1711 0.961 . S
C1698 H1712 0.961 . S
C1699 C1696 1.539 . S
C1699 H1713 0.958 . S
C1699 H1714 0.961 . S
C1699 H1715 0.960 . S
H1700 C1684 0.931 . S
H1701 C1689 0.929 . S
H1702 C1690 0.960 . S
H1703 C1690 0.962 . S
H1704 C1690 0.960 . S
H1705 C1691 0.961 . S
H1706 C1691 0.961 . S
H1707 C1691 0.961 . S
H1708 C1692 0.931 . S
H1709 C1697 0.930 . S
H1710 C1698 0.956 . S
H1711 C1698 0.961 . S
H1712 C1698 0.961 . S
H1713 C1699 0.958 . S
H1714 C1699 0.961 . S
H1715 C1699 0.960 . S
C1716 C1717 1.391 . S
C1716 C1718 1.394 . S
C1716 H1732 0.931 . S
C1717 C1716 1.391 . S
C1717 C1721 1.376 . S
C1718 C1716 1.394 . S
C1718 C1719 1.369 . S
C1718 C1722 1.531 . S
C1719 C1718 1.369 . S
C1719 C1720 1.410 . S
C1719 C1727 1.503 . S
C1720 C1719 1.410 . S
C1720 C1721 1.392 . S
C1720 C1723 1.511 . S
C1721 C1717 1.376 . S
C1721 C1720 1.392 . S
C1721 H1733 0.929 . S
C1722 C1718 1.531 . S
C1722 H1734 0.960 . S
C1722 H1735 0.962 . S
C1722 H1736 0.960 . S
C1723 C1720 1.511 . S
C1723 H1737 0.961 . S
C1723 H1738 0.961 . S
C1723 H1739 0.961 . S
C1724 C1725 1.370 . S
C1724 C1726 1.363 . S
C1724 H1740 0.931 . S
C1725 C1724 1.370 . S
C1725 C1729 1.408 . S
C1726 C1724 1.363 . S
C1726 C1727 1.370 . S
C1726 C1730 1.524 . S
C1727 C1719 1.503 . S
C1727 C1726 1.370 . S
C1727 C1728 1.403 . S
C1728 C1727 1.403 . S
C1728 C1729 1.404 . S
C1728 C1731 1.539 . S
C1729 C1725 1.408 . S
C1729 C1728 1.404 . S
C1729 H1741 0.930 . S
C1730 C1726 1.524 . S
C1730 H1742 0.956 . S
C1730 H1743 0.961 . S
C1730 H1744 0.961 . S
C1731 C1728 1.539 . S
C1731 H1745 0.958 . S
C1731 H1746 0.961 . S
C1731 H1747 0.960 . S
H1732 C1716 0.931 . S
H1733 C1721 0.929 . S
H1734 C1722 0.960 . S
H1735 C1722 0.962 . S
H1736 C1722 0.960 . S
H1737 C1723 0.961 . S
H1738 C1723 0.961 . S
H1739 C1723 0.961 . S
H1740 C1724 0.931 . S
H1741 C1729 0.930 . S
H1742 C1730 0.956 . S
H1743 C1730 0.961 . S
H1744 C1730 0.961 . S
H1745 C1731 0.958 . S
H1746 C1731 0.961 . S
H1747 C1731 0.960 . S
C1748 C1749 1.391 . S
C1748 C1750 1.394 . S
C1748 H1764 0.931 . S
C1749 C1748 1.391 . S
C1749 C1753 1.376 . S
C1750 C1748 1.394 . S
C1750 C1751 1.369 . S
C1750 C1754 1.531 . S
C1751 C1750 1.369 . S
C1751 C1752 1.410 . S
C1751 C1759 1.503 . S
C1752 C1751 1.410 . S
C1752 C1753 1.392 . S
C1752 C1755 1.511 . S
C1753 C1749 1.376 . S
C1753 C1752 1.392 . S
C1753 H1765 0.929 . S
C1754 C1750 1.531 . S
C1754 H1766 0.960 . S
C1754 H1767 0.962 . S
C1754 H1768 0.960 . S
C1755 C1752 1.511 . S
C1755 H1769 0.961 . S
C1755 H1770 0.961 . S
C1755 H1771 0.961 . S
C1756 C1757 1.370 . S
C1756 C1758 1.363 . S
C1756 H1772 0.931 . S
C1757 C1756 1.370 . S
C1757 C1761 1.408 . S
C1758 C1756 1.363 . S
C1758 C1759 1.370 . S
C1758 C1762 1.524 . S
C1759 C1751 1.503 . S
C1759 C1758 1.370 . S
C1759 C1760 1.403 . S
C1760 C1759 1.403 . S
C1760 C1761 1.404 . S
C1760 C1763 1.539 . S
C1761 C1757 1.408 . S
C1761 C1760 1.404 . S
C1761 H1773 0.930 . S
C1762 C1758 1.524 . S
C1762 H1774 0.956 . S
C1762 H1775 0.961 . S
C1762 H1776 0.961 . S
C1763 C1760 1.539 . S
C1763 H1777 0.958 . S
C1763 H1778 0.961 . S
C1763 H1779 0.960 . S
H1764 C1748 0.931 . S
H1765 C1753 0.929 . S
H1766 C1754 0.960 . S
H1767 C1754 0.962 . S
H1768 C1754 0.960 . S
H1769 C1755 0.961 . S
H1770 C1755 0.961 . S
H1771 C1755 0.961 . S
H1772 C1756 0.931 . S
H1773 C1761 0.930 . S
H1774 C1762 0.956 . S
H1775 C1762 0.961 . S
H1776 C1762 0.961 . S
H1777 C1763 0.958 . S
H1778 C1763 0.961 . S
H1779 C1763 0.960 . S
C1780 C1781 1.391 . S
C1780 C1782 1.394 . S
C1780 H1796 0.931 . S
C1781 C1780 1.391 . S
C1781 C1785 1.376 . S
C1782 C1780 1.394 . S
C1782 C1783 1.369 . S
C1782 C1786 1.531 . S
C1783 C1782 1.369 . S
C1783 C1784 1.410 . S
C1783 C1791 1.503 . S
C1784 C1783 1.410 . S
C1784 C1785 1.392 . S
C1784 C1787 1.511 . S
C1785 C1781 1.376 . S
C1785 C1784 1.392 . S
C1785 H1797 0.929 . S
C1786 C1782 1.531 . S
C1786 H1798 0.960 . S
C1786 H1799 0.962 . S
C1786 H1800 0.960 . S
C1787 C1784 1.511 . S
C1787 H1801 0.961 . S
C1787 H1802 0.961 . S
C1787 H1803 0.961 . S
C1788 C1789 1.370 . S
C1788 C1790 1.363 . S
C1788 H1804 0.931 . S
C1789 C1788 1.370 . S
C1789 C1793 1.408 . S
C1790 C1788 1.363 . S
C1790 C1791 1.370 . S
C1790 C1794 1.524 . S
C1791 C1783 1.503 . S
C1791 C1790 1.370 . S
C1791 C1792 1.403 . S
C1792 C1791 1.403 . S
C1792 C1793 1.404 . S
C1792 C1795 1.539 . S
C1793 C1789 1.408 . S
C1793 C1792 1.404 . S
C1793 H1805 0.930 . S
C1794 C1790 1.524 . S
C1794 H1806 0.956 . S
C1794 H1807 0.961 . S
C1794 H1808 0.961 . S
C1795 C1792 1.539 . S
C1795 H1809 0.958 . S
C1795 H1810 0.961 . S
C1795 H1811 0.960 . S
H1796 C1780 0.931 . S
H1797 C1785 0.929 . S
H1798 C1786 0.960 . S
H1799 C1786 0.962 . S
H1800 C1786 0.960 . S
H1801 C1787 0.961 . S
H1802 C1787 0.961 . S
H1803 C1787 0.961 . S
H1804 C1788 0.931 . S
H1805 C1793 0.930 . S
H1806 C1794 0.956 . S
H1807 C1794 0.961 . S
H1808 C1794 0.961 . S
H1809 C1795 0.958 . S
H1810 C1795 0.961 . S
H1811 C1795 0.960 . S
C1812 C1813 1.391 . S
C1812 C1814 1.394 . S
C1812 H1828 0.931 . S
C1813 C1812 1.391 . S
C1813 C1817 1.376 . S
C1814 C1812 1.394 . S
C1814 C1815 1.369 . S
C1814 C1818 1.531 . S
C1815 C1814 1.369 . S
C1815 C1816 1.410 . S
C1815 C1823 1.503 . S
C1816 C1815 1.410 . S
C1816 C1817 1.392 . S
C1816 C1819 1.511 . S
C1817 C1813 1.376 . S
C1817 C1816 1.392 . S
C1817 H1829 0.929 . S
C1818 C1814 1.531 . S
C1818 H1830 0.960 . S
C1818 H1831 0.962 . S
C1818 H1832 0.960 . S
C1819 C1816 1.511 . S
C1819 H1833 0.961 . S
C1819 H1834 0.961 . S
C1819 H1835 0.961 . S
C1820 C1821 1.370 . S
C1820 C1822 1.363 . S
C1820 H1836 0.931 . S
C1821 C1820 1.370 . S
C1821 C1825 1.408 . S
C1822 C1820 1.363 . S
C1822 C1823 1.370 . S
C1822 C1826 1.524 . S
C1823 C1815 1.503 . S
C1823 C1822 1.370 . S
C1823 C1824 1.403 . S
C1824 C1823 1.403 . S
C1824 C1825 1.404 . S
C1824 C1827 1.539 . S
C1825 C1821 1.408 . S
C1825 C1824 1.404 . S
C1825 H1837 0.930 . S
C1826 C1822 1.524 . S
C1826 H1838 0.956 . S
C1826 H1839 0.961 . S
C1826 H1840 0.961 . S
C1827 C1824 1.539 . S
C1827 H1841 0.958 . S
C1827 H1842 0.961 . S
C1827 H1843 0.960 . S
H1828 C1812 0.931 . S
H1829 C1817 0.929 . S
H1830 C1818 0.960 . S
H1831 C1818 0.962 . S
H1832 C1818 0.960 . S
H1833 C1819 0.961 . S
H1834 C1819 0.961 . S
H1835 C1819 0.961 . S
H1836 C1820 0.931 . S
H1837 C1825 0.930 . S
H1838 C1826 0.956 . S
H1839 C1826 0.961 . S
H1840 C1826 0.961 . S
H1841 C1827 0.958 . S
H1842 C1827 0.961 . S
H1843 C1827 0.960 . S
C1844 C1845 1.391 . S
C1844 C1846 1.394 . S
C1844 H1860 0.931 . S
C1845 C1844 1.391 . S
C1845 C1849 1.376 . S
C1846 C1844 1.394 . S
C1846 C1847 1.369 . S
C1846 C1850 1.531 . S
C1847 C1846 1.369 . S
C1847 C1848 1.410 . S
C1847 C1855 1.503 . S
C1848 C1847 1.410 . S
C1848 C1849 1.392 . S
C1848 C1851 1.511 . S
C1849 C1845 1.376 . S
C1849 C1848 1.392 . S
C1849 H1861 0.929 . S
C1850 C1846 1.531 . S
C1850 H1862 0.960 . S
C1850 H1863 0.962 . S
C1850 H1864 0.960 . S
C1851 C1848 1.511 . S
C1851 H1865 0.961 . S
C1851 H1866 0.961 . S
C1851 H1867 0.961 . S
C1852 C1853 1.370 . S
C1852 C1854 1.363 . S
C1852 H1868 0.931 . S
C1853 C1852 1.370 . S
C1853 C1857 1.408 . S
C1854 C1852 1.363 . S
C1854 C1855 1.370 . S
C1854 C1858 1.524 . S
C1855 C1847 1.503 . S
C1855 C1854 1.370 . S
C1855 C1856 1.403 . S
C1856 C1855 1.403 . S
C1856 C1857 1.404 . S
C1856 C1859 1.539 . S
C1857 C1853 1.408 . S
C1857 C1856 1.404 . S
C1857 H1869 0.930 . S
C1858 C1854 1.524 . S
C1858 H1870 0.956 . S
C1858 H1871 0.961 . S
C1858 H1872 0.961 . S
C1859 C1856 1.539 . S
C1859 H1873 0.958 . S
C1859 H1874 0.961 . S
C1859 H1875 0.960 . S
H1860 C1844 0.931 . S
H1861 C1849 0.929 . S
H1862 C1850 0.960 . S
H1863 C1850 0.962 . S
H1864 C1850 0.960 . S
H1865 C1851 0.961 . S
H1866 C1851 0.961 . S
H1867 C1851 0.961 . S
H1868 C1852 0.931 . S
H1869 C1857 0.930 . S
H1870 C1858 0.956 . S
H1871 C1858 0.961 . S
H1872 C1858 0.961 . S
H1873 C1859 0.958 . S
H1874 C1859 0.961 . S
H1875 C1859 0.960 . S
C1876 C1877 1.391 . S
C1876 C1878 1.394 . S
C1876 H1892 0.931 . S
C1877 C1876 1.391 . S
C1877 C1881 1.376 . S
C1878 C1876 1.394 . S
C1878 C1879 1.369 . S
C1878 C1882 1.531 . S
C1879 C1878 1.369 . S
C1879 C1880 1.410 . S
C1879 C1887 1.503 . S
C1880 C1879 1.410 . S
C1880 C1881 1.392 . S
C1880 C1883 1.511 . S
C1881 C1877 1.376 . S
C1881 C1880 1.392 . S
C1881 H1893 0.929 . S
C1882 C1878 1.531 . S
C1882 H1894 0.960 . S
C1882 H1895 0.962 . S
C1882 H1896 0.960 . S
C1883 C1880 1.511 . S
C1883 H1897 0.961 . S
C1883 H1898 0.961 . S
C1883 H1899 0.961 . S
C1884 C1885 1.370 . S
C1884 C1886 1.363 . S
C1884 H1900 0.931 . S
C1885 C1884 1.370 . S
C1885 C1889 1.408 . S
C1886 C1884 1.363 . S
C1886 C1887 1.370 . S
C1886 C1890 1.524 . S
C1887 C1879 1.503 . S
C1887 C1886 1.370 . S
C1887 C1888 1.403 . S
C1888 C1887 1.403 . S
C1888 C1889 1.404 . S
C1888 C1891 1.539 . S
C1889 C1885 1.408 . S
C1889 C1888 1.404 . S
C1889 H1901 0.930 . S
C1890 C1886 1.524 . S
C1890 H1902 0.956 . S
C1890 H1903 0.961 . S
C1890 H1904 0.961 . S
C1891 C1888 1.539 . S
C1891 H1905 0.958 . S
C1891 H1906 0.961 . S
C1891 H1907 0.960 . S
H1892 C1876 0.931 . S
H1893 C1881 0.929 . S
H1894 C1882 0.960 . S
H1895 C1882 0.962 . S
H1896 C1882 0.960 . S
H1897 C1883 0.961 . S
H1898 C1883 0.961 . S
H1899 C1883 0.961 . S
H1900 C1884 0.931 . S
H1901 C1889 0.930 . S
H1902 C1890 0.956 . S
H1903 C1890 0.961 . S
H1904 C1890 0.961 . S
H1905 C1891 0.958 . S
H1906 C1891 0.961 . S
H1907 C1891 0.960 . S
C1908 C1909 1.391 . S
C1908 C1910 1.394 . S
C1908 H1924 0.931 . S
C1909 C1908 1.391 . S
C1909 C1913 1.376 . S
C1910 C1908 1.394 . S
C1910 C1911 1.369 . S
C1910 C1914 1.531 . S
C1911 C1910 1.369 . S
C1911 C1912 1.410 . S
C1911 C1919 1.503 . S
C1912 C1911 1.410 . S
C1912 C1913 1.392 . S
C1912 C1915 1.511 . S
C1913 C1909 1.376 . S
C1913 C1912 1.392 . S
C1913 H1925 0.929 . S
C1914 C1910 1.531 . S
C1914 H1926 0.960 . S
C1914 H1927 0.962 . S
C1914 H1928 0.960 . S
C1915 C1912 1.511 . S
C1915 H1929 0.961 . S
C1915 H1930 0.961 . S
C1915 H1931 0.961 . S
C1916 C1917 1.370 . S
C1916 C1918 1.363 . S
C1916 H1932 0.931 . S
C1917 C1916 1.370 . S
C1917 C1921 1.408 . S
C1918 C1916 1.363 . S
C1918 C1919 1.370 . S
C1918 C1922 1.524 . S
C1919 C1911 1.503 . S
C1919 C1918 1.370 . S
C1919 C1920 1.403 . S
C1920 C1919 1.403 . S
C1920 C1921 1.404 . S
C1920 C1923 1.539 . S
C1921 C1917 1.408 . S
C1921 C1920 1.404 . S
C1921 H1933 0.930 . S
C1922 C1918 1.524 . S
C1922 H1934 0.956 . S
C1922 H1935 0.961 . S
C1922 H1936 0.961 . S
C1923 C1920 1.539 . S
C1923 H1937 0.958 . S
C1923 H1938 0.961 . S
C1923 H1939 0.960 . S
H1924 C1908 0.931 . S
H1925 C1913 0.929 . S
H1926 C1914 0.960 . S
H1927 C1914 0.962 . S
H1928 C1914 0.960 . S
H1929 C1915 0.961 . S
H1930 C1915 0.961 . S
H1931 C1915 0.961 . S
H1932 C1916 0.931 . S
H1933 C1921 0.930 . S
H1934 C1922 0.956 . S
H1935 C1922 0.961 . S
H1936 C1922 0.961 . S
H1937 C1923 0.958 . S
H1938 C1923 0.961 . S
H1939 C1923 0.960 . S
C1940 C1941 1.391 . S
C1940 C1942 1.394 . S
C1940 H1956 0.931 . S
C1941 C1940 1.391 . S
C1941 C1945 1.376 . S
C1942 C1940 1.394 . S
C1942 C1943 1.369 . S
C1942 C1946 1.531 . S
C1943 C1942 1.369 . S
C1943 C1944 1.410 . S
C1943 C1951 1.503 . S
C1944 C1943 1.410 . S
C1944 C1945 1.392 . S
C1944 C1947 1.511 . S
C1945 C1941 1.376 . S
C1945 C1944 1.392 . S
C1945 H1957 0.929 . S
C1946 C1942 1.531 . S
C1946 H1958 0.960 . S
C1946 H1959 0.962 . S
C1946 H1960 0.960 . S
C1947 C1944 1.511 . S
C1947 H1961 0.961 . S
C1947 H1962 0.961 . S
C1947 H1963 0.961 . S
C1948 C1949 1.370 . S
C1948 C1950 1.363 . S
C1948 H1964 0.931 . S
C1949 C1948 1.370 . S
C1949 C1953 1.408 . S
C1950 C1948 1.363 . S
C1950 C1951 1.370 . S
C1950 C1954 1.524 . S
C1951 C1943 1.503 . S
C1951 C1950 1.370 . S
C1951 C1952 1.403 . S
C1952 C1951 1.403 . S
C1952 C1953 1.404 . S
C1952 C1955 1.539 . S
C1953 C1949 1.408 . S
C1953 C1952 1.404 . S
C1953 H1965 0.930 . S
C1954 C1950 1.524 . S
C1954 H1966 0.956 . S
C1954 H1967 0.961 . S
C1954 H1968 0.961 . S
C1955 C1952 1.539 . S
C1955 H1969 0.958 . S
C1955 H1970 0.961 . S
C1955 H1971 0.960 . S
H1956 C1940 0.931 . S
H1957 C1945 0.929 . S
H1958 C1946 0.960 . S
H1959 C1946 0.962 . S
H1960 C1946 0.960 . S
H1961 C1947 0.961 . S
H1962 C1947 0.961 . S
H1963 C1947 0.961 . S
H1964 C1948 0.931 . S
H1965 C1953 0.930 . S
H1966 C1954 0.956 . S
H1967 C1954 0.961 . S
H1968 C1954 0.961 . S
H1969 C1955 0.958 . S
H1970 C1955 0.961 . S
H1971 C1955 0.960 . S
C1972 C1973 1.391 . S
C1972 C1974 1.394 . S
C1972 H1988 0.931 . S
C1973 C1972 1.391 . S
C1973 C1977 1.376 . S
C1974 C1972 1.394 . S
C1974 C1975 1.369 . S
C1974 C1978 1.531 . S
C1975 C1974 1.369 . S
C1975 C1976 1.410 . S
C1975 C1983 1.503 . S
C1976 C1975 1.410 . S
C1976 C1977 1.392 . S
C1976 C1979 1.511 . S
C1977 C1973 1.376 . S
C1977 C1976 1.392 . S
C1977 H1989 0.929 . S
C1978 C1974 1.531 . S
C1978 H1990 0.960 . S
C1978 H1991 0.962 . S
C1978 H1992 0.960 . S
C1979 C1976 1.511 . S
C1979 H1993 0.961 . S
C1979 H1994 0.961 . S
C1979 H1995 0.961 . S
C1980 C1981 1.370 . S
C1980 C1982 1.363 . S
C1980 H1996 0.931 . S
C1981 C1980 1.370 . S
C1981 C1985 1.408 . S
C1982 C1980 1.363 . S
C1982 C1983 1.370 . S
C1982 C1986 1.524 . S
C1983 C1975 1.503 . S
C1983 C1982 1.370 . S
C1983 C1984 1.403 . S
C1984 C1983 1.403 . S
C1984 C1985 1.404 . S
C1984 C1987 1.539 . S
C1985 C1981 1.408 . S
C1985 C1984 1.404 . S
C1985 H1997 0.930 . S
C1986 C1982 1.524 . S
C1986 H1998 0.956 . S
C1986 H1999 0.961 . S
C1986 H2000 0.961 . S
C1987 C1984 1.539 . S
C1987 H2001 0.958 . S
C1987 H2002 0.961 . S
C1987 H2003 0.960 . S
H1988 C1972 0.931 . S
H1989 C1977 0.929 . S
H1990 C1978 0.960 . S
H1991 C1978 0.962 . S
H1992 C1978 0.960 . S
H1993 C1979 0.961 . S
H1994 C1979 0.961 . S
H1995 C1979 0.961 . S
H1996 C1980 0.931 . S
H1997 C1985 0.930 . S
H1998 C1986 0.956 . S
H1999 C1986 0.961 . S
H2000 C1986 0.961 . S
H2001 C1987 0.958 . S
H2002 C1987 0.961 . S
H2003 C1987 0.960 . S
C2004 C2005 1.391 . S
C2004 C2006 1.394 . S
C2004 H2020 0.931 . S
C2005 C2004 1.391 . S
C2005 C2009 1.376 . S
C2006 C2004 1.394 . S
C2006 C2007 1.369 . S
C2006 C2010 1.531 . S
C2007 C2006 1.369 . S
C2007 C2008 1.410 . S
C2007 C2015 1.503 . S
C2008 C2007 1.410 . S
C2008 C2009 1.392 . S
C2008 C2011 1.511 . S
C2009 C2005 1.376 . S
C2009 C2008 1.392 . S
C2009 H2021 0.929 . S
C2010 C2006 1.531 . S
C2010 H2022 0.960 . S
C2010 H2023 0.962 . S
C2010 H2024 0.960 . S
C2011 C2008 1.511 . S
C2011 H2025 0.961 . S
C2011 H2026 0.961 . S
C2011 H2027 0.961 . S
C2012 C2013 1.370 . S
C2012 C2014 1.363 . S
C2012 H2028 0.931 . S
C2013 C2012 1.370 . S
C2013 C2017 1.408 . S
C2014 C2012 1.363 . S
C2014 C2015 1.370 . S
C2014 C2018 1.524 . S
C2015 C2007 1.503 . S
C2015 C2014 1.370 . S
C2015 C2016 1.403 . S
C2016 C2015 1.403 . S
C2016 C2017 1.404 . S
C2016 C2019 1.539 . S
C2017 C2013 1.408 . S
C2017 C2016 1.404 . S
C2017 H2029 0.930 . S
C2018 C2014 1.524 . S
C2018 H2030 0.956 . S
C2018 H2031 0.961 . S
C2018 H2032 0.961 . S
C2019 C2016 1.539 . S
C2019 H2033 0.958 . S
C2019 H2034 0.961 . S
C2019 H2035 0.960 . S
H2020 C2004 0.931 . S
H2021 C2009 0.929 . S
H2022 C2010 0.960 . S
H2023 C2010 0.962 . S
H2024 C2010 0.960 . S
H2025 C2011 0.961 . S
H2026 C2011 0.961 . S
H2027 C2011 0.961 . S
H2028 C2012 0.931 . S
H2029 C2017 0.930 . S
H2030 C2018 0.956 . S
H2031 C2018 0.961 . S
H2032 C2018 0.961 . S
H2033 C2019 0.958 . S
H2034 C2019 0.961 . S
H2035 C2019 0.960 . S
C2036 C2037 1.391 . S
C2036 C2038 1.394 . S
C2036 H2052 0.931 . S
C2037 C2036 1.391 . S
C2037 C2041 1.376 . S
C2038 C2036 1.394 . S
C2038 C2039 1.369 . S
C2038 C2042 1.531 . S
C2039 C2038 1.369 . S
C2039 C2040 1.410 . S
C2039 C2047 1.503 . S
C2040 C2039 1.410 . S
C2040 C2041 1.392 . S
C2040 C2043 1.511 . S
C2041 C2037 1.376 . S
C2041 C2040 1.392 . S
C2041 H2053 0.929 . S
C2042 C2038 1.531 . S
C2042 H2054 0.960 . S
C2042 H2055 0.962 . S
C2042 H2056 0.960 . S
C2043 C2040 1.511 . S
C2043 H2057 0.961 . S
C2043 H2058 0.961 . S
C2043 H2059 0.961 . S
C2044 C2045 1.370 . S
C2044 C2046 1.363 . S
C2044 H2060 0.931 . S
C2045 C2044 1.370 . S
C2045 C2049 1.408 . S
C2046 C2044 1.363 . S
C2046 C2047 1.370 . S
C2046 C2050 1.524 . S
C2047 C2039 1.503 . S
C2047 C2046 1.370 . S
C2047 C2048 1.403 . S
C2048 C2047 1.403 . S
C2048 C2049 1.404 . S
C2048 C2051 1.539 . S
C2049 C2045 1.408 . S
C2049 C2048 1.404 . S
C2049 H2061 0.930 . S
C2050 C2046 1.524 . S
C2050 H2062 0.956 . S
C2050 H2063 0.961 . S
C2050 H2064 0.961 . S
C2051 C2048 1.539 . S
C2051 H2065 0.958 . S
C2051 H2066 0.961 . S
C2051 H2067 0.960 . S
H2052 C2036 0.931 . S
H2053 C2041 0.929 . S
H2054 C2042 0.960 . S
H2055 C2042 0.962 . S
H2056 C2042 0.960 . S
H2057 C2043 0.961 . S
H2058 C2043 0.961 . S
H2059 C2043 0.961 . S
H2060 C2044 0.931 . S
H2061 C2049 0.930 . S
H2062 C2050 0.956 . S
H2063 C2050 0.961 . S
H2064 C2050 0.961 . S
H2065 C2051 0.958 . S
H2066 C2051 0.961 . S
H2067 C2051 0.960 . S
C2068 C2069 1.391 . S
C2068 C2070 1.394 . S
C2068 H2084 0.931 . S
C2069 C2068 1.391 . S
C2069 C2073 1.376 . S
C2070 C2068 1.394 . S
C2070 C2071 1.369 . S
C2070 C2074 1.531 . S
C2071 C2070 1.369 . S
C2071 C2072 1.410 . S
C2071 C2079 1.503 . S
C2072 C2071 1.410 . S
C2072 C2073 1.392 . S
C2072 C2075 1.511 . S
C2073 C2069 1.376 . S
C2073 C2072 1.392 . S
C2073 H2085 0.929 . S
C2074 C2070 1.531 . S
C2074 H2086 0.960 . S
C2074 H2087 0.962 . S
C2074 H2088 0.960 . S
C2075 C2072 1.511 . S
C2075 H2089 0.961 . S
C2075 H2090 0.961 . S
C2075 H2091 0.961 . S
C2076 C2077 1.370 . S
C2076 C2078 1.363 . S
C2076 H2092 0.931 . S
C2077 C2076 1.370 . S
C2077 C2081 1.408 . S
C2078 C2076 1.363 . S
C2078 C2079 1.370 . S
C2078 C2082 1.524 . S
C2079 C2071 1.503 . S
C2079 C2078 1.370 . S
C2079 C2080 1.403 . S
C2080 C2079 1.403 . S
C2080 C2081 1.404 . S
C2080 C2083 1.539 . S
C2081 C2077 1.408 . S
C2081 C2080 1.404 . S
C2081 H2093 0.930 . S
C2082 C2078 1.524 . S
C2082 H2094 0.956 . S
C2082 H2095 0.961 . S
C2082 H2096 0.961 . S
C2083 C2080 1.539 . S
C2083 H2097 0.958 . S
C2083 H2098 0.961 . S
C2083 H2099 0.960 . S
H2084 C2068 0.931 . S
H2085 C2073 0.929 . S
H2086 C2074 0.960 . S
H2087 C2074 0.962 . S
H2088 C2074 0.960 . S
H2089 C2075 0.961 . S
H2090 C2075 0.961 . S
H2091 C2075 0.961 . S
H2092 C2076 0.931 . S
H2093 C2081 0.930 . S
H2094 C2082 0.956 . S
H2095 C2082 0.961 . S
H2096 C2082 0.961 . S
H2097 C2083 0.958 . S
H2098 C2083 0.961 . S
H2099 C2083 0.960 . S
C2100 C2101 1.391 . S
C2100 C2102 1.394 . S
C2100 H2116 0.931 . S
C2101 C2100 1.391 . S
C2101 C2105 1.376 . S
C2102 C2100 1.394 . S
C2102 C2103 1.369 . S
C2102 C2106 1.531 1_556 S
C2103 C2102 1.369 . S
C2103 C2104 1.410 . S
C2103 C2111 1.503 1_556 S
C2104 C2103 1.410 . S
C2104 C2105 1.392 . S
C2104 C2107 1.511 . S
C2105 C2101 1.376 . S
C2105 C2104 1.392 . S
C2105 H2117 0.929 . S
C2106 C2102 1.531 1_554 S
C2106 H2118 0.960 . S
C2106 H2119 0.962 . S
C2106 H2120 0.960 . S
C2107 C2104 1.511 . S
C2107 H2121 0.961 . S
C2107 H2122 0.961 . S
C2107 H2123 0.961 . S
C2108 C2109 1.370 . S
C2108 C2110 1.363 . S
C2108 H2124 0.931 . S
C2109 C2108 1.370 . S
C2109 C2113 1.408 . S
C2110 C2108 1.363 . S
C2110 C2111 1.370 . S
C2110 C2114 1.524 1_554 S
C2111 C2103 1.503 1_554 S
C2111 C2110 1.370 . S
C2111 C2112 1.403 . S
C2112 C2111 1.403 . S
C2112 C2113 1.404 . S
C2112 C2115 1.539 . S
C2113 C2109 1.408 . S
C2113 C2112 1.404 . S
C2113 H2125 0.930 . S
C2114 C2110 1.524 1_556 S
C2114 H2126 0.956 1_556 S
C2114 H2127 0.961 . S
C2114 H2128 0.961 1_556 S
C2115 C2112 1.539 . S
C2115 H2129 0.958 . S
C2115 H2130 0.961 . S
C2115 H2131 0.960 . S
H2116 C2100 0.931 . S
H2117 C2105 0.929 . S
H2118 C2106 0.960 . S
H2119 C2106 0.962 . S
H2120 C2106 0.960 . S
H2121 C2107 0.961 . S
H2122 C2107 0.961 . S
H2123 C2107 0.961 . S
H2124 C2108 0.931 . S
H2125 C2113 0.930 . S
H2126 C2114 0.956 1_554 S
H2127 C2114 0.961 . S
H2128 C2114 0.961 1_554 S
H2129 C2115 0.958 . S
H2130 C2115 0.961 . S
H2131 C2115 0.960 . S
C2132 C2133 1.391 . S
C2132 C2134 1.394 . S
C2132 H2148 0.931 . S
C2133 C2132 1.391 . S
C2133 C2137 1.376 . S
C2134 C2132 1.394 . S
C2134 C2135 1.369 . S
C2134 C2138 1.531 . S
C2135 C2134 1.369 . S
C2135 C2136 1.410 . S
C2135 C2143 1.503 1_556 S
C2136 C2135 1.410 . S
C2136 C2137 1.392 . S
C2136 C2139 1.511 . S
C2137 C2133 1.376 . S
C2137 C2136 1.392 . S
C2137 H2149 0.929 . S
C2138 C2134 1.531 . S
C2138 H2150 0.960 1_556 S
C2138 H2151 0.962 . S
C2138 H2152 0.960 . S
C2139 C2136 1.511 . S
C2139 H2153 0.961 . S
C2139 H2154 0.961 . S
C2139 H2155 0.961 . S
C2140 C2141 1.370 . S
C2140 C2142 1.363 . S
C2140 H2156 0.931 . S
C2141 C2140 1.370 . S
C2141 C2145 1.408 . S
C2142 C2140 1.363 . S
C2142 C2143 1.370 . S
C2142 C2146 1.524 1_554 S
C2143 C2135 1.503 1_554 S
C2143 C2142 1.370 . S
C2143 C2144 1.403 . S
C2144 C2143 1.403 . S
C2144 C2145 1.404 . S
C2144 C2147 1.539 . S
C2145 C2141 1.408 . S
C2145 C2144 1.404 . S
C2145 H2157 0.930 . S
C2146 C2142 1.524 1_556 S
C2146 H2158 0.956 . S
C2146 H2159 0.961 . S
C2146 H2160 0.961 . S
C2147 C2144 1.539 . S
C2147 H2161 0.958 . S
C2147 H2162 0.961 . S
C2147 H2163 0.960 . S
H2148 C2132 0.931 . S
H2149 C2137 0.929 . S
H2150 C2138 0.960 1_554 S
H2151 C2138 0.962 . S
H2152 C2138 0.960 . S
H2153 C2139 0.961 . S
H2154 C2139 0.961 . S
H2155 C2139 0.961 . S
H2156 C2140 0.931 . S
H2157 C2145 0.930 . S
H2158 C2146 0.956 . S
H2159 C2146 0.961 . S
H2160 C2146 0.961 . S
H2161 C2147 0.958 . S
H2162 C2147 0.961 . S
H2163 C2147 0.960 . S
C2164 C2165 1.391 . S
C2164 C2166 1.394 . S
C2164 H2180 0.931 . S
C2165 C2164 1.391 . S
C2165 C2169 1.376 . S
C2166 C2164 1.394 . S
C2166 C2167 1.369 . S
C2166 C2170 1.531 1_556 S
C2167 C2166 1.369 . S
C2167 C2168 1.410 . S
C2167 C2175 1.503 1_556 S
C2168 C2167 1.410 . S
C2168 C2169 1.392 . S
C2168 C2171 1.511 . S
C2169 C2165 1.376 . S
C2169 C2168 1.392 . S
C2169 H2181 0.929 . S
C2170 C2166 1.531 1_554 S
C2170 H2182 0.960 . S
C2170 H2183 0.962 . S
C2170 H2184 0.960 . S
C2171 C2168 1.511 . S
C2171 H2185 0.961 . S
C2171 H2186 0.961 . S
C2171 H2187 0.961 . S
C2172 C2173 1.370 . S
C2172 C2174 1.363 . S
C2172 H2188 0.931 . S
C2173 C2172 1.370 . S
C2173 C2177 1.408 . S
C2174 C2172 1.363 . S
C2174 C2175 1.370 . S
C2174 C2178 1.524 1_554 S
C2175 C2167 1.503 1_554 S
C2175 C2174 1.370 . S
C2175 C2176 1.403 . S
C2176 C2175 1.403 . S
C2176 C2177 1.404 . S
C2176 C2179 1.539 . S
C2177 C2173 1.408 . S
C2177 C2176 1.404 . S
C2177 H2189 0.930 . S
C2178 C2174 1.524 1_556 S
C2178 H2190 0.956 . S
C2178 H2191 0.961 . S
C2178 H2192 0.961 . S
C2179 C2176 1.539 . S
C2179 H2193 0.958 . S
C2179 H2194 0.961 . S
C2179 H2195 0.960 . S
H2180 C2164 0.931 . S
H2181 C2169 0.929 . S
H2182 C2170 0.960 . S
H2183 C2170 0.962 . S
H2184 C2170 0.960 . S
H2185 C2171 0.961 . S
H2186 C2171 0.961 . S
H2187 C2171 0.961 . S
H2188 C2172 0.931 . S
H2189 C2177 0.930 . S
H2190 C2178 0.956 . S
H2191 C2178 0.961 . S
H2192 C2178 0.961 . S
H2193 C2179 0.958 . S
H2194 C2179 0.961 . S
H2195 C2179 0.960 . S
C2196 C2197 1.391 . S
C2196 C2198 1.394 . S
C2196 H2212 0.931 . S
C2197 C2196 1.391 . S
C2197 C2201 1.376 . S
C2198 C2196 1.394 . S
C2198 C2199 1.369 . S
C2198 C2202 1.531 . S
C2199 C2198 1.369 . S
C2199 C2200 1.410 . S
C2199 C2207 1.503 . S
C2200 C2199 1.410 . S
C2200 C2201 1.392 . S
C2200 C2203 1.511 . S
C2201 C2197 1.376 . S
C2201 C2200 1.392 . S
C2201 H2213 0.929 . S
C2202 C2198 1.531 . S
C2202 H2214 0.960 . S
C2202 H2215 0.962 . S
C2202 H2216 0.960 . S
C2203 C2200 1.511 . S
C2203 H2217 0.961 . S
C2203 H2218 0.961 . S
C2203 H2219 0.961 . S
C2204 C2205 1.370 . S
C2204 C2206 1.363 . S
C2204 H2220 0.931 . S
C2205 C2204 1.370 . S
C2205 C2209 1.408 1_556 S
C2206 C2204 1.363 . S
C2206 C2207 1.370 . S
C2206 C2210 1.524 . S
C2207 C2199 1.503 . S
C2207 C2206 1.370 . S
C2207 C2208 1.403 . S
C2208 C2207 1.403 . S
C2208 C2209 1.404 1_556 S
C2208 C2211 1.539 1_556 S
C2209 C2205 1.408 1_554 S
C2209 C2208 1.404 1_554 S
C2209 H2221 0.930 . S
C2210 C2206 1.524 . S
C2210 H2222 0.956 . S
C2210 H2223 0.961 . S
C2210 H2224 0.961 . S
C2211 C2208 1.539 1_554 S
C2211 H2225 0.958 . S
C2211 H2226 0.961 . S
C2211 H2227 0.960 . S
H2212 C2196 0.931 . S
H2213 C2201 0.929 . S
H2214 C2202 0.960 . S
H2215 C2202 0.962 . S
H2216 C2202 0.960 . S
H2217 C2203 0.961 . S
H2218 C2203 0.961 . S
H2219 C2203 0.961 . S
H2220 C2204 0.931 . S
H2221 C2209 0.930 . S
H2222 C2210 0.956 . S
H2223 C2210 0.961 . S
H2224 C2210 0.961 . S
H2225 C2211 0.958 . S
H2226 C2211 0.961 . S
H2227 C2211 0.960 . S
C2228 C2229 1.391 . S
C2228 C2230 1.394 . S
C2228 H2244 0.931 . S
C2229 C2228 1.391 . S
C2229 C2233 1.376 1_556 S
C2230 C2228 1.394 . S
C2230 C2231 1.369 . S
C2230 C2234 1.531 . S
C2231 C2230 1.369 . S
C2231 C2232 1.410 . S
C2231 C2239 1.503 . S
C2232 C2231 1.410 . S
C2232 C2233 1.392 1_556 S
C2232 C2235 1.511 . S
C2233 C2229 1.376 1_554 S
C2233 C2232 1.392 1_554 S
C2233 H2245 0.929 . S
C2234 C2230 1.531 . S
C2234 H2246 0.960 . S
C2234 H2247 0.962 . S
C2234 H2248 0.960 . S
C2235 C2232 1.511 . S
C2235 H2249 0.961 1_556 S
C2235 H2250 0.961 . S
C2235 H2251 0.961 1_556 S
C2236 C2237 1.370 . S
C2236 C2238 1.363 . S
C2236 H2252 0.931 . S
C2237 C2236 1.370 . S
C2237 C2241 1.408 . S
C2238 C2236 1.363 . S
C2238 C2239 1.370 . S
C2238 C2242 1.524 . S
C2239 C2231 1.503 . S
C2239 C2238 1.370 . S
C2239 C2240 1.403 . S
C2240 C2239 1.403 . S
C2240 C2241 1.404 . S
C2240 C2243 1.539 . S
C2241 C2237 1.408 . S
C2241 C2240 1.404 . S
C2241 H2253 0.930 . S
C2242 C2238 1.524 . S
C2242 H2254 0.956 . S
C2242 H2255 0.961 . S
C2242 H2256 0.961 . S
C2243 C2240 1.539 . S
C2243 H2257 0.958 . S
C2243 H2258 0.961 . S
C2243 H2259 0.960 1_556 S
H2244 C2228 0.931 . S
H2245 C2233 0.929 . S
H2246 C2234 0.960 . S
H2247 C2234 0.962 . S
H2248 C2234 0.960 . S
H2249 C2235 0.961 1_554 S
H2250 C2235 0.961 . S
H2251 C2235 0.961 1_554 S
H2252 C2236 0.931 . S
H2253 C2241 0.930 . S
H2254 C2242 0.956 . S
H2255 C2242 0.961 . S
H2256 C2242 0.961 . S
H2257 C2243 0.958 . S
H2258 C2243 0.961 . S
H2259 C2243 0.960 1_554 S
C2260 C2261 1.391 . S
C2260 C2262 1.394 . S
C2260 H2276 0.931 . S
C2261 C2260 1.391 . S
C2261 C2265 1.376 . S
C2262 C2260 1.394 . S
C2262 C2263 1.369 . S
C2262 C2266 1.531 . S
C2263 C2262 1.369 . S
C2263 C2264 1.410 . S
C2263 C2271 1.503 . S
C2264 C2263 1.410 . S
C2264 C2265 1.392 . S
C2264 C2267 1.511 . S
C2265 C2261 1.376 . S
C2265 C2264 1.392 . S
C2265 H2277 0.929 . S
C2266 C2262 1.531 . S
C2266 H2278 0.960 . S
C2266 H2279 0.962 . S
C2266 H2280 0.960 . S
C2267 C2264 1.511 . S
C2267 H2281 0.961 . S
C2267 H2282 0.961 . S
C2267 H2283 0.961 . S
C2268 C2269 1.370 . S
C2268 C2270 1.363 . S
C2268 H2284 0.931 1_556 S
C2269 C2268 1.370 . S
C2269 C2273 1.408 . S
C2270 C2268 1.363 . S
C2270 C2271 1.370 . S
C2270 C2274 1.524 . S
C2271 C2263 1.503 . S
C2271 C2270 1.370 . S
C2271 C2272 1.403 . S
C2272 C2271 1.403 . S
C2272 C2273 1.404 . S
C2272 C2275 1.539 . S
C2273 C2269 1.408 . S
C2273 C2272 1.404 . S
C2273 H2285 0.930 . S
C2274 C2270 1.524 . S
C2274 H2286 0.956 . S
C2274 H2287 0.961 . S
C2274 H2288 0.961 . S
C2275 C2272 1.539 . S
C2275 H2289 0.958 . S
C2275 H2290 0.961 . S
C2275 H2291 0.960 . S
H2276 C2260 0.931 . S
H2277 C2265 0.929 . S
H2278 C2266 0.960 . S
H2279 C2266 0.962 . S
H2280 C2266 0.960 . S
H2281 C2267 0.961 . S
H2282 C2267 0.961 . S
H2283 C2267 0.961 . S
H2284 C2268 0.931 1_554 S
H2285 C2273 0.930 . S
H2286 C2274 0.956 . S
H2287 C2274 0.961 . S
H2288 C2274 0.961 . S
H2289 C2275 0.958 . S
H2290 C2275 0.961 . S
H2291 C2275 0.960 . S
C2292 C2293 1.391 . S
C2292 C2294 1.394 . S
C2292 H2308 0.931 . S
C2293 C2292 1.391 . S
C2293 C2297 1.376 . S
C2294 C2292 1.394 . S
C2294 C2295 1.369 . S
C2294 C2298 1.531 . S
C2295 C2294 1.369 . S
C2295 C2296 1.410 . S
C2295 C2303 1.503 . S
C2296 C2295 1.410 . S
C2296 C2297 1.392 . S
C2296 C2299 1.511 . S
C2297 C2293 1.376 . S
C2297 C2296 1.392 . S
C2297 H2309 0.929 . S
C2298 C2294 1.531 . S
C2298 H2310 0.960 . S
C2298 H2311 0.962 . S
C2298 H2312 0.960 . S
C2299 C2296 1.511 . S
C2299 H2313 0.961 . S
C2299 H2314 0.961 . S
C2299 H2315 0.961 . S
C2300 C2301 1.370 . S
C2300 C2302 1.363 . S
C2300 H2316 0.931 . S
C2301 C2300 1.370 . S
C2301 C2305 1.408 . S
C2302 C2300 1.363 . S
C2302 C2303 1.370 . S
C2302 C2306 1.524 . S
C2303 C2295 1.503 . S
C2303 C2302 1.370 . S
C2303 C2304 1.403 . S
C2304 C2303 1.403 . S
C2304 C2305 1.404 . S
C2304 C2307 1.539 . S
C2305 C2301 1.408 . S
C2305 C2304 1.404 . S
C2305 H2317 0.930 . S
C2306 C2302 1.524 . S
C2306 H2318 0.956 . S
C2306 H2319 0.961 . S
C2306 H2320 0.961 . S
C2307 C2304 1.539 . S
C2307 H2321 0.958 . S
C2307 H2322 0.961 . S
C2307 H2323 0.960 . S
H2308 C2292 0.931 . S
H2309 C2297 0.929 . S
H2310 C2298 0.960 . S
H2311 C2298 0.962 . S
H2312 C2298 0.960 . S
H2313 C2299 0.961 . S
H2314 C2299 0.961 . S
H2315 C2299 0.961 . S
H2316 C2300 0.931 . S
H2317 C2305 0.930 . S
H2318 C2306 0.956 . S
H2319 C2306 0.961 . S
H2320 C2306 0.961 . S
H2321 C2307 0.958 . S
H2322 C2307 0.961 . S
H2323 C2307 0.960 . S
C2324 C2325 1.391 . S
C2324 C2326 1.394 . S
C2324 H2340 0.931 . S
C2325 C2324 1.391 . S
C2325 C2329 1.376 . S
C2326 C2324 1.394 . S
C2326 C2327 1.369 . S
C2326 C2330 1.531 . S
C2327 C2326 1.369 . S
C2327 C2328 1.410 . S
C2327 C2335 1.503 . S
C2328 C2327 1.410 . S
C2328 C2329 1.392 . S
C2328 C2331 1.511 . S
C2329 C2325 1.376 . S
C2329 C2328 1.392 . S
C2329 H2341 0.929 . S
C2330 C2326 1.531 . S
C2330 H2342 0.960 . S
C2330 H2343 0.962 . S
C2330 H2344 0.960 . S
C2331 C2328 1.511 . S
C2331 H2345 0.961 . S
C2331 H2346 0.961 . S
C2331 H2347 0.961 . S
C2332 C2333 1.370 . S
C2332 C2334 1.363 . S
C2332 H2348 0.931 . S
C2333 C2332 1.370 . S
C2333 C2337 1.408 . S
C2334 C2332 1.363 . S
C2334 C2335 1.370 . S
C2334 C2338 1.524 . S
C2335 C2327 1.503 . S
C2335 C2334 1.370 . S
C2335 C2336 1.403 . S
C2336 C2335 1.403 . S
C2336 C2337 1.404 . S
C2336 C2339 1.539 . S
C2337 C2333 1.408 . S
C2337 C2336 1.404 . S
C2337 H2349 0.930 . S
C2338 C2334 1.524 . S
C2338 H2350 0.956 . S
C2338 H2351 0.961 . S
C2338 H2352 0.961 . S
C2339 C2336 1.539 . S
C2339 H2353 0.958 . S
C2339 H2354 0.961 . S
C2339 H2355 0.960 . S
H2340 C2324 0.931 . S
H2341 C2329 0.929 . S
H2342 C2330 0.960 . S
H2343 C2330 0.962 . S
H2344 C2330 0.960 . S
H2345 C2331 0.961 . S
H2346 C2331 0.961 . S
H2347 C2331 0.961 . S
H2348 C2332 0.931 . S
H2349 C2337 0.930 . S
H2350 C2338 0.956 . S
H2351 C2338 0.961 . S
H2352 C2338 0.961 . S
H2353 C2339 0.958 . S
H2354 C2339 0.961 . S
H2355 C2339 0.960 . S
C2356 C2357 1.391 . S
C2356 C2358 1.394 . S
C2356 H2372 0.931 . S
C2357 C2356 1.391 . S
C2357 C2361 1.376 . S
C2358 C2356 1.394 . S
C2358 C2359 1.369 . S
C2358 C2362 1.531 . S
C2359 C2358 1.369 . S
C2359 C2360 1.410 . S
C2359 C2367 1.503 . S
C2360 C2359 1.410 . S
C2360 C2361 1.392 . S
C2360 C2363 1.511 . S
C2361 C2357 1.376 . S
C2361 C2360 1.392 . S
C2361 H2373 0.929 . S
C2362 C2358 1.531 . S
C2362 H2374 0.960 . S
C2362 H2375 0.962 . S
C2362 H2376 0.960 . S
C2363 C2360 1.511 . S
C2363 H2377 0.961 . S
C2363 H2378 0.961 . S
C2363 H2379 0.961 . S
C2364 C2365 1.370 . S
C2364 C2366 1.363 . S
C2364 H2380 0.931 . S
C2365 C2364 1.370 . S
C2365 C2369 1.408 . S
C2366 C2364 1.363 . S
C2366 C2367 1.370 . S
C2366 C2370 1.524 . S
C2367 C2359 1.503 . S
C2367 C2366 1.370 . S
C2367 C2368 1.403 . S
C2368 C2367 1.403 . S
C2368 C2369 1.404 . S
C2368 C2371 1.539 . S
C2369 C2365 1.408 . S
C2369 C2368 1.404 . S
C2369 H2381 0.930 . S
C2370 C2366 1.524 . S
C2370 H2382 0.956 . S
C2370 H2383 0.961 . S
C2370 H2384 0.961 . S
C2371 C2368 1.539 . S
C2371 H2385 0.958 . S
C2371 H2386 0.961 . S
C2371 H2387 0.960 . S
H2372 C2356 0.931 . S
H2373 C2361 0.929 . S
H2374 C2362 0.960 . S
H2375 C2362 0.962 . S
H2376 C2362 0.960 . S
H2377 C2363 0.961 . S
H2378 C2363 0.961 . S
H2379 C2363 0.961 . S
H2380 C2364 0.931 . S
H2381 C2369 0.930 . S
H2382 C2370 0.956 . S
H2383 C2370 0.961 . S
H2384 C2370 0.961 . S
H2385 C2371 0.958 . S
H2386 C2371 0.961 . S
H2387 C2371 0.960 . S
C2388 C2389 1.391 . S
C2388 C2390 1.394 . S
C2388 H2404 0.931 . S
C2389 C2388 1.391 . S
C2389 C2393 1.376 1_554 S
C2390 C2388 1.394 . S
C2390 C2391 1.369 . S
C2390 C2394 1.531 . S
C2391 C2390 1.369 . S
C2391 C2392 1.410 . S
C2391 C2399 1.503 . S
C2392 C2391 1.410 . S
C2392 C2393 1.392 1_554 S
C2392 C2395 1.511 . S
C2393 C2389 1.376 1_556 S
C2393 C2392 1.392 1_556 S
C2393 H2405 0.929 . S
C2394 C2390 1.531 . S
C2394 H2406 0.960 . S
C2394 H2407 0.962 . S
C2394 H2408 0.960 . S
C2395 C2392 1.511 . S
C2395 H2409 0.961 1_554 S
C2395 H2410 0.961 . S
C2395 H2411 0.961 . S
C2396 C2397 1.370 . S
C2396 C2398 1.363 . S
C2396 H2412 0.931 . S
C2397 C2396 1.370 . S
C2397 C2401 1.408 . S
C2398 C2396 1.363 . S
C2398 C2399 1.370 . S
C2398 C2402 1.524 . S
C2399 C2391 1.503 . S
C2399 C2398 1.370 . S
C2399 C2400 1.403 . S
C2400 C2399 1.403 . S
C2400 C2401 1.404 . S
C2400 C2403 1.539 . S
C2401 C2397 1.408 . S
C2401 C2400 1.404 . S
C2401 H2413 0.930 . S
C2402 C2398 1.524 . S
C2402 H2414 0.956 . S
C2402 H2415 0.961 . S
C2402 H2416 0.961 . S
C2403 C2400 1.539 . S
C2403 H2417 0.958 . S
C2403 H2418 0.961 . S
C2403 H2419 0.960 . S
H2404 C2388 0.931 . S
H2405 C2393 0.929 . S
H2406 C2394 0.960 . S
H2407 C2394 0.962 . S
H2408 C2394 0.960 . S
H2409 C2395 0.961 1_556 S
H2410 C2395 0.961 . S
H2411 C2395 0.961 . S
H2412 C2396 0.931 . S
H2413 C2401 0.930 . S
H2414 C2402 0.956 . S
H2415 C2402 0.961 . S
H2416 C2402 0.961 . S
H2417 C2403 0.958 . S
H2418 C2403 0.961 . S
H2419 C2403 0.960 . S
C2420 C2421 1.391 . S
C2420 C2422 1.394 . S
C2420 H2436 0.931 . S
C2421 C2420 1.391 . S
C2421 C2425 1.376 . S
C2422 C2420 1.394 . S
C2422 C2423 1.369 . S
C2422 C2426 1.531 . S
C2423 C2422 1.369 . S
C2423 C2424 1.410 . S
C2423 C2431 1.503 . S
C2424 C2423 1.410 . S
C2424 C2425 1.392 . S
C2424 C2427 1.511 . S
C2425 C2421 1.376 . S
C2425 C2424 1.392 . S
C2425 H2437 0.929 . S
C2426 C2422 1.531 . S
C2426 H2438 0.960 . S
C2426 H2439 0.962 . S
C2426 H2440 0.960 . S
C2427 C2424 1.511 . S
C2427 H2441 0.961 . S
C2427 H2442 0.961 . S
C2427 H2443 0.961 . S
C2428 C2429 1.370 . S
C2428 C2430 1.363 . S
C2428 H2444 0.931 1_554 S
C2429 C2428 1.370 . S
C2429 C2433 1.408 . S
C2430 C2428 1.363 . S
C2430 C2431 1.370 . S
C2430 C2434 1.524 . S
C2431 C2423 1.503 . S
C2431 C2430 1.370 . S
C2431 C2432 1.403 . S
C2432 C2431 1.403 . S
C2432 C2433 1.404 . S
C2432 C2435 1.539 . S
C2433 C2429 1.408 . S
C2433 C2432 1.404 . S
C2433 H2445 0.930 . S
C2434 C2430 1.524 . S
C2434 H2446 0.956 . S
C2434 H2447 0.961 . S
C2434 H2448 0.971 . S
C2435 C2432 1.539 . S
C2435 H2449 0.958 . S
C2435 H2450 0.961 . S
C2435 H2451 0.960 . S
H2436 C2420 0.931 . S
H2437 C2425 0.929 . S
H2438 C2426 0.960 . S
H2439 C2426 0.962 . S
H2440 C2426 0.960 . S
H2441 C2427 0.961 . S
H2442 C2427 0.961 . S
H2443 C2427 0.961 . S
H2444 C2428 0.931 1_556 S
H2445 C2433 0.930 . S
H2446 C2434 0.956 . S
H2447 C2434 0.961 . S
H2448 C2434 0.971 . S
H2449 C2435 0.958 . S
H2450 C2435 0.961 . S
H2451 C2435 0.960 . S
C2452 C2453 1.391 . S
C2452 C2454 1.394 . S
C2452 H2468 0.931 . S
C2453 C2452 1.391 . S
C2453 C2457 1.376 . S
C2454 C2452 1.394 . S
C2454 C2455 1.369 . S
C2454 C2458 1.531 . S
C2455 C2454 1.369 . S
C2455 C2456 1.410 . S
C2455 C2463 1.503 . S
C2456 C2455 1.410 . S
C2456 C2457 1.392 . S
C2456 C2459 1.511 . S
C2457 C2453 1.376 . S
C2457 C2456 1.392 . S
C2457 H2469 0.929 . S
C2458 C2454 1.531 . S
C2458 H2470 0.960 . S
C2458 H2471 0.962 . S
C2458 H2472 0.960 . S
C2459 C2456 1.511 . S
C2459 H2473 0.961 . S
C2459 H2474 0.961 . S
C2459 H2475 0.961 . S
C2460 C2461 1.370 . S
C2460 C2462 1.363 . S
C2460 H2476 0.931 . S
C2461 C2460 1.370 . S
C2461 C2465 1.408 1_554 S
C2462 C2460 1.363 . S
C2462 C2463 1.370 . S
C2462 C2466 1.524 . S
C2463 C2455 1.503 . S
C2463 C2462 1.370 . S
C2463 C2464 1.403 . S
C2464 C2463 1.403 . S
C2464 C2465 1.404 1_554 S
C2464 C2467 1.539 1_554 S
C2465 C2461 1.408 1_556 S
C2465 C2464 1.404 1_556 S
C2465 H2477 0.930 . S
C2466 C2462 1.524 . S
C2466 H2478 0.956 . S
C2466 H2479 0.961 . S
C2466 H2480 0.961 . S
C2467 C2464 1.539 1_556 S
C2467 H2481 0.958 . S
C2467 H2482 0.961 . S
C2467 H2483 0.960 1_556 S
H2468 C2452 0.931 . S
H2469 C2457 0.929 . S
H2470 C2458 0.960 . S
H2471 C2458 0.962 . S
H2472 C2458 0.960 . S
H2473 C2459 0.961 . S
H2474 C2459 0.961 . S
H2475 C2459 0.961 . S
H2476 C2460 0.931 . S
H2477 C2465 0.930 . S
H2478 C2466 0.956 . S
H2479 C2466 0.961 . S
H2480 C2466 0.961 . S
H2481 C2467 0.958 . S
H2482 C2467 0.961 . S
H2483 C2467 0.960 1_554 S
C2484 C2485 1.391 . S
C2484 C2486 1.394 . S
C2484 H2500 0.931 . S
C2485 C2484 1.391 . S
C2485 C2489 1.376 . S
C2486 C2484 1.394 . S
C2486 C2487 1.369 . S
C2486 C2490 1.531 . S
C2487 C2486 1.369 . S
C2487 C2488 1.410 . S
C2487 C2495 1.503 . S
C2488 C2487 1.410 . S
C2488 C2489 1.392 . S
C2488 C2491 1.511 . S
C2489 C2485 1.376 . S
C2489 C2488 1.392 . S
C2489 H2501 0.929 . S
C2490 C2486 1.531 . S
C2490 H2502 0.960 . S
C2490 H2503 0.962 . S
C2490 H2504 0.960 . S
C2491 C2488 1.511 . S
C2491 H2505 0.961 . S
C2491 H2506 0.961 . S
C2491 H2507 0.961 . S
C2492 C2493 1.370 . S
C2492 C2494 1.363 . S
C2492 H2508 0.931 . S
C2493 C2492 1.370 . S
C2493 C2497 1.408 . S
C2494 C2492 1.363 . S
C2494 C2495 1.370 . S
C2494 C2498 1.524 . S
C2495 C2487 1.503 . S
C2495 C2494 1.370 . S
C2495 C2496 1.403 . S
C2496 C2495 1.403 . S
C2496 C2497 1.404 . S
C2496 C2499 1.539 . S
C2497 C2493 1.408 . S
C2497 C2496 1.404 . S
C2497 H2509 0.930 . S
C2498 C2494 1.524 . S
C2498 H2510 0.956 . S
C2498 H2511 0.961 . S
C2498 H2512 0.961 . S
C2499 C2496 1.539 . S
C2499 H2513 0.958 . S
C2499 H2514 0.961 . S
C2499 H2515 0.960 . S
H2500 C2484 0.931 . S
H2501 C2489 0.929 . S
H2502 C2490 0.960 . S
H2503 C2490 0.962 . S
H2504 C2490 0.960 . S
H2505 C2491 0.961 . S
H2506 C2491 0.961 . S
H2507 C2491 0.961 . S
H2508 C2492 0.931 . S
H2509 C2497 0.930 . S
H2510 C2498 0.956 . S
H2511 C2498 0.961 . S
H2512 C2498 0.961 . S
H2513 C2499 0.958 . S
H2514 C2499 0.961 . S
H2515 C2499 0.960 . S
C2516 C2517 1.391 . S
C2516 C2518 1.394 . S
C2516 H2532 0.931 . S
C2517 C2516 1.391 . S
C2517 C2521 1.376 . S
C2518 C2516 1.394 . S
C2518 C2519 1.369 . S
C2518 C2522 1.531 . S
C2519 C2518 1.369 . S
C2519 C2520 1.410 . S
C2519 C2527 1.503 . S
C2520 C2519 1.410 . S
C2520 C2521 1.392 . S
C2520 C2523 1.511 . S
C2521 C2517 1.376 . S
C2521 C2520 1.392 . S
C2521 H2533 0.929 . S
C2522 C2518 1.531 . S
C2522 H2534 0.960 . S
C2522 H2535 0.962 . S
C2522 H2536 0.960 . S
C2523 C2520 1.511 . S
C2523 H2537 0.961 . S
C2523 H2538 0.961 . S
C2523 H2539 0.961 . S
C2524 C2525 1.370 . S
C2524 C2526 1.363 . S
C2524 H2540 0.931 . S
C2525 C2524 1.370 . S
C2525 C2529 1.408 . S
C2526 C2524 1.363 . S
C2526 C2527 1.370 . S
C2526 C2530 1.524 . S
C2527 C2519 1.503 . S
C2527 C2526 1.370 . S
C2527 C2528 1.403 . S
C2528 C2527 1.403 . S
C2528 C2529 1.404 . S
C2528 C2531 1.539 . S
C2529 C2525 1.408 . S
C2529 C2528 1.404 . S
C2529 H2541 0.930 . S
C2530 C2526 1.524 . S
C2530 H2542 0.956 . S
C2530 H2543 0.961 . S
C2530 H2544 0.961 . S
C2531 C2528 1.539 . S
C2531 H2545 0.958 . S
C2531 H2546 0.961 . S
C2531 H2547 0.960 . S
H2532 C2516 0.931 . S
H2533 C2521 0.929 . S
H2534 C2522 0.960 . S
H2535 C2522 0.962 . S
H2536 C2522 0.960 . S
H2537 C2523 0.961 . S
H2538 C2523 0.961 . S
H2539 C2523 0.961 . S
H2540 C2524 0.931 . S
H2541 C2529 0.930 . S
H2542 C2530 0.956 . S
H2543 C2530 0.961 . S
H2544 C2530 0.961 . S
H2545 C2531 0.958 . S
H2546 C2531 0.961 . S
H2547 C2531 0.960 . S
C2548 C2549 1.391 . S
C2548 C2550 1.394 . S
C2548 H2564 0.931 . S
C2549 C2548 1.391 . S
C2549 C2553 1.376 . S
C2550 C2548 1.394 . S
C2550 C2551 1.369 . S
C2550 C2554 1.531 . S
C2551 C2550 1.369 . S
C2551 C2552 1.410 . S
C2551 C2559 1.503 . S
C2552 C2551 1.410 . S
C2552 C2553 1.392 . S
C2552 C2555 1.511 . S
C2553 C2549 1.376 . S
C2553 C2552 1.392 . S
C2553 H2565 0.929 . S
C2554 C2550 1.531 . S
C2554 H2566 0.960 . S
C2554 H2567 0.962 . S
C2554 H2568 0.960 . S
C2555 C2552 1.511 . S
C2555 H2569 0.961 . S
C2555 H2570 0.961 . S
C2555 H2571 0.961 . S
C2556 C2557 1.370 . S
C2556 C2558 1.363 . S
C2556 H2572 0.931 . S
C2557 C2556 1.370 . S
C2557 C2561 1.408 . S
C2558 C2556 1.363 . S
C2558 C2559 1.370 . S
C2558 C2562 1.524 . S
C2559 C2551 1.503 . S
C2559 C2558 1.370 . S
C2559 C2560 1.403 . S
C2560 C2559 1.403 . S
C2560 C2561 1.404 . S
C2560 C2563 1.539 . S
C2561 C2557 1.408 . S
C2561 C2560 1.404 . S
C2561 H2573 0.930 . S
C2562 C2558 1.524 . S
C2562 H2574 0.956 . S
C2562 H2575 0.961 . S
C2562 H2576 0.961 . S
C2563 C2560 1.539 . S
C2563 H2577 0.958 . S
C2563 H2578 0.961 . S
C2563 H2579 0.960 . S
H2564 C2548 0.931 . S
H2565 C2553 0.929 . S
H2566 C2554 0.960 . S
H2567 C2554 0.962 . S
H2568 C2554 0.960 . S
H2569 C2555 0.961 . S
H2570 C2555 0.961 . S
H2571 C2555 0.961 . S
H2572 C2556 0.931 . S
H2573 C2561 0.930 . S
H2574 C2562 0.956 . S
H2575 C2562 0.961 . S
H2576 C2562 0.961 . S
H2577 C2563 0.958 . S
H2578 C2563 0.961 . S
H2579 C2563 0.960 . S
C2580 C2581 1.391 . S
C2580 C2582 1.394 . S
C2580 H2596 0.931 . S
C2581 C2580 1.391 . S
C2581 C2585 1.376 . S
C2582 C2580 1.394 . S
C2582 C2583 1.369 . S
C2582 C2586 1.531 . S
C2583 C2582 1.369 . S
C2583 C2584 1.410 . S
C2583 C2591 1.503 1_655 S
C2584 C2583 1.410 . S
C2584 C2585 1.392 . S
C2584 C2587 1.511 1_655 S
C2585 C2581 1.376 . S
C2585 C2584 1.392 . S
C2585 H2597 0.929 . S
C2586 C2582 1.531 . S
C2586 H2598 0.960 . S
C2586 H2599 0.962 . S
C2586 H2600 0.960 . S
C2587 C2584 1.511 1_455 S
C2587 H2601 0.961 . S
C2587 H2602 0.961 . S
C2587 H2603 0.961 . S
C2588 C2589 1.370 . S
C2588 C2590 1.363 . S
C2588 H2604 0.931 . S
C2589 C2588 1.370 . S
C2589 C2593 1.408 . S
C2590 C2588 1.363 . S
C2590 C2591 1.370 . S
C2590 C2594 1.524 . S
C2591 C2583 1.503 1_455 S
C2591 C2590 1.370 . S
C2591 C2592 1.403 . S
C2592 C2591 1.403 . S
C2592 C2593 1.404 . S
C2592 C2595 1.539 . S
C2593 C2589 1.408 . S
C2593 C2592 1.404 . S
C2593 H2605 0.930 . S
C2594 C2590 1.524 . S
C2594 H2606 0.956 . S
C2594 H2607 0.961 . S
C2594 H2608 0.961 . S
C2595 C2592 1.539 . S
C2595 H2609 0.958 1_455 S
C2595 H2610 0.961 . S
C2595 H2611 0.960 1_455 S
H2596 C2580 0.931 . S
H2597 C2585 0.929 . S
H2598 C2586 0.960 . S
H2599 C2586 0.962 . S
H2600 C2586 0.960 . S
H2601 C2587 0.961 . S
H2602 C2587 0.961 . S
H2603 C2587 0.961 . S
H2604 C2588 0.931 . S
H2605 C2593 0.930 . S
H2606 C2594 0.956 . S
H2607 C2594 0.961 . S
H2608 C2594 0.961 . S
H2609 C2595 0.958 1_655 S
H2610 C2595 0.961 . S
H2611 C2595 0.960 1_655 S
C2612 C2613 1.391 . S
C2612 C2614 1.394 . S
C2612 H2628 0.931 . S
C2613 C2612 1.391 . S
C2613 C2617 1.376 . S
C2614 C2612 1.394 . S
C2614 C2615 1.369 . S
C2614 C2618 1.531 . S
C2615 C2614 1.369 . S
C2615 C2616 1.410 . S
C2615 C2623 1.503 . S
C2616 C2615 1.410 . S
C2616 C2617 1.392 . S
C2616 C2619 1.511 . S
C2617 C2613 1.376 . S
C2617 C2616 1.392 . S
C2617 H2629 0.929 . S
C2618 C2614 1.531 . S
C2618 H2630 0.960 . S
C2618 H2631 0.962 . S
C2618 H2632 0.960 . S
C2619 C2616 1.511 . S
C2619 H2633 0.961 . S
C2619 H2634 0.961 . S
C2619 H2635 0.961 . S
C2620 C2621 1.370 . S
C2620 C2622 1.363 . S
C2620 H2636 0.931 . S
C2621 C2620 1.370 . S
C2621 C2625 1.408 . S
C2622 C2620 1.363 . S
C2622 C2623 1.370 . S
C2622 C2626 1.524 . S
C2623 C2615 1.503 . S
C2623 C2622 1.370 . S
C2623 C2624 1.403 . S
C2624 C2623 1.403 . S
C2624 C2625 1.404 . S
C2624 C2627 1.539 . S
C2625 C2621 1.408 . S
C2625 C2624 1.404 . S
C2625 H2637 0.930 . S
C2626 C2622 1.524 . S
C2626 H2638 0.956 . S
C2626 H2639 0.961 . S
C2626 H2640 0.961 . S
C2627 C2624 1.539 . S
C2627 H2641 0.958 . S
C2627 H2642 0.961 . S
C2627 H2643 0.960 . S
H2628 C2612 0.931 . S
H2629 C2617 0.929 . S
H2630 C2618 0.960 . S
H2631 C2618 0.962 . S
H2632 C2618 0.960 . S
H2633 C2619 0.961 . S
H2634 C2619 0.961 . S
H2635 C2619 0.961 . S
H2636 C2620 0.931 . S
H2637 C2625 0.930 . S
H2638 C2626 0.956 . S
H2639 C2626 0.961 . S
H2640 C2626 0.961 . S
H2641 C2627 0.958 . S
H2642 C2627 0.961 . S
H2643 C2627 0.960 . S
C2644 C2645 1.391 . S
C2644 C2646 1.394 . S
C2644 H2660 0.931 . S
C2645 C2644 1.391 . S
C2645 C2649 1.376 . S
C2646 C2644 1.394 . S
C2646 C2647 1.369 . S
C2646 C2650 1.531 . S
C2647 C2646 1.369 . S
C2647 C2648 1.410 . S
C2647 C2655 1.503 1_565 S
C2648 C2647 1.410 . S
C2648 C2649 1.392 . S
C2648 C2651 1.511 1_565 S
C2649 C2645 1.376 . S
C2649 C2648 1.392 . S
C2649 H2661 0.929 . S
C2650 C2646 1.531 . S
C2650 H2662 0.960 . S
C2650 H2663 0.962 . S
C2650 H2664 0.960 . S
C2651 C2648 1.511 1_545 S
C2651 H2665 0.961 . S
C2651 H2666 0.961 . S
C2651 H2667 0.961 . S
C2652 C2653 1.370 . S
C2652 C2654 1.363 . S
C2652 H2668 0.931 . S
C2653 C2652 1.370 . S
C2653 C2657 1.408 . S
C2654 C2652 1.363 . S
C2654 C2655 1.370 . S
C2654 C2658 1.524 . S
C2655 C2647 1.503 1_545 S
C2655 C2654 1.370 . S
C2655 C2656 1.403 . S
C2656 C2655 1.403 . S
C2656 C2657 1.404 . S
C2656 C2659 1.539 . S
C2657 C2653 1.408 . S
C2657 C2656 1.404 . S
C2657 H2669 0.930 . S
C2658 C2654 1.524 . S
C2658 H2670 0.954 1_545 S
C2658 H2671 0.961 . S
C2658 H2672 0.961 . S
C2659 C2656 1.539 . S
C2659 H2673 0.958 1_545 S
C2659 H2674 0.961 . S
C2659 H2675 0.960 1_545 S
H2660 C2644 0.931 . S
H2661 C2649 0.929 . S
H2662 C2650 0.960 . S
H2663 C2650 0.962 . S
H2664 C2650 0.960 . S
H2665 C2651 0.961 . S
H2666 C2651 0.961 . S
H2667 C2651 0.961 . S
H2668 C2652 0.931 . S
H2669 C2657 0.930 . S
H2670 C2658 0.954 1_565 S
H2671 C2658 0.961 . S
H2672 C2658 0.961 . S
H2673 C2659 0.958 1_565 S
H2674 C2659 0.961 . S
H2675 C2659 0.960 1_565 S
C2676 C2677 1.391 . S
C2676 C2678 1.394 . S
C2676 H2692 0.931 . S
C2677 C2676 1.391 . S
C2677 C2681 1.376 . S
C2678 C2676 1.394 . S
C2678 C2679 1.369 . S
C2678 C2682 1.531 . S
C2679 C2678 1.369 . S
C2679 C2680 1.410 . S
C2679 C2687 1.503 1_545 S
C2680 C2679 1.410 . S
C2680 C2681 1.392 . S
C2680 C2683 1.511 1_545 S
C2681 C2677 1.376 . S
C2681 C2680 1.392 . S
C2681 H2693 0.929 . S
C2682 C2678 1.531 . S
C2682 H2694 0.960 . S
C2682 H2695 0.962 . S
C2682 H2696 0.960 . S
C2683 C2680 1.511 1_565 S
C2683 H2697 0.961 1_565 S
C2683 H2698 0.961 . S
C2683 H2699 0.961 . S
C2684 C2685 1.370 . S
C2684 C2686 1.363 . S
C2684 H2700 0.931 . S
C2685 C2684 1.370 . S
C2685 C2689 1.408 . S
C2686 C2684 1.363 . S
C2686 C2687 1.370 . S
C2686 C2690 1.524 1_565 S
C2687 C2679 1.503 1_565 S
C2687 C2686 1.370 . S
C2687 C2688 1.403 . S
C2688 C2687 1.403 . S
C2688 C2689 1.404 . S
C2688 C2691 1.539 . S
C2689 C2685 1.408 . S
C2689 C2688 1.404 . S
C2689 H2701 0.930 . S
C2690 C2686 1.524 1_545 S
C2690 H2702 0.956 . S
C2690 H2703 0.961 . S
C2690 H2704 0.961 . S
C2691 C2688 1.539 . S
C2691 H2705 0.958 . S
C2691 H2706 0.961 . S
C2691 H2707 0.960 . S
H2692 C2676 0.931 . S
H2693 C2681 0.929 . S
H2694 C2682 0.960 . S
H2695 C2682 0.962 . S
H2696 C2682 0.960 . S
H2697 C2683 0.961 1_545 S
H2698 C2683 0.961 . S
H2699 C2683 0.961 . S
H2700 C2684 0.931 . S
H2701 C2689 0.930 . S
H2702 C2690 0.956 . S
H2703 C2690 0.961 . S
H2704 C2690 0.961 . S
H2705 C2691 0.958 . S
H2706 C2691 0.961 . S
H2707 C2691 0.960 . S
C2708 C2709 1.391 . S
C2708 C2710 1.394 . S
C2708 H2724 0.931 . S
C2709 C2708 1.391 . S
C2709 C2713 1.376 . S
C2710 C2708 1.394 . S
C2710 C2711 1.369 . S
C2710 C2714 1.531 1_455 S
C2711 C2710 1.369 . S
C2711 C2712 1.410 . S
C2711 C2719 1.503 1_455 S
C2712 C2711 1.410 . S
C2712 C2713 1.392 . S
C2712 C2715 1.511 . S
C2713 C2709 1.376 . S
C2713 C2712 1.392 . S
C2713 H2725 0.929 . S
C2714 C2710 1.531 1_655 S
C2714 H2726 0.960 . S
C2714 H2727 0.962 . S
C2714 H2728 0.960 . S
C2715 C2712 1.511 . S
C2715 H2729 0.961 . S
C2715 H2730 0.961 . S
C2715 H2731 0.961 . S
C2716 C2717 1.370 . S
C2716 C2718 1.363 . S
C2716 H2732 0.931 . S
C2717 C2716 1.370 . S
C2717 C2721 1.408 . S
C2718 C2716 1.363 . S
C2718 C2719 1.370 . S
C2718 C2722 1.524 1_655 S
C2719 C2711 1.503 1_655 S
C2719 C2718 1.370 . S
C2719 C2720 1.403 . S
C2720 C2719 1.403 . S
C2720 C2721 1.404 . S
C2720 C2723 1.539 . S
C2721 C2717 1.408 . S
C2721 C2720 1.404 . S
C2721 H2733 0.930 . S
C2722 C2718 1.524 1_455 S
C2722 H2734 0.956 . S
C2722 H2735 0.961 . S
C2722 H2736 0.961 . S
C2723 C2720 1.539 . S
C2723 H2737 0.958 . S
C2723 H2738 0.961 . S
C2723 H2739 0.960 . S
H2724 C2708 0.931 . S
H2725 C2713 0.929 . S
H2726 C2714 0.960 . S
H2727 C2714 0.962 . S
H2728 C2714 0.960 . S
H2729 C2715 0.961 . S
H2730 C2715 0.961 . S
H2731 C2715 0.961 . S
H2732 C2716 0.931 . S
H2733 C2721 0.930 . S
H2734 C2722 0.956 . S
H2735 C2722 0.961 . S
H2736 C2722 0.961 . S
H2737 C2723 0.958 . S
H2738 C2723 0.961 . S
H2739 C2723 0.960 . S
C2740 C2741 1.391 . S
C2740 C2742 1.394 . S
C2740 H2756 0.931 . S
C2741 C2740 1.391 . S
C2741 C2745 1.376 . S
C2742 C2740 1.394 . S
C2742 C2743 1.369 . S
C2742 C2746 1.531 . S
C2743 C2742 1.369 . S
C2743 C2744 1.410 . S
C2743 C2751 1.503 . S
C2744 C2743 1.410 . S
C2744 C2745 1.392 . S
C2744 C2747 1.511 . S
C2745 C2741 1.376 . S
C2745 C2744 1.392 . S
C2745 H2757 0.929 . S
C2746 C2742 1.531 . S
C2746 H2758 0.960 . S
C2746 H2759 0.962 . S
C2746 H2760 0.960 . S
C2747 C2744 1.511 . S
C2747 H2761 0.961 . S
C2747 H2762 0.961 . S
C2747 H2763 0.961 . S
C2748 C2749 1.370 . S
C2748 C2750 1.363 . S
C2748 H2764 0.931 . S
C2749 C2748 1.370 . S
C2749 C2753 1.408 . S
C2750 C2748 1.363 . S
C2750 C2751 1.370 . S
C2750 C2754 1.524 . S
C2751 C2743 1.503 . S
C2751 C2750 1.370 . S
C2751 C2752 1.403 . S
C2752 C2751 1.403 . S
C2752 C2753 1.404 . S
C2752 C2755 1.539 . S
C2753 C2749 1.408 . S
C2753 C2752 1.404 . S
C2753 H2765 0.930 . S
C2754 C2750 1.524 . S
C2754 H2766 0.956 . S
C2754 H2767 0.961 . S
C2754 H2768 0.961 . S
C2755 C2752 1.539 . S
C2755 H2769 0.958 . S
C2755 H2770 0.961 . S
C2755 H2771 0.960 . S
H2756 C2740 0.931 . S
H2757 C2745 0.929 . S
H2758 C2746 0.960 . S
H2759 C2746 0.962 . S
H2760 C2746 0.960 . S
H2761 C2747 0.961 . S
H2762 C2747 0.961 . S
H2763 C2747 0.961 . S
H2764 C2748 0.931 . S
H2765 C2753 0.930 . S
H2766 C2754 0.956 . S
H2767 C2754 0.961 . S
H2768 C2754 0.961 . S
H2769 C2755 0.958 . S
H2770 C2755 0.961 . S
H2771 C2755 0.960 . S
C469 C75 1.114 . S
C477 C4 1.144 . S
C501 C17 1.120 . S
C509 C49 1.140 . S
C533 C62 1.133 . S
C541 C36 1.145 . S
C565 C82 1.143 . S
C573 C147 1.139 . S
C597 C95 1.123 . S
C605 C121 1.141 . S
C629 C134 1.116 . S
C637 C114 1.145 . S
C661 C225 1.116 . S
C669 C160 1.143 . S
C693 C179 1.154 . S
C701 C205 1.137 . S
C725 C218 1.123 . S
C733 C192 1.138 . S
C757 C238 1.121 . S
C765 C309 1.147 . S
C789 C257 1.149 . S
C797 C277 1.137 . S
C821 C264 1.113 . S
C829 C290 1.148 . S
C853 C316 1.114 . S
C861 C387 1.143 . S
C885 C361 1.159 . S
C893 C329 1.133 . S
C917 C342 1.112 . S
C925 C374 1.146 . S
C949 C400 1.151 . S
C957 C465 1.131 . S
C981 C407 1.114 . S
C989 C439 1.148 . S
C1013 C420 1.128 . S
C1021 C452 1.145 . S
C1045 C140 1.384 . S
C1053 C5 1.379 . S
C1077 C153 1.386 . S
C1085 C18 1.376 . S
C1109 C127 1.381 . S
C1117 C29 1.375 . S
C1141 C108 1.383 . S
C1149 C42 1.374 . S
C1173 C55 1.396 . S
C1181 C88 1.397 . S
C1205 C68 1.397 . S
C1213 C101 1.397 . S
C1237 C83 1.372 . S
C1245 C56 1.394 . S
C1269 C96 1.384 . S
C1277 C69 1.396 . S
C1301 C107 1.366 . S
C1309 C43 1.389 . S
C1333 C30 1.392 . S
C1341 C122 1.379 . S
C1365 C10 1.392 . S
C1373 C135 1.378 . S
C1397 C148 1.396 . S
C1405 C23 1.396 . S
C1429 C161 1.359 . S
C1437 C296 1.389 . S
C1461 C172 1.374 . S
C1469 C303 1.393 . S
C1493 C283 1.394 . S
C1501 C185 1.388 . S
C1525 C198 1.359 . S
C1533 C270 1.389 . S
C1557 C211 1.364 . S
C1565 C244 1.390 . S
C1589 C226 1.360 . S
C1597 C251 1.389 . S
C1621 C239 1.369 . S
C1629 C212 1.393 . S
C1653 C231 1.391 . S
C1661 C250 1.377 . S
C1685 C199 1.385 . S
C1693 C265 1.383 . S
C1717 C278 1.394 . S
C1725 C186 1.394 . S
C1749 C166 1.391 . S
C1757 C291 1.378 . S
C1781 C173 1.398 . S
C1789 C302 1.388 . S
C1813 C446 1.380 . S
C1821 C317 1.374 . S
C1845 C330 1.360 . S
C1853 C459 1.390 . S
C1877 C343 1.363 . S
C1885 C433 1.390 . S
C1909 C426 1.383 . S
C1917 C354 1.374 . S
C1941 C394 1.397 . S
C1949 C367 1.389 . S
C1973 C413 1.398 . S
C1981 C380 1.389 . S
C2005 C393 1.373 . S
C2013 C368 1.394 . S
C2037 C381 1.396 . S
C2045 C408 1.389 . S
C2069 C421 1.359 . S
C2077 C355 1.391 . S
C2101 C348 1.382 . S
C2109 C432 1.373 . S
C2133 C322 1.391 . S
C2141 C445 1.377 . S
C2165 C335 1.385 . S
C2173 C458 1.374 . S
C2197 C213 1.379 . S
C2205 C3 1.388 1_556 S
C2229 C16 1.378 1_556 S
C2237 C224 1.387 . S
C2261 C200 1.406 . S
C2269 C31 1.399 1_556 S
C2293 C341 1.390 . S
C2301 C44 1.392 . S
C2325 C57 1.368 . S
C2333 C315 1.383 . S
C2357 C70 1.393 . S
C2365 C328 1.394 . S
C2389 C81 1.402 1_554 S
C2397 C447 1.399 . S
C2421 C460 1.372 . S
C2429 C94 1.384 1_554 S
C2453 C434 1.394 . S
C2461 C109 1.396 1_554 S
C2485 C263 1.398 . S
C2493 C120 1.398 . S
C2517 C133 1.368 . S
C2525 C237 1.384 . S
C2549 C146 1.380 . S
C2557 C252 1.391 . S
C2581 C159 1.369 . S
C2589 C369 1.384 . S
C2613 C382 1.376 . S
C2621 C174 1.386 . S
C2645 C356 1.369 . S
C2653 C187 1.383 . S
C2677 C276 1.400 . S
C2685 C419 1.394 . S
C2709 C395 1.376 . S
C2717 C289 1.384 . S
C2741 C406 1.401 . S
C2749 C304 1.395 . S
