# Generated by pormake.
# Topology xfu, (5)-cn, num edge types: 1
# Building blocks:
#     Node 0, Type 0, BuildingBlock: BEQFEK_clean_sbu_0, # of connection points: 5
#     Node 1, Type 0, BuildingBlock: BEQFEK_clean_sbu_0, # of connection points: 5
#     Node 2, Type 0, BuildingBlock: BEQFEK_clean_sbu_0, # of connection points: 5
#     Node 3, Type 0, BuildingBlock: BEQFEK_clean_sbu_0, # of connection points: 5
#     Node 4, Type 0, BuildingBlock: BEQFEK_clean_sbu_0, # of connection points: 5
#     Node 5, Type 0, BuildingBlock: BEQFEK_clean_sbu_0, # of connection points: 5
#     Node 6, Type 0, BuildingBlock: BEQFEK_clean_sbu_0, # of connection points: 5
#     Node 7, Type 0, BuildingBlock: BEQFEK_clean_sbu_0, # of connection points: 5
#     Edge 8, Type (0, 0), BuildingBlock: MIFKUJ_clean_linker_0, # of connection points: 2
#     Edge 9, Type (0, 0), BuildingBlock: MIFKUJ_clean_linker_0, # of connection points: 2
#     Edge 10, Type (0, 0), BuildingBlock: MIFKUJ_clean_linker_0, # of connection points: 2
#     Edge 11, Type (0, 0), BuildingBlock: MIFKUJ_clean_linker_0, # of connection points: 2
#     Edge 12, Type (0, 0), BuildingBlock: MIFKUJ_clean_linker_0, # of connection points: 2
#     Edge 13, Type (0, 0), BuildingBlock: MIFKUJ_clean_linker_0, # of connection points: 2
#     Edge 14, Type (0, 0), BuildingBlock: MIFKUJ_clean_linker_0, # of connection points: 2
#     Edge 15, Type (0, 0), BuildingBlock: MIFKUJ_clean_linker_0, # of connection points: 2
#     Edge 16, Type (0, 0), BuildingBlock: MIFKUJ_clean_linker_0, # of connection points: 2
#     Edge 17, Type (0, 0), BuildingBlock: MIFKUJ_clean_linker_0, # of connection points: 2
#     Edge 18, Type (0, 0), BuildingBlock: MIFKUJ_clean_linker_0, # of connection points: 2
#     Edge 19, Type (0, 0), BuildingBlock: MIFKUJ_clean_linker_0, # of connection points: 2
#     Edge 20, Type (0, 0), BuildingBlock: MIFKUJ_clean_linker_0, # of connection points: 2
#     Edge 21, Type (0, 0), BuildingBlock: MIFKUJ_clean_linker_0, # of connection points: 2
#     Edge 22, Type (0, 0), BuildingBlock: MIFKUJ_clean_linker_0, # of connection points: 2
#     Edge 23, Type (0, 0), BuildingBlock: MIFKUJ_clean_linker_0, # of connection points: 2
#     Edge 24, Type (0, 0), BuildingBlock: MIFKUJ_clean_linker_0, # of connection points: 2
#     Edge 25, Type (0, 0), BuildingBlock: MIFKUJ_clean_linker_0, # of connection points: 2
#     Edge 26, Type (0, 0), BuildingBlock: MIFKUJ_clean_linker_0, # of connection points: 2
#     Edge 27, Type (0, 0), BuildingBlock: MIFKUJ_clean_linker_0, # of connection points: 2
# Relax obj value: 0.269
# Max RMSD: 0.175
# Mean RMSD: 0.175
data_MOF--net-xfu--node1-BEQFEK_clean_sbu_0--edge1-MIFKUJ_clean_linker_0
_symmetry_space_group_name_H-M    P1
_symmetry_Int_Tables_number       1
_symmetry_cell_setting            triclinic
loop_
_symmetry_equiv_pos_as_xyz
'x, y, z'
_cell_length_a     38.245154
_cell_length_b     38.263155
_cell_length_c     69.133832
_cell_angle_alpha  90.026079
_cell_angle_beta   89.907683
_cell_angle_gamma 89.988554
loop_
_atom_site_label
_atom_site_type_symbol
_atom_site_fract_x
_atom_site_fract_y
_atom_site_fract_z
_atom_type_partial_charge
Co0 Co 0.05769 0.25413 0.65025 0.0
Co1 Co 0.06983 0.18049 0.63206 0.0
C2 C 0.12297 0.23711 0.62805 0.0
O3 O 0.10406 0.25785 0.63794 0.0
O4 O 0.11299 0.20603 0.62442 0.0
C5 C 0.05828 0.32888 0.65392 0.0
O6 O 0.07972 0.32772 0.63908 0.0
C7 C 0.07864 0.1287 0.60164 0.0
C8 C 0.06065 0.08026 0.61594 0.0
C9 C 0.07271 0.09338 0.59847 0.0
N10 N 0.07042 0.136 0.62006 0.0
N11 N 0.06025 0.10688 0.62866 0.0
C12 C 0.08816 0.15604 0.58705 0.0
H13 H 0.0807 0.1824 0.59233 0.0
H14 H 0.07504 0.15082 0.57303 0.0
H15 H 0.11686 0.15557 0.58468 0.0
C16 C 0.99414 0.25063 0.62661 0.0
N17 N 0.02456 0.23697 0.63261 0.0
N18 N 0.02877 0.20574 0.62498 0.0
C19 C 0.00063 0.19834 0.61392 0.0
C20 C 0.97798 0.22674 0.61444 0.0
C21 C 0.97969 0.28448 0.63402 0.0
H22 H 0.9804 0.28449 0.65006 0.0
H23 H 0.99642 0.30627 0.62888 0.0
H24 H 0.95246 0.28905 0.62925 0.0
O25 O 0.06065 0.2237 0.67326 0.0
O26 O 0.0707 0.17172 0.66025 0.0
H27 H -0.00062 0.14236 0.61322 0.0
H28 H 0.96899 0.16298 0.5967 0.0
C29 C 0.99537 0.16469 0.60325 0.0
H30 H 0.01488 0.16277 0.59146 0.0
H31 H 0.05186 0.10545 0.64301 0.0
O32 O 0.04473 0.30074 0.66015 0.0
C33 C 0.0664 0.19112 0.67501 0.0
Co34 Co 0.83164 0.55405 0.16133 0.0
Co35 Co 0.89913 0.55913 0.1358 0.0
C36 C 0.84263 0.61256 0.13305 0.0
O37 O 0.82452 0.59651 0.14569 0.0
O38 O 0.87264 0.6015 0.12787 0.0
C39 C 0.75797 0.55356 0.17016 0.0
O40 O 0.75431 0.56544 0.15245 0.0
C41 C 0.9427 0.56179 0.10099 0.0
C42 C 0.99153 0.53702 0.11121 0.0
C43 C 0.97566 0.55109 0.09499 0.0
N44 N 0.93931 0.55424 0.11987 0.0
N45 N 0.96873 0.53991 0.12597 0.0
C46 C 0.91348 0.57536 0.08872 0.0
H47 H 0.88783 0.56913 0.0954 0.0
H48 H 0.91465 0.56399 0.07396 0.0
H49 H 0.91581 0.60419 0.08754 0.0
C50 C 0.82676 0.4855 0.14215 0.0
N51 N 0.84282 0.51625 0.14512 0.0
N52 N 0.87074 0.51826 0.13402 0.0
C53 C 0.87318 0.48868 0.12346 0.0
C54 C 0.84527 0.4671 0.12821 0.0
C55 C 0.79555 0.47332 0.15337 0.0
H56 H 0.7983 0.48092 0.16877 0.0
H57 H 0.77177 0.48612 0.14753 0.0
H58 H 0.79231 0.44456 0.15249 0.0
O59 O 0.86893 0.56167 0.18051 0.0
O60 O 0.91678 0.56546 0.1625 0.0
H61 H 0.92686 0.48181 0.11559 0.0
H62 H 0.89676 0.45674 0.10095 0.0
C63 C 0.90082 0.4819 0.10857 0.0
H64 H 0.9004 0.50308 0.09769 0.0
H65 H 0.97281 0.53109 0.14006 0.0
O66 O 0.78832 0.5459 0.1763 0.0
C67 C 0.90181 0.56579 0.17895 0.0
Co68 Co 0.54112 0.31548 0.66084 0.0
Co69 Co 0.53863 0.38118 0.63397 0.0
C70 C 0.48077 0.33044 0.63357 0.0
O71 O 0.49649 0.31295 0.64656 0.0
O72 O 0.49404 0.35827 0.62664 0.0
C73 C 0.53308 0.24276 0.66746 0.0
O74 O 0.52001 0.24351 0.6499 0.0
C75 C 0.53598 0.42684 0.5999 0.0
C76 C 0.56755 0.47187 0.6097 0.0
C77 C 0.549 0.45904 0.59403 0.0
N78 N 0.54638 0.42107 0.61817 0.0
N79 N 0.56498 0.44819 0.624 0.0
C80 C 0.51695 0.40036 0.58792 0.0
H81 H 0.5221 0.37361 0.59339 0.0
H82 H 0.52504 0.40201 0.57252 0.0
H83 H 0.48843 0.40539 0.58891 0.0
C84 C 0.60816 0.30496 0.64067 0.0
N85 N 0.57848 0.32296 0.64372 0.0
N86 N 0.5771 0.34965 0.63177 0.0
C87 C 0.60571 0.34902 0.62034 0.0
C88 C 0.62639 0.32067 0.62562 0.0
C89 C 0.61973 0.27494 0.65299 0.0
H90 H 0.61106 0.27898 0.66814 0.0
H91 H 0.60758 0.25055 0.64751 0.0
H92 H 0.64858 0.27195 0.65275 0.0
O93 O 0.53789 0.35314 0.68013 0.0
O94 O 0.53353 0.39924 0.66085 0.0
H95 H 0.61885 0.40008 0.61011 0.0
H96 H 0.63347 0.36508 0.59442 0.0
C97 C 0.61212 0.37406 0.60409 0.0
H98 H 0.58804 0.37677 0.59537 0.0
H99 H 0.57646 0.4502 0.63763 0.0
O100 O 0.54548 0.27063 0.67473 0.0
C101 C 0.534 0.38586 0.67772 0.0
Co102 Co 0.75906 0.02432 0.15634 0.0
Co103 Co 0.6945 0.02318 0.1287 0.0
C104 C 0.74464 0.96485 0.12838 0.0
O105 O 0.76191 0.97983 0.14175 0.0
O106 O 0.71734 0.97882 0.12127 0.0
C107 C 0.83162 0.01588 0.16467 0.0
O108 O 0.83208 0.00017 0.14777 0.0
C109 C 0.65023 0.02172 0.09421 0.0
C110 C 0.60544 0.05417 0.10359 0.0
C111 C 0.61864 0.03556 0.08802 0.0
N112 N 0.65537 0.03171 0.1126 0.0
N113 N 0.62839 0.0508 0.1182 0.0
C114 C 0.67687 0.00247 0.08241 0.0
H115 H 0.70353 0.00745 0.08806 0.0
H116 H 0.67567 0.01049 0.067 0.0
H117 H 0.6716 0.97401 0.08336 0.0
C118 C 0.77009 0.09232 0.13728 0.0
N119 N 0.75243 0.06222 0.13948 0.0
N120 N 0.72632 0.06124 0.12715 0.0
C121 C 0.72713 0.09043 0.11624 0.0
C122 C 0.75484 0.11118 0.12234 0.0
C123 C 0.79869 0.104 0.15057 0.0
H124 H 0.79364 0.09435 0.16544 0.0
H125 H 0.8239 0.09289 0.14551 0.0
H126 H 0.80084 0.1329 0.15099 0.0
O127 O 0.72051 0.02107 0.17516 0.0
O128 O 0.67523 0.01777 0.15524 0.0
H129 H 0.6764 0.10435 0.10582 0.0
H130 H 0.71194 0.1194 0.09065 0.0
C131 C 0.70254 0.09767 0.09991 0.0
H132 H 0.69994 0.07403 0.09081 0.0
H133 H 0.62604 0.06216 0.13186 0.0
O134 O 0.80322 0.02904 0.17087 0.0
C135 C 0.68785 0.0177 0.17228 0.0
Co136 Co 0.0193 0.8233 0.3442 0.0
Co137 Co 0.0124 0.89305 0.36728 0.0
C138 C 0.95579 0.83996 0.36833 0.0
O139 O 0.97307 0.8207 0.35676 0.0
O140 O 0.96794 0.86908 0.3742 0.0
C141 C 0.01482 0.74931 0.33851 0.0
O142 O 0.99519 0.75023 0.35411 0.0
C143 C 0.00917 0.93956 0.40057 0.0
C144 C 0.03159 0.98833 0.38871 0.0
C145 C 0.01911 0.97325 0.4056 0.0
N146 N 0.01578 0.935 0.38168 0.0
N147 N 0.02854 0.96439 0.37456 0.0
C148 C 0.99747 0.91072 0.41371 0.0
H149 H 0.00202 0.88488 0.40687 0.0
H150 H 0.01156 0.91194 0.42772 0.0
H151 H 0.96906 0.91358 0.41658 0.0
C152 C 0.08471 0.81884 0.36629 0.0
N153 N 0.05437 0.83482 0.36214 0.0
N154 N 0.05204 0.86411 0.37203 0.0
C155 C 0.08116 0.86772 0.38288 0.0
C156 C 0.10262 0.83897 0.3797 0.0
C157 C 0.09768 0.78697 0.35592 0.0
H158 H 0.09282 0.78974 0.34018 0.0
H159 H 0.08297 0.76382 0.36113 0.0
H160 H 0.12602 0.78261 0.35821 0.0
O161 O 0.01754 0.858 0.32314 0.0
O162 O 0.01095 0.90716 0.33974 0.0
H163 H 0.08647 0.92283 0.38748 0.0
H164 H 0.1147 0.8965 0.40261 0.0
C165 C 0.08851 0.8982 0.39584 0.0
H166 H 0.06884 0.89885 0.40758 0.0
H167 H 0.03651 0.96763 0.36023 0.0
O168 O 0.02841 0.77739 0.3322 0.0
C169 C 0.01363 0.891 0.32371 0.0
Co170 Co 0.24351 0.51156 0.83375 0.0
Co171 Co 0.17541 0.51154 0.85898 0.0
C172 C 0.22859 0.45507 0.86276 0.0
O173 O 0.24793 0.4693 0.85 0.0
O174 O 0.19932 0.46834 0.86759 0.0
C175 C 0.31725 0.50741 0.82561 0.0
O176 O 0.31938 0.49479 0.84324 0.0
C177 C 0.13154 0.51222 0.89366 0.0
C178 C 0.08408 0.5392 0.8832 0.0
C179 C 0.09913 0.52467 0.89954 0.0
N180 N 0.13541 0.5192 0.87475 0.0
N181 N 0.1068 0.5349 0.8685 0.0
C182 C 0.16006 0.49755 0.90607 0.0
H183 H 0.186 0.5027 0.89946 0.0
H184 H 0.15923 0.50909 0.92079 0.0
H185 H 0.15656 0.46885 0.90729 0.0
C186 C 0.25092 0.58139 0.8513 0.0
N187 N 0.23396 0.55086 0.84923 0.0
N188 N 0.20599 0.55076 0.86033 0.0
C189 C 0.20459 0.58121 0.87015 0.0
C190 C 0.23302 0.6016 0.86474 0.0
C191 C 0.28188 0.59186 0.83935 0.0
H192 H 0.27852 0.58253 0.82428 0.0
H193 H 0.30571 0.57947 0.84539 0.0
H194 H 0.28546 0.62062 0.83914 0.0
O195 O 0.20618 0.5051 0.81444 0.0
O196 O 0.15791 0.50488 0.83226 0.0
H197 H 0.15147 0.59231 0.87769 0.0
H198 H 0.1832 0.61463 0.89266 0.0
C199 C 0.17725 0.59001 0.88489 0.0
H200 H 0.17571 0.56876 0.89569 0.0
H201 H 0.10323 0.5436 0.85434 0.0
O202 O 0.28769 0.51699 0.81913 0.0
C203 C 0.17309 0.50289 0.8159 0.0
Co204 Co 0.54303 0.75109 0.33488 0.0
Co205 Co 0.54575 0.68752 0.36324 0.0
C206 C 0.60358 0.7384 0.36236 0.0
O207 O 0.58814 0.75493 0.34886 0.0
O208 O 0.59 0.71134 0.37001 0.0
C209 C 0.54963 0.82344 0.32557 0.0
O210 O 0.56374 0.82531 0.34285 0.0
C211 C 0.54857 0.64407 0.39828 0.0
C212 C 0.51656 0.59873 0.38939 0.0
C213 C 0.53525 0.61239 0.40478 0.0
N214 N 0.53813 0.64877 0.37991 0.0
N215 N 0.5193 0.62146 0.37463 0.0
C216 C 0.56788 0.67109 0.40973 0.0
H217 H 0.56313 0.69752 0.4037 0.0
H218 H 0.55967 0.6706 0.42513 0.0
H219 H 0.59633 0.6656 0.40891 0.0
C220 C 0.47583 0.76273 0.35495 0.0
N221 N 0.50576 0.74489 0.35232 0.0
N222 N 0.50738 0.71914 0.36488 0.0
C223 C 0.47887 0.72041 0.37635 0.0
C224 C 0.4578 0.74802 0.3704 0.0
C225 C 0.46364 0.79126 0.34175 0.0
H226 H 0.47258 0.78606 0.32676 0.0
H227 H 0.47508 0.81645 0.34657 0.0
H228 H 0.43472 0.7935 0.34181 0.0
O229 O 0.54559 0.712 0.31654 0.0
O230 O 0.55047 0.66731 0.33676 0.0
H231 H 0.46587 0.67025 0.38794 0.0
H232 H 0.45189 0.70654 0.40289 0.0
C233 C 0.47289 0.69669 0.39325 0.0
H234 H 0.49721 0.69461 0.4018 0.0
H235 H 0.50772 0.61869 0.36106 0.0
O236 O 0.53778 0.79435 0.31962 0.0
C237 C 0.54942 0.67947 0.31962 0.0
Co238 Co 0.3102 0.05272 0.84025 0.0
Co239 Co 0.37958 0.04881 0.86407 0.0
C240 C 0.33025 0.10715 0.86988 0.0
O241 O 0.30974 0.094 0.85737 0.0
O242 O 0.35938 0.09298 0.87403 0.0
C243 C 0.23663 0.06322 0.83551 0.0
O244 O 0.23829 0.07443 0.85345 0.0
C245 C 0.4291 0.04588 0.89619 0.0
C246 C 0.47197 0.01431 0.88365 0.0
C247 C 0.46151 0.03145 0.90033 0.0
N248 N 0.4209 0.03773 0.87787 0.0
N249 N 0.4467 0.0191 0.87039 0.0
C250 C 0.40467 0.0641 0.9098 0.0
H251 H 0.37714 0.05931 0.90552 0.0
H252 H 0.40865 0.05504 0.92488 0.0
H253 H 0.40962 0.09265 0.90916 0.0
C254 C 0.30094 0.98236 0.85692 0.0
N255 N 0.3188 0.0124 0.85496 0.0
N256 N 0.34708 0.01126 0.86575 0.0
C257 C 0.34775 0.98056 0.87528 0.0
C258 C 0.31859 0.96117 0.86996 0.0
C259 C 0.26945 0.97316 0.84512 0.0
H260 H 0.27175 0.98465 0.83045 0.0
H261 H 0.24583 0.98423 0.85217 0.0
H262 H 0.26626 0.94445 0.84377 0.0
O263 O 0.34602 0.05849 0.81979 0.0
O264 O 0.39471 0.05618 0.83708 0.0
H265 H 0.40002 0.96452 0.88165 0.0
H266 H 0.36755 0.94715 0.89809 0.0
C267 C 0.37539 0.97035 0.8895 0.0
H268 H 0.38027 0.9923 0.89957 0.0
H269 H 0.44676 0.00917 0.85633 0.0
O270 O 0.26405 0.05128 0.82745 0.0
C271 C 0.37922 0.05952 0.82093 0.0
H272 H 0.07235 0.01327 0.41891 0.0
H273 H 0.08226 0.03277 0.45212 0.0
H274 H 0.98461 0.98594 0.46966 0.0
H275 H 0.97401 0.96732 0.43629 0.0
H276 H 0.99551 0.04959 0.48668 0.0
H277 H 0.05916 0.94295 0.47668 0.0
H278 H 0.10047 0.90412 0.45966 0.0
H279 H 0.18409 0.97628 0.47061 0.0
H280 H 0.14311 0.01592 0.48739 0.0
H281 H 0.02436 0.0465 0.58638 0.0
H282 H 0.01758 0.02261 0.55381 0.0
H283 H 0.11227 0.07461 0.53585 0.0
H284 H 0.11969 0.09793 0.5686 0.0
H285 H 0.10334 0.00763 0.51921 0.0
H286 H 0.03952 0.11466 0.52856 0.0
H287 H 0.99847 0.1532 0.54595 0.0
H288 H 0.91524 0.08002 0.53616 0.0
H289 H 0.95603 0.04063 0.51907 0.0
C290 C 0.05275 0.00757 0.42979 0.0
C291 C 0.02283 0.98802 0.42518 0.0
C292 C 0.05857 0.0185 0.44875 0.0
C293 C 0.03455 0.01004 0.46336 0.0
C294 C 0.00365 0.9923 0.45858 0.0
C295 C 0.99782 0.98137 0.4396 0.0
C296 C 0.04229 0.01866 0.48373 0.0
C297 C 0.01883 0.04006 0.49387 0.0
C298 C 0.07312 0.00667 0.49292 0.0
C299 C 0.09797 0.98258 0.48314 0.0
C300 C 0.0863 0.95067 0.47535 0.0
C301 C 0.10966 0.92851 0.46575 0.0
C302 C 0.14486 0.93777 0.46402 0.0
C303 C 0.1568 0.96917 0.47194 0.0
C304 C 0.13351 0.9915 0.4815 0.0
C305 C 0.04414 0.05222 0.57561 0.0
C306 C 0.07201 0.07486 0.57979 0.0
C307 C 0.04017 0.03866 0.55703 0.0
C308 C 0.06405 0.0475 0.54242 0.0
C309 C 0.09342 0.06783 0.54694 0.0
C310 C 0.09738 0.08146 0.56554 0.0
C311 C 0.05649 0.0384 0.52211 0.0
C312 C 0.08 0.01703 0.51199 0.0
C313 C 0.02573 0.05042 0.51291 0.0
C314 C 0.00092 0.07453 0.5227 0.0
C315 C 0.01252 0.10667 0.53022 0.0
C316 C 0.98931 0.12867 0.54003 0.0
C317 C 0.95428 0.11904 0.54219 0.0
C318 C 0.94239 0.08743 0.53449 0.0
C319 C 0.96555 0.06524 0.52475 0.0
H320 H 0.93635 0.13609 0.5498 0.0
H321 H 0.16289 0.92058 0.45657 0.0
H322 H 0.0128 0.49864 0.07848 0.0
H323 H 0.03418 0.49508 0.04521 0.0
H324 H 0.99278 0.59793 0.03368 0.0
H325 H 0.97102 0.6014 0.06696 0.0
H326 H 0.97597 0.55393 0.00548 0.0
H327 H 0.08122 0.58372 0.03927 0.0
H328 H 0.12667 0.57779 0.06431 0.0
H329 H 0.1519 0.47519 0.04332 0.0
H330 H 0.10627 0.48032 0.0183 0.0
H331 H 0.06327 0.57848 0.91567 0.0
H332 H 0.04182 0.58327 0.9489 0.0
H333 H 0.08038 0.4796 0.96111 0.0
H334 H 0.10191 0.47474 0.92786 0.0
H335 H 0.09887 0.52495 0.98892 0.0
H336 H 0.99308 0.49522 0.9553 0.0
H337 H 0.94769 0.50146 0.93024 0.0
H338 H 0.92371 0.60456 0.95094 0.0
H339 H 0.9693 0.59911 0.97597 0.0
C340 C 0.00852 0.52059 0.06887 0.0
C341 C 0.98988 0.5501 0.07516 0.0
C342 C 0.0208 0.51856 0.0499 0.0
C343 C 0.01528 0.54635 0.03701 0.0
C344 C 0.99715 0.57612 0.04338 0.0
C345 C 0.98461 0.57803 0.06233 0.0
C346 C 0.02751 0.54382 0.01672 0.0
C347 C 0.00296 0.54813 0.00184 0.0
C348 C 0.06254 0.53539 0.01202 0.0
C349 C 0.09011 0.5323 0.02701 0.0
C350 C 0.09628 0.55979 0.04008 0.0
C351 C 0.12211 0.55659 0.05425 0.0
C352 C 0.1421 0.5261 0.05543 0.0
C353 C 0.13637 0.49878 0.0424 0.0
C354 C 0.11056 0.50184 0.02821 0.0
C355 C 0.0669 0.55662 0.92541 0.0
C356 C 0.08474 0.52647 0.91933 0.0
C357 C 0.05461 0.55937 0.94436 0.0
C358 C 0.05941 0.53174 0.95744 0.0
C359 C 0.07665 0.50132 0.95127 0.0
C360 C 0.08908 0.49863 0.93233 0.0
C361 C 0.04732 0.53497 0.97771 0.0
C362 C 0.07189 0.5308 0.99257 0.0
C363 C 0.01234 0.54359 0.98239 0.0
C364 C 0.98483 0.54687 0.96739 0.0
C365 C 0.97831 0.51932 0.95441 0.0
C366 C 0.95251 0.5227 0.94023 0.0
C367 C 0.93289 0.55342 0.93897 0.0
C368 C 0.93896 0.58079 0.95192 0.0
C369 C 0.96475 0.57756 0.96612 0.0
H370 H 0.91293 0.55599 0.92798 0.0
H371 H 0.16209 0.52367 0.06642 0.0
H372 H 0.59922 0.49692 0.57589 0.0
H373 H 0.59643 0.524 0.54391 0.0
H374 H 0.49058 0.48703 0.53713 0.0
H375 H 0.4931 0.46022 0.56921 0.0
H376 H 0.52993 0.47407 0.50524 0.0
H377 H 0.5062 0.57186 0.54659 0.0
H378 H 0.51676 0.61253 0.57363 0.0
H379 H 0.61434 0.64348 0.54805 0.0
H380 H 0.60459 0.60262 0.52098 0.0
H381 H 0.48467 0.57595 0.42348 0.0
H382 H 0.4873 0.55003 0.45574 0.0
H383 H 0.59333 0.5867 0.46215 0.0
H384 H 0.59098 0.61238 0.42978 0.0
H385 H 0.55402 0.59994 0.49424 0.0
H386 H 0.57775 0.50204 0.45292 0.0
H387 H 0.56712 0.4614 0.42588 0.0
H388 H 0.46947 0.43063 0.45144 0.0
H389 H 0.47928 0.47148 0.47851 0.0
C390 C 0.5753 0.49472 0.56761 0.0
C391 C 0.54663 0.47585 0.57486 0.0
C392 C 0.57373 0.51023 0.54937 0.0
C393 C 0.54327 0.50757 0.53819 0.0
C394 C 0.51442 0.48912 0.54549 0.0
C395 C 0.516 0.47358 0.56374 0.0
C396 C 0.54179 0.52344 0.5187 0.0
C397 C 0.53469 0.50169 0.50285 0.0
C398 C 0.5489 0.55929 0.51559 0.0
C399 C 0.55482 0.58392 0.53185 0.0
C400 C 0.53005 0.58712 0.54681 0.0
C401 C 0.53587 0.61025 0.56213 0.0
C402 C 0.56625 0.63051 0.56259 0.0
C403 C 0.59084 0.62774 0.5477 0.0
C404 C 0.58517 0.60462 0.53235 0.0
C405 C 0.50858 0.5784 0.43175 0.0
C406 C 0.5374 0.59674 0.42427 0.0
C407 C 0.51006 0.56356 0.45015 0.0
C408 C 0.54056 0.56637 0.46129 0.0
C409 C 0.56946 0.5845 0.45382 0.0
C410 C 0.56799 0.59938 0.43539 0.0
C411 C 0.54213 0.55057 0.48079 0.0
C412 C 0.54926 0.57232 0.49664 0.0
C413 C 0.53504 0.51472 0.4839 0.0
C414 C 0.5291 0.49008 0.46765 0.0
C415 C 0.55387 0.48683 0.4527 0.0
C416 C 0.54802 0.46371 0.43738 0.0
C417 C 0.5176 0.44351 0.43691 0.0
C418 C 0.493 0.44633 0.4518 0.0
C419 C 0.49871 0.46944 0.46715 0.0
H420 H 0.51312 0.42563 0.42504 0.0
H421 H 0.57069 0.6484 0.57446 0.0
H422 H 0.4693 0.086 0.92544 0.0
H423 H 0.49861 0.08521 0.95684 0.0
H424 H 0.52735 0.97734 0.94788 0.0
H425 H 0.49735 0.9778 0.91658 0.0
H426 H 0.4987 0.98878 0.98371 0.0
H427 H 0.58814 0.03873 0.94398 0.0
H428 H 0.61322 0.07983 0.92026 0.0
H429 H 0.58997 0.16592 0.95801 0.0
H430 H 0.56428 0.12537 0.98185 0.0
H431 H 0.61575 0.97953 0.06348 0.0
H432 H 0.59103 0.9781 0.03086 0.0
H433 H 0.55995 0.08604 0.03659 0.0
H434 H 0.58539 0.08783 0.06905 0.0
H435 H 0.5919 0.07278 0.00185 0.0
H436 H 0.50036 0.02339 0.04087 0.0
H437 H 0.47475 0.98261 0.06458 0.0
H438 H 0.50159 0.89575 0.02812 0.0
H439 H 0.52783 0.93601 0.00429 0.0
C440 C 0.48156 0.06205 0.93026 0.0
C441 C 0.48052 0.03175 0.91883 0.0
C442 C 0.49864 0.06175 0.94807 0.0
C443 C 0.51517 0.03123 0.95461 0.0
C444 C 0.51466 0.0011 0.94306 0.0
C445 C 0.4977 0.00145 0.9252 0.0
C446 C 0.532 0.03053 0.97381 0.0
C447 C 0.5195 0.00673 0.9876 0.0
C448 C 0.55852 0.05454 0.97892 0.0
C449 C 0.57399 0.07902 0.96463 0.0
C450 C 0.5881 0.06645 0.94715 0.0
C451 C 0.60248 0.08965 0.9337 0.0
C452 C 0.60311 0.12547 0.93761 0.0
C453 C 0.58943 0.13817 0.955 0.0
C454 C 0.57499 0.11508 0.9685 0.0
C455 C 0.60408 0.00305 0.05766 0.0
C456 C 0.60299 0.03398 0.06859 0.0
C457 C 0.58966 0.0021 0.03915 0.0
C458 C 0.57368 0.03196 0.03138 0.0
C459 C 0.57232 0.06278 0.04234 0.0
C460 C 0.58663 0.0637 0.06087 0.0
C461 C 0.55845 0.03118 0.01177 0.0
C462 C 0.57125 0.0547 0.99791 0.0
C463 C 0.53216 0.00695 0.0066 0.0
C464 C 0.5164 0.98268 0.0209 0.0
C465 C 0.50109 0.99557 0.03799 0.0
C466 C 0.4864 0.97255 0.05143 0.0
C467 C 0.48664 0.9366 0.04789 0.0
C468 C 0.50148 0.9236 0.03086 0.0
C469 C 0.51624 0.9465 0.01737 0.0
H470 H 0.47524 0.91883 0.05831 0.0
H471 H 0.61427 0.14338 0.92718 0.0
H472 H 0.22195 0.03731 0.79973 0.0
H473 H 0.1762 0.05705 0.77775 0.0
H474 H 0.13462 0.12428 0.82229 0.0
H475 H 0.18055 0.10475 0.84444 0.0
H476 H 0.10303 0.06068 0.77742 0.0
H477 H 0.11491 0.20325 0.79831 0.0
H478 H 0.15366 0.24316 0.81629 0.0
H479 H 0.24255 0.18037 0.80092 0.0
H480 H 0.20432 0.1404 0.78257 0.0
H481 H 0.05061 0.22132 0.70993 0.0
H482 H 0.06177 0.19752 0.74218 0.0
H483 H 0.10376 0.10368 0.71635 0.0
H484 H 0.09144 0.12658 0.68431 0.0
H485 H 0.11996 0.18436 0.75802 0.0
H486 H 0.09944 0.03436 0.74387 0.0
H487 H 0.0576 0.99634 0.7268 0.0
H488 H 0.97942 0.07668 0.72996 0.0
H489 H 0.02057 0.11503 0.74731 0.0
C490 C 0.20267 0.05576 0.805 0.0
C491 C 0.20518 0.0699 0.8237 0.0
C492 C 0.17642 0.06687 0.79245 0.0
C493 C 0.15238 0.09247 0.79833 0.0
C494 C 0.15317 0.10473 0.81746 0.0
C495 C 0.17939 0.09347 0.83009 0.0
C496 C 0.12964 0.1089 0.78363 0.0
C497 C 0.10651 0.08774 0.77314 0.0
C498 C 0.13315 0.1446 0.77866 0.0
C499 C 0.15668 0.1686 0.78934 0.0
C500 C 0.14274 0.19803 0.79875 0.0
C501 C 0.16462 0.22066 0.809 0.0
C502 C 0.20055 0.21423 0.80986 0.0
C503 C 0.2147 0.18525 0.80033 0.0
C504 C 0.19293 0.16258 0.79001 0.0
C505 C 0.06163 0.19534 0.71116 0.0
C506 C 0.07018 0.17585 0.69455 0.0
C507 C 0.068 0.18177 0.72961 0.0
C508 C 0.08317 0.14857 0.73177 0.0
C509 C 0.09109 0.1289 0.71517 0.0
C510 C 0.08432 0.1422 0.69678 0.0
C511 C 0.09426 0.13574 0.7511 0.0
C512 C 0.11534 0.15758 0.7625 0.0
C513 C 0.08828 0.10083 0.75709 0.0
C514 C 0.06322 0.07767 0.74684 0.0
C515 C 0.07326 0.04386 0.74106 0.0
C516 C 0.04967 0.02226 0.73129 0.0
C517 C 0.0159 0.03411 0.72726 0.0
C518 C 0.00562 0.06756 0.73304 0.0
C519 C 0.02909 0.08927 0.74282 0.0
H520 H 0.99769 0.01735 0.71969 0.0
H521 H 0.21741 0.23177 0.81785 0.0
H522 H 0.06375 0.73203 0.31148 0.0
H523 H 0.05815 0.68734 0.28637 0.0
H524 H 0.96155 0.65222 0.31219 0.0
H525 H 0.96776 0.69586 0.33773 0.0
H526 H 0.99387 0.59878 0.29466 0.0
H527 H 0.9619 0.71756 0.27846 0.0
H528 H 0.97276 0.78083 0.27515 0.0
H529 H 0.05645 0.76019 0.23526 0.0
H530 H 0.04638 0.69672 0.23857 0.0
H531 H 0.87966 0.56442 0.21655 0.0
H532 H 0.91193 0.58308 0.24512 0.0
H533 H 0.00315 0.6024 0.20994 0.0
H534 H 0.97098 0.58395 0.18116 0.0
H535 H 0.98431 0.65867 0.23123 0.0
H536 H 0.00443 0.53754 0.24326 0.0
H537 H 0.98844 0.47548 0.2469 0.0
H538 H 0.92106 0.50129 0.29454 0.0
H539 H 0.93623 0.5636 0.29103 0.0
C540 C 0.04187 0.71408 0.31209 0.0
C541 C 0.0158 0.7178 0.32628 0.0
C542 C 0.0387 0.68859 0.29776 0.0
C543 C 0.00892 0.66717 0.29712 0.0
C544 C 0.98463 0.66862 0.31235 0.0
C545 C 0.98815 0.69367 0.32691 0.0
C546 C 0.00025 0.64736 0.27935 0.0
C547 C 0.99181 0.61176 0.28076 0.0
C548 C 0.99794 0.6643 0.26118 0.0
C549 C 0.00367 0.70244 0.25893 0.0
C550 C 0.98273 0.72653 0.26907 0.0
C551 C 0.98874 0.76241 0.26719 0.0
C552 C 0.01534 0.77452 0.25505 0.0
C553 C 0.0359 0.75077 0.2447 0.0
C554 C 0.03007 0.71484 0.24656 0.0
C555 C 0.90676 0.5721 0.21489 0.0
C556 C 0.92262 0.57304 0.19653 0.0
C557 C 0.92526 0.58249 0.23128 0.0
C558 C 0.96001 0.59387 0.22966 0.0
C559 C 0.97638 0.59355 0.21149 0.0
C560 C 0.95793 0.58303 0.19506 0.0
C561 C 0.97752 0.61007 0.2465 0.0
C562 C 0.98733 0.64525 0.24495 0.0
C563 C 0.98038 0.59284 0.26454 0.0
C564 C 0.97136 0.55532 0.26681 0.0
C565 C 0.98602 0.53004 0.25444 0.0
C566 C 0.97713 0.49479 0.25649 0.0
C567 C 0.95372 0.48445 0.27093 0.0
C568 C 0.9392 0.50933 0.28337 0.0
C569 C 0.94799 0.54462 0.28137 0.0
H570 H 0.94686 0.45716 0.27249 0.0
H571 H 0.01997 0.80231 0.25363 0.0
H572 H 0.38048 0.47575 0.83174 0.0
H573 H 0.4267 0.46581 0.80791 0.0
H574 H 0.36937 0.52646 0.76599 0.0
H575 H 0.32282 0.536 0.78959 0.0
H576 H 0.3847 0.46446 0.75204 0.0
H577 H 0.4482 0.55456 0.78411 0.0
H578 H 0.47458 0.58594 0.81159 0.0
H579 H 0.54057 0.49773 0.82341 0.0
H580 H 0.51422 0.46558 0.79615 0.0
H581 H 0.50693 0.45191 0.67752 0.0
H582 H 0.48014 0.48252 0.70475 0.0
H583 H 0.51371 0.40078 0.74337 0.0
H584 H 0.54019 0.36948 0.71615 0.0
H585 H 0.51331 0.47731 0.75859 0.0
H586 H 0.44247 0.38531 0.7295 0.0
H587 H 0.41702 0.35468 0.70146 0.0
H588 H 0.36486 0.44897 0.68411 0.0
H589 H 0.39058 0.48031 0.7119 0.0
C590 C 0.37804 0.48757 0.81757 0.0
C591 C 0.34777 0.50626 0.81246 0.0
C592 C 0.4046 0.48201 0.80399 0.0
C593 C 0.40149 0.49538 0.78515 0.0
C594 C 0.37224 0.51578 0.78041 0.0
C595 C 0.34564 0.52119 0.79393 0.0
C596 C 0.42643 0.48468 0.76979 0.0
C597 C 0.41275 0.46796 0.75339 0.0
C598 C 0.46313 0.48835 0.77172 0.0
C599 C 0.47898 0.50752 0.78818 0.0
C600 C 0.4681 0.54171 0.79267 0.0
C601 C 0.4831 0.55967 0.80819 0.0
C602 C 0.50917 0.54381 0.81927 0.0
C603 C 0.52034 0.50997 0.81483 0.0
C604 C 0.50541 0.49188 0.79933 0.0
C605 C 0.50956 0.44085 0.69187 0.0
C606 C 0.52519 0.40795 0.69462 0.0
C607 C 0.49431 0.45847 0.70741 0.0
C608 C 0.49486 0.44374 0.72597 0.0
C609 C 0.51323 0.41257 0.72913 0.0
C610 C 0.5281 0.39463 0.71353 0.0
C611 C 0.47129 0.45751 0.74109 0.0
C612 C 0.48519 0.47439 0.75735 0.0
C613 C 0.4347 0.45412 0.73913 0.0
C614 C 0.41877 0.43524 0.72261 0.0
C615 C 0.42584 0.39958 0.7196 0.0
C616 C 0.41133 0.38208 0.70378 0.0
C617 C 0.38943 0.39989 0.69098 0.0
C618 C 0.3819 0.43522 0.69402 0.0
C619 C 0.39643 0.45287 0.7098 0.0
H620 H 0.37821 0.3863 0.67873 0.0
H621 H 0.52076 0.55776 0.83128 0.0
H622 H 0.51679 0.83121 0.29085 0.0
H623 H 0.53024 0.87409 0.26577 0.0
H624 H 0.60367 0.92453 0.30398 0.0
H625 H 0.5898 0.88216 0.32933 0.0
H626 H 0.5716 0.97201 0.28065 0.0
H627 H 0.63195 0.86309 0.2738 0.0
H628 H 0.63758 0.79903 0.27135 0.0
H629 H 0.57536 0.79942 0.21971 0.0
H630 H 0.56888 0.86347 0.22203 0.0
H631 H 0.70191 0.02511 0.21089 0.0
H632 H 0.66749 0.00217 0.23793 0.0
H633 H 0.58781 0.96785 0.19818 0.0
H634 H 0.62165 0.99109 0.17109 0.0
H635 H 0.61871 0.91464 0.22172 0.0
H636 H 0.56575 0.02773 0.22783 0.0
H637 H 0.56515 0.09186 0.23117 0.0
H638 H 0.62039 0.08384 0.28501 0.0
H639 H 0.62179 0.01964 0.28185 0.0
C640 C 0.53525 0.85187 0.29407 0.0
C641 C 0.55272 0.85296 0.31192 0.0
C642 C 0.54291 0.87634 0.27973 0.0
C643 C 0.56852 0.90197 0.2829 0.0
C644 C 0.58393 0.90485 0.30123 0.0
C645 C 0.57604 0.88054 0.31567 0.0
C646 C 0.58208 0.92292 0.26652 0.0
C647 C 0.58205 0.95954 0.26779 0.0
C648 C 0.59561 0.90655 0.24972 0.0
C649 C 0.59956 0.86802 0.24823 0.0
C650 C 0.61921 0.84948 0.26201 0.0
C651 C 0.6226 0.81318 0.26064 0.0
C652 C 0.60674 0.79515 0.24542 0.0
C653 C 0.58755 0.81341 0.23152 0.0
C654 C 0.58401 0.84971 0.23285 0.0
C655 C 0.67669 0.0134 0.20794 0.0
C656 C 0.66468 0.00959 0.18883 0.0
C657 C 0.65701 0.00047 0.22341 0.0
C658 C 0.62521 0.98333 0.21998 0.0
C659 C 0.61229 0.98111 0.20106 0.0
C660 C 0.63168 0.99445 0.18562 0.0
C661 C 0.60791 0.96375 0.23573 0.0
C662 C 0.60767 0.9272 0.23442 0.0
C663 C 0.59491 0.98024 0.25257 0.0
C664 C 0.59416 0.01885 0.2545 0.0
C665 C 0.57808 0.03964 0.24029 0.0
C666 C 0.57752 0.07601 0.24217 0.0
C667 C 0.5928 0.09192 0.25827 0.0
C668 C 0.6086 0.07148 0.27254 0.0
C669 C 0.60925 0.03509 0.27072 0.0
H670 H 0.59232 0.12009 0.25971 0.0
H671 H 0.6094 0.76704 0.24438 0.0
H672 H 0.00195 0.96104 0.31942 0.0
H673 H 0.98388 0.99132 0.29004 0.0
H674 H 0.99617 0.89612 0.25734 0.0
H675 H 0.01436 0.86541 0.28666 0.0
H676 H 0.01469 0.95958 0.23643 0.0
H677 H 0.92069 0.90928 0.27463 0.0
H678 H 0.88789 0.89979 0.30492 0.0
H679 H 0.86845 0.01003 0.30946 0.0
H680 H 0.90165 0.02021 0.27932 0.0
H681 H 0.88515 0.9689 0.16314 0.0
H682 H 0.92842 0.95764 0.18824 0.0
H683 H 0.89039 0.04642 0.22061 0.0
H684 H 0.84605 0.05687 0.19587 0.0
H685 H 0.88957 0.99237 0.24222 0.0
H686 H 0.97597 0.04183 0.20074 0.0
H687 H 0.00892 0.05092 0.17049 0.0
H688 H 0.04288 0.94398 0.17149 0.0
H689 H 0.00974 0.93407 0.20161 0.0
C690 C 0.00157 0.94663 0.30593 0.0
C691 C 0.00892 0.91061 0.30546 0.0
C692 C 0.99138 0.96406 0.28915 0.0
C693 C 0.98836 0.9458 0.27164 0.0
C694 C 0.99842 0.91061 0.27075 0.0
C695 C 0.00856 0.89307 0.28756 0.0
C696 C 0.96979 0.96182 0.25517 0.0
C697 C 0.98732 0.96675 0.23755 0.0
C698 C 0.93431 0.97167 0.2569 0.0
C699 C 0.91398 0.96554 0.27487 0.0
C700 C 0.90966 0.93152 0.28217 0.0
C701 C 0.89096 0.92601 0.2993 0.0
C702 C 0.87618 0.9543 0.30914 0.0
C703 C 0.87997 0.98815 0.30184 0.0
C704 C 0.89872 0.9938 0.28474 0.0
C705 C 0.88658 0.98654 0.17538 0.0
C706 C 0.86198 0.01349 0.17771 0.0
C707 C 0.91152 0.98021 0.18969 0.0
C708 C 0.91279 0.00123 0.20634 0.0
C709 C 0.88982 0.02974 0.20795 0.0
C710 C 0.8645 0.0357 0.19382 0.0
C711 C 0.93431 0.99055 0.22317 0.0
C712 C 0.91716 0.98615 0.24097 0.0
C713 C 0.97008 0.98131 0.22151 0.0
C714 C 0.99014 0.98716 0.20339 0.0
C715 C 0.99025 0.02017 0.19444 0.0
C716 C 0.009 0.02548 0.17732 0.0
C717 C 0.02793 0.99803 0.16905 0.0
C718 C 0.0282 0.96522 0.17791 0.0
C719 C 0.00947 0.95975 0.19503 0.0
H720 H 0.04243 0.0022 0.15579 0.0
H721 H 0.86172 0.94999 0.32239 0.0
H722 H 0.19507 0.50489 0.77829 0.0
H723 H 0.1623 0.48773 0.74959 0.0
H724 H 0.07119 0.46812 0.78479 0.0
H725 H 0.10382 0.48522 0.8137 0.0
H726 H 0.0897 0.41237 0.76219 0.0
H727 H 0.06966 0.53443 0.75315 0.0
H728 H 0.08595 0.59663 0.75088 0.0
H729 H 0.15223 0.57413 0.70225 0.0
H730 H 0.13674 0.51169 0.70439 0.0
H731 H 0.00863 0.34516 0.6808 0.0
H732 H 0.01439 0.38817 0.70677 0.0
H733 H 0.11067 0.42515 0.68141 0.0
H734 H 0.10445 0.38312 0.65511 0.0
H735 H 0.07867 0.47717 0.70033 0.0
H736 H 0.11066 0.35716 0.71332 0.0
H737 H 0.10029 0.29364 0.71552 0.0
H738 H 0.01815 0.3112 0.75682 0.0
H739 H 0.0277 0.3749 0.75462 0.0
C740 C 0.16792 0.49742 0.77994 0.0
C741 C 0.15215 0.49614 0.79832 0.0
C742 C 0.14913 0.48789 0.76348 0.0
C743 C 0.11425 0.47693 0.76507 0.0
C744 C 0.09805 0.47669 0.78329 0.0
C745 C 0.11676 0.48645 0.79977 0.0
C746 C 0.09624 0.46207 0.74802 0.0
C747 C 0.08634 0.42683 0.74882 0.0
C748 C 0.09296 0.48069 0.73044 0.0
C749 C 0.10215 0.5183 0.729 0.0
C750 C 0.08789 0.54269 0.74205 0.0
C751 C 0.09696 0.57801 0.74077 0.0
C752 C 0.12014 0.58932 0.72645 0.0
C753 C 0.13426 0.56533 0.71334 0.0
C754 C 0.1253 0.52998 0.71456 0.0
C755 C 0.03041 0.36326 0.68045 0.0
C756 C 0.05651 0.36034 0.6662 0.0
C757 C 0.03369 0.38776 0.69529 0.0
C758 C 0.0635 0.40908 0.69632 0.0
C759 C 0.08759 0.40876 0.68098 0.0
C760 C 0.08403 0.38464 0.66595 0.0
C761 C 0.07251 0.42745 0.7145 0.0
C762 C 0.08102 0.46311 0.71388 0.0
C763 C 0.07525 0.40908 0.73223 0.0
C764 C 0.06958 0.37079 0.73362 0.0
C765 C 0.09021 0.34748 0.72276 0.0
C766 C 0.08451 0.31145 0.72402 0.0
C767 C 0.05851 0.2984 0.73626 0.0
C768 C 0.03822 0.32136 0.7473 0.0
C769 C 0.04375 0.35742 0.74606 0.0
H770 H 0.05417 0.27051 0.73725 0.0
H771 H 0.12714 0.61667 0.72549 0.0
H772 H 0.57981 0.61496 0.32057 0.0
H773 H 0.60453 0.58307 0.29316 0.0
H774 H 0.56159 0.65911 0.25385 0.0
H775 H 0.5373 0.69177 0.28122 0.0
H776 H 0.56618 0.57677 0.24206 0.0
H777 H 0.63037 0.68316 0.26001 0.0
H778 H 0.65469 0.72306 0.28458 0.0
H779 H 0.71586 0.63911 0.3081 0.0
H780 H 0.69142 0.5986 0.28378 0.0
H781 H 0.69162 0.57824 0.16397 0.0
H782 H 0.6464 0.58842 0.18841 0.0
H783 H 0.71187 0.54062 0.23171 0.0
H784 H 0.75718 0.5305 0.20749 0.0
H785 H 0.69266 0.60605 0.24153 0.0
H786 H 0.63647 0.50245 0.21855 0.0
H787 H 0.61079 0.46271 0.19437 0.0
H788 H 0.53391 0.54019 0.17995 0.0
H789 H 0.55946 0.58064 0.20386 0.0
C790 C 0.57466 0.62439 0.30608 0.0
C791 C 0.55709 0.65621 0.30307 0.0
C792 C 0.58868 0.60602 0.29044 0.0
C793 C 0.58482 0.61885 0.27157 0.0
C794 C 0.56453 0.64875 0.26834 0.0
C795 C 0.55096 0.6675 0.284 0.0
C796 C 0.60755 0.60522 0.25605 0.0
C797 C 0.59378 0.58329 0.24172 0.0
C798 C 0.6435 0.61349 0.25593 0.0
C799 C 0.65883 0.63784 0.27026 0.0
C800 C 0.64881 0.67319 0.27052 0.0
C801 C 0.66264 0.69591 0.28438 0.0
C802 C 0.68673 0.6836 0.29794 0.0
C803 C 0.69715 0.64858 0.29761 0.0
C804 C 0.68334 0.62574 0.28379 0.0
C805 C 0.69608 0.56918 0.1786 0.0
C806 C 0.72821 0.55404 0.18385 0.0
C807 C 0.67013 0.5749 0.19254 0.0
C808 C 0.67587 0.56539 0.21188 0.0
C809 C 0.70701 0.54828 0.21687 0.0
C810 C 0.73288 0.54255 0.20299 0.0
C811 C 0.65163 0.57714 0.2273 0.0
C812 C 0.66515 0.59911 0.24172 0.0
C813 C 0.61551 0.56894 0.2273 0.0
C814 C 0.60012 0.54473 0.21287 0.0
C815 C 0.6143 0.51117 0.21009 0.0
C816 C 0.59972 0.48848 0.19646 0.0
C817 C 0.5708 0.49895 0.18559 0.0
C818 C 0.55635 0.53213 0.18836 0.0
C819 C 0.57085 0.55494 0.20197 0.0
H820 H 0.55953 0.48134 0.17505 0.0
H821 H 0.69738 0.70121 0.30867 0.0
H822 H 0.35717 0.06293 0.78322 0.0
H823 H 0.39095 0.08302 0.75522 0.0
H824 H 0.48215 0.09463 0.79123 0.0
H825 H 0.44895 0.07431 0.81919 0.0
H826 H 0.46083 0.15574 0.77104 0.0
H827 H 0.48423 0.034 0.75893 0.0
H828 H 0.46819 0.97234 0.75361 0.0
H829 H 0.40933 0.00123 0.70325 0.0
H830 H 0.42459 0.06316 0.70844 0.0
H831 H 0.56821 0.22515 0.7003 0.0
H832 H 0.54997 0.18239 0.72457 0.0
H833 H 0.4645 0.15056 0.68789 0.0
H834 H 0.48351 0.19218 0.66325 0.0
H835 H 0.48583 0.0965 0.70865 0.0
H836 H 0.45361 0.21525 0.7214 0.0
H837 H 0.46357 0.27843 0.72585 0.0
H838 H 0.53067 0.25727 0.77419 0.0
H839 H 0.52149 0.19389 0.76984 0.0
C840 C 0.38457 0.06918 0.78511 0.0
C841 C 0.40026 0.06736 0.80348 0.0
C842 C 0.40385 0.08047 0.76909 0.0
C843 C 0.43898 0.09023 0.77123 0.0
C844 C 0.45506 0.08711 0.78934 0.0
C845 C 0.43598 0.07551 0.80529 0.0
C846 C 0.45782 0.10741 0.75518 0.0
C847 C 0.46697 0.14261 0.75753 0.0
C848 C 0.46443 0.09053 0.73735 0.0
C849 C 0.45531 0.05328 0.73418 0.0
C850 C 0.46761 0.02726 0.74682 0.0
C851 C 0.45871 0.99224 0.74381 0.0
C852 C 0.43769 0.98288 0.72813 0.0
C853 C 0.42559 0.00852 0.7154 0.0
C854 C 0.43439 0.04358 0.71836 0.0
C855 C 0.54611 0.20835 0.69722 0.0
C856 C 0.52692 0.21234 0.68007 0.0
C857 C 0.53565 0.18402 0.71109 0.0
C858 C 0.50527 0.16405 0.70826 0.0
C859 C 0.48788 0.16585 0.69043 0.0
C860 C 0.49875 0.18972 0.67637 0.0
C861 C 0.48925 0.14478 0.72461 0.0
C862 C 0.48024 0.10945 0.72227 0.0
C863 C 0.48184 0.16173 0.74238 0.0
C864 C 0.48718 0.19983 0.74516 0.0
C865 C 0.47067 0.22407 0.7329 0.0
C866 C 0.47616 0.25991 0.73541 0.0
C867 C 0.49783 0.27185 0.75026 0.0
C868 C 0.51396 0.24797 0.76267 0.0
C869 C 0.50861 0.21209 0.76019 0.0
H870 H 0.50205 0.29961 0.75218 0.0
H871 H 0.43083 0.95576 0.72582 0.0
H872 H 0.95259 0.27823 0.59154 0.0
H873 H 0.89074 0.29126 0.58565 0.0
H874 H 0.86149 0.19512 0.61385 0.0
H875 H 0.92325 0.18264 0.62041 0.0
H876 H 0.81789 0.22451 0.57697 0.0
H877 H 0.85918 0.24702 0.64378 0.0
H878 H 0.90237 0.27112 0.66667 0.0
H879 H 0.8929 0.37208 0.64007 0.0
H880 H 0.84988 0.34839 0.6169 0.0
H881 H 0.64897 0.25531 0.61614 0.0
H882 H 0.70828 0.23769 0.60734 0.0
H883 H 0.74052 0.34587 0.60776 0.0
H884 H 0.682 0.36312 0.61822 0.0
H885 H 0.78414 0.31151 0.62691 0.0
H886 H 0.73346 0.29324 0.56477 0.0
H887 H 0.69099 0.27085 0.54101 0.0
H888 H 0.71828 0.16541 0.55594 0.0
H889 H 0.76059 0.18715 0.57999 0.0
C890 C 0.93294 0.25941 0.59591 0.0
C891 C 0.94238 0.22962 0.60651 0.0
C892 C 0.89778 0.26676 0.59247 0.0
C893 C 0.87181 0.2441 0.59934 0.0
C894 C 0.88135 0.21264 0.60828 0.0
C895 C 0.91653 0.20555 0.612 0.0
C896 C 0.83542 0.25642 0.60064 0.0
C897 C 0.81018 0.24336 0.5879 0.0
C898 C 0.82597 0.28163 0.61459 0.0
C899 C 0.85165 0.2959 0.62853 0.0
C900 C 0.86653 0.27429 0.64274 0.0
C901 C 0.89085 0.28789 0.65581 0.0
C902 C 0.90036 0.32312 0.65484 0.0
C903 C 0.88551 0.34481 0.64082 0.0
C904 C 0.86113 0.33132 0.62773 0.0
C905 C 0.66878 0.27526 0.61432 0.0
C906 C 0.66102 0.31053 0.61793 0.0
C907 C 0.70254 0.26525 0.60898 0.0
C908 C 0.72889 0.29048 0.60661 0.0
C909 C 0.72066 0.32591 0.60945 0.0
C910 C 0.68713 0.33581 0.61523 0.0
C911 C 0.76569 0.27976 0.60318 0.0
C912 C 0.79135 0.29302 0.61569 0.0
C913 C 0.77535 0.25505 0.58882 0.0
C914 C 0.75002 0.24185 0.5743 0.0
C915 C 0.73024 0.26527 0.56309 0.0
C916 C 0.70622 0.2527 0.54955 0.0
C917 C 0.70189 0.21674 0.54699 0.0
C918 C 0.72165 0.19327 0.55794 0.0
C919 C 0.74569 0.2057 0.57151 0.0
H920 H 0.68328 0.20705 0.5365 0.0
H921 H 0.91929 0.33357 0.66492 0.0
H922 H 0.88884 0.41091 0.12653 0.0
H923 H 0.87316 0.3507 0.11798 0.0
H924 H 0.76767 0.38386 0.10576 0.0
H925 H 0.78353 0.44421 0.11378 0.0
H926 H 0.77467 0.33092 0.13422 0.0
H927 H 0.81422 0.35687 0.06971 0.0
H928 H 0.85656 0.37773 0.0454 0.0
H929 H 0.92954 0.29861 0.06294 0.0
H930 H 0.88783 0.27759 0.08757 0.0
H931 H 0.70996 0.1653 0.11624 0.0
H932 H 0.72485 0.22608 0.10957 0.0
H933 H 0.83455 0.19946 0.10972 0.0
H934 H 0.81948 0.13793 0.11475 0.0
H935 H 0.82407 0.25033 0.085 0.0
H936 H 0.79242 0.22847 0.15088 0.0
H937 H 0.7552 0.20739 0.17759 0.0
H938 H 0.67414 0.27882 0.16079 0.0
H939 H 0.71071 0.29997 0.13378 0.0
C940 C 0.86264 0.40542 0.12145 0.0
C941 C 0.8373 0.43191 0.1208 0.0
C942 C 0.85372 0.37115 0.11659 0.0
C943 C 0.81933 0.36304 0.11119 0.0
C944 C 0.79436 0.38976 0.10984 0.0
C945 C 0.80336 0.42403 0.11449 0.0
C946 C 0.80836 0.32627 0.10938 0.0
C947 C 0.78486 0.31343 0.12321 0.0
C948 C 0.82296 0.30338 0.09551 0.0
C949 C 0.84798 0.31583 0.0806 0.0
C950 C 0.83941 0.34409 0.0685 0.0
C951 C 0.86328 0.35592 0.05464 0.0
C952 C 0.89575 0.33956 0.05265 0.0
C953 C 0.90438 0.31128 0.0645 0.0
C954 C 0.88062 0.29937 0.0784 0.0
C955 C 0.73717 0.17218 0.11416 0.0
C956 C 0.76363 0.14704 0.11615 0.0
C957 C 0.74568 0.20699 0.11058 0.0
C958 C 0.78084 0.21744 0.10966 0.0
C959 C 0.80725 0.19202 0.11051 0.0
C960 C 0.79867 0.15701 0.11361 0.0
C961 C 0.79003 0.25501 0.10976 0.0
C962 C 0.81343 0.26794 0.09581 0.0
C963 C 0.7761 0.278 0.12387 0.0
C964 C 0.75414 0.26553 0.14019 0.0
C965 C 0.76656 0.23951 0.1528 0.0
C966 C 0.7456 0.22757 0.168 0.0
C967 C 0.71229 0.24169 0.17086 0.0
C968 C 0.69992 0.26786 0.15854 0.0
C969 C 0.72075 0.27985 0.14329 0.0
H970 H 0.6961 0.23241 0.18264 0.0
H971 H 0.9142 0.34875 0.04191 0.0
H972 H 0.40378 0.7044 0.37922 0.0
H973 H 0.34449 0.72046 0.38867 0.0
H974 H 0.37219 0.82967 0.38532 0.0
H975 H 0.43259 0.81348 0.37768 0.0
H976 H 0.32606 0.82219 0.4125 0.0
H977 H 0.33418 0.78499 0.34669 0.0
H978 H 0.34931 0.74578 0.31963 0.0
H979 H 0.28133 0.66676 0.34271 0.0
H980 H 0.26617 0.70535 0.37008 0.0
H981 H 0.15842 0.88287 0.3771 0.0
H982 H 0.21975 0.86841 0.38356 0.0
H983 H 0.18885 0.76588 0.40306 0.0
H984 H 0.12737 0.78068 0.39718 0.0
H985 H 0.23565 0.76921 0.37026 0.0
H986 H 0.22294 0.81544 0.43467 0.0
H987 H 0.20676 0.86082 0.45838 0.0
H988 H 0.28249 0.93064 0.43369 0.0
H989 H 0.29873 0.88589 0.4096 0.0
C990 C 0.39755 0.73179 0.38113 0.0
C991 C 0.4227 0.75773 0.37761 0.0
C992 C 0.36352 0.74098 0.38628 0.0
C993 C 0.35362 0.7763 0.38718 0.0
C994 C 0.37913 0.80226 0.38458 0.0
C995 C 0.41348 0.79301 0.37996 0.0
C996 C 0.31625 0.78601 0.38918 0.0
C997 C 0.30631 0.81075 0.4032 0.0
C998 C 0.29042 0.77113 0.37704 0.0
C999 C 0.29934 0.74791 0.36054 0.0
C1000 C 0.32264 0.75916 0.34607 0.0
C1001 C 0.3312 0.73706 0.33066 0.0
C1002 C 0.31636 0.70376 0.32948 0.0
C1003 C 0.29285 0.69254 0.34367 0.0
C1004 C 0.28426 0.71451 0.35912 0.0
C1005 C 0.16468 0.85778 0.38348 0.0
C1006 C 0.13844 0.83283 0.38672 0.0
C1007 C 0.19962 0.84953 0.38711 0.0
C1008 C 0.20863 0.81614 0.39381 0.0
C1009 C 0.18225 0.79183 0.39797 0.0
C1010 C 0.14732 0.80024 0.39459 0.0
C1011 C 0.2455 0.80493 0.39367 0.0
C1012 C 0.25536 0.78017 0.37978 0.0
C1013 C 0.27116 0.82063 0.4055 0.0
C1014 C 0.26186 0.84736 0.42021 0.0
C1015 C 0.23597 0.84056 0.43419 0.0
C1016 C 0.22681 0.86616 0.44772 0.0
C1017 C 0.24353 0.89861 0.44752 0.0
C1018 C 0.26954 0.90549 0.43382 0.0
C1019 C 0.27876 0.87999 0.42024 0.0
H1020 H 0.23637 0.91842 0.45799 0.0
H1021 H 0.32301 0.68669 0.31754 0.0
H1022 H 0.36328 0.90604 0.86922 0.0
H1023 H 0.34917 0.84448 0.87414 0.0
H1024 H 0.24142 0.87179 0.88509 0.0
H1025 H 0.25601 0.93385 0.88127 0.0
H1026 H 0.26071 0.81777 0.90745 0.0
H1027 H 0.26651 0.84739 0.84065 0.0
H1028 H 0.29221 0.87217 0.81095 0.0
H1029 H 0.37787 0.79993 0.81469 0.0
H1030 H 0.35296 0.77508 0.84463 0.0
H1031 H 0.18883 0.65739 0.86593 0.0
H1032 H 0.20388 0.71832 0.87308 0.0
H1033 H 0.31115 0.68829 0.88256 0.0
H1034 H 0.29588 0.627 0.87644 0.0
H1035 H 0.29164 0.7429 0.85131 0.0
H1036 H 0.27971 0.71192 0.91887 0.0
H1037 H 0.24827 0.68773 0.94699 0.0
H1038 H 0.16627 0.7631 0.93928 0.0
H1039 H 0.19699 0.78739 0.9109 0.0
C1040 C 0.33683 0.89899 0.87325 0.0
C1041 C 0.31065 0.92452 0.87482 0.0
C1042 C 0.32872 0.86383 0.87587 0.0
C1043 C 0.29413 0.85359 0.87961 0.0
C1044 C 0.26825 0.87919 0.88214 0.0
C1045 C 0.2765 0.91448 0.87978 0.0
C1046 C 0.28461 0.81616 0.8792 0.0
C1047 C 0.26725 0.80144 0.89514 0.0
C1048 C 0.29308 0.79493 0.86307 0.0
C1049 C 0.30806 0.80963 0.845 0.0
C1050 C 0.29097 0.83697 0.83522 0.0
C1051 C 0.30538 0.85101 0.81834 0.0
C1052 C 0.3367 0.83769 0.81096 0.0
C1053 C 0.35364 0.81025 0.82044 0.0
C1054 C 0.33938 0.79617 0.83737 0.0
C1055 C 0.21535 0.66367 0.87015 0.0
C1056 C 0.24125 0.63767 0.8707 0.0
C1057 C 0.2239 0.69837 0.87414 0.0
C1058 C 0.25851 0.70747 0.87841 0.0
C1059 C 0.28426 0.6815 0.87939 0.0
C1060 C 0.27559 0.64671 0.87578 0.0
C1061 C 0.26847 0.7445 0.87967 0.0
C1062 C 0.28553 0.75921 0.86371 0.0
C1063 C 0.25892 0.76572 0.89553 0.0
C1064 C 0.24047 0.75121 0.91262 0.0
C1065 C 0.25479 0.72309 0.92303 0.0
C1066 C 0.23714 0.70942 0.93905 0.0
C1067 C 0.20524 0.7238 0.94488 0.0
C1068 C 0.19096 0.75195 0.93473 0.0
C1069 C 0.2085 0.7657 0.91868 0.0
H1070 H 0.19162 0.71319 0.9573 0.0
H1071 H 0.34781 0.84859 0.79788 0.0
H1072 H 0.44751 0.2702 0.64362 0.0
H1073 H 0.38732 0.25377 0.63694 0.0
H1074 H 0.37333 0.3477 0.60337 0.0
H1075 H 0.43408 0.36448 0.6099 0.0
H1076 H 0.33176 0.29133 0.64899 0.0
H1077 H 0.30716 0.32885 0.56931 0.0
H1078 H 0.33964 0.33295 0.53853 0.0
H1079 H 0.41125 0.25405 0.55799 0.0
H1080 H 0.37894 0.24913 0.58876 0.0
H1081 H 0.15255 0.30121 0.63374 0.0
H1082 H 0.21337 0.31766 0.62857 0.0
H1083 H 0.23454 0.21647 0.60373 0.0
H1084 H 0.17342 0.19954 0.6088 0.0
H1085 H 0.27236 0.27525 0.58581 0.0
H1086 H 0.24912 0.22197 0.64822 0.0
H1087 H 0.2166 0.21609 0.67888 0.0
H1088 H 0.24324 0.32159 0.6941 0.0
H1089 H 0.27548 0.32824 0.66336 0.0
C1090 C 0.4319 0.28728 0.63461 0.0
C1091 C 0.44554 0.31889 0.62746 0.0
C1092 C 0.39745 0.27778 0.63081 0.0
C1093 C 0.37587 0.29955 0.61974 0.0
C1094 C 0.38969 0.33042 0.61184 0.0
C1095 C 0.42434 0.34 0.61564 0.0
C1096 C 0.33824 0.29114 0.61801 0.0
C1097 C 0.31887 0.28784 0.63515 0.0
C1098 C 0.32143 0.28654 0.59996 0.0
C1099 C 0.34083 0.28892 0.58142 0.0
C1100 C 0.32977 0.31229 0.56699 0.0
C1101 C 0.34816 0.31477 0.54955 0.0
C1102 C 0.37756 0.29386 0.54634 0.0
C1103 C 0.38856 0.27034 0.56053 0.0
C1104 C 0.37025 0.26774 0.57799 0.0
C1105 C 0.16985 0.28257 0.62683 0.0
C1106 C 0.15824 0.24877 0.62202 0.0
C1107 C 0.20459 0.29214 0.62382 0.0
C1108 C 0.22838 0.26814 0.61596 0.0
C1109 C 0.21644 0.23533 0.60979 0.0
C1110 C 0.18159 0.22565 0.61283 0.0
C1111 C 0.26625 0.2756 0.61678 0.0
C1112 C 0.28547 0.27885 0.59957 0.0
C1113 C 0.28322 0.27988 0.63478 0.0
C1114 C 0.26441 0.27571 0.65342 0.0
C1115 C 0.24783 0.24398 0.65805 0.0
C1116 C 0.22948 0.2405 0.67544 0.0
C1117 C 0.22778 0.26848 0.68841 0.0
C1118 C 0.24454 0.29996 0.68403 0.0
C1119 C 0.26288 0.30359 0.66663 0.0
H1120 H 0.21353 0.26574 0.70187 0.0
H1121 H 0.39177 0.29583 0.53283 0.0
H1122 H 0.7749 0.63431 0.13238 0.0
H1123 H 0.75298 0.6919 0.12343 0.0
H1124 H 0.85749 0.72382 0.10773 0.0
H1125 H 0.8794 0.6657 0.11602 0.0
H1126 H 0.76837 0.74786 0.14163 0.0
H1127 H 0.85594 0.79325 0.07731 0.0
H1128 H 0.88262 0.76829 0.04789 0.0
H1129 H 0.80401 0.68824 0.04651 0.0
H1130 H 0.77654 0.71299 0.07575 0.0
H1131 H 0.79807 0.92557 0.14274 0.0
H1132 H 0.81041 0.86431 0.13616 0.0
H1133 H 0.72813 0.86186 0.09366 0.0
H1134 H 0.71509 0.92355 0.10024 0.0
H1135 H 0.7959 0.82192 0.08469 0.0
H1136 H 0.70226 0.83296 0.13078 0.0
H1137 H 0.67317 0.85775 0.15953 0.0
H1138 H 0.75738 0.82187 0.19541 0.0
H1139 H 0.78728 0.79737 0.16679 0.0
C1140 C 0.79313 0.65338 0.12667 0.0
C1141 C 0.82895 0.64567 0.12513 0.0
C1142 C 0.78054 0.68627 0.12153 0.0
C1143 C 0.80353 0.71225 0.11492 0.0
C1144 C 0.8391 0.70407 0.11248 0.0
C1145 C 0.85166 0.6709 0.11735 0.0
C1146 C 0.79114 0.74883 0.11304 0.0
C1147 C 0.77405 0.76377 0.12902 0.0
C1148 C 0.79823 0.76971 0.09657 0.0
C1149 C 0.81433 0.75487 0.07883 0.0
C1150 C 0.84422 0.77044 0.07067 0.0
C1151 C 0.85951 0.7563 0.05404 0.0
C1152 C 0.84507 0.72665 0.04537 0.0
C1153 C 0.81524 0.71113 0.05328 0.0
C1154 C 0.79983 0.72518 0.06991 0.0
C1155 C 0.78286 0.91234 0.13174 0.0
C1156 C 0.75521 0.92935 0.12222 0.0
C1157 C 0.79008 0.87733 0.12798 0.0
C1158 C 0.77001 0.85871 0.11455 0.0
C1159 C 0.74389 0.876 0.10405 0.0
C1160 C 0.7364 0.91112 0.10792 0.0
C1161 C 0.77403 0.82044 0.11336 0.0
C1162 C 0.78971 0.80547 0.097 0.0
C1163 C 0.76514 0.79919 0.12932 0.0
C1164 C 0.74713 0.8136 0.14661 0.0
C1165 C 0.71472 0.83062 0.14477 0.0
C1166 C 0.69806 0.84458 0.16105 0.0
C1167 C 0.71345 0.84145 0.17928 0.0
C1168 C 0.74551 0.8243 0.18127 0.0
C1169 C 0.7623 0.81035 0.16503 0.0
H1170 H 0.70051 0.85226 0.19187 0.0
H1171 H 0.85697 0.71573 0.03249 0.0
H1172 H 0.6402 0.71872 0.39471 0.0
H1173 H 0.69865 0.73816 0.40442 0.0
H1174 H 0.70451 0.80336 0.35358 0.0
H1175 H 0.64606 0.78519 0.34424 0.0
H1176 H 0.75867 0.72969 0.38865 0.0
H1177 H 0.75255 0.87309 0.35925 0.0
H1178 H 0.70954 0.92096 0.35729 0.0
H1179 H 0.65285 0.87751 0.40523 0.0
H1180 H 0.69577 0.82964 0.40768 0.0
H1181 H 0.91775 0.78652 0.35317 0.0
H1182 H 0.85797 0.77023 0.36065 0.0
H1183 H 0.85318 0.8507 0.40436 0.0
H1184 H 0.91317 0.86821 0.39636 0.0
H1185 H 0.79717 0.85325 0.38423 0.0
H1186 H 0.85404 0.76131 0.41654 0.0
H1187 H 0.89651 0.71376 0.42171 0.0
H1188 H 0.85092 0.65549 0.37505 0.0
H1189 H 0.80847 0.70288 0.3694 0.0
C1190 C 0.65386 0.73748 0.38573 0.0
C1191 C 0.63843 0.75052 0.36875 0.0
C1192 C 0.68725 0.74856 0.39129 0.0
C1193 C 0.70579 0.77273 0.37993 0.0
C1194 C 0.6904 0.78553 0.36292 0.0
C1195 C 0.65699 0.77488 0.35751 0.0
C1196 C 0.74209 0.78308 0.38495 0.0
C1197 C 0.76704 0.75674 0.38792 0.0
C1198 C 0.75292 0.81848 0.38474 0.0
C1199 C 0.72736 0.84765 0.38359 0.0
C1200 C 0.73108 0.87387 0.36948 0.0
C1201 C 0.70666 0.90098 0.36825 0.0
C1202 C 0.67845 0.90224 0.3811 0.0
C1203 C 0.67466 0.87645 0.39525 0.0
C1204 C 0.69901 0.8493 0.39655 0.0
C1205 C 0.90424 0.80061 0.36454 0.0
C1206 C 0.92028 0.82872 0.37416 0.0
C1207 C 0.87002 0.79102 0.36893 0.0
C1208 C 0.85117 0.80874 0.38335 0.0
C1209 C 0.86725 0.83651 0.39324 0.0
C1210 C 0.90152 0.84647 0.38867 0.0
C1211 C 0.81391 0.79969 0.38681 0.0
C1212 C 0.78875 0.82628 0.38545 0.0
C1213 C 0.80282 0.76461 0.3891 0.0
C1214 C 0.82809 0.73576 0.39252 0.0
C1215 C 0.85316 0.73844 0.40732 0.0
C1216 C 0.87723 0.7115 0.41034 0.0
C1217 C 0.87642 0.68163 0.39871 0.0
C1218 C 0.85149 0.67862 0.38406 0.0
C1219 C 0.82736 0.70549 0.38097 0.0
H1220 H 0.8951 0.66082 0.40106 0.0
H1221 H 0.65955 0.92322 0.38011 0.0
H1222 H 0.37267 0.16259 0.8774 0.0
H1223 H 0.35398 0.2221 0.88508 0.0
H1224 H 0.2472 0.18642 0.8903 0.0
H1225 H 0.26567 0.12748 0.88137 0.0
H1226 H 0.24803 0.23624 0.86711 0.0
H1227 H 0.29773 0.22225 0.92966 0.0
H1228 H 0.34248 0.20677 0.95382 0.0
H1229 H 0.41164 0.28434 0.93035 0.0
H1230 H 0.36752 0.29998 0.90586 0.0
H1231 H 0.18857 0.40841 0.88302 0.0
H1232 H 0.20515 0.34934 0.89303 0.0
H1233 H 0.30984 0.36663 0.87187 0.0
H1234 H 0.29354 0.42553 0.86164 0.0
H1235 H 0.30528 0.32645 0.90773 0.0
H1236 H 0.25801 0.33087 0.84215 0.0
H1237 H 0.21288 0.34567 0.81804 0.0
H1238 H 0.13758 0.28428 0.8492 0.0
H1239 H 0.18225 0.26939 0.87359 0.0
C1240 C 0.34538 0.16742 0.88068 0.0
C1241 C 0.3205 0.14076 0.87863 0.0
C1242 C 0.33469 0.2014 0.8852 0.0
C1243 C 0.2991 0.20888 0.88834 0.0
C1244 C 0.27473 0.18143 0.8878 0.0
C1245 C 0.28526 0.14778 0.88274 0.0
C1246 C 0.28666 0.24562 0.88929 0.0
C1247 C 0.26001 0.25561 0.87646 0.0
C1248 C 0.30275 0.27133 0.90106 0.0
C1249 C 0.32935 0.26214 0.91583 0.0
C1250 C 0.32257 0.23586 0.92956 0.0
C1251 C 0.34782 0.22708 0.94333 0.0
C1252 C 0.3799 0.24452 0.9436 0.0
C1253 C 0.38678 0.27085 0.93012 0.0
C1254 C 0.36163 0.27972 0.91631 0.0
C1255 C 0.21529 0.39989 0.88081 0.0
C1256 C 0.23961 0.42141 0.87126 0.0
C1257 C 0.22471 0.36621 0.88659 0.0
C1258 C 0.25862 0.35372 0.88307 0.0
C1259 C 0.28357 0.37593 0.87474 0.0
C1260 C 0.27411 0.40944 0.86877 0.0
C1261 C 0.26693 0.31635 0.88569 0.0
C1262 C 0.29289 0.30652 0.89893 0.0
C1263 C 0.25007 0.29055 0.87448 0.0
C1264 C 0.22329 0.29943 0.85981 0.0
C1265 C 0.23174 0.3208 0.84394 0.0
C1266 C 0.20628 0.32913 0.8302 0.0
C1267 C 0.17234 0.31605 0.83214 0.0
C1268 C 0.16384 0.29451 0.84777 0.0
C1269 C 0.18922 0.28606 0.86153 0.0
H1270 H 0.15267 0.32248 0.82148 0.0
H1271 H 0.39942 0.23767 0.95426 0.0
loop_
_geom_bond_atom_site_label_1
_geom_bond_atom_site_label_2
_geom_bond_distance
_geom_bond_site_symmetry_2
_ccdc_geom_bond_type
Co0 O3 1.970 . S
Co0 N17 1.989 . S
Co0 O25 1.967 . S
Co0 O32 1.920 . S
Co1 O4 1.966 . S
Co1 N10 2.022 . S
Co1 N18 1.993 . S
Co1 O26 1.941 . S
C2 O3 1.258 . S
C2 O4 1.263 . S
O3 Co0 1.970 . S
O3 C2 1.258 . S
O4 Co1 1.966 . S
O4 C2 1.263 . S
C5 O6 1.235 . S
C5 O32 1.289 . S
O6 C5 1.235 . S
C7 C9 1.400 . S
C7 N10 1.351 . S
C7 C12 1.501 . S
C8 C9 1.387 . S
C8 N11 1.341 . S
C9 C7 1.400 . S
C9 C8 1.387 . S
N10 Co1 2.022 . S
N10 C7 1.351 . S
N10 N11 1.365 . S
N11 C8 1.341 . S
N11 N10 1.365 . S
N11 H31 0.862 . S
C12 C7 1.501 . S
C12 H13 0.961 . S
C12 H14 0.961 . S
C12 H15 0.960 . S
H13 C12 0.961 . S
H14 C12 0.961 . S
H15 C12 0.960 . S
C16 N17 1.342 1_655 S
C16 C20 1.401 . S
C16 C21 1.499 . S
N17 Co0 1.989 . S
N17 C16 1.342 1_455 S
N17 N18 1.388 . S
N18 Co1 1.993 . S
N18 N17 1.388 . S
N18 C19 1.346 1_455 S
C19 N18 1.346 1_655 S
C19 C20 1.396 . S
C19 C29 1.510 . S
C20 C16 1.401 . S
C20 C19 1.396 . S
C21 C16 1.499 . S
C21 H22 0.959 1_655 S
C21 H23 0.960 . S
C21 H24 0.961 . S
H22 C21 0.959 1_455 S
H23 C21 0.960 . S
H24 C21 0.961 . S
O25 Co0 1.967 . S
O25 C33 1.258 . S
O26 Co1 1.941 . S
O26 C33 1.266 . S
H27 C29 0.959 . S
H28 C29 0.961 . S
C29 C19 1.510 . S
C29 H27 0.959 . S
C29 H28 0.961 . S
C29 H30 0.960 . S
H30 C29 0.960 . S
H31 N11 0.862 . S
O32 Co0 1.920 . S
O32 C5 1.289 . S
C33 O25 1.258 . S
C33 O26 1.266 . S
Co34 O37 1.970 . S
Co34 N51 1.989 . S
Co34 O59 1.967 . S
Co34 O66 1.920 . S
Co35 O38 1.966 . S
Co35 N44 2.022 . S
Co35 N52 1.993 . S
Co35 O60 1.941 . S
C36 O37 1.258 . S
C36 O38 1.263 . S
O37 Co34 1.970 . S
O37 C36 1.258 . S
O38 Co35 1.966 . S
O38 C36 1.263 . S
C39 O40 1.235 . S
C39 O66 1.289 . S
O40 C39 1.235 . S
C41 C43 1.400 . S
C41 N44 1.351 . S
C41 C46 1.501 . S
C42 C43 1.387 . S
C42 N45 1.341 . S
C43 C41 1.400 . S
C43 C42 1.387 . S
N44 Co35 2.022 . S
N44 C41 1.351 . S
N44 N45 1.365 . S
N45 C42 1.341 . S
N45 N44 1.365 . S
N45 H65 0.862 . S
C46 C41 1.501 . S
C46 H47 0.961 . S
C46 H48 0.961 . S
C46 H49 0.960 . S
H47 C46 0.961 . S
H48 C46 0.961 . S
H49 C46 0.960 . S
C50 N51 1.342 . S
C50 C54 1.401 . S
C50 C55 1.499 . S
N51 Co34 1.989 . S
N51 C50 1.342 . S
N51 N52 1.388 . S
N52 Co35 1.993 . S
N52 N51 1.388 . S
N52 C53 1.346 . S
C53 N52 1.346 . S
C53 C54 1.396 . S
C53 C63 1.510 . S
C54 C50 1.401 . S
C54 C53 1.396 . S
C55 C50 1.499 . S
C55 H56 0.959 . S
C55 H57 0.960 . S
C55 H58 0.961 . S
H56 C55 0.959 . S
H57 C55 0.960 . S
H58 C55 0.961 . S
O59 Co34 1.967 . S
O59 C67 1.258 . S
O60 Co35 1.941 . S
O60 C67 1.266 . S
H61 C63 0.959 . S
H62 C63 0.961 . S
C63 C53 1.510 . S
C63 H61 0.959 . S
C63 H62 0.961 . S
C63 H64 0.960 . S
H64 C63 0.960 . S
H65 N45 0.862 . S
O66 Co34 1.920 . S
O66 C39 1.289 . S
C67 O59 1.258 . S
C67 O60 1.266 . S
Co68 O71 1.970 . S
Co68 N85 1.989 . S
Co68 O93 1.967 . S
Co68 O100 1.920 . S
Co69 O72 1.966 . S
Co69 N78 2.022 . S
Co69 N86 1.993 . S
Co69 O94 1.941 . S
C70 O71 1.258 . S
C70 O72 1.263 . S
O71 Co68 1.970 . S
O71 C70 1.258 . S
O72 Co69 1.966 . S
O72 C70 1.263 . S
C73 O74 1.235 . S
C73 O100 1.289 . S
O74 C73 1.235 . S
C75 C77 1.400 . S
C75 N78 1.351 . S
C75 C80 1.501 . S
C76 C77 1.387 . S
C76 N79 1.341 . S
C77 C75 1.400 . S
C77 C76 1.387 . S
N78 Co69 2.022 . S
N78 C75 1.351 . S
N78 N79 1.365 . S
N79 C76 1.341 . S
N79 N78 1.365 . S
N79 H99 0.862 . S
C80 C75 1.501 . S
C80 H81 0.961 . S
C80 H82 0.961 . S
C80 H83 0.960 . S
H81 C80 0.961 . S
H82 C80 0.961 . S
H83 C80 0.960 . S
C84 N85 1.342 . S
C84 C88 1.401 . S
C84 C89 1.499 . S
N85 Co68 1.989 . S
N85 C84 1.342 . S
N85 N86 1.388 . S
N86 Co69 1.993 . S
N86 N85 1.388 . S
N86 C87 1.346 . S
C87 N86 1.346 . S
C87 C88 1.396 . S
C87 C97 1.510 . S
C88 C84 1.401 . S
C88 C87 1.396 . S
C89 C84 1.499 . S
C89 H90 0.959 . S
C89 H91 0.960 . S
C89 H92 0.961 . S
H90 C89 0.959 . S
H91 C89 0.960 . S
H92 C89 0.961 . S
O93 Co68 1.967 . S
O93 C101 1.258 . S
O94 Co69 1.941 . S
O94 C101 1.266 . S
H95 C97 0.959 . S
H96 C97 0.961 . S
C97 C87 1.510 . S
C97 H95 0.959 . S
C97 H96 0.961 . S
C97 H98 0.960 . S
H98 C97 0.960 . S
H99 N79 0.862 . S
O100 Co68 1.920 . S
O100 C73 1.289 . S
C101 O93 1.258 . S
C101 O94 1.266 . S
Co102 O105 1.970 1_545 S
Co102 N119 1.989 . S
Co102 O127 1.967 1_545 S
Co102 O134 1.920 . S
Co103 O106 1.966 1_545 S
Co103 N112 2.022 . S
Co103 N120 1.993 . S
Co103 O128 1.942 . S
C104 O105 1.258 . S
C104 O106 1.263 . S
O105 Co102 1.970 1_565 S
O105 C104 1.258 . S
O106 Co103 1.966 1_565 S
O106 C104 1.263 . S
C107 O108 1.235 . S
C107 O134 1.289 . S
O108 C107 1.235 . S
C109 C111 1.400 . S
C109 N112 1.351 . S
C109 C114 1.501 1_545 S
C110 C111 1.387 . S
C110 N113 1.341 . S
C111 C109 1.400 . S
C111 C110 1.387 . S
N112 Co103 2.022 . S
N112 C109 1.351 . S
N112 N113 1.365 . S
N113 C110 1.341 . S
N113 N112 1.365 . S
N113 H133 0.862 . S
C114 C109 1.501 1_565 S
C114 H115 0.961 . S
C114 H116 0.962 . S
C114 H117 0.960 . S
H115 C114 0.961 . S
H116 C114 0.962 . S
H117 C114 0.960 . S
C118 N119 1.342 . S
C118 C122 1.401 . S
C118 C123 1.499 . S
N119 Co102 1.989 . S
N119 C118 1.342 . S
N119 N120 1.388 . S
N120 Co103 1.993 . S
N120 N119 1.388 . S
N120 C121 1.346 . S
C121 N120 1.346 . S
C121 C122 1.396 . S
C121 C131 1.510 . S
C122 C118 1.401 . S
C122 C121 1.396 . S
C123 C118 1.499 . S
C123 H124 0.959 . S
C123 H125 0.960 . S
C123 H126 0.961 . S
H124 C123 0.959 . S
H125 C123 0.960 . S
H126 C123 0.961 . S
O127 Co102 1.967 1_565 S
O127 C135 1.258 . S
O128 Co103 1.942 . S
O128 C135 1.266 1_545 S
H129 C131 0.959 . S
H130 C131 0.961 . S
C131 C121 1.510 . S
C131 H129 0.959 . S
C131 H130 0.961 . S
C131 H132 0.960 . S
H132 C131 0.960 . S
H133 N113 0.862 . S
O134 Co102 1.920 . S
O134 C107 1.289 . S
C135 O127 1.258 . S
C135 O128 1.266 1_565 S
Co136 O139 1.970 1_455 S
Co136 N153 1.989 . S
Co136 O161 1.967 1_455 S
Co136 O168 1.920 . S
Co137 O140 1.966 1_455 S
Co137 N146 2.022 . S
Co137 N154 1.993 . S
Co137 O162 1.941 . S
C138 O139 1.258 . S
C138 O140 1.263 . S
O139 Co136 1.970 1_655 S
O139 C138 1.258 . S
O140 Co137 1.966 1_655 S
O140 C138 1.263 . S
C141 O142 1.235 . S
C141 O168 1.289 . S
O142 C141 1.235 . S
C143 C145 1.400 . S
C143 N146 1.351 . S
C143 C148 1.501 1_455 S
C144 C145 1.387 . S
C144 N147 1.341 . S
C145 C143 1.400 . S
C145 C144 1.387 . S
N146 Co137 2.022 . S
N146 C143 1.351 . S
N146 N147 1.365 . S
N147 C144 1.341 . S
N147 N146 1.365 . S
N147 H167 0.862 . S
C148 C143 1.501 1_655 S
C148 H149 0.961 . S
C148 H150 0.961 1_655 S
C148 H151 0.960 . S
H149 C148 0.961 . S
H150 C148 0.961 1_455 S
H151 C148 0.960 . S
C152 N153 1.342 . S
C152 C156 1.401 . S
C152 C157 1.499 . S
N153 Co136 1.989 . S
N153 C152 1.342 . S
N153 N154 1.388 . S
N154 Co137 1.993 . S
N154 N153 1.388 . S
N154 C155 1.346 . S
C155 N154 1.346 . S
C155 C156 1.396 . S
C155 C165 1.510 . S
C156 C152 1.401 . S
C156 C155 1.396 . S
C157 C152 1.499 . S
C157 H158 0.959 . S
C157 H159 0.960 . S
C157 H160 0.961 . S
H158 C157 0.959 . S
H159 C157 0.960 . S
H160 C157 0.961 . S
O161 Co136 1.967 1_655 S
O161 C169 1.258 . S
O162 Co137 1.941 . S
O162 C169 1.266 1_455 S
H163 C165 0.959 . S
H164 C165 0.961 . S
C165 C155 1.510 . S
C165 H163 0.959 . S
C165 H164 0.961 . S
C165 H166 0.960 . S
H166 C165 0.960 . S
H167 N147 0.862 . S
O168 Co136 1.920 . S
O168 C141 1.289 . S
C169 O161 1.258 . S
C169 O162 1.266 1_655 S
Co170 O173 1.970 . S
Co170 N187 1.989 . S
Co170 O195 1.967 . S
Co170 O202 1.920 . S
Co171 O174 1.966 . S
Co171 N180 2.022 . S
Co171 N188 1.993 . S
Co171 O196 1.941 . S
C172 O173 1.258 . S
C172 O174 1.263 . S
O173 Co170 1.970 . S
O173 C172 1.258 . S
O174 Co171 1.966 . S
O174 C172 1.263 . S
C175 O176 1.235 . S
C175 O202 1.289 . S
O176 C175 1.235 . S
C177 C179 1.400 . S
C177 N180 1.351 . S
C177 C182 1.501 . S
C178 C179 1.387 . S
C178 N181 1.341 . S
C179 C177 1.400 . S
C179 C178 1.387 . S
N180 Co171 2.022 . S
N180 C177 1.351 . S
N180 N181 1.365 . S
N181 C178 1.341 . S
N181 N180 1.365 . S
N181 H201 0.862 . S
C182 C177 1.501 . S
C182 H183 0.961 . S
C182 H184 0.961 . S
C182 H185 0.960 . S
H183 C182 0.961 . S
H184 C182 0.961 . S
H185 C182 0.960 . S
C186 N187 1.342 . S
C186 C190 1.401 . S
C186 C191 1.499 . S
N187 Co170 1.989 . S
N187 C186 1.342 . S
N187 N188 1.388 . S
N188 Co171 1.993 . S
N188 N187 1.388 . S
N188 C189 1.346 . S
C189 N188 1.346 . S
C189 C190 1.396 . S
C189 C199 1.510 . S
C190 C186 1.401 . S
C190 C189 1.396 . S
C191 C186 1.499 . S
C191 H192 0.959 . S
C191 H193 0.960 . S
C191 H194 0.961 . S
H192 C191 0.959 . S
H193 C191 0.960 . S
H194 C191 0.961 . S
O195 Co170 1.967 . S
O195 C203 1.258 . S
O196 Co171 1.941 . S
O196 C203 1.266 . S
H197 C199 0.959 . S
H198 C199 0.961 . S
C199 C189 1.510 . S
C199 H197 0.959 . S
C199 H198 0.961 . S
C199 H200 0.960 . S
H200 C199 0.960 . S
H201 N181 0.862 . S
O202 Co170 1.920 . S
O202 C175 1.289 . S
C203 O195 1.258 . S
C203 O196 1.266 . S
Co204 O207 1.970 . S
Co204 N221 1.989 . S
Co204 O229 1.967 . S
Co204 O236 1.920 . S
Co205 O208 1.966 . S
Co205 N214 2.022 . S
Co205 N222 1.993 . S
Co205 O230 1.941 . S
C206 O207 1.258 . S
C206 O208 1.263 . S
O207 Co204 1.970 . S
O207 C206 1.258 . S
O208 Co205 1.966 . S
O208 C206 1.263 . S
C209 O210 1.235 . S
C209 O236 1.289 . S
O210 C209 1.235 . S
C211 C213 1.400 . S
C211 N214 1.351 . S
C211 C216 1.501 . S
C212 C213 1.387 . S
C212 N215 1.341 . S
C213 C211 1.400 . S
C213 C212 1.387 . S
N214 Co205 2.022 . S
N214 C211 1.351 . S
N214 N215 1.365 . S
N215 C212 1.341 . S
N215 N214 1.365 . S
N215 H235 0.862 . S
C216 C211 1.501 . S
C216 H217 0.961 . S
C216 H218 0.961 . S
C216 H219 0.960 . S
H217 C216 0.961 . S
H218 C216 0.961 . S
H219 C216 0.960 . S
C220 N221 1.342 . S
C220 C224 1.401 . S
C220 C225 1.499 . S
N221 Co204 1.989 . S
N221 C220 1.342 . S
N221 N222 1.388 . S
N222 Co205 1.993 . S
N222 N221 1.388 . S
N222 C223 1.346 . S
C223 N222 1.346 . S
C223 C224 1.396 . S
C223 C233 1.510 . S
C224 C220 1.401 . S
C224 C223 1.396 . S
C225 C220 1.499 . S
C225 H226 0.959 . S
C225 H227 0.960 . S
C225 H228 0.961 . S
H226 C225 0.959 . S
H227 C225 0.960 . S
H228 C225 0.961 . S
O229 Co204 1.967 . S
O229 C237 1.258 . S
O230 Co205 1.941 . S
O230 C237 1.266 . S
H231 C233 0.959 . S
H232 C233 0.961 . S
C233 C223 1.510 . S
C233 H231 0.959 . S
C233 H232 0.961 . S
C233 H234 0.960 . S
H234 C233 0.960 . S
H235 N215 0.862 . S
O236 Co204 1.920 . S
O236 C209 1.289 . S
C237 O229 1.258 . S
C237 O230 1.266 . S
Co238 O241 1.970 . S
Co238 N255 1.989 . S
Co238 O263 1.967 . S
Co238 O270 1.920 . S
Co239 O242 1.966 . S
Co239 N248 2.022 . S
Co239 N256 1.993 . S
Co239 O264 1.941 . S
C240 O241 1.258 . S
C240 O242 1.263 . S
O241 Co238 1.970 . S
O241 C240 1.258 . S
O242 Co239 1.966 . S
O242 C240 1.263 . S
C243 O244 1.235 . S
C243 O270 1.289 . S
O244 C243 1.235 . S
C245 C247 1.400 . S
C245 N248 1.351 . S
C245 C250 1.501 . S
C246 C247 1.387 . S
C246 N249 1.341 . S
C247 C245 1.400 . S
C247 C246 1.387 . S
N248 Co239 2.022 . S
N248 C245 1.351 . S
N248 N249 1.365 . S
N249 C246 1.341 . S
N249 N248 1.365 . S
N249 H269 0.862 . S
C250 C245 1.501 . S
C250 H251 0.961 . S
C250 H252 0.961 . S
C250 H253 0.960 . S
H251 C250 0.961 . S
H252 C250 0.961 . S
H253 C250 0.960 . S
C254 N255 1.342 1_565 S
C254 C258 1.401 . S
C254 C259 1.499 . S
N255 Co238 1.989 . S
N255 C254 1.342 1_545 S
N255 N256 1.388 . S
N256 Co239 1.993 . S
N256 N255 1.388 . S
N256 C257 1.346 1_545 S
C257 N256 1.346 1_565 S
C257 C258 1.396 . S
C257 C267 1.510 . S
C258 C254 1.401 . S
C258 C257 1.396 . S
C259 C254 1.499 . S
C259 H260 0.959 1_565 S
C259 H261 0.960 . S
C259 H262 0.961 . S
H260 C259 0.959 1_545 S
H261 C259 0.960 . S
H262 C259 0.961 . S
O263 Co238 1.967 . S
O263 C271 1.258 . S
O264 Co239 1.941 . S
O264 C271 1.266 . S
H265 C267 0.959 . S
H266 C267 0.961 . S
C267 C257 1.510 . S
C267 H265 0.959 . S
C267 H266 0.961 . S
C267 H268 0.960 . S
H268 C267 0.960 . S
H269 N249 0.862 . S
O270 Co238 1.920 . S
O270 C243 1.289 . S
C271 O263 1.258 . S
C271 O264 1.266 . S
H272 C290 0.951 . S
H273 C292 0.951 1_545 S
H274 C294 0.950 . S
H275 C295 0.950 . S
H276 C297 0.950 1_655 S
H277 C300 0.950 . S
H278 C301 0.950 . S
H279 C303 0.950 . S
H280 C304 0.950 . S
H281 C305 0.951 . S
H282 C307 0.951 . S
H283 C309 0.950 . S
H284 C310 0.950 . S
H285 C312 0.950 . S
H286 C315 0.950 . S
H287 C316 0.950 . S
H288 C318 0.950 . S
H289 C319 0.950 . S
C290 H272 0.951 . S
C290 C291 1.366 . S
C290 C292 1.388 . S
C291 C290 1.366 . S
C291 C295 1.385 . S
C292 H273 0.951 1_565 S
C292 C290 1.388 . S
C292 C293 1.366 . S
C293 C292 1.366 . S
C293 C294 1.414 . S
C293 C296 1.499 1_565 S
C294 H274 0.950 . S
C294 C293 1.414 . S
C294 C295 1.374 . S
C295 H275 0.950 . S
C295 C291 1.385 . S
C295 C294 1.374 . S
C296 C293 1.499 1_545 S
C296 C297 1.373 . S
C296 C298 1.389 . S
C297 H276 0.950 1_455 S
C297 C296 1.373 . S
C297 C313 1.377 . S
C298 C296 1.389 . S
C298 C299 1.524 . S
C298 C312 1.377 . S
C299 C298 1.524 . S
C299 C300 1.397 1_545 S
C299 C304 1.363 . S
C300 H277 0.950 . S
C300 C299 1.397 1_565 S
C300 C301 1.334 . S
C301 H278 0.950 . S
C301 C300 1.334 . S
C301 C302 1.287 . S
C302 C301 1.287 . S
C302 C303 1.524 1_565 S
C302 H321 0.913 . S
C303 H279 0.950 . S
C303 C302 1.524 1_545 S
C303 C304 1.415 . S
C304 H280 0.950 . S
C304 C299 1.363 . S
C304 C303 1.415 . S
C305 H281 0.951 . S
C305 C306 1.366 . S
C305 C307 1.388 . S
C306 C305 1.366 . S
C306 C310 1.385 . S
C307 H282 0.951 . S
C307 C305 1.388 . S
C307 C308 1.366 . S
C308 C307 1.366 . S
C308 C309 1.414 . S
C308 C311 1.499 . S
C309 H283 0.950 . S
C309 C308 1.414 . S
C309 C310 1.374 . S
C310 H284 0.950 . S
C310 C306 1.385 . S
C310 C309 1.374 . S
C311 C308 1.499 . S
C311 C312 1.373 . S
C311 C313 1.389 . S
C312 H285 0.950 . S
C312 C298 1.377 . S
C312 C311 1.373 . S
C313 C297 1.377 . S
C313 C311 1.389 . S
C313 C314 1.524 1_455 S
C314 C313 1.524 1_655 S
C314 C315 1.397 . S
C314 C319 1.363 . S
C315 H286 0.950 . S
C315 C314 1.397 . S
C315 C316 1.334 . S
C316 H287 0.950 . S
C316 C315 1.334 . S
C316 C317 1.287 . S
C317 C316 1.287 . S
C317 C318 1.524 . S
C317 H320 0.999 . S
C318 H288 0.950 . S
C318 C317 1.524 . S
C318 C319 1.415 . S
C319 H289 0.950 . S
C319 C314 1.363 . S
C319 C318 1.415 . S
H320 C317 0.999 . S
H321 C302 0.913 . S
H322 C340 0.951 . S
H323 C342 0.951 . S
H324 C344 0.950 . S
H325 C345 0.950 . S
H326 C347 0.950 1_655 S
H327 C350 0.950 . S
H328 C351 0.950 . S
H329 C353 0.950 . S
H330 C354 0.950 . S
H331 C355 0.951 . S
H332 C357 0.951 . S
H333 C359 0.950 . S
H334 C360 0.950 . S
H335 C362 0.950 . S
H336 C365 0.950 . S
H337 C366 0.950 . S
H338 C368 0.950 . S
H339 C369 0.950 . S
C340 H322 0.951 . S
C340 C341 1.366 . S
C340 C342 1.388 . S
C341 C340 1.366 . S
C341 C345 1.385 . S
C342 H323 0.951 . S
C342 C340 1.388 . S
C342 C343 1.366 . S
C343 C342 1.366 . S
C343 C344 1.414 . S
C343 C346 1.499 1_655 S
C344 H324 0.950 . S
C344 C343 1.414 . S
C344 C345 1.374 . S
C345 H325 0.950 . S
C345 C341 1.385 . S
C345 C344 1.374 . S
C346 C343 1.499 1_455 S
C346 C347 1.373 . S
C346 C348 1.389 . S
C347 H326 0.950 1_455 S
C347 C346 1.373 . S
C347 C363 1.377 1_554 S
C348 C346 1.389 . S
C348 C349 1.524 . S
C348 C362 1.377 1_554 S
C349 C348 1.524 . S
C349 C350 1.397 . S
C349 C354 1.363 . S
C350 H327 0.950 . S
C350 C349 1.397 . S
C350 C351 1.334 . S
C351 H328 0.950 . S
C351 C350 1.334 . S
C351 C352 1.287 . S
C352 C351 1.287 . S
C352 C353 1.524 . S
C352 H371 0.913 . S
C353 H329 0.950 . S
C353 C352 1.524 . S
C353 C354 1.415 . S
C354 H330 0.950 . S
C354 C349 1.363 . S
C354 C353 1.415 . S
C355 H331 0.951 . S
C355 C356 1.366 . S
C355 C357 1.388 . S
C356 C355 1.366 . S
C356 C360 1.385 . S
C357 H332 0.951 . S
C357 C355 1.388 . S
C357 C358 1.366 . S
C358 C357 1.366 . S
C358 C359 1.414 . S
C358 C361 1.499 . S
C359 H333 0.950 . S
C359 C358 1.414 . S
C359 C360 1.374 . S
C360 H334 0.950 . S
C360 C356 1.385 . S
C360 C359 1.374 . S
C361 C358 1.499 . S
C361 C362 1.373 . S
C361 C363 1.389 . S
C362 H335 0.950 . S
C362 C348 1.377 1_556 S
C362 C361 1.373 . S
C363 C347 1.377 1_556 S
C363 C361 1.389 . S
C363 C364 1.524 . S
C364 C363 1.524 . S
C364 C365 1.397 . S
C364 C369 1.363 . S
C365 H336 0.950 . S
C365 C364 1.397 . S
C365 C366 1.334 . S
C366 H337 0.950 . S
C366 C365 1.334 . S
C366 C367 1.287 . S
C367 C366 1.287 . S
C367 C368 1.524 . S
C367 H370 0.999 1_455 S
C368 H338 0.950 . S
C368 C367 1.524 . S
C368 C369 1.415 . S
C369 H339 0.950 . S
C369 C364 1.363 . S
C369 C368 1.415 . S
H370 C367 0.999 1_655 S
H371 C352 0.913 . S
H372 C390 0.951 . S
H373 C392 0.951 . S
H374 C394 0.950 . S
H375 C395 0.950 . S
H376 C397 0.950 . S
H377 C400 0.950 . S
H378 C401 0.950 . S
H379 C403 0.950 . S
H380 C404 0.950 . S
H381 C405 0.951 . S
H382 C407 0.951 . S
H383 C409 0.950 . S
H384 C410 0.950 . S
H385 C412 0.950 . S
H386 C415 0.950 . S
H387 C416 0.950 . S
H388 C418 0.950 . S
H389 C419 0.950 . S
C390 H372 0.951 . S
C390 C391 1.366 . S
C390 C392 1.388 . S
C391 C390 1.366 . S
C391 C395 1.385 . S
C392 H373 0.951 . S
C392 C390 1.388 . S
C392 C393 1.366 . S
C393 C392 1.366 . S
C393 C394 1.414 . S
C393 C396 1.499 . S
C394 H374 0.950 . S
C394 C393 1.414 . S
C394 C395 1.374 . S
C395 H375 0.950 . S
C395 C391 1.385 . S
C395 C394 1.374 . S
C396 C393 1.499 . S
C396 C397 1.373 . S
C396 C398 1.389 . S
C397 H376 0.950 . S
C397 C396 1.373 . S
C397 C413 1.377 . S
C398 C396 1.389 . S
C398 C399 1.524 . S
C398 C412 1.377 . S
C399 C398 1.524 . S
C399 C400 1.397 . S
C399 C404 1.363 . S
C400 H377 0.950 . S
C400 C399 1.397 . S
C400 C401 1.334 . S
C401 H378 0.950 . S
C401 C400 1.334 . S
C401 C402 1.287 . S
C402 C401 1.287 . S
C402 C403 1.524 . S
C402 H421 0.913 . S
C403 H379 0.950 . S
C403 C402 1.524 . S
C403 C404 1.415 . S
C404 H380 0.950 . S
C404 C399 1.363 . S
C404 C403 1.415 . S
C405 H381 0.951 . S
C405 C406 1.366 . S
C405 C407 1.388 . S
C406 C405 1.366 . S
C406 C410 1.385 . S
C407 H382 0.951 . S
C407 C405 1.388 . S
C407 C408 1.366 . S
C408 C407 1.366 . S
C408 C409 1.414 . S
C408 C411 1.499 . S
C409 H383 0.950 . S
C409 C408 1.414 . S
C409 C410 1.374 . S
C410 H384 0.950 . S
C410 C406 1.385 . S
C410 C409 1.374 . S
C411 C408 1.499 . S
C411 C412 1.373 . S
C411 C413 1.389 . S
C412 H385 0.950 . S
C412 C398 1.377 . S
C412 C411 1.373 . S
C413 C397 1.377 . S
C413 C411 1.389 . S
C413 C414 1.524 . S
C414 C413 1.524 . S
C414 C415 1.397 . S
C414 C419 1.363 . S
C415 H386 0.950 . S
C415 C414 1.397 . S
C415 C416 1.334 . S
C416 H387 0.950 . S
C416 C415 1.334 . S
C416 C417 1.287 . S
C417 C416 1.287 . S
C417 C418 1.524 . S
C417 H420 0.999 . S
C418 H388 0.950 . S
C418 C417 1.524 . S
C418 C419 1.415 . S
C419 H389 0.950 . S
C419 C414 1.363 . S
C419 C418 1.415 . S
H420 C417 0.999 . S
H421 C402 0.913 . S
H422 C440 0.951 . S
H423 C442 0.951 . S
H424 C444 0.950 1_565 S
H425 C445 0.950 1_565 S
H426 C447 0.950 1_554 S
H427 C450 0.950 . S
H428 C451 0.950 . S
H429 C453 0.950 . S
H430 C454 0.950 . S
H431 C455 0.951 1_565 S
H432 C457 0.951 1_565 S
H433 C459 0.950 . S
H434 C460 0.950 . S
H435 C462 0.950 1_556 S
H436 C465 0.950 . S
H437 C466 0.950 . S
H438 C468 0.950 . S
H439 C469 0.950 . S
C440 H422 0.951 . S
C440 C441 1.366 . S
C440 C442 1.388 . S
C441 C440 1.366 . S
C441 C445 1.385 . S
C442 H423 0.951 . S
C442 C440 1.388 . S
C442 C443 1.366 . S
C443 C442 1.366 . S
C443 C444 1.414 . S
C443 C446 1.499 . S
C444 H424 0.950 1_545 S
C444 C443 1.414 . S
C444 C445 1.374 . S
C445 H425 0.950 1_545 S
C445 C441 1.385 . S
C445 C444 1.374 . S
C446 C443 1.499 . S
C446 C447 1.371 . S
C446 C448 1.389 . S
C447 H426 0.950 1_556 S
C447 C446 1.371 . S
C447 C463 1.379 1_556 S
C448 C446 1.389 . S
C448 C449 1.524 . S
C448 C462 1.379 1_556 S
C449 C448 1.524 . S
C449 C450 1.397 . S
C449 C454 1.363 . S
C450 H427 0.950 . S
C450 C449 1.397 . S
C450 C451 1.334 . S
C451 H428 0.950 . S
C451 C450 1.334 . S
C451 C452 1.287 . S
C452 C451 1.287 . S
C452 C453 1.524 . S
C452 H471 0.913 . S
C453 H429 0.950 . S
C453 C452 1.524 . S
C453 C454 1.415 . S
C454 H430 0.950 . S
C454 C449 1.363 . S
C454 C453 1.415 . S
C455 H431 0.951 1_545 S
C455 C456 1.366 . S
C455 C457 1.388 . S
C456 C455 1.366 . S
C456 C460 1.385 . S
C457 H432 0.951 1_545 S
C457 C455 1.388 . S
C457 C458 1.366 . S
C458 C457 1.366 . S
C458 C459 1.414 . S
C458 C461 1.499 . S
C459 H433 0.950 . S
C459 C458 1.414 . S
C459 C460 1.374 . S
C460 H434 0.950 . S
C460 C456 1.385 . S
C460 C459 1.374 . S
C461 C458 1.499 . S
C461 C462 1.371 . S
C461 C463 1.389 . S
C462 H435 0.950 1_554 S
C462 C448 1.379 1_554 S
C462 C461 1.371 . S
C463 C447 1.379 1_554 S
C463 C461 1.389 . S
C463 C464 1.527 . S
C464 C463 1.527 . S
C464 C465 1.400 . S
C464 C469 1.357 1_545 S
C465 H436 0.950 . S
C465 C464 1.400 . S
C465 C466 1.334 . S
C466 H437 0.950 . S
C466 C465 1.334 . S
C466 C467 1.287 1_545 S
C467 C466 1.287 1_565 S
C467 C468 1.524 . S
C467 H470 0.999 . S
C468 H438 0.950 . S
C468 C467 1.524 . S
C468 C469 1.415 . S
C469 H439 0.950 . S
C469 C464 1.357 1_565 S
C469 C468 1.415 . S
H470 C467 0.999 . S
H471 C452 0.913 . S
H472 C490 0.951 . S
H473 C492 0.951 . S
H474 C494 0.950 . S
H475 C495 0.950 . S
H476 C497 0.950 . S
H477 C500 0.950 . S
H478 C501 0.950 . S
H479 C503 0.950 . S
H480 C504 0.950 . S
H481 C505 0.951 . S
H482 C507 0.951 . S
H483 C509 0.950 . S
H484 C510 0.950 . S
H485 C512 0.950 . S
H486 C515 0.950 . S
H487 C516 0.950 . S
H488 C518 0.950 . S
H489 C519 0.950 . S
C490 H472 0.951 . S
C490 C491 1.366 . S
C490 C492 1.388 . S
C491 C490 1.366 . S
C491 C495 1.385 . S
C492 H473 0.951 . S
C492 C490 1.388 . S
C492 C493 1.366 . S
C493 C492 1.366 . S
C493 C494 1.414 . S
C493 C496 1.499 . S
C494 H474 0.950 . S
C494 C493 1.414 . S
C494 C495 1.374 . S
C495 H475 0.950 . S
C495 C491 1.385 . S
C495 C494 1.374 . S
C496 C493 1.499 . S
C496 C497 1.373 . S
C496 C498 1.389 . S
C497 H476 0.950 . S
C497 C496 1.373 . S
C497 C513 1.377 . S
C498 C496 1.389 . S
C498 C499 1.524 . S
C498 C512 1.377 . S
C499 C498 1.524 . S
C499 C500 1.397 . S
C499 C504 1.363 . S
C500 H477 0.950 . S
C500 C499 1.397 . S
C500 C501 1.334 . S
C501 H478 0.950 . S
C501 C500 1.334 . S
C501 C502 1.287 . S
C502 C501 1.287 . S
C502 C503 1.524 . S
C502 H521 0.913 . S
C503 H479 0.950 . S
C503 C502 1.524 . S
C503 C504 1.415 . S
C504 H480 0.950 . S
C504 C499 1.363 . S
C504 C503 1.415 . S
C505 H481 0.951 . S
C505 C506 1.366 . S
C505 C507 1.388 . S
C506 C505 1.366 . S
C506 C510 1.385 . S
C507 H482 0.951 . S
C507 C505 1.388 . S
C507 C508 1.366 . S
C508 C507 1.366 . S
C508 C509 1.414 . S
C508 C511 1.499 . S
C509 H483 0.950 . S
C509 C508 1.414 . S
C509 C510 1.374 . S
C510 H484 0.950 . S
C510 C506 1.385 . S
C510 C509 1.374 . S
C511 C508 1.499 . S
C511 C512 1.373 . S
C511 C513 1.389 . S
C512 H485 0.950 . S
C512 C498 1.377 . S
C512 C511 1.373 . S
C513 C497 1.377 . S
C513 C511 1.389 . S
C513 C514 1.524 . S
C514 C513 1.524 . S
C514 C515 1.397 . S
C514 C519 1.363 . S
C515 H486 0.950 . S
C515 C514 1.397 . S
C515 C516 1.334 . S
C516 H487 0.950 . S
C516 C515 1.334 . S
C516 C517 1.287 . S
C517 C516 1.287 . S
C517 C518 1.524 . S
C517 H520 0.999 . S
C518 H488 0.950 . S
C518 C517 1.524 . S
C518 C519 1.415 . S
C519 H489 0.950 . S
C519 C514 1.363 . S
C519 C518 1.415 . S
H520 C517 0.999 . S
H521 C502 0.913 . S
H522 C540 0.951 . S
H523 C542 0.951 . S
H524 C544 0.950 . S
H525 C545 0.950 . S
H526 C547 0.950 . S
H527 C550 0.940 1_655 S
H528 C551 0.950 . S
H529 C553 0.950 . S
H530 C554 0.950 . S
H531 C555 0.951 . S
H532 C557 0.951 . S
H533 C559 0.950 . S
H534 C560 0.950 . S
H535 C562 0.950 . S
H536 C565 0.950 . S
H537 C566 0.950 . S
H538 C568 0.950 . S
H539 C569 0.950 . S
C540 H522 0.951 . S
C540 C541 1.366 . S
C540 C542 1.388 . S
C541 C540 1.366 . S
C541 C545 1.385 1_455 S
C542 H523 0.951 . S
C542 C540 1.388 . S
C542 C543 1.366 1_455 S
C543 C542 1.366 1_655 S
C543 C544 1.414 . S
C543 C546 1.499 . S
C544 H524 0.950 . S
C544 C543 1.414 . S
C544 C545 1.374 . S
C545 H525 0.950 . S
C545 C541 1.385 1_655 S
C545 C544 1.374 . S
C546 C543 1.499 . S
C546 C547 1.373 . S
C546 C548 1.389 . S
C547 H526 0.950 . S
C547 C546 1.373 . S
C547 C563 1.377 . S
C548 C546 1.389 . S
C548 C549 1.524 1_655 S
C548 C562 1.377 . S
C549 C548 1.524 1_455 S
C549 C550 1.399 . S
C549 C554 1.363 . S
C550 H527 0.940 1_455 S
C550 C549 1.399 . S
C550 C551 1.341 . S
C551 H528 0.950 . S
C551 C550 1.341 . S
C551 C552 1.287 . S
C552 C551 1.287 . S
C552 C553 1.524 . S
C552 H571 0.913 . S
C553 H529 0.950 . S
C553 C552 1.524 . S
C553 C554 1.415 . S
C554 H530 0.950 . S
C554 C549 1.363 . S
C554 C553 1.415 . S
C555 H531 0.951 . S
C555 C556 1.366 . S
C555 C557 1.388 . S
C556 C555 1.366 . S
C556 C560 1.385 . S
C557 H532 0.951 . S
C557 C555 1.388 . S
C557 C558 1.366 . S
C558 C557 1.366 . S
C558 C559 1.414 . S
C558 C561 1.499 . S
C559 H533 0.950 . S
C559 C558 1.414 . S
C559 C560 1.374 . S
C560 H534 0.950 . S
C560 C556 1.385 . S
C560 C559 1.374 . S
C561 C558 1.499 . S
C561 C562 1.373 . S
C561 C563 1.389 . S
C562 H535 0.950 . S
C562 C548 1.377 . S
C562 C561 1.373 . S
C563 C547 1.377 . S
C563 C561 1.389 . S
C563 C564 1.524 . S
C564 C563 1.524 . S
C564 C565 1.397 . S
C564 C569 1.363 . S
C565 H536 0.950 . S
C565 C564 1.397 . S
C565 C566 1.334 . S
C566 H537 0.950 . S
C566 C565 1.334 . S
C566 C567 1.287 . S
C567 C566 1.287 . S
C567 C568 1.524 . S
C567 H570 0.999 . S
C568 H538 0.950 . S
C568 C567 1.524 . S
C568 C569 1.415 . S
C569 H539 0.950 . S
C569 C564 1.363 . S
C569 C568 1.415 . S
H570 C567 0.999 . S
H571 C552 0.913 . S
H572 C590 0.951 . S
H573 C592 0.951 . S
H574 C594 0.950 . S
H575 C595 0.950 . S
H576 C597 0.950 . S
H577 C600 0.950 . S
H578 C601 0.950 . S
H579 C603 0.950 . S
H580 C604 0.950 . S
H581 C605 0.951 . S
H582 C607 0.951 . S
H583 C609 0.950 . S
H584 C610 0.950 . S
H585 C612 0.950 . S
H586 C615 0.950 . S
H587 C616 0.950 . S
H588 C618 0.950 . S
H589 C619 0.950 . S
C590 H572 0.951 . S
C590 C591 1.366 . S
C590 C592 1.388 . S
C591 C590 1.366 . S
C591 C595 1.385 . S
C592 H573 0.951 . S
C592 C590 1.388 . S
C592 C593 1.366 . S
C593 C592 1.366 . S
C593 C594 1.414 . S
C593 C596 1.499 . S
C594 H574 0.950 . S
C594 C593 1.414 . S
C594 C595 1.374 . S
C595 H575 0.950 . S
C595 C591 1.385 . S
C595 C594 1.374 . S
C596 C593 1.499 . S
C596 C597 1.373 . S
C596 C598 1.389 . S
C597 H576 0.950 . S
C597 C596 1.373 . S
C597 C613 1.377 . S
C598 C596 1.389 . S
C598 C599 1.524 . S
C598 C612 1.377 . S
C599 C598 1.524 . S
C599 C600 1.397 . S
C599 C604 1.363 . S
C600 H577 0.950 . S
C600 C599 1.397 . S
C600 C601 1.334 . S
C601 H578 0.950 . S
C601 C600 1.334 . S
C601 C602 1.287 . S
C602 C601 1.287 . S
C602 C603 1.524 . S
C602 H621 0.913 . S
C603 H579 0.950 . S
C603 C602 1.524 . S
C603 C604 1.415 . S
C604 H580 0.950 . S
C604 C599 1.363 . S
C604 C603 1.415 . S
C605 H581 0.951 . S
C605 C606 1.366 . S
C605 C607 1.388 . S
C606 C605 1.366 . S
C606 C610 1.385 . S
C607 H582 0.951 . S
C607 C605 1.388 . S
C607 C608 1.366 . S
C608 C607 1.366 . S
C608 C609 1.414 . S
C608 C611 1.499 . S
C609 H583 0.950 . S
C609 C608 1.414 . S
C609 C610 1.374 . S
C610 H584 0.950 . S
C610 C606 1.385 . S
C610 C609 1.374 . S
C611 C608 1.499 . S
C611 C612 1.373 . S
C611 C613 1.389 . S
C612 H585 0.950 . S
C612 C598 1.377 . S
C612 C611 1.373 . S
C613 C597 1.377 . S
C613 C611 1.389 . S
C613 C614 1.524 . S
C614 C613 1.524 . S
C614 C615 1.397 . S
C614 C619 1.363 . S
C615 H586 0.950 . S
C615 C614 1.397 . S
C615 C616 1.334 . S
C616 H587 0.950 . S
C616 C615 1.334 . S
C616 C617 1.287 . S
C617 C616 1.287 . S
C617 C618 1.524 . S
C617 H620 0.999 . S
C618 H588 0.950 . S
C618 C617 1.524 . S
C618 C619 1.415 . S
C619 H589 0.950 . S
C619 C614 1.363 . S
C619 C618 1.415 . S
H620 C617 0.999 . S
H621 C602 0.913 . S
H622 C640 0.951 . S
H623 C642 0.951 . S
H624 C644 0.950 . S
H625 C645 0.950 . S
H626 C647 0.950 . S
H627 C650 0.950 . S
H628 C651 0.950 . S
H629 C653 0.950 . S
H630 C654 0.950 . S
H631 C655 0.951 . S
H632 C657 0.951 . S
H633 C659 0.950 . S
H634 C660 0.950 . S
H635 C662 0.950 . S
H636 C665 0.950 . S
H637 C666 0.950 . S
H638 C668 0.950 . S
H639 C669 0.951 1_565 S
C640 H622 0.951 . S
C640 C641 1.366 . S
C640 C642 1.388 . S
C641 C640 1.366 . S
C641 C645 1.385 . S
C642 H623 0.951 . S
C642 C640 1.388 . S
C642 C643 1.366 . S
C643 C642 1.366 . S
C643 C644 1.414 . S
C643 C646 1.499 . S
C644 H624 0.950 . S
C644 C643 1.414 . S
C644 C645 1.374 . S
C645 H625 0.950 . S
C645 C641 1.385 . S
C645 C644 1.374 . S
C646 C643 1.499 . S
C646 C647 1.373 . S
C646 C648 1.389 . S
C647 H626 0.950 . S
C647 C646 1.373 . S
C647 C663 1.377 . S
C648 C646 1.389 . S
C648 C649 1.524 . S
C648 C662 1.377 . S
C649 C648 1.524 . S
C649 C650 1.397 . S
C649 C654 1.363 . S
C650 H627 0.950 . S
C650 C649 1.397 . S
C650 C651 1.334 . S
C651 H628 0.950 . S
C651 C650 1.334 . S
C651 C652 1.287 . S
C652 C651 1.287 . S
C652 C653 1.524 . S
C652 H671 0.913 . S
C653 H629 0.950 . S
C653 C652 1.524 . S
C653 C654 1.415 . S
C654 H630 0.950 . S
C654 C649 1.363 . S
C654 C653 1.415 . S
C655 H631 0.951 . S
C655 C656 1.366 1_545 S
C655 C657 1.388 1_545 S
C656 C655 1.366 1_565 S
C656 C660 1.385 . S
C657 H632 0.951 . S
C657 C655 1.388 1_565 S
C657 C658 1.366 . S
C658 C657 1.366 . S
C658 C659 1.414 . S
C658 C661 1.499 . S
C659 H633 0.950 . S
C659 C658 1.414 . S
C659 C660 1.374 . S
C660 H634 0.950 . S
C660 C656 1.385 . S
C660 C659 1.374 . S
C661 C658 1.499 . S
C661 C662 1.373 . S
C661 C663 1.389 . S
C662 H635 0.950 . S
C662 C648 1.377 . S
C662 C661 1.373 . S
C663 C647 1.377 . S
C663 C661 1.389 . S
C663 C664 1.524 . S
C664 C663 1.524 . S
C664 C665 1.397 . S
C664 C669 1.363 1_565 S
C665 H636 0.950 . S
C665 C664 1.397 . S
C665 C666 1.334 1_565 S
C666 H637 0.950 . S
C666 C665 1.334 1_545 S
C666 C667 1.287 . S
C667 C666 1.287 . S
C667 C668 1.524 . S
C667 H670 0.999 . S
C668 H638 0.950 . S
C668 C667 1.524 . S
C668 C669 1.415 . S
C669 H639 0.951 1_545 S
C669 C664 1.363 1_545 S
C669 C668 1.415 . S
H670 C667 0.999 . S
H671 C652 0.913 . S
H672 C690 0.951 . S
H673 C692 0.951 . S
H674 C694 0.950 . S
H675 C695 0.958 . S
H676 C697 0.950 . S
H677 C700 0.950 . S
H678 C701 0.950 . S
H679 C703 0.950 . S
H680 C704 0.969 . S
H681 C705 0.951 . S
H682 C707 0.951 . S
H683 C709 0.950 . S
H684 C710 0.950 . S
H685 C712 0.950 . S
H686 C715 0.950 1_545 S
H687 C716 0.941 1_545 S
H688 C718 0.950 1_455 S
H689 C719 0.950 . S
C690 H672 0.951 . S
C690 C691 1.366 . S
C690 C692 1.388 . S
C691 C690 1.366 . S
C691 C695 1.385 . S
C692 H673 0.951 . S
C692 C690 1.388 . S
C692 C693 1.366 . S
C693 C692 1.366 . S
C693 C694 1.414 . S
C693 C696 1.499 . S
C694 H674 0.950 . S
C694 C693 1.414 . S
C694 C695 1.374 . S
C695 H675 0.958 . S
C695 C691 1.385 . S
C695 C694 1.374 . S
C696 C693 1.499 . S
C696 C697 1.373 . S
C696 C698 1.389 . S
C697 H676 0.950 . S
C697 C696 1.373 . S
C697 C713 1.377 . S
C698 C696 1.389 . S
C698 C699 1.524 . S
C698 C712 1.377 . S
C699 C698 1.524 . S
C699 C700 1.397 . S
C699 C704 1.363 . S
C700 H677 0.950 . S
C700 C699 1.397 . S
C700 C701 1.334 . S
C701 H678 0.950 . S
C701 C700 1.334 . S
C701 C702 1.287 . S
C702 C701 1.287 . S
C702 C703 1.524 . S
C702 H721 0.913 . S
C703 H679 0.950 . S
C703 C702 1.524 . S
C703 C704 1.415 . S
C704 H680 0.969 . S
C704 C699 1.363 . S
C704 C703 1.415 . S
C705 H681 0.951 . S
C705 C706 1.366 1_565 S
C705 C707 1.388 . S
C706 C705 1.366 1_545 S
C706 C710 1.385 . S
C707 H682 0.951 . S
C707 C705 1.388 . S
C707 C708 1.366 . S
C708 C707 1.366 . S
C708 C709 1.414 1_565 S
C708 C711 1.499 . S
C709 H683 0.950 . S
C709 C708 1.414 1_545 S
C709 C710 1.374 . S
C710 H684 0.950 . S
C710 C706 1.385 . S
C710 C709 1.374 . S
C711 C708 1.499 . S
C711 C712 1.373 . S
C711 C713 1.389 . S
C712 H685 0.950 . S
C712 C698 1.377 . S
C712 C711 1.373 . S
C713 C697 1.377 . S
C713 C711 1.389 . S
C713 C714 1.524 . S
C714 C713 1.524 . S
C714 C715 1.397 . S
C714 C719 1.363 . S
C715 H686 0.950 1_565 S
C715 C714 1.397 . S
C715 C716 1.336 . S
C716 H687 0.941 1_565 S
C716 C715 1.336 . S
C716 C717 1.294 . S
C717 C716 1.294 . S
C717 C718 1.524 . S
C717 H720 0.999 1_655 S
C718 H688 0.950 1_655 S
C718 C717 1.524 . S
C718 C719 1.415 . S
C719 H689 0.950 . S
C719 C714 1.363 . S
C719 C718 1.415 . S
H720 C717 0.999 1_455 S
H721 C702 0.913 . S
H722 C740 0.951 . S
H723 C742 0.951 . S
H724 C744 0.950 . S
H725 C745 0.950 . S
H726 C747 0.950 . S
H727 C750 0.950 . S
H728 C751 0.950 . S
H729 C753 0.950 . S
H730 C754 0.950 . S
H731 C755 0.951 . S
H732 C757 0.951 . S
H733 C759 0.950 . S
H734 C760 0.950 . S
H735 C762 0.950 . S
H736 C765 0.950 . S
H737 C766 0.950 . S
H738 C768 0.950 1_655 S
H739 C769 0.950 . S
C740 H722 0.951 . S
C740 C741 1.366 . S
C740 C742 1.388 . S
C741 C740 1.366 . S
C741 C745 1.385 . S
C742 H723 0.951 . S
C742 C740 1.388 . S
C742 C743 1.366 . S
C743 C742 1.366 . S
C743 C744 1.414 . S
C743 C746 1.499 . S
C744 H724 0.950 . S
C744 C743 1.414 . S
C744 C745 1.374 . S
C745 H725 0.950 . S
C745 C741 1.385 . S
C745 C744 1.374 . S
C746 C743 1.499 . S
C746 C747 1.373 . S
C746 C748 1.389 . S
C747 H726 0.950 . S
C747 C746 1.373 . S
C747 C763 1.377 . S
C748 C746 1.389 . S
C748 C749 1.524 . S
C748 C762 1.377 . S
C749 C748 1.524 . S
C749 C750 1.397 . S
C749 C754 1.363 . S
C750 H727 0.950 . S
C750 C749 1.397 . S
C750 C751 1.334 . S
C751 H728 0.950 . S
C751 C750 1.334 . S
C751 C752 1.287 . S
C752 C751 1.287 . S
C752 C753 1.524 . S
C752 H771 0.913 . S
C753 H729 0.950 . S
C753 C752 1.524 . S
C753 C754 1.415 . S
C754 H730 0.950 . S
C754 C749 1.363 . S
C754 C753 1.415 . S
C755 H731 0.951 . S
C755 C756 1.366 . S
C755 C757 1.388 . S
C756 C755 1.366 . S
C756 C760 1.385 . S
C757 H732 0.951 . S
C757 C755 1.388 . S
C757 C758 1.366 . S
C758 C757 1.366 . S
C758 C759 1.414 . S
C758 C761 1.499 . S
C759 H733 0.950 . S
C759 C758 1.414 . S
C759 C760 1.374 . S
C760 H734 0.950 . S
C760 C756 1.385 . S
C760 C759 1.374 . S
C761 C758 1.499 . S
C761 C762 1.373 . S
C761 C763 1.389 . S
C762 H735 0.950 . S
C762 C748 1.377 . S
C762 C761 1.373 . S
C763 C747 1.377 . S
C763 C761 1.389 . S
C763 C764 1.524 . S
C764 C763 1.524 . S
C764 C765 1.397 . S
C764 C769 1.363 . S
C765 H736 0.950 . S
C765 C764 1.397 . S
C765 C766 1.334 . S
C766 H737 0.950 . S
C766 C765 1.334 . S
C766 C767 1.287 . S
C767 C766 1.287 . S
C767 C768 1.524 . S
C767 H770 0.999 1_455 S
C768 H738 0.950 1_455 S
C768 C767 1.524 . S
C768 C769 1.415 . S
C769 H739 0.950 . S
C769 C764 1.363 . S
C769 C768 1.415 . S
H770 C767 0.999 1_655 S
H771 C752 0.913 . S
H772 C790 0.951 . S
H773 C792 0.951 . S
H774 C794 0.950 . S
H775 C795 0.950 . S
H776 C797 0.950 . S
H777 C800 0.950 . S
H778 C801 0.950 . S
H779 C803 0.950 . S
H780 C804 0.950 . S
H781 C805 0.951 . S
H782 C807 0.951 . S
H783 C809 0.950 . S
H784 C810 0.950 . S
H785 C812 0.950 . S
H786 C815 0.950 . S
H787 C816 0.950 . S
H788 C818 0.950 . S
H789 C819 0.950 . S
C790 H772 0.951 . S
C790 C791 1.366 . S
C790 C792 1.388 . S
C791 C790 1.366 . S
C791 C795 1.385 . S
C792 H773 0.951 . S
C792 C790 1.388 . S
C792 C793 1.366 . S
C793 C792 1.366 . S
C793 C794 1.414 . S
C793 C796 1.499 . S
C794 H774 0.950 . S
C794 C793 1.414 . S
C794 C795 1.374 . S
C795 H775 0.950 . S
C795 C791 1.385 . S
C795 C794 1.374 . S
C796 C793 1.499 . S
C796 C797 1.373 . S
C796 C798 1.389 . S
C797 H776 0.950 . S
C797 C796 1.373 . S
C797 C813 1.377 . S
C798 C796 1.389 . S
C798 C799 1.524 . S
C798 C812 1.377 . S
C799 C798 1.524 . S
C799 C800 1.397 . S
C799 C804 1.363 . S
C800 H777 0.950 . S
C800 C799 1.397 . S
C800 C801 1.334 . S
C801 H778 0.950 . S
C801 C800 1.334 . S
C801 C802 1.287 . S
C802 C801 1.287 . S
C802 C803 1.524 . S
C802 H821 0.913 . S
C803 H779 0.950 . S
C803 C802 1.524 . S
C803 C804 1.415 . S
C804 H780 0.950 . S
C804 C799 1.363 . S
C804 C803 1.415 . S
C805 H781 0.951 . S
C805 C806 1.366 . S
C805 C807 1.388 . S
C806 C805 1.366 . S
C806 C810 1.385 . S
C807 H782 0.951 . S
C807 C805 1.388 . S
C807 C808 1.366 . S
C808 C807 1.366 . S
C808 C809 1.414 . S
C808 C811 1.499 . S
C809 H783 0.950 . S
C809 C808 1.414 . S
C809 C810 1.374 . S
C810 H784 0.950 . S
C810 C806 1.385 . S
C810 C809 1.374 . S
C811 C808 1.499 . S
C811 C812 1.373 . S
C811 C813 1.389 . S
C812 H785 0.950 . S
C812 C798 1.377 . S
C812 C811 1.373 . S
C813 C797 1.377 . S
C813 C811 1.389 . S
C813 C814 1.524 . S
C814 C813 1.524 . S
C814 C815 1.397 . S
C814 C819 1.363 . S
C815 H786 0.950 . S
C815 C814 1.397 . S
C815 C816 1.334 . S
C816 H787 0.950 . S
C816 C815 1.334 . S
C816 C817 1.287 . S
C817 C816 1.287 . S
C817 C818 1.524 . S
C817 H820 0.999 . S
C818 H788 0.950 . S
C818 C817 1.524 . S
C818 C819 1.415 . S
C819 H789 0.950 . S
C819 C814 1.363 . S
C819 C818 1.415 . S
H820 C817 0.999 . S
H821 C802 0.913 . S
H822 C840 0.951 . S
H823 C842 0.951 . S
H824 C844 0.950 . S
H825 C845 0.950 . S
H826 C847 0.950 . S
H827 C850 0.950 . S
H828 C851 0.950 . S
H829 C853 0.950 . S
H830 C854 0.950 . S
H831 C855 0.951 . S
H832 C857 0.951 . S
H833 C859 0.950 . S
H834 C860 0.950 . S
H835 C862 0.950 . S
H836 C865 0.950 . S
H837 C866 0.950 . S
H838 C868 0.950 . S
H839 C869 0.950 . S
C840 H822 0.951 . S
C840 C841 1.366 . S
C840 C842 1.388 . S
C841 C840 1.366 . S
C841 C845 1.385 . S
C842 H823 0.951 . S
C842 C840 1.388 . S
C842 C843 1.366 . S
C843 C842 1.366 . S
C843 C844 1.414 . S
C843 C846 1.499 . S
C844 H824 0.950 . S
C844 C843 1.414 . S
C844 C845 1.374 . S
C845 H825 0.950 . S
C845 C841 1.385 . S
C845 C844 1.374 . S
C846 C843 1.499 . S
C846 C847 1.373 . S
C846 C848 1.389 . S
C847 H826 0.950 . S
C847 C846 1.373 . S
C847 C863 1.377 . S
C848 C846 1.389 . S
C848 C849 1.524 . S
C848 C862 1.377 . S
C849 C848 1.524 . S
C849 C850 1.397 . S
C849 C854 1.363 . S
C850 H827 0.950 . S
C850 C849 1.397 . S
C850 C851 1.334 . S
C851 H828 0.950 . S
C851 C850 1.334 . S
C851 C852 1.287 . S
C852 C851 1.287 . S
C852 C853 1.524 . S
C852 H871 0.913 . S
C853 H829 0.950 . S
C853 C852 1.524 . S
C853 C854 1.415 . S
C854 H830 0.950 . S
C854 C849 1.363 . S
C854 C853 1.415 . S
C855 H831 0.951 . S
C855 C856 1.366 . S
C855 C857 1.388 . S
C856 C855 1.366 . S
C856 C860 1.385 . S
C857 H832 0.951 . S
C857 C855 1.388 . S
C857 C858 1.366 . S
C858 C857 1.366 . S
C858 C859 1.414 . S
C858 C861 1.499 . S
C859 H833 0.950 . S
C859 C858 1.414 . S
C859 C860 1.374 . S
C860 H834 0.950 . S
C860 C856 1.385 . S
C860 C859 1.374 . S
C861 C858 1.499 . S
C861 C862 1.373 . S
C861 C863 1.389 . S
C862 H835 0.950 . S
C862 C848 1.377 . S
C862 C861 1.373 . S
C863 C847 1.377 . S
C863 C861 1.389 . S
C863 C864 1.524 . S
C864 C863 1.524 . S
C864 C865 1.397 . S
C864 C869 1.363 . S
C865 H836 0.950 . S
C865 C864 1.397 . S
C865 C866 1.334 . S
C866 H837 0.950 . S
C866 C865 1.334 . S
C866 C867 1.287 . S
C867 C866 1.287 . S
C867 C868 1.524 . S
C867 H870 0.999 . S
C868 H838 0.950 . S
C868 C867 1.524 . S
C868 C869 1.415 . S
C869 H839 0.950 . S
C869 C864 1.363 . S
C869 C868 1.415 . S
H870 C867 0.999 . S
H871 C852 0.913 . S
H872 C890 0.951 . S
H873 C892 0.951 . S
H874 C894 0.950 . S
H875 C895 0.950 . S
H876 C897 0.950 . S
H877 C900 0.950 . S
H878 C901 0.950 . S
H879 C903 0.950 . S
H880 C904 0.950 . S
H881 C905 0.951 . S
H882 C907 0.951 . S
H883 C909 0.950 . S
H884 C910 0.950 . S
H885 C912 0.950 . S
H886 C915 0.950 . S
H887 C916 0.950 . S
H888 C918 0.950 . S
H889 C919 0.950 . S
C890 H872 0.951 . S
C890 C891 1.366 . S
C890 C892 1.388 . S
C891 C890 1.366 . S
C891 C895 1.385 . S
C892 H873 0.951 . S
C892 C890 1.388 . S
C892 C893 1.366 . S
C893 C892 1.366 . S
C893 C894 1.414 . S
C893 C896 1.499 . S
C894 H874 0.950 . S
C894 C893 1.414 . S
C894 C895 1.374 . S
C895 H875 0.950 . S
C895 C891 1.385 . S
C895 C894 1.374 . S
C896 C893 1.499 . S
C896 C897 1.373 . S
C896 C898 1.389 . S
C897 H876 0.950 . S
C897 C896 1.373 . S
C897 C913 1.377 . S
C898 C896 1.389 . S
C898 C899 1.524 . S
C898 C912 1.377 . S
C899 C898 1.524 . S
C899 C900 1.397 . S
C899 C904 1.363 . S
C900 H877 0.950 . S
C900 C899 1.397 . S
C900 C901 1.334 . S
C901 H878 0.950 . S
C901 C900 1.334 . S
C901 C902 1.287 . S
C902 C901 1.287 . S
C902 C903 1.524 . S
C902 H921 0.913 . S
C903 H879 0.950 . S
C903 C902 1.524 . S
C903 C904 1.415 . S
C904 H880 0.950 . S
C904 C899 1.363 . S
C904 C903 1.415 . S
C905 H881 0.951 . S
C905 C906 1.366 . S
C905 C907 1.388 . S
C906 C905 1.366 . S
C906 C910 1.385 . S
C907 H882 0.951 . S
C907 C905 1.388 . S
C907 C908 1.366 . S
C908 C907 1.366 . S
C908 C909 1.414 . S
C908 C911 1.499 . S
C909 H883 0.950 . S
C909 C908 1.414 . S
C909 C910 1.374 . S
C910 H884 0.950 . S
C910 C906 1.385 . S
C910 C909 1.374 . S
C911 C908 1.499 . S
C911 C912 1.373 . S
C911 C913 1.389 . S
C912 H885 0.950 . S
C912 C898 1.377 . S
C912 C911 1.373 . S
C913 C897 1.377 . S
C913 C911 1.389 . S
C913 C914 1.524 . S
C914 C913 1.524 . S
C914 C915 1.397 . S
C914 C919 1.363 . S
C915 H886 0.950 . S
C915 C914 1.397 . S
C915 C916 1.334 . S
C916 H887 0.950 . S
C916 C915 1.334 . S
C916 C917 1.287 . S
C917 C916 1.287 . S
C917 C918 1.524 . S
C917 H920 0.999 . S
C918 H888 0.950 . S
C918 C917 1.524 . S
C918 C919 1.415 . S
C919 H889 0.950 . S
C919 C914 1.363 . S
C919 C918 1.415 . S
H920 C917 0.999 . S
H921 C902 0.913 . S
H922 C940 0.951 . S
H923 C942 0.951 . S
H924 C944 0.950 . S
H925 C945 0.950 . S
H926 C947 0.950 . S
H927 C950 0.950 . S
H928 C951 0.950 . S
H929 C953 0.950 . S
H930 C954 0.950 . S
H931 C955 0.951 . S
H932 C957 0.951 . S
H933 C959 0.950 . S
H934 C960 0.950 . S
H935 C962 0.950 . S
H936 C965 0.950 . S
H937 C966 0.950 . S
H938 C968 0.950 . S
H939 C969 0.950 . S
C940 H922 0.951 . S
C940 C941 1.366 . S
C940 C942 1.388 . S
C941 C940 1.366 . S
C941 C945 1.385 . S
C942 H923 0.951 . S
C942 C940 1.388 . S
C942 C943 1.366 . S
C943 C942 1.366 . S
C943 C944 1.414 . S
C943 C946 1.499 . S
C944 H924 0.950 . S
C944 C943 1.414 . S
C944 C945 1.374 . S
C945 H925 0.950 . S
C945 C941 1.385 . S
C945 C944 1.374 . S
C946 C943 1.499 . S
C946 C947 1.373 . S
C946 C948 1.389 . S
C947 H926 0.950 . S
C947 C946 1.373 . S
C947 C963 1.377 . S
C948 C946 1.389 . S
C948 C949 1.524 . S
C948 C962 1.377 . S
C949 C948 1.524 . S
C949 C950 1.397 . S
C949 C954 1.363 . S
C950 H927 0.950 . S
C950 C949 1.397 . S
C950 C951 1.334 . S
C951 H928 0.950 . S
C951 C950 1.334 . S
C951 C952 1.287 . S
C952 C951 1.287 . S
C952 C953 1.524 . S
C952 H971 0.913 . S
C953 H929 0.950 . S
C953 C952 1.524 . S
C953 C954 1.415 . S
C954 H930 0.950 . S
C954 C949 1.363 . S
C954 C953 1.415 . S
C955 H931 0.951 . S
C955 C956 1.366 . S
C955 C957 1.388 . S
C956 C955 1.366 . S
C956 C960 1.385 . S
C957 H932 0.951 . S
C957 C955 1.388 . S
C957 C958 1.366 . S
C958 C957 1.366 . S
C958 C959 1.414 . S
C958 C961 1.499 . S
C959 H933 0.950 . S
C959 C958 1.414 . S
C959 C960 1.374 . S
C960 H934 0.950 . S
C960 C956 1.385 . S
C960 C959 1.374 . S
C961 C958 1.499 . S
C961 C962 1.373 . S
C961 C963 1.389 . S
C962 H935 0.950 . S
C962 C948 1.377 . S
C962 C961 1.373 . S
C963 C947 1.377 . S
C963 C961 1.389 . S
C963 C964 1.524 . S
C964 C963 1.524 . S
C964 C965 1.397 . S
C964 C969 1.363 . S
C965 H936 0.950 . S
C965 C964 1.397 . S
C965 C966 1.334 . S
C966 H937 0.950 . S
C966 C965 1.334 . S
C966 C967 1.287 . S
C967 C966 1.287 . S
C967 C968 1.524 . S
C967 H970 0.999 . S
C968 H938 0.950 . S
C968 C967 1.524 . S
C968 C969 1.415 . S
C969 H939 0.950 . S
C969 C964 1.363 . S
C969 C968 1.415 . S
H970 C967 0.999 . S
H971 C952 0.913 . S
H972 C990 0.951 . S
H973 C992 0.951 . S
H974 C994 0.950 . S
H975 C995 0.950 . S
H976 C997 0.950 . S
H977 C1000 0.950 . S
H978 C1001 0.950 . S
H979 C1003 0.950 . S
H980 C1004 0.950 . S
H981 C1005 0.951 . S
H982 C1007 0.951 . S
H983 C1009 0.950 . S
H984 C1010 0.950 . S
H985 C1012 0.950 . S
H986 C1015 0.950 . S
H987 C1016 0.950 . S
H988 C1018 0.950 . S
H989 C1019 0.950 . S
C990 H972 0.951 . S
C990 C991 1.366 . S
C990 C992 1.388 . S
C991 C990 1.366 . S
C991 C995 1.385 . S
C992 H973 0.951 . S
C992 C990 1.388 . S
C992 C993 1.366 . S
C993 C992 1.366 . S
C993 C994 1.414 . S
C993 C996 1.499 . S
C994 H974 0.950 . S
C994 C993 1.414 . S
C994 C995 1.374 . S
C995 H975 0.950 . S
C995 C991 1.385 . S
C995 C994 1.374 . S
C996 C993 1.499 . S
C996 C997 1.373 . S
C996 C998 1.389 . S
C997 H976 0.950 . S
C997 C996 1.373 . S
C997 C1013 1.377 . S
C998 C996 1.389 . S
C998 C999 1.524 . S
C998 C1012 1.377 . S
C999 C998 1.524 . S
C999 C1000 1.397 . S
C999 C1004 1.363 . S
C1000 H977 0.950 . S
C1000 C999 1.397 . S
C1000 C1001 1.334 . S
C1001 H978 0.950 . S
C1001 C1000 1.334 . S
C1001 C1002 1.287 . S
C1002 C1001 1.287 . S
C1002 C1003 1.524 . S
C1002 H1021 0.913 . S
C1003 H979 0.950 . S
C1003 C1002 1.524 . S
C1003 C1004 1.415 . S
C1004 H980 0.950 . S
C1004 C999 1.363 . S
C1004 C1003 1.415 . S
C1005 H981 0.951 . S
C1005 C1006 1.366 . S
C1005 C1007 1.388 . S
C1006 C1005 1.366 . S
C1006 C1010 1.385 . S
C1007 H982 0.951 . S
C1007 C1005 1.388 . S
C1007 C1008 1.366 . S
C1008 C1007 1.366 . S
C1008 C1009 1.414 . S
C1008 C1011 1.499 . S
C1009 H983 0.950 . S
C1009 C1008 1.414 . S
C1009 C1010 1.374 . S
C1010 H984 0.950 . S
C1010 C1006 1.385 . S
C1010 C1009 1.374 . S
C1011 C1008 1.499 . S
C1011 C1012 1.373 . S
C1011 C1013 1.389 . S
C1012 H985 0.950 . S
C1012 C998 1.377 . S
C1012 C1011 1.373 . S
C1013 C997 1.377 . S
C1013 C1011 1.389 . S
C1013 C1014 1.524 . S
C1014 C1013 1.524 . S
C1014 C1015 1.397 . S
C1014 C1019 1.363 . S
C1015 H986 0.950 . S
C1015 C1014 1.397 . S
C1015 C1016 1.334 . S
C1016 H987 0.950 . S
C1016 C1015 1.334 . S
C1016 C1017 1.287 . S
C1017 C1016 1.287 . S
C1017 C1018 1.524 . S
C1017 H1020 0.999 . S
C1018 H988 0.950 . S
C1018 C1017 1.524 . S
C1018 C1019 1.415 . S
C1019 H989 0.950 . S
C1019 C1014 1.363 . S
C1019 C1018 1.415 . S
H1020 C1017 0.999 . S
H1021 C1002 0.913 . S
H1022 C1040 0.951 . S
H1023 C1042 0.951 . S
H1024 C1044 0.950 . S
H1025 C1045 0.950 . S
H1026 C1047 0.950 . S
H1027 C1050 0.950 . S
H1028 C1051 0.950 . S
H1029 C1053 0.950 . S
H1030 C1054 0.950 . S
H1031 C1055 0.951 . S
H1032 C1057 0.951 . S
H1033 C1059 0.950 . S
H1034 C1060 0.950 . S
H1035 C1062 0.950 . S
H1036 C1065 0.950 . S
H1037 C1066 0.950 . S
H1038 C1068 0.950 . S
H1039 C1069 0.950 . S
C1040 H1022 0.951 . S
C1040 C1041 1.366 . S
C1040 C1042 1.388 . S
C1041 C1040 1.366 . S
C1041 C1045 1.385 . S
C1042 H1023 0.951 . S
C1042 C1040 1.388 . S
C1042 C1043 1.366 . S
C1043 C1042 1.366 . S
C1043 C1044 1.414 . S
C1043 C1046 1.499 . S
C1044 H1024 0.950 . S
C1044 C1043 1.414 . S
C1044 C1045 1.374 . S
C1045 H1025 0.950 . S
C1045 C1041 1.385 . S
C1045 C1044 1.374 . S
C1046 C1043 1.499 . S
C1046 C1047 1.373 . S
C1046 C1048 1.389 . S
C1047 H1026 0.950 . S
C1047 C1046 1.373 . S
C1047 C1063 1.377 . S
C1048 C1046 1.389 . S
C1048 C1049 1.524 . S
C1048 C1062 1.377 . S
C1049 C1048 1.524 . S
C1049 C1050 1.397 . S
C1049 C1054 1.363 . S
C1050 H1027 0.950 . S
C1050 C1049 1.397 . S
C1050 C1051 1.334 . S
C1051 H1028 0.950 . S
C1051 C1050 1.334 . S
C1051 C1052 1.287 . S
C1052 C1051 1.287 . S
C1052 C1053 1.524 . S
C1052 H1071 0.913 . S
C1053 H1029 0.950 . S
C1053 C1052 1.524 . S
C1053 C1054 1.415 . S
C1054 H1030 0.950 . S
C1054 C1049 1.363 . S
C1054 C1053 1.415 . S
C1055 H1031 0.951 . S
C1055 C1056 1.366 . S
C1055 C1057 1.388 . S
C1056 C1055 1.366 . S
C1056 C1060 1.385 . S
C1057 H1032 0.951 . S
C1057 C1055 1.388 . S
C1057 C1058 1.366 . S
C1058 C1057 1.366 . S
C1058 C1059 1.414 . S
C1058 C1061 1.499 . S
C1059 H1033 0.950 . S
C1059 C1058 1.414 . S
C1059 C1060 1.374 . S
C1060 H1034 0.950 . S
C1060 C1056 1.385 . S
C1060 C1059 1.374 . S
C1061 C1058 1.499 . S
C1061 C1062 1.373 . S
C1061 C1063 1.389 . S
C1062 H1035 0.950 . S
C1062 C1048 1.377 . S
C1062 C1061 1.373 . S
C1063 C1047 1.377 . S
C1063 C1061 1.389 . S
C1063 C1064 1.524 . S
C1064 C1063 1.524 . S
C1064 C1065 1.397 . S
C1064 C1069 1.363 . S
C1065 H1036 0.950 . S
C1065 C1064 1.397 . S
C1065 C1066 1.334 . S
C1066 H1037 0.950 . S
C1066 C1065 1.334 . S
C1066 C1067 1.287 . S
C1067 C1066 1.287 . S
C1067 C1068 1.524 . S
C1067 H1070 0.999 . S
C1068 H1038 0.950 . S
C1068 C1067 1.524 . S
C1068 C1069 1.415 . S
C1069 H1039 0.950 . S
C1069 C1064 1.363 . S
C1069 C1068 1.415 . S
H1070 C1067 0.999 . S
H1071 C1052 0.913 . S
H1072 C1090 0.951 . S
H1073 C1092 0.951 . S
H1074 C1094 0.950 . S
H1075 C1095 0.950 . S
H1076 C1097 0.950 . S
H1077 C1100 0.950 . S
H1078 C1101 0.950 . S
H1079 C1103 0.950 . S
H1080 C1104 0.950 . S
H1081 C1105 0.951 . S
H1082 C1107 0.951 . S
H1083 C1109 0.950 . S
H1084 C1110 0.950 . S
H1085 C1112 0.950 . S
H1086 C1115 0.950 . S
H1087 C1116 0.950 . S
H1088 C1118 0.950 . S
H1089 C1119 0.950 . S
C1090 H1072 0.951 . S
C1090 C1091 1.366 . S
C1090 C1092 1.388 . S
C1091 C1090 1.366 . S
C1091 C1095 1.385 . S
C1092 H1073 0.951 . S
C1092 C1090 1.388 . S
C1092 C1093 1.366 . S
C1093 C1092 1.366 . S
C1093 C1094 1.414 . S
C1093 C1096 1.499 . S
C1094 H1074 0.950 . S
C1094 C1093 1.414 . S
C1094 C1095 1.374 . S
C1095 H1075 0.950 . S
C1095 C1091 1.385 . S
C1095 C1094 1.374 . S
C1096 C1093 1.499 . S
C1096 C1097 1.373 . S
C1096 C1098 1.389 . S
C1097 H1076 0.950 . S
C1097 C1096 1.373 . S
C1097 C1113 1.377 . S
C1098 C1096 1.389 . S
C1098 C1099 1.524 . S
C1098 C1112 1.377 . S
C1099 C1098 1.524 . S
C1099 C1100 1.397 . S
C1099 C1104 1.363 . S
C1100 H1077 0.950 . S
C1100 C1099 1.397 . S
C1100 C1101 1.334 . S
C1101 H1078 0.950 . S
C1101 C1100 1.334 . S
C1101 C1102 1.287 . S
C1102 C1101 1.287 . S
C1102 C1103 1.524 . S
C1102 H1121 0.913 . S
C1103 H1079 0.950 . S
C1103 C1102 1.524 . S
C1103 C1104 1.415 . S
C1104 H1080 0.950 . S
C1104 C1099 1.363 . S
C1104 C1103 1.415 . S
C1105 H1081 0.951 . S
C1105 C1106 1.366 . S
C1105 C1107 1.388 . S
C1106 C1105 1.366 . S
C1106 C1110 1.385 . S
C1107 H1082 0.951 . S
C1107 C1105 1.388 . S
C1107 C1108 1.366 . S
C1108 C1107 1.366 . S
C1108 C1109 1.414 . S
C1108 C1111 1.499 . S
C1109 H1083 0.950 . S
C1109 C1108 1.414 . S
C1109 C1110 1.374 . S
C1110 H1084 0.950 . S
C1110 C1106 1.385 . S
C1110 C1109 1.374 . S
C1111 C1108 1.499 . S
C1111 C1112 1.373 . S
C1111 C1113 1.389 . S
C1112 H1085 0.950 . S
C1112 C1098 1.377 . S
C1112 C1111 1.373 . S
C1113 C1097 1.377 . S
C1113 C1111 1.389 . S
C1113 C1114 1.524 . S
C1114 C1113 1.524 . S
C1114 C1115 1.397 . S
C1114 C1119 1.363 . S
C1115 H1086 0.950 . S
C1115 C1114 1.397 . S
C1115 C1116 1.334 . S
C1116 H1087 0.950 . S
C1116 C1115 1.334 . S
C1116 C1117 1.287 . S
C1117 C1116 1.287 . S
C1117 C1118 1.524 . S
C1117 H1120 0.999 . S
C1118 H1088 0.950 . S
C1118 C1117 1.524 . S
C1118 C1119 1.415 . S
C1119 H1089 0.950 . S
C1119 C1114 1.363 . S
C1119 C1118 1.415 . S
H1120 C1117 0.999 . S
H1121 C1102 0.913 . S
H1122 C1140 0.951 . S
H1123 C1142 0.951 . S
H1124 C1144 0.950 . S
H1125 C1145 0.950 . S
H1126 C1147 0.950 . S
H1127 C1150 0.950 . S
H1128 C1151 0.950 . S
H1129 C1153 0.950 . S
H1130 C1154 0.950 . S
H1131 C1155 0.951 . S
H1132 C1157 0.951 . S
H1133 C1159 0.950 . S
H1134 C1160 0.950 . S
H1135 C1162 0.950 . S
H1136 C1165 0.950 . S
H1137 C1166 0.950 . S
H1138 C1168 0.950 . S
H1139 C1169 0.950 . S
C1140 H1122 0.951 . S
C1140 C1141 1.366 . S
C1140 C1142 1.388 . S
C1141 C1140 1.366 . S
C1141 C1145 1.385 . S
C1142 H1123 0.951 . S
C1142 C1140 1.388 . S
C1142 C1143 1.366 . S
C1143 C1142 1.366 . S
C1143 C1144 1.414 . S
C1143 C1146 1.499 . S
C1144 H1124 0.950 . S
C1144 C1143 1.414 . S
C1144 C1145 1.374 . S
C1145 H1125 0.950 . S
C1145 C1141 1.385 . S
C1145 C1144 1.374 . S
C1146 C1143 1.499 . S
C1146 C1147 1.373 . S
C1146 C1148 1.389 . S
C1147 H1126 0.950 . S
C1147 C1146 1.373 . S
C1147 C1163 1.377 . S
C1148 C1146 1.389 . S
C1148 C1149 1.524 . S
C1148 C1162 1.377 . S
C1149 C1148 1.524 . S
C1149 C1150 1.397 . S
C1149 C1154 1.363 . S
C1150 H1127 0.950 . S
C1150 C1149 1.397 . S
C1150 C1151 1.334 . S
C1151 H1128 0.950 . S
C1151 C1150 1.334 . S
C1151 C1152 1.287 . S
C1152 C1151 1.287 . S
C1152 C1153 1.524 . S
C1152 H1171 0.913 . S
C1153 H1129 0.950 . S
C1153 C1152 1.524 . S
C1153 C1154 1.415 . S
C1154 H1130 0.950 . S
C1154 C1149 1.363 . S
C1154 C1153 1.415 . S
C1155 H1131 0.951 . S
C1155 C1156 1.366 . S
C1155 C1157 1.388 . S
C1156 C1155 1.366 . S
C1156 C1160 1.385 . S
C1157 H1132 0.951 . S
C1157 C1155 1.388 . S
C1157 C1158 1.366 . S
C1158 C1157 1.366 . S
C1158 C1159 1.414 . S
C1158 C1161 1.499 . S
C1159 H1133 0.950 . S
C1159 C1158 1.414 . S
C1159 C1160 1.374 . S
C1160 H1134 0.950 . S
C1160 C1156 1.385 . S
C1160 C1159 1.374 . S
C1161 C1158 1.499 . S
C1161 C1162 1.373 . S
C1161 C1163 1.389 . S
C1162 H1135 0.950 . S
C1162 C1148 1.377 . S
C1162 C1161 1.373 . S
C1163 C1147 1.377 . S
C1163 C1161 1.389 . S
C1163 C1164 1.524 . S
C1164 C1163 1.524 . S
C1164 C1165 1.397 . S
C1164 C1169 1.363 . S
C1165 H1136 0.950 . S
C1165 C1164 1.397 . S
C1165 C1166 1.334 . S
C1166 H1137 0.950 . S
C1166 C1165 1.334 . S
C1166 C1167 1.287 . S
C1167 C1166 1.287 . S
C1167 C1168 1.524 . S
C1167 H1170 0.999 . S
C1168 H1138 0.950 . S
C1168 C1167 1.524 . S
C1168 C1169 1.415 . S
C1169 H1139 0.950 . S
C1169 C1164 1.363 . S
C1169 C1168 1.415 . S
H1170 C1167 0.999 . S
H1171 C1152 0.913 . S
H1172 C1190 0.951 . S
H1173 C1192 0.951 . S
H1174 C1194 0.950 . S
H1175 C1195 0.950 . S
H1176 C1197 0.950 . S
H1177 C1200 0.950 . S
H1178 C1201 0.950 . S
H1179 C1203 0.950 . S
H1180 C1204 0.950 . S
H1181 C1205 0.951 . S
H1182 C1207 0.951 . S
H1183 C1209 0.950 . S
H1184 C1210 0.950 . S
H1185 C1212 0.950 . S
H1186 C1215 0.950 . S
H1187 C1216 0.950 . S
H1188 C1218 0.950 . S
H1189 C1219 0.950 . S
C1190 H1172 0.951 . S
C1190 C1191 1.366 . S
C1190 C1192 1.388 . S
C1191 C1190 1.366 . S
C1191 C1195 1.385 . S
C1192 H1173 0.951 . S
C1192 C1190 1.388 . S
C1192 C1193 1.366 . S
C1193 C1192 1.366 . S
C1193 C1194 1.414 . S
C1193 C1196 1.499 . S
C1194 H1174 0.950 . S
C1194 C1193 1.414 . S
C1194 C1195 1.374 . S
C1195 H1175 0.950 . S
C1195 C1191 1.385 . S
C1195 C1194 1.374 . S
C1196 C1193 1.499 . S
C1196 C1197 1.373 . S
C1196 C1198 1.389 . S
C1197 H1176 0.950 . S
C1197 C1196 1.373 . S
C1197 C1213 1.377 . S
C1198 C1196 1.389 . S
C1198 C1199 1.524 . S
C1198 C1212 1.377 . S
C1199 C1198 1.524 . S
C1199 C1200 1.397 . S
C1199 C1204 1.363 . S
C1200 H1177 0.950 . S
C1200 C1199 1.397 . S
C1200 C1201 1.334 . S
C1201 H1178 0.950 . S
C1201 C1200 1.334 . S
C1201 C1202 1.287 . S
C1202 C1201 1.287 . S
C1202 C1203 1.524 . S
C1202 H1221 0.913 . S
C1203 H1179 0.950 . S
C1203 C1202 1.524 . S
C1203 C1204 1.415 . S
C1204 H1180 0.950 . S
C1204 C1199 1.363 . S
C1204 C1203 1.415 . S
C1205 H1181 0.951 . S
C1205 C1206 1.366 . S
C1205 C1207 1.388 . S
C1206 C1205 1.366 . S
C1206 C1210 1.385 . S
C1207 H1182 0.951 . S
C1207 C1205 1.388 . S
C1207 C1208 1.366 . S
C1208 C1207 1.366 . S
C1208 C1209 1.414 . S
C1208 C1211 1.499 . S
C1209 H1183 0.950 . S
C1209 C1208 1.414 . S
C1209 C1210 1.374 . S
C1210 H1184 0.950 . S
C1210 C1206 1.385 . S
C1210 C1209 1.374 . S
C1211 C1208 1.499 . S
C1211 C1212 1.373 . S
C1211 C1213 1.389 . S
C1212 H1185 0.950 . S
C1212 C1198 1.377 . S
C1212 C1211 1.373 . S
C1213 C1197 1.377 . S
C1213 C1211 1.389 . S
C1213 C1214 1.524 . S
C1214 C1213 1.524 . S
C1214 C1215 1.397 . S
C1214 C1219 1.363 . S
C1215 H1186 0.950 . S
C1215 C1214 1.397 . S
C1215 C1216 1.334 . S
C1216 H1187 0.950 . S
C1216 C1215 1.334 . S
C1216 C1217 1.287 . S
C1217 C1216 1.287 . S
C1217 C1218 1.524 . S
C1217 H1220 0.999 . S
C1218 H1188 0.950 . S
C1218 C1217 1.524 . S
C1218 C1219 1.415 . S
C1219 H1189 0.950 . S
C1219 C1214 1.363 . S
C1219 C1218 1.415 . S
H1220 C1217 0.999 . S
H1221 C1202 0.913 . S
H1222 C1240 0.951 . S
H1223 C1242 0.951 . S
H1224 C1244 0.950 . S
H1225 C1245 0.950 . S
H1226 C1247 0.950 . S
H1227 C1250 0.950 . S
H1228 C1251 0.950 . S
H1229 C1253 0.950 . S
H1230 C1254 0.950 . S
H1231 C1255 0.951 . S
H1232 C1257 0.951 . S
H1233 C1259 0.950 . S
H1234 C1260 0.950 . S
H1235 C1262 0.950 . S
H1236 C1265 0.950 . S
H1237 C1266 0.950 . S
H1238 C1268 0.950 . S
H1239 C1269 0.950 . S
C1240 H1222 0.951 . S
C1240 C1241 1.366 . S
C1240 C1242 1.388 . S
C1241 C1240 1.366 . S
C1241 C1245 1.385 . S
C1242 H1223 0.951 . S
C1242 C1240 1.388 . S
C1242 C1243 1.366 . S
C1243 C1242 1.366 . S
C1243 C1244 1.414 . S
C1243 C1246 1.499 . S
C1244 H1224 0.950 . S
C1244 C1243 1.414 . S
C1244 C1245 1.374 . S
C1245 H1225 0.950 . S
C1245 C1241 1.385 . S
C1245 C1244 1.374 . S
C1246 C1243 1.499 . S
C1246 C1247 1.373 . S
C1246 C1248 1.389 . S
C1247 H1226 0.950 . S
C1247 C1246 1.373 . S
C1247 C1263 1.377 . S
C1248 C1246 1.389 . S
C1248 C1249 1.524 . S
C1248 C1262 1.377 . S
C1249 C1248 1.524 . S
C1249 C1250 1.397 . S
C1249 C1254 1.363 . S
C1250 H1227 0.950 . S
C1250 C1249 1.397 . S
C1250 C1251 1.334 . S
C1251 H1228 0.950 . S
C1251 C1250 1.334 . S
C1251 C1252 1.287 . S
C1252 C1251 1.287 . S
C1252 C1253 1.524 . S
C1252 H1271 0.913 . S
C1253 H1229 0.950 . S
C1253 C1252 1.524 . S
C1253 C1254 1.415 . S
C1254 H1230 0.950 . S
C1254 C1249 1.363 . S
C1254 C1253 1.415 . S
C1255 H1231 0.951 . S
C1255 C1256 1.366 . S
C1255 C1257 1.388 . S
C1256 C1255 1.366 . S
C1256 C1260 1.385 . S
C1257 H1232 0.951 . S
C1257 C1255 1.388 . S
C1257 C1258 1.366 . S
C1258 C1257 1.366 . S
C1258 C1259 1.414 . S
C1258 C1261 1.499 . S
C1259 H1233 0.950 . S
C1259 C1258 1.414 . S
C1259 C1260 1.374 . S
C1260 H1234 0.950 . S
C1260 C1256 1.385 . S
C1260 C1259 1.374 . S
C1261 C1258 1.499 . S
C1261 C1262 1.373 . S
C1261 C1263 1.389 . S
C1262 H1235 0.950 . S
C1262 C1248 1.377 . S
C1262 C1261 1.373 . S
C1263 C1247 1.377 . S
C1263 C1261 1.389 . S
C1263 C1264 1.524 . S
C1264 C1263 1.524 . S
C1264 C1265 1.397 . S
C1264 C1269 1.363 . S
C1265 H1236 0.950 . S
C1265 C1264 1.397 . S
C1265 C1266 1.334 . S
C1266 H1237 0.950 . S
C1266 C1265 1.334 . S
C1266 C1267 1.287 . S
C1267 C1266 1.287 . S
C1267 C1268 1.524 . S
C1267 H1270 0.999 . S
C1268 H1238 0.950 . S
C1268 C1267 1.524 . S
C1268 C1269 1.415 . S
C1269 H1239 0.950 . S
C1269 C1264 1.363 . S
C1269 C1268 1.415 . S
H1270 C1267 0.999 . S
H1271 C1252 0.913 . S
C291 C145 1.476 . S
C306 C9 1.476 . S
C341 C43 1.477 . S
C356 C179 1.477 . S
C391 C77 1.477 . S
C406 C213 1.477 . S
C441 C247 1.476 . S
C456 C111 1.476 . S
C491 C243 0.597 . S
C506 C33 0.594 . S
C541 C141 0.595 . S
C556 C67 0.593 . S
C591 C175 0.595 . S
C606 C101 0.595 . S
C641 C209 0.596 . S
C656 C135 0.593 . S
C691 C169 0.595 . S
C706 C107 0.596 . S
C741 C203 0.594 . S
C756 C5 0.595 . S
C791 C237 0.594 . S
C806 C39 0.594 . S
C841 C271 0.594 . S
C856 C73 0.596 . S
C891 C20 1.232 . S
C906 C88 1.232 . S
C941 C54 1.231 . S
C956 C122 1.231 . S
C991 C224 1.232 . S
C1006 C156 1.231 . S
C1041 C258 1.231 . S
C1056 C190 1.231 . S
C1091 C70 0.979 . S
C1106 C2 0.981 . S
C1141 C36 0.980 . S
C1156 C104 0.981 . S
C1191 C206 0.980 . S
C1206 C138 0.980 . S
C1241 C240 0.980 . S
C1256 C172 0.981 . S
