# Generated by pormake.
# Topology vbb, (4)-cn, num edge types: 1
# Building blocks:
#     Node 0, Type 0, BuildingBlock: QUQFOY_clean_sbu_1, # of connection points: 4
#     Node 1, Type 0, BuildingBlock: QUQFOY_clean_sbu_1, # of connection points: 4
#     Node 2, Type 0, BuildingBlock: QUQFOY_clean_sbu_1, # of connection points: 4
#     Node 3, Type 0, BuildingBlock: QUQFOY_clean_sbu_1, # of connection points: 4
#     Node 4, Type 0, BuildingBlock: QUQFOY_clean_sbu_1, # of connection points: 4
#     Node 5, Type 0, BuildingBlock: QUQFOY_clean_sbu_1, # of connection points: 4
#     Node 6, Type 0, BuildingBlock: QUQFOY_clean_sbu_1, # of connection points: 4
#     Node 7, Type 0, BuildingBlock: QUQFOY_clean_sbu_1, # of connection points: 4
#     Node 8, Type 0, BuildingBlock: QUQFOY_clean_sbu_1, # of connection points: 4
#     Node 9, Type 0, BuildingBlock: QUQFOY_clean_sbu_1, # of connection points: 4
#     Node 10, Type 0, BuildingBlock: QUQFOY_clean_sbu_1, # of connection points: 4
#     Node 11, Type 0, BuildingBlock: QUQFOY_clean_sbu_1, # of connection points: 4
#     Node 12, Type 0, BuildingBlock: QUQFOY_clean_sbu_1, # of connection points: 4
#     Node 13, Type 0, BuildingBlock: QUQFOY_clean_sbu_1, # of connection points: 4
#     Node 14, Type 0, BuildingBlock: QUQFOY_clean_sbu_1, # of connection points: 4
#     Node 15, Type 0, BuildingBlock: QUQFOY_clean_sbu_1, # of connection points: 4
#     Node 16, Type 0, BuildingBlock: QUQFOY_clean_sbu_1, # of connection points: 4
#     Node 17, Type 0, BuildingBlock: QUQFOY_clean_sbu_1, # of connection points: 4
#     Node 18, Type 0, BuildingBlock: QUQFOY_clean_sbu_1, # of connection points: 4
#     Node 19, Type 0, BuildingBlock: QUQFOY_clean_sbu_1, # of connection points: 4
#     Node 20, Type 0, BuildingBlock: QUQFOY_clean_sbu_1, # of connection points: 4
#     Node 21, Type 0, BuildingBlock: QUQFOY_clean_sbu_1, # of connection points: 4
#     Node 22, Type 0, BuildingBlock: QUQFOY_clean_sbu_1, # of connection points: 4
#     Node 23, Type 0, BuildingBlock: QUQFOY_clean_sbu_1, # of connection points: 4
#     Node 24, Type 0, BuildingBlock: QUQFOY_clean_sbu_1, # of connection points: 4
#     Node 25, Type 0, BuildingBlock: QUQFOY_clean_sbu_1, # of connection points: 4
#     Node 26, Type 0, BuildingBlock: QUQFOY_clean_sbu_1, # of connection points: 4
#     Node 27, Type 0, BuildingBlock: QUQFOY_clean_sbu_1, # of connection points: 4
#     Node 28, Type 0, BuildingBlock: QUQFOY_clean_sbu_1, # of connection points: 4
#     Node 29, Type 0, BuildingBlock: QUQFOY_clean_sbu_1, # of connection points: 4
#     Node 30, Type 0, BuildingBlock: QUQFOY_clean_sbu_1, # of connection points: 4
#     Node 31, Type 0, BuildingBlock: QUQFOY_clean_sbu_1, # of connection points: 4
#     Edge 32, Type (0, 0), BuildingBlock: XIVTED_clean_linker_0, # of connection points: 2
#     Edge 33, Type (0, 0), BuildingBlock: XIVTED_clean_linker_0, # of connection points: 2
#     Edge 34, Type (0, 0), BuildingBlock: XIVTED_clean_linker_0, # of connection points: 2
#     Edge 35, Type (0, 0), BuildingBlock: XIVTED_clean_linker_0, # of connection points: 2
#     Edge 36, Type (0, 0), BuildingBlock: XIVTED_clean_linker_0, # of connection points: 2
#     Edge 37, Type (0, 0), BuildingBlock: XIVTED_clean_linker_0, # of connection points: 2
#     Edge 38, Type (0, 0), BuildingBlock: XIVTED_clean_linker_0, # of connection points: 2
#     Edge 39, Type (0, 0), BuildingBlock: XIVTED_clean_linker_0, # of connection points: 2
#     Edge 40, Type (0, 0), BuildingBlock: XIVTED_clean_linker_0, # of connection points: 2
#     Edge 41, Type (0, 0), BuildingBlock: XIVTED_clean_linker_0, # of connection points: 2
#     Edge 42, Type (0, 0), BuildingBlock: XIVTED_clean_linker_0, # of connection points: 2
#     Edge 43, Type (0, 0), BuildingBlock: XIVTED_clean_linker_0, # of connection points: 2
#     Edge 44, Type (0, 0), BuildingBlock: XIVTED_clean_linker_0, # of connection points: 2
#     Edge 45, Type (0, 0), BuildingBlock: XIVTED_clean_linker_0, # of connection points: 2
#     Edge 46, Type (0, 0), BuildingBlock: XIVTED_clean_linker_0, # of connection points: 2
#     Edge 47, Type (0, 0), BuildingBlock: XIVTED_clean_linker_0, # of connection points: 2
#     Edge 48, Type (0, 0), BuildingBlock: XIVTED_clean_linker_0, # of connection points: 2
#     Edge 49, Type (0, 0), BuildingBlock: XIVTED_clean_linker_0, # of connection points: 2
#     Edge 50, Type (0, 0), BuildingBlock: XIVTED_clean_linker_0, # of connection points: 2
#     Edge 51, Type (0, 0), BuildingBlock: XIVTED_clean_linker_0, # of connection points: 2
#     Edge 52, Type (0, 0), BuildingBlock: XIVTED_clean_linker_0, # of connection points: 2
#     Edge 53, Type (0, 0), BuildingBlock: XIVTED_clean_linker_0, # of connection points: 2
#     Edge 54, Type (0, 0), BuildingBlock: XIVTED_clean_linker_0, # of connection points: 2
#     Edge 55, Type (0, 0), BuildingBlock: XIVTED_clean_linker_0, # of connection points: 2
#     Edge 56, Type (0, 0), BuildingBlock: XIVTED_clean_linker_0, # of connection points: 2
#     Edge 57, Type (0, 0), BuildingBlock: XIVTED_clean_linker_0, # of connection points: 2
#     Edge 58, Type (0, 0), BuildingBlock: XIVTED_clean_linker_0, # of connection points: 2
#     Edge 59, Type (0, 0), BuildingBlock: XIVTED_clean_linker_0, # of connection points: 2
#     Edge 60, Type (0, 0), BuildingBlock: XIVTED_clean_linker_0, # of connection points: 2
#     Edge 61, Type (0, 0), BuildingBlock: XIVTED_clean_linker_0, # of connection points: 2
#     Edge 62, Type (0, 0), BuildingBlock: XIVTED_clean_linker_0, # of connection points: 2
#     Edge 63, Type (0, 0), BuildingBlock: XIVTED_clean_linker_0, # of connection points: 2
#     Edge 64, Type (0, 0), BuildingBlock: XIVTED_clean_linker_0, # of connection points: 2
#     Edge 65, Type (0, 0), BuildingBlock: XIVTED_clean_linker_0, # of connection points: 2
#     Edge 66, Type (0, 0), BuildingBlock: XIVTED_clean_linker_0, # of connection points: 2
#     Edge 67, Type (0, 0), BuildingBlock: XIVTED_clean_linker_0, # of connection points: 2
#     Edge 68, Type (0, 0), BuildingBlock: XIVTED_clean_linker_0, # of connection points: 2
#     Edge 69, Type (0, 0), BuildingBlock: XIVTED_clean_linker_0, # of connection points: 2
#     Edge 70, Type (0, 0), BuildingBlock: XIVTED_clean_linker_0, # of connection points: 2
#     Edge 71, Type (0, 0), BuildingBlock: XIVTED_clean_linker_0, # of connection points: 2
#     Edge 72, Type (0, 0), BuildingBlock: XIVTED_clean_linker_0, # of connection points: 2
#     Edge 73, Type (0, 0), BuildingBlock: XIVTED_clean_linker_0, # of connection points: 2
#     Edge 74, Type (0, 0), BuildingBlock: XIVTED_clean_linker_0, # of connection points: 2
#     Edge 75, Type (0, 0), BuildingBlock: XIVTED_clean_linker_0, # of connection points: 2
#     Edge 76, Type (0, 0), BuildingBlock: XIVTED_clean_linker_0, # of connection points: 2
#     Edge 77, Type (0, 0), BuildingBlock: XIVTED_clean_linker_0, # of connection points: 2
#     Edge 78, Type (0, 0), BuildingBlock: XIVTED_clean_linker_0, # of connection points: 2
#     Edge 79, Type (0, 0), BuildingBlock: XIVTED_clean_linker_0, # of connection points: 2
#     Edge 80, Type (0, 0), BuildingBlock: XIVTED_clean_linker_0, # of connection points: 2
#     Edge 81, Type (0, 0), BuildingBlock: XIVTED_clean_linker_0, # of connection points: 2
#     Edge 82, Type (0, 0), BuildingBlock: XIVTED_clean_linker_0, # of connection points: 2
#     Edge 83, Type (0, 0), BuildingBlock: XIVTED_clean_linker_0, # of connection points: 2
#     Edge 84, Type (0, 0), BuildingBlock: XIVTED_clean_linker_0, # of connection points: 2
#     Edge 85, Type (0, 0), BuildingBlock: XIVTED_clean_linker_0, # of connection points: 2
#     Edge 86, Type (0, 0), BuildingBlock: XIVTED_clean_linker_0, # of connection points: 2
#     Edge 87, Type (0, 0), BuildingBlock: XIVTED_clean_linker_0, # of connection points: 2
#     Edge 88, Type (0, 0), BuildingBlock: XIVTED_clean_linker_0, # of connection points: 2
#     Edge 89, Type (0, 0), BuildingBlock: XIVTED_clean_linker_0, # of connection points: 2
#     Edge 90, Type (0, 0), BuildingBlock: XIVTED_clean_linker_0, # of connection points: 2
#     Edge 91, Type (0, 0), BuildingBlock: XIVTED_clean_linker_0, # of connection points: 2
#     Edge 92, Type (0, 0), BuildingBlock: XIVTED_clean_linker_0, # of connection points: 2
#     Edge 93, Type (0, 0), BuildingBlock: XIVTED_clean_linker_0, # of connection points: 2
#     Edge 94, Type (0, 0), BuildingBlock: XIVTED_clean_linker_0, # of connection points: 2
#     Edge 95, Type (0, 0), BuildingBlock: XIVTED_clean_linker_0, # of connection points: 2
# Relax obj value: 0.072
# Max RMSD: 0.229
# Mean RMSD: 0.229
data_MOF--net-vbb--node1-QUQFOY_clean_sbu_1--edge1-XIVTED_clean_linker_0
_symmetry_space_group_name_H-M    P1
_symmetry_Int_Tables_number       1
_symmetry_cell_setting            triclinic
loop_
_symmetry_equiv_pos_as_xyz
'x, y, z'
_cell_length_a     44.753393
_cell_length_b     38.702705
_cell_length_c     107.98145
_cell_angle_alpha  90.019243
_cell_angle_beta   89.991753
_cell_angle_gamma 90.009753
loop_
_atom_site_label
_atom_site_type_symbol
_atom_site_fract_x
_atom_site_fract_y
_atom_site_fract_z
_atom_type_partial_charge
O0 O 0.4941 1.00342 0.07659 0.0
Cd1 Cd 0.49198 1.00119 0.09557 0.0
Cd2 Cd 0.46758 0.06665 0.09184 0.0
O3 O 0.46439 0.0484 0.07345 0.0
O4 O 0.48435 0.95174 0.10129 0.0
O5 O 0.45079 0.99336 0.10176 0.0
C6 C 0.45719 0.96139 0.10349 0.0
C7 C 0.4325 0.08615 0.10647 0.0
C8 C 0.47993 0.0232 0.06923 0.0
C9 C 0.52865 0.06211 0.10338 0.0
O10 O 0.50972 0.07982 0.09734 0.0
O11 O 0.52466 0.02975 0.10505 0.0
O12 O 0.44095 0.10628 0.09757 0.0
O13 O 0.4414 0.05462 0.10612 0.0
O14 O 0.75168 0.25225 0.07706 0.0
Cd15 Cd 0.75401 0.25385 0.09603 0.0
Cd16 Cd 0.77849 0.18845 0.0918 0.0
O17 O 0.78159 0.20766 0.07353 0.0
O18 O 0.76079 0.30344 0.10185 0.0
O19 O 0.79513 0.2627 0.10213 0.0
C20 C 0.78817 0.29446 0.10394 0.0
C21 C 0.81352 0.17019 0.10664 0.0
C22 C 0.76588 0.23299 0.06953 0.0
C23 C 0.71766 0.19218 0.10349 0.0
O24 O 0.73643 0.17487 0.09721 0.0
O25 O 0.72171 0.22443 0.10544 0.0
O26 O 0.80578 0.14961 0.09776 0.0
O27 O 0.8039 0.20141 0.10617 0.0
O28 O 0.49333 0.25158 0.22093 0.0
Cd29 Cd 0.49064 0.2536 0.20198 0.0
Cd30 Cd 0.46588 0.18878 0.20586 0.0
O31 O 0.4626 0.20761 0.22418 0.0
O32 O 0.48372 0.30318 0.19626 0.0
O33 O 0.44927 0.26251 0.19614 0.0
C34 C 0.45625 0.29428 0.19432 0.0
C35 C 0.43113 0.17012 0.19097 0.0
C36 C 0.47871 0.23241 0.22835 0.0
C37 C 0.52669 0.19207 0.19427 0.0
O38 O 0.5079 0.17479 0.20055 0.0
O39 O 0.52276 0.22435 0.1924 0.0
O40 O 0.43867 0.14986 0.19997 0.0
O41 O 0.44073 0.20138 0.19134 0.0
O42 O 0.75084 0.00466 0.22051 0.0
Cd43 Cd 0.75303 1.0029 0.20153 0.0
Cd44 Cd 0.77774 0.06837 0.20567 0.0
O45 O 0.78046 0.04955 0.22399 0.0
O46 O 0.75988 0.95333 0.19571 0.0
O47 O 0.79411 0.99421 0.19534 0.0
C48 C 0.78721 0.96241 0.19356 0.0
C49 C 0.81315 0.08682 0.191 0.0
C50 C 0.76486 0.02416 0.22802 0.0
C51 C 0.71686 0.0645 0.1939 0.0
O52 O 0.73581 0.08192 0.20005 0.0
O53 O 0.72064 0.03213 0.19214 0.0
O54 O 0.80496 0.1074 0.19983 0.0
O55 O 0.80378 0.0555 0.19147 0.0
O56 O 0.50145 1.00308 0.97065 0.0
Cd57 Cd 0.50317 0.00566 0.95168 0.0
Cd58 Cd 0.52821 0.94019 0.95529 0.0
O59 O 0.53126 0.95814 0.97371 0.0
O60 O 0.51048 0.05531 0.94608 0.0
O61 O 0.54416 0.01385 0.94533 0.0
C62 C 0.53763 0.04584 0.94375 0.0
C63 C 0.56343 0.92127 0.94061 0.0
C64 C 0.5157 0.98327 0.97798 0.0
C65 C 0.46692 0.94447 0.9438 0.0
O66 O 0.48617 0.92685 0.9497 0.0
O67 O 0.47047 0.97696 0.94227 0.0
O68 O 0.55495 0.9008 0.94941 0.0
O69 O 0.55451 0.95277 0.94111 0.0
O70 O 0.24395 0.75488 0.97071 0.0
Cd71 Cd 0.24152 0.75341 0.95175 0.0
Cd72 Cd 0.2164 0.81833 0.95597 0.0
O73 O 0.21336 0.79886 0.97422 0.0
O74 O 0.23494 0.70388 0.94581 0.0
O75 O 0.20029 0.74427 0.9458 0.0
C76 C 0.20744 0.71262 0.94386 0.0
C77 C 0.18149 0.83649 0.94105 0.0
C78 C 0.2294 0.77382 0.97823 0.0
C79 C 0.27721 0.81565 0.94432 0.0
O80 O 0.25833 0.83262 0.95066 0.0
O81 O 0.27346 0.78337 0.94233 0.0
O82 O 0.18885 0.85696 0.95003 0.0
O83 O 0.19138 0.80538 0.94147 0.0
O84 O 0.50075 0.75414 0.82659 0.0
Cd85 Cd 0.50331 0.75188 0.84555 0.0
Cd86 Cd 0.52764 0.81725 0.84173 0.0
O87 O 0.5306 0.79894 0.82334 0.0
O88 O 0.51044 0.70226 0.8512 0.0
O89 O 0.54458 0.74326 0.85155 0.0
C90 C 0.53779 0.71141 0.85328 0.0
C91 C 0.56282 0.83591 0.85645 0.0
C92 C 0.51488 0.77381 0.81918 0.0
C93 C 0.46686 0.81291 0.85345 0.0
O94 O 0.48561 0.83056 0.84729 0.0
O95 O 0.47092 0.78058 0.85516 0.0
O96 O 0.55461 0.85642 0.84761 0.0
O97 O 0.55359 0.80452 0.85598 0.0
O98 O 0.24425 1.0035 0.82725 0.0
Cd99 Cd 0.2418 0.00481 0.84622 0.0
Cd100 Cd 0.21738 0.93956 0.84191 0.0
O101 O 0.21429 0.959 0.82367 0.0
O102 O 0.23507 0.05428 0.85216 0.0
O103 O 0.20061 0.01365 0.85228 0.0
C104 C 0.20764 0.04535 0.85418 0.0
C105 C 0.18237 0.92103 0.85673 0.0
C106 C 0.23002 0.98435 0.81969 0.0
C107 C 0.27812 0.94311 0.85364 0.0
O108 O 0.25942 0.92587 0.8473 0.0
O109 O 0.27404 0.97533 0.85563 0.0
O110 O 0.1901 0.90061 0.8478 0.0
O111 O 0.19198 0.95226 0.85633 0.0
O112 O 0.4925 0.50539 0.57682 0.0
Cd113 Cd 0.49002 0.5042 0.5958 0.0
Cd114 Cd 0.46569 0.56932 0.59147 0.0
O115 O 0.46263 0.54995 0.57323 0.0
O116 O 0.48349 0.45472 0.60176 0.0
O117 O 0.44886 0.49515 0.6019 0.0
C118 C 0.45604 0.46349 0.60381 0.0
C119 C 0.43063 0.58787 0.60625 0.0
C120 C 0.47834 0.52459 0.56926 0.0
C121 C 0.52641 0.56596 0.60318 0.0
O122 O 0.50771 0.58319 0.59684 0.0
O123 O 0.5223 0.53375 0.60518 0.0
O124 O 0.43829 0.60819 0.59727 0.0
O125 O 0.44035 0.55667 0.6059 0.0
O126 O 0.7503 0.75467 0.5767 0.0
Cd127 Cd 0.75276 0.75636 0.59567 0.0
Cd128 Cd 0.77643 0.69063 0.59155 0.0
O129 O 0.77948 0.70941 0.57324 0.0
O130 O 0.76068 0.80569 0.60152 0.0
O131 O 0.79411 0.76394 0.60174 0.0
C132 C 0.78786 0.7959 0.60358 0.0
C133 C 0.81146 0.67094 0.60616 0.0
C134 C 0.76412 0.73497 0.56919 0.0
C135 C 0.71567 0.69552 0.60331 0.0
O136 O 0.73429 0.6778 0.5971 0.0
O137 O 0.72001 0.72777 0.60513 0.0
O138 O 0.80299 0.65086 0.59723 0.0
O139 O 0.8026 0.70248 0.60583 0.0
O140 O 0.49184 0.75283 0.72067 0.0
Cd141 Cd 0.48965 0.755 0.70171 0.0
Cd142 Cd 0.46493 0.6897 0.70551 0.0
O143 O 0.46189 0.70809 0.72389 0.0
O144 O 0.48232 0.80454 0.69599 0.0
O145 O 0.44845 0.76325 0.69558 0.0
C146 C 0.45506 0.79516 0.69385 0.0
C147 C 0.42984 0.67061 0.69082 0.0
C148 C 0.47759 0.73322 0.72807 0.0
C149 C 0.52599 0.69372 0.69395 0.0
O150 O 0.50697 0.67619 0.70001 0.0
O151 O 0.52219 0.72611 0.69225 0.0
O152 O 0.43804 0.65035 0.69972 0.0
O153 O 0.43898 0.70205 0.69121 0.0
O154 O 0.74964 0.50638 0.72078 0.0
Cd155 Cd 0.75229 0.5044 0.70184 0.0
Cd156 Cd 0.77723 0.56924 0.70569 0.0
O157 O 0.78067 0.55013 0.72397 0.0
O158 O 0.75944 0.45491 0.69598 0.0
O159 O 0.79376 0.49571 0.69609 0.0
C160 C 0.78691 0.46396 0.69414 0.0
C161 C 0.81189 0.58768 0.6907 0.0
C162 C 0.76448 0.52543 0.72817 0.0
C163 C 0.71635 0.56622 0.69423 0.0
O164 O 0.73519 0.58341 0.70051 0.0
O165 O 0.72025 0.53394 0.6923 0.0
O166 O 0.80465 0.60796 0.69975 0.0
O167 O 0.80198 0.55655 0.69106 0.0
O168 O 0.50066 0.50403 0.47049 0.0
Cd169 Cd 0.50318 0.50558 0.45151 0.0
Cd170 Cd 0.5272 0.44011 0.45575 0.0
O171 O 0.53006 0.45903 0.47405 0.0
O172 O 0.51013 0.55509 0.44568 0.0
O173 O 0.54438 0.51424 0.44541 0.0
C174 C 0.5375 0.54603 0.44359 0.0
C175 C 0.56239 0.42133 0.44107 0.0
C176 C 0.51452 0.48453 0.47804 0.0
C177 C 0.46651 0.44429 0.44394 0.0
O178 O 0.48518 0.42681 0.4502 0.0
O179 O 0.47069 0.47655 0.44206 0.0
O180 O 0.55421 0.4009 0.44993 0.0
O181 O 0.55314 0.45271 0.4415 0.0
O182 O 0.24386 0.25503 0.47129 0.0
Cd183 Cd 0.24106 0.25325 0.45233 0.0
Cd184 Cd 0.21709 0.31886 0.45653 0.0
O185 O 0.21427 0.2999 0.47484 0.0
O186 O 0.23366 0.20376 0.44651 0.0
O187 O 0.19967 0.2449 0.44643 0.0
C188 C 0.20631 0.21308 0.44454 0.0
C189 C 0.18197 0.33755 0.44179 0.0
C190 C 0.22994 0.27453 0.47884 0.0
C191 C 0.2776 0.31453 0.44461 0.0
O192 O 0.25911 0.33205 0.45095 0.0
O193 O 0.27332 0.28228 0.44274 0.0
O194 O 0.19006 0.35803 0.45065 0.0
O195 O 0.19127 0.3062 0.44224 0.0
O196 O 0.50004 0.25543 0.32689 0.0
Cd197 Cd 0.50275 0.25339 0.34585 0.0
Cd198 Cd 0.52749 0.31843 0.34192 0.0
O199 O 0.53066 0.29951 0.32361 0.0
O200 O 0.50963 0.20381 0.35162 0.0
O201 O 0.5441 0.24443 0.35167 0.0
C202 C 0.5371 0.21271 0.35356 0.0
C203 C 0.56243 0.33664 0.35682 0.0
C204 C 0.51459 0.27465 0.31946 0.0
C205 C 0.46676 0.31503 0.35358 0.0
O206 O 0.48547 0.33232 0.34727 0.0
O207 O 0.47078 0.28276 0.35547 0.0
O208 O 0.55486 0.35717 0.3479 0.0
O209 O 0.55267 0.30546 0.35637 0.0
O210 O 0.24362 0.50326 0.32732 0.0
Cd211 Cd 0.24134 0.50591 0.34627 0.0
Cd212 Cd 0.21695 0.44028 0.34262 0.0
O213 O 0.2138 0.45835 0.32421 0.0
O214 O 0.23381 0.55554 0.35186 0.0
O215 O 0.2001 0.51408 0.35234 0.0
C216 C 0.20658 0.54605 0.35401 0.0
C217 C 0.18196 0.4216 0.35744 0.0
C218 C 0.22944 0.48345 0.31996 0.0
C219 C 0.27795 0.44505 0.35419 0.0
O220 O 0.25908 0.42727 0.34813 0.0
O221 O 0.27391 0.47742 0.35584 0.0
O222 O 0.19019 0.40101 0.34863 0.0
O223 O 0.19104 0.45303 0.3569 0.0
O224 O 0.99456 0.00459 0.577 0.0
Cd225 Cd 0.99226 1.00225 0.59596 0.0
Cd226 Cd 0.9674 0.06773 0.59216 0.0
O227 O 0.96465 0.04937 0.57377 0.0
O228 O 0.98449 0.95277 0.60167 0.0
O229 O 0.95099 0.99445 0.60203 0.0
C230 C 0.9573 0.96247 0.60378 0.0
C231 C 0.93202 0.087 0.60672 0.0
C232 C 0.98037 0.02425 0.5696 0.0
C233 C 0.02836 0.06352 0.6039 0.0
O234 O 0.00935 0.08108 0.59784 0.0
O235 O 0.02468 0.03108 0.60551 0.0
O236 O 0.94062 0.10729 0.59789 0.0
O237 O 0.94092 0.05548 0.60632 0.0
O238 O 0.25073 0.25345 0.57765 0.0
Cd239 Cd 0.25347 0.25474 0.5966 0.0
Cd240 Cd 0.27856 0.1903 0.59238 0.0
O241 O 0.28159 0.20975 0.57414 0.0
O242 O 0.26026 0.30414 0.60258 0.0
O243 O 0.29484 0.26363 0.60244 0.0
C244 C 0.28778 0.2953 0.60443 0.0
C245 C 0.31347 0.17125 0.60716 0.0
C246 C 0.26538 0.23464 0.57012 0.0
C247 C 0.2178 0.19261 0.60402 0.0
O248 O 0.23666 0.17574 0.59764 0.0
O249 O 0.22155 0.22486 0.60606 0.0
O250 O 0.30598 0.15132 0.59804 0.0
O251 O 0.30374 0.20246 0.60696 0.0
O252 O 0.99355 0.25504 0.72056 0.0
Cd253 Cd 0.99109 0.25696 0.70159 0.0
Cd254 Cd 0.96705 0.19149 0.70561 0.0
O255 O 0.96395 0.2101 0.72395 0.0
O256 O 0.98404 0.30658 0.6959 0.0
O257 O 0.94984 0.26566 0.69554 0.0
C258 C 0.95667 0.29751 0.69382 0.0
C259 C 0.93207 0.17289 0.69081 0.0
C260 C 0.97953 0.23545 0.72803 0.0
C261 C 0.02786 0.19583 0.69394 0.0
O262 O 0.00915 0.17825 0.70015 0.0
O263 O 0.02367 0.2281 0.6921 0.0
O264 O 0.94007 0.15238 0.69968 0.0
O265 O 0.94139 0.20424 0.69129 0.0
O266 O 0.25138 0.00641 0.72089 0.0
Cd267 Cd 0.25346 0.0047 0.70189 0.0
Cd268 Cd 0.27773 0.07042 0.70617 0.0
O269 O 0.28017 0.05193 0.72453 0.0
O270 O 0.26058 0.95514 0.69615 0.0
O271 O 0.29441 0.99643 0.69547 0.0
C272 C 0.28776 0.9645 0.69383 0.0
C273 C 0.31351 0.08968 0.69181 0.0
C274 C 0.26493 0.02616 0.72848 0.0
C275 C 0.21687 0.06577 0.6942 0.0
O276 O 0.23579 0.08334 0.70031 0.0
O277 O 0.22074 0.0334 0.6925 0.0
O278 O 0.30419 0.11022 0.70044 0.0
O279 O 0.30506 0.05801 0.69232 0.0
O280 O 0.00143 1.00182 0.47105 0.0
Cd281 Cd 0.00385 1.00398 0.45211 0.0
Cd282 Cd 0.0287 0.93881 0.4559 0.0
O283 O 0.03202 0.95765 0.47423 0.0
O284 O 0.01121 0.0535 0.44634 0.0
O285 O 0.04522 0.01237 0.44622 0.0
C286 C 0.03857 0.0442 0.44436 0.0
C287 C 0.06348 0.92025 0.44097 0.0
C288 C 0.01604 0.98252 0.47843 0.0
C289 C 0.96777 0.94237 0.44438 0.0
O290 O 0.98664 0.925 0.45058 0.0
O291 O 0.97166 0.9747 0.44257 0.0
O292 O 0.05591 0.89988 0.44995 0.0
O293 O 0.05387 0.95148 0.4414 0.0
O294 O 0.74332 0.75478 0.47038 0.0
Cd295 Cd 0.74109 0.75325 0.4514 0.0
Cd296 Cd 0.71647 0.81837 0.45553 0.0
O297 O 0.71337 0.79938 0.47382 0.0
O298 O 0.73419 0.70377 0.44554 0.0
O299 O 0.69993 0.74462 0.44527 0.0
C300 C 0.70682 0.71283 0.44345 0.0
C301 C 0.68146 0.83736 0.44081 0.0
C302 C 0.72907 0.7741 0.47787 0.0
C303 C 0.77742 0.81483 0.44392 0.0
O304 O 0.7585 0.83214 0.45012 0.0
O305 O 0.77355 0.78253 0.44205 0.0
O306 O 0.68937 0.85755 0.44978 0.0
O307 O 0.69084 0.80601 0.44114 0.0
O308 O 0.00084 0.75528 0.32676 0.0
Cd309 Cd 0.00334 0.75365 0.34573 0.0
Cd310 Cd 0.02731 0.8193 0.34157 0.0
O311 O 0.03029 0.80031 0.32327 0.0
O312 O 0.0109 0.70428 0.3516 0.0
O313 O 0.04465 0.74571 0.35175 0.0
C314 C 0.03817 0.71384 0.35364 0.0
C315 C 0.06242 0.83846 0.35625 0.0
C316 C 0.01478 0.77483 0.31924 0.0
C317 C 0.9666 0.81483 0.35336 0.0
O318 O 0.98522 0.83242 0.34711 0.0
O319 O 0.97084 0.78258 0.35521 0.0
O320 O 0.05422 0.85871 0.34734 0.0
O321 O 0.05321 0.80705 0.35588 0.0
O322 O 0.74345 1.00389 0.32684 0.0
Cd323 Cd 0.7407 0.00531 0.3458 0.0
Cd324 Cd 0.71672 0.94012 0.34158 0.0
O325 O 0.7136 0.95925 0.32331 0.0
O326 O 0.73368 0.05475 0.35168 0.0
O327 O 0.69936 0.01394 0.35175 0.0
C328 C 0.70626 0.0457 0.35365 0.0
C329 C 0.68178 0.92113 0.35634 0.0
C330 C 0.72932 0.98458 0.3193 0.0
C331 C 0.77734 0.94402 0.35333 0.0
O332 O 0.75879 0.92661 0.34698 0.0
O333 O 0.77305 0.97621 0.3553 0.0
O334 O 0.68963 0.90094 0.34735 0.0
O335 O 0.69122 0.95245 0.35601 0.0
O336 O 0.99242 0.50637 0.07649 0.0
Cd337 Cd 0.98968 0.50454 0.09545 0.0
Cd338 Cd 0.96577 0.56989 0.09145 0.0
O339 O 0.96248 0.55102 0.07315 0.0
O340 O 0.98227 0.45512 0.10129 0.0
O341 O 0.94826 0.49625 0.10134 0.0
C342 C 0.95493 0.46445 0.10326 0.0
C343 C 0.93103 0.58888 0.1063 0.0
C344 C 0.97822 0.52584 0.06903 0.0
C345 C 0.02641 0.56564 0.10314 0.0
O346 O 0.00791 0.5832 0.09682 0.0
O347 O 0.02203 0.53343 0.10503 0.0
O348 O 0.93886 0.60913 0.09733 0.0
O349 O 0.94037 0.55753 0.10591 0.0
O350 O 0.25068 0.75283 0.07705 0.0
Cd351 Cd 0.2534 0.75436 0.09601 0.0
Cd352 Cd 0.27683 0.68872 0.09179 0.0
O353 O 0.2799 0.70767 0.07349 0.0
O354 O 0.26121 0.80368 0.10185 0.0
O355 O 0.29481 0.76209 0.10201 0.0
C356 C 0.28845 0.79401 0.10387 0.0
C357 C 0.31172 0.66897 0.10644 0.0
C358 C 0.26446 0.73323 0.06949 0.0
C359 C 0.21622 0.69362 0.10362 0.0
O360 O 0.23467 0.67592 0.09731 0.0
O361 O 0.22073 0.7258 0.10551 0.0
O362 O 0.30335 0.64893 0.09749 0.0
O363 O 0.30288 0.70052 0.10612 0.0
O364 O 0.99366 0.75463 0.22044 0.0
Cd365 Cd 0.99132 0.75606 0.20147 0.0
Cd366 Cd 0.96713 0.69071 0.20564 0.0
O367 O 0.96396 0.70982 0.22392 0.0
O368 O 0.98425 0.80549 0.19557 0.0
O369 O 0.9501 0.7645 0.19537 0.0
C370 C 0.9569 0.79629 0.19351 0.0
C371 C 0.93212 0.67175 0.1909 0.0
C372 C 0.97954 0.73524 0.22795 0.0
C373 C 0.02801 0.69469 0.19401 0.0
O374 O 0.00923 0.67725 0.20024 0.0
O375 O 0.02388 0.72693 0.1921 0.0
O376 O 0.94005 0.6515 0.19985 0.0
O377 O 0.94154 0.70307 0.19125 0.0
O378 O 0.25036 0.5048 0.22136 0.0
Cd379 Cd 0.25309 0.50279 0.20242 0.0
Cd380 Cd 0.27765 0.56761 0.20623 0.0
O381 O 0.28131 0.54863 0.22452 0.0
O382 O 0.25999 0.45323 0.19661 0.0
O383 O 0.29454 0.49377 0.19668 0.0
C384 C 0.28751 0.46207 0.19474 0.0
C385 C 0.31203 0.5858 0.19109 0.0
C386 C 0.26517 0.52392 0.22873 0.0
C387 C 0.21687 0.5644 0.1948 0.0
O388 O 0.23552 0.58168 0.20115 0.0
O389 O 0.22105 0.53219 0.19282 0.0
O390 O 0.30504 0.60619 0.20015 0.0
O391 O 0.30204 0.55472 0.19152 0.0
O392 O 0.00117 0.50295 0.97055 0.0
Cd393 Cd 0.00397 0.50475 0.95159 0.0
Cd394 Cd 0.02809 0.43964 0.95559 0.0
O395 O 0.03127 0.45847 0.9739 0.0
O396 O 0.0111 0.55424 0.94581 0.0
O397 O 0.04537 0.5134 0.94571 0.0
C398 C 0.03852 0.54518 0.94385 0.0
C399 C 0.06301 0.42073 0.94081 0.0
C400 C 0.01543 0.48356 0.97801 0.0
C401 C 0.96739 0.44354 0.94391 0.0
O402 O 0.98601 0.42607 0.95021 0.0
O403 O 0.97164 0.47578 0.94202 0.0
O404 O 0.05516 0.4005 0.94978 0.0
O405 O 0.05357 0.45205 0.94116 0.0
O406 O 0.74434 0.25453 0.97074 0.0
Cd407 Cd 0.74135 0.25319 0.95178 0.0
Cd408 Cd 0.71774 0.31873 0.95612 0.0
O409 O 0.71482 0.29939 0.97437 0.0
O410 O 0.73348 0.20395 0.94581 0.0
O411 O 0.6998 0.24544 0.94597 0.0
C412 C 0.70617 0.2136 0.94395 0.0
C413 C 0.68273 0.33829 0.94149 0.0
C414 C 0.73044 0.27391 0.97832 0.0
C415 C 0.77817 0.31436 0.94419 0.0
O416 O 0.7598 0.33186 0.9506 0.0
O417 O 0.77371 0.28219 0.94222 0.0
O418 O 0.69092 0.35832 0.95047 0.0
O419 O 0.69186 0.30685 0.94176 0.0
O420 O 0.00165 0.25383 0.82687 0.0
Cd421 Cd 0.00409 0.25229 0.84585 0.0
Cd422 Cd 0.02807 0.31766 0.84171 0.0
O423 O 0.03109 0.29887 0.8234 0.0
O424 O 0.01113 0.20286 0.8517 0.0
O425 O 0.04528 0.24385 0.85198 0.0
C426 C 0.03845 0.21205 0.85381 0.0
C427 C 0.06314 0.33687 0.85637 0.0
C428 C 0.0156 0.27341 0.81936 0.0
C429 C 0.96732 0.3134 0.85345 0.0
O430 O 0.986 0.33096 0.84721 0.0
O431 O 0.97152 0.28114 0.85529 0.0
O432 O 0.05495 0.35705 0.84744 0.0
O433 O 0.05399 0.30543 0.85602 0.0
O434 O 0.74474 0.50237 0.82675 0.0
Cd435 Cd 0.74199 0.50444 0.84569 0.0
Cd436 Cd 0.71741 0.4395 0.84186 0.0
O437 O 0.71386 0.45848 0.82357 0.0
O438 O 0.73489 0.55397 0.85148 0.0
O439 O 0.70053 0.5132 0.85143 0.0
C440 C 0.70742 0.54495 0.85335 0.0
C441 C 0.68283 0.42116 0.85689 0.0
C442 C 0.72999 0.48323 0.81937 0.0
C443 C 0.77822 0.44295 0.85335 0.0
O444 O 0.75954 0.4256 0.84703 0.0
O445 O 0.77405 0.47517 0.85529 0.0
O446 O 0.69007 0.40078 0.84787 0.0
O447 O 0.69272 0.45228 0.85649 0.0
H448 H 0.42133 0.15362 0.11319 0.0
H449 H 0.41915 0.10288 0.18417 0.0
H450 H 0.41191 0.04874 0.12616 0.0
H451 H 0.41208 0.20793 0.17113 0.0
H452 H 0.4086 0.08247 0.16315 0.0
H453 H 0.41007 0.17424 0.13412 0.0
C454 C 0.4161 0.13494 0.12034 0.0
C455 C 0.41801 0.09939 0.11792 0.0
C456 C 0.40873 0.11 0.16493 0.0
C457 C 0.40581 0.12276 0.14201 0.0
C458 C 0.41458 0.12166 0.17698 0.0
C459 C 0.41695 0.15717 0.17942 0.0
C460 C 0.40556 0.13403 0.15523 0.0
C461 C 0.41088 0.18028 0.16968 0.0
C462 C 0.40985 0.14671 0.13234 0.0
C463 C 0.41109 0.07641 0.1276 0.0
N464 N 0.40605 0.16835 0.158 0.0
N465 N 0.40588 0.08844 0.13924 0.0
H466 H 0.83496 0.0481 0.17189 0.0
H467 H 0.8347 0.2091 0.12583 0.0
H468 H 0.82347 0.15391 0.18356 0.0
H469 H 0.82416 0.10319 0.11412 0.0
H470 H 0.8454 0.18912 0.1468 0.0
H471 H 0.84582 0.06818 0.15094 0.0
C472 C 0.83546 0.07566 0.17014 0.0
C473 C 0.82783 0.09935 0.1795 0.0
C474 C 0.84134 0.1702 0.1396 0.0
C475 C 0.84 0.12245 0.1554 0.0
C476 C 0.83537 0.18154 0.12758 0.0
C477 C 0.82806 0.15779 0.11819 0.0
C478 C 0.84005 0.13479 0.14232 0.0
C479 C 0.82951 0.12245 0.12104 0.0
C480 C 0.84152 0.08706 0.15813 0.0
C481 C 0.82907 0.1347 0.17665 0.0
N482 N 0.83487 0.11204 0.1329 0.0
N483 N 0.83453 0.14515 0.16481 0.0
H484 H 0.58421 0.79747 0.87571 0.0
H485 H 0.58502 0.95953 0.92133 0.0
H486 H 0.57341 0.90309 0.86374 0.0
H487 H 0.57351 0.85401 0.93331 0.0
H488 H 0.59559 0.93897 0.90041 0.0
H489 H 0.59511 0.81794 0.89661 0.0
C490 C 0.58486 0.82506 0.87738 0.0
C491 C 0.57741 0.84858 0.86795 0.0
C492 C 0.59134 0.92026 0.90766 0.0
C493 C 0.58965 0.87215 0.89199 0.0
C494 C 0.58545 0.93194 0.91965 0.0
C495 C 0.5779 0.90848 0.9291 0.0
C496 C 0.58975 0.88481 0.90503 0.0
C497 C 0.57904 0.87306 0.92633 0.0
C498 C 0.59094 0.83669 0.88936 0.0
C499 C 0.57885 0.88399 0.8707 0.0
N500 N 0.58435 0.86233 0.91451 0.0
N501 N 0.58433 0.89468 0.88252 0.0
H502 H 0.16101 0.95954 0.87599 0.0
H503 H 0.16085 0.79779 0.92171 0.0
H504 H 0.17187 0.85387 0.86407 0.0
H505 H 0.17071 0.90355 0.93369 0.0
H506 H 0.15044 0.81807 0.90075 0.0
H507 H 0.15012 0.93918 0.8969 0.0
C508 C 0.16038 0.93196 0.87768 0.0
C509 C 0.16782 0.90839 0.86825 0.0
C510 C 0.15429 0.83689 0.908 0.0
C511 C 0.15563 0.88494 0.89232 0.0
C512 C 0.16009 0.82537 0.92002 0.0
C513 C 0.16711 0.849 0.92949 0.0
C514 C 0.15547 0.87235 0.90536 0.0
C515 C 0.16557 0.88438 0.92671 0.0
C516 C 0.15431 0.92039 0.88967 0.0
C517 C 0.16642 0.87299 0.87103 0.0
N518 N 0.16038 0.89496 0.91486 0.0
N519 N 0.16096 0.86237 0.88285 0.0
H520 H 0.41843 0.65502 0.61309 0.0
H521 H 0.41861 0.60325 0.68396 0.0
H522 H 0.41092 0.54979 0.62591 0.0
H523 H 0.40961 0.70833 0.67116 0.0
H524 H 0.4078 0.58295 0.66295 0.0
H525 H 0.40721 0.67513 0.63409 0.0
C526 C 0.41362 0.63614 0.62022 0.0
C527 C 0.41607 0.60067 0.61774 0.0
C528 C 0.40756 0.61045 0.66479 0.0
C529 C 0.40392 0.62347 0.64191 0.0
C530 C 0.41355 0.62204 0.67683 0.0
C531 C 0.41547 0.65756 0.67932 0.0
C532 C 0.40379 0.63455 0.65514 0.0
C533 C 0.40878 0.68069 0.66966 0.0
C534 C 0.40739 0.64763 0.63226 0.0
C535 C 0.40968 0.57742 0.6274 0.0
N536 N 0.40383 0.66883 0.65798 0.0
N537 N 0.40449 0.58919 0.63907 0.0
H538 H 0.82422 0.65479 0.68385 0.0
H539 H 0.8221 0.6034 0.61293 0.0
H540 H 0.83084 0.54957 0.67092 0.0
H541 H 0.8324 0.7083 0.62578 0.0
H542 H 0.83311 0.58287 0.63389 0.0
H543 H 0.83503 0.67491 0.66282 0.0
C544 C 0.82875 0.63591 0.67668 0.0
C545 C 0.82618 0.60044 0.67915 0.0
C546 C 0.83359 0.61038 0.63207 0.0
C547 C 0.83786 0.62325 0.65495 0.0
C548 C 0.82748 0.62209 0.62006 0.0
C549 C 0.82588 0.65764 0.6176 0.0
C550 C 0.83779 0.63439 0.64172 0.0
C551 C 0.83297 0.68064 0.62726 0.0
C552 C 0.83474 0.6474 0.66463 0.0
C553 C 0.83219 0.57719 0.66944 0.0
N554 N 0.83803 0.66868 0.63891 0.0
N555 N 0.83717 0.58897 0.65776 0.0
H556 H 0.58416 0.45967 0.42185 0.0
H557 H 0.5832 0.29789 0.37611 0.0
H558 H 0.57251 0.3541 0.43374 0.0
H559 H 0.57343 0.40367 0.36418 0.0
H560 H 0.59395 0.31814 0.39705 0.0
H561 H 0.59491 0.4392 0.40093 0.0
C562 C 0.58459 0.43208 0.42015 0.0
C563 C 0.57696 0.40858 0.42957 0.0
C564 C 0.59005 0.33697 0.38981 0.0
C565 C 0.589 0.38502 0.40551 0.0
C566 C 0.58405 0.32547 0.3778 0.0
C567 C 0.57694 0.34911 0.36836 0.0
C568 C 0.58899 0.37243 0.39246 0.0
C569 C 0.57861 0.38449 0.37115 0.0
C570 C 0.59059 0.42045 0.40816 0.0
C571 C 0.57811 0.37317 0.42679 0.0
N572 N 0.584 0.39506 0.38298 0.0
N573 N 0.58351 0.3625 0.41497 0.0
H574 H 0.16055 0.46027 0.37665 0.0
H575 H 0.16035 0.29898 0.4226 0.0
H576 H 0.17174 0.35449 0.36489 0.0
H577 H 0.1718 0.4047 0.43438 0.0
H578 H 0.14969 0.31919 0.40166 0.0
H579 H 0.14986 0.44011 0.39761 0.0
C580 C 0.16003 0.4327 0.37838 0.0
C581 C 0.16751 0.40904 0.36899 0.0
C582 C 0.15394 0.33802 0.40886 0.0
C583 C 0.15552 0.38585 0.3931 0.0
C584 C 0.15989 0.32655 0.42088 0.0
C585 C 0.16744 0.35017 0.43027 0.0
C586 C 0.15549 0.37343 0.40617 0.0
C587 C 0.16626 0.38554 0.42744 0.0
C588 C 0.15407 0.42126 0.3904 0.0
C589 C 0.16626 0.37368 0.37183 0.0
N590 N 0.1609 0.39607 0.4156 0.0
N591 N 0.16088 0.36318 0.38367 0.0
H592 H 0.90985 0.04907 0.62596 0.0
H593 H 0.91114 0.21138 0.67147 0.0
H594 H 0.92228 0.1544 0.61393 0.0
H595 H 0.92125 0.10575 0.68353 0.0
H596 H 0.90038 0.19088 0.65057 0.0
H597 H 0.89916 0.06986 0.64684 0.0
C598 C 0.9096 0.07668 0.62762 0.0
C599 C 0.91744 0.10001 0.61817 0.0
C600 C 0.90437 0.17214 0.65783 0.0
C601 C 0.90546 0.12393 0.6422 0.0
C602 C 0.91037 0.18378 0.66982 0.0
C603 C 0.91758 0.16025 0.67928 0.0
C604 C 0.9055 0.13665 0.65523 0.0
C605 C 0.916 0.12484 0.67654 0.0
C606 C 0.90364 0.08849 0.63959 0.0
C607 C 0.91652 0.13546 0.62091 0.0
N608 N 0.91059 0.11414 0.66473 0.0
N609 N 0.91114 0.1463 0.63271 0.0
H610 H 0.32494 0.1038 0.61367 0.0
H611 H 0.34269 0.05177 0.67422 0.0
H612 H 0.33297 0.20835 0.62711 0.0
H613 H 0.31676 0.15626 0.68299 0.0
H614 H 0.35409 0.06979 0.65312 0.0
H615 H 0.33545 0.08265 0.63446 0.0
C616 C 0.32995 0.12231 0.6209 0.0
C617 C 0.32779 0.15789 0.61862 0.0
C618 C 0.34594 0.0889 0.6596 0.0
C619 C 0.33986 0.13392 0.64267 0.0
C620 C 0.33987 0.07871 0.67176 0.0
C621 C 0.32826 0.10242 0.68037 0.0
C622 C 0.33992 0.12303 0.65592 0.0
C623 C 0.32548 0.13703 0.67667 0.0
C624 C 0.336 0.11021 0.63287 0.0
C625 C 0.33414 0.18065 0.62844 0.0
N626 N 0.33077 0.14615 0.66468 0.0
N627 N 0.33928 0.16831 0.64004 0.0
H628 H 0.07356 0.90578 0.36319 0.0
H629 H 0.0752 0.85311 0.43396 0.0
H630 H 0.08313 0.80056 0.37577 0.0
H631 H 0.08298 0.95848 0.42132 0.0
H632 H 0.08588 0.83325 0.41288 0.0
H633 H 0.08477 0.92583 0.3842 0.0
C634 C 0.07882 0.88692 0.37027 0.0
C635 C 0.07696 0.85143 0.36772 0.0
C636 C 0.08588 0.86073 0.41477 0.0
C637 C 0.08909 0.87413 0.3919 0.0
C638 C 0.07996 0.87207 0.42685 0.0
C639 C 0.07774 0.90752 0.42941 0.0
C640 C 0.08927 0.88502 0.40515 0.0
C641 C 0.08404 0.93087 0.41977 0.0
C642 C 0.08504 0.89836 0.38231 0.0
C643 C 0.08391 0.82819 0.37732 0.0
N644 N 0.08893 0.91925 0.40805 0.0
N645 N 0.08908 0.83989 0.389 0.0
H646 H 0.66984 0.9047 0.43406 0.0
H647 H 0.67002 0.8538 0.36308 0.0
H648 H 0.66161 0.79971 0.42105 0.0
H649 H 0.66195 0.95881 0.37609 0.0
H650 H 0.65898 0.83335 0.38405 0.0
H651 H 0.65898 0.92518 0.41308 0.0
C652 C 0.66495 0.88596 0.42689 0.0
C653 C 0.66709 0.85043 0.42932 0.0
C654 C 0.659 0.86088 0.38227 0.0
C655 C 0.65534 0.87364 0.40517 0.0
C656 C 0.66513 0.87255 0.37025 0.0
C657 C 0.66736 0.90808 0.36782 0.0
C658 C 0.65541 0.88489 0.39196 0.0
C659 C 0.66088 0.93116 0.37753 0.0
C660 C 0.65892 0.89765 0.41487 0.0
C661 C 0.6606 0.82737 0.4196 0.0
N662 N 0.65578 0.91921 0.38919 0.0
N663 N 0.65561 0.83933 0.40795 0.0
H664 H 0.92047 0.60446 0.18406 0.0
H665 H 0.91961 0.65618 0.11319 0.0
H666 H 0.91197 0.7096 0.17127 0.0
H667 H 0.91127 0.55105 0.12601 0.0
H668 H 0.90894 0.67642 0.13422 0.0
H669 H 0.90925 0.58423 0.16307 0.0
C670 C 0.91544 0.62328 0.17694 0.0
C671 C 0.91761 0.65878 0.17942 0.0
C672 C 0.90882 0.64891 0.13238 0.0
C673 C 0.90545 0.63587 0.15527 0.0
C674 C 0.91473 0.63736 0.12033 0.0
C675 C 0.91679 0.60186 0.11783 0.0
C676 C 0.90527 0.62479 0.14204 0.0
C677 C 0.91033 0.57869 0.12751 0.0
C678 C 0.90921 0.61174 0.16491 0.0
C679 C 0.91095 0.68196 0.16977 0.0
N680 N 0.90545 0.59051 0.1392 0.0
N681 N 0.90576 0.67015 0.15811 0.0
H682 H 0.32474 0.65279 0.1842 0.0
H683 H 0.32213 0.60139 0.11323 0.0
H684 H 0.33031 0.54751 0.17124 0.0
H685 H 0.33261 0.70624 0.1261 0.0
H686 H 0.33298 0.58079 0.13419 0.0
H687 H 0.33548 0.67281 0.16314 0.0
C688 C 0.32901 0.63387 0.17702 0.0
C689 C 0.32618 0.59842 0.17949 0.0
C690 C 0.33353 0.6083 0.13238 0.0
C691 C 0.33779 0.62113 0.15527 0.0
C692 C 0.32751 0.62005 0.12036 0.0
C693 C 0.32602 0.65561 0.1179 0.0
C694 C 0.33776 0.63228 0.14204 0.0
C695 C 0.33311 0.67857 0.12758 0.0
C696 C 0.33496 0.6453 0.16495 0.0
C697 C 0.33187 0.57512 0.16976 0.0
N698 N 0.33809 0.66657 0.13923 0.0
N699 N 0.33683 0.58685 0.15807 0.0
H700 H 0.07458 0.40427 0.8631 0.0
H701 H 0.07489 0.35344 0.93406 0.0
H702 H 0.0833 0.29933 0.87608 0.0
H703 H 0.08273 0.45846 0.92106 0.0
H704 H 0.08593 0.333 0.91308 0.0
H705 H 0.08553 0.42481 0.88407 0.0
C706 C 0.0796 0.38556 0.87026 0.0
C707 C 0.07757 0.35001 0.86784 0.0
C708 C 0.08586 0.36053 0.91487 0.0
C709 C 0.08941 0.3733 0.89197 0.0
C710 C 0.07973 0.3722 0.92689 0.0
C711 C 0.07743 0.40772 0.92932 0.0
C712 C 0.08938 0.38456 0.90518 0.0
C713 C 0.08386 0.43081 0.91961 0.0
C714 C 0.08567 0.39728 0.88228 0.0
C715 C 0.08422 0.32699 0.87753 0.0
N716 N 0.08896 0.41887 0.90796 0.0
N717 N 0.08926 0.33898 0.88919 0.0
H718 H 0.67211 0.40582 0.93469 0.0
H719 H 0.67032 0.35412 0.86379 0.0
H720 H 0.66183 0.30089 0.92187 0.0
H721 H 0.66398 0.45943 0.87665 0.0
H722 H 0.65934 0.33414 0.88482 0.0
H723 H 0.66124 0.4263 0.91371 0.0
C724 C 0.66676 0.38711 0.92757 0.0
C725 C 0.66833 0.35157 0.93004 0.0
C726 C 0.65973 0.36164 0.883 0.0
C727 C 0.65659 0.37476 0.90589 0.0
C728 C 0.66583 0.37305 0.87094 0.0
C729 C 0.66852 0.4085 0.86845 0.0
C730 C 0.65663 0.38584 0.89266 0.0
C731 C 0.66254 0.43181 0.87815 0.0
C732 C 0.66074 0.3988 0.91554 0.0
C733 C 0.66127 0.32855 0.92038 0.0
N734 N 0.65746 0.42011 0.88983 0.0
N735 N 0.6563 0.34048 0.90872 0.0
H736 H 0.34664 0.77896 0.10909 0.0
H737 H 0.39918 0.97637 0.10909 0.0
H738 H 0.28589 0.86505 0.10574 0.0
H739 H 0.4598 0.89032 0.1052 0.0
H740 H 0.35785 0.93595 0.11162 0.0
H741 H 0.38807 0.81935 0.11143 0.0
C742 C 0.3419 0.8064 0.109 0.0
C743 C 0.31267 0.81862 0.1071 0.0
C744 C 0.3802 0.92586 0.11033 0.0
C745 C 0.36032 0.86511 0.10973 0.0
C746 C 0.40392 0.94892 0.10892 0.0
C747 C 0.43308 0.93674 0.10681 0.0
C748 C 0.38553 0.89021 0.10967 0.0
C749 C 0.43773 0.90089 0.10676 0.0
C750 C 0.36567 0.82945 0.1103 0.0
C751 C 0.30802 0.85447 0.10714 0.0
N752 N 0.41416 0.87888 0.10806 0.0
N753 N 0.33163 0.87645 0.10833 0.0
H754 H 0.84632 0.28068 0.10963 0.0
H755 H 0.89655 0.47884 0.10836 0.0
H756 H 0.78463 0.36555 0.10534 0.0
H757 H 0.95825 0.39352 0.10546 0.0
H758 H 0.85559 0.43796 0.11097 0.0
H759 H 0.88718 0.32187 0.11187 0.0
C760 C 0.84125 0.30804 0.10931 0.0
C761 C 0.81193 0.31965 0.10717 0.0
C762 C 0.87809 0.42814 0.10988 0.0
C763 C 0.85893 0.36706 0.10968 0.0
C764 C 0.90159 0.45147 0.10841 0.0
C765 C 0.93096 0.43961 0.10656 0.0
C766 C 0.88385 0.39254 0.10953 0.0
C767 C 0.93601 0.40384 0.10681 0.0
C768 C 0.8647 0.33154 0.11056 0.0
C769 C 0.80684 0.35541 0.10693 0.0
N770 N 0.91266 0.38156 0.10816 0.0
N771 N 0.83015 0.37785 0.10806 0.0
H772 H 0.4605 0.36513 0.19226 0.0
H773 H 0.2832 0.39125 0.19246 0.0
H774 H 0.39748 0.28104 0.18958 0.0
H775 H 0.34626 0.47536 0.19001 0.0
H776 H 0.32461 0.35035 0.18994 0.0
H777 H 0.41906 0.40606 0.18997 0.0
C778 C 0.43806 0.35526 0.19102 0.0
C779 C 0.43249 0.3196 0.19122 0.0
C780 C 0.32932 0.37779 0.18982 0.0
C781 C 0.38486 0.36623 0.18875 0.0
C782 C 0.30564 0.40113 0.19122 0.0
C783 C 0.31123 0.43678 0.19156 0.0
C784 C 0.35882 0.39019 0.18882 0.0
C785 C 0.34085 0.4481 0.18992 0.0
C786 C 0.41435 0.37862 0.18974 0.0
C787 C 0.40287 0.30831 0.18958 0.0
N788 N 0.36349 0.42494 0.18876 0.0
N789 N 0.3802 0.33149 0.18855 0.0
H790 H 0.78335 0.89149 0.19158 0.0
H791 H 0.96068 0.86715 0.19128 0.0
H792 H 0.84564 0.97616 0.18834 0.0
H793 H 0.89835 0.78237 0.18859 0.0
H794 H 0.91895 0.90761 0.18879 0.0
H795 H 0.82502 0.85093 0.18907 0.0
C796 C 0.80567 0.90156 0.19016 0.0
C797 C 0.81098 0.93727 0.19028 0.0
C798 C 0.91447 0.88013 0.1886 0.0
C799 C 0.85886 0.89109 0.18757 0.0
C800 C 0.93834 0.85703 0.18999 0.0
C801 C 0.93304 0.82132 0.19025 0.0
C802 C 0.88509 0.86741 0.18757 0.0
C803 C 0.90354 0.8097 0.18855 0.0
C804 C 0.8295 0.87841 0.18876 0.0
C805 C 0.84045 0.94884 0.18842 0.0
N806 N 0.88071 0.83262 0.18742 0.0
N807 N 0.86325 0.92587 0.18728 0.0
H808 H 0.64784 0.22874 0.93904 0.0
H809 H 0.59555 0.03126 0.93786 0.0
H810 H 0.70878 0.14262 0.94169 0.0
H811 H 0.53489 0.11699 0.9425 0.0
H812 H 0.6368 0.07188 0.93551 0.0
H813 H 0.60644 0.18839 0.93658 0.0
C814 C 0.65263 0.2013 0.93896 0.0
C815 C 0.68191 0.18906 0.9407 0.0
C816 C 0.61446 0.08186 0.93692 0.0
C817 C 0.63428 0.1426 0.93791 0.0
C818 C 0.59078 0.05868 0.93823 0.0
C819 C 0.56164 0.0707 0.9405 0.0
C820 C 0.6091 0.11746 0.93786 0.0
C821 C 0.55695 0.10654 0.94081 0.0
C822 C 0.62887 0.17827 0.93758 0.0
C823 C 0.68661 0.15323 0.94042 0.0
N824 N 0.58048 0.12865 0.93961 0.0
N825 N 0.66301 0.13125 0.93916 0.0
H826 H 0.21175 0.64173 0.94184 0.0
H827 H 0.03445 0.61598 0.94153 0.0
H828 H 0.14887 0.72584 0.93879 0.0
H829 H 0.09728 0.53164 0.9392 0.0
H830 H 0.07599 0.65672 0.93907 0.0
H831 H 0.1703 0.60081 0.93939 0.0
C832 C 0.18935 0.6516 0.94047 0.0
C833 C 0.1838 0.68727 0.94063 0.0
C834 C 0.08063 0.62926 0.93895 0.0
C835 C 0.13619 0.64066 0.938 0.0
C836 C 0.05687 0.60601 0.94033 0.0
C837 C 0.06235 0.57034 0.94068 0.0
C838 C 0.1101 0.61676 0.93801 0.0
C839 C 0.09195 0.55892 0.93909 0.0
C840 C 0.16565 0.62825 0.93912 0.0
C841 C 0.15424 0.69857 0.93884 0.0
N842 N 0.11467 0.582 0.93796 0.0
N843 N 0.13158 0.67541 0.93774 0.0
H844 H 0.53393 0.64052 0.85532 0.0
H845 H 0.71133 0.61583 0.85552 0.0
H846 H 0.59638 0.72515 0.85821 0.0
H847 H 0.64876 0.53125 0.85811 0.0
H848 H 0.66965 0.65643 0.85793 0.0
H849 H 0.57559 0.59995 0.85776 0.0
C850 C 0.55629 0.65058 0.85664 0.0
C851 C 0.56164 0.68628 0.85645 0.0
C852 C 0.66511 0.62896 0.85811 0.0
C853 C 0.60951 0.64007 0.85909 0.0
C854 C 0.68894 0.60579 0.85677 0.0
C855 C 0.68356 0.57009 0.8565 0.0
C856 C 0.63569 0.61633 0.85911 0.0
C857 C 0.65401 0.55856 0.85815 0.0
C858 C 0.58011 0.62743 0.858 0.0
C859 C 0.59115 0.69783 0.85819 0.0
N860 N 0.63123 0.58155 0.85925 0.0
N861 N 0.61394 0.67485 0.8593 0.0
H862 H 0.03448 0.14125 0.85614 0.0
H863 H 0.21175 0.11624 0.85622 0.0
H864 H 0.09703 0.22584 0.85876 0.0
H865 H 0.14912 0.03185 0.85928 0.0
H866 H 0.17019 0.15698 0.85865 0.0
H867 H 0.07606 0.10067 0.85876 0.0
C868 C 0.05684 0.1513 0.85744 0.0
C869 C 0.06225 0.18699 0.85712 0.0
C870 C 0.16561 0.12952 0.85893 0.0
C871 C 0.11004 0.14076 0.85996 0.0
C872 C 0.18938 0.10627 0.85759 0.0
C873 C 0.18394 0.07058 0.85743 0.0
C874 C 0.13618 0.11697 0.86004 0.0
C875 C 0.15441 0.05914 0.85922 0.0
C876 C 0.08063 0.12814 0.85891 0.0
C877 C 0.09177 0.19853 0.85884 0.0
N878 N 0.13168 0.08221 0.86031 0.0
N879 N 0.11452 0.17554 0.86005 0.0
H880 H 0.46057 0.39268 0.60599 0.0
H881 H 0.28338 0.36608 0.60677 0.0
H882 H 0.39745 0.47659 0.60896 0.0
H883 H 0.34662 0.28212 0.60903 0.0
H884 H 0.32478 0.40708 0.60911 0.0
H885 H 0.41931 0.35164 0.60864 0.0
C886 C 0.43815 0.40249 0.60738 0.0
C887 C 0.43249 0.43813 0.60714 0.0
C888 C 0.32954 0.37965 0.60924 0.0
C889 C 0.38507 0.39137 0.61001 0.0
C890 C 0.30586 0.35625 0.60794 0.0
C891 C 0.3115 0.32061 0.6076 0.0
C892 C 0.35907 0.36733 0.61011 0.0
C893 C 0.34116 0.30937 0.60913 0.0
C894 C 0.41455 0.37906 0.60885 0.0
C895 C 0.40291 0.44934 0.60897 0.0
N896 N 0.3638 0.3326 0.61019 0.0
N897 N 0.38035 0.4261 0.61019 0.0
H898 H 0.84594 0.78053 0.60889 0.0
H899 H 0.89927 0.97767 0.60925 0.0
H900 H 0.78558 0.86696 0.60546 0.0
H901 H 0.95962 0.89135 0.60538 0.0
H902 H 0.85774 0.93744 0.6116 0.0
H903 H 0.8875 0.82068 0.61134 0.0
C904 C 0.84131 0.808 0.6088 0.0
C905 C 0.81215 0.82038 0.60685 0.0
C906 C 0.88007 0.92724 0.61036 0.0
C907 C 0.85996 0.86661 0.60961 0.0
C908 C 0.9039 0.9502 0.60905 0.0
C909 C 0.93305 0.93789 0.607 0.0
C910 C 0.88527 0.89157 0.60965 0.0
C911 C 0.93756 0.90202 0.6069 0.0
C912 C 0.86516 0.83092 0.61017 0.0
C913 C 0.80764 0.85625 0.6069 0.0
N914 N 0.91389 0.88012 0.6081 0.0
N915 N 0.83133 0.87811 0.60816 0.0
H916 H 0.39678 0.78076 0.68853 0.0
H917 H 0.34589 0.97876 0.68818 0.0
H918 H 0.45822 0.86619 0.69202 0.0
H919 H 0.28456 0.89343 0.69225 0.0
H920 H 0.38692 0.93784 0.68578 0.0
H921 H 0.35573 0.82161 0.68611 0.0
C922 C 0.40175 0.80816 0.68864 0.0
C923 C 0.43107 0.82005 0.6906 0.0
C924 C 0.36447 0.92802 0.68708 0.0
C925 C 0.38385 0.86707 0.68786 0.0
C926 C 0.34093 0.95137 0.68842 0.0
C927 C 0.31167 0.93954 0.69054 0.0
C928 C 0.35885 0.89244 0.68784 0.0
C929 C 0.30672 0.90374 0.69068 0.0
C930 C 0.3782 0.83147 0.68728 0.0
C931 C 0.43602 0.85585 0.69057 0.0
N932 N 0.33012 0.88146 0.68945 0.0
N933 N 0.41261 0.87809 0.68932 0.0
H934 H 0.78307 0.39311 0.69181 0.0
H935 H 0.96051 0.36844 0.69196 0.0
H936 H 0.84561 0.47776 0.68948 0.0
H937 H 0.89808 0.28387 0.68884 0.0
H938 H 0.91884 0.40906 0.68964 0.0
H939 H 0.82477 0.35257 0.68931 0.0
C940 C 0.80545 0.40318 0.6906 0.0
C941 C 0.81081 0.43888 0.69096 0.0
C942 C 0.91432 0.38159 0.68932 0.0
C943 C 0.85872 0.39271 0.68826 0.0
C944 C 0.93815 0.35841 0.69061 0.0
C945 C 0.93282 0.3227 0.6907 0.0
C946 C 0.88492 0.36897 0.68821 0.0
C947 C 0.9033 0.31119 0.68893 0.0
C948 C 0.8293 0.38005 0.68921 0.0
C949 C 0.84037 0.45045 0.68937 0.0
N950 N 0.8805 0.33419 0.6879 0.0
N951 N 0.86317 0.42749 0.68822 0.0
H952 H 0.53351 0.61689 0.44144 0.0
H953 H 0.71082 0.64195 0.44135 0.0
H954 H 0.59607 0.5324 0.43861 0.0
H955 H 0.64824 0.72642 0.43846 0.0
H956 H 0.66922 0.60127 0.43891 0.0
H957 H 0.5751 0.65755 0.43892 0.0
C958 C 0.55587 0.60688 0.44011 0.0
C959 C 0.56128 0.57119 0.44034 0.0
C960 C 0.66465 0.62873 0.43866 0.0
C961 C 0.60907 0.6175 0.43762 0.0
C962 C 0.68844 0.65195 0.44002 0.0
C963 C 0.68304 0.68765 0.44022 0.0
C964 C 0.63523 0.6413 0.43759 0.0
C965 C 0.65351 0.69912 0.43848 0.0
C966 C 0.57966 0.63008 0.4387 0.0
C967 C 0.59081 0.5597 0.43859 0.0
N968 N 0.63075 0.67607 0.43738 0.0
N969 N 0.61356 0.58273 0.43745 0.0
H970 H 0.09682 0.02974 0.43905 0.0
H971 H 0.14809 0.22759 0.43921 0.0
H972 H 0.03553 0.11526 0.44262 0.0
H973 H 0.20935 0.14203 0.44272 0.0
H974 H 0.10696 0.18685 0.43678 0.0
H975 H 0.13796 0.07051 0.43671 0.0
C976 C 0.0919 0.05715 0.4392 0.0
C977 C 0.0626 0.06908 0.44116 0.0
C978 C 0.1294 0.17694 0.43796 0.0
C979 C 0.10993 0.11601 0.43852 0.0
C980 C 0.15301 0.20019 0.43932 0.0
C981 C 0.1823 0.18823 0.44129 0.0
C982 C 0.13498 0.14133 0.43854 0.0
C983 C 0.18718 0.15242 0.44126 0.0
C984 C 0.11551 0.08041 0.43789 0.0
C985 C 0.05771 0.10489 0.44117 0.0
N986 N 0.16372 0.13023 0.44002 0.0
N987 N 0.08118 0.12709 0.43998 0.0
H988 H 0.7103 0.11652 0.35587 0.0
H989 H 0.53297 0.14184 0.35568 0.0
H990 H 0.64758 0.0321 0.35844 0.0
H991 H 0.59573 0.22618 0.35847 0.0
H992 H 0.5745 0.10108 0.35816 0.0
H993 H 0.66873 0.15722 0.35831 0.0
C994 C 0.6879 0.10653 0.35713 0.0
C995 C 0.68245 0.07085 0.35685 0.0
C996 C 0.57911 0.12854 0.35837 0.0
C997 C 0.63467 0.11722 0.35947 0.0
C998 C 0.55537 0.1518 0.35699 0.0
C999 C 0.56084 0.18748 0.35676 0.0
C1000 C 0.60855 0.14105 0.35944 0.0
C1001 C 0.5904 0.1989 0.35848 0.0
C1002 C 0.66412 0.12976 0.35848 0.0
C1003 C 0.65288 0.05939 0.3585 0.0
N1004 N 0.61311 0.17581 0.35962 0.0
N1005 N 0.63014 0.08245 0.3596 0.0
H1006 H 0.14849 0.53132 0.35955 0.0
H1007 H 0.0963 0.72881 0.35898 0.0
H1008 H 0.2093 0.61716 0.35551 0.0
H1009 H 0.03543 0.64281 0.35558 0.0
H1010 H 0.13761 0.68837 0.36148 0.0
H1011 H 0.10719 0.57186 0.36186 0.0
C1012 C 0.15327 0.55875 0.3593 0.0
C1013 C 0.18248 0.57083 0.35721 0.0
C1014 C 0.11521 0.6783 0.3603 0.0
C1015 C 0.13497 0.61751 0.35982 0.0
C1016 C 0.09151 0.70137 0.35891 0.0
C1017 C 0.06228 0.6892 0.35694 0.0
C1018 C 0.1098 0.64264 0.35977 0.0
C1019 C 0.05756 0.65336 0.35702 0.0
C1020 C 0.12957 0.58188 0.36059 0.0
C1021 C 0.18719 0.60667 0.35706 0.0
N1022 N 0.08111 0.63134 0.35831 0.0
N1023 N 0.16364 0.62874 0.35825 0.0
H1024 H 0.45934 0.06283 0.04967 0.0
H1025 H 0.53627 0.94349 0.99751 0.0
H1026 H 0.50887 0.96981 0.05774 0.0
H1027 H 0.48689 0.03666 0.9895 0.0
H1028 H 0.5269 0.95288 1.01966 0.0
H1029 H 0.46875 0.05338 0.02754 0.0
C1030 C 0.47198 0.04033 0.04682 0.0
C1031 C 0.48331 0.01717 0.05565 0.0
C1032 C 0.51819 0.9713 1.01304 0.0
C1033 C 0.49444 0.00629 0.03029 0.0
C1034 C 0.52367 0.966 1.00038 0.0
C1035 C 0.51237 0.98922 0.99156 0.0
C1036 C 0.50128 1.00004 1.01693 0.0
C1037 C 0.49604 0.01791 0.9959 0.0
C1038 C 0.47748 0.035 0.03417 0.0
C1039 C 0.49969 0.98851 0.05133 0.0
N1040 N 0.49097 0.02241 1.00821 0.0
N1041 N 0.50478 0.98396 0.03902 0.0
H1042 H 0.73773 0.28775 0.0586 0.0
H1043 H 0.75894 0.21928 0.98921 0.0
H1044 H 0.78526 0.19405 0.04953 0.0
H1045 H 0.71122 0.31281 0.99835 0.0
H1046 H 0.76843 0.2096 1.01113 0.0
H1047 H 0.72841 0.29746 0.03667 0.0
C1048 C 0.7464 0.26919 0.052 0.0
C1049 C 0.76234 0.23989 0.05601 0.0
C1050 C 0.75582 0.2322 1.00838 0.0
C1051 C 0.75142 0.251 0.03066 0.0
C1052 C 0.75027 0.2378 0.99581 0.0
C1053 C 0.73421 0.26704 0.99183 0.0
C1054 C 0.74533 0.25596 1.01717 0.0
C1055 C 0.72362 0.28991 1.00093 0.0
C1056 C 0.74095 0.27481 0.03943 0.0
C1057 C 0.77295 0.21699 0.04693 0.0
N1058 N 0.72944 0.28393 1.01315 0.0
N1059 N 0.76722 0.22298 0.0347 0.0
H1060 H 0.45686 0.1942 0.24805 0.0
H1061 H 0.5364 0.31283 0.29975 0.0
H1062 H 0.50901 0.28507 0.23965 0.0
H1063 H 0.48421 0.22201 0.30818 0.0
H1064 H 0.52702 0.30284 0.27764 0.0
H1065 H 0.46621 0.20419 0.27017 0.0
C1066 C 0.47008 0.21633 0.25083 0.0
C1067 C 0.48214 0.23873 0.2419 0.0
C1068 C 0.51769 0.28506 0.28435 0.0
C1069 C 0.4932 0.25023 0.26724 0.0
C1070 C 0.52316 0.29071 0.29698 0.0
C1071 C 0.51111 0.26832 0.30591 0.0
C1072 C 0.50001 0.25681 0.28058 0.0
C1073 C 0.49398 0.24011 0.3017 0.0
C1074 C 0.47554 0.22197 0.26346 0.0
C1075 C 0.49924 0.26696 0.24612 0.0
N1076 N 0.48893 0.23525 0.2894 0.0
N1077 N 0.50427 0.27181 0.25842 0.0
H1078 H 0.73682 0.96945 0.23905 0.0
H1079 H 0.7575 0.03926 0.30831 0.0
H1080 H 0.7839 0.0636 0.24795 0.0
H1081 H 0.71012 0.94535 0.29936 0.0
H1082 H 0.76694 0.04867 0.28636 0.0
H1083 H 0.72736 0.96012 0.261 0.0
C1084 C 0.74536 0.98819 0.24561 0.0
C1085 C 0.76122 0.0175 0.24155 0.0
C1086 C 0.75441 0.02604 0.28916 0.0
C1087 C 0.75014 0.00683 0.26692 0.0
C1088 C 0.74889 0.0206 0.30173 0.0
C1089 C 0.73295 0.99133 0.30578 0.0
C1090 C 0.74401 1.00208 0.28042 0.0
C1091 C 0.72242 0.96828 0.29673 0.0
C1092 C 0.73983 0.98279 0.25819 0.0
C1093 C 0.77166 0.04064 0.25059 0.0
N1094 N 0.72821 0.9741 0.2845 0.0
N1095 N 0.76586 0.03486 0.26283 0.0
H1096 H 0.25784 0.71928 0.98918 0.0
H1097 H 0.23615 0.78786 0.05853 0.0
H1098 H 0.20957 0.8125 0.99822 0.0
H1099 H 0.28362 0.69408 0.04951 0.0
H1100 H 0.22672 0.7974 0.0366 0.0
H1101 H 0.26705 0.70959 1.01112 0.0
C1102 C 0.24899 0.73773 0.99577 0.0
C1103 C 0.23288 0.7669 0.99175 0.0
C1104 C 0.23926 0.77477 0.03938 0.0
C1105 C 0.24368 0.75581 1.01712 0.0
C1106 C 0.24478 0.76925 0.05195 0.0
C1107 C 0.26075 0.73999 0.05598 0.0
C1108 C 0.24971 0.7509 0.03062 0.0
C1109 C 0.27129 0.717 0.0469 0.0
C1110 C 0.25437 0.73213 1.00835 0.0
C1111 C 0.22202 0.78966 1.00083 0.0
N1112 N 0.26552 0.72291 0.03467 0.0
N1113 N 0.22771 0.78369 1.01306 0.0
H1114 H 0.45709 0.6938 0.74772 0.0
H1115 H 0.53531 0.81321 0.79952 0.0
H1116 H 0.50677 0.7866 0.73944 0.0
H1117 H 0.48552 0.72051 0.80782 0.0
H1118 H 0.52551 0.80365 0.77742 0.0
H1119 H 0.46681 0.70339 0.76983 0.0
C1120 C 0.46982 0.71628 0.75052 0.0
C1121 C 0.4811 0.73933 0.74164 0.0
C1122 C 0.51681 0.78537 0.78409 0.0
C1123 C 0.49259 0.75037 0.76696 0.0
C1124 C 0.52253 0.79077 0.79673 0.0
C1125 C 0.51125 0.76773 0.80561 0.0
C1126 C 0.49967 0.75671 0.78029 0.0
C1127 C 0.49468 0.73912 0.80137 0.0
C1128 C 0.4755 0.72169 0.76315 0.0
C1129 C 0.49762 0.76798 0.74589 0.0
N1130 N 0.48937 0.73451 0.78908 0.0
N1131 N 0.50288 0.7726 0.75818 0.0
H1132 H 0.23691 0.97119 0.73937 0.0
H1133 H 0.25806 0.0393 0.80881 0.0
H1134 H 0.28374 0.06533 0.74851 0.0
H1135 H 0.21062 0.94559 0.79966 0.0
H1136 H 0.26722 0.0493 0.78689 0.0
H1137 H 0.22756 0.96133 0.76129 0.0
C1138 C 0.24541 0.98982 0.74598 0.0
C1139 C 0.26119 0.01927 0.74199 0.0
C1140 C 0.25473 0.02659 0.78963 0.0
C1141 C 0.25023 0.00798 0.76734 0.0
C1142 C 0.24938 0.0208 0.8022 0.0
C1143 C 0.23351 0.99141 0.80619 0.0
C1144 C 0.24424 1.00286 0.78083 0.0
C1145 C 0.22288 0.9686 0.79708 0.0
C1146 C 0.23994 0.98411 0.75854 0.0
C1147 C 0.27156 0.04226 0.75109 0.0
N1148 N 0.22852 0.97475 0.78485 0.0
N1149 N 0.26584 0.03617 0.76331 0.0
H1150 H 0.48643 0.53931 0.48901 0.0
H1151 H 0.50645 0.46976 0.55832 0.0
H1152 H 0.53331 0.44514 0.49801 0.0
H1153 H 0.45924 0.56368 0.54928 0.0
H1154 H 0.51601 0.46022 0.53638 0.0
H1155 H 0.47676 0.54872 0.51094 0.0
C1156 C 0.49488 0.52059 0.49559 0.0
C1157 C 0.51075 0.49125 0.49156 0.0
C1158 C 0.50348 0.48287 0.53916 0.0
C1159 C 0.49942 0.50201 0.51691 0.0
C1160 C 0.4979 0.48839 0.55173 0.0
C1161 C 0.48198 0.51771 0.55575 0.0
C1162 C 0.49318 0.50681 0.5304 0.0
C1163 C 0.47152 0.54072 0.54667 0.0
C1164 C 0.48923 0.52603 0.50816 0.0
C1165 C 0.52107 0.46813 0.50062 0.0
N1166 N 0.47739 0.53483 0.53445 0.0
N1167 N 0.51515 0.47395 0.51285 0.0
H1168 H 0.73635 0.78979 0.55811 0.0
H1169 H 0.75688 0.71931 0.48894 0.0
H1170 H 0.78293 0.69525 0.54931 0.0
H1171 H 0.70987 0.81355 0.49776 0.0
H1172 H 0.76615 0.71001 0.5109 0.0
H1173 H 0.72695 0.799 0.53616 0.0
C1174 C 0.74479 0.77095 0.55157 0.0
C1175 C 0.7605 0.74157 0.55566 0.0
C1176 C 0.75374 0.73268 0.50807 0.0
C1177 C 0.74948 0.7521 0.53029 0.0
C1178 C 0.74832 0.73807 0.49549 0.0
C1179 C 0.73254 0.7674 0.4914 0.0
C1180 C 0.74341 0.75677 0.51678 0.0
C1181 C 0.72205 0.79057 0.50042 0.0
C1182 C 0.73929 0.77628 0.53899 0.0
C1183 C 0.77082 0.71828 0.54665 0.0
N1184 N 0.72776 0.78481 0.51266 0.0
N1185 N 0.76505 0.724 0.53441 0.0
H1186 H 0.70761 0.44522 0.79971 0.0
H1187 H 0.78695 0.56334 0.74783 0.0
H1188 H 0.76047 0.53563 0.80801 0.0
H1189 H 0.73396 0.47304 0.73952 0.0
H1190 H 0.77794 0.55333 0.76997 0.0
H1191 H 0.71664 0.45519 0.77757 0.0
C1192 C 0.72092 0.46724 0.79691 0.0
C1193 C 0.73327 0.48952 0.80581 0.0
C1194 C 0.76835 0.53568 0.76328 0.0
C1195 C 0.74396 0.501 0.78044 0.0
C1196 C 0.77361 0.54133 0.75063 0.0
C1197 C 0.76122 0.5191 0.74173 0.0
C1198 C 0.75056 0.50758 0.76709 0.0
C1199 C 0.74398 0.49102 0.74598 0.0
C1200 C 0.7262 0.47287 0.78426 0.0
C1201 C 0.75048 0.51761 0.80155 0.0
N1202 N 0.73915 0.48615 0.75829 0.0
N1203 N 0.75533 0.52246 0.78924 0.0
H1204 H 0.25878 0.2203 0.48982 0.0
H1205 H 0.23642 0.2888 0.55916 0.0
H1206 H 0.21043 0.31352 0.49881 0.0
H1207 H 0.28553 0.19615 0.55014 0.0
H1208 H 0.22712 0.29832 0.53721 0.0
H1209 H 0.26828 0.21095 0.51176 0.0
C1210 C 0.24997 0.23883 0.4964 0.0
C1211 C 0.23373 0.26788 0.49236 0.0
C1212 C 0.24001 0.27595 0.53999 0.0
C1213 C 0.24485 0.25717 0.51773 0.0
C1214 C 0.24544 0.27044 0.55257 0.0
C1215 C 0.26182 0.24148 0.5566 0.0
C1216 C 0.25092 0.25237 0.53123 0.0
C1217 C 0.27287 0.21883 0.54753 0.0
C1218 C 0.25553 0.23342 0.50898 0.0
C1219 C 0.22297 0.29076 0.50143 0.0
N1220 N 0.26714 0.22469 0.53529 0.0
N1221 N 0.22879 0.28496 0.51366 0.0
H1222 H 0.2084 0.44414 0.30037 0.0
H1223 H 0.28694 0.56252 0.24836 0.0
H1224 H 0.25909 0.53632 0.3085 0.0
H1225 H 0.23526 0.47114 0.24014 0.0
H1226 H 0.27769 0.55284 0.27049 0.0
H1227 H 0.21785 0.45357 0.27823 0.0
C1228 C 0.22131 0.46643 0.29753 0.0
C1229 C 0.23292 0.48938 0.30638 0.0
C1230 C 0.26845 0.53487 0.26383 0.0
C1231 C 0.24411 0.50024 0.28102 0.0
C1232 C 0.27386 0.54033 0.25118 0.0
C1233 C 0.26188 0.51771 0.2423 0.0
C1234 C 0.25093 0.50657 0.26767 0.0
C1235 C 0.24495 0.48943 0.24658 0.0
C1236 C 0.22683 0.47177 0.28488 0.0
C1237 C 0.24966 0.5178 0.30208 0.0
N1238 N 0.23996 0.48475 0.25889 0.0
N1239 N 0.25476 0.52233 0.28978 0.0
H1240 H 0.03754 0.94387 0.49809 0.0
H1241 H 0.95929 0.06316 0.54993 0.0
H1242 H 0.98638 0.03555 0.48979 0.0
H1243 H 0.01011 0.97123 0.55824 0.0
H1244 H 0.9687 0.05333 0.52781 0.0
H1245 H 0.0283 0.9538 0.52022 0.0
C1246 C 0.02457 0.96617 0.50089 0.0
C1247 C 0.01274 0.98881 0.492 0.0
C1248 C 0.97772 0.03528 0.5345 0.0
C1249 C 0.00181 1.00024 0.51735 0.0
C1250 C 0.97223 0.04084 0.54714 0.0
C1251 C 0.98388 0.01808 0.55603 0.0
C1252 C 0.99502 0.00676 0.53069 0.0
C1253 C 0.00065 0.98962 0.55179 0.0
C1254 C 0.01917 0.97177 0.51354 0.0
C1255 C 0.99595 0.01724 0.49625 0.0
N1256 N 0.00572 0.98486 0.53949 0.0
N1257 N 0.99097 0.02205 0.50855 0.0
H1258 H 0.00722 0.29023 0.73918 0.0
H1259 H 0.98784 0.21859 0.80824 0.0
H1260 H 0.96087 0.19545 0.74786 0.0
H1261 H 0.03428 0.31327 0.79951 0.0
H1262 H 0.97824 0.20958 0.78629 0.0
H1263 H 0.01681 0.29916 0.76114 0.0
C1264 C -0.00113 0.27127 0.7457 0.0
C1265 C 0.98318 0.24191 0.74157 0.0
C1266 C 0.9906 0.23229 0.78913 0.0
C1267 C 0.99442 0.25211 0.76695 0.0
C1268 C 0.99621 0.2375 0.80172 0.0
C1269 C 0.01193 0.26687 0.80583 0.0
C1270 C 0.00067 0.25659 0.78045 0.0
C1271 C 0.02216 0.29025 0.79683 0.0
C1272 C 0.00447 0.27644 0.75828 0.0
C1273 C 0.97296 0.21848 0.75056 0.0
N1274 N 0.01627 0.28466 0.78459 0.0
N1275 N 0.97884 0.22403 0.7628 0.0
H1276 H 0.00728 0.79016 0.23899 0.0
H1277 H 0.98694 0.71999 0.3082 0.0
H1278 H 0.96052 0.69578 0.24786 0.0
H1279 H 0.03366 0.81439 0.29934 0.0
H1280 H 0.97752 0.71065 0.28625 0.0
H1281 H 0.01662 0.79956 0.26094 0.0
C1282 C -0.00122 0.77139 0.24555 0.0
C1283 C 0.98306 0.74199 0.24147 0.0
C1284 C 0.9899 0.73337 0.28906 0.0
C1285 C 0.99401 0.75274 0.26685 0.0
C1286 C 0.99541 0.73877 0.30165 0.0
C1287 C 0.01116 0.76816 0.30572 0.0
C1288 C 0.00011 0.75748 0.28035 0.0
C1289 C 0.02151 0.79137 0.29669 0.0
C1290 C 0.00425 0.77683 0.25813 0.0
C1291 C 0.97266 0.71882 0.25051 0.0
N1292 N 0.01573 0.78558 0.28445 0.0
N1293 N 0.9784 0.72463 0.26275 0.0
H1294 H 0.03623 0.44481 0.99776 0.0
H1295 H 0.95744 0.56465 0.04929 0.0
H1296 H 0.98575 0.53682 0.98924 0.0
H1297 H 0.00778 0.47252 0.05779 0.0
H1298 H 0.96715 0.55466 0.0272 0.0
H1299 H 0.02649 0.45479 1.01985 0.0
C1300 C 0.02331 0.46719 1.00051 0.0
C1301 C 0.01182 0.48991 0.99156 0.0
C1302 C 0.976 0.5366 0.03392 0.0
C1303 C 0.00031 0.50141 1.01686 0.0
C1304 C 0.97033 0.54224 0.04654 0.0
C1305 C 0.98179 0.51949 0.05548 0.0
C1306 C 0.99326 0.50799 0.03018 0.0
C1307 C -0.00151 0.49091 0.0513 0.0
C1308 C 0.01762 0.47283 1.01313 0.0
C1309 C 0.99507 0.51846 0.99574 0.0
N1310 N 0.00374 0.48607 0.03902 0.0
N1311 N 0.9898 0.52331 1.00802 0.0
H1312 H 0.58356 0.03405 0.10918 0.0
H1313 H 0.66293 0.21981 0.10986 0.0
H1314 H 0.53628 0.13106 0.10723 0.0
H1315 H 0.71011 0.12298 0.10671 0.0
H1316 H 0.61646 0.18756 0.1134 0.0
H1317 H 0.63014 0.06604 0.11278 0.0
C1318 C 0.58287 0.06198 0.10974 0.0
C1319 C 0.55609 0.07989 0.1077 0.0
C1320 C 0.6371 0.17342 0.1121 0.0
C1321 C 0.60918 0.11667 0.11172 0.0
C1322 C 0.66363 0.19185 0.11014 0.0
C1323 C 0.69034 0.1741 0.10778 0.0
C1324 C 0.63737 0.13703 0.11174 0.0
C1325 C 0.68993 0.13778 0.10827 0.0
C1326 C 0.60947 0.08027 0.11173 0.0
C1327 C 0.55652 0.11616 0.10854 0.0
N1328 N 0.66388 0.12049 0.11006 0.0
N1329 N 0.58262 0.13332 0.11035 0.0
H1330 H 0.53318 0.12315 0.19013 0.0
H1331 H 0.71031 0.13334 0.1896 0.0
H1332 H 0.58213 0.2191 0.18866 0.0
H1333 H 0.66128 0.03739 0.18862 0.0
H1334 H 0.66394 0.16487 0.18616 0.0
H1335 H 0.57944 0.09158 0.18649 0.0
C1336 C 0.55367 0.13765 0.18888 0.0
C1337 C 0.55385 0.17387 0.18989 0.0
C1338 C 0.66327 0.13692 0.18651 0.0
C1339 C 0.60716 0.13763 0.18583 0.0
C1340 C 0.68978 0.11882 0.18849 0.0
C1341 C 0.68962 0.08263 0.18959 0.0
C1342 C 0.63619 0.11882 0.18576 0.0
C1343 C 0.66242 0.06526 0.18789 0.0
C1344 C 0.58011 0.11954 0.18679 0.0
C1345 C 0.58098 0.19122 0.18801 0.0
N1346 N 0.63671 0.08356 0.18627 0.0
N1347 N 0.60664 0.1729 0.18627 0.0
H1348 H 0.46053 0.87584 0.93903 0.0
H1349 H 0.28333 0.88479 0.94059 0.0
H1350 H 0.411 0.97146 0.93909 0.0
H1351 H 0.33269 0.78925 0.93838 0.0
H1352 H 0.32934 0.91682 0.93695 0.0
H1353 H 0.41419 0.84417 0.93567 0.0
C1354 C 0.43989 0.89026 0.93817 0.0
C1355 C 0.4396 0.92639 0.93953 0.0
C1356 C 0.33016 0.88886 0.93709 0.0
C1357 C 0.3862 0.89002 0.9358 0.0
C1358 C 0.30386 0.87047 0.93918 0.0
C1359 C 0.30422 0.83422 0.93998 0.0
C1360 C 0.35727 0.871 0.93591 0.0
C1361 C 0.33139 0.81714 0.9379 0.0
C1362 C 0.4134 0.87209 0.93624 0.0
C1363 C 0.41226 0.94365 0.93815 0.0
N1364 N 0.35693 0.83571 0.93616 0.0
N1365 N 0.38657 0.92525 0.93656 0.0
H1366 H 0.41201 0.78488 0.8594 0.0
H1367 H 0.33283 0.9707 0.86007 0.0
H1368 H 0.45935 0.88185 0.85732 0.0
H1369 H 0.28559 0.8739 0.85685 0.0
H1370 H 0.37925 0.93841 0.86365 0.0
H1371 H 0.36549 0.81692 0.86305 0.0
C1372 C 0.41273 0.81281 0.85995 0.0
C1373 C 0.4395 0.83071 0.85784 0.0
C1374 C 0.35861 0.92428 0.86232 0.0
C1375 C 0.38648 0.86753 0.86193 0.0
C1376 C 0.33211 0.94274 0.86034 0.0
C1377 C 0.3054 0.925 0.85794 0.0
C1378 C 0.35831 0.8879 0.86195 0.0
C1379 C 0.30578 0.88868 0.85843 0.0
C1380 C 0.38617 0.83113 0.86197 0.0
C1381 C 0.43912 0.86698 0.85867 0.0
N1382 N 0.3318 0.87138 0.86024 0.0
N1383 N 0.41304 0.88415 0.86052 0.0
H1384 H 0.66082 0.72384 0.60908 0.0
H1385 H 0.58099 0.53831 0.60975 0.0
H1386 H 0.70785 0.62667 0.60722 0.0
H1387 H 0.53409 0.63522 0.60622 0.0
H1388 H 0.62746 0.57048 0.61338 0.0
H1389 H 0.61411 0.69202 0.6126 0.0
C1390 C 0.66142 0.69591 0.60965 0.0
C1391 C 0.68817 0.67789 0.60765 0.0
C1392 C 0.60688 0.58467 0.61197 0.0
C1393 C 0.63494 0.64131 0.61158 0.0
C1394 C 0.58035 0.56628 0.60997 0.0
C1395 C 0.55373 0.58407 0.60748 0.0
C1396 C 0.6067 0.62105 0.61154 0.0
C1397 C 0.55421 0.62039 0.60788 0.0
C1398 C 0.63476 0.67772 0.61159 0.0
C1399 C 0.68764 0.64163 0.60849 0.0
N1400 N 0.58026 0.63763 0.60973 0.0
N1401 N 0.66148 0.62457 0.61026 0.0
H1402 H 0.53265 0.62497 0.68948 0.0
H1403 H 0.7098 0.63523 0.69032 0.0
H1404 H 0.58165 0.72095 0.68887 0.0
H1405 H 0.66091 0.53928 0.68852 0.0
H1406 H 0.66355 0.66684 0.68674 0.0
H1407 H 0.57908 0.59353 0.68606 0.0
C1408 C 0.55319 0.63951 0.68846 0.0
C1409 C 0.55331 0.67569 0.68965 0.0
C1410 C 0.66289 0.63888 0.68695 0.0
C1411 C 0.60682 0.63959 0.68585 0.0
C1412 C 0.68933 0.62073 0.68901 0.0
C1413 C 0.68917 0.5845 0.68991 0.0
C1414 C 0.63585 0.62079 0.68592 0.0
C1415 C 0.66206 0.56717 0.68796 0.0
C1416 C 0.57973 0.62147 0.6865 0.0
C1417 C 0.58052 0.6931 0.68807 0.0
N1418 N 0.63639 0.58552 0.68625 0.0
N1419 N 0.60627 0.67484 0.68645 0.0
H1420 H 0.41169 0.47223 0.43791 0.0
H1421 H 0.33219 0.28655 0.43822 0.0
H1422 H 0.45889 0.37526 0.44033 0.0
H1423 H 0.28514 0.38355 0.44099 0.0
H1424 H 0.37865 0.3186 0.43441 0.0
H1425 H 0.3651 0.44015 0.43443 0.0
C1426 C 0.41236 0.44428 0.43747 0.0
C1427 C 0.43911 0.42642 0.43962 0.0
C1428 C 0.35804 0.33282 0.43568 0.0
C1429 C 0.38602 0.38954 0.43575 0.0
C1430 C 0.33152 0.3145 0.4378 0.0
C1431 C 0.30487 0.33238 0.44014 0.0
C1432 C 0.3578 0.36922 0.43586 0.0
C1433 C 0.3053 0.36868 0.43946 0.0
C1434 C 0.38576 0.42594 0.43556 0.0
C1435 C 0.43867 0.39012 0.43894 0.0
N1436 N 0.33133 0.38585 0.43752 0.0
N1437 N 0.41256 0.37292 0.4372 0.0
H1438 H 0.41219 0.28744 0.36022 0.0
H1439 H 0.33296 0.47321 0.35979 0.0
H1440 H 0.45933 0.38425 0.3568 0.0
H1441 H 0.28555 0.37621 0.35822 0.0
H1442 H 0.3796 0.44124 0.36324 0.0
H1443 H 0.36586 0.31972 0.36401 0.0
C1444 C 0.41291 0.3154 0.36049 0.0
C1445 C 0.43955 0.33314 0.35798 0.0
C1446 C 0.35888 0.42701 0.36231 0.0
C1447 C 0.38675 0.37024 0.36223 0.0
C1448 C 0.33226 0.44529 0.36041 0.0
C1449 C 0.30542 0.42736 0.35851 0.0
C1450 C 0.35857 0.39061 0.36235 0.0
C1451 C 0.30583 0.39111 0.35942 0.0
C1452 C 0.38646 0.33385 0.3626 0.0
C1453 C 0.43918 0.36946 0.35846 0.0
N1454 N 0.33196 0.37396 0.36114 0.0
N1455 N 0.41321 0.38676 0.3604 0.0
H1456 H 0.03456 0.13216 0.60867 0.0
H1457 H 0.21175 0.12347 0.60776 0.0
H1458 H 0.08416 0.03659 0.6089 0.0
H1459 H 0.16224 0.21892 0.60988 0.0
H1460 H 0.16572 0.09135 0.61129 0.0
H1461 H 0.08078 0.16389 0.61225 0.0
C1462 C 0.05519 0.11776 0.60964 0.0
C1463 C 0.05555 0.08163 0.6083 0.0
C1464 C 0.16487 0.11931 0.61116 0.0
C1465 C 0.10881 0.11807 0.61227 0.0
C1466 C 0.19118 0.13774 0.60913 0.0
C1467 C 0.19078 0.17399 0.60833 0.0
C1468 C 0.13772 0.13713 0.61226 0.0
C1469 C 0.16357 0.19103 0.61036 0.0
C1470 C 0.08161 0.13597 0.61169 0.0
C1471 C 0.08286 0.0644 0.60982 0.0
N1472 N 0.13803 0.17241 0.61203 0.0
N1473 N 0.10849 0.08283 0.61152 0.0
H1474 H 0.16205 0.038 0.68802 0.0
H1475 H 0.08279 0.22382 0.68805 0.0
H1476 H 0.20937 0.13488 0.69066 0.0
H1477 H 0.03547 0.12686 0.69021 0.0
H1478 H 0.12938 0.19174 0.68456 0.0
H1479 H 0.1156 0.07018 0.68438 0.0
C1480 C 0.16278 0.06595 0.68761 0.0
C1481 C 0.18953 0.08375 0.68985 0.0
C1482 C 0.10869 0.17754 0.68563 0.0
C1483 C 0.13658 0.12074 0.68578 0.0
C1484 C 0.08209 0.19588 0.68755 0.0
C1485 C 0.0553 0.17801 0.68963 0.0
C1486 C 0.10839 0.14113 0.68573 0.0
C1487 C 0.05571 0.14172 0.68888 0.0
C1488 C 0.13626 0.08435 0.68559 0.0
C1489 C 0.18916 0.12005 0.68919 0.0
N1490 N 0.08182 0.12453 0.68713 0.0
N1491 N 0.16312 0.1373 0.68735 0.0
H1492 H 0.9612 0.87348 0.44019 0.0
H1493 H 0.78406 0.88373 0.43978 0.0
H1494 H 0.9123 0.96946 0.43887 0.0
H1495 H 0.833 0.78777 0.43859 0.0
H1496 H 0.83045 0.91528 0.43639 0.0
H1497 H 0.91491 0.84195 0.43656 0.0
C1498 C 0.94071 0.888 0.43898 0.0
C1499 C 0.94057 0.92421 0.44002 0.0
C1500 C 0.8311 0.88733 0.43669 0.0
C1501 C 0.88721 0.88802 0.43597 0.0
C1502 C 0.80458 0.86922 0.43864 0.0
C1503 C 0.80471 0.83301 0.43966 0.0
C1504 C 0.85817 0.86922 0.43589 0.0
C1505 C 0.83188 0.81564 0.43793 0.0
C1506 C 0.91425 0.86991 0.43689 0.0
C1507 C 0.91344 0.94158 0.43819 0.0
N1508 N 0.85762 0.83395 0.43633 0.0
N1509 N 0.88775 0.92328 0.43645 0.0
H1510 H 0.91191 0.78665 0.35946 0.0
H1511 H 0.83193 0.97204 0.35968 0.0
H1512 H 0.95881 0.88383 0.35699 0.0
H1513 H 0.78509 0.87493 0.35672 0.0
H1514 H 0.87851 0.94008 0.36331 0.0
H1515 H 0.86527 0.81852 0.36307 0.0
C1516 C 0.91251 0.8146 0.35991 0.0
C1517 C 0.93918 0.83258 0.35772 0.0
C1518 C 0.85792 0.92582 0.36203 0.0
C1519 C 0.88604 0.86921 0.36175 0.0
C1520 C 0.83133 0.94408 0.36002 0.0
C1521 C 0.8047 0.92615 0.35768 0.0
C1522 C 0.85777 0.88942 0.36175 0.0
C1523 C 0.80523 0.88984 0.35825 0.0
C1524 C 0.88588 0.83281 0.36191 0.0
C1525 C 0.93865 0.86887 0.35842 0.0
N1526 N 0.83133 0.87272 0.36009 0.0
N1527 N 0.91251 0.88595 0.36024 0.0
H1528 H 0.16163 0.7222 0.10962 0.0
H1529 H 0.08078 0.5373 0.10963 0.0
H1530 H 0.2081 0.62472 0.10732 0.0
H1531 H 0.03446 0.6347 0.10652 0.0
H1532 H 0.12743 0.56898 0.11341 0.0
H1533 H 0.11479 0.69063 0.11313 0.0
C1534 C 0.16209 0.69425 0.11009 0.0
C1535 C 0.1887 0.67608 0.10796 0.0
C1536 C 0.10694 0.58338 0.11207 0.0
C1537 C 0.13533 0.6398 0.11188 0.0
C1538 C 0.0803 0.56527 0.10997 0.0
C1539 C 0.0538 0.58336 0.10755 0.0
C1540 C 0.10697 0.61977 0.11179 0.0
C1541 C 0.05449 0.61966 0.10812 0.0
C1542 C 0.13535 0.6762 0.11203 0.0
C1543 C 0.18799 0.6398 0.10869 0.0
N1544 N 0.08064 0.63663 0.11005 0.0
N1545 N 0.16175 0.62289 0.11045 0.0
H1546 H 0.08298 0.72258 0.18819 0.0
H1547 H 0.16226 0.53673 0.18825 0.0
H1548 H 0.03561 0.62566 0.1904 0.0
H1549 H 0.20936 0.63359 0.19158 0.0
H1550 H 0.11589 0.56896 0.18447 0.0
H1551 H 0.1296 0.69045 0.18485 0.0
C1552 C 0.08229 0.69463 0.18773 0.0
C1553 C 0.05547 0.67679 0.18978 0.0
C1554 C 0.13649 0.58311 0.18587 0.0
C1555 C 0.10859 0.63987 0.18605 0.0
C1556 C 0.16297 0.56469 0.18797 0.0
C1557 C 0.18961 0.58246 0.19044 0.0
C1558 C 0.13677 0.6195 0.1862 0.0
C1559 C 0.18922 0.61878 0.18994 0.0
C1560 C 0.1089 0.67627 0.18589 0.0
C1561 C 0.05588 0.6405 0.18908 0.0
N1562 N 0.16323 0.63605 0.18801 0.0
N1563 N 0.082 0.62328 0.18741 0.0
H1564 H 0.83272 0.28619 0.93785 0.0
H1565 H 0.91274 0.47161 0.93771 0.0
H1566 H 0.78593 0.38336 0.94063 0.0
H1567 H 0.95962 0.37449 0.94041 0.0
H1568 H 0.86612 0.43967 0.93413 0.0
H1569 H 0.87932 0.31809 0.93415 0.0
C1570 C 0.83214 0.31415 0.93745 0.0
C1571 C 0.80552 0.33212 0.93976 0.0
C1572 C 0.88672 0.42539 0.93534 0.0
C1573 C 0.8586 0.36878 0.93561 0.0
C1574 C 0.91334 0.44365 0.93732 0.0
C1575 C 0.94 0.42571 0.93957 0.0
C1576 C 0.88687 0.389 0.93557 0.0
C1577 C 0.93947 0.38941 0.93894 0.0
C1578 C 0.85874 0.33238 0.9354 0.0
C1579 C 0.80606 0.36842 0.93911 0.0
N1580 N 0.91334 0.37229 0.93713 0.0
N1581 N 0.83216 0.38551 0.93723 0.0
H1582 H 0.91256 0.28527 0.85946 0.0
H1583 H 0.83282 0.4708 0.85976 0.0
H1584 H 0.9596 0.38238 0.85712 0.0
H1585 H 0.78588 0.37379 0.85662 0.0
H1586 H 0.87933 0.43873 0.8634 0.0
H1587 H 0.86594 0.31719 0.86304 0.0
C1588 C 0.91319 0.31322 0.85994 0.0
C1589 C 0.9399 0.33118 0.85778 0.0
C1590 C 0.85874 0.42451 0.86208 0.0
C1591 C 0.88678 0.36786 0.86178 0.0
C1592 C 0.83219 0.44284 0.86007 0.0
C1593 C 0.80554 0.42497 0.85768 0.0
C1594 C 0.85854 0.38812 0.86175 0.0
C1595 C 0.80602 0.38866 0.85819 0.0
C1596 C 0.88657 0.33147 0.86191 0.0
C1597 C 0.93941 0.36746 0.85851 0.0
N1598 N 0.83209 0.37148 0.86004 0.0
N1599 N 0.91328 0.38457 0.86031 0.0
loop_
_geom_bond_atom_site_label_1
_geom_bond_atom_site_label_2
_geom_bond_distance
_geom_bond_site_symmetry_2
_ccdc_geom_bond_type
O0 Cd1 2.223 . S
O0 C8 1.315 . S
Cd1 O0 2.223 . S
Cd1 O4 2.297 1_545 S
Cd1 O5 2.439 1_545 S
Cd1 O11 2.240 . S
Cd2 O3 2.240 . S
Cd2 O10 2.223 . S
Cd2 O12 2.297 . S
Cd2 O13 2.439 . S
O3 Cd2 2.240 . S
O3 C8 1.279 . S
O4 Cd1 2.297 1_565 S
O4 C6 1.247 . S
O5 Cd1 2.439 1_565 S
O5 C6 1.208 . S
C6 O4 1.247 . S
C6 O5 1.208 . S
C7 O12 1.247 . S
C7 O13 1.208 . S
C8 O0 1.315 . S
C8 O3 1.279 . S
C9 O10 1.315 . S
C9 O11 1.279 . S
O10 Cd2 2.223 . S
O10 C9 1.315 . S
O11 Cd1 2.240 . S
O11 C9 1.279 . S
O12 Cd2 2.297 . S
O12 C7 1.247 . S
O13 Cd2 2.439 . S
O13 C7 1.208 . S
O14 Cd15 2.223 . S
O14 C22 1.315 . S
Cd15 O14 2.223 . S
Cd15 O18 2.297 . S
Cd15 O19 2.439 . S
Cd15 O25 2.240 . S
Cd16 O17 2.240 . S
Cd16 O24 2.223 . S
Cd16 O26 2.297 . S
Cd16 O27 2.439 . S
O17 Cd16 2.240 . S
O17 C22 1.279 . S
O18 Cd15 2.297 . S
O18 C20 1.247 . S
O19 Cd15 2.439 . S
O19 C20 1.208 . S
C20 O18 1.247 . S
C20 O19 1.208 . S
C21 O26 1.247 . S
C21 O27 1.208 . S
C22 O14 1.315 . S
C22 O17 1.279 . S
C23 O24 1.315 . S
C23 O25 1.279 . S
O24 Cd16 2.223 . S
O24 C23 1.315 . S
O25 Cd15 2.240 . S
O25 C23 1.279 . S
O26 Cd16 2.297 . S
O26 C21 1.247 . S
O27 Cd16 2.439 . S
O27 C21 1.208 . S
O28 Cd29 2.223 . S
O28 C36 1.315 . S
Cd29 O28 2.223 . S
Cd29 O32 2.297 . S
Cd29 O33 2.439 . S
Cd29 O39 2.240 . S
Cd30 O31 2.240 . S
Cd30 O38 2.223 . S
Cd30 O40 2.297 . S
Cd30 O41 2.439 . S
O31 Cd30 2.240 . S
O31 C36 1.279 . S
O32 Cd29 2.297 . S
O32 C34 1.247 . S
O33 Cd29 2.439 . S
O33 C34 1.208 . S
C34 O32 1.247 . S
C34 O33 1.208 . S
C35 O40 1.247 . S
C35 O41 1.208 . S
C36 O28 1.315 . S
C36 O31 1.279 . S
C37 O38 1.315 . S
C37 O39 1.279 . S
O38 Cd30 2.223 . S
O38 C37 1.315 . S
O39 Cd29 2.240 . S
O39 C37 1.279 . S
O40 Cd30 2.297 . S
O40 C35 1.247 . S
O41 Cd30 2.439 . S
O41 C35 1.208 . S
O42 Cd43 2.223 . S
O42 C50 1.315 . S
Cd43 O42 2.223 . S
Cd43 O46 2.297 1_545 S
Cd43 O47 2.439 1_545 S
Cd43 O53 2.240 . S
Cd44 O45 2.240 . S
Cd44 O52 2.223 . S
Cd44 O54 2.297 . S
Cd44 O55 2.439 . S
O45 Cd44 2.240 . S
O45 C50 1.279 . S
O46 Cd43 2.297 1_565 S
O46 C48 1.247 . S
O47 Cd43 2.439 1_565 S
O47 C48 1.208 . S
C48 O46 1.247 . S
C48 O47 1.208 . S
C49 O54 1.247 . S
C49 O55 1.208 . S
C50 O42 1.315 . S
C50 O45 1.279 . S
C51 O52 1.315 . S
C51 O53 1.279 . S
O52 Cd44 2.223 . S
O52 C51 1.315 . S
O53 Cd43 2.240 . S
O53 C51 1.279 . S
O54 Cd44 2.297 . S
O54 C49 1.247 . S
O55 Cd44 2.439 . S
O55 C49 1.208 . S
O56 Cd57 2.223 . S
O56 C64 1.315 . S
Cd57 O56 2.223 . S
Cd57 O60 2.297 1_565 S
Cd57 O61 2.439 1_565 S
Cd57 O67 2.240 . S
Cd58 O59 2.240 . S
Cd58 O66 2.223 . S
Cd58 O68 2.297 . S
Cd58 O69 2.439 . S
O59 Cd58 2.240 . S
O59 C64 1.279 . S
O60 Cd57 2.297 1_545 S
O60 C62 1.247 . S
O61 Cd57 2.439 1_545 S
O61 C62 1.208 . S
C62 O60 1.247 . S
C62 O61 1.208 . S
C63 O68 1.247 . S
C63 O69 1.208 . S
C64 O56 1.315 . S
C64 O59 1.279 . S
C65 O66 1.315 . S
C65 O67 1.279 . S
O66 Cd58 2.223 . S
O66 C65 1.315 . S
O67 Cd57 2.240 . S
O67 C65 1.279 . S
O68 Cd58 2.297 . S
O68 C63 1.247 . S
O69 Cd58 2.439 . S
O69 C63 1.208 . S
O70 Cd71 2.223 . S
O70 C78 1.315 . S
Cd71 O70 2.223 . S
Cd71 O74 2.297 . S
Cd71 O75 2.439 . S
Cd71 O81 2.240 . S
Cd72 O73 2.240 . S
Cd72 O80 2.223 . S
Cd72 O82 2.297 . S
Cd72 O83 2.439 . S
O73 Cd72 2.240 . S
O73 C78 1.279 . S
O74 Cd71 2.297 . S
O74 C76 1.247 . S
O75 Cd71 2.439 . S
O75 C76 1.208 . S
C76 O74 1.247 . S
C76 O75 1.208 . S
C77 O82 1.247 . S
C77 O83 1.208 . S
C78 O70 1.315 . S
C78 O73 1.279 . S
C79 O80 1.315 . S
C79 O81 1.279 . S
O80 Cd72 2.223 . S
O80 C79 1.315 . S
O81 Cd71 2.240 . S
O81 C79 1.279 . S
O82 Cd72 2.297 . S
O82 C77 1.247 . S
O83 Cd72 2.439 . S
O83 C77 1.208 . S
O84 Cd85 2.223 . S
O84 C92 1.315 . S
Cd85 O84 2.223 . S
Cd85 O88 2.297 . S
Cd85 O89 2.439 . S
Cd85 O95 2.240 . S
Cd86 O87 2.240 . S
Cd86 O94 2.223 . S
Cd86 O96 2.297 . S
Cd86 O97 2.439 . S
O87 Cd86 2.240 . S
O87 C92 1.279 . S
O88 Cd85 2.297 . S
O88 C90 1.247 . S
O89 Cd85 2.439 . S
O89 C90 1.208 . S
C90 O88 1.247 . S
C90 O89 1.208 . S
C91 O96 1.247 . S
C91 O97 1.208 . S
C92 O84 1.315 . S
C92 O87 1.279 . S
C93 O94 1.315 . S
C93 O95 1.279 . S
O94 Cd86 2.223 . S
O94 C93 1.315 . S
O95 Cd85 2.240 . S
O95 C93 1.279 . S
O96 Cd86 2.297 . S
O96 C91 1.247 . S
O97 Cd86 2.439 . S
O97 C91 1.208 . S
O98 Cd99 2.223 . S
O98 C106 1.315 . S
Cd99 O98 2.223 . S
Cd99 O102 2.297 1_565 S
Cd99 O103 2.439 1_565 S
Cd99 O109 2.240 . S
Cd100 O101 2.240 . S
Cd100 O108 2.223 . S
Cd100 O110 2.297 . S
Cd100 O111 2.439 . S
O101 Cd100 2.240 . S
O101 C106 1.279 . S
O102 Cd99 2.297 1_545 S
O102 C104 1.247 . S
O103 Cd99 2.439 1_545 S
O103 C104 1.208 . S
C104 O102 1.247 . S
C104 O103 1.208 . S
C105 O110 1.247 . S
C105 O111 1.208 . S
C106 O98 1.315 . S
C106 O101 1.279 . S
C107 O108 1.315 . S
C107 O109 1.279 . S
O108 Cd100 2.223 . S
O108 C107 1.315 . S
O109 Cd99 2.240 . S
O109 C107 1.279 . S
O110 Cd100 2.297 . S
O110 C105 1.247 . S
O111 Cd100 2.439 . S
O111 C105 1.208 . S
O112 Cd113 2.223 . S
O112 C120 1.315 . S
Cd113 O112 2.223 . S
Cd113 O116 2.297 . S
Cd113 O117 2.439 . S
Cd113 O123 2.240 . S
Cd114 O115 2.240 . S
Cd114 O122 2.223 . S
Cd114 O124 2.297 . S
Cd114 O125 2.439 . S
O115 Cd114 2.240 . S
O115 C120 1.279 . S
O116 Cd113 2.297 . S
O116 C118 1.247 . S
O117 Cd113 2.439 . S
O117 C118 1.208 . S
C118 O116 1.247 . S
C118 O117 1.208 . S
C119 O124 1.247 . S
C119 O125 1.208 . S
C120 O112 1.315 . S
C120 O115 1.279 . S
C121 O122 1.315 . S
C121 O123 1.279 . S
O122 Cd114 2.223 . S
O122 C121 1.315 . S
O123 Cd113 2.240 . S
O123 C121 1.279 . S
O124 Cd114 2.297 . S
O124 C119 1.247 . S
O125 Cd114 2.439 . S
O125 C119 1.208 . S
O126 Cd127 2.223 . S
O126 C134 1.315 . S
Cd127 O126 2.223 . S
Cd127 O130 2.297 . S
Cd127 O131 2.439 . S
Cd127 O137 2.240 . S
Cd128 O129 2.240 . S
Cd128 O136 2.223 . S
Cd128 O138 2.297 . S
Cd128 O139 2.439 . S
O129 Cd128 2.240 . S
O129 C134 1.279 . S
O130 Cd127 2.297 . S
O130 C132 1.247 . S
O131 Cd127 2.439 . S
O131 C132 1.208 . S
C132 O130 1.247 . S
C132 O131 1.208 . S
C133 O138 1.247 . S
C133 O139 1.208 . S
C134 O126 1.315 . S
C134 O129 1.279 . S
C135 O136 1.315 . S
C135 O137 1.279 . S
O136 Cd128 2.223 . S
O136 C135 1.315 . S
O137 Cd127 2.240 . S
O137 C135 1.279 . S
O138 Cd128 2.297 . S
O138 C133 1.247 . S
O139 Cd128 2.439 . S
O139 C133 1.208 . S
O140 Cd141 2.223 . S
O140 C148 1.315 . S
Cd141 O140 2.223 . S
Cd141 O144 2.297 . S
Cd141 O145 2.439 . S
Cd141 O151 2.240 . S
Cd142 O143 2.240 . S
Cd142 O150 2.223 . S
Cd142 O152 2.297 . S
Cd142 O153 2.439 . S
O143 Cd142 2.240 . S
O143 C148 1.279 . S
O144 Cd141 2.297 . S
O144 C146 1.247 . S
O145 Cd141 2.439 . S
O145 C146 1.208 . S
C146 O144 1.247 . S
C146 O145 1.208 . S
C147 O152 1.247 . S
C147 O153 1.208 . S
C148 O140 1.315 . S
C148 O143 1.279 . S
C149 O150 1.315 . S
C149 O151 1.279 . S
O150 Cd142 2.223 . S
O150 C149 1.315 . S
O151 Cd141 2.240 . S
O151 C149 1.279 . S
O152 Cd142 2.297 . S
O152 C147 1.247 . S
O153 Cd142 2.439 . S
O153 C147 1.208 . S
O154 Cd155 2.223 . S
O154 C162 1.315 . S
Cd155 O154 2.223 . S
Cd155 O158 2.297 . S
Cd155 O159 2.439 . S
Cd155 O165 2.240 . S
Cd156 O157 2.240 . S
Cd156 O164 2.223 . S
Cd156 O166 2.297 . S
Cd156 O167 2.439 . S
O157 Cd156 2.240 . S
O157 C162 1.279 . S
O158 Cd155 2.297 . S
O158 C160 1.247 . S
O159 Cd155 2.439 . S
O159 C160 1.208 . S
C160 O158 1.247 . S
C160 O159 1.208 . S
C161 O166 1.247 . S
C161 O167 1.208 . S
C162 O154 1.315 . S
C162 O157 1.279 . S
C163 O164 1.315 . S
C163 O165 1.279 . S
O164 Cd156 2.223 . S
O164 C163 1.315 . S
O165 Cd155 2.240 . S
O165 C163 1.279 . S
O166 Cd156 2.297 . S
O166 C161 1.247 . S
O167 Cd156 2.439 . S
O167 C161 1.208 . S
O168 Cd169 2.223 . S
O168 C176 1.315 . S
Cd169 O168 2.223 . S
Cd169 O172 2.297 . S
Cd169 O173 2.439 . S
Cd169 O179 2.240 . S
Cd170 O171 2.240 . S
Cd170 O178 2.223 . S
Cd170 O180 2.297 . S
Cd170 O181 2.439 . S
O171 Cd170 2.240 . S
O171 C176 1.279 . S
O172 Cd169 2.297 . S
O172 C174 1.247 . S
O173 Cd169 2.439 . S
O173 C174 1.208 . S
C174 O172 1.247 . S
C174 O173 1.208 . S
C175 O180 1.247 . S
C175 O181 1.208 . S
C176 O168 1.315 . S
C176 O171 1.279 . S
C177 O178 1.315 . S
C177 O179 1.279 . S
O178 Cd170 2.223 . S
O178 C177 1.315 . S
O179 Cd169 2.240 . S
O179 C177 1.279 . S
O180 Cd170 2.297 . S
O180 C175 1.247 . S
O181 Cd170 2.439 . S
O181 C175 1.208 . S
O182 Cd183 2.223 . S
O182 C190 1.315 . S
Cd183 O182 2.223 . S
Cd183 O186 2.297 . S
Cd183 O187 2.439 . S
Cd183 O193 2.240 . S
Cd184 O185 2.240 . S
Cd184 O192 2.223 . S
Cd184 O194 2.297 . S
Cd184 O195 2.439 . S
O185 Cd184 2.240 . S
O185 C190 1.279 . S
O186 Cd183 2.297 . S
O186 C188 1.247 . S
O187 Cd183 2.439 . S
O187 C188 1.208 . S
C188 O186 1.247 . S
C188 O187 1.208 . S
C189 O194 1.247 . S
C189 O195 1.208 . S
C190 O182 1.315 . S
C190 O185 1.279 . S
C191 O192 1.315 . S
C191 O193 1.279 . S
O192 Cd184 2.223 . S
O192 C191 1.315 . S
O193 Cd183 2.240 . S
O193 C191 1.279 . S
O194 Cd184 2.297 . S
O194 C189 1.247 . S
O195 Cd184 2.439 . S
O195 C189 1.208 . S
O196 Cd197 2.223 . S
O196 C204 1.315 . S
Cd197 O196 2.223 . S
Cd197 O200 2.297 . S
Cd197 O201 2.439 . S
Cd197 O207 2.240 . S
Cd198 O199 2.240 . S
Cd198 O206 2.223 . S
Cd198 O208 2.297 . S
Cd198 O209 2.439 . S
O199 Cd198 2.240 . S
O199 C204 1.279 . S
O200 Cd197 2.297 . S
O200 C202 1.247 . S
O201 Cd197 2.439 . S
O201 C202 1.208 . S
C202 O200 1.247 . S
C202 O201 1.208 . S
C203 O208 1.247 . S
C203 O209 1.208 . S
C204 O196 1.315 . S
C204 O199 1.279 . S
C205 O206 1.315 . S
C205 O207 1.279 . S
O206 Cd198 2.223 . S
O206 C205 1.315 . S
O207 Cd197 2.240 . S
O207 C205 1.279 . S
O208 Cd198 2.297 . S
O208 C203 1.247 . S
O209 Cd198 2.439 . S
O209 C203 1.208 . S
O210 Cd211 2.223 . S
O210 C218 1.315 . S
Cd211 O210 2.223 . S
Cd211 O214 2.297 . S
Cd211 O215 2.439 . S
Cd211 O221 2.240 . S
Cd212 O213 2.240 . S
Cd212 O220 2.223 . S
Cd212 O222 2.297 . S
Cd212 O223 2.439 . S
O213 Cd212 2.240 . S
O213 C218 1.279 . S
O214 Cd211 2.297 . S
O214 C216 1.247 . S
O215 Cd211 2.439 . S
O215 C216 1.208 . S
C216 O214 1.247 . S
C216 O215 1.208 . S
C217 O222 1.247 . S
C217 O223 1.208 . S
C218 O210 1.315 . S
C218 O213 1.279 . S
C219 O220 1.315 . S
C219 O221 1.279 . S
O220 Cd212 2.223 . S
O220 C219 1.315 . S
O221 Cd211 2.240 . S
O221 C219 1.279 . S
O222 Cd212 2.297 . S
O222 C217 1.247 . S
O223 Cd212 2.439 . S
O223 C217 1.208 . S
O224 Cd225 2.223 . S
O224 C232 1.315 . S
Cd225 O224 2.223 . S
Cd225 O228 2.297 1_545 S
Cd225 O229 2.439 1_545 S
Cd225 O235 2.240 1_655 S
Cd226 O227 2.240 . S
Cd226 O234 2.223 1_655 S
Cd226 O236 2.297 . S
Cd226 O237 2.439 . S
O227 Cd226 2.240 . S
O227 C232 1.279 . S
O228 Cd225 2.297 1_565 S
O228 C230 1.247 . S
O229 Cd225 2.439 1_565 S
O229 C230 1.208 . S
C230 O228 1.247 . S
C230 O229 1.208 . S
C231 O236 1.247 . S
C231 O237 1.208 . S
C232 O224 1.315 . S
C232 O227 1.279 . S
C233 O234 1.315 . S
C233 O235 1.279 . S
O234 Cd226 2.223 1_455 S
O234 C233 1.315 . S
O235 Cd225 2.240 1_455 S
O235 C233 1.279 . S
O236 Cd226 2.297 . S
O236 C231 1.247 . S
O237 Cd226 2.439 . S
O237 C231 1.208 . S
O238 Cd239 2.223 . S
O238 C246 1.315 . S
Cd239 O238 2.223 . S
Cd239 O242 2.297 . S
Cd239 O243 2.439 . S
Cd239 O249 2.240 . S
Cd240 O241 2.240 . S
Cd240 O248 2.223 . S
Cd240 O250 2.297 . S
Cd240 O251 2.439 . S
O241 Cd240 2.240 . S
O241 C246 1.279 . S
O242 Cd239 2.297 . S
O242 C244 1.247 . S
O243 Cd239 2.439 . S
O243 C244 1.208 . S
C244 O242 1.247 . S
C244 O243 1.208 . S
C245 O250 1.247 . S
C245 O251 1.208 . S
C246 O238 1.315 . S
C246 O241 1.279 . S
C247 O248 1.315 . S
C247 O249 1.279 . S
O248 Cd240 2.223 . S
O248 C247 1.315 . S
O249 Cd239 2.240 . S
O249 C247 1.279 . S
O250 Cd240 2.297 . S
O250 C245 1.247 . S
O251 Cd240 2.439 . S
O251 C245 1.208 . S
O252 Cd253 2.223 . S
O252 C260 1.315 . S
Cd253 O252 2.223 . S
Cd253 O256 2.297 . S
Cd253 O257 2.439 . S
Cd253 O263 2.240 1_655 S
Cd254 O255 2.240 . S
Cd254 O262 2.223 1_655 S
Cd254 O264 2.297 . S
Cd254 O265 2.439 . S
O255 Cd254 2.240 . S
O255 C260 1.279 . S
O256 Cd253 2.297 . S
O256 C258 1.247 . S
O257 Cd253 2.439 . S
O257 C258 1.208 . S
C258 O256 1.247 . S
C258 O257 1.208 . S
C259 O264 1.247 . S
C259 O265 1.208 . S
C260 O252 1.315 . S
C260 O255 1.279 . S
C261 O262 1.315 . S
C261 O263 1.279 . S
O262 Cd254 2.223 1_455 S
O262 C261 1.315 . S
O263 Cd253 2.240 1_455 S
O263 C261 1.279 . S
O264 Cd254 2.297 . S
O264 C259 1.247 . S
O265 Cd254 2.439 . S
O265 C259 1.208 . S
O266 Cd267 2.223 . S
O266 C274 1.315 . S
Cd267 O266 2.223 . S
Cd267 O270 2.297 1_545 S
Cd267 O271 2.439 1_545 S
Cd267 O277 2.240 . S
Cd268 O269 2.240 . S
Cd268 O276 2.223 . S
Cd268 O278 2.297 . S
Cd268 O279 2.439 . S
O269 Cd268 2.240 . S
O269 C274 1.279 . S
O270 Cd267 2.297 1_565 S
O270 C272 1.247 . S
O271 Cd267 2.439 1_565 S
O271 C272 1.208 . S
C272 O270 1.247 . S
C272 O271 1.208 . S
C273 O278 1.247 . S
C273 O279 1.208 . S
C274 O266 1.315 . S
C274 O269 1.279 . S
C275 O276 1.315 . S
C275 O277 1.279 . S
O276 Cd268 2.223 . S
O276 C275 1.315 . S
O277 Cd267 2.240 . S
O277 C275 1.279 . S
O278 Cd268 2.297 . S
O278 C273 1.247 . S
O279 Cd268 2.439 . S
O279 C273 1.208 . S
O280 Cd281 2.223 . S
O280 C288 1.315 . S
Cd281 O280 2.223 . S
Cd281 O284 2.297 1_565 S
Cd281 O285 2.439 1_565 S
Cd281 O291 2.240 1_455 S
Cd282 O283 2.240 . S
Cd282 O290 2.223 1_455 S
Cd282 O292 2.297 . S
Cd282 O293 2.439 . S
O283 Cd282 2.240 . S
O283 C288 1.279 . S
O284 Cd281 2.297 1_545 S
O284 C286 1.247 . S
O285 Cd281 2.439 1_545 S
O285 C286 1.208 . S
C286 O284 1.247 . S
C286 O285 1.208 . S
C287 O292 1.247 . S
C287 O293 1.208 . S
C288 O280 1.315 . S
C288 O283 1.279 . S
C289 O290 1.315 . S
C289 O291 1.279 . S
O290 Cd282 2.223 1_655 S
O290 C289 1.315 . S
O291 Cd281 2.240 1_655 S
O291 C289 1.279 . S
O292 Cd282 2.297 . S
O292 C287 1.247 . S
O293 Cd282 2.439 . S
O293 C287 1.208 . S
O294 Cd295 2.223 . S
O294 C302 1.315 . S
Cd295 O294 2.223 . S
Cd295 O298 2.297 . S
Cd295 O299 2.439 . S
Cd295 O305 2.240 . S
Cd296 O297 2.240 . S
Cd296 O304 2.223 . S
Cd296 O306 2.297 . S
Cd296 O307 2.439 . S
O297 Cd296 2.240 . S
O297 C302 1.279 . S
O298 Cd295 2.297 . S
O298 C300 1.247 . S
O299 Cd295 2.439 . S
O299 C300 1.208 . S
C300 O298 1.247 . S
C300 O299 1.208 . S
C301 O306 1.247 . S
C301 O307 1.208 . S
C302 O294 1.315 . S
C302 O297 1.279 . S
C303 O304 1.315 . S
C303 O305 1.279 . S
O304 Cd296 2.223 . S
O304 C303 1.315 . S
O305 Cd295 2.240 . S
O305 C303 1.279 . S
O306 Cd296 2.297 . S
O306 C301 1.247 . S
O307 Cd296 2.439 . S
O307 C301 1.208 . S
O308 Cd309 2.223 . S
O308 C316 1.315 . S
Cd309 O308 2.223 . S
Cd309 O312 2.297 . S
Cd309 O313 2.439 . S
Cd309 O319 2.240 1_455 S
Cd310 O311 2.240 . S
Cd310 O318 2.223 1_455 S
Cd310 O320 2.297 . S
Cd310 O321 2.439 . S
O311 Cd310 2.240 . S
O311 C316 1.279 . S
O312 Cd309 2.297 . S
O312 C314 1.247 . S
O313 Cd309 2.439 . S
O313 C314 1.208 . S
C314 O312 1.247 . S
C314 O313 1.208 . S
C315 O320 1.247 . S
C315 O321 1.208 . S
C316 O308 1.315 . S
C316 O311 1.279 . S
C317 O318 1.315 . S
C317 O319 1.279 . S
O318 Cd310 2.223 1_655 S
O318 C317 1.315 . S
O319 Cd309 2.240 1_655 S
O319 C317 1.279 . S
O320 Cd310 2.297 . S
O320 C315 1.247 . S
O321 Cd310 2.439 . S
O321 C315 1.208 . S
O322 Cd323 2.223 . S
O322 C330 1.315 . S
Cd323 O322 2.223 . S
Cd323 O326 2.297 1_565 S
Cd323 O327 2.439 1_565 S
Cd323 O333 2.240 . S
Cd324 O325 2.240 . S
Cd324 O332 2.223 . S
Cd324 O334 2.297 . S
Cd324 O335 2.439 . S
O325 Cd324 2.240 . S
O325 C330 1.279 . S
O326 Cd323 2.297 1_545 S
O326 C328 1.247 . S
O327 Cd323 2.439 1_545 S
O327 C328 1.208 . S
C328 O326 1.247 . S
C328 O327 1.208 . S
C329 O334 1.247 . S
C329 O335 1.208 . S
C330 O322 1.315 . S
C330 O325 1.279 . S
C331 O332 1.315 . S
C331 O333 1.279 . S
O332 Cd324 2.223 . S
O332 C331 1.315 . S
O333 Cd323 2.240 . S
O333 C331 1.279 . S
O334 Cd324 2.297 . S
O334 C329 1.247 . S
O335 Cd324 2.439 . S
O335 C329 1.208 . S
O336 Cd337 2.223 . S
O336 C344 1.315 . S
Cd337 O336 2.223 . S
Cd337 O340 2.297 . S
Cd337 O341 2.439 . S
Cd337 O347 2.240 1_655 S
Cd338 O339 2.240 . S
Cd338 O346 2.223 1_655 S
Cd338 O348 2.297 . S
Cd338 O349 2.439 . S
O339 Cd338 2.240 . S
O339 C344 1.279 . S
O340 Cd337 2.297 . S
O340 C342 1.247 . S
O341 Cd337 2.439 . S
O341 C342 1.208 . S
C342 O340 1.247 . S
C342 O341 1.208 . S
C343 O348 1.247 . S
C343 O349 1.208 . S
C344 O336 1.315 . S
C344 O339 1.279 . S
C345 O346 1.315 . S
C345 O347 1.279 . S
O346 Cd338 2.223 1_455 S
O346 C345 1.315 . S
O347 Cd337 2.240 1_455 S
O347 C345 1.279 . S
O348 Cd338 2.297 . S
O348 C343 1.247 . S
O349 Cd338 2.439 . S
O349 C343 1.208 . S
O350 Cd351 2.223 . S
O350 C358 1.315 . S
Cd351 O350 2.223 . S
Cd351 O354 2.297 . S
Cd351 O355 2.439 . S
Cd351 O361 2.240 . S
Cd352 O353 2.240 . S
Cd352 O360 2.223 . S
Cd352 O362 2.297 . S
Cd352 O363 2.439 . S
O353 Cd352 2.240 . S
O353 C358 1.279 . S
O354 Cd351 2.297 . S
O354 C356 1.247 . S
O355 Cd351 2.439 . S
O355 C356 1.208 . S
C356 O354 1.247 . S
C356 O355 1.208 . S
C357 O362 1.247 . S
C357 O363 1.208 . S
C358 O350 1.315 . S
C358 O353 1.279 . S
C359 O360 1.315 . S
C359 O361 1.279 . S
O360 Cd352 2.223 . S
O360 C359 1.315 . S
O361 Cd351 2.240 . S
O361 C359 1.279 . S
O362 Cd352 2.297 . S
O362 C357 1.247 . S
O363 Cd352 2.439 . S
O363 C357 1.208 . S
O364 Cd365 2.223 . S
O364 C372 1.315 . S
Cd365 O364 2.223 . S
Cd365 O368 2.297 . S
Cd365 O369 2.439 . S
Cd365 O375 2.240 1_655 S
Cd366 O367 2.240 . S
Cd366 O374 2.223 1_655 S
Cd366 O376 2.297 . S
Cd366 O377 2.439 . S
O367 Cd366 2.240 . S
O367 C372 1.279 . S
O368 Cd365 2.297 . S
O368 C370 1.247 . S
O369 Cd365 2.439 . S
O369 C370 1.208 . S
C370 O368 1.247 . S
C370 O369 1.208 . S
C371 O376 1.247 . S
C371 O377 1.208 . S
C372 O364 1.315 . S
C372 O367 1.279 . S
C373 O374 1.315 . S
C373 O375 1.279 . S
O374 Cd366 2.223 1_455 S
O374 C373 1.315 . S
O375 Cd365 2.240 1_455 S
O375 C373 1.279 . S
O376 Cd366 2.297 . S
O376 C371 1.247 . S
O377 Cd366 2.439 . S
O377 C371 1.208 . S
O378 Cd379 2.223 . S
O378 C386 1.315 . S
Cd379 O378 2.223 . S
Cd379 O382 2.297 . S
Cd379 O383 2.439 . S
Cd379 O389 2.240 . S
Cd380 O381 2.240 . S
Cd380 O388 2.223 . S
Cd380 O390 2.297 . S
Cd380 O391 2.439 . S
O381 Cd380 2.240 . S
O381 C386 1.279 . S
O382 Cd379 2.297 . S
O382 C384 1.247 . S
O383 Cd379 2.439 . S
O383 C384 1.208 . S
C384 O382 1.247 . S
C384 O383 1.208 . S
C385 O390 1.247 . S
C385 O391 1.208 . S
C386 O378 1.315 . S
C386 O381 1.279 . S
C387 O388 1.315 . S
C387 O389 1.279 . S
O388 Cd380 2.223 . S
O388 C387 1.315 . S
O389 Cd379 2.240 . S
O389 C387 1.279 . S
O390 Cd380 2.297 . S
O390 C385 1.247 . S
O391 Cd380 2.439 . S
O391 C385 1.208 . S
O392 Cd393 2.223 . S
O392 C400 1.315 . S
Cd393 O392 2.223 . S
Cd393 O396 2.297 . S
Cd393 O397 2.439 . S
Cd393 O403 2.240 1_455 S
Cd394 O395 2.240 . S
Cd394 O402 2.223 1_455 S
Cd394 O404 2.297 . S
Cd394 O405 2.439 . S
O395 Cd394 2.240 . S
O395 C400 1.279 . S
O396 Cd393 2.297 . S
O396 C398 1.247 . S
O397 Cd393 2.439 . S
O397 C398 1.208 . S
C398 O396 1.247 . S
C398 O397 1.208 . S
C399 O404 1.247 . S
C399 O405 1.208 . S
C400 O392 1.315 . S
C400 O395 1.279 . S
C401 O402 1.315 . S
C401 O403 1.279 . S
O402 Cd394 2.223 1_655 S
O402 C401 1.315 . S
O403 Cd393 2.240 1_655 S
O403 C401 1.279 . S
O404 Cd394 2.297 . S
O404 C399 1.247 . S
O405 Cd394 2.439 . S
O405 C399 1.208 . S
O406 Cd407 2.223 . S
O406 C414 1.315 . S
Cd407 O406 2.223 . S
Cd407 O410 2.297 . S
Cd407 O411 2.439 . S
Cd407 O417 2.240 . S
Cd408 O409 2.240 . S
Cd408 O416 2.223 . S
Cd408 O418 2.297 . S
Cd408 O419 2.439 . S
O409 Cd408 2.240 . S
O409 C414 1.279 . S
O410 Cd407 2.297 . S
O410 C412 1.247 . S
O411 Cd407 2.439 . S
O411 C412 1.208 . S
C412 O410 1.247 . S
C412 O411 1.208 . S
C413 O418 1.247 . S
C413 O419 1.208 . S
C414 O406 1.315 . S
C414 O409 1.279 . S
C415 O416 1.315 . S
C415 O417 1.279 . S
O416 Cd408 2.223 . S
O416 C415 1.315 . S
O417 Cd407 2.240 . S
O417 C415 1.279 . S
O418 Cd408 2.297 . S
O418 C413 1.247 . S
O419 Cd408 2.439 . S
O419 C413 1.208 . S
O420 Cd421 2.223 . S
O420 C428 1.315 . S
Cd421 O420 2.223 . S
Cd421 O424 2.297 . S
Cd421 O425 2.439 . S
Cd421 O431 2.240 1_455 S
Cd422 O423 2.240 . S
Cd422 O430 2.223 1_455 S
Cd422 O432 2.297 . S
Cd422 O433 2.439 . S
O423 Cd422 2.240 . S
O423 C428 1.279 . S
O424 Cd421 2.297 . S
O424 C426 1.247 . S
O425 Cd421 2.439 . S
O425 C426 1.208 . S
C426 O424 1.247 . S
C426 O425 1.208 . S
C427 O432 1.247 . S
C427 O433 1.208 . S
C428 O420 1.315 . S
C428 O423 1.279 . S
C429 O430 1.315 . S
C429 O431 1.279 . S
O430 Cd422 2.223 1_655 S
O430 C429 1.315 . S
O431 Cd421 2.240 1_655 S
O431 C429 1.279 . S
O432 Cd422 2.297 . S
O432 C427 1.247 . S
O433 Cd422 2.439 . S
O433 C427 1.208 . S
O434 Cd435 2.223 . S
O434 C442 1.315 . S
Cd435 O434 2.223 . S
Cd435 O438 2.297 . S
Cd435 O439 2.439 . S
Cd435 O445 2.240 . S
Cd436 O437 2.240 . S
Cd436 O444 2.223 . S
Cd436 O446 2.297 . S
Cd436 O447 2.439 . S
O437 Cd436 2.240 . S
O437 C442 1.279 . S
O438 Cd435 2.297 . S
O438 C440 1.247 . S
O439 Cd435 2.439 . S
O439 C440 1.208 . S
C440 O438 1.247 . S
C440 O439 1.208 . S
C441 O446 1.247 . S
C441 O447 1.208 . S
C442 O434 1.315 . S
C442 O437 1.279 . S
C443 O444 1.315 . S
C443 O445 1.279 . S
O444 Cd436 2.223 . S
O444 C443 1.315 . S
O445 Cd435 2.240 . S
O445 C443 1.279 . S
O446 Cd436 2.297 . S
O446 C441 1.247 . S
O447 Cd436 2.439 . S
O447 C441 1.208 . S
H448 C454 0.930 . S
H449 C458 0.930 . S
H450 C463 0.929 . S
H451 C461 0.929 . S
H452 C456 0.929 . S
H453 C462 0.929 . S
C454 H448 0.930 . S
C454 C455 1.367 . S
C454 C462 1.378 . S
C455 C454 1.367 . S
C455 C463 1.433 . S
C456 H452 0.929 . S
C456 C458 1.378 . S
C456 C460 1.350 . S
C457 C460 1.463 . S
C457 C462 1.350 . S
C457 N465 1.427 . S
C458 H449 0.930 . S
C458 C456 1.378 . S
C458 C459 1.367 . S
C459 C458 1.367 . S
C459 C461 1.433 . S
C460 C456 1.350 . S
C460 C457 1.463 . S
C460 N464 1.427 . S
C461 H451 0.929 . S
C461 C459 1.433 . S
C461 N464 1.384 . S
C462 H453 0.929 . S
C462 C454 1.378 . S
C462 C457 1.350 . S
C463 H450 0.929 . S
C463 C455 1.433 . S
C463 N465 1.384 . S
N464 C460 1.427 . S
N464 C461 1.384 . S
N465 C457 1.427 . S
N465 C463 1.384 . S
H466 C472 0.930 . S
H467 C476 0.930 . S
H468 C481 0.929 . S
H469 C479 0.929 . S
H470 C474 0.929 . S
H471 C480 0.929 . S
C472 H466 0.930 . S
C472 C473 1.367 . S
C472 C480 1.378 . S
C473 C472 1.367 . S
C473 C481 1.433 . S
C474 H470 0.929 . S
C474 C476 1.378 . S
C474 C478 1.350 . S
C475 C478 1.463 . S
C475 C480 1.350 . S
C475 N483 1.427 . S
C476 H467 0.930 . S
C476 C474 1.378 . S
C476 C477 1.367 . S
C477 C476 1.367 . S
C477 C479 1.433 . S
C478 C474 1.350 . S
C478 C475 1.463 . S
C478 N482 1.427 . S
C479 H469 0.929 . S
C479 C477 1.433 . S
C479 N482 1.384 . S
C480 H471 0.929 . S
C480 C472 1.378 . S
C480 C475 1.350 . S
C481 H468 0.929 . S
C481 C473 1.433 . S
C481 N483 1.384 . S
N482 C478 1.427 . S
N482 C479 1.384 . S
N483 C475 1.427 . S
N483 C481 1.384 . S
H484 C490 0.930 . S
H485 C494 0.930 . S
H486 C499 0.929 . S
H487 C497 0.929 . S
H488 C492 0.929 . S
H489 C498 0.929 . S
C490 H484 0.930 . S
C490 C491 1.367 . S
C490 C498 1.378 . S
C491 C490 1.367 . S
C491 C499 1.433 . S
C492 H488 0.929 . S
C492 C494 1.378 . S
C492 C496 1.350 . S
C493 C496 1.463 . S
C493 C498 1.350 . S
C493 N501 1.427 . S
C494 H485 0.930 . S
C494 C492 1.378 . S
C494 C495 1.367 . S
C495 C494 1.367 . S
C495 C497 1.433 . S
C496 C492 1.350 . S
C496 C493 1.463 . S
C496 N500 1.427 . S
C497 H487 0.929 . S
C497 C495 1.433 . S
C497 N500 1.384 . S
C498 H489 0.929 . S
C498 C490 1.378 . S
C498 C493 1.350 . S
C499 H486 0.929 . S
C499 C491 1.433 . S
C499 N501 1.384 . S
N500 C496 1.427 . S
N500 C497 1.384 . S
N501 C493 1.427 . S
N501 C499 1.384 . S
H502 C508 0.930 . S
H503 C512 0.930 . S
H504 C517 0.929 . S
H505 C515 0.929 . S
H506 C510 0.929 . S
H507 C516 0.929 . S
C508 H502 0.930 . S
C508 C509 1.367 . S
C508 C516 1.378 . S
C509 C508 1.367 . S
C509 C517 1.433 . S
C510 H506 0.929 . S
C510 C512 1.378 . S
C510 C514 1.350 . S
C511 C514 1.463 . S
C511 C516 1.350 . S
C511 N519 1.427 . S
C512 H503 0.930 . S
C512 C510 1.378 . S
C512 C513 1.367 . S
C513 C512 1.367 . S
C513 C515 1.433 . S
C514 C510 1.350 . S
C514 C511 1.463 . S
C514 N518 1.427 . S
C515 H505 0.929 . S
C515 C513 1.433 . S
C515 N518 1.384 . S
C516 H507 0.929 . S
C516 C508 1.378 . S
C516 C511 1.350 . S
C517 H504 0.929 . S
C517 C509 1.433 . S
C517 N519 1.384 . S
N518 C514 1.427 . S
N518 C515 1.384 . S
N519 C511 1.427 . S
N519 C517 1.384 . S
H520 C526 0.930 . S
H521 C530 0.930 . S
H522 C535 0.929 . S
H523 C533 0.929 . S
H524 C528 0.929 . S
H525 C534 0.929 . S
C526 H520 0.930 . S
C526 C527 1.367 . S
C526 C534 1.378 . S
C527 C526 1.367 . S
C527 C535 1.433 . S
C528 H524 0.929 . S
C528 C530 1.378 . S
C528 C532 1.350 . S
C529 C532 1.463 . S
C529 C534 1.350 . S
C529 N537 1.427 . S
C530 H521 0.930 . S
C530 C528 1.378 . S
C530 C531 1.367 . S
C531 C530 1.367 . S
C531 C533 1.433 . S
C532 C528 1.350 . S
C532 C529 1.463 . S
C532 N536 1.427 . S
C533 H523 0.929 . S
C533 C531 1.433 . S
C533 N536 1.384 . S
C534 H525 0.929 . S
C534 C526 1.378 . S
C534 C529 1.350 . S
C535 H522 0.929 . S
C535 C527 1.433 . S
C535 N537 1.384 . S
N536 C532 1.427 . S
N536 C533 1.384 . S
N537 C529 1.427 . S
N537 C535 1.384 . S
H538 C544 0.930 . S
H539 C548 0.930 . S
H540 C553 0.929 . S
H541 C551 0.929 . S
H542 C546 0.929 . S
H543 C552 0.929 . S
C544 H538 0.930 . S
C544 C545 1.367 . S
C544 C552 1.378 . S
C545 C544 1.367 . S
C545 C553 1.433 . S
C546 H542 0.929 . S
C546 C548 1.378 . S
C546 C550 1.350 . S
C547 C550 1.463 . S
C547 C552 1.350 . S
C547 N555 1.427 . S
C548 H539 0.930 . S
C548 C546 1.378 . S
C548 C549 1.367 . S
C549 C548 1.367 . S
C549 C551 1.433 . S
C550 C546 1.350 . S
C550 C547 1.463 . S
C550 N554 1.427 . S
C551 H541 0.929 . S
C551 C549 1.433 . S
C551 N554 1.384 . S
C552 H543 0.929 . S
C552 C544 1.378 . S
C552 C547 1.350 . S
C553 H540 0.929 . S
C553 C545 1.433 . S
C553 N555 1.384 . S
N554 C550 1.427 . S
N554 C551 1.384 . S
N555 C547 1.427 . S
N555 C553 1.384 . S
H556 C562 0.930 . S
H557 C566 0.930 . S
H558 C571 0.929 . S
H559 C569 0.929 . S
H560 C564 0.929 . S
H561 C570 0.929 . S
C562 H556 0.930 . S
C562 C563 1.367 . S
C562 C570 1.378 . S
C563 C562 1.367 . S
C563 C571 1.433 . S
C564 H560 0.929 . S
C564 C566 1.378 . S
C564 C568 1.350 . S
C565 C568 1.463 . S
C565 C570 1.350 . S
C565 N573 1.427 . S
C566 H557 0.930 . S
C566 C564 1.378 . S
C566 C567 1.367 . S
C567 C566 1.367 . S
C567 C569 1.433 . S
C568 C564 1.350 . S
C568 C565 1.463 . S
C568 N572 1.427 . S
C569 H559 0.929 . S
C569 C567 1.433 . S
C569 N572 1.384 . S
C570 H561 0.929 . S
C570 C562 1.378 . S
C570 C565 1.350 . S
C571 H558 0.929 . S
C571 C563 1.433 . S
C571 N573 1.384 . S
N572 C568 1.427 . S
N572 C569 1.384 . S
N573 C565 1.427 . S
N573 C571 1.384 . S
H574 C580 0.930 . S
H575 C584 0.930 . S
H576 C589 0.929 . S
H577 C587 0.929 . S
H578 C582 0.929 . S
H579 C588 0.929 . S
C580 H574 0.930 . S
C580 C581 1.367 . S
C580 C588 1.378 . S
C581 C580 1.367 . S
C581 C589 1.433 . S
C582 H578 0.929 . S
C582 C584 1.378 . S
C582 C586 1.350 . S
C583 C586 1.463 . S
C583 C588 1.350 . S
C583 N591 1.427 . S
C584 H575 0.930 . S
C584 C582 1.378 . S
C584 C585 1.367 . S
C585 C584 1.367 . S
C585 C587 1.433 . S
C586 C582 1.350 . S
C586 C583 1.463 . S
C586 N590 1.427 . S
C587 H577 0.929 . S
C587 C585 1.433 . S
C587 N590 1.384 . S
C588 H579 0.929 . S
C588 C580 1.378 . S
C588 C583 1.350 . S
C589 H576 0.929 . S
C589 C581 1.433 . S
C589 N591 1.384 . S
N590 C586 1.427 . S
N590 C587 1.384 . S
N591 C583 1.427 . S
N591 C589 1.384 . S
H592 C598 0.930 . S
H593 C602 0.930 . S
H594 C607 0.929 . S
H595 C605 0.929 . S
H596 C600 0.929 . S
H597 C606 0.929 . S
C598 H592 0.930 . S
C598 C599 1.367 . S
C598 C606 1.378 . S
C599 C598 1.367 . S
C599 C607 1.433 . S
C600 H596 0.929 . S
C600 C602 1.378 . S
C600 C604 1.350 . S
C601 C604 1.463 . S
C601 C606 1.350 . S
C601 N609 1.427 . S
C602 H593 0.930 . S
C602 C600 1.378 . S
C602 C603 1.367 . S
C603 C602 1.367 . S
C603 C605 1.433 . S
C604 C600 1.350 . S
C604 C601 1.463 . S
C604 N608 1.427 . S
C605 H595 0.929 . S
C605 C603 1.433 . S
C605 N608 1.384 . S
C606 H597 0.929 . S
C606 C598 1.378 . S
C606 C601 1.350 . S
C607 H594 0.929 . S
C607 C599 1.433 . S
C607 N609 1.384 . S
N608 C604 1.427 . S
N608 C605 1.384 . S
N609 C601 1.427 . S
N609 C607 1.384 . S
H610 C616 0.930 . S
H611 C620 0.930 . S
H612 C625 0.929 . S
H613 C623 0.929 . S
H614 C618 0.929 . S
H615 C624 0.929 . S
C616 H610 0.930 . S
C616 C617 1.367 . S
C616 C624 1.378 . S
C617 C616 1.367 . S
C617 C625 1.433 . S
C618 H614 0.929 . S
C618 C620 1.378 . S
C618 C622 1.350 . S
C619 C622 1.463 . S
C619 C624 1.350 . S
C619 N627 1.427 . S
C620 H611 0.930 . S
C620 C618 1.378 . S
C620 C621 1.367 . S
C621 C620 1.367 . S
C621 C623 1.433 . S
C622 C618 1.350 . S
C622 C619 1.463 . S
C622 N626 1.427 . S
C623 H613 0.929 . S
C623 C621 1.433 . S
C623 N626 1.384 . S
C624 H615 0.929 . S
C624 C616 1.378 . S
C624 C619 1.350 . S
C625 H612 0.929 . S
C625 C617 1.433 . S
C625 N627 1.384 . S
N626 C622 1.427 . S
N626 C623 1.384 . S
N627 C619 1.427 . S
N627 C625 1.384 . S
H628 C634 0.930 . S
H629 C638 0.930 . S
H630 C643 0.929 . S
H631 C641 0.929 . S
H632 C636 0.929 . S
H633 C642 0.929 . S
C634 H628 0.930 . S
C634 C635 1.367 . S
C634 C642 1.378 . S
C635 C634 1.367 . S
C635 C643 1.433 . S
C636 H632 0.929 . S
C636 C638 1.378 . S
C636 C640 1.350 . S
C637 C640 1.463 . S
C637 C642 1.350 . S
C637 N645 1.427 . S
C638 H629 0.930 . S
C638 C636 1.378 . S
C638 C639 1.367 . S
C639 C638 1.367 . S
C639 C641 1.433 . S
C640 C636 1.350 . S
C640 C637 1.463 . S
C640 N644 1.427 . S
C641 H631 0.929 . S
C641 C639 1.433 . S
C641 N644 1.384 . S
C642 H633 0.929 . S
C642 C634 1.378 . S
C642 C637 1.350 . S
C643 H630 0.929 . S
C643 C635 1.433 . S
C643 N645 1.384 . S
N644 C640 1.427 . S
N644 C641 1.384 . S
N645 C637 1.427 . S
N645 C643 1.384 . S
H646 C652 0.930 . S
H647 C656 0.930 . S
H648 C661 0.929 . S
H649 C659 0.929 . S
H650 C654 0.929 . S
H651 C660 0.929 . S
C652 H646 0.930 . S
C652 C653 1.367 . S
C652 C660 1.378 . S
C653 C652 1.367 . S
C653 C661 1.433 . S
C654 H650 0.929 . S
C654 C656 1.378 . S
C654 C658 1.350 . S
C655 C658 1.463 . S
C655 C660 1.350 . S
C655 N663 1.427 . S
C656 H647 0.930 . S
C656 C654 1.378 . S
C656 C657 1.367 . S
C657 C656 1.367 . S
C657 C659 1.433 . S
C658 C654 1.350 . S
C658 C655 1.463 . S
C658 N662 1.427 . S
C659 H649 0.929 . S
C659 C657 1.433 . S
C659 N662 1.384 . S
C660 H651 0.929 . S
C660 C652 1.378 . S
C660 C655 1.350 . S
C661 H648 0.929 . S
C661 C653 1.433 . S
C661 N663 1.384 . S
N662 C658 1.427 . S
N662 C659 1.384 . S
N663 C655 1.427 . S
N663 C661 1.384 . S
H664 C670 0.930 . S
H665 C674 0.930 . S
H666 C679 0.929 . S
H667 C677 0.929 . S
H668 C672 0.929 . S
H669 C678 0.929 . S
C670 H664 0.930 . S
C670 C671 1.367 . S
C670 C678 1.378 . S
C671 C670 1.367 . S
C671 C679 1.433 . S
C672 H668 0.929 . S
C672 C674 1.378 . S
C672 C676 1.350 . S
C673 C676 1.463 . S
C673 C678 1.350 . S
C673 N681 1.427 . S
C674 H665 0.930 . S
C674 C672 1.378 . S
C674 C675 1.367 . S
C675 C674 1.367 . S
C675 C677 1.433 . S
C676 C672 1.350 . S
C676 C673 1.463 . S
C676 N680 1.427 . S
C677 H667 0.929 . S
C677 C675 1.433 . S
C677 N680 1.384 . S
C678 H669 0.929 . S
C678 C670 1.378 . S
C678 C673 1.350 . S
C679 H666 0.929 . S
C679 C671 1.433 . S
C679 N681 1.384 . S
N680 C676 1.427 . S
N680 C677 1.384 . S
N681 C673 1.427 . S
N681 C679 1.384 . S
H682 C688 0.930 . S
H683 C692 0.930 . S
H684 C697 0.929 . S
H685 C695 0.929 . S
H686 C690 0.929 . S
H687 C696 0.929 . S
C688 H682 0.930 . S
C688 C689 1.367 . S
C688 C696 1.378 . S
C689 C688 1.367 . S
C689 C697 1.433 . S
C690 H686 0.929 . S
C690 C692 1.378 . S
C690 C694 1.350 . S
C691 C694 1.463 . S
C691 C696 1.350 . S
C691 N699 1.427 . S
C692 H683 0.930 . S
C692 C690 1.378 . S
C692 C693 1.367 . S
C693 C692 1.367 . S
C693 C695 1.433 . S
C694 C690 1.350 . S
C694 C691 1.463 . S
C694 N698 1.427 . S
C695 H685 0.929 . S
C695 C693 1.433 . S
C695 N698 1.384 . S
C696 H687 0.929 . S
C696 C688 1.378 . S
C696 C691 1.350 . S
C697 H684 0.929 . S
C697 C689 1.433 . S
C697 N699 1.384 . S
N698 C694 1.427 . S
N698 C695 1.384 . S
N699 C691 1.427 . S
N699 C697 1.384 . S
H700 C706 0.930 . S
H701 C710 0.930 . S
H702 C715 0.929 . S
H703 C713 0.929 . S
H704 C708 0.929 . S
H705 C714 0.929 . S
C706 H700 0.930 . S
C706 C707 1.367 . S
C706 C714 1.378 . S
C707 C706 1.367 . S
C707 C715 1.433 . S
C708 H704 0.929 . S
C708 C710 1.378 . S
C708 C712 1.350 . S
C709 C712 1.463 . S
C709 C714 1.350 . S
C709 N717 1.427 . S
C710 H701 0.930 . S
C710 C708 1.378 . S
C710 C711 1.367 . S
C711 C710 1.367 . S
C711 C713 1.433 . S
C712 C708 1.350 . S
C712 C709 1.463 . S
C712 N716 1.427 . S
C713 H703 0.929 . S
C713 C711 1.433 . S
C713 N716 1.384 . S
C714 H705 0.929 . S
C714 C706 1.378 . S
C714 C709 1.350 . S
C715 H702 0.929 . S
C715 C707 1.433 . S
C715 N717 1.384 . S
N716 C712 1.427 . S
N716 C713 1.384 . S
N717 C709 1.427 . S
N717 C715 1.384 . S
H718 C724 0.930 . S
H719 C728 0.930 . S
H720 C733 0.929 . S
H721 C731 0.929 . S
H722 C726 0.929 . S
H723 C732 0.929 . S
C724 H718 0.930 . S
C724 C725 1.367 . S
C724 C732 1.378 . S
C725 C724 1.367 . S
C725 C733 1.433 . S
C726 H722 0.929 . S
C726 C728 1.378 . S
C726 C730 1.350 . S
C727 C730 1.463 . S
C727 C732 1.350 . S
C727 N735 1.427 . S
C728 H719 0.930 . S
C728 C726 1.378 . S
C728 C729 1.367 . S
C729 C728 1.367 . S
C729 C731 1.433 . S
C730 C726 1.350 . S
C730 C727 1.463 . S
C730 N734 1.427 . S
C731 H721 0.929 . S
C731 C729 1.433 . S
C731 N734 1.384 . S
C732 H723 0.929 . S
C732 C724 1.378 . S
C732 C727 1.350 . S
C733 H720 0.929 . S
C733 C725 1.433 . S
C733 N735 1.384 . S
N734 C730 1.427 . S
N734 C731 1.384 . S
N735 C727 1.427 . S
N735 C733 1.384 . S
H736 C742 0.930 . S
H737 C746 0.930 . S
H738 C751 0.929 . S
H739 C749 0.929 . S
H740 C744 0.929 . S
H741 C750 0.929 . S
C742 H736 0.930 . S
C742 C743 1.367 . S
C742 C750 1.378 . S
C743 C742 1.367 . S
C743 C751 1.433 . S
C744 H740 0.929 . S
C744 C746 1.378 . S
C744 C748 1.350 . S
C745 C748 1.463 . S
C745 C750 1.350 . S
C745 N753 1.427 . S
C746 H737 0.930 . S
C746 C744 1.378 . S
C746 C747 1.367 . S
C747 C746 1.367 . S
C747 C749 1.433 . S
C748 C744 1.350 . S
C748 C745 1.463 . S
C748 N752 1.427 . S
C749 H739 0.929 . S
C749 C747 1.433 . S
C749 N752 1.384 . S
C750 H741 0.929 . S
C750 C742 1.378 . S
C750 C745 1.350 . S
C751 H738 0.929 . S
C751 C743 1.433 . S
C751 N753 1.384 . S
N752 C748 1.427 . S
N752 C749 1.384 . S
N753 C745 1.427 . S
N753 C751 1.384 . S
H754 C760 0.930 . S
H755 C764 0.930 . S
H756 C769 0.929 . S
H757 C767 0.929 . S
H758 C762 0.929 . S
H759 C768 0.929 . S
C760 H754 0.930 . S
C760 C761 1.367 . S
C760 C768 1.378 . S
C761 C760 1.367 . S
C761 C769 1.433 . S
C762 H758 0.929 . S
C762 C764 1.378 . S
C762 C766 1.350 . S
C763 C766 1.463 . S
C763 C768 1.350 . S
C763 N771 1.427 . S
C764 H755 0.930 . S
C764 C762 1.378 . S
C764 C765 1.367 . S
C765 C764 1.367 . S
C765 C767 1.433 . S
C766 C762 1.350 . S
C766 C763 1.463 . S
C766 N770 1.427 . S
C767 H757 0.929 . S
C767 C765 1.433 . S
C767 N770 1.384 . S
C768 H759 0.929 . S
C768 C760 1.378 . S
C768 C763 1.350 . S
C769 H756 0.929 . S
C769 C761 1.433 . S
C769 N771 1.384 . S
N770 C766 1.427 . S
N770 C767 1.384 . S
N771 C763 1.427 . S
N771 C769 1.384 . S
H772 C778 0.930 . S
H773 C782 0.930 . S
H774 C787 0.929 . S
H775 C785 0.929 . S
H776 C780 0.929 . S
H777 C786 0.929 . S
C778 H772 0.930 . S
C778 C779 1.367 . S
C778 C786 1.378 . S
C779 C778 1.367 . S
C779 C787 1.433 . S
C780 H776 0.929 . S
C780 C782 1.378 . S
C780 C784 1.350 . S
C781 C784 1.463 . S
C781 C786 1.350 . S
C781 N789 1.427 . S
C782 H773 0.930 . S
C782 C780 1.378 . S
C782 C783 1.367 . S
C783 C782 1.367 . S
C783 C785 1.433 . S
C784 C780 1.350 . S
C784 C781 1.463 . S
C784 N788 1.427 . S
C785 H775 0.929 . S
C785 C783 1.433 . S
C785 N788 1.384 . S
C786 H777 0.929 . S
C786 C778 1.378 . S
C786 C781 1.350 . S
C787 H774 0.929 . S
C787 C779 1.433 . S
C787 N789 1.384 . S
N788 C784 1.427 . S
N788 C785 1.384 . S
N789 C781 1.427 . S
N789 C787 1.384 . S
H790 C796 0.930 . S
H791 C800 0.930 . S
H792 C805 0.929 . S
H793 C803 0.929 . S
H794 C798 0.929 . S
H795 C804 0.929 . S
C796 H790 0.930 . S
C796 C797 1.367 . S
C796 C804 1.378 . S
C797 C796 1.367 . S
C797 C805 1.433 . S
C798 H794 0.929 . S
C798 C800 1.378 . S
C798 C802 1.350 . S
C799 C802 1.463 . S
C799 C804 1.350 . S
C799 N807 1.427 . S
C800 H791 0.930 . S
C800 C798 1.378 . S
C800 C801 1.367 . S
C801 C800 1.367 . S
C801 C803 1.433 . S
C802 C798 1.350 . S
C802 C799 1.463 . S
C802 N806 1.427 . S
C803 H793 0.929 . S
C803 C801 1.433 . S
C803 N806 1.384 . S
C804 H795 0.929 . S
C804 C796 1.378 . S
C804 C799 1.350 . S
C805 H792 0.929 . S
C805 C797 1.433 . S
C805 N807 1.384 . S
N806 C802 1.427 . S
N806 C803 1.384 . S
N807 C799 1.427 . S
N807 C805 1.384 . S
H808 C814 0.930 . S
H809 C818 0.930 . S
H810 C823 0.929 . S
H811 C821 0.929 . S
H812 C816 0.929 . S
H813 C822 0.929 . S
C814 H808 0.930 . S
C814 C815 1.367 . S
C814 C822 1.378 . S
C815 C814 1.367 . S
C815 C823 1.433 . S
C816 H812 0.929 . S
C816 C818 1.378 . S
C816 C820 1.350 . S
C817 C820 1.463 . S
C817 C822 1.350 . S
C817 N825 1.427 . S
C818 H809 0.930 . S
C818 C816 1.378 . S
C818 C819 1.367 . S
C819 C818 1.367 . S
C819 C821 1.433 . S
C820 C816 1.350 . S
C820 C817 1.463 . S
C820 N824 1.427 . S
C821 H811 0.929 . S
C821 C819 1.433 . S
C821 N824 1.384 . S
C822 H813 0.929 . S
C822 C814 1.378 . S
C822 C817 1.350 . S
C823 H810 0.929 . S
C823 C815 1.433 . S
C823 N825 1.384 . S
N824 C820 1.427 . S
N824 C821 1.384 . S
N825 C817 1.427 . S
N825 C823 1.384 . S
H826 C832 0.930 . S
H827 C836 0.930 . S
H828 C841 0.929 . S
H829 C839 0.929 . S
H830 C834 0.929 . S
H831 C840 0.929 . S
C832 H826 0.930 . S
C832 C833 1.367 . S
C832 C840 1.378 . S
C833 C832 1.367 . S
C833 C841 1.433 . S
C834 H830 0.929 . S
C834 C836 1.378 . S
C834 C838 1.350 . S
C835 C838 1.463 . S
C835 C840 1.350 . S
C835 N843 1.427 . S
C836 H827 0.930 . S
C836 C834 1.378 . S
C836 C837 1.367 . S
C837 C836 1.367 . S
C837 C839 1.433 . S
C838 C834 1.350 . S
C838 C835 1.463 . S
C838 N842 1.427 . S
C839 H829 0.929 . S
C839 C837 1.433 . S
C839 N842 1.384 . S
C840 H831 0.929 . S
C840 C832 1.378 . S
C840 C835 1.350 . S
C841 H828 0.929 . S
C841 C833 1.433 . S
C841 N843 1.384 . S
N842 C838 1.427 . S
N842 C839 1.384 . S
N843 C835 1.427 . S
N843 C841 1.384 . S
H844 C850 0.930 . S
H845 C854 0.930 . S
H846 C859 0.929 . S
H847 C857 0.929 . S
H848 C852 0.929 . S
H849 C858 0.929 . S
C850 H844 0.930 . S
C850 C851 1.367 . S
C850 C858 1.378 . S
C851 C850 1.367 . S
C851 C859 1.433 . S
C852 H848 0.929 . S
C852 C854 1.378 . S
C852 C856 1.350 . S
C853 C856 1.463 . S
C853 C858 1.350 . S
C853 N861 1.427 . S
C854 H845 0.930 . S
C854 C852 1.378 . S
C854 C855 1.367 . S
C855 C854 1.367 . S
C855 C857 1.433 . S
C856 C852 1.350 . S
C856 C853 1.463 . S
C856 N860 1.427 . S
C857 H847 0.929 . S
C857 C855 1.433 . S
C857 N860 1.384 . S
C858 H849 0.929 . S
C858 C850 1.378 . S
C858 C853 1.350 . S
C859 H846 0.929 . S
C859 C851 1.433 . S
C859 N861 1.384 . S
N860 C856 1.427 . S
N860 C857 1.384 . S
N861 C853 1.427 . S
N861 C859 1.384 . S
H862 C868 0.930 . S
H863 C872 0.930 . S
H864 C877 0.929 . S
H865 C875 0.929 . S
H866 C870 0.929 . S
H867 C876 0.929 . S
C868 H862 0.930 . S
C868 C869 1.367 . S
C868 C876 1.378 . S
C869 C868 1.367 . S
C869 C877 1.433 . S
C870 H866 0.929 . S
C870 C872 1.378 . S
C870 C874 1.350 . S
C871 C874 1.463 . S
C871 C876 1.350 . S
C871 N879 1.427 . S
C872 H863 0.930 . S
C872 C870 1.378 . S
C872 C873 1.367 . S
C873 C872 1.367 . S
C873 C875 1.433 . S
C874 C870 1.350 . S
C874 C871 1.463 . S
C874 N878 1.427 . S
C875 H865 0.929 . S
C875 C873 1.433 . S
C875 N878 1.384 . S
C876 H867 0.929 . S
C876 C868 1.378 . S
C876 C871 1.350 . S
C877 H864 0.929 . S
C877 C869 1.433 . S
C877 N879 1.384 . S
N878 C874 1.427 . S
N878 C875 1.384 . S
N879 C871 1.427 . S
N879 C877 1.384 . S
H880 C886 0.930 . S
H881 C890 0.930 . S
H882 C895 0.929 . S
H883 C893 0.929 . S
H884 C888 0.929 . S
H885 C894 0.929 . S
C886 H880 0.930 . S
C886 C887 1.367 . S
C886 C894 1.378 . S
C887 C886 1.367 . S
C887 C895 1.433 . S
C888 H884 0.929 . S
C888 C890 1.378 . S
C888 C892 1.350 . S
C889 C892 1.463 . S
C889 C894 1.350 . S
C889 N897 1.427 . S
C890 H881 0.930 . S
C890 C888 1.378 . S
C890 C891 1.367 . S
C891 C890 1.367 . S
C891 C893 1.433 . S
C892 C888 1.350 . S
C892 C889 1.463 . S
C892 N896 1.427 . S
C893 H883 0.929 . S
C893 C891 1.433 . S
C893 N896 1.384 . S
C894 H885 0.929 . S
C894 C886 1.378 . S
C894 C889 1.350 . S
C895 H882 0.929 . S
C895 C887 1.433 . S
C895 N897 1.384 . S
N896 C892 1.427 . S
N896 C893 1.384 . S
N897 C889 1.427 . S
N897 C895 1.384 . S
H898 C904 0.930 . S
H899 C908 0.930 . S
H900 C913 0.929 . S
H901 C911 0.929 . S
H902 C906 0.929 . S
H903 C912 0.929 . S
C904 H898 0.930 . S
C904 C905 1.367 . S
C904 C912 1.378 . S
C905 C904 1.367 . S
C905 C913 1.433 . S
C906 H902 0.929 . S
C906 C908 1.378 . S
C906 C910 1.350 . S
C907 C910 1.463 . S
C907 C912 1.350 . S
C907 N915 1.427 . S
C908 H899 0.930 . S
C908 C906 1.378 . S
C908 C909 1.367 . S
C909 C908 1.367 . S
C909 C911 1.433 . S
C910 C906 1.350 . S
C910 C907 1.463 . S
C910 N914 1.427 . S
C911 H901 0.929 . S
C911 C909 1.433 . S
C911 N914 1.384 . S
C912 H903 0.929 . S
C912 C904 1.378 . S
C912 C907 1.350 . S
C913 H900 0.929 . S
C913 C905 1.433 . S
C913 N915 1.384 . S
N914 C910 1.427 . S
N914 C911 1.384 . S
N915 C907 1.427 . S
N915 C913 1.384 . S
H916 C922 0.930 . S
H917 C926 0.930 . S
H918 C931 0.929 . S
H919 C929 0.929 . S
H920 C924 0.929 . S
H921 C930 0.929 . S
C922 H916 0.930 . S
C922 C923 1.367 . S
C922 C930 1.378 . S
C923 C922 1.367 . S
C923 C931 1.433 . S
C924 H920 0.929 . S
C924 C926 1.378 . S
C924 C928 1.350 . S
C925 C928 1.463 . S
C925 C930 1.350 . S
C925 N933 1.427 . S
C926 H917 0.930 . S
C926 C924 1.378 . S
C926 C927 1.367 . S
C927 C926 1.367 . S
C927 C929 1.433 . S
C928 C924 1.350 . S
C928 C925 1.463 . S
C928 N932 1.427 . S
C929 H919 0.929 . S
C929 C927 1.433 . S
C929 N932 1.384 . S
C930 H921 0.929 . S
C930 C922 1.378 . S
C930 C925 1.350 . S
C931 H918 0.929 . S
C931 C923 1.433 . S
C931 N933 1.384 . S
N932 C928 1.427 . S
N932 C929 1.384 . S
N933 C925 1.427 . S
N933 C931 1.384 . S
H934 C940 0.930 . S
H935 C944 0.930 . S
H936 C949 0.929 . S
H937 C947 0.929 . S
H938 C942 0.929 . S
H939 C948 0.929 . S
C940 H934 0.930 . S
C940 C941 1.367 . S
C940 C948 1.378 . S
C941 C940 1.367 . S
C941 C949 1.433 . S
C942 H938 0.929 . S
C942 C944 1.378 . S
C942 C946 1.350 . S
C943 C946 1.463 . S
C943 C948 1.350 . S
C943 N951 1.427 . S
C944 H935 0.930 . S
C944 C942 1.378 . S
C944 C945 1.367 . S
C945 C944 1.367 . S
C945 C947 1.433 . S
C946 C942 1.350 . S
C946 C943 1.463 . S
C946 N950 1.427 . S
C947 H937 0.929 . S
C947 C945 1.433 . S
C947 N950 1.384 . S
C948 H939 0.929 . S
C948 C940 1.378 . S
C948 C943 1.350 . S
C949 H936 0.929 . S
C949 C941 1.433 . S
C949 N951 1.384 . S
N950 C946 1.427 . S
N950 C947 1.384 . S
N951 C943 1.427 . S
N951 C949 1.384 . S
H952 C958 0.930 . S
H953 C962 0.930 . S
H954 C967 0.929 . S
H955 C965 0.929 . S
H956 C960 0.929 . S
H957 C966 0.929 . S
C958 H952 0.930 . S
C958 C959 1.367 . S
C958 C966 1.378 . S
C959 C958 1.367 . S
C959 C967 1.433 . S
C960 H956 0.929 . S
C960 C962 1.378 . S
C960 C964 1.350 . S
C961 C964 1.463 . S
C961 C966 1.350 . S
C961 N969 1.427 . S
C962 H953 0.930 . S
C962 C960 1.378 . S
C962 C963 1.367 . S
C963 C962 1.367 . S
C963 C965 1.433 . S
C964 C960 1.350 . S
C964 C961 1.463 . S
C964 N968 1.427 . S
C965 H955 0.929 . S
C965 C963 1.433 . S
C965 N968 1.384 . S
C966 H957 0.929 . S
C966 C958 1.378 . S
C966 C961 1.350 . S
C967 H954 0.929 . S
C967 C959 1.433 . S
C967 N969 1.384 . S
N968 C964 1.427 . S
N968 C965 1.384 . S
N969 C961 1.427 . S
N969 C967 1.384 . S
H970 C976 0.930 . S
H971 C980 0.930 . S
H972 C985 0.929 . S
H973 C983 0.929 . S
H974 C978 0.929 . S
H975 C984 0.929 . S
C976 H970 0.930 . S
C976 C977 1.367 . S
C976 C984 1.378 . S
C977 C976 1.367 . S
C977 C985 1.433 . S
C978 H974 0.929 . S
C978 C980 1.378 . S
C978 C982 1.350 . S
C979 C982 1.463 . S
C979 C984 1.350 . S
C979 N987 1.427 . S
C980 H971 0.930 . S
C980 C978 1.378 . S
C980 C981 1.367 . S
C981 C980 1.367 . S
C981 C983 1.433 . S
C982 C978 1.350 . S
C982 C979 1.463 . S
C982 N986 1.427 . S
C983 H973 0.929 . S
C983 C981 1.433 . S
C983 N986 1.384 . S
C984 H975 0.929 . S
C984 C976 1.378 . S
C984 C979 1.350 . S
C985 H972 0.929 . S
C985 C977 1.433 . S
C985 N987 1.384 . S
N986 C982 1.427 . S
N986 C983 1.384 . S
N987 C979 1.427 . S
N987 C985 1.384 . S
H988 C994 0.930 . S
H989 C998 0.930 . S
H990 C1003 0.929 . S
H991 C1001 0.929 . S
H992 C996 0.929 . S
H993 C1002 0.929 . S
C994 H988 0.930 . S
C994 C995 1.367 . S
C994 C1002 1.378 . S
C995 C994 1.367 . S
C995 C1003 1.433 . S
C996 H992 0.929 . S
C996 C998 1.378 . S
C996 C1000 1.350 . S
C997 C1000 1.463 . S
C997 C1002 1.350 . S
C997 N1005 1.427 . S
C998 H989 0.930 . S
C998 C996 1.378 . S
C998 C999 1.367 . S
C999 C998 1.367 . S
C999 C1001 1.433 . S
C1000 C996 1.350 . S
C1000 C997 1.463 . S
C1000 N1004 1.427 . S
C1001 H991 0.929 . S
C1001 C999 1.433 . S
C1001 N1004 1.384 . S
C1002 H993 0.929 . S
C1002 C994 1.378 . S
C1002 C997 1.350 . S
C1003 H990 0.929 . S
C1003 C995 1.433 . S
C1003 N1005 1.384 . S
N1004 C1000 1.427 . S
N1004 C1001 1.384 . S
N1005 C997 1.427 . S
N1005 C1003 1.384 . S
H1006 C1012 0.930 . S
H1007 C1016 0.930 . S
H1008 C1021 0.929 . S
H1009 C1019 0.929 . S
H1010 C1014 0.929 . S
H1011 C1020 0.929 . S
C1012 H1006 0.930 . S
C1012 C1013 1.367 . S
C1012 C1020 1.378 . S
C1013 C1012 1.367 . S
C1013 C1021 1.433 . S
C1014 H1010 0.929 . S
C1014 C1016 1.378 . S
C1014 C1018 1.350 . S
C1015 C1018 1.463 . S
C1015 C1020 1.350 . S
C1015 N1023 1.427 . S
C1016 H1007 0.930 . S
C1016 C1014 1.378 . S
C1016 C1017 1.367 . S
C1017 C1016 1.367 . S
C1017 C1019 1.433 . S
C1018 C1014 1.350 . S
C1018 C1015 1.463 . S
C1018 N1022 1.427 . S
C1019 H1009 0.929 . S
C1019 C1017 1.433 . S
C1019 N1022 1.384 . S
C1020 H1011 0.929 . S
C1020 C1012 1.378 . S
C1020 C1015 1.350 . S
C1021 H1008 0.929 . S
C1021 C1013 1.433 . S
C1021 N1023 1.384 . S
N1022 C1018 1.427 . S
N1022 C1019 1.384 . S
N1023 C1015 1.427 . S
N1023 C1021 1.384 . S
H1024 C1030 0.930 . S
H1025 C1034 0.930 . S
H1026 C1039 0.929 . S
H1027 C1037 0.929 . S
H1028 C1032 0.929 . S
H1029 C1038 0.929 . S
C1030 H1024 0.930 . S
C1030 C1031 1.367 . S
C1030 C1038 1.378 . S
C1031 C1030 1.367 . S
C1031 C1039 1.433 . S
C1032 H1028 0.929 . S
C1032 C1034 1.378 . S
C1032 C1036 1.350 . S
C1033 C1036 1.463 1_544 S
C1033 C1038 1.350 . S
C1033 N1041 1.427 . S
C1034 H1025 0.930 . S
C1034 C1032 1.378 . S
C1034 C1035 1.367 . S
C1035 C1034 1.367 . S
C1035 C1037 1.433 . S
C1036 C1032 1.350 . S
C1036 C1033 1.463 1_566 S
C1036 N1040 1.427 . S
C1037 H1027 0.929 . S
C1037 C1035 1.433 . S
C1037 N1040 1.384 . S
C1038 H1029 0.929 . S
C1038 C1030 1.378 . S
C1038 C1033 1.350 . S
C1039 H1026 0.929 . S
C1039 C1031 1.433 . S
C1039 N1041 1.384 . S
N1040 C1036 1.427 . S
N1040 C1037 1.384 . S
N1041 C1033 1.427 . S
N1041 C1039 1.384 . S
H1042 C1048 0.930 . S
H1043 C1052 0.930 . S
H1044 C1057 0.929 . S
H1045 C1055 0.929 . S
H1046 C1050 0.929 . S
H1047 C1056 0.929 . S
C1048 H1042 0.930 . S
C1048 C1049 1.367 . S
C1048 C1056 1.378 . S
C1049 C1048 1.367 . S
C1049 C1057 1.433 . S
C1050 H1046 0.929 . S
C1050 C1052 1.378 . S
C1050 C1054 1.350 . S
C1051 C1054 1.463 1_554 S
C1051 C1056 1.350 . S
C1051 N1059 1.427 . S
C1052 H1043 0.930 . S
C1052 C1050 1.378 . S
C1052 C1053 1.367 . S
C1053 C1052 1.367 . S
C1053 C1055 1.433 . S
C1054 C1050 1.350 . S
C1054 C1051 1.463 1_556 S
C1054 N1058 1.427 . S
C1055 H1045 0.929 . S
C1055 C1053 1.433 . S
C1055 N1058 1.384 . S
C1056 H1047 0.929 . S
C1056 C1048 1.378 . S
C1056 C1051 1.350 . S
C1057 H1044 0.929 . S
C1057 C1049 1.433 . S
C1057 N1059 1.384 . S
N1058 C1054 1.427 . S
N1058 C1055 1.384 . S
N1059 C1051 1.427 . S
N1059 C1057 1.384 . S
H1060 C1066 0.930 . S
H1061 C1070 0.930 . S
H1062 C1075 0.929 . S
H1063 C1073 0.929 . S
H1064 C1068 0.929 . S
H1065 C1074 0.929 . S
C1066 H1060 0.930 . S
C1066 C1067 1.367 . S
C1066 C1074 1.378 . S
C1067 C1066 1.367 . S
C1067 C1075 1.433 . S
C1068 H1064 0.929 . S
C1068 C1070 1.378 . S
C1068 C1072 1.350 . S
C1069 C1072 1.463 . S
C1069 C1074 1.350 . S
C1069 N1077 1.427 . S
C1070 H1061 0.930 . S
C1070 C1068 1.378 . S
C1070 C1071 1.367 . S
C1071 C1070 1.367 . S
C1071 C1073 1.433 . S
C1072 C1068 1.350 . S
C1072 C1069 1.463 . S
C1072 N1076 1.427 . S
C1073 H1063 0.929 . S
C1073 C1071 1.433 . S
C1073 N1076 1.384 . S
C1074 H1065 0.929 . S
C1074 C1066 1.378 . S
C1074 C1069 1.350 . S
C1075 H1062 0.929 . S
C1075 C1067 1.433 . S
C1075 N1077 1.384 . S
N1076 C1072 1.427 . S
N1076 C1073 1.384 . S
N1077 C1069 1.427 . S
N1077 C1075 1.384 . S
H1078 C1084 0.930 . S
H1079 C1088 0.930 . S
H1080 C1093 0.929 . S
H1081 C1091 0.929 . S
H1082 C1086 0.929 1_545 S
H1083 C1092 0.929 1_565 S
C1084 H1078 0.930 . S
C1084 C1085 1.367 . S
C1084 C1092 1.378 . S
C1085 C1084 1.367 . S
C1085 C1093 1.433 . S
C1086 H1082 0.929 1_565 S
C1086 C1088 1.378 . S
C1086 C1090 1.350 . S
C1087 C1090 1.463 1_545 S
C1087 C1092 1.350 . S
C1087 N1095 1.427 . S
C1088 H1079 0.930 . S
C1088 C1086 1.378 . S
C1088 C1089 1.367 . S
C1089 C1088 1.367 . S
C1089 C1091 1.433 . S
C1090 C1086 1.350 . S
C1090 C1087 1.463 1_565 S
C1090 N1094 1.427 . S
C1091 H1081 0.929 . S
C1091 C1089 1.433 . S
C1091 N1094 1.384 . S
C1092 H1083 0.929 1_545 S
C1092 C1084 1.378 . S
C1092 C1087 1.350 . S
C1093 H1080 0.929 . S
C1093 C1085 1.433 . S
C1093 N1095 1.384 . S
N1094 C1090 1.427 . S
N1094 C1091 1.384 . S
N1095 C1087 1.427 . S
N1095 C1093 1.384 . S
H1096 C1102 0.930 . S
H1097 C1106 0.930 . S
H1098 C1111 0.929 . S
H1099 C1109 0.929 . S
H1100 C1104 0.929 . S
H1101 C1110 0.929 . S
C1102 H1096 0.930 . S
C1102 C1103 1.367 . S
C1102 C1110 1.378 . S
C1103 C1102 1.367 . S
C1103 C1111 1.433 . S
C1104 H1100 0.929 . S
C1104 C1106 1.378 . S
C1104 C1108 1.350 . S
C1105 C1108 1.463 1_556 S
C1105 C1110 1.350 . S
C1105 N1113 1.427 . S
C1106 H1097 0.930 . S
C1106 C1104 1.378 . S
C1106 C1107 1.367 . S
C1107 C1106 1.367 . S
C1107 C1109 1.433 . S
C1108 C1104 1.350 . S
C1108 C1105 1.463 1_554 S
C1108 N1112 1.427 . S
C1109 H1099 0.929 . S
C1109 C1107 1.433 . S
C1109 N1112 1.384 . S
C1110 H1101 0.929 . S
C1110 C1102 1.378 . S
C1110 C1105 1.350 . S
C1111 H1098 0.929 . S
C1111 C1103 1.433 . S
C1111 N1113 1.384 . S
N1112 C1108 1.427 . S
N1112 C1109 1.384 . S
N1113 C1105 1.427 . S
N1113 C1111 1.384 . S
H1114 C1120 0.930 . S
H1115 C1124 0.930 . S
H1116 C1129 0.929 . S
H1117 C1127 0.929 . S
H1118 C1122 0.929 . S
H1119 C1128 0.929 . S
C1120 H1114 0.930 . S
C1120 C1121 1.367 . S
C1120 C1128 1.378 . S
C1121 C1120 1.367 . S
C1121 C1129 1.433 . S
C1122 H1118 0.929 . S
C1122 C1124 1.378 . S
C1122 C1126 1.350 . S
C1123 C1126 1.463 . S
C1123 C1128 1.350 . S
C1123 N1131 1.427 . S
C1124 H1115 0.930 . S
C1124 C1122 1.378 . S
C1124 C1125 1.367 . S
C1125 C1124 1.367 . S
C1125 C1127 1.433 . S
C1126 C1122 1.350 . S
C1126 C1123 1.463 . S
C1126 N1130 1.427 . S
C1127 H1117 0.929 . S
C1127 C1125 1.433 . S
C1127 N1130 1.384 . S
C1128 H1119 0.929 . S
C1128 C1120 1.378 . S
C1128 C1123 1.350 . S
C1129 H1116 0.929 . S
C1129 C1121 1.433 . S
C1129 N1131 1.384 . S
N1130 C1126 1.427 . S
N1130 C1127 1.384 . S
N1131 C1123 1.427 . S
N1131 C1129 1.384 . S
H1132 C1138 0.930 . S
H1133 C1142 0.930 . S
H1134 C1147 0.929 . S
H1135 C1145 0.929 . S
H1136 C1140 0.929 . S
H1137 C1146 0.929 . S
C1138 H1132 0.930 . S
C1138 C1139 1.367 . S
C1138 C1146 1.378 1_545 S
C1139 C1138 1.367 . S
C1139 C1147 1.433 . S
C1140 H1136 0.929 . S
C1140 C1142 1.378 1_545 S
C1140 C1144 1.350 1_545 S
C1141 C1144 1.463 1_545 S
C1141 C1146 1.350 1_545 S
C1141 N1149 1.427 . S
C1142 H1133 0.930 . S
C1142 C1140 1.378 1_565 S
C1142 C1143 1.367 . S
C1143 C1142 1.367 . S
C1143 C1145 1.433 . S
C1144 C1140 1.350 1_565 S
C1144 C1141 1.463 1_565 S
C1144 N1148 1.427 . S
C1145 H1135 0.929 . S
C1145 C1143 1.433 . S
C1145 N1148 1.384 . S
C1146 H1137 0.929 . S
C1146 C1138 1.378 1_565 S
C1146 C1141 1.350 1_565 S
C1147 H1134 0.929 . S
C1147 C1139 1.433 . S
C1147 N1149 1.384 . S
N1148 C1144 1.427 . S
N1148 C1145 1.384 . S
N1149 C1141 1.427 . S
N1149 C1147 1.384 . S
H1150 C1156 0.930 . S
H1151 C1160 0.930 . S
H1152 C1165 0.929 . S
H1153 C1163 0.929 . S
H1154 C1158 0.929 . S
H1155 C1164 0.929 . S
C1156 H1150 0.930 . S
C1156 C1157 1.367 . S
C1156 C1164 1.378 . S
C1157 C1156 1.367 . S
C1157 C1165 1.433 . S
C1158 H1154 0.929 . S
C1158 C1160 1.378 . S
C1158 C1162 1.350 . S
C1159 C1162 1.463 . S
C1159 C1164 1.350 . S
C1159 N1167 1.427 . S
C1160 H1151 0.930 . S
C1160 C1158 1.378 . S
C1160 C1161 1.367 . S
C1161 C1160 1.367 . S
C1161 C1163 1.433 . S
C1162 C1158 1.350 . S
C1162 C1159 1.463 . S
C1162 N1166 1.427 . S
C1163 H1153 0.929 . S
C1163 C1161 1.433 . S
C1163 N1166 1.384 . S
C1164 H1155 0.929 . S
C1164 C1156 1.378 . S
C1164 C1159 1.350 . S
C1165 H1152 0.929 . S
C1165 C1157 1.433 . S
C1165 N1167 1.384 . S
N1166 C1162 1.427 . S
N1166 C1163 1.384 . S
N1167 C1159 1.427 . S
N1167 C1165 1.384 . S
H1168 C1174 0.930 . S
H1169 C1178 0.930 . S
H1170 C1183 0.929 . S
H1171 C1181 0.929 . S
H1172 C1176 0.929 . S
H1173 C1182 0.929 . S
C1174 H1168 0.930 . S
C1174 C1175 1.367 . S
C1174 C1182 1.378 . S
C1175 C1174 1.367 . S
C1175 C1183 1.433 . S
C1176 H1172 0.929 . S
C1176 C1178 1.378 . S
C1176 C1180 1.350 . S
C1177 C1180 1.463 . S
C1177 C1182 1.350 . S
C1177 N1185 1.427 . S
C1178 H1169 0.930 . S
C1178 C1176 1.378 . S
C1178 C1179 1.367 . S
C1179 C1178 1.367 . S
C1179 C1181 1.433 . S
C1180 C1176 1.350 . S
C1180 C1177 1.463 . S
C1180 N1184 1.427 . S
C1181 H1171 0.929 . S
C1181 C1179 1.433 . S
C1181 N1184 1.384 . S
C1182 H1173 0.929 . S
C1182 C1174 1.378 . S
C1182 C1177 1.350 . S
C1183 H1170 0.929 . S
C1183 C1175 1.433 . S
C1183 N1185 1.384 . S
N1184 C1180 1.427 . S
N1184 C1181 1.384 . S
N1185 C1177 1.427 . S
N1185 C1183 1.384 . S
H1186 C1192 0.930 . S
H1187 C1196 0.930 . S
H1188 C1201 0.929 . S
H1189 C1199 0.929 . S
H1190 C1194 0.929 . S
H1191 C1200 0.929 . S
C1192 H1186 0.930 . S
C1192 C1193 1.367 . S
C1192 C1200 1.378 . S
C1193 C1192 1.367 . S
C1193 C1201 1.433 . S
C1194 H1190 0.929 . S
C1194 C1196 1.378 . S
C1194 C1198 1.350 . S
C1195 C1198 1.463 . S
C1195 C1200 1.350 . S
C1195 N1203 1.427 . S
C1196 H1187 0.930 . S
C1196 C1194 1.378 . S
C1196 C1197 1.367 . S
C1197 C1196 1.367 . S
C1197 C1199 1.433 . S
C1198 C1194 1.350 . S
C1198 C1195 1.463 . S
C1198 N1202 1.427 . S
C1199 H1189 0.929 . S
C1199 C1197 1.433 . S
C1199 N1202 1.384 . S
C1200 H1191 0.929 . S
C1200 C1192 1.378 . S
C1200 C1195 1.350 . S
C1201 H1188 0.929 . S
C1201 C1193 1.433 . S
C1201 N1203 1.384 . S
N1202 C1198 1.427 . S
N1202 C1199 1.384 . S
N1203 C1195 1.427 . S
N1203 C1201 1.384 . S
H1204 C1210 0.930 . S
H1205 C1214 0.930 . S
H1206 C1219 0.929 . S
H1207 C1217 0.929 . S
H1208 C1212 0.929 . S
H1209 C1218 0.929 . S
C1210 H1204 0.930 . S
C1210 C1211 1.367 . S
C1210 C1218 1.378 . S
C1211 C1210 1.367 . S
C1211 C1219 1.433 . S
C1212 H1208 0.929 . S
C1212 C1214 1.378 . S
C1212 C1216 1.350 . S
C1213 C1216 1.463 . S
C1213 C1218 1.350 . S
C1213 N1221 1.427 . S
C1214 H1205 0.930 . S
C1214 C1212 1.378 . S
C1214 C1215 1.367 . S
C1215 C1214 1.367 . S
C1215 C1217 1.433 . S
C1216 C1212 1.350 . S
C1216 C1213 1.463 . S
C1216 N1220 1.427 . S
C1217 H1207 0.929 . S
C1217 C1215 1.433 . S
C1217 N1220 1.384 . S
C1218 H1209 0.929 . S
C1218 C1210 1.378 . S
C1218 C1213 1.350 . S
C1219 H1206 0.929 . S
C1219 C1211 1.433 . S
C1219 N1221 1.384 . S
N1220 C1216 1.427 . S
N1220 C1217 1.384 . S
N1221 C1213 1.427 . S
N1221 C1219 1.384 . S
H1222 C1228 0.930 . S
H1223 C1232 0.930 . S
H1224 C1237 0.929 . S
H1225 C1235 0.929 . S
H1226 C1230 0.929 . S
H1227 C1236 0.929 . S
C1228 H1222 0.930 . S
C1228 C1229 1.367 . S
C1228 C1236 1.378 . S
C1229 C1228 1.367 . S
C1229 C1237 1.433 . S
C1230 H1226 0.929 . S
C1230 C1232 1.378 . S
C1230 C1234 1.350 . S
C1231 C1234 1.463 . S
C1231 C1236 1.350 . S
C1231 N1239 1.427 . S
C1232 H1223 0.930 . S
C1232 C1230 1.378 . S
C1232 C1233 1.367 . S
C1233 C1232 1.367 . S
C1233 C1235 1.433 . S
C1234 C1230 1.350 . S
C1234 C1231 1.463 . S
C1234 N1238 1.427 . S
C1235 H1225 0.929 . S
C1235 C1233 1.433 . S
C1235 N1238 1.384 . S
C1236 H1227 0.929 . S
C1236 C1228 1.378 . S
C1236 C1231 1.350 . S
C1237 H1224 0.929 . S
C1237 C1229 1.433 . S
C1237 N1239 1.384 . S
N1238 C1234 1.427 . S
N1238 C1235 1.384 . S
N1239 C1231 1.427 . S
N1239 C1237 1.384 . S
H1240 C1246 0.930 . S
H1241 C1250 0.930 . S
H1242 C1255 0.931 . S
H1243 C1253 0.931 . S
H1244 C1248 0.929 1_455 S
H1245 C1254 0.929 1_655 S
C1246 H1240 0.930 . S
C1246 C1247 1.367 . S
C1246 C1254 1.378 . S
C1247 C1246 1.367 . S
C1247 C1255 1.433 . S
C1248 H1244 0.929 1_655 S
C1248 C1250 1.378 . S
C1248 C1252 1.350 . S
C1249 C1252 1.463 1_465 S
C1249 C1254 1.350 . S
C1249 N1257 1.427 1_565 S
C1250 H1241 0.930 . S
C1250 C1248 1.378 . S
C1250 C1251 1.367 . S
C1251 C1250 1.367 . S
C1251 C1253 1.433 . S
C1252 C1248 1.350 . S
C1252 C1249 1.463 1_645 S
C1252 N1256 1.427 1_545 S
C1253 H1243 0.931 . S
C1253 C1251 1.433 . S
C1253 N1256 1.384 1_545 S
C1254 H1245 0.929 1_455 S
C1254 C1246 1.378 . S
C1254 C1249 1.350 . S
C1255 H1242 0.931 . S
C1255 C1247 1.433 . S
C1255 N1257 1.384 1_565 S
N1256 C1252 1.427 1_565 S
N1256 C1253 1.384 1_565 S
N1257 C1249 1.427 1_545 S
N1257 C1255 1.384 1_545 S
H1258 C1264 0.930 . S
H1259 C1268 0.930 . S
H1260 C1273 0.929 . S
H1261 C1271 0.929 . S
H1262 C1266 0.929 . S
H1263 C1272 0.929 . S
C1264 H1258 0.930 . S
C1264 C1265 1.367 . S
C1264 C1272 1.378 . S
C1265 C1264 1.367 . S
C1265 C1273 1.433 . S
C1266 H1262 0.929 . S
C1266 C1268 1.378 . S
C1266 C1270 1.350 . S
C1267 C1270 1.463 1_655 S
C1267 C1272 1.350 . S
C1267 N1275 1.430 . S
C1268 H1259 0.930 . S
C1268 C1266 1.378 . S
C1268 C1269 1.367 . S
C1269 C1268 1.367 . S
C1269 C1271 1.433 . S
C1270 C1266 1.350 . S
C1270 C1267 1.463 1_455 S
C1270 N1274 1.430 . S
C1271 H1261 0.929 . S
C1271 C1269 1.433 . S
C1271 N1274 1.388 . S
C1272 H1263 0.929 . S
C1272 C1264 1.378 . S
C1272 C1267 1.350 . S
C1273 H1260 0.929 . S
C1273 C1265 1.433 . S
C1273 N1275 1.389 . S
N1274 C1270 1.430 . S
N1274 C1271 1.388 . S
N1275 C1267 1.430 . S
N1275 C1273 1.389 . S
H1276 C1282 0.930 . S
H1277 C1286 0.930 . S
H1278 C1291 0.929 . S
H1279 C1289 0.929 . S
H1280 C1284 0.929 . S
H1281 C1290 0.929 . S
C1282 H1276 0.930 . S
C1282 C1283 1.367 . S
C1282 C1290 1.378 . S
C1283 C1282 1.367 . S
C1283 C1291 1.433 . S
C1284 H1280 0.929 . S
C1284 C1286 1.378 . S
C1284 C1288 1.350 . S
C1285 C1288 1.463 1_655 S
C1285 C1290 1.350 . S
C1285 N1293 1.431 . S
C1286 H1277 0.930 . S
C1286 C1284 1.378 . S
C1286 C1287 1.367 . S
C1287 C1286 1.367 . S
C1287 C1289 1.433 . S
C1288 C1284 1.350 . S
C1288 C1285 1.463 1_455 S
C1288 N1292 1.431 . S
C1289 H1279 0.929 . S
C1289 C1287 1.433 . S
C1289 N1292 1.392 . S
C1290 H1281 0.929 . S
C1290 C1282 1.378 . S
C1290 C1285 1.350 . S
C1291 H1278 0.929 . S
C1291 C1283 1.433 . S
C1291 N1293 1.391 . S
N1292 C1288 1.431 . S
N1292 C1289 1.392 . S
N1293 C1285 1.431 . S
N1293 C1291 1.391 . S
H1294 C1300 0.930 . S
H1295 C1304 0.930 . S
H1296 C1309 0.929 . S
H1297 C1307 0.929 . S
H1298 C1302 0.929 1_556 S
H1299 C1308 0.929 1_554 S
C1300 H1294 0.930 . S
C1300 C1301 1.367 . S
C1300 C1308 1.378 . S
C1301 C1300 1.367 . S
C1301 C1309 1.433 . S
C1302 H1298 0.929 1_554 S
C1302 C1304 1.378 . S
C1302 C1306 1.350 . S
C1303 C1306 1.463 1_456 S
C1303 C1308 1.350 . S
C1303 N1311 1.427 . S
C1304 H1295 0.930 . S
C1304 C1302 1.378 . S
C1304 C1305 1.367 . S
C1305 C1304 1.367 . S
C1305 C1307 1.433 . S
C1306 C1302 1.350 . S
C1306 C1303 1.463 1_654 S
C1306 N1310 1.427 . S
C1307 H1297 0.929 . S
C1307 C1305 1.433 . S
C1307 N1310 1.384 . S
C1308 H1299 0.929 1_556 S
C1308 C1300 1.378 . S
C1308 C1303 1.350 . S
C1309 H1296 0.929 . S
C1309 C1301 1.433 . S
C1309 N1311 1.384 . S
N1310 C1306 1.427 . S
N1310 C1307 1.384 . S
N1311 C1303 1.427 . S
N1311 C1309 1.384 . S
H1312 C1318 0.930 . S
H1313 C1322 0.930 . S
H1314 C1327 0.929 . S
H1315 C1325 0.929 . S
H1316 C1320 0.929 . S
H1317 C1326 0.929 . S
C1318 H1312 0.930 . S
C1318 C1319 1.367 . S
C1318 C1326 1.378 . S
C1319 C1318 1.367 . S
C1319 C1327 1.433 . S
C1320 H1316 0.929 . S
C1320 C1322 1.378 . S
C1320 C1324 1.350 . S
C1321 C1324 1.463 . S
C1321 C1326 1.350 . S
C1321 N1329 1.427 . S
C1322 H1313 0.930 . S
C1322 C1320 1.378 . S
C1322 C1323 1.367 . S
C1323 C1322 1.367 . S
C1323 C1325 1.433 . S
C1324 C1320 1.350 . S
C1324 C1321 1.463 . S
C1324 N1328 1.427 . S
C1325 H1315 0.929 . S
C1325 C1323 1.433 . S
C1325 N1328 1.384 . S
C1326 H1317 0.929 . S
C1326 C1318 1.378 . S
C1326 C1321 1.350 . S
C1327 H1314 0.929 . S
C1327 C1319 1.433 . S
C1327 N1329 1.384 . S
N1328 C1324 1.427 . S
N1328 C1325 1.384 . S
N1329 C1321 1.427 . S
N1329 C1327 1.384 . S
H1330 C1336 0.930 . S
H1331 C1340 0.930 . S
H1332 C1345 0.929 . S
H1333 C1343 0.929 . S
H1334 C1338 0.929 . S
H1335 C1344 0.929 . S
C1336 H1330 0.930 . S
C1336 C1337 1.367 . S
C1336 C1344 1.378 . S
C1337 C1336 1.367 . S
C1337 C1345 1.433 . S
C1338 H1334 0.929 . S
C1338 C1340 1.378 . S
C1338 C1342 1.350 . S
C1339 C1342 1.463 . S
C1339 C1344 1.350 . S
C1339 N1347 1.427 . S
C1340 H1331 0.930 . S
C1340 C1338 1.378 . S
C1340 C1341 1.367 . S
C1341 C1340 1.367 . S
C1341 C1343 1.433 . S
C1342 C1338 1.350 . S
C1342 C1339 1.463 . S
C1342 N1346 1.427 . S
C1343 H1333 0.929 . S
C1343 C1341 1.433 . S
C1343 N1346 1.384 . S
C1344 H1335 0.929 . S
C1344 C1336 1.378 . S
C1344 C1339 1.350 . S
C1345 H1332 0.929 . S
C1345 C1337 1.433 . S
C1345 N1347 1.384 . S
N1346 C1342 1.427 . S
N1346 C1343 1.384 . S
N1347 C1339 1.427 . S
N1347 C1345 1.384 . S
H1348 C1354 0.930 . S
H1349 C1358 0.930 . S
H1350 C1363 0.929 . S
H1351 C1361 0.929 . S
H1352 C1356 0.929 . S
H1353 C1362 0.929 . S
C1354 H1348 0.930 . S
C1354 C1355 1.367 . S
C1354 C1362 1.378 . S
C1355 C1354 1.367 . S
C1355 C1363 1.433 . S
C1356 H1352 0.929 . S
C1356 C1358 1.378 . S
C1356 C1360 1.350 . S
C1357 C1360 1.463 . S
C1357 C1362 1.350 . S
C1357 N1365 1.427 . S
C1358 H1349 0.930 . S
C1358 C1356 1.378 . S
C1358 C1359 1.367 . S
C1359 C1358 1.367 . S
C1359 C1361 1.433 . S
C1360 C1356 1.350 . S
C1360 C1357 1.463 . S
C1360 N1364 1.427 . S
C1361 H1351 0.929 . S
C1361 C1359 1.433 . S
C1361 N1364 1.384 . S
C1362 H1353 0.929 . S
C1362 C1354 1.378 . S
C1362 C1357 1.350 . S
C1363 H1350 0.929 . S
C1363 C1355 1.433 . S
C1363 N1365 1.384 . S
N1364 C1360 1.427 . S
N1364 C1361 1.384 . S
N1365 C1357 1.427 . S
N1365 C1363 1.384 . S
H1366 C1372 0.930 . S
H1367 C1376 0.930 . S
H1368 C1381 0.929 . S
H1369 C1379 0.929 . S
H1370 C1374 0.929 . S
H1371 C1380 0.929 . S
C1372 H1366 0.930 . S
C1372 C1373 1.367 . S
C1372 C1380 1.378 . S
C1373 C1372 1.367 . S
C1373 C1381 1.433 . S
C1374 H1370 0.929 . S
C1374 C1376 1.378 . S
C1374 C1378 1.350 . S
C1375 C1378 1.463 . S
C1375 C1380 1.350 . S
C1375 N1383 1.427 . S
C1376 H1367 0.930 . S
C1376 C1374 1.378 . S
C1376 C1377 1.367 . S
C1377 C1376 1.367 . S
C1377 C1379 1.433 . S
C1378 C1374 1.350 . S
C1378 C1375 1.463 . S
C1378 N1382 1.427 . S
C1379 H1369 0.929 . S
C1379 C1377 1.433 . S
C1379 N1382 1.384 . S
C1380 H1371 0.929 . S
C1380 C1372 1.378 . S
C1380 C1375 1.350 . S
C1381 H1368 0.929 . S
C1381 C1373 1.433 . S
C1381 N1383 1.384 . S
N1382 C1378 1.427 . S
N1382 C1379 1.384 . S
N1383 C1375 1.427 . S
N1383 C1381 1.384 . S
H1384 C1390 0.930 . S
H1385 C1394 0.930 . S
H1386 C1399 0.929 . S
H1387 C1397 0.929 . S
H1388 C1392 0.929 . S
H1389 C1398 0.929 . S
C1390 H1384 0.930 . S
C1390 C1391 1.367 . S
C1390 C1398 1.378 . S
C1391 C1390 1.367 . S
C1391 C1399 1.433 . S
C1392 H1388 0.929 . S
C1392 C1394 1.378 . S
C1392 C1396 1.350 . S
C1393 C1396 1.463 . S
C1393 C1398 1.350 . S
C1393 N1401 1.427 . S
C1394 H1385 0.930 . S
C1394 C1392 1.378 . S
C1394 C1395 1.367 . S
C1395 C1394 1.367 . S
C1395 C1397 1.433 . S
C1396 C1392 1.350 . S
C1396 C1393 1.463 . S
C1396 N1400 1.427 . S
C1397 H1387 0.929 . S
C1397 C1395 1.433 . S
C1397 N1400 1.384 . S
C1398 H1389 0.929 . S
C1398 C1390 1.378 . S
C1398 C1393 1.350 . S
C1399 H1386 0.929 . S
C1399 C1391 1.433 . S
C1399 N1401 1.384 . S
N1400 C1396 1.427 . S
N1400 C1397 1.384 . S
N1401 C1393 1.427 . S
N1401 C1399 1.384 . S
H1402 C1408 0.930 . S
H1403 C1412 0.930 . S
H1404 C1417 0.929 . S
H1405 C1415 0.929 . S
H1406 C1410 0.929 . S
H1407 C1416 0.929 . S
C1408 H1402 0.930 . S
C1408 C1409 1.367 . S
C1408 C1416 1.378 . S
C1409 C1408 1.367 . S
C1409 C1417 1.433 . S
C1410 H1406 0.929 . S
C1410 C1412 1.378 . S
C1410 C1414 1.350 . S
C1411 C1414 1.463 . S
C1411 C1416 1.350 . S
C1411 N1419 1.427 . S
C1412 H1403 0.930 . S
C1412 C1410 1.378 . S
C1412 C1413 1.367 . S
C1413 C1412 1.367 . S
C1413 C1415 1.433 . S
C1414 C1410 1.350 . S
C1414 C1411 1.463 . S
C1414 N1418 1.427 . S
C1415 H1405 0.929 . S
C1415 C1413 1.433 . S
C1415 N1418 1.384 . S
C1416 H1407 0.929 . S
C1416 C1408 1.378 . S
C1416 C1411 1.350 . S
C1417 H1404 0.929 . S
C1417 C1409 1.433 . S
C1417 N1419 1.384 . S
N1418 C1414 1.427 . S
N1418 C1415 1.384 . S
N1419 C1411 1.427 . S
N1419 C1417 1.384 . S
H1420 C1426 0.930 . S
H1421 C1430 0.930 . S
H1422 C1435 0.929 . S
H1423 C1433 0.929 . S
H1424 C1428 0.929 . S
H1425 C1434 0.929 . S
C1426 H1420 0.930 . S
C1426 C1427 1.367 . S
C1426 C1434 1.378 . S
C1427 C1426 1.367 . S
C1427 C1435 1.433 . S
C1428 H1424 0.929 . S
C1428 C1430 1.378 . S
C1428 C1432 1.350 . S
C1429 C1432 1.463 . S
C1429 C1434 1.350 . S
C1429 N1437 1.427 . S
C1430 H1421 0.930 . S
C1430 C1428 1.378 . S
C1430 C1431 1.367 . S
C1431 C1430 1.367 . S
C1431 C1433 1.433 . S
C1432 C1428 1.350 . S
C1432 C1429 1.463 . S
C1432 N1436 1.427 . S
C1433 H1423 0.929 . S
C1433 C1431 1.433 . S
C1433 N1436 1.384 . S
C1434 H1425 0.929 . S
C1434 C1426 1.378 . S
C1434 C1429 1.350 . S
C1435 H1422 0.929 . S
C1435 C1427 1.433 . S
C1435 N1437 1.384 . S
N1436 C1432 1.427 . S
N1436 C1433 1.384 . S
N1437 C1429 1.427 . S
N1437 C1435 1.384 . S
H1438 C1444 0.930 . S
H1439 C1448 0.930 . S
H1440 C1453 0.929 . S
H1441 C1451 0.929 . S
H1442 C1446 0.929 . S
H1443 C1452 0.929 . S
C1444 H1438 0.930 . S
C1444 C1445 1.367 . S
C1444 C1452 1.378 . S
C1445 C1444 1.367 . S
C1445 C1453 1.433 . S
C1446 H1442 0.929 . S
C1446 C1448 1.378 . S
C1446 C1450 1.350 . S
C1447 C1450 1.463 . S
C1447 C1452 1.350 . S
C1447 N1455 1.427 . S
C1448 H1439 0.930 . S
C1448 C1446 1.378 . S
C1448 C1449 1.367 . S
C1449 C1448 1.367 . S
C1449 C1451 1.433 . S
C1450 C1446 1.350 . S
C1450 C1447 1.463 . S
C1450 N1454 1.427 . S
C1451 H1441 0.929 . S
C1451 C1449 1.433 . S
C1451 N1454 1.384 . S
C1452 H1443 0.929 . S
C1452 C1444 1.378 . S
C1452 C1447 1.350 . S
C1453 H1440 0.929 . S
C1453 C1445 1.433 . S
C1453 N1455 1.384 . S
N1454 C1450 1.427 . S
N1454 C1451 1.384 . S
N1455 C1447 1.427 . S
N1455 C1453 1.384 . S
H1456 C1462 0.930 . S
H1457 C1466 0.930 . S
H1458 C1471 0.929 . S
H1459 C1469 0.929 . S
H1460 C1464 0.929 . S
H1461 C1470 0.929 . S
C1462 H1456 0.930 . S
C1462 C1463 1.367 . S
C1462 C1470 1.378 . S
C1463 C1462 1.367 . S
C1463 C1471 1.433 . S
C1464 H1460 0.929 . S
C1464 C1466 1.378 . S
C1464 C1468 1.350 . S
C1465 C1468 1.463 . S
C1465 C1470 1.350 . S
C1465 N1473 1.427 . S
C1466 H1457 0.930 . S
C1466 C1464 1.378 . S
C1466 C1467 1.367 . S
C1467 C1466 1.367 . S
C1467 C1469 1.433 . S
C1468 C1464 1.350 . S
C1468 C1465 1.463 . S
C1468 N1472 1.427 . S
C1469 H1459 0.929 . S
C1469 C1467 1.433 . S
C1469 N1472 1.384 . S
C1470 H1461 0.929 . S
C1470 C1462 1.378 . S
C1470 C1465 1.350 . S
C1471 H1458 0.929 . S
C1471 C1463 1.433 . S
C1471 N1473 1.384 . S
N1472 C1468 1.427 . S
N1472 C1469 1.384 . S
N1473 C1465 1.427 . S
N1473 C1471 1.384 . S
H1474 C1480 0.930 . S
H1475 C1484 0.930 . S
H1476 C1489 0.929 . S
H1477 C1487 0.929 . S
H1478 C1482 0.929 . S
H1479 C1488 0.929 . S
C1480 H1474 0.930 . S
C1480 C1481 1.367 . S
C1480 C1488 1.378 . S
C1481 C1480 1.367 . S
C1481 C1489 1.433 . S
C1482 H1478 0.929 . S
C1482 C1484 1.378 . S
C1482 C1486 1.350 . S
C1483 C1486 1.463 . S
C1483 C1488 1.350 . S
C1483 N1491 1.427 . S
C1484 H1475 0.930 . S
C1484 C1482 1.378 . S
C1484 C1485 1.367 . S
C1485 C1484 1.367 . S
C1485 C1487 1.433 . S
C1486 C1482 1.350 . S
C1486 C1483 1.463 . S
C1486 N1490 1.427 . S
C1487 H1477 0.929 . S
C1487 C1485 1.433 . S
C1487 N1490 1.384 . S
C1488 H1479 0.929 . S
C1488 C1480 1.378 . S
C1488 C1483 1.350 . S
C1489 H1476 0.929 . S
C1489 C1481 1.433 . S
C1489 N1491 1.384 . S
N1490 C1486 1.427 . S
N1490 C1487 1.384 . S
N1491 C1483 1.427 . S
N1491 C1489 1.384 . S
H1492 C1498 0.930 . S
H1493 C1502 0.930 . S
H1494 C1507 0.929 . S
H1495 C1505 0.929 . S
H1496 C1500 0.929 . S
H1497 C1506 0.929 . S
C1498 H1492 0.930 . S
C1498 C1499 1.367 . S
C1498 C1506 1.378 . S
C1499 C1498 1.367 . S
C1499 C1507 1.433 . S
C1500 H1496 0.929 . S
C1500 C1502 1.378 . S
C1500 C1504 1.350 . S
C1501 C1504 1.463 . S
C1501 C1506 1.350 . S
C1501 N1509 1.427 . S
C1502 H1493 0.930 . S
C1502 C1500 1.378 . S
C1502 C1503 1.367 . S
C1503 C1502 1.367 . S
C1503 C1505 1.433 . S
C1504 C1500 1.350 . S
C1504 C1501 1.463 . S
C1504 N1508 1.427 . S
C1505 H1495 0.929 . S
C1505 C1503 1.433 . S
C1505 N1508 1.384 . S
C1506 H1497 0.929 . S
C1506 C1498 1.378 . S
C1506 C1501 1.350 . S
C1507 H1494 0.929 . S
C1507 C1499 1.433 . S
C1507 N1509 1.384 . S
N1508 C1504 1.427 . S
N1508 C1505 1.384 . S
N1509 C1501 1.427 . S
N1509 C1507 1.384 . S
H1510 C1516 0.930 . S
H1511 C1520 0.930 . S
H1512 C1525 0.929 . S
H1513 C1523 0.929 . S
H1514 C1518 0.929 . S
H1515 C1524 0.929 . S
C1516 H1510 0.930 . S
C1516 C1517 1.367 . S
C1516 C1524 1.378 . S
C1517 C1516 1.367 . S
C1517 C1525 1.433 . S
C1518 H1514 0.929 . S
C1518 C1520 1.378 . S
C1518 C1522 1.350 . S
C1519 C1522 1.463 . S
C1519 C1524 1.350 . S
C1519 N1527 1.427 . S
C1520 H1511 0.930 . S
C1520 C1518 1.378 . S
C1520 C1521 1.367 . S
C1521 C1520 1.367 . S
C1521 C1523 1.433 . S
C1522 C1518 1.350 . S
C1522 C1519 1.463 . S
C1522 N1526 1.427 . S
C1523 H1513 0.929 . S
C1523 C1521 1.433 . S
C1523 N1526 1.384 . S
C1524 H1515 0.929 . S
C1524 C1516 1.378 . S
C1524 C1519 1.350 . S
C1525 H1512 0.929 . S
C1525 C1517 1.433 . S
C1525 N1527 1.384 . S
N1526 C1522 1.427 . S
N1526 C1523 1.384 . S
N1527 C1519 1.427 . S
N1527 C1525 1.384 . S
H1528 C1534 0.930 . S
H1529 C1538 0.930 . S
H1530 C1543 0.929 . S
H1531 C1541 0.929 . S
H1532 C1536 0.929 . S
H1533 C1542 0.929 . S
C1534 H1528 0.930 . S
C1534 C1535 1.367 . S
C1534 C1542 1.378 . S
C1535 C1534 1.367 . S
C1535 C1543 1.433 . S
C1536 H1532 0.929 . S
C1536 C1538 1.378 . S
C1536 C1540 1.350 . S
C1537 C1540 1.463 . S
C1537 C1542 1.350 . S
C1537 N1545 1.427 . S
C1538 H1529 0.930 . S
C1538 C1536 1.378 . S
C1538 C1539 1.367 . S
C1539 C1538 1.367 . S
C1539 C1541 1.433 . S
C1540 C1536 1.350 . S
C1540 C1537 1.463 . S
C1540 N1544 1.427 . S
C1541 H1531 0.929 . S
C1541 C1539 1.433 . S
C1541 N1544 1.384 . S
C1542 H1533 0.929 . S
C1542 C1534 1.378 . S
C1542 C1537 1.350 . S
C1543 H1530 0.929 . S
C1543 C1535 1.433 . S
C1543 N1545 1.384 . S
N1544 C1540 1.427 . S
N1544 C1541 1.384 . S
N1545 C1537 1.427 . S
N1545 C1543 1.384 . S
H1546 C1552 0.930 . S
H1547 C1556 0.930 . S
H1548 C1561 0.929 . S
H1549 C1559 0.929 . S
H1550 C1554 0.929 . S
H1551 C1560 0.929 . S
C1552 H1546 0.930 . S
C1552 C1553 1.367 . S
C1552 C1560 1.378 . S
C1553 C1552 1.367 . S
C1553 C1561 1.433 . S
C1554 H1550 0.929 . S
C1554 C1556 1.378 . S
C1554 C1558 1.350 . S
C1555 C1558 1.463 . S
C1555 C1560 1.350 . S
C1555 N1563 1.427 . S
C1556 H1547 0.930 . S
C1556 C1554 1.378 . S
C1556 C1557 1.367 . S
C1557 C1556 1.367 . S
C1557 C1559 1.433 . S
C1558 C1554 1.350 . S
C1558 C1555 1.463 . S
C1558 N1562 1.427 . S
C1559 H1549 0.929 . S
C1559 C1557 1.433 . S
C1559 N1562 1.384 . S
C1560 H1551 0.929 . S
C1560 C1552 1.378 . S
C1560 C1555 1.350 . S
C1561 H1548 0.929 . S
C1561 C1553 1.433 . S
C1561 N1563 1.384 . S
N1562 C1558 1.427 . S
N1562 C1559 1.384 . S
N1563 C1555 1.427 . S
N1563 C1561 1.384 . S
H1564 C1570 0.930 . S
H1565 C1574 0.930 . S
H1566 C1579 0.929 . S
H1567 C1577 0.929 . S
H1568 C1572 0.929 . S
H1569 C1578 0.929 . S
C1570 H1564 0.930 . S
C1570 C1571 1.367 . S
C1570 C1578 1.378 . S
C1571 C1570 1.367 . S
C1571 C1579 1.433 . S
C1572 H1568 0.929 . S
C1572 C1574 1.378 . S
C1572 C1576 1.350 . S
C1573 C1576 1.463 . S
C1573 C1578 1.350 . S
C1573 N1581 1.427 . S
C1574 H1565 0.930 . S
C1574 C1572 1.378 . S
C1574 C1575 1.367 . S
C1575 C1574 1.367 . S
C1575 C1577 1.433 . S
C1576 C1572 1.350 . S
C1576 C1573 1.463 . S
C1576 N1580 1.427 . S
C1577 H1567 0.929 . S
C1577 C1575 1.433 . S
C1577 N1580 1.384 . S
C1578 H1569 0.929 . S
C1578 C1570 1.378 . S
C1578 C1573 1.350 . S
C1579 H1566 0.929 . S
C1579 C1571 1.433 . S
C1579 N1581 1.384 . S
N1580 C1576 1.427 . S
N1580 C1577 1.384 . S
N1581 C1573 1.427 . S
N1581 C1579 1.384 . S
H1582 C1588 0.930 . S
H1583 C1592 0.930 . S
H1584 C1597 0.929 . S
H1585 C1595 0.929 . S
H1586 C1590 0.929 . S
H1587 C1596 0.929 . S
C1588 H1582 0.930 . S
C1588 C1589 1.367 . S
C1588 C1596 1.378 . S
C1589 C1588 1.367 . S
C1589 C1597 1.433 . S
C1590 H1586 0.929 . S
C1590 C1592 1.378 . S
C1590 C1594 1.350 . S
C1591 C1594 1.463 . S
C1591 C1596 1.350 . S
C1591 N1599 1.427 . S
C1592 H1583 0.930 . S
C1592 C1590 1.378 . S
C1592 C1593 1.367 . S
C1593 C1592 1.367 . S
C1593 C1595 1.433 . S
C1594 C1590 1.350 . S
C1594 C1591 1.463 . S
C1594 N1598 1.427 . S
C1595 H1585 0.929 . S
C1595 C1593 1.433 . S
C1595 N1598 1.384 . S
C1596 H1587 0.929 . S
C1596 C1588 1.378 . S
C1596 C1591 1.350 . S
C1597 H1584 0.929 . S
C1597 C1589 1.433 . S
C1597 N1599 1.384 . S
N1598 C1594 1.427 . S
N1598 C1595 1.384 . S
N1599 C1591 1.427 . S
N1599 C1597 1.384 . S
C455 C7 1.669 . S
C459 C35 1.666 . S
C473 C49 1.667 . S
C477 C21 1.662 . S
C491 C91 1.664 . S
C495 C63 1.663 . S
C509 C105 1.665 . S
C513 C77 1.663 . S
C527 C119 1.670 . S
C531 C147 1.667 . S
C545 C161 1.669 . S
C549 C133 1.666 . S
C563 C175 1.666 . S
C567 C203 1.663 . S
C581 C217 1.664 . S
C585 C189 1.663 . S
C599 C231 1.663 . S
C603 C259 1.667 . S
C617 C245 1.669 . S
C621 C273 1.663 . S
C635 C315 1.667 . S
C639 C287 1.670 . S
C653 C301 1.665 . S
C657 C329 1.669 . S
C671 C371 1.669 . S
C675 C343 1.665 . S
C689 C385 1.669 . S
C693 C357 1.667 . S
C707 C427 1.666 . S
C711 C399 1.669 . S
C725 C413 1.668 . S
C729 C441 1.669 . S
C743 C356 1.215 . S
C747 C6 1.218 . S
C761 C20 1.217 . S
C765 C342 1.213 . S
C779 C34 1.206 . S
C783 C384 1.208 . S
C797 C48 1.207 . S
C801 C370 1.212 . S
C815 C412 1.210 . S
C819 C62 1.215 . S
C833 C76 1.213 . S
C837 C398 1.208 . S
C851 C90 1.207 . S
C855 C440 1.211 . S
C869 C426 1.210 . S
C873 C104 1.206 . S
C887 C118 1.207 . S
C891 C244 1.211 . S
C905 C132 1.217 . S
C909 C230 1.213 . S
C923 C146 1.215 . S
C927 C272 1.218 . S
C941 C160 1.207 . S
C945 C258 1.212 . S
C959 C174 1.212 . S
C963 C300 1.207 . S
C977 C286 1.210 . S
C981 C188 1.215 . S
C995 C328 1.207 . S
C999 C202 1.211 . S
C1013 C216 1.217 . S
C1017 C314 1.216 . S
C1031 C8 1.352 . S
C1035 C64 1.352 . S
C1049 C22 1.341 . S
C1053 C414 1.341 . S
C1067 C36 1.356 . S
C1071 C204 1.356 . S
C1085 C50 1.353 . S
C1089 C330 1.353 . S
C1103 C78 1.341 . S
C1107 C358 1.341 . S
C1121 C148 1.366 . S
C1125 C92 1.366 . S
C1139 C274 1.349 . S
C1143 C106 1.349 . S
C1157 C176 1.342 . S
C1161 C120 1.342 . S
C1175 C134 1.348 . S
C1179 C302 1.348 . S
C1193 C442 1.367 . S
C1197 C162 1.367 . S
C1211 C190 1.340 . S
C1215 C246 1.340 . S
C1229 C218 1.369 . S
C1233 C386 1.369 . S
C1247 C288 1.367 . S
C1251 C232 1.367 . S
C1265 C260 1.345 . S
C1269 C428 1.345 . S
C1283 C372 1.344 . S
C1287 C316 1.344 . S
C1301 C400 1.369 . S
C1305 C344 1.369 . S
C1319 C9 1.569 . S
C1323 C23 1.567 . S
C1337 C37 1.565 . S
C1341 C51 1.567 . S
C1355 C65 1.563 . S
C1359 C79 1.564 . S
C1373 C93 1.571 . S
C1377 C107 1.569 . S
C1391 C135 1.569 . S
C1395 C121 1.567 . S
C1409 C149 1.563 . S
C1413 C163 1.562 . S
C1427 C177 1.572 . S
C1431 C191 1.569 . S
C1445 C205 1.572 . S
C1449 C219 1.573 . S
C1463 C233 1.562 . S
C1467 C247 1.563 . S
C1481 C275 1.568 . S
C1485 C261 1.570 . S
C1499 C289 1.562 . S
C1503 C303 1.563 . S
C1517 C317 1.571 . S
C1521 C331 1.573 . S
C1535 C359 1.571 . S
C1539 C345 1.569 . S
C1553 C373 1.569 . S
C1557 C387 1.567 . S
C1571 C415 1.571 . S
C1575 C401 1.573 . S
C1589 C429 1.574 . S
C1593 C443 1.574 . S
