# Generated by pormake.
# Topology vda, (6)-cn, num edge types: 1
# Building blocks:
#     Node 0, Type 0, BuildingBlock: OJICUG_clean_sbu_0, # of connection points: 6
#     Node 1, Type 0, BuildingBlock: OJICUG_clean_sbu_0, # of connection points: 6
#     Node 2, Type 0, BuildingBlock: OJICUG_clean_sbu_0, # of connection points: 6
#     Node 3, Type 0, BuildingBlock: OJICUG_clean_sbu_0, # of connection points: 6
#     Node 4, Type 0, BuildingBlock: OJICUG_clean_sbu_0, # of connection points: 6
#     Node 5, Type 0, BuildingBlock: OJICUG_clean_sbu_0, # of connection points: 6
#     Node 6, Type 0, BuildingBlock: OJICUG_clean_sbu_0, # of connection points: 6
#     Node 7, Type 0, BuildingBlock: OJICUG_clean_sbu_0, # of connection points: 6
#     Node 8, Type 0, BuildingBlock: OJICUG_clean_sbu_0, # of connection points: 6
#     Node 9, Type 0, BuildingBlock: OJICUG_clean_sbu_0, # of connection points: 6
#     Node 10, Type 0, BuildingBlock: OJICUG_clean_sbu_0, # of connection points: 6
#     Node 11, Type 0, BuildingBlock: OJICUG_clean_sbu_0, # of connection points: 6
#     Node 12, Type 0, BuildingBlock: OJICUG_clean_sbu_0, # of connection points: 6
#     Node 13, Type 0, BuildingBlock: OJICUG_clean_sbu_0, # of connection points: 6
#     Node 14, Type 0, BuildingBlock: OJICUG_clean_sbu_0, # of connection points: 6
#     Node 15, Type 0, BuildingBlock: OJICUG_clean_sbu_0, # of connection points: 6
#     Node 16, Type 0, BuildingBlock: OJICUG_clean_sbu_0, # of connection points: 6
#     Node 17, Type 0, BuildingBlock: OJICUG_clean_sbu_0, # of connection points: 6
#     Node 18, Type 0, BuildingBlock: OJICUG_clean_sbu_0, # of connection points: 6
#     Node 19, Type 0, BuildingBlock: OJICUG_clean_sbu_0, # of connection points: 6
#     Node 20, Type 0, BuildingBlock: OJICUG_clean_sbu_0, # of connection points: 6
#     Node 21, Type 0, BuildingBlock: OJICUG_clean_sbu_0, # of connection points: 6
#     Node 22, Type 0, BuildingBlock: OJICUG_clean_sbu_0, # of connection points: 6
#     Node 23, Type 0, BuildingBlock: OJICUG_clean_sbu_0, # of connection points: 6
#     Node 24, Type 0, BuildingBlock: OJICUG_clean_sbu_0, # of connection points: 6
#     Node 25, Type 0, BuildingBlock: OJICUG_clean_sbu_0, # of connection points: 6
#     Node 26, Type 0, BuildingBlock: OJICUG_clean_sbu_0, # of connection points: 6
#     Node 27, Type 0, BuildingBlock: OJICUG_clean_sbu_0, # of connection points: 6
#     Node 28, Type 0, BuildingBlock: OJICUG_clean_sbu_0, # of connection points: 6
#     Node 29, Type 0, BuildingBlock: OJICUG_clean_sbu_0, # of connection points: 6
#     Node 30, Type 0, BuildingBlock: OJICUG_clean_sbu_0, # of connection points: 6
#     Node 31, Type 0, BuildingBlock: OJICUG_clean_sbu_0, # of connection points: 6
#     Edge 32, Type (0, 0), BuildingBlock: AJUNOK_clean_linker_0, # of connection points: 2
#     Edge 33, Type (0, 0), BuildingBlock: AJUNOK_clean_linker_0, # of connection points: 2
#     Edge 34, Type (0, 0), BuildingBlock: AJUNOK_clean_linker_0, # of connection points: 2
#     Edge 35, Type (0, 0), BuildingBlock: AJUNOK_clean_linker_0, # of connection points: 2
#     Edge 36, Type (0, 0), BuildingBlock: AJUNOK_clean_linker_0, # of connection points: 2
#     Edge 37, Type (0, 0), BuildingBlock: AJUNOK_clean_linker_0, # of connection points: 2
#     Edge 38, Type (0, 0), BuildingBlock: AJUNOK_clean_linker_0, # of connection points: 2
#     Edge 39, Type (0, 0), BuildingBlock: AJUNOK_clean_linker_0, # of connection points: 2
#     Edge 40, Type (0, 0), BuildingBlock: AJUNOK_clean_linker_0, # of connection points: 2
#     Edge 41, Type (0, 0), BuildingBlock: AJUNOK_clean_linker_0, # of connection points: 2
#     Edge 42, Type (0, 0), BuildingBlock: AJUNOK_clean_linker_0, # of connection points: 2
#     Edge 43, Type (0, 0), BuildingBlock: AJUNOK_clean_linker_0, # of connection points: 2
#     Edge 44, Type (0, 0), BuildingBlock: AJUNOK_clean_linker_0, # of connection points: 2
#     Edge 45, Type (0, 0), BuildingBlock: AJUNOK_clean_linker_0, # of connection points: 2
#     Edge 46, Type (0, 0), BuildingBlock: AJUNOK_clean_linker_0, # of connection points: 2
#     Edge 47, Type (0, 0), BuildingBlock: AJUNOK_clean_linker_0, # of connection points: 2
#     Edge 48, Type (0, 0), BuildingBlock: AJUNOK_clean_linker_0, # of connection points: 2
#     Edge 49, Type (0, 0), BuildingBlock: AJUNOK_clean_linker_0, # of connection points: 2
#     Edge 50, Type (0, 0), BuildingBlock: AJUNOK_clean_linker_0, # of connection points: 2
#     Edge 51, Type (0, 0), BuildingBlock: AJUNOK_clean_linker_0, # of connection points: 2
#     Edge 52, Type (0, 0), BuildingBlock: AJUNOK_clean_linker_0, # of connection points: 2
#     Edge 53, Type (0, 0), BuildingBlock: AJUNOK_clean_linker_0, # of connection points: 2
#     Edge 54, Type (0, 0), BuildingBlock: AJUNOK_clean_linker_0, # of connection points: 2
#     Edge 55, Type (0, 0), BuildingBlock: AJUNOK_clean_linker_0, # of connection points: 2
#     Edge 56, Type (0, 0), BuildingBlock: AJUNOK_clean_linker_0, # of connection points: 2
#     Edge 57, Type (0, 0), BuildingBlock: AJUNOK_clean_linker_0, # of connection points: 2
#     Edge 58, Type (0, 0), BuildingBlock: AJUNOK_clean_linker_0, # of connection points: 2
#     Edge 59, Type (0, 0), BuildingBlock: AJUNOK_clean_linker_0, # of connection points: 2
#     Edge 60, Type (0, 0), BuildingBlock: AJUNOK_clean_linker_0, # of connection points: 2
#     Edge 61, Type (0, 0), BuildingBlock: AJUNOK_clean_linker_0, # of connection points: 2
#     Edge 62, Type (0, 0), BuildingBlock: AJUNOK_clean_linker_0, # of connection points: 2
#     Edge 63, Type (0, 0), BuildingBlock: AJUNOK_clean_linker_0, # of connection points: 2
#     Edge 64, Type (0, 0), BuildingBlock: AJUNOK_clean_linker_0, # of connection points: 2
#     Edge 65, Type (0, 0), BuildingBlock: AJUNOK_clean_linker_0, # of connection points: 2
#     Edge 66, Type (0, 0), BuildingBlock: AJUNOK_clean_linker_0, # of connection points: 2
#     Edge 67, Type (0, 0), BuildingBlock: AJUNOK_clean_linker_0, # of connection points: 2
#     Edge 68, Type (0, 0), BuildingBlock: AJUNOK_clean_linker_0, # of connection points: 2
#     Edge 69, Type (0, 0), BuildingBlock: AJUNOK_clean_linker_0, # of connection points: 2
#     Edge 70, Type (0, 0), BuildingBlock: AJUNOK_clean_linker_0, # of connection points: 2
#     Edge 71, Type (0, 0), BuildingBlock: AJUNOK_clean_linker_0, # of connection points: 2
#     Edge 72, Type (0, 0), BuildingBlock: AJUNOK_clean_linker_0, # of connection points: 2
#     Edge 73, Type (0, 0), BuildingBlock: AJUNOK_clean_linker_0, # of connection points: 2
#     Edge 74, Type (0, 0), BuildingBlock: AJUNOK_clean_linker_0, # of connection points: 2
#     Edge 75, Type (0, 0), BuildingBlock: AJUNOK_clean_linker_0, # of connection points: 2
#     Edge 76, Type (0, 0), BuildingBlock: AJUNOK_clean_linker_0, # of connection points: 2
#     Edge 77, Type (0, 0), BuildingBlock: AJUNOK_clean_linker_0, # of connection points: 2
#     Edge 78, Type (0, 0), BuildingBlock: AJUNOK_clean_linker_0, # of connection points: 2
#     Edge 79, Type (0, 0), BuildingBlock: AJUNOK_clean_linker_0, # of connection points: 2
#     Edge 80, Type (0, 0), BuildingBlock: AJUNOK_clean_linker_0, # of connection points: 2
#     Edge 81, Type (0, 0), BuildingBlock: AJUNOK_clean_linker_0, # of connection points: 2
#     Edge 82, Type (0, 0), BuildingBlock: AJUNOK_clean_linker_0, # of connection points: 2
#     Edge 83, Type (0, 0), BuildingBlock: AJUNOK_clean_linker_0, # of connection points: 2
#     Edge 84, Type (0, 0), BuildingBlock: AJUNOK_clean_linker_0, # of connection points: 2
#     Edge 85, Type (0, 0), BuildingBlock: AJUNOK_clean_linker_0, # of connection points: 2
#     Edge 86, Type (0, 0), BuildingBlock: AJUNOK_clean_linker_0, # of connection points: 2
#     Edge 87, Type (0, 0), BuildingBlock: AJUNOK_clean_linker_0, # of connection points: 2
#     Edge 88, Type (0, 0), BuildingBlock: AJUNOK_clean_linker_0, # of connection points: 2
#     Edge 89, Type (0, 0), BuildingBlock: AJUNOK_clean_linker_0, # of connection points: 2
#     Edge 90, Type (0, 0), BuildingBlock: AJUNOK_clean_linker_0, # of connection points: 2
#     Edge 91, Type (0, 0), BuildingBlock: AJUNOK_clean_linker_0, # of connection points: 2
#     Edge 92, Type (0, 0), BuildingBlock: AJUNOK_clean_linker_0, # of connection points: 2
#     Edge 93, Type (0, 0), BuildingBlock: AJUNOK_clean_linker_0, # of connection points: 2
#     Edge 94, Type (0, 0), BuildingBlock: AJUNOK_clean_linker_0, # of connection points: 2
#     Edge 95, Type (0, 0), BuildingBlock: AJUNOK_clean_linker_0, # of connection points: 2
#     Edge 96, Type (0, 0), BuildingBlock: AJUNOK_clean_linker_0, # of connection points: 2
#     Edge 97, Type (0, 0), BuildingBlock: AJUNOK_clean_linker_0, # of connection points: 2
#     Edge 98, Type (0, 0), BuildingBlock: AJUNOK_clean_linker_0, # of connection points: 2
#     Edge 99, Type (0, 0), BuildingBlock: AJUNOK_clean_linker_0, # of connection points: 2
#     Edge 100, Type (0, 0), BuildingBlock: AJUNOK_clean_linker_0, # of connection points: 2
#     Edge 101, Type (0, 0), BuildingBlock: AJUNOK_clean_linker_0, # of connection points: 2
#     Edge 102, Type (0, 0), BuildingBlock: AJUNOK_clean_linker_0, # of connection points: 2
#     Edge 103, Type (0, 0), BuildingBlock: AJUNOK_clean_linker_0, # of connection points: 2
#     Edge 104, Type (0, 0), BuildingBlock: AJUNOK_clean_linker_0, # of connection points: 2
#     Edge 105, Type (0, 0), BuildingBlock: AJUNOK_clean_linker_0, # of connection points: 2
#     Edge 106, Type (0, 0), BuildingBlock: AJUNOK_clean_linker_0, # of connection points: 2
#     Edge 107, Type (0, 0), BuildingBlock: AJUNOK_clean_linker_0, # of connection points: 2
#     Edge 108, Type (0, 0), BuildingBlock: AJUNOK_clean_linker_0, # of connection points: 2
#     Edge 109, Type (0, 0), BuildingBlock: AJUNOK_clean_linker_0, # of connection points: 2
#     Edge 110, Type (0, 0), BuildingBlock: AJUNOK_clean_linker_0, # of connection points: 2
#     Edge 111, Type (0, 0), BuildingBlock: AJUNOK_clean_linker_0, # of connection points: 2
#     Edge 112, Type (0, 0), BuildingBlock: AJUNOK_clean_linker_0, # of connection points: 2
#     Edge 113, Type (0, 0), BuildingBlock: AJUNOK_clean_linker_0, # of connection points: 2
#     Edge 114, Type (0, 0), BuildingBlock: AJUNOK_clean_linker_0, # of connection points: 2
#     Edge 115, Type (0, 0), BuildingBlock: AJUNOK_clean_linker_0, # of connection points: 2
#     Edge 116, Type (0, 0), BuildingBlock: AJUNOK_clean_linker_0, # of connection points: 2
#     Edge 117, Type (0, 0), BuildingBlock: AJUNOK_clean_linker_0, # of connection points: 2
#     Edge 118, Type (0, 0), BuildingBlock: AJUNOK_clean_linker_0, # of connection points: 2
#     Edge 119, Type (0, 0), BuildingBlock: AJUNOK_clean_linker_0, # of connection points: 2
#     Edge 120, Type (0, 0), BuildingBlock: AJUNOK_clean_linker_0, # of connection points: 2
#     Edge 121, Type (0, 0), BuildingBlock: AJUNOK_clean_linker_0, # of connection points: 2
#     Edge 122, Type (0, 0), BuildingBlock: AJUNOK_clean_linker_0, # of connection points: 2
#     Edge 123, Type (0, 0), BuildingBlock: AJUNOK_clean_linker_0, # of connection points: 2
#     Edge 124, Type (0, 0), BuildingBlock: AJUNOK_clean_linker_0, # of connection points: 2
#     Edge 125, Type (0, 0), BuildingBlock: AJUNOK_clean_linker_0, # of connection points: 2
#     Edge 126, Type (0, 0), BuildingBlock: AJUNOK_clean_linker_0, # of connection points: 2
#     Edge 127, Type (0, 0), BuildingBlock: AJUNOK_clean_linker_0, # of connection points: 2
# Relax obj value: 0.394
# Max RMSD: 0.262
# Mean RMSD: 0.262
data_MOF--net-vda--node1-OJICUG_clean_sbu_0--edge1-AJUNOK_clean_linker_0
_symmetry_space_group_name_H-M    P1
_symmetry_Int_Tables_number       1
_symmetry_cell_setting            triclinic
loop_
_symmetry_equiv_pos_as_xyz
'x, y, z'
_cell_length_a     39.216994
_cell_length_b     25.502228
_cell_length_c     46.097534
_cell_angle_alpha  90.006577
_cell_angle_beta   90.00905
_cell_angle_gamma 90.032728
loop_
_atom_site_label
_atom_site_type_symbol
_atom_site_fract_x
_atom_site_fract_y
_atom_site_fract_z
_atom_type_partial_charge
Sc0 Sc 0.37778 0.05469 0.98582 0.0
Sc1 Sc 0.4116 0.10148 0.04891 0.0
Sc2 Sc 0.351 0.17535 0.013 0.0
O3 O 0.37956 0.11087 0.01575 0.0
C4 C 0.37878 0.15627 0.94754 0.0
C5 C 0.45728 0.06007 1.00356 0.0
C6 C 0.41955 0.22274 0.03856 0.0
C7 C 0.38612 0.98497 0.03847 0.0
C8 C 0.29901 0.08912 0.99022 0.0
C9 C 0.34442 0.13308 0.0789 0.0
O10 O 0.38994 0.11043 0.95281 0.0
O11 O 0.45264 0.10006 0.01928 0.0
O12 O 0.3965 0.22512 0.01904 0.0
O13 O 0.36568 0.99756 0.01831 0.0
O14 O 0.30469 0.12922 1.00608 0.0
O15 O 0.36952 0.10201 0.077 0.0
O16 O 0.32312 0.06338 0.97825 0.0
O17 O 0.40853 0.01658 0.048 0.0
O18 O 0.33863 0.16962 0.0602 0.0
O19 O 0.43217 0.03671 0.99137 0.0
O20 O 0.3607 0.18264 0.96567 0.0
O21 O 0.421 0.18405 0.05581 0.0
Sc22 Sc 0.93549 0.07128 1.01206 0.0
Sc23 Sc 0.87501 0.14412 0.04869 0.0
Sc24 Sc 0.90793 0.19179 0.98535 0.0
O25 O 0.90666 0.1355 0.01517 0.0
C26 C 0.98701 0.15927 0.99061 0.0
C27 C 0.94254 0.11258 0.07794 0.0
C28 C 0.89857 0.2617 0.03799 0.0
C29 C 0.86703 0.02386 0.037 0.0
C30 C 0.90769 0.09028 0.94678 0.0
C31 C 0.82841 0.1842 1.00317 0.0
O32 O 0.9814 0.11809 1.0056 0.0
O33 O 0.91766 0.14411 0.07621 0.0
O34 O 0.91901 0.24944 0.01776 0.0
O35 O 0.89007 0.02177 0.01752 0.0
O36 O 0.89649 0.13606 0.95208 0.0
O37 O 0.83333 0.14528 0.01968 0.0
O38 O 0.92605 0.06421 0.96478 0.0
O39 O 0.86657 0.06112 0.05524 0.0
O40 O 0.85328 0.20767 0.9907 0.0
O41 O 0.94775 0.07587 0.05925 0.0
O42 O 0.9629 0.18481 0.97843 0.0
O43 O 0.87721 0.22911 0.0482 0.0
Sc44 Sc 0.38026 0.18834 0.29005 0.0
Sc45 Sc 0.41213 0.14483 0.22543 0.0
Sc46 Sc 0.35206 0.06999 0.26162 0.0
O47 O 0.38119 0.13394 0.25924 0.0
C48 C 0.38051 0.08623 0.32715 0.0
C49 C 0.45964 0.18384 0.27087 0.0
C50 C 0.42081 0.02382 0.23615 0.0
C51 C 0.3869 0.2609 0.23858 0.0
C52 C 0.30104 0.1562 0.28529 0.0
C53 C 0.34486 0.11249 0.19591 0.0
O54 O 0.39318 0.13112 0.32197 0.0
O55 O 0.45482 0.14613 0.25351 0.0
O56 O 0.39754 0.02079 0.25545 0.0
O57 O 0.36718 0.24657 0.25883 0.0
O58 O 0.30624 0.11718 0.26851 0.0
O59 O 0.36917 0.14491 0.19825 0.0
O60 O 0.32553 0.17959 0.29828 0.0
O61 O 0.40862 0.22987 0.22744 0.0
O62 O 0.33981 0.07541 0.2144 0.0
O63 O 0.43474 0.20624 0.28391 0.0
O64 O 0.36121 0.06186 0.30906 0.0
O65 O 0.42147 0.06195 0.21836 0.0
Sc66 Sc 0.93653 0.17506 0.26088 0.0
Sc67 Sc 0.87391 0.10141 0.22634 0.0
Sc68 Sc 0.91084 0.0539 0.28833 0.0
O69 O 0.90741 0.11069 0.2587 0.0
C70 C 0.98935 0.08817 0.28219 0.0
C71 C 0.94046 0.13466 0.19462 0.0
C72 C 0.9009 0.98519 0.23515 0.0
C73 C 0.86671 0.22321 0.23748 0.0
C74 C 0.91049 0.15569 0.32675 0.0
C75 C 0.8305 0.05634 0.27288 0.0
O76 O 0.98309 0.12889 0.267 0.0
O77 O 0.91476 0.10475 0.19679 0.0
O78 O 0.92164 0.9972 0.25523 0.0
O79 O 0.89147 0.22572 0.25543 0.0
O80 O 0.89995 0.10928 0.32197 0.0
O81 O 0.83332 0.09615 0.25661 0.0
O82 O 0.92764 0.18248 0.30819 0.0
O83 O 0.86271 0.18367 0.22112 0.0
O84 O 0.85664 0.03504 0.28448 0.0
O85 O 0.94804 0.16956 0.21373 0.0
O86 O 0.96564 0.06225 0.29455 0.0
O87 O 0.8784 0.01693 0.22602 0.0
Sc88 Sc 0.68544 0.82086 1.01242 0.0
Sc89 Sc 0.6237 0.89555 0.97796 0.0
Sc90 Sc 0.65979 0.94128 0.04065 0.0
O91 O 0.65673 0.88548 1.01051 0.0
C92 C 0.65898 0.83843 0.07827 0.0
C93 C 0.6158 0.77435 0.98842 0.0
C94 C 0.57967 0.93807 0.02468 0.0
C95 C 0.69039 0.86354 0.94662 0.0
C96 C 0.73821 0.90717 0.03417 0.0
C97 C 0.64989 0.01171 0.98821 0.0
O98 O 0.67648 0.81226 0.05969 0.0
O99 O 0.61339 0.81328 0.97141 0.0
O100 O 0.60557 0.95953 0.0366 0.0
O101 O 0.69694 0.82725 0.96523 0.0
O102 O 0.71457 0.93275 0.04684 0.0
O103 O 0.6275 0.98006 0.97877 0.0
O104 O 0.73196 0.86669 0.01878 0.0
O105 O 0.66507 0.89414 0.94891 0.0
O106 O 0.67068 -0.00079 1.00815 0.0
O107 O 0.63996 0.77136 1.00688 0.0
O108 O 0.64854 0.88494 0.07373 0.0
O109 O 0.58289 0.89874 1.00809 0.0
Sc110 Sc 0.12606 0.80479 0.03932 0.0
Sc111 Sc 0.16127 0.84981 0.97608 0.0
Sc112 Sc 0.10156 0.92648 1.01186 0.0
O113 O 0.12928 0.86083 1.00924 0.0
C114 C 0.0481 0.84157 0.0341 0.0
C115 C 0.1334 0.73401 0.98681 0.0
C116 C 0.09479 0.88573 0.94572 0.0
C117 C 0.20557 0.80412 0.02163 0.0
C118 C 0.12924 0.90678 0.07737 0.0
C119 C 0.17115 0.97153 0.98665 0.0
O120 O 0.07163 0.81561 0.04667 0.0
O121 O 0.1553 0.76542 0.97629 0.0
O122 O 0.08896 0.9216 0.96475 0.0
O123 O 0.17971 0.78378 0.03416 0.0
O124 O 0.11162 0.93382 0.0592 0.0
O125 O 0.17358 0.9317 0.97027 0.0
O126 O 0.13922 0.86025 0.07223 0.0
O127 O 0.20264 0.84387 1.00537 0.0
O128 O 0.14745 0.97508 1.00555 0.0
O129 O 0.11334 0.74757 1.00709 0.0
O130 O 0.05459 0.88176 0.01855 0.0
O131 O 0.11959 0.8541 0.94757 0.0
Sc132 Sc 0.68669 0.92678 0.76322 0.0
Sc133 Sc 0.62558 0.85302 0.79853 0.0
Sc134 Sc 0.6589 0.80754 0.73483 0.0
O135 O 0.6577 0.86253 0.76543 0.0
C136 C 0.65912 0.91076 0.69765 0.0
C137 C 0.61787 0.97356 0.78782 0.0
C138 C 0.57938 0.81446 0.75233 0.0
C139 C 0.69225 0.88433 0.82923 0.0
C140 C 0.73811 0.83941 0.74086 0.0
C141 C 0.64908 0.73558 0.78659 0.0
O142 O 0.67772 0.93573 0.71596 0.0
O143 O 0.61704 0.93581 0.80574 0.0
O144 O 0.60424 0.79128 0.73973 0.0
O145 O 0.69822 0.92083 0.81056 0.0
O146 O 0.71391 0.81472 0.72824 0.0
O147 O 0.62787 0.76801 0.7972 0.0
O148 O 0.73258 0.87989 0.75649 0.0
O149 O 0.66768 0.85235 0.8267 0.0
O150 O 0.66956 0.74834 0.76647 0.0
O151 O 0.64131 0.97621 0.76871 0.0
O152 O 0.64767 0.86489 0.70234 0.0
O153 O 0.58433 0.85303 0.76906 0.0
Sc154 Sc 0.12888 0.9408 0.73374 0.0
Sc155 Sc 0.16219 0.89564 0.79749 0.0
Sc156 Sc 0.10081 0.82198 0.76247 0.0
O157 O 0.12993 0.88605 0.76448 0.0
C158 C 0.04955 0.9089 0.73928 0.0
C159 C 0.13896 0.013 0.78532 0.0
C160 C 0.09535 0.8657 0.82835 0.0
C161 C 0.20835 0.9335 0.75124 0.0
C162 C 0.12832 0.83752 0.69671 0.0
C163 C 0.16953 0.77484 0.78751 0.0
O164 O 0.07391 0.93363 0.72693 0.0
O165 O 0.16023 0.98059 0.79584 0.0
O166 O 0.08914 0.82902 0.80981 0.0
O167 O 0.18354 0.95691 0.73868 0.0
O168 O 0.10984 0.81259 0.71516 0.0
O169 O 0.17039 0.81297 0.80517 0.0
O170 O 0.14 0.88326 0.70139 0.0
O171 O 0.20323 0.89477 0.76781 0.0
O172 O 0.14615 0.77206 0.76832 0.0
O173 O 0.11831 0.00019 0.76532 0.0
O174 O 0.05488 0.869 0.75541 0.0
O175 O 0.12021 0.89714 0.82574 0.0
Sc176 Sc 0.37964 0.55524 0.48592 0.0
Sc177 Sc 0.41349 0.60215 0.54906 0.0
Sc178 Sc 0.35177 0.67491 0.51358 0.0
O179 O 0.38104 0.61111 0.5161 0.0
C180 C 0.38017 0.65764 0.44822 0.0
C181 C 0.45908 0.56091 0.50345 0.0
C182 C 0.42073 0.72346 0.53845 0.0
C183 C 0.38792 0.48563 0.53873 0.0
C184 C 0.30052 0.5877 0.49036 0.0
C185 C 0.34612 0.63255 0.57953 0.0
O186 O 0.39164 0.61185 0.45325 0.0
O187 O 0.45432 0.60083 0.51919 0.0
O188 O 0.39681 0.72574 0.51968 0.0
O189 O 0.36776 0.49784 0.51829 0.0
O190 O 0.30581 0.62766 0.50646 0.0
O191 O 0.37181 0.60261 0.57762 0.0
O192 O 0.32496 0.56302 0.47821 0.0
O193 O 0.41032 0.51725 0.54828 0.0
O194 O 0.33942 0.66847 0.56071 0.0
O195 O 0.43404 0.53732 0.49136 0.0
O196 O 0.36156 0.6831 0.46635 0.0
O197 O 0.42302 0.68477 0.55565 0.0
Sc198 Sc 0.93664 0.57489 0.51399 0.0
Sc199 Sc 0.87454 0.64653 0.54971 0.0
Sc200 Sc 0.90872 0.69513 0.48705 0.0
O201 O 0.90722 0.63853 0.5168 0.0
C202 C 0.98797 0.66275 0.49141 0.0
C203 C 0.94177 0.6156 0.58033 0.0
C204 C 0.89948 0.76355 0.54024 0.0
C205 C 0.86745 0.52562 0.53817 0.0
C206 C 0.90906 0.59368 0.44858 0.0
C207 C 0.82908 0.68822 0.50389 0.0
O208 O 0.98275 0.62228 0.50716 0.0
O209 O 0.91616 0.64571 0.57843 0.0
O210 O 0.91994 0.75202 0.5199 0.0
O211 O 0.89147 0.52386 0.51947 0.0
O212 O 0.89748 0.63934 0.45373 0.0
O213 O 0.83374 0.6484 0.51976 0.0
O214 O 0.92732 0.56778 0.46675 0.0
O215 O 0.86523 0.56371 0.55577 0.0
O216 O 0.85419 0.71211 0.49208 0.0
O217 O 0.94872 0.58032 0.5612 0.0
O218 O 0.96345 0.68804 0.47976 0.0
O219 O 0.87728 0.73136 0.54949 0.0
Sc220 Sc 0.3769 0.69347 0.78994 0.0
Sc221 Sc 0.41242 0.64648 0.72725 0.0
Sc222 Sc 0.35145 0.57177 0.76299 0.0
O223 O 0.37985 0.63683 0.76017 0.0
C224 C 0.37873 0.59193 0.82848 0.0
C225 C 0.45656 0.6929 0.77266 0.0
C226 C 0.4213 0.52505 0.73897 0.0
C227 C 0.38549 0.76312 0.73706 0.0
C228 C 0.29851 0.65803 0.78462 0.0
C229 C 0.34601 0.61089 0.69645 0.0
O230 O 0.38924 0.63817 0.82322 0.0
O231 O 0.45352 0.65256 0.75686 0.0
O232 O 0.39699 0.52215 0.75734 0.0
O233 O 0.36513 0.75048 0.75733 0.0
O234 O 0.30473 0.6174 0.76932 0.0
O235 O 0.37109 0.64204 0.69834 0.0
O236 O 0.32229 0.68392 0.79695 0.0
O237 O 0.40708 0.73097 0.72679 0.0
O238 O 0.33932 0.57597 0.71581 0.0
O239 O 0.43073 0.71362 0.785 0.0
O240 O 0.36099 0.56503 0.81035 0.0
O241 O 0.42419 0.56426 0.72218 0.0
Sc242 Sc 0.93626 0.67745 0.763 0.0
Sc243 Sc 0.87676 0.60298 0.72616 0.0
Sc244 Sc 0.90956 0.55643 0.78975 0.0
O245 O 0.90806 0.61252 0.75983 0.0
C246 C 0.98836 0.59075 0.78496 0.0
C247 C 0.94409 0.63594 0.69712 0.0
C248 C 0.9012 0.48591 0.73733 0.0
C249 C 0.86746 0.72305 0.73759 0.0
C250 C 0.90825 0.65794 0.82823 0.0
C251 C 0.83012 0.56251 0.77161 0.0
O252 O 0.98257 0.63168 0.7698 0.0
O253 O 0.91957 0.60372 0.69886 0.0
O254 O 0.92144 0.49878 0.75759 0.0
O255 O 0.89038 0.72586 0.75717 0.0
O256 O 0.8974 0.61202 0.82278 0.0
O257 O 0.83489 0.60122 0.75493 0.0
O258 O 0.92643 0.68454 0.8103 0.0
O259 O 0.86762 0.68573 0.71937 0.0
O260 O 0.85507 0.53938 0.78417 0.0
O261 O 0.94887 0.67283 0.71581 0.0
O262 O 0.96435 0.5648 0.79702 0.0
O263 O 0.87971 0.51806 0.7269 0.0
Sc264 Sc 0.68652 0.32031 0.51234 0.0
Sc265 Sc 0.62671 0.39952 0.47882 0.0
Sc266 Sc 0.66213 0.43859 0.54295 0.0
O267 O 0.6587 0.3855 0.51153 0.0
C268 C 0.65962 0.33509 0.57849 0.0
C269 C 0.61583 0.27802 0.488 0.0
C270 C 0.58241 0.4411 0.52525 0.0
C271 C 0.69212 0.36494 0.44687 0.0
C272 C 0.74006 0.40376 0.53569 0.0
C273 C 0.65553 0.51342 0.4932 0.0
O274 O 0.67812 0.3106 0.55984 0.0
O275 O 0.61454 0.31759 0.47123 0.0
O276 O 0.60829 0.46139 0.53791 0.0
O277 O 0.69753 0.32741 0.46501 0.0
O278 O 0.71662 0.42612 0.55041 0.0
O279 O 0.63282 0.48434 0.48176 0.0
O280 O 0.73345 0.36566 0.51859 0.0
O281 O 0.66826 0.3979 0.45007 0.0
O282 O 0.67637 0.49594 0.51179 0.0
O283 O 0.64001 0.273 0.5064 0.0
O284 O 0.64818 0.38108 0.57428 0.0
O285 O 0.58569 0.40208 0.50856 0.0
Sc286 Sc 0.12496 0.3098 0.5426 0.0
Sc287 Sc 0.15952 0.34806 0.47815 0.0
Sc288 Sc 0.10161 0.42911 0.51273 0.0
O289 O 0.12855 0.36307 0.51134 0.0
C290 C 0.04761 0.34782 0.5369 0.0
C291 C 0.12912 0.23506 0.4927 0.0
C292 C 0.09414 0.38546 0.44733 0.0
C293 C 0.20397 0.30395 0.52348 0.0
C294 C 0.12971 0.41254 0.57845 0.0
C295 C 0.17189 0.46986 0.48717 0.0
O296 O 0.07108 0.3249 0.5513 0.0
O297 O 0.15201 0.26333 0.48088 0.0
O298 O 0.08985 0.42325 0.4655 0.0
O299 O 0.1781 0.28438 0.53646 0.0
O300 O 0.11095 0.43768 0.56022 0.0
O301 O 0.17287 0.42968 0.4708 0.0
O302 O 0.14082 0.36651 0.57373 0.0
O303 O 0.20101 0.3436 0.50723 0.0
O304 O 0.14842 0.47529 0.50618 0.0
O305 O 0.10883 0.25359 0.51143 0.0
O306 O 0.05432 0.38503 0.51928 0.0
O307 O 0.11747 0.35154 0.4501 0.0
Sc308 Sc 0.68702 0.42755 0.2635 0.0
Sc309 Sc 0.62809 0.34703 0.29764 0.0
Sc310 Sc 0.66339 0.30844 0.23345 0.0
O311 O 0.65954 0.36187 0.26468 0.0
C312 C 0.65875 0.41136 0.19772 0.0
C313 C 0.61665 0.46936 0.28841 0.0
C314 C 0.58416 0.30206 0.25189 0.0
C315 C 0.69369 0.38398 0.32899 0.0
C316 C 0.74067 0.3457 0.2396 0.0
C317 C 0.65907 0.23415 0.28357 0.0
O318 O 0.67748 0.43642 0.21603 0.0
O319 O 0.61425 0.42869 0.30434 0.0
O320 O 0.61024 0.28266 0.23919 0.0
O321 O 0.69894 0.42118 0.31064 0.0
O322 O 0.71731 0.32329 0.22484 0.0
O323 O 0.63601 0.26231 0.29526 0.0
O324 O 0.73393 0.38316 0.25698 0.0
O325 O 0.66964 0.3512 0.32631 0.0
O326 O 0.67937 0.25266 0.26485 0.0
O327 O 0.64094 0.47462 0.27019 0.0
O328 O 0.6478 0.36512 0.20221 0.0
O329 O 0.58685 0.34163 0.26826 0.0
Sc330 Sc 0.12985 0.44283 0.23582 0.0
Sc331 Sc 0.16558 0.39747 0.2985 0.0
Sc332 Sc 0.10413 0.32246 0.26412 0.0
O333 O 0.13269 0.38715 0.26596 0.0
C334 C 0.05113 0.40826 0.24193 0.0
C335 C 0.13954 0.51349 0.28808 0.0
C336 C 0.09912 0.36596 0.32989 0.0
C337 C 0.21006 0.4371 0.25133 0.0
C338 C 0.13017 0.34037 0.19808 0.0
C339 C 0.17348 0.27601 0.28895 0.0
O340 O 0.07491 0.43424 0.2296 0.0
O341 O 0.16239 0.48232 0.29723 0.0
O342 O 0.09276 0.32933 0.31138 0.0
O343 O 0.18449 0.46046 0.23988 0.0
O344 O 0.11287 0.31396 0.21674 0.0
O345 O 0.17533 0.31518 0.30582 0.0
O346 O 0.14092 0.38665 0.20277 0.0
O347 O 0.20619 0.39855 0.26831 0.0
O348 O 0.14992 0.27303 0.26987 0.0
O349 O 0.11876 0.50047 0.26826 0.0
O350 O 0.05734 0.36809 0.25761 0.0
O351 O 0.1241 0.3972 0.32732 0.0
Sc352 Sc 0.87834 0.05417 0.48537 0.0
Sc353 Sc 0.91407 0.10165 0.54793 0.0
Sc354 Sc 0.85281 0.17619 0.51199 0.0
O355 O 0.88149 0.11131 0.51493 0.0
C356 C 0.88072 0.15554 0.44667 0.0
C357 C 0.95809 0.05443 0.50244 0.0
C358 C 0.92216 0.22423 0.53713 0.0
C359 C 0.88609 0.98548 0.53883 0.0
C360 C 0.79999 0.08948 0.48987 0.0
C361 C 0.84689 0.13654 0.57828 0.0
O362 O 0.89071 0.10905 0.45196 0.0
O363 O 0.95531 0.09444 0.51852 0.0
O364 O 0.89777 0.22717 0.51879 0.0
O365 O 0.86619 0.99793 0.51822 0.0
O366 O 0.80614 0.13041 0.50495 0.0
O367 O 0.87282 0.10706 0.57684 0.0
O368 O 0.82387 0.06329 0.47799 0.0
O369 O 0.90803 0.0173 0.54891 0.0
O370 O 0.83965 0.17102 0.55886 0.0
O371 O 0.93211 0.03378 0.49028 0.0
O372 O 0.86335 0.18307 0.46479 0.0
O373 O 0.92659 0.18357 0.55253 0.0
Sc374 Sc 0.435 0.07228 0.5131 0.0
Sc375 Sc 0.37443 0.14634 0.5492 0.0
Sc376 Sc 0.40747 0.19212 0.48538 0.0
O377 O 0.40601 0.13652 0.51567 0.0
C378 C 0.48666 0.16011 0.49075 0.0
C379 C 0.44202 0.11486 0.57878 0.0
C380 C 0.39905 0.26319 0.53781 0.0
C381 C 0.36663 0.0248 0.53898 0.0
C382 C 0.40705 0.08962 0.44761 0.0
C383 C 0.32781 0.1857 0.50317 0.0
O384 O 0.48105 0.11924 0.50606 0.0
O385 O 0.41701 0.14609 0.57685 0.0
O386 O 0.41891 0.25037 0.5173 0.0
O387 O 0.3897 0.02222 0.51947 0.0
O388 O 0.39593 0.13559 0.45255 0.0
O389 O 0.3324 0.14782 0.52047 0.0
O390 O 0.42529 0.06389 0.46587 0.0
O391 O 0.36514 0.0637 0.55611 0.0
O392 O 0.35284 0.20858 0.49059 0.0
O393 O 0.44756 0.07813 0.56018 0.0
O394 O 0.46245 0.18507 0.47836 0.0
O395 O 0.37747 0.23125 0.54832 0.0
Sc396 Sc 0.8789 0.1923 0.78866 0.0
Sc397 Sc 0.91253 0.14671 0.72526 0.0
Sc398 Sc 0.8522 0.07206 0.76089 0.0
O399 O 0.88063 0.13674 0.75844 0.0
C400 C 0.87945 0.09028 0.82655 0.0
C401 C 0.95848 0.18667 0.77099 0.0
C402 C 0.92092 0.02587 0.73537 0.0
C403 C 0.88757 0.26312 0.73645 0.0
C404 C 0.80005 0.15787 0.7838 0.0
C405 C 0.84576 0.11467 0.69501 0.0
O406 O 0.89084 0.13606 0.82146 0.0
O407 O 0.95381 0.14744 0.75468 0.0
O408 O 0.89805 0.02308 0.75503 0.0
O409 O 0.86708 0.25019 0.7565 0.0
O410 O 0.80576 0.11797 0.76777 0.0
O411 O 0.87024 0.14688 0.69735 0.0
O412 O 0.82415 0.18352 0.79592 0.0
O413 O 0.90985 0.23158 0.72669 0.0
O414 O 0.84029 0.07782 0.7136 0.0
O415 O 0.9334 0.20984 0.78333 0.0
O416 O 0.86137 0.06429 0.80825 0.0
O417 O 0.92148 0.06417 0.71783 0.0
Sc418 Sc 0.43612 0.17549 0.76216 0.0
Sc419 Sc 0.37438 0.10172 0.72682 0.0
Sc420 Sc 0.41047 0.05394 0.78901 0.0
O421 O 0.4074 0.11086 0.75946 0.0
C422 C 0.48879 0.08903 0.7837 0.0
C423 C 0.44093 0.13587 0.69568 0.0
C424 C 0.40138 0.98537 0.73583 0.0
C425 C 0.36652 0.22312 0.73846 0.0
C426 C 0.40888 0.15536 0.82762 0.0
C427 C 0.3306 0.05588 0.77252 0.0
O428 O 0.48261 0.1296 0.76838 0.0
O429 O 0.41552 0.10534 0.69764 0.0
O430 O 0.42209 0.99754 0.75592 0.0
O431 O 0.39092 0.22558 0.75673 0.0
O432 O 0.39846 0.10901 0.82249 0.0
O433 O 0.33366 0.09647 0.7569 0.0
O434 O 0.42663 0.18222 0.80947 0.0
O435 O 0.36323 0.18407 0.72162 0.0
O436 O 0.35654 0.03439 0.78428 0.0
O437 O 0.44802 0.17076 0.71497 0.0
O438 O 0.46505 0.06312 0.79601 0.0
O439 O 0.37899 0.01717 0.72653 0.0
Sc440 Sc 0.18745 0.8196 0.51177 0.0
Sc441 Sc 0.12877 0.89707 0.4761 0.0
Sc442 Sc 0.16074 0.93785 0.54111 0.0
O443 O 0.1594 0.88445 0.50986 0.0
C444 C 0.1584 0.8346 0.57721 0.0
C445 C 0.11839 0.77647 0.48554 0.0
C446 C 0.08166 0.93474 0.52169 0.0
C447 C 0.19565 0.86479 0.4465 0.0
C448 C 0.23944 0.90404 0.53621 0.0
C449 C 0.1541 0.01242 0.49108 0.0
O450 O 0.17765 0.81009 0.55913 0.0
O451 O 0.11924 0.81457 0.46779 0.0
O452 O 0.10654 0.9569 0.53488 0.0
O453 O 0.19985 0.82658 0.46449 0.0
O454 O 0.21522 0.92753 0.54943 0.0
O455 O 0.13234 0.98212 0.47934 0.0
O456 O 0.23386 0.86541 0.5192 0.0
O457 O 0.17184 0.89797 0.44913 0.0
O458 O 0.17464 0.99615 0.51024 0.0
O459 O 0.14113 0.77219 0.50523 0.0
O460 O 0.1469 0.88033 0.57246 0.0
O461 O 0.0865 0.89695 0.50442 0.0
Sc462 Sc 0.62561 0.81048 0.54265 0.0
Sc463 Sc 0.66045 0.84961 0.47837 0.0
Sc464 Sc 0.60093 0.92891 0.51243 0.0
O465 O 0.62884 0.86376 0.51132 0.0
C466 C 0.54776 0.84574 0.53638 0.0
C467 C 0.63116 0.73598 0.49276 0.0
C468 C 0.59441 0.88393 0.44705 0.0
C469 C 0.7051 0.80718 0.52432 0.0
C470 C 0.629 0.91374 0.57833 0.0
C471 C 0.6712 0.97156 0.48741 0.0
O472 O 0.57138 0.8234 0.55089 0.0
O473 O 0.65395 0.76479 0.48123 0.0
O474 O 0.58905 0.92152 0.46518 0.0
O475 O 0.67924 0.78704 0.53707 0.0
O476 O 0.61026 0.93851 0.55991 0.0
O477 O 0.67288 0.93152 0.47097 0.0
O478 O 0.64029 0.86774 0.57385 0.0
O479 O 0.70184 0.84635 0.50774 0.0
O480 O 0.6471 0.97655 0.50586 0.0
O481 O 0.61056 0.75373 0.51146 0.0
O482 O 0.55418 0.88369 0.51919 0.0
O483 O 0.61871 0.85167 0.44987 0.0
Sc484 Sc 0.18831 0.92659 0.26262 0.0
Sc485 Sc 0.1272 0.85336 0.2982 0.0
Sc486 Sc 0.16096 0.80667 0.23495 0.0
O487 O 0.15948 0.86235 0.26515 0.0
C488 C 0.16103 0.90871 0.19696 0.0
C489 C 0.11911 0.9735 0.28685 0.0
C490 C 0.08141 0.81389 0.25208 0.0
C491 C 0.19394 0.88459 0.32886 0.0
C492 C 0.24003 0.83917 0.24065 0.0
C493 C 0.15137 0.73613 0.28724 0.0
O494 O 0.17927 0.93448 0.21523 0.0
O495 O 0.11848 0.93619 0.30505 0.0
O496 O 0.10635 0.79023 0.23988 0.0
O497 O 0.20003 0.9209 0.31006 0.0
O498 O 0.21588 0.8141 0.22822 0.0
O499 O 0.12966 0.76835 0.2973 0.0
O500 O 0.23442 0.87985 0.2561 0.0
O501 O 0.16909 0.85309 0.32654 0.0
O502 O 0.17193 0.74872 0.26716 0.0
O503 O 0.14267 0.97598 0.26781 0.0
O504 O 0.14969 0.86289 0.20196 0.0
O505 O 0.08627 0.85295 0.26847 0.0
Sc506 Sc 0.62786 0.9378 0.23458 0.0
Sc507 Sc 0.66077 0.89565 0.29896 0.0
Sc508 Sc 0.60102 0.81921 0.26352 0.0
O509 O 0.62949 0.88374 0.26552 0.0
C510 C 0.54914 0.90452 0.23983 0.0
C511 C 0.63496 0.01126 0.28503 0.0
C512 C 0.59423 0.86293 0.32931 0.0
C513 C 0.70716 0.93518 0.25345 0.0
C514 C 0.62942 0.83524 0.19791 0.0
C515 C 0.67034 0.77465 0.28883 0.0
O516 O 0.57333 0.92777 0.22643 0.0
O517 O 0.65693 0.98084 0.29638 0.0
O518 O 0.58903 0.82566 0.3109 0.0
O519 O 0.68211 0.95739 0.24056 0.0
O520 O 0.61038 0.81046 0.21607 0.0
O521 O 0.67072 0.81299 0.30649 0.0
O522 O 0.64131 0.88072 0.20287 0.0
O523 O 0.7025 0.89641 0.27006 0.0
O524 O 0.64692 0.77087 0.26969 0.0
O525 O 0.61418 0.99521 0.26598 0.0
O526 O 0.5548 0.86545 0.2565 0.0
O527 O 0.61831 0.89568 0.32663 0.0
Sc528 Sc 0.87559 0.55389 0.98537 0.0
Sc529 Sc 0.91307 0.59977 0.04741 0.0
Sc530 Sc 0.85076 0.67485 0.01367 0.0
O531 O 0.87934 0.60999 0.0154 0.0
C532 C 0.87713 0.65657 0.94777 0.0
C533 C 0.95566 0.55452 1.00084 0.0
C534 C 0.92107 0.72166 0.03702 0.0
C535 C 0.88487 0.48408 0.03815 0.0
C536 C 0.79743 0.59 0.99128 0.0
C537 C 0.84692 0.63272 0.07966 0.0
O538 O 0.88735 0.60991 0.95229 0.0
O539 O 0.95292 0.59504 0.01651 0.0
O540 O 0.89612 0.7249 0.01931 0.0
O541 O 0.86414 0.49678 0.01816 0.0
O542 O 0.80387 0.62964 1.00726 0.0
O543 O 0.87273 0.60313 0.07733 0.0
O544 O 0.82101 0.56396 0.97886 0.0
O545 O 0.90774 0.51529 0.04729 0.0
O546 O 0.83931 0.66813 0.06084 0.0
O547 O 0.92947 0.53324 0.98934 0.0
O548 O 0.85986 0.6831 0.96638 0.0
O549 O 0.92499 0.6817 0.05306 0.0
Sc550 Sc 0.43552 0.57048 0.01413 0.0
Sc551 Sc 0.37522 0.64508 0.04982 0.0
Sc552 Sc 0.40892 0.69061 0.98626 0.0
O553 O 0.40712 0.63521 0.01658 0.0
C554 C 0.48772 0.65683 0.99212 0.0
C555 C 0.44195 0.61279 0.08009 0.0
C556 C 0.39961 0.76214 0.03819 0.0
C557 C 0.36632 0.52489 0.03872 0.0
C558 C 0.4086 0.58844 0.94842 0.0
C559 C 0.32929 0.68434 1.00351 0.0
O560 O 0.48181 0.61636 1.00762 0.0
O561 O 0.41752 0.64502 0.07778 0.0
O562 O 0.42013 0.74902 0.01819 0.0
O563 O 0.38965 0.52198 0.01951 0.0
O564 O 0.39742 0.63432 0.95337 0.0
O565 O 0.33385 0.64604 0.02051 0.0
O566 O 0.4266 0.56252 0.96676 0.0
O567 O 0.36606 0.56235 0.05685 0.0
O568 O 0.35436 0.7074 0.99111 0.0
O569 O 0.4473 0.57597 0.06147 0.0
O570 O 0.46383 0.68237 0.97965 0.0
O571 O 0.37807 0.73005 0.04865 0.0
Sc572 Sc 0.87845 0.69467 0.28919 0.0
Sc573 Sc 0.91366 0.64671 0.22665 0.0
Sc574 Sc 0.85312 0.5723 0.26312 0.0
O575 O 0.88134 0.63743 0.25979 0.0
C576 C 0.88061 0.59401 0.32834 0.0
C577 C 0.95804 0.69359 0.27178 0.0
C578 C 0.92283 0.52534 0.23852 0.0
C579 C 0.88653 0.76321 0.23585 0.0
C580 C 0.80006 0.65888 0.28475 0.0
C581 C 0.84703 0.61051 0.19651 0.0
O582 O 0.89098 0.6402 0.32276 0.0
O583 O 0.95496 0.65322 0.25599 0.0
O584 O 0.89893 0.52268 0.25734 0.0
O585 O 0.86631 0.75081 0.25625 0.0
O586 O 0.80619 0.61788 0.26966 0.0
O587 O 0.87208 0.64178 0.19808 0.0
O588 O 0.82398 0.6852 0.29657 0.0
O589 O 0.90831 0.73114 0.22582 0.0
O590 O 0.84059 0.57577 0.21601 0.0
O591 O 0.93223 0.71462 0.28397 0.0
O592 O 0.86298 0.56652 0.3104 0.0
O593 O 0.92551 0.56456 0.22174 0.0
Sc594 Sc 0.43789 0.67635 0.26303 0.0
Sc595 Sc 0.37823 0.59792 0.22846 0.0
Sc596 Sc 0.4122 0.5581 0.29299 0.0
O597 O 0.40971 0.61139 0.26158 0.0
C598 C 0.49018 0.59257 0.28726 0.0
C599 C 0.44447 0.63259 0.19751 0.0
C600 C 0.40759 0.48391 0.24223 0.0
C601 C 0.36796 0.71985 0.238 0.0
C602 C 0.40913 0.66139 0.32858 0.0
C603 C 0.33335 0.55463 0.27377 0.0
O604 O 0.48417 0.63045 0.26992 0.0
O605 O 0.42 0.60055 0.20006 0.0
O606 O 0.42711 0.50066 0.26211 0.0
O607 O 0.39211 0.7245 0.25642 0.0
O608 O 0.39729 0.61573 0.32396 0.0
O609 O 0.33674 0.59432 0.25764 0.0
O610 O 0.42849 0.68555 0.31041 0.0
O611 O 0.36589 0.67987 0.22157 0.0
O612 O 0.3589 0.53446 0.28681 0.0
O613 O 0.45001 0.66971 0.21587 0.0
O614 O 0.46631 0.57082 0.30174 0.0
O615 O 0.38504 0.51311 0.2306 0.0
Sc616 Sc 0.18522 0.32156 1.01242 0.0
Sc617 Sc 0.12434 0.39444 0.97647 0.0
Sc618 Sc 0.15777 0.4417 0.03965 0.0
O619 O 0.15638 0.3857 1.0097 0.0
C620 C 0.15801 0.33986 0.07794 0.0
C621 C 0.11658 0.27458 0.98754 0.0
C622 C 0.07811 0.43329 0.02242 0.0
C623 C 0.19144 0.36366 0.94646 0.0
C624 C 0.23686 0.40933 0.03423 0.0
C625 C 0.14787 0.51152 0.98711 0.0
O626 O 0.17615 0.31392 0.05972 0.0
O627 O 0.11661 0.31162 0.9692 0.0
O628 O 0.10305 0.45712 0.03462 0.0
O629 O 0.19701 0.32697 0.96511 0.0
O630 O 0.21271 0.43482 0.04637 0.0
O631 O 0.12585 0.47928 0.97765 0.0
O632 O 0.23128 0.36833 0.01902 0.0
O633 O 0.16677 0.39553 0.94868 0.0
O634 O 0.1686 0.49954 1.00717 0.0
O635 O 0.13959 0.27223 1.00705 0.0
O636 O 0.14673 0.38568 0.07286 0.0
O637 O 0.08301 0.39436 1.0059 0.0
Sc638 Sc 0.62596 0.30521 0.04083 0.0
Sc639 Sc 0.66144 0.35042 0.97777 0.0
Sc640 Sc 0.60037 0.42592 1.01272 0.0
O641 O 0.62881 0.36092 1.01053 0.0
C642 C 0.54757 0.34061 0.0355 0.0
C643 C 0.63447 0.2341 0.98857 0.0
C644 C 0.59525 0.38505 0.94645 0.0
C645 C 0.70555 0.30548 0.02349 0.0
C646 C 0.62778 0.40785 0.07837 0.0
C647 C 0.66985 0.47248 0.98806 0.0
O648 O 0.5714 0.31513 0.04799 0.0
O649 O 0.65614 0.26594 0.97808 0.0
O650 O 0.58845 0.42041 0.96553 0.0
O651 O 0.67977 0.28484 0.03594 0.0
O652 O 0.60984 0.434 0.06004 0.0
O653 O 0.67308 0.43246 0.97194 0.0
O654 O 0.63845 0.36157 0.0735 0.0
O655 O 0.70241 0.34559 1.00754 0.0
O656 O 0.64581 0.47567 1.00666 0.0
O657 O 0.6141 0.24728 1.00872 0.0
O658 O 0.55368 0.38023 0.01939 0.0
O659 O 0.62023 0.35383 0.94873 0.0
Sc660 Sc 0.18632 0.42772 0.76376 0.0
Sc661 Sc 0.12525 0.35124 0.79795 0.0
Sc662 Sc 0.1615 0.3072 0.73502 0.0
O663 O 0.15808 0.36252 0.76542 0.0
C664 C 0.15982 0.41036 0.69788 0.0
C665 C 0.11632 0.47273 0.78791 0.0
C666 C 0.08149 0.308 0.75124 0.0
C667 C 0.19162 0.38472 0.82941 0.0
C668 C 0.23959 0.34284 0.74153 0.0
C669 C 0.1528 0.2358 0.78719 0.0
O670 O 0.17732 0.43651 0.71649 0.0
O671 O 0.11389 0.43324 0.80454 0.0
O672 O 0.1075 0.28715 0.7392 0.0
O673 O 0.19789 0.42127 0.8109 0.0
O674 O 0.21612 0.31739 0.72854 0.0
O675 O 0.13014 0.26673 0.79691 0.0
O676 O 0.2331 0.38267 0.75735 0.0
O677 O 0.16656 0.3536 0.82702 0.0
O678 O 0.1733 0.24922 0.76721 0.0
O679 O 0.14057 0.47646 0.76956 0.0
O680 O 0.14947 0.36375 0.70232 0.0
O681 O 0.08446 0.3473 0.76786 0.0
Sc682 Sc 0.62698 0.44215 0.73555 0.0
Sc683 Sc 0.66334 0.39716 0.79821 0.0
Sc684 Sc 0.60241 0.32088 0.76355 0.0
O685 O 0.6305 0.38623 0.76563 0.0
C686 C 0.5489 0.40596 0.74145 0.0
C687 C 0.63545 0.51272 0.78804 0.0
C688 C 0.59685 0.36329 0.82939 0.0
C689 C 0.7069 0.44174 0.75204 0.0
C690 C 0.62936 0.33948 0.69784 0.0
C691 C 0.67222 0.27529 0.7882 0.0
O692 O 0.57241 0.43188 0.7288 0.0
O693 O 0.65816 0.48172 0.79762 0.0
O694 O 0.59036 0.32716 0.81065 0.0
O695 O 0.68088 0.46268 0.74006 0.0
O696 O 0.61198 0.31266 0.71627 0.0
O697 O 0.67511 0.31523 0.80443 0.0
O698 O 0.63933 0.38619 0.70262 0.0
O699 O 0.70396 0.40172 0.7681 0.0
O700 O 0.64816 0.27181 0.76963 0.0
O701 O 0.61492 0.49945 0.76804 0.0
O702 O 0.55544 0.36574 0.75695 0.0
O703 O 0.62213 0.39402 0.82727 0.0
C704 C 0.42529 0.85101 0.04223 0.0
C705 C 0.39664 0.81835 0.04525 0.0
C706 C 0.42194 0.90557 0.04264 0.0
C707 C 0.38971 0.92911 0.0453 0.0
H708 H 0.45026 0.83433 0.03819 0.0
H709 H 0.44439 0.92933 0.03881 0.0
S710 S 0.30757 0.86187 0.05843 0.0
N711 N 0.33557 0.81387 0.05502 0.0
N712 N 0.32937 0.91682 0.05444 0.0
C713 C 0.36125 0.8973 0.05036 0.0
C714 C 0.3647 0.84169 0.05075 0.0
C715 C 0.92058 0.40486 0.04391 0.0
C716 C 0.8882 0.4283 0.04535 0.0
C717 C 0.92404 0.35033 0.04352 0.0
C718 C 0.89532 0.31762 0.0455 0.0
H719 H 0.94319 0.42867 0.04096 0.0
H720 H 0.94918 0.33371 0.04025 0.0
S721 S 0.80582 0.36076 0.0567 0.0
N722 N 0.82761 0.4158 0.05311 0.0
N723 N 0.83398 0.31284 0.05389 0.0
C724 C 0.86317 0.34081 0.05024 0.0
C725 C 0.85962 0.39639 0.04974 0.0
C726 C 0.41634 0.39408 0.26094 0.0
C727 C 0.40565 0.42666 0.23805 0.0
C728 C 0.41 0.34048 0.26046 0.0
C729 C 0.39376 0.31699 0.23676 0.0
H730 H 0.42816 0.41023 0.28022 0.0
H731 H 0.41713 0.31729 0.27918 0.0
S732 S 0.36265 0.38309 0.17048 0.0
N733 N 0.37881 0.43093 0.19043 0.0
N734 N 0.36826 0.32854 0.18926 0.0
C735 C 0.38409 0.34805 0.21313 0.0
C736 C 0.38978 0.40335 0.21384 0.0
C737 C 0.86098 0.85195 0.23124 0.0
C738 C 0.88946 0.81907 0.22811 0.0
C739 C 0.86461 0.90643 0.23069 0.0
C740 C 0.89696 0.9296 0.22796 0.0
H741 H 0.836 0.83551 0.23555 0.0
H742 H 0.84231 0.93044 0.23455 0.0
S743 S 0.97836 0.86172 0.21304 0.0
N744 N 0.95025 0.81399 0.21706 0.0
N745 N 0.95698 0.91685 0.21768 0.0
C746 C 0.92515 0.8976 0.22241 0.0
C747 C 0.92139 0.84207 0.22202 0.0
C748 C 0.61331 0.09027 0.98527 0.0
C749 C 0.64561 0.06746 0.98161 0.0
C750 C 0.60941 0.1447 0.98567 0.0
C751 C 0.63755 0.17793 0.98145 0.0
H752 H 0.59128 0.06601 0.98974 0.0
H753 H 0.58451 0.16082 0.99057 0.0
S754 S 0.72597 0.13607 0.9638 0.0
N755 N 0.70509 0.08076 0.96944 0.0
N756 N 0.69784 0.18353 0.96849 0.0
C757 C 0.66936 0.1552 0.97458 0.0
C758 C 0.67341 0.09972 0.97514 0.0
C759 C 0.10778 0.64484 0.98469 0.0
C760 C 0.13595 0.67774 0.97974 0.0
C761 C 0.11143 0.59034 0.98456 0.0
C762 C 0.1435 0.56715 0.98028 0.0
H763 H 0.0831 0.66131 0.99004 0.0
H764 H 0.08949 0.56639 0.98979 0.0
S765 S 0.22381 0.63469 0.961 0.0
N766 N 0.19597 0.68249 0.96585 0.0
N767 N 0.20276 0.57969 0.96711 0.0
C768 C 0.17127 0.59904 0.97316 0.0
C769 C 0.16747 0.65455 0.97243 0.0
C770 C 0.67457 0.64681 0.7916 0.0
C771 C 0.64588 0.67951 0.79387 0.0
C772 C 0.67116 0.59228 0.79245 0.0
C773 C 0.63885 0.56875 0.79461 0.0
H774 H 0.69964 0.66342 0.7879 0.0
H775 H 0.69372 0.56846 0.78936 0.0
S776 S 0.55657 0.63629 0.80625 0.0
N777 N 0.58465 0.68423 0.80283 0.0
N778 N 0.57836 0.58125 0.80285 0.0
C779 C 0.61031 0.60068 0.79901 0.0
C780 C 0.61382 0.6563 0.79908 0.0
C781 C 0.11703 0.15631 0.79133 0.0
C782 C 0.14936 0.17974 0.79359 0.0
C783 C 0.11358 0.1018 0.79037 0.0
C784 C 0.14224 0.06905 0.79261 0.0
H785 H 0.0945 0.1802 0.78829 0.0
H786 H 0.0885 0.08526 0.78663 0.0
S787 S 0.23155 0.11201 0.8054 0.0
N788 N 0.20981 0.16711 0.80202 0.0
N789 N 0.20344 0.06414 0.80176 0.0
C790 C 0.17431 0.09215 0.79794 0.0
C791 C 0.17787 0.14775 0.79801 0.0
C792 C 0.4259 0.35109 0.54219 0.0
C793 C 0.39694 0.31915 0.54556 0.0
C794 C 0.42313 0.4057 0.54274 0.0
C795 C 0.39121 0.42995 0.54592 0.0
H796 H 0.45056 0.33381 0.53763 0.0
H797 H 0.4457 0.42894 0.53849 0.0
S798 S 0.3088 0.36476 0.56079 0.0
N799 N 0.33618 0.31607 0.55673 0.0
N800 N 0.33104 0.41917 0.55635 0.0
C801 C 0.36257 0.39886 0.5516 0.0
C802 C 0.36545 0.3432 0.55186 0.0
C803 C 0.85991 0.89698 0.54251 0.0
C804 C 0.8883 0.92967 0.54691 0.0
C805 C 0.86329 0.84247 0.5431 0.0
C806 C 0.8953 0.81907 0.54737 0.0
H807 H 0.83529 0.91356 0.53706 0.0
H808 H 0.84122 0.81863 0.53804 0.0
S809 S 0.97604 0.88628 0.56576 0.0
N810 N 0.94839 0.93424 0.56059 0.0
N811 N 0.9547 0.83133 0.56025 0.0
C812 C 0.92325 0.85084 0.55419 0.0
C813 C 0.91972 0.9064 0.55442 0.0
C814 C 0.36458 0.90695 0.73287 0.0
C815 C 0.39695 0.92963 0.72918 0.0
C816 C 0.36057 0.85254 0.73354 0.0
C817 C 0.38866 0.81914 0.72958 0.0
H818 H 0.3426 0.93134 0.73725 0.0
H819 H 0.33563 0.83658 0.73849 0.0
S820 S 0.4773 0.8604 0.71224 0.0
N821 N 0.45649 0.91588 0.71743 0.0
N822 N 0.44902 0.81313 0.71699 0.0
C823 C 0.42055 0.84166 0.72272 0.0
C824 C 0.42471 0.89714 0.723 0.0
C825 C 0.92348 0.34257 0.73245 0.0
C826 C 0.89121 0.31906 0.72984 0.0
C827 C 0.92688 0.39714 0.73297 0.0
C828 C 0.89823 0.4298 0.73008 0.0
H829 H 0.94592 0.31877 0.73616 0.0
H830 H 0.95187 0.41381 0.73698 0.0
S831 S 0.8091 0.38641 0.71698 0.0
N832 N 0.83086 0.33143 0.72084 0.0
N833 N 0.83715 0.43437 0.72043 0.0
C834 C 0.86627 0.40651 0.7246 0.0
C835 C 0.86276 0.35092 0.7249 0.0
C836 C 0.64627 0.59735 0.46617 0.0
C837 C 0.65046 0.57027 0.49248 0.0
C838 C 0.63992 0.65158 0.46606 0.0
C839 C 0.63612 0.6791 0.49227 0.0
H840 H 0.64832 0.57668 0.44571 0.0
H841 H 0.63758 0.67191 0.44552 0.0
S842 S 0.64371 0.62528 0.56682 0.0
N843 N 0.65037 0.57472 0.54522 0.0
N844 N 0.63679 0.67548 0.54503 0.0
C845 C 0.63965 0.65202 0.51861 0.0
C846 C 0.64721 0.59776 0.51871 0.0
C847 C 0.1486 0.09818 0.46498 0.0
C848 C 0.14724 0.06879 0.4907 0.0
C849 C 0.14203 0.15237 0.4654 0.0
C850 C 0.13267 0.17772 0.49133 0.0
H851 H 0.1555 0.07947 0.44471 0.0
H852 H 0.14436 0.17455 0.44545 0.0
S853 S 0.12498 0.11669 0.56421 0.0
N854 N 0.13603 0.06819 0.54251 0.0
N855 N 0.12236 0.16891 0.54323 0.0
C856 C 0.13039 0.14799 0.51695 0.0
C857 C 0.138 0.0937 0.51664 0.0
C858 C 0.64702 0.15116 0.31093 0.0
C859 C 0.65564 0.17681 0.28491 0.0
C860 C 0.64081 0.09685 0.31132 0.0
C861 C 0.64179 0.06765 0.28551 0.0
H862 H 0.64504 0.17318 0.33096 0.0
H863 H 0.63444 0.0779 0.33164 0.0
S864 S 0.66226 0.11642 0.21179 0.0
N865 N 0.66492 0.16854 0.23284 0.0
N866 N 0.65199 0.06759 0.23354 0.0
C867 C 0.65033 0.09289 0.2595 0.0
C868 C 0.65756 0.1473 0.25919 0.0
C869 C 0.17757 0.64813 0.29335 0.0
C870 C 0.14851 0.68021 0.29481 0.0
C871 C 0.17462 0.59352 0.29407 0.0
C872 C 0.14244 0.56937 0.29523 0.0
H873 H 0.20261 0.66529 0.2903 0.0
H874 H 0.19748 0.57019 0.29158 0.0
S875 S 0.05917 0.63528 0.30471 0.0
N876 N 0.08698 0.68375 0.30213 0.0
N877 N 0.08155 0.58069 0.3019 0.0
C878 C 0.11348 0.60074 0.29899 0.0
C879 C 0.1165 0.65639 0.2992 0.0
C880 C 0.41986 0.17656 0.90784 0.0
C881 C 0.38587 0.1762 0.91788 0.0
C882 C 0.42751 0.17674 0.87799 0.0
C883 C 0.40142 0.17562 0.85711 0.0
H884 H 0.44064 0.17242 0.92316 0.0
H885 H 0.45386 0.17255 0.87132 0.0
S886 S 0.30848 0.17972 0.87186 0.0
N887 N 0.32612 0.17987 0.90443 0.0
N888 N 0.34039 0.17889 0.84845 0.0
C889 C 0.36747 0.17936 0.86684 0.0
C890 C 0.3597 0.18006 0.89721 0.0
C891 C 0.91987 0.06939 0.86667 0.0
C892 C 0.88605 0.07011 0.85624 0.0
C893 C 0.92706 0.06891 0.8966 0.0
C894 C 0.90064 0.07016 0.91718 0.0
H895 H 0.9409 0.07347 0.8516 0.0
H896 H 0.95332 0.07284 0.90359 0.0
S897 S 0.80791 0.06692 0.90133 0.0
N898 N 0.82607 0.06684 0.86898 0.0
N899 N 0.83946 0.06731 0.92512 0.0
C900 C 0.86682 0.06674 0.90704 0.0
C901 C 0.85954 0.0663 0.87659 0.0
C902 C 0.42654 0.0643 0.39791 0.0
C903 C 0.3999 0.06867 0.41816 0.0
C904 C 0.41979 0.06369 0.36788 0.0
C905 C 0.38617 0.06633 0.35705 0.0
H906 H 0.45279 0.06667 0.40513 0.0
H907 H 0.44113 0.06552 0.35299 0.0
S908 S 0.30744 0.07151 0.40127 0.0
N909 N 0.3386 0.0708 0.4254 0.0
N910 N 0.32602 0.06822 0.36915 0.0
C911 C 0.35931 0.06553 0.37716 0.0
C912 C 0.36617 0.06713 0.40767 0.0
C913 C 0.93027 0.17193 0.37723 0.0
C914 C 0.90424 0.17593 0.35641 0.0
C915 C 0.92266 0.1713 0.40705 0.0
C916 C 0.88882 0.17539 0.41718 0.0
H917 H 0.95623 0.16414 0.37042 0.0
H918 H 0.94312 0.16335 0.42223 0.0
S919 S 0.81207 0.19338 0.37143 0.0
N920 N 0.84375 0.18891 0.34793 0.0
N921 N 0.82959 0.189 0.40396 0.0
C922 C 0.86301 0.18441 0.39666 0.0
C923 C 0.8707 0.18424 0.36626 0.0
C924 C 0.67031 0.81439 0.15821 0.0
C925 C 0.63635 0.81458 0.16836 0.0
C926 C 0.67786 0.81517 0.12834 0.0
C927 C 0.65169 0.81698 0.10756 0.0
H928 H 0.69115 0.81827 0.1735 0.0
H929 H 0.70418 0.81968 0.12165 0.0
S930 S 0.55883 0.81175 0.12251 0.0
N931 N 0.57657 0.81085 0.15503 0.0
N932 N 0.59065 0.81345 0.09902 0.0
C933 C 0.61779 0.81264 0.11734 0.0
C934 C 0.61013 0.81103 0.14773 0.0
C935 C 0.17993 0.92534 0.1462 0.0
C936 C 0.15426 0.9291 0.16735 0.0
C937 C 0.17177 0.92404 0.11645 0.0
C938 C 0.13771 0.92724 0.10672 0.0
H939 H 0.20607 0.91813 0.15269 0.0
H940 H 0.19203 0.91627 0.10105 0.0
S941 S 0.06162 0.94406 0.15339 0.0
N942 N 0.09378 0.94078 0.1765 0.0
N943 N 0.07862 0.93961 0.12067 0.0
C944 C 0.11222 0.93599 0.12754 0.0
C945 C 0.12046 0.93651 0.15785 0.0
C946 C 0.67011 0.93536 0.61774 0.0
C947 C 0.6361 0.93502 0.60771 0.0
C948 C 0.67783 0.93459 0.64758 0.0
C949 C 0.65177 0.93259 0.66846 0.0
H950 H 0.69088 0.93147 0.60238 0.0
H951 H 0.70419 0.93009 0.65418 0.0
S952 S 0.55881 0.93764 0.65384 0.0
N953 N 0.57639 0.9386 0.62126 0.0
N954 N 0.59077 0.93605 0.67721 0.0
C955 C 0.61781 0.93695 0.65879 0.0
C956 C 0.60999 0.93854 0.62844 0.0
C957 C 0.17702 0.81265 0.62751 0.0
C958 C 0.15098 0.81347 0.60657 0.0
C959 C 0.16931 0.81432 0.65735 0.0
C960 C 0.13531 0.81593 0.66736 0.0
H961 H 0.2034 0.81635 0.62084 0.0
H962 H 0.19011 0.8188 0.67264 0.0
S963 S 0.05796 0.81202 0.62132 0.0
N964 N 0.08991 0.81103 0.59795 0.0
N965 N 0.07557 0.81285 0.6539 0.0
C966 C 0.10916 0.8115 0.64672 0.0
C967 C 0.11698 0.81063 0.61636 0.0
C968 C 0.42901 0.67965 0.3788 0.0
C969 C 0.40277 0.68234 0.35809 0.0
C970 C 0.42156 0.6775 0.40864 0.0
C971 C 0.38768 0.67887 0.41889 0.0
H972 H 0.45511 0.6736 0.37186 0.0
H973 H 0.44229 0.67043 0.42369 0.0
S974 S 0.31026 0.69335 0.3736 0.0
N975 N 0.34192 0.69173 0.34996 0.0
N976 N 0.32808 0.68913 0.40601 0.0
C977 C 0.36156 0.68702 0.39856 0.0
C978 C 0.36909 0.68833 0.36815 0.0
C979 C 0.92937 0.57785 0.39825 0.0
C980 C 0.9031 0.57377 0.41882 0.0
C981 C 0.9221 0.57867 0.36837 0.0
C982 C 0.88837 0.5746 0.35797 0.0
H983 H 0.95526 0.58555 0.40528 0.0
H984 H 0.94274 0.58661 0.35336 0.0
S985 S 0.81107 0.55649 0.40302 0.0
N986 N 0.8425 0.56085 0.4268 0.0
N987 N 0.82898 0.56098 0.37066 0.0
C988 C 0.86232 0.56553 0.37825 0.0
C989 C 0.86966 0.56559 0.40869 0.0
C990 C 0.4206 0.57446 0.86805 0.0
C991 C 0.3867 0.57153 0.85793 0.0
C992 C 0.42828 0.57252 0.89787 0.0
C993 C 0.40226 0.5684 0.9187 0.0
H994 H 0.44112 0.58239 0.85292 0.0
H995 H 0.45432 0.57955 0.90471 0.0
S996 S 0.30984 0.55388 0.90359 0.0
N997 N 0.32737 0.55893 0.8711 0.0
N998 N 0.34163 0.55668 0.92709 0.0
C999 C 0.36861 0.56125 0.90877 0.0
C1000 C 0.36086 0.56238 0.87839 0.0
C1001 C 0.86618 0.67533 0.86753 0.0
C1002 C 0.90022 0.67794 0.85772 0.0
C1003 C 0.85822 0.67547 0.8973 0.0
C1004 C 0.88407 0.67754 0.91836 0.0
H1005 H 0.84575 0.66877 0.85212 0.0
H1006 H 0.83203 0.66873 0.90382 0.0
S1007 S 0.97675 0.69084 0.90426 0.0
N1008 N 0.95954 0.68822 0.87155 0.0
N1009 N 0.9447 0.68734 0.92745 0.0
C1010 C 0.91789 0.68452 0.90886 0.0
C1011 C 0.92595 0.68514 0.87853 0.0
C1012 C 0.67169 0.32228 0.65866 0.0
C1013 C 0.63781 0.31817 0.66869 0.0
C1014 C 0.67954 0.31983 0.62891 0.0
C1015 C 0.65371 0.31396 0.60803 0.0
H1016 H 0.69196 0.33173 0.67377 0.0
H1017 H 0.70543 0.32812 0.6221 0.0
S1018 S 0.56161 0.29511 0.62297 0.0
N1019 N 0.57885 0.30204 0.65547 0.0
N1020 N 0.59342 0.29883 0.59955 0.0
C1021 C 0.6202 0.30529 0.61791 0.0
C1022 C 0.61227 0.30697 0.64826 0.0
C1023 C 0.17858 0.43327 0.64777 0.0
C1024 C 0.15249 0.43186 0.66864 0.0
C1025 C 0.17089 0.43361 0.61792 0.0
C1026 C 0.1369 0.43343 0.60789 0.0
H1027 H 0.20491 0.42872 0.65441 0.0
H1028 H 0.19166 0.42941 0.60259 0.0
S1029 S 0.05958 0.43666 0.65395 0.0
N1030 N 0.0915 0.43541 0.67735 0.0
N1031 N 0.07717 0.43724 0.62138 0.0
C1032 C 0.11077 0.43728 0.62858 0.0
C1033 C 0.11855 0.4361 0.65894 0.0
C1034 C 0.67769 0.42993 0.14726 0.0
C1035 C 0.65181 0.43235 0.1683 0.0
C1036 C 0.66974 0.42789 0.11749 0.0
C1037 C 0.63569 0.42909 0.10764 0.0
H1038 H 0.70393 0.42405 0.15387 0.0
H1039 H 0.69024 0.42103 0.10219 0.0
S1040 S 0.55899 0.44216 0.15391 0.0
N1041 N 0.59106 0.44085 0.17716 0.0
N1042 N 0.57627 0.43842 0.12127 0.0
C1043 C 0.60989 0.43673 0.12831 0.0
C1044 C 0.61794 0.43796 0.15864 0.0
C1045 C 0.17067 0.31979 0.15802 0.0
C1046 C 0.13687 0.31976 0.1685 0.0
C1047 C 0.17778 0.31919 0.12807 0.0
C1048 C 0.15129 0.31951 0.10755 0.0
H1049 H 0.1917 0.32463 0.17303 0.0
H1050 H 0.20397 0.32381 0.12103 0.0
S1051 S 0.05869 0.31399 0.12357 0.0
N1052 N 0.07692 0.31475 0.1559 0.0
N1053 N 0.09015 0.31493 0.09972 0.0
C1054 C 0.11756 0.31526 0.11775 0.0
C1055 C 0.11036 0.31499 0.14822 0.0
C1056 C 0.52034 0.94796 1.00587 0.0
C1057 C 0.54752 0.96838 0.02239 0.0
C1058 C 0.49224 0.97883 0.9984 0.0
C1059 C 0.48987 0.03144 1.0073 0.0
H1060 H 0.52095 0.90791 0.99806 0.0
H1061 H 0.47188 0.9607 0.98607 0.0
S1062 S 0.55395 0.10422 0.05123 0.0
N1063 N 0.56987 0.04466 0.04798 0.0
N1064 N 0.5175 0.10302 0.0334 0.0
C1065 C 0.51686 0.05253 0.02389 0.0
C1066 C 0.54533 0.02084 0.03179 0.0
C1067 C 0.79233 0.2636 0.99599 0.0
C1068 C 0.7953 0.21168 1.00589 0.0
C1069 C 0.76394 0.29414 1.00296 0.0
C1070 C 0.73716 0.27422 0.02012 0.0
H1071 H 0.81256 0.28165 0.98349 0.0
H1072 H 0.7631 0.33389 0.99469 0.0
S1073 S 0.73093 0.13865 0.04929 0.0
N1074 N 0.76787 0.14026 0.03222 0.0
N1075 N 0.71462 0.19785 0.04547 0.0
C1076 C 0.7394 0.22187 0.02968 0.0
C1077 C 0.7683 0.19059 0.02242 0.0
C1078 C 0.49453 0.26531 0.27435 0.0
C1079 C 0.4929 0.21119 0.26881 0.0
C1080 C 0.52344 0.2946 0.26718 0.0
C1081 C 0.55235 0.271 0.2546 0.0
H1082 H 0.47299 0.28577 0.28357 0.0
H1083 H 0.52318 0.33623 0.2719 0.0
S1084 S 0.56239 0.12922 0.23809 0.0
N1085 N 0.52345 0.13431 0.25136 0.0
N1086 N 0.57817 0.18925 0.23835 0.0
C1087 C 0.55146 0.21655 0.24952 0.0
C1088 C 0.52181 0.1867 0.2567 0.0
C1089 C 0.74183 0.01694 0.24871 0.0
C1090 C 0.7399 0.96374 0.25653 0.0
C1091 C 0.77033 0.04736 0.25575 0.0
C1092 C 0.79832 0.02591 0.27084 0.0
H1093 H 0.72088 0.0358 0.23754 0.0
H1094 H 0.77058 0.08793 0.24881 0.0
S1095 S 0.80617 0.88806 0.29628 0.0
N1096 N 0.7688 0.89044 0.27992 0.0
N1097 N 0.82197 0.94784 0.29375 0.0
C1098 C 0.79661 0.97278 0.27909 0.0
C1099 C 0.76771 0.94159 0.2716 0.0
C1100 C 0.26514 0.79454 1.00358 0.0
C1101 C 0.23734 0.77317 0.01891 0.0
C1102 C 0.29385 0.76449 0.99697 0.0
C1103 C 0.29612 0.7117 1.00548 0.0
H1104 H 0.26481 0.83502 0.99647 0.0
H1105 H 0.31487 0.78357 0.98596 0.0
S1106 S 0.22933 0.63522 0.0441 0.0
N1107 N 0.21326 0.69474 0.04116 0.0
N1108 N 0.26721 0.63815 0.02864 0.0
C1109 C 0.2682 0.68926 0.02024 0.0
C1110 C 0.23895 0.72003 0.02711 0.0
C1111 C 0.54349 0.7347 0.74538 0.0
C1112 C 0.54631 0.78681 0.75502 0.0
C1113 C 0.51511 0.70412 0.75239 0.0
C1114 C 0.48819 0.72419 0.76932 0.0
H1115 H 0.56383 0.71656 0.73307 0.0
H1116 H 0.51436 0.66423 0.74432 0.0
S1117 S 0.48161 0.8602 0.79782 0.0
N1118 N 0.51865 0.8585 0.7809 0.0
N1119 N 0.46541 0.80086 0.79422 0.0
C1120 C 0.49031 0.7767 0.77865 0.0
C1121 C 0.5192 0.80802 0.77135 0.0
C1122 C 0.27262 0.04388 0.75117 0.0
C1123 C 0.29889 0.02477 0.76916 0.0
C1124 C 0.2445 0.0129 0.74392 0.0
C1125 C 0.24135 0.96127 0.75426 0.0
H1126 H 0.27371 0.08324 0.74238 0.0
H1127 H 0.22463 0.03033 0.73076 0.0
S1128 S 0.30397 0.89088 0.80074 0.0
N1129 N 0.32023 0.95007 0.79665 0.0
N1130 N 0.26799 0.89118 0.78222 0.0
C1131 C 0.26785 0.94101 0.77168 0.0
C1132 C 0.29626 0.97296 0.7795 0.0
C1133 C 0.52276 0.44968 0.50691 0.0
C1134 C 0.55031 0.47155 0.52246 0.0
C1135 C 0.49433 0.4797 0.49924 0.0
C1136 C 0.49193 0.53286 0.50699 0.0
H1137 H 0.52327 0.40902 0.50014 0.0
H1138 H 0.47369 0.46044 0.48778 0.0
S1139 S 0.55661 0.6094 0.54795 0.0
N1140 N 0.57294 0.54993 0.54566 0.0
N1141 N 0.51978 0.60654 0.53085 0.0
C1142 C 0.51928 0.55543 0.52246 0.0
C1143 C 0.54818 0.52469 0.53048 0.0
C1144 C 0.79346 0.76887 0.49885 0.0
C1145 C 0.79599 0.7158 0.50679 0.0
C1146 C 0.76482 0.79869 0.50619 0.0
C1147 C 0.73719 0.77671 0.52154 0.0
H1148 H 0.81418 0.78824 0.48758 0.0
H1149 H 0.76428 0.83933 0.49938 0.0
S1150 S 0.73084 0.63876 0.54686 0.0
N1151 N 0.76797 0.6419 0.53025 0.0
N1152 N 0.71438 0.69812 0.5444 0.0
C1153 C 0.73932 0.72356 0.52955 0.0
C1154 C 0.76845 0.69303 0.52189 0.0
C1155 C 0.7944 0.48256 0.77829 0.0
C1156 C 0.797 0.53496 0.76913 0.0
C1157 C 0.76592 0.45215 0.77135 0.0
C1158 C 0.73872 0.47268 0.75491 0.0
H1159 H 0.81497 0.46407 0.79017 0.0
H1160 H 0.7653 0.41207 0.77912 0.0
S1161 S 0.73203 0.60903 0.72698 0.0
N1162 N 0.769 0.60723 0.744 0.0
N1163 N 0.71591 0.54957 0.73026 0.0
C1164 C 0.74079 0.5253 0.74581 0.0
C1165 C 0.76964 0.55659 0.75327 0.0
C1166 C 0.29316 0.26721 0.49987 0.0
C1167 C 0.29461 0.21297 0.50508 0.0
C1168 C 0.26429 0.29639 0.5072 0.0
C1169 C 0.23553 0.27272 0.52003 0.0
H1170 H 0.31497 0.28793 0.49111 0.0
H1171 H 0.2646 0.33811 0.50273 0.0
S1172 S 0.22513 0.13066 0.53559 0.0
N1173 N 0.26392 0.1358 0.52202 0.0
N1174 N 0.20958 0.19079 0.5359 0.0
C1175 C 0.23625 0.21816 0.52469 0.0
C1176 C 0.26569 0.18831 0.51706 0.0
C1177 C 0.24362 0.51986 0.25101 0.0
C1178 C 0.24303 0.46488 0.25318 0.0
C1179 C 0.27238 0.54857 0.25928 0.0
C1180 C 0.30193 0.52349 0.26966 0.0
H1181 H 0.22123 0.54124 0.244 0.0
H1182 H 0.27148 0.59091 0.25738 0.0
S1183 S 0.31502 0.37959 0.27569 0.0
N1184 N 0.2754 0.38596 0.26413 0.0
N1185 N 0.32983 0.43986 0.27918 0.0
C1186 C 0.30218 0.46831 0.2709 0.0
C1187 C 0.27276 0.43907 0.26257 0.0
C1188 C 0.04707 0.01632 0.52593 0.0
C1189 C 0.04877 0.96269 0.51909 0.0
C1190 C 1.01841 0.04621 0.51888 0.0
C1191 C 0.98999 0.02369 0.50493 0.0
H1192 H 0.0684 0.03598 0.53613 0.0
H1193 H 1.01846 0.08732 0.52481 0.0
S1194 S 0.98091 0.88381 0.48343 0.0
N1195 N 0.01914 0.88764 0.49821 0.0
N1196 N 0.9651 0.94368 0.48513 0.0
C1197 C 0.99121 0.96987 0.49809 0.0
C1198 C 0.02048 0.93939 0.50529 0.0
C1199 C 0.02177 0.29843 0.76908 0.0
C1200 C 0.04943 0.27741 0.75342 0.0
C1201 C 0.99345 0.26783 0.77628 0.0
C1202 C 0.9913 0.21493 0.76792 0.0
H1203 H 0.02212 0.33883 0.77634 0.0
H1204 H 0.9727 0.28647 0.78787 0.0
S1205 S 0.05679 0.14036 0.72662 0.0
N1206 N 0.07269 0.20003 0.72953 0.0
N1207 N 0.01971 0.14228 0.74346 0.0
C1208 C 0.01882 0.19316 0.75231 0.0
C1209 C 0.0476 0.22452 0.74474 0.0
C1210 C 1.01666 0.70429 0.25168 0.0
C1211 C 0.98985 0.72442 0.26869 0.0
C1212 C 0.04519 0.73462 0.24484 0.0
C1213 C 0.04827 0.78652 0.25476 0.0
H1214 H 1.0157 0.66457 0.24335 0.0
H1215 H 0.06541 0.71648 0.23239 0.0
S1216 S 0.98407 0.85983 0.29816 0.0
N1217 N 0.96754 0.80079 0.29418 0.0
N1218 N 0.02104 0.85803 0.28116 0.0
C1219 C 0.02131 0.80775 0.27126 0.0
C1220 C 0.99227 0.77668 0.27838 0.0
C1221 C 1.0148 0.54457 0.01988 0.0
C1222 C 0.98734 0.52335 1.00402 0.0
C1223 C 0.04287 0.51399 0.02766 0.0
C1224 C 0.04509 0.46097 0.01954 0.0
H1225 H 1.01455 0.58517 0.02677 0.0
H1226 H 0.06351 0.53285 0.0393 0.0
S1227 S 0.97963 0.38537 0.97877 0.0
N1228 N 0.96391 0.44524 0.98093 0.0
N1229 N 1.01663 0.38765 0.99575 0.0
C1230 C 1.0176 0.43881 1.00405 0.0
C1231 C 0.98898 0.4701 0.996 0.0
C1232 C 0.32334 0.16633 0.15506 0.0
C1233 C 0.32631 0.11612 0.16794 0.0
C1234 C 0.32331 0.17266 0.1248 0.0
C1235 C 0.32559 0.12881 0.10663 0.0
H1236 H 0.32573 0.20123 0.16834 0.0
H1237 H 0.32622 0.21175 0.11594 0.0
S1238 S 0.3214 0.98924 0.12932 0.0
N1239 N 0.32281 0.02222 0.16016 0.0
N1240 N 0.32113 0.0338 0.10331 0.0
C1241 C 0.32162 0.07865 0.11926 0.0
C1242 C 0.32236 0.07225 0.15004 0.0
C1243 C 0.96104 0.07896 0.15423 0.0
C1244 C 0.95913 0.12948 0.16684 0.0
C1245 C 0.96192 0.07225 0.12402 0.0
C1246 C 0.96136 0.11598 0.10567 0.0
H1247 H 0.95729 0.04445 0.1676 0.0
H1248 H 0.95819 0.03326 0.11523 0.0
S1249 S 0.96844 0.25543 0.12796 0.0
N1250 N 0.96534 0.22296 0.15887 0.0
N1251 N 0.96836 0.21057 0.1021 0.0
C1252 C 0.96632 0.166 0.11819 0.0
C1253 C 0.96482 0.17284 0.14891 0.0
C1254 C 0.71299 0.83084 0.87047 0.0
C1255 C 0.71011 0.88098 0.85751 0.0
C1256 C 0.71216 0.82455 0.90072 0.0
C1257 C 0.70902 0.86837 0.91882 0.0
H1258 H 0.71124 0.79592 0.85713 0.0
H1259 H 0.70942 0.7854 0.90955 0.0
S1260 S 0.71293 0.00798 0.89618 0.0
N1261 N 0.71272 0.97494 0.86533 0.0
N1262 N 0.71259 0.96347 0.92221 0.0
C1263 C 0.71285 0.9186 0.90628 0.0
C1264 C 0.71313 0.92494 0.87549 0.0
C1265 C 0.07511 0.92657 0.89973 0.0
C1266 C 0.07616 0.88254 0.91784 0.0
C1267 C 0.07532 0.92042 0.86946 0.0
C1268 C 0.07719 0.87016 0.85648 0.0
H1269 H 0.07879 0.96543 0.90871 0.0
H1270 H 0.07858 0.95525 0.85627 0.0
S1271 S 0.06923 0.74342 0.89484 0.0
N1272 N 0.0697 0.7878 0.92094 0.0
N1273 N 0.07158 0.77646 0.86407 0.0
C1274 C 0.07214 0.82642 0.87429 0.0
C1275 C 0.07128 0.83269 0.90508 0.0
C1276 C 0.32418 0.6645 0.65574 0.0
C1277 C 0.32751 0.61427 0.6685 0.0
C1278 C 0.32436 0.67108 0.62549 0.0
C1279 C 0.32731 0.62745 0.60723 0.0
H1280 H 0.32613 0.69929 0.66915 0.0
H1281 H 0.32688 0.71032 0.61674 0.0
S1282 S 0.32479 0.4876 0.62956 0.0
N1283 N 0.32537 0.52038 0.66049 0.0
N1284 N 0.32423 0.53234 0.60364 0.0
C1285 C 0.32391 0.57707 0.6197 0.0
C1286 C 0.32435 0.57045 0.65046 0.0
C1287 C 0.96255 0.6708 0.62091 0.0
C1288 C 0.96066 0.62046 0.60805 0.0
C1289 C 0.96339 0.67707 0.65117 0.0
C1290 C 0.96288 0.63307 0.66932 0.0
H1291 H 0.95876 0.7055 0.60772 0.0
H1292 H 0.95961 0.71591 0.66013 0.0
S1293 S 0.97017 0.49399 0.64637 0.0
N1294 N 0.96699 0.5269 0.61561 0.0
N1295 N 0.97006 0.53846 0.67243 0.0
C1296 C 0.96793 0.58326 0.65656 0.0
C1297 C 0.96642 0.57688 0.6258 0.0
C1298 C 0.71272 0.42498 0.3752 0.0
C1299 C 0.71165 0.3808 0.3572 0.0
C1300 C 0.71219 0.4191 0.40547 0.0
C1301 C 0.70997 0.36896 0.41857 0.0
H1302 H 0.70939 0.46382 0.3661 0.0
H1303 H 0.70911 0.4541 0.41855 0.0
S1304 S 0.71815 0.24183 0.38062 0.0
N1305 N 0.718 0.28599 0.3544 0.0
N1306 N 0.71548 0.27516 0.41127 0.0
C1307 C 0.71504 0.32502 0.40092 0.0
C1308 C 0.71624 0.33101 0.37012 0.0
C1309 C 0.07738 0.42745 0.40091 0.0
C1310 C 0.07658 0.38331 0.41894 0.0
C1311 C 0.07904 0.42141 0.37069 0.0
C1312 C 0.08048 0.37112 0.35772 0.0
H1313 H 0.08142 0.46608 0.41008 0.0
H1314 H 0.08359 0.45613 0.35769 0.0
S1315 S 0.06764 0.2447 0.39543 0.0
N1316 N 0.06777 0.28894 0.42162 0.0
N1317 N 0.07237 0.27773 0.36486 0.0
C1318 C 0.07357 0.32758 0.3752 0.0
C1319 C 0.07121 0.33377 0.40593 0.0
C1320 C 0.82465 0.17521 0.62401 0.0
C1321 C 0.82766 0.13162 0.60575 0.0
C1322 C 0.82418 0.16855 0.65425 0.0
C1323 C 0.82741 0.11825 0.66698 0.0
H1324 H 0.82734 0.21445 0.61529 0.0
H1325 H 0.82605 0.20332 0.66769 0.0
S1326 S 0.82475 0.99173 0.62789 0.0
N1327 N 0.82442 0.03657 0.60203 0.0
N1328 N 0.82515 0.02439 0.65885 0.0
C1329 C 0.82426 0.0745 0.64889 0.0
C1330 C 0.82404 0.08123 0.61814 0.0
C1331 C 0.46244 0.07497 0.62477 0.0
C1332 C 0.4608 0.11883 0.60655 0.0
C1333 C 0.46208 0.08137 0.65502 0.0
C1334 C 0.45956 0.13168 0.66782 0.0
H1335 H 0.45923 0.03593 0.6159 0.0
H1336 H 0.45914 0.0466 0.66832 0.0
S1337 S 0.466 0.25831 0.6292 0.0
N1338 N 0.46615 0.21371 0.6032 0.0
N1339 N 0.46403 0.22544 0.66004 0.0
C1340 C 0.46414 0.1754 0.64994 0.0
C1341 C 0.46512 0.16892 0.61917 0.0
C1342 C 0.21459 0.83026 0.36993 0.0
C1343 C 0.21235 0.88045 0.35691 0.0
C1344 C 0.21505 0.82417 0.40022 0.0
C1345 C 0.21385 0.86822 0.41834 0.0
H1346 H 0.21147 0.79536 0.35677 0.0
H1347 H 0.21171 0.78525 0.40921 0.0
S1348 S 0.21989 0.00739 0.39512 0.0
N1349 N 0.21746 0.9742 0.3644 0.0
N1350 N 0.21992 0.96309 0.42127 0.0
C1351 C 0.2184 0.91812 0.40548 0.0
C1352 C 0.21726 0.92428 0.37467 0.0
C1353 C 0.57374 0.92324 0.40076 0.0
C1354 C 0.57616 0.87946 0.41897 0.0
C1355 C 0.57341 0.91683 0.37049 0.0
C1356 C 0.5762 0.8666 0.35756 0.0
H1357 H 0.5766 0.96237 0.40959 0.0
H1358 H 0.57557 0.95171 0.35718 0.0
S1359 S 0.57165 0.73983 0.3963 0.0
N1360 N 0.57171 0.78442 0.4223 0.0
N1361 N 0.5728 0.77276 0.36544 0.0
C1362 C 0.57253 0.82279 0.37555 0.0
C1363 C 0.57215 0.82926 0.40635 0.0
C1364 C 0.82482 0.67042 0.12577 0.0
C1365 C 0.82846 0.62697 0.10747 0.0
C1366 C 0.82442 0.66367 0.156 0.0
C1367 C 0.8283 0.61348 0.16869 0.0
H1368 H 0.82688 0.70976 0.11707 0.0
H1369 H 0.82587 0.69845 0.16947 0.0
S1370 S 0.8275 0.48695 0.12957 0.0
N1371 N 0.82658 0.53179 0.10372 0.0
N1372 N 0.82743 0.51959 0.16054 0.0
C1373 C 0.82584 0.56967 0.15058 0.0
C1374 C 0.8256 0.57643 0.11983 0.0
C1375 C 0.46427 0.6727 0.15127 0.0
C1376 C 0.46257 0.62869 0.16938 0.0
C1377 C 0.46357 0.6666 0.121 0.0
C1378 C 0.46056 0.61646 0.10803 0.0
H1379 H 0.46148 0.7117 0.16029 0.0
H1380 H 0.46083 0.70157 0.10784 0.0
S1381 S 0.46653 0.48933 0.14623 0.0
N1382 N 0.46734 0.53367 0.17235 0.0
N1383 N 0.46443 0.52255 0.11552 0.0
C1384 C 0.46501 0.5725 0.12576 0.0
C1385 C 0.4664 0.57866 0.15654 0.0
C1386 C 0.2129 0.41762 0.90569 0.0
C1387 C 0.20995 0.36738 0.91852 0.0
C1388 C 0.21268 0.42402 0.87544 0.0
C1389 C 0.21015 0.3802 0.85727 0.0
H1390 H 0.21067 0.45247 0.91903 0.0
H1391 H 0.20985 0.46315 0.86661 0.0
S1392 S 0.21462 0.24059 0.87979 0.0
N1393 N 0.21345 0.2735 0.91066 0.0
N1394 N 0.21457 0.28521 0.8538 0.0
C1395 C 0.21415 0.33 0.8698 0.0
C1396 C 0.21374 0.32354 0.90056 0.0
C1397 C 0.57433 0.33108 0.90551 0.0
C1398 C 0.5772 0.38137 0.9183 0.0
C1399 C 0.57502 0.32448 0.87528 0.0
C1400 C 0.57799 0.36815 0.85706 0.0
H1401 H 0.57624 0.29632 0.91895 0.0
H1402 H 0.57784 0.28528 0.86655 0.0
S1403 S 0.57426 0.50797 0.87931 0.0
N1404 N 0.57463 0.47523 0.91025 0.0
N1405 N 0.57435 0.4632 0.8534 0.0
C1406 C 0.57413 0.41849 0.86947 0.0
C1407 C 0.57407 0.42513 0.90023 0.0
C1408 C 0.20946 0.04009 1.01002 0.0
C1409 C 0.19971 0.011 0.9853 0.0
C1410 C 0.24059 0.06823 1.01091 0.0
C1411 C 0.26339 0.06819 0.98719 0.0
H1412 H 0.19398 0.03863 0.02946 0.0
H1413 H 0.24775 0.08749 0.03095 0.0
S1414 S 0.24739 0.00651 0.91556 0.0
N1415 N 0.2137 0.99045 0.93511 0.0
N1416 N 0.27181 0.0421 0.93709 0.0
C1417 C 0.2528 0.04244 0.96175 0.0
C1418 C 0.22115 0.01431 0.96072 0.0
C1419 C 0.06284 0.24036 0.96418 0.0
C1420 C 0.08675 0.23723 0.98707 0.0
C1421 C 0.03155 0.21338 0.96502 0.0
C1422 C 0.02253 0.18116 0.98859 0.0
H1423 H 0.06763 0.2656 0.94574 0.0
H1424 H 1.01386 0.21898 0.94723 0.0
S1425 S 0.07613 0.15692 0.05373 0.0
N1426 N 0.09927 0.19729 0.03379 0.0
N1427 N 0.04083 0.14607 0.03511 0.0
C1428 C 0.04674 0.1755 1.01107 0.0
C1429 C 0.07865 0.20352 1.01036 0.0
C1430 C 0.24261 0.1784 0.26475 0.0
C1431 C 0.26568 0.17854 0.28831 0.0
C1432 C 0.21163 0.20697 0.26564 0.0
C1433 C 0.20222 0.23668 0.29022 0.0
H1434 H 0.24937 0.15846 0.24481 0.0
H1435 H 0.19593 0.20805 0.24632 0.0
S1436 S 0.25079 0.2424 0.35954 0.0
N1437 N 0.27475 0.20593 0.33812 0.0
N1438 N 0.217 0.25836 0.34012 0.0
C1439 C 0.224 0.23378 0.31463 0.0
C1440 C 0.25551 0.2052 0.3136 0.0
C1441 C 0.03429 0.03624 0.30861 0.0
C1442 C 0.02511 0.06712 0.28452 0.0
C1443 C 0.06557 0.0093 0.30982 0.0
C1444 C 0.0894 0.01115 0.28685 0.0
H1445 H 1.01667 0.03153 0.32652 0.0
H1446 H 0.07043 0.98504 0.32866 0.0
S1447 S 0.07847 0.08781 0.2189 0.0
N1448 N 0.04324 0.09968 0.23741 0.0
N1449 N 0.1017 0.04858 0.23945 0.0
C1450 C 0.0812 0.04366 0.26304 0.0
C1451 C 0.04926 0.07162 0.26193 0.0
C1452 C 0.78319 0.9598 0.06005 0.0
C1453 C 0.77386 0.92856 0.03614 0.0
C1454 C 0.81427 0.98731 0.0608 0.0
C1455 C 0.83768 0.98566 0.03752 0.0
H1456 H 0.76582 0.9644 0.07814 0.0
H1457 H 0.81926 0.01188 0.07949 0.0
S1458 S 0.82635 0.90782 0.97002 0.0
N1459 N 0.79148 0.89564 0.98896 0.0
N1460 N 0.84961 0.94775 0.99016 0.0
C1461 C 0.8294 0.95266 0.01394 0.0
C1462 C 0.79767 0.92414 0.0133 0.0
C1463 C 1.00265 0.79113 0.06067 0.0
C1464 C 1.01234 0.82065 0.03621 0.0
C1465 C 0.97186 0.76285 0.06144 0.0
C1466 C 0.94913 0.76201 0.03767 0.0
H1467 H 0.01966 0.78822 0.07912 0.0
H1468 H 0.96664 0.73936 0.08051 0.0
S1469 S 0.96139 0.83497 0.9687 0.0
N1470 N 0.99558 0.84964 0.98801 0.0
N1471 N 0.938 0.79602 0.98931 0.0
C1472 C 0.95755 0.79368 0.0136 0.0
C1473 C 0.989 0.82296 1.0129 0.0
C1474 C 0.81262 0.75481 0.715 0.0
C1475 C 0.83759 0.76035 0.73691 0.0
C1476 C 0.7815 0.78216 0.71588 0.0
C1477 C 0.77358 0.81715 0.73855 0.0
H1478 H 0.81644 0.72738 0.69736 0.0
H1479 H 0.76305 0.77459 0.69889 0.0
S1480 S 0.83064 0.84942 0.80046 0.0
N1481 N 0.85259 0.80623 0.78139 0.0
N1482 N 0.79439 0.858 0.78285 0.0
C1483 C 0.79891 0.82533 0.75989 0.0
C1484 C 0.8307 0.79698 0.75912 0.0
C1485 C 0.95963 0.95755 0.75864 0.0
C1486 C 0.95018 0.98748 0.73414 0.0
C1487 C 0.99081 0.92957 0.7596 0.0
C1488 C 1.01407 0.9306 0.7362 0.0
H1489 H 0.94372 0.9579 0.77784 0.0
H1490 H 0.99756 0.90938 0.77945 0.0
S1491 S 0.99939 0.99548 0.66521 0.0
N1492 N 0.96526 0.01037 0.68446 0.0
N1493 N 0.02343 0.95911 0.68662 0.0
C1494 C 1.00394 0.95753 0.71099 0.0
C1495 C 0.97221 0.98548 0.70987 0.0
C1496 C 0.24137 0.56806 0.51025 0.0
C1497 C 0.26508 0.56561 0.48722 0.0
C1498 C 0.21027 0.53977 0.50946 0.0
C1499 C 0.20135 0.50794 0.48553 0.0
H1500 H 0.24767 0.5897 0.52975 0.0
H1501 H 0.19398 0.54076 0.52842 0.0
S1502 S 0.25189 0.49529 0.41756 0.0
N1503 N 0.27539 0.53352 0.43842 0.0
N1504 N 0.21747 0.48143 0.43668 0.0
C1505 C 0.22386 0.50829 0.46157 0.0
C1506 C 0.25547 0.5367 0.46249 0.0
C1507 C 0.07949 0.70789 0.50858 0.0
C1508 C 0.08801 0.73991 0.48461 0.0
C1509 C 0.04804 0.68057 0.51003 0.0
C1510 C 0.0235 0.68434 0.48769 0.0
H1511 H 0.09652 0.70574 0.52704 0.0
H1512 H 0.04222 0.65854 0.52949 0.0
S1513 S 0.03475 0.75662 0.41839 0.0
N1514 N 0.07016 0.7686 0.43656 0.0
N1515 N 1.01164 0.71846 0.43957 0.0
C1516 C 0.03251 0.71377 0.46298 0.0
C1517 C 0.06449 0.74111 0.46136 0.0
C1518 C 0.25434 0.71307 0.81002 0.0
C1519 C 0.26279 0.67935 0.7869 0.0
C1520 C 0.22329 0.74061 0.81079 0.0
C1521 C 0.19889 0.73655 0.78833 0.0
H1522 H 0.27242 0.71967 0.82742 0.0
H1523 H 0.21913 0.76714 0.82879 0.0
S1524 S 0.20713 0.65064 0.72357 0.0
N1525 N 0.24293 0.64086 0.74166 0.0
N1526 N 0.18482 0.693 0.74292 0.0
C1527 C 0.20616 0.70088 0.76572 0.0
C1528 C 0.23791 0.67232 0.76505 0.0
C1529 C 0.06389 0.5099 0.81182 0.0
C1530 C 0.08752 0.51177 0.7887 0.0
C1531 C 0.03291 0.53762 0.81102 0.0
C1532 C 0.02394 0.5693 0.78721 0.0
H1533 H 0.0686 0.48487 0.83038 0.0
H1534 H 1.0153 0.53278 0.82893 0.0
S1535 S 0.07732 0.59121 0.72169 0.0
N1536 N 0.10019 0.55066 0.74175 0.0
N1537 N 0.04227 0.60323 0.74042 0.0
C1538 C 0.04808 0.57417 0.76462 0.0
C1539 C 0.0797 0.54544 0.76533 0.0
C1540 C 0.78532 0.4563 0.56171 0.0
C1541 C 0.77563 0.4263 0.53738 0.0
C1542 C 0.81603 0.48499 0.56235 0.0
C1543 C 0.83883 0.48584 0.53859 0.0
H1544 H 0.76846 0.45908 0.58026 0.0
H1545 H 0.82121 0.50851 0.58141 0.0
S1546 S 0.82649 0.41239 0.46974 0.0
N1547 N 0.79243 0.39749 0.48916 0.0
N1548 N 0.84976 0.45174 0.49023 0.0
C1549 C 0.83027 0.45412 0.51455 0.0
C1550 C 0.7989 0.42445 0.51397 0.0
C1551 C 0.99045 0.32408 0.51439 0.0
C1552 C 1.01197 0.3262 0.53898 0.0
C1553 C 0.95984 0.29446 0.51442 0.0
C1554 C 0.94937 0.26587 0.53909 0.0
H1555 H 0.99835 0.34267 0.49436 0.0
H1556 H 0.94552 0.29125 0.49441 0.0
S1557 S 0.99316 0.26656 0.61067 0.0
N1558 N 1.01799 0.30261 0.58973 0.0
N1559 N 0.96096 0.24804 0.58999 0.0
C1560 C 0.96932 0.27136 0.56444 0.0
C1561 C 1.0004 0.30109 0.56433 0.0
C1562 C 0.78633 0.29522 0.21319 0.0
C1563 C 0.77621 0.32376 0.23789 0.0
C1564 C 0.81689 0.26634 0.21264 0.0
C1565 C 0.83896 0.26399 0.23683 0.0
H1566 H 0.76986 0.29355 0.19435 0.0
H1567 H 0.82247 0.24365 0.19334 0.0
S1568 S 0.82536 0.33362 0.30665 0.0
N1569 N 0.79188 0.34994 0.28687 0.0
N1570 N 0.84898 0.29529 0.28591 0.0
C1571 C 0.83012 0.29457 0.26119 0.0
C1572 C 0.79891 0.32439 0.2617 0.0
C1573 C 0.9618 0.45809 0.26255 0.0
C1574 C 0.95132 0.48557 0.23748 0.0
C1575 C 0.99306 0.43013 0.26338 0.0
C1576 C 1.0153 0.42879 0.23927 0.0
H1577 H 0.94682 0.46074 0.28223 0.0
H1578 H 1.00078 0.41215 0.28363 0.0
S1579 S 0.99735 0.48608 0.16688 0.0
N1580 N 0.96409 0.50306 0.18671 0.0
N1581 N 0.02238 0.45198 0.18861 0.0
C1582 C 1.00398 0.45297 0.21359 0.0
C1583 C 0.9722 0.48082 0.21261 0.0
C1584 C 0.75615 0.03317 0.46472 0.0
C1585 C 0.76427 0.06794 0.48747 0.0
C1586 C 0.72519 0.00523 0.46406 0.0
C1587 C 0.70053 0.01002 0.48625 0.0
H1588 H 0.77443 0.026 0.44756 0.0
H1589 H 0.72127 0.97789 0.44639 0.0
S1590 S 0.70783 0.09875 0.54996 0.0
N1591 N 0.74379 0.1081 0.53203 0.0
N1592 N 0.68585 0.05542 0.53096 0.0
C1593 C 0.70745 0.04679 0.50842 0.0
C1594 C 0.73912 0.07566 0.509 0.0
C1595 C 0.5305 0.21675 0.46561 0.0
C1596 C 0.52219 0.18259 0.48859 0.0
C1597 C 0.56157 0.2445 0.46486 0.0
C1598 C 0.58614 0.24014 0.48719 0.0
H1599 H 0.51237 0.22338 0.44827 0.0
H1600 H 0.56572 0.27121 0.44695 0.0
S1601 S 0.57785 0.15435 0.55201 0.0
N1602 N 0.54211 0.14433 0.53385 0.0
N1603 N 0.60014 0.19669 0.53262 0.0
C1604 C 0.57884 0.20441 0.50977 0.0
C1605 C 0.54711 0.17573 0.51043 0.0
C1606 C 0.71037 0.20703 0.7644 0.0
C1607 C 0.70068 0.23564 0.7893 0.0
C1608 C 0.74152 0.17897 0.7633 0.0
C1609 C 0.76439 0.17861 0.78698 0.0
H1610 H 0.69485 0.20887 0.745 0.0
H1611 H 0.74864 0.16011 0.74314 0.0
S1612 S 0.7485 0.23885 0.859 0.0
N1613 N 0.71477 0.25524 0.83958 0.0
N1614 N 0.77288 0.20373 0.83723 0.0
C1615 C 0.75383 0.20383 0.81259 0.0
C1616 C 0.72217 0.23189 0.81383 0.0
C1617 C 0.56471 0.00964 0.81113 0.0
C1618 C 0.58846 0.01156 0.78811 0.0
C1619 C 0.53355 0.03684 0.81005 0.0
C1620 C 0.52447 0.06801 0.78605 0.0
H1621 H 0.56951 0.98507 0.82986 0.0
H1622 H 0.51591 0.03204 0.82794 0.0
S1623 S 0.57784 0.08928 0.7205 0.0
N1624 N 0.60094 0.04958 0.74088 0.0
N1625 N 0.54266 0.10115 0.73908 0.0
C1626 C 0.54861 0.07271 0.76348 0.0
C1627 C 0.58042 0.04451 0.76445 0.0
C1628 C 0.29776 0.92614 0.5154 0.0
C1629 C 0.27487 0.92622 0.53908 0.0
C1630 C 0.3286 0.95511 0.51606 0.0
C1631 C 0.33805 0.9852 0.54051 0.0
H1632 H 0.29091 0.90602 0.49554 0.0
H1633 H 0.34415 0.95621 0.49666 0.0
S1634 S 0.28988 0.99124 0.61001 0.0
N1635 N 0.26599 0.95416 0.58884 0.0
N1636 N 0.3235 0.00731 0.59039 0.0
C1637 C 0.31648 0.98227 0.56504 0.0
C1638 C 0.28511 0.95327 0.56424 0.0
C1639 C 0.47261 0.76257 0.56264 0.0
C1640 C 0.44925 0.76333 0.53928 0.0
C1641 C 0.50323 0.79142 0.5621 0.0
C1642 C 0.51226 0.82314 0.53827 0.0
H1643 H 0.46796 0.73764 0.58125 0.0
H1644 H 0.52055 0.78734 0.58027 0.0
S1645 S 0.45945 0.84239 0.47212 0.0
N1646 N 0.43684 0.80128 0.49206 0.0
N1647 N 0.49407 0.85577 0.49116 0.0
C1648 C 0.48836 0.82675 0.51539 0.0
C1649 C 0.45706 0.79695 0.51587 0.0
C1650 C 0.31445 0.75473 0.21454 0.0
C1651 C 0.33892 0.75861 0.23695 0.0
C1652 C 0.28361 0.78286 0.21529 0.0
C1653 C 0.27549 0.81691 0.23835 0.0
H1654 H 0.31844 0.72796 0.19662 0.0
H1655 H 0.26545 0.7765 0.19793 0.0
S1656 S 0.3314 0.84489 0.30163 0.0
N1657 N 0.35337 0.80211 0.28229 0.0
N1658 N 0.29568 0.85525 0.28352 0.0
C1659 C 0.30045 0.82365 0.26015 0.0
C1660 C 0.33197 0.79458 0.25948 0.0
C1661 C 0.50625 0.96252 0.2146 0.0
C1662 C 0.51373 0.92718 0.23725 0.0
C1663 C 0.47543 0.9907 0.21365 0.0
C1664 C 0.45025 0.98561 0.2354 0.0
H1665 H 0.52488 0.96986 0.19775 0.0
H1666 H 0.47203 0.01842 0.19608 0.0
S1667 S 0.45567 0.89539 0.29858 0.0
N1668 N 0.49202 0.88624 0.28121 0.0
N1669 N 0.43436 0.93939 0.27954 0.0
C1670 C 0.45656 0.94846 0.25749 0.0
C1671 C 0.48809 0.91936 0.25837 0.0
C1672 C 0.70812 0.54079 1.0117 0.0
C1673 C 0.69796 0.51265 0.98676 0.0
C1674 C 0.73926 0.56896 1.01251 0.0
C1675 C 0.7616 0.56987 0.98848 0.0
H1676 H 0.69304 0.53836 0.03134 0.0
H1677 H 0.74685 0.58732 0.03269 0.0
S1678 S 0.74427 0.51091 0.91636 0.0
N1679 N 0.71095 0.49411 0.93617 0.0
N1680 N 0.76906 0.54576 0.93796 0.0
C1681 C 0.7505 0.5452 0.96287 0.0
C1682 C 0.71886 0.51706 0.96193 0.0
C1683 C 0.53259 0.70856 0.96561 0.0
C1684 C 0.52332 0.67812 0.98984 0.0
C1685 C 0.56364 0.73609 0.96462 0.0
C1686 C 0.58702 0.73526 0.98793 0.0
H1687 H 0.51516 0.71257 0.94752 0.0
H1688 H 0.56859 0.76019 0.94572 0.0
S1689 S 0.57595 0.65931 0.05607 0.0
N1690 N 0.54109 0.64643 0.03725 0.0
N1691 N 0.59912 0.69874 0.03557 0.0
C1692 C 0.57891 0.7028 1.01176 0.0
C1693 C 0.54722 0.67425 1.01265 0.0
C1694 C 0.72548 0.74302 0.31108 0.0
C1695 C 0.70018 0.7371 0.28949 0.0
C1696 C 0.75659 0.71562 0.31002 0.0
C1697 C 0.76431 0.68022 0.28746 0.0
H1698 H 0.72193 0.77082 0.32858 0.0
H1699 H 0.77529 0.72363 0.32676 0.0
S1700 S 0.70622 0.64641 0.22652 0.0
N1701 N 0.68454 0.69001 0.24554 0.0
N1702 N 0.7428 0.63832 0.24374 0.0
C1703 C 0.73861 0.67149 0.26651 0.0
C1704 C 0.70677 0.69985 0.26748 0.0
C1705 C 0.56388 0.50558 0.31252 0.0
C1706 C 0.58797 0.50867 0.28982 0.0
C1707 C 0.53349 0.53493 0.31222 0.0
C1708 C 0.52542 0.56926 0.28925 0.0
H1709 H 0.56784 0.47864 0.33037 0.0
H1710 H 0.51559 0.52917 0.32983 0.0
S1711 S 0.58056 0.59509 0.22518 0.0
N1712 N 0.60222 0.55161 0.24428 0.0
N1713 N 0.54536 0.60673 0.24375 0.0
C1714 C 0.55006 0.57501 0.26709 0.0
C1715 C 0.58114 0.54487 0.26737 0.0
C1716 C 0.31213 0.4909 0.06144 0.0
C1717 C 0.3365 0.48751 0.03894 0.0
C1718 C 0.28092 0.46376 0.06026 0.0
C1719 C 0.27238 0.43116 0.03668 0.0
H1720 H 0.31652 0.51646 0.07983 0.0
H1721 H 0.26287 0.46958 0.07776 0.0
S1722 S 0.32739 0.40597 0.97254 0.0
N1723 N 0.35005 0.44676 0.99263 0.0
N1724 N 0.29171 0.39534 0.99064 0.0
C1725 C 0.29707 0.42521 0.01462 0.0
C1726 C 0.32893 0.45335 0.0157 0.0
C1727 C 0.48925 0.31944 0.01445 0.0
C1728 C 0.51185 0.31976 0.03832 0.0
C1729 C 0.45816 0.29111 0.01519 0.0
C1730 C 0.44822 0.26216 0.03992 0.0
H1731 H 0.49655 0.33858 0.99441 0.0
H1732 H 0.44284 0.28947 0.99567 0.0
S1733 S 0.49542 0.25827 0.10994 0.0
N1734 N 0.51989 0.29391 0.0885 0.0
N1735 N 0.4619 0.24199 0.09022 0.0
C1736 C 0.46947 0.26576 0.06462 0.0
C1737 C 0.50108 0.29407 0.06373 0.0
C1738 C 0.31594 0.2648 0.71406 0.0
C1739 C 0.3384 0.26327 0.738 0.0
C1740 C 0.28517 0.29304 0.71487 0.0
C1741 C 0.27527 0.32181 0.73954 0.0
H1742 H 0.32136 0.24193 0.6948 0.0
H1743 H 0.26836 0.29072 0.69626 0.0
S1744 S 0.32546 0.33409 0.80757 0.0
N1745 N 0.34904 0.29578 0.78677 0.0
N1746 N 0.29149 0.34933 0.78813 0.0
C1747 C 0.29833 0.3234 0.76305 0.0
C1748 C 0.32975 0.29416 0.76232 0.0
C1749 C 0.50371 0.45772 0.71534 0.0
C1750 C 0.51312 0.42694 0.7394 0.0
C1751 C 0.47286 0.4858 0.71468 0.0
C1752 C 0.44974 0.48526 0.73819 0.0
H1753 H 0.52095 0.46172 0.69711 0.0
H1754 H 0.46789 0.51015 0.6959 0.0
S1755 S 0.46093 0.40802 0.80587 0.0
N1756 N 0.49556 0.39491 0.78679 0.0
N1757 N 0.43785 0.44815 0.78573 0.0
C1758 C 0.45788 0.45228 0.7618 0.0
C1759 C 0.4894 0.42317 0.76237 0.0
loop_
_geom_bond_atom_site_label_1
_geom_bond_atom_site_label_2
_geom_bond_distance
_geom_bond_site_symmetry_2
_ccdc_geom_bond_type
Sc0 O3 2.025 1_556 S
Sc0 O10 2.105 . S
Sc0 O13 2.105 1_546 S
Sc0 O16 2.105 . S
Sc0 O19 2.105 . S
Sc1 O3 2.025 . S
Sc1 O11 2.105 . S
Sc1 O15 2.105 . S
Sc1 O17 2.105 . S
Sc1 O21 2.105 . S
Sc2 O3 2.025 . S
Sc2 O12 2.105 . S
Sc2 O14 2.105 . S
Sc2 O18 2.105 . S
Sc2 O20 2.105 1_554 S
O3 Sc0 2.025 1_554 S
O3 Sc1 2.025 . S
O3 Sc2 2.025 . S
C4 O10 1.268 . S
C4 O20 1.268 . S
C5 O11 1.268 1_556 S
C5 O19 1.268 . S
C6 O12 1.268 . S
C6 O21 1.268 . S
C7 O13 1.268 . S
C7 O17 1.268 1_565 S
C8 O14 1.268 1_556 S
C8 O16 1.268 . S
C9 O15 1.268 . S
C9 O18 1.268 . S
O10 Sc0 2.105 . S
O10 C4 1.268 . S
O11 Sc1 2.105 . S
O11 C5 1.268 1_554 S
O12 Sc2 2.105 . S
O12 C6 1.268 . S
O13 Sc0 2.105 1_564 S
O13 C7 1.268 . S
O14 Sc2 2.105 . S
O14 C8 1.268 1_554 S
O15 Sc1 2.105 . S
O15 C9 1.268 . S
O16 Sc0 2.105 . S
O16 C8 1.268 . S
O17 Sc1 2.105 . S
O17 C7 1.268 1_545 S
O18 Sc2 2.105 . S
O18 C9 1.268 . S
O19 Sc0 2.105 . S
O19 C5 1.268 . S
O20 Sc2 2.105 1_556 S
O20 C4 1.268 . S
O21 Sc1 2.105 . S
O21 C6 1.268 . S
Sc22 O25 2.025 . S
Sc22 O32 2.105 . S
Sc22 O35 2.105 . S
Sc22 O38 2.105 1_554 S
Sc22 O41 2.105 . S
Sc23 O25 2.025 . S
Sc23 O33 2.105 . S
Sc23 O37 2.105 . S
Sc23 O39 2.105 . S
Sc23 O43 2.105 . S
Sc24 O25 2.025 1_556 S
Sc24 O34 2.105 1_556 S
Sc24 O36 2.105 . S
Sc24 O40 2.105 . S
Sc24 O42 2.105 . S
O25 Sc22 2.025 . S
O25 Sc23 2.025 . S
O25 Sc24 2.025 1_554 S
C26 O32 1.268 1_556 S
C26 O42 1.268 . S
C27 O33 1.268 . S
C27 O41 1.268 . S
C28 O34 1.268 . S
C28 O43 1.268 . S
C29 O35 1.268 . S
C29 O39 1.268 . S
C30 O36 1.268 . S
C30 O38 1.268 . S
C31 O37 1.268 1_556 S
C31 O40 1.268 . S
O32 Sc22 2.105 . S
O32 C26 1.268 1_554 S
O33 Sc23 2.105 . S
O33 C27 1.268 . S
O34 Sc24 2.105 1_554 S
O34 C28 1.268 . S
O35 Sc22 2.105 . S
O35 C29 1.268 . S
O36 Sc24 2.105 . S
O36 C30 1.268 . S
O37 Sc23 2.105 . S
O37 C31 1.268 1_554 S
O38 Sc22 2.105 1_556 S
O38 C30 1.268 . S
O39 Sc23 2.105 . S
O39 C29 1.268 . S
O40 Sc24 2.105 . S
O40 C31 1.268 . S
O41 Sc22 2.105 . S
O41 C27 1.268 . S
O42 Sc24 2.105 . S
O42 C26 1.268 . S
O43 Sc23 2.105 . S
O43 C28 1.268 . S
Sc44 O47 2.025 . S
Sc44 O54 2.105 . S
Sc44 O57 2.105 . S
Sc44 O60 2.105 . S
Sc44 O63 2.105 . S
Sc45 O47 2.025 . S
Sc45 O55 2.105 . S
Sc45 O59 2.105 . S
Sc45 O61 2.105 . S
Sc45 O65 2.105 . S
Sc46 O47 2.025 . S
Sc46 O56 2.105 . S
Sc46 O58 2.105 . S
Sc46 O62 2.105 . S
Sc46 O64 2.105 . S
O47 Sc44 2.025 . S
O47 Sc45 2.025 . S
O47 Sc46 2.025 . S
C48 O54 1.268 . S
C48 O64 1.268 . S
C49 O55 1.268 . S
C49 O63 1.268 . S
C50 O56 1.268 . S
C50 O65 1.268 . S
C51 O57 1.268 . S
C51 O61 1.268 . S
C52 O58 1.268 . S
C52 O60 1.268 . S
C53 O59 1.268 . S
C53 O62 1.268 . S
O54 Sc44 2.105 . S
O54 C48 1.268 . S
O55 Sc45 2.105 . S
O55 C49 1.268 . S
O56 Sc46 2.105 . S
O56 C50 1.268 . S
O57 Sc44 2.105 . S
O57 C51 1.268 . S
O58 Sc46 2.105 . S
O58 C52 1.268 . S
O59 Sc45 2.105 . S
O59 C53 1.268 . S
O60 Sc44 2.105 . S
O60 C52 1.268 . S
O61 Sc45 2.105 . S
O61 C51 1.268 . S
O62 Sc46 2.105 . S
O62 C53 1.268 . S
O63 Sc44 2.105 . S
O63 C49 1.268 . S
O64 Sc46 2.105 . S
O64 C48 1.268 . S
O65 Sc45 2.105 . S
O65 C50 1.268 . S
Sc66 O69 2.025 . S
Sc66 O76 2.105 . S
Sc66 O79 2.105 . S
Sc66 O82 2.105 . S
Sc66 O85 2.105 . S
Sc67 O69 2.025 . S
Sc67 O77 2.105 . S
Sc67 O81 2.105 . S
Sc67 O83 2.105 . S
Sc67 O87 2.105 . S
Sc68 O69 2.025 . S
Sc68 O78 2.105 1_545 S
Sc68 O80 2.105 . S
Sc68 O84 2.105 . S
Sc68 O86 2.105 . S
O69 Sc66 2.025 . S
O69 Sc67 2.025 . S
O69 Sc68 2.025 . S
C70 O76 1.268 . S
C70 O86 1.268 . S
C71 O77 1.268 . S
C71 O85 1.268 . S
C72 O78 1.268 . S
C72 O87 1.268 1_565 S
C73 O79 1.268 . S
C73 O83 1.268 . S
C74 O80 1.268 . S
C74 O82 1.268 . S
C75 O81 1.268 . S
C75 O84 1.268 . S
O76 Sc66 2.105 . S
O76 C70 1.268 . S
O77 Sc67 2.105 . S
O77 C71 1.268 . S
O78 Sc68 2.105 1_565 S
O78 C72 1.268 . S
O79 Sc66 2.105 . S
O79 C73 1.268 . S
O80 Sc68 2.105 . S
O80 C74 1.268 . S
O81 Sc67 2.105 . S
O81 C75 1.268 . S
O82 Sc66 2.105 . S
O82 C74 1.268 . S
O83 Sc67 2.105 . S
O83 C73 1.268 . S
O84 Sc68 2.105 . S
O84 C75 1.268 . S
O85 Sc66 2.105 . S
O85 C71 1.268 . S
O86 Sc68 2.105 . S
O86 C70 1.268 . S
O87 Sc67 2.105 . S
O87 C72 1.268 1_545 S
Sc88 O91 2.025 . S
Sc88 O98 2.105 1_556 S
Sc88 O101 2.105 . S
Sc88 O104 2.105 . S
Sc88 O107 2.105 . S
Sc89 O91 2.025 . S
Sc89 O99 2.105 . S
Sc89 O103 2.105 . S
Sc89 O105 2.105 . S
Sc89 O109 2.105 . S
Sc90 O91 2.025 1_554 S
Sc90 O100 2.105 . S
Sc90 O102 2.105 . S
Sc90 O106 2.105 1_564 S
Sc90 O108 2.105 . S
O91 Sc88 2.025 . S
O91 Sc89 2.025 . S
O91 Sc90 2.025 1_556 S
C92 O98 1.268 . S
C92 O108 1.268 . S
C93 O99 1.268 . S
C93 O107 1.268 . S
C94 O100 1.268 . S
C94 O109 1.268 1_554 S
C95 O101 1.268 . S
C95 O105 1.268 . S
C96 O102 1.268 . S
C96 O104 1.268 1_554 S
C97 O103 1.268 1_545 S
C97 O106 1.268 . S
O98 Sc88 2.105 1_554 S
O98 C92 1.268 . S
O99 Sc89 2.105 . S
O99 C93 1.268 . S
O100 Sc90 2.105 . S
O100 C94 1.268 . S
O101 Sc88 2.105 . S
O101 C95 1.268 . S
O102 Sc90 2.105 . S
O102 C96 1.268 . S
O103 Sc89 2.105 . S
O103 C97 1.268 1_565 S
O104 Sc88 2.105 . S
O104 C96 1.268 1_556 S
O105 Sc89 2.105 . S
O105 C95 1.268 . S
O106 Sc90 2.105 1_546 S
O106 C97 1.268 . S
O107 Sc88 2.105 . S
O107 C93 1.268 . S
O108 Sc90 2.105 . S
O108 C92 1.268 . S
O109 Sc89 2.105 . S
O109 C94 1.268 1_556 S
Sc110 O113 2.025 1_554 S
Sc110 O120 2.105 . S
Sc110 O123 2.105 . S
Sc110 O126 2.105 . S
Sc110 O129 2.105 1_554 S
Sc111 O113 2.025 . S
Sc111 O121 2.105 . S
Sc111 O125 2.105 . S
Sc111 O127 2.105 . S
Sc111 O131 2.105 . S
Sc112 O113 2.025 . S
Sc112 O122 2.105 . S
Sc112 O124 2.105 1_556 S
Sc112 O128 2.105 . S
Sc112 O130 2.105 . S
O113 Sc110 2.025 1_556 S
O113 Sc111 2.025 . S
O113 Sc112 2.025 . S
C114 O120 1.268 . S
C114 O130 1.268 1_554 S
C115 O121 1.268 . S
C115 O129 1.268 . S
C116 O122 1.268 . S
C116 O131 1.268 . S
C117 O123 1.268 . S
C117 O127 1.268 1_554 S
C118 O124 1.268 . S
C118 O126 1.268 . S
C119 O125 1.268 . S
C119 O128 1.268 . S
O120 Sc110 2.105 . S
O120 C114 1.268 . S
O121 Sc111 2.105 . S
O121 C115 1.268 . S
O122 Sc112 2.105 . S
O122 C116 1.268 . S
O123 Sc110 2.105 . S
O123 C117 1.268 . S
O124 Sc112 2.105 1_554 S
O124 C118 1.268 . S
O125 Sc111 2.105 . S
O125 C119 1.268 . S
O126 Sc110 2.105 . S
O126 C118 1.268 . S
O127 Sc111 2.105 . S
O127 C117 1.268 1_556 S
O128 Sc112 2.105 . S
O128 C119 1.268 . S
O129 Sc110 2.105 1_556 S
O129 C115 1.268 . S
O130 Sc112 2.105 . S
O130 C114 1.268 1_556 S
O131 Sc111 2.105 . S
O131 C116 1.268 . S
Sc132 O135 2.025 . S
Sc132 O142 2.105 . S
Sc132 O145 2.105 . S
Sc132 O148 2.105 . S
Sc132 O151 2.105 . S
Sc133 O135 2.025 . S
Sc133 O143 2.105 . S
Sc133 O147 2.105 . S
Sc133 O149 2.105 . S
Sc133 O153 2.105 . S
Sc134 O135 2.025 . S
Sc134 O144 2.105 . S
Sc134 O146 2.105 . S
Sc134 O150 2.105 . S
Sc134 O152 2.105 . S
O135 Sc132 2.025 . S
O135 Sc133 2.025 . S
O135 Sc134 2.025 . S
C136 O142 1.268 . S
C136 O152 1.268 . S
C137 O143 1.268 . S
C137 O151 1.268 . S
C138 O144 1.268 . S
C138 O153 1.268 . S
C139 O145 1.268 . S
C139 O149 1.268 . S
C140 O146 1.268 . S
C140 O148 1.268 . S
C141 O147 1.268 . S
C141 O150 1.268 . S
O142 Sc132 2.105 . S
O142 C136 1.268 . S
O143 Sc133 2.105 . S
O143 C137 1.268 . S
O144 Sc134 2.105 . S
O144 C138 1.268 . S
O145 Sc132 2.105 . S
O145 C139 1.268 . S
O146 Sc134 2.105 . S
O146 C140 1.268 . S
O147 Sc133 2.105 . S
O147 C141 1.268 . S
O148 Sc132 2.105 . S
O148 C140 1.268 . S
O149 Sc133 2.105 . S
O149 C139 1.268 . S
O150 Sc134 2.105 . S
O150 C141 1.268 . S
O151 Sc132 2.105 . S
O151 C137 1.268 . S
O152 Sc134 2.105 . S
O152 C136 1.268 . S
O153 Sc133 2.105 . S
O153 C138 1.268 . S
Sc154 O157 2.025 . S
Sc154 O164 2.105 . S
Sc154 O167 2.105 . S
Sc154 O170 2.105 . S
Sc154 O173 2.105 1_565 S
Sc155 O157 2.025 . S
Sc155 O165 2.105 . S
Sc155 O169 2.105 . S
Sc155 O171 2.105 . S
Sc155 O175 2.105 . S
Sc156 O157 2.025 . S
Sc156 O166 2.105 . S
Sc156 O168 2.105 . S
Sc156 O172 2.105 . S
Sc156 O174 2.105 . S
O157 Sc154 2.025 . S
O157 Sc155 2.025 . S
O157 Sc156 2.025 . S
C158 O164 1.268 . S
C158 O174 1.268 . S
C159 O165 1.268 1_545 S
C159 O173 1.268 . S
C160 O166 1.268 . S
C160 O175 1.268 . S
C161 O167 1.268 . S
C161 O171 1.268 . S
C162 O168 1.268 . S
C162 O170 1.268 . S
C163 O169 1.268 . S
C163 O172 1.268 . S
O164 Sc154 2.105 . S
O164 C158 1.268 . S
O165 Sc155 2.105 . S
O165 C159 1.268 1_565 S
O166 Sc156 2.105 . S
O166 C160 1.268 . S
O167 Sc154 2.105 . S
O167 C161 1.268 . S
O168 Sc156 2.105 . S
O168 C162 1.268 . S
O169 Sc155 2.105 . S
O169 C163 1.268 . S
O170 Sc154 2.105 . S
O170 C162 1.268 . S
O171 Sc155 2.105 . S
O171 C161 1.268 . S
O172 Sc156 2.105 . S
O172 C163 1.268 . S
O173 Sc154 2.105 1_545 S
O173 C159 1.268 . S
O174 Sc156 2.105 . S
O174 C158 1.268 . S
O175 Sc155 2.105 . S
O175 C160 1.268 . S
Sc176 O179 2.025 . S
Sc176 O186 2.105 . S
Sc176 O189 2.105 . S
Sc176 O192 2.105 . S
Sc176 O195 2.105 . S
Sc177 O179 2.025 . S
Sc177 O187 2.105 . S
Sc177 O191 2.105 . S
Sc177 O193 2.105 . S
Sc177 O197 2.105 . S
Sc178 O179 2.025 . S
Sc178 O188 2.105 . S
Sc178 O190 2.105 . S
Sc178 O194 2.105 . S
Sc178 O196 2.105 . S
O179 Sc176 2.025 . S
O179 Sc177 2.025 . S
O179 Sc178 2.025 . S
C180 O186 1.268 . S
C180 O196 1.268 . S
C181 O187 1.268 . S
C181 O195 1.268 . S
C182 O188 1.268 . S
C182 O197 1.268 . S
C183 O189 1.268 . S
C183 O193 1.268 . S
C184 O190 1.268 . S
C184 O192 1.268 . S
C185 O191 1.268 . S
C185 O194 1.268 . S
O186 Sc176 2.105 . S
O186 C180 1.268 . S
O187 Sc177 2.105 . S
O187 C181 1.268 . S
O188 Sc178 2.105 . S
O188 C182 1.268 . S
O189 Sc176 2.105 . S
O189 C183 1.268 . S
O190 Sc178 2.105 . S
O190 C184 1.268 . S
O191 Sc177 2.105 . S
O191 C185 1.268 . S
O192 Sc176 2.105 . S
O192 C184 1.268 . S
O193 Sc177 2.105 . S
O193 C183 1.268 . S
O194 Sc178 2.105 . S
O194 C185 1.268 . S
O195 Sc176 2.105 . S
O195 C181 1.268 . S
O196 Sc178 2.105 . S
O196 C180 1.268 . S
O197 Sc177 2.105 . S
O197 C182 1.268 . S
Sc198 O201 2.025 . S
Sc198 O208 2.105 . S
Sc198 O211 2.105 . S
Sc198 O214 2.105 . S
Sc198 O217 2.105 . S
Sc199 O201 2.025 . S
Sc199 O209 2.105 . S
Sc199 O213 2.105 . S
Sc199 O215 2.105 . S
Sc199 O219 2.105 . S
Sc200 O201 2.025 . S
Sc200 O210 2.105 . S
Sc200 O212 2.105 . S
Sc200 O216 2.105 . S
Sc200 O218 2.105 . S
O201 Sc198 2.025 . S
O201 Sc199 2.025 . S
O201 Sc200 2.025 . S
C202 O208 1.268 . S
C202 O218 1.268 . S
C203 O209 1.268 . S
C203 O217 1.268 . S
C204 O210 1.268 . S
C204 O219 1.268 . S
C205 O211 1.268 . S
C205 O215 1.268 . S
C206 O212 1.268 . S
C206 O214 1.268 . S
C207 O213 1.268 . S
C207 O216 1.268 . S
O208 Sc198 2.105 . S
O208 C202 1.268 . S
O209 Sc199 2.105 . S
O209 C203 1.268 . S
O210 Sc200 2.105 . S
O210 C204 1.268 . S
O211 Sc198 2.105 . S
O211 C205 1.268 . S
O212 Sc200 2.105 . S
O212 C206 1.268 . S
O213 Sc199 2.105 . S
O213 C207 1.268 . S
O214 Sc198 2.105 . S
O214 C206 1.268 . S
O215 Sc199 2.105 . S
O215 C205 1.268 . S
O216 Sc200 2.105 . S
O216 C207 1.268 . S
O217 Sc198 2.105 . S
O217 C203 1.268 . S
O218 Sc200 2.105 . S
O218 C202 1.268 . S
O219 Sc199 2.105 . S
O219 C204 1.268 . S
Sc220 O223 2.025 . S
Sc220 O230 2.105 . S
Sc220 O233 2.105 . S
Sc220 O236 2.105 . S
Sc220 O239 2.105 . S
Sc221 O223 2.025 . S
Sc221 O231 2.105 . S
Sc221 O235 2.105 . S
Sc221 O237 2.105 . S
Sc221 O241 2.105 . S
Sc222 O223 2.025 . S
Sc222 O232 2.105 . S
Sc222 O234 2.105 . S
Sc222 O238 2.105 . S
Sc222 O240 2.105 . S
O223 Sc220 2.025 . S
O223 Sc221 2.025 . S
O223 Sc222 2.025 . S
C224 O230 1.268 . S
C224 O240 1.268 . S
C225 O231 1.268 . S
C225 O239 1.268 . S
C226 O232 1.268 . S
C226 O241 1.268 . S
C227 O233 1.268 . S
C227 O237 1.268 . S
C228 O234 1.268 . S
C228 O236 1.268 . S
C229 O235 1.268 . S
C229 O238 1.268 . S
O230 Sc220 2.105 . S
O230 C224 1.268 . S
O231 Sc221 2.105 . S
O231 C225 1.268 . S
O232 Sc222 2.105 . S
O232 C226 1.268 . S
O233 Sc220 2.105 . S
O233 C227 1.268 . S
O234 Sc222 2.105 . S
O234 C228 1.268 . S
O235 Sc221 2.105 . S
O235 C229 1.268 . S
O236 Sc220 2.105 . S
O236 C228 1.268 . S
O237 Sc221 2.105 . S
O237 C227 1.268 . S
O238 Sc222 2.105 . S
O238 C229 1.268 . S
O239 Sc220 2.105 . S
O239 C225 1.268 . S
O240 Sc222 2.105 . S
O240 C224 1.268 . S
O241 Sc221 2.105 . S
O241 C226 1.268 . S
Sc242 O245 2.025 . S
Sc242 O252 2.105 . S
Sc242 O255 2.105 . S
Sc242 O258 2.105 . S
Sc242 O261 2.105 . S
Sc243 O245 2.025 . S
Sc243 O253 2.105 . S
Sc243 O257 2.105 . S
Sc243 O259 2.105 . S
Sc243 O263 2.105 . S
Sc244 O245 2.025 . S
Sc244 O254 2.105 . S
Sc244 O256 2.105 . S
Sc244 O260 2.105 . S
Sc244 O262 2.105 . S
O245 Sc242 2.025 . S
O245 Sc243 2.025 . S
O245 Sc244 2.025 . S
C246 O252 1.268 . S
C246 O262 1.268 . S
C247 O253 1.268 . S
C247 O261 1.268 . S
C248 O254 1.268 . S
C248 O263 1.268 . S
C249 O255 1.268 . S
C249 O259 1.268 . S
C250 O256 1.268 . S
C250 O258 1.268 . S
C251 O257 1.268 . S
C251 O260 1.268 . S
O252 Sc242 2.105 . S
O252 C246 1.268 . S
O253 Sc243 2.105 . S
O253 C247 1.268 . S
O254 Sc244 2.105 . S
O254 C248 1.268 . S
O255 Sc242 2.105 . S
O255 C249 1.268 . S
O256 Sc244 2.105 . S
O256 C250 1.268 . S
O257 Sc243 2.105 . S
O257 C251 1.268 . S
O258 Sc242 2.105 . S
O258 C250 1.268 . S
O259 Sc243 2.105 . S
O259 C249 1.268 . S
O260 Sc244 2.105 . S
O260 C251 1.268 . S
O261 Sc242 2.105 . S
O261 C247 1.268 . S
O262 Sc244 2.105 . S
O262 C246 1.268 . S
O263 Sc243 2.105 . S
O263 C248 1.268 . S
Sc264 O267 2.025 . S
Sc264 O274 2.105 . S
Sc264 O277 2.105 . S
Sc264 O280 2.105 . S
Sc264 O283 2.105 . S
Sc265 O267 2.025 . S
Sc265 O275 2.105 . S
Sc265 O279 2.105 . S
Sc265 O281 2.105 . S
Sc265 O285 2.105 . S
Sc266 O267 2.025 . S
Sc266 O276 2.105 . S
Sc266 O278 2.105 . S
Sc266 O282 2.105 . S
Sc266 O284 2.105 . S
O267 Sc264 2.025 . S
O267 Sc265 2.025 . S
O267 Sc266 2.025 . S
C268 O274 1.268 . S
C268 O284 1.268 . S
C269 O275 1.268 . S
C269 O283 1.268 . S
C270 O276 1.268 . S
C270 O285 1.268 . S
C271 O277 1.268 . S
C271 O281 1.268 . S
C272 O278 1.268 . S
C272 O280 1.268 . S
C273 O279 1.268 . S
C273 O282 1.268 . S
O274 Sc264 2.105 . S
O274 C268 1.268 . S
O275 Sc265 2.105 . S
O275 C269 1.268 . S
O276 Sc266 2.105 . S
O276 C270 1.268 . S
O277 Sc264 2.105 . S
O277 C271 1.268 . S
O278 Sc266 2.105 . S
O278 C272 1.268 . S
O279 Sc265 2.105 . S
O279 C273 1.268 . S
O280 Sc264 2.105 . S
O280 C272 1.268 . S
O281 Sc265 2.105 . S
O281 C271 1.268 . S
O282 Sc266 2.105 . S
O282 C273 1.268 . S
O283 Sc264 2.105 . S
O283 C269 1.268 . S
O284 Sc266 2.105 . S
O284 C268 1.268 . S
O285 Sc265 2.105 . S
O285 C270 1.268 . S
Sc286 O289 2.025 . S
Sc286 O296 2.105 . S
Sc286 O299 2.105 . S
Sc286 O302 2.105 . S
Sc286 O305 2.105 . S
Sc287 O289 2.025 . S
Sc287 O297 2.105 . S
Sc287 O301 2.105 . S
Sc287 O303 2.105 . S
Sc287 O307 2.105 . S
Sc288 O289 2.025 . S
Sc288 O298 2.105 . S
Sc288 O300 2.105 . S
Sc288 O304 2.105 . S
Sc288 O306 2.105 . S
O289 Sc286 2.025 . S
O289 Sc287 2.025 . S
O289 Sc288 2.025 . S
C290 O296 1.268 . S
C290 O306 1.268 . S
C291 O297 1.268 . S
C291 O305 1.268 . S
C292 O298 1.268 . S
C292 O307 1.268 . S
C293 O299 1.268 . S
C293 O303 1.268 . S
C294 O300 1.268 . S
C294 O302 1.268 . S
C295 O301 1.268 . S
C295 O304 1.268 . S
O296 Sc286 2.105 . S
O296 C290 1.268 . S
O297 Sc287 2.105 . S
O297 C291 1.268 . S
O298 Sc288 2.105 . S
O298 C292 1.268 . S
O299 Sc286 2.105 . S
O299 C293 1.268 . S
O300 Sc288 2.105 . S
O300 C294 1.268 . S
O301 Sc287 2.105 . S
O301 C295 1.268 . S
O302 Sc286 2.105 . S
O302 C294 1.268 . S
O303 Sc287 2.105 . S
O303 C293 1.268 . S
O304 Sc288 2.105 . S
O304 C295 1.268 . S
O305 Sc286 2.105 . S
O305 C291 1.268 . S
O306 Sc288 2.105 . S
O306 C290 1.268 . S
O307 Sc287 2.105 . S
O307 C292 1.268 . S
Sc308 O311 2.025 . S
Sc308 O318 2.105 . S
Sc308 O321 2.105 . S
Sc308 O324 2.105 . S
Sc308 O327 2.105 . S
Sc309 O311 2.025 . S
Sc309 O319 2.105 . S
Sc309 O323 2.105 . S
Sc309 O325 2.105 . S
Sc309 O329 2.105 . S
Sc310 O311 2.025 . S
Sc310 O320 2.105 . S
Sc310 O322 2.105 . S
Sc310 O326 2.105 . S
Sc310 O328 2.105 . S
O311 Sc308 2.025 . S
O311 Sc309 2.025 . S
O311 Sc310 2.025 . S
C312 O318 1.268 . S
C312 O328 1.268 . S
C313 O319 1.268 . S
C313 O327 1.268 . S
C314 O320 1.268 . S
C314 O329 1.268 . S
C315 O321 1.268 . S
C315 O325 1.268 . S
C316 O322 1.268 . S
C316 O324 1.268 . S
C317 O323 1.268 . S
C317 O326 1.268 . S
O318 Sc308 2.105 . S
O318 C312 1.268 . S
O319 Sc309 2.105 . S
O319 C313 1.268 . S
O320 Sc310 2.105 . S
O320 C314 1.268 . S
O321 Sc308 2.105 . S
O321 C315 1.268 . S
O322 Sc310 2.105 . S
O322 C316 1.268 . S
O323 Sc309 2.105 . S
O323 C317 1.268 . S
O324 Sc308 2.105 . S
O324 C316 1.268 . S
O325 Sc309 2.105 . S
O325 C315 1.268 . S
O326 Sc310 2.105 . S
O326 C317 1.268 . S
O327 Sc308 2.105 . S
O327 C313 1.268 . S
O328 Sc310 2.105 . S
O328 C312 1.268 . S
O329 Sc309 2.105 . S
O329 C314 1.268 . S
Sc330 O333 2.025 . S
Sc330 O340 2.105 . S
Sc330 O343 2.105 . S
Sc330 O346 2.105 . S
Sc330 O349 2.105 . S
Sc331 O333 2.025 . S
Sc331 O341 2.105 . S
Sc331 O345 2.105 . S
Sc331 O347 2.105 . S
Sc331 O351 2.105 . S
Sc332 O333 2.025 . S
Sc332 O342 2.105 . S
Sc332 O344 2.105 . S
Sc332 O348 2.105 . S
Sc332 O350 2.105 . S
O333 Sc330 2.025 . S
O333 Sc331 2.025 . S
O333 Sc332 2.025 . S
C334 O340 1.268 . S
C334 O350 1.268 . S
C335 O341 1.268 . S
C335 O349 1.268 . S
C336 O342 1.268 . S
C336 O351 1.268 . S
C337 O343 1.268 . S
C337 O347 1.268 . S
C338 O344 1.268 . S
C338 O346 1.268 . S
C339 O345 1.268 . S
C339 O348 1.268 . S
O340 Sc330 2.105 . S
O340 C334 1.268 . S
O341 Sc331 2.105 . S
O341 C335 1.268 . S
O342 Sc332 2.105 . S
O342 C336 1.268 . S
O343 Sc330 2.105 . S
O343 C337 1.268 . S
O344 Sc332 2.105 . S
O344 C338 1.268 . S
O345 Sc331 2.105 . S
O345 C339 1.268 . S
O346 Sc330 2.105 . S
O346 C338 1.268 . S
O347 Sc331 2.105 . S
O347 C337 1.268 . S
O348 Sc332 2.105 . S
O348 C339 1.268 . S
O349 Sc330 2.105 . S
O349 C335 1.268 . S
O350 Sc332 2.105 . S
O350 C334 1.268 . S
O351 Sc331 2.105 . S
O351 C336 1.268 . S
Sc352 O355 2.025 . S
Sc352 O362 2.105 . S
Sc352 O365 2.105 1_545 S
Sc352 O368 2.105 . S
Sc352 O371 2.105 . S
Sc353 O355 2.025 . S
Sc353 O363 2.105 . S
Sc353 O367 2.105 . S
Sc353 O369 2.105 . S
Sc353 O373 2.105 . S
Sc354 O355 2.025 . S
Sc354 O364 2.105 . S
Sc354 O366 2.105 . S
Sc354 O370 2.105 . S
Sc354 O372 2.105 . S
O355 Sc352 2.025 . S
O355 Sc353 2.025 . S
O355 Sc354 2.025 . S
C356 O362 1.268 . S
C356 O372 1.268 . S
C357 O363 1.268 . S
C357 O371 1.268 . S
C358 O364 1.268 . S
C358 O373 1.268 . S
C359 O365 1.268 . S
C359 O369 1.268 1_565 S
C360 O366 1.268 . S
C360 O368 1.268 . S
C361 O367 1.268 . S
C361 O370 1.268 . S
O362 Sc352 2.105 . S
O362 C356 1.268 . S
O363 Sc353 2.105 . S
O363 C357 1.268 . S
O364 Sc354 2.105 . S
O364 C358 1.268 . S
O365 Sc352 2.105 1_565 S
O365 C359 1.268 . S
O366 Sc354 2.105 . S
O366 C360 1.268 . S
O367 Sc353 2.105 . S
O367 C361 1.268 . S
O368 Sc352 2.105 . S
O368 C360 1.268 . S
O369 Sc353 2.105 . S
O369 C359 1.268 1_545 S
O370 Sc354 2.105 . S
O370 C361 1.268 . S
O371 Sc352 2.105 . S
O371 C357 1.268 . S
O372 Sc354 2.105 . S
O372 C356 1.268 . S
O373 Sc353 2.105 . S
O373 C358 1.268 . S
Sc374 O377 2.025 . S
Sc374 O384 2.105 . S
Sc374 O387 2.105 . S
Sc374 O390 2.105 . S
Sc374 O393 2.105 . S
Sc375 O377 2.025 . S
Sc375 O385 2.105 . S
Sc375 O389 2.105 . S
Sc375 O391 2.105 . S
Sc375 O395 2.105 . S
Sc376 O377 2.025 . S
Sc376 O386 2.105 . S
Sc376 O388 2.105 . S
Sc376 O392 2.105 . S
Sc376 O394 2.105 . S
O377 Sc374 2.025 . S
O377 Sc375 2.025 . S
O377 Sc376 2.025 . S
C378 O384 1.268 . S
C378 O394 1.268 . S
C379 O385 1.268 . S
C379 O393 1.268 . S
C380 O386 1.268 . S
C380 O395 1.268 . S
C381 O387 1.268 . S
C381 O391 1.268 . S
C382 O388 1.268 . S
C382 O390 1.268 . S
C383 O389 1.268 . S
C383 O392 1.268 . S
O384 Sc374 2.105 . S
O384 C378 1.268 . S
O385 Sc375 2.105 . S
O385 C379 1.268 . S
O386 Sc376 2.105 . S
O386 C380 1.268 . S
O387 Sc374 2.105 . S
O387 C381 1.268 . S
O388 Sc376 2.105 . S
O388 C382 1.268 . S
O389 Sc375 2.105 . S
O389 C383 1.268 . S
O390 Sc374 2.105 . S
O390 C382 1.268 . S
O391 Sc375 2.105 . S
O391 C381 1.268 . S
O392 Sc376 2.105 . S
O392 C383 1.268 . S
O393 Sc374 2.105 . S
O393 C379 1.268 . S
O394 Sc376 2.105 . S
O394 C378 1.268 . S
O395 Sc375 2.105 . S
O395 C380 1.268 . S
Sc396 O399 2.025 . S
Sc396 O406 2.105 . S
Sc396 O409 2.105 . S
Sc396 O412 2.105 . S
Sc396 O415 2.105 . S
Sc397 O399 2.025 . S
Sc397 O407 2.105 . S
Sc397 O411 2.105 . S
Sc397 O413 2.105 . S
Sc397 O417 2.105 . S
Sc398 O399 2.025 . S
Sc398 O408 2.105 . S
Sc398 O410 2.105 . S
Sc398 O414 2.105 . S
Sc398 O416 2.105 . S
O399 Sc396 2.025 . S
O399 Sc397 2.025 . S
O399 Sc398 2.025 . S
C400 O406 1.268 . S
C400 O416 1.268 . S
C401 O407 1.268 . S
C401 O415 1.268 . S
C402 O408 1.268 . S
C402 O417 1.268 . S
C403 O409 1.268 . S
C403 O413 1.268 . S
C404 O410 1.268 . S
C404 O412 1.268 . S
C405 O411 1.268 . S
C405 O414 1.268 . S
O406 Sc396 2.105 . S
O406 C400 1.268 . S
O407 Sc397 2.105 . S
O407 C401 1.268 . S
O408 Sc398 2.105 . S
O408 C402 1.268 . S
O409 Sc396 2.105 . S
O409 C403 1.268 . S
O410 Sc398 2.105 . S
O410 C404 1.268 . S
O411 Sc397 2.105 . S
O411 C405 1.268 . S
O412 Sc396 2.105 . S
O412 C404 1.268 . S
O413 Sc397 2.105 . S
O413 C403 1.268 . S
O414 Sc398 2.105 . S
O414 C405 1.268 . S
O415 Sc396 2.105 . S
O415 C401 1.268 . S
O416 Sc398 2.105 . S
O416 C400 1.268 . S
O417 Sc397 2.105 . S
O417 C402 1.268 . S
Sc418 O421 2.025 . S
Sc418 O428 2.105 . S
Sc418 O431 2.105 . S
Sc418 O434 2.105 . S
Sc418 O437 2.105 . S
Sc419 O421 2.025 . S
Sc419 O429 2.105 . S
Sc419 O433 2.105 . S
Sc419 O435 2.105 . S
Sc419 O439 2.105 . S
Sc420 O421 2.025 . S
Sc420 O430 2.105 1_545 S
Sc420 O432 2.105 . S
Sc420 O436 2.105 . S
Sc420 O438 2.105 . S
O421 Sc418 2.025 . S
O421 Sc419 2.025 . S
O421 Sc420 2.025 . S
C422 O428 1.268 . S
C422 O438 1.268 . S
C423 O429 1.268 . S
C423 O437 1.268 . S
C424 O430 1.268 . S
C424 O439 1.268 1_565 S
C425 O431 1.268 . S
C425 O435 1.268 . S
C426 O432 1.268 . S
C426 O434 1.268 . S
C427 O433 1.268 . S
C427 O436 1.268 . S
O428 Sc418 2.105 . S
O428 C422 1.268 . S
O429 Sc419 2.105 . S
O429 C423 1.268 . S
O430 Sc420 2.105 1_565 S
O430 C424 1.268 . S
O431 Sc418 2.105 . S
O431 C425 1.268 . S
O432 Sc420 2.105 . S
O432 C426 1.268 . S
O433 Sc419 2.105 . S
O433 C427 1.268 . S
O434 Sc418 2.105 . S
O434 C426 1.268 . S
O435 Sc419 2.105 . S
O435 C425 1.268 . S
O436 Sc420 2.105 . S
O436 C427 1.268 . S
O437 Sc418 2.105 . S
O437 C423 1.268 . S
O438 Sc420 2.105 . S
O438 C422 1.268 . S
O439 Sc419 2.105 . S
O439 C424 1.268 1_545 S
Sc440 O443 2.025 . S
Sc440 O450 2.105 . S
Sc440 O453 2.105 . S
Sc440 O456 2.105 . S
Sc440 O459 2.105 . S
Sc441 O443 2.025 . S
Sc441 O451 2.105 . S
Sc441 O455 2.105 . S
Sc441 O457 2.105 . S
Sc441 O461 2.105 . S
Sc442 O443 2.025 . S
Sc442 O452 2.105 . S
Sc442 O454 2.105 . S
Sc442 O458 2.105 1_565 S
Sc442 O460 2.105 . S
O443 Sc440 2.025 . S
O443 Sc441 2.025 . S
O443 Sc442 2.025 . S
C444 O450 1.268 . S
C444 O460 1.268 . S
C445 O451 1.268 . S
C445 O459 1.268 . S
C446 O452 1.268 . S
C446 O461 1.268 . S
C447 O453 1.268 . S
C447 O457 1.268 . S
C448 O454 1.268 . S
C448 O456 1.268 . S
C449 O455 1.268 1_545 S
C449 O458 1.268 . S
O450 Sc440 2.105 . S
O450 C444 1.268 . S
O451 Sc441 2.105 . S
O451 C445 1.268 . S
O452 Sc442 2.105 . S
O452 C446 1.268 . S
O453 Sc440 2.105 . S
O453 C447 1.268 . S
O454 Sc442 2.105 . S
O454 C448 1.268 . S
O455 Sc441 2.105 . S
O455 C449 1.268 1_565 S
O456 Sc440 2.105 . S
O456 C448 1.268 . S
O457 Sc441 2.105 . S
O457 C447 1.268 . S
O458 Sc442 2.105 1_545 S
O458 C449 1.268 . S
O459 Sc440 2.105 . S
O459 C445 1.268 . S
O460 Sc442 2.105 . S
O460 C444 1.268 . S
O461 Sc441 2.105 . S
O461 C446 1.268 . S
Sc462 O465 2.025 . S
Sc462 O472 2.105 . S
Sc462 O475 2.105 . S
Sc462 O478 2.105 . S
Sc462 O481 2.105 . S
Sc463 O465 2.025 . S
Sc463 O473 2.105 . S
Sc463 O477 2.105 . S
Sc463 O479 2.105 . S
Sc463 O483 2.105 . S
Sc464 O465 2.025 . S
Sc464 O474 2.105 . S
Sc464 O476 2.105 . S
Sc464 O480 2.105 . S
Sc464 O482 2.105 . S
O465 Sc462 2.025 . S
O465 Sc463 2.025 . S
O465 Sc464 2.025 . S
C466 O472 1.268 . S
C466 O482 1.268 . S
C467 O473 1.268 . S
C467 O481 1.268 . S
C468 O474 1.268 . S
C468 O483 1.268 . S
C469 O475 1.268 . S
C469 O479 1.268 . S
C470 O476 1.268 . S
C470 O478 1.268 . S
C471 O477 1.268 . S
C471 O480 1.268 . S
O472 Sc462 2.105 . S
O472 C466 1.268 . S
O473 Sc463 2.105 . S
O473 C467 1.268 . S
O474 Sc464 2.105 . S
O474 C468 1.268 . S
O475 Sc462 2.105 . S
O475 C469 1.268 . S
O476 Sc464 2.105 . S
O476 C470 1.268 . S
O477 Sc463 2.105 . S
O477 C471 1.268 . S
O478 Sc462 2.105 . S
O478 C470 1.268 . S
O479 Sc463 2.105 . S
O479 C469 1.268 . S
O480 Sc464 2.105 . S
O480 C471 1.268 . S
O481 Sc462 2.105 . S
O481 C467 1.268 . S
O482 Sc464 2.105 . S
O482 C466 1.268 . S
O483 Sc463 2.105 . S
O483 C468 1.268 . S
Sc484 O487 2.025 . S
Sc484 O494 2.105 . S
Sc484 O497 2.105 . S
Sc484 O500 2.105 . S
Sc484 O503 2.105 . S
Sc485 O487 2.025 . S
Sc485 O495 2.105 . S
Sc485 O499 2.105 . S
Sc485 O501 2.105 . S
Sc485 O505 2.105 . S
Sc486 O487 2.025 . S
Sc486 O496 2.105 . S
Sc486 O498 2.105 . S
Sc486 O502 2.105 . S
Sc486 O504 2.105 . S
O487 Sc484 2.025 . S
O487 Sc485 2.025 . S
O487 Sc486 2.025 . S
C488 O494 1.268 . S
C488 O504 1.268 . S
C489 O495 1.268 . S
C489 O503 1.268 . S
C490 O496 1.268 . S
C490 O505 1.268 . S
C491 O497 1.268 . S
C491 O501 1.268 . S
C492 O498 1.268 . S
C492 O500 1.268 . S
C493 O499 1.268 . S
C493 O502 1.268 . S
O494 Sc484 2.105 . S
O494 C488 1.268 . S
O495 Sc485 2.105 . S
O495 C489 1.268 . S
O496 Sc486 2.105 . S
O496 C490 1.268 . S
O497 Sc484 2.105 . S
O497 C491 1.268 . S
O498 Sc486 2.105 . S
O498 C492 1.268 . S
O499 Sc485 2.105 . S
O499 C493 1.268 . S
O500 Sc484 2.105 . S
O500 C492 1.268 . S
O501 Sc485 2.105 . S
O501 C491 1.268 . S
O502 Sc486 2.105 . S
O502 C493 1.268 . S
O503 Sc484 2.105 . S
O503 C489 1.268 . S
O504 Sc486 2.105 . S
O504 C488 1.268 . S
O505 Sc485 2.105 . S
O505 C490 1.268 . S
Sc506 O509 2.025 . S
Sc506 O516 2.105 . S
Sc506 O519 2.105 . S
Sc506 O522 2.105 . S
Sc506 O525 2.105 1_565 S
Sc507 O509 2.025 . S
Sc507 O517 2.105 . S
Sc507 O521 2.105 . S
Sc507 O523 2.105 . S
Sc507 O527 2.105 . S
Sc508 O509 2.025 . S
Sc508 O518 2.105 . S
Sc508 O520 2.105 . S
Sc508 O524 2.105 . S
Sc508 O526 2.105 . S
O509 Sc506 2.025 . S
O509 Sc507 2.025 . S
O509 Sc508 2.025 . S
C510 O516 1.268 . S
C510 O526 1.268 . S
C511 O517 1.268 1_545 S
C511 O525 1.268 . S
C512 O518 1.268 . S
C512 O527 1.268 . S
C513 O519 1.268 . S
C513 O523 1.268 . S
C514 O520 1.268 . S
C514 O522 1.268 . S
C515 O521 1.268 . S
C515 O524 1.268 . S
O516 Sc506 2.105 . S
O516 C510 1.268 . S
O517 Sc507 2.105 . S
O517 C511 1.268 1_565 S
O518 Sc508 2.105 . S
O518 C512 1.268 . S
O519 Sc506 2.105 . S
O519 C513 1.268 . S
O520 Sc508 2.105 . S
O520 C514 1.268 . S
O521 Sc507 2.105 . S
O521 C515 1.268 . S
O522 Sc506 2.105 . S
O522 C514 1.268 . S
O523 Sc507 2.105 . S
O523 C513 1.268 . S
O524 Sc508 2.105 . S
O524 C515 1.268 . S
O525 Sc506 2.105 1_545 S
O525 C511 1.268 . S
O526 Sc508 2.105 . S
O526 C510 1.268 . S
O527 Sc507 2.105 . S
O527 C512 1.268 . S
Sc528 O531 2.025 1_556 S
Sc528 O538 2.105 . S
Sc528 O541 2.105 1_556 S
Sc528 O544 2.105 . S
Sc528 O547 2.105 . S
Sc529 O531 2.025 . S
Sc529 O539 2.105 . S
Sc529 O543 2.105 . S
Sc529 O545 2.105 . S
Sc529 O549 2.105 . S
Sc530 O531 2.025 . S
Sc530 O540 2.105 . S
Sc530 O542 2.105 . S
Sc530 O546 2.105 . S
Sc530 O548 2.105 1_554 S
O531 Sc528 2.025 1_554 S
O531 Sc529 2.025 . S
O531 Sc530 2.025 . S
C532 O538 1.268 . S
C532 O548 1.268 . S
C533 O539 1.268 1_556 S
C533 O547 1.268 . S
C534 O540 1.268 . S
C534 O549 1.268 . S
C535 O541 1.268 . S
C535 O545 1.268 . S
C536 O542 1.268 1_556 S
C536 O544 1.268 . S
C537 O543 1.268 . S
C537 O546 1.268 . S
O538 Sc528 2.105 . S
O538 C532 1.268 . S
O539 Sc529 2.105 . S
O539 C533 1.268 1_554 S
O540 Sc530 2.105 . S
O540 C534 1.268 . S
O541 Sc528 2.105 1_554 S
O541 C535 1.268 . S
O542 Sc530 2.105 . S
O542 C536 1.268 1_554 S
O543 Sc529 2.105 . S
O543 C537 1.268 . S
O544 Sc528 2.105 . S
O544 C536 1.268 . S
O545 Sc529 2.105 . S
O545 C535 1.268 . S
O546 Sc530 2.105 . S
O546 C537 1.268 . S
O547 Sc528 2.105 . S
O547 C533 1.268 . S
O548 Sc530 2.105 1_556 S
O548 C532 1.268 . S
O549 Sc529 2.105 . S
O549 C534 1.268 . S
Sc550 O553 2.025 . S
Sc550 O560 2.105 . S
Sc550 O563 2.105 . S
Sc550 O566 2.105 1_554 S
Sc550 O569 2.105 . S
Sc551 O553 2.025 . S
Sc551 O561 2.105 . S
Sc551 O565 2.105 . S
Sc551 O567 2.105 . S
Sc551 O571 2.105 . S
Sc552 O553 2.025 1_556 S
Sc552 O562 2.105 1_556 S
Sc552 O564 2.105 . S
Sc552 O568 2.105 . S
Sc552 O570 2.105 . S
O553 Sc550 2.025 . S
O553 Sc551 2.025 . S
O553 Sc552 2.025 1_554 S
C554 O560 1.268 1_556 S
C554 O570 1.268 . S
C555 O561 1.268 . S
C555 O569 1.268 . S
C556 O562 1.268 . S
C556 O571 1.268 . S
C557 O563 1.268 . S
C557 O567 1.268 . S
C558 O564 1.268 . S
C558 O566 1.268 . S
C559 O565 1.268 1_556 S
C559 O568 1.268 . S
O560 Sc550 2.105 . S
O560 C554 1.268 1_554 S
O561 Sc551 2.105 . S
O561 C555 1.268 . S
O562 Sc552 2.105 1_554 S
O562 C556 1.268 . S
O563 Sc550 2.105 . S
O563 C557 1.268 . S
O564 Sc552 2.105 . S
O564 C558 1.268 . S
O565 Sc551 2.105 . S
O565 C559 1.268 1_554 S
O566 Sc550 2.105 1_556 S
O566 C558 1.268 . S
O567 Sc551 2.105 . S
O567 C557 1.268 . S
O568 Sc552 2.105 . S
O568 C559 1.268 . S
O569 Sc550 2.105 . S
O569 C555 1.268 . S
O570 Sc552 2.105 . S
O570 C554 1.268 . S
O571 Sc551 2.105 . S
O571 C556 1.268 . S
Sc572 O575 2.025 . S
Sc572 O582 2.105 . S
Sc572 O585 2.105 . S
Sc572 O588 2.105 . S
Sc572 O591 2.105 . S
Sc573 O575 2.025 . S
Sc573 O583 2.105 . S
Sc573 O587 2.105 . S
Sc573 O589 2.105 . S
Sc573 O593 2.105 . S
Sc574 O575 2.025 . S
Sc574 O584 2.105 . S
Sc574 O586 2.105 . S
Sc574 O590 2.105 . S
Sc574 O592 2.105 . S
O575 Sc572 2.025 . S
O575 Sc573 2.025 . S
O575 Sc574 2.025 . S
C576 O582 1.268 . S
C576 O592 1.268 . S
C577 O583 1.268 . S
C577 O591 1.268 . S
C578 O584 1.268 . S
C578 O593 1.268 . S
C579 O585 1.268 . S
C579 O589 1.268 . S
C580 O586 1.268 . S
C580 O588 1.268 . S
C581 O587 1.268 . S
C581 O590 1.268 . S
O582 Sc572 2.105 . S
O582 C576 1.268 . S
O583 Sc573 2.105 . S
O583 C577 1.268 . S
O584 Sc574 2.105 . S
O584 C578 1.268 . S
O585 Sc572 2.105 . S
O585 C579 1.268 . S
O586 Sc574 2.105 . S
O586 C580 1.268 . S
O587 Sc573 2.105 . S
O587 C581 1.268 . S
O588 Sc572 2.105 . S
O588 C580 1.268 . S
O589 Sc573 2.105 . S
O589 C579 1.268 . S
O590 Sc574 2.105 . S
O590 C581 1.268 . S
O591 Sc572 2.105 . S
O591 C577 1.268 . S
O592 Sc574 2.105 . S
O592 C576 1.268 . S
O593 Sc573 2.105 . S
O593 C578 1.268 . S
Sc594 O597 2.025 . S
Sc594 O604 2.105 . S
Sc594 O607 2.105 . S
Sc594 O610 2.105 . S
Sc594 O613 2.105 . S
Sc595 O597 2.025 . S
Sc595 O605 2.105 . S
Sc595 O609 2.105 . S
Sc595 O611 2.105 . S
Sc595 O615 2.105 . S
Sc596 O597 2.025 . S
Sc596 O606 2.105 . S
Sc596 O608 2.105 . S
Sc596 O612 2.105 . S
Sc596 O614 2.105 . S
O597 Sc594 2.025 . S
O597 Sc595 2.025 . S
O597 Sc596 2.025 . S
C598 O604 1.268 . S
C598 O614 1.268 . S
C599 O605 1.268 . S
C599 O613 1.268 . S
C600 O606 1.268 . S
C600 O615 1.268 . S
C601 O607 1.268 . S
C601 O611 1.268 . S
C602 O608 1.268 . S
C602 O610 1.268 . S
C603 O609 1.268 . S
C603 O612 1.268 . S
O604 Sc594 2.105 . S
O604 C598 1.268 . S
O605 Sc595 2.105 . S
O605 C599 1.268 . S
O606 Sc596 2.105 . S
O606 C600 1.268 . S
O607 Sc594 2.105 . S
O607 C601 1.268 . S
O608 Sc596 2.105 . S
O608 C602 1.268 . S
O609 Sc595 2.105 . S
O609 C603 1.268 . S
O610 Sc594 2.105 . S
O610 C602 1.268 . S
O611 Sc595 2.105 . S
O611 C601 1.268 . S
O612 Sc596 2.105 . S
O612 C603 1.268 . S
O613 Sc594 2.105 . S
O613 C599 1.268 . S
O614 Sc596 2.105 . S
O614 C598 1.268 . S
O615 Sc595 2.105 . S
O615 C600 1.268 . S
Sc616 O619 2.025 . S
Sc616 O626 2.105 1_556 S
Sc616 O629 2.105 . S
Sc616 O632 2.105 . S
Sc616 O635 2.105 . S
Sc617 O619 2.025 . S
Sc617 O627 2.105 . S
Sc617 O631 2.105 . S
Sc617 O633 2.105 . S
Sc617 O637 2.105 . S
Sc618 O619 2.025 1_554 S
Sc618 O628 2.105 . S
Sc618 O630 2.105 . S
Sc618 O634 2.105 1_554 S
Sc618 O636 2.105 . S
O619 Sc616 2.025 . S
O619 Sc617 2.025 . S
O619 Sc618 2.025 1_556 S
C620 O626 1.268 . S
C620 O636 1.268 . S
C621 O627 1.268 . S
C621 O635 1.268 . S
C622 O628 1.268 . S
C622 O637 1.268 1_554 S
C623 O629 1.268 . S
C623 O633 1.268 . S
C624 O630 1.268 . S
C624 O632 1.268 1_554 S
C625 O631 1.268 . S
C625 O634 1.268 . S
O626 Sc616 2.105 1_554 S
O626 C620 1.268 . S
O627 Sc617 2.105 . S
O627 C621 1.268 . S
O628 Sc618 2.105 . S
O628 C622 1.268 . S
O629 Sc616 2.105 . S
O629 C623 1.268 . S
O630 Sc618 2.105 . S
O630 C624 1.268 . S
O631 Sc617 2.105 . S
O631 C625 1.268 . S
O632 Sc616 2.105 . S
O632 C624 1.268 1_556 S
O633 Sc617 2.105 . S
O633 C623 1.268 . S
O634 Sc618 2.105 1_556 S
O634 C625 1.268 . S
O635 Sc616 2.105 . S
O635 C621 1.268 . S
O636 Sc618 2.105 . S
O636 C620 1.268 . S
O637 Sc617 2.105 . S
O637 C622 1.268 1_556 S
Sc638 O641 2.025 1_554 S
Sc638 O648 2.105 . S
Sc638 O651 2.105 . S
Sc638 O654 2.105 . S
Sc638 O657 2.105 1_554 S
Sc639 O641 2.025 . S
Sc639 O649 2.105 . S
Sc639 O653 2.105 . S
Sc639 O655 2.105 . S
Sc639 O659 2.105 . S
Sc640 O641 2.025 . S
Sc640 O650 2.105 . S
Sc640 O652 2.105 1_556 S
Sc640 O656 2.105 . S
Sc640 O658 2.105 . S
O641 Sc638 2.025 1_556 S
O641 Sc639 2.025 . S
O641 Sc640 2.025 . S
C642 O648 1.268 . S
C642 O658 1.268 1_554 S
C643 O649 1.268 . S
C643 O657 1.268 . S
C644 O650 1.268 . S
C644 O659 1.268 . S
C645 O651 1.268 . S
C645 O655 1.268 1_554 S
C646 O652 1.268 . S
C646 O654 1.268 . S
C647 O653 1.268 . S
C647 O656 1.268 . S
O648 Sc638 2.105 . S
O648 C642 1.268 . S
O649 Sc639 2.105 . S
O649 C643 1.268 . S
O650 Sc640 2.105 . S
O650 C644 1.268 . S
O651 Sc638 2.105 . S
O651 C645 1.268 . S
O652 Sc640 2.105 1_554 S
O652 C646 1.268 . S
O653 Sc639 2.105 . S
O653 C647 1.268 . S
O654 Sc638 2.105 . S
O654 C646 1.268 . S
O655 Sc639 2.105 . S
O655 C645 1.268 1_556 S
O656 Sc640 2.105 . S
O656 C647 1.268 . S
O657 Sc638 2.105 1_556 S
O657 C643 1.268 . S
O658 Sc640 2.105 . S
O658 C642 1.268 1_556 S
O659 Sc639 2.105 . S
O659 C644 1.268 . S
Sc660 O663 2.025 . S
Sc660 O670 2.105 . S
Sc660 O673 2.105 . S
Sc660 O676 2.105 . S
Sc660 O679 2.105 . S
Sc661 O663 2.025 . S
Sc661 O671 2.105 . S
Sc661 O675 2.105 . S
Sc661 O677 2.105 . S
Sc661 O681 2.105 . S
Sc662 O663 2.025 . S
Sc662 O672 2.105 . S
Sc662 O674 2.105 . S
Sc662 O678 2.105 . S
Sc662 O680 2.105 . S
O663 Sc660 2.025 . S
O663 Sc661 2.025 . S
O663 Sc662 2.025 . S
C664 O670 1.268 . S
C664 O680 1.268 . S
C665 O671 1.268 . S
C665 O679 1.268 . S
C666 O672 1.268 . S
C666 O681 1.268 . S
C667 O673 1.268 . S
C667 O677 1.268 . S
C668 O674 1.268 . S
C668 O676 1.268 . S
C669 O675 1.268 . S
C669 O678 1.268 . S
O670 Sc660 2.105 . S
O670 C664 1.268 . S
O671 Sc661 2.105 . S
O671 C665 1.268 . S
O672 Sc662 2.105 . S
O672 C666 1.268 . S
O673 Sc660 2.105 . S
O673 C667 1.268 . S
O674 Sc662 2.105 . S
O674 C668 1.268 . S
O675 Sc661 2.105 . S
O675 C669 1.268 . S
O676 Sc660 2.105 . S
O676 C668 1.268 . S
O677 Sc661 2.105 . S
O677 C667 1.268 . S
O678 Sc662 2.105 . S
O678 C669 1.268 . S
O679 Sc660 2.105 . S
O679 C665 1.268 . S
O680 Sc662 2.105 . S
O680 C664 1.268 . S
O681 Sc661 2.105 . S
O681 C666 1.268 . S
Sc682 O685 2.025 . S
Sc682 O692 2.105 . S
Sc682 O695 2.105 . S
Sc682 O698 2.105 . S
Sc682 O701 2.105 . S
Sc683 O685 2.025 . S
Sc683 O693 2.105 . S
Sc683 O697 2.105 . S
Sc683 O699 2.105 . S
Sc683 O703 2.105 . S
Sc684 O685 2.025 . S
Sc684 O694 2.105 . S
Sc684 O696 2.105 . S
Sc684 O700 2.105 . S
Sc684 O702 2.105 . S
O685 Sc682 2.025 . S
O685 Sc683 2.025 . S
O685 Sc684 2.025 . S
C686 O692 1.268 . S
C686 O702 1.268 . S
C687 O693 1.268 . S
C687 O701 1.268 . S
C688 O694 1.268 . S
C688 O703 1.268 . S
C689 O695 1.268 . S
C689 O699 1.268 . S
C690 O696 1.268 . S
C690 O698 1.268 . S
C691 O697 1.268 . S
C691 O700 1.268 . S
O692 Sc682 2.105 . S
O692 C686 1.268 . S
O693 Sc683 2.105 . S
O693 C687 1.268 . S
O694 Sc684 2.105 . S
O694 C688 1.268 . S
O695 Sc682 2.105 . S
O695 C689 1.268 . S
O696 Sc684 2.105 . S
O696 C690 1.268 . S
O697 Sc683 2.105 . S
O697 C691 1.268 . S
O698 Sc682 2.105 . S
O698 C690 1.268 . S
O699 Sc683 2.105 . S
O699 C689 1.268 . S
O700 Sc684 2.105 . S
O700 C691 1.268 . S
O701 Sc682 2.105 . S
O701 C687 1.268 . S
O702 Sc684 2.105 . S
O702 C686 1.268 . S
O703 Sc683 2.105 . S
O703 C688 1.268 . S
C704 C705 1.369 . S
C704 C706 1.419 . S
C704 H708 0.930 . S
C705 C704 1.369 . S
C705 C714 1.429 . S
C706 C704 1.419 . S
C706 C707 1.363 . S
C706 H709 0.929 . S
C707 C706 1.363 . S
C707 C713 1.428 . S
H708 C704 0.930 . S
H709 C706 0.929 . S
S710 N711 1.613 1_556 S
S710 N712 1.610 1_556 S
N711 S710 1.613 1_554 S
N711 C714 1.350 . S
N712 S710 1.610 1_554 S
N712 C713 1.351 . S
C713 C707 1.428 . S
C713 N712 1.351 . S
C713 C714 1.434 . S
C714 C705 1.429 . S
C714 N711 1.350 . S
C714 C713 1.434 . S
C715 C716 1.369 . S
C715 C717 1.419 . S
C715 H719 0.930 . S
C716 C715 1.369 . S
C716 C725 1.429 . S
C717 C715 1.419 . S
C717 C718 1.363 . S
C717 H720 0.929 . S
C718 C717 1.363 . S
C718 C724 1.428 . S
H719 C715 0.930 . S
H720 C717 0.929 . S
S721 N722 1.613 . S
S721 N723 1.610 . S
N722 S721 1.613 . S
N722 C725 1.350 . S
N723 S721 1.610 . S
N723 C724 1.351 . S
C724 C718 1.428 . S
C724 N723 1.351 . S
C724 C725 1.434 . S
C725 C716 1.429 . S
C725 N722 1.350 . S
C725 C724 1.434 . S
C726 C727 1.369 . S
C726 C728 1.419 . S
C726 H730 0.930 . S
C727 C726 1.369 . S
C727 C736 1.429 . S
C728 C726 1.419 . S
C728 C729 1.363 . S
C728 H731 0.929 . S
C729 C728 1.363 . S
C729 C735 1.428 . S
H730 C726 0.930 . S
H731 C728 0.929 . S
S732 N733 1.613 . S
S732 N734 1.610 . S
N733 S732 1.613 . S
N733 C736 1.350 . S
N734 S732 1.610 . S
N734 C735 1.351 . S
C735 C729 1.428 . S
C735 N734 1.351 . S
C735 C736 1.434 . S
C736 C727 1.429 . S
C736 N733 1.350 . S
C736 C735 1.434 . S
C737 C738 1.369 . S
C737 C739 1.419 . S
C737 H741 0.930 . S
C738 C737 1.369 . S
C738 C747 1.429 . S
C739 C737 1.419 . S
C739 C740 1.363 . S
C739 H742 0.929 . S
C740 C739 1.363 . S
C740 C746 1.428 . S
H741 C737 0.930 . S
H742 C739 0.929 . S
S743 N744 1.613 . S
S743 N745 1.610 . S
N744 S743 1.613 . S
N744 C747 1.350 . S
N745 S743 1.610 . S
N745 C746 1.351 . S
C746 C740 1.428 . S
C746 N745 1.351 . S
C746 C747 1.434 . S
C747 C738 1.429 . S
C747 N744 1.350 . S
C747 C746 1.434 . S
C748 C749 1.369 . S
C748 C750 1.419 . S
C748 H752 0.930 . S
C749 C748 1.369 . S
C749 C758 1.429 . S
C750 C748 1.419 . S
C750 C751 1.363 . S
C750 H753 0.929 . S
C751 C750 1.363 . S
C751 C757 1.428 . S
H752 C748 0.930 . S
H753 C750 0.929 . S
S754 N755 1.613 . S
S754 N756 1.610 . S
N755 S754 1.613 . S
N755 C758 1.350 . S
N756 S754 1.610 . S
N756 C757 1.351 . S
C757 C751 1.428 . S
C757 N756 1.351 . S
C757 C758 1.434 . S
C758 C749 1.429 . S
C758 N755 1.350 . S
C758 C757 1.434 . S
C759 C760 1.369 . S
C759 C761 1.419 . S
C759 H763 0.930 . S
C760 C759 1.369 . S
C760 C769 1.429 . S
C761 C759 1.419 . S
C761 C762 1.363 . S
C761 H764 0.929 . S
C762 C761 1.363 . S
C762 C768 1.428 . S
H763 C759 0.930 . S
H764 C761 0.929 . S
S765 N766 1.613 . S
S765 N767 1.610 . S
N766 S765 1.613 . S
N766 C769 1.350 . S
N767 S765 1.610 . S
N767 C768 1.351 . S
C768 C762 1.428 . S
C768 N767 1.351 . S
C768 C769 1.434 . S
C769 C760 1.429 . S
C769 N766 1.350 . S
C769 C768 1.434 . S
C770 C771 1.369 . S
C770 C772 1.419 . S
C770 H774 0.930 . S
C771 C770 1.369 . S
C771 C780 1.429 . S
C772 C770 1.419 . S
C772 C773 1.363 . S
C772 H775 0.929 . S
C773 C772 1.363 . S
C773 C779 1.428 . S
H774 C770 0.930 . S
H775 C772 0.929 . S
S776 N777 1.613 . S
S776 N778 1.610 . S
N777 S776 1.613 . S
N777 C780 1.350 . S
N778 S776 1.610 . S
N778 C779 1.351 . S
C779 C773 1.428 . S
C779 N778 1.351 . S
C779 C780 1.434 . S
C780 C771 1.429 . S
C780 N777 1.350 . S
C780 C779 1.434 . S
C781 C782 1.369 . S
C781 C783 1.419 . S
C781 H785 0.930 . S
C782 C781 1.369 . S
C782 C791 1.429 . S
C783 C781 1.419 . S
C783 C784 1.363 . S
C783 H786 0.929 . S
C784 C783 1.363 . S
C784 C790 1.428 . S
H785 C781 0.930 . S
H786 C783 0.929 . S
S787 N788 1.613 . S
S787 N789 1.610 . S
N788 S787 1.613 . S
N788 C791 1.350 . S
N789 S787 1.610 . S
N789 C790 1.351 . S
C790 C784 1.428 . S
C790 N789 1.351 . S
C790 C791 1.434 . S
C791 C782 1.429 . S
C791 N788 1.350 . S
C791 C790 1.434 . S
C792 C793 1.369 . S
C792 C794 1.419 . S
C792 H796 0.930 . S
C793 C792 1.369 . S
C793 C802 1.429 . S
C794 C792 1.419 . S
C794 C795 1.363 . S
C794 H797 0.929 . S
C795 C794 1.363 . S
C795 C801 1.428 . S
H796 C792 0.930 . S
H797 C794 0.929 . S
S798 N799 1.613 . S
S798 N800 1.610 . S
N799 S798 1.613 . S
N799 C802 1.350 . S
N800 S798 1.610 . S
N800 C801 1.351 . S
C801 C795 1.428 . S
C801 N800 1.351 . S
C801 C802 1.434 . S
C802 C793 1.429 . S
C802 N799 1.350 . S
C802 C801 1.434 . S
C803 C804 1.369 . S
C803 C805 1.419 . S
C803 H807 0.930 . S
C804 C803 1.369 . S
C804 C813 1.429 . S
C805 C803 1.419 . S
C805 C806 1.363 . S
C805 H808 0.929 . S
C806 C805 1.363 . S
C806 C812 1.428 . S
H807 C803 0.930 . S
H808 C805 0.929 . S
S809 N810 1.613 . S
S809 N811 1.610 . S
N810 S809 1.613 . S
N810 C813 1.350 . S
N811 S809 1.610 . S
N811 C812 1.351 . S
C812 C806 1.428 . S
C812 N811 1.351 . S
C812 C813 1.434 . S
C813 C804 1.429 . S
C813 N810 1.350 . S
C813 C812 1.434 . S
C814 C815 1.369 . S
C814 C816 1.419 . S
C814 H818 0.930 . S
C815 C814 1.369 . S
C815 C824 1.429 . S
C816 C814 1.419 . S
C816 C817 1.363 . S
C816 H819 0.929 . S
C817 C816 1.363 . S
C817 C823 1.428 . S
H818 C814 0.930 . S
H819 C816 0.929 . S
S820 N821 1.613 . S
S820 N822 1.610 . S
N821 S820 1.613 . S
N821 C824 1.350 . S
N822 S820 1.610 . S
N822 C823 1.351 . S
C823 C817 1.428 . S
C823 N822 1.351 . S
C823 C824 1.434 . S
C824 C815 1.429 . S
C824 N821 1.350 . S
C824 C823 1.434 . S
C825 C826 1.369 . S
C825 C827 1.419 . S
C825 H829 0.930 . S
C826 C825 1.369 . S
C826 C835 1.429 . S
C827 C825 1.419 . S
C827 C828 1.363 . S
C827 H830 0.929 . S
C828 C827 1.363 . S
C828 C834 1.428 . S
H829 C825 0.930 . S
H830 C827 0.929 . S
S831 N832 1.613 . S
S831 N833 1.610 . S
N832 S831 1.613 . S
N832 C835 1.350 . S
N833 S831 1.610 . S
N833 C834 1.351 . S
C834 C828 1.428 . S
C834 N833 1.351 . S
C834 C835 1.434 . S
C835 C826 1.429 . S
C835 N832 1.350 . S
C835 C834 1.434 . S
C836 C837 1.369 . S
C836 C838 1.419 . S
C836 H840 0.930 . S
C837 C836 1.369 . S
C837 C846 1.429 . S
C838 C836 1.419 . S
C838 C839 1.363 . S
C838 H841 0.929 . S
C839 C838 1.363 . S
C839 C845 1.428 . S
H840 C836 0.930 . S
H841 C838 0.929 . S
S842 N843 1.613 . S
S842 N844 1.610 . S
N843 S842 1.613 . S
N843 C846 1.350 . S
N844 S842 1.610 . S
N844 C845 1.351 . S
C845 C839 1.428 . S
C845 N844 1.351 . S
C845 C846 1.434 . S
C846 C837 1.429 . S
C846 N843 1.350 . S
C846 C845 1.434 . S
C847 C848 1.369 . S
C847 C849 1.419 . S
C847 H851 0.930 . S
C848 C847 1.369 . S
C848 C857 1.429 . S
C849 C847 1.419 . S
C849 C850 1.363 . S
C849 H852 0.929 . S
C850 C849 1.363 . S
C850 C856 1.428 . S
H851 C847 0.930 . S
H852 C849 0.929 . S
S853 N854 1.613 . S
S853 N855 1.610 . S
N854 S853 1.613 . S
N854 C857 1.350 . S
N855 S853 1.610 . S
N855 C856 1.351 . S
C856 C850 1.428 . S
C856 N855 1.351 . S
C856 C857 1.434 . S
C857 C848 1.429 . S
C857 N854 1.350 . S
C857 C856 1.434 . S
C858 C859 1.369 . S
C858 C860 1.419 . S
C858 H862 0.930 . S
C859 C858 1.369 . S
C859 C868 1.429 . S
C860 C858 1.419 . S
C860 C861 1.363 . S
C860 H863 0.929 . S
C861 C860 1.363 . S
C861 C867 1.428 . S
H862 C858 0.930 . S
H863 C860 0.929 . S
S864 N865 1.613 . S
S864 N866 1.610 . S
N865 S864 1.613 . S
N865 C868 1.350 . S
N866 S864 1.610 . S
N866 C867 1.351 . S
C867 C861 1.428 . S
C867 N866 1.351 . S
C867 C868 1.434 . S
C868 C859 1.429 . S
C868 N865 1.350 . S
C868 C867 1.434 . S
C869 C870 1.369 . S
C869 C871 1.419 . S
C869 H873 0.930 . S
C870 C869 1.369 . S
C870 C879 1.429 . S
C871 C869 1.419 . S
C871 C872 1.363 . S
C871 H874 0.929 . S
C872 C871 1.363 . S
C872 C878 1.428 . S
H873 C869 0.930 . S
H874 C871 0.929 . S
S875 N876 1.613 . S
S875 N877 1.610 . S
N876 S875 1.613 . S
N876 C879 1.350 . S
N877 S875 1.610 . S
N877 C878 1.351 . S
C878 C872 1.428 . S
C878 N877 1.351 . S
C878 C879 1.434 . S
C879 C870 1.429 . S
C879 N876 1.350 . S
C879 C878 1.434 . S
C880 C881 1.369 . S
C880 C882 1.419 . S
C880 H884 0.930 . S
C881 C880 1.369 . S
C881 C890 1.429 . S
C882 C880 1.419 . S
C882 C883 1.363 . S
C882 H885 0.929 . S
C883 C882 1.363 . S
C883 C889 1.428 . S
H884 C880 0.930 . S
H885 C882 0.929 . S
S886 N887 1.613 . S
S886 N888 1.610 . S
N887 S886 1.613 . S
N887 C890 1.350 . S
N888 S886 1.610 . S
N888 C889 1.351 . S
C889 C883 1.428 . S
C889 N888 1.351 . S
C889 C890 1.434 . S
C890 C881 1.429 . S
C890 N887 1.350 . S
C890 C889 1.434 . S
C891 C892 1.369 . S
C891 C893 1.419 . S
C891 H895 0.930 . S
C892 C891 1.369 . S
C892 C901 1.429 . S
C893 C891 1.419 . S
C893 C894 1.363 . S
C893 H896 0.929 . S
C894 C893 1.363 . S
C894 C900 1.428 . S
H895 C891 0.930 . S
H896 C893 0.929 . S
S897 N898 1.613 . S
S897 N899 1.610 . S
N898 S897 1.613 . S
N898 C901 1.350 . S
N899 S897 1.610 . S
N899 C900 1.351 . S
C900 C894 1.428 . S
C900 N899 1.351 . S
C900 C901 1.434 . S
C901 C892 1.429 . S
C901 N898 1.350 . S
C901 C900 1.434 . S
C902 C903 1.369 . S
C902 C904 1.419 . S
C902 H906 0.930 . S
C903 C902 1.369 . S
C903 C912 1.429 . S
C904 C902 1.419 . S
C904 C905 1.363 . S
C904 H907 0.929 . S
C905 C904 1.363 . S
C905 C911 1.428 . S
H906 C902 0.930 . S
H907 C904 0.929 . S
S908 N909 1.613 1_565 S
S908 N910 1.610 1_565 S
N909 S908 1.613 1_545 S
N909 C912 1.350 . S
N910 S908 1.610 1_545 S
N910 C911 1.351 . S
C911 C905 1.428 . S
C911 N910 1.351 . S
C911 C912 1.434 . S
C912 C903 1.429 . S
C912 N909 1.350 . S
C912 C911 1.434 . S
C913 C914 1.369 . S
C913 C915 1.419 . S
C913 H917 0.930 . S
C914 C913 1.369 . S
C914 C923 1.429 . S
C915 C913 1.419 . S
C915 C916 1.363 . S
C915 H918 0.929 . S
C916 C915 1.363 . S
C916 C922 1.428 . S
H917 C913 0.930 . S
H918 C915 0.929 . S
S919 N920 1.613 . S
S919 N921 1.610 . S
N920 S919 1.613 . S
N920 C923 1.350 . S
N921 S919 1.610 . S
N921 C922 1.351 . S
C922 C916 1.428 . S
C922 N921 1.351 . S
C922 C923 1.434 . S
C923 C914 1.429 . S
C923 N920 1.350 . S
C923 C922 1.434 . S
C924 C925 1.369 . S
C924 C926 1.419 . S
C924 H928 0.930 . S
C925 C924 1.369 . S
C925 C934 1.429 . S
C926 C924 1.419 . S
C926 C927 1.363 . S
C926 H929 0.929 . S
C927 C926 1.363 . S
C927 C933 1.428 . S
H928 C924 0.930 . S
H929 C926 0.929 . S
S930 N931 1.613 . S
S930 N932 1.610 . S
N931 S930 1.613 . S
N931 C934 1.350 . S
N932 S930 1.610 . S
N932 C933 1.351 . S
C933 C927 1.428 . S
C933 N932 1.351 . S
C933 C934 1.434 . S
C934 C925 1.429 . S
C934 N931 1.350 . S
C934 C933 1.434 . S
C935 C936 1.369 . S
C935 C937 1.419 . S
C935 H939 0.930 . S
C936 C935 1.369 . S
C936 C945 1.429 . S
C937 C935 1.419 . S
C937 C938 1.363 . S
C937 H940 0.929 . S
C938 C937 1.363 . S
C938 C944 1.428 . S
H939 C935 0.930 . S
H940 C937 0.929 . S
S941 N942 1.613 . S
S941 N943 1.610 . S
N942 S941 1.613 . S
N942 C945 1.350 . S
N943 S941 1.610 . S
N943 C944 1.351 . S
C944 C938 1.428 . S
C944 N943 1.351 . S
C944 C945 1.434 . S
C945 C936 1.429 . S
C945 N942 1.350 . S
C945 C944 1.434 . S
C946 C947 1.369 . S
C946 C948 1.419 . S
C946 H950 0.930 . S
C947 C946 1.369 . S
C947 C956 1.429 . S
C948 C946 1.419 . S
C948 C949 1.363 . S
C948 H951 0.929 . S
C949 C948 1.363 . S
C949 C955 1.428 . S
H950 C946 0.930 . S
H951 C948 0.929 . S
S952 N953 1.613 . S
S952 N954 1.610 . S
N953 S952 1.613 . S
N953 C956 1.350 . S
N954 S952 1.610 . S
N954 C955 1.351 . S
C955 C949 1.428 . S
C955 N954 1.351 . S
C955 C956 1.434 . S
C956 C947 1.429 . S
C956 N953 1.350 . S
C956 C955 1.434 . S
C957 C958 1.369 . S
C957 C959 1.419 . S
C957 H961 0.930 . S
C958 C957 1.369 . S
C958 C967 1.429 . S
C959 C957 1.419 . S
C959 C960 1.363 . S
C959 H962 0.929 . S
C960 C959 1.363 . S
C960 C966 1.428 . S
H961 C957 0.930 . S
H962 C959 0.929 . S
S963 N964 1.613 . S
S963 N965 1.610 . S
N964 S963 1.613 . S
N964 C967 1.350 . S
N965 S963 1.610 . S
N965 C966 1.351 . S
C966 C960 1.428 . S
C966 N965 1.351 . S
C966 C967 1.434 . S
C967 C958 1.429 . S
C967 N964 1.350 . S
C967 C966 1.434 . S
C968 C969 1.369 . S
C968 C970 1.419 . S
C968 H972 0.930 . S
C969 C968 1.369 . S
C969 C978 1.429 . S
C970 C968 1.419 . S
C970 C971 1.363 . S
C970 H973 0.929 . S
C971 C970 1.363 . S
C971 C977 1.428 . S
H972 C968 0.930 . S
H973 C970 0.929 . S
S974 N975 1.613 . S
S974 N976 1.610 . S
N975 S974 1.613 . S
N975 C978 1.350 . S
N976 S974 1.610 . S
N976 C977 1.351 . S
C977 C971 1.428 . S
C977 N976 1.351 . S
C977 C978 1.434 . S
C978 C969 1.429 . S
C978 N975 1.350 . S
C978 C977 1.434 . S
C979 C980 1.369 . S
C979 C981 1.419 . S
C979 H983 0.930 . S
C980 C979 1.369 . S
C980 C989 1.429 . S
C981 C979 1.419 . S
C981 C982 1.363 . S
C981 H984 0.929 . S
C982 C981 1.363 . S
C982 C988 1.428 . S
H983 C979 0.930 . S
H984 C981 0.929 . S
S985 N986 1.613 . S
S985 N987 1.610 . S
N986 S985 1.613 . S
N986 C989 1.350 . S
N987 S985 1.610 . S
N987 C988 1.351 . S
C988 C982 1.428 . S
C988 N987 1.351 . S
C988 C989 1.434 . S
C989 C980 1.429 . S
C989 N986 1.350 . S
C989 C988 1.434 . S
C990 C991 1.369 . S
C990 C992 1.419 . S
C990 H994 0.930 . S
C991 C990 1.369 . S
C991 C1000 1.429 . S
C992 C990 1.419 . S
C992 C993 1.363 . S
C992 H995 0.929 . S
C993 C992 1.363 . S
C993 C999 1.428 . S
H994 C990 0.930 . S
H995 C992 0.929 . S
S996 N997 1.613 . S
S996 N998 1.610 . S
N997 S996 1.613 . S
N997 C1000 1.350 . S
N998 S996 1.610 . S
N998 C999 1.351 . S
C999 C993 1.428 . S
C999 N998 1.351 . S
C999 C1000 1.434 . S
C1000 C991 1.429 . S
C1000 N997 1.350 . S
C1000 C999 1.434 . S
C1001 C1002 1.369 . S
C1001 C1003 1.419 . S
C1001 H1005 0.930 . S
C1002 C1001 1.369 . S
C1002 C1011 1.429 . S
C1003 C1001 1.419 . S
C1003 C1004 1.363 . S
C1003 H1006 0.929 . S
C1004 C1003 1.363 . S
C1004 C1010 1.428 . S
H1005 C1001 0.930 . S
H1006 C1003 0.929 . S
S1007 N1008 1.613 . S
S1007 N1009 1.610 . S
N1008 S1007 1.613 . S
N1008 C1011 1.350 . S
N1009 S1007 1.610 . S
N1009 C1010 1.351 . S
C1010 C1004 1.428 . S
C1010 N1009 1.351 . S
C1010 C1011 1.434 . S
C1011 C1002 1.429 . S
C1011 N1008 1.350 . S
C1011 C1010 1.434 . S
C1012 C1013 1.369 . S
C1012 C1014 1.419 . S
C1012 H1016 0.930 . S
C1013 C1012 1.369 . S
C1013 C1022 1.429 . S
C1014 C1012 1.419 . S
C1014 C1015 1.363 . S
C1014 H1017 0.929 . S
C1015 C1014 1.363 . S
C1015 C1021 1.428 . S
H1016 C1012 0.930 . S
H1017 C1014 0.929 . S
S1018 N1019 1.613 . S
S1018 N1020 1.610 . S
N1019 S1018 1.613 . S
N1019 C1022 1.350 . S
N1020 S1018 1.610 . S
N1020 C1021 1.351 . S
C1021 C1015 1.428 . S
C1021 N1020 1.351 . S
C1021 C1022 1.434 . S
C1022 C1013 1.429 . S
C1022 N1019 1.350 . S
C1022 C1021 1.434 . S
C1023 C1024 1.369 . S
C1023 C1025 1.419 . S
C1023 H1027 0.930 . S
C1024 C1023 1.369 . S
C1024 C1033 1.429 . S
C1025 C1023 1.419 . S
C1025 C1026 1.363 . S
C1025 H1028 0.929 . S
C1026 C1025 1.363 . S
C1026 C1032 1.428 . S
H1027 C1023 0.930 . S
H1028 C1025 0.929 . S
S1029 N1030 1.613 . S
S1029 N1031 1.610 . S
N1030 S1029 1.613 . S
N1030 C1033 1.350 . S
N1031 S1029 1.610 . S
N1031 C1032 1.351 . S
C1032 C1026 1.428 . S
C1032 N1031 1.351 . S
C1032 C1033 1.434 . S
C1033 C1024 1.429 . S
C1033 N1030 1.350 . S
C1033 C1032 1.434 . S
C1034 C1035 1.369 . S
C1034 C1036 1.419 . S
C1034 H1038 0.930 . S
C1035 C1034 1.369 . S
C1035 C1044 1.429 . S
C1036 C1034 1.419 . S
C1036 C1037 1.363 . S
C1036 H1039 0.929 . S
C1037 C1036 1.363 . S
C1037 C1043 1.428 . S
H1038 C1034 0.930 . S
H1039 C1036 0.929 . S
S1040 N1041 1.613 . S
S1040 N1042 1.610 . S
N1041 S1040 1.613 . S
N1041 C1044 1.350 . S
N1042 S1040 1.610 . S
N1042 C1043 1.351 . S
C1043 C1037 1.428 . S
C1043 N1042 1.351 . S
C1043 C1044 1.434 . S
C1044 C1035 1.429 . S
C1044 N1041 1.350 . S
C1044 C1043 1.434 . S
C1045 C1046 1.369 . S
C1045 C1047 1.419 . S
C1045 H1049 0.930 . S
C1046 C1045 1.369 . S
C1046 C1055 1.429 . S
C1047 C1045 1.419 . S
C1047 C1048 1.363 . S
C1047 H1050 0.929 . S
C1048 C1047 1.363 . S
C1048 C1054 1.428 . S
H1049 C1045 0.930 . S
H1050 C1047 0.929 . S
S1051 N1052 1.613 . S
S1051 N1053 1.610 . S
N1052 S1051 1.613 . S
N1052 C1055 1.350 . S
N1053 S1051 1.610 . S
N1053 C1054 1.351 . S
C1054 C1048 1.428 . S
C1054 N1053 1.351 . S
C1054 C1055 1.434 . S
C1055 C1046 1.429 . S
C1055 N1052 1.350 . S
C1055 C1054 1.434 . S
C1056 C1057 1.369 . S
C1056 C1058 1.419 . S
C1056 H1060 0.930 . S
C1057 C1056 1.369 . S
C1057 C1066 1.429 1_564 S
C1058 C1056 1.419 . S
C1058 C1059 1.363 1_564 S
C1058 H1061 0.929 . S
C1059 C1058 1.363 1_546 S
C1059 C1065 1.428 . S
H1060 C1056 0.930 . S
H1061 C1058 0.929 . S
S1062 N1063 1.613 . S
S1062 N1064 1.610 . S
N1063 S1062 1.613 . S
N1063 C1066 1.350 . S
N1064 S1062 1.610 . S
N1064 C1065 1.351 . S
C1065 C1059 1.428 . S
C1065 N1064 1.351 . S
C1065 C1066 1.434 . S
C1066 C1057 1.429 1_546 S
C1066 N1063 1.350 . S
C1066 C1065 1.434 . S
C1067 C1068 1.369 . S
C1067 C1069 1.419 1_556 S
C1067 H1071 0.930 . S
C1068 C1067 1.369 . S
C1068 C1077 1.429 . S
C1069 C1067 1.419 1_554 S
C1069 C1070 1.363 . S
C1069 H1072 0.929 . S
C1070 C1069 1.363 . S
C1070 C1076 1.428 . S
H1071 C1067 0.930 . S
H1072 C1069 0.929 . S
S1073 N1074 1.599 1_554 S
S1073 N1075 1.626 . S
N1074 S1073 1.599 1_556 S
N1074 C1077 1.350 . S
N1075 S1073 1.626 . S
N1075 C1076 1.351 . S
C1076 C1070 1.428 . S
C1076 N1075 1.351 . S
C1076 C1077 1.434 1_554 S
C1077 C1068 1.429 . S
C1077 N1074 1.350 . S
C1077 C1076 1.434 1_556 S
C1078 C1079 1.369 . S
C1078 C1080 1.419 . S
C1078 H1082 0.930 . S
C1079 C1078 1.369 . S
C1079 C1088 1.429 . S
C1080 C1078 1.419 . S
C1080 C1081 1.363 . S
C1080 H1083 0.929 . S
C1081 C1080 1.363 . S
C1081 C1087 1.428 . S
H1082 C1078 0.930 . S
H1083 C1080 0.929 . S
S1084 N1085 1.613 . S
S1084 N1086 1.610 . S
N1085 S1084 1.613 . S
N1085 C1088 1.350 . S
N1086 S1084 1.610 . S
N1086 C1087 1.351 . S
C1087 C1081 1.428 . S
C1087 N1086 1.351 . S
C1087 C1088 1.434 . S
C1088 C1079 1.429 . S
C1088 N1085 1.350 . S
C1088 C1087 1.434 . S
C1089 C1090 1.369 1_545 S
C1089 C1091 1.419 . S
C1089 H1093 0.930 . S
C1090 C1089 1.369 1_565 S
C1090 C1099 1.429 . S
C1091 C1089 1.419 . S
C1091 C1092 1.363 . S
C1091 H1094 0.929 . S
C1092 C1091 1.363 . S
C1092 C1098 1.428 1_545 S
H1093 C1089 0.930 . S
H1094 C1091 0.929 . S
S1095 N1096 1.613 . S
S1095 N1097 1.610 . S
N1096 S1095 1.613 . S
N1096 C1099 1.350 . S
N1097 S1095 1.610 . S
N1097 C1098 1.351 . S
C1098 C1092 1.428 1_565 S
C1098 N1097 1.351 . S
C1098 C1099 1.434 . S
C1099 C1090 1.429 . S
C1099 N1096 1.350 . S
C1099 C1098 1.434 . S
C1100 C1101 1.369 1_556 S
C1100 C1102 1.419 . S
C1100 H1104 0.930 . S
C1101 C1100 1.369 1_554 S
C1101 C1110 1.429 . S
C1102 C1100 1.419 . S
C1102 C1103 1.363 . S
C1102 H1105 0.929 . S
C1103 C1102 1.363 . S
C1103 C1109 1.428 1_556 S
H1104 C1100 0.930 . S
H1105 C1102 0.929 . S
S1106 N1107 1.613 . S
S1106 N1108 1.610 . S
N1107 S1106 1.613 . S
N1107 C1110 1.350 . S
N1108 S1106 1.610 . S
N1108 C1109 1.351 . S
C1109 C1103 1.428 1_554 S
C1109 N1108 1.351 . S
C1109 C1110 1.434 . S
C1110 C1101 1.429 . S
C1110 N1107 1.350 . S
C1110 C1109 1.434 . S
C1111 C1112 1.369 . S
C1111 C1113 1.419 . S
C1111 H1115 0.930 . S
C1112 C1111 1.369 . S
C1112 C1121 1.429 . S
C1113 C1111 1.419 . S
C1113 C1114 1.363 . S
C1113 H1116 0.929 . S
C1114 C1113 1.363 . S
C1114 C1120 1.428 . S
H1115 C1111 0.930 . S
H1116 C1113 0.929 . S
S1117 N1118 1.613 . S
S1117 N1119 1.610 . S
N1118 S1117 1.613 . S
N1118 C1121 1.350 . S
N1119 S1117 1.610 . S
N1119 C1120 1.351 . S
C1120 C1114 1.428 . S
C1120 N1119 1.351 . S
C1120 C1121 1.434 . S
C1121 C1112 1.429 . S
C1121 N1118 1.350 . S
C1121 C1120 1.434 . S
C1122 C1123 1.369 . S
C1122 C1124 1.419 . S
C1122 H1126 0.930 . S
C1123 C1122 1.369 . S
C1123 C1132 1.429 1_545 S
C1124 C1122 1.419 . S
C1124 C1125 1.363 1_545 S
C1124 H1127 0.929 . S
C1125 C1124 1.363 1_565 S
C1125 C1131 1.428 . S
H1126 C1122 0.930 . S
H1127 C1124 0.929 . S
S1128 N1129 1.613 . S
S1128 N1130 1.610 . S
N1129 S1128 1.613 . S
N1129 C1132 1.350 . S
N1130 S1128 1.610 . S
N1130 C1131 1.351 . S
C1131 C1125 1.428 . S
C1131 N1130 1.351 . S
C1131 C1132 1.434 . S
C1132 C1123 1.429 1_565 S
C1132 N1129 1.350 . S
C1132 C1131 1.434 . S
C1133 C1134 1.369 . S
C1133 C1135 1.419 . S
C1133 H1137 0.930 . S
C1134 C1133 1.369 . S
C1134 C1143 1.429 . S
C1135 C1133 1.419 . S
C1135 C1136 1.363 . S
C1135 H1138 0.929 . S
C1136 C1135 1.363 . S
C1136 C1142 1.428 . S
H1137 C1133 0.930 . S
H1138 C1135 0.929 . S
S1139 N1140 1.613 . S
S1139 N1141 1.610 . S
N1140 S1139 1.613 . S
N1140 C1143 1.350 . S
N1141 S1139 1.610 . S
N1141 C1142 1.351 . S
C1142 C1136 1.428 . S
C1142 N1141 1.351 . S
C1142 C1143 1.434 . S
C1143 C1134 1.429 . S
C1143 N1140 1.350 . S
C1143 C1142 1.434 . S
C1144 C1145 1.369 . S
C1144 C1146 1.419 . S
C1144 H1148 0.930 . S
C1145 C1144 1.369 . S
C1145 C1154 1.429 . S
C1146 C1144 1.419 . S
C1146 C1147 1.363 . S
C1146 H1149 0.929 . S
C1147 C1146 1.363 . S
C1147 C1153 1.428 . S
H1148 C1144 0.930 . S
H1149 C1146 0.929 . S
S1150 N1151 1.613 . S
S1150 N1152 1.610 . S
N1151 S1150 1.613 . S
N1151 C1154 1.350 . S
N1152 S1150 1.610 . S
N1152 C1153 1.351 . S
C1153 C1147 1.428 . S
C1153 N1152 1.351 . S
C1153 C1154 1.434 . S
C1154 C1145 1.429 . S
C1154 N1151 1.350 . S
C1154 C1153 1.434 . S
C1155 C1156 1.369 . S
C1155 C1157 1.419 . S
C1155 H1159 0.930 . S
C1156 C1155 1.369 . S
C1156 C1165 1.429 . S
C1157 C1155 1.419 . S
C1157 C1158 1.363 . S
C1157 H1160 0.929 . S
C1158 C1157 1.363 . S
C1158 C1164 1.428 . S
H1159 C1155 0.930 . S
H1160 C1157 0.929 . S
S1161 N1162 1.613 . S
S1161 N1163 1.610 . S
N1162 S1161 1.613 . S
N1162 C1165 1.350 . S
N1163 S1161 1.610 . S
N1163 C1164 1.351 . S
C1164 C1158 1.428 . S
C1164 N1163 1.351 . S
C1164 C1165 1.434 . S
C1165 C1156 1.429 . S
C1165 N1162 1.350 . S
C1165 C1164 1.434 . S
C1166 C1167 1.369 . S
C1166 C1168 1.419 . S
C1166 H1170 0.930 . S
C1167 C1166 1.369 . S
C1167 C1176 1.429 . S
C1168 C1166 1.419 . S
C1168 C1169 1.363 . S
C1168 H1171 0.929 . S
C1169 C1168 1.363 . S
C1169 C1175 1.428 . S
H1170 C1166 0.930 . S
H1171 C1168 0.929 . S
S1172 N1173 1.613 . S
S1172 N1174 1.610 . S
N1173 S1172 1.613 . S
N1173 C1176 1.350 . S
N1174 S1172 1.610 . S
N1174 C1175 1.351 . S
C1175 C1169 1.428 . S
C1175 N1174 1.351 . S
C1175 C1176 1.434 . S
C1176 C1167 1.429 . S
C1176 N1173 1.350 . S
C1176 C1175 1.434 . S
C1177 C1178 1.369 . S
C1177 C1179 1.419 . S
C1177 H1181 0.930 . S
C1178 C1177 1.369 . S
C1178 C1187 1.429 . S
C1179 C1177 1.419 . S
C1179 C1180 1.363 . S
C1179 H1182 0.929 . S
C1180 C1179 1.363 . S
C1180 C1186 1.428 . S
H1181 C1177 0.930 . S
H1182 C1179 0.929 . S
S1183 N1184 1.613 . S
S1183 N1185 1.610 . S
N1184 S1183 1.613 . S
N1184 C1187 1.350 . S
N1185 S1183 1.610 . S
N1185 C1186 1.351 . S
C1186 C1180 1.428 . S
C1186 N1185 1.351 . S
C1186 C1187 1.434 . S
C1187 C1178 1.429 . S
C1187 N1184 1.350 . S
C1187 C1186 1.434 . S
C1188 C1189 1.369 1_545 S
C1188 C1190 1.419 1_455 S
C1188 H1192 0.930 . S
C1189 C1188 1.369 1_565 S
C1189 C1198 1.429 . S
C1190 C1188 1.419 1_655 S
C1190 C1191 1.363 . S
C1190 H1193 0.929 . S
C1191 C1190 1.363 . S
C1191 C1197 1.428 1_545 S
H1192 C1188 0.930 . S
H1193 C1190 0.929 . S
S1194 N1195 1.613 . S
S1194 N1196 1.610 1_455 S
N1195 S1194 1.613 . S
N1195 C1198 1.350 . S
N1196 S1194 1.610 1_655 S
N1196 C1197 1.351 . S
C1197 C1191 1.428 1_565 S
C1197 N1196 1.351 . S
C1197 C1198 1.434 1_655 S
C1198 C1189 1.429 . S
C1198 N1195 1.350 . S
C1198 C1197 1.434 1_455 S
C1199 C1200 1.369 . S
C1199 C1201 1.419 1_455 S
C1199 H1203 0.930 . S
C1200 C1199 1.369 . S
C1200 C1209 1.429 . S
C1201 C1199 1.419 1_655 S
C1201 C1202 1.363 . S
C1201 H1204 0.929 . S
C1202 C1201 1.363 . S
C1202 C1208 1.428 . S
H1203 C1199 0.930 . S
H1204 C1201 0.929 . S
S1205 N1206 1.613 . S
S1205 N1207 1.595 1_455 S
N1206 S1205 1.613 . S
N1206 C1209 1.350 . S
N1207 S1205 1.595 1_655 S
N1207 C1208 1.352 . S
C1208 C1202 1.428 . S
C1208 N1207 1.352 . S
C1208 C1209 1.434 1_655 S
C1209 C1200 1.429 . S
C1209 N1206 1.350 . S
C1209 C1208 1.434 1_455 S
C1210 C1211 1.369 . S
C1210 C1212 1.419 . S
C1210 H1214 0.930 . S
C1211 C1210 1.369 . S
C1211 C1220 1.429 1_655 S
C1212 C1210 1.419 . S
C1212 C1213 1.363 1_655 S
C1212 H1215 0.929 . S
C1213 C1212 1.363 1_455 S
C1213 C1219 1.428 . S
H1214 C1210 0.930 . S
H1215 C1212 0.929 . S
S1216 N1217 1.613 . S
S1216 N1218 1.610 . S
N1217 S1216 1.613 . S
N1217 C1220 1.350 . S
N1218 S1216 1.610 . S
N1218 C1219 1.351 . S
C1219 C1213 1.428 . S
C1219 N1218 1.351 . S
C1219 C1220 1.434 . S
C1220 C1211 1.429 1_455 S
C1220 N1217 1.350 . S
C1220 C1219 1.434 . S
C1221 C1222 1.369 1_554 S
C1221 C1223 1.419 1_655 S
C1221 H1225 0.930 . S
C1222 C1221 1.369 1_556 S
C1222 C1231 1.429 . S
C1223 C1221 1.419 1_455 S
C1223 C1224 1.363 . S
C1223 H1226 0.929 . S
C1224 C1223 1.363 . S
C1224 C1230 1.428 1_554 S
H1225 C1221 0.930 . S
H1226 C1223 0.929 . S
S1227 N1228 1.611 1_455 S
S1227 N1229 1.610 . S
N1228 S1227 1.611 1_655 S
N1228 C1231 1.350 . S
N1229 S1227 1.610 . S
N1229 C1230 1.351 . S
C1230 C1224 1.428 1_556 S
C1230 N1229 1.351 . S
C1230 C1231 1.434 1_455 S
C1231 C1222 1.429 . S
C1231 N1228 1.350 . S
C1231 C1230 1.434 1_655 S
C1232 C1233 1.369 . S
C1232 C1234 1.419 . S
C1232 H1236 0.930 . S
C1233 C1232 1.369 . S
C1233 C1242 1.429 . S
C1234 C1232 1.419 . S
C1234 C1235 1.363 . S
C1234 H1237 0.929 . S
C1235 C1234 1.363 . S
C1235 C1241 1.428 . S
H1236 C1232 0.930 . S
H1237 C1234 0.929 . S
S1238 N1239 1.613 . S
S1238 N1240 1.610 . S
N1239 S1238 1.613 . S
N1239 C1242 1.350 . S
N1240 S1238 1.610 . S
N1240 C1241 1.351 . S
C1241 C1235 1.428 . S
C1241 N1240 1.351 . S
C1241 C1242 1.434 . S
C1242 C1233 1.429 . S
C1242 N1239 1.350 . S
C1242 C1241 1.434 . S
C1243 C1244 1.369 . S
C1243 C1245 1.419 . S
C1243 H1247 0.930 . S
C1244 C1243 1.369 . S
C1244 C1253 1.429 . S
C1245 C1243 1.419 . S
C1245 C1246 1.363 . S
C1245 H1248 0.929 . S
C1246 C1245 1.363 . S
C1246 C1252 1.428 . S
H1247 C1243 0.930 . S
H1248 C1245 0.929 . S
S1249 N1250 1.613 . S
S1249 N1251 1.610 . S
N1250 S1249 1.613 . S
N1250 C1253 1.350 . S
N1251 S1249 1.610 . S
N1251 C1252 1.351 . S
C1252 C1246 1.428 . S
C1252 N1251 1.351 . S
C1252 C1253 1.434 . S
C1253 C1244 1.429 . S
C1253 N1250 1.350 . S
C1253 C1252 1.434 . S
C1254 C1255 1.369 . S
C1254 C1256 1.419 . S
C1254 H1258 0.930 . S
C1255 C1254 1.369 . S
C1255 C1264 1.429 . S
C1256 C1254 1.419 . S
C1256 C1257 1.363 . S
C1256 H1259 0.929 . S
C1257 C1256 1.363 . S
C1257 C1263 1.428 . S
H1258 C1254 0.930 . S
H1259 C1256 0.929 . S
S1260 N1261 1.613 . S
S1260 N1262 1.610 . S
N1261 S1260 1.613 . S
N1261 C1264 1.350 . S
N1262 S1260 1.610 . S
N1262 C1263 1.351 . S
C1263 C1257 1.428 . S
C1263 N1262 1.351 . S
C1263 C1264 1.434 . S
C1264 C1255 1.429 . S
C1264 N1261 1.350 . S
C1264 C1263 1.434 . S
C1265 C1266 1.369 . S
C1265 C1267 1.419 . S
C1265 H1269 0.930 . S
C1266 C1265 1.369 . S
C1266 C1275 1.429 . S
C1267 C1265 1.419 . S
C1267 C1268 1.363 . S
C1267 H1270 0.929 . S
C1268 C1267 1.363 . S
C1268 C1274 1.428 . S
H1269 C1265 0.930 . S
H1270 C1267 0.929 . S
S1271 N1272 1.613 . S
S1271 N1273 1.610 . S
N1272 S1271 1.613 . S
N1272 C1275 1.350 . S
N1273 S1271 1.610 . S
N1273 C1274 1.351 . S
C1274 C1268 1.428 . S
C1274 N1273 1.351 . S
C1274 C1275 1.434 . S
C1275 C1266 1.429 . S
C1275 N1272 1.350 . S
C1275 C1274 1.434 . S
C1276 C1277 1.369 . S
C1276 C1278 1.419 . S
C1276 H1280 0.930 . S
C1277 C1276 1.369 . S
C1277 C1286 1.429 . S
C1278 C1276 1.419 . S
C1278 C1279 1.363 . S
C1278 H1281 0.929 . S
C1279 C1278 1.363 . S
C1279 C1285 1.428 . S
H1280 C1276 0.930 . S
H1281 C1278 0.929 . S
S1282 N1283 1.613 . S
S1282 N1284 1.610 . S
N1283 S1282 1.613 . S
N1283 C1286 1.350 . S
N1284 S1282 1.610 . S
N1284 C1285 1.351 . S
C1285 C1279 1.428 . S
C1285 N1284 1.351 . S
C1285 C1286 1.434 . S
C1286 C1277 1.429 . S
C1286 N1283 1.350 . S
C1286 C1285 1.434 . S
C1287 C1288 1.369 . S
C1287 C1289 1.419 . S
C1287 H1291 0.930 . S
C1288 C1287 1.369 . S
C1288 C1297 1.429 . S
C1289 C1287 1.419 . S
C1289 C1290 1.363 . S
C1289 H1292 0.929 . S
C1290 C1289 1.363 . S
C1290 C1296 1.428 . S
H1291 C1287 0.930 . S
H1292 C1289 0.929 . S
S1293 N1294 1.613 . S
S1293 N1295 1.610 . S
N1294 S1293 1.613 . S
N1294 C1297 1.350 . S
N1295 S1293 1.610 . S
N1295 C1296 1.351 . S
C1296 C1290 1.428 . S
C1296 N1295 1.351 . S
C1296 C1297 1.434 . S
C1297 C1288 1.429 . S
C1297 N1294 1.350 . S
C1297 C1296 1.434 . S
C1298 C1299 1.369 . S
C1298 C1300 1.419 . S
C1298 H1302 0.930 . S
C1299 C1298 1.369 . S
C1299 C1308 1.429 . S
C1300 C1298 1.419 . S
C1300 C1301 1.363 . S
C1300 H1303 0.929 . S
C1301 C1300 1.363 . S
C1301 C1307 1.428 . S
H1302 C1298 0.930 . S
H1303 C1300 0.929 . S
S1304 N1305 1.613 . S
S1304 N1306 1.610 . S
N1305 S1304 1.613 . S
N1305 C1308 1.350 . S
N1306 S1304 1.610 . S
N1306 C1307 1.351 . S
C1307 C1301 1.428 . S
C1307 N1306 1.351 . S
C1307 C1308 1.434 . S
C1308 C1299 1.429 . S
C1308 N1305 1.350 . S
C1308 C1307 1.434 . S
C1309 C1310 1.369 . S
C1309 C1311 1.419 . S
C1309 H1313 0.930 . S
C1310 C1309 1.369 . S
C1310 C1319 1.429 . S
C1311 C1309 1.419 . S
C1311 C1312 1.363 . S
C1311 H1314 0.929 . S
C1312 C1311 1.363 . S
C1312 C1318 1.428 . S
H1313 C1309 0.930 . S
H1314 C1311 0.929 . S
S1315 N1316 1.613 . S
S1315 N1317 1.610 . S
N1316 S1315 1.613 . S
N1316 C1319 1.350 . S
N1317 S1315 1.610 . S
N1317 C1318 1.351 . S
C1318 C1312 1.428 . S
C1318 N1317 1.351 . S
C1318 C1319 1.434 . S
C1319 C1310 1.429 . S
C1319 N1316 1.350 . S
C1319 C1318 1.434 . S
C1320 C1321 1.369 . S
C1320 C1322 1.419 . S
C1320 H1324 0.930 . S
C1321 C1320 1.369 . S
C1321 C1330 1.429 . S
C1322 C1320 1.419 . S
C1322 C1323 1.363 . S
C1322 H1325 0.929 . S
C1323 C1322 1.363 . S
C1323 C1329 1.428 . S
H1324 C1320 0.930 . S
H1325 C1322 0.929 . S
S1326 N1327 1.613 . S
S1326 N1328 1.610 . S
N1327 S1326 1.613 . S
N1327 C1330 1.350 . S
N1328 S1326 1.610 . S
N1328 C1329 1.351 . S
C1329 C1323 1.428 . S
C1329 N1328 1.351 . S
C1329 C1330 1.434 . S
C1330 C1321 1.429 . S
C1330 N1327 1.350 . S
C1330 C1329 1.434 . S
C1331 C1332 1.369 . S
C1331 C1333 1.419 . S
C1331 H1335 0.930 . S
C1332 C1331 1.369 . S
C1332 C1341 1.429 . S
C1333 C1331 1.419 . S
C1333 C1334 1.363 . S
C1333 H1336 0.929 . S
C1334 C1333 1.363 . S
C1334 C1340 1.428 . S
H1335 C1331 0.930 . S
H1336 C1333 0.929 . S
S1337 N1338 1.613 . S
S1337 N1339 1.610 . S
N1338 S1337 1.613 . S
N1338 C1341 1.350 . S
N1339 S1337 1.610 . S
N1339 C1340 1.351 . S
C1340 C1334 1.428 . S
C1340 N1339 1.351 . S
C1340 C1341 1.434 . S
C1341 C1332 1.429 . S
C1341 N1338 1.350 . S
C1341 C1340 1.434 . S
C1342 C1343 1.369 . S
C1342 C1344 1.419 . S
C1342 H1346 0.930 . S
C1343 C1342 1.369 . S
C1343 C1352 1.429 . S
C1344 C1342 1.419 . S
C1344 C1345 1.363 . S
C1344 H1347 0.929 . S
C1345 C1344 1.363 . S
C1345 C1351 1.428 . S
H1346 C1342 0.930 . S
H1347 C1344 0.929 . S
S1348 N1349 1.613 . S
S1348 N1350 1.610 . S
N1349 S1348 1.613 . S
N1349 C1352 1.350 . S
N1350 S1348 1.610 . S
N1350 C1351 1.351 . S
C1351 C1345 1.428 . S
C1351 N1350 1.351 . S
C1351 C1352 1.434 . S
C1352 C1343 1.429 . S
C1352 N1349 1.350 . S
C1352 C1351 1.434 . S
C1353 C1354 1.369 . S
C1353 C1355 1.419 . S
C1353 H1357 0.930 . S
C1354 C1353 1.369 . S
C1354 C1363 1.429 . S
C1355 C1353 1.419 . S
C1355 C1356 1.363 . S
C1355 H1358 0.929 . S
C1356 C1355 1.363 . S
C1356 C1362 1.428 . S
H1357 C1353 0.930 . S
H1358 C1355 0.929 . S
S1359 N1360 1.613 . S
S1359 N1361 1.610 . S
N1360 S1359 1.613 . S
N1360 C1363 1.350 . S
N1361 S1359 1.610 . S
N1361 C1362 1.351 . S
C1362 C1356 1.428 . S
C1362 N1361 1.351 . S
C1362 C1363 1.434 . S
C1363 C1354 1.429 . S
C1363 N1360 1.350 . S
C1363 C1362 1.434 . S
C1364 C1365 1.369 . S
C1364 C1366 1.419 . S
C1364 H1368 0.930 . S
C1365 C1364 1.369 . S
C1365 C1374 1.429 . S
C1366 C1364 1.419 . S
C1366 C1367 1.363 . S
C1366 H1369 0.929 . S
C1367 C1366 1.363 . S
C1367 C1373 1.428 . S
H1368 C1364 0.930 . S
H1369 C1366 0.929 . S
S1370 N1371 1.613 . S
S1370 N1372 1.610 . S
N1371 S1370 1.613 . S
N1371 C1374 1.350 . S
N1372 S1370 1.610 . S
N1372 C1373 1.351 . S
C1373 C1367 1.428 . S
C1373 N1372 1.351 . S
C1373 C1374 1.434 . S
C1374 C1365 1.429 . S
C1374 N1371 1.350 . S
C1374 C1373 1.434 . S
C1375 C1376 1.369 . S
C1375 C1377 1.419 . S
C1375 H1379 0.930 . S
C1376 C1375 1.369 . S
C1376 C1385 1.429 . S
C1377 C1375 1.419 . S
C1377 C1378 1.363 . S
C1377 H1380 0.929 . S
C1378 C1377 1.363 . S
C1378 C1384 1.428 . S
H1379 C1375 0.930 . S
H1380 C1377 0.929 . S
S1381 N1382 1.613 . S
S1381 N1383 1.610 . S
N1382 S1381 1.613 . S
N1382 C1385 1.350 . S
N1383 S1381 1.610 . S
N1383 C1384 1.351 . S
C1384 C1378 1.428 . S
C1384 N1383 1.351 . S
C1384 C1385 1.434 . S
C1385 C1376 1.429 . S
C1385 N1382 1.350 . S
C1385 C1384 1.434 . S
C1386 C1387 1.369 . S
C1386 C1388 1.419 . S
C1386 H1390 0.930 . S
C1387 C1386 1.369 . S
C1387 C1396 1.429 . S
C1388 C1386 1.419 . S
C1388 C1389 1.363 . S
C1388 H1391 0.929 . S
C1389 C1388 1.363 . S
C1389 C1395 1.428 . S
H1390 C1386 0.930 . S
H1391 C1388 0.929 . S
S1392 N1393 1.613 . S
S1392 N1394 1.610 . S
N1393 S1392 1.613 . S
N1393 C1396 1.350 . S
N1394 S1392 1.610 . S
N1394 C1395 1.351 . S
C1395 C1389 1.428 . S
C1395 N1394 1.351 . S
C1395 C1396 1.434 . S
C1396 C1387 1.429 . S
C1396 N1393 1.350 . S
C1396 C1395 1.434 . S
C1397 C1398 1.369 . S
C1397 C1399 1.419 . S
C1397 H1401 0.930 . S
C1398 C1397 1.369 . S
C1398 C1407 1.429 . S
C1399 C1397 1.419 . S
C1399 C1400 1.363 . S
C1399 H1402 0.929 . S
C1400 C1399 1.363 . S
C1400 C1406 1.428 . S
H1401 C1397 0.930 . S
H1402 C1399 0.929 . S
S1403 N1404 1.613 . S
S1403 N1405 1.610 . S
N1404 S1403 1.613 . S
N1404 C1407 1.350 . S
N1405 S1403 1.610 . S
N1405 C1406 1.351 . S
C1406 C1400 1.428 . S
C1406 N1405 1.351 . S
C1406 C1407 1.434 . S
C1407 C1398 1.429 . S
C1407 N1404 1.350 . S
C1407 C1406 1.434 . S
C1408 C1409 1.369 1_544 S
C1408 C1410 1.419 . S
C1408 H1412 0.930 . S
C1409 C1408 1.369 1_566 S
C1409 C1418 1.429 . S
C1410 C1408 1.419 . S
C1410 C1411 1.363 1_554 S
C1410 H1413 0.929 . S
C1411 C1410 1.363 1_556 S
C1411 C1417 1.428 . S
H1412 C1408 0.930 . S
H1413 C1410 0.929 . S
S1414 N1415 1.613 . S
S1414 N1416 1.610 . S
N1415 S1414 1.613 . S
N1415 C1418 1.350 . S
N1416 S1414 1.610 . S
N1416 C1417 1.351 1_565 S
C1417 C1411 1.428 . S
C1417 N1416 1.351 1_545 S
C1417 C1418 1.434 1_545 S
C1418 C1409 1.429 . S
C1418 N1415 1.350 . S
C1418 C1417 1.434 1_565 S
C1419 C1420 1.369 . S
C1419 C1421 1.419 1_455 S
C1419 H1423 0.930 . S
C1420 C1419 1.369 . S
C1420 C1429 1.429 . S
C1421 C1419 1.419 1_655 S
C1421 C1422 1.363 . S
C1421 H1424 0.931 . S
C1422 C1421 1.363 . S
C1422 C1428 1.428 1_655 S
H1423 C1419 0.930 . S
H1424 C1421 0.931 . S
S1425 N1426 1.613 . S
S1425 N1427 1.610 . S
N1426 S1425 1.613 . S
N1426 C1429 1.350 . S
N1427 S1425 1.610 . S
N1427 C1428 1.351 . S
C1428 C1422 1.428 1_455 S
C1428 N1427 1.351 . S
C1428 C1429 1.434 . S
C1429 C1420 1.429 . S
C1429 N1426 1.350 . S
C1429 C1428 1.434 . S
C1430 C1431 1.369 . S
C1430 C1432 1.419 . S
C1430 H1434 0.930 . S
C1431 C1430 1.369 . S
C1431 C1440 1.429 . S
C1432 C1430 1.419 . S
C1432 C1433 1.363 . S
C1432 H1435 0.929 . S
C1433 C1432 1.363 . S
C1433 C1439 1.428 . S
H1434 C1430 0.930 . S
H1435 C1432 0.929 . S
S1436 N1437 1.613 . S
S1436 N1438 1.610 . S
N1437 S1436 1.613 . S
N1437 C1440 1.350 . S
N1438 S1436 1.610 . S
N1438 C1439 1.351 . S
C1439 C1433 1.428 . S
C1439 N1438 1.351 . S
C1439 C1440 1.434 . S
C1440 C1431 1.429 . S
C1440 N1437 1.350 . S
C1440 C1439 1.434 . S
C1441 C1442 1.369 . S
C1441 C1443 1.419 1_645 S
C1441 H1445 0.930 1_545 S
C1442 C1441 1.369 . S
C1442 C1451 1.429 1_655 S
C1443 C1441 1.419 1_465 S
C1443 C1444 1.363 . S
C1443 H1446 0.929 . S
C1444 C1443 1.363 . S
C1444 C1450 1.428 1_565 S
H1445 C1441 0.930 1_565 S
H1446 C1443 0.929 . S
S1447 N1448 1.613 . S
S1447 N1449 1.610 . S
N1448 S1447 1.613 . S
N1448 C1451 1.350 . S
N1449 S1447 1.610 . S
N1449 C1450 1.351 . S
C1450 C1444 1.428 1_545 S
C1450 N1449 1.351 . S
C1450 C1451 1.434 . S
C1451 C1442 1.429 1_455 S
C1451 N1448 1.350 . S
C1451 C1450 1.434 . S
C1452 C1453 1.369 . S
C1452 C1454 1.419 . S
C1452 H1456 0.930 . S
C1453 C1452 1.369 . S
C1453 C1462 1.429 1_554 S
C1454 C1452 1.419 . S
C1454 C1455 1.363 1_565 S
C1454 H1457 0.929 . S
C1455 C1454 1.363 1_545 S
C1455 C1461 1.428 1_554 S
H1456 C1452 0.930 . S
H1457 C1454 0.929 . S
S1458 N1459 1.613 1_545 S
S1458 N1460 1.610 . S
N1459 S1458 1.613 1_565 S
N1459 C1462 1.350 . S
N1460 S1458 1.610 . S
N1460 C1461 1.351 . S
C1461 C1455 1.428 1_556 S
C1461 N1460 1.351 . S
C1461 C1462 1.434 1_545 S
C1462 C1453 1.429 1_556 S
C1462 N1459 1.350 . S
C1462 C1461 1.434 1_565 S
C1463 C1464 1.369 . S
C1463 C1465 1.419 1_455 S
C1463 H1467 0.934 . S
C1464 C1463 1.369 . S
C1464 C1473 1.429 1_455 S
C1465 C1463 1.419 1_655 S
C1465 C1466 1.363 . S
C1465 H1468 0.929 . S
C1466 C1465 1.363 . S
C1466 C1472 1.428 . S
H1467 C1463 0.934 . S
H1468 C1465 0.929 . S
S1469 N1470 1.613 . S
S1469 N1471 1.610 . S
N1470 S1469 1.613 . S
N1470 C1473 1.350 . S
N1471 S1469 1.610 . S
N1471 C1472 1.351 . S
C1472 C1466 1.428 . S
C1472 N1471 1.351 . S
C1472 C1473 1.434 . S
C1473 C1464 1.429 1_655 S
C1473 N1470 1.350 . S
C1473 C1472 1.434 . S
C1474 C1475 1.369 . S
C1474 C1476 1.419 . S
C1474 H1478 0.930 . S
C1475 C1474 1.369 . S
C1475 C1484 1.429 . S
C1476 C1474 1.419 . S
C1476 C1477 1.363 . S
C1476 H1479 0.929 . S
C1477 C1476 1.363 . S
C1477 C1483 1.428 . S
H1478 C1474 0.930 . S
H1479 C1476 0.929 . S
S1480 N1481 1.613 . S
S1480 N1482 1.610 . S
N1481 S1480 1.613 . S
N1481 C1484 1.350 . S
N1482 S1480 1.610 . S
N1482 C1483 1.351 . S
C1483 C1477 1.428 . S
C1483 N1482 1.351 . S
C1483 C1484 1.434 . S
C1484 C1475 1.429 . S
C1484 N1481 1.350 . S
C1484 C1483 1.434 . S
C1485 C1486 1.369 1_565 S
C1485 C1487 1.419 . S
C1485 H1489 0.930 . S
C1486 C1485 1.369 1_545 S
C1486 C1495 1.429 . S
C1487 C1485 1.419 . S
C1487 C1488 1.363 1_655 S
C1487 H1490 0.929 . S
C1488 C1487 1.363 1_455 S
C1488 C1494 1.428 . S
H1489 C1485 0.930 . S
H1490 C1487 0.929 . S
S1491 N1492 1.613 1_455 S
S1491 N1493 1.610 . S
N1492 S1491 1.613 1_655 S
N1492 C1495 1.350 . S
N1493 S1491 1.610 . S
N1493 C1494 1.351 1_545 S
C1494 C1488 1.428 . S
C1494 N1493 1.351 1_565 S
C1494 C1495 1.434 1_465 S
C1495 C1486 1.429 . S
C1495 N1492 1.350 . S
C1495 C1494 1.434 1_645 S
C1496 C1497 1.369 . S
C1496 C1498 1.419 . S
C1496 H1500 0.930 . S
C1497 C1496 1.369 . S
C1497 C1506 1.429 . S
C1498 C1496 1.419 . S
C1498 C1499 1.363 . S
C1498 H1501 0.929 . S
C1499 C1498 1.363 . S
C1499 C1505 1.428 . S
H1500 C1496 0.930 . S
H1501 C1498 0.929 . S
S1502 N1503 1.613 . S
S1502 N1504 1.610 . S
N1503 S1502 1.613 . S
N1503 C1506 1.350 . S
N1504 S1502 1.610 . S
N1504 C1505 1.351 . S
C1505 C1499 1.428 . S
C1505 N1504 1.351 . S
C1505 C1506 1.434 . S
C1506 C1497 1.429 . S
C1506 N1503 1.350 . S
C1506 C1505 1.434 . S
C1507 C1508 1.369 . S
C1507 C1509 1.419 . S
C1507 H1511 0.930 . S
C1508 C1507 1.369 . S
C1508 C1517 1.429 . S
C1509 C1507 1.419 . S
C1509 C1510 1.363 1_455 S
C1509 H1512 0.929 . S
C1510 C1509 1.363 1_655 S
C1510 C1516 1.428 . S
H1511 C1507 0.930 . S
H1512 C1509 0.929 . S
S1513 N1514 1.613 1_655 S
S1513 N1515 1.610 . S
N1514 S1513 1.613 1_455 S
N1514 C1517 1.350 . S
N1515 S1513 1.610 . S
N1515 C1516 1.351 . S
C1516 C1510 1.428 . S
C1516 N1515 1.351 . S
C1516 C1517 1.434 1_655 S
C1517 C1508 1.429 . S
C1517 N1514 1.350 . S
C1517 C1516 1.434 1_455 S
C1518 C1519 1.369 . S
C1518 C1520 1.419 . S
C1518 H1522 0.930 . S
C1519 C1518 1.369 . S
C1519 C1528 1.429 . S
C1520 C1518 1.419 . S
C1520 C1521 1.363 . S
C1520 H1523 0.929 . S
C1521 C1520 1.363 . S
C1521 C1527 1.428 . S
H1522 C1518 0.930 . S
H1523 C1520 0.929 . S
S1524 N1525 1.613 . S
S1524 N1526 1.610 . S
N1525 S1524 1.613 . S
N1525 C1528 1.350 . S
N1526 S1524 1.610 . S
N1526 C1527 1.351 . S
C1527 C1521 1.428 . S
C1527 N1526 1.351 . S
C1527 C1528 1.434 . S
C1528 C1519 1.429 . S
C1528 N1525 1.350 . S
C1528 C1527 1.434 . S
C1529 C1530 1.369 . S
C1529 C1531 1.419 1_455 S
C1529 H1533 0.930 . S
C1530 C1529 1.369 . S
C1530 C1539 1.429 . S
C1531 C1529 1.419 1_655 S
C1531 C1532 1.363 . S
C1531 H1534 0.929 . S
C1532 C1531 1.363 . S
C1532 C1538 1.428 1_655 S
H1533 C1529 0.930 . S
H1534 C1531 0.929 . S
S1535 N1536 1.613 . S
S1535 N1537 1.610 . S
N1536 S1535 1.613 . S
N1536 C1539 1.350 . S
N1537 S1535 1.610 . S
N1537 C1538 1.351 . S
C1538 C1532 1.428 1_455 S
C1538 N1537 1.351 . S
C1538 C1539 1.434 . S
C1539 C1530 1.429 . S
C1539 N1536 1.350 . S
C1539 C1538 1.434 . S
C1540 C1541 1.369 . S
C1540 C1542 1.419 . S
C1540 H1544 0.930 . S
C1541 C1540 1.369 . S
C1541 C1550 1.429 . S
C1542 C1540 1.419 . S
C1542 C1543 1.363 . S
C1542 H1545 0.929 . S
C1543 C1542 1.363 . S
C1543 C1549 1.428 . S
H1544 C1540 0.930 . S
H1545 C1542 0.929 . S
S1546 N1547 1.613 . S
S1546 N1548 1.610 . S
N1547 S1546 1.613 . S
N1547 C1550 1.350 . S
N1548 S1546 1.610 . S
N1548 C1549 1.351 . S
C1549 C1543 1.428 . S
C1549 N1548 1.351 . S
C1549 C1550 1.434 . S
C1550 C1541 1.429 . S
C1550 N1547 1.350 . S
C1550 C1549 1.434 . S
C1551 C1552 1.369 1_655 S
C1551 C1553 1.419 . S
C1551 H1555 0.930 1_655 S
C1552 C1551 1.369 1_455 S
C1552 C1561 1.429 1_455 S
C1553 C1551 1.419 . S
C1553 C1554 1.363 . S
C1553 H1556 0.929 . S
C1554 C1553 1.363 . S
C1554 C1560 1.428 . S
H1555 C1551 0.930 1_455 S
H1556 C1553 0.929 . S
S1557 N1558 1.613 . S
S1557 N1559 1.610 . S
N1558 S1557 1.613 . S
N1558 C1561 1.350 . S
N1559 S1557 1.610 . S
N1559 C1560 1.351 . S
C1560 C1554 1.428 . S
C1560 N1559 1.351 . S
C1560 C1561 1.434 . S
C1561 C1552 1.429 1_655 S
C1561 N1558 1.350 . S
C1561 C1560 1.434 . S
C1562 C1563 1.369 . S
C1562 C1564 1.419 . S
C1562 H1566 0.930 . S
C1563 C1562 1.369 . S
C1563 C1572 1.429 . S
C1564 C1562 1.419 . S
C1564 C1565 1.363 . S
C1564 H1567 0.929 . S
C1565 C1564 1.363 . S
C1565 C1571 1.428 . S
H1566 C1562 0.930 . S
H1567 C1564 0.929 . S
S1568 N1569 1.613 . S
S1568 N1570 1.610 . S
N1569 S1568 1.613 . S
N1569 C1572 1.350 . S
N1570 S1568 1.610 . S
N1570 C1571 1.351 . S
C1571 C1565 1.428 . S
C1571 N1570 1.351 . S
C1571 C1572 1.434 . S
C1572 C1563 1.429 . S
C1572 N1569 1.350 . S
C1572 C1571 1.434 . S
C1573 C1574 1.369 . S
C1573 C1575 1.419 . S
C1573 H1577 0.930 . S
C1574 C1573 1.369 . S
C1574 C1583 1.429 . S
C1575 C1573 1.419 . S
C1575 C1576 1.363 1_655 S
C1575 H1578 0.929 . S
C1576 C1575 1.363 1_455 S
C1576 C1582 1.428 . S
H1577 C1573 0.930 . S
H1578 C1575 0.929 . S
S1579 N1580 1.613 1_455 S
S1579 N1581 1.610 . S
N1580 S1579 1.613 1_655 S
N1580 C1583 1.350 . S
N1581 S1579 1.610 . S
N1581 C1582 1.351 . S
C1582 C1576 1.428 . S
C1582 N1581 1.351 . S
C1582 C1583 1.434 1_455 S
C1583 C1574 1.429 . S
C1583 N1580 1.350 . S
C1583 C1582 1.434 1_655 S
C1584 C1585 1.369 . S
C1584 C1586 1.419 1_545 S
C1584 H1588 0.930 1_545 S
C1585 C1584 1.369 . S
C1585 C1594 1.429 . S
C1586 C1584 1.419 1_565 S
C1586 C1587 1.363 . S
C1586 H1589 0.929 . S
C1587 C1586 1.363 . S
C1587 C1593 1.428 1_565 S
H1588 C1584 0.930 1_565 S
H1589 C1586 0.929 . S
S1590 N1591 1.613 . S
S1590 N1592 1.610 . S
N1591 S1590 1.613 . S
N1591 C1594 1.350 . S
N1592 S1590 1.610 . S
N1592 C1593 1.351 . S
C1593 C1587 1.428 1_545 S
C1593 N1592 1.351 . S
C1593 C1594 1.434 . S
C1594 C1585 1.429 . S
C1594 N1591 1.350 . S
C1594 C1593 1.434 . S
C1595 C1596 1.369 . S
C1595 C1597 1.419 . S
C1595 H1599 0.930 . S
C1596 C1595 1.369 . S
C1596 C1605 1.429 . S
C1597 C1595 1.419 . S
C1597 C1598 1.363 . S
C1597 H1600 0.929 . S
C1598 C1597 1.363 . S
C1598 C1604 1.428 . S
H1599 C1595 0.930 . S
H1600 C1597 0.929 . S
S1601 N1602 1.613 . S
S1601 N1603 1.610 . S
N1602 S1601 1.613 . S
N1602 C1605 1.350 . S
N1603 S1601 1.610 . S
N1603 C1604 1.351 . S
C1604 C1598 1.428 . S
C1604 N1603 1.351 . S
C1604 C1605 1.434 . S
C1605 C1596 1.429 . S
C1605 N1602 1.350 . S
C1605 C1604 1.434 . S
C1606 C1607 1.369 . S
C1606 C1608 1.419 . S
C1606 H1610 0.930 . S
C1607 C1606 1.369 . S
C1607 C1616 1.429 . S
C1608 C1606 1.419 . S
C1608 C1609 1.363 . S
C1608 H1611 0.929 . S
C1609 C1608 1.363 . S
C1609 C1615 1.428 . S
H1610 C1606 0.930 . S
H1611 C1608 0.929 . S
S1612 N1613 1.613 . S
S1612 N1614 1.610 . S
N1613 S1612 1.613 . S
N1613 C1616 1.350 . S
N1614 S1612 1.610 . S
N1614 C1615 1.351 . S
C1615 C1609 1.428 . S
C1615 N1614 1.351 . S
C1615 C1616 1.434 . S
C1616 C1607 1.429 . S
C1616 N1613 1.350 . S
C1616 C1615 1.434 . S
C1617 C1618 1.369 . S
C1617 C1619 1.419 1_565 S
C1617 H1621 0.930 . S
C1618 C1617 1.369 . S
C1618 C1627 1.429 1_565 S
C1619 C1617 1.419 1_545 S
C1619 C1620 1.363 . S
C1619 H1622 0.929 1_545 S
C1620 C1619 1.363 . S
C1620 C1626 1.428 . S
H1621 C1617 0.930 . S
H1622 C1619 0.929 1_565 S
S1623 N1624 1.613 . S
S1623 N1625 1.610 . S
N1624 S1623 1.613 . S
N1624 C1627 1.350 . S
N1625 S1623 1.610 . S
N1625 C1626 1.351 . S
C1626 C1620 1.428 . S
C1626 N1625 1.351 . S
C1626 C1627 1.434 . S
C1627 C1618 1.429 1_545 S
C1627 N1624 1.350 . S
C1627 C1626 1.434 . S
C1628 C1629 1.369 . S
C1628 C1630 1.419 . S
C1628 H1632 0.930 . S
C1629 C1628 1.369 . S
C1629 C1638 1.429 . S
C1630 C1628 1.419 . S
C1630 C1631 1.363 1_565 S
C1630 H1633 0.929 . S
C1631 C1630 1.363 1_545 S
C1631 C1637 1.428 1_545 S
H1632 C1628 0.930 . S
H1633 C1630 0.929 . S
S1634 N1635 1.613 1_545 S
S1634 N1636 1.610 . S
N1635 S1634 1.613 1_565 S
N1635 C1638 1.350 . S
N1636 S1634 1.610 . S
N1636 C1637 1.351 1_545 S
C1637 C1631 1.428 1_565 S
C1637 N1636 1.351 1_565 S
C1637 C1638 1.434 . S
C1638 C1629 1.429 . S
C1638 N1635 1.350 . S
C1638 C1637 1.434 . S
C1639 C1640 1.369 . S
C1639 C1641 1.419 . S
C1639 H1643 0.930 . S
C1640 C1639 1.369 . S
C1640 C1649 1.429 . S
C1641 C1639 1.419 . S
C1641 C1642 1.363 . S
C1641 H1644 0.929 . S
C1642 C1641 1.363 . S
C1642 C1648 1.428 . S
H1643 C1639 0.930 . S
H1644 C1641 0.929 . S
S1645 N1646 1.613 . S
S1645 N1647 1.610 . S
N1646 S1645 1.613 . S
N1646 C1649 1.350 . S
N1647 S1645 1.610 . S
N1647 C1648 1.351 . S
C1648 C1642 1.428 . S
C1648 N1647 1.351 . S
C1648 C1649 1.434 . S
C1649 C1640 1.429 . S
C1649 N1646 1.350 . S
C1649 C1648 1.434 . S
C1650 C1651 1.369 . S
C1650 C1652 1.419 . S
C1650 H1654 0.930 . S
C1651 C1650 1.369 . S
C1651 C1660 1.429 . S
C1652 C1650 1.419 . S
C1652 C1653 1.363 . S
C1652 H1655 0.929 . S
C1653 C1652 1.363 . S
C1653 C1659 1.428 . S
H1654 C1650 0.930 . S
H1655 C1652 0.929 . S
S1656 N1657 1.613 . S
S1656 N1658 1.610 . S
N1657 S1656 1.613 . S
N1657 C1660 1.350 . S
N1658 S1656 1.610 . S
N1658 C1659 1.351 . S
C1659 C1653 1.428 . S
C1659 N1658 1.351 . S
C1659 C1660 1.434 . S
C1660 C1651 1.429 . S
C1660 N1657 1.350 . S
C1660 C1659 1.434 . S
C1661 C1662 1.369 . S
C1661 C1663 1.419 . S
C1661 H1665 0.930 . S
C1662 C1661 1.369 . S
C1662 C1671 1.429 . S
C1663 C1661 1.419 . S
C1663 C1664 1.363 1_565 S
C1663 H1666 0.929 . S
C1664 C1663 1.363 1_545 S
C1664 C1670 1.428 . S
H1665 C1661 0.930 . S
H1666 C1663 0.929 . S
S1667 N1668 1.613 . S
S1667 N1669 1.610 . S
N1668 S1667 1.613 . S
N1668 C1671 1.350 1_545 S
N1669 S1667 1.610 . S
N1669 C1670 1.351 . S
C1670 C1664 1.428 . S
C1670 N1669 1.351 . S
C1670 C1671 1.434 1_545 S
C1671 C1662 1.429 . S
C1671 N1668 1.350 1_565 S
C1671 C1670 1.434 1_565 S
C1672 C1673 1.369 1_554 S
C1672 C1674 1.419 . S
C1672 H1676 0.930 . S
C1673 C1672 1.369 1_556 S
C1673 C1682 1.429 . S
C1674 C1672 1.419 . S
C1674 C1675 1.363 1_554 S
C1674 H1677 0.929 . S
C1675 C1674 1.363 1_556 S
C1675 C1681 1.428 . S
H1676 C1672 0.930 . S
H1677 C1674 0.929 . S
S1678 N1679 1.613 . S
S1678 N1680 1.610 . S
N1679 S1678 1.613 . S
N1679 C1682 1.350 . S
N1680 S1678 1.610 . S
N1680 C1681 1.351 . S
C1681 C1675 1.428 . S
C1681 N1680 1.351 . S
C1681 C1682 1.434 . S
C1682 C1673 1.429 . S
C1682 N1679 1.350 . S
C1682 C1681 1.434 . S
C1683 C1684 1.369 1_554 S
C1683 C1685 1.419 1_554 S
C1683 H1687 0.930 . S
C1684 C1683 1.369 1_556 S
C1684 C1693 1.429 . S
C1685 C1683 1.419 1_556 S
C1685 C1686 1.363 . S
C1685 H1688 0.929 1_556 S
C1686 C1685 1.363 . S
C1686 C1692 1.428 . S
H1687 C1683 0.930 . S
H1688 C1685 0.929 1_554 S
S1689 N1690 1.613 . S
S1689 N1691 1.610 . S
N1690 S1689 1.613 . S
N1690 C1693 1.350 . S
N1691 S1689 1.610 . S
N1691 C1692 1.351 . S
C1692 C1686 1.428 . S
C1692 N1691 1.351 . S
C1692 C1693 1.434 . S
C1693 C1684 1.429 . S
C1693 N1690 1.350 . S
C1693 C1692 1.434 . S
C1694 C1695 1.369 . S
C1694 C1696 1.419 . S
C1694 H1698 0.930 . S
C1695 C1694 1.369 . S
C1695 C1704 1.429 . S
C1696 C1694 1.419 . S
C1696 C1697 1.363 . S
C1696 H1699 0.929 . S
C1697 C1696 1.363 . S
C1697 C1703 1.428 . S
H1698 C1694 0.930 . S
H1699 C1696 0.929 . S
S1700 N1701 1.613 . S
S1700 N1702 1.610 . S
N1701 S1700 1.613 . S
N1701 C1704 1.350 . S
N1702 S1700 1.610 . S
N1702 C1703 1.351 . S
C1703 C1697 1.428 . S
C1703 N1702 1.351 . S
C1703 C1704 1.434 . S
C1704 C1695 1.429 . S
C1704 N1701 1.350 . S
C1704 C1703 1.434 . S
C1705 C1706 1.369 . S
C1705 C1707 1.419 . S
C1705 H1709 0.930 . S
C1706 C1705 1.369 . S
C1706 C1715 1.429 . S
C1707 C1705 1.419 . S
C1707 C1708 1.363 . S
C1707 H1710 0.929 . S
C1708 C1707 1.363 . S
C1708 C1714 1.428 . S
H1709 C1705 0.930 . S
H1710 C1707 0.929 . S
S1711 N1712 1.613 . S
S1711 N1713 1.610 . S
N1712 S1711 1.613 . S
N1712 C1715 1.350 . S
N1713 S1711 1.610 . S
N1713 C1714 1.351 . S
C1714 C1708 1.428 . S
C1714 N1713 1.351 . S
C1714 C1715 1.434 . S
C1715 C1706 1.429 . S
C1715 N1712 1.350 . S
C1715 C1714 1.434 . S
C1716 C1717 1.369 . S
C1716 C1718 1.419 . S
C1716 H1720 0.930 . S
C1717 C1716 1.369 . S
C1717 C1726 1.429 . S
C1718 C1716 1.419 . S
C1718 C1719 1.363 . S
C1718 H1721 0.929 . S
C1719 C1718 1.363 . S
C1719 C1725 1.428 1_554 S
H1720 C1716 0.930 . S
H1721 C1718 0.929 . S
S1722 N1723 1.613 . S
S1722 N1724 1.610 . S
N1723 S1722 1.613 . S
N1723 C1726 1.350 1_556 S
N1724 S1722 1.610 . S
N1724 C1725 1.351 . S
C1725 C1719 1.428 1_556 S
C1725 N1724 1.351 . S
C1725 C1726 1.434 1_556 S
C1726 C1717 1.429 . S
C1726 N1723 1.350 1_554 S
C1726 C1725 1.434 1_554 S
C1727 C1728 1.369 1_556 S
C1727 C1729 1.419 . S
C1727 H1731 0.930 . S
C1728 C1727 1.369 1_554 S
C1728 C1737 1.429 . S
C1729 C1727 1.419 . S
C1729 C1730 1.363 1_556 S
C1729 H1732 0.929 . S
C1730 C1729 1.363 1_554 S
C1730 C1736 1.428 . S
H1731 C1727 0.930 . S
H1732 C1729 0.929 . S
S1733 N1734 1.613 . S
S1733 N1735 1.610 . S
N1734 S1733 1.613 . S
N1734 C1737 1.350 . S
N1735 S1733 1.610 . S
N1735 C1736 1.351 . S
C1736 C1730 1.428 . S
C1736 N1735 1.351 . S
C1736 C1737 1.434 . S
C1737 C1728 1.429 . S
C1737 N1734 1.350 . S
C1737 C1736 1.434 . S
C1738 C1739 1.369 . S
C1738 C1740 1.419 . S
C1738 H1742 0.930 . S
C1739 C1738 1.369 . S
C1739 C1748 1.429 . S
C1740 C1738 1.419 . S
C1740 C1741 1.363 . S
C1740 H1743 0.929 . S
C1741 C1740 1.363 . S
C1741 C1747 1.428 . S
H1742 C1738 0.930 . S
H1743 C1740 0.929 . S
S1744 N1745 1.613 . S
S1744 N1746 1.610 . S
N1745 S1744 1.613 . S
N1745 C1748 1.350 . S
N1746 S1744 1.610 . S
N1746 C1747 1.351 . S
C1747 C1741 1.428 . S
C1747 N1746 1.351 . S
C1747 C1748 1.434 . S
C1748 C1739 1.429 . S
C1748 N1745 1.350 . S
C1748 C1747 1.434 . S
C1749 C1750 1.369 . S
C1749 C1751 1.419 . S
C1749 H1753 0.930 . S
C1750 C1749 1.369 . S
C1750 C1759 1.429 . S
C1751 C1749 1.419 . S
C1751 C1752 1.363 . S
C1751 H1754 0.929 . S
C1752 C1751 1.363 . S
C1752 C1758 1.428 . S
H1753 C1749 0.930 . S
H1754 C1751 0.929 . S
S1755 N1756 1.613 . S
S1755 N1757 1.610 . S
N1756 S1755 1.613 . S
N1756 C1759 1.350 . S
N1757 S1755 1.610 . S
N1757 C1758 1.351 . S
C1758 C1752 1.428 . S
C1758 N1757 1.351 . S
C1758 C1759 1.434 . S
C1759 C1750 1.429 . S
C1759 N1756 1.350 . S
C1759 C1758 1.434 . S
C705 C556 1.385 . S
C707 C7 1.389 . S
C716 C535 1.394 . S
C718 C28 1.396 . S
C727 C600 1.391 . S
C729 C51 1.397 . S
C738 C579 1.385 . S
C740 C72 1.390 . S
C749 C97 1.391 . S
C751 C643 1.386 . S
C760 C115 1.396 . S
C762 C625 1.396 . S
C771 C141 1.392 . S
C773 C687 1.397 . S
C782 C669 1.396 . S
C784 C159 1.389 . S
C793 C380 1.388 . S
C795 C183 1.396 . S
C804 C359 1.385 . S
C806 C204 1.390 . S
C815 C424 1.398 . S
C817 C227 1.393 . S
C826 C403 1.396 . S
C828 C248 1.388 . S
C837 C273 1.385 . S
C839 C467 1.389 . S
C848 C449 1.385 . S
C850 C291 1.389 . S
C859 C317 1.385 . S
C861 C511 1.390 . S
C870 C493 1.385 . S
C872 C335 1.391 . S
C881 C4 1.845 . S
C883 C426 1.847 . S
C892 C400 1.845 . S
C894 C30 1.846 . S
C903 C382 1.851 . S
C905 C48 1.849 . S
C914 C74 1.850 . S
C916 C356 1.849 . S
C925 C514 1.845 . S
C927 C92 1.847 . S
C936 C488 1.845 . S
C938 C118 1.846 . S
C947 C470 1.848 . S
C949 C136 1.849 . S
C958 C444 1.845 . S
C960 C162 1.845 . S
C969 C602 1.850 . S
C971 C180 1.849 . S
C980 C206 1.850 . S
C982 C576 1.850 . S
C991 C224 1.850 . S
C993 C558 1.850 . S
C1002 C250 1.845 . S
C1004 C532 1.846 . S
C1013 C690 1.845 . S
C1015 C268 1.846 . S
C1024 C664 1.845 . S
C1026 C294 1.845 . S
C1035 C312 1.845 . S
C1037 C646 1.845 . S
C1046 C338 1.849 . S
C1048 C620 1.849 . S
C1057 C94 1.407 . S
C1059 C5 1.416 . S
C1068 C31 1.418 . S
C1070 C645 1.408 . S
C1079 C49 1.420 . S
C1081 C314 1.406 . S
C1090 C513 1.418 . S
C1092 C75 1.407 . S
C1101 C117 1.420 . S
C1103 C559 1.406 . S
C1112 C138 1.404 . S
C1114 C225 1.418 . S
C1123 C427 1.412 . S
C1125 C161 1.412 . S
C1134 C270 1.416 . S
C1136 C181 1.408 . S
C1145 C207 1.405 . S
C1147 C469 1.417 . S
C1156 C251 1.418 . S
C1158 C689 1.408 . S
C1167 C383 1.420 . S
C1169 C293 1.406 . S
C1178 C337 1.406 . S
C1180 C603 1.416 . S
C1189 C446 1.404 . S
C1191 C357 1.418 . S
C1200 C666 1.414 . S
C1202 C401 1.411 . S
C1211 C577 1.420 . S
C1213 C490 1.406 . S
C1222 C533 1.417 . S
C1224 C622 1.407 . S
C1233 C53 1.210 . S
C1235 C9 1.205 . S
C1244 C71 1.207 . S
C1246 C27 1.203 . S
C1255 C139 1.208 . S
C1257 C95 1.203 . S
C1266 C116 1.210 . S
C1268 C160 1.211 . S
C1277 C229 1.212 . S
C1279 C185 1.207 . S
C1288 C203 1.210 . S
C1290 C247 1.205 . S
C1299 C315 1.206 . S
C1301 C271 1.211 . S
C1310 C292 1.204 . S
C1312 C336 1.209 . S
C1321 C361 1.202 . S
C1323 C405 1.207 . S
C1332 C379 1.203 . S
C1334 C423 1.208 . S
C1343 C491 1.207 . S
C1345 C447 1.202 . S
C1354 C468 1.202 . S
C1356 C512 1.207 . S
C1365 C537 1.201 . S
C1367 C581 1.206 . S
C1376 C599 1.206 . S
C1378 C555 1.210 . S
C1387 C623 1.210 . S
C1389 C667 1.204 . S
C1398 C644 1.212 . S
C1400 C688 1.207 . S
C1409 C119 1.600 . S
C1411 C8 1.575 . S
C1420 C621 1.603 . S
C1422 C26 1.578 . S
C1431 C52 1.574 . S
C1433 C339 1.600 . S
C1442 C70 1.580 . S
C1444 C489 1.603 . S
C1453 C96 1.580 . S
C1455 C29 1.602 . S
C1464 C114 1.578 . S
C1466 C534 1.603 . S
C1475 C249 1.603 . S
C1477 C140 1.580 . S
C1486 C402 1.600 . S
C1488 C158 1.575 . S
C1497 C184 1.575 . S
C1499 C295 1.600 . S
C1508 C445 1.600 . S
C1510 C202 1.576 . S
C1519 C228 1.580 . S
C1521 C163 1.602 . S
C1530 C665 1.603 . S
C1532 C246 1.578 . S
C1541 C272 1.580 . S
C1543 C205 1.602 . S
C1552 C290 1.576 . S
C1554 C358 1.602 . S
C1563 C316 1.577 . S
C1565 C73 1.602 . S
C1574 C578 1.600 . S
C1576 C334 1.575 . S
C1585 C360 1.579 . S
C1587 C471 1.603 . S
C1596 C378 1.581 . S
C1598 C269 1.603 . S
C1607 C691 1.600 . S
C1609 C404 1.576 . S
C1618 C137 1.603 . S
C1620 C422 1.578 . S
C1629 C448 1.574 . S
C1631 C381 1.601 . S
C1640 C182 1.604 . S
C1642 C466 1.580 . S
C1651 C601 1.604 . S
C1653 C492 1.579 . S
C1662 C510 1.579 . S
C1664 C50 1.601 . S
C1673 C647 1.601 . S
C1675 C536 1.576 . S
C1684 C554 1.580 . S
C1686 C93 1.603 . S
C1695 C515 1.603 . S
C1697 C580 1.579 . S
C1706 C313 1.602 . S
C1708 C598 1.579 . S
C1717 C557 1.603 . S
C1719 C624 1.580 . S
C1728 C642 1.575 . S
C1730 C6 1.600 . S
C1739 C425 1.600 . S
C1741 C668 1.576 . S
C1750 C686 1.580 . S
C1752 C226 1.602 . S
